# Generated by pormake.
# Topology ukr, (4)-cn, num edge types: 1
# Building blocks:
#     Node 0, Type 0, BuildingBlock: AZAVOO_clean_sbu_0, # of connection points: 4
#     Node 1, Type 0, BuildingBlock: AZAVOO_clean_sbu_0, # of connection points: 4
#     Node 2, Type 0, BuildingBlock: AZAVOO_clean_sbu_0, # of connection points: 4
#     Node 3, Type 0, BuildingBlock: AZAVOO_clean_sbu_0, # of connection points: 4
#     Node 4, Type 0, BuildingBlock: AZAVOO_clean_sbu_0, # of connection points: 4
#     Node 5, Type 0, BuildingBlock: AZAVOO_clean_sbu_0, # of connection points: 4
#     Node 6, Type 0, BuildingBlock: AZAVOO_clean_sbu_0, # of connection points: 4
#     Node 7, Type 0, BuildingBlock: AZAVOO_clean_sbu_0, # of connection points: 4
#     Node 8, Type 0, BuildingBlock: AZAVOO_clean_sbu_0, # of connection points: 4
#     Node 9, Type 0, BuildingBlock: AZAVOO_clean_sbu_0, # of connection points: 4
#     Node 10, Type 0, BuildingBlock: AZAVOO_clean_sbu_0, # of connection points: 4
#     Node 11, Type 0, BuildingBlock: AZAVOO_clean_sbu_0, # of connection points: 4
#     Node 12, Type 0, BuildingBlock: AZAVOO_clean_sbu_0, # of connection points: 4
#     Node 13, Type 0, BuildingBlock: AZAVOO_clean_sbu_0, # of connection points: 4
#     Node 14, Type 0, BuildingBlock: AZAVOO_clean_sbu_0, # of connection points: 4
#     Node 15, Type 0, BuildingBlock: AZAVOO_clean_sbu_0, # of connection points: 4
#     Node 16, Type 0, BuildingBlock: AZAVOO_clean_sbu_0, # of connection points: 4
#     Node 17, Type 0, BuildingBlock: AZAVOO_clean_sbu_0, # of connection points: 4
#     Node 18, Type 0, BuildingBlock: AZAVOO_clean_sbu_0, # of connection points: 4
#     Node 19, Type 0, BuildingBlock: AZAVOO_clean_sbu_0, # of connection points: 4
#     Node 20, Type 0, BuildingBlock: AZAVOO_clean_sbu_0, # of connection points: 4
#     Node 21, Type 0, BuildingBlock: AZAVOO_clean_sbu_0, # of connection points: 4
#     Node 22, Type 0, BuildingBlock: AZAVOO_clean_sbu_0, # of connection points: 4
#     Node 23, Type 0, BuildingBlock: AZAVOO_clean_sbu_0, # of connection points: 4
#     Node 24, Type 0, BuildingBlock: AZAVOO_clean_sbu_0, # of connection points: 4
#     Node 25, Type 0, BuildingBlock: AZAVOO_clean_sbu_0, # of connection points: 4
#     Node 26, Type 0, BuildingBlock: AZAVOO_clean_sbu_0, # of connection points: 4
#     Node 27, Type 0, BuildingBlock: AZAVOO_clean_sbu_0, # of connection points: 4
#     Node 28, Type 0, BuildingBlock: AZAVOO_clean_sbu_0, # of connection points: 4
#     Node 29, Type 0, BuildingBlock: AZAVOO_clean_sbu_0, # of connection points: 4
#     Node 30, Type 0, BuildingBlock: AZAVOO_clean_sbu_0, # of connection points: 4
#     Node 31, Type 0, BuildingBlock: AZAVOO_clean_sbu_0, # of connection points: 4
#     Node 32, Type 0, BuildingBlock: AZAVOO_clean_sbu_0, # of connection points: 4
#     Node 33, Type 0, BuildingBlock: AZAVOO_clean_sbu_0, # of connection points: 4
#     Node 34, Type 0, BuildingBlock: AZAVOO_clean_sbu_0, # of connection points: 4
#     Node 35, Type 0, BuildingBlock: AZAVOO_clean_sbu_0, # of connection points: 4
#     Node 36, Type 0, BuildingBlock: AZAVOO_clean_sbu_0, # of connection points: 4
#     Node 37, Type 0, BuildingBlock: AZAVOO_clean_sbu_0, # of connection points: 4
#     Node 38, Type 0, BuildingBlock: AZAVOO_clean_sbu_0, # of connection points: 4
#     Node 39, Type 0, BuildingBlock: AZAVOO_clean_sbu_0, # of connection points: 4
#     Node 40, Type 0, BuildingBlock: AZAVOO_clean_sbu_0, # of connection points: 4
#     Node 41, Type 0, BuildingBlock: AZAVOO_clean_sbu_0, # of connection points: 4
#     Node 42, Type 0, BuildingBlock: AZAVOO_clean_sbu_0, # of connection points: 4
#     Node 43, Type 0, BuildingBlock: AZAVOO_clean_sbu_0, # of connection points: 4
#     Node 44, Type 0, BuildingBlock: AZAVOO_clean_sbu_0, # of connection points: 4
#     Node 45, Type 0, BuildingBlock: AZAVOO_clean_sbu_0, # of connection points: 4
#     Node 46, Type 0, BuildingBlock: AZAVOO_clean_sbu_0, # of connection points: 4
#     Node 47, Type 0, BuildingBlock: AZAVOO_clean_sbu_0, # of connection points: 4
#     Edge 48, Type (0, 0), BuildingBlock: CIFDUS_clean_linker_0, # of connection points: 2
#     Edge 49, Type (0, 0), BuildingBlock: CIFDUS_clean_linker_0, # of connection points: 2
#     Edge 50, Type (0, 0), BuildingBlock: CIFDUS_clean_linker_0, # of connection points: 2
#     Edge 51, Type (0, 0), BuildingBlock: CIFDUS_clean_linker_0, # of connection points: 2
#     Edge 52, Type (0, 0), BuildingBlock: CIFDUS_clean_linker_0, # of connection points: 2
#     Edge 53, Type (0, 0), BuildingBlock: CIFDUS_clean_linker_0, # of connection points: 2
#     Edge 54, Type (0, 0), BuildingBlock: CIFDUS_clean_linker_0, # of connection points: 2
#     Edge 55, Type (0, 0), BuildingBlock: CIFDUS_clean_linker_0, # of connection points: 2
#     Edge 56, Type (0, 0), BuildingBlock: CIFDUS_clean_linker_0, # of connection points: 2
#     Edge 57, Type (0, 0), BuildingBlock: CIFDUS_clean_linker_0, # of connection points: 2
#     Edge 58, Type (0, 0), BuildingBlock: CIFDUS_clean_linker_0, # of connection points: 2
#     Edge 59, Type (0, 0), BuildingBlock: CIFDUS_clean_linker_0, # of connection points: 2
#     Edge 60, Type (0, 0), BuildingBlock: CIFDUS_clean_linker_0, # of connection points: 2
#     Edge 61, Type (0, 0), BuildingBlock: CIFDUS_clean_linker_0, # of connection points: 2
#     Edge 62, Type (0, 0), BuildingBlock: CIFDUS_clean_linker_0, # of connection points: 2
#     Edge 63, Type (0, 0), BuildingBlock: CIFDUS_clean_linker_0, # of connection points: 2
#     Edge 64, Type (0, 0), BuildingBlock: CIFDUS_clean_linker_0, # of connection points: 2
#     Edge 65, Type (0, 0), BuildingBlock: CIFDUS_clean_linker_0, # of connection points: 2
#     Edge 66, Type (0, 0), BuildingBlock: CIFDUS_clean_linker_0, # of connection points: 2
#     Edge 67, Type (0, 0), BuildingBlock: CIFDUS_clean_linker_0, # of connection points: 2
#     Edge 68, Type (0, 0), BuildingBlock: CIFDUS_clean_linker_0, # of connection points: 2
#     Edge 69, Type (0, 0), BuildingBlock: CIFDUS_clean_linker_0, # of connection points: 2
#     Edge 70, Type (0, 0), BuildingBlock: CIFDUS_clean_linker_0, # of connection points: 2
#     Edge 71, Type (0, 0), BuildingBlock: CIFDUS_clean_linker_0, # of connection points: 2
#     Edge 72, Type (0, 0), BuildingBlock: CIFDUS_clean_linker_0, # of connection points: 2
#     Edge 73, Type (0, 0), BuildingBlock: CIFDUS_clean_linker_0, # of connection points: 2
#     Edge 74, Type (0, 0), BuildingBlock: CIFDUS_clean_linker_0, # of connection points: 2
#     Edge 75, Type (0, 0), BuildingBlock: CIFDUS_clean_linker_0, # of connection points: 2
#     Edge 76, Type (0, 0), BuildingBlock: CIFDUS_clean_linker_0, # of connection points: 2
#     Edge 77, Type (0, 0), BuildingBlock: CIFDUS_clean_linker_0, # of connection points: 2
#     Edge 78, Type (0, 0), BuildingBlock: CIFDUS_clean_linker_0, # of connection points: 2
#     Edge 79, Type (0, 0), BuildingBlock: CIFDUS_clean_linker_0, # of connection points: 2
#     Edge 80, Type (0, 0), BuildingBlock: CIFDUS_clean_linker_0, # of connection points: 2
#     Edge 81, Type (0, 0), BuildingBlock: CIFDUS_clean_linker_0, # of connection points: 2
#     Edge 82, Type (0, 0), BuildingBlock: CIFDUS_clean_linker_0, # of connection points: 2
#     Edge 83, Type (0, 0), BuildingBlock: CIFDUS_clean_linker_0, # of connection points: 2
#     Edge 84, Type (0, 0), BuildingBlock: CIFDUS_clean_linker_0, # of connection points: 2
#     Edge 85, Type (0, 0), BuildingBlock: CIFDUS_clean_linker_0, # of connection points: 2
#     Edge 86, Type (0, 0), BuildingBlock: CIFDUS_clean_linker_0, # of connection points: 2
#     Edge 87, Type (0, 0), BuildingBlock: CIFDUS_clean_linker_0, # of connection points: 2
#     Edge 88, Type (0, 0), BuildingBlock: CIFDUS_clean_linker_0, # of connection points: 2
#     Edge 89, Type (0, 0), BuildingBlock: CIFDUS_clean_linker_0, # of connection points: 2
#     Edge 90, Type (0, 0), BuildingBlock: CIFDUS_clean_linker_0, # of connection points: 2
#     Edge 91, Type (0, 0), BuildingBlock: CIFDUS_clean_linker_0, # of connection points: 2
#     Edge 92, Type (0, 0), BuildingBlock: CIFDUS_clean_linker_0, # of connection points: 2
#     Edge 93, Type (0, 0), BuildingBlock: CIFDUS_clean_linker_0, # of connection points: 2
#     Edge 94, Type (0, 0), BuildingBlock: CIFDUS_clean_linker_0, # of connection points: 2
#     Edge 95, Type (0, 0), BuildingBlock: CIFDUS_clean_linker_0, # of connection points: 2
#     Edge 96, Type (0, 0), BuildingBlock: CIFDUS_clean_linker_0, # of connection points: 2
#     Edge 97, Type (0, 0), BuildingBlock: CIFDUS_clean_linker_0, # of connection points: 2
#     Edge 98, Type (0, 0), BuildingBlock: CIFDUS_clean_linker_0, # of connection points: 2
#     Edge 99, Type (0, 0), BuildingBlock: CIFDUS_clean_linker_0, # of connection points: 2
#     Edge 100, Type (0, 0), BuildingBlock: CIFDUS_clean_linker_0, # of connection points: 2
#     Edge 101, Type (0, 0), BuildingBlock: CIFDUS_clean_linker_0, # of connection points: 2
#     Edge 102, Type (0, 0), BuildingBlock: CIFDUS_clean_linker_0, # of connection points: 2
#     Edge 103, Type (0, 0), BuildingBlock: CIFDUS_clean_linker_0, # of connection points: 2
#     Edge 104, Type (0, 0), BuildingBlock: CIFDUS_clean_linker_0, # of connection points: 2
#     Edge 105, Type (0, 0), BuildingBlock: CIFDUS_clean_linker_0, # of connection points: 2
#     Edge 106, Type (0, 0), BuildingBlock: CIFDUS_clean_linker_0, # of connection points: 2
#     Edge 107, Type (0, 0), BuildingBlock: CIFDUS_clean_linker_0, # of connection points: 2
#     Edge 108, Type (0, 0), BuildingBlock: CIFDUS_clean_linker_0, # of connection points: 2
#     Edge 109, Type (0, 0), BuildingBlock: CIFDUS_clean_linker_0, # of connection points: 2
#     Edge 110, Type (0, 0), BuildingBlock: CIFDUS_clean_linker_0, # of connection points: 2
#     Edge 111, Type (0, 0), BuildingBlock: CIFDUS_clean_linker_0, # of connection points: 2
#     Edge 112, Type (0, 0), BuildingBlock: CIFDUS_clean_linker_0, # of connection points: 2
#     Edge 113, Type (0, 0), BuildingBlock: CIFDUS_clean_linker_0, # of connection points: 2
#     Edge 114, Type (0, 0), BuildingBlock: CIFDUS_clean_linker_0, # of connection points: 2
#     Edge 115, Type (0, 0), BuildingBlock: CIFDUS_clean_linker_0, # of connection points: 2
#     Edge 116, Type (0, 0), BuildingBlock: CIFDUS_clean_linker_0, # of connection points: 2
#     Edge 117, Type (0, 0), BuildingBlock: CIFDUS_clean_linker_0, # of connection points: 2
#     Edge 118, Type (0, 0), BuildingBlock: CIFDUS_clean_linker_0, # of connection points: 2
#     Edge 119, Type (0, 0), BuildingBlock: CIFDUS_clean_linker_0, # of connection points: 2
#     Edge 120, Type (0, 0), BuildingBlock: CIFDUS_clean_linker_0, # of connection points: 2
#     Edge 121, Type (0, 0), BuildingBlock: CIFDUS_clean_linker_0, # of connection points: 2
#     Edge 122, Type (0, 0), BuildingBlock: CIFDUS_clean_linker_0, # of connection points: 2
#     Edge 123, Type (0, 0), BuildingBlock: CIFDUS_clean_linker_0, # of connection points: 2
#     Edge 124, Type (0, 0), BuildingBlock: CIFDUS_clean_linker_0, # of connection points: 2
#     Edge 125, Type (0, 0), BuildingBlock: CIFDUS_clean_linker_0, # of connection points: 2
#     Edge 126, Type (0, 0), BuildingBlock: CIFDUS_clean_linker_0, # of connection points: 2
#     Edge 127, Type (0, 0), BuildingBlock: CIFDUS_clean_linker_0, # of connection points: 2
#     Edge 128, Type (0, 0), BuildingBlock: CIFDUS_clean_linker_0, # of connection points: 2
#     Edge 129, Type (0, 0), BuildingBlock: CIFDUS_clean_linker_0, # of connection points: 2
#     Edge 130, Type (0, 0), BuildingBlock: CIFDUS_clean_linker_0, # of connection points: 2
#     Edge 131, Type (0, 0), BuildingBlock: CIFDUS_clean_linker_0, # of connection points: 2
#     Edge 132, Type (0, 0), BuildingBlock: CIFDUS_clean_linker_0, # of connection points: 2
#     Edge 133, Type (0, 0), BuildingBlock: CIFDUS_clean_linker_0, # of connection points: 2
#     Edge 134, Type (0, 0), BuildingBlock: CIFDUS_clean_linker_0, # of connection points: 2
#     Edge 135, Type (0, 0), BuildingBlock: CIFDUS_clean_linker_0, # of connection points: 2
#     Edge 136, Type (0, 0), BuildingBlock: CIFDUS_clean_linker_0, # of connection points: 2
#     Edge 137, Type (0, 0), BuildingBlock: CIFDUS_clean_linker_0, # of connection points: 2
#     Edge 138, Type (0, 0), BuildingBlock: CIFDUS_clean_linker_0, # of connection points: 2
#     Edge 139, Type (0, 0), BuildingBlock: CIFDUS_clean_linker_0, # of connection points: 2
#     Edge 140, Type (0, 0), BuildingBlock: CIFDUS_clean_linker_0, # of connection points: 2
#     Edge 141, Type (0, 0), BuildingBlock: CIFDUS_clean_linker_0, # of connection points: 2
#     Edge 142, Type (0, 0), BuildingBlock: CIFDUS_clean_linker_0, # of connection points: 2
#     Edge 143, Type (0, 0), BuildingBlock: CIFDUS_clean_linker_0, # of connection points: 2
# Relax obj value: 0.362
# Max RMSD: 0.201
# Mean RMSD: 0.201
data_MOF--net-ukr--node1-AZAVOO_clean_sbu_0--edge1-CIFDUS_clean_linker_0
_symmetry_space_group_name_H-M    P1
_symmetry_Int_Tables_number       1
_symmetry_cell_setting            triclinic
loop_
_symmetry_equiv_pos_as_xyz
'x, y, z'
_cell_length_a     59.784086
_cell_length_b     59.761964
_cell_length_c     59.756596
_cell_angle_alpha  90.00721
_cell_angle_beta   89.989243
_cell_angle_gamma 89.97919
loop_
_atom_site_label
_atom_site_type_symbol
_atom_site_fract_x
_atom_site_fract_y
_atom_site_fract_z
_atom_type_partial_charge
Mg0 Mg 0.1172 0.28677 0.15443 0.0
O1 O 0.12283 0.26109 0.18217 0.0
O2 O 0.15979 0.25821 0.18782 0.0
Mg3 Mg 0.17775 0.28099 0.16263 0.0
C4 C 0.13963 0.25284 0.1924 0.0
C5 C 0.06647 0.29054 0.14764 0.0
O6 O 0.07447 0.29224 0.12722 0.0
O7 O 0.12593 0.31495 0.17927 0.0
O8 O 0.16317 0.31114 0.18096 0.0
O9 O 0.12019 0.2584 0.12987 0.0
O10 O 0.14849 0.27946 0.14078 0.0
C11 C 0.14516 0.32137 0.18611 0.0
C12 C 0.1415 0.26217 0.13015 0.0
O13 O 0.08014 0.28817 0.16375 0.0
Mg14 Mg 0.21503 0.61578 0.65527 0.0
O15 O 0.24342 0.61727 0.68093 0.0
O16 O 0.24591 0.65288 0.69263 0.0
Mg17 Mg 0.21919 0.6738 0.67492 0.0
C18 C 0.25242 0.63252 0.69283 0.0
C19 C 0.21597 0.56779 0.63754 0.0
O20 O 0.21571 0.57997 0.61924 0.0
O21 O 0.19011 0.61733 0.68455 0.0
O22 O 0.19311 0.65346 0.69406 0.0
O23 O 0.24024 0.62503 0.62905 0.0
O24 O 0.21982 0.64948 0.64775 0.0
C25 C 0.18438 0.63413 0.69648 0.0
C26 C 0.2363 0.64563 0.63447 0.0
O27 O 0.21576 0.57766 0.65638 0.0
Mg28 Mg 0.88445 0.71872 0.15289 0.0
O29 O 0.88209 0.75026 0.17497 0.0
O30 O 0.8462 0.75333 0.18549 0.0
Mg31 Mg 0.82599 0.72453 0.17026 0.0
C32 C 0.8664 0.76027 0.18548 0.0
C33 C 0.93229 0.71181 0.13764 0.0
O34 O 0.92006 0.70478 0.12078 0.0
O35 O 0.88215 0.69693 0.18441 0.0
O36 O 0.84563 0.70013 0.19223 0.0
O37 O 0.87567 0.74023 0.12337 0.0
O38 O 0.85101 0.72182 0.14381 0.0
C39 C 0.86495 0.6919 0.19605 0.0
C40 C 0.855 0.73611 0.12828 0.0
O41 O 0.92245 0.71945 0.15487 0.0
Mg42 Mg 0.78658 0.38519 0.6511 0.0
O43 O 0.7596 0.38163 0.67807 0.0
O44 O 0.75865 0.34554 0.68829 0.0
Mg45 Mg 0.78353 0.32575 0.66685 0.0
C46 C 0.75187 0.36573 0.69001 0.0
C47 C 0.76751 0.4335 0.64916 0.0
O48 O 0.75065 0.42156 0.64168 0.0
O49 O 0.81347 0.3814 0.67872 0.0
O50 O 0.81137 0.34446 0.68491 0.0
O51 O 0.7602 0.37702 0.62531 0.0
O52 O 0.78178 0.35186 0.64145 0.0
C53 C 0.82029 0.36354 0.68838 0.0
C54 C 0.76503 0.35622 0.62877 0.0
O55 O 0.7853 0.42344 0.65513 0.0
Mg56 Mg 0.11293 0.71354 0.84109 0.0
O57 O 0.11527 0.74148 0.81486 0.0
O58 O 0.15142 0.74386 0.80503 0.0
Mg59 Mg 0.17192 0.71864 0.82537 0.0
C60 C 0.13106 0.75017 0.80341 0.0
C61 C 0.06523 0.7025 0.8536 0.0
O62 O 0.07749 0.69369 0.86959 0.0
O63 O 0.11733 0.68761 0.81301 0.0
O64 O 0.15407 0.69064 0.80641 0.0
O65 O 0.11948 0.73962 0.86721 0.0
O66 O 0.14575 0.71947 0.85077 0.0
C67 C 0.13514 0.68143 0.80291 0.0
C68 C 0.14051 0.73607 0.8634 0.0
O69 O 0.07504 0.71261 0.83768 0.0
Mg70 Mg 0.79067 0.61623 0.34294 0.0
O71 O 0.76156 0.61785 0.31803 0.0
O72 O 0.75421 0.65399 0.31103 0.0
Mg73 Mg 0.78112 0.67513 0.32833 0.0
C74 C 0.74993 0.63318 0.30877 0.0
C75 C 0.77784 0.56598 0.34685 0.0
O76 O 0.76152 0.57535 0.35821 0.0
O77 O 0.81476 0.62214 0.3137 0.0
O78 O 0.80809 0.6584 0.30692 0.0
O79 O 0.7655 0.6218 0.37045 0.0
O80 O 0.78396 0.64882 0.35342 0.0
C81 C 0.81856 0.64021 0.30293 0.0
C82 C 0.76814 0.64296 0.36671 0.0
O83 O 0.79265 0.5784 0.338 0.0
Mg84 Mg 0.87996 0.29376 0.84093 0.0
O85 O 0.87795 0.26586 0.81475 0.0
O86 O 0.84179 0.25825 0.80843 0.0
Mg87 Mg 0.82076 0.28376 0.82794 0.0
C88 C 0.86258 0.25446 0.80535 0.0
C89 C 0.92939 0.27853 0.83923 0.0
O90 O 0.91919 0.26022 0.84585 0.0
O91 O 0.87257 0.31968 0.81339 0.0
O92 O 0.83615 0.31267 0.80797 0.0
O93 O 0.87594 0.26702 0.86698 0.0
O94 O 0.84775 0.28589 0.8524 0.0
C95 C 0.85389 0.32383 0.80383 0.0
C96 C 0.85459 0.26941 0.86437 0.0
O97 O 0.91774 0.29586 0.83512 0.0
Mg98 Mg 0.2126 0.38461 0.34033 0.0
O99 O 0.24336 0.38148 0.31737 0.0
O100 O 0.24887 0.34486 0.31134 0.0
Mg101 Mg 0.21991 0.32512 0.32681 0.0
C102 C 0.25463 0.36531 0.30912 0.0
C103 C 0.22563 0.43466 0.34681 0.0
O104 O 0.23928 0.425 0.36106 0.0
O105 O 0.18904 0.37944 0.31037 0.0
O106 O 0.19419 0.34274 0.30466 0.0
O107 O 0.23598 0.37806 0.36917 0.0
O108 O 0.21701 0.35178 0.35156 0.0
C109 C 0.18462 0.36126 0.30004 0.0
C110 C 0.23239 0.35701 0.3656 0.0
O111 O 0.21261 0.42251 0.33518 0.0
Mg112 Mg 0.1553 0.1174 0.28921 0.0
O113 O 0.17816 0.12035 0.25852 0.0
O114 O 0.18635 0.15655 0.25333 0.0
Mg115 Mg 0.17253 0.17609 0.28318 0.0
C116 C 0.18722 0.13608 0.24734 0.0
C117 C 0.15362 0.07039 0.26783 0.0
O118 O 0.14763 0.08327 0.25104 0.0
O119 O 0.18588 0.11991 0.31257 0.0
O120 O 0.19402 0.15618 0.30767 0.0
O121 O 0.12667 0.12617 0.2665 0.0
O122 O 0.14599 0.15101 0.2858 0.0
C123 C 0.19762 0.13726 0.31687 0.0
C124 C 0.13154 0.14691 0.2704 0.0
O125 O 0.1582 0.07938 0.28658 0.0
Mg126 Mg 0.38684 0.65535 0.78496 0.0
O127 O 0.38218 0.67739 0.75344 0.0
O128 O 0.34509 0.6805 0.74854 0.0
Mg129 Mg 0.32674 0.66564 0.77853 0.0
C130 C 0.36519 0.68382 0.74211 0.0
C131 C 0.43456 0.64137 0.78637 0.0
O132 O 0.42225 0.62331 0.78871 0.0
O133 O 0.38093 0.68599 0.80752 0.0
O134 O 0.34401 0.69009 0.80245 0.0
O135 O 0.3817 0.62579 0.76244 0.0
O136 O 0.35465 0.64247 0.78129 0.0
C137 C 0.36242 0.69595 0.81151 0.0
C138 C 0.36054 0.62851 0.76602 0.0
O139 O 0.42472 0.66014 0.78434 0.0
Mg140 Mg 0.83664 0.88739 0.29004 0.0
O141 O 0.81403 0.88426 0.25936 0.0
O142 O 0.80507 0.84809 0.2551 0.0
Mg143 Mg 0.82073 0.82834 0.28407 0.0
C144 C 0.80428 0.8685 0.24882 0.0
C145 C 0.84992 0.93738 0.28411 0.0
O146 O 0.86902 0.92745 0.27968 0.0
O147 O 0.80514 0.88424 0.31187 0.0
O148 O 0.79776 0.84768 0.30776 0.0
O149 O 0.86611 0.87855 0.26794 0.0
O150 O 0.8463 0.85411 0.28721 0.0
C151 C 0.7935 0.86683 0.31622 0.0
C152 C 0.86165 0.8579 0.27273 0.0
O153 O 0.83297 0.92542 0.28873 0.0
Mg154 Mg 0.61712 0.34657 0.78538 0.0
O155 O 0.62009 0.3237 0.75452 0.0
O156 O 0.65672 0.31762 0.74901 0.0
Mg157 Mg 0.67637 0.33236 0.77829 0.0
C158 C 0.63628 0.31556 0.74319 0.0
C159 C 0.56929 0.35881 0.79519 0.0
O160 O 0.58149 0.37473 0.8042 0.0
O161 O 0.62154 0.31612 0.80836 0.0
O162 O 0.65805 0.30956 0.80292 0.0
O163 O 0.62386 0.37553 0.76237 0.0
O164 O 0.64996 0.35733 0.78112 0.0
C165 C 0.63942 0.3051 0.81232 0.0
C166 C 0.64487 0.37159 0.76587 0.0
O167 O 0.57921 0.34283 0.78528 0.0
Mg168 Mg 0.15434 0.88854 0.71659 0.0
O169 O 0.17555 0.88174 0.74806 0.0
O170 O 0.17936 0.84454 0.75077 0.0
Mg171 Mg 0.16521 0.82814 0.71926 0.0
C172 C 0.18214 0.86427 0.75847 0.0
C173 C 0.15356 0.93589 0.73808 0.0
O174 O 0.14388 0.92392 0.75377 0.0
O175 O 0.18547 0.88421 0.69425 0.0
O176 O 0.18964 0.84704 0.69675 0.0
O177 O 0.12407 0.88136 0.73785 0.0
O178 O 0.1416 0.85595 0.71764 0.0
C179 C 0.19551 0.86605 0.68904 0.0
C180 C 0.12709 0.86051 0.73284 0.0
O181 O 0.16051 0.9261 0.72051 0.0
Mg182 Mg 0.61881 0.65271 0.20827 0.0
O183 O 0.62063 0.67884 0.23625 0.0
O184 O 0.65681 0.68389 0.24479 0.0
Mg185 Mg 0.67796 0.66443 0.21942 0.0
C186 C 0.63604 0.68766 0.24807 0.0
C187 C 0.57054 0.64135 0.19868 0.0
O188 O 0.58181 0.62316 0.19359 0.0
O189 O 0.62704 0.68033 0.18291 0.0
O190 O 0.66332 0.68541 0.19087 0.0
O191 O 0.62163 0.62661 0.23502 0.0
O192 O 0.65047 0.64069 0.21665 0.0
C193 C 0.64585 0.68989 0.17944 0.0
C194 C 0.64307 0.62882 0.23297 0.0
O195 O 0.58129 0.65846 0.20526 0.0
Mg196 Mg 0.84994 0.11709 0.71161 0.0
O197 O 0.82397 0.12004 0.73955 0.0
O198 O 0.81759 0.15635 0.74637 0.0
Mg199 Mg 0.83604 0.17659 0.71945 0.0
C200 C 0.81472 0.13564 0.75076 0.0
C201 C 0.85086 0.0692 0.73018 0.0
O202 O 0.85798 0.08146 0.74698 0.0
O203 O 0.82181 0.12285 0.68576 0.0
O204 O 0.81588 0.15941 0.69187 0.0
O205 O 0.87629 0.12332 0.73781 0.0
O206 O 0.86078 0.14994 0.71753 0.0
C207 C 0.81185 0.14129 0.68131 0.0
C208 C 0.8731 0.1444 0.7342 0.0
O209 O 0.84511 0.07895 0.71213 0.0
Mg210 Mg 0.38444 0.34234 0.21367 0.0
O211 O 0.37481 0.32215 0.24488 0.0
O212 O 0.33745 0.31965 0.24579 0.0
Mg213 Mg 0.32356 0.33436 0.21317 0.0
C214 C 0.35668 0.31618 0.25447 0.0
C215 C 0.43016 0.33915 0.23885 0.0
O216 O 0.41733 0.34735 0.25471 0.0
O217 O 0.37986 0.31068 0.19235 0.0
O218 O 0.34247 0.30816 0.19253 0.0
O219 O 0.37737 0.37313 0.23402 0.0
O220 O 0.35245 0.35656 0.21239 0.0
C221 C 0.36168 0.3012 0.18629 0.0
C222 C 0.3568 0.37107 0.22762 0.0
O223 O 0.42148 0.33459 0.21995 0.0
Mg224 Mg 0.28396 0.15118 0.11729 0.0
O225 O 0.25319 0.17319 0.125 0.0
O226 O 0.25211 0.17713 0.16229 0.0
Mg227 Mg 0.2835 0.16158 0.17781 0.0
C228 C 0.24375 0.18028 0.14285 0.0
C229 C 0.27871 0.13772 0.06901 0.0
O230 O 0.28022 0.11906 0.08053 0.0
O231 O 0.30657 0.18213 0.12099 0.0
O232 O 0.30575 0.18583 0.15829 0.0
O233 O 0.26221 0.12153 0.1251 0.0
O234 O 0.28382 0.13837 0.14985 0.0
C235 C 0.31272 0.19188 0.13903 0.0
C236 C 0.26828 0.12416 0.1457 0.0
O237 O 0.27951 0.15621 0.07953 0.0
Mg238 Mg 0.28847 0.84422 0.88104 0.0
O239 O 0.26027 0.8187 0.87652 0.0
O240 O 0.25267 0.81623 0.83988 0.0
Mg241 Mg 0.27724 0.83878 0.82085 0.0
C242 C 0.24901 0.81082 0.86022 0.0
C243 C 0.29215 0.85114 0.93125 0.0
O244 O 0.29293 0.87135 0.92263 0.0
O245 O 0.31395 0.81741 0.8697 0.0
O246 O 0.30639 0.81723 0.83296 0.0
O247 O 0.26219 0.8713 0.88037 0.0
O248 O 0.28061 0.85954 0.85062 0.0
C249 C 0.31782 0.8106 0.84975 0.0
C250 C 0.26491 0.87158 0.8589 0.0
O251 O 0.29086 0.83453 0.91801 0.0
Mg252 Mg 0.6505 0.78165 0.38505 0.0
O253 O 0.67769 0.75552 0.37847 0.0
O254 O 0.68435 0.75417 0.34159 0.0
Mg255 Mg 0.66166 0.78015 0.32478 0.0
C256 C 0.68788 0.74745 0.36156 0.0
C257 C 0.65804 0.75997 0.43123 0.0
O258 O 0.65462 0.74232 0.41857 0.0
O259 O 0.67697 0.80899 0.38004 0.0
O260 O 0.68148 0.80751 0.34288 0.0
O261 O 0.62557 0.75463 0.37938 0.0
O262 O 0.63823 0.777 0.35274 0.0
C263 C 0.68594 0.81605 0.36196 0.0
C264 C 0.62756 0.75915 0.3583 0.0
O265 O 0.65785 0.77928 0.42229 0.0
Mg266 Mg 0.70969 0.15527 0.87756 0.0
O267 O 0.73655 0.18286 0.87572 0.0
O268 O 0.74672 0.18594 0.83971 0.0
Mg269 Mg 0.72331 0.16427 0.81845 0.0
C270 C 0.74887 0.19112 0.86033 0.0
C271 C 0.71802 0.16643 0.92876 0.0
O272 O 0.73899 0.16762 0.92228 0.0
O273 O 0.68343 0.18087 0.86644 0.0
O274 O 0.69292 0.1844 0.83035 0.0
O275 O 0.73791 0.13044 0.87753 0.0
O276 O 0.72033 0.14213 0.84717 0.0
C277 C 0.68038 0.18918 0.84698 0.0
C278 C 0.73676 0.13143 0.85592 0.0
O279 O 0.70287 0.16259 0.91435 0.0
Mg280 Mg 0.34405 0.21248 0.38291 0.0
O281 O 0.31669 0.2391 0.37921 0.0
O282 O 0.31066 0.24404 0.34251 0.0
Mg283 Mg 0.33424 0.22101 0.32283 0.0
C284 C 0.30658 0.24859 0.36298 0.0
C285 C 0.35288 0.21371 0.43341 0.0
O286 O 0.37247 0.21827 0.42454 0.0
O287 O 0.31835 0.18497 0.3739 0.0
O288 O 0.31583 0.19074 0.33693 0.0
O289 O 0.36936 0.24036 0.37994 0.0
O290 O 0.35686 0.22055 0.35143 0.0
C291 C 0.31094 0.17965 0.35451 0.0
C292 C 0.36836 0.23719 0.35856 0.0
O293 O 0.33646 0.21 0.42041 0.0
Mg294 Mg 0.71071 0.84478 0.11583 0.0
O295 O 0.74076 0.82185 0.12291 0.0
O296 O 0.7452 0.82125 0.16016 0.0
Mg297 Mg 0.71564 0.83906 0.17667 0.0
C298 C 0.75159 0.8161 0.14041 0.0
C299 C 0.71413 0.85277 0.0662 0.0
O300 O 0.71489 0.87269 0.07546 0.0
O301 O 0.68679 0.81581 0.12373 0.0
O302 O 0.69069 0.81459 0.16097 0.0
O303 O 0.73488 0.87323 0.11893 0.0
O304 O 0.71468 0.8602 0.14699 0.0
C305 C 0.68179 0.80766 0.14285 0.0
C306 C 0.73108 0.87237 0.14022 0.0
O307 O 0.71209 0.83576 0.07881 0.0
Mg308 Mg 0.6576 0.20972 0.62026 0.0
O309 O 0.68028 0.2405 0.62648 0.0
O310 O 0.68289 0.24347 0.66377 0.0
Mg311 Mg 0.66599 0.21373 0.68091 0.0
C312 C 0.6869 0.25076 0.64406 0.0
C313 C 0.64517 0.20578 0.57249 0.0
O314 O 0.62769 0.20075 0.58484 0.0
O315 O 0.68736 0.18595 0.62637 0.0
O316 O 0.68946 0.18884 0.66369 0.0
O317 O 0.62836 0.23274 0.62542 0.0
O318 O 0.64369 0.21254 0.65226 0.0
C319 C 0.69589 0.18034 0.64517 0.0
C320 C 0.63002 0.22806 0.64648 0.0
O321 O 0.66327 0.21101 0.58239 0.0
Mg322 Mg 0.34461 0.7936 0.6216 0.0
O323 O 0.31906 0.76537 0.62622 0.0
O324 O 0.31548 0.75895 0.66299 0.0
Mg325 Mg 0.33809 0.78354 0.68193 0.0
C326 C 0.31062 0.75467 0.64263 0.0
C327 C 0.33875 0.77872 0.57215 0.0
O328 O 0.34606 0.76022 0.58152 0.0
O329 O 0.31766 0.81935 0.63215 0.0
O330 O 0.31701 0.81267 0.66905 0.0
O331 O 0.37173 0.76742 0.62319 0.0
O332 O 0.35934 0.78623 0.65243 0.0
C333 C 0.31067 0.82376 0.65193 0.0
C334 C 0.37155 0.77043 0.64462 0.0
O335 O 0.33546 0.79582 0.58441 0.0
Mg336 Mg 0.8828 0.71779 0.84498 0.0
O337 O 0.87351 0.74679 0.8212 0.0
O338 O 0.83627 0.75031 0.82306 0.0
Mg339 Mg 0.82174 0.72188 0.84427 0.0
C340 C 0.85536 0.75684 0.81602 0.0
C341 C 0.93194 0.70915 0.84725 0.0
O342 O 0.9231 0.7002 0.86528 0.0
O343 O 0.87282 0.69222 0.81811 0.0
O344 O 0.83558 0.69538 0.82025 0.0
O345 O 0.88169 0.74281 0.87294 0.0
O346 O 0.85309 0.72173 0.86279 0.0
C347 C 0.85316 0.68628 0.81218 0.0
C348 C 0.86062 0.73811 0.87448 0.0
O349 O 0.919 0.71857 0.83325 0.0
Mg350 Mg 0.78579 0.38421 0.34602 0.0
O351 O 0.75751 0.38326 0.32008 0.0
O352 O 0.75244 0.34749 0.31003 0.0
Mg353 Mg 0.77834 0.32576 0.32816 0.0
C354 C 0.74725 0.36819 0.309 0.0
C355 C 0.76953 0.4326 0.35264 0.0
O356 O 0.75363 0.42067 0.36198 0.0
O357 O 0.81197 0.3801 0.31784 0.0
O358 O 0.80666 0.34378 0.31003 0.0
O359 O 0.75987 0.37638 0.37221 0.0
O360 O 0.77976 0.3508 0.35459 0.0
C361 C 0.81707 0.3622 0.30723 0.0
C362 C 0.76343 0.35553 0.36769 0.0
O363 O 0.78596 0.4225 0.34361 0.0
Mg364 Mg 0.11037 0.28379 0.84576 0.0
O365 O 0.11528 0.25285 0.82345 0.0
O366 O 0.15217 0.2487 0.81799 0.0
Mg367 Mg 0.17029 0.27891 0.83305 0.0
C368 C 0.132 0.24209 0.81566 0.0
C369 C 0.06215 0.26414 0.84628 0.0
O370 O 0.07355 0.24729 0.85461 0.0
O371 O 0.11477 0.30642 0.81493 0.0
O372 O 0.1517 0.30272 0.80981 0.0
O373 O 0.11773 0.26127 0.87517 0.0
O374 O 0.14316 0.28116 0.85733 0.0
C375 C 0.13285 0.31126 0.80459 0.0
C376 C 0.13861 0.26573 0.87156 0.0
O377 O 0.07259 0.28172 0.84042 0.0
Mg378 Mg 0.21621 0.61602 0.34551 0.0
O379 O 0.24606 0.6176 0.32152 0.0
O380 O 0.24836 0.65284 0.30883 0.0
Mg381 Mg 0.22032 0.67365 0.32452 0.0
C382 C 0.25538 0.63268 0.30966 0.0
C383 C 0.23258 0.56788 0.35673 0.0
O384 O 0.24611 0.5799 0.36919 0.0
O385 O 0.1927 0.61649 0.31493 0.0
O386 O 0.19514 0.65258 0.30512 0.0
O387 O 0.2392 0.62699 0.37342 0.0
O388 O 0.21959 0.65009 0.35246 0.0
C389 C 0.1869 0.63305 0.30269 0.0
C390 C 0.23484 0.6473 0.36734 0.0
O391 O 0.21811 0.57782 0.34472 0.0
Mg392 Mg 0.88523 0.29302 0.15729 0.0
O393 O 0.87845 0.26303 0.18083 0.0
O394 O 0.84109 0.26013 0.18213 0.0
Mg395 Mg 0.82436 0.28914 0.16376 0.0
C396 C 0.86062 0.25298 0.1871 0.0
C397 C 0.93272 0.29646 0.1454 0.0
O398 O 0.92024 0.30109 0.12789 0.0
O399 O 0.87815 0.3178 0.18606 0.0
O400 O 0.84082 0.31474 0.18691 0.0
O401 O 0.88121 0.2688 0.1289 0.0
O402 O 0.85372 0.28941 0.14244 0.0
C403 C 0.85902 0.32356 0.19373 0.0
C404 C 0.86007 0.27326 0.12977 0.0
O405 O 0.92294 0.29197 0.16378 0.0
Mg406 Mg 0.21425 0.3843 0.65898 0.0
O407 O 0.24558 0.37926 0.68068 0.0
O408 O 0.24998 0.34232 0.68551 0.0
Mg409 Mg 0.21949 0.32432 0.67079 0.0
C410 C 0.25657 0.36249 0.68804 0.0
C411 C 0.21599 0.43442 0.64774 0.0
O412 O 0.215 0.42506 0.62786 0.0
O413 O 0.19213 0.37946 0.68995 0.0
O414 O 0.19569 0.34246 0.69474 0.0
O415 O 0.23603 0.37769 0.62895 0.0
O416 O 0.21682 0.35171 0.64678 0.0
C417 C 0.18731 0.36133 0.70018 0.0
C418 C 0.23172 0.3567 0.63211 0.0
O419 O 0.21617 0.42191 0.66493 0.0
Mg420 Mg 0.11529 0.71121 0.15762 0.0
O421 O 0.12359 0.73929 0.18249 0.0
O422 O 0.16056 0.73756 0.18865 0.0
Mg423 Mg 0.17577 0.70988 0.16687 0.0
C424 C 0.14134 0.74625 0.19211 0.0
C425 C 0.06548 0.70969 0.14882 0.0
O426 O 0.07471 0.70284 0.13006 0.0
O427 O 0.11984 0.68577 0.18606 0.0
O428 O 0.15716 0.68459 0.18885 0.0
O429 O 0.12161 0.73573 0.13016 0.0
O430 O 0.14732 0.71312 0.14419 0.0
C431 C 0.13775 0.67784 0.19465 0.0
C432 C 0.1424 0.72988 0.13163 0.0
O433 O 0.07815 0.71487 0.16508 0.0
Mg434 Mg 0.7926 0.61736 0.65738 0.0
O435 O 0.76354 0.62056 0.68225 0.0
O436 O 0.75894 0.65701 0.68988 0.0
Mg437 Mg 0.78589 0.67697 0.67124 0.0
C438 C 0.75329 0.63652 0.69205 0.0
C439 C 0.77719 0.56707 0.65505 0.0
O440 O 0.7601 0.57665 0.64509 0.0
O441 O 0.81725 0.62269 0.68655 0.0
O442 O 0.81231 0.65942 0.69247 0.0
O443 O 0.76781 0.62432 0.62965 0.0
O444 O 0.78788 0.65022 0.64661 0.0
C445 C 0.82199 0.64089 0.69677 0.0
C446 C 0.77225 0.64528 0.63282 0.0
O447 O 0.79298 0.57929 0.6624 0.0
Mg448 Mg 0.84217 0.88505 0.7091 0.0
O449 O 0.81671 0.88153 0.73765 0.0
O450 O 0.80722 0.84523 0.7391 0.0
Mg451 Mg 0.8275 0.82556 0.7132 0.0
C452 C 0.80544 0.8654 0.74595 0.0
C453 C 0.84577 0.93556 0.72365 0.0
O454 O 0.8572 0.92641 0.74004 0.0
O455 O 0.813 0.88076 0.68455 0.0
O456 O 0.80683 0.84387 0.68683 0.0
O457 O 0.86932 0.87787 0.73419 0.0
O458 O 0.85252 0.85207 0.71384 0.0
C459 C 0.80265 0.86307 0.67848 0.0
C460 C 0.86582 0.85692 0.72996 0.0
O461 O 0.83722 0.923 0.70878 0.0
Mg462 Mg 0.61366 0.34001 0.22019 0.0
O463 O 0.62052 0.31844 0.25149 0.0
O464 O 0.65765 0.31899 0.25685 0.0
Mg465 Mg 0.67454 0.33612 0.22706 0.0
C466 C 0.6379 0.31356 0.26296 0.0
C467 C 0.56372 0.33466 0.23619 0.0
O468 O 0.57209 0.34425 0.25412 0.0
O469 O 0.62321 0.31029 0.19773 0.0
O470 O 0.66032 0.31027 0.20271 0.0
O471 O 0.61585 0.36991 0.24304 0.0
O472 O 0.64434 0.35621 0.22397 0.0
C473 C 0.64268 0.30245 0.19358 0.0
C474 C 0.63719 0.36937 0.23936 0.0
O475 O 0.57672 0.32989 0.22003 0.0
Mg476 Mg 0.15877 0.11821 0.71048 0.0
O477 O 0.18218 0.12529 0.74032 0.0
O478 O 0.18381 0.16258 0.74386 0.0
Mg479 Mg 0.16569 0.17906 0.71433 0.0
C480 C 0.18864 0.14288 0.75059 0.0
C481 C 0.16043 0.06904 0.72815 0.0
O482 O 0.14941 0.07869 0.74454 0.0
O483 O 0.18739 0.12521 0.68571 0.0
O484 O 0.18883 0.16254 0.6886 0.0
O485 O 0.13001 0.12291 0.73444 0.0
O486 O 0.14402 0.14983 0.71343 0.0
C487 C 0.19534 0.14417 0.67983 0.0
C488 C 0.13087 0.14393 0.72932 0.0
O489 O 0.1674 0.08099 0.71199 0.0
Mg490 Mg 0.38895 0.66056 0.21848 0.0
O491 O 0.3833 0.68362 0.24885 0.0
O492 O 0.3462 0.68562 0.25412 0.0
Mg493 Mg 0.32848 0.66722 0.22553 0.0
C494 C 0.36623 0.69027 0.25987 0.0
C495 C 0.43793 0.6538 0.20915 0.0
O496 O 0.42792 0.6357 0.20168 0.0
O497 O 0.38045 0.68947 0.19476 0.0
O498 O 0.34333 0.69111 0.19948 0.0
O499 O 0.38627 0.63178 0.24243 0.0
O500 O 0.35788 0.64575 0.22331 0.0
C501 C 0.3613 0.69772 0.19002 0.0
C502 C 0.36491 0.63284 0.23899 0.0
O503 O 0.42603 0.66911 0.21787 0.0
Mg504 Mg 0.8477 0.11921 0.28656 0.0
O505 O 0.82353 0.11857 0.25653 0.0
O506 O 0.81291 0.15377 0.24908 0.0
Mg507 Mg 0.82866 0.17665 0.27533 0.0
C508 C 0.81267 0.13283 0.24492 0.0
C509 C 0.86393 0.07049 0.28298 0.0
O510 O 0.88201 0.08204 0.27829 0.0
O511 O 0.81733 0.12289 0.31001 0.0
O512 O 0.80746 0.15787 0.30082 0.0
O513 O 0.87603 0.12716 0.26281 0.0
O514 O 0.85574 0.15263 0.28014 0.0
C515 C 0.80447 0.13988 0.31193 0.0
C516 C 0.87098 0.14798 0.26577 0.0
O517 O 0.84607 0.08099 0.28782 0.0
Mg518 Mg 0.38608 0.34672 0.78619 0.0
O519 O 0.37529 0.32343 0.75742 0.0
O520 O 0.33792 0.3214 0.75911 0.0
Mg521 Mg 0.3254 0.33998 0.79015 0.0
C522 C 0.35653 0.3167 0.74967 0.0
C523 C 0.43585 0.35185 0.79033 0.0
O524 O 0.427 0.36867 0.80141 0.0
O525 O 0.38195 0.31771 0.81076 0.0
O526 O 0.34465 0.31555 0.81267 0.0
O527 O 0.3795 0.37508 0.76275 0.0
O528 O 0.35449 0.36165 0.78646 0.0
C529 C 0.3641 0.30902 0.81861 0.0
C530 C 0.35893 0.37407 0.76946 0.0
O531 O 0.4228 0.33801 0.78083 0.0
Mg532 Mg 0.1595 0.8862 0.28822 0.0
O533 O 0.18598 0.88516 0.26029 0.0
O534 O 0.19924 0.85004 0.25991 0.0
Mg535 Mg 0.18034 0.82868 0.28545 0.0
C536 C 0.19906 0.87012 0.25259 0.0
C537 C 0.15797 0.93677 0.27208 0.0
O538 O 0.15393 0.92765 0.25248 0.0
O539 O 0.18757 0.88486 0.31443 0.0
O540 O 0.19712 0.84868 0.31331 0.0
O541 O 0.13366 0.87649 0.26251 0.0
O542 O 0.15266 0.85252 0.28311 0.0
C543 C 0.19885 0.86823 0.32169 0.0
C544 C 0.1392 0.85596 0.2667 0.0
O545 O 0.16087 0.92424 0.28899 0.0
Mg546 Mg 0.61873 0.65693 0.78927 0.0
O547 O 0.62176 0.68246 0.7611 0.0
O548 O 0.65814 0.68948 0.75536 0.0
Mg549 Mg 0.67826 0.66956 0.78132 0.0
C550 C 0.63751 0.6922 0.75056 0.0
C551 C 0.56814 0.64702 0.78798 0.0
O552 O 0.57681 0.62696 0.78548 0.0
O553 O 0.62545 0.68502 0.81465 0.0
O554 O 0.66214 0.69022 0.80917 0.0
O555 O 0.62363 0.63028 0.76309 0.0
O556 O 0.65096 0.64535 0.78281 0.0
C557 C 0.64393 0.69466 0.81942 0.0
C558 C 0.64487 0.63292 0.76639 0.0
O559 O 0.58121 0.66361 0.79026 0.0
Mg560 Mg 0.7164 0.84802 0.88502 0.0
O561 O 0.74948 0.82861 0.88265 0.0
O562 O 0.75518 0.8207 0.8464 0.0
Mg563 Mg 0.72383 0.83031 0.82674 0.0
C564 C 0.7615 0.82081 0.86681 0.0
C565 C 0.72163 0.86457 0.93337 0.0
O566 O 0.72405 0.88304 0.92171 0.0
O567 O 0.69712 0.81486 0.88349 0.0
O568 O 0.70281 0.80601 0.8475 0.0
O569 O 0.73595 0.87874 0.8753 0.0
O570 O 0.71854 0.85676 0.8513 0.0
C571 C 0.69436 0.80196 0.86668 0.0
C572 C 0.7323 0.87289 0.85477 0.0
O573 O 0.71826 0.84631 0.92304 0.0
Mg574 Mg 0.72224 0.15731 0.11265 0.0
O575 O 0.75364 0.17796 0.11981 0.0
O576 O 0.75961 0.17853 0.15682 0.0
Mg577 Mg 0.72875 0.16282 0.17334 0.0
C578 C 0.76542 0.18321 0.1368 0.0
C579 C 0.71014 0.16321 0.06191 0.0
O580 O 0.69163 0.15344 0.06864 0.0
O581 O 0.70112 0.18819 0.12089 0.0
O582 O 0.70645 0.19005 0.15796 0.0
O583 O 0.74396 0.12702 0.11549 0.0
O584 O 0.72505 0.1416 0.14375 0.0
C585 C 0.69775 0.19739 0.13989 0.0
C586 C 0.74033 0.12811 0.13682 0.0
O587 O 0.72534 0.16745 0.07613 0.0
Mg588 Mg 0.34484 0.21401 0.61542 0.0
O589 O 0.31676 0.24026 0.61705 0.0
O590 O 0.30509 0.24107 0.65274 0.0
Mg591 Mg 0.32741 0.21851 0.67422 0.0
C592 C 0.30374 0.24747 0.63238 0.0
C593 C 0.36095 0.21665 0.5671 0.0
O594 O 0.37898 0.22007 0.57921 0.0
O595 O 0.31834 0.18609 0.61959 0.0
O596 O 0.31169 0.18882 0.6564 0.0
O597 O 0.36972 0.24148 0.62288 0.0
O598 O 0.35317 0.22081 0.64857 0.0
C599 C 0.30902 0.17914 0.63757 0.0
C600 C 0.36569 0.23757 0.64378 0.0
O601 O 0.34252 0.21315 0.57714 0.0
Mg602 Mg 0.28412 0.84458 0.11293 0.0
O603 O 0.25197 0.82369 0.11722 0.0
O604 O 0.24736 0.81859 0.15416 0.0
Mg605 Mg 0.27798 0.83186 0.17275 0.0
C606 C 0.24076 0.81649 0.13395 0.0
C607 C 0.28813 0.85898 0.0649 0.0
O608 O 0.29269 0.87665 0.07717 0.0
O609 O 0.30478 0.81241 0.11717 0.0
O610 O 0.30001 0.80693 0.15397 0.0
O611 O 0.26333 0.87526 0.12023 0.0
O612 O 0.28165 0.85594 0.14576 0.0
C613 C 0.30838 0.80139 0.13514 0.0
C614 C 0.26741 0.87133 0.14113 0.0
O615 O 0.28308 0.84084 0.07481 0.0
Mg616 Mg 0.65299 0.78396 0.61408 0.0
O617 O 0.67661 0.75376 0.61867 0.0
O618 O 0.68205 0.7497 0.6556 0.0
Mg619 Mg 0.66572 0.77929 0.67371 0.0
C620 C 0.68473 0.74323 0.6354 0.0
C621 C 0.65891 0.76664 0.56439 0.0
O622 O 0.65584 0.74693 0.57363 0.0
O623 O 0.68261 0.80745 0.61871 0.0
O624 O 0.68879 0.80404 0.65547 0.0
O625 O 0.62478 0.76013 0.62012 0.0
O626 O 0.64131 0.7801 0.64653 0.0
C627 C 0.69331 0.8126 0.63643 0.0
C628 C 0.62807 0.76402 0.64119 0.0
O629 O 0.65885 0.78401 0.57662 0.0
Mg630 Mg 0.28639 0.15988 0.88529 0.0
O631 O 0.25736 0.18419 0.88013 0.0
O632 O 0.25723 0.19421 0.84399 0.0
Mg633 Mg 0.2854 0.17535 0.82587 0.0
C634 C 0.24922 0.19521 0.86379 0.0
C635 C 0.27954 0.14785 0.93556 0.0
O636 O 0.27754 0.12803 0.92623 0.0
O637 O 0.31067 0.18962 0.88297 0.0
O638 O 0.31029 0.19613 0.84605 0.0
O639 O 0.26269 0.13217 0.87583 0.0
O640 O 0.28466 0.14976 0.85192 0.0
C641 C 0.31761 0.20017 0.8657 0.0
C642 C 0.26867 0.13588 0.85534 0.0
O643 O 0.28306 0.16471 0.9231 0.0
Mg644 Mg 0.34332 0.79187 0.39165 0.0
O645 O 0.31769 0.76442 0.38358 0.0
O646 O 0.3092 0.76808 0.3472 0.0
Mg647 Mg 0.33013 0.79633 0.33186 0.0
C648 C 0.30684 0.75847 0.36616 0.0
C649 C 0.34228 0.76839 0.43879 0.0
O650 O 0.34942 0.75153 0.42661 0.0
O651 O 0.31475 0.81761 0.39022 0.0
O652 O 0.30972 0.82052 0.35321 0.0
O653 O 0.3702 0.76749 0.38162 0.0
O654 O 0.35441 0.79166 0.35861 0.0
C655 C 0.30517 0.82639 0.37323 0.0
C656 C 0.36722 0.77465 0.36139 0.0
O657 O 0.33783 0.78686 0.42921 0.0
Mg658 Mg 0.65772 0.20662 0.38795 0.0
O659 O 0.68346 0.23422 0.38043 0.0
O660 O 0.68317 0.24297 0.34379 0.0
Mg661 Mg 0.66209 0.21651 0.32579 0.0
C662 C 0.68991 0.2461 0.36385 0.0
C663 C 0.65059 0.20548 0.43859 0.0
O664 O 0.63051 0.20227 0.43024 0.0
O665 O 0.6852 0.17928 0.38085 0.0
O666 O 0.67964 0.19276 0.34764 0.0
O667 O 0.63081 0.23334 0.38432 0.0
O668 O 0.64185 0.21273 0.356 0.0
C669 C 0.68978 0.17909 0.36006 0.0
C670 C 0.63015 0.22911 0.36314 0.0
O671 O 0.66691 0.20779 0.42514 0.0
H672 H 0.96472 0.28993 0.17789 0.0
H673 H 0.95631 0.30205 0.1071 0.0
H674 H 0.99653 0.30129 0.10179 0.0
H675 H 0.0341 0.29716 0.11674 0.0
H676 H 0.04373 0.28535 0.18731 0.0
H677 H 0.00317 0.28607 0.19314 0.0
C678 C 0.97173 0.29241 0.16133 0.0
C679 C 0.95741 0.29605 0.14296 0.0
C680 C 0.99513 0.29203 0.15829 0.0
C681 C 0.96681 0.29926 0.12161 0.0
C682 C 0.98988 0.29882 0.11848 0.0
C683 C 0.0274 0.29474 0.13344 0.0
C684 C 0.04197 0.29119 0.15153 0.0
C685 C 0.00418 0.29522 0.13666 0.0
C686 C 0.0329 0.28814 0.17305 0.0
C687 C 0.00969 0.28853 0.1764 0.0
H688 H 0.21582 0.5375 0.67181 0.0
H689 H 0.21704 0.54244 0.59971 0.0
H690 H 0.21741 0.50182 0.59664 0.0
H691 H 0.21707 0.46492 0.61419 0.0
H692 H 0.21583 0.45943 0.6862 0.0
H693 H 0.21582 0.50021 0.6895 0.0
C694 C 0.21619 0.52969 0.65543 0.0
C695 C 0.21637 0.54305 0.63603 0.0
C696 C 0.21639 0.50621 0.65374 0.0
C697 C 0.21686 0.53262 0.61494 0.0
C698 C 0.21708 0.50936 0.61314 0.0
C699 C 0.21682 0.4726 0.63063 0.0
C700 C 0.21642 0.45911 0.6499 0.0
C701 C 0.2168 0.496 0.63241 0.0
C702 C 0.21615 0.4694 0.67107 0.0
C703 C 0.21612 0.49273 0.67297 0.0
H704 H 0.0349 0.69931 0.11706 0.0
H705 H 0.04066 0.72404 0.18469 0.0
H706 H 0.99992 0.72707 0.18723 0.0
H707 H 0.96262 0.72266 0.17012 0.0
H708 H 0.95751 0.69772 0.10246 0.0
H709 H 0.99805 0.69486 0.10013 0.0
C710 C 0.0273 0.70537 0.13239 0.0
C711 C 0.04084 0.71145 0.15064 0.0
C712 C 0.00395 0.70706 0.13374 0.0
C713 C 0.03064 0.71924 0.17037 0.0
C714 C 0.00734 0.72099 0.17184 0.0
C715 C 0.97039 0.71664 0.15486 0.0
C716 C 0.95699 0.71044 0.13649 0.0
C717 C 0.99382 0.71496 0.1536 0.0
C718 C 0.96735 0.70261 0.11687 0.0
C719 C 0.99057 0.70096 0.11549 0.0
H720 H 0.79787 0.46362 0.66569 0.0
H721 H 0.73338 0.45924 0.63345 0.0
H722 H 0.73058 0.49986 0.63283 0.0
H723 H 0.74652 0.53672 0.64072 0.0
H724 H 0.81087 0.54164 0.67306 0.0
H725 H 0.81353 0.50085 0.67444 0.0
C726 C 0.78319 0.47155 0.65858 0.0
C727 C 0.76589 0.4583 0.6496 0.0
C728 C 0.78162 0.49508 0.65829 0.0
C729 C 0.74696 0.46892 0.64052 0.0
C730 C 0.74532 0.49222 0.64012 0.0
C731 C 0.76112 0.52892 0.64815 0.0
C732 C 0.77848 0.5423 0.65672 0.0
C733 C 0.76257 0.50546 0.64886 0.0
C734 C 0.79724 0.5318 0.66631 0.0
C735 C 0.7988 0.50844 0.66708 0.0
H736 H 0.96275 0.69083 0.87484 0.0
H737 H 0.95639 0.72716 0.81274 0.0
H738 H 0.99716 0.7279 0.80885 0.0
H739 H 0.03468 0.71903 0.82377 0.0
H740 H 0.04022 0.68288 0.88613 0.0
H741 H 0.99967 0.68132 0.88917 0.0
C742 C 0.97021 0.69887 0.86038 0.0
C743 C 0.95652 0.70898 0.84414 0.0
C744 C 0.99355 0.69933 0.85833 0.0
C745 C 0.96654 0.71927 0.82551 0.0
C746 C 0.98986 0.71972 0.82329 0.0
C747 C 0.027 0.71075 0.83798 0.0
C748 C 0.04052 0.70115 0.85472 0.0
C749 C 0.00354 0.70994 0.8397 0.0
C750 C 0.03028 0.69046 0.873 0.0
C751 C 0.00706 0.68955 0.87479 0.0
H752 H 0.75099 0.53543 0.36685 0.0
H753 H 0.808 0.54104 0.32289 0.0
H754 H 0.81056 0.50025 0.32068 0.0
H755 H 0.79669 0.46288 0.33156 0.0
H756 H 0.73958 0.45798 0.37558 0.0
H757 H 0.73711 0.49855 0.37746 0.0
C758 C 0.76396 0.52779 0.35672 0.0
C759 C 0.77926 0.5413 0.34506 0.0
C760 C 0.76538 0.50439 0.35558 0.0
C761 C 0.796 0.53104 0.33207 0.0
C762 C 0.79749 0.50771 0.3308 0.0
C763 C 0.78371 0.4707 0.34155 0.0
C764 C 0.76833 0.45735 0.35336 0.0
C765 C 0.7823 0.49419 0.34254 0.0
C766 C 0.7516 0.46778 0.36621 0.0
C767 C 0.75016 0.49103 0.36734 0.0
H768 H 0.03336 0.29651 0.83166 0.0
H769 H 0.03526 0.22922 0.85796 0.0
H770 H 0.99454 0.22761 0.85741 0.0
H771 H 0.9584 0.2455 0.85053 0.0
H772 H 0.95606 0.31294 0.82479 0.0
H773 H 0.99694 0.3142 0.82396 0.0
C774 C 0.02488 0.28145 0.83717 0.0
C775 C 0.03741 0.26303 0.84488 0.0
C776 C 0.00137 0.28065 0.83695 0.0
C777 C 0.0261 0.24366 0.85196 0.0
C778 C 0.00277 0.24271 0.85167 0.0
C779 C 0.96678 0.26047 0.84463 0.0
C780 C 0.95414 0.27911 0.83778 0.0
C781 C 0.99025 0.26114 0.84436 0.0
C782 C 0.96536 0.29836 0.83021 0.0
C783 C 0.98874 0.2991 0.82974 0.0
H784 H 0.24965 0.46471 0.3709 0.0
H785 H 0.19953 0.46023 0.31909 0.0
H786 H 0.19733 0.50104 0.31743 0.0
H787 H 0.20925 0.53803 0.33117 0.0
H788 H 0.25936 0.54207 0.38306 0.0
H789 H 0.26186 0.5014 0.38419 0.0
C790 C 0.23828 0.47261 0.35917 0.0
C791 C 0.22477 0.45939 0.34517 0.0
C792 C 0.23703 0.49604 0.35836 0.0
C793 C 0.21013 0.46998 0.33009 0.0
C794 C 0.20883 0.49333 0.32914 0.0
C795 C 0.22073 0.53002 0.34271 0.0
C796 C 0.23408 0.54314 0.35702 0.0
C797 C 0.22213 0.50654 0.34329 0.0
C798 C 0.2489 0.53244 0.37183 0.0
C799 C 0.25035 0.50915 0.37252 0.0
H800 H 0.15118 0.96848 0.24004 0.0
H801 H 0.16645 0.96048 0.31021 0.0
H802 H 0.16692 0.00099 0.31501 0.0
H803 H 0.16235 0.03875 0.29951 0.0
H804 H 0.14675 0.04673 0.22941 0.0
H805 H 0.14714 0.00624 0.22443 0.0
C806 C 0.15466 0.97558 0.25637 0.0
C807 C 0.15872 0.96141 0.27471 0.0
C808 C 0.15484 0.99893 0.25908 0.0
C809 C 0.16322 0.97095 0.29577 0.0
C810 C 0.1635 0.99415 0.29856 0.0
C811 C 0.1591 0.03165 0.28313 0.0
C812 C 0.15447 0.0458 0.2649 0.0
C813 C 0.15923 0.0083 0.28036 0.0
C814 C 0.15029 0.03627 0.24378 0.0
C815 C 0.15051 0.01309 0.24089 0.0
H816 H 0.53648 0.61483 0.7844 0.0
H817 H 0.54451 0.68623 0.79153 0.0
H818 H 0.50387 0.69104 0.79128 0.0
H819 H 0.46587 0.67476 0.78916 0.0
H820 H 0.45869 0.60314 0.78264 0.0
H821 H 0.49911 0.59872 0.78244 0.0
C822 C 0.5294 0.63147 0.7859 0.0
C823 C 0.54355 0.65012 0.78797 0.0
C824 C 0.5061 0.6341 0.78581 0.0
C825 C 0.53401 0.67156 0.78992 0.0
C826 C 0.51076 0.67433 0.78976 0.0
C827 C 0.47319 0.65822 0.78764 0.0
C828 C 0.45923 0.63934 0.78594 0.0
C829 C 0.49661 0.65571 0.78771 0.0
C830 C 0.46898 0.61799 0.78408 0.0
C831 C 0.49214 0.61541 0.78393 0.0
H832 H 0.83015 0.0411 0.29263 0.0
H833 H 0.89905 0.04412 0.2711 0.0
H834 H 0.90056 0.00348 0.26917 0.0
H835 H 0.88267 0.96705 0.27381 0.0
H836 H 0.81387 0.96342 0.29541 0.0
H837 H 0.81201 0.00426 0.29703 0.0
C838 C 0.84549 0.03286 0.28753 0.0
C839 C 0.86447 0.04571 0.28208 0.0
C840 C 0.84629 0.00935 0.28644 0.0
C841 C 0.8842 0.03472 0.27547 0.0
C842 C 0.88509 0.01143 0.27432 0.0
C843 C 0.86723 0.97514 0.27885 0.0
C844 C 0.84846 0.96215 0.2845 0.0
C845 C 0.86628 0.99858 0.2798 0.0
C846 C 0.82859 0.97299 0.29094 0.0
C847 C 0.82751 0.99636 0.29191 0.0
H848 H 0.53866 0.32967 0.77746 0.0
H849 H 0.54431 0.39081 0.81562 0.0
H850 H 0.5038 0.39381 0.81744 0.0
H851 H 0.46684 0.37954 0.80812 0.0
H852 H 0.46025 0.31861 0.76992 0.0
H853 H 0.50104 0.31509 0.76822 0.0
C854 C 0.53101 0.34361 0.7862 0.0
C855 C 0.54457 0.35999 0.79637 0.0
C856 C 0.50754 0.34532 0.78717 0.0
C857 C 0.53436 0.37796 0.80762 0.0
C858 C 0.51115 0.37972 0.80868 0.0
C859 C 0.47425 0.36545 0.79941 0.0
C860 C 0.46048 0.34939 0.78915 0.0
C861 C 0.4976 0.36356 0.79849 0.0
C862 C 0.47046 0.33125 0.77794 0.0
C863 C 0.49378 0.32922 0.77698 0.0
H864 H 0.14622 0.03906 0.75925 0.0
H865 H 0.18 0.04345 0.69554 0.0
H866 H 0.1816 0.00267 0.69334 0.0
H867 H 0.17198 0.96571 0.70876 0.0
H868 H 0.13792 0.96162 0.77237 0.0
H869 H 0.13794 0.00229 0.7753 0.0
C870 C 0.15408 0.03114 0.74494 0.0
C871 C 0.1629 0.04435 0.72756 0.0
C872 C 0.15483 0.00768 0.7437 0.0
C873 C 0.17305 0.03373 0.70917 0.0
C874 C 0.17394 0.01038 0.70786 0.0
C875 C 0.16468 0.9737 0.72333 0.0
C876 C 0.15489 0.96057 0.74027 0.0
C877 C 0.16466 0.99718 0.72491 0.0
C878 C 0.14555 0.97125 0.75905 0.0
C879 C 0.14552 0.99455 0.76075 0.0
H880 H 0.467 0.62283 0.19347 0.0
H881 H 0.46429 0.68921 0.22182 0.0
H882 H 0.50513 0.69167 0.2203 0.0
H883 H 0.5417 0.67438 0.21186 0.0
H884 H 0.54369 0.60771 0.18399 0.0
H885 H 0.50302 0.60604 0.18437 0.0
C886 C 0.47528 0.6379 0.19928 0.0
C887 C 0.46258 0.65578 0.20781 0.0
C888 C 0.49867 0.63914 0.19847 0.0
C889 C 0.47365 0.67516 0.21523 0.0
C890 C 0.49701 0.67658 0.21436 0.0
C891 C 0.53322 0.65955 0.20574 0.0
C892 C 0.54578 0.64119 0.19795 0.0
C893 C 0.50971 0.6586 0.20614 0.0
C894 C 0.5345 0.62209 0.19013 0.0
C895 C 0.51121 0.62108 0.19034 0.0
H896 H 0.83236 0.03839 0.70171 0.0
H897 H 0.86962 0.04439 0.76332 0.0
H898 H 0.87102 0.00387 0.76683 0.0
H899 H 0.86231 0.96666 0.75235 0.0
H900 H 0.82471 0.96002 0.69106 0.0
H901 H 0.8227 0.00073 0.68763 0.0
C902 C 0.84074 0.03081 0.71591 0.0
C903 C 0.85088 0.04448 0.73219 0.0
C904 C 0.84141 0.00734 0.71795 0.0
C905 C 0.86158 0.03436 0.75055 0.0
C906 C 0.86245 0.01113 0.75259 0.0
C907 C 0.8536 0.97407 0.73826 0.0
C908 C 0.84375 0.96025 0.72197 0.0
C909 C 0.85249 0.99746 0.73638 0.0
C910 C 0.83249 0.97023 0.70385 0.0
C911 C 0.83135 0.99353 0.70185 0.0
H912 H 0.53169 0.34226 0.26766 0.0
H913 H 0.54047 0.32064 0.19929 0.0
H914 H 0.49996 0.31907 0.19436 0.0
H915 H 0.46199 0.32583 0.20882 0.0
H916 H 0.45343 0.34773 0.27715 0.0
H917 H 0.49382 0.34704 0.28269 0.0
C918 C 0.52478 0.33702 0.25172 0.0
C919 C 0.53917 0.3317 0.23386 0.0
C920 C 0.50144 0.33629 0.24893 0.0
C921 C 0.52984 0.32485 0.21336 0.0
C922 C 0.50664 0.32401 0.21048 0.0
C923 C 0.46893 0.33029 0.22498 0.0
C924 C 0.45463 0.33697 0.24248 0.0
C925 C 0.49227 0.32999 0.22806 0.0
C926 C 0.46398 0.34262 0.26333 0.0
C927 C 0.48712 0.34226 0.26653 0.0
H928 H 0.28172 0.17213 0.03875 0.0
H929 H 0.27159 0.10075 0.04363 0.0
H930 H 0.27028 0.0978 0.00308 0.0
H931 H 0.27318 0.11498 0.96618 0.0
H932 H 0.28386 0.18617 0.96049 0.0
H933 H 0.28371 0.18965 0.00128 0.0
C934 C 0.27909 0.15598 0.03092 0.0
C935 C 0.27685 0.1367 0.04428 0.0
C936 C 0.27853 0.1543 0.00741 0.0
C937 C 0.2735 0.11588 0.03383 0.0
C938 C 0.27273 0.11413 0.01059 0.0
C939 C 0.2754 0.1313 0.9738 0.0
C940 C 0.2786 0.15025 0.96025 0.0
C941 C 0.27543 0.13317 0.99721 0.0
C942 C 0.2814 0.17126 0.9705 0.0
C943 C 0.28133 0.17328 0.99385 0.0
H944 H 0.28531 0.82511 0.03392 0.0
H945 H 0.29352 0.89665 0.04019 0.0
H946 H 0.29589 0.90026 0.99977 0.0
H947 H 0.2955 0.88354 0.96266 0.0
H948 H 0.28758 0.81215 0.95532 0.0
H949 H 0.28539 0.80809 0.99606 0.0
C950 C 0.28756 0.84147 0.02641 0.0
C951 C 0.28919 0.86057 0.04015 0.0
C952 C 0.28906 0.8435 0.00295 0.0
C953 C 0.29223 0.88164 0.03012 0.0
C954 C 0.2936 0.88377 0.00694 0.0
C955 C 0.29334 0.86704 0.96989 0.0
C956 C 0.29168 0.8482 0.9559 0.0
C957 C 0.29205 0.86485 0.99322 0.0
C958 C 0.28894 0.82696 0.96568 0.0
C959 C 0.28763 0.82463 0.98899 0.0
H960 H 0.66019 0.73339 0.53328 0.0
H961 H 0.66235 0.80528 0.54033 0.0
H962 H 0.66344 0.80951 0.4998 0.0
H963 H 0.66192 0.79296 0.46233 0.0
H964 H 0.65942 0.72111 0.45515 0.0
H965 H 0.66052 0.71677 0.49573 0.0
C966 C 0.66102 0.74998 0.52596 0.0
C967 C 0.66102 0.76896 0.53985 0.0
C968 C 0.66155 0.75234 0.5026 0.0
C969 C 0.66224 0.79034 0.53006 0.0
C970 C 0.66285 0.79281 0.50686 0.0
C971 C 0.66177 0.77634 0.46962 0.0
C972 C 0.66041 0.75742 0.45572 0.0
C973 C 0.66223 0.77394 0.49296 0.0
C974 C 0.66032 0.736 0.46546 0.0
C975 C 0.66093 0.73347 0.48867 0.0
H976 H 0.68158 0.15588 0.02721 0.0
H977 H 0.74788 0.18013 0.04247 0.0
H978 H 0.75578 0.18433 0.00265 0.0
H979 H 0.74469 0.17908 0.96343 0.0
H980 H 0.6783 0.15509 0.94822 0.0
H981 H 0.66966 0.15294 0.98804 0.0
C982 C 0.6977 0.16223 0.02185 0.0
C983 C 0.71415 0.16748 0.03783 0.0
C984 C 0.7022 0.16457 0.9989 0.0
C985 C 0.73491 0.17584 0.03055 0.0
C986 C 0.73949 0.17822 0.00776 0.0
C987 C 0.72828 0.17353 0.96882 0.0
C988 C 0.71225 0.16712 0.95284 0.0
C989 C 0.72338 0.17232 0.99178 0.0
C990 C 0.69099 0.16015 0.96013 0.0
C991 C 0.68602 0.15883 0.98292 0.0
H992 H 0.32803 0.20757 0.53639 0.0
H993 H 0.39745 0.2268 0.54203 0.0
H994 H 0.40087 0.22758 0.5015 0.0
H995 H 0.38455 0.22275 0.46448 0.0
H996 H 0.31531 0.20348 0.45789 0.0
H997 H 0.31148 0.20274 0.49869 0.0
C998 C 0.34389 0.21194 0.52873 0.0
C999 C 0.36245 0.21708 0.54232 0.0
C1000 C 0.34582 0.21232 0.50523 0.0
C1001 C 0.38288 0.2227 0.53208 0.0
C1002 C 0.38488 0.22317 0.50884 0.0
C1003 C 0.36858 0.21836 0.4719 0.0
C1004 C 0.35026 0.21316 0.4581 0.0
C1005 C 0.36651 0.21798 0.49527 0.0
C1006 C 0.3297 0.20757 0.46809 0.0
C1007 C 0.32751 0.20714 0.49144 0.0
H1008 H 0.72371 0.88547 0.03656 0.0
H1009 H 0.70781 0.81515 0.04056 0.0
H1010 H 0.70923 0.81237 0.99968 0.0
H1011 H 0.71417 0.83032 0.96278 0.0
H1012 H 0.73009 0.90076 0.95961 0.0
H1013 H 0.72956 0.90299 1.00026 0.0
C1014 C 0.72055 0.86949 0.02855 0.0
C1015 C 0.71554 0.85057 0.04158 0.0
C1016 C 0.72141 0.86803 0.00517 0.0
C1017 C 0.71168 0.82998 0.03089 0.0
C1018 C 0.71247 0.82839 0.00753 0.0
C1019 C 0.7176 0.84613 0.97099 0.0
C1020 C 0.72206 0.86536 0.95812 0.0
C1021 C 0.7172 0.84736 0.99449 0.0
C1022 C 0.72651 0.88571 0.96904 0.0
C1023 C 0.72621 0.88703 0.99232 0.0
H1024 H 0.67781 0.21343 0.54093 0.0
H1025 H 0.60786 0.19684 0.54831 0.0
H1026 H 0.60356 0.19542 0.50795 0.0
H1027 H 0.61927 0.19859 0.47054 0.0
H1028 H 0.68907 0.21485 0.46202 0.0
H1029 H 0.69374 0.21668 0.50272 0.0
C1030 C 0.66165 0.20952 0.53368 0.0
C1031 C 0.64322 0.20523 0.54774 0.0
C1032 C 0.65921 0.20864 0.51021 0.0
C1033 C 0.62238 0.20019 0.53802 0.0
C1034 C 0.61985 0.19937 0.51486 0.0
C1035 C 0.63555 0.20254 0.47751 0.0
C1036 C 0.65378 0.20653 0.4632 0.0
C1037 C 0.63812 0.20351 0.50082 0.0
C1038 C 0.67474 0.21162 0.47263 0.0
C1039 C 0.67742 0.2127 0.49592 0.0
H1040 H 0.32998 0.80047 0.46896 0.0
H1041 H 0.3515 0.73164 0.46426 0.0
H1042 H 0.35129 0.72857 0.50495 0.0
H1043 H 0.3465 0.74571 0.54185 0.0
H1044 H 0.32552 0.81466 0.54688 0.0
H1045 H 0.32388 0.81729 0.50608 0.0
C1046 C 0.3345 0.78474 0.47681 0.0
C1047 C 0.34083 0.76633 0.46349 0.0
C1048 C 0.33448 0.78311 0.5003 0.0
C1049 C 0.3466 0.7461 0.47402 0.0
C1050 C 0.34651 0.74432 0.49733 0.0
C1051 C 0.34142 0.7613 0.53408 0.0
C1052 C 0.33622 0.77998 0.54747 0.0
C1053 C 0.3407 0.76276 0.51063 0.0
C1054 C 0.32965 0.80001 0.53702 0.0
C1055 C 0.32875 0.80155 0.51367 0.0
H1056 H 0.18988 0.37894 0.25892 0.0
H1057 H 0.14442 0.34086 0.29975 0.0
H1058 H 0.1236 0.32923 0.2665 0.0
H1059 H 0.12392 0.32314 0.22583 0.0
H1060 H 0.1726 0.35733 0.18522 0.0
H1061 H 0.18616 0.37777 0.21794 0.0
C1062 C 0.17481 0.36893 0.26048 0.0
C1063 C 0.16844 0.3609 0.28158 0.0
C1064 C 0.16371 0.36136 0.24117 0.0
C1065 C 0.14935 0.3474 0.28357 0.0
C1066 C 0.1376 0.34059 0.26455 0.0
C1067 C 0.13676 0.33585 0.22407 0.0
C1068 C 0.14721 0.3389 0.20326 0.0
C1069 C 0.14535 0.3465 0.24321 0.0
C1070 C 0.16426 0.35491 0.20114 0.0
C1071 C 0.17217 0.3664 0.21988 0.0
H1072 H 0.16095 0.64518 0.79535 0.0
H1073 H 0.10769 0.68458 0.76703 0.0
H1074 H 0.11553 0.66905 0.72996 0.0
H1075 H 0.1435 0.65147 0.70505 0.0
H1076 H 0.19637 0.6117 0.73354 0.0
H1077 H 0.18254 0.61968 0.77121 0.0
C1078 C 0.15045 0.64954 0.7812 0.0
C1079 C 0.13392 0.66605 0.78373 0.0
C1080 C 0.15525 0.64072 0.75996 0.0
C1081 C 0.12039 0.67175 0.76541 0.0
C1082 C 0.12508 0.66308 0.74417 0.0
C1083 C 0.15121 0.64365 0.7195 0.0
C1084 C 0.17081 0.63099 0.71669 0.0
C1085 C 0.14329 0.64856 0.7411 0.0
C1086 C 0.18103 0.62119 0.73541 0.0
C1087 C 0.17331 0.62603 0.75695 0.0
H1088 H 0.85411 0.66677 0.29517 0.0
H1089 H 0.81408 0.61444 0.26604 0.0
H1090 H 0.82879 0.62344 0.22888 0.0
H1091 H 0.84652 0.65165 0.20447 0.0
H1092 H 0.88692 0.70365 0.23366 0.0
H1093 H 0.87913 0.68911 0.27115 0.0
C1094 C 0.84942 0.65676 0.28077 0.0
C1095 C 0.83308 0.64006 0.28313 0.0
C1096 C 0.8578 0.6622 0.25952 0.0
C1097 C 0.82686 0.62721 0.26451 0.0
C1098 C 0.83506 0.63255 0.24326 0.0
C1099 C 0.85439 0.65909 0.21904 0.0
C1100 C 0.86725 0.67859 0.21653 0.0
C1101 C 0.84962 0.65076 0.24047 0.0
C1102 C 0.87721 0.68842 0.23535 0.0
C1103 C 0.87252 0.68028 0.25676 0.0
H1104 H 0.87705 0.3255 0.76497 0.0
H1105 H 0.82573 0.35909 0.80277 0.0
H1106 H 0.81444 0.38014 0.76958 0.0
H1107 H 0.81357 0.38215 0.72859 0.0
H1108 H 0.86135 0.34451 0.69008 0.0
H1109 H 0.88011 0.33243 0.72441 0.0
C1110 C 0.86406 0.33814 0.76604 0.0
C1111 C 0.85227 0.34093 0.78617 0.0
C1112 C 0.85687 0.34927 0.74655 0.0
C1113 C 0.83507 0.35687 0.78739 0.0
C1114 C 0.82851 0.36876 0.76838 0.0
C1115 C 0.82879 0.37228 0.72779 0.0
C1116 C 0.83635 0.36448 0.70697 0.0
C1117 C 0.8385 0.36422 0.74764 0.0
C1118 C 0.85557 0.35101 0.706 0.0
C1119 C 0.86606 0.34384 0.72564 0.0
H1120 H 0.27224 0.17377 0.37745 0.0
H1121 H 0.31205 0.14652 0.3239 0.0
H1122 H 0.27993 0.12543 0.31011 0.0
H1123 H 0.23903 0.12217 0.30821 0.0
H1124 H 0.1985 0.15259 0.35933 0.0
H1125 H 0.23208 0.16453 0.37948 0.0
C1126 C 0.27403 0.1624 0.36341 0.0
C1127 C 0.29437 0.16164 0.35167 0.0
C1128 C 0.25515 0.15117 0.35492 0.0
C1129 C 0.29648 0.14727 0.33318 0.0
C1130 C 0.27808 0.13537 0.32518 0.0
C1131 C 0.23769 0.13043 0.32433 0.0
C1132 C 0.21651 0.13627 0.33252 0.0
C1133 C 0.25706 0.1382 0.33515 0.0
C1134 C 0.21476 0.14762 0.35301 0.0
C1135 C 0.23395 0.15469 0.36436 0.0
H1136 H 0.32432 0.77133 0.87181 0.0
H1137 H 0.34829 0.81087 0.81649 0.0
H1138 H 0.36893 0.77879 0.8019 0.0
H1139 H 0.37394 0.73804 0.80093 0.0
H1140 H 0.34682 0.69759 0.85393 0.0
H1141 H 0.33409 0.7312 0.87366 0.0
C1142 C 0.33478 0.77305 0.85707 0.0
C1143 C 0.33486 0.79334 0.84522 0.0
C1144 C 0.34583 0.75419 0.84821 0.0
C1145 C 0.34805 0.79534 0.82586 0.0
C1146 C 0.35974 0.77698 0.81743 0.0
C1147 C 0.36609 0.73677 0.81726 0.0
C1148 C 0.3616 0.71558 0.82625 0.0
C1149 C 0.3579 0.75608 0.82789 0.0
C1150 C 0.35076 0.71387 0.84701 0.0
C1151 C 0.34328 0.73306 0.85813 0.0
H1152 H 0.69383 0.85094 0.33433 0.0
H1153 H 0.72102 0.81526 0.39076 0.0
H1154 H 0.75772 0.83207 0.38404 0.0
H1155 H 0.78326 0.85004 0.35691 0.0
H1156 H 0.75588 0.88603 0.30083 0.0
H1157 H 0.71795 0.87642 0.31275 0.0
C1158 C 0.70762 0.84759 0.34565 0.0
C1159 C 0.70491 0.83176 0.36284 0.0
C1160 C 0.72866 0.85716 0.34154 0.0
C1161 C 0.72275 0.82749 0.37749 0.0
C1162 C 0.7438 0.8369 0.37348 0.0
C1163 C 0.76888 0.85666 0.34801 0.0
C1164 C 0.77216 0.86879 0.32816 0.0
C1165 C 0.74717 0.85081 0.35485 0.0
C1166 C 0.7536 0.87699 0.31639 0.0
C1167 C 0.73195 0.87123 0.32303 0.0
H1168 H 0.67506 0.22749 0.87036 0.0
H1169 H 0.64901 0.19019 0.81448 0.0
H1170 H 0.62861 0.22315 0.80146 0.0
H1171 H 0.6251 0.26406 0.80157 0.0
H1172 H 0.65526 0.30227 0.85459 0.0
H1173 H 0.66677 0.26776 0.87347 0.0
C1174 C 0.66418 0.22646 0.85587 0.0
C1175 C 0.66337 0.20658 0.84338 0.0
C1176 C 0.65351 0.24583 0.84783 0.0
C1177 C 0.64972 0.20541 0.82432 0.0
C1178 C 0.63821 0.22427 0.8168 0.0
C1179 C 0.63328 0.26467 0.81777 0.0
C1180 C 0.63905 0.28544 0.82697 0.0
C1181 C 0.64091 0.24482 0.82777 0.0
C1182 C 0.65033 0.28631 0.84753 0.0
C1183 C 0.65713 0.26661 0.85815 0.0
H1184 H 0.27173 0.82982 0.62921 0.0
H1185 H 0.31051 0.85498 0.68451 0.0
H1186 H 0.27807 0.87537 0.69862 0.0
H1187 H 0.23718 0.87932 0.69952 0.0
H1188 H 0.19761 0.85093 0.64653 0.0
H1189 H 0.23155 0.83904 0.62692 0.0
C1190 C 0.27321 0.84051 0.64381 0.0
C1191 C 0.29338 0.84093 0.65585 0.0
C1192 C 0.25415 0.85139 0.65241 0.0
C1193 C 0.29507 0.85445 0.67502 0.0
C1194 C 0.2765 0.86599 0.68317 0.0
C1195 C 0.23615 0.87143 0.6832 0.0
C1196 C 0.21512 0.86622 0.67424 0.0
C1197 C 0.2557 0.86366 0.67265 0.0
C1198 C 0.21376 0.85536 0.65346 0.0
C1199 C 0.23315 0.84835 0.6424 0.0
H1200 H 0.68653 0.76713 0.12352 0.0
H1201 H 0.64421 0.80509 0.16777 0.0
H1202 H 0.62502 0.77089 0.17946 0.0
H1203 H 0.62566 0.7299 0.1826 0.0
H1204 H 0.67175 0.69189 0.1424 0.0
H1205 H 0.6838 0.72601 0.12321 0.0
C1206 C 0.67252 0.76788 0.13504 0.0
C1207 C 0.66656 0.78844 0.14467 0.0
C1208 C 0.66247 0.74799 0.1426 0.0
C1209 C 0.64885 0.78934 0.16007 0.0
C1210 C 0.63803 0.7698 0.16687 0.0
C1211 C 0.63763 0.7291 0.16897 0.0
C1212 C 0.64762 0.70856 0.16358 0.0
C1213 C 0.6454 0.74894 0.15903 0.0
C1214 C 0.66368 0.7076 0.14648 0.0
C1215 C 0.67071 0.72712 0.13571 0.0
H1216 H 0.77156 0.1215 0.68439 0.0
H1217 H 0.81098 0.16528 0.64304 0.0
H1218 H 0.77727 0.1782 0.62377 0.0
H1219 H 0.73632 0.18307 0.62484 0.0
H1220 H 0.69715 0.14251 0.66966 0.0
H1221 H 0.7306 0.12199 0.68109 0.0
C1222 C 0.77275 0.13305 0.67043 0.0
C1223 C 0.79359 0.14226 0.66487 0.0
C1224 C 0.75316 0.14133 0.66037 0.0
C1225 C 0.79504 0.15778 0.64729 0.0
C1226 C 0.77574 0.16536 0.63648 0.0
C1227 C 0.7351 0.16912 0.63639 0.0
C1228 C 0.71444 0.16417 0.64637 0.0
C1229 C 0.75462 0.15817 0.64373 0.0
C1230 C 0.71298 0.14646 0.66174 0.0
C1231 C 0.73211 0.13485 0.6684 0.0
H1232 H 0.34939 0.20096 0.16357 0.0
H1233 H 0.30547 0.22895 0.11375 0.0
H1234 H 0.31997 0.26646 0.12169 0.0
H1235 H 0.33949 0.29144 0.14821 0.0
H1236 H 0.38394 0.26335 0.1975 0.0
H1237 H 0.37528 0.22558 0.18418 0.0
C1238 C 0.34365 0.21522 0.15391 0.0
C1239 C 0.32633 0.21238 0.13825 0.0
C1240 C 0.35194 0.23665 0.15872 0.0
C1241 C 0.31892 0.23082 0.12576 0.0
C1242 C 0.32702 0.25226 0.1305 0.0
C1243 C 0.34788 0.27704 0.15541 0.0
C1244 C 0.36221 0.27998 0.17382 0.0
C1245 C 0.34271 0.25545 0.14771 0.0
C1246 C 0.37301 0.26137 0.18317 0.0
C1247 C 0.36786 0.2398 0.17571 0.0
H1248 H 0.81111 0.6271 0.73777 0.0
H1249 H 0.86423 0.65713 0.69964 0.0
H1250 H 0.88184 0.67064 0.7341 0.0
H1251 H 0.87726 0.68078 0.77391 0.0
H1252 H 0.82116 0.65441 0.81076 0.0
H1253 H 0.80968 0.63242 0.77835 0.0
C1254 C 0.82712 0.63565 0.73721 0.0
C1255 C 0.83666 0.64083 0.71642 0.0
C1256 C 0.83625 0.64457 0.75692 0.0
C1257 C 0.85693 0.65262 0.71561 0.0
C1258 C 0.86678 0.66062 0.73528 0.0
C1259 C 0.86299 0.66963 0.77498 0.0
C1260 C 0.84993 0.66932 0.79454 0.0
C1261 C 0.8559 0.65776 0.75591 0.0
C1262 C 0.8313 0.65504 0.79574 0.0
C1263 C 0.82471 0.6425 0.77722 0.0
H1264 H 0.87828 0.3223 0.23479 0.0
H1265 H 0.83369 0.36083 0.19335 0.0
H1266 H 0.82026 0.38135 0.22605 0.0
H1267 H 0.81506 0.38189 0.26681 0.0
H1268 H 0.85649 0.34025 0.30842 0.0
H1269 H 0.8777 0.32785 0.27569 0.0
C1270 C 0.86637 0.33587 0.23292 0.0
C1271 C 0.85698 0.34016 0.21182 0.0
C1272 C 0.85791 0.34682 0.252 0.0
C1273 C 0.84115 0.35738 0.20952 0.0
C1274 C 0.83335 0.36898 0.22822 0.0
C1275 C 0.82946 0.37099 0.26872 0.0
C1276 C 0.83447 0.36216 0.28987 0.0
C1277 C 0.84071 0.36299 0.24966 0.0
C1278 C 0.85265 0.34746 0.29223 0.0
C1279 C 0.86457 0.34016 0.27349 0.0
H1280 H 0.15594 0.34926 0.79797 0.0
H1281 H 0.11054 0.30338 0.76598 0.0
H1282 H 0.12115 0.31809 0.72922 0.0
H1283 H 0.14923 0.33821 0.70661 0.0
H1284 H 0.19443 0.38429 0.7386 0.0
H1285 H 0.17781 0.37571 0.77509 0.0
C1286 C 0.14769 0.34324 0.78295 0.0
C1287 C 0.13255 0.32533 0.78447 0.0
C1288 C 0.15416 0.35155 0.76197 0.0
C1289 C 0.12204 0.31737 0.76508 0.0
C1290 C 0.12834 0.32557 0.74409 0.0
C1291 C 0.15478 0.34696 0.72152 0.0
C1292 C 0.173 0.36173 0.72015 0.0
C1293 C 0.14523 0.34181 0.74234 0.0
C1294 C 0.18028 0.373 0.73939 0.0
C1295 C 0.17093 0.36791 0.76023 0.0
H1296 H 0.14696 0.65203 0.29388 0.0
H1297 H 0.19719 0.60834 0.26633 0.0
H1298 H 0.18303 0.61537 0.22856 0.0
H1299 H 0.16223 0.64085 0.20363 0.0
H1300 H 0.11172 0.68429 0.23121 0.0
H1301 H 0.11961 0.67009 0.26877 0.0
C1302 C 0.15402 0.64322 0.27966 0.0
C1303 C 0.173 0.6297 0.28271 0.0
C1304 C 0.14598 0.64765 0.25802 0.0
C1305 C 0.18234 0.61855 0.26429 0.0
C1306 C 0.17445 0.62284 0.24269 0.0
C1307 C 0.15234 0.64646 0.21779 0.0
C1308 C 0.13661 0.6637 0.21481 0.0
C1309 C 0.15713 0.63836 0.23932 0.0
C1310 C 0.12383 0.67092 0.23315 0.0
C1311 C 0.12853 0.663 0.25465 0.0
H1312 H 0.79238 0.84189 0.63988 0.0
H1313 H 0.76594 0.88646 0.68997 0.0
H1314 H 0.72779 0.87694 0.6788 0.0
H1315 H 0.70281 0.84962 0.66052 0.0
H1316 H 0.72905 0.80597 0.60951 0.0
H1317 H 0.76647 0.8217 0.61485 0.0
C1318 C 0.77822 0.85031 0.64752 0.0
C1319 C 0.7818 0.8648 0.66566 0.0
C1320 C 0.75637 0.84455 0.64115 0.0
C1321 C 0.76348 0.8755 0.67573 0.0
C1322 C 0.74167 0.86977 0.66959 0.0
C1323 C 0.71662 0.8442 0.65006 0.0
C1324 C 0.71345 0.82657 0.63487 0.0
C1325 C 0.738 0.85338 0.65319 0.0
C1326 C 0.73126 0.81959 0.62127 0.0
C1327 C 0.75265 0.82845 0.62445 0.0
H1328 H 0.67508 0.29593 0.16306 0.0
H1329 H 0.61691 0.26474 0.19203 0.0
H1330 H 0.62729 0.22895 0.17481 0.0
H1331 H 0.65654 0.20555 0.15687 0.0
H1332 H 0.7141 0.23732 0.12742 0.0
H1333 H 0.70035 0.27401 0.13928 0.0
C1334 C 0.66439 0.28139 0.16511 0.0
C1335 C 0.64546 0.28276 0.17898 0.0
C1336 C 0.67052 0.26101 0.15525 0.0
C1337 C 0.63156 0.264 0.18139 0.0
C1338 C 0.63761 0.24353 0.17171 0.0
C1339 C 0.66554 0.22065 0.15239 0.0
C1340 C 0.68615 0.21897 0.14121 0.0
C1341 C 0.65753 0.24166 0.15936 0.0
C1342 C 0.69801 0.23843 0.13571 0.0
C1343 C 0.69027 0.25933 0.14268 0.0
H1344 H 0.26882 0.18341 0.6185 0.0
H1345 H 0.30914 0.13857 0.65779 0.0
H1346 H 0.27555 0.11947 0.67126 0.0
H1347 H 0.23504 0.12206 0.67896 0.0
H1348 H 0.19551 0.17073 0.64342 0.0
H1349 H 0.22801 0.18161 0.62121 0.0
C1350 C 0.27019 0.16867 0.62904 0.0
C1351 C 0.29129 0.16216 0.63696 0.0
C1352 C 0.25076 0.15891 0.63795 0.0
C1353 C 0.293 0.14356 0.65122 0.0
C1354 C 0.27377 0.13291 0.65922 0.0
C1355 C 0.23347 0.1344 0.66574 0.0
C1356 C 0.21307 0.14567 0.66279 0.0
C1357 C 0.25255 0.14137 0.6538 0.0
C1358 C 0.21117 0.16193 0.64594 0.0
C1359 C 0.22975 0.16822 0.63331 0.0
H1360 H 0.34998 0.79335 0.15053 0.0
H1361 H 0.29254 0.76185 0.12063 0.0
H1362 H 0.30598 0.72511 0.1327 0.0
H1363 H 0.33015 0.70347 0.15799 0.0
H1364 H 0.38785 0.73468 0.18782 0.0
H1365 H 0.37866 0.77003 0.16916 0.0
C1366 C 0.34104 0.77828 0.14581 0.0
C1367 C 0.32049 0.78007 0.13458 0.0
C1368 C 0.34872 0.75731 0.15316 0.0
C1369 C 0.30864 0.76066 0.12889 0.0
C1370 C 0.31616 0.73973 0.13607 0.0
C1371 C 0.34104 0.71788 0.15984 0.0
C1372 C 0.35943 0.71672 0.17444 0.0
C1373 C 0.33558 0.73804 0.14915 0.0
C1374 C 0.37361 0.73529 0.17664 0.0
C1375 C 0.36825 0.75551 0.16612 0.0
H1376 H 0.72616 0.15747 0.37941 0.0
H1377 H 0.693 0.1701 0.31634 0.0
H1378 H 0.72501 0.15634 0.29607 0.0
H1379 H 0.76392 0.14569 0.29563 0.0
H1380 H 0.79882 0.13221 0.3571 0.0
H1381 H 0.76451 0.14028 0.37859 0.0
C1382 C 0.72578 0.15653 0.3613 0.0
C1383 C 0.70736 0.16529 0.34948 0.0
C1384 C 0.74455 0.1484 0.34939 0.0
C1385 C 0.70707 0.16388 0.32595 0.0
C1386 C 0.72539 0.15597 0.31421 0.0
C1387 C 0.76381 0.14395 0.31373 0.0
C1388 C 0.78364 0.13858 0.32489 0.0
C1389 C 0.74443 0.14897 0.3257 0.0
C1390 C 0.78354 0.13629 0.34826 0.0
C1391 C 0.76402 0.14113 0.36048 0.0
H1392 H 0.3566 0.20949 0.84498 0.0
H1393 H 0.30768 0.2367 0.89037 0.0
H1394 H 0.32089 0.2746 0.88238 0.0
H1395 H 0.34038 0.29961 0.85595 0.0
H1396 H 0.38982 0.27242 0.81106 0.0
H1397 H 0.38286 0.23483 0.8257 0.0
C1398 C 0.34961 0.22369 0.85388 0.0
C1399 C 0.33121 0.22049 0.86814 0.0
C1400 C 0.35711 0.2454 0.84894 0.0
C1401 C 0.32205 0.23886 0.87952 0.0
C1402 C 0.32939 0.26054 0.87469 0.0
C1403 C 0.35019 0.28552 0.85002 0.0
C1404 C 0.36533 0.28857 0.8323 0.0
C1405 C 0.34601 0.264 0.85846 0.0
C1406 C 0.3781 0.27038 0.82474 0.0
C1407 C 0.37396 0.24887 0.83296 0.0
H1408 H 0.29584 0.86612 0.35383 0.0
H1409 H 0.26851 0.81557 0.39731 0.0
H1410 H 0.2306 0.82784 0.38822 0.0
H1411 H 0.20624 0.84618 0.36039 0.0
H1412 H 0.2335 0.89689 0.31707 0.0
H1413 H 0.27043 0.89185 0.33395 0.0
C1414 C 0.28156 0.85862 0.36217 0.0
C1415 C 0.28481 0.83991 0.37603 0.0
C1416 C 0.25984 0.86552 0.35652 0.0
C1417 C 0.26634 0.83014 0.38673 0.0
C1418 C 0.24465 0.83693 0.38125 0.0
C1419 C 0.22008 0.85683 0.35546 0.0
C1420 C 0.21737 0.87171 0.33747 0.0
C1421 C 0.24127 0.85362 0.36507 0.0
C1422 C 0.23528 0.88544 0.33103 0.0
C1423 C 0.25644 0.88235 0.34048 0.0
H1424 H 0.6743 0.70229 0.85177 0.0
H1425 H 0.61549 0.73012 0.8208 0.0
H1426 H 0.62389 0.76675 0.83714 0.0
H1427 H 0.65253 0.79197 0.85315 0.0
H1428 H 0.71142 0.76394 0.88372 0.0
H1429 H 0.69834 0.72612 0.8751 0.0
C1430 C 0.6629 0.71622 0.84936 0.0
C1431 C 0.64446 0.71371 0.83501 0.0
C1432 C 0.66805 0.73719 0.85852 0.0
C1433 C 0.62971 0.73172 0.83192 0.0
C1434 C 0.63467 0.7527 0.84104 0.0
C1435 C 0.66189 0.77747 0.8588 0.0
C1436 C 0.68276 0.7805 0.86915 0.0
C1437 C 0.65442 0.75585 0.85339 0.0
C1438 C 0.69513 0.76182 0.87606 0.0
C1439 C 0.68778 0.74025 0.87088 0.0
H1440 H 0.12358 0.21088 0.1873 0.0
H1441 H 0.14708 0.25795 0.23658 0.0
H1442 H 0.14242 0.2299 0.2661 0.0
H1443 H 0.13462 0.19142 0.27719 0.0
H1444 H 0.11588 0.14265 0.22741 0.0
H1445 H 0.11474 0.17202 0.19886 0.0
C1446 C 0.12743 0.21491 0.20458 0.0
C1447 C 0.13564 0.23625 0.21 0.0
C1448 C 0.12541 0.19846 0.22127 0.0
C1449 C 0.14082 0.2415 0.23224 0.0
C1450 C 0.1381 0.22552 0.24903 0.0
C1451 C 0.1302 0.1872 0.26011 0.0
C1452 C 0.12572 0.16484 0.25436 0.0
C1453 C 0.13084 0.20386 0.24365 0.0
C1454 C 0.11937 0.15974 0.2323 0.0
C1455 C 0.11898 0.17649 0.21591 0.0
H1456 H 0.31708 0.62052 0.7739 0.0
H1457 H 0.36619 0.62192 0.72111 0.0
H1458 H 0.33641 0.62096 0.69301 0.0
H1459 H 0.29619 0.62533 0.68378 0.0
H1460 H 0.24764 0.62637 0.73705 0.0
H1461 H 0.27728 0.62069 0.76473 0.0
C1462 C 0.32123 0.61999 0.75622 0.0
C1463 C 0.34369 0.62135 0.74954 0.0
C1464 C 0.30407 0.62025 0.7403 0.0
C1465 C 0.34898 0.62062 0.72664 0.0
C1466 C 0.33195 0.62039 0.71058 0.0
C1467 C 0.29224 0.62387 0.70144 0.0
C1468 C 0.27002 0.6263 0.70863 0.0
C1469 C 0.30943 0.62107 0.71724 0.0
C1470 C 0.26478 0.62459 0.7314 0.0
C1471 C 0.28167 0.62135 0.74714 0.0
H1472 H 0.86901 0.85631 0.22773 0.0
H1473 H 0.87173 0.81676 0.28799 0.0
H1474 H 0.8762 0.78268 0.26594 0.0
H1475 H 0.87361 0.76367 0.22963 0.0
H1476 H 0.86959 0.80256 0.16917 0.0
H1477 H 0.87127 0.83731 0.19095 0.0
C1478 C 0.87136 0.8403 0.23596 0.0
C1479 C 0.8701 0.83895 0.2594 0.0
C1480 C 0.87317 0.82062 0.2231 0.0
C1481 C 0.87269 0.81811 0.26993 0.0
C1482 C 0.87508 0.79861 0.25735 0.0
C1483 C 0.87365 0.77981 0.22131 0.0
C1484 C 0.87144 0.78077 0.19801 0.0
C1485 C 0.87445 0.79958 0.23395 0.0
C1486 C 0.87131 0.8016 0.18718 0.0
C1487 C 0.87222 0.82142 0.19963 0.0
H1488 H 0.68913 0.37354 0.77336 0.0
H1489 H 0.63968 0.38358 0.72183 0.0
H1490 H 0.66925 0.38497 0.69346 0.0
H1491 H 0.70889 0.37821 0.68296 0.0
H1492 H 0.75713 0.36413 0.73464 0.0
H1493 H 0.7284 0.3692 0.76338 0.0
C1494 C 0.68485 0.37639 0.75595 0.0
C1495 C 0.66229 0.37824 0.74966 0.0
C1496 C 0.70175 0.37605 0.73975 0.0
C1497 C 0.65695 0.38225 0.72711 0.0
C1498 C 0.67384 0.38275 0.71086 0.0
C1499 C 0.71301 0.37662 0.70057 0.0
C1500 C 0.73488 0.37082 0.70691 0.0
C1501 C 0.69623 0.37887 0.71691 0.0
C1502 C 0.74027 0.36851 0.7296 0.0
C1503 C 0.7239 0.37144 0.74595 0.0
H1504 H 0.11688 0.7924 0.81195 0.0
H1505 H 0.13408 0.747 0.75864 0.0
H1506 H 0.1295 0.77697 0.73113 0.0
H1507 H 0.12493 0.81662 0.72288 0.0
H1508 H 0.11263 0.86342 0.7764 0.0
H1509 H 0.10992 0.83242 0.8031 0.0
C1510 C 0.11919 0.78914 0.79424 0.0
C1511 C 0.12573 0.76771 0.78711 0.0
C1512 C 0.11733 0.80669 0.77863 0.0
C1513 C 0.12904 0.76348 0.7643 0.0
C1514 C 0.12642 0.78056 0.74864 0.0
C1515 C 0.12139 0.82003 0.74035 0.0
C1516 C 0.11938 0.84228 0.74771 0.0
C1517 C 0.12119 0.80233 0.75569 0.0
C1518 C 0.11424 0.84643 0.77029 0.0
C1519 C 0.11299 0.82872 0.78561 0.0
H1520 H 0.6844 0.61135 0.23005 0.0
H1521 H 0.6363 0.63717 0.27712 0.0
H1522 H 0.66543 0.64003 0.3058 0.0
H1523 H 0.70571 0.63971 0.31562 0.0
H1524 H 0.75329 0.61212 0.26902 0.0
H1525 H 0.7233 0.60522 0.24193 0.0
C1526 C 0.68022 0.61685 0.24685 0.0
C1527 C 0.65836 0.62396 0.2516 0.0
C1528 C 0.69704 0.6185 0.26312 0.0
C1529 C 0.653 0.63126 0.27328 0.0
C1530 C 0.66971 0.6332 0.28955 0.0
C1531 C 0.70931 0.63188 0.29964 0.0
C1532 C 0.73149 0.62665 0.29399 0.0
C1533 C 0.69194 0.62761 0.28438 0.0
C1534 C 0.73622 0.61631 0.27348 0.0
C1535 C 0.71913 0.6124 0.25805 0.0
H1536 H 0.86178 0.21028 0.81459 0.0
H1537 H 0.87799 0.25798 0.76305 0.0
H1538 H 0.88605 0.22744 0.73685 0.0
H1539 H 0.88463 0.18739 0.72776 0.0
H1540 H 0.86909 0.13946 0.77932 0.0
H1541 H 0.86516 0.16974 0.80666 0.0
C1542 C 0.86732 0.21383 0.79766 0.0
C1543 C 0.86907 0.23612 0.79044 0.0
C1544 C 0.87218 0.1962 0.78288 0.0
C1545 C 0.87644 0.24082 0.7687 0.0
C1546 C 0.88105 0.22342 0.75381 0.0
C1547 C 0.88109 0.18359 0.74516 0.0
C1548 C 0.87727 0.16132 0.75161 0.0
C1549 C 0.87854 0.20107 0.7606 0.0
C1550 C 0.8725 0.15648 0.7741 0.0
C1551 C 0.86992 0.17381 0.78964 0.0
H1552 H 0.35283 0.36749 0.27235 0.0
H1553 H 0.31832 0.39027 0.21335 0.0
H1554 H 0.28337 0.39325 0.23452 0.0
H1555 H 0.26162 0.38402 0.26845 0.0
H1556 H 0.29555 0.35667 0.32582 0.0
H1557 H 0.33169 0.36091 0.30698 0.0
C1558 C 0.33783 0.37395 0.26443 0.0
C1559 C 0.33812 0.3791 0.24151 0.0
C1560 C 0.31758 0.37426 0.27637 0.0
C1561 C 0.31845 0.38662 0.23112 0.0
C1562 C 0.29845 0.38804 0.24314 0.0
C1563 C 0.27704 0.37937 0.27682 0.0
C1564 C 0.27617 0.37008 0.29835 0.0
C1565 C 0.29762 0.38107 0.26554 0.0
C1566 C 0.29604 0.36383 0.30916 0.0
C1567 C 0.31663 0.36627 0.29842 0.0
H1568 H 0.22389 0.13031 0.14928 0.0
H1569 H 0.28128 0.1045 0.18435 0.0
H1570 H 0.25987 0.10327 0.21927 0.0
H1571 H 0.2266 0.11498 0.24073 0.0
H1572 H 0.17111 0.14536 0.20626 0.0
H1573 H 0.18962 0.13919 0.17018 0.0
C1574 C 0.23135 0.12359 0.16441 0.0
C1575 C 0.25391 0.11709 0.16432 0.0
C1576 C 0.21937 0.1243 0.18461 0.0
C1577 C 0.26377 0.1092 0.18411 0.0
C1578 C 0.25163 0.10878 0.20408 0.0
C1579 C 0.21858 0.11995 0.22521 0.0
C1580 C 0.19774 0.13066 0.22587 0.0
C1581 C 0.22973 0.11717 0.2047 0.0
C1582 C 0.18731 0.13721 0.20591 0.0
C1583 C 0.19785 0.13365 0.18536 0.0
H1584 H 0.3571 0.7281 0.64731 0.0
H1585 H 0.40165 0.77555 0.67804 0.0
H1586 H 0.40635 0.75079 0.7104 0.0
H1587 H 0.39309 0.71833 0.73228 0.0
H1588 H 0.34423 0.67393 0.70336 0.0
H1589 H 0.34581 0.6945 0.66803 0.0
C1590 C 0.36848 0.73251 0.66075 0.0
C1591 C 0.37947 0.75322 0.66022 0.0
C1592 C 0.36984 0.71891 0.67986 0.0
C1593 C 0.39348 0.75936 0.67802 0.0
C1594 C 0.39592 0.74536 0.6966 0.0
C1595 C 0.38318 0.713 0.71805 0.0
C1596 C 0.36851 0.6948 0.7203 0.0
C1597 C 0.38349 0.7255 0.69809 0.0
C1598 C 0.35548 0.68807 0.70194 0.0
C1599 C 0.35641 0.69978 0.68176 0.0
H1600 H 0.81351 0.86949 0.20434 0.0
H1601 H 0.7613 0.88055 0.25279 0.0
H1602 H 0.7342 0.88682 0.22275 0.0
H1603 H 0.72462 0.88461 0.18302 0.0
H1604 H 0.77635 0.87287 0.13418 0.0
H1605 H 0.80456 0.87217 0.16384 0.0
C1606 C 0.79625 0.87361 0.20814 0.0
C1607 C 0.78913 0.8744 0.2305 0.0
C1608 C 0.78079 0.87717 0.19075 0.0
C1609 C 0.76689 0.87978 0.23555 0.0
C1610 C 0.75147 0.88337 0.21843 0.0
C1611 C 0.74217 0.88255 0.17886 0.0
C1612 C 0.74842 0.87874 0.15655 0.0
C1613 C 0.75811 0.88154 0.19601 0.0
C1614 C 0.77117 0.87611 0.15125 0.0
C1615 C 0.78727 0.87538 0.16824 0.0
H1616 H 0.61457 0.27632 0.73769 0.0
H1617 H 0.64809 0.32903 0.70179 0.0
H1618 H 0.64437 0.30809 0.66674 0.0
H1619 H 0.63667 0.27251 0.64767 0.0
H1620 H 0.60801 0.21776 0.6847 0.0
H1621 H 0.60432 0.24161 0.71784 0.0
C1622 C 0.62064 0.28327 0.72205 0.0
C1623 C 0.63151 0.30404 0.72206 0.0
C1624 C 0.61937 0.27066 0.70224 0.0
C1625 C 0.63967 0.31297 0.70195 0.0
C1626 C 0.63756 0.30102 0.68199 0.0
C1627 C 0.62883 0.26615 0.66277 0.0
C1628 C 0.62218 0.24366 0.66378 0.0
C1629 C 0.6281 0.27954 0.68206 0.0
C1630 C 0.61286 0.2352 0.68359 0.0
C1631 C 0.61099 0.24874 0.70256 0.0
H1632 H 0.2136 0.89447 0.77138 0.0
H1633 H 0.17369 0.83933 0.79521 0.0
H1634 H 0.1927 0.84067 0.83136 0.0
H1635 H 0.2241 0.85405 0.85421 0.0
H1636 H 0.26788 0.90488 0.82825 0.0
H1637 H 0.24374 0.90944 0.79539 0.0
C1638 C 0.20894 0.88301 0.78467 0.0
C1639 C 0.19251 0.86668 0.7807 0.0
C1640 C 0.22062 0.88327 0.8051 0.0
C1641 C 0.18658 0.8518 0.79788 0.0
C1642 C 0.19737 0.85262 0.81856 0.0
C1643 C 0.22781 0.86663 0.84168 0.0
C1644 C 0.24734 0.87945 0.84369 0.0
C1645 C 0.21485 0.86783 0.82213 0.0
C1646 C 0.25258 0.89524 0.82715 0.0
C1647 C 0.23898 0.89757 0.80824 0.0
H1648 H 0.64075 0.6794 0.29205 0.0
H1649 H 0.61699 0.72863 0.2451 0.0
H1650 H 0.6096 0.75485 0.27585 0.0
H1651 H 0.61363 0.76478 0.31569 0.0
H1652 H 0.6355 0.71471 0.36279 0.0
H1653 H 0.6395 0.6875 0.3325 0.0
C1654 C 0.63371 0.6958 0.28871 0.0
C1655 C 0.62967 0.70242 0.26656 0.0
C1656 C 0.62911 0.71047 0.30644 0.0
C1657 C 0.6203 0.72345 0.26216 0.0
C1658 C 0.61611 0.73836 0.27968 0.0
C1659 C 0.61863 0.7477 0.31932 0.0
C1660 C 0.62421 0.74166 0.34132 0.0
C1661 C 0.62089 0.7322 0.30183 0.0
C1662 C 0.63079 0.71959 0.34597 0.0
C1663 C 0.63336 0.70413 0.32864 0.0
H1664 H 0.81993 0.14472 0.79479 0.0
H1665 H 0.77616 0.11248 0.74746 0.0
H1666 H 0.74899 0.10496 0.77722 0.0
H1667 H 0.73604 0.11162 0.81565 0.0
H1668 H 0.78023 0.14232 0.86357 0.0
H1669 H 0.80931 0.14584 0.83488 0.0
C1670 C 0.80451 0.13584 0.79119 0.0
C1671 C 0.79965 0.12948 0.7691 0.0
C1672 C 0.78927 0.13116 0.80846 0.0
C1673 C 0.77996 0.11765 0.76442 0.0
C1674 C 0.76451 0.11334 0.78139 0.0
C1675 C 0.75236 0.11831 0.81994 0.0
C1676 C 0.75614 0.12661 0.84158 0.0
C1677 C 0.76878 0.12047 0.80334 0.0
C1678 C 0.77717 0.13546 0.84707 0.0
C1679 C 0.79363 0.13781 0.83058 0.0
H1680 H 0.38947 0.28902 0.27053 0.0
H1681 H 0.32653 0.31956 0.28827 0.0
H1682 H 0.32769 0.30147 0.3249 0.0
H1683 H 0.34461 0.27401 0.35022 0.0
H1684 H 0.40371 0.23834 0.32999 0.0
H1685 H 0.40677 0.26185 0.29643 0.0
C1686 C 0.37615 0.29183 0.28253 0.0
C1687 C 0.35792 0.30555 0.27675 0.0
C1688 C 0.37646 0.28059 0.3032 0.0
C1689 C 0.34065 0.30895 0.29232 0.0
C1690 C 0.34135 0.29869 0.31328 0.0
C1691 C 0.3584 0.27183 0.33867 0.0
C1692 C 0.37412 0.25488 0.34258 0.0
C1693 C 0.35892 0.28412 0.3187 0.0
C1694 C 0.39175 0.25172 0.32744 0.0
C1695 C 0.39327 0.26492 0.30814 0.0
H1696 H 0.22891 0.20819 0.10991 0.0
H1697 H 0.20974 0.17815 0.17265 0.0
H1698 H 0.17376 0.19738 0.17135 0.0
H1699 H 0.14933 0.2255 0.15434 0.0
H1700 H 0.17103 0.26086 0.09553 0.0
H1701 H 0.20404 0.23653 0.09272 0.0
C1702 C 0.21671 0.20574 0.12313 0.0
C1703 C 0.22187 0.19168 0.14129 0.0
C1704 C 0.19645 0.21774 0.12281 0.0
C1705 C 0.2061 0.18884 0.1585 0.0
C1706 C 0.18553 0.19982 0.15775 0.0
C1707 C 0.16107 0.22745 0.14065 0.0
C1708 C 0.1577 0.24449 0.12489 0.0
C1709 C 0.1807 0.21462 0.14022 0.0
C1710 C 0.17317 0.24741 0.1075 0.0
C1711 C 0.19213 0.23372 0.1061 0.0
H1712 H 0.20478 0.81901 0.8645 0.0
H1713 H 0.25401 0.76644 0.86662 0.0
H1714 H 0.22437 0.7384 0.87085 0.0
H1715 H 0.18448 0.7288 0.86996 0.0
H1716 H 0.135 0.78124 0.86751 0.0
H1717 H 0.16462 0.80953 0.86768 0.0
C1718 C 0.20888 0.80141 0.86604 0.0
C1719 C 0.23131 0.79455 0.86495 0.0
C1720 C 0.19176 0.78549 0.8684 0.0
C1721 C 0.23672 0.77187 0.86728 0.0
C1722 C 0.21983 0.75592 0.86968 0.0
C1723 C 0.18022 0.74645 0.86994 0.0
C1724 C 0.15768 0.75297 0.86864 0.0
C1725 C 0.19729 0.76251 0.86972 0.0
C1726 C 0.15226 0.77584 0.86872 0.0
C1727 C 0.16919 0.792 0.86857 0.0
H1728 H 0.68216 0.70343 0.37064 0.0
H1729 H 0.73227 0.75433 0.36109 0.0
H1730 H 0.76196 0.72651 0.36585 0.0
H1731 H 0.77343 0.68752 0.36943 0.0
H1732 H 0.72373 0.63566 0.37585 0.0
H1733 H 0.69405 0.66398 0.37634 0.0
C1734 C 0.69963 0.70828 0.3698 0.0
C1735 C 0.70528 0.73066 0.36539 0.0
C1736 C 0.71656 0.69208 0.37211 0.0
C1737 C 0.72778 0.73705 0.36428 0.0
C1738 C 0.74467 0.72121 0.36707 0.0
C1739 C 0.75611 0.68243 0.37126 0.0
C1740 C 0.75076 0.65958 0.37243 0.0
C1741 C 0.73923 0.69865 0.37055 0.0
C1742 C 0.72829 0.65319 0.37509 0.0
C1743 C 0.71131 0.66935 0.37507 0.0
H1744 H 0.79329 0.18523 0.85558 0.0
H1745 H 0.74386 0.23226 0.87877 0.0
H1746 H 0.77307 0.26049 0.88471 0.0
H1747 H 0.81209 0.27277 0.87924 0.0
H1748 H 0.86184 0.225 0.85819 0.0
H1749 H 0.83324 0.1958 0.85586 0.0
C1750 C 0.78908 0.20158 0.86224 0.0
C1751 C 0.76661 0.20696 0.86648 0.0
C1752 C 0.80598 0.21745 0.86603 0.0
C1753 C 0.76113 0.22797 0.87534 0.0
C1754 C 0.77779 0.24405 0.87869 0.0
C1755 C 0.81671 0.25578 0.87483 0.0
C1756 C 0.83895 0.25095 0.86895 0.0
C1757 C 0.80019 0.23912 0.87359 0.0
C1758 C 0.84485 0.22897 0.86311 0.0
C1759 C 0.82846 0.21236 0.86151 0.0
H1760 H 0.31448 0.2921 0.37228 0.0
H1761 H 0.26178 0.24364 0.36415 0.0
H1762 H 0.2336 0.27316 0.36825 0.0
H1763 H 0.22432 0.31296 0.3699 0.0
H1764 H 0.27688 0.36204 0.37533 0.0
H1765 H 0.30486 0.33213 0.37708 0.0
C1766 C 0.2968 0.2881 0.37174 0.0
C1767 C 0.28998 0.26594 0.3679 0.0
C1768 C 0.28079 0.30523 0.37363 0.0
C1769 C 0.26718 0.2607 0.36709 0.0
C1770 C 0.25116 0.27753 0.36942 0.0
C1771 C 0.24188 0.31708 0.37194 0.0
C1772 C 0.24856 0.33962 0.37238 0.0
C1773 C 0.2578 0.29989 0.37212 0.0
C1774 C 0.27131 0.3448 0.37516 0.0
C1775 C 0.28732 0.3277 0.37588 0.0
H1776 H 0.76216 0.78166 0.11252 0.0
H1777 H 0.78967 0.82579 0.16254 0.0
H1778 H 0.82606 0.80757 0.15916 0.0
H1779 H 0.84907 0.77708 0.14448 0.0
H1780 H 0.82016 0.72859 0.09992 0.0
H1781 H 0.7856 0.75076 0.09777 0.0
C1782 C 0.77623 0.78729 0.1225 0.0
C1783 C 0.77336 0.80492 0.13779 0.0
C1784 C 0.79688 0.77608 0.12116 0.0
C1785 C 0.79154 0.81208 0.15082 0.0
C1786 C 0.81235 0.80177 0.14881 0.0
C1787 C 0.83533 0.77173 0.13396 0.0
C1788 C 0.8371 0.75164 0.12205 0.0
C1789 C 0.8151 0.78353 0.13433 0.0
C1790 C 0.81917 0.74437 0.10879 0.0
C1791 C 0.79938 0.75686 0.10784 0.0
H1792 H 0.7285 0.34716 0.65274 0.0
H1793 H 0.76656 0.32453 0.596 0.0
H1794 H 0.74402 0.29017 0.59421 0.0
H1795 H 0.71599 0.2649 0.61158 0.0
H1796 H 0.68267 0.28596 0.67206 0.0
H1797 H 0.70085 0.32239 0.66992 0.0
C1798 C 0.73153 0.33484 0.63977 0.0
C1799 C 0.74877 0.33836 0.62429 0.0
C1800 C 0.71958 0.31465 0.63987 0.0
C1801 C 0.75297 0.32223 0.60777 0.0
C1802 C 0.74028 0.30253 0.60695 0.0
C1803 C 0.71265 0.27757 0.62414 0.0
C1804 C 0.698 0.27278 0.64194 0.0
C1805 C 0.72395 0.29826 0.62333 0.0
C1806 C 0.69394 0.28924 0.65825 0.0
C1807 C 0.70428 0.3101 0.65702 0.0
H1808 H 0.22846 0.69007 0.63364 0.0
H1809 H 0.28117 0.6413 0.62666 0.0
H1810 H 0.30919 0.67118 0.62734 0.0
H1811 H 0.31874 0.71106 0.63363 0.0
H1812 H 0.26583 0.75935 0.64151 0.0
H1813 H 0.23774 0.72987 0.63674 0.0
C1814 C 0.24607 0.68603 0.6319 0.0
C1815 C 0.25277 0.66355 0.6302 0.0
C1816 C 0.26201 0.70322 0.63272 0.0
C1817 C 0.2756 0.65851 0.62779 0.0
C1818 C 0.29163 0.67557 0.62841 0.0
C1819 C 0.30103 0.71501 0.63405 0.0
C1820 C 0.29413 0.73712 0.63802 0.0
C1821 C 0.28505 0.69793 0.63146 0.0
C1822 C 0.2713 0.74231 0.63856 0.0
C1823 C 0.25532 0.72551 0.63583 0.0
H1824 H 0.84526 0.85076 0.76912 0.0
H1825 H 0.89629 0.82323 0.72644 0.0
H1826 H 0.89898 0.79003 0.75057 0.0
H1827 H 0.88424 0.76751 0.78217 0.0
H1828 H 0.82857 0.79302 0.82032 0.0
H1829 H 0.83001 0.82822 0.79973 0.0
C1830 C 0.85727 0.83765 0.76544 0.0
C1831 C 0.87097 0.83951 0.7465 0.0
C1832 C 0.85755 0.81811 0.77844 0.0
C1833 C 0.88603 0.82226 0.74136 0.0
C1834 C 0.88734 0.80323 0.75498 0.0
C1835 C 0.87255 0.78086 0.78598 0.0
C1836 C 0.85645 0.77779 0.80289 0.0
C1837 C 0.8728 0.80073 0.77329 0.0
C1838 C 0.84116 0.79505 0.80747 0.0
C1839 C 0.84199 0.81519 0.79572 0.0
H1840 H 0.67915 0.38317 0.23115 0.0
H1841 H 0.63216 0.37216 0.28472 0.0
H1842 H 0.66269 0.37306 0.31201 0.0
H1843 H 0.70341 0.37069 0.31962 0.0
H1844 H 0.75014 0.3799 0.26554 0.0
H1845 H 0.71919 0.38593 0.23934 0.0
C1846 C 0.67556 0.38173 0.2489 0.0
C1847 C 0.65353 0.37755 0.25594 0.0
C1848 C 0.69325 0.38141 0.26429 0.0
C1849 C 0.64897 0.37567 0.27893 0.0
C1850 C 0.66648 0.37582 0.29449 0.0
C1851 C 0.70666 0.37447 0.30216 0.0
C1852 C 0.72879 0.37479 0.29428 0.0
C1853 C 0.68876 0.37767 0.28723 0.0
C1854 C 0.73311 0.37958 0.27175 0.0
C1855 C 0.71546 0.38301 0.25685 0.0
H1856 H 0.13461 0.14569 0.77436 0.0
H1857 H 0.10974 0.18201 0.71729 0.0
H1858 H 0.10498 0.21558 0.74022 0.0
H1859 H 0.11331 0.23601 0.77505 0.0
H1860 H 0.14239 0.2008 0.83076 0.0
H1861 H 0.13963 0.16535 0.81031 0.0
C1862 C 0.12736 0.16074 0.76724 0.0
C1863 C 0.12221 0.16142 0.74433 0.0
C1864 C 0.12587 0.18029 0.78025 0.0
C1865 C 0.11352 0.18115 0.73501 0.0
C1866 C 0.11104 0.20037 0.74804 0.0
C1867 C 0.11872 0.22045 0.78269 0.0
C1868 C 0.12809 0.22076 0.80417 0.0
C1869 C 0.11803 0.20039 0.77043 0.0
C1870 C 0.13525 0.20074 0.81408 0.0
C1871 C 0.13371 0.18055 0.80239 0.0
H1872 H 0.32281 0.61958 0.23113 0.0
H1873 H 0.37032 0.63006 0.28431 0.0
H1874 H 0.3401 0.62857 0.31196 0.0
H1875 H 0.29941 0.63024 0.3201 0.0
H1876 H 0.25228 0.62158 0.26627 0.0
H1877 H 0.28298 0.61628 0.23969 0.0
C1878 C 0.32658 0.62083 0.24885 0.0
C1879 C 0.34863 0.62499 0.25573 0.0
C1880 C 0.3091 0.62069 0.26444 0.0
C1881 C 0.35345 0.6266 0.27867 0.0
C1882 C 0.33613 0.62607 0.29444 0.0
C1883 C 0.29603 0.62673 0.30261 0.0
C1884 C 0.27386 0.62636 0.29489 0.0
C1885 C 0.3138 0.62406 0.28741 0.0
C1886 C 0.26937 0.62195 0.27233 0.0
C1887 C 0.28686 0.61895 0.2572 0.0
H1888 H 0.85045 0.15627 0.22717 0.0
H1889 H 0.90423 0.17905 0.26913 0.0
H1890 H 0.90759 0.21336 0.24665 0.0
H1891 H 0.89177 0.2388 0.21772 0.0
H1892 H 0.83273 0.21807 0.18184 0.0
H1893 H 0.83443 0.18131 0.19927 0.0
C1894 C 0.86307 0.16865 0.23114 0.0
C1895 C 0.87723 0.16521 0.24946 0.0
C1896 C 0.86357 0.18891 0.21941 0.0
C1897 C 0.89349 0.18129 0.2547 0.0
C1898 C 0.89516 0.20099 0.24207 0.0
C1899 C 0.87942 0.22613 0.2137 0.0
C1900 C 0.86227 0.23102 0.19834 0.0
C1901 C 0.87975 0.20533 0.22483 0.0
C1902 C 0.84617 0.21461 0.19346 0.0
C1903 C 0.84712 0.19359 0.20343 0.0
H1904 H 0.26484 0.38671 0.72542 0.0
H1905 H 0.29666 0.34662 0.67465 0.0
H1906 H 0.33287 0.35109 0.69329 0.0
H1907 H 0.35441 0.36256 0.7263 0.0
H1908 H 0.32145 0.39744 0.78005 0.0
H1909 H 0.28689 0.39935 0.75804 0.0
C1910 C 0.27982 0.3792 0.71843 0.0
C1911 C 0.2783 0.36636 0.69883 0.0
C1912 C 0.30033 0.38097 0.72982 0.0
C1913 C 0.2976 0.35645 0.68986 0.0
C1914 C 0.31824 0.35906 0.70046 0.0
C1915 C 0.33984 0.37122 0.73282 0.0
C1916 C 0.34046 0.3803 0.75448 0.0
C1917 C 0.31971 0.37081 0.72074 0.0
C1918 C 0.32134 0.39074 0.76321 0.0
C1919 C 0.30156 0.39158 0.75074 0.0
H1920 H 0.14553 0.8118 0.27382 0.0
H1921 H 0.12058 0.85833 0.22464 0.0
H1922 H 0.11716 0.82782 0.1974 0.0
H1923 H 0.12472 0.78829 0.18664 0.0
H1924 H 0.15418 0.74374 0.23511 0.0
H1925 H 0.15295 0.77318 0.26348 0.0
C1926 C 0.13951 0.8154 0.25711 0.0
C1927 C 0.13379 0.83741 0.25116 0.0
C1928 C 0.13866 0.7981 0.24135 0.0
C1929 C 0.12519 0.84154 0.22965 0.0
C1930 C 0.1234 0.82413 0.21402 0.0
C1931 C 0.13066 0.78513 0.2035 0.0
C1932 C 0.13952 0.76403 0.20897 0.0
C1933 C 0.13061 0.80242 0.21952 0.0
C1934 C 0.14742 0.75998 0.23067 0.0
C1935 C 0.14666 0.77674 0.24685 0.0
H1936 H 0.70899 0.63234 0.6833 0.0
H1937 H 0.75793 0.629 0.7361 0.0
H1938 H 0.72822 0.62392 0.76385 0.0
H1939 H 0.68846 0.6246 0.77334 0.0
H1940 H 0.639 0.62917 0.72108 0.0
H1941 H 0.66864 0.62895 0.69272 0.0
C1942 C 0.713 0.63013 0.70087 0.0
C1943 C 0.73539 0.63109 0.70789 0.0
C1944 C 0.69578 0.6274 0.71671 0.0
C1945 C 0.74068 0.62832 0.73055 0.0
C1946 C 0.72375 0.62544 0.74634 0.0
C1947 C 0.68417 0.62503 0.7557 0.0
C1948 C 0.66166 0.62698 0.74927 0.0
C1949 C 0.70125 0.62549 0.73966 0.0
C1950 C 0.65623 0.62744 0.72641 0.0
C1951 C 0.67319 0.6276 0.71022 0.0
H1952 H 0.72352 0.87042 0.81079 0.0
H1953 H 0.77494 0.88985 0.85746 0.0
H1954 H 0.80224 0.89161 0.82687 0.0
H1955 H 0.81237 0.88249 0.78754 0.0
H1956 H 0.76121 0.8587 0.74267 0.0
H1957 H 0.7329 0.86345 0.77182 0.0
C1958 C 0.74064 0.87537 0.81423 0.0
C1959 C 0.74727 0.87976 0.83633 0.0
C1960 C 0.75635 0.87514 0.79688 0.0
C1961 C 0.76939 0.8865 0.84054 0.0
C1962 C 0.78506 0.88721 0.82309 0.0
C1963 C 0.79494 0.87871 0.78421 0.0
C1964 C 0.78868 0.87025 0.76319 0.0
C1965 C 0.77889 0.88077 0.80133 0.0
C1966 C 0.76622 0.86511 0.75888 0.0
C1967 C 0.7501 0.86787 0.77547 0.0
H1968 H 0.61193 0.27748 0.27243 0.0
H1969 H 0.6581 0.3243 0.30198 0.0
H1970 H 0.65571 0.30468 0.33778 0.0
H1971 H 0.64384 0.27177 0.35945 0.0
H1972 H 0.60231 0.22194 0.32827 0.0
H1973 H 0.59906 0.24509 0.29462 0.0
C1974 C 0.62121 0.28344 0.28684 0.0
C1975 C 0.6352 0.30218 0.28468 0.0
C1976 C 0.62046 0.27152 0.30714 0.0
C1977 C 0.64739 0.30973 0.3033 0.0
C1978 C 0.64598 0.29856 0.32377 0.0
C1979 C 0.63337 0.2665 0.3456 0.0
C1980 C 0.62268 0.24563 0.34653 0.0
C1981 C 0.63293 0.27917 0.32578 0.0
C1982 C 0.61004 0.23833 0.32811 0.0
C1983 C 0.6085 0.2514 0.30877 0.0
H1984 H 0.22715 0.12036 0.76012 0.0
H1985 H 0.17515 0.16046 0.78965 0.0
H1986 H 0.19327 0.15799 0.82625 0.0
H1987 H 0.22581 0.14753 0.849 0.0
H1988 H 0.2808 0.11253 0.81839 0.0
H1989 H 0.25986 0.10957 0.78321 0.0
C1990 C 0.21981 0.12833 0.77468 0.0
C1991 C 0.19985 0.14051 0.77241 0.0
C1992 C 0.23092 0.12766 0.79546 0.0
C1993 C 0.19051 0.15105 0.79119 0.0
C1994 C 0.20086 0.1496 0.81207 0.0
C1995 C 0.23281 0.13862 0.8348 0.0
C1996 C 0.25442 0.12962 0.83631 0.0
C1997 C 0.22126 0.13828 0.81433 0.0
C1998 C 0.26389 0.11902 0.81762 0.0
C1999 C 0.25203 0.11757 0.79748 0.0
H2000 H 0.36667 0.72951 0.35744 0.0
H2001 H 0.38046 0.79012 0.32092 0.0
H2002 H 0.38369 0.76885 0.28609 0.0
H2003 H 0.37854 0.73347 0.26539 0.0
H2004 H 0.36094 0.67365 0.30145 0.0
H2005 H 0.3633 0.69389 0.33704 0.0
C2006 C 0.37103 0.7379 0.34194 0.0
C2007 C 0.37365 0.76125 0.3417 0.0
C2008 C 0.37181 0.72569 0.32184 0.0
C2009 C 0.37862 0.77209 0.32145 0.0
C2010 C 0.3803 0.75997 0.30153 0.0
C2011 C 0.37557 0.72493 0.28113 0.0
C2012 C 0.36965 0.70224 0.28104 0.0
C2013 C 0.37629 0.73686 0.30141 0.0
C2014 C 0.36553 0.69119 0.30133 0.0
C2015 C 0.36688 0.70274 0.32162 0.0
H2016 H 0.7333 0.11551 0.17951 0.0
H2017 H 0.78545 0.12545 0.13073 0.0
H2018 H 0.81359 0.12541 0.16042 0.0
H2019 H 0.82234 0.12903 0.20081 0.0
H2020 H 0.76987 0.11986 0.24934 0.0
H2021 H 0.74281 0.11307 0.21934 0.0
C2022 C 0.75092 0.11688 0.17537 0.0
C2023 C 0.75731 0.12056 0.15306 0.0
C2024 C 0.76687 0.11746 0.19256 0.0
C2025 C 0.78015 0.12235 0.14778 0.0
C2026 C 0.79622 0.12267 0.16481 0.0
C2027 C 0.80508 0.12497 0.20468 0.0
C2028 C 0.79789 0.12492 0.22703 0.0
C2029 C 0.78964 0.12125 0.18732 0.0
C2030 C 0.77558 0.11987 0.23212 0.0
C2031 C 0.76016 0.11606 0.21501 0.0
H2032 H 0.38999 0.29206 0.73038 0.0
H2033 H 0.32177 0.31379 0.72066 0.0
H2034 H 0.32021 0.29406 0.68508 0.0
H2035 H 0.33727 0.26893 0.65781 0.0
H2036 H 0.40346 0.24303 0.66891 0.0
H2037 H 0.40723 0.26659 0.70249 0.0
C2038 C 0.37484 0.29249 0.72042 0.0
C2039 C 0.35601 0.30433 0.72822 0.0
C2040 C 0.3738 0.28051 0.70016 0.0
C2041 C 0.33644 0.30467 0.71517 0.0
C2042 C 0.33554 0.29347 0.69475 0.0
C2043 C 0.35251 0.26855 0.66756 0.0
C2044 C 0.37005 0.25444 0.66108 0.0
C2045 C 0.35398 0.28112 0.68726 0.0
C2046 C 0.38988 0.2541 0.67358 0.0
C2047 C 0.3919 0.26735 0.69284 0.0
H2048 H 0.18951 0.88337 0.21021 0.0
H2049 H 0.24391 0.86884 0.25521 0.0
H2050 H 0.27076 0.87267 0.22459 0.0
H2051 H 0.27809 0.87492 0.18457 0.0
H2052 H 0.22372 0.88529 0.13837 0.0
H2053 H 0.19754 0.88899 0.16977 0.0
C2054 C 0.20731 0.88157 0.21324 0.0
C2055 C 0.21492 0.87589 0.23476 0.0
C2056 C 0.22256 0.88295 0.19533 0.0
C2057 C 0.23787 0.87321 0.23868 0.0
C2058 C 0.25315 0.87536 0.22121 0.0
C2059 C 0.26057 0.87846 0.18139 0.0
C2060 C 0.25279 0.87965 0.15925 0.0
C2061 C 0.24561 0.87948 0.19938 0.0
C2062 C 0.23013 0.88446 0.15531 0.0
C2063 C 0.21513 0.88628 0.17325 0.0
H2064 H 0.6205 0.77187 0.68479 0.0
H2065 H 0.62488 0.71869 0.63626 0.0
H2066 H 0.62694 0.69103 0.66641 0.0
H2067 H 0.63249 0.68266 0.70668 0.0
H2068 H 0.62914 0.73624 0.75478 0.0
H2069 H 0.62174 0.7632 0.72479 0.0
C2070 C 0.62128 0.75416 0.68087 0.0
C2071 C 0.62257 0.74729 0.65844 0.0
C2072 C 0.62312 0.73853 0.69822 0.0
C2073 C 0.62356 0.72434 0.65344 0.0
C2074 C 0.62508 0.70856 0.67068 0.0
C2075 C 0.62989 0.70023 0.71044 0.0
C2076 C 0.63158 0.70775 0.73262 0.0
C2077 C 0.62572 0.71556 0.6931 0.0
C2078 C 0.62809 0.73036 0.73766 0.0
C2079 C 0.62382 0.74568 0.72057 0.0
H2080 H 0.85847 0.78204 0.86504 0.0
H2081 H 0.82553 0.72946 0.90166 0.0
H2082 H 0.79217 0.75281 0.90591 0.0
H2083 H 0.77024 0.78523 0.89306 0.0
H2084 H 0.80163 0.83518 0.85172 0.0
H2085 H 0.83783 0.81639 0.85585 0.0
C2086 C 0.84432 0.77617 0.87479 0.0
C2087 C 0.84442 0.7543 0.88334 0.0
C2088 C 0.82474 0.78911 0.87584 0.0
C2089 C 0.82579 0.74642 0.89525 0.0
C2090 C 0.80666 0.75965 0.89742 0.0
C2091 C 0.78517 0.79213 0.88539 0.0
C2092 C 0.78352 0.81136 0.87207 0.0
C2093 C 0.80557 0.78055 0.88683 0.0
C2094 C 0.80272 0.82024 0.86194 0.0
C2095 C 0.82333 0.8095 0.86428 0.0
H2096 H 0.85989 0.229 0.13808 0.0
H2097 H 0.82188 0.28178 0.10704 0.0
H2098 H 0.78944 0.25699 0.10383 0.0
H2099 H 0.77045 0.22215 0.11478 0.0
H2100 H 0.80697 0.17152 0.15079 0.0
H2101 H 0.84158 0.19312 0.1467 0.0
C2102 C 0.84474 0.23472 0.12987 0.0
C2103 C 0.84325 0.25695 0.1224 0.0
C2104 C 0.8258 0.22082 0.1294 0.0
C2105 C 0.82336 0.26457 0.11254 0.0
C2106 C 0.80479 0.2505 0.11095 0.0
C2107 C 0.78609 0.21586 0.12151 0.0
C2108 C 0.78636 0.19549 0.13316 0.0
C2109 C 0.80556 0.22891 0.12013 0.0
C2110 C 0.80652 0.18735 0.14196 0.0
C2111 C 0.82624 0.19966 0.13958 0.0
H2112 H 0.22232 0.31277 0.62931 0.0
H2113 H 0.275 0.36051 0.61722 0.0
H2114 H 0.30197 0.32991 0.61302 0.0
H2115 H 0.31138 0.28987 0.6186 0.0
H2116 H 0.25897 0.24325 0.63511 0.0
H2117 H 0.23101 0.273 0.63192 0.0
C2118 C 0.23965 0.31647 0.62541 0.0
C2119 C 0.24673 0.33884 0.62389 0.0
C2120 C 0.25513 0.29893 0.62413 0.0
C2121 C 0.26913 0.34342 0.61843 0.0
C2122 C 0.28459 0.32593 0.61628 0.0
C2123 C 0.29374 0.28627 0.62094 0.0
C2124 C 0.28701 0.26456 0.62692 0.0
C2125 C 0.27793 0.30368 0.61995 0.0
C2126 C 0.26431 0.25992 0.63041 0.0
C2127 C 0.24841 0.2769 0.62863 0.0
H2128 H 0.23414 0.77693 0.11329 0.0
H2129 H 0.19994 0.83057 0.14713 0.0
H2130 H 0.16474 0.8096 0.14563 0.0
H2131 H 0.14503 0.77419 0.13886 0.0
H2132 H 0.18057 0.71858 0.10989 0.0
H2133 H 0.21382 0.74202 0.10484 0.0
C2134 C 0.2188 0.7841 0.11984 0.0
C2135 C 0.21933 0.80519 0.13011 0.0
C2136 C 0.19896 0.77152 0.11981 0.0
C2137 C 0.19966 0.81433 0.13906 0.0
C2138 C 0.17963 0.80235 0.13824 0.0
C2139 C 0.15986 0.7675 0.13079 0.0
C2140 C 0.16039 0.74493 0.12432 0.0
C2141 C 0.17922 0.78069 0.12919 0.0
C2142 C 0.17985 0.73606 0.11466 0.0
C2143 C 0.19885 0.74939 0.11195 0.0
H2144 H 0.72719 0.64705 0.63671 0.0
H2145 H 0.78447 0.68454 0.61429 0.0
H2146 H 0.76152 0.71822 0.61057 0.0
H2147 H 0.72621 0.73808 0.61825 0.0
H2148 H 0.67007 0.70154 0.64467 0.0
H2149 H 0.69119 0.66645 0.64219 0.0
C2150 C 0.73435 0.66242 0.63023 0.0
C2151 C 0.75729 0.66332 0.62529 0.0
C2152 C 0.72128 0.68199 0.62928 0.0
C2153 C 0.76671 0.68348 0.61777 0.0
C2154 C 0.75366 0.70276 0.61587 0.0
C2155 C 0.7186 0.72231 0.62305 0.0
C2156 C 0.69675 0.72215 0.63156 0.0
C2157 C 0.7311 0.7024 0.62226 0.0
C2158 C 0.68695 0.70185 0.63808 0.0
C2159 C 0.699 0.68185 0.63667 0.0
H2160 H 0.18242 0.27525 0.87376 0.0
H2161 H 0.13551 0.2213 0.88318 0.0
H2162 H 0.16643 0.1943 0.8836 0.0
H2163 H 0.2065 0.1858 0.87608 0.0
H2164 H 0.25179 0.23998 0.86162 0.0
H2165 H 0.22184 0.26718 0.86779 0.0
C2166 C 0.17897 0.2576 0.8762 0.0
C2167 C 0.15674 0.25025 0.87817 0.0
C2168 C 0.19656 0.24221 0.87495 0.0
C2169 C 0.15251 0.2274 0.88176 0.0
C2170 C 0.17016 0.21194 0.88165 0.0
C2171 C 0.20968 0.2036 0.8745 0.0
C2172 C 0.23109 0.21109 0.86832 0.0
C2173 C 0.19216 0.21908 0.8774 0.0
C2174 C 0.23528 0.23404 0.86617 0.0
C2175 C 0.21823 0.24952 0.86979 0.0
H2176 H 0.31244 0.71698 0.3841 0.0
H2177 H 0.26405 0.75995 0.35223 0.0
H2178 H 0.23627 0.72999 0.35322 0.0
H2179 H 0.22661 0.6912 0.3607 0.0
H2180 H 0.27599 0.64619 0.38795 0.0
H2181 H 0.30229 0.67741 0.39206 0.0
C2182 C 0.29572 0.7197 0.3776 0.0
C2183 C 0.29016 0.74049 0.36806 0.0
C2184 C 0.28007 0.70209 0.37747 0.0
C2185 C 0.26862 0.74396 0.35947 0.0
C2186 C 0.25276 0.72689 0.3601 0.0
C2187 C 0.24316 0.68812 0.36743 0.0
C2188 C 0.24947 0.66631 0.37355 0.0
C2189 C 0.25845 0.70581 0.36864 0.0
C2190 C 0.27071 0.66282 0.38303 0.0
C2191 C 0.28581 0.68063 0.3852 0.0
H2192 H 0.7712 0.31161 0.37357 0.0
H2193 H 0.71817 0.36046 0.37122 0.0
H2194 H 0.69027 0.33045 0.37065 0.0
H2195 H 0.68133 0.2902 0.36728 0.0
H2196 H 0.73444 0.24158 0.36973 0.0
H2197 H 0.76213 0.27157 0.37387 0.0
C2198 C 0.7535 0.31564 0.37344 0.0
C2199 C 0.74668 0.33811 0.37247 0.0
C2200 C 0.73769 0.29836 0.37282 0.0
C2201 C 0.72376 0.34325 0.37228 0.0
C2202 C 0.70785 0.32611 0.37169 0.0
C2203 C 0.69897 0.28633 0.36887 0.0
C2204 C 0.70608 0.26399 0.36798 0.0
C2205 C 0.71466 0.30362 0.37136 0.0
C2206 C 0.72882 0.25882 0.3703 0.0
C2207 C 0.74456 0.2759 0.37266 0.0
loop_
_geom_bond_atom_site_label_1
_geom_bond_atom_site_label_2
_geom_bond_distance
_geom_bond_site_symmetry_2
_ccdc_geom_bond_type
Mg0 O1 2.028 . S
Mg0 O7 1.986 . S
Mg0 O9 2.114 . S
Mg0 O10 2.251 . S
Mg0 O13 2.010 . S
O1 Mg0 2.028 . S
O1 C4 1.250 . S
O2 Mg3 2.028 . S
O2 C4 1.248 . S
Mg3 O2 2.028 . S
Mg3 O8 2.032 . S
Mg3 O10 2.079 . S
C4 O1 1.250 . S
C4 O2 1.248 . S
C5 O6 1.264 . S
C5 O13 1.249 . S
O6 C5 1.264 . S
O7 Mg0 1.986 . S
O7 C11 1.246 . S
O8 Mg3 2.032 . S
O8 C11 1.259 . S
O9 Mg0 2.114 . S
O9 C12 1.252 . S
O10 Mg0 2.251 . S
O10 Mg3 2.079 . S
O10 C12 1.273 . S
C11 O7 1.246 . S
C11 O8 1.259 . S
C12 O9 1.252 . S
C12 O10 1.273 . S
O13 Mg0 2.010 . S
O13 C5 1.249 . S
Mg14 O15 2.028 . S
Mg14 O21 1.986 . S
Mg14 O23 2.114 . S
Mg14 O24 2.251 . S
Mg14 O27 2.010 . S
O15 Mg14 2.028 . S
O15 C18 1.250 . S
O16 Mg17 2.028 . S
O16 C18 1.248 . S
Mg17 O16 2.028 . S
Mg17 O22 2.032 . S
Mg17 O24 2.079 . S
C18 O15 1.250 . S
C18 O16 1.248 . S
C19 O20 1.264 . S
C19 O27 1.249 . S
O20 C19 1.264 . S
O21 Mg14 1.986 . S
O21 C25 1.246 . S
O22 Mg17 2.032 . S
O22 C25 1.259 . S
O23 Mg14 2.114 . S
O23 C26 1.252 . S
O24 Mg14 2.251 . S
O24 Mg17 2.079 . S
O24 C26 1.273 . S
C25 O21 1.246 . S
C25 O22 1.259 . S
C26 O23 1.252 . S
C26 O24 1.273 . S
O27 Mg14 2.010 . S
O27 C19 1.249 . S
Mg28 O29 2.028 . S
Mg28 O35 1.986 . S
Mg28 O37 2.114 . S
Mg28 O38 2.251 . S
Mg28 O41 2.010 . S
O29 Mg28 2.028 . S
O29 C32 1.250 . S
O30 Mg31 2.028 . S
O30 C32 1.248 . S
Mg31 O30 2.028 . S
Mg31 O36 2.032 . S
Mg31 O38 2.079 . S
C32 O29 1.250 . S
C32 O30 1.248 . S
C33 O34 1.264 . S
C33 O41 1.249 . S
O34 C33 1.264 . S
O35 Mg28 1.986 . S
O35 C39 1.246 . S
O36 Mg31 2.032 . S
O36 C39 1.259 . S
O37 Mg28 2.114 . S
O37 C40 1.252 . S
O38 Mg28 2.251 . S
O38 Mg31 2.079 . S
O38 C40 1.273 . S
C39 O35 1.246 . S
C39 O36 1.259 . S
C40 O37 1.252 . S
C40 O38 1.273 . S
O41 Mg28 2.010 . S
O41 C33 1.249 . S
Mg42 O43 2.028 . S
Mg42 O49 1.986 . S
Mg42 O51 2.114 . S
Mg42 O52 2.251 . S
Mg42 O55 2.010 . S
O43 Mg42 2.028 . S
O43 C46 1.250 . S
O44 Mg45 2.028 . S
O44 C46 1.248 . S
Mg45 O44 2.028 . S
Mg45 O50 2.032 . S
Mg45 O52 2.079 . S
C46 O43 1.250 . S
C46 O44 1.248 . S
C47 O48 1.264 . S
C47 O55 1.249 . S
O48 C47 1.264 . S
O49 Mg42 1.986 . S
O49 C53 1.246 . S
O50 Mg45 2.032 . S
O50 C53 1.259 . S
O51 Mg42 2.114 . S
O51 C54 1.252 . S
O52 Mg42 2.251 . S
O52 Mg45 2.079 . S
O52 C54 1.273 . S
C53 O49 1.246 . S
C53 O50 1.259 . S
C54 O51 1.252 . S
C54 O52 1.273 . S
O55 Mg42 2.010 . S
O55 C47 1.249 . S
Mg56 O57 2.028 . S
Mg56 O63 1.986 . S
Mg56 O65 2.114 . S
Mg56 O66 2.251 . S
Mg56 O69 2.010 . S
O57 Mg56 2.028 . S
O57 C60 1.250 . S
O58 Mg59 2.028 . S
O58 C60 1.248 . S
Mg59 O58 2.028 . S
Mg59 O64 2.032 . S
Mg59 O66 2.079 . S
C60 O57 1.250 . S
C60 O58 1.248 . S
C61 O62 1.264 . S
C61 O69 1.249 . S
O62 C61 1.264 . S
O63 Mg56 1.986 . S
O63 C67 1.246 . S
O64 Mg59 2.032 . S
O64 C67 1.259 . S
O65 Mg56 2.114 . S
O65 C68 1.252 . S
O66 Mg56 2.251 . S
O66 Mg59 2.079 . S
O66 C68 1.273 . S
C67 O63 1.246 . S
C67 O64 1.259 . S
C68 O65 1.252 . S
C68 O66 1.273 . S
O69 Mg56 2.010 . S
O69 C61 1.249 . S
Mg70 O71 2.028 . S
Mg70 O77 1.986 . S
Mg70 O79 2.114 . S
Mg70 O80 2.251 . S
Mg70 O83 2.010 . S
O71 Mg70 2.028 . S
O71 C74 1.250 . S
O72 Mg73 2.028 . S
O72 C74 1.248 . S
Mg73 O72 2.028 . S
Mg73 O78 2.032 . S
Mg73 O80 2.079 . S
C74 O71 1.250 . S
C74 O72 1.248 . S
C75 O76 1.264 . S
C75 O83 1.249 . S
O76 C75 1.264 . S
O77 Mg70 1.986 . S
O77 C81 1.246 . S
O78 Mg73 2.032 . S
O78 C81 1.259 . S
O79 Mg70 2.114 . S
O79 C82 1.252 . S
O80 Mg70 2.251 . S
O80 Mg73 2.079 . S
O80 C82 1.273 . S
C81 O77 1.246 . S
C81 O78 1.259 . S
C82 O79 1.252 . S
C82 O80 1.273 . S
O83 Mg70 2.010 . S
O83 C75 1.249 . S
Mg84 O85 2.028 . S
Mg84 O91 1.986 . S
Mg84 O93 2.114 . S
Mg84 O94 2.251 . S
Mg84 O97 2.010 . S
O85 Mg84 2.028 . S
O85 C88 1.250 . S
O86 Mg87 2.028 . S
O86 C88 1.248 . S
Mg87 O86 2.028 . S
Mg87 O92 2.032 . S
Mg87 O94 2.079 . S
C88 O85 1.250 . S
C88 O86 1.248 . S
C89 O90 1.264 . S
C89 O97 1.249 . S
O90 C89 1.264 . S
O91 Mg84 1.986 . S
O91 C95 1.246 . S
O92 Mg87 2.032 . S
O92 C95 1.259 . S
O93 Mg84 2.114 . S
O93 C96 1.252 . S
O94 Mg84 2.251 . S
O94 Mg87 2.079 . S
O94 C96 1.273 . S
C95 O91 1.246 . S
C95 O92 1.259 . S
C96 O93 1.252 . S
C96 O94 1.273 . S
O97 Mg84 2.010 . S
O97 C89 1.249 . S
Mg98 O99 2.028 . S
Mg98 O105 1.986 . S
Mg98 O107 2.114 . S
Mg98 O108 2.251 . S
Mg98 O111 2.010 . S
O99 Mg98 2.028 . S
O99 C102 1.250 . S
O100 Mg101 2.028 . S
O100 C102 1.248 . S
Mg101 O100 2.028 . S
Mg101 O106 2.032 . S
Mg101 O108 2.079 . S
C102 O99 1.250 . S
C102 O100 1.248 . S
C103 O104 1.264 . S
C103 O111 1.249 . S
O104 C103 1.264 . S
O105 Mg98 1.986 . S
O105 C109 1.246 . S
O106 Mg101 2.032 . S
O106 C109 1.259 . S
O107 Mg98 2.114 . S
O107 C110 1.252 . S
O108 Mg98 2.251 . S
O108 Mg101 2.079 . S
O108 C110 1.273 . S
C109 O105 1.246 . S
C109 O106 1.259 . S
C110 O107 1.252 . S
C110 O108 1.273 . S
O111 Mg98 2.010 . S
O111 C103 1.249 . S
Mg112 O113 2.028 . S
Mg112 O119 1.986 . S
Mg112 O121 2.114 . S
Mg112 O122 2.251 . S
Mg112 O125 2.010 . S
O113 Mg112 2.028 . S
O113 C116 1.250 . S
O114 Mg115 2.028 . S
O114 C116 1.248 . S
Mg115 O114 2.028 . S
Mg115 O120 2.032 . S
Mg115 O122 2.079 . S
C116 O113 1.250 . S
C116 O114 1.248 . S
C117 O118 1.264 . S
C117 O125 1.249 . S
O118 C117 1.264 . S
O119 Mg112 1.986 . S
O119 C123 1.246 . S
O120 Mg115 2.032 . S
O120 C123 1.259 . S
O121 Mg112 2.114 . S
O121 C124 1.252 . S
O122 Mg112 2.251 . S
O122 Mg115 2.079 . S
O122 C124 1.273 . S
C123 O119 1.246 . S
C123 O120 1.259 . S
C124 O121 1.252 . S
C124 O122 1.273 . S
O125 Mg112 2.010 . S
O125 C117 1.249 . S
Mg126 O127 2.028 . S
Mg126 O133 1.986 . S
Mg126 O135 2.114 . S
Mg126 O136 2.251 . S
Mg126 O139 2.010 . S
O127 Mg126 2.028 . S
O127 C130 1.250 . S
O128 Mg129 2.028 . S
O128 C130 1.248 . S
Mg129 O128 2.028 . S
Mg129 O134 2.032 . S
Mg129 O136 2.079 . S
C130 O127 1.250 . S
C130 O128 1.248 . S
C131 O132 1.264 . S
C131 O139 1.249 . S
O132 C131 1.264 . S
O133 Mg126 1.986 . S
O133 C137 1.246 . S
O134 Mg129 2.032 . S
O134 C137 1.259 . S
O135 Mg126 2.114 . S
O135 C138 1.252 . S
O136 Mg126 2.251 . S
O136 Mg129 2.079 . S
O136 C138 1.273 . S
C137 O133 1.246 . S
C137 O134 1.259 . S
C138 O135 1.252 . S
C138 O136 1.273 . S
O139 Mg126 2.010 . S
O139 C131 1.249 . S
Mg140 O141 2.028 . S
Mg140 O147 1.986 . S
Mg140 O149 2.114 . S
Mg140 O150 2.251 . S
Mg140 O153 2.010 . S
O141 Mg140 2.028 . S
O141 C144 1.250 . S
O142 Mg143 2.028 . S
O142 C144 1.248 . S
Mg143 O142 2.028 . S
Mg143 O148 2.032 . S
Mg143 O150 2.079 . S
C144 O141 1.250 . S
C144 O142 1.248 . S
C145 O146 1.264 . S
C145 O153 1.249 . S
O146 C145 1.264 . S
O147 Mg140 1.986 . S
O147 C151 1.246 . S
O148 Mg143 2.032 . S
O148 C151 1.259 . S
O149 Mg140 2.114 . S
O149 C152 1.252 . S
O150 Mg140 2.251 . S
O150 Mg143 2.079 . S
O150 C152 1.273 . S
C151 O147 1.246 . S
C151 O148 1.259 . S
C152 O149 1.252 . S
C152 O150 1.273 . S
O153 Mg140 2.010 . S
O153 C145 1.249 . S
Mg154 O155 2.028 . S
Mg154 O161 1.986 . S
Mg154 O163 2.114 . S
Mg154 O164 2.251 . S
Mg154 O167 2.010 . S
O155 Mg154 2.028 . S
O155 C158 1.250 . S
O156 Mg157 2.028 . S
O156 C158 1.248 . S
Mg157 O156 2.028 . S
Mg157 O162 2.032 . S
Mg157 O164 2.079 . S
C158 O155 1.250 . S
C158 O156 1.248 . S
C159 O160 1.264 . S
C159 O167 1.249 . S
O160 C159 1.264 . S
O161 Mg154 1.986 . S
O161 C165 1.246 . S
O162 Mg157 2.032 . S
O162 C165 1.259 . S
O163 Mg154 2.114 . S
O163 C166 1.252 . S
O164 Mg154 2.251 . S
O164 Mg157 2.079 . S
O164 C166 1.273 . S
C165 O161 1.246 . S
C165 O162 1.259 . S
C166 O163 1.252 . S
C166 O164 1.273 . S
O167 Mg154 2.010 . S
O167 C159 1.249 . S
Mg168 O169 2.028 . S
Mg168 O175 1.986 . S
Mg168 O177 2.114 . S
Mg168 O178 2.251 . S
Mg168 O181 2.010 . S
O169 Mg168 2.028 . S
O169 C172 1.250 . S
O170 Mg171 2.028 . S
O170 C172 1.248 . S
Mg171 O170 2.028 . S
Mg171 O176 2.032 . S
Mg171 O178 2.079 . S
C172 O169 1.250 . S
C172 O170 1.248 . S
C173 O174 1.264 . S
C173 O181 1.249 . S
O174 C173 1.264 . S
O175 Mg168 1.986 . S
O175 C179 1.246 . S
O176 Mg171 2.032 . S
O176 C179 1.259 . S
O177 Mg168 2.114 . S
O177 C180 1.252 . S
O178 Mg168 2.251 . S
O178 Mg171 2.079 . S
O178 C180 1.273 . S
C179 O175 1.246 . S
C179 O176 1.259 . S
C180 O177 1.252 . S
C180 O178 1.273 . S
O181 Mg168 2.010 . S
O181 C173 1.249 . S
Mg182 O183 2.028 . S
Mg182 O189 1.986 . S
Mg182 O191 2.114 . S
Mg182 O192 2.251 . S
Mg182 O195 2.010 . S
O183 Mg182 2.028 . S
O183 C186 1.250 . S
O184 Mg185 2.028 . S
O184 C186 1.248 . S
Mg185 O184 2.028 . S
Mg185 O190 2.032 . S
Mg185 O192 2.079 . S
C186 O183 1.250 . S
C186 O184 1.248 . S
C187 O188 1.264 . S
C187 O195 1.249 . S
O188 C187 1.264 . S
O189 Mg182 1.986 . S
O189 C193 1.246 . S
O190 Mg185 2.032 . S
O190 C193 1.259 . S
O191 Mg182 2.114 . S
O191 C194 1.252 . S
O192 Mg182 2.251 . S
O192 Mg185 2.079 . S
O192 C194 1.273 . S
C193 O189 1.246 . S
C193 O190 1.259 . S
C194 O191 1.252 . S
C194 O192 1.273 . S
O195 Mg182 2.010 . S
O195 C187 1.249 . S
Mg196 O197 2.028 . S
Mg196 O203 1.986 . S
Mg196 O205 2.114 . S
Mg196 O206 2.251 . S
Mg196 O209 2.010 . S
O197 Mg196 2.028 . S
O197 C200 1.250 . S
O198 Mg199 2.028 . S
O198 C200 1.248 . S
Mg199 O198 2.028 . S
Mg199 O204 2.032 . S
Mg199 O206 2.079 . S
C200 O197 1.250 . S
C200 O198 1.248 . S
C201 O202 1.264 . S
C201 O209 1.249 . S
O202 C201 1.264 . S
O203 Mg196 1.986 . S
O203 C207 1.246 . S
O204 Mg199 2.032 . S
O204 C207 1.259 . S
O205 Mg196 2.114 . S
O205 C208 1.252 . S
O206 Mg196 2.251 . S
O206 Mg199 2.079 . S
O206 C208 1.273 . S
C207 O203 1.246 . S
C207 O204 1.259 . S
C208 O205 1.252 . S
C208 O206 1.273 . S
O209 Mg196 2.010 . S
O209 C201 1.249 . S
Mg210 O211 2.028 . S
Mg210 O217 1.986 . S
Mg210 O219 2.114 . S
Mg210 O220 2.251 . S
Mg210 O223 2.010 . S
O211 Mg210 2.028 . S
O211 C214 1.250 . S
O212 Mg213 2.028 . S
O212 C214 1.248 . S
Mg213 O212 2.028 . S
Mg213 O218 2.032 . S
Mg213 O220 2.079 . S
C214 O211 1.250 . S
C214 O212 1.248 . S
C215 O216 1.264 . S
C215 O223 1.249 . S
O216 C215 1.264 . S
O217 Mg210 1.986 . S
O217 C221 1.246 . S
O218 Mg213 2.032 . S
O218 C221 1.259 . S
O219 Mg210 2.114 . S
O219 C222 1.252 . S
O220 Mg210 2.251 . S
O220 Mg213 2.079 . S
O220 C222 1.273 . S
C221 O217 1.246 . S
C221 O218 1.259 . S
C222 O219 1.252 . S
C222 O220 1.273 . S
O223 Mg210 2.010 . S
O223 C215 1.249 . S
Mg224 O225 2.028 . S
Mg224 O231 1.986 . S
Mg224 O233 2.114 . S
Mg224 O234 2.251 . S
Mg224 O237 2.010 . S
O225 Mg224 2.028 . S
O225 C228 1.250 . S
O226 Mg227 2.028 . S
O226 C228 1.248 . S
Mg227 O226 2.028 . S
Mg227 O232 2.032 . S
Mg227 O234 2.079 . S
C228 O225 1.250 . S
C228 O226 1.248 . S
C229 O230 1.264 . S
C229 O237 1.249 . S
O230 C229 1.264 . S
O231 Mg224 1.986 . S
O231 C235 1.246 . S
O232 Mg227 2.032 . S
O232 C235 1.259 . S
O233 Mg224 2.114 . S
O233 C236 1.252 . S
O234 Mg224 2.251 . S
O234 Mg227 2.079 . S
O234 C236 1.273 . S
C235 O231 1.246 . S
C235 O232 1.259 . S
C236 O233 1.252 . S
C236 O234 1.273 . S
O237 Mg224 2.010 . S
O237 C229 1.249 . S
Mg238 O239 2.028 . S
Mg238 O245 1.986 . S
Mg238 O247 2.114 . S
Mg238 O248 2.251 . S
Mg238 O251 2.010 . S
O239 Mg238 2.028 . S
O239 C242 1.250 . S
O240 Mg241 2.028 . S
O240 C242 1.248 . S
Mg241 O240 2.028 . S
Mg241 O246 2.032 . S
Mg241 O248 2.079 . S
C242 O239 1.250 . S
C242 O240 1.248 . S
C243 O244 1.264 . S
C243 O251 1.249 . S
O244 C243 1.264 . S
O245 Mg238 1.986 . S
O245 C249 1.246 . S
O246 Mg241 2.032 . S
O246 C249 1.259 . S
O247 Mg238 2.114 . S
O247 C250 1.252 . S
O248 Mg238 2.251 . S
O248 Mg241 2.079 . S
O248 C250 1.273 . S
C249 O245 1.246 . S
C249 O246 1.259 . S
C250 O247 1.252 . S
C250 O248 1.273 . S
O251 Mg238 2.010 . S
O251 C243 1.249 . S
Mg252 O253 2.028 . S
Mg252 O259 1.986 . S
Mg252 O261 2.114 . S
Mg252 O262 2.251 . S
Mg252 O265 2.010 . S
O253 Mg252 2.028 . S
O253 C256 1.250 . S
O254 Mg255 2.028 . S
O254 C256 1.248 . S
Mg255 O254 2.028 . S
Mg255 O260 2.032 . S
Mg255 O262 2.079 . S
C256 O253 1.250 . S
C256 O254 1.248 . S
C257 O258 1.264 . S
C257 O265 1.249 . S
O258 C257 1.264 . S
O259 Mg252 1.986 . S
O259 C263 1.246 . S
O260 Mg255 2.032 . S
O260 C263 1.259 . S
O261 Mg252 2.114 . S
O261 C264 1.252 . S
O262 Mg252 2.251 . S
O262 Mg255 2.079 . S
O262 C264 1.273 . S
C263 O259 1.246 . S
C263 O260 1.259 . S
C264 O261 1.252 . S
C264 O262 1.273 . S
O265 Mg252 2.010 . S
O265 C257 1.249 . S
Mg266 O267 2.028 . S
Mg266 O273 1.986 . S
Mg266 O275 2.114 . S
Mg266 O276 2.251 . S
Mg266 O279 2.010 . S
O267 Mg266 2.028 . S
O267 C270 1.250 . S
O268 Mg269 2.028 . S
O268 C270 1.248 . S
Mg269 O268 2.028 . S
Mg269 O274 2.032 . S
Mg269 O276 2.079 . S
C270 O267 1.250 . S
C270 O268 1.248 . S
C271 O272 1.264 . S
C271 O279 1.249 . S
O272 C271 1.264 . S
O273 Mg266 1.986 . S
O273 C277 1.246 . S
O274 Mg269 2.032 . S
O274 C277 1.259 . S
O275 Mg266 2.114 . S
O275 C278 1.252 . S
O276 Mg266 2.251 . S
O276 Mg269 2.079 . S
O276 C278 1.273 . S
C277 O273 1.246 . S
C277 O274 1.259 . S
C278 O275 1.252 . S
C278 O276 1.273 . S
O279 Mg266 2.010 . S
O279 C271 1.249 . S
Mg280 O281 2.028 . S
Mg280 O287 1.986 . S
Mg280 O289 2.114 . S
Mg280 O290 2.251 . S
Mg280 O293 2.010 . S
O281 Mg280 2.028 . S
O281 C284 1.250 . S
O282 Mg283 2.028 . S
O282 C284 1.248 . S
Mg283 O282 2.028 . S
Mg283 O288 2.032 . S
Mg283 O290 2.079 . S
C284 O281 1.250 . S
C284 O282 1.248 . S
C285 O286 1.264 . S
C285 O293 1.249 . S
O286 C285 1.264 . S
O287 Mg280 1.986 . S
O287 C291 1.246 . S
O288 Mg283 2.032 . S
O288 C291 1.259 . S
O289 Mg280 2.114 . S
O289 C292 1.252 . S
O290 Mg280 2.251 . S
O290 Mg283 2.079 . S
O290 C292 1.273 . S
C291 O287 1.246 . S
C291 O288 1.259 . S
C292 O289 1.252 . S
C292 O290 1.273 . S
O293 Mg280 2.010 . S
O293 C285 1.249 . S
Mg294 O295 2.028 . S
Mg294 O301 1.986 . S
Mg294 O303 2.114 . S
Mg294 O304 2.251 . S
Mg294 O307 2.010 . S
O295 Mg294 2.028 . S
O295 C298 1.250 . S
O296 Mg297 2.028 . S
O296 C298 1.248 . S
Mg297 O296 2.028 . S
Mg297 O302 2.032 . S
Mg297 O304 2.079 . S
C298 O295 1.250 . S
C298 O296 1.248 . S
C299 O300 1.264 . S
C299 O307 1.249 . S
O300 C299 1.264 . S
O301 Mg294 1.986 . S
O301 C305 1.246 . S
O302 Mg297 2.032 . S
O302 C305 1.259 . S
O303 Mg294 2.114 . S
O303 C306 1.252 . S
O304 Mg294 2.251 . S
O304 Mg297 2.079 . S
O304 C306 1.273 . S
C305 O301 1.246 . S
C305 O302 1.259 . S
C306 O303 1.252 . S
C306 O304 1.273 . S
O307 Mg294 2.010 . S
O307 C299 1.249 . S
Mg308 O309 2.028 . S
Mg308 O315 1.986 . S
Mg308 O317 2.114 . S
Mg308 O318 2.251 . S
Mg308 O321 2.010 . S
O309 Mg308 2.028 . S
O309 C312 1.250 . S
O310 Mg311 2.028 . S
O310 C312 1.248 . S
Mg311 O310 2.028 . S
Mg311 O316 2.032 . S
Mg311 O318 2.079 . S
C312 O309 1.250 . S
C312 O310 1.248 . S
C313 O314 1.264 . S
C313 O321 1.249 . S
O314 C313 1.264 . S
O315 Mg308 1.986 . S
O315 C319 1.246 . S
O316 Mg311 2.032 . S
O316 C319 1.259 . S
O317 Mg308 2.114 . S
O317 C320 1.252 . S
O318 Mg308 2.251 . S
O318 Mg311 2.079 . S
O318 C320 1.273 . S
C319 O315 1.246 . S
C319 O316 1.259 . S
C320 O317 1.252 . S
C320 O318 1.273 . S
O321 Mg308 2.010 . S
O321 C313 1.249 . S
Mg322 O323 2.028 . S
Mg322 O329 1.986 . S
Mg322 O331 2.114 . S
Mg322 O332 2.251 . S
Mg322 O335 2.010 . S
O323 Mg322 2.028 . S
O323 C326 1.250 . S
O324 Mg325 2.028 . S
O324 C326 1.248 . S
Mg325 O324 2.028 . S
Mg325 O330 2.032 . S
Mg325 O332 2.079 . S
C326 O323 1.250 . S
C326 O324 1.248 . S
C327 O328 1.264 . S
C327 O335 1.249 . S
O328 C327 1.264 . S
O329 Mg322 1.986 . S
O329 C333 1.246 . S
O330 Mg325 2.032 . S
O330 C333 1.259 . S
O331 Mg322 2.114 . S
O331 C334 1.252 . S
O332 Mg322 2.251 . S
O332 Mg325 2.079 . S
O332 C334 1.273 . S
C333 O329 1.246 . S
C333 O330 1.259 . S
C334 O331 1.252 . S
C334 O332 1.273 . S
O335 Mg322 2.010 . S
O335 C327 1.249 . S
Mg336 O337 2.028 . S
Mg336 O343 1.986 . S
Mg336 O345 2.114 . S
Mg336 O346 2.251 . S
Mg336 O349 2.010 . S
O337 Mg336 2.028 . S
O337 C340 1.250 . S
O338 Mg339 2.028 . S
O338 C340 1.248 . S
Mg339 O338 2.028 . S
Mg339 O344 2.032 . S
Mg339 O346 2.079 . S
C340 O337 1.250 . S
C340 O338 1.248 . S
C341 O342 1.264 . S
C341 O349 1.249 . S
O342 C341 1.264 . S
O343 Mg336 1.986 . S
O343 C347 1.246 . S
O344 Mg339 2.032 . S
O344 C347 1.259 . S
O345 Mg336 2.114 . S
O345 C348 1.252 . S
O346 Mg336 2.251 . S
O346 Mg339 2.079 . S
O346 C348 1.273 . S
C347 O343 1.246 . S
C347 O344 1.259 . S
C348 O345 1.252 . S
C348 O346 1.273 . S
O349 Mg336 2.010 . S
O349 C341 1.249 . S
Mg350 O351 2.028 . S
Mg350 O357 1.986 . S
Mg350 O359 2.114 . S
Mg350 O360 2.251 . S
Mg350 O363 2.010 . S
O351 Mg350 2.028 . S
O351 C354 1.250 . S
O352 Mg353 2.028 . S
O352 C354 1.248 . S
Mg353 O352 2.028 . S
Mg353 O358 2.032 . S
Mg353 O360 2.079 . S
C354 O351 1.250 . S
C354 O352 1.248 . S
C355 O356 1.264 . S
C355 O363 1.249 . S
O356 C355 1.264 . S
O357 Mg350 1.986 . S
O357 C361 1.246 . S
O358 Mg353 2.032 . S
O358 C361 1.259 . S
O359 Mg350 2.114 . S
O359 C362 1.252 . S
O360 Mg350 2.251 . S
O360 Mg353 2.079 . S
O360 C362 1.273 . S
C361 O357 1.246 . S
C361 O358 1.259 . S
C362 O359 1.252 . S
C362 O360 1.273 . S
O363 Mg350 2.010 . S
O363 C355 1.249 . S
Mg364 O365 2.028 . S
Mg364 O371 1.986 . S
Mg364 O373 2.114 . S
Mg364 O374 2.251 . S
Mg364 O377 2.010 . S
O365 Mg364 2.028 . S
O365 C368 1.250 . S
O366 Mg367 2.028 . S
O366 C368 1.248 . S
Mg367 O366 2.028 . S
Mg367 O372 2.032 . S
Mg367 O374 2.079 . S
C368 O365 1.250 . S
C368 O366 1.248 . S
C369 O370 1.264 . S
C369 O377 1.249 . S
O370 C369 1.264 . S
O371 Mg364 1.986 . S
O371 C375 1.246 . S
O372 Mg367 2.032 . S
O372 C375 1.259 . S
O373 Mg364 2.114 . S
O373 C376 1.252 . S
O374 Mg364 2.251 . S
O374 Mg367 2.079 . S
O374 C376 1.273 . S
C375 O371 1.246 . S
C375 O372 1.259 . S
C376 O373 1.252 . S
C376 O374 1.273 . S
O377 Mg364 2.010 . S
O377 C369 1.249 . S
Mg378 O379 2.028 . S
Mg378 O385 1.986 . S
Mg378 O387 2.114 . S
Mg378 O388 2.251 . S
Mg378 O391 2.010 . S
O379 Mg378 2.028 . S
O379 C382 1.250 . S
O380 Mg381 2.028 . S
O380 C382 1.248 . S
Mg381 O380 2.028 . S
Mg381 O386 2.032 . S
Mg381 O388 2.079 . S
C382 O379 1.250 . S
C382 O380 1.248 . S
C383 O384 1.264 . S
C383 O391 1.249 . S
O384 C383 1.264 . S
O385 Mg378 1.986 . S
O385 C389 1.246 . S
O386 Mg381 2.032 . S
O386 C389 1.259 . S
O387 Mg378 2.114 . S
O387 C390 1.252 . S
O388 Mg378 2.251 . S
O388 Mg381 2.079 . S
O388 C390 1.273 . S
C389 O385 1.246 . S
C389 O386 1.259 . S
C390 O387 1.252 . S
C390 O388 1.273 . S
O391 Mg378 2.010 . S
O391 C383 1.249 . S
Mg392 O393 2.028 . S
Mg392 O399 1.986 . S
Mg392 O401 2.114 . S
Mg392 O402 2.251 . S
Mg392 O405 2.010 . S
O393 Mg392 2.028 . S
O393 C396 1.250 . S
O394 Mg395 2.028 . S
O394 C396 1.248 . S
Mg395 O394 2.028 . S
Mg395 O400 2.032 . S
Mg395 O402 2.079 . S
C396 O393 1.250 . S
C396 O394 1.248 . S
C397 O398 1.264 . S
C397 O405 1.249 . S
O398 C397 1.264 . S
O399 Mg392 1.986 . S
O399 C403 1.246 . S
O400 Mg395 2.032 . S
O400 C403 1.259 . S
O401 Mg392 2.114 . S
O401 C404 1.252 . S
O402 Mg392 2.251 . S
O402 Mg395 2.079 . S
O402 C404 1.273 . S
C403 O399 1.246 . S
C403 O400 1.259 . S
C404 O401 1.252 . S
C404 O402 1.273 . S
O405 Mg392 2.010 . S
O405 C397 1.249 . S
Mg406 O407 2.028 . S
Mg406 O413 1.986 . S
Mg406 O415 2.114 . S
Mg406 O416 2.251 . S
Mg406 O419 2.010 . S
O407 Mg406 2.028 . S
O407 C410 1.250 . S
O408 Mg409 2.028 . S
O408 C410 1.248 . S
Mg409 O408 2.028 . S
Mg409 O414 2.032 . S
Mg409 O416 2.079 . S
C410 O407 1.250 . S
C410 O408 1.248 . S
C411 O412 1.264 . S
C411 O419 1.249 . S
O412 C411 1.264 . S
O413 Mg406 1.986 . S
O413 C417 1.246 . S
O414 Mg409 2.032 . S
O414 C417 1.259 . S
O415 Mg406 2.114 . S
O415 C418 1.252 . S
O416 Mg406 2.251 . S
O416 Mg409 2.079 . S
O416 C418 1.273 . S
C417 O413 1.246 . S
C417 O414 1.259 . S
C418 O415 1.252 . S
C418 O416 1.273 . S
O419 Mg406 2.010 . S
O419 C411 1.249 . S
Mg420 O421 2.028 . S
Mg420 O427 1.986 . S
Mg420 O429 2.114 . S
Mg420 O430 2.251 . S
Mg420 O433 2.010 . S
O421 Mg420 2.028 . S
O421 C424 1.250 . S
O422 Mg423 2.028 . S
O422 C424 1.248 . S
Mg423 O422 2.028 . S
Mg423 O428 2.032 . S
Mg423 O430 2.079 . S
C424 O421 1.250 . S
C424 O422 1.248 . S
C425 O426 1.264 . S
C425 O433 1.249 . S
O426 C425 1.264 . S
O427 Mg420 1.986 . S
O427 C431 1.246 . S
O428 Mg423 2.032 . S
O428 C431 1.259 . S
O429 Mg420 2.114 . S
O429 C432 1.252 . S
O430 Mg420 2.251 . S
O430 Mg423 2.079 . S
O430 C432 1.273 . S
C431 O427 1.246 . S
C431 O428 1.259 . S
C432 O429 1.252 . S
C432 O430 1.273 . S
O433 Mg420 2.010 . S
O433 C425 1.249 . S
Mg434 O435 2.028 . S
Mg434 O441 1.986 . S
Mg434 O443 2.114 . S
Mg434 O444 2.251 . S
Mg434 O447 2.010 . S
O435 Mg434 2.028 . S
O435 C438 1.250 . S
O436 Mg437 2.028 . S
O436 C438 1.248 . S
Mg437 O436 2.028 . S
Mg437 O442 2.032 . S
Mg437 O444 2.079 . S
C438 O435 1.250 . S
C438 O436 1.248 . S
C439 O440 1.264 . S
C439 O447 1.249 . S
O440 C439 1.264 . S
O441 Mg434 1.986 . S
O441 C445 1.246 . S
O442 Mg437 2.032 . S
O442 C445 1.259 . S
O443 Mg434 2.114 . S
O443 C446 1.252 . S
O444 Mg434 2.251 . S
O444 Mg437 2.079 . S
O444 C446 1.273 . S
C445 O441 1.246 . S
C445 O442 1.259 . S
C446 O443 1.252 . S
C446 O444 1.273 . S
O447 Mg434 2.010 . S
O447 C439 1.249 . S
Mg448 O449 2.028 . S
Mg448 O455 1.986 . S
Mg448 O457 2.114 . S
Mg448 O458 2.251 . S
Mg448 O461 2.010 . S
O449 Mg448 2.028 . S
O449 C452 1.250 . S
O450 Mg451 2.028 . S
O450 C452 1.248 . S
Mg451 O450 2.028 . S
Mg451 O456 2.032 . S
Mg451 O458 2.079 . S
C452 O449 1.250 . S
C452 O450 1.248 . S
C453 O454 1.264 . S
C453 O461 1.249 . S
O454 C453 1.264 . S
O455 Mg448 1.986 . S
O455 C459 1.246 . S
O456 Mg451 2.032 . S
O456 C459 1.259 . S
O457 Mg448 2.114 . S
O457 C460 1.252 . S
O458 Mg448 2.251 . S
O458 Mg451 2.079 . S
O458 C460 1.273 . S
C459 O455 1.246 . S
C459 O456 1.259 . S
C460 O457 1.252 . S
C460 O458 1.273 . S
O461 Mg448 2.010 . S
O461 C453 1.249 . S
Mg462 O463 2.028 . S
Mg462 O469 1.986 . S
Mg462 O471 2.114 . S
Mg462 O472 2.251 . S
Mg462 O475 2.010 . S
O463 Mg462 2.028 . S
O463 C466 1.250 . S
O464 Mg465 2.028 . S
O464 C466 1.248 . S
Mg465 O464 2.028 . S
Mg465 O470 2.032 . S
Mg465 O472 2.079 . S
C466 O463 1.250 . S
C466 O464 1.248 . S
C467 O468 1.264 . S
C467 O475 1.249 . S
O468 C467 1.264 . S
O469 Mg462 1.986 . S
O469 C473 1.246 . S
O470 Mg465 2.032 . S
O470 C473 1.259 . S
O471 Mg462 2.114 . S
O471 C474 1.252 . S
O472 Mg462 2.251 . S
O472 Mg465 2.079 . S
O472 C474 1.273 . S
C473 O469 1.246 . S
C473 O470 1.259 . S
C474 O471 1.252 . S
C474 O472 1.273 . S
O475 Mg462 2.010 . S
O475 C467 1.249 . S
Mg476 O477 2.028 . S
Mg476 O483 1.986 . S
Mg476 O485 2.114 . S
Mg476 O486 2.251 . S
Mg476 O489 2.010 . S
O477 Mg476 2.028 . S
O477 C480 1.250 . S
O478 Mg479 2.028 . S
O478 C480 1.248 . S
Mg479 O478 2.028 . S
Mg479 O484 2.032 . S
Mg479 O486 2.079 . S
C480 O477 1.250 . S
C480 O478 1.248 . S
C481 O482 1.264 . S
C481 O489 1.249 . S
O482 C481 1.264 . S
O483 Mg476 1.986 . S
O483 C487 1.246 . S
O484 Mg479 2.032 . S
O484 C487 1.259 . S
O485 Mg476 2.114 . S
O485 C488 1.252 . S
O486 Mg476 2.251 . S
O486 Mg479 2.079 . S
O486 C488 1.273 . S
C487 O483 1.246 . S
C487 O484 1.259 . S
C488 O485 1.252 . S
C488 O486 1.273 . S
O489 Mg476 2.010 . S
O489 C481 1.249 . S
Mg490 O491 2.028 . S
Mg490 O497 1.986 . S
Mg490 O499 2.114 . S
Mg490 O500 2.251 . S
Mg490 O503 2.010 . S
O491 Mg490 2.028 . S
O491 C494 1.250 . S
O492 Mg493 2.028 . S
O492 C494 1.248 . S
Mg493 O492 2.028 . S
Mg493 O498 2.032 . S
Mg493 O500 2.079 . S
C494 O491 1.250 . S
C494 O492 1.248 . S
C495 O496 1.264 . S
C495 O503 1.249 . S
O496 C495 1.264 . S
O497 Mg490 1.986 . S
O497 C501 1.246 . S
O498 Mg493 2.032 . S
O498 C501 1.259 . S
O499 Mg490 2.114 . S
O499 C502 1.252 . S
O500 Mg490 2.251 . S
O500 Mg493 2.079 . S
O500 C502 1.273 . S
C501 O497 1.246 . S
C501 O498 1.259 . S
C502 O499 1.252 . S
C502 O500 1.273 . S
O503 Mg490 2.010 . S
O503 C495 1.249 . S
Mg504 O505 2.028 . S
Mg504 O511 1.986 . S
Mg504 O513 2.114 . S
Mg504 O514 2.251 . S
Mg504 O517 2.010 . S
O505 Mg504 2.028 . S
O505 C508 1.250 . S
O506 Mg507 2.028 . S
O506 C508 1.248 . S
Mg507 O506 2.028 . S
Mg507 O512 2.032 . S
Mg507 O514 2.079 . S
C508 O505 1.250 . S
C508 O506 1.248 . S
C509 O510 1.264 . S
C509 O517 1.249 . S
O510 C509 1.264 . S
O511 Mg504 1.986 . S
O511 C515 1.246 . S
O512 Mg507 2.032 . S
O512 C515 1.259 . S
O513 Mg504 2.114 . S
O513 C516 1.252 . S
O514 Mg504 2.251 . S
O514 Mg507 2.079 . S
O514 C516 1.273 . S
C515 O511 1.246 . S
C515 O512 1.259 . S
C516 O513 1.252 . S
C516 O514 1.273 . S
O517 Mg504 2.010 . S
O517 C509 1.249 . S
Mg518 O519 2.028 . S
Mg518 O525 1.986 . S
Mg518 O527 2.114 . S
Mg518 O528 2.251 . S
Mg518 O531 2.010 . S
O519 Mg518 2.028 . S
O519 C522 1.250 . S
O520 Mg521 2.028 . S
O520 C522 1.248 . S
Mg521 O520 2.028 . S
Mg521 O526 2.032 . S
Mg521 O528 2.079 . S
C522 O519 1.250 . S
C522 O520 1.248 . S
C523 O524 1.264 . S
C523 O531 1.249 . S
O524 C523 1.264 . S
O525 Mg518 1.986 . S
O525 C529 1.246 . S
O526 Mg521 2.032 . S
O526 C529 1.259 . S
O527 Mg518 2.114 . S
O527 C530 1.252 . S
O528 Mg518 2.251 . S
O528 Mg521 2.079 . S
O528 C530 1.273 . S
C529 O525 1.246 . S
C529 O526 1.259 . S
C530 O527 1.252 . S
C530 O528 1.273 . S
O531 Mg518 2.010 . S
O531 C523 1.249 . S
Mg532 O533 2.028 . S
Mg532 O539 1.986 . S
Mg532 O541 2.114 . S
Mg532 O542 2.251 . S
Mg532 O545 2.010 . S
O533 Mg532 2.028 . S
O533 C536 1.250 . S
O534 Mg535 2.028 . S
O534 C536 1.248 . S
Mg535 O534 2.028 . S
Mg535 O540 2.032 . S
Mg535 O542 2.079 . S
C536 O533 1.250 . S
C536 O534 1.248 . S
C537 O538 1.264 . S
C537 O545 1.249 . S
O538 C537 1.264 . S
O539 Mg532 1.986 . S
O539 C543 1.246 . S
O540 Mg535 2.032 . S
O540 C543 1.259 . S
O541 Mg532 2.114 . S
O541 C544 1.252 . S
O542 Mg532 2.251 . S
O542 Mg535 2.079 . S
O542 C544 1.273 . S
C543 O539 1.246 . S
C543 O540 1.259 . S
C544 O541 1.252 . S
C544 O542 1.273 . S
O545 Mg532 2.010 . S
O545 C537 1.249 . S
Mg546 O547 2.028 . S
Mg546 O553 1.986 . S
Mg546 O555 2.114 . S
Mg546 O556 2.251 . S
Mg546 O559 2.010 . S
O547 Mg546 2.028 . S
O547 C550 1.250 . S
O548 Mg549 2.028 . S
O548 C550 1.248 . S
Mg549 O548 2.028 . S
Mg549 O554 2.032 . S
Mg549 O556 2.079 . S
C550 O547 1.250 . S
C550 O548 1.248 . S
C551 O552 1.264 . S
C551 O559 1.249 . S
O552 C551 1.264 . S
O553 Mg546 1.986 . S
O553 C557 1.246 . S
O554 Mg549 2.032 . S
O554 C557 1.259 . S
O555 Mg546 2.114 . S
O555 C558 1.252 . S
O556 Mg546 2.251 . S
O556 Mg549 2.079 . S
O556 C558 1.273 . S
C557 O553 1.246 . S
C557 O554 1.259 . S
C558 O555 1.252 . S
C558 O556 1.273 . S
O559 Mg546 2.010 . S
O559 C551 1.249 . S
Mg560 O561 2.028 . S
Mg560 O567 1.986 . S
Mg560 O569 2.114 . S
Mg560 O570 2.251 . S
Mg560 O573 2.010 . S
O561 Mg560 2.028 . S
O561 C564 1.250 . S
O562 Mg563 2.028 . S
O562 C564 1.248 . S
Mg563 O562 2.028 . S
Mg563 O568 2.032 . S
Mg563 O570 2.079 . S
C564 O561 1.250 . S
C564 O562 1.248 . S
C565 O566 1.264 . S
C565 O573 1.249 . S
O566 C565 1.264 . S
O567 Mg560 1.986 . S
O567 C571 1.246 . S
O568 Mg563 2.032 . S
O568 C571 1.259 . S
O569 Mg560 2.114 . S
O569 C572 1.252 . S
O570 Mg560 2.251 . S
O570 Mg563 2.079 . S
O570 C572 1.273 . S
C571 O567 1.246 . S
C571 O568 1.259 . S
C572 O569 1.252 . S
C572 O570 1.273 . S
O573 Mg560 2.010 . S
O573 C565 1.249 . S
Mg574 O575 2.028 . S
Mg574 O581 1.986 . S
Mg574 O583 2.114 . S
Mg574 O584 2.251 . S
Mg574 O587 2.010 . S
O575 Mg574 2.028 . S
O575 C578 1.250 . S
O576 Mg577 2.028 . S
O576 C578 1.248 . S
Mg577 O576 2.028 . S
Mg577 O582 2.032 . S
Mg577 O584 2.079 . S
C578 O575 1.250 . S
C578 O576 1.248 . S
C579 O580 1.264 . S
C579 O587 1.249 . S
O580 C579 1.264 . S
O581 Mg574 1.986 . S
O581 C585 1.246 . S
O582 Mg577 2.032 . S
O582 C585 1.259 . S
O583 Mg574 2.114 . S
O583 C586 1.252 . S
O584 Mg574 2.251 . S
O584 Mg577 2.079 . S
O584 C586 1.273 . S
C585 O581 1.246 . S
C585 O582 1.259 . S
C586 O583 1.252 . S
C586 O584 1.273 . S
O587 Mg574 2.010 . S
O587 C579 1.249 . S
Mg588 O589 2.028 . S
Mg588 O595 1.986 . S
Mg588 O597 2.114 . S
Mg588 O598 2.251 . S
Mg588 O601 2.010 . S
O589 Mg588 2.028 . S
O589 C592 1.250 . S
O590 Mg591 2.028 . S
O590 C592 1.248 . S
Mg591 O590 2.028 . S
Mg591 O596 2.032 . S
Mg591 O598 2.079 . S
C592 O589 1.250 . S
C592 O590 1.248 . S
C593 O594 1.264 . S
C593 O601 1.249 . S
O594 C593 1.264 . S
O595 Mg588 1.986 . S
O595 C599 1.246 . S
O596 Mg591 2.032 . S
O596 C599 1.259 . S
O597 Mg588 2.114 . S
O597 C600 1.252 . S
O598 Mg588 2.251 . S
O598 Mg591 2.079 . S
O598 C600 1.273 . S
C599 O595 1.246 . S
C599 O596 1.259 . S
C600 O597 1.252 . S
C600 O598 1.273 . S
O601 Mg588 2.010 . S
O601 C593 1.249 . S
Mg602 O603 2.028 . S
Mg602 O609 1.986 . S
Mg602 O611 2.114 . S
Mg602 O612 2.251 . S
Mg602 O615 2.010 . S
O603 Mg602 2.028 . S
O603 C606 1.250 . S
O604 Mg605 2.028 . S
O604 C606 1.248 . S
Mg605 O604 2.028 . S
Mg605 O610 2.032 . S
Mg605 O612 2.079 . S
C606 O603 1.250 . S
C606 O604 1.248 . S
C607 O608 1.264 . S
C607 O615 1.249 . S
O608 C607 1.264 . S
O609 Mg602 1.986 . S
O609 C613 1.246 . S
O610 Mg605 2.032 . S
O610 C613 1.259 . S
O611 Mg602 2.114 . S
O611 C614 1.252 . S
O612 Mg602 2.251 . S
O612 Mg605 2.079 . S
O612 C614 1.273 . S
C613 O609 1.246 . S
C613 O610 1.259 . S
C614 O611 1.252 . S
C614 O612 1.273 . S
O615 Mg602 2.010 . S
O615 C607 1.249 . S
Mg616 O617 2.028 . S
Mg616 O623 1.986 . S
Mg616 O625 2.114 . S
Mg616 O626 2.251 . S
Mg616 O629 2.010 . S
O617 Mg616 2.028 . S
O617 C620 1.250 . S
O618 Mg619 2.028 . S
O618 C620 1.248 . S
Mg619 O618 2.028 . S
Mg619 O624 2.032 . S
Mg619 O626 2.079 . S
C620 O617 1.250 . S
C620 O618 1.248 . S
C621 O622 1.264 . S
C621 O629 1.249 . S
O622 C621 1.264 . S
O623 Mg616 1.986 . S
O623 C627 1.246 . S
O624 Mg619 2.032 . S
O624 C627 1.259 . S
O625 Mg616 2.114 . S
O625 C628 1.252 . S
O626 Mg616 2.251 . S
O626 Mg619 2.079 . S
O626 C628 1.273 . S
C627 O623 1.246 . S
C627 O624 1.259 . S
C628 O625 1.252 . S
C628 O626 1.273 . S
O629 Mg616 2.010 . S
O629 C621 1.249 . S
Mg630 O631 2.028 . S
Mg630 O637 1.986 . S
Mg630 O639 2.114 . S
Mg630 O640 2.251 . S
Mg630 O643 2.010 . S
O631 Mg630 2.028 . S
O631 C634 1.250 . S
O632 Mg633 2.028 . S
O632 C634 1.248 . S
Mg633 O632 2.028 . S
Mg633 O638 2.032 . S
Mg633 O640 2.079 . S
C634 O631 1.250 . S
C634 O632 1.248 . S
C635 O636 1.264 . S
C635 O643 1.249 . S
O636 C635 1.264 . S
O637 Mg630 1.986 . S
O637 C641 1.246 . S
O638 Mg633 2.032 . S
O638 C641 1.259 . S
O639 Mg630 2.114 . S
O639 C642 1.252 . S
O640 Mg630 2.251 . S
O640 Mg633 2.079 . S
O640 C642 1.273 . S
C641 O637 1.246 . S
C641 O638 1.259 . S
C642 O639 1.252 . S
C642 O640 1.273 . S
O643 Mg630 2.010 . S
O643 C635 1.249 . S
Mg644 O645 2.028 . S
Mg644 O651 1.986 . S
Mg644 O653 2.114 . S
Mg644 O654 2.251 . S
Mg644 O657 2.010 . S
O645 Mg644 2.028 . S
O645 C648 1.250 . S
O646 Mg647 2.028 . S
O646 C648 1.248 . S
Mg647 O646 2.028 . S
Mg647 O652 2.032 . S
Mg647 O654 2.079 . S
C648 O645 1.250 . S
C648 O646 1.248 . S
C649 O650 1.264 . S
C649 O657 1.249 . S
O650 C649 1.264 . S
O651 Mg644 1.986 . S
O651 C655 1.246 . S
O652 Mg647 2.032 . S
O652 C655 1.259 . S
O653 Mg644 2.114 . S
O653 C656 1.252 . S
O654 Mg644 2.251 . S
O654 Mg647 2.079 . S
O654 C656 1.273 . S
C655 O651 1.246 . S
C655 O652 1.259 . S
C656 O653 1.252 . S
C656 O654 1.273 . S
O657 Mg644 2.010 . S
O657 C649 1.249 . S
Mg658 O659 2.028 . S
Mg658 O665 1.986 . S
Mg658 O667 2.114 . S
Mg658 O668 2.251 . S
Mg658 O671 2.010 . S
O659 Mg658 2.028 . S
O659 C662 1.250 . S
O660 Mg661 2.028 . S
O660 C662 1.248 . S
Mg661 O660 2.028 . S
Mg661 O666 2.032 . S
Mg661 O668 2.079 . S
C662 O659 1.250 . S
C662 O660 1.248 . S
C663 O664 1.264 . S
C663 O671 1.249 . S
O664 C663 1.264 . S
O665 Mg658 1.986 . S
O665 C669 1.246 . S
O666 Mg661 2.032 . S
O666 C669 1.259 . S
O667 Mg658 2.114 . S
O667 C670 1.252 . S
O668 Mg658 2.251 . S
O668 Mg661 2.079 . S
O668 C670 1.273 . S
C669 O665 1.246 . S
C669 O666 1.259 . S
C670 O667 1.252 . S
C670 O668 1.273 . S
O671 Mg658 2.010 . S
O671 C663 1.249 . S
H672 C678 0.930 . S
H673 C681 0.930 . S
H674 C682 0.930 . S
H675 C683 0.930 . S
H676 C686 0.930 . S
H677 C687 0.930 . S
C678 H672 0.930 . S
C678 C679 1.355 . S
C678 C680 1.415 . S
C679 C678 1.355 . S
C679 C681 1.419 . S
C680 C678 1.415 . S
C680 C685 1.425 1_655 S
C680 C687 1.409 1_655 S
C681 H673 0.930 . S
C681 C679 1.419 . S
C681 C682 1.362 . S
C682 H674 0.930 . S
C682 C681 1.362 . S
C682 C685 1.409 1_655 S
C683 H675 0.930 . S
C683 C684 1.355 . S
C683 C685 1.415 . S
C684 C683 1.355 . S
C684 C686 1.419 . S
C685 C680 1.425 1_455 S
C685 C682 1.409 1_455 S
C685 C683 1.415 . S
C686 H676 0.930 . S
C686 C684 1.419 . S
C686 C687 1.362 . S
C687 H677 0.930 . S
C687 C680 1.409 1_455 S
C687 C686 1.362 . S
H688 C694 0.930 . S
H689 C697 0.930 . S
H690 C698 0.930 . S
H691 C699 0.930 . S
H692 C702 0.930 . S
H693 C703 0.930 . S
C694 H688 0.930 . S
C694 C695 1.355 . S
C694 C696 1.415 . S
C695 C694 1.355 . S
C695 C697 1.419 . S
C696 C694 1.415 . S
C696 C701 1.425 . S
C696 C703 1.409 . S
C697 H689 0.930 . S
C697 C695 1.419 . S
C697 C698 1.362 . S
C698 H690 0.930 . S
C698 C697 1.362 . S
C698 C701 1.409 . S
C699 H691 0.930 . S
C699 C700 1.355 . S
C699 C701 1.415 . S
C700 C699 1.355 . S
C700 C702 1.419 . S
C701 C696 1.425 . S
C701 C698 1.409 . S
C701 C699 1.415 . S
C702 H692 0.930 . S
C702 C700 1.419 . S
C702 C703 1.362 . S
C703 H693 0.930 . S
C703 C696 1.409 . S
C703 C702 1.362 . S
H704 C710 0.930 . S
H705 C713 0.930 . S
H706 C714 0.930 . S
H707 C715 0.930 . S
H708 C718 0.930 . S
H709 C719 0.930 . S
C710 H704 0.930 . S
C710 C711 1.355 . S
C710 C712 1.415 . S
C711 C710 1.355 . S
C711 C713 1.419 . S
C712 C710 1.415 . S
C712 C717 1.425 1_455 S
C712 C719 1.409 1_455 S
C713 H705 0.930 . S
C713 C711 1.419 . S
C713 C714 1.362 . S
C714 H706 0.930 . S
C714 C713 1.362 . S
C714 C717 1.409 1_455 S
C715 H707 0.930 . S
C715 C716 1.355 . S
C715 C717 1.415 . S
C716 C715 1.355 . S
C716 C718 1.419 . S
C717 C712 1.425 1_655 S
C717 C714 1.409 1_655 S
C717 C715 1.415 . S
C718 H708 0.930 . S
C718 C716 1.419 . S
C718 C719 1.362 . S
C719 H709 0.930 . S
C719 C712 1.409 1_655 S
C719 C718 1.362 . S
H720 C726 0.930 . S
H721 C729 0.930 . S
H722 C730 0.930 . S
H723 C731 0.930 . S
H724 C734 0.930 . S
H725 C735 0.930 . S
C726 H720 0.930 . S
C726 C727 1.355 . S
C726 C728 1.415 . S
C727 C726 1.355 . S
C727 C729 1.419 . S
C728 C726 1.415 . S
C728 C733 1.425 . S
C728 C735 1.409 . S
C729 H721 0.930 . S
C729 C727 1.419 . S
C729 C730 1.362 . S
C730 H722 0.930 . S
C730 C729 1.362 . S
C730 C733 1.409 . S
C731 H723 0.930 . S
C731 C732 1.355 . S
C731 C733 1.415 . S
C732 C731 1.355 . S
C732 C734 1.419 . S
C733 C728 1.425 . S
C733 C730 1.409 . S
C733 C731 1.415 . S
C734 H724 0.930 . S
C734 C732 1.419 . S
C734 C735 1.362 . S
C735 H725 0.930 . S
C735 C728 1.409 . S
C735 C734 1.362 . S
H736 C742 0.930 . S
H737 C745 0.930 . S
H738 C746 0.930 . S
H739 C747 0.930 . S
H740 C750 0.930 . S
H741 C751 0.930 . S
C742 H736 0.930 . S
C742 C743 1.355 . S
C742 C744 1.415 . S
C743 C742 1.355 . S
C743 C745 1.419 . S
C744 C742 1.415 . S
C744 C749 1.425 1_655 S
C744 C751 1.409 1_655 S
C745 H737 0.930 . S
C745 C743 1.419 . S
C745 C746 1.362 . S
C746 H738 0.930 . S
C746 C745 1.362 . S
C746 C749 1.409 1_655 S
C747 H739 0.930 . S
C747 C748 1.355 . S
C747 C749 1.415 . S
C748 C747 1.355 . S
C748 C750 1.419 . S
C749 C744 1.425 1_455 S
C749 C746 1.409 1_455 S
C749 C747 1.415 . S
C750 H740 0.930 . S
C750 C748 1.419 . S
C750 C751 1.362 . S
C751 H741 0.930 . S
C751 C744 1.409 1_455 S
C751 C750 1.362 . S
H752 C758 0.930 . S
H753 C761 0.930 . S
H754 C762 0.930 . S
H755 C763 0.930 . S
H756 C766 0.930 . S
H757 C767 0.930 . S
C758 H752 0.930 . S
C758 C759 1.355 . S
C758 C760 1.415 . S
C759 C758 1.355 . S
C759 C761 1.419 . S
C760 C758 1.415 . S
C760 C765 1.425 . S
C760 C767 1.409 . S
C761 H753 0.930 . S
C761 C759 1.419 . S
C761 C762 1.362 . S
C762 H754 0.930 . S
C762 C761 1.362 . S
C762 C765 1.409 . S
C763 H755 0.930 . S
C763 C764 1.355 . S
C763 C765 1.415 . S
C764 C763 1.355 . S
C764 C766 1.419 . S
C765 C760 1.425 . S
C765 C762 1.409 . S
C765 C763 1.415 . S
C766 H756 0.930 . S
C766 C764 1.419 . S
C766 C767 1.362 . S
C767 H757 0.930 . S
C767 C760 1.409 . S
C767 C766 1.362 . S
H768 C774 0.930 . S
H769 C777 0.930 . S
H770 C778 0.930 . S
H771 C779 0.930 . S
H772 C782 0.930 . S
H773 C783 0.930 . S
C774 H768 0.930 . S
C774 C775 1.355 . S
C774 C776 1.415 . S
C775 C774 1.355 . S
C775 C777 1.419 . S
C776 C774 1.415 . S
C776 C781 1.425 1_455 S
C776 C783 1.409 1_455 S
C777 H769 0.930 . S
C777 C775 1.419 . S
C777 C778 1.362 . S
C778 H770 0.930 . S
C778 C777 1.362 . S
C778 C781 1.409 1_455 S
C779 H771 0.930 . S
C779 C780 1.355 . S
C779 C781 1.415 . S
C780 C779 1.355 . S
C780 C782 1.419 . S
C781 C776 1.425 1_655 S
C781 C778 1.409 1_655 S
C781 C779 1.415 . S
C782 H772 0.930 . S
C782 C780 1.419 . S
C782 C783 1.362 . S
C783 H773 0.930 . S
C783 C776 1.409 1_655 S
C783 C782 1.362 . S
H784 C790 0.930 . S
H785 C793 0.930 . S
H786 C794 0.930 . S
H787 C795 0.930 . S
H788 C798 0.930 . S
H789 C799 0.930 . S
C790 H784 0.930 . S
C790 C791 1.355 . S
C790 C792 1.415 . S
C791 C790 1.355 . S
C791 C793 1.419 . S
C792 C790 1.415 . S
C792 C797 1.425 . S
C792 C799 1.409 . S
C793 H785 0.930 . S
C793 C791 1.419 . S
C793 C794 1.362 . S
C794 H786 0.930 . S
C794 C793 1.362 . S
C794 C797 1.409 . S
C795 H787 0.930 . S
C795 C796 1.355 . S
C795 C797 1.415 . S
C796 C795 1.355 . S
C796 C798 1.419 . S
C797 C792 1.425 . S
C797 C794 1.409 . S
C797 C795 1.415 . S
C798 H788 0.930 . S
C798 C796 1.419 . S
C798 C799 1.362 . S
C799 H789 0.930 . S
C799 C792 1.409 . S
C799 C798 1.362 . S
H800 C806 0.930 . S
H801 C809 0.930 . S
H802 C810 0.930 . S
H803 C811 0.930 . S
H804 C814 0.930 . S
H805 C815 0.930 . S
C806 H800 0.930 . S
C806 C807 1.355 . S
C806 C808 1.415 . S
C807 C806 1.355 . S
C807 C809 1.419 . S
C808 C806 1.415 . S
C808 C813 1.425 1_565 S
C808 C815 1.409 1_565 S
C809 H801 0.930 . S
C809 C807 1.419 . S
C809 C810 1.362 . S
C810 H802 0.930 . S
C810 C809 1.362 . S
C810 C813 1.409 1_565 S
C811 H803 0.930 . S
C811 C812 1.355 . S
C811 C813 1.415 . S
C812 C811 1.355 . S
C812 C814 1.419 . S
C813 C808 1.425 1_545 S
C813 C810 1.409 1_545 S
C813 C811 1.415 . S
C814 H804 0.930 . S
C814 C812 1.419 . S
C814 C815 1.362 . S
C815 H805 0.930 . S
C815 C808 1.409 1_545 S
C815 C814 1.362 . S
H816 C822 0.930 . S
H817 C825 0.930 . S
H818 C826 0.930 . S
H819 C827 0.930 . S
H820 C830 0.930 . S
H821 C831 0.930 . S
C822 H816 0.930 . S
C822 C823 1.355 . S
C822 C824 1.415 . S
C823 C822 1.355 . S
C823 C825 1.419 . S
C824 C822 1.415 . S
C824 C829 1.425 . S
C824 C831 1.409 . S
C825 H817 0.930 . S
C825 C823 1.419 . S
C825 C826 1.362 . S
C826 H818 0.930 . S
C826 C825 1.362 . S
C826 C829 1.409 . S
C827 H819 0.930 . S
C827 C828 1.355 . S
C827 C829 1.415 . S
C828 C827 1.355 . S
C828 C830 1.419 . S
C829 C824 1.425 . S
C829 C826 1.409 . S
C829 C827 1.415 . S
C830 H820 0.930 . S
C830 C828 1.419 . S
C830 C831 1.362 . S
C831 H821 0.930 . S
C831 C824 1.409 . S
C831 C830 1.362 . S
H832 C838 0.930 . S
H833 C841 0.930 . S
H834 C842 0.930 . S
H835 C843 0.930 . S
H836 C846 0.930 . S
H837 C847 0.930 . S
C838 H832 0.930 . S
C838 C839 1.355 . S
C838 C840 1.415 . S
C839 C838 1.355 . S
C839 C841 1.419 . S
C840 C838 1.415 . S
C840 C845 1.425 1_545 S
C840 C847 1.409 1_545 S
C841 H833 0.930 . S
C841 C839 1.419 . S
C841 C842 1.362 . S
C842 H834 0.930 . S
C842 C841 1.362 . S
C842 C845 1.409 1_545 S
C843 H835 0.930 . S
C843 C844 1.355 . S
C843 C845 1.415 . S
C844 C843 1.355 . S
C844 C846 1.419 . S
C845 C840 1.425 1_565 S
C845 C842 1.409 1_565 S
C845 C843 1.415 . S
C846 H836 0.930 . S
C846 C844 1.419 . S
C846 C847 1.362 . S
C847 H837 0.930 . S
C847 C840 1.409 1_565 S
C847 C846 1.362 . S
H848 C854 0.930 . S
H849 C857 0.930 . S
H850 C858 0.930 . S
H851 C859 0.930 . S
H852 C862 0.930 . S
H853 C863 0.930 . S
C854 H848 0.930 . S
C854 C855 1.355 . S
C854 C856 1.415 . S
C855 C854 1.355 . S
C855 C857 1.419 . S
C856 C854 1.415 . S
C856 C861 1.425 . S
C856 C863 1.409 . S
C857 H849 0.930 . S
C857 C855 1.419 . S
C857 C858 1.362 . S
C858 H850 0.930 . S
C858 C857 1.362 . S
C858 C861 1.409 . S
C859 H851 0.930 . S
C859 C860 1.355 . S
C859 C861 1.415 . S
C860 C859 1.355 . S
C860 C862 1.419 . S
C861 C856 1.425 . S
C861 C858 1.409 . S
C861 C859 1.415 . S
C862 H852 0.930 . S
C862 C860 1.419 . S
C862 C863 1.362 . S
C863 H853 0.930 . S
C863 C856 1.409 . S
C863 C862 1.362 . S
H864 C870 0.930 . S
H865 C873 0.930 . S
H866 C874 0.930 . S
H867 C875 0.930 . S
H868 C878 0.930 . S
H869 C879 0.930 . S
C870 H864 0.930 . S
C870 C871 1.355 . S
C870 C872 1.415 . S
C871 C870 1.355 . S
C871 C873 1.419 . S
C872 C870 1.415 . S
C872 C877 1.425 1_545 S
C872 C879 1.409 1_545 S
C873 H865 0.930 . S
C873 C871 1.419 . S
C873 C874 1.362 . S
C874 H866 0.930 . S
C874 C873 1.362 . S
C874 C877 1.409 1_545 S
C875 H867 0.930 . S
C875 C876 1.355 . S
C875 C877 1.415 . S
C876 C875 1.355 . S
C876 C878 1.419 . S
C877 C872 1.425 1_565 S
C877 C874 1.409 1_565 S
C877 C875 1.415 . S
C878 H868 0.930 . S
C878 C876 1.419 . S
C878 C879 1.362 . S
C879 H869 0.930 . S
C879 C872 1.409 1_565 S
C879 C878 1.362 . S
H880 C886 0.930 . S
H881 C889 0.930 . S
H882 C890 0.930 . S
H883 C891 0.930 . S
H884 C894 0.930 . S
H885 C895 0.930 . S
C886 H880 0.930 . S
C886 C887 1.355 . S
C886 C888 1.415 . S
C887 C886 1.355 . S
C887 C889 1.419 . S
C888 C886 1.415 . S
C888 C893 1.425 . S
C888 C895 1.409 . S
C889 H881 0.930 . S
C889 C887 1.419 . S
C889 C890 1.362 . S
C890 H882 0.930 . S
C890 C889 1.362 . S
C890 C893 1.409 . S
C891 H883 0.930 . S
C891 C892 1.355 . S
C891 C893 1.415 . S
C892 C891 1.355 . S
C892 C894 1.419 . S
C893 C888 1.425 . S
C893 C890 1.409 . S
C893 C891 1.415 . S
C894 H884 0.930 . S
C894 C892 1.419 . S
C894 C895 1.362 . S
C895 H885 0.930 . S
C895 C888 1.409 . S
C895 C894 1.362 . S
H896 C902 0.930 . S
H897 C905 0.930 . S
H898 C906 0.930 . S
H899 C907 0.930 . S
H900 C910 0.930 . S
H901 C911 0.930 . S
C902 H896 0.930 . S
C902 C903 1.355 . S
C902 C904 1.415 . S
C903 C902 1.355 . S
C903 C905 1.419 . S
C904 C902 1.415 . S
C904 C909 1.425 1_545 S
C904 C911 1.409 1_545 S
C905 H897 0.930 . S
C905 C903 1.419 . S
C905 C906 1.362 . S
C906 H898 0.930 . S
C906 C905 1.362 . S
C906 C909 1.409 1_545 S
C907 H899 0.930 . S
C907 C908 1.355 . S
C907 C909 1.415 . S
C908 C907 1.355 . S
C908 C910 1.419 . S
C909 C904 1.425 1_565 S
C909 C906 1.409 1_565 S
C909 C907 1.415 . S
C910 H900 0.930 . S
C910 C908 1.419 . S
C910 C911 1.362 . S
C911 H901 0.930 . S
C911 C904 1.409 1_565 S
C911 C910 1.362 . S
H912 C918 0.930 . S
H913 C921 0.930 . S
H914 C922 0.930 . S
H915 C923 0.930 . S
H916 C926 0.930 . S
H917 C927 0.930 . S
C918 H912 0.930 . S
C918 C919 1.355 . S
C918 C920 1.415 . S
C919 C918 1.355 . S
C919 C921 1.419 . S
C920 C918 1.415 . S
C920 C925 1.425 . S
C920 C927 1.409 . S
C921 H913 0.930 . S
C921 C919 1.419 . S
C921 C922 1.362 . S
C922 H914 0.930 . S
C922 C921 1.362 . S
C922 C925 1.409 . S
C923 H915 0.930 . S
C923 C924 1.355 . S
C923 C925 1.415 . S
C924 C923 1.355 . S
C924 C926 1.419 . S
C925 C920 1.425 . S
C925 C922 1.409 . S
C925 C923 1.415 . S
C926 H916 0.930 . S
C926 C924 1.419 . S
C926 C927 1.362 . S
C927 H917 0.930 . S
C927 C920 1.409 . S
C927 C926 1.362 . S
H928 C934 0.930 . S
H929 C937 0.930 . S
H930 C938 0.930 . S
H931 C939 0.930 . S
H932 C942 0.930 . S
H933 C943 0.930 . S
C934 H928 0.930 . S
C934 C935 1.355 . S
C934 C936 1.415 . S
C935 C934 1.355 . S
C935 C937 1.419 . S
C936 C934 1.415 . S
C936 C941 1.425 1_554 S
C936 C943 1.409 1_554 S
C937 H929 0.930 . S
C937 C935 1.419 . S
C937 C938 1.362 . S
C938 H930 0.930 . S
C938 C937 1.362 . S
C938 C941 1.409 1_554 S
C939 H931 0.930 . S
C939 C940 1.355 . S
C939 C941 1.415 . S
C940 C939 1.355 . S
C940 C942 1.419 . S
C941 C936 1.425 1_556 S
C941 C938 1.409 1_556 S
C941 C939 1.415 . S
C942 H932 0.930 . S
C942 C940 1.419 . S
C942 C943 1.362 . S
C943 H933 0.930 . S
C943 C936 1.409 1_556 S
C943 C942 1.362 . S
H944 C950 0.930 . S
H945 C953 0.930 . S
H946 C954 0.930 . S
H947 C955 0.930 . S
H948 C958 0.930 . S
H949 C959 0.930 . S
C950 H944 0.930 . S
C950 C951 1.355 . S
C950 C952 1.415 . S
C951 C950 1.355 . S
C951 C953 1.419 . S
C952 C950 1.415 . S
C952 C957 1.425 1_554 S
C952 C959 1.409 1_554 S
C953 H945 0.930 . S
C953 C951 1.419 . S
C953 C954 1.362 . S
C954 H946 0.930 . S
C954 C953 1.362 . S
C954 C957 1.409 1_554 S
C955 H947 0.930 . S
C955 C956 1.355 . S
C955 C957 1.415 . S
C956 C955 1.355 . S
C956 C958 1.419 . S
C957 C952 1.425 1_556 S
C957 C954 1.409 1_556 S
C957 C955 1.415 . S
C958 H948 0.930 . S
C958 C956 1.419 . S
C958 C959 1.362 . S
C959 H949 0.930 . S
C959 C952 1.409 1_556 S
C959 C958 1.362 . S
H960 C966 0.930 . S
H961 C969 0.930 . S
H962 C970 0.930 . S
H963 C971 0.930 . S
H964 C974 0.930 . S
H965 C975 0.930 . S
C966 H960 0.930 . S
C966 C967 1.355 . S
C966 C968 1.415 . S
C967 C966 1.355 . S
C967 C969 1.419 . S
C968 C966 1.415 . S
C968 C973 1.425 . S
C968 C975 1.409 . S
C969 H961 0.930 . S
C969 C967 1.419 . S
C969 C970 1.362 . S
C970 H962 0.930 . S
C970 C969 1.362 . S
C970 C973 1.409 . S
C971 H963 0.930 . S
C971 C972 1.355 . S
C971 C973 1.415 . S
C972 C971 1.355 . S
C972 C974 1.419 . S
C973 C968 1.425 . S
C973 C970 1.409 . S
C973 C971 1.415 . S
C974 H964 0.930 . S
C974 C972 1.419 . S
C974 C975 1.362 . S
C975 H965 0.930 . S
C975 C968 1.409 . S
C975 C974 1.362 . S
H976 C982 0.930 . S
H977 C985 0.930 . S
H978 C986 0.930 . S
H979 C987 0.930 . S
H980 C990 0.930 . S
H981 C991 0.930 . S
C982 H976 0.930 . S
C982 C983 1.355 . S
C982 C984 1.415 . S
C983 C982 1.355 . S
C983 C985 1.419 . S
C984 C982 1.415 . S
C984 C989 1.425 1_554 S
C984 C991 1.409 1_554 S
C985 H977 0.930 . S
C985 C983 1.419 . S
C985 C986 1.362 . S
C986 H978 0.930 . S
C986 C985 1.362 . S
C986 C989 1.409 1_554 S
C987 H979 0.930 . S
C987 C988 1.355 . S
C987 C989 1.415 . S
C988 C987 1.355 . S
C988 C990 1.419 . S
C989 C984 1.425 1_556 S
C989 C986 1.409 1_556 S
C989 C987 1.415 . S
C990 H980 0.930 . S
C990 C988 1.419 . S
C990 C991 1.362 . S
C991 H981 0.930 . S
C991 C984 1.409 1_556 S
C991 C990 1.362 . S
H992 C998 0.930 . S
H993 C1001 0.930 . S
H994 C1002 0.930 . S
H995 C1003 0.930 . S
H996 C1006 0.930 . S
H997 C1007 0.930 . S
C998 H992 0.930 . S
C998 C999 1.355 . S
C998 C1000 1.415 . S
C999 C998 1.355 . S
C999 C1001 1.419 . S
C1000 C998 1.415 . S
C1000 C1005 1.425 . S
C1000 C1007 1.409 . S
C1001 H993 0.930 . S
C1001 C999 1.419 . S
C1001 C1002 1.362 . S
C1002 H994 0.930 . S
C1002 C1001 1.362 . S
C1002 C1005 1.409 . S
C1003 H995 0.930 . S
C1003 C1004 1.355 . S
C1003 C1005 1.415 . S
C1004 C1003 1.355 . S
C1004 C1006 1.419 . S
C1005 C1000 1.425 . S
C1005 C1002 1.409 . S
C1005 C1003 1.415 . S
C1006 H996 0.930 . S
C1006 C1004 1.419 . S
C1006 C1007 1.362 . S
C1007 H997 0.930 . S
C1007 C1000 1.409 . S
C1007 C1006 1.362 . S
H1008 C1014 0.930 . S
H1009 C1017 0.930 . S
H1010 C1018 0.930 . S
H1011 C1019 0.930 . S
H1012 C1022 0.930 . S
H1013 C1023 0.930 . S
C1014 H1008 0.930 . S
C1014 C1015 1.355 . S
C1014 C1016 1.415 . S
C1015 C1014 1.355 . S
C1015 C1017 1.419 . S
C1016 C1014 1.415 . S
C1016 C1021 1.425 1_554 S
C1016 C1023 1.409 1_554 S
C1017 H1009 0.930 . S
C1017 C1015 1.419 . S
C1017 C1018 1.362 . S
C1018 H1010 0.930 . S
C1018 C1017 1.362 . S
C1018 C1021 1.409 1_554 S
C1019 H1011 0.930 . S
C1019 C1020 1.355 . S
C1019 C1021 1.415 . S
C1020 C1019 1.355 . S
C1020 C1022 1.419 . S
C1021 C1016 1.425 1_556 S
C1021 C1018 1.409 1_556 S
C1021 C1019 1.415 . S
C1022 H1012 0.930 . S
C1022 C1020 1.419 . S
C1022 C1023 1.362 . S
C1023 H1013 0.930 . S
C1023 C1016 1.409 1_556 S
C1023 C1022 1.362 . S
H1024 C1030 0.930 . S
H1025 C1033 0.930 . S
H1026 C1034 0.930 . S
H1027 C1035 0.930 . S
H1028 C1038 0.930 . S
H1029 C1039 0.930 . S
C1030 H1024 0.930 . S
C1030 C1031 1.355 . S
C1030 C1032 1.415 . S
C1031 C1030 1.355 . S
C1031 C1033 1.419 . S
C1032 C1030 1.415 . S
C1032 C1037 1.425 . S
C1032 C1039 1.409 . S
C1033 H1025 0.930 . S
C1033 C1031 1.419 . S
C1033 C1034 1.362 . S
C1034 H1026 0.930 . S
C1034 C1033 1.362 . S
C1034 C1037 1.409 . S
C1035 H1027 0.930 . S
C1035 C1036 1.355 . S
C1035 C1037 1.415 . S
C1036 C1035 1.355 . S
C1036 C1038 1.419 . S
C1037 C1032 1.425 . S
C1037 C1034 1.409 . S
C1037 C1035 1.415 . S
C1038 H1028 0.930 . S
C1038 C1036 1.419 . S
C1038 C1039 1.362 . S
C1039 H1029 0.930 . S
C1039 C1032 1.409 . S
C1039 C1038 1.362 . S
H1040 C1046 0.930 . S
H1041 C1049 0.930 . S
H1042 C1050 0.930 . S
H1043 C1051 0.930 . S
H1044 C1054 0.930 . S
H1045 C1055 0.930 . S
C1046 H1040 0.930 . S
C1046 C1047 1.355 . S
C1046 C1048 1.415 . S
C1047 C1046 1.355 . S
C1047 C1049 1.419 . S
C1048 C1046 1.415 . S
C1048 C1053 1.425 . S
C1048 C1055 1.409 . S
C1049 H1041 0.930 . S
C1049 C1047 1.419 . S
C1049 C1050 1.362 . S
C1050 H1042 0.930 . S
C1050 C1049 1.362 . S
C1050 C1053 1.409 . S
C1051 H1043 0.930 . S
C1051 C1052 1.355 . S
C1051 C1053 1.415 . S
C1052 C1051 1.355 . S
C1052 C1054 1.419 . S
C1053 C1048 1.425 . S
C1053 C1050 1.409 . S
C1053 C1051 1.415 . S
C1054 H1044 0.930 . S
C1054 C1052 1.419 . S
C1054 C1055 1.362 . S
C1055 H1045 0.930 . S
C1055 C1048 1.409 . S
C1055 C1054 1.362 . S
H1056 C1062 0.930 . S
H1057 C1065 0.930 . S
H1058 C1066 0.930 . S
H1059 C1067 0.930 . S
H1060 C1070 0.930 . S
H1061 C1071 0.930 . S
C1062 H1056 0.930 . S
C1062 C1063 1.355 . S
C1062 C1064 1.415 . S
C1063 C1062 1.355 . S
C1063 C1065 1.419 . S
C1064 C1062 1.415 . S
C1064 C1069 1.425 . S
C1064 C1071 1.409 . S
C1065 H1057 0.930 . S
C1065 C1063 1.419 . S
C1065 C1066 1.362 . S
C1066 H1058 0.930 . S
C1066 C1065 1.362 . S
C1066 C1069 1.409 . S
C1067 H1059 0.930 . S
C1067 C1068 1.355 . S
C1067 C1069 1.415 . S
C1068 C1067 1.355 . S
C1068 C1070 1.419 . S
C1069 C1064 1.425 . S
C1069 C1066 1.409 . S
C1069 C1067 1.415 . S
C1070 H1060 0.930 . S
C1070 C1068 1.419 . S
C1070 C1071 1.362 . S
C1071 H1061 0.930 . S
C1071 C1064 1.409 . S
C1071 C1070 1.362 . S
H1072 C1078 0.930 . S
H1073 C1081 0.930 . S
H1074 C1082 0.930 . S
H1075 C1083 0.930 . S
H1076 C1086 0.930 . S
H1077 C1087 0.930 . S
C1078 H1072 0.930 . S
C1078 C1079 1.355 . S
C1078 C1080 1.415 . S
C1079 C1078 1.355 . S
C1079 C1081 1.419 . S
C1080 C1078 1.415 . S
C1080 C1085 1.425 . S
C1080 C1087 1.409 . S
C1081 H1073 0.930 . S
C1081 C1079 1.419 . S
C1081 C1082 1.362 . S
C1082 H1074 0.930 . S
C1082 C1081 1.362 . S
C1082 C1085 1.409 . S
C1083 H1075 0.930 . S
C1083 C1084 1.355 . S
C1083 C1085 1.415 . S
C1084 C1083 1.355 . S
C1084 C1086 1.419 . S
C1085 C1080 1.425 . S
C1085 C1082 1.409 . S
C1085 C1083 1.415 . S
C1086 H1076 0.930 . S
C1086 C1084 1.419 . S
C1086 C1087 1.362 . S
C1087 H1077 0.930 . S
C1087 C1080 1.409 . S
C1087 C1086 1.362 . S
H1088 C1094 0.930 . S
H1089 C1097 0.930 . S
H1090 C1098 0.930 . S
H1091 C1099 0.930 . S
H1092 C1102 0.930 . S
H1093 C1103 0.930 . S
C1094 H1088 0.930 . S
C1094 C1095 1.355 . S
C1094 C1096 1.415 . S
C1095 C1094 1.355 . S
C1095 C1097 1.419 . S
C1096 C1094 1.415 . S
C1096 C1101 1.425 . S
C1096 C1103 1.409 . S
C1097 H1089 0.930 . S
C1097 C1095 1.419 . S
C1097 C1098 1.362 . S
C1098 H1090 0.930 . S
C1098 C1097 1.362 . S
C1098 C1101 1.409 . S
C1099 H1091 0.930 . S
C1099 C1100 1.355 . S
C1099 C1101 1.415 . S
C1100 C1099 1.355 . S
C1100 C1102 1.419 . S
C1101 C1096 1.425 . S
C1101 C1098 1.409 . S
C1101 C1099 1.415 . S
C1102 H1092 0.930 . S
C1102 C1100 1.419 . S
C1102 C1103 1.362 . S
C1103 H1093 0.930 . S
C1103 C1096 1.409 . S
C1103 C1102 1.362 . S
H1104 C1110 0.930 . S
H1105 C1113 0.930 . S
H1106 C1114 0.930 . S
H1107 C1115 0.930 . S
H1108 C1118 0.930 . S
H1109 C1119 0.930 . S
C1110 H1104 0.930 . S
C1110 C1111 1.355 . S
C1110 C1112 1.415 . S
C1111 C1110 1.355 . S
C1111 C1113 1.419 . S
C1112 C1110 1.415 . S
C1112 C1117 1.425 . S
C1112 C1119 1.409 . S
C1113 H1105 0.930 . S
C1113 C1111 1.419 . S
C1113 C1114 1.362 . S
C1114 H1106 0.930 . S
C1114 C1113 1.362 . S
C1114 C1117 1.409 . S
C1115 H1107 0.930 . S
C1115 C1116 1.355 . S
C1115 C1117 1.415 . S
C1116 C1115 1.355 . S
C1116 C1118 1.419 . S
C1117 C1112 1.425 . S
C1117 C1114 1.409 . S
C1117 C1115 1.415 . S
C1118 H1108 0.930 . S
C1118 C1116 1.419 . S
C1118 C1119 1.362 . S
C1119 H1109 0.930 . S
C1119 C1112 1.409 . S
C1119 C1118 1.362 . S
H1120 C1126 0.930 . S
H1121 C1129 0.930 . S
H1122 C1130 0.930 . S
H1123 C1131 0.930 . S
H1124 C1134 0.930 . S
H1125 C1135 0.930 . S
C1126 H1120 0.930 . S
C1126 C1127 1.355 . S
C1126 C1128 1.415 . S
C1127 C1126 1.355 . S
C1127 C1129 1.419 . S
C1128 C1126 1.415 . S
C1128 C1133 1.425 . S
C1128 C1135 1.409 . S
C1129 H1121 0.930 . S
C1129 C1127 1.419 . S
C1129 C1130 1.362 . S
C1130 H1122 0.930 . S
C1130 C1129 1.362 . S
C1130 C1133 1.409 . S
C1131 H1123 0.930 . S
C1131 C1132 1.355 . S
C1131 C1133 1.415 . S
C1132 C1131 1.355 . S
C1132 C1134 1.419 . S
C1133 C1128 1.425 . S
C1133 C1130 1.409 . S
C1133 C1131 1.415 . S
C1134 H1124 0.930 . S
C1134 C1132 1.419 . S
C1134 C1135 1.362 . S
C1135 H1125 0.930 . S
C1135 C1128 1.409 . S
C1135 C1134 1.362 . S
H1136 C1142 0.930 . S
H1137 C1145 0.930 . S
H1138 C1146 0.930 . S
H1139 C1147 0.930 . S
H1140 C1150 0.930 . S
H1141 C1151 0.930 . S
C1142 H1136 0.930 . S
C1142 C1143 1.355 . S
C1142 C1144 1.415 . S
C1143 C1142 1.355 . S
C1143 C1145 1.419 . S
C1144 C1142 1.415 . S
C1144 C1149 1.425 . S
C1144 C1151 1.409 . S
C1145 H1137 0.930 . S
C1145 C1143 1.419 . S
C1145 C1146 1.362 . S
C1146 H1138 0.930 . S
C1146 C1145 1.362 . S
C1146 C1149 1.409 . S
C1147 H1139 0.930 . S
C1147 C1148 1.355 . S
C1147 C1149 1.415 . S
C1148 C1147 1.355 . S
C1148 C1150 1.419 . S
C1149 C1144 1.425 . S
C1149 C1146 1.409 . S
C1149 C1147 1.415 . S
C1150 H1140 0.930 . S
C1150 C1148 1.419 . S
C1150 C1151 1.362 . S
C1151 H1141 0.930 . S
C1151 C1144 1.409 . S
C1151 C1150 1.362 . S
H1152 C1158 0.930 . S
H1153 C1161 0.930 . S
H1154 C1162 0.930 . S
H1155 C1163 0.930 . S
H1156 C1166 0.930 . S
H1157 C1167 0.930 . S
C1158 H1152 0.930 . S
C1158 C1159 1.355 . S
C1158 C1160 1.415 . S
C1159 C1158 1.355 . S
C1159 C1161 1.419 . S
C1160 C1158 1.415 . S
C1160 C1165 1.425 . S
C1160 C1167 1.409 . S
C1161 H1153 0.930 . S
C1161 C1159 1.419 . S
C1161 C1162 1.362 . S
C1162 H1154 0.930 . S
C1162 C1161 1.362 . S
C1162 C1165 1.409 . S
C1163 H1155 0.930 . S
C1163 C1164 1.355 . S
C1163 C1165 1.415 . S
C1164 C1163 1.355 . S
C1164 C1166 1.419 . S
C1165 C1160 1.425 . S
C1165 C1162 1.409 . S
C1165 C1163 1.415 . S
C1166 H1156 0.930 . S
C1166 C1164 1.419 . S
C1166 C1167 1.362 . S
C1167 H1157 0.930 . S
C1167 C1160 1.409 . S
C1167 C1166 1.362 . S
H1168 C1174 0.930 . S
H1169 C1177 0.930 . S
H1170 C1178 0.930 . S
H1171 C1179 0.930 . S
H1172 C1182 0.930 . S
H1173 C1183 0.930 . S
C1174 H1168 0.930 . S
C1174 C1175 1.355 . S
C1174 C1176 1.415 . S
C1175 C1174 1.355 . S
C1175 C1177 1.419 . S
C1176 C1174 1.415 . S
C1176 C1181 1.425 . S
C1176 C1183 1.409 . S
C1177 H1169 0.930 . S
C1177 C1175 1.419 . S
C1177 C1178 1.362 . S
C1178 H1170 0.930 . S
C1178 C1177 1.362 . S
C1178 C1181 1.409 . S
C1179 H1171 0.930 . S
C1179 C1180 1.355 . S
C1179 C1181 1.415 . S
C1180 C1179 1.355 . S
C1180 C1182 1.419 . S
C1181 C1176 1.425 . S
C1181 C1178 1.409 . S
C1181 C1179 1.415 . S
C1182 H1172 0.930 . S
C1182 C1180 1.419 . S
C1182 C1183 1.362 . S
C1183 H1173 0.930 . S
C1183 C1176 1.409 . S
C1183 C1182 1.362 . S
H1184 C1190 0.930 . S
H1185 C1193 0.930 . S
H1186 C1194 0.930 . S
H1187 C1195 0.930 . S
H1188 C1198 0.930 . S
H1189 C1199 0.930 . S
C1190 H1184 0.930 . S
C1190 C1191 1.355 . S
C1190 C1192 1.415 . S
C1191 C1190 1.355 . S
C1191 C1193 1.419 . S
C1192 C1190 1.415 . S
C1192 C1197 1.425 . S
C1192 C1199 1.409 . S
C1193 H1185 0.930 . S
C1193 C1191 1.419 . S
C1193 C1194 1.362 . S
C1194 H1186 0.930 . S
C1194 C1193 1.362 . S
C1194 C1197 1.409 . S
C1195 H1187 0.930 . S
C1195 C1196 1.355 . S
C1195 C1197 1.415 . S
C1196 C1195 1.355 . S
C1196 C1198 1.419 . S
C1197 C1192 1.425 . S
C1197 C1194 1.409 . S
C1197 C1195 1.415 . S
C1198 H1188 0.930 . S
C1198 C1196 1.419 . S
C1198 C1199 1.362 . S
C1199 H1189 0.930 . S
C1199 C1192 1.409 . S
C1199 C1198 1.362 . S
H1200 C1206 0.930 . S
H1201 C1209 0.930 . S
H1202 C1210 0.930 . S
H1203 C1211 0.930 . S
H1204 C1214 0.930 . S
H1205 C1215 0.930 . S
C1206 H1200 0.930 . S
C1206 C1207 1.355 . S
C1206 C1208 1.415 . S
C1207 C1206 1.355 . S
C1207 C1209 1.419 . S
C1208 C1206 1.415 . S
C1208 C1213 1.425 . S
C1208 C1215 1.409 . S
C1209 H1201 0.930 . S
C1209 C1207 1.419 . S
C1209 C1210 1.362 . S
C1210 H1202 0.930 . S
C1210 C1209 1.362 . S
C1210 C1213 1.409 . S
C1211 H1203 0.930 . S
C1211 C1212 1.355 . S
C1211 C1213 1.415 . S
C1212 C1211 1.355 . S
C1212 C1214 1.419 . S
C1213 C1208 1.425 . S
C1213 C1210 1.409 . S
C1213 C1211 1.415 . S
C1214 H1204 0.930 . S
C1214 C1212 1.419 . S
C1214 C1215 1.362 . S
C1215 H1205 0.930 . S
C1215 C1208 1.409 . S
C1215 C1214 1.362 . S
H1216 C1222 0.930 . S
H1217 C1225 0.930 . S
H1218 C1226 0.930 . S
H1219 C1227 0.930 . S
H1220 C1230 0.930 . S
H1221 C1231 0.930 . S
C1222 H1216 0.930 . S
C1222 C1223 1.355 . S
C1222 C1224 1.415 . S
C1223 C1222 1.355 . S
C1223 C1225 1.419 . S
C1224 C1222 1.415 . S
C1224 C1229 1.425 . S
C1224 C1231 1.409 . S
C1225 H1217 0.930 . S
C1225 C1223 1.419 . S
C1225 C1226 1.362 . S
C1226 H1218 0.930 . S
C1226 C1225 1.362 . S
C1226 C1229 1.409 . S
C1227 H1219 0.930 . S
C1227 C1228 1.355 . S
C1227 C1229 1.415 . S
C1228 C1227 1.355 . S
C1228 C1230 1.419 . S
C1229 C1224 1.425 . S
C1229 C1226 1.409 . S
C1229 C1227 1.415 . S
C1230 H1220 0.930 . S
C1230 C1228 1.419 . S
C1230 C1231 1.362 . S
C1231 H1221 0.930 . S
C1231 C1224 1.409 . S
C1231 C1230 1.362 . S
H1232 C1238 0.930 . S
H1233 C1241 0.930 . S
H1234 C1242 0.930 . S
H1235 C1243 0.930 . S
H1236 C1246 0.930 . S
H1237 C1247 0.930 . S
C1238 H1232 0.930 . S
C1238 C1239 1.355 . S
C1238 C1240 1.415 . S
C1239 C1238 1.355 . S
C1239 C1241 1.419 . S
C1240 C1238 1.415 . S
C1240 C1245 1.425 . S
C1240 C1247 1.409 . S
C1241 H1233 0.930 . S
C1241 C1239 1.419 . S
C1241 C1242 1.362 . S
C1242 H1234 0.930 . S
C1242 C1241 1.362 . S
C1242 C1245 1.409 . S
C1243 H1235 0.930 . S
C1243 C1244 1.355 . S
C1243 C1245 1.415 . S
C1244 C1243 1.355 . S
C1244 C1246 1.419 . S
C1245 C1240 1.425 . S
C1245 C1242 1.409 . S
C1245 C1243 1.415 . S
C1246 H1236 0.930 . S
C1246 C1244 1.419 . S
C1246 C1247 1.362 . S
C1247 H1237 0.930 . S
C1247 C1240 1.409 . S
C1247 C1246 1.362 . S
H1248 C1254 0.930 . S
H1249 C1257 0.930 . S
H1250 C1258 0.930 . S
H1251 C1259 0.930 . S
H1252 C1262 0.930 . S
H1253 C1263 0.930 . S
C1254 H1248 0.930 . S
C1254 C1255 1.355 . S
C1254 C1256 1.415 . S
C1255 C1254 1.355 . S
C1255 C1257 1.419 . S
C1256 C1254 1.415 . S
C1256 C1261 1.425 . S
C1256 C1263 1.409 . S
C1257 H1249 0.930 . S
C1257 C1255 1.419 . S
C1257 C1258 1.362 . S
C1258 H1250 0.930 . S
C1258 C1257 1.362 . S
C1258 C1261 1.409 . S
C1259 H1251 0.930 . S
C1259 C1260 1.355 . S
C1259 C1261 1.415 . S
C1260 C1259 1.355 . S
C1260 C1262 1.419 . S
C1261 C1256 1.425 . S
C1261 C1258 1.409 . S
C1261 C1259 1.415 . S
C1262 H1252 0.930 . S
C1262 C1260 1.419 . S
C1262 C1263 1.362 . S
C1263 H1253 0.930 . S
C1263 C1256 1.409 . S
C1263 C1262 1.362 . S
H1264 C1270 0.930 . S
H1265 C1273 0.930 . S
H1266 C1274 0.930 . S
H1267 C1275 0.930 . S
H1268 C1278 0.930 . S
H1269 C1279 0.930 . S
C1270 H1264 0.930 . S
C1270 C1271 1.355 . S
C1270 C1272 1.415 . S
C1271 C1270 1.355 . S
C1271 C1273 1.419 . S
C1272 C1270 1.415 . S
C1272 C1277 1.425 . S
C1272 C1279 1.409 . S
C1273 H1265 0.930 . S
C1273 C1271 1.419 . S
C1273 C1274 1.362 . S
C1274 H1266 0.930 . S
C1274 C1273 1.362 . S
C1274 C1277 1.409 . S
C1275 H1267 0.930 . S
C1275 C1276 1.355 . S
C1275 C1277 1.415 . S
C1276 C1275 1.355 . S
C1276 C1278 1.419 . S
C1277 C1272 1.425 . S
C1277 C1274 1.409 . S
C1277 C1275 1.415 . S
C1278 H1268 0.930 . S
C1278 C1276 1.419 . S
C1278 C1279 1.362 . S
C1279 H1269 0.930 . S
C1279 C1272 1.409 . S
C1279 C1278 1.362 . S
H1280 C1286 0.930 . S
H1281 C1289 0.930 . S
H1282 C1290 0.930 . S
H1283 C1291 0.930 . S
H1284 C1294 0.930 . S
H1285 C1295 0.930 . S
C1286 H1280 0.930 . S
C1286 C1287 1.355 . S
C1286 C1288 1.415 . S
C1287 C1286 1.355 . S
C1287 C1289 1.419 . S
C1288 C1286 1.415 . S
C1288 C1293 1.425 . S
C1288 C1295 1.409 . S
C1289 H1281 0.930 . S
C1289 C1287 1.419 . S
C1289 C1290 1.362 . S
C1290 H1282 0.930 . S
C1290 C1289 1.362 . S
C1290 C1293 1.409 . S
C1291 H1283 0.930 . S
C1291 C1292 1.355 . S
C1291 C1293 1.415 . S
C1292 C1291 1.355 . S
C1292 C1294 1.419 . S
C1293 C1288 1.425 . S
C1293 C1290 1.409 . S
C1293 C1291 1.415 . S
C1294 H1284 0.930 . S
C1294 C1292 1.419 . S
C1294 C1295 1.362 . S
C1295 H1285 0.930 . S
C1295 C1288 1.409 . S
C1295 C1294 1.362 . S
H1296 C1302 0.930 . S
H1297 C1305 0.930 . S
H1298 C1306 0.930 . S
H1299 C1307 0.930 . S
H1300 C1310 0.930 . S
H1301 C1311 0.930 . S
C1302 H1296 0.930 . S
C1302 C1303 1.355 . S
C1302 C1304 1.415 . S
C1303 C1302 1.355 . S
C1303 C1305 1.419 . S
C1304 C1302 1.415 . S
C1304 C1309 1.425 . S
C1304 C1311 1.409 . S
C1305 H1297 0.930 . S
C1305 C1303 1.419 . S
C1305 C1306 1.362 . S
C1306 H1298 0.930 . S
C1306 C1305 1.362 . S
C1306 C1309 1.409 . S
C1307 H1299 0.930 . S
C1307 C1308 1.355 . S
C1307 C1309 1.415 . S
C1308 C1307 1.355 . S
C1308 C1310 1.419 . S
C1309 C1304 1.425 . S
C1309 C1306 1.409 . S
C1309 C1307 1.415 . S
C1310 H1300 0.930 . S
C1310 C1308 1.419 . S
C1310 C1311 1.362 . S
C1311 H1301 0.930 . S
C1311 C1304 1.409 . S
C1311 C1310 1.362 . S
H1312 C1318 0.930 . S
H1313 C1321 0.930 . S
H1314 C1322 0.930 . S
H1315 C1323 0.930 . S
H1316 C1326 0.930 . S
H1317 C1327 0.930 . S
C1318 H1312 0.930 . S
C1318 C1319 1.355 . S
C1318 C1320 1.415 . S
C1319 C1318 1.355 . S
C1319 C1321 1.419 . S
C1320 C1318 1.415 . S
C1320 C1325 1.425 . S
C1320 C1327 1.409 . S
C1321 H1313 0.930 . S
C1321 C1319 1.419 . S
C1321 C1322 1.362 . S
C1322 H1314 0.930 . S
C1322 C1321 1.362 . S
C1322 C1325 1.409 . S
C1323 H1315 0.930 . S
C1323 C1324 1.355 . S
C1323 C1325 1.415 . S
C1324 C1323 1.355 . S
C1324 C1326 1.419 . S
C1325 C1320 1.425 . S
C1325 C1322 1.409 . S
C1325 C1323 1.415 . S
C1326 H1316 0.930 . S
C1326 C1324 1.419 . S
C1326 C1327 1.362 . S
C1327 H1317 0.930 . S
C1327 C1320 1.409 . S
C1327 C1326 1.362 . S
H1328 C1334 0.930 . S
H1329 C1337 0.930 . S
H1330 C1338 0.930 . S
H1331 C1339 0.930 . S
H1332 C1342 0.930 . S
H1333 C1343 0.930 . S
C1334 H1328 0.930 . S
C1334 C1335 1.355 . S
C1334 C1336 1.415 . S
C1335 C1334 1.355 . S
C1335 C1337 1.419 . S
C1336 C1334 1.415 . S
C1336 C1341 1.425 . S
C1336 C1343 1.409 . S
C1337 H1329 0.930 . S
C1337 C1335 1.419 . S
C1337 C1338 1.362 . S
C1338 H1330 0.930 . S
C1338 C1337 1.362 . S
C1338 C1341 1.409 . S
C1339 H1331 0.930 . S
C1339 C1340 1.355 . S
C1339 C1341 1.415 . S
C1340 C1339 1.355 . S
C1340 C1342 1.419 . S
C1341 C1336 1.425 . S
C1341 C1338 1.409 . S
C1341 C1339 1.415 . S
C1342 H1332 0.930 . S
C1342 C1340 1.419 . S
C1342 C1343 1.362 . S
C1343 H1333 0.930 . S
C1343 C1336 1.409 . S
C1343 C1342 1.362 . S
H1344 C1350 0.930 . S
H1345 C1353 0.930 . S
H1346 C1354 0.930 . S
H1347 C1355 0.930 . S
H1348 C1358 0.930 . S
H1349 C1359 0.930 . S
C1350 H1344 0.930 . S
C1350 C1351 1.355 . S
C1350 C1352 1.415 . S
C1351 C1350 1.355 . S
C1351 C1353 1.419 . S
C1352 C1350 1.415 . S
C1352 C1357 1.425 . S
C1352 C1359 1.409 . S
C1353 H1345 0.930 . S
C1353 C1351 1.419 . S
C1353 C1354 1.362 . S
C1354 H1346 0.930 . S
C1354 C1353 1.362 . S
C1354 C1357 1.409 . S
C1355 H1347 0.930 . S
C1355 C1356 1.355 . S
C1355 C1357 1.415 . S
C1356 C1355 1.355 . S
C1356 C1358 1.419 . S
C1357 C1352 1.425 . S
C1357 C1354 1.409 . S
C1357 C1355 1.415 . S
C1358 H1348 0.930 . S
C1358 C1356 1.419 . S
C1358 C1359 1.362 . S
C1359 H1349 0.930 . S
C1359 C1352 1.409 . S
C1359 C1358 1.362 . S
H1360 C1366 0.930 . S
H1361 C1369 0.930 . S
H1362 C1370 0.930 . S
H1363 C1371 0.930 . S
H1364 C1374 0.930 . S
H1365 C1375 0.930 . S
C1366 H1360 0.930 . S
C1366 C1367 1.355 . S
C1366 C1368 1.415 . S
C1367 C1366 1.355 . S
C1367 C1369 1.419 . S
C1368 C1366 1.415 . S
C1368 C1373 1.425 . S
C1368 C1375 1.409 . S
C1369 H1361 0.930 . S
C1369 C1367 1.419 . S
C1369 C1370 1.362 . S
C1370 H1362 0.930 . S
C1370 C1369 1.362 . S
C1370 C1373 1.409 . S
C1371 H1363 0.930 . S
C1371 C1372 1.355 . S
C1371 C1373 1.415 . S
C1372 C1371 1.355 . S
C1372 C1374 1.419 . S
C1373 C1368 1.425 . S
C1373 C1370 1.409 . S
C1373 C1371 1.415 . S
C1374 H1364 0.930 . S
C1374 C1372 1.419 . S
C1374 C1375 1.362 . S
C1375 H1365 0.930 . S
C1375 C1368 1.409 . S
C1375 C1374 1.362 . S
H1376 C1382 0.930 . S
H1377 C1385 0.930 . S
H1378 C1386 0.930 . S
H1379 C1387 0.930 . S
H1380 C1390 0.930 . S
H1381 C1391 0.930 . S
C1382 H1376 0.930 . S
C1382 C1383 1.355 . S
C1382 C1384 1.415 . S
C1383 C1382 1.355 . S
C1383 C1385 1.419 . S
C1384 C1382 1.415 . S
C1384 C1389 1.425 . S
C1384 C1391 1.409 . S
C1385 H1377 0.930 . S
C1385 C1383 1.419 . S
C1385 C1386 1.362 . S
C1386 H1378 0.930 . S
C1386 C1385 1.362 . S
C1386 C1389 1.409 . S
C1387 H1379 0.930 . S
C1387 C1388 1.355 . S
C1387 C1389 1.415 . S
C1388 C1387 1.355 . S
C1388 C1390 1.419 . S
C1389 C1384 1.425 . S
C1389 C1386 1.409 . S
C1389 C1387 1.415 . S
C1390 H1380 0.930 . S
C1390 C1388 1.419 . S
C1390 C1391 1.362 . S
C1391 H1381 0.930 . S
C1391 C1384 1.409 . S
C1391 C1390 1.362 . S
H1392 C1398 0.930 . S
H1393 C1401 0.930 . S
H1394 C1402 0.930 . S
H1395 C1403 0.930 . S
H1396 C1406 0.930 . S
H1397 C1407 0.930 . S
C1398 H1392 0.930 . S
C1398 C1399 1.355 . S
C1398 C1400 1.415 . S
C1399 C1398 1.355 . S
C1399 C1401 1.419 . S
C1400 C1398 1.415 . S
C1400 C1405 1.425 . S
C1400 C1407 1.409 . S
C1401 H1393 0.930 . S
C1401 C1399 1.419 . S
C1401 C1402 1.362 . S
C1402 H1394 0.930 . S
C1402 C1401 1.362 . S
C1402 C1405 1.409 . S
C1403 H1395 0.930 . S
C1403 C1404 1.355 . S
C1403 C1405 1.415 . S
C1404 C1403 1.355 . S
C1404 C1406 1.419 . S
C1405 C1400 1.425 . S
C1405 C1402 1.409 . S
C1405 C1403 1.415 . S
C1406 H1396 0.930 . S
C1406 C1404 1.419 . S
C1406 C1407 1.362 . S
C1407 H1397 0.930 . S
C1407 C1400 1.409 . S
C1407 C1406 1.362 . S
H1408 C1414 0.930 . S
H1409 C1417 0.930 . S
H1410 C1418 0.930 . S
H1411 C1419 0.930 . S
H1412 C1422 0.930 . S
H1413 C1423 0.930 . S
C1414 H1408 0.930 . S
C1414 C1415 1.355 . S
C1414 C1416 1.415 . S
C1415 C1414 1.355 . S
C1415 C1417 1.419 . S
C1416 C1414 1.415 . S
C1416 C1421 1.425 . S
C1416 C1423 1.409 . S
C1417 H1409 0.930 . S
C1417 C1415 1.419 . S
C1417 C1418 1.362 . S
C1418 H1410 0.930 . S
C1418 C1417 1.362 . S
C1418 C1421 1.409 . S
C1419 H1411 0.930 . S
C1419 C1420 1.355 . S
C1419 C1421 1.415 . S
C1420 C1419 1.355 . S
C1420 C1422 1.419 . S
C1421 C1416 1.425 . S
C1421 C1418 1.409 . S
C1421 C1419 1.415 . S
C1422 H1412 0.930 . S
C1422 C1420 1.419 . S
C1422 C1423 1.362 . S
C1423 H1413 0.930 . S
C1423 C1416 1.409 . S
C1423 C1422 1.362 . S
H1424 C1430 0.930 . S
H1425 C1433 0.930 . S
H1426 C1434 0.930 . S
H1427 C1435 0.930 . S
H1428 C1438 0.930 . S
H1429 C1439 0.930 . S
C1430 H1424 0.930 . S
C1430 C1431 1.355 . S
C1430 C1432 1.415 . S
C1431 C1430 1.355 . S
C1431 C1433 1.419 . S
C1432 C1430 1.415 . S
C1432 C1437 1.425 . S
C1432 C1439 1.409 . S
C1433 H1425 0.930 . S
C1433 C1431 1.419 . S
C1433 C1434 1.362 . S
C1434 H1426 0.930 . S
C1434 C1433 1.362 . S
C1434 C1437 1.409 . S
C1435 H1427 0.930 . S
C1435 C1436 1.355 . S
C1435 C1437 1.415 . S
C1436 C1435 1.355 . S
C1436 C1438 1.419 . S
C1437 C1432 1.425 . S
C1437 C1434 1.409 . S
C1437 C1435 1.415 . S
C1438 H1428 0.930 . S
C1438 C1436 1.419 . S
C1438 C1439 1.362 . S
C1439 H1429 0.930 . S
C1439 C1432 1.409 . S
C1439 C1438 1.362 . S
H1440 C1446 0.930 . S
H1441 C1449 0.930 . S
H1442 C1450 0.930 . S
H1443 C1451 0.930 . S
H1444 C1454 0.930 . S
H1445 C1455 0.930 . S
C1446 H1440 0.930 . S
C1446 C1447 1.355 . S
C1446 C1448 1.415 . S
C1447 C1446 1.355 . S
C1447 C1449 1.419 . S
C1448 C1446 1.415 . S
C1448 C1453 1.425 . S
C1448 C1455 1.409 . S
C1449 H1441 0.930 . S
C1449 C1447 1.419 . S
C1449 C1450 1.362 . S
C1450 H1442 0.930 . S
C1450 C1449 1.362 . S
C1450 C1453 1.409 . S
C1451 H1443 0.930 . S
C1451 C1452 1.355 . S
C1451 C1453 1.415 . S
C1452 C1451 1.355 . S
C1452 C1454 1.419 . S
C1453 C1448 1.425 . S
C1453 C1450 1.409 . S
C1453 C1451 1.415 . S
C1454 H1444 0.930 . S
C1454 C1452 1.419 . S
C1454 C1455 1.362 . S
C1455 H1445 0.930 . S
C1455 C1448 1.409 . S
C1455 C1454 1.362 . S
H1456 C1462 0.930 . S
H1457 C1465 0.930 . S
H1458 C1466 0.930 . S
H1459 C1467 0.930 . S
H1460 C1470 0.930 . S
H1461 C1471 0.930 . S
C1462 H1456 0.930 . S
C1462 C1463 1.355 . S
C1462 C1464 1.415 . S
C1463 C1462 1.355 . S
C1463 C1465 1.419 . S
C1464 C1462 1.415 . S
C1464 C1469 1.425 . S
C1464 C1471 1.409 . S
C1465 H1457 0.930 . S
C1465 C1463 1.419 . S
C1465 C1466 1.362 . S
C1466 H1458 0.930 . S
C1466 C1465 1.362 . S
C1466 C1469 1.409 . S
C1467 H1459 0.930 . S
C1467 C1468 1.355 . S
C1467 C1469 1.415 . S
C1468 C1467 1.355 . S
C1468 C1470 1.419 . S
C1469 C1464 1.425 . S
C1469 C1466 1.409 . S
C1469 C1467 1.415 . S
C1470 H1460 0.930 . S
C1470 C1468 1.419 . S
C1470 C1471 1.362 . S
C1471 H1461 0.930 . S
C1471 C1464 1.409 . S
C1471 C1470 1.362 . S
H1472 C1478 0.930 . S
H1473 C1481 0.930 . S
H1474 C1482 0.930 . S
H1475 C1483 0.930 . S
H1476 C1486 0.930 . S
H1477 C1487 0.930 . S
C1478 H1472 0.930 . S
C1478 C1479 1.355 . S
C1478 C1480 1.415 . S
C1479 C1478 1.355 . S
C1479 C1481 1.419 . S
C1480 C1478 1.415 . S
C1480 C1485 1.425 . S
C1480 C1487 1.409 . S
C1481 H1473 0.930 . S
C1481 C1479 1.419 . S
C1481 C1482 1.362 . S
C1482 H1474 0.930 . S
C1482 C1481 1.362 . S
C1482 C1485 1.409 . S
C1483 H1475 0.930 . S
C1483 C1484 1.355 . S
C1483 C1485 1.415 . S
C1484 C1483 1.355 . S
C1484 C1486 1.419 . S
C1485 C1480 1.425 . S
C1485 C1482 1.409 . S
C1485 C1483 1.415 . S
C1486 H1476 0.930 . S
C1486 C1484 1.419 . S
C1486 C1487 1.362 . S
C1487 H1477 0.930 . S
C1487 C1480 1.409 . S
C1487 C1486 1.362 . S
H1488 C1494 0.930 . S
H1489 C1497 0.930 . S
H1490 C1498 0.930 . S
H1491 C1499 0.930 . S
H1492 C1502 0.930 . S
H1493 C1503 0.930 . S
C1494 H1488 0.930 . S
C1494 C1495 1.355 . S
C1494 C1496 1.415 . S
C1495 C1494 1.355 . S
C1495 C1497 1.419 . S
C1496 C1494 1.415 . S
C1496 C1501 1.425 . S
C1496 C1503 1.409 . S
C1497 H1489 0.930 . S
C1497 C1495 1.419 . S
C1497 C1498 1.362 . S
C1498 H1490 0.930 . S
C1498 C1497 1.362 . S
C1498 C1501 1.409 . S
C1499 H1491 0.930 . S
C1499 C1500 1.355 . S
C1499 C1501 1.415 . S
C1500 C1499 1.355 . S
C1500 C1502 1.419 . S
C1501 C1496 1.425 . S
C1501 C1498 1.409 . S
C1501 C1499 1.415 . S
C1502 H1492 0.930 . S
C1502 C1500 1.419 . S
C1502 C1503 1.362 . S
C1503 H1493 0.930 . S
C1503 C1496 1.409 . S
C1503 C1502 1.362 . S
H1504 C1510 0.930 . S
H1505 C1513 0.930 . S
H1506 C1514 0.930 . S
H1507 C1515 0.930 . S
H1508 C1518 0.930 . S
H1509 C1519 0.930 . S
C1510 H1504 0.930 . S
C1510 C1511 1.355 . S
C1510 C1512 1.415 . S
C1511 C1510 1.355 . S
C1511 C1513 1.419 . S
C1512 C1510 1.415 . S
C1512 C1517 1.425 . S
C1512 C1519 1.409 . S
C1513 H1505 0.930 . S
C1513 C1511 1.419 . S
C1513 C1514 1.362 . S
C1514 H1506 0.930 . S
C1514 C1513 1.362 . S
C1514 C1517 1.409 . S
C1515 H1507 0.930 . S
C1515 C1516 1.355 . S
C1515 C1517 1.415 . S
C1516 C1515 1.355 . S
C1516 C1518 1.419 . S
C1517 C1512 1.425 . S
C1517 C1514 1.409 . S
C1517 C1515 1.415 . S
C1518 H1508 0.930 . S
C1518 C1516 1.419 . S
C1518 C1519 1.362 . S
C1519 H1509 0.930 . S
C1519 C1512 1.409 . S
C1519 C1518 1.362 . S
H1520 C1526 0.930 . S
H1521 C1529 0.930 . S
H1522 C1530 0.930 . S
H1523 C1531 0.930 . S
H1524 C1534 0.930 . S
H1525 C1535 0.930 . S
C1526 H1520 0.930 . S
C1526 C1527 1.355 . S
C1526 C1528 1.415 . S
C1527 C1526 1.355 . S
C1527 C1529 1.419 . S
C1528 C1526 1.415 . S
C1528 C1533 1.425 . S
C1528 C1535 1.409 . S
C1529 H1521 0.930 . S
C1529 C1527 1.419 . S
C1529 C1530 1.362 . S
C1530 H1522 0.930 . S
C1530 C1529 1.362 . S
C1530 C1533 1.409 . S
C1531 H1523 0.930 . S
C1531 C1532 1.355 . S
C1531 C1533 1.415 . S
C1532 C1531 1.355 . S
C1532 C1534 1.419 . S
C1533 C1528 1.425 . S
C1533 C1530 1.409 . S
C1533 C1531 1.415 . S
C1534 H1524 0.930 . S
C1534 C1532 1.419 . S
C1534 C1535 1.362 . S
C1535 H1525 0.930 . S
C1535 C1528 1.409 . S
C1535 C1534 1.362 . S
H1536 C1542 0.930 . S
H1537 C1545 0.930 . S
H1538 C1546 0.930 . S
H1539 C1547 0.930 . S
H1540 C1550 0.930 . S
H1541 C1551 0.930 . S
C1542 H1536 0.930 . S
C1542 C1543 1.355 . S
C1542 C1544 1.415 . S
C1543 C1542 1.355 . S
C1543 C1545 1.419 . S
C1544 C1542 1.415 . S
C1544 C1549 1.425 . S
C1544 C1551 1.409 . S
C1545 H1537 0.930 . S
C1545 C1543 1.419 . S
C1545 C1546 1.362 . S
C1546 H1538 0.930 . S
C1546 C1545 1.362 . S
C1546 C1549 1.409 . S
C1547 H1539 0.930 . S
C1547 C1548 1.355 . S
C1547 C1549 1.415 . S
C1548 C1547 1.355 . S
C1548 C1550 1.419 . S
C1549 C1544 1.425 . S
C1549 C1546 1.409 . S
C1549 C1547 1.415 . S
C1550 H1540 0.930 . S
C1550 C1548 1.419 . S
C1550 C1551 1.362 . S
C1551 H1541 0.930 . S
C1551 C1544 1.409 . S
C1551 C1550 1.362 . S
H1552 C1558 0.930 . S
H1553 C1561 0.930 . S
H1554 C1562 0.930 . S
H1555 C1563 0.930 . S
H1556 C1566 0.930 . S
H1557 C1567 0.930 . S
C1558 H1552 0.930 . S
C1558 C1559 1.355 . S
C1558 C1560 1.415 . S
C1559 C1558 1.355 . S
C1559 C1561 1.419 . S
C1560 C1558 1.415 . S
C1560 C1565 1.425 . S
C1560 C1567 1.409 . S
C1561 H1553 0.930 . S
C1561 C1559 1.419 . S
C1561 C1562 1.362 . S
C1562 H1554 0.930 . S
C1562 C1561 1.362 . S
C1562 C1565 1.409 . S
C1563 H1555 0.930 . S
C1563 C1564 1.355 . S
C1563 C1565 1.415 . S
C1564 C1563 1.355 . S
C1564 C1566 1.419 . S
C1565 C1560 1.425 . S
C1565 C1562 1.409 . S
C1565 C1563 1.415 . S
C1566 H1556 0.930 . S
C1566 C1564 1.419 . S
C1566 C1567 1.362 . S
C1567 H1557 0.930 . S
C1567 C1560 1.409 . S
C1567 C1566 1.362 . S
H1568 C1574 0.930 . S
H1569 C1577 0.930 . S
H1570 C1578 0.930 . S
H1571 C1579 0.930 . S
H1572 C1582 0.930 . S
H1573 C1583 0.930 . S
C1574 H1568 0.930 . S
C1574 C1575 1.355 . S
C1574 C1576 1.415 . S
C1575 C1574 1.355 . S
C1575 C1577 1.419 . S
C1576 C1574 1.415 . S
C1576 C1581 1.425 . S
C1576 C1583 1.409 . S
C1577 H1569 0.930 . S
C1577 C1575 1.419 . S
C1577 C1578 1.362 . S
C1578 H1570 0.930 . S
C1578 C1577 1.362 . S
C1578 C1581 1.409 . S
C1579 H1571 0.930 . S
C1579 C1580 1.355 . S
C1579 C1581 1.415 . S
C1580 C1579 1.355 . S
C1580 C1582 1.419 . S
C1581 C1576 1.425 . S
C1581 C1578 1.409 . S
C1581 C1579 1.415 . S
C1582 H1572 0.930 . S
C1582 C1580 1.419 . S
C1582 C1583 1.362 . S
C1583 H1573 0.930 . S
C1583 C1576 1.409 . S
C1583 C1582 1.362 . S
H1584 C1590 0.930 . S
H1585 C1593 0.930 . S
H1586 C1594 0.930 . S
H1587 C1595 0.930 . S
H1588 C1598 0.930 . S
H1589 C1599 0.930 . S
C1590 H1584 0.930 . S
C1590 C1591 1.355 . S
C1590 C1592 1.415 . S
C1591 C1590 1.355 . S
C1591 C1593 1.419 . S
C1592 C1590 1.415 . S
C1592 C1597 1.425 . S
C1592 C1599 1.409 . S
C1593 H1585 0.930 . S
C1593 C1591 1.419 . S
C1593 C1594 1.362 . S
C1594 H1586 0.930 . S
C1594 C1593 1.362 . S
C1594 C1597 1.409 . S
C1595 H1587 0.930 . S
C1595 C1596 1.355 . S
C1595 C1597 1.415 . S
C1596 C1595 1.355 . S
C1596 C1598 1.419 . S
C1597 C1592 1.425 . S
C1597 C1594 1.409 . S
C1597 C1595 1.415 . S
C1598 H1588 0.930 . S
C1598 C1596 1.419 . S
C1598 C1599 1.362 . S
C1599 H1589 0.930 . S
C1599 C1592 1.409 . S
C1599 C1598 1.362 . S
H1600 C1606 0.930 . S
H1601 C1609 0.930 . S
H1602 C1610 0.930 . S
H1603 C1611 0.930 . S
H1604 C1614 0.930 . S
H1605 C1615 0.930 . S
C1606 H1600 0.930 . S
C1606 C1607 1.355 . S
C1606 C1608 1.415 . S
C1607 C1606 1.355 . S
C1607 C1609 1.419 . S
C1608 C1606 1.415 . S
C1608 C1613 1.425 . S
C1608 C1615 1.409 . S
C1609 H1601 0.930 . S
C1609 C1607 1.419 . S
C1609 C1610 1.362 . S
C1610 H1602 0.930 . S
C1610 C1609 1.362 . S
C1610 C1613 1.409 . S
C1611 H1603 0.930 . S
C1611 C1612 1.355 . S
C1611 C1613 1.415 . S
C1612 C1611 1.355 . S
C1612 C1614 1.419 . S
C1613 C1608 1.425 . S
C1613 C1610 1.409 . S
C1613 C1611 1.415 . S
C1614 H1604 0.930 . S
C1614 C1612 1.419 . S
C1614 C1615 1.362 . S
C1615 H1605 0.930 . S
C1615 C1608 1.409 . S
C1615 C1614 1.362 . S
H1616 C1622 0.930 . S
H1617 C1625 0.930 . S
H1618 C1626 0.930 . S
H1619 C1627 0.930 . S
H1620 C1630 0.930 . S
H1621 C1631 0.930 . S
C1622 H1616 0.930 . S
C1622 C1623 1.355 . S
C1622 C1624 1.415 . S
C1623 C1622 1.355 . S
C1623 C1625 1.419 . S
C1624 C1622 1.415 . S
C1624 C1629 1.425 . S
C1624 C1631 1.409 . S
C1625 H1617 0.930 . S
C1625 C1623 1.419 . S
C1625 C1626 1.362 . S
C1626 H1618 0.930 . S
C1626 C1625 1.362 . S
C1626 C1629 1.409 . S
C1627 H1619 0.930 . S
C1627 C1628 1.355 . S
C1627 C1629 1.415 . S
C1628 C1627 1.355 . S
C1628 C1630 1.419 . S
C1629 C1624 1.425 . S
C1629 C1626 1.409 . S
C1629 C1627 1.415 . S
C1630 H1620 0.930 . S
C1630 C1628 1.419 . S
C1630 C1631 1.362 . S
C1631 H1621 0.930 . S
C1631 C1624 1.409 . S
C1631 C1630 1.362 . S
H1632 C1638 0.930 . S
H1633 C1641 0.930 . S
H1634 C1642 0.930 . S
H1635 C1643 0.930 . S
H1636 C1646 0.930 . S
H1637 C1647 0.930 . S
C1638 H1632 0.930 . S
C1638 C1639 1.355 . S
C1638 C1640 1.415 . S
C1639 C1638 1.355 . S
C1639 C1641 1.419 . S
C1640 C1638 1.415 . S
C1640 C1645 1.425 . S
C1640 C1647 1.409 . S
C1641 H1633 0.930 . S
C1641 C1639 1.419 . S
C1641 C1642 1.362 . S
C1642 H1634 0.930 . S
C1642 C1641 1.362 . S
C1642 C1645 1.409 . S
C1643 H1635 0.930 . S
C1643 C1644 1.355 . S
C1643 C1645 1.415 . S
C1644 C1643 1.355 . S
C1644 C1646 1.419 . S
C1645 C1640 1.425 . S
C1645 C1642 1.409 . S
C1645 C1643 1.415 . S
C1646 H1636 0.930 . S
C1646 C1644 1.419 . S
C1646 C1647 1.362 . S
C1647 H1637 0.930 . S
C1647 C1640 1.409 . S
C1647 C1646 1.362 . S
H1648 C1654 0.930 . S
H1649 C1657 0.930 . S
H1650 C1658 0.930 . S
H1651 C1659 0.930 . S
H1652 C1662 0.930 . S
H1653 C1663 0.930 . S
C1654 H1648 0.930 . S
C1654 C1655 1.355 . S
C1654 C1656 1.415 . S
C1655 C1654 1.355 . S
C1655 C1657 1.419 . S
C1656 C1654 1.415 . S
C1656 C1661 1.425 . S
C1656 C1663 1.409 . S
C1657 H1649 0.930 . S
C1657 C1655 1.419 . S
C1657 C1658 1.362 . S
C1658 H1650 0.930 . S
C1658 C1657 1.362 . S
C1658 C1661 1.409 . S
C1659 H1651 0.930 . S
C1659 C1660 1.355 . S
C1659 C1661 1.415 . S
C1660 C1659 1.355 . S
C1660 C1662 1.419 . S
C1661 C1656 1.425 . S
C1661 C1658 1.409 . S
C1661 C1659 1.415 . S
C1662 H1652 0.930 . S
C1662 C1660 1.419 . S
C1662 C1663 1.362 . S
C1663 H1653 0.930 . S
C1663 C1656 1.409 . S
C1663 C1662 1.362 . S
H1664 C1670 0.930 . S
H1665 C1673 0.930 . S
H1666 C1674 0.930 . S
H1667 C1675 0.930 . S
H1668 C1678 0.930 . S
H1669 C1679 0.930 . S
C1670 H1664 0.930 . S
C1670 C1671 1.355 . S
C1670 C1672 1.415 . S
C1671 C1670 1.355 . S
C1671 C1673 1.419 . S
C1672 C1670 1.415 . S
C1672 C1677 1.425 . S
C1672 C1679 1.409 . S
C1673 H1665 0.930 . S
C1673 C1671 1.419 . S
C1673 C1674 1.362 . S
C1674 H1666 0.930 . S
C1674 C1673 1.362 . S
C1674 C1677 1.409 . S
C1675 H1667 0.930 . S
C1675 C1676 1.355 . S
C1675 C1677 1.415 . S
C1676 C1675 1.355 . S
C1676 C1678 1.419 . S
C1677 C1672 1.425 . S
C1677 C1674 1.409 . S
C1677 C1675 1.415 . S
C1678 H1668 0.930 . S
C1678 C1676 1.419 . S
C1678 C1679 1.362 . S
C1679 H1669 0.930 . S
C1679 C1672 1.409 . S
C1679 C1678 1.362 . S
H1680 C1686 0.930 . S
H1681 C1689 0.930 . S
H1682 C1690 0.930 . S
H1683 C1691 0.930 . S
H1684 C1694 0.930 . S
H1685 C1695 0.930 . S
C1686 H1680 0.930 . S
C1686 C1687 1.355 . S
C1686 C1688 1.415 . S
C1687 C1686 1.355 . S
C1687 C1689 1.419 . S
C1688 C1686 1.415 . S
C1688 C1693 1.425 . S
C1688 C1695 1.409 . S
C1689 H1681 0.930 . S
C1689 C1687 1.419 . S
C1689 C1690 1.362 . S
C1690 H1682 0.930 . S
C1690 C1689 1.362 . S
C1690 C1693 1.409 . S
C1691 H1683 0.930 . S
C1691 C1692 1.355 . S
C1691 C1693 1.415 . S
C1692 C1691 1.355 . S
C1692 C1694 1.419 . S
C1693 C1688 1.425 . S
C1693 C1690 1.409 . S
C1693 C1691 1.415 . S
C1694 H1684 0.930 . S
C1694 C1692 1.419 . S
C1694 C1695 1.362 . S
C1695 H1685 0.930 . S
C1695 C1688 1.409 . S
C1695 C1694 1.362 . S
H1696 C1702 0.930 . S
H1697 C1705 0.930 . S
H1698 C1706 0.930 . S
H1699 C1707 0.930 . S
H1700 C1710 0.930 . S
H1701 C1711 0.930 . S
C1702 H1696 0.930 . S
C1702 C1703 1.355 . S
C1702 C1704 1.415 . S
C1703 C1702 1.355 . S
C1703 C1705 1.419 . S
C1704 C1702 1.415 . S
C1704 C1709 1.425 . S
C1704 C1711 1.409 . S
C1705 H1697 0.930 . S
C1705 C1703 1.419 . S
C1705 C1706 1.362 . S
C1706 H1698 0.930 . S
C1706 C1705 1.362 . S
C1706 C1709 1.409 . S
C1707 H1699 0.930 . S
C1707 C1708 1.355 . S
C1707 C1709 1.415 . S
C1708 C1707 1.355 . S
C1708 C1710 1.419 . S
C1709 C1704 1.425 . S
C1709 C1706 1.409 . S
C1709 C1707 1.415 . S
C1710 H1700 0.930 . S
C1710 C1708 1.419 . S
C1710 C1711 1.362 . S
C1711 H1701 0.930 . S
C1711 C1704 1.409 . S
C1711 C1710 1.362 . S
H1712 C1718 0.930 . S
H1713 C1721 0.930 . S
H1714 C1722 0.930 . S
H1715 C1723 0.930 . S
H1716 C1726 0.930 . S
H1717 C1727 0.930 . S
C1718 H1712 0.930 . S
C1718 C1719 1.355 . S
C1718 C1720 1.415 . S
C1719 C1718 1.355 . S
C1719 C1721 1.419 . S
C1720 C1718 1.415 . S
C1720 C1725 1.425 . S
C1720 C1727 1.409 . S
C1721 H1713 0.930 . S
C1721 C1719 1.419 . S
C1721 C1722 1.362 . S
C1722 H1714 0.930 . S
C1722 C1721 1.362 . S
C1722 C1725 1.409 . S
C1723 H1715 0.930 . S
C1723 C1724 1.355 . S
C1723 C1725 1.415 . S
C1724 C1723 1.355 . S
C1724 C1726 1.419 . S
C1725 C1720 1.425 . S
C1725 C1722 1.409 . S
C1725 C1723 1.415 . S
C1726 H1716 0.930 . S
C1726 C1724 1.419 . S
C1726 C1727 1.362 . S
C1727 H1717 0.930 . S
C1727 C1720 1.409 . S
C1727 C1726 1.362 . S
H1728 C1734 0.930 . S
H1729 C1737 0.930 . S
H1730 C1738 0.930 . S
H1731 C1739 0.930 . S
H1732 C1742 0.930 . S
H1733 C1743 0.930 . S
C1734 H1728 0.930 . S
C1734 C1735 1.355 . S
C1734 C1736 1.415 . S
C1735 C1734 1.355 . S
C1735 C1737 1.419 . S
C1736 C1734 1.415 . S
C1736 C1741 1.425 . S
C1736 C1743 1.409 . S
C1737 H1729 0.930 . S
C1737 C1735 1.419 . S
C1737 C1738 1.362 . S
C1738 H1730 0.930 . S
C1738 C1737 1.362 . S
C1738 C1741 1.409 . S
C1739 H1731 0.930 . S
C1739 C1740 1.355 . S
C1739 C1741 1.415 . S
C1740 C1739 1.355 . S
C1740 C1742 1.419 . S
C1741 C1736 1.425 . S
C1741 C1738 1.409 . S
C1741 C1739 1.415 . S
C1742 H1732 0.930 . S
C1742 C1740 1.419 . S
C1742 C1743 1.362 . S
C1743 H1733 0.930 . S
C1743 C1736 1.409 . S
C1743 C1742 1.362 . S
H1744 C1750 0.930 . S
H1745 C1753 0.930 . S
H1746 C1754 0.930 . S
H1747 C1755 0.930 . S
H1748 C1758 0.930 . S
H1749 C1759 0.930 . S
C1750 H1744 0.930 . S
C1750 C1751 1.355 . S
C1750 C1752 1.415 . S
C1751 C1750 1.355 . S
C1751 C1753 1.419 . S
C1752 C1750 1.415 . S
C1752 C1757 1.425 . S
C1752 C1759 1.409 . S
C1753 H1745 0.930 . S
C1753 C1751 1.419 . S
C1753 C1754 1.362 . S
C1754 H1746 0.930 . S
C1754 C1753 1.362 . S
C1754 C1757 1.409 . S
C1755 H1747 0.930 . S
C1755 C1756 1.355 . S
C1755 C1757 1.415 . S
C1756 C1755 1.355 . S
C1756 C1758 1.419 . S
C1757 C1752 1.425 . S
C1757 C1754 1.409 . S
C1757 C1755 1.415 . S
C1758 H1748 0.930 . S
C1758 C1756 1.419 . S
C1758 C1759 1.362 . S
C1759 H1749 0.930 . S
C1759 C1752 1.409 . S
C1759 C1758 1.362 . S
H1760 C1766 0.930 . S
H1761 C1769 0.930 . S
H1762 C1770 0.930 . S
H1763 C1771 0.930 . S
H1764 C1774 0.930 . S
H1765 C1775 0.930 . S
C1766 H1760 0.930 . S
C1766 C1767 1.355 . S
C1766 C1768 1.415 . S
C1767 C1766 1.355 . S
C1767 C1769 1.419 . S
C1768 C1766 1.415 . S
C1768 C1773 1.425 . S
C1768 C1775 1.409 . S
C1769 H1761 0.930 . S
C1769 C1767 1.419 . S
C1769 C1770 1.362 . S
C1770 H1762 0.930 . S
C1770 C1769 1.362 . S
C1770 C1773 1.409 . S
C1771 H1763 0.930 . S
C1771 C1772 1.355 . S
C1771 C1773 1.415 . S
C1772 C1771 1.355 . S
C1772 C1774 1.419 . S
C1773 C1768 1.425 . S
C1773 C1770 1.409 . S
C1773 C1771 1.415 . S
C1774 H1764 0.930 . S
C1774 C1772 1.419 . S
C1774 C1775 1.362 . S
C1775 H1765 0.930 . S
C1775 C1768 1.409 . S
C1775 C1774 1.362 . S
H1776 C1782 0.930 . S
H1777 C1785 0.930 . S
H1778 C1786 0.930 . S
H1779 C1787 0.930 . S
H1780 C1790 0.930 . S
H1781 C1791 0.930 . S
C1782 H1776 0.930 . S
C1782 C1783 1.355 . S
C1782 C1784 1.415 . S
C1783 C1782 1.355 . S
C1783 C1785 1.419 . S
C1784 C1782 1.415 . S
C1784 C1789 1.425 . S
C1784 C1791 1.409 . S
C1785 H1777 0.930 . S
C1785 C1783 1.419 . S
C1785 C1786 1.362 . S
C1786 H1778 0.930 . S
C1786 C1785 1.362 . S
C1786 C1789 1.409 . S
C1787 H1779 0.930 . S
C1787 C1788 1.355 . S
C1787 C1789 1.415 . S
C1788 C1787 1.355 . S
C1788 C1790 1.419 . S
C1789 C1784 1.425 . S
C1789 C1786 1.409 . S
C1789 C1787 1.415 . S
C1790 H1780 0.930 . S
C1790 C1788 1.419 . S
C1790 C1791 1.362 . S
C1791 H1781 0.930 . S
C1791 C1784 1.409 . S
C1791 C1790 1.362 . S
H1792 C1798 0.930 . S
H1793 C1801 0.930 . S
H1794 C1802 0.930 . S
H1795 C1803 0.930 . S
H1796 C1806 0.930 . S
H1797 C1807 0.930 . S
C1798 H1792 0.930 . S
C1798 C1799 1.355 . S
C1798 C1800 1.415 . S
C1799 C1798 1.355 . S
C1799 C1801 1.419 . S
C1800 C1798 1.415 . S
C1800 C1805 1.425 . S
C1800 C1807 1.409 . S
C1801 H1793 0.930 . S
C1801 C1799 1.419 . S
C1801 C1802 1.362 . S
C1802 H1794 0.930 . S
C1802 C1801 1.362 . S
C1802 C1805 1.409 . S
C1803 H1795 0.930 . S
C1803 C1804 1.355 . S
C1803 C1805 1.415 . S
C1804 C1803 1.355 . S
C1804 C1806 1.419 . S
C1805 C1800 1.425 . S
C1805 C1802 1.409 . S
C1805 C1803 1.415 . S
C1806 H1796 0.930 . S
C1806 C1804 1.419 . S
C1806 C1807 1.362 . S
C1807 H1797 0.930 . S
C1807 C1800 1.409 . S
C1807 C1806 1.362 . S
H1808 C1814 0.930 . S
H1809 C1817 0.930 . S
H1810 C1818 0.930 . S
H1811 C1819 0.930 . S
H1812 C1822 0.930 . S
H1813 C1823 0.930 . S
C1814 H1808 0.930 . S
C1814 C1815 1.355 . S
C1814 C1816 1.415 . S
C1815 C1814 1.355 . S
C1815 C1817 1.419 . S
C1816 C1814 1.415 . S
C1816 C1821 1.425 . S
C1816 C1823 1.409 . S
C1817 H1809 0.930 . S
C1817 C1815 1.419 . S
C1817 C1818 1.362 . S
C1818 H1810 0.930 . S
C1818 C1817 1.362 . S
C1818 C1821 1.409 . S
C1819 H1811 0.930 . S
C1819 C1820 1.355 . S
C1819 C1821 1.415 . S
C1820 C1819 1.355 . S
C1820 C1822 1.419 . S
C1821 C1816 1.425 . S
C1821 C1818 1.409 . S
C1821 C1819 1.415 . S
C1822 H1812 0.930 . S
C1822 C1820 1.419 . S
C1822 C1823 1.362 . S
C1823 H1813 0.930 . S
C1823 C1816 1.409 . S
C1823 C1822 1.362 . S
H1824 C1830 0.930 . S
H1825 C1833 0.930 . S
H1826 C1834 0.930 . S
H1827 C1835 0.930 . S
H1828 C1838 0.930 . S
H1829 C1839 0.930 . S
C1830 H1824 0.930 . S
C1830 C1831 1.355 . S
C1830 C1832 1.415 . S
C1831 C1830 1.355 . S
C1831 C1833 1.419 . S
C1832 C1830 1.415 . S
C1832 C1837 1.425 . S
C1832 C1839 1.409 . S
C1833 H1825 0.930 . S
C1833 C1831 1.419 . S
C1833 C1834 1.362 . S
C1834 H1826 0.930 . S
C1834 C1833 1.362 . S
C1834 C1837 1.409 . S
C1835 H1827 0.930 . S
C1835 C1836 1.355 . S
C1835 C1837 1.415 . S
C1836 C1835 1.355 . S
C1836 C1838 1.419 . S
C1837 C1832 1.425 . S
C1837 C1834 1.409 . S
C1837 C1835 1.415 . S
C1838 H1828 0.930 . S
C1838 C1836 1.419 . S
C1838 C1839 1.362 . S
C1839 H1829 0.930 . S
C1839 C1832 1.409 . S
C1839 C1838 1.362 . S
H1840 C1846 0.930 . S
H1841 C1849 0.930 . S
H1842 C1850 0.930 . S
H1843 C1851 0.930 . S
H1844 C1854 0.930 . S
H1845 C1855 0.930 . S
C1846 H1840 0.930 . S
C1846 C1847 1.355 . S
C1846 C1848 1.415 . S
C1847 C1846 1.355 . S
C1847 C1849 1.419 . S
C1848 C1846 1.415 . S
C1848 C1853 1.425 . S
C1848 C1855 1.409 . S
C1849 H1841 0.930 . S
C1849 C1847 1.419 . S
C1849 C1850 1.362 . S
C1850 H1842 0.930 . S
C1850 C1849 1.362 . S
C1850 C1853 1.409 . S
C1851 H1843 0.930 . S
C1851 C1852 1.355 . S
C1851 C1853 1.415 . S
C1852 C1851 1.355 . S
C1852 C1854 1.419 . S
C1853 C1848 1.425 . S
C1853 C1850 1.409 . S
C1853 C1851 1.415 . S
C1854 H1844 0.930 . S
C1854 C1852 1.419 . S
C1854 C1855 1.362 . S
C1855 H1845 0.930 . S
C1855 C1848 1.409 . S
C1855 C1854 1.362 . S
H1856 C1862 0.930 . S
H1857 C1865 0.930 . S
H1858 C1866 0.930 . S
H1859 C1867 0.930 . S
H1860 C1870 0.930 . S
H1861 C1871 0.930 . S
C1862 H1856 0.930 . S
C1862 C1863 1.355 . S
C1862 C1864 1.415 . S
C1863 C1862 1.355 . S
C1863 C1865 1.419 . S
C1864 C1862 1.415 . S
C1864 C1869 1.425 . S
C1864 C1871 1.409 . S
C1865 H1857 0.930 . S
C1865 C1863 1.419 . S
C1865 C1866 1.362 . S
C1866 H1858 0.930 . S
C1866 C1865 1.362 . S
C1866 C1869 1.409 . S
C1867 H1859 0.930 . S
C1867 C1868 1.355 . S
C1867 C1869 1.415 . S
C1868 C1867 1.355 . S
C1868 C1870 1.419 . S
C1869 C1864 1.425 . S
C1869 C1866 1.409 . S
C1869 C1867 1.415 . S
C1870 H1860 0.930 . S
C1870 C1868 1.419 . S
C1870 C1871 1.362 . S
C1871 H1861 0.930 . S
C1871 C1864 1.409 . S
C1871 C1870 1.362 . S
H1872 C1878 0.930 . S
H1873 C1881 0.930 . S
H1874 C1882 0.930 . S
H1875 C1883 0.930 . S
H1876 C1886 0.930 . S
H1877 C1887 0.930 . S
C1878 H1872 0.930 . S
C1878 C1879 1.355 . S
C1878 C1880 1.415 . S
C1879 C1878 1.355 . S
C1879 C1881 1.419 . S
C1880 C1878 1.415 . S
C1880 C1885 1.425 . S
C1880 C1887 1.409 . S
C1881 H1873 0.930 . S
C1881 C1879 1.419 . S
C1881 C1882 1.362 . S
C1882 H1874 0.930 . S
C1882 C1881 1.362 . S
C1882 C1885 1.409 . S
C1883 H1875 0.930 . S
C1883 C1884 1.355 . S
C1883 C1885 1.415 . S
C1884 C1883 1.355 . S
C1884 C1886 1.419 . S
C1885 C1880 1.425 . S
C1885 C1882 1.409 . S
C1885 C1883 1.415 . S
C1886 H1876 0.930 . S
C1886 C1884 1.419 . S
C1886 C1887 1.362 . S
C1887 H1877 0.930 . S
C1887 C1880 1.409 . S
C1887 C1886 1.362 . S
H1888 C1894 0.930 . S
H1889 C1897 0.930 . S
H1890 C1898 0.930 . S
H1891 C1899 0.930 . S
H1892 C1902 0.930 . S
H1893 C1903 0.930 . S
C1894 H1888 0.930 . S
C1894 C1895 1.355 . S
C1894 C1896 1.415 . S
C1895 C1894 1.355 . S
C1895 C1897 1.419 . S
C1896 C1894 1.415 . S
C1896 C1901 1.425 . S
C1896 C1903 1.409 . S
C1897 H1889 0.930 . S
C1897 C1895 1.419 . S
C1897 C1898 1.362 . S
C1898 H1890 0.930 . S
C1898 C1897 1.362 . S
C1898 C1901 1.409 . S
C1899 H1891 0.930 . S
C1899 C1900 1.355 . S
C1899 C1901 1.415 . S
C1900 C1899 1.355 . S
C1900 C1902 1.419 . S
C1901 C1896 1.425 . S
C1901 C1898 1.409 . S
C1901 C1899 1.415 . S
C1902 H1892 0.930 . S
C1902 C1900 1.419 . S
C1902 C1903 1.362 . S
C1903 H1893 0.930 . S
C1903 C1896 1.409 . S
C1903 C1902 1.362 . S
H1904 C1910 0.930 . S
H1905 C1913 0.930 . S
H1906 C1914 0.930 . S
H1907 C1915 0.930 . S
H1908 C1918 0.930 . S
H1909 C1919 0.930 . S
C1910 H1904 0.930 . S
C1910 C1911 1.355 . S
C1910 C1912 1.415 . S
C1911 C1910 1.355 . S
C1911 C1913 1.419 . S
C1912 C1910 1.415 . S
C1912 C1917 1.425 . S
C1912 C1919 1.409 . S
C1913 H1905 0.930 . S
C1913 C1911 1.419 . S
C1913 C1914 1.362 . S
C1914 H1906 0.930 . S
C1914 C1913 1.362 . S
C1914 C1917 1.409 . S
C1915 H1907 0.930 . S
C1915 C1916 1.355 . S
C1915 C1917 1.415 . S
C1916 C1915 1.355 . S
C1916 C1918 1.419 . S
C1917 C1912 1.425 . S
C1917 C1914 1.409 . S
C1917 C1915 1.415 . S
C1918 H1908 0.930 . S
C1918 C1916 1.419 . S
C1918 C1919 1.362 . S
C1919 H1909 0.930 . S
C1919 C1912 1.409 . S
C1919 C1918 1.362 . S
H1920 C1926 0.930 . S
H1921 C1929 0.930 . S
H1922 C1930 0.930 . S
H1923 C1931 0.930 . S
H1924 C1934 0.930 . S
H1925 C1935 0.930 . S
C1926 H1920 0.930 . S
C1926 C1927 1.355 . S
C1926 C1928 1.415 . S
C1927 C1926 1.355 . S
C1927 C1929 1.419 . S
C1928 C1926 1.415 . S
C1928 C1933 1.425 . S
C1928 C1935 1.409 . S
C1929 H1921 0.930 . S
C1929 C1927 1.419 . S
C1929 C1930 1.362 . S
C1930 H1922 0.930 . S
C1930 C1929 1.362 . S
C1930 C1933 1.409 . S
C1931 H1923 0.930 . S
C1931 C1932 1.355 . S
C1931 C1933 1.415 . S
C1932 C1931 1.355 . S
C1932 C1934 1.419 . S
C1933 C1928 1.425 . S
C1933 C1930 1.409 . S
C1933 C1931 1.415 . S
C1934 H1924 0.930 . S
C1934 C1932 1.419 . S
C1934 C1935 1.362 . S
C1935 H1925 0.930 . S
C1935 C1928 1.409 . S
C1935 C1934 1.362 . S
H1936 C1942 0.930 . S
H1937 C1945 0.930 . S
H1938 C1946 0.930 . S
H1939 C1947 0.930 . S
H1940 C1950 0.930 . S
H1941 C1951 0.930 . S
C1942 H1936 0.930 . S
C1942 C1943 1.355 . S
C1942 C1944 1.415 . S
C1943 C1942 1.355 . S
C1943 C1945 1.419 . S
C1944 C1942 1.415 . S
C1944 C1949 1.425 . S
C1944 C1951 1.409 . S
C1945 H1937 0.930 . S
C1945 C1943 1.419 . S
C1945 C1946 1.362 . S
C1946 H1938 0.930 . S
C1946 C1945 1.362 . S
C1946 C1949 1.409 . S
C1947 H1939 0.930 . S
C1947 C1948 1.355 . S
C1947 C1949 1.415 . S
C1948 C1947 1.355 . S
C1948 C1950 1.419 . S
C1949 C1944 1.425 . S
C1949 C1946 1.409 . S
C1949 C1947 1.415 . S
C1950 H1940 0.930 . S
C1950 C1948 1.419 . S
C1950 C1951 1.362 . S
C1951 H1941 0.930 . S
C1951 C1944 1.409 . S
C1951 C1950 1.362 . S
H1952 C1958 0.930 . S
H1953 C1961 0.930 . S
H1954 C1962 0.930 . S
H1955 C1963 0.930 . S
H1956 C1966 0.930 . S
H1957 C1967 0.930 . S
C1958 H1952 0.930 . S
C1958 C1959 1.355 . S
C1958 C1960 1.415 . S
C1959 C1958 1.355 . S
C1959 C1961 1.419 . S
C1960 C1958 1.415 . S
C1960 C1965 1.425 . S
C1960 C1967 1.409 . S
C1961 H1953 0.930 . S
C1961 C1959 1.419 . S
C1961 C1962 1.362 . S
C1962 H1954 0.930 . S
C1962 C1961 1.362 . S
C1962 C1965 1.409 . S
C1963 H1955 0.930 . S
C1963 C1964 1.355 . S
C1963 C1965 1.415 . S
C1964 C1963 1.355 . S
C1964 C1966 1.419 . S
C1965 C1960 1.425 . S
C1965 C1962 1.409 . S
C1965 C1963 1.415 . S
C1966 H1956 0.930 . S
C1966 C1964 1.419 . S
C1966 C1967 1.362 . S
C1967 H1957 0.930 . S
C1967 C1960 1.409 . S
C1967 C1966 1.362 . S
H1968 C1974 0.930 . S
H1969 C1977 0.930 . S
H1970 C1978 0.930 . S
H1971 C1979 0.930 . S
H1972 C1982 0.930 . S
H1973 C1983 0.930 . S
C1974 H1968 0.930 . S
C1974 C1975 1.355 . S
C1974 C1976 1.415 . S
C1975 C1974 1.355 . S
C1975 C1977 1.419 . S
C1976 C1974 1.415 . S
C1976 C1981 1.425 . S
C1976 C1983 1.409 . S
C1977 H1969 0.930 . S
C1977 C1975 1.419 . S
C1977 C1978 1.362 . S
C1978 H1970 0.930 . S
C1978 C1977 1.362 . S
C1978 C1981 1.409 . S
C1979 H1971 0.930 . S
C1979 C1980 1.355 . S
C1979 C1981 1.415 . S
C1980 C1979 1.355 . S
C1980 C1982 1.419 . S
C1981 C1976 1.425 . S
C1981 C1978 1.409 . S
C1981 C1979 1.415 . S
C1982 H1972 0.930 . S
C1982 C1980 1.419 . S
C1982 C1983 1.362 . S
C1983 H1973 0.930 . S
C1983 C1976 1.409 . S
C1983 C1982 1.362 . S
H1984 C1990 0.930 . S
H1985 C1993 0.930 . S
H1986 C1994 0.930 . S
H1987 C1995 0.930 . S
H1988 C1998 0.930 . S
H1989 C1999 0.930 . S
C1990 H1984 0.930 . S
C1990 C1991 1.355 . S
C1990 C1992 1.415 . S
C1991 C1990 1.355 . S
C1991 C1993 1.419 . S
C1992 C1990 1.415 . S
C1992 C1997 1.425 . S
C1992 C1999 1.409 . S
C1993 H1985 0.930 . S
C1993 C1991 1.419 . S
C1993 C1994 1.362 . S
C1994 H1986 0.930 . S
C1994 C1993 1.362 . S
C1994 C1997 1.409 . S
C1995 H1987 0.930 . S
C1995 C1996 1.355 . S
C1995 C1997 1.415 . S
C1996 C1995 1.355 . S
C1996 C1998 1.419 . S
C1997 C1992 1.425 . S
C1997 C1994 1.409 . S
C1997 C1995 1.415 . S
C1998 H1988 0.930 . S
C1998 C1996 1.419 . S
C1998 C1999 1.362 . S
C1999 H1989 0.930 . S
C1999 C1992 1.409 . S
C1999 C1998 1.362 . S
H2000 C2006 0.930 . S
H2001 C2009 0.930 . S
H2002 C2010 0.930 . S
H2003 C2011 0.930 . S
H2004 C2014 0.930 . S
H2005 C2015 0.930 . S
C2006 H2000 0.930 . S
C2006 C2007 1.355 . S
C2006 C2008 1.415 . S
C2007 C2006 1.355 . S
C2007 C2009 1.419 . S
C2008 C2006 1.415 . S
C2008 C2013 1.425 . S
C2008 C2015 1.409 . S
C2009 H2001 0.930 . S
C2009 C2007 1.419 . S
C2009 C2010 1.362 . S
C2010 H2002 0.930 . S
C2010 C2009 1.362 . S
C2010 C2013 1.409 . S
C2011 H2003 0.930 . S
C2011 C2012 1.355 . S
C2011 C2013 1.415 . S
C2012 C2011 1.355 . S
C2012 C2014 1.419 . S
C2013 C2008 1.425 . S
C2013 C2010 1.409 . S
C2013 C2011 1.415 . S
C2014 H2004 0.930 . S
C2014 C2012 1.419 . S
C2014 C2015 1.362 . S
C2015 H2005 0.930 . S
C2015 C2008 1.409 . S
C2015 C2014 1.362 . S
H2016 C2022 0.930 . S
H2017 C2025 0.930 . S
H2018 C2026 0.930 . S
H2019 C2027 0.930 . S
H2020 C2030 0.930 . S
H2021 C2031 0.930 . S
C2022 H2016 0.930 . S
C2022 C2023 1.355 . S
C2022 C2024 1.415 . S
C2023 C2022 1.355 . S
C2023 C2025 1.419 . S
C2024 C2022 1.415 . S
C2024 C2029 1.425 . S
C2024 C2031 1.409 . S
C2025 H2017 0.930 . S
C2025 C2023 1.419 . S
C2025 C2026 1.362 . S
C2026 H2018 0.930 . S
C2026 C2025 1.362 . S
C2026 C2029 1.409 . S
C2027 H2019 0.930 . S
C2027 C2028 1.355 . S
C2027 C2029 1.415 . S
C2028 C2027 1.355 . S
C2028 C2030 1.419 . S
C2029 C2024 1.425 . S
C2029 C2026 1.409 . S
C2029 C2027 1.415 . S
C2030 H2020 0.930 . S
C2030 C2028 1.419 . S
C2030 C2031 1.362 . S
C2031 H2021 0.930 . S
C2031 C2024 1.409 . S
C2031 C2030 1.362 . S
H2032 C2038 0.930 . S
H2033 C2041 0.930 . S
H2034 C2042 0.930 . S
H2035 C2043 0.930 . S
H2036 C2046 0.930 . S
H2037 C2047 0.930 . S
C2038 H2032 0.930 . S
C2038 C2039 1.355 . S
C2038 C2040 1.415 . S
C2039 C2038 1.355 . S
C2039 C2041 1.419 . S
C2040 C2038 1.415 . S
C2040 C2045 1.425 . S
C2040 C2047 1.409 . S
C2041 H2033 0.930 . S
C2041 C2039 1.419 . S
C2041 C2042 1.362 . S
C2042 H2034 0.930 . S
C2042 C2041 1.362 . S
C2042 C2045 1.409 . S
C2043 H2035 0.930 . S
C2043 C2044 1.355 . S
C2043 C2045 1.415 . S
C2044 C2043 1.355 . S
C2044 C2046 1.419 . S
C2045 C2040 1.425 . S
C2045 C2042 1.409 . S
C2045 C2043 1.415 . S
C2046 H2036 0.930 . S
C2046 C2044 1.419 . S
C2046 C2047 1.362 . S
C2047 H2037 0.930 . S
C2047 C2040 1.409 . S
C2047 C2046 1.362 . S
H2048 C2054 0.930 . S
H2049 C2057 0.930 . S
H2050 C2058 0.930 . S
H2051 C2059 0.930 . S
H2052 C2062 0.930 . S
H2053 C2063 0.930 . S
C2054 H2048 0.930 . S
C2054 C2055 1.355 . S
C2054 C2056 1.415 . S
C2055 C2054 1.355 . S
C2055 C2057 1.419 . S
C2056 C2054 1.415 . S
C2056 C2061 1.425 . S
C2056 C2063 1.409 . S
C2057 H2049 0.930 . S
C2057 C2055 1.419 . S
C2057 C2058 1.362 . S
C2058 H2050 0.930 . S
C2058 C2057 1.362 . S
C2058 C2061 1.409 . S
C2059 H2051 0.930 . S
C2059 C2060 1.355 . S
C2059 C2061 1.415 . S
C2060 C2059 1.355 . S
C2060 C2062 1.419 . S
C2061 C2056 1.425 . S
C2061 C2058 1.409 . S
C2061 C2059 1.415 . S
C2062 H2052 0.930 . S
C2062 C2060 1.419 . S
C2062 C2063 1.362 . S
C2063 H2053 0.930 . S
C2063 C2056 1.409 . S
C2063 C2062 1.362 . S
H2064 C2070 0.930 . S
H2065 C2073 0.930 . S
H2066 C2074 0.930 . S
H2067 C2075 0.930 . S
H2068 C2078 0.930 . S
H2069 C2079 0.930 . S
C2070 H2064 0.930 . S
C2070 C2071 1.355 . S
C2070 C2072 1.415 . S
C2071 C2070 1.355 . S
C2071 C2073 1.419 . S
C2072 C2070 1.415 . S
C2072 C2077 1.425 . S
C2072 C2079 1.409 . S
C2073 H2065 0.930 . S
C2073 C2071 1.419 . S
C2073 C2074 1.362 . S
C2074 H2066 0.930 . S
C2074 C2073 1.362 . S
C2074 C2077 1.409 . S
C2075 H2067 0.930 . S
C2075 C2076 1.355 . S
C2075 C2077 1.415 . S
C2076 C2075 1.355 . S
C2076 C2078 1.419 . S
C2077 C2072 1.425 . S
C2077 C2074 1.409 . S
C2077 C2075 1.415 . S
C2078 H2068 0.930 . S
C2078 C2076 1.419 . S
C2078 C2079 1.362 . S
C2079 H2069 0.930 . S
C2079 C2072 1.409 . S
C2079 C2078 1.362 . S
H2080 C2086 0.930 . S
H2081 C2089 0.930 . S
H2082 C2090 0.930 . S
H2083 C2091 0.930 . S
H2084 C2094 0.930 . S
H2085 C2095 0.930 . S
C2086 H2080 0.930 . S
C2086 C2087 1.355 . S
C2086 C2088 1.415 . S
C2087 C2086 1.355 . S
C2087 C2089 1.419 . S
C2088 C2086 1.415 . S
C2088 C2093 1.425 . S
C2088 C2095 1.409 . S
C2089 H2081 0.930 . S
C2089 C2087 1.419 . S
C2089 C2090 1.362 . S
C2090 H2082 0.930 . S
C2090 C2089 1.362 . S
C2090 C2093 1.409 . S
C2091 H2083 0.930 . S
C2091 C2092 1.355 . S
C2091 C2093 1.415 . S
C2092 C2091 1.355 . S
C2092 C2094 1.419 . S
C2093 C2088 1.425 . S
C2093 C2090 1.409 . S
C2093 C2091 1.415 . S
C2094 H2084 0.930 . S
C2094 C2092 1.419 . S
C2094 C2095 1.362 . S
C2095 H2085 0.930 . S
C2095 C2088 1.409 . S
C2095 C2094 1.362 . S
H2096 C2102 0.930 . S
H2097 C2105 0.930 . S
H2098 C2106 0.930 . S
H2099 C2107 0.930 . S
H2100 C2110 0.930 . S
H2101 C2111 0.930 . S
C2102 H2096 0.930 . S
C2102 C2103 1.355 . S
C2102 C2104 1.415 . S
C2103 C2102 1.355 . S
C2103 C2105 1.419 . S
C2104 C2102 1.415 . S
C2104 C2109 1.425 . S
C2104 C2111 1.409 . S
C2105 H2097 0.930 . S
C2105 C2103 1.419 . S
C2105 C2106 1.362 . S
C2106 H2098 0.930 . S
C2106 C2105 1.362 . S
C2106 C2109 1.409 . S
C2107 H2099 0.930 . S
C2107 C2108 1.355 . S
C2107 C2109 1.415 . S
C2108 C2107 1.355 . S
C2108 C2110 1.419 . S
C2109 C2104 1.425 . S
C2109 C2106 1.409 . S
C2109 C2107 1.415 . S
C2110 H2100 0.930 . S
C2110 C2108 1.419 . S
C2110 C2111 1.362 . S
C2111 H2101 0.930 . S
C2111 C2104 1.409 . S
C2111 C2110 1.362 . S
H2112 C2118 0.930 . S
H2113 C2121 0.930 . S
H2114 C2122 0.930 . S
H2115 C2123 0.930 . S
H2116 C2126 0.930 . S
H2117 C2127 0.930 . S
C2118 H2112 0.930 . S
C2118 C2119 1.355 . S
C2118 C2120 1.415 . S
C2119 C2118 1.355 . S
C2119 C2121 1.419 . S
C2120 C2118 1.415 . S
C2120 C2125 1.425 . S
C2120 C2127 1.409 . S
C2121 H2113 0.930 . S
C2121 C2119 1.419 . S
C2121 C2122 1.362 . S
C2122 H2114 0.930 . S
C2122 C2121 1.362 . S
C2122 C2125 1.409 . S
C2123 H2115 0.930 . S
C2123 C2124 1.355 . S
C2123 C2125 1.415 . S
C2124 C2123 1.355 . S
C2124 C2126 1.419 . S
C2125 C2120 1.425 . S
C2125 C2122 1.409 . S
C2125 C2123 1.415 . S
C2126 H2116 0.930 . S
C2126 C2124 1.419 . S
C2126 C2127 1.362 . S
C2127 H2117 0.930 . S
C2127 C2120 1.409 . S
C2127 C2126 1.362 . S
H2128 C2134 0.930 . S
H2129 C2137 0.930 . S
H2130 C2138 0.930 . S
H2131 C2139 0.930 . S
H2132 C2142 0.930 . S
H2133 C2143 0.930 . S
C2134 H2128 0.930 . S
C2134 C2135 1.355 . S
C2134 C2136 1.415 . S
C2135 C2134 1.355 . S
C2135 C2137 1.419 . S
C2136 C2134 1.415 . S
C2136 C2141 1.425 . S
C2136 C2143 1.409 . S
C2137 H2129 0.930 . S
C2137 C2135 1.419 . S
C2137 C2138 1.362 . S
C2138 H2130 0.930 . S
C2138 C2137 1.362 . S
C2138 C2141 1.409 . S
C2139 H2131 0.930 . S
C2139 C2140 1.355 . S
C2139 C2141 1.415 . S
C2140 C2139 1.355 . S
C2140 C2142 1.419 . S
C2141 C2136 1.425 . S
C2141 C2138 1.409 . S
C2141 C2139 1.415 . S
C2142 H2132 0.930 . S
C2142 C2140 1.419 . S
C2142 C2143 1.362 . S
C2143 H2133 0.930 . S
C2143 C2136 1.409 . S
C2143 C2142 1.362 . S
H2144 C2150 0.930 . S
H2145 C2153 0.930 . S
H2146 C2154 0.930 . S
H2147 C2155 0.930 . S
H2148 C2158 0.930 . S
H2149 C2159 0.930 . S
C2150 H2144 0.930 . S
C2150 C2151 1.355 . S
C2150 C2152 1.415 . S
C2151 C2150 1.355 . S
C2151 C2153 1.419 . S
C2152 C2150 1.415 . S
C2152 C2157 1.425 . S
C2152 C2159 1.409 . S
C2153 H2145 0.930 . S
C2153 C2151 1.419 . S
C2153 C2154 1.362 . S
C2154 H2146 0.930 . S
C2154 C2153 1.362 . S
C2154 C2157 1.409 . S
C2155 H2147 0.930 . S
C2155 C2156 1.355 . S
C2155 C2157 1.415 . S
C2156 C2155 1.355 . S
C2156 C2158 1.419 . S
C2157 C2152 1.425 . S
C2157 C2154 1.409 . S
C2157 C2155 1.415 . S
C2158 H2148 0.930 . S
C2158 C2156 1.419 . S
C2158 C2159 1.362 . S
C2159 H2149 0.930 . S
C2159 C2152 1.409 . S
C2159 C2158 1.362 . S
H2160 C2166 0.930 . S
H2161 C2169 0.930 . S
H2162 C2170 0.930 . S
H2163 C2171 0.930 . S
H2164 C2174 0.930 . S
H2165 C2175 0.930 . S
C2166 H2160 0.930 . S
C2166 C2167 1.355 . S
C2166 C2168 1.415 . S
C2167 C2166 1.355 . S
C2167 C2169 1.419 . S
C2168 C2166 1.415 . S
C2168 C2173 1.425 . S
C2168 C2175 1.409 . S
C2169 H2161 0.930 . S
C2169 C2167 1.419 . S
C2169 C2170 1.362 . S
C2170 H2162 0.930 . S
C2170 C2169 1.362 . S
C2170 C2173 1.409 . S
C2171 H2163 0.930 . S
C2171 C2172 1.355 . S
C2171 C2173 1.415 . S
C2172 C2171 1.355 . S
C2172 C2174 1.419 . S
C2173 C2168 1.425 . S
C2173 C2170 1.409 . S
C2173 C2171 1.415 . S
C2174 H2164 0.930 . S
C2174 C2172 1.419 . S
C2174 C2175 1.362 . S
C2175 H2165 0.930 . S
C2175 C2168 1.409 . S
C2175 C2174 1.362 . S
H2176 C2182 0.930 . S
H2177 C2185 0.930 . S
H2178 C2186 0.930 . S
H2179 C2187 0.930 . S
H2180 C2190 0.930 . S
H2181 C2191 0.930 . S
C2182 H2176 0.930 . S
C2182 C2183 1.355 . S
C2182 C2184 1.415 . S
C2183 C2182 1.355 . S
C2183 C2185 1.419 . S
C2184 C2182 1.415 . S
C2184 C2189 1.425 . S
C2184 C2191 1.409 . S
C2185 H2177 0.930 . S
C2185 C2183 1.419 . S
C2185 C2186 1.362 . S
C2186 H2178 0.930 . S
C2186 C2185 1.362 . S
C2186 C2189 1.409 . S
C2187 H2179 0.930 . S
C2187 C2188 1.355 . S
C2187 C2189 1.415 . S
C2188 C2187 1.355 . S
C2188 C2190 1.419 . S
C2189 C2184 1.425 . S
C2189 C2186 1.409 . S
C2189 C2187 1.415 . S
C2190 H2180 0.930 . S
C2190 C2188 1.419 . S
C2190 C2191 1.362 . S
C2191 H2181 0.930 . S
C2191 C2184 1.409 . S
C2191 C2190 1.362 . S
H2192 C2198 0.930 . S
H2193 C2201 0.930 . S
H2194 C2202 0.930 . S
H2195 C2203 0.930 . S
H2196 C2206 0.930 . S
H2197 C2207 0.930 . S
C2198 H2192 0.930 . S
C2198 C2199 1.355 . S
C2198 C2200 1.415 . S
C2199 C2198 1.355 . S
C2199 C2201 1.419 . S
C2200 C2198 1.415 . S
C2200 C2205 1.425 . S
C2200 C2207 1.409 . S
C2201 H2193 0.930 . S
C2201 C2199 1.419 . S
C2201 C2202 1.362 . S
C2202 H2194 0.930 . S
C2202 C2201 1.362 . S
C2202 C2205 1.409 . S
C2203 H2195 0.930 . S
C2203 C2204 1.355 . S
C2203 C2205 1.415 . S
C2204 C2203 1.355 . S
C2204 C2206 1.419 . S
C2205 C2200 1.425 . S
C2205 C2202 1.409 . S
C2205 C2203 1.415 . S
C2206 H2196 0.930 . S
C2206 C2204 1.419 . S
C2206 C2207 1.362 . S
C2207 H2197 0.930 . S
C2207 C2200 1.409 . S
C2207 C2206 1.362 . S
C679 C397 0.984 . S
C684 C5 1.138 . S
C695 C19 1.041 . S
C700 C411 1.087 . S
C711 C425 1.139 . S
C716 C33 0.983 . S
C727 C47 1.112 . S
C732 C439 1.014 . S
C743 C341 1.139 . S
C748 C61 0.983 . S
C759 C75 1.032 . S
C764 C355 1.095 . S
C775 C369 1.047 . S
C780 C89 1.081 . S
C791 C103 1.048 . S
C796 C383 1.080 . S
C807 C537 1.014 . S
C812 C117 1.111 . S
C823 C551 1.130 . S
C828 C131 0.994 . S
C839 C509 1.009 . S
C844 C145 1.117 . S
C855 C159 0.999 . S
C860 C523 1.125 . S
C871 C481 1.075 . S
C876 C173 1.053 . S
C887 C495 1.139 . S
C892 C187 0.983 . S
C903 C201 1.104 . S
C908 C453 1.023 . S
C919 C467 0.993 . S
C924 C215 1.131 . S
C935 C229 1.040 . S
C940 C635 1.087 . S
C951 C607 0.988 . S
C956 C243 1.135 . S
C967 C621 0.999 . S
C972 C257 1.125 . S
C983 C579 1.137 . S
C988 C271 0.985 . S
C999 C593 1.005 . S
C1004 C285 1.120 . S
C1015 C299 1.061 . S
C1020 C565 1.067 . S
C1031 C313 0.998 . S
C1036 C663 1.127 . S
C1047 C649 1.102 . S
C1052 C327 1.025 . S
C1063 C109 1.503 . S
C1068 C11 1.439 . S
C1079 C67 1.493 . S
C1084 C25 1.433 . S
C1095 C81 1.448 . S
C1100 C39 1.475 . S
C1111 C95 1.502 . S
C1116 C53 1.440 . S
C1127 C291 1.478 . S
C1132 C123 1.470 . S
C1143 C249 1.449 . S
C1148 C137 1.496 . S
C1159 C263 1.490 . S
C1164 C151 1.436 . S
C1175 C277 1.472 . S
C1180 C165 1.475 . S
C1191 C333 1.439 . S
C1196 C179 1.503 . S
C1207 C305 1.492 . S
C1212 C193 1.454 . S
C1223 C207 1.490 . S
C1228 C319 1.456 . S
C1239 C235 1.500 . S
C1244 C221 1.428 . S
C1255 C445 1.483 . S
C1260 C347 1.465 . S
C1271 C403 1.449 . S
C1276 C361 1.496 . S
C1287 C375 1.483 . S
C1292 C417 1.441 . S
C1303 C389 1.446 . S
C1308 C431 1.477 . S
C1319 C459 1.464 . S
C1324 C627 1.458 . S
C1335 C473 1.507 . S
C1340 C585 1.429 . S
C1351 C599 1.495 . S
C1356 C487 1.451 . S
C1367 C613 1.434 . S
C1372 C501 1.492 . S
C1383 C669 1.427 . S
C1388 C515 1.507 . S
C1399 C641 1.451 . S
C1404 C529 1.472 . S
C1415 C655 1.478 . S
C1420 C543 1.445 . S
C1431 C557 1.504 . S
C1436 C571 1.427 . S
C1447 C4 1.046 . S
C1452 C124 1.070 . S
C1463 C138 1.021 . S
C1468 C18 1.081 . S
C1479 C152 1.016 . S
C1484 C32 1.115 . S
C1495 C166 1.053 . S
C1500 C46 1.057 . S
C1511 C60 1.052 . S
C1516 C180 1.061 . S
C1527 C194 1.003 . S
C1532 C74 1.096 . S
C1543 C88 1.109 . S
C1548 C208 0.989 . S
C1559 C222 0.993 . S
C1564 C102 1.126 . S
C1575 C236 1.053 . S
C1580 C116 1.092 . S
C1591 C334 1.001 . S
C1596 C130 1.122 . S
C1607 C144 1.094 . S
C1612 C306 1.006 . S
C1623 C158 1.058 . S
C1628 C320 1.094 . S
C1639 C172 1.027 . S
C1644 C250 1.111 . S
C1655 C186 1.128 . S
C1660 C264 0.981 . S
C1671 C200 1.103 . S
C1676 C278 0.995 . S
C1687 C214 1.028 . S
C1692 C292 1.112 . S
C1703 C228 1.065 . S
C1708 C12 1.086 . S
C1719 C242 1.076 . S
C1724 C68 1.027 . S
C1735 C256 1.081 . S
C1740 C82 1.021 . S
C1751 C270 1.127 . S
C1756 C96 0.987 . S
C1767 C284 1.096 . S
C1772 C110 1.003 . S
C1783 C298 1.037 . S
C1788 C40 1.110 . S
C1799 C54 1.108 . S
C1804 C312 1.040 . S
C1815 C26 1.108 . S
C1820 C326 1.027 . S
C1831 C460 1.063 . S
C1836 C340 1.085 . S
C1847 C474 1.005 . S
C1852 C354 1.094 . S
C1863 C488 1.012 . S
C1868 C368 1.117 . S
C1879 C502 0.988 . S
C1884 C382 1.127 . S
C1895 C516 1.098 . S
C1900 C396 1.053 . S
C1911 C410 1.067 . S
C1916 C530 1.084 . S
C1927 C544 1.082 . S
C1932 C424 1.038 . S
C1943 C438 1.043 . S
C1948 C558 1.075 . S
C1959 C572 1.021 . S
C1964 C452 1.081 . S
C1975 C466 1.127 . S
C1980 C670 0.990 . S
C1991 C480 1.126 . S
C1996 C642 0.991 . S
C2007 C656 1.036 . S
C2012 C494 1.104 . S
C2023 C586 0.982 . S
C2028 C508 1.117 . S
C2039 C522 1.029 . S
C2044 C600 1.112 . S
C2055 C536 1.076 . S
C2060 C614 1.027 . S
C2071 C628 0.984 . S
C2076 C550 1.128 . S
C2087 C348 1.105 . S
C2092 C564 1.045 . S
C2103 C404 1.058 . S
C2108 C578 1.088 . S
C2119 C418 0.993 . S
C2124 C592 1.125 . S
C2135 C606 1.119 . S
C2140 C432 1.009 . S
C2151 C446 1.023 . S
C2156 C620 1.111 . S
C2167 C376 1.005 . S
C2172 C634 1.094 . S
C2183 C648 1.060 . S
C2188 C390 1.050 . S
C2199 C362 1.029 . S
C2204 C662 1.075 . S
