# Generated by pormake.
# Topology smm, (6)-cn, num edge types: 1
# Building blocks:
#     Node 0, Type 0, BuildingBlock: BETFAJ_clean_sbu_0, # of connection points: 6
#     Node 1, Type 0, BuildingBlock: BETFAJ_clean_sbu_0, # of connection points: 6
#     Node 2, Type 0, BuildingBlock: BETFAJ_clean_sbu_0, # of connection points: 6
#     Node 3, Type 0, BuildingBlock: BETFAJ_clean_sbu_0, # of connection points: 6
#     Node 4, Type 0, BuildingBlock: BETFAJ_clean_sbu_0, # of connection points: 6
#     Node 5, Type 0, BuildingBlock: BETFAJ_clean_sbu_0, # of connection points: 6
#     Node 6, Type 0, BuildingBlock: BETFAJ_clean_sbu_0, # of connection points: 6
#     Node 7, Type 0, BuildingBlock: BETFAJ_clean_sbu_0, # of connection points: 6
#     Node 8, Type 0, BuildingBlock: BETFAJ_clean_sbu_0, # of connection points: 6
#     Edge 9, Type (0, 0), BuildingBlock: UVAHIK_clean_linker_0, # of connection points: 2
#     Edge 10, Type (0, 0), BuildingBlock: UVAHIK_clean_linker_0, # of connection points: 2
#     Edge 11, Type (0, 0), BuildingBlock: UVAHIK_clean_linker_0, # of connection points: 2
#     Edge 12, Type (0, 0), BuildingBlock: UVAHIK_clean_linker_0, # of connection points: 2
#     Edge 13, Type (0, 0), BuildingBlock: UVAHIK_clean_linker_0, # of connection points: 2
#     Edge 14, Type (0, 0), BuildingBlock: UVAHIK_clean_linker_0, # of connection points: 2
#     Edge 15, Type (0, 0), BuildingBlock: UVAHIK_clean_linker_0, # of connection points: 2
#     Edge 16, Type (0, 0), BuildingBlock: UVAHIK_clean_linker_0, # of connection points: 2
#     Edge 17, Type (0, 0), BuildingBlock: UVAHIK_clean_linker_0, # of connection points: 2
#     Edge 18, Type (0, 0), BuildingBlock: UVAHIK_clean_linker_0, # of connection points: 2
#     Edge 19, Type (0, 0), BuildingBlock: UVAHIK_clean_linker_0, # of connection points: 2
#     Edge 20, Type (0, 0), BuildingBlock: UVAHIK_clean_linker_0, # of connection points: 2
#     Edge 21, Type (0, 0), BuildingBlock: UVAHIK_clean_linker_0, # of connection points: 2
#     Edge 22, Type (0, 0), BuildingBlock: UVAHIK_clean_linker_0, # of connection points: 2
#     Edge 23, Type (0, 0), BuildingBlock: UVAHIK_clean_linker_0, # of connection points: 2
#     Edge 24, Type (0, 0), BuildingBlock: UVAHIK_clean_linker_0, # of connection points: 2
#     Edge 25, Type (0, 0), BuildingBlock: UVAHIK_clean_linker_0, # of connection points: 2
#     Edge 26, Type (0, 0), BuildingBlock: UVAHIK_clean_linker_0, # of connection points: 2
#     Edge 27, Type (0, 0), BuildingBlock: UVAHIK_clean_linker_0, # of connection points: 2
#     Edge 28, Type (0, 0), BuildingBlock: UVAHIK_clean_linker_0, # of connection points: 2
#     Edge 29, Type (0, 0), BuildingBlock: UVAHIK_clean_linker_0, # of connection points: 2
#     Edge 30, Type (0, 0), BuildingBlock: UVAHIK_clean_linker_0, # of connection points: 2
#     Edge 31, Type (0, 0), BuildingBlock: UVAHIK_clean_linker_0, # of connection points: 2
#     Edge 32, Type (0, 0), BuildingBlock: UVAHIK_clean_linker_0, # of connection points: 2
#     Edge 33, Type (0, 0), BuildingBlock: UVAHIK_clean_linker_0, # of connection points: 2
#     Edge 34, Type (0, 0), BuildingBlock: UVAHIK_clean_linker_0, # of connection points: 2
#     Edge 35, Type (0, 0), BuildingBlock: UVAHIK_clean_linker_0, # of connection points: 2
# Relax obj value: 0.052
# Max RMSD: 0.130
# Mean RMSD: 0.130
data_MOF--net-smm--node1-BETFAJ_clean_sbu_0--edge1-UVAHIK_clean_linker_0
_symmetry_space_group_name_H-M    P1
_symmetry_Int_Tables_number       1
_symmetry_cell_setting            triclinic
loop_
_symmetry_equiv_pos_as_xyz
'x, y, z'
_cell_length_a     85.880881
_cell_length_b     85.95762
_cell_length_c     18.566651
_cell_angle_alpha  89.893794
_cell_angle_beta   90.091117
_cell_angle_gamma 119.98109
loop_
_atom_site_label
_atom_site_type_symbol
_atom_site_fract_x
_atom_site_fract_y
_atom_site_fract_z
_atom_type_partial_charge
Sm0 Sm 0.05615 0.21737 0.97199 0.0
Sm1 Sm 1.02438 0.18088 0.027 0.0
C2 C 0.08212 0.24468 0.8997 0.0
C3 C 0.08921 0.2639 0.88451 0.0
C4 C 0.07842 0.27186 0.89034 0.0
C5 C 0.08559 0.29018 0.87507 0.0
C6 C 0.1037 0.30087 0.85414 0.0
C7 C 0.11438 0.29274 0.84851 0.0
C8 C 0.10721 0.27448 0.86354 0.0
C9 C 0.05314 0.21361 0.11834 0.0
C10 C 1.02077 0.21749 0.02802 0.0
C11 C 0.99761 0.15204 0.08819 0.0
C12 C 0.98943 0.13235 0.08101 0.0
C13 C 0.98421 0.12151 0.14286 0.0
C14 C 0.97641 0.10284 0.13705 0.0
C15 C 0.97358 0.09461 0.06911 0.0
C16 C 0.97892 0.10553 0.00721 0.0
C17 C 0.98684 0.12421 0.01309 0.0
C18 C 1.02793 0.18497 0.88049 0.0
C19 C 0.06108 0.18143 -0.01436 0.0
O20 O 0.06654 0.2333 0.87144 0.0
O21 O 0.08409 0.24045 0.96545 0.0
O22 O 0.05076 0.20148 0.07441 0.0
O23 O 0.05845 0.22888 0.08603 0.0
O24 O 0.03449 0.22531 -0.01702 0.0
O25 O 1.01613 0.20184 0.05896 0.0
O26 O 1.01381 0.16068 0.11565 0.0
O27 O 0.99541 0.16055 0.03409 0.0
O28 O 1.02978 0.19682 0.92472 0.0
O29 O 1.02315 0.16983 0.91262 0.0
O30 O 0.04629 0.17336 0.02469 0.0
O31 O 0.06626 0.19705 0.9533 0.0
H32 H 0.06449 0.26392 0.9068 0.0
H33 H 0.07704 0.29603 0.88066 0.0
H34 H 0.12828 0.30046 0.83155 0.0
H35 H 0.11573 0.26857 0.85852 0.0
H36 H 0.98611 0.1275 0.19577 0.0
H37 H 0.97232 0.09482 0.18574 0.0
H38 H 0.97717 0.09966 0.95416 0.0
H39 H 0.99094 0.13227 0.96447 0.0
Sm40 Sm 0.85656 0.86163 0.98119 0.0
Sm41 Sm 0.89193 0.86392 0.03633 0.0
C42 C 0.82815 0.85564 0.90362 0.0
C43 C 0.80938 0.84223 0.88522 0.0
C44 C 0.80445 0.83887 0.81242 0.0
C45 C 0.78651 0.82762 0.7927 0.0
C46 C 0.77302 0.81951 0.84544 0.0
C47 C 0.77808 0.82244 0.91854 0.0
C48 C 0.79608 0.8337 0.93826 0.0
C49 C 0.86062 0.86314 0.12766 0.0
C50 C 0.85708 0.82415 0.02071 0.0
C51 C 0.92209 0.87057 0.10191 0.0
C52 C 0.94153 0.88278 0.09265 0.0
C53 C 0.95319 0.88612 0.15082 0.0
C54 C 0.97177 0.89702 0.14199 0.0
C55 C 0.97908 0.90476 0.07458 0.0
C56 C 0.96724 0.90159 0.01664 0.0
C57 C 0.94865 0.89074 0.02565 0.0
C58 C 0.88816 0.86373 0.88941 0.0
C59 C 0.8901 0.90126 0.0133 0.0
O60 O 0.84088 0.8529 0.87913 0.0
O61 O 0.83144 0.86269 0.96825 0.0
O62 O 0.86487 0.8545 0.08531 0.0
O63 O 0.85227 0.87013 0.09414 0.0
O64 O 0.84968 0.83168 -0.01855 0.0
O65 O 0.87216 0.83405 0.05692 0.0
O66 O 0.91254 0.87785 0.12179 0.0
O67 O 0.91419 0.85828 0.05225 0.0
O68 O 0.88394 0.87196 0.93376 0.0
O69 O 0.89606 0.85615 0.92141 0.0
O70 O 0.89752 0.89314 0.04817 0.0
O71 O 0.87548 0.89215 0.97352 0.0
H72 H 0.81446 0.8453 0.77054 0.0
H73 H 0.78318 0.82543 0.73597 0.0
H74 H 0.76806 0.81653 0.9606 0.0
H75 H 0.7995 0.83605 -0.0051 0.0
H76 H 0.94792 0.88017 0.20301 0.0
H77 H 0.98042 0.89942 0.18811 0.0
H78 H 0.97235 0.90715 0.96383 0.0
H79 H 0.93985 0.88832 0.98003 0.0
Sm80 Sm 0.21167 1.01684 0.97403 0.0
Sm81 Sm 0.20998 0.05043 0.02663 0.0
C82 C 0.21761 0.99402 0.89971 0.0
C83 C 0.23076 0.9879 0.8889 0.0
C84 C 0.23587 0.9865 0.81855 0.0
C85 C 0.24717 0.97943 0.80599 0.0
C86 C 0.25355 0.97351 0.86362 0.0
C87 C 0.24871 0.97528 0.93428 0.0
C88 C 0.23747 0.98244 0.94684 0.0
C89 C 0.20947 1.01943 0.11994 0.0
C90 C 0.24942 0.0543 0.01632 0.0
C91 C 0.20347 0.07438 0.08848 0.0
C92 C 0.1919 0.08219 0.07435 0.0
C93 C 0.18681 0.08936 0.13129 0.0
C94 C 0.17634 0.09738 0.11826 0.0
C95 C 0.17081 0.09845 0.04782 0.0
C96 C 0.1758 0.09101 -0.00901 0.0
C97 C 0.18619 0.08292 0.00416 0.0
C98 C 0.21083 0.04676 0.88017 0.0
C99 C 0.17231 1.01176 0.00209 0.0
O100 O 0.22197 1.01006 0.87595 0.0
O101 O 0.20881 0.98993 0.9608 0.0
O102 O 0.21849 0.03226 0.07777 0.0
O103 O 0.20258 1.00409 0.08684 0.0
O104 O 0.24185 0.03939 0.97718 0.0
O105 O 0.23956 0.0598 0.05069 0.0
O106 O 0.19537 0.05745 0.10768 0.0
O107 O 0.21653 0.07859 0.04259 0.0
O108 O 0.2022 0.03439 0.92439 0.0
O109 O 0.21845 0.06225 0.91182 0.0
O110 O 0.18059 0.02716 0.03765 0.0
O111 O 0.18134 1.00612 0.96268 0.0
H112 H 0.23078 0.99052 0.773 0.0
H113 H 0.25045 0.97808 0.7509 0.0
H114 H 0.25359 0.97106 0.97991 0.0
H115 H 0.23381 0.98343 0.00175 0.0
H116 H 0.191 0.08883 0.18588 0.0
H117 H 0.1725 0.10264 0.16355 0.0
H118 H 0.17199 0.09174 0.93601 0.0
H119 H 0.18995 0.07741 0.95938 0.0
Sm120 Sm 0.72245 0.54975 0.30912 0.0
Sm121 Sm 0.68918 0.51436 0.36353 0.0
C122 C 0.74488 0.57843 0.233 0.0
C123 C 0.75063 0.59753 0.21916 0.0
C124 C 0.7505 0.60316 0.14825 0.0
C125 C 0.75742 0.62137 0.13232 0.0
C126 C 0.76475 0.6344 0.187 0.0
C127 C 0.76445 0.62868 0.25836 0.0
C128 C 0.75744 0.61045 0.27433 0.0
C129 C 0.71983 0.54551 0.45547 0.0
C130 C 0.68447 0.54933 0.3488 0.0
C131 C 0.66567 0.48417 0.42868 0.0
C132 C 0.6585 0.46471 0.4202 0.0
C133 C 0.65033 0.45321 0.47888 0.0
C134 C 0.64269 0.43462 0.47092 0.0
C135 C 0.64302 0.42714 0.40389 0.0
C136 C 0.65155 0.43882 0.34544 0.0
C137 C 0.65924 0.45742 0.35357 0.0
C138 C 0.6928 0.51843 0.21677 0.0
C139 C 0.72822 0.51595 0.33994 0.0
O140 O 0.72902 0.56628 0.20933 0.0
O141 O 0.74904 0.57427 0.29528 0.0
O142 O 0.70697 0.54133 0.41291 0.0
O143 O 0.73519 0.55397 0.4223 0.0
O144 O 0.69944 0.55675 0.30992 0.0
O145 O 0.67918 0.53417 0.3845 0.0
O146 O 0.68244 0.49378 0.44926 0.0
O147 O 0.66131 0.49197 0.37832 0.0
O148 O 0.70524 0.5225 0.26117 0.0
O149 O 0.6773 0.51049 0.24854 0.0
O150 O 0.71273 0.50865 0.37502 0.0
O151 O 0.73376 0.53057 0.30016 0.0
H152 H 0.74546 0.59349 0.10467 0.0
H153 H 0.75761 0.62528 0.07671 0.0
H154 H 0.76976 0.63833 0.3019 0.0
H155 H 0.75769 0.60654 0.32961 0.0
H156 H 0.6497 0.4586 0.53082 0.0
H157 H 0.63655 0.42611 0.51744 0.0
H158 H 0.65193 0.43357 0.29289 0.0
H159 H 0.66553 0.4661 0.30756 0.0
Sm160 Sm 0.52291 0.19431 0.31203 0.0
Sm161 Sm 0.55823 0.19617 0.36598 0.0
C162 C 0.49446 0.18895 0.23628 0.0
C163 C 0.47519 0.1764 0.22343 0.0
C164 C 0.46791 0.15768 0.22331 0.0
C165 C 0.4496 0.14626 0.20843 0.0
C166 C 0.43828 0.15338 0.19382 0.0
C167 C 0.44572 0.17214 0.19442 0.0
C168 C 0.46395 0.18349 0.20905 0.0
C169 C 0.52741 0.19623 0.45821 0.0
C170 C 0.52293 0.15659 0.35249 0.0
C171 C 0.5884 0.20267 0.43101 0.0
C172 C 0.60785 0.21491 0.42197 0.0
C173 C 0.61944 0.21831 0.48041 0.0
C174 C 0.63803 0.22926 0.4719 0.0
C175 C 0.6454 0.23699 0.40455 0.0
C176 C 0.63363 0.23376 0.34634 0.0
C177 C 0.61503 0.22285 0.35502 0.0
C178 C 0.55403 0.19566 0.21922 0.0
C179 C 0.55713 0.23378 0.34069 0.0
O180 O 0.50599 0.18425 0.21382 0.0
O181 O 0.49887 0.19739 0.29808 0.0
O182 O 0.53139 0.18734 0.4161 0.0
O183 O 0.519 0.20316 0.42476 0.0
O184 O 0.5154 0.16417 0.31427 0.0
O185 O 0.53828 0.1664 0.38711 0.0
O186 O 0.57886 0.2099 0.45157 0.0
O187 O 0.5805 0.19049 0.38092 0.0
O188 O 0.55007 0.20409 0.26356 0.0
O189 O 0.56197 0.18809 0.25102 0.0
O190 O 0.56437 0.22558 0.37625 0.0
O191 O 0.54243 0.22468 0.30136 0.0
H192 H 0.47634 0.1519 0.23448 0.0
H193 H 0.44427 0.13188 0.20906 0.0
H194 H 0.4375 0.17811 0.18232 0.0
H195 H 0.46933 0.19789 0.20844 0.0
H196 H 0.61413 0.21237 0.53259 0.0
H197 H 0.64663 0.2317 0.51824 0.0
H198 H 0.63879 0.2393 0.29357 0.0
H199 H 0.60627 0.22041 0.3092 0.0
Sm200 Sm 0.87829 0.34971 0.31158 0.0
Sm201 Sm 0.87629 0.38313 0.36485 0.0
C202 C 0.88447 0.32706 0.23714 0.0
C203 C 0.8977 0.32104 0.22609 0.0
C204 C 0.90294 0.31986 0.15571 0.0
C205 C 0.91427 0.31284 0.14286 0.0
C206 C 0.92056 0.30674 0.20023 0.0
C207 C 0.9156 0.30829 0.27094 0.0
C208 C 0.90431 0.3154 0.28379 0.0
C209 C 0.87637 0.35236 0.45766 0.0
C210 C 0.91592 0.38753 0.35208 0.0
C211 C 0.86948 0.40663 0.42885 0.0
C212 C 0.85727 0.41391 0.41922 0.0
C213 C 0.85075 0.41856 0.47981 0.0
C214 C 0.83973 0.42614 0.47172 0.0
C215 C 0.83508 0.42931 0.40271 0.0
C216 C 0.84144 0.42439 0.34204 0.0
C217 C 0.85236 0.41669 0.35021 0.0
C218 C 0.87709 0.37955 0.2183 0.0
C219 C 0.83876 0.34432 0.33916 0.0
O220 O 0.88872 0.34308 0.21347 0.0
O221 O 0.87568 0.3229 0.29823 0.0
O222 O 0.8852 0.36519 0.41523 0.0
O223 O 0.86948 0.33701 0.42464 0.0
O224 O 0.90835 0.37252 0.31356 0.0
O225 O 0.90607 0.39298 0.38688 0.0
O226 O 0.86221 0.38985 0.44944 0.0
O227 O 0.88194 0.41102 0.37984 0.0
O228 O 0.86858 0.36712 0.2625 0.0
O229 O 0.88456 0.39503 0.25006 0.0
O230 O 0.84691 0.35973 0.37466 0.0
O231 O 0.84792 0.33875 0.30018 0.0
H232 H 0.89792 0.32401 0.11033 0.0
H233 H 0.91764 0.31166 0.08772 0.0
H234 H 0.92039 0.30394 0.3164 0.0
H235 H 0.90056 0.31621 0.33873 0.0
H236 H 0.85438 0.41652 0.5335 0.0
H237 H 0.83519 0.42991 0.51952 0.0
H238 H 0.8379 0.42642 0.28821 0.0
H239 H 0.85709 0.41306 0.30257 0.0
Sm240 Sm 0.3887 0.88367 0.63695 0.0
Sm241 Sm 0.35694 0.8472 0.69199 0.0
C242 C 0.41466 0.91094 0.56455 0.0
C243 C 0.4217 0.93013 0.54886 0.0
C244 C 0.43956 0.9406 0.52622 0.0
C245 C 0.44669 0.95882 0.51057 0.0
C246 C 0.43608 0.96701 0.51729 0.0
C247 C 0.41809 0.95642 0.53995 0.0
C248 C 0.41098 0.93813 0.55582 0.0
C249 C 0.38571 0.87994 0.78331 0.0
C250 C 0.35335 0.88382 0.69285 0.0
C251 C 0.33013 0.81841 0.75323 0.0
C252 C 0.32188 0.79872 0.74609 0.0
C253 C 0.31656 0.78789 0.80795 0.0
C254 C 0.30869 0.76921 0.80219 0.0
C255 C 0.30589 0.76097 0.73428 0.0
C256 C 0.31131 0.77189 0.67236 0.0
C257 C 0.3193 0.79057 0.6782 0.0
C258 C 0.36047 0.85129 0.54547 0.0
C259 C 0.39365 0.84775 0.65071 0.0
O260 O 0.39913 0.89949 0.53618 0.0
O261 O 0.41659 0.90682 0.63054 0.0
O262 O 0.38332 0.86779 0.73942 0.0
O263 O 0.391 0.8952 0.75095 0.0
O264 O 0.36704 0.8916 0.64768 0.0
O265 O 0.34874 0.8682 0.72397 0.0
O266 O 0.34634 0.827 0.78061 0.0
O267 O 0.32795 0.82695 0.69914 0.0
O268 O 0.36232 0.86314 0.5897 0.0
O269 O 0.3557 0.83616 0.5776 0.0
O270 O 0.37885 0.83967 0.6897 0.0
O271 O 0.39882 0.86337 0.61837 0.0
H272 H 0.44803 0.93465 0.52032 0.0
H273 H 0.46047 0.96645 0.4922 0.0
H274 H 0.4096 0.96231 0.54635 0.0
H275 H 0.39715 0.93027 0.57356 0.0
H276 H 0.31845 0.79389 0.86084 0.0
H277 H 0.30454 0.76119 0.85089 0.0
H278 H 0.30958 0.766 0.61935 0.0
H279 H 0.32346 0.79862 0.62957 0.0
Sm280 Sm 0.18973 0.52784 0.64904 0.0
Sm281 Sm 0.22546 0.53065 0.70318 0.0
C282 C 0.16115 0.52149 0.57188 0.0
C283 C 0.14237 0.50803 0.55394 0.0
C284 C 0.13731 0.50466 0.48127 0.0
C285 C 0.11933 0.4934 0.46203 0.0
C286 C 0.10594 0.48527 0.51513 0.0
C287 C 0.11114 0.4882 0.58809 0.0
C288 C 0.12917 0.49948 0.60733 0.0
C289 C 0.19423 0.52993 0.79517 0.0
C290 C 0.19074 0.49066 0.69012 0.0
C291 C 0.25595 0.53793 0.76737 0.0
C292 C 0.2754 0.55015 0.75688 0.0
C293 C 0.28678 0.5567 0.81695 0.0
C294 C 0.30535 0.56775 0.80797 0.0
C295 C 0.3129 0.57238 0.73859 0.0
C296 C 0.3014 0.56598 0.67847 0.0
C297 C 0.28282 0.55503 0.68752 0.0
C298 C 0.22136 0.53027 0.55635 0.0
C299 C 0.22304 0.56768 0.67999 0.0
O300 O 0.17389 0.51875 0.5474 0.0
O301 O 0.1645 0.52868 0.63626 0.0
O302 O 0.19849 0.52122 0.75321 0.0
O303 O 0.18559 0.5366 0.76155 0.0
O304 O 0.18301 0.49794 0.65134 0.0
O305 O 0.206 0.50076 0.72492 0.0
O306 O 0.24641 0.54523 0.78694 0.0
O307 O 0.24785 0.52522 0.7194 0.0
O308 O 0.21706 0.53838 0.60092 0.0
O309 O 0.22955 0.52294 0.58802 0.0
O310 O 0.23065 0.55973 0.71484 0.0
O311 O 0.20841 0.55839 0.64048 0.0
H312 H 0.14724 0.5111 0.43914 0.0
H313 H 0.1159 0.4912 0.40538 0.0
H314 H 0.10119 0.48228 0.63042 0.0
H315 H 0.13269 0.50183 0.66388 0.0
H316 H 0.28132 0.55309 0.87089 0.0
H317 H 0.31384 0.57232 0.85536 0.0
H318 H 0.30676 0.5695 0.62438 0.0
H319 H 0.27427 0.55027 0.6403 0.0
Sm320 Sm 0.54554 0.68458 0.63708 0.0
Sm321 Sm 0.54375 0.71804 0.69014 0.0
C322 C 0.55155 0.66198 0.56145 0.0
C323 C 0.56491 0.65625 0.54767 0.0
C324 C 0.5705 0.65621 0.47668 0.0
C325 C 0.58182 0.64933 0.4609 0.0
C326 C 0.58772 0.6422 0.5158 0.0
C327 C 0.58248 0.64266 0.58721 0.0
C328 C 0.57122 0.64963 0.60303 0.0
C329 C 0.54349 0.68709 0.78311 0.0
C330 C 0.58325 0.72221 0.67824 0.0
C331 C 0.53719 0.74192 0.75224 0.0
C332 C 0.52556 0.74968 0.73832 0.0
C333 C 0.52053 0.75688 0.79531 0.0
C334 C 0.50998 0.76482 0.78246 0.0
C335 C 0.5043 0.76576 0.71215 0.0
C336 C 0.50924 0.75829 0.65526 0.0
C337 C 0.51971 0.75028 0.66826 0.0
C338 C 0.54413 0.71422 0.54344 0.0
C339 C 0.50615 0.67918 0.66768 0.0
O340 O 0.5552 0.67779 0.53726 0.0
O341 O 0.54339 0.65796 0.62398 0.0
O342 O 0.55247 0.69999 0.74106 0.0
O343 O 0.53656 0.67177 0.74974 0.0
O344 O 0.57565 0.70727 0.63931 0.0
O345 O 0.57343 0.72766 0.71314 0.0
O346 O 0.52916 0.72501 0.77144 0.0
O347 O 0.55023 0.74617 0.70618 0.0
O348 O 0.5357 0.7019 0.5881 0.0
O349 O 0.55183 0.72973 0.57485 0.0
O350 O 0.51448 0.69464 0.70282 0.0
O351 O 0.5151 0.67356 0.62767 0.0
H352 H 0.56571 0.66111 0.43298 0.0
H353 H 0.58542 0.64901 0.40526 0.0
H354 H 0.58697 0.63749 0.63088 0.0
H355 H 0.56719 0.64952 0.65838 0.0
H356 H 0.52484 0.75645 0.8498 0.0
H357 H 0.50618 0.77012 0.82778 0.0
H358 H 0.50531 0.75892 0.60037 0.0
H359 H 0.52342 0.74474 0.62345 0.0
C360 C 0.10186 0.32677 0.79892 0.0
C361 C 0.11155 0.3204 0.83834 0.0
C362 C 0.10957 0.34507 0.78226 0.0
C363 C 0.1462 0.39011 0.83785 0.0
H364 H 0.1405 0.40475 0.6465 0.0
C365 C 0.18959 0.46312 0.7416 0.0
C366 C 0.18132 0.47088 0.70128 0.0
C367 C 0.1805 0.44473 0.75663 0.0
C368 C 0.14205 0.4009 0.70046 0.0
H369 H 0.13684 0.32847 0.89262 0.0
H370 H 0.15032 0.36019 0.86288 0.0
H371 H 0.12548 0.37284 0.67731 0.0
H372 H 0.15701 0.46514 0.64385 0.0
H373 H 0.14106 0.43297 0.67056 0.0
H374 H 0.16278 0.41807 0.86114 0.0
C375 C 0.13672 0.3511 0.84507 0.0
C376 C 0.13343 0.3826 0.71816 0.0
C377 C 0.12905 0.33284 0.86146 0.0
C378 C 0.16382 0.45964 0.67495 0.0
C379 C 0.15469 0.44116 0.69009 0.0
C380 C 0.15479 0.40836 0.82022 0.0
C381 C 0.12712 0.35747 0.80503 0.0
C382 C 0.13555 0.37696 0.78689 0.0
C383 C 0.16284 0.43352 0.73197 0.0
C384 C 0.15302 0.41402 0.75105 0.0
H385 H 0.08841 0.31756 0.77978 0.0
H386 H 0.10173 0.34952 0.75192 0.0
H387 H 0.14785 0.3863 0.89174 0.0
H388 H 0.2031 0.47129 0.76237 0.0
H389 H 0.18737 0.43928 0.78768 0.0
C390 C 0.74175 0.79299 0.86148 0.0
C391 C 0.75373 0.80874 0.82407 0.0
C392 C 0.72356 0.78324 0.84216 0.0
C393 C 0.68843 0.78853 0.74822 0.0
H394 H 0.66202 0.73645 0.74972 0.0
C395 C 0.61112 0.74799 0.73042 0.0
C396 C 0.60305 0.7322 0.68891 0.0
C397 C 0.62961 0.75712 0.74363 0.0
C398 C 0.66923 0.751 0.74837 0.0
H399 H 0.75579 0.82657 0.7371 0.0
H400 H 0.72429 0.80945 0.70266 0.0
H401 H 0.69408 0.75253 0.77839 0.0
H402 H 0.60825 0.71375 0.62813 0.0
H403 H 0.64064 0.72983 0.65075 0.0
H404 H 0.66371 0.78706 0.71745 0.0
C405 C 0.7289 0.80469 0.74737 0.0
C406 C 0.68757 0.76022 0.76567 0.0
C407 C 0.74705 0.8144 0.76659 0.0
C408 C 0.61401 0.72587 0.66031 0.0
C409 C 0.63256 0.73502 0.67371 0.0
C410 C 0.67013 0.77933 0.73108 0.0
C411 C 0.71687 0.78904 0.78514 0.0
C412 C 0.69739 0.77911 0.76599 0.0
C413 C 0.64058 0.75074 0.71573 0.0
C414 C 0.66025 0.76045 0.73129 0.0
H415 H 0.74645 0.78815 0.90561 0.0
H416 H 0.71465 0.77135 0.87286 0.0
H417 H 0.69549 0.80307 0.74867 0.0
H418 H 0.60314 0.75327 0.75357 0.0
H419 H 0.63525 0.76903 0.77706 0.0
C420 C 0.27824 0.97192 0.79695 0.0
C421 C 0.26467 0.96496 0.84966 0.0
C422 C 0.28815 0.96343 0.78177 0.0
C423 C 0.28593 0.9195 0.79599 0.0
H424 H 0.33729 0.94727 0.76222 0.0
C425 C 0.32943 0.88591 0.76276 0.0
C426 C 0.3432 0.89311 0.71094 0.0
C427 C 0.32 0.89476 0.78044 0.0
C428 C 0.32292 0.9393 0.77062 0.0
H429 H 0.25092 0.94357 0.92774 0.0
H430 H 0.26834 0.92889 0.90189 0.0
H431 H 0.32076 0.96263 0.79223 0.0
H432 H 0.35779 0.91532 0.63688 0.0
H433 H 0.3412 0.93058 0.6669 0.0
H434 H 0.28801 0.89618 0.77383 0.0
C435 C 0.27124 0.94086 0.87191 0.0
C436 C 0.31344 0.94813 0.78796 0.0
C437 C 0.26139 0.9494 0.88733 0.0
C438 C 0.3473 0.90938 0.67717 0.0
C439 C 0.33785 0.91821 0.69476 0.0
C440 C 0.29538 0.91068 0.77845 0.0
C441 C 0.28468 0.94771 0.81865 0.0
C442 C 0.29483 0.93834 0.80087 0.0
C443 C 0.32408 0.91103 0.74669 0.0
C444 C 0.31401 0.92045 0.76551 0.0
H445 H 0.28122 0.98397 0.76736 0.0
H446 H 0.2983 0.969 0.74004 0.0
H447 H 0.27155 0.91155 0.80443 0.0
H448 H 0.32596 0.87346 0.79021 0.0
H449 H 0.30968 0.88895 0.82142 0.0
C450 C 0.41294 0.12649 0.13203 0.0
C451 C 0.41882 0.14146 0.17757 0.0
C452 C 0.39471 0.1159 0.11418 0.0
C453 C 0.34911 0.10517 0.17354 0.0
H454 H 0.33544 0.08983 0.97588 0.0
C455 C 0.27702 0.07928 0.07352 0.0
C456 C 0.26915 0.06403 0.02888 0.0
C457 C 0.29533 0.08787 0.08999 0.0
C458 C 0.33903 0.09383 0.03147 0.0
H459 H 0.40997 0.15667 0.24171 0.0
H460 H 0.37839 0.13849 0.20983 0.0
H461 H 0.36723 0.10602 0.00937 0.0
H462 H 0.2746 0.04617 0.96505 0.0
H463 H 0.3067 0.06127 -0.00608 0.0
H464 H 0.321 0.09322 0.1956 0.0
C465 C 0.3878 0.1348 0.18815 0.0
C466 C 0.35726 0.10309 0.05073 0.0
C467 C 0.40597 0.14537 0.20582 0.0
C468 C 0.2802 0.05787 -0.00041 0.0
C469 C 0.29861 0.06656 0.01598 0.0
C470 C 0.33095 0.09598 0.1543 0.0
C471 C 0.38191 0.11997 0.14181 0.0
C472 C 0.36253 0.10909 0.12186 0.0
C473 C 0.30632 0.08151 0.06226 0.0
C474 C 0.32567 0.09041 0.08285 0.0
H475 H 0.42249 0.12318 0.10888 0.0
H476 H 0.39063 0.10449 0.07889 0.0
H477 H 0.35263 0.10923 0.22912 0.0
H478 H 0.26901 0.08451 0.09676 0.0
H479 H 0.30088 0.09957 0.12461 0.0
C480 C 0.94534 0.30531 0.13346 0.0
C481 C 0.9317 0.29823 0.18591 0.0
C482 C 0.95528 0.29687 0.11798 0.0
C483 C 0.95311 0.25291 0.13091 0.0
H484 H 1.0045 0.2808 0.098 0.0
C485 C 0.99674 0.21947 0.09763 0.0
C486 C 1.01059 0.22675 0.04612 0.0
C487 C 0.98728 0.22828 0.11529 0.0
C488 C 0.99012 0.27281 0.10615 0.0
H489 H 0.91787 0.27665 0.26319 0.0
H490 H 0.93535 0.26206 0.23685 0.0
H491 H 0.9879 0.29608 0.12822 0.0
H492 H 1.02526 0.24907 0.97259 0.0
H493 H 1.00859 0.26425 0.00259 0.0
H494 H 0.95526 0.22965 0.10833 0.0
C495 C 0.93827 0.27409 0.20728 0.0
C496 C 0.9806 0.28158 0.1236 0.0
C497 C 0.92839 0.28258 0.223 0.0
C498 C 1.01471 0.24306 0.01265 0.0
C499 C 1.00522 0.25186 0.03022 0.0
C500 C 0.96261 0.24414 0.11326 0.0
C501 C 0.95178 0.28106 0.1543 0.0
C502 C 0.96197 0.27175 0.13624 0.0
C503 C 0.99138 0.24459 0.08184 0.0
C504 C 0.98125 0.25397 0.10065 0.0
H505 H 0.94835 0.31743 0.10431 0.0
H506 H 0.96548 0.30253 0.07647 0.0
H507 H 0.93872 0.24493 0.13912 0.0
H508 H 0.99325 0.20699 0.12485 0.0
H509 H 0.9769 0.22241 0.15603 0.0
C510 C 0.83085 0.79315 -0.00285 0.0
C511 C 0.84751 0.80433 0.03054 0.0
C512 C 0.82159 0.77457 0.00981 0.0
C513 C 0.82818 0.73755 0.07941 0.0
H514 H 0.77656 0.71266 0.10778 0.0
C515 C 0.78983 0.66631 0.20104 0.0
C516 C 0.7734 0.65389 0.16905 0.0
C517 C 0.79846 0.68447 0.18179 0.0
C518 C 0.79095 0.71937 0.09926 0.0
H519 H 0.86749 0.80459 0.10309 0.0
H520 H 0.85135 0.7725 0.12566 0.0
H521 H 0.79245 0.74453 0.07648 0.0
H522 H 0.75297 0.65101 0.09283 0.0
H523 H 0.7681 0.68274 0.05896 0.0
H524 H 0.82673 0.71248 0.10312 0.0
C525 C 0.84551 0.77794 0.08878 0.0
C526 C 0.80007 0.73765 0.08111 0.0
C527 C 0.85475 0.79645 0.0761 0.0
C528 C 0.76568 0.66018 0.11809 0.0
C529 C 0.77428 0.67839 0.09912 0.0
C530 C 0.81909 0.71933 0.09782 0.0
C531 C 0.82877 0.76673 0.0561 0.0
C532 C 0.81884 0.74704 0.0716 0.0
C533 C 0.79087 0.69074 0.13024 0.0
C534 C 0.80038 0.71004 0.10861 0.0
H535 H 0.82487 0.79874 0.96168 0.0
H536 H 0.80884 0.76633 -0.01698 0.0
H537 H 0.84257 0.7442 0.07107 0.0
H538 H 0.79626 0.66192 0.2399 0.0
H539 H 0.81111 0.69364 0.2075 0.0
C540 C 0.07471 0.45873 0.53184 0.0
C541 C 0.08661 0.47449 0.49429 0.0
C542 C 0.05648 0.44897 0.51302 0.0
C543 C 1.02114 0.45417 0.42033 0.0
H544 H 0.99485 0.4021 0.42178 0.0
C545 C 0.94379 0.41342 0.40378 0.0
C546 C 0.93573 0.39762 0.36238 0.0
C547 C 0.9623 0.42262 0.41666 0.0
C548 C 1.00203 0.41664 0.42045 0.0
H549 H 0.0885 0.49233 0.40762 0.0
H550 H 0.05694 0.47517 0.37403 0.0
H551 H 1.02695 0.41824 0.44975 0.0
H552 H 0.94096 0.37921 0.30139 0.0
H553 H 0.97337 0.39541 0.3234 0.0
H554 H 0.99635 0.45263 0.39025 0.0
C555 C 0.06163 0.47042 0.41847 0.0
C556 C 1.02039 0.4259 0.43736 0.0
C557 C 0.07982 0.48014 0.4372 0.0
C558 C 0.94671 0.39134 0.33351 0.0
C559 C 0.96528 0.40055 0.34657 0.0
C560 C 1.00282 0.44493 0.40358 0.0
C561 C 0.04968 0.45476 0.45636 0.0
C562 C 0.03018 0.44479 0.43768 0.0
C563 C 0.9733 0.41629 0.38852 0.0
C564 C 0.99299 0.42605 0.40377 0.0
H565 H 0.07949 0.4539 0.57569 0.0
H566 H 0.04764 0.43707 0.5438 0.0
H567 H 1.02817 0.46871 0.42079 0.0
H568 H 0.9358 0.41866 0.42713 0.0
H569 H 0.96794 0.43453 0.45004 0.0
C570 C 0.59461 0.61718 0.5304 0.0
C571 C 0.59857 0.63356 0.49804 0.0
C572 C 0.60411 0.60852 0.51118 0.0
C573 C 0.64633 0.61581 0.42819 0.0
H574 H 0.61933 0.56425 0.39983 0.0
C575 C 0.67983 0.57566 0.32551 0.0
C576 C 0.67431 0.55899 0.35884 0.0
C577 C 0.67059 0.58499 0.33832 0.0
C578 C 0.62713 0.57862 0.40822 0.0
H579 H 0.61596 0.65387 0.4213 0.0
H580 H 0.63252 0.63868 0.38753 0.0
H581 H 0.60359 0.5802 0.43214 0.0
H582 H 0.65463 0.53907 0.4315 0.0
H583 H 0.63882 0.55535 0.45437 0.0
H584 H 0.66992 0.61418 0.40525 0.0
C585 C 0.62207 0.63258 0.42791 0.0
C586 C 0.61808 0.58777 0.42676 0.0
C587 C 0.61248 0.6412 0.44683 0.0
C588 C 0.65925 0.55182 0.40453 0.0
C589 C 0.65007 0.56114 0.41739 0.0
C590 C 0.65542 0.60663 0.40993 0.0
C591 C 0.61787 0.61603 0.45933 0.0
C592 C 0.62757 0.60646 0.43761 0.0
C593 C 0.65563 0.57788 0.38473 0.0
C594 C 0.64595 0.58788 0.40036 0.0
H595 H 0.58387 0.61081 0.56947 0.0
H596 H 0.60068 0.5959 0.5371 0.0
H597 H 0.65406 0.63018 0.43673 0.0
H598 H 0.69136 0.58158 0.28994 0.0
H599 H 0.67512 0.59775 0.31156 0.0
C600 C 0.49579 0.12574 0.33639 0.0
C601 C 0.51337 0.13677 0.36238 0.0
C602 C 0.48671 0.10715 0.34915 0.0
C603 C 0.49481 0.06989 0.39869 0.0
H604 H 0.445 0.0454 0.46003 0.0
C605 C 0.46159 0.99893 0.521 0.0
C606 C 0.44388 0.98648 0.50037 0.0
C607 C 0.46934 1.01705 0.50217 0.0
C608 C 0.45885 0.05198 0.44213 0.0
H609 H 0.53519 0.13677 0.42161 0.0
H610 H 0.51945 0.10466 0.44384 0.0
H611 H 0.45985 0.07725 0.42818 0.0
H612 H 0.42036 0.98352 0.44448 0.0
H613 H 0.43391 1.01521 0.41158 0.0
H614 H 0.49392 0.04477 0.41289 0.0
C615 C 0.51268 0.11025 0.413 0.0
C616 C 0.46736 0.07025 0.42377 0.0
C617 C 0.52169 0.12875 0.40055 0.0
C618 C 0.43397 0.99275 0.46182 0.0
C619 C 0.44175 1.01093 0.4429 0.0
C620 C 0.48632 0.05169 0.41696 0.0
C621 C 0.49506 0.09918 0.38772 0.0
C622 C 0.48553 0.07949 0.4027 0.0
C623 C 0.45963 0.02328 0.46211 0.0
C624 C 0.4683 0.04252 0.43984 0.0
H625 H 0.48895 0.13145 0.30687 0.0
H626 H 0.4732 0.099 0.32837 0.0
H627 H 0.50869 0.07647 0.38129 0.0
H628 H 0.46949 0.99468 0.55204 0.0
H629 H 0.48298 0.02623 0.5194 0.0
C630 C 0.16348 0.12294 0.07172 0.0
C631 C 0.16001 0.10739 0.0337 0.0
C632 C 0.15326 0.13124 0.05908 0.0
C633 C 0.10939 0.12209 -0.01505 0.0
H634 H 0.13112 0.17389 -0.00521 0.0
C635 C 0.06694 0.15641 0.01582 0.0
C636 C 0.07241 0.17288 0.98089 0.0
C637 C 0.07779 0.14858 0.01512 0.0
C638 C 0.12485 0.15942 -0.00907 0.0
H639 H 0.14295 0.08842 0.95221 0.0
H640 H 0.12549 0.10314 0.92877 0.0
H641 H 0.14998 0.16021 0.00565 0.0
H642 H 0.09357 0.19386 0.91658 0.0
H643 H 0.11248 0.18002 0.91461 0.0
H644 H 0.08432 0.12129 0.9692 0.0
C645 C 0.13597 0.1088 0.96924 0.0
C646 C 0.13565 0.15155 -0.00183 0.0
C647 C 0.14615 0.10047 -0.01791 0.0
C648 C 0.08894 0.18119 0.94415 0.0
C649 C 0.09983 0.17331 0.94341 0.0
C650 C 0.09863 0.12996 0.9775 0.0
C651 C 0.13932 0.12425 0.00783 0.0
C652 C 0.12803 0.13276 -0.00381 0.0
C653 C 0.09443 0.15693 0.97927 0.0
C654 C 0.10616 0.14871 -0.01856 0.0
H655 H 0.1742 0.12883 0.11112 0.0
H656 H 0.15611 0.14297 0.09051 0.0
H657 H 0.10298 0.10759 -0.01626 0.0
H658 H 0.05434 0.14959 0.04488 0.0
H659 H 0.07329 0.13614 0.04436 0.0
C660 C 0.89251 0.93053 0.97548 0.0
C661 C 0.89867 0.92113 0.01802 0.0
C662 C 0.90062 0.94926 0.98028 0.0
C663 C 0.92802 0.98739 0.10152 0.0
H664 H 0.93849 1.01616 0.92826 0.0
C665 C 0.96996 0.06499 0.10942 0.0
C666 C 0.96504 0.07472 0.06278 0.0
C667 C 0.96193 0.04631 0.10346 0.0
C668 C 0.93545 1.00834 0.97733 0.0
H669 H 0.91823 0.92417 0.09909 0.0
H670 H 0.93228 0.95673 0.10743 0.0
H671 H 0.92421 0.98357 0.91885 0.0
H672 H 0.94758 0.07233 0.97396 0.0
H673 H 0.93337 0.03978 0.96419 0.0
H674 H 0.93902 1.01206 0.16019 0.0
C675 C 0.92111 0.94961 0.07065 0.0
C676 C 0.92728 0.98964 0.97185 0.0
C677 C 0.91311 0.93093 0.06551 0.0
C678 C 0.95186 0.06529 0.0101 0.0
C679 C 0.94374 0.04659 0.00442 0.0
C680 C 0.93608 1.00608 0.10705 0.0
C681 C 0.91498 0.95902 0.02812 0.0
C682 C 0.92351 0.97893 0.03387 0.0
C683 C 0.94866 0.03682 0.05099 0.0
C684 C 0.93997 1.01685 0.04503 0.0
H685 H 0.88143 0.92345 0.93832 0.0
H686 H 0.89545 0.95606 0.94724 0.0
H687 H 0.92506 0.97953 0.15045 0.0
H688 H 0.98025 0.07186 0.14992 0.0
H689 H 0.96633 0.03934 0.13944 0.0
C690 C 1.01055 0.91096 0.09835 0.0
C691 C 0.99893 0.91583 0.06454 0.0
C692 C 1.02917 0.92126 0.08886 0.0
C693 C 0.06516 0.9666 0.03361 0.0
H694 H 0.09357 0.94312 0.01851 0.0
C695 C 0.14267 1.00611 0.05059 0.0
C696 C 0.1524 1.00082 0.00589 0.0
C697 C 0.12395 0.99577 0.05515 0.0
C698 C 0.08585 0.94991 0.02191 0.0
H699 H 0.99796 0.93554 -0.00562 0.0
H700 H 0.03036 0.95323 0.97639 0.0
H701 H 0.06101 0.92504 0.0295 0.0
H702 H 0.14995 0.98048 0.93037 0.0
H703 H 0.11726 0.96257 0.93754 0.0
H704 H 0.08995 0.99145 0.02451 0.0
C705 C 1.02508 0.94155 0.01111 0.0
C706 C 0.06716 0.93953 0.02918 0.0
C707 C 1.00645 0.93126 0.02074 0.0
C708 C 0.14291 0.98494 0.96556 0.0
C709 C 0.12415 0.9746 0.96999 0.0
C710 C 0.08384 0.97697 0.02618 0.0
C711 C 0.0367 0.93669 0.0451 0.0
C712 C 0.05657 0.94774 0.03555 0.0
C713 C 0.11442 0.97987 0.01496 0.0
C714 C 0.09445 0.96878 0.02067 0.0
H715 H 1.00527 0.89904 0.13169 0.0
H716 H 0.03768 0.91721 0.11662 0.0
H717 H 0.0575 0.97341 0.03906 0.0
H718 H 0.14951 1.01821 0.08274 0.0
H719 H 0.11697 1.00011 0.09123 0.0
C720 C 0.75505 0.51336 0.30312 0.0
C721 C 0.73934 0.50718 0.34457 0.0
C722 C 0.76548 0.50503 0.3081 0.0
C723 C 0.77509 0.47664 0.42895 0.0
H724 H 0.79387 0.46645 0.25674 0.0
C725 C 0.80884 0.433 0.43826 0.0
C726 C 0.8239 0.43799 0.39412 0.0
C727 C 0.79854 0.4414 0.4311 0.0
C728 C 0.78894 0.46939 0.30551 0.0
H729 H 0.72233 0.48732 0.42377 0.0
H730 H 0.74048 0.47289 0.43227 0.0
H731 H 0.77619 0.48144 0.24648 0.0
H732 H 0.84003 0.4559 0.30823 0.0
H733 H 0.82225 0.47072 0.29627 0.0
H734 H 0.78793 0.46479 0.48818 0.0
C735 C 0.74481 0.48425 0.39632 0.0
C736 C 0.77878 0.47798 0.29956 0.0
C737 C 0.73434 0.49249 0.39106 0.0
C738 C 0.82837 0.45155 0.34241 0.0
C739 C 0.81814 0.46004 0.33551 0.0
C740 C 0.78532 0.46815 0.43496 0.0
C741 C 0.76052 0.49042 0.35501 0.0
C742 C 0.77166 0.48163 0.36119 0.0
C743 C 0.80311 0.45512 0.3799 0.0
C744 C 0.79232 0.46432 0.37332 0.0
H745 H 0.75931 0.52464 0.26677 0.0
H746 H 0.77759 0.51021 0.276 0.0
H747 H 0.77006 0.47951 0.47762 0.0
H748 H 0.80487 0.42242 0.47792 0.0
H749 H 0.78688 0.43699 0.46531 0.0
C750 C 0.64212 0.39963 0.35144 0.0
C751 C 0.63426 0.40726 0.39481 0.0
C752 C 0.63381 0.38098 0.34286 0.0
C753 C 0.58982 0.33892 0.36336 0.0
H754 H 0.61909 0.31622 0.35969 0.0
C755 C 0.55951 0.26306 0.3034 0.0
C756 C 0.56605 0.25368 0.34388 0.0
C757 C 0.56789 0.28181 0.30707 0.0
C758 C 0.61068 0.32231 0.36111 0.0
H759 H 0.61126 0.40109 0.46227 0.0
H760 H 0.5971 0.36867 0.449 0.0
H761 H 0.63345 0.3487 0.37243 0.0
H762 H 0.58658 0.2568 0.42021 0.0
H763 H 0.60097 0.28934 0.42738 0.0
H764 H 0.56702 0.31247 0.3542 0.0
C765 C 0.60958 0.3771 0.42078 0.0
C766 C 0.61895 0.34099 0.36749 0.0
C767 C 0.61786 0.39573 0.42923 0.0
C768 C 0.5812 0.26354 0.38798 0.0
C769 C 0.58955 0.28227 0.39177 0.0
C770 C 0.58155 0.32022 0.35711 0.0
C771 C 0.61743 0.36946 0.37748 0.0
C772 C 0.60864 0.34956 0.36904 0.0
C773 C 0.58301 0.29167 0.35142 0.0
C774 C 0.59186 0.31165 0.35624 0.0
H775 H 0.65481 0.40805 0.32461 0.0
H776 H 0.64017 0.37562 0.30846 0.0
H777 H 0.58144 0.34503 0.36341 0.0
H778 H 0.54791 0.25593 0.26864 0.0
H779 H 0.56262 0.28859 0.27448 0.0
C780 C 0.67283 0.26351 0.351 0.0
C781 C 0.66527 0.24808 0.39488 0.0
C782 C 0.69147 0.27383 0.34182 0.0
C783 C 0.73359 0.27193 0.36164 0.0
H784 H 0.75629 0.32385 0.35718 0.0
C785 C 0.8095 0.31748 0.30154 0.0
C786 C 0.81885 0.33333 0.34214 0.0
C787 C 0.79073 0.30712 0.30503 0.0
C788 C 0.7502 0.30937 0.3588 0.0
H789 H 0.67156 0.23134 0.46258 0.0
H790 H 0.70398 0.24958 0.4483 0.0
H791 H 0.7238 0.30575 0.37038 0.0
H792 H 0.81569 0.35065 0.41846 0.0
H793 H 0.78312 0.33251 0.42533 0.0
H794 H 0.76005 0.27558 0.35229 0.0
C795 C 0.69549 0.25359 0.42014 0.0
C796 C 0.73151 0.29896 0.36545 0.0
C797 C 0.67687 0.24326 0.42918 0.0
C798 C 0.80896 0.33858 0.38616 0.0
C799 C 0.79023 0.32821 0.38976 0.0
C800 C 0.75229 0.28235 0.35514 0.0
C801 C 0.70306 0.26902 0.37633 0.0
C802 C 0.72295 0.2801 0.36735 0.0
C803 C 0.78084 0.31233 0.3493 0.0
C804 C 0.76086 0.30121 0.35404 0.0
H805 H 0.66435 0.26775 0.32426 0.0
H806 H 0.69678 0.2855 0.30707 0.0
H807 H 0.72746 0.25745 0.36193 0.0
H808 H 0.81666 0.31306 0.26684 0.0
H809 H 0.78395 0.29511 0.27238 0.0
C810 C 0.47941 0.76751 0.6471 0.0
C811 C 0.49339 0.77458 0.69822 0.0
C812 C 0.46912 0.77573 0.63446 0.0
C813 C 0.46858 0.81838 0.66281 0.0
H814 H 0.41723 0.78784 0.6357 0.0
C815 C 0.42149 0.84755 0.60889 0.0
C816 C 0.40502 0.83925 0.64606 0.0
C817 C 0.43245 0.83974 0.60823 0.0
C818 C 0.43154 0.79659 0.64348 0.0
H819 H 0.50765 0.79618 0.77498 0.0
H820 H 0.48937 0.81011 0.75473 0.0
H821 H 0.43606 0.77433 0.65004 0.0
H822 H 0.38712 0.81607 0.71093 0.0
H823 H 0.40619 0.80275 0.71055 0.0
H824 H 0.4639 0.84062 0.6591 0.0
C825 C 0.48651 0.79835 0.72352 0.0
C826 C 0.4424 0.78883 0.65082 0.0
C827 C 0.49685 0.79017 0.73596 0.0
C828 C 0.39968 0.82287 0.68151 0.0
C829 C 0.4106 0.81511 0.6809 0.0
C830 C 0.4577 0.82615 0.65568 0.0
C831 C 0.47246 0.79121 0.67277 0.0
C832 C 0.46105 0.79959 0.66136 0.0
C833 C 0.42717 0.82346 0.64462 0.0
C834 C 0.43899 0.81534 0.64684 0.0
H835 H 0.47622 0.75544 0.61745 0.0
H836 H 0.45856 0.76995 0.59437 0.0
H837 H 0.48292 0.82712 0.66976 0.0
H838 H 0.42602 0.86015 0.58091 0.0
H839 H 0.44504 0.84644 0.57907 0.0
C840 C 0.24581 0.59745 0.73204 0.0
C841 C 0.23142 0.58753 0.68449 0.0
C842 C 0.25365 0.61612 0.737 0.0
C843 C 0.25955 0.65595 0.63767 0.0
H844 H 0.27111 0.67846 0.82586 0.0
C845 C 0.28415 0.73165 0.67525 0.0
C846 C 0.29731 0.74107 0.72802 0.0
C847 C 0.27599 0.71295 0.66968 0.0
C848 C 0.26821 0.67246 0.77277 0.0
H849 H 0.2141 0.5896 0.6045 0.0
H850 H 0.22784 0.6222 0.61309 0.0
H851 H 0.25723 0.64594 0.81639 0.0
H852 H 0.31244 0.7382 0.81543 0.0
H853 H 0.29847 0.70567 0.80513 0.0
H854 H 0.27073 0.68245 0.59386 0.0
C855 C 0.23309 0.6155 0.64633 0.0
C856 C 0.2602 0.65378 0.76739 0.0
C857 C 0.22514 0.59679 0.64172 0.0
C858 C 0.30217 0.73134 0.77485 0.0
C859 C 0.2941 0.71265 0.769 0.0
C860 C 0.26767 0.67466 0.64299 0.0
C861 C 0.2474 0.62539 0.69423 0.0
C862 C 0.25578 0.64528 0.69979 0.0
C863 C 0.28085 0.70317 0.71646 0.0
C864 C 0.27214 0.68319 0.71064 0.0
H865 H 0.25102 0.59081 0.76583 0.0
H866 H 0.26478 0.62334 0.77383 0.0
H867 H 0.25654 0.64987 0.58472 0.0
H868 H 0.27992 0.73871 0.63895 0.0
H869 H 0.26565 0.70614 0.62936 0.0
C870 C 0.47672 0.67317 0.71986 0.0
C871 C 0.48626 0.66814 0.67285 0.0
C872 C 0.45803 0.66274 0.72581 0.0
C873 C 0.41748 0.62878 0.63054 0.0
H874 H 0.3958 0.61964 0.82022 0.0
C875 C 0.34166 0.57913 0.67673 0.0
C876 C 0.33273 0.58359 0.72905 0.0
C877 C 0.36035 0.58938 0.66893 0.0
C878 C 0.40158 0.62225 0.76672 0.0
H879 H 0.48351 0.64816 0.5948 0.0
H880 H 0.45084 0.62995 0.60522 0.0
H881 H 0.42835 0.63753 0.80822 0.0
H882 H 0.33641 0.60262 0.81299 0.0
H883 H 0.36893 0.62066 0.79884 0.0
H884 H 0.39071 0.61367 0.58891 0.0
C885 C 0.45786 0.64206 0.6372 0.0
C886 C 0.42027 0.63249 0.75988 0.0
C887 C 0.47661 0.65245 0.63153 0.0
C888 C 0.34291 0.59867 0.77288 0.0
C889 C 0.36157 0.60899 0.76483 0.0
C890 C 0.39875 0.61861 0.63733 0.0
C891 C 0.44836 0.64704 0.68468 0.0
C892 C 0.42846 0.63592 0.69173 0.0
C893 C 0.37058 0.60443 0.71303 0.0
C894 C 0.39054 0.61523 0.70554 0.0
H895 H 0.48367 0.68517 0.75249 0.0
H896 H 0.45111 0.66709 0.76219 0.0
H897 H 0.42334 0.63136 0.57719 0.0
H898 H 0.33425 0.56745 0.64276 0.0
H899 H 0.3668 0.58528 0.62925 0.0
C900 C 0.03337 0.20407 0.77199 0.0
C901 C 0.03032 0.18783 0.80236 0.0
C902 C 0.03581 0.20689 0.69789 0.0
C903 C 0.04831 0.19094 0.53606 0.0
H904 H 1.026 0.21428 0.4348 0.0
C905 C 0.0467 0.19429 0.22674 0.0
C906 C 0.05056 0.2108 0.19642 0.0
C907 C 0.04421 0.19154 0.30084 0.0
C908 C 0.03245 0.20791 0.46253 0.0
H909 H 1.0272 0.1617 0.77979 0.0
H910 H 0.0312 0.16648 0.64984 0.0
H911 H 1.02152 0.20919 0.56429 0.0
H912 H 0.05481 0.23737 0.21894 0.0
H913 H 0.05055 0.23261 0.34897 0.0
H914 H 0.05916 0.18958 0.43417 0.0
C915 C 0.03201 0.17716 0.68335 0.0
C916 C 1.02991 0.205 0.5366 0.0
C917 C 1.0296 0.17437 0.75754 0.0
C918 C 0.05186 0.22452 0.2412 0.0
C919 C 0.04931 0.22176 0.31538 0.0
C920 C 0.05082 0.1938 0.46198 0.0
C921 C 0.03517 0.19347 0.65278 0.0
C922 C 0.03781 0.19649 0.57413 0.0
C923 C 0.04551 0.20525 0.3459 0.0
C924 C 0.04291 0.20231 0.42451 0.0
H925 H 0.03383 0.2146 0.80546 0.0
H926 H 0.03842 0.21966 0.67605 0.0
H927 H 0.05481 0.1846 0.5637 0.0
H928 H 0.04565 0.1835 0.19324 0.0
H929 H 0.04109 0.17861 0.3228 0.0
C930 C 0.87766 0.87346 0.78273 0.0
C931 C 0.88552 0.86388 0.81134 0.0
C932 C 0.87497 0.87358 0.70874 0.0
C933 C 0.87091 0.84841 0.54319 0.0
H934 H 0.88082 0.89268 0.44824 0.0
C935 C 0.87228 0.85518 0.23557 0.0
C936 C 0.8636 0.86385 0.20573 0.0
C937 C 0.87495 0.85545 0.30964 0.0
C938 C 0.87782 0.88019 0.47422 0.0
H939 H 0.89692 0.84706 0.78578 0.0
H940 H 0.89248 0.84747 0.65586 0.0
H941 H 0.88574 0.89263 0.57772 0.0
H942 H 0.85112 0.87981 0.22908 0.0
H943 H 0.85572 0.88023 0.35944 0.0
H944 H 0.86309 0.83601 0.43965 0.0
C945 C 0.88813 0.85465 0.69072 0.0
C946 C 0.88063 0.88015 0.54824 0.0
C947 C 0.89077 0.8545 0.76488 0.0
C948 C 0.85782 0.873 0.251 0.0
C949 C 0.86053 0.87331 0.32533 0.0
C950 C 0.86814 0.84847 0.46921 0.0
C951 C 0.88018 0.86418 0.66195 0.0
C952 C 0.87724 0.86426 0.58343 0.0
C953 C 0.86901 0.86443 0.35531 0.0
C954 C 0.87162 0.86437 0.434 0.0
H955 H 0.87351 0.88083 0.81753 0.0
H956 H 0.8686 0.88084 0.68829 0.0
H957 H 0.86787 0.8359 0.56902 0.0
H958 H 0.877 0.84814 0.20171 0.0
H959 H 0.88179 0.84875 0.33115 0.0
C960 C 0.2012 0.02647 0.7743 0.0
C961 C 0.21063 0.04395 0.8023 0.0
C962 C 0.20081 0.02364 0.70035 0.0
C963 C 0.22499 0.04476 0.53335 0.0
H964 H 0.18027 1.01021 0.44171 0.0
C965 C 0.21701 0.03911 0.22688 0.0
C966 C 0.20858 0.02174 0.1977 0.0
C967 C 0.21679 0.04156 0.30082 0.0
C968 C 0.19287 0.01975 0.46679 0.0
H969 H 0.22699 0.07218 0.77595 0.0
H970 H 0.22612 0.06727 0.64602 0.0
H971 H 0.18094 1.01525 0.5713 0.0
H972 H 0.19298 0.99331 0.22185 0.0
H973 H 0.19268 0.99759 0.35212 0.0
H974 H 0.2369 0.04932 0.42887 0.0
C975 C 0.21924 0.05575 0.68131 0.0
C976 C 0.19327 0.02265 0.54081 0.0
C977 C 0.21968 0.05857 0.75543 0.0
C978 C 0.19961 1.00683 0.24334 0.0
C979 C 0.19937 1.00928 0.31758 0.0
C980 C 0.22458 0.0419 0.4594 0.0
C981 C 0.20979 0.03825 0.65313 0.0
C982 C 0.20933 0.0352 0.57472 0.0
C983 C 0.20812 0.02668 0.34691 0.0
C984 C 0.20851 0.02941 0.42545 0.0
H985 H 0.19413 1.01496 0.80951 0.0
H986 H 0.19363 1.00999 0.68023 0.0
H987 H 0.23762 0.05429 0.55828 0.0
H988 H 0.22387 0.05085 0.19265 0.0
H989 H 0.22337 0.05512 0.32194 0.0
C990 C 0.73247 0.54839 0.57903 0.0
C991 C 0.71753 0.54248 0.53347 0.0
C992 C 0.73006 0.54572 0.65334 0.0
C993 C 0.69744 0.53801 0.79618 0.0
H994 H 0.72434 0.52096 0.90651 0.0
C995 C 0.68095 0.51568 0.09206 0.0
C996 C 0.6956 0.52114 0.1388 0.0
C997 C 0.68374 0.51828 0.01793 0.0
C998 C 0.71688 0.52592 0.8765 0.0
H999 H 0.68841 0.52885 0.52883 0.0
H1000 H 0.6842 0.5241 0.65826 0.0
H1001 H 0.72931 0.52568 0.77699 0.0
H1002 H 0.72461 0.53358 0.14562 0.0
H1003 H 0.72953 0.5384 0.01637 0.0
H1004 H 0.68505 0.53832 0.89551 0.0
C1005 C 0.69776 0.53103 0.63699 0.0
C1006 C 0.71973 0.52861 0.80247 0.0
C1007 C 0.70017 0.53367 0.56294 0.0
C1008 C 0.71307 0.52923 0.11056 0.0
C1009 C 0.71588 0.53188 0.0366 0.0
C1010 C 0.69462 0.53535 0.87016 0.0
C1011 C 0.71267 0.53713 0.68296 0.0
C1012 C 0.70998 0.53461 0.76162 0.0
C1013 C 0.70125 0.52641 -0.01048 0.0
C1014 C 0.70427 0.52923 0.91103 0.0
H1015 H 0.74599 0.55519 0.55738 0.0
H1016 H 0.74178 0.55065 0.6877 0.0
H1017 H 0.68995 0.54291 0.7661 0.0
H1018 H 0.66734 0.50936 0.1127 0.0
H1019 H 0.6722 0.51374 -0.01719 0.0
C1020 C 0.53991 0.18916 0.56591 0.0
C1021 C 0.53091 0.19749 0.53593 0.0
C1022 C 0.54305 0.18999 0.63977 0.0
C1023 C 0.52621 0.19654 0.81143 0.0
H1024 H 0.57154 0.20355 0.88563 0.0
C1025 C 0.54364 0.20565 0.1132 0.0
C1026 C 0.55166 0.19615 0.14115 0.0
C1027 C 0.54142 0.20634 0.03916 0.0
C1028 C 0.55876 0.20141 0.86559 0.0
H1029 H 0.51843 0.21349 0.55863 0.0
H1030 H 0.52403 0.21504 0.6884 0.0
H1031 H 0.56743 0.20449 0.75594 0.0
H1032 H 0.56365 0.17993 0.11449 0.0
H1033 H 0.55971 0.18106 -0.01561 0.0
H1034 H 0.51753 0.19339 0.92104 0.0
C1035 C 0.52844 0.20769 0.65481 0.0
C1036 C 0.55642 0.20198 0.79149 0.0
C1037 C 0.52531 0.20687 0.58073 0.0
C1038 C 0.55745 0.18736 0.09404 0.0
C1039 C 0.55529 0.18809 0.01979 0.0
C1040 C 0.52857 0.196 0.88552 0.0
C1041 C 0.53727 0.19918 0.68502 0.0
C1042 C 0.54008 0.19943 0.76369 0.0
C1043 C 0.54723 0.19759 -0.00826 0.0
C1044 C 0.54483 0.19834 0.91325 0.0
H1045 H 0.5444 0.18186 0.53239 0.0
H1046 H 0.54969 0.18312 0.66161 0.0
H1047 H 0.51338 0.19426 0.79146 0.0
H1048 H 0.53912 0.21262 0.1485 0.0
H1049 H 0.53536 0.21393 0.01898 0.0
C1050 C 0.86664 0.33979 0.58121 0.0
C1051 C 0.87557 0.3547 0.5355 0.0
C1052 C 0.86641 0.34225 0.65545 0.0
C1053 C 0.89143 0.37495 0.79758 0.0
H1054 H 0.84773 0.34802 0.90884 0.0
C1055 C 0.88604 0.39142 0.09362 0.0
C1056 C 0.877 0.37677 0.14039 0.0
C1057 C 0.88573 0.38863 0.01949 0.0
C1058 C 0.86008 0.35549 0.87854 0.0
H1059 H 0.89088 0.3838 0.53043 0.0
H1060 H 0.89038 0.38808 0.65975 0.0
H1061 H 0.84723 0.34302 0.77929 0.0
H1062 H 0.86066 0.34776 0.14735 0.0
H1063 H 0.86038 0.34286 0.01809 0.0
H1064 H 0.90432 0.38738 0.89664 0.0
C1065 C 0.88381 0.37452 0.63866 0.0
C1066 C 0.85978 0.35262 0.80452 0.0
C1067 C 0.88402 0.37207 0.56469 0.0
C1068 C 0.86771 0.3593 0.11224 0.0
C1069 C 0.86745 0.3565 0.03829 0.0
C1070 C 0.89174 0.37779 0.87154 0.0
C1071 C 0.87514 0.35965 0.6848 0.0
C1072 C 0.87544 0.36238 0.76338 0.0
C1073 C 0.87641 0.37114 -0.00883 0.0
C1074 C 0.87607 0.36812 0.91271 0.0
H1075 H 0.86 0.32627 0.55974 0.0
H1076 H 0.85972 0.33055 0.68999 0.0
H1077 H 0.90377 0.38245 0.76724 0.0
H1078 H 0.89325 0.40502 0.11422 0.0
H1079 H 0.8926 0.40018 -0.0157 0.0
C1080 C 0.36216 0.84071 0.42249 0.0
C1081 C 0.36287 0.85416 0.46734 0.0
C1082 C 0.36458 0.84352 0.34831 0.0
C1083 C 0.36251 0.87139 0.20159 0.0
H1084 H 0.39178 0.85596 0.09922 0.0
C1085 C 0.38445 0.89088 0.90616 0.0
C1086 C 0.38314 0.87715 0.86141 0.0
C1087 C 0.38192 0.88813 0.98035 0.0
C1088 C 0.38343 0.86019 0.12702 0.0
H1089 H 0.36636 0.88093 0.47049 0.0
H1090 H 0.37098 0.88601 0.34111 0.0
H1091 H 0.38741 0.85098 0.22874 0.0
H1092 H 0.37822 0.84984 0.8583 0.0
H1093 H 0.37369 0.84498 -0.01212 0.0
H1094 H 0.35862 0.88067 0.09979 0.0
C1095 C 0.36837 0.87323 0.36292 0.0
C1096 C 0.38092 0.85732 0.20109 0.0
C1097 C 0.36591 0.8704 0.43701 0.0
C1098 C 0.37928 0.86064 0.89177 0.0
C1099 C 0.37681 0.85791 0.96589 0.0
C1100 C 0.36507 0.8743 0.12753 0.0
C1101 C 0.36775 0.85983 0.31778 0.0
C1102 C 0.37041 0.86287 0.23914 0.0
C1103 C 0.37812 0.87163 0.01091 0.0
C1104 C 0.37553 0.8687 0.08953 0.0
H1105 H 0.35976 0.82804 0.44471 0.0
H1106 H 0.36379 0.83285 0.31478 0.0
H1107 H 0.35413 0.87558 0.22927 0.0
H1108 H 0.38741 0.90373 0.88386 0.0
H1109 H 0.38317 0.89899 0.01391 0.0
C1110 C 0.19195 0.54056 0.91754 0.0
C1111 C 0.19776 0.53132 0.87291 0.0
C1112 C 0.19514 0.54152 -0.00838 0.0
C1113 C 0.22356 0.53646 0.1284 0.0
H1114 H 0.18468 0.52767 0.25837 0.0
C1115 C 0.2249 0.52209 0.43108 0.0
C1116 C 0.21902 0.53081 0.47825 0.0
C1117 C 0.22271 0.52281 0.35684 0.0
C1118 C 0.19571 0.53034 0.22272 0.0
H1119 H 0.21166 0.51608 0.86972 0.0
H1120 H 0.21703 0.51756 -0.00111 0.0
H1121 H 0.18037 0.5283 0.12879 0.0
H1122 H 0.20639 0.54719 0.48562 0.0
H1123 H 0.20254 0.54841 0.35608 0.0
H1124 H 0.23882 0.5383 0.22243 0.0
C1125 C 0.2102 0.52423 0.97694 0.0
C1126 C 0.19327 0.53074 0.14862 0.0
C1127 C 0.207 0.52327 0.90308 0.0
C1128 C 0.21094 0.54025 0.45029 0.0
C1129 C 0.20868 0.5409 0.37626 0.0
C1130 C 0.22599 0.53602 0.2025 0.0
C1131 C 0.20423 0.53329 0.02203 0.0
C1132 C 0.20713 0.5337 0.10072 0.0
C1133 C 0.21454 0.5322 0.32881 0.0
C1134 C 0.21206 0.53287 0.25031 0.0
H1135 H 0.18489 0.54696 0.89531 0.0
H1136 H 0.19058 0.54877 0.02504 0.0
H1137 H 0.23457 0.53903 0.09277 0.0
H1138 H 0.23116 0.51472 0.45151 0.0
H1139 H 0.22718 0.51582 0.32143 0.0
C1140 C 0.53388 0.69379 0.43786 0.0
C1141 C 0.54354 0.7113 0.46545 0.0
C1142 C 0.53312 0.69085 0.36389 0.0
C1143 C 0.53808 0.71306 0.18999 0.0
H1144 H 0.54512 0.6748 0.11644 0.0
C1145 C 0.55046 0.70657 0.89066 0.0
C1146 C 0.54215 0.68928 0.86076 0.0
C1147 C 0.54957 0.70884 0.96447 0.0
C1148 C 0.54287 0.68536 0.13625 0.0
H1149 H 0.55996 0.73947 0.43822 0.0
H1150 H 0.55869 0.73433 0.30824 0.0
H1151 H 0.54599 0.67979 0.24597 0.0
H1152 H 0.52611 0.66081 0.88349 0.0
H1153 H 0.52443 0.66477 0.01317 0.0
H1154 H 0.53503 0.71867 0.08027 0.0
C1155 C 0.5516 0.72291 0.34387 0.0
C1156 C 0.54341 0.68824 0.2103 0.0
C1157 C 0.55241 0.72585 0.41805 0.0
C1158 C 0.53271 0.67428 0.90554 0.0
C1159 C 0.53182 0.67654 0.97958 0.0
C1160 C 0.53751 0.71016 0.11594 0.0
C1161 C 0.54195 0.70537 0.3162 0.0
C1162 C 0.54113 0.70219 0.23779 0.0
C1163 C 0.54032 0.69385 0.00973 0.0
C1164 C 0.54002 0.69636 0.08835 0.0
H1165 H 0.52684 0.68234 0.4734 0.0
H1166 H 0.52542 0.67722 0.34396 0.0
H1167 H 0.53599 0.72372 0.20989 0.0
H1168 H 0.55779 0.71838 0.85714 0.0
H1169 H 0.55644 0.72233 -0.01373 0.0
loop_
_geom_bond_atom_site_label_1
_geom_bond_atom_site_label_2
_geom_bond_distance
_geom_bond_site_symmetry_2
_ccdc_geom_bond_type
Sm0 C2 2.846 1_554 S
Sm0 O20 2.543 1_554 S
Sm0 O21 2.450 . S
Sm0 O22 2.681 . S
Sm0 O23 2.464 . S
Sm0 O24 2.396 . S
Sm0 O28 2.386 1_554 S
Sm0 O31 2.408 . S
Sm1 C11 2.846 . S
Sm1 O22 2.386 1_655 S
Sm1 O25 2.408 . S
Sm1 O26 2.543 . S
Sm1 O27 2.450 1_554 S
Sm1 O28 2.681 1_654 S
Sm1 O29 2.464 1_554 S
Sm1 O30 2.396 1_654 S
C2 Sm0 2.846 1_556 S
C2 C3 1.506 . S
C2 O20 1.261 . S
C2 O21 1.242 1_556 S
C3 C2 1.506 . S
C3 C4 1.358 . S
C3 C8 1.382 1_556 S
C4 C3 1.358 . S
C4 C5 1.385 . S
C4 H32 0.930 . S
C5 C4 1.385 . S
C5 C6 1.395 . S
C5 H33 0.929 . S
C6 C5 1.395 . S
C6 C7 1.335 1_556 S
C7 C6 1.335 1_554 S
C7 C8 1.398 . S
C7 H34 0.930 . S
C8 C3 1.382 1_554 S
C8 C7 1.398 . S
C8 H35 0.929 . S
C9 O22 1.271 . S
C9 O23 1.251 . S
C10 O24 1.252 1_655 S
C10 O25 1.272 . S
C11 Sm1 2.846 . S
C11 C12 1.506 . S
C11 O26 1.261 . S
C11 O27 1.242 1_554 S
C12 C11 1.506 . S
C12 C13 1.358 . S
C12 C17 1.382 1_554 S
C13 C12 1.358 . S
C13 C14 1.385 . S
C13 H36 0.930 . S
C14 C13 1.385 . S
C14 C15 1.395 . S
C14 H37 0.929 . S
C15 C14 1.395 . S
C15 C16 1.335 1_554 S
C16 C15 1.335 1_556 S
C16 C17 1.398 . S
C16 H38 0.930 . S
C17 C12 1.382 1_556 S
C17 C16 1.398 . S
C17 H39 0.929 . S
C18 O28 1.271 . S
C18 O29 1.251 1_455 S
C19 O30 1.252 . S
C19 O31 1.272 1_556 S
O20 Sm0 2.543 1_556 S
O20 C2 1.261 . S
O21 Sm0 2.450 . S
O21 C2 1.242 1_554 S
O22 Sm0 2.681 . S
O22 Sm1 2.386 1_455 S
O22 C9 1.271 . S
O23 Sm0 2.464 . S
O23 C9 1.251 . S
O24 Sm0 2.396 . S
O24 C10 1.252 1_455 S
O25 Sm1 2.408 . S
O25 C10 1.272 . S
O26 Sm1 2.543 . S
O26 C11 1.261 . S
O27 Sm1 2.450 1_556 S
O27 C11 1.242 1_556 S
O28 Sm0 2.386 1_556 S
O28 Sm1 2.681 1_456 S
O28 C18 1.271 . S
O29 Sm1 2.464 1_556 S
O29 C18 1.251 1_655 S
O30 Sm1 2.396 1_456 S
O30 C19 1.252 . S
O31 Sm0 2.408 . S
O31 C19 1.272 1_554 S
H32 C4 0.930 . S
H33 C5 0.929 . S
H34 C7 0.930 . S
H35 C8 0.929 . S
H36 C13 0.930 . S
H37 C14 0.929 . S
H38 C16 0.930 . S
H39 C17 0.929 . S
Sm40 C42 2.846 1_554 S
Sm40 O60 2.543 1_554 S
Sm40 O61 2.450 . S
Sm40 O62 2.681 . S
Sm40 O63 2.464 . S
Sm40 O64 2.396 . S
Sm40 O68 2.386 1_554 S
Sm40 O71 2.408 . S
Sm41 C51 2.846 . S
Sm41 O62 2.386 . S
Sm41 O65 2.408 . S
Sm41 O66 2.543 . S
Sm41 O67 2.450 1_554 S
Sm41 O68 2.681 1_554 S
Sm41 O69 2.464 1_554 S
Sm41 O70 2.396 1_554 S
C42 Sm40 2.846 1_556 S
C42 C43 1.506 . S
C42 O60 1.261 . S
C42 O61 1.242 1_556 S
C43 C42 1.506 . S
C43 C44 1.358 . S
C43 C48 1.382 1_556 S
C44 C43 1.358 . S
C44 C45 1.385 . S
C44 H72 0.930 . S
C45 C44 1.385 . S
C45 C46 1.395 . S
C45 H73 0.929 . S
C46 C45 1.395 . S
C46 C47 1.335 1_556 S
C47 C46 1.335 1_554 S
C47 C48 1.398 . S
C47 H74 0.930 . S
C48 C43 1.382 1_554 S
C48 C47 1.398 . S
C48 H75 0.929 . S
C49 O62 1.271 . S
C49 O63 1.251 . S
C50 O64 1.252 . S
C50 O65 1.272 . S
C51 Sm41 2.846 . S
C51 C52 1.506 . S
C51 O66 1.261 . S
C51 O67 1.242 1_554 S
C52 C51 1.506 . S
C52 C53 1.358 . S
C52 C57 1.382 1_554 S
C53 C52 1.358 . S
C53 C54 1.385 . S
C53 H76 0.930 . S
C54 C53 1.385 . S
C54 C55 1.395 . S
C54 H77 0.929 . S
C55 C54 1.395 . S
C55 C56 1.335 1_554 S
C56 C55 1.335 1_556 S
C56 C57 1.398 . S
C56 H78 0.930 . S
C57 C52 1.382 1_556 S
C57 C56 1.398 . S
C57 H79 0.929 . S
C58 O68 1.271 . S
C58 O69 1.251 . S
C59 O70 1.252 . S
C59 O71 1.272 1_556 S
O60 Sm40 2.543 1_556 S
O60 C42 1.261 . S
O61 Sm40 2.450 . S
O61 C42 1.242 1_554 S
O62 Sm40 2.681 . S
O62 Sm41 2.386 . S
O62 C49 1.271 . S
O63 Sm40 2.464 . S
O63 C49 1.251 . S
O64 Sm40 2.396 . S
O64 C50 1.252 . S
O65 Sm41 2.408 . S
O65 C50 1.272 . S
O66 Sm41 2.543 . S
O66 C51 1.261 . S
O67 Sm41 2.450 1_556 S
O67 C51 1.242 1_556 S
O68 Sm40 2.386 1_556 S
O68 Sm41 2.681 1_556 S
O68 C58 1.271 . S
O69 Sm41 2.464 1_556 S
O69 C58 1.251 . S
O70 Sm41 2.396 1_556 S
O70 C59 1.252 . S
O71 Sm40 2.408 . S
O71 C59 1.272 1_554 S
H72 C44 0.930 . S
H73 C45 0.929 . S
H74 C47 0.930 . S
H75 C48 0.929 . S
H76 C53 0.930 . S
H77 C54 0.929 . S
H78 C56 0.930 . S
H79 C57 0.929 . S
Sm80 C82 2.846 1_554 S
Sm80 O100 2.543 1_554 S
Sm80 O101 2.450 . S
Sm80 O102 2.681 1_565 S
Sm80 O103 2.464 . S
Sm80 O104 2.396 1_565 S
Sm80 O108 2.386 1_564 S
Sm80 O111 2.408 . S
Sm81 C91 2.846 . S
Sm81 O102 2.386 . S
Sm81 O105 2.408 . S
Sm81 O106 2.543 . S
Sm81 O107 2.450 1_554 S
Sm81 O108 2.681 1_554 S
Sm81 O109 2.464 1_554 S
Sm81 O110 2.396 1_554 S
C82 Sm80 2.846 1_556 S
C82 C83 1.506 . S
C82 O100 1.261 . S
C82 O101 1.242 1_556 S
C83 C82 1.506 . S
C83 C84 1.358 . S
C83 C88 1.382 1_556 S
C84 C83 1.358 . S
C84 C85 1.385 . S
C84 H112 0.930 . S
C85 C84 1.385 . S
C85 C86 1.395 . S
C85 H113 0.929 . S
C86 C85 1.395 . S
C86 C87 1.335 1_556 S
C87 C86 1.335 1_554 S
C87 C88 1.398 . S
C87 H114 0.930 . S
C88 C83 1.382 1_554 S
C88 C87 1.398 . S
C88 H115 0.929 . S
C89 O102 1.271 . S
C89 O103 1.251 1_545 S
C90 O104 1.252 . S
C90 O105 1.272 . S
C91 Sm81 2.846 . S
C91 C92 1.506 . S
C91 O106 1.261 . S
C91 O107 1.242 1_554 S
C92 C91 1.506 . S
C92 C93 1.358 . S
C92 C97 1.382 1_554 S
C93 C92 1.358 . S
C93 C94 1.385 . S
C93 H116 0.930 . S
C94 C93 1.385 . S
C94 C95 1.395 . S
C94 H117 0.929 . S
C95 C94 1.395 . S
C95 C96 1.335 1_554 S
C96 C95 1.335 1_556 S
C96 C97 1.398 . S
C96 H118 0.930 . S
C97 C92 1.382 1_556 S
C97 C96 1.398 . S
C97 H119 0.929 . S
C98 O108 1.271 . S
C98 O109 1.251 . S
C99 O110 1.252 1_565 S
C99 O111 1.272 1_556 S
O100 Sm80 2.543 1_556 S
O100 C82 1.261 . S
O101 Sm80 2.450 . S
O101 C82 1.242 1_554 S
O102 Sm80 2.681 1_545 S
O102 Sm81 2.386 . S
O102 C89 1.271 . S
O103 Sm80 2.464 . S
O103 C89 1.251 1_565 S
O104 Sm80 2.396 1_545 S
O104 C90 1.252 . S
O105 Sm81 2.408 . S
O105 C90 1.272 . S
O106 Sm81 2.543 . S
O106 C91 1.261 . S
O107 Sm81 2.450 1_556 S
O107 C91 1.242 1_556 S
O108 Sm80 2.386 1_546 S
O108 Sm81 2.681 1_556 S
O108 C98 1.271 . S
O109 Sm81 2.464 1_556 S
O109 C98 1.251 . S
O110 Sm81 2.396 1_556 S
O110 C99 1.252 1_545 S
O111 Sm80 2.408 . S
O111 C99 1.272 1_554 S
H112 C84 0.930 . S
H113 C85 0.929 . S
H114 C87 0.930 . S
H115 C88 0.929 . S
H116 C93 0.930 . S
H117 C94 0.929 . S
H118 C96 0.930 . S
H119 C97 0.929 . S
Sm120 C122 2.846 . S
Sm120 O140 2.543 . S
Sm120 O141 2.450 . S
Sm120 O142 2.681 . S
Sm120 O143 2.464 . S
Sm120 O144 2.396 . S
Sm120 O148 2.386 . S
Sm120 O151 2.408 . S
Sm121 C131 2.846 . S
Sm121 O142 2.386 . S
Sm121 O145 2.408 . S
Sm121 O146 2.543 . S
Sm121 O147 2.450 . S
Sm121 O148 2.681 . S
Sm121 O149 2.464 . S
Sm121 O150 2.396 . S
C122 Sm120 2.846 . S
C122 C123 1.506 . S
C122 O140 1.261 . S
C122 O141 1.242 . S
C123 C122 1.506 . S
C123 C124 1.358 . S
C123 C128 1.382 . S
C124 C123 1.358 . S
C124 C125 1.385 . S
C124 H152 0.930 . S
C125 C124 1.385 . S
C125 C126 1.395 . S
C125 H153 0.929 . S
C126 C125 1.395 . S
C126 C127 1.335 . S
C127 C126 1.335 . S
C127 C128 1.398 . S
C127 H154 0.930 . S
C128 C123 1.382 . S
C128 C127 1.398 . S
C128 H155 0.929 . S
C129 O142 1.271 . S
C129 O143 1.251 . S
C130 O144 1.252 . S
C130 O145 1.272 . S
C131 Sm121 2.846 . S
C131 C132 1.506 . S
C131 O146 1.261 . S
C131 O147 1.242 . S
C132 C131 1.506 . S
C132 C133 1.358 . S
C132 C137 1.382 . S
C133 C132 1.358 . S
C133 C134 1.385 . S
C133 H156 0.930 . S
C134 C133 1.385 . S
C134 C135 1.395 . S
C134 H157 0.929 . S
C135 C134 1.395 . S
C135 C136 1.335 . S
C136 C135 1.335 . S
C136 C137 1.398 . S
C136 H158 0.930 . S
C137 C132 1.382 . S
C137 C136 1.398 . S
C137 H159 0.929 . S
C138 O148 1.271 . S
C138 O149 1.251 . S
C139 O150 1.252 . S
C139 O151 1.272 . S
O140 Sm120 2.543 . S
O140 C122 1.261 . S
O141 Sm120 2.450 . S
O141 C122 1.242 . S
O142 Sm120 2.681 . S
O142 Sm121 2.386 . S
O142 C129 1.271 . S
O143 Sm120 2.464 . S
O143 C129 1.251 . S
O144 Sm120 2.396 . S
O144 C130 1.252 . S
O145 Sm121 2.408 . S
O145 C130 1.272 . S
O146 Sm121 2.543 . S
O146 C131 1.261 . S
O147 Sm121 2.450 . S
O147 C131 1.242 . S
O148 Sm120 2.386 . S
O148 Sm121 2.681 . S
O148 C138 1.271 . S
O149 Sm121 2.464 . S
O149 C138 1.251 . S
O150 Sm121 2.396 . S
O150 C139 1.252 . S
O151 Sm120 2.408 . S
O151 C139 1.272 . S
H152 C124 0.930 . S
H153 C125 0.929 . S
H154 C127 0.930 . S
H155 C128 0.929 . S
H156 C133 0.930 . S
H157 C134 0.929 . S
H158 C136 0.930 . S
H159 C137 0.929 . S
Sm160 C162 2.846 . S
Sm160 O180 2.543 . S
Sm160 O181 2.450 . S
Sm160 O182 2.681 . S
Sm160 O183 2.464 . S
Sm160 O184 2.396 . S
Sm160 O188 2.386 . S
Sm160 O191 2.408 . S
Sm161 C171 2.846 . S
Sm161 O182 2.386 . S
Sm161 O185 2.408 . S
Sm161 O186 2.543 . S
Sm161 O187 2.450 . S
Sm161 O188 2.681 . S
Sm161 O189 2.464 . S
Sm161 O190 2.396 . S
C162 Sm160 2.846 . S
C162 C163 1.506 . S
C162 O180 1.261 . S
C162 O181 1.242 . S
C163 C162 1.506 . S
C163 C164 1.358 . S
C163 C168 1.382 . S
C164 C163 1.358 . S
C164 C165 1.385 . S
C164 H192 0.930 . S
C165 C164 1.385 . S
C165 C166 1.395 . S
C165 H193 0.929 . S
C166 C165 1.395 . S
C166 C167 1.335 . S
C167 C166 1.335 . S
C167 C168 1.398 . S
C167 H194 0.930 . S
C168 C163 1.382 . S
C168 C167 1.398 . S
C168 H195 0.929 . S
C169 O182 1.271 . S
C169 O183 1.251 . S
C170 O184 1.252 . S
C170 O185 1.272 . S
C171 Sm161 2.846 . S
C171 C172 1.506 . S
C171 O186 1.261 . S
C171 O187 1.242 . S
C172 C171 1.506 . S
C172 C173 1.358 . S
C172 C177 1.382 . S
C173 C172 1.358 . S
C173 C174 1.385 . S
C173 H196 0.930 . S
C174 C173 1.385 . S
C174 C175 1.395 . S
C174 H197 0.929 . S
C175 C174 1.395 . S
C175 C176 1.335 . S
C176 C175 1.335 . S
C176 C177 1.398 . S
C176 H198 0.930 . S
C177 C172 1.382 . S
C177 C176 1.398 . S
C177 H199 0.929 . S
C178 O188 1.271 . S
C178 O189 1.251 . S
C179 O190 1.252 . S
C179 O191 1.272 . S
O180 Sm160 2.543 . S
O180 C162 1.261 . S
O181 Sm160 2.450 . S
O181 C162 1.242 . S
O182 Sm160 2.681 . S
O182 Sm161 2.386 . S
O182 C169 1.271 . S
O183 Sm160 2.464 . S
O183 C169 1.251 . S
O184 Sm160 2.396 . S
O184 C170 1.252 . S
O185 Sm161 2.408 . S
O185 C170 1.272 . S
O186 Sm161 2.543 . S
O186 C171 1.261 . S
O187 Sm161 2.450 . S
O187 C171 1.242 . S
O188 Sm160 2.386 . S
O188 Sm161 2.681 . S
O188 C178 1.271 . S
O189 Sm161 2.464 . S
O189 C178 1.251 . S
O190 Sm161 2.396 . S
O190 C179 1.252 . S
O191 Sm160 2.408 . S
O191 C179 1.272 . S
H192 C164 0.930 . S
H193 C165 0.929 . S
H194 C167 0.930 . S
H195 C168 0.929 . S
H196 C173 0.930 . S
H197 C174 0.929 . S
H198 C176 0.930 . S
H199 C177 0.929 . S
Sm200 C202 2.846 . S
Sm200 O220 2.543 . S
Sm200 O221 2.450 . S
Sm200 O222 2.681 . S
Sm200 O223 2.464 . S
Sm200 O224 2.396 . S
Sm200 O228 2.386 . S
Sm200 O231 2.408 . S
Sm201 C211 2.846 . S
Sm201 O222 2.386 . S
Sm201 O225 2.408 . S
Sm201 O226 2.543 . S
Sm201 O227 2.450 . S
Sm201 O228 2.681 . S
Sm201 O229 2.464 . S
Sm201 O230 2.396 . S
C202 Sm200 2.846 . S
C202 C203 1.506 . S
C202 O220 1.261 . S
C202 O221 1.242 . S
C203 C202 1.506 . S
C203 C204 1.358 . S
C203 C208 1.382 . S
C204 C203 1.358 . S
C204 C205 1.385 . S
C204 H232 0.930 . S
C205 C204 1.385 . S
C205 C206 1.395 . S
C205 H233 0.929 . S
C206 C205 1.395 . S
C206 C207 1.335 . S
C207 C206 1.335 . S
C207 C208 1.398 . S
C207 H234 0.930 . S
C208 C203 1.382 . S
C208 C207 1.398 . S
C208 H235 0.929 . S
C209 O222 1.271 . S
C209 O223 1.251 . S
C210 O224 1.252 . S
C210 O225 1.272 . S
C211 Sm201 2.846 . S
C211 C212 1.506 . S
C211 O226 1.261 . S
C211 O227 1.242 . S
C212 C211 1.506 . S
C212 C213 1.358 . S
C212 C217 1.382 . S
C213 C212 1.358 . S
C213 C214 1.385 . S
C213 H236 0.930 . S
C214 C213 1.385 . S
C214 C215 1.395 . S
C214 H237 0.929 . S
C215 C214 1.395 . S
C215 C216 1.335 . S
C216 C215 1.335 . S
C216 C217 1.398 . S
C216 H238 0.930 . S
C217 C212 1.382 . S
C217 C216 1.398 . S
C217 H239 0.929 . S
C218 O228 1.271 . S
C218 O229 1.251 . S
C219 O230 1.252 . S
C219 O231 1.272 . S
O220 Sm200 2.543 . S
O220 C202 1.261 . S
O221 Sm200 2.450 . S
O221 C202 1.242 . S
O222 Sm200 2.681 . S
O222 Sm201 2.386 . S
O222 C209 1.271 . S
O223 Sm200 2.464 . S
O223 C209 1.251 . S
O224 Sm200 2.396 . S
O224 C210 1.252 . S
O225 Sm201 2.408 . S
O225 C210 1.272 . S
O226 Sm201 2.543 . S
O226 C211 1.261 . S
O227 Sm201 2.450 . S
O227 C211 1.242 . S
O228 Sm200 2.386 . S
O228 Sm201 2.681 . S
O228 C218 1.271 . S
O229 Sm201 2.464 . S
O229 C218 1.251 . S
O230 Sm201 2.396 . S
O230 C219 1.252 . S
O231 Sm200 2.408 . S
O231 C219 1.272 . S
H232 C204 0.930 . S
H233 C205 0.929 . S
H234 C207 0.930 . S
H235 C208 0.929 . S
H236 C213 0.930 . S
H237 C214 0.929 . S
H238 C216 0.930 . S
H239 C217 0.929 . S
Sm240 C242 2.846 . S
Sm240 O260 2.543 . S
Sm240 O261 2.450 . S
Sm240 O262 2.681 . S
Sm240 O263 2.464 . S
Sm240 O264 2.396 . S
Sm240 O268 2.386 . S
Sm240 O271 2.408 . S
Sm241 C251 2.846 . S
Sm241 O262 2.386 . S
Sm241 O265 2.408 . S
Sm241 O266 2.543 . S
Sm241 O267 2.450 . S
Sm241 O268 2.681 . S
Sm241 O269 2.464 . S
Sm241 O270 2.396 . S
C242 Sm240 2.846 . S
C242 C243 1.506 . S
C242 O260 1.261 . S
C242 O261 1.242 . S
C243 C242 1.506 . S
C243 C244 1.358 . S
C243 C248 1.382 . S
C244 C243 1.358 . S
C244 C245 1.385 . S
C244 H272 0.930 . S
C245 C244 1.385 . S
C245 C246 1.395 . S
C245 H273 0.929 . S
C246 C245 1.395 . S
C246 C247 1.335 . S
C247 C246 1.335 . S
C247 C248 1.398 . S
C247 H274 0.930 . S
C248 C243 1.382 . S
C248 C247 1.398 . S
C248 H275 0.929 . S
C249 O262 1.271 . S
C249 O263 1.251 . S
C250 O264 1.252 . S
C250 O265 1.272 . S
C251 Sm241 2.846 . S
C251 C252 1.506 . S
C251 O266 1.261 . S
C251 O267 1.242 . S
C252 C251 1.506 . S
C252 C253 1.358 . S
C252 C257 1.382 . S
C253 C252 1.358 . S
C253 C254 1.385 . S
C253 H276 0.930 . S
C254 C253 1.385 . S
C254 C255 1.395 . S
C254 H277 0.929 . S
C255 C254 1.395 . S
C255 C256 1.335 . S
C256 C255 1.335 . S
C256 C257 1.398 . S
C256 H278 0.930 . S
C257 C252 1.382 . S
C257 C256 1.398 . S
C257 H279 0.929 . S
C258 O268 1.271 . S
C258 O269 1.251 . S
C259 O270 1.252 . S
C259 O271 1.272 . S
O260 Sm240 2.543 . S
O260 C242 1.261 . S
O261 Sm240 2.450 . S
O261 C242 1.242 . S
O262 Sm240 2.681 . S
O262 Sm241 2.386 . S
O262 C249 1.271 . S
O263 Sm240 2.464 . S
O263 C249 1.251 . S
O264 Sm240 2.396 . S
O264 C250 1.252 . S
O265 Sm241 2.408 . S
O265 C250 1.272 . S
O266 Sm241 2.543 . S
O266 C251 1.261 . S
O267 Sm241 2.450 . S
O267 C251 1.242 . S
O268 Sm240 2.386 . S
O268 Sm241 2.681 . S
O268 C258 1.271 . S
O269 Sm241 2.464 . S
O269 C258 1.251 . S
O270 Sm241 2.396 . S
O270 C259 1.252 . S
O271 Sm240 2.408 . S
O271 C259 1.272 . S
H272 C244 0.930 . S
H273 C245 0.929 . S
H274 C247 0.930 . S
H275 C248 0.929 . S
H276 C253 0.930 . S
H277 C254 0.929 . S
H278 C256 0.930 . S
H279 C257 0.929 . S
Sm280 C282 2.846 . S
Sm280 O300 2.543 . S
Sm280 O301 2.450 . S
Sm280 O302 2.681 . S
Sm280 O303 2.464 . S
Sm280 O304 2.396 . S
Sm280 O308 2.386 . S
Sm280 O311 2.408 . S
Sm281 C291 2.846 . S
Sm281 O302 2.386 . S
Sm281 O305 2.408 . S
Sm281 O306 2.543 . S
Sm281 O307 2.450 . S
Sm281 O308 2.681 . S
Sm281 O309 2.464 . S
Sm281 O310 2.396 . S
C282 Sm280 2.846 . S
C282 C283 1.506 . S
C282 O300 1.261 . S
C282 O301 1.242 . S
C283 C282 1.506 . S
C283 C284 1.358 . S
C283 C288 1.382 . S
C284 C283 1.358 . S
C284 C285 1.385 . S
C284 H312 0.930 . S
C285 C284 1.385 . S
C285 C286 1.395 . S
C285 H313 0.929 . S
C286 C285 1.395 . S
C286 C287 1.335 . S
C287 C286 1.335 . S
C287 C288 1.398 . S
C287 H314 0.930 . S
C288 C283 1.382 . S
C288 C287 1.398 . S
C288 H315 0.929 . S
C289 O302 1.271 . S
C289 O303 1.251 . S
C290 O304 1.252 . S
C290 O305 1.272 . S
C291 Sm281 2.846 . S
C291 C292 1.506 . S
C291 O306 1.261 . S
C291 O307 1.242 . S
C292 C291 1.506 . S
C292 C293 1.358 . S
C292 C297 1.382 . S
C293 C292 1.358 . S
C293 C294 1.385 . S
C293 H316 0.930 . S
C294 C293 1.385 . S
C294 C295 1.395 . S
C294 H317 0.929 . S
C295 C294 1.395 . S
C295 C296 1.335 . S
C296 C295 1.335 . S
C296 C297 1.398 . S
C296 H318 0.930 . S
C297 C292 1.382 . S
C297 C296 1.398 . S
C297 H319 0.929 . S
C298 O308 1.271 . S
C298 O309 1.251 . S
C299 O310 1.252 . S
C299 O311 1.272 . S
O300 Sm280 2.543 . S
O300 C282 1.261 . S
O301 Sm280 2.450 . S
O301 C282 1.242 . S
O302 Sm280 2.681 . S
O302 Sm281 2.386 . S
O302 C289 1.271 . S
O303 Sm280 2.464 . S
O303 C289 1.251 . S
O304 Sm280 2.396 . S
O304 C290 1.252 . S
O305 Sm281 2.408 . S
O305 C290 1.272 . S
O306 Sm281 2.543 . S
O306 C291 1.261 . S
O307 Sm281 2.450 . S
O307 C291 1.242 . S
O308 Sm280 2.386 . S
O308 Sm281 2.681 . S
O308 C298 1.271 . S
O309 Sm281 2.464 . S
O309 C298 1.251 . S
O310 Sm281 2.396 . S
O310 C299 1.252 . S
O311 Sm280 2.408 . S
O311 C299 1.272 . S
H312 C284 0.930 . S
H313 C285 0.929 . S
H314 C287 0.930 . S
H315 C288 0.929 . S
H316 C293 0.930 . S
H317 C294 0.929 . S
H318 C296 0.930 . S
H319 C297 0.929 . S
Sm320 C322 2.846 . S
Sm320 O340 2.543 . S
Sm320 O341 2.450 . S
Sm320 O342 2.681 . S
Sm320 O343 2.464 . S
Sm320 O344 2.396 . S
Sm320 O348 2.386 . S
Sm320 O351 2.408 . S
Sm321 C331 2.846 . S
Sm321 O342 2.386 . S
Sm321 O345 2.408 . S
Sm321 O346 2.543 . S
Sm321 O347 2.450 . S
Sm321 O348 2.681 . S
Sm321 O349 2.464 . S
Sm321 O350 2.396 . S
C322 Sm320 2.846 . S
C322 C323 1.506 . S
C322 O340 1.261 . S
C322 O341 1.242 . S
C323 C322 1.506 . S
C323 C324 1.358 . S
C323 C328 1.382 . S
C324 C323 1.358 . S
C324 C325 1.385 . S
C324 H352 0.930 . S
C325 C324 1.385 . S
C325 C326 1.395 . S
C325 H353 0.929 . S
C326 C325 1.395 . S
C326 C327 1.335 . S
C327 C326 1.335 . S
C327 C328 1.398 . S
C327 H354 0.930 . S
C328 C323 1.382 . S
C328 C327 1.398 . S
C328 H355 0.929 . S
C329 O342 1.271 . S
C329 O343 1.251 . S
C330 O344 1.252 . S
C330 O345 1.272 . S
C331 Sm321 2.846 . S
C331 C332 1.506 . S
C331 O346 1.261 . S
C331 O347 1.242 . S
C332 C331 1.506 . S
C332 C333 1.358 . S
C332 C337 1.382 . S
C333 C332 1.358 . S
C333 C334 1.385 . S
C333 H356 0.930 . S
C334 C333 1.385 . S
C334 C335 1.395 . S
C334 H357 0.929 . S
C335 C334 1.395 . S
C335 C336 1.335 . S
C336 C335 1.335 . S
C336 C337 1.398 . S
C336 H358 0.930 . S
C337 C332 1.382 . S
C337 C336 1.398 . S
C337 H359 0.929 . S
C338 O348 1.271 . S
C338 O349 1.251 . S
C339 O350 1.252 . S
C339 O351 1.272 . S
O340 Sm320 2.543 . S
O340 C322 1.261 . S
O341 Sm320 2.450 . S
O341 C322 1.242 . S
O342 Sm320 2.681 . S
O342 Sm321 2.386 . S
O342 C329 1.271 . S
O343 Sm320 2.464 . S
O343 C329 1.251 . S
O344 Sm320 2.396 . S
O344 C330 1.252 . S
O345 Sm321 2.408 . S
O345 C330 1.272 . S
O346 Sm321 2.543 . S
O346 C331 1.261 . S
O347 Sm321 2.450 . S
O347 C331 1.242 . S
O348 Sm320 2.386 . S
O348 Sm321 2.681 . S
O348 C338 1.271 . S
O349 Sm321 2.464 . S
O349 C338 1.251 . S
O350 Sm321 2.396 . S
O350 C339 1.252 . S
O351 Sm320 2.408 . S
O351 C339 1.272 . S
H352 C324 0.930 . S
H353 C325 0.929 . S
H354 C327 0.930 . S
H355 C328 0.929 . S
H356 C333 0.930 . S
H357 C334 0.929 . S
H358 C336 0.930 . S
H359 C337 0.929 . S
C360 C361 1.349 . S
C360 C362 1.327 . S
C360 H385 0.950 . S
C361 C360 1.349 . S
C361 C377 1.349 . S
C362 C360 1.327 . S
C362 C381 1.429 . S
C362 H386 0.950 . S
C363 C380 1.574 . S
C363 C382 1.368 . S
C363 H387 0.949 . S
H364 C368 0.949 . S
C365 C366 1.349 . S
C365 C367 1.327 . S
C365 H388 0.950 . S
C366 C365 1.349 . S
C366 C378 1.349 . S
C367 C365 1.327 . S
C367 C383 1.429 . S
C367 H389 0.950 . S
C368 H364 0.949 . S
C368 C376 1.574 . S
C368 C384 1.368 . S
H369 C377 0.950 1_554 S
H370 C375 0.950 . S
H371 C376 0.949 . S
H372 C378 0.950 . S
H373 C379 0.950 . S
H374 C380 0.949 . S
C375 H370 0.950 . S
C375 C377 1.327 . S
C375 C381 1.429 . S
C376 C368 1.574 . S
C376 H371 0.949 . S
C376 C382 1.368 . S
C377 C361 1.349 . S
C377 H369 0.950 1_556 S
C377 C375 1.327 . S
C378 C366 1.349 . S
C378 H372 0.950 . S
C378 C379 1.327 . S
C379 H373 0.950 . S
C379 C378 1.327 . S
C379 C383 1.429 . S
C380 C363 1.574 . S
C380 H374 0.949 . S
C380 C384 1.368 . S
C381 C362 1.429 . S
C381 C375 1.429 . S
C381 C382 1.523 . S
C382 C363 1.368 . S
C382 C376 1.368 . S
C382 C381 1.523 . S
C383 C367 1.429 . S
C383 C379 1.429 . S
C383 C384 1.523 . S
C384 C368 1.368 . S
C384 C380 1.368 . S
C384 C383 1.523 . S
H385 C360 0.950 . S
H386 C362 0.950 . S
H387 C363 0.949 . S
H388 C365 0.950 . S
H389 C367 0.950 . S
C390 C391 1.349 . S
C390 C392 1.327 . S
C390 H415 0.950 1_556 S
C391 C390 1.349 . S
C391 C407 1.349 . S
C392 C390 1.327 . S
C392 C411 1.429 . S
C392 H416 0.950 . S
C393 C410 1.574 . S
C393 C412 1.368 . S
C393 H417 0.949 . S
H394 C398 0.949 . S
C395 C396 1.349 . S
C395 C397 1.327 . S
C395 H418 0.950 . S
C396 C395 1.349 . S
C396 C408 1.349 . S
C397 C395 1.327 . S
C397 C413 1.429 . S
C397 H419 0.950 . S
C398 H394 0.949 . S
C398 C406 1.574 . S
C398 C414 1.368 . S
H399 C407 0.950 . S
H400 C405 0.950 . S
H401 C406 0.949 . S
H402 C408 0.950 . S
H403 C409 0.950 . S
H404 C410 0.949 . S
C405 H400 0.950 . S
C405 C407 1.327 . S
C405 C411 1.429 . S
C406 C398 1.574 . S
C406 H401 0.949 . S
C406 C412 1.368 . S
C407 C391 1.349 . S
C407 H399 0.950 . S
C407 C405 1.327 . S
C408 C396 1.349 . S
C408 H402 0.950 . S
C408 C409 1.327 . S
C409 H403 0.950 . S
C409 C408 1.327 . S
C409 C413 1.429 . S
C410 C393 1.574 . S
C410 H404 0.949 . S
C410 C414 1.368 . S
C411 C392 1.429 . S
C411 C405 1.429 . S
C411 C412 1.523 . S
C412 C393 1.368 . S
C412 C406 1.368 . S
C412 C411 1.523 . S
C413 C397 1.429 . S
C413 C409 1.429 . S
C413 C414 1.523 . S
C414 C398 1.368 . S
C414 C410 1.368 . S
C414 C413 1.523 . S
H415 C390 0.950 1_554 S
H416 C392 0.950 . S
H417 C393 0.949 . S
H418 C395 0.950 . S
H419 C397 0.950 . S
C420 C421 1.349 . S
C420 C422 1.327 . S
C420 H445 0.950 . S
C421 C420 1.349 . S
C421 C437 1.349 . S
C422 C420 1.327 . S
C422 C441 1.429 . S
C422 H446 0.950 . S
C423 C440 1.574 . S
C423 C442 1.368 . S
C423 H447 0.949 . S
H424 C428 0.949 . S
C425 C426 1.349 . S
C425 C427 1.327 . S
C425 H448 0.950 . S
C426 C425 1.349 . S
C426 C438 1.349 . S
C427 C425 1.327 . S
C427 C443 1.429 . S
C427 H449 0.950 . S
C428 H424 0.949 . S
C428 C436 1.574 . S
C428 C444 1.368 . S
H429 C437 0.950 . S
H430 C435 0.950 . S
H431 C436 0.949 . S
H432 C438 0.950 . S
H433 C439 0.950 . S
H434 C440 0.949 . S
C435 H430 0.950 . S
C435 C437 1.327 . S
C435 C441 1.429 . S
C436 C428 1.574 . S
C436 H431 0.949 . S
C436 C442 1.368 . S
C437 C421 1.349 . S
C437 H429 0.950 . S
C437 C435 1.327 . S
C438 C426 1.349 . S
C438 H432 0.950 . S
C438 C439 1.327 . S
C439 H433 0.950 . S
C439 C438 1.327 . S
C439 C443 1.429 . S
C440 C423 1.574 . S
C440 H434 0.949 . S
C440 C444 1.368 . S
C441 C422 1.429 . S
C441 C435 1.429 . S
C441 C442 1.523 . S
C442 C423 1.368 . S
C442 C436 1.368 . S
C442 C441 1.523 . S
C443 C427 1.429 . S
C443 C439 1.429 . S
C443 C444 1.523 . S
C444 C428 1.368 . S
C444 C440 1.368 . S
C444 C443 1.523 . S
H445 C420 0.950 . S
H446 C422 0.950 . S
H447 C423 0.949 . S
H448 C425 0.950 . S
H449 C427 0.950 . S
C450 C451 1.349 . S
C450 C452 1.327 . S
C450 H475 0.950 . S
C451 C450 1.349 . S
C451 C467 1.349 . S
C452 C450 1.327 . S
C452 C471 1.429 . S
C452 H476 0.950 . S
C453 C470 1.574 . S
C453 C472 1.368 . S
C453 H477 0.949 . S
H454 C458 0.949 . S
C455 C456 1.349 . S
C455 C457 1.327 . S
C455 H478 0.950 . S
C456 C455 1.349 . S
C456 C468 1.349 1_554 S
C457 C455 1.327 . S
C457 C473 1.429 . S
C457 H479 0.950 . S
C458 H454 0.949 . S
C458 C466 1.574 . S
C458 C474 1.368 . S
H459 C467 0.950 . S
H460 C465 0.950 . S
H461 C466 0.949 . S
H462 C468 0.950 . S
H463 C469 0.950 1_556 S
H464 C470 0.949 . S
C465 H460 0.950 . S
C465 C467 1.327 . S
C465 C471 1.429 . S
C466 C458 1.574 . S
C466 H461 0.949 . S
C466 C472 1.368 . S
C467 C451 1.349 . S
C467 H459 0.950 . S
C467 C465 1.327 . S
C468 C456 1.349 1_556 S
C468 H462 0.950 . S
C468 C469 1.327 1_556 S
C469 H463 0.950 1_554 S
C469 C468 1.327 1_554 S
C469 C473 1.429 . S
C470 C453 1.574 . S
C470 H464 0.949 . S
C470 C474 1.368 . S
C471 C452 1.429 . S
C471 C465 1.429 . S
C471 C472 1.523 . S
C472 C453 1.368 . S
C472 C466 1.368 . S
C472 C471 1.523 . S
C473 C457 1.429 . S
C473 C469 1.429 . S
C473 C474 1.523 . S
C474 C458 1.368 . S
C474 C470 1.368 . S
C474 C473 1.523 . S
H475 C450 0.950 . S
H476 C452 0.950 . S
H477 C453 0.949 . S
H478 C455 0.950 . S
H479 C457 0.950 . S
C480 C481 1.349 . S
C480 C482 1.327 . S
C480 H505 0.950 . S
C481 C480 1.349 . S
C481 C497 1.349 . S
C482 C480 1.327 . S
C482 C501 1.429 . S
C482 H506 0.950 . S
C483 C500 1.574 . S
C483 C502 1.368 . S
C483 H507 0.949 . S
H484 C488 0.949 . S
C485 C486 1.349 . S
C485 C487 1.327 . S
C485 H508 0.950 . S
C486 C485 1.349 . S
C486 C498 1.349 . S
C487 C485 1.327 . S
C487 C503 1.429 . S
C487 H509 0.950 . S
C488 H484 0.949 . S
C488 C496 1.574 . S
C488 C504 1.368 . S
H489 C497 0.950 . S
H490 C495 0.950 . S
H491 C496 0.949 . S
H492 C498 0.950 1_455 S
H493 C499 0.950 . S
H494 C500 0.949 . S
C495 H490 0.950 . S
C495 C497 1.327 . S
C495 C501 1.429 . S
C496 C488 1.574 . S
C496 H491 0.949 . S
C496 C502 1.368 . S
C497 C481 1.349 . S
C497 H489 0.950 . S
C497 C495 1.327 . S
C498 C486 1.349 . S
C498 H492 0.950 1_655 S
C498 C499 1.327 . S
C499 H493 0.950 . S
C499 C498 1.327 . S
C499 C503 1.429 . S
C500 C483 1.574 . S
C500 H494 0.949 . S
C500 C504 1.368 . S
C501 C482 1.429 . S
C501 C495 1.429 . S
C501 C502 1.523 . S
C502 C483 1.368 . S
C502 C496 1.368 . S
C502 C501 1.523 . S
C503 C487 1.429 . S
C503 C499 1.429 . S
C503 C504 1.523 . S
C504 C488 1.368 . S
C504 C500 1.368 . S
C504 C503 1.523 . S
H505 C480 0.950 . S
H506 C482 0.950 . S
H507 C483 0.949 . S
H508 C485 0.950 . S
H509 C487 0.950 . S
C510 C511 1.349 . S
C510 C512 1.327 . S
C510 H535 0.950 . S
C511 C510 1.349 . S
C511 C527 1.349 . S
C512 C510 1.327 . S
C512 C531 1.429 . S
C512 H536 0.950 . S
C513 C530 1.574 . S
C513 C532 1.368 . S
C513 H537 0.949 . S
H514 C518 0.949 . S
C515 C516 1.349 . S
C515 C517 1.327 . S
C515 H538 0.950 . S
C516 C515 1.349 . S
C516 C528 1.349 . S
C517 C515 1.327 . S
C517 C533 1.429 . S
C517 H539 0.950 . S
C518 H514 0.949 . S
C518 C526 1.574 . S
C518 C534 1.368 . S
H519 C527 0.950 . S
H520 C525 0.950 . S
H521 C526 0.949 . S
H522 C528 0.950 . S
H523 C529 0.950 . S
H524 C530 0.949 . S
C525 H520 0.950 . S
C525 C527 1.327 . S
C525 C531 1.429 . S
C526 C518 1.574 . S
C526 H521 0.949 . S
C526 C532 1.368 . S
C527 C511 1.349 . S
C527 H519 0.950 . S
C527 C525 1.327 . S
C528 C516 1.349 . S
C528 H522 0.950 . S
C528 C529 1.327 . S
C529 H523 0.950 . S
C529 C528 1.327 . S
C529 C533 1.429 . S
C530 C513 1.574 . S
C530 H524 0.949 . S
C530 C534 1.368 . S
C531 C512 1.429 . S
C531 C525 1.429 . S
C531 C532 1.523 . S
C532 C513 1.368 . S
C532 C526 1.368 . S
C532 C531 1.523 . S
C533 C517 1.429 . S
C533 C529 1.429 . S
C533 C534 1.523 . S
C534 C518 1.368 . S
C534 C530 1.368 . S
C534 C533 1.523 . S
H535 C510 0.950 . S
H536 C512 0.950 . S
H537 C513 0.949 . S
H538 C515 0.950 . S
H539 C517 0.950 . S
C540 C541 1.349 . S
C540 C542 1.327 . S
C540 H565 0.950 . S
C541 C540 1.349 . S
C541 C557 1.349 . S
C542 C540 1.327 . S
C542 C561 1.429 . S
C542 H566 0.950 . S
C543 C560 1.574 . S
C543 C562 1.368 . S
C543 H567 0.949 . S
H544 C548 0.949 . S
C545 C546 1.349 . S
C545 C547 1.327 . S
C545 H568 0.950 . S
C546 C545 1.349 . S
C546 C558 1.349 . S
C547 C545 1.327 . S
C547 C563 1.429 . S
C547 H569 0.950 . S
C548 H544 0.949 . S
C548 C556 1.574 . S
C548 C564 1.368 . S
H549 C557 0.950 . S
H550 C555 0.950 . S
H551 C556 0.949 . S
H552 C558 0.950 . S
H553 C559 0.950 . S
H554 C560 0.949 . S
C555 H550 0.950 . S
C555 C557 1.327 . S
C555 C561 1.429 . S
C556 C548 1.574 . S
C556 H551 0.949 . S
C556 C562 1.368 . S
C557 C541 1.349 . S
C557 H549 0.950 . S
C557 C555 1.327 . S
C558 C546 1.349 . S
C558 H552 0.950 . S
C558 C559 1.327 . S
C559 H553 0.950 . S
C559 C558 1.327 . S
C559 C563 1.429 . S
C560 C543 1.574 . S
C560 H554 0.949 . S
C560 C564 1.368 . S
C561 C542 1.429 . S
C561 C555 1.429 . S
C561 C562 1.523 1_455 S
C562 C543 1.368 . S
C562 C556 1.368 . S
C562 C561 1.523 1_655 S
C563 C547 1.429 . S
C563 C559 1.429 . S
C563 C564 1.523 . S
C564 C548 1.368 . S
C564 C560 1.368 . S
C564 C563 1.523 . S
H565 C540 0.950 . S
H566 C542 0.950 . S
H567 C543 0.949 . S
H568 C545 0.950 . S
H569 C547 0.950 . S
C570 C571 1.349 . S
C570 C572 1.327 . S
C570 H595 0.950 . S
C571 C570 1.349 . S
C571 C587 1.349 . S
C572 C570 1.327 . S
C572 C591 1.429 . S
C572 H596 0.950 . S
C573 C590 1.574 . S
C573 C592 1.368 . S
C573 H597 0.949 . S
H574 C578 0.949 . S
C575 C576 1.349 . S
C575 C577 1.327 . S
C575 H598 0.950 . S
C576 C575 1.349 . S
C576 C588 1.349 . S
C577 C575 1.327 . S
C577 C593 1.429 . S
C577 H599 0.950 . S
C578 H574 0.949 . S
C578 C586 1.574 . S
C578 C594 1.368 . S
H579 C587 0.950 . S
H580 C585 0.950 . S
H581 C586 0.949 . S
H582 C588 0.950 . S
H583 C589 0.950 . S
H584 C590 0.949 . S
C585 H580 0.950 . S
C585 C587 1.327 . S
C585 C591 1.429 . S
C586 C578 1.574 . S
C586 H581 0.949 . S
C586 C592 1.368 . S
C587 C571 1.349 . S
C587 H579 0.950 . S
C587 C585 1.327 . S
C588 C576 1.349 . S
C588 H582 0.950 . S
C588 C589 1.327 . S
C589 H583 0.950 . S
C589 C588 1.327 . S
C589 C593 1.429 . S
C590 C573 1.574 . S
C590 H584 0.949 . S
C590 C594 1.368 . S
C591 C572 1.429 . S
C591 C585 1.429 . S
C591 C592 1.523 . S
C592 C573 1.368 . S
C592 C586 1.368 . S
C592 C591 1.523 . S
C593 C577 1.429 . S
C593 C589 1.429 . S
C593 C594 1.523 . S
C594 C578 1.368 . S
C594 C590 1.368 . S
C594 C593 1.523 . S
H595 C570 0.950 . S
H596 C572 0.950 . S
H597 C573 0.949 . S
H598 C575 0.950 . S
H599 C577 0.950 . S
C600 C601 1.349 . S
C600 C602 1.327 . S
C600 H625 0.950 . S
C601 C600 1.349 . S
C601 C617 1.349 . S
C602 C600 1.327 . S
C602 C621 1.429 . S
C602 H626 0.950 . S
C603 C620 1.574 . S
C603 C622 1.368 . S
C603 H627 0.949 . S
H604 C608 0.949 . S
C605 C606 1.349 . S
C605 C607 1.327 1_565 S
C605 H628 0.950 . S
C606 C605 1.349 . S
C606 C618 1.349 . S
C607 C605 1.327 1_545 S
C607 C623 1.429 . S
C607 H629 0.950 . S
C608 H604 0.949 . S
C608 C616 1.574 . S
C608 C624 1.368 . S
H609 C617 0.950 . S
H610 C615 0.950 . S
H611 C616 0.949 . S
H612 C618 0.950 . S
H613 C619 0.950 . S
H614 C620 0.949 . S
C615 H610 0.950 . S
C615 C617 1.327 . S
C615 C621 1.429 . S
C616 C608 1.574 . S
C616 H611 0.949 . S
C616 C622 1.368 . S
C617 C601 1.349 . S
C617 H609 0.950 . S
C617 C615 1.327 . S
C618 C606 1.349 . S
C618 H612 0.950 . S
C618 C619 1.327 1_565 S
C619 H613 0.950 . S
C619 C618 1.327 1_545 S
C619 C623 1.429 . S
C620 C603 1.574 . S
C620 H614 0.949 . S
C620 C624 1.368 . S
C621 C602 1.429 . S
C621 C615 1.429 . S
C621 C622 1.523 . S
C622 C603 1.368 . S
C622 C616 1.368 . S
C622 C621 1.523 . S
C623 C607 1.429 . S
C623 C619 1.429 . S
C623 C624 1.523 . S
C624 C608 1.368 . S
C624 C620 1.368 . S
C624 C623 1.523 . S
H625 C600 0.950 . S
H626 C602 0.950 . S
H627 C603 0.949 . S
H628 C605 0.950 . S
H629 C607 0.950 . S
C630 C631 1.349 . S
C630 C632 1.327 . S
C630 H655 0.950 . S
C631 C630 1.349 . S
C631 C647 1.349 1_554 S
C632 C630 1.327 . S
C632 C651 1.429 . S
C632 H656 0.950 . S
C633 C650 1.574 . S
C633 C652 1.368 1_556 S
C633 H657 0.949 . S
H634 C638 0.949 . S
C635 C636 1.349 1_556 S
C635 C637 1.327 . S
C635 H658 0.950 . S
C636 C635 1.349 1_554 S
C636 C648 1.349 . S
C637 C635 1.327 . S
C637 C653 1.429 1_556 S
C637 H659 0.950 . S
C638 H634 0.949 . S
C638 C646 1.574 . S
C638 C654 1.368 . S
H639 C647 0.950 . S
H640 C645 0.950 . S
H641 C646 0.949 . S
H642 C648 0.950 . S
H643 C649 0.950 . S
H644 C650 0.949 . S
C645 H640 0.950 . S
C645 C647 1.327 . S
C645 C651 1.429 1_556 S
C646 C638 1.574 . S
C646 H641 0.949 . S
C646 C652 1.368 . S
C647 C631 1.349 1_556 S
C647 H639 0.950 . S
C647 C645 1.327 . S
C648 C636 1.349 . S
C648 H642 0.950 . S
C648 C649 1.327 . S
C649 H643 0.950 . S
C649 C648 1.327 . S
C649 C653 1.429 . S
C650 C633 1.574 . S
C650 H644 0.949 . S
C650 C654 1.368 1_556 S
C651 C632 1.429 . S
C651 C645 1.429 1_554 S
C651 C652 1.523 . S
C652 C633 1.368 1_554 S
C652 C646 1.368 . S
C652 C651 1.523 . S
C653 C637 1.429 1_554 S
C653 C649 1.429 . S
C653 C654 1.523 . S
C654 C638 1.368 . S
C654 C650 1.368 1_554 S
C654 C653 1.523 . S
H655 C630 0.950 . S
H656 C632 0.950 . S
H657 C633 0.949 . S
H658 C635 0.950 . S
H659 C637 0.950 . S
C660 C661 1.349 1_556 S
C660 C662 1.327 . S
C660 H685 0.950 . S
C661 C660 1.349 1_554 S
C661 C677 1.349 . S
C662 C660 1.327 . S
C662 C681 1.429 1_556 S
C662 H686 0.950 . S
C663 C680 1.574 . S
C663 C682 1.368 . S
C663 H687 0.949 . S
H664 C668 0.949 . S
C665 C666 1.349 . S
C665 C667 1.327 . S
C665 H688 0.950 . S
C666 C665 1.349 . S
C666 C678 1.349 1_554 S
C667 C665 1.327 . S
C667 C683 1.429 . S
C667 H689 0.950 . S
C668 H664 0.949 . S
C668 C676 1.574 . S
C668 C684 1.368 1_556 S
H669 C677 0.950 . S
H670 C675 0.950 . S
H671 C676 0.949 . S
H672 C678 0.950 . S
H673 C679 0.950 . S
H674 C680 0.949 . S
C675 H670 0.950 . S
C675 C677 1.327 . S
C675 C681 1.429 . S
C676 C668 1.574 . S
C676 H671 0.949 . S
C676 C682 1.368 1_556 S
C677 C661 1.349 . S
C677 H669 0.950 . S
C677 C675 1.327 . S
C678 C666 1.349 1_556 S
C678 H672 0.950 . S
C678 C679 1.327 . S
C679 H673 0.950 . S
C679 C678 1.327 . S
C679 C683 1.429 1_556 S
C680 C663 1.574 . S
C680 H674 0.949 . S
C680 C684 1.368 . S
C681 C662 1.429 1_554 S
C681 C675 1.429 . S
C681 C682 1.523 . S
C682 C663 1.368 . S
C682 C676 1.368 1_554 S
C682 C681 1.523 . S
C683 C667 1.429 . S
C683 C679 1.429 1_554 S
C683 C684 1.523 1_545 S
C684 C668 1.368 1_554 S
C684 C680 1.368 . S
C684 C683 1.523 1_565 S
H685 C660 0.950 . S
H686 C662 0.950 . S
H687 C663 0.949 . S
H688 C665 0.950 . S
H689 C667 0.950 . S
C690 C691 1.349 . S
C690 C692 1.327 1_655 S
C690 H715 0.950 . S
C691 C690 1.349 . S
C691 C707 1.349 1_554 S
C692 C690 1.327 1_455 S
C692 C711 1.429 . S
C692 H716 0.950 . S
C693 C710 1.574 . S
C693 C712 1.368 1_556 S
C693 H717 0.949 . S
H694 C698 0.949 . S
C695 C696 1.349 1_556 S
C695 C697 1.327 . S
C695 H718 0.950 . S
C696 C695 1.349 1_554 S
C696 C708 1.349 . S
C697 C695 1.327 . S
C697 C713 1.429 1_556 S
C697 H719 0.950 . S
C698 H694 0.949 . S
C698 C706 1.574 . S
C698 C714 1.368 . S
H699 C707 0.950 . S
H700 C705 0.950 . S
H701 C706 0.949 . S
H702 C708 0.950 . S
H703 C709 0.950 . S
H704 C710 0.949 . S
C705 H700 0.950 . S
C705 C707 1.327 1_455 S
C705 C711 1.429 1_556 S
C706 C698 1.574 . S
C706 H701 0.949 . S
C706 C712 1.368 . S
C707 C691 1.349 1_556 S
C707 H699 0.950 . S
C707 C705 1.327 1_655 S
C708 C696 1.349 . S
C708 H702 0.950 . S
C708 C709 1.327 . S
C709 H703 0.950 . S
C709 C708 1.327 . S
C709 C713 1.429 . S
C710 C693 1.574 . S
C710 H704 0.949 . S
C710 C714 1.368 1_556 S
C711 C692 1.429 . S
C711 C705 1.429 1_554 S
C711 C712 1.523 . S
C712 C693 1.368 1_554 S
C712 C706 1.368 . S
C712 C711 1.523 . S
C713 C697 1.429 1_554 S
C713 C709 1.429 . S
C713 C714 1.523 . S
C714 C698 1.368 . S
C714 C710 1.368 1_554 S
C714 C713 1.523 . S
H715 C690 0.950 . S
H716 C692 0.950 . S
H717 C693 0.949 . S
H718 C695 0.950 . S
H719 C697 0.950 . S
C720 C721 1.349 . S
C720 C722 1.327 . S
C720 H745 0.950 . S
C721 C720 1.349 . S
C721 C737 1.349 . S
C722 C720 1.327 . S
C722 C741 1.429 . S
C722 H746 0.950 . S
C723 C740 1.574 . S
C723 C742 1.368 . S
C723 H747 0.949 . S
H724 C728 0.949 . S
C725 C726 1.349 . S
C725 C727 1.327 . S
C725 H748 0.950 . S
C726 C725 1.349 . S
C726 C738 1.349 . S
C727 C725 1.327 . S
C727 C743 1.429 . S
C727 H749 0.950 . S
C728 H724 0.949 . S
C728 C736 1.574 . S
C728 C744 1.368 . S
H729 C737 0.950 . S
H730 C735 0.950 . S
H731 C736 0.949 . S
H732 C738 0.950 . S
H733 C739 0.950 . S
H734 C740 0.949 . S
C735 H730 0.950 . S
C735 C737 1.327 . S
C735 C741 1.429 . S
C736 C728 1.574 . S
C736 H731 0.949 . S
C736 C742 1.368 . S
C737 C721 1.349 . S
C737 H729 0.950 . S
C737 C735 1.327 . S
C738 C726 1.349 . S
C738 H732 0.950 . S
C738 C739 1.327 . S
C739 H733 0.950 . S
C739 C738 1.327 . S
C739 C743 1.429 . S
C740 C723 1.574 . S
C740 H734 0.949 . S
C740 C744 1.368 . S
C741 C722 1.429 . S
C741 C735 1.429 . S
C741 C742 1.523 . S
C742 C723 1.368 . S
C742 C736 1.368 . S
C742 C741 1.523 . S
C743 C727 1.429 . S
C743 C739 1.429 . S
C743 C744 1.523 . S
C744 C728 1.368 . S
C744 C740 1.368 . S
C744 C743 1.523 . S
H745 C720 0.950 . S
H746 C722 0.950 . S
H747 C723 0.949 . S
H748 C725 0.950 . S
H749 C727 0.950 . S
C750 C751 1.349 . S
C750 C752 1.327 . S
C750 H775 0.950 . S
C751 C750 1.349 . S
C751 C767 1.349 . S
C752 C750 1.327 . S
C752 C771 1.429 . S
C752 H776 0.950 . S
C753 C770 1.574 . S
C753 C772 1.368 . S
C753 H777 0.949 . S
H754 C758 0.949 . S
C755 C756 1.349 . S
C755 C757 1.327 . S
C755 H778 0.950 . S
C756 C755 1.349 . S
C756 C768 1.349 . S
C757 C755 1.327 . S
C757 C773 1.429 . S
C757 H779 0.950 . S
C758 H754 0.949 . S
C758 C766 1.574 . S
C758 C774 1.368 . S
H759 C767 0.950 . S
H760 C765 0.950 . S
H761 C766 0.949 . S
H762 C768 0.950 . S
H763 C769 0.950 . S
H764 C770 0.949 . S
C765 H760 0.950 . S
C765 C767 1.327 . S
C765 C771 1.429 . S
C766 C758 1.574 . S
C766 H761 0.949 . S
C766 C772 1.368 . S
C767 C751 1.349 . S
C767 H759 0.950 . S
C767 C765 1.327 . S
C768 C756 1.349 . S
C768 H762 0.950 . S
C768 C769 1.327 . S
C769 H763 0.950 . S
C769 C768 1.327 . S
C769 C773 1.429 . S
C770 C753 1.574 . S
C770 H764 0.949 . S
C770 C774 1.368 . S
C771 C752 1.429 . S
C771 C765 1.429 . S
C771 C772 1.523 . S
C772 C753 1.368 . S
C772 C766 1.368 . S
C772 C771 1.523 . S
C773 C757 1.429 . S
C773 C769 1.429 . S
C773 C774 1.523 . S
C774 C758 1.368 . S
C774 C770 1.368 . S
C774 C773 1.523 . S
H775 C750 0.950 . S
H776 C752 0.950 . S
H777 C753 0.949 . S
H778 C755 0.950 . S
H779 C757 0.950 . S
C780 C781 1.349 . S
C780 C782 1.327 . S
C780 H805 0.950 . S
C781 C780 1.349 . S
C781 C797 1.349 . S
C782 C780 1.327 . S
C782 C801 1.429 . S
C782 H806 0.950 . S
C783 C800 1.574 . S
C783 C802 1.368 . S
C783 H807 0.949 . S
H784 C788 0.949 . S
C785 C786 1.349 . S
C785 C787 1.327 . S
C785 H808 0.950 . S
C786 C785 1.349 . S
C786 C798 1.349 . S
C787 C785 1.327 . S
C787 C803 1.429 . S
C787 H809 0.950 . S
C788 H784 0.949 . S
C788 C796 1.574 . S
C788 C804 1.368 . S
H789 C797 0.950 . S
H790 C795 0.950 . S
H791 C796 0.949 . S
H792 C798 0.950 . S
H793 C799 0.950 . S
H794 C800 0.949 . S
C795 H790 0.950 . S
C795 C797 1.327 . S
C795 C801 1.429 . S
C796 C788 1.574 . S
C796 H791 0.949 . S
C796 C802 1.368 . S
C797 C781 1.349 . S
C797 H789 0.950 . S
C797 C795 1.327 . S
C798 C786 1.349 . S
C798 H792 0.950 . S
C798 C799 1.327 . S
C799 H793 0.950 . S
C799 C798 1.327 . S
C799 C803 1.429 . S
C800 C783 1.574 . S
C800 H794 0.949 . S
C800 C804 1.368 . S
C801 C782 1.429 . S
C801 C795 1.429 . S
C801 C802 1.523 . S
C802 C783 1.368 . S
C802 C796 1.368 . S
C802 C801 1.523 . S
C803 C787 1.429 . S
C803 C799 1.429 . S
C803 C804 1.523 . S
C804 C788 1.368 . S
C804 C800 1.368 . S
C804 C803 1.523 . S
H805 C780 0.950 . S
H806 C782 0.950 . S
H807 C783 0.949 . S
H808 C785 0.950 . S
H809 C787 0.950 . S
C810 C811 1.349 . S
C810 C812 1.327 . S
C810 H835 0.950 . S
C811 C810 1.349 . S
C811 C827 1.349 . S
C812 C810 1.327 . S
C812 C831 1.429 . S
C812 H836 0.950 . S
C813 C830 1.574 . S
C813 C832 1.368 . S
C813 H837 0.949 . S
H814 C818 0.949 . S
C815 C816 1.349 . S
C815 C817 1.327 . S
C815 H838 0.950 . S
C816 C815 1.349 . S
C816 C828 1.349 . S
C817 C815 1.327 . S
C817 C833 1.429 . S
C817 H839 0.950 . S
C818 H814 0.949 . S
C818 C826 1.574 . S
C818 C834 1.368 . S
H819 C827 0.950 . S
H820 C825 0.950 . S
H821 C826 0.949 . S
H822 C828 0.950 . S
H823 C829 0.950 . S
H824 C830 0.949 . S
C825 H820 0.950 . S
C825 C827 1.327 . S
C825 C831 1.429 . S
C826 C818 1.574 . S
C826 H821 0.949 . S
C826 C832 1.368 . S
C827 C811 1.349 . S
C827 H819 0.950 . S
C827 C825 1.327 . S
C828 C816 1.349 . S
C828 H822 0.950 . S
C828 C829 1.327 . S
C829 H823 0.950 . S
C829 C828 1.327 . S
C829 C833 1.429 . S
C830 C813 1.574 . S
C830 H824 0.949 . S
C830 C834 1.368 . S
C831 C812 1.429 . S
C831 C825 1.429 . S
C831 C832 1.523 . S
C832 C813 1.368 . S
C832 C826 1.368 . S
C832 C831 1.523 . S
C833 C817 1.429 . S
C833 C829 1.429 . S
C833 C834 1.523 . S
C834 C818 1.368 . S
C834 C830 1.368 . S
C834 C833 1.523 . S
H835 C810 0.950 . S
H836 C812 0.950 . S
H837 C813 0.949 . S
H838 C815 0.950 . S
H839 C817 0.950 . S
C840 C841 1.349 . S
C840 C842 1.327 . S
C840 H865 0.950 . S
C841 C840 1.349 . S
C841 C857 1.349 . S
C842 C840 1.327 . S
C842 C861 1.429 . S
C842 H866 0.950 . S
C843 C860 1.574 . S
C843 C862 1.368 . S
C843 H867 0.949 . S
H844 C848 0.949 . S
C845 C846 1.349 . S
C845 C847 1.327 . S
C845 H868 0.950 . S
C846 C845 1.349 . S
C846 C858 1.349 . S
C847 C845 1.327 . S
C847 C863 1.429 . S
C847 H869 0.950 . S
C848 H844 0.949 . S
C848 C856 1.574 . S
C848 C864 1.368 . S
H849 C857 0.950 . S
H850 C855 0.950 . S
H851 C856 0.949 . S
H852 C858 0.950 . S
H853 C859 0.950 . S
H854 C860 0.949 . S
C855 H850 0.950 . S
C855 C857 1.327 . S
C855 C861 1.429 . S
C856 C848 1.574 . S
C856 H851 0.949 . S
C856 C862 1.368 . S
C857 C841 1.349 . S
C857 H849 0.950 . S
C857 C855 1.327 . S
C858 C846 1.349 . S
C858 H852 0.950 . S
C858 C859 1.327 . S
C859 H853 0.950 . S
C859 C858 1.327 . S
C859 C863 1.429 . S
C860 C843 1.574 . S
C860 H854 0.949 . S
C860 C864 1.368 . S
C861 C842 1.429 . S
C861 C855 1.429 . S
C861 C862 1.523 . S
C862 C843 1.368 . S
C862 C856 1.368 . S
C862 C861 1.523 . S
C863 C847 1.429 . S
C863 C859 1.429 . S
C863 C864 1.523 . S
C864 C848 1.368 . S
C864 C860 1.368 . S
C864 C863 1.523 . S
H865 C840 0.950 . S
H866 C842 0.950 . S
H867 C843 0.949 . S
H868 C845 0.950 . S
H869 C847 0.950 . S
C870 C871 1.349 . S
C870 C872 1.327 . S
C870 H895 0.950 . S
C871 C870 1.349 . S
C871 C887 1.349 . S
C872 C870 1.327 . S
C872 C891 1.429 . S
C872 H896 0.950 . S
C873 C890 1.574 . S
C873 C892 1.368 . S
C873 H897 0.949 . S
H874 C878 0.949 . S
C875 C876 1.349 . S
C875 C877 1.327 . S
C875 H898 0.950 . S
C876 C875 1.349 . S
C876 C888 1.349 . S
C877 C875 1.327 . S
C877 C893 1.429 . S
C877 H899 0.950 . S
C878 H874 0.949 . S
C878 C886 1.574 . S
C878 C894 1.368 . S
H879 C887 0.950 . S
H880 C885 0.950 . S
H881 C886 0.949 . S
H882 C888 0.950 . S
H883 C889 0.950 . S
H884 C890 0.949 . S
C885 H880 0.950 . S
C885 C887 1.327 . S
C885 C891 1.429 . S
C886 C878 1.574 . S
C886 H881 0.949 . S
C886 C892 1.368 . S
C887 C871 1.349 . S
C887 H879 0.950 . S
C887 C885 1.327 . S
C888 C876 1.349 . S
C888 H882 0.950 . S
C888 C889 1.327 . S
C889 H883 0.950 . S
C889 C888 1.327 . S
C889 C893 1.429 . S
C890 C873 1.574 . S
C890 H884 0.949 . S
C890 C894 1.368 . S
C891 C872 1.429 . S
C891 C885 1.429 . S
C891 C892 1.523 . S
C892 C873 1.368 . S
C892 C886 1.368 . S
C892 C891 1.523 . S
C893 C877 1.429 . S
C893 C889 1.429 . S
C893 C894 1.523 . S
C894 C878 1.368 . S
C894 C890 1.368 . S
C894 C893 1.523 . S
H895 C870 0.950 . S
H896 C872 0.950 . S
H897 C873 0.949 . S
H898 C875 0.950 . S
H899 C877 0.950 . S
C900 C901 1.349 . S
C900 C902 1.327 . S
C900 H925 0.950 . S
C901 C900 1.349 . S
C901 C917 1.349 1_455 S
C902 C900 1.327 . S
C902 C921 1.429 . S
C902 H926 0.950 . S
C903 C920 1.574 . S
C903 C922 1.368 1_655 S
C903 H927 0.949 . S
H904 C908 0.949 . S
C905 C906 1.350 . S
C905 C907 1.325 1_455 S
C905 H928 0.949 1_455 S
C906 C905 1.350 . S
C906 C918 1.349 . S
C907 C905 1.325 1_655 S
C907 C923 1.400 1_655 S
C907 H929 0.985 . S
C908 H904 0.949 . S
C908 C916 1.574 . S
C908 C924 1.368 . S
H909 C917 0.950 . S
H910 C915 0.950 . S
H911 C916 0.949 . S
H912 C918 0.950 . S
H913 C919 0.950 . S
H914 C920 0.949 . S
C915 H910 0.950 . S
C915 C917 1.327 . S
C915 C921 1.429 1_655 S
C916 C908 1.574 . S
C916 H911 0.949 . S
C916 C922 1.368 . S
C917 C901 1.349 1_655 S
C917 H909 0.950 . S
C917 C915 1.327 . S
C918 C906 1.349 . S
C918 H912 0.950 . S
C918 C919 1.327 . S
C919 H913 0.950 . S
C919 C918 1.327 . S
C919 C923 1.429 . S
C920 C903 1.574 . S
C920 H914 0.949 . S
C920 C924 1.368 1_655 S
C921 C902 1.429 . S
C921 C915 1.429 1_455 S
C921 C922 1.523 . S
C922 C903 1.368 1_455 S
C922 C916 1.368 . S
C922 C921 1.523 . S
C923 C907 1.400 1_455 S
C923 C919 1.429 . S
C923 C924 1.523 . S
C924 C908 1.368 . S
C924 C920 1.368 1_455 S
C924 C923 1.523 . S
H925 C900 0.950 . S
H926 C902 0.950 . S
H927 C903 0.949 . S
H928 C905 0.949 1_655 S
H929 C907 0.985 . S
C930 C931 1.349 . S
C930 C932 1.327 . S
C930 H955 0.950 . S
C931 C930 1.349 . S
C931 C947 1.349 . S
C932 C930 1.327 . S
C932 C951 1.429 . S
C932 H956 0.950 . S
C933 C950 1.574 . S
C933 C952 1.368 . S
C933 H957 0.949 . S
H934 C938 0.949 . S
C935 C936 1.349 . S
C935 C937 1.327 . S
C935 H958 0.950 . S
C936 C935 1.349 . S
C936 C948 1.349 . S
C937 C935 1.327 . S
C937 C953 1.429 . S
C937 H959 0.950 . S
C938 H934 0.949 . S
C938 C946 1.574 . S
C938 C954 1.368 . S
H939 C947 0.950 . S
H940 C945 0.950 . S
H941 C946 0.949 . S
H942 C948 0.950 . S
H943 C949 0.950 . S
H944 C950 0.949 . S
C945 H940 0.950 . S
C945 C947 1.327 . S
C945 C951 1.429 . S
C946 C938 1.574 . S
C946 H941 0.949 . S
C946 C952 1.368 . S
C947 C931 1.349 . S
C947 H939 0.950 . S
C947 C945 1.327 . S
C948 C936 1.349 . S
C948 H942 0.950 . S
C948 C949 1.327 . S
C949 H943 0.950 . S
C949 C948 1.327 . S
C949 C953 1.429 . S
C950 C933 1.574 . S
C950 H944 0.949 . S
C950 C954 1.368 . S
C951 C932 1.429 . S
C951 C945 1.429 . S
C951 C952 1.523 . S
C952 C933 1.368 . S
C952 C946 1.368 . S
C952 C951 1.523 . S
C953 C937 1.429 . S
C953 C949 1.429 . S
C953 C954 1.523 . S
C954 C938 1.368 . S
C954 C950 1.368 . S
C954 C953 1.523 . S
H955 C930 0.950 . S
H956 C932 0.950 . S
H957 C933 0.949 . S
H958 C935 0.950 . S
H959 C937 0.950 . S
C960 C961 1.349 . S
C960 C962 1.327 . S
C960 H985 0.950 1_545 S
C961 C960 1.349 . S
C961 C977 1.349 . S
C962 C960 1.327 . S
C962 C981 1.429 . S
C962 H986 0.950 1_545 S
C963 C980 1.574 . S
C963 C982 1.368 . S
C963 H987 0.949 . S
H964 C968 0.949 . S
C965 C966 1.349 . S
C965 C967 1.327 . S
C965 H988 0.950 . S
C966 C965 1.349 . S
C966 C978 1.349 1_545 S
C967 C965 1.327 . S
C967 C983 1.429 . S
C967 H989 0.950 . S
C968 H964 0.949 . S
C968 C976 1.574 . S
C968 C984 1.368 1_565 S
H969 C977 0.950 . S
H970 C975 0.950 . S
H971 C976 0.957 . S
H972 C978 0.950 . S
H973 C979 0.950 . S
H974 C980 0.949 . S
C975 H970 0.950 . S
C975 C977 1.327 . S
C975 C981 1.429 . S
C976 C968 1.574 . S
C976 H971 0.957 . S
C976 C982 1.360 1_565 S
C977 C961 1.349 . S
C977 H969 0.950 . S
C977 C975 1.327 . S
C978 C966 1.349 1_565 S
C978 H972 0.950 . S
C978 C979 1.327 . S
C979 H973 0.950 . S
C979 C978 1.327 . S
C979 C983 1.429 1_565 S
C980 C963 1.574 . S
C980 H974 0.949 . S
C980 C984 1.368 . S
C981 C962 1.429 . S
C981 C975 1.429 . S
C981 C982 1.523 . S
C982 C963 1.368 . S
C982 C976 1.360 1_545 S
C982 C981 1.523 . S
C983 C967 1.429 . S
C983 C979 1.429 1_545 S
C983 C984 1.523 . S
C984 C968 1.368 1_545 S
C984 C980 1.368 . S
C984 C983 1.523 . S
H985 C960 0.950 1_565 S
H986 C962 0.950 1_565 S
H987 C963 0.949 . S
H988 C965 0.950 . S
H989 C967 0.950 . S
C990 C991 1.349 . S
C990 C992 1.327 . S
C990 H1015 0.950 . S
C991 C990 1.349 . S
C991 C1007 1.349 . S
C992 C990 1.327 . S
C992 C1011 1.429 . S
C992 H1016 0.950 . S
C993 C1010 1.574 . S
C993 C1012 1.368 . S
C993 H1017 0.949 . S
H994 C998 0.949 . S
C995 C996 1.349 . S
C995 C997 1.327 . S
C995 H1018 0.950 . S
C996 C995 1.349 . S
C996 C1008 1.349 . S
C997 C995 1.327 . S
C997 C1013 1.429 1_554 S
C997 H1019 0.950 . S
C998 H994 0.949 . S
C998 C1006 1.574 . S
C998 C1014 1.368 . S
H999 C1007 0.950 . S
H1000 C1005 0.950 . S
H1001 C1006 0.949 . S
H1002 C1008 0.950 . S
H1003 C1009 0.950 . S
H1004 C1010 0.949 . S
C1005 H1000 0.950 . S
C1005 C1007 1.327 . S
C1005 C1011 1.429 . S
C1006 C998 1.574 . S
C1006 H1001 0.949 . S
C1006 C1012 1.368 . S
C1007 C991 1.349 . S
C1007 H999 0.950 . S
C1007 C1005 1.327 . S
C1008 C996 1.349 . S
C1008 H1002 0.950 . S
C1008 C1009 1.327 . S
C1009 H1003 0.950 . S
C1009 C1008 1.327 . S
C1009 C1013 1.429 1_554 S
C1010 C993 1.574 . S
C1010 H1004 0.949 . S
C1010 C1014 1.368 . S
C1011 C992 1.429 . S
C1011 C1005 1.429 . S
C1011 C1012 1.523 . S
C1012 C993 1.368 . S
C1012 C1006 1.368 . S
C1012 C1011 1.523 . S
C1013 C997 1.429 1_556 S
C1013 C1009 1.429 1_556 S
C1013 C1014 1.523 . S
C1014 C998 1.368 . S
C1014 C1010 1.368 . S
C1014 C1013 1.523 . S
H1015 C990 0.950 . S
H1016 C992 0.950 . S
H1017 C993 0.949 . S
H1018 C995 0.950 . S
H1019 C997 0.950 . S
C1020 C1021 1.349 . S
C1020 C1022 1.327 . S
C1020 H1045 0.950 . S
C1021 C1020 1.349 . S
C1021 C1037 1.349 . S
C1022 C1020 1.327 . S
C1022 C1041 1.429 . S
C1022 H1046 0.950 . S
C1023 C1040 1.574 . S
C1023 C1042 1.368 . S
C1023 H1047 0.949 . S
H1024 C1028 0.949 . S
C1025 C1026 1.349 . S
C1025 C1027 1.327 . S
C1025 H1048 0.950 . S
C1026 C1025 1.349 . S
C1026 C1038 1.349 . S
C1027 C1025 1.327 . S
C1027 C1043 1.429 1_554 S
C1027 H1049 0.950 . S
C1028 H1024 0.949 . S
C1028 C1036 1.574 . S
C1028 C1044 1.368 . S
H1029 C1037 0.950 . S
H1030 C1035 0.950 . S
H1031 C1036 0.949 . S
H1032 C1038 0.950 . S
H1033 C1039 0.950 . S
H1034 C1040 0.949 . S
C1035 H1030 0.950 . S
C1035 C1037 1.327 . S
C1035 C1041 1.429 . S
C1036 C1028 1.574 . S
C1036 H1031 0.949 . S
C1036 C1042 1.368 . S
C1037 C1021 1.349 . S
C1037 H1029 0.950 . S
C1037 C1035 1.327 . S
C1038 C1026 1.349 . S
C1038 H1032 0.950 . S
C1038 C1039 1.327 . S
C1039 H1033 0.950 . S
C1039 C1038 1.327 . S
C1039 C1043 1.429 1_554 S
C1040 C1023 1.574 . S
C1040 H1034 0.949 . S
C1040 C1044 1.368 . S
C1041 C1022 1.429 . S
C1041 C1035 1.429 . S
C1041 C1042 1.523 . S
C1042 C1023 1.368 . S
C1042 C1036 1.368 . S
C1042 C1041 1.523 . S
C1043 C1027 1.429 1_556 S
C1043 C1039 1.429 1_556 S
C1043 C1044 1.523 . S
C1044 C1028 1.368 . S
C1044 C1040 1.368 . S
C1044 C1043 1.523 . S
H1045 C1020 0.950 . S
H1046 C1022 0.950 . S
H1047 C1023 0.949 . S
H1048 C1025 0.950 . S
H1049 C1027 0.950 . S
C1050 C1051 1.349 . S
C1050 C1052 1.327 . S
C1050 H1075 0.950 . S
C1051 C1050 1.349 . S
C1051 C1067 1.349 . S
C1052 C1050 1.327 . S
C1052 C1071 1.429 . S
C1052 H1076 0.950 . S
C1053 C1070 1.574 . S
C1053 C1072 1.368 . S
C1053 H1077 0.949 . S
H1054 C1058 0.949 . S
C1055 C1056 1.349 . S
C1055 C1057 1.327 . S
C1055 H1078 0.950 . S
C1056 C1055 1.349 . S
C1056 C1068 1.349 . S
C1057 C1055 1.327 . S
C1057 C1073 1.429 1_554 S
C1057 H1079 0.950 . S
C1058 H1054 0.949 . S
C1058 C1066 1.574 . S
C1058 C1074 1.368 . S
H1059 C1067 0.950 . S
H1060 C1065 0.950 . S
H1061 C1066 0.949 . S
H1062 C1068 0.950 . S
H1063 C1069 0.950 . S
H1064 C1070 0.949 . S
C1065 H1060 0.950 . S
C1065 C1067 1.327 . S
C1065 C1071 1.429 . S
C1066 C1058 1.574 . S
C1066 H1061 0.949 . S
C1066 C1072 1.368 . S
C1067 C1051 1.349 . S
C1067 H1059 0.950 . S
C1067 C1065 1.327 . S
C1068 C1056 1.349 . S
C1068 H1062 0.950 . S
C1068 C1069 1.327 . S
C1069 H1063 0.950 . S
C1069 C1068 1.327 . S
C1069 C1073 1.429 1_554 S
C1070 C1053 1.574 . S
C1070 H1064 0.949 . S
C1070 C1074 1.368 . S
C1071 C1052 1.429 . S
C1071 C1065 1.429 . S
C1071 C1072 1.523 . S
C1072 C1053 1.368 . S
C1072 C1066 1.368 . S
C1072 C1071 1.523 . S
C1073 C1057 1.429 1_556 S
C1073 C1069 1.429 1_556 S
C1073 C1074 1.523 . S
C1074 C1058 1.368 . S
C1074 C1070 1.368 . S
C1074 C1073 1.523 . S
H1075 C1050 0.950 . S
H1076 C1052 0.950 . S
H1077 C1053 0.949 . S
H1078 C1055 0.950 . S
H1079 C1057 0.950 . S
C1080 C1081 1.349 . S
C1080 C1082 1.327 . S
C1080 H1105 0.950 . S
C1081 C1080 1.349 . S
C1081 C1097 1.349 . S
C1082 C1080 1.327 . S
C1082 C1101 1.429 . S
C1082 H1106 0.950 . S
C1083 C1100 1.574 . S
C1083 C1102 1.368 . S
C1083 H1107 0.949 . S
H1084 C1088 0.949 . S
C1085 C1086 1.349 . S
C1085 C1087 1.327 . S
C1085 H1108 0.950 . S
C1086 C1085 1.349 . S
C1086 C1098 1.349 . S
C1087 C1085 1.327 . S
C1087 C1103 1.429 1_556 S
C1087 H1109 0.950 . S
C1088 H1084 0.949 . S
C1088 C1096 1.574 . S
C1088 C1104 1.368 . S
H1089 C1097 0.950 . S
H1090 C1095 0.950 . S
H1091 C1096 0.949 . S
H1092 C1098 0.950 . S
H1093 C1099 0.950 . S
H1094 C1100 0.949 . S
C1095 H1090 0.950 . S
C1095 C1097 1.327 . S
C1095 C1101 1.429 . S
C1096 C1088 1.574 . S
C1096 H1091 0.949 . S
C1096 C1102 1.368 . S
C1097 C1081 1.349 . S
C1097 H1089 0.950 . S
C1097 C1095 1.327 . S
C1098 C1086 1.349 . S
C1098 H1092 0.950 . S
C1098 C1099 1.327 . S
C1099 H1093 0.950 . S
C1099 C1098 1.327 . S
C1099 C1103 1.429 1_556 S
C1100 C1083 1.574 . S
C1100 H1094 0.949 . S
C1100 C1104 1.368 . S
C1101 C1082 1.429 . S
C1101 C1095 1.429 . S
C1101 C1102 1.523 . S
C1102 C1083 1.368 . S
C1102 C1096 1.368 . S
C1102 C1101 1.523 . S
C1103 C1087 1.429 1_554 S
C1103 C1099 1.429 1_554 S
C1103 C1104 1.523 . S
C1104 C1088 1.368 . S
C1104 C1100 1.368 . S
C1104 C1103 1.523 . S
H1105 C1080 0.950 . S
H1106 C1082 0.950 . S
H1107 C1083 0.949 . S
H1108 C1085 0.950 . S
H1109 C1087 0.950 . S
C1110 C1111 1.349 . S
C1110 C1112 1.327 . S
C1110 H1135 0.950 . S
C1111 C1110 1.349 . S
C1111 C1127 1.349 . S
C1112 C1110 1.327 . S
C1112 C1131 1.429 1_556 S
C1112 H1136 0.946 1_556 S
C1113 C1130 1.574 . S
C1113 C1132 1.368 . S
C1113 H1137 0.949 . S
H1114 C1118 0.949 . S
C1115 C1116 1.349 . S
C1115 C1117 1.327 . S
C1115 H1138 0.950 . S
C1116 C1115 1.349 . S
C1116 C1128 1.349 . S
C1117 C1115 1.327 . S
C1117 C1133 1.429 . S
C1117 H1139 0.950 . S
C1118 H1114 0.949 . S
C1118 C1126 1.574 . S
C1118 C1134 1.368 . S
H1119 C1127 0.950 . S
H1120 C1125 0.950 . S
H1121 C1126 0.949 . S
H1122 C1128 0.950 . S
H1123 C1129 0.950 . S
H1124 C1130 0.949 . S
C1125 H1120 0.950 . S
C1125 C1127 1.327 . S
C1125 C1131 1.429 1_556 S
C1126 C1118 1.574 . S
C1126 H1121 0.949 . S
C1126 C1132 1.368 . S
C1127 C1111 1.349 . S
C1127 H1119 0.950 . S
C1127 C1125 1.327 . S
C1128 C1116 1.349 . S
C1128 H1122 0.950 . S
C1128 C1129 1.327 . S
C1129 H1123 0.950 . S
C1129 C1128 1.327 . S
C1129 C1133 1.429 . S
C1130 C1113 1.574 . S
C1130 H1124 0.949 . S
C1130 C1134 1.368 . S
C1131 C1112 1.429 1_554 S
C1131 C1125 1.429 1_554 S
C1131 C1132 1.523 . S
C1132 C1113 1.368 . S
C1132 C1126 1.368 . S
C1132 C1131 1.523 . S
C1133 C1117 1.429 . S
C1133 C1129 1.429 . S
C1133 C1134 1.523 . S
C1134 C1118 1.368 . S
C1134 C1130 1.368 . S
C1134 C1133 1.523 . S
H1135 C1110 0.950 . S
H1136 C1112 0.946 1_554 S
H1137 C1113 0.949 . S
H1138 C1115 0.950 . S
H1139 C1117 0.950 . S
C1140 C1141 1.349 . S
C1140 C1142 1.327 . S
C1140 H1165 0.950 . S
C1141 C1140 1.349 . S
C1141 C1157 1.349 . S
C1142 C1140 1.327 . S
C1142 C1161 1.429 . S
C1142 H1166 0.950 . S
C1143 C1160 1.574 . S
C1143 C1162 1.368 . S
C1143 H1167 0.949 . S
H1144 C1148 0.949 . S
C1145 C1146 1.349 . S
C1145 C1147 1.327 . S
C1145 H1168 0.950 . S
C1146 C1145 1.349 . S
C1146 C1158 1.349 . S
C1147 C1145 1.327 . S
C1147 C1163 1.429 1_556 S
C1147 H1169 0.950 . S
C1148 H1144 0.949 . S
C1148 C1156 1.574 . S
C1148 C1164 1.368 . S
H1149 C1157 0.950 . S
H1150 C1155 0.950 . S
H1151 C1156 0.949 . S
H1152 C1158 0.950 . S
H1153 C1159 0.945 1_554 S
H1154 C1160 0.949 . S
C1155 H1150 0.950 . S
C1155 C1157 1.327 . S
C1155 C1161 1.429 . S
C1156 C1148 1.574 . S
C1156 H1151 0.949 . S
C1156 C1162 1.368 . S
C1157 C1141 1.349 . S
C1157 H1149 0.950 . S
C1157 C1155 1.327 . S
C1158 C1146 1.349 . S
C1158 H1152 0.950 . S
C1158 C1159 1.327 . S
C1159 H1153 0.945 1_556 S
C1159 C1158 1.327 . S
C1159 C1163 1.429 1_556 S
C1160 C1143 1.574 . S
C1160 H1154 0.949 . S
C1160 C1164 1.368 . S
C1161 C1142 1.429 . S
C1161 C1155 1.429 . S
C1161 C1162 1.523 . S
C1162 C1143 1.368 . S
C1162 C1156 1.368 . S
C1162 C1161 1.523 . S
C1163 C1147 1.429 1_554 S
C1163 C1159 1.429 1_554 S
C1163 C1164 1.523 . S
C1164 C1148 1.368 . S
C1164 C1160 1.368 . S
C1164 C1163 1.523 . S
H1165 C1140 0.950 . S
H1166 C1142 0.950 . S
H1167 C1143 0.949 . S
H1168 C1145 0.950 . S
H1169 C1147 0.950 . S
C361 C6 1.992 . S
C366 C290 1.930 . S
C391 C46 1.992 . S
C396 C330 1.930 . S
C421 C86 1.992 . S
C426 C250 1.930 . S
C451 C166 1.992 . S
C456 C90 1.930 . S
C481 C206 1.992 . S
C486 C10 1.930 . S
C511 C50 1.930 . S
C516 C126 1.993 . S
C541 C286 1.992 . S
C546 C210 1.930 . S
C571 C326 1.992 . S
C576 C130 1.930 . S
C601 C170 1.930 . S
C606 C246 1.992 . S
C631 C95 1.727 . S
C636 C19 1.729 1_554 S
C661 C59 1.730 1_554 S
C666 C15 1.728 . S
C691 C55 1.727 . S
C696 C99 1.730 1_554 S
C721 C139 1.730 . S
C726 C215 1.727 . S
C751 C135 1.727 . S
C756 C179 1.730 . S
C781 C175 1.727 . S
C786 C219 1.730 . S
C811 C335 1.727 . S
C816 C259 1.730 . S
C841 C299 1.730 . S
C846 C255 1.727 . S
C871 C339 1.730 . S
C876 C295 1.727 . S
C901 C18 0.834 . S
C906 C9 0.834 . S
C931 C58 0.834 . S
C936 C49 0.834 . S
C961 C98 0.834 . S
C966 C89 0.834 . S
C991 C129 0.834 . S
C996 C138 0.834 . S
C1021 C169 0.834 . S
C1026 C178 0.834 . S
C1051 C209 0.834 . S
C1056 C218 0.834 . S
C1081 C258 0.834 . S
C1086 C249 0.834 . S
C1111 C289 0.834 . S
C1116 C298 0.834 . S
C1141 C338 0.834 . S
C1146 C329 0.834 . S
