# Generated by pormake.
# Topology gis, (4)-cn, num edge types: 1
# Building blocks:
#     Node 0, Type 0, BuildingBlock: AZAVOO_clean_sbu_0, # of connection points: 4
#     Node 1, Type 0, BuildingBlock: AZAVOO_clean_sbu_0, # of connection points: 4
#     Node 2, Type 0, BuildingBlock: AZAVOO_clean_sbu_0, # of connection points: 4
#     Node 3, Type 0, BuildingBlock: AZAVOO_clean_sbu_0, # of connection points: 4
#     Node 4, Type 0, BuildingBlock: AZAVOO_clean_sbu_0, # of connection points: 4
#     Node 5, Type 0, BuildingBlock: AZAVOO_clean_sbu_0, # of connection points: 4
#     Node 6, Type 0, BuildingBlock: AZAVOO_clean_sbu_0, # of connection points: 4
#     Node 7, Type 0, BuildingBlock: AZAVOO_clean_sbu_0, # of connection points: 4
#     Node 8, Type 0, BuildingBlock: AZAVOO_clean_sbu_0, # of connection points: 4
#     Node 9, Type 0, BuildingBlock: AZAVOO_clean_sbu_0, # of connection points: 4
#     Node 10, Type 0, BuildingBlock: AZAVOO_clean_sbu_0, # of connection points: 4
#     Node 11, Type 0, BuildingBlock: AZAVOO_clean_sbu_0, # of connection points: 4
#     Node 12, Type 0, BuildingBlock: AZAVOO_clean_sbu_0, # of connection points: 4
#     Node 13, Type 0, BuildingBlock: AZAVOO_clean_sbu_0, # of connection points: 4
#     Node 14, Type 0, BuildingBlock: AZAVOO_clean_sbu_0, # of connection points: 4
#     Node 15, Type 0, BuildingBlock: AZAVOO_clean_sbu_0, # of connection points: 4
#     Edge 16, Type (0, 0), BuildingBlock: XIVTED_clean_linker_0, # of connection points: 2
#     Edge 17, Type (0, 0), BuildingBlock: XIVTED_clean_linker_0, # of connection points: 2
#     Edge 18, Type (0, 0), BuildingBlock: XIVTED_clean_linker_0, # of connection points: 2
#     Edge 19, Type (0, 0), BuildingBlock: XIVTED_clean_linker_0, # of connection points: 2
#     Edge 20, Type (0, 0), BuildingBlock: XIVTED_clean_linker_0, # of connection points: 2
#     Edge 21, Type (0, 0), BuildingBlock: XIVTED_clean_linker_0, # of connection points: 2
#     Edge 22, Type (0, 0), BuildingBlock: XIVTED_clean_linker_0, # of connection points: 2
#     Edge 23, Type (0, 0), BuildingBlock: XIVTED_clean_linker_0, # of connection points: 2
#     Edge 24, Type (0, 0), BuildingBlock: XIVTED_clean_linker_0, # of connection points: 2
#     Edge 25, Type (0, 0), BuildingBlock: XIVTED_clean_linker_0, # of connection points: 2
#     Edge 26, Type (0, 0), BuildingBlock: XIVTED_clean_linker_0, # of connection points: 2
#     Edge 27, Type (0, 0), BuildingBlock: XIVTED_clean_linker_0, # of connection points: 2
#     Edge 28, Type (0, 0), BuildingBlock: XIVTED_clean_linker_0, # of connection points: 2
#     Edge 29, Type (0, 0), BuildingBlock: XIVTED_clean_linker_0, # of connection points: 2
#     Edge 30, Type (0, 0), BuildingBlock: XIVTED_clean_linker_0, # of connection points: 2
#     Edge 31, Type (0, 0), BuildingBlock: XIVTED_clean_linker_0, # of connection points: 2
#     Edge 32, Type (0, 0), BuildingBlock: XIVTED_clean_linker_0, # of connection points: 2
#     Edge 33, Type (0, 0), BuildingBlock: XIVTED_clean_linker_0, # of connection points: 2
#     Edge 34, Type (0, 0), BuildingBlock: XIVTED_clean_linker_0, # of connection points: 2
#     Edge 35, Type (0, 0), BuildingBlock: XIVTED_clean_linker_0, # of connection points: 2
#     Edge 36, Type (0, 0), BuildingBlock: XIVTED_clean_linker_0, # of connection points: 2
#     Edge 37, Type (0, 0), BuildingBlock: XIVTED_clean_linker_0, # of connection points: 2
#     Edge 38, Type (0, 0), BuildingBlock: XIVTED_clean_linker_0, # of connection points: 2
#     Edge 39, Type (0, 0), BuildingBlock: XIVTED_clean_linker_0, # of connection points: 2
#     Edge 40, Type (0, 0), BuildingBlock: XIVTED_clean_linker_0, # of connection points: 2
#     Edge 41, Type (0, 0), BuildingBlock: XIVTED_clean_linker_0, # of connection points: 2
#     Edge 42, Type (0, 0), BuildingBlock: XIVTED_clean_linker_0, # of connection points: 2
#     Edge 43, Type (0, 0), BuildingBlock: XIVTED_clean_linker_0, # of connection points: 2
#     Edge 44, Type (0, 0), BuildingBlock: XIVTED_clean_linker_0, # of connection points: 2
#     Edge 45, Type (0, 0), BuildingBlock: XIVTED_clean_linker_0, # of connection points: 2
#     Edge 46, Type (0, 0), BuildingBlock: XIVTED_clean_linker_0, # of connection points: 2
#     Edge 47, Type (0, 0), BuildingBlock: XIVTED_clean_linker_0, # of connection points: 2
# Relax obj value: 0.172
# Max RMSD: 0.156
# Mean RMSD: 0.154
data_MOF--net-gis--node1-AZAVOO_clean_sbu_0--edge1-XIVTED_clean_linker_0
_symmetry_space_group_name_H-M    P1
_symmetry_Int_Tables_number       1
_symmetry_cell_setting            triclinic
loop_
_symmetry_equiv_pos_as_xyz
'x, y, z'
_cell_length_a     46.05998
_cell_length_b     43.982187
_cell_length_c     50.760316
_cell_angle_alpha  90.530991
_cell_angle_beta   90.56799
_cell_angle_gamma 90.183678
loop_
_atom_site_label
_atom_site_type_symbol
_atom_site_fract_x
_atom_site_fract_y
_atom_site_fract_z
_atom_type_partial_charge
Mg0 Mg 0.19663 0.65334 0.10719 0.0
O1 O 0.1474 0.65067 0.11197 0.0
O2 O 0.1329 0.6859 0.14092 0.0
Mg3 Mg 0.17369 0.70996 0.15635 0.0
C4 C 0.12744 0.66417 0.12475 0.0
C5 C 0.17872 0.6079 0.06305 0.0
O6 O 0.16317 0.63182 0.05683 0.0
O7 O 0.2022 0.62847 0.14646 0.0
O8 O 0.1875 0.66492 0.17433 0.0
O9 O 0.19003 0.69016 0.07737 0.0
O10 O 0.19657 0.69806 0.12009 0.0
C11 C 0.1968 0.63808 0.16977 0.0
C12 C 0.19057 0.70879 0.09726 0.0
O13 O 0.19502 0.60913 0.0834 0.0
Mg14 Mg 0.6817 0.88018 0.3963 0.0
O15 O 0.63386 0.87674 0.38277 0.0
O16 O 0.63118 0.8445 0.34846 0.0
Mg17 Mg 0.67696 0.82963 0.33854 0.0
C18 C 0.61923 0.86232 0.36508 0.0
C19 C 0.68777 0.92339 0.44348 0.0
O20 O 0.70821 0.90319 0.44773 0.0
O21 O 0.69117 0.91201 0.36221 0.0
O22 O 0.68661 0.87922 0.3284 0.0
O23 O 0.67545 0.83894 0.42104 0.0
O24 O 0.68986 0.83779 0.37965 0.0
C25 C 0.69099 0.90599 0.33759 0.0
C26 C 0.68188 0.82322 0.4002 0.0
O27 O 0.67157 0.92034 0.42321 0.0
Mg28 Mg 0.28004 0.3878 0.61548 0.0
O29 O 0.32899 0.39705 0.62365 0.0
O30 O 0.3424 0.36603 0.65621 0.0
Mg31 Mg 0.30326 0.33935 0.66997 0.0
C32 C 0.34826 0.38655 0.63945 0.0
C33 C 0.25979 0.42594 0.56913 0.0
O34 O 0.24444 0.40084 0.56648 0.0
O35 O 0.26872 0.4161 0.65168 0.0
O36 O 0.2842 0.38503 0.68352 0.0
O37 O 0.29137 0.35007 0.58808 0.0
O38 O 0.28398 0.34413 0.63067 0.0
C39 C 0.27309 0.4101 0.67593 0.0
C40 C 0.29171 0.33256 0.60844 0.0
O41 O 0.27706 0.42866 0.58872 0.0
Mg42 Mg 0.84632 0.03852 0.85824 0.0
O43 O 0.84878 0.09047 0.86592 0.0
O44 O 0.88239 0.09745 0.89757 0.0
Mg45 Mg 0.90166 0.05198 0.90942 0.0
C46 C 0.8634 0.10781 0.88152 0.0
C47 C 0.80378 0.02904 0.8129 0.0
O48 O 0.82463 0.00968 0.80758 0.0
O49 O 0.82148 0.03256 0.8967 0.0
O50 O 0.85733 0.03996 0.92612 0.0
O51 O 0.88108 0.04185 0.82792 0.0
O52 O 0.88916 0.03455 0.87042 0.0
C53 C 0.83082 0.03408 0.92046 0.0
C54 C 0.89932 0.03963 0.84733 0.0
O55 O 0.80516 0.04432 0.83424 0.0
Mg56 Mg 0.18383 0.38734 0.89193 0.0
O57 O 0.13546 0.38346 0.88 0.0
O58 O 0.13172 0.35072 0.84613 0.0
Mg59 Mg 0.17712 0.33578 0.83493 0.0
C60 C 0.12028 0.36872 0.86289 0.0
C61 C 0.18784 0.42732 0.94126 0.0
O62 O 0.20519 0.4045 0.94667 0.0
O63 O 0.19175 0.41875 0.85714 0.0
O64 O 0.18629 0.38521 0.82398 0.0
O65 O 0.17906 0.34644 0.91728 0.0
O66 O 0.19172 0.34476 0.87543 0.0
C67 C 0.19081 0.4122 0.83261 0.0
C68 C 0.18488 0.33045 0.89646 0.0
O69 O 0.1745 0.42741 0.91922 0.0
Mg70 Mg 0.77838 0.88934 0.11983 0.0
O71 O 0.82769 0.89668 0.12716 0.0
O72 O 0.84129 0.8641 0.15847 0.0
Mg73 Mg 0.80171 0.83825 0.17241 0.0
C74 C 0.84716 0.88506 0.14212 0.0
C75 C 0.75904 0.92993 0.07473 0.0
O76 O 0.74246 0.90576 0.07165 0.0
O77 O 0.76888 0.91669 0.15699 0.0
O78 O 0.78442 0.88404 0.18758 0.0
O79 O 0.78789 0.85229 0.09121 0.0
O80 O 0.78135 0.84504 0.13377 0.0
C81 C 0.77381 0.9097 0.18094 0.0
C82 C 0.78822 0.83405 0.11107 0.0
O83 O 0.77649 0.93119 0.09427 0.0
Mg84 Mg 0.34691 0.53681 0.35529 0.0
O85 O 0.34885 0.58905 0.36201 0.0
O86 O 0.37957 0.59641 0.39588 0.0
Mg87 Mg 0.39778 0.55138 0.40991 0.0
C88 C 0.36204 0.60659 0.37846 0.0
C89 C 0.28602 0.55709 0.33039 0.0
O90 O 0.28227 0.57211 0.35258 0.0
O91 O 0.31842 0.53178 0.39188 0.0
O92 O 0.35198 0.53987 0.42343 0.0
O93 O 0.38518 0.53869 0.32838 0.0
O94 O 0.3879 0.53157 0.37132 0.0
C95 C 0.32594 0.53389 0.41616 0.0
C96 C 0.401 0.53499 0.34931 0.0
O97 O 0.30884 0.54149 0.3272 0.0
Mg98 Mg 0.69779 0.15349 0.60606 0.0
O99 O 0.6492 0.14719 0.61326 0.0
O100 O 0.63544 0.17849 0.64571 0.0
Mg101 Mg 0.67591 0.20379 0.66037 0.0
C102 C 0.62972 0.15816 0.62829 0.0
C103 C 0.67975 0.10775 0.56114 0.0
O104 O 0.66132 0.12972 0.55605 0.0
O105 O 0.70757 0.1258 0.64291 0.0
O106 O 0.69381 0.15828 0.67454 0.0
O107 O 0.6873 0.19209 0.57907 0.0
O108 O 0.69604 0.197 0.6218 0.0
C109 C 0.70401 0.13263 0.66718 0.0
C110 C 0.68807 0.20916 0.6 0.0
O111 O 0.6975 0.11083 0.58033 0.0
Mg112 Mg 0.85009 0.40276 0.85773 0.0
O113 O 0.847 0.35143 0.86759 0.0
O114 O 0.87624 0.34511 0.90256 0.0
Mg115 Mg 0.8977 0.38952 0.91487 0.0
C116 C 0.85854 0.33459 0.88523 0.0
C117 C 0.81096 0.42087 0.8127 0.0
O118 O 0.83292 0.44001 0.81236 0.0
O119 O 0.82171 0.41579 0.89294 0.0
O120 O 0.85316 0.40784 0.92603 0.0
O121 O 0.88893 0.39353 0.83239 0.0
O122 O 0.89121 0.40547 0.87465 0.0
C123 C 0.82823 0.41591 0.91747 0.0
C124 C 0.90448 0.39778 0.85351 0.0
O125 O 0.8109 0.40014 0.83 0.0
Mg126 Mg 0.37759 0.05168 0.61876 0.0
O127 O 0.36614 0.10175 0.61082 0.0
O128 O 0.39203 0.11683 0.57623 0.0
Mg129 Mg 0.41853 0.07681 0.56138 0.0
C130 C 0.37373 0.12211 0.59442 0.0
C131 C 0.34085 0.06532 0.66788 0.0
O132 O 0.36124 0.08618 0.66999 0.0
O133 O 0.34902 0.03671 0.58402 0.0
O134 O 0.37561 0.05273 0.55018 0.0
O135 O 0.41444 0.0667 0.64407 0.0
O136 O 0.418 0.05794 0.60127 0.0
C137 C 0.35295 0.03989 0.55933 0.0
C138 C 0.42978 0.06773 0.62288 0.0
O139 O 0.34048 0.04782 0.64779 0.0
Mg140 Mg 0.67111 0.53186 0.36523 0.0
O141 O 0.66317 0.58254 0.37404 0.0
O142 O 0.62794 0.58638 0.40388 0.0
Mg143 Mg 0.61461 0.53856 0.41545 0.0
C144 C 0.64654 0.59846 0.38869 0.0
C145 C 0.71184 0.52573 0.32041 0.0
O146 O 0.69314 0.5032 0.31815 0.0
O147 O 0.69762 0.5288 0.40376 0.0
O148 O 0.6605 0.53327 0.43176 0.0
O149 O 0.63469 0.53165 0.33549 0.0
O150 O 0.62963 0.52119 0.37763 0.0
C151 C 0.68753 0.53044 0.4271 0.0
C152 C 0.61783 0.52533 0.35493 0.0
O153 O 0.71018 0.54335 0.34032 0.0
Mg154 Mg 0.1036 0.97851 0.1474 0.0
O155 O 0.10687 0.92957 0.13244 0.0
O156 O 0.07816 0.92091 0.09742 0.0
Mg157 Mg 0.05881 0.96718 0.08783 0.0
C158 C 0.0966 0.9119 0.11454 0.0
C159 C 0.16164 0.98726 0.18124 0.0
O160 O 0.16202 0.01406 0.17004 0.0
O161 O 0.13456 0.9917 0.11456 0.0
O162 O 0.10593 0.98139 0.07966 0.0
O163 O 0.06495 0.96615 0.17067 0.0
O164 O 0.06246 0.98159 0.1294 0.0
C165 C 0.13033 0.98945 0.08975 0.0
C166 C 0.04954 0.9705 0.1496 0.0
O167 O 0.14116 0.9688 0.17569 0.0
Mg168 Mg 0.8769 0.55435 0.11724 0.0
O169 O 0.86377 0.60382 0.10906 0.0
O170 O 0.88831 0.61947 0.07386 0.0
Mg171 Mg 0.91561 0.58012 0.05884 0.0
C172 C 0.87031 0.62428 0.09238 0.0
C173 C 0.84044 0.56754 0.16665 0.0
O174 O 0.86019 0.5891 0.16843 0.0
O175 O 0.84804 0.53803 0.08325 0.0
O176 O 0.8732 0.55447 0.04869 0.0
O177 O 0.9137 0.57102 0.14173 0.0
O178 O 0.91665 0.56174 0.09893 0.0
C179 C 0.8512 0.54101 0.05846 0.0
C180 C 0.92851 0.57233 0.12024 0.0
O181 O 0.84047 0.54972 0.14679 0.0
Mg182 Mg 0.16678 0.03781 0.86356 0.0
O183 O 0.16315 0.08914 0.87285 0.0
O184 O 0.12784 0.0951 0.90247 0.0
Mg185 Mg 0.10936 0.04874 0.91251 0.0
C186 C 0.14759 0.10598 0.88777 0.0
C187 C 0.20928 0.02739 0.82039 0.0
O188 O 0.18914 0.00636 0.81742 0.0
O189 O 0.19125 0.0316 0.90289 0.0
O190 O 0.1538 0.03854 0.93011 0.0
O191 O 0.13247 0.04142 0.83209 0.0
O192 O 0.12362 0.03261 0.87404 0.0
C193 C 0.18061 0.03339 0.92601 0.0
C194 C 0.11389 0.03837 0.85078 0.0
O195 O 0.20797 0.04517 0.84022 0.0
Mg196 Mg 0.60395 0.48219 0.64567 0.0
O197 O 0.60748 0.43269 0.63162 0.0
O198 O 0.5787 0.42385 0.59665 0.0
Mg199 Mg 0.5597 0.46989 0.58601 0.0
C200 C 0.59698 0.41486 0.61393 0.0
C201 C 0.64165 0.45253 0.68983 0.0
O202 O 0.61878 0.43461 0.69011 0.0
O203 O 0.63491 0.49493 0.61285 0.0
O204 O 0.60694 0.48383 0.57772 0.0
O205 O 0.56519 0.47024 0.66905 0.0
O206 O 0.56295 0.48466 0.62749 0.0
C207 C 0.63113 0.49218 0.58803 0.0
C208 C 0.54991 0.47402 0.6478 0.0
O209 O 0.64215 0.47461 0.67382 0.0
Mg210 Mg 0.34988 0.90298 0.35825 0.0
O211 O 0.34373 0.85111 0.36515 0.0
O212 O 0.37066 0.84146 0.40104 0.0
Mg213 Mg 0.39406 0.88355 0.41626 0.0
C214 C 0.35348 0.83279 0.38256 0.0
C215 C 0.31262 0.93003 0.31608 0.0
O216 O 0.33353 0.94966 0.32127 0.0
O217 O 0.32065 0.91558 0.3931 0.0
O218 O 0.35034 0.9043 0.42677 0.0
O219 O 0.38943 0.89351 0.33387 0.0
O220 O 0.39017 0.90218 0.37671 0.0
C221 C 0.32625 0.91429 0.41778 0.0
C222 C 0.40412 0.89549 0.3557 0.0
O223 O 0.3122 0.90524 0.32881 0.0
H224 H 0.13493 0.8844 0.14791 0.0
H225 H 0.15258 0.73309 0.06095 0.0
H226 H 0.08719 0.86935 0.07522 0.0
H227 H 0.20355 0.75542 0.13027 0.0
H228 H 0.12892 0.78303 0.06429 0.0
H229 H 0.15946 0.83626 0.14134 0.0
C230 C 0.12939 0.87086 0.13063 0.0
C231 C 0.10896 0.88104 0.11207 0.0
C232 C 0.14551 0.77704 0.07857 0.0
C233 C 0.1374 0.82572 0.10422 0.0
C234 C 0.15917 0.74873 0.07651 0.0
C235 C 0.17983 0.74016 0.0955 0.0
C236 C 0.15271 0.79661 0.09973 0.0
C237 C 0.18747 0.76104 0.1154 0.0
C238 C 0.14359 0.84337 0.12679 0.0
C239 C 0.10275 0.86237 0.09008 0.0
N240 N 0.17377 0.78815 0.1171 0.0
N241 N 0.117 0.83559 0.08671 0.0
H242 H 0.44071 0.9073 0.39694 0.0
H243 H 0.58179 0.84155 0.32662 0.0
H244 H 0.43944 0.87118 0.31757 0.0
H245 H 0.58402 0.89276 0.39965 0.0
H246 H 0.52937 0.84899 0.32404 0.0
H247 H 0.49278 0.89869 0.39933 0.0
C248 C 0.45135 0.89732 0.38003 0.0
C249 C 0.43565 0.88975 0.35705 0.0
C250 C 0.54134 0.85861 0.3406 0.0
C251 C 0.49553 0.88008 0.35961 0.0
C252 C 0.57129 0.85432 0.34216 0.0
C253 C 0.58741 0.86655 0.36342 0.0
C254 C 0.52731 0.87508 0.36052 0.0
C255 C 0.57255 0.88296 0.38289 0.0
C256 C 0.48118 0.89259 0.38138 0.0
C257 C 0.45073 0.87732 0.33566 0.0
N258 N 0.54335 0.88668 0.38098 0.0
N259 N 0.47989 0.87279 0.33748 0.0
H260 H 0.28968 0.2882 0.64591 0.0
H261 H 0.37932 0.16882 0.55966 0.0
H262 H 0.31872 0.30529 0.5668 0.0
H263 H 0.33914 0.14575 0.63341 0.0
H264 H 0.35876 0.21958 0.56299 0.0
H265 H 0.30905 0.23661 0.64268 0.0
C266 C 0.30019 0.28114 0.62788 0.0
C267 C 0.30275 0.30114 0.60664 0.0
C268 C 0.35436 0.20343 0.57843 0.0
C269 C 0.32487 0.24215 0.6028 0.0
C270 C 0.36617 0.17439 0.57659 0.0
C271 C 0.361 0.15291 0.59631 0.0
C272 C 0.33733 0.21126 0.60022 0.0
C273 C 0.34368 0.16153 0.61772 0.0
C274 C 0.31114 0.25165 0.62603 0.0
C275 C 0.31629 0.29066 0.58367 0.0
N276 N 0.33253 0.1901 0.61915 0.0
N277 N 0.32693 0.26193 0.58241 0.0
H278 H 0.07834 0.0726 0.88111 0.0
H279 H 0.93287 0.02125 0.80598 0.0
H280 H 0.07925 0.01834 0.81002 0.0
H281 H 0.93654 0.07041 0.87978 0.0
H282 H 0.98602 0.02562 0.80293 0.0
H283 H 0.02611 0.0778 0.87686 0.0
C284 C 0.06743 0.06154 0.86469 0.0
C285 C 0.08286 0.04421 0.84638 0.0
C286 C 0.97509 0.03556 0.8197 0.0
C287 C 0.02289 0.05023 0.84109 0.0
C288 C 0.94486 0.03313 0.82141 0.0
C289 C 0.93055 0.04468 0.84359 0.0
C290 C 0.99077 0.04995 0.84021 0.0
C291 C 0.94683 0.06009 0.86293 0.0
C292 C 0.03757 0.06474 0.86208 0.0
C293 C 0.06787 0.03159 0.82472 0.0
N294 N 0.97604 0.06211 0.86087 0.0
N295 N 0.03849 0.03445 0.82283 0.0
H296 H 0.20366 0.29059 0.8589 0.0
H297 H 0.12406 0.14755 0.92171 0.0
H298 H 0.15743 0.29453 0.9324 0.0
H299 H 0.18389 0.14005 0.85696 0.0
H300 H 0.1341 0.20185 0.92446 0.0
H301 H 0.19505 0.23585 0.85669 0.0
C302 C 0.19168 0.27993 0.87459 0.0
C303 C 0.18105 0.29715 0.89579 0.0
C304 C 0.14507 0.18834 0.90967 0.0
C305 C 0.17113 0.2345 0.89336 0.0
C306 C 0.13926 0.15729 0.90798 0.0
C307 C 0.15313 0.13912 0.88902 0.0
C308 C 0.16476 0.20149 0.89219 0.0
C309 C 0.1727 0.15313 0.87189 0.0
C310 C 0.18687 0.24865 0.87335 0.0
C311 C 0.16599 0.2821 0.91571 0.0
N312 N 0.17787 0.18352 0.87384 0.0
N313 N 0.16132 0.25162 0.91392 0.0
H314 H 0.89254 0.86879 0.17393 0.0
H315 H 0.00911 0.98051 0.11042 0.0
H316 H 0.8707 0.92883 0.10988 0.0
H317 H 0.0209 0.9351 0.18476 0.0
H318 H 0.95971 0.95962 0.10742 0.0
H319 H 0.94122 0.89004 0.17523 0.0
C320 C 0.89795 0.88638 0.16001 0.0
C321 C 0.8773 0.89706 0.1418 0.0
C322 C 0.97314 0.95434 0.12439 0.0
C323 C 0.93345 0.9217 0.14331 0.0
C324 C 0.00133 0.96618 0.1261 0.0
C325 C 0.01922 0.95943 0.14783 0.0
C326 C 0.96291 0.93544 0.14445 0.0
C327 C 0.00793 0.94095 0.16766 0.0
C328 C 0.92584 0.89862 0.16086 0.0
C329 C 0.88584 0.91993 0.12429 0.0
N330 N 0.98061 0.92951 0.16541 0.0
N331 N 0.9133 0.93151 0.12548 0.0
H332 H 0.3711 0.64624 0.41894 0.0
H333 H 0.33894 0.79746 0.33896 0.0
H334 H 0.33938 0.64245 0.33866 0.0
H335 H 0.35279 0.79313 0.42303 0.0
H336 H 0.3365 0.74145 0.33734 0.0
H337 H 0.3632 0.70059 0.41973 0.0
C338 C 0.3625 0.65688 0.40137 0.0
C339 C 0.3562 0.63971 0.37859 0.0
C340 C 0.33962 0.7529 0.35614 0.0
C341 C 0.34699 0.70263 0.37936 0.0
C342 C 0.34087 0.7848 0.35709 0.0
C343 C 0.34651 0.79993 0.38112 0.0
C344 C 0.34407 0.73629 0.37938 0.0
C345 C 0.34893 0.78246 0.404 0.0
C346 C 0.35778 0.68805 0.40189 0.0
C347 C 0.34464 0.65487 0.3566 0.0
N348 N 0.34797 0.75172 0.4025 0.0
N349 N 0.34068 0.68561 0.3574 0.0
H350 H 0.60707 0.1198 0.59036 0.0
H351 H 0.45518 0.10054 0.66279 0.0
H352 H 0.58403 0.16896 0.66116 0.0
H353 H 0.47057 0.06716 0.58392 0.0
H354 H 0.50335 0.12376 0.66332 0.0
H355 H 0.558 0.09856 0.58826 0.0
C356 C 0.5917 0.12623 0.60542 0.0
C357 C 0.59975 0.14616 0.62603 0.0
C358 C 0.49617 0.11146 0.64585 0.0
C359 C 0.54363 0.12176 0.62378 0.0
C360 C 0.46871 0.09809 0.64556 0.0
C361 C 0.45886 0.08191 0.62326 0.0
C362 C 0.51407 0.10841 0.62376 0.0
C363 C 0.47727 0.07956 0.60148 0.0
C364 C 0.56368 0.11412 0.60417 0.0
C365 C 0.57885 0.15371 0.64492 0.0
N366 N 0.50408 0.09257 0.60231 0.0
N367 N 0.55183 0.14137 0.64341 0.0
H368 H 0.83552 0.1429 0.84412 0.0
H369 H 0.86592 0.29616 0.92626 0.0
H370 H 0.87923 0.14853 0.91967 0.0
H371 H 0.83815 0.29743 0.8448 0.0
H372 H 0.86277 0.24112 0.92567 0.0
H373 H 0.82935 0.19849 0.84524 0.0
C374 C 0.84366 0.15573 0.86096 0.0
C375 C 0.85816 0.14103 0.88172 0.0
C376 C 0.85722 0.2533 0.90788 0.0
C377 C 0.85092 0.20426 0.88321 0.0
C378 C 0.85897 0.28484 0.90822 0.0
C379 C 0.85271 0.30146 0.88542 0.0
C380 C 0.84933 0.23794 0.88452 0.0
C381 C 0.84331 0.28547 0.86278 0.0
C382 C 0.84016 0.1874 0.86155 0.0
C383 C 0.86822 0.15878 0.90305 0.0
N384 N 0.84222 0.25447 0.86279 0.0
N385 N 0.86442 0.18931 0.9032 0.0
H386 H 0.62008 0.63939 0.42156 0.0
H387 H 0.70167 0.78386 0.36277 0.0
H388 H 0.68159 0.6339 0.358 0.0
H389 H 0.65196 0.787 0.43438 0.0
H390 H 0.69227 0.72939 0.35924 0.0
H391 H 0.62875 0.69403 0.42465 0.0
C392 C 0.63527 0.64965 0.40811 0.0
C393 C 0.65017 0.63191 0.38949 0.0
C394 C 0.68344 0.74194 0.37576 0.0
C395 C 0.66027 0.69458 0.39309 0.0
C396 C 0.68873 0.77308 0.37777 0.0
C397 C 0.67743 0.79001 0.39884 0.0
C398 C 0.66658 0.72758 0.39489 0.0
C399 C 0.66112 0.77478 0.41784 0.0
C400 C 0.64031 0.68087 0.41 0.0
C401 C 0.66964 0.64658 0.37268 0.0
N402 N 0.65606 0.74441 0.41535 0.0
N403 N 0.67413 0.67705 0.37489 0.0
H404 H 0.87362 0.67107 0.05743 0.0
H405 H 0.78623 0.78853 0.14745 0.0
H406 H 0.83643 0.64697 0.13223 0.0
H407 H 0.81367 0.80762 0.06822 0.0
H408 H 0.80506 0.73689 0.14277 0.0
H409 H 0.85243 0.72149 0.06159 0.0
C410 C 0.86097 0.67633 0.07475 0.0
C411 C 0.85688 0.6547 0.09456 0.0
C412 C 0.80689 0.75236 0.1264 0.0
C413 C 0.83253 0.71262 0.09943 0.0
C414 C 0.79625 0.78189 0.12909 0.0
C415 C 0.79859 0.80248 0.10826 0.0
C416 C 0.82007 0.74342 0.10275 0.0
C417 C 0.81145 0.79252 0.0848 0.0
C418 C 0.8488 0.70517 0.07707 0.0
C419 C 0.84015 0.66289 0.11647 0.0
N420 N 0.82183 0.76374 0.08273 0.0
N421 N 0.82868 0.69127 0.11837 0.0
H422 H 0.5857 0.37167 0.57567 0.0
H423 H 0.69777 0.25273 0.63715 0.0
H424 H 0.6349 0.3868 0.64755 0.0
H425 H 0.6519 0.23639 0.56381 0.0
H426 H 0.67483 0.30225 0.64064 0.0
H427 H 0.60865 0.32187 0.57097 0.0
C428 C 0.6011 0.36446 0.5906 0.0
C429 C 0.6084 0.38353 0.61204 0.0
C430 C 0.66978 0.28798 0.6237 0.0
C431 C 0.63491 0.32674 0.60657 0.0
C432 C 0.68291 0.25967 0.62168 0.0
C433 C 0.67653 0.24036 0.60026 0.0
C434 C 0.64998 0.29716 0.60417 0.0
C435 C 0.65742 0.25066 0.58063 0.0
C436 C 0.61431 0.33609 0.58779 0.0
C437 C 0.62859 0.37298 0.63067 0.0
N438 N 0.64461 0.27837 0.58314 0.0
N439 N 0.64116 0.34537 0.62745 0.0
H440 H 0.08615 0.40096 0.89723 0.0
H441 H 0.9387 0.37114 0.81574 0.0
H442 H 0.08165 0.34623 0.82618 0.0
H443 H 0.94251 0.41398 0.89255 0.0
H444 H 0.99145 0.36384 0.81788 0.0
H445 H 0.03362 0.40797 0.89464 0.0
C446 C 0.07416 0.39039 0.8811 0.0
C447 C 0.0884 0.37295 0.86193 0.0
C448 C 0.98067 0.37474 0.83428 0.0
C449 C 0.02822 0.38098 0.85879 0.0
C450 C 0.95061 0.37895 0.83303 0.0
C451 C 0.93619 0.39296 0.85407 0.0
C452 C -0.00366 0.38487 0.85663 0.0
C453 C 0.95266 0.40273 0.876 0.0
C454 C 0.04414 0.39438 0.87964 0.0
C455 C 0.07165 0.35981 0.84147 0.0
N456 N 0.98181 0.39854 0.87668 0.0
N457 N 0.04248 0.36415 0.84041 0.0
H458 H 0.57903 0.50361 0.38984 0.0
H459 H 0.43679 0.54894 0.30787 0.0
H460 H 0.58407 0.54665 0.31392 0.0
H461 H 0.43801 0.51956 0.3888 0.0
H462 H 0.49013 0.54598 0.30757 0.0
H463 H 0.52658 0.50621 0.38741 0.0
C464 C 0.56906 0.51376 0.37263 0.0
C465 C 0.58595 0.52537 0.35223 0.0
C466 C 0.47859 0.54035 0.32536 0.0
C467 C 0.52551 0.52829 0.3492 0.0
C468 C 0.44824 0.54204 0.32556 0.0
C469 C 0.43298 0.53469 0.34846 0.0
C470 C 0.49351 0.531 0.34815 0.0
C471 C 0.44879 0.52579 0.37079 0.0
C472 C 0.53901 0.5152 0.37123 0.0
C473 C 0.57177 0.53758 0.33014 0.0
N474 N 0.47809 0.52414 0.37003 0.0
N475 N 0.54223 0.53887 0.32923 0.0
H476 H 0.50989 0.48276 0.60803 0.0
H477 H 0.39285 0.37276 0.67302 0.0
H478 H 0.52086 0.43976 0.68355 0.0
H479 H 0.37208 0.42936 0.60637 0.0
H480 H 0.4412 0.39472 0.67468 0.0
H481 H 0.46059 0.46166 0.605 0.0
C482 C 0.50196 0.46892 0.62397 0.0
C483 C 0.5196 0.46289 0.64603 0.0
C484 C 0.42613 0.40242 0.65967 0.0
C485 C 0.46336 0.43868 0.64263 0.0
C486 C 0.39843 0.38976 0.6586 0.0
C487 C 0.37817 0.39922 0.63952 0.0
C488 C 0.43399 0.42469 0.64145 0.0
C489 C 0.38691 0.4214 0.62144 0.0
C490 C 0.4738 0.45696 0.62224 0.0
C491 C 0.50809 0.44504 0.66618 0.0
N492 N 0.41421 0.43339 0.62283 0.0
N493 N 0.48082 0.43347 0.66392 0.0
H494 H 0.10552 0.62415 0.08783 0.0
H495 H 0.95295 0.60787 0.15882 0.0
H496 H 0.08049 0.6788 0.15497 0.0
H497 H 0.96898 0.57155 0.08104 0.0
H498 H 0.00049 0.63246 0.15845 0.0
H499 H 0.05629 0.60338 0.0854 0.0
C500 C 0.08966 0.63193 0.10197 0.0
C501 C 0.09722 0.65315 0.12174 0.0
C502 C 0.99357 0.61925 0.14139 0.0
C503 C 0.04095 0.62926 0.11915 0.0
C504 C 0.96648 0.60508 0.14164 0.0
C505 C 0.95705 0.5876 0.11994 0.0
C506 C 0.01153 0.61563 0.11941 0.0
C507 C 0.97541 0.5849 0.09815 0.0
C508 C 0.06155 0.62009 0.10053 0.0
C509 C 0.07569 0.66248 0.13942 0.0
N510 N 0.0019 0.59862 0.09851 0.0
N511 N 0.04862 0.65027 0.13785 0.0
H512 H 0.1472 0.59865 0.01768 0.0
H513 H 0.21409 0.4339 0.98952 0.0
H514 H 0.20881 0.55469 0.06931 0.0
H515 H 0.155 0.479 0.93625 0.0
H516 H 0.21049 0.4769 0.01997 0.0
H517 H 0.14786 0.55405 0.9887 0.0
C518 C 0.16081 0.57958 0.02299 0.0
C519 C 0.17808 0.58048 0.04593 0.0
C520 C 0.19824 0.47739 0.00166 0.0
C521 C 0.17894 0.5293 0.01276 0.0
C522 C 0.20027 0.45281 0.98423 0.0
C523 C 0.1849 0.45287 0.96021 0.0
C524 C 0.18072 0.50231 0.99508 0.0
C525 C 0.16729 0.478 0.9545 0.0
C526 C 0.16118 0.55411 0.0064 0.0
C527 C 0.19521 0.55505 0.0518 0.0
N528 N 0.16574 0.50175 0.97178 0.0
N529 N 0.19526 0.53054 0.03529 0.0
H530 H 0.66032 0.92317 0.29455 0.0
H531 H 0.80317 0.92308 0.22616 0.0
H532 H 0.74042 0.93992 0.33674 0.0
H533 H 0.72351 0.94214 0.18437 0.0
H534 H 0.78205 0.94356 0.26637 0.0
H535 H 0.6815 0.94497 0.25515 0.0
C536 C 0.68204 0.93267 0.29571 0.0
C537 C 0.69893 0.92936 0.31857 0.0
C538 C 0.76937 0.94425 0.24831 0.0
C539 C 0.72385 0.95281 0.2734 0.0
C540 C 0.78146 0.93246 0.22537 0.0
C541 C 0.76471 0.93027 0.20225 0.0
C542 C 0.73997 0.95269 0.24828 0.0
C543 C 0.73691 0.94307 0.202 0.0
C544 C 0.69423 0.94504 0.2732 0.0
C545 C 0.72688 0.94191 0.31928 0.0
N546 N 0.725 0.95285 0.22496 0.0
N547 N 0.73889 0.95218 0.29668 0.0
H548 H 0.28451 0.48256 0.56992 0.0
H549 H 0.27954 0.49444 0.41425 0.0
H550 H 0.23551 0.42092 0.51982 0.0
H551 H 0.32562 0.55665 0.46598 0.0
H552 H 0.25426 0.47387 0.45254 0.0
H553 H 0.29108 0.51614 0.5325 0.0
C554 C 0.27483 0.47627 0.55111 0.0
C555 C 0.25997 0.44862 0.54785 0.0
C556 C 0.26944 0.49248 0.45541 0.0
C557 C 0.2677 0.48676 0.50476 0.0
C558 C 0.2837 0.50434 0.43354 0.0
C559 C 0.30512 0.52675 0.43711 0.0
C560 C 0.27678 0.50323 0.48083 0.0
C561 C 0.30971 0.53885 0.46248 0.0
C562 C 0.27853 0.49548 0.52971 0.0
C563 C 0.24748 0.44185 0.52312 0.0
N564 N 0.29603 0.52661 0.4834 0.0
N565 N 0.25208 0.46052 0.50237 0.0
H566 H 0.73645 0.08044 0.66214 0.0
H567 H 0.75689 0.06663 0.81754 0.0
H568 H 0.69139 0.13544 0.7195 0.0
H569 H 0.80172 0.00969 0.76151 0.0
H570 H 0.72679 0.08615 0.78179 0.0
H571 H 0.75499 0.04877 0.69797 0.0
C572 C 0.73017 0.08565 0.68219 0.0
C573 C 0.7128 0.11099 0.68786 0.0
C574 C 0.74295 0.0691 0.77732 0.0
C575 C 0.73388 0.07495 0.72884 0.0
C576 C 0.76013 0.05791 0.79776 0.0
C577 C 0.78218 0.03692 0.79243 0.0
C578 C 0.74808 0.05947 0.7513 0.0
C579 C 0.78518 0.02615 0.76646 0.0
C580 C 0.74076 0.06757 0.70263 0.0
C581 C 0.70518 0.11651 0.71419 0.0
N582 N 0.76863 0.03792 0.74677 0.0
N583 N 0.71599 0.09886 0.73367 0.0
H584 H 0.80049 0.47008 0.9122 0.0
H585 H 0.81853 0.48982 0.06652 0.0
H586 H 0.81508 0.39716 0.9668 0.0
H587 H 0.83712 0.55798 0.00844 0.0
H588 H 0.79436 0.45901 0.03222 0.0
H589 H 0.78958 0.50399 0.94934 0.0
C590 C 0.79989 0.46081 0.93189 0.0
C591 C 0.80928 0.43107 0.93663 0.0
C592 C 0.80297 0.48114 0.02721 0.0
C593 C 0.79745 0.46961 0.97896 0.0
C594 C 0.81674 0.49872 0.04675 0.0
C595 C 0.83052 0.52604 0.04007 0.0
C596 C 0.80284 0.49117 0.00101 0.0
C597 C 0.82741 0.53663 0.01422 0.0
C598 C 0.79399 0.48024 0.95309 0.0
C599 C 0.80838 0.42018 0.96249 0.0
N600 N 0.81431 0.51895 0.99552 0.0
N601 N 0.80331 0.43965 0.98281 0.0
H602 H 0.2508 0.07221 0.81705 0.0
H603 H 0.29875 0.0215 0.67184 0.0
H604 H 0.21616 0.99388 0.77542 0.0
H605 H 0.337 0.09753 0.71412 0.0
H606 H 0.26775 0.01169 0.70956 0.0
H607 H 0.28286 0.08191 0.77984 0.0
C608 C 0.2501 0.05691 0.80021 0.0
C609 C 0.23071 0.03224 0.79933 0.0
C610 C 0.28288 0.03057 0.71059 0.0
C611 C 0.26705 0.04338 0.75662 0.0
C612 C 0.30052 0.03626 0.68899 0.0
C613 C 0.32053 0.06036 0.68982 0.0
C614 C 0.28523 0.04911 0.73321 0.0
C615 C 0.32189 0.07868 0.71261 0.0
C616 C 0.26832 0.06253 0.77893 0.0
C617 C 0.23069 0.01322 0.77697 0.0
N618 N 0.30452 0.07265 0.73342 0.0
N619 N 0.24846 0.01926 0.75649 0.0
H620 H 0.71209 0.47842 0.44443 0.0
H621 H 0.66721 0.54165 0.58381 0.0
H622 H 0.70184 0.57326 0.46359 0.0
H623 H 0.65071 0.452 0.55207 0.0
H624 H 0.70145 0.55084 0.54771 0.0
H625 H 0.71449 0.46702 0.49145 0.0
C626 C 0.71222 0.49707 0.45854 0.0
C627 C 0.70621 0.5267 0.45033 0.0
C628 C 0.69098 0.52885 0.54917 0.0
C629 C 0.70753 0.51383 0.50383 0.0
C630 C 0.67147 0.52367 0.56965 0.0
C631 C 0.65579 0.49636 0.5703 0.0
C632 C 0.69488 0.50633 0.52966 0.0
C633 C 0.662 0.47363 0.55174 0.0
C634 C 0.71307 0.49053 0.4854 0.0
C635 C 0.70616 0.55004 0.46933 0.0
N636 N 0.68081 0.47923 0.53199 0.0
N637 N 0.70575 0.54304 0.49532 0.0
H638 H 0.2658 0.89533 0.29969 0.0
H639 H 0.20874 0.02078 0.1979 0.0
H640 H 0.30843 0.98135 0.28657 0.0
H641 H 0.16645 0.9341 0.20874 0.0
H642 H 0.24556 0.00637 0.23037 0.0
H643 H 0.22915 0.90874 0.26644 0.0
C644 C 0.26748 0.91699 0.28983 0.0
C645 C 0.29022 0.93723 0.29596 0.0
C646 C 0.22824 0.99046 0.22563 0.0
C647 C 0.24842 0.95274 0.25796 0.0
C648 C 0.2072 -0.0013 0.20707 0.0
C649 C 0.18442 0.97866 0.20058 0.0
C650 C 0.22655 0.96198 0.23788 0.0
C651 C 0.18359 0.95031 0.21313 0.0
C652 C 0.24657 0.92464 0.27085 0.0
C653 C 0.29131 0.965 0.28254 0.0
N654 N 0.20431 0.94284 0.23119 0.0
N655 N 0.27073 0.97191 0.26425 0.0
H656 H 0.715 0.05813 0.56629 0.0
H657 H 0.64943 0.9709 0.43973 0.0
H658 H 0.64533 0.0938 0.51829 0.0
H659 H 0.71934 0.93636 0.48806 0.0
H660 H 0.6464 0.01537 0.46889 0.0
H661 H 0.71582 0.0127 0.53839 0.0
C662 C 0.69983 0.05641 0.54989 0.0
C663 C 0.68012 0.07989 0.54458 0.0
C664 C 0.66234 -0.00199 0.47314 0.0
C665 C 0.68094 0.0278 0.51249 0.0
C666 C 0.66406 0.97259 0.45651 0.0
C667 C 0.68473 0.94989 0.46141 0.0
C668 C 0.68143 0.00074 0.49481 0.0
C669 C 0.70311 0.9533 0.48346 0.0
C670 C 0.70031 0.03042 0.53396 0.0
C671 C 0.66095 0.07631 0.52308 0.0
N672 N 0.70107 0.97825 0.49928 0.0
N673 N 0.66188 0.05079 0.5078 0.0
H674 H 0.22235 0.44211 0.677 0.0
H675 H 0.23919 0.4478 0.83157 0.0
H676 H 0.30065 0.42533 0.72167 0.0
H677 H 0.16058 0.42662 0.78845 0.0
H678 H 0.26041 0.4676 0.79104 0.0
H679 H 0.20017 0.46369 0.71677 0.0
C680 C 0.23522 0.44408 0.69492 0.0
C681 C 0.26298 0.43125 0.69645 0.0
C682 C 0.23806 0.45985 0.79073 0.0
C683 C 0.23803 0.45579 0.74158 0.0
C684 C 0.22591 0.44878 0.81387 0.0
C685 C 0.19844 0.43506 0.81298 0.0
C686 C 0.22248 0.45703 0.76686 0.0
C687 C 0.18209 0.43661 0.78963 0.0
C688 C 0.22258 0.45633 0.71756 0.0
C689 C 0.27887 0.43436 0.72 0.0
N690 N 0.19459 0.44674 0.76727 0.0
N691 N 0.26598 0.44584 0.74182 0.0
H692 H 0.78106 -0.00072 0.9199 0.0
H693 H 0.78831 0.98412 0.07576 0.0
H694 H 0.83655 0.05282 0.97139 0.0
H695 H 0.73395 0.92763 0.02561 0.0
H696 H 0.79787 0.01694 0.03839 0.0
H697 H 0.75546 0.98036 0.95864 0.0
C698 C 0.78743 0.00754 0.93928 0.0
C699 C 0.81136 0.02708 0.94253 0.0
C700 C 0.78352 -0.0024 0.03559 0.0
C701 C 0.78244 0.00553 0.98674 0.0
C702 C 0.77806 0.97885 0.05696 0.0
C703 C 0.76081 0.95275 0.05366 0.0
C704 C 0.77197 0.99 0.01064 0.0
C705 C 0.74773 0.9473 0.02894 0.0
C706 C 0.77291 -0.00333 0.96138 0.0
C707 C 0.81864 0.03721 0.96804 0.0
N708 N 0.754 0.96546 0.00823 0.0
N709 N 0.80452 0.02602 0.98915 0.0
H710 H 0.17491 0.64448 0.21909 0.0
H711 H 0.28833 0.52937 0.28204 0.0
H712 H 0.23206 0.58778 0.17315 0.0
H713 H 0.23877 0.59475 0.32673 0.0
H714 H 0.26055 0.5425 0.24266 0.0
H715 H 0.1905 0.6183 0.25875 0.0
C716 C 0.19057 0.62626 0.21729 0.0
C717 C 0.2027 0.61873 0.19282 0.0
C718 C 0.2555 0.55369 0.26114 0.0
C719 C 0.22077 0.58875 0.23833 0.0
C720 C 0.27134 0.54623 0.28368 0.0
C721 C 0.26623 0.56144 0.30766 0.0
C722 C 0.23442 0.57655 0.26254 0.0
C723 C 0.24369 0.58273 0.30862 0.0
C724 C 0.19943 0.61131 0.23999 0.0
C725 C 0.22239 0.59452 0.19164 0.0
N726 N 0.22885 0.58994 0.28629 0.0
N727 N 0.23118 0.58067 0.2142 0.0
H728 H 0.33988 0.059 0.50974 0.0
H729 H 0.31056 0.89535 0.46644 0.0
H730 H 0.31946 0.98888 0.56547 0.0
H731 H 0.30237 0.97053 0.41314 0.0
H732 H 0.30097 0.92963 0.50334 0.0
H733 H 0.31514 0.02966 0.47522 0.0
C734 C 0.32962 0.03766 0.51479 0.0
C735 C 0.33231 0.02596 0.5403 0.0
C736 C 0.30016 0.93857 0.48354 0.0
C737 C 0.30446 0.99187 0.50077 0.0
C738 C 0.30541 0.91889 0.46244 0.0
C739 C 0.30778 0.93031 0.43685 0.0
C740 C 0.29826 0.96997 0.47898 0.0
C741 C 0.30095 0.96092 0.43265 0.0
C742 C 0.31535 0.02094 0.4951 0.0
C743 C 0.3182 -0.00149 0.54594 0.0
N744 N 0.2975 0.97997 0.45363 0.0
N745 N 0.30557 0.98195 0.52614 0.0
H746 H 0.79926 0.52288 0.1709 0.0
H747 H 0.75113 0.57261 0.31627 0.0
H748 H 0.83604 0.60002 0.21273 0.0
H749 H 0.71879 0.49288 0.27513 0.0
H750 H 0.78219 0.58359 0.27861 0.0
H751 H 0.76858 0.5126 0.2087 0.0
C752 C 0.80077 0.53778 0.18797 0.0
C753 C 0.8203 0.56231 0.18866 0.0
C754 C 0.76834 0.56365 0.2779 0.0
C755 C 0.78534 0.55055 0.23215 0.0
C756 C 0.7507 0.55732 0.29942 0.0
C757 C 0.73231 0.53182 0.29884 0.0
C758 C 0.76751 0.54436 0.25566 0.0
C759 C 0.73257 0.51283 0.27647 0.0
C760 C 0.78331 0.53183 0.20961 0.0
C761 C 0.82132 0.58083 0.21135 0.0
N762 N 0.7498 0.51954 0.25578 0.0
N763 N 0.80413 0.57452 0.23222 0.0
H764 H 0.16533 0.0396 0.08459 0.0
H765 H 0.20298 0.97969 0.94225 0.0
H766 H 0.14967 0.94949 0.05353 0.0
H767 H 0.19523 0.07407 0.96412 0.0
H768 H 0.20707 0.96667 0.9889 0.0
H769 H 0.19731 0.0498 0.04705 0.0
C770 C 0.1694 0.02173 0.07029 0.0
C771 C 0.15455 0.99397 0.07159 0.0
C772 C 0.20575 0.99039 0.98349 0.0
C773 C 0.19088 0.00517 0.02913 0.0
C774 C 0.20388 -0.00217 0.95683 0.0
C775 C 0.19839 0.02789 0.94956 0.0
C776 C 0.20166 0.01322 0.0027 0.0
C777 C 0.19923 0.05056 0.96914 0.0
C778 C 0.18758 0.02748 0.04894 0.0
C779 C 0.1604 0.97141 0.05276 0.0
N780 N 0.1999 0.04271 0.99495 0.0
N781 N 0.17781 0.97763 0.03211 0.0
H782 H 0.64749 0.40761 0.72657 0.0
H783 H 0.80558 0.46291 0.77379 0.0
H784 H 0.69263 0.48458 0.69401 0.0
H785 H 0.76054 0.38726 0.80863 0.0
H786 H 0.76475 0.47004 0.74367 0.0
H787 H 0.68886 0.39884 0.75607 0.0
C788 C 0.66608 0.42268 0.72561 0.0
C789 C 0.66654 0.44693 0.7078 0.0
C790 C 0.76375 0.45183 0.75785 0.0
C791 C 0.714 0.43695 0.74151 0.0
C792 C 0.78712 0.4477 0.77508 0.0
C793 C 0.78649 0.42446 0.79384 0.0
C794 C 0.73945 0.4326 0.75928 0.0
C795 C 0.76195 0.40548 0.7945 0.0
C796 C 0.68971 0.41764 0.74246 0.0
C797 C 0.69126 0.46565 0.70743 0.0
N798 N 0.73937 0.41 0.7775 0.0
N799 N 0.71395 0.46027 0.72403 0.0
loop_
_geom_bond_atom_site_label_1
_geom_bond_atom_site_label_2
_geom_bond_distance
_geom_bond_site_symmetry_2
_ccdc_geom_bond_type
Mg0 O1 2.028 . S
Mg0 O7 1.986 . S
Mg0 O9 2.114 . S
Mg0 O10 2.251 . S
Mg0 O13 2.010 . S
O1 Mg0 2.028 . S
O1 C4 1.250 . S
O2 Mg3 2.028 . S
O2 C4 1.248 . S
Mg3 O2 2.028 . S
Mg3 O8 2.032 . S
Mg3 O10 2.079 . S
C4 O1 1.250 . S
C4 O2 1.248 . S
C5 O6 1.264 . S
C5 O13 1.249 . S
O6 C5 1.264 . S
O7 Mg0 1.986 . S
O7 C11 1.246 . S
O8 Mg3 2.032 . S
O8 C11 1.259 . S
O9 Mg0 2.114 . S
O9 C12 1.252 . S
O10 Mg0 2.251 . S
O10 Mg3 2.079 . S
O10 C12 1.273 . S
C11 O7 1.246 . S
C11 O8 1.259 . S
C12 O9 1.252 . S
C12 O10 1.273 . S
O13 Mg0 2.010 . S
O13 C5 1.249 . S
Mg14 O15 2.028 . S
Mg14 O21 1.986 . S
Mg14 O23 2.114 . S
Mg14 O24 2.251 . S
Mg14 O27 2.010 . S
O15 Mg14 2.028 . S
O15 C18 1.250 . S
O16 Mg17 2.028 . S
O16 C18 1.248 . S
Mg17 O16 2.028 . S
Mg17 O22 2.032 . S
Mg17 O24 2.079 . S
C18 O15 1.250 . S
C18 O16 1.248 . S
C19 O20 1.264 . S
C19 O27 1.249 . S
O20 C19 1.264 . S
O21 Mg14 1.986 . S
O21 C25 1.246 . S
O22 Mg17 2.032 . S
O22 C25 1.259 . S
O23 Mg14 2.114 . S
O23 C26 1.252 . S
O24 Mg14 2.251 . S
O24 Mg17 2.079 . S
O24 C26 1.273 . S
C25 O21 1.246 . S
C25 O22 1.259 . S
C26 O23 1.252 . S
C26 O24 1.273 . S
O27 Mg14 2.010 . S
O27 C19 1.249 . S
Mg28 O29 2.028 . S
Mg28 O35 1.986 . S
Mg28 O37 2.114 . S
Mg28 O38 2.251 . S
Mg28 O41 2.010 . S
O29 Mg28 2.028 . S
O29 C32 1.250 . S
O30 Mg31 2.028 . S
O30 C32 1.248 . S
Mg31 O30 2.028 . S
Mg31 O36 2.032 . S
Mg31 O38 2.079 . S
C32 O29 1.250 . S
C32 O30 1.248 . S
C33 O34 1.264 . S
C33 O41 1.249 . S
O34 C33 1.264 . S
O35 Mg28 1.986 . S
O35 C39 1.246 . S
O36 Mg31 2.032 . S
O36 C39 1.259 . S
O37 Mg28 2.114 . S
O37 C40 1.252 . S
O38 Mg28 2.251 . S
O38 Mg31 2.079 . S
O38 C40 1.273 . S
C39 O35 1.246 . S
C39 O36 1.259 . S
C40 O37 1.252 . S
C40 O38 1.273 . S
O41 Mg28 2.010 . S
O41 C33 1.249 . S
Mg42 O43 2.028 . S
Mg42 O49 1.986 . S
Mg42 O51 2.114 . S
Mg42 O52 2.251 . S
Mg42 O55 2.010 . S
O43 Mg42 2.028 . S
O43 C46 1.250 . S
O44 Mg45 2.028 . S
O44 C46 1.248 . S
Mg45 O44 2.028 . S
Mg45 O50 2.032 . S
Mg45 O52 2.079 . S
C46 O43 1.250 . S
C46 O44 1.248 . S
C47 O48 1.264 . S
C47 O55 1.249 . S
O48 C47 1.264 . S
O49 Mg42 1.986 . S
O49 C53 1.246 . S
O50 Mg45 2.032 . S
O50 C53 1.259 . S
O51 Mg42 2.114 . S
O51 C54 1.252 . S
O52 Mg42 2.251 . S
O52 Mg45 2.079 . S
O52 C54 1.273 . S
C53 O49 1.246 . S
C53 O50 1.259 . S
C54 O51 1.252 . S
C54 O52 1.273 . S
O55 Mg42 2.010 . S
O55 C47 1.249 . S
Mg56 O57 2.028 . S
Mg56 O63 1.986 . S
Mg56 O65 2.114 . S
Mg56 O66 2.251 . S
Mg56 O69 2.010 . S
O57 Mg56 2.028 . S
O57 C60 1.250 . S
O58 Mg59 2.028 . S
O58 C60 1.248 . S
Mg59 O58 2.028 . S
Mg59 O64 2.032 . S
Mg59 O66 2.079 . S
C60 O57 1.250 . S
C60 O58 1.248 . S
C61 O62 1.264 . S
C61 O69 1.249 . S
O62 C61 1.264 . S
O63 Mg56 1.986 . S
O63 C67 1.246 . S
O64 Mg59 2.032 . S
O64 C67 1.259 . S
O65 Mg56 2.114 . S
O65 C68 1.252 . S
O66 Mg56 2.251 . S
O66 Mg59 2.079 . S
O66 C68 1.273 . S
C67 O63 1.246 . S
C67 O64 1.259 . S
C68 O65 1.252 . S
C68 O66 1.273 . S
O69 Mg56 2.010 . S
O69 C61 1.249 . S
Mg70 O71 2.028 . S
Mg70 O77 1.986 . S
Mg70 O79 2.114 . S
Mg70 O80 2.251 . S
Mg70 O83 2.010 . S
O71 Mg70 2.028 . S
O71 C74 1.250 . S
O72 Mg73 2.028 . S
O72 C74 1.248 . S
Mg73 O72 2.028 . S
Mg73 O78 2.032 . S
Mg73 O80 2.079 . S
C74 O71 1.250 . S
C74 O72 1.248 . S
C75 O76 1.264 . S
C75 O83 1.249 . S
O76 C75 1.264 . S
O77 Mg70 1.986 . S
O77 C81 1.246 . S
O78 Mg73 2.032 . S
O78 C81 1.259 . S
O79 Mg70 2.114 . S
O79 C82 1.252 . S
O80 Mg70 2.251 . S
O80 Mg73 2.079 . S
O80 C82 1.273 . S
C81 O77 1.246 . S
C81 O78 1.259 . S
C82 O79 1.252 . S
C82 O80 1.273 . S
O83 Mg70 2.010 . S
O83 C75 1.249 . S
Mg84 O85 2.028 . S
Mg84 O91 1.986 . S
Mg84 O93 2.114 . S
Mg84 O94 2.251 . S
Mg84 O97 2.010 . S
O85 Mg84 2.028 . S
O85 C88 1.250 . S
O86 Mg87 2.028 . S
O86 C88 1.248 . S
Mg87 O86 2.028 . S
Mg87 O92 2.032 . S
Mg87 O94 2.079 . S
C88 O85 1.250 . S
C88 O86 1.248 . S
C89 O90 1.264 . S
C89 O97 1.249 . S
O90 C89 1.264 . S
O91 Mg84 1.986 . S
O91 C95 1.246 . S
O92 Mg87 2.032 . S
O92 C95 1.259 . S
O93 Mg84 2.114 . S
O93 C96 1.252 . S
O94 Mg84 2.251 . S
O94 Mg87 2.079 . S
O94 C96 1.273 . S
C95 O91 1.246 . S
C95 O92 1.259 . S
C96 O93 1.252 . S
C96 O94 1.273 . S
O97 Mg84 2.010 . S
O97 C89 1.249 . S
Mg98 O99 2.028 . S
Mg98 O105 1.986 . S
Mg98 O107 2.114 . S
Mg98 O108 2.251 . S
Mg98 O111 2.010 . S
O99 Mg98 2.028 . S
O99 C102 1.250 . S
O100 Mg101 2.028 . S
O100 C102 1.248 . S
Mg101 O100 2.028 . S
Mg101 O106 2.032 . S
Mg101 O108 2.079 . S
C102 O99 1.250 . S
C102 O100 1.248 . S
C103 O104 1.264 . S
C103 O111 1.249 . S
O104 C103 1.264 . S
O105 Mg98 1.986 . S
O105 C109 1.246 . S
O106 Mg101 2.032 . S
O106 C109 1.259 . S
O107 Mg98 2.114 . S
O107 C110 1.252 . S
O108 Mg98 2.251 . S
O108 Mg101 2.079 . S
O108 C110 1.273 . S
C109 O105 1.246 . S
C109 O106 1.259 . S
C110 O107 1.252 . S
C110 O108 1.273 . S
O111 Mg98 2.010 . S
O111 C103 1.249 . S
Mg112 O113 2.028 . S
Mg112 O119 1.986 . S
Mg112 O121 2.114 . S
Mg112 O122 2.251 . S
Mg112 O125 2.010 . S
O113 Mg112 2.028 . S
O113 C116 1.250 . S
O114 Mg115 2.028 . S
O114 C116 1.248 . S
Mg115 O114 2.028 . S
Mg115 O120 2.032 . S
Mg115 O122 2.079 . S
C116 O113 1.250 . S
C116 O114 1.248 . S
C117 O118 1.264 . S
C117 O125 1.249 . S
O118 C117 1.264 . S
O119 Mg112 1.986 . S
O119 C123 1.246 . S
O120 Mg115 2.032 . S
O120 C123 1.259 . S
O121 Mg112 2.114 . S
O121 C124 1.252 . S
O122 Mg112 2.251 . S
O122 Mg115 2.079 . S
O122 C124 1.273 . S
C123 O119 1.246 . S
C123 O120 1.259 . S
C124 O121 1.252 . S
C124 O122 1.273 . S
O125 Mg112 2.010 . S
O125 C117 1.249 . S
Mg126 O127 2.028 . S
Mg126 O133 1.986 . S
Mg126 O135 2.114 . S
Mg126 O136 2.251 . S
Mg126 O139 2.010 . S
O127 Mg126 2.028 . S
O127 C130 1.250 . S
O128 Mg129 2.028 . S
O128 C130 1.248 . S
Mg129 O128 2.028 . S
Mg129 O134 2.032 . S
Mg129 O136 2.079 . S
C130 O127 1.250 . S
C130 O128 1.248 . S
C131 O132 1.264 . S
C131 O139 1.249 . S
O132 C131 1.264 . S
O133 Mg126 1.986 . S
O133 C137 1.246 . S
O134 Mg129 2.032 . S
O134 C137 1.259 . S
O135 Mg126 2.114 . S
O135 C138 1.252 . S
O136 Mg126 2.251 . S
O136 Mg129 2.079 . S
O136 C138 1.273 . S
C137 O133 1.246 . S
C137 O134 1.259 . S
C138 O135 1.252 . S
C138 O136 1.273 . S
O139 Mg126 2.010 . S
O139 C131 1.249 . S
Mg140 O141 2.028 . S
Mg140 O147 1.986 . S
Mg140 O149 2.114 . S
Mg140 O150 2.251 . S
Mg140 O153 2.010 . S
O141 Mg140 2.028 . S
O141 C144 1.250 . S
O142 Mg143 2.028 . S
O142 C144 1.248 . S
Mg143 O142 2.028 . S
Mg143 O148 2.032 . S
Mg143 O150 2.079 . S
C144 O141 1.250 . S
C144 O142 1.248 . S
C145 O146 1.264 . S
C145 O153 1.249 . S
O146 C145 1.264 . S
O147 Mg140 1.986 . S
O147 C151 1.246 . S
O148 Mg143 2.032 . S
O148 C151 1.259 . S
O149 Mg140 2.114 . S
O149 C152 1.252 . S
O150 Mg140 2.251 . S
O150 Mg143 2.079 . S
O150 C152 1.273 . S
C151 O147 1.246 . S
C151 O148 1.259 . S
C152 O149 1.252 . S
C152 O150 1.273 . S
O153 Mg140 2.010 . S
O153 C145 1.249 . S
Mg154 O155 2.028 . S
Mg154 O161 1.986 . S
Mg154 O163 2.114 . S
Mg154 O164 2.251 . S
Mg154 O167 2.010 . S
O155 Mg154 2.028 . S
O155 C158 1.250 . S
O156 Mg157 2.028 . S
O156 C158 1.248 . S
Mg157 O156 2.028 . S
Mg157 O162 2.032 . S
Mg157 O164 2.079 . S
C158 O155 1.250 . S
C158 O156 1.248 . S
C159 O160 1.264 . S
C159 O167 1.249 . S
O160 C159 1.264 . S
O161 Mg154 1.986 . S
O161 C165 1.246 . S
O162 Mg157 2.032 . S
O162 C165 1.259 . S
O163 Mg154 2.114 . S
O163 C166 1.252 . S
O164 Mg154 2.251 . S
O164 Mg157 2.079 . S
O164 C166 1.273 . S
C165 O161 1.246 . S
C165 O162 1.259 . S
C166 O163 1.252 . S
C166 O164 1.273 . S
O167 Mg154 2.010 . S
O167 C159 1.249 . S
Mg168 O169 2.028 . S
Mg168 O175 1.986 . S
Mg168 O177 2.114 . S
Mg168 O178 2.251 . S
Mg168 O181 2.010 . S
O169 Mg168 2.028 . S
O169 C172 1.250 . S
O170 Mg171 2.028 . S
O170 C172 1.248 . S
Mg171 O170 2.028 . S
Mg171 O176 2.032 . S
Mg171 O178 2.079 . S
C172 O169 1.250 . S
C172 O170 1.248 . S
C173 O174 1.264 . S
C173 O181 1.249 . S
O174 C173 1.264 . S
O175 Mg168 1.986 . S
O175 C179 1.246 . S
O176 Mg171 2.032 . S
O176 C179 1.259 . S
O177 Mg168 2.114 . S
O177 C180 1.252 . S
O178 Mg168 2.251 . S
O178 Mg171 2.079 . S
O178 C180 1.273 . S
C179 O175 1.246 . S
C179 O176 1.259 . S
C180 O177 1.252 . S
C180 O178 1.273 . S
O181 Mg168 2.010 . S
O181 C173 1.249 . S
Mg182 O183 2.028 . S
Mg182 O189 1.986 . S
Mg182 O191 2.114 . S
Mg182 O192 2.251 . S
Mg182 O195 2.010 . S
O183 Mg182 2.028 . S
O183 C186 1.250 . S
O184 Mg185 2.028 . S
O184 C186 1.248 . S
Mg185 O184 2.028 . S
Mg185 O190 2.032 . S
Mg185 O192 2.079 . S
C186 O183 1.250 . S
C186 O184 1.248 . S
C187 O188 1.264 . S
C187 O195 1.249 . S
O188 C187 1.264 . S
O189 Mg182 1.986 . S
O189 C193 1.246 . S
O190 Mg185 2.032 . S
O190 C193 1.259 . S
O191 Mg182 2.114 . S
O191 C194 1.252 . S
O192 Mg182 2.251 . S
O192 Mg185 2.079 . S
O192 C194 1.273 . S
C193 O189 1.246 . S
C193 O190 1.259 . S
C194 O191 1.252 . S
C194 O192 1.273 . S
O195 Mg182 2.010 . S
O195 C187 1.249 . S
Mg196 O197 2.028 . S
Mg196 O203 1.986 . S
Mg196 O205 2.114 . S
Mg196 O206 2.251 . S
Mg196 O209 2.010 . S
O197 Mg196 2.028 . S
O197 C200 1.250 . S
O198 Mg199 2.028 . S
O198 C200 1.248 . S
Mg199 O198 2.028 . S
Mg199 O204 2.032 . S
Mg199 O206 2.079 . S
C200 O197 1.250 . S
C200 O198 1.248 . S
C201 O202 1.264 . S
C201 O209 1.249 . S
O202 C201 1.264 . S
O203 Mg196 1.986 . S
O203 C207 1.246 . S
O204 Mg199 2.032 . S
O204 C207 1.259 . S
O205 Mg196 2.114 . S
O205 C208 1.252 . S
O206 Mg196 2.251 . S
O206 Mg199 2.079 . S
O206 C208 1.273 . S
C207 O203 1.246 . S
C207 O204 1.259 . S
C208 O205 1.252 . S
C208 O206 1.273 . S
O209 Mg196 2.010 . S
O209 C201 1.249 . S
Mg210 O211 2.028 . S
Mg210 O217 1.986 . S
Mg210 O219 2.114 . S
Mg210 O220 2.251 . S
Mg210 O223 2.010 . S
O211 Mg210 2.028 . S
O211 C214 1.250 . S
O212 Mg213 2.028 . S
O212 C214 1.248 . S
Mg213 O212 2.028 . S
Mg213 O218 2.032 . S
Mg213 O220 2.079 . S
C214 O211 1.250 . S
C214 O212 1.248 . S
C215 O216 1.264 . S
C215 O223 1.249 . S
O216 C215 1.264 . S
O217 Mg210 1.986 . S
O217 C221 1.246 . S
O218 Mg213 2.032 . S
O218 C221 1.259 . S
O219 Mg210 2.114 . S
O219 C222 1.252 . S
O220 Mg210 2.251 . S
O220 Mg213 2.079 . S
O220 C222 1.273 . S
C221 O217 1.246 . S
C221 O218 1.259 . S
C222 O219 1.252 . S
C222 O220 1.273 . S
O223 Mg210 2.010 . S
O223 C215 1.249 . S
H224 C230 0.930 . S
H225 C234 0.930 . S
H226 C239 0.929 . S
H227 C237 0.929 . S
H228 C232 0.929 . S
H229 C238 0.929 . S
C230 H224 0.930 . S
C230 C231 1.367 . S
C230 C238 1.378 . S
C231 C230 1.367 . S
C231 C239 1.433 . S
C232 H228 0.929 . S
C232 C234 1.378 . S
C232 C236 1.350 . S
C233 C236 1.463 . S
C233 C238 1.350 . S
C233 N241 1.427 . S
C234 H225 0.930 . S
C234 C232 1.378 . S
C234 C235 1.367 . S
C235 C234 1.367 . S
C235 C237 1.433 . S
C236 C232 1.350 . S
C236 C233 1.463 . S
C236 N240 1.427 . S
C237 H227 0.929 . S
C237 C235 1.433 . S
C237 N240 1.384 . S
C238 H229 0.929 . S
C238 C230 1.378 . S
C238 C233 1.350 . S
C239 H226 0.929 . S
C239 C231 1.433 . S
C239 N241 1.384 . S
N240 C236 1.427 . S
N240 C237 1.384 . S
N241 C233 1.427 . S
N241 C239 1.384 . S
H242 C248 0.930 . S
H243 C252 0.930 . S
H244 C257 0.929 . S
H245 C255 0.929 . S
H246 C250 0.929 . S
H247 C256 0.929 . S
C248 H242 0.930 . S
C248 C249 1.367 . S
C248 C256 1.378 . S
C249 C248 1.367 . S
C249 C257 1.433 . S
C250 H246 0.929 . S
C250 C252 1.378 . S
C250 C254 1.350 . S
C251 C254 1.463 . S
C251 C256 1.350 . S
C251 N259 1.427 . S
C252 H243 0.930 . S
C252 C250 1.378 . S
C252 C253 1.367 . S
C253 C252 1.367 . S
C253 C255 1.433 . S
C254 C250 1.350 . S
C254 C251 1.463 . S
C254 N258 1.427 . S
C255 H245 0.929 . S
C255 C253 1.433 . S
C255 N258 1.384 . S
C256 H247 0.929 . S
C256 C248 1.378 . S
C256 C251 1.350 . S
C257 H244 0.929 . S
C257 C249 1.433 . S
C257 N259 1.384 . S
N258 C254 1.427 . S
N258 C255 1.384 . S
N259 C251 1.427 . S
N259 C257 1.384 . S
H260 C266 0.930 . S
H261 C270 0.930 . S
H262 C275 0.929 . S
H263 C273 0.929 . S
H264 C268 0.929 . S
H265 C274 0.929 . S
C266 H260 0.930 . S
C266 C267 1.367 . S
C266 C274 1.378 . S
C267 C266 1.367 . S
C267 C275 1.433 . S
C268 H264 0.929 . S
C268 C270 1.378 . S
C268 C272 1.350 . S
C269 C272 1.463 . S
C269 C274 1.350 . S
C269 N277 1.427 . S
C270 H261 0.930 . S
C270 C268 1.378 . S
C270 C271 1.367 . S
C271 C270 1.367 . S
C271 C273 1.433 . S
C272 C268 1.350 . S
C272 C269 1.463 . S
C272 N276 1.427 . S
C273 H263 0.929 . S
C273 C271 1.433 . S
C273 N276 1.384 . S
C274 H265 0.929 . S
C274 C266 1.378 . S
C274 C269 1.350 . S
C275 H262 0.929 . S
C275 C267 1.433 . S
C275 N277 1.384 . S
N276 C272 1.427 . S
N276 C273 1.384 . S
N277 C269 1.427 . S
N277 C275 1.384 . S
H278 C284 0.930 . S
H279 C288 0.930 . S
H280 C293 0.929 . S
H281 C291 0.929 . S
H282 C286 0.929 . S
H283 C292 0.929 . S
C284 H278 0.930 . S
C284 C285 1.367 . S
C284 C292 1.378 . S
C285 C284 1.367 . S
C285 C293 1.433 . S
C286 H282 0.929 . S
C286 C288 1.378 . S
C286 C290 1.350 . S
C287 C290 1.463 1_455 S
C287 C292 1.350 . S
C287 N295 1.427 . S
C288 H279 0.930 . S
C288 C286 1.378 . S
C288 C289 1.367 . S
C289 C288 1.367 . S
C289 C291 1.433 . S
C290 C286 1.350 . S
C290 C287 1.463 1_655 S
C290 N294 1.427 . S
C291 H281 0.929 . S
C291 C289 1.433 . S
C291 N294 1.384 . S
C292 H283 0.929 . S
C292 C284 1.378 . S
C292 C287 1.350 . S
C293 H280 0.929 . S
C293 C285 1.433 . S
C293 N295 1.384 . S
N294 C290 1.427 . S
N294 C291 1.384 . S
N295 C287 1.427 . S
N295 C293 1.384 . S
H296 C302 0.930 . S
H297 C306 0.930 . S
H298 C311 0.929 . S
H299 C309 0.929 . S
H300 C304 0.929 . S
H301 C310 0.929 . S
C302 H296 0.930 . S
C302 C303 1.367 . S
C302 C310 1.378 . S
C303 C302 1.367 . S
C303 C311 1.433 . S
C304 H300 0.929 . S
C304 C306 1.378 . S
C304 C308 1.350 . S
C305 C308 1.463 . S
C305 C310 1.350 . S
C305 N313 1.427 . S
C306 H297 0.930 . S
C306 C304 1.378 . S
C306 C307 1.367 . S
C307 C306 1.367 . S
C307 C309 1.433 . S
C308 C304 1.350 . S
C308 C305 1.463 . S
C308 N312 1.427 . S
C309 H299 0.929 . S
C309 C307 1.433 . S
C309 N312 1.384 . S
C310 H301 0.929 . S
C310 C302 1.378 . S
C310 C305 1.350 . S
C311 H298 0.929 . S
C311 C303 1.433 . S
C311 N313 1.384 . S
N312 C308 1.427 . S
N312 C309 1.384 . S
N313 C305 1.427 . S
N313 C311 1.384 . S
H314 C320 0.930 . S
H315 C324 0.930 . S
H316 C329 0.929 . S
H317 C327 0.929 . S
H318 C322 0.929 . S
H319 C328 0.929 . S
C320 H314 0.930 . S
C320 C321 1.367 . S
C320 C328 1.378 . S
C321 C320 1.367 . S
C321 C329 1.433 . S
C322 H318 0.929 . S
C322 C324 1.378 . S
C322 C326 1.350 1_455 S
C323 C326 1.463 . S
C323 C328 1.350 . S
C323 N331 1.427 . S
C324 H315 0.930 . S
C324 C322 1.378 . S
C324 C325 1.367 . S
C325 C324 1.367 . S
C325 C327 1.433 . S
C326 C322 1.350 1_655 S
C326 C323 1.463 . S
C326 N330 1.427 1_655 S
C327 H317 0.929 . S
C327 C325 1.433 . S
C327 N330 1.384 . S
C328 H319 0.929 . S
C328 C320 1.378 . S
C328 C323 1.350 . S
C329 H316 0.929 . S
C329 C321 1.433 . S
C329 N331 1.384 . S
N330 C326 1.427 1_455 S
N330 C327 1.384 . S
N331 C323 1.427 . S
N331 C329 1.384 . S
H332 C338 0.930 . S
H333 C342 0.930 . S
H334 C347 0.929 . S
H335 C345 0.929 . S
H336 C340 0.929 . S
H337 C346 0.929 . S
C338 H332 0.930 . S
C338 C339 1.367 . S
C338 C346 1.378 . S
C339 C338 1.367 . S
C339 C347 1.433 . S
C340 H336 0.929 . S
C340 C342 1.378 . S
C340 C344 1.350 . S
C341 C344 1.463 . S
C341 C346 1.350 . S
C341 N349 1.427 . S
C342 H333 0.930 . S
C342 C340 1.378 . S
C342 C343 1.367 . S
C343 C342 1.367 . S
C343 C345 1.433 . S
C344 C340 1.350 . S
C344 C341 1.463 . S
C344 N348 1.427 . S
C345 H335 0.929 . S
C345 C343 1.433 . S
C345 N348 1.384 . S
C346 H337 0.929 . S
C346 C338 1.378 . S
C346 C341 1.350 . S
C347 H334 0.929 . S
C347 C339 1.433 . S
C347 N349 1.384 . S
N348 C344 1.427 . S
N348 C345 1.384 . S
N349 C341 1.427 . S
N349 C347 1.384 . S
H350 C356 0.930 . S
H351 C360 0.930 . S
H352 C365 0.929 . S
H353 C363 0.929 . S
H354 C358 0.929 . S
H355 C364 0.929 . S
C356 H350 0.930 . S
C356 C357 1.367 . S
C356 C364 1.378 . S
C357 C356 1.367 . S
C357 C365 1.433 . S
C358 H354 0.929 . S
C358 C360 1.378 . S
C358 C362 1.350 . S
C359 C362 1.463 . S
C359 C364 1.350 . S
C359 N367 1.427 . S
C360 H351 0.930 . S
C360 C358 1.378 . S
C360 C361 1.367 . S
C361 C360 1.367 . S
C361 C363 1.433 . S
C362 C358 1.350 . S
C362 C359 1.463 . S
C362 N366 1.427 . S
C363 H353 0.929 . S
C363 C361 1.433 . S
C363 N366 1.384 . S
C364 H355 0.929 . S
C364 C356 1.378 . S
C364 C359 1.350 . S
C365 H352 0.929 . S
C365 C357 1.433 . S
C365 N367 1.384 . S
N366 C362 1.427 . S
N366 C363 1.384 . S
N367 C359 1.427 . S
N367 C365 1.384 . S
H368 C374 0.930 . S
H369 C378 0.930 . S
H370 C383 0.929 . S
H371 C381 0.929 . S
H372 C376 0.929 . S
H373 C382 0.929 . S
C374 H368 0.930 . S
C374 C375 1.367 . S
C374 C382 1.378 . S
C375 C374 1.367 . S
C375 C383 1.433 . S
C376 H372 0.929 . S
C376 C378 1.378 . S
C376 C380 1.350 . S
C377 C380 1.463 . S
C377 C382 1.350 . S
C377 N385 1.427 . S
C378 H369 0.930 . S
C378 C376 1.378 . S
C378 C379 1.367 . S
C379 C378 1.367 . S
C379 C381 1.433 . S
C380 C376 1.350 . S
C380 C377 1.463 . S
C380 N384 1.427 . S
C381 H371 0.929 . S
C381 C379 1.433 . S
C381 N384 1.384 . S
C382 H373 0.929 . S
C382 C374 1.378 . S
C382 C377 1.350 . S
C383 H370 0.929 . S
C383 C375 1.433 . S
C383 N385 1.384 . S
N384 C380 1.427 . S
N384 C381 1.384 . S
N385 C377 1.427 . S
N385 C383 1.384 . S
H386 C392 0.930 . S
H387 C396 0.930 . S
H388 C401 0.929 . S
H389 C399 0.929 . S
H390 C394 0.929 . S
H391 C400 0.929 . S
C392 H386 0.930 . S
C392 C393 1.367 . S
C392 C400 1.378 . S
C393 C392 1.367 . S
C393 C401 1.433 . S
C394 H390 0.929 . S
C394 C396 1.378 . S
C394 C398 1.350 . S
C395 C398 1.463 . S
C395 C400 1.350 . S
C395 N403 1.427 . S
C396 H387 0.930 . S
C396 C394 1.378 . S
C396 C397 1.367 . S
C397 C396 1.367 . S
C397 C399 1.433 . S
C398 C394 1.350 . S
C398 C395 1.463 . S
C398 N402 1.427 . S
C399 H389 0.929 . S
C399 C397 1.433 . S
C399 N402 1.384 . S
C400 H391 0.929 . S
C400 C392 1.378 . S
C400 C395 1.350 . S
C401 H388 0.929 . S
C401 C393 1.433 . S
C401 N403 1.384 . S
N402 C398 1.427 . S
N402 C399 1.384 . S
N403 C395 1.427 . S
N403 C401 1.384 . S
H404 C410 0.930 . S
H405 C414 0.930 . S
H406 C419 0.929 . S
H407 C417 0.929 . S
H408 C412 0.929 . S
H409 C418 0.929 . S
C410 H404 0.930 . S
C410 C411 1.367 . S
C410 C418 1.378 . S
C411 C410 1.367 . S
C411 C419 1.433 . S
C412 H408 0.929 . S
C412 C414 1.378 . S
C412 C416 1.350 . S
C413 C416 1.463 . S
C413 C418 1.350 . S
C413 N421 1.427 . S
C414 H405 0.930 . S
C414 C412 1.378 . S
C414 C415 1.367 . S
C415 C414 1.367 . S
C415 C417 1.433 . S
C416 C412 1.350 . S
C416 C413 1.463 . S
C416 N420 1.427 . S
C417 H407 0.929 . S
C417 C415 1.433 . S
C417 N420 1.384 . S
C418 H409 0.929 . S
C418 C410 1.378 . S
C418 C413 1.350 . S
C419 H406 0.929 . S
C419 C411 1.433 . S
C419 N421 1.384 . S
N420 C416 1.427 . S
N420 C417 1.384 . S
N421 C413 1.427 . S
N421 C419 1.384 . S
H422 C428 0.930 . S
H423 C432 0.930 . S
H424 C437 0.929 . S
H425 C435 0.929 . S
H426 C430 0.929 . S
H427 C436 0.929 . S
C428 H422 0.930 . S
C428 C429 1.367 . S
C428 C436 1.378 . S
C429 C428 1.367 . S
C429 C437 1.433 . S
C430 H426 0.929 . S
C430 C432 1.378 . S
C430 C434 1.350 . S
C431 C434 1.463 . S
C431 C436 1.350 . S
C431 N439 1.427 . S
C432 H423 0.930 . S
C432 C430 1.378 . S
C432 C433 1.367 . S
C433 C432 1.367 . S
C433 C435 1.433 . S
C434 C430 1.350 . S
C434 C431 1.463 . S
C434 N438 1.427 . S
C435 H425 0.929 . S
C435 C433 1.433 . S
C435 N438 1.384 . S
C436 H427 0.929 . S
C436 C428 1.378 . S
C436 C431 1.350 . S
C437 H424 0.929 . S
C437 C429 1.433 . S
C437 N439 1.384 . S
N438 C434 1.427 . S
N438 C435 1.384 . S
N439 C431 1.427 . S
N439 C437 1.384 . S
H440 C446 0.930 . S
H441 C450 0.930 . S
H442 C455 0.929 . S
H443 C453 0.929 . S
H444 C448 0.929 . S
H445 C454 0.929 . S
C446 H440 0.930 . S
C446 C447 1.367 . S
C446 C454 1.378 . S
C447 C446 1.367 . S
C447 C455 1.433 . S
C448 H444 0.929 . S
C448 C450 1.378 . S
C448 C452 1.350 . S
C449 C452 1.463 1_455 S
C449 C454 1.350 . S
C449 N457 1.427 . S
C450 H441 0.930 . S
C450 C448 1.378 . S
C450 C451 1.367 . S
C451 C450 1.367 . S
C451 C453 1.433 . S
C452 C448 1.350 . S
C452 C449 1.463 1_655 S
C452 N456 1.427 . S
C453 H443 0.929 . S
C453 C451 1.433 . S
C453 N456 1.384 . S
C454 H445 0.929 . S
C454 C446 1.378 . S
C454 C449 1.350 . S
C455 H442 0.929 . S
C455 C447 1.433 . S
C455 N457 1.384 . S
N456 C452 1.427 . S
N456 C453 1.384 . S
N457 C449 1.427 . S
N457 C455 1.384 . S
H458 C464 0.930 . S
H459 C468 0.930 . S
H460 C473 0.929 . S
H461 C471 0.929 . S
H462 C466 0.929 . S
H463 C472 0.929 . S
C464 H458 0.930 . S
C464 C465 1.367 . S
C464 C472 1.378 . S
C465 C464 1.367 . S
C465 C473 1.433 . S
C466 H462 0.929 . S
C466 C468 1.378 . S
C466 C470 1.350 . S
C467 C470 1.463 . S
C467 C472 1.350 . S
C467 N475 1.427 . S
C468 H459 0.930 . S
C468 C466 1.378 . S
C468 C469 1.367 . S
C469 C468 1.367 . S
C469 C471 1.433 . S
C470 C466 1.350 . S
C470 C467 1.463 . S
C470 N474 1.427 . S
C471 H461 0.929 . S
C471 C469 1.433 . S
C471 N474 1.384 . S
C472 H463 0.929 . S
C472 C464 1.378 . S
C472 C467 1.350 . S
C473 H460 0.929 . S
C473 C465 1.433 . S
C473 N475 1.384 . S
N474 C470 1.427 . S
N474 C471 1.384 . S
N475 C467 1.427 . S
N475 C473 1.384 . S
H476 C482 0.930 . S
H477 C486 0.930 . S
H478 C491 0.929 . S
H479 C489 0.929 . S
H480 C484 0.929 . S
H481 C490 0.929 . S
C482 H476 0.930 . S
C482 C483 1.367 . S
C482 C490 1.378 . S
C483 C482 1.367 . S
C483 C491 1.433 . S
C484 H480 0.929 . S
C484 C486 1.378 . S
C484 C488 1.350 . S
C485 C488 1.463 . S
C485 C490 1.350 . S
C485 N493 1.427 . S
C486 H477 0.930 . S
C486 C484 1.378 . S
C486 C487 1.367 . S
C487 C486 1.367 . S
C487 C489 1.433 . S
C488 C484 1.350 . S
C488 C485 1.463 . S
C488 N492 1.427 . S
C489 H479 0.929 . S
C489 C487 1.433 . S
C489 N492 1.384 . S
C490 H481 0.929 . S
C490 C482 1.378 . S
C490 C485 1.350 . S
C491 H478 0.929 . S
C491 C483 1.433 . S
C491 N493 1.384 . S
N492 C488 1.427 . S
N492 C489 1.384 . S
N493 C485 1.427 . S
N493 C491 1.384 . S
H494 C500 0.930 . S
H495 C504 0.930 . S
H496 C509 0.929 . S
H497 C507 0.929 . S
H498 C502 0.929 . S
H499 C508 0.929 . S
C500 H494 0.930 . S
C500 C501 1.367 . S
C500 C508 1.378 . S
C501 C500 1.367 . S
C501 C509 1.433 . S
C502 H498 0.929 . S
C502 C504 1.378 . S
C502 C506 1.350 . S
C503 C506 1.463 1_455 S
C503 C508 1.350 . S
C503 N511 1.427 . S
C504 H495 0.930 . S
C504 C502 1.378 . S
C504 C505 1.367 . S
C505 C504 1.367 . S
C505 C507 1.433 . S
C506 C502 1.350 . S
C506 C503 1.463 1_655 S
C506 N510 1.427 . S
C507 H497 0.929 . S
C507 C505 1.433 . S
C507 N510 1.384 . S
C508 H499 0.929 . S
C508 C500 1.378 . S
C508 C503 1.350 . S
C509 H496 0.929 . S
C509 C501 1.433 . S
C509 N511 1.384 . S
N510 C506 1.427 . S
N510 C507 1.384 . S
N511 C503 1.427 . S
N511 C509 1.384 . S
H512 C518 0.930 . S
H513 C522 0.930 . S
H514 C527 0.929 . S
H515 C525 0.929 . S
H516 C520 0.901 1_554 S
H517 C526 0.929 1_556 S
C518 H512 0.930 . S
C518 C519 1.367 . S
C518 C526 1.378 . S
C519 C518 1.367 . S
C519 C527 1.433 . S
C520 H516 0.901 1_556 S
C520 C522 1.378 . S
C520 C524 1.350 . S
C521 C524 1.463 1_554 S
C521 C526 1.350 . S
C521 N529 1.427 . S
C522 H513 0.930 . S
C522 C520 1.378 . S
C522 C523 1.367 . S
C523 C522 1.367 . S
C523 C525 1.433 . S
C524 C520 1.350 . S
C524 C521 1.463 1_556 S
C524 N528 1.427 . S
C525 H515 0.929 . S
C525 C523 1.433 . S
C525 N528 1.384 . S
C526 H517 0.929 1_554 S
C526 C518 1.378 . S
C526 C521 1.350 . S
C527 H514 0.929 . S
C527 C519 1.433 . S
C527 N529 1.384 . S
N528 C524 1.427 . S
N528 C525 1.384 . S
N529 C521 1.427 . S
N529 C527 1.384 . S
H530 C536 0.930 . S
H531 C540 0.930 . S
H532 C545 0.929 . S
H533 C543 0.929 . S
H534 C538 0.929 . S
H535 C544 0.929 . S
C536 H530 0.930 . S
C536 C537 1.367 . S
C536 C544 1.378 . S
C537 C536 1.367 . S
C537 C545 1.433 . S
C538 H534 0.929 . S
C538 C540 1.378 . S
C538 C542 1.350 . S
C539 C542 1.463 . S
C539 C544 1.350 . S
C539 N547 1.427 . S
C540 H531 0.930 . S
C540 C538 1.378 . S
C540 C541 1.367 . S
C541 C540 1.367 . S
C541 C543 1.433 . S
C542 C538 1.350 . S
C542 C539 1.463 . S
C542 N546 1.427 . S
C543 H533 0.929 . S
C543 C541 1.433 . S
C543 N546 1.384 . S
C544 H535 0.929 . S
C544 C536 1.378 . S
C544 C539 1.350 . S
C545 H532 0.929 . S
C545 C537 1.433 . S
C545 N547 1.384 . S
N546 C542 1.427 . S
N546 C543 1.384 . S
N547 C539 1.427 . S
N547 C545 1.384 . S
H548 C554 0.930 . S
H549 C558 0.930 . S
H550 C563 0.929 . S
H551 C561 0.929 . S
H552 C556 0.929 . S
H553 C562 0.929 . S
C554 H548 0.930 . S
C554 C555 1.367 . S
C554 C562 1.378 . S
C555 C554 1.367 . S
C555 C563 1.433 . S
C556 H552 0.929 . S
C556 C558 1.378 . S
C556 C560 1.350 . S
C557 C560 1.463 . S
C557 C562 1.350 . S
C557 N565 1.427 . S
C558 H549 0.930 . S
C558 C556 1.378 . S
C558 C559 1.367 . S
C559 C558 1.367 . S
C559 C561 1.433 . S
C560 C556 1.350 . S
C560 C557 1.463 . S
C560 N564 1.427 . S
C561 H551 0.929 . S
C561 C559 1.433 . S
C561 N564 1.384 . S
C562 H553 0.929 . S
C562 C554 1.378 . S
C562 C557 1.350 . S
C563 H550 0.929 . S
C563 C555 1.433 . S
C563 N565 1.384 . S
N564 C560 1.427 . S
N564 C561 1.384 . S
N565 C557 1.427 . S
N565 C563 1.384 . S
H566 C572 0.930 . S
H567 C576 0.930 . S
H568 C581 0.929 . S
H569 C579 0.929 . S
H570 C574 0.929 . S
H571 C580 0.929 . S
C572 H566 0.930 . S
C572 C573 1.367 . S
C572 C580 1.378 . S
C573 C572 1.367 . S
C573 C581 1.433 . S
C574 H570 0.929 . S
C574 C576 1.378 . S
C574 C578 1.350 . S
C575 C578 1.463 . S
C575 C580 1.350 . S
C575 N583 1.427 . S
C576 H567 0.930 . S
C576 C574 1.378 . S
C576 C577 1.367 . S
C577 C576 1.367 . S
C577 C579 1.433 . S
C578 C574 1.350 . S
C578 C575 1.463 . S
C578 N582 1.427 . S
C579 H569 0.929 . S
C579 C577 1.433 . S
C579 N582 1.384 . S
C580 H571 0.929 . S
C580 C572 1.378 . S
C580 C575 1.350 . S
C581 H568 0.929 . S
C581 C573 1.433 . S
C581 N583 1.384 . S
N582 C578 1.427 . S
N582 C579 1.384 . S
N583 C575 1.427 . S
N583 C581 1.384 . S
H584 C590 0.930 . S
H585 C594 0.930 . S
H586 C599 0.929 . S
H587 C597 0.929 . S
H588 C592 0.929 . S
H589 C598 0.929 . S
C590 H584 0.930 . S
C590 C591 1.367 . S
C590 C598 1.378 . S
C591 C590 1.367 . S
C591 C599 1.433 . S
C592 H588 0.929 . S
C592 C594 1.378 . S
C592 C596 1.350 . S
C593 C596 1.463 1_556 S
C593 C598 1.350 . S
C593 N601 1.427 . S
C594 H585 0.930 . S
C594 C592 1.378 . S
C594 C595 1.367 . S
C595 C594 1.367 . S
C595 C597 1.433 . S
C596 C592 1.350 . S
C596 C593 1.463 1_554 S
C596 N600 1.427 . S
C597 H587 0.929 . S
C597 C595 1.433 . S
C597 N600 1.384 . S
C598 H589 0.929 . S
C598 C590 1.378 . S
C598 C593 1.350 . S
C599 H586 0.929 . S
C599 C591 1.433 . S
C599 N601 1.384 . S
N600 C596 1.427 . S
N600 C597 1.384 . S
N601 C593 1.427 . S
N601 C599 1.384 . S
H602 C608 0.930 . S
H603 C612 0.930 . S
H604 C617 0.929 . S
H605 C615 0.929 . S
H606 C610 0.929 . S
H607 C616 0.929 . S
C608 H602 0.930 . S
C608 C609 1.367 . S
C608 C616 1.378 . S
C609 C608 1.367 . S
C609 C617 1.433 . S
C610 H606 0.929 . S
C610 C612 1.378 . S
C610 C614 1.350 . S
C611 C614 1.463 . S
C611 C616 1.350 . S
C611 N619 1.427 . S
C612 H603 0.930 . S
C612 C610 1.378 . S
C612 C613 1.367 . S
C613 C612 1.367 . S
C613 C615 1.433 . S
C614 C610 1.350 . S
C614 C611 1.463 . S
C614 N618 1.427 . S
C615 H605 0.929 . S
C615 C613 1.433 . S
C615 N618 1.384 . S
C616 H607 0.929 . S
C616 C608 1.378 . S
C616 C611 1.350 . S
C617 H604 0.929 . S
C617 C609 1.433 . S
C617 N619 1.384 . S
N618 C614 1.427 . S
N618 C615 1.384 . S
N619 C611 1.427 . S
N619 C617 1.384 . S
H620 C626 0.930 . S
H621 C630 0.930 . S
H622 C635 0.929 . S
H623 C633 0.929 . S
H624 C628 0.929 . S
H625 C634 0.929 . S
C626 H620 0.930 . S
C626 C627 1.367 . S
C626 C634 1.378 . S
C627 C626 1.367 . S
C627 C635 1.433 . S
C628 H624 0.929 . S
C628 C630 1.378 . S
C628 C632 1.350 . S
C629 C632 1.463 . S
C629 C634 1.350 . S
C629 N637 1.427 . S
C630 H621 0.930 . S
C630 C628 1.378 . S
C630 C631 1.367 . S
C631 C630 1.367 . S
C631 C633 1.433 . S
C632 C628 1.350 . S
C632 C629 1.463 . S
C632 N636 1.427 . S
C633 H623 0.929 . S
C633 C631 1.433 . S
C633 N636 1.384 . S
C634 H625 0.929 . S
C634 C626 1.378 . S
C634 C629 1.350 . S
C635 H622 0.929 . S
C635 C627 1.433 . S
C635 N637 1.384 . S
N636 C632 1.427 . S
N636 C633 1.384 . S
N637 C629 1.427 . S
N637 C635 1.384 . S
H638 C644 0.930 . S
H639 C648 0.930 . S
H640 C653 0.929 . S
H641 C651 0.929 . S
H642 C646 0.929 . S
H643 C652 0.929 . S
C644 H638 0.930 . S
C644 C645 1.367 . S
C644 C652 1.378 . S
C645 C644 1.367 . S
C645 C653 1.433 . S
C646 H642 0.929 . S
C646 C648 1.378 . S
C646 C650 1.350 . S
C647 C650 1.463 . S
C647 C652 1.350 . S
C647 N655 1.427 . S
C648 H639 0.930 . S
C648 C646 1.378 . S
C648 C649 1.367 . S
C649 C648 1.367 . S
C649 C651 1.433 . S
C650 C646 1.350 . S
C650 C647 1.463 . S
C650 N654 1.427 . S
C651 H641 0.929 . S
C651 C649 1.433 . S
C651 N654 1.384 . S
C652 H643 0.929 . S
C652 C644 1.378 . S
C652 C647 1.350 . S
C653 H640 0.929 . S
C653 C645 1.433 . S
C653 N655 1.384 . S
N654 C650 1.427 . S
N654 C651 1.384 . S
N655 C647 1.427 . S
N655 C653 1.384 . S
H656 C662 0.930 . S
H657 C666 0.930 1_545 S
H658 C671 0.929 . S
H659 C669 0.929 . S
H660 C664 0.929 . S
H661 C670 0.958 . S
C662 H656 0.930 . S
C662 C663 1.367 . S
C662 C670 1.363 1_545 S
C663 C662 1.367 . S
C663 C671 1.433 . S
C664 H660 0.929 . S
C664 C666 1.378 1_545 S
C664 C668 1.350 1_545 S
C665 C668 1.463 1_545 S
C665 C670 1.336 1_545 S
C665 N673 1.427 . S
C666 H657 0.930 1_565 S
C666 C664 1.378 1_565 S
C666 C667 1.367 . S
C667 C666 1.367 . S
C667 C669 1.433 . S
C668 C664 1.350 1_565 S
C668 C665 1.463 1_565 S
C668 N672 1.427 . S
C669 H659 0.929 . S
C669 C667 1.433 . S
C669 N672 1.384 . S
C670 H661 0.958 . S
C670 C662 1.363 1_565 S
C670 C665 1.336 1_565 S
C671 H658 0.929 . S
C671 C663 1.433 . S
C671 N673 1.384 . S
N672 C668 1.427 . S
N672 C669 1.384 . S
N673 C665 1.427 . S
N673 C671 1.384 . S
H674 C680 0.930 . S
H675 C684 0.930 . S
H676 C689 0.929 . S
H677 C687 0.929 . S
H678 C682 0.929 . S
H679 C688 0.929 . S
C680 H674 0.930 . S
C680 C681 1.367 . S
C680 C688 1.378 . S
C681 C680 1.367 . S
C681 C689 1.433 . S
C682 H678 0.929 . S
C682 C684 1.378 . S
C682 C686 1.350 . S
C683 C686 1.463 . S
C683 C688 1.350 . S
C683 N691 1.427 . S
C684 H675 0.930 . S
C684 C682 1.378 . S
C684 C685 1.367 . S
C685 C684 1.367 . S
C685 C687 1.433 . S
C686 C682 1.350 . S
C686 C683 1.463 . S
C686 N690 1.427 . S
C687 H677 0.929 . S
C687 C685 1.433 . S
C687 N690 1.384 . S
C688 H679 0.929 . S
C688 C680 1.378 . S
C688 C683 1.350 . S
C689 H676 0.929 . S
C689 C681 1.433 . S
C689 N691 1.384 . S
N690 C686 1.427 . S
N690 C687 1.384 . S
N691 C683 1.427 . S
N691 C689 1.384 . S
H692 C698 0.930 . S
H693 C702 0.943 . S
H694 C707 0.929 . S
H695 C705 0.929 . S
H696 C700 0.929 . S
H697 C706 0.929 . S
C698 H692 0.930 . S
C698 C699 1.367 . S
C698 C706 1.378 1_545 S
C699 C698 1.367 . S
C699 C707 1.433 . S
C700 H696 0.929 . S
C700 C702 1.378 1_545 S
C700 C704 1.350 1_545 S
C701 C704 1.463 1_546 S
C701 C706 1.350 1_545 S
C701 N709 1.427 . S
C702 H693 0.943 . S
C702 C700 1.378 1_565 S
C702 C703 1.367 . S
C703 C702 1.367 . S
C703 C705 1.433 . S
C704 C700 1.350 1_565 S
C704 C701 1.463 1_564 S
C704 N708 1.427 . S
C705 H695 0.929 . S
C705 C703 1.433 . S
C705 N708 1.384 . S
C706 H697 0.929 . S
C706 C698 1.378 1_565 S
C706 C701 1.350 1_565 S
C707 H694 0.929 . S
C707 C699 1.433 . S
C707 N709 1.384 . S
N708 C704 1.427 . S
N708 C705 1.384 . S
N709 C701 1.427 . S
N709 C707 1.384 . S
H710 C716 0.930 . S
H711 C720 0.930 . S
H712 C725 0.929 . S
H713 C723 0.929 . S
H714 C718 0.929 . S
H715 C724 0.929 . S
C716 H710 0.930 . S
C716 C717 1.367 . S
C716 C724 1.378 . S
C717 C716 1.367 . S
C717 C725 1.433 . S
C718 H714 0.929 . S
C718 C720 1.378 . S
C718 C722 1.350 . S
C719 C722 1.463 . S
C719 C724 1.350 . S
C719 N727 1.427 . S
C720 H711 0.930 . S
C720 C718 1.378 . S
C720 C721 1.367 . S
C721 C720 1.367 . S
C721 C723 1.433 . S
C722 C718 1.350 . S
C722 C719 1.463 . S
C722 N726 1.427 . S
C723 H713 0.929 . S
C723 C721 1.433 . S
C723 N726 1.384 . S
C724 H715 0.929 . S
C724 C716 1.378 . S
C724 C719 1.350 . S
C725 H712 0.929 . S
C725 C717 1.433 . S
C725 N727 1.384 . S
N726 C722 1.427 . S
N726 C723 1.384 . S
N727 C719 1.427 . S
N727 C725 1.384 . S
H728 C734 0.930 . S
H729 C738 0.930 . S
H730 C743 0.919 1_565 S
H731 C741 0.929 . S
H732 C736 0.929 . S
H733 C742 0.929 . S
C734 H728 0.930 . S
C734 C735 1.367 . S
C734 C742 1.378 . S
C735 C734 1.367 . S
C735 C743 1.456 . S
C736 H732 0.929 . S
C736 C738 1.378 . S
C736 C740 1.350 . S
C737 C740 1.448 1_545 S
C737 C742 1.376 . S
C737 N745 1.415 1_545 S
C738 H729 0.930 . S
C738 C736 1.378 . S
C738 C739 1.367 . S
C739 C738 1.367 . S
C739 C741 1.433 . S
C740 C736 1.350 . S
C740 C737 1.448 1_565 S
C740 N744 1.427 . S
C741 H731 0.929 . S
C741 C739 1.433 . S
C741 N744 1.384 . S
C742 H733 0.929 . S
C742 C734 1.378 . S
C742 C737 1.376 . S
C743 H730 0.919 1_545 S
C743 C735 1.456 . S
C743 N745 1.372 1_545 S
N744 C740 1.427 . S
N744 C741 1.384 . S
N745 C737 1.415 1_565 S
N745 C743 1.372 1_565 S
H746 C752 0.930 . S
H747 C756 0.930 . S
H748 C761 0.929 . S
H749 C759 0.929 . S
H750 C754 0.929 . S
H751 C760 0.929 . S
C752 H746 0.930 . S
C752 C753 1.367 . S
C752 C760 1.378 . S
C753 C752 1.367 . S
C753 C761 1.433 . S
C754 H750 0.929 . S
C754 C756 1.378 . S
C754 C758 1.350 . S
C755 C758 1.463 . S
C755 C760 1.350 . S
C755 N763 1.427 . S
C756 H747 0.930 . S
C756 C754 1.378 . S
C756 C757 1.367 . S
C757 C756 1.367 . S
C757 C759 1.433 . S
C758 C754 1.350 . S
C758 C755 1.463 . S
C758 N762 1.427 . S
C759 H749 0.929 . S
C759 C757 1.433 . S
C759 N762 1.384 . S
C760 H751 0.929 . S
C760 C752 1.378 . S
C760 C755 1.350 . S
C761 H748 0.929 . S
C761 C753 1.433 . S
C761 N763 1.384 . S
N762 C758 1.427 . S
N762 C759 1.384 . S
N763 C755 1.427 . S
N763 C761 1.384 . S
H764 C770 0.930 . S
H765 C774 0.930 . S
H766 C779 0.929 . S
H767 C777 0.929 . S
H768 C772 0.929 1_565 S
H769 C778 0.929 . S
C770 H764 0.930 . S
C770 C771 1.367 . S
C770 C778 1.378 1_565 S
C771 C770 1.367 . S
C771 C779 1.433 . S
C772 H768 0.929 1_545 S
C772 C774 1.378 . S
C772 C776 1.350 . S
C773 C776 1.463 1_564 S
C773 C778 1.350 1_565 S
C773 N781 1.427 . S
C774 H765 0.930 . S
C774 C772 1.378 . S
C774 C775 1.367 . S
C775 C774 1.367 . S
C775 C777 1.433 . S
C776 C772 1.350 . S
C776 C773 1.463 1_546 S
C776 N780 1.427 . S
C777 H767 0.929 . S
C777 C775 1.433 . S
C777 N780 1.384 . S
C778 H769 0.929 . S
C778 C770 1.378 1_545 S
C778 C773 1.350 1_545 S
C779 H766 0.929 . S
C779 C771 1.433 . S
C779 N781 1.384 . S
N780 C776 1.427 . S
N780 C777 1.384 . S
N781 C773 1.427 . S
N781 C779 1.384 . S
H782 C788 0.930 . S
H783 C792 0.930 . S
H784 C797 0.929 . S
H785 C795 0.929 . S
H786 C790 0.929 . S
H787 C796 0.929 . S
C788 H782 0.930 . S
C788 C789 1.367 . S
C788 C796 1.378 . S
C789 C788 1.367 . S
C789 C797 1.433 . S
C790 H786 0.929 . S
C790 C792 1.378 . S
C790 C794 1.350 . S
C791 C794 1.463 . S
C791 C796 1.350 . S
C791 N799 1.427 . S
C792 H783 0.930 . S
C792 C790 1.378 . S
C792 C793 1.367 . S
C793 C792 1.367 . S
C793 C795 1.433 . S
C794 C790 1.350 . S
C794 C791 1.463 . S
C794 N798 1.427 . S
C795 H785 0.929 . S
C795 C793 1.433 . S
C795 N798 1.384 . S
C796 H787 0.929 . S
C796 C788 1.378 . S
C796 C791 1.350 . S
C797 H784 0.929 . S
C797 C789 1.433 . S
C797 N799 1.384 . S
N798 C794 1.427 . S
N798 C795 1.384 . S
N799 C791 1.427 . S
N799 C797 1.384 . S
C231 C158 1.330 . S
C235 C12 1.360 . S
C249 C222 1.454 . S
C253 C18 1.414 . S
C267 C40 1.462 . S
C271 C130 1.428 . S
C285 C194 1.320 . S
C289 C54 1.327 . S
C303 C68 1.382 . S
C307 C186 1.345 . S
C321 C74 1.453 . S
C325 C166 1.489 . S
C339 C88 1.471 . S
C343 C214 1.484 . S
C357 C102 1.355 . S
C361 C138 1.379 . S
C375 C46 1.483 . S
C379 C116 1.473 . S
C393 C144 1.347 . S
C397 C26 1.382 . S
C411 C172 1.427 . S
C415 C82 1.462 . S
C429 C200 1.323 . S
C433 C110 1.357 . S
C447 C60 1.427 . S
C451 C124 1.453 . S
C465 C152 1.324 . S
C469 C96 1.324 . S
C483 C208 1.485 . S
C487 C32 1.461 . S
C501 C4 1.355 . S
C505 C180 1.379 . S
C519 C5 1.045 . S
C523 C61 1.050 . S
C537 C25 1.092 . S
C541 C81 1.109 . S
C555 C33 1.085 . S
C559 C95 1.151 . S
C573 C109 1.083 . S
C577 C47 1.006 . S
C591 C123 1.171 . S
C595 C179 1.166 . S
C609 C187 1.026 . S
C613 C131 1.029 . S
C627 C151 1.092 . S
C631 C207 1.119 . S
C645 C215 1.089 . S
C649 C159 1.095 . S
C663 C103 1.060 . S
C667 C19 1.059 . S
C681 C39 1.111 . S
C685 C67 1.098 . S
C699 C53 1.142 . S
C703 C75 1.070 . S
C717 C11 1.096 . S
C721 C89 1.033 . S
C735 C137 1.155 . S
C739 C221 1.164 . S
C753 C173 1.040 . S
C757 C145 1.011 . S
C771 C165 1.105 . S
C775 C193 1.109 . S
C789 C201 1.092 . S
C793 C117 1.082 . S
