# Generated by pormake.
# Topology npo, (4)-cn, num edge types: 1
# Building blocks:
#     Node 0, Type 0, BuildingBlock: TATPOV_clean_sbu_0, # of connection points: 4
#     Node 1, Type 0, BuildingBlock: TATPOV_clean_sbu_0, # of connection points: 4
#     Node 2, Type 0, BuildingBlock: TATPOV_clean_sbu_0, # of connection points: 4
#     Node 3, Type 0, BuildingBlock: TATPOV_clean_sbu_0, # of connection points: 4
#     Node 4, Type 0, BuildingBlock: TATPOV_clean_sbu_0, # of connection points: 4
#     Node 5, Type 0, BuildingBlock: TATPOV_clean_sbu_0, # of connection points: 4
#     Edge 6, Type (0, 0), BuildingBlock: MIFKUJ_clean_linker_0, # of connection points: 2
#     Edge 7, Type (0, 0), BuildingBlock: MIFKUJ_clean_linker_0, # of connection points: 2
#     Edge 8, Type (0, 0), BuildingBlock: MIFKUJ_clean_linker_0, # of connection points: 2
#     Edge 9, Type (0, 0), BuildingBlock: MIFKUJ_clean_linker_0, # of connection points: 2
#     Edge 10, Type (0, 0), BuildingBlock: MIFKUJ_clean_linker_0, # of connection points: 2
#     Edge 11, Type (0, 0), BuildingBlock: MIFKUJ_clean_linker_0, # of connection points: 2
#     Edge 12, Type (0, 0), BuildingBlock: MIFKUJ_clean_linker_0, # of connection points: 2
#     Edge 13, Type (0, 0), BuildingBlock: MIFKUJ_clean_linker_0, # of connection points: 2
#     Edge 14, Type (0, 0), BuildingBlock: MIFKUJ_clean_linker_0, # of connection points: 2
#     Edge 15, Type (0, 0), BuildingBlock: MIFKUJ_clean_linker_0, # of connection points: 2
#     Edge 16, Type (0, 0), BuildingBlock: MIFKUJ_clean_linker_0, # of connection points: 2
#     Edge 17, Type (0, 0), BuildingBlock: MIFKUJ_clean_linker_0, # of connection points: 2
# Relax obj value: 0.183
# Max RMSD: 0.201
# Mean RMSD: 0.192
data_MOF--net-npo--node1-TATPOV_clean_sbu_0--edge1-MIFKUJ_clean_linker_0
_symmetry_space_group_name_H-M    P1
_symmetry_Int_Tables_number       1
_symmetry_cell_setting            triclinic
loop_
_symmetry_equiv_pos_as_xyz
'x, y, z'
_cell_length_a     56.368621
_cell_length_b     53.152982
_cell_length_c     32.880937
_cell_angle_alpha  90.889702
_cell_angle_beta   89.972647
_cell_angle_gamma 121.9684
loop_
_atom_site_label
_atom_site_type_symbol
_atom_site_fract_x
_atom_site_fract_y
_atom_site_fract_z
_atom_type_partial_charge
Zn0 Zn 0.57158 0.16298 0.20649 0.0
Zn1 Zn 0.54238 0.12658 0.26296 0.0
O2 O 0.53566 0.16057 0.27475 0.0
O3 O 0.56718 0.19421 0.23418 0.0
O4 O 0.52157 0.09755 0.30772 0.0
O5 O 0.54468 0.13701 0.16317 0.0
O6 O 0.52381 0.10271 0.20948 0.0
C7 C 0.54908 0.187 0.26169 0.0
C8 C 0.60543 0.15075 0.2526 0.0
O9 O 0.58335 0.13866 0.27403 0.0
O10 O 0.60538 0.161 0.2182 0.0
C11 C 0.53135 0.10495 0.34373 0.0
O12 O 0.55395 0.13123 0.35028 0.0
C13 C 0.52632 0.11075 0.17253 0.0
Zn14 Zn 0.40115 0.53231 0.5939 0.0
Zn15 Zn 0.43056 0.53619 0.6609 0.0
O16 O 0.3894 0.50817 0.67648 0.0
O17 O 0.36504 0.50274 0.62118 0.0
O18 O 0.45078 0.53744 0.71207 0.0
O19 O 0.42272 0.51865 0.56175 0.0
O20 O 0.44715 0.52237 0.61622 0.0
C21 C 0.36595 0.49675 0.65803 0.0
C22 C 0.43398 0.59164 0.62886 0.0
O23 O 0.44121 0.57908 0.6544 0.0
O24 O 0.41692 0.57655 0.60035 0.0
C25 C 0.44605 0.5463 0.74551 0.0
O26 O 0.4283 0.55521 0.74593 0.0
C27 C 0.44188 0.51659 0.57833 0.0
Zn28 Zn 0.86531 0.4552 0.39716 0.0
Zn29 Zn 0.89266 0.4547 0.3293 0.0
O30 O 0.87707 0.48073 0.31476 0.0
O31 O 0.85426 0.48106 0.36888 0.0
O32 O 0.91165 0.45437 0.27778 0.0
O33 O 0.90222 0.47384 0.42748 0.0
O34 O 0.92322 0.47007 0.37319 0.0
C35 C 0.86225 0.48901 0.33278 0.0
C36 C 0.84431 0.39658 0.36236 0.0
O37 O 0.86319 0.41112 0.33621 0.0
O38 O 0.84073 0.41005 0.39159 0.0
C39 C 0.89759 0.44513 0.24479 0.0
O40 O 0.87094 0.43619 0.24516 0.0
C41 C 0.9238 0.47691 0.41062 0.0
Zn42 Zn 0.42594 0.84836 0.81372 0.0
Zn43 Zn 0.42806 0.88199 0.75497 0.0
O44 O 0.38677 0.84862 0.74966 0.0
O45 O 0.38707 0.81806 0.79381 0.0
O46 O 0.43504 0.91025 0.70966 0.0
O47 O 0.43155 0.87783 0.85667 0.0
O48 O 0.43703 0.90792 0.80738 0.0
C49 C 0.37442 0.82356 0.76691 0.0
C50 C 0.46423 0.85365 0.75637 0.0
O51 O 0.45364 0.86664 0.73855 0.0
O52 O 0.4579 0.84576 0.79285 0.0
C53 C 0.42294 0.90157 0.67514 0.0
O54 O 0.4042 0.87329 0.66895 0.0
C55 C 0.43659 0.90278 0.84525 0.0
Zn56 Zn 0.60743 0.47211 0.10505 0.0
Zn57 Zn 0.59865 0.49989 0.16696 0.0
O58 O 0.64117 0.51788 0.16871 0.0
O59 O 0.64892 0.49625 0.11724 0.0
O60 O 0.59168 0.51722 0.21688 0.0
O61 O 0.59035 0.48802 0.06782 0.0
O62 O 0.58275 0.51071 0.1181 0.0
C63 C 0.658 0.51429 0.14721 0.0
C64 C 0.57172 0.43214 0.16618 0.0
O65 O 0.57606 0.45619 0.18206 0.0
O66 O 0.58278 0.43254 0.13244 0.0
C67 C 0.60013 0.51239 0.25004 0.0
O68 O 0.61431 0.4992 0.24857 0.0
C69 C 0.58115 0.50391 0.08038 0.0
Zn70 Zn 0.13625 0.52892 0.89527 0.0
Zn71 Zn 0.10137 0.50387 0.83003 0.0
O72 O 0.12569 0.48591 0.82754 0.0
O73 O 0.15496 0.50648 0.87924 0.0
O74 O 0.07867 0.48842 0.77838 0.0
O75 O 0.1016 0.50939 0.92994 0.0
O76 O 0.07322 0.48998 0.87694 0.0
C77 C 0.14617 0.48917 0.84846 0.0
C78 C 0.1415 0.57179 0.83841 0.0
O79 O 0.12287 0.54842 0.81981 0.0
O80 O 0.15085 0.5699 0.87251 0.0
C81 C 0.09245 0.49903 0.74585 0.0
O82 O 0.11969 0.51734 0.74824 0.0
C83 C 0.07704 0.49411 0.91529 0.0
H84 H 0.58468 0.24642 0.26307 0.0
H85 H 0.57352 0.28413 0.27477 0.0
H86 H 0.48878 0.21658 0.30495 0.0
H87 H 0.50003 0.17824 0.29286 0.0
H88 H 0.48877 0.25014 0.24749 0.0
H89 H 0.52861 0.2717 0.37627 0.0
H90 H 0.56103 0.27907 0.43199 0.0
H91 H 0.62769 0.35487 0.37216 0.0
H92 H 0.59587 0.34773 0.31573 0.0
H93 H 0.55169 0.42433 0.24404 0.0
H94 H 0.53055 0.37882 0.28349 0.0
H95 H 0.53502 0.33156 0.17876 0.0
H96 H 0.5556 0.3765 0.13926 0.0
H97 H 0.55486 0.35094 0.30397 0.0
H98 H 0.48836 0.26194 0.17576 0.0
H99 H 0.45371 0.25413 0.12348 0.0
H100 H 0.43514 0.31183 0.1897 0.0
H101 H 0.46936 0.31965 0.2428 0.0
C102 C 0.56382 0.23956 0.27314 0.0
C103 C 0.54312 0.20941 0.27658 0.0
C104 C 0.55752 0.26122 0.28034 0.0
C105 C 0.53035 0.25329 0.29117 0.0
C106 C 0.50993 0.22321 0.29693 0.0
C107 C 0.51637 0.20137 0.29006 0.0
C108 C 0.52298 0.27622 0.28925 0.0
C109 C 0.50278 0.27208 0.26047 0.0
C110 C 0.54025 0.30451 0.3078 0.0
C111 C 0.55971 0.30919 0.34172 0.0
C112 C 0.55021 0.28988 0.37486 0.0
C113 C 0.5685 0.29402 0.40661 0.0
C114 C 0.59639 0.31745 0.40564 0.0
C115 C 0.60605 0.33678 0.37293 0.0
C116 C 0.58785 0.33275 0.34109 0.0
C117 C 0.54756 0.40406 0.22918 0.0
C118 C 0.55553 0.40407 0.18855 0.0
C119 C 0.53546 0.37807 0.2518 0.0
C120 C 0.53087 0.35165 0.23404 0.0
C121 C 0.53769 0.35144 0.19297 0.0
C122 C 0.54978 0.3773 0.17046 0.0
C123 C 0.52286 0.32529 0.25895 0.0
C124 C 0.54003 0.32883 0.29221 0.0
C125 C 0.50238 0.29636 0.24517 0.0
C126 C 0.48147 0.29136 0.2134 0.0
C127 C 0.47671 0.27274 0.17947 0.0
C128 C 0.45719 0.26838 0.14958 0.0
C129 C 0.44223 0.28247 0.15326 0.0
C130 C 0.44676 0.30095 0.18685 0.0
C131 C 0.46626 0.30539 0.21683 0.0
H132 H 0.42714 0.27908 0.13007 0.0
H133 H 0.61052 0.32061 0.43024 0.0
H134 H 0.3136 0.45843 0.62739 0.0
H135 H 0.2694 0.44022 0.66268 0.0
H136 H 0.31445 0.48021 0.77482 0.0
H137 H 0.35868 0.49753 0.74005 0.0
H138 H 0.26381 0.43135 0.79009 0.0
H139 H 0.30024 0.51981 0.71004 0.0
H140 H 0.31752 0.54888 0.64738 0.0
H141 H 0.23937 0.48875 0.58717 0.0
H142 H 0.22178 0.45909 0.64938 0.0
H143 H 0.1924 0.49369 0.88323 0.0
H144 H 0.22252 0.47843 0.85325 0.0
H145 H 0.16531 0.43798 0.75173 0.0
H146 H 0.13519 0.45353 0.78121 0.0
H147 H 0.21655 0.47797 0.72754 0.0
H148 H 0.17747 0.39581 0.81643 0.0
H149 H 0.16176 0.37017 0.88182 0.0
H150 H 0.24569 0.42153 0.92892 0.0
H151 H 0.26187 0.44781 0.86401 0.0
C152 C 0.31404 0.46257 0.65982 0.0
C153 C 0.33959 0.4799 0.68081 0.0
C154 C 0.28878 0.45216 0.67995 0.0
C155 C 0.2887 0.45958 0.7211 0.0
C156 C 0.31403 0.47437 0.743 0.0
C157 C 0.33932 0.48435 0.72303 0.0
C158 C 0.26316 0.45621 0.73948 0.0
C159 C 0.25339 0.44148 0.77652 0.0
C160 C 0.24938 0.46914 0.72145 0.0
C161 C 0.25984 0.48705 0.68414 0.0
C162 C 0.28682 0.51269 0.68333 0.0
C163 C 0.29666 0.52928 0.64792 0.0
C164 C 0.27958 0.52062 0.61327 0.0
C165 C 0.25259 0.49539 0.614 0.0
C166 C 0.24268 0.47869 0.64932 0.0
C167 C 0.18585 0.48095 0.85497 0.0
C168 C 0.16157 0.4752 0.83433 0.0
C169 C 0.20302 0.47203 0.83802 0.0
C170 C 0.19613 0.45699 0.80028 0.0
C171 C 0.17099 0.44955 0.7809 0.0
C172 C 0.15381 0.45849 0.7978 0.0
C173 C 0.21709 0.45321 0.77843 0.0
C174 C 0.22628 0.46699 0.74075 0.0
C175 C 0.23046 0.43978 0.79629 0.0
C176 C 0.22086 0.42392 0.83536 0.0
C177 C 0.19256 0.4018 0.84081 0.0
C178 C 0.18357 0.38712 0.87779 0.0
C179 C 0.2027 0.39425 0.90953 0.0
C180 C 0.23089 0.41603 0.90431 0.0
C181 C 0.23999 0.43079 0.8674 0.0
H182 H 0.1957 0.38286 0.93814 0.0
H183 H 0.28723 0.53349 0.58588 0.0
H184 H 0.65012 0.15601 0.21289 0.0
H185 H 0.69857 0.18475 0.23694 0.0
H186 H 0.67044 0.19438 0.35505 0.0
H187 H 0.62209 0.16438 0.33166 0.0
H188 H 0.71778 0.23899 0.25087 0.0
H189 H 0.72031 0.22234 0.42631 0.0
H190 H 0.70379 0.18107 0.47395 0.0
H191 H 0.70114 0.12448 0.37714 0.0
H192 H 0.71805 0.1655 0.329 0.0
H193 H 0.79817 0.35882 0.40695 0.0
H194 H 0.76464 0.30616 0.39295 0.0
H195 H 0.8155 0.30785 0.29372 0.0
H196 H 0.84889 0.36055 0.30697 0.0
H197 H 0.76417 0.25298 0.38465 0.0
H198 H 0.77178 0.27251 0.21378 0.0
H199 H 0.78797 0.31356 0.16563 0.0
H200 H 0.76871 0.36143 0.25215 0.0
H201 H 0.75209 0.32051 0.30052 0.0
C202 C 0.6543 0.16307 0.24454 0.0
C203 C 0.6325 0.15842 0.27029 0.0
C204 C 0.68198 0.17956 0.25826 0.0
C205 C 0.6883 0.19219 0.29764 0.0
C206 C 0.66627 0.18467 0.32471 0.0
C207 C 0.63852 0.16756 0.31124 0.0
C208 C 0.71675 0.21798 0.30713 0.0
C209 C 0.7283 0.24148 0.27963 0.0
C210 C 0.73031 0.22178 0.34502 0.0
C211 C 0.72033 0.19703 0.37394 0.0
C212 C 0.71638 0.20116 0.41519 0.0
C213 C 0.7069 0.17778 0.44229 0.0
C214 C 0.70137 0.15015 0.42856 0.0
C215 C 0.70535 0.14586 0.38771 0.0
C216 C 0.71484 0.16916 0.36048 0.0
C217 C 0.80246 0.3479 0.38252 0.0
C218 C 0.8259 0.36401 0.35753 0.0
C219 C 0.7834 0.31774 0.37484 0.0
C220 C 0.78748 0.30325 0.34207 0.0
C221 C 0.81188 0.31874 0.31895 0.0
C222 C 0.83086 0.34891 0.32644 0.0
C223 C 0.76439 0.27351 0.32864 0.0
C224 C 0.7539 0.24968 0.35543 0.0
C225 C 0.75169 0.26916 0.29 0.0
C226 C 0.76106 0.29364 0.26089 0.0
C227 C 0.77094 0.29177 0.22243 0.0
C228 C 0.78019 0.31501 0.19512 0.0
C229 C 0.77948 0.34014 0.20589 0.0
C230 C 0.76936 0.34201 0.2439 0.0
C231 C 0.76004 0.31881 0.27128 0.0
H232 H 0.7867 0.35813 0.18474 0.0
H233 H 0.69402 0.13208 0.44959 0.0
H234 H 0.4642 0.84717 0.67375 0.0
H235 H 0.47086 0.81071 0.63819 0.0
H236 H 0.50106 0.79472 0.74925 0.0
H237 H 0.49452 0.8311 0.78506 0.0
H238 H 0.52372 0.78453 0.67868 0.0
H239 H 0.43432 0.75895 0.73564 0.0
H240 H 0.39361 0.76413 0.74421 0.0
H241 H 0.3745 0.74613 0.61673 0.0
H242 H 0.41547 0.74144 0.60727 0.0
H243 H 0.46747 0.62997 0.68947 0.0
H244 H 0.48278 0.68214 0.69842 0.0
H245 H 0.44094 0.67831 0.58653 0.0
H246 H 0.42513 0.62598 0.57766 0.0
H247 H 0.42706 0.7018 0.64633 0.0
H248 H 0.51283 0.71773 0.59371 0.0
H249 H 0.55284 0.71108 0.58885 0.0
H250 H 0.5781 0.74523 0.71077 0.0
H251 H 0.538 0.75169 0.71661 0.0
C252 C 0.47346 0.83692 0.69023 0.0
C253 C 0.47811 0.84136 0.73247 0.0
C254 C 0.47717 0.81601 0.66983 0.0
C255 C 0.48572 0.79953 0.69143 0.0
C256 C 0.49422 0.80706 0.73216 0.0
C257 C 0.49037 0.82781 0.75263 0.0
C258 C 0.48043 0.77102 0.67466 0.0
C259 C 0.50265 0.7664 0.67141 0.0
C260 C 0.45289 0.74752 0.66499 0.0
C261 C 0.42821 0.7503 0.67063 0.0
C262 C 0.42161 0.75641 0.70936 0.0
C263 C 0.39847 0.75921 0.7144 0.0
C264 C 0.38153 0.75555 0.68102 0.0
C265 C 0.38769 0.74905 0.64254 0.0
C266 C 0.41089 0.74635 0.63731 0.0
C267 C 0.46176 0.64029 0.66651 0.0
C268 C 0.44494 0.62375 0.63296 0.0
C269 C 0.47071 0.67019 0.67153 0.0
C270 C 0.46326 0.68421 0.64289 0.0
C271 C 0.447 0.66794 0.60892 0.0
C272 C 0.43796 0.63802 0.60394 0.0
C273 C 0.47036 0.71504 0.6503 0.0
C274 C 0.44831 0.72003 0.65231 0.0
C275 C 0.498 0.73868 0.65914 0.0
C276 C 0.52228 0.73502 0.65567 0.0
C277 C 0.5268 0.72364 0.6196 0.0
C278 C 0.54952 0.71993 0.61665 0.0
C279 C 0.56797 0.72769 0.6495 0.0
C280 C 0.56378 0.73923 0.68534 0.0
C281 C 0.54108 0.74296 0.68847 0.0
H282 H 0.58554 0.72479 0.64716 0.0
H283 H 0.36358 0.75766 0.685 0.0
H284 H 0.70211 0.5239 0.10086 0.0
H285 H 0.74771 0.53523 0.1255 0.0
H286 H 0.72548 0.54484 0.24782 0.0
H287 H 0.68026 0.53462 0.22313 0.0
H288 H 0.78122 0.58049 0.23733 0.0
H289 H 0.71015 0.47736 0.21126 0.0
H290 H 0.67541 0.43492 0.16896 0.0
H291 H 0.73973 0.44937 0.08511 0.0
H292 H 0.77479 0.49218 0.12669 0.0
H293 H 0.83274 0.51252 0.36293 0.0
H294 H 0.80913 0.53187 0.32422 0.0
H295 H 0.84455 0.52196 0.21331 0.0
H296 H 0.8681 0.50225 0.25182 0.0
H297 H 0.78881 0.49302 0.20928 0.0
H298 H 0.86166 0.59073 0.24719 0.0
H299 H 0.8948 0.63119 0.29345 0.0
H300 H 0.82636 0.62522 0.35961 0.0
H301 H 0.79276 0.58441 0.31413 0.0
C302 C 0.70727 0.52928 0.13282 0.0
C303 C 0.68745 0.52784 0.16021 0.0
C304 C 0.73332 0.53574 0.14687 0.0
C305 C 0.73966 0.54006 0.18865 0.0
C306 C 0.72097 0.54141 0.21548 0.0
C307 C 0.69507 0.53548 0.20133 0.0
C308 C 0.76348 0.53871 0.20505 0.0
C309 C 0.78296 0.56142 0.23127 0.0
C310 C 0.76598 0.514 0.19661 0.0
C311 C 0.74499 0.48815 0.17177 0.0
C312 C 0.71683 0.47159 0.18366 0.0
C313 C 0.6971 0.44747 0.15984 0.0
C314 C 0.70535 0.43951 0.1243 0.0
C315 C 0.73336 0.45561 0.11259 0.0
C316 C 0.75317 0.4798 0.13626 0.0
C317 C 0.83603 0.51502 0.3304 0.0
C318 C 0.85203 0.50548 0.3104 0.0
C319 C 0.82267 0.52635 0.30834 0.0
C320 C 0.82516 0.52848 0.26588 0.0
C321 C 0.84242 0.52057 0.24609 0.0
C322 C 0.85587 0.5093 0.26815 0.0
C323 C 0.80655 0.53467 0.24201 0.0
C324 C 0.78773 0.5126 0.21457 0.0
C325 C 0.80454 0.55975 0.24989 0.0
C326 C 0.82467 0.58436 0.27733 0.0
C327 C 0.85365 0.59788 0.27178 0.0
C328 C 0.87253 0.62091 0.29784 0.0
C329 C 0.86269 0.63074 0.32949 0.0
C330 C 0.83395 0.61758 0.33508 0.0
C331 C 0.81498 0.59453 0.30912 0.0
H332 H 0.87734 0.64857 0.34963 0.0
H333 H 0.69004 0.42083 0.1059 0.0
H334 H 0.34857 0.76507 0.78271 0.0
H335 H 0.30023 0.72658 0.76976 0.0
H336 H 0.28573 0.78995 0.71286 0.0
H337 H 0.33483 0.8293 0.72625 0.0
H338 H 0.24593 0.75683 0.76905 0.0
H339 H 0.28143 0.73594 0.65364 0.0
H340 H 0.31524 0.73037 0.61312 0.0
H341 H 0.2997 0.65672 0.68557 0.0
H342 H 0.2662 0.66213 0.72705 0.0
H343 H 0.13697 0.58225 0.75838 0.0
H344 H 0.16503 0.62917 0.72295 0.0
H345 H 0.20341 0.67337 0.837 0.0
H346 H 0.17562 0.62677 0.87247 0.0
H347 H 0.22022 0.65684 0.71917 0.0
H348 H 0.22462 0.74393 0.83705 0.0
H349 H 0.19124 0.75064 0.87678 0.0
H350 H 0.12511 0.69277 0.79368 0.0
H351 H 0.15815 0.68604 0.753 0.0
C352 C 0.33528 0.77095 0.76718 0.0
C353 C 0.34544 0.80029 0.75584 0.0
C354 C 0.30765 0.74879 0.75936 0.0
C355 C 0.28948 0.7553 0.73978 0.0
C356 C 0.29954 0.78447 0.72769 0.0
C357 C 0.3275 0.80684 0.73533 0.0
C358 C 0.25959 0.73158 0.73588 0.0
C359 C 0.23999 0.73503 0.75745 0.0
C360 C 0.2516 0.70349 0.71905 0.0
C361 C 0.27112 0.69939 0.69341 0.0
C362 C 0.28521 0.71855 0.66099 0.0
C363 C 0.30436 0.71545 0.63786 0.0
C364 C 0.30955 0.69316 0.64671 0.0
C365 C 0.29557 0.67391 0.67866 0.0
C366 C 0.27642 0.67693 0.70193 0.0
C367 C 0.15086 0.60214 0.77606 0.0
C368 C 0.15436 0.60076 0.81821 0.0
C369 C 0.16685 0.62892 0.75572 0.0
C370 C 0.18619 0.65481 0.77729 0.0
C371 C 0.18828 0.65381 0.81974 0.0
C372 C 0.17256 0.62706 0.84 0.0
C373 C 0.20753 0.68164 0.75574 0.0
C374 C 0.22554 0.67876 0.72927 0.0
C375 C 0.21385 0.71027 0.76755 0.0
C376 C 0.19394 0.71447 0.79191 0.0
C377 C 0.20303 0.73282 0.82698 0.0
C378 C 0.18413 0.73658 0.84975 0.0
C379 C 0.15607 0.72213 0.83777 0.0
C380 C 0.14684 0.7039 0.80297 0.0
C381 C 0.16565 0.70008 0.78008 0.0
H382 H 0.14148 0.72506 0.85546 0.0
H383 H 0.32445 0.69085 0.62884 0.0
H384 H 0.42949 0.89523 0.92692 0.0
H385 H 0.43843 0.93218 0.97914 0.0
H386 H 0.46334 0.99851 0.88728 0.0
H387 H 0.45449 0.9614 0.83428 0.0
H388 H 0.50098 0.01691 0.94986 0.0
H389 H 0.40289 0.97389 0.93602 0.0
H390 H 0.35325 0.93377 0.93108 0.0
H391 H 0.3573 0.90606 0.0515 0.0
H392 H 0.4071 0.94575 0.05696 0.0
H393 H 0.51986 0.12355 0.09515 0.0
H394 H 0.49824 0.0891 0.03776 0.0
H395 H 0.47335 0.01541 0.11705 0.0
H396 H 0.49481 0.04991 0.17517 0.0
H397 H 0.43322 0.00351 0.05683 0.0
H398 H 0.53222 0.04232 0.0667 0.0
H399 H 0.58207 0.08191 0.07176 0.0
H400 H 0.576 0.11684 0.95803 0.0
H401 H 0.52596 0.07767 0.95259 0.0
C402 C 0.43674 0.91762 0.91761 0.0
C403 C 0.44141 0.92542 0.87639 0.0
C404 C 0.4416 0.93866 0.94756 0.0
C405 C 0.45117 0.96796 0.93703 0.0
C406 C 0.45575 0.97591 0.89593 0.0
C407 C 0.45072 0.95473 0.86576 0.0
C408 C 0.45824 0.99048 0.96952 0.0
C409 C 0.48599 0.01437 0.9727 0.0
C410 C 0.43881 0.98664 -0.00013 0.0
C411 C 0.40883 0.9627 0.99677 0.0
C412 C 0.39328 0.9591 0.96133 0.0
C413 C 0.36508 0.93645 0.95846 0.0
C414 C 0.35214 0.91734 0.99092 0.0
C415 C 0.36735 0.92087 0.02636 0.0
C416 C 0.39556 0.94347 0.02938 0.0
C417 C 0.50946 0.09999 0.10061 0.0
C418 C 0.50944 0.08943 0.1396 0.0
C419 C 0.49709 0.08036 0.06774 0.0
C420 C 0.48471 0.04982 0.07309 0.0
C421 C 0.48295 0.03898 0.11237 0.0
C422 C 0.49524 0.05868 0.14548 0.0
C423 C 0.47594 0.02965 0.0372 0.0
C424 C 0.448 0.00623 0.03355 0.0
C425 C 0.49518 0.03381 0.00636 0.0
C426 C 0.52529 0.05728 0.00947 0.0
C427 C 0.54146 0.05859 0.04294 0.0
C428 C 0.56976 0.08093 0.04585 0.0
C429 C 0.58218 0.10193 0.0153 0.0
C430 C 0.56634 0.10059 0.98171 0.0
C431 C 0.53802 0.07832 0.97869 0.0
H432 H 0.60409 0.11921 0.0176 0.0
H433 H 0.33031 0.89982 0.98864 0.0
H434 H 0.61315 0.50245 0.3257 0.0
H435 H 0.59276 0.50429 0.39043 0.0
H436 H 0.54509 0.53464 0.32891 0.0
H437 H 0.56563 0.53325 0.26412 0.0
H438 H 0.56453 0.56266 0.40151 0.0
H439 H 0.51687 0.46187 0.34858 0.0
H440 H 0.51464 0.41669 0.32344 0.0
H441 H 0.54682 0.40906 0.43784 0.0
H442 H 0.5497 0.45452 0.46342 0.0
H443 H 0.43579 0.50394 0.4971 0.0
H444 H 0.46924 0.50271 0.45164 0.0
H445 H 0.52222 0.51436 0.55377 0.0
H446 H 0.4889 0.51623 0.60008 0.0
H447 H 0.50701 0.46672 0.47154 0.0
H448 H 0.55271 0.56889 0.52439 0.0
H449 H 0.55136 0.61268 0.54655 0.0
H450 H 0.51952 0.61565 0.42927 0.0
H451 H 0.52028 0.57156 0.40668 0.0
C452 C 0.59864 0.50995 0.32599 0.0
C453 C 0.59077 0.51741 0.28968 0.0
C454 C 0.58696 0.51089 0.36302 0.0
C455 C 0.56709 0.51913 0.36434 0.0
C456 C 0.56035 0.52814 0.32852 0.0
C457 C 0.57206 0.52727 0.29149 0.0
C458 C 0.55191 0.51666 0.40233 0.0
C459 C 0.55221 0.54174 0.41698 0.0
C460 C 0.536 0.4894 0.42285 0.0
C461 C 0.53382 0.46179 0.40774 0.0
C462 C 0.52365 0.45067 0.36827 0.0
C463 C 0.52226 0.42501 0.35395 0.0
C464 C 0.53066 0.41006 0.37898 0.0
C465 C 0.54038 0.4207 0.41845 0.0
C466 C 0.5419 0.44641 0.43288 0.0
C467 C 0.45428 0.50576 0.51023 0.0
C468 C 0.45984 0.51058 0.55227 0.0
C469 C 0.47332 0.50495 0.48411 0.0
C470 C 0.49814 0.50864 0.49944 0.0
C471 C 0.50306 0.51147 0.54155 0.0
C472 C 0.48405 0.51255 0.56788 0.0
C473 C 0.5198 0.51269 0.47041 0.0
C474 C 0.52031 0.48785 0.45697 0.0
C475 C 0.53637 0.54007 0.45081 0.0
C476 C 0.53632 0.56682 0.46401 0.0
C477 C 0.5452 0.57875 0.50347 0.0
C478 C 0.54459 0.60364 0.51608 0.0
C479 C 0.5353 0.6169 0.48937 0.0
C480 C 0.52669 0.60534 0.44995 0.0
C481 C 0.52723 0.58043 0.43721 0.0
H482 H 0.53482 0.63616 0.49919 0.0
H483 H 0.52959 0.39021 0.36783 0.0
H484 H 0.07881 0.49217 0.99769 0.0
H485 H 0.04037 0.47459 0.04507 0.0
H486 H 0.98229 0.45049 0.94507 0.0
H487 H 0.0211 0.46841 0.89681 0.0
H488 H 0.97474 0.48196 0.00576 0.0
H489 H 0.97979 0.39613 0.99725 0.0
H490 H 0.00216 0.36692 0.99494 0.0
H491 H 0.03407 0.39646 0.11626 0.0
H492 H 0.01225 0.42621 0.11912 0.0
H493 H 0.8744 0.42951 0.16831 0.0
H494 H 0.89726 0.42926 0.10505 0.0
H495 H 0.97394 0.45913 0.17146 0.0
H496 H 0.95133 0.45927 0.23465 0.0
H497 H 0.96183 0.4141 0.11733 0.0
H498 H 0.96396 0.50716 0.11829 0.0
H499 H 0.94203 0.53685 0.11969 0.0
H500 H 0.89563 0.49225 0.01088 0.0
H501 H 0.91706 0.46202 0.00916 0.0
C502 C 0.05789 0.48297 0.98554 0.0
C503 C 0.05305 0.48172 0.9434 0.0
C504 C 0.03587 0.47274 0.01275 0.0
C505 C 0.00843 0.46087 0.99859 0.0
C506 C 0.00333 0.45941 0.95655 0.0
C507 C 0.02548 0.46957 0.92909 0.0
C508 C 0.9857 0.45158 0.02849 0.0
C509 C 0.97131 0.4665 0.02957 0.0
C510 C 0.98139 0.43156 0.05966 0.0
C511 C 0.99443 0.41351 0.05832 0.0
C512 C 0.99172 0.39655 0.02336 0.0
C513 C 0.00429 0.37987 0.02196 0.0
C514 C 0.01955 0.37985 0.05542 0.0
C515 C 0.02222 0.39648 0.09037 0.0
C516 C 0.00971 0.41321 0.09193 0.0
C517 C 0.89612 0.43596 0.16945 0.0
C518 C 0.91109 0.44453 0.2065 0.0
C519 C 0.90913 0.43583 0.13326 0.0
C520 C 0.93731 0.4443 0.13357 0.0
C521 C 0.95214 0.45243 0.17059 0.0
C522 C 0.93921 0.45263 0.20667 0.0
C523 C 0.9519 0.44546 0.09549 0.0
C524 C 0.96469 0.42893 0.09291 0.0
C525 C 0.95459 0.46385 0.06288 0.0
C526 C 0.94182 0.48209 0.06389 0.0
C527 C 0.94891 0.50352 0.09487 0.0
C528 C 0.93661 0.52048 0.09568 0.0
C529 C 0.91737 0.51637 0.06547 0.0
C530 C 0.91048 0.49536 0.03431 0.0
C531 C 0.9227 0.47832 0.03339 0.0
H532 H 0.90787 0.52952 0.06615 0.0
H533 H 0.02927 0.36693 0.05427 0.0
H534 H 0.48203 0.05089 0.34291 0.0
H535 H 0.46149 0.01599 0.39891 0.0
H536 H 0.53065 0.07659 0.47687 0.0
H537 H 0.55131 0.11152 0.42124 0.0
H538 H 0.51916 0.01986 0.48092 0.0
H539 H 0.46873 0.06956 0.48856 0.0
H540 H 0.43961 0.08774 0.46232 0.0
H541 H 0.37353 0.99835 0.43407 0.0
H542 H 0.40244 0.97966 0.45963 0.0
H543 H 0.46738 0.95881 0.67345 0.0
H544 H 0.48346 0.9925 0.6161 0.0
H545 H 0.41423 0.92622 0.54308 0.0
H546 H 0.39799 0.89218 0.60033 0.0
H547 H 0.42432 0.9839 0.53467 0.0
H548 H 0.4744 0.93415 0.52822 0.0
H549 H 0.50344 0.91596 0.55474 0.0
H550 H 0.57022 0.00548 0.58046 0.0
H551 H 0.54139 0.02419 0.55467 0.0
C552 C 0.49281 0.05683 0.37202 0.0
C553 C 0.5183 0.08401 0.37763 0.0
C554 C 0.481 0.03691 0.40401 0.0
C555 C 0.49449 0.04378 0.4421 0.0
C556 C 0.51991 0.07086 0.44772 0.0
C557 C 0.53163 0.09084 0.4159 0.0
C558 C 0.48247 0.02256 0.47596 0.0
C559 C 0.49856 0.01228 0.49298 0.0
C560 C 0.4553 0.01208 0.49096 0.0
C561 C 0.43787 0.02324 0.47558 0.0
C562 C 0.44809 0.0538 0.4764 0.0
C563 C 0.4316 0.06419 0.46173 0.0
C564 C 0.40477 0.04422 0.44642 0.0
C565 C 0.39434 0.0138 0.44587 0.0
C566 C 0.41076 0.00329 0.46047 0.0
C567 C 0.45541 0.95142 0.64533 0.0
C568 C 0.43148 0.92273 0.64138 0.0
C569 C 0.46469 0.97069 0.61255 0.0
C570 C 0.45018 0.96172 0.57527 0.0
C571 C 0.42574 0.93351 0.5716 0.0
C572 C 0.41656 0.91409 0.6043 0.0
C573 C 0.46116 0.98152 0.53982 0.0
C574 C 0.44488 0.99145 0.52248 0.0
C575 C 0.48817 0.9917 0.52445 0.0
C576 C 0.50562 0.98055 0.5399 0.0
C577 C 0.49518 0.94995 0.53987 0.0
C578 C 0.51162 0.93954 0.55471 0.0
C579 C 0.53863 0.95955 0.56938 0.0
C580 C 0.54928 0.99001 0.56915 0.0
C581 C 0.5329 0.00053 0.5544 0.0
H582 H 0.55134 0.95145 0.58084 0.0
H583 H 0.39203 0.05231 0.43509 0.0
H584 H 0.48246 0.52769 0.7552 0.0
H585 H 0.50244 0.52338 0.81853 0.0
H586 H 0.45967 0.55776 0.88598 0.0
H587 H 0.43967 0.56242 0.82245 0.0
H588 H 0.51384 0.58118 0.91385 0.0
H589 H 0.43338 0.48581 0.88754 0.0
H590 H 0.40073 0.44111 0.84708 0.0
H591 H 0.46515 0.42209 0.82879 0.0
H592 H 0.49834 0.46695 0.86864 0.0
H593 H 0.55 0.52932 0.09499 0.0
H594 H 0.52425 0.5397 0.04444 0.0
H595 H 0.55606 0.50959 0.94849 0.0
H596 H 0.58142 0.49911 0.99811 0.0
H597 H 0.49951 0.48294 0.94429 0.0
H598 H 0.58113 0.58283 0.96473 0.0
H599 H 0.61275 0.62738 0.00629 0.0
H600 H 0.54395 0.63681 0.03837 0.0
H601 H 0.51185 0.59207 0.99737 0.0
C602 C 0.47736 0.53448 0.78341 0.0
C603 C 0.45929 0.54518 0.78377 0.0
C604 C 0.48874 0.53193 0.81963 0.0
C605 C 0.4822 0.53984 0.85701 0.0
C606 C 0.46489 0.55143 0.85747 0.0
C607 C 0.45343 0.55398 0.82114 0.0
C608 C 0.49304 0.53516 0.89539 0.0
C609 C 0.51033 0.55961 0.92098 0.0
C610 C 0.48832 0.50699 0.90477 0.0
C611 C 0.46841 0.47988 0.88088 0.0
C612 C 0.44066 0.47222 0.87465 0.0
C613 C 0.42204 0.44683 0.85185 0.0
C614 C 0.43087 0.4288 0.83532 0.0
C615 C 0.45834 0.43609 0.84161 0.0
C616 C 0.47706 0.46148 0.86434 0.0
C617 C 0.55171 0.52525 0.06307 0.0
C618 C 0.56758 0.51315 0.05064 0.0
C619 C 0.53701 0.53119 0.03427 0.0
C620 C 0.53814 0.52524 0.99275 0.0
C621 C 0.55468 0.51409 0.98039 0.0
C622 C 0.56923 0.50815 0.0089 0.0
C623 C 0.52142 0.5292 0.96164 0.0
C624 C 0.50274 0.50446 0.93754 0.0
C625 C 0.52472 0.557 0.95397 0.0
C626 C 0.54405 0.58392 0.97842 0.0
C627 C 0.57271 0.59426 0.98093 0.0
C628 C 0.59072 0.61957 0.00432 0.0
C629 C 0.58035 0.63486 0.02507 0.0
C630 C 0.55195 0.62491 0.02236 0.0
C631 C 0.53384 0.5996 0.99904 0.0
H632 H 0.59433 0.65445 0.04316 0.0
H633 H 0.41643 0.40915 0.81768 0.0
H634 H 0.04127 0.45181 0.72294 0.0
H635 H 0.01626 0.44513 0.65893 0.0
H636 H 0.08525 0.52899 0.61764 0.0
H637 H 0.11081 0.53473 0.68026 0.0
H638 H 0.99615 0.47312 0.6322 0.0
H639 H 0.08781 0.53526 0.51696 0.0
H640 H 0.13344 0.54122 0.50253 0.0
H641 H 0.10741 0.45928 0.56194 0.0
H642 H 0.06149 0.4526 0.57624 0.0
H643 H 0.94328 0.5142 0.47643 0.0
H644 H 0.97703 0.51862 0.52711 0.0
H645 H 0.99124 0.45924 0.45519 0.0
H646 H 0.95865 0.45619 0.40326 0.0
H647 H 0.03702 0.49608 0.49404 0.0
H648 H 0.94213 0.43305 0.53195 0.0
H649 H 0.89335 0.41869 0.54383 0.0
H650 H 0.92096 0.48695 0.63592 0.0
H651 H 0.96997 0.50201 0.62417 0.0
C652 C 0.05121 0.4685 0.69981 0.0
C653 C 0.07795 0.49372 0.70645 0.0
C654 C 0.03693 0.46473 0.66328 0.0
C655 C 0.0489 0.48641 0.6331 0.0
C656 C 0.07579 0.51149 0.63973 0.0
C657 C 0.09033 0.51488 0.67576 0.0
C658 C 0.03241 0.48417 0.59644 0.0
C659 C 0.00514 0.47795 0.60203 0.0
C660 C 0.04373 0.48983 0.55672 0.0
C661 C 0.07127 0.49358 0.54798 0.0
C662 C 0.09176 0.51844 0.52679 0.0
C663 C 0.1177 0.52196 0.51866 0.0
C664 C 0.12335 0.50069 0.53141 0.0
C665 C 0.10304 0.4758 0.55222 0.0
C666 C 0.07707 0.47216 0.5604 0.0
C667 C 0.95423 0.50279 0.47095 0.0
C668 C 0.94821 0.48462 0.43627 0.0
C669 C 0.97334 0.50514 0.5 0.0
C670 C 0.98592 0.48843 0.49561 0.0
C671 C 0.98161 0.47213 0.45941 0.0
C672 C 0.96301 0.47042 0.42975 0.0
C673 C 0.00127 0.48581 0.53031 0.0
C674 C 0.02817 0.49108 0.52429 0.0
C675 C 0.9892 0.47796 0.56942 0.0
C676 C 0.95973 0.4688 0.57695 0.0
C677 C 0.93781 0.4451 0.55459 0.0
C678 C 0.91012 0.43683 0.5613 0.0
C679 C 0.90407 0.45194 0.59056 0.0
C680 C 0.92569 0.47529 0.61324 0.0
C681 C 0.95343 0.48369 0.60659 0.0
H682 H 0.88262 0.44551 0.5957 0.0
H683 H 0.14344 0.50346 0.52511 0.0
loop_
_geom_bond_atom_site_label_1
_geom_bond_atom_site_label_2
_geom_bond_distance
_geom_bond_site_symmetry_2
_ccdc_geom_bond_type
Zn0 O3 2.031 . S
Zn0 O5 2.049 . S
Zn0 O10 2.067 . S
Zn1 O2 1.962 . S
Zn1 O4 1.986 . S
Zn1 O6 1.996 . S
Zn1 O9 1.943 . S
O2 Zn1 1.962 . S
O2 C7 1.254 . S
O3 Zn0 2.031 . S
O3 C7 1.269 . S
O4 Zn1 1.986 . S
O4 C11 1.262 . S
O5 Zn0 2.049 . S
O5 C13 1.260 . S
O6 Zn1 1.996 . S
O6 C13 1.257 . S
C7 O2 1.254 . S
C7 O3 1.269 . S
C8 O9 1.249 . S
C8 O10 1.270 . S
O9 Zn1 1.943 . S
O9 C8 1.249 . S
O10 Zn0 2.067 . S
O10 C8 1.270 . S
C11 O4 1.262 . S
C11 O12 1.232 . S
O12 C11 1.232 . S
C13 O5 1.260 . S
C13 O6 1.257 . S
Zn14 O17 2.031 . S
Zn14 O19 2.049 . S
Zn14 O24 2.067 . S
Zn15 O16 1.962 . S
Zn15 O18 1.986 . S
Zn15 O20 1.996 . S
Zn15 O23 1.943 . S
O16 Zn15 1.962 . S
O16 C21 1.254 . S
O17 Zn14 2.031 . S
O17 C21 1.269 . S
O18 Zn15 1.986 . S
O18 C25 1.262 . S
O19 Zn14 2.049 . S
O19 C27 1.260 . S
O20 Zn15 1.996 . S
O20 C27 1.257 . S
C21 O16 1.254 . S
C21 O17 1.269 . S
C22 O23 1.249 . S
C22 O24 1.270 . S
O23 Zn15 1.943 . S
O23 C22 1.249 . S
O24 Zn14 2.067 . S
O24 C22 1.270 . S
C25 O18 1.262 . S
C25 O26 1.232 . S
O26 C25 1.232 . S
C27 O19 1.260 . S
C27 O20 1.257 . S
Zn28 O31 2.031 . S
Zn28 O33 2.049 . S
Zn28 O38 2.067 . S
Zn29 O30 1.962 . S
Zn29 O32 1.986 . S
Zn29 O34 1.996 . S
Zn29 O37 1.943 . S
O30 Zn29 1.962 . S
O30 C35 1.254 . S
O31 Zn28 2.031 . S
O31 C35 1.269 . S
O32 Zn29 1.986 . S
O32 C39 1.262 . S
O33 Zn28 2.049 . S
O33 C41 1.260 . S
O34 Zn29 1.996 . S
O34 C41 1.257 . S
C35 O30 1.254 . S
C35 O31 1.269 . S
C36 O37 1.249 . S
C36 O38 1.270 . S
O37 Zn29 1.943 . S
O37 C36 1.249 . S
O38 Zn28 2.067 . S
O38 C36 1.270 . S
C39 O32 1.262 . S
C39 O40 1.232 . S
O40 C39 1.232 . S
C41 O33 1.260 . S
C41 O34 1.257 . S
Zn42 O45 2.031 . S
Zn42 O47 2.049 . S
Zn42 O52 2.067 . S
Zn43 O44 1.962 . S
Zn43 O46 1.986 . S
Zn43 O48 1.996 . S
Zn43 O51 1.943 . S
O44 Zn43 1.962 . S
O44 C49 1.254 . S
O45 Zn42 2.031 . S
O45 C49 1.269 . S
O46 Zn43 1.986 . S
O46 C53 1.262 . S
O47 Zn42 2.049 . S
O47 C55 1.260 . S
O48 Zn43 1.996 . S
O48 C55 1.257 . S
C49 O44 1.254 . S
C49 O45 1.269 . S
C50 O51 1.249 . S
C50 O52 1.270 . S
O51 Zn43 1.943 . S
O51 C50 1.249 . S
O52 Zn42 2.067 . S
O52 C50 1.270 . S
C53 O46 1.262 . S
C53 O54 1.232 . S
O54 C53 1.232 . S
C55 O47 1.260 . S
C55 O48 1.257 . S
Zn56 O59 2.031 . S
Zn56 O61 2.049 . S
Zn56 O66 2.067 . S
Zn57 O58 1.962 . S
Zn57 O60 1.986 . S
Zn57 O62 1.996 . S
Zn57 O65 1.943 . S
O58 Zn57 1.962 . S
O58 C63 1.254 . S
O59 Zn56 2.031 . S
O59 C63 1.269 . S
O60 Zn57 1.986 . S
O60 C67 1.262 . S
O61 Zn56 2.049 . S
O61 C69 1.260 . S
O62 Zn57 1.996 . S
O62 C69 1.257 . S
C63 O58 1.254 . S
C63 O59 1.269 . S
C64 O65 1.249 . S
C64 O66 1.270 . S
O65 Zn57 1.943 . S
O65 C64 1.249 . S
O66 Zn56 2.067 . S
O66 C64 1.270 . S
C67 O60 1.262 . S
C67 O68 1.232 . S
O68 C67 1.232 . S
C69 O61 1.260 . S
C69 O62 1.257 . S
Zn70 O73 2.031 . S
Zn70 O75 2.049 . S
Zn70 O80 2.067 . S
Zn71 O72 1.962 . S
Zn71 O74 1.986 . S
Zn71 O76 1.996 . S
Zn71 O79 1.943 . S
O72 Zn71 1.962 . S
O72 C77 1.254 . S
O73 Zn70 2.031 . S
O73 C77 1.269 . S
O74 Zn71 1.986 . S
O74 C81 1.262 . S
O75 Zn70 2.049 . S
O75 C83 1.260 . S
O76 Zn71 1.996 . S
O76 C83 1.257 . S
C77 O72 1.254 . S
C77 O73 1.269 . S
C78 O79 1.249 . S
C78 O80 1.270 . S
O79 Zn71 1.943 . S
O79 C78 1.249 . S
O80 Zn70 2.067 . S
O80 C78 1.270 . S
C81 O74 1.262 . S
C81 O82 1.232 . S
O82 C81 1.232 . S
C83 O75 1.260 . S
C83 O76 1.257 . S
H84 C102 0.951 . S
H85 C104 0.951 . S
H86 C106 0.950 . S
H87 C107 0.950 . S
H88 C109 0.950 . S
H89 C112 0.950 . S
H90 C113 0.950 . S
H91 C115 0.950 . S
H92 C116 0.950 . S
H93 C117 0.951 . S
H94 C119 0.951 . S
H95 C121 0.950 . S
H96 C122 0.950 . S
H97 C124 0.950 . S
H98 C127 0.950 . S
H99 C128 0.950 . S
H100 C130 0.950 . S
H101 C131 0.950 . S
C102 H84 0.951 . S
C102 C103 1.366 . S
C102 C104 1.388 . S
C103 C102 1.366 . S
C103 C107 1.385 . S
C104 H85 0.951 . S
C104 C102 1.388 . S
C104 C105 1.366 . S
C105 C104 1.366 . S
C105 C106 1.414 . S
C105 C108 1.499 . S
C106 H86 0.950 . S
C106 C105 1.414 . S
C106 C107 1.374 . S
C107 H87 0.950 . S
C107 C103 1.385 . S
C107 C106 1.374 . S
C108 C105 1.499 . S
C108 C109 1.373 . S
C108 C110 1.389 . S
C109 H88 0.950 . S
C109 C108 1.373 . S
C109 C125 1.377 . S
C110 C108 1.389 . S
C110 C111 1.524 . S
C110 C124 1.377 . S
C111 C110 1.524 . S
C111 C112 1.397 . S
C111 C116 1.363 . S
C112 H89 0.950 . S
C112 C111 1.397 . S
C112 C113 1.334 . S
C113 H90 0.950 . S
C113 C112 1.334 . S
C113 C114 1.287 . S
C114 C113 1.287 . S
C114 C115 1.524 . S
C114 H133 0.913 . S
C115 H91 0.950 . S
C115 C114 1.524 . S
C115 C116 1.415 . S
C116 H92 0.950 . S
C116 C111 1.363 . S
C116 C115 1.415 . S
C117 H93 0.951 . S
C117 C118 1.366 . S
C117 C119 1.388 . S
C118 C117 1.366 . S
C118 C122 1.385 . S
C119 H94 0.951 . S
C119 C117 1.388 . S
C119 C120 1.366 . S
C120 C119 1.366 . S
C120 C121 1.414 . S
C120 C123 1.499 . S
C121 H95 0.950 . S
C121 C120 1.414 . S
C121 C122 1.374 . S
C122 H96 0.950 . S
C122 C118 1.385 . S
C122 C121 1.374 . S
C123 C120 1.499 . S
C123 C124 1.373 . S
C123 C125 1.389 . S
C124 H97 0.950 . S
C124 C110 1.377 . S
C124 C123 1.373 . S
C125 C109 1.377 . S
C125 C123 1.389 . S
C125 C126 1.524 . S
C126 C125 1.524 . S
C126 C127 1.397 . S
C126 C131 1.363 . S
C127 H98 0.950 . S
C127 C126 1.397 . S
C127 C128 1.334 . S
C128 H99 0.950 . S
C128 C127 1.334 . S
C128 C129 1.287 . S
C129 C128 1.287 . S
C129 C130 1.524 . S
C129 H132 0.999 . S
C130 H100 0.950 . S
C130 C129 1.524 . S
C130 C131 1.415 . S
C131 H101 0.950 . S
C131 C126 1.363 . S
C131 C130 1.415 . S
H132 C129 0.999 . S
H133 C114 0.913 . S
H134 C152 0.951 . S
H135 C154 0.951 . S
H136 C156 0.950 . S
H137 C157 0.950 . S
H138 C159 0.950 . S
H139 C162 0.950 . S
H140 C163 0.950 . S
H141 C165 0.950 . S
H142 C166 0.950 . S
H143 C167 0.951 . S
H144 C169 0.951 . S
H145 C171 0.950 . S
H146 C172 0.950 . S
H147 C174 0.950 . S
H148 C177 0.950 . S
H149 C178 0.950 . S
H150 C180 0.950 . S
H151 C181 0.950 . S
C152 H134 0.951 . S
C152 C153 1.366 . S
C152 C154 1.388 . S
C153 C152 1.366 . S
C153 C157 1.385 . S
C154 H135 0.951 . S
C154 C152 1.388 . S
C154 C155 1.366 . S
C155 C154 1.366 . S
C155 C156 1.414 . S
C155 C158 1.499 . S
C156 H136 0.950 . S
C156 C155 1.414 . S
C156 C157 1.374 . S
C157 H137 0.950 . S
C157 C153 1.385 . S
C157 C156 1.374 . S
C158 C155 1.499 . S
C158 C159 1.373 . S
C158 C160 1.389 . S
C159 H138 0.950 . S
C159 C158 1.373 . S
C159 C175 1.377 . S
C160 C158 1.389 . S
C160 C161 1.524 . S
C160 C174 1.377 . S
C161 C160 1.524 . S
C161 C162 1.397 . S
C161 C166 1.363 . S
C162 H139 0.950 . S
C162 C161 1.397 . S
C162 C163 1.334 . S
C163 H140 0.950 . S
C163 C162 1.334 . S
C163 C164 1.287 . S
C164 C163 1.287 . S
C164 C165 1.524 . S
C164 H183 0.913 . S
C165 H141 0.950 . S
C165 C164 1.524 . S
C165 C166 1.415 . S
C166 H142 0.950 . S
C166 C161 1.363 . S
C166 C165 1.415 . S
C167 H143 0.951 . S
C167 C168 1.366 . S
C167 C169 1.388 . S
C168 C167 1.366 . S
C168 C172 1.385 . S
C169 H144 0.951 . S
C169 C167 1.388 . S
C169 C170 1.366 . S
C170 C169 1.366 . S
C170 C171 1.414 . S
C170 C173 1.499 . S
C171 H145 0.950 . S
C171 C170 1.414 . S
C171 C172 1.374 . S
C172 H146 0.950 . S
C172 C168 1.385 . S
C172 C171 1.374 . S
C173 C170 1.499 . S
C173 C174 1.373 . S
C173 C175 1.389 . S
C174 H147 0.950 . S
C174 C160 1.377 . S
C174 C173 1.373 . S
C175 C159 1.377 . S
C175 C173 1.389 . S
C175 C176 1.524 . S
C176 C175 1.524 . S
C176 C177 1.397 . S
C176 C181 1.363 . S
C177 H148 0.950 . S
C177 C176 1.397 . S
C177 C178 1.334 . S
C178 H149 0.950 . S
C178 C177 1.334 . S
C178 C179 1.287 . S
C179 C178 1.287 . S
C179 C180 1.524 . S
C179 H182 0.999 . S
C180 H150 0.950 . S
C180 C179 1.524 . S
C180 C181 1.415 . S
C181 H151 0.950 . S
C181 C176 1.363 . S
C181 C180 1.415 . S
H182 C179 0.999 . S
H183 C164 0.913 . S
H184 C202 0.951 . S
H185 C204 0.951 . S
H186 C206 0.950 . S
H187 C207 0.950 . S
H188 C209 0.950 . S
H189 C212 0.950 . S
H190 C213 0.950 . S
H191 C215 0.950 . S
H192 C216 0.950 . S
H193 C217 0.951 . S
H194 C219 0.951 . S
H195 C221 0.950 . S
H196 C222 0.950 . S
H197 C224 0.950 . S
H198 C227 0.950 . S
H199 C228 0.950 . S
H200 C230 0.950 . S
H201 C231 0.950 . S
C202 H184 0.951 . S
C202 C203 1.366 . S
C202 C204 1.388 . S
C203 C202 1.366 . S
C203 C207 1.385 . S
C204 H185 0.951 . S
C204 C202 1.388 . S
C204 C205 1.366 . S
C205 C204 1.366 . S
C205 C206 1.414 . S
C205 C208 1.499 . S
C206 H186 0.950 . S
C206 C205 1.414 . S
C206 C207 1.374 . S
C207 H187 0.950 . S
C207 C203 1.385 . S
C207 C206 1.374 . S
C208 C205 1.499 . S
C208 C209 1.373 . S
C208 C210 1.389 . S
C209 H188 0.950 . S
C209 C208 1.373 . S
C209 C225 1.377 . S
C210 C208 1.389 . S
C210 C211 1.524 . S
C210 C224 1.377 . S
C211 C210 1.524 . S
C211 C212 1.397 . S
C211 C216 1.363 . S
C212 H189 0.950 . S
C212 C211 1.397 . S
C212 C213 1.334 . S
C213 H190 0.950 . S
C213 C212 1.334 . S
C213 C214 1.287 . S
C214 C213 1.287 . S
C214 C215 1.524 . S
C214 H233 0.913 . S
C215 H191 0.950 . S
C215 C214 1.524 . S
C215 C216 1.415 . S
C216 H192 0.950 . S
C216 C211 1.363 . S
C216 C215 1.415 . S
C217 H193 0.951 . S
C217 C218 1.366 . S
C217 C219 1.388 . S
C218 C217 1.366 . S
C218 C222 1.385 . S
C219 H194 0.951 . S
C219 C217 1.388 . S
C219 C220 1.366 . S
C220 C219 1.366 . S
C220 C221 1.414 . S
C220 C223 1.499 . S
C221 H195 0.950 . S
C221 C220 1.414 . S
C221 C222 1.374 . S
C222 H196 0.950 . S
C222 C218 1.385 . S
C222 C221 1.374 . S
C223 C220 1.499 . S
C223 C224 1.373 . S
C223 C225 1.389 . S
C224 H197 0.950 . S
C224 C210 1.377 . S
C224 C223 1.373 . S
C225 C209 1.377 . S
C225 C223 1.389 . S
C225 C226 1.524 . S
C226 C225 1.524 . S
C226 C227 1.397 . S
C226 C231 1.363 . S
C227 H198 0.950 . S
C227 C226 1.397 . S
C227 C228 1.334 . S
C228 H199 0.950 . S
C228 C227 1.334 . S
C228 C229 1.287 . S
C229 C228 1.287 . S
C229 C230 1.524 . S
C229 H232 0.999 . S
C230 H200 0.950 . S
C230 C229 1.524 . S
C230 C231 1.415 . S
C231 H201 0.950 . S
C231 C226 1.363 . S
C231 C230 1.415 . S
H232 C229 0.999 . S
H233 C214 0.913 . S
H234 C252 0.951 . S
H235 C254 0.951 . S
H236 C256 0.950 . S
H237 C257 0.950 . S
H238 C259 0.950 . S
H239 C262 0.950 . S
H240 C263 0.950 . S
H241 C265 0.950 . S
H242 C266 0.950 . S
H243 C267 0.951 . S
H244 C269 0.951 . S
H245 C271 0.950 . S
H246 C272 0.950 . S
H247 C274 0.950 . S
H248 C277 0.950 . S
H249 C278 0.950 . S
H250 C280 0.950 . S
H251 C281 0.950 . S
C252 H234 0.951 . S
C252 C253 1.366 . S
C252 C254 1.388 . S
C253 C252 1.366 . S
C253 C257 1.385 . S
C254 H235 0.951 . S
C254 C252 1.388 . S
C254 C255 1.366 . S
C255 C254 1.366 . S
C255 C256 1.414 . S
C255 C258 1.499 . S
C256 H236 0.950 . S
C256 C255 1.414 . S
C256 C257 1.374 . S
C257 H237 0.950 . S
C257 C253 1.385 . S
C257 C256 1.374 . S
C258 C255 1.499 . S
C258 C259 1.373 . S
C258 C260 1.389 . S
C259 H238 0.950 . S
C259 C258 1.373 . S
C259 C275 1.377 . S
C260 C258 1.389 . S
C260 C261 1.524 . S
C260 C274 1.377 . S
C261 C260 1.524 . S
C261 C262 1.397 . S
C261 C266 1.363 . S
C262 H239 0.950 . S
C262 C261 1.397 . S
C262 C263 1.334 . S
C263 H240 0.950 . S
C263 C262 1.334 . S
C263 C264 1.287 . S
C264 C263 1.287 . S
C264 C265 1.524 . S
C264 H283 0.913 . S
C265 H241 0.950 . S
C265 C264 1.524 . S
C265 C266 1.415 . S
C266 H242 0.950 . S
C266 C261 1.363 . S
C266 C265 1.415 . S
C267 H243 0.951 . S
C267 C268 1.366 . S
C267 C269 1.388 . S
C268 C267 1.366 . S
C268 C272 1.385 . S
C269 H244 0.951 . S
C269 C267 1.388 . S
C269 C270 1.366 . S
C270 C269 1.366 . S
C270 C271 1.414 . S
C270 C273 1.499 . S
C271 H245 0.950 . S
C271 C270 1.414 . S
C271 C272 1.374 . S
C272 H246 0.950 . S
C272 C268 1.385 . S
C272 C271 1.374 . S
C273 C270 1.499 . S
C273 C274 1.373 . S
C273 C275 1.389 . S
C274 H247 0.950 . S
C274 C260 1.377 . S
C274 C273 1.373 . S
C275 C259 1.377 . S
C275 C273 1.389 . S
C275 C276 1.524 . S
C276 C275 1.524 . S
C276 C277 1.397 . S
C276 C281 1.363 . S
C277 H248 0.950 . S
C277 C276 1.397 . S
C277 C278 1.334 . S
C278 H249 0.950 . S
C278 C277 1.334 . S
C278 C279 1.287 . S
C279 C278 1.287 . S
C279 C280 1.524 . S
C279 H282 0.999 . S
C280 H250 0.950 . S
C280 C279 1.524 . S
C280 C281 1.415 . S
C281 H251 0.950 . S
C281 C276 1.363 . S
C281 C280 1.415 . S
H282 C279 0.999 . S
H283 C264 0.913 . S
H284 C302 0.951 . S
H285 C304 0.951 . S
H286 C306 0.950 . S
H287 C307 0.950 . S
H288 C309 0.950 . S
H289 C312 0.950 . S
H290 C313 0.950 . S
H291 C315 0.950 . S
H292 C316 0.950 . S
H293 C317 0.951 . S
H294 C319 0.951 . S
H295 C321 0.950 . S
H296 C322 0.950 . S
H297 C324 0.950 . S
H298 C327 0.950 . S
H299 C328 0.950 . S
H300 C330 0.950 . S
H301 C331 0.950 . S
C302 H284 0.951 . S
C302 C303 1.366 . S
C302 C304 1.388 . S
C303 C302 1.366 . S
C303 C307 1.385 . S
C304 H285 0.951 . S
C304 C302 1.388 . S
C304 C305 1.366 . S
C305 C304 1.366 . S
C305 C306 1.414 . S
C305 C308 1.499 . S
C306 H286 0.950 . S
C306 C305 1.414 . S
C306 C307 1.374 . S
C307 H287 0.950 . S
C307 C303 1.385 . S
C307 C306 1.374 . S
C308 C305 1.499 . S
C308 C309 1.373 . S
C308 C310 1.389 . S
C309 H288 0.950 . S
C309 C308 1.373 . S
C309 C325 1.377 . S
C310 C308 1.389 . S
C310 C311 1.524 . S
C310 C324 1.377 . S
C311 C310 1.524 . S
C311 C312 1.397 . S
C311 C316 1.363 . S
C312 H289 0.950 . S
C312 C311 1.397 . S
C312 C313 1.334 . S
C313 H290 0.950 . S
C313 C312 1.334 . S
C313 C314 1.287 . S
C314 C313 1.287 . S
C314 C315 1.524 . S
C314 H333 0.913 . S
C315 H291 0.950 . S
C315 C314 1.524 . S
C315 C316 1.415 . S
C316 H292 0.950 . S
C316 C311 1.363 . S
C316 C315 1.415 . S
C317 H293 0.951 . S
C317 C318 1.366 . S
C317 C319 1.388 . S
C318 C317 1.366 . S
C318 C322 1.385 . S
C319 H294 0.951 . S
C319 C317 1.388 . S
C319 C320 1.366 . S
C320 C319 1.366 . S
C320 C321 1.414 . S
C320 C323 1.499 . S
C321 H295 0.950 . S
C321 C320 1.414 . S
C321 C322 1.374 . S
C322 H296 0.950 . S
C322 C318 1.385 . S
C322 C321 1.374 . S
C323 C320 1.499 . S
C323 C324 1.373 . S
C323 C325 1.389 . S
C324 H297 0.950 . S
C324 C310 1.377 . S
C324 C323 1.373 . S
C325 C309 1.377 . S
C325 C323 1.389 . S
C325 C326 1.524 . S
C326 C325 1.524 . S
C326 C327 1.397 . S
C326 C331 1.363 . S
C327 H298 0.950 . S
C327 C326 1.397 . S
C327 C328 1.334 . S
C328 H299 0.950 . S
C328 C327 1.334 . S
C328 C329 1.287 . S
C329 C328 1.287 . S
C329 C330 1.524 . S
C329 H332 0.999 . S
C330 H300 0.950 . S
C330 C329 1.524 . S
C330 C331 1.415 . S
C331 H301 0.950 . S
C331 C326 1.363 . S
C331 C330 1.415 . S
H332 C329 0.999 . S
H333 C314 0.913 . S
H334 C352 0.951 . S
H335 C354 0.951 . S
H336 C356 0.950 . S
H337 C357 0.950 . S
H338 C359 0.950 . S
H339 C362 0.950 . S
H340 C363 0.950 . S
H341 C365 0.950 . S
H342 C366 0.950 . S
H343 C367 0.951 . S
H344 C369 0.951 . S
H345 C371 0.950 . S
H346 C372 0.950 . S
H347 C374 0.950 . S
H348 C377 0.950 . S
H349 C378 0.950 . S
H350 C380 0.950 . S
H351 C381 0.950 . S
C352 H334 0.951 . S
C352 C353 1.366 . S
C352 C354 1.388 . S
C353 C352 1.366 . S
C353 C357 1.385 . S
C354 H335 0.951 . S
C354 C352 1.388 . S
C354 C355 1.366 . S
C355 C354 1.366 . S
C355 C356 1.414 . S
C355 C358 1.499 . S
C356 H336 0.950 . S
C356 C355 1.414 . S
C356 C357 1.374 . S
C357 H337 0.950 . S
C357 C353 1.385 . S
C357 C356 1.374 . S
C358 C355 1.499 . S
C358 C359 1.373 . S
C358 C360 1.389 . S
C359 H338 0.950 . S
C359 C358 1.373 . S
C359 C375 1.377 . S
C360 C358 1.389 . S
C360 C361 1.524 . S
C360 C374 1.377 . S
C361 C360 1.524 . S
C361 C362 1.397 . S
C361 C366 1.363 . S
C362 H339 0.950 . S
C362 C361 1.397 . S
C362 C363 1.334 . S
C363 H340 0.950 . S
C363 C362 1.334 . S
C363 C364 1.287 . S
C364 C363 1.287 . S
C364 C365 1.524 . S
C364 H383 0.913 . S
C365 H341 0.950 . S
C365 C364 1.524 . S
C365 C366 1.415 . S
C366 H342 0.950 . S
C366 C361 1.363 . S
C366 C365 1.415 . S
C367 H343 0.951 . S
C367 C368 1.366 . S
C367 C369 1.388 . S
C368 C367 1.366 . S
C368 C372 1.385 . S
C369 H344 0.951 . S
C369 C367 1.388 . S
C369 C370 1.366 . S
C370 C369 1.366 . S
C370 C371 1.414 . S
C370 C373 1.499 . S
C371 H345 0.950 . S
C371 C370 1.414 . S
C371 C372 1.374 . S
C372 H346 0.950 . S
C372 C368 1.385 . S
C372 C371 1.374 . S
C373 C370 1.499 . S
C373 C374 1.373 . S
C373 C375 1.389 . S
C374 H347 0.950 . S
C374 C360 1.377 . S
C374 C373 1.373 . S
C375 C359 1.377 . S
C375 C373 1.389 . S
C375 C376 1.524 . S
C376 C375 1.524 . S
C376 C377 1.397 . S
C376 C381 1.363 . S
C377 H348 0.950 . S
C377 C376 1.397 . S
C377 C378 1.334 . S
C378 H349 0.950 . S
C378 C377 1.334 . S
C378 C379 1.287 . S
C379 C378 1.287 . S
C379 C380 1.524 . S
C379 H382 0.999 . S
C380 H350 0.950 . S
C380 C379 1.524 . S
C380 C381 1.415 . S
C381 H351 0.950 . S
C381 C376 1.363 . S
C381 C380 1.415 . S
H382 C379 0.999 . S
H383 C364 0.913 . S
H384 C402 0.951 . S
H385 C404 0.951 . S
H386 C406 0.950 . S
H387 C407 0.950 . S
H388 C409 0.950 . S
H389 C412 0.950 . S
H390 C413 0.950 . S
H391 C415 0.950 . S
H392 C416 0.950 . S
H393 C417 0.951 . S
H394 C419 0.951 . S
H395 C421 0.950 . S
H396 C422 0.950 . S
H397 C424 0.950 . S
H398 C427 0.950 . S
H399 C428 0.950 . S
H400 C430 0.950 . S
H401 C431 0.950 . S
C402 H384 0.951 . S
C402 C403 1.366 . S
C402 C404 1.388 . S
C403 C402 1.366 . S
C403 C407 1.385 . S
C404 H385 0.951 . S
C404 C402 1.388 . S
C404 C405 1.366 . S
C405 C404 1.366 . S
C405 C406 1.414 . S
C405 C408 1.499 . S
C406 H386 0.950 . S
C406 C405 1.414 . S
C406 C407 1.374 . S
C407 H387 0.950 . S
C407 C403 1.385 . S
C407 C406 1.374 . S
C408 C405 1.499 . S
C408 C409 1.373 1_565 S
C408 C410 1.389 . S
C409 H388 0.950 . S
C409 C408 1.373 1_545 S
C409 C425 1.377 1_556 S
C410 C408 1.389 . S
C410 C411 1.524 . S
C410 C424 1.377 1_556 S
C411 C410 1.524 . S
C411 C412 1.397 . S
C411 C416 1.363 1_556 S
C412 H389 0.950 . S
C412 C411 1.397 . S
C412 C413 1.334 . S
C413 H390 0.950 . S
C413 C412 1.334 . S
C413 C414 1.287 . S
C414 C413 1.287 . S
C414 C415 1.524 1_556 S
C414 H433 0.913 . S
C415 H391 0.950 . S
C415 C414 1.524 1_554 S
C415 C416 1.415 . S
C416 H392 0.950 . S
C416 C411 1.363 1_554 S
C416 C415 1.415 . S
C417 H393 0.951 . S
C417 C418 1.366 . S
C417 C419 1.388 . S
C418 C417 1.366 . S
C418 C422 1.385 . S
C419 H394 0.951 . S
C419 C417 1.388 . S
C419 C420 1.366 . S
C420 C419 1.366 . S
C420 C421 1.414 . S
C420 C423 1.499 . S
C421 H395 0.950 . S
C421 C420 1.414 . S
C421 C422 1.374 . S
C422 H396 0.950 . S
C422 C418 1.385 . S
C422 C421 1.374 . S
C423 C420 1.499 . S
C423 C424 1.373 1_545 S
C423 C425 1.389 . S
C424 H397 0.950 . S
C424 C410 1.377 1_554 S
C424 C423 1.373 1_565 S
C425 C409 1.377 1_554 S
C425 C423 1.389 . S
C425 C426 1.524 . S
C426 C425 1.524 . S
C426 C427 1.397 . S
C426 C431 1.363 1_554 S
C427 H398 0.950 . S
C427 C426 1.397 . S
C427 C428 1.334 . S
C428 H399 0.950 . S
C428 C427 1.334 . S
C428 C429 1.287 . S
C429 C428 1.287 . S
C429 C430 1.524 1_554 S
C429 H432 0.999 . S
C430 H400 0.950 . S
C430 C429 1.524 1_556 S
C430 C431 1.415 . S
C431 H401 0.950 . S
C431 C426 1.363 1_556 S
C431 C430 1.415 . S
H432 C429 0.999 . S
H433 C414 0.913 . S
H434 C452 0.951 . S
H435 C454 0.951 . S
H436 C456 0.950 . S
H437 C457 0.950 . S
H438 C459 0.950 . S
H439 C462 0.950 . S
H440 C463 0.950 . S
H441 C465 0.950 . S
H442 C466 0.950 . S
H443 C467 0.951 . S
H444 C469 0.951 . S
H445 C471 0.950 . S
H446 C472 0.950 . S
H447 C474 0.950 . S
H448 C477 0.950 . S
H449 C478 0.950 . S
H450 C480 0.950 . S
H451 C481 0.950 . S
C452 H434 0.951 . S
C452 C453 1.366 . S
C452 C454 1.388 . S
C453 C452 1.366 . S
C453 C457 1.385 . S
C454 H435 0.951 . S
C454 C452 1.388 . S
C454 C455 1.366 . S
C455 C454 1.366 . S
C455 C456 1.414 . S
C455 C458 1.499 . S
C456 H436 0.950 . S
C456 C455 1.414 . S
C456 C457 1.374 . S
C457 H437 0.950 . S
C457 C453 1.385 . S
C457 C456 1.374 . S
C458 C455 1.499 . S
C458 C459 1.373 . S
C458 C460 1.389 . S
C459 H438 0.950 . S
C459 C458 1.373 . S
C459 C475 1.377 . S
C460 C458 1.389 . S
C460 C461 1.524 . S
C460 C474 1.377 . S
C461 C460 1.524 . S
C461 C462 1.397 . S
C461 C466 1.363 . S
C462 H439 0.950 . S
C462 C461 1.397 . S
C462 C463 1.334 . S
C463 H440 0.950 . S
C463 C462 1.334 . S
C463 C464 1.287 . S
C464 C463 1.287 . S
C464 C465 1.524 . S
C464 H483 0.913 . S
C465 H441 0.950 . S
C465 C464 1.524 . S
C465 C466 1.415 . S
C466 H442 0.950 . S
C466 C461 1.363 . S
C466 C465 1.415 . S
C467 H443 0.951 . S
C467 C468 1.366 . S
C467 C469 1.388 . S
C468 C467 1.366 . S
C468 C472 1.385 . S
C469 H444 0.951 . S
C469 C467 1.388 . S
C469 C470 1.366 . S
C470 C469 1.366 . S
C470 C471 1.414 . S
C470 C473 1.499 . S
C471 H445 0.950 . S
C471 C470 1.414 . S
C471 C472 1.374 . S
C472 H446 0.950 . S
C472 C468 1.385 . S
C472 C471 1.374 . S
C473 C470 1.499 . S
C473 C474 1.373 . S
C473 C475 1.389 . S
C474 H447 0.950 . S
C474 C460 1.377 . S
C474 C473 1.373 . S
C475 C459 1.377 . S
C475 C473 1.389 . S
C475 C476 1.524 . S
C476 C475 1.524 . S
C476 C477 1.397 . S
C476 C481 1.363 . S
C477 H448 0.950 . S
C477 C476 1.397 . S
C477 C478 1.334 . S
C478 H449 0.950 . S
C478 C477 1.334 . S
C478 C479 1.287 . S
C479 C478 1.287 . S
C479 C480 1.524 . S
C479 H482 0.999 . S
C480 H450 0.950 . S
C480 C479 1.524 . S
C480 C481 1.415 . S
C481 H451 0.950 . S
C481 C476 1.363 . S
C481 C480 1.415 . S
H482 C479 0.999 . S
H483 C464 0.913 . S
H484 C502 0.951 . S
H485 C504 0.951 . S
H486 C506 0.923 1_655 S
H487 C507 0.950 . S
H488 C509 0.950 . S
H489 C512 0.950 . S
H490 C513 0.950 . S
H491 C515 0.950 . S
H492 C516 0.950 . S
H493 C517 0.951 . S
H494 C519 0.951 . S
H495 C521 0.981 . S
H496 C522 0.950 . S
H497 C524 0.950 . S
H498 C527 0.950 . S
H499 C528 0.945 1_554 S
H500 C530 0.950 . S
H501 C531 0.950 . S
C502 H484 0.951 . S
C502 C503 1.366 . S
C502 C504 1.388 . S
C503 C502 1.366 . S
C503 C507 1.385 . S
C504 H485 0.951 . S
C504 C502 1.388 . S
C504 C505 1.366 . S
C505 C504 1.366 . S
C505 C506 1.414 . S
C505 C508 1.499 . S
C506 H486 0.923 1_455 S
C506 C505 1.414 . S
C506 C507 1.374 . S
C507 H487 0.950 . S
C507 C503 1.385 . S
C507 C506 1.374 . S
C508 C505 1.499 . S
C508 C509 1.373 1_455 S
C508 C510 1.389 . S
C509 H488 0.950 . S
C509 C508 1.373 1_655 S
C509 C525 1.377 . S
C510 C508 1.389 . S
C510 C511 1.524 . S
C510 C524 1.377 1_556 S
C511 C510 1.524 . S
C511 C512 1.397 . S
C511 C516 1.363 1_556 S
C512 H489 0.950 . S
C512 C511 1.397 . S
C512 C513 1.334 . S
C513 H490 0.950 . S
C513 C512 1.334 . S
C513 C514 1.287 1_556 S
C514 C513 1.287 1_554 S
C514 C515 1.524 . S
C514 H533 0.913 . S
C515 H491 0.950 . S
C515 C514 1.524 . S
C515 C516 1.415 . S
C516 H492 0.950 . S
C516 C511 1.363 1_554 S
C516 C515 1.415 . S
C517 H493 0.951 . S
C517 C518 1.366 . S
C517 C519 1.388 . S
C518 C517 1.366 . S
C518 C522 1.385 . S
C519 H494 0.951 . S
C519 C517 1.388 . S
C519 C520 1.366 . S
C520 C519 1.366 . S
C520 C521 1.414 . S
C520 C523 1.499 . S
C521 H495 0.981 . S
C521 C520 1.414 . S
C521 C522 1.374 . S
C522 H496 0.950 . S
C522 C518 1.385 . S
C522 C521 1.374 . S
C523 C520 1.499 . S
C523 C524 1.373 1_655 S
C523 C525 1.389 1_554 S
C524 H497 0.950 . S
C524 C510 1.377 1_554 S
C524 C523 1.373 1_455 S
C525 C509 1.377 . S
C525 C523 1.389 1_556 S
C525 C526 1.524 . S
C526 C525 1.524 . S
C526 C527 1.397 1_556 S
C526 C531 1.363 . S
C527 H498 0.950 . S
C527 C526 1.397 1_554 S
C527 C528 1.333 1_554 S
C528 H499 0.945 1_556 S
C528 C527 1.333 1_556 S
C528 C529 1.293 . S
C529 C528 1.293 . S
C529 C530 1.524 . S
C529 H532 0.999 . S
C530 H500 0.950 . S
C530 C529 1.524 . S
C530 C531 1.415 . S
C531 H501 0.950 . S
C531 C526 1.363 . S
C531 C530 1.415 . S
H532 C529 0.999 . S
H533 C514 0.913 . S
H534 C552 0.951 . S
H535 C554 0.951 . S
H536 C556 0.950 . S
H537 C557 0.950 . S
H538 C559 0.950 . S
H539 C562 0.950 . S
H540 C563 0.950 . S
H541 C565 0.950 . S
H542 C566 0.950 . S
H543 C567 0.951 . S
H544 C569 0.951 . S
H545 C571 0.950 . S
H546 C572 0.950 . S
H547 C574 0.950 . S
H548 C577 0.950 . S
H549 C578 0.950 . S
H550 C580 0.950 . S
H551 C581 0.950 . S
C552 H534 0.951 . S
C552 C553 1.366 . S
C552 C554 1.388 . S
C553 C552 1.366 . S
C553 C557 1.385 . S
C554 H535 0.951 . S
C554 C552 1.388 . S
C554 C555 1.366 . S
C555 C554 1.366 . S
C555 C556 1.414 . S
C555 C558 1.499 . S
C556 H536 0.950 . S
C556 C555 1.414 . S
C556 C557 1.374 . S
C557 H537 0.950 . S
C557 C553 1.385 . S
C557 C556 1.374 . S
C558 C555 1.499 . S
C558 C559 1.373 1_545 S
C558 C560 1.389 . S
C559 H538 0.950 . S
C559 C558 1.373 1_565 S
C559 C575 1.377 . S
C560 C558 1.389 . S
C560 C561 1.524 . S
C560 C574 1.377 . S
C561 C560 1.524 . S
C561 C562 1.397 . S
C561 C566 1.363 . S
C562 H539 0.950 . S
C562 C561 1.397 . S
C562 C563 1.334 . S
C563 H540 0.950 . S
C563 C562 1.334 . S
C563 C564 1.287 . S
C564 C563 1.287 . S
C564 C565 1.524 . S
C564 H583 0.913 . S
C565 H541 0.950 . S
C565 C564 1.524 . S
C565 C566 1.415 . S
C566 H542 0.950 . S
C566 C561 1.363 . S
C566 C565 1.415 . S
C567 H543 0.951 . S
C567 C568 1.366 . S
C567 C569 1.388 . S
C568 C567 1.366 . S
C568 C572 1.385 . S
C569 H544 0.951 . S
C569 C567 1.388 . S
C569 C570 1.366 . S
C570 C569 1.366 . S
C570 C571 1.414 . S
C570 C573 1.499 . S
C571 H545 0.950 . S
C571 C570 1.414 . S
C571 C572 1.374 . S
C572 H546 0.950 . S
C572 C568 1.385 . S
C572 C571 1.374 . S
C573 C570 1.499 . S
C573 C574 1.373 1_565 S
C573 C575 1.389 . S
C574 H547 0.950 . S
C574 C560 1.377 . S
C574 C573 1.373 1_545 S
C575 C559 1.377 . S
C575 C573 1.389 . S
C575 C576 1.524 . S
C576 C575 1.524 . S
C576 C577 1.397 . S
C576 C581 1.363 . S
C577 H548 0.950 . S
C577 C576 1.397 . S
C577 C578 1.334 . S
C578 H549 0.950 . S
C578 C577 1.334 . S
C578 C579 1.287 . S
C579 C578 1.287 . S
C579 C580 1.524 . S
C579 H582 0.999 . S
C580 H550 0.950 . S
C580 C579 1.524 . S
C580 C581 1.415 . S
C581 H551 0.950 . S
C581 C576 1.363 . S
C581 C580 1.415 . S
H582 C579 0.999 . S
H583 C564 0.913 . S
H584 C602 0.951 . S
H585 C604 0.951 . S
H586 C606 0.950 . S
H587 C607 0.950 . S
H588 C609 0.950 . S
H589 C612 0.950 . S
H590 C613 0.950 . S
H591 C615 0.950 . S
H592 C616 0.950 . S
H593 C617 0.951 . S
H594 C619 0.951 . S
H595 C621 0.950 . S
H596 C622 0.950 . S
H597 C624 0.950 . S
H598 C627 0.950 . S
H599 C628 0.950 . S
H600 C630 0.950 . S
H601 C631 0.950 . S
C602 H584 0.951 . S
C602 C603 1.366 . S
C602 C604 1.388 . S
C603 C602 1.366 . S
C603 C607 1.385 . S
C604 H585 0.951 . S
C604 C602 1.388 . S
C604 C605 1.366 . S
C605 C604 1.366 . S
C605 C606 1.414 . S
C605 C608 1.499 . S
C606 H586 0.950 . S
C606 C605 1.414 . S
C606 C607 1.374 . S
C607 H587 0.950 . S
C607 C603 1.385 . S
C607 C606 1.374 . S
C608 C605 1.499 . S
C608 C609 1.373 1_556 S
C608 C610 1.389 . S
C609 H588 0.950 . S
C609 C608 1.373 1_554 S
C609 C625 1.377 . S
C610 C608 1.389 . S
C610 C611 1.524 . S
C610 C624 1.377 1_556 S
C611 C610 1.524 . S
C611 C612 1.397 . S
C611 C616 1.363 . S
C612 H589 0.950 . S
C612 C611 1.397 . S
C612 C613 1.334 . S
C613 H590 0.950 . S
C613 C612 1.334 . S
C613 C614 1.287 . S
C614 C613 1.287 . S
C614 C615 1.524 . S
C614 H633 0.913 . S
C615 H591 0.950 . S
C615 C614 1.524 . S
C615 C616 1.415 . S
C616 H592 0.950 . S
C616 C611 1.363 . S
C616 C615 1.415 . S
C617 H593 0.951 . S
C617 C618 1.366 . S
C617 C619 1.388 . S
C618 C617 1.366 . S
C618 C622 1.385 . S
C619 H594 0.951 . S
C619 C617 1.388 . S
C619 C620 1.366 . S
C620 C619 1.366 . S
C620 C621 1.414 . S
C620 C623 1.499 . S
C621 H595 0.950 . S
C621 C620 1.414 . S
C621 C622 1.374 . S
C622 H596 0.950 . S
C622 C618 1.385 . S
C622 C621 1.374 . S
C623 C620 1.499 . S
C623 C624 1.373 . S
C623 C625 1.389 . S
C624 H597 0.950 . S
C624 C610 1.377 1_554 S
C624 C623 1.373 . S
C625 C609 1.377 . S
C625 C623 1.389 . S
C625 C626 1.524 . S
C626 C625 1.524 . S
C626 C627 1.397 . S
C626 C631 1.363 . S
C627 H598 0.950 . S
C627 C626 1.397 . S
C627 C628 1.334 . S
C628 H599 0.950 . S
C628 C627 1.334 . S
C628 C629 1.287 . S
C629 C628 1.287 . S
C629 C630 1.524 . S
C629 H632 0.999 . S
C630 H600 0.950 . S
C630 C629 1.524 . S
C630 C631 1.415 . S
C631 H601 0.950 . S
C631 C626 1.363 . S
C631 C630 1.415 . S
H632 C629 0.999 . S
H633 C614 0.913 . S
H634 C652 0.951 . S
H635 C654 0.951 . S
H636 C656 0.950 . S
H637 C657 0.950 . S
H638 C659 0.950 . S
H639 C662 0.950 . S
H640 C663 0.950 . S
H641 C665 0.950 . S
H642 C666 0.950 . S
H643 C667 0.951 . S
H644 C669 0.951 . S
H645 C671 0.950 . S
H646 C672 0.950 . S
H647 C674 0.952 1_455 S
H648 C677 0.950 . S
H649 C678 0.950 . S
H650 C680 0.950 . S
H651 C681 0.950 . S
C652 H634 0.951 . S
C652 C653 1.366 . S
C652 C654 1.388 . S
C653 C652 1.366 . S
C653 C657 1.385 . S
C654 H635 0.951 . S
C654 C652 1.388 . S
C654 C655 1.366 . S
C655 C654 1.366 . S
C655 C656 1.414 . S
C655 C658 1.499 . S
C656 H636 0.950 . S
C656 C655 1.414 . S
C656 C657 1.374 . S
C657 H637 0.950 . S
C657 C653 1.385 . S
C657 C656 1.374 . S
C658 C655 1.499 . S
C658 C659 1.373 1_455 S
C658 C660 1.389 . S
C659 H638 0.950 . S
C659 C658 1.373 1_655 S
C659 C675 1.377 . S
C660 C658 1.389 . S
C660 C661 1.524 . S
C660 C674 1.377 1_455 S
C661 C660 1.524 . S
C661 C662 1.397 . S
C661 C666 1.363 . S
C662 H639 0.950 . S
C662 C661 1.397 . S
C662 C663 1.334 . S
C663 H640 0.950 . S
C663 C662 1.334 . S
C663 C664 1.287 . S
C664 C663 1.287 . S
C664 C665 1.524 . S
C664 H683 0.913 . S
C665 H641 0.950 . S
C665 C664 1.524 . S
C665 C666 1.415 . S
C666 H642 0.950 . S
C666 C661 1.363 . S
C666 C665 1.415 . S
C667 H643 0.951 . S
C667 C668 1.366 . S
C667 C669 1.388 . S
C668 C667 1.366 . S
C668 C672 1.385 . S
C669 H644 0.951 . S
C669 C667 1.388 . S
C669 C670 1.366 . S
C670 C669 1.366 . S
C670 C671 1.414 . S
C670 C673 1.499 . S
C671 H645 0.950 . S
C671 C670 1.414 . S
C671 C672 1.374 . S
C672 H646 0.950 . S
C672 C668 1.385 . S
C672 C671 1.374 . S
C673 C670 1.499 . S
C673 C674 1.373 . S
C673 C675 1.389 . S
C674 H647 0.952 1_655 S
C674 C660 1.377 1_655 S
C674 C673 1.373 . S
C675 C659 1.377 . S
C675 C673 1.389 . S
C675 C676 1.524 . S
C676 C675 1.524 . S
C676 C677 1.397 . S
C676 C681 1.363 . S
C677 H648 0.950 . S
C677 C676 1.397 . S
C677 C678 1.334 . S
C678 H649 0.950 . S
C678 C677 1.334 . S
C678 C679 1.287 . S
C679 C678 1.287 . S
C679 C680 1.524 . S
C679 H682 0.999 . S
C680 H650 0.950 . S
C680 C679 1.524 . S
C680 C681 1.415 . S
C681 H651 0.950 . S
C681 C676 1.363 . S
C681 C680 1.415 . S
H682 C679 0.999 . S
H683 C664 0.913 . S
C103 C7 0.852 . S
C118 C64 0.854 . S
C153 C21 0.831 . S
C168 C77 0.828 . S
C203 C8 0.850 . S
C218 C36 0.851 . S
C253 C50 0.852 . S
C268 C22 0.852 . S
C303 C63 0.829 . S
C318 C35 0.830 . S
C353 C49 0.853 . S
C368 C78 0.854 . S
C403 C55 1.248 . S
C418 C13 1.248 . S
C453 C67 1.363 . S
C468 C27 1.267 . S
C503 C83 1.259 . S
C518 C39 1.351 . S
C553 C11 1.345 . S
C568 C53 1.344 . S
C603 C25 1.351 . S
C618 C69 1.257 . S
C653 C81 1.363 . S
C668 C41 1.268 . S
