# Generated by pormake.
# Topology unb, (4)-cn, num edge types: 1
# Building blocks:
#     Node 0, Type 0, BuildingBlock: KUFVIS_clean_sbu_0, # of connection points: 4
#     Node 1, Type 0, BuildingBlock: KUFVIS_clean_sbu_0, # of connection points: 4
#     Node 2, Type 0, BuildingBlock: KUFVIS_clean_sbu_0, # of connection points: 4
#     Node 3, Type 0, BuildingBlock: KUFVIS_clean_sbu_0, # of connection points: 4
#     Node 4, Type 0, BuildingBlock: KUFVIS_clean_sbu_0, # of connection points: 4
#     Node 5, Type 0, BuildingBlock: KUFVIS_clean_sbu_0, # of connection points: 4
#     Node 6, Type 0, BuildingBlock: KUFVIS_clean_sbu_0, # of connection points: 4
#     Node 7, Type 0, BuildingBlock: KUFVIS_clean_sbu_0, # of connection points: 4
#     Node 8, Type 0, BuildingBlock: KUFVIS_clean_sbu_0, # of connection points: 4
#     Node 9, Type 0, BuildingBlock: KUFVIS_clean_sbu_0, # of connection points: 4
#     Node 10, Type 0, BuildingBlock: KUFVIS_clean_sbu_0, # of connection points: 4
#     Node 11, Type 0, BuildingBlock: KUFVIS_clean_sbu_0, # of connection points: 4
#     Node 12, Type 0, BuildingBlock: KUFVIS_clean_sbu_0, # of connection points: 4
#     Node 13, Type 0, BuildingBlock: KUFVIS_clean_sbu_0, # of connection points: 4
#     Node 14, Type 0, BuildingBlock: KUFVIS_clean_sbu_0, # of connection points: 4
#     Node 15, Type 0, BuildingBlock: KUFVIS_clean_sbu_0, # of connection points: 4
#     Node 16, Type 0, BuildingBlock: KUFVIS_clean_sbu_0, # of connection points: 4
#     Node 17, Type 0, BuildingBlock: KUFVIS_clean_sbu_0, # of connection points: 4
#     Edge 18, Type (0, 0), BuildingBlock: AJUNOK_clean_linker_0, # of connection points: 2
#     Edge 19, Type (0, 0), BuildingBlock: AJUNOK_clean_linker_0, # of connection points: 2
#     Edge 20, Type (0, 0), BuildingBlock: AJUNOK_clean_linker_0, # of connection points: 2
#     Edge 21, Type (0, 0), BuildingBlock: AJUNOK_clean_linker_0, # of connection points: 2
#     Edge 22, Type (0, 0), BuildingBlock: AJUNOK_clean_linker_0, # of connection points: 2
#     Edge 23, Type (0, 0), BuildingBlock: AJUNOK_clean_linker_0, # of connection points: 2
#     Edge 24, Type (0, 0), BuildingBlock: AJUNOK_clean_linker_0, # of connection points: 2
#     Edge 25, Type (0, 0), BuildingBlock: AJUNOK_clean_linker_0, # of connection points: 2
#     Edge 26, Type (0, 0), BuildingBlock: AJUNOK_clean_linker_0, # of connection points: 2
#     Edge 27, Type (0, 0), BuildingBlock: AJUNOK_clean_linker_0, # of connection points: 2
#     Edge 28, Type (0, 0), BuildingBlock: AJUNOK_clean_linker_0, # of connection points: 2
#     Edge 29, Type (0, 0), BuildingBlock: AJUNOK_clean_linker_0, # of connection points: 2
#     Edge 30, Type (0, 0), BuildingBlock: AJUNOK_clean_linker_0, # of connection points: 2
#     Edge 31, Type (0, 0), BuildingBlock: AJUNOK_clean_linker_0, # of connection points: 2
#     Edge 32, Type (0, 0), BuildingBlock: AJUNOK_clean_linker_0, # of connection points: 2
#     Edge 33, Type (0, 0), BuildingBlock: AJUNOK_clean_linker_0, # of connection points: 2
#     Edge 34, Type (0, 0), BuildingBlock: AJUNOK_clean_linker_0, # of connection points: 2
#     Edge 35, Type (0, 0), BuildingBlock: AJUNOK_clean_linker_0, # of connection points: 2
#     Edge 36, Type (0, 0), BuildingBlock: AJUNOK_clean_linker_0, # of connection points: 2
#     Edge 37, Type (0, 0), BuildingBlock: AJUNOK_clean_linker_0, # of connection points: 2
#     Edge 38, Type (0, 0), BuildingBlock: AJUNOK_clean_linker_0, # of connection points: 2
#     Edge 39, Type (0, 0), BuildingBlock: AJUNOK_clean_linker_0, # of connection points: 2
#     Edge 40, Type (0, 0), BuildingBlock: AJUNOK_clean_linker_0, # of connection points: 2
#     Edge 41, Type (0, 0), BuildingBlock: AJUNOK_clean_linker_0, # of connection points: 2
#     Edge 42, Type (0, 0), BuildingBlock: AJUNOK_clean_linker_0, # of connection points: 2
#     Edge 43, Type (0, 0), BuildingBlock: AJUNOK_clean_linker_0, # of connection points: 2
#     Edge 44, Type (0, 0), BuildingBlock: AJUNOK_clean_linker_0, # of connection points: 2
#     Edge 45, Type (0, 0), BuildingBlock: AJUNOK_clean_linker_0, # of connection points: 2
#     Edge 46, Type (0, 0), BuildingBlock: AJUNOK_clean_linker_0, # of connection points: 2
#     Edge 47, Type (0, 0), BuildingBlock: AJUNOK_clean_linker_0, # of connection points: 2
#     Edge 48, Type (0, 0), BuildingBlock: AJUNOK_clean_linker_0, # of connection points: 2
#     Edge 49, Type (0, 0), BuildingBlock: AJUNOK_clean_linker_0, # of connection points: 2
#     Edge 50, Type (0, 0), BuildingBlock: AJUNOK_clean_linker_0, # of connection points: 2
#     Edge 51, Type (0, 0), BuildingBlock: AJUNOK_clean_linker_0, # of connection points: 2
#     Edge 52, Type (0, 0), BuildingBlock: AJUNOK_clean_linker_0, # of connection points: 2
#     Edge 53, Type (0, 0), BuildingBlock: AJUNOK_clean_linker_0, # of connection points: 2
# Relax obj value: 0.075
# Max RMSD: 0.073
# Mean RMSD: 0.073
data_MOF--net-unb--node1-KUFVIS_clean_sbu_0--edge1-AJUNOK_clean_linker_0
_symmetry_space_group_name_H-M    P1
_symmetry_Int_Tables_number       1
_symmetry_cell_setting            triclinic
loop_
_symmetry_equiv_pos_as_xyz
'x, y, z'
_cell_length_a     47.424516
_cell_length_b     47.426157
_cell_length_c     17.82793
_cell_angle_alpha  89.963876
_cell_angle_beta   89.935935
_cell_angle_gamma 119.9516
loop_
_atom_site_label
_atom_site_type_symbol
_atom_site_fract_x
_atom_site_fract_y
_atom_site_fract_z
_atom_type_partial_charge
Mn0 Mn 0.16432 0.27727 0.07709 0.0
Mn1 Mn 0.14711 0.33758 0.04526 0.0
C2 C 0.17811 0.30608 0.96844 0.0
C3 C 0.19721 0.25306 0.08675 0.0
C4 C 0.09609 0.26627 0.04246 0.0
O5 O 0.16492 0.29332 0.18494 0.0
O6 O 0.14713 0.32863 0.15593 0.0
C7 C 0.20055 0.39439 0.11985 0.0
N8 N 0.1806 0.38155 0.05954 0.0
C9 C 0.18458 0.43312 0.03015 0.0
C10 C 0.20612 0.44698 0.09078 0.0
C11 C 0.21451 0.42772 0.13494 0.0
C12 C 0.17349 0.40032 1.01428 0.0
H13 H 0.20508 0.37906 0.1569 0.0
C14 C 0.15725 0.31501 0.20332 0.0
O15 O 0.16626 0.23707 0.10095 0.0
O16 O 0.21003 0.28443 0.08184 0.0
N17 N 0.14732 0.34998 0.94121 0.0
C18 C 0.12784 0.32646 0.8752 0.0
C19 C 0.10074 0.35274 0.79065 0.0
C20 C 0.11342 0.39251 0.82936 0.0
C21 C 0.13858 0.40555 0.90544 0.0
C22 C 0.15358 0.38503 0.95398 0.0
H23 H 0.12498 0.30209 0.87613 0.0
O24 O 0.16879 0.27527 0.96725 0.0
O25 O 0.17507 0.31856 0.03001 0.0
O26 O 0.11362 0.25528 0.06914 0.0
O27 O 0.10796 0.29611 0.02735 0.0
C28 C 0.15065 0.43755 0.92955 0.0
C29 C 0.17349 0.45105 0.98833 0.0
H30 H 0.21593 0.47239 0.10498 0.0
H31 H 0.2306 0.43828 0.18247 0.0
H32 H 0.08316 0.33968 0.73739 0.0
H33 H 0.104 0.37268 0.80084 0.0
H34 H 0.14306 0.4528 0.90093 0.0
H35 H 0.18226 0.47629 1.00271 0.0
Mn36 Mn 0.76785 0.89573 0.0795 0.0
Mn37 Mn 0.70622 0.81742 0.09351 0.0
C38 C 0.73684 0.86783 0.97682 0.0
C39 C 0.79005 0.95252 0.06656 0.0
C40 C 0.77779 0.83614 0.0854 0.0
O41 O 0.75658 0.89177 0.19355 0.0
O42 O 0.71693 0.83886 0.1911 0.0
C43 C 0.65188 0.8268 0.14457 0.0
N44 N 0.66441 0.81435 0.09426 0.0
C45 C 0.61244 0.78347 0.03336 0.0
C46 C 0.59902 0.79596 0.08459 0.0
C47 C 0.61889 0.8179 0.14009 0.0
C48 C 0.64557 0.79356 0.04004 0.0
H49 H 0.66681 0.84316 0.1882 0.0
C50 C 0.73402 0.86579 0.22519 0.0
O51 O 0.80775 0.9398 0.08504 0.0
O52 O 0.75885 0.93269 0.06537 0.0
N53 N 0.69249 0.79361 1.00186 0.0
C54 C 0.70881 0.78272 0.95895 0.0
C55 C 0.69207 0.75934 0.90374 0.0
C56 C 0.659 0.74823 0.89076 0.0
C57 C 0.64273 0.76012 0.93473 0.0
C58 C 0.66042 0.7825 0.99125 0.0
H59 H 0.73424 0.79117 0.96787 0.0
O60 O 0.76647 0.89143 0.96802 0.0
O61 O 0.72631 0.86019 0.04484 0.0
O62 O 0.78978 0.867 0.08572 0.0
O63 O 0.74728 0.81655 0.09122 0.0
C64 C 0.60941 0.74975 0.92663 0.0
C65 C 0.5943 0.76153 0.97574 0.0
H66 H 0.57355 0.78901 0.0816 0.0
H67 H 0.60872 0.82766 0.17983 0.0
H68 H 0.70452 0.74918 0.87347 0.0
H69 H 0.6462 0.72987 0.84855 0.0
H70 H 0.59514 0.73254 0.88323 0.0
H71 H 0.56866 0.75338 0.96905 0.0
Mn72 Mn 0.14892 0.87834 0.07883 0.0
Mn73 Mn 0.22658 0.89604 0.04702 0.0
C74 C 0.16421 0.86474 0.97033 0.0
C75 C 0.09192 0.84432 0.08866 0.0
C76 C 0.20588 0.94685 0.04429 0.0
O77 O 0.16439 0.87783 0.18675 0.0
O78 O 0.21756 0.89586 0.15777 0.0
C79 C 0.23055 0.84287 0.12184 0.0
N80 N 0.23743 0.86276 0.06136 0.0
C81 C 0.28516 0.85909 0.03153 0.0
C82 C 0.27772 0.83761 0.09236 0.0
C83 C 0.25012 0.8291 0.13684 0.0
C84 C 0.26329 0.87002 1.01586 0.0
H85 H 0.2107 0.83821 0.15908 0.0
C86 C 0.19376 0.88553 0.20515 0.0
O87 O 0.10604 0.87534 0.10191 0.0
O88 O 0.11122 0.83237 0.08409 0.0
N89 N 0.2387 0.89585 0.94287 0.0
C90 C 0.23425 0.91497 0.87646 0.0
C91 C 0.28729 0.94198 0.79068 0.0
C92 C 0.3147 0.92968 0.82935 0.0
C93 C 0.30301 0.90484 0.90612 0.0
C94 C 0.26767 0.88984 0.95541 0.0
H95 H 0.21266 0.91769 0.87758 0.0
O96 O 0.14255 0.87384 0.969 0.0
O97 O 0.17974 0.86794 0.03191 0.0
O98 O 0.1773 0.92915 0.07068 0.0
O99 O 0.22397 0.9351 0.02912 0.0
C100 C 0.32315 0.89296 0.93011 0.0
C101 C 0.3141 0.87025 0.98927 0.0
H102 H 0.29348 0.82794 0.10645 0.0
H103 H 0.24478 0.81306 0.1845 0.0
H104 H 0.2915 0.95932 0.73697 0.0
H105 H 0.30407 0.93888 0.80076 0.0
H106 H 0.3459 0.90055 0.90105 0.0
H107 H 0.3307 0.86161 1.0035 0.0
Mn108 Mn 0.2878 0.15661 0.95331 0.0
Mn109 Mn 0.34788 0.13928 0.98576 0.0
C110 C 0.31635 0.17022 0.06218 0.0
C111 C 0.26322 0.1892 0.94383 0.0
C112 C 0.27672 0.08826 0.98781 0.0
O113 O 0.30435 0.1578 0.84557 0.0
O114 O 0.33888 0.13908 0.87517 0.0
C115 C 0.40475 0.19256 0.91029 0.0
N116 N 0.39189 0.17272 0.97091 0.0
C117 C 0.44348 0.17688 1.00062 0.0
C118 C 0.45735 0.19827 0.93958 0.0
C119 C 0.43809 0.20653 0.89511 0.0
C120 C 0.41066 0.16576 0.01646 0.0
H121 H 0.38943 0.19703 0.87311 0.0
C122 C 0.32562 0.1495 0.82755 0.0
O123 O 0.2475 0.15831 0.92916 0.0
O124 O 0.29459 0.20221 0.94932 0.0
N125 N 0.36028 0.13971 0.08968 0.0
C126 C 0.33673 0.12041 0.15596 0.0
C127 C 0.36307 0.09376 0.24177 0.0
C128 C 0.4029 0.1064 0.20321 0.0
C129 C 0.41594 0.13128 0.12644 0.0
C130 C 0.39537 0.14601 0.07713 0.0
H131 H 0.31233 0.11748 0.15481 0.0
O132 O 0.28548 0.16066 0.06331 0.0
O133 O 0.32898 0.16734 1.00065 0.0
O134 O 0.26599 0.10586 0.96015 0.0
O135 O 0.3064 0.10013 1.00445 0.0
C136 C 0.44796 0.14334 0.1023 0.0
C137 C 0.46145 0.16597 0.04294 0.0
H138 H 0.48277 0.20809 0.92535 0.0
H139 H 0.44865 0.22251 0.8473 0.0
H140 H 0.35001 0.07636 0.29544 0.0
H141 H 0.38304 0.09705 0.23175 0.0
H142 H 0.46325 0.13592 0.13132 0.0
H143 H 0.4867 0.17476 0.02858 0.0
Mn144 Mn 0.88698 0.13951 0.94359 0.0
Mn145 Mn 0.9046 0.21706 0.97571 0.0
C146 C 0.87295 0.15446 0.05264 0.0
C147 C 0.8532 0.0829 0.93006 0.0
C148 C 0.95541 0.19618 0.97883 0.0
O149 O 0.88736 0.15557 0.83602 0.0
O150 O 0.90397 0.20839 0.86501 0.0
C151 C 0.85043 0.2207 0.90496 0.0
N152 N 0.87127 0.22794 0.96346 0.0
C153 C 0.86797 0.27569 0.99487 0.0
C154 C 0.84574 0.26812 0.93569 0.0
C155 C 0.83652 0.24029 0.89154 0.0
C156 C 0.87909 0.25387 1.00892 0.0
H157 H 0.84538 0.20076 0.86771 0.0
C158 C 0.89457 0.18478 0.81777 0.0
O159 O 0.88434 0.09718 0.91838 0.0
O160 O 0.8411 0.10204 0.93588 0.0
N161 N 0.90494 0.22883 0.07987 0.0
C162 C 0.92348 0.22351 0.14621 0.0
C163 C 0.95032 0.27577 0.23397 0.0
C164 C 0.93862 0.30379 0.19601 0.0
C165 C 0.91426 0.29298 0.11876 0.0
C166 C 0.8993 0.25807 0.06828 0.0
H167 H 0.92584 0.20171 0.14457 0.0
O168 O 0.88142 0.13231 0.05324 0.0
O169 O 0.87653 0.17019 0.99103 0.0
O170 O 0.93768 0.16738 0.95407 0.0
O171 O 0.94375 0.21453 0.99161 0.0
C172 C 0.90249 0.31335 0.09583 0.0
C173 C 0.87953 0.30459 0.03738 0.0
H174 H 0.83591 0.28384 0.92281 0.0
H175 H 0.81985 0.23481 0.84522 0.0
H176 H 0.96726 0.27938 0.28799 0.0
H177 H 0.94747 0.29275 0.22432 0.0
H178 H 0.91018 0.33595 0.12553 0.0
H179 H 0.87082 0.32124 0.02428 0.0
Mn180 Mn 0.90479 0.75594 0.96099 0.0
Mn181 Mn 0.82751 0.69563 0.994 0.0
C182 C 0.89035 0.72648 0.06927 0.0
C183 C 0.96175 0.77929 0.94888 0.0
C184 C 0.84783 0.7671 1.00002 0.0
O185 O 0.88853 0.74039 0.85267 0.0
O186 O 0.83595 0.70448 0.88375 0.0
C187 C 0.8233 0.63865 0.91814 0.0
N188 N 0.81679 0.65161 0.97925 0.0
C189 C 0.76903 0.60037 1.00941 0.0
C190 C 0.77612 0.58635 0.94799 0.0
C191 C 0.80355 0.60538 0.903 0.0
C192 C 0.79111 0.63307 0.02515 0.0
H193 H 0.84296 0.65386 0.88047 0.0
C194 C 0.85912 0.71844 0.83524 0.0
O195 O 0.94733 0.79605 0.93742 0.0
O196 O 0.94268 0.748 0.95262 0.0
N197 N 0.81602 0.68348 0.09796 0.0
C198 C 0.82065 0.70723 0.16393 0.0
C199 C 0.76782 0.6815 0.25027 0.0
C200 C 0.7403 0.64177 0.21204 0.0
C201 C 0.75177 0.62841 0.13543 0.0
C202 C 0.78699 0.64855 0.08582 0.0
H203 H 0.84225 0.7315 0.16238 0.0
O204 O 0.91202 0.7572 0.07059 0.0
O205 O 0.87447 0.71444 1.00793 0.0
O206 O 0.87648 0.77844 0.97356 0.0
O207 O 0.82981 0.73705 1.01242 0.0
C208 C 0.73145 0.59645 0.1116 0.0
C209 C 0.7402 0.58272 0.05209 0.0
H210 H 0.76019 0.561 0.93379 0.0
H211 H 0.80858 0.59472 0.85481 0.0
H212 H 0.76374 0.69477 0.30381 0.0
H213 H 0.75103 0.66164 0.24039 0.0
H214 H 0.70873 0.58144 0.1409 0.0
H215 H 0.72345 0.55755 0.03786 0.0
Mn216 Mn 0.83191 0.61128 0.4196 0.0
Mn217 Mn 0.81614 0.67235 0.38691 0.0
C218 C 0.84568 0.63981 0.30985 0.0
C219 C 0.86449 0.58665 0.42787 0.0
C220 C 0.76383 0.60153 0.3879 0.0
O221 O 0.83373 0.62819 0.52737 0.0
O222 O 0.81677 0.66415 0.4977 0.0
C223 C 0.87096 0.72963 0.45735 0.0
N224 N 0.84999 0.71631 0.39901 0.0
C225 C 0.854 0.76773 0.36788 0.0
C226 C 0.87635 0.78207 0.42693 0.0
C227 C 0.88528 0.76313 0.47085 0.0
C228 C 0.84243 0.73473 0.35376 0.0
H229 H 0.87581 0.71452 0.49441 0.0
C230 C 0.82648 0.65025 0.54524 0.0
O231 O 0.83362 0.57085 0.44316 0.0
O232 O 0.87744 0.618 0.42273 0.0
N233 N 0.81582 0.68393 0.28281 0.0
C234 C 0.7969 0.66022 0.2166 0.0
C235 C 0.77052 0.68639 0.1292 0.0
C236 C 0.78283 0.72618 0.16731 0.0
C237 C 0.8074 0.73939 0.24434 0.0
C238 C 0.82201 0.71899 0.29453 0.0
H239 H 0.79411 0.63589 0.21819 0.0
O240 O 0.83571 0.60886 0.30934 0.0
O241 O 0.84326 0.65257 0.37156 0.0
O242 O 0.78091 0.58989 0.41405 0.0
O243 O 0.77672 0.63119 0.37055 0.0
C244 C 0.81967 0.77159 0.26729 0.0
C245 C 0.84275 0.78544 0.32559 0.0
H246 H 0.88652 0.80765 0.43988 0.0
H247 H 0.90206 0.7741 0.51706 0.0
H248 H 0.75343 0.67329 0.07528 0.0
H249 H 0.77368 0.70633 0.1389 0.0
H250 H 0.81227 0.78678 0.23773 0.0
H251 H 0.85183 0.81084 0.33873 0.0
Mn252 Mn 0.43158 0.22863 0.41125 0.0
Mn253 Mn 0.37172 0.15103 0.37875 0.0
C254 C 0.40302 0.21332 0.3019 0.0
C255 C 0.45474 0.2857 0.42067 0.0
C256 C 0.44311 0.17151 0.378 0.0
O257 O 0.41515 0.21297 0.5192 0.0
O258 O 0.37997 0.15999 0.48927 0.0
C259 C 0.31408 0.14755 0.45028 0.0
N260 N 0.32755 0.14022 0.39152 0.0
C261 C 0.2764 0.09253 0.36076 0.0
C262 C 0.26191 0.10021 0.42023 0.0
C263 C 0.28063 0.12804 0.4642 0.0
C264 C 0.30932 0.11425 0.34627 0.0
H265 H 0.32904 0.1675 0.48738 0.0
C266 C 0.39356 0.18348 0.53709 0.0
O267 O 0.47145 0.27142 0.43457 0.0
O268 O 0.4235 0.26652 0.41576 0.0
N269 N 0.36007 0.13899 0.27467 0.0
C270 C 0.38379 0.14405 0.2081 0.0
C271 C 0.35812 0.09162 0.12075 0.0
C272 C 0.31843 0.06381 0.15904 0.0
C273 C 0.30505 0.07487 0.23644 0.0
C274 C 0.32516 0.10988 0.28666 0.0
H275 H 0.40797 0.16578 0.20943 0.0
O276 O 0.43371 0.23509 0.30125 0.0
O277 O 0.39059 0.19788 0.36359 0.0
O278 O 0.45396 0.20013 0.40397 0.0
O279 O 0.41337 0.15352 0.36232 0.0
C280 C 0.27293 0.05468 0.25974 0.0
C281 C 0.25893 0.06362 0.31841 0.0
H282 H 0.23639 0.08456 0.43348 0.0
H283 H 0.26956 0.1336 0.51074 0.0
H284 H 0.37135 0.08785 0.06662 0.0
H285 H 0.33828 0.07471 0.13053 0.0
H286 H 0.25792 0.03208 0.23021 0.0
H287 H 0.23359 0.04707 0.33184 0.0
Mn288 Mn 0.81583 0.21227 0.4032 0.0
Mn289 Mn 0.89259 0.22838 0.36891 0.0
C290 C 0.83016 0.19825 0.2936 0.0
C291 C 0.75878 0.17968 0.41441 0.0
C292 C 0.87381 0.28026 0.37006 0.0
O293 O 0.83117 0.21085 0.51021 0.0
O294 O 0.88417 0.22886 0.47987 0.0
C295 C 0.89586 0.1749 0.4443 0.0
N296 N 0.90286 0.19471 0.38363 0.0
C297 C 0.95012 0.19027 0.35347 0.0
C298 C 0.94257 0.1689 0.41457 0.0
C299 C 0.91513 0.1608 0.45929 0.0
C300 C 0.92849 0.2015 0.3378 0.0
H301 H 0.87616 0.17059 0.4817 0.0
C302 C 0.86057 0.21855 0.5278 0.0
O303 O 0.77392 0.21065 0.42841 0.0
O304 O 0.77717 0.16675 0.40782 0.0
N305 N 0.9043 0.22775 0.26482 0.0
C306 C 0.90018 0.24724 0.19881 0.0
C307 C 0.95322 0.27382 0.11292 0.0
C308 C 0.98024 0.26093 0.15123 0.0
C309 C 0.96827 0.23592 0.22775 0.0
C310 C 0.93298 0.22126 0.27712 0.0
H311 H 0.87882 0.25035 0.20021 0.0
O312 O 0.80925 0.20834 0.2931 0.0
O313 O 0.84569 0.20087 0.35485 0.0
O314 O 0.84544 0.26313 0.39792 0.0
O315 O 0.89035 0.26746 0.34977 0.0
C316 C 0.98815 0.22372 0.25168 0.0
C317 C 0.97895 0.20106 0.31098 0.0
H318 H 0.95812 0.159 0.42868 0.0
H319 H 0.90971 0.14484 0.50715 0.0
H320 H 0.95765 0.29133 0.05945 0.0
H321 H 0.96984 0.27042 0.12282 0.0
H322 H 1.01084 0.23108 0.22255 0.0
H323 H 0.99535 0.19218 0.32521 0.0
Mn324 Mn 0.95482 0.49062 0.2891 0.0
Mn325 Mn 1.01559 0.47438 0.32144 0.0
C326 C 0.98331 0.50403 0.39867 0.0
C327 C 0.92995 0.52301 0.2814 0.0
C328 C 0.94493 0.42242 0.31939 0.0
O329 O 0.9718 0.49279 0.18146 0.0
O330 O 1.00716 0.47501 0.21073 0.0
C331 C 0.07289 0.52902 0.25008 0.0
N332 N 0.05961 0.50809 0.30868 0.0
C333 C 0.11114 0.51241 0.33989 0.0
C334 C 0.12541 0.53468 0.2805 0.0
C335 C 0.1064 0.54342 0.2364 0.0
C336 C 0.07811 0.5007 0.35412 0.0
H337 H 0.05775 0.53378 0.21298 0.0
C338 C 0.99349 0.48507 0.16337 0.0
O339 O 0.91434 0.4922 0.26568 0.0
O340 O 0.9613 0.53607 0.28696 0.0
N341 N 0.0273 0.47399 0.42541 0.0
C342 C 1.00361 0.45504 0.49181 0.0
C343 C 0.03001 0.42909 0.57986 0.0
C344 C 0.06992 0.44163 0.54189 0.0
C345 C 0.08303 0.46607 0.46437 0.0
C346 C 0.06245 0.48038 0.41374 0.0
H347 H 0.97922 0.45212 0.4902 0.0
O348 O 0.95232 0.49395 0.39948 0.0
O349 O 0.99608 0.50173 0.33685 0.0
O350 O 0.93359 0.43969 0.29289 0.0
O351 O 0.97433 0.43513 0.33862 0.0
C352 C 0.11524 0.47847 0.44125 0.0
C353 C 0.12898 0.50142 0.3825 0.0
H354 H 0.15101 0.54494 0.26746 0.0
H355 H 0.11732 0.56016 0.18997 0.0
H356 H 1.01693 0.41204 0.63398 0.0
H357 H 0.05002 0.43238 0.57029 0.0
H358 H 0.13054 0.47126 0.47099 0.0
H359 H 0.1544 0.51061 0.36925 0.0
Mn360 Mn 0.55443 0.47336 0.29083 0.0
Mn361 Mn 0.57016 0.5503 0.32344 0.0
C362 C 0.54077 0.48818 0.40041 0.0
C363 C 0.5207 0.41621 0.28137 0.0
C364 C 0.62247 0.53151 0.32361 0.0
O365 O 0.55296 0.48865 0.18317 0.0
O366 O 0.56966 0.5415 0.21231 0.0
C367 C 0.51511 0.5521 0.25218 0.0
N368 N 0.53606 0.56007 0.31073 0.0
C369 C 0.53092 0.60686 0.34141 0.0
C370 C 0.5087 0.59857 0.28196 0.0
C371 C 0.50033 0.57084 0.2382 0.0
C372 C 0.54302 0.58587 0.35599 0.0
H373 H 0.5106 0.5322 0.21532 0.0
C374 C 0.55972 0.51777 0.16496 0.0
O375 O 0.55172 0.43053 0.26772 0.0
O376 O 0.50863 0.43537 0.28647 0.0
N377 N 0.57016 0.56233 0.42782 0.0
C378 C 0.58884 0.55778 0.49511 0.0
C379 C 0.61335 0.60987 0.5838 0.0
C380 C 0.60046 0.63685 0.54525 0.0
C381 C 0.57666 0.62543 0.46683 0.0
C382 C 0.56322 0.59074 0.41589 0.0
H383 H 0.59221 0.53658 0.49379 0.0
O384 O 0.55038 0.46691 0.40081 0.0
O385 O 0.54328 0.50344 0.33875 0.0
O386 O 0.60543 0.50276 0.29754 0.0
O387 O 0.60961 0.54845 0.34015 0.0
C388 C 0.56427 0.6451 0.44269 0.0
C389 C 0.54155 0.6357 0.38359 0.0
H390 H 0.49817 0.61365 0.26867 0.0
H391 H 0.48359 0.56478 0.19178 0.0
H392 H 0.63009 0.61397 0.63851 0.0
H393 H 0.60977 0.62637 0.57401 0.0
H394 H 0.57138 0.66769 0.47179 0.0
H395 H 0.53225 0.65179 0.36976 0.0
Mn396 Mn 0.57045 0.0887 0.29191 0.0
Mn397 Mn 0.4931 0.02849 0.32484 0.0
C398 C 0.55545 0.06021 0.40152 0.0
C399 C 0.62746 0.11325 0.28081 0.0
C400 C 0.51312 0.09978 0.32554 0.0
O401 O 0.55496 0.07211 0.18458 0.0
O402 O 0.50187 0.03673 0.21391 0.0
C403 C 0.49022 0.97107 0.25373 0.0
N404 N 0.48268 0.98442 0.31234 0.0
C405 C 0.43539 0.93301 0.34394 0.0
C406 C 0.44326 0.91867 0.28451 0.0
C407 C 0.47101 0.93758 0.24023 0.0
C408 C 0.45683 0.96601 0.35797 0.0
H409 H 0.51013 0.98614 0.21649 0.0
C410 C 0.52564 0.05032 0.16657 0.0
O411 O 0.61219 0.12892 0.26657 0.0
O412 O 0.60922 0.08189 0.28717 0.0
N413 N 0.48122 1.01676 0.42908 0.0
C414 C 0.4862 0.04039 0.49563 0.0
C415 C 0.43401 1.01427 0.58407 0.0
C416 C 0.40641 0.97448 0.54623 0.0
C417 C 0.4175 0.96131 0.46854 0.0
C418 C 0.45234 0.98172 0.41762 0.0
H419 H 0.50776 0.06469 0.49389 0.0
O420 O 0.57701 0.09101 0.40184 0.0
O421 O 0.54004 0.04763 0.33995 0.0
O422 O 0.54164 0.1106 0.29912 0.0
O423 O 0.49513 0.07001 0.34128 0.0
C424 C 0.39754 0.92913 0.44559 0.0
C425 C 0.4066 0.9153 0.38677 0.0
H426 H 0.42784 0.89309 0.27161 0.0
H427 H 0.47674 0.92661 0.19378 0.0
H428 H 0.4302 0.02738 0.63834 0.0
H429 H 0.4172 0.99434 0.57459 0.0
H430 H 0.37505 0.91393 0.47555 0.0
H431 H 0.39026 0.88991 0.37368 0.0
Mn432 Mn 0.49946 0.94445 0.75159 0.0
Mn433 Mn 0.48222 1.00486 0.71829 0.0
C434 C 0.514 0.97354 0.64269 0.0
C435 C 0.5328 0.92076 0.76745 0.0
C436 C 0.4312 0.93341 0.71483 0.0
O437 O 0.49883 0.96017 0.85908 0.0
O438 O 0.48218 0.99626 0.82901 0.0
C439 C 0.53543 0.0619 0.79262 0.0
N440 N 0.51559 0.0489 0.7322 0.0
C441 C 0.5191 0.10022 0.70241 0.0
C442 C 0.54058 0.11427 0.76309 0.0
C443 C 0.54914 0.09522 0.80752 0.0
C444 C 0.50828 0.06745 0.68677 0.0
H445 H 0.54003 0.0467 0.82993 0.0
C446 C 0.49161 0.98223 0.87687 0.0
O447 O 0.50156 0.90437 0.77754 0.0
O448 O 0.54524 0.95201 0.76056 0.0
N449 N 0.48244 1.017 0.61409 0.0
C450 C 0.46313 0.99334 0.54815 0.0
C451 C 0.43577 0.0192 0.46303 0.0
C452 C 0.44811 0.05893 0.50144 0.0
C453 C 0.47318 0.07221 0.57767 0.0
C454 C 0.4884 0.05197 0.62657 0.0
H455 H 0.46046 0.96905 0.54933 0.0
O456 O 0.50532 0.94287 0.64199 0.0
O457 O 0.5103 0.98579 0.70395 0.0
O458 O 0.44876 0.92223 0.74052 0.0
O459 O 0.44305 0.96335 0.70098 0.0
C460 C 0.48501 0.10421 0.60156 0.0
C461 C 0.5078 0.11792 0.66038 0.0
H462 H 0.55018 0.13967 0.77714 0.0
H463 H 0.56514 0.10592 0.85513 0.0
H464 H 0.41828 1.00599 0.40971 0.0
H465 H 0.43886 0.03908 0.47304 0.0
H466 H 0.47727 0.11929 0.57273 0.0
H467 H 0.51637 0.14313 0.67458 0.0
Mn468 Mn 0.09898 0.56299 0.7471 0.0
Mn469 Mn 0.03878 0.4859 0.71415 0.0
C470 C 0.06999 0.54853 0.6385 0.0
C471 C 0.12362 0.62009 0.757 0.0
C472 C 0.10989 0.50567 0.71155 0.0
O473 O 0.08273 0.54723 0.8551 0.0
O474 O 0.04759 0.49439 0.82448 0.0
C475 C 0.98164 0.48161 0.78982 0.0
N476 N 0.99472 0.47514 0.72885 0.0
C477 C 0.9436 0.42721 0.69911 0.0
C478 C 0.92945 0.43426 0.76033 0.0
C479 C 0.94836 0.46176 0.80504 0.0
C480 C 0.97628 0.44938 0.68321 0.0
H481 H 0.99676 0.50131 0.82732 0.0
C482 C 0.06111 0.51771 0.8727 0.0
O483 O 0.13937 0.60486 0.77102 0.0
O484 O 0.09222 0.60181 0.75241 0.0
N485 N 0.02672 0.47443 0.61025 0.0
C486 C 0.05058 0.47913 0.54433 0.0
C487 C 1.02524 0.4262 0.45881 0.0
C488 C 0.98552 0.39853 0.49721 0.0
C489 C 0.97196 0.40998 0.57357 0.0
C490 C 0.99188 0.44529 0.62269 0.0
H491 H 0.07479 0.50081 0.54569 0.0
O492 O 0.10088 0.56972 0.63708 0.0
O493 O 0.05761 0.53284 0.69997 0.0
O494 O 0.12087 0.53408 0.73873 0.0
O495 O 0.08015 0.48803 0.69568 0.0
C496 C 0.94 0.38956 0.59756 0.0
C497 C 0.92611 0.3983 0.65679 0.0
H498 H 0.90411 0.41827 0.77462 0.0
H499 H 0.93761 0.46677 0.85309 0.0
H500 H 0.03863 0.42215 0.40543 0.0
H501 H 1.00542 0.40932 0.46883 0.0
H502 H 0.9251 0.36678 0.56858 0.0
H503 H 0.90095 0.38147 0.67115 0.0
Mn504 Mn 0.47779 0.54099 0.74808 0.0
Mn505 Mn 0.55614 0.5613 0.71673 0.0
C506 C 0.49368 0.52809 0.63985 0.0
C507 C 0.42089 0.50765 0.75816 0.0
C508 C 0.53302 0.60995 0.71094 0.0
O509 O 0.49356 0.54092 0.85601 0.0
O510 O 0.54718 0.56155 0.82748 0.0
C511 C 0.56114 0.50894 0.79317 0.0
N512 N 0.5678 0.52867 0.73245 0.0
C513 C 0.61624 0.52615 0.7039 0.0
C514 C 0.60911 0.50489 0.76505 0.0
C515 C 0.58124 0.49585 0.80897 0.0
C516 C 0.5938 0.53626 0.68729 0.0
H517 H 0.54104 0.50389 0.82992 0.0
C518 C 0.52324 0.55 0.87463 0.0
O519 O 0.4356 0.53852 0.77266 0.0
O520 O 0.43966 0.49502 0.75296 0.0
N521 N 0.56832 0.56086 0.61294 0.0
C522 C 0.56369 0.57987 0.54656 0.0
C523 C 0.61723 0.60837 0.46289 0.0
C524 C 0.64509 0.59684 0.50242 0.0
C525 C 0.63347 0.5717 0.57843 0.0
C526 C 0.59778 0.55571 0.62641 0.0
H527 H 0.54173 0.58196 0.54704 0.0
O528 O 0.47135 0.53632 0.63835 0.0
O529 O 0.50936 0.53176 0.70149 0.0
O530 O 0.505 0.59144 0.73878 0.0
O531 O 0.55275 0.60006 0.69715 0.0
C532 C 0.65419 0.56064 0.60317 0.0
C533 C 0.64543 0.53797 0.66231 0.0
H534 H 0.62529 0.49582 0.77982 0.0
H535 H 0.57609 0.47996 0.85684 0.0
H536 H 0.6214 0.62584 0.40948 0.0
H537 H 0.63422 0.60572 0.4736 0.0
H538 H 0.67722 0.56892 0.57484 0.0
H539 H 0.66248 0.52998 0.67723 0.0
Mn540 Mn 0.61974 0.81715 0.62345 0.0
Mn541 Mn 0.67464 0.7943 0.59461 0.0
C542 C 0.64911 0.81444 0.72586 0.0
C543 C 0.59806 0.85214 0.64697 0.0
C544 C 0.60604 0.74588 0.62412 0.0
O545 O 0.63367 0.83225 0.51135 0.0
O546 O 0.64704 0.79536 0.51411 0.0
C547 C 0.71728 0.86413 0.54899 0.0
N548 N 0.71367 0.83478 0.56989 0.0
C549 C 0.77178 0.85949 0.58539 0.0
C550 C 0.77594 0.88785 0.55091 0.0
C551 C 0.74847 0.89061 0.53519 0.0
C552 C 0.7399 0.83375 0.5961 0.0
H553 H 0.6967 0.86779 0.54467 0.0
C554 C 0.64895 0.81952 0.48075 0.0
O555 O 0.58042 0.82279 0.62171 0.0
O556 O 0.62901 0.86242 0.65163 0.0
N557 N 0.7023 0.78783 0.662 0.0
C558 C 0.69413 0.76039 0.70245 0.0
C559 C 0.71862 0.75464 0.72934 0.0
C560 C 0.75143 0.77761 0.71689 0.0
C561 C 0.75938 0.80516 0.67338 0.0
C562 C 0.73382 0.80836 0.64332 0.0
H563 H 0.66906 0.74212 0.71099 0.0
O564 O 0.61919 0.80792 0.73183 0.0
O565 O 0.66109 0.81989 0.65837 0.0
O566 O 0.5966 0.76611 0.60495 0.0
O567 O 0.63609 0.75409 0.6272 0.0
C568 C 0.79168 0.82931 0.65769 0.0
C569 C 0.79789 0.85675 0.61466 0.0
H570 H 0.80003 0.90851 0.5418 0.0
H571 H 0.75133 0.91342 0.51496 0.0
H572 H 0.7122 0.7323 0.75893 0.0
H573 H 0.77025 0.77346 0.73947 0.0
H574 H 0.8119 0.82745 0.68019 0.0
H575 H 0.82277 0.87603 0.60621 0.0
Mn576 Mn 0.2216 0.80674 0.62169 0.0
Mn577 Mn 0.23903 0.88431 0.6535 0.0
C578 C 0.20852 0.8221 0.731 0.0
C579 C 0.18854 0.74966 0.61262 0.0
C580 C 0.2901 0.86391 0.65465 0.0
O581 O 0.22031 0.82209 0.51404 0.0
O582 O 0.23826 0.87528 0.5426 0.0
C583 C 0.18442 0.88716 0.58269 0.0
N584 N 0.20543 0.89483 0.64101 0.0
C585 C 0.20138 0.94224 0.6718 0.0
C586 C 0.17906 0.93425 0.61266 0.0
C587 C 0.17012 0.90637 0.56895 0.0
C588 C 0.21295 0.9208 0.68617 0.0
H589 H 0.17948 0.86713 0.54586 0.0
C590 C 0.22786 0.85142 0.49559 0.0
O591 O 0.21941 0.76451 0.59758 0.0
O592 O 0.17583 0.76831 0.61821 0.0
N593 N 0.23937 0.89648 0.75771 0.0
C594 C 0.25809 0.89165 0.82441 0.0
C595 C 0.28432 0.94412 0.91168 0.0
C596 C 0.27211 0.97166 0.87327 0.0
C597 C 0.24774 0.96038 0.79586 0.0
C598 C 0.23323 0.92539 0.74568 0.0
H599 H 0.26079 0.87005 0.82316 0.0
O600 O 0.21763 0.80044 0.73163 0.0
O601 O 0.21127 0.83742 0.66926 0.0
O602 O 0.27238 0.83536 0.62842 0.0
O603 O 0.27835 0.882 0.66982 0.0
C604 C 0.23554 0.98035 0.77253 0.0
C605 C 0.21256 0.97116 0.71401 0.0
H606 H 0.1689 0.94967 0.59955 0.0
H607 H 0.15333 0.90054 0.52274 0.0
H608 H 0.30129 0.94805 0.96584 0.0
H609 H 0.28119 0.96092 0.90184 0.0
H610 H 0.2429 1.00293 0.80199 0.0
H611 H 0.2035 0.9875 0.70064 0.0
Mn612 Mn 0.23548 0.42114 0.61925 0.0
Mn613 Mn 0.15788 0.36155 0.65176 0.0
C614 C 0.2201 0.39281 0.72864 0.0
C615 C 0.29242 0.4446 0.61007 0.0
C616 C 0.17868 0.4331 0.65279 0.0
O617 O 0.22008 0.40458 0.51184 0.0
O618 O 0.16683 0.36969 0.54074 0.0
C619 C 0.15447 0.30382 0.58098 0.0
N620 N 0.14704 0.31735 0.63942 0.0
C621 C 0.09956 0.26613 0.67127 0.0
C622 C 0.10729 0.25161 0.61199 0.0
C623 C 0.13508 0.27033 0.56768 0.0
C624 C 0.12115 0.29911 0.68509 0.0
H625 H 0.17443 0.31874 0.54374 0.0
C626 C 0.19073 0.38296 0.49361 0.0
O627 O 0.27782 0.46086 0.59479 0.0
O628 O 0.27361 0.41329 0.61547 0.0
N629 N 0.14591 0.34991 0.75612 0.0
C630 C 0.15117 0.37355 0.8229 0.0
C631 C 0.09906 0.3477 0.91166 0.0
C632 C 0.07119 0.30802 0.87372 0.0
C633 C 0.08203 0.29475 0.79582 0.0
C634 C 0.11683 0.31497 0.74469 0.0
H635 H 0.17285 0.39776 0.82119 0.0
O636 O 0.24186 0.42353 0.72909 0.0
O637 O 0.2047 0.3803 0.66705 0.0
O638 O 0.20718 0.4437 0.62624 0.0
O639 O 0.16045 0.40331 0.66811 0.0
C640 C 0.06188 0.26259 0.77298 0.0
C641 C 0.07077 0.2486 0.7142 0.0
H642 H 0.09175 0.22603 0.59927 0.0
H643 H 0.14071 0.25921 0.52138 0.0
H644 H 0.09545 0.36084 0.9661 0.0
H645 H 0.08215 0.32784 0.90215 0.0
H646 H 0.0394 0.24751 0.80308 0.0
H647 H 0.05431 0.22322 0.70125 0.0
C648 C 0.15489 0.36031 0.3792 0.0
C649 C 0.18393 0.36793 0.41698 0.0
C650 C 0.14585 0.34221 0.31189 0.0
C651 C 0.16465 0.32958 0.2807 0.0
H652 H 0.13902 0.36853 0.4018 0.0
H653 H 0.12385 0.3381 0.28389 0.0
S654 S 0.24203 0.34091 0.35998 0.0
N655 N 0.23103 0.36053 0.41897 0.0
N656 N 0.21368 0.32589 0.29441 0.0
C657 C 0.19337 0.33638 0.31899 0.0
C658 C 0.20306 0.35564 0.38636 0.0
C659 C 0.67863 0.8628 0.37905 0.0
C660 C 0.67329 0.83454 0.4176 0.0
C661 C 0.70269 0.87701 0.32215 0.0
C662 C 0.72321 0.86433 0.30386 0.0
H663 H 0.66341 0.87329 0.39096 0.0
H664 H 0.70352 0.89641 0.28841 0.0
S665 S 0.72221 0.79322 0.39234 0.0
N666 N 0.69207 0.79528 0.43303 0.0
N667 N 0.73873 0.82426 0.33379 0.0
C668 C 0.71994 0.83804 0.34648 0.0
C669 C 0.69443 0.82231 0.40028 0.0
C670 C 0.24131 0.8872 0.38072 0.0
C671 C 0.21971 0.85826 0.41881 0.0
C672 C 0.23236 0.89642 0.31343 0.0
C673 C 0.20087 0.87793 0.28251 0.0
H674 H 0.26544 0.90287 0.40311 0.0
H675 H 0.25036 0.91833 0.28525 0.0
S676 S 0.13442 0.80095 0.36272 0.0
N677 N 0.16503 0.81161 0.42141 0.0
N678 N 0.14794 0.82928 0.29691 0.0
C679 C 0.17881 0.84931 0.32111 0.0
C680 C 0.18826 0.83943 0.38848 0.0
C681 C 0.3701 0.19669 0.65047 0.0
C682 C 0.379 0.17578 0.61444 0.0
C683 C 0.351 0.18721 0.71665 0.0
C684 C 0.34025 0.15656 0.75034 0.0
H685 H 0.37712 0.22023 0.62613 0.0
H686 H 0.3454 0.20445 0.74285 0.0
S687 S 0.35704 0.09282 0.67928 0.0
N688 N 0.3751 0.12274 0.61785 0.0
N689 N 0.34051 0.10559 0.74259 0.0
C690 C 0.34928 0.13563 0.71525 0.0
C691 C 0.36819 0.14501 0.64742 0.0
C692 C 0.89951 0.22927 0.63499 0.0
C693 C 0.86787 0.21101 0.60482 0.0
C694 C 0.90844 0.2201 0.70233 0.0
C695 C 0.88661 0.19146 0.74097 0.0
H696 H 0.91762 0.25095 0.60629 0.0
H697 H 0.93268 0.23558 0.72437 0.0
S698 S 0.80085 0.13495 0.6871 0.0
N699 N 0.81453 0.16298 0.62059 0.0
N700 N 0.83161 0.1454 0.7452 0.0
C701 C 0.85501 0.17288 0.71141 0.0
C702 C 0.84559 0.1827 0.64406 0.0
C703 C 0.87444 0.69974 0.71623 0.0
C704 C 0.85126 0.70364 0.75786 0.0
C705 C 0.86579 0.68062 0.65018 0.0
C706 C 0.83365 0.66474 0.62234 0.0
H707 H 0.89931 0.71077 0.73591 0.0
H708 H 0.88465 0.67901 0.61948 0.0
S709 S 0.7637 0.6672 0.70827 0.0
N710 N 0.79441 0.68954 0.76494 0.0
N711 N 0.77883 0.65484 0.64074 0.0
C712 C 0.81042 0.66878 0.6626 0.0
C713 C 0.81901 0.68778 0.73016 0.0
C714 C 1.02284 0.52406 0.05713 0.0
C715 C 1.00785 0.49212 0.08617 0.0
C716 C 0.04179 0.53277 0.99077 0.0
C717 C 0.04633 0.50983 0.95001 0.0
H718 H 1.02069 0.54275 0.08715 0.0
H719 H 0.05218 0.55748 0.97019 0.0
S720 S 1.01214 0.42281 1.00253 0.0
N721 N 0.99934 0.43771 0.06965 0.0
N722 N 0.03373 0.45341 0.94472 0.0
C723 C 0.03129 0.47775 0.97874 0.0
C724 C 1.01249 0.46912 0.04667 0.0
C725 C 0.57078 0.55481 0.05297 0.0
C726 C 0.55125 0.5244 0.08805 0.0
C727 C 0.56112 0.56338 0.9857 0.0
C728 C 0.53076 0.54261 0.95181 0.0
H729 H 0.59387 0.57219 0.07771 0.0
H730 H 0.57763 0.58659 0.95994 0.0
S731 S 0.46991 0.46057 0.0218 0.0
N732 N 0.49981 0.47357 0.08341 0.0
N733 N 0.48133 0.48997 0.95911 0.0
C734 C 0.51078 0.51235 0.98696 0.0
C735 C 0.52106 0.50321 0.05423 0.0
C736 C 0.48997 0.02831 0.05186 0.0
C737 C 0.51879 0.03538 0.08996 0.0
C738 C 0.48073 1.01012 0.9847 0.0
C739 C 0.49907 0.99686 0.9541 0.0
H740 H 0.47444 0.03701 0.07414 0.0
H741 H 0.45895 1.00643 0.95636 0.0
S742 S 0.57567 1.00664 0.03446 0.0
N743 N 0.56516 0.02684 0.09292 0.0
N744 N 0.54742 0.99201 0.96867 0.0
C745 C 0.52755 1.00313 0.99273 0.0
C746 C 0.53747 0.02249 0.05989 0.0
C747 C 0.19046 0.31567 0.83435 0.0
C748 C 0.19672 0.32734 0.90763 0.0
C749 C 0.20155 0.33759 0.77538 0.0
C750 C 0.2173 0.37129 0.78928 0.0
H751 H 0.17501 0.28997 0.82263 0.0
H752 H 0.19575 0.32805 0.71908 0.0
S753 S 0.25378 0.41187 0.96878 0.0
N754 N 0.23146 0.37281 0.98957 0.0
N755 N 0.24891 0.41467 0.87796 0.0
C756 C 0.22881 0.38279 0.86114 0.0
C757 C 0.21902 0.36039 0.92097 0.0
C758 C 0.70371 0.8364 0.78532 0.0
C759 C 0.67089 0.82783 0.79146 0.0
C760 C 0.72498 0.84864 0.84587 0.0
C761 C 0.71464 0.85532 0.91333 0.0
H762 H 0.71367 0.83555 0.7326 0.0
H763 H 0.74974 0.85351 0.83931 0.0
S764 S 0.63729 0.85498 0.94556 0.0
N765 N 0.63232 0.83662 0.86406 0.0
N766 N 0.67391 0.86409 0.97465 0.0
C767 C 0.68366 0.85221 0.91699 0.0
C768 C 0.66132 0.83756 0.85683 0.0
C769 C 0.16111 0.85187 0.83657 0.0
C770 C 0.16686 0.84599 0.90993 0.0
C771 C 0.17177 0.84056 0.77773 0.0
C772 C 0.1899 0.82499 0.79178 0.0
H773 H 0.15071 0.86719 0.8246 0.0
H774 H 0.16777 0.84608 0.72134 0.0
S775 S 0.19482 0.78933 0.97202 0.0
N776 N 0.17803 0.81165 0.99251 0.0
N777 N 0.20218 0.79385 0.88102 0.0
C778 C 0.19024 0.81382 0.86389 0.0
C779 C 0.17777 0.8238 0.92366 0.0
C780 C 0.34776 0.19447 0.25509 0.0
C781 C 0.38147 0.21028 0.24113 0.0
C782 C 0.32585 0.18304 0.19618 0.0
C783 C 0.33755 0.18906 0.12281 0.0
H784 H 0.33821 0.18886 0.31148 0.0
H785 H 0.30016 0.16756 0.20809 0.0
S786 S 0.42211 0.24609 0.06092 0.0
N787 N 0.42486 0.24161 0.15194 0.0
N788 N 0.38306 0.2236 0.04037 0.0
C789 C 0.3706 0.21141 0.10921 0.0
C790 C 0.39298 0.22151 0.16903 0.0
C791 C 0.83702 0.17398 0.10004 0.0
C792 C 0.8546 0.15781 0.11363 0.0
C793 C 0.82667 0.18551 0.15924 0.0
C794 C 0.8322 0.17929 0.23255 0.0
H795 H 0.83317 0.17971 0.04373 0.0
H796 H 0.8167 0.20124 0.14761 0.0
S797 S 0.85901 0.12155 0.29354 0.0
N798 N 0.86624 0.12607 0.2025 0.0
N799 N 0.84277 0.14433 0.31445 0.0
C800 C 0.8426 0.15665 0.24574 0.0
C801 C 0.85473 0.14643 0.18567 0.0
C802 C 0.89361 0.71669 0.20316 0.0
C803 C 0.88757 0.70499 0.12984 0.0
C804 C 0.88291 0.6948 0.26228 0.0
C805 C 0.86445 0.66111 0.24868 0.0
H806 H 0.90428 0.74243 0.21492 0.0
H807 H 0.88711 0.70441 0.31858 0.0
S808 S 0.85869 0.62016 0.06859 0.0
N809 N 0.87574 0.65925 0.04769 0.0
N810 N 0.85157 0.61753 0.1597 0.0
C811 C 0.86381 0.64948 0.17656 0.0
C812 C 0.8763 0.67182 0.11647 0.0
C813 C 0.03837 0.54122 0.44563 0.0
C814 C 1.00467 0.52283 0.45955 0.0
C815 C 0.0603 0.55198 0.50454 0.0
C816 C 0.04863 0.54608 0.57795 0.0
H817 H 0.04796 0.54531 0.38926 0.0
H818 H 0.08603 0.56252 0.49258 0.0
S819 S 0.96383 0.51751 0.63973 0.0
N820 N 0.96115 0.51024 0.54874 0.0
N821 N 1.00293 0.53451 0.66031 0.0
C822 C 1.01547 0.53494 0.5915 0.0
C823 C 0.99309 0.52238 0.53166 0.0
C824 C 0.4915 0.51586 0.50584 0.0
C825 C 0.49723 0.50997 0.57923 0.0
C826 C 0.50295 0.50531 0.44701 0.0
C827 C 0.52176 0.49047 0.4611 0.0
H828 H 0.48048 0.53062 0.49391 0.0
H829 H 0.49893 0.51083 0.39063 0.0
S830 S 0.52759 0.45522 0.64117 0.0
N831 N 0.50964 0.47648 0.66164 0.0
N832 N 0.5351 0.46011 0.55026 0.0
C833 C 0.52227 0.47932 0.53314 0.0
C834 C 0.50908 0.48854 0.59286 0.0
C835 C 0.52607 0.98318 0.50828 0.0
C836 C 0.53228 0.99491 0.58155 0.0
C837 C 0.537 1.00505 0.44909 0.0
C838 C 0.5526 0.03877 0.46262 0.0
H839 H 0.51081 0.95744 0.49673 0.0
H840 H 0.53126 0.99542 0.39285 0.0
S841 S 0.58879 0.07968 0.64204 0.0
N842 N 0.56671 0.04062 0.66311 0.0
N843 N 0.58388 0.08231 0.55117 0.0
C844 C 0.56396 0.05038 0.53453 0.0
C845 C 0.55431 0.02806 0.5946 0.0
C846 C 0.24775 0.25355 0.03673 0.0
C847 C 0.21434 0.23604 0.05542 0.0
C848 C 0.26315 0.23879 0.99817 0.0
C849 C 0.24577 0.20597 0.97472 0.0
H850 H 0.26218 0.27901 0.05166 0.0
H851 H 0.28902 0.25322 0.98722 0.0
S852 S 0.15748 0.14932 1.00748 0.0
N853 N 0.16442 0.18374 0.04643 0.0
N854 N 0.19279 0.15662 0.97301 0.0
C855 C 0.21224 0.18836 0.99222 0.0
C856 C 0.19676 0.20314 0.03273 0.0
C857 C 0.8521 0.03154 0.97069 0.0
C858 C 0.83499 0.04829 0.95739 0.0
C859 C 0.83767 1.0014 1.00818 0.0
C860 C 0.80521 0.98612 0.03374 0.0
H861 H 0.87733 0.04218 0.95378 0.0
H862 H 0.85216 0.98979 1.01628 0.0
S863 S 0.74916 0.01903 1.01286 0.0
N864 N 0.78334 0.04691 0.97333 0.0
N865 N 0.75611 0.98998 0.04191 0.0
C866 C 0.78751 1.00221 0.01988 0.0
C867 C 0.80236 0.03322 0.98227 0.0
C868 C 1.01173 0.82849 1.00002 0.0
C869 C 0.99601 0.7954 0.97895 0.0
C870 C 0.04164 0.84341 0.03877 0.0
C871 C 0.05772 0.82618 0.05825 0.0
H872 H 1.00054 0.84307 0.98788 0.0
H873 H 0.05253 0.86901 0.05224 0.0
S874 S 0.02742 0.73893 1.0162 0.0
N875 N 0.99913 0.74578 0.98137 0.0
N876 N 0.05539 0.77384 0.05243 0.0
C877 C 0.0424 0.79308 0.03729 0.0
C878 C 1.01172 0.77777 0.99821 0.0
C879 C 0.79864 0.77147 0.02777 0.0
C880 C 0.83267 0.78772 0.018 0.0
C881 C 0.78234 0.78718 0.05389 0.0
C882 C 0.79845 0.82095 0.06733 0.0
H883 H 0.78391 0.74567 1.01635 0.0
H884 H 0.75632 0.77222 0.0619 0.0
S885 S 0.88759 0.87643 0.04524 0.0
N886 N 0.88235 0.84027 0.02303 0.0
N887 N 0.85112 0.87081 0.06585 0.0
C888 C 0.83254 0.83822 0.05531 0.0
C889 C 0.84964 0.82157 0.03144 0.0
C890 C 0.25529 1.001 0.02468 0.0
C891 C 0.22115 0.98299 0.03207 0.0
C892 C 0.27189 0.0341 1.00794 0.0
C893 C 0.25582 0.05213 0.99983 0.0
H894 H 0.26989 0.98944 0.03147 0.0
H895 H 0.29806 0.04564 1.00171 0.0
S896 S 0.16642 0.01766 1.01502 0.0
N897 N 0.17142 0.98598 0.02958 0.0
N898 N 0.20316 0.04928 1.00097 0.0
C899 C 0.22159 0.03487 1.00754 0.0
C900 C 0.20426 1.00031 0.02364 0.0
C901 C 1.00934 0.24526 1.00196 0.0
C902 C 0.99138 0.21122 0.99293 0.0
C903 C 0.04214 0.26159 0.02108 0.0
C904 C 0.06008 0.24544 0.02918 0.0
H905 H 0.99797 0.26002 0.99482 0.0
H906 H 0.05356 0.28767 0.02886 0.0
S907 S 1.02574 0.15622 1.01008 0.0
N908 N 0.99425 0.16142 0.99441 0.0
N909 N 0.05722 0.19279 0.02636 0.0
C910 C 0.04291 0.21131 0.01975 0.0
C911 C 1.00854 0.19418 1.00181 0.0
C912 C 0.91471 0.58707 0.37635 0.0
C913 C 0.88138 0.56955 0.39565 0.0
C914 C 0.92996 0.57238 0.33691 0.0
C915 C 0.9125 0.53962 0.31319 0.0
H916 H 0.92923 0.6125 0.39146 0.0
H917 H 0.95579 0.58685 0.32549 0.0
S918 S 0.82434 0.48295 0.34726 0.0
N919 N 0.8314 0.5173 0.38682 0.0
N920 N 0.85952 0.49027 0.31193 0.0
C921 C 0.87904 0.52197 0.33131 0.0
C922 C 0.8637 0.5367 0.37265 0.0
C923 C 0.51972 0.36609 0.33318 0.0
C924 C 0.5025 0.38189 0.31133 0.0
C925 C 0.50447 0.33606 0.37174 0.0
C926 C 0.47104 0.31997 0.39023 0.0
H927 H 0.54556 0.37732 0.32186 0.0
H928 H 0.51906 0.32509 0.38588 0.0
S929 S 0.41442 0.35045 0.34549 0.0
N930 N 0.44977 0.37879 0.31168 0.0
N931 N 0.42112 0.32239 0.38243 0.0
C932 C 0.45342 0.33538 0.36841 0.0
C933 C 0.46906 0.36615 0.32953 0.0
C934 C 0.67801 0.11368 0.32975 0.0
C935 C 0.66188 0.13083 0.30987 0.0
C936 C 0.7086 0.12917 0.36613 0.0
C937 C 0.72426 0.16242 0.38602 0.0
H938 H 0.66684 0.08794 0.31751 0.0
H939 H 0.72018 0.11495 0.37821 0.0
S940 S 0.6923 0.21849 0.34848 0.0
N941 N 0.66435 0.18332 0.31364 0.0
N942 N 0.72071 0.21184 0.38301 0.0
C943 C 0.70817 0.17972 0.36729 0.0
C944 C 0.67744 0.16416 0.32899 0.0
C945 C 0.46395 0.10493 0.34601 0.0
C946 C 0.498 0.12081 0.33728 0.0
C947 C 0.44758 0.1218 0.3613 0.0
C948 C 0.46383 0.15599 0.3672 0.0
H949 H 0.44925 0.07872 0.34113 0.0
H950 H 0.42142 0.10737 0.36814 0.0
S951 S 0.55317 0.21025 0.34867 0.0
N952 N 0.54789 0.17336 0.33638 0.0
N953 N 0.51659 0.20554 0.36307 0.0
C954 C 0.498 0.17268 0.35855 0.0
C955 C 0.51508 0.1551 0.34353 0.0
C956 C 0.8738 0.3343 0.35199 0.0
C957 C 0.89047 0.31675 0.36119 0.0
C958 C 0.89086 0.36837 0.33671 0.0
C959 C 0.92512 0.38592 0.32845 0.0
H960 H 0.84751 0.32167 0.35591 0.0
H961 H 0.87722 0.38101 0.33196 0.0
S962 S 0.98019 0.35127 0.34644 0.0
N963 N 0.94375 0.32086 0.36663 0.0
N964 N 0.97431 0.38171 0.32535 0.0
C965 C 0.94158 0.3681 0.33541 0.0
C966 C 0.92475 0.33454 0.35541 0.0
C967 C 0.67618 0.53107 0.34598 0.0
C968 C 0.65885 0.54796 0.33622 0.0
C969 C 0.70995 0.54776 0.36468 0.0
C970 C 0.72739 0.58182 0.37644 0.0
H971 H 0.66363 0.50488 0.33954 0.0
H972 H 0.72246 0.53398 0.3692 0.0
S973 S 0.69338 0.63746 0.35889 0.0
N974 N 0.66343 0.60152 0.33389 0.0
N975 N 0.72314 0.63092 0.38269 0.0
C976 C 0.7097 0.59843 0.36949 0.0
C977 C 0.67664 0.58213 0.34546 0.0
C978 C 0.5491 0.85438 0.69438 0.0
C979 C 0.58272 0.87082 0.67834 0.0
C980 C 0.53383 0.87034 0.72716 0.0
C981 C 0.55121 0.90379 0.74492 0.0
H982 H 0.53425 0.8287 0.68185 0.0
H983 H 0.5078 0.85634 0.73648 0.0
S984 S 0.64002 0.95832 0.71591 0.0
N985 N 0.63319 0.9226 0.68511 0.0
N986 N 0.60445 0.95275 0.74456 0.0
C987 C 0.58497 0.92056 0.72998 0.0
C988 C 0.60067 0.90411 0.69738 0.0
C989 C 0.13872 0.7005 0.66792 0.0
C990 C 0.17146 0.71548 0.6438 0.0
C991 C 0.12372 0.67041 0.70682 0.0
C992 C 0.14091 0.65415 0.7252 0.0
H993 H 0.12453 0.71223 0.65726 0.0
H994 H 0.09832 0.65974 0.72227 0.0
S995 S 0.22729 0.68273 0.67528 0.0
N996 N 0.22037 0.71101 0.64099 0.0
N997 N 0.19284 0.65568 0.71501 0.0
C998 C 0.17373 0.66901 0.70177 0.0
C999 C 0.18875 0.6992 0.66092 0.0
C1000 C 0.37203 0.45833 0.70062 0.0
C1001 C 0.3869 0.49081 0.72628 0.0
C1002 C 0.34221 0.44383 0.6608 0.0
C1003 C 0.32622 0.46134 0.64291 0.0
H1004 H 0.38365 0.44399 0.71072 0.0
H1005 H 0.33156 0.41859 0.64413 0.0
S1006 S 0.35454 0.54715 0.69716 0.0
N1007 N 0.38247 0.53974 0.73145 0.0
N1008 N 0.3278 0.5132 0.65545 0.0
C1009 C 0.34097 0.49389 0.66794 0.0
C1010 C 0.37079 0.50835 0.70983 0.0
C1011 C 0.12998 0.43873 0.67692 0.0
C1012 C 0.16392 0.4544 0.66601 0.0
C1013 C 0.11396 0.45577 0.69431 0.0
C1014 C 0.1304 0.48997 0.69961 0.0
H1015 H 0.11506 0.41253 0.67226 0.0
H1016 H 0.0879 0.44149 0.70301 0.0
S1017 S 0.21955 0.54381 0.67577 0.0
N1018 N 0.21394 0.50681 0.66295 0.0
N1019 N 0.18323 0.53933 0.69272 0.0
C1020 C 0.16446 0.50647 0.6888 0.0
C1021 C 0.18122 0.4887 0.67205 0.0
C1022 C 0.57417 0.66755 0.73517 0.0
C1023 C 0.54553 0.64527 0.69809 0.0
C1024 C 0.59197 0.70018 0.71279 0.0
C1025 C 0.58249 0.71228 0.65144 0.0
H1026 H 0.58376 0.65932 0.77999 0.0
H1027 H 0.61413 0.71599 0.74262 0.0
S1028 S 0.50777 0.66447 0.53854 0.0
N1029 N 0.50711 0.63783 0.59946 0.0
N1030 N 0.54081 0.69958 0.55736 0.0
C1031 C 0.55279 0.69078 0.61636 0.0
C1032 C 0.53439 0.65718 0.63946 0.0
C1033 C 0.34419 0.91283 0.67813 0.0
C1034 C 0.32615 0.87887 0.66773 0.0
C1035 C 0.37716 0.92901 0.69596 0.0
C1036 C 0.3951 0.91275 0.70194 0.0
H1037 H 0.33278 0.92762 0.6729 0.0
H1038 H 0.3887 0.95505 0.70454 0.0
S1039 S 0.36044 0.82364 0.67914 0.0
N1040 N 0.32894 0.82902 0.66566 0.0
N1041 N 0.39205 0.86006 0.69593 0.0
C1042 C 0.37779 0.87868 0.69135 0.0
C1043 C 0.34333 0.86174 0.67434 0.0
loop_
_geom_bond_atom_site_label_1
_geom_bond_atom_site_label_2
_geom_bond_distance
_geom_bond_site_symmetry_2
_ccdc_geom_bond_type
Mn0 O5 2.095 . S
Mn0 O15 2.162 . S
Mn0 O16 2.297 . S
Mn0 O24 2.385 1_554 S
Mn0 O25 2.209 . S
Mn0 O26 2.094 . S
Mn1 O6 2.121 . S
Mn1 N8 2.257 . S
Mn1 N17 2.282 1_554 S
Mn1 O25 2.215 . S
Mn1 O27 2.117 . S
C2 O24 1.234 . S
C2 O25 1.283 1_556 S
C3 O15 1.281 . S
C3 O16 1.236 . S
C4 O26 1.240 . S
C4 O27 1.264 . S
O5 Mn0 2.095 . S
O5 C14 1.250 . S
O6 Mn1 2.121 . S
O6 C14 1.258 . S
C7 N8 1.326 . S
C7 C11 1.460 . S
C7 H13 0.929 . S
N8 Mn1 2.257 . S
N8 C7 1.326 . S
N8 C12 1.362 1_554 S
C9 C10 1.258 1_556 S
C9 C12 1.431 . S
C9 C29 1.449 . S
C10 C9 1.258 1_554 S
C10 C11 1.477 . S
C10 H30 0.931 1_554 S
C11 C7 1.460 . S
C11 C10 1.477 . S
C11 H31 0.930 . S
C12 N8 1.362 1_556 S
C12 C9 1.431 . S
C12 C22 1.476 . S
H13 C7 0.929 . S
C14 O5 1.250 . S
C14 O6 1.258 . S
O15 Mn0 2.162 . S
O15 C3 1.281 . S
O16 Mn0 2.297 . S
O16 C3 1.236 . S
N17 Mn1 2.282 1_556 S
N17 C18 1.328 . S
N17 C22 1.318 . S
C18 N17 1.328 . S
C18 C19 1.457 . S
C18 H23 0.929 . S
C19 C18 1.457 . S
C19 C20 1.291 . S
C19 H32 0.931 . S
C20 C19 1.291 . S
C20 C21 1.373 . S
C20 H33 0.929 . S
C21 C20 1.373 . S
C21 C22 1.396 . S
C21 C28 1.403 . S
C22 C12 1.476 . S
C22 N17 1.318 . S
C22 C21 1.396 . S
H23 C18 0.929 . S
O24 Mn0 2.385 1_556 S
O24 C2 1.234 . S
O25 Mn0 2.209 . S
O25 Mn1 2.215 . S
O25 C2 1.283 1_554 S
O26 Mn0 2.094 . S
O26 C4 1.240 . S
O27 Mn1 2.117 . S
O27 C4 1.264 . S
C28 C21 1.403 . S
C28 C29 1.399 . S
C28 H34 0.929 . S
C29 C9 1.449 . S
C29 C28 1.399 . S
C29 H35 0.930 . S
H30 C10 0.931 1_556 S
H31 C11 0.930 . S
H32 C19 0.931 . S
H33 C20 0.929 . S
H34 C28 0.929 . S
H35 C29 0.930 . S
Mn36 O41 2.095 . S
Mn36 O51 2.162 . S
Mn36 O52 2.297 . S
Mn36 O60 2.385 1_554 S
Mn36 O61 2.209 . S
Mn36 O62 2.094 . S
Mn37 O42 2.121 . S
Mn37 N44 2.257 . S
Mn37 N53 2.282 1_554 S
Mn37 O61 2.215 . S
Mn37 O63 2.117 . S
C38 O60 1.234 . S
C38 O61 1.283 1_556 S
C39 O51 1.281 . S
C39 O52 1.236 . S
C40 O62 1.240 . S
C40 O63 1.264 . S
O41 Mn36 2.095 . S
O41 C50 1.250 . S
O42 Mn37 2.121 . S
O42 C50 1.258 . S
C43 N44 1.326 . S
C43 C47 1.460 . S
C43 H49 0.929 . S
N44 Mn37 2.257 . S
N44 C43 1.326 . S
N44 C48 1.362 1_554 S
C45 C46 1.258 1_556 S
C45 C48 1.431 . S
C45 C65 1.449 . S
C46 C45 1.258 1_554 S
C46 C47 1.477 . S
C46 H66 0.931 1_554 S
C47 C43 1.460 . S
C47 C46 1.477 . S
C47 H67 0.930 . S
C48 N44 1.362 1_556 S
C48 C45 1.431 . S
C48 C58 1.476 . S
H49 C43 0.929 . S
C50 O41 1.250 . S
C50 O42 1.258 . S
O51 Mn36 2.162 . S
O51 C39 1.281 . S
O52 Mn36 2.297 . S
O52 C39 1.236 . S
N53 Mn37 2.282 1_556 S
N53 C54 1.328 . S
N53 C58 1.318 . S
C54 N53 1.328 . S
C54 C55 1.457 . S
C54 H59 0.929 . S
C55 C54 1.457 . S
C55 C56 1.291 . S
C55 H68 0.931 . S
C56 C55 1.291 . S
C56 C57 1.373 . S
C56 H69 0.929 . S
C57 C56 1.373 . S
C57 C58 1.396 . S
C57 C64 1.403 . S
C58 C48 1.476 . S
C58 N53 1.318 . S
C58 C57 1.396 . S
H59 C54 0.929 . S
O60 Mn36 2.385 1_556 S
O60 C38 1.234 . S
O61 Mn36 2.209 . S
O61 Mn37 2.215 . S
O61 C38 1.283 1_554 S
O62 Mn36 2.094 . S
O62 C40 1.240 . S
O63 Mn37 2.117 . S
O63 C40 1.264 . S
C64 C57 1.403 . S
C64 C65 1.399 . S
C64 H70 0.929 . S
C65 C45 1.449 . S
C65 C64 1.399 . S
C65 H71 0.930 . S
H66 C46 0.931 1_556 S
H67 C47 0.930 . S
H68 C55 0.931 . S
H69 C56 0.929 . S
H70 C64 0.929 . S
H71 C65 0.930 . S
Mn72 O77 2.095 . S
Mn72 O87 2.162 . S
Mn72 O88 2.297 . S
Mn72 O96 2.385 1_554 S
Mn72 O97 2.209 . S
Mn72 O98 2.094 . S
Mn73 O78 2.121 . S
Mn73 N80 2.257 . S
Mn73 N89 2.282 1_554 S
Mn73 O97 2.215 . S
Mn73 O99 2.117 . S
C74 O96 1.234 . S
C74 O97 1.283 1_556 S
C75 O87 1.281 . S
C75 O88 1.236 . S
C76 O98 1.240 . S
C76 O99 1.264 . S
O77 Mn72 2.095 . S
O77 C86 1.250 . S
O78 Mn73 2.121 . S
O78 C86 1.258 . S
C79 N80 1.326 . S
C79 C83 1.460 . S
C79 H85 0.929 . S
N80 Mn73 2.257 . S
N80 C79 1.326 . S
N80 C84 1.362 1_554 S
C81 C82 1.258 1_556 S
C81 C84 1.431 . S
C81 C101 1.449 . S
C82 C81 1.258 1_554 S
C82 C83 1.477 . S
C82 H102 0.931 1_554 S
C83 C79 1.460 . S
C83 C82 1.477 . S
C83 H103 0.930 . S
C84 N80 1.362 1_556 S
C84 C81 1.431 . S
C84 C94 1.476 . S
H85 C79 0.929 . S
C86 O77 1.250 . S
C86 O78 1.258 . S
O87 Mn72 2.162 . S
O87 C75 1.281 . S
O88 Mn72 2.297 . S
O88 C75 1.236 . S
N89 Mn73 2.282 1_556 S
N89 C90 1.328 . S
N89 C94 1.318 . S
C90 N89 1.328 . S
C90 C91 1.457 . S
C90 H95 0.929 . S
C91 C90 1.457 . S
C91 C92 1.291 . S
C91 H104 0.931 . S
C92 C91 1.291 . S
C92 C93 1.373 . S
C92 H105 0.929 . S
C93 C92 1.373 . S
C93 C94 1.396 . S
C93 C100 1.403 . S
C94 C84 1.476 . S
C94 N89 1.318 . S
C94 C93 1.396 . S
H95 C90 0.929 . S
O96 Mn72 2.385 1_556 S
O96 C74 1.234 . S
O97 Mn72 2.209 . S
O97 Mn73 2.215 . S
O97 C74 1.283 1_554 S
O98 Mn72 2.094 . S
O98 C76 1.240 . S
O99 Mn73 2.117 . S
O99 C76 1.264 . S
C100 C93 1.403 . S
C100 C101 1.399 . S
C100 H106 0.929 . S
C101 C81 1.449 . S
C101 C100 1.399 . S
C101 H107 0.930 . S
H102 C82 0.931 1_556 S
H103 C83 0.930 . S
H104 C91 0.931 . S
H105 C92 0.929 . S
H106 C100 0.929 . S
H107 C101 0.930 . S
Mn108 O113 2.095 . S
Mn108 O123 2.162 . S
Mn108 O124 2.297 . S
Mn108 O132 2.385 1_556 S
Mn108 O133 2.209 . S
Mn108 O134 2.094 . S
Mn109 O114 2.121 . S
Mn109 N116 2.257 . S
Mn109 N125 2.282 1_556 S
Mn109 O133 2.215 . S
Mn109 O135 2.117 . S
C110 O132 1.234 . S
C110 O133 1.283 1_554 S
C111 O123 1.281 . S
C111 O124 1.236 . S
C112 O134 1.240 . S
C112 O135 1.264 . S
O113 Mn108 2.095 . S
O113 C122 1.250 . S
O114 Mn109 2.121 . S
O114 C122 1.258 . S
C115 N116 1.326 . S
C115 C119 1.460 . S
C115 H121 0.929 . S
N116 Mn109 2.257 . S
N116 C115 1.326 . S
N116 C120 1.362 1_556 S
C117 C118 1.258 1_554 S
C117 C120 1.431 . S
C117 C137 1.449 . S
C118 C117 1.258 1_556 S
C118 C119 1.477 . S
C118 H138 0.931 1_556 S
C119 C115 1.460 . S
C119 C118 1.477 . S
C119 H139 0.930 . S
C120 N116 1.362 1_554 S
C120 C117 1.431 . S
C120 C130 1.476 . S
H121 C115 0.929 . S
C122 O113 1.250 . S
C122 O114 1.258 . S
O123 Mn108 2.162 . S
O123 C111 1.281 . S
O124 Mn108 2.297 . S
O124 C111 1.236 . S
N125 Mn109 2.282 1_554 S
N125 C126 1.328 . S
N125 C130 1.318 . S
C126 N125 1.328 . S
C126 C127 1.457 . S
C126 H131 0.929 . S
C127 C126 1.457 . S
C127 C128 1.291 . S
C127 H140 0.931 . S
C128 C127 1.291 . S
C128 C129 1.373 . S
C128 H141 0.929 . S
C129 C128 1.373 . S
C129 C130 1.396 . S
C129 C136 1.403 . S
C130 C120 1.476 . S
C130 N125 1.318 . S
C130 C129 1.396 . S
H131 C126 0.929 . S
O132 Mn108 2.385 1_554 S
O132 C110 1.234 . S
O133 Mn108 2.209 . S
O133 Mn109 2.215 . S
O133 C110 1.283 1_556 S
O134 Mn108 2.094 . S
O134 C112 1.240 . S
O135 Mn109 2.117 . S
O135 C112 1.264 . S
C136 C129 1.403 . S
C136 C137 1.399 . S
C136 H142 0.929 . S
C137 C117 1.449 . S
C137 C136 1.399 . S
C137 H143 0.930 . S
H138 C118 0.931 1_554 S
H139 C119 0.930 . S
H140 C127 0.931 . S
H141 C128 0.929 . S
H142 C136 0.929 . S
H143 C137 0.930 . S
Mn144 O149 2.095 . S
Mn144 O159 2.162 . S
Mn144 O160 2.297 . S
Mn144 O168 2.385 1_556 S
Mn144 O169 2.209 . S
Mn144 O170 2.094 . S
Mn145 O150 2.121 . S
Mn145 N152 2.257 . S
Mn145 N161 2.282 1_556 S
Mn145 O169 2.215 . S
Mn145 O171 2.117 . S
C146 O168 1.234 . S
C146 O169 1.283 1_554 S
C147 O159 1.281 . S
C147 O160 1.236 . S
C148 O170 1.240 . S
C148 O171 1.264 . S
O149 Mn144 2.095 . S
O149 C158 1.250 . S
O150 Mn145 2.121 . S
O150 C158 1.258 . S
C151 N152 1.326 . S
C151 C155 1.460 . S
C151 H157 0.929 . S
N152 Mn145 2.257 . S
N152 C151 1.326 . S
N152 C156 1.362 1_556 S
C153 C154 1.258 1_554 S
C153 C156 1.431 . S
C153 C173 1.449 . S
C154 C153 1.258 1_556 S
C154 C155 1.477 . S
C154 H174 0.931 1_556 S
C155 C151 1.460 . S
C155 C154 1.477 . S
C155 H175 0.930 . S
C156 N152 1.362 1_554 S
C156 C153 1.431 . S
C156 C166 1.476 . S
H157 C151 0.929 . S
C158 O149 1.250 . S
C158 O150 1.258 . S
O159 Mn144 2.162 . S
O159 C147 1.281 . S
O160 Mn144 2.297 . S
O160 C147 1.236 . S
N161 Mn145 2.282 1_554 S
N161 C162 1.328 . S
N161 C166 1.318 . S
C162 N161 1.328 . S
C162 C163 1.457 . S
C162 H167 0.929 . S
C163 C162 1.457 . S
C163 C164 1.291 . S
C163 H176 0.931 . S
C164 C163 1.291 . S
C164 C165 1.373 . S
C164 H177 0.929 . S
C165 C164 1.373 . S
C165 C166 1.396 . S
C165 C172 1.403 . S
C166 C156 1.476 . S
C166 N161 1.318 . S
C166 C165 1.396 . S
H167 C162 0.929 . S
O168 Mn144 2.385 1_554 S
O168 C146 1.234 . S
O169 Mn144 2.209 . S
O169 Mn145 2.215 . S
O169 C146 1.283 1_556 S
O170 Mn144 2.094 . S
O170 C148 1.240 . S
O171 Mn145 2.117 . S
O171 C148 1.264 . S
C172 C165 1.403 . S
C172 C173 1.399 . S
C172 H178 0.929 . S
C173 C153 1.449 . S
C173 C172 1.399 . S
C173 H179 0.930 . S
H174 C154 0.931 1_554 S
H175 C155 0.930 . S
H176 C163 0.931 . S
H177 C164 0.929 . S
H178 C172 0.929 . S
H179 C173 0.930 . S
Mn180 O185 2.095 . S
Mn180 O195 2.162 . S
Mn180 O196 2.297 . S
Mn180 O204 2.385 1_556 S
Mn180 O205 2.209 . S
Mn180 O206 2.094 . S
Mn181 O186 2.121 . S
Mn181 N188 2.257 . S
Mn181 N197 2.282 1_556 S
Mn181 O205 2.215 . S
Mn181 O207 2.117 . S
C182 O204 1.234 . S
C182 O205 1.283 1_554 S
C183 O195 1.281 . S
C183 O196 1.236 . S
C184 O206 1.240 . S
C184 O207 1.264 . S
O185 Mn180 2.095 . S
O185 C194 1.250 . S
O186 Mn181 2.121 . S
O186 C194 1.258 . S
C187 N188 1.326 . S
C187 C191 1.460 . S
C187 H193 0.929 . S
N188 Mn181 2.257 . S
N188 C187 1.326 . S
N188 C192 1.362 1_556 S
C189 C190 1.258 1_554 S
C189 C192 1.431 . S
C189 C209 1.449 . S
C190 C189 1.258 1_556 S
C190 C191 1.477 . S
C190 H210 0.931 1_556 S
C191 C187 1.460 . S
C191 C190 1.477 . S
C191 H211 0.930 . S
C192 N188 1.362 1_554 S
C192 C189 1.431 . S
C192 C202 1.476 . S
H193 C187 0.929 . S
C194 O185 1.250 . S
C194 O186 1.258 . S
O195 Mn180 2.162 . S
O195 C183 1.281 . S
O196 Mn180 2.297 . S
O196 C183 1.236 . S
N197 Mn181 2.282 1_554 S
N197 C198 1.328 . S
N197 C202 1.318 . S
C198 N197 1.328 . S
C198 C199 1.457 . S
C198 H203 0.929 . S
C199 C198 1.457 . S
C199 C200 1.291 . S
C199 H212 0.931 . S
C200 C199 1.291 . S
C200 C201 1.373 . S
C200 H213 0.929 . S
C201 C200 1.373 . S
C201 C202 1.396 . S
C201 C208 1.403 . S
C202 C192 1.476 . S
C202 N197 1.318 . S
C202 C201 1.396 . S
H203 C198 0.929 . S
O204 Mn180 2.385 1_554 S
O204 C182 1.234 . S
O205 Mn180 2.209 . S
O205 Mn181 2.215 . S
O205 C182 1.283 1_556 S
O206 Mn180 2.094 . S
O206 C184 1.240 . S
O207 Mn181 2.117 . S
O207 C184 1.264 . S
C208 C201 1.403 . S
C208 C209 1.399 . S
C208 H214 0.929 . S
C209 C189 1.449 . S
C209 C208 1.399 . S
C209 H215 0.930 . S
H210 C190 0.931 1_554 S
H211 C191 0.930 . S
H212 C199 0.931 . S
H213 C200 0.929 . S
H214 C208 0.929 . S
H215 C209 0.930 . S
Mn216 O221 2.095 . S
Mn216 O231 2.162 . S
Mn216 O232 2.297 . S
Mn216 O240 2.385 . S
Mn216 O241 2.209 . S
Mn216 O242 2.094 . S
Mn217 O222 2.121 . S
Mn217 N224 2.257 . S
Mn217 N233 2.282 . S
Mn217 O241 2.215 . S
Mn217 O243 2.117 . S
C218 O240 1.234 . S
C218 O241 1.283 . S
C219 O231 1.281 . S
C219 O232 1.236 . S
C220 O242 1.240 . S
C220 O243 1.264 . S
O221 Mn216 2.095 . S
O221 C230 1.250 . S
O222 Mn217 2.121 . S
O222 C230 1.258 . S
C223 N224 1.326 . S
C223 C227 1.460 . S
C223 H229 0.929 . S
N224 Mn217 2.257 . S
N224 C223 1.326 . S
N224 C228 1.362 . S
C225 C226 1.258 . S
C225 C228 1.431 . S
C225 C245 1.449 . S
C226 C225 1.258 . S
C226 C227 1.477 . S
C226 H246 0.931 . S
C227 C223 1.460 . S
C227 C226 1.477 . S
C227 H247 0.930 . S
C228 N224 1.362 . S
C228 C225 1.431 . S
C228 C238 1.476 . S
H229 C223 0.929 . S
C230 O221 1.250 . S
C230 O222 1.258 . S
O231 Mn216 2.162 . S
O231 C219 1.281 . S
O232 Mn216 2.297 . S
O232 C219 1.236 . S
N233 Mn217 2.282 . S
N233 C234 1.328 . S
N233 C238 1.318 . S
C234 N233 1.328 . S
C234 C235 1.457 . S
C234 H239 0.929 . S
C235 C234 1.457 . S
C235 C236 1.291 . S
C235 H248 0.931 . S
C236 C235 1.291 . S
C236 C237 1.373 . S
C236 H249 0.929 . S
C237 C236 1.373 . S
C237 C238 1.396 . S
C237 C244 1.403 . S
C238 C228 1.476 . S
C238 N233 1.318 . S
C238 C237 1.396 . S
H239 C234 0.929 . S
O240 Mn216 2.385 . S
O240 C218 1.234 . S
O241 Mn216 2.209 . S
O241 Mn217 2.215 . S
O241 C218 1.283 . S
O242 Mn216 2.094 . S
O242 C220 1.240 . S
O243 Mn217 2.117 . S
O243 C220 1.264 . S
C244 C237 1.403 . S
C244 C245 1.399 . S
C244 H250 0.929 . S
C245 C225 1.449 . S
C245 C244 1.399 . S
C245 H251 0.930 . S
H246 C226 0.931 . S
H247 C227 0.930 . S
H248 C235 0.931 . S
H249 C236 0.929 . S
H250 C244 0.929 . S
H251 C245 0.930 . S
Mn252 O257 2.095 . S
Mn252 O267 2.162 . S
Mn252 O268 2.297 . S
Mn252 O276 2.385 . S
Mn252 O277 2.209 . S
Mn252 O278 2.094 . S
Mn253 O258 2.121 . S
Mn253 N260 2.257 . S
Mn253 N269 2.282 . S
Mn253 O277 2.215 . S
Mn253 O279 2.117 . S
C254 O276 1.234 . S
C254 O277 1.283 . S
C255 O267 1.281 . S
C255 O268 1.236 . S
C256 O278 1.240 . S
C256 O279 1.264 . S
O257 Mn252 2.095 . S
O257 C266 1.250 . S
O258 Mn253 2.121 . S
O258 C266 1.258 . S
C259 N260 1.326 . S
C259 C263 1.460 . S
C259 H265 0.929 . S
N260 Mn253 2.257 . S
N260 C259 1.326 . S
N260 C264 1.362 . S
C261 C262 1.258 . S
C261 C264 1.431 . S
C261 C281 1.449 . S
C262 C261 1.258 . S
C262 C263 1.477 . S
C262 H282 0.931 . S
C263 C259 1.460 . S
C263 C262 1.477 . S
C263 H283 0.930 . S
C264 N260 1.362 . S
C264 C261 1.431 . S
C264 C274 1.476 . S
H265 C259 0.929 . S
C266 O257 1.250 . S
C266 O258 1.258 . S
O267 Mn252 2.162 . S
O267 C255 1.281 . S
O268 Mn252 2.297 . S
O268 C255 1.236 . S
N269 Mn253 2.282 . S
N269 C270 1.328 . S
N269 C274 1.318 . S
C270 N269 1.328 . S
C270 C271 1.457 . S
C270 H275 0.929 . S
C271 C270 1.457 . S
C271 C272 1.291 . S
C271 H284 0.931 . S
C272 C271 1.291 . S
C272 C273 1.373 . S
C272 H285 0.929 . S
C273 C272 1.373 . S
C273 C274 1.396 . S
C273 C280 1.403 . S
C274 C264 1.476 . S
C274 N269 1.318 . S
C274 C273 1.396 . S
H275 C270 0.929 . S
O276 Mn252 2.385 . S
O276 C254 1.234 . S
O277 Mn252 2.209 . S
O277 Mn253 2.215 . S
O277 C254 1.283 . S
O278 Mn252 2.094 . S
O278 C256 1.240 . S
O279 Mn253 2.117 . S
O279 C256 1.264 . S
C280 C273 1.403 . S
C280 C281 1.399 . S
C280 H286 0.929 . S
C281 C261 1.449 . S
C281 C280 1.399 . S
C281 H287 0.930 . S
H282 C262 0.931 . S
H283 C263 0.930 . S
H284 C271 0.931 . S
H285 C272 0.929 . S
H286 C280 0.929 . S
H287 C281 0.930 . S
Mn288 O293 2.095 . S
Mn288 O303 2.162 . S
Mn288 O304 2.297 . S
Mn288 O312 2.385 . S
Mn288 O313 2.209 . S
Mn288 O314 2.094 . S
Mn289 O294 2.121 . S
Mn289 N296 2.257 . S
Mn289 N305 2.282 . S
Mn289 O313 2.215 . S
Mn289 O315 2.117 . S
C290 O312 1.234 . S
C290 O313 1.283 . S
C291 O303 1.281 . S
C291 O304 1.236 . S
C292 O314 1.240 . S
C292 O315 1.264 . S
O293 Mn288 2.095 . S
O293 C302 1.250 . S
O294 Mn289 2.121 . S
O294 C302 1.258 . S
C295 N296 1.326 . S
C295 C299 1.460 . S
C295 H301 0.929 . S
N296 Mn289 2.257 . S
N296 C295 1.326 . S
N296 C300 1.362 . S
C297 C298 1.258 . S
C297 C300 1.431 . S
C297 C317 1.449 . S
C298 C297 1.258 . S
C298 C299 1.477 . S
C298 H318 0.931 . S
C299 C295 1.460 . S
C299 C298 1.477 . S
C299 H319 0.930 . S
C300 N296 1.362 . S
C300 C297 1.431 . S
C300 C310 1.476 . S
H301 C295 0.929 . S
C302 O293 1.250 . S
C302 O294 1.258 . S
O303 Mn288 2.162 . S
O303 C291 1.281 . S
O304 Mn288 2.297 . S
O304 C291 1.236 . S
N305 Mn289 2.282 . S
N305 C306 1.328 . S
N305 C310 1.318 . S
C306 N305 1.328 . S
C306 C307 1.457 . S
C306 H311 0.929 . S
C307 C306 1.457 . S
C307 C308 1.291 . S
C307 H320 0.931 . S
C308 C307 1.291 . S
C308 C309 1.373 . S
C308 H321 0.929 . S
C309 C308 1.373 . S
C309 C310 1.396 . S
C309 C316 1.403 . S
C310 C300 1.476 . S
C310 N305 1.318 . S
C310 C309 1.396 . S
H311 C306 0.929 . S
O312 Mn288 2.385 . S
O312 C290 1.234 . S
O313 Mn288 2.209 . S
O313 Mn289 2.215 . S
O313 C290 1.283 . S
O314 Mn288 2.094 . S
O314 C292 1.240 . S
O315 Mn289 2.117 . S
O315 C292 1.264 . S
C316 C309 1.403 . S
C316 C317 1.399 . S
C316 H322 0.929 . S
C317 C297 1.449 . S
C317 C316 1.399 . S
C317 H323 0.930 . S
H318 C298 0.931 . S
H319 C299 0.930 . S
H320 C307 0.931 . S
H321 C308 0.929 . S
H322 C316 0.929 . S
H323 C317 0.930 . S
Mn324 O329 2.095 . S
Mn324 O339 2.162 . S
Mn324 O340 2.297 . S
Mn324 O348 2.385 . S
Mn324 O349 2.209 . S
Mn324 O350 2.094 . S
Mn325 O330 2.121 . S
Mn325 N332 2.257 1_655 S
Mn325 N341 2.282 1_655 S
Mn325 O349 2.215 . S
Mn325 O351 2.117 . S
C326 O348 1.234 . S
C326 O349 1.283 . S
C327 O339 1.281 . S
C327 O340 1.236 . S
C328 O350 1.240 . S
C328 O351 1.264 . S
O329 Mn324 2.095 . S
O329 C338 1.250 . S
O330 Mn325 2.121 . S
O330 C338 1.258 . S
C331 N332 1.326 . S
C331 C335 1.460 . S
C331 H337 0.929 . S
N332 Mn325 2.257 1_455 S
N332 C331 1.326 . S
N332 C336 1.362 . S
C333 C334 1.258 . S
C333 C336 1.431 . S
C333 C353 1.449 . S
C334 C333 1.258 . S
C334 C335 1.477 . S
C334 H354 0.931 . S
C335 C331 1.460 . S
C335 C334 1.477 . S
C335 H355 0.930 . S
C336 N332 1.362 . S
C336 C333 1.431 . S
C336 C346 1.476 . S
H337 C331 0.929 . S
C338 O329 1.250 . S
C338 O330 1.258 . S
O339 Mn324 2.162 . S
O339 C327 1.281 . S
O340 Mn324 2.297 . S
O340 C327 1.236 . S
N341 Mn325 2.282 1_455 S
N341 C342 1.328 1_455 S
N341 C346 1.318 . S
C342 N341 1.328 1_655 S
C342 C343 1.457 . S
C342 H347 0.929 . S
C343 C342 1.457 . S
C343 C344 1.291 1_655 S
C343 H356 0.931 . S
C344 C343 1.291 1_455 S
C344 C345 1.373 . S
C344 H357 0.929 . S
C345 C344 1.373 . S
C345 C346 1.396 . S
C345 C352 1.403 . S
C346 C336 1.476 . S
C346 N341 1.318 . S
C346 C345 1.396 . S
H347 C342 0.929 . S
O348 Mn324 2.385 . S
O348 C326 1.234 . S
O349 Mn324 2.209 . S
O349 Mn325 2.215 . S
O349 C326 1.283 . S
O350 Mn324 2.094 . S
O350 C328 1.240 . S
O351 Mn325 2.117 . S
O351 C328 1.264 . S
C352 C345 1.403 . S
C352 C353 1.399 . S
C352 H358 0.929 . S
C353 C333 1.449 . S
C353 C352 1.399 . S
C353 H359 0.930 . S
H354 C334 0.931 . S
H355 C335 0.930 . S
H356 C343 0.931 . S
H357 C344 0.929 . S
H358 C352 0.929 . S
H359 C353 0.930 . S
Mn360 O365 2.095 . S
Mn360 O375 2.162 . S
Mn360 O376 2.297 . S
Mn360 O384 2.385 . S
Mn360 O385 2.209 . S
Mn360 O386 2.094 . S
Mn361 O366 2.121 . S
Mn361 N368 2.257 . S
Mn361 N377 2.282 . S
Mn361 O385 2.215 . S
Mn361 O387 2.117 . S
C362 O384 1.234 . S
C362 O385 1.283 . S
C363 O375 1.281 . S
C363 O376 1.236 . S
C364 O386 1.240 . S
C364 O387 1.264 . S
O365 Mn360 2.095 . S
O365 C374 1.250 . S
O366 Mn361 2.121 . S
O366 C374 1.258 . S
C367 N368 1.326 . S
C367 C371 1.460 . S
C367 H373 0.929 . S
N368 Mn361 2.257 . S
N368 C367 1.326 . S
N368 C372 1.362 . S
C369 C370 1.258 . S
C369 C372 1.431 . S
C369 C389 1.449 . S
C370 C369 1.258 . S
C370 C371 1.477 . S
C370 H390 0.931 . S
C371 C367 1.460 . S
C371 C370 1.477 . S
C371 H391 0.930 . S
C372 N368 1.362 . S
C372 C369 1.431 . S
C372 C382 1.476 . S
H373 C367 0.929 . S
C374 O365 1.250 . S
C374 O366 1.258 . S
O375 Mn360 2.162 . S
O375 C363 1.281 . S
O376 Mn360 2.297 . S
O376 C363 1.236 . S
N377 Mn361 2.282 . S
N377 C378 1.328 . S
N377 C382 1.318 . S
C378 N377 1.328 . S
C378 C379 1.457 . S
C378 H383 0.929 . S
C379 C378 1.457 . S
C379 C380 1.291 . S
C379 H392 0.931 . S
C380 C379 1.291 . S
C380 C381 1.373 . S
C380 H393 0.929 . S
C381 C380 1.373 . S
C381 C382 1.396 . S
C381 C388 1.403 . S
C382 C372 1.476 . S
C382 N377 1.318 . S
C382 C381 1.396 . S
H383 C378 0.929 . S
O384 Mn360 2.385 . S
O384 C362 1.234 . S
O385 Mn360 2.209 . S
O385 Mn361 2.215 . S
O385 C362 1.283 . S
O386 Mn360 2.094 . S
O386 C364 1.240 . S
O387 Mn361 2.117 . S
O387 C364 1.264 . S
C388 C381 1.403 . S
C388 C389 1.399 . S
C388 H394 0.929 . S
C389 C369 1.449 . S
C389 C388 1.399 . S
C389 H395 0.930 . S
H390 C370 0.931 . S
H391 C371 0.930 . S
H392 C379 0.931 . S
H393 C380 0.929 . S
H394 C388 0.929 . S
H395 C389 0.930 . S
Mn396 O401 2.095 . S
Mn396 O411 2.162 . S
Mn396 O412 2.297 . S
Mn396 O420 2.385 . S
Mn396 O421 2.209 . S
Mn396 O422 2.094 . S
Mn397 O402 2.121 . S
Mn397 N404 2.257 1_545 S
Mn397 N413 2.282 1_545 S
Mn397 O421 2.215 . S
Mn397 O423 2.117 . S
C398 O420 1.234 . S
C398 O421 1.283 . S
C399 O411 1.281 . S
C399 O412 1.236 . S
C400 O422 1.240 . S
C400 O423 1.264 . S
O401 Mn396 2.095 . S
O401 C410 1.250 . S
O402 Mn397 2.121 . S
O402 C410 1.258 . S
C403 N404 1.326 . S
C403 C407 1.460 . S
C403 H409 0.929 . S
N404 Mn397 2.257 1_565 S
N404 C403 1.326 . S
N404 C408 1.362 . S
C405 C406 1.258 . S
C405 C408 1.431 . S
C405 C425 1.449 . S
C406 C405 1.258 . S
C406 C407 1.477 . S
C406 H426 0.931 . S
C407 C403 1.460 . S
C407 C406 1.477 . S
C407 H427 0.930 . S
C408 N404 1.362 . S
C408 C405 1.431 . S
C408 C418 1.476 . S
H409 C403 0.929 . S
C410 O401 1.250 . S
C410 O402 1.258 . S
O411 Mn396 2.162 . S
O411 C399 1.281 . S
O412 Mn396 2.297 . S
O412 C399 1.236 . S
N413 Mn397 2.282 1_565 S
N413 C414 1.328 1_565 S
N413 C418 1.318 . S
C414 N413 1.328 1_545 S
C414 C415 1.457 . S
C414 H419 0.929 . S
C415 C414 1.457 . S
C415 C416 1.291 1_545 S
C415 H428 0.931 . S
C416 C415 1.291 1_565 S
C416 C417 1.373 . S
C416 H429 0.929 . S
C417 C416 1.373 . S
C417 C418 1.396 . S
C417 C424 1.403 . S
C418 C408 1.476 . S
C418 N413 1.318 . S
C418 C417 1.396 . S
H419 C414 0.929 . S
O420 Mn396 2.385 . S
O420 C398 1.234 . S
O421 Mn396 2.209 . S
O421 Mn397 2.215 . S
O421 C398 1.283 . S
O422 Mn396 2.094 . S
O422 C400 1.240 . S
O423 Mn397 2.117 . S
O423 C400 1.264 . S
C424 C417 1.403 . S
C424 C425 1.399 . S
C424 H430 0.929 . S
C425 C405 1.449 . S
C425 C424 1.399 . S
C425 H431 0.930 . S
H426 C406 0.931 . S
H427 C407 0.930 . S
H428 C415 0.931 . S
H429 C416 0.929 . S
H430 C424 0.929 . S
H431 C425 0.930 . S
Mn432 O437 2.095 . S
Mn432 O447 2.162 . S
Mn432 O448 2.297 . S
Mn432 O456 2.385 . S
Mn432 O457 2.209 . S
Mn432 O458 2.094 . S
Mn433 O438 2.121 . S
Mn433 N440 2.257 1_565 S
Mn433 N449 2.282 1_565 S
Mn433 O457 2.215 . S
Mn433 O459 2.117 . S
C434 O456 1.234 . S
C434 O457 1.283 . S
C435 O447 1.281 . S
C435 O448 1.236 . S
C436 O458 1.240 . S
C436 O459 1.264 . S
O437 Mn432 2.095 . S
O437 C446 1.250 . S
O438 Mn433 2.121 . S
O438 C446 1.258 . S
C439 N440 1.326 . S
C439 C443 1.460 . S
C439 H445 0.929 . S
N440 Mn433 2.257 1_545 S
N440 C439 1.326 . S
N440 C444 1.362 . S
C441 C442 1.258 . S
C441 C444 1.431 . S
C441 C461 1.449 . S
C442 C441 1.258 . S
C442 C443 1.477 . S
C442 H462 0.931 . S
C443 C439 1.460 . S
C443 C442 1.477 . S
C443 H463 0.930 . S
C444 N440 1.362 . S
C444 C441 1.431 . S
C444 C454 1.476 . S
H445 C439 0.929 . S
C446 O437 1.250 . S
C446 O438 1.258 . S
O447 Mn432 2.162 . S
O447 C435 1.281 . S
O448 Mn432 2.297 . S
O448 C435 1.236 . S
N449 Mn433 2.282 1_545 S
N449 C450 1.328 1_545 S
N449 C454 1.318 . S
C450 N449 1.328 1_565 S
C450 C451 1.457 . S
C450 H455 0.929 . S
C451 C450 1.457 . S
C451 C452 1.291 1_565 S
C451 H464 0.931 . S
C452 C451 1.291 1_545 S
C452 C453 1.373 . S
C452 H465 0.929 . S
C453 C452 1.373 . S
C453 C454 1.396 . S
C453 C460 1.403 . S
C454 C444 1.476 . S
C454 N449 1.318 . S
C454 C453 1.396 . S
H455 C450 0.929 . S
O456 Mn432 2.385 . S
O456 C434 1.234 . S
O457 Mn432 2.209 . S
O457 Mn433 2.215 . S
O457 C434 1.283 . S
O458 Mn432 2.094 . S
O458 C436 1.240 . S
O459 Mn433 2.117 . S
O459 C436 1.264 . S
C460 C453 1.403 . S
C460 C461 1.399 . S
C460 H466 0.929 . S
C461 C441 1.449 . S
C461 C460 1.399 . S
C461 H467 0.930 . S
H462 C442 0.931 . S
H463 C443 0.930 . S
H464 C451 0.931 . S
H465 C452 0.929 . S
H466 C460 0.929 . S
H467 C461 0.930 . S
Mn468 O473 2.095 . S
Mn468 O483 2.162 . S
Mn468 O484 2.297 . S
Mn468 O492 2.385 . S
Mn468 O493 2.209 . S
Mn468 O494 2.094 . S
Mn469 O474 2.121 . S
Mn469 N476 2.257 1_455 S
Mn469 N485 2.282 1_455 S
Mn469 O493 2.215 . S
Mn469 O495 2.117 . S
C470 O492 1.234 . S
C470 O493 1.283 . S
C471 O483 1.281 . S
C471 O484 1.236 . S
C472 O494 1.240 . S
C472 O495 1.264 . S
O473 Mn468 2.095 . S
O473 C482 1.250 . S
O474 Mn469 2.121 . S
O474 C482 1.258 . S
C475 N476 1.326 . S
C475 C479 1.460 . S
C475 H481 0.929 . S
N476 Mn469 2.257 1_655 S
N476 C475 1.326 . S
N476 C480 1.362 . S
C477 C478 1.258 . S
C477 C480 1.431 . S
C477 C497 1.449 . S
C478 C477 1.258 . S
C478 C479 1.477 . S
C478 H498 0.931 . S
C479 C475 1.460 . S
C479 C478 1.477 . S
C479 H499 0.930 . S
C480 N476 1.362 . S
C480 C477 1.431 . S
C480 C490 1.476 . S
H481 C475 0.929 . S
C482 O473 1.250 . S
C482 O474 1.258 . S
O483 Mn468 2.162 . S
O483 C471 1.281 . S
O484 Mn468 2.297 . S
O484 C471 1.236 . S
N485 Mn469 2.282 1_655 S
N485 C486 1.328 1_655 S
N485 C490 1.318 . S
C486 N485 1.328 1_455 S
C486 C487 1.457 . S
C486 H491 0.929 . S
C487 C486 1.457 . S
C487 C488 1.291 1_455 S
C487 H500 0.931 . S
C488 C487 1.291 1_655 S
C488 C489 1.373 . S
C488 H501 0.929 . S
C489 C488 1.373 . S
C489 C490 1.396 . S
C489 C496 1.403 . S
C490 C480 1.476 . S
C490 N485 1.318 . S
C490 C489 1.396 . S
H491 C486 0.929 . S
O492 Mn468 2.385 . S
O492 C470 1.234 . S
O493 Mn468 2.209 . S
O493 Mn469 2.215 . S
O493 C470 1.283 . S
O494 Mn468 2.094 . S
O494 C472 1.240 . S
O495 Mn469 2.117 . S
O495 C472 1.264 . S
C496 C489 1.403 . S
C496 C497 1.399 . S
C496 H502 0.929 . S
C497 C477 1.449 . S
C497 C496 1.399 . S
C497 H503 0.930 . S
H498 C478 0.931 . S
H499 C479 0.930 . S
H500 C487 0.931 . S
H501 C488 0.929 . S
H502 C496 0.929 . S
H503 C497 0.930 . S
Mn504 O509 2.095 . S
Mn504 O519 2.162 . S
Mn504 O520 2.297 . S
Mn504 O528 2.385 . S
Mn504 O529 2.209 . S
Mn504 O530 2.094 . S
Mn505 O510 2.121 . S
Mn505 N512 2.257 . S
Mn505 N521 2.282 . S
Mn505 O529 2.215 . S
Mn505 O531 2.117 . S
C506 O528 1.234 . S
C506 O529 1.283 . S
C507 O519 1.281 . S
C507 O520 1.236 . S
C508 O530 1.240 . S
C508 O531 1.264 . S
O509 Mn504 2.095 . S
O509 C518 1.250 . S
O510 Mn505 2.121 . S
O510 C518 1.258 . S
C511 N512 1.326 . S
C511 C515 1.460 . S
C511 H517 0.929 . S
N512 Mn505 2.257 . S
N512 C511 1.326 . S
N512 C516 1.362 . S
C513 C514 1.258 . S
C513 C516 1.431 . S
C513 C533 1.449 . S
C514 C513 1.258 . S
C514 C515 1.477 . S
C514 H534 0.931 . S
C515 C511 1.460 . S
C515 C514 1.477 . S
C515 H535 0.930 . S
C516 N512 1.362 . S
C516 C513 1.431 . S
C516 C526 1.476 . S
H517 C511 0.929 . S
C518 O509 1.250 . S
C518 O510 1.258 . S
O519 Mn504 2.162 . S
O519 C507 1.281 . S
O520 Mn504 2.297 . S
O520 C507 1.236 . S
N521 Mn505 2.282 . S
N521 C522 1.328 . S
N521 C526 1.318 . S
C522 N521 1.328 . S
C522 C523 1.457 . S
C522 H527 0.929 . S
C523 C522 1.457 . S
C523 C524 1.291 . S
C523 H536 0.931 . S
C524 C523 1.291 . S
C524 C525 1.373 . S
C524 H537 0.929 . S
C525 C524 1.373 . S
C525 C526 1.396 . S
C525 C532 1.403 . S
C526 C516 1.476 . S
C526 N521 1.318 . S
C526 C525 1.396 . S
H527 C522 0.929 . S
O528 Mn504 2.385 . S
O528 C506 1.234 . S
O529 Mn504 2.209 . S
O529 Mn505 2.215 . S
O529 C506 1.283 . S
O530 Mn504 2.094 . S
O530 C508 1.240 . S
O531 Mn505 2.117 . S
O531 C508 1.264 . S
C532 C525 1.403 . S
C532 C533 1.399 . S
C532 H538 0.929 . S
C533 C513 1.449 . S
C533 C532 1.399 . S
C533 H539 0.930 . S
H534 C514 0.931 . S
H535 C515 0.930 . S
H536 C523 0.931 . S
H537 C524 0.929 . S
H538 C532 0.929 . S
H539 C533 0.930 . S
Mn540 O545 2.095 . S
Mn540 O555 2.162 . S
Mn540 O556 2.297 . S
Mn540 O564 2.385 . S
Mn540 O565 2.209 . S
Mn540 O566 2.094 . S
Mn541 O546 2.121 . S
Mn541 N548 2.257 . S
Mn541 N557 2.282 . S
Mn541 O565 2.215 . S
Mn541 O567 2.117 . S
C542 O564 1.234 . S
C542 O565 1.283 . S
C543 O555 1.281 . S
C543 O556 1.236 . S
C544 O566 1.240 . S
C544 O567 1.264 . S
O545 Mn540 2.095 . S
O545 C554 1.250 . S
O546 Mn541 2.121 . S
O546 C554 1.258 . S
C547 N548 1.326 . S
C547 C551 1.460 . S
C547 H553 0.929 . S
N548 Mn541 2.257 . S
N548 C547 1.326 . S
N548 C552 1.362 . S
C549 C550 1.258 . S
C549 C552 1.431 . S
C549 C569 1.449 . S
C550 C549 1.258 . S
C550 C551 1.477 . S
C550 H570 0.931 . S
C551 C547 1.460 . S
C551 C550 1.477 . S
C551 H571 0.930 . S
C552 N548 1.362 . S
C552 C549 1.431 . S
C552 C562 1.476 . S
H553 C547 0.929 . S
C554 O545 1.250 . S
C554 O546 1.258 . S
O555 Mn540 2.162 . S
O555 C543 1.281 . S
O556 Mn540 2.297 . S
O556 C543 1.236 . S
N557 Mn541 2.282 . S
N557 C558 1.328 . S
N557 C562 1.318 . S
C558 N557 1.328 . S
C558 C559 1.457 . S
C558 H563 0.929 . S
C559 C558 1.457 . S
C559 C560 1.291 . S
C559 H572 0.931 . S
C560 C559 1.291 . S
C560 C561 1.373 . S
C560 H573 0.929 . S
C561 C560 1.373 . S
C561 C562 1.396 . S
C561 C568 1.403 . S
C562 C552 1.476 . S
C562 N557 1.318 . S
C562 C561 1.396 . S
H563 C558 0.929 . S
O564 Mn540 2.385 . S
O564 C542 1.234 . S
O565 Mn540 2.209 . S
O565 Mn541 2.215 . S
O565 C542 1.283 . S
O566 Mn540 2.094 . S
O566 C544 1.240 . S
O567 Mn541 2.117 . S
O567 C544 1.264 . S
C568 C561 1.403 . S
C568 C569 1.399 . S
C568 H574 0.929 . S
C569 C549 1.449 . S
C569 C568 1.399 . S
C569 H575 0.930 . S
H570 C550 0.931 . S
H571 C551 0.930 . S
H572 C559 0.931 . S
H573 C560 0.929 . S
H574 C568 0.929 . S
H575 C569 0.930 . S
Mn576 O581 2.095 . S
Mn576 O591 2.162 . S
Mn576 O592 2.297 . S
Mn576 O600 2.385 . S
Mn576 O601 2.209 . S
Mn576 O602 2.094 . S
Mn577 O582 2.121 . S
Mn577 N584 2.257 . S
Mn577 N593 2.282 . S
Mn577 O601 2.215 . S
Mn577 O603 2.117 . S
C578 O600 1.234 . S
C578 O601 1.283 . S
C579 O591 1.281 . S
C579 O592 1.236 . S
C580 O602 1.240 . S
C580 O603 1.264 . S
O581 Mn576 2.095 . S
O581 C590 1.250 . S
O582 Mn577 2.121 . S
O582 C590 1.258 . S
C583 N584 1.326 . S
C583 C587 1.460 . S
C583 H589 0.929 . S
N584 Mn577 2.257 . S
N584 C583 1.326 . S
N584 C588 1.362 . S
C585 C586 1.258 . S
C585 C588 1.431 . S
C585 C605 1.449 . S
C586 C585 1.258 . S
C586 C587 1.477 . S
C586 H606 0.931 . S
C587 C583 1.460 . S
C587 C586 1.477 . S
C587 H607 0.930 . S
C588 N584 1.362 . S
C588 C585 1.431 . S
C588 C598 1.476 . S
H589 C583 0.929 . S
C590 O581 1.250 . S
C590 O582 1.258 . S
O591 Mn576 2.162 . S
O591 C579 1.281 . S
O592 Mn576 2.297 . S
O592 C579 1.236 . S
N593 Mn577 2.282 . S
N593 C594 1.328 . S
N593 C598 1.318 . S
C594 N593 1.328 . S
C594 C595 1.457 . S
C594 H599 0.929 . S
C595 C594 1.457 . S
C595 C596 1.291 . S
C595 H608 0.931 . S
C596 C595 1.291 . S
C596 C597 1.373 . S
C596 H609 0.929 . S
C597 C596 1.373 . S
C597 C598 1.396 . S
C597 C604 1.403 . S
C598 C588 1.476 . S
C598 N593 1.318 . S
C598 C597 1.396 . S
H599 C594 0.929 . S
O600 Mn576 2.385 . S
O600 C578 1.234 . S
O601 Mn576 2.209 . S
O601 Mn577 2.215 . S
O601 C578 1.283 . S
O602 Mn576 2.094 . S
O602 C580 1.240 . S
O603 Mn577 2.117 . S
O603 C580 1.264 . S
C604 C597 1.403 . S
C604 C605 1.399 . S
C604 H610 0.929 . S
C605 C585 1.449 . S
C605 C604 1.399 . S
C605 H611 0.930 . S
H606 C586 0.931 . S
H607 C587 0.930 . S
H608 C595 0.931 . S
H609 C596 0.929 . S
H610 C604 0.929 . S
H611 C605 0.930 . S
Mn612 O617 2.095 . S
Mn612 O627 2.162 . S
Mn612 O628 2.297 . S
Mn612 O636 2.385 . S
Mn612 O637 2.209 . S
Mn612 O638 2.094 . S
Mn613 O618 2.121 . S
Mn613 N620 2.257 . S
Mn613 N629 2.282 . S
Mn613 O637 2.215 . S
Mn613 O639 2.117 . S
C614 O636 1.234 . S
C614 O637 1.283 . S
C615 O627 1.281 . S
C615 O628 1.236 . S
C616 O638 1.240 . S
C616 O639 1.264 . S
O617 Mn612 2.095 . S
O617 C626 1.250 . S
O618 Mn613 2.121 . S
O618 C626 1.258 . S
C619 N620 1.326 . S
C619 C623 1.460 . S
C619 H625 0.929 . S
N620 Mn613 2.257 . S
N620 C619 1.326 . S
N620 C624 1.362 . S
C621 C622 1.258 . S
C621 C624 1.431 . S
C621 C641 1.449 . S
C622 C621 1.258 . S
C622 C623 1.477 . S
C622 H642 0.931 . S
C623 C619 1.460 . S
C623 C622 1.477 . S
C623 H643 0.930 . S
C624 N620 1.362 . S
C624 C621 1.431 . S
C624 C634 1.476 . S
H625 C619 0.929 . S
C626 O617 1.250 . S
C626 O618 1.258 . S
O627 Mn612 2.162 . S
O627 C615 1.281 . S
O628 Mn612 2.297 . S
O628 C615 1.236 . S
N629 Mn613 2.282 . S
N629 C630 1.328 . S
N629 C634 1.318 . S
C630 N629 1.328 . S
C630 C631 1.457 . S
C630 H635 0.929 . S
C631 C630 1.457 . S
C631 C632 1.291 . S
C631 H644 0.931 . S
C632 C631 1.291 . S
C632 C633 1.373 . S
C632 H645 0.929 . S
C633 C632 1.373 . S
C633 C634 1.396 . S
C633 C640 1.403 . S
C634 C624 1.476 . S
C634 N629 1.318 . S
C634 C633 1.396 . S
H635 C630 0.929 . S
O636 Mn612 2.385 . S
O636 C614 1.234 . S
O637 Mn612 2.209 . S
O637 Mn613 2.215 . S
O637 C614 1.283 . S
O638 Mn612 2.094 . S
O638 C616 1.240 . S
O639 Mn613 2.117 . S
O639 C616 1.264 . S
C640 C633 1.403 . S
C640 C641 1.399 . S
C640 H646 0.929 . S
C641 C621 1.449 . S
C641 C640 1.399 . S
C641 H647 0.930 . S
H642 C622 0.931 . S
H643 C623 0.930 . S
H644 C631 0.931 . S
H645 C632 0.929 . S
H646 C640 0.929 . S
H647 C641 0.930 . S
C648 C649 1.369 . S
C648 C650 1.419 . S
C648 H652 0.930 . S
C649 C648 1.369 . S
C649 C658 1.429 . S
C650 C648 1.419 . S
C650 C651 1.363 . S
C650 H653 0.929 . S
C651 C650 1.363 . S
C651 C657 1.428 . S
H652 C648 0.930 . S
H653 C650 0.929 . S
S654 N655 1.613 . S
S654 N656 1.610 . S
N655 S654 1.613 . S
N655 C658 1.350 . S
N656 S654 1.610 . S
N656 C657 1.351 . S
C657 C651 1.428 . S
C657 N656 1.351 . S
C657 C658 1.434 . S
C658 C649 1.429 . S
C658 N655 1.350 . S
C658 C657 1.434 . S
C659 C660 1.369 . S
C659 C661 1.419 . S
C659 H663 0.930 . S
C660 C659 1.369 . S
C660 C669 1.429 . S
C661 C659 1.419 . S
C661 C662 1.363 . S
C661 H664 0.929 . S
C662 C661 1.363 . S
C662 C668 1.428 . S
H663 C659 0.930 . S
H664 C661 0.929 . S
S665 N666 1.613 . S
S665 N667 1.610 . S
N666 S665 1.613 . S
N666 C669 1.350 . S
N667 S665 1.610 . S
N667 C668 1.351 . S
C668 C662 1.428 . S
C668 N667 1.351 . S
C668 C669 1.434 . S
C669 C660 1.429 . S
C669 N666 1.350 . S
C669 C668 1.434 . S
C670 C671 1.369 . S
C670 C672 1.419 . S
C670 H674 0.930 . S
C671 C670 1.369 . S
C671 C680 1.429 . S
C672 C670 1.419 . S
C672 C673 1.363 . S
C672 H675 0.929 . S
C673 C672 1.363 . S
C673 C679 1.428 . S
H674 C670 0.930 . S
H675 C672 0.929 . S
S676 N677 1.613 . S
S676 N678 1.610 . S
N677 S676 1.613 . S
N677 C680 1.350 . S
N678 S676 1.610 . S
N678 C679 1.351 . S
C679 C673 1.428 . S
C679 N678 1.351 . S
C679 C680 1.434 . S
C680 C671 1.429 . S
C680 N677 1.350 . S
C680 C679 1.434 . S
C681 C682 1.369 . S
C681 C683 1.419 . S
C681 H685 0.930 . S
C682 C681 1.369 . S
C682 C691 1.429 . S
C683 C681 1.419 . S
C683 C684 1.363 . S
C683 H686 0.929 . S
C684 C683 1.363 . S
C684 C690 1.428 . S
H685 C681 0.930 . S
H686 C683 0.929 . S
S687 N688 1.613 . S
S687 N689 1.610 . S
N688 S687 1.613 . S
N688 C691 1.350 . S
N689 S687 1.610 . S
N689 C690 1.351 . S
C690 C684 1.428 . S
C690 N689 1.351 . S
C690 C691 1.434 . S
C691 C682 1.429 . S
C691 N688 1.350 . S
C691 C690 1.434 . S
C692 C693 1.369 . S
C692 C694 1.419 . S
C692 H696 0.930 . S
C693 C692 1.369 . S
C693 C702 1.429 . S
C694 C692 1.419 . S
C694 C695 1.363 . S
C694 H697 0.929 . S
C695 C694 1.363 . S
C695 C701 1.428 . S
H696 C692 0.930 . S
H697 C694 0.929 . S
S698 N699 1.613 . S
S698 N700 1.610 . S
N699 S698 1.613 . S
N699 C702 1.350 . S
N700 S698 1.610 . S
N700 C701 1.351 . S
C701 C695 1.428 . S
C701 N700 1.351 . S
C701 C702 1.434 . S
C702 C693 1.429 . S
C702 N699 1.350 . S
C702 C701 1.434 . S
C703 C704 1.369 . S
C703 C705 1.419 . S
C703 H707 0.930 . S
C704 C703 1.369 . S
C704 C713 1.429 . S
C705 C703 1.419 . S
C705 C706 1.363 . S
C705 H708 0.929 . S
C706 C705 1.363 . S
C706 C712 1.428 . S
H707 C703 0.930 . S
H708 C705 0.929 . S
S709 N710 1.613 . S
S709 N711 1.610 . S
N710 S709 1.613 . S
N710 C713 1.350 . S
N711 S709 1.610 . S
N711 C712 1.351 . S
C712 C706 1.428 . S
C712 N711 1.351 . S
C712 C713 1.434 . S
C713 C704 1.429 . S
C713 N710 1.350 . S
C713 C712 1.434 . S
C714 C715 1.369 1_455 S
C714 C716 1.419 1_554 S
C714 H718 0.930 . S
C715 C714 1.369 1_655 S
C715 C724 1.429 . S
C716 C714 1.419 1_556 S
C716 C717 1.363 . S
C716 H719 0.929 . S
C717 C716 1.363 . S
C717 C723 1.428 1_455 S
H718 C714 0.930 . S
H719 C716 0.929 . S
S720 N721 1.613 1_556 S
S720 N722 1.610 . S
N721 S720 1.613 1_554 S
N721 C724 1.350 . S
N722 S720 1.610 . S
N722 C723 1.351 . S
C723 C717 1.428 1_655 S
C723 N722 1.351 . S
C723 C724 1.434 1_556 S
C724 C715 1.429 . S
C724 N721 1.350 . S
C724 C723 1.434 1_554 S
C725 C726 1.369 . S
C725 C727 1.419 1_554 S
C725 H729 0.930 . S
C726 C725 1.369 . S
C726 C735 1.429 . S
C727 C725 1.419 1_556 S
C727 C728 1.363 . S
C727 H730 0.929 . S
C728 C727 1.363 . S
C728 C734 1.428 . S
H729 C725 0.930 . S
H730 C727 0.929 . S
S731 N732 1.613 . S
S731 N733 1.610 1_554 S
N732 S731 1.613 . S
N732 C735 1.350 . S
N733 S731 1.610 1_556 S
N733 C734 1.351 . S
C734 C728 1.428 . S
C734 N733 1.351 . S
C734 C735 1.434 1_556 S
C735 C726 1.429 . S
C735 N732 1.350 . S
C735 C734 1.434 1_554 S
C736 C737 1.369 . S
C736 C738 1.419 1_554 S
C736 H740 0.930 . S
C737 C736 1.369 . S
C737 C746 1.429 1_545 S
C738 C736 1.419 1_556 S
C738 C739 1.363 1_545 S
C738 H741 0.929 . S
C739 C738 1.363 1_565 S
C739 C745 1.428 . S
H740 C736 0.930 . S
H741 C738 0.929 . S
S742 N743 1.613 . S
S742 N744 1.610 1_554 S
N743 S742 1.613 . S
N743 C746 1.350 . S
N744 S742 1.610 1_556 S
N744 C745 1.351 . S
C745 C739 1.428 . S
C745 N744 1.351 . S
C745 C746 1.434 1_556 S
C746 C737 1.429 1_565 S
C746 N743 1.350 . S
C746 C745 1.434 1_554 S
C747 C748 1.369 . S
C747 C749 1.419 . S
C747 H751 0.930 . S
C748 C747 1.369 . S
C748 C757 1.429 . S
C749 C747 1.419 . S
C749 C750 1.363 . S
C749 H752 0.929 . S
C750 C749 1.363 . S
C750 C756 1.428 . S
H751 C747 0.930 . S
H752 C749 0.929 . S
S753 N754 1.613 . S
S753 N755 1.610 . S
N754 S753 1.613 . S
N754 C757 1.350 . S
N755 S753 1.610 . S
N755 C756 1.351 . S
C756 C750 1.428 . S
C756 N755 1.351 . S
C756 C757 1.434 . S
C757 C748 1.429 . S
C757 N754 1.350 . S
C757 C756 1.434 . S
C758 C759 1.369 . S
C758 C760 1.419 . S
C758 H762 0.930 . S
C759 C758 1.369 . S
C759 C768 1.429 . S
C760 C758 1.419 . S
C760 C761 1.363 . S
C760 H763 0.929 . S
C761 C760 1.363 . S
C761 C767 1.428 . S
H762 C758 0.930 . S
H763 C760 0.929 . S
S764 N765 1.613 . S
S764 N766 1.610 . S
N765 S764 1.613 . S
N765 C768 1.350 . S
N766 S764 1.610 . S
N766 C767 1.351 . S
C767 C761 1.428 . S
C767 N766 1.351 . S
C767 C768 1.434 . S
C768 C759 1.429 . S
C768 N765 1.350 . S
C768 C767 1.434 . S
C769 C770 1.369 . S
C769 C771 1.419 . S
C769 H773 0.930 . S
C770 C769 1.369 . S
C770 C779 1.429 . S
C771 C769 1.419 . S
C771 C772 1.363 . S
C771 H774 0.929 . S
C772 C771 1.363 . S
C772 C778 1.428 . S
H773 C769 0.930 . S
H774 C771 0.929 . S
S775 N776 1.613 . S
S775 N777 1.610 . S
N776 S775 1.613 . S
N776 C779 1.350 . S
N777 S775 1.610 . S
N777 C778 1.351 . S
C778 C772 1.428 . S
C778 N777 1.351 . S
C778 C779 1.434 . S
C779 C770 1.429 . S
C779 N776 1.350 . S
C779 C778 1.434 . S
C780 C781 1.369 . S
C780 C782 1.419 . S
C780 H784 0.930 . S
C781 C780 1.369 . S
C781 C790 1.429 . S
C782 C780 1.419 . S
C782 C783 1.363 . S
C782 H785 0.929 . S
C783 C782 1.363 . S
C783 C789 1.428 . S
H784 C780 0.930 . S
H785 C782 0.929 . S
S786 N787 1.613 . S
S786 N788 1.610 . S
N787 S786 1.613 . S
N787 C790 1.350 . S
N788 S786 1.610 . S
N788 C789 1.351 . S
C789 C783 1.428 . S
C789 N788 1.351 . S
C789 C790 1.434 . S
C790 C781 1.429 . S
C790 N787 1.350 . S
C790 C789 1.434 . S
C791 C792 1.369 . S
C791 C793 1.419 . S
C791 H795 0.930 . S
C792 C791 1.369 . S
C792 C801 1.429 . S
C793 C791 1.419 . S
C793 C794 1.363 . S
C793 H796 0.929 . S
C794 C793 1.363 . S
C794 C800 1.428 . S
H795 C791 0.930 . S
H796 C793 0.929 . S
S797 N798 1.613 . S
S797 N799 1.610 . S
N798 S797 1.613 . S
N798 C801 1.350 . S
N799 S797 1.610 . S
N799 C800 1.351 . S
C800 C794 1.428 . S
C800 N799 1.351 . S
C800 C801 1.434 . S
C801 C792 1.429 . S
C801 N798 1.350 . S
C801 C800 1.434 . S
C802 C803 1.369 . S
C802 C804 1.419 . S
C802 H806 0.930 . S
C803 C802 1.369 . S
C803 C812 1.429 . S
C804 C802 1.419 . S
C804 C805 1.363 . S
C804 H807 0.929 . S
C805 C804 1.363 . S
C805 C811 1.428 . S
H806 C802 0.930 . S
H807 C804 0.929 . S
S808 N809 1.613 . S
S808 N810 1.610 . S
N809 S808 1.613 . S
N809 C812 1.350 . S
N810 S808 1.610 . S
N810 C811 1.351 . S
C811 C805 1.428 . S
C811 N810 1.351 . S
C811 C812 1.434 . S
C812 C803 1.429 . S
C812 N809 1.350 . S
C812 C811 1.434 . S
C813 C814 1.369 1_455 S
C813 C815 1.419 . S
C813 H817 0.930 . S
C814 C813 1.369 1_655 S
C814 C823 1.429 . S
C815 C813 1.419 . S
C815 C816 1.363 . S
C815 H818 0.929 . S
C816 C815 1.363 . S
C816 C822 1.428 1_455 S
H817 C813 0.930 . S
H818 C815 0.929 . S
S819 N820 1.613 . S
S819 N821 1.610 . S
N820 S819 1.613 . S
N820 C823 1.350 . S
N821 S819 1.610 . S
N821 C822 1.351 . S
C822 C816 1.428 1_655 S
C822 N821 1.351 . S
C822 C823 1.434 . S
C823 C814 1.429 . S
C823 N820 1.350 . S
C823 C822 1.434 . S
C824 C825 1.369 . S
C824 C826 1.419 . S
C824 H828 0.930 . S
C825 C824 1.369 . S
C825 C834 1.429 . S
C826 C824 1.419 . S
C826 C827 1.363 . S
C826 H829 0.929 . S
C827 C826 1.363 . S
C827 C833 1.428 . S
H828 C824 0.930 . S
H829 C826 0.929 . S
S830 N831 1.613 . S
S830 N832 1.610 . S
N831 S830 1.613 . S
N831 C834 1.350 . S
N832 S830 1.610 . S
N832 C833 1.351 . S
C833 C827 1.428 . S
C833 N832 1.351 . S
C833 C834 1.434 . S
C834 C825 1.429 . S
C834 N831 1.350 . S
C834 C833 1.434 . S
C835 C836 1.369 . S
C835 C837 1.419 . S
C835 H839 0.930 . S
C836 C835 1.369 . S
C836 C845 1.429 1_565 S
C837 C835 1.419 . S
C837 C838 1.363 1_565 S
C837 H840 0.929 . S
C838 C837 1.363 1_545 S
C838 C844 1.428 . S
H839 C835 0.930 . S
H840 C837 0.929 . S
S841 N842 1.613 . S
S841 N843 1.610 . S
N842 S841 1.613 . S
N842 C845 1.350 . S
N843 S841 1.610 . S
N843 C844 1.351 . S
C844 C838 1.428 . S
C844 N843 1.351 . S
C844 C845 1.434 . S
C845 C836 1.429 1_545 S
C845 N842 1.350 . S
C845 C844 1.434 . S
C846 C847 1.369 . S
C846 C848 1.419 . S
C846 H850 0.930 . S
C847 C846 1.369 . S
C847 C856 1.429 1_554 S
C848 C846 1.419 . S
C848 C849 1.363 1_554 S
C848 H851 0.929 . S
C849 C848 1.363 1_556 S
C849 C855 1.428 . S
H850 C846 0.930 . S
H851 C848 0.929 . S
S852 N853 1.613 . S
S852 N854 1.610 . S
N853 S852 1.613 . S
N853 C856 1.350 . S
N854 S852 1.610 . S
N854 C855 1.351 . S
C855 C849 1.428 . S
C855 N854 1.351 . S
C855 C856 1.434 . S
C856 C847 1.429 1_556 S
C856 N853 1.350 . S
C856 C855 1.434 . S
C857 C858 1.369 . S
C857 C859 1.419 1_545 S
C857 H861 0.930 . S
C858 C857 1.369 . S
C858 C867 1.429 1_556 S
C859 C857 1.419 1_565 S
C859 C860 1.363 1_556 S
C859 H862 0.929 . S
C860 C859 1.363 1_554 S
C860 C866 1.428 . S
H861 C857 0.930 . S
H862 C859 0.929 . S
S863 N864 1.613 . S
S863 N865 1.610 1_545 S
N864 S863 1.613 . S
N864 C867 1.350 . S
N865 S863 1.610 1_565 S
N865 C866 1.351 . S
C866 C860 1.428 . S
C866 N865 1.351 . S
C866 C867 1.434 1_565 S
C867 C858 1.429 1_554 S
C867 N864 1.350 . S
C867 C866 1.434 1_545 S
C868 C869 1.369 1_554 S
C868 C870 1.419 1_655 S
C868 H872 0.930 . S
C869 C868 1.369 1_556 S
C869 C878 1.429 . S
C870 C868 1.419 1_455 S
C870 C871 1.363 . S
C870 H873 0.929 . S
C871 C870 1.363 . S
C871 C877 1.428 1_554 S
H872 C868 0.930 . S
H873 C870 0.929 . S
S874 N875 1.613 1_455 S
S874 N876 1.610 . S
N875 S874 1.613 1_655 S
N875 C878 1.350 . S
N876 S874 1.610 . S
N876 C877 1.351 . S
C877 C871 1.428 1_556 S
C877 N876 1.351 . S
C877 C878 1.434 1_455 S
C878 C869 1.429 . S
C878 N875 1.350 . S
C878 C877 1.434 1_655 S
C879 C880 1.369 1_554 S
C879 C881 1.419 . S
C879 H883 0.930 . S
C880 C879 1.369 1_556 S
C880 C889 1.429 . S
C881 C879 1.419 . S
C881 C882 1.363 . S
C881 H884 0.929 . S
C882 C881 1.363 . S
C882 C888 1.428 1_554 S
H883 C879 0.930 . S
H884 C881 0.929 . S
S885 N886 1.613 . S
S885 N887 1.610 . S
N886 S885 1.613 . S
N886 C889 1.350 . S
N887 S885 1.610 . S
N887 C888 1.351 . S
C888 C882 1.428 1_556 S
C888 N887 1.351 . S
C888 C889 1.434 . S
C889 C880 1.429 . S
C889 N886 1.350 . S
C889 C888 1.434 . S
C890 C891 1.369 . S
C890 C892 1.419 1_565 S
C890 H894 0.930 . S
C891 C890 1.369 . S
C891 C900 1.429 1_554 S
C892 C890 1.419 1_545 S
C892 C893 1.363 1_554 S
C892 H895 0.929 . S
C893 C892 1.363 1_556 S
C893 C899 1.428 . S
H894 C890 0.930 . S
H895 C892 0.929 . S
S896 N897 1.613 . S
S896 N898 1.610 1_565 S
N897 S896 1.613 . S
N897 C900 1.350 . S
N898 S896 1.610 1_545 S
N898 C899 1.351 . S
C899 C893 1.428 . S
C899 N898 1.351 . S
C899 C900 1.434 1_545 S
C900 C891 1.429 1_556 S
C900 N897 1.350 . S
C900 C899 1.434 1_565 S
C901 C902 1.369 . S
C901 C903 1.419 1_655 S
C901 H905 0.930 . S
C902 C901 1.369 . S
C902 C911 1.429 1_556 S
C903 C901 1.419 1_455 S
C903 C904 1.363 1_556 S
C903 H906 0.929 . S
C904 C903 1.363 1_554 S
C904 C910 1.428 . S
H905 C901 0.930 . S
H906 C903 0.929 . S
S907 N908 1.613 . S
S907 N909 1.610 1_655 S
N908 S907 1.613 . S
N908 C911 1.350 . S
N909 S907 1.610 1_455 S
N909 C910 1.351 . S
C910 C904 1.428 . S
C910 N909 1.351 . S
C910 C911 1.434 1_455 S
C911 C902 1.429 1_554 S
C911 N908 1.350 . S
C911 C910 1.434 1_655 S
C912 C913 1.369 . S
C912 C914 1.419 . S
C912 H916 0.930 . S
C913 C912 1.369 . S
C913 C922 1.429 . S
C914 C912 1.419 . S
C914 C915 1.363 . S
C914 H917 0.929 . S
C915 C914 1.363 . S
C915 C921 1.428 . S
H916 C912 0.930 . S
H917 C914 0.929 . S
S918 N919 1.613 . S
S918 N920 1.610 . S
N919 S918 1.613 . S
N919 C922 1.350 . S
N920 S918 1.610 . S
N920 C921 1.351 . S
C921 C915 1.428 . S
C921 N920 1.351 . S
C921 C922 1.434 . S
C922 C913 1.429 . S
C922 N919 1.350 . S
C922 C921 1.434 . S
C923 C924 1.369 . S
C923 C925 1.419 . S
C923 H927 0.930 . S
C924 C923 1.369 . S
C924 C933 1.429 . S
C925 C923 1.419 . S
C925 C926 1.363 . S
C925 H928 0.929 . S
C926 C925 1.363 . S
C926 C932 1.428 . S
H927 C923 0.930 . S
H928 C925 0.929 . S
S929 N930 1.613 . S
S929 N931 1.610 . S
N930 S929 1.613 . S
N930 C933 1.350 . S
N931 S929 1.610 . S
N931 C932 1.351 . S
C932 C926 1.428 . S
C932 N931 1.351 . S
C932 C933 1.434 . S
C933 C924 1.429 . S
C933 N930 1.350 . S
C933 C932 1.434 . S
C934 C935 1.369 . S
C934 C936 1.419 . S
C934 H938 0.930 . S
C935 C934 1.369 . S
C935 C944 1.429 . S
C936 C934 1.419 . S
C936 C937 1.363 . S
C936 H939 0.929 . S
C937 C936 1.363 . S
C937 C943 1.428 . S
H938 C934 0.930 . S
H939 C936 0.929 . S
S940 N941 1.613 . S
S940 N942 1.610 . S
N941 S940 1.613 . S
N941 C944 1.350 . S
N942 S940 1.610 . S
N942 C943 1.351 . S
C943 C937 1.428 . S
C943 N942 1.351 . S
C943 C944 1.434 . S
C944 C935 1.429 . S
C944 N941 1.350 . S
C944 C943 1.434 . S
C945 C946 1.369 . S
C945 C947 1.419 . S
C945 H949 0.930 . S
C946 C945 1.369 . S
C946 C955 1.429 . S
C947 C945 1.419 . S
C947 C948 1.363 . S
C947 H950 0.929 . S
C948 C947 1.363 . S
C948 C954 1.428 . S
H949 C945 0.930 . S
H950 C947 0.929 . S
S951 N952 1.613 . S
S951 N953 1.610 . S
N952 S951 1.613 . S
N952 C955 1.350 . S
N953 S951 1.610 . S
N953 C954 1.351 . S
C954 C948 1.428 . S
C954 N953 1.351 . S
C954 C955 1.434 . S
C955 C946 1.429 . S
C955 N952 1.350 . S
C955 C954 1.434 . S
C956 C957 1.369 . S
C956 C958 1.419 . S
C956 H960 0.930 . S
C957 C956 1.369 . S
C957 C966 1.429 . S
C958 C956 1.419 . S
C958 C959 1.363 . S
C958 H961 0.929 . S
C959 C958 1.363 . S
C959 C965 1.428 . S
H960 C956 0.930 . S
H961 C958 0.929 . S
S962 N963 1.613 . S
S962 N964 1.610 . S
N963 S962 1.613 . S
N963 C966 1.350 . S
N964 S962 1.610 . S
N964 C965 1.351 . S
C965 C959 1.428 . S
C965 N964 1.351 . S
C965 C966 1.434 . S
C966 C957 1.429 . S
C966 N963 1.350 . S
C966 C965 1.434 . S
C967 C968 1.369 . S
C967 C969 1.419 . S
C967 H971 0.930 . S
C968 C967 1.369 . S
C968 C977 1.429 . S
C969 C967 1.419 . S
C969 C970 1.363 . S
C969 H972 0.929 . S
C970 C969 1.363 . S
C970 C976 1.428 . S
H971 C967 0.930 . S
H972 C969 0.929 . S
S973 N974 1.613 . S
S973 N975 1.610 . S
N974 S973 1.613 . S
N974 C977 1.350 . S
N975 S973 1.610 . S
N975 C976 1.351 . S
C976 C970 1.428 . S
C976 N975 1.351 . S
C976 C977 1.434 . S
C977 C968 1.429 . S
C977 N974 1.350 . S
C977 C976 1.434 . S
C978 C979 1.369 . S
C978 C980 1.419 . S
C978 H982 0.930 . S
C979 C978 1.369 . S
C979 C988 1.429 . S
C980 C978 1.419 . S
C980 C981 1.363 . S
C980 H983 0.929 . S
C981 C980 1.363 . S
C981 C987 1.428 . S
H982 C978 0.930 . S
H983 C980 0.929 . S
S984 N985 1.613 . S
S984 N986 1.610 . S
N985 S984 1.613 . S
N985 C988 1.350 . S
N986 S984 1.610 . S
N986 C987 1.351 . S
C987 C981 1.428 . S
C987 N986 1.351 . S
C987 C988 1.434 . S
C988 C979 1.429 . S
C988 N985 1.350 . S
C988 C987 1.434 . S
C989 C990 1.369 . S
C989 C991 1.419 . S
C989 H993 0.930 . S
C990 C989 1.369 . S
C990 C999 1.429 . S
C991 C989 1.419 . S
C991 C992 1.363 . S
C991 H994 0.929 . S
C992 C991 1.363 . S
C992 C998 1.428 . S
H993 C989 0.930 . S
H994 C991 0.929 . S
S995 N996 1.613 . S
S995 N997 1.610 . S
N996 S995 1.613 . S
N996 C999 1.350 . S
N997 S995 1.610 . S
N997 C998 1.351 . S
C998 C992 1.428 . S
C998 N997 1.351 . S
C998 C999 1.434 . S
C999 C990 1.429 . S
C999 N996 1.350 . S
C999 C998 1.434 . S
C1000 C1001 1.369 . S
C1000 C1002 1.419 . S
C1000 H1004 0.930 . S
C1001 C1000 1.369 . S
C1001 C1010 1.429 . S
C1002 C1000 1.419 . S
C1002 C1003 1.363 . S
C1002 H1005 0.929 . S
C1003 C1002 1.363 . S
C1003 C1009 1.428 . S
H1004 C1000 0.930 . S
H1005 C1002 0.929 . S
S1006 N1007 1.613 . S
S1006 N1008 1.610 . S
N1007 S1006 1.613 . S
N1007 C1010 1.350 . S
N1008 S1006 1.610 . S
N1008 C1009 1.351 . S
C1009 C1003 1.428 . S
C1009 N1008 1.351 . S
C1009 C1010 1.434 . S
C1010 C1001 1.429 . S
C1010 N1007 1.350 . S
C1010 C1009 1.434 . S
C1011 C1012 1.369 . S
C1011 C1013 1.419 . S
C1011 H1015 0.930 . S
C1012 C1011 1.369 . S
C1012 C1021 1.429 . S
C1013 C1011 1.419 . S
C1013 C1014 1.363 . S
C1013 H1016 0.929 . S
C1014 C1013 1.363 . S
C1014 C1020 1.428 . S
H1015 C1011 0.930 . S
H1016 C1013 0.929 . S
S1017 N1018 1.613 . S
S1017 N1019 1.610 . S
N1018 S1017 1.613 . S
N1018 C1021 1.350 . S
N1019 S1017 1.610 . S
N1019 C1020 1.351 . S
C1020 C1014 1.428 . S
C1020 N1019 1.351 . S
C1020 C1021 1.434 . S
C1021 C1012 1.429 . S
C1021 N1018 1.350 . S
C1021 C1020 1.434 . S
C1022 C1023 1.369 . S
C1022 C1024 1.419 . S
C1022 H1026 0.930 . S
C1023 C1022 1.369 . S
C1023 C1032 1.429 . S
C1024 C1022 1.419 . S
C1024 C1025 1.363 . S
C1024 H1027 0.929 . S
C1025 C1024 1.363 . S
C1025 C1031 1.428 . S
H1026 C1022 0.930 . S
H1027 C1024 0.929 . S
S1028 N1029 1.613 . S
S1028 N1030 1.610 . S
N1029 S1028 1.613 . S
N1029 C1032 1.350 . S
N1030 S1028 1.610 . S
N1030 C1031 1.351 . S
C1031 C1025 1.428 . S
C1031 N1030 1.351 . S
C1031 C1032 1.434 . S
C1032 C1023 1.429 . S
C1032 N1029 1.350 . S
C1032 C1031 1.434 . S
C1033 C1034 1.369 . S
C1033 C1035 1.419 . S
C1033 H1037 0.930 . S
C1034 C1033 1.369 . S
C1034 C1043 1.429 . S
C1035 C1033 1.419 . S
C1035 C1036 1.363 . S
C1035 H1038 0.929 . S
C1036 C1035 1.363 . S
C1036 C1042 1.428 . S
H1037 C1033 0.930 . S
H1038 C1035 0.929 . S
S1039 N1040 1.613 . S
S1039 N1041 1.610 . S
N1040 S1039 1.613 . S
N1040 C1043 1.350 . S
N1041 S1039 1.610 . S
N1041 C1042 1.351 . S
C1042 C1036 1.428 . S
C1042 N1041 1.351 . S
C1042 C1043 1.434 . S
C1043 C1034 1.429 . S
C1043 N1040 1.350 . S
C1043 C1042 1.434 . S
C649 C626 1.659 . S
C651 C14 1.660 . S
C660 C554 1.653 . S
C662 C50 1.657 . S
C671 C590 1.659 . S
C673 C86 1.660 . S
C682 C266 1.653 . S
C684 C122 1.656 . S
C693 C302 1.660 . S
C695 C158 1.656 . S
C704 C194 1.654 . S
C706 C230 1.658 . S
C715 C338 1.655 . S
C717 C482 1.654 . S
C726 C374 1.661 . S
C728 C518 1.659 . S
C737 C410 1.658 . S
C739 C446 1.660 . S
C748 C2 0.830 . S
C750 C614 0.819 . S
C759 C542 0.820 . S
C761 C38 0.826 . S
C770 C74 0.824 . S
C772 C578 0.823 . S
C781 C254 0.819 . S
C783 C110 0.828 . S
C792 C146 0.820 . S
C794 C290 0.827 . S
C803 C182 0.829 . S
C805 C218 0.819 . S
C814 C326 0.818 . S
C816 C470 0.828 . S
C825 C506 0.830 . S
C827 C362 0.819 . S
C836 C434 0.829 . S
C838 C398 0.820 . S
C847 C3 1.633 . S
C849 C111 1.635 . S
C858 C147 1.633 . S
C860 C39 1.635 . S
C869 C183 1.636 . S
C871 C75 1.635 . S
C880 C184 1.643 . S
C882 C40 1.643 . S
C891 C76 1.640 . S
C893 C112 1.644 . S
C902 C148 1.641 . S
C904 C4 1.644 . S
C913 C219 1.633 . S
C915 C327 1.634 . S
C924 C363 1.636 . S
C926 C255 1.635 . S
C935 C399 1.634 . S
C937 C291 1.634 . S
C946 C400 1.642 . S
C948 C256 1.643 . S
C957 C292 1.644 . S
C959 C328 1.640 . S
C968 C364 1.641 . S
C970 C220 1.642 . S
C979 C543 1.636 . S
C981 C435 1.635 . S
C990 C579 1.636 . S
C992 C471 1.633 . S
C1001 C507 1.636 . S
C1003 C615 1.634 . S
C1012 C616 1.639 . S
C1014 C472 1.644 . S
C1023 C508 1.640 . S
C1025 C544 1.644 . S
C1034 C580 1.640 . S
C1036 C436 1.644 . S
