# Generated by pormake.
# Topology tfs, (6)-cn, num edge types: 1
# Building blocks:
#     Node 0, Type 0, BuildingBlock: JUFBIX_clean_sbu_0, # of connection points: 6
#     Node 1, Type 0, BuildingBlock: JUFBIX_clean_sbu_0, # of connection points: 6
#     Node 2, Type 0, BuildingBlock: JUFBIX_clean_sbu_0, # of connection points: 6
#     Node 3, Type 0, BuildingBlock: JUFBIX_clean_sbu_0, # of connection points: 6
#     Node 4, Type 0, BuildingBlock: JUFBIX_clean_sbu_0, # of connection points: 6
#     Node 5, Type 0, BuildingBlock: JUFBIX_clean_sbu_0, # of connection points: 6
#     Edge 6, Type (0, 0), BuildingBlock: FUNLAD_clean_linker_0, # of connection points: 2
#     Edge 7, Type (0, 0), BuildingBlock: FUNLAD_clean_linker_0, # of connection points: 2
#     Edge 8, Type (0, 0), BuildingBlock: FUNLAD_clean_linker_0, # of connection points: 2
#     Edge 9, Type (0, 0), BuildingBlock: FUNLAD_clean_linker_0, # of connection points: 2
#     Edge 10, Type (0, 0), BuildingBlock: FUNLAD_clean_linker_0, # of connection points: 2
#     Edge 11, Type (0, 0), BuildingBlock: FUNLAD_clean_linker_0, # of connection points: 2
#     Edge 12, Type (0, 0), BuildingBlock: FUNLAD_clean_linker_0, # of connection points: 2
#     Edge 13, Type (0, 0), BuildingBlock: FUNLAD_clean_linker_0, # of connection points: 2
#     Edge 14, Type (0, 0), BuildingBlock: FUNLAD_clean_linker_0, # of connection points: 2
#     Edge 15, Type (0, 0), BuildingBlock: FUNLAD_clean_linker_0, # of connection points: 2
#     Edge 16, Type (0, 0), BuildingBlock: FUNLAD_clean_linker_0, # of connection points: 2
#     Edge 17, Type (0, 0), BuildingBlock: FUNLAD_clean_linker_0, # of connection points: 2
#     Edge 18, Type (0, 0), BuildingBlock: FUNLAD_clean_linker_0, # of connection points: 2
#     Edge 19, Type (0, 0), BuildingBlock: FUNLAD_clean_linker_0, # of connection points: 2
#     Edge 20, Type (0, 0), BuildingBlock: FUNLAD_clean_linker_0, # of connection points: 2
#     Edge 21, Type (0, 0), BuildingBlock: FUNLAD_clean_linker_0, # of connection points: 2
#     Edge 22, Type (0, 0), BuildingBlock: FUNLAD_clean_linker_0, # of connection points: 2
#     Edge 23, Type (0, 0), BuildingBlock: FUNLAD_clean_linker_0, # of connection points: 2
# Relax obj value: 0.280
# Max RMSD: 0.218
# Mean RMSD: 0.175
data_MOF--net-tfs--node1-JUFBIX_clean_sbu_0--edge1-FUNLAD_clean_linker_0
_symmetry_space_group_name_H-M    P1
_symmetry_Int_Tables_number       1
_symmetry_cell_setting            triclinic
loop_
_symmetry_equiv_pos_as_xyz
'x, y, z'
_cell_length_a     49.9908
_cell_length_b     53.539183
_cell_length_c     17.483231
_cell_angle_alpha  90.116373
_cell_angle_beta   92.818622
_cell_angle_gamma 113.75419
loop_
_atom_site_label
_atom_site_type_symbol
_atom_site_fract_x
_atom_site_fract_y
_atom_site_fract_z
_atom_type_partial_charge
Co0 Co 0.24885 0.40669 0.03564 0.0
C1 C 0.22017 0.39102 0.17297 0.0
Co2 Co 0.20208 0.37852 0.02214 0.0
C3 C 0.3002 0.45784 0.03617 0.0
C4 C 0.30832 0.42681 0.09714 0.0
N5 N 0.28759 0.43119 0.05395 0.0
N6 N 0.32776 0.47037 0.06749 0.0
C7 C 0.33297 0.45072 0.10533 0.0
H8 H 0.28886 0.46816 0.00384 0.0
H9 H 0.30537 0.40771 0.12368 0.0
C10 C 0.23087 0.39437 0.88481 0.0
N11 N 0.16363 0.35345 0.00437 0.0
C12 C 0.13845 0.35156 0.03428 0.0
C13 C 0.15567 0.33143 0.957 0.0
N14 N 0.11527 0.329 0.00784 0.0
C15 C 0.12612 0.3164 0.95914 0.0
C16 C 0.21055 0.43274 0.02044 0.0
O17 O 0.25312 0.40838 0.92823 0.0
O18 O 0.20691 0.38005 0.91462 0.0
O19 O 0.19039 0.4087 0.01557 0.0
O20 O 0.23698 0.43577 0.03077 0.0
O21 O 0.19776 0.37738 0.12958 0.0
H22 H 0.17053 0.32648 0.92326 0.0
H23 H 0.13726 0.36609 0.07569 0.0
O24 O 0.24426 0.40488 0.14311 0.0
O25 O 0.26031 0.37725 0.03939 0.0
O26 O 0.21429 0.34872 0.02901 0.0
C27 C 0.2412 0.3529 0.0357 0.0
H28 H 0.35294 0.45343 0.13794 0.0
H29 H 0.11351 0.29776 0.92663 0.0
Co30 Co 0.79104 0.2317 0.02026 0.0
C31 C 0.79781 0.25924 0.16257 0.0
Co32 Co 0.79817 0.27537 0.01442 0.0
C33 C 0.76036 0.17214 0.009 0.0
C34 C 0.79995 0.18596 0.08026 0.0
N35 N 0.78365 0.19499 0.03348 0.0
N36 N 0.76146 0.1494 0.03977 0.0
C37 C 0.78635 0.15807 0.08445 0.0
H38 H 0.74216 0.17229 0.9731 0.0
H39 H 0.81979 0.19896 0.11231 0.0
C40 C 0.79114 0.24751 0.8721 0.0
N41 N 0.80728 0.31254 0.00059 0.0
C42 C 0.80319 0.3319 0.04275 0.0
C43 C 0.82468 0.32657 0.94498 0.0
N44 N 0.81778 0.35725 0.01558 0.0
C45 C 0.8311 0.3538 0.95399 0.0
C46 C 0.84951 0.26591 0.01957 0.0
O47 O 0.78864 0.22692 0.91199 0.0
O48 O 0.79507 0.26984 0.90594 0.0
O49 O 0.83873 0.28366 0.01589 0.0
O50 O 0.83232 0.24084 0.02179 0.0
O51 O 0.80089 0.28003 0.12287 0.0
H52 H 0.8334 0.31773 0.90223 0.0
H53 H 0.79109 0.32771 0.09424 0.0
O54 O 0.79346 0.23679 0.1286 0.0
O55 O 0.75013 0.22336 0.01869 0.0
O56 O 0.75741 0.26669 0.01366 0.0
C57 C 0.73989 0.24164 0.01613 0.0
H58 H 0.79368 0.14518 0.11965 0.0
H59 H 0.84497 0.36997 0.91867 0.0
Co60 Co 0.57338 0.77574 0.9946 0.0
C61 C 0.58434 0.80053 0.85016 0.0
Co62 Co 0.5992 0.82054 0.99632 0.0
C63 C 0.52509 0.72181 0.00544 0.0
C64 C 0.55923 0.72235 0.93527 0.0
N65 N 0.55174 0.73833 0.98192 0.0
N66 N 0.51575 0.69638 0.97422 0.0
C67 C 0.53729 0.6967 0.93053 0.0
H68 H 0.51219 0.72863 0.04139 0.0
H69 H 0.57894 0.72921 0.90385 0.0
C70 C 0.58814 0.79567 0.1408 0.0
N71 N 0.62216 0.85792 0.00889 0.0
C72 C 0.61942 0.88064 0.98253 0.0
C73 C 0.64631 0.86746 0.05681 0.0
N74 N 0.64081 0.90374 0.01338 0.0
C75 C 0.6577 0.89536 0.0597 0.0
C76 C 0.53893 0.80548 0.99885 0.0
O77 O 0.57442 0.77328 0.10354 0.0
O78 O 0.59989 0.81759 0.10434 0.0
O79 O 0.56332 0.8263 0.9991 0.0
O80 O 0.5389 0.78174 0.99667 0.0
O81 O 0.59816 0.82293 0.88731 0.0
H82 H 0.65479 0.85485 0.08946 0.0
H83 H 0.60163 0.88025 0.94397 0.0
O84 O 0.57246 0.77864 0.88671 0.0
O85 O 0.60811 0.76995 0.99236 0.0
O86 O 0.63453 0.81395 0.99388 0.0
C87 C 0.63295 0.78966 0.99202 0.0
H88 H 0.53692 0.67968 0.89628 0.0
H89 H 0.67688 0.90856 0.09391 0.0
Co90 Co 0.81754 0.63566 0.07736 0.0
C91 C 0.79416 0.62096 0.22228 0.0
Co92 Co 0.76976 0.61087 0.07675 0.0
C93 C 0.88121 0.66057 0.04993 0.0
C94 C 0.86748 0.68046 0.13653 0.0
N95 N 0.85734 0.65888 0.08699 0.0
N96 N 0.9055 0.68264 0.07414 0.0
C97 C 0.89678 0.69501 0.12867 0.0
H98 H 0.88065 0.64642 0.00492 0.0
H99 H 0.85422 0.68559 0.17553 0.0
C100 C 0.79303 0.62543 0.93187 0.0
N101 N 0.72992 0.58886 0.06779 0.0
C102 C 0.71567 0.56242 0.0864 0.0
C103 C 0.70904 0.59579 0.03444 0.0
N104 N 0.68679 0.5527 0.06602 0.0
C105 C 0.68257 0.57372 0.03365 0.0
C106 C 0.78208 0.66546 0.08349 0.0
O107 O 0.81764 0.63655 0.96902 0.0
O108 O 0.76993 0.61391 0.9683 0.0
O109 O 0.76156 0.64197 0.08576 0.0
O110 O 0.80819 0.66761 0.07769 0.0
O111 O 0.76996 0.60801 0.18487 0.0
H112 H 0.71291 0.61541 0.00997 0.0
H113 H 0.72629 0.55043 0.11358 0.0
O114 O 0.81682 0.63431 0.18606 0.0
O115 O 0.82588 0.60318 0.07618 0.0
O116 O 0.77821 0.58004 0.06855 0.0
C117 C 0.80371 0.58028 0.07063 0.0
H118 H 0.91072 0.71329 0.16098 0.0
H119 H 0.662 0.5729 0.00846 0.0
Co120 Co 0.22239 0.7404 0.0638 0.0
C121 C 0.22795 0.76774 0.2056 0.0
Co122 Co 0.23113 0.78432 0.05747 0.0
C123 C 0.22063 0.68464 0.04447 0.0
C124 C 0.19287 0.68898 0.12817 0.0
N125 N 0.21269 0.7033 0.07781 0.0
N126 N 0.20653 0.65937 0.07288 0.0
C127 C 0.18905 0.66225 0.12526 0.0
H128 H 0.23633 0.6895 0.00048 0.0
H129 H 0.18136 0.69737 0.16408 0.0
C130 C 0.22577 0.75718 0.91576 0.0
N131 N 0.23895 0.82114 0.04549 0.0
C132 C 0.25906 0.84373 0.08207 0.0
C133 C 0.22338 0.83056 0.99744 0.0
N134 N 0.25619 0.8667 0.05921 0.0
C135 C 0.23377 0.85842 0.00605 0.0
C136 C 0.28146 0.77303 0.06769 0.0
O137 O 0.22171 0.73616 0.95549 0.0
O138 O 0.22996 0.77963 0.94951 0.0
O139 O 0.2725 0.79221 0.06211 0.0
O140 O 0.2628 0.74842 0.07033 0.0
O141 O 0.23231 0.78872 0.16578 0.0
H142 H 0.20524 0.81788 0.95931 0.0
H143 H 0.2748 0.84327 0.12622 0.0
O144 O 0.22337 0.74527 0.17183 0.0
O145 O 0.18217 0.73256 0.0567 0.0
O146 O 0.18931 0.77552 0.05252 0.0
C147 C 0.1717 0.75048 0.05252 0.0
H148 H 0.17386 0.64605 0.15798 0.0
H149 H 0.22541 0.87163 0.97582 0.0
Co150 Co 0.4232 0.19356 0.04534 0.0
C151 C 0.43775 0.21661 0.89985 0.0
Co152 Co 0.44562 0.2387 0.04322 0.0
C153 C 0.40298 0.13444 0.07902 0.0
C154 C 0.38138 0.14396 0.98166 0.0
N155 N 0.40292 0.15561 0.03653 0.0
N156 N 0.38198 0.11034 0.05268 0.0
C157 C 0.36855 0.11639 0.9915 0.0
H158 H 0.41721 0.13674 0.12964 0.0
H159 H 0.37479 0.15497 0.93809 0.0
C160 C 0.43118 0.21585 0.18865 0.0
N161 N 0.46396 0.27657 0.05127 0.0
C162 C 0.4905 0.29435 0.03031 0.0
C163 C 0.45228 0.29226 0.08499 0.0
N164 N 0.49546 0.32045 0.04896 0.0
C165 C 0.47141 0.31909 0.08331 0.0
C166 C 0.38567 0.2204 0.02651 0.0
O167 O 0.42137 0.19282 0.15345 0.0
O168 O 0.44165 0.23758 0.15064 0.0
O169 O 0.40957 0.24122 0.0268 0.0
O170 O 0.386 0.197 0.0361 0.0
O171 O 0.44941 0.23947 0.93574 0.0
H172 H 0.4313 0.28462 0.11068 0.0
H173 H 0.50583 0.28829 0.00213 0.0
O174 O 0.42554 0.19499 0.93724 0.0
O175 O 0.46072 0.19094 0.05468 0.0
O176 O 0.48152 0.23587 0.05875 0.0
C177 C 0.48379 0.21309 0.06127 0.0
H178 H 0.35038 0.10182 0.95688 0.0
H179 H 0.46823 0.33624 0.10762 0.0
C180 C 0.33859 0.22057 0.06764 0.0
C181 C 0.3585 0.22422 0.01054 0.0
C182 C 0.31759 0.23174 0.0595 0.0
C183 C 0.31626 0.24653 0.99373 0.0
C184 C 0.33475 0.24803 0.93442 0.0
C185 C 0.35578 0.2372 0.94298 0.0
C186 C 0.29964 0.26417 0.98857 0.0
C187 C 0.27971 0.26434 0.03749 0.0
C188 C 0.26947 0.28682 0.037 0.0
C189 C 0.24012 0.28156 0.0488 0.0
C190 C 0.23064 0.30293 0.0479 0.0
C191 C 0.25059 0.32997 0.03717 0.0
H192 H 0.31233 0.31874 0.02025 0.0
C193 C 0.28007 0.33517 0.02745 0.0
C194 C 0.28937 0.31389 0.02717 0.0
H195 H 0.29606 0.35574 0.01946 0.0
H196 H 0.34076 0.21103 0.12083 0.0
H197 H 0.304 0.2303 0.10693 0.0
H198 H 0.33428 0.25922 0.88313 0.0
H199 H 0.37117 0.24045 0.89859 0.0
H200 H 0.30556 0.27926 0.94386 0.0
H201 H 0.27116 0.2484 0.07898 0.0
H202 H 0.22448 0.26091 0.0575 0.0
H203 H 0.20781 0.29833 0.05607 0.0
C204 C 0.0725 0.33853 0.03947 0.0
C205 C 0.08504 0.31981 0.026 0.0
C206 C 0.04242 0.32933 0.0495 0.0
C207 C 0.02437 0.30117 0.04664 0.0
C208 C 0.03728 0.28254 0.03718 0.0
C209 C 0.06718 0.29173 0.02637 0.0
C210 C 0.99208 0.29037 0.05247 0.0
C211 C 0.97601 0.3041 0.02775 0.0
C212 C 0.94346 0.29322 0.02779 0.0
C213 C 0.93022 0.31178 0.01942 0.0
C214 C 0.89983 0.3028 0.01682 0.0
C215 C 0.88174 0.2749 0.02201 0.0
H216 H 0.93449 0.25002 0.03698 0.0
C217 C 0.89483 0.25616 0.0299 0.0
C218 C 0.92538 0.26519 0.03262 0.0
H219 H 0.88149 0.23453 0.03369 0.0
H220 H 0.08577 0.36027 0.03976 0.0
H221 H 0.03344 0.3443 0.05929 0.0
H222 H 0.02403 0.26077 0.03588 0.0
H223 H 0.07634 0.27682 0.01763 0.0
H224 H 0.98136 0.26993 0.07403 0.0
H225 H 0.98711 0.3244 0.00538 0.0
H226 H 0.94346 0.33342 0.01493 0.0
H227 H 0.89055 0.31786 0.0105 0.0
C228 C 0.7256 0.10932 0.96563 0.0
C229 C 0.73912 0.12201 0.03597 0.0
C230 C 0.70574 0.08177 0.96262 0.0
C231 C 0.69874 0.06676 0.03035 0.0
C232 C 0.71136 0.08003 0.1006 0.0
C233 C 0.73153 0.10716 0.10331 0.0
C234 C 0.67915 0.03719 0.0317 0.0
C235 C 0.67604 0.01893 0.9749 0.0
C236 C 0.66277 0.98877 0.98637 0.0
C237 C 0.65219 0.97062 0.92273 0.0
C238 C 0.64312 0.94233 0.93163 0.0
C239 C 0.64502 0.9318 0.00423 0.0
H240 H 0.67216 0.99078 0.10984 0.0
C241 C 0.65454 0.9498 0.06793 0.0
C242 C 0.66338 0.97783 0.05931 0.0
H243 H 0.65616 0.94221 0.12456 0.0
H244 H 0.73112 0.12047 0.91304 0.0
H245 H 0.69599 0.07236 0.9076 0.0
H246 H 0.70628 0.0691 0.15371 0.0
H247 H 0.74137 0.1166 0.15829 0.0
H248 H 0.66918 0.02987 0.08552 0.0
H249 H 0.68534 0.02604 0.92019 0.0
H250 H 0.65174 0.97841 0.86576 0.0
H251 H 0.63613 0.92888 0.88155 0.0
C252 C 0.78497 0.71013 0.03218 0.0
C253 C 0.77488 0.68956 0.08647 0.0
C254 C 0.7738 0.73033 0.02762 0.0
C255 C 0.75295 0.73057 0.07865 0.0
C256 C 0.74447 0.71103 0.13596 0.0
C257 C 0.7549 0.69044 0.13897 0.0
C258 C 0.73809 0.74959 0.07084 0.0
C259 C 0.72787 0.75449 0.00235 0.0
C260 C 0.70561 0.7663 0.99544 0.0
C261 C 0.68164 0.75417 0.9428 0.0
C262 C 0.65846 0.76244 0.94054 0.0
C263 C 0.65923 0.7837 0.98895 0.0
H264 H 0.72533 0.79812 0.08299 0.0
C265 C 0.68398 0.79706 0.03852 0.0
C266 C 0.70689 0.78818 0.04251 0.0
H267 H 0.68496 0.81343 0.07662 0.0
H268 H 0.80023 0.70972 0.9908 0.0
H269 H 0.78099 0.7454 0.98342 0.0
H270 H 0.72852 0.71081 0.17603 0.0
H271 H 0.74681 0.67477 0.18132 0.0
H272 H 0.7311 0.75584 0.12276 0.0
H273 H 0.73209 0.74552 0.95092 0.0
H274 H 0.68017 0.73735 0.90582 0.0
H275 H 0.63961 0.75187 0.90172 0.0
C276 C 0.12578 0.75971 0.03856 0.0
C277 C 0.13934 0.74137 0.04811 0.0
C278 C 0.09507 0.75018 0.03482 0.0
C279 C 0.07734 0.72205 0.04056 0.0
C280 C 0.09109 0.70396 0.05021 0.0
C281 C 0.1215 0.71339 0.05364 0.0
C282 C 0.04469 0.71048 0.04081 0.0
C283 C 0.02782 0.72346 0.01615 0.0
C284 C 0.99543 0.71188 0.02306 0.0
C285 C 0.98182 0.72998 0.03171 0.0
C286 C 0.95206 0.72022 0.04522 0.0
C287 C 0.93496 0.69206 0.04913 0.0
H288 H 0.98745 0.66888 0.0137 0.0
C289 C 0.948 0.67375 0.03554 0.0
C290 C 0.97801 0.68355 0.02286 0.0
H291 H 0.93529 0.65196 0.03804 0.0
H292 H 0.13887 0.78138 0.03434 0.0
H293 H 0.08552 0.765 0.0291 0.0
H294 H 0.0782 0.68227 0.05531 0.0
H295 H 0.13101 0.69854 0.06121 0.0
H296 H 0.03415 0.69018 0.06365 0.0
H297 H 0.03798 0.74393 0.99434 0.0
H298 H 0.99448 0.75184 0.03095 0.0
H299 H 0.94246 0.73479 0.05433 0.0
C300 C 0.30274 0.90583 0.09726 0.0
C301 C 0.27204 0.89433 0.08753 0.0
C302 C 0.31797 0.93374 0.11632 0.0
C303 C 0.30258 0.95039 0.1272 0.0
C304 C 0.27185 0.93833 0.1213 0.0
C305 C 0.25681 0.91079 0.10091 0.0
C306 C 0.31705 0.98049 0.14167 0.0
C307 C 0.34373 0.99679 0.11823 0.0
C308 C 0.35392 0.02712 0.11445 0.0
C309 C 0.38401 0.04379 0.11198 0.0
C310 C 0.39367 0.0718 0.09733 0.0
C311 C 0.37332 0.08345 0.08347 0.0
H312 H 0.31046 0.02745 0.10303 0.0
C313 C 0.34345 0.0671 0.08905 0.0
C314 C 0.33382 0.03937 0.10421 0.0
H315 H 0.32736 0.07563 0.07811 0.0
H316 H 0.31491 0.89348 0.08726 0.0
H317 H 0.34162 0.94214 0.12194 0.0
H318 H 0.25935 0.95051 0.12979 0.0
H319 H 0.23314 0.90233 0.09459 0.0
H320 H 0.30367 0.98984 0.16612 0.0
H321 H 0.35772 0.98779 0.09545 0.0
H322 H 0.39999 0.03493 0.11878 0.0
H323 H 0.4168 0.08397 0.09221 0.0
C324 C 0.20084 0.61267 0.10473 0.0
C325 C 0.20839 0.63401 0.05222 0.0
C326 C 0.20042 0.58735 0.08432 0.0
C327 C 0.2077 0.58261 0.01073 0.0
C328 C 0.21634 0.60414 0.95891 0.0
C329 C 0.21651 0.62958 0.97922 0.0
C330 C 0.20851 0.55603 0.98944 0.0
C331 C 0.19122 0.53221 0.02032 0.0
C332 C 0.19534 0.50636 0.0112 0.0
C333 C 0.1722 0.48125 0.0253 0.0
C334 C 0.17654 0.45693 0.02575 0.0
C335 C 0.20431 0.45745 0.01355 0.0
H336 H 0.24146 0.52545 0.98758 0.0
C337 C 0.22719 0.48249 0.99772 0.0
C338 C 0.22282 0.50659 0.99659 0.0
H339 H 0.24884 0.48364 0.98754 0.0
H340 H 0.19541 0.61554 0.1623 0.0
H341 H 0.195 0.57174 0.12711 0.0
H342 H 0.22261 0.60117 0.90228 0.0
H343 H 0.22242 0.64552 0.9374 0.0
H344 H 0.22403 0.5563 0.9478 0.0
H345 H 0.17374 0.53166 0.05574 0.0
H346 H 0.15086 0.48052 0.03752 0.0
H347 H 0.15852 0.43797 0.03821 0.0
C348 C 0.51996 0.19174 0.04455 0.0
C349 C 0.51348 0.21338 0.07088 0.0
C350 C 0.54909 0.19426 0.04647 0.0
C351 C 0.57208 0.21842 0.07549 0.0
C352 C 0.56514 0.23929 0.10516 0.0
C353 C 0.53635 0.23691 0.10245 0.0
C354 C 0.60365 0.22356 0.07489 0.0
C355 C 0.61483 0.20978 0.03111 0.0
C356 C 0.64696 0.21829 0.02682 0.0
C357 C 0.65815 0.19848 0.01513 0.0
C358 C 0.68831 0.20605 0.01143 0.0
C359 C 0.70789 0.23369 0.0179 0.0
H360 H 0.65861 0.26193 0.03805 0.0
C361 C 0.6966 0.25357 0.0274 0.0
C362 C 0.66651 0.24599 0.03181 0.0
H363 H 0.71103 0.27504 0.03201 0.0
H364 H 0.50273 0.17334 0.02015 0.0
H365 H 0.55336 0.17738 0.02473 0.0
H366 H 0.58222 0.258 0.12857 0.0
H367 H 0.53209 0.25387 0.12406 0.0
H368 H 0.61871 0.24073 0.1099 0.0
H369 H 0.60049 0.19199 0.99731 0.0
H370 H 0.64356 0.17707 0.01005 0.0
H371 H 0.69627 0.1902 0.00353 0.0
C372 C 0.4744 0.66758 0.0502 0.0
C373 C 0.48792 0.67378 0.98012 0.0
C374 C 0.44904 0.64367 0.05692 0.0
C375 C 0.43675 0.62577 0.99326 0.0
C376 C 0.44939 0.633 0.92241 0.0
C377 C 0.47477 0.65658 0.91602 0.0
C378 C 0.41156 0.59895 0.99812 0.0
C379 C 0.40584 0.58418 0.06221 0.0
C380 C 0.38432 0.55522 0.06357 0.0
C381 C 0.3876 0.53869 0.1223 0.0
C382 C 0.36911 0.51101 0.12366 0.0
C383 C 0.34668 0.49908 0.06632 0.0
H384 H 0.35728 0.55565 0.96246 0.0
C385 C 0.34283 0.5158 0.00865 0.0
C386 C 0.36129 0.54355 0.00744 0.0
H387 H 0.32579 0.50744 0.96367 0.0
H388 H 0.48406 0.68066 0.10023 0.0
H389 H 0.43936 0.63919 0.11196 0.0
H390 H 0.44021 0.61983 0.87222 0.0
H391 H 0.48442 0.66121 0.86093 0.0
H392 H 0.39968 0.58984 0.94457 0.0
H393 H 0.41948 0.59254 0.11407 0.0
H394 H 0.40489 0.54711 0.16681 0.0
H395 H 0.37238 0.49906 0.17014 0.0
C396 C 0.83241 0.55062 0.08604 0.0
C397 C 0.80616 0.55354 0.06744 0.0
C398 C 0.83301 0.52454 0.08673 0.0
C399 C 0.80728 0.50094 0.06852 0.0
C400 C 0.78139 0.5042 0.04874 0.0
C401 C 0.78079 0.52995 0.04827 0.0
C402 C 0.80579 0.47249 0.06717 0.0
C403 C 0.8276 0.46505 0.09015 0.0
C404 C 0.82494 0.43645 0.08066 0.0
C405 C 0.84982 0.43211 0.0631 0.0
C406 C 0.84759 0.40589 0.04514 0.0
C407 C 0.82053 0.38327 0.04581 0.0
H408 H 0.77866 0.41608 0.10174 0.0
C409 C 0.79599 0.38721 0.06881 0.0
C410 C 0.79812 0.4136 0.08582 0.0
H411 H 0.77496 0.37008 0.06998 0.0
H412 H 0.8523 0.56837 0.10111 0.0
H413 H 0.85361 0.52316 0.10136 0.0
H414 H 0.76127 0.48664 0.03385 0.0
H415 H 0.76012 0.53125 0.03304 0.0
H416 H 0.78543 0.45672 0.0438 0.0
H417 H 0.84865 0.48033 0.11076 0.0
H418 H 0.87081 0.44921 0.05981 0.0
H419 H 0.86694 0.40332 0.02868 0.0
C420 C 0.3343 0.80447 0.05025 0.0
C421 C 0.31316 0.77875 0.06889 0.0
C422 C 0.3639 0.8088 0.04688 0.0
C423 C 0.37293 0.78746 0.06272 0.0
C424 C 0.35177 0.7621 0.08334 0.0
C425 C 0.32239 0.75776 0.08611 0.0
C426 C 0.40357 0.78976 0.05673 0.0
C427 C 0.42626 0.8113 0.03039 0.0
C428 C 0.45527 0.8102 0.0196 0.0
C429 C 0.48126 0.83406 0.02713 0.0
C430 C 0.50864 0.83297 0.01911 0.0
C431 C 0.51045 0.80797 0.00277 0.0
H432 H 0.43777 0.76689 0.99011 0.0
C433 C 0.48433 0.7844 0.99232 0.0
C434 C 0.45721 0.78551 1.00009 0.0
H435 H 0.48472 0.76484 0.97828 0.0
H436 H 0.32789 0.8211 0.0367 0.0
H437 H 0.37934 0.82873 0.03126 0.0
H438 H 0.35787 0.74523 0.09615 0.0
H439 H 0.30684 0.73772 0.10112 0.0
H440 H 0.40742 0.77195 0.074 0.0
H441 H 0.42395 0.8301 0.01676 0.0
H442 H 0.48042 0.85347 0.04082 0.0
H443 H 0.52832 0.85152 0.02707 0.0
C444 C 0.67233 0.50262 0.06548 0.0
C445 C 0.66503 0.52528 0.07224 0.0
C446 C 0.65055 0.476 0.06584 0.0
C447 C 0.62107 0.47163 0.07352 0.0
C448 C 0.61414 0.49435 0.08287 0.0
C449 C 0.63576 0.5208 0.08178 0.0
C450 C 0.59664 0.44407 0.07224 0.0
C451 C 0.59758 0.42105 0.04339 0.0
C452 C 0.57121 0.39478 0.03845 0.0
C453 C 0.5742 0.36986 0.04545 0.0
C454 C 0.54936 0.34514 0.04587 0.0
C455 C 0.52117 0.34502 0.03888 0.0
H456 H 0.53976 0.41291 0.01697 0.0
C457 C 0.51834 0.3698 0.02725 0.0
C458 C 0.54298 0.39433 0.02657 0.0
H459 H 0.49691 0.37023 0.01948 0.0
H460 H 0.69473 0.50547 0.05784 0.0
H461 H 0.65698 0.45909 0.06026 0.0
H462 H 0.59172 0.49168 0.08966 0.0
H463 H 0.62955 0.53783 0.08826 0.0
H464 H 0.57625 0.44303 0.09409 0.0
H465 H 0.61782 0.42114 0.02341 0.0
H466 H 0.59571 0.3696 0.05323 0.0
H467 H 0.55217 0.32632 0.0548 0.0
C468 C 0.20782 0.37861 0.75338 0.0
C469 C 0.23245 0.39471 0.80041 0.0
C470 C 0.20897 0.37894 0.67369 0.0
C471 C 0.23479 0.39559 0.63896 0.0
C472 C 0.25951 0.41137 0.68607 0.0
C473 C 0.25836 0.41104 0.76588 0.0
C474 C 0.23714 0.39645 0.55432 0.0
C475 C 0.21392 0.38955 0.50353 0.0
C476 C 0.21624 0.39033 0.41884 0.0
C477 C 0.19134 0.37492 0.3718 0.0
C478 C 0.19248 0.37508 0.29198 0.0
C479 C 0.21858 0.39085 0.25736 0.0
H480 H 0.26168 0.41943 0.41746 0.0
C481 C 0.24339 0.40661 0.3043 0.0
C482 C 0.24224 0.40647 0.38398 0.0
H483 H 0.26378 0.41923 0.27951 0.0
H484 H 0.18757 0.36556 0.7781 0.0
H485 H 0.1897 0.36571 0.64003 0.0
H486 H 0.27978 0.42419 0.66102 0.0
H487 H 0.27776 0.42362 0.80042 0.0
H488 H 0.25904 0.40333 0.53387 0.0
H489 H 0.19204 0.3827 0.52412 0.0
H490 H 0.17093 0.3625 0.3969 0.0
H491 H 0.17293 0.3628 0.2575 0.0
C492 C 0.79256 0.26905 0.74459 0.0
C493 C 0.79003 0.24603 0.78725 0.0
C494 C 0.79211 0.26817 0.66465 0.0
C495 C 0.78935 0.24424 0.62519 0.0
C496 C 0.7863 0.22109 0.66783 0.0
C497 C 0.78674 0.22196 0.74795 0.0
C498 C 0.78875 0.24233 0.53997 0.0
C499 C 0.79983 0.26417 0.49467 0.0
C500 C 0.79926 0.2623 0.40945 0.0
C501 C 0.80236 0.28548 0.3669 0.0
C502 C 0.80204 0.28466 0.28679 0.0
C503 C 0.79879 0.26063 0.24742 0.0
H504 H 0.79513 0.22033 0.40006 0.0
C505 C 0.79618 0.23757 0.28999 0.0
C506 C 0.79652 0.23839 0.36993 0.0
H507 H 0.79396 0.21877 0.26159 0.0
H508 H 0.79483 0.28787 0.77292 0.0
H509 H 0.79345 0.2862 0.63447 0.0
H510 H 0.78384 0.20227 0.63907 0.0
H511 H 0.78462 0.20384 0.77902 0.0
H512 H 0.77898 0.22196 0.51432 0.0
H513 H 0.8096 0.28454 0.52033 0.0
H514 H 0.8048 0.30427 0.39572 0.0
H515 H 0.80419 0.30281 0.2558 0.0
C516 C 0.59837 0.82152 0.7214 0.0
C517 C 0.58201 0.79911 0.76531 0.0
C518 C 0.59663 0.81921 0.64121 0.0
C519 C 0.57842 0.79439 0.60354 0.0
C520 C 0.56159 0.77233 0.64762 0.0
C521 C 0.56348 0.77457 0.72736 0.0
C522 C 0.57574 0.79067 0.51872 0.0
C523 C 0.59695 0.80523 0.4723 0.0
C524 C 0.59427 0.80155 0.38744 0.0
C525 C 0.61134 0.82354 0.34348 0.0
C526 C 0.6094 0.82139 0.26372 0.0
C527 C 0.59056 0.797 0.22563 0.0
H528 H 0.56298 0.75911 0.38144 0.0
C529 C 0.57399 0.77462 0.26941 0.0
C530 C 0.5758 0.77685 0.34962 0.0
H531 H 0.55945 0.75551 0.24178 0.0
H532 H 0.61269 0.84074 0.74891 0.0
H533 H 0.60927 0.83698 0.60924 0.0
H534 H 0.54717 0.7531 0.62029 0.0
H535 H 0.55037 0.7569 0.75926 0.0
H536 H 0.55568 0.77483 0.49431 0.0
H537 H 0.61701 0.82106 0.49678 0.0
H538 H 0.62597 0.84268 0.37092 0.0
H539 H 0.6227 0.839 0.23191 0.0
C540 C 0.81625 0.63676 0.80526 0.0
C541 C 0.79099 0.62532 0.84711 0.0
C542 C 0.81412 0.63597 0.7251 0.0
C543 C 0.78662 0.62357 0.68511 0.0
C544 C 0.76143 0.61265 0.72715 0.0
C545 C 0.76355 0.61339 0.80711 0.0
C546 C 0.78308 0.62213 0.59999 0.0
C547 C 0.80447 0.6236 0.55395 0.0
C548 C 0.80086 0.62234 0.46892 0.0
C549 C 0.82587 0.6345 0.42677 0.0
C550 C 0.82362 0.63399 0.34685 0.0
C551 C 0.79627 0.62096 0.30701 0.0
H552 H 0.75378 0.59847 0.45937 0.0
C553 C 0.77123 0.60826 0.34898 0.0
C554 C 0.77348 0.6089 0.42914 0.0
H555 H 0.74988 0.59786 0.31997 0.0
H556 H 0.83769 0.64632 0.83436 0.0
H557 H 0.83404 0.64548 0.69518 0.0
H558 H 0.73996 0.60322 0.69802 0.0
H559 H 0.74361 0.60449 0.8375 0.0
H560 H 0.76175 0.61936 0.57483 0.0
H561 H 0.82585 0.62644 0.5788 0.0
H562 H 0.84726 0.64475 0.45581 0.0
H563 H 0.8434 0.64387 0.31635 0.0
C564 C 0.2213 0.74503 0.33228 0.0
C565 C 0.22771 0.76893 0.2902 0.0
C566 C 0.22061 0.74568 0.41197 0.0
C567 C 0.22658 0.77038 0.45183 0.0
C568 C 0.23274 0.79422 0.40965 0.0
C569 C 0.23339 0.79356 0.32973 0.0
C570 C 0.22562 0.77197 0.53668 0.0
C571 C 0.22853 0.75335 0.58464 0.0
C572 C 0.22751 0.75486 0.66952 0.0
C573 C 0.22198 0.73109 0.71165 0.0
C574 C 0.2212 0.73164 0.79156 0.0
C575 C 0.22611 0.75608 0.83115 0.0
H576 H 0.23806 0.7984 0.68016 0.0
C577 C 0.23188 0.77991 0.78913 0.0
C578 C 0.23272 0.77937 0.70946 0.0
H579 H 0.23608 0.79918 0.81782 0.0
H580 H 0.21648 0.72562 0.30361 0.0
H581 H 0.21475 0.72663 0.44143 0.0
H582 H 0.23716 0.8135 0.43867 0.0
H583 H 0.23829 0.81231 0.29902 0.0
H584 H 0.22257 0.78939 0.55974 0.0
H585 H 0.23164 0.73597 0.56142 0.0
H586 H 0.21813 0.71196 0.6826 0.0
H587 H 0.21684 0.71296 0.82221 0.0
C588 C 0.44698 0.2384 0.77125 0.0
C589 C 0.43683 0.21481 0.81529 0.0
C590 C 0.44427 0.23635 0.69117 0.0
C591 C 0.43153 0.21056 0.65358 0.0
C592 C 0.42162 0.18708 0.69791 0.0
C593 C 0.42429 0.18914 0.77766 0.0
C594 C 0.4271 0.20704 0.56883 0.0
C595 C 0.44197 0.2263 0.5194 0.0
C596 C 0.43743 0.22257 0.43477 0.0
C597 C 0.44576 0.24592 0.38998 0.0
C598 C 0.443 0.24361 0.31024 0.0
C599 C 0.43204 0.21783 0.27318 0.0
H600 H 0.42034 0.17816 0.42993 0.0
C601 C 0.42347 0.19437 0.31776 0.0
C602 C 0.42622 0.19668 0.39779 0.0
H603 H 0.41524 0.17423 0.29089 0.0
H604 H 0.45645 0.25848 0.79858 0.0
H605 H 0.45147 0.25505 0.65961 0.0
H606 H 0.41162 0.16698 0.67074 0.0
H607 H 0.41615 0.17051 0.80979 0.0
H608 H 0.41097 0.18754 0.54684 0.0
H609 H 0.458 0.24589 0.541 0.0
H610 H 0.45458 0.26609 0.41678 0.0
H611 H 0.44988 0.26215 0.27769 0.0
loop_
_geom_bond_atom_site_label_1
_geom_bond_atom_site_label_2
_geom_bond_distance
_geom_bond_site_symmetry_2
_ccdc_geom_bond_type
Co0 N5 2.057 . S
Co0 O17 2.021 1_554 S
Co0 O20 2.062 . S
Co0 O24 2.117 . S
Co0 O25 2.020 . S
C1 O21 1.259 . S
C1 O24 1.258 . S
Co2 N11 2.057 . S
Co2 O18 2.117 1_554 S
Co2 O19 2.020 . S
Co2 O21 2.021 . S
Co2 O26 2.062 . S
C3 N5 1.316 1_556 S
C3 N6 1.347 1_556 S
C3 H8 0.931 . S
C4 N5 1.375 . S
C4 C7 1.350 . S
C4 H9 0.930 . S
N5 Co0 2.057 . S
N5 C3 1.316 1_554 S
N5 C4 1.375 . S
N6 C3 1.347 1_554 S
N6 C7 1.373 . S
C7 C4 1.350 . S
C7 N6 1.373 . S
C7 H28 0.931 . S
H8 C3 0.931 . S
H9 C4 0.930 . S
C10 O17 1.259 . S
C10 O18 1.258 . S
N11 Co2 2.057 . S
N11 C12 1.316 . S
N11 C13 1.375 1_554 S
C12 N11 1.316 . S
C12 N14 1.347 . S
C12 H23 0.931 . S
C13 N11 1.375 1_556 S
C13 C15 1.350 . S
C13 H22 0.930 . S
N14 C12 1.347 . S
N14 C15 1.373 1_554 S
C15 C13 1.350 . S
C15 N14 1.373 1_556 S
C15 H29 0.931 . S
C16 O19 1.256 . S
C16 O20 1.255 . S
O17 Co0 2.021 1_556 S
O17 C10 1.259 . S
O18 Co2 2.117 1_556 S
O18 C10 1.258 . S
O19 Co2 2.020 . S
O19 C16 1.256 . S
O20 Co0 2.062 . S
O20 C16 1.255 . S
O21 C1 1.259 . S
O21 Co2 2.021 . S
H22 C13 0.930 . S
H23 C12 0.931 . S
O24 Co0 2.117 . S
O24 C1 1.258 . S
O25 Co0 2.020 . S
O25 C27 1.256 . S
O26 Co2 2.062 . S
O26 C27 1.255 . S
C27 O25 1.256 . S
C27 O26 1.255 . S
H28 C7 0.931 . S
H29 C15 0.931 . S
Co30 N35 2.057 . S
Co30 O47 2.021 1_554 S
Co30 O50 2.062 . S
Co30 O54 2.117 . S
Co30 O55 2.020 . S
C31 O51 1.259 . S
C31 O54 1.258 . S
Co32 N41 2.057 . S
Co32 O48 2.117 1_554 S
Co32 O49 2.020 . S
Co32 O51 2.021 . S
Co32 O56 2.062 . S
C33 N35 1.316 . S
C33 N36 1.347 . S
C33 H38 0.931 1_554 S
C34 N35 1.375 . S
C34 C37 1.350 . S
C34 H39 0.930 . S
N35 Co30 2.057 . S
N35 C33 1.316 . S
N35 C34 1.375 . S
N36 C33 1.347 . S
N36 C37 1.373 . S
C37 C34 1.350 . S
C37 N36 1.373 . S
C37 H58 0.931 . S
H38 C33 0.931 1_556 S
H39 C34 0.930 . S
C40 O47 1.259 . S
C40 O48 1.258 . S
N41 Co32 2.057 . S
N41 C42 1.316 . S
N41 C43 1.375 1_554 S
C42 N41 1.316 . S
C42 N44 1.347 . S
C42 H53 0.931 . S
C43 N41 1.375 1_556 S
C43 C45 1.350 . S
C43 H52 0.930 . S
N44 C42 1.347 . S
N44 C45 1.373 1_554 S
C45 C43 1.350 . S
C45 N44 1.373 1_556 S
C45 H59 0.931 . S
C46 O49 1.256 . S
C46 O50 1.255 . S
O47 Co30 2.021 1_556 S
O47 C40 1.259 . S
O48 Co32 2.117 1_556 S
O48 C40 1.258 . S
O49 Co32 2.020 . S
O49 C46 1.256 . S
O50 Co30 2.062 . S
O50 C46 1.255 . S
O51 C31 1.259 . S
O51 Co32 2.021 . S
H52 C43 0.930 . S
H53 C42 0.931 . S
O54 Co30 2.117 . S
O54 C31 1.258 . S
O55 Co30 2.020 . S
O55 C57 1.256 . S
O56 Co32 2.062 . S
O56 C57 1.255 . S
C57 O55 1.256 . S
C57 O56 1.255 . S
H58 C37 0.931 . S
H59 C45 0.931 . S
Co60 N65 2.057 1_554 S
Co60 O77 2.021 . S
Co60 O80 2.062 . S
Co60 O84 2.117 1_554 S
Co60 O85 2.020 . S
C61 O81 1.259 . S
C61 O84 1.258 . S
Co62 N71 2.057 . S
Co62 O78 2.117 . S
Co62 O79 2.020 . S
Co62 O81 2.021 1_554 S
Co62 O86 2.062 . S
C63 N65 1.316 1_554 S
C63 N66 1.347 1_554 S
C63 H68 0.931 . S
C64 N65 1.375 . S
C64 C67 1.350 . S
C64 H69 0.930 . S
N65 Co60 2.057 1_556 S
N65 C63 1.316 1_556 S
N65 C64 1.375 . S
N66 C63 1.347 1_556 S
N66 C67 1.373 . S
C67 C64 1.350 . S
C67 N66 1.373 . S
C67 H88 0.931 . S
H68 C63 0.931 . S
H69 C64 0.930 . S
C70 O77 1.259 . S
C70 O78 1.258 . S
N71 Co62 2.057 . S
N71 C72 1.316 1_554 S
N71 C73 1.375 . S
C72 N71 1.316 1_556 S
C72 N74 1.347 1_556 S
C72 H83 0.931 . S
C73 N71 1.375 . S
C73 C75 1.350 . S
C73 H82 0.930 . S
N74 C72 1.347 1_554 S
N74 C75 1.373 . S
C75 C73 1.350 . S
C75 N74 1.373 . S
C75 H89 0.931 . S
C76 O79 1.256 . S
C76 O80 1.255 . S
O77 Co60 2.021 . S
O77 C70 1.259 . S
O78 Co62 2.117 . S
O78 C70 1.258 . S
O79 Co62 2.020 . S
O79 C76 1.256 . S
O80 Co60 2.062 . S
O80 C76 1.255 . S
O81 C61 1.259 . S
O81 Co62 2.021 1_556 S
H82 C73 0.930 . S
H83 C72 0.931 . S
O84 Co60 2.117 1_556 S
O84 C61 1.258 . S
O85 Co60 2.020 . S
O85 C87 1.256 . S
O86 Co62 2.062 . S
O86 C87 1.255 . S
C87 O85 1.256 . S
C87 O86 1.255 . S
H88 C67 0.931 . S
H89 C75 0.931 . S
Co90 N95 2.057 . S
Co90 O107 2.021 1_554 S
Co90 O110 2.062 . S
Co90 O114 2.117 . S
Co90 O115 2.020 . S
C91 O111 1.259 . S
C91 O114 1.258 . S
Co92 N101 2.057 . S
Co92 O108 2.117 1_554 S
Co92 O109 2.020 . S
Co92 O111 2.021 . S
Co92 O116 2.062 . S
C93 N95 1.316 . S
C93 N96 1.347 . S
C93 H98 0.931 1_554 S
C94 N95 1.375 . S
C94 C97 1.350 . S
C94 H99 0.930 . S
N95 Co90 2.057 . S
N95 C93 1.316 . S
N95 C94 1.375 . S
N96 C93 1.347 . S
N96 C97 1.373 . S
C97 C94 1.350 . S
C97 N96 1.373 . S
C97 H118 0.931 . S
H98 C93 0.931 1_556 S
H99 C94 0.930 . S
C100 O107 1.259 . S
C100 O108 1.258 . S
N101 Co92 2.057 . S
N101 C102 1.316 . S
N101 C103 1.375 1_554 S
C102 N101 1.316 . S
C102 N104 1.347 . S
C102 H113 0.931 . S
C103 N101 1.375 1_556 S
C103 C105 1.350 . S
C103 H112 0.930 . S
N104 C102 1.347 . S
N104 C105 1.373 1_554 S
C105 C103 1.350 . S
C105 N104 1.373 1_556 S
C105 H119 0.931 . S
C106 O109 1.256 . S
C106 O110 1.255 . S
O107 Co90 2.021 1_556 S
O107 C100 1.259 . S
O108 Co92 2.117 1_556 S
O108 C100 1.258 . S
O109 Co92 2.020 . S
O109 C106 1.256 . S
O110 Co90 2.062 . S
O110 C106 1.255 . S
O111 C91 1.259 . S
O111 Co92 2.021 . S
H112 C103 0.930 . S
H113 C102 0.931 . S
O114 Co90 2.117 . S
O114 C91 1.258 . S
O115 Co90 2.020 . S
O115 C117 1.256 . S
O116 Co92 2.062 . S
O116 C117 1.255 . S
C117 O115 1.256 . S
C117 O116 1.255 . S
H118 C97 0.931 . S
H119 C105 0.931 . S
Co120 N125 2.057 . S
Co120 O137 2.021 1_554 S
Co120 O140 2.062 . S
Co120 O144 2.117 . S
Co120 O145 2.020 . S
C121 O141 1.259 . S
C121 O144 1.258 . S
Co122 N131 2.057 . S
Co122 O138 2.117 1_554 S
Co122 O139 2.020 . S
Co122 O141 2.021 . S
Co122 O146 2.062 . S
C123 N125 1.316 1_556 S
C123 N126 1.347 1_556 S
C123 H128 0.931 . S
C124 N125 1.375 . S
C124 C127 1.350 . S
C124 H129 0.930 . S
N125 Co120 2.057 . S
N125 C123 1.316 1_554 S
N125 C124 1.375 . S
N126 C123 1.347 1_554 S
N126 C127 1.373 . S
C127 C124 1.350 . S
C127 N126 1.373 . S
C127 H148 0.931 . S
H128 C123 0.931 . S
H129 C124 0.930 . S
C130 O137 1.259 . S
C130 O138 1.258 . S
N131 Co122 2.057 . S
N131 C132 1.316 . S
N131 C133 1.375 1_554 S
C132 N131 1.316 . S
C132 N134 1.347 . S
C132 H143 0.931 . S
C133 N131 1.375 1_556 S
C133 C135 1.350 . S
C133 H142 0.930 . S
N134 C132 1.347 . S
N134 C135 1.373 1_554 S
C135 C133 1.350 . S
C135 N134 1.373 1_556 S
C135 H149 0.931 . S
C136 O139 1.256 . S
C136 O140 1.255 . S
O137 Co120 2.021 1_556 S
O137 C130 1.259 . S
O138 Co122 2.117 1_556 S
O138 C130 1.258 . S
O139 Co122 2.020 . S
O139 C136 1.256 . S
O140 Co120 2.062 . S
O140 C136 1.255 . S
O141 C121 1.259 . S
O141 Co122 2.021 . S
H142 C133 0.930 . S
H143 C132 0.931 . S
O144 Co120 2.117 . S
O144 C121 1.258 . S
O145 Co120 2.020 . S
O145 C147 1.256 . S
O146 Co122 2.062 . S
O146 C147 1.255 . S
C147 O145 1.256 . S
C147 O146 1.255 . S
H148 C127 0.931 . S
H149 C135 0.931 . S
Co150 N155 2.057 . S
Co150 O167 2.021 . S
Co150 O170 2.062 . S
Co150 O174 2.117 1_554 S
Co150 O175 2.020 . S
C151 O171 1.259 . S
C151 O174 1.258 . S
Co152 N161 2.057 . S
Co152 O168 2.117 . S
Co152 O169 2.020 . S
Co152 O171 2.021 1_554 S
Co152 O176 2.062 . S
C153 N155 1.316 . S
C153 N156 1.347 . S
C153 H158 0.931 . S
C154 N155 1.375 1_556 S
C154 C157 1.350 . S
C154 H159 0.930 . S
N155 Co150 2.057 . S
N155 C153 1.316 . S
N155 C154 1.375 1_554 S
N156 C153 1.347 . S
N156 C157 1.373 1_554 S
C157 C154 1.350 . S
C157 N156 1.373 1_556 S
C157 H178 0.931 . S
H158 C153 0.931 . S
H159 C154 0.930 . S
C160 O167 1.259 . S
C160 O168 1.258 . S
N161 Co152 2.057 . S
N161 C162 1.316 . S
N161 C163 1.375 . S
C162 N161 1.316 . S
C162 N164 1.347 . S
C162 H173 0.931 1_554 S
C163 N161 1.375 . S
C163 C165 1.350 . S
C163 H172 0.930 . S
N164 C162 1.347 . S
N164 C165 1.373 . S
C165 C163 1.350 . S
C165 N164 1.373 . S
C165 H179 0.931 . S
C166 O169 1.256 . S
C166 O170 1.255 . S
O167 Co150 2.021 . S
O167 C160 1.259 . S
O168 Co152 2.117 . S
O168 C160 1.258 . S
O169 Co152 2.020 . S
O169 C166 1.256 . S
O170 Co150 2.062 . S
O170 C166 1.255 . S
O171 C151 1.259 . S
O171 Co152 2.021 1_556 S
H172 C163 0.930 . S
H173 C162 0.931 1_556 S
O174 Co150 2.117 1_556 S
O174 C151 1.258 . S
O175 Co150 2.020 . S
O175 C177 1.256 . S
O176 Co152 2.062 . S
O176 C177 1.255 . S
C177 O175 1.256 . S
C177 O176 1.255 . S
H178 C157 0.931 . S
H179 C165 0.931 . S
C180 C181 1.386 . S
C180 C182 1.383 . S
C180 H196 0.951 . S
C181 C180 1.386 . S
C181 C185 1.383 . S
C182 C180 1.383 . S
C182 C183 1.402 . S
C182 H197 0.951 . S
C183 C182 1.402 . S
C183 C184 1.375 . S
C183 C186 1.481 . S
C184 C183 1.375 . S
C184 C185 1.367 . S
C184 H198 0.951 . S
C185 C181 1.383 . S
C185 C184 1.367 . S
C185 H199 0.950 . S
C186 C183 1.481 . S
C186 C187 1.297 . S
C186 H200 0.950 . S
C187 C186 1.297 . S
C187 C188 1.479 . S
C187 H201 0.950 . S
C188 C187 1.479 . S
C188 C189 1.375 . S
C188 C194 1.404 . S
C189 C188 1.375 . S
C189 C190 1.369 . S
C189 H202 0.950 . S
C190 C189 1.369 . S
C190 C191 1.392 . S
C190 H203 0.951 . S
C191 C190 1.392 . S
C191 C193 1.384 . S
H192 C194 0.949 . S
C193 C191 1.384 . S
C193 C194 1.385 . S
C193 H195 0.950 . S
C194 C188 1.404 . S
C194 H192 0.949 . S
C194 C193 1.385 . S
H195 C193 0.950 . S
H196 C180 0.951 . S
H197 C182 0.951 . S
H198 C184 0.951 . S
H199 C185 0.950 . S
H200 C186 0.950 . S
H201 C187 0.950 . S
H202 C189 0.950 . S
H203 C190 0.951 . S
C204 C205 1.386 . S
C204 C206 1.383 . S
C204 H220 0.951 . S
C205 C204 1.386 . S
C205 C209 1.383 1_554 S
C206 C204 1.383 . S
C206 C207 1.420 . S
C206 H221 0.951 . S
C207 C206 1.420 . S
C207 C208 1.403 1_554 S
C207 C210 1.437 1_454 S
C208 C207 1.403 1_556 S
C208 C209 1.367 . S
C208 H222 0.951 . S
C209 C205 1.383 1_556 S
C209 C208 1.367 . S
C209 H223 0.950 . S
C210 C207 1.437 1_656 S
C210 C211 1.297 1_556 S
C210 H224 0.950 . S
C211 C210 1.297 1_554 S
C211 C212 1.479 . S
C211 H225 0.950 . S
C212 C211 1.479 . S
C212 C213 1.375 . S
C212 C218 1.404 1_554 S
C213 C212 1.375 . S
C213 C214 1.369 . S
C213 H226 0.950 . S
C214 C213 1.369 . S
C214 C215 1.392 . S
C214 H227 0.951 . S
C215 C214 1.392 . S
C215 C217 1.384 1_554 S
H216 C218 0.949 . S
C217 C215 1.384 1_556 S
C217 C218 1.385 . S
C217 H219 0.950 . S
C218 C212 1.404 1_556 S
C218 H216 0.949 . S
C218 C217 1.385 . S
H219 C217 0.950 . S
H220 C204 0.951 . S
H221 C206 0.951 . S
H222 C208 0.951 . S
H223 C209 0.950 . S
H224 C210 0.950 . S
H225 C211 0.950 . S
H226 C213 0.950 . S
H227 C214 0.951 . S
C228 C229 1.386 1_556 S
C228 C230 1.383 . S
C228 H244 0.951 . S
C229 C228 1.386 1_554 S
C229 C233 1.383 . S
C230 C228 1.383 . S
C230 C231 1.402 1_556 S
C230 H245 0.951 . S
C231 C230 1.402 1_554 S
C231 C232 1.375 . S
C231 C234 1.481 . S
C232 C231 1.375 . S
C232 C233 1.367 . S
C232 H246 0.951 . S
C233 C229 1.383 . S
C233 C232 1.367 . S
C233 H247 0.950 . S
C234 C231 1.481 . S
C234 C235 1.297 1_545 S
C234 H248 0.950 . S
C235 C234 1.297 1_565 S
C235 C236 1.479 . S
C235 H249 0.950 1_564 S
C236 C235 1.479 . S
C236 C237 1.375 1_554 S
C236 C242 1.404 . S
C237 C236 1.375 1_556 S
C237 C238 1.369 . S
C237 H250 0.950 . S
C238 C237 1.369 . S
C238 C239 1.392 1_556 S
C238 H251 0.951 . S
C239 C238 1.392 1_554 S
C239 C241 1.384 . S
H240 C242 0.949 . S
C241 C239 1.384 . S
C241 C242 1.385 . S
C241 H243 0.950 . S
C242 C236 1.404 . S
C242 H240 0.949 . S
C242 C241 1.385 . S
H243 C241 0.950 . S
H244 C228 0.951 . S
H245 C230 0.951 . S
H246 C232 0.951 . S
H247 C233 0.950 . S
H248 C234 0.950 . S
H249 C235 0.950 1_546 S
H250 C237 0.950 . S
H251 C238 0.951 . S
C252 C253 1.385 1_556 S
C252 C254 1.383 1_556 S
C252 H268 0.952 . S
C253 C252 1.385 1_554 S
C253 C257 1.383 . S
C254 C252 1.383 1_554 S
C254 C255 1.402 . S
C254 H269 0.951 1_554 S
C255 C254 1.402 . S
C255 C256 1.375 . S
C255 C258 1.481 . S
C256 C255 1.375 . S
C256 C257 1.367 . S
C256 H270 0.951 . S
C257 C253 1.383 . S
C257 C256 1.367 . S
C257 H271 0.950 . S
C258 C255 1.481 . S
C258 C259 1.297 . S
C258 H272 0.950 . S
C259 C258 1.297 . S
C259 C260 1.479 . S
C259 H273 0.950 1_554 S
C260 C259 1.479 . S
C260 C261 1.375 1_554 S
C260 C266 1.404 . S
C261 C260 1.375 1_556 S
C261 C262 1.369 . S
C261 H274 0.950 . S
C262 C261 1.369 . S
C262 C263 1.392 1_556 S
C262 H275 0.951 . S
C263 C262 1.392 1_554 S
C263 C265 1.384 . S
H264 C266 0.949 . S
C265 C263 1.384 . S
C265 C266 1.385 . S
C265 H267 0.950 . S
C266 C260 1.404 . S
C266 H264 0.949 . S
C266 C265 1.385 . S
H267 C265 0.950 . S
H268 C252 0.952 . S
H269 C254 0.951 1_556 S
H270 C256 0.951 . S
H271 C257 0.950 . S
H272 C258 0.950 . S
H273 C259 0.950 1_556 S
H274 C261 0.950 . S
H275 C262 0.951 . S
C276 C277 1.386 . S
C276 C278 1.383 . S
C276 H292 0.951 . S
C277 C276 1.386 . S
C277 C281 1.383 1_554 S
C278 C276 1.383 . S
C278 C279 1.402 . S
C278 H293 0.951 . S
C279 C278 1.402 . S
C279 C280 1.375 1_554 S
C279 C282 1.481 . S
C280 C279 1.375 1_556 S
C280 C281 1.367 . S
C280 H294 0.951 . S
C281 C277 1.383 1_556 S
C281 C280 1.367 . S
C281 H295 0.950 . S
C282 C279 1.481 . S
C282 C283 1.300 . S
C282 H296 0.947 1_554 S
C283 C282 1.300 . S
C283 C284 1.463 1_455 S
C283 H297 0.950 . S
C284 C283 1.463 1_655 S
C284 C285 1.387 . S
C284 C290 1.409 1_554 S
C285 C284 1.387 . S
C285 C286 1.369 . S
C285 H298 0.950 1_655 S
C286 C285 1.369 . S
C286 C287 1.392 . S
C286 H299 0.951 . S
C287 C286 1.392 . S
C287 C289 1.392 . S
H288 C290 0.949 . S
C289 C287 1.392 . S
C289 C290 1.382 1_554 S
C289 H291 0.946 1_554 S
C290 C284 1.409 1_556 S
C290 H288 0.949 . S
C290 C289 1.382 1_556 S
H291 C289 0.946 1_556 S
H292 C276 0.951 . S
H293 C278 0.951 . S
H294 C280 0.951 . S
H295 C281 0.950 . S
H296 C282 0.947 1_556 S
H297 C283 0.950 . S
H298 C285 0.950 1_455 S
H299 C286 0.951 . S
C300 C301 1.386 . S
C300 C302 1.383 . S
C300 H316 0.951 . S
C301 C300 1.386 . S
C301 C305 1.383 . S
C302 C300 1.383 . S
C302 C303 1.402 . S
C302 H317 0.951 . S
C303 C302 1.402 . S
C303 C304 1.375 . S
C303 C306 1.481 . S
C304 C303 1.375 . S
C304 C305 1.367 . S
C304 H318 0.951 . S
C305 C301 1.383 . S
C305 C304 1.367 . S
C305 H319 0.950 . S
C306 C303 1.481 . S
C306 C307 1.297 1_565 S
C306 H320 0.950 . S
C307 C306 1.297 1_545 S
C307 C308 1.479 . S
C307 H321 0.922 1_545 S
C308 C307 1.479 . S
C308 C309 1.375 . S
C308 C314 1.404 . S
C309 C308 1.375 . S
C309 C310 1.369 . S
C309 H322 0.950 . S
C310 C309 1.369 . S
C310 C311 1.392 . S
C310 H323 0.951 . S
C311 C310 1.392 . S
C311 C313 1.384 . S
H312 C314 0.949 . S
C313 C311 1.384 . S
C313 C314 1.385 . S
C313 H315 0.950 . S
C314 C308 1.404 . S
C314 H312 0.949 . S
C314 C313 1.385 . S
H315 C313 0.950 . S
H316 C300 0.951 . S
H317 C302 0.951 . S
H318 C304 0.951 . S
H319 C305 0.950 . S
H320 C306 0.950 . S
H321 C307 0.922 1_565 S
H322 C309 0.950 . S
H323 C310 0.951 . S
C324 C325 1.386 . S
C324 C326 1.383 . S
C324 H340 0.951 . S
C325 C324 1.386 . S
C325 C329 1.383 1_554 S
C326 C324 1.383 . S
C326 C327 1.402 . S
C326 H341 0.951 . S
C327 C326 1.402 . S
C327 C328 1.375 1_554 S
C327 C330 1.481 . S
C328 C327 1.375 1_556 S
C328 C329 1.367 . S
C328 H342 0.951 . S
C329 C325 1.383 1_556 S
C329 C328 1.367 . S
C329 H343 0.950 . S
C330 C327 1.481 . S
C330 C331 1.297 . S
C330 H344 0.950 1_554 S
C331 C330 1.297 . S
C331 C332 1.479 . S
C331 H345 0.950 . S
C332 C331 1.479 . S
C332 C333 1.375 . S
C332 C338 1.404 1_554 S
C333 C332 1.375 . S
C333 C334 1.369 . S
C333 H346 0.950 . S
C334 C333 1.369 . S
C334 C335 1.392 . S
C334 H347 0.951 . S
C335 C334 1.392 . S
C335 C337 1.384 1_554 S
H336 C338 0.949 . S
C337 C335 1.384 1_556 S
C337 C338 1.385 . S
C337 H339 0.950 . S
C338 C332 1.404 1_556 S
C338 H336 0.949 . S
C338 C337 1.385 . S
H339 C337 0.950 . S
H340 C324 0.951 . S
H341 C326 0.951 . S
H342 C328 0.951 . S
H343 C329 0.950 . S
H344 C330 0.950 1_556 S
H345 C331 0.950 . S
H346 C333 0.950 . S
H347 C334 0.951 . S
C348 C349 1.386 . S
C348 C350 1.383 . S
C348 H364 0.951 1_554 S
C349 C348 1.386 . S
C349 C353 1.383 . S
C350 C348 1.383 . S
C350 C351 1.402 . S
C350 H365 0.951 1_554 S
C351 C350 1.402 . S
C351 C352 1.375 . S
C351 C354 1.481 . S
C352 C351 1.375 . S
C352 C353 1.367 . S
C352 H366 0.951 . S
C353 C349 1.383 . S
C353 C352 1.367 . S
C353 H367 0.950 . S
C354 C351 1.481 . S
C354 C355 1.297 . S
C354 H368 0.950 . S
C355 C354 1.297 . S
C355 C356 1.479 . S
C355 H369 0.950 1_554 S
C356 C355 1.479 . S
C356 C357 1.375 1_554 S
C356 C362 1.404 . S
C357 C356 1.375 1_556 S
C357 C358 1.369 . S
C357 H370 0.950 . S
C358 C357 1.369 . S
C358 C359 1.392 1_556 S
C358 H371 0.951 . S
C359 C358 1.392 1_554 S
C359 C361 1.384 . S
H360 C362 0.949 . S
C361 C359 1.384 . S
C361 C362 1.385 . S
C361 H363 0.950 . S
C362 C356 1.404 . S
C362 H360 0.949 . S
C362 C361 1.385 . S
H363 C361 0.950 . S
H364 C348 0.951 1_556 S
H365 C350 0.951 1_556 S
H366 C352 0.951 . S
H367 C353 0.950 . S
H368 C354 0.950 . S
H369 C355 0.950 1_556 S
H370 C357 0.950 . S
H371 C358 0.951 . S
C372 C373 1.386 . S
C372 C374 1.383 . S
C372 H388 0.951 . S
C373 C372 1.386 . S
C373 C377 1.383 1_554 S
C374 C372 1.383 . S
C374 C375 1.402 1_554 S
C374 H389 0.951 . S
C375 C374 1.402 1_556 S
C375 C376 1.375 . S
C375 C378 1.481 . S
C376 C375 1.375 . S
C376 C377 1.367 . S
C376 H390 0.951 . S
C377 C373 1.383 1_556 S
C377 C376 1.367 . S
C377 H391 0.950 . S
C378 C375 1.481 . S
C378 C379 1.297 1_556 S
C378 H392 0.950 . S
C379 C378 1.297 1_554 S
C379 C380 1.479 . S
C379 H393 0.950 . S
C380 C379 1.479 . S
C380 C381 1.375 . S
C380 C386 1.404 1_554 S
C381 C380 1.375 . S
C381 C382 1.369 . S
C381 H394 0.950 . S
C382 C381 1.369 . S
C382 C383 1.392 . S
C382 H395 0.951 . S
C383 C382 1.392 . S
C383 C385 1.384 1_554 S
H384 C386 0.949 . S
C385 C383 1.384 1_556 S
C385 C386 1.385 . S
C385 H387 0.950 . S
C386 C380 1.404 1_556 S
C386 H384 0.949 . S
C386 C385 1.385 . S
H387 C385 0.950 . S
H388 C372 0.951 . S
H389 C374 0.951 . S
H390 C376 0.951 . S
H391 C377 0.950 . S
H392 C378 0.950 . S
H393 C379 0.950 . S
H394 C381 0.950 . S
H395 C382 0.951 . S
C396 C397 1.386 . S
C396 C398 1.383 . S
C396 H412 0.951 . S
C397 C396 1.386 . S
C397 C401 1.383 . S
C398 C396 1.383 . S
C398 C399 1.402 . S
C398 H413 0.951 . S
C399 C398 1.402 . S
C399 C400 1.375 . S
C399 C402 1.481 . S
C400 C399 1.375 . S
C400 C401 1.367 . S
C400 H414 0.951 . S
C401 C397 1.383 . S
C401 C400 1.367 . S
C401 H415 0.950 . S
C402 C399 1.481 . S
C402 C403 1.297 . S
C402 H416 0.950 . S
C403 C402 1.297 . S
C403 C404 1.479 . S
C403 H417 0.950 . S
C404 C403 1.479 . S
C404 C405 1.375 . S
C404 C410 1.404 . S
C405 C404 1.375 . S
C405 C406 1.369 . S
C405 H418 0.950 . S
C406 C405 1.369 . S
C406 C407 1.392 . S
C406 H419 0.951 . S
C407 C406 1.392 . S
C407 C409 1.384 . S
H408 C410 0.949 . S
C409 C407 1.384 . S
C409 C410 1.385 . S
C409 H411 0.950 . S
C410 C404 1.404 . S
C410 H408 0.949 . S
C410 C409 1.385 . S
H411 C409 0.950 . S
H412 C396 0.951 . S
H413 C398 0.951 . S
H414 C400 0.951 . S
H415 C401 0.950 . S
H416 C402 0.950 . S
H417 C403 0.950 . S
H418 C405 0.950 . S
H419 C406 0.951 . S
C420 C421 1.386 1_556 S
C420 C422 1.383 . S
C420 H436 0.951 . S
C421 C420 1.386 1_554 S
C421 C425 1.383 . S
C422 C420 1.383 . S
C422 C423 1.402 1_556 S
C422 H437 0.951 . S
C423 C422 1.402 1_554 S
C423 C424 1.375 . S
C423 C426 1.481 . S
C424 C423 1.375 . S
C424 C425 1.367 . S
C424 H438 0.951 . S
C425 C421 1.383 . S
C425 C424 1.367 . S
C425 H439 0.950 . S
C426 C423 1.481 . S
C426 C427 1.297 . S
C426 H440 0.950 . S
C427 C426 1.297 . S
C427 C428 1.479 . S
C427 H441 0.950 1_554 S
C428 C427 1.479 . S
C428 C429 1.375 1_554 S
C428 C434 1.404 . S
C429 C428 1.375 1_556 S
C429 C430 1.369 . S
C429 H442 0.950 . S
C430 C429 1.369 . S
C430 C431 1.392 1_556 S
C430 H443 0.951 . S
C431 C430 1.392 1_554 S
C431 C433 1.384 . S
H432 C434 0.949 . S
C433 C431 1.384 . S
C433 C434 1.385 . S
C433 H435 0.950 . S
C434 C428 1.404 . S
C434 H432 0.949 . S
C434 C433 1.385 . S
H435 C433 0.950 . S
H436 C420 0.951 . S
H437 C422 0.951 . S
H438 C424 0.951 . S
H439 C425 0.950 . S
H440 C426 0.950 . S
H441 C427 0.950 1_556 S
H442 C429 0.950 . S
H443 C430 0.951 . S
C444 C445 1.386 . S
C444 C446 1.383 . S
C444 H460 0.951 . S
C445 C444 1.386 . S
C445 C449 1.383 . S
C446 C444 1.383 . S
C446 C447 1.402 . S
C446 H461 0.951 . S
C447 C446 1.402 . S
C447 C448 1.375 . S
C447 C450 1.481 . S
C448 C447 1.375 . S
C448 C449 1.367 . S
C448 H462 0.951 . S
C449 C445 1.383 . S
C449 C448 1.367 . S
C449 H463 0.950 . S
C450 C447 1.481 . S
C450 C451 1.297 . S
C450 H464 0.950 . S
C451 C450 1.297 . S
C451 C452 1.479 . S
C451 H465 0.950 . S
C452 C451 1.479 . S
C452 C453 1.375 . S
C452 C458 1.404 . S
C453 C452 1.375 . S
C453 C454 1.369 . S
C453 H466 0.950 . S
C454 C453 1.369 . S
C454 C455 1.392 . S
C454 H467 0.951 . S
C455 C454 1.392 . S
C455 C457 1.384 . S
H456 C458 0.949 . S
C457 C455 1.384 . S
C457 C458 1.385 . S
C457 H459 0.950 . S
C458 C452 1.404 . S
C458 H456 0.949 . S
C458 C457 1.385 . S
H459 C457 0.950 . S
H460 C444 0.951 . S
H461 C446 0.951 . S
H462 C448 0.951 . S
H463 C449 0.950 . S
H464 C450 0.950 . S
H465 C451 0.950 . S
H466 C453 0.950 . S
H467 C454 0.951 . S
C468 C469 1.386 . S
C468 C470 1.383 . S
C468 H484 0.951 . S
C469 C468 1.386 . S
C469 C473 1.383 . S
C470 C468 1.383 . S
C470 C471 1.402 . S
C470 H485 0.951 . S
C471 C470 1.402 . S
C471 C472 1.375 . S
C471 C474 1.481 . S
C472 C471 1.375 . S
C472 C473 1.367 . S
C472 H486 0.951 . S
C473 C469 1.383 . S
C473 C472 1.367 . S
C473 H487 0.950 . S
C474 C471 1.481 . S
C474 C475 1.297 . S
C474 H488 0.950 . S
C475 C474 1.297 . S
C475 C476 1.479 . S
C475 H489 0.950 . S
C476 C475 1.479 . S
C476 C477 1.375 . S
C476 C482 1.404 . S
C477 C476 1.375 . S
C477 C478 1.369 . S
C477 H490 0.950 . S
C478 C477 1.369 . S
C478 C479 1.392 . S
C478 H491 0.951 . S
C479 C478 1.392 . S
C479 C481 1.384 . S
H480 C482 0.949 . S
C481 C479 1.384 . S
C481 C482 1.385 . S
C481 H483 0.950 . S
C482 C476 1.404 . S
C482 H480 0.949 . S
C482 C481 1.385 . S
H483 C481 0.950 . S
H484 C468 0.951 . S
H485 C470 0.951 . S
H486 C472 0.951 . S
H487 C473 0.950 . S
H488 C474 0.950 . S
H489 C475 0.950 . S
H490 C477 0.950 . S
H491 C478 0.951 . S
C492 C493 1.386 . S
C492 C494 1.383 . S
C492 H508 0.951 . S
C493 C492 1.386 . S
C493 C497 1.383 . S
C494 C492 1.383 . S
C494 C495 1.402 . S
C494 H509 0.951 . S
C495 C494 1.402 . S
C495 C496 1.375 . S
C495 C498 1.481 . S
C496 C495 1.375 . S
C496 C497 1.367 . S
C496 H510 0.951 . S
C497 C493 1.383 . S
C497 C496 1.367 . S
C497 H511 0.950 . S
C498 C495 1.481 . S
C498 C499 1.297 . S
C498 H512 0.950 . S
C499 C498 1.297 . S
C499 C500 1.479 . S
C499 H513 0.950 . S
C500 C499 1.479 . S
C500 C501 1.375 . S
C500 C506 1.404 . S
C501 C500 1.375 . S
C501 C502 1.369 . S
C501 H514 0.950 . S
C502 C501 1.369 . S
C502 C503 1.392 . S
C502 H515 0.951 . S
C503 C502 1.392 . S
C503 C505 1.384 . S
H504 C506 0.949 . S
C505 C503 1.384 . S
C505 C506 1.385 . S
C505 H507 0.950 . S
C506 C500 1.404 . S
C506 H504 0.949 . S
C506 C505 1.385 . S
H507 C505 0.950 . S
H508 C492 0.951 . S
H509 C494 0.951 . S
H510 C496 0.951 . S
H511 C497 0.950 . S
H512 C498 0.950 . S
H513 C499 0.950 . S
H514 C501 0.950 . S
H515 C502 0.951 . S
C516 C517 1.386 . S
C516 C518 1.383 . S
C516 H532 0.951 . S
C517 C516 1.386 . S
C517 C521 1.383 . S
C518 C516 1.383 . S
C518 C519 1.402 . S
C518 H533 0.951 . S
C519 C518 1.402 . S
C519 C520 1.375 . S
C519 C522 1.481 . S
C520 C519 1.375 . S
C520 C521 1.367 . S
C520 H534 0.951 . S
C521 C517 1.383 . S
C521 C520 1.367 . S
C521 H535 0.950 . S
C522 C519 1.481 . S
C522 C523 1.297 . S
C522 H536 0.950 . S
C523 C522 1.297 . S
C523 C524 1.479 . S
C523 H537 0.950 . S
C524 C523 1.479 . S
C524 C525 1.375 . S
C524 C530 1.404 . S
C525 C524 1.375 . S
C525 C526 1.369 . S
C525 H538 0.950 . S
C526 C525 1.369 . S
C526 C527 1.392 . S
C526 H539 0.951 . S
C527 C526 1.392 . S
C527 C529 1.384 . S
H528 C530 0.949 . S
C529 C527 1.384 . S
C529 C530 1.385 . S
C529 H531 0.950 . S
C530 C524 1.404 . S
C530 H528 0.949 . S
C530 C529 1.385 . S
H531 C529 0.950 . S
H532 C516 0.951 . S
H533 C518 0.951 . S
H534 C520 0.951 . S
H535 C521 0.950 . S
H536 C522 0.950 . S
H537 C523 0.950 . S
H538 C525 0.950 . S
H539 C526 0.951 . S
C540 C541 1.386 . S
C540 C542 1.383 . S
C540 H556 0.951 . S
C541 C540 1.386 . S
C541 C545 1.383 . S
C542 C540 1.383 . S
C542 C543 1.402 . S
C542 H557 0.951 . S
C543 C542 1.402 . S
C543 C544 1.375 . S
C543 C546 1.481 . S
C544 C543 1.375 . S
C544 C545 1.367 . S
C544 H558 0.951 . S
C545 C541 1.383 . S
C545 C544 1.367 . S
C545 H559 0.950 . S
C546 C543 1.481 . S
C546 C547 1.297 . S
C546 H560 0.950 . S
C547 C546 1.297 . S
C547 C548 1.479 . S
C547 H561 0.950 . S
C548 C547 1.479 . S
C548 C549 1.375 . S
C548 C554 1.404 . S
C549 C548 1.375 . S
C549 C550 1.369 . S
C549 H562 0.950 . S
C550 C549 1.369 . S
C550 C551 1.392 . S
C550 H563 0.951 . S
C551 C550 1.392 . S
C551 C553 1.384 . S
H552 C554 0.949 . S
C553 C551 1.384 . S
C553 C554 1.385 . S
C553 H555 0.950 . S
C554 C548 1.404 . S
C554 H552 0.949 . S
C554 C553 1.385 . S
H555 C553 0.950 . S
H556 C540 0.951 . S
H557 C542 0.951 . S
H558 C544 0.951 . S
H559 C545 0.950 . S
H560 C546 0.950 . S
H561 C547 0.950 . S
H562 C549 0.950 . S
H563 C550 0.951 . S
C564 C565 1.386 . S
C564 C566 1.383 . S
C564 H580 0.951 . S
C565 C564 1.386 . S
C565 C569 1.383 . S
C566 C564 1.383 . S
C566 C567 1.402 . S
C566 H581 0.951 . S
C567 C566 1.402 . S
C567 C568 1.375 . S
C567 C570 1.481 . S
C568 C567 1.375 . S
C568 C569 1.367 . S
C568 H582 0.951 . S
C569 C565 1.383 . S
C569 C568 1.367 . S
C569 H583 0.950 . S
C570 C567 1.481 . S
C570 C571 1.297 . S
C570 H584 0.950 . S
C571 C570 1.297 . S
C571 C572 1.479 . S
C571 H585 0.950 . S
C572 C571 1.479 . S
C572 C573 1.375 . S
C572 C578 1.404 . S
C573 C572 1.375 . S
C573 C574 1.369 . S
C573 H586 0.950 . S
C574 C573 1.369 . S
C574 C575 1.392 . S
C574 H587 0.951 . S
C575 C574 1.392 . S
C575 C577 1.384 . S
H576 C578 0.949 . S
C577 C575 1.384 . S
C577 C578 1.385 . S
C577 H579 0.950 . S
C578 C572 1.404 . S
C578 H576 0.949 . S
C578 C577 1.385 . S
H579 C577 0.950 . S
H580 C564 0.951 . S
H581 C566 0.951 . S
H582 C568 0.951 . S
H583 C569 0.950 . S
H584 C570 0.950 . S
H585 C571 0.950 . S
H586 C573 0.950 . S
H587 C574 0.951 . S
C588 C589 1.386 . S
C588 C590 1.383 . S
C588 H604 0.951 . S
C589 C588 1.386 . S
C589 C593 1.383 . S
C590 C588 1.383 . S
C590 C591 1.402 . S
C590 H605 0.951 . S
C591 C590 1.402 . S
C591 C592 1.375 . S
C591 C594 1.481 . S
C592 C591 1.375 . S
C592 C593 1.367 . S
C592 H606 0.951 . S
C593 C589 1.383 . S
C593 C592 1.367 . S
C593 H607 0.950 . S
C594 C591 1.481 . S
C594 C595 1.297 . S
C594 H608 0.950 . S
C595 C594 1.297 . S
C595 C596 1.479 . S
C595 H609 0.950 . S
C596 C595 1.479 . S
C596 C597 1.375 . S
C596 C602 1.404 . S
C597 C596 1.375 . S
C597 C598 1.369 . S
C597 H610 0.950 . S
C598 C597 1.369 . S
C598 C599 1.392 . S
C598 H611 0.951 . S
C599 C598 1.392 . S
C599 C601 1.384 . S
H600 C602 0.949 . S
C601 C599 1.384 . S
C601 C602 1.385 . S
C601 H603 0.950 . S
C602 C596 1.404 . S
C602 H600 0.949 . S
C602 C601 1.385 . S
H603 C601 0.950 . S
H604 C588 0.951 . S
H605 C590 0.951 . S
H606 C592 0.951 . S
H607 C593 0.950 . S
H608 C594 0.950 . S
H609 C595 0.950 . S
H610 C597 0.950 . S
H611 C598 0.951 . S
C181 C166 0.894 . S
C191 C27 0.879 . S
C205 N14 1.423 . S
C215 C46 1.579 . S
C229 N36 1.589 . S
C239 N74 1.583 . S
C253 C106 0.917 . S
C263 C87 0.873 . S
C277 C147 1.596 . S
C287 N96 1.509 . S
C301 N134 1.605 . S
C311 N156 1.507 . S
C325 N126 1.464 . S
C335 C16 1.502 . S
C349 C177 1.890 . S
C359 C57 1.894 . S
C373 N66 1.210 1_554 S
C383 N6 1.210 . S
C397 C117 1.488 . S
C407 N44 1.484 . S
C421 C136 1.907 . S
C431 C76 1.902 . S
C445 N104 1.245 . S
C455 N164 1.182 . S
C469 C10 1.480 . S
C479 C1 1.486 . S
C493 C40 1.487 . S
C503 C31 1.491 . S
C517 C61 1.498 . S
C527 C70 1.472 . S
C541 C100 1.499 . S
C551 C91 1.474 . S
C565 C121 1.488 . S
C575 C130 1.484 . S
C589 C151 1.495 . S
C599 C160 1.470 . S
