# Generated by pormake.
# Topology wkf, (6)-cn, num edge types: 1
# Building blocks:
#     Node 0, Type 0, BuildingBlock: CUWYAW_clean_sbu_0, # of connection points: 6
#     Node 1, Type 0, BuildingBlock: CUWYAW_clean_sbu_0, # of connection points: 6
#     Node 2, Type 0, BuildingBlock: CUWYAW_clean_sbu_0, # of connection points: 6
#     Node 3, Type 0, BuildingBlock: CUWYAW_clean_sbu_0, # of connection points: 6
#     Node 4, Type 0, BuildingBlock: CUWYAW_clean_sbu_0, # of connection points: 6
#     Node 5, Type 0, BuildingBlock: CUWYAW_clean_sbu_0, # of connection points: 6
#     Node 6, Type 0, BuildingBlock: CUWYAW_clean_sbu_0, # of connection points: 6
#     Node 7, Type 0, BuildingBlock: CUWYAW_clean_sbu_0, # of connection points: 6
#     Node 8, Type 0, BuildingBlock: CUWYAW_clean_sbu_0, # of connection points: 6
#     Node 9, Type 0, BuildingBlock: CUWYAW_clean_sbu_0, # of connection points: 6
#     Node 10, Type 0, BuildingBlock: CUWYAW_clean_sbu_0, # of connection points: 6
#     Node 11, Type 0, BuildingBlock: CUWYAW_clean_sbu_0, # of connection points: 6
#     Edge 12, Type (0, 0), BuildingBlock: OJICUG_clean_linker_0, # of connection points: 2
#     Edge 13, Type (0, 0), BuildingBlock: OJICUG_clean_linker_0, # of connection points: 2
#     Edge 14, Type (0, 0), BuildingBlock: OJICUG_clean_linker_0, # of connection points: 2
#     Edge 15, Type (0, 0), BuildingBlock: OJICUG_clean_linker_0, # of connection points: 2
#     Edge 16, Type (0, 0), BuildingBlock: OJICUG_clean_linker_0, # of connection points: 2
#     Edge 17, Type (0, 0), BuildingBlock: OJICUG_clean_linker_0, # of connection points: 2
#     Edge 18, Type (0, 0), BuildingBlock: OJICUG_clean_linker_0, # of connection points: 2
#     Edge 19, Type (0, 0), BuildingBlock: OJICUG_clean_linker_0, # of connection points: 2
#     Edge 20, Type (0, 0), BuildingBlock: OJICUG_clean_linker_0, # of connection points: 2
#     Edge 21, Type (0, 0), BuildingBlock: OJICUG_clean_linker_0, # of connection points: 2
#     Edge 22, Type (0, 0), BuildingBlock: OJICUG_clean_linker_0, # of connection points: 2
#     Edge 23, Type (0, 0), BuildingBlock: OJICUG_clean_linker_0, # of connection points: 2
#     Edge 24, Type (0, 0), BuildingBlock: OJICUG_clean_linker_0, # of connection points: 2
#     Edge 25, Type (0, 0), BuildingBlock: OJICUG_clean_linker_0, # of connection points: 2
#     Edge 26, Type (0, 0), BuildingBlock: OJICUG_clean_linker_0, # of connection points: 2
#     Edge 27, Type (0, 0), BuildingBlock: OJICUG_clean_linker_0, # of connection points: 2
#     Edge 28, Type (0, 0), BuildingBlock: OJICUG_clean_linker_0, # of connection points: 2
#     Edge 29, Type (0, 0), BuildingBlock: OJICUG_clean_linker_0, # of connection points: 2
#     Edge 30, Type (0, 0), BuildingBlock: OJICUG_clean_linker_0, # of connection points: 2
#     Edge 31, Type (0, 0), BuildingBlock: OJICUG_clean_linker_0, # of connection points: 2
#     Edge 32, Type (0, 0), BuildingBlock: OJICUG_clean_linker_0, # of connection points: 2
#     Edge 33, Type (0, 0), BuildingBlock: OJICUG_clean_linker_0, # of connection points: 2
#     Edge 34, Type (0, 0), BuildingBlock: OJICUG_clean_linker_0, # of connection points: 2
#     Edge 35, Type (0, 0), BuildingBlock: OJICUG_clean_linker_0, # of connection points: 2
#     Edge 36, Type (0, 0), BuildingBlock: OJICUG_clean_linker_0, # of connection points: 2
#     Edge 37, Type (0, 0), BuildingBlock: OJICUG_clean_linker_0, # of connection points: 2
#     Edge 38, Type (0, 0), BuildingBlock: OJICUG_clean_linker_0, # of connection points: 2
#     Edge 39, Type (0, 0), BuildingBlock: OJICUG_clean_linker_0, # of connection points: 2
#     Edge 40, Type (0, 0), BuildingBlock: OJICUG_clean_linker_0, # of connection points: 2
#     Edge 41, Type (0, 0), BuildingBlock: OJICUG_clean_linker_0, # of connection points: 2
#     Edge 42, Type (0, 0), BuildingBlock: OJICUG_clean_linker_0, # of connection points: 2
#     Edge 43, Type (0, 0), BuildingBlock: OJICUG_clean_linker_0, # of connection points: 2
#     Edge 44, Type (0, 0), BuildingBlock: OJICUG_clean_linker_0, # of connection points: 2
#     Edge 45, Type (0, 0), BuildingBlock: OJICUG_clean_linker_0, # of connection points: 2
#     Edge 46, Type (0, 0), BuildingBlock: OJICUG_clean_linker_0, # of connection points: 2
#     Edge 47, Type (0, 0), BuildingBlock: OJICUG_clean_linker_0, # of connection points: 2
# Relax obj value: 0.435
# Max RMSD: 0.280
# Mean RMSD: 0.270
data_MOF--net-wkf--node1-CUWYAW_clean_sbu_0--edge1-OJICUG_clean_linker_0
_symmetry_space_group_name_H-M    P1
_symmetry_Int_Tables_number       1
_symmetry_cell_setting            triclinic
loop_
_symmetry_equiv_pos_as_xyz
'x, y, z'
_cell_length_a     21.731517
_cell_length_b     21.925361
_cell_length_c     74.627459
_cell_angle_alpha  90.202308
_cell_angle_beta   89.913521
_cell_angle_gamma 118.94997
loop_
_atom_site_label
_atom_site_type_symbol
_atom_site_fract_x
_atom_site_fract_y
_atom_site_fract_z
_atom_type_partial_charge
C0 C 0.35533 0.85847 0.38809 0.0
Eu1 Eu 0.4534 0.91383 0.41298 0.0
C2 C 0.30359 0.82731 0.37277 0.0
C3 C 0.3274 0.82066 0.35566 0.0
C4 C 0.28124 0.79368 0.34096 0.0
C5 C 0.20888 0.77241 0.34258 0.0
C6 C 0.18478 0.77858 0.3598 0.0
C7 C 0.23129 0.80552 0.37461 0.0
C8 C 0.53229 0.05852 0.40677 0.0
C9 C 0.54771 0.82791 0.40795 0.0
C10 C 0.67471 1.02946 0.45074 0.0
Eu11 Eu 0.56475 0.9532 0.43167 0.0
C12 C 0.68742 0.09436 0.45982 0.0
C13 C 0.64466 0.09245 0.47427 0.0
C14 C 0.64925 0.15372 0.4811 0.0
C15 C 0.697 0.21845 0.47378 0.0
C16 C 0.7396 0.22007 0.45929 0.0
C17 C 0.73482 0.15881 0.45242 0.0
C18 C 0.46004 0.83448 0.44851 0.0
C19 C 0.46478 1.00834 0.44701 0.0
O20 O 0.33958 0.85901 0.40506 0.0
O21 O 0.42284 0.88682 0.38513 0.0
O22 O 0.46525 1.02118 0.40885 0.0
O23 O 0.55825 1.01567 0.40748 0.0
O24 O 0.48357 0.82239 0.40802 0.0
O25 O 0.59746 0.88775 0.41413 0.0
O26 O 0.67602 1.03125 0.43324 0.0
O27 O 0.62181 0.97273 0.45681 0.0
O28 O 0.52324 0.84628 0.445 0.0
O29 O 0.45193 0.88268 0.4415 0.0
O30 O 0.53036 1.0245 0.44458 0.0
O31 O 0.41616 0.95556 0.43736 0.0
H32 H 0.38236 0.83621 0.35355 0.0
H33 H 0.30272 0.78855 0.32831 0.0
H34 H 0.12996 0.76355 0.36185 0.0
H35 H 0.21065 0.80992 0.38748 0.0
H36 H 0.60647 1.04351 0.48016 0.0
H37 H 0.61629 0.15037 0.49236 0.0
H38 H 0.77906 0.26887 0.45364 0.0
H39 H 0.76781 0.16182 0.44118 0.0
C40 C 0.55693 0.32502 0.55547 0.0
Eu41 Eu 0.59868 0.42263 0.58042 0.0
C42 C 0.53214 0.27437 0.53986 0.0
C43 C 0.51856 0.20488 0.5414 0.0
C44 C 0.49854 0.15983 0.52629 0.0
C45 C 0.49086 0.18247 0.50908 0.0
C46 C 0.50306 0.25173 0.5078 0.0
C47 C 0.52352 0.2966 0.52279 0.0
C48 C 0.53234 0.50323 0.57419 0.0
C49 C 0.77612 0.51893 0.57512 0.0
C50 C 0.69744 0.63919 0.61993 0.0
Eu51 Eu 0.66776 0.53345 0.59943 0.0
C52 C 0.64783 0.64233 0.63291 0.0
C53 C 0.62083 0.59445 0.64719 0.0
C54 C 0.56892 0.59328 0.65844 0.0
C55 C 0.54277 0.63967 0.65561 0.0
C56 C 0.56804 0.68565 0.64091 0.0
C57 C 0.62007 0.68704 0.62974 0.0
C58 C 0.68402 0.42732 0.61573 0.0
C59 C 0.5145 0.43472 0.61461 0.0
O60 O 0.54662 0.30937 0.57256 0.0
O61 O 0.59029 0.39197 0.55245 0.0
O62 O 0.50349 0.4368 0.5765 0.0
O63 O 0.60043 0.52768 0.57491 0.0
O64 O 0.72066 0.45463 0.57556 0.0
O65 O 0.76298 0.56794 0.58105 0.0
O66 O 0.68114 0.63824 0.60307 0.0
O67 O 0.71828 0.59402 0.62339 0.0
O68 O 0.73411 0.48956 0.6123 0.0
O69 O 0.62783 0.42105 0.60896 0.0
O70 O 0.56341 0.49931 0.61274 0.0
O71 O 0.51911 0.38648 0.60454 0.0
H72 H 0.52477 0.18563 0.55424 0.0
H73 H 0.49087 0.10766 0.52809 0.0
H74 H 0.4966 0.27188 0.49514 0.0
H75 H 0.53269 0.34932 0.52094 0.0
H76 H 0.6396 0.55766 0.64972 0.0
H77 H 0.55099 0.55788 0.66972 0.0
H78 H 0.55068 0.72368 0.63859 0.0
H79 H 0.63883 0.72333 0.61865 0.0
C80 C 0.30863 0.53954 0.72474 0.0
Eu81 Eu 0.23413 0.57492 0.74635 0.0
C82 C 0.32131 0.50309 0.70905 0.0
C83 C 0.37496 0.48454 0.70986 0.0
C84 C 0.39696 0.46267 0.69441 0.0
C85 C 0.36631 0.4587 0.67744 0.0
C86 C 0.31095 0.47523 0.67682 0.0
C87 C 0.28911 0.49717 0.69226 0.0
C88 C 0.09039 0.50596 0.73687 0.0
C89 C 0.31919 0.75111 0.74105 0.0
C90 C 0.09597 0.68535 0.77196 0.0
Eu91 Eu 0.1841 0.64493 0.76174 0.0
C92 C 1.01905 0.64822 0.76919 0.0
C93 C 0.97478 0.59923 0.78177 0.0
C94 C 0.90279 0.56056 0.77863 0.0
C95 C 0.87293 0.56987 0.76281 0.0
C96 C 0.91763 0.61727 0.74994 0.0
C97 C 0.9898 0.65634 0.75314 0.0
C98 C 0.29968 0.66315 0.78267 0.0
C99 C 0.12955 0.49798 0.77929 0.0
O100 O 0.28636 0.51055 0.74047 0.0
O101 O 0.28907 0.58594 0.72121 0.0
O102 O 0.13027 0.4788 0.74007 0.0
O103 O 0.13091 0.57362 0.73742 0.0
O104 O 0.32679 0.69448 0.74296 0.0
O105 O 0.25568 0.73995 0.7447 0.0
O106 O 0.13377 0.70855 0.75745 0.0
O107 O 0.12097 0.65627 0.7829 0.0
O108 O 0.28259 0.71079 0.77906 0.0
O109 O 0.25624 0.60777 0.77486 0.0
O110 O 0.10965 0.54288 0.77432 0.0
O111 O 0.18843 0.50395 0.77186 0.0
H112 H 0.40228 0.48989 0.72239 0.0
H113 H 0.44035 0.45187 0.69569 0.0
H114 H 0.28472 0.47224 0.66427 0.0
H115 H 0.24826 0.51166 0.69091 0.0
H116 H 0.99558 0.5911 0.79418 0.0
H117 H 0.8703 0.52621 0.78917 0.0
H118 H 0.89657 0.62571 0.73763 0.0
H119 H 1.02263 0.69292 0.74301 0.0
C120 C 0.82804 0.25102 0.88983 0.0
Eu121 Eu 0.72071 0.20307 0.91259 0.0
C122 C 0.87268 0.29273 0.8741 0.0
C123 C 0.94642 0.33394 0.8755 0.0
C124 C 0.98909 0.36361 0.86013 0.0
C125 C 0.9597 0.35253 0.84271 0.0
C126 C 0.88575 0.31126 0.8415 0.0
C127 C 0.84341 0.28254 0.85678 0.0
C128 C 0.64102 0.05844 0.90626 0.0
C129 C 0.62595 0.28936 0.90678 0.0
C130 C 0.4913 0.08284 0.94718 0.0
Eu131 Eu 0.60643 0.16272 0.93064 0.0
C132 C 0.46852 1.00912 0.9506 0.0
C133 C 0.45341 0.98358 0.96811 0.0
C134 C 0.44353 0.91726 0.97193 0.0
C135 C 0.44883 0.87532 0.95829 0.0
C136 C 0.46552 0.90169 0.94086 0.0
C137 C 0.47535 0.96797 0.93706 0.0
C138 C 0.71014 0.28005 0.94835 0.0
C139 C 0.70154 0.10539 0.9468 0.0
O140 O 0.83465 0.275 0.90624 0.0
O141 O 0.7638 0.20329 0.88641 0.0
O142 O 0.70732 0.09456 0.90968 0.0
O143 O 0.616 0.10218 0.90631 0.0
O144 O 0.68875 0.29189 0.90531 0.0
O145 O 0.5768 0.23251 0.91429 0.0
O146 O 0.49202 0.10021 0.93039 0.0
O147 O 0.54864 0.12549 0.95566 0.0
O148 O 0.64709 0.26841 0.94473 0.0
O149 O 0.71844 0.232 0.94122 0.0
O150 O 0.63647 0.08867 0.94338 0.0
O151 O 0.75176 0.15945 0.93785 0.0
H152 H 0.97147 0.34199 0.88847 0.0
H153 H 1.04526 0.39532 0.86198 0.0
H154 H 0.8598 0.29903 0.8286 0.0
H155 H 0.78733 0.25007 0.85484 0.0
H156 H 0.45007 1.01525 0.97884 0.0
H157 H 0.42875 0.89777 0.98545 0.0
H158 H 0.46918 0.87026 0.93012 0.0
H159 H 0.48932 0.98752 0.92356 0.0
C160 C 0.61298 0.79157 1.05527 0.0
Eu161 Eu 0.57102 0.69406 0.08003 0.0
C162 C 0.6371 0.84186 1.03969 0.0
C163 C 0.63936 0.81762 1.02231 0.0
C164 C 0.6589 0.86196 1.00734 0.0
C165 C 0.67672 0.9328 1.00896 0.0
C166 C 0.67617 0.95774 1.02647 0.0
C167 C 0.65675 0.91303 1.04157 0.0
C168 C 0.63902 0.61485 0.07359 0.0
C169 C 0.39286 0.59882 0.07558 0.0
C170 C 0.47563 0.47283 0.11732 0.0
Eu171 Eu 0.50363 0.58302 0.09916 0.0
C172 C 0.52961 0.45482 0.12269 0.0
C173 C 0.53208 0.43568 0.14038 0.0
C174 C 0.5899 0.43025 0.14638 0.0
C175 C 0.64681 0.44449 0.13481 0.0
C176 C 0.64474 0.46531 0.11718 0.0
C177 C 0.58659 0.47015 0.11119 0.0
C178 C 0.48542 0.6873 0.11595 0.0
C179 C 0.65649 0.6824 0.11373 0.0
O180 O 0.62394 0.8074 0.07237 0.0
O181 O 0.57858 0.72461 1.05218 0.0
O182 O 0.66706 0.68132 0.07577 0.0
O183 O 0.57089 0.58958 0.07452 0.0
O184 O 0.44937 0.66235 0.07488 0.0
O185 O 0.40482 0.55041 0.08237 0.0
O186 O 0.46283 0.47042 0.10013 0.0
O187 O 0.48315 0.52974 0.12481 0.0
O188 O 0.43634 0.624 0.11296 0.0
O189 O 0.5414 0.69519 0.10863 0.0
O190 O 0.6098 0.61736 0.11119 0.0
O191 O 0.64967 0.73058 0.10432 0.0
H192 H 0.62565 0.76362 1.02018 0.0
H193 H 0.65997 0.84015 0.99438 0.0
H194 H 0.68882 1.01146 1.02849 0.0
H195 H 0.65586 0.93393 1.05468 0.0
H196 H 0.48967 0.42568 0.14959 0.0
H197 H 0.58832 0.41203 0.15992 0.0
H198 H 0.68736 0.47643 0.10794 0.0
H199 H 0.58685 0.4876 0.09766 0.0
C200 C 0.88486 0.5894 0.22162 0.0
Eu201 Eu 0.94397 0.54699 0.24578 0.0
C202 C 0.85906 0.6154 0.20614 0.0
C203 C 0.80435 0.63216 0.20792 0.0
C204 C 0.77864 0.65236 0.19288 0.0
C205 C 0.8069 0.65671 0.17551 0.0
C206 C 0.863 0.64169 0.174 0.0
C207 C 0.88822 0.62129 0.18893 0.0
C208 C 0.09014 0.61758 0.23899 0.0
C209 C 0.85897 0.37057 0.24127 0.0
C210 C 1.08286 0.44085 0.27306 0.0
Eu211 Eu 0.99347 0.47945 0.26278 0.0
C212 C 0.15941 0.47611 0.26969 0.0
C213 C 0.20608 0.52469 0.28204 0.0
C214 C 0.27798 0.56039 0.27852 0.0
C215 C 0.30523 0.54832 0.26255 0.0
C216 C 0.25818 0.50159 0.24988 0.0
C217 C 0.18612 0.46558 0.25345 0.0
C218 C 0.87411 0.45754 0.28228 0.0
C219 C 1.03772 0.62613 0.28046 0.0
O220 O 0.88411 0.60355 0.23871 0.0
O221 O 0.91564 0.55211 0.21826 0.0
O222 O 1.04989 0.64422 0.24238 0.0
O223 O 1.0496 0.54999 0.23879 0.0
O224 O 0.85205 0.42797 0.24143 0.0
O225 O 0.92084 0.38118 0.24662 0.0
O226 O 1.04316 0.41504 0.25893 0.0
O227 O 1.05988 0.47279 0.28375 0.0
O228 O 0.89509 0.4121 0.27958 0.0
O229 O 0.91579 0.51316 0.27422 0.0
O230 O 1.05859 0.57995 0.27775 0.0
O231 O 0.98357 0.62102 0.27078 0.0
H232 H 0.78028 0.62818 0.22089 0.0
H233 H 0.7351 0.66258 0.19483 0.0
H234 H 0.88801 0.64565 0.16119 0.0
H235 H 0.93084 0.60968 0.18691 0.0
H236 H 0.18722 0.53448 0.29459 0.0
H237 H 0.31237 0.59436 0.28891 0.0
H238 H 0.27729 0.49104 0.23748 0.0
H239 H 0.15148 0.42917 0.24348 0.0
C240 C 0.28734 0.79209 0.57512 0.0
Eu241 Eu 0.23178 0.69333 0.55055 0.0
C242 C 0.31355 0.84322 0.5906 0.0
C243 C 0.36627 0.91329 0.5887 0.0
C244 C 0.39268 0.95828 0.60379 0.0
C245 C 0.36713 0.93475 0.6213 0.0
C246 C 0.31264 0.86523 0.62292 0.0
C247 C 0.28676 0.82056 0.60797 0.0
C248 C 0.08644 0.61513 0.55736 0.0
C249 C 0.31682 0.59831 0.55514 0.0
C250 C 0.10924 0.4707 0.51392 0.0
Eu251 Eu 0.18998 0.58187 0.53172 0.0
C252 C 1.03543 0.44959 0.51017 0.0
C253 C 1.00945 0.43175 0.49273 0.0
C254 C 0.94257 0.42162 0.48862 0.0
C255 C 0.90066 0.42951 0.50191 0.0
C256 C 0.92794 0.4498 0.51922 0.0
C257 C 0.99471 0.45975 0.52329 0.0
C258 C 0.30971 0.68445 0.51454 0.0
C259 C 0.13339 0.67962 0.5171 0.0
O260 O 0.29033 0.80703 0.55801 0.0
O261 O 0.25609 0.72529 0.57832 0.0
O262 O 0.12359 0.68148 0.55504 0.0
O263 O 0.12962 0.58949 0.55639 0.0
O264 O 0.32259 0.66192 0.55566 0.0
O265 O 0.25719 0.54963 0.54851 0.0
O266 O 0.12517 0.46867 0.53073 0.0
O267 O 0.15333 0.52858 0.50611 0.0
O268 O 0.29643 0.62118 0.51767 0.0
O269 O 0.2621 0.69341 0.5219 0.0
O270 O 0.11577 0.61472 0.52011 0.0
O271 O 0.18844 0.72842 0.52612 0.0
H272 H 0.3884 0.93294 0.57561 0.0
H273 H 0.43478 1.01095 0.60175 0.0
H274 H 0.28966 0.84464 0.63588 0.0
H275 H 0.24561 0.76746 0.6101 0.0
H276 H 1.04095 0.42594 0.48228 0.0
H277 H 0.92247 0.40422 0.47522 0.0
H278 H 0.89669 0.45574 0.5297 0.0
H279 H 1.01497 0.47615 0.53667 0.0
C280 C 0.559 0.26036 0.7413 0.0
Eu281 Eu 0.60258 0.20199 0.71707 0.0
C282 C 0.53637 0.29181 0.75633 0.0
C283 C 0.55382 0.28646 0.77426 0.0
C284 C 0.53215 0.31359 0.78861 0.0
C285 C 0.49201 0.34758 0.78576 0.0
C286 C 0.47473 0.35322 0.76775 0.0
C287 C 0.49639 0.32576 0.75333 0.0
C288 C 0.53495 0.05747 0.72422 0.0
C289 C 0.78167 0.28777 0.72074 0.0
C290 C 0.70564 0.0666 0.68608 0.0
Eu291 Eu 0.67181 0.15491 0.69937 0.0
C292 C 0.66003 0.99029 0.68633 0.0
C293 C 0.62569 0.9554 0.67062 0.0
C294 C 0.5751 0.8852 0.67112 0.0
C295 C 0.5577 0.84798 0.68739 0.0
C296 C 0.59185 0.88311 0.70313 0.0
C297 C 0.6424 0.95346 0.70263 0.0
C298 C 0.68892 0.2725 0.68056 0.0
C299 C 0.5206 0.10467 0.6833 0.0
O300 O 0.54468 0.26006 0.7242 0.0
O301 O 0.59742 0.23084 0.74472 0.0
O302 O 0.50655 0.09621 0.72119 0.0
O303 O 0.60305 0.09875 0.72385 0.0
O304 O 0.72295 0.29336 0.72122 0.0
O305 O 0.77192 0.22705 0.71501 0.0
O306 O 0.72882 0.09652 0.70165 0.0
O307 O 0.68313 0.10062 0.67613 0.0
O308 O 0.73723 0.25505 0.68328 0.0
O309 O 0.63342 0.22875 0.68844 0.0
O310 O 0.56784 0.08536 0.68635 0.0
O311 O 0.52596 0.15979 0.69239 0.0
H312 H 0.58469 0.26112 0.7773 0.0
H313 H 0.54862 0.30909 0.80199 0.0
H314 H 0.4435 0.37814 0.76472 0.0
H315 H 0.48145 0.33086 0.73981 0.0
H316 H 0.63754 0.9826 0.65792 0.0
H317 H 0.5519 0.85957 0.65856 0.0
H318 H 0.58038 0.85589 0.7158 0.0
H319 H 0.66702 0.97899 0.71509 0.0
C320 C 0.35557 0.53166 0.90823 0.0
Eu321 Eu 0.45274 0.57447 0.88299 0.0
C322 C 0.30474 0.50671 0.92387 0.0
C323 C 0.23414 0.49178 0.9223 0.0
C324 C 0.18873 0.47115 0.9374 0.0
C325 C 0.21205 0.46412 0.95461 0.0
C326 C 0.28247 0.47777 0.9559 0.0
C327 C 0.32771 0.49889 0.94094 0.0
C328 C 0.53406 0.50771 0.88825 0.0
C329 C 0.54699 0.75021 0.88877 0.0
C330 C 0.6728 0.67799 0.8446 0.0
Eu331 Eu 0.56337 0.64434 0.86441 0.0
C332 C 0.67416 0.64151 0.82812 0.0
C333 C 0.63139 0.63574 0.81332 0.0
C334 C 0.62922 0.59655 0.7983 0.0
C335 C 0.66878 0.56159 0.79795 0.0
C336 C 0.70909 0.56515 0.81308 0.0
C337 C 0.71199 0.60495 0.82795 0.0
C338 C 0.45664 0.66076 0.8478 0.0
C339 C 0.46197 0.49523 0.84726 0.0
O340 O 0.33907 0.52207 0.89116 0.0
O341 O 0.42328 0.56494 0.91112 0.0
O342 O 0.46728 0.4796 0.88552 0.0
O343 O 0.55849 0.57533 0.88833 0.0
O344 O 0.48243 0.69498 0.88773 0.0
O345 O 0.59705 0.73706 0.8835 0.0
O346 O 0.66132 0.6423 0.85932 0.0
O347 O 0.63672 0.71103 0.84397 0.0
O348 O 0.51981 0.70999 0.85109 0.0
O349 O 0.44986 0.60511 0.85467 0.0
O350 O 0.52608 0.5471 0.8478 0.0
O351 O 0.41519 0.49528 0.85894 0.0
H352 H 0.21425 0.49731 0.90947 0.0
H353 H 0.13568 0.46242 0.93557 0.0
H354 H 0.30325 0.4719 0.96855 0.0
H355 H 0.38129 0.50909 0.9428 0.0
H356 H 0.59982 0.6617 0.81325 0.0
H357 H 0.59854 0.59537 0.78675 0.0
H358 H 0.74192 0.54051 0.81306 0.0
H359 H 0.74414 0.60741 0.83931 0.0
C360 C 0.88365 0.32593 0.07536 0.0
Eu361 Eu 0.93866 0.42297 1.05044 0.0
C362 C 0.85288 0.27467 0.09071 0.0
C363 C 0.84714 0.29825 0.10793 0.0
C364 C 0.82162 0.25264 0.12268 0.0
C365 C 0.80059 0.18097 0.12101 0.0
C366 C 0.80584 0.15718 0.10367 0.0
C367 C 0.83145 0.20312 0.08883 0.0
C368 C 1.08384 0.50295 1.05695 0.0
C369 C 0.85437 0.51829 1.05541 0.0
C370 C 1.05524 0.64243 1.01226 0.0
Eu371 Eu 0.97897 0.53403 1.03149 0.0
C372 C 0.12013 0.65503 1.00293 0.0
C373 C 0.11772 0.61154 0.98868 0.0
C374 C 0.1795 0.61785 0.98134 0.0
C375 C 0.24513 0.66787 0.98799 0.0
C376 C 0.2472 0.71057 1.00243 0.0
C377 C 0.18547 0.70422 1.00978 0.0
C378 C 0.85924 0.42931 1.01474 0.0
C379 C 1.03557 0.43526 1.01661 0.0
O380 O 0.88379 0.31022 1.05837 0.0
O381 O 0.91169 0.39283 0.07831 0.0
O382 O 1.0473 0.43639 1.05488 0.0
O383 O 1.04004 0.52777 1.05604 0.0
O384 O 0.84746 0.4542 1.05515 0.0
O385 O 0.91493 0.56724 1.04935 0.0
O386 O 1.05824 0.64401 1.02975 0.0
O387 O 0.99756 0.59 1.00633 0.0
O388 O 0.8708 0.49193 1.01819 0.0
O389 O 0.90811 0.42179 1.02183 0.0
O390 O 1.05177 0.50022 1.01908 0.0
O391 O 0.98205 0.38689 1.02612 0.0
H392 H 0.86249 0.35263 0.1101 0.0
H393 H 0.81747 0.27409 0.13541 0.0
H394 H 0.79126 0.10303 0.10153 0.0
H395 H 0.83531 0.18265 0.0759 0.0
H396 H 1.06811 0.57189 0.98326 0.0
H397 H 0.17585 0.58476 0.97014 0.0
H398 H 0.29658 0.75151 1.0076 0.0
H399 H 0.18884 0.7377 1.02088 0.0
C400 C 0.61881 0.86067 0.2421 0.0
Eu401 Eu 0.57623 0.91826 0.21753 0.0
C402 C 0.64117 0.82948 0.25717 0.0
C403 C 0.6253 0.83677 0.27513 0.0
C404 C 0.64591 0.8088 0.28945 0.0
C405 C 0.68328 0.77196 0.2865 0.0
C406 C 0.69914 0.76461 0.26846 0.0
C407 C 0.6786 0.79291 0.25408 0.0
C408 C 0.64376 0.06374 0.22372 0.0
C409 C 0.3974 0.83541 0.22186 0.0
C410 C 0.47477 1.04607 0.18192 0.0
Eu411 Eu 0.50617 0.96279 0.19903 0.0
C412 C 0.5273 0.11521 0.17573 0.0
C413 C 0.52299 0.13614 0.15836 0.0
C414 C 0.57915 0.19568 0.15121 0.0
C415 C 0.64114 0.23512 0.16126 0.0
C416 C 0.64546 0.21347 0.17864 0.0
C417 C 0.58894 0.15415 0.1858 0.0
C418 C 0.48764 0.84175 0.18184 0.0
C419 C 0.65776 1.00884 0.18303 0.0
O420 O 0.63253 0.85933 0.22501 0.0
O421 O 0.58194 0.89201 0.2454 0.0
O422 O 0.67214 1.02455 0.22125 0.0
O423 O 0.57563 1.02243 0.22328 0.0
O424 O 0.45568 0.82903 0.22227 0.0
O425 O 0.40723 0.89552 0.21565 0.0
O426 O 0.46706 1.03769 0.19928 0.0
O427 O 0.47972 0.99556 0.17406 0.0
O428 O 0.43868 0.85799 0.18498 0.0
O429 O 0.54405 0.88749 0.18907 0.0
O430 O 0.60997 1.02793 0.18527 0.0
O431 O 0.65305 0.95615 0.19298 0.0
H432 H 0.59638 0.86416 0.27822 0.0
H433 H 0.63075 0.81484 0.30288 0.0
H434 H 0.72827 0.73749 0.26535 0.0
H435 H 0.69216 0.78614 0.24053 0.0
H436 H 0.47668 0.10582 0.15023 0.0
H437 H 0.57278 0.2119 0.13797 0.0
H438 H 0.69206 0.24281 0.18675 0.0
H439 H 0.59416 0.13745 0.19904 0.0
C440 C 0.81681 0.58613 0.40843 0.0
Eu441 Eu 0.71955 0.54223 0.38326 0.0
C442 C 0.86741 0.61124 0.42408 0.0
C443 C 0.93904 0.62993 0.42238 0.0
C444 C 0.98411 0.65033 0.43754 0.0
C445 C 0.95914 0.65298 0.45491 0.0
C446 C 0.88782 0.63608 0.45633 0.0
C447 C 0.84306 0.61545 0.44131 0.0
C448 C 0.63872 0.60915 0.38885 0.0
C449 C 0.62558 0.36639 0.38907 0.0
C450 C 0.50085 0.43742 0.34469 0.0
Eu451 Eu 0.61 0.47249 0.36471 0.0
C452 C 0.49986 0.47212 0.32791 0.0
C453 C 0.54016 0.47319 0.31296 0.0
C454 C 0.54309 0.51097 0.29765 0.0
C455 C 0.50676 0.54915 0.29713 0.0
C456 C 0.46884 0.55008 0.31235 0.0
C457 C 0.46513 0.5117 0.32751 0.0
C458 C 0.71745 0.45746 0.34785 0.0
C459 C 0.70978 0.62149 0.34768 0.0
O460 O 0.83333 0.59507 0.39137 0.0
O461 O 0.74913 0.55276 0.41134 0.0
O462 O 0.70537 0.6371 0.38599 0.0
O463 O 0.61393 0.54144 0.38876 0.0
O464 O 0.69007 0.42189 0.38832 0.0
O465 O 0.57582 0.37938 0.3835 0.0
O466 O 0.51256 0.47483 0.35917 0.0
O467 O 0.53644 0.40385 0.34449 0.0
O468 O 0.65474 0.40771 0.35125 0.0
O469 O 0.72358 0.51274 0.35486 0.0
O470 O 0.64597 0.56914 0.34812 0.0
O471 O 0.7566 0.62174 0.35936 0.0
H472 H 0.96002 0.62749 0.40939 0.0
H473 H 1.03814 0.66212 0.43565 0.0
H474 H 0.86594 0.63873 0.46916 0.0
H475 H 0.78869 0.60249 0.44328 0.0
H476 H 0.56924 0.44467 0.31302 0.0
H477 H 0.57183 0.50866 0.28603 0.0
H478 H 0.43842 0.57727 0.31222 0.0
H479 H 0.43485 0.5128 0.33894 0.0
C480 C 0.14166 0.73055 0.29373 0.0
C481 C 1.07228 0.67608 0.29568 0.0
H482 H 0.23739 0.80489 0.30643 0.0
C483 C 1.04626 0.65708 0.31325 0.0
H484 H 0.1645 0.74503 0.28047 0.0
C485 C 0.08894 0.68998 0.32837 0.0
C486 C 0.1597 0.74271 0.32648 0.0
H487 H 0.99431 0.61328 0.31536 0.0
H488 H 1.0674 0.67094 0.34153 0.0
C489 C 0.18421 0.7638 0.30878 0.0
C490 C 0.50007 0.16509 0.47545 0.0
C491 C 0.47332 0.13602 0.49245 0.0
H492 H 0.51623 0.14769 0.44792 0.0
C493 C 0.4327 0.06241 0.49326 0.0
H494 H 0.53306 0.22077 0.47395 0.0
C495 C 0.42233 1.01998 0.47794 0.0
C496 C 0.4519 1.04956 0.46124 0.0
H497 H 0.4102 1.03712 0.50586 0.0
H498 H 0.39513 0.96392 0.47948 0.0
C499 C 0.48998 0.12283 0.46029 0.0
C500 C 0.39578 0.47432 0.64401 0.0
C501 C 0.39456 0.4419 0.66042 0.0
H502 H 0.43228 0.49541 0.61681 0.0
C503 C 0.42433 0.39688 0.6604 0.0
H504 H 0.37546 0.51058 0.64322 0.0
C505 C 0.45665 0.38742 0.64486 0.0
C506 C 0.46029 0.42252 0.62878 0.0
H507 H 0.42449 0.3702 0.67255 0.0
H508 H 0.48282 0.3563 0.64584 0.0
C509 C 0.42828 0.46519 0.62864 0.0
C510 C 1.01543 0.43202 0.79559 0.0
C511 C 0.0868 0.44927 0.79421 0.0
H512 H 0.92222 0.39261 0.81132 0.0
C513 C 0.11613 0.43141 0.80878 0.0
H514 H 0.99062 0.44553 0.78487 0.0
C515 C 1.07549 0.39936 0.82437 0.0
C516 C 1.00432 0.38433 0.82591 0.0
H517 H 0.17112 0.44503 0.80851 0.0
H518 H 0.10034 0.38715 0.83529 0.0
C519 C 0.97549 0.40092 0.81099 0.0
C520 C 0.74963 0.09241 0.97696 0.0
C521 C 0.71165 0.06279 0.96107 0.0
H522 H 0.76906 0.07583 1.0044 0.0
C523 C 0.66585 0.99027 0.96094 0.0
H524 H 0.7835 0.14822 0.97787 0.0
C525 C 0.65624 0.94901 0.97615 0.0
C526 C 0.69196 0.97825 0.99235 0.0
H527 H 0.63392 0.96563 0.9492 0.0
H528 H 0.61768 0.8943 0.97534 0.0
C529 C 0.73993 1.05078 0.99236 0.0
C530 C 0.77593 0.64252 0.14223 0.0
C531 C 0.77669 0.67335 0.15893 0.0
H532 H 0.74081 0.62441 0.11491 0.0
C533 C 0.74619 0.71769 0.15948 0.0
H534 H 0.79677 0.60677 0.14096 0.0
C535 C 0.7137 0.72805 0.14416 0.0
C536 C 0.71095 0.69475 0.12775 0.0
H537 H 0.74575 0.74319 0.17188 0.0
H538 H 0.68681 0.7584 0.14552 0.0
C539 C 0.74388 0.65302 0.12706 0.0
C540 C 0.45978 0.09448 0.65328 0.0
C541 C 0.46715 0.06371 0.66911 0.0
H542 H 0.4231 0.07919 0.6259 0.0
C543 C 0.43777 0.99062 0.66925 0.0
H544 H 0.48359 0.15061 0.65236 0.0
C545 C 0.40433 0.94976 0.65409 0.0
C546 C 0.39891 0.98002 0.63792 0.0
H547 H 0.44414 0.96498 0.68094 0.0
H548 H 0.38591 0.8943 0.65488 0.0
C549 C 0.42625 1.05329 0.63791 0.0
C550 C 0.46577 0.44005 0.79938 0.0
C551 C 0.47082 0.37863 0.80141 0.0
H552 H 0.45647 0.52322 0.81217 0.0
C553 C 0.45935 0.3498 0.81886 0.0
H554 H 0.4752 0.46535 0.78647 0.0
C555 C 0.44785 0.38329 0.83374 0.0
C556 C 0.44618 0.44624 0.83171 0.0
H557 H 0.4614 0.30216 0.82123 0.0
H558 H 0.44491 0.36226 0.84702 0.0
C559 C 0.45416 0.47324 0.81422 0.0
C560 C 0.15137 0.46136 1.00342 0.0
C561 C 1.07747 0.42286 1.0024 0.0
H562 H 0.25024 0.50554 0.98985 0.0
C563 C 1.04787 0.3936 0.98564 0.0
H564 H 0.17625 0.4874 1.01583 0.0
C565 C 0.09086 0.40465 0.97034 0.0
C566 C 0.16507 0.44575 0.97122 0.0
H567 H 0.99131 0.36611 0.98405 0.0
H568 H 1.06548 0.38235 0.9577 0.0
C569 C 0.19417 0.47221 0.98827 0.0
C570 C 0.76087 0.11406 0.16993 0.0
C571 C 0.70856 1.04401 0.16797 0.0
H572 H 0.83222 0.21043 0.15732 0.0
C573 C 0.69016 1.01803 0.15035 0.0
H574 H 0.77442 0.13707 0.18319 0.0
C575 C 0.72157 0.06099 0.13526 0.0
C576 C 0.77227 0.13214 0.13716 0.0
H577 H 0.64751 0.96568 0.14819 0.0
H578 H 0.70271 1.03903 0.12211 0.0
C579 C 0.79274 0.15692 0.15489 0.0
C580 C 0.71456 0.64205 0.31466 0.0
C581 C 0.72544 0.67015 0.33213 0.0
H582 H 0.69224 0.64998 0.28706 0.0
C583 C 0.72752 0.73491 0.33426 0.0
H584 H 0.70944 0.59087 0.31255 0.0
C585 C 0.71694 0.76923 0.31949 0.0
C586 C 0.70288 0.73953 0.30206 0.0
H587 H 0.7328 0.75698 0.34755 0.0
H588 H 0.71779 0.81831 0.32191 0.0
C589 C 0.70392 0.67605 0.29993 0.0
C590 C 1.01734 0.64724 0.50329 0.0
C591 C 0.0908 0.69092 0.50296 0.0
H592 H 0.92005 0.59959 0.489 0.0
C593 C 0.12078 0.72616 0.48683 0.0
H594 H 0.99239 0.61721 0.51521 0.0
C595 C 1.07858 0.71574 0.4714 0.0
C596 C 1.0051 0.66956 0.47159 0.0
H597 H 0.17725 0.75816 0.48576 0.0
H598 H 0.104 0.7427 0.45919 0.0
C599 C 0.97551 0.63677 0.48803 0.0
C600 C 0.53609 0.6436 0.39493 0.0
C601 C 0.60786 0.65875 0.39462 0.0
H602 H 0.46013 0.68109 0.39892 0.0
C603 C 0.65632 0.72983 0.3986 0.0
H604 H 0.49549 0.59119 0.3918 0.0
C605 C 0.63615 0.78153 0.40261 0.0
C606 C 0.56533 0.7677 0.40286 0.0
H607 H 0.71212 0.74679 0.39858 0.0
H608 H 0.67763 0.83383 0.40551 0.0
C609 C 0.51555 0.69645 0.39892 0.0
C610 C 0.8821 0.49066 0.56986 0.0
C611 C 0.85382 0.53766 0.56987 0.0
H612 H 0.97343 0.47447 0.56677 0.0
C613 C 0.90394 0.60737 0.56579 0.0
H614 H 0.84754 0.43646 0.57307 0.0
C615 C 0.97598 0.62894 0.56189 0.0
C616 C 1.0055 0.58332 0.562 0.0
H617 H 0.88738 0.64667 0.56557 0.0
H618 H 1.00938 0.68348 0.55878 0.0
C619 C 0.95578 0.51286 0.56621 0.0
C620 C 0.50513 0.92661 0.73417 0.0
C621 C 0.48557 0.97723 0.72865 0.0
H622 H 0.47255 0.81891 0.74194 0.0
C623 C 0.41137 0.94955 0.72708 0.0
H624 H 0.5603 0.94293 0.73598 0.0
C625 C 0.3608 0.87864 0.73081 0.0
C626 C 0.37916 0.82757 0.73621 0.0
H627 H 0.39101 0.98361 0.72292 0.0
H628 H 0.30572 0.86376 0.72937 0.0
C629 C 0.45363 0.85402 0.73768 0.0
C630 C 0.51756 0.38834 0.89864 0.0
C631 C 0.5655 0.45851 0.89385 0.0
H632 H 0.49677 0.2852 0.90604 0.0
C633 C 0.63699 0.47273 0.89304 0.0
H634 H 0.46199 0.37207 0.89948 0.0
C635 C 0.65774 0.41989 0.89678 0.0
C636 C 0.60845 0.34953 0.90158 0.0
H637 H 0.67714 0.52436 0.88917 0.0
H638 H 0.71292 0.4346 0.89594 0.0
C639 C 0.53794 0.33671 0.90242 0.0
C640 C 0.21771 0.6062 1.06136 0.0
C641 C 0.16373 0.5352 1.06252 0.0
H642 H 0.32929 0.68265 0.06412 0.0
C643 C 0.18864 0.48867 0.06779 0.0
H644 H 0.20377 0.64508 1.05711 0.0
C645 C 0.26053 0.51001 0.07167 0.0
C646 C 0.31499 0.58008 0.07052 0.0
H647 H 0.15171 0.43357 0.06889 0.0
H648 H 0.27338 0.47002 0.07561 0.0
C649 C 0.29114 0.62794 0.06527 0.0
C650 C 0.81732 0.23993 0.23395 0.0
C651 C 0.79949 0.29372 0.23635 0.0
H652 H 0.78693 0.13276 0.22839 0.0
C653 C 0.72548 0.2698 0.23475 0.0
H654 H 0.87196 0.25269 0.23495 0.0
C655 C 0.67388 0.19723 0.23113 0.0
C656 C 0.69298 0.14381 0.22863 0.0
H657 H 0.70685 0.30713 0.23652 0.0
H658 H 0.61898 0.18343 0.23019 0.0
C659 C 0.76682 0.16893 0.23015 0.0
C660 C 0.44743 0.62798 0.5652 0.0
C661 C 0.37645 0.57976 0.56024 0.0
H662 H 0.55189 0.64561 0.5732 0.0
C663 C 0.36213 0.50951 0.55947 0.0
H664 H 0.46299 0.68285 0.56604 0.0
C665 C 0.4132 0.48834 0.56346 0.0
C666 C 0.48394 0.53522 0.56846 0.0
H667 H 0.30993 0.46926 0.55576 0.0
H668 H 0.39602 0.43309 0.56265 0.0
C669 C 0.49965 0.60641 0.5692 0.0
C670 C 0.91623 0.3335 0.72469 0.0
C671 C 0.85926 0.34804 0.72505 0.0
H672 H 1.02663 0.36738 0.72763 0.0
C673 C 0.88061 0.41978 0.72884 0.0
H674 H 0.90562 0.28081 0.72189 0.0
C675 C 0.95366 0.4722 0.73206 0.0
C676 C 1.01021 0.45635 0.73176 0.0
H677 H 0.84078 0.4359 0.72932 0.0
H678 H 0.96544 0.52499 0.73508 0.0
C679 C 0.98781 0.38487 0.72798 0.0
C680 C 0.53981 0.92903 0.89608 0.0
C681 C 0.6095 0.97796 0.90163 0.0
H682 H 0.46448 0.8221 0.88826 0.0
C683 C 0.65485 0.9481 0.90309 0.0
H684 H 0.50165 0.94682 0.89439 0.0
C685 C 0.63389 0.87668 0.89924 0.0
C686 C 0.56488 0.82733 0.89389 0.0
H687 H 0.70884 0.98078 0.90724 0.0
H688 H 0.6731 0.85996 0.90054 0.0
C689 C 0.51808 0.85594 0.89252 0.0
C690 C 0.66948 0.51144 0.06589 0.0
C691 C 0.68839 0.58284 0.06872 0.0
H692 H 0.70327 0.43429 1.06002 0.0
C693 C 0.76204 0.62929 0.06741 0.0
H694 H 0.6146 0.47234 0.0666 0.0
C695 C 0.81281 0.60761 1.06346 0.0
C696 C 0.79513 0.53709 1.0607 0.0
H697 H 0.78176 0.68457 0.06944 0.0
H698 H 0.86739 0.64755 1.0626 0.0
C699 C 0.72139 0.48924 1.06212 0.0
C700 C 0.2636 0.79075 0.22706 0.0
C701 C 0.3202 0.77575 0.22656 0.0
H702 H 0.15364 0.7571 0.23094 0.0
C703 C 0.29896 0.70379 0.22981 0.0
H704 H 0.27431 0.84369 0.2247 0.0
C705 C 0.22624 0.65141 0.23326 0.0
C706 C 0.17002 0.66763 0.23382 0.0
H707 H 0.33862 0.68741 0.2296 0.0
H708 H 0.21447 0.59832 0.23574 0.0
C709 C 0.19231 0.73942 0.23064 0.0
C710 C 0.65672 0.26464 0.39759 0.0
C711 C 0.60739 0.28896 0.39401 0.0
H712 H 0.67597 0.17775 0.40413 0.0
C713 C 0.53633 0.23527 0.39443 0.0
H714 H 0.71228 0.30199 0.39747 0.0
C715 C 0.51559 0.16389 0.39815 0.0
C716 C 0.56361 0.13845 0.40168 0.0
H717 H 0.49509 0.24833 0.39183 0.0
H718 H 0.45969 0.12772 0.39827 0.0
C719 C 0.63559 0.1918 0.40132 0.0
C720 C 0.33596 0.77422 0.48968 0.0
C721 C 0.34992 0.72424 0.49792 0.0
H722 H 0.35664 0.8454 0.46776 0.0
C723 C 0.39967 0.70997 0.48938 0.0
H724 H 0.29804 0.78689 0.49561 0.0
C725 C 0.43451 0.74475 0.47342 0.0
C726 C 0.42 0.79424 0.4651 0.0
H727 H 0.41198 0.67179 0.49508 0.0
H728 H 0.47295 0.73267 0.46754 0.0
C729 C 0.36963 0.80785 0.47354 0.0
C730 C 0.74965 0.39689 0.63965 0.0
C731 C 0.68569 0.38609 0.63197 0.0
H732 H 0.80125 0.37019 0.66052 0.0
C733 C 0.62319 0.3381 0.64069 0.0
H734 H 0.79908 0.43343 0.63352 0.0
C735 C 0.62452 0.30327 0.65653 0.0
C736 C 0.68836 0.31344 0.66413 0.0
H737 H 0.57278 0.32799 0.6354 0.0
H738 H 0.57503 0.26751 0.66275 0.0
C739 C 0.75093 0.36072 0.65528 0.0
C740 C 0.36652 0.59984 0.82281 0.0
C741 C 0.41476 0.66206 0.83153 0.0
H742 H 0.29483 0.55134 0.80083 0.0
C743 C 0.42502 0.72519 0.82384 0.0
H744 H 0.35706 0.55001 0.82802 0.0
C745 C 0.38813 0.72594 0.80818 0.0
C746 C 0.34055 0.66364 0.79935 0.0
H747 H 0.46176 0.77437 0.82995 0.0
H748 H 0.39742 0.77561 0.80289 0.0
C749 C 0.33081 0.60066 0.80701 0.0
C750 C 0.73513 0.36935 0.97349 0.0
C751 C 0.74962 0.31979 0.96509 0.0
H752 H 0.75738 0.44218 0.99529 0.0
C753 C 0.79952 0.30576 0.97357 0.0
H754 H 0.697 0.38171 0.9676 0.0
C755 C 0.83295 0.33926 0.98979 0.0
C756 C 0.81909 0.3894 0.99809 0.0
H757 H 0.81235 0.268 0.96776 0.0
H758 H 0.87055 0.32633 0.99575 0.0
C759 C 0.76962 0.40389 0.98954 0.0
C760 C 0.54943 0.81174 0.15684 0.0
C761 C 0.48649 0.80026 0.16529 0.0
H762 H 0.59862 0.78847 0.13474 0.0
C763 C 0.42286 0.75183 0.157 0.0
H764 H 0.59967 0.84846 0.16259 0.0
C765 C 0.42228 0.71588 0.14107 0.0
C766 C 0.48531 0.72814 0.13252 0.0
H767 H 0.37316 0.74143 0.16289 0.0
H768 H 0.37217 0.67847 0.13539 0.0
C769 C 0.54883 0.77721 0.14071 0.0
C770 C 0.75115 0.39438 0.32384 0.0
C771 C 0.75879 0.45697 0.33135 0.0
H772 H 0.78098 0.34503 0.30298 0.0
C773 C 0.80386 0.51927 0.32223 0.0
H774 H 0.71686 0.34515 0.33025 0.0
C775 C 0.83915 0.519 0.30626 0.0
C776 C 0.83241 0.4566 0.29887 0.0
H777 H 0.81117 0.56869 0.32729 0.0
H778 H 0.87273 0.56832 0.29981 0.0
C779 C 0.78785 0.39427 0.30806 0.0
C780 C 0.77879 0.3452 0.50967 0.0
C781 C 0.8246 0.40024 0.4986 0.0
H782 H 0.69739 0.24005 0.51005 0.0
C783 C 0.80148 0.40578 0.48143 0.0
H784 H 0.7934 0.34093 0.5233 0.0
C785 C 0.74512 0.34741 0.47376 0.0
C786 C 0.71384 0.28423 0.48328 0.0
H787 H 0.83411 0.44973 0.47294 0.0
H788 H 0.73524 0.34827 0.45956 0.0
C789 C 0.72317 0.28664 0.50196 0.0
C790 C 0.54388 0.73222 0.69519 0.0
C791 C 0.51573 0.77085 0.68695 0.0
H792 H 0.57033 0.65159 0.69139 0.0
C793 C 0.46406 0.73806 0.67366 0.0
H794 H 0.58138 0.75402 0.70606 0.0
C795 C 0.45785 0.67854 0.66515 0.0
C796 C 0.50414 0.65361 0.66994 0.0
H797 H 0.43806 0.76467 0.66777 0.0
H798 H 0.42829 0.66164 0.65275 0.0
C799 C 0.5372 0.67258 0.68674 0.0
C800 C 0.71401 0.58593 0.7672 0.0
C801 C 0.68313 0.53655 0.78089 0.0
H802 H 0.80231 0.63562 0.74995 0.0
C803 C 0.69451 0.47873 0.78108 0.0
H804 H 0.70421 0.62978 0.76623 0.0
C805 C 0.75077 0.48137 0.77141 0.0
C806 C 0.79571 0.54247 0.762 0.0
H807 H 0.66922 0.43844 0.79108 0.0
H808 H 0.76622 0.44204 0.77397 0.0
C809 C 0.77098 0.5893 0.7578 0.0
C810 C 0.36486 0.75318 0.95105 0.0
C811 C 0.42136 0.80028 0.96167 0.0
H812 H 0.26074 0.66856 0.95152 0.0
C813 C 0.43134 0.77846 0.97857 0.0
H814 H 0.35715 0.76698 0.93764 0.0
C815 C 0.3756 0.72079 0.98659 0.0
C816 C 0.31037 0.68696 0.97773 0.0
H817 H 0.47654 0.8123 0.98668 0.0
H818 H 0.37949 0.71143 1.00068 0.0
C819 C 0.30897 0.6961 0.95913 0.0
C820 C 0.7036 0.31556 0.13617 0.0
C821 C 0.69361 0.30477 0.15472 0.0
H822 H 0.69837 0.37506 0.11441 0.0
C823 C 0.71029 0.36264 0.16584 0.0
H824 H 0.69532 0.27296 0.12732 0.0
C825 C 0.71419 0.42261 0.15837 0.0
C826 C 0.69856 0.42223 0.14009 0.0
H827 H 0.70687 0.35749 0.18028 0.0
H828 H 0.71403 0.46167 0.16729 0.0
C829 C 0.70579 0.37476 0.12875 0.0
C830 C 0.45848 0.52258 0.26668 0.0
C831 C 0.49288 0.57339 0.27994 0.0
H832 H 0.3682 0.47463 0.24998 0.0
C833 C 0.48551 0.63361 0.27979 0.0
H834 H 0.46509 0.47671 0.26597 0.0
C835 C 0.42973 0.63291 0.27037 0.0
C836 C 0.38162 0.57164 0.26143 0.0
H837 H 0.51365 0.67493 0.28943 0.0
H838 H 0.41732 0.67452 0.27277 0.0
C839 C 0.40223 0.52138 0.25745 0.0
loop_
_geom_bond_atom_site_label_1
_geom_bond_atom_site_label_2
_geom_bond_distance
_geom_bond_site_symmetry_2
_ccdc_geom_bond_type
C0 Eu1 2.835 . S
C0 C2 1.500 . S
C0 O20 1.257 . S
C0 O21 1.260 . S
Eu1 C0 2.835 . S
Eu1 O20 2.473 . S
Eu1 O21 2.480 . S
Eu1 O22 2.430 1_565 S
Eu1 O23 2.670 1_565 S
Eu1 O24 2.394 . S
Eu1 O29 2.355 . S
Eu1 O31 2.374 1_565 S
C2 C0 1.500 . S
C2 C3 1.377 . S
C2 C7 1.377 . S
C3 C2 1.377 . S
C3 C4 1.395 . S
C3 H32 0.931 . S
C4 C3 1.395 . S
C4 C5 1.383 . S
C4 H33 0.931 . S
C5 C4 1.383 . S
C5 C6 1.394 . S
C6 C5 1.394 . S
C6 C7 1.378 . S
C6 H34 0.931 . S
C7 C2 1.377 . S
C7 C6 1.378 . S
C7 H35 0.931 . S
C8 O22 1.259 . S
C8 O23 1.270 . S
C9 O24 1.251 . S
C9 O25 1.251 . S
C10 Eu11 2.835 . S
C10 C12 1.500 . S
C10 O26 1.257 . S
C10 O27 1.260 . S
Eu11 C10 2.835 . S
Eu11 O23 2.355 . S
Eu11 O25 2.374 1_545 S
Eu11 O26 2.473 . S
Eu11 O27 2.480 . S
Eu11 O28 2.430 1_545 S
Eu11 O29 2.670 1_545 S
Eu11 O30 2.394 . S
C12 C10 1.500 . S
C12 C13 1.377 . S
C12 C17 1.377 . S
C13 C12 1.377 . S
C13 C14 1.395 . S
C13 H36 0.931 . S
C14 C13 1.395 . S
C14 C15 1.383 . S
C14 H37 0.931 . S
C15 C14 1.383 . S
C15 C16 1.394 . S
C16 C15 1.394 . S
C16 C17 1.378 . S
C16 H38 0.931 . S
C17 C12 1.377 . S
C17 C16 1.378 . S
C17 H39 0.931 . S
C18 O28 1.259 . S
C18 O29 1.270 . S
C19 O30 1.251 . S
C19 O31 1.251 . S
O20 C0 1.257 . S
O20 Eu1 2.473 . S
O21 C0 1.260 . S
O21 Eu1 2.480 . S
O22 Eu1 2.430 1_545 S
O22 C8 1.259 . S
O23 Eu1 2.670 1_545 S
O23 C8 1.270 . S
O23 Eu11 2.355 . S
O24 Eu1 2.394 . S
O24 C9 1.251 . S
O25 C9 1.251 . S
O25 Eu11 2.374 1_565 S
O26 C10 1.257 . S
O26 Eu11 2.473 . S
O27 C10 1.260 . S
O27 Eu11 2.480 . S
O28 Eu11 2.430 1_565 S
O28 C18 1.259 . S
O29 Eu1 2.355 . S
O29 Eu11 2.670 1_565 S
O29 C18 1.270 . S
O30 Eu11 2.394 . S
O30 C19 1.251 . S
O31 Eu1 2.374 1_545 S
O31 C19 1.251 . S
H32 C3 0.931 . S
H33 C4 0.931 . S
H34 C6 0.931 . S
H35 C7 0.931 . S
H36 C13 0.931 . S
H37 C14 0.931 . S
H38 C16 0.931 . S
H39 C17 0.931 . S
C40 Eu41 2.835 . S
C40 C42 1.500 . S
C40 O60 1.257 . S
C40 O61 1.260 . S
Eu41 C40 2.835 . S
Eu41 O60 2.473 . S
Eu41 O61 2.480 . S
Eu41 O62 2.430 . S
Eu41 O63 2.670 . S
Eu41 O64 2.394 . S
Eu41 O69 2.355 . S
Eu41 O71 2.374 . S
C42 C40 1.500 . S
C42 C43 1.377 . S
C42 C47 1.377 . S
C43 C42 1.377 . S
C43 C44 1.395 . S
C43 H72 0.931 . S
C44 C43 1.395 . S
C44 C45 1.383 . S
C44 H73 0.931 . S
C45 C44 1.383 . S
C45 C46 1.394 . S
C46 C45 1.394 . S
C46 C47 1.378 . S
C46 H74 0.931 . S
C47 C42 1.377 . S
C47 C46 1.378 . S
C47 H75 0.931 . S
C48 O62 1.259 . S
C48 O63 1.270 . S
C49 O64 1.251 . S
C49 O65 1.251 . S
C50 Eu51 2.835 . S
C50 C52 1.500 . S
C50 O66 1.257 . S
C50 O67 1.260 . S
Eu51 C50 2.835 . S
Eu51 O63 2.355 . S
Eu51 O65 2.374 . S
Eu51 O66 2.473 . S
Eu51 O67 2.480 . S
Eu51 O68 2.430 . S
Eu51 O69 2.670 . S
Eu51 O70 2.394 . S
C52 C50 1.500 . S
C52 C53 1.377 . S
C52 C57 1.377 . S
C53 C52 1.377 . S
C53 C54 1.395 . S
C53 H76 0.931 . S
C54 C53 1.395 . S
C54 C55 1.383 . S
C54 H77 0.931 . S
C55 C54 1.383 . S
C55 C56 1.394 . S
C56 C55 1.394 . S
C56 C57 1.378 . S
C56 H78 0.931 . S
C57 C52 1.377 . S
C57 C56 1.378 . S
C57 H79 0.931 . S
C58 O68 1.259 . S
C58 O69 1.270 . S
C59 O70 1.251 . S
C59 O71 1.251 . S
O60 C40 1.257 . S
O60 Eu41 2.473 . S
O61 C40 1.260 . S
O61 Eu41 2.480 . S
O62 Eu41 2.430 . S
O62 C48 1.259 . S
O63 Eu41 2.670 . S
O63 C48 1.270 . S
O63 Eu51 2.355 . S
O64 Eu41 2.394 . S
O64 C49 1.251 . S
O65 C49 1.251 . S
O65 Eu51 2.374 . S
O66 C50 1.257 . S
O66 Eu51 2.473 . S
O67 C50 1.260 . S
O67 Eu51 2.480 . S
O68 Eu51 2.430 . S
O68 C58 1.259 . S
O69 Eu41 2.355 . S
O69 Eu51 2.670 . S
O69 C58 1.270 . S
O70 Eu51 2.394 . S
O70 C59 1.251 . S
O71 Eu41 2.374 . S
O71 C59 1.251 . S
H72 C43 0.931 . S
H73 C44 0.931 . S
H74 C46 0.931 . S
H75 C47 0.931 . S
H76 C53 0.931 . S
H77 C54 0.931 . S
H78 C56 0.931 . S
H79 C57 0.931 . S
C80 Eu81 2.835 . S
C80 C82 1.500 . S
C80 O100 1.257 . S
C80 O101 1.260 . S
Eu81 C80 2.835 . S
Eu81 O100 2.473 . S
Eu81 O101 2.480 . S
Eu81 O102 2.430 1_455 S
Eu81 O103 2.670 1_455 S
Eu81 O104 2.394 . S
Eu81 O109 2.355 . S
Eu81 O111 2.374 1_455 S
C82 C80 1.500 . S
C82 C83 1.377 . S
C82 C87 1.377 . S
C83 C82 1.377 . S
C83 C84 1.395 . S
C83 H112 0.931 . S
C84 C83 1.395 . S
C84 C85 1.383 . S
C84 H113 0.931 . S
C85 C84 1.383 . S
C85 C86 1.394 . S
C86 C85 1.394 . S
C86 C87 1.378 . S
C86 H114 0.931 . S
C87 C82 1.377 . S
C87 C86 1.378 . S
C87 H115 0.931 . S
C88 O102 1.259 . S
C88 O103 1.270 . S
C89 O104 1.251 . S
C89 O105 1.251 . S
C90 Eu91 2.835 . S
C90 C92 1.500 . S
C90 O106 1.257 . S
C90 O107 1.260 . S
Eu91 C90 2.835 . S
Eu91 O103 2.355 . S
Eu91 O105 2.374 1_655 S
Eu91 O106 2.473 . S
Eu91 O107 2.480 . S
Eu91 O108 2.430 1_655 S
Eu91 O109 2.670 1_655 S
Eu91 O110 2.394 . S
C92 C90 1.500 . S
C92 C93 1.377 . S
C92 C97 1.377 . S
C93 C92 1.377 . S
C93 C94 1.395 . S
C93 H116 0.931 . S
C94 C93 1.395 . S
C94 C95 1.383 . S
C94 H117 0.931 . S
C95 C94 1.383 . S
C95 C96 1.394 . S
C96 C95 1.394 . S
C96 C97 1.378 . S
C96 H118 0.931 . S
C97 C92 1.377 . S
C97 C96 1.378 . S
C97 H119 0.931 . S
C98 O108 1.259 . S
C98 O109 1.270 . S
C99 O110 1.251 . S
C99 O111 1.251 . S
O100 C80 1.257 . S
O100 Eu81 2.473 . S
O101 C80 1.260 . S
O101 Eu81 2.480 . S
O102 Eu81 2.430 1_655 S
O102 C88 1.259 . S
O103 Eu81 2.670 1_655 S
O103 C88 1.270 . S
O103 Eu91 2.355 . S
O104 Eu81 2.394 . S
O104 C89 1.251 . S
O105 C89 1.251 . S
O105 Eu91 2.374 1_455 S
O106 C90 1.257 . S
O106 Eu91 2.473 . S
O107 C90 1.260 . S
O107 Eu91 2.480 . S
O108 Eu91 2.430 1_455 S
O108 C98 1.259 . S
O109 Eu81 2.355 . S
O109 Eu91 2.670 1_455 S
O109 C98 1.270 . S
O110 Eu91 2.394 . S
O110 C99 1.251 . S
O111 Eu81 2.374 1_655 S
O111 C99 1.251 . S
H112 C83 0.931 . S
H113 C84 0.931 . S
H114 C86 0.931 . S
H115 C87 0.931 . S
H116 C93 0.931 . S
H117 C94 0.931 . S
H118 C96 0.931 . S
H119 C97 0.931 . S
C120 Eu121 2.835 . S
C120 C122 1.500 . S
C120 O140 1.257 . S
C120 O141 1.260 . S
Eu121 C120 2.835 . S
Eu121 O140 2.473 . S
Eu121 O141 2.480 . S
Eu121 O142 2.430 1_545 S
Eu121 O143 2.670 1_545 S
Eu121 O144 2.394 . S
Eu121 O149 2.355 . S
Eu121 O151 2.374 1_545 S
C122 C120 1.500 . S
C122 C123 1.377 . S
C122 C127 1.377 . S
C123 C122 1.377 . S
C123 C124 1.395 . S
C123 H152 0.931 . S
C124 C123 1.395 . S
C124 C125 1.383 . S
C124 H153 0.931 . S
C125 C124 1.383 . S
C125 C126 1.394 . S
C126 C125 1.394 . S
C126 C127 1.378 . S
C126 H154 0.931 . S
C127 C122 1.377 . S
C127 C126 1.378 . S
C127 H155 0.931 . S
C128 O142 1.259 . S
C128 O143 1.270 . S
C129 O144 1.251 . S
C129 O145 1.251 . S
C130 Eu131 2.835 . S
C130 C132 1.500 . S
C130 O146 1.257 . S
C130 O147 1.260 . S
Eu131 C130 2.835 . S
Eu131 O143 2.355 . S
Eu131 O145 2.374 1_565 S
Eu131 O146 2.473 . S
Eu131 O147 2.480 . S
Eu131 O148 2.430 1_565 S
Eu131 O149 2.670 1_565 S
Eu131 O150 2.394 . S
C132 C130 1.500 . S
C132 C133 1.377 . S
C132 C137 1.377 . S
C133 C132 1.377 . S
C133 C134 1.395 . S
C133 H156 0.931 . S
C134 C133 1.395 . S
C134 C135 1.383 . S
C134 H157 0.931 . S
C135 C134 1.383 . S
C135 C136 1.394 . S
C136 C135 1.394 . S
C136 C137 1.378 . S
C136 H158 0.931 . S
C137 C132 1.377 . S
C137 C136 1.378 . S
C137 H159 0.931 . S
C138 O148 1.259 . S
C138 O149 1.270 . S
C139 O150 1.251 . S
C139 O151 1.251 . S
O140 C120 1.257 . S
O140 Eu121 2.473 . S
O141 C120 1.260 . S
O141 Eu121 2.480 . S
O142 Eu121 2.430 1_565 S
O142 C128 1.259 . S
O143 Eu121 2.670 1_565 S
O143 C128 1.270 . S
O143 Eu131 2.355 . S
O144 Eu121 2.394 . S
O144 C129 1.251 . S
O145 C129 1.251 . S
O145 Eu131 2.374 1_545 S
O146 C130 1.257 . S
O146 Eu131 2.473 . S
O147 C130 1.260 . S
O147 Eu131 2.480 . S
O148 Eu131 2.430 1_545 S
O148 C138 1.259 . S
O149 Eu121 2.355 . S
O149 Eu131 2.670 1_545 S
O149 C138 1.270 . S
O150 Eu131 2.394 . S
O150 C139 1.251 . S
O151 Eu121 2.374 1_565 S
O151 C139 1.251 . S
H152 C123 0.931 . S
H153 C124 0.931 . S
H154 C126 0.931 . S
H155 C127 0.931 . S
H156 C133 0.931 . S
H157 C134 0.931 . S
H158 C136 0.931 . S
H159 C137 0.931 . S
C160 Eu161 2.835 1_556 S
C160 C162 1.500 . S
C160 O180 1.257 1_556 S
C160 O181 1.260 . S
Eu161 C160 2.835 1_554 S
Eu161 O180 2.473 . S
Eu161 O181 2.480 1_554 S
Eu161 O182 2.430 . S
Eu161 O183 2.670 . S
Eu161 O184 2.394 . S
Eu161 O189 2.355 . S
Eu161 O191 2.374 . S
C162 C160 1.500 . S
C162 C163 1.377 . S
C162 C167 1.377 . S
C163 C162 1.377 . S
C163 C164 1.395 . S
C163 H192 0.931 . S
C164 C163 1.395 . S
C164 C165 1.383 . S
C164 H193 0.931 . S
C165 C164 1.383 . S
C165 C166 1.394 . S
C166 C165 1.394 . S
C166 C167 1.378 . S
C166 H194 0.931 . S
C167 C162 1.377 . S
C167 C166 1.378 . S
C167 H195 0.931 . S
C168 O182 1.259 . S
C168 O183 1.270 . S
C169 O184 1.251 . S
C169 O185 1.251 . S
C170 Eu171 2.835 . S
C170 C172 1.500 . S
C170 O186 1.257 . S
C170 O187 1.260 . S
Eu171 C170 2.835 . S
Eu171 O183 2.355 . S
Eu171 O185 2.374 . S
Eu171 O186 2.473 . S
Eu171 O187 2.480 . S
Eu171 O188 2.430 . S
Eu171 O189 2.670 . S
Eu171 O190 2.394 . S
C172 C170 1.500 . S
C172 C173 1.377 . S
C172 C177 1.377 . S
C173 C172 1.377 . S
C173 C174 1.395 . S
C173 H196 0.931 . S
C174 C173 1.395 . S
C174 C175 1.383 . S
C174 H197 0.931 . S
C175 C174 1.383 . S
C175 C176 1.394 . S
C176 C175 1.394 . S
C176 C177 1.378 . S
C176 H198 0.931 . S
C177 C172 1.377 . S
C177 C176 1.378 . S
C177 H199 0.931 . S
C178 O188 1.259 . S
C178 O189 1.270 . S
C179 O190 1.251 . S
C179 O191 1.251 . S
O180 C160 1.257 1_554 S
O180 Eu161 2.473 . S
O181 C160 1.260 . S
O181 Eu161 2.480 1_556 S
O182 Eu161 2.430 . S
O182 C168 1.259 . S
O183 Eu161 2.670 . S
O183 C168 1.270 . S
O183 Eu171 2.355 . S
O184 Eu161 2.394 . S
O184 C169 1.251 . S
O185 C169 1.251 . S
O185 Eu171 2.374 . S
O186 C170 1.257 . S
O186 Eu171 2.473 . S
O187 C170 1.260 . S
O187 Eu171 2.480 . S
O188 Eu171 2.430 . S
O188 C178 1.259 . S
O189 Eu161 2.355 . S
O189 Eu171 2.670 . S
O189 C178 1.270 . S
O190 Eu171 2.394 . S
O190 C179 1.251 . S
O191 Eu161 2.374 . S
O191 C179 1.251 . S
H192 C163 0.931 . S
H193 C164 0.931 . S
H194 C166 0.931 . S
H195 C167 0.931 . S
H196 C173 0.931 . S
H197 C174 0.931 . S
H198 C176 0.931 . S
H199 C177 0.931 . S
C200 Eu201 2.835 . S
C200 C202 1.500 . S
C200 O220 1.257 . S
C200 O221 1.260 . S
Eu201 C200 2.835 . S
Eu201 O220 2.473 . S
Eu201 O221 2.480 . S
Eu201 O222 2.430 1_655 S
Eu201 O223 2.670 1_655 S
Eu201 O224 2.394 . S
Eu201 O229 2.355 . S
Eu201 O231 2.374 1_655 S
C202 C200 1.500 . S
C202 C203 1.377 . S
C202 C207 1.377 . S
C203 C202 1.377 . S
C203 C204 1.395 . S
C203 H232 0.931 . S
C204 C203 1.395 . S
C204 C205 1.383 . S
C204 H233 0.931 . S
C205 C204 1.383 . S
C205 C206 1.394 . S
C206 C205 1.394 . S
C206 C207 1.378 . S
C206 H234 0.931 . S
C207 C202 1.377 . S
C207 C206 1.378 . S
C207 H235 0.931 . S
C208 O222 1.259 . S
C208 O223 1.270 . S
C209 O224 1.251 . S
C209 O225 1.251 . S
C210 Eu211 2.835 . S
C210 C212 1.500 . S
C210 O226 1.257 . S
C210 O227 1.260 . S
Eu211 C210 2.835 . S
Eu211 O223 2.355 . S
Eu211 O225 2.374 1_455 S
Eu211 O226 2.473 . S
Eu211 O227 2.480 . S
Eu211 O228 2.430 1_455 S
Eu211 O229 2.670 1_455 S
Eu211 O230 2.394 . S
C212 C210 1.500 . S
C212 C213 1.377 . S
C212 C217 1.377 . S
C213 C212 1.377 . S
C213 C214 1.395 . S
C213 H236 0.931 . S
C214 C213 1.395 . S
C214 C215 1.383 . S
C214 H237 0.931 . S
C215 C214 1.383 . S
C215 C216 1.394 . S
C216 C215 1.394 . S
C216 C217 1.378 . S
C216 H238 0.931 . S
C217 C212 1.377 . S
C217 C216 1.378 . S
C217 H239 0.931 . S
C218 O228 1.259 . S
C218 O229 1.270 . S
C219 O230 1.251 . S
C219 O231 1.251 . S
O220 C200 1.257 . S
O220 Eu201 2.473 . S
O221 C200 1.260 . S
O221 Eu201 2.480 . S
O222 Eu201 2.430 1_455 S
O222 C208 1.259 . S
O223 Eu201 2.670 1_455 S
O223 C208 1.270 . S
O223 Eu211 2.355 . S
O224 Eu201 2.394 . S
O224 C209 1.251 . S
O225 C209 1.251 . S
O225 Eu211 2.374 1_655 S
O226 C210 1.257 . S
O226 Eu211 2.473 . S
O227 C210 1.260 . S
O227 Eu211 2.480 . S
O228 Eu211 2.430 1_655 S
O228 C218 1.259 . S
O229 Eu201 2.355 . S
O229 Eu211 2.670 1_655 S
O229 C218 1.270 . S
O230 Eu211 2.394 . S
O230 C219 1.251 . S
O231 Eu201 2.374 1_455 S
O231 C219 1.251 . S
H232 C203 0.931 . S
H233 C204 0.931 . S
H234 C206 0.931 . S
H235 C207 0.931 . S
H236 C213 0.931 . S
H237 C214 0.931 . S
H238 C216 0.931 . S
H239 C217 0.931 . S
C240 Eu241 2.835 . S
C240 C242 1.500 . S
C240 O260 1.257 . S
C240 O261 1.260 . S
Eu241 C240 2.835 . S
Eu241 O260 2.473 . S
Eu241 O261 2.480 . S
Eu241 O262 2.430 1_455 S
Eu241 O263 2.670 1_455 S
Eu241 O264 2.394 . S
Eu241 O269 2.355 . S
Eu241 O271 2.374 1_455 S
C242 C240 1.500 . S
C242 C243 1.377 . S
C242 C247 1.377 . S
C243 C242 1.377 . S
C243 C244 1.395 . S
C243 H272 0.931 . S
C244 C243 1.395 . S
C244 C245 1.383 . S
C244 H273 0.931 . S
C245 C244 1.383 . S
C245 C246 1.394 . S
C246 C245 1.394 . S
C246 C247 1.378 . S
C246 H274 0.931 . S
C247 C242 1.377 . S
C247 C246 1.378 . S
C247 H275 0.931 . S
C248 O262 1.259 . S
C248 O263 1.270 . S
C249 O264 1.251 . S
C249 O265 1.251 . S
C250 Eu251 2.835 . S
C250 C252 1.500 . S
C250 O266 1.257 . S
C250 O267 1.260 . S
Eu251 C250 2.835 . S
Eu251 O263 2.355 . S
Eu251 O265 2.374 1_655 S
Eu251 O266 2.473 . S
Eu251 O267 2.480 . S
Eu251 O268 2.430 1_655 S
Eu251 O269 2.670 1_655 S
Eu251 O270 2.394 . S
C252 C250 1.500 . S
C252 C253 1.377 . S
C252 C257 1.377 . S
C253 C252 1.377 . S
C253 C254 1.395 . S
C253 H276 0.931 . S
C254 C253 1.395 . S
C254 C255 1.383 . S
C254 H277 0.931 . S
C255 C254 1.383 . S
C255 C256 1.394 . S
C256 C255 1.394 . S
C256 C257 1.378 . S
C256 H278 0.931 . S
C257 C252 1.377 . S
C257 C256 1.378 . S
C257 H279 0.931 . S
C258 O268 1.259 . S
C258 O269 1.270 . S
C259 O270 1.251 . S
C259 O271 1.251 . S
O260 C240 1.257 . S
O260 Eu241 2.473 . S
O261 C240 1.260 . S
O261 Eu241 2.480 . S
O262 Eu241 2.430 1_655 S
O262 C248 1.259 . S
O263 Eu241 2.670 1_655 S
O263 C248 1.270 . S
O263 Eu251 2.355 . S
O264 Eu241 2.394 . S
O264 C249 1.251 . S
O265 C249 1.251 . S
O265 Eu251 2.374 1_455 S
O266 C250 1.257 . S
O266 Eu251 2.473 . S
O267 C250 1.260 . S
O267 Eu251 2.480 . S
O268 Eu251 2.430 1_455 S
O268 C258 1.259 . S
O269 Eu241 2.355 . S
O269 Eu251 2.670 1_455 S
O269 C258 1.270 . S
O270 Eu251 2.394 . S
O270 C259 1.251 . S
O271 Eu241 2.374 1_655 S
O271 C259 1.251 . S
H272 C243 0.931 . S
H273 C244 0.931 . S
H274 C246 0.931 . S
H275 C247 0.931 . S
H276 C253 0.931 . S
H277 C254 0.931 . S
H278 C256 0.931 . S
H279 C257 0.931 . S
C280 Eu281 2.835 . S
C280 C282 1.500 . S
C280 O300 1.257 . S
C280 O301 1.260 . S
Eu281 C280 2.835 . S
Eu281 O300 2.473 . S
Eu281 O301 2.480 . S
Eu281 O302 2.430 1_545 S
Eu281 O303 2.670 1_545 S
Eu281 O304 2.394 . S
Eu281 O309 2.355 . S
Eu281 O311 2.374 1_545 S
C282 C280 1.500 . S
C282 C283 1.377 . S
C282 C287 1.377 . S
C283 C282 1.377 . S
C283 C284 1.395 . S
C283 H312 0.931 . S
C284 C283 1.395 . S
C284 C285 1.383 . S
C284 H313 0.931 . S
C285 C284 1.383 . S
C285 C286 1.394 . S
C286 C285 1.394 . S
C286 C287 1.378 . S
C286 H314 0.931 . S
C287 C282 1.377 . S
C287 C286 1.378 . S
C287 H315 0.931 . S
C288 O302 1.259 . S
C288 O303 1.270 . S
C289 O304 1.251 . S
C289 O305 1.251 . S
C290 Eu291 2.835 . S
C290 C292 1.500 . S
C290 O306 1.257 . S
C290 O307 1.260 . S
Eu291 C290 2.835 . S
Eu291 O303 2.355 . S
Eu291 O305 2.374 1_565 S
Eu291 O306 2.473 . S
Eu291 O307 2.480 . S
Eu291 O308 2.430 1_565 S
Eu291 O309 2.670 1_565 S
Eu291 O310 2.394 . S
C292 C290 1.500 . S
C292 C293 1.377 . S
C292 C297 1.377 . S
C293 C292 1.377 . S
C293 C294 1.395 . S
C293 H316 0.931 . S
C294 C293 1.395 . S
C294 C295 1.383 . S
C294 H317 0.931 . S
C295 C294 1.383 . S
C295 C296 1.394 . S
C296 C295 1.394 . S
C296 C297 1.378 . S
C296 H318 0.931 . S
C297 C292 1.377 . S
C297 C296 1.378 . S
C297 H319 0.931 . S
C298 O308 1.259 . S
C298 O309 1.270 . S
C299 O310 1.251 . S
C299 O311 1.251 . S
O300 C280 1.257 . S
O300 Eu281 2.473 . S
O301 C280 1.260 . S
O301 Eu281 2.480 . S
O302 Eu281 2.430 1_565 S
O302 C288 1.259 . S
O303 Eu281 2.670 1_565 S
O303 C288 1.270 . S
O303 Eu291 2.355 . S
O304 Eu281 2.394 . S
O304 C289 1.251 . S
O305 C289 1.251 . S
O305 Eu291 2.374 1_545 S
O306 C290 1.257 . S
O306 Eu291 2.473 . S
O307 C290 1.260 . S
O307 Eu291 2.480 . S
O308 Eu291 2.430 1_545 S
O308 C298 1.259 . S
O309 Eu281 2.355 . S
O309 Eu291 2.670 1_545 S
O309 C298 1.270 . S
O310 Eu291 2.394 . S
O310 C299 1.251 . S
O311 Eu281 2.374 1_565 S
O311 C299 1.251 . S
H312 C283 0.931 . S
H313 C284 0.931 . S
H314 C286 0.931 . S
H315 C287 0.931 . S
H316 C293 0.931 . S
H317 C294 0.931 . S
H318 C296 0.931 . S
H319 C297 0.931 . S
C320 Eu321 2.835 . S
C320 C322 1.500 . S
C320 O340 1.257 . S
C320 O341 1.260 . S
Eu321 C320 2.835 . S
Eu321 O340 2.473 . S
Eu321 O341 2.480 . S
Eu321 O342 2.430 . S
Eu321 O343 2.670 . S
Eu321 O344 2.394 . S
Eu321 O349 2.355 . S
Eu321 O351 2.374 . S
C322 C320 1.500 . S
C322 C323 1.377 . S
C322 C327 1.377 . S
C323 C322 1.377 . S
C323 C324 1.395 . S
C323 H352 0.931 . S
C324 C323 1.395 . S
C324 C325 1.383 . S
C324 H353 0.931 . S
C325 C324 1.383 . S
C325 C326 1.394 . S
C326 C325 1.394 . S
C326 C327 1.378 . S
C326 H354 0.931 . S
C327 C322 1.377 . S
C327 C326 1.378 . S
C327 H355 0.931 . S
C328 O342 1.259 . S
C328 O343 1.270 . S
C329 O344 1.251 . S
C329 O345 1.251 . S
C330 Eu331 2.835 . S
C330 C332 1.500 . S
C330 O346 1.257 . S
C330 O347 1.260 . S
Eu331 C330 2.835 . S
Eu331 O343 2.355 . S
Eu331 O345 2.374 . S
Eu331 O346 2.473 . S
Eu331 O347 2.480 . S
Eu331 O348 2.430 . S
Eu331 O349 2.670 . S
Eu331 O350 2.394 . S
C332 C330 1.500 . S
C332 C333 1.377 . S
C332 C337 1.377 . S
C333 C332 1.377 . S
C333 C334 1.395 . S
C333 H356 0.931 . S
C334 C333 1.395 . S
C334 C335 1.383 . S
C334 H357 0.931 . S
C335 C334 1.383 . S
C335 C336 1.394 . S
C336 C335 1.394 . S
C336 C337 1.378 . S
C336 H358 0.931 . S
C337 C332 1.377 . S
C337 C336 1.378 . S
C337 H359 0.931 . S
C338 O348 1.259 . S
C338 O349 1.270 . S
C339 O350 1.251 . S
C339 O351 1.251 . S
O340 C320 1.257 . S
O340 Eu321 2.473 . S
O341 C320 1.260 . S
O341 Eu321 2.480 . S
O342 Eu321 2.430 . S
O342 C328 1.259 . S
O343 Eu321 2.670 . S
O343 C328 1.270 . S
O343 Eu331 2.355 . S
O344 Eu321 2.394 . S
O344 C329 1.251 . S
O345 C329 1.251 . S
O345 Eu331 2.374 . S
O346 C330 1.257 . S
O346 Eu331 2.473 . S
O347 C330 1.260 . S
O347 Eu331 2.480 . S
O348 Eu331 2.430 . S
O348 C338 1.259 . S
O349 Eu321 2.355 . S
O349 Eu331 2.670 . S
O349 C338 1.270 . S
O350 Eu331 2.394 . S
O350 C339 1.251 . S
O351 Eu321 2.374 . S
O351 C339 1.251 . S
H352 C323 0.931 . S
H353 C324 0.931 . S
H354 C326 0.931 . S
H355 C327 0.931 . S
H356 C333 0.931 . S
H357 C334 0.931 . S
H358 C336 0.931 . S
H359 C337 0.931 . S
C360 Eu361 2.835 1_554 S
C360 C362 1.500 . S
C360 O380 1.274 . S
C360 O381 1.260 . S
Eu361 C360 2.835 1_556 S
Eu361 O380 2.466 1_556 S
Eu361 O381 2.480 1_556 S
Eu361 O382 2.430 1_656 S
Eu361 O383 2.670 1_655 S
Eu361 O384 2.394 1_556 S
Eu361 O389 2.355 . S
Eu361 O391 2.374 1_655 S
C362 C360 1.500 . S
C362 C363 1.377 . S
C362 C367 1.377 . S
C363 C362 1.377 . S
C363 C364 1.395 . S
C363 H392 0.931 . S
C364 C363 1.395 . S
C364 C365 1.383 . S
C364 H393 0.931 . S
C365 C364 1.383 . S
C365 C366 1.394 . S
C366 C365 1.394 . S
C366 C367 1.378 . S
C366 H394 0.931 . S
C367 C362 1.377 . S
C367 C366 1.378 . S
C367 H395 0.931 . S
C368 O382 1.259 1_556 S
C368 O383 1.270 . S
C369 O384 1.235 1_556 S
C369 O385 1.301 . S
C370 Eu371 2.835 . S
C370 C372 1.500 . S
C370 O386 1.257 . S
C370 O387 1.260 . S
Eu371 C370 2.835 . S
Eu371 O383 2.355 . S
Eu371 O385 2.374 1_455 S
Eu371 O386 2.473 . S
Eu371 O387 2.480 . S
Eu371 O388 2.430 1_455 S
Eu371 O389 2.670 1_455 S
Eu371 O390 2.394 . S
C372 C370 1.500 . S
C372 C373 1.377 . S
C372 C377 1.377 . S
C373 C372 1.377 . S
C373 C374 1.395 . S
C373 H396 0.931 . S
C374 C373 1.395 . S
C374 C375 1.383 . S
C374 H397 0.931 . S
C375 C374 1.383 . S
C375 C376 1.394 . S
C376 C375 1.394 . S
C376 C377 1.378 . S
C376 H398 0.931 . S
C377 C372 1.377 . S
C377 C376 1.378 . S
C377 H399 0.931 . S
C378 O388 1.259 . S
C378 O389 1.270 . S
C379 O390 1.251 . S
C379 O391 1.251 . S
O380 C360 1.274 . S
O380 Eu361 2.466 1_554 S
O381 C360 1.260 . S
O381 Eu361 2.480 1_554 S
O382 Eu361 2.430 1_454 S
O382 C368 1.259 1_554 S
O383 Eu361 2.670 1_455 S
O383 C368 1.270 . S
O383 Eu371 2.355 . S
O384 Eu361 2.394 1_554 S
O384 C369 1.235 1_554 S
O385 C369 1.301 . S
O385 Eu371 2.374 1_655 S
O386 C370 1.257 . S
O386 Eu371 2.473 . S
O387 C370 1.260 . S
O387 Eu371 2.480 . S
O388 Eu371 2.430 1_655 S
O388 C378 1.259 . S
O389 Eu361 2.355 . S
O389 Eu371 2.670 1_655 S
O389 C378 1.270 . S
O390 Eu371 2.394 . S
O390 C379 1.251 . S
O391 Eu361 2.374 1_455 S
O391 C379 1.251 . S
H392 C363 0.931 . S
H393 C364 0.931 . S
H394 C366 0.931 . S
H395 C367 0.931 . S
H396 C373 0.931 . S
H397 C374 0.931 . S
H398 C376 0.931 . S
H399 C377 0.931 . S
C400 Eu401 2.835 . S
C400 C402 1.500 . S
C400 O420 1.257 . S
C400 O421 1.260 . S
Eu401 C400 2.835 . S
Eu401 O420 2.473 . S
Eu401 O421 2.480 . S
Eu401 O422 2.430 1_565 S
Eu401 O423 2.670 1_565 S
Eu401 O424 2.394 . S
Eu401 O429 2.355 . S
Eu401 O431 2.374 1_565 S
C402 C400 1.500 . S
C402 C403 1.377 . S
C402 C407 1.377 . S
C403 C402 1.377 . S
C403 C404 1.395 . S
C403 H432 0.931 . S
C404 C403 1.395 . S
C404 C405 1.383 . S
C404 H433 0.931 . S
C405 C404 1.383 . S
C405 C406 1.394 . S
C406 C405 1.394 . S
C406 C407 1.378 . S
C406 H434 0.931 . S
C407 C402 1.377 . S
C407 C406 1.378 . S
C407 H435 0.931 . S
C408 O422 1.259 . S
C408 O423 1.270 . S
C409 O424 1.251 . S
C409 O425 1.251 . S
C410 Eu411 2.835 . S
C410 C412 1.500 . S
C410 O426 1.257 . S
C410 O427 1.260 . S
Eu411 C410 2.835 . S
Eu411 O423 2.355 . S
Eu411 O425 2.374 1_545 S
Eu411 O426 2.473 . S
Eu411 O427 2.480 . S
Eu411 O428 2.430 1_545 S
Eu411 O429 2.670 1_545 S
Eu411 O430 2.394 . S
C412 C410 1.500 . S
C412 C413 1.377 . S
C412 C417 1.377 . S
C413 C412 1.377 . S
C413 C414 1.395 . S
C413 H436 0.931 . S
C414 C413 1.395 . S
C414 C415 1.383 . S
C414 H437 0.931 . S
C415 C414 1.383 . S
C415 C416 1.394 . S
C416 C415 1.394 . S
C416 C417 1.378 . S
C416 H438 0.931 . S
C417 C412 1.377 . S
C417 C416 1.378 . S
C417 H439 0.931 . S
C418 O428 1.259 . S
C418 O429 1.270 . S
C419 O430 1.251 . S
C419 O431 1.251 . S
O420 C400 1.257 . S
O420 Eu401 2.473 . S
O421 C400 1.260 . S
O421 Eu401 2.480 . S
O422 Eu401 2.430 1_545 S
O422 C408 1.259 . S
O423 Eu401 2.670 1_545 S
O423 C408 1.270 . S
O423 Eu411 2.355 . S
O424 Eu401 2.394 . S
O424 C409 1.251 . S
O425 C409 1.251 . S
O425 Eu411 2.374 1_565 S
O426 C410 1.257 . S
O426 Eu411 2.473 . S
O427 C410 1.260 . S
O427 Eu411 2.480 . S
O428 Eu411 2.430 1_565 S
O428 C418 1.259 . S
O429 Eu401 2.355 . S
O429 Eu411 2.670 1_565 S
O429 C418 1.270 . S
O430 Eu411 2.394 . S
O430 C419 1.251 . S
O431 Eu401 2.374 1_545 S
O431 C419 1.251 . S
H432 C403 0.931 . S
H433 C404 0.931 . S
H434 C406 0.931 . S
H435 C407 0.931 . S
H436 C413 0.931 . S
H437 C414 0.931 . S
H438 C416 0.931 . S
H439 C417 0.931 . S
C440 Eu441 2.835 . S
C440 C442 1.500 . S
C440 O460 1.257 . S
C440 O461 1.260 . S
Eu441 C440 2.835 . S
Eu441 O460 2.473 . S
Eu441 O461 2.480 . S
Eu441 O462 2.430 . S
Eu441 O463 2.670 . S
Eu441 O464 2.394 . S
Eu441 O469 2.355 . S
Eu441 O471 2.374 . S
C442 C440 1.500 . S
C442 C443 1.377 . S
C442 C447 1.377 . S
C443 C442 1.377 . S
C443 C444 1.395 . S
C443 H472 0.931 . S
C444 C443 1.395 . S
C444 C445 1.383 . S
C444 H473 0.931 . S
C445 C444 1.383 . S
C445 C446 1.394 . S
C446 C445 1.394 . S
C446 C447 1.378 . S
C446 H474 0.931 . S
C447 C442 1.377 . S
C447 C446 1.378 . S
C447 H475 0.931 . S
C448 O462 1.259 . S
C448 O463 1.270 . S
C449 O464 1.251 . S
C449 O465 1.251 . S
C450 Eu451 2.835 . S
C450 C452 1.500 . S
C450 O466 1.257 . S
C450 O467 1.260 . S
Eu451 C450 2.835 . S
Eu451 O463 2.355 . S
Eu451 O465 2.374 . S
Eu451 O466 2.473 . S
Eu451 O467 2.480 . S
Eu451 O468 2.430 . S
Eu451 O469 2.670 . S
Eu451 O470 2.394 . S
C452 C450 1.500 . S
C452 C453 1.377 . S
C452 C457 1.377 . S
C453 C452 1.377 . S
C453 C454 1.395 . S
C453 H476 0.931 . S
C454 C453 1.395 . S
C454 C455 1.383 . S
C454 H477 0.931 . S
C455 C454 1.383 . S
C455 C456 1.394 . S
C456 C455 1.394 . S
C456 C457 1.378 . S
C456 H478 0.931 . S
C457 C452 1.377 . S
C457 C456 1.378 . S
C457 H479 0.931 . S
C458 O468 1.259 . S
C458 O469 1.270 . S
C459 O470 1.251 . S
C459 O471 1.251 . S
O460 C440 1.257 . S
O460 Eu441 2.473 . S
O461 C440 1.260 . S
O461 Eu441 2.480 . S
O462 Eu441 2.430 . S
O462 C448 1.259 . S
O463 Eu441 2.670 . S
O463 C448 1.270 . S
O463 Eu451 2.355 . S
O464 Eu441 2.394 . S
O464 C449 1.251 . S
O465 C449 1.251 . S
O465 Eu451 2.374 . S
O466 C450 1.257 . S
O466 Eu451 2.473 . S
O467 C450 1.260 . S
O467 Eu451 2.480 . S
O468 Eu451 2.430 . S
O468 C458 1.259 . S
O469 Eu441 2.355 . S
O469 Eu451 2.670 . S
O469 C458 1.270 . S
O470 Eu451 2.394 . S
O470 C459 1.251 . S
O471 Eu441 2.374 . S
O471 C459 1.251 . S
H472 C443 0.931 . S
H473 C444 0.931 . S
H474 C446 0.931 . S
H475 C447 0.931 . S
H476 C453 0.931 . S
H477 C454 0.931 . S
H478 C456 0.931 . S
H479 C457 0.931 . S
C480 C481 1.387 . S
C480 H484 0.950 . S
C480 C489 1.390 . S
C481 C480 1.387 . S
C481 C483 1.387 . S
H482 C489 0.950 . S
C483 C481 1.387 . S
C483 C485 1.390 . S
C483 H487 0.950 . S
H484 C480 0.950 . S
C485 C483 1.390 . S
C485 C486 1.387 . S
C485 H488 0.950 . S
C486 C485 1.387 . S
C486 C489 1.387 . S
H487 C483 0.950 . S
H488 C485 0.950 . S
C489 C480 1.390 . S
C489 H482 0.950 . S
C489 C486 1.387 . S
C490 C491 1.387 . S
C490 H494 0.950 . S
C490 C499 1.390 . S
C491 C490 1.387 . S
C491 C493 1.387 . S
H492 C499 0.950 . S
C493 C491 1.387 . S
C493 C495 1.390 . S
C493 H497 0.950 1_545 S
H494 C490 0.950 . S
C495 C493 1.390 . S
C495 C496 1.387 . S
C495 H498 0.950 1_545 S
C496 C495 1.387 . S
C496 C499 1.387 . S
H497 C493 0.950 1_565 S
H498 C495 0.950 1_565 S
C499 C490 1.390 . S
C499 H492 0.950 . S
C499 C496 1.387 . S
C500 C501 1.387 . S
C500 H504 0.950 . S
C500 C509 1.390 . S
C501 C500 1.387 . S
C501 C503 1.387 . S
H502 C509 0.950 . S
C503 C501 1.387 . S
C503 C505 1.390 . S
C503 H507 0.950 . S
H504 C500 0.950 . S
C505 C503 1.390 . S
C505 C506 1.387 . S
C505 H508 0.950 . S
C506 C505 1.387 . S
C506 C509 1.387 . S
H507 C503 0.950 . S
H508 C505 0.950 . S
C509 C500 1.390 . S
C509 H502 0.950 . S
C509 C506 1.387 . S
C510 C511 1.387 . S
C510 H514 0.950 . S
C510 C519 1.390 . S
C511 C510 1.387 . S
C511 C513 1.387 . S
H512 C519 0.950 . S
C513 C511 1.387 . S
C513 C515 1.390 . S
C513 H517 0.950 . S
H514 C510 0.950 . S
C515 C513 1.390 . S
C515 C516 1.387 . S
C515 H518 0.950 . S
C516 C515 1.387 . S
C516 C519 1.387 . S
H517 C513 0.950 . S
H518 C515 0.950 . S
C519 C510 1.390 . S
C519 H512 0.950 . S
C519 C516 1.387 . S
C520 C521 1.387 . S
C520 H524 0.950 1_565 S
C520 C529 1.390 . S
C521 C520 1.387 . S
C521 C523 1.387 . S
H522 C529 0.950 1_545 S
C523 C521 1.387 . S
C523 C525 1.390 . S
C523 H527 0.950 . S
H524 C520 0.950 1_545 S
C525 C523 1.390 . S
C525 C526 1.387 . S
C525 H528 0.950 . S
C526 C525 1.387 . S
C526 C529 1.387 . S
H527 C523 0.950 . S
H528 C525 0.950 . S
C529 C520 1.390 . S
C529 H522 0.950 1_565 S
C529 C526 1.387 . S
C530 C531 1.387 . S
C530 H534 0.950 . S
C530 C539 1.390 . S
C531 C530 1.387 . S
C531 C533 1.387 . S
H532 C539 0.950 . S
C533 C531 1.387 . S
C533 C535 1.390 . S
C533 H537 0.950 . S
H534 C530 0.950 . S
C535 C533 1.390 . S
C535 C536 1.387 . S
C535 H538 0.950 . S
C536 C535 1.387 . S
C536 C539 1.387 . S
H537 C533 0.950 . S
H538 C535 0.950 . S
C539 C530 1.390 . S
C539 H532 0.950 . S
C539 C536 1.387 . S
C540 C541 1.387 . S
C540 H544 0.950 . S
C540 C549 1.390 . S
C541 C540 1.387 . S
C541 C543 1.387 . S
H542 C549 0.950 . S
C543 C541 1.387 . S
C543 C545 1.390 . S
C543 H547 0.950 . S
H544 C540 0.950 . S
C545 C543 1.390 . S
C545 C546 1.387 . S
C545 H548 0.950 . S
C546 C545 1.387 . S
C546 C549 1.387 . S
H547 C543 0.950 . S
H548 C545 0.950 . S
C549 C540 1.390 . S
C549 H542 0.950 . S
C549 C546 1.387 . S
C550 C551 1.387 . S
C550 H554 0.950 . S
C550 C559 1.390 . S
C551 C550 1.387 . S
C551 C553 1.387 . S
H552 C559 0.950 . S
C553 C551 1.387 . S
C553 C555 1.390 . S
C553 H557 0.950 . S
H554 C550 0.950 . S
C555 C553 1.390 . S
C555 C556 1.387 . S
C555 H558 0.950 . S
C556 C555 1.387 . S
C556 C559 1.387 . S
H557 C553 0.950 . S
H558 C555 0.950 . S
C559 C550 1.390 . S
C559 H552 0.950 . S
C559 C556 1.387 . S
C560 C561 1.387 . S
C560 H564 0.950 . S
C560 C569 1.390 . S
C561 C560 1.387 . S
C561 C563 1.387 . S
H562 C569 0.950 . S
C563 C561 1.387 . S
C563 C565 1.390 . S
C563 H567 0.950 . S
H564 C560 0.950 . S
C565 C563 1.390 . S
C565 C566 1.387 . S
C565 H568 0.950 . S
C566 C565 1.387 . S
C566 C569 1.387 . S
H567 C563 0.950 . S
H568 C565 0.950 . S
C569 C560 1.390 . S
C569 H562 0.950 . S
C569 C566 1.387 . S
C570 C571 1.387 . S
C570 H574 0.950 . S
C570 C579 1.390 . S
C571 C570 1.387 . S
C571 C573 1.387 . S
H572 C579 0.950 . S
C573 C571 1.387 . S
C573 C575 1.390 . S
C573 H577 0.950 . S
H574 C570 0.950 . S
C575 C573 1.390 . S
C575 C576 1.387 . S
C575 H578 0.950 . S
C576 C575 1.387 . S
C576 C579 1.387 . S
H577 C573 0.950 . S
H578 C575 0.950 . S
C579 C570 1.390 . S
C579 H572 0.950 . S
C579 C576 1.387 . S
C580 C581 1.387 . S
C580 H584 0.950 . S
C580 C589 1.390 . S
C581 C580 1.387 . S
C581 C583 1.387 . S
H582 C589 0.950 . S
C583 C581 1.387 . S
C583 C585 1.390 . S
C583 H587 0.950 . S
H584 C580 0.950 . S
C585 C583 1.390 . S
C585 C586 1.387 . S
C585 H588 0.950 . S
C586 C585 1.387 . S
C586 C589 1.387 . S
H587 C583 0.950 . S
H588 C585 0.950 . S
C589 C580 1.390 . S
C589 H582 0.950 . S
C589 C586 1.387 . S
C590 C591 1.387 . S
C590 H594 0.950 . S
C590 C599 1.390 . S
C591 C590 1.387 . S
C591 C593 1.387 . S
H592 C599 0.950 . S
C593 C591 1.387 . S
C593 C595 1.390 . S
C593 H597 0.950 . S
H594 C590 0.950 . S
C595 C593 1.390 . S
C595 C596 1.387 . S
C595 H598 0.950 . S
C596 C595 1.387 . S
C596 C599 1.387 . S
H597 C593 0.950 . S
H598 C595 0.950 . S
C599 C590 1.390 . S
C599 H592 0.950 . S
C599 C596 1.387 . S
C600 C601 1.387 . S
C600 H604 0.950 . S
C600 C609 1.390 . S
C601 C600 1.387 . S
C601 C603 1.387 . S
H602 C609 0.950 . S
C603 C601 1.387 . S
C603 C605 1.390 . S
C603 H607 0.950 . S
H604 C600 0.950 . S
C605 C603 1.390 . S
C605 C606 1.387 . S
C605 H608 0.950 . S
C606 C605 1.387 . S
C606 C609 1.387 . S
H607 C603 0.950 . S
H608 C605 0.950 . S
C609 C600 1.390 . S
C609 H602 0.950 . S
C609 C606 1.387 . S
C610 C611 1.387 . S
C610 H614 0.950 . S
C610 C619 1.390 . S
C611 C610 1.387 . S
C611 C613 1.387 . S
H612 C619 0.950 . S
C613 C611 1.387 . S
C613 C615 1.390 . S
C613 H617 0.950 . S
H614 C610 0.950 . S
C615 C613 1.390 . S
C615 C616 1.387 . S
C615 H618 0.950 . S
C616 C615 1.387 . S
C616 C619 1.387 . S
H617 C613 0.950 . S
H618 C615 0.950 . S
C619 C610 1.390 . S
C619 H612 0.950 . S
C619 C616 1.387 . S
C620 C621 1.387 . S
C620 H624 0.950 . S
C620 C629 1.390 . S
C621 C620 1.387 . S
C621 C623 1.387 . S
H622 C629 0.950 . S
C623 C621 1.387 . S
C623 C625 1.390 . S
C623 H627 0.950 . S
H624 C620 0.950 . S
C625 C623 1.390 . S
C625 C626 1.387 . S
C625 H628 0.950 . S
C626 C625 1.387 . S
C626 C629 1.387 . S
H627 C623 0.950 . S
H628 C625 0.950 . S
C629 C620 1.390 . S
C629 H622 0.950 . S
C629 C626 1.387 . S
C630 C631 1.387 . S
C630 H634 0.950 . S
C630 C639 1.390 . S
C631 C630 1.387 . S
C631 C633 1.387 . S
H632 C639 0.950 . S
C633 C631 1.387 . S
C633 C635 1.390 . S
C633 H637 0.950 . S
H634 C630 0.950 . S
C635 C633 1.390 . S
C635 C636 1.387 . S
C635 H638 0.950 . S
C636 C635 1.387 . S
C636 C639 1.387 . S
H637 C633 0.950 . S
H638 C635 0.950 . S
C639 C630 1.390 . S
C639 H632 0.950 . S
C639 C636 1.387 . S
C640 C641 1.363 1_556 S
C640 H644 0.950 . S
C640 C649 1.390 . S
C641 C640 1.363 1_554 S
C641 C643 1.414 . S
H642 C649 0.950 . S
C643 C641 1.414 . S
C643 C645 1.390 . S
C643 H647 0.950 . S
H644 C640 0.950 . S
C645 C643 1.390 . S
C645 C646 1.387 . S
C645 H648 0.950 . S
C646 C645 1.387 . S
C646 C649 1.387 1_554 S
H647 C643 0.950 . S
H648 C645 0.950 . S
C649 C640 1.390 . S
C649 H642 0.950 . S
C649 C646 1.387 1_556 S
C650 C651 1.387 . S
C650 H654 0.950 . S
C650 C659 1.390 . S
C651 C650 1.387 . S
C651 C653 1.387 . S
H652 C659 0.950 . S
C653 C651 1.387 . S
C653 C655 1.390 . S
C653 H657 0.950 . S
H654 C650 0.950 . S
C655 C653 1.390 . S
C655 C656 1.387 . S
C655 H658 0.950 . S
C656 C655 1.387 . S
C656 C659 1.387 . S
H657 C653 0.950 . S
H658 C655 0.950 . S
C659 C650 1.390 . S
C659 H652 0.950 . S
C659 C656 1.387 . S
C660 C661 1.387 . S
C660 H664 0.950 . S
C660 C669 1.390 . S
C661 C660 1.387 . S
C661 C663 1.387 . S
H662 C669 0.950 . S
C663 C661 1.387 . S
C663 C665 1.390 . S
C663 H667 0.950 . S
H664 C660 0.950 . S
C665 C663 1.390 . S
C665 C666 1.387 . S
C665 H668 0.950 . S
C666 C665 1.387 . S
C666 C669 1.387 . S
H667 C663 0.950 . S
H668 C665 0.950 . S
C669 C660 1.390 . S
C669 H662 0.950 . S
C669 C666 1.387 . S
C670 C671 1.387 . S
C670 H674 0.950 . S
C670 C679 1.390 . S
C671 C670 1.387 . S
C671 C673 1.387 . S
H672 C679 0.950 . S
C673 C671 1.387 . S
C673 C675 1.390 . S
C673 H677 0.950 . S
H674 C670 0.950 . S
C675 C673 1.390 . S
C675 C676 1.387 . S
C675 H678 0.950 . S
C676 C675 1.387 . S
C676 C679 1.387 . S
H677 C673 0.950 . S
H678 C675 0.950 . S
C679 C670 1.390 . S
C679 H672 0.950 . S
C679 C676 1.387 . S
C680 C681 1.387 . S
C680 H684 0.950 . S
C680 C689 1.390 . S
C681 C680 1.387 . S
C681 C683 1.387 . S
H682 C689 0.950 . S
C683 C681 1.387 . S
C683 C685 1.390 . S
C683 H687 0.950 . S
H684 C680 0.950 . S
C685 C683 1.390 . S
C685 C686 1.387 . S
C685 H688 0.950 . S
C686 C685 1.387 . S
C686 C689 1.387 . S
H687 C683 0.950 . S
H688 C685 0.950 . S
C689 C680 1.390 . S
C689 H682 0.950 . S
C689 C686 1.387 . S
C690 C691 1.387 . S
C690 H694 0.950 . S
C690 C699 1.390 . S
C691 C690 1.387 . S
C691 C693 1.387 1_554 S
H692 C699 0.950 . S
C693 C691 1.387 1_556 S
C693 C695 1.390 . S
C693 H697 0.950 . S
H694 C690 0.950 . S
C695 C693 1.390 . S
C695 C696 1.387 1_556 S
C695 H698 0.950 . S
C696 C695 1.387 1_554 S
C696 C699 1.387 . S
H697 C693 0.950 . S
H698 C695 0.950 . S
C699 C690 1.390 . S
C699 H692 0.950 . S
C699 C696 1.387 . S
C700 C701 1.387 . S
C700 H704 0.950 . S
C700 C709 1.390 . S
C701 C700 1.387 . S
C701 C703 1.387 . S
H702 C709 0.950 . S
C703 C701 1.387 . S
C703 C705 1.390 . S
C703 H707 0.950 . S
H704 C700 0.950 . S
C705 C703 1.390 . S
C705 C706 1.387 . S
C705 H708 0.950 . S
C706 C705 1.387 . S
C706 C709 1.387 . S
H707 C703 0.950 . S
H708 C705 0.950 . S
C709 C700 1.390 . S
C709 H702 0.950 . S
C709 C706 1.387 . S
C710 C711 1.387 . S
C710 H714 0.950 . S
C710 C719 1.390 . S
C711 C710 1.387 . S
C711 C713 1.387 . S
H712 C719 0.950 . S
C713 C711 1.387 . S
C713 C715 1.390 . S
C713 H717 0.950 . S
H714 C710 0.950 . S
C715 C713 1.390 . S
C715 C716 1.387 . S
C715 H718 0.950 . S
C716 C715 1.387 . S
C716 C719 1.387 . S
H717 C713 0.950 . S
H718 C715 0.950 . S
C719 C710 1.390 . S
C719 H712 0.950 . S
C719 C716 1.387 . S
C720 C721 1.387 . S
C720 H724 0.950 . S
C720 C729 1.390 . S
C721 C720 1.387 . S
C721 C723 1.387 . S
H722 C729 0.950 . S
C723 C721 1.387 . S
C723 C725 1.390 . S
C723 H727 0.950 . S
H724 C720 0.950 . S
C725 C723 1.390 . S
C725 C726 1.387 . S
C725 H728 0.950 . S
C726 C725 1.387 . S
C726 C729 1.387 . S
H727 C723 0.950 . S
H728 C725 0.950 . S
C729 C720 1.390 . S
C729 H722 0.950 . S
C729 C726 1.387 . S
C730 C731 1.387 . S
C730 H734 0.950 . S
C730 C739 1.390 . S
C731 C730 1.387 . S
C731 C733 1.387 . S
H732 C739 0.950 . S
C733 C731 1.387 . S
C733 C735 1.390 . S
C733 H737 0.950 . S
H734 C730 0.950 . S
C735 C733 1.390 . S
C735 C736 1.387 . S
C735 H738 0.950 . S
C736 C735 1.387 . S
C736 C739 1.387 . S
H737 C733 0.950 . S
H738 C735 0.950 . S
C739 C730 1.390 . S
C739 H732 0.950 . S
C739 C736 1.387 . S
C740 C741 1.387 . S
C740 H744 0.950 . S
C740 C749 1.390 . S
C741 C740 1.387 . S
C741 C743 1.387 . S
H742 C749 0.950 . S
C743 C741 1.387 . S
C743 C745 1.390 . S
C743 H747 0.950 . S
H744 C740 0.950 . S
C745 C743 1.390 . S
C745 C746 1.387 . S
C745 H748 0.950 . S
C746 C745 1.387 . S
C746 C749 1.387 . S
H747 C743 0.950 . S
H748 C745 0.950 . S
C749 C740 1.390 . S
C749 H742 0.950 . S
C749 C746 1.387 . S
C750 C751 1.387 . S
C750 H754 0.950 . S
C750 C759 1.390 . S
C751 C750 1.387 . S
C751 C753 1.387 . S
H752 C759 0.950 . S
C753 C751 1.387 . S
C753 C755 1.390 . S
C753 H757 0.950 . S
H754 C750 0.950 . S
C755 C753 1.390 . S
C755 C756 1.387 . S
C755 H758 0.950 . S
C756 C755 1.387 . S
C756 C759 1.387 . S
H757 C753 0.950 . S
H758 C755 0.950 . S
C759 C750 1.390 . S
C759 H752 0.950 . S
C759 C756 1.387 . S
C760 C761 1.387 . S
C760 H764 0.950 . S
C760 C769 1.390 . S
C761 C760 1.387 . S
C761 C763 1.387 . S
H762 C769 0.950 . S
C763 C761 1.387 . S
C763 C765 1.390 . S
C763 H767 0.950 . S
H764 C760 0.950 . S
C765 C763 1.390 . S
C765 C766 1.387 . S
C765 H768 0.950 . S
C766 C765 1.387 . S
C766 C769 1.387 . S
H767 C763 0.950 . S
H768 C765 0.950 . S
C769 C760 1.390 . S
C769 H762 0.950 . S
C769 C766 1.387 . S
C770 C771 1.387 . S
C770 H774 0.950 . S
C770 C779 1.390 . S
C771 C770 1.387 . S
C771 C773 1.387 . S
H772 C779 0.950 . S
C773 C771 1.387 . S
C773 C775 1.390 . S
C773 H777 0.950 . S
H774 C770 0.950 . S
C775 C773 1.390 . S
C775 C776 1.387 . S
C775 H778 0.950 . S
C776 C775 1.387 . S
C776 C779 1.387 . S
H777 C773 0.950 . S
H778 C775 0.950 . S
C779 C770 1.390 . S
C779 H772 0.950 . S
C779 C776 1.387 . S
C780 C781 1.387 . S
C780 H784 0.950 . S
C780 C789 1.390 . S
C781 C780 1.387 . S
C781 C783 1.387 . S
H782 C789 0.950 . S
C783 C781 1.387 . S
C783 C785 1.390 . S
C783 H787 0.950 . S
H784 C780 0.950 . S
C785 C783 1.390 . S
C785 C786 1.387 . S
C785 H788 0.950 . S
C786 C785 1.387 . S
C786 C789 1.387 . S
H787 C783 0.950 . S
H788 C785 0.950 . S
C789 C780 1.390 . S
C789 H782 0.950 . S
C789 C786 1.387 . S
C790 C791 1.387 . S
C790 H794 0.950 . S
C790 C799 1.390 . S
C791 C790 1.387 . S
C791 C793 1.387 . S
H792 C799 0.950 . S
C793 C791 1.387 . S
C793 C795 1.390 . S
C793 H797 0.950 . S
H794 C790 0.950 . S
C795 C793 1.390 . S
C795 C796 1.387 . S
C795 H798 0.950 . S
C796 C795 1.387 . S
C796 C799 1.387 . S
H797 C793 0.950 . S
H798 C795 0.950 . S
C799 C790 1.390 . S
C799 H792 0.950 . S
C799 C796 1.387 . S
C800 C801 1.387 . S
C800 H804 0.950 . S
C800 C809 1.390 . S
C801 C800 1.387 . S
C801 C803 1.387 . S
H802 C809 0.950 . S
C803 C801 1.387 . S
C803 C805 1.390 . S
C803 H807 0.950 . S
H804 C800 0.950 . S
C805 C803 1.390 . S
C805 C806 1.387 . S
C805 H808 0.950 . S
C806 C805 1.387 . S
C806 C809 1.387 . S
H807 C803 0.950 . S
H808 C805 0.950 . S
C809 C800 1.390 . S
C809 H802 0.950 . S
C809 C806 1.387 . S
C810 C811 1.387 . S
C810 H814 0.950 . S
C810 C819 1.390 . S
C811 C810 1.387 . S
C811 C813 1.387 . S
H812 C819 0.950 . S
C813 C811 1.387 . S
C813 C815 1.390 . S
C813 H817 0.950 . S
H814 C810 0.950 . S
C815 C813 1.390 . S
C815 C816 1.387 . S
C815 H818 0.950 . S
C816 C815 1.387 . S
C816 C819 1.387 . S
H817 C813 0.950 . S
H818 C815 0.950 . S
C819 C810 1.390 . S
C819 H812 0.950 . S
C819 C816 1.387 . S
C820 C821 1.387 . S
C820 H824 0.950 . S
C820 C829 1.390 . S
C821 C820 1.387 . S
C821 C823 1.387 . S
H822 C829 0.950 . S
C823 C821 1.387 . S
C823 C825 1.390 . S
C823 H827 0.950 . S
H824 C820 0.950 . S
C825 C823 1.390 . S
C825 C826 1.387 . S
C825 H828 0.950 . S
C826 C825 1.387 . S
C826 C829 1.387 . S
H827 C823 0.950 . S
H828 C825 0.950 . S
C829 C820 1.390 . S
C829 H822 0.950 . S
C829 C826 1.387 . S
C830 C831 1.387 . S
C830 H834 0.950 . S
C830 C839 1.390 . S
C831 C830 1.387 . S
C831 C833 1.387 . S
H832 C839 0.950 . S
C833 C831 1.387 . S
C833 C835 1.390 . S
C833 H837 0.950 . S
H834 C830 0.950 . S
C835 C833 1.390 . S
C835 C836 1.387 . S
C835 H838 0.950 . S
C836 C835 1.387 . S
C836 C839 1.387 . S
H837 C833 0.950 . S
H838 C835 0.950 . S
C839 C830 1.390 . S
C839 H832 0.950 . S
C839 C836 1.387 . S
C481 C219 1.785 . S
C486 C5 1.836 . S
C491 C45 2.206 . S
C496 C19 2.135 . S
C501 C85 2.041 . S
C506 C59 2.007 . S
C511 C99 1.783 . S
C516 C125 1.834 . S
C521 C139 2.138 . S
C526 C165 2.208 . S
C531 C205 2.040 . S
C536 C179 2.006 . S
C541 C299 1.786 . S
C546 C245 1.837 . S
C551 C285 2.041 . S
C556 C339 2.007 . S
C561 C379 2.135 . S
C566 C325 2.205 . S
C571 C419 1.786 . S
C576 C365 1.837 . S
C581 C459 2.006 . S
C586 C405 2.042 . S
C591 C259 2.135 . S
C596 C445 2.205 . S
C601 C448 3.638 . S
C606 C9 3.755 . S
C611 C49 2.853 . S
C616 C248 2.789 . S
C621 C288 3.185 . S
C626 C89 3.308 . S
C631 C328 3.640 . S
C636 C129 3.754 . S
C641 C368 2.788 1_554 S
C646 C169 2.851 . S
C651 C209 3.308 . S
C656 C408 3.185 . S
C661 C249 3.752 . S
C666 C48 3.640 . S
C671 C289 3.308 . S
C676 C88 3.185 . S
C681 C128 2.791 . S
C686 C329 2.850 . S
C691 C168 3.638 . S
C696 C369 3.747 1_554 S
C701 C409 3.308 . S
C706 C208 3.185 . S
C711 C449 2.852 . S
C716 C8 2.789 . S
C721 C258 3.585 . S
C726 C18 3.587 . S
C731 C58 2.473 . S
C736 C298 2.486 . S
C741 C338 2.471 . S
C746 C98 2.485 . S
C751 C138 3.586 . S
C756 C378 3.588 . S
C761 C418 2.483 . S
C766 C178 2.473 . S
C771 C458 2.474 . S
C776 C218 2.487 . S
C781 C255 0.746 . S
C786 C15 0.744 . S
C791 C295 0.860 . S
C796 C55 0.839 . S
C801 C335 0.843 . S
C806 C95 0.859 . S
C811 C135 0.744 . S
C816 C375 0.742 . S
C821 C415 0.857 . S
C826 C175 0.836 . S
C831 C455 0.843 . S
C836 C215 0.859 . S
