# Generated by pormake.
# Topology whz, (6)-cn, num edge types: 1
# Building blocks:
#     Node 0, Type 0, BuildingBlock: JUFBIX_clean_sbu_0, # of connection points: 6
#     Node 1, Type 0, BuildingBlock: JUFBIX_clean_sbu_0, # of connection points: 6
#     Node 2, Type 0, BuildingBlock: JUFBIX_clean_sbu_0, # of connection points: 6
#     Node 3, Type 0, BuildingBlock: JUFBIX_clean_sbu_0, # of connection points: 6
#     Node 4, Type 0, BuildingBlock: JUFBIX_clean_sbu_0, # of connection points: 6
#     Node 5, Type 0, BuildingBlock: JUFBIX_clean_sbu_0, # of connection points: 6
#     Node 6, Type 0, BuildingBlock: JUFBIX_clean_sbu_0, # of connection points: 6
#     Node 7, Type 0, BuildingBlock: JUFBIX_clean_sbu_0, # of connection points: 6
#     Node 8, Type 0, BuildingBlock: JUFBIX_clean_sbu_0, # of connection points: 6
#     Node 9, Type 0, BuildingBlock: JUFBIX_clean_sbu_0, # of connection points: 6
#     Node 10, Type 0, BuildingBlock: JUFBIX_clean_sbu_0, # of connection points: 6
#     Node 11, Type 0, BuildingBlock: JUFBIX_clean_sbu_0, # of connection points: 6
#     Node 12, Type 0, BuildingBlock: JUFBIX_clean_sbu_0, # of connection points: 6
#     Node 13, Type 0, BuildingBlock: JUFBIX_clean_sbu_0, # of connection points: 6
#     Node 14, Type 0, BuildingBlock: JUFBIX_clean_sbu_0, # of connection points: 6
#     Node 15, Type 0, BuildingBlock: JUFBIX_clean_sbu_0, # of connection points: 6
#     Edge 16, Type (0, 0), BuildingBlock: AJUNOK_clean_linker_0, # of connection points: 2
#     Edge 17, Type (0, 0), BuildingBlock: AJUNOK_clean_linker_0, # of connection points: 2
#     Edge 18, Type (0, 0), BuildingBlock: AJUNOK_clean_linker_0, # of connection points: 2
#     Edge 19, Type (0, 0), BuildingBlock: AJUNOK_clean_linker_0, # of connection points: 2
#     Edge 20, Type (0, 0), BuildingBlock: AJUNOK_clean_linker_0, # of connection points: 2
#     Edge 21, Type (0, 0), BuildingBlock: AJUNOK_clean_linker_0, # of connection points: 2
#     Edge 22, Type (0, 0), BuildingBlock: AJUNOK_clean_linker_0, # of connection points: 2
#     Edge 23, Type (0, 0), BuildingBlock: AJUNOK_clean_linker_0, # of connection points: 2
#     Edge 24, Type (0, 0), BuildingBlock: AJUNOK_clean_linker_0, # of connection points: 2
#     Edge 25, Type (0, 0), BuildingBlock: AJUNOK_clean_linker_0, # of connection points: 2
#     Edge 26, Type (0, 0), BuildingBlock: AJUNOK_clean_linker_0, # of connection points: 2
#     Edge 27, Type (0, 0), BuildingBlock: AJUNOK_clean_linker_0, # of connection points: 2
#     Edge 28, Type (0, 0), BuildingBlock: AJUNOK_clean_linker_0, # of connection points: 2
#     Edge 29, Type (0, 0), BuildingBlock: AJUNOK_clean_linker_0, # of connection points: 2
#     Edge 30, Type (0, 0), BuildingBlock: AJUNOK_clean_linker_0, # of connection points: 2
#     Edge 31, Type (0, 0), BuildingBlock: AJUNOK_clean_linker_0, # of connection points: 2
#     Edge 32, Type (0, 0), BuildingBlock: AJUNOK_clean_linker_0, # of connection points: 2
#     Edge 33, Type (0, 0), BuildingBlock: AJUNOK_clean_linker_0, # of connection points: 2
#     Edge 34, Type (0, 0), BuildingBlock: AJUNOK_clean_linker_0, # of connection points: 2
#     Edge 35, Type (0, 0), BuildingBlock: AJUNOK_clean_linker_0, # of connection points: 2
#     Edge 36, Type (0, 0), BuildingBlock: AJUNOK_clean_linker_0, # of connection points: 2
#     Edge 37, Type (0, 0), BuildingBlock: AJUNOK_clean_linker_0, # of connection points: 2
#     Edge 38, Type (0, 0), BuildingBlock: AJUNOK_clean_linker_0, # of connection points: 2
#     Edge 39, Type (0, 0), BuildingBlock: AJUNOK_clean_linker_0, # of connection points: 2
#     Edge 40, Type (0, 0), BuildingBlock: AJUNOK_clean_linker_0, # of connection points: 2
#     Edge 41, Type (0, 0), BuildingBlock: AJUNOK_clean_linker_0, # of connection points: 2
#     Edge 42, Type (0, 0), BuildingBlock: AJUNOK_clean_linker_0, # of connection points: 2
#     Edge 43, Type (0, 0), BuildingBlock: AJUNOK_clean_linker_0, # of connection points: 2
#     Edge 44, Type (0, 0), BuildingBlock: AJUNOK_clean_linker_0, # of connection points: 2
#     Edge 45, Type (0, 0), BuildingBlock: AJUNOK_clean_linker_0, # of connection points: 2
#     Edge 46, Type (0, 0), BuildingBlock: AJUNOK_clean_linker_0, # of connection points: 2
#     Edge 47, Type (0, 0), BuildingBlock: AJUNOK_clean_linker_0, # of connection points: 2
#     Edge 48, Type (0, 0), BuildingBlock: AJUNOK_clean_linker_0, # of connection points: 2
#     Edge 49, Type (0, 0), BuildingBlock: AJUNOK_clean_linker_0, # of connection points: 2
#     Edge 50, Type (0, 0), BuildingBlock: AJUNOK_clean_linker_0, # of connection points: 2
#     Edge 51, Type (0, 0), BuildingBlock: AJUNOK_clean_linker_0, # of connection points: 2
#     Edge 52, Type (0, 0), BuildingBlock: AJUNOK_clean_linker_0, # of connection points: 2
#     Edge 53, Type (0, 0), BuildingBlock: AJUNOK_clean_linker_0, # of connection points: 2
#     Edge 54, Type (0, 0), BuildingBlock: AJUNOK_clean_linker_0, # of connection points: 2
#     Edge 55, Type (0, 0), BuildingBlock: AJUNOK_clean_linker_0, # of connection points: 2
#     Edge 56, Type (0, 0), BuildingBlock: AJUNOK_clean_linker_0, # of connection points: 2
#     Edge 57, Type (0, 0), BuildingBlock: AJUNOK_clean_linker_0, # of connection points: 2
#     Edge 58, Type (0, 0), BuildingBlock: AJUNOK_clean_linker_0, # of connection points: 2
#     Edge 59, Type (0, 0), BuildingBlock: AJUNOK_clean_linker_0, # of connection points: 2
#     Edge 60, Type (0, 0), BuildingBlock: AJUNOK_clean_linker_0, # of connection points: 2
#     Edge 61, Type (0, 0), BuildingBlock: AJUNOK_clean_linker_0, # of connection points: 2
#     Edge 62, Type (0, 0), BuildingBlock: AJUNOK_clean_linker_0, # of connection points: 2
#     Edge 63, Type (0, 0), BuildingBlock: AJUNOK_clean_linker_0, # of connection points: 2
# Relax obj value: 0.397
# Max RMSD: 0.260
# Mean RMSD: 0.260
data_MOF--net-whz--node1-JUFBIX_clean_sbu_0--edge1-AJUNOK_clean_linker_0
_symmetry_space_group_name_H-M    P1
_symmetry_Int_Tables_number       1
_symmetry_cell_setting            triclinic
loop_
_symmetry_equiv_pos_as_xyz
'x, y, z'
_cell_length_a     31.444619
_cell_length_b     31.325711
_cell_length_c     32.489648
_cell_angle_alpha  89.940243
_cell_angle_beta   90.060232
_cell_angle_gamma 90.054131
loop_
_atom_site_label
_atom_site_type_symbol
_atom_site_fract_x
_atom_site_fract_y
_atom_site_fract_z
_atom_type_partial_charge
Co0 Co 0.26078 0.14653 0.15684 0.0
C1 C 0.33542 0.10192 0.17639 0.0
Co2 Co 0.3205 0.17741 0.13604 0.0
C3 C 0.17534 0.11112 0.16492 0.0
C4 C 0.21444 0.10239 0.21823 0.0
N5 N 0.21464 0.11889 0.17981 0.0
N6 N 0.15096 0.09014 0.19256 0.0
C7 C 0.17537 0.08495 0.22622 0.0
H8 H 0.16498 0.12025 0.13437 0.0
H9 H 0.24107 0.10323 0.23933 0.0
C10 C 0.24452 0.22292 0.12166 0.0
N11 N 0.36803 0.20669 0.11361 0.0
C12 C 0.40899 0.21411 0.12555 0.0
C13 C 0.36383 0.2294 0.07857 0.0
N14 N 0.42994 0.24053 0.09902 0.0
C15 C 0.40067 0.25071 0.07031 0.0
C16 C 0.27939 0.12572 0.07741 0.0
O17 O 0.22597 0.19242 0.14002 0.0
O18 O 0.28432 0.22087 0.11551 0.0
O19 O 0.31343 0.14649 0.08496 0.0
O20 O 0.25204 0.12029 0.1057 0.0
O21 O 0.3554 0.13299 0.15965 0.0
H22 H 0.33529 0.23114 0.06009 0.0
H23 H 0.42309 0.20048 0.15298 0.0
O24 O 0.2952 0.1011 0.1745 0.0
O25 O 0.26893 0.1743 0.20682 0.0
O26 O 0.325 0.20934 0.18534 0.0
C27 C 0.29661 0.20297 0.21251 0.0
H28 H 0.1655 0.07021 0.2548 0.0
H29 H 0.40483 0.27309 0.04528 0.0
Co30 Co 0.63427 0.51018 0.40254 0.0
C31 C 0.68682 0.57866 0.4246 0.0
Co32 Co 0.61002 0.57331 0.3835 0.0
C33 C 0.65495 0.41916 0.40958 0.0
C34 C 0.67831 0.45773 0.45896 0.0
N35 N 0.656 0.45973 0.42353 0.0
N36 N 0.676 0.39204 0.43496 0.0
C37 C 0.69114 0.41667 0.46567 0.0
H38 H 0.63947 0.40992 0.38119 0.0
H39 H 0.68566 0.48472 0.47845 0.0
C40 C 0.55606 0.50501 0.36615 0.0
N41 N 0.58736 0.62545 0.36371 0.0
C42 C 0.56921 0.65944 0.38305 0.0
C43 C 0.58068 0.63312 0.32332 0.0
N44 N 0.55152 0.68744 0.35604 0.0
C45 C 0.55906 0.67076 0.3186 0.0
C46 C 0.65689 0.52854 0.32346 0.0
O47 O 0.58353 0.48251 0.38506 0.0
O48 O 0.56339 0.54443 0.3602 0.0
O49 O 0.64133 0.565 0.33235 0.0
O50 O 0.6583 0.49968 0.35084 0.0
O51 O 0.65741 0.60194 0.40937 0.0
H52 H 0.58901 0.61169 0.29857 0.0
H53 H 0.56696 0.66242 0.41616 0.0
O54 O 0.68414 0.53851 0.42054 0.0
O55 O 0.60912 0.51952 0.45333 0.0
O56 O 0.57781 0.57825 0.43304 0.0
C57 C 0.58261 0.54898 0.45982 0.0
H58 H 0.71197 0.40659 0.49029 0.0
H59 H 0.54851 0.68432 0.28967 0.0
Co60 Co 0.27562 0.88932 0.65362 0.0
C61 C 0.20769 0.93953 0.679 0.0
Co62 Co 0.21282 0.86328 0.63512 0.0
C63 C 0.36504 0.91542 0.65771 0.0
C64 C 0.33068 0.92297 0.71409 0.0
N65 N 0.32621 0.9101 0.67468 0.0
N66 N 0.39343 0.93084 0.68529 0.0
C67 C 0.37175 0.93547 0.7207 0.0
H68 H 0.37188 0.90922 0.62563 0.0
H69 H 0.30549 0.92339 0.73673 0.0
C70 C 0.28164 0.81176 0.61495 0.0
N71 N 0.16037 0.84088 0.61555 0.0
C72 C 0.12641 0.82255 0.63483 0.0
C73 C 0.15221 0.83522 0.57512 0.0
N74 N 0.09797 0.80575 0.60772 0.0
C75 C 0.11437 0.81406 0.57032 0.0
C76 C 0.25515 0.91502 0.5762 0.0
O77 O 0.30335 0.84059 0.63273 0.0
O78 O 0.24178 0.81703 0.61027 0.0
O79 O 0.22021 0.89622 0.58472 0.0
O80 O 0.28415 0.91727 0.6033 0.0
O81 O 0.18464 0.91037 0.66274 0.0
H82 H 0.17337 0.84407 0.55035 0.0
H83 H 0.12369 0.8196 0.66791 0.0
O84 O 0.24773 0.93728 0.67529 0.0
O85 O 0.26798 0.86014 0.70293 0.0
O86 O 0.2087 0.8295 0.6837 0.0
C87 C 0.23908 0.83302 0.70933 0.0
H88 H 0.38463 0.9474 0.74938 0.0
H89 H 0.10044 0.80437 0.54129 0.0
Co90 Co 0.89591 0.52899 0.90432 0.0
C91 C 0.84582 0.45924 0.92755 0.0
Co92 Co 0.92194 0.46586 0.88569 0.0
C93 C 0.86922 0.61936 0.91325 0.0
C94 C 0.85863 0.57974 0.96593 0.0
N95 N 0.87378 0.57885 0.92703 0.0
N96 N 0.85201 0.64511 0.94234 0.0
C97 C 0.84548 0.62006 0.97536 0.0
H98 H 0.8774 0.62938 0.88237 0.0
H99 H 0.85716 0.55253 0.98642 0.0
C100 C 0.97313 0.53596 0.86662 0.0
N101 N 0.94525 0.41388 0.86551 0.0
C102 C 0.96278 0.37925 0.88458 0.0
C103 C 0.95239 0.40685 0.82515 0.0
N104 N 0.98054 0.35141 0.85743 0.0
C105 C 0.97363 0.36898 0.82017 0.0
C106 C 0.87138 0.50941 0.82646 0.0
O107 O 0.94483 0.55802 0.88478 0.0
O108 O 0.96762 0.496 0.86213 0.0
O109 O 0.88977 0.47413 0.835 0.0
O110 O 0.86897 0.53844 0.85364 0.0
O111 O 0.87526 0.43643 0.91179 0.0
H112 H 0.94432 0.42875 0.80063 0.0
H113 H 0.96434 0.37558 0.91767 0.0
O114 O 0.84801 0.49948 0.92425 0.0
O115 O 0.924 0.52019 0.95388 0.0
O116 O 0.95488 0.46096 0.93473 0.0
C117 C 0.95041 0.49081 0.96084 0.0
H118 H 0.83193 0.63019 1.00437 0.0
H119 H 0.98412 0.35577 0.79113 0.0
Co120 Co 0.71701 0.86187 0.89811 0.0
C121 C 0.78883 0.81611 0.92306 0.0
Co122 Co 0.77892 0.89169 0.88225 0.0
C123 C 0.62928 0.82409 0.8968 0.0
C124 C 0.6586 0.82658 0.95626 0.0
N125 N 0.66554 0.83662 0.91644 0.0
N126 N 0.60021 0.80726 0.92322 0.0
C127 C 0.61882 0.80905 0.9605 0.0
H128 H 0.62401 0.82791 0.86408 0.0
H129 H 0.68119 0.83166 0.98091 0.0
C130 C 0.70808 0.93566 0.85125 0.0
N131 N 0.82817 0.91574 0.86148 0.0
C132 C 0.86731 0.92182 0.87753 0.0
C133 C 0.83095 0.93039 0.82243 0.0
N134 N 0.89398 0.93965 0.84975 0.0
C135 C 0.87112 0.94504 0.8152 0.0
C136 C 0.74921 0.83072 0.82691 0.0
O137 O 0.68619 0.90616 0.86824 0.0
O138 O 0.74795 0.93595 0.85665 0.0
O139 O 0.77641 0.85907 0.835 0.0
O140 O 0.71674 0.82684 0.85 0.0
O141 O 0.80968 0.84662 0.9069 0.0
H142 H 0.80533 0.93022 0.80028 0.0
H143 H 0.87577 0.91404 0.90895 0.0
O144 O 0.74842 0.81826 0.92476 0.0
O145 O 0.72072 0.89608 0.94838 0.0
O146 O 0.78276 0.92312 0.93071 0.0
C147 C 0.75348 0.91856 0.95718 0.0
H148 H 0.60454 0.79825 0.98899 0.0
H149 H 0.88276 0.95857 0.78667 0.0
Co150 Co 0.42239 0.46529 0.64288 0.0
C151 C 0.47091 0.53879 0.65928 0.0
Co152 Co 0.39402 0.52712 0.6235 0.0
C153 C 0.45851 0.37571 0.64914 0.0
C154 C 0.46749 0.41612 0.70144 0.0
N155 N 0.44919 0.41539 0.66395 0.0
N156 N 0.48201 0.35208 0.67625 0.0
C157 C 0.48758 0.37821 0.70881 0.0
H158 H 0.44808 0.36454 0.61931 0.0
H159 H 0.46705 0.44313 0.72216 0.0
C160 C 0.34628 0.45481 0.6019 0.0
N161 N 0.36894 0.57554 0.60154 0.0
C162 C 0.36348 0.61524 0.61676 0.0
C163 C 0.3521 0.57699 0.5633 0.0
N164 N 0.34393 0.64116 0.58931 0.0
C165 C 0.33669 0.61708 0.55579 0.0
C166 C 0.44982 0.49112 0.56746 0.0
O167 O 0.37614 0.43301 0.6185 0.0
O168 O 0.34767 0.49515 0.60423 0.0
O169 O 0.42223 0.51971 0.57359 0.0
O170 O 0.45394 0.4609 0.59336 0.0
O171 O 0.44092 0.55912 0.64201 0.0
H172 H 0.35108 0.55041 0.54209 0.0
H173 H 0.37283 0.62459 0.64753 0.0
O174 O 0.46757 0.49867 0.6643 0.0
O175 O 0.39195 0.47271 0.69434 0.0
O176 O 0.36737 0.53529 0.67455 0.0
C177 C 0.3721 0.50722 0.70245 0.0
H178 H 0.50576 0.37096 0.73622 0.0
H179 H 0.32133 0.6278 0.52779 0.0
Co180 Co 0.81526 0.17723 0.39302 0.0
C181 C 0.74083 0.22482 0.40408 0.0
Co182 Co 0.75621 0.1476 0.36897 0.0
C183 C 0.90476 0.21216 0.40345 0.0
C184 C 0.86025 0.22789 0.45075 0.0
N185 N 0.86375 0.20525 0.41567 0.0
N186 N 0.92647 0.23812 0.42989 0.0
C187 C 0.89761 0.24851 0.45887 0.0
H188 H 0.91832 0.1986 0.37579 0.0
H189 H 0.83175 0.23027 0.4692 0.0
C190 C 0.82926 0.10049 0.35262 0.0
N191 N 0.70904 0.12163 0.34623 0.0
C192 C 0.66975 0.11647 0.36204 0.0
C193 C 0.7073 0.1036 0.30856 0.0
N194 N 0.64359 0.09604 0.33559 0.0
C195 C 0.66718 0.08773 0.302 0.0
C196 C 0.79434 0.20253 0.31468 0.0
O197 O 0.8492 0.13129 0.36997 0.0
O198 O 0.78897 0.10045 0.3532 0.0
O199 O 0.76665 0.17354 0.31867 0.0
O200 O 0.82122 0.20879 0.34338 0.0
O201 O 0.72307 0.19534 0.38369 0.0
H202 H 0.73367 0.1019 0.28726 0.0
H203 H 0.66091 0.12655 0.39272 0.0
O204 O 0.78002 0.22211 0.41304 0.0
O205 O 0.80613 0.14673 0.44442 0.0
O206 O 0.74504 0.12309 0.42037 0.0
C207 C 0.77053 0.12801 0.45035 0.0
H208 H 0.90236 0.27071 0.48392 0.0
H209 H 0.65618 0.07126 0.27471 0.0
Co210 Co 0.11227 0.57076 0.14489 0.0
C211 C 0.05778 0.50373 0.1629 0.0
Co212 Co 0.13537 0.50741 0.12444 0.0
C213 C 0.07281 0.65762 0.14591 0.0
C214 C 0.0898 0.63394 0.20548 0.0
N215 N 0.09236 0.62418 0.16509 0.0
N216 N 0.05816 0.68721 0.17297 0.0
C217 C 0.06911 0.67216 0.21031 0.0
H218 H 0.06731 0.65915 0.11305 0.0
H219 H 0.10035 0.61366 0.23039 0.0
C220 C 0.18867 0.57361 0.10094 0.0
N221 N 0.15365 0.45619 0.10216 0.0
C222 C 0.15917 0.41707 0.1188 0.0
C223 C 0.16515 0.45181 0.06235 0.0
N224 N 0.17343 0.38866 0.09067 0.0
C225 C 0.17701 0.41056 0.0552 0.0
C226 C 0.08197 0.54823 0.0694 0.0
O227 O 0.16073 0.59747 0.11793 0.0
O228 O 0.18488 0.53346 0.10424 0.0
O229 O 0.10792 0.51822 0.0751 0.0
O230 O 0.07904 0.57765 0.09614 0.0
O231 O 0.08527 0.48161 0.14384 0.0
H232 H 0.16565 0.4773 0.03986 0.0
H233 H 0.15441 0.41009 0.1511 0.0
O234 O 0.06473 0.54328 0.16902 0.0
O235 O 0.1444 0.56023 0.19554 0.0
O236 O 0.16129 0.49558 0.1749 0.0
C237 C 0.15986 0.52334 0.20329 0.0
H238 H 0.06138 0.68717 0.23936 0.0
H239 H 0.18833 0.39782 0.02626 0.0
Co240 Co 0.75514 0.64743 0.65343 0.0
C241 C 0.82208 0.59465 0.6773 0.0
Co242 Co 0.81841 0.67132 0.63417 0.0
C243 C 0.66533 0.62265 0.6598 0.0
C244 C 0.70133 0.61449 0.7152 0.0
N245 N 0.70464 0.62783 0.67576 0.0
N246 N 0.63793 0.6067 0.68798 0.0
C247 C 0.66057 0.60164 0.72275 0.0
H248 H 0.65744 0.62895 0.62793 0.0
H249 H 0.72725 0.61345 0.73709 0.0
C250 C 0.75057 0.72544 0.61545 0.0
N251 N 0.87116 0.69203 0.61423 0.0
C252 C 0.90687 0.70602 0.63387 0.0
C253 C 0.87968 0.69801 0.57394 0.0
N254 N 0.93711 0.7198 0.60712 0.0
C255 C 0.91986 0.71453 0.56953 0.0
C256 C 0.77245 0.62256 0.57519 0.0
O257 O 0.72839 0.69708 0.63342 0.0
O258 O 0.79033 0.71935 0.61069 0.0
O259 O 0.80841 0.63977 0.58311 0.0
O260 O 0.74435 0.62059 0.60315 0.0
O261 O 0.8457 0.62273 0.66018 0.0
H262 H 0.85777 0.69153 0.54905 0.0
H263 H 0.91071 0.70593 0.66698 0.0
O264 O 0.78208 0.59839 0.67418 0.0
O265 O 0.76494 0.67554 0.70257 0.0
O266 O 0.82536 0.70349 0.68356 0.0
C267 C 0.79549 0.70051 0.70973 0.0
H268 H 0.6486 0.58875 0.75143 0.0
H269 H 0.93507 0.72287 0.54073 0.0
Co270 Co 0.14226 1.00898 0.90863 0.0
C271 C 0.19328 0.07808 0.92939 0.0
Co272 Co 0.11645 0.07108 0.88787 0.0
C273 C 0.16891 0.91959 0.91528 0.0
C274 C 0.18051 0.9569 0.9693 0.0
N275 N 0.16431 0.95925 0.93083 0.0
N276 N 0.18731 0.89286 0.94273 0.0
C277 C 0.19463 0.91632 0.97663 0.0
H278 H 0.16024 0.91097 0.88412 0.0
H279 H 0.18247 0.98333 0.99063 0.0
C280 C 0.06446 1.00139 0.872 0.0
N281 N 0.0935 0.12311 0.86755 0.0
C282 C 0.07971 0.15938 0.8865 0.0
C283 C 0.08581 0.13021 0.82725 0.0
N284 N 0.06444 0.18861 0.85926 0.0
C285 C 0.06852 0.17009 0.82212 0.0
C286 C 0.16505 0.02611 0.82924 0.0
O287 O 0.09293 0.98036 0.89096 0.0
O288 O 0.07022 0.04094 0.86484 0.0
O289 O 0.14816 0.06231 0.83696 0.0
O290 O 0.16734 0.9982 0.85751 0.0
O291 O 0.16361 0.1006 0.91353 0.0
H292 H 0.09185 0.10756 0.80287 0.0
H293 H 0.08119 0.1644 0.91942 0.0
O294 O 0.19092 0.03783 0.92689 0.0
O295 O 0.11564 1.01863 0.95882 0.0
O296 O 0.08365 0.07629 0.93696 0.0
C297 C 0.08768 0.04699 0.96384 0.0
H298 H 0.20963 0.90499 1.0046 0.0
H299 H 0.05907 0.18433 0.79314 0.0
Co300 Co 0.77488 0.39274 0.15641 0.0
C301 C 0.70305 0.4426 0.1748 0.0
Co302 Co 0.71355 0.36633 0.1347 0.0
C303 C 0.8622 0.42244 0.16441 0.0
C304 C 0.82387 0.43468 0.21752 0.0
N305 N 0.82262 0.41726 0.17954 0.0
N306 N 0.88794 0.44236 0.19163 0.0
C307 C 0.86388 0.45021 0.22497 0.0
H308 H 0.87154 0.41285 0.13373 0.0
H309 H 0.79717 0.43627 0.23844 0.0
C310 C 0.78615 0.3151 0.12173 0.0
N311 N 0.66468 0.34013 0.11173 0.0
C312 C 0.62428 0.33157 0.1246 0.0
C313 C 0.66758 0.32015 0.07515 0.0
N314 N 0.60236 0.30704 0.09714 0.0
C315 C 0.63052 0.29923 0.06679 0.0
C316 C 0.75886 0.41489 0.07655 0.0
O317 O 0.80664 0.34438 0.14007 0.0
O318 O 0.74679 0.32032 0.1148 0.0
O319 O 0.72324 0.39679 0.08356 0.0
O320 O 0.78599 0.41821 0.10534 0.0
O321 O 0.6813 0.41304 0.15762 0.0
H322 H 0.69567 0.31953 0.05599 0.0
H323 H 0.61142 0.34272 0.15354 0.0
O324 O 0.74329 0.44047 0.17367 0.0
O325 O 0.76458 0.36574 0.20637 0.0
O326 O 0.70653 0.33477 0.18397 0.0
C327 C 0.73538 0.33845 0.2112 0.0
H328 H 0.8745 0.46619 0.25267 0.0
H329 H 0.62571 0.27839 0.04071 0.0
Co330 Co 0.39677 0.02989 0.40778 0.0
C331 C 0.34193 0.96445 0.42852 0.0
Co332 Co 0.41926 0.96717 0.38596 0.0
C333 C 0.37317 0.11978 0.41386 0.0
C334 C 0.36679 0.08511 0.47032 0.0
N335 N 0.37892 0.08082 0.43066 0.0
N336 N 0.35805 0.14799 0.44168 0.0
C337 C 0.35417 0.12622 0.47717 0.0
H338 H 0.37808 0.12672 0.38157 0.0
H339 H 0.36597 0.05959 0.49276 0.0
C340 C 0.47514 0.03342 0.37019 0.0
N341 N 0.43809 0.91418 0.365 0.0
C342 C 0.45224 0.87821 0.38418 0.0
C343 C 0.44261 0.90565 0.32453 0.0
N344 N 0.46478 0.84784 0.35702 0.0
C345 C 0.45849 0.8652 0.31961 0.0
C346 C 0.374 1.0166 0.32802 0.0
O347 O 0.44801 0.05526 0.39005 0.0
O348 O 0.46757 0.99422 0.3629 0.0
O349 O 0.38826 0.97917 0.33519 0.0
O350 O 0.37238 0.04354 0.35709 0.0
O351 O 0.36998 0.94066 0.41165 0.0
H352 H 0.43576 0.92775 0.29984 0.0
H353 H 0.4533 0.87434 0.41727 0.0
O354 O 0.34628 1.00459 0.42611 0.0
O355 O 0.42251 1.01713 0.45751 0.0
O356 O 0.45166 0.95846 0.43492 0.0
C357 C 0.44792 0.98658 0.46282 0.0
H358 H 0.34191 0.13888 0.50578 0.0
H359 H 0.46588 0.84996 0.29059 0.0
Co360 Co 0.21252 0.36171 0.39486 0.0
C361 C 0.28638 0.31301 0.40862 0.0
Co362 Co 0.2736 0.3906 0.37433 0.0
C363 C 0.12257 0.32724 0.40415 0.0
C364 C 0.1664 0.3119 0.45226 0.0
N365 N 0.16341 0.33422 0.41689 0.0
N366 N 0.10048 0.30156 0.43056 0.0
C367 C 0.12893 0.2914 0.46006 0.0
H368 H 0.1094 0.34051 0.37613 0.0
H369 H 0.19466 0.30966 0.47112 0.0
C370 C 0.20109 0.43864 0.35495 0.0
N371 N 0.32126 0.41605 0.35145 0.0
C372 C 0.36049 0.42386 0.36668 0.0
C373 C 0.32251 0.43069 0.31236 0.0
N374 N 0.38581 0.44303 0.33853 0.0
C375 C 0.36206 0.44682 0.30425 0.0
C376 C 0.23564 0.33542 0.3186 0.0
O377 O 0.17977 0.40838 0.37165 0.0
O378 O 0.24133 0.43752 0.35653 0.0
O379 O 0.26435 0.36304 0.32432 0.0
O380 O 0.20644 0.3308 0.34527 0.0
O381 O 0.30606 0.34335 0.39115 0.0
H382 H 0.29622 0.4296 0.29088 0.0
H383 H 0.37007 0.41627 0.39786 0.0
O384 O 0.24661 0.31615 0.41469 0.0
O385 O 0.22154 0.39146 0.44664 0.0
O386 O 0.28344 0.41627 0.42562 0.0
C387 C 0.25646 0.41082 0.45426 0.0
H388 H 0.1238 0.26946 0.48529 0.0
H389 H 0.37259 0.45994 0.27517 0.0
Co390 Co 0.92256 0.96684 0.14432 0.0
C391 C 0.98023 0.03127 0.16339 0.0
Co392 Co 0.90275 0.03188 0.12501 0.0
C393 C 0.95554 0.87705 0.14519 0.0
C394 C 0.94406 0.90347 0.20484 0.0
N395 N 0.94041 0.91264 0.16439 0.0
N396 N 0.96777 0.84629 0.17233 0.0
C397 C 0.96031 0.86317 0.20971 0.0
H398 H 0.95774 0.87383 0.1121 0.0
H399 H 0.93671 0.92516 0.22966 0.0
C400 C 0.8458 0.96809 0.10132 0.0
N401 N 0.88602 0.08417 0.1033 0.0
C402 C 0.87725 0.12209 0.1212 0.0
C403 C 0.87611 0.08984 0.06314 0.0
N404 N 0.86217 0.1506 0.09361 0.0
C405 C 0.86179 0.13052 0.05712 0.0
C406 C 0.95332 0.98882 0.06876 0.0
O407 O 0.87253 0.94246 0.11785 0.0
O408 O 0.85221 1.00794 0.10448 0.0
O409 O 0.92977 0.0205 0.07566 0.0
O410 O 0.95511 0.95876 0.09505 0.0
O411 O 0.95397 0.05549 0.14488 0.0
H412 H 0.87716 0.06531 0.0398 0.0
H413 H 0.87954 0.12794 0.15397 0.0
O414 O 0.97129 0.99196 0.16816 0.0
O415 O 0.89134 0.97832 0.19532 0.0
O416 O 0.87718 0.04392 0.17549 0.0
C417 C 0.8773 1.01564 0.20346 0.0
H418 H 0.96737 0.84782 0.2388 0.0
H419 H 0.85005 0.14381 0.02851 0.0
Co420 Co 0.32036 0.67191 0.89348 0.0
C421 C 0.25105 0.72383 0.91224 0.0
Co422 Co 0.25743 0.64635 0.8742 0.0
C423 C 0.40754 0.71102 0.89543 0.0
C424 C 0.37973 0.70035 0.95464 0.0
N425 N 0.37258 0.69399 0.91416 0.0
N426 N 0.43569 0.72775 0.92291 0.0
C427 C 0.41799 0.72064 0.96002 0.0
H428 H 0.4113 0.71295 0.86238 0.0
H429 H 0.35772 0.69236 0.979 0.0
C430 C 0.32567 0.59549 0.85031 0.0
N431 N 0.20737 0.62541 0.8514 0.0
C432 C 0.16842 0.61736 0.86717 0.0
C433 C 0.2044 0.61391 0.81142 0.0
N434 N 0.14175 0.60112 0.83842 0.0
C435 C 0.16424 0.59961 0.80329 0.0
C436 C 0.29671 0.70131 0.81832 0.0
O437 O 0.34886 0.62421 0.86709 0.0
O438 O 0.28563 0.59838 0.85348 0.0
O439 O 0.26684 0.67538 0.82511 0.0
O440 O 0.32642 0.70516 0.8446 0.0
O441 O 0.22939 0.69507 0.89427 0.0
H442 H 0.23012 0.61523 0.7894 0.0
H443 H 0.16014 0.62216 0.89916 0.0
O444 O 0.29092 0.71862 0.91714 0.0
O445 O 0.31108 0.63956 0.94411 0.0
O446 O 0.24737 0.61864 0.92442 0.0
C447 C 0.27579 0.6211 0.95213 0.0
H448 H 0.43143 0.73032 0.98926 0.0
H449 H 0.15258 0.58872 0.77376 0.0
Co450 Co 0.61133 0.06755 0.64392 0.0
C451 C 0.56214 0.99512 0.65631 0.0
Co452 Co 0.6384 1.00857 0.61727 0.0
C453 C 0.5751 0.15601 0.6514 0.0
C454 C 0.56871 0.11648 0.70475 0.0
N455 N 0.58567 0.11688 0.66677 0.0
N456 N 0.55192 0.17978 0.67853 0.0
C457 C 0.54805 0.15419 0.71184 0.0
H458 H 0.58416 0.16645 0.62093 0.0
H459 H 0.57004 0.08968 0.72573 0.0
C460 C 0.68596 0.08096 0.60013 0.0
N461 N 0.66215 0.96036 0.5938 0.0
C462 C 0.66728 0.92075 0.60937 0.0
C463 C 0.6792 0.95862 0.55572 0.0
N464 N 0.68696 0.89453 0.58246 0.0
C465 C 0.6946 0.91832 0.54876 0.0
C466 C 0.58192 0.04687 0.56615 0.0
O467 O 0.65649 0.10066 0.6194 0.0
O468 O 0.68538 0.04054 0.59904 0.0
O469 O 0.61073 0.01899 0.56845 0.0
O470 O 0.5777 0.0739 0.59514 0.0
O471 O 0.59037 0.97649 0.63494 0.0
H472 H 0.68079 0.98521 0.5345 0.0
H473 H 0.65795 0.91176 0.64025 0.0
O474 O 0.56706 0.03415 0.66562 0.0
O475 O 0.64394 0.0574 0.69456 0.0
O476 O 0.66509 0.99743 0.66661 0.0
C477 C 0.66319 0.02157 0.69783 0.0
H478 H 0.53037 0.16137 0.7395 0.0
H479 H 0.71051 0.90736 0.52119 0.0
C480 C 0.28984 0.27907 0.23137 0.0
C481 C 0.28614 0.23596 0.2428 0.0
C482 C 0.27013 0.31112 0.25438 0.0
C483 C 0.24586 0.3012 0.28946 0.0
H484 H 0.30667 0.28804 0.20358 0.0
H485 H 0.27458 0.34408 0.24511 0.0
S486 S 0.2293 0.19326 0.3339 0.0
N487 N 0.25816 0.18498 0.29225 0.0
N488 N 0.22135 0.24531 0.33587 0.0
C489 C 0.24233 0.2582 0.30146 0.0
C490 C 0.26262 0.22562 0.27816 0.0
C491 C 0.4746 0.52777 0.50415 0.0
C492 C 0.484 0.50181 0.53836 0.0
C493 C 0.50698 0.54652 0.48076 0.0
C494 C 0.54994 0.54019 0.49096 0.0
H495 H 0.44184 0.534 0.49565 0.0
H496 H 0.4983 0.56448 0.4535 0.0
S497 S 0.59155 0.47872 0.57989 0.0
N498 N 0.53941 0.47333 0.58294 0.0
N499 N 0.60031 0.50836 0.53871 0.0
C500 C 0.55978 0.51531 0.52571 0.0
C501 C 0.52686 0.49598 0.54935 0.0
C502 C 0.27328 0.80914 0.77407 0.0
C503 C 0.24934 0.79897 0.73876 0.0
C504 C 0.29231 0.7772 0.79794 0.0
C505 C 0.28837 0.73402 0.78704 0.0
H506 H 0.27773 0.84217 0.78301 0.0
H507 H 0.30855 0.78627 0.82604 0.0
S508 S 0.23317 0.69079 0.69517 0.0
N509 N 0.22552 0.74286 0.69244 0.0
N510 N 0.26116 0.68275 0.73751 0.0
C511 C 0.26558 0.7235 0.75122 0.0
C512 C 0.24591 0.75595 0.72713 0.0
C513 C 0.02605 0.49652 0.98053 0.0
C514 C 0.98311 0.50025 0.99169 0.0
C515 C 0.05794 0.51583 1.00409 0.0
C516 C 0.04802 0.53967 0.03953 0.0
H517 H 0.035 0.48002 0.95254 0.0
H518 H 0.0908 0.51123 0.99509 0.0
S519 S 0.94037 0.55654 0.08306 0.0
N520 N 0.93217 0.52823 0.04093 0.0
N521 N 0.99229 0.56405 0.08571 0.0
C522 C 1.00518 0.54338 0.05114 0.0
C523 C 0.97273 0.52358 0.02722 0.0
C524 C 0.74144 0.75824 0.79666 0.0
C525 C 0.76053 0.79864 0.79557 0.0
C526 C 0.75571 0.72548 0.77104 0.0
C527 C 0.78931 0.73194 0.74291 0.0
H528 H 0.71573 0.75154 0.81789 0.0
H529 H 0.73923 0.69512 0.77246 0.0
S530 S 0.85136 0.83155 0.72915 0.0
N531 N 0.81625 0.84297 0.76519 0.0
N532 N 0.84224 0.78138 0.71651 0.0
C533 C 0.80947 0.77183 0.7422 0.0
C534 C 0.7951 0.80523 0.76844 0.0
C535 C 0.7692 0.31202 0.27506 0.0
C536 C 0.74495 0.30332 0.23964 0.0
C537 C 0.78864 0.27918 0.29732 0.0
C538 C 0.78458 0.2364 0.2849 0.0
H539 H 0.77388 0.34466 0.28517 0.0
H540 H 0.80542 0.28729 0.3254 0.0
S541 S 0.7276 0.19681 0.19251 0.0
N542 N 0.72008 0.24895 0.19179 0.0
N543 N 0.75632 0.1871 0.23404 0.0
C544 C 0.7611 0.22728 0.24915 0.0
C545 C 0.74111 0.2607 0.22658 0.0
C546 C 0.02935 0.99184 0.05008 0.0
C547 C 0.98666 0.99568 0.03792 0.0
C548 C 0.06186 1.01142 0.02741 0.0
C549 C 0.05279 0.03589 0.99206 0.0
H550 H 0.03753 0.97554 0.07844 0.0
H551 H 0.09447 1.00712 0.03742 0.0
S552 S 0.94621 0.05199 0.94543 0.0
N553 N 0.93708 0.02319 0.98709 0.0
N554 N 0.99811 0.05998 0.94435 0.0
C555 C 1.01025 0.03902 0.97908 0.0
C556 C 0.97728 1.01871 1.00191 0.0
C557 C 0.5239 0.99476 0.47876 0.0
C558 C 0.4817 0.99436 0.49283 0.0
C559 C 0.5558 1.01548 0.50114 0.0
C560 C 0.54663 0.0366 0.5383 0.0
H561 H 0.53198 0.98089 0.44924 0.0
H562 H 0.58814 1.01432 0.48967 0.0
S563 S 0.4414 0.04176 0.58966 0.0
N564 N 0.43245 1.01509 0.54669 0.0
N565 N 0.49261 0.05351 0.58937 0.0
C566 C 0.5046 0.03579 0.55301 0.0
C567 C 0.47219 1.01455 0.53026 0.0
C568 C 0.21411 0.13402 0.9804 0.0
C569 C 0.22427 0.09622 0.95929 0.0
C570 C 0.2344 0.1445 0.01755 0.0
C571 C 0.26592 0.11796 0.03461 0.0
H572 H 0.18793 0.15383 0.97013 0.0
H573 H 0.22367 0.1724 0.03427 0.0
S574 S 0.30903 0.01918 0.98873 0.0
N575 N 0.27195 0.03492 0.956 0.0
N576 N 0.3097 0.05511 0.02592 0.0
C577 C 0.27905 0.08221 1.01232 0.0
C578 C 0.2584 0.07133 0.97451 0.0
C579 C 0.7001 0.52657 0.25851 0.0
C580 C 0.66324 0.51547 0.28017 0.0
C581 C 0.71032 0.50604 0.2213 0.0
C582 C 0.68419 0.47345 0.20461 0.0
H583 H 0.72249 0.54906 0.27167 0.0
H584 H 0.74061 0.51354 0.20717 0.0
S585 S 0.5806 0.43805 0.24729 0.0
N586 N 0.59794 0.47411 0.28034 0.0
N587 N 0.61703 0.43545 0.21079 0.0
C588 C 0.64529 0.46515 0.22433 0.0
C589 C 0.63501 0.486 0.26216 0.0
C590 C 0.26331 0.96555 0.51702 0.0
C591 C 0.26698 0.92426 0.53311 0.0
C592 C 0.28413 0.97689 0.48032 0.0
C593 C 0.31035 0.94764 0.45887 0.0
H594 H 0.24635 0.98986 0.53408 0.0
H595 H 0.28208 1.00987 0.47046 0.0
S596 S 0.3262 0.8339 0.48699 0.0
N597 N 0.2949 0.85281 0.52345 0.0
N598 N 0.33487 0.8741 0.45514 0.0
C599 C 0.31157 0.90532 0.47335 0.0
C600 C 0.28989 0.89374 0.51045 0.0
C601 C 0.80957 0.53775 0.73039 0.0
C602 C 0.83876 0.56368 0.70844 0.0
C603 C 0.82087 0.51739 0.76739 0.0
C604 C 0.86205 0.52123 0.78336 0.0
H605 H 0.77671 0.53552 0.72058 0.0
H606 H 0.79664 0.50057 0.7847 0.0
S607 S 0.95224 0.57964 0.73605 0.0
N608 N 0.91213 0.58804 0.70417 0.0
N609 N 0.93333 0.5489 0.77309 0.0
C610 C 0.89248 0.54386 0.7603 0.0
C611 C 0.88095 0.56509 0.72287 0.0
C612 C 0.79184 0.98433 0.04659 0.0
C613 C 0.81242 0.95351 0.07156 0.0
C614 C 0.76885 0.97275 1.01124 0.0
C615 C 0.76395 0.92983 1.00019 0.0
H616 H 0.79615 1.0181 0.0524 0.0
H617 H 0.75712 0.99765 0.99104 0.0
S618 S 0.80613 0.83621 0.05698 0.0
N619 N 0.82281 0.87767 0.08398 0.0
N620 N 0.77811 0.85605 0.01843 0.0
C621 C 0.78094 0.89849 0.02659 0.0
C622 C 0.80538 0.91025 0.06212 0.0
C623 C 0.3139 0.53568 0.80033 0.0
C624 C 0.34261 0.56419 0.81978 0.0
C625 C 0.32441 0.5145 0.76362 0.0
C626 C 0.36436 0.52016 0.74548 0.0
H627 H 0.2818 0.53193 0.81186 0.0
H628 H 0.30036 0.49558 0.74818 0.0
S629 S 0.45321 0.58588 0.78593 0.0
N630 N 0.41442 0.59314 0.81945 0.0
N631 N 0.43429 0.55248 0.75112 0.0
C632 C 0.39457 0.54549 0.76614 0.0
C633 C 0.3838 0.56751 0.80326 0.0
C634 C 0.77375 0.09629 0.52186 0.0
C635 C 0.75334 0.12192 0.4924 0.0
C636 C 0.75342 0.08619 0.55933 0.0
C637 C 0.71286 0.10273 0.5691 0.0
H638 H 0.80415 0.0818 0.51485 0.0
H639 H 0.76841 0.06336 0.57976 0.0
S640 S 0.64827 0.17477 0.50354 0.0
N641 N 0.6916 0.16556 0.47636 0.0
N642 N 0.6548 0.14848 0.54713 0.0
C643 C 0.69393 0.13112 0.54113 0.0
C644 C 0.7138 0.14014 0.50265 0.0
C645 C 0.15029 0.45264 0.29754 0.0
C646 C 0.18216 0.46811 0.32397 0.0
C647 C 0.14249 0.47212 0.2593 0.0
C648 C 0.16556 0.50831 0.24626 0.0
H649 H 0.13383 0.42316 0.30469 0.0
H650 H 0.11928 0.45763 0.23894 0.0
S651 S 0.24814 0.56495 0.30619 0.0
N652 N 0.23415 0.52446 0.33592 0.0
N653 N 0.21823 0.56152 0.26447 0.0
C654 C 0.1948 0.52636 0.2737 0.0
C655 C 0.20334 0.50616 0.31246 0.0
C656 C 0.72643 0.64173 0.51597 0.0
C657 C 0.75856 0.61532 0.53222 0.0
C658 C 0.70644 0.63232 0.47838 0.0
C659 C 0.71729 0.59559 0.45584 0.0
H660 H 0.71522 0.6689 0.53352 0.0
H661 H 0.68004 0.65215 0.46873 0.0
S662 S 0.80314 0.5189 0.48299 0.0
N663 N 0.80335 0.55354 0.52131 0.0
N664 N 0.76575 0.5351 0.4508 0.0
C665 C 0.75164 0.57063 0.47046 0.0
C666 C 0.77223 0.58059 0.50867 0.0
C667 C 0.14607 0.97809 0.77141 0.0
C668 C 0.17161 1.01164 0.78638 0.0
C669 C 0.15508 0.95779 0.73389 0.0
C670 C 0.19055 0.96978 0.71022 0.0
H671 H 0.11996 0.96608 0.78987 0.0
H672 H 0.13611 0.93036 0.72518 0.0
S673 S 0.26447 0.05928 0.73381 0.0
N674 N 0.23105 0.05883 0.77303 0.0
N675 N 0.24885 0.02056 0.70275 0.0
C676 C 0.21455 1.00542 0.7236 0.0
C677 C 0.20495 0.02635 0.76167 0.0
C678 C 0.80688 0.39631 0.01895 0.0
C679 C 0.7736 0.42194 0.03399 0.0
C680 C 0.82716 0.40568 0.98156 0.0
C681 C 0.81539 0.44158 0.95819 0.0
H682 H 0.81865 0.36988 0.03725 0.0
H683 H 0.85445 0.38668 0.97277 0.0
S684 S 0.72651 0.51573 0.9821 0.0
N685 N 0.72679 0.4818 0.02108 0.0
N686 N 0.76504 0.50026 0.95097 0.0
C687 C 0.77995 0.46561 0.9716 0.0
C688 C 0.75907 0.45566 1.00954 0.0
C689 C 0.33446 0.03503 0.21864 0.0
C690 C 0.3553 0.07346 0.2076 0.0
C691 C 0.34208 1.01484 0.25673 0.0
C692 C 0.37019 0.03293 0.28534 0.0
H693 H 0.30986 0.02206 0.19889 0.0
H694 H 0.32392 0.98667 0.26482 0.0
S695 S 0.43731 0.1292 0.26966 0.0
N696 N 0.40905 0.1255 0.22695 0.0
N697 N 0.42281 0.0882 0.29837 0.0
C698 C 0.39362 0.06928 0.27344 0.0
C699 C 0.38647 0.08931 0.23453 0.0
C700 C 0.28201 0.46245 0.55679 0.0
C701 C 0.31528 0.4363 0.57201 0.0
C702 C 0.26054 0.45286 0.51991 0.0
C703 C 0.27125 0.41652 0.49715 0.0
H704 H 0.27449 0.49232 0.5719 0.0
H705 H 0.23739 0.47527 0.50796 0.0
S706 S 0.35084 0.33424 0.52569 0.0
N707 N 0.35407 0.36988 0.56301 0.0
N708 N 0.31351 0.3518 0.49418 0.0
C709 C 0.30167 0.38828 0.5136 0.0
C710 C 0.32357 0.398 0.55105 0.0
C711 C 0.83734 1.0149 0.2707 0.0
C712 C 0.871 0.03002 0.24649 0.0
C713 C 0.82691 0.03513 0.30808 0.0
C714 C 0.84993 0.07099 0.32268 0.0
H715 H 0.81727 0.98931 0.25946 0.0
H716 H 0.79865 0.02449 0.32417 0.0
S717 S 0.94548 0.11775 0.27316 0.0
N718 N 0.93062 0.0791 0.24176 0.0
N719 N 0.91136 0.11675 0.31177 0.0
C720 C 0.88614 0.08351 0.30042 0.0
C721 C 0.89642 0.06325 0.26229 0.0
C722 C 0.24665 0.56093 0.04924 0.0
C723 C 0.2197 0.59017 0.06986 0.0
C724 C 0.2675 0.57173 1.01237 0.0
C725 C 0.26298 0.61246 0.99514 0.0
H726 H 0.24947 0.52833 0.06004 0.0
H727 H 0.28529 0.5474 0.99615 0.0
S728 S 0.20128 0.70264 0.03854 0.0
N729 N 0.19338 0.66316 0.07141 0.0
N730 N 0.23321 0.68343 1.00275 0.0
C731 C 0.23908 0.643 0.01683 0.0
C732 C 0.21749 0.63198 0.05415 0.0
C733 C 0.66338 0.01925 0.77635 0.0
C734 C 0.67754 1.00324 0.73805 0.0
C735 C 0.67157 0.99701 0.8136 0.0
C736 C 0.69295 0.9575 0.8134 0.0
H737 H 0.64529 0.04863 0.7775 0.0
H738 H 0.66133 1.01077 0.8425 0.0
S739 S 0.73741 0.90211 0.72218 0.0
N740 N 0.71652 0.94629 0.70362 0.0
N741 N 0.72803 0.90382 0.77201 0.0
C742 C 0.70699 0.94149 0.77547 0.0
C743 C 0.70036 0.96449 0.73828 0.0
C744 C 0.49622 0.26382 0.13599 0.0
C745 C 0.47395 0.25522 0.09911 0.0
C746 C 0.5378 0.28153 0.13554 0.0
C747 C 0.55858 0.29162 0.09821 0.0
H748 H 0.48121 0.25741 0.16532 0.0
H749 H 0.5539 0.28691 0.16453 0.0
S750 S 0.51411 0.27531 0.99316 0.0
N751 N 0.47761 0.25591 0.02432 0.0
N752 N 0.55188 0.29358 0.02357 0.0
C753 C 0.53611 0.28372 0.06136 0.0
C754 C 0.49497 0.26436 0.06179 0.0
C755 C 0.4896 0.73231 0.3388 0.0
C756 C 0.52576 0.72503 0.36343 0.0
C757 C 0.46832 0.7716 0.33906 0.0
C758 C 0.48195 0.80555 0.36411 0.0
H759 H 0.47862 0.70782 0.31782 0.0
H760 H 0.44184 0.77612 0.31816 0.0
S761 S 0.57274 0.80227 0.437 0.0
N762 N 0.57261 0.75432 0.41576 0.0
N763 N 0.53232 0.82843 0.41637 0.0
C764 C 0.51636 0.79802 0.39094 0.0
C765 C 0.5383 0.75771 0.3906 0.0
C766 C 1.01321 0.72317 0.58944 0.0
C767 C 0.97942 0.73661 0.61461 0.0
C768 C 0.05259 0.74423 0.5896 0.0
C769 C 0.06021 0.78001 0.61479 0.0
H770 H 1.00851 0.69703 0.56812 0.0
H771 H 0.07691 0.73341 0.56848 0.0
S772 S 0.98338 0.82644 0.68879 0.0
N773 N 0.957 0.78644 0.66752 0.0
N774 N 0.03123 0.82633 0.6677 0.0
C775 C 0.02763 0.79236 0.64203 0.0
C776 C 0.98722 0.77063 0.64195 0.0
C777 C 0.04074 0.30434 0.83915 0.0
C778 C 1.00541 0.31292 0.86451 0.0
C779 C 0.06133 0.2646 0.83968 0.0
C780 C 0.04799 0.23136 0.86581 0.0
H781 H 0.05175 0.32822 0.81752 0.0
H782 H 0.08712 0.2592 0.81824 0.0
S783 S 0.95913 0.2376 0.94052 0.0
N784 N 0.95948 0.28517 0.91838 0.0
N785 N 0.99858 0.21039 0.91953 0.0
C786 C 1.01435 0.24005 0.89315 0.0
C787 C 0.99304 0.2808 0.89251 0.0
C788 C 0.52444 0.80606 0.9424 0.0
C789 C 0.55712 0.79235 0.91604 0.0
C790 C 0.48426 0.78651 0.94242 0.0
C791 C 0.47469 0.75186 0.91632 0.0
H792 H 0.53062 0.83123 0.96445 0.0
H793 H 0.46083 0.79771 0.96426 0.0
S794 S 0.54825 0.70525 0.83929 0.0
N795 N 0.57652 0.74356 0.8612 0.0
N796 N 0.50091 0.70634 0.86141 0.0
C797 C 0.50627 0.73925 0.88805 0.0
C798 C 0.54747 0.75952 0.88792 0.0
C799 C 0.50574 0.28596 0.7112 0.0
C800 C 0.49781 0.30822 0.67427 0.0
C801 C 0.52411 0.24532 0.71182 0.0
C802 C 0.53463 0.22311 0.67549 0.0
H803 H 0.49777 0.29999 0.74059 0.0
H804 H 0.53035 0.23159 0.74173 0.0
S805 S 0.5192 0.26575 0.56954 0.0
N806 N 0.50217 0.30464 0.59961 0.0
N807 N 0.53442 0.2268 0.60056 0.0
C808 C 0.52625 0.24441 0.63786 0.0
C809 C 0.50812 0.28689 0.63729 0.0
C810 C 0.03469 0.27806 0.39253 0.0
C811 C 0.0562 0.28737 0.4297 0.0
C812 C 0.99275 0.26101 0.39239 0.0
C813 C 0.97073 0.25239 0.42942 0.0
H814 H 0.05054 0.28343 0.36342 0.0
H815 H 0.9773 0.25507 0.36316 0.0
S816 S 1.0128 0.27081 0.53504 0.0
N817 N 0.05057 0.28853 0.50436 0.0
N818 N 0.97541 0.25256 0.50417 0.0
C819 C 0.99243 0.26096 0.46656 0.0
C820 C 0.03402 0.27948 0.46668 0.0
C821 C 0.99638 0.73151 0.192 0.0
C822 C 0.03151 0.72438 0.16608 0.0
C823 C 0.97418 0.77035 0.19168 0.0
C824 C 0.98597 0.80424 0.16553 0.0
H825 H 0.98689 0.70722 0.21388 0.0
H826 H 0.94839 0.77454 0.21335 0.0
S827 S 0.07392 0.8012 0.0895 0.0
N828 N 0.07553 0.75363 0.11157 0.0
N829 N 0.03391 0.82702 0.11112 0.0
C830 C 0.01954 0.79683 0.13768 0.0
C831 C 0.04225 0.75687 0.13793 0.0
C832 C 0.24086 0.29074 0.08268 0.0
C833 C 0.22198 0.26267 0.11104 0.0
C834 C 0.22436 0.33141 0.07597 0.0
C835 C 0.18828 0.34582 0.09733 0.0
H836 H 0.2694 0.2817 0.0662 0.0
H837 H 0.24094 0.35225 0.05478 0.0
S838 S 0.12522 0.28389 0.17305 0.0
N839 N 0.1641 0.25134 0.15959 0.0
N840 N 0.13258 0.32816 0.14629 0.0
C841 C 0.16816 0.31775 0.12488 0.0
C842 C 0.185 0.27599 0.13173 0.0
C843 C 0.45822 0.43391 0.36671 0.0
C844 C 0.42873 0.45795 0.34389 0.0
C845 C 0.50015 0.44827 0.37216 0.0
C846 C 0.51385 0.48735 0.35523 0.0
H847 H 0.44877 0.40383 0.38038 0.0
H848 H 0.52152 0.42919 0.39076 0.0
S849 S 0.44842 0.56227 0.29306 0.0
N850 N 0.4158 0.52282 0.30475 0.0
N851 N 0.49449 0.54932 0.31389 0.0
C852 C 0.4847 0.51124 0.3317 0.0
C853 C 0.44216 0.4967 0.32635 0.0
C854 C 0.27648 0.73948 0.58363 0.0
C855 C 0.30086 0.76996 0.60492 0.0
C856 C 0.29099 0.69769 0.57856 0.0
C857 C 0.33035 0.68458 0.5947 0.0
H858 H 0.24537 0.74755 0.57157 0.0
H859 H 0.27067 0.6751 0.56276 0.0
S860 S 0.408 0.75239 0.65031 0.0
N861 N 0.36759 0.78452 0.6406 0.0
N862 N 0.39476 0.70566 0.63059 0.0
C863 C 0.3557 0.71482 0.61505 0.0
C864 C 0.34106 0.75763 0.62011 0.0
C865 C 0.02838 0.59304 0.87408 0.0
C866 C 1.01457 0.5549 0.85536 0.0
C867 C 0.07009 0.608 0.86863 0.0
C868 C 0.09913 0.58555 0.844 0.0
H869 H 1.00735 0.61071 0.8942 0.0
H870 H 0.07974 0.63725 0.88373 0.0
S871 S 0.07876 0.48438 0.78789 0.0
N872 N 0.03314 0.49573 0.81033 0.0
N873 N 0.11148 0.52324 0.80108 0.0
C874 C 0.08552 0.54782 0.82462 0.0
C875 C 0.04322 0.53269 0.83 0.0
C876 C 0.78739 0.74462 0.95609 0.0
C877 C 0.80971 0.77505 0.93279 0.0
C878 C 0.80174 0.70258 0.95919 0.0
C879 C 0.83899 0.68906 0.93909 0.0
H880 H 0.75768 0.75291 0.97093 0.0
H881 H 0.78259 0.68008 0.97641 0.0
S882 S 0.91112 0.75692 0.87689 0.0
N883 N 0.87241 0.78938 0.89093 0.0
N884 N 0.89961 0.71006 0.89742 0.0
C885 C 0.86261 0.71942 0.91695 0.0
C886 C 0.84805 0.76253 0.91385 0.0
C887 C 0.58187 0.55384 0.70038 0.0
C888 C 0.59515 0.59209 0.68178 0.0
C889 C 0.54092 0.53801 0.69436 0.0
C890 C 0.51148 0.55988 0.66955 0.0
H891 H 0.60377 0.53529 0.71888 0.0
H892 H 0.53266 0.50781 0.70856 0.0
S893 S 0.52973 0.66321 0.61623 0.0
N894 N 0.57531 0.65285 0.63949 0.0
N895 N 0.49782 0.62298 0.62762 0.0
C896 C 0.52384 0.59899 0.65175 0.0
C897 C 0.56588 0.61503 0.65782 0.0
C898 C 0.70364 0.29001 0.38057 0.0
C899 C 0.71795 0.26429 0.41312 0.0
C900 C 0.68811 0.33118 0.38798 0.0
C901 C 0.68557 0.34751 0.4283 0.0
H902 H 0.70671 0.27916 0.34905 0.0
H903 H 0.68011 0.35093 0.36176 0.0
S904 S 0.71179 0.28825 0.52431 0.0
N905 N 0.72546 0.25555 0.48681 0.0
N906 N 0.69227 0.33111 0.50151 0.0
C907 C 0.69652 0.32021 0.46126 0.0
C908 C 0.71383 0.27904 0.45347 0.0
C909 C 0.94433 0.49586 0.20044 0.0
C910 C 0.93115 0.45581 0.18577 0.0
C911 C 0.98585 0.51036 0.19427 0.0
C912 C 1.01591 0.48521 0.17337 0.0
H913 H 0.92199 0.51667 0.21587 0.0
H914 H 0.99407 0.54198 0.2052 0.0
S915 S 0.99783 0.37617 0.13178 0.0
N916 N 0.95158 0.39006 0.15169 0.0
N917 N 0.02993 0.41708 0.13973 0.0
C918 C 1.00342 0.44438 0.15964 0.0
C919 C 0.96093 0.42979 0.16579 0.0
C920 C 0.75615 0.79714 0.58237 0.0
C921 C 0.73156 0.76707 0.60406 0.0
C922 C 0.74103 0.83841 0.57496 0.0
C923 C 0.7009 0.8514 0.58921 0.0
H924 H 0.78776 0.78912 0.57166 0.0
H925 H 0.76144 0.86076 0.55893 0.0
S926 S 0.62253 0.7845 0.64487 0.0
N927 N 0.6638 0.75277 0.6379 0.0
N928 N 0.63568 0.83061 0.62374 0.0
C929 C 0.67544 0.82155 0.60995 0.0
C930 C 0.69063 0.77929 0.61731 0.0
C931 C 0.95042 0.99201 0.83752 0.0
C932 C 0.93709 0.95339 0.85531 0.0
C933 C 0.99223 1.00619 0.84156 0.0
C934 C 0.02247 0.98224 0.86354 0.0
H935 H 0.92803 1.0119 0.82097 0.0
H936 H 1.00054 0.03672 0.82806 0.0
S937 S 1.00391 0.87726 0.91385 0.0
N938 N 0.95734 0.89022 0.8939 0.0
N939 N 0.03642 0.91689 0.90215 0.0
C940 C 1.00979 0.94289 0.88074 0.0
C941 C 0.96692 0.92855 0.87664 0.0
C942 C 0.86561 0.22364 0.12154 0.0
C943 C 0.84285 0.19111 0.10167 0.0
C944 C 0.84761 0.26427 0.12683 0.0
C945 C 0.80615 0.27337 0.1127 0.0
H946 H 0.89765 0.21772 0.13237 0.0
H947 H 0.86613 0.28848 0.14251 0.0
S948 S 0.73294 0.19696 0.06103 0.0
N949 N 0.77671 0.16933 0.06958 0.0
N950 N 0.74264 0.24519 0.07907 0.0
C951 C 0.78308 0.24049 0.09319 0.0
C952 C 0.80147 0.19945 0.08786 0.0
C953 C 0.54602 0.02735 0.33642 0.0
C954 C 0.51669 0.05212 0.35868 0.0
C955 C 0.58709 0.04228 0.32847 0.0
C956 C 0.60056 0.08243 0.34264 0.0
H957 H 0.5376 0.99571 0.3257 0.0
H958 H 0.60891 0.02167 0.31212 0.0
S959 S 0.53538 0.16143 0.39927 0.0
N960 N 0.50342 0.12014 0.39274 0.0
N961 N 0.58085 0.14803 0.37748 0.0
C962 C 0.57136 0.10815 0.36383 0.0
C963 C 0.52933 0.09309 0.37182 0.0
C964 C 0.28819 0.24434 0.44647 0.0
C965 C 0.3081 0.27283 0.41918 0.0
C966 C 0.30512 0.20398 0.45394 0.0
C967 C 0.34253 0.19038 0.43432 0.0
H968 H 0.25879 0.25292 0.46171 0.0
H969 H 0.28803 0.18276 0.4744 0.0
S970 S 0.40803 0.2533 0.36145 0.0
N971 N 0.36804 0.28519 0.37321 0.0
N972 N 0.4001 0.2089 0.38782 0.0
C973 C 0.36337 0.21872 0.40762 0.0
C974 C 0.3462 0.26014 0.40006 0.0
C975 C 0.0363 0.08775 0.16087 0.0
C976 C 0.02278 0.04741 0.17496 0.0
C977 C 0.07822 0.10157 0.16677 0.0
C978 C 0.10793 0.07578 0.18731 0.0
H979 H 1.01476 0.1084 0.14411 0.0
H980 H 0.08752 0.13263 0.1552 0.0
S981 S 0.08885 0.9679 0.23075 0.0
N982 N 0.04254 0.98228 0.21128 0.0
N983 N 0.12135 1.00822 0.22175 0.0
C984 C 0.09474 0.03583 0.20228 0.0
C985 C 0.05214 0.02168 0.19629 0.0
C986 C 0.2403 0.83625 0.95265 0.0
C987 C 0.20103 0.84964 0.9365 0.0
C988 C 0.25527 0.79487 0.94611 0.0
C989 C 0.23148 0.76514 0.92329 0.0
H990 H 0.26024 0.85836 0.96949 0.0
H991 H 0.28627 0.78655 0.95828 0.0
S992 S 0.12468 0.78353 0.87748 0.0
N993 N 0.13723 0.82952 0.89915 0.0
N994 N 0.16528 0.7514 0.88638 0.0
C995 C 0.19131 0.77767 0.9082 0.0
C996 C 0.17619 0.82006 0.91476 0.0
C997 C 0.45226 0.98005 0.69986 0.0
C998 C 0.4366 0.94432 0.67855 0.0
C999 C 0.49364 0.99467 0.69389 0.0
C1000 C 0.52124 0.97432 0.66616 0.0
H1001 H 0.43197 0.99774 0.72061 0.0
H1002 H 0.5036 0.02298 0.71045 0.0
S1003 S 0.49659 0.87789 0.60419 0.0
N1004 N 0.45246 0.8874 0.63015 0.0
N1005 N 0.53052 0.91555 0.61798 0.0
C1006 C 0.5065 0.93782 0.64526 0.0
C1007 C 0.46405 0.9228 0.6515 0.0
loop_
_geom_bond_atom_site_label_1
_geom_bond_atom_site_label_2
_geom_bond_distance
_geom_bond_site_symmetry_2
_ccdc_geom_bond_type
Co0 N5 2.057 . S
Co0 O17 2.021 . S
Co0 O20 2.062 . S
Co0 O24 2.117 . S
Co0 O25 2.020 . S
C1 O21 1.259 . S
C1 O24 1.258 . S
Co2 N11 2.057 . S
Co2 O18 2.117 . S
Co2 O19 2.020 . S
Co2 O21 2.021 . S
Co2 O26 2.062 . S
C3 N5 1.316 . S
C3 N6 1.347 . S
C3 H8 0.931 . S
C4 N5 1.375 . S
C4 C7 1.350 . S
C4 H9 0.930 . S
N5 Co0 2.057 . S
N5 C3 1.316 . S
N5 C4 1.375 . S
N6 C3 1.347 . S
N6 C7 1.373 . S
C7 C4 1.350 . S
C7 N6 1.373 . S
C7 H28 0.931 . S
H8 C3 0.931 . S
H9 C4 0.930 . S
C10 O17 1.259 . S
C10 O18 1.258 . S
N11 Co2 2.057 . S
N11 C12 1.316 . S
N11 C13 1.375 . S
C12 N11 1.316 . S
C12 N14 1.347 . S
C12 H23 0.931 . S
C13 N11 1.375 . S
C13 C15 1.350 . S
C13 H22 0.930 . S
N14 C12 1.347 . S
N14 C15 1.373 . S
C15 C13 1.350 . S
C15 N14 1.373 . S
C15 H29 0.931 . S
C16 O19 1.256 . S
C16 O20 1.255 . S
O17 Co0 2.021 . S
O17 C10 1.259 . S
O18 Co2 2.117 . S
O18 C10 1.258 . S
O19 Co2 2.020 . S
O19 C16 1.256 . S
O20 Co0 2.062 . S
O20 C16 1.255 . S
O21 C1 1.259 . S
O21 Co2 2.021 . S
H22 C13 0.930 . S
H23 C12 0.931 . S
O24 Co0 2.117 . S
O24 C1 1.258 . S
O25 Co0 2.020 . S
O25 C27 1.256 . S
O26 Co2 2.062 . S
O26 C27 1.255 . S
C27 O25 1.256 . S
C27 O26 1.255 . S
H28 C7 0.931 . S
H29 C15 0.931 . S
Co30 N35 2.057 . S
Co30 O47 2.021 . S
Co30 O50 2.062 . S
Co30 O54 2.117 . S
Co30 O55 2.020 . S
C31 O51 1.259 . S
C31 O54 1.258 . S
Co32 N41 2.057 . S
Co32 O48 2.117 . S
Co32 O49 2.020 . S
Co32 O51 2.021 . S
Co32 O56 2.062 . S
C33 N35 1.316 . S
C33 N36 1.347 . S
C33 H38 0.931 . S
C34 N35 1.375 . S
C34 C37 1.350 . S
C34 H39 0.930 . S
N35 Co30 2.057 . S
N35 C33 1.316 . S
N35 C34 1.375 . S
N36 C33 1.347 . S
N36 C37 1.373 . S
C37 C34 1.350 . S
C37 N36 1.373 . S
C37 H58 0.931 . S
H38 C33 0.931 . S
H39 C34 0.930 . S
C40 O47 1.259 . S
C40 O48 1.258 . S
N41 Co32 2.057 . S
N41 C42 1.316 . S
N41 C43 1.375 . S
C42 N41 1.316 . S
C42 N44 1.347 . S
C42 H53 0.931 . S
C43 N41 1.375 . S
C43 C45 1.350 . S
C43 H52 0.930 . S
N44 C42 1.347 . S
N44 C45 1.373 . S
C45 C43 1.350 . S
C45 N44 1.373 . S
C45 H59 0.931 . S
C46 O49 1.256 . S
C46 O50 1.255 . S
O47 Co30 2.021 . S
O47 C40 1.259 . S
O48 Co32 2.117 . S
O48 C40 1.258 . S
O49 Co32 2.020 . S
O49 C46 1.256 . S
O50 Co30 2.062 . S
O50 C46 1.255 . S
O51 C31 1.259 . S
O51 Co32 2.021 . S
H52 C43 0.930 . S
H53 C42 0.931 . S
O54 Co30 2.117 . S
O54 C31 1.258 . S
O55 Co30 2.020 . S
O55 C57 1.256 . S
O56 Co32 2.062 . S
O56 C57 1.255 . S
C57 O55 1.256 . S
C57 O56 1.255 . S
H58 C37 0.931 . S
H59 C45 0.931 . S
Co60 N65 2.057 . S
Co60 O77 2.021 . S
Co60 O80 2.062 . S
Co60 O84 2.117 . S
Co60 O85 2.020 . S
C61 O81 1.259 . S
C61 O84 1.258 . S
Co62 N71 2.057 . S
Co62 O78 2.117 . S
Co62 O79 2.020 . S
Co62 O81 2.021 . S
Co62 O86 2.062 . S
C63 N65 1.316 . S
C63 N66 1.347 . S
C63 H68 0.931 . S
C64 N65 1.375 . S
C64 C67 1.350 . S
C64 H69 0.930 . S
N65 Co60 2.057 . S
N65 C63 1.316 . S
N65 C64 1.375 . S
N66 C63 1.347 . S
N66 C67 1.373 . S
C67 C64 1.350 . S
C67 N66 1.373 . S
C67 H88 0.931 . S
H68 C63 0.931 . S
H69 C64 0.930 . S
C70 O77 1.259 . S
C70 O78 1.258 . S
N71 Co62 2.057 . S
N71 C72 1.316 . S
N71 C73 1.375 . S
C72 N71 1.316 . S
C72 N74 1.347 . S
C72 H83 0.931 . S
C73 N71 1.375 . S
C73 C75 1.350 . S
C73 H82 0.930 . S
N74 C72 1.347 . S
N74 C75 1.373 . S
C75 C73 1.350 . S
C75 N74 1.373 . S
C75 H89 0.931 . S
C76 O79 1.256 . S
C76 O80 1.255 . S
O77 Co60 2.021 . S
O77 C70 1.259 . S
O78 Co62 2.117 . S
O78 C70 1.258 . S
O79 Co62 2.020 . S
O79 C76 1.256 . S
O80 Co60 2.062 . S
O80 C76 1.255 . S
O81 C61 1.259 . S
O81 Co62 2.021 . S
H82 C73 0.930 . S
H83 C72 0.931 . S
O84 Co60 2.117 . S
O84 C61 1.258 . S
O85 Co60 2.020 . S
O85 C87 1.256 . S
O86 Co62 2.062 . S
O86 C87 1.255 . S
C87 O85 1.256 . S
C87 O86 1.255 . S
H88 C67 0.931 . S
H89 C75 0.931 . S
Co90 N95 2.057 . S
Co90 O107 2.021 . S
Co90 O110 2.062 . S
Co90 O114 2.117 . S
Co90 O115 2.020 . S
C91 O111 1.259 . S
C91 O114 1.258 . S
Co92 N101 2.057 . S
Co92 O108 2.117 . S
Co92 O109 2.020 . S
Co92 O111 2.021 . S
Co92 O116 2.062 . S
C93 N95 1.316 . S
C93 N96 1.347 . S
C93 H98 0.931 . S
C94 N95 1.375 . S
C94 C97 1.350 . S
C94 H99 0.930 . S
N95 Co90 2.057 . S
N95 C93 1.316 . S
N95 C94 1.375 . S
N96 C93 1.347 . S
N96 C97 1.373 . S
C97 C94 1.350 . S
C97 N96 1.373 . S
C97 H118 0.931 . S
H98 C93 0.931 . S
H99 C94 0.930 . S
C100 O107 1.259 . S
C100 O108 1.258 . S
N101 Co92 2.057 . S
N101 C102 1.316 . S
N101 C103 1.375 . S
C102 N101 1.316 . S
C102 N104 1.347 . S
C102 H113 0.931 . S
C103 N101 1.375 . S
C103 C105 1.350 . S
C103 H112 0.930 . S
N104 C102 1.347 . S
N104 C105 1.373 . S
C105 C103 1.350 . S
C105 N104 1.373 . S
C105 H119 0.931 1_655 S
C106 O109 1.256 . S
C106 O110 1.255 . S
O107 Co90 2.021 . S
O107 C100 1.259 . S
O108 Co92 2.117 . S
O108 C100 1.258 . S
O109 Co92 2.020 . S
O109 C106 1.256 . S
O110 Co90 2.062 . S
O110 C106 1.255 . S
O111 C91 1.259 . S
O111 Co92 2.021 . S
H112 C103 0.930 . S
H113 C102 0.931 . S
O114 Co90 2.117 . S
O114 C91 1.258 . S
O115 Co90 2.020 . S
O115 C117 1.256 . S
O116 Co92 2.062 . S
O116 C117 1.255 . S
C117 O115 1.256 . S
C117 O116 1.255 . S
H118 C97 0.931 . S
H119 C105 0.931 1_455 S
Co120 N125 2.057 . S
Co120 O137 2.021 . S
Co120 O140 2.062 . S
Co120 O144 2.117 . S
Co120 O145 2.020 . S
C121 O141 1.259 . S
C121 O144 1.258 . S
Co122 N131 2.057 . S
Co122 O138 2.117 . S
Co122 O139 2.020 . S
Co122 O141 2.021 . S
Co122 O146 2.062 . S
C123 N125 1.316 . S
C123 N126 1.347 . S
C123 H128 0.931 . S
C124 N125 1.375 . S
C124 C127 1.350 . S
C124 H129 0.930 . S
N125 Co120 2.057 . S
N125 C123 1.316 . S
N125 C124 1.375 . S
N126 C123 1.347 . S
N126 C127 1.373 . S
C127 C124 1.350 . S
C127 N126 1.373 . S
C127 H148 0.931 . S
H128 C123 0.931 . S
H129 C124 0.930 . S
C130 O137 1.259 . S
C130 O138 1.258 . S
N131 Co122 2.057 . S
N131 C132 1.316 . S
N131 C133 1.375 . S
C132 N131 1.316 . S
C132 N134 1.347 . S
C132 H143 0.931 . S
C133 N131 1.375 . S
C133 C135 1.350 . S
C133 H142 0.930 . S
N134 C132 1.347 . S
N134 C135 1.373 . S
C135 C133 1.350 . S
C135 N134 1.373 . S
C135 H149 0.931 . S
C136 O139 1.256 . S
C136 O140 1.255 . S
O137 Co120 2.021 . S
O137 C130 1.259 . S
O138 Co122 2.117 . S
O138 C130 1.258 . S
O139 Co122 2.020 . S
O139 C136 1.256 . S
O140 Co120 2.062 . S
O140 C136 1.255 . S
O141 C121 1.259 . S
O141 Co122 2.021 . S
H142 C133 0.930 . S
H143 C132 0.931 . S
O144 Co120 2.117 . S
O144 C121 1.258 . S
O145 Co120 2.020 . S
O145 C147 1.256 . S
O146 Co122 2.062 . S
O146 C147 1.255 . S
C147 O145 1.256 . S
C147 O146 1.255 . S
H148 C127 0.931 . S
H149 C135 0.931 . S
Co150 N155 2.057 . S
Co150 O167 2.021 . S
Co150 O170 2.062 . S
Co150 O174 2.117 . S
Co150 O175 2.020 . S
C151 O171 1.259 . S
C151 O174 1.258 . S
Co152 N161 2.057 . S
Co152 O168 2.117 . S
Co152 O169 2.020 . S
Co152 O171 2.021 . S
Co152 O176 2.062 . S
C153 N155 1.316 . S
C153 N156 1.347 . S
C153 H158 0.931 . S
C154 N155 1.375 . S
C154 C157 1.350 . S
C154 H159 0.930 . S
N155 Co150 2.057 . S
N155 C153 1.316 . S
N155 C154 1.375 . S
N156 C153 1.347 . S
N156 C157 1.373 . S
C157 C154 1.350 . S
C157 N156 1.373 . S
C157 H178 0.931 . S
H158 C153 0.931 . S
H159 C154 0.930 . S
C160 O167 1.259 . S
C160 O168 1.258 . S
N161 Co152 2.057 . S
N161 C162 1.316 . S
N161 C163 1.375 . S
C162 N161 1.316 . S
C162 N164 1.347 . S
C162 H173 0.931 . S
C163 N161 1.375 . S
C163 C165 1.350 . S
C163 H172 0.930 . S
N164 C162 1.347 . S
N164 C165 1.373 . S
C165 C163 1.350 . S
C165 N164 1.373 . S
C165 H179 0.931 . S
C166 O169 1.256 . S
C166 O170 1.255 . S
O167 Co150 2.021 . S
O167 C160 1.259 . S
O168 Co152 2.117 . S
O168 C160 1.258 . S
O169 Co152 2.020 . S
O169 C166 1.256 . S
O170 Co150 2.062 . S
O170 C166 1.255 . S
O171 C151 1.259 . S
O171 Co152 2.021 . S
H172 C163 0.930 . S
H173 C162 0.931 . S
O174 Co150 2.117 . S
O174 C151 1.258 . S
O175 Co150 2.020 . S
O175 C177 1.256 . S
O176 Co152 2.062 . S
O176 C177 1.255 . S
C177 O175 1.256 . S
C177 O176 1.255 . S
H178 C157 0.931 . S
H179 C165 0.931 . S
Co180 N185 2.057 . S
Co180 O197 2.021 . S
Co180 O200 2.062 . S
Co180 O204 2.117 . S
Co180 O205 2.020 . S
C181 O201 1.259 . S
C181 O204 1.258 . S
Co182 N191 2.057 . S
Co182 O198 2.117 . S
Co182 O199 2.020 . S
Co182 O201 2.021 . S
Co182 O206 2.062 . S
C183 N185 1.316 . S
C183 N186 1.347 . S
C183 H188 0.931 . S
C184 N185 1.375 . S
C184 C187 1.350 . S
C184 H189 0.930 . S
N185 Co180 2.057 . S
N185 C183 1.316 . S
N185 C184 1.375 . S
N186 C183 1.347 . S
N186 C187 1.373 . S
C187 C184 1.350 . S
C187 N186 1.373 . S
C187 H208 0.931 . S
H188 C183 0.931 . S
H189 C184 0.930 . S
C190 O197 1.259 . S
C190 O198 1.258 . S
N191 Co182 2.057 . S
N191 C192 1.316 . S
N191 C193 1.375 . S
C192 N191 1.316 . S
C192 N194 1.347 . S
C192 H203 0.931 . S
C193 N191 1.375 . S
C193 C195 1.350 . S
C193 H202 0.930 . S
N194 C192 1.347 . S
N194 C195 1.373 . S
C195 C193 1.350 . S
C195 N194 1.373 . S
C195 H209 0.931 . S
C196 O199 1.256 . S
C196 O200 1.255 . S
O197 Co180 2.021 . S
O197 C190 1.259 . S
O198 Co182 2.117 . S
O198 C190 1.258 . S
O199 Co182 2.020 . S
O199 C196 1.256 . S
O200 Co180 2.062 . S
O200 C196 1.255 . S
O201 C181 1.259 . S
O201 Co182 2.021 . S
H202 C193 0.930 . S
H203 C192 0.931 . S
O204 Co180 2.117 . S
O204 C181 1.258 . S
O205 Co180 2.020 . S
O205 C207 1.256 . S
O206 Co182 2.062 . S
O206 C207 1.255 . S
C207 O205 1.256 . S
C207 O206 1.255 . S
H208 C187 0.931 . S
H209 C195 0.931 . S
Co210 N215 2.057 . S
Co210 O227 2.021 . S
Co210 O230 2.062 . S
Co210 O234 2.117 . S
Co210 O235 2.020 . S
C211 O231 1.259 . S
C211 O234 1.258 . S
Co212 N221 2.057 . S
Co212 O228 2.117 . S
Co212 O229 2.020 . S
Co212 O231 2.021 . S
Co212 O236 2.062 . S
C213 N215 1.316 . S
C213 N216 1.347 . S
C213 H218 0.931 . S
C214 N215 1.375 . S
C214 C217 1.350 . S
C214 H219 0.930 . S
N215 Co210 2.057 . S
N215 C213 1.316 . S
N215 C214 1.375 . S
N216 C213 1.347 . S
N216 C217 1.373 . S
C217 C214 1.350 . S
C217 N216 1.373 . S
C217 H238 0.931 1_455 S
H218 C213 0.931 . S
H219 C214 0.930 . S
C220 O227 1.259 . S
C220 O228 1.258 . S
N221 Co212 2.057 . S
N221 C222 1.316 . S
N221 C223 1.375 . S
C222 N221 1.316 . S
C222 N224 1.347 . S
C222 H233 0.931 . S
C223 N221 1.375 . S
C223 C225 1.350 . S
C223 H232 0.930 . S
N224 C222 1.347 . S
N224 C225 1.373 . S
C225 C223 1.350 . S
C225 N224 1.373 . S
C225 H239 0.931 . S
C226 O229 1.256 . S
C226 O230 1.255 . S
O227 Co210 2.021 . S
O227 C220 1.259 . S
O228 Co212 2.117 . S
O228 C220 1.258 . S
O229 Co212 2.020 . S
O229 C226 1.256 . S
O230 Co210 2.062 . S
O230 C226 1.255 . S
O231 C211 1.259 . S
O231 Co212 2.021 . S
H232 C223 0.930 . S
H233 C222 0.931 . S
O234 Co210 2.117 . S
O234 C211 1.258 . S
O235 Co210 2.020 . S
O235 C237 1.256 . S
O236 Co212 2.062 . S
O236 C237 1.255 . S
C237 O235 1.256 . S
C237 O236 1.255 . S
H238 C217 0.931 1_655 S
H239 C225 0.931 . S
Co240 N245 2.057 . S
Co240 O257 2.021 . S
Co240 O260 2.062 . S
Co240 O264 2.117 . S
Co240 O265 2.020 . S
C241 O261 1.259 . S
C241 O264 1.258 . S
Co242 N251 2.057 . S
Co242 O258 2.117 . S
Co242 O259 2.020 . S
Co242 O261 2.021 . S
Co242 O266 2.062 . S
C243 N245 1.316 . S
C243 N246 1.347 . S
C243 H248 0.931 . S
C244 N245 1.375 . S
C244 C247 1.350 . S
C244 H249 0.930 . S
N245 Co240 2.057 . S
N245 C243 1.316 . S
N245 C244 1.375 . S
N246 C243 1.347 . S
N246 C247 1.373 . S
C247 C244 1.350 . S
C247 N246 1.373 . S
C247 H268 0.931 . S
H248 C243 0.931 . S
H249 C244 0.930 . S
C250 O257 1.259 . S
C250 O258 1.258 . S
N251 Co242 2.057 . S
N251 C252 1.316 . S
N251 C253 1.375 . S
C252 N251 1.316 . S
C252 N254 1.347 . S
C252 H263 0.931 . S
C253 N251 1.375 . S
C253 C255 1.350 . S
C253 H262 0.930 . S
N254 C252 1.347 . S
N254 C255 1.373 . S
C255 C253 1.350 . S
C255 N254 1.373 . S
C255 H269 0.931 . S
C256 O259 1.256 . S
C256 O260 1.255 . S
O257 Co240 2.021 . S
O257 C250 1.259 . S
O258 Co242 2.117 . S
O258 C250 1.258 . S
O259 Co242 2.020 . S
O259 C256 1.256 . S
O260 Co240 2.062 . S
O260 C256 1.255 . S
O261 C241 1.259 . S
O261 Co242 2.021 . S
H262 C253 0.930 . S
H263 C252 0.931 . S
O264 Co240 2.117 . S
O264 C241 1.258 . S
O265 Co240 2.020 . S
O265 C267 1.256 . S
O266 Co242 2.062 . S
O266 C267 1.255 . S
C267 O265 1.256 . S
C267 O266 1.255 . S
H268 C247 0.931 . S
H269 C255 0.931 . S
Co270 N275 2.057 . S
Co270 O287 2.021 . S
Co270 O290 2.062 . S
Co270 O294 2.117 1_565 S
Co270 O295 2.020 . S
C271 O291 1.259 . S
C271 O294 1.258 . S
Co272 N281 2.057 . S
Co272 O288 2.117 . S
Co272 O289 2.020 . S
Co272 O291 2.021 . S
Co272 O296 2.062 . S
C273 N275 1.316 . S
C273 N276 1.347 . S
C273 H278 0.931 . S
C274 N275 1.375 . S
C274 C277 1.350 . S
C274 H279 0.930 . S
N275 Co270 2.057 . S
N275 C273 1.316 . S
N275 C274 1.375 . S
N276 C273 1.347 . S
N276 C277 1.373 . S
C277 C274 1.350 . S
C277 N276 1.373 . S
C277 H298 0.931 . S
H278 C273 0.931 . S
H279 C274 0.930 . S
C280 O287 1.259 . S
C280 O288 1.258 1_565 S
N281 Co272 2.057 . S
N281 C282 1.316 . S
N281 C283 1.375 . S
C282 N281 1.316 . S
C282 N284 1.347 . S
C282 H293 0.931 . S
C283 N281 1.375 . S
C283 C285 1.350 . S
C283 H292 0.930 . S
N284 C282 1.347 . S
N284 C285 1.373 . S
C285 C283 1.350 . S
C285 N284 1.373 . S
C285 H299 0.931 1_455 S
C286 O289 1.256 . S
C286 O290 1.255 1_545 S
O287 Co270 2.021 . S
O287 C280 1.259 . S
O288 Co272 2.117 . S
O288 C280 1.258 1_545 S
O289 Co272 2.020 . S
O289 C286 1.256 . S
O290 Co270 2.062 . S
O290 C286 1.255 1_565 S
O291 C271 1.259 . S
O291 Co272 2.021 . S
H292 C283 0.930 . S
H293 C282 0.931 . S
O294 Co270 2.117 1_545 S
O294 C271 1.258 . S
O295 Co270 2.020 . S
O295 C297 1.256 1_565 S
O296 Co272 2.062 . S
O296 C297 1.255 . S
C297 O295 1.256 1_545 S
C297 O296 1.255 . S
H298 C277 0.931 . S
H299 C285 0.931 1_655 S
Co300 N305 2.057 . S
Co300 O317 2.021 . S
Co300 O320 2.062 . S
Co300 O324 2.117 . S
Co300 O325 2.020 . S
C301 O321 1.259 . S
C301 O324 1.258 . S
Co302 N311 2.057 . S
Co302 O318 2.117 . S
Co302 O319 2.020 . S
Co302 O321 2.021 . S
Co302 O326 2.062 . S
C303 N305 1.316 . S
C303 N306 1.347 . S
C303 H308 0.931 . S
C304 N305 1.375 . S
C304 C307 1.350 . S
C304 H309 0.930 . S
N305 Co300 2.057 . S
N305 C303 1.316 . S
N305 C304 1.375 . S
N306 C303 1.347 . S
N306 C307 1.373 . S
C307 C304 1.350 . S
C307 N306 1.373 . S
C307 H328 0.931 . S
H308 C303 0.931 . S
H309 C304 0.930 . S
C310 O317 1.259 . S
C310 O318 1.258 . S
N311 Co302 2.057 . S
N311 C312 1.316 . S
N311 C313 1.375 . S
C312 N311 1.316 . S
C312 N314 1.347 . S
C312 H323 0.931 . S
C313 N311 1.375 . S
C313 C315 1.350 . S
C313 H322 0.930 . S
N314 C312 1.347 . S
N314 C315 1.373 . S
C315 C313 1.350 . S
C315 N314 1.373 . S
C315 H329 0.931 . S
C316 O319 1.256 . S
C316 O320 1.255 . S
O317 Co300 2.021 . S
O317 C310 1.259 . S
O318 Co302 2.117 . S
O318 C310 1.258 . S
O319 Co302 2.020 . S
O319 C316 1.256 . S
O320 Co300 2.062 . S
O320 C316 1.255 . S
O321 C301 1.259 . S
O321 Co302 2.021 . S
H322 C313 0.930 . S
H323 C312 0.931 . S
O324 Co300 2.117 . S
O324 C301 1.258 . S
O325 Co300 2.020 . S
O325 C327 1.256 . S
O326 Co302 2.062 . S
O326 C327 1.255 . S
C327 O325 1.256 . S
C327 O326 1.255 . S
H328 C307 0.931 . S
H329 C315 0.931 . S
Co330 N335 2.057 . S
Co330 O347 2.021 . S
Co330 O350 2.062 . S
Co330 O354 2.117 1_545 S
Co330 O355 2.020 . S
C331 O351 1.259 . S
C331 O354 1.258 . S
Co332 N341 2.057 . S
Co332 O348 2.117 . S
Co332 O349 2.020 . S
Co332 O351 2.021 . S
Co332 O356 2.062 . S
C333 N335 1.316 . S
C333 N336 1.347 . S
C333 H338 0.931 . S
C334 N335 1.375 . S
C334 C337 1.350 . S
C334 H339 0.930 . S
N335 Co330 2.057 . S
N335 C333 1.316 . S
N335 C334 1.375 . S
N336 C333 1.347 . S
N336 C337 1.373 . S
C337 C334 1.350 . S
C337 N336 1.373 . S
C337 H358 0.931 . S
H338 C333 0.931 . S
H339 C334 0.930 . S
C340 O347 1.259 . S
C340 O348 1.258 1_545 S
N341 Co332 2.057 . S
N341 C342 1.316 . S
N341 C343 1.375 . S
C342 N341 1.316 . S
C342 N344 1.347 . S
C342 H353 0.931 . S
C343 N341 1.375 . S
C343 C345 1.350 . S
C343 H352 0.930 . S
N344 C342 1.347 . S
N344 C345 1.373 . S
C345 C343 1.350 . S
C345 N344 1.373 . S
C345 H359 0.931 . S
C346 O349 1.256 . S
C346 O350 1.255 1_565 S
O347 Co330 2.021 . S
O347 C340 1.259 . S
O348 Co332 2.117 . S
O348 C340 1.258 1_565 S
O349 Co332 2.020 . S
O349 C346 1.256 . S
O350 Co330 2.062 . S
O350 C346 1.255 1_545 S
O351 C331 1.259 . S
O351 Co332 2.021 . S
H352 C343 0.930 . S
H353 C342 0.931 . S
O354 Co330 2.117 1_565 S
O354 C331 1.258 . S
O355 Co330 2.020 . S
O355 C357 1.256 1_545 S
O356 Co332 2.062 . S
O356 C357 1.255 . S
C357 O355 1.256 1_565 S
C357 O356 1.255 . S
H358 C337 0.931 . S
H359 C345 0.931 . S
Co360 N365 2.057 . S
Co360 O377 2.021 . S
Co360 O380 2.062 . S
Co360 O384 2.117 . S
Co360 O385 2.020 . S
C361 O381 1.259 . S
C361 O384 1.258 . S
Co362 N371 2.057 . S
Co362 O378 2.117 . S
Co362 O379 2.020 . S
Co362 O381 2.021 . S
Co362 O386 2.062 . S
C363 N365 1.316 . S
C363 N366 1.347 . S
C363 H368 0.931 . S
C364 N365 1.375 . S
C364 C367 1.350 . S
C364 H369 0.930 . S
N365 Co360 2.057 . S
N365 C363 1.316 . S
N365 C364 1.375 . S
N366 C363 1.347 . S
N366 C367 1.373 . S
C367 C364 1.350 . S
C367 N366 1.373 . S
C367 H388 0.931 . S
H368 C363 0.931 . S
H369 C364 0.930 . S
C370 O377 1.259 . S
C370 O378 1.258 . S
N371 Co362 2.057 . S
N371 C372 1.316 . S
N371 C373 1.375 . S
C372 N371 1.316 . S
C372 N374 1.347 . S
C372 H383 0.931 . S
C373 N371 1.375 . S
C373 C375 1.350 . S
C373 H382 0.930 . S
N374 C372 1.347 . S
N374 C375 1.373 . S
C375 C373 1.350 . S
C375 N374 1.373 . S
C375 H389 0.931 . S
C376 O379 1.256 . S
C376 O380 1.255 . S
O377 Co360 2.021 . S
O377 C370 1.259 . S
O378 Co362 2.117 . S
O378 C370 1.258 . S
O379 Co362 2.020 . S
O379 C376 1.256 . S
O380 Co360 2.062 . S
O380 C376 1.255 . S
O381 C361 1.259 . S
O381 Co362 2.021 . S
H382 C373 0.930 . S
H383 C372 0.931 . S
O384 Co360 2.117 . S
O384 C361 1.258 . S
O385 Co360 2.020 . S
O385 C387 1.256 . S
O386 Co362 2.062 . S
O386 C387 1.255 . S
C387 O385 1.256 . S
C387 O386 1.255 . S
H388 C367 0.931 . S
H389 C375 0.931 . S
Co390 N395 2.057 . S
Co390 O407 2.021 . S
Co390 O410 2.062 . S
Co390 O414 2.117 . S
Co390 O415 2.020 . S
C391 O411 1.259 . S
C391 O414 1.258 1_545 S
Co392 N401 2.057 . S
Co392 O408 2.117 1_545 S
Co392 O409 2.020 . S
Co392 O411 2.021 . S
Co392 O416 2.062 . S
C393 N395 1.316 . S
C393 N396 1.347 . S
C393 H398 0.931 . S
C394 N395 1.375 . S
C394 C397 1.350 . S
C394 H399 0.930 . S
N395 Co390 2.057 . S
N395 C393 1.316 . S
N395 C394 1.375 . S
N396 C393 1.347 . S
N396 C397 1.373 . S
C397 C394 1.350 . S
C397 N396 1.373 . S
C397 H418 0.931 1_655 S
H398 C393 0.931 . S
H399 C394 0.930 . S
C400 O407 1.259 . S
C400 O408 1.258 . S
N401 Co392 2.057 . S
N401 C402 1.316 . S
N401 C403 1.375 . S
C402 N401 1.316 . S
C402 N404 1.347 . S
C402 H413 0.931 . S
C403 N401 1.375 . S
C403 C405 1.350 . S
C403 H412 0.930 . S
N404 C402 1.347 . S
N404 C405 1.373 . S
C405 C403 1.350 . S
C405 N404 1.373 . S
C405 H419 0.931 . S
C406 O409 1.256 1_565 S
C406 O410 1.255 . S
O407 Co390 2.021 . S
O407 C400 1.259 . S
O408 Co392 2.117 1_565 S
O408 C400 1.258 . S
O409 Co392 2.020 . S
O409 C406 1.256 1_545 S
O410 Co390 2.062 . S
O410 C406 1.255 . S
O411 C391 1.259 . S
O411 Co392 2.021 . S
H412 C403 0.930 . S
H413 C402 0.931 . S
O414 Co390 2.117 . S
O414 C391 1.258 1_565 S
O415 Co390 2.020 . S
O415 C417 1.256 . S
O416 Co392 2.062 . S
O416 C417 1.255 1_545 S
C417 O415 1.256 . S
C417 O416 1.255 1_565 S
H418 C397 0.931 1_455 S
H419 C405 0.931 . S
Co420 N425 2.057 . S
Co420 O437 2.021 . S
Co420 O440 2.062 . S
Co420 O444 2.117 . S
Co420 O445 2.020 . S
C421 O441 1.259 . S
C421 O444 1.258 . S
Co422 N431 2.057 . S
Co422 O438 2.117 . S
Co422 O439 2.020 . S
Co422 O441 2.021 . S
Co422 O446 2.062 . S
C423 N425 1.316 . S
C423 N426 1.347 . S
C423 H428 0.931 . S
C424 N425 1.375 . S
C424 C427 1.350 . S
C424 H429 0.930 . S
N425 Co420 2.057 . S
N425 C423 1.316 . S
N425 C424 1.375 . S
N426 C423 1.347 . S
N426 C427 1.373 . S
C427 C424 1.350 . S
C427 N426 1.373 . S
C427 H448 0.931 . S
H428 C423 0.931 . S
H429 C424 0.930 . S
C430 O437 1.259 . S
C430 O438 1.258 . S
N431 Co422 2.057 . S
N431 C432 1.316 . S
N431 C433 1.375 . S
C432 N431 1.316 . S
C432 N434 1.347 . S
C432 H443 0.931 . S
C433 N431 1.375 . S
C433 C435 1.350 . S
C433 H442 0.930 . S
N434 C432 1.347 . S
N434 C435 1.373 . S
C435 C433 1.350 . S
C435 N434 1.373 . S
C435 H449 0.931 . S
C436 O439 1.256 . S
C436 O440 1.255 . S
O437 Co420 2.021 . S
O437 C430 1.259 . S
O438 Co422 2.117 . S
O438 C430 1.258 . S
O439 Co422 2.020 . S
O439 C436 1.256 . S
O440 Co420 2.062 . S
O440 C436 1.255 . S
O441 C421 1.259 . S
O441 Co422 2.021 . S
H442 C433 0.930 . S
H443 C432 0.931 . S
O444 Co420 2.117 . S
O444 C421 1.258 . S
O445 Co420 2.020 . S
O445 C447 1.256 . S
O446 Co422 2.062 . S
O446 C447 1.255 . S
C447 O445 1.256 . S
C447 O446 1.255 . S
H448 C427 0.931 . S
H449 C435 0.931 . S
Co450 N455 2.057 . S
Co450 O467 2.021 . S
Co450 O470 2.062 . S
Co450 O474 2.117 . S
Co450 O475 2.020 . S
C451 O471 1.259 . S
C451 O474 1.258 1_565 S
Co452 N461 2.057 . S
Co452 O468 2.117 1_565 S
Co452 O469 2.020 . S
Co452 O471 2.021 . S
Co452 O476 2.062 . S
C453 N455 1.316 . S
C453 N456 1.347 . S
C453 H458 0.931 . S
C454 N455 1.375 . S
C454 C457 1.350 . S
C454 H459 0.930 . S
N455 Co450 2.057 . S
N455 C453 1.316 . S
N455 C454 1.375 . S
N456 C453 1.347 . S
N456 C457 1.373 . S
C457 C454 1.350 . S
C457 N456 1.373 . S
C457 H478 0.931 . S
H458 C453 0.931 . S
H459 C454 0.930 . S
C460 O467 1.259 . S
C460 O468 1.258 . S
N461 Co452 2.057 . S
N461 C462 1.316 . S
N461 C463 1.375 . S
C462 N461 1.316 . S
C462 N464 1.347 . S
C462 H473 0.931 . S
C463 N461 1.375 . S
C463 C465 1.350 . S
C463 H472 0.930 . S
N464 C462 1.347 . S
N464 C465 1.373 . S
C465 C463 1.350 . S
C465 N464 1.373 . S
C465 H479 0.931 . S
C466 O469 1.256 1_545 S
C466 O470 1.255 . S
O467 Co450 2.021 . S
O467 C460 1.259 . S
O468 Co452 2.117 1_545 S
O468 C460 1.258 . S
O469 Co452 2.020 . S
O469 C466 1.256 1_565 S
O470 Co450 2.062 . S
O470 C466 1.255 . S
O471 C451 1.259 . S
O471 Co452 2.021 . S
H472 C463 0.930 . S
H473 C462 0.931 . S
O474 Co450 2.117 . S
O474 C451 1.258 1_545 S
O475 Co450 2.020 . S
O475 C477 1.256 . S
O476 Co452 2.062 . S
O476 C477 1.255 1_565 S
C477 O475 1.256 . S
C477 O476 1.255 1_545 S
H478 C457 0.931 . S
H479 C465 0.931 . S
C480 C481 1.369 . S
C480 C482 1.419 . S
C480 H484 0.930 . S
C481 C480 1.369 . S
C481 C490 1.429 . S
C482 C480 1.419 . S
C482 C483 1.363 . S
C482 H485 0.929 . S
C483 C482 1.363 . S
C483 C489 1.428 . S
H484 C480 0.930 . S
H485 C482 0.929 . S
S486 N487 1.613 . S
S486 N488 1.610 . S
N487 S486 1.613 . S
N487 C490 1.350 . S
N488 S486 1.610 . S
N488 C489 1.351 . S
C489 C483 1.428 . S
C489 N488 1.351 . S
C489 C490 1.434 . S
C490 C481 1.429 . S
C490 N487 1.350 . S
C490 C489 1.434 . S
C491 C492 1.369 . S
C491 C493 1.419 . S
C491 H495 0.930 . S
C492 C491 1.369 . S
C492 C501 1.429 . S
C493 C491 1.419 . S
C493 C494 1.363 . S
C493 H496 0.929 . S
C494 C493 1.363 . S
C494 C500 1.428 . S
H495 C491 0.930 . S
H496 C493 0.929 . S
S497 N498 1.613 . S
S497 N499 1.610 . S
N498 S497 1.613 . S
N498 C501 1.350 . S
N499 S497 1.610 . S
N499 C500 1.351 . S
C500 C494 1.428 . S
C500 N499 1.351 . S
C500 C501 1.434 . S
C501 C492 1.429 . S
C501 N498 1.350 . S
C501 C500 1.434 . S
C502 C503 1.369 . S
C502 C504 1.419 . S
C502 H506 0.930 . S
C503 C502 1.369 . S
C503 C512 1.429 . S
C504 C502 1.419 . S
C504 C505 1.363 . S
C504 H507 0.929 . S
C505 C504 1.363 . S
C505 C511 1.428 . S
H506 C502 0.930 . S
H507 C504 0.929 . S
S508 N509 1.613 . S
S508 N510 1.610 . S
N509 S508 1.613 . S
N509 C512 1.350 . S
N510 S508 1.610 . S
N510 C511 1.351 . S
C511 C505 1.428 . S
C511 N510 1.351 . S
C511 C512 1.434 . S
C512 C503 1.429 . S
C512 N509 1.350 . S
C512 C511 1.434 . S
C513 C514 1.369 . S
C513 C515 1.419 1_656 S
C513 H517 0.930 . S
C514 C513 1.369 . S
C514 C523 1.429 . S
C515 C513 1.419 1_454 S
C515 C516 1.363 . S
C515 H518 0.929 . S
C516 C515 1.363 . S
C516 C522 1.428 . S
H517 C513 0.930 . S
H518 C515 0.929 . S
S519 N520 1.613 1_554 S
S519 N521 1.597 1_655 S
N520 S519 1.613 1_556 S
N520 C523 1.350 . S
N521 S519 1.597 1_455 S
N521 C522 1.352 . S
C522 C516 1.428 . S
C522 N521 1.352 . S
C522 C523 1.434 1_454 S
C523 C514 1.429 . S
C523 N520 1.350 . S
C523 C522 1.434 1_656 S
C524 C525 1.369 . S
C524 C526 1.419 . S
C524 H528 0.930 . S
C525 C524 1.369 . S
C525 C534 1.429 . S
C526 C524 1.419 . S
C526 C527 1.363 . S
C526 H529 0.929 . S
C527 C526 1.363 . S
C527 C533 1.428 . S
H528 C524 0.930 . S
H529 C526 0.929 . S
S530 N531 1.613 . S
S530 N532 1.610 . S
N531 S530 1.613 . S
N531 C534 1.350 . S
N532 S530 1.610 . S
N532 C533 1.351 . S
C533 C527 1.428 . S
C533 N532 1.351 . S
C533 C534 1.434 . S
C534 C525 1.429 . S
C534 N531 1.350 . S
C534 C533 1.434 . S
C535 C536 1.369 . S
C535 C537 1.419 . S
C535 H539 0.930 . S
C536 C535 1.369 . S
C536 C545 1.429 . S
C537 C535 1.419 . S
C537 C538 1.363 . S
C537 H540 0.929 . S
C538 C537 1.363 . S
C538 C544 1.428 . S
H539 C535 0.930 . S
H540 C537 0.929 . S
S541 N542 1.613 . S
S541 N543 1.610 . S
N542 S541 1.613 . S
N542 C545 1.350 . S
N543 S541 1.610 . S
N543 C544 1.351 . S
C544 C538 1.428 . S
C544 N543 1.351 . S
C544 C545 1.434 . S
C545 C536 1.429 . S
C545 N542 1.350 . S
C545 C544 1.434 . S
C546 C547 1.369 1_556 S
C546 C548 1.419 1_655 S
C546 H550 0.930 . S
C547 C546 1.369 1_554 S
C547 C556 1.429 1_565 S
C548 C546 1.419 1_455 S
C548 C549 1.363 1_565 S
C548 H551 0.929 . S
C549 C548 1.363 1_545 S
C549 C555 1.428 1_556 S
H550 C546 0.930 . S
H551 C548 0.929 . S
S552 N553 1.613 1_455 S
S552 N554 1.610 . S
N553 S552 1.613 1_655 S
N553 C556 1.350 . S
N554 S552 1.610 . S
N554 C555 1.351 . S
C555 C549 1.428 1_554 S
C555 N554 1.351 . S
C555 C556 1.434 1_455 S
C556 C547 1.429 1_545 S
C556 N553 1.350 . S
C556 C555 1.434 1_655 S
C557 C558 1.369 . S
C557 C559 1.419 . S
C557 H561 0.930 . S
C558 C557 1.369 . S
C558 C567 1.429 1_565 S
C559 C557 1.419 . S
C559 C560 1.363 1_565 S
C559 H562 0.929 . S
C560 C559 1.363 1_545 S
C560 C566 1.428 . S
H561 C557 0.930 . S
H562 C559 0.929 . S
S563 N564 1.613 . S
S563 N565 1.610 . S
N564 S563 1.613 . S
N564 C567 1.350 . S
N565 S563 1.610 . S
N565 C566 1.351 . S
C566 C560 1.428 . S
C566 N565 1.351 . S
C566 C567 1.434 . S
C567 C558 1.429 1_545 S
C567 N564 1.350 . S
C567 C566 1.434 . S
C568 C569 1.369 . S
C568 C570 1.419 1_556 S
C568 H572 0.930 . S
C569 C568 1.369 . S
C569 C578 1.429 . S
C570 C568 1.419 1_554 S
C570 C571 1.363 . S
C570 H573 0.929 . S
C571 C570 1.363 . S
C571 C577 1.428 . S
H572 C568 0.930 . S
H573 C570 0.929 . S
S574 N575 1.613 1_565 S
S574 N576 1.610 1_566 S
N575 S574 1.613 1_545 S
N575 C578 1.350 . S
N576 S574 1.610 1_544 S
N576 C577 1.351 . S
C577 C571 1.428 . S
C577 N576 1.351 . S
C577 C578 1.434 1_554 S
C578 C569 1.429 . S
C578 N575 1.350 . S
C578 C577 1.434 1_556 S
C579 C580 1.369 . S
C579 C581 1.419 . S
C579 H583 0.930 . S
C580 C579 1.369 . S
C580 C589 1.429 . S
C581 C579 1.419 . S
C581 C582 1.363 . S
C581 H584 0.929 . S
C582 C581 1.363 . S
C582 C588 1.428 . S
H583 C579 0.930 . S
H584 C581 0.929 . S
S585 N586 1.613 . S
S585 N587 1.610 . S
N586 S585 1.613 . S
N586 C589 1.350 . S
N587 S585 1.610 . S
N587 C588 1.351 . S
C588 C582 1.428 . S
C588 N587 1.351 . S
C588 C589 1.434 . S
C589 C580 1.429 . S
C589 N586 1.350 . S
C589 C588 1.434 . S
C590 C591 1.369 . S
C590 C592 1.419 . S
C590 H594 0.930 . S
C591 C590 1.369 . S
C591 C600 1.429 . S
C592 C590 1.419 . S
C592 C593 1.363 . S
C592 H595 0.929 . S
C593 C592 1.363 . S
C593 C599 1.428 . S
H594 C590 0.930 . S
H595 C592 0.929 . S
S596 N597 1.613 . S
S596 N598 1.610 . S
N597 S596 1.613 . S
N597 C600 1.350 . S
N598 S596 1.610 . S
N598 C599 1.351 . S
C599 C593 1.428 . S
C599 N598 1.351 . S
C599 C600 1.434 . S
C600 C591 1.429 . S
C600 N597 1.350 . S
C600 C599 1.434 . S
C601 C602 1.369 . S
C601 C603 1.419 . S
C601 H605 0.930 . S
C602 C601 1.369 . S
C602 C611 1.429 . S
C603 C601 1.419 . S
C603 C604 1.363 . S
C603 H606 0.929 . S
C604 C603 1.363 . S
C604 C610 1.428 . S
H605 C601 0.930 . S
H606 C603 0.929 . S
S607 N608 1.613 . S
S607 N609 1.610 . S
N608 S607 1.613 . S
N608 C611 1.350 . S
N609 S607 1.610 . S
N609 C610 1.351 . S
C610 C604 1.428 . S
C610 N609 1.351 . S
C610 C611 1.434 . S
C611 C602 1.429 . S
C611 N608 1.350 . S
C611 C610 1.434 . S
C612 C613 1.369 . S
C612 C614 1.419 1_554 S
C612 H616 0.930 . S
C613 C612 1.369 . S
C613 C622 1.429 . S
C614 C612 1.419 1_556 S
C614 C615 1.363 . S
C614 H617 0.929 . S
C615 C614 1.363 . S
C615 C621 1.428 . S
H616 C612 0.930 . S
H617 C614 0.929 . S
S618 N619 1.613 . S
S618 N620 1.610 1_554 S
N619 S618 1.613 . S
N619 C622 1.350 . S
N620 S618 1.610 1_556 S
N620 C621 1.351 . S
C621 C615 1.428 . S
C621 N620 1.351 . S
C621 C622 1.434 1_556 S
C622 C613 1.429 . S
C622 N619 1.350 . S
C622 C621 1.434 1_554 S
C623 C624 1.369 . S
C623 C625 1.419 . S
C623 H627 0.930 . S
C624 C623 1.369 . S
C624 C633 1.429 . S
C625 C623 1.419 . S
C625 C626 1.363 . S
C625 H628 0.929 . S
C626 C625 1.363 . S
C626 C632 1.428 . S
H627 C623 0.930 . S
H628 C625 0.929 . S
S629 N630 1.613 . S
S629 N631 1.610 . S
N630 S629 1.613 . S
N630 C633 1.350 . S
N631 S629 1.610 . S
N631 C632 1.351 . S
C632 C626 1.428 . S
C632 N631 1.351 . S
C632 C633 1.434 . S
C633 C624 1.429 . S
C633 N630 1.350 . S
C633 C632 1.434 . S
C634 C635 1.369 . S
C634 C636 1.419 . S
C634 H638 0.930 . S
C635 C634 1.369 . S
C635 C644 1.429 . S
C636 C634 1.419 . S
C636 C637 1.363 . S
C636 H639 0.929 . S
C637 C636 1.363 . S
C637 C643 1.428 . S
H638 C634 0.930 . S
H639 C636 0.929 . S
S640 N641 1.613 . S
S640 N642 1.610 . S
N641 S640 1.613 . S
N641 C644 1.350 . S
N642 S640 1.610 . S
N642 C643 1.351 . S
C643 C637 1.428 . S
C643 N642 1.351 . S
C643 C644 1.434 . S
C644 C635 1.429 . S
C644 N641 1.350 . S
C644 C643 1.434 . S
C645 C646 1.369 . S
C645 C647 1.419 . S
C645 H649 0.930 . S
C646 C645 1.369 . S
C646 C655 1.429 . S
C647 C645 1.419 . S
C647 C648 1.363 . S
C647 H650 0.929 . S
C648 C647 1.363 . S
C648 C654 1.428 . S
H649 C645 0.930 . S
H650 C647 0.929 . S
S651 N652 1.613 . S
S651 N653 1.610 . S
N652 S651 1.613 . S
N652 C655 1.350 . S
N653 S651 1.610 . S
N653 C654 1.351 . S
C654 C648 1.428 . S
C654 N653 1.351 . S
C654 C655 1.434 . S
C655 C646 1.429 . S
C655 N652 1.350 . S
C655 C654 1.434 . S
C656 C657 1.369 . S
C656 C658 1.419 . S
C656 H660 0.930 . S
C657 C656 1.369 . S
C657 C666 1.429 . S
C658 C656 1.419 . S
C658 C659 1.363 . S
C658 H661 0.929 . S
C659 C658 1.363 . S
C659 C665 1.428 . S
H660 C656 0.930 . S
H661 C658 0.929 . S
S662 N663 1.613 . S
S662 N664 1.610 . S
N663 S662 1.613 . S
N663 C666 1.350 . S
N664 S662 1.610 . S
N664 C665 1.351 . S
C665 C659 1.428 . S
C665 N664 1.351 . S
C665 C666 1.434 . S
C666 C657 1.429 . S
C666 N663 1.350 . S
C666 C665 1.434 . S
C667 C668 1.369 . S
C667 C669 1.421 . S
C667 H671 0.928 1_565 S
C668 C667 1.369 . S
C668 C677 1.429 . S
C669 C667 1.421 . S
C669 C670 1.363 . S
C669 H672 0.929 . S
C670 C669 1.363 . S
C670 C676 1.428 . S
H671 C667 0.928 1_545 S
H672 C669 0.929 . S
S673 N674 1.613 . S
S673 N675 1.610 . S
N674 S673 1.613 . S
N674 C677 1.350 . S
N675 S673 1.610 . S
N675 C676 1.351 . S
C676 C670 1.428 . S
C676 N675 1.351 . S
C676 C677 1.434 . S
C677 C668 1.429 . S
C677 N674 1.350 . S
C677 C676 1.434 . S
C678 C679 1.369 1_556 S
C678 C680 1.419 . S
C678 H682 0.930 . S
C679 C678 1.369 1_554 S
C679 C688 1.429 . S
C680 C678 1.419 . S
C680 C681 1.363 . S
C680 H683 0.929 . S
C681 C680 1.363 . S
C681 C687 1.447 . S
H682 C678 0.930 . S
H683 C680 0.929 . S
S684 N685 1.613 . S
S684 N686 1.610 . S
N685 S684 1.613 . S
N685 C688 1.350 . S
N686 S684 1.610 . S
N686 C687 1.347 1_554 S
C687 C681 1.447 . S
C687 N686 1.347 1_556 S
C687 C688 1.417 1_556 S
C688 C679 1.429 . S
C688 N685 1.350 . S
C688 C687 1.417 1_554 S
C689 C690 1.369 . S
C689 C691 1.419 1_545 S
C689 H693 0.930 1_545 S
C690 C689 1.369 . S
C690 C699 1.429 . S
C691 C689 1.419 1_565 S
C691 C692 1.363 1_565 S
C691 H694 0.929 . S
C692 C691 1.363 1_545 S
C692 C698 1.428 . S
H693 C689 0.930 1_565 S
H694 C691 0.929 . S
S695 N696 1.613 . S
S695 N697 1.610 . S
N696 S695 1.613 . S
N696 C699 1.350 . S
N697 S695 1.610 . S
N697 C698 1.351 . S
C698 C692 1.428 . S
C698 N697 1.351 . S
C698 C699 1.434 . S
C699 C690 1.429 . S
C699 N696 1.350 . S
C699 C698 1.434 . S
C700 C701 1.369 . S
C700 C702 1.419 . S
C700 H704 0.930 . S
C701 C700 1.369 . S
C701 C710 1.429 . S
C702 C700 1.419 . S
C702 C703 1.363 . S
C702 H705 0.929 . S
C703 C702 1.363 . S
C703 C709 1.428 . S
H704 C700 0.930 . S
H705 C702 0.929 . S
S706 N707 1.613 . S
S706 N708 1.610 . S
N707 S706 1.613 . S
N707 C710 1.350 . S
N708 S706 1.610 . S
N708 C709 1.351 . S
C709 C703 1.428 . S
C709 N708 1.351 . S
C709 C710 1.434 . S
C710 C701 1.429 . S
C710 N707 1.350 . S
C710 C709 1.434 . S
C711 C712 1.369 . S
C711 C713 1.419 . S
C711 H715 0.930 1_545 S
C712 C711 1.369 . S
C712 C721 1.429 . S
C713 C711 1.419 . S
C713 C714 1.363 . S
C713 H716 0.929 . S
C714 C713 1.363 . S
C714 C720 1.428 . S
H715 C711 0.930 1_565 S
H716 C713 0.929 . S
S717 N718 1.613 . S
S717 N719 1.610 . S
N718 S717 1.613 . S
N718 C721 1.350 . S
N719 S717 1.610 . S
N719 C720 1.351 . S
C720 C714 1.428 . S
C720 N719 1.351 . S
C720 C721 1.434 . S
C721 C712 1.429 . S
C721 N718 1.350 . S
C721 C720 1.434 . S
C722 C723 1.369 . S
C722 C724 1.419 1_554 S
C722 H726 0.930 . S
C723 C722 1.369 . S
C723 C732 1.429 . S
C724 C722 1.419 1_556 S
C724 C725 1.363 . S
C724 H727 0.929 . S
C725 C724 1.363 . S
C725 C731 1.428 1_556 S
H726 C722 0.930 . S
H727 C724 0.929 . S
S728 N729 1.613 . S
S728 N730 1.610 . S
N729 S728 1.613 . S
N729 C732 1.350 . S
N730 S728 1.610 . S
N730 C731 1.351 . S
C731 C725 1.428 1_554 S
C731 N730 1.351 . S
C731 C732 1.434 . S
C732 C723 1.429 . S
C732 N729 1.350 . S
C732 C731 1.434 . S
C733 C734 1.369 1_545 S
C733 C735 1.419 1_545 S
C733 H737 0.930 . S
C734 C733 1.369 1_565 S
C734 C743 1.429 . S
C735 C733 1.419 1_565 S
C735 C736 1.363 . S
C735 H738 0.929 . S
C736 C735 1.363 . S
C736 C742 1.428 . S
H737 C733 0.930 . S
H738 C735 0.929 . S
S739 N740 1.613 . S
S739 N741 1.610 . S
N740 S739 1.613 . S
N740 C743 1.350 . S
N741 S739 1.610 . S
N741 C742 1.351 . S
C742 C736 1.428 . S
C742 N741 1.351 . S
C742 C743 1.434 . S
C743 C734 1.429 . S
C743 N740 1.350 . S
C743 C742 1.434 . S
C744 C745 1.369 . S
C744 C746 1.419 . S
C744 H748 0.930 . S
C745 C744 1.369 . S
C745 C754 1.429 . S
C746 C744 1.419 . S
C746 C747 1.363 . S
C746 H749 0.929 . S
C747 C746 1.363 . S
C747 C753 1.428 . S
H748 C744 0.930 . S
H749 C746 0.929 . S
S750 N751 1.613 . S
S750 N752 1.610 . S
N751 S750 1.613 . S
N751 C754 1.350 . S
N752 S750 1.610 . S
N752 C753 1.351 . S
C753 C747 1.428 . S
C753 N752 1.351 . S
C753 C754 1.434 . S
C754 C745 1.429 . S
C754 N751 1.350 . S
C754 C753 1.434 . S
C755 C756 1.369 . S
C755 C757 1.419 . S
C755 H759 0.930 . S
C756 C755 1.369 . S
C756 C765 1.429 . S
C757 C755 1.419 . S
C757 C758 1.363 . S
C757 H760 0.929 . S
C758 C757 1.363 . S
C758 C764 1.428 . S
H759 C755 0.930 . S
H760 C757 0.929 . S
S761 N762 1.613 . S
S761 N763 1.610 . S
N762 S761 1.613 . S
N762 C765 1.350 . S
N763 S761 1.610 . S
N763 C764 1.351 . S
C764 C758 1.428 . S
C764 N763 1.351 . S
C764 C765 1.434 . S
C765 C756 1.429 . S
C765 N762 1.350 . S
C765 C764 1.434 . S
C766 C767 1.369 . S
C766 C768 1.419 1_655 S
C766 H770 0.930 . S
C767 C766 1.369 . S
C767 C776 1.429 . S
C768 C766 1.419 1_455 S
C768 C769 1.363 . S
C768 H771 0.929 . S
C769 C768 1.363 . S
C769 C775 1.428 . S
H770 C766 0.930 . S
H771 C768 0.929 . S
S772 N773 1.613 . S
S772 N774 1.610 1_655 S
N773 S772 1.613 . S
N773 C776 1.350 . S
N774 S772 1.610 1_455 S
N774 C775 1.351 . S
C775 C769 1.428 . S
C775 N774 1.351 . S
C775 C776 1.434 1_455 S
C776 C767 1.429 . S
C776 N773 1.350 . S
C776 C775 1.434 1_655 S
C777 C778 1.369 1_455 S
C777 C779 1.419 . S
C777 H781 0.930 . S
C778 C777 1.369 1_655 S
C778 C787 1.429 . S
C779 C777 1.419 . S
C779 C780 1.363 . S
C779 H782 0.929 . S
C780 C779 1.363 . S
C780 C786 1.428 1_455 S
H781 C777 0.930 . S
H782 C779 0.929 . S
S783 N784 1.613 . S
S783 N785 1.610 . S
N784 S783 1.613 . S
N784 C787 1.350 . S
N785 S783 1.610 . S
N785 C786 1.351 . S
C786 C780 1.428 1_655 S
C786 N785 1.351 . S
C786 C787 1.434 . S
C787 C778 1.429 . S
C787 N784 1.350 . S
C787 C786 1.434 . S
C788 C789 1.369 . S
C788 C790 1.419 . S
C788 H792 0.930 . S
C789 C788 1.369 . S
C789 C798 1.429 . S
C790 C788 1.419 . S
C790 C791 1.363 . S
C790 H793 0.929 . S
C791 C790 1.363 . S
C791 C797 1.428 . S
H792 C788 0.930 . S
H793 C790 0.929 . S
S794 N795 1.613 . S
S794 N796 1.610 . S
N795 S794 1.613 . S
N795 C798 1.350 . S
N796 S794 1.610 . S
N796 C797 1.351 . S
C797 C791 1.428 . S
C797 N796 1.351 . S
C797 C798 1.434 . S
C798 C789 1.429 . S
C798 N795 1.350 . S
C798 C797 1.434 . S
C799 C800 1.369 . S
C799 C801 1.419 . S
C799 H803 0.930 . S
C800 C799 1.369 . S
C800 C809 1.429 . S
C801 C799 1.419 . S
C801 C802 1.363 . S
C801 H804 0.929 . S
C802 C801 1.363 . S
C802 C808 1.428 . S
H803 C799 0.930 . S
H804 C801 0.929 . S
S805 N806 1.613 . S
S805 N807 1.610 . S
N806 S805 1.613 . S
N806 C809 1.350 . S
N807 S805 1.610 . S
N807 C808 1.351 . S
C808 C802 1.428 . S
C808 N807 1.351 . S
C808 C809 1.434 . S
C809 C800 1.429 . S
C809 N806 1.350 . S
C809 C808 1.434 . S
C810 C811 1.369 . S
C810 C812 1.419 1_455 S
C810 H814 0.930 . S
C811 C810 1.369 . S
C811 C820 1.429 . S
C812 C810 1.419 1_655 S
C812 C813 1.363 . S
C812 H815 0.929 . S
C813 C812 1.363 . S
C813 C819 1.428 . S
H814 C810 0.930 . S
H815 C812 0.929 . S
S816 N817 1.613 . S
S816 N818 1.610 1_455 S
N817 S816 1.613 . S
N817 C820 1.350 . S
N818 S816 1.610 1_655 S
N818 C819 1.351 . S
C819 C813 1.428 . S
C819 N818 1.351 . S
C819 C820 1.434 1_655 S
C820 C811 1.429 . S
C820 N817 1.350 . S
C820 C819 1.434 1_455 S
C821 C822 1.369 . S
C821 C823 1.419 1_455 S
C821 H825 0.930 . S
C822 C821 1.369 . S
C822 C831 1.429 . S
C823 C821 1.419 1_655 S
C823 C824 1.363 . S
C823 H826 0.929 . S
C824 C823 1.363 . S
C824 C830 1.428 . S
H825 C821 0.930 . S
H826 C823 0.929 . S
S827 N828 1.613 . S
S827 N829 1.610 1_455 S
N828 S827 1.613 . S
N828 C831 1.350 . S
N829 S827 1.610 1_655 S
N829 C830 1.351 . S
C830 C824 1.428 . S
C830 N829 1.351 . S
C830 C831 1.434 1_655 S
C831 C822 1.429 . S
C831 N828 1.350 . S
C831 C830 1.434 1_455 S
C832 C833 1.369 . S
C832 C834 1.419 . S
C832 H836 0.930 . S
C833 C832 1.369 . S
C833 C842 1.429 . S
C834 C832 1.419 . S
C834 C835 1.363 . S
C834 H837 0.929 . S
C835 C834 1.363 . S
C835 C841 1.428 . S
H836 C832 0.930 . S
H837 C834 0.929 . S
S838 N839 1.613 . S
S838 N840 1.610 . S
N839 S838 1.613 . S
N839 C842 1.350 . S
N840 S838 1.610 . S
N840 C841 1.351 . S
C841 C835 1.428 . S
C841 N840 1.351 . S
C841 C842 1.434 . S
C842 C833 1.429 . S
C842 N839 1.350 . S
C842 C841 1.434 . S
C843 C844 1.369 . S
C843 C845 1.419 . S
C843 H847 0.930 . S
C844 C843 1.369 . S
C844 C853 1.429 . S
C845 C843 1.419 . S
C845 C846 1.363 . S
C845 H848 0.929 . S
C846 C845 1.363 . S
C846 C852 1.428 . S
H847 C843 0.930 . S
H848 C845 0.929 . S
S849 N850 1.613 . S
S849 N851 1.610 . S
N850 S849 1.613 . S
N850 C853 1.350 . S
N851 S849 1.610 . S
N851 C852 1.351 . S
C852 C846 1.428 . S
C852 N851 1.351 . S
C852 C853 1.434 . S
C853 C844 1.429 . S
C853 N850 1.350 . S
C853 C852 1.434 . S
C854 C855 1.369 . S
C854 C856 1.419 . S
C854 H858 0.930 . S
C855 C854 1.369 . S
C855 C864 1.429 . S
C856 C854 1.419 . S
C856 C857 1.363 . S
C856 H859 0.929 . S
C857 C856 1.363 . S
C857 C863 1.428 . S
H858 C854 0.930 . S
H859 C856 0.929 . S
S860 N861 1.613 . S
S860 N862 1.610 . S
N861 S860 1.613 . S
N861 C864 1.350 . S
N862 S860 1.610 . S
N862 C863 1.351 . S
C863 C857 1.428 . S
C863 N862 1.351 . S
C863 C864 1.434 . S
C864 C855 1.429 . S
C864 N861 1.350 . S
C864 C863 1.434 . S
C865 C866 1.369 1_455 S
C865 C867 1.418 . S
C865 H869 0.931 1_455 S
C866 C865 1.369 1_655 S
C866 C875 1.429 1_655 S
C867 C865 1.418 . S
C867 C868 1.363 . S
C867 H870 0.929 . S
C868 C867 1.363 . S
C868 C874 1.428 . S
H869 C865 0.931 1_655 S
H870 C867 0.929 . S
S871 N872 1.613 . S
S871 N873 1.610 . S
N872 S871 1.613 . S
N872 C875 1.350 . S
N873 S871 1.610 . S
N873 C874 1.351 . S
C874 C868 1.428 . S
C874 N873 1.351 . S
C874 C875 1.434 . S
C875 C866 1.429 1_455 S
C875 N872 1.350 . S
C875 C874 1.434 . S
C876 C877 1.369 . S
C876 C878 1.419 . S
C876 H880 0.930 . S
C877 C876 1.369 . S
C877 C886 1.429 . S
C878 C876 1.419 . S
C878 C879 1.363 . S
C878 H881 0.929 . S
C879 C878 1.363 . S
C879 C885 1.428 . S
H880 C876 0.930 . S
H881 C878 0.929 . S
S882 N883 1.613 . S
S882 N884 1.610 . S
N883 S882 1.613 . S
N883 C886 1.350 . S
N884 S882 1.610 . S
N884 C885 1.351 . S
C885 C879 1.428 . S
C885 N884 1.351 . S
C885 C886 1.434 . S
C886 C877 1.429 . S
C886 N883 1.350 . S
C886 C885 1.434 . S
C887 C888 1.369 . S
C887 C889 1.419 . S
C887 H891 0.930 . S
C888 C887 1.369 . S
C888 C897 1.429 . S
C889 C887 1.419 . S
C889 C890 1.363 . S
C889 H892 0.929 . S
C890 C889 1.363 . S
C890 C896 1.428 . S
H891 C887 0.930 . S
H892 C889 0.929 . S
S893 N894 1.613 . S
S893 N895 1.610 . S
N894 S893 1.613 . S
N894 C897 1.350 . S
N895 S893 1.610 . S
N895 C896 1.351 . S
C896 C890 1.428 . S
C896 N895 1.351 . S
C896 C897 1.434 . S
C897 C888 1.429 . S
C897 N894 1.350 . S
C897 C896 1.434 . S
C898 C899 1.369 . S
C898 C900 1.419 . S
C898 H902 0.930 . S
C899 C898 1.369 . S
C899 C908 1.429 . S
C900 C898 1.419 . S
C900 C901 1.363 . S
C900 H903 0.929 . S
C901 C900 1.363 . S
C901 C907 1.428 . S
H902 C898 0.930 . S
H903 C900 0.929 . S
S904 N905 1.613 . S
S904 N906 1.610 . S
N905 S904 1.613 . S
N905 C908 1.350 . S
N906 S904 1.610 . S
N906 C907 1.351 . S
C907 C901 1.428 . S
C907 N906 1.351 . S
C907 C908 1.434 . S
C908 C899 1.429 . S
C908 N905 1.350 . S
C908 C907 1.434 . S
C909 C910 1.369 . S
C909 C911 1.419 . S
C909 H913 0.930 . S
C910 C909 1.369 . S
C910 C919 1.429 . S
C911 C909 1.419 . S
C911 C912 1.363 1_655 S
C911 H914 0.929 . S
C912 C911 1.363 1_455 S
C912 C918 1.428 1_455 S
H913 C909 0.930 . S
H914 C911 0.929 . S
S915 N916 1.613 1_455 S
S915 N917 1.611 . S
N916 S915 1.613 1_655 S
N916 C919 1.350 . S
N917 S915 1.611 . S
N917 C918 1.351 1_455 S
C918 C912 1.428 1_655 S
C918 N917 1.351 1_655 S
C918 C919 1.434 . S
C919 C910 1.429 . S
C919 N916 1.350 . S
C919 C918 1.434 . S
C920 C921 1.369 . S
C920 C922 1.419 . S
C920 H924 0.930 . S
C921 C920 1.369 . S
C921 C930 1.429 . S
C922 C920 1.419 . S
C922 C923 1.363 . S
C922 H925 0.929 . S
C923 C922 1.363 . S
C923 C929 1.428 . S
H924 C920 0.930 . S
H925 C922 0.929 . S
S926 N927 1.613 . S
S926 N928 1.610 . S
N927 S926 1.613 . S
N927 C930 1.350 . S
N928 S926 1.610 . S
N928 C929 1.351 . S
C929 C923 1.428 . S
C929 N928 1.351 . S
C929 C930 1.434 . S
C930 C921 1.429 . S
C930 N927 1.350 . S
C930 C929 1.434 . S
C931 C932 1.369 . S
C931 C933 1.419 . S
C931 H935 0.930 . S
C932 C931 1.369 . S
C932 C941 1.429 . S
C933 C931 1.419 . S
C933 C934 1.363 1_655 S
C933 H936 0.929 1_655 S
C934 C933 1.363 1_455 S
C934 C940 1.428 1_455 S
H935 C931 0.930 . S
H936 C933 0.929 1_455 S
S937 N938 1.613 1_545 S
S937 N939 1.610 . S
N938 S937 1.613 1_565 S
N938 C941 1.350 . S
N939 S937 1.610 . S
N939 C940 1.351 1_545 S
C940 C934 1.428 1_655 S
C940 N939 1.351 1_565 S
C940 C941 1.434 . S
C941 C932 1.429 . S
C941 N938 1.350 . S
C941 C940 1.434 . S
C942 C943 1.369 . S
C942 C944 1.419 . S
C942 H946 0.930 . S
C943 C942 1.369 . S
C943 C952 1.429 . S
C944 C942 1.419 . S
C944 C945 1.363 . S
C944 H947 0.929 . S
C945 C944 1.363 . S
C945 C951 1.428 . S
H946 C942 0.930 . S
H947 C944 0.929 . S
S948 N949 1.613 . S
S948 N950 1.610 . S
N949 S948 1.613 . S
N949 C952 1.350 . S
N950 S948 1.610 . S
N950 C951 1.351 . S
C951 C945 1.428 . S
C951 N950 1.351 . S
C951 C952 1.434 . S
C952 C943 1.429 . S
C952 N949 1.350 . S
C952 C951 1.434 . S
C953 C954 1.369 . S
C953 C955 1.419 . S
C953 H957 0.930 . S
C954 C953 1.369 . S
C954 C963 1.429 . S
C955 C953 1.419 . S
C955 C956 1.363 . S
C955 H958 0.929 . S
C956 C955 1.363 . S
C956 C962 1.428 . S
H957 C953 0.930 . S
H958 C955 0.929 . S
S959 N960 1.613 . S
S959 N961 1.610 . S
N960 S959 1.613 . S
N960 C963 1.350 . S
N961 S959 1.610 . S
N961 C962 1.351 . S
C962 C956 1.428 . S
C962 N961 1.351 . S
C962 C963 1.434 . S
C963 C954 1.429 . S
C963 N960 1.350 . S
C963 C962 1.434 . S
C964 C965 1.369 . S
C964 C966 1.419 . S
C964 H968 0.930 . S
C965 C964 1.369 . S
C965 C974 1.429 . S
C966 C964 1.419 . S
C966 C967 1.363 . S
C966 H969 0.929 . S
C967 C966 1.363 . S
C967 C973 1.428 . S
H968 C964 0.930 . S
H969 C966 0.929 . S
S970 N971 1.613 . S
S970 N972 1.610 . S
N971 S970 1.613 . S
N971 C974 1.350 . S
N972 S970 1.610 . S
N972 C973 1.351 . S
C973 C967 1.428 . S
C973 N972 1.351 . S
C973 C974 1.434 . S
C974 C965 1.429 . S
C974 N971 1.350 . S
C974 C973 1.434 . S
C975 C976 1.372 . S
C975 C977 1.407 1_655 S
C975 H979 0.940 . S
C976 C975 1.372 . S
C976 C985 1.429 1_655 S
C977 C975 1.407 1_455 S
C977 C978 1.363 . S
C977 H980 0.929 . S
C978 C977 1.363 . S
C978 C984 1.428 . S
H979 C975 0.940 . S
H980 C977 0.929 . S
S981 N982 1.613 . S
S981 N983 1.610 . S
N982 S981 1.613 . S
N982 C985 1.350 1_565 S
N983 S981 1.610 . S
N983 C984 1.351 1_565 S
C984 C978 1.428 . S
C984 N983 1.351 1_545 S
C984 C985 1.434 . S
C985 C976 1.429 1_455 S
C985 N982 1.350 1_545 S
C985 C984 1.434 . S
C986 C987 1.369 . S
C986 C988 1.419 . S
C986 H990 0.930 . S
C987 C986 1.369 . S
C987 C996 1.429 . S
C988 C986 1.419 . S
C988 C989 1.363 . S
C988 H991 0.929 . S
C989 C988 1.363 . S
C989 C995 1.428 . S
H990 C986 0.930 . S
H991 C988 0.929 . S
S992 N993 1.613 . S
S992 N994 1.610 . S
N993 S992 1.613 . S
N993 C996 1.350 . S
N994 S992 1.610 . S
N994 C995 1.351 . S
C995 C989 1.428 . S
C995 N994 1.351 . S
C995 C996 1.434 . S
C996 C987 1.429 . S
C996 N993 1.350 . S
C996 C995 1.434 . S
C997 C998 1.369 . S
C997 C999 1.419 . S
C997 H1001 0.930 . S
C998 C997 1.369 . S
C998 C1007 1.429 . S
C999 C997 1.419 . S
C999 C1000 1.363 . S
C999 H1002 0.929 1_565 S
C1000 C999 1.363 . S
C1000 C1006 1.428 . S
H1001 C997 0.930 . S
H1002 C999 0.929 1_545 S
S1003 N1004 1.613 . S
S1003 N1005 1.610 . S
N1004 S1003 1.613 . S
N1004 C1007 1.350 . S
N1005 S1003 1.610 . S
N1005 C1006 1.351 . S
C1006 C1000 1.428 . S
C1006 N1005 1.351 . S
C1006 C1007 1.434 . S
C1007 C998 1.429 . S
C1007 N1004 1.350 . S
C1007 C1006 1.434 . S
C481 C27 1.264 . S
C483 C376 1.256 . S
C492 C166 1.253 . S
C494 C57 1.265 . S
C503 C87 1.267 . S
C505 C436 1.255 . S
C514 C117 1.255 . S
C516 C226 1.263 . S
C525 C136 1.267 . S
C527 C267 1.254 . S
C536 C327 1.263 . S
C538 C196 1.258 . S
C547 C406 1.254 . S
C549 C297 1.265 . S
C558 C357 1.261 . S
C560 C466 1.258 . S
C569 C271 1.643 . S
C571 C16 1.610 . S
C580 C46 1.603 . S
C582 C301 1.641 . S
C591 C76 1.606 . S
C593 C331 1.644 . S
C602 C241 1.646 . S
C604 C106 1.610 . S
C613 C400 1.643 . S
C615 C147 1.605 . S
C624 C430 1.645 . S
C626 C177 1.608 . S
C635 C207 1.603 . S
C637 C460 1.642 . S
C646 C370 1.646 . S
C648 C237 1.609 . S
C657 C256 1.611 . S
C659 C31 1.645 . S
C668 C286 1.609 1_565 S
C670 C61 1.642 . S
C679 C316 1.607 . S
C681 C91 1.641 . S
C690 C1 1.641 . S
C692 C346 1.605 1_545 S
C701 C160 1.645 . S
C703 C387 1.608 . S
C712 C417 1.606 1_545 S
C714 C190 1.644 . S
C723 C220 1.644 . S
C725 C447 1.607 . S
C734 C477 1.605 1_565 S
C736 C130 1.641 . S
C745 N14 1.297 . S
C747 N314 1.296 . S
C756 N44 1.303 . S
C758 N344 1.297 . S
C767 N254 1.297 . S
C769 N74 1.302 . S
C778 N104 1.303 . S
C780 N284 1.296 . S
C789 N126 1.296 . S
C791 N426 1.302 . S
C800 N156 1.302 . S
C802 N456 1.300 . S
C811 N366 1.294 . S
C813 N186 1.298 . S
C822 N216 1.302 . S
C824 N396 1.299 . S
C833 C10 1.250 . S
C835 N224 1.285 . S
C844 N374 1.279 . S
C846 C40 1.252 . S
C855 C70 1.253 . S
C857 N164 1.283 . S
C866 C100 1.252 . S
C868 N434 1.280 . S
C877 C121 1.246 . S
C879 N96 1.284 . S
C888 N246 1.279 . S
C890 C151 1.256 . S
C899 C181 1.257 . S
C901 N36 1.281 . S
C910 N306 1.285 . S
C912 C211 1.250 . S
C921 C250 1.246 . S
C923 N464 1.285 . S
C932 N134 1.279 . S
C934 C280 1.256 . S
C943 N404 1.282 . S
C945 C310 1.249 . S
C954 C340 1.246 . S
C956 N194 1.284 . S
C965 C361 1.255 . S
C967 N336 1.282 . S
C976 C391 1.255 . S
C978 N6 1.280 . S
C987 N276 1.281 . S
C989 C421 1.255 . S
C998 N66 1.285 . S
C1000 C451 1.251 . S
