# Generated by pormake.
# Topology unp, (4)-cn, num edge types: 1
# Building blocks:
#     Node 0, Type 0, BuildingBlock: GALJAG_clean_sbu_0, # of connection points: 4
#     Node 1, Type 0, BuildingBlock: GALJAG_clean_sbu_0, # of connection points: 4
#     Node 2, Type 0, BuildingBlock: GALJAG_clean_sbu_0, # of connection points: 4
#     Node 3, Type 0, BuildingBlock: GALJAG_clean_sbu_0, # of connection points: 4
#     Node 4, Type 0, BuildingBlock: GALJAG_clean_sbu_0, # of connection points: 4
#     Node 5, Type 0, BuildingBlock: GALJAG_clean_sbu_0, # of connection points: 4
#     Node 6, Type 0, BuildingBlock: GALJAG_clean_sbu_0, # of connection points: 4
#     Node 7, Type 0, BuildingBlock: GALJAG_clean_sbu_0, # of connection points: 4
#     Node 8, Type 0, BuildingBlock: GALJAG_clean_sbu_0, # of connection points: 4
#     Node 9, Type 0, BuildingBlock: GALJAG_clean_sbu_0, # of connection points: 4
#     Node 10, Type 0, BuildingBlock: GALJAG_clean_sbu_0, # of connection points: 4
#     Node 11, Type 0, BuildingBlock: GALJAG_clean_sbu_0, # of connection points: 4
#     Node 12, Type 0, BuildingBlock: GALJAG_clean_sbu_0, # of connection points: 4
#     Node 13, Type 0, BuildingBlock: GALJAG_clean_sbu_0, # of connection points: 4
#     Node 14, Type 0, BuildingBlock: GALJAG_clean_sbu_0, # of connection points: 4
#     Node 15, Type 0, BuildingBlock: GALJAG_clean_sbu_0, # of connection points: 4
#     Node 16, Type 0, BuildingBlock: GALJAG_clean_sbu_0, # of connection points: 4
#     Node 17, Type 0, BuildingBlock: GALJAG_clean_sbu_0, # of connection points: 4
#     Edge 18, Type (0, 0), BuildingBlock: UVAHIK_clean_linker_0, # of connection points: 2
#     Edge 19, Type (0, 0), BuildingBlock: UVAHIK_clean_linker_0, # of connection points: 2
#     Edge 20, Type (0, 0), BuildingBlock: UVAHIK_clean_linker_0, # of connection points: 2
#     Edge 21, Type (0, 0), BuildingBlock: UVAHIK_clean_linker_0, # of connection points: 2
#     Edge 22, Type (0, 0), BuildingBlock: UVAHIK_clean_linker_0, # of connection points: 2
#     Edge 23, Type (0, 0), BuildingBlock: UVAHIK_clean_linker_0, # of connection points: 2
#     Edge 24, Type (0, 0), BuildingBlock: UVAHIK_clean_linker_0, # of connection points: 2
#     Edge 25, Type (0, 0), BuildingBlock: UVAHIK_clean_linker_0, # of connection points: 2
#     Edge 26, Type (0, 0), BuildingBlock: UVAHIK_clean_linker_0, # of connection points: 2
#     Edge 27, Type (0, 0), BuildingBlock: UVAHIK_clean_linker_0, # of connection points: 2
#     Edge 28, Type (0, 0), BuildingBlock: UVAHIK_clean_linker_0, # of connection points: 2
#     Edge 29, Type (0, 0), BuildingBlock: UVAHIK_clean_linker_0, # of connection points: 2
#     Edge 30, Type (0, 0), BuildingBlock: UVAHIK_clean_linker_0, # of connection points: 2
#     Edge 31, Type (0, 0), BuildingBlock: UVAHIK_clean_linker_0, # of connection points: 2
#     Edge 32, Type (0, 0), BuildingBlock: UVAHIK_clean_linker_0, # of connection points: 2
#     Edge 33, Type (0, 0), BuildingBlock: UVAHIK_clean_linker_0, # of connection points: 2
#     Edge 34, Type (0, 0), BuildingBlock: UVAHIK_clean_linker_0, # of connection points: 2
#     Edge 35, Type (0, 0), BuildingBlock: UVAHIK_clean_linker_0, # of connection points: 2
#     Edge 36, Type (0, 0), BuildingBlock: UVAHIK_clean_linker_0, # of connection points: 2
#     Edge 37, Type (0, 0), BuildingBlock: UVAHIK_clean_linker_0, # of connection points: 2
#     Edge 38, Type (0, 0), BuildingBlock: UVAHIK_clean_linker_0, # of connection points: 2
#     Edge 39, Type (0, 0), BuildingBlock: UVAHIK_clean_linker_0, # of connection points: 2
#     Edge 40, Type (0, 0), BuildingBlock: UVAHIK_clean_linker_0, # of connection points: 2
#     Edge 41, Type (0, 0), BuildingBlock: UVAHIK_clean_linker_0, # of connection points: 2
#     Edge 42, Type (0, 0), BuildingBlock: UVAHIK_clean_linker_0, # of connection points: 2
#     Edge 43, Type (0, 0), BuildingBlock: UVAHIK_clean_linker_0, # of connection points: 2
#     Edge 44, Type (0, 0), BuildingBlock: UVAHIK_clean_linker_0, # of connection points: 2
#     Edge 45, Type (0, 0), BuildingBlock: UVAHIK_clean_linker_0, # of connection points: 2
#     Edge 46, Type (0, 0), BuildingBlock: UVAHIK_clean_linker_0, # of connection points: 2
#     Edge 47, Type (0, 0), BuildingBlock: UVAHIK_clean_linker_0, # of connection points: 2
#     Edge 48, Type (0, 0), BuildingBlock: UVAHIK_clean_linker_0, # of connection points: 2
#     Edge 49, Type (0, 0), BuildingBlock: UVAHIK_clean_linker_0, # of connection points: 2
#     Edge 50, Type (0, 0), BuildingBlock: UVAHIK_clean_linker_0, # of connection points: 2
#     Edge 51, Type (0, 0), BuildingBlock: UVAHIK_clean_linker_0, # of connection points: 2
#     Edge 52, Type (0, 0), BuildingBlock: UVAHIK_clean_linker_0, # of connection points: 2
#     Edge 53, Type (0, 0), BuildingBlock: UVAHIK_clean_linker_0, # of connection points: 2
# Relax obj value: 0.397
# Max RMSD: 0.139
# Mean RMSD: 0.139
data_MOF--net-unp--node1-GALJAG_clean_sbu_0--edge1-UVAHIK_clean_linker_0
_symmetry_space_group_name_H-M    P1
_symmetry_Int_Tables_number       1
_symmetry_cell_setting            triclinic
loop_
_symmetry_equiv_pos_as_xyz
'x, y, z'
_cell_length_a     63.839489
_cell_length_b     63.827034
_cell_length_c     54.682873
_cell_angle_alpha  90.012897
_cell_angle_beta   89.984957
_cell_angle_gamma 119.99796
loop_
_atom_site_label
_atom_site_type_symbol
_atom_site_fract_x
_atom_site_fract_y
_atom_site_fract_z
_atom_type_partial_charge
In0 In 0.16922 0.16111 0.1765 0.0
O1 O 0.1912 0.20225 0.174 0.0
O2 O 0.20615 0.18471 0.19448 0.0
C3 C 0.12859 0.16229 0.1878 0.0
C4 C 0.16918 0.15292 0.12807 0.0
C5 C 0.1686 0.12237 0.19754 0.0
O6 O 0.14359 0.16416 0.20392 0.0
O7 O 0.13452 0.16058 0.16623 0.0
O8 O 0.18097 0.13271 0.17881 0.0
O9 O 0.157 0.13191 0.20608 0.0
C10 C 0.20905 0.20431 0.18586 0.0
O11 O 0.15188 0.13901 0.14183 0.0
O12 O 0.18641 0.17063 0.13879 0.0
In13 In 0.8332 0.00506 0.18398 0.0
O14 O 0.79236 0.99002 0.18608 0.0
O15 O 0.81501 0.02524 0.19986 0.0
C16 C 0.8339 0.9671 0.20541 0.0
C17 C 0.83329 0.00407 0.13472 0.0
C18 C 0.87802 0.04247 0.19279 0.0
O19 O 0.84517 0.98825 0.21393 0.0
O20 O 0.82122 0.96483 0.18688 0.0
O21 O 0.87112 0.03295 0.17199 0.0
O22 O 0.8622 0.03326 0.20942 0.0
C23 C 0.79378 0.00889 0.1949 0.0
O24 O 0.83193 0.02026 0.1467 0.0
O25 O 0.83503 0.98859 0.14759 0.0
In26 In 0.00765 0.84618 0.17698 0.0
O27 O 0.01354 0.86864 0.14247 0.0
O28 O 0.01921 0.83861 0.14017 0.0
C29 C 0.97153 0.85486 0.18797 0.0
C30 C 0.98903 0.7978 0.18008 0.0
C31 C 0.04729 0.87807 0.20269 0.0
O32 O 0.97822 0.84403 0.20264 0.0
O33 O 0.983 0.8611 0.16802 0.0
O34 O 0.02609 0.86953 0.21075 0.0
O35 O 0.04854 0.86946 0.18241 0.0
C36 C 0.0191 0.85595 0.12923 0.0
O37 O 0.00942 0.81248 0.18911 0.0
O38 O 0.978 0.80758 0.17077 0.0
In39 In 0.17049 0.16737 0.81839 0.0
O40 O 0.20797 0.19921 0.8076 0.0
O41 O 0.1805 0.20673 0.81816 0.0
C42 C 0.17716 0.13311 0.79629 0.0
C43 C 0.16988 0.15846 0.86668 0.0
C44 C 0.1265 0.15986 0.80558 0.0
O45 O 0.16614 0.14253 0.78615 0.0
O46 O 0.18596 0.14194 0.81687 0.0
O47 O 0.13295 0.16054 0.82752 0.0
O48 O 0.14235 0.16307 0.78985 0.0
C49 C 0.20223 0.21509 0.81203 0.0
O50 O 0.1527 0.14487 0.85263 0.0
O51 O 0.18731 0.17632 0.85632 0.0
In52 In 0.8358 0.00015 0.82277 0.0
O53 O 0.82677 0.98096 0.85957 0.0
O54 O 0.84042 0.01897 0.85938 0.0
C55 C 0.8433 0.96391 0.80853 0.0
C56 C 0.79266 0.99661 0.81208 0.0
C57 C 0.87803 0.03838 0.80798 0.0
O58 O 0.84091 0.96814 0.83055 0.0
O59 O 0.84159 0.97786 0.79327 0.0
O60 O 0.8607 0.02682 0.79332 0.0
O61 O 0.87384 0.03078 0.82967 0.0
C62 C 0.83287 -0.0001 0.87187 0.0
O63 O 0.81073 0.01593 0.81921 0.0
O64 O 0.79674 0.97945 0.80877 0.0
In65 In 0.01533 0.84626 0.81955 0.0
O66 O 0.01769 0.86773 0.85399 0.0
O67 O 0.02331 0.83776 0.85761 0.0
C68 C 0.05388 0.88595 0.80033 0.0
C69 C 0.01292 0.80348 0.81006 0.0
C70 C 0.97367 0.84445 0.80628 0.0
O71 O 0.05534 0.87526 0.81907 0.0
O72 O 0.03314 0.87621 0.79081 0.0
O73 O 0.9885 0.84481 0.79077 0.0
O74 O 0.9795 0.84413 0.82824 0.0
C75 C 0.0222 0.85478 0.86805 0.0
O76 O 0.9969 0.80515 0.82191 0.0
O77 O 0.02942 0.82327 0.80157 0.0
In78 In 0.83986 0.50069 0.51034 0.0
O79 O 0.86404 0.5417 0.51355 0.0
O80 O 0.87736 0.51989 0.52806 0.0
C81 C 0.79952 0.50211 0.5227 0.0
C82 C 0.83968 0.49605 0.46128 0.0
C83 C 0.83663 0.45935 0.52717 0.0
O84 O 0.81201 0.4986 0.53829 0.0
O85 O 0.80794 0.50585 0.50131 0.0
O86 O 0.84772 0.4696 0.50778 0.0
O87 O 0.8277 0.47029 0.53847 0.0
C88 C 0.88153 0.54093 0.52325 0.0
O89 O 0.82306 0.48048 0.47466 0.0
O90 O 0.85632 0.51371 0.47267 0.0
In91 In 0.50119 0.33937 0.51046 0.0
O92 O 0.46028 0.32335 0.5137 0.0
O93 O 0.48255 0.35782 0.52927 0.0
C94 C 0.50615 0.30159 0.52466 0.0
C95 C 0.49604 0.33781 0.46154 0.0
C96 C 0.54559 0.37673 0.52154 0.0
O97 O 0.49921 0.31216 0.5394 0.0
O98 O 0.51031 0.31001 0.50326 0.0
O99 O 0.53581 0.37407 0.50091 0.0
O100 O 0.53282 0.36071 0.537 0.0
C101 C 0.46139 0.34146 0.52409 0.0
O102 O 0.5047 0.35732 0.47349 0.0
O103 O 0.49004 0.31917 0.47428 0.0
In104 In 0.66859 0.17134 0.51448 0.0
O105 O 0.68363 0.14553 0.51659 0.0
O106 O 0.64816 0.13282 0.52984 0.0
C107 C 0.70919 0.20939 0.53304 0.0
C108 C 0.66844 0.17445 0.46531 0.0
C109 C 0.63031 0.17616 0.52731 0.0
O110 O 0.68909 0.20003 0.54385 0.0
O111 O 0.70905 0.19888 0.51349 0.0
O112 O 0.63556 0.17455 0.50543 0.0
O113 O 0.64414 0.17487 0.543 0.0
C114 C 0.66462 0.12802 0.52515 0.0
O115 O 0.65946 0.15455 0.47654 0.0
O116 O 0.67716 0.19291 0.47891 0.0
In117 In 0.8382 0.50189 0.14955 0.0
O118 O 0.8526 0.51706 0.18741 0.0
O119 O 0.82312 0.48101 0.18519 0.0
C120 C 0.79353 0.49481 0.14044 0.0
C121 C 0.87286 0.54658 0.13512 0.0
C122 C 0.84286 0.46513 0.13079 0.0
O123 O 0.80471 0.50382 0.16014 0.0
O124 O 0.80503 0.48969 0.12506 0.0
O125 O 0.83344 0.47528 0.11898 0.0
O126 O 0.85106 0.47438 0.15141 0.0
C127 C 0.83785 0.49811 0.19869 0.0
O128 O 0.87781 0.53114 0.14337 0.0
O129 O 0.85059 0.53897 0.13281 0.0
In130 In 0.49463 0.33524 0.14991 0.0
O131 O 0.48797 0.31625 0.18677 0.0
O132 O 0.49438 0.35228 0.18647 0.0
C133 C 0.50203 0.29887 0.13603 0.0
C134 C 0.4527 0.33211 0.13443 0.0
C135 C 0.53848 0.37375 0.14003 0.0
O136 O 0.49091 0.29829 0.15532 0.0
O137 O 0.50902 0.31768 0.12321 0.0
O138 O 0.52337 0.36243 0.12326 0.0
O139 O 0.5313 0.36582 0.16128 0.0
C140 C 0.49004 0.33395 0.199 0.0
O141 O 0.46985 0.35109 0.14335 0.0
O142 O 0.45733 0.31529 0.13162 0.0
In143 In 0.67249 0.17489 0.1532 0.0
O144 O 0.67725 0.19522 0.18915 0.0
O145 O 0.67021 0.15901 0.19094 0.0
C146 C 0.71172 0.21606 0.13792 0.0
C147 C 0.67497 0.13518 0.14036 0.0
C148 C 0.63191 0.17493 0.13879 0.0
O149 O 0.71154 0.20532 0.15736 0.0
O150 O 0.69225 0.20576 0.12588 0.0
O151 O 0.6482 0.17774 0.12389 0.0
O152 O 0.63573 0.17128 0.16053 0.0
C153 C 0.67405 0.17771 0.20247 0.0
O154 O 0.65591 0.13401 0.14834 0.0
O155 O 0.69223 0.15639 0.13723 0.0
In156 In 0.50711 0.83954 0.84901 0.0
O157 O 0.53109 0.88046 0.85409 0.0
O158 O 0.54399 0.85829 0.86822 0.0
C159 C 0.46272 0.83283 0.8587 0.0
C160 C 0.51209 0.84316 0.79998 0.0
C161 C 0.5014 0.79657 0.86352 0.0
O162 O 0.47839 0.83855 0.87535 0.0
O163 O 0.46954 0.83067 0.83772 0.0
O164 O 0.51187 0.80685 0.84389 0.0
O165 O 0.49406 0.80816 0.87623 0.0
C166 C 0.54828 0.87945 0.86409 0.0
O167 O 0.51642 0.82907 0.81237 0.0
O168 O 0.50524 0.85534 0.81233 0.0
In169 In 0.16411 0.66635 0.84717 0.0
O170 O 0.12344 0.6519 0.85044 0.0
O171 O 0.14696 0.68685 0.86449 0.0
C172 C 0.16151 0.62539 0.86447 0.0
C173 C 0.16701 0.66561 0.79801 0.0
C174 C 0.20758 0.70492 0.85854 0.0
O175 O 0.17007 0.64457 0.8769 0.0
O176 O 0.15315 0.62656 0.84399 0.0
O177 O 0.1974 0.7025 0.83815 0.0
O178 O 0.19552 0.68817 0.87362 0.0
C179 C 0.12549 0.67081 0.85991 0.0
O180 O 0.15373 0.67201 0.80898 0.0
O181 O 0.17914 0.65983 0.81186 0.0
In182 In 0.338 0.50748 0.8484 0.0
O183 O 0.35066 0.47989 0.85417 0.0
O184 O 0.31521 0.47012 0.86531 0.0
C185 C 0.3789 0.54521 0.86672 0.0
C186 C 0.34064 0.51134 0.79923 0.0
C187 C 0.29927 0.51228 0.85904 0.0
O188 O 0.35962 0.53425 0.87893 0.0
O189 O 0.37787 0.53636 0.84587 0.0
O190 O 0.30092 0.50267 0.83951 0.0
O191 O 0.31706 0.5193 0.87331 0.0
C192 C 0.33076 0.46368 0.86265 0.0
O193 O 0.34283 0.52829 0.81285 0.0
O194 O 0.33688 0.49249 0.81041 0.0
In195 In 0.50177 0.83905 0.48868 0.0
O196 O 0.5427 0.86394 0.48552 0.0
O197 O 0.52036 0.8766 0.47101 0.0
C198 C 0.49477 0.79516 0.47586 0.0
C199 C 0.50745 0.84311 0.53757 0.0
C200 C 0.459 0.83392 0.47433 0.0
O201 O 0.50667 0.81348 0.46237 0.0
O202 O 0.48671 0.79923 0.49521 0.0
O203 O 0.46632 0.83802 0.49617 0.0
O204 O 0.47352 0.83283 0.45937 0.0
C205 C 0.54153 0.88122 0.47587 0.0
O206 O 0.49671 0.85205 0.52591 0.0
O207 O 0.51527 0.83217 0.52455 0.0
In208 In 0.16965 0.66802 0.48615 0.0
O209 O 0.18309 0.66011 0.52197 0.0
O210 O 0.15612 0.67018 0.52401 0.0
C211 C 0.17328 0.63045 0.46841 0.0
C212 C 0.12749 0.66564 0.47362 0.0
C213 C 0.20954 0.7096 0.47276 0.0
O214 O 0.15828 0.6279 0.48482 0.0
O215 O 0.18592 0.65177 0.46053 0.0
O216 O 0.19414 0.69566 0.45734 0.0
O217 O 0.20432 0.70294 0.49468 0.0
C218 C 0.16949 0.66424 0.5354 0.0
O219 O 0.14478 0.68403 0.48341 0.0
O220 O 0.13211 0.64911 0.4685 0.0
In221 In 0.33908 0.50693 0.48825 0.0
O222 O 0.3492 0.52975 0.52321 0.0
O223 O 0.34042 0.49311 0.52625 0.0
C224 C 0.37515 0.54649 0.46626 0.0
C225 C 0.33957 0.46593 0.47698 0.0
C226 C 0.2967 0.5053 0.47894 0.0
O227 O 0.37881 0.53576 0.48368 0.0
O228 O 0.35341 0.5368 0.45939 0.0
O229 O 0.30753 0.50009 0.4628 0.0
O230 O 0.30691 0.51052 0.49952 0.0
C231 C 0.34657 0.51278 0.53705 0.0
O232 O 0.32212 0.46588 0.48782 0.0
O233 O 0.35605 0.48658 0.4703 0.0
C234 C 0.4093 0.30646 0.12265 0.0
C235 C 0.42783 0.328 0.13281 0.0
C236 C 0.38507 0.29972 0.12635 0.0
C237 C 0.34848 0.30455 0.17369 0.0
H238 H 0.29609 0.27151 0.12726 0.0
C239 C 0.23709 0.24509 0.16844 0.0
C240 C 0.23295 0.22658 0.18504 0.0
C241 C 0.26066 0.26329 0.16306 0.0
C242 C 0.31052 0.28104 0.14039 0.0
H243 H 0.43563 0.36023 0.15326 0.0
H244 H 0.39323 0.34823 0.15998 0.0
H245 H 0.3379 0.29305 0.11268 0.0
H246 H 0.25002 0.21379 0.21059 0.0
H247 H 0.29118 0.24589 0.20156 0.0
H248 H 0.32116 0.29143 0.20154 0.0
C249 C 0.39749 0.33661 0.14918 0.0
C250 C 0.33441 0.29321 0.13205 0.0
C251 C 0.42173 0.34353 0.14517 0.0
C252 C 0.25267 0.22781 0.19772 0.0
C253 C 0.27622 0.24621 0.19257 0.0
C254 C 0.3246 0.29208 0.18207 0.0
C255 C 0.37896 0.31426 0.14053 0.0
C256 C 0.35364 0.30465 0.14867 0.0
C257 C 0.28049 0.26354 0.17446 0.0
C258 C 0.30543 0.27979 0.16555 0.0
H259 H 0.41349 0.29414 0.11306 0.0
H260 H 0.37115 0.28233 0.11956 0.0
H261 H 0.36298 0.313 0.18695 0.0
H262 H 0.22226 0.24463 0.15837 0.0
H263 H 0.26346 0.27658 0.14921 0.0
C264 C 0.77543 0.03439 0.20522 0.0
C265 C 0.77326 0.01342 0.19444 0.0
C266 C 0.75838 0.04147 0.20028 0.0
C267 C 0.72139 0.04022 0.15014 0.0
H268 H 0.695 0.06685 0.19657 0.0
C269 C 0.66309 0.09329 0.15366 0.0
C270 C 0.67856 0.11405 0.14005 0.0
C271 C 0.66958 0.07579 0.15857 0.0
C272 C 0.70194 0.05915 0.1834 0.0
H273 H 0.7508 0.98265 0.17123 0.0
H274 H 0.72129 0.99534 0.16227 0.0
H275 H 0.71542 0.0455 0.21146 0.0
H276 H 0.71187 0.13182 0.11921 0.0
H277 H 0.72285 0.10085 0.12718 0.0
H278 H 0.70913 0.05507 0.12211 0.0
C279 C 0.73611 0.00618 0.17459 0.0
C280 C 0.71372 0.04709 0.19193 0.0
C281 C 0.75291 0.99887 0.17988 0.0
C282 C 0.6996 0.11598 0.12972 0.0
C283 C 0.70586 0.09826 0.13427 0.0
C284 C 0.71 0.05265 0.14162 0.0
C285 C 0.73909 0.02791 0.18418 0.0
C286 C 0.72389 0.03786 0.17538 0.0
C287 C 0.69139 0.07852 0.14954 0.0
C288 C 0.70051 0.06256 0.15819 0.0
H289 H 0.79094 0.04596 0.21647 0.0
H290 H 0.76115 0.05838 0.20781 0.0
H291 H 0.72931 0.03347 0.137 0.0
H292 H 0.6468 0.09136 0.16195 0.0
H293 H 0.65805 0.06063 0.17025 0.0
C294 C 0.88411 0.58869 0.12368 0.0
C295 C 0.89105 0.57249 0.13272 0.0
C296 C 0.89946 0.6136 0.12601 0.0
C297 C 0.94691 0.65685 0.16666 0.0
H298 H 0.94785 0.70335 0.12045 0.0
C299 C 0.99412 0.76131 0.18385 0.0
C300 C 0.97988 0.7716 0.17741 0.0
C301 C 0.98646 0.73715 0.17793 0.0
C302 C 0.94775 0.69056 0.13354 0.0
H303 H 0.92013 0.56961 0.14986 0.0
H304 H 0.94714 0.61329 0.15376 0.0
H305 H 0.93028 0.6611 0.1084 0.0
H306 H 0.94604 0.76439 0.16081 0.0
H307 H 0.93279 0.72254 0.15068 0.0
H308 H 0.96399 0.68643 0.19195 0.0
C309 C 0.92967 0.60668 0.14515 0.0
C310 C 0.93771 0.66638 0.12664 0.0
C311 C 0.91431 0.58169 0.1427 0.0
C312 C 0.95751 0.75707 0.1659 0.0
C313 C 0.94999 0.73313 0.15988 0.0
C314 C 0.95709 0.68114 0.17354 0.0
C315 C 0.9221 0.62288 0.13749 0.0
C316 C 0.93648 0.64909 0.14336 0.0
C317 C 0.9646 0.72307 0.16531 0.0
C318 C 0.95689 0.69805 0.15728 0.0
H319 H 0.86628 0.58213 0.11593 0.0
H320 H 0.89292 0.6255 0.1201 0.0
H321 H 0.94605 0.64395 0.18007 0.0
H322 H 0.01148 0.77212 0.19267 0.0
H323 H 0.99802 0.72978 0.18241 0.0
C324 C 0.3397 0.43022 0.85507 0.0
C325 C 0.32441 0.4381 0.86476 0.0
C326 C 0.33136 0.40548 0.85217 0.0
C327 C 0.28028 0.34414 0.86805 0.0
H328 H 0.29101 0.32683 0.80308 0.0
C329 C 0.21185 0.257 0.82168 0.0
C330 C 0.21991 0.2412 0.81406 0.0
C331 C 0.22834 0.28074 0.82823 0.0
C332 C 0.28819 0.33141 0.8214 0.0
H333 H 0.28914 0.42636 0.88063 0.0
H334 H 0.27459 0.38352 0.8755 0.0
H335 H 0.31408 0.36896 0.81667 0.0
H336 H 0.25162 0.23835 0.80581 0.0
H337 H 0.28071 0.28056 0.81671 0.0
H338 H 0.25333 0.30685 0.87213 0.0
C339 C 0.29304 0.39621 0.87025 0.0
C340 C 0.30145 0.35548 0.82928 0.0
C341 C 0.30135 0.42084 0.87311 0.0
C342 C 0.24491 0.25015 0.81159 0.0
C343 C 0.26151 0.27418 0.81789 0.0
C344 C 0.26688 0.32024 0.86007 0.0
C345 C 0.30764 0.38822 0.85902 0.0
C346 C 0.29706 0.36225 0.85242 0.0
C347 C 0.25327 0.28935 0.82703 0.0
C348 C 0.2702 0.31383 0.83643 0.0
H349 H 0.35759 0.44314 0.84847 0.0
H350 H 0.34318 0.39992 0.84381 0.0
H351 H 0.27684 0.34859 0.88617 0.0
H352 H 0.19273 0.25073 0.82367 0.0
H353 H 0.22158 0.29227 0.83482 0.0
C354 C 0.76311 0.00894 0.82572 0.0
C355 C 0.76795 0.99297 0.81242 0.0
C356 C 0.73928 0.00289 0.83081 0.0
C357 C 0.67564 0.96346 0.81422 0.0
H358 H 0.66294 0.95876 0.88403 0.0
C359 C 0.59159 0.89852 0.87669 0.0
C360 C 0.57297 0.90054 0.86527 0.0
C361 C 0.61577 0.91588 0.87252 0.0
C362 C 0.66628 0.96031 0.86451 0.0
H363 H 0.75178 0.95913 0.79245 0.0
H364 H 0.71008 0.94892 0.80073 0.0
H365 H 0.70473 0.97828 0.86922 0.0
H366 H 0.56496 0.92323 0.8421 0.0
H367 H 0.60727 0.95331 0.8345 0.0
H368 H 0.63721 0.94486 0.8095 0.0
C369 C 0.72472 0.96595 0.80742 0.0
C370 C 0.69012 0.97155 0.85603 0.0
C371 C 0.74855 0.97177 0.80271 0.0
C372 C 0.57892 0.9212 0.85118 0.0
C373 C 0.60311 0.93835 0.84668 0.0
C374 C 0.65183 0.95263 0.82268 0.0
C375 C 0.71991 0.98104 0.82226 0.0
C376 C 0.69497 0.97263 0.83084 0.0
C377 C 0.62172 0.93535 0.8566 0.0
C378 C 0.64692 0.95039 0.84791 0.0
H379 H 0.77771 0.02537 0.83352 0.0
H380 H 0.73599 0.01486 0.84218 0.0
H381 H 0.67895 0.96409 0.79473 0.0
H382 H 0.58752 0.88277 0.88761 0.0
H383 H 0.6298 0.91311 0.88031 0.0
C384 C 0.08415 0.66137 0.84707 0.0
C385 C 0.10527 0.67581 0.86066 0.0
C386 C 0.06749 0.66911 0.84283 0.0
C387 C 0.04832 0.71253 0.86152 0.0
H388 H 0.03884 0.71738 0.79209 0.0
C389 C 0.03363 0.78059 0.79793 0.0
C390 C 0.01486 0.78137 0.81053 0.0
C391 C 0.03879 0.76211 0.80261 0.0
C392 C 0.0411 0.7159 0.81153 0.0
H393 H 0.12453 0.70858 0.88214 0.0
H394 H 0.09515 0.72183 0.8752 0.0
H395 H 0.05835 0.69487 0.80596 0.0
H396 H 0.98567 0.76249 0.8366 0.0
H397 H 0.9949 0.73037 0.8449 0.0
H398 H 0.03187 0.7343 0.86705 0.0
C399 C 0.09158 0.70465 0.86765 0.0
C400 C 0.05209 0.7029 0.81949 0.0
C401 C 0.10841 0.6971 0.87161 0.0
C402 C 0.00028 0.7624 0.82661 0.0
C403 C 0.00564 0.74409 0.8315 0.0
C404 C 0.03703 0.72525 0.85358 0.0
C405 C 0.07145 0.6912 0.85245 0.0
C406 C 0.05638 0.70163 0.84452 0.0
C407 C 0.02543 0.74422 0.82014 0.0
C408 C 0.03389 0.7276 0.82847 0.0
H409 H 0.08126 0.64489 0.83836 0.0
H410 H 0.052 0.65831 0.83123 0.0
H411 H 0.05136 0.71178 0.88091 0.0
H412 H 0.04516 0.79497 0.78547 0.0
H413 H 0.05424 0.76273 0.79367 0.0
C414 C 0.9251 0.56045 0.53509 0.0
C415 C 0.90623 0.5621 0.52376 0.0
C416 C 0.94918 0.5781 0.53085 0.0
C417 C 0.98546 0.61662 0.48161 0.0
H418 H 0.0375 0.64235 0.52912 0.0
C419 C 0.08391 0.64092 0.46198 0.0
C420 C 0.1026 0.66159 0.47329 0.0
C421 C 0.05973 0.63409 0.46632 0.0
C422 C 0.02314 0.63561 0.51566 0.0
H423 H 0.89767 0.58429 0.50045 0.0
H424 H 0.93979 0.61491 0.49277 0.0
H425 H 0.99546 0.62102 0.54315 0.0
H426 H 0.11072 0.69216 0.49673 0.0
H427 H 0.06845 0.67996 0.50457 0.0
H428 H 0.01314 0.63007 0.45412 0.0
C429 C 0.93591 0.6 0.50493 0.0
C430 C 0.99914 0.6233 0.52369 0.0
C431 C 0.91183 0.58256 0.50948 0.0
C432 C 0.09671 0.67617 0.4877 0.0
C433 C 0.07254 0.66912 0.49234 0.0
C434 C 0.00946 0.62858 0.47358 0.0
C435 C 0.9548 0.59751 0.51494 0.0
C436 C 0.98008 0.61335 0.50674 0.0
C437 C 0.05385 0.64762 0.48231 0.0
C438 C 0.02852 0.63783 0.49053 0.0
H439 H 0.92132 0.54487 0.54615 0.0
H440 H 0.96341 0.57569 0.53872 0.0
H441 H 0.9711 0.60889 0.46814 0.0
H442 H 0.08792 0.62933 0.45083 0.0
H443 H 0.04566 0.61737 0.45843 0.0
C444 C 0.32863 0.42485 0.49225 0.0
C445 C 0.34289 0.44463 0.4769 0.0
C446 C 0.3352 0.40736 0.49685 0.0
C447 C 0.37369 0.38271 0.47675 0.0
H448 H 0.38347 0.37765 0.54608 0.0
C449 C 0.41966 0.33065 0.5113 0.0
C450 C 0.44051 0.34542 0.52512 0.0
C451 C 0.40235 0.33757 0.50724 0.0
C452 C 0.38057 0.37867 0.5267 0.0
H453 H 0.37398 0.46054 0.45278 0.0
H454 H 0.38513 0.42966 0.46037 0.0
H455 H 0.36243 0.39881 0.53259 0.0
H456 H 0.45859 0.37789 0.54722 0.0
H457 H 0.42805 0.38968 0.54061 0.0
H458 H 0.39253 0.36326 0.47083 0.0
C459 C 0.36902 0.42781 0.469 0.0
C460 C 0.36842 0.39061 0.51897 0.0
C461 C 0.36266 0.4455 0.46467 0.0
C462 C 0.4427 0.36615 0.53651 0.0
C463 C 0.42521 0.37288 0.53274 0.0
C464 C 0.38552 0.37045 0.48449 0.0
C465 C 0.35589 0.40911 0.48586 0.0
C466 C 0.36541 0.39328 0.4939 0.0
C467 C 0.40537 0.35916 0.51728 0.0
C468 C 0.38962 0.36885 0.50951 0.0
H469 H 0.3133 0.42371 0.50197 0.0
H470 H 0.32466 0.393 0.50974 0.0
H471 H 0.37156 0.38448 0.45733 0.0
H472 H 0.41747 0.31457 0.50225 0.0
H473 H 0.3871 0.32656 0.49545 0.0
C474 C 0.63931 0.08426 0.53591 0.0
C475 C 0.6602 0.10299 0.52495 0.0
C476 C 0.63247 0.0601 0.53149 0.0
C477 C 0.63452 0.02336 0.48262 0.0
H478 H 0.60824 0.97165 0.53052 0.0
C479 C 0.58291 0.91214 0.48962 0.0
C480 C 0.56237 0.90611 0.47529 0.0
C481 C 0.60005 0.93636 0.49404 0.0
C482 C 0.61584 0.98591 0.51695 0.0
H483 H 0.69103 0.11119 0.5019 0.0
H484 H 0.67878 0.06891 0.49386 0.0
H485 H 0.62894 0.01379 0.54423 0.0
H486 H 0.54469 0.92057 0.45271 0.0
H487 H 0.57499 0.96291 0.4599 0.0
H488 H 0.62028 0.99547 0.45534 0.0
C489 C 0.66781 0.07297 0.50592 0.0
C490 C 0.62752 0.00997 0.5248 0.0
C491 C 0.67487 0.09713 0.51067 0.0
C492 C 0.56034 0.9247 0.46381 0.0
C493 C 0.57769 0.94891 0.46791 0.0
C494 C 0.62247 0.99929 0.47477 0.0
C495 C 0.6462 0.05425 0.51575 0.0
C496 C 0.63662 0.02891 0.50771 0.0
C497 C 0.59718 0.95496 0.48383 0.0
C498 C 0.61269 0.98035 0.49186 0.0
H499 H 0.62764 0.08826 0.54695 0.0
H500 H 0.61566 0.046 0.5392 0.0
H501 H 0.64117 0.03764 0.46906 0.0
H502 H 0.58493 0.89821 0.49879 0.0
H503 H 0.61502 0.94057 0.50623 0.0
C504 C 0.08954 0.15851 0.17449 0.0
C505 C 0.10474 0.15955 0.19357 0.0
C506 C 0.06567 0.15235 0.17921 0.0
C507 C 0.01715 0.11658 0.22248 0.0
H508 H 0.98231 0.1395 0.18284 0.0
C509 C 0.91256 0.0678 0.22106 0.0
C510 C 0.90311 0.06196 0.19724 0.0
C511 C 0.93708 0.08457 0.22477 0.0
C512 C 0.99181 0.133 0.19415 0.0
H513 H 0.10733 0.15629 0.23276 0.0
H514 H 0.06543 0.14555 0.24109 0.0
H515 H 0.02646 0.1613 0.18231 0.0
H516 H 0.91152 0.06983 0.15875 0.0
H517 H 0.95406 0.09908 0.16519 0.0
H518 H 0.98245 0.08776 0.2336 0.0
C519 C 0.07197 0.14929 0.22242 0.0
C520 C 0.01707 0.14545 0.19383 0.0
C521 C 0.09598 0.15557 0.21768 0.0
C522 C 0.91831 0.07393 0.17732 0.0
C523 C 0.94265 0.09084 0.18102 0.0
C524 C 0.99186 0.10418 0.22287 0.0
C525 C 0.05638 0.14704 0.20314 0.0
C526 C 0.03002 0.13686 0.20727 0.0
C527 C 0.95244 0.09603 0.20474 0.0
C528 C 0.97894 0.11175 0.20801 0.0
H529 H 0.09578 0.1615 0.15571 0.0
H530 H 0.05414 0.15049 0.16387 0.0
H531 H 0.02651 0.10932 0.23288 0.0
H532 H 0.90122 0.05881 0.23674 0.0
H533 H 0.94413 0.0883 0.24325 0.0
C534 C 0.85912 0.95372 0.22799 0.0
C535 C 0.83888 0.94788 0.21331 0.0
C536 C 0.86756 0.93743 0.23055 0.0
C537 C 0.86727 0.8888 0.19439 0.0
H538 H 0.90871 0.88994 0.24681 0.0
C539 C 0.94595 0.87257 0.17628 0.0
C540 C 0.95207 0.86027 0.19355 0.0
C541 C 0.92807 0.87838 0.18138 0.0
C542 C 0.89688 0.88904 0.23215 0.0
H543 H 0.81002 0.9195 0.19203 0.0
H544 H 0.82415 0.89064 0.19727 0.0
H545 H 0.88272 0.90733 0.25342 0.0
H546 H 0.9441 0.84414 0.22969 0.0
H547 H 0.91252 0.85421 0.23862 0.0
H548 H 0.88142 0.87062 0.1731 0.0
C549 C 0.8341 0.90814 0.20606 0.0
C550 C 0.88216 0.89925 0.23585 0.0
C551 C 0.82585 0.92458 0.20323 0.0
C552 C 0.93975 0.85367 0.21603 0.0
C553 C 0.92176 0.85951 0.22117 0.0
C554 C 0.8818 0.87847 0.19078 0.0
C555 C 0.85575 0.91482 0.21872 0.0
C556 C 0.86779 0.90001 0.21672 0.0
C557 C 0.91574 0.87196 0.20388 0.0
C558 C 0.89745 0.87927 0.20928 0.0
H559 H 0.86953 0.97156 0.23601 0.0
H560 H 0.88435 0.94337 0.24032 0.0
H561 H 0.85669 0.88916 0.17909 0.0
H562 H 0.95518 0.878 0.15883 0.0
H563 H 0.9243 0.88844 0.16784 0.0
C564 C 0.14795 0.08588 0.22442 0.0
C565 C 0.16574 0.09936 0.20689 0.0
C566 C 0.14244 0.06234 0.23025 0.0
C567 C 0.1437 0.01172 0.20041 0.0
H568 H 0.11713 0.97933 0.26213 0.0
C569 C 0.09119 0.90917 0.20273 0.0
C570 C 0.06813 0.89986 0.21318 0.0
C571 C 0.1094 0.93281 0.20786 0.0
C572 C 0.12459 0.98813 0.24479 0.0
H573 H 0.19311 0.09962 0.18322 0.0
H574 H 0.18383 0.05872 0.19372 0.0
H575 H 0.13814 0.02352 0.26012 0.0
H576 H 0.04676 0.90702 0.23908 0.0
H577 H 0.07822 0.94834 0.2476 0.0
H578 H 0.12926 0.97663 0.18472 0.0
C579 C 0.17371 0.06607 0.20255 0.0
C580 C 0.1366 0.01343 0.24364 0.0
C581 C 0.17911 0.08954 0.19661 0.0
C582 C 0.06435 0.91374 0.23068 0.0
C583 C 0.08248 0.93746 0.23564 0.0
C584 C 0.13173 0.98654 0.20155 0.0
C585 C 0.1547 0.05185 0.21875 0.0
C586 C 0.14567 0.02548 0.22126 0.0
C587 C 0.1048 0.94768 0.22332 0.0
C588 C 0.12138 0.97436 0.22358 0.0
H589 H 0.13737 0.093 0.23268 0.0
H590 H 0.12756 0.05189 0.24264 0.0
H591 H 0.15005 0.02028 0.18277 0.0
H592 H 0.09471 0.89877 0.18937 0.0
H593 H 0.1266 0.93991 0.19855 0.0
C594 C 0.09656 0.91981 0.8039 0.0
C595 C 0.07403 0.90949 0.79211 0.0
C596 C 0.11436 0.94367 0.79898 0.0
C597 C 0.13109 0.99655 0.75802 0.0
H598 H 0.15613 0.03284 0.81813 0.0
C599 C 0.15887 0.09678 0.76914 0.0
C600 C 0.17566 0.11055 0.78736 0.0
C601 C 0.15283 0.07278 0.76503 0.0
C602 C 0.14991 0.02308 0.80103 0.0
H603 H 0.05302 0.91546 0.76473 0.0
H604 H 0.08386 0.95722 0.75643 0.0
H605 H 0.13359 0.98912 0.81951 0.0
H606 H 0.20126 0.11099 0.81366 0.0
H607 H 0.1913 0.06938 0.806 0.0
H608 H 0.14672 0.03082 0.73973 0.0
C609 C 0.08797 0.94686 0.76929 0.0
C610 C 0.13689 0.99787 0.80184 0.0
C611 C 0.0702 0.92295 0.77414 0.0
C612 C 0.18804 0.1007 0.79968 0.0
C613 C 0.18219 0.0768 0.79542 0.0
C614 C 0.14421 0.02187 0.7572 0.0
C615 C 0.10994 0.95776 0.78225 0.0
C616 C 0.1268 0.98429 0.78047 0.0
C617 C 0.16364 0.06217 0.77895 0.0
C618 C 0.15326 0.03545 0.77881 0.0
H619 H 0.10011 0.90979 0.81769 0.0
H620 H 0.13126 0.95138 0.80895 0.0
H621 H 0.12382 0.9866 0.74118 0.0
H622 H 0.14903 0.10389 0.75933 0.0
H623 H 0.13841 0.06209 0.75227 0.0
C624 C 0.08653 0.15473 0.81738 0.0
C625 C 0.10196 0.15476 0.79908 0.0
C626 C 0.06269 0.14817 0.81193 0.0
C627 C 0.01405 0.10969 0.77052 0.0
H628 H 0.98099 0.13842 0.80404 0.0
C629 C 0.90985 0.06089 0.77616 0.0
C630 C 0.90198 0.05827 0.80054 0.0
C631 C 0.93389 0.07765 0.77016 0.0
C632 C 0.98998 0.13031 0.79437 0.0
H633 H 0.10482 0.14869 0.76052 0.0
H634 H 0.06279 0.13685 0.75099 0.0
H635 H 0.02511 0.15926 0.80402 0.0
H636 H 0.91241 0.07201 0.83743 0.0
H637 H 0.95399 0.1012 0.82703 0.0
H638 H 0.97889 0.08011 0.76199 0.0
C639 C 0.06926 0.14196 0.76955 0.0
C640 C 0.01521 0.14221 0.79439 0.0
C641 C 0.09328 0.14879 0.77499 0.0
C642 C 0.91803 0.07359 0.8185 0.0
C643 C 0.94182 0.09047 0.81248 0.0
C644 C 0.98877 0.09777 0.7705 0.0
C645 C 0.05365 0.14132 0.78806 0.0
C646 C 0.02748 0.13152 0.78338 0.0
C647 C 0.95022 0.09228 0.78839 0.0
C648 C 0.97649 0.10747 0.78334 0.0
H649 H 0.09272 0.1593 0.8361 0.0
H650 H 0.05105 0.14749 0.82669 0.0
H651 H 0.02297 0.10093 0.76198 0.0
H652 H 0.89781 0.04924 0.76199 0.0
H653 H 0.93987 0.07873 0.75143 0.0
C654 C 0.95048 0.85431 0.77591 0.0
C655 C 0.9528 0.84729 0.79965 0.0
C656 C 0.93314 0.86105 0.77088 0.0
C657 C 0.87896 0.86103 0.79624 0.0
H658 H 0.90687 0.92436 0.76607 0.0
C659 C 0.84852 0.92895 0.81955 0.0
C660 C 0.8491 0.945 0.80166 0.0
C661 C 0.85631 0.91259 0.81411 0.0
C662 C 0.89851 0.90642 0.77401 0.0
H663 H 0.93782 0.84024 0.83629 0.0
H664 H 0.90771 0.85191 0.82758 0.0
H665 H 0.92916 0.90263 0.76554 0.0
H666 H 0.85736 0.95589 0.76373 0.0
H667 H 0.87114 0.9272 0.75417 0.0
H668 H 0.84877 0.86534 0.80565 0.0
C669 C 0.91911 0.85217 0.81277 0.0
C670 C 0.91131 0.89394 0.7737 0.0
C671 C 0.93649 0.84562 0.81782 0.0
C672 C 0.85676 0.94374 0.77789 0.0
C673 C 0.86473 0.92741 0.77246 0.0
C674 C 0.86616 0.8735 0.79652 0.0
C675 C 0.9177 0.86066 0.78945 0.0
C676 C 0.90206 0.87149 0.78558 0.0
C677 C 0.86497 0.91193 0.79066 0.0
C678 C 0.87619 0.89673 0.7862 0.0
H679 H 0.9628 0.85575 0.76153 0.0
H680 H 0.93233 0.86728 0.75267 0.0
H681 H 0.87116 0.84357 0.80516 0.0
H682 H 0.84268 0.92946 0.83803 0.0
H683 H 0.85658 0.90122 0.82867 0.0
C684 C 0.76352 0.50512 0.51049 0.0
C685 C 0.77525 0.49849 0.52796 0.0
C686 C 0.73897 0.49751 0.51288 0.0
C687 C 0.68541 0.46719 0.55423 0.0
H688 H 0.65171 0.44072 0.49308 0.0
C689 C 0.58342 0.39508 0.54684 0.0
C690 C 0.57074 0.39599 0.52625 0.0
C691 C 0.60819 0.41156 0.54935 0.0
C692 C 0.66076 0.44839 0.51026 0.0
H693 H 0.77098 0.48017 0.56252 0.0
H694 H 0.72791 0.46637 0.56648 0.0
H695 H 0.69547 0.46313 0.4936 0.0
H696 H 0.57352 0.41583 0.49309 0.0
H697 H 0.61644 0.44479 0.4977 0.0
H698 H 0.65034 0.45159 0.57092 0.0
C699 C 0.7377 0.47772 0.55107 0.0
C700 C 0.68595 0.46132 0.51056 0.0
C701 C 0.76239 0.48557 0.54878 0.0
C702 C 0.58289 0.4145 0.50901 0.0
C703 C 0.60752 0.43102 0.51159 0.0
C704 C 0.66006 0.45415 0.55394 0.0
C705 C 0.72552 0.48283 0.53264 0.0
C706 C 0.69865 0.47078 0.53253 0.0
C707 C 0.62065 0.42929 0.53137 0.0
C708 C 0.64746 0.44448 0.53193 0.0
H709 H 0.77306 0.5153 0.49437 0.0
H710 H 0.7303 0.50231 0.49869 0.0
H711 H 0.69464 0.47435 0.57145 0.0
H712 H 0.57449 0.38098 0.56042 0.0
H713 H 0.61777 0.40962 0.56473 0.0
C714 C 0.51514 0.27836 0.55598 0.0
C715 C 0.51041 0.2817 0.53163 0.0
C716 C 0.52233 0.26144 0.56161 0.0
C717 C 0.5253 0.20891 0.53653 0.0
H718 H 0.58702 0.23643 0.56993 0.0
C719 C 0.59519 0.18076 0.51527 0.0
C720 C 0.61066 0.18105 0.53366 0.0
C721 C 0.5783 0.18794 0.52034 0.0
C722 C 0.5695 0.22816 0.56109 0.0
H723 H 0.50807 0.26915 0.49436 0.0
H724 H 0.52022 0.23963 0.50413 0.0
H725 H 0.56475 0.25826 0.56972 0.0
H726 H 0.61993 0.18812 0.57207 0.0
H727 H 0.59028 0.20078 0.58099 0.0
H728 H 0.53051 0.17932 0.52699 0.0
C729 C 0.51847 0.24995 0.51891 0.0
C730 C 0.55673 0.24069 0.56098 0.0
C731 C 0.51169 0.26701 0.51328 0.0
C732 C 0.60824 0.18775 0.55752 0.0
C733 C 0.59136 0.1951 0.56259 0.0
C734 C 0.538 0.19636 0.53671 0.0
C735 C 0.52441 0.24733 0.54302 0.0
C736 C 0.53499 0.23166 0.54785 0.0
C737 C 0.57649 0.19567 0.54393 0.0
C738 C 0.56073 0.20632 0.54812 0.0
H739 H 0.51433 0.28953 0.57045 0.0
H740 H 0.52676 0.25975 0.58035 0.0
H741 H 0.50837 0.20133 0.5266 0.0
H742 H 0.59661 0.17568 0.4967 0.0
H743 H 0.56742 0.18851 0.50543 0.0
C744 C 0.81547 0.42215 0.55304 0.0
C745 C 0.8322 0.43519 0.5345 0.0
C746 C 0.80844 0.39792 0.55737 0.0
C747 C 0.803 0.3459 0.52348 0.0
H748 H 0.7819 0.3133 0.58602 0.0
C749 C 0.75172 0.24283 0.52707 0.0
C750 C 0.72999 0.23291 0.54033 0.0
C751 C 0.76955 0.26699 0.53043 0.0
C752 C 0.78775 0.32215 0.56843 0.0
H753 H 0.85607 0.43374 0.50721 0.0
H754 H 0.8442 0.39163 0.51507 0.0
H755 H 0.80391 0.35752 0.58445 0.0
H756 H 0.71066 0.23985 0.56886 0.0
H757 H 0.74152 0.28209 0.57442 0.0
H758 H 0.78616 0.31081 0.5073 0.0
C759 C 0.83604 0.39989 0.52588 0.0
C760 C 0.80033 0.34747 0.56753 0.0
C761 C 0.84294 0.42405 0.52146 0.0
C762 C 0.72722 0.24703 0.55835 0.0
C763 C 0.74499 0.27125 0.56161 0.0
C764 C 0.79049 0.32069 0.52439 0.0
C765 C 0.8181 0.38629 0.54331 0.0
C766 C 0.80765 0.35963 0.54497 0.0
C767 C 0.76594 0.28177 0.54699 0.0
C768 C 0.78224 0.30847 0.54679 0.0
H769 H 0.80689 0.43028 0.5634 0.0
H770 H 0.79444 0.38797 0.57079 0.0
H771 H 0.80792 0.35457 0.50574 0.0
H772 H 0.75445 0.2323 0.51321 0.0
H773 H 0.78571 0.27439 0.51927 0.0
C774 C 0.75367 0.25032 0.14489 0.0
C775 C 0.73227 0.23991 0.13108 0.0
C776 C 0.77188 0.27414 0.14055 0.0
C777 C 0.79249 0.32641 0.09779 0.0
H778 H 0.81451 0.36369 0.15768 0.0
C779 C 0.8241 0.42802 0.10473 0.0
C780 C 0.84027 0.44169 0.12343 0.0
C781 C 0.81696 0.40358 0.10177 0.0
C782 C 0.80912 0.35361 0.14071 0.0
H783 H 0.71367 0.24576 0.10101 0.0
H784 H 0.74517 0.2875 0.09375 0.0
H785 H 0.79053 0.32005 0.15982 0.0
H786 H 0.86365 0.44132 0.15196 0.0
H787 H 0.85174 0.3989 0.14637 0.0
H788 H 0.81041 0.36032 0.07878 0.0
C789 C 0.74812 0.27722 0.10771 0.0
C790 C 0.79527 0.32846 0.14195 0.0
C791 C 0.72997 0.25333 0.11197 0.0
C792 C 0.85094 0.43114 0.13756 0.0
C793 C 0.84397 0.40679 0.13447 0.0
C794 C 0.8064 0.35167 0.09654 0.0
C795 C 0.76899 0.28813 0.12241 0.0
C796 C 0.78634 0.31455 0.12056 0.0
C797 C 0.82602 0.39243 0.11735 0.0
C798 C 0.81444 0.3656 0.11804 0.0
H799 H 0.75605 0.24033 0.1596 0.0
H800 H 0.78792 0.28184 0.1519 0.0
H801 H 0.78615 0.31619 0.08095 0.0
H802 H 0.81558 0.43567 0.09355 0.0
H803 H 0.80304 0.39309 0.08847 0.0
C804 C 0.75644 0.49491 0.15465 0.0
C805 C 0.7683 0.48906 0.13658 0.0
C806 C 0.73183 0.48709 0.15251 0.0
C807 C 0.67933 0.46115 0.11037 0.0
H808 H 0.64371 0.4306 0.16958 0.0
C809 C 0.57561 0.39416 0.11386 0.0
C810 C 0.56347 0.39328 0.13558 0.0
C811 C 0.60063 0.40979 0.11191 0.0
C812 C 0.6533 0.43947 0.15298 0.0
H813 H 0.76407 0.47157 0.10149 0.0
H814 H 0.72088 0.45765 0.09787 0.0
H815 H 0.68745 0.45093 0.1699 0.0
H816 H 0.56726 0.40941 0.17133 0.0
H817 H 0.61049 0.43731 0.1676 0.0
H818 H 0.64487 0.44925 0.0934 0.0
C819 C 0.73067 0.46843 0.11359 0.0
C820 C 0.67846 0.45112 0.15317 0.0
C821 C 0.75536 0.47628 0.11573 0.0
C822 C 0.57628 0.40953 0.1545 0.0
C823 C 0.60109 0.42536 0.15242 0.0
C824 C 0.654 0.44954 0.11019 0.0
C825 C 0.71852 0.47321 0.13229 0.0
C826 C 0.69179 0.46202 0.1319 0.0
C827 C 0.61377 0.42496 0.13157 0.0
C828 C 0.64069 0.4385 0.13153 0.0
H829 H 0.76599 0.50492 0.17083 0.0
H830 H 0.72306 0.49142 0.16702 0.0
H831 H 0.68915 0.4695 0.0937 0.0
H832 H 0.56609 0.38171 0.09905 0.0
H833 H 0.60981 0.40894 0.09562 0.0
C834 C 0.52485 0.28345 0.1117 0.0
C835 C 0.50837 0.28007 0.13044 0.0
C836 C 0.53346 0.26726 0.10892 0.0
C837 C 0.54458 0.2267 0.14682 0.0
H838 H 0.5597 0.20652 0.08562 0.0
C839 C 0.59212 0.17135 0.14838 0.0
C840 C 0.61177 0.17897 0.13235 0.0
C841 C 0.57531 0.17899 0.14501 0.0
C842 C 0.55567 0.21209 0.10286 0.0
H843 H 0.48671 0.25624 0.15981 0.0
H844 H 0.50149 0.22795 0.1548 0.0
H845 H 0.53788 0.22901 0.08523 0.0
H846 H 0.62849 0.1993 0.09936 0.0
H847 H 0.59957 0.21334 0.09385 0.0
H848 H 0.56302 0.21087 0.16455 0.0
C849 C 0.50813 0.24331 0.14256 0.0
C850 C 0.54316 0.22493 0.10261 0.0
C851 C 0.49959 0.25947 0.14536 0.0
C852 C 0.61344 0.1931 0.11196 0.0
C853 C 0.5968 0.20109 0.10878 0.0
C854 C 0.55714 0.21406 0.14707 0.0
C855 C 0.52573 0.24743 0.12483 0.0
C856 C 0.53759 0.23247 0.12463 0.0
C857 C 0.57803 0.19483 0.1258 0.0
C858 C 0.56299 0.20667 0.12512 0.0
H859 H 0.53192 0.29918 0.09992 0.0
H860 H 0.54711 0.271 0.09517 0.0
H861 H 0.54109 0.23271 0.16409 0.0
H862 H 0.59025 0.16022 0.16411 0.0
H863 H 0.56068 0.17322 0.15807 0.0
C864 C 0.24515 0.7241 0.88423 0.0
C865 C 0.23267 0.72437 0.86316 0.0
C866 C 0.26998 0.74033 0.88658 0.0
C867 C 0.32239 0.77241 0.8469 0.0
H868 H 0.35735 0.80511 0.90576 0.0
C869 C 0.4248 0.83017 0.8438 0.0
C870 C 0.43774 0.82745 0.86305 0.0
C871 C 0.40011 0.82168 0.84607 0.0
C872 C 0.34784 0.79595 0.88923 0.0
H873 H 0.23593 0.74291 0.82893 0.0
H874 H 0.27909 0.77123 0.83311 0.0
H875 H 0.31298 0.78267 0.90596 0.0
H876 H 0.43547 0.81489 0.90025 0.0
H877 H 0.39185 0.79908 0.90401 0.0
H878 H 0.35673 0.7846 0.83029 0.0
C879 C 0.26983 0.75827 0.84761 0.0
C880 C 0.32247 0.78318 0.88935 0.0
C881 C 0.2451 0.7421 0.84526 0.0
C882 C 0.42583 0.81724 0.88518 0.0
C883 C 0.40088 0.80827 0.88731 0.0
C884 C 0.34757 0.78492 0.84683 0.0
C885 C 0.28271 0.75703 0.86788 0.0
C886 C 0.30952 0.77137 0.86811 0.0
C887 C 0.3876 0.80969 0.86744 0.0
C888 C 0.36068 0.79697 0.86791 0.0
H889 H 0.236 0.71064 0.89834 0.0
H890 H 0.27945 0.73891 0.90236 0.0
H891 H 0.31297 0.76297 0.83043 0.0
H892 H 0.43367 0.8383 0.82666 0.0
H893 H 0.39065 0.82381 0.83068 0.0
C894 C 0.27967 0.53071 0.88385 0.0
C895 C 0.27878 0.51624 0.86407 0.0
C896 C 0.26137 0.5364 0.88718 0.0
C897 C 0.21607 0.54231 0.85106 0.0
H898 H 0.19615 0.55381 0.91429 0.0
C899 C 0.15602 0.58455 0.85589 0.0
C900 C 0.1652 0.60502 0.87105 0.0
C901 C 0.1641 0.56798 0.85841 0.0
C902 C 0.20151 0.55062 0.89651 0.0
H903 H 0.2574 0.49521 0.83312 0.0
H904 H 0.22522 0.50472 0.83918 0.0
H905 H 0.22162 0.53526 0.91209 0.0
H906 H 0.18837 0.62309 0.90212 0.0
H907 H 0.20276 0.59438 0.90631 0.0
H908 H 0.19675 0.55828 0.83543 0.0
C909 C 0.24032 0.51217 0.8518 0.0
C910 C 0.21614 0.54006 0.89524 0.0
C911 C 0.2587 0.50663 0.84838 0.0
C912 C 0.18099 0.60749 0.89015 0.0
C913 C 0.18919 0.59097 0.89259 0.0
C914 C 0.20145 0.55276 0.85233 0.0
C915 C 0.24172 0.52762 0.87088 0.0
C916 C 0.22398 0.53622 0.87248 0.0
C917 C 0.18165 0.57163 0.87604 0.0
C918 C 0.19435 0.55748 0.87505 0.0
H919 H 0.29495 0.53836 0.89625 0.0
H920 H 0.26321 0.54857 0.90189 0.0
H921 H 0.2221 0.54009 0.83324 0.0
H922 H 0.14364 0.58206 0.84116 0.0
H923 H 0.15753 0.55296 0.84573 0.0
C924 C 0.50663 0.76091 0.85587 0.0
C925 C 0.49645 0.77202 0.86988 0.0
C926 C 0.49972 0.73669 0.85971 0.0
C927 C 0.46611 0.68405 0.90143 0.0
H928 H 0.45066 0.64778 0.84084 0.0
C929 C 0.39651 0.58215 0.89305 0.0
C930 C 0.39935 0.56891 0.87411 0.0
C931 C 0.41343 0.60667 0.89625 0.0
C932 C 0.45536 0.65756 0.858 0.0
H933 H 0.47203 0.76689 0.89976 0.0
H934 H 0.45953 0.72435 0.90617 0.0
H935 H 0.47087 0.69149 0.83952 0.0
H936 H 0.42328 0.57016 0.84531 0.0
H937 H 0.45316 0.61271 0.85133 0.0
H938 H 0.44971 0.64979 0.91981 0.0
C939 C 0.47311 0.73444 0.89243 0.0
C940 C 0.46697 0.68274 0.85723 0.0
C941 C 0.48016 0.75878 0.88867 0.0
C942 C 0.42049 0.58 0.85989 0.0
C943 C 0.43751 0.60443 0.86323 0.0
C944 C 0.45446 0.65875 0.90221 0.0
C945 C 0.48232 0.72294 0.87752 0.0
C946 C 0.47217 0.69631 0.87888 0.0
C947 C 0.4336 0.61833 0.88067 0.0
C948 C 0.44862 0.64519 0.88045 0.0
H949 H 0.51944 0.77075 0.84142 0.0
H950 H 0.50754 0.72853 0.84824 0.0
H951 H 0.47011 0.694 0.91845 0.0
H952 H 0.38037 0.57406 0.90429 0.0
H953 H 0.40977 0.6168 0.90979 0.0
C954 C 0.47968 0.75244 0.48775 0.0
C955 C 0.49002 0.77059 0.46987 0.0
C956 C 0.47374 0.72879 0.48242 0.0
C957 C 0.45637 0.68585 0.43212 0.0
H958 H 0.4614 0.64656 0.48327 0.0
C959 C 0.41836 0.57947 0.46385 0.0
C960 C 0.3941 0.57028 0.45714 0.0
C961 C 0.43555 0.60362 0.45911 0.0
C962 C 0.46025 0.65714 0.46842 0.0
H963 H 0.50269 0.77832 0.4324 0.0
H964 H 0.49207 0.73648 0.42291 0.0
H965 H 0.4828 0.69016 0.48746 0.0
H966 H 0.36908 0.57857 0.43867 0.0
H967 H 0.39866 0.62076 0.43126 0.0
H968 H 0.43353 0.65271 0.41319 0.0
C969 C 0.4886 0.74075 0.4411 0.0
C970 C 0.47232 0.68223 0.47102 0.0
C971 C 0.49475 0.76466 0.44654 0.0
C972 C 0.38767 0.58517 0.44409 0.0
C973 C 0.40475 0.6094 0.43968 0.0
C974 C 0.4444 0.66067 0.4294 0.0
C975 C 0.47794 0.72256 0.45902 0.0
C976 C 0.46963 0.69678 0.45346 0.0
C977 C 0.42873 0.6192 0.44796 0.0
C978 C 0.44536 0.64592 0.44802 0.0
H979 H 0.4758 0.75641 0.50591 0.0
H980 H 0.46511 0.71519 0.49652 0.0
H981 H 0.45399 0.69657 0.41823 0.0
H982 H 0.42388 0.5683 0.47368 0.0
H983 H 0.45397 0.61032 0.46518 0.0
C984 C 0.24235 0.73247 0.44205 0.0
C985 C 0.23329 0.73029 0.46591 0.0
C986 C 0.26654 0.74937 0.43689 0.0
C987 C 0.32169 0.80265 0.4619 0.0
H988 H 0.35541 0.77261 0.43242 0.0
C989 C 0.41966 0.83098 0.48507 0.0
C990 C 0.43457 0.82902 0.46743 0.0
C991 C 0.39565 0.82385 0.47966 0.0
C992 C 0.34634 0.78158 0.44015 0.0
H993 H 0.24178 0.74512 0.50257 0.0
H994 H 0.28373 0.77457 0.49359 0.0
H995 H 0.31142 0.75156 0.43184 0.0
H996 H 0.43641 0.81912 0.4299 0.0
H997 H 0.39431 0.80669 0.42035 0.0
H998 H 0.35663 0.83226 0.47107 0.0
C999 C 0.27232 0.76336 0.47883 0.0
C1000 C 0.32107 0.76948 0.43981 0.0
C1001 C 0.2483 0.74637 0.48403 0.0
C1002 C 0.42529 0.82075 0.44389 0.0
C1003 C 0.40117 0.81354 0.43847 0.0
C1004 C 0.34696 0.81479 0.46217 0.0
C1005 C 0.28195 0.76454 0.45542 0.0
C1006 C 0.30846 0.7795 0.45145 0.0
C1007 C 0.38594 0.81457 0.45646 0.0
C1008 C 0.35956 0.80399 0.4521 0.0
H1009 H 0.23117 0.72028 0.42773 0.0
H1010 H 0.2734 0.75001 0.41862 0.0
H1011 H 0.31248 0.811 0.47067 0.0
H1012 H 0.42629 0.83731 0.50337 0.0
H1013 H 0.3844 0.82457 0.49409 0.0
C1014 C 0.2662 0.50557 0.45007 0.0
C1015 C 0.27533 0.50782 0.47389 0.0
C1016 C 0.24822 0.51147 0.44514 0.0
C1017 C 0.20542 0.52737 0.47582 0.0
H1018 H 0.21846 0.56863 0.41926 0.0
C1019 C 0.1991 0.6161 0.44878 0.0
C1020 C 0.17771 0.61072 0.46111 0.0
C1021 C 0.20536 0.59826 0.44526 0.0
C1022 C 0.21456 0.5572 0.43519 0.0
H1023 H 0.27194 0.51674 0.5114 0.0
H1024 H 0.24136 0.5275 0.50287 0.0
H1025 H 0.23975 0.54625 0.42407 0.0
H1026 H 0.1451 0.58208 0.47768 0.0
H1027 H 0.15546 0.55059 0.47065 0.0
H1028 H 0.18193 0.53991 0.48813 0.0
C1029 C 0.24752 0.52081 0.48793 0.0
C1030 C 0.22652 0.54399 0.43775 0.0
C1031 C 0.26531 0.51483 0.49284 0.0
C1032 C 0.16185 0.58678 0.46835 0.0
C1033 C 0.16791 0.56879 0.46446 0.0
C1034 C 0.19378 0.54086 0.47348 0.0
C1035 C 0.2391 0.51977 0.46394 0.0
C1036 C 0.22281 0.52966 0.45861 0.0
C1037 C 0.19017 0.57447 0.45365 0.0
C1038 C 0.19888 0.55669 0.45359 0.0
H1039 H 0.27356 0.50012 0.43511 0.0
H1040 H 0.24192 0.51013 0.42651 0.0
H1041 H 0.20161 0.51601 0.49181 0.0
H1042 H 0.21171 0.63443 0.44303 0.0
H1043 H 0.2228 0.60358 0.4372 0.0
C1044 C 0.14886 0.13054 0.08966 0.0
C1045 C 0.16905 0.14946 0.10137 0.0
C1046 C 0.14845 0.12821 0.0642 0.0
C1047 C 0.18822 0.14753 0.00967 0.0
H1048 H 0.13063 0.1368 0.97513 0.0
C1049 C 0.18928 0.17 0.90781 0.0
C1050 C 0.16949 0.15424 0.89325 0.0
C1051 C 0.18876 0.16662 0.93306 0.0
C1052 C 0.14671 0.13942 0.9845 0.0
H1053 H 0.20477 0.18051 0.09574 0.0
H1054 H 0.204 0.17657 0.05146 0.0
H1055 H 0.13055 0.13562 0.01972 0.0
H1056 H 0.13375 0.12239 0.89359 0.0
H1057 H 0.13288 0.1164 0.93784 0.0
H1058 H 0.20454 0.15181 0.97449 0.0
C1059 C 0.18859 0.16335 0.06186 0.0
C1060 C 0.14667 0.13873 0.01005 0.0
C1061 C 0.18898 0.1657 0.08724 0.0
C1062 C 0.14925 0.13484 0.90439 0.0
C1063 C 0.1487 0.13149 0.92971 0.0
C1064 C 0.18827 0.14822 0.98416 0.0
C1065 C 0.16827 0.1447 0.05002 0.0
C1066 C 0.16756 0.14319 0.02292 0.0
C1067 C 0.16843 0.14741 0.94432 0.0
C1068 C 0.16766 0.14459 0.9713 0.0
H1069 H 0.13326 0.11773 0.10013 0.0
H1070 H 0.13263 0.11352 0.05562 0.0
H1071 H 0.20446 0.1506 0.01905 0.0
H1072 H 0.20511 0.18515 0.89974 0.0
H1073 H 0.20409 0.17942 0.94383 0.0
C1074 C 0.8264 0.97885 0.912 0.0
C1075 C 0.83176 0.99983 0.8988 0.0
C1076 C 0.82603 0.97897 0.93753 0.0
C1077 C 0.81901 0.01041 0.99025 0.0
H1078 H 0.85318 0.98393 0.02561 0.0
C1079 C 0.83453 0.02284 0.09429 0.0
C1080 C 0.83299 0.0034 0.10777 0.0
C1081 C 0.83413 0.02218 0.06877 0.0
C1082 C 0.84324 0.99108 0.01606 0.0
H1083 H 0.8406 0.03724 0.90184 0.0
H1084 H 0.83975 0.03737 0.94651 0.0
H1085 H 0.85236 0.98283 0.98106 0.0
H1086 H 0.82961 0.96795 0.10523 0.0
H1087 H 0.82829 0.96649 0.06069 0.0
H1088 H 0.80957 0.01837 0.02515 0.0
C1089 C 0.83582 0.02086 0.9371 0.0
C1090 C 0.84284 0.99049 0.99053 0.0
C1091 C 0.83642 0.02082 0.91156 0.0
C1092 C 0.83098 0.98326 0.09528 0.0
C1093 C 0.83036 0.98249 0.06975 0.0
C1094 C 0.81923 0.01081 0.01578 0.0
C1095 C 0.83078 -1e-05 0.95032 0.0
C1096 C 0.83081 0.00024 0.97739 0.0
C1097 C 0.83196 0.00197 0.05618 0.0
C1098 C 0.83144 0.00124 0.02901 0.0
H1099 H 0.82273 0.96241 0.90263 0.0
H1100 H 0.82186 0.96256 0.94729 0.0
H1101 H 0.80935 0.01778 0.98055 0.0
H1102 H 0.83622 0.03865 0.10346 0.0
H1103 H 0.83582 0.03767 0.05892 0.0
C1104 C 0.03047 0.84369 0.90921 0.0
C1105 C 0.02541 0.85877 0.89469 0.0
C1106 C 0.03274 0.84677 0.93451 0.0
C1107 C 0.01428 0.87105 0.98575 0.0
H1108 H 0.06212 0.86269 0.02142 0.0
C1109 C 0.02187 0.87866 0.09095 0.0
C1110 C 0.02387 0.8602 0.10278 0.0
C1111 C 0.02475 0.88154 0.06561 0.0
C1112 C 0.0486 0.86497 0.01172 0.0
H1113 H 0.01914 0.88915 0.89518 0.0
H1114 H 0.02323 0.89465 0.93953 0.0
H1115 H 0.06221 0.86224 0.97681 0.0
H1116 H 0.03102 0.83068 0.09753 0.0
H1117 H 0.03586 0.83557 0.05336 0.0
H1118 H 0.00037 0.87329 0.02065 0.0
C1119 C 0.02521 0.88029 0.93131 0.0
C1120 C 0.04864 0.86471 0.98618 0.0
C1121 C 0.02298 0.87722 0.90594 0.0
C1122 C 0.02941 0.84509 0.08891 0.0
C1123 C 0.03233 0.84799 0.06362 0.0
C1124 C 0.01424 0.87131 0.0113 0.0
C1125 C 0.02999 0.86501 0.94588 0.0
C1126 C 0.03124 0.86735 0.97292 0.0
C1127 C 0.02975 0.86606 0.05163 0.0
C1128 C 0.03116 0.86789 0.02456 0.0
H1129 H 0.03239 0.82927 0.90105 0.0
H1130 H 0.03606 0.83446 0.94524 0.0
H1131 H 0.00046 0.87284 0.97608 0.0
H1132 H 0.01766 0.89061 0.1012 0.0
H1133 H 0.02293 0.8958 0.05693 0.0
C1134 C 0.85534 0.51549 0.23955 0.0
C1135 C 0.83785 0.4962 0.22558 0.0
C1136 C 0.85544 0.5138 0.26499 0.0
C1137 C 0.81636 0.48205 0.31735 0.0
H1138 H 0.87726 0.50572 0.35162 0.0
C1139 C 0.82123 0.47385 0.42229 0.0
C1140 C 0.83955 0.49418 0.43438 0.0
C1141 C 0.82097 0.47251 0.39676 0.0
C1142 C 0.86012 0.49923 0.34235 0.0
H1143 H 0.80674 0.46001 0.22722 0.0
H1144 H 0.80691 0.45705 0.27178 0.0
H1145 H 0.87683 0.50645 0.30707 0.0
H1146 H 0.87197 0.52902 0.42934 0.0
H1147 H 0.87132 0.5269 0.3849 0.0
H1148 H 0.79968 0.47523 0.35262 0.0
C1149 C 0.82045 0.47352 0.26303 0.0
C1150 C 0.85988 0.49963 0.31683 0.0
C1151 C 0.82042 0.47518 0.23754 0.0
C1152 C 0.85767 0.51306 0.42052 0.0
C1153 C 0.85738 0.51177 0.39505 0.0
C1154 C 0.8166 0.48174 0.3429 0.0
C1155 C 0.83799 0.49281 0.27701 0.0
C1156 C 0.83804 0.49127 0.30407 0.0
C1157 C 0.83901 0.49151 0.38284 0.0
C1158 C 0.83852 0.49056 0.3557 0.0
H1159 H 0.86897 0.53195 0.23083 0.0
H1160 H 0.86898 0.52909 0.27528 0.0
H1161 H 0.79927 0.47572 0.30801 0.0
H1162 H 0.80706 0.45899 0.43254 0.0
H1163 H 0.80672 0.45654 0.38792 0.0
C1164 C 0.48248 0.31235 0.23893 0.0
C1165 C 0.48832 0.33353 0.2259 0.0
C1166 C 0.48172 0.31219 0.26445 0.0
C1167 C 0.47791 0.34588 0.31785 0.0
H1168 H 0.5058 0.31259 0.3524 0.0
C1169 C 0.49936 0.35787 0.42132 0.0
C1170 C 0.49353 0.33687 0.4347 0.0
C1171 C 0.49745 0.357 0.39584 0.0
C1172 C 0.4977 0.32173 0.34301 0.0
H1173 H 0.49769 0.37108 0.22924 0.0
H1174 H 0.49679 0.37095 0.27381 0.0
H1175 H 0.50468 0.31186 0.30788 0.0
H1176 H 0.4809 0.29846 0.43204 0.0
H1177 H 0.47759 0.29696 0.38755 0.0
H1178 H 0.47131 0.35605 0.35311 0.0
C1179 C 0.49241 0.35434 0.26435 0.0
C1180 C 0.49701 0.32128 0.31751 0.0
C1181 C 0.49307 0.35446 0.23882 0.0
C1182 C 0.48558 0.31496 0.42218 0.0
C1183 C 0.4838 0.31411 0.39672 0.0
C1184 C 0.4787 0.34641 0.34339 0.0
C1185 C 0.48689 0.33325 0.27747 0.0
C1186 C 0.48714 0.33337 0.30462 0.0
C1187 C 0.48982 0.33515 0.38328 0.0
C1188 C 0.48863 0.33436 0.35621 0.0
H1189 H 0.47861 0.29591 0.22942 0.0
H1190 H 0.47702 0.29554 0.27398 0.0
H1191 H 0.46987 0.35508 0.30849 0.0
H1192 H 0.50554 0.37501 0.4305 0.0
H1193 H 0.50244 0.37354 0.38594 0.0
C1194 C 0.66089 0.15485 0.4243 0.0
C1195 C 0.66903 0.17592 0.43837 0.0
C1196 C 0.66215 0.15616 0.39883 0.0
C1197 C 0.66578 0.19384 0.34656 0.0
H1198 H 0.68979 0.15684 0.31237 0.0
C1199 C 0.68102 0.20044 0.24177 0.0
C1200 C 0.67443 0.17871 0.22943 0.0
C1201 C 0.68127 0.20116 0.26735 0.0
C1202 C 0.68278 0.16707 0.3216 0.0
H1203 H 0.68457 0.21485 0.43687 0.0
H1204 H 0.68668 0.21713 0.3922 0.0
H1205 H 0.68808 0.15597 0.35686 0.0
H1206 H 0.66268 0.14067 0.23406 0.0
H1207 H 0.66258 0.14176 0.2785 0.0
H1208 H 0.66007 0.20461 0.31127 0.0
C1209 C 0.67927 0.19961 0.40093 0.0
C1210 C 0.68186 0.1666 0.34709 0.0
C1211 C 0.67816 0.19832 0.42647 0.0
C1212 C 0.66801 0.15772 0.24307 0.0
C1213 C 0.6681 0.15839 0.26857 0.0
C1214 C 0.66656 0.1942 0.321 0.0
C1215 C 0.67146 0.17855 0.38688 0.0
C1216 C 0.67317 0.17981 0.35983 0.0
C1217 C 0.67481 0.18012 0.28104 0.0
C1218 C 0.67489 0.18064 0.30821 0.0
H1219 H 0.65372 0.13732 0.43297 0.0
H1220 H 0.65569 0.13959 0.38846 0.0
H1221 H 0.65881 0.20405 0.35591 0.0
H1222 H 0.68613 0.21692 0.23169 0.0
H1223 H 0.68679 0.21824 0.27637 0.0
C1224 C 0.5211 0.83325 0.57647 0.0
C1225 C 0.51029 0.84484 0.56438 0.0
C1226 C 0.52317 0.83422 0.60191 0.0
C1227 C 0.52302 0.86859 0.65596 0.0
H1228 H 0.50467 0.80884 0.69062 0.0
C1229 C 0.50687 0.859 0.76009 0.0
C1230 C 0.51421 0.84482 0.77311 0.0
C1231 C 0.50807 0.85997 0.7346 0.0
C1232 C 0.51023 0.82577 0.68124 0.0
H1233 H 0.4935 0.86686 0.5693 0.0
H1234 H 0.49706 0.86851 0.61383 0.0
H1235 H 0.50382 0.80891 0.6461 0.0
H1236 H 0.52908 0.82095 0.76981 0.0
H1237 H 0.53159 0.82295 0.72526 0.0
H1238 H 0.52941 0.88546 0.6911 0.0
C1239 C 0.50408 0.85881 0.60361 0.0
C1240 C 0.5097 0.82578 0.65572 0.0
C1241 C 0.50192 0.85775 0.57816 0.0
C1242 C 0.52316 0.83193 0.76021 0.0
C1243 C 0.52447 0.83298 0.7347 0.0
C1244 C 0.52366 0.8686 0.68149 0.0
C1245 C 0.51456 0.84689 0.61576 0.0
C1246 C 0.51593 0.84715 0.64282 0.0
C1247 C 0.51676 0.84686 0.72159 0.0
C1248 C 0.5171 0.84714 0.69443 0.0
H1249 H 0.5278 0.82324 0.56631 0.0
H1250 H 0.53158 0.82511 0.61076 0.0
H1251 H 0.52824 0.8854 0.64648 0.0
H1252 H 0.49983 0.86908 0.76957 0.0
H1253 H 0.50166 0.87056 0.72506 0.0
C1254 C 0.15404 0.66802 0.57605 0.0
C1255 C 0.16933 0.66264 0.56232 0.0
C1256 C 0.15392 0.66688 0.60152 0.0
C1257 C 0.19081 0.66883 0.65411 0.0
H1258 H 0.12991 0.64304 0.68891 0.0
C1259 C 0.18305 0.65755 0.75952 0.0
C1260 C 0.16796 0.66468 0.7711 0.0
C1261 C 0.18349 0.65626 0.73401 0.0
C1262 C 0.14707 0.65047 0.67946 0.0
H1263 H 0.19644 0.65172 0.56439 0.0
H1264 H 0.1961 0.6495 0.60906 0.0
H1265 H 0.13001 0.64219 0.64438 0.0
H1266 H 0.14168 0.67624 0.76517 0.0
H1267 H 0.14256 0.67415 0.72073 0.0
H1268 H 0.20784 0.67722 0.6893 0.0
C1269 C 0.18438 0.65486 0.60009 0.0
C1270 C 0.14714 0.64998 0.65395 0.0
C1271 C 0.18449 0.656 0.57454 0.0
C1272 C 0.15344 0.67061 0.75675 0.0
C1273 C 0.15383 0.66926 0.7313 0.0
C1274 C 0.19073 0.66927 0.67968 0.0
C1275 C 0.16908 0.66029 0.61385 0.0
C1276 C 0.16902 0.65945 0.64098 0.0
C1277 C 0.16876 0.66197 0.71965 0.0
C1278 C 0.16888 0.66038 0.69259 0.0
H1279 H 0.14222 0.67329 0.56714 0.0
H1280 H 0.14222 0.67157 0.61158 0.0
H1281 H 0.20798 0.67649 0.64464 0.0
H1282 H 0.19441 0.65284 0.77015 0.0
H1283 H 0.19505 0.65041 0.72555 0.0
C1284 C 0.34641 0.49568 0.57808 0.0
C1285 C 0.34936 0.51528 0.56385 0.0
C1286 C 0.34781 0.49742 0.60352 0.0
C1287 C 0.34046 0.53034 0.65476 0.0
H1288 H 0.37158 0.5016 0.6917 0.0
C1289 C 0.34741 0.53485 0.76051 0.0
C1290 C 0.34271 0.5134 0.77235 0.0
C1291 C 0.34979 0.53679 0.73506 0.0
C1292 C 0.36266 0.50955 0.68164 0.0
H1293 H 0.35649 0.55223 0.56498 0.0
H1294 H 0.35907 0.55534 0.6096 0.0
H1295 H 0.37359 0.50229 0.64718 0.0
H1296 H 0.33661 0.47711 0.76691 0.0
H1297 H 0.34049 0.48038 0.72259 0.0
H1298 H 0.32923 0.53727 0.68926 0.0
C1299 C 0.35545 0.53855 0.60104 0.0
C1300 C 0.36384 0.50997 0.65615 0.0
C1301 C 0.35412 0.53682 0.57553 0.0
C1302 C 0.34032 0.49391 0.7583 0.0
C1303 C 0.34272 0.49585 0.73292 0.0
C1304 C 0.33927 0.52991 0.68029 0.0
C1305 C 0.35216 0.5188 0.61531 0.0
C1306 C 0.35247 0.52006 0.64241 0.0
C1307 C 0.34757 0.51733 0.72101 0.0
C1308 C 0.35007 0.51919 0.69399 0.0
H1309 H 0.34266 0.47881 0.56959 0.0
H1310 H 0.34486 0.48177 0.61399 0.0
H1311 H 0.33128 0.53799 0.64467 0.0
H1312 H 0.3494 0.55019 0.7709 0.0
H1313 H 0.35372 0.55364 0.72643 0.0
loop_
_geom_bond_atom_site_label_1
_geom_bond_atom_site_label_2
_geom_bond_distance
_geom_bond_site_symmetry_2
_ccdc_geom_bond_type
In0 O1 2.294 . S
In0 O2 2.326 . S
In0 O6 2.266 . S
In0 O7 2.326 . S
In0 O8 2.266 . S
In0 O9 2.326 . S
In0 O11 2.294 . S
In0 O12 2.326 . S
O1 In0 2.294 . S
O1 C10 1.240 . S
O2 In0 2.326 . S
O2 C10 1.252 . S
C3 O6 1.252 . S
C3 O7 1.260 . S
C4 O11 1.240 . S
C4 O12 1.252 . S
C5 O8 1.252 . S
C5 O9 1.260 . S
O6 In0 2.266 . S
O6 C3 1.252 . S
O7 In0 2.326 . S
O7 C3 1.260 . S
O8 In0 2.266 . S
O8 C5 1.252 . S
O9 In0 2.326 . S
O9 C5 1.260 . S
C10 O1 1.240 . S
C10 O2 1.252 . S
O11 In0 2.294 . S
O11 C4 1.240 . S
O12 In0 2.326 . S
O12 C4 1.252 . S
In13 O14 2.294 . S
In13 O15 2.326 . S
In13 O19 2.266 1_545 S
In13 O20 2.326 1_545 S
In13 O21 2.266 . S
In13 O22 2.326 . S
In13 O24 2.294 . S
In13 O25 2.326 1_545 S
O14 In13 2.294 . S
O14 C23 1.240 . S
O15 In13 2.326 . S
O15 C23 1.252 . S
C16 O19 1.252 . S
C16 O20 1.260 . S
C17 O24 1.240 . S
C17 O25 1.252 1_545 S
C18 O21 1.252 . S
C18 O22 1.260 . S
O19 In13 2.266 1_565 S
O19 C16 1.252 . S
O20 In13 2.326 1_565 S
O20 C16 1.260 . S
O21 In13 2.266 . S
O21 C18 1.252 . S
O22 In13 2.326 . S
O22 C18 1.260 . S
C23 O14 1.240 . S
C23 O15 1.252 . S
O24 In13 2.294 . S
O24 C17 1.240 . S
O25 In13 2.326 1_565 S
O25 C17 1.252 1_565 S
In26 O27 2.294 . S
In26 O28 2.326 1_655 S
In26 O32 2.266 . S
In26 O33 2.326 . S
In26 O34 2.266 1_655 S
In26 O35 2.326 1_655 S
In26 O37 2.294 . S
In26 O38 2.326 . S
O27 In26 2.294 . S
O27 C36 1.240 1_655 S
O28 In26 2.326 1_455 S
O28 C36 1.252 . S
C29 O32 1.252 . S
C29 O33 1.260 . S
C30 O37 1.240 . S
C30 O38 1.252 . S
C31 O34 1.252 . S
C31 O35 1.260 . S
O32 In26 2.266 . S
O32 C29 1.252 . S
O33 In26 2.326 . S
O33 C29 1.260 . S
O34 In26 2.266 1_455 S
O34 C31 1.252 . S
O35 In26 2.326 1_455 S
O35 C31 1.260 . S
C36 O27 1.240 1_455 S
C36 O28 1.252 . S
O37 In26 2.294 . S
O37 C30 1.240 . S
O38 In26 2.326 . S
O38 C30 1.252 . S
In39 O40 2.294 . S
In39 O41 2.326 . S
In39 O45 2.266 . S
In39 O46 2.326 . S
In39 O47 2.266 . S
In39 O48 2.326 . S
In39 O50 2.294 . S
In39 O51 2.326 . S
O40 In39 2.294 . S
O40 C49 1.240 . S
O41 In39 2.326 . S
O41 C49 1.252 . S
C42 O45 1.252 . S
C42 O46 1.260 . S
C43 O50 1.240 . S
C43 O51 1.252 . S
C44 O47 1.252 . S
C44 O48 1.260 . S
O45 In39 2.266 . S
O45 C42 1.252 . S
O46 In39 2.326 . S
O46 C42 1.260 . S
O47 In39 2.266 . S
O47 C44 1.252 . S
O48 In39 2.326 . S
O48 C44 1.260 . S
C49 O40 1.240 . S
C49 O41 1.252 . S
O50 In39 2.294 . S
O50 C43 1.240 . S
O51 In39 2.326 . S
O51 C43 1.252 . S
In52 O53 2.294 . S
In52 O54 2.326 1_565 S
In52 O58 2.266 . S
In52 O59 2.326 . S
In52 O60 2.266 1_565 S
In52 O61 2.326 1_565 S
In52 O63 2.294 . S
In52 O64 2.326 . S
O53 In52 2.294 . S
O53 C62 1.240 1_565 S
O54 In52 2.326 1_545 S
O54 C62 1.252 . S
C55 O58 1.252 . S
C55 O59 1.260 . S
C56 O63 1.240 . S
C56 O64 1.252 . S
C57 O60 1.252 . S
C57 O61 1.260 . S
O58 In52 2.266 . S
O58 C55 1.252 . S
O59 In52 2.326 . S
O59 C55 1.260 . S
O60 In52 2.266 1_545 S
O60 C57 1.252 . S
O61 In52 2.326 1_545 S
O61 C57 1.260 . S
C62 O53 1.240 1_545 S
C62 O54 1.252 . S
O63 In52 2.294 . S
O63 C56 1.240 . S
O64 In52 2.326 . S
O64 C56 1.252 . S
In65 O66 2.294 . S
In65 O67 2.326 1_455 S
In65 O71 2.266 . S
In65 O72 2.326 . S
In65 O73 2.266 1_455 S
In65 O74 2.326 1_455 S
In65 O76 2.294 . S
In65 O77 2.326 . S
O66 In65 2.294 . S
O66 C75 1.240 . S
O67 In65 2.326 1_655 S
O67 C75 1.252 1_655 S
C68 O71 1.252 . S
C68 O72 1.260 . S
C69 O76 1.240 . S
C69 O77 1.252 . S
C70 O73 1.252 . S
C70 O74 1.260 . S
O71 In65 2.266 . S
O71 C68 1.252 . S
O72 In65 2.326 . S
O72 C68 1.260 . S
O73 In65 2.266 1_655 S
O73 C70 1.252 . S
O74 In65 2.326 1_655 S
O74 C70 1.260 . S
C75 O66 1.240 . S
C75 O67 1.252 1_455 S
O76 In65 2.294 . S
O76 C69 1.240 . S
O77 In65 2.326 . S
O77 C69 1.252 . S
In78 O79 2.294 . S
In78 O80 2.326 . S
In78 O84 2.266 . S
In78 O85 2.326 . S
In78 O86 2.266 . S
In78 O87 2.326 . S
In78 O89 2.294 . S
In78 O90 2.326 . S
O79 In78 2.294 . S
O79 C88 1.240 . S
O80 In78 2.326 . S
O80 C88 1.252 . S
C81 O84 1.252 . S
C81 O85 1.260 . S
C82 O89 1.240 . S
C82 O90 1.252 . S
C83 O86 1.252 . S
C83 O87 1.260 . S
O84 In78 2.266 . S
O84 C81 1.252 . S
O85 In78 2.326 . S
O85 C81 1.260 . S
O86 In78 2.266 . S
O86 C83 1.252 . S
O87 In78 2.326 . S
O87 C83 1.260 . S
C88 O79 1.240 . S
C88 O80 1.252 . S
O89 In78 2.294 . S
O89 C82 1.240 . S
O90 In78 2.326 . S
O90 C82 1.252 . S
In91 O92 2.294 . S
In91 O93 2.326 . S
In91 O97 2.266 . S
In91 O98 2.326 . S
In91 O99 2.266 . S
In91 O100 2.326 . S
In91 O102 2.294 . S
In91 O103 2.326 . S
O92 In91 2.294 . S
O92 C101 1.240 . S
O93 In91 2.326 . S
O93 C101 1.252 . S
C94 O97 1.252 . S
C94 O98 1.260 . S
C95 O102 1.240 . S
C95 O103 1.252 . S
C96 O99 1.252 . S
C96 O100 1.260 . S
O97 In91 2.266 . S
O97 C94 1.252 . S
O98 In91 2.326 . S
O98 C94 1.260 . S
O99 In91 2.266 . S
O99 C96 1.252 . S
O100 In91 2.326 . S
O100 C96 1.260 . S
C101 O92 1.240 . S
C101 O93 1.252 . S
O102 In91 2.294 . S
O102 C95 1.240 . S
O103 In91 2.326 . S
O103 C95 1.252 . S
In104 O105 2.294 . S
In104 O106 2.326 . S
In104 O110 2.266 . S
In104 O111 2.326 . S
In104 O112 2.266 . S
In104 O113 2.326 . S
In104 O115 2.294 . S
In104 O116 2.326 . S
O105 In104 2.294 . S
O105 C114 1.240 . S
O106 In104 2.326 . S
O106 C114 1.252 . S
C107 O110 1.252 . S
C107 O111 1.260 . S
C108 O115 1.240 . S
C108 O116 1.252 . S
C109 O112 1.252 . S
C109 O113 1.260 . S
O110 In104 2.266 . S
O110 C107 1.252 . S
O111 In104 2.326 . S
O111 C107 1.260 . S
O112 In104 2.266 . S
O112 C109 1.252 . S
O113 In104 2.326 . S
O113 C109 1.260 . S
C114 O105 1.240 . S
C114 O106 1.252 . S
O115 In104 2.294 . S
O115 C108 1.240 . S
O116 In104 2.326 . S
O116 C108 1.252 . S
In117 O118 2.294 . S
In117 O119 2.326 . S
In117 O123 2.266 . S
In117 O124 2.326 . S
In117 O125 2.266 . S
In117 O126 2.326 . S
In117 O128 2.294 . S
In117 O129 2.326 . S
O118 In117 2.294 . S
O118 C127 1.240 . S
O119 In117 2.326 . S
O119 C127 1.252 . S
C120 O123 1.252 . S
C120 O124 1.260 . S
C121 O128 1.240 . S
C121 O129 1.252 . S
C122 O125 1.252 . S
C122 O126 1.260 . S
O123 In117 2.266 . S
O123 C120 1.252 . S
O124 In117 2.326 . S
O124 C120 1.260 . S
O125 In117 2.266 . S
O125 C122 1.252 . S
O126 In117 2.326 . S
O126 C122 1.260 . S
C127 O118 1.240 . S
C127 O119 1.252 . S
O128 In117 2.294 . S
O128 C121 1.240 . S
O129 In117 2.326 . S
O129 C121 1.252 . S
In130 O131 2.294 . S
In130 O132 2.326 . S
In130 O136 2.266 . S
In130 O137 2.326 . S
In130 O138 2.266 . S
In130 O139 2.326 . S
In130 O141 2.294 . S
In130 O142 2.326 . S
O131 In130 2.294 . S
O131 C140 1.240 . S
O132 In130 2.326 . S
O132 C140 1.252 . S
C133 O136 1.252 . S
C133 O137 1.260 . S
C134 O141 1.240 . S
C134 O142 1.252 . S
C135 O138 1.252 . S
C135 O139 1.260 . S
O136 In130 2.266 . S
O136 C133 1.252 . S
O137 In130 2.326 . S
O137 C133 1.260 . S
O138 In130 2.266 . S
O138 C135 1.252 . S
O139 In130 2.326 . S
O139 C135 1.260 . S
C140 O131 1.240 . S
C140 O132 1.252 . S
O141 In130 2.294 . S
O141 C134 1.240 . S
O142 In130 2.326 . S
O142 C134 1.252 . S
In143 O144 2.294 . S
In143 O145 2.326 . S
In143 O149 2.266 . S
In143 O150 2.326 . S
In143 O151 2.266 . S
In143 O152 2.326 . S
In143 O154 2.294 . S
In143 O155 2.326 . S
O144 In143 2.294 . S
O144 C153 1.240 . S
O145 In143 2.326 . S
O145 C153 1.252 . S
C146 O149 1.252 . S
C146 O150 1.260 . S
C147 O154 1.240 . S
C147 O155 1.252 . S
C148 O151 1.252 . S
C148 O152 1.260 . S
O149 In143 2.266 . S
O149 C146 1.252 . S
O150 In143 2.326 . S
O150 C146 1.260 . S
O151 In143 2.266 . S
O151 C148 1.252 . S
O152 In143 2.326 . S
O152 C148 1.260 . S
C153 O144 1.240 . S
C153 O145 1.252 . S
O154 In143 2.294 . S
O154 C147 1.240 . S
O155 In143 2.326 . S
O155 C147 1.252 . S
In156 O157 2.294 . S
In156 O158 2.326 . S
In156 O162 2.266 . S
In156 O163 2.326 . S
In156 O164 2.266 . S
In156 O165 2.326 . S
In156 O167 2.294 . S
In156 O168 2.326 . S
O157 In156 2.294 . S
O157 C166 1.240 . S
O158 In156 2.326 . S
O158 C166 1.252 . S
C159 O162 1.252 . S
C159 O163 1.260 . S
C160 O167 1.240 . S
C160 O168 1.252 . S
C161 O164 1.252 . S
C161 O165 1.260 . S
O162 In156 2.266 . S
O162 C159 1.252 . S
O163 In156 2.326 . S
O163 C159 1.260 . S
O164 In156 2.266 . S
O164 C161 1.252 . S
O165 In156 2.326 . S
O165 C161 1.260 . S
C166 O157 1.240 . S
C166 O158 1.252 . S
O167 In156 2.294 . S
O167 C160 1.240 . S
O168 In156 2.326 . S
O168 C160 1.252 . S
In169 O170 2.294 . S
In169 O171 2.326 . S
In169 O175 2.266 . S
In169 O176 2.326 . S
In169 O177 2.266 . S
In169 O178 2.326 . S
In169 O180 2.294 . S
In169 O181 2.326 . S
O170 In169 2.294 . S
O170 C179 1.240 . S
O171 In169 2.326 . S
O171 C179 1.252 . S
C172 O175 1.252 . S
C172 O176 1.260 . S
C173 O180 1.240 . S
C173 O181 1.252 . S
C174 O177 1.252 . S
C174 O178 1.260 . S
O175 In169 2.266 . S
O175 C172 1.252 . S
O176 In169 2.326 . S
O176 C172 1.260 . S
O177 In169 2.266 . S
O177 C174 1.252 . S
O178 In169 2.326 . S
O178 C174 1.260 . S
C179 O170 1.240 . S
C179 O171 1.252 . S
O180 In169 2.294 . S
O180 C173 1.240 . S
O181 In169 2.326 . S
O181 C173 1.252 . S
In182 O183 2.294 . S
In182 O184 2.326 . S
In182 O188 2.266 . S
In182 O189 2.326 . S
In182 O190 2.266 . S
In182 O191 2.326 . S
In182 O193 2.294 . S
In182 O194 2.326 . S
O183 In182 2.294 . S
O183 C192 1.240 . S
O184 In182 2.326 . S
O184 C192 1.252 . S
C185 O188 1.252 . S
C185 O189 1.260 . S
C186 O193 1.240 . S
C186 O194 1.252 . S
C187 O190 1.252 . S
C187 O191 1.260 . S
O188 In182 2.266 . S
O188 C185 1.252 . S
O189 In182 2.326 . S
O189 C185 1.260 . S
O190 In182 2.266 . S
O190 C187 1.252 . S
O191 In182 2.326 . S
O191 C187 1.260 . S
C192 O183 1.240 . S
C192 O184 1.252 . S
O193 In182 2.294 . S
O193 C186 1.240 . S
O194 In182 2.326 . S
O194 C186 1.252 . S
In195 O196 2.294 . S
In195 O197 2.326 . S
In195 O201 2.266 . S
In195 O202 2.326 . S
In195 O203 2.266 . S
In195 O204 2.326 . S
In195 O206 2.294 . S
In195 O207 2.326 . S
O196 In195 2.294 . S
O196 C205 1.240 . S
O197 In195 2.326 . S
O197 C205 1.252 . S
C198 O201 1.252 . S
C198 O202 1.260 . S
C199 O206 1.240 . S
C199 O207 1.252 . S
C200 O203 1.252 . S
C200 O204 1.260 . S
O201 In195 2.266 . S
O201 C198 1.252 . S
O202 In195 2.326 . S
O202 C198 1.260 . S
O203 In195 2.266 . S
O203 C200 1.252 . S
O204 In195 2.326 . S
O204 C200 1.260 . S
C205 O196 1.240 . S
C205 O197 1.252 . S
O206 In195 2.294 . S
O206 C199 1.240 . S
O207 In195 2.326 . S
O207 C199 1.252 . S
In208 O209 2.294 . S
In208 O210 2.326 . S
In208 O214 2.266 . S
In208 O215 2.326 . S
In208 O216 2.266 . S
In208 O217 2.326 . S
In208 O219 2.294 . S
In208 O220 2.326 . S
O209 In208 2.294 . S
O209 C218 1.240 . S
O210 In208 2.326 . S
O210 C218 1.252 . S
C211 O214 1.252 . S
C211 O215 1.260 . S
C212 O219 1.240 . S
C212 O220 1.252 . S
C213 O216 1.252 . S
C213 O217 1.260 . S
O214 In208 2.266 . S
O214 C211 1.252 . S
O215 In208 2.326 . S
O215 C211 1.260 . S
O216 In208 2.266 . S
O216 C213 1.252 . S
O217 In208 2.326 . S
O217 C213 1.260 . S
C218 O209 1.240 . S
C218 O210 1.252 . S
O219 In208 2.294 . S
O219 C212 1.240 . S
O220 In208 2.326 . S
O220 C212 1.252 . S
In221 O222 2.294 . S
In221 O223 2.326 . S
In221 O227 2.266 . S
In221 O228 2.326 . S
In221 O229 2.266 . S
In221 O230 2.326 . S
In221 O232 2.294 . S
In221 O233 2.326 . S
O222 In221 2.294 . S
O222 C231 1.240 . S
O223 In221 2.326 . S
O223 C231 1.252 . S
C224 O227 1.252 . S
C224 O228 1.260 . S
C225 O232 1.240 . S
C225 O233 1.252 . S
C226 O229 1.252 . S
C226 O230 1.260 . S
O227 In221 2.266 . S
O227 C224 1.252 . S
O228 In221 2.326 . S
O228 C224 1.260 . S
O229 In221 2.266 . S
O229 C226 1.252 . S
O230 In221 2.326 . S
O230 C226 1.260 . S
C231 O222 1.240 . S
C231 O223 1.252 . S
O232 In221 2.294 . S
O232 C225 1.240 . S
O233 In221 2.326 . S
O233 C225 1.252 . S
C234 C235 1.349 . S
C234 C236 1.327 . S
C234 H259 0.950 . S
C235 C234 1.349 . S
C235 C251 1.349 . S
C236 C234 1.327 . S
C236 C255 1.429 . S
C236 H260 0.950 . S
C237 C254 1.574 . S
C237 C256 1.368 . S
C237 H261 0.949 . S
H238 C242 0.949 . S
C239 C240 1.349 . S
C239 C241 1.327 . S
C239 H262 0.950 . S
C240 C239 1.349 . S
C240 C252 1.349 . S
C241 C239 1.327 . S
C241 C257 1.429 . S
C241 H263 0.950 . S
C242 H238 0.949 . S
C242 C250 1.574 . S
C242 C258 1.368 . S
H243 C251 0.950 . S
H244 C249 0.950 . S
H245 C250 0.949 . S
H246 C252 0.950 . S
H247 C253 0.950 . S
H248 C254 0.949 . S
C249 H244 0.950 . S
C249 C251 1.327 . S
C249 C255 1.429 . S
C250 C242 1.574 . S
C250 H245 0.949 . S
C250 C256 1.368 . S
C251 C235 1.349 . S
C251 H243 0.950 . S
C251 C249 1.327 . S
C252 C240 1.349 . S
C252 H246 0.950 . S
C252 C253 1.327 . S
C253 H247 0.950 . S
C253 C252 1.327 . S
C253 C257 1.429 . S
C254 C237 1.574 . S
C254 H248 0.949 . S
C254 C258 1.368 . S
C255 C236 1.429 . S
C255 C249 1.429 . S
C255 C256 1.523 . S
C256 C237 1.368 . S
C256 C250 1.368 . S
C256 C255 1.523 . S
C257 C241 1.429 . S
C257 C253 1.429 . S
C257 C258 1.523 . S
C258 C242 1.368 . S
C258 C254 1.368 . S
C258 C257 1.523 . S
H259 C234 0.950 . S
H260 C236 0.950 . S
H261 C237 0.949 . S
H262 C239 0.950 . S
H263 C241 0.950 . S
C264 C265 1.349 . S
C264 C266 1.327 . S
C264 H289 0.950 . S
C265 C264 1.349 . S
C265 C281 1.349 . S
C266 C264 1.327 . S
C266 C285 1.429 . S
C266 H290 0.950 . S
C267 C284 1.574 . S
C267 C286 1.368 . S
C267 H291 0.949 . S
H268 C272 0.949 . S
C269 C270 1.349 . S
C269 C271 1.327 . S
C269 H292 0.950 . S
C270 C269 1.349 . S
C270 C282 1.349 . S
C271 C269 1.327 . S
C271 C287 1.429 . S
C271 H293 0.950 . S
C272 H268 0.949 . S
C272 C280 1.574 . S
C272 C288 1.368 . S
H273 C281 0.950 . S
H274 C279 0.950 . S
H275 C280 0.949 . S
H276 C282 0.950 . S
H277 C283 0.950 . S
H278 C284 0.949 . S
C279 H274 0.950 . S
C279 C281 1.327 . S
C279 C285 1.429 . S
C280 C272 1.574 . S
C280 H275 0.949 . S
C280 C286 1.368 . S
C281 C265 1.349 . S
C281 H273 0.950 . S
C281 C279 1.327 . S
C282 C270 1.349 . S
C282 H276 0.950 . S
C282 C283 1.327 . S
C283 H277 0.950 . S
C283 C282 1.327 . S
C283 C287 1.429 . S
C284 C267 1.574 . S
C284 H278 0.949 . S
C284 C288 1.368 . S
C285 C266 1.429 . S
C285 C279 1.429 . S
C285 C286 1.523 . S
C286 C267 1.368 . S
C286 C280 1.368 . S
C286 C285 1.523 . S
C287 C271 1.429 . S
C287 C283 1.429 . S
C287 C288 1.523 . S
C288 C272 1.368 . S
C288 C284 1.368 . S
C288 C287 1.523 . S
H289 C264 0.950 . S
H290 C266 0.950 . S
H291 C267 0.949 . S
H292 C269 0.950 . S
H293 C271 0.950 . S
C294 C295 1.349 . S
C294 C296 1.327 . S
C294 H319 0.950 . S
C295 C294 1.349 . S
C295 C311 1.349 . S
C296 C294 1.327 . S
C296 C315 1.429 . S
C296 H320 0.950 . S
C297 C314 1.574 . S
C297 C316 1.368 . S
C297 H321 0.949 . S
H298 C302 0.949 . S
C299 C300 1.349 . S
C299 C301 1.327 . S
C299 H322 0.950 . S
C300 C299 1.349 . S
C300 C312 1.349 . S
C301 C299 1.327 . S
C301 C317 1.429 . S
C301 H323 0.950 . S
C302 H298 0.949 . S
C302 C310 1.574 . S
C302 C318 1.368 . S
H303 C311 0.950 . S
H304 C309 0.950 . S
H305 C310 0.949 . S
H306 C312 0.950 . S
H307 C313 0.950 . S
H308 C314 0.949 . S
C309 H304 0.950 . S
C309 C311 1.327 . S
C309 C315 1.429 . S
C310 C302 1.574 . S
C310 H305 0.949 . S
C310 C316 1.368 . S
C311 C295 1.349 . S
C311 H303 0.950 . S
C311 C309 1.327 . S
C312 C300 1.349 . S
C312 H306 0.950 . S
C312 C313 1.327 . S
C313 H307 0.950 . S
C313 C312 1.327 . S
C313 C317 1.429 . S
C314 C297 1.574 . S
C314 H308 0.949 . S
C314 C318 1.368 . S
C315 C296 1.429 . S
C315 C309 1.429 . S
C315 C316 1.523 . S
C316 C297 1.368 . S
C316 C310 1.368 . S
C316 C315 1.523 . S
C317 C301 1.429 . S
C317 C313 1.429 . S
C317 C318 1.523 . S
C318 C302 1.368 . S
C318 C314 1.368 . S
C318 C317 1.523 . S
H319 C294 0.950 . S
H320 C296 0.950 . S
H321 C297 0.949 . S
H322 C299 0.950 . S
H323 C301 0.950 . S
C324 C325 1.349 . S
C324 C326 1.327 . S
C324 H349 0.950 . S
C325 C324 1.349 . S
C325 C341 1.349 . S
C326 C324 1.327 . S
C326 C345 1.429 . S
C326 H350 0.950 . S
C327 C344 1.574 . S
C327 C346 1.368 . S
C327 H351 0.949 . S
H328 C332 0.949 . S
C329 C330 1.349 . S
C329 C331 1.327 . S
C329 H352 0.950 . S
C330 C329 1.349 . S
C330 C342 1.349 . S
C331 C329 1.327 . S
C331 C347 1.429 . S
C331 H353 0.950 . S
C332 H328 0.949 . S
C332 C340 1.574 . S
C332 C348 1.368 . S
H333 C341 0.950 . S
H334 C339 0.950 . S
H335 C340 0.949 . S
H336 C342 0.950 . S
H337 C343 0.950 . S
H338 C344 0.949 . S
C339 H334 0.950 . S
C339 C341 1.327 . S
C339 C345 1.429 . S
C340 C332 1.574 . S
C340 H335 0.949 . S
C340 C346 1.368 . S
C341 C325 1.349 . S
C341 H333 0.950 . S
C341 C339 1.327 . S
C342 C330 1.349 . S
C342 H336 0.950 . S
C342 C343 1.327 . S
C343 H337 0.950 . S
C343 C342 1.327 . S
C343 C347 1.429 . S
C344 C327 1.574 . S
C344 H338 0.949 . S
C344 C348 1.368 . S
C345 C326 1.429 . S
C345 C339 1.429 . S
C345 C346 1.523 . S
C346 C327 1.368 . S
C346 C340 1.368 . S
C346 C345 1.523 . S
C347 C331 1.429 . S
C347 C343 1.429 . S
C347 C348 1.523 . S
C348 C332 1.368 . S
C348 C344 1.368 . S
C348 C347 1.523 . S
H349 C324 0.950 . S
H350 C326 0.950 . S
H351 C327 0.949 . S
H352 C329 0.950 . S
H353 C331 0.950 . S
C354 C355 1.349 . S
C354 C356 1.327 . S
C354 H379 0.950 . S
C355 C354 1.349 . S
C355 C371 1.349 . S
C356 C354 1.327 . S
C356 C375 1.429 . S
C356 H380 0.950 . S
C357 C374 1.574 . S
C357 C376 1.368 . S
C357 H381 0.949 . S
H358 C362 0.949 . S
C359 C360 1.349 . S
C359 C361 1.327 . S
C359 H382 0.950 . S
C360 C359 1.349 . S
C360 C372 1.349 . S
C361 C359 1.327 . S
C361 C377 1.429 . S
C361 H383 0.950 . S
C362 H358 0.949 . S
C362 C370 1.574 . S
C362 C378 1.368 . S
H363 C371 0.950 . S
H364 C369 0.950 . S
H365 C370 0.949 . S
H366 C372 0.950 . S
H367 C373 0.950 . S
H368 C374 0.949 . S
C369 H364 0.950 . S
C369 C371 1.327 . S
C369 C375 1.429 . S
C370 C362 1.574 . S
C370 H365 0.949 . S
C370 C376 1.368 . S
C371 C355 1.349 . S
C371 H363 0.950 . S
C371 C369 1.327 . S
C372 C360 1.349 . S
C372 H366 0.950 . S
C372 C373 1.327 . S
C373 H367 0.950 . S
C373 C372 1.327 . S
C373 C377 1.429 . S
C374 C357 1.574 . S
C374 H368 0.949 . S
C374 C378 1.368 . S
C375 C356 1.429 . S
C375 C369 1.429 . S
C375 C376 1.523 . S
C376 C357 1.368 . S
C376 C370 1.368 . S
C376 C375 1.523 . S
C377 C361 1.429 . S
C377 C373 1.429 . S
C377 C378 1.523 . S
C378 C362 1.368 . S
C378 C374 1.368 . S
C378 C377 1.523 . S
H379 C354 0.950 . S
H380 C356 0.950 . S
H381 C357 0.949 . S
H382 C359 0.950 . S
H383 C361 0.950 . S
C384 C385 1.349 . S
C384 C386 1.327 . S
C384 H409 0.950 . S
C385 C384 1.349 . S
C385 C401 1.349 . S
C386 C384 1.327 . S
C386 C405 1.429 . S
C386 H410 0.950 . S
C387 C404 1.574 . S
C387 C406 1.368 . S
C387 H411 0.949 . S
H388 C392 0.949 . S
C389 C390 1.349 . S
C389 C391 1.327 . S
C389 H412 0.950 . S
C390 C389 1.349 . S
C390 C402 1.349 . S
C391 C389 1.327 . S
C391 C407 1.429 . S
C391 H413 0.950 . S
C392 H388 0.949 . S
C392 C400 1.574 . S
C392 C408 1.368 . S
H393 C401 0.950 . S
H394 C399 0.950 . S
H395 C400 0.949 . S
H396 C402 0.950 . S
H397 C403 0.950 . S
H398 C404 0.949 . S
C399 H394 0.950 . S
C399 C401 1.327 . S
C399 C405 1.429 . S
C400 C392 1.574 . S
C400 H395 0.949 . S
C400 C406 1.368 . S
C401 C385 1.349 . S
C401 H393 0.950 . S
C401 C399 1.327 . S
C402 C390 1.349 . S
C402 H396 0.950 . S
C402 C403 1.327 . S
C403 H397 0.950 . S
C403 C402 1.327 . S
C403 C407 1.429 . S
C404 C387 1.574 . S
C404 H398 0.949 . S
C404 C408 1.368 . S
C405 C386 1.429 . S
C405 C399 1.429 . S
C405 C406 1.523 . S
C406 C387 1.368 . S
C406 C400 1.368 . S
C406 C405 1.523 . S
C407 C391 1.429 . S
C407 C403 1.429 . S
C407 C408 1.523 . S
C408 C392 1.368 . S
C408 C404 1.368 . S
C408 C407 1.523 . S
H409 C384 0.950 . S
H410 C386 0.950 . S
H411 C387 0.949 . S
H412 C389 0.950 . S
H413 C391 0.950 . S
C414 C415 1.349 . S
C414 C416 1.327 . S
C414 H439 0.950 . S
C415 C414 1.349 . S
C415 C431 1.349 . S
C416 C414 1.327 . S
C416 C435 1.429 . S
C416 H440 0.950 . S
C417 C434 1.574 1_655 S
C417 C436 1.368 . S
C417 H441 0.949 . S
H418 C422 0.949 . S
C419 C420 1.349 . S
C419 C421 1.327 . S
C419 H442 0.950 . S
C420 C419 1.349 . S
C420 C432 1.349 . S
C421 C419 1.327 . S
C421 C437 1.429 . S
C421 H443 0.950 . S
C422 H418 0.949 . S
C422 C430 1.574 1_455 S
C422 C438 1.368 . S
H423 C431 0.950 . S
H424 C429 0.950 . S
H425 C430 0.949 . S
H426 C432 0.950 . S
H427 C433 0.950 . S
H428 C434 0.949 . S
C429 H424 0.950 . S
C429 C431 1.327 . S
C429 C435 1.429 . S
C430 C422 1.574 1_655 S
C430 H425 0.949 . S
C430 C436 1.368 . S
C431 C415 1.349 . S
C431 H423 0.950 . S
C431 C429 1.327 . S
C432 C420 1.349 . S
C432 H426 0.950 . S
C432 C433 1.327 . S
C433 H427 0.950 . S
C433 C432 1.327 . S
C433 C437 1.429 . S
C434 C417 1.574 1_455 S
C434 H428 0.949 . S
C434 C438 1.368 . S
C435 C416 1.429 . S
C435 C429 1.429 . S
C435 C436 1.523 . S
C436 C417 1.368 . S
C436 C430 1.368 . S
C436 C435 1.523 . S
C437 C421 1.429 . S
C437 C433 1.429 . S
C437 C438 1.523 . S
C438 C422 1.368 . S
C438 C434 1.368 . S
C438 C437 1.523 . S
H439 C414 0.950 . S
H440 C416 0.950 . S
H441 C417 0.949 . S
H442 C419 0.950 . S
H443 C421 0.950 . S
C444 C445 1.349 . S
C444 C446 1.327 . S
C444 H469 0.950 . S
C445 C444 1.349 . S
C445 C461 1.349 . S
C446 C444 1.327 . S
C446 C465 1.429 . S
C446 H470 0.950 . S
C447 C464 1.574 . S
C447 C466 1.368 . S
C447 H471 0.949 . S
H448 C452 0.949 . S
C449 C450 1.349 . S
C449 C451 1.327 . S
C449 H472 0.950 . S
C450 C449 1.349 . S
C450 C462 1.349 . S
C451 C449 1.327 . S
C451 C467 1.429 . S
C451 H473 0.950 . S
C452 H448 0.949 . S
C452 C460 1.574 . S
C452 C468 1.368 . S
H453 C461 0.950 . S
H454 C459 0.950 . S
H455 C460 0.949 . S
H456 C462 0.950 . S
H457 C463 0.950 . S
H458 C464 0.949 . S
C459 H454 0.950 . S
C459 C461 1.327 . S
C459 C465 1.429 . S
C460 C452 1.574 . S
C460 H455 0.949 . S
C460 C466 1.368 . S
C461 C445 1.349 . S
C461 H453 0.950 . S
C461 C459 1.327 . S
C462 C450 1.349 . S
C462 H456 0.950 . S
C462 C463 1.327 . S
C463 H457 0.950 . S
C463 C462 1.327 . S
C463 C467 1.429 . S
C464 C447 1.574 . S
C464 H458 0.949 . S
C464 C468 1.368 . S
C465 C446 1.429 . S
C465 C459 1.429 . S
C465 C466 1.523 . S
C466 C447 1.368 . S
C466 C460 1.368 . S
C466 C465 1.523 . S
C467 C451 1.429 . S
C467 C463 1.429 . S
C467 C468 1.523 . S
C468 C452 1.368 . S
C468 C464 1.368 . S
C468 C467 1.523 . S
H469 C444 0.950 . S
H470 C446 0.950 . S
H471 C447 0.949 . S
H472 C449 0.950 . S
H473 C451 0.950 . S
C474 C475 1.349 . S
C474 C476 1.327 . S
C474 H499 0.950 . S
C475 C474 1.349 . S
C475 C491 1.349 . S
C476 C474 1.327 . S
C476 C495 1.429 . S
C476 H500 0.950 . S
C477 C494 1.574 1_545 S
C477 C496 1.368 . S
C477 H501 0.949 . S
H478 C482 0.949 . S
C479 C480 1.349 . S
C479 C481 1.327 . S
C479 H502 0.950 . S
C480 C479 1.349 . S
C480 C492 1.349 . S
C481 C479 1.327 . S
C481 C497 1.429 . S
C481 H503 0.950 . S
C482 H478 0.949 . S
C482 C490 1.574 1_565 S
C482 C498 1.368 . S
H483 C491 0.950 . S
H484 C489 0.950 . S
H485 C490 0.949 . S
H486 C492 0.950 . S
H487 C493 0.950 . S
H488 C494 0.949 . S
C489 H484 0.950 . S
C489 C491 1.327 . S
C489 C495 1.429 . S
C490 C482 1.574 1_545 S
C490 H485 0.949 . S
C490 C496 1.368 . S
C491 C475 1.349 . S
C491 H483 0.950 . S
C491 C489 1.327 . S
C492 C480 1.349 . S
C492 H486 0.950 . S
C492 C493 1.327 . S
C493 H487 0.950 . S
C493 C492 1.327 . S
C493 C497 1.429 . S
C494 C477 1.574 1_565 S
C494 H488 0.949 . S
C494 C498 1.368 . S
C495 C476 1.429 . S
C495 C489 1.429 . S
C495 C496 1.523 . S
C496 C477 1.368 . S
C496 C490 1.368 . S
C496 C495 1.523 . S
C497 C481 1.429 . S
C497 C493 1.429 . S
C497 C498 1.523 . S
C498 C482 1.368 . S
C498 C494 1.368 . S
C498 C497 1.523 . S
H499 C474 0.950 . S
H500 C476 0.950 . S
H501 C477 0.949 . S
H502 C479 0.950 . S
H503 C481 0.950 . S
C504 C505 1.349 . S
C504 C506 1.327 . S
C504 H529 0.950 . S
C505 C504 1.349 . S
C505 C521 1.349 . S
C506 C504 1.327 . S
C506 C525 1.429 . S
C506 H530 0.950 . S
C507 C524 1.574 1_455 S
C507 C526 1.368 . S
C507 H531 0.949 . S
H508 C512 0.949 . S
C509 C510 1.349 . S
C509 C511 1.327 . S
C509 H532 0.950 . S
C510 C509 1.349 . S
C510 C522 1.349 . S
C511 C509 1.327 . S
C511 C527 1.429 . S
C511 H533 0.950 . S
C512 H508 0.949 . S
C512 C520 1.574 1_655 S
C512 C528 1.368 . S
H513 C521 0.950 . S
H514 C519 0.950 . S
H515 C520 0.949 . S
H516 C522 0.950 . S
H517 C523 0.950 . S
H518 C524 0.949 . S
C519 H514 0.950 . S
C519 C521 1.327 . S
C519 C525 1.429 . S
C520 C512 1.574 1_455 S
C520 H515 0.949 . S
C520 C526 1.368 . S
C521 C505 1.349 . S
C521 H513 0.950 . S
C521 C519 1.327 . S
C522 C510 1.349 . S
C522 H516 0.950 . S
C522 C523 1.327 . S
C523 H517 0.950 . S
C523 C522 1.327 . S
C523 C527 1.429 . S
C524 C507 1.574 1_655 S
C524 H518 0.949 . S
C524 C528 1.368 . S
C525 C506 1.429 . S
C525 C519 1.429 . S
C525 C526 1.523 . S
C526 C507 1.368 . S
C526 C520 1.368 . S
C526 C525 1.523 . S
C527 C511 1.429 . S
C527 C523 1.429 . S
C527 C528 1.523 . S
C528 C512 1.368 . S
C528 C524 1.368 . S
C528 C527 1.523 . S
H529 C504 0.950 . S
H530 C506 0.950 . S
H531 C507 0.949 . S
H532 C509 0.950 . S
H533 C511 0.950 . S
C534 C535 1.349 . S
C534 C536 1.327 . S
C534 H559 0.950 . S
C535 C534 1.349 . S
C535 C551 1.349 . S
C536 C534 1.327 . S
C536 C555 1.429 . S
C536 H560 0.950 . S
C537 C554 1.574 . S
C537 C556 1.368 . S
C537 H561 0.949 . S
H538 C542 0.949 . S
C539 C540 1.349 . S
C539 C541 1.327 . S
C539 H562 0.950 . S
C540 C539 1.349 . S
C540 C552 1.349 . S
C541 C539 1.327 . S
C541 C557 1.429 . S
C541 H563 0.950 . S
C542 H538 0.949 . S
C542 C550 1.574 . S
C542 C558 1.368 . S
H543 C551 0.950 . S
H544 C549 0.950 . S
H545 C550 0.949 . S
H546 C552 0.950 . S
H547 C553 0.950 . S
H548 C554 0.949 . S
C549 H544 0.950 . S
C549 C551 1.327 . S
C549 C555 1.429 . S
C550 C542 1.574 . S
C550 H545 0.949 . S
C550 C556 1.368 . S
C551 C535 1.349 . S
C551 H543 0.950 . S
C551 C549 1.327 . S
C552 C540 1.349 . S
C552 H546 0.950 . S
C552 C553 1.327 . S
C553 H547 0.950 . S
C553 C552 1.327 . S
C553 C557 1.429 . S
C554 C537 1.574 . S
C554 H548 0.949 . S
C554 C558 1.368 . S
C555 C536 1.429 . S
C555 C549 1.429 . S
C555 C556 1.523 . S
C556 C537 1.368 . S
C556 C550 1.368 . S
C556 C555 1.523 . S
C557 C541 1.429 . S
C557 C553 1.429 . S
C557 C558 1.523 . S
C558 C542 1.368 . S
C558 C554 1.368 . S
C558 C557 1.523 . S
H559 C534 0.950 . S
H560 C536 0.950 . S
H561 C537 0.949 . S
H562 C539 0.950 . S
H563 C541 0.950 . S
C564 C565 1.349 . S
C564 C566 1.327 . S
C564 H589 0.950 . S
C565 C564 1.349 . S
C565 C581 1.349 . S
C566 C564 1.327 . S
C566 C585 1.429 . S
C566 H590 0.950 . S
C567 C584 1.574 1_545 S
C567 C586 1.368 . S
C567 H591 0.949 . S
H568 C572 0.949 . S
C569 C570 1.349 . S
C569 C571 1.327 . S
C569 H592 0.950 . S
C570 C569 1.349 . S
C570 C582 1.349 . S
C571 C569 1.327 . S
C571 C587 1.429 . S
C571 H593 0.950 . S
C572 H568 0.949 . S
C572 C580 1.574 1_565 S
C572 C588 1.368 . S
H573 C581 0.950 . S
H574 C579 0.950 . S
H575 C580 0.949 . S
H576 C582 0.950 . S
H577 C583 0.950 . S
H578 C584 0.949 . S
C579 H574 0.950 . S
C579 C581 1.327 . S
C579 C585 1.429 . S
C580 C572 1.574 1_545 S
C580 H575 0.949 . S
C580 C586 1.368 . S
C581 C565 1.349 . S
C581 H573 0.950 . S
C581 C579 1.327 . S
C582 C570 1.349 . S
C582 H576 0.950 . S
C582 C583 1.327 . S
C583 H577 0.950 . S
C583 C582 1.327 . S
C583 C587 1.429 . S
C584 C567 1.574 1_565 S
C584 H578 0.949 . S
C584 C588 1.368 . S
C585 C566 1.429 . S
C585 C579 1.429 . S
C585 C586 1.523 . S
C586 C567 1.368 . S
C586 C580 1.368 . S
C586 C585 1.523 . S
C587 C571 1.429 . S
C587 C583 1.429 . S
C587 C588 1.523 . S
C588 C572 1.368 . S
C588 C584 1.368 . S
C588 C587 1.523 . S
H589 C564 0.950 . S
H590 C566 0.950 . S
H591 C567 0.949 . S
H592 C569 0.950 . S
H593 C571 0.950 . S
C594 C595 1.349 . S
C594 C596 1.327 . S
C594 H619 0.950 . S
C595 C594 1.349 . S
C595 C611 1.349 . S
C596 C594 1.327 . S
C596 C615 1.429 . S
C596 H620 0.950 . S
C597 C614 1.574 1_565 S
C597 C616 1.368 . S
C597 H621 0.949 . S
H598 C602 0.949 . S
C599 C600 1.349 . S
C599 C601 1.327 . S
C599 H622 0.950 . S
C600 C599 1.349 . S
C600 C612 1.349 . S
C601 C599 1.327 . S
C601 C617 1.429 . S
C601 H623 0.950 . S
C602 H598 0.949 . S
C602 C610 1.574 1_545 S
C602 C618 1.368 . S
H603 C611 0.950 . S
H604 C609 0.950 . S
H605 C610 0.949 . S
H606 C612 0.950 . S
H607 C613 0.950 . S
H608 C614 0.949 . S
C609 H604 0.950 . S
C609 C611 1.327 . S
C609 C615 1.429 . S
C610 C602 1.574 1_565 S
C610 H605 0.949 . S
C610 C616 1.368 . S
C611 C595 1.349 . S
C611 H603 0.950 . S
C611 C609 1.327 . S
C612 C600 1.349 . S
C612 H606 0.950 . S
C612 C613 1.327 . S
C613 H607 0.950 . S
C613 C612 1.327 . S
C613 C617 1.429 . S
C614 C597 1.574 1_545 S
C614 H608 0.949 . S
C614 C618 1.368 . S
C615 C596 1.429 . S
C615 C609 1.429 . S
C615 C616 1.523 . S
C616 C597 1.368 . S
C616 C610 1.368 . S
C616 C615 1.523 . S
C617 C601 1.429 . S
C617 C613 1.429 . S
C617 C618 1.523 . S
C618 C602 1.368 . S
C618 C614 1.368 . S
C618 C617 1.523 . S
H619 C594 0.950 . S
H620 C596 0.950 . S
H621 C597 0.949 . S
H622 C599 0.950 . S
H623 C601 0.950 . S
C624 C625 1.349 . S
C624 C626 1.327 . S
C624 H649 0.950 . S
C625 C624 1.349 . S
C625 C641 1.349 . S
C626 C624 1.327 . S
C626 C645 1.429 . S
C626 H650 0.950 . S
C627 C644 1.574 1_455 S
C627 C646 1.368 . S
C627 H651 0.949 . S
H628 C632 0.949 . S
C629 C630 1.349 . S
C629 C631 1.327 . S
C629 H652 0.950 . S
C630 C629 1.349 . S
C630 C642 1.349 . S
C631 C629 1.327 . S
C631 C647 1.429 . S
C631 H653 0.950 . S
C632 H628 0.949 . S
C632 C640 1.574 1_655 S
C632 C648 1.368 . S
H633 C641 0.950 . S
H634 C639 0.950 . S
H635 C640 0.949 . S
H636 C642 0.950 . S
H637 C643 0.950 . S
H638 C644 0.949 . S
C639 H634 0.950 . S
C639 C641 1.327 . S
C639 C645 1.429 . S
C640 C632 1.574 1_455 S
C640 H635 0.949 . S
C640 C646 1.368 . S
C641 C625 1.349 . S
C641 H633 0.950 . S
C641 C639 1.327 . S
C642 C630 1.349 . S
C642 H636 0.950 . S
C642 C643 1.327 . S
C643 H637 0.950 . S
C643 C642 1.327 . S
C643 C647 1.429 . S
C644 C627 1.574 1_655 S
C644 H638 0.949 . S
C644 C648 1.368 . S
C645 C626 1.429 . S
C645 C639 1.429 . S
C645 C646 1.523 . S
C646 C627 1.368 . S
C646 C640 1.368 . S
C646 C645 1.523 . S
C647 C631 1.429 . S
C647 C643 1.429 . S
C647 C648 1.523 . S
C648 C632 1.368 . S
C648 C644 1.368 . S
C648 C647 1.523 . S
H649 C624 0.950 . S
H650 C626 0.950 . S
H651 C627 0.949 . S
H652 C629 0.950 . S
H653 C631 0.950 . S
C654 C655 1.349 . S
C654 C656 1.327 . S
C654 H679 0.950 . S
C655 C654 1.349 . S
C655 C671 1.349 . S
C656 C654 1.327 . S
C656 C675 1.429 . S
C656 H680 0.950 . S
C657 C674 1.574 . S
C657 C676 1.368 . S
C657 H681 0.949 . S
H658 C662 0.949 . S
C659 C660 1.349 . S
C659 C661 1.327 . S
C659 H682 0.950 . S
C660 C659 1.349 . S
C660 C672 1.349 . S
C661 C659 1.327 . S
C661 C677 1.429 . S
C661 H683 0.950 . S
C662 H658 0.949 . S
C662 C670 1.574 . S
C662 C678 1.368 . S
H663 C671 0.950 . S
H664 C669 0.950 . S
H665 C670 0.949 . S
H666 C672 0.950 . S
H667 C673 0.950 . S
H668 C674 0.949 . S
C669 H664 0.950 . S
C669 C671 1.327 . S
C669 C675 1.429 . S
C670 C662 1.574 . S
C670 H665 0.949 . S
C670 C676 1.368 . S
C671 C655 1.349 . S
C671 H663 0.950 . S
C671 C669 1.327 . S
C672 C660 1.349 . S
C672 H666 0.950 . S
C672 C673 1.327 . S
C673 H667 0.950 . S
C673 C672 1.327 . S
C673 C677 1.429 . S
C674 C657 1.574 . S
C674 H668 0.949 . S
C674 C678 1.368 . S
C675 C656 1.429 . S
C675 C669 1.429 . S
C675 C676 1.523 . S
C676 C657 1.368 . S
C676 C670 1.368 . S
C676 C675 1.523 . S
C677 C661 1.429 . S
C677 C673 1.429 . S
C677 C678 1.523 . S
C678 C662 1.368 . S
C678 C674 1.368 . S
C678 C677 1.523 . S
H679 C654 0.950 . S
H680 C656 0.950 . S
H681 C657 0.949 . S
H682 C659 0.950 . S
H683 C661 0.950 . S
C684 C685 1.349 . S
C684 C686 1.327 . S
C684 H709 0.950 . S
C685 C684 1.349 . S
C685 C701 1.349 . S
C686 C684 1.327 . S
C686 C705 1.429 . S
C686 H710 0.950 . S
C687 C704 1.574 . S
C687 C706 1.368 . S
C687 H711 0.949 . S
H688 C692 0.949 . S
C689 C690 1.349 . S
C689 C691 1.327 . S
C689 H712 0.950 . S
C690 C689 1.349 . S
C690 C702 1.349 . S
C691 C689 1.327 . S
C691 C707 1.429 . S
C691 H713 0.950 . S
C692 H688 0.949 . S
C692 C700 1.574 . S
C692 C708 1.368 . S
H693 C701 0.950 . S
H694 C699 0.950 . S
H695 C700 0.949 . S
H696 C702 0.950 . S
H697 C703 0.950 . S
H698 C704 0.949 . S
C699 H694 0.950 . S
C699 C701 1.327 . S
C699 C705 1.429 . S
C700 C692 1.574 . S
C700 H695 0.949 . S
C700 C706 1.368 . S
C701 C685 1.349 . S
C701 H693 0.950 . S
C701 C699 1.327 . S
C702 C690 1.349 . S
C702 H696 0.950 . S
C702 C703 1.327 . S
C703 H697 0.950 . S
C703 C702 1.327 . S
C703 C707 1.429 . S
C704 C687 1.574 . S
C704 H698 0.949 . S
C704 C708 1.368 . S
C705 C686 1.429 . S
C705 C699 1.429 . S
C705 C706 1.523 . S
C706 C687 1.368 . S
C706 C700 1.368 . S
C706 C705 1.523 . S
C707 C691 1.429 . S
C707 C703 1.429 . S
C707 C708 1.523 . S
C708 C692 1.368 . S
C708 C704 1.368 . S
C708 C707 1.523 . S
H709 C684 0.950 . S
H710 C686 0.950 . S
H711 C687 0.949 . S
H712 C689 0.950 . S
H713 C691 0.950 . S
C714 C715 1.349 . S
C714 C716 1.327 . S
C714 H739 0.950 . S
C715 C714 1.349 . S
C715 C731 1.349 . S
C716 C714 1.327 . S
C716 C735 1.429 . S
C716 H740 0.950 . S
C717 C734 1.574 . S
C717 C736 1.368 . S
C717 H741 0.949 . S
H718 C722 0.949 . S
C719 C720 1.349 . S
C719 C721 1.327 . S
C719 H742 0.950 . S
C720 C719 1.349 . S
C720 C732 1.349 . S
C721 C719 1.327 . S
C721 C737 1.429 . S
C721 H743 0.950 . S
C722 H718 0.949 . S
C722 C730 1.574 . S
C722 C738 1.368 . S
H723 C731 0.950 . S
H724 C729 0.950 . S
H725 C730 0.949 . S
H726 C732 0.950 . S
H727 C733 0.950 . S
H728 C734 0.949 . S
C729 H724 0.950 . S
C729 C731 1.327 . S
C729 C735 1.429 . S
C730 C722 1.574 . S
C730 H725 0.949 . S
C730 C736 1.368 . S
C731 C715 1.349 . S
C731 H723 0.950 . S
C731 C729 1.327 . S
C732 C720 1.349 . S
C732 H726 0.950 . S
C732 C733 1.327 . S
C733 H727 0.950 . S
C733 C732 1.327 . S
C733 C737 1.429 . S
C734 C717 1.574 . S
C734 H728 0.949 . S
C734 C738 1.368 . S
C735 C716 1.429 . S
C735 C729 1.429 . S
C735 C736 1.523 . S
C736 C717 1.368 . S
C736 C730 1.368 . S
C736 C735 1.523 . S
C737 C721 1.429 . S
C737 C733 1.429 . S
C737 C738 1.523 . S
C738 C722 1.368 . S
C738 C734 1.368 . S
C738 C737 1.523 . S
H739 C714 0.950 . S
H740 C716 0.950 . S
H741 C717 0.949 . S
H742 C719 0.950 . S
H743 C721 0.950 . S
C744 C745 1.349 . S
C744 C746 1.327 . S
C744 H769 0.950 . S
C745 C744 1.349 . S
C745 C761 1.349 . S
C746 C744 1.327 . S
C746 C765 1.429 . S
C746 H770 0.950 . S
C747 C764 1.574 . S
C747 C766 1.368 . S
C747 H771 0.949 . S
H748 C752 0.949 . S
C749 C750 1.349 . S
C749 C751 1.327 . S
C749 H772 0.950 . S
C750 C749 1.349 . S
C750 C762 1.349 . S
C751 C749 1.327 . S
C751 C767 1.429 . S
C751 H773 0.950 . S
C752 H748 0.949 . S
C752 C760 1.574 . S
C752 C768 1.368 . S
H753 C761 0.950 . S
H754 C759 0.950 . S
H755 C760 0.949 . S
H756 C762 0.950 . S
H757 C763 0.950 . S
H758 C764 0.949 . S
C759 H754 0.950 . S
C759 C761 1.327 . S
C759 C765 1.429 . S
C760 C752 1.574 . S
C760 H755 0.949 . S
C760 C766 1.368 . S
C761 C745 1.349 . S
C761 H753 0.950 . S
C761 C759 1.327 . S
C762 C750 1.349 . S
C762 H756 0.950 . S
C762 C763 1.327 . S
C763 H757 0.950 . S
C763 C762 1.327 . S
C763 C767 1.429 . S
C764 C747 1.574 . S
C764 H758 0.949 . S
C764 C768 1.368 . S
C765 C746 1.429 . S
C765 C759 1.429 . S
C765 C766 1.523 . S
C766 C747 1.368 . S
C766 C760 1.368 . S
C766 C765 1.523 . S
C767 C751 1.429 . S
C767 C763 1.429 . S
C767 C768 1.523 . S
C768 C752 1.368 . S
C768 C764 1.368 . S
C768 C767 1.523 . S
H769 C744 0.950 . S
H770 C746 0.950 . S
H771 C747 0.949 . S
H772 C749 0.950 . S
H773 C751 0.950 . S
C774 C775 1.349 . S
C774 C776 1.327 . S
C774 H799 0.950 . S
C775 C774 1.349 . S
C775 C791 1.349 . S
C776 C774 1.327 . S
C776 C795 1.429 . S
C776 H800 0.950 . S
C777 C794 1.574 . S
C777 C796 1.368 . S
C777 H801 0.949 . S
H778 C782 0.949 . S
C779 C780 1.349 . S
C779 C781 1.327 . S
C779 H802 0.950 . S
C780 C779 1.349 . S
C780 C792 1.349 . S
C781 C779 1.327 . S
C781 C797 1.429 . S
C781 H803 0.950 . S
C782 H778 0.949 . S
C782 C790 1.574 . S
C782 C798 1.368 . S
H783 C791 0.950 . S
H784 C789 0.950 . S
H785 C790 0.949 . S
H786 C792 0.950 . S
H787 C793 0.950 . S
H788 C794 0.949 . S
C789 H784 0.950 . S
C789 C791 1.327 . S
C789 C795 1.429 . S
C790 C782 1.574 . S
C790 H785 0.949 . S
C790 C796 1.368 . S
C791 C775 1.349 . S
C791 H783 0.950 . S
C791 C789 1.327 . S
C792 C780 1.349 . S
C792 H786 0.950 . S
C792 C793 1.327 . S
C793 H787 0.950 . S
C793 C792 1.327 . S
C793 C797 1.429 . S
C794 C777 1.574 . S
C794 H788 0.949 . S
C794 C798 1.368 . S
C795 C776 1.429 . S
C795 C789 1.429 . S
C795 C796 1.523 . S
C796 C777 1.368 . S
C796 C790 1.368 . S
C796 C795 1.523 . S
C797 C781 1.429 . S
C797 C793 1.429 . S
C797 C798 1.523 . S
C798 C782 1.368 . S
C798 C794 1.368 . S
C798 C797 1.523 . S
H799 C774 0.950 . S
H800 C776 0.950 . S
H801 C777 0.949 . S
H802 C779 0.950 . S
H803 C781 0.950 . S
C804 C805 1.349 . S
C804 C806 1.327 . S
C804 H829 0.950 . S
C805 C804 1.349 . S
C805 C821 1.349 . S
C806 C804 1.327 . S
C806 C825 1.429 . S
C806 H830 0.950 . S
C807 C824 1.574 . S
C807 C826 1.368 . S
C807 H831 0.949 . S
H808 C812 0.949 . S
C809 C810 1.349 . S
C809 C811 1.327 . S
C809 H832 0.950 . S
C810 C809 1.349 . S
C810 C822 1.349 . S
C811 C809 1.327 . S
C811 C827 1.429 . S
C811 H833 0.950 . S
C812 H808 0.949 . S
C812 C820 1.574 . S
C812 C828 1.368 . S
H813 C821 0.950 . S
H814 C819 0.950 . S
H815 C820 0.949 . S
H816 C822 0.950 . S
H817 C823 0.950 . S
H818 C824 0.949 . S
C819 H814 0.950 . S
C819 C821 1.327 . S
C819 C825 1.429 . S
C820 C812 1.574 . S
C820 H815 0.949 . S
C820 C826 1.368 . S
C821 C805 1.349 . S
C821 H813 0.950 . S
C821 C819 1.327 . S
C822 C810 1.349 . S
C822 H816 0.950 . S
C822 C823 1.327 . S
C823 H817 0.950 . S
C823 C822 1.327 . S
C823 C827 1.429 . S
C824 C807 1.574 . S
C824 H818 0.949 . S
C824 C828 1.368 . S
C825 C806 1.429 . S
C825 C819 1.429 . S
C825 C826 1.523 . S
C826 C807 1.368 . S
C826 C820 1.368 . S
C826 C825 1.523 . S
C827 C811 1.429 . S
C827 C823 1.429 . S
C827 C828 1.523 . S
C828 C812 1.368 . S
C828 C824 1.368 . S
C828 C827 1.523 . S
H829 C804 0.950 . S
H830 C806 0.950 . S
H831 C807 0.949 . S
H832 C809 0.950 . S
H833 C811 0.950 . S
C834 C835 1.349 . S
C834 C836 1.327 . S
C834 H859 0.950 . S
C835 C834 1.349 . S
C835 C851 1.349 . S
C836 C834 1.327 . S
C836 C855 1.429 . S
C836 H860 0.950 . S
C837 C854 1.574 . S
C837 C856 1.368 . S
C837 H861 0.949 . S
H838 C842 0.949 . S
C839 C840 1.349 . S
C839 C841 1.327 . S
C839 H862 0.950 . S
C840 C839 1.349 . S
C840 C852 1.349 . S
C841 C839 1.327 . S
C841 C857 1.429 . S
C841 H863 0.950 . S
C842 H838 0.949 . S
C842 C850 1.574 . S
C842 C858 1.368 . S
H843 C851 0.950 . S
H844 C849 0.950 . S
H845 C850 0.949 . S
H846 C852 0.950 . S
H847 C853 0.950 . S
H848 C854 0.949 . S
C849 H844 0.950 . S
C849 C851 1.327 . S
C849 C855 1.429 . S
C850 C842 1.574 . S
C850 H845 0.949 . S
C850 C856 1.368 . S
C851 C835 1.349 . S
C851 H843 0.950 . S
C851 C849 1.327 . S
C852 C840 1.349 . S
C852 H846 0.950 . S
C852 C853 1.327 . S
C853 H847 0.950 . S
C853 C852 1.327 . S
C853 C857 1.429 . S
C854 C837 1.574 . S
C854 H848 0.949 . S
C854 C858 1.368 . S
C855 C836 1.429 . S
C855 C849 1.429 . S
C855 C856 1.523 . S
C856 C837 1.368 . S
C856 C850 1.368 . S
C856 C855 1.523 . S
C857 C841 1.429 . S
C857 C853 1.429 . S
C857 C858 1.523 . S
C858 C842 1.368 . S
C858 C854 1.368 . S
C858 C857 1.523 . S
H859 C834 0.950 . S
H860 C836 0.950 . S
H861 C837 0.949 . S
H862 C839 0.950 . S
H863 C841 0.950 . S
C864 C865 1.349 . S
C864 C866 1.327 . S
C864 H889 0.950 . S
C865 C864 1.349 . S
C865 C881 1.349 . S
C866 C864 1.327 . S
C866 C885 1.429 . S
C866 H890 0.950 . S
C867 C884 1.574 . S
C867 C886 1.368 . S
C867 H891 0.949 . S
H868 C872 0.949 . S
C869 C870 1.349 . S
C869 C871 1.327 . S
C869 H892 0.950 . S
C870 C869 1.349 . S
C870 C882 1.349 . S
C871 C869 1.327 . S
C871 C887 1.429 . S
C871 H893 0.950 . S
C872 H868 0.949 . S
C872 C880 1.574 . S
C872 C888 1.368 . S
H873 C881 0.950 . S
H874 C879 0.950 . S
H875 C880 0.949 . S
H876 C882 0.950 . S
H877 C883 0.950 . S
H878 C884 0.949 . S
C879 H874 0.950 . S
C879 C881 1.327 . S
C879 C885 1.429 . S
C880 C872 1.574 . S
C880 H875 0.949 . S
C880 C886 1.368 . S
C881 C865 1.349 . S
C881 H873 0.950 . S
C881 C879 1.327 . S
C882 C870 1.349 . S
C882 H876 0.950 . S
C882 C883 1.327 . S
C883 H877 0.950 . S
C883 C882 1.327 . S
C883 C887 1.429 . S
C884 C867 1.574 . S
C884 H878 0.949 . S
C884 C888 1.368 . S
C885 C866 1.429 . S
C885 C879 1.429 . S
C885 C886 1.523 . S
C886 C867 1.368 . S
C886 C880 1.368 . S
C886 C885 1.523 . S
C887 C871 1.429 . S
C887 C883 1.429 . S
C887 C888 1.523 . S
C888 C872 1.368 . S
C888 C884 1.368 . S
C888 C887 1.523 . S
H889 C864 0.950 . S
H890 C866 0.950 . S
H891 C867 0.949 . S
H892 C869 0.950 . S
H893 C871 0.950 . S
C894 C895 1.349 . S
C894 C896 1.327 . S
C894 H919 0.950 . S
C895 C894 1.349 . S
C895 C911 1.349 . S
C896 C894 1.327 . S
C896 C915 1.429 . S
C896 H920 0.950 . S
C897 C914 1.574 . S
C897 C916 1.368 . S
C897 H921 0.949 . S
H898 C902 0.949 . S
C899 C900 1.349 . S
C899 C901 1.327 . S
C899 H922 0.950 . S
C900 C899 1.349 . S
C900 C912 1.349 . S
C901 C899 1.327 . S
C901 C917 1.429 . S
C901 H923 0.950 . S
C902 H898 0.949 . S
C902 C910 1.574 . S
C902 C918 1.368 . S
H903 C911 0.950 . S
H904 C909 0.950 . S
H905 C910 0.949 . S
H906 C912 0.950 . S
H907 C913 0.950 . S
H908 C914 0.949 . S
C909 H904 0.950 . S
C909 C911 1.327 . S
C909 C915 1.429 . S
C910 C902 1.574 . S
C910 H905 0.949 . S
C910 C916 1.368 . S
C911 C895 1.349 . S
C911 H903 0.950 . S
C911 C909 1.327 . S
C912 C900 1.349 . S
C912 H906 0.950 . S
C912 C913 1.327 . S
C913 H907 0.950 . S
C913 C912 1.327 . S
C913 C917 1.429 . S
C914 C897 1.574 . S
C914 H908 0.949 . S
C914 C918 1.368 . S
C915 C896 1.429 . S
C915 C909 1.429 . S
C915 C916 1.523 . S
C916 C897 1.368 . S
C916 C910 1.368 . S
C916 C915 1.523 . S
C917 C901 1.429 . S
C917 C913 1.429 . S
C917 C918 1.523 . S
C918 C902 1.368 . S
C918 C914 1.368 . S
C918 C917 1.523 . S
H919 C894 0.950 . S
H920 C896 0.950 . S
H921 C897 0.949 . S
H922 C899 0.950 . S
H923 C901 0.950 . S
C924 C925 1.349 . S
C924 C926 1.327 . S
C924 H949 0.950 . S
C925 C924 1.349 . S
C925 C941 1.349 . S
C926 C924 1.327 . S
C926 C945 1.429 . S
C926 H950 0.950 . S
C927 C944 1.574 . S
C927 C946 1.368 . S
C927 H951 0.949 . S
H928 C932 0.949 . S
C929 C930 1.349 . S
C929 C931 1.327 . S
C929 H952 0.950 . S
C930 C929 1.349 . S
C930 C942 1.349 . S
C931 C929 1.327 . S
C931 C947 1.429 . S
C931 H953 0.950 . S
C932 H928 0.949 . S
C932 C940 1.574 . S
C932 C948 1.368 . S
H933 C941 0.950 . S
H934 C939 0.950 . S
H935 C940 0.949 . S
H936 C942 0.950 . S
H937 C943 0.950 . S
H938 C944 0.949 . S
C939 H934 0.950 . S
C939 C941 1.327 . S
C939 C945 1.429 . S
C940 C932 1.574 . S
C940 H935 0.949 . S
C940 C946 1.368 . S
C941 C925 1.349 . S
C941 H933 0.950 . S
C941 C939 1.327 . S
C942 C930 1.349 . S
C942 H936 0.950 . S
C942 C943 1.327 . S
C943 H937 0.950 . S
C943 C942 1.327 . S
C943 C947 1.429 . S
C944 C927 1.574 . S
C944 H938 0.949 . S
C944 C948 1.368 . S
C945 C926 1.429 . S
C945 C939 1.429 . S
C945 C946 1.523 . S
C946 C927 1.368 . S
C946 C940 1.368 . S
C946 C945 1.523 . S
C947 C931 1.429 . S
C947 C943 1.429 . S
C947 C948 1.523 . S
C948 C932 1.368 . S
C948 C944 1.368 . S
C948 C947 1.523 . S
H949 C924 0.950 . S
H950 C926 0.950 . S
H951 C927 0.949 . S
H952 C929 0.950 . S
H953 C931 0.950 . S
C954 C955 1.349 . S
C954 C956 1.327 . S
C954 H979 0.950 . S
C955 C954 1.349 . S
C955 C971 1.349 . S
C956 C954 1.327 . S
C956 C975 1.429 . S
C956 H980 0.950 . S
C957 C974 1.574 . S
C957 C976 1.368 . S
C957 H981 0.949 . S
H958 C962 0.949 . S
C959 C960 1.349 . S
C959 C961 1.327 . S
C959 H982 0.950 . S
C960 C959 1.349 . S
C960 C972 1.349 . S
C961 C959 1.327 . S
C961 C977 1.429 . S
C961 H983 0.950 . S
C962 H958 0.949 . S
C962 C970 1.574 . S
C962 C978 1.368 . S
H963 C971 0.950 . S
H964 C969 0.950 . S
H965 C970 0.949 . S
H966 C972 0.950 . S
H967 C973 0.950 . S
H968 C974 0.949 . S
C969 H964 0.950 . S
C969 C971 1.327 . S
C969 C975 1.429 . S
C970 C962 1.574 . S
C970 H965 0.949 . S
C970 C976 1.368 . S
C971 C955 1.349 . S
C971 H963 0.950 . S
C971 C969 1.327 . S
C972 C960 1.349 . S
C972 H966 0.950 . S
C972 C973 1.327 . S
C973 H967 0.950 . S
C973 C972 1.327 . S
C973 C977 1.429 . S
C974 C957 1.574 . S
C974 H968 0.949 . S
C974 C978 1.368 . S
C975 C956 1.429 . S
C975 C969 1.429 . S
C975 C976 1.523 . S
C976 C957 1.368 . S
C976 C970 1.368 . S
C976 C975 1.523 . S
C977 C961 1.429 . S
C977 C973 1.429 . S
C977 C978 1.523 . S
C978 C962 1.368 . S
C978 C974 1.368 . S
C978 C977 1.523 . S
H979 C954 0.950 . S
H980 C956 0.950 . S
H981 C957 0.949 . S
H982 C959 0.950 . S
H983 C961 0.950 . S
C984 C985 1.349 . S
C984 C986 1.327 . S
C984 H1009 0.950 . S
C985 C984 1.349 . S
C985 C1001 1.349 . S
C986 C984 1.327 . S
C986 C1005 1.429 . S
C986 H1010 0.950 . S
C987 C1004 1.574 . S
C987 C1006 1.368 . S
C987 H1011 0.949 . S
H988 C992 0.949 . S
C989 C990 1.349 . S
C989 C991 1.327 . S
C989 H1012 0.950 . S
C990 C989 1.349 . S
C990 C1002 1.349 . S
C991 C989 1.327 . S
C991 C1007 1.429 . S
C991 H1013 0.950 . S
C992 H988 0.949 . S
C992 C1000 1.574 . S
C992 C1008 1.368 . S
H993 C1001 0.950 . S
H994 C999 0.950 . S
H995 C1000 0.949 . S
H996 C1002 0.950 . S
H997 C1003 0.950 . S
H998 C1004 0.949 . S
C999 H994 0.950 . S
C999 C1001 1.327 . S
C999 C1005 1.429 . S
C1000 C992 1.574 . S
C1000 H995 0.949 . S
C1000 C1006 1.368 . S
C1001 C985 1.349 . S
C1001 H993 0.950 . S
C1001 C999 1.327 . S
C1002 C990 1.349 . S
C1002 H996 0.950 . S
C1002 C1003 1.327 . S
C1003 H997 0.950 . S
C1003 C1002 1.327 . S
C1003 C1007 1.429 . S
C1004 C987 1.574 . S
C1004 H998 0.949 . S
C1004 C1008 1.368 . S
C1005 C986 1.429 . S
C1005 C999 1.429 . S
C1005 C1006 1.523 . S
C1006 C987 1.368 . S
C1006 C1000 1.368 . S
C1006 C1005 1.523 . S
C1007 C991 1.429 . S
C1007 C1003 1.429 . S
C1007 C1008 1.523 . S
C1008 C992 1.368 . S
C1008 C1004 1.368 . S
C1008 C1007 1.523 . S
H1009 C984 0.950 . S
H1010 C986 0.950 . S
H1011 C987 0.949 . S
H1012 C989 0.950 . S
H1013 C991 0.950 . S
C1014 C1015 1.349 . S
C1014 C1016 1.327 . S
C1014 H1039 0.950 . S
C1015 C1014 1.349 . S
C1015 C1031 1.349 . S
C1016 C1014 1.327 . S
C1016 C1035 1.429 . S
C1016 H1040 0.950 . S
C1017 C1034 1.574 . S
C1017 C1036 1.368 . S
C1017 H1041 0.949 . S
H1018 C1022 0.949 . S
C1019 C1020 1.349 . S
C1019 C1021 1.327 . S
C1019 H1042 0.950 . S
C1020 C1019 1.349 . S
C1020 C1032 1.349 . S
C1021 C1019 1.327 . S
C1021 C1037 1.429 . S
C1021 H1043 0.950 . S
C1022 H1018 0.949 . S
C1022 C1030 1.574 . S
C1022 C1038 1.368 . S
H1023 C1031 0.950 . S
H1024 C1029 0.950 . S
H1025 C1030 0.949 . S
H1026 C1032 0.950 . S
H1027 C1033 0.950 . S
H1028 C1034 0.949 . S
C1029 H1024 0.950 . S
C1029 C1031 1.327 . S
C1029 C1035 1.429 . S
C1030 C1022 1.574 . S
C1030 H1025 0.949 . S
C1030 C1036 1.368 . S
C1031 C1015 1.349 . S
C1031 H1023 0.950 . S
C1031 C1029 1.327 . S
C1032 C1020 1.349 . S
C1032 H1026 0.950 . S
C1032 C1033 1.327 . S
C1033 H1027 0.950 . S
C1033 C1032 1.327 . S
C1033 C1037 1.429 . S
C1034 C1017 1.574 . S
C1034 H1028 0.949 . S
C1034 C1038 1.368 . S
C1035 C1016 1.429 . S
C1035 C1029 1.429 . S
C1035 C1036 1.523 . S
C1036 C1017 1.368 . S
C1036 C1030 1.368 . S
C1036 C1035 1.523 . S
C1037 C1021 1.429 . S
C1037 C1033 1.429 . S
C1037 C1038 1.523 . S
C1038 C1022 1.368 . S
C1038 C1034 1.368 . S
C1038 C1037 1.523 . S
H1039 C1014 0.950 . S
H1040 C1016 0.950 . S
H1041 C1017 0.949 . S
H1042 C1019 0.950 . S
H1043 C1021 0.950 . S
C1044 C1045 1.349 . S
C1044 C1046 1.327 . S
C1044 H1069 0.950 . S
C1045 C1044 1.349 . S
C1045 C1061 1.349 . S
C1046 C1044 1.327 . S
C1046 C1065 1.429 . S
C1046 H1070 0.950 . S
C1047 C1064 1.574 1_554 S
C1047 C1066 1.368 . S
C1047 H1071 0.949 . S
H1048 C1052 0.949 . S
C1049 C1050 1.349 . S
C1049 C1051 1.327 . S
C1049 H1072 0.950 . S
C1050 C1049 1.349 . S
C1050 C1062 1.349 . S
C1051 C1049 1.327 . S
C1051 C1067 1.429 . S
C1051 H1073 0.950 . S
C1052 H1048 0.949 . S
C1052 C1060 1.574 1_556 S
C1052 C1068 1.368 . S
H1053 C1061 0.950 . S
H1054 C1059 0.950 . S
H1055 C1060 0.949 . S
H1056 C1062 0.950 . S
H1057 C1063 0.950 . S
H1058 C1064 0.949 . S
C1059 H1054 0.950 . S
C1059 C1061 1.327 . S
C1059 C1065 1.429 . S
C1060 C1052 1.574 1_554 S
C1060 H1055 0.949 . S
C1060 C1066 1.368 . S
C1061 C1045 1.349 . S
C1061 H1053 0.950 . S
C1061 C1059 1.327 . S
C1062 C1050 1.349 . S
C1062 H1056 0.950 . S
C1062 C1063 1.327 . S
C1063 H1057 0.950 . S
C1063 C1062 1.327 . S
C1063 C1067 1.429 . S
C1064 C1047 1.574 1_556 S
C1064 H1058 0.949 . S
C1064 C1068 1.368 . S
C1065 C1046 1.429 . S
C1065 C1059 1.429 . S
C1065 C1066 1.523 . S
C1066 C1047 1.368 . S
C1066 C1060 1.368 . S
C1066 C1065 1.523 . S
C1067 C1051 1.429 . S
C1067 C1063 1.429 . S
C1067 C1068 1.523 . S
C1068 C1052 1.368 . S
C1068 C1064 1.368 . S
C1068 C1067 1.523 . S
H1069 C1044 0.950 . S
H1070 C1046 0.950 . S
H1071 C1047 0.949 . S
H1072 C1049 0.950 . S
H1073 C1051 0.950 . S
C1074 C1075 1.349 1_565 S
C1074 C1076 1.327 . S
C1074 H1099 0.950 . S
C1075 C1074 1.349 1_545 S
C1075 C1091 1.349 . S
C1076 C1074 1.327 . S
C1076 C1095 1.429 1_565 S
C1076 H1100 0.950 . S
C1077 C1094 1.574 1_556 S
C1077 C1096 1.368 . S
C1077 H1101 0.949 . S
H1078 C1082 0.949 . S
C1079 C1080 1.349 . S
C1079 C1081 1.327 . S
C1079 H1102 0.950 . S
C1080 C1079 1.349 . S
C1080 C1092 1.349 1_545 S
C1081 C1079 1.327 . S
C1081 C1097 1.429 . S
C1081 H1103 0.950 . S
C1082 H1078 0.949 . S
C1082 C1090 1.574 1_554 S
C1082 C1098 1.368 1_565 S
H1083 C1091 0.950 . S
H1084 C1089 0.950 . S
H1085 C1090 0.949 . S
H1086 C1092 0.950 . S
H1087 C1093 0.950 . S
H1088 C1094 0.949 . S
C1089 H1084 0.950 . S
C1089 C1091 1.327 . S
C1089 C1095 1.429 . S
C1090 C1082 1.574 1_556 S
C1090 H1085 0.949 . S
C1090 C1096 1.368 1_565 S
C1091 C1075 1.349 . S
C1091 H1083 0.950 . S
C1091 C1089 1.327 . S
C1092 C1080 1.349 1_565 S
C1092 H1086 0.950 . S
C1092 C1093 1.327 . S
C1093 H1087 0.950 . S
C1093 C1092 1.327 . S
C1093 C1097 1.429 1_565 S
C1094 C1077 1.574 1_554 S
C1094 H1088 0.949 . S
C1094 C1098 1.368 . S
C1095 C1076 1.429 1_545 S
C1095 C1089 1.429 . S
C1095 C1096 1.523 . S
C1096 C1077 1.368 . S
C1096 C1090 1.368 1_545 S
C1096 C1095 1.523 . S
C1097 C1081 1.429 . S
C1097 C1093 1.429 1_545 S
C1097 C1098 1.523 . S
C1098 C1082 1.368 1_545 S
C1098 C1094 1.368 . S
C1098 C1097 1.523 . S
H1099 C1074 0.950 . S
H1100 C1076 0.950 . S
H1101 C1077 0.949 . S
H1102 C1079 0.950 . S
H1103 C1081 0.950 . S
C1104 C1105 1.349 . S
C1104 C1106 1.327 . S
C1104 H1129 0.950 . S
C1105 C1104 1.349 . S
C1105 C1121 1.334 1_455 S
C1106 C1104 1.327 . S
C1106 C1125 1.429 . S
C1106 H1130 0.950 . S
C1107 C1124 1.574 1_556 S
C1107 C1126 1.368 . S
C1107 H1131 0.936 1_455 S
H1108 C1112 0.949 . S
C1109 C1110 1.349 . S
C1109 C1111 1.327 . S
C1109 H1132 0.950 . S
C1110 C1109 1.349 . S
C1110 C1122 1.349 . S
C1111 C1109 1.327 . S
C1111 C1127 1.429 . S
C1111 H1133 0.950 . S
C1112 H1108 0.949 . S
C1112 C1120 1.574 1_554 S
C1112 C1128 1.368 . S
H1113 C1121 0.966 . S
H1114 C1119 0.952 1_655 S
H1115 C1120 0.949 . S
H1116 C1122 0.950 . S
H1117 C1123 0.950 . S
H1118 C1124 0.971 . S
C1119 H1114 0.952 1_455 S
C1119 C1121 1.327 1_455 S
C1119 C1125 1.426 . S
C1120 C1112 1.574 1_556 S
C1120 H1115 0.949 . S
C1120 C1126 1.368 . S
C1121 C1105 1.334 1_655 S
C1121 H1113 0.966 . S
C1121 C1119 1.327 1_655 S
C1122 C1110 1.349 . S
C1122 H1116 0.950 . S
C1122 C1123 1.327 . S
C1123 H1117 0.950 . S
C1123 C1122 1.327 . S
C1123 C1127 1.429 . S
C1124 C1107 1.574 1_554 S
C1124 H1118 0.971 . S
C1124 C1128 1.368 . S
C1125 C1106 1.429 . S
C1125 C1119 1.426 . S
C1125 C1126 1.523 . S
C1126 C1107 1.368 . S
C1126 C1120 1.368 . S
C1126 C1125 1.523 . S
C1127 C1111 1.429 . S
C1127 C1123 1.429 . S
C1127 C1128 1.523 . S
C1128 C1112 1.368 . S
C1128 C1124 1.368 . S
C1128 C1127 1.523 . S
H1129 C1104 0.950 . S
H1130 C1106 0.950 . S
H1131 C1107 0.936 1_655 S
H1132 C1109 0.950 . S
H1133 C1111 0.950 . S
C1134 C1135 1.349 . S
C1134 C1136 1.327 . S
C1134 H1159 0.950 . S
C1135 C1134 1.349 . S
C1135 C1151 1.349 . S
C1136 C1134 1.327 . S
C1136 C1155 1.429 . S
C1136 H1160 0.950 . S
C1137 C1154 1.574 . S
C1137 C1156 1.368 . S
C1137 H1161 0.949 . S
H1138 C1142 0.949 . S
C1139 C1140 1.349 . S
C1139 C1141 1.327 . S
C1139 H1162 0.950 . S
C1140 C1139 1.349 . S
C1140 C1152 1.349 . S
C1141 C1139 1.327 . S
C1141 C1157 1.429 . S
C1141 H1163 0.950 . S
C1142 H1138 0.949 . S
C1142 C1150 1.574 . S
C1142 C1158 1.368 . S
H1143 C1151 0.950 . S
H1144 C1149 0.950 . S
H1145 C1150 0.949 . S
H1146 C1152 0.950 . S
H1147 C1153 0.950 . S
H1148 C1154 0.949 . S
C1149 H1144 0.950 . S
C1149 C1151 1.327 . S
C1149 C1155 1.429 . S
C1150 C1142 1.574 . S
C1150 H1145 0.949 . S
C1150 C1156 1.368 . S
C1151 C1135 1.349 . S
C1151 H1143 0.950 . S
C1151 C1149 1.327 . S
C1152 C1140 1.349 . S
C1152 H1146 0.950 . S
C1152 C1153 1.327 . S
C1153 H1147 0.950 . S
C1153 C1152 1.327 . S
C1153 C1157 1.429 . S
C1154 C1137 1.574 . S
C1154 H1148 0.949 . S
C1154 C1158 1.368 . S
C1155 C1136 1.429 . S
C1155 C1149 1.429 . S
C1155 C1156 1.523 . S
C1156 C1137 1.368 . S
C1156 C1150 1.368 . S
C1156 C1155 1.523 . S
C1157 C1141 1.429 . S
C1157 C1153 1.429 . S
C1157 C1158 1.523 . S
C1158 C1142 1.368 . S
C1158 C1154 1.368 . S
C1158 C1157 1.523 . S
H1159 C1134 0.950 . S
H1160 C1136 0.950 . S
H1161 C1137 0.949 . S
H1162 C1139 0.950 . S
H1163 C1141 0.950 . S
C1164 C1165 1.349 . S
C1164 C1166 1.327 . S
C1164 H1189 0.950 . S
C1165 C1164 1.349 . S
C1165 C1181 1.349 . S
C1166 C1164 1.327 . S
C1166 C1185 1.429 . S
C1166 H1190 0.950 . S
C1167 C1184 1.574 . S
C1167 C1186 1.368 . S
C1167 H1191 0.949 . S
H1168 C1172 0.949 . S
C1169 C1170 1.349 . S
C1169 C1171 1.327 . S
C1169 H1192 0.950 . S
C1170 C1169 1.349 . S
C1170 C1182 1.349 . S
C1171 C1169 1.327 . S
C1171 C1187 1.429 . S
C1171 H1193 0.950 . S
C1172 H1168 0.949 . S
C1172 C1180 1.574 . S
C1172 C1188 1.368 . S
H1173 C1181 0.950 . S
H1174 C1179 0.950 . S
H1175 C1180 0.949 . S
H1176 C1182 0.950 . S
H1177 C1183 0.950 . S
H1178 C1184 0.949 . S
C1179 H1174 0.950 . S
C1179 C1181 1.327 . S
C1179 C1185 1.429 . S
C1180 C1172 1.574 . S
C1180 H1175 0.949 . S
C1180 C1186 1.368 . S
C1181 C1165 1.349 . S
C1181 H1173 0.950 . S
C1181 C1179 1.327 . S
C1182 C1170 1.349 . S
C1182 H1176 0.950 . S
C1182 C1183 1.327 . S
C1183 H1177 0.950 . S
C1183 C1182 1.327 . S
C1183 C1187 1.429 . S
C1184 C1167 1.574 . S
C1184 H1178 0.949 . S
C1184 C1188 1.368 . S
C1185 C1166 1.429 . S
C1185 C1179 1.429 . S
C1185 C1186 1.523 . S
C1186 C1167 1.368 . S
C1186 C1180 1.368 . S
C1186 C1185 1.523 . S
C1187 C1171 1.429 . S
C1187 C1183 1.429 . S
C1187 C1188 1.523 . S
C1188 C1172 1.368 . S
C1188 C1184 1.368 . S
C1188 C1187 1.523 . S
H1189 C1164 0.950 . S
H1190 C1166 0.950 . S
H1191 C1167 0.949 . S
H1192 C1169 0.950 . S
H1193 C1171 0.950 . S
C1194 C1195 1.349 . S
C1194 C1196 1.327 . S
C1194 H1219 0.950 . S
C1195 C1194 1.349 . S
C1195 C1211 1.349 . S
C1196 C1194 1.327 . S
C1196 C1215 1.429 . S
C1196 H1220 0.950 . S
C1197 C1214 1.574 . S
C1197 C1216 1.368 . S
C1197 H1221 0.949 . S
H1198 C1202 0.949 . S
C1199 C1200 1.349 . S
C1199 C1201 1.327 . S
C1199 H1222 0.950 . S
C1200 C1199 1.349 . S
C1200 C1212 1.349 . S
C1201 C1199 1.327 . S
C1201 C1217 1.429 . S
C1201 H1223 0.950 . S
C1202 H1198 0.949 . S
C1202 C1210 1.574 . S
C1202 C1218 1.368 . S
H1203 C1211 0.950 . S
H1204 C1209 0.950 . S
H1205 C1210 0.949 . S
H1206 C1212 0.950 . S
H1207 C1213 0.950 . S
H1208 C1214 0.949 . S
C1209 H1204 0.950 . S
C1209 C1211 1.327 . S
C1209 C1215 1.429 . S
C1210 C1202 1.574 . S
C1210 H1205 0.949 . S
C1210 C1216 1.368 . S
C1211 C1195 1.349 . S
C1211 H1203 0.950 . S
C1211 C1209 1.327 . S
C1212 C1200 1.349 . S
C1212 H1206 0.950 . S
C1212 C1213 1.327 . S
C1213 H1207 0.950 . S
C1213 C1212 1.327 . S
C1213 C1217 1.429 . S
C1214 C1197 1.574 . S
C1214 H1208 0.949 . S
C1214 C1218 1.368 . S
C1215 C1196 1.429 . S
C1215 C1209 1.429 . S
C1215 C1216 1.523 . S
C1216 C1197 1.368 . S
C1216 C1210 1.368 . S
C1216 C1215 1.523 . S
C1217 C1201 1.429 . S
C1217 C1213 1.429 . S
C1217 C1218 1.523 . S
C1218 C1202 1.368 . S
C1218 C1214 1.368 . S
C1218 C1217 1.523 . S
H1219 C1194 0.950 . S
H1220 C1196 0.950 . S
H1221 C1197 0.949 . S
H1222 C1199 0.950 . S
H1223 C1201 0.950 . S
C1224 C1225 1.349 . S
C1224 C1226 1.327 . S
C1224 H1249 0.950 . S
C1225 C1224 1.349 . S
C1225 C1241 1.349 . S
C1226 C1224 1.327 . S
C1226 C1245 1.429 . S
C1226 H1250 0.950 . S
C1227 C1244 1.574 . S
C1227 C1246 1.368 . S
C1227 H1251 0.949 . S
H1228 C1232 0.949 . S
C1229 C1230 1.349 . S
C1229 C1231 1.327 . S
C1229 H1252 0.950 . S
C1230 C1229 1.349 . S
C1230 C1242 1.349 . S
C1231 C1229 1.327 . S
C1231 C1247 1.429 . S
C1231 H1253 0.950 . S
C1232 H1228 0.949 . S
C1232 C1240 1.574 . S
C1232 C1248 1.368 . S
H1233 C1241 0.950 . S
H1234 C1239 0.950 . S
H1235 C1240 0.949 . S
H1236 C1242 0.950 . S
H1237 C1243 0.950 . S
H1238 C1244 0.949 . S
C1239 H1234 0.950 . S
C1239 C1241 1.327 . S
C1239 C1245 1.429 . S
C1240 C1232 1.574 . S
C1240 H1235 0.949 . S
C1240 C1246 1.368 . S
C1241 C1225 1.349 . S
C1241 H1233 0.950 . S
C1241 C1239 1.327 . S
C1242 C1230 1.349 . S
C1242 H1236 0.950 . S
C1242 C1243 1.327 . S
C1243 H1237 0.950 . S
C1243 C1242 1.327 . S
C1243 C1247 1.429 . S
C1244 C1227 1.574 . S
C1244 H1238 0.949 . S
C1244 C1248 1.368 . S
C1245 C1226 1.429 . S
C1245 C1239 1.429 . S
C1245 C1246 1.523 . S
C1246 C1227 1.368 . S
C1246 C1240 1.368 . S
C1246 C1245 1.523 . S
C1247 C1231 1.429 . S
C1247 C1243 1.429 . S
C1247 C1248 1.523 . S
C1248 C1232 1.368 . S
C1248 C1244 1.368 . S
C1248 C1247 1.523 . S
H1249 C1224 0.950 . S
H1250 C1226 0.950 . S
H1251 C1227 0.949 . S
H1252 C1229 0.950 . S
H1253 C1231 0.950 . S
C1254 C1255 1.349 . S
C1254 C1256 1.327 . S
C1254 H1279 0.950 . S
C1255 C1254 1.349 . S
C1255 C1271 1.349 . S
C1256 C1254 1.327 . S
C1256 C1275 1.429 . S
C1256 H1280 0.950 . S
C1257 C1274 1.574 . S
C1257 C1276 1.368 . S
C1257 H1281 0.949 . S
H1258 C1262 0.949 . S
C1259 C1260 1.349 . S
C1259 C1261 1.327 . S
C1259 H1282 0.950 . S
C1260 C1259 1.349 . S
C1260 C1272 1.349 . S
C1261 C1259 1.327 . S
C1261 C1277 1.429 . S
C1261 H1283 0.950 . S
C1262 H1258 0.949 . S
C1262 C1270 1.574 . S
C1262 C1278 1.368 . S
H1263 C1271 0.950 . S
H1264 C1269 0.950 . S
H1265 C1270 0.949 . S
H1266 C1272 0.950 . S
H1267 C1273 0.950 . S
H1268 C1274 0.949 . S
C1269 H1264 0.950 . S
C1269 C1271 1.327 . S
C1269 C1275 1.429 . S
C1270 C1262 1.574 . S
C1270 H1265 0.949 . S
C1270 C1276 1.368 . S
C1271 C1255 1.349 . S
C1271 H1263 0.950 . S
C1271 C1269 1.327 . S
C1272 C1260 1.349 . S
C1272 H1266 0.950 . S
C1272 C1273 1.327 . S
C1273 H1267 0.950 . S
C1273 C1272 1.327 . S
C1273 C1277 1.429 . S
C1274 C1257 1.574 . S
C1274 H1268 0.949 . S
C1274 C1278 1.368 . S
C1275 C1256 1.429 . S
C1275 C1269 1.429 . S
C1275 C1276 1.523 . S
C1276 C1257 1.368 . S
C1276 C1270 1.368 . S
C1276 C1275 1.523 . S
C1277 C1261 1.429 . S
C1277 C1273 1.429 . S
C1277 C1278 1.523 . S
C1278 C1262 1.368 . S
C1278 C1274 1.368 . S
C1278 C1277 1.523 . S
H1279 C1254 0.950 . S
H1280 C1256 0.950 . S
H1281 C1257 0.949 . S
H1282 C1259 0.950 . S
H1283 C1261 0.950 . S
C1284 C1285 1.349 . S
C1284 C1286 1.327 . S
C1284 H1309 0.950 . S
C1285 C1284 1.349 . S
C1285 C1301 1.349 . S
C1286 C1284 1.327 . S
C1286 C1305 1.429 . S
C1286 H1310 0.950 . S
C1287 C1304 1.574 . S
C1287 C1306 1.368 . S
C1287 H1311 0.949 . S
H1288 C1292 0.949 . S
C1289 C1290 1.349 . S
C1289 C1291 1.327 . S
C1289 H1312 0.950 . S
C1290 C1289 1.349 . S
C1290 C1302 1.349 . S
C1291 C1289 1.327 . S
C1291 C1307 1.429 . S
C1291 H1313 0.950 . S
C1292 H1288 0.949 . S
C1292 C1300 1.574 . S
C1292 C1308 1.368 . S
H1293 C1301 0.950 . S
H1294 C1299 0.950 . S
H1295 C1300 0.949 . S
H1296 C1302 0.950 . S
H1297 C1303 0.950 . S
H1298 C1304 0.949 . S
C1299 H1294 0.950 . S
C1299 C1301 1.327 . S
C1299 C1305 1.429 . S
C1300 C1292 1.574 . S
C1300 H1295 0.949 . S
C1300 C1306 1.368 . S
C1301 C1285 1.349 . S
C1301 H1293 0.950 . S
C1301 C1299 1.327 . S
C1302 C1290 1.349 . S
C1302 H1296 0.950 . S
C1302 C1303 1.327 . S
C1303 H1297 0.950 . S
C1303 C1302 1.327 . S
C1303 C1307 1.429 . S
C1304 C1287 1.574 . S
C1304 H1298 0.949 . S
C1304 C1308 1.368 . S
C1305 C1286 1.429 . S
C1305 C1299 1.429 . S
C1305 C1306 1.523 . S
C1306 C1287 1.368 . S
C1306 C1300 1.368 . S
C1306 C1305 1.523 . S
C1307 C1291 1.429 . S
C1307 C1303 1.429 . S
C1307 C1308 1.523 . S
C1308 C1292 1.368 . S
C1308 C1304 1.368 . S
C1308 C1307 1.523 . S
H1309 C1284 0.950 . S
H1310 C1286 0.950 . S
H1311 C1287 0.949 . S
H1312 C1289 0.950 . S
H1313 C1291 0.950 . S
C235 C134 1.163 . S
C240 C10 1.163 . S
C265 C23 1.162 . S
C270 C147 1.162 . S
C295 C121 1.162 . S
C300 C30 1.162 . S
C325 C192 1.162 . S
C330 C49 1.162 . S
C355 C56 1.162 . S
C360 C166 1.162 . S
C385 C179 1.162 . S
C390 C69 1.162 . S
C415 C88 1.163 . S
C420 C212 1.163 . S
C445 C225 1.163 . S
C450 C101 1.163 . S
C475 C114 1.163 . S
C480 C205 1.163 . S
C505 C3 1.095 . S
C510 C18 1.105 . S
C535 C16 1.095 . S
C540 C29 1.105 . S
C565 C5 1.105 . S
C570 C31 1.095 . S
C595 C68 1.105 . S
C600 C42 1.095 . S
C625 C44 1.105 . S
C630 C57 1.095 . S
C655 C70 1.095 . S
C660 C55 1.105 . S
C685 C81 1.095 . S
C690 C96 1.105 . S
C715 C94 1.095 . S
C720 C109 1.105 . S
C745 C83 1.105 . S
C750 C107 1.095 . S
C775 C146 1.105 . S
C780 C122 1.095 . S
C805 C120 1.104 . S
C810 C135 1.094 . S
C835 C133 1.105 . S
C840 C148 1.095 . S
C865 C174 1.105 . S
C870 C159 1.095 . S
C895 C187 1.105 . S
C900 C172 1.095 . S
C925 C161 1.104 . S
C930 C185 1.094 . S
C955 C198 1.095 . S
C960 C224 1.105 . S
C985 C213 1.095 . S
C990 C200 1.105 . S
C1015 C226 1.095 . S
C1020 C211 1.105 . S
C1045 C4 1.720 . S
C1050 C43 1.720 . S
C1075 C62 1.720 . S
C1080 C17 1.720 . S
C1105 C75 1.720 . S
C1110 C36 1.720 . S
C1135 C127 1.720 . S
C1140 C82 1.720 . S
C1165 C140 1.720 . S
C1170 C95 1.720 . S
C1195 C108 1.720 . S
C1200 C153 1.720 . S
C1225 C199 1.720 . S
C1230 C160 1.720 . S
C1255 C218 1.720 . S
C1260 C173 1.720 . S
C1285 C231 1.720 . S
C1290 C186 1.720 . S
