# Generated by pormake.
# Topology wmt, (6)-cn, num edge types: 1
# Building blocks:
#     Node 0, Type 0, BuildingBlock: CUKXOW_clean_sbu_0, # of connection points: 6
#     Node 1, Type 0, BuildingBlock: CUKXOW_clean_sbu_0, # of connection points: 6
#     Node 2, Type 0, BuildingBlock: CUKXOW_clean_sbu_0, # of connection points: 6
#     Node 3, Type 0, BuildingBlock: CUKXOW_clean_sbu_0, # of connection points: 6
#     Node 4, Type 0, BuildingBlock: CUKXOW_clean_sbu_0, # of connection points: 6
#     Node 5, Type 0, BuildingBlock: CUKXOW_clean_sbu_0, # of connection points: 6
#     Node 6, Type 0, BuildingBlock: CUKXOW_clean_sbu_0, # of connection points: 6
#     Node 7, Type 0, BuildingBlock: CUKXOW_clean_sbu_0, # of connection points: 6
#     Node 8, Type 0, BuildingBlock: CUKXOW_clean_sbu_0, # of connection points: 6
#     Node 9, Type 0, BuildingBlock: CUKXOW_clean_sbu_0, # of connection points: 6
#     Node 10, Type 0, BuildingBlock: CUKXOW_clean_sbu_0, # of connection points: 6
#     Node 11, Type 0, BuildingBlock: CUKXOW_clean_sbu_0, # of connection points: 6
#     Node 12, Type 0, BuildingBlock: CUKXOW_clean_sbu_0, # of connection points: 6
#     Node 13, Type 0, BuildingBlock: CUKXOW_clean_sbu_0, # of connection points: 6
#     Node 14, Type 0, BuildingBlock: CUKXOW_clean_sbu_0, # of connection points: 6
#     Node 15, Type 0, BuildingBlock: CUKXOW_clean_sbu_0, # of connection points: 6
#     Node 16, Type 0, BuildingBlock: CUKXOW_clean_sbu_0, # of connection points: 6
#     Node 17, Type 0, BuildingBlock: CUKXOW_clean_sbu_0, # of connection points: 6
#     Node 18, Type 0, BuildingBlock: CUKXOW_clean_sbu_0, # of connection points: 6
#     Node 19, Type 0, BuildingBlock: CUKXOW_clean_sbu_0, # of connection points: 6
#     Node 20, Type 0, BuildingBlock: CUKXOW_clean_sbu_0, # of connection points: 6
#     Node 21, Type 0, BuildingBlock: CUKXOW_clean_sbu_0, # of connection points: 6
#     Node 22, Type 0, BuildingBlock: CUKXOW_clean_sbu_0, # of connection points: 6
#     Node 23, Type 0, BuildingBlock: CUKXOW_clean_sbu_0, # of connection points: 6
#     Node 24, Type 0, BuildingBlock: CUKXOW_clean_sbu_0, # of connection points: 6
#     Node 25, Type 0, BuildingBlock: CUKXOW_clean_sbu_0, # of connection points: 6
#     Node 26, Type 0, BuildingBlock: CUKXOW_clean_sbu_0, # of connection points: 6
#     Node 27, Type 0, BuildingBlock: CUKXOW_clean_sbu_0, # of connection points: 6
#     Node 28, Type 0, BuildingBlock: CUKXOW_clean_sbu_0, # of connection points: 6
#     Node 29, Type 0, BuildingBlock: CUKXOW_clean_sbu_0, # of connection points: 6
#     Node 30, Type 0, BuildingBlock: CUKXOW_clean_sbu_0, # of connection points: 6
#     Node 31, Type 0, BuildingBlock: CUKXOW_clean_sbu_0, # of connection points: 6
#     Node 32, Type 0, BuildingBlock: CUKXOW_clean_sbu_0, # of connection points: 6
#     Node 33, Type 0, BuildingBlock: CUKXOW_clean_sbu_0, # of connection points: 6
#     Node 34, Type 0, BuildingBlock: CUKXOW_clean_sbu_0, # of connection points: 6
#     Node 35, Type 0, BuildingBlock: CUKXOW_clean_sbu_0, # of connection points: 6
#     Edge 36, Type (0, 0), None
#     Edge 37, Type (0, 0), None
#     Edge 38, Type (0, 0), None
#     Edge 39, Type (0, 0), None
#     Edge 40, Type (0, 0), None
#     Edge 41, Type (0, 0), None
#     Edge 42, Type (0, 0), None
#     Edge 43, Type (0, 0), None
#     Edge 44, Type (0, 0), None
#     Edge 45, Type (0, 0), None
#     Edge 46, Type (0, 0), None
#     Edge 47, Type (0, 0), None
#     Edge 48, Type (0, 0), None
#     Edge 49, Type (0, 0), None
#     Edge 50, Type (0, 0), None
#     Edge 51, Type (0, 0), None
#     Edge 52, Type (0, 0), None
#     Edge 53, Type (0, 0), None
#     Edge 54, Type (0, 0), None
#     Edge 55, Type (0, 0), None
#     Edge 56, Type (0, 0), None
#     Edge 57, Type (0, 0), None
#     Edge 58, Type (0, 0), None
#     Edge 59, Type (0, 0), None
#     Edge 60, Type (0, 0), None
#     Edge 61, Type (0, 0), None
#     Edge 62, Type (0, 0), None
#     Edge 63, Type (0, 0), None
#     Edge 64, Type (0, 0), None
#     Edge 65, Type (0, 0), None
#     Edge 66, Type (0, 0), None
#     Edge 67, Type (0, 0), None
#     Edge 68, Type (0, 0), None
#     Edge 69, Type (0, 0), None
#     Edge 70, Type (0, 0), None
#     Edge 71, Type (0, 0), None
#     Edge 72, Type (0, 0), None
#     Edge 73, Type (0, 0), None
#     Edge 74, Type (0, 0), None
#     Edge 75, Type (0, 0), None
#     Edge 76, Type (0, 0), None
#     Edge 77, Type (0, 0), None
#     Edge 78, Type (0, 0), None
#     Edge 79, Type (0, 0), None
#     Edge 80, Type (0, 0), None
#     Edge 81, Type (0, 0), None
#     Edge 82, Type (0, 0), None
#     Edge 83, Type (0, 0), None
#     Edge 84, Type (0, 0), None
#     Edge 85, Type (0, 0), None
#     Edge 86, Type (0, 0), None
#     Edge 87, Type (0, 0), None
#     Edge 88, Type (0, 0), None
#     Edge 89, Type (0, 0), None
#     Edge 90, Type (0, 0), None
#     Edge 91, Type (0, 0), None
#     Edge 92, Type (0, 0), None
#     Edge 93, Type (0, 0), None
#     Edge 94, Type (0, 0), None
#     Edge 95, Type (0, 0), None
#     Edge 96, Type (0, 0), None
#     Edge 97, Type (0, 0), None
#     Edge 98, Type (0, 0), None
#     Edge 99, Type (0, 0), None
#     Edge 100, Type (0, 0), None
#     Edge 101, Type (0, 0), None
#     Edge 102, Type (0, 0), None
#     Edge 103, Type (0, 0), None
#     Edge 104, Type (0, 0), None
#     Edge 105, Type (0, 0), None
#     Edge 106, Type (0, 0), None
#     Edge 107, Type (0, 0), None
#     Edge 108, Type (0, 0), None
#     Edge 109, Type (0, 0), None
#     Edge 110, Type (0, 0), None
#     Edge 111, Type (0, 0), None
#     Edge 112, Type (0, 0), None
#     Edge 113, Type (0, 0), None
#     Edge 114, Type (0, 0), None
#     Edge 115, Type (0, 0), None
#     Edge 116, Type (0, 0), None
#     Edge 117, Type (0, 0), None
#     Edge 118, Type (0, 0), None
#     Edge 119, Type (0, 0), None
#     Edge 120, Type (0, 0), None
#     Edge 121, Type (0, 0), None
#     Edge 122, Type (0, 0), None
#     Edge 123, Type (0, 0), None
#     Edge 124, Type (0, 0), None
#     Edge 125, Type (0, 0), None
#     Edge 126, Type (0, 0), None
#     Edge 127, Type (0, 0), None
#     Edge 128, Type (0, 0), None
#     Edge 129, Type (0, 0), None
#     Edge 130, Type (0, 0), None
#     Edge 131, Type (0, 0), None
#     Edge 132, Type (0, 0), None
#     Edge 133, Type (0, 0), None
#     Edge 134, Type (0, 0), None
#     Edge 135, Type (0, 0), None
#     Edge 136, Type (0, 0), None
#     Edge 137, Type (0, 0), None
#     Edge 138, Type (0, 0), None
#     Edge 139, Type (0, 0), None
#     Edge 140, Type (0, 0), None
#     Edge 141, Type (0, 0), None
#     Edge 142, Type (0, 0), None
#     Edge 143, Type (0, 0), None
# Relax obj value: 0.169
# Max RMSD: 0.180
# Mean RMSD: 0.180
data_MOF--net-wmt--node1-CUKXOW_clean_sbu_0--edge1-none
_symmetry_space_group_name_H-M    P1
_symmetry_Int_Tables_number       1
_symmetry_cell_setting            triclinic
loop_
_symmetry_equiv_pos_as_xyz
'x, y, z'
_cell_length_a     43.73896
_cell_length_b     43.736993
_cell_length_c     11.800312
_cell_angle_alpha  90.01651
_cell_angle_beta   89.966876
_cell_angle_gamma 119.99809
loop_
_atom_site_label
_atom_site_type_symbol
_atom_site_fract_x
_atom_site_fract_y
_atom_site_fract_z
_atom_type_partial_charge
Tb0 Tb -0.05213 0.3854 0.17678 0.0
C1 C 0.02004 0.40241 1.09037 0.0
Tb2 Tb -0.01864 0.44307 0.99461 0.0
O3 O -0.07334 0.34504 1.03871 0.0
O4 O -0.0669 0.3941 1.01039 0.0
O5 O -0.00124 0.39085 0.17759 0.0
C6 C -0.00433 0.48082 0.80325 0.0
O7 O 0.0148 0.41821 1.0011 0.0
C8 C 0.00072 0.47104 0.1951 0.0
C9 C -0.07913 0.43397 0.15091 0.0
O10 O -0.00446 0.4511 0.81462 0.0
O11 O -0.01223 0.48929 0.89924 0.0
O12 O 0.0062 0.48937 1.10359 0.0
O13 O -0.00911 0.43932 0.1661 0.0
O14 O -0.06901 0.43702 1.04349 0.0
O15 O -0.07053 0.41869 0.22847 0.0
C16 C -0.08318 0.34646 0.36057 0.0
O17 O 0.90075 0.35053 0.27489 0.0
O18 O -0.04951 0.36402 0.34185 0.0
C19 C -0.07705 0.36472 0.96341 0.0
Tb20 Tb 0.46342 0.53226 0.17688 0.0
C21 C 0.44643 0.58743 1.09055 0.0
Tb22 Tb 0.40575 0.50808 0.9948 0.0
O23 O 0.50378 0.5514 1.03875 0.0
O24 O 0.45472 0.50878 1.01046 0.0
O25 O 0.45801 0.57773 0.1777 0.0
C26 C 0.36799 0.48463 0.8035 0.0
O27 O 0.43061 0.56637 1.00133 0.0
C28 C 0.37779 0.49948 0.19536 0.0
C29 C 0.41485 0.45668 0.15091 0.0
O30 O 0.39772 0.51422 0.81486 0.0
O31 O 0.35953 0.46827 0.89947 0.0
O32 O 0.35946 0.48663 1.10389 0.0
O33 O 0.40951 0.52138 0.16631 0.0
O34 O 0.41179 0.46374 1.04355 0.0
O35 O 0.43013 0.48058 0.22851 0.0
C36 C 0.50234 0.54013 0.36059 0.0
O37 O 0.49832 0.52004 0.27477 0.0
O38 O 0.48475 0.5562 0.34205 0.0
C39 C 0.4841 0.52801 0.96344 0.0
Tb40 Tb 0.31657 0.90091 0.17712 0.0
C41 C 0.26142 0.82879 1.09047 0.0
Tb42 Tb 0.34078 0.86747 0.99482 0.0
O43 O 0.29742 0.92214 1.03916 0.0
O44 O 0.34005 0.91572 1.0107 0.0
O45 O 0.2711 0.85004 0.17773 0.0
C46 C 0.36425 0.85319 0.80339 0.0
O47 O 0.28249 0.83404 1.00125 0.0
C48 C 0.34938 0.84809 0.19527 0.0
C49 C 0.39216 0.92796 0.15093 0.0
O50 O 0.33465 0.85331 0.81485 0.0
O51 O 0.38061 0.86109 0.89933 0.0
O52 O 0.36225 0.84264 1.10373 0.0
O53 O 0.32747 0.85789 0.16634 0.0
O54 O 0.38509 0.91786 1.04359 0.0
O55 O 0.36826 0.91934 0.22861 0.0
C56 C 0.30863 0.93188 0.36107 0.0
O57 O 0.32867 -0.052 0.27519 0.0
O58 O 0.29264 0.89821 0.34245 0.0
C59 C 0.32082 0.92587 0.96379 0.0
Tb60 Tb 0.35531 -0.0217 0.65737 0.0
C61 C 0.3722 0.05038 0.74381 0.0
Tb62 Tb 0.41293 0.01177 0.83951 0.0
O63 O 0.31493 -0.04286 0.79545 0.0
O64 O 0.36398 -0.03652 0.82377 0.0
O65 O 0.36087 0.02923 0.6563 0.0
C66 C 0.4507 0.02605 1.03078 0.0
O67 O 0.38791 0.04507 0.8332 0.0
C68 C 0.44093 0.03118 0.63898 0.0
C69 C 0.40387 -0.04869 0.68325 0.0
O70 O 0.42102 0.02601 1.01944 0.0
O71 O 0.45911 0.01809 0.93482 0.0
O72 O 0.45924 0.03665 0.73048 0.0
O73 O 0.40921 0.02134 0.66802 0.0
O74 O 0.40687 -0.03861 0.79066 0.0
O75 O 0.38863 -0.04005 0.60565 0.0
C76 C 0.31641 -0.0528 0.47377 0.0
O77 O 0.32059 0.93114 0.55925 0.0
O78 O 0.33378 -0.01913 0.49255 0.0
C79 C 0.33457 -0.04668 0.87062 0.0
Tb80 Tb 0.87049 0.34679 0.65714 0.0
C81 C 0.79844 0.29162 0.74385 0.0
Tb82 Tb 0.83707 0.37097 0.83949 0.0
O83 O 0.89166 0.32756 0.79506 0.0
O84 O 0.88534 0.37028 0.82355 0.0
O85 O 0.81957 0.30141 0.65627 0.0
C86 C 0.82282 0.39449 1.03088 0.0
O87 O 0.80375 0.31265 0.83323 0.0
C88 C 0.81766 0.37958 0.63907 0.0
C89 C 0.89754 0.42235 0.68323 0.0
O90 O 0.82285 0.36485 1.01944 0.0
O91 O 0.83079 0.41086 0.93495 0.0
O92 O 0.81221 0.39244 0.73063 0.0
O93 O 0.82747 0.35767 0.66799 0.0
O94 O 0.88746 0.41527 0.79063 0.0
O95 O 0.88888 0.39847 0.60556 0.0
C96 C 0.90151 0.33892 0.47331 0.0
O97 O -0.08239 0.35911 0.55886 0.0
O98 O 0.86785 0.3227 0.49216 0.0
C99 C 0.8955 0.35102 0.87028 0.0
Tb100 Tb 0.50205 0.49348 0.65703 0.0
C101 C 0.55722 0.47662 0.74371 0.0
Tb102 Tb 0.47785 0.43588 0.83929 0.0
O103 O 0.52126 0.53388 0.795 0.0
O104 O 0.47854 0.48484 0.82346 0.0
O105 O 0.54745 0.48799 0.65618 0.0
C106 C 0.45434 0.39811 1.03065 0.0
O107 O 0.53617 0.46088 0.83304 0.0
C108 C 0.46927 0.40786 0.63881 0.0
C109 C 0.42647 0.44496 0.68323 0.0
O110 O 0.48398 0.42779 1.01921 0.0
O111 O 0.43797 0.3897 0.93473 0.0
O112 O 0.45641 0.38956 0.73035 0.0
O113 O 0.49118 0.43958 0.66778 0.0
O114 O 0.43355 0.44196 0.79057 0.0
O115 O 0.45037 0.46019 0.60551 0.0
C116 C 0.5099 0.53235 0.47325 0.0
O117 O 0.48976 0.52832 0.55896 0.0
O118 O 0.52607 0.51485 0.49191 0.0
C119 C 0.49779 0.51425 0.87022 0.0
Tb120 Tb 0.83728 0.43612 0.3394 0.0
C121 C 0.89774 0.44524 0.18305 0.0
Tb122 Tb 0.87059 0.49361 0.15738 0.0
O123 O 0.81281 0.38976 0.23118 0.0
O124 O 0.82735 0.43968 0.16756 0.0
O125 O 0.88772 0.44231 0.29052 0.0
C126 C 0.90171 0.53265 0.97369 0.0
O127 O 0.88901 0.46038 1.10543 0.0
C128 C 0.8955 0.51434 0.37089 0.0
C129 C 0.7985 0.47671 0.24377 0.0
O130 O -0.08227 0.52846 1.05925 0.0
O131 O 0.86804 0.51516 0.9925 0.0
O132 O 0.89169 0.53397 0.29566 0.0
O133 O 0.88547 0.48505 0.3235 0.0
O134 O 0.81972 0.48818 0.15641 0.0
O135 O 0.80379 0.46094 0.33304 0.0
C136 C 0.82295 0.39821 0.53064 0.0
O137 O 0.82295 0.42787 0.51936 0.0
O138 O 0.83097 0.38989 0.43464 0.0
C139 C 0.818 0.40797 0.13964 0.0
Tb140 Tb 0.41274 0.37097 0.33922 0.0
C141 C 0.4036 0.4223 0.18305 0.0
Tb142 Tb 0.35524 0.34675 0.15729 0.0
O143 O 0.45908 0.39284 0.23091 0.0
O144 O 0.40917 0.35745 0.16737 0.0
O145 O 0.40653 0.41521 0.29047 0.0
C146 C 0.31622 0.33885 0.97364 0.0
O147 O 0.38846 0.39841 1.10539 0.0
C148 C 0.33451 0.35096 0.37085 0.0
C149 C 0.37213 0.29157 0.24366 0.0
O150 O 0.32034 0.359 1.05937 0.0
O151 O 0.33377 0.32273 0.99225 0.0
O152 O 0.31488 0.32751 0.29562 0.0
O153 O 0.3638 0.37022 0.32342 0.0
O154 O 0.36062 0.30128 0.15638 0.0
O155 O 0.38793 0.31265 0.33286 0.0
C156 C 0.45064 0.39453 0.53041 0.0
O157 O 0.42097 0.36488 0.51913 0.0
O158 O 0.45897 0.41088 0.43443 0.0
C159 C 0.44088 0.37981 0.13939 0.0
Tb160 Tb 0.47785 0.01157 0.33922 0.0
C161 C 0.42653 -0.04889 0.18305 0.0
Tb162 Tb 0.50209 -0.02167 0.15706 0.0
O163 O 0.45597 0.03605 0.23107 0.0
O164 O 0.49138 0.02155 0.16736 0.0
O165 O 0.43363 -0.03888 0.29046 0.0
C166 C 0.51006 -0.05272 0.97322 0.0
O167 O 0.45042 -0.04013 1.10531 0.0
C168 C 0.49789 -0.04663 0.37052 0.0
C169 C 0.55726 0.05036 0.24372 0.0
O170 O 0.48992 0.93121 1.05896 0.0
O171 O 0.52612 -0.01905 0.99193 0.0
O172 O 0.52134 -0.0428 0.29523 0.0
O173 O 0.47862 -0.03661 0.32321 0.0
O174 O 0.54754 0.02918 0.1563 0.0
O175 O 0.53616 0.04505 0.33294 0.0
C176 C 0.45427 0.02589 0.53052 0.0
O177 O 0.48394 0.02591 0.51914 0.0
O178 O 0.43791 0.01784 0.43459 0.0
C179 C 0.46901 0.03089 0.13949 0.0
Tb180 Tb 0.40588 0.86764 0.49487 0.0
C181 C 0.41505 0.92812 0.65117 0.0
Tb182 Tb 0.46335 0.90088 0.67682 0.0
O183 O 0.35952 0.84321 0.6031 0.0
O184 O 0.40941 0.85766 0.66668 0.0
O185 O 0.41214 0.91811 0.54371 0.0
C186 C 0.50231 0.93197 0.86046 0.0
O187 O 0.43014 0.91932 0.72882 0.0
C188 C 0.48412 0.92586 0.46346 0.0
C189 C 0.4464 0.82879 0.59047 0.0
O190 O 0.49813 -0.05197 0.77496 0.0
O191 O 0.48492 0.89831 0.84162 0.0
O192 O 0.50372 0.92194 0.53851 0.0
O193 O 0.45482 0.91583 0.51075 0.0
O194 O 0.45783 0.84997 0.67788 0.0
O195 O 0.43069 0.83413 0.50117 0.0
C196 C 0.368 0.85336 0.30368 0.0
O197 O 0.39764 0.85333 0.31493 0.0
O198 O 0.35968 0.86138 0.39968 0.0
C199 C 0.37771 0.84835 0.69463 0.0
Tb200 Tb -0.01879 0.50801 0.49486 0.0
C201 C -0.07926 0.45672 0.65118 0.0
Tb202 Tb -0.05198 0.53227 0.67704 0.0
O203 O 0.00564 0.48607 0.60293 0.0
O204 O -0.00878 0.52153 0.66669 0.0
O205 O -0.06926 0.46383 0.54372 0.0
C206 C -0.083 0.54021 0.86089 0.0
O207 O -0.07046 0.48061 0.7289 0.0
C208 C -0.07699 0.52807 0.46377 0.0
C209 C 0.02007 0.5874 0.59039 0.0
O210 O 0.90091 0.52001 0.77534 0.0
O211 O -0.04934 0.55641 0.84198 0.0
O212 O -0.07305 0.55159 0.53889 0.0
O213 O -0.06697 0.50878 0.51096 0.0
O214 O -0.00108 0.57766 0.6779 0.0
O215 O 0.01471 0.56633 0.50108 0.0
C216 C -0.00454 0.48439 0.30355 0.0
O217 O -0.00448 0.51408 0.31491 0.0
O218 O -0.01257 0.46804 0.39953 0.0
C219 C 0.00052 0.49913 0.69452 0.0
Tb220 Tb 0.34083 0.443 0.49507 0.0
C221 C 0.39211 0.43381 0.65119 0.0
Tb222 Tb 0.31656 0.38554 0.67715 0.0
O223 O 0.36275 0.48937 0.60322 0.0
O224 O 0.32729 0.43949 0.6669 0.0
O225 O 0.38502 0.43671 0.54379 0.0
C226 C 0.30865 0.34661 0.86093 0.0
O227 O 0.36822 0.41874 0.72895 0.0
C228 C 0.32078 0.36474 0.46383 0.0
C229 C 0.26142 0.40244 0.59054 0.0
O230 O 0.3288 0.35066 0.77523 0.0
O231 O 0.29249 0.36411 0.84221 0.0
O232 O 0.29725 0.34515 0.53894 0.0
O233 O 0.34006 0.39405 0.51104 0.0
O234 O 0.27113 0.391 0.67801 0.0
O235 O 0.28252 0.41818 0.5013 0.0
C236 C 0.36445 0.48087 0.3038 0.0
O237 O 0.33476 0.45124 0.31515 0.0
O238 O 0.38079 0.48919 0.39975 0.0
C239 C 0.34968 0.47118 0.69479 0.0
Tb240 Tb 0.61451 0.7187 0.5102 0.0
C241 C 0.68668 0.7357 0.42376 0.0
Tb242 Tb 0.648 0.77637 0.32802 0.0
O243 O 0.59328 0.67834 0.37214 0.0
O244 O 0.59974 0.7274 0.34382 0.0
O245 O 0.66538 0.72412 0.51095 0.0
C246 C 0.6623 0.81413 0.13666 0.0
O247 O 0.68145 0.75151 0.33452 0.0
C248 C 0.66735 0.80434 0.52851 0.0
C249 C 0.5875 0.76727 0.48432 0.0
O250 O 0.66216 0.7844 0.14801 0.0
O251 O 0.65441 0.82259 0.23267 0.0
O252 O 0.67283 0.82266 0.43701 0.0
O253 O 0.65753 0.77261 0.49951 0.0
O254 O 0.59762 0.77032 0.37691 0.0
O255 O 0.5961 0.75198 0.56188 0.0
C256 C 0.58348 0.67977 0.69404 0.0
O257 O 0.5674 0.6838 0.60832 0.0
O258 O 0.61715 0.69736 0.67532 0.0
C259 C 0.58958 0.69801 0.29684 0.0
Tb260 Tb 0.13014 0.86562 0.51031 0.0
C261 C 0.11315 0.92079 0.42396 0.0
Tb262 Tb 0.07247 0.84143 0.32823 0.0
O263 O 0.1705 0.88474 0.37219 0.0
O264 O 0.12144 0.84213 0.3439 0.0
O265 O 0.12477 0.91111 0.51105 0.0
C266 C 0.03471 0.81797 0.13692 0.0
O267 O 0.0973 0.89972 0.33478 0.0
C268 C 0.04451 0.83282 0.52878 0.0
C269 C 0.08158 0.79003 0.48433 0.0
O270 O 0.06444 0.84755 0.14826 0.0
O271 O 0.02624 0.80162 0.23291 0.0
O272 O 0.02618 0.81996 0.43731 0.0
O273 O 0.07623 0.85473 0.49974 0.0
O274 O 0.07852 0.79709 0.37698 0.0
O275 O 0.09687 0.81393 0.56193 0.0
C276 C 0.16905 0.87349 0.69408 0.0
O277 O 0.16508 0.85344 0.60821 0.0
O278 O 0.15141 0.88953 0.67556 0.0
C279 C 0.15082 0.86135 0.29688 0.0
Tb280 Tb -0.01681 0.23425 0.51044 0.0
C281 C -0.07197 0.16213 0.42377 0.0
Tb282 Tb 0.00739 0.2008 0.3281 0.0
O283 O -0.03594 0.2555 0.3725 0.0
O284 O 0.00667 0.24906 0.344 0.0
O285 O -0.06229 0.1834 0.51101 0.0
C286 C 0.03086 0.18651 0.13667 0.0
O287 O -0.0509 0.16738 0.33455 0.0
C288 C 0.01599 0.18142 0.52856 0.0
C289 C 0.05879 0.2613 0.48412 0.0
O290 O 0.00126 0.18663 0.14813 0.0
O291 O 0.04721 0.19442 0.23261 0.0
O292 O 0.02885 0.17596 0.43701 0.0
O293 O -0.00592 0.19123 0.49962 0.0
O294 O 0.05171 0.25119 0.37687 0.0
O295 O 0.03488 0.25268 0.5619 0.0
C296 C -0.02475 0.26522 0.69442 0.0
O297 O -0.00471 0.28134 0.60853 0.0
O298 O -0.04073 0.23155 0.67579 0.0
C299 C -0.01256 0.25922 0.29711 0.0
Tb300 Tb 0.02195 0.31164 0.99069 0.0
C301 C 0.03894 0.38377 1.07695 0.0
Tb302 Tb 0.07957 0.3451 0.17281 0.0
O303 O -0.01843 0.29051 0.1288 0.0
O304 O 0.0306 0.29683 0.1571 0.0
O305 O 0.02757 0.3626 0.98948 0.0
C306 C 0.11735 0.3594 0.36406 0.0
O307 O 0.05459 0.37844 0.16644 0.0
C308 C 0.10757 0.36448 0.97228 0.0
C309 C 0.07047 0.28462 1.01659 0.0
O310 O 0.08768 0.35936 0.35272 0.0
O311 O 0.12575 0.35142 0.26812 0.0
O312 O 0.12588 0.36995 1.06378 0.0
O313 O 0.07586 0.35466 1.0013 0.0
O314 O 0.07348 0.29471 0.12396 0.0
O315 O 0.05524 0.29327 0.93895 0.0
C316 C -0.01697 0.28053 0.80712 0.0
O317 O -0.01275 0.26448 0.89257 0.0
O318 O 0.00037 0.3142 0.82593 0.0
C319 C 0.0012 0.28668 0.20396 0.0
Tb320 Tb 0.53713 0.6801 0.99056 0.0
C321 C 0.46505 0.62496 1.0771 0.0
Tb322 Tb 0.5037 0.70428 0.17291 0.0
O323 O 0.55828 0.66086 0.12849 0.0
O324 O 0.55197 0.70358 0.15698 0.0
O325 O 0.48618 0.63476 0.98952 0.0
C326 C 0.48945 0.72779 0.3643 0.0
O327 O 0.47039 0.64596 0.16661 0.0
C328 C 0.48429 0.7129 0.97248 0.0
C329 C 0.56417 0.75566 1.01666 0.0
O330 O 0.48946 0.69814 0.35285 0.0
O331 O 0.49743 0.74417 0.26838 0.0
O332 O 0.47883 0.72574 1.06405 0.0
O333 O 0.49412 0.691 1.0014 0.0
O334 O 0.55409 0.74858 0.12406 0.0
O335 O 0.55552 0.73178 0.93897 0.0
C336 C 0.56818 0.67224 0.80678 0.0
O337 O 0.58426 0.69248 0.89226 0.0
O338 O 0.53451 0.65598 0.82567 0.0
C339 C 0.56212 0.68432 0.20372 0.0
Tb340 Tb 0.16874 0.82681 0.99046 0.0
C341 C 0.22389 0.80989 1.07696 0.0
Tb342 Tb 0.14456 0.76921 0.17272 0.0
O343 O 0.18797 0.86721 0.12844 0.0
O344 O 0.14525 0.81817 0.15691 0.0
O345 O 0.21412 0.82125 0.98944 0.0
C346 C 0.12106 0.73144 0.36407 0.0
O347 O 0.20287 0.79421 0.16641 0.0
C348 C 0.13596 0.74119 0.97224 0.0
C349 C 0.09318 0.77829 1.01667 0.0
O350 O 0.1507 0.76111 0.35262 0.0
O351 O 0.10467 0.72304 0.26818 0.0
O352 O 0.12311 0.72288 1.06378 0.0
O353 O 0.15786 0.77291 1.0012 0.0
O354 O 0.10025 0.77529 0.12401 0.0
O355 O 0.11707 0.79352 0.93894 0.0
C356 C 0.17659 0.8657 0.80674 0.0
O357 O 0.1564 0.8616 0.89238 0.0
O358 O 0.19281 0.84825 0.82544 0.0
C359 C 0.16451 0.84758 0.20367 0.0
Tb360 Tb 0.50391 0.76942 0.67281 0.0
C361 C 0.56437 0.77853 0.51646 0.0
Tb362 Tb 0.53723 0.82692 0.49077 0.0
O363 O 0.47942 0.72306 0.5646 0.0
O364 O 0.494 0.77298 0.50097 0.0
O365 O 0.55435 0.77561 0.62393 0.0
C366 C 0.56837 0.86597 0.30713 0.0
O367 O 0.55564 0.79368 0.43884 0.0
C368 C 0.56213 0.84764 0.7043 0.0
C369 C 0.46512 0.80998 0.57703 0.0
O370 O 0.58438 0.86172 0.39262 0.0
O371 O 0.5347 0.84853 0.32599 0.0
O372 O 0.55832 0.86727 0.62906 0.0
O373 O 0.55211 0.81836 0.65691 0.0
O374 O 0.48634 0.82143 0.48965 0.0
O375 O 0.47044 0.79428 0.66642 0.0
C376 C 0.48958 0.73152 0.86406 0.0
O377 O 0.48956 0.76117 0.85276 0.0
O378 O 0.49762 0.72321 0.76807 0.0
C379 C 0.48462 0.74127 0.47305 0.0
Tb380 Tb 0.07944 0.70429 0.67263 0.0
C381 C 0.07033 0.75565 0.51647 0.0
Tb382 Tb 0.02195 0.68011 0.49068 0.0
O383 O 0.12579 0.72615 0.56433 0.0
O384 O 0.07588 0.6908 0.50078 0.0
O385 O 0.07326 0.74855 0.62388 0.0
C386 C -0.01709 0.67221 0.3071 0.0
O387 O 0.05518 0.73176 0.4388 0.0
C388 C 0.00122 0.68429 0.70426 0.0
C389 C 0.03887 0.62493 0.57688 0.0
O390 O -0.0129 0.69241 0.39274 0.0
O391 O 0.0004 0.65603 0.32577 0.0
O392 O -0.01841 0.66085 0.62903 0.0
O393 O 0.03051 0.70356 0.65684 0.0
O394 O 0.02739 0.63467 0.48957 0.0
O395 O 0.05459 0.64597 0.66623 0.0
C396 C 0.11734 0.72785 0.86383 0.0
O397 O 0.08768 0.69819 0.85253 0.0
O398 O 0.12566 0.74421 0.76787 0.0
C399 C 0.10759 0.71313 0.4728 0.0
Tb400 Tb 0.1445 0.34492 0.67246 0.0
C401 C 0.09315 0.28446 0.51634 0.0
Tb402 Tb 0.16872 0.31167 0.49017 0.0
O403 O 0.12264 0.36943 0.56434 0.0
O404 O 0.15802 0.3549 0.50062 0.0
O405 O 0.10026 0.29448 0.62365 0.0
C406 C 0.17675 0.28074 0.30613 0.0
O407 O 0.11705 0.2932 0.43849 0.0
C408 C 0.1645 0.28669 0.7036 0.0
C409 C 0.22389 0.3837 0.57694 0.0
O410 O 0.1567 0.26461 0.39196 0.0
O411 O 0.1927 0.3144 0.32487 0.0
O412 O 0.18795 0.29051 0.6283 0.0
O413 O 0.14525 0.29673 0.65631 0.0
O414 O 0.2142 0.36251 0.48953 0.0
O415 O 0.20282 0.37837 0.66623 0.0
C416 C 0.12091 0.3592 0.86381 0.0
O417 O 0.15058 0.35921 0.85242 0.0
O418 O 0.10457 0.35119 0.76786 0.0
C419 C 0.13567 0.36426 0.47275 0.0
Tb420 Tb 0.07249 0.20096 0.82814 0.0
C421 C 0.08163 0.26142 0.98444 0.0
Tb422 Tb 0.12996 0.23423 1.00995 0.0
O423 O 0.02612 0.17651 0.93638 0.0
O424 O 0.07602 0.19099 0.99997 0.0
O425 O 0.07874 0.25142 0.877 0.0
C426 C 0.16898 0.26545 0.19334 0.0
O427 O 0.09672 0.25261 1.06211 0.0
C428 C 0.15072 0.25918 0.79654 0.0
C429 C 0.11303 0.16214 0.92384 0.0
O430 O 0.16455 0.28143 1.10811 0.0
O431 O 0.15181 0.23179 0.17438 0.0
O432 O 0.17032 0.25525 0.87159 0.0
O433 O 0.12142 0.24917 0.84386 0.0
O434 O 0.12437 0.18329 1.01134 0.0
O435 O 0.09736 0.1675 0.83445 0.0
C436 C 0.03459 0.18667 0.63697 0.0
O437 O 0.06421 0.1866 0.64824 0.0
O438 O 0.0263 0.19474 0.73295 0.0
C439 C 0.04432 0.18166 1.02791 0.0
Tb440 Tb 0.64784 0.84132 0.82827 0.0
C441 C 0.58737 0.79003 0.9846 0.0
Tb442 Tb 0.61465 0.86558 1.01045 0.0
O443 O 0.67227 0.81938 0.93634 0.0
O444 O 0.65785 0.85484 1.0001 0.0
O445 O 0.59737 0.79714 0.87714 0.0
C446 C 0.58366 0.87354 0.19432 0.0
O447 O 0.59617 0.81392 1.06232 0.0
C448 C 0.58964 0.86137 0.79719 0.0
C449 C 0.68669 0.92072 0.92373 0.0
O450 O 0.56755 0.85335 1.10877 0.0
O451 O 0.61731 0.88971 0.1754 0.0
O452 O 0.59357 0.8849 0.8723 0.0
O453 O 0.59966 0.84209 0.84437 0.0
O454 O 0.66555 0.91098 1.01127 0.0
O455 O 0.68133 0.89964 0.83444 0.0
C456 C 0.66209 0.81769 0.63697 0.0
O457 O 0.66215 0.84738 0.64831 0.0
O458 O 0.65405 0.80134 0.73294 0.0
C459 C 0.66715 0.83244 1.02794 0.0
Tb460 Tb 0.00754 0.77633 0.82848 0.0
C461 C 0.05882 0.76714 0.98462 0.0
Tb462 Tb -0.01674 0.71887 1.01056 0.0
O463 O 0.02946 0.82269 0.93664 0.0
O464 O -0.00601 0.77282 1.00032 0.0
O465 O 0.05172 0.77004 0.87722 0.0
C466 C -0.02467 0.67995 0.19438 0.0
O467 O 0.03492 0.75206 1.06238 0.0
C468 C -0.01251 0.69807 0.79725 0.0
C469 C -0.07188 0.73575 0.92388 0.0
O470 O -0.00454 0.68397 1.10866 0.0
O471 O -0.04081 0.69747 0.17565 0.0
O472 O -0.03604 0.67848 0.87236 0.0
O473 O 0.00677 0.72738 0.84447 0.0
O474 O -0.06217 0.72431 1.01135 0.0
O475 O -0.05078 0.7515 0.83465 0.0
C476 C 0.03117 0.81421 0.63722 0.0
O477 O 0.00148 0.78457 0.64856 0.0
O478 O 0.04751 0.82252 0.73318 0.0
C479 C 0.01639 0.80451 1.02821 0.0
Tb480 Tb 0.28116 0.05204 0.84353 0.0
C481 C 0.35334 0.06906 0.75723 0.0
Tb482 Tb 0.31468 0.1097 0.66134 0.0
O483 O 0.25993 0.01168 0.70546 0.0
O484 O 0.26641 0.06075 0.67713 0.0
O485 O 0.33204 0.05747 0.84439 0.0
C486 C 0.329 0.14746 0.46998 0.0
O487 O 0.34811 0.08483 0.66788 0.0
C488 C 0.33404 0.13767 0.86184 0.0
C489 C 0.25419 0.10064 0.81766 0.0
O490 O 0.32885 0.11773 0.48134 0.0
O491 O 0.32111 0.15593 0.56597 0.0
O492 O 0.33954 0.156 0.77033 0.0
O493 O 0.32419 0.10594 0.83284 0.0
O494 O 0.26432 0.1037 0.71024 0.0
O495 O 0.26277 0.08533 0.89521 0.0
C496 C 0.2501 0.0131 1.02733 0.0
O497 O 0.23403 0.01718 0.94166 0.0
O498 O 0.28377 0.03065 1.00858 0.0
C499 C 0.25623 0.03136 0.63015 0.0
Tb500 Tb 0.79676 0.19893 0.84358 0.0
C501 C 0.77974 0.25409 0.75732 0.0
Tb502 Tb 0.73909 0.17476 0.66146 0.0
O503 O 0.83712 0.21807 0.70545 0.0
O504 O 0.78806 0.17546 0.67716 0.0
O505 O 0.79133 0.24439 0.84447 0.0
C506 C 0.70134 0.15131 0.47015 0.0
O507 O 0.76397 0.23306 0.668 0.0
C508 C 0.71113 0.16616 0.86203 0.0
C509 C 0.74818 0.12335 0.81758 0.0
O510 O 0.73106 0.1809 0.48152 0.0
O511 O 0.69288 0.13495 0.56612 0.0
O512 O 0.6928 0.15333 0.77054 0.0
O513 O 0.74285 0.18804 0.83298 0.0
O514 O 0.74513 0.13042 0.71023 0.0
O515 O 0.76348 0.14725 0.89519 0.0
C516 C 0.83569 0.20681 1.02731 0.0
O517 O 0.83166 0.18671 0.94152 0.0
O518 O 0.8181 0.2229 1.00872 0.0
C519 C 0.81745 0.19469 0.63014 0.0
Tb520 Tb 0.6499 0.56759 0.84379 0.0
C521 C 0.59475 0.49545 0.75724 0.0
Tb522 Tb 0.6741 0.53414 0.66147 0.0
O523 O 0.63076 0.58883 0.70582 0.0
O524 O 0.67338 0.58239 0.67735 0.0
O525 O 0.60444 0.51672 0.84447 0.0
C526 C 0.69756 0.51985 0.47004 0.0
O527 O 0.6158 0.50072 0.66792 0.0
C528 C 0.6827 0.51476 0.86192 0.0
C529 C 0.72549 0.59463 0.81758 0.0
O530 O 0.66796 0.51996 0.4815 0.0
O531 O 0.71392 0.52776 0.56597 0.0
O532 O 0.69555 0.50929 0.77037 0.0
O533 O 0.6608 0.52457 0.83299 0.0
O534 O 0.71842 0.58452 0.71024 0.0
O535 O 0.70159 0.58602 0.89526 0.0
C536 C 0.64196 0.59857 1.02772 0.0
O537 O 0.66202 0.61468 0.94188 0.0
O538 O 0.62596 0.5649 1.00908 0.0
C539 C 0.65415 0.59255 0.63045 0.0
Tb540 Tb 0.68865 0.64497 0.32402 0.0
C541 C 0.7056 0.71708 0.41033 0.0
Tb542 Tb 0.74627 0.67845 0.50616 0.0
O543 O 0.64827 0.62383 0.46211 0.0
O544 O 0.69731 0.63016 0.49043 0.0
O545 O 0.69426 0.69593 0.32283 0.0
C546 C 0.78405 0.69271 0.69744 0.0
O547 O 0.72125 0.71175 0.49982 0.0
C548 C 0.77427 0.69784 0.30563 0.0
C549 C 0.73719 0.61797 0.3499 0.0
O550 O 0.75438 0.69269 0.68609 0.0
O551 O 0.79244 0.68474 0.60147 0.0
O552 O 0.79259 0.70332 0.39714 0.0
O553 O 0.74255 0.688 0.33466 0.0
O554 O 0.74021 0.62806 0.45731 0.0
O555 O 0.72196 0.62661 0.2723 0.0
C556 C 0.64974 0.61388 0.14043 0.0
O557 O 0.65395 0.59782 0.22588 0.0
O558 O 0.66709 0.64754 0.15925 0.0
C559 C 0.6679 0.62 0.53728 0.0
Tb560 Tb 0.20379 0.01347 0.32387 0.0
C561 C 0.13172 -0.04167 0.41049 0.0
Tb562 Tb 0.17038 0.03766 0.50624 0.0
O563 O 0.22493 -0.00578 0.46179 0.0
O564 O 0.21864 0.03695 0.49029 0.0
O565 O 0.15283 -0.03186 0.32285 0.0
C566 C 0.15616 0.0612 0.69763 0.0
O567 O 0.13708 -0.02067 0.49999 0.0
C568 C 0.15097 0.04629 0.30581 0.0
C569 C 0.23086 0.08903 0.34996 0.0
O570 O 0.15613 0.03154 0.68618 0.0
O571 O 0.16415 0.07758 0.60171 0.0
O572 O 0.14552 0.05913 0.39739 0.0
O573 O 0.16078 0.02438 0.33473 0.0
O574 O 0.22077 0.08195 0.45737 0.0
O575 O 0.22219 0.06515 0.27228 0.0
C576 C 0.23481 0.00558 0.14008 0.0
O577 O 0.2509 0.02582 0.22556 0.0
O578 O 0.20115 -0.01066 0.15898 0.0
C579 C 0.22878 0.01768 0.53702 0.0
Tb580 Tb 0.83537 0.16015 0.32372 0.0
C581 C 0.8905 0.14322 0.41026 0.0
Tb582 Tb 0.81117 0.10254 0.50598 0.0
O583 O 0.8546 0.20054 0.4617 0.0
O584 O 0.81187 0.15151 0.49016 0.0
O585 O 0.88073 0.15458 0.32271 0.0
C586 C 0.78766 0.06477 0.69733 0.0
O587 O 0.86948 0.12755 0.49971 0.0
C588 C 0.80257 0.07452 0.30549 0.0
C589 C 0.7598 0.11163 0.3499 0.0
O590 O 0.8173 0.09443 0.68588 0.0
O591 O 0.77127 0.05638 0.60143 0.0
O592 O 0.78972 0.05622 0.39704 0.0
O593 O 0.82447 0.10624 0.33446 0.0
O594 O 0.76687 0.10863 0.45725 0.0
O595 O 0.78369 0.12686 0.27218 0.0
C596 C 0.84323 0.19904 0.13999 0.0
O597 O 0.82304 0.19494 0.22561 0.0
O598 O 0.85944 0.18159 0.15871 0.0
C599 C 0.83113 0.18092 0.53693 0.0
Tb600 Tb 0.17062 0.10284 1.00616 0.0
C601 C 0.23109 0.11193 0.84981 0.0
Tb602 Tb 0.20396 0.16034 0.82411 0.0
O603 O 0.14613 0.05649 0.89794 0.0
O604 O 0.16072 0.10641 0.83431 0.0
O605 O 0.22105 0.109 0.95728 0.0
C606 C 0.23506 0.19936 0.64036 0.0
O607 O 0.22238 0.1271 0.7722 0.0
C608 C 0.22888 0.18105 1.03763 0.0
C609 C 0.13185 0.14342 0.91042 0.0
O610 O 0.2511 0.19522 0.72598 0.0
O611 O 0.20139 0.18183 0.65916 0.0
O612 O 0.22509 0.2007 0.96239 0.0
O613 O 0.21883 0.15177 0.99023 0.0
O614 O 0.15311 0.15495 0.82317 0.0
O615 O 0.13713 0.12767 0.99975 0.0
C616 C 0.15628 0.06493 0.1974 0.0
O617 O 0.1563 0.0946 0.18614 0.0
O618 O 0.16428 0.0566 1.10138 0.0
C619 C 0.15134 0.0747 0.80638 0.0
Tb620 Tb 0.74605 0.03762 1.00589 0.0
C621 C 0.73693 0.08897 0.84972 0.0
Tb622 Tb 0.68855 0.01342 0.82391 0.0
O623 O 0.7924 0.05947 0.89758 0.0
O624 O 0.74248 0.02412 0.83403 0.0
O625 O 0.73986 0.08187 0.95713 0.0
C626 C 0.64953 0.00551 0.64028 0.0
O627 O 0.72178 0.06508 0.77205 0.0
C628 C 0.66782 0.01762 1.03748 0.0
C629 C 0.70547 -0.04175 0.91019 0.0
O630 O 0.65368 0.02569 0.72595 0.0
O631 O 0.66705 -0.01064 0.65895 0.0
O632 O 0.64819 -0.00582 0.96225 0.0
O633 O 0.69711 0.03688 0.99007 0.0
O634 O 0.69397 -0.03203 0.82289 0.0
O635 O 0.7212 -0.0207 0.99951 0.0
C636 C 0.78395 0.06119 0.19709 0.0
O637 O 0.75429 0.03153 0.1858 0.0
O638 O 0.79226 0.07754 1.10112 0.0
C639 C 0.77419 0.04646 0.80605 0.0
Tb640 Tb 0.8112 0.67824 1.00587 0.0
C641 C 0.75987 0.61777 0.84969 0.0
Tb642 Tb 0.83542 0.64497 0.82369 0.0
O643 O 0.78934 0.70273 0.89773 0.0
O644 O 0.82471 0.6882 0.834 0.0
O645 O 0.76697 0.62779 0.9571 0.0
C646 C 0.84339 0.61393 0.63985 0.0
O647 O 0.78376 0.62652 0.77195 0.0
C648 C 0.83122 0.62002 1.03717 0.0
C649 C 0.89059 0.71702 0.91028 0.0
O650 O 0.82325 0.59786 0.72557 0.0
O651 O 0.85946 0.64759 0.65859 0.0
O652 O 0.85467 0.62384 0.96187 0.0
O653 O 0.81196 0.63005 0.98985 0.0
O654 O 0.88088 0.69583 0.82288 0.0
O655 O 0.86952 0.71169 0.99959 0.0
C656 C 0.78762 0.69255 0.19718 0.0
O657 O 0.81729 0.69258 0.1858 0.0
O658 O 0.77126 0.6845 1.10124 0.0
C659 C 0.80236 0.69755 0.80613 0.0
Tb660 Tb 0.7392 0.53429 0.16151 0.0
C661 C 0.74837 0.59477 0.31783 0.0
Tb662 Tb 0.79666 0.56753 0.34348 0.0
O663 O 0.69283 0.50985 0.26974 0.0
O664 O 0.74272 0.52433 0.33334 0.0
O665 O 0.74547 0.58476 0.21036 0.0
C666 C 0.83564 0.59863 0.52708 0.0
O667 O 0.76346 0.58598 0.39548 0.0
C668 C 0.81744 0.5925 0.1301 0.0
C669 C 0.77968 0.49543 0.25723 0.0
O670 O 0.83142 0.61468 0.44164 0.0
O671 O 0.81828 0.56497 0.5082 0.0
O672 O 0.83704 0.58858 0.20516 0.0
O673 O 0.78814 0.58248 0.17739 0.0
O674 O 0.79109 0.5166 0.34466 0.0
O675 O 0.76403 0.5008 0.16782 0.0
C676 C 0.70131 0.52002 0.97032 0.0
O677 O 0.73095 0.51997 0.98158 0.0
O678 O 0.69301 0.52807 1.06632 0.0
C679 C 0.71102 0.515 0.36128 0.0
Tb680 Tb 0.31456 0.17467 0.1616 0.0
C681 C 0.25408 0.1234 0.31792 0.0
Tb682 Tb 0.28139 0.19895 0.34378 0.0
O683 O 0.33899 0.15272 0.26966 0.0
O684 O 0.32457 0.18817 0.33343 0.0
O685 O 0.26408 0.1305 0.21046 0.0
C686 C 0.25035 0.20689 0.52757 0.0
O687 O 0.2629 0.14728 0.39565 0.0
C688 C 0.25639 0.19477 0.13051 0.0
C689 C 0.35345 0.25404 0.2572 0.0
O690 O 0.23427 0.18665 0.44209 0.0
O691 O 0.28401 0.22313 0.50863 0.0
O692 O 0.26035 0.2183 0.20563 0.0
O693 O 0.26639 0.17547 0.17769 0.0
O694 O 0.33232 0.24429 0.34478 0.0
O695 O 0.34805 0.23299 0.16779 0.0
C696 C 0.32879 0.15103 0.97029 0.0
O697 O 0.32889 0.18074 0.98166 0.0
O698 O 0.32072 0.13467 1.06625 0.0
C699 C 0.33386 0.16577 0.36126 0.0
Tb700 Tb 0.67416 0.10967 0.16171 0.0
C701 C 0.72544 0.10047 0.31784 0.0
Tb702 Tb 0.64988 0.05221 0.3438 0.0
O703 O 0.69609 0.15604 0.26987 0.0
O704 O 0.66064 0.10616 0.33356 0.0
O705 O 0.71834 0.10337 0.21044 0.0
C706 C 0.64197 0.01326 0.52755 0.0
O707 O 0.70154 0.08539 0.39561 0.0
C708 C 0.6541 0.03141 0.13046 0.0
C709 C 0.59478 0.06916 0.25729 0.0
O710 O 0.66215 0.01735 0.44191 0.0
O711 O 0.62577 0.03073 0.50878 0.0
O712 O 0.63057 0.01182 0.20558 0.0
O713 O 0.67338 0.06071 0.17768 0.0
O714 O 0.60449 0.05772 0.34476 0.0
O715 O 0.61585 0.08485 0.16794 0.0
C716 C 0.69779 0.14755 0.97046 0.0
O717 O 0.66809 0.11792 0.98181 0.0
O718 O 0.71414 0.15584 1.06639 0.0
C719 C 0.68303 0.13785 0.36144 0.0
loop_
_geom_bond_atom_site_label_1
_geom_bond_atom_site_label_2
_geom_bond_distance
_geom_bond_site_symmetry_2
_ccdc_geom_bond_type
Tb0 O3 2.453 1_454 S
Tb0 O4 2.596 1_554 S
Tb0 O5 2.374 . S
Tb0 O13 2.343 . S
Tb0 O15 2.353 1_455 S
Tb0 O17 2.427 1_455 S
Tb0 O18 2.513 . S
C1 O5 1.251 1_556 S
C1 O7 1.263 . S
Tb2 O4 2.343 . S
Tb2 O7 2.353 . S
Tb2 O10 2.427 . S
Tb2 O11 2.513 . S
Tb2 O12 2.453 1_556 S
Tb2 O13 2.596 1_556 S
Tb2 O14 2.374 . S
O3 Tb0 2.453 1_656 S
O3 C19 1.245 1_655 S
O4 Tb0 2.596 1_556 S
O4 Tb2 2.343 . S
O4 C19 1.259 . S
O5 Tb0 2.374 . S
O5 C1 1.251 1_554 S
C6 O10 1.275 . S
C6 O11 1.246 . S
O7 C1 1.263 . S
O7 Tb2 2.353 . S
C8 O12 1.245 . S
C8 O13 1.259 . S
C9 O14 1.250 1_654 S
C9 O15 1.263 . S
O10 Tb2 2.427 . S
O10 C6 1.275 . S
O11 Tb2 2.513 . S
O11 C6 1.246 . S
O12 Tb2 2.453 1_554 S
O12 C8 1.245 . S
O13 Tb0 2.343 . S
O13 Tb2 2.596 1_554 S
O13 C8 1.259 . S
O14 Tb2 2.374 . S
O14 C9 1.250 1_456 S
O15 Tb0 2.353 1_655 S
O15 C9 1.263 . S
C16 O17 1.275 1_455 S
C16 O18 1.246 . S
O17 Tb0 2.427 1_655 S
O17 C16 1.275 1_655 S
O18 Tb0 2.513 . S
O18 C16 1.246 . S
C19 O3 1.245 1_455 S
C19 O4 1.259 . S
Tb20 O23 2.453 1_554 S
Tb20 O24 2.596 1_554 S
Tb20 O25 2.374 . S
Tb20 O33 2.343 . S
Tb20 O35 2.353 . S
Tb20 O37 2.427 . S
Tb20 O38 2.513 . S
C21 O25 1.251 1_556 S
C21 O27 1.263 . S
Tb22 O24 2.343 . S
Tb22 O27 2.353 . S
Tb22 O30 2.427 . S
Tb22 O31 2.513 . S
Tb22 O32 2.453 1_556 S
Tb22 O33 2.596 1_556 S
Tb22 O34 2.374 . S
O23 Tb20 2.453 1_556 S
O23 C39 1.245 . S
O24 Tb20 2.596 1_556 S
O24 Tb22 2.343 . S
O24 C39 1.259 . S
O25 Tb20 2.374 . S
O25 C21 1.251 1_554 S
C26 O30 1.275 . S
C26 O31 1.246 . S
O27 C21 1.263 . S
O27 Tb22 2.353 . S
C28 O32 1.245 . S
C28 O33 1.259 . S
C29 O34 1.250 1_554 S
C29 O35 1.263 . S
O30 Tb22 2.427 . S
O30 C26 1.275 . S
O31 Tb22 2.513 . S
O31 C26 1.246 . S
O32 Tb22 2.453 1_554 S
O32 C28 1.245 . S
O33 Tb20 2.343 . S
O33 Tb22 2.596 1_554 S
O33 C28 1.259 . S
O34 Tb22 2.374 . S
O34 C29 1.250 1_556 S
O35 Tb20 2.353 . S
O35 C29 1.263 . S
C36 O37 1.275 . S
C36 O38 1.246 . S
O37 Tb20 2.427 . S
O37 C36 1.275 . S
O38 Tb20 2.513 . S
O38 C36 1.246 . S
C39 O23 1.245 . S
C39 O24 1.259 . S
Tb40 O43 2.453 1_564 S
Tb40 O44 2.596 1_554 S
Tb40 O45 2.374 . S
Tb40 O53 2.343 . S
Tb40 O55 2.353 1_565 S
Tb40 O57 2.427 1_565 S
Tb40 O58 2.513 . S
C41 O45 1.251 1_556 S
C41 O47 1.263 . S
Tb42 O44 2.343 . S
Tb42 O47 2.353 . S
Tb42 O50 2.427 . S
Tb42 O51 2.513 . S
Tb42 O52 2.453 1_556 S
Tb42 O53 2.596 1_556 S
Tb42 O54 2.374 . S
O43 Tb40 2.453 1_546 S
O43 C59 1.245 1_545 S
O44 Tb40 2.596 1_556 S
O44 Tb42 2.343 . S
O44 C59 1.259 . S
O45 Tb40 2.374 . S
O45 C41 1.251 1_554 S
C46 O50 1.275 . S
C46 O51 1.246 . S
O47 C41 1.263 . S
O47 Tb42 2.353 . S
C48 O52 1.245 . S
C48 O53 1.259 . S
C49 O54 1.250 1_544 S
C49 O55 1.263 . S
O50 Tb42 2.427 . S
O50 C46 1.275 . S
O51 Tb42 2.513 . S
O51 C46 1.246 . S
O52 Tb42 2.453 1_554 S
O52 C48 1.245 . S
O53 Tb40 2.343 . S
O53 Tb42 2.596 1_554 S
O53 C48 1.259 . S
O54 Tb42 2.374 . S
O54 C49 1.250 1_566 S
O55 Tb40 2.353 1_545 S
O55 C49 1.263 . S
C56 O57 1.275 1_565 S
C56 O58 1.246 . S
O57 Tb40 2.427 1_545 S
O57 C56 1.275 1_545 S
O58 Tb40 2.513 . S
O58 C56 1.246 . S
C59 O43 1.245 1_565 S
C59 O44 1.259 . S
Tb60 O63 2.453 1_545 S
Tb60 O64 2.596 . S
Tb60 O65 2.374 . S
Tb60 O73 2.343 . S
Tb60 O75 2.353 1_545 S
Tb60 O77 2.427 1_545 S
Tb60 O78 2.513 . S
C61 O65 1.251 . S
C61 O67 1.263 . S
Tb62 O64 2.343 . S
Tb62 O67 2.353 . S
Tb62 O70 2.427 . S
Tb62 O71 2.513 . S
Tb62 O72 2.453 . S
Tb62 O73 2.596 . S
Tb62 O74 2.374 . S
O63 Tb60 2.453 1_565 S
O63 C79 1.245 1_565 S
O64 Tb60 2.596 . S
O64 Tb62 2.343 . S
O64 C79 1.259 . S
O65 Tb60 2.374 . S
O65 C61 1.251 . S
C66 O70 1.275 . S
C66 O71 1.246 . S
O67 C61 1.263 . S
O67 Tb62 2.353 . S
C68 O72 1.245 . S
C68 O73 1.259 . S
C69 O74 1.250 1_565 S
C69 O75 1.263 . S
O70 Tb62 2.427 . S
O70 C66 1.275 . S
O71 Tb62 2.513 . S
O71 C66 1.246 . S
O72 Tb62 2.453 . S
O72 C68 1.245 . S
O73 Tb60 2.343 . S
O73 Tb62 2.596 . S
O73 C68 1.259 . S
O74 Tb62 2.374 . S
O74 C69 1.250 1_545 S
O75 Tb60 2.353 1_565 S
O75 C69 1.263 . S
C76 O77 1.275 1_545 S
C76 O78 1.246 . S
O77 Tb60 2.427 1_565 S
O77 C76 1.275 1_565 S
O78 Tb60 2.513 . S
O78 C76 1.246 . S
C79 O63 1.245 1_545 S
C79 O64 1.259 . S
Tb80 O83 2.453 1_655 S
Tb80 O84 2.596 . S
Tb80 O85 2.374 . S
Tb80 O93 2.343 . S
Tb80 O95 2.353 1_655 S
Tb80 O97 2.427 1_655 S
Tb80 O98 2.513 . S
C81 O85 1.251 . S
C81 O87 1.263 . S
Tb82 O84 2.343 . S
Tb82 O87 2.353 . S
Tb82 O90 2.427 . S
Tb82 O91 2.513 . S
Tb82 O92 2.453 . S
Tb82 O93 2.596 . S
Tb82 O94 2.374 . S
O83 Tb80 2.453 1_455 S
O83 C99 1.245 1_455 S
O84 Tb80 2.596 . S
O84 Tb82 2.343 . S
O84 C99 1.259 . S
O85 Tb80 2.374 . S
O85 C81 1.251 . S
C86 O90 1.275 . S
C86 O91 1.246 . S
O87 C81 1.263 . S
O87 Tb82 2.353 . S
C88 O92 1.245 . S
C88 O93 1.259 . S
C89 O94 1.250 1_455 S
C89 O95 1.263 . S
O90 Tb82 2.427 . S
O90 C86 1.275 . S
O91 Tb82 2.513 . S
O91 C86 1.246 . S
O92 Tb82 2.453 . S
O92 C88 1.245 . S
O93 Tb80 2.343 . S
O93 Tb82 2.596 . S
O93 C88 1.259 . S
O94 Tb82 2.374 . S
O94 C89 1.250 1_655 S
O95 Tb80 2.353 1_455 S
O95 C89 1.263 . S
C96 O97 1.275 1_655 S
C96 O98 1.246 . S
O97 Tb80 2.427 1_455 S
O97 C96 1.275 1_455 S
O98 Tb80 2.513 . S
O98 C96 1.246 . S
C99 O83 1.245 1_655 S
C99 O84 1.259 . S
Tb100 O103 2.453 . S
Tb100 O104 2.596 . S
Tb100 O105 2.374 . S
Tb100 O113 2.343 . S
Tb100 O115 2.353 . S
Tb100 O117 2.427 . S
Tb100 O118 2.513 . S
C101 O105 1.251 . S
C101 O107 1.263 . S
Tb102 O104 2.343 . S
Tb102 O107 2.353 . S
Tb102 O110 2.427 . S
Tb102 O111 2.513 . S
Tb102 O112 2.453 . S
Tb102 O113 2.596 . S
Tb102 O114 2.374 . S
O103 Tb100 2.453 . S
O103 C119 1.245 . S
O104 Tb100 2.596 . S
O104 Tb102 2.343 . S
O104 C119 1.259 . S
O105 Tb100 2.374 . S
O105 C101 1.251 . S
C106 O110 1.275 . S
C106 O111 1.246 . S
O107 C101 1.263 . S
O107 Tb102 2.353 . S
C108 O112 1.245 . S
C108 O113 1.259 . S
C109 O114 1.250 . S
C109 O115 1.263 . S
O110 Tb102 2.427 . S
O110 C106 1.275 . S
O111 Tb102 2.513 . S
O111 C106 1.246 . S
O112 Tb102 2.453 . S
O112 C108 1.245 . S
O113 Tb100 2.343 . S
O113 Tb102 2.596 . S
O113 C108 1.259 . S
O114 Tb102 2.374 . S
O114 C109 1.250 . S
O115 Tb100 2.353 . S
O115 C109 1.263 . S
C116 O117 1.275 . S
C116 O118 1.246 . S
O117 Tb100 2.427 . S
O117 C116 1.275 . S
O118 Tb100 2.513 . S
O118 C116 1.246 . S
C119 O103 1.245 . S
C119 O104 1.259 . S
Tb120 O123 2.453 . S
Tb120 O124 2.596 . S
Tb120 O125 2.374 . S
Tb120 O133 2.343 . S
Tb120 O135 2.353 . S
Tb120 O137 2.427 . S
Tb120 O138 2.513 . S
C121 O125 1.251 1_455 S
C121 O127 1.263 . S
Tb122 O124 2.343 . S
Tb122 O127 2.353 1_655 S
Tb122 O130 2.427 1_654 S
Tb122 O131 2.513 1_554 S
Tb122 O132 2.453 1_655 S
Tb122 O133 2.596 . S
Tb122 O134 2.374 . S
O123 Tb120 2.453 . S
O123 C139 1.245 1_554 S
O124 Tb120 2.596 . S
O124 Tb122 2.343 . S
O124 C139 1.259 1_554 S
O125 Tb120 2.374 . S
O125 C121 1.251 1_655 S
C126 O130 1.275 1_655 S
C126 O131 1.246 . S
O127 C121 1.263 . S
O127 Tb122 2.353 1_455 S
C128 O132 1.245 1_655 S
C128 O133 1.259 . S
C129 O134 1.250 . S
C129 O135 1.263 . S
O130 Tb122 2.427 1_456 S
O130 C126 1.275 1_455 S
O131 Tb122 2.513 1_556 S
O131 C126 1.246 . S
O132 Tb122 2.453 1_455 S
O132 C128 1.245 1_455 S
O133 Tb120 2.343 . S
O133 Tb122 2.596 . S
O133 C128 1.259 . S
O134 Tb122 2.374 . S
O134 C129 1.250 . S
O135 Tb120 2.353 . S
O135 C129 1.263 . S
C136 O137 1.275 . S
C136 O138 1.246 . S
O137 Tb120 2.427 . S
O137 C136 1.275 . S
O138 Tb120 2.513 . S
O138 C136 1.246 . S
C139 O123 1.245 1_556 S
C139 O124 1.259 1_556 S
Tb140 O143 2.453 . S
Tb140 O144 2.596 . S
Tb140 O145 2.374 . S
Tb140 O153 2.343 . S
Tb140 O155 2.353 . S
Tb140 O157 2.427 . S
Tb140 O158 2.513 . S
C141 O145 1.251 . S
C141 O147 1.263 . S
Tb142 O144 2.343 . S
Tb142 O147 2.353 . S
Tb142 O150 2.427 1_554 S
Tb142 O151 2.513 1_554 S
Tb142 O152 2.453 . S
Tb142 O153 2.596 . S
Tb142 O154 2.374 . S
O143 Tb140 2.453 . S
O143 C159 1.245 1_554 S
O144 Tb140 2.596 . S
O144 Tb142 2.343 . S
O144 C159 1.259 1_554 S
O145 Tb140 2.374 . S
O145 C141 1.251 . S
C146 O150 1.275 . S
C146 O151 1.246 . S
O147 C141 1.263 . S
O147 Tb142 2.353 . S
C148 O152 1.245 . S
C148 O153 1.259 . S
C149 O154 1.250 . S
C149 O155 1.263 . S
O150 Tb142 2.427 1_556 S
O150 C146 1.275 . S
O151 Tb142 2.513 1_556 S
O151 C146 1.246 . S
O152 Tb142 2.453 . S
O152 C148 1.245 . S
O153 Tb140 2.343 . S
O153 Tb142 2.596 . S
O153 C148 1.259 . S
O154 Tb142 2.374 . S
O154 C149 1.250 . S
O155 Tb140 2.353 . S
O155 C149 1.263 . S
C156 O157 1.275 . S
C156 O158 1.246 . S
O157 Tb140 2.427 . S
O157 C156 1.275 . S
O158 Tb140 2.513 . S
O158 C156 1.246 . S
C159 O143 1.245 1_556 S
C159 O144 1.259 1_556 S
Tb160 O163 2.453 . S
Tb160 O164 2.596 . S
Tb160 O165 2.374 . S
Tb160 O173 2.343 . S
Tb160 O175 2.353 . S
Tb160 O177 2.427 . S
Tb160 O178 2.513 . S
C161 O165 1.251 1_565 S
C161 O167 1.263 . S
Tb162 O164 2.343 . S
Tb162 O167 2.353 1_545 S
Tb162 O170 2.427 1_544 S
Tb162 O171 2.513 1_554 S
Tb162 O172 2.453 1_545 S
Tb162 O173 2.596 . S
Tb162 O174 2.374 . S
O163 Tb160 2.453 . S
O163 C179 1.245 1_554 S
O164 Tb160 2.596 . S
O164 Tb162 2.343 . S
O164 C179 1.259 1_554 S
O165 Tb160 2.374 . S
O165 C161 1.251 1_545 S
C166 O170 1.275 1_545 S
C166 O171 1.246 . S
O167 C161 1.263 . S
O167 Tb162 2.353 1_565 S
C168 O172 1.245 1_545 S
C168 O173 1.259 . S
C169 O174 1.250 . S
C169 O175 1.263 . S
O170 Tb162 2.427 1_566 S
O170 C166 1.275 1_565 S
O171 Tb162 2.513 1_556 S
O171 C166 1.246 . S
O172 Tb162 2.453 1_565 S
O172 C168 1.245 1_565 S
O173 Tb160 2.343 . S
O173 Tb162 2.596 . S
O173 C168 1.259 . S
O174 Tb162 2.374 . S
O174 C169 1.250 . S
O175 Tb160 2.353 . S
O175 C169 1.263 . S
C176 O177 1.275 . S
C176 O178 1.246 . S
O177 Tb160 2.427 . S
O177 C176 1.275 . S
O178 Tb160 2.513 . S
O178 C176 1.246 . S
C179 O163 1.245 1_556 S
C179 O164 1.259 1_556 S
Tb180 O183 2.453 . S
Tb180 O184 2.596 . S
Tb180 O185 2.374 . S
Tb180 O193 2.343 . S
Tb180 O195 2.353 . S
Tb180 O197 2.427 . S
Tb180 O198 2.513 . S
C181 O185 1.251 1_545 S
C181 O187 1.263 . S
Tb182 O184 2.343 . S
Tb182 O187 2.353 1_565 S
Tb182 O190 2.427 1_565 S
Tb182 O191 2.513 . S
Tb182 O192 2.453 1_565 S
Tb182 O193 2.596 . S
Tb182 O194 2.374 . S
O183 Tb180 2.453 . S
O183 C199 1.245 . S
O184 Tb180 2.596 . S
O184 Tb182 2.343 . S
O184 C199 1.259 . S
O185 Tb180 2.374 . S
O185 C181 1.251 1_565 S
C186 O190 1.275 1_565 S
C186 O191 1.246 . S
O187 C181 1.263 . S
O187 Tb182 2.353 1_545 S
C188 O192 1.245 1_565 S
C188 O193 1.259 . S
C189 O194 1.250 . S
C189 O195 1.263 . S
O190 Tb182 2.427 1_545 S
O190 C186 1.275 1_545 S
O191 Tb182 2.513 . S
O191 C186 1.246 . S
O192 Tb182 2.453 1_545 S
O192 C188 1.245 1_545 S
O193 Tb180 2.343 . S
O193 Tb182 2.596 . S
O193 C188 1.259 . S
O194 Tb182 2.374 . S
O194 C189 1.250 . S
O195 Tb180 2.353 . S
O195 C189 1.263 . S
C196 O197 1.275 . S
C196 O198 1.246 . S
O197 Tb180 2.427 . S
O197 C196 1.275 . S
O198 Tb180 2.513 . S
O198 C196 1.246 . S
C199 O183 1.245 . S
C199 O184 1.259 . S
Tb200 O203 2.453 . S
Tb200 O204 2.596 . S
Tb200 O205 2.374 . S
Tb200 O213 2.343 . S
Tb200 O215 2.353 . S
Tb200 O217 2.427 . S
Tb200 O218 2.513 . S
C201 O205 1.251 1_655 S
C201 O207 1.263 . S
Tb202 O204 2.343 . S
Tb202 O207 2.353 1_455 S
Tb202 O210 2.427 1_455 S
Tb202 O211 2.513 . S
Tb202 O212 2.453 1_455 S
Tb202 O213 2.596 . S
Tb202 O214 2.374 . S
O203 Tb200 2.453 . S
O203 C219 1.245 . S
O204 Tb200 2.596 . S
O204 Tb202 2.343 . S
O204 C219 1.259 . S
O205 Tb200 2.374 . S
O205 C201 1.251 1_455 S
C206 O210 1.275 1_455 S
C206 O211 1.246 . S
O207 C201 1.263 . S
O207 Tb202 2.353 1_655 S
C208 O212 1.245 1_455 S
C208 O213 1.259 . S
C209 O214 1.250 . S
C209 O215 1.263 . S
O210 Tb202 2.427 1_655 S
O210 C206 1.275 1_655 S
O211 Tb202 2.513 . S
O211 C206 1.246 . S
O212 Tb202 2.453 1_655 S
O212 C208 1.245 1_655 S
O213 Tb200 2.343 . S
O213 Tb202 2.596 . S
O213 C208 1.259 . S
O214 Tb202 2.374 . S
O214 C209 1.250 . S
O215 Tb200 2.353 . S
O215 C209 1.263 . S
C216 O217 1.275 . S
C216 O218 1.246 . S
O217 Tb200 2.427 . S
O217 C216 1.275 . S
O218 Tb200 2.513 . S
O218 C216 1.246 . S
C219 O203 1.245 . S
C219 O204 1.259 . S
Tb220 O223 2.453 . S
Tb220 O224 2.596 . S
Tb220 O225 2.374 . S
Tb220 O233 2.343 . S
Tb220 O235 2.353 . S
Tb220 O237 2.427 . S
Tb220 O238 2.513 . S
C221 O225 1.251 . S
C221 O227 1.263 . S
Tb222 O224 2.343 . S
Tb222 O227 2.353 . S
Tb222 O230 2.427 . S
Tb222 O231 2.513 . S
Tb222 O232 2.453 . S
Tb222 O233 2.596 . S
Tb222 O234 2.374 . S
O223 Tb220 2.453 . S
O223 C239 1.245 . S
O224 Tb220 2.596 . S
O224 Tb222 2.343 . S
O224 C239 1.259 . S
O225 Tb220 2.374 . S
O225 C221 1.251 . S
C226 O230 1.275 . S
C226 O231 1.246 . S
O227 C221 1.263 . S
O227 Tb222 2.353 . S
C228 O232 1.245 . S
C228 O233 1.259 . S
C229 O234 1.250 . S
C229 O235 1.263 . S
O230 Tb222 2.427 . S
O230 C226 1.275 . S
O231 Tb222 2.513 . S
O231 C226 1.246 . S
O232 Tb222 2.453 . S
O232 C228 1.245 . S
O233 Tb220 2.343 . S
O233 Tb222 2.596 . S
O233 C228 1.259 . S
O234 Tb222 2.374 . S
O234 C229 1.250 . S
O235 Tb220 2.353 . S
O235 C229 1.263 . S
C236 O237 1.275 . S
C236 O238 1.246 . S
O237 Tb220 2.427 . S
O237 C236 1.275 . S
O238 Tb220 2.513 . S
O238 C236 1.246 . S
C239 O223 1.245 . S
C239 O224 1.259 . S
Tb240 O243 2.453 . S
Tb240 O244 2.596 . S
Tb240 O245 2.374 . S
Tb240 O253 2.343 . S
Tb240 O255 2.353 . S
Tb240 O257 2.427 . S
Tb240 O258 2.513 . S
C241 O245 1.251 . S
C241 O247 1.263 . S
Tb242 O244 2.343 . S
Tb242 O247 2.353 . S
Tb242 O250 2.427 . S
Tb242 O251 2.513 . S
Tb242 O252 2.453 . S
Tb242 O253 2.596 . S
Tb242 O254 2.374 . S
O243 Tb240 2.453 . S
O243 C259 1.245 . S
O244 Tb240 2.596 . S
O244 Tb242 2.343 . S
O244 C259 1.259 . S
O245 Tb240 2.374 . S
O245 C241 1.251 . S
C246 O250 1.275 . S
C246 O251 1.246 . S
O247 C241 1.263 . S
O247 Tb242 2.353 . S
C248 O252 1.245 . S
C248 O253 1.259 . S
C249 O254 1.250 . S
C249 O255 1.263 . S
O250 Tb242 2.427 . S
O250 C246 1.275 . S
O251 Tb242 2.513 . S
O251 C246 1.246 . S
O252 Tb242 2.453 . S
O252 C248 1.245 . S
O253 Tb240 2.343 . S
O253 Tb242 2.596 . S
O253 C248 1.259 . S
O254 Tb242 2.374 . S
O254 C249 1.250 . S
O255 Tb240 2.353 . S
O255 C249 1.263 . S
C256 O257 1.275 . S
C256 O258 1.246 . S
O257 Tb240 2.427 . S
O257 C256 1.275 . S
O258 Tb240 2.513 . S
O258 C256 1.246 . S
C259 O243 1.245 . S
C259 O244 1.259 . S
Tb260 O263 2.453 . S
Tb260 O264 2.596 . S
Tb260 O265 2.374 . S
Tb260 O273 2.343 . S
Tb260 O275 2.353 . S
Tb260 O277 2.427 . S
Tb260 O278 2.513 . S
C261 O265 1.251 . S
C261 O267 1.263 . S
Tb262 O264 2.343 . S
Tb262 O267 2.353 . S
Tb262 O270 2.427 . S
Tb262 O271 2.513 . S
Tb262 O272 2.453 . S
Tb262 O273 2.596 . S
Tb262 O274 2.374 . S
O263 Tb260 2.453 . S
O263 C279 1.245 . S
O264 Tb260 2.596 . S
O264 Tb262 2.343 . S
O264 C279 1.259 . S
O265 Tb260 2.374 . S
O265 C261 1.251 . S
C266 O270 1.275 . S
C266 O271 1.246 . S
O267 C261 1.263 . S
O267 Tb262 2.353 . S
C268 O272 1.245 . S
C268 O273 1.259 . S
C269 O274 1.250 . S
C269 O275 1.263 . S
O270 Tb262 2.427 . S
O270 C266 1.275 . S
O271 Tb262 2.513 . S
O271 C266 1.246 . S
O272 Tb262 2.453 . S
O272 C268 1.245 . S
O273 Tb260 2.343 . S
O273 Tb262 2.596 . S
O273 C268 1.259 . S
O274 Tb262 2.374 . S
O274 C269 1.250 . S
O275 Tb260 2.353 . S
O275 C269 1.263 . S
C276 O277 1.275 . S
C276 O278 1.246 . S
O277 Tb260 2.427 . S
O277 C276 1.275 . S
O278 Tb260 2.513 . S
O278 C276 1.246 . S
C279 O263 1.245 . S
C279 O264 1.259 . S
Tb280 O283 2.453 . S
Tb280 O284 2.596 . S
Tb280 O285 2.374 . S
Tb280 O293 2.343 . S
Tb280 O295 2.353 . S
Tb280 O297 2.427 . S
Tb280 O298 2.513 . S
C281 O285 1.251 . S
C281 O287 1.263 . S
Tb282 O284 2.343 . S
Tb282 O287 2.353 . S
Tb282 O290 2.427 . S
Tb282 O291 2.513 . S
Tb282 O292 2.453 . S
Tb282 O293 2.596 . S
Tb282 O294 2.374 . S
O283 Tb280 2.453 . S
O283 C299 1.245 . S
O284 Tb280 2.596 . S
O284 Tb282 2.343 . S
O284 C299 1.259 . S
O285 Tb280 2.374 . S
O285 C281 1.251 . S
C286 O290 1.275 . S
C286 O291 1.246 . S
O287 C281 1.263 . S
O287 Tb282 2.353 . S
C288 O292 1.245 . S
C288 O293 1.259 . S
C289 O294 1.250 . S
C289 O295 1.263 . S
O290 Tb282 2.427 . S
O290 C286 1.275 . S
O291 Tb282 2.513 . S
O291 C286 1.246 . S
O292 Tb282 2.453 . S
O292 C288 1.245 . S
O293 Tb280 2.343 . S
O293 Tb282 2.596 . S
O293 C288 1.259 . S
O294 Tb282 2.374 . S
O294 C289 1.250 . S
O295 Tb280 2.353 . S
O295 C289 1.263 . S
C296 O297 1.275 . S
C296 O298 1.246 . S
O297 Tb280 2.427 . S
O297 C296 1.275 . S
O298 Tb280 2.513 . S
O298 C296 1.246 . S
C299 O283 1.245 . S
C299 O284 1.259 . S
Tb300 O303 2.453 1_556 S
Tb300 O304 2.596 1_556 S
Tb300 O305 2.374 . S
Tb300 O313 2.343 . S
Tb300 O315 2.353 . S
Tb300 O317 2.427 . S
Tb300 O318 2.513 . S
C301 O305 1.251 . S
C301 O307 1.263 . S
Tb302 O304 2.343 1_556 S
Tb302 O307 2.353 . S
Tb302 O310 2.427 1_556 S
Tb302 O311 2.513 1_556 S
Tb302 O312 2.453 . S
Tb302 O313 2.596 . S
Tb302 O314 2.374 . S
O303 Tb300 2.453 1_554 S
O303 C319 1.245 . S
O304 Tb300 2.596 1_554 S
O304 Tb302 2.343 1_554 S
O304 C319 1.259 . S
O305 Tb300 2.374 . S
O305 C301 1.251 . S
C306 O310 1.275 . S
C306 O311 1.246 . S
O307 C301 1.263 . S
O307 Tb302 2.353 . S
C308 O312 1.245 . S
C308 O313 1.259 . S
C309 O314 1.250 . S
C309 O315 1.263 . S
O310 Tb302 2.427 1_554 S
O310 C306 1.275 . S
O311 Tb302 2.513 1_554 S
O311 C306 1.246 . S
O312 Tb302 2.453 . S
O312 C308 1.245 . S
O313 Tb300 2.343 . S
O313 Tb302 2.596 . S
O313 C308 1.259 . S
O314 Tb302 2.374 . S
O314 C309 1.250 . S
O315 Tb300 2.353 . S
O315 C309 1.263 . S
C316 O317 1.275 . S
C316 O318 1.246 . S
O317 Tb300 2.427 . S
O317 C316 1.275 . S
O318 Tb300 2.513 . S
O318 C316 1.246 . S
C319 O303 1.245 . S
C319 O304 1.259 . S
Tb320 O323 2.453 1_556 S
Tb320 O324 2.596 1_556 S
Tb320 O325 2.374 . S
Tb320 O333 2.343 . S
Tb320 O335 2.353 . S
Tb320 O337 2.427 . S
Tb320 O338 2.513 . S
C321 O325 1.251 . S
C321 O327 1.263 . S
Tb322 O324 2.343 1_556 S
Tb322 O327 2.353 . S
Tb322 O330 2.427 1_556 S
Tb322 O331 2.513 1_556 S
Tb322 O332 2.453 . S
Tb322 O333 2.596 . S
Tb322 O334 2.374 . S
O323 Tb320 2.453 1_554 S
O323 C339 1.245 . S
O324 Tb320 2.596 1_554 S
O324 Tb322 2.343 1_554 S
O324 C339 1.259 . S
O325 Tb320 2.374 . S
O325 C321 1.251 . S
C326 O330 1.275 . S
C326 O331 1.246 . S
O327 C321 1.263 . S
O327 Tb322 2.353 . S
C328 O332 1.245 . S
C328 O333 1.259 . S
C329 O334 1.250 . S
C329 O335 1.263 . S
O330 Tb322 2.427 1_554 S
O330 C326 1.275 . S
O331 Tb322 2.513 1_554 S
O331 C326 1.246 . S
O332 Tb322 2.453 . S
O332 C328 1.245 . S
O333 Tb320 2.343 . S
O333 Tb322 2.596 . S
O333 C328 1.259 . S
O334 Tb322 2.374 . S
O334 C329 1.250 . S
O335 Tb320 2.353 . S
O335 C329 1.263 . S
C336 O337 1.275 . S
C336 O338 1.246 . S
O337 Tb320 2.427 . S
O337 C336 1.275 . S
O338 Tb320 2.513 . S
O338 C336 1.246 . S
C339 O323 1.245 . S
C339 O324 1.259 . S
Tb340 O343 2.453 1_556 S
Tb340 O344 2.596 1_556 S
Tb340 O345 2.374 . S
Tb340 O353 2.343 . S
Tb340 O355 2.353 . S
Tb340 O357 2.427 . S
Tb340 O358 2.513 . S
C341 O345 1.251 . S
C341 O347 1.263 . S
Tb342 O344 2.343 1_556 S
Tb342 O347 2.353 . S
Tb342 O350 2.427 1_556 S
Tb342 O351 2.513 1_556 S
Tb342 O352 2.453 . S
Tb342 O353 2.596 . S
Tb342 O354 2.374 . S
O343 Tb340 2.453 1_554 S
O343 C359 1.245 . S
O344 Tb340 2.596 1_554 S
O344 Tb342 2.343 1_554 S
O344 C359 1.259 . S
O345 Tb340 2.374 . S
O345 C341 1.251 . S
C346 O350 1.275 . S
C346 O351 1.246 . S
O347 C341 1.263 . S
O347 Tb342 2.353 . S
C348 O352 1.245 . S
C348 O353 1.259 . S
C349 O354 1.250 . S
C349 O355 1.263 . S
O350 Tb342 2.427 1_554 S
O350 C346 1.275 . S
O351 Tb342 2.513 1_554 S
O351 C346 1.246 . S
O352 Tb342 2.453 . S
O352 C348 1.245 . S
O353 Tb340 2.343 . S
O353 Tb342 2.596 . S
O353 C348 1.259 . S
O354 Tb342 2.374 . S
O354 C349 1.250 . S
O355 Tb340 2.353 . S
O355 C349 1.263 . S
C356 O357 1.275 . S
C356 O358 1.246 . S
O357 Tb340 2.427 . S
O357 C356 1.275 . S
O358 Tb340 2.513 . S
O358 C356 1.246 . S
C359 O343 1.245 . S
C359 O344 1.259 . S
Tb360 O363 2.453 . S
Tb360 O364 2.596 . S
Tb360 O365 2.374 . S
Tb360 O373 2.343 . S
Tb360 O375 2.353 . S
Tb360 O377 2.427 . S
Tb360 O378 2.513 . S
C361 O365 1.251 . S
C361 O367 1.263 . S
Tb362 O364 2.343 . S
Tb362 O367 2.353 . S
Tb362 O370 2.427 . S
Tb362 O371 2.513 . S
Tb362 O372 2.453 . S
Tb362 O373 2.596 . S
Tb362 O374 2.374 . S
O363 Tb360 2.453 . S
O363 C379 1.245 . S
O364 Tb360 2.596 . S
O364 Tb362 2.343 . S
O364 C379 1.259 . S
O365 Tb360 2.374 . S
O365 C361 1.251 . S
C366 O370 1.275 . S
C366 O371 1.246 . S
O367 C361 1.263 . S
O367 Tb362 2.353 . S
C368 O372 1.245 . S
C368 O373 1.259 . S
C369 O374 1.250 . S
C369 O375 1.263 . S
O370 Tb362 2.427 . S
O370 C366 1.275 . S
O371 Tb362 2.513 . S
O371 C366 1.246 . S
O372 Tb362 2.453 . S
O372 C368 1.245 . S
O373 Tb360 2.343 . S
O373 Tb362 2.596 . S
O373 C368 1.259 . S
O374 Tb362 2.374 . S
O374 C369 1.250 . S
O375 Tb360 2.353 . S
O375 C369 1.263 . S
C376 O377 1.275 . S
C376 O378 1.246 . S
O377 Tb360 2.427 . S
O377 C376 1.275 . S
O378 Tb360 2.513 . S
O378 C376 1.246 . S
C379 O363 1.245 . S
C379 O364 1.259 . S
Tb380 O383 2.453 . S
Tb380 O384 2.596 . S
Tb380 O385 2.374 . S
Tb380 O393 2.343 . S
Tb380 O395 2.353 . S
Tb380 O397 2.427 . S
Tb380 O398 2.513 . S
C381 O385 1.251 . S
C381 O387 1.263 . S
Tb382 O384 2.343 . S
Tb382 O387 2.353 . S
Tb382 O390 2.427 . S
Tb382 O391 2.513 . S
Tb382 O392 2.453 . S
Tb382 O393 2.596 . S
Tb382 O394 2.374 . S
O383 Tb380 2.453 . S
O383 C399 1.245 . S
O384 Tb380 2.596 . S
O384 Tb382 2.343 . S
O384 C399 1.259 . S
O385 Tb380 2.374 . S
O385 C381 1.251 . S
C386 O390 1.275 . S
C386 O391 1.246 . S
O387 C381 1.263 . S
O387 Tb382 2.353 . S
C388 O392 1.245 . S
C388 O393 1.259 . S
C389 O394 1.250 . S
C389 O395 1.263 . S
O390 Tb382 2.427 . S
O390 C386 1.275 . S
O391 Tb382 2.513 . S
O391 C386 1.246 . S
O392 Tb382 2.453 . S
O392 C388 1.245 . S
O393 Tb380 2.343 . S
O393 Tb382 2.596 . S
O393 C388 1.259 . S
O394 Tb382 2.374 . S
O394 C389 1.250 . S
O395 Tb380 2.353 . S
O395 C389 1.263 . S
C396 O397 1.275 . S
C396 O398 1.246 . S
O397 Tb380 2.427 . S
O397 C396 1.275 . S
O398 Tb380 2.513 . S
O398 C396 1.246 . S
C399 O383 1.245 . S
C399 O384 1.259 . S
Tb400 O403 2.453 . S
Tb400 O404 2.596 . S
Tb400 O405 2.374 . S
Tb400 O413 2.343 . S
Tb400 O415 2.353 . S
Tb400 O417 2.427 . S
Tb400 O418 2.513 . S
C401 O405 1.251 . S
C401 O407 1.263 . S
Tb402 O404 2.343 . S
Tb402 O407 2.353 . S
Tb402 O410 2.427 . S
Tb402 O411 2.513 . S
Tb402 O412 2.453 . S
Tb402 O413 2.596 . S
Tb402 O414 2.374 . S
O403 Tb400 2.453 . S
O403 C419 1.245 . S
O404 Tb400 2.596 . S
O404 Tb402 2.343 . S
O404 C419 1.259 . S
O405 Tb400 2.374 . S
O405 C401 1.251 . S
C406 O410 1.275 . S
C406 O411 1.246 . S
O407 C401 1.263 . S
O407 Tb402 2.353 . S
C408 O412 1.245 . S
C408 O413 1.259 . S
C409 O414 1.250 . S
C409 O415 1.263 . S
O410 Tb402 2.427 . S
O410 C406 1.275 . S
O411 Tb402 2.513 . S
O411 C406 1.246 . S
O412 Tb402 2.453 . S
O412 C408 1.245 . S
O413 Tb400 2.343 . S
O413 Tb402 2.596 . S
O413 C408 1.259 . S
O414 Tb402 2.374 . S
O414 C409 1.250 . S
O415 Tb400 2.353 . S
O415 C409 1.263 . S
C416 O417 1.275 . S
C416 O418 1.246 . S
O417 Tb400 2.427 . S
O417 C416 1.275 . S
O418 Tb400 2.513 . S
O418 C416 1.246 . S
C419 O403 1.245 . S
C419 O404 1.259 . S
Tb420 O423 2.453 . S
Tb420 O424 2.596 . S
Tb420 O425 2.374 . S
Tb420 O433 2.343 . S
Tb420 O435 2.353 . S
Tb420 O437 2.427 . S
Tb420 O438 2.513 . S
C421 O425 1.251 . S
C421 O427 1.263 . S
Tb422 O424 2.343 . S
Tb422 O427 2.353 . S
Tb422 O430 2.427 1_556 S
Tb422 O431 2.513 1_556 S
Tb422 O432 2.453 . S
Tb422 O433 2.596 . S
Tb422 O434 2.374 . S
O423 Tb420 2.453 . S
O423 C439 1.245 . S
O424 Tb420 2.596 . S
O424 Tb422 2.343 . S
O424 C439 1.259 . S
O425 Tb420 2.374 . S
O425 C421 1.251 . S
C426 O430 1.275 . S
C426 O431 1.246 . S
O427 C421 1.263 . S
O427 Tb422 2.353 . S
C428 O432 1.245 . S
C428 O433 1.259 . S
C429 O434 1.250 . S
C429 O435 1.263 . S
O430 Tb422 2.427 1_554 S
O430 C426 1.275 . S
O431 Tb422 2.513 1_554 S
O431 C426 1.246 . S
O432 Tb422 2.453 . S
O432 C428 1.245 . S
O433 Tb420 2.343 . S
O433 Tb422 2.596 . S
O433 C428 1.259 . S
O434 Tb422 2.374 . S
O434 C429 1.250 . S
O435 Tb420 2.353 . S
O435 C429 1.263 . S
C436 O437 1.275 . S
C436 O438 1.246 . S
O437 Tb420 2.427 . S
O437 C436 1.275 . S
O438 Tb420 2.513 . S
O438 C436 1.246 . S
C439 O423 1.245 . S
C439 O424 1.259 . S
Tb440 O443 2.453 . S
Tb440 O444 2.596 . S
Tb440 O445 2.374 . S
Tb440 O453 2.343 . S
Tb440 O455 2.353 . S
Tb440 O457 2.427 . S
Tb440 O458 2.513 . S
C441 O445 1.251 . S
C441 O447 1.263 . S
Tb442 O444 2.343 . S
Tb442 O447 2.353 . S
Tb442 O450 2.427 1_556 S
Tb442 O451 2.513 1_556 S
Tb442 O452 2.453 . S
Tb442 O453 2.596 . S
Tb442 O454 2.374 . S
O443 Tb440 2.453 . S
O443 C459 1.245 . S
O444 Tb440 2.596 . S
O444 Tb442 2.343 . S
O444 C459 1.259 . S
O445 Tb440 2.374 . S
O445 C441 1.251 . S
C446 O450 1.275 . S
C446 O451 1.246 . S
O447 C441 1.263 . S
O447 Tb442 2.353 . S
C448 O452 1.245 . S
C448 O453 1.259 . S
C449 O454 1.250 . S
C449 O455 1.263 . S
O450 Tb442 2.427 1_554 S
O450 C446 1.275 . S
O451 Tb442 2.513 1_554 S
O451 C446 1.246 . S
O452 Tb442 2.453 . S
O452 C448 1.245 . S
O453 Tb440 2.343 . S
O453 Tb442 2.596 . S
O453 C448 1.259 . S
O454 Tb442 2.374 . S
O454 C449 1.250 . S
O455 Tb440 2.353 . S
O455 C449 1.263 . S
C456 O457 1.275 . S
C456 O458 1.246 . S
O457 Tb440 2.427 . S
O457 C456 1.275 . S
O458 Tb440 2.513 . S
O458 C456 1.246 . S
C459 O443 1.245 . S
C459 O444 1.259 . S
Tb460 O463 2.453 . S
Tb460 O464 2.596 . S
Tb460 O465 2.374 . S
Tb460 O473 2.343 . S
Tb460 O475 2.353 . S
Tb460 O477 2.427 . S
Tb460 O478 2.513 . S
C461 O465 1.251 . S
C461 O467 1.263 . S
Tb462 O464 2.343 . S
Tb462 O467 2.353 . S
Tb462 O470 2.427 1_556 S
Tb462 O471 2.513 1_556 S
Tb462 O472 2.453 . S
Tb462 O473 2.596 . S
Tb462 O474 2.374 . S
O463 Tb460 2.453 . S
O463 C479 1.245 . S
O464 Tb460 2.596 . S
O464 Tb462 2.343 . S
O464 C479 1.259 . S
O465 Tb460 2.374 . S
O465 C461 1.251 . S
C466 O470 1.275 . S
C466 O471 1.246 . S
O467 C461 1.263 . S
O467 Tb462 2.353 . S
C468 O472 1.245 . S
C468 O473 1.259 . S
C469 O474 1.250 . S
C469 O475 1.263 . S
O470 Tb462 2.427 1_554 S
O470 C466 1.275 . S
O471 Tb462 2.513 1_554 S
O471 C466 1.246 . S
O472 Tb462 2.453 . S
O472 C468 1.245 . S
O473 Tb460 2.343 . S
O473 Tb462 2.596 . S
O473 C468 1.259 . S
O474 Tb462 2.374 . S
O474 C469 1.250 . S
O475 Tb460 2.353 . S
O475 C469 1.263 . S
C476 O477 1.275 . S
C476 O478 1.246 . S
O477 Tb460 2.427 . S
O477 C476 1.275 . S
O478 Tb460 2.513 . S
O478 C476 1.246 . S
C479 O463 1.245 . S
C479 O464 1.259 . S
Tb480 O483 2.453 . S
Tb480 O484 2.596 . S
Tb480 O485 2.374 . S
Tb480 O493 2.343 . S
Tb480 O495 2.353 . S
Tb480 O497 2.427 . S
Tb480 O498 2.513 . S
C481 O485 1.251 . S
C481 O487 1.263 . S
Tb482 O484 2.343 . S
Tb482 O487 2.353 . S
Tb482 O490 2.427 . S
Tb482 O491 2.513 . S
Tb482 O492 2.453 . S
Tb482 O493 2.596 . S
Tb482 O494 2.374 . S
O483 Tb480 2.453 . S
O483 C499 1.245 . S
O484 Tb480 2.596 . S
O484 Tb482 2.343 . S
O484 C499 1.259 . S
O485 Tb480 2.374 . S
O485 C481 1.251 . S
C486 O490 1.275 . S
C486 O491 1.246 . S
O487 C481 1.263 . S
O487 Tb482 2.353 . S
C488 O492 1.245 . S
C488 O493 1.259 . S
C489 O494 1.250 . S
C489 O495 1.263 . S
O490 Tb482 2.427 . S
O490 C486 1.275 . S
O491 Tb482 2.513 . S
O491 C486 1.246 . S
O492 Tb482 2.453 . S
O492 C488 1.245 . S
O493 Tb480 2.343 . S
O493 Tb482 2.596 . S
O493 C488 1.259 . S
O494 Tb482 2.374 . S
O494 C489 1.250 . S
O495 Tb480 2.353 . S
O495 C489 1.263 . S
C496 O497 1.275 . S
C496 O498 1.246 . S
O497 Tb480 2.427 . S
O497 C496 1.275 . S
O498 Tb480 2.513 . S
O498 C496 1.246 . S
C499 O483 1.245 . S
C499 O484 1.259 . S
Tb500 O503 2.453 . S
Tb500 O504 2.596 . S
Tb500 O505 2.374 . S
Tb500 O513 2.343 . S
Tb500 O515 2.353 . S
Tb500 O517 2.427 . S
Tb500 O518 2.513 . S
C501 O505 1.251 . S
C501 O507 1.263 . S
Tb502 O504 2.343 . S
Tb502 O507 2.353 . S
Tb502 O510 2.427 . S
Tb502 O511 2.513 . S
Tb502 O512 2.453 . S
Tb502 O513 2.596 . S
Tb502 O514 2.374 . S
O503 Tb500 2.453 . S
O503 C519 1.245 . S
O504 Tb500 2.596 . S
O504 Tb502 2.343 . S
O504 C519 1.259 . S
O505 Tb500 2.374 . S
O505 C501 1.251 . S
C506 O510 1.275 . S
C506 O511 1.246 . S
O507 C501 1.263 . S
O507 Tb502 2.353 . S
C508 O512 1.245 . S
C508 O513 1.259 . S
C509 O514 1.250 . S
C509 O515 1.263 . S
O510 Tb502 2.427 . S
O510 C506 1.275 . S
O511 Tb502 2.513 . S
O511 C506 1.246 . S
O512 Tb502 2.453 . S
O512 C508 1.245 . S
O513 Tb500 2.343 . S
O513 Tb502 2.596 . S
O513 C508 1.259 . S
O514 Tb502 2.374 . S
O514 C509 1.250 . S
O515 Tb500 2.353 . S
O515 C509 1.263 . S
C516 O517 1.275 . S
C516 O518 1.246 . S
O517 Tb500 2.427 . S
O517 C516 1.275 . S
O518 Tb500 2.513 . S
O518 C516 1.246 . S
C519 O503 1.245 . S
C519 O504 1.259 . S
Tb520 O523 2.453 . S
Tb520 O524 2.596 . S
Tb520 O525 2.374 . S
Tb520 O533 2.343 . S
Tb520 O535 2.353 . S
Tb520 O537 2.427 . S
Tb520 O538 2.513 . S
C521 O525 1.251 . S
C521 O527 1.263 . S
Tb522 O524 2.343 . S
Tb522 O527 2.353 . S
Tb522 O530 2.427 . S
Tb522 O531 2.513 . S
Tb522 O532 2.453 . S
Tb522 O533 2.596 . S
Tb522 O534 2.374 . S
O523 Tb520 2.453 . S
O523 C539 1.245 . S
O524 Tb520 2.596 . S
O524 Tb522 2.343 . S
O524 C539 1.259 . S
O525 Tb520 2.374 . S
O525 C521 1.251 . S
C526 O530 1.275 . S
C526 O531 1.246 . S
O527 C521 1.263 . S
O527 Tb522 2.353 . S
C528 O532 1.245 . S
C528 O533 1.259 . S
C529 O534 1.250 . S
C529 O535 1.263 . S
O530 Tb522 2.427 . S
O530 C526 1.275 . S
O531 Tb522 2.513 . S
O531 C526 1.246 . S
O532 Tb522 2.453 . S
O532 C528 1.245 . S
O533 Tb520 2.343 . S
O533 Tb522 2.596 . S
O533 C528 1.259 . S
O534 Tb522 2.374 . S
O534 C529 1.250 . S
O535 Tb520 2.353 . S
O535 C529 1.263 . S
C536 O537 1.275 . S
C536 O538 1.246 . S
O537 Tb520 2.427 . S
O537 C536 1.275 . S
O538 Tb520 2.513 . S
O538 C536 1.246 . S
C539 O523 1.245 . S
C539 O524 1.259 . S
Tb540 O543 2.453 . S
Tb540 O544 2.596 . S
Tb540 O545 2.374 . S
Tb540 O553 2.343 . S
Tb540 O555 2.353 . S
Tb540 O557 2.427 . S
Tb540 O558 2.513 . S
C541 O545 1.251 . S
C541 O547 1.263 . S
Tb542 O544 2.343 . S
Tb542 O547 2.353 . S
Tb542 O550 2.427 . S
Tb542 O551 2.513 . S
Tb542 O552 2.453 . S
Tb542 O553 2.596 . S
Tb542 O554 2.374 . S
O543 Tb540 2.453 . S
O543 C559 1.245 . S
O544 Tb540 2.596 . S
O544 Tb542 2.343 . S
O544 C559 1.259 . S
O545 Tb540 2.374 . S
O545 C541 1.251 . S
C546 O550 1.275 . S
C546 O551 1.246 . S
O547 C541 1.263 . S
O547 Tb542 2.353 . S
C548 O552 1.245 . S
C548 O553 1.259 . S
C549 O554 1.250 . S
C549 O555 1.263 . S
O550 Tb542 2.427 . S
O550 C546 1.275 . S
O551 Tb542 2.513 . S
O551 C546 1.246 . S
O552 Tb542 2.453 . S
O552 C548 1.245 . S
O553 Tb540 2.343 . S
O553 Tb542 2.596 . S
O553 C548 1.259 . S
O554 Tb542 2.374 . S
O554 C549 1.250 . S
O555 Tb540 2.353 . S
O555 C549 1.263 . S
C556 O557 1.275 . S
C556 O558 1.246 . S
O557 Tb540 2.427 . S
O557 C556 1.275 . S
O558 Tb540 2.513 . S
O558 C556 1.246 . S
C559 O543 1.245 . S
C559 O544 1.259 . S
Tb560 O563 2.453 . S
Tb560 O564 2.596 . S
Tb560 O565 2.374 . S
Tb560 O573 2.343 . S
Tb560 O575 2.353 . S
Tb560 O577 2.427 . S
Tb560 O578 2.513 . S
C561 O565 1.251 . S
C561 O567 1.263 . S
Tb562 O564 2.343 . S
Tb562 O567 2.353 . S
Tb562 O570 2.427 . S
Tb562 O571 2.513 . S
Tb562 O572 2.453 . S
Tb562 O573 2.596 . S
Tb562 O574 2.374 . S
O563 Tb560 2.453 . S
O563 C579 1.245 . S
O564 Tb560 2.596 . S
O564 Tb562 2.343 . S
O564 C579 1.259 . S
O565 Tb560 2.374 . S
O565 C561 1.251 . S
C566 O570 1.275 . S
C566 O571 1.246 . S
O567 C561 1.263 . S
O567 Tb562 2.353 . S
C568 O572 1.245 . S
C568 O573 1.259 . S
C569 O574 1.250 . S
C569 O575 1.263 . S
O570 Tb562 2.427 . S
O570 C566 1.275 . S
O571 Tb562 2.513 . S
O571 C566 1.246 . S
O572 Tb562 2.453 . S
O572 C568 1.245 . S
O573 Tb560 2.343 . S
O573 Tb562 2.596 . S
O573 C568 1.259 . S
O574 Tb562 2.374 . S
O574 C569 1.250 . S
O575 Tb560 2.353 . S
O575 C569 1.263 . S
C576 O577 1.275 . S
C576 O578 1.246 . S
O577 Tb560 2.427 . S
O577 C576 1.275 . S
O578 Tb560 2.513 . S
O578 C576 1.246 . S
C579 O563 1.245 . S
C579 O564 1.259 . S
Tb580 O583 2.453 . S
Tb580 O584 2.596 . S
Tb580 O585 2.374 . S
Tb580 O593 2.343 . S
Tb580 O595 2.353 . S
Tb580 O597 2.427 . S
Tb580 O598 2.513 . S
C581 O585 1.251 . S
C581 O587 1.263 . S
Tb582 O584 2.343 . S
Tb582 O587 2.353 . S
Tb582 O590 2.427 . S
Tb582 O591 2.513 . S
Tb582 O592 2.453 . S
Tb582 O593 2.596 . S
Tb582 O594 2.374 . S
O583 Tb580 2.453 . S
O583 C599 1.245 . S
O584 Tb580 2.596 . S
O584 Tb582 2.343 . S
O584 C599 1.259 . S
O585 Tb580 2.374 . S
O585 C581 1.251 . S
C586 O590 1.275 . S
C586 O591 1.246 . S
O587 C581 1.263 . S
O587 Tb582 2.353 . S
C588 O592 1.245 . S
C588 O593 1.259 . S
C589 O594 1.250 . S
C589 O595 1.263 . S
O590 Tb582 2.427 . S
O590 C586 1.275 . S
O591 Tb582 2.513 . S
O591 C586 1.246 . S
O592 Tb582 2.453 . S
O592 C588 1.245 . S
O593 Tb580 2.343 . S
O593 Tb582 2.596 . S
O593 C588 1.259 . S
O594 Tb582 2.374 . S
O594 C589 1.250 . S
O595 Tb580 2.353 . S
O595 C589 1.263 . S
C596 O597 1.275 . S
C596 O598 1.246 . S
O597 Tb580 2.427 . S
O597 C596 1.275 . S
O598 Tb580 2.513 . S
O598 C596 1.246 . S
C599 O583 1.245 . S
C599 O584 1.259 . S
Tb600 O603 2.453 . S
Tb600 O604 2.596 . S
Tb600 O605 2.374 . S
Tb600 O613 2.343 . S
Tb600 O615 2.353 . S
Tb600 O617 2.427 . S
Tb600 O618 2.513 . S
C601 O605 1.251 . S
C601 O607 1.263 . S
Tb602 O604 2.343 . S
Tb602 O607 2.353 . S
Tb602 O610 2.427 . S
Tb602 O611 2.513 . S
Tb602 O612 2.453 . S
Tb602 O613 2.596 . S
Tb602 O614 2.374 . S
O603 Tb600 2.453 . S
O603 C619 1.245 . S
O604 Tb600 2.596 . S
O604 Tb602 2.343 . S
O604 C619 1.259 . S
O605 Tb600 2.374 . S
O605 C601 1.251 . S
C606 O610 1.275 . S
C606 O611 1.246 . S
O607 C601 1.263 . S
O607 Tb602 2.353 . S
C608 O612 1.245 . S
C608 O613 1.259 . S
C609 O614 1.250 . S
C609 O615 1.263 . S
O610 Tb602 2.427 . S
O610 C606 1.275 . S
O611 Tb602 2.513 . S
O611 C606 1.246 . S
O612 Tb602 2.453 . S
O612 C608 1.245 . S
O613 Tb600 2.343 . S
O613 Tb602 2.596 . S
O613 C608 1.259 . S
O614 Tb602 2.374 . S
O614 C609 1.250 . S
O615 Tb600 2.353 . S
O615 C609 1.263 . S
C616 O617 1.275 1_554 S
C616 O618 1.246 1_554 S
O617 Tb600 2.427 . S
O617 C616 1.275 1_556 S
O618 Tb600 2.513 . S
O618 C616 1.246 1_556 S
C619 O603 1.245 . S
C619 O604 1.259 . S
Tb620 O623 2.453 . S
Tb620 O624 2.596 . S
Tb620 O625 2.374 . S
Tb620 O633 2.343 . S
Tb620 O635 2.353 . S
Tb620 O637 2.427 . S
Tb620 O638 2.513 . S
C621 O625 1.251 . S
C621 O627 1.263 . S
Tb622 O624 2.343 . S
Tb622 O627 2.353 . S
Tb622 O630 2.427 . S
Tb622 O631 2.513 . S
Tb622 O632 2.453 . S
Tb622 O633 2.596 . S
Tb622 O634 2.374 . S
O623 Tb620 2.453 . S
O623 C639 1.245 . S
O624 Tb620 2.596 . S
O624 Tb622 2.343 . S
O624 C639 1.259 . S
O625 Tb620 2.374 . S
O625 C621 1.251 . S
C626 O630 1.275 . S
C626 O631 1.246 . S
O627 C621 1.263 . S
O627 Tb622 2.353 . S
C628 O632 1.245 . S
C628 O633 1.259 . S
C629 O634 1.250 . S
C629 O635 1.263 . S
O630 Tb622 2.427 . S
O630 C626 1.275 . S
O631 Tb622 2.513 . S
O631 C626 1.246 . S
O632 Tb622 2.453 . S
O632 C628 1.245 . S
O633 Tb620 2.343 . S
O633 Tb622 2.596 . S
O633 C628 1.259 . S
O634 Tb622 2.374 . S
O634 C629 1.250 . S
O635 Tb620 2.353 . S
O635 C629 1.263 . S
C636 O637 1.275 1_554 S
C636 O638 1.246 1_554 S
O637 Tb620 2.427 . S
O637 C636 1.275 1_556 S
O638 Tb620 2.513 . S
O638 C636 1.246 1_556 S
C639 O623 1.245 . S
C639 O624 1.259 . S
Tb640 O643 2.453 . S
Tb640 O644 2.596 . S
Tb640 O645 2.374 . S
Tb640 O653 2.343 . S
Tb640 O655 2.353 . S
Tb640 O657 2.427 . S
Tb640 O658 2.513 . S
C641 O645 1.251 . S
C641 O647 1.263 . S
Tb642 O644 2.343 . S
Tb642 O647 2.353 . S
Tb642 O650 2.427 . S
Tb642 O651 2.513 . S
Tb642 O652 2.453 . S
Tb642 O653 2.596 . S
Tb642 O654 2.374 . S
O643 Tb640 2.453 . S
O643 C659 1.245 . S
O644 Tb640 2.596 . S
O644 Tb642 2.343 . S
O644 C659 1.259 . S
O645 Tb640 2.374 . S
O645 C641 1.251 . S
C646 O650 1.275 . S
C646 O651 1.246 . S
O647 C641 1.263 . S
O647 Tb642 2.353 . S
C648 O652 1.245 . S
C648 O653 1.259 . S
C649 O654 1.250 . S
C649 O655 1.263 . S
O650 Tb642 2.427 . S
O650 C646 1.275 . S
O651 Tb642 2.513 . S
O651 C646 1.246 . S
O652 Tb642 2.453 . S
O652 C648 1.245 . S
O653 Tb640 2.343 . S
O653 Tb642 2.596 . S
O653 C648 1.259 . S
O654 Tb642 2.374 . S
O654 C649 1.250 . S
O655 Tb640 2.353 . S
O655 C649 1.263 . S
C656 O657 1.275 1_554 S
C656 O658 1.246 1_554 S
O657 Tb640 2.427 . S
O657 C656 1.275 1_556 S
O658 Tb640 2.513 . S
O658 C656 1.246 1_556 S
C659 O643 1.245 . S
C659 O644 1.259 . S
Tb660 O663 2.453 . S
Tb660 O664 2.596 . S
Tb660 O665 2.374 . S
Tb660 O673 2.343 . S
Tb660 O675 2.353 . S
Tb660 O677 2.427 1_554 S
Tb660 O678 2.513 1_554 S
C661 O665 1.251 . S
C661 O667 1.263 . S
Tb662 O664 2.343 . S
Tb662 O667 2.353 . S
Tb662 O670 2.427 . S
Tb662 O671 2.513 . S
Tb662 O672 2.453 . S
Tb662 O673 2.596 . S
Tb662 O674 2.374 . S
O663 Tb660 2.453 . S
O663 C679 1.245 . S
O664 Tb660 2.596 . S
O664 Tb662 2.343 . S
O664 C679 1.259 . S
O665 Tb660 2.374 . S
O665 C661 1.251 . S
C666 O670 1.275 . S
C666 O671 1.246 . S
O667 C661 1.263 . S
O667 Tb662 2.353 . S
C668 O672 1.245 . S
C668 O673 1.259 . S
C669 O674 1.250 . S
C669 O675 1.263 . S
O670 Tb662 2.427 . S
O670 C666 1.275 . S
O671 Tb662 2.513 . S
O671 C666 1.246 . S
O672 Tb662 2.453 . S
O672 C668 1.245 . S
O673 Tb660 2.343 . S
O673 Tb662 2.596 . S
O673 C668 1.259 . S
O674 Tb662 2.374 . S
O674 C669 1.250 . S
O675 Tb660 2.353 . S
O675 C669 1.263 . S
C676 O677 1.275 . S
C676 O678 1.246 . S
O677 Tb660 2.427 1_556 S
O677 C676 1.275 . S
O678 Tb660 2.513 1_556 S
O678 C676 1.246 . S
C679 O663 1.245 . S
C679 O664 1.259 . S
Tb680 O683 2.453 . S
Tb680 O684 2.596 . S
Tb680 O685 2.374 . S
Tb680 O693 2.343 . S
Tb680 O695 2.353 . S
Tb680 O697 2.427 1_554 S
Tb680 O698 2.513 1_554 S
C681 O685 1.251 . S
C681 O687 1.263 . S
Tb682 O684 2.343 . S
Tb682 O687 2.353 . S
Tb682 O690 2.427 . S
Tb682 O691 2.513 . S
Tb682 O692 2.453 . S
Tb682 O693 2.596 . S
Tb682 O694 2.374 . S
O683 Tb680 2.453 . S
O683 C699 1.245 . S
O684 Tb680 2.596 . S
O684 Tb682 2.343 . S
O684 C699 1.259 . S
O685 Tb680 2.374 . S
O685 C681 1.251 . S
C686 O690 1.275 . S
C686 O691 1.246 . S
O687 C681 1.263 . S
O687 Tb682 2.353 . S
C688 O692 1.245 . S
C688 O693 1.259 . S
C689 O694 1.250 . S
C689 O695 1.263 . S
O690 Tb682 2.427 . S
O690 C686 1.275 . S
O691 Tb682 2.513 . S
O691 C686 1.246 . S
O692 Tb682 2.453 . S
O692 C688 1.245 . S
O693 Tb680 2.343 . S
O693 Tb682 2.596 . S
O693 C688 1.259 . S
O694 Tb682 2.374 . S
O694 C689 1.250 . S
O695 Tb680 2.353 . S
O695 C689 1.263 . S
C696 O697 1.275 . S
C696 O698 1.246 . S
O697 Tb680 2.427 1_556 S
O697 C696 1.275 . S
O698 Tb680 2.513 1_556 S
O698 C696 1.246 . S
C699 O683 1.245 . S
C699 O684 1.259 . S
Tb700 O703 2.453 . S
Tb700 O704 2.596 . S
Tb700 O705 2.374 . S
Tb700 O713 2.343 . S
Tb700 O715 2.353 . S
Tb700 O717 2.427 1_554 S
Tb700 O718 2.513 1_554 S
C701 O705 1.251 . S
C701 O707 1.263 . S
Tb702 O704 2.343 . S
Tb702 O707 2.353 . S
Tb702 O710 2.427 . S
Tb702 O711 2.513 . S
Tb702 O712 2.453 . S
Tb702 O713 2.596 . S
Tb702 O714 2.374 . S
O703 Tb700 2.453 . S
O703 C719 1.245 . S
O704 Tb700 2.596 . S
O704 Tb702 2.343 . S
O704 C719 1.259 . S
O705 Tb700 2.374 . S
O705 C701 1.251 . S
C706 O710 1.275 . S
C706 O711 1.246 . S
O707 C701 1.263 . S
O707 Tb702 2.353 . S
C708 O712 1.245 . S
C708 O713 1.259 . S
C709 O714 1.250 . S
C709 O715 1.263 . S
O710 Tb702 2.427 . S
O710 C706 1.275 . S
O711 Tb702 2.513 . S
O711 C706 1.246 . S
O712 Tb702 2.453 . S
O712 C708 1.245 . S
O713 Tb700 2.343 . S
O713 Tb702 2.596 . S
O713 C708 1.259 . S
O714 Tb702 2.374 . S
O714 C709 1.250 . S
O715 Tb700 2.353 . S
O715 C709 1.263 . S
C716 O717 1.275 . S
C716 O718 1.246 . S
O717 Tb700 2.427 1_556 S
O717 C716 1.275 . S
O718 Tb700 2.513 1_556 S
O718 C716 1.246 . S
C719 O703 1.245 . S
C719 O704 1.259 . S
C301 C1 1.143 . S
C321 C21 1.142 . S
C41 C341 1.143 . S
C61 C481 1.143 . S
C81 C501 1.142 . S
C101 C521 1.142 . S
C669 C129 1.142 . S
C689 C149 1.143 . S
C169 C709 1.142 . S
C369 C189 1.143 . S
C209 C389 1.142 . S
C229 C409 1.143 . S
C541 C241 1.142 . S
C261 C561 1.142 1_565 S
C581 C281 1.142 1_655 S
C609 C429 1.143 . S
C629 C449 1.143 1_545 S
C469 C649 1.142 1_455 S
C19 C99 1.738 1_455 S
C39 C119 1.738 . S
C59 C79 1.738 1_565 S
C128 C208 1.738 1_655 S
C148 C228 1.738 . S
C168 C188 1.738 1_545 S
C259 C339 1.738 . S
C359 C279 1.738 . S
C299 C319 1.738 . S
C368 C448 1.738 . S
C388 C468 1.738 . S
C428 C408 1.738 . S
C499 C579 1.738 . S
C599 C519 1.738 . S
C539 C559 1.738 . S
C608 C688 1.738 1_556 S
C628 C708 1.738 1_556 S
C648 C668 1.738 1_556 S
C219 C6 1.840 . S
C26 C239 1.840 . S
C46 C199 1.840 . S
C66 C179 1.840 . S
C86 C139 1.840 . S
C159 C106 1.840 . S
C136 C88 1.840 . S
C108 C156 1.840 . S
C176 C68 1.840 . S
C196 C48 1.840 . S
C8 C216 1.840 . S
C28 C236 1.840 . S
C459 C246 1.840 1_556 S
C479 C266 1.840 1_556 S
C439 C286 1.840 1_556 S
C419 C306 1.840 . S
C326 C379 1.840 . S
C399 C346 1.840 . S
C328 C376 1.840 . S
C396 C348 1.840 . S
C416 C308 1.840 . S
C288 C436 1.840 . S
C456 C248 1.840 . S
C476 C268 1.840 . S
C486 C699 1.840 . S
C506 C719 1.840 . S
C679 C526 1.840 . S
C659 C546 1.840 . S
C566 C619 1.840 . S
C639 C586 1.840 . S
C616 C568 1.840 . S
C588 C636 1.840 . S
C656 C548 1.840 . S
C676 C528 1.840 . S
C488 C696 1.840 . S
C508 C716 1.840 . S
C16 C96 1.536 1_455 S
C116 C36 1.536 . S
C56 C76 1.536 1_565 S
C126 C206 1.536 1_655 S
C226 C146 1.536 . S
C166 C186 1.536 1_545 S
C336 C256 1.536 . S
C356 C276 1.536 . S
C316 C296 1.536 . S
C446 C366 1.536 . S
C386 C466 1.536 . S
C426 C406 1.536 . S
C576 C496 1.536 1_554 S
C516 C596 1.536 1_556 S
C536 C556 1.536 1_556 S
C686 C606 1.536 . S
C626 C706 1.536 . S
C646 C666 1.536 . S
C9 C121 1.091 1_655 S
C29 C141 1.091 . S
C161 C49 1.091 1_565 S
C181 C69 1.091 1_545 S
C89 C201 1.091 1_455 S
C109 C221 1.091 . S
C361 C249 1.091 . S
C269 C381 1.091 . S
C401 C289 1.091 . S
C421 C309 1.091 . S
C441 C329 1.091 . S
C461 C349 1.091 . S
C601 C489 1.091 . S
C509 C621 1.091 . S
C641 C529 1.091 . S
C661 C549 1.091 . S
C681 C569 1.091 . S
C589 C701 1.091 . S
