# Generated by pormake.
# Topology acs-a, (4)-cn, num edge types: 1
# Building blocks:
#     Node 0, Type 0, BuildingBlock: ICAMEG_clean_sbu_1, # of connection points: 4
#     Node 1, Type 0, BuildingBlock: ICAMEG_clean_sbu_1, # of connection points: 4
#     Node 2, Type 0, BuildingBlock: ICAMEG_clean_sbu_1, # of connection points: 4
#     Node 3, Type 0, BuildingBlock: ICAMEG_clean_sbu_1, # of connection points: 4
#     Node 4, Type 0, BuildingBlock: ICAMEG_clean_sbu_1, # of connection points: 4
#     Node 5, Type 0, BuildingBlock: ICAMEG_clean_sbu_1, # of connection points: 4
#     Node 6, Type 0, BuildingBlock: ICAMEG_clean_sbu_1, # of connection points: 4
#     Node 7, Type 0, BuildingBlock: ICAMEG_clean_sbu_1, # of connection points: 4
#     Node 8, Type 0, BuildingBlock: ICAMEG_clean_sbu_1, # of connection points: 4
#     Node 9, Type 0, BuildingBlock: ICAMEG_clean_sbu_1, # of connection points: 4
#     Node 10, Type 0, BuildingBlock: ICAMEG_clean_sbu_1, # of connection points: 4
#     Node 11, Type 0, BuildingBlock: ICAMEG_clean_sbu_1, # of connection points: 4
#     Edge 12, Type (0, 0), BuildingBlock: XUDNAN_clean_linker_2, # of connection points: 2
#     Edge 13, Type (0, 0), BuildingBlock: XUDNAN_clean_linker_2, # of connection points: 2
#     Edge 14, Type (0, 0), BuildingBlock: XUDNAN_clean_linker_2, # of connection points: 2
#     Edge 15, Type (0, 0), BuildingBlock: XUDNAN_clean_linker_2, # of connection points: 2
#     Edge 16, Type (0, 0), BuildingBlock: XUDNAN_clean_linker_2, # of connection points: 2
#     Edge 17, Type (0, 0), BuildingBlock: XUDNAN_clean_linker_2, # of connection points: 2
#     Edge 18, Type (0, 0), BuildingBlock: XUDNAN_clean_linker_2, # of connection points: 2
#     Edge 19, Type (0, 0), BuildingBlock: XUDNAN_clean_linker_2, # of connection points: 2
#     Edge 20, Type (0, 0), BuildingBlock: XUDNAN_clean_linker_2, # of connection points: 2
#     Edge 21, Type (0, 0), BuildingBlock: XUDNAN_clean_linker_2, # of connection points: 2
#     Edge 22, Type (0, 0), BuildingBlock: XUDNAN_clean_linker_2, # of connection points: 2
#     Edge 23, Type (0, 0), BuildingBlock: XUDNAN_clean_linker_2, # of connection points: 2
#     Edge 24, Type (0, 0), BuildingBlock: XUDNAN_clean_linker_2, # of connection points: 2
#     Edge 25, Type (0, 0), BuildingBlock: XUDNAN_clean_linker_2, # of connection points: 2
#     Edge 26, Type (0, 0), BuildingBlock: XUDNAN_clean_linker_2, # of connection points: 2
#     Edge 27, Type (0, 0), BuildingBlock: XUDNAN_clean_linker_2, # of connection points: 2
#     Edge 28, Type (0, 0), BuildingBlock: XUDNAN_clean_linker_2, # of connection points: 2
#     Edge 29, Type (0, 0), BuildingBlock: XUDNAN_clean_linker_2, # of connection points: 2
#     Edge 30, Type (0, 0), BuildingBlock: XUDNAN_clean_linker_2, # of connection points: 2
#     Edge 31, Type (0, 0), BuildingBlock: XUDNAN_clean_linker_2, # of connection points: 2
#     Edge 32, Type (0, 0), BuildingBlock: XUDNAN_clean_linker_2, # of connection points: 2
#     Edge 33, Type (0, 0), BuildingBlock: XUDNAN_clean_linker_2, # of connection points: 2
#     Edge 34, Type (0, 0), BuildingBlock: XUDNAN_clean_linker_2, # of connection points: 2
#     Edge 35, Type (0, 0), BuildingBlock: XUDNAN_clean_linker_2, # of connection points: 2
# Relax obj value: 0.495
# Max RMSD: 0.318
# Mean RMSD: 0.247
data_MOF--net-acs-a--node1-ICAMEG_clean_sbu_1--edge1-XUDNAN_clean_linker_2
_symmetry_space_group_name_H-M    P1
_symmetry_Int_Tables_number       1
_symmetry_cell_setting            triclinic
loop_
_symmetry_equiv_pos_as_xyz
'x, y, z'
_cell_length_a     54.426739
_cell_length_b     44.884353
_cell_length_c     44.103083
_cell_angle_alpha  89.978128
_cell_angle_beta   90.005709
_cell_angle_gamma 114.44127
loop_
_atom_site_label
_atom_site_type_symbol
_atom_site_fract_x
_atom_site_fract_y
_atom_site_fract_z
_atom_type_partial_charge
Co0 Co 0.60204 0.15946 0.10007 0.0
Co1 Co 0.58827 0.14414 0.02481 0.0
O2 O 0.58148 0.13034 0.06732 0.0
C3 C 0.61584 0.11374 0.13833 0.0
O4 O 0.64156 0.13142 0.13305 0.0
C5 C 0.52842 0.11521 0.03084 0.0
O6 O 0.53127 0.12845 0.05782 0.0
O7 O 0.58138 0.18316 0.03418 0.0
O8 O 0.60532 0.19952 0.07703 0.0
H9 H 0.62877 0.22559 0.94088 0.0
H10 H 0.54927 0.10503 0.11461 0.0
O11 O 0.59801 0.11994 0.12437 0.0
H12 H 0.54037 0.20532 0.14667 0.0
H13 H 0.62354 0.19618 0.20887 0.0
H14 H 0.65201 0.2207 0.10226 0.0
H15 H 0.58271 0.20842 0.12404 0.0
H16 H 0.5967 0.16029 0.16782 0.0
O17 O 0.54898 0.11889 0.01488 0.0
H18 H 0.62056 0.20707 0.99403 0.0
H19 H 0.56901 0.11106 0.96528 0.0
H20 H 0.67931 0.25756 0.14255 0.0
H21 H 0.5068 0.10072 0.13793 0.0
H22 H 0.66519 0.24534 0.19635 0.0
H23 H 0.50207 0.15112 0.15401 0.0
O24 O 0.63624 0.16204 0.08128 0.0
H25 H 0.56795 0.02441 0.02897 0.0
H26 H 0.63156 0.13265 0.992 0.0
H27 H 0.6406 0.08415 0.98147 0.0
H28 H 0.6086 0.02953 0.99991 0.0
H29 H 0.55985 0.07365 0.03925 0.0
H30 H 0.5765 0.12863 0.9118 0.0
H31 H 0.60666 0.18624 0.89931 0.0
O32 O 0.62783 0.17009 0.03293 0.0
C33 C 0.59294 0.20467 0.05444 0.0
C34 C 0.61566 0.2004 0.94602 0.0
C35 C 0.58629 0.14599 0.92971 0.0
N36 N 0.59451 0.15795 0.98276 0.0
C37 C 0.61099 0.18974 0.97608 0.0
C38 C 0.58209 0.1362 0.96004 0.0
C39 C 0.60322 0.17832 0.92272 0.0
C40 C 0.54752 0.12708 0.12181 0.0
N41 N 0.56852 0.15698 0.11783 0.0
C42 C 0.52335 0.12448 0.13488 0.0
C43 C 0.52069 0.15276 0.14385 0.0
C44 C 0.54214 0.18317 0.13968 0.0
C45 C 0.56603 0.18481 0.12658 0.0
C46 C 0.63 0.20169 0.18554 0.0
C47 C 0.64573 0.21511 0.12559 0.0
C48 C 0.61494 0.18128 0.16219 0.0
N49 N 0.6229 0.18802 0.13264 0.0
C50 C 0.66127 0.23613 0.14832 0.0
C51 C 0.65333 0.22928 0.17849 0.0
C52 C 0.64409 0.1716 0.05434 0.0
C53 C 0.58201 0.04807 0.02075 0.0
C54 C 0.61761 0.10899 1.00022 0.0
C55 C 0.6228 0.0816 0.99413 0.0
C56 C 0.60483 0.05096 0.00447 0.0
N57 N 0.59511 0.10592 0.01608 0.0
C58 C 0.57748 0.076 0.02643 0.0
Co59 Co 0.34842 0.49367 0.60947 0.0
Co60 Co 0.38629 0.52659 0.54567 0.0
O61 O 0.37595 0.49592 0.57999 0.0
C62 C 0.3902 0.50074 0.65673 0.0
O63 O 0.40573 0.53012 0.64672 0.0
C64 C 0.37854 0.46209 0.51933 0.0
O65 O 0.35622 0.44791 0.53507 0.0
O66 O 0.3477 0.51171 0.53246 0.0
O67 O 0.32706 0.50329 0.57761 0.0
H68 H 0.38053 0.6142 0.47883 0.0
H69 H 0.36499 0.43866 0.6058 0.0
O70 O 0.36853 0.48323 0.64282 0.0
H71 H 0.26751 0.39013 0.58325 0.0
H72 H 0.28745 0.44705 0.69944 0.0
H73 H 0.31778 0.53386 0.62176 0.0
H74 H 0.29134 0.4489 0.59496 0.0
H75 H 0.3208 0.44892 0.66084 0.0
O76 O 0.39125 0.49309 0.51956 0.0
H77 H 0.36736 0.57512 0.52139 0.0
H78 H 0.42798 0.54307 0.49693 0.0
H79 H 0.2846 0.53307 0.66015 0.0
H80 H 0.34189 0.37965 0.5946 0.0
H81 H 0.26909 0.48933 0.69924 0.0
H82 H 0.29282 0.35505 0.5831 0.0
O83 O 0.36751 0.54167 0.6175 0.0
H84 H 0.46838 0.5117 0.58089 0.0
H85 H 0.4317 0.59218 0.55499 0.0
H86 H 0.47896 0.61153 0.57181 0.0
H87 H 0.49766 0.57115 0.58474 0.0
H88 H 0.4211 0.49343 0.56448 0.0
H89 H 0.44155 0.5815 0.45382 0.0
H90 H 0.41786 0.61755 0.44464 0.0
O91 O 0.38254 0.56112 0.57101 0.0
C92 C 0.32728 0.50756 0.54907 0.0
C93 C 0.39101 0.59861 0.48258 0.0
C94 C 0.42522 0.58022 0.46853 0.0
N95 N 0.39686 0.55678 0.51167 0.0
C96 C 0.38366 0.57645 0.50668 0.0
C97 C 0.41735 0.55838 0.49289 0.0
C98 C 0.41194 0.60047 0.4634 0.0
C99 C 0.34357 0.42806 0.60114 0.0
N100 N 0.32953 0.44722 0.60105 0.0
C101 C 0.33063 0.39466 0.59468 0.0
C102 C 0.30311 0.38089 0.58816 0.0
C103 C 0.28891 0.40057 0.5882 0.0
C104 C 0.30253 0.43388 0.59471 0.0
C105 C 0.294 0.46619 0.68248 0.0
C106 C 0.31118 0.51475 0.6387 0.0
C107 C 0.31293 0.46742 0.66057 0.0
N108 N 0.32126 0.49147 0.63901 0.0
C109 C 0.29236 0.51442 0.66038 0.0
C110 C 0.28371 0.48991 0.68235 0.0
C111 C 0.37745 0.56517 0.59851 0.0
C112 C 0.46048 0.52954 0.57529 0.0
C113 C 0.43957 0.57445 0.56085 0.0
C114 C 0.4664 0.58556 0.57024 0.0
C115 C 0.47689 0.56289 0.57746 0.0
N116 N 0.42361 0.5417 0.55865 0.0
C117 C 0.43372 0.51934 0.56588 0.0
Co118 Co 0.86769 0.40313 0.02907 0.0
Co119 Co 0.83584 0.37764 0.09653 0.0
O120 O 0.86951 0.39594 0.07299 0.0
C121 C 0.91098 0.37784 0.03493 0.0
O122 O 0.89665 0.35635 0.05529 0.0
C123 C 0.87812 0.42149 0.14133 0.0
O124 O 0.89736 0.43229 0.1209 0.0
O125 O 0.8281 0.41524 0.08375 0.0
O126 O 0.83453 0.41223 0.03401 0.0
H127 H 0.73658 0.34604 0.11138 0.0
H128 H 0.91838 0.44105 0.06239 0.0
O129 O 0.90149 0.39627 0.02218 0.0
H130 H 0.89261 0.52376 0.01561 0.0
H131 H 0.906 0.4454 0.92583 0.0
H132 H 0.82342 0.38148 0.98391 0.0
H133 H 0.86474 0.46495 0.0079 0.0
H134 H 0.90818 0.43796 0.98098 0.0
O135 O 0.8542 0.40196 0.13402 0.0
H136 H 0.77939 0.36708 0.08301 0.0
H137 H 0.82014 0.35138 0.15941 0.0
H138 H 0.82029 0.38861 0.92881 0.0
H139 H 0.94702 0.49963 0.0704 0.0
H140 H 0.86179 0.42076 0.89938 0.0
H141 H 0.93415 0.54146 0.04697 0.0
O142 O 0.8446 0.35519 0.02388 0.0
H143 H 0.89491 0.32314 0.13296 0.0
H144 H 0.80341 0.30547 0.09985 0.0
H145 H 0.81268 0.25812 0.1142 0.0
H146 H 0.85869 0.26677 0.13109 0.0
H147 H 0.88489 0.36969 0.11793 0.0
H148 H 0.77778 0.33055 0.18872 0.0
H149 H 0.73556 0.32759 0.16466 0.0
O150 O 0.81543 0.35181 0.06087 0.0
C151 C 0.82484 0.42199 0.05637 0.0
C152 C 0.75483 0.34718 0.12212 0.0
C153 C 0.77796 0.33853 0.16553 0.0
N154 N 0.80232 0.3605 0.11948 0.0
C155 C 0.77917 0.35904 0.10614 0.0
C156 C 0.80193 0.35051 0.14885 0.0
C157 C 0.75428 0.33686 0.15201 0.0
C158 C 0.91268 0.45908 0.05203 0.0
N159 N 0.88987 0.44951 0.03475 0.0
C160 C 0.92897 0.49223 0.05668 0.0
C161 C 0.92173 0.51568 0.04355 0.0
C162 C 0.89841 0.50577 0.02598 0.0
C163 C 0.88264 0.4724 0.0218 0.0
C164 C 0.88777 0.43134 0.9384 0.0
C165 C 0.84156 0.39559 0.97129 0.0
C166 C 0.88889 0.42692 0.96963 0.0
N167 N 0.86593 0.40934 0.9857 0.0
C168 C 0.83967 0.3995 0.94008 0.0
C169 C 0.86296 0.41752 0.92358 0.0
C170 C 0.82212 0.34027 0.03754 0.0
C171 C 0.87472 0.31907 0.1259 0.0
C172 C 0.8235 0.30955 0.10719 0.0
C173 C 0.82861 0.28258 0.11532 0.0
C174 C 0.85441 0.28744 0.12477 0.0
N175 N 0.84347 0.34058 0.10852 0.0
C176 C 0.86886 0.34545 0.11758 0.0
Co177 Co 0.38589 0.84706 0.6271 0.0
Co178 Co 0.41433 0.84821 0.55837 0.0
O179 O 0.41441 0.86858 0.59752 0.0
C180 C 0.40723 0.91923 0.64016 0.0
O181 O 0.42373 0.92688 0.61691 0.0
C182 C 0.47264 0.86095 0.5521 0.0
O183 O 0.46543 0.82984 0.54591 0.0
O184 O 0.41549 0.80983 0.58005 0.0
O185 O 0.38301 0.80291 0.61414 0.0
H186 H 0.38662 0.75431 0.48508 0.0
H187 H 0.44358 0.89236 0.64156 0.0
O188 O 0.3883 0.89056 0.64247 0.0
H189 H 0.41999 0.80134 0.71397 0.0
H190 H 0.33554 0.83341 0.72597 0.0
H191 H 0.33422 0.78813 0.624 0.0
H192 H 0.38723 0.8012 0.67571 0.0
H193 H 0.37378 0.86015 0.69098 0.0
O194 O 0.4548 0.87139 0.55878 0.0
H195 H 0.38614 0.78122 0.53364 0.0
H196 H 0.44424 0.87161 0.49997 0.0
H197 H 0.29604 0.76034 0.65861 0.0
H198 H 0.47658 0.89378 0.67981 0.0
H199 H 0.29656 0.78303 0.71008 0.0
H200 H 0.46499 0.84811 0.71662 0.0
O201 O 0.35877 0.84566 0.59614 0.0
H202 H 0.44338 0.96832 0.53819 0.0
H203 H 0.38019 0.85678 0.50893 0.0
H204 H 0.37775 0.9042 0.48315 0.0
H205 H 0.40959 0.96048 0.49763 0.0
H206 H 0.44484 0.92027 0.56372 0.0
H207 H 0.44532 0.84566 0.45099 0.0
H208 H 0.41637 0.78659 0.44331 0.0
O209 O 0.37373 0.82549 0.55745 0.0
C210 C 0.39847 0.79265 0.59998 0.0
C211 C 0.39932 0.78007 0.48813 0.0
C212 C 0.43226 0.83134 0.469 0.0
N213 N 0.41512 0.82795 0.51966 0.0
C214 C 0.39914 0.79545 0.5156 0.0
C215 C 0.43155 0.8459 0.49678 0.0
C216 C 0.41601 0.7982 0.46471 0.0
C217 C 0.43775 0.87282 0.65782 0.0
N218 N 0.41257 0.84769 0.65717 0.0
C219 C 0.45684 0.87355 0.67931 0.0
C220 C 0.45037 0.8479 0.69988 0.0
C221 C 0.42513 0.82172 0.69844 0.0
C222 C 0.40654 0.82189 0.67669 0.0
C223 C 0.33522 0.82332 0.70369 0.0
C224 C 0.33479 0.79806 0.64642 0.0
C225 C 0.35669 0.83848 0.68365 0.0
N226 N 0.35638 0.82568 0.65544 0.0
C227 C 0.31302 0.78225 0.6659 0.0
C228 C 0.3133 0.795 0.69474 0.0
C229 C 0.35499 0.8305 0.57091 0.0
C230 C 0.42938 0.94392 0.53169 0.0
C231 C 0.39391 0.88117 0.51565 0.0
C232 C 0.39253 0.90794 0.50084 0.0
C233 C 0.41041 0.93951 0.50894 0.0
N234 N 0.4126 0.88568 0.53793 0.0
C235 C 0.43014 0.91658 0.54604 0.0
Co236 Co 0.64297 0.48755 0.11148 0.0
Co237 Co 0.63014 0.49799 0.03651 0.0
O238 O 0.62899 0.50763 0.08015 0.0
C239 C 0.59531 0.4946 0.14255 0.0
O240 O 0.59022 0.5102 0.11996 0.0
C241 C 0.63619 0.568 0.03984 0.0
O242 O 0.63852 0.5685 0.06943 0.0
O243 O 0.67004 0.51048 0.03883 0.0
O244 O 0.67224 0.48894 0.084 0.0
H245 H 0.65703 0.44846 0.94727 0.0
H246 H 0.63681 0.54977 0.12572 0.0
O247 O 0.61407 0.48468 0.14094 0.0
H248 H 0.73163 0.57345 0.14805 0.0
H249 H 0.66737 0.46788 0.21768 0.0
H250 H 0.66396 0.43613 0.11024 0.0
H251 H 0.70077 0.51919 0.12946 0.0
H252 H 0.65094 0.49462 0.17871 0.0
O253 O 0.63639 0.54399 0.02459 0.0
H254 H 0.65415 0.4603 0.00138 0.0
H255 H 0.60967 0.51602 0.97941 0.0
H256 H 0.6802 0.40856 0.14854 0.0
H257 H 0.66668 0.604 0.1448 0.0
H258 H 0.68205 0.42445 0.20271 0.0
H259 H 0.71462 0.61637 0.15606 0.0
O260 O 0.61933 0.44323 0.09609 0.0
H261 H 0.54203 0.50501 0.06107 0.0
H262 H 0.58477 0.4438 0.00572 0.0
H263 H 0.53553 0.42526 0.00332 0.0
H264 H 0.51375 0.45607 0.03102 0.0
H265 H 0.59109 0.52281 0.06264 0.0
H266 H 0.61238 0.50507 0.92506 0.0
H267 H 0.63607 0.47093 0.90866 0.0
O268 O 0.62301 0.45153 0.04581 0.0
C269 C 0.6823 0.50039 0.05828 0.0
C270 C 0.64661 0.46333 0.95414 0.0
C271 C 0.62161 0.49516 0.94167 0.0
N272 N 0.63173 0.48879 0.99365 0.0
C273 C 0.64486 0.47007 0.98477 0.0
C274 C 0.62028 0.50142 0.9725 0.0
C275 C 0.63488 0.47597 0.93248 0.0
C276 C 0.65734 0.55445 0.13084 0.0
N277 N 0.66671 0.53085 0.12654 0.0
C278 C 0.67433 0.58548 0.14152 0.0
C279 C 0.70123 0.59243 0.14778 0.0
C280 C 0.71077 0.5684 0.14326 0.0
C281 C 0.69317 0.53767 0.13254 0.0
C282 C 0.66657 0.46068 0.19416 0.0
C283 C 0.66464 0.44318 0.13375 0.0
C284 C 0.65725 0.4757 0.17197 0.0
N285 N 0.65646 0.46697 0.14215 0.0
C286 C 0.67386 0.42746 0.15535 0.0
C287 C 0.67486 0.43636 0.18574 0.0
C288 C 0.61652 0.43272 0.06889 0.0
C289 C 0.5513 0.49166 0.04856 0.0
C290 C 0.5756 0.45741 0.01786 0.0
C291 C 0.54762 0.44679 0.01634 0.0
C292 C 0.53543 0.46409 0.03184 0.0
N293 N 0.59119 0.48471 0.03405 0.0
C294 C 0.57925 0.50168 0.04933 0.0
Co295 Co 0.13845 0.59924 0.52277 0.0
Co296 Co 0.17172 0.6208 0.58967 0.0
O297 O 0.13775 0.60318 0.56706 0.0
C298 C 0.09715 0.62334 0.50375 0.0
O299 O 0.11561 0.64537 0.48677 0.0
C300 C 0.13069 0.57249 0.63263 0.0
O301 O 0.11162 0.56267 0.612 0.0
O302 O 0.18025 0.58517 0.57288 0.0
O303 O 0.17276 0.59197 0.52396 0.0
H304 H 0.27188 0.65621 0.60045 0.0
H305 H 0.08882 0.55698 0.55606 0.0
O306 O 0.10362 0.60489 0.52097 0.0
H307 H 0.11727 0.48075 0.50142 0.0
H308 H 0.09743 0.56086 0.41968 0.0
H309 H 0.18068 0.62689 0.47573 0.0
H310 H 0.14339 0.54035 0.49679 0.0
H311 H 0.09693 0.56467 0.47543 0.0
O312 O 0.15443 0.59328 0.62612 0.0
H313 H 0.22847 0.63524 0.57324 0.0
H314 H 0.18805 0.64199 0.65365 0.0
H315 H 0.1821 0.62367 0.41998 0.0
H316 H 0.06188 0.49757 0.56091 0.0
H317 H 0.14025 0.59048 0.39157 0.0
H318 H 0.07611 0.45897 0.53354 0.0
O319 O 0.16031 0.64774 0.52015 0.0
H320 H 0.11091 0.66944 0.63325 0.0
H321 H 0.20283 0.69277 0.5974 0.0
H322 H 0.19242 0.73793 0.61604 0.0
H323 H 0.1462 0.72641 0.63435 0.0
H324 H 0.12205 0.6251 0.61402 0.0
H325 H 0.23101 0.66262 0.6818 0.0
H326 H 0.27337 0.6701 0.65512 0.0
O327 O 0.19083 0.64966 0.55499 0.0
C328 C 0.18355 0.58139 0.54471 0.0
C329 C 0.25356 0.6531 0.61231 0.0
C330 C 0.23063 0.65665 0.65797 0.0
N331 N 0.20568 0.63739 0.61178 0.0
C332 C 0.22889 0.64126 0.59701 0.0
C333 C 0.20632 0.64479 0.64193 0.0
C334 C 0.25439 0.66086 0.64299 0.0
C335 C 0.09509 0.5404 0.54394 0.0
N336 N 0.11768 0.55222 0.52617 0.0
C337 C 0.07978 0.50675 0.54684 0.0
C338 C 0.08778 0.48511 0.53149 0.0
C339 C 0.11088 0.49731 0.51349 0.0
C340 C 0.12567 0.53112 0.51108 0.0
C341 C 0.1158 0.57541 0.43179 0.0
C342 C 0.16239 0.6124 0.46354 0.0
C343 C 0.11564 0.57769 0.46337 0.0
N344 N 0.13877 0.59603 0.47884 0.0
C345 C 0.16331 0.61066 0.43197 0.0
C346 C 0.13982 0.59203 0.41604 0.0
C347 C 0.18311 0.66235 0.53326 0.0
C348 C 0.13119 0.67473 0.62562 0.0
C349 C 0.18268 0.68742 0.60545 0.0
C350 C 0.17691 0.71317 0.61595 0.0
C351 C 0.15098 0.7067 0.62618 0.0
N352 N 0.16325 0.65601 0.60527 0.0
C353 C 0.13769 0.6496 0.6149 0.0
Co354 Co 0.83296 0.43877 0.40043 0.0
Co355 Co 0.86009 0.44281 0.47188 0.0
O356 O 0.86398 0.44958 0.42761 0.0
C357 C 0.87347 0.42344 0.36309 0.0
O358 O 0.89159 0.43195 0.38478 0.0
C359 C 0.90216 0.51144 0.46577 0.0
O360 O 0.88616 0.5178 0.44709 0.0
O361 O 0.83746 0.46846 0.4749 0.0
O362 O 0.81429 0.45434 0.43119 0.0
H363 H 0.80972 0.41348 0.57074 0.0
H364 H 0.88926 0.4862 0.38472 0.0
O365 O 0.85027 0.42325 0.36754 0.0
H366 H 0.83177 0.54384 0.36147 0.0
H367 H 0.78462 0.43066 0.3009 0.0
H368 H 0.77395 0.40675 0.41042 0.0
H369 H 0.81178 0.48749 0.38095 0.0
H370 H 0.82459 0.44532 0.3338 0.0
O371 O 0.89419 0.48339 0.4782 0.0
H372 H 0.8144 0.42138 0.51537 0.0
H373 H 0.89908 0.45078 0.52212 0.0
H374 H 0.73355 0.39161 0.37829 0.0
H375 H 0.90996 0.54211 0.36463 0.0
H376 H 0.73875 0.40368 0.32311 0.0
H377 H 0.88124 0.57157 0.35293 0.0
O378 O 0.81629 0.39352 0.4174 0.0
H379 H 0.93996 0.42174 0.43911 0.0
H380 H 0.85393 0.37766 0.4953 0.0
H381 H 0.88079 0.34506 0.49176 0.0
H382 H 0.92421 0.36712 0.4636 0.0
H383 H 0.91229 0.45334 0.44286 0.0
H384 H 0.89535 0.44341 0.57758 0.0
H385 H 0.8504 0.42453 0.60225 0.0
O386 O 0.82643 0.40158 0.46687 0.0
C387 C 0.81837 0.46739 0.45741 0.0
C388 C 0.82942 0.42173 0.56026 0.0
C389 C 0.87748 0.43857 0.5641 0.0
N390 N 0.85697 0.43663 0.5155 0.0
C391 C 0.83219 0.42626 0.52891 0.0
C392 C 0.87947 0.44283 0.53269 0.0
C393 C 0.85225 0.42795 0.57793 0.0
C394 C 0.87639 0.49829 0.37926 0.0
N395 N 0.84914 0.48306 0.38386 0.0
C396 C 0.88835 0.53024 0.36806 0.0
C397 C 0.87225 0.54679 0.36159 0.0
C398 C 0.84452 0.53127 0.36641 0.0
C399 C 0.83331 0.49933 0.37766 0.0
C400 C 0.78214 0.42522 0.3249 0.0
C401 C 0.77643 0.41215 0.38644 0.0
C402 C 0.80469 0.43336 0.34365 0.0
N403 N 0.80166 0.42715 0.37411 0.0
C404 C 0.75345 0.40346 0.36835 0.0
C405 C 0.75638 0.41017 0.33739 0.0
C406 C 0.81313 0.38368 0.44489 0.0
C407 C 0.92108 0.41186 0.45145 0.0
C408 C 0.87265 0.38732 0.48274 0.0
C409 C 0.88785 0.3688 0.48095 0.0
C410 C 0.91222 0.38121 0.46517 0.0
N411 N 0.88147 0.41738 0.46922 0.0
C412 C 0.90535 0.42968 0.45372 0.0
Co413 Co 0.36827 0.86 0.88596 0.0
Co414 Co 0.38516 0.87847 0.96078 0.0
O415 O 0.38118 0.89168 0.91919 0.0
C416 C 0.41589 0.90897 0.85098 0.0
O417 O 0.43371 0.90401 0.8679 0.0
C418 C 0.3679 0.93352 0.96545 0.0
O419 O 0.35608 0.9268 0.93888 0.0
O420 O 0.34667 0.84488 0.96072 0.0
O421 O 0.34477 0.82524 0.9138 0.0
H422 H 0.37468 0.7959 0.04239 0.0
H423 H 0.36502 0.92398 0.87724 0.0
O424 O 0.39081 0.89419 0.85658 0.0
H425 H 0.27132 0.84088 0.86913 0.0
H426 H 0.3373 0.82448 0.77909 0.0
H427 H 0.35555 0.78925 0.87911 0.0
H428 H 0.30855 0.82443 0.87855 0.0
H429 H 0.35296 0.86355 0.82139 0.0
O430 O 0.37418 0.91242 0.97867 0.0
H431 H 0.37117 0.81431 0.99053 0.0
H432 H 0.40643 0.91343 0.0194 0.0
H433 H 0.3399 0.74928 0.83742 0.0
H434 H 0.32842 0.94143 0.86717 0.0
H435 H 0.33067 0.76684 0.78683 0.0
H436 H 0.28113 0.89976 0.86322 0.0
O437 O 0.39784 0.84562 0.89383 0.0
H438 H 0.46105 0.98779 0.93715 0.0
H439 H 0.43719 0.87989 0.98438 0.0
H440 H 0.48438 0.9206 0.98548 0.0
H441 H 0.49656 0.97527 0.96218 0.0
H442 H 0.41442 0.9461 0.93568 0.0
H443 H 0.40994 0.8961 0.07162 0.0
H444 H 0.39415 0.83693 0.08338 0.0
O445 O 0.39775 0.84544 0.94488 0.0
C446 C 0.3356 0.82284 0.94062 0.0
C447 C 0.38165 0.82175 0.03754 0.0
C448 C 0.40137 0.87797 0.05398 0.0
N449 N 0.38858 0.86493 0.00187 0.0
C450 C 0.37977 0.83234 0.0082 0.0
C451 C 0.39914 0.88765 0.02438 0.0
C452 C 0.39254 0.84478 0.06054 0.0
C453 C 0.34454 0.90564 0.87534 0.0
N454 N 0.33898 0.87322 0.87877 0.0
C455 C 0.32387 0.9157 0.86974 0.0
C456 C 0.29734 0.89232 0.86756 0.0
C457 C 0.29182 0.85929 0.87094 0.0
C458 C 0.313 0.85014 0.87651 0.0
C459 C 0.3415 0.81659 0.80087 0.0
C460 C 0.35194 0.7972 0.85714 0.0
C461 C 0.35056 0.8387 0.82492 0.0
N462 N 0.35575 0.82893 0.85265 0.0
C463 C 0.34292 0.77439 0.83362 0.0
C464 C 0.33773 0.78424 0.80527 0.0
C465 C 0.40465 0.83782 0.91936 0.0
C466 C 0.45599 0.96417 0.94764 0.0
C467 C 0.44226 0.90341 0.97389 0.0
C468 C 0.46907 0.92646 0.97469 0.0
C469 C 0.4759 0.95711 0.96162 0.0
N470 N 0.42265 0.91068 0.96074 0.0
C471 C 0.42943 0.94044 0.94716 0.0
Co472 Co 0.58162 0.43219 0.46029 0.0
Co473 Co 0.60903 0.42631 0.39304 0.0
O474 O 0.58278 0.4366 0.41609 0.0
C475 C 0.52244 0.39616 0.46995 0.0
O476 O 0.52725 0.37288 0.48314 0.0
C477 C 0.60183 0.48052 0.35848 0.0
O478 O 0.59493 0.49219 0.38269 0.0
O479 O 0.6384 0.46085 0.416 0.0
O480 O 0.62185 0.44446 0.46254 0.0
H481 H 0.69152 0.4032 0.38247 0.0
H482 H 0.55862 0.47518 0.43247 0.0
O483 O 0.54184 0.42091 0.4586 0.0
H484 H 0.62941 0.54636 0.50214 0.0
H485 H 0.55156 0.44472 0.5658 0.0
H486 H 0.60454 0.40072 0.50418 0.0
H487 H 0.62014 0.488 0.49699 0.0
H488 H 0.55426 0.45188 0.51026 0.0
O489 O 0.61009 0.45786 0.36051 0.0
H490 H 0.65736 0.41508 0.41012 0.0
H491 H 0.61858 0.41783 0.32725 0.0
H492 H 0.60248 0.39311 0.55967 0.0
H493 H 0.56691 0.53328 0.43733 0.0
H494 H 0.57583 0.41519 0.59086 0.0
H495 H 0.6026 0.56935 0.47229 0.0
O496 O 0.57425 0.38505 0.45519 0.0
H497 H 0.52021 0.37808 0.33787 0.0
H498 H 0.59751 0.35773 0.3743 0.0
H499 H 0.5605 0.3141 0.34721 0.0
H500 H 0.52155 0.32421 0.32851 0.0
H501 H 0.55741 0.42082 0.36563 0.0
H502 H 0.65274 0.40677 0.29866 0.0
H503 H 0.68949 0.39913 0.3263 0.0
O504 O 0.60835 0.3932 0.42368 0.0
C505 C 0.64167 0.45948 0.44457 0.0
C506 C 0.67567 0.40658 0.37015 0.0
C507 C 0.65392 0.4086 0.32313 0.0
N508 N 0.6359 0.41725 0.3704 0.0
C509 C 0.65618 0.41326 0.38571 0.0
C510 C 0.6347 0.41511 0.33946 0.0
C511 C 0.67452 0.40429 0.33865 0.0
C512 C 0.57404 0.49063 0.44791 0.0
N513 N 0.58885 0.47815 0.46441 0.0
C514 C 0.57871 0.52356 0.45048 0.0
C515 C 0.59876 0.54378 0.47007 0.0
C516 C 0.61383 0.53091 0.48679 0.0
C517 C 0.60858 0.49786 0.48365 0.0
C518 C 0.56326 0.43502 0.55246 0.0
C519 C 0.59297 0.41047 0.51762 0.0
C520 C 0.56486 0.43898 0.52101 0.0
N521 N 0.57964 0.42682 0.50403 0.0
C522 C 0.59185 0.40606 0.54902 0.0
C523 C 0.57688 0.41845 0.56651 0.0
C524 C 0.58947 0.37466 0.4409 0.0
C525 C 0.53711 0.37341 0.34581 0.0
C526 C 0.58058 0.36231 0.36649 0.0
C527 C 0.55969 0.3375 0.35105 0.0
C528 C 0.53786 0.34318 0.34058 0.0
N529 N 0.57982 0.39201 0.37138 0.0
C530 C 0.55831 0.39759 0.36147 0.0
Co531 Co 0.17187 0.54607 0.89434 0.0
Co532 Co 0.14165 0.54213 0.96407 0.0
O533 O 0.13983 0.53382 0.92006 0.0
C534 C 0.13128 0.55837 0.85435 0.0
O535 O 0.11264 0.54971 0.87546 0.0
C536 C 0.10467 0.47661 0.98834 0.0
O537 O 0.12457 0.47706 0.00546 0.0
O538 O 0.16676 0.51992 0.97011 0.0
O539 O 0.19063 0.53314 0.92683 0.0
H540 H 0.18751 0.57753 0.06495 0.0
H541 H 0.11725 0.49593 0.87678 0.0
O542 O 0.15455 0.55925 0.8598 0.0
H543 H 0.17921 0.44277 0.86043 0.0
H544 H 0.22379 0.55573 0.79722 0.0
H545 H 0.23042 0.58162 0.90637 0.0
H546 H 0.19637 0.49944 0.87895 0.0
H547 H 0.18275 0.53879 0.82861 0.0
O548 O 0.10881 0.49959 0.96927 0.0
H549 H 0.18534 0.56729 0.00989 0.0
H550 H 0.10013 0.53457 0.01146 0.0
H551 H 0.27193 0.59875 0.87582 0.0
H552 H 0.09935 0.43955 0.85765 0.0
H553 H 0.26879 0.58575 0.82085 0.0
H554 H 0.13035 0.41241 0.84938 0.0
O555 O 0.18622 0.59163 0.91039 0.0
H556 H 0.05905 0.55306 0.9246 0.0
H557 H 0.14298 0.60655 0.98353 0.0
H558 H 0.11326 0.63505 0.97613 0.0
H559 H 0.07085 0.60821 0.94663 0.0
H560 H 0.0896 0.52571 0.93203 0.0
H561 H 0.10136 0.54443 0.06654 0.0
H562 H 0.14529 0.56605 0.09367 0.0
O563 O 0.17384 0.58492 0.95937 0.0
C564 C 0.18668 0.52167 0.95367 0.0
C565 C 0.16823 0.56798 0.05341 0.0
C566 C 0.11989 0.54942 0.0543 0.0
N567 N 0.14264 0.54999 0.00749 0.0
C568 C 0.16688 0.56205 0.02224 0.0
C569 C 0.11932 0.54381 0.02312 0.0
C570 C 0.14454 0.56156 0.06951 0.0
C571 C 0.13105 0.48472 0.87294 0.0
N572 N 0.15799 0.50143 0.87878 0.0
C573 C 0.12071 0.45256 0.86223 0.0
C574 C 0.13809 0.43732 0.85765 0.0
C575 C 0.16548 0.45432 0.86387 0.0
C576 C 0.17508 0.48644 0.87454 0.0
C577 C 0.22541 0.56153 0.82116 0.0
C578 C 0.22884 0.57572 0.88248 0.0
C579 C 0.20223 0.55212 0.83905 0.0
N580 N 0.20414 0.559 0.8694 0.0
C581 C 0.25244 0.58559 0.86528 0.0
C582 C 0.25066 0.57834 0.83443 0.0
C583 C 0.18773 0.60238 0.93746 0.0
C584 C 0.07746 0.56501 0.93753 0.0
C585 C 0.12475 0.59484 0.97034 0.0
C586 C 0.10791 0.61104 0.96638 0.0
C587 C 0.0841 0.59596 0.94986 0.0
N588 N 0.11808 0.56444 0.95823 0.0
C589 C 0.09481 0.54957 0.94193 0.0
Co590 Co 0.62763 0.12786 0.39591 0.0
Co591 Co 0.60831 0.11985 0.47083 0.0
O592 O 0.61019 0.10058 0.43122 0.0
C593 C 0.58715 0.09874 0.3474 0.0
O594 O 0.58288 0.12547 0.34806 0.0
C595 C 0.61922 0.06056 0.48416 0.0
O596 O 0.63306 0.0645 0.45901 0.0
O597 O 0.64846 0.1464 0.47077 0.0
O598 O 0.65422 0.16196 0.42213 0.0
H599 H 0.63081 0.21279 0.54456 0.0
H600 H 0.61963 0.0583 0.39433 0.0
O601 O 0.60156 0.09391 0.36802 0.0
H602 H 0.71806 0.12244 0.38771 0.0
H603 H 0.6664 0.14913 0.29003 0.0
H604 H 0.64783 0.19858 0.38191 0.0
H605 H 0.68744 0.15017 0.39122 0.0
H606 H 0.64582 0.11535 0.3349 0.0
O607 O 0.61184 0.08263 0.49294 0.0
H608 H 0.63176 0.1874 0.4953 0.0
H609 H 0.58139 0.09375 0.53033 0.0
H610 H 0.66879 0.2336 0.33781 0.0
H611 H 0.64952 0.02959 0.3902 0.0
H612 H 0.67809 0.20881 0.29128 0.0
H613 H 0.69914 0.0617 0.38701 0.0
O614 O 0.60334 0.151 0.39997 0.0
H615 H 0.52262 0.01829 0.45643 0.0
H616 H 0.56101 0.1348 0.48537 0.0
H617 H 0.51168 0.10305 0.48616 0.0
H618 H 0.49217 0.04423 0.47194 0.0
H619 H 0.57173 0.05105 0.4554 0.0
H620 H 0.58015 0.11805 0.58006 0.0
H621 H 0.6049 0.17804 0.58741 0.0
O622 O 0.60297 0.15653 0.45065 0.0
C623 C 0.66215 0.16553 0.44956 0.0
C624 C 0.61996 0.18661 0.54166 0.0
C625 C 0.59158 0.13344 0.5616 0.0
N626 N 0.60675 0.13904 0.5099 0.0
C627 C 0.6204 0.17208 0.51379 0.0
C628 C 0.59251 0.11976 0.53342 0.0
C629 C 0.60544 0.16711 0.56569 0.0
C630 C 0.64117 0.07248 0.39258 0.0
N631 N 0.65171 0.10589 0.39302 0.0
C632 C 0.65801 0.05607 0.39041 0.0
C633 C 0.68584 0.0741 0.38869 0.0
C634 C 0.69647 0.10817 0.38914 0.0
C635 C 0.67902 0.12374 0.39134 0.0
C636 C 0.66223 0.1602 0.31004 0.0
C637 C 0.6515 0.18762 0.36172 0.0
C638 C 0.65034 0.1411 0.33545 0.0
N639 N 0.6448 0.15478 0.36079 0.0
C640 C 0.66355 0.20758 0.33683 0.0
C641 C 0.6688 0.19367 0.31077 0.0
C642 C 0.59808 0.1633 0.42389 0.0
C643 C 0.53087 0.04386 0.46282 0.0
C644 C 0.5527 0.10931 0.47887 0.0
C645 C 0.52473 0.09142 0.47947 0.0
C646 C 0.5138 0.05843 0.47149 0.0
N647 N 0.56937 0.09477 0.47071 0.0
C648 C 0.55873 0.06254 0.46242 0.0
Co649 Co 0.42919 0.57973 0.9765 0.0
Co650 Co 0.40798 0.57525 0.90326 0.0
O651 O 0.4311 0.56839 0.93391 0.0
C652 C 0.48792 0.60932 0.96283 0.0
O653 O 0.4825 0.62113 0.93773 0.0
C654 C 0.38786 0.51199 0.87026 0.0
O655 O 0.36341 0.50605 0.87977 0.0
O656 O 0.37577 0.54694 0.92713 0.0
O657 O 0.38909 0.56685 0.97373 0.0
H658 H 0.32778 0.59463 0.86877 0.0
H659 H 0.45379 0.53402 0.96056 0.0
O660 O 0.46896 0.59243 0.98083 0.0
H661 H 0.37955 0.47273 0.03091 0.0
H662 H 0.45351 0.58603 0.08719 0.0
H663 H 0.40212 0.61529 0.0095 0.0
H664 H 0.38902 0.52961 0.01679 0.0
H665 H 0.45435 0.57033 0.03374 0.0
O666 O 0.40798 0.53674 0.88026 0.0
H667 H 0.35907 0.58856 0.9061 0.0
H668 H 0.40625 0.57517 0.83518 0.0
H669 H 0.40051 0.63121 0.06275 0.0
H670 H 0.44519 0.47727 0.97432 0.0
H671 H 0.42634 0.61656 0.10201 0.0
H672 H 0.40782 0.44623 0.00972 0.0
O673 O 0.43646 0.62527 0.96432 0.0
H674 H 0.49887 0.60435 0.8555 0.0
H675 H 0.42638 0.641 0.87365 0.0
H676 H 0.46697 0.67673 0.84547 0.0
H677 H 0.50354 0.65837 0.83603 0.0
H678 H 0.45815 0.56968 0.88415 0.0
H679 H 0.37547 0.581 0.79704 0.0
H680 H 0.33584 0.5908 0.81377 0.0
O681 O 0.40842 0.61472 0.9247 0.0
C682 C 0.37063 0.5508 0.95471 0.0
C683 C 0.34494 0.59029 0.86118 0.0
C684 C 0.37167 0.5826 0.82094 0.0
N685 N 0.38437 0.58112 0.87291 0.0
C686 C 0.36273 0.58677 0.88224 0.0
C687 C 0.389 0.57916 0.84266 0.0
C688 C 0.34947 0.58813 0.83034 0.0
C689 C 0.43759 0.52072 0.97611 0.0
N690 N 0.42202 0.53516 0.98796 0.0
C691 C 0.43277 0.48857 0.98376 0.0
C692 C 0.41178 0.47116 0.0036 0.0
C693 C 0.39591 0.48601 0.01549 0.0
C694 C 0.40132 0.51819 0.00734 0.0
C695 C 0.44212 0.59248 0.0703 0.0
C696 C 0.41327 0.60864 0.0265 0.0
C697 C 0.44256 0.58372 0.03999 0.0
N698 N 0.42811 0.59165 0.01857 0.0
C699 C 0.41234 0.61781 0.05659 0.0
C700 C 0.42686 0.60961 0.0786 0.0
C701 C 0.4239 0.63424 0.94445 0.0
C702 C 0.48306 0.61261 0.85942 0.0
C703 C 0.44232 0.63302 0.87006 0.0
C704 C 0.46521 0.65327 0.85388 0.0
C705 C 0.48569 0.64293 0.84855 0.0
N706 N 0.43986 0.60327 0.88065 0.0
C707 C 0.45989 0.59302 0.87553 0.0
H708 H 0.55618 0.09983 0.29888 0.0
H709 H 0.61183 0.05934 0.32908 0.0
H710 H 0.61966 0.04846 0.27612 0.0
H711 H 0.52964 0.04118 0.22982 0.0
H712 H 0.52647 0.07351 0.20819 0.0
H713 H 0.52054 0.07087 0.24854 0.0
H714 H 0.55614 0.13068 0.2544 0.0
H715 H 0.56238 0.13328 0.21438 0.0
H716 H 0.58993 0.14159 0.24047 0.0
H717 H 0.6328 0.06015 0.2212 0.0
H718 H 0.64218 0.08193 0.16881 0.0
H719 H 0.57186 0.10392 0.17289 0.0
C720 C 0.56895 0.08715 0.29445 0.0
C721 C 0.58386 0.08122 0.31809 0.0
C722 C 0.60039 0.06457 0.31139 0.0
C723 C 0.605 0.05825 0.28127 0.0
C724 C 0.59175 0.067 0.25822 0.0
C725 C 0.57301 0.07961 0.26455 0.0
C726 C 0.56312 0.08941 0.23575 0.0
C727 C 0.53316 0.06742 0.23025 0.0
C728 C 0.56823 0.12588 0.23631 0.0
C729 C 0.58081 0.08288 0.21257 0.0
C730 C 0.59732 0.07007 0.22587 0.0
C731 C 0.61911 0.0686 0.21014 0.0
C732 C 0.62438 0.08111 0.18042 0.0
C733 C 0.60757 0.09418 0.16656 0.0
C734 C 0.58479 0.09344 0.18249 0.0
H735 H 0.42728 0.53602 0.70011 0.0
H736 H 0.36077 0.44182 0.68369 0.0
H737 H 0.35863 0.42927 0.73807 0.0
H738 H 0.45772 0.50659 0.76642 0.0
H739 H 0.4668 0.54512 0.78567 0.0
H740 H 0.46715 0.54379 0.7448 0.0
H741 H 0.43495 0.57313 0.74289 0.0
H742 H 0.43439 0.57431 0.78354 0.0
H743 H 0.40319 0.55551 0.76279 0.0
H744 H 0.35514 0.43361 0.79396 0.0
H745 H 0.35485 0.45213 0.84672 0.0
H746 H 0.42748 0.53927 0.8281 0.0
C747 C 0.41308 0.51218 0.70776 0.0
C748 C 0.39405 0.49013 0.68757 0.0
C749 C 0.37547 0.45934 0.69864 0.0
C750 C 0.37414 0.45184 0.72958 0.0
C751 C 0.39208 0.47489 0.74918 0.0
C752 C 0.41179 0.50405 0.73863 0.0
C753 C 0.42678 0.52595 0.76475 0.0
C754 C 0.45638 0.53062 0.76545 0.0
C755 C 0.42467 0.55915 0.7634 0.0
C756 C 0.41119 0.50554 0.79141 0.0
C757 C 0.3913 0.47609 0.78201 0.0
C758 C 0.37132 0.45594 0.80185 0.0
C759 C 0.37125 0.46663 0.83177 0.0
C760 C 0.39128 0.4969 0.84165 0.0
C761 C 0.41219 0.51566 0.8215 0.0
H762 H 0.84201 0.40466 0.18781 0.0
H763 H 0.92804 0.44985 0.16946 0.0
H764 H 0.93708 0.45236 0.22481 0.0
H765 H 0.84229 0.44915 0.25507 0.0
H766 H 0.81621 0.41406 0.27269 0.0
H767 H 0.8176 0.41776 0.23206 0.0
H768 H 0.81888 0.36069 0.2285 0.0
H769 H 0.81815 0.35746 0.26923 0.0
H770 H 0.84501 0.35355 0.2481 0.0
H771 H 0.93585 0.44902 0.28348 0.0
H772 H 0.92448 0.44418 0.33825 0.0
H773 H 0.83935 0.39818 0.31552 0.0
C774 C 0.86284 0.41521 0.19521 0.0
C775 C 0.88432 0.42697 0.17417 0.0
C776 C 0.91122 0.44083 0.18512 0.0
C777 C 0.91653 0.44211 0.21651 0.0
C778 C 0.89473 0.42926 0.23652 0.0
C779 C 0.86843 0.41628 0.22612 0.0
C780 C 0.84836 0.40385 0.25175 0.0
C781 C 0.83006 0.42234 0.25295 0.0
C782 C 0.83163 0.36668 0.24924 0.0
C783 C 0.86734 0.41223 0.27848 0.0
C784 C 0.89405 0.42673 0.26947 0.0
C785 C 0.91499 0.43754 0.29068 0.0
C786 C 0.90837 0.43444 0.32176 0.0
C787 C 0.88103 0.42075 0.33123 0.0
C788 C 0.86046 0.40871 0.30913 0.0
H789 H 0.38254 0.92142 0.81219 0.0
H790 H 0.46602 0.93633 0.82318 0.0
H791 H 0.47509 0.9557 0.77004 0.0
H792 H 0.37438 0.88228 0.74743 0.0
H793 H 0.35141 0.89677 0.72986 0.0
H794 H 0.35328 0.89541 0.77034 0.0
H795 H 0.36424 0.95703 0.77408 0.0
H796 H 0.36189 0.95888 0.73339 0.0
H797 H 0.39199 0.98621 0.75267 0.0
H798 H 0.47288 0.96368 0.71355 0.0
H799 H 0.45906 0.95198 0.66008 0.0
H800 H 0.37577 0.9249 0.68577 0.0
C801 C 0.40302 0.92972 0.80388 0.0
C802 C 0.42358 0.92731 0.82195 0.0
C803 C 0.44998 0.93821 0.80993 0.0
C804 C 0.4553 0.94936 0.77975 0.0
C805 C 0.43403 0.94951 0.762 0.0
C806 C 0.40837 0.93988 0.7738 0.0
C807 C 0.38776 0.93556 0.74923 0.0
C808 C 0.36543 0.90043 0.7492 0.0
C809 C 0.37577 0.96095 0.75254 0.0
C810 C 0.40545 0.94231 0.7214 0.0
C811 C 0.43229 0.95182 0.72922 0.0
C812 C 0.45203 0.95682 0.70725 0.0
C813 C 0.44398 0.95028 0.67682 0.0
C814 C 0.4163 0.9376 0.66884 0.0
C815 C 0.39707 0.93508 0.69125 0.0
H816 H 0.58967 0.44059 0.30982 0.0
H817 H 0.59817 0.537 0.3376 0.0
H818 H 0.58877 0.54826 0.28452 0.0
H819 H 0.6243 0.46397 0.243 0.0
H820 H 0.6036 0.42725 0.22272 0.0
H821 H 0.60695 0.42604 0.26314 0.0
H822 H 0.55496 0.40277 0.26914 0.0
H823 H 0.55127 0.40393 0.22859 0.0
H824 H 0.53676 0.42459 0.253 0.0
H825 H 0.58396 0.55029 0.22626 0.0
H826 H 0.58745 0.54451 0.17065 0.0
H827 H 0.58183 0.44634 0.18375 0.0
C828 C 0.58959 0.46417 0.305 0.0
C829 C 0.59516 0.48818 0.32773 0.0
C830 C 0.59409 0.51832 0.32042 0.0
C831 C 0.58862 0.52478 0.29041 0.0
C832 C 0.58375 0.50053 0.26838 0.0
C833 C 0.5841 0.47077 0.27562 0.0
C834 C 0.58075 0.44954 0.24809 0.0
C835 C 0.60535 0.44123 0.24399 0.0
C836 C 0.55436 0.41837 0.24982 0.0
C837 C 0.57942 0.47235 0.22368 0.0
C838 C 0.58066 0.50148 0.23562 0.0
C839 C 0.58237 0.52732 0.2168 0.0
C840 C 0.58407 0.52375 0.18523 0.0
C841 C 0.58441 0.49474 0.17307 0.0
C842 C 0.58094 0.46843 0.19251 0.0
H843 H 0.16631 0.58501 0.67943 0.0
H844 H 0.08053 0.54267 0.65955 0.0
H845 H 0.07066 0.53638 0.71466 0.0
H846 H 0.1636 0.53461 0.74422 0.0
H847 H 0.18981 0.56775 0.76393 0.0
H848 H 0.18935 0.56695 0.72313 0.0
H849 H 0.18962 0.62486 0.72263 0.0
H850 H 0.1896 0.62551 0.76346 0.0
H851 H 0.16364 0.63188 0.74269 0.0
H852 H 0.0708 0.53671 0.7731 0.0
H853 H 0.08096 0.53921 0.82811 0.0
H854 H 0.16662 0.58337 0.80765 0.0
C855 C 0.14538 0.57414 0.6865 0.0
C856 C 0.12419 0.56439 0.66509 0.0
C857 C 0.09712 0.55014 0.6755 0.0
C858 C 0.09134 0.5467 0.70676 0.0
C859 C 0.11283 0.55761 0.72724 0.0
C860 C 0.13931 0.57072 0.71738 0.0
C861 C 0.15893 0.5809 0.74359 0.0
C862 C 0.17644 0.56137 0.74371 0.0
C863 C 0.17647 0.61799 0.74305 0.0
C864 C 0.13943 0.57146 0.76991 0.0
C865 C 0.11291 0.55814 0.76023 0.0
C866 C 0.09151 0.54712 0.78086 0.0
C867 C 0.09746 0.54888 0.81207 0.0
C868 C 0.12457 0.56146 0.82225 0.0
C869 C 0.14566 0.57355 0.80073 0.0
H870 H 0.48812 0.06331 0.05803 0.0
H871 H 0.5086 0.12126 0.97582 0.0
H872 H 0.46418 0.08581 0.95383 0.0
H873 H 0.45954 0.9882 0.0196 0.0
H874 H 0.43417 0.96812 0.04791 0.0
H875 H 0.46529 0.00138 0.05859 0.0
H876 H 0.43791 0.03149 0.08178 0.0
H877 H 0.40678 0.99838 0.07035 0.0
H878 H 0.41423 0.03963 0.05837 0.0
H879 H 0.41935 0.0417 0.93928 0.0
H880 H 0.3817 0.98815 0.92986 0.0
H881 H 0.39118 0.95687 0.02052 0.0
C882 C 0.4828 0.06896 0.03576 0.0
C883 C 0.50129 0.09535 0.01879 0.0
C884 C 0.49438 0.10136 0.98922 0.0
C885 C 0.46918 0.0815 0.97668 0.0
C886 C 0.45134 0.0554 0.99385 0.0
C887 C 0.45803 0.04876 0.02257 0.0
C888 C 0.4371 0.01655 0.03441 0.0
C889 C 0.44978 0.99214 0.04046 0.0
C890 C 0.42318 0.02185 0.06292 0.0
C891 C 0.41782 0.00591 0.00774 0.0
C892 C 0.42606 0.029 0.98486 0.0
C893 C 0.41253 0.02358 0.95716 0.0
C894 C 0.39093 0.99311 0.95211 0.0
C895 C 0.38347 0.96818 0.97442 0.0
C896 C 0.39631 0.97542 0.00307 0.0
H897 H 0.42425 0.48486 0.48487 0.0
H898 H 0.36515 0.39605 0.52549 0.0
H899 H 0.39347 0.36695 0.51145 0.0
H900 H 0.44645 0.44591 0.42245 0.0
H901 H 0.48101 0.47521 0.42628 0.0
H902 H 0.4539 0.48702 0.43485 0.0
H903 H 0.47406 0.50571 0.48838 0.0
H904 H 0.50102 0.49371 0.48013 0.0
H905 H 0.47988 0.4771 0.51284 0.0
H906 H 0.43168 0.35011 0.49955 0.0
H907 H 0.47522 0.34675 0.48972 0.0
H908 H 0.50873 0.44701 0.45725 0.0
C909 C 0.41677 0.45903 0.49007 0.0
C910 C 0.39234 0.4427 0.50614 0.0
C911 C 0.38361 0.409 0.51288 0.0
C912 C 0.39962 0.3923 0.50505 0.0
C913 C 0.42414 0.40958 0.49028 0.0
C914 C 0.43248 0.44215 0.48258 0.0
C915 C 0.46069 0.45622 0.46943 0.0
C916 C 0.46049 0.4667 0.43628 0.0
C917 C 0.48004 0.48485 0.48886 0.0
C918 C 0.46733 0.42675 0.47164 0.0
C919 C 0.44598 0.39995 0.48346 0.0
C920 C 0.44832 0.37077 0.48975 0.0
C921 C 0.47316 0.3691 0.48415 0.0
C922 C 0.49537 0.39649 0.47245 0.0
C923 C 0.49208 0.4254 0.46566 0.0
H924 H 0.05791 0.47854 0.96721 0.0
H925 H 0.08728 0.42267 0.02577 0.0
H926 H 0.04035 0.38805 0.04134 0.0
H927 H 0.00927 0.4812 0.0174 0.0
H928 H 0.98483 0.47805 0.98858 0.0
H929 H 0.02024 0.49577 0.97952 0.0
H930 H 0.01165 0.45393 0.93598 0.0
H931 H 0.97614 0.43613 0.9448 0.0
H932 H 0.99457 0.41076 0.94395 0.0
H933 H 0.98981 0.36218 0.05353 0.0
H934 H 0.94118 0.34817 0.06122 0.0
H935 H 0.94589 0.42185 0.99493 0.0
C936 C 0.05454 0.45857 0.98276 0.0
C937 C 0.07641 0.45319 0.995 0.0
C938 C 0.07093 0.42717 0.01586 0.0
C939 C 0.04429 0.40736 0.02486 0.0
C940 C 0.02328 0.41383 0.01282 0.0
C941 C 0.02817 0.43878 0.99212 0.0
C942 C 0.00245 0.44229 0.98403 0.0
C943 C 0.00432 0.47634 0.99292 0.0
C944 C 0.99581 0.43535 0.95018 0.0
C945 C 0.9823 0.41571 0.00369 0.0
C946 C 0.99456 0.39933 0.02 0.0
C947 C 0.98001 0.37467 0.04061 0.0
C948 C 0.95235 0.36683 0.04482 0.0
C949 C 0.93952 0.3837 0.02862 0.0
C950 C 0.95485 0.40818 0.00756 0.0
H951 H 0.58125 0.04185 0.52909 0.0
H952 H 0.62497 0.00384 0.46964 0.0
H953 H 0.59553 0.94757 0.48634 0.0
H954 H 0.56451 0.98013 0.59035 0.0
H955 H 0.53141 0.97952 0.59512 0.0
H956 H 0.55915 0.01651 0.58296 0.0
H957 H 0.53172 0.01887 0.5356 0.0
H958 H 0.50402 0.98194 0.54756 0.0
H959 H 0.51858 0.98413 0.51048 0.0
H960 H 0.55702 0.89482 0.50494 0.0
H961 H 0.51339 0.85186 0.52199 0.0
H962 H 0.49469 0.92583 0.56711 0.0
C963 C 0.58537 0.02197 0.52019 0.0
C964 C 0.60574 0.02753 0.49821 0.0
C965 C 0.60978 0.00039 0.48677 0.0
C966 C 0.59309 0.96829 0.49611 0.0
C967 C 0.57244 0.96373 0.51688 0.0
C968 C 0.56868 0.99 0.52881 0.0
C969 C 0.54327 0.97894 0.54778 0.0
C970 C 0.55 0.98939 0.58103 0.0
C971 C 0.52323 0.99172 0.53456 0.0
C972 C 0.53292 0.94224 0.54433 0.0
C973 C 0.55011 0.93377 0.52681 0.0
C974 C 0.54366 0.90123 0.51904 0.0
C975 C 0.51884 0.87695 0.5289 0.0
C976 C 0.5006 0.88538 0.54601 0.0
C977 C 0.50819 0.91844 0.55428 0.0
H978 H 0.50888 0.60519 0.0181 0.0
H979 H 0.52957 0.62176 0.92277 0.0
H980 H 0.57423 0.62186 0.93365 0.0
H981 H 0.57842 0.65539 0.04785 0.0
H982 H 0.57394 0.62725 0.0787 0.0
H983 H 0.54535 0.63305 0.06387 0.0
H984 H 0.5204 0.57076 0.05443 0.0
H985 H 0.54879 0.56466 0.06901 0.0
H986 H 0.53623 0.55047 0.03145 0.0
H987 H 0.61287 0.6103 0.9537 0.0
H988 H 0.64271 0.59046 0.98147 0.0
H989 H 0.59849 0.58595 0.06426 0.0
C990 C 0.52305 0.60958 0.99961 0.0
C991 C 0.5158 0.61347 0.96959 0.0
C992 C 0.53481 0.61899 0.94598 0.0
C993 C 0.56022 0.61912 0.95196 0.0
C994 C 0.56653 0.61449 0.98178 0.0
C995 C 0.54861 0.61039 0.00528 0.0
C996 C 0.55936 0.6036 0.03493 0.0
C997 C 0.56458 0.6315 0.05768 0.0
C998 C 0.54006 0.5704 0.04822 0.0
C999 C 0.58557 0.60292 0.02427 0.0
C1000 C 0.58949 0.6095 0.99356 0.0
C1001 C 0.61051 0.60618 0.97792 0.0
C1002 C 0.62743 0.59503 0.99385 0.0
C1003 C 0.62345 0.58769 0.02517 0.0
C1004 C 0.60277 0.59275 0.04065 0.0
H1005 H 0.94071 0.50434 0.50143 0.0
H1006 H 0.92806 0.57305 0.44099 0.0
H1007 H 0.97602 0.61139 0.44707 0.0
H1008 H 0.98833 0.56463 0.55266 0.0
H1009 H 0.00829 0.54138 0.55738 0.0
H1010 H 0.97264 0.52062 0.54985 0.0
H1011 H 0.98257 0.49227 0.50318 0.0
H1012 H 0.0182 0.5129 0.51063 0.0
H1013 H 0.00507 0.51694 0.47408 0.0
H1014 H 0.02665 0.64065 0.45726 0.0
H1015 H 0.07481 0.65773 0.47036 0.0
H1016 H 0.05347 0.56979 0.52453 0.0
C1017 C 0.94782 0.52763 0.48977 0.0
C1018 C 0.93044 0.5357 0.47085 0.0
C1019 C 0.94084 0.56634 0.45576 0.0
C1020 C 0.96809 0.58829 0.45909 0.0
C1021 C 0.98471 0.57936 0.47768 0.0
C1022 C 0.97487 0.54975 0.49283 0.0
C1023 C 0.99702 0.54518 0.51035 0.0
C1024 C 0.99122 0.54282 0.54459 0.0
C1025 C 1.00094 0.51505 0.49886 0.0
C1026 C 0.02099 0.57666 0.50245 0.0
C1027 C 0.01354 0.59617 0.48367 0.0
C1028 C 0.0326 0.62569 0.47224 0.0
C1029 C 0.05994 0.63523 0.47983 0.0
C1030 C 0.06804 0.61536 0.49873 0.0
C1031 C 0.04807 0.58593 0.51045 0.0
H1032 H 0.6113 0.25503 0.09561 0.0
H1033 H 0.57441 0.22868 0.00655 0.0
H1034 H 0.57412 0.28334 0.00199 0.0
H1035 H 0.57327 0.30101 0.11939 0.0
H1036 H 0.60136 0.33108 0.13966 0.0
H1037 H 0.5985 0.28977 0.13601 0.0
H1038 H 0.64632 0.31158 0.1123 0.0
H1039 H 0.64932 0.35291 0.11587 0.0
H1040 H 0.65377 0.33771 0.0794 0.0
H1041 H 0.58072 0.34162 0.00565 0.0
H1042 H 0.5923 0.39926 0.01772 0.0
H1043 H 0.6209 0.38615 0.10646 0.0
C1044 C 0.60284 0.26047 0.07525 0.0
C1045 C 0.59266 0.23736 0.05152 0.0
C1046 C 0.58218 0.24585 0.02511 0.0
C1047 C 0.5819 0.27681 0.02232 0.0
C1048 C 0.59186 0.2988 0.04627 0.0
C1049 C 0.60198 0.29098 0.0723 0.0
C1050 C 0.61165 0.31916 0.09463 0.0
C1051 C 0.5952 0.30968 0.12417 0.0
C1052 C 0.64207 0.33104 0.1009 0.0
C1053 C 0.6057 0.34427 0.07688 0.0
C1054 C 0.59444 0.33203 0.04899 0.0
C1055 C 0.58905 0.3513 0.02763 0.0
C1056 C 0.59566 0.38408 0.03477 0.0
C1057 C 0.60712 0.39724 0.06324 0.0
C1058 C 0.61172 0.37677 0.08474 0.0
H1059 H 0.27905 0.4923 0.57697 0.0
H1060 H 0.32234 0.53475 0.49406 0.0
H1061 H 0.28652 0.553 0.48044 0.0
H1062 H 0.20908 0.46852 0.54813 0.0
H1063 H 0.19887 0.47975 0.58365 0.0
H1064 H 0.22462 0.46431 0.58301 0.0
H1065 H 0.25662 0.51588 0.61152 0.0
H1066 H 0.23171 0.53241 0.61165 0.0
H1067 H 0.26458 0.5558 0.59556 0.0
H1068 H 0.24836 0.57275 0.47978 0.0
H1069 H 0.21311 0.59223 0.4922 0.0
H1070 H 0.19792 0.53946 0.57743 0.0
C1071 C 0.28077 0.50448 0.55539 0.0
C1072 C 0.3036 0.51192 0.53654 0.0
C1073 C 0.30496 0.52838 0.50875 0.0
C1074 C 0.28471 0.53893 0.5009 0.0
C1075 C 0.26322 0.53261 0.52098 0.0
C1076 C 0.26112 0.51543 0.54754 0.0
C1077 C 0.23814 0.51487 0.56719 0.0
C1078 C 0.21638 0.47977 0.57069 0.0
C1079 C 0.2484 0.53072 0.59829 0.0
C1080 C 0.22808 0.53546 0.54817 0.0
C1081 C 0.24228 0.54491 0.52125 0.0
C1082 C 0.23699 0.56511 0.50064 0.0
C1083 C 0.21692 0.57605 0.50789 0.0
C1084 C 0.20281 0.56736 0.53583 0.0
C1085 C 0.20837 0.54652 0.55594 0.0
H1086 H 0.77412 0.33022 0.01289 0.0
H1087 H 0.82279 0.28034 0.04287 0.0
H1088 H 0.78177 0.22842 0.04657 0.0
H1089 H 0.72362 0.29529 0.06188 0.0
H1090 H 0.69603 0.29157 0.03731 0.0
H1091 H 0.72923 0.32275 0.03022 0.0
H1092 H 0.72874 0.30112 0.97567 0.0
H1093 H 0.69507 0.27038 0.98211 0.0
H1094 H 0.72131 0.25849 0.96982 0.0
H1095 H 0.73435 0.18597 0.0587 0.0
H1096 H 0.68543 0.15404 0.06886 0.0
H1097 H 0.66826 0.23089 0.02759 0.0
C1098 C 0.77626 0.30784 0.01821 0.0
C1099 C 0.8016 0.30889 0.02665 0.0
C1100 C 0.80365 0.27965 0.03522 0.0
C1101 C 0.78037 0.25019 0.0378 0.0
C1102 C 0.75534 0.25038 0.03112 0.0
C1103 C 0.75329 0.27829 0.0205 0.0
C1104 C 0.72408 0.27316 0.01758 0.0
C1105 C 0.7179 0.2971 0.03796 0.0
C1106 C 0.71687 0.27594 0.98431 0.0
C1107 C 0.70997 0.23837 0.02899 0.0
C1108 C 0.72824 0.22562 0.037 0.0
C1109 C 0.71986 0.19529 0.05152 0.0
C1110 C 0.69214 0.17743 0.05742 0.0
C1111 C 0.67322 0.18976 0.04835 0.0
C1112 C 0.68232 0.22051 0.03388 0.0
H1113 H 0.41738 0.75418 0.56697 0.0
H1114 H 0.37069 0.75358 0.64702 0.0
H1115 H 0.36423 0.69728 0.65822 0.0
H1116 H 0.37452 0.67312 0.54491 0.0
H1117 H 0.40141 0.66361 0.53045 0.0
H1118 H 0.4049 0.70528 0.53042 0.0
H1119 H 0.44937 0.72279 0.56105 0.0
H1120 H 0.44585 0.68105 0.56134 0.0
H1121 H 0.44932 0.70281 0.59655 0.0
H1122 H 0.36131 0.64003 0.66014 0.0
H1123 H 0.35879 0.58472 0.64951 0.0
H1124 H 0.40495 0.62173 0.56693 0.0
C1125 C 0.40619 0.74241 0.58711 0.0
C1126 C 0.39516 0.75878 0.60647 0.0
C1127 C 0.37993 0.74203 0.63214 0.0
C1128 C 0.37608 0.70991 0.63875 0.0
C1129 C 0.38723 0.69451 0.6193 0.0
C1130 C 0.40169 0.71002 0.59379 0.0
C1131 C 0.40951 0.68695 0.57522 0.0
C1132 C 0.39682 0.68194 0.54337 0.0
C1133 C 0.44035 0.69914 0.57345 0.0
C1134 C 0.39704 0.65615 0.59421 0.0
C1135 C 0.3846 0.66108 0.61975 0.0
C1136 C 0.3711 0.63586 0.64025 0.0
C1137 C 0.36984 0.60455 0.6341 0.0
C1138 C 0.3817 0.59875 0.60746 0.0
C1139 C 0.3958 0.62519 0.58764 0.0
H1140 H 0.71607 0.48961 0.0978 0.0
H1141 H 0.70632 0.50383 0.00196 0.0
H1142 H 0.74476 0.48932 0.99072 0.0
H1143 H 0.78997 0.51942 0.09876 0.0
H1144 H 0.78836 0.48885 0.12616 0.0
H1145 H 0.76294 0.50482 0.12611 0.0
H1146 H 0.72602 0.4459 0.12173 0.0
H1147 H 0.75103 0.42947 0.12089 0.0
H1148 H 0.72683 0.42037 0.09054 0.0
H1149 H 0.78121 0.46658 0.99047 0.0
H1150 H 0.81245 0.44057 0.00092 0.0
H1151 H 0.7966 0.44163 0.09729 0.0
C1152 C 0.72231 0.49076 0.07442 0.0
C1153 C 0.70814 0.49818 0.05078 0.0
C1154 C 0.71698 0.49863 0.02051 0.0
C1155 C 0.73873 0.49028 0.01395 0.0
C1156 C 0.75149 0.48188 0.03794 0.0
C1157 C 0.74367 0.48251 0.0676 0.0
C1158 C 0.75888 0.47026 0.08938 0.0
C1159 C 0.77606 0.49747 0.1114 0.0
C1160 C 0.73953 0.43968 0.10662 0.0
C1161 C 0.77632 0.46192 0.0674 0.0
C1162 C 0.77199 0.4689 0.03783 0.0
C1163 C 0.78495 0.46152 0.01359 0.0
C1164 C 0.80265 0.44665 0.01979 0.0
C1165 C 0.80719 0.43918 0.05001 0.0
C1166 C 0.7939 0.44727 0.07399 0.0
H1167 H 0.23192 0.67637 0.50935 0.0
H1168 H 0.17953 0.7205 0.54091 0.0
H1169 H 0.2191 0.7734 0.54744 0.0
H1170 H 0.27872 0.70852 0.56159 0.0
H1171 H 0.308 0.71515 0.53878 0.0
H1172 H 0.27574 0.684 0.52827 0.0
H1173 H 0.27928 0.71023 0.47514 0.0
H1174 H 0.31203 0.74114 0.48518 0.0
H1175 H 0.28596 0.75296 0.47209 0.0
H1176 H 0.26487 0.81613 0.56319 0.0
H1177 H 0.31218 0.84715 0.57986 0.0
H1178 H 0.33455 0.77546 0.5362 0.0
C1179 C 0.2287 0.69786 0.5155 0.0
C1180 C 0.20272 0.69483 0.52364 0.0
C1181 C 0.19918 0.72278 0.53339 0.0
C1182 C 0.22164 0.75279 0.53756 0.0
C1183 C 0.24735 0.75442 0.53134 0.0
C1184 C 0.25087 0.72784 0.51964 0.0
C1185 C 0.28045 0.73417 0.51867 0.0
C1186 C 0.28603 0.70898 0.53797 0.0
C1187 C 0.28999 0.73467 0.48581 0.0
C1188 C 0.293 0.76789 0.53273 0.0
C1189 C 0.27369 0.77929 0.5399 0.0
C1190 C 0.28024 0.80796 0.5567 0.0
C1191 C 0.30712 0.82533 0.56625 0.0
C1192 C 0.32716 0.81411 0.55879 0.0
C1193 C 0.31991 0.78528 0.54142 0.0
H1194 H 0.79497 0.49827 0.42324 0.0
H1195 H 0.79438 0.46095 0.51376 0.0
H1196 H 0.75087 0.46459 0.52379 0.0
H1197 H 0.75712 0.55047 0.43822 0.0
H1198 H 0.73943 0.53799 0.40269 0.0
H1199 H 0.77348 0.54134 0.40626 0.0
H1200 H 0.7575 0.48151 0.38784 0.0
H1201 H 0.72333 0.47733 0.38493 0.0
H1202 H 0.73107 0.44931 0.40822 0.0
H1203 H 0.70318 0.46175 0.51964 0.0
H1204 H 0.65748 0.45293 0.50259 0.0
H1205 H 0.6892 0.48896 0.41316 0.0
C1206 C 0.78625 0.49194 0.44552 0.0
C1207 C 0.79807 0.47926 0.46762 0.0
C1208 C 0.78592 0.47116 0.49658 0.0
C1209 C 0.7611 0.47301 0.50236 0.0
C1210 C 0.74898 0.48332 0.47903 0.0
C1211 C 0.76148 0.49308 0.45126 0.0
C1212 C 0.74296 0.49813 0.4282 0.0
C1213 C 0.7539 0.53413 0.41827 0.0
C1214 C 0.73845 0.47521 0.4007 0.0
C1215 C 0.71759 0.48863 0.44689 0.0
C1216 C 0.72149 0.48076 0.47632 0.0
C1217 C 0.70013 0.4685 0.49685 0.0
C1218 C 0.67417 0.46353 0.48689 0.0
C1219 C 0.66963 0.47032 0.45647 0.0
C1220 C 0.69191 0.4839 0.43663 0.0
H1221 H 0.30971 0.77231 0.90189 0.0
H1222 H 0.30717 0.80265 0.9949 0.0
H1223 H 0.26792 0.74965 0.00449 0.0
H1224 H 0.23941 0.73101 0.8891 0.0
H1225 H 0.24264 0.69931 0.86658 0.0
H1226 H 0.26978 0.73958 0.86762 0.0
H1227 H 0.30287 0.71484 0.88489 0.0
H1228 H 0.27592 0.67443 0.88391 0.0
H1229 H 0.29517 0.68929 0.91817 0.0
H1230 H 0.22886 0.69176 0.00298 0.0
H1231 H 0.19504 0.636 0.99138 0.0
H1232 H 0.22536 0.64583 0.89915 0.0
C1233 C 0.30113 0.76827 0.92442 0.0
C1234 C 0.31166 0.79199 0.94765 0.0
C1235 C 0.29945 0.78505 0.97668 0.0
C1236 C 0.2772 0.75499 0.98229 0.0
C1237 C 0.26757 0.73223 0.95866 0.0
C1238 C 0.27936 0.73872 0.93035 0.0
C1239 C 0.26611 0.71047 0.90867 0.0
C1240 C 0.25375 0.72071 0.88139 0.0
C1241 C 0.28621 0.69643 0.89832 0.0
C1242 C 0.24458 0.6868 0.92901 0.0
C1243 C 0.24567 0.6996 0.95779 0.0
C1244 C 0.22787 0.68168 0.98049 0.0
C1245 C 0.20867 0.64998 0.97362 0.0
C1246 C 0.20731 0.63643 0.94422 0.0
C1247 C 0.22557 0.65537 0.92175 0.0
H1248 H 0.62669 0.22556 0.40476 0.0
H1249 H 0.54915 0.16032 0.44105 0.0
H1250 H 0.53769 0.20758 0.44993 0.0
H1251 H 0.64044 0.28694 0.45619 0.0
H1252 H 0.65636 0.32044 0.43015 0.0
H1253 H 0.65675 0.28129 0.42248 0.0
H1254 H 0.63441 0.27894 0.37006 0.0
H1255 H 0.63465 0.31857 0.37729 0.0
H1256 H 0.60347 0.28447 0.36783 0.0
H1257 H 0.53689 0.26336 0.45894 0.0
H1258 H 0.54528 0.32192 0.46304 0.0
H1259 H 0.6242 0.34894 0.4222 0.0
C1260 C 0.6068 0.22097 0.41306 0.0
C1261 C 0.58848 0.1893 0.42144 0.0
C1262 C 0.56321 0.18449 0.43405 0.0
C1263 C 0.55661 0.21116 0.43924 0.0
C1264 C 0.57558 0.24238 0.4317 0.0
C1265 C 0.59999 0.24727 0.41839 0.0
C1266 C 0.61769 0.28324 0.4142 0.0
C1267 C 0.64438 0.29356 0.43182 0.0
C1268 C 0.62285 0.2918 0.38034 0.0
C1269 C 0.59975 0.29785 0.4279 0.0
C1270 C 0.57545 0.27409 0.43768 0.0
C1271 C 0.55579 0.28218 0.45114 0.0
C1272 C 0.56082 0.31546 0.45369 0.0
C1273 C 0.58535 0.34003 0.44293 0.0
C1274 C 0.60517 0.33086 0.43059 0.0
H1275 H 0.21574 0.49565 0.92251 0.0
H1276 H 0.20829 0.53142 0.01158 0.0
H1277 H 0.25365 0.5348 0.02483 0.0
H1278 H 0.25932 0.45199 0.94245 0.0
H1279 H 0.27828 0.46587 0.90785 0.0
H1280 H 0.24303 0.45805 0.90889 0.0
H1281 H 0.25498 0.51697 0.88938 0.0
H1282 H 0.29017 0.52513 0.88872 0.0
H1283 H 0.2789 0.55122 0.91024 0.0
H1284 H 0.30342 0.54455 0.02406 0.0
H1285 H 0.35083 0.55785 0.01047 0.0
H1286 H 0.32532 0.5184 0.92031 0.0
C1287 C 0.22313 0.50305 0.94519 0.0
C1288 C 0.20844 0.51333 0.96592 0.0
C1289 C 0.21897 0.52303 0.9954 0.0
C1290 C 0.24484 0.5252 0.00301 0.0
C1291 C 0.25965 0.51726 0.98096 0.0
C1292 C 0.24886 0.50589 0.95274 0.0
C1293 C 0.26969 0.50343 0.93135 0.0
C1294 C 0.26213 0.4677 0.9221 0.0
C1295 C 0.27365 0.52549 0.9033 0.0
C1296 C 0.29429 0.51614 0.95154 0.0
C1297 C 0.28815 0.52355 0.98023 0.0
C1298 C 0.30825 0.5382 0.00186 0.0
C1299 C 0.3352 0.54577 0.99386 0.0
C1300 C 0.34194 0.53909 0.96429 0.0
C1301 C 0.32098 0.52348 0.94321 0.0
H1302 H 0.69401 0.2106 0.40872 0.0
H1303 H 0.68666 0.18906 0.50517 0.0
H1304 H 0.72593 0.24191 0.51463 0.0
H1305 H 0.76617 0.25143 0.40398 0.0
H1306 H 0.76527 0.28107 0.37691 0.0
H1307 H 0.73815 0.24077 0.37812 0.0
H1308 H 0.70358 0.26625 0.38546 0.0
H1309 H 0.73061 0.30658 0.38412 0.0
H1310 H 0.70814 0.29446 0.41624 0.0
H1311 H 0.7653 0.29902 0.51288 0.0
H1312 H 0.80012 0.35395 0.50079 0.0
H1313 H 0.77923 0.33734 0.40535 0.0
C1314 C 0.70061 0.2165 0.43195 0.0
C1315 C 0.68717 0.1953 0.45622 0.0
C1316 C 0.69671 0.20459 0.48615 0.0
C1317 C 0.71894 0.23464 0.49171 0.0
C1318 C 0.73125 0.25512 0.46712 0.0
C1319 C 0.72228 0.24628 0.43785 0.0
C1320 C 0.73773 0.27292 0.41531 0.0
C1321 C 0.75272 0.26082 0.39222 0.0
C1322 C 0.71889 0.2858 0.39935 0.0
C1323 C 0.75714 0.29835 0.43635 0.0
C1324 C 0.75319 0.28771 0.46615 0.0
C1325 C 0.76855 0.30742 0.48961 0.0
C1326 C 0.78833 0.33868 0.48245 0.0
C1327 C 0.79262 0.35015 0.45203 0.0
C1328 C 0.77671 0.32945 0.4288 0.0
H1329 H 0.39995 0.66145 0.90524 0.0
H1330 H 0.45533 0.68512 0.98152 0.0
H1331 H 0.4615 0.7428 0.97843 0.0
H1332 H 0.436 0.73756 0.86323 0.0
H1333 H 0.40521 0.73912 0.85001 0.0
H1334 H 0.40635 0.70017 0.85724 0.0
H1335 H 0.36579 0.68462 0.89407 0.0
H1336 H 0.36438 0.72328 0.88671 0.0
H1337 H 0.36765 0.71162 0.92509 0.0
H1338 H 0.45841 0.79634 0.96976 0.0
H1339 H 0.44461 0.8408 0.95796 0.0
H1340 H 0.39441 0.78326 0.88466 0.0
C1341 C 0.41369 0.67872 0.92113 0.0
C1342 C 0.42732 0.66871 0.94354 0.0
C1343 C 0.44472 0.69216 0.96413 0.0
C1344 C 0.4485 0.72501 0.9624 0.0
C1345 C 0.43502 0.73402 0.93972 0.0
C1346 C 0.41797 0.71152 0.91946 0.0
C1347 C 0.4048 0.72701 0.89814 0.0
C1348 C 0.41363 0.7259 0.8652 0.0
C1349 C 0.37383 0.71067 0.90121 0.0
C1350 C 0.41643 0.76165 0.91022 0.0
C1351 C 0.43396 0.76522 0.93405 0.0
C1352 C 0.44507 0.79398 0.95083 0.0
C1353 C 0.4371 0.81914 0.94397 0.0
C1354 C 0.41833 0.81549 0.92048 0.0
C1355 C 0.40893 0.78697 0.90251 0.0
loop_
_geom_bond_atom_site_label_1
_geom_bond_atom_site_label_2
_geom_bond_distance
_geom_bond_site_symmetry_2
_ccdc_geom_bond_type
Co0 O2 2.143 . S
Co0 O8 2.074 . S
Co0 O11 2.093 . S
Co0 O24 2.097 . S
Co0 N41 2.151 . S
Co0 N49 2.214 . S
Co1 O2 2.160 . S
Co1 O7 2.058 . S
Co1 O17 2.057 . S
Co1 O32 2.037 . S
Co1 N36 2.145 1_554 S
Co1 N57 2.257 . S
O2 Co0 2.143 . S
O2 Co1 2.160 . S
C3 O4 1.278 . S
C3 O11 1.224 . S
O4 C3 1.278 . S
C5 O6 1.245 . S
C5 O17 1.232 . S
O6 C5 1.245 . S
O7 Co1 2.058 . S
O7 C33 1.269 . S
O8 Co0 2.074 . S
O8 C33 1.257 . S
H9 C34 0.930 . S
H10 C40 0.930 . S
O11 Co0 2.093 . S
O11 C3 1.224 . S
H12 C44 0.929 . S
H13 C46 0.930 . S
H14 C47 0.930 . S
H15 C45 0.929 . S
H16 C48 0.928 . S
O17 Co1 2.057 . S
O17 C5 1.232 . S
H18 C37 0.929 . S
H19 C38 0.929 . S
H20 C50 0.931 . S
H21 C42 0.929 . S
H22 C51 0.930 . S
H23 C43 0.931 . S
O24 Co0 2.097 . S
O24 C52 1.214 . S
H25 C53 0.929 . S
H26 C54 0.929 . S
H27 C55 0.930 . S
H28 C56 0.929 . S
H29 C58 0.930 . S
H30 C35 0.930 . S
H31 C39 0.930 . S
O32 Co1 2.037 . S
O32 C52 1.234 . S
C33 O7 1.269 . S
C33 O8 1.257 . S
C34 H9 0.930 . S
C34 C37 1.388 . S
C34 C39 1.418 . S
C35 H30 0.930 . S
C35 C38 1.404 . S
C35 C39 1.353 . S
N36 Co1 2.145 1_556 S
N36 C37 1.397 . S
N36 C38 1.334 . S
C37 H18 0.929 . S
C37 C34 1.388 . S
C37 N36 1.397 . S
C38 H19 0.929 . S
C38 C35 1.404 . S
C38 N36 1.334 . S
C39 H31 0.930 . S
C39 C34 1.418 . S
C39 C35 1.353 . S
C40 H10 0.930 . S
C40 N41 1.330 . S
C40 C42 1.446 . S
N41 Co0 2.151 . S
N41 C40 1.330 . S
N41 C45 1.418 . S
C42 H21 0.929 . S
C42 C40 1.446 . S
C42 C43 1.332 . S
C43 H23 0.931 . S
C43 C42 1.332 . S
C43 C44 1.267 . S
C44 H12 0.929 . S
C44 C43 1.267 . S
C44 C45 1.251 . S
C45 H15 0.929 . S
C45 N41 1.418 . S
C45 C44 1.251 . S
C46 H13 0.930 . S
C46 C48 1.406 . S
C46 C51 1.261 . S
C47 H14 0.930 . S
C47 N49 1.325 . S
C47 C50 1.357 . S
C48 H16 0.928 . S
C48 C46 1.406 . S
C48 N49 1.261 . S
N49 Co0 2.214 . S
N49 C47 1.325 . S
N49 C48 1.261 . S
C50 H20 0.931 . S
C50 C47 1.357 . S
C50 C51 1.312 . S
C51 H22 0.930 . S
C51 C46 1.261 . S
C51 C50 1.312 . S
C52 O24 1.214 . S
C52 O32 1.234 . S
C53 H25 0.929 . S
C53 C56 1.391 . S
C53 C58 1.391 . S
C54 H26 0.929 . S
C54 C55 1.390 . S
C54 N57 1.391 . S
C55 H27 0.930 . S
C55 C54 1.390 . S
C55 C56 1.392 . S
C56 H28 0.929 . S
C56 C53 1.391 . S
C56 C55 1.392 . S
N57 Co1 2.257 . S
N57 C54 1.391 . S
N57 C58 1.388 . S
C58 H29 0.930 . S
C58 C53 1.391 . S
C58 N57 1.388 . S
Co59 O61 2.143 . S
Co59 O67 2.074 . S
Co59 O70 2.093 . S
Co59 O83 2.097 . S
Co59 N100 2.151 . S
Co59 N108 2.214 . S
Co60 O61 2.160 . S
Co60 O66 2.058 . S
Co60 O76 2.057 . S
Co60 O91 2.037 . S
Co60 N95 2.145 . S
Co60 N116 2.257 . S
O61 Co59 2.143 . S
O61 Co60 2.160 . S
C62 O63 1.278 . S
C62 O70 1.224 . S
O63 C62 1.278 . S
C64 O65 1.245 . S
C64 O76 1.232 . S
O65 C64 1.245 . S
O66 Co60 2.058 . S
O66 C92 1.269 . S
O67 Co59 2.074 . S
O67 C92 1.257 . S
H68 C93 0.930 . S
H69 C99 0.930 . S
O70 Co59 2.093 . S
O70 C62 1.224 . S
H71 C103 0.929 . S
H72 C105 0.930 . S
H73 C106 0.930 . S
H74 C104 0.929 . S
H75 C107 0.928 . S
O76 Co60 2.057 . S
O76 C64 1.232 . S
H77 C96 0.929 . S
H78 C97 0.929 . S
H79 C109 0.931 . S
H80 C101 0.929 . S
H81 C110 0.930 . S
H82 C102 0.931 . S
O83 Co59 2.097 . S
O83 C111 1.214 . S
H84 C112 0.929 . S
H85 C113 0.929 . S
H86 C114 0.930 . S
H87 C115 0.929 . S
H88 C117 0.930 . S
H89 C94 0.930 . S
H90 C98 0.930 . S
O91 Co60 2.037 . S
O91 C111 1.234 . S
C92 O66 1.269 . S
C92 O67 1.257 . S
C93 H68 0.930 . S
C93 C96 1.388 . S
C93 C98 1.418 . S
C94 H89 0.930 . S
C94 C97 1.404 . S
C94 C98 1.353 . S
N95 Co60 2.145 . S
N95 C96 1.397 . S
N95 C97 1.334 . S
C96 H77 0.929 . S
C96 C93 1.388 . S
C96 N95 1.397 . S
C97 H78 0.929 . S
C97 C94 1.404 . S
C97 N95 1.334 . S
C98 H90 0.930 . S
C98 C93 1.418 . S
C98 C94 1.353 . S
C99 H69 0.930 . S
C99 N100 1.330 . S
C99 C101 1.446 . S
N100 Co59 2.151 . S
N100 C99 1.330 . S
N100 C104 1.418 . S
C101 H80 0.929 . S
C101 C99 1.446 . S
C101 C102 1.332 . S
C102 H82 0.931 . S
C102 C101 1.332 . S
C102 C103 1.267 . S
C103 H71 0.929 . S
C103 C102 1.267 . S
C103 C104 1.251 . S
C104 H74 0.929 . S
C104 N100 1.418 . S
C104 C103 1.251 . S
C105 H72 0.930 . S
C105 C107 1.406 . S
C105 C110 1.261 . S
C106 H73 0.930 . S
C106 N108 1.325 . S
C106 C109 1.357 . S
C107 H75 0.928 . S
C107 C105 1.406 . S
C107 N108 1.261 . S
N108 Co59 2.214 . S
N108 C106 1.325 . S
N108 C107 1.261 . S
C109 H79 0.931 . S
C109 C106 1.357 . S
C109 C110 1.312 . S
C110 H81 0.930 . S
C110 C105 1.261 . S
C110 C109 1.312 . S
C111 O83 1.214 . S
C111 O91 1.234 . S
C112 H84 0.929 . S
C112 C115 1.391 . S
C112 C117 1.391 . S
C113 H85 0.929 . S
C113 C114 1.390 . S
C113 N116 1.391 . S
C114 H86 0.930 . S
C114 C113 1.390 . S
C114 C115 1.392 . S
C115 H87 0.929 . S
C115 C112 1.391 . S
C115 C114 1.392 . S
N116 Co60 2.257 . S
N116 C113 1.391 . S
N116 C117 1.388 . S
C117 H88 0.930 . S
C117 C112 1.391 . S
C117 N116 1.388 . S
Co118 O120 2.143 . S
Co118 O126 2.074 . S
Co118 O129 2.093 . S
Co118 O142 2.097 . S
Co118 N159 2.151 . S
Co118 N167 2.214 1_554 S
Co119 O120 2.160 . S
Co119 O125 2.058 . S
Co119 O135 2.057 . S
Co119 O150 2.037 . S
Co119 N154 2.145 . S
Co119 N175 2.257 . S
O120 Co118 2.143 . S
O120 Co119 2.160 . S
C121 O122 1.278 . S
C121 O129 1.224 . S
O122 C121 1.278 . S
C123 O124 1.245 . S
C123 O135 1.232 . S
O124 C123 1.245 . S
O125 Co119 2.058 . S
O125 C151 1.269 . S
O126 Co118 2.074 . S
O126 C151 1.257 . S
H127 C152 0.930 . S
H128 C158 0.930 . S
O129 Co118 2.093 . S
O129 C121 1.224 . S
H130 C162 0.929 . S
H131 C164 0.930 . S
H132 C165 0.930 . S
H133 C163 0.929 . S
H134 C166 0.928 . S
O135 Co119 2.057 . S
O135 C123 1.232 . S
H136 C155 0.929 . S
H137 C156 0.929 . S
H138 C168 0.931 . S
H139 C160 0.929 . S
H140 C169 0.930 . S
H141 C161 0.931 . S
O142 Co118 2.097 . S
O142 C170 1.214 . S
H143 C171 0.929 . S
H144 C172 0.929 . S
H145 C173 0.930 . S
H146 C174 0.929 . S
H147 C176 0.930 . S
H148 C153 0.930 . S
H149 C157 0.930 . S
O150 Co119 2.037 . S
O150 C170 1.234 . S
C151 O125 1.269 . S
C151 O126 1.257 . S
C152 H127 0.930 . S
C152 C155 1.388 . S
C152 C157 1.418 . S
C153 H148 0.930 . S
C153 C156 1.404 . S
C153 C157 1.353 . S
N154 Co119 2.145 . S
N154 C155 1.397 . S
N154 C156 1.334 . S
C155 H136 0.929 . S
C155 C152 1.388 . S
C155 N154 1.397 . S
C156 H137 0.929 . S
C156 C153 1.404 . S
C156 N154 1.334 . S
C157 H149 0.930 . S
C157 C152 1.418 . S
C157 C153 1.353 . S
C158 H128 0.930 . S
C158 N159 1.330 . S
C158 C160 1.446 . S
N159 Co118 2.151 . S
N159 C158 1.330 . S
N159 C163 1.418 . S
C160 H139 0.929 . S
C160 C158 1.446 . S
C160 C161 1.332 . S
C161 H141 0.931 . S
C161 C160 1.332 . S
C161 C162 1.267 . S
C162 H130 0.929 . S
C162 C161 1.267 . S
C162 C163 1.251 . S
C163 H133 0.929 . S
C163 N159 1.418 . S
C163 C162 1.251 . S
C164 H131 0.930 . S
C164 C166 1.406 . S
C164 C169 1.261 . S
C165 H132 0.930 . S
C165 N167 1.325 . S
C165 C168 1.357 . S
C166 H134 0.928 . S
C166 C164 1.406 . S
C166 N167 1.261 . S
N167 Co118 2.214 1_556 S
N167 C165 1.325 . S
N167 C166 1.261 . S
C168 H138 0.931 . S
C168 C165 1.357 . S
C168 C169 1.312 . S
C169 H140 0.930 . S
C169 C164 1.261 . S
C169 C168 1.312 . S
C170 O142 1.214 . S
C170 O150 1.234 . S
C171 H143 0.929 . S
C171 C174 1.391 . S
C171 C176 1.391 . S
C172 H144 0.929 . S
C172 C173 1.390 . S
C172 N175 1.391 . S
C173 H145 0.930 . S
C173 C172 1.390 . S
C173 C174 1.392 . S
C174 H146 0.929 . S
C174 C171 1.391 . S
C174 C173 1.392 . S
N175 Co119 2.257 . S
N175 C172 1.391 . S
N175 C176 1.388 . S
C176 H147 0.930 . S
C176 C171 1.391 . S
C176 N175 1.388 . S
Co177 O179 2.143 . S
Co177 O185 2.074 . S
Co177 O188 2.093 . S
Co177 O201 2.097 . S
Co177 N218 2.151 . S
Co177 N226 2.214 . S
Co178 O179 2.160 . S
Co178 O184 2.058 . S
Co178 O194 2.057 . S
Co178 O209 2.037 . S
Co178 N213 2.145 . S
Co178 N234 2.257 . S
O179 Co177 2.143 . S
O179 Co178 2.160 . S
C180 O181 1.278 . S
C180 O188 1.224 . S
O181 C180 1.278 . S
C182 O183 1.245 . S
C182 O194 1.232 . S
O183 C182 1.245 . S
O184 Co178 2.058 . S
O184 C210 1.269 . S
O185 Co177 2.074 . S
O185 C210 1.257 . S
H186 C211 0.930 . S
H187 C217 0.930 . S
O188 Co177 2.093 . S
O188 C180 1.224 . S
H189 C221 0.929 . S
H190 C223 0.930 . S
H191 C224 0.930 . S
H192 C222 0.929 . S
H193 C225 0.928 . S
O194 Co178 2.057 . S
O194 C182 1.232 . S
H195 C214 0.929 . S
H196 C215 0.929 . S
H197 C227 0.931 . S
H198 C219 0.929 . S
H199 C228 0.930 . S
H200 C220 0.931 . S
O201 Co177 2.097 . S
O201 C229 1.214 . S
H202 C230 0.929 . S
H203 C231 0.929 . S
H204 C232 0.930 . S
H205 C233 0.929 . S
H206 C235 0.930 . S
H207 C212 0.930 . S
H208 C216 0.930 . S
O209 Co178 2.037 . S
O209 C229 1.234 . S
C210 O184 1.269 . S
C210 O185 1.257 . S
C211 H186 0.930 . S
C211 C214 1.388 . S
C211 C216 1.418 . S
C212 H207 0.930 . S
C212 C215 1.404 . S
C212 C216 1.353 . S
N213 Co178 2.145 . S
N213 C214 1.397 . S
N213 C215 1.334 . S
C214 H195 0.929 . S
C214 C211 1.388 . S
C214 N213 1.397 . S
C215 H196 0.929 . S
C215 C212 1.404 . S
C215 N213 1.334 . S
C216 H208 0.930 . S
C216 C211 1.418 . S
C216 C212 1.353 . S
C217 H187 0.930 . S
C217 N218 1.330 . S
C217 C219 1.446 . S
N218 Co177 2.151 . S
N218 C217 1.330 . S
N218 C222 1.418 . S
C219 H198 0.929 . S
C219 C217 1.446 . S
C219 C220 1.332 . S
C220 H200 0.931 . S
C220 C219 1.332 . S
C220 C221 1.267 . S
C221 H189 0.929 . S
C221 C220 1.267 . S
C221 C222 1.251 . S
C222 H192 0.929 . S
C222 N218 1.418 . S
C222 C221 1.251 . S
C223 H190 0.930 . S
C223 C225 1.406 . S
C223 C228 1.261 . S
C224 H191 0.930 . S
C224 N226 1.325 . S
C224 C227 1.357 . S
C225 H193 0.928 . S
C225 C223 1.406 . S
C225 N226 1.261 . S
N226 Co177 2.214 . S
N226 C224 1.325 . S
N226 C225 1.261 . S
C227 H197 0.931 . S
C227 C224 1.357 . S
C227 C228 1.312 . S
C228 H199 0.930 . S
C228 C223 1.261 . S
C228 C227 1.312 . S
C229 O201 1.214 . S
C229 O209 1.234 . S
C230 H202 0.929 . S
C230 C233 1.391 . S
C230 C235 1.391 . S
C231 H203 0.929 . S
C231 C232 1.390 . S
C231 N234 1.391 . S
C232 H204 0.930 . S
C232 C231 1.390 . S
C232 C233 1.392 . S
C233 H205 0.929 . S
C233 C230 1.391 . S
C233 C232 1.392 . S
N234 Co178 2.257 . S
N234 C231 1.391 . S
N234 C235 1.388 . S
C235 H206 0.930 . S
C235 C230 1.391 . S
C235 N234 1.388 . S
Co236 O238 2.143 . S
Co236 O244 2.074 . S
Co236 O247 2.093 . S
Co236 O260 2.097 . S
Co236 N277 2.151 . S
Co236 N285 2.214 . S
Co237 O238 2.160 . S
Co237 O243 2.058 . S
Co237 O253 2.057 . S
Co237 O268 2.037 . S
Co237 N272 2.145 1_554 S
Co237 N293 2.257 . S
O238 Co236 2.143 . S
O238 Co237 2.160 . S
C239 O240 1.278 . S
C239 O247 1.224 . S
O240 C239 1.278 . S
C241 O242 1.245 . S
C241 O253 1.232 . S
O242 C241 1.245 . S
O243 Co237 2.058 . S
O243 C269 1.269 . S
O244 Co236 2.074 . S
O244 C269 1.257 . S
H245 C270 0.930 . S
H246 C276 0.930 . S
O247 Co236 2.093 . S
O247 C239 1.224 . S
H248 C280 0.929 . S
H249 C282 0.930 . S
H250 C283 0.930 . S
H251 C281 0.929 . S
H252 C284 0.928 . S
O253 Co237 2.057 . S
O253 C241 1.232 . S
H254 C273 0.929 . S
H255 C274 0.929 . S
H256 C286 0.931 . S
H257 C278 0.929 . S
H258 C287 0.930 . S
H259 C279 0.931 . S
O260 Co236 2.097 . S
O260 C288 1.214 . S
H261 C289 0.929 . S
H262 C290 0.929 . S
H263 C291 0.930 . S
H264 C292 0.929 . S
H265 C294 0.930 . S
H266 C271 0.930 . S
H267 C275 0.930 . S
O268 Co237 2.037 . S
O268 C288 1.234 . S
C269 O243 1.269 . S
C269 O244 1.257 . S
C270 H245 0.930 . S
C270 C273 1.388 . S
C270 C275 1.418 . S
C271 H266 0.930 . S
C271 C274 1.404 . S
C271 C275 1.353 . S
N272 Co237 2.145 1_556 S
N272 C273 1.397 . S
N272 C274 1.334 . S
C273 H254 0.929 . S
C273 C270 1.388 . S
C273 N272 1.397 . S
C274 H255 0.929 . S
C274 C271 1.404 . S
C274 N272 1.334 . S
C275 H267 0.930 . S
C275 C270 1.418 . S
C275 C271 1.353 . S
C276 H246 0.930 . S
C276 N277 1.330 . S
C276 C278 1.446 . S
N277 Co236 2.151 . S
N277 C276 1.330 . S
N277 C281 1.418 . S
C278 H257 0.929 . S
C278 C276 1.446 . S
C278 C279 1.332 . S
C279 H259 0.931 . S
C279 C278 1.332 . S
C279 C280 1.267 . S
C280 H248 0.929 . S
C280 C279 1.267 . S
C280 C281 1.251 . S
C281 H251 0.929 . S
C281 N277 1.418 . S
C281 C280 1.251 . S
C282 H249 0.930 . S
C282 C284 1.406 . S
C282 C287 1.261 . S
C283 H250 0.930 . S
C283 N285 1.325 . S
C283 C286 1.357 . S
C284 H252 0.928 . S
C284 C282 1.406 . S
C284 N285 1.261 . S
N285 Co236 2.214 . S
N285 C283 1.325 . S
N285 C284 1.261 . S
C286 H256 0.931 . S
C286 C283 1.357 . S
C286 C287 1.312 . S
C287 H258 0.930 . S
C287 C282 1.261 . S
C287 C286 1.312 . S
C288 O260 1.214 . S
C288 O268 1.234 . S
C289 H261 0.929 . S
C289 C292 1.391 . S
C289 C294 1.391 . S
C290 H262 0.929 . S
C290 C291 1.390 . S
C290 N293 1.391 . S
C291 H263 0.930 . S
C291 C290 1.390 . S
C291 C292 1.392 . S
C292 H264 0.929 . S
C292 C289 1.391 . S
C292 C291 1.392 . S
N293 Co237 2.257 . S
N293 C290 1.391 . S
N293 C294 1.388 . S
C294 H265 0.930 . S
C294 C289 1.391 . S
C294 N293 1.388 . S
Co295 O297 2.143 . S
Co295 O303 2.074 . S
Co295 O306 2.093 . S
Co295 O319 2.097 . S
Co295 N336 2.151 . S
Co295 N344 2.214 . S
Co296 O297 2.160 . S
Co296 O302 2.058 . S
Co296 O312 2.057 . S
Co296 O327 2.037 . S
Co296 N331 2.145 . S
Co296 N352 2.257 . S
O297 Co295 2.143 . S
O297 Co296 2.160 . S
C298 O299 1.278 . S
C298 O306 1.224 . S
O299 C298 1.278 . S
C300 O301 1.245 . S
C300 O312 1.232 . S
O301 C300 1.245 . S
O302 Co296 2.058 . S
O302 C328 1.269 . S
O303 Co295 2.074 . S
O303 C328 1.257 . S
H304 C329 0.930 . S
H305 C335 0.930 . S
O306 Co295 2.093 . S
O306 C298 1.224 . S
H307 C339 0.929 . S
H308 C341 0.930 . S
H309 C342 0.930 . S
H310 C340 0.929 . S
H311 C343 0.928 . S
O312 Co296 2.057 . S
O312 C300 1.232 . S
H313 C332 0.929 . S
H314 C333 0.929 . S
H315 C345 0.931 . S
H316 C337 0.929 . S
H317 C346 0.930 . S
H318 C338 0.931 . S
O319 Co295 2.097 . S
O319 C347 1.214 . S
H320 C348 0.929 . S
H321 C349 0.929 . S
H322 C350 0.930 . S
H323 C351 0.929 . S
H324 C353 0.930 . S
H325 C330 0.930 . S
H326 C334 0.930 . S
O327 Co296 2.037 . S
O327 C347 1.234 . S
C328 O302 1.269 . S
C328 O303 1.257 . S
C329 H304 0.930 . S
C329 C332 1.388 . S
C329 C334 1.418 . S
C330 H325 0.930 . S
C330 C333 1.404 . S
C330 C334 1.353 . S
N331 Co296 2.145 . S
N331 C332 1.397 . S
N331 C333 1.334 . S
C332 H313 0.929 . S
C332 C329 1.388 . S
C332 N331 1.397 . S
C333 H314 0.929 . S
C333 C330 1.404 . S
C333 N331 1.334 . S
C334 H326 0.930 . S
C334 C329 1.418 . S
C334 C330 1.353 . S
C335 H305 0.930 . S
C335 N336 1.330 . S
C335 C337 1.446 . S
N336 Co295 2.151 . S
N336 C335 1.330 . S
N336 C340 1.418 . S
C337 H316 0.929 . S
C337 C335 1.446 . S
C337 C338 1.332 . S
C338 H318 0.931 . S
C338 C337 1.332 . S
C338 C339 1.267 . S
C339 H307 0.929 . S
C339 C338 1.267 . S
C339 C340 1.251 . S
C340 H310 0.929 . S
C340 N336 1.418 . S
C340 C339 1.251 . S
C341 H308 0.930 . S
C341 C343 1.406 . S
C341 C346 1.261 . S
C342 H309 0.930 . S
C342 N344 1.325 . S
C342 C345 1.357 . S
C343 H311 0.928 . S
C343 C341 1.406 . S
C343 N344 1.261 . S
N344 Co295 2.214 . S
N344 C342 1.325 . S
N344 C343 1.261 . S
C345 H315 0.931 . S
C345 C342 1.357 . S
C345 C346 1.312 . S
C346 H317 0.930 . S
C346 C341 1.261 . S
C346 C345 1.312 . S
C347 O319 1.214 . S
C347 O327 1.234 . S
C348 H320 0.929 . S
C348 C351 1.391 . S
C348 C353 1.391 . S
C349 H321 0.929 . S
C349 C350 1.390 . S
C349 N352 1.391 . S
C350 H322 0.930 . S
C350 C349 1.390 . S
C350 C351 1.392 . S
C351 H323 0.929 . S
C351 C348 1.391 . S
C351 C350 1.392 . S
N352 Co296 2.257 . S
N352 C349 1.391 . S
N352 C353 1.388 . S
C353 H324 0.930 . S
C353 C348 1.391 . S
C353 N352 1.388 . S
Co354 O356 2.143 . S
Co354 O362 2.074 . S
Co354 O365 2.093 . S
Co354 O378 2.097 . S
Co354 N395 2.151 . S
Co354 N403 2.214 . S
Co355 O356 2.160 . S
Co355 O361 2.058 . S
Co355 O371 2.057 . S
Co355 O386 2.037 . S
Co355 N390 2.145 . S
Co355 N411 2.257 . S
O356 Co354 2.143 . S
O356 Co355 2.160 . S
C357 O358 1.278 . S
C357 O365 1.224 . S
O358 C357 1.278 . S
C359 O360 1.245 . S
C359 O371 1.232 . S
O360 C359 1.245 . S
O361 Co355 2.058 . S
O361 C387 1.269 . S
O362 Co354 2.074 . S
O362 C387 1.257 . S
H363 C388 0.930 . S
H364 C394 0.930 . S
O365 Co354 2.093 . S
O365 C357 1.224 . S
H366 C398 0.929 . S
H367 C400 0.930 . S
H368 C401 0.930 . S
H369 C399 0.929 . S
H370 C402 0.928 . S
O371 Co355 2.057 . S
O371 C359 1.232 . S
H372 C391 0.929 . S
H373 C392 0.929 . S
H374 C404 0.931 . S
H375 C396 0.929 . S
H376 C405 0.930 . S
H377 C397 0.931 . S
O378 Co354 2.097 . S
O378 C406 1.214 . S
H379 C407 0.929 . S
H380 C408 0.929 . S
H381 C409 0.930 . S
H382 C410 0.929 . S
H383 C412 0.930 . S
H384 C389 0.930 . S
H385 C393 0.930 . S
O386 Co355 2.037 . S
O386 C406 1.234 . S
C387 O361 1.269 . S
C387 O362 1.257 . S
C388 H363 0.930 . S
C388 C391 1.388 . S
C388 C393 1.418 . S
C389 H384 0.930 . S
C389 C392 1.404 . S
C389 C393 1.353 . S
N390 Co355 2.145 . S
N390 C391 1.397 . S
N390 C392 1.334 . S
C391 H372 0.929 . S
C391 C388 1.388 . S
C391 N390 1.397 . S
C392 H373 0.929 . S
C392 C389 1.404 . S
C392 N390 1.334 . S
C393 H385 0.930 . S
C393 C388 1.418 . S
C393 C389 1.353 . S
C394 H364 0.930 . S
C394 N395 1.330 . S
C394 C396 1.446 . S
N395 Co354 2.151 . S
N395 C394 1.330 . S
N395 C399 1.418 . S
C396 H375 0.929 . S
C396 C394 1.446 . S
C396 C397 1.332 . S
C397 H377 0.931 . S
C397 C396 1.332 . S
C397 C398 1.267 . S
C398 H366 0.929 . S
C398 C397 1.267 . S
C398 C399 1.251 . S
C399 H369 0.929 . S
C399 N395 1.418 . S
C399 C398 1.251 . S
C400 H367 0.930 . S
C400 C402 1.406 . S
C400 C405 1.261 . S
C401 H368 0.930 . S
C401 N403 1.325 . S
C401 C404 1.357 . S
C402 H370 0.928 . S
C402 C400 1.406 . S
C402 N403 1.261 . S
N403 Co354 2.214 . S
N403 C401 1.325 . S
N403 C402 1.261 . S
C404 H374 0.931 . S
C404 C401 1.357 . S
C404 C405 1.312 . S
C405 H376 0.930 . S
C405 C400 1.261 . S
C405 C404 1.312 . S
C406 O378 1.214 . S
C406 O386 1.234 . S
C407 H379 0.929 . S
C407 C410 1.391 . S
C407 C412 1.391 . S
C408 H380 0.929 . S
C408 C409 1.390 . S
C408 N411 1.391 . S
C409 H381 0.930 . S
C409 C408 1.390 . S
C409 C410 1.392 . S
C410 H382 0.929 . S
C410 C407 1.391 . S
C410 C409 1.392 . S
N411 Co355 2.257 . S
N411 C408 1.391 . S
N411 C412 1.388 . S
C412 H383 0.930 . S
C412 C407 1.391 . S
C412 N411 1.388 . S
Co413 O415 2.143 . S
Co413 O421 2.074 . S
Co413 O424 2.093 . S
Co413 O437 2.097 . S
Co413 N454 2.151 . S
Co413 N462 2.214 . S
Co414 O415 2.160 . S
Co414 O420 2.058 . S
Co414 O430 2.057 . S
Co414 O445 2.037 . S
Co414 N449 2.145 1_556 S
Co414 N470 2.257 . S
O415 Co413 2.143 . S
O415 Co414 2.160 . S
C416 O417 1.278 . S
C416 O424 1.224 . S
O417 C416 1.278 . S
C418 O419 1.245 . S
C418 O430 1.232 . S
O419 C418 1.245 . S
O420 Co414 2.058 . S
O420 C446 1.269 . S
O421 Co413 2.074 . S
O421 C446 1.257 . S
H422 C447 0.930 . S
H423 C453 0.930 . S
O424 Co413 2.093 . S
O424 C416 1.224 . S
H425 C457 0.929 . S
H426 C459 0.930 . S
H427 C460 0.930 . S
H428 C458 0.929 . S
H429 C461 0.928 . S
O430 Co414 2.057 . S
O430 C418 1.232 . S
H431 C450 0.929 . S
H432 C451 0.929 . S
H433 C463 0.931 . S
H434 C455 0.929 . S
H435 C464 0.930 . S
H436 C456 0.931 . S
O437 Co413 2.097 . S
O437 C465 1.214 . S
H438 C466 0.929 . S
H439 C467 0.929 . S
H440 C468 0.930 . S
H441 C469 0.929 . S
H442 C471 0.930 . S
H443 C448 0.930 . S
H444 C452 0.930 . S
O445 Co414 2.037 . S
O445 C465 1.234 . S
C446 O420 1.269 . S
C446 O421 1.257 . S
C447 H422 0.930 . S
C447 C450 1.388 . S
C447 C452 1.418 . S
C448 H443 0.930 . S
C448 C451 1.404 . S
C448 C452 1.353 . S
N449 Co414 2.145 1_554 S
N449 C450 1.397 . S
N449 C451 1.334 . S
C450 H431 0.929 . S
C450 C447 1.388 . S
C450 N449 1.397 . S
C451 H432 0.929 . S
C451 C448 1.404 . S
C451 N449 1.334 . S
C452 H444 0.930 . S
C452 C447 1.418 . S
C452 C448 1.353 . S
C453 H423 0.930 . S
C453 N454 1.330 . S
C453 C455 1.446 . S
N454 Co413 2.151 . S
N454 C453 1.330 . S
N454 C458 1.418 . S
C455 H434 0.929 . S
C455 C453 1.446 . S
C455 C456 1.332 . S
C456 H436 0.931 . S
C456 C455 1.332 . S
C456 C457 1.267 . S
C457 H425 0.929 . S
C457 C456 1.267 . S
C457 C458 1.251 . S
C458 H428 0.929 . S
C458 N454 1.418 . S
C458 C457 1.251 . S
C459 H426 0.930 . S
C459 C461 1.406 . S
C459 C464 1.261 . S
C460 H427 0.930 . S
C460 N462 1.325 . S
C460 C463 1.357 . S
C461 H429 0.928 . S
C461 C459 1.406 . S
C461 N462 1.261 . S
N462 Co413 2.214 . S
N462 C460 1.325 . S
N462 C461 1.261 . S
C463 H433 0.931 . S
C463 C460 1.357 . S
C463 C464 1.312 . S
C464 H435 0.930 . S
C464 C459 1.261 . S
C464 C463 1.312 . S
C465 O437 1.214 . S
C465 O445 1.234 . S
C466 H438 0.929 . S
C466 C469 1.391 . S
C466 C471 1.391 . S
C467 H439 0.929 . S
C467 C468 1.390 . S
C467 N470 1.391 . S
C468 H440 0.930 . S
C468 C467 1.390 . S
C468 C469 1.392 . S
C469 H441 0.929 . S
C469 C466 1.391 . S
C469 C468 1.392 . S
N470 Co414 2.257 . S
N470 C467 1.391 . S
N470 C471 1.388 . S
C471 H442 0.930 . S
C471 C466 1.391 . S
C471 N470 1.388 . S
Co472 O474 2.143 . S
Co472 O480 2.074 . S
Co472 O483 2.093 . S
Co472 O496 2.097 . S
Co472 N513 2.151 . S
Co472 N521 2.214 . S
Co473 O474 2.160 . S
Co473 O479 2.058 . S
Co473 O489 2.057 . S
Co473 O504 2.037 . S
Co473 N508 2.145 . S
Co473 N529 2.257 . S
O474 Co472 2.143 . S
O474 Co473 2.160 . S
C475 O476 1.278 . S
C475 O483 1.224 . S
O476 C475 1.278 . S
C477 O478 1.245 . S
C477 O489 1.232 . S
O478 C477 1.245 . S
O479 Co473 2.058 . S
O479 C505 1.269 . S
O480 Co472 2.074 . S
O480 C505 1.257 . S
H481 C506 0.930 . S
H482 C512 0.930 . S
O483 Co472 2.093 . S
O483 C475 1.224 . S
H484 C516 0.929 . S
H485 C518 0.930 . S
H486 C519 0.930 . S
H487 C517 0.929 . S
H488 C520 0.928 . S
O489 Co473 2.057 . S
O489 C477 1.232 . S
H490 C509 0.929 . S
H491 C510 0.929 . S
H492 C522 0.931 . S
H493 C514 0.929 . S
H494 C523 0.930 . S
H495 C515 0.931 . S
O496 Co472 2.097 . S
O496 C524 1.214 . S
H497 C525 0.929 . S
H498 C526 0.929 . S
H499 C527 0.930 . S
H500 C528 0.929 . S
H501 C530 0.930 . S
H502 C507 0.930 . S
H503 C511 0.930 . S
O504 Co473 2.037 . S
O504 C524 1.234 . S
C505 O479 1.269 . S
C505 O480 1.257 . S
C506 H481 0.930 . S
C506 C509 1.388 . S
C506 C511 1.418 . S
C507 H502 0.930 . S
C507 C510 1.404 . S
C507 C511 1.353 . S
N508 Co473 2.145 . S
N508 C509 1.397 . S
N508 C510 1.334 . S
C509 H490 0.929 . S
C509 C506 1.388 . S
C509 N508 1.397 . S
C510 H491 0.929 . S
C510 C507 1.404 . S
C510 N508 1.334 . S
C511 H503 0.930 . S
C511 C506 1.418 . S
C511 C507 1.353 . S
C512 H482 0.930 . S
C512 N513 1.330 . S
C512 C514 1.446 . S
N513 Co472 2.151 . S
N513 C512 1.330 . S
N513 C517 1.418 . S
C514 H493 0.929 . S
C514 C512 1.446 . S
C514 C515 1.332 . S
C515 H495 0.931 . S
C515 C514 1.332 . S
C515 C516 1.267 . S
C516 H484 0.929 . S
C516 C515 1.267 . S
C516 C517 1.251 . S
C517 H487 0.929 . S
C517 N513 1.418 . S
C517 C516 1.251 . S
C518 H485 0.930 . S
C518 C520 1.406 . S
C518 C523 1.261 . S
C519 H486 0.930 . S
C519 N521 1.325 . S
C519 C522 1.357 . S
C520 H488 0.928 . S
C520 C518 1.406 . S
C520 N521 1.261 . S
N521 Co472 2.214 . S
N521 C519 1.325 . S
N521 C520 1.261 . S
C522 H492 0.931 . S
C522 C519 1.357 . S
C522 C523 1.312 . S
C523 H494 0.930 . S
C523 C518 1.261 . S
C523 C522 1.312 . S
C524 O496 1.214 . S
C524 O504 1.234 . S
C525 H497 0.929 . S
C525 C528 1.391 . S
C525 C530 1.391 . S
C526 H498 0.929 . S
C526 C527 1.390 . S
C526 N529 1.391 . S
C527 H499 0.930 . S
C527 C526 1.390 . S
C527 C528 1.392 . S
C528 H500 0.929 . S
C528 C525 1.391 . S
C528 C527 1.392 . S
N529 Co473 2.257 . S
N529 C526 1.391 . S
N529 C530 1.388 . S
C530 H501 0.930 . S
C530 C525 1.391 . S
C530 N529 1.388 . S
Co531 O533 2.143 . S
Co531 O539 2.074 . S
Co531 O542 2.093 . S
Co531 O555 2.097 . S
Co531 N572 2.151 . S
Co531 N580 2.214 . S
Co532 O533 2.160 . S
Co532 O538 2.058 . S
Co532 O548 2.057 . S
Co532 O563 2.037 . S
Co532 N567 2.145 1_556 S
Co532 N588 2.257 . S
O533 Co531 2.143 . S
O533 Co532 2.160 . S
C534 O535 1.278 . S
C534 O542 1.224 . S
O535 C534 1.278 . S
C536 O537 1.245 . S
C536 O548 1.232 . S
O537 C536 1.245 . S
O538 Co532 2.058 . S
O538 C564 1.269 . S
O539 Co531 2.074 . S
O539 C564 1.257 . S
H540 C565 0.930 . S
H541 C571 0.930 . S
O542 Co531 2.093 . S
O542 C534 1.224 . S
H543 C575 0.929 . S
H544 C577 0.930 . S
H545 C578 0.930 . S
H546 C576 0.929 . S
H547 C579 0.928 . S
O548 Co532 2.057 . S
O548 C536 1.232 . S
H549 C568 0.929 . S
H550 C569 0.929 . S
H551 C581 0.931 . S
H552 C573 0.929 . S
H553 C582 0.930 . S
H554 C574 0.931 . S
O555 Co531 2.097 . S
O555 C583 1.214 . S
H556 C584 0.929 . S
H557 C585 0.929 . S
H558 C586 0.930 . S
H559 C587 0.929 . S
H560 C589 0.930 . S
H561 C566 0.930 . S
H562 C570 0.930 . S
O563 Co532 2.037 . S
O563 C583 1.234 . S
C564 O538 1.269 . S
C564 O539 1.257 . S
C565 H540 0.930 . S
C565 C568 1.388 . S
C565 C570 1.418 . S
C566 H561 0.930 . S
C566 C569 1.404 . S
C566 C570 1.353 . S
N567 Co532 2.145 1_554 S
N567 C568 1.397 . S
N567 C569 1.334 . S
C568 H549 0.929 . S
C568 C565 1.388 . S
C568 N567 1.397 . S
C569 H550 0.929 . S
C569 C566 1.404 . S
C569 N567 1.334 . S
C570 H562 0.930 . S
C570 C565 1.418 . S
C570 C566 1.353 . S
C571 H541 0.930 . S
C571 N572 1.330 . S
C571 C573 1.446 . S
N572 Co531 2.151 . S
N572 C571 1.330 . S
N572 C576 1.418 . S
C573 H552 0.929 . S
C573 C571 1.446 . S
C573 C574 1.332 . S
C574 H554 0.931 . S
C574 C573 1.332 . S
C574 C575 1.267 . S
C575 H543 0.929 . S
C575 C574 1.267 . S
C575 C576 1.251 . S
C576 H546 0.929 . S
C576 N572 1.418 . S
C576 C575 1.251 . S
C577 H544 0.930 . S
C577 C579 1.406 . S
C577 C582 1.261 . S
C578 H545 0.930 . S
C578 N580 1.325 . S
C578 C581 1.357 . S
C579 H547 0.928 . S
C579 C577 1.406 . S
C579 N580 1.261 . S
N580 Co531 2.214 . S
N580 C578 1.325 . S
N580 C579 1.261 . S
C581 H551 0.931 . S
C581 C578 1.357 . S
C581 C582 1.312 . S
C582 H553 0.930 . S
C582 C577 1.261 . S
C582 C581 1.312 . S
C583 O555 1.214 . S
C583 O563 1.234 . S
C584 H556 0.929 . S
C584 C587 1.391 . S
C584 C589 1.391 . S
C585 H557 0.929 . S
C585 C586 1.390 . S
C585 N588 1.391 . S
C586 H558 0.930 . S
C586 C585 1.390 . S
C586 C587 1.392 . S
C587 H559 0.929 . S
C587 C584 1.391 . S
C587 C586 1.392 . S
N588 Co532 2.257 . S
N588 C585 1.391 . S
N588 C589 1.388 . S
C589 H560 0.930 . S
C589 C584 1.391 . S
C589 N588 1.388 . S
Co590 O592 2.143 . S
Co590 O598 2.074 . S
Co590 O601 2.093 . S
Co590 O614 2.097 . S
Co590 N631 2.151 . S
Co590 N639 2.214 . S
Co591 O592 2.160 . S
Co591 O597 2.058 . S
Co591 O607 2.057 . S
Co591 O622 2.037 . S
Co591 N626 2.145 . S
Co591 N647 2.257 . S
O592 Co590 2.143 . S
O592 Co591 2.160 . S
C593 O594 1.278 . S
C593 O601 1.224 . S
O594 C593 1.278 . S
C595 O596 1.245 . S
C595 O607 1.232 . S
O596 C595 1.245 . S
O597 Co591 2.058 . S
O597 C623 1.269 . S
O598 Co590 2.074 . S
O598 C623 1.257 . S
H599 C624 0.930 . S
H600 C630 0.930 . S
O601 Co590 2.093 . S
O601 C593 1.224 . S
H602 C634 0.929 . S
H603 C636 0.930 . S
H604 C637 0.930 . S
H605 C635 0.929 . S
H606 C638 0.928 . S
O607 Co591 2.057 . S
O607 C595 1.232 . S
H608 C627 0.929 . S
H609 C628 0.929 . S
H610 C640 0.931 . S
H611 C632 0.929 . S
H612 C641 0.930 . S
H613 C633 0.931 . S
O614 Co590 2.097 . S
O614 C642 1.214 . S
H615 C643 0.929 . S
H616 C644 0.929 . S
H617 C645 0.930 . S
H618 C646 0.929 . S
H619 C648 0.930 . S
H620 C625 0.930 . S
H621 C629 0.930 . S
O622 Co591 2.037 . S
O622 C642 1.234 . S
C623 O597 1.269 . S
C623 O598 1.257 . S
C624 H599 0.930 . S
C624 C627 1.388 . S
C624 C629 1.418 . S
C625 H620 0.930 . S
C625 C628 1.404 . S
C625 C629 1.353 . S
N626 Co591 2.145 . S
N626 C627 1.397 . S
N626 C628 1.334 . S
C627 H608 0.929 . S
C627 C624 1.388 . S
C627 N626 1.397 . S
C628 H609 0.929 . S
C628 C625 1.404 . S
C628 N626 1.334 . S
C629 H621 0.930 . S
C629 C624 1.418 . S
C629 C625 1.353 . S
C630 H600 0.930 . S
C630 N631 1.330 . S
C630 C632 1.446 . S
N631 Co590 2.151 . S
N631 C630 1.330 . S
N631 C635 1.418 . S
C632 H611 0.929 . S
C632 C630 1.446 . S
C632 C633 1.332 . S
C633 H613 0.931 . S
C633 C632 1.332 . S
C633 C634 1.267 . S
C634 H602 0.929 . S
C634 C633 1.267 . S
C634 C635 1.251 . S
C635 H605 0.929 . S
C635 N631 1.418 . S
C635 C634 1.251 . S
C636 H603 0.930 . S
C636 C638 1.406 . S
C636 C641 1.261 . S
C637 H604 0.930 . S
C637 N639 1.325 . S
C637 C640 1.357 . S
C638 H606 0.928 . S
C638 C636 1.406 . S
C638 N639 1.261 . S
N639 Co590 2.214 . S
N639 C637 1.325 . S
N639 C638 1.261 . S
C640 H610 0.931 . S
C640 C637 1.357 . S
C640 C641 1.312 . S
C641 H612 0.930 . S
C641 C636 1.261 . S
C641 C640 1.312 . S
C642 O614 1.214 . S
C642 O622 1.234 . S
C643 H615 0.929 . S
C643 C646 1.391 . S
C643 C648 1.391 . S
C644 H616 0.929 . S
C644 C645 1.390 . S
C644 N647 1.391 . S
C645 H617 0.930 . S
C645 C644 1.390 . S
C645 C646 1.392 . S
C646 H618 0.929 . S
C646 C643 1.391 . S
C646 C645 1.392 . S
N647 Co591 2.257 . S
N647 C644 1.391 . S
N647 C648 1.388 . S
C648 H619 0.930 . S
C648 C643 1.391 . S
C648 N647 1.388 . S
Co649 O651 2.143 . S
Co649 O657 2.074 . S
Co649 O660 2.093 . S
Co649 O673 2.097 . S
Co649 N690 2.151 . S
Co649 N698 2.214 1_556 S
Co650 O651 2.160 . S
Co650 O656 2.058 . S
Co650 O666 2.057 . S
Co650 O681 2.037 . S
Co650 N685 2.145 . S
Co650 N706 2.257 . S
O651 Co649 2.143 . S
O651 Co650 2.160 . S
C652 O653 1.278 . S
C652 O660 1.224 . S
O653 C652 1.278 . S
C654 O655 1.245 . S
C654 O666 1.232 . S
O655 C654 1.245 . S
O656 Co650 2.058 . S
O656 C682 1.269 . S
O657 Co649 2.074 . S
O657 C682 1.257 . S
H658 C683 0.930 . S
H659 C689 0.930 . S
O660 Co649 2.093 . S
O660 C652 1.224 . S
H661 C693 0.934 . S
H662 C695 0.930 . S
H663 C696 0.930 . S
H664 C694 0.929 1_554 S
H665 C697 0.928 . S
O666 Co650 2.057 . S
O666 C654 1.232 . S
H667 C686 0.929 . S
H668 C687 0.929 . S
H669 C699 0.931 . S
H670 C691 0.929 . S
H671 C700 0.930 . S
H672 C692 0.931 . S
O673 Co649 2.097 . S
O673 C701 1.214 . S
H674 C702 0.929 . S
H675 C703 0.929 . S
H676 C704 0.930 . S
H677 C705 0.929 . S
H678 C707 0.930 . S
H679 C684 0.930 . S
H680 C688 0.930 . S
O681 Co650 2.037 . S
O681 C701 1.234 . S
C682 O656 1.269 . S
C682 O657 1.257 . S
C683 H658 0.930 . S
C683 C686 1.388 . S
C683 C688 1.418 . S
C684 H679 0.930 . S
C684 C687 1.404 . S
C684 C688 1.353 . S
N685 Co650 2.145 . S
N685 C686 1.397 . S
N685 C687 1.334 . S
C686 H667 0.929 . S
C686 C683 1.388 . S
C686 N685 1.397 . S
C687 H668 0.929 . S
C687 C684 1.404 . S
C687 N685 1.334 . S
C688 H680 0.930 . S
C688 C683 1.418 . S
C688 C684 1.353 . S
C689 H659 0.930 . S
C689 N690 1.330 . S
C689 C691 1.446 . S
N690 Co649 2.151 . S
N690 C689 1.330 . S
N690 C694 1.418 . S
C691 H670 0.929 . S
C691 C689 1.446 . S
C691 C692 1.332 . S
C692 H672 0.931 . S
C692 C691 1.332 . S
C692 C693 1.264 1_556 S
C693 H661 0.934 . S
C693 C692 1.264 1_554 S
C693 C694 1.250 1_554 S
C694 H664 0.929 1_556 S
C694 N690 1.418 . S
C694 C693 1.250 1_556 S
C695 H662 0.930 . S
C695 C697 1.406 . S
C695 C700 1.261 . S
C696 H663 0.930 . S
C696 N698 1.325 . S
C696 C699 1.357 . S
C697 H665 0.928 . S
C697 C695 1.406 . S
C697 N698 1.261 . S
N698 Co649 2.214 1_554 S
N698 C696 1.325 . S
N698 C697 1.261 . S
C699 H669 0.931 . S
C699 C696 1.357 . S
C699 C700 1.312 . S
C700 H671 0.930 . S
C700 C695 1.261 . S
C700 C699 1.312 . S
C701 O673 1.214 . S
C701 O681 1.234 . S
C702 H674 0.929 . S
C702 C705 1.391 . S
C702 C707 1.391 . S
C703 H675 0.929 . S
C703 C704 1.390 . S
C703 N706 1.391 . S
C704 H676 0.930 . S
C704 C703 1.390 . S
C704 C705 1.392 . S
C705 H677 0.929 . S
C705 C702 1.391 . S
C705 C704 1.392 . S
N706 Co650 2.257 . S
N706 C703 1.391 . S
N706 C707 1.388 . S
C707 H678 0.930 . S
C707 C702 1.391 . S
C707 N706 1.388 . S
H708 C720 0.930 . S
H709 C722 0.930 . S
H710 C723 0.930 . S
H711 C727 0.959 . S
H712 C727 0.959 . S
H713 C727 0.961 . S
H714 C728 0.960 . S
H715 C728 0.961 . S
H716 C728 0.959 . S
H717 C731 0.929 . S
H718 C732 0.931 . S
H719 C734 0.930 . S
C720 H708 0.930 . S
C720 C721 1.399 . S
C720 C725 1.399 . S
C721 C720 1.399 . S
C721 C722 1.376 . S
C722 H709 0.930 . S
C722 C721 1.376 . S
C722 C723 1.388 . S
C723 H710 0.930 . S
C723 C722 1.388 . S
C723 C724 1.390 . S
C724 C723 1.390 . S
C724 C725 1.394 . S
C724 C730 1.465 . S
C725 C720 1.399 . S
C725 C724 1.394 . S
C725 C726 1.516 . S
C726 C725 1.516 . S
C726 C727 1.502 . S
C726 C728 1.561 . S
C726 C729 1.526 . S
C727 H711 0.959 . S
C727 H712 0.959 . S
C727 H713 0.961 . S
C727 C726 1.502 . S
C728 H714 0.960 . S
C728 H715 0.961 . S
C728 H716 0.959 . S
C728 C726 1.561 . S
C729 C726 1.526 . S
C729 C730 1.396 . S
C729 C734 1.390 . S
C730 C724 1.465 . S
C730 C729 1.396 . S
C730 C731 1.399 . S
C731 H717 0.929 . S
C731 C730 1.399 . S
C731 C732 1.385 . S
C732 H718 0.931 . S
C732 C731 1.385 . S
C732 C733 1.389 . S
C733 C732 1.389 . S
C733 C734 1.387 . S
C734 H719 0.930 . S
C734 C729 1.390 . S
C734 C733 1.387 . S
H735 C747 0.930 . S
H736 C749 0.930 . S
H737 C750 0.930 . S
H738 C754 0.959 . S
H739 C754 0.959 . S
H740 C754 0.961 . S
H741 C755 0.960 . S
H742 C755 0.961 . S
H743 C755 0.959 . S
H744 C758 0.929 . S
H745 C759 0.931 . S
H746 C761 0.930 . S
C747 H735 0.930 . S
C747 C748 1.399 . S
C747 C752 1.399 . S
C748 C747 1.399 . S
C748 C749 1.376 . S
C749 H736 0.930 . S
C749 C748 1.376 . S
C749 C750 1.388 . S
C750 H737 0.930 . S
C750 C749 1.388 . S
C750 C751 1.390 . S
C751 C750 1.390 . S
C751 C752 1.394 . S
C751 C757 1.465 . S
C752 C747 1.399 . S
C752 C751 1.394 . S
C752 C753 1.516 . S
C753 C752 1.516 . S
C753 C754 1.502 . S
C753 C755 1.561 . S
C753 C756 1.526 . S
C754 H738 0.959 . S
C754 H739 0.959 . S
C754 H740 0.961 . S
C754 C753 1.502 . S
C755 H741 0.960 . S
C755 H742 0.961 . S
C755 H743 0.959 . S
C755 C753 1.561 . S
C756 C753 1.526 . S
C756 C757 1.396 . S
C756 C761 1.390 . S
C757 C751 1.465 . S
C757 C756 1.396 . S
C757 C758 1.399 . S
C758 H744 0.929 . S
C758 C757 1.399 . S
C758 C759 1.385 . S
C759 H745 0.931 . S
C759 C758 1.385 . S
C759 C760 1.389 . S
C760 C759 1.389 . S
C760 C761 1.387 . S
C761 H746 0.930 . S
C761 C756 1.390 . S
C761 C760 1.387 . S
H762 C774 0.930 . S
H763 C776 0.930 . S
H764 C777 0.930 . S
H765 C781 0.959 . S
H766 C781 0.959 . S
H767 C781 0.961 . S
H768 C782 0.960 . S
H769 C782 0.961 . S
H770 C782 0.959 . S
H771 C785 0.929 . S
H772 C786 0.931 . S
H773 C788 0.930 . S
C774 H762 0.930 . S
C774 C775 1.399 . S
C774 C779 1.399 . S
C775 C774 1.399 . S
C775 C776 1.376 . S
C776 H763 0.930 . S
C776 C775 1.376 . S
C776 C777 1.388 . S
C777 H764 0.930 . S
C777 C776 1.388 . S
C777 C778 1.390 . S
C778 C777 1.390 . S
C778 C779 1.394 . S
C778 C784 1.465 . S
C779 C774 1.399 . S
C779 C778 1.394 . S
C779 C780 1.516 . S
C780 C779 1.516 . S
C780 C781 1.502 . S
C780 C782 1.561 . S
C780 C783 1.526 . S
C781 H765 0.959 . S
C781 H766 0.959 . S
C781 H767 0.961 . S
C781 C780 1.502 . S
C782 H768 0.960 . S
C782 H769 0.961 . S
C782 H770 0.959 . S
C782 C780 1.561 . S
C783 C780 1.526 . S
C783 C784 1.396 . S
C783 C788 1.390 . S
C784 C778 1.465 . S
C784 C783 1.396 . S
C784 C785 1.399 . S
C785 H771 0.929 . S
C785 C784 1.399 . S
C785 C786 1.385 . S
C786 H772 0.931 . S
C786 C785 1.385 . S
C786 C787 1.389 . S
C787 C786 1.389 . S
C787 C788 1.387 . S
C788 H773 0.930 . S
C788 C783 1.390 . S
C788 C787 1.387 . S
H789 C801 0.930 . S
H790 C803 0.930 . S
H791 C804 0.930 . S
H792 C808 0.959 . S
H793 C808 0.959 . S
H794 C808 0.961 . S
H795 C809 0.960 . S
H796 C809 0.961 . S
H797 C809 0.959 . S
H798 C812 0.929 . S
H799 C813 0.931 . S
H800 C815 0.930 . S
C801 H789 0.930 . S
C801 C802 1.399 . S
C801 C806 1.399 . S
C802 C801 1.399 . S
C802 C803 1.376 . S
C803 H790 0.930 . S
C803 C802 1.376 . S
C803 C804 1.388 . S
C804 H791 0.930 . S
C804 C803 1.388 . S
C804 C805 1.390 . S
C805 C804 1.390 . S
C805 C806 1.394 . S
C805 C811 1.465 . S
C806 C801 1.399 . S
C806 C805 1.394 . S
C806 C807 1.516 . S
C807 C806 1.516 . S
C807 C808 1.502 . S
C807 C809 1.561 . S
C807 C810 1.526 . S
C808 H792 0.959 . S
C808 H793 0.959 . S
C808 H794 0.961 . S
C808 C807 1.502 . S
C809 H795 0.960 . S
C809 H796 0.961 . S
C809 H797 0.959 . S
C809 C807 1.561 . S
C810 C807 1.526 . S
C810 C811 1.396 . S
C810 C815 1.390 . S
C811 C805 1.465 . S
C811 C810 1.396 . S
C811 C812 1.399 . S
C812 H798 0.929 . S
C812 C811 1.399 . S
C812 C813 1.385 . S
C813 H799 0.931 . S
C813 C812 1.385 . S
C813 C814 1.389 . S
C814 C813 1.389 . S
C814 C815 1.387 . S
C815 H800 0.930 . S
C815 C810 1.390 . S
C815 C814 1.387 . S
H816 C828 0.930 . S
H817 C830 0.930 . S
H818 C831 0.930 . S
H819 C835 0.959 . S
H820 C835 0.959 . S
H821 C835 0.961 . S
H822 C836 0.960 . S
H823 C836 0.961 . S
H824 C836 0.959 . S
H825 C839 0.929 . S
H826 C840 0.931 . S
H827 C842 0.930 . S
C828 H816 0.930 . S
C828 C829 1.399 . S
C828 C833 1.399 . S
C829 C828 1.399 . S
C829 C830 1.376 . S
C830 H817 0.930 . S
C830 C829 1.376 . S
C830 C831 1.388 . S
C831 H818 0.930 . S
C831 C830 1.388 . S
C831 C832 1.390 . S
C832 C831 1.390 . S
C832 C833 1.394 . S
C832 C838 1.465 . S
C833 C828 1.399 . S
C833 C832 1.394 . S
C833 C834 1.516 . S
C834 C833 1.516 . S
C834 C835 1.502 . S
C834 C836 1.561 . S
C834 C837 1.526 . S
C835 H819 0.959 . S
C835 H820 0.959 . S
C835 H821 0.961 . S
C835 C834 1.502 . S
C836 H822 0.960 . S
C836 H823 0.961 . S
C836 H824 0.959 . S
C836 C834 1.561 . S
C837 C834 1.526 . S
C837 C838 1.396 . S
C837 C842 1.390 . S
C838 C832 1.465 . S
C838 C837 1.396 . S
C838 C839 1.399 . S
C839 H825 0.929 . S
C839 C838 1.399 . S
C839 C840 1.385 . S
C840 H826 0.931 . S
C840 C839 1.385 . S
C840 C841 1.389 . S
C841 C840 1.389 . S
C841 C842 1.387 . S
C842 H827 0.930 . S
C842 C837 1.390 . S
C842 C841 1.387 . S
H843 C855 0.930 . S
H844 C857 0.930 . S
H845 C858 0.930 . S
H846 C862 0.959 . S
H847 C862 0.959 . S
H848 C862 0.961 . S
H849 C863 0.960 . S
H850 C863 0.961 . S
H851 C863 0.959 . S
H852 C866 0.929 . S
H853 C867 0.931 . S
H854 C869 0.930 . S
C855 H843 0.930 . S
C855 C856 1.399 . S
C855 C860 1.399 . S
C856 C855 1.399 . S
C856 C857 1.376 . S
C857 H844 0.930 . S
C857 C856 1.376 . S
C857 C858 1.388 . S
C858 H845 0.930 . S
C858 C857 1.388 . S
C858 C859 1.390 . S
C859 C858 1.390 . S
C859 C860 1.394 . S
C859 C865 1.465 . S
C860 C855 1.399 . S
C860 C859 1.394 . S
C860 C861 1.516 . S
C861 C860 1.516 . S
C861 C862 1.502 . S
C861 C863 1.561 . S
C861 C864 1.526 . S
C862 H846 0.959 . S
C862 H847 0.959 . S
C862 H848 0.961 . S
C862 C861 1.502 . S
C863 H849 0.960 . S
C863 H850 0.961 . S
C863 H851 0.959 . S
C863 C861 1.561 . S
C864 C861 1.526 . S
C864 C865 1.396 . S
C864 C869 1.390 . S
C865 C859 1.465 . S
C865 C864 1.396 . S
C865 C866 1.399 . S
C866 H852 0.929 . S
C866 C865 1.399 . S
C866 C867 1.385 . S
C867 H853 0.931 . S
C867 C866 1.385 . S
C867 C868 1.389 . S
C868 C867 1.389 . S
C868 C869 1.387 . S
C869 H854 0.930 . S
C869 C864 1.390 . S
C869 C868 1.387 . S
H870 C882 0.930 . S
H871 C884 0.930 . S
H872 C885 0.930 . S
H873 C889 0.959 . S
H874 C889 0.959 . S
H875 C889 0.961 . S
H876 C890 0.960 . S
H877 C890 0.961 . S
H878 C890 0.959 . S
H879 C893 0.929 1_545 S
H880 C894 0.931 . S
H881 C896 0.930 . S
C882 H870 0.930 . S
C882 C883 1.399 . S
C882 C887 1.399 . S
C883 C882 1.399 . S
C883 C884 1.376 1_554 S
C884 H871 0.930 . S
C884 C883 1.376 1_556 S
C884 C885 1.388 . S
C885 H872 0.930 . S
C885 C884 1.388 . S
C885 C886 1.390 . S
C886 C885 1.390 . S
C886 C887 1.394 1_556 S
C886 C892 1.465 . S
C887 C882 1.399 . S
C887 C886 1.394 1_554 S
C887 C888 1.507 1_545 S
C888 C887 1.507 1_565 S
C888 C889 1.525 . S
C888 C890 1.542 1_565 S
C888 C891 1.529 . S
C889 H873 0.959 . S
C889 H874 0.959 . S
C889 H875 0.961 . S
C889 C888 1.525 . S
C890 H876 0.960 . S
C890 H877 0.961 . S
C890 H878 0.959 . S
C890 C888 1.542 1_545 S
C891 C888 1.529 . S
C891 C892 1.396 1_564 S
C891 C896 1.390 . S
C892 C886 1.465 . S
C892 C891 1.396 1_546 S
C892 C893 1.399 1_545 S
C893 H879 0.929 1_565 S
C893 C892 1.399 1_565 S
C893 C894 1.385 . S
C894 H880 0.931 . S
C894 C893 1.385 . S
C894 C895 1.389 . S
C895 C894 1.389 . S
C895 C896 1.387 1_556 S
C896 H881 0.930 . S
C896 C891 1.390 . S
C896 C895 1.387 1_554 S
H897 C909 0.930 . S
H898 C911 0.930 . S
H899 C912 0.930 . S
H900 C916 0.959 . S
H901 C916 0.959 . S
H902 C916 0.961 . S
H903 C917 0.960 . S
H904 C917 0.961 . S
H905 C917 0.959 . S
H906 C920 0.929 . S
H907 C921 0.931 . S
H908 C923 0.930 . S
C909 H897 0.930 . S
C909 C910 1.399 . S
C909 C914 1.399 . S
C910 C909 1.399 . S
C910 C911 1.376 . S
C911 H898 0.930 . S
C911 C910 1.376 . S
C911 C912 1.388 . S
C912 H899 0.930 . S
C912 C911 1.388 . S
C912 C913 1.390 . S
C913 C912 1.390 . S
C913 C914 1.394 . S
C913 C919 1.465 . S
C914 C909 1.399 . S
C914 C913 1.394 . S
C914 C915 1.516 . S
C915 C914 1.516 . S
C915 C916 1.502 . S
C915 C917 1.561 . S
C915 C918 1.526 . S
C916 H900 0.959 . S
C916 H901 0.959 . S
C916 H902 0.961 . S
C916 C915 1.502 . S
C917 H903 0.960 . S
C917 H904 0.961 . S
C917 H905 0.959 . S
C917 C915 1.561 . S
C918 C915 1.526 . S
C918 C919 1.396 . S
C918 C923 1.390 . S
C919 C913 1.465 . S
C919 C918 1.396 . S
C919 C920 1.399 . S
C920 H906 0.929 . S
C920 C919 1.399 . S
C920 C921 1.385 . S
C921 H907 0.931 . S
C921 C920 1.385 . S
C921 C922 1.389 . S
C922 C921 1.389 . S
C922 C923 1.387 . S
C923 H908 0.930 . S
C923 C918 1.390 . S
C923 C922 1.387 . S
H924 C936 0.930 . S
H925 C938 0.930 . S
H926 C939 0.930 . S
H927 C943 0.959 . S
H928 C943 0.959 . S
H929 C943 0.961 1_455 S
H930 C944 0.960 1_455 S
H931 C944 0.961 . S
H932 C944 0.961 1_554 S
H933 C947 0.929 . S
H934 C948 0.931 . S
H935 C950 0.931 1_556 S
C936 H924 0.930 . S
C936 C937 1.399 . S
C936 C941 1.399 . S
C937 C936 1.399 . S
C937 C938 1.376 1_556 S
C938 H925 0.930 . S
C938 C937 1.376 1_554 S
C938 C939 1.388 . S
C939 H926 0.930 . S
C939 C938 1.388 . S
C939 C940 1.390 . S
C940 C939 1.390 . S
C940 C941 1.394 1_554 S
C940 C946 1.465 1_455 S
C941 C936 1.399 . S
C941 C940 1.394 1_556 S
C941 C942 1.516 1_455 S
C942 C941 1.516 1_655 S
C942 C943 1.502 . S
C942 C944 1.561 . S
C942 C945 1.526 . S
C943 H927 0.959 . S
C943 H928 0.959 . S
C943 H929 0.961 1_655 S
C943 C942 1.502 . S
C944 H930 0.960 1_655 S
C944 H931 0.961 . S
C944 H932 0.961 1_556 S
C944 C942 1.561 . S
C945 C942 1.526 . S
C945 C946 1.396 1_556 S
C945 C950 1.390 1_556 S
C946 C940 1.465 1_655 S
C946 C945 1.396 1_554 S
C946 C947 1.399 . S
C947 H933 0.929 . S
C947 C946 1.399 . S
C947 C948 1.385 . S
C948 H934 0.931 . S
C948 C947 1.385 . S
C948 C949 1.389 . S
C949 C948 1.389 . S
C949 C950 1.385 . S
C950 H935 0.931 1_554 S
C950 C945 1.390 1_554 S
C950 C949 1.385 . S
H951 C963 0.930 . S
H952 C965 0.930 . S
H953 C966 0.930 1_565 S
H954 C970 0.959 1_565 S
H955 C970 0.959 . S
H956 C970 0.961 . S
H957 C971 0.960 . S
H958 C971 0.961 . S
H959 C971 0.959 . S
H960 C974 0.929 . S
H961 C975 0.931 . S
H962 C977 0.930 . S
C963 H951 0.930 . S
C963 C964 1.399 . S
C963 C968 1.399 . S
C964 C963 1.399 . S
C964 C965 1.376 . S
C965 H952 0.930 . S
C965 C964 1.376 . S
C965 C966 1.388 . S
C966 H953 0.930 1_545 S
C966 C965 1.388 . S
C966 C967 1.395 1_545 S
C967 C966 1.395 1_565 S
C967 C968 1.377 1_565 S
C967 C973 1.476 . S
C968 C963 1.399 . S
C968 C967 1.377 1_545 S
C968 C969 1.516 . S
C969 C968 1.516 . S
C969 C970 1.502 . S
C969 C971 1.561 . S
C969 C972 1.526 1_545 S
C970 H954 0.959 1_545 S
C970 H955 0.959 . S
C970 H956 0.961 . S
C970 C969 1.502 . S
C971 H957 0.960 . S
C971 H958 0.961 . S
C971 H959 0.959 . S
C971 C969 1.561 . S
C972 C969 1.526 1_565 S
C972 C973 1.396 . S
C972 C977 1.390 . S
C973 C967 1.476 . S
C973 C972 1.396 . S
C973 C974 1.399 . S
C974 H960 0.929 . S
C974 C973 1.399 . S
C974 C975 1.385 . S
C975 H961 0.931 . S
C975 C974 1.385 . S
C975 C976 1.389 . S
C976 C975 1.389 . S
C976 C977 1.387 . S
C977 H962 0.930 . S
C977 C972 1.390 . S
C977 C976 1.387 . S
H978 C990 0.930 . S
H979 C992 0.930 . S
H980 C993 0.930 . S
H981 C997 0.959 . S
H982 C997 0.959 . S
H983 C997 0.961 . S
H984 C998 0.960 . S
H985 C998 0.961 . S
H986 C998 0.959 . S
H987 C1001 0.929 . S
H988 C1002 0.931 . S
H989 C1004 0.930 . S
C990 H978 0.930 . S
C990 C991 1.399 1_554 S
C990 C995 1.399 . S
C991 C990 1.399 1_556 S
C991 C992 1.376 . S
C992 H979 0.930 . S
C992 C991 1.376 . S
C992 C993 1.388 . S
C993 H980 0.930 . S
C993 C992 1.388 . S
C993 C994 1.390 . S
C994 C993 1.390 . S
C994 C995 1.394 1_556 S
C994 C1000 1.465 . S
C995 C990 1.399 . S
C995 C994 1.394 1_554 S
C995 C996 1.516 . S
C996 C995 1.516 . S
C996 C997 1.502 . S
C996 C998 1.561 . S
C996 C999 1.526 . S
C997 H981 0.959 . S
C997 H982 0.959 . S
C997 H983 0.961 . S
C997 C996 1.502 . S
C998 H984 0.960 . S
C998 H985 0.961 . S
C998 H986 0.959 . S
C998 C996 1.561 . S
C999 C996 1.526 . S
C999 C1000 1.396 1_554 S
C999 C1004 1.390 . S
C1000 C994 1.465 . S
C1000 C999 1.396 1_556 S
C1000 C1001 1.399 . S
C1001 H987 0.929 . S
C1001 C1000 1.399 . S
C1001 C1002 1.385 . S
C1002 H988 0.931 . S
C1002 C1001 1.385 . S
C1002 C1003 1.389 1_556 S
C1003 C1002 1.389 1_554 S
C1003 C1004 1.387 . S
C1004 H989 0.930 . S
C1004 C999 1.390 . S
C1004 C1003 1.387 . S
H1005 C1017 0.930 . S
H1006 C1019 0.930 . S
H1007 C1020 0.930 . S
H1008 C1024 0.959 . S
H1009 C1024 0.939 1_455 S
H1010 C1024 0.961 . S
H1011 C1025 0.960 . S
H1012 C1025 0.961 1_455 S
H1013 C1025 0.959 . S
H1014 C1028 0.929 . S
H1015 C1029 0.931 . S
H1016 C1031 0.930 . S
C1017 H1005 0.930 . S
C1017 C1018 1.399 . S
C1017 C1022 1.399 . S
C1018 C1017 1.399 . S
C1018 C1019 1.376 . S
C1019 H1006 0.930 . S
C1019 C1018 1.376 . S
C1019 C1020 1.388 . S
C1020 H1007 0.930 . S
C1020 C1019 1.388 . S
C1020 C1021 1.390 . S
C1021 C1020 1.390 . S
C1021 C1022 1.394 . S
C1021 C1027 1.465 1_655 S
C1022 C1017 1.399 . S
C1022 C1021 1.394 . S
C1022 C1023 1.516 . S
C1023 C1022 1.516 . S
C1023 C1024 1.502 . S
C1023 C1025 1.561 . S
C1023 C1026 1.526 1_655 S
C1024 H1008 0.959 . S
C1024 H1009 0.939 1_655 S
C1024 H1010 0.961 . S
C1024 C1023 1.502 . S
C1025 H1011 0.960 . S
C1025 H1012 0.961 1_655 S
C1025 H1013 0.959 . S
C1025 C1023 1.561 . S
C1026 C1023 1.526 1_455 S
C1026 C1027 1.396 . S
C1026 C1031 1.390 . S
C1027 C1021 1.465 1_455 S
C1027 C1026 1.396 . S
C1027 C1028 1.399 . S
C1028 H1014 0.929 . S
C1028 C1027 1.399 . S
C1028 C1029 1.385 . S
C1029 H1015 0.931 . S
C1029 C1028 1.385 . S
C1029 C1030 1.389 . S
C1030 C1029 1.389 . S
C1030 C1031 1.387 . S
C1031 H1016 0.930 . S
C1031 C1026 1.390 . S
C1031 C1030 1.387 . S
H1032 C1044 0.930 1_556 S
H1033 C1046 0.930 . S
H1034 C1047 0.930 . S
H1035 C1051 0.959 1_554 S
H1036 C1051 0.959 . S
H1037 C1051 0.961 . S
H1038 C1052 0.960 . S
H1039 C1052 0.961 . S
H1040 C1052 0.959 . S
H1041 C1055 0.929 . S
H1042 C1056 0.931 . S
H1043 C1058 0.930 . S
C1044 H1032 0.930 1_554 S
C1044 C1045 1.399 . S
C1044 C1049 1.399 . S
C1045 C1044 1.399 . S
C1045 C1046 1.376 . S
C1046 H1033 0.930 . S
C1046 C1045 1.376 . S
C1046 C1047 1.388 . S
C1047 H1034 0.930 . S
C1047 C1046 1.388 . S
C1047 C1048 1.390 . S
C1048 C1047 1.390 . S
C1048 C1049 1.394 . S
C1048 C1054 1.465 . S
C1049 C1044 1.399 . S
C1049 C1048 1.394 . S
C1049 C1050 1.516 . S
C1050 C1049 1.516 . S
C1050 C1051 1.502 1_554 S
C1050 C1052 1.561 1_554 S
C1050 C1053 1.526 . S
C1051 H1035 0.959 1_556 S
C1051 H1036 0.959 . S
C1051 H1037 0.961 . S
C1051 C1050 1.502 1_556 S
C1052 H1038 0.960 . S
C1052 H1039 0.961 . S
C1052 H1040 0.959 . S
C1052 C1050 1.561 1_556 S
C1053 C1050 1.526 . S
C1053 C1054 1.396 . S
C1053 C1058 1.390 . S
C1054 C1048 1.465 . S
C1054 C1053 1.396 . S
C1054 C1055 1.399 . S
C1055 H1041 0.929 . S
C1055 C1054 1.399 . S
C1055 C1056 1.385 . S
C1056 H1042 0.931 . S
C1056 C1055 1.385 . S
C1056 C1057 1.389 . S
C1057 C1056 1.389 . S
C1057 C1058 1.387 . S
C1058 H1043 0.930 . S
C1058 C1053 1.390 . S
C1058 C1057 1.387 . S
H1059 C1071 0.930 . S
H1060 C1073 0.930 . S
H1061 C1074 0.930 . S
H1062 C1078 0.959 . S
H1063 C1078 0.959 . S
H1064 C1078 0.961 . S
H1065 C1079 0.960 . S
H1066 C1079 0.961 . S
H1067 C1079 0.959 . S
H1068 C1082 0.929 . S
H1069 C1083 0.931 . S
H1070 C1085 0.930 . S
C1071 H1059 0.930 . S
C1071 C1072 1.399 . S
C1071 C1076 1.399 . S
C1072 C1071 1.399 . S
C1072 C1073 1.376 . S
C1073 H1060 0.930 . S
C1073 C1072 1.376 . S
C1073 C1074 1.388 . S
C1074 H1061 0.930 . S
C1074 C1073 1.388 . S
C1074 C1075 1.390 . S
C1075 C1074 1.390 . S
C1075 C1076 1.394 . S
C1075 C1081 1.465 . S
C1076 C1071 1.399 . S
C1076 C1075 1.394 . S
C1076 C1077 1.516 . S
C1077 C1076 1.516 . S
C1077 C1078 1.502 . S
C1077 C1079 1.561 . S
C1077 C1080 1.526 . S
C1078 H1062 0.959 . S
C1078 H1063 0.959 . S
C1078 H1064 0.961 . S
C1078 C1077 1.502 . S
C1079 H1065 0.960 . S
C1079 H1066 0.961 . S
C1079 H1067 0.959 . S
C1079 C1077 1.561 . S
C1080 C1077 1.526 . S
C1080 C1081 1.396 . S
C1080 C1085 1.390 . S
C1081 C1075 1.465 . S
C1081 C1080 1.396 . S
C1081 C1082 1.399 . S
C1082 H1068 0.929 . S
C1082 C1081 1.399 . S
C1082 C1083 1.385 . S
C1083 H1069 0.931 . S
C1083 C1082 1.385 . S
C1083 C1084 1.389 . S
C1084 C1083 1.389 . S
C1084 C1085 1.387 . S
C1085 H1070 0.930 . S
C1085 C1080 1.390 . S
C1085 C1084 1.387 . S
H1086 C1098 0.930 1_556 S
H1087 C1100 0.930 . S
H1088 C1101 0.930 . S
H1089 C1105 0.959 . S
H1090 C1105 0.959 . S
H1091 C1105 0.961 . S
H1092 C1106 0.960 . S
H1093 C1106 0.961 . S
H1094 C1106 0.959 1_554 S
H1095 C1109 0.929 . S
H1096 C1110 0.931 . S
H1097 C1112 0.930 . S
C1098 H1086 0.930 1_554 S
C1098 C1099 1.399 . S
C1098 C1103 1.399 . S
C1099 C1098 1.399 . S
C1099 C1100 1.376 . S
C1100 H1087 0.930 . S
C1100 C1099 1.376 . S
C1100 C1101 1.388 . S
C1101 H1088 0.930 . S
C1101 C1100 1.388 . S
C1101 C1102 1.390 . S
C1102 C1101 1.390 . S
C1102 C1103 1.394 . S
C1102 C1108 1.465 . S
C1103 C1098 1.399 . S
C1103 C1102 1.394 . S
C1103 C1104 1.516 . S
C1104 C1103 1.516 . S
C1104 C1105 1.502 1_554 S
C1104 C1106 1.561 1_554 S
C1104 C1107 1.526 . S
C1105 H1089 0.959 . S
C1105 H1090 0.959 . S
C1105 H1091 0.961 . S
C1105 C1104 1.502 1_556 S
C1106 H1092 0.960 . S
C1106 H1093 0.961 . S
C1106 H1094 0.959 1_556 S
C1106 C1104 1.561 1_556 S
C1107 C1104 1.526 . S
C1107 C1108 1.396 . S
C1107 C1112 1.390 . S
C1108 C1102 1.465 . S
C1108 C1107 1.396 . S
C1108 C1109 1.399 . S
C1109 H1095 0.929 . S
C1109 C1108 1.399 . S
C1109 C1110 1.385 . S
C1110 H1096 0.931 . S
C1110 C1109 1.385 . S
C1110 C1111 1.389 . S
C1111 C1110 1.389 . S
C1111 C1112 1.387 . S
C1112 H1097 0.930 . S
C1112 C1107 1.390 . S
C1112 C1111 1.387 . S
H1113 C1125 0.930 . S
H1114 C1127 0.930 . S
H1115 C1128 0.930 . S
H1116 C1132 0.959 . S
H1117 C1132 0.959 . S
H1118 C1132 0.961 . S
H1119 C1133 0.960 . S
H1120 C1133 0.961 . S
H1121 C1133 0.959 . S
H1122 C1136 0.929 . S
H1123 C1137 0.931 . S
H1124 C1139 0.930 . S
C1125 H1113 0.930 . S
C1125 C1126 1.399 . S
C1125 C1130 1.399 . S
C1126 C1125 1.399 . S
C1126 C1127 1.376 . S
C1127 H1114 0.930 . S
C1127 C1126 1.376 . S
C1127 C1128 1.388 . S
C1128 H1115 0.930 . S
C1128 C1127 1.388 . S
C1128 C1129 1.390 . S
C1129 C1128 1.390 . S
C1129 C1130 1.394 . S
C1129 C1135 1.465 . S
C1130 C1125 1.399 . S
C1130 C1129 1.394 . S
C1130 C1131 1.516 . S
C1131 C1130 1.516 . S
C1131 C1132 1.502 . S
C1131 C1133 1.561 . S
C1131 C1134 1.526 . S
C1132 H1116 0.959 . S
C1132 H1117 0.959 . S
C1132 H1118 0.961 . S
C1132 C1131 1.502 . S
C1133 H1119 0.960 . S
C1133 H1120 0.961 . S
C1133 H1121 0.959 . S
C1133 C1131 1.561 . S
C1134 C1131 1.526 . S
C1134 C1135 1.396 . S
C1134 C1139 1.390 . S
C1135 C1129 1.465 . S
C1135 C1134 1.396 . S
C1135 C1136 1.399 . S
C1136 H1122 0.929 . S
C1136 C1135 1.399 . S
C1136 C1137 1.385 . S
C1137 H1123 0.931 . S
C1137 C1136 1.385 . S
C1137 C1138 1.389 . S
C1138 C1137 1.389 . S
C1138 C1139 1.387 . S
C1139 H1124 0.930 . S
C1139 C1134 1.390 . S
C1139 C1138 1.387 . S
H1140 C1152 0.930 . S
H1141 C1154 0.930 . S
H1142 C1155 0.930 . S
H1143 C1159 0.959 . S
H1144 C1159 0.959 . S
H1145 C1159 0.961 . S
H1146 C1160 0.960 . S
H1147 C1160 0.961 . S
H1148 C1160 0.959 . S
H1149 C1163 0.929 . S
H1150 C1164 0.931 . S
H1151 C1166 0.930 . S
C1152 H1140 0.930 . S
C1152 C1153 1.399 . S
C1152 C1157 1.399 . S
C1153 C1152 1.399 . S
C1153 C1154 1.376 . S
C1154 H1141 0.930 . S
C1154 C1153 1.376 . S
C1154 C1155 1.388 . S
C1155 H1142 0.930 . S
C1155 C1154 1.388 . S
C1155 C1156 1.390 . S
C1156 C1155 1.390 . S
C1156 C1157 1.394 . S
C1156 C1162 1.465 . S
C1157 C1152 1.399 . S
C1157 C1156 1.394 . S
C1157 C1158 1.516 . S
C1158 C1157 1.516 . S
C1158 C1159 1.502 1_554 S
C1158 C1160 1.561 . S
C1158 C1161 1.526 . S
C1159 H1143 0.959 . S
C1159 H1144 0.959 . S
C1159 H1145 0.961 . S
C1159 C1158 1.502 1_556 S
C1160 H1146 0.960 . S
C1160 H1147 0.961 . S
C1160 H1148 0.959 . S
C1160 C1158 1.561 . S
C1161 C1158 1.526 . S
C1161 C1162 1.396 . S
C1161 C1166 1.390 . S
C1162 C1156 1.465 . S
C1162 C1161 1.396 . S
C1162 C1163 1.399 . S
C1163 H1149 0.929 . S
C1163 C1162 1.399 . S
C1163 C1164 1.385 . S
C1164 H1150 0.931 . S
C1164 C1163 1.385 . S
C1164 C1165 1.389 . S
C1165 C1164 1.389 . S
C1165 C1166 1.387 . S
C1166 H1151 0.930 . S
C1166 C1161 1.390 . S
C1166 C1165 1.387 . S
H1167 C1179 0.930 . S
H1168 C1181 0.930 . S
H1169 C1182 0.930 . S
H1170 C1186 0.959 . S
H1171 C1186 0.959 . S
H1172 C1186 0.961 . S
H1173 C1187 0.960 . S
H1174 C1187 0.961 . S
H1175 C1187 0.959 . S
H1176 C1190 0.929 . S
H1177 C1191 0.931 . S
H1178 C1193 0.930 . S
C1179 H1167 0.930 . S
C1179 C1180 1.399 . S
C1179 C1184 1.399 . S
C1180 C1179 1.399 . S
C1180 C1181 1.376 . S
C1181 H1168 0.930 . S
C1181 C1180 1.376 . S
C1181 C1182 1.388 . S
C1182 H1169 0.930 . S
C1182 C1181 1.388 . S
C1182 C1183 1.390 . S
C1183 C1182 1.390 . S
C1183 C1184 1.394 . S
C1183 C1189 1.465 . S
C1184 C1179 1.399 . S
C1184 C1183 1.394 . S
C1184 C1185 1.516 . S
C1185 C1184 1.516 . S
C1185 C1186 1.502 . S
C1185 C1187 1.561 . S
C1185 C1188 1.526 . S
C1186 H1170 0.959 . S
C1186 H1171 0.959 . S
C1186 H1172 0.961 . S
C1186 C1185 1.502 . S
C1187 H1173 0.960 . S
C1187 H1174 0.961 . S
C1187 H1175 0.959 . S
C1187 C1185 1.561 . S
C1188 C1185 1.526 . S
C1188 C1189 1.396 . S
C1188 C1193 1.390 . S
C1189 C1183 1.465 . S
C1189 C1188 1.396 . S
C1189 C1190 1.399 . S
C1190 H1176 0.929 . S
C1190 C1189 1.399 . S
C1190 C1191 1.385 . S
C1191 H1177 0.931 . S
C1191 C1190 1.385 . S
C1191 C1192 1.389 . S
C1192 C1191 1.389 . S
C1192 C1193 1.387 . S
C1193 H1178 0.930 . S
C1193 C1188 1.390 . S
C1193 C1192 1.387 . S
H1194 C1206 0.930 . S
H1195 C1208 0.930 . S
H1196 C1209 0.930 . S
H1197 C1213 0.959 . S
H1198 C1213 0.959 . S
H1199 C1213 0.961 . S
H1200 C1214 0.960 . S
H1201 C1214 0.961 . S
H1202 C1214 0.959 . S
H1203 C1217 0.929 . S
H1204 C1218 0.931 . S
H1205 C1220 0.930 . S
C1206 H1194 0.930 . S
C1206 C1207 1.399 . S
C1206 C1211 1.399 . S
C1207 C1206 1.399 . S
C1207 C1208 1.376 . S
C1208 H1195 0.930 . S
C1208 C1207 1.376 . S
C1208 C1209 1.388 . S
C1209 H1196 0.930 . S
C1209 C1208 1.388 . S
C1209 C1210 1.390 . S
C1210 C1209 1.390 . S
C1210 C1211 1.394 . S
C1210 C1216 1.465 . S
C1211 C1206 1.399 . S
C1211 C1210 1.394 . S
C1211 C1212 1.516 . S
C1212 C1211 1.516 . S
C1212 C1213 1.502 . S
C1212 C1214 1.561 . S
C1212 C1215 1.526 . S
C1213 H1197 0.959 . S
C1213 H1198 0.959 . S
C1213 H1199 0.961 . S
C1213 C1212 1.502 . S
C1214 H1200 0.960 . S
C1214 H1201 0.961 . S
C1214 H1202 0.959 . S
C1214 C1212 1.561 . S
C1215 C1212 1.526 . S
C1215 C1216 1.396 . S
C1215 C1220 1.390 . S
C1216 C1210 1.465 . S
C1216 C1215 1.396 . S
C1216 C1217 1.399 . S
C1217 H1203 0.929 . S
C1217 C1216 1.399 . S
C1217 C1218 1.385 . S
C1218 H1204 0.931 . S
C1218 C1217 1.385 . S
C1218 C1219 1.389 . S
C1219 C1218 1.389 . S
C1219 C1220 1.387 . S
C1220 H1205 0.930 . S
C1220 C1215 1.390 . S
C1220 C1219 1.387 . S
H1221 C1233 0.930 1_554 S
H1222 C1235 0.930 . S
H1223 C1236 0.930 . S
H1224 C1240 0.959 . S
H1225 C1240 0.959 1_554 S
H1226 C1240 0.961 1_554 S
H1227 C1241 0.960 . S
H1228 C1241 0.961 . S
H1229 C1241 0.959 . S
H1230 C1244 0.929 . S
H1231 C1245 0.931 . S
H1232 C1247 0.930 . S
C1233 H1221 0.930 1_556 S
C1233 C1234 1.399 . S
C1233 C1238 1.399 . S
C1234 C1233 1.399 . S
C1234 C1235 1.376 . S
C1235 H1222 0.930 . S
C1235 C1234 1.376 . S
C1235 C1236 1.388 . S
C1236 H1223 0.930 . S
C1236 C1235 1.388 . S
C1236 C1237 1.390 . S
C1237 C1236 1.390 . S
C1237 C1238 1.394 . S
C1237 C1243 1.465 . S
C1238 C1233 1.399 . S
C1238 C1237 1.394 . S
C1238 C1239 1.516 . S
C1239 C1238 1.516 . S
C1239 C1240 1.502 . S
C1239 C1241 1.561 1_556 S
C1239 C1242 1.526 . S
C1240 H1224 0.959 . S
C1240 H1225 0.959 1_556 S
C1240 H1226 0.961 1_556 S
C1240 C1239 1.502 . S
C1241 H1227 0.960 . S
C1241 H1228 0.961 . S
C1241 H1229 0.959 . S
C1241 C1239 1.561 1_554 S
C1242 C1239 1.526 . S
C1242 C1243 1.396 . S
C1242 C1247 1.390 . S
C1243 C1237 1.465 . S
C1243 C1242 1.396 . S
C1243 C1244 1.399 . S
C1244 H1230 0.929 . S
C1244 C1243 1.399 . S
C1244 C1245 1.385 . S
C1245 H1231 0.931 . S
C1245 C1244 1.385 . S
C1245 C1246 1.389 . S
C1246 C1245 1.389 . S
C1246 C1247 1.387 . S
C1247 H1232 0.930 . S
C1247 C1242 1.390 . S
C1247 C1246 1.387 . S
H1248 C1260 0.930 . S
H1249 C1262 0.930 . S
H1250 C1263 0.930 . S
H1251 C1267 0.959 . S
H1252 C1267 0.959 . S
H1253 C1267 0.961 . S
H1254 C1268 0.960 . S
H1255 C1268 0.961 . S
H1256 C1268 0.959 . S
H1257 C1271 0.929 . S
H1258 C1272 0.931 . S
H1259 C1274 0.930 . S
C1260 H1248 0.930 . S
C1260 C1261 1.399 . S
C1260 C1265 1.399 . S
C1261 C1260 1.399 . S
C1261 C1262 1.376 . S
C1262 H1249 0.930 . S
C1262 C1261 1.376 . S
C1262 C1263 1.388 . S
C1263 H1250 0.930 . S
C1263 C1262 1.388 . S
C1263 C1264 1.390 . S
C1264 C1263 1.390 . S
C1264 C1265 1.394 . S
C1264 C1270 1.465 . S
C1265 C1260 1.399 . S
C1265 C1264 1.394 . S
C1265 C1266 1.516 . S
C1266 C1265 1.516 . S
C1266 C1267 1.502 . S
C1266 C1268 1.561 . S
C1266 C1269 1.526 . S
C1267 H1251 0.959 . S
C1267 H1252 0.959 . S
C1267 H1253 0.961 . S
C1267 C1266 1.502 . S
C1268 H1254 0.960 . S
C1268 H1255 0.961 . S
C1268 H1256 0.959 . S
C1268 C1266 1.561 . S
C1269 C1266 1.526 . S
C1269 C1270 1.396 . S
C1269 C1274 1.390 . S
C1270 C1264 1.465 . S
C1270 C1269 1.396 . S
C1270 C1271 1.399 . S
C1271 H1257 0.929 . S
C1271 C1270 1.399 . S
C1271 C1272 1.385 . S
C1272 H1258 0.931 . S
C1272 C1271 1.385 . S
C1272 C1273 1.389 . S
C1273 C1272 1.389 . S
C1273 C1274 1.387 . S
C1274 H1259 0.930 . S
C1274 C1269 1.390 . S
C1274 C1273 1.387 . S
H1275 C1287 0.930 1_554 S
H1276 C1289 0.930 . S
H1277 C1290 0.930 . S
H1278 C1294 0.959 . S
H1279 C1294 0.959 . S
H1280 C1294 0.961 . S
H1281 C1295 0.960 . S
H1282 C1295 0.961 . S
H1283 C1295 0.959 . S
H1284 C1298 0.929 . S
H1285 C1299 0.931 . S
H1286 C1301 0.930 . S
C1287 H1275 0.930 1_556 S
C1287 C1288 1.399 . S
C1287 C1292 1.399 . S
C1288 C1287 1.399 . S
C1288 C1289 1.376 . S
C1289 H1276 0.930 . S
C1289 C1288 1.376 . S
C1289 C1290 1.388 . S
C1290 H1277 0.930 . S
C1290 C1289 1.388 . S
C1290 C1291 1.390 . S
C1291 C1290 1.390 . S
C1291 C1292 1.394 . S
C1291 C1297 1.465 . S
C1292 C1287 1.399 . S
C1292 C1291 1.394 . S
C1292 C1293 1.516 . S
C1293 C1292 1.516 . S
C1293 C1294 1.502 1_556 S
C1293 C1295 1.561 . S
C1293 C1296 1.526 . S
C1294 H1278 0.959 . S
C1294 H1279 0.959 . S
C1294 H1280 0.961 . S
C1294 C1293 1.502 1_554 S
C1295 H1281 0.960 . S
C1295 H1282 0.961 . S
C1295 H1283 0.959 . S
C1295 C1293 1.561 . S
C1296 C1293 1.526 . S
C1296 C1297 1.396 . S
C1296 C1301 1.390 . S
C1297 C1291 1.465 . S
C1297 C1296 1.396 . S
C1297 C1298 1.399 . S
C1298 H1284 0.929 . S
C1298 C1297 1.399 . S
C1298 C1299 1.385 . S
C1299 H1285 0.931 . S
C1299 C1298 1.385 . S
C1299 C1300 1.389 . S
C1300 C1299 1.389 . S
C1300 C1301 1.387 . S
C1301 H1286 0.930 . S
C1301 C1296 1.390 . S
C1301 C1300 1.387 . S
H1302 C1314 0.930 . S
H1303 C1316 0.930 . S
H1304 C1317 0.930 . S
H1305 C1321 0.959 . S
H1306 C1321 0.959 . S
H1307 C1321 0.961 . S
H1308 C1322 0.960 . S
H1309 C1322 0.961 . S
H1310 C1322 0.959 . S
H1311 C1325 0.929 . S
H1312 C1326 0.931 . S
H1313 C1328 0.930 . S
C1314 H1302 0.930 . S
C1314 C1315 1.399 . S
C1314 C1319 1.399 . S
C1315 C1314 1.399 . S
C1315 C1316 1.376 . S
C1316 H1303 0.930 . S
C1316 C1315 1.376 . S
C1316 C1317 1.388 . S
C1317 H1304 0.930 . S
C1317 C1316 1.388 . S
C1317 C1318 1.390 . S
C1318 C1317 1.390 . S
C1318 C1319 1.394 . S
C1318 C1324 1.465 . S
C1319 C1314 1.399 . S
C1319 C1318 1.394 . S
C1319 C1320 1.516 . S
C1320 C1319 1.516 . S
C1320 C1321 1.502 . S
C1320 C1322 1.561 . S
C1320 C1323 1.526 . S
C1321 H1305 0.959 . S
C1321 H1306 0.959 . S
C1321 H1307 0.961 . S
C1321 C1320 1.502 . S
C1322 H1308 0.960 . S
C1322 H1309 0.961 . S
C1322 H1310 0.959 . S
C1322 C1320 1.561 . S
C1323 C1320 1.526 . S
C1323 C1324 1.396 . S
C1323 C1328 1.390 . S
C1324 C1318 1.465 . S
C1324 C1323 1.396 . S
C1324 C1325 1.399 . S
C1325 H1311 0.929 . S
C1325 C1324 1.399 . S
C1325 C1326 1.385 . S
C1326 H1312 0.931 . S
C1326 C1325 1.385 . S
C1326 C1327 1.389 . S
C1327 C1326 1.389 . S
C1327 C1328 1.387 . S
C1328 H1313 0.930 . S
C1328 C1323 1.390 . S
C1328 C1327 1.387 . S
H1329 C1341 0.930 . S
H1330 C1343 0.930 1_554 S
H1331 C1344 0.930 1_554 S
H1332 C1348 0.959 . S
H1333 C1348 0.959 . S
H1334 C1348 0.961 . S
H1335 C1349 0.960 . S
H1336 C1349 0.961 . S
H1337 C1349 0.959 . S
H1338 C1352 0.929 1_554 S
H1339 C1353 0.931 . S
H1340 C1355 0.930 . S
C1341 H1329 0.930 . S
C1341 C1342 1.399 . S
C1341 C1346 1.399 . S
C1342 C1341 1.399 . S
C1342 C1343 1.376 . S
C1343 H1330 0.930 1_556 S
C1343 C1342 1.376 . S
C1343 C1344 1.388 . S
C1344 H1331 0.930 1_556 S
C1344 C1343 1.388 . S
C1344 C1345 1.390 . S
C1345 C1344 1.390 . S
C1345 C1346 1.394 . S
C1345 C1351 1.465 . S
C1346 C1341 1.399 . S
C1346 C1345 1.394 . S
C1346 C1347 1.516 . S
C1347 C1346 1.516 . S
C1347 C1348 1.502 . S
C1347 C1349 1.561 . S
C1347 C1350 1.526 . S
C1348 H1332 0.959 . S
C1348 H1333 0.959 . S
C1348 H1334 0.961 . S
C1348 C1347 1.502 . S
C1349 H1335 0.960 . S
C1349 H1336 0.961 . S
C1349 H1337 0.959 . S
C1349 C1347 1.561 . S
C1350 C1347 1.526 . S
C1350 C1351 1.396 . S
C1350 C1355 1.390 . S
C1351 C1345 1.465 . S
C1351 C1350 1.396 . S
C1351 C1352 1.399 . S
C1352 H1338 0.929 1_556 S
C1352 C1351 1.399 . S
C1352 C1353 1.385 . S
C1353 H1339 0.931 . S
C1353 C1352 1.385 . S
C1353 C1354 1.389 . S
C1354 C1353 1.389 . S
C1354 C1355 1.387 . S
C1355 H1340 0.930 . S
C1355 C1350 1.390 . S
C1355 C1354 1.387 . S
C721 C593 1.659 . S
C733 C3 1.623 . S
C748 C62 1.655 . S
C760 C654 1.692 . S
C775 C123 1.722 . S
C787 C357 1.706 . S
C802 C416 1.692 . S
C814 C180 1.694 . S
C829 C477 1.702 . S
C841 C239 1.690 . S
C856 C300 1.717 . S
C868 C534 1.710 . S
C883 C5 1.274 . S
C895 C418 1.230 . S
C910 C64 1.193 . S
C922 C475 1.292 . S
C937 C536 1.049 . S
C949 C121 1.031 . S
C964 C595 1.214 . S
C976 C182 1.286 . S
C991 C652 1.278 . S
C1003 C241 1.263 . S
C1018 C359 1.010 . S
C1030 C298 1.046 . S
C1045 C33 1.367 . S
C1057 C288 1.467 . S
C1072 C92 1.111 . S
C1084 C328 1.357 . S
C1099 C170 0.866 . S
C1111 C52 0.976 . S
C1126 C210 1.405 . S
C1138 C111 1.448 . S
C1153 C269 1.102 . S
C1165 C151 1.360 . S
C1180 C347 0.908 . S
C1192 C229 0.997 . S
C1207 C387 0.945 . S
C1219 C505 0.937 . S
C1234 C446 1.205 . S
C1246 C583 1.354 . S
C1261 C642 1.441 . S
C1273 C524 1.425 . S
C1288 C564 0.855 . S
C1300 C682 0.947 . S
C1315 C623 1.178 . S
C1327 C406 1.358 . S
C1342 C701 1.419 . S
C1354 C465 1.442 . S
