# Generated by pormake.
# Topology umu, (4)-cn, num edge types: 1
# Building blocks:
#     Node 0, Type 0, BuildingBlock: GALJAG_clean_sbu_0, # of connection points: 4
#     Node 1, Type 0, BuildingBlock: GALJAG_clean_sbu_0, # of connection points: 4
#     Node 2, Type 0, BuildingBlock: GALJAG_clean_sbu_0, # of connection points: 4
#     Node 3, Type 0, BuildingBlock: GALJAG_clean_sbu_0, # of connection points: 4
#     Node 4, Type 0, BuildingBlock: GALJAG_clean_sbu_0, # of connection points: 4
#     Node 5, Type 0, BuildingBlock: GALJAG_clean_sbu_0, # of connection points: 4
#     Node 6, Type 0, BuildingBlock: GALJAG_clean_sbu_0, # of connection points: 4
#     Node 7, Type 0, BuildingBlock: GALJAG_clean_sbu_0, # of connection points: 4
#     Node 8, Type 0, BuildingBlock: GALJAG_clean_sbu_0, # of connection points: 4
#     Node 9, Type 0, BuildingBlock: GALJAG_clean_sbu_0, # of connection points: 4
#     Node 10, Type 0, BuildingBlock: GALJAG_clean_sbu_0, # of connection points: 4
#     Node 11, Type 0, BuildingBlock: GALJAG_clean_sbu_0, # of connection points: 4
#     Node 12, Type 0, BuildingBlock: GALJAG_clean_sbu_0, # of connection points: 4
#     Node 13, Type 0, BuildingBlock: GALJAG_clean_sbu_0, # of connection points: 4
#     Node 14, Type 0, BuildingBlock: GALJAG_clean_sbu_0, # of connection points: 4
#     Node 15, Type 0, BuildingBlock: GALJAG_clean_sbu_0, # of connection points: 4
#     Node 16, Type 0, BuildingBlock: GALJAG_clean_sbu_0, # of connection points: 4
#     Node 17, Type 0, BuildingBlock: GALJAG_clean_sbu_0, # of connection points: 4
#     Node 18, Type 0, BuildingBlock: GALJAG_clean_sbu_0, # of connection points: 4
#     Node 19, Type 0, BuildingBlock: GALJAG_clean_sbu_0, # of connection points: 4
#     Node 20, Type 0, BuildingBlock: GALJAG_clean_sbu_0, # of connection points: 4
#     Node 21, Type 0, BuildingBlock: GALJAG_clean_sbu_0, # of connection points: 4
#     Node 22, Type 0, BuildingBlock: GALJAG_clean_sbu_0, # of connection points: 4
#     Node 23, Type 0, BuildingBlock: GALJAG_clean_sbu_0, # of connection points: 4
#     Node 24, Type 0, BuildingBlock: GALJAG_clean_sbu_0, # of connection points: 4
#     Node 25, Type 0, BuildingBlock: GALJAG_clean_sbu_0, # of connection points: 4
#     Node 26, Type 0, BuildingBlock: GALJAG_clean_sbu_0, # of connection points: 4
#     Node 27, Type 0, BuildingBlock: GALJAG_clean_sbu_0, # of connection points: 4
#     Node 28, Type 0, BuildingBlock: GALJAG_clean_sbu_0, # of connection points: 4
#     Node 29, Type 0, BuildingBlock: GALJAG_clean_sbu_0, # of connection points: 4
#     Node 30, Type 0, BuildingBlock: GALJAG_clean_sbu_0, # of connection points: 4
#     Node 31, Type 0, BuildingBlock: GALJAG_clean_sbu_0, # of connection points: 4
#     Edge 32, Type (0, 0), BuildingBlock: OJICUG_clean_linker_0, # of connection points: 2
#     Edge 33, Type (0, 0), BuildingBlock: OJICUG_clean_linker_0, # of connection points: 2
#     Edge 34, Type (0, 0), BuildingBlock: OJICUG_clean_linker_0, # of connection points: 2
#     Edge 35, Type (0, 0), BuildingBlock: OJICUG_clean_linker_0, # of connection points: 2
#     Edge 36, Type (0, 0), BuildingBlock: OJICUG_clean_linker_0, # of connection points: 2
#     Edge 37, Type (0, 0), BuildingBlock: OJICUG_clean_linker_0, # of connection points: 2
#     Edge 38, Type (0, 0), BuildingBlock: OJICUG_clean_linker_0, # of connection points: 2
#     Edge 39, Type (0, 0), BuildingBlock: OJICUG_clean_linker_0, # of connection points: 2
#     Edge 40, Type (0, 0), BuildingBlock: OJICUG_clean_linker_0, # of connection points: 2
#     Edge 41, Type (0, 0), BuildingBlock: OJICUG_clean_linker_0, # of connection points: 2
#     Edge 42, Type (0, 0), BuildingBlock: OJICUG_clean_linker_0, # of connection points: 2
#     Edge 43, Type (0, 0), BuildingBlock: OJICUG_clean_linker_0, # of connection points: 2
#     Edge 44, Type (0, 0), BuildingBlock: OJICUG_clean_linker_0, # of connection points: 2
#     Edge 45, Type (0, 0), BuildingBlock: OJICUG_clean_linker_0, # of connection points: 2
#     Edge 46, Type (0, 0), BuildingBlock: OJICUG_clean_linker_0, # of connection points: 2
#     Edge 47, Type (0, 0), BuildingBlock: OJICUG_clean_linker_0, # of connection points: 2
#     Edge 48, Type (0, 0), BuildingBlock: OJICUG_clean_linker_0, # of connection points: 2
#     Edge 49, Type (0, 0), BuildingBlock: OJICUG_clean_linker_0, # of connection points: 2
#     Edge 50, Type (0, 0), BuildingBlock: OJICUG_clean_linker_0, # of connection points: 2
#     Edge 51, Type (0, 0), BuildingBlock: OJICUG_clean_linker_0, # of connection points: 2
#     Edge 52, Type (0, 0), BuildingBlock: OJICUG_clean_linker_0, # of connection points: 2
#     Edge 53, Type (0, 0), BuildingBlock: OJICUG_clean_linker_0, # of connection points: 2
#     Edge 54, Type (0, 0), BuildingBlock: OJICUG_clean_linker_0, # of connection points: 2
#     Edge 55, Type (0, 0), BuildingBlock: OJICUG_clean_linker_0, # of connection points: 2
#     Edge 56, Type (0, 0), BuildingBlock: OJICUG_clean_linker_0, # of connection points: 2
#     Edge 57, Type (0, 0), BuildingBlock: OJICUG_clean_linker_0, # of connection points: 2
#     Edge 58, Type (0, 0), BuildingBlock: OJICUG_clean_linker_0, # of connection points: 2
#     Edge 59, Type (0, 0), BuildingBlock: OJICUG_clean_linker_0, # of connection points: 2
#     Edge 60, Type (0, 0), BuildingBlock: OJICUG_clean_linker_0, # of connection points: 2
#     Edge 61, Type (0, 0), BuildingBlock: OJICUG_clean_linker_0, # of connection points: 2
#     Edge 62, Type (0, 0), BuildingBlock: OJICUG_clean_linker_0, # of connection points: 2
#     Edge 63, Type (0, 0), BuildingBlock: OJICUG_clean_linker_0, # of connection points: 2
#     Edge 64, Type (0, 0), BuildingBlock: OJICUG_clean_linker_0, # of connection points: 2
#     Edge 65, Type (0, 0), BuildingBlock: OJICUG_clean_linker_0, # of connection points: 2
#     Edge 66, Type (0, 0), BuildingBlock: OJICUG_clean_linker_0, # of connection points: 2
#     Edge 67, Type (0, 0), BuildingBlock: OJICUG_clean_linker_0, # of connection points: 2
#     Edge 68, Type (0, 0), BuildingBlock: OJICUG_clean_linker_0, # of connection points: 2
#     Edge 69, Type (0, 0), BuildingBlock: OJICUG_clean_linker_0, # of connection points: 2
#     Edge 70, Type (0, 0), BuildingBlock: OJICUG_clean_linker_0, # of connection points: 2
#     Edge 71, Type (0, 0), BuildingBlock: OJICUG_clean_linker_0, # of connection points: 2
#     Edge 72, Type (0, 0), BuildingBlock: OJICUG_clean_linker_0, # of connection points: 2
#     Edge 73, Type (0, 0), BuildingBlock: OJICUG_clean_linker_0, # of connection points: 2
#     Edge 74, Type (0, 0), BuildingBlock: OJICUG_clean_linker_0, # of connection points: 2
#     Edge 75, Type (0, 0), BuildingBlock: OJICUG_clean_linker_0, # of connection points: 2
#     Edge 76, Type (0, 0), BuildingBlock: OJICUG_clean_linker_0, # of connection points: 2
#     Edge 77, Type (0, 0), BuildingBlock: OJICUG_clean_linker_0, # of connection points: 2
#     Edge 78, Type (0, 0), BuildingBlock: OJICUG_clean_linker_0, # of connection points: 2
#     Edge 79, Type (0, 0), BuildingBlock: OJICUG_clean_linker_0, # of connection points: 2
#     Edge 80, Type (0, 0), BuildingBlock: OJICUG_clean_linker_0, # of connection points: 2
#     Edge 81, Type (0, 0), BuildingBlock: OJICUG_clean_linker_0, # of connection points: 2
#     Edge 82, Type (0, 0), BuildingBlock: OJICUG_clean_linker_0, # of connection points: 2
#     Edge 83, Type (0, 0), BuildingBlock: OJICUG_clean_linker_0, # of connection points: 2
#     Edge 84, Type (0, 0), BuildingBlock: OJICUG_clean_linker_0, # of connection points: 2
#     Edge 85, Type (0, 0), BuildingBlock: OJICUG_clean_linker_0, # of connection points: 2
#     Edge 86, Type (0, 0), BuildingBlock: OJICUG_clean_linker_0, # of connection points: 2
#     Edge 87, Type (0, 0), BuildingBlock: OJICUG_clean_linker_0, # of connection points: 2
#     Edge 88, Type (0, 0), BuildingBlock: OJICUG_clean_linker_0, # of connection points: 2
#     Edge 89, Type (0, 0), BuildingBlock: OJICUG_clean_linker_0, # of connection points: 2
#     Edge 90, Type (0, 0), BuildingBlock: OJICUG_clean_linker_0, # of connection points: 2
#     Edge 91, Type (0, 0), BuildingBlock: OJICUG_clean_linker_0, # of connection points: 2
#     Edge 92, Type (0, 0), BuildingBlock: OJICUG_clean_linker_0, # of connection points: 2
#     Edge 93, Type (0, 0), BuildingBlock: OJICUG_clean_linker_0, # of connection points: 2
#     Edge 94, Type (0, 0), BuildingBlock: OJICUG_clean_linker_0, # of connection points: 2
#     Edge 95, Type (0, 0), BuildingBlock: OJICUG_clean_linker_0, # of connection points: 2
# Relax obj value: 0.104
# Max RMSD: 0.078
# Mean RMSD: 0.078
data_MOF--net-umu--node1-GALJAG_clean_sbu_0--edge1-OJICUG_clean_linker_0
_symmetry_space_group_name_H-M    P1
_symmetry_Int_Tables_number       1
_symmetry_cell_setting            triclinic
loop_
_symmetry_equiv_pos_as_xyz
'x, y, z'
_cell_length_a     58.546752
_cell_length_b     58.544798
_cell_length_c     19.952574
_cell_angle_alpha  89.996372
_cell_angle_beta   89.992993
_cell_angle_gamma 89.984181
loop_
_atom_site_label
_atom_site_type_symbol
_atom_site_fract_x
_atom_site_fract_y
_atom_site_fract_z
_atom_type_partial_charge
In0 In 0.20763 0.15342 0.07045 0.0
O1 O 0.23277 0.13961 0.99258 0.0
O2 O 0.2154 0.17062 0.97104 0.0
C3 C 0.22591 0.1391 0.18727 0.0
C4 C 0.17478 0.12518 0.02579 0.0
C5 C 0.20313 0.19754 0.10391 0.0
O6 O 0.23764 0.14214 0.13493 0.0
O7 O 0.20471 0.14235 0.17997 0.0
O8 O 0.18584 0.18496 0.09414 0.0
O9 O 0.22218 0.18769 0.09735 0.0
C10 C 0.22906 0.15547 0.95116 0.0
O11 O 0.17083 0.14605 0.03706 0.0
O12 O 0.19446 0.11853 0.04238 0.0
In13 In 0.08986 0.95656 0.32293 0.0
O14 O 0.10373 0.98165 0.24531 0.0
O15 O 0.07217 0.96515 0.22472 0.0
C16 C 0.10499 0.97443 0.43946 0.0
C17 C 0.11764 0.92385 0.27499 0.0
C18 C 0.04575 0.95204 0.35634 0.0
O19 O 0.10151 0.98632 0.38771 0.0
O20 O 0.10169 0.95326 0.43176 0.0
O21 O 0.05829 0.93477 0.34567 0.0
O22 O 0.05566 0.9711 0.35085 0.0
C23 C 0.08757 0.97848 0.20457 0.0
O24 O 0.09715 0.91958 0.29052 0.0
O25 O 0.12424 0.94375 0.28916 0.0
In26 In 0.28664 0.84098 0.57063 0.0
O27 O 0.3234 0.84808 0.53647 0.0
O28 O 0.30008 0.87582 0.54311 0.0
C29 C 0.29108 0.79689 0.6044 0.0
C30 C 0.2652 0.83904 0.45134 0.0
C31 C 0.26832 0.85539 0.68734 0.0
O32 O 0.30838 0.80948 0.59502 0.0
O33 O 0.27203 0.80671 0.59729 0.0
O34 O 0.25661 0.85232 0.63499 0.0
O35 O 0.28952 0.85211 0.68009 0.0
C36 C 0.31963 0.86902 0.52582 0.0
O37 O 0.26165 0.85498 0.4926 0.0
O38 O 0.27869 0.82377 0.4714 0.0
In39 In 0.40427 0.03723 0.82096 0.0
O40 O 0.39048 0.01221 0.74309 0.0
O41 O 0.42194 0.0289 0.72253 0.0
C42 C 0.38912 0.01923 0.93732 0.0
C43 C 0.37653 0.07005 0.77343 0.0
C44 C 0.44836 0.04167 0.85466 0.0
O45 O 0.39264 0.00739 0.88551 0.0
O46 O 0.39238 0.04042 0.92973 0.0
O47 O 0.43582 0.05897 0.84445 0.0
O48 O 0.43848 0.02262 0.84852 0.0
C49 C 0.4066 0.01552 0.7023 0.0
O50 O 0.39702 0.07428 0.78908 0.0
O51 O 0.36992 0.05013 0.78724 0.0
In52 In 0.20814 0.83939 0.06389 0.0
O53 O 0.23105 0.85588 0.14328 0.0
O54 O 0.22035 0.82167 0.15878 0.0
C55 C 0.22641 0.85414 0.94744 0.0
C56 C 0.1741 0.866 0.1098 0.0
C57 C 0.2028 0.79546 0.02941 0.0
O58 O 0.23812 0.85116 0.99983 0.0
O59 O 0.20527 0.85048 0.95443 0.0
O60 O 0.18575 0.80829 0.04015 0.0
O61 O 0.22203 0.805 0.03528 0.0
C62 C 0.23097 0.83869 0.1813 0.0
O63 O 0.17217 0.84453 0.1071 0.0
O64 O 0.19219 0.87379 0.08436 0.0
In65 In 0.40428 0.95957 0.31398 0.0
O66 O 0.39777 0.92302 0.35114 0.0
O67 O 0.36969 0.94586 0.34308 0.0
C68 C 0.44814 0.95412 0.2789 0.0
C69 C 0.40642 0.98195 0.43177 0.0
C70 C 0.38925 0.97771 0.19768 0.0
O71 O 0.43531 0.93712 0.29009 0.0
O72 O 0.43864 0.97339 0.28475 0.0
O73 O 0.39285 0.98953 0.24951 0.0
O74 O 0.39241 0.95651 0.2052 0.0
C75 C 0.3768 0.92658 0.36181 0.0
O76 O 0.38968 0.98397 0.39245 0.0
O77 O 0.42241 0.96957 0.41042 0.0
In78 In 0.28619 0.15512 0.56375 0.0
O79 O 0.32211 0.14984 0.60713 0.0
O80 O 0.30206 0.12066 0.58377 0.0
C81 C 0.29173 0.19902 0.52925 0.0
C82 C 0.26334 0.15584 0.68116 0.0
C83 C 0.26785 0.14044 0.44734 0.0
O84 O 0.30872 0.18613 0.54015 0.0
O85 O 0.27246 0.18956 0.53499 0.0
O86 O 0.25615 0.14346 0.49977 0.0
O87 O 0.289 0.14404 0.45428 0.0
C88 C 0.32015 0.12837 0.60944 0.0
O89 O 0.26331 0.13862 0.64323 0.0
O90 O 0.27391 0.17287 0.65855 0.0
In91 In 0.09001 0.03421 0.81594 0.0
O92 O 0.0965 0.0708 0.85279 0.0
O93 O 0.12462 0.04802 0.8445 0.0
C94 C 0.04616 0.0395 0.78065 0.0
C95 C 0.08786 0.01205 0.93405 0.0
C96 C 0.10502 0.01596 0.6998 0.0
O97 O 0.05897 0.05655 0.79133 0.0
O98 O 0.05566 0.02026 0.78712 0.0
O99 O 0.10144 0.00418 0.75173 0.0
O100 O 0.10187 0.03717 0.70716 0.0
C101 C 0.1175 0.06731 0.86316 0.0
O102 O 0.10454 0.00985 0.8946 0.0
O103 O 0.07194 0.02451 0.9127 0.0
In104 In 0.78575 0.83966 0.06473 0.0
O105 O 0.76185 0.85493 0.1436 0.0
O106 O 0.77542 0.82185 0.16135 0.0
C107 C 0.7674 0.85435 0.94836 0.0
C108 C 0.81917 0.86706 0.11043 0.0
C109 C 0.79095 0.79572 0.03026 0.0
O110 O 0.75568 0.85109 0.0006 0.0
O111 O 0.78859 0.85101 0.95548 0.0
O112 O 0.80803 0.80852 0.04069 0.0
O113 O 0.77174 0.80528 0.03651 0.0
C114 C 0.76348 0.83814 0.18287 0.0
O115 O 0.82219 0.84583 0.10325 0.0
O116 O 0.80022 0.87434 0.08947 0.0
In117 In 0.90442 0.03584 0.81279 0.0
O118 O 0.8901 0.01106 0.89064 0.0
O119 O 0.92215 0.02665 0.91047 0.0
C120 C 0.88935 0.01795 0.69621 0.0
C121 C 0.87691 0.06887 0.86035 0.0
C122 C 0.94847 0.04037 0.77878 0.0
O123 O 0.89268 0.00608 0.7481 0.0
O124 O 0.89278 0.03911 0.7038 0.0
O125 O 0.93593 0.05764 0.78936 0.0
O126 O 0.9386 0.02131 0.78467 0.0
C127 C 0.90647 0.01372 0.93095 0.0
O128 O 0.89771 0.07266 0.84754 0.0
O129 O 0.86995 0.04931 0.84376 0.0
In130 In 0.7088 0.15414 0.56512 0.0
O131 O 0.73332 0.13953 0.64336 0.0
O132 O 0.71789 0.17167 0.66315 0.0
C133 C 0.7271 0.13946 0.44865 0.0
C134 C 0.67561 0.12654 0.61111 0.0
C135 C 0.70392 0.19816 0.53103 0.0
O136 O 0.73884 0.14279 0.50079 0.0
O137 O 0.70589 0.14269 0.45594 0.0
O138 O 0.68675 0.18538 0.54045 0.0
O139 O 0.72307 0.18854 0.53815 0.0
C140 C 0.73066 0.15588 0.68378 0.0
O141 O 0.67214 0.14757 0.60116 0.0
O142 O 0.69493 0.11946 0.59258 0.0
In143 In 0.58972 0.95826 0.31386 0.0
O144 O 0.6049 0.9823 0.39241 0.0
O145 O 0.57189 0.96861 0.4104 0.0
C146 C 0.60458 0.97636 0.19741 0.0
C147 C 0.61698 0.92485 0.36038 0.0
C148 C 0.54579 0.9534 0.27891 0.0
O149 O 0.60141 0.98815 0.24956 0.0
O150 O 0.60109 0.9552 0.20469 0.0
O151 O 0.55841 0.93621 0.28978 0.0
O152 O 0.55551 0.97253 0.28501 0.0
C153 C 0.58813 0.98064 0.43176 0.0
O154 O 0.59577 0.92185 0.35288 0.0
O155 O 0.62433 0.94375 0.33922 0.0
In156 In 0.78707 0.15409 0.07188 0.0
O157 O 0.82348 0.14787 0.03306 0.0
O158 O 0.80147 0.1194 0.04681 0.0
C159 C 0.79205 0.19805 0.10651 0.0
C160 C 0.76473 0.15571 0.95389 0.0
C161 C 0.76891 0.13941 0.18847 0.0
O162 O 0.80921 0.18538 0.09565 0.0
O163 O 0.7729 0.18835 0.10057 0.0
O164 O 0.75714 0.14253 0.13625 0.0
O165 O 0.79008 0.14284 0.18119 0.0
C166 C 0.8204 0.12666 0.02568 0.0
O167 O 0.76294 0.13899 0.99335 0.0
O168 O 0.77687 0.17189 0.97516 0.0
In169 In 0.59014 0.03632 0.82068 0.0
O170 O 0.59713 0.07302 0.78564 0.0
O171 O 0.62489 0.04972 0.7921 0.0
C172 C 0.54611 0.04118 0.85457 0.0
C173 C 0.58815 0.01456 0.70197 0.0
C174 C 0.60481 0.01808 0.93719 0.0
O175 O 0.55886 0.05836 0.845 0.0
O176 O 0.55577 0.02203 0.84773 0.0
O177 O 0.60146 0.00631 0.8851 0.0
O178 O 0.60161 0.03928 0.92983 0.0
C179 C 0.61804 0.06923 0.77458 0.0
O180 O 0.60435 0.01151 0.74266 0.0
O181 O 0.57262 0.02769 0.72234 0.0
In182 In 0.70752 0.84012 0.57154 0.0
O183 O 0.73246 0.85425 0.49376 0.0
O184 O 0.71611 0.82264 0.47306 0.0
C185 C 0.7256 0.85485 0.68822 0.0
C186 C 0.67458 0.86793 0.52504 0.0
C187 C 0.703 0.79602 0.6051 0.0
O188 O 0.7374 0.85161 0.63614 0.0
O189 O 0.70442 0.85154 0.68075 0.0
O190 O 0.68572 0.8086 0.59503 0.0
O191 O 0.72206 0.80587 0.59885 0.0
C192 C 0.72936 0.83811 0.45291 0.0
O193 O 0.67067 0.84714 0.53766 0.0
O194 O 0.69423 0.87474 0.5413 0.0
In195 In 0.90409 0.958 0.31974 0.0
O196 O 0.8972 0.92119 0.28521 0.0
O197 O 0.86949 0.94462 0.28966 0.0
C198 C 0.94803 0.95282 0.35429 0.0
C199 C 0.90627 0.97992 0.20126 0.0
C200 C 0.88919 0.97633 0.43594 0.0
O201 O 0.93525 0.93574 0.34374 0.0
O202 O 0.93846 0.97204 0.34802 0.0
O203 O 0.89281 0.98807 0.38398 0.0
O204 O 0.89224 0.9551 0.42859 0.0
C205 C 0.87637 0.92503 0.27301 0.0
O206 O 0.88979 0.98254 0.24122 0.0
O207 O 0.92201 0.96714 0.22225 0.0
In208 In 0.70905 0.65439 0.56937 0.0
O209 O 0.67256 0.64824 0.53117 0.0
O210 O 0.69469 0.61976 0.54345 0.0
C211 C 0.70379 0.6983 0.60421 0.0
C212 C 0.73133 0.65609 0.45127 0.0
C213 C 0.72738 0.63953 0.68562 0.0
O214 O 0.68673 0.68549 0.59368 0.0
O215 O 0.72302 0.68877 0.59788 0.0
O216 O 0.73911 0.64292 0.63349 0.0
O217 O 0.70618 0.64283 0.67845 0.0
C218 C 0.67566 0.62706 0.52309 0.0
O219 O 0.733 0.63928 0.49043 0.0
O220 O 0.71935 0.67233 0.47288 0.0
In221 In 0.59 0.45826 0.82156 0.0
O222 O 0.60502 0.48243 0.74306 0.0
O223 O 0.57206 0.46861 0.72514 0.0
C224 C 0.60479 0.47636 0.93814 0.0
C225 C 0.61738 0.42499 0.7747 0.0
C226 C 0.54608 0.45314 0.85629 0.0
O227 O 0.60156 0.48815 0.88605 0.0
O228 O 0.60143 0.45518 0.93075 0.0
O229 O 0.55873 0.43603 0.84469 0.0
O230 O 0.55577 0.47232 0.85098 0.0
C231 C 0.58824 0.48072 0.70378 0.0
O232 O 0.59626 0.42176 0.78349 0.0
O233 O 0.62463 0.44406 0.7948 0.0
In234 In 0.78582 0.33954 0.07054 0.0
O235 O 0.76186 0.35479 0.99188 0.0
O236 O 0.77513 0.32157 0.9745 0.0
C237 C 0.76756 0.35432 0.18693 0.0
C238 C 0.81907 0.36688 0.02355 0.0
C239 C 0.79136 0.29569 0.10567 0.0
O240 O 0.7558 0.35094 0.13485 0.0
O241 O 0.78876 0.35108 0.17962 0.0
O242 O 0.80835 0.30857 0.09468 0.0
O243 O 0.77208 0.30514 0.09957 0.0
C244 C 0.76329 0.33792 0.95287 0.0
O245 O 0.82208 0.34565 0.03061 0.0
O246 O 0.80025 0.37422 0.04539 0.0
In247 In 0.90487 0.53609 0.32123 0.0
O248 O 0.88802 0.51386 0.24084 0.0
O249 O 0.92295 0.52242 0.22852 0.0
C250 C 0.89007 0.51776 0.43753 0.0
C251 C 0.87839 0.57021 0.27512 0.0
C252 C 0.94862 0.54211 0.35689 0.0
O253 O 0.893 0.50608 0.38502 0.0
O254 O 0.89375 0.5389 0.43064 0.0
O255 O 0.93583 0.55894 0.34329 0.0
O256 O 0.93914 0.52279 0.3531 0.0
C257 C 0.90559 0.51277 0.20454 0.0
O258 O 0.89991 0.57167 0.27521 0.0
O259 O 0.87055 0.55259 0.30319 0.0
In260 In 0.70772 0.33999 0.56381 0.0
O261 O 0.67092 0.34698 0.59817 0.0
O262 O 0.69433 0.37467 0.59313 0.0
C263 C 0.70331 0.29589 0.53016 0.0
C264 C 0.7294 0.33796 0.68262 0.0
C265 C 0.72583 0.35472 0.44718 0.0
O266 O 0.68599 0.30848 0.53965 0.0
O267 O 0.72235 0.30575 0.53695 0.0
O268 O 0.73762 0.35152 0.49931 0.0
O269 O 0.70465 0.35135 0.45458 0.0
C270 C 0.67475 0.36784 0.60999 0.0
O271 O 0.73262 0.35408 0.64174 0.0
O272 O 0.71612 0.32253 0.66241 0.0
In273 In 0.90407 0.45761 0.81453 0.0
O274 O 0.89659 0.42064 0.84602 0.0
O275 O 0.86934 0.44465 0.84494 0.0
C276 C 0.94835 0.45337 0.78253 0.0
C277 C 0.90595 0.47869 0.93429 0.0
C278 C 0.88962 0.47585 0.69768 0.0
O279 O 0.93567 0.43604 0.79012 0.0
O280 O 0.93851 0.47238 0.79033 0.0
O281 O 0.89277 0.4876 0.74992 0.0
O282 O 0.89289 0.45466 0.70506 0.0
C283 C 0.87591 0.42477 0.85959 0.0
O284 O 0.8905 0.483 0.89201 0.0
O285 O 0.92082 0.46461 0.91501 0.0
In286 In 0.78709 0.65382 0.06247 0.0
O287 O 0.82419 0.64643 0.09338 0.0
O288 O 0.79984 0.61954 0.09739 0.0
C289 C 0.79164 0.69798 0.02939 0.0
C290 C 0.76526 0.65615 0.18102 0.0
C291 C 0.76909 0.63885 0.94585 0.0
O292 O 0.80889 0.68543 0.04002 0.0
O293 O 0.77257 0.68808 0.03487 0.0
O294 O 0.75725 0.64231 0.99771 0.0
O295 O 0.79028 0.64203 0.95352 0.0
C296 C 0.81986 0.62607 0.1102 0.0
O297 O 0.76195 0.64005 0.14013 0.0
O298 O 0.77871 0.67146 0.16093 0.0
In299 In 0.5901 0.53648 0.31484 0.0
O300 O 0.59723 0.57329 0.3489 0.0
O301 O 0.62482 0.54975 0.34418 0.0
C302 C 0.54602 0.54135 0.28139 0.0
C303 C 0.58812 0.51478 0.43369 0.0
C304 C 0.60474 0.51815 0.19834 0.0
O305 O 0.55882 0.55852 0.29054 0.0
O306 O 0.55566 0.5222 0.28843 0.0
O307 O 0.60133 0.50641 0.25045 0.0
O308 O 0.6016 0.53936 0.20565 0.0
C309 C 0.61807 0.56938 0.36077 0.0
O310 O 0.60428 0.51165 0.39286 0.0
O311 O 0.57263 0.52799 0.41342 0.0
In312 In 0.28813 0.34091 0.56184 0.0
O313 O 0.26256 0.3541 0.63927 0.0
O314 O 0.28072 0.32356 0.6613 0.0
C315 C 0.27003 0.35552 0.44499 0.0
C316 C 0.32055 0.36927 0.60841 0.0
C317 C 0.2927 0.29674 0.52894 0.0
O318 O 0.25822 0.35223 0.49703 0.0
O319 O 0.29123 0.35239 0.45262 0.0
O320 O 0.30996 0.3093 0.53939 0.0
O321 O 0.27364 0.30663 0.53458 0.0
C322 C 0.26666 0.33839 0.6809 0.0
O323 O 0.32514 0.34891 0.59215 0.0
O324 O 0.30042 0.37549 0.59561 0.0
In325 In 0.40395 0.53836 0.31258 0.0
O326 O 0.39058 0.51281 0.38982 0.0
O327 O 0.42081 0.5313 0.41288 0.0
C328 C 0.38932 0.52036 0.19568 0.0
C329 C 0.37569 0.57102 0.35831 0.0
C330 C 0.44822 0.54234 0.28022 0.0
O331 O 0.39239 0.50854 0.24782 0.0
O332 O 0.39275 0.54152 0.20319 0.0
O333 O 0.43572 0.55977 0.28887 0.0
O334 O 0.4382 0.52339 0.28721 0.0
C335 C 0.40603 0.51713 0.43206 0.0
O336 O 0.39628 0.57533 0.34406 0.0
O337 O 0.36926 0.55107 0.34395 0.0
In338 In 0.20687 0.65364 0.06321 0.0
O339 O 0.16986 0.64591 0.09421 0.0
O340 O 0.19435 0.61911 0.0968 0.0
C341 C 0.20217 0.69775 0.02977 0.0
C342 C 0.22843 0.65616 0.18211 0.0
C343 C 0.22503 0.63891 0.94658 0.0
O344 O 0.18495 0.68515 0.04033 0.0
O345 O 0.22127 0.68792 0.03557 0.0
O346 O 0.23682 0.64232 0.99857 0.0
O347 O 0.20381 0.64199 0.95417 0.0
C348 C 0.17431 0.62549 0.11009 0.0
O349 O 0.23217 0.64023 0.14097 0.0
O350 O 0.21467 0.67121 0.1621 0.0
In351 In 0.09054 0.45669 0.81483 0.0
O352 O 0.10372 0.48231 0.89207 0.0
O353 O 0.07381 0.46333 0.91559 0.0
C354 C 0.10518 0.47475 0.69796 0.0
C355 C 0.11885 0.42402 0.86024 0.0
C356 C 0.04622 0.45285 0.78288 0.0
O357 O 0.10209 0.48654 0.75012 0.0
O358 O 0.10176 0.45358 0.70543 0.0
O359 O 0.05871 0.43539 0.79093 0.0
O360 O 0.05626 0.47177 0.79029 0.0
C361 C 0.08844 0.4777 0.93459 0.0
O362 O 0.09838 0.41959 0.84475 0.0
O363 O 0.12515 0.44412 0.84731 0.0
In364 In 0.28491 0.65529 0.57001 0.0
O365 O 0.26144 0.63949 0.491 0.0
O366 O 0.27352 0.6732 0.47452 0.0
C367 C 0.26673 0.6403 0.68632 0.0
C368 C 0.31859 0.62845 0.52297 0.0
C369 C 0.29021 0.69919 0.60487 0.0
O370 O 0.25496 0.64359 0.6342 0.0
O371 O 0.28789 0.6438 0.67913 0.0
O372 O 0.30727 0.68634 0.59447 0.0
O373 O 0.27098 0.68968 0.59848 0.0
C374 C 0.26225 0.65653 0.45246 0.0
O375 O 0.32111 0.64979 0.52874 0.0
O376 O 0.30007 0.62081 0.54605 0.0
In377 In 0.08984 0.53501 0.32157 0.0
O378 O 0.09486 0.57069 0.2764 0.0
O379 O 0.12422 0.55116 0.30177 0.0
C380 C 0.04615 0.5415 0.35719 0.0
C381 C 0.08889 0.51169 0.20491 0.0
C382 C 0.10467 0.51659 0.43775 0.0
O383 O 0.05912 0.55818 0.3436 0.0
O384 O 0.05541 0.52208 0.35346 0.0
O385 O 0.10147 0.50491 0.38541 0.0
O386 O 0.10124 0.53777 0.43079 0.0
C387 C 0.11636 0.56898 0.27483 0.0
O388 O 0.10652 0.51275 0.24098 0.0
O389 O 0.07157 0.52135 0.22912 0.0
In390 In 0.20988 0.33908 0.06862 0.0
O391 O 0.17389 0.34437 0.02563 0.0
O392 O 0.19415 0.37354 0.04749 0.0
C393 C 0.20425 0.29523 0.10368 0.0
C394 C 0.23269 0.33812 0.95119 0.0
C395 C 0.22824 0.35397 0.18481 0.0
O396 O 0.18729 0.30814 0.09265 0.0
O397 O 0.22354 0.30465 0.0978 0.0
O398 O 0.23994 0.35076 0.1325 0.0
O399 O 0.20708 0.35043 0.17786 0.0
C400 C 0.17596 0.36581 0.02245 0.0
O401 O 0.23277 0.35538 0.98893 0.0
O402 O 0.22209 0.32114 0.974 0.0
In403 In 0.40475 0.46012 0.81942 0.0
O404 O 0.39983 0.42438 0.77456 0.0
O405 O 0.37042 0.4439 0.79944 0.0
C406 C 0.44848 0.4541 0.8552 0.0
C407 C 0.40567 0.48321 0.70243 0.0
C408 C 0.38984 0.47855 0.9355 0.0
O409 O 0.43554 0.43726 0.84303 0.0
O410 O 0.43915 0.47345 0.84998 0.0
O411 O 0.39301 0.49021 0.88311 0.0
O412 O 0.39334 0.45738 0.92862 0.0
C413 C 0.37834 0.42605 0.77277 0.0
O414 O 0.38815 0.48253 0.73905 0.0
O415 O 0.42289 0.47326 0.72622 0.0
C416 C 0.15363 0.07535 0.9239 0.0
C417 C 0.13205 0.08289 0.90261 0.0
H418 H 0.1836 0.08248 0.98083 0.0
C419 C 0.12409 0.10432 0.92423 0.0
H420 H 0.16016 0.05881 0.90886 0.0
C421 C 0.13766 0.11802 0.96589 0.0
C422 C 0.15922 0.11033 0.98717 0.0
H423 H 0.10741 0.11044 0.90912 0.0
H424 H 0.13137 0.13464 0.981 0.0
C425 C 0.16697 0.08882 0.96592 0.0
C426 C 0.12534 0.88572 0.22118 0.0
C427 C 0.13195 0.90835 0.23447 0.0
H428 H 0.13355 0.85436 0.17061 0.0
C429 C 0.15177 0.91701 0.20406 0.0
H430 H 0.10999 0.87871 0.24343 0.0
C431 C 0.16477 0.90342 0.16144 0.0
C432 C 0.1585 0.88069 0.14879 0.0
H433 H 0.15715 0.93448 0.21243 0.0
H434 H 0.18006 0.91066 0.13945 0.0
C435 C 0.13865 0.8719 0.17903 0.0
C436 C 0.37012 0.88955 0.42276 0.0
C437 C 0.36228 0.91109 0.40173 0.0
H438 H 0.36277 0.8592 0.47936 0.0
C439 C 0.34089 0.91883 0.42401 0.0
H440 H 0.38667 0.88328 0.40688 0.0
C441 C 0.3276 0.90543 0.46638 0.0
C442 C 0.3352 0.8838 0.48699 0.0
H443 H 0.33447 0.93546 0.40947 0.0
H444 H 0.31111 0.91193 0.48204 0.0
C445 C 0.35659 0.87591 0.46476 0.0
C446 C 0.36888 0.10831 0.7204 0.0
C447 C 0.36224 0.08566 0.73325 0.0
H448 H 0.36072 0.13981 0.67046 0.0
C449 C 0.3424 0.07711 0.70273 0.0
H450 H 0.38424 0.11525 0.74275 0.0
C451 C 0.32941 0.09082 0.66041 0.0
C452 C 0.33572 0.11356 0.64818 0.0
H453 H 0.33698 0.05963 0.71077 0.0
H454 H 0.31411 0.08365 0.63831 0.0
C455 C 0.35558 0.12225 0.67855 0.0
C456 C 0.85567 0.87362 0.17415 0.0
C457 C 0.83476 0.88182 0.14917 0.0
H458 H 0.88539 0.88088 0.2337 0.0
C459 C 0.82762 0.90392 0.16667 0.0
H460 H 0.86148 0.85655 0.16196 0.0
C461 C 0.84089 0.91748 0.20865 0.0
C462 C 0.86182 0.90943 0.23359 0.0
H463 H 0.8115 0.91069 0.14885 0.0
H464 H 0.83483 0.93447 0.22074 0.0
C465 C 0.86921 0.88741 0.2157 0.0
C466 C 0.87003 0.1064 0.91849 0.0
C467 C 0.86254 0.08443 0.90049 0.0
H468 H 0.86255 0.13718 0.97298 0.0
C469 C 0.84171 0.07637 0.92607 0.0
H470 H 0.88615 0.11294 0.90001 0.0
C471 C 0.82862 0.08987 0.96875 0.0
C472 C 0.83586 0.11192 0.98633 0.0
H473 H 0.83558 0.05941 0.91393 0.0
H474 H 0.81257 0.08309 0.98702 0.0
C475 C 0.85668 0.12014 0.96075 0.0
C476 C 0.66752 0.09027 0.67104 0.0
C477 C 0.66001 0.11192 0.65031 0.0
H478 H 0.66047 0.06026 0.72785 0.0
C479 C 0.63866 0.11992 0.67249 0.0
H480 H 0.68399 0.0837 0.6555 0.0
C481 C 0.62503 0.10634 0.71436 0.0
C482 C 0.63274 0.08474 0.7353 0.0
H483 H 0.63257 0.13665 0.6578 0.0
H484 H 0.60849 0.11267 0.73005 0.0
C485 C 0.65413 0.07692 0.71329 0.0
C486 C 0.62337 0.88849 0.42503 0.0
C487 C 0.63164 0.90934 0.39979 0.0
H488 H 0.63049 0.85889 0.48527 0.0
C489 C 0.65368 0.91652 0.41768 0.0
H490 H 0.60633 0.88267 0.41257 0.0
C491 C 0.66714 0.90334 0.4602 0.0
C492 C 0.65904 0.88246 0.48533 0.0
H493 H 0.66049 0.9326 0.39971 0.0
H494 H 0.6841 0.90942 0.47252 0.0
C495 C 0.63706 0.87504 0.46714 0.0
C496 C 0.63897 0.62057 0.46023 0.0
C497 C 0.66003 0.61239 0.48415 0.0
H498 H 0.60902 0.61336 0.40164 0.0
C499 C 0.66725 0.59042 0.46553 0.0
H500 H 0.63311 0.63755 0.47329 0.0
C501 C 0.65387 0.57695 0.42361 0.0
C502 C 0.63276 0.58495 0.39984 0.0
H503 H 0.68349 0.58369 0.48247 0.0
H504 H 0.65998 0.56004 0.41069 0.0
C505 C 0.62534 0.60686 0.41873 0.0
C506 C 0.65374 0.41693 0.71519 0.0
C507 C 0.63198 0.40949 0.73507 0.0
H508 H 0.68386 0.40995 0.6588 0.0
C509 C 0.62389 0.38833 0.71169 0.0
H510 H 0.66039 0.43327 0.73164 0.0
C511 C 0.6375 0.3748 0.66955 0.0
C512 C 0.65921 0.38245 0.6495 0.0
H513 H 0.60707 0.38229 0.7257 0.0
H514 H 0.6311 0.3584 0.65297 0.0
C515 C 0.66711 0.40367 0.67266 0.0
C516 C 0.86871 0.38709 0.91643 0.0
C517 C 0.86131 0.40913 0.89876 0.0
H518 H 0.86114 0.35627 0.97058 0.0
C519 C 0.84045 0.41719 0.92411 0.0
H520 H 0.88485 0.38054 0.89812 0.0
C521 C 0.82729 0.40366 0.96648 0.0
C522 C 0.83449 0.38159 0.98401 0.0
H523 H 0.83437 0.43419 0.91211 0.0
H524 H 0.81122 0.41045 0.98469 0.0
C525 C 0.8553 0.37333 0.95842 0.0
C526 C 0.82682 0.59255 0.18352 0.0
C527 C 0.8355 0.6119 0.15069 0.0
H528 H 0.83333 0.56479 0.24996 0.0
C529 C 0.85836 0.61823 0.16148 0.0
H530 H 0.80917 0.58741 0.17711 0.0
C531 C 0.87237 0.60508 0.20351 0.0
C532 C 0.86356 0.5857 0.23618 0.0
H533 H 0.86541 0.63322 0.13731 0.0
H534 H 0.89008 0.60994 0.20996 0.0
C535 C 0.8406 0.57972 0.22606 0.0
C536 C 0.3588 0.37741 0.66077 0.0
C537 C 0.33604 0.38377 0.64837 0.0
H538 H 0.39023 0.38585 0.71055 0.0
C539 C 0.32726 0.40344 0.67931 0.0
H540 H 0.36591 0.36218 0.63808 0.0
C541 C 0.34086 0.41652 0.72174 0.0
C542 C 0.36369 0.41045 0.73365 0.0
H543 H 0.3097 0.40864 0.67158 0.0
H544 H 0.33352 0.43168 0.74423 0.0
C545 C 0.3726 0.39079 0.70272 0.0
C546 C 0.35462 0.62245 0.45644 0.0
C547 C 0.33415 0.61388 0.48344 0.0
H548 H 0.38396 0.61559 0.39485 0.0
C549 C 0.32736 0.59156 0.46728 0.0
H550 H 0.36013 0.6397 0.46755 0.0
C551 C 0.34055 0.57812 0.42475 0.0
C552 C 0.36107 0.58652 0.39789 0.0
H553 H 0.31157 0.58451 0.48662 0.0
H554 H 0.33478 0.56094 0.41379 0.0
C555 C 0.36809 0.60879 0.41432 0.0
C556 C 0.15381 0.57824 0.22318 0.0
C557 C 0.13106 0.5845 0.2356 0.0
H558 H 0.18493 0.58591 0.17251 0.0
C559 C 0.12226 0.60428 0.20508 0.0
H560 H 0.16106 0.56297 0.24533 0.0
C561 C 0.1361 0.6176 0.16305 0.0
C562 C 0.15878 0.61106 0.15014 0.0
H563 H 0.10469 0.60937 0.21331 0.0
H564 H 0.12908 0.63293 0.1407 0.0
C565 C 0.16743 0.59126 0.18065 0.0
C566 C 0.12682 0.38577 0.91292 0.0
C567 C 0.13343 0.40839 0.89948 0.0
H568 H 0.13513 0.35435 0.96307 0.0
C569 C 0.1535 0.41691 0.92879 0.0
H570 H 0.1113 0.37885 0.8915 0.0
C571 C 0.16668 0.40323 0.97068 0.0
C572 C 0.16033 0.38055 0.98372 0.0
H573 H 0.15892 0.43436 0.9202 0.0
H574 H 0.18213 0.41039 0.99194 0.0
C575 C 0.14029 0.37187 0.95437 0.0
C576 C 0.2446 0.13499 0.85147 0.0
C577 C 0.23841 0.15555 0.88278 0.0
H578 H 0.25672 0.11892 0.7617 0.0
C579 C 0.23986 0.17609 0.84677 0.0
H580 H 0.24335 0.1189 0.87805 0.0
C581 C 0.24776 0.17614 0.78078 0.0
C582 C 0.25371 0.15557 0.74919 0.0
H583 H 0.23506 0.19215 0.86982 0.0
H584 H 0.24911 0.19225 0.75435 0.0
C585 C 0.25194 0.13497 0.78483 0.0
C586 C 0.06695 0.9909 0.10168 0.0
C587 C 0.0876 0.98779 0.13622 0.0
H588 H 0.0509 0.00132 0.01013 0.0
C589 C 0.10834 0.99213 0.10337 0.0
H590 H 0.05076 0.98751 0.12602 0.0
C591 C 0.10845 -0.00074 0.03657 0.0
C592 C 0.08779 0.00269 0.00235 0.0
H593 H 0.12448 0.98955 0.12884 0.0
H594 H 0.12465 0.00255 0.01219 0.0
C595 C 0.06704 -0.00135 0.03552 0.0
C596 C 0.24639 0.81837 0.2811 0.0
C597 C 0.24059 0.83896 0.24934 0.0
H598 H 0.25893 0.80234 0.37028 0.0
C599 C 0.24251 0.85958 0.2848 0.0
H600 H 0.24492 0.80225 0.25481 0.0
C601 C 0.24985 0.85956 0.35145 0.0
C602 C 0.25587 0.83898 0.38294 0.0
H603 H 0.23786 0.87564 0.26153 0.0
H604 H 0.25122 0.87566 0.37791 0.0
C605 C 0.25426 0.81842 0.3471 0.0
C606 C 0.38588 0.00173 0.60116 0.0
C607 C 0.40661 0.00627 0.63388 0.0
H608 H 0.36961 0.99115 0.51011 0.0
C609 C 0.42725 0.00336 0.59918 0.0
H610 H 0.36973 0.00415 0.62675 0.0
C611 C 0.42719 0.99561 0.53301 0.0
C612 C 0.40646 0.99136 0.50001 0.0
H613 H 0.44343 0.00689 0.6234 0.0
H614 H 0.44334 0.99308 0.50751 0.0
C615 C 0.3858 0.99461 0.53437 0.0
C616 C 0.74936 0.8175 0.28377 0.0
C617 C 0.75399 0.83821 0.25104 0.0
H618 H 0.73767 0.80131 0.37374 0.0
C619 C 0.75097 0.85888 0.28556 0.0
H620 H 0.7517 0.80135 0.25816 0.0
C621 C 0.74368 0.85882 0.35223 0.0
C622 C 0.73877 0.83812 0.38465 0.0
H623 H 0.75472 0.87504 0.26152 0.0
H624 H 0.74144 0.87496 0.37795 0.0
C625 C 0.74148 0.81747 0.34978 0.0
C626 C 0.92711 0.00077 0.03323 0.0
C627 C 0.90644 0.0043 0.99918 0.0
H628 H 0.94322 0.98999 0.12435 0.0
C629 C 0.8857 0.00027 0.03245 0.0
H630 H 0.9433 0.00391 0.00859 0.0
C631 C 0.88565 0.99308 0.09919 0.0
C632 C 0.90633 0.98926 0.13293 0.0
H633 H 0.86955 0.00316 0.00737 0.0
H634 H 0.86946 0.99004 0.12392 0.0
C635 C 0.92706 0.99296 0.09933 0.0
C636 C 0.75184 0.13501 0.85155 0.0
C637 C 0.75522 0.15568 0.88575 0.0
H638 H 0.74204 0.11893 0.7594 0.0
C639 C 0.75096 0.17641 0.85268 0.0
H640 H 0.7553 0.11882 0.87586 0.0
C641 C 0.7431 0.17646 0.78665 0.0
C642 C 0.74004 0.15581 0.75209 0.0
H643 H 0.75357 0.19256 0.87803 0.0
H644 H 0.73959 0.19265 0.76244 0.0
C645 C 0.74456 0.13508 0.78486 0.0
C646 C 0.56749 0.00247 0.59887 0.0
C647 C 0.58815 0.00522 0.63363 0.0
H648 H 0.55135 0.99228 0.50727 0.0
C649 C 0.60885 0.00041 0.60105 0.0
H650 H 0.55133 0.00621 0.62295 0.0
C651 C 0.60889 0.99318 0.53432 0.0
C652 C 0.58821 0.99012 0.49992 0.0
H653 H 0.625 0.00268 0.62668 0.0
H654 H 0.62505 0.9895 0.51016 0.0
C655 C 0.56751 0.99465 0.53279 0.0
C656 C 0.7454 0.67678 0.35033 0.0
C657 C 0.74078 0.65607 0.38305 0.0
H658 H 0.75706 0.69297 0.26029 0.0
C659 C 0.74376 0.6354 0.34846 0.0
H660 H 0.74309 0.69292 0.37599 0.0
C661 C 0.75099 0.63547 0.28176 0.0
C662 C 0.7559 0.65617 0.24934 0.0
H663 H 0.74002 0.61923 0.3725 0.0
H664 H 0.7532 0.61933 0.25601 0.0
C665 C 0.75324 0.67681 0.28425 0.0
C666 C 0.60886 0.50069 0.53456 0.0
C667 C 0.58815 0.50544 0.50202 0.0
H668 H 0.62511 0.48979 0.62537 0.0
C669 C 0.56751 0.5026 0.53679 0.0
H670 H 0.62501 0.50303 0.50893 0.0
C671 C 0.56755 0.49473 0.60282 0.0
C672 C 0.58827 0.49025 0.63566 0.0
H673 H 0.55133 0.50628 0.51273 0.0
H674 H 0.5514 0.49227 0.62834 0.0
C675 C 0.60894 0.49342 0.60125 0.0
C676 C 0.74367 0.35863 0.78341 0.0
C677 C 0.73873 0.33795 0.75097 0.0
H678 H 0.75467 0.37483 0.87418 0.0
C679 C 0.74133 0.3173 0.78588 0.0
H680 H 0.7415 0.37478 0.75766 0.0
C681 C 0.74914 0.3173 0.85197 0.0
C682 C 0.75381 0.338 0.88471 0.0
H683 H 0.7375 0.30114 0.7619 0.0
H684 H 0.75141 0.30115 0.8776 0.0
C685 C 0.75089 0.35867 0.85014 0.0
C686 C 0.92596 0.49609 0.10656 0.0
C687 C 0.90545 0.5031 0.13656 0.0
H688 H 0.94212 0.48267 0.01868 0.0
C689 C 0.88512 0.5024 0.09931 0.0
H690 H 0.94187 0.4966 0.13425 0.0
C691 C 0.88537 0.4951 0.03264 0.0
C692 C 0.90587 0.4879 0.00286 0.0
H693 H 0.86913 0.508 0.12119 0.0
H694 H 0.86949 0.49471 0.00479 0.0
C695 C 0.92612 0.48826 0.0405 0.0
C696 C 0.25103 0.35883 0.78044 0.0
C697 C 0.25736 0.33827 0.74932 0.0
H698 H 0.2389 0.37493 0.87012 0.0
C699 C 0.25613 0.31777 0.78559 0.0
H700 H 0.25211 0.37489 0.75365 0.0
C701 C 0.2483 0.31775 0.85167 0.0
C702 C 0.24223 0.33832 0.88306 0.0
H703 H 0.26105 0.30172 0.76267 0.0
H704 H 0.24711 0.30167 0.87833 0.0
C705 C 0.24378 0.35888 0.84715 0.0
C706 C 0.42628 0.50726 0.53789 0.0
C707 C 0.40597 0.5079 0.50057 0.0
H708 H 0.44208 0.49874 0.63145 0.0
C709 C 0.38542 0.50101 0.53068 0.0
H710 H 0.44231 0.51261 0.51578 0.0
C711 C 0.38518 0.49376 0.59739 0.0
C712 C 0.40557 0.49279 0.63434 0.0
H713 H 0.3695 0.50162 0.50307 0.0
H714 H 0.36916 0.48842 0.61955 0.0
C715 C 0.42613 0.49946 0.60399 0.0
C716 C 0.25052 0.63568 0.34922 0.0
C717 C 0.25276 0.65634 0.3843 0.0
H718 H 0.2417 0.61955 0.25634 0.0
C719 C 0.24741 0.67697 0.35206 0.0
H720 H 0.25484 0.61959 0.37287 0.0
C721 C 0.23961 0.67691 0.28596 0.0
C722 C 0.23771 0.65629 0.25053 0.0
H723 H 0.24914 0.69312 0.37809 0.0
H724 H 0.23525 0.693 0.26236 0.0
C725 C 0.24332 0.63568 0.28249 0.0
C726 C 0.06845 0.49502 0.107 0.0
C727 C 0.08897 0.50205 0.13689 0.0
H728 H 0.05228 0.48158 0.01916 0.0
C729 C 0.10928 0.5014 0.09951 0.0
H730 H 0.05256 0.4955 0.1348 0.0
C731 C 0.109 0.49412 0.03283 0.0
C732 C 0.08851 0.48689 0.00316 0.0
H733 H 0.12527 0.50701 0.1213 0.0
H734 H 0.12487 0.49377 0.00488 0.0
C735 C 0.06828 0.4872 0.04092 0.0
C736 C 0.18162 0.23467 0.1026 0.0
C737 C 0.20176 0.22237 0.11556 0.0
H738 H 0.16651 0.26779 0.08893 0.0
C739 C 0.22166 0.2343 0.13319 0.0
H740 H 0.16603 0.22585 0.08899 0.0
C741 C 0.22192 0.25806 0.13322 0.0
C742 C 0.2023 0.27045 0.11556 0.0
H743 H 0.23737 0.22528 0.14425 0.0
H744 H 0.23784 0.26671 0.14426 0.0
C745 C 0.18189 0.25862 0.10258 0.0
C746 C 0.00884 0.97057 0.38429 0.0
C747 C 0.02089 0.95066 0.3674 0.0
H748 H 0.97634 0.98668 0.39426 0.0
C749 C 0.00869 0.93045 0.35456 0.0
H750 H 0.01778 0.98635 0.39519 0.0
C751 C 0.98475 0.93065 0.35404 0.0
C752 C 0.97281 0.95105 0.36634 0.0
H753 H 0.0176 0.91485 0.34152 0.0
H754 H 0.97567 0.91519 0.34062 0.0
C755 C 0.98508 0.97077 0.38375 0.0
C756 C 0.27249 0.7601 0.63307 0.0
C757 C 0.29244 0.77207 0.61621 0.0
H758 H 0.25633 0.72766 0.64371 0.0
C759 C 0.31268 0.75981 0.60418 0.0
H760 H 0.25669 0.76909 0.64339 0.0
C761 C 0.31247 0.73586 0.60434 0.0
C762 C 0.29202 0.72399 0.61656 0.0
H763 H 0.32831 0.76866 0.59119 0.0
H764 H 0.32794 0.72672 0.59145 0.0
C765 C 0.27228 0.73634 0.63328 0.0
C766 C 0.48537 0.06336 0.85457 0.0
C767 C 0.47321 0.04304 0.8661 0.0
H768 H 0.51838 0.0788 0.84219 0.0
C769 C 0.48527 0.02306 0.88217 0.0
H770 H 0.47646 0.07901 0.8422 0.0
C771 C 0.50904 0.02294 0.88216 0.0
C772 C 0.52129 0.0428 0.86609 0.0
H773 H 0.47636 0.00719 0.89206 0.0
H774 H 0.5178 0.00699 0.89202 0.0
C775 C 0.50932 0.06324 0.85458 0.0
C776 C 0.18064 0.75873 0.03094 0.0
C777 C 0.20099 0.77065 0.01783 0.0
H778 H 0.16496 0.72589 0.04476 0.0
C779 C 0.22068 0.75836 0.00026 0.0
H780 H 0.16522 0.76783 0.04452 0.0
C781 C 0.22054 0.73459 0.00043 0.0
C782 C 0.2007 0.72257 0.01815 0.0
H783 H 0.23655 0.76708 0.98913 0.0
H784 H 0.2363 0.72564 0.9894 0.0
C785 C 0.1805 0.73478 0.0311 0.0
C786 C 0.48521 0.97184 0.24867 0.0
C787 C 0.47291 0.95224 0.26692 0.0
H788 H 0.51793 0.98738 0.23721 0.0
C789 C 0.48483 0.9319 0.28039 0.0
H790 H 0.47649 0.9877 0.23722 0.0
C791 C 0.50878 0.93172 0.28039 0.0
C792 C 0.52099 0.95187 0.26691 0.0
H793 H 0.47573 0.91653 0.29448 0.0
H794 H 0.51766 0.91621 0.29447 0.0
C795 C 0.50897 0.97166 0.24866 0.0
C796 C 0.31401 0.23569 0.53079 0.0
C797 C 0.29364 0.22382 0.51757 0.0
H798 H 0.3298 0.26848 0.54451 0.0
C799 C 0.27401 0.23618 0.49974 0.0
H800 H 0.32939 0.22654 0.54457 0.0
C801 C 0.27424 0.25994 0.49975 0.0
C802 C 0.2941 0.2719 0.51755 0.0
H803 H 0.25812 0.2275 0.48852 0.0
H804 H 0.25852 0.26893 0.4885 0.0
C805 C 0.31424 0.25963 0.53077 0.0
C806 C 0.98534 0.02185 0.75038 0.0
C807 C 0.97332 0.04176 0.76743 0.0
H808 H 0.01783 0.00571 0.74029 0.0
C809 C 0.98553 0.06196 0.78028 0.0
H810 H 0.97639 0.00609 0.73946 0.0
C811 C 0.00948 0.06174 0.78075 0.0
C812 C 0.02139 0.04132 0.76839 0.0
H813 H 0.97665 0.07755 0.79344 0.0
H814 H 0.01857 0.07717 0.79425 0.0
C815 C 0.0091 0.02163 0.75086 0.0
C816 C 0.81326 0.73502 0.03086 0.0
C817 C 0.79304 0.72283 0.01817 0.0
H818 H 0.82856 0.76805 0.04434 0.0
C819 C 0.77315 0.73487 0.00109 0.0
H820 H 0.82885 0.72612 0.04403 0.0
C821 C 0.77299 0.75864 0.00125 0.0
C822 C 0.79271 0.77091 0.0185 0.0
H823 H 0.75736 0.72594 0.99028 0.0
H824 H 0.75708 0.76738 0.99059 0.0
C825 C 0.8131 0.75897 0.03102 0.0
C826 C 0.6818 0.23492 0.53046 0.0
C827 C 0.70227 0.22296 0.51928 0.0
H828 H 0.66597 0.26778 0.54238 0.0
C829 C 0.72213 0.23523 0.50328 0.0
H830 H 0.66623 0.22585 0.54277 0.0
C831 C 0.72198 0.25899 0.50304 0.0
C832 C 0.70196 0.27105 0.51881 0.0
H833 H 0.7381 0.22647 0.49365 0.0
H834 H 0.73784 0.26791 0.49324 0.0
C835 C 0.68164 0.25887 0.53023 0.0
C836 C 0.77369 0.25866 0.13647 0.0
C837 C 0.79327 0.27093 0.11787 0.0
H838 H 0.75815 0.22596 0.14844 0.0
C839 C 0.81358 0.25899 0.10426 0.0
H840 H 0.75786 0.2674 0.14804 0.0
C841 C 0.81376 0.23504 0.10448 0.0
C842 C 0.79362 0.22285 0.11832 0.0
H843 H 0.82894 0.26808 0.0899 0.0
H844 H 0.82923 0.22614 0.09028 0.0
C845 C 0.77386 0.2349 0.1367 0.0
C846 C 0.68158 0.73501 0.60378 0.0
C847 C 0.702 0.72309 0.61612 0.0
H848 H 0.66578 0.76785 0.5909 0.0
C849 C 0.72172 0.73539 0.6333 0.0
H850 H 0.66612 0.72591 0.59054 0.0
C851 C 0.72153 0.75915 0.63349 0.0
C852 C 0.70161 0.77117 0.61652 0.0
H853 H 0.73764 0.72667 0.64384 0.0
H854 H 0.73731 0.76811 0.64418 0.0
C855 C 0.68139 0.75896 0.60399 0.0
C856 C 0.50928 0.47115 0.8879 0.0
C857 C 0.52128 0.45152 0.86817 0.0
H858 H 0.47682 0.48715 0.90024 0.0
C859 C 0.50905 0.43152 0.853 0.0
H860 H 0.51826 0.48674 0.90069 0.0
C861 C 0.4851 0.43175 0.85273 0.0
C862 C 0.47321 0.45199 0.86763 0.0
H863 H 0.51792 0.41614 0.83773 0.0
H864 H 0.47598 0.41655 0.83725 0.0
C865 C 0.48552 0.47138 0.88765 0.0
C866 C 0.98554 0.56387 0.35161 0.0
C867 C 0.97336 0.54409 0.36933 0.0
H868 H 0.01858 0.57868 0.33415 0.0
C869 C 0.98539 0.52485 0.39203 0.0
H870 H 0.97664 0.57895 0.33401 0.0
C871 C 0.00915 0.5247 0.39211 0.0
C872 C 0.02142 0.54379 0.36948 0.0
H873 H 0.97645 0.50945 0.40684 0.0
H874 H 0.01789 0.50919 0.40696 0.0
C875 C 0.00949 0.56372 0.3517 0.0
C876 C 0.9852 0.4314 0.78063 0.0
C877 C 0.97323 0.452 0.77183 0.0
H878 H 0.01805 0.41541 0.79077 0.0
C879 C 0.98551 0.47211 0.75888 0.0
H880 H 0.97612 0.41564 0.79058 0.0
C881 C 0.00927 0.47198 0.75898 0.0
C882 C 0.02133 0.45174 0.77205 0.0
H883 H 0.97676 0.48821 0.7512 0.0
H884 H 0.01819 0.48798 0.75137 0.0
C885 C 0.00914 0.43127 0.78075 0.0
C886 C 0.48536 0.56381 0.27994 0.0
C887 C 0.4731 0.54349 0.26936 0.0
H888 H 0.51844 0.57917 0.29177 0.0
C889 C 0.48509 0.52334 0.25465 0.0
H890 H 0.47651 0.57959 0.29126 0.0
C891 C 0.50886 0.5231 0.25494 0.0
C892 C 0.52119 0.543 0.26994 0.0
H893 H 0.47611 0.50746 0.24554 0.0
H894 H 0.51754 0.50704 0.24604 0.0
C895 C 0.50931 0.56357 0.28023 0.0
C896 C 0.26046 0.13464 0.25988 0.0
C897 C 0.23655 0.1352 0.25355 0.0
H898 H 0.28916 0.13566 0.32639 0.0
C899 C 0.22308 0.13461 0.3118 0.0
H900 H 0.27131 0.135 0.2159 0.0
C901 C 0.23333 0.13496 0.37512 0.0
C902 C 0.25722 0.13595 0.38137 0.0
H903 H 0.20462 0.13496 0.30854 0.0
H904 H 0.22248 0.13555 0.41908 0.0
C905 C 0.2707 0.13502 0.32318 0.0
C906 C 0.1104 0.00878 0.51226 0.0
C907 C 0.1094 0.98489 0.50568 0.0
H908 H 0.11003 0.0374 0.57913 0.0
C909 C 0.11002 0.97133 0.56371 0.0
H910 H 0.11005 0.0197 0.46843 0.0
C911 C 0.11003 0.98149 0.62716 0.0
C912 C 0.10941 0.00539 0.63371 0.0
H913 H 0.10936 0.95288 0.56024 0.0
H914 H 0.10939 0.97058 0.67099 0.0
C915 C 0.11039 0.01894 0.57569 0.0
C916 C 0.22353 0.85948 0.82325 0.0
C917 C 0.23701 0.85863 0.88143 0.0
H918 H 0.22291 0.85941 0.71597 0.0
C919 C 0.2609 0.85967 0.87515 0.0
H920 H 0.20507 0.8588 0.82648 0.0
C921 C 0.27114 0.85999 0.81181 0.0
C922 C 0.25767 0.85932 0.75358 0.0
H923 H 0.27175 0.85914 0.91909 0.0
H924 H 0.28961 0.85968 0.80854 0.0
C925 C 0.23376 0.85984 0.75993 0.0
C926 C 0.3839 0.98484 0.01009 0.0
C927 C 0.38474 0.00873 0.00351 0.0
H928 H 0.38444 0.95622 0.07699 0.0
C929 C 0.384 0.02229 0.06154 0.0
H930 H 0.38435 0.97393 0.96626 0.0
C931 C 0.38404 0.01214 0.12498 0.0
C932 C 0.38483 0.98824 0.13155 0.0
H933 H 0.38454 0.04075 0.05807 0.0
H934 H 0.38458 0.02304 0.1688 0.0
C935 C 0.38395 0.97468 0.07353 0.0
C936 C 0.77027 0.85968 0.82419 0.0
C937 C 0.75678 0.85872 0.88233 0.0
H938 H 0.77093 0.8595 0.71692 0.0
C939 C 0.73287 0.85948 0.87598 0.0
H940 H 0.78874 0.85922 0.82748 0.0
C941 C 0.72266 0.85961 0.81261 0.0
C942 C 0.73616 0.85902 0.75444 0.0
H943 H 0.72201 0.85886 0.91989 0.0
H944 H 0.7042 0.85907 0.80929 0.0
C945 C 0.76006 0.85984 0.76085 0.0
C946 C 0.88442 0.02102 0.57192 0.0
C947 C 0.88495 0.00748 0.63 0.0
H948 H 0.88508 0.02173 0.46465 0.0
C949 C 0.88384 0.98359 0.62348 0.0
H950 H 0.88517 0.03947 0.57533 0.0
C951 C 0.88381 0.97341 0.56008 0.0
C952 C 0.88487 0.98693 0.50202 0.0
H953 H 0.88412 0.97269 0.66735 0.0
H954 H 0.88408 0.95495 0.55669 0.0
C955 C 0.88437 0.01084 0.50851 0.0
C956 C 0.73443 0.13428 0.26103 0.0
C957 C 0.75833 0.13516 0.25464 0.0
H958 H 0.70575 0.13474 0.3277 0.0
C959 C 0.77183 0.13449 0.3128 0.0
H960 H 0.72356 0.13469 0.21711 0.0
C961 C 0.76161 0.13449 0.37616 0.0
C962 C 0.73771 0.13519 0.38254 0.0
H963 H 0.79029 0.13506 0.30948 0.0
H964 H 0.77247 0.13506 0.42007 0.0
C965 C 0.72421 0.13431 0.32439 0.0
C966 C 0.60964 0.97339 0.07316 0.0
C967 C 0.60893 0.98691 0.13127 0.0
H968 H 0.60917 0.97271 0.9659 0.0
C969 C 0.60986 0.01081 0.12483 0.0
H970 H 0.60904 0.95493 0.07652 0.0
C971 C 0.6099 0.021 0.06144 0.0
C972 C 0.60905 0.00749 0.00334 0.0
H973 H 0.60943 0.02169 0.16872 0.0
H974 H 0.6095 0.03947 0.05808 0.0
C975 C 0.60971 0.98358 0.00978 0.0
C976 C 0.77208 0.63409 0.82145 0.0
C977 C 0.75856 0.63466 0.87958 0.0
H978 H 0.77276 0.63493 0.71417 0.0
C979 C 0.73466 0.63385 0.8731 0.0
H980 H 0.79054 0.63462 0.82483 0.0
C981 C 0.72447 0.63406 0.80973 0.0
C982 C 0.73798 0.63506 0.75164 0.0
H983 H 0.72378 0.63418 0.917 0.0
H984 H 0.70601 0.63454 0.80641 0.0
C985 C 0.76188 0.63428 0.75805 0.0
C986 C 0.60994 0.52102 0.0741 0.0
C987 C 0.60901 0.50753 0.13224 0.0
H988 H 0.60961 0.52168 0.96682 0.0
C989 C 0.60966 0.48362 0.12585 0.0
H990 H 0.60955 0.53949 0.07741 0.0
C991 C 0.60968 0.47341 0.06249 0.0
C992 C 0.60906 0.48691 0.00433 0.0
H993 H 0.60906 0.47276 0.16976 0.0
H994 H 0.60907 0.45495 0.05917 0.0
C995 C 0.60998 0.51081 0.01074 0.0
C996 C 0.76029 0.35973 0.3745 0.0
C997 C 0.73639 0.35891 0.38096 0.0
H998 H 0.78895 0.35913 0.30777 0.0
C999 C 0.72287 0.35955 0.32283 0.0
H1000 H 0.77117 0.35934 0.4184 0.0
C1001 C 0.73307 0.35946 0.25945 0.0
C1002 C 0.75698 0.35869 0.25302 0.0
H1003 H 0.70442 0.35903 0.3262 0.0
H1004 H 0.7222 0.35887 0.21556 0.0
C1005 C 0.77049 0.35961 0.31112 0.0
C1006 C 0.88478 0.51036 0.62511 0.0
C1007 C 0.88551 0.48646 0.63146 0.0
H1008 H 0.88544 0.53906 0.55853 0.0
C1009 C 0.88481 0.47298 0.57325 0.0
H1010 H 0.88521 0.52122 0.66905 0.0
C1011 C 0.88491 0.48321 0.50989 0.0
C1012 C 0.88573 0.50712 0.50358 0.0
H1013 H 0.88528 0.45451 0.57653 0.0
H1014 H 0.88544 0.47236 0.46594 0.0
C1015 C 0.88491 0.52059 0.56177 0.0
C1016 C 0.26275 0.35949 0.25707 0.0
C1017 C 0.23885 0.35857 0.25073 0.0
H1018 H 0.29142 0.3595 0.32379 0.0
C1019 C 0.22535 0.35964 0.30884 0.0
H1020 H 0.27361 0.35879 0.21317 0.0
C1021 C 0.23555 0.36009 0.37218 0.0
C1022 C 0.25946 0.35945 0.37863 0.0
H1023 H 0.20689 0.35906 0.30557 0.0
H1024 H 0.22468 0.35983 0.41611 0.0
C1025 C 0.27296 0.35992 0.32044 0.0
C1026 C 0.38438 0.47572 0.05962 0.0
C1027 C 0.38544 0.48921 0.00148 0.0
H1028 H 0.38448 0.47506 0.16689 0.0
C1029 C 0.38481 0.51312 0.00784 0.0
H1030 H 0.38475 0.45725 0.05634 0.0
C1031 C 0.38469 0.52333 0.07121 0.0
C1032 C 0.38517 0.50983 0.12939 0.0
H1033 H 0.38553 0.52397 0.96392 0.0
H1034 H 0.38533 0.54179 0.07455 0.0
C1035 C 0.38422 0.48593 0.12297 0.0
C1036 C 0.25951 0.63435 0.87377 0.0
C1037 C 0.2356 0.6349 0.88028 0.0
H1038 H 0.28816 0.63543 0.80706 0.0
C1039 C 0.22209 0.63428 0.82214 0.0
H1040 H 0.27039 0.63474 0.91767 0.0
C1041 C 0.23228 0.63466 0.75874 0.0
C1042 C 0.25618 0.63569 0.75232 0.0
H1043 H 0.20363 0.63462 0.82553 0.0
H1044 H 0.2214 0.63525 0.71488 0.0
C1045 C 0.2697 0.63475 0.8104 0.0
C1046 C 0.10969 0.48202 0.51011 0.0
C1047 C 0.10905 0.50593 0.50376 0.0
H1048 H 0.1092 0.45334 0.57681 0.0
C1049 C 0.11009 0.51941 0.56191 0.0
H1050 H 0.109 0.47117 0.4662 0.0
C1051 C 0.11025 0.50919 0.62526 0.0
C1052 C 0.10932 0.4853 0.63167 0.0
H1053 H 0.10971 0.53788 0.55863 0.0
H1054 H 0.10998 0.52006 0.66919 0.0
C1055 C 0.10982 0.4718 0.57348 0.0
loop_
_geom_bond_atom_site_label_1
_geom_bond_atom_site_label_2
_geom_bond_distance
_geom_bond_site_symmetry_2
_ccdc_geom_bond_type
In0 O1 2.294 1_554 S
In0 O2 2.326 1_554 S
In0 O6 2.266 . S
In0 O7 2.326 . S
In0 O8 2.266 . S
In0 O9 2.326 . S
In0 O11 2.294 . S
In0 O12 2.326 . S
O1 In0 2.294 1_556 S
O1 C10 1.240 . S
O2 In0 2.326 1_556 S
O2 C10 1.252 . S
C3 O6 1.252 . S
C3 O7 1.260 . S
C4 O11 1.240 . S
C4 O12 1.252 . S
C5 O8 1.252 . S
C5 O9 1.260 . S
O6 In0 2.266 . S
O6 C3 1.252 . S
O7 In0 2.326 . S
O7 C3 1.260 . S
O8 In0 2.266 . S
O8 C5 1.252 . S
O9 In0 2.326 . S
O9 C5 1.260 . S
C10 O1 1.240 . S
C10 O2 1.252 . S
O11 In0 2.294 . S
O11 C4 1.240 . S
O12 In0 2.326 . S
O12 C4 1.252 . S
In13 O14 2.294 . S
In13 O15 2.326 . S
In13 O19 2.266 . S
In13 O20 2.326 . S
In13 O21 2.266 . S
In13 O22 2.326 . S
In13 O24 2.294 . S
In13 O25 2.326 . S
O14 In13 2.294 . S
O14 C23 1.240 . S
O15 In13 2.326 . S
O15 C23 1.252 . S
C16 O19 1.252 . S
C16 O20 1.260 . S
C17 O24 1.240 . S
C17 O25 1.252 . S
C18 O21 1.252 . S
C18 O22 1.260 . S
O19 In13 2.266 . S
O19 C16 1.252 . S
O20 In13 2.326 . S
O20 C16 1.260 . S
O21 In13 2.266 . S
O21 C18 1.252 . S
O22 In13 2.326 . S
O22 C18 1.260 . S
C23 O14 1.240 . S
C23 O15 1.252 . S
O24 In13 2.294 . S
O24 C17 1.240 . S
O25 In13 2.326 . S
O25 C17 1.252 . S
In26 O27 2.294 . S
In26 O28 2.326 . S
In26 O32 2.266 . S
In26 O33 2.326 . S
In26 O34 2.266 . S
In26 O35 2.326 . S
In26 O37 2.294 . S
In26 O38 2.326 . S
O27 In26 2.294 . S
O27 C36 1.240 . S
O28 In26 2.326 . S
O28 C36 1.252 . S
C29 O32 1.252 . S
C29 O33 1.260 . S
C30 O37 1.240 . S
C30 O38 1.252 . S
C31 O34 1.252 . S
C31 O35 1.260 . S
O32 In26 2.266 . S
O32 C29 1.252 . S
O33 In26 2.326 . S
O33 C29 1.260 . S
O34 In26 2.266 . S
O34 C31 1.252 . S
O35 In26 2.326 . S
O35 C31 1.260 . S
C36 O27 1.240 . S
C36 O28 1.252 . S
O37 In26 2.294 . S
O37 C30 1.240 . S
O38 In26 2.326 . S
O38 C30 1.252 . S
In39 O40 2.329 . S
In39 O41 2.326 . S
In39 O45 2.266 . S
In39 O46 2.326 . S
In39 O47 2.266 . S
In39 O48 2.326 . S
In39 O50 2.294 . S
In39 O51 2.326 . S
O40 In39 2.329 . S
O40 C49 1.263 . S
O41 In39 2.326 . S
O41 C49 1.252 . S
C42 O45 1.252 . S
C42 O46 1.260 . S
C43 O50 1.240 . S
C43 O51 1.252 . S
C44 O47 1.252 . S
C44 O48 1.260 . S
O45 In39 2.266 . S
O45 C42 1.252 . S
O46 In39 2.326 . S
O46 C42 1.260 . S
O47 In39 2.266 . S
O47 C44 1.252 . S
O48 In39 2.326 . S
O48 C44 1.260 . S
C49 O40 1.263 . S
C49 O41 1.252 . S
O50 In39 2.294 . S
O50 C43 1.240 . S
O51 In39 2.326 . S
O51 C43 1.252 . S
In52 O53 2.294 . S
In52 O54 2.326 . S
In52 O58 2.261 1_554 S
In52 O59 2.326 1_554 S
In52 O60 2.266 . S
In52 O61 2.326 . S
In52 O63 2.294 . S
In52 O64 2.326 . S
O53 In52 2.294 . S
O53 C62 1.240 . S
O54 In52 2.326 . S
O54 C62 1.252 . S
C55 O58 1.257 . S
C55 O59 1.260 . S
C56 O63 1.240 . S
C56 O64 1.252 . S
C57 O60 1.252 . S
C57 O61 1.260 . S
O58 In52 2.261 1_556 S
O58 C55 1.257 . S
O59 In52 2.326 1_556 S
O59 C55 1.260 . S
O60 In52 2.266 . S
O60 C57 1.252 . S
O61 In52 2.326 . S
O61 C57 1.260 . S
C62 O53 1.240 . S
C62 O54 1.252 . S
O63 In52 2.294 . S
O63 C56 1.240 . S
O64 In52 2.326 . S
O64 C56 1.252 . S
In65 O66 2.294 . S
In65 O67 2.326 . S
In65 O71 2.266 . S
In65 O72 2.326 . S
In65 O73 2.266 . S
In65 O74 2.326 . S
In65 O76 2.294 . S
In65 O77 2.326 . S
O66 In65 2.294 . S
O66 C75 1.240 . S
O67 In65 2.326 . S
O67 C75 1.252 . S
C68 O71 1.252 . S
C68 O72 1.260 . S
C69 O76 1.240 . S
C69 O77 1.252 . S
C70 O73 1.252 . S
C70 O74 1.260 . S
O71 In65 2.266 . S
O71 C68 1.252 . S
O72 In65 2.326 . S
O72 C68 1.260 . S
O73 In65 2.266 . S
O73 C70 1.252 . S
O74 In65 2.326 . S
O74 C70 1.260 . S
C75 O66 1.240 . S
C75 O67 1.252 . S
O76 In65 2.294 . S
O76 C69 1.240 . S
O77 In65 2.326 . S
O77 C69 1.252 . S
In78 O79 2.294 . S
In78 O80 2.326 . S
In78 O84 2.266 . S
In78 O85 2.326 . S
In78 O86 2.266 . S
In78 O87 2.326 . S
In78 O89 2.294 . S
In78 O90 2.326 . S
O79 In78 2.294 . S
O79 C88 1.240 . S
O80 In78 2.326 . S
O80 C88 1.252 . S
C81 O84 1.252 . S
C81 O85 1.260 . S
C82 O89 1.240 . S
C82 O90 1.252 . S
C83 O86 1.252 . S
C83 O87 1.260 . S
O84 In78 2.266 . S
O84 C81 1.252 . S
O85 In78 2.326 . S
O85 C81 1.260 . S
O86 In78 2.266 . S
O86 C83 1.252 . S
O87 In78 2.326 . S
O87 C83 1.260 . S
C88 O79 1.240 . S
C88 O80 1.252 . S
O89 In78 2.294 . S
O89 C82 1.240 . S
O90 In78 2.326 . S
O90 C82 1.252 . S
In91 O92 2.294 . S
In91 O93 2.326 . S
In91 O97 2.266 . S
In91 O98 2.326 . S
In91 O99 2.266 . S
In91 O100 2.326 . S
In91 O102 2.329 . S
In91 O103 2.326 . S
O92 In91 2.294 . S
O92 C101 1.240 . S
O93 In91 2.326 . S
O93 C101 1.252 . S
C94 O97 1.252 . S
C94 O98 1.260 . S
C95 O102 1.263 . S
C95 O103 1.252 . S
C96 O99 1.252 . S
C96 O100 1.260 . S
O97 In91 2.266 . S
O97 C94 1.252 . S
O98 In91 2.326 . S
O98 C94 1.260 . S
O99 In91 2.266 . S
O99 C96 1.252 . S
O100 In91 2.326 . S
O100 C96 1.260 . S
C101 O92 1.240 . S
C101 O93 1.252 . S
O102 In91 2.329 . S
O102 C95 1.263 . S
O103 In91 2.326 . S
O103 C95 1.252 . S
In104 O105 2.294 . S
In104 O106 2.326 . S
In104 O110 2.261 1_554 S
In104 O111 2.326 1_554 S
In104 O112 2.266 . S
In104 O113 2.326 . S
In104 O115 2.294 . S
In104 O116 2.326 . S
O105 In104 2.294 . S
O105 C114 1.240 . S
O106 In104 2.326 . S
O106 C114 1.252 . S
C107 O110 1.257 . S
C107 O111 1.260 . S
C108 O115 1.240 . S
C108 O116 1.252 . S
C109 O112 1.252 . S
C109 O113 1.260 . S
O110 In104 2.261 1_556 S
O110 C107 1.257 . S
O111 In104 2.326 1_556 S
O111 C107 1.260 . S
O112 In104 2.266 . S
O112 C109 1.252 . S
O113 In104 2.326 . S
O113 C109 1.260 . S
C114 O105 1.240 . S
C114 O106 1.252 . S
O115 In104 2.294 . S
O115 C108 1.240 . S
O116 In104 2.326 . S
O116 C108 1.252 . S
In117 O118 2.329 . S
In117 O119 2.326 . S
In117 O123 2.266 . S
In117 O124 2.326 . S
In117 O125 2.266 . S
In117 O126 2.326 . S
In117 O128 2.294 . S
In117 O129 2.326 . S
O118 In117 2.329 . S
O118 C127 1.263 . S
O119 In117 2.326 . S
O119 C127 1.252 . S
C120 O123 1.252 . S
C120 O124 1.260 . S
C121 O128 1.240 . S
C121 O129 1.252 . S
C122 O125 1.252 . S
C122 O126 1.260 . S
O123 In117 2.266 . S
O123 C120 1.252 . S
O124 In117 2.326 . S
O124 C120 1.260 . S
O125 In117 2.266 . S
O125 C122 1.252 . S
O126 In117 2.326 . S
O126 C122 1.260 . S
C127 O118 1.263 . S
C127 O119 1.252 . S
O128 In117 2.294 . S
O128 C121 1.240 . S
O129 In117 2.326 . S
O129 C121 1.252 . S
In130 O131 2.294 . S
In130 O132 2.326 . S
In130 O136 2.266 . S
In130 O137 2.326 . S
In130 O138 2.266 . S
In130 O139 2.326 . S
In130 O141 2.294 . S
In130 O142 2.326 . S
O131 In130 2.294 . S
O131 C140 1.240 . S
O132 In130 2.326 . S
O132 C140 1.252 . S
C133 O136 1.252 . S
C133 O137 1.260 . S
C134 O141 1.240 . S
C134 O142 1.252 . S
C135 O138 1.252 . S
C135 O139 1.260 . S
O136 In130 2.266 . S
O136 C133 1.252 . S
O137 In130 2.326 . S
O137 C133 1.260 . S
O138 In130 2.266 . S
O138 C135 1.252 . S
O139 In130 2.326 . S
O139 C135 1.260 . S
C140 O131 1.240 . S
C140 O132 1.252 . S
O141 In130 2.294 . S
O141 C134 1.240 . S
O142 In130 2.326 . S
O142 C134 1.252 . S
In143 O144 2.294 . S
In143 O145 2.326 . S
In143 O149 2.266 . S
In143 O150 2.326 . S
In143 O151 2.266 . S
In143 O152 2.326 . S
In143 O154 2.294 . S
In143 O155 2.326 . S
O144 In143 2.294 . S
O144 C153 1.240 . S
O145 In143 2.326 . S
O145 C153 1.252 . S
C146 O149 1.252 . S
C146 O150 1.260 . S
C147 O154 1.240 . S
C147 O155 1.252 . S
C148 O151 1.252 . S
C148 O152 1.260 . S
O149 In143 2.266 . S
O149 C146 1.252 . S
O150 In143 2.326 . S
O150 C146 1.260 . S
O151 In143 2.266 . S
O151 C148 1.252 . S
O152 In143 2.326 . S
O152 C148 1.260 . S
C153 O144 1.240 . S
C153 O145 1.252 . S
O154 In143 2.294 . S
O154 C147 1.240 . S
O155 In143 2.326 . S
O155 C147 1.252 . S
In156 O157 2.294 . S
In156 O158 2.326 . S
In156 O162 2.266 . S
In156 O163 2.326 . S
In156 O164 2.266 . S
In156 O165 2.326 . S
In156 O167 2.294 1_554 S
In156 O168 2.326 1_554 S
O157 In156 2.294 . S
O157 C166 1.240 . S
O158 In156 2.326 . S
O158 C166 1.252 . S
C159 O162 1.252 . S
C159 O163 1.260 . S
C160 O167 1.240 . S
C160 O168 1.252 . S
C161 O164 1.252 . S
C161 O165 1.260 . S
O162 In156 2.266 . S
O162 C159 1.252 . S
O163 In156 2.326 . S
O163 C159 1.260 . S
O164 In156 2.266 . S
O164 C161 1.252 . S
O165 In156 2.326 . S
O165 C161 1.260 . S
C166 O157 1.240 . S
C166 O158 1.252 . S
O167 In156 2.294 1_556 S
O167 C160 1.240 . S
O168 In156 2.326 1_556 S
O168 C160 1.252 . S
In169 O170 2.294 . S
In169 O171 2.326 . S
In169 O175 2.266 . S
In169 O176 2.326 . S
In169 O177 2.266 . S
In169 O178 2.326 . S
In169 O180 2.329 . S
In169 O181 2.326 . S
O170 In169 2.294 . S
O170 C179 1.240 . S
O171 In169 2.326 . S
O171 C179 1.252 . S
C172 O175 1.252 . S
C172 O176 1.260 . S
C173 O180 1.263 . S
C173 O181 1.252 . S
C174 O177 1.252 . S
C174 O178 1.260 . S
O175 In169 2.266 . S
O175 C172 1.252 . S
O176 In169 2.326 . S
O176 C172 1.260 . S
O177 In169 2.266 . S
O177 C174 1.252 . S
O178 In169 2.326 . S
O178 C174 1.260 . S
C179 O170 1.240 . S
C179 O171 1.252 . S
O180 In169 2.329 . S
O180 C173 1.263 . S
O181 In169 2.326 . S
O181 C173 1.252 . S
In182 O183 2.294 . S
In182 O184 2.326 . S
In182 O188 2.266 . S
In182 O189 2.326 . S
In182 O190 2.266 . S
In182 O191 2.326 . S
In182 O193 2.294 . S
In182 O194 2.326 . S
O183 In182 2.294 . S
O183 C192 1.240 . S
O184 In182 2.326 . S
O184 C192 1.252 . S
C185 O188 1.252 . S
C185 O189 1.260 . S
C186 O193 1.240 . S
C186 O194 1.252 . S
C187 O190 1.252 . S
C187 O191 1.260 . S
O188 In182 2.266 . S
O188 C185 1.252 . S
O189 In182 2.326 . S
O189 C185 1.260 . S
O190 In182 2.266 . S
O190 C187 1.252 . S
O191 In182 2.326 . S
O191 C187 1.260 . S
C192 O183 1.240 . S
C192 O184 1.252 . S
O193 In182 2.294 . S
O193 C186 1.240 . S
O194 In182 2.326 . S
O194 C186 1.252 . S
In195 O196 2.294 . S
In195 O197 2.326 . S
In195 O201 2.266 . S
In195 O202 2.326 . S
In195 O203 2.266 . S
In195 O204 2.326 . S
In195 O206 2.294 . S
In195 O207 2.326 . S
O196 In195 2.294 . S
O196 C205 1.240 . S
O197 In195 2.326 . S
O197 C205 1.252 . S
C198 O201 1.252 . S
C198 O202 1.260 . S
C199 O206 1.240 . S
C199 O207 1.252 . S
C200 O203 1.252 . S
C200 O204 1.260 . S
O201 In195 2.266 . S
O201 C198 1.252 . S
O202 In195 2.326 . S
O202 C198 1.260 . S
O203 In195 2.266 . S
O203 C200 1.252 . S
O204 In195 2.326 . S
O204 C200 1.260 . S
C205 O196 1.240 . S
C205 O197 1.252 . S
O206 In195 2.294 . S
O206 C199 1.240 . S
O207 In195 2.326 . S
O207 C199 1.252 . S
In208 O209 2.294 . S
In208 O210 2.326 . S
In208 O214 2.266 . S
In208 O215 2.326 . S
In208 O216 2.266 . S
In208 O217 2.326 . S
In208 O219 2.294 . S
In208 O220 2.326 . S
O209 In208 2.294 . S
O209 C218 1.240 . S
O210 In208 2.326 . S
O210 C218 1.252 . S
C211 O214 1.252 . S
C211 O215 1.260 . S
C212 O219 1.240 . S
C212 O220 1.252 . S
C213 O216 1.252 . S
C213 O217 1.260 . S
O214 In208 2.266 . S
O214 C211 1.252 . S
O215 In208 2.326 . S
O215 C211 1.260 . S
O216 In208 2.266 . S
O216 C213 1.252 . S
O217 In208 2.326 . S
O217 C213 1.260 . S
C218 O209 1.240 . S
C218 O210 1.252 . S
O219 In208 2.294 . S
O219 C212 1.240 . S
O220 In208 2.326 . S
O220 C212 1.252 . S
In221 O222 2.294 . S
In221 O223 2.326 . S
In221 O227 2.266 . S
In221 O228 2.326 . S
In221 O229 2.266 . S
In221 O230 2.326 . S
In221 O232 2.294 . S
In221 O233 2.326 . S
O222 In221 2.294 . S
O222 C231 1.240 . S
O223 In221 2.326 . S
O223 C231 1.252 . S
C224 O227 1.252 . S
C224 O228 1.260 . S
C225 O232 1.240 . S
C225 O233 1.252 . S
C226 O229 1.252 . S
C226 O230 1.260 . S
O227 In221 2.266 . S
O227 C224 1.252 . S
O228 In221 2.326 . S
O228 C224 1.260 . S
O229 In221 2.266 . S
O229 C226 1.252 . S
O230 In221 2.326 . S
O230 C226 1.260 . S
C231 O222 1.240 . S
C231 O223 1.252 . S
O232 In221 2.294 . S
O232 C225 1.240 . S
O233 In221 2.326 . S
O233 C225 1.252 . S
In234 O235 2.294 1_554 S
In234 O236 2.326 1_554 S
In234 O240 2.266 . S
In234 O241 2.326 . S
In234 O242 2.266 . S
In234 O243 2.326 . S
In234 O245 2.294 . S
In234 O246 2.326 . S
O235 In234 2.294 1_556 S
O235 C244 1.240 . S
O236 In234 2.326 1_556 S
O236 C244 1.252 . S
C237 O240 1.252 . S
C237 O241 1.260 . S
C238 O245 1.240 . S
C238 O246 1.252 . S
C239 O242 1.252 . S
C239 O243 1.260 . S
O240 In234 2.266 . S
O240 C237 1.252 . S
O241 In234 2.326 . S
O241 C237 1.260 . S
O242 In234 2.266 . S
O242 C239 1.252 . S
O243 In234 2.326 . S
O243 C239 1.260 . S
C244 O235 1.240 . S
C244 O236 1.252 . S
O245 In234 2.294 . S
O245 C238 1.240 . S
O246 In234 2.326 . S
O246 C238 1.252 . S
In247 O248 2.294 . S
In247 O249 2.326 . S
In247 O253 2.266 . S
In247 O254 2.326 . S
In247 O255 2.266 . S
In247 O256 2.326 . S
In247 O258 2.294 . S
In247 O259 2.326 . S
O248 In247 2.294 . S
O248 C257 1.240 . S
O249 In247 2.326 . S
O249 C257 1.252 . S
C250 O253 1.252 . S
C250 O254 1.260 . S
C251 O258 1.240 . S
C251 O259 1.252 . S
C252 O255 1.252 . S
C252 O256 1.260 . S
O253 In247 2.266 . S
O253 C250 1.252 . S
O254 In247 2.326 . S
O254 C250 1.260 . S
O255 In247 2.266 . S
O255 C252 1.252 . S
O256 In247 2.326 . S
O256 C252 1.260 . S
C257 O248 1.240 . S
C257 O249 1.252 . S
O258 In247 2.294 . S
O258 C251 1.240 . S
O259 In247 2.326 . S
O259 C251 1.252 . S
In260 O261 2.294 . S
In260 O262 2.326 . S
In260 O266 2.266 . S
In260 O267 2.326 . S
In260 O268 2.266 . S
In260 O269 2.326 . S
In260 O271 2.294 . S
In260 O272 2.326 . S
O261 In260 2.294 . S
O261 C270 1.240 . S
O262 In260 2.326 . S
O262 C270 1.252 . S
C263 O266 1.252 . S
C263 O267 1.260 . S
C264 O271 1.240 . S
C264 O272 1.252 . S
C265 O268 1.252 . S
C265 O269 1.260 . S
O266 In260 2.266 . S
O266 C263 1.252 . S
O267 In260 2.326 . S
O267 C263 1.260 . S
O268 In260 2.266 . S
O268 C265 1.252 . S
O269 In260 2.326 . S
O269 C265 1.260 . S
C270 O261 1.240 . S
C270 O262 1.252 . S
O271 In260 2.294 . S
O271 C264 1.240 . S
O272 In260 2.326 . S
O272 C264 1.252 . S
In273 O274 2.294 . S
In273 O275 2.326 . S
In273 O279 2.266 . S
In273 O280 2.326 . S
In273 O281 2.266 . S
In273 O282 2.326 . S
In273 O284 2.294 . S
In273 O285 2.326 . S
O274 In273 2.294 . S
O274 C283 1.240 . S
O275 In273 2.326 . S
O275 C283 1.252 . S
C276 O279 1.252 . S
C276 O280 1.260 . S
C277 O284 1.240 . S
C277 O285 1.252 . S
C278 O281 1.252 . S
C278 O282 1.260 . S
O279 In273 2.266 . S
O279 C276 1.252 . S
O280 In273 2.326 . S
O280 C276 1.260 . S
O281 In273 2.266 . S
O281 C278 1.252 . S
O282 In273 2.326 . S
O282 C278 1.260 . S
C283 O274 1.240 . S
C283 O275 1.252 . S
O284 In273 2.294 . S
O284 C277 1.240 . S
O285 In273 2.326 . S
O285 C277 1.252 . S
In286 O287 2.294 . S
In286 O288 2.326 . S
In286 O292 2.266 . S
In286 O293 2.326 . S
In286 O294 2.261 1_554 S
In286 O295 2.326 1_554 S
In286 O297 2.294 . S
In286 O298 2.326 . S
O287 In286 2.294 . S
O287 C296 1.240 . S
O288 In286 2.326 . S
O288 C296 1.252 . S
C289 O292 1.252 . S
C289 O293 1.260 . S
C290 O297 1.240 . S
C290 O298 1.252 . S
C291 O294 1.257 . S
C291 O295 1.260 . S
O292 In286 2.266 . S
O292 C289 1.252 . S
O293 In286 2.326 . S
O293 C289 1.260 . S
O294 In286 2.261 1_556 S
O294 C291 1.257 . S
O295 In286 2.326 1_556 S
O295 C291 1.260 . S
C296 O287 1.240 . S
C296 O288 1.252 . S
O297 In286 2.294 . S
O297 C290 1.240 . S
O298 In286 2.326 . S
O298 C290 1.252 . S
In299 O300 2.294 . S
In299 O301 2.326 . S
In299 O305 2.266 . S
In299 O306 2.326 . S
In299 O307 2.266 . S
In299 O308 2.326 . S
In299 O310 2.294 . S
In299 O311 2.326 . S
O300 In299 2.294 . S
O300 C309 1.240 . S
O301 In299 2.326 . S
O301 C309 1.252 . S
C302 O305 1.252 . S
C302 O306 1.260 . S
C303 O310 1.240 . S
C303 O311 1.252 . S
C304 O307 1.252 . S
C304 O308 1.260 . S
O305 In299 2.266 . S
O305 C302 1.252 . S
O306 In299 2.326 . S
O306 C302 1.260 . S
O307 In299 2.266 . S
O307 C304 1.252 . S
O308 In299 2.326 . S
O308 C304 1.260 . S
C309 O300 1.240 . S
C309 O301 1.252 . S
O310 In299 2.294 . S
O310 C303 1.240 . S
O311 In299 2.326 . S
O311 C303 1.252 . S
In312 O313 2.294 . S
In312 O314 2.326 . S
In312 O318 2.266 . S
In312 O319 2.326 . S
In312 O320 2.266 . S
In312 O321 2.326 . S
In312 O323 2.294 . S
In312 O324 2.326 . S
O313 In312 2.294 . S
O313 C322 1.240 . S
O314 In312 2.326 . S
O314 C322 1.252 . S
C315 O318 1.252 . S
C315 O319 1.260 . S
C316 O323 1.240 . S
C316 O324 1.252 . S
C317 O320 1.252 . S
C317 O321 1.260 . S
O318 In312 2.266 . S
O318 C315 1.252 . S
O319 In312 2.326 . S
O319 C315 1.260 . S
O320 In312 2.266 . S
O320 C317 1.252 . S
O321 In312 2.326 . S
O321 C317 1.260 . S
C322 O313 1.240 . S
C322 O314 1.252 . S
O323 In312 2.294 . S
O323 C316 1.240 . S
O324 In312 2.326 . S
O324 C316 1.252 . S
In325 O326 2.294 . S
In325 O327 2.326 . S
In325 O331 2.266 . S
In325 O332 2.326 . S
In325 O333 2.266 . S
In325 O334 2.326 . S
In325 O336 2.294 . S
In325 O337 2.326 . S
O326 In325 2.294 . S
O326 C335 1.240 . S
O327 In325 2.326 . S
O327 C335 1.252 . S
C328 O331 1.252 . S
C328 O332 1.260 . S
C329 O336 1.240 . S
C329 O337 1.252 . S
C330 O333 1.252 . S
C330 O334 1.260 . S
O331 In325 2.266 . S
O331 C328 1.252 . S
O332 In325 2.326 . S
O332 C328 1.260 . S
O333 In325 2.266 . S
O333 C330 1.252 . S
O334 In325 2.326 . S
O334 C330 1.260 . S
C335 O326 1.240 . S
C335 O327 1.252 . S
O336 In325 2.294 . S
O336 C329 1.240 . S
O337 In325 2.326 . S
O337 C329 1.252 . S
In338 O339 2.294 . S
In338 O340 2.326 . S
In338 O344 2.266 . S
In338 O345 2.326 . S
In338 O346 2.261 1_554 S
In338 O347 2.326 1_554 S
In338 O349 2.294 . S
In338 O350 2.326 . S
O339 In338 2.294 . S
O339 C348 1.240 . S
O340 In338 2.326 . S
O340 C348 1.252 . S
C341 O344 1.252 . S
C341 O345 1.260 . S
C342 O349 1.240 . S
C342 O350 1.252 . S
C343 O346 1.257 . S
C343 O347 1.260 . S
O344 In338 2.266 . S
O344 C341 1.252 . S
O345 In338 2.326 . S
O345 C341 1.260 . S
O346 In338 2.261 1_556 S
O346 C343 1.257 . S
O347 In338 2.326 1_556 S
O347 C343 1.260 . S
C348 O339 1.240 . S
C348 O340 1.252 . S
O349 In338 2.294 . S
O349 C342 1.240 . S
O350 In338 2.326 . S
O350 C342 1.252 . S
In351 O352 2.294 . S
In351 O353 2.326 . S
In351 O357 2.266 . S
In351 O358 2.326 . S
In351 O359 2.266 . S
In351 O360 2.326 . S
In351 O362 2.294 . S
In351 O363 2.326 . S
O352 In351 2.294 . S
O352 C361 1.240 . S
O353 In351 2.326 . S
O353 C361 1.252 . S
C354 O357 1.252 . S
C354 O358 1.260 . S
C355 O362 1.240 . S
C355 O363 1.252 . S
C356 O359 1.252 . S
C356 O360 1.260 . S
O357 In351 2.266 . S
O357 C354 1.252 . S
O358 In351 2.326 . S
O358 C354 1.260 . S
O359 In351 2.266 . S
O359 C356 1.252 . S
O360 In351 2.326 . S
O360 C356 1.260 . S
C361 O352 1.240 . S
C361 O353 1.252 . S
O362 In351 2.294 . S
O362 C355 1.240 . S
O363 In351 2.326 . S
O363 C355 1.252 . S
In364 O365 2.294 . S
In364 O366 2.326 . S
In364 O370 2.266 . S
In364 O371 2.326 . S
In364 O372 2.266 . S
In364 O373 2.326 . S
In364 O375 2.294 . S
In364 O376 2.326 . S
O365 In364 2.294 . S
O365 C374 1.240 . S
O366 In364 2.326 . S
O366 C374 1.252 . S
C367 O370 1.252 . S
C367 O371 1.260 . S
C368 O375 1.240 . S
C368 O376 1.252 . S
C369 O372 1.252 . S
C369 O373 1.260 . S
O370 In364 2.266 . S
O370 C367 1.252 . S
O371 In364 2.326 . S
O371 C367 1.260 . S
O372 In364 2.266 . S
O372 C369 1.252 . S
O373 In364 2.326 . S
O373 C369 1.260 . S
C374 O365 1.240 . S
C374 O366 1.252 . S
O375 In364 2.294 . S
O375 C368 1.240 . S
O376 In364 2.326 . S
O376 C368 1.252 . S
In377 O378 2.294 . S
In377 O379 2.326 . S
In377 O383 2.266 . S
In377 O384 2.326 . S
In377 O385 2.266 . S
In377 O386 2.326 . S
In377 O388 2.294 . S
In377 O389 2.326 . S
O378 In377 2.294 . S
O378 C387 1.240 . S
O379 In377 2.326 . S
O379 C387 1.252 . S
C380 O383 1.252 . S
C380 O384 1.260 . S
C381 O388 1.240 . S
C381 O389 1.252 . S
C382 O385 1.252 . S
C382 O386 1.260 . S
O383 In377 2.266 . S
O383 C380 1.252 . S
O384 In377 2.326 . S
O384 C380 1.260 . S
O385 In377 2.266 . S
O385 C382 1.252 . S
O386 In377 2.326 . S
O386 C382 1.260 . S
C387 O378 1.240 . S
C387 O379 1.252 . S
O388 In377 2.294 . S
O388 C381 1.240 . S
O389 In377 2.326 . S
O389 C381 1.252 . S
In390 O391 2.294 . S
In390 O392 2.326 . S
In390 O396 2.266 . S
In390 O397 2.326 . S
In390 O398 2.266 . S
In390 O399 2.326 . S
In390 O401 2.294 1_554 S
In390 O402 2.326 1_554 S
O391 In390 2.294 . S
O391 C400 1.240 . S
O392 In390 2.326 . S
O392 C400 1.252 . S
C393 O396 1.252 . S
C393 O397 1.260 . S
C394 O401 1.240 . S
C394 O402 1.252 . S
C395 O398 1.252 . S
C395 O399 1.260 . S
O396 In390 2.266 . S
O396 C393 1.252 . S
O397 In390 2.326 . S
O397 C393 1.260 . S
O398 In390 2.266 . S
O398 C395 1.252 . S
O399 In390 2.326 . S
O399 C395 1.260 . S
C400 O391 1.240 . S
C400 O392 1.252 . S
O401 In390 2.294 1_556 S
O401 C394 1.240 . S
O402 In390 2.326 1_556 S
O402 C394 1.252 . S
In403 O404 2.294 . S
In403 O405 2.326 . S
In403 O409 2.266 . S
In403 O410 2.326 . S
In403 O411 2.266 . S
In403 O412 2.326 . S
In403 O414 2.294 . S
In403 O415 2.326 . S
O404 In403 2.294 . S
O404 C413 1.240 . S
O405 In403 2.326 . S
O405 C413 1.252 . S
C406 O409 1.252 . S
C406 O410 1.260 . S
C407 O414 1.240 . S
C407 O415 1.252 . S
C408 O411 1.252 . S
C408 O412 1.260 . S
O409 In403 2.266 . S
O409 C406 1.252 . S
O410 In403 2.326 . S
O410 C406 1.260 . S
O411 In403 2.266 . S
O411 C408 1.252 . S
O412 In403 2.326 . S
O412 C408 1.260 . S
C413 O404 1.240 . S
C413 O405 1.252 . S
O414 In403 2.294 . S
O414 C407 1.240 . S
O415 In403 2.326 . S
O415 C407 1.252 . S
C416 C417 1.387 . S
C416 H420 0.950 . S
C416 C425 1.390 . S
C417 C416 1.387 . S
C417 C419 1.387 . S
H418 C425 0.950 1_554 S
C419 C417 1.387 . S
C419 C421 1.390 . S
C419 H423 0.950 . S
H420 C416 0.950 . S
C421 C419 1.390 . S
C421 C422 1.387 . S
C421 H424 0.950 . S
C422 C421 1.387 . S
C422 C425 1.387 . S
H423 C419 0.950 . S
H424 C421 0.950 . S
C425 C416 1.390 . S
C425 H418 0.950 1_556 S
C425 C422 1.387 . S
C426 C427 1.387 . S
C426 H430 0.950 . S
C426 C435 1.390 . S
C427 C426 1.387 . S
C427 C429 1.387 . S
H428 C435 0.950 . S
C429 C427 1.387 . S
C429 C431 1.390 . S
C429 H433 0.950 . S
H430 C426 0.950 . S
C431 C429 1.390 . S
C431 C432 1.387 . S
C431 H434 0.950 . S
C432 C431 1.387 . S
C432 C435 1.387 . S
H433 C429 0.950 . S
H434 C431 0.950 . S
C435 C426 1.390 . S
C435 H428 0.950 . S
C435 C432 1.387 . S
C436 C437 1.387 . S
C436 H440 0.950 . S
C436 C445 1.390 . S
C437 C436 1.387 . S
C437 C439 1.387 . S
H438 C445 0.950 . S
C439 C437 1.387 . S
C439 C441 1.390 . S
C439 H443 0.950 . S
H440 C436 0.950 . S
C441 C439 1.390 . S
C441 C442 1.387 . S
C441 H444 0.950 . S
C442 C441 1.387 . S
C442 C445 1.387 . S
H443 C439 0.950 . S
H444 C441 0.950 . S
C445 C436 1.390 . S
C445 H438 0.950 . S
C445 C442 1.387 . S
C446 C447 1.387 . S
C446 H450 0.950 . S
C446 C455 1.390 . S
C447 C446 1.387 . S
C447 C449 1.387 . S
H448 C455 0.950 . S
C449 C447 1.387 . S
C449 C451 1.390 . S
C449 H453 0.950 . S
H450 C446 0.950 . S
C451 C449 1.390 . S
C451 C452 1.387 . S
C451 H454 0.950 . S
C452 C451 1.387 . S
C452 C455 1.387 . S
H453 C449 0.950 . S
H454 C451 0.950 . S
C455 C446 1.390 . S
C455 H448 0.950 . S
C455 C452 1.387 . S
C456 C457 1.387 . S
C456 H460 0.950 . S
C456 C465 1.390 . S
C457 C456 1.387 . S
C457 C459 1.387 . S
H458 C465 0.950 . S
C459 C457 1.387 . S
C459 C461 1.390 . S
C459 H463 0.950 . S
H460 C456 0.950 . S
C461 C459 1.390 . S
C461 C462 1.387 . S
C461 H464 0.950 . S
C462 C461 1.387 . S
C462 C465 1.387 . S
H463 C459 0.950 . S
H464 C461 0.950 . S
C465 C456 1.390 . S
C465 H458 0.950 . S
C465 C462 1.387 . S
C466 C467 1.387 . S
C466 H470 0.950 . S
C466 C475 1.390 . S
C467 C466 1.387 . S
C467 C469 1.387 . S
H468 C475 0.950 . S
C469 C467 1.387 . S
C469 C471 1.390 1_556 S
C469 H473 0.950 . S
H470 C466 0.950 . S
C471 C469 1.390 1_554 S
C471 C472 1.387 1_554 S
C471 H474 0.950 . S
C472 C471 1.387 1_556 S
C472 C475 1.387 . S
H473 C469 0.950 . S
H474 C471 0.950 . S
C475 C466 1.390 . S
C475 H468 0.950 . S
C475 C472 1.387 . S
C476 C477 1.387 . S
C476 H480 0.950 . S
C476 C485 1.390 . S
C477 C476 1.387 . S
C477 C479 1.387 . S
H478 C485 0.950 . S
C479 C477 1.387 . S
C479 C481 1.390 . S
C479 H483 0.950 . S
H480 C476 0.950 . S
C481 C479 1.390 . S
C481 C482 1.387 . S
C481 H484 0.950 . S
C482 C481 1.387 . S
C482 C485 1.387 . S
H483 C479 0.950 . S
H484 C481 0.950 . S
C485 C476 1.390 . S
C485 H478 0.950 . S
C485 C482 1.387 . S
C486 C487 1.387 . S
C486 H490 0.950 . S
C486 C495 1.390 . S
C487 C486 1.387 . S
C487 C489 1.387 . S
H488 C495 0.950 . S
C489 C487 1.387 . S
C489 C491 1.390 . S
C489 H493 0.950 . S
H490 C486 0.950 . S
C491 C489 1.390 . S
C491 C492 1.387 . S
C491 H494 0.950 . S
C492 C491 1.387 . S
C492 C495 1.387 . S
H493 C489 0.950 . S
H494 C491 0.950 . S
C495 C486 1.390 . S
C495 H488 0.950 . S
C495 C492 1.387 . S
C496 C497 1.387 . S
C496 H500 0.950 . S
C496 C505 1.390 . S
C497 C496 1.387 . S
C497 C499 1.387 . S
H498 C505 0.950 . S
C499 C497 1.387 . S
C499 C501 1.390 . S
C499 H503 0.950 . S
H500 C496 0.950 . S
C501 C499 1.390 . S
C501 C502 1.387 . S
C501 H504 0.950 . S
C502 C501 1.387 . S
C502 C505 1.387 . S
H503 C499 0.950 . S
H504 C501 0.950 . S
C505 C496 1.390 . S
C505 H498 0.950 . S
C505 C502 1.387 . S
C506 C507 1.387 . S
C506 H510 0.950 . S
C506 C515 1.390 . S
C507 C506 1.387 . S
C507 C509 1.387 . S
H508 C515 0.950 . S
C509 C507 1.387 . S
C509 C511 1.390 . S
C509 H513 0.950 . S
H510 C506 0.950 . S
C511 C509 1.390 . S
C511 C512 1.387 . S
C511 H514 0.950 . S
C512 C511 1.387 . S
C512 C515 1.387 . S
H513 C509 0.950 . S
H514 C511 0.950 . S
C515 C506 1.390 . S
C515 H508 0.950 . S
C515 C512 1.387 . S
C516 C517 1.387 . S
C516 H520 0.950 . S
C516 C525 1.390 . S
C517 C516 1.387 . S
C517 C519 1.387 . S
H518 C525 0.950 . S
C519 C517 1.387 . S
C519 C521 1.390 . S
C519 H523 0.950 . S
H520 C516 0.950 . S
C521 C519 1.390 . S
C521 C522 1.387 . S
C521 H524 0.950 1_556 S
C522 C521 1.387 . S
C522 C525 1.387 . S
H523 C519 0.950 . S
H524 C521 0.950 1_554 S
C525 C516 1.390 . S
C525 H518 0.950 . S
C525 C522 1.387 . S
C526 C527 1.387 . S
C526 H530 0.950 . S
C526 C535 1.390 . S
C527 C526 1.387 . S
C527 C529 1.387 . S
H528 C535 0.950 . S
C529 C527 1.387 . S
C529 C531 1.390 . S
C529 H533 0.950 . S
H530 C526 0.950 . S
C531 C529 1.390 . S
C531 C532 1.387 . S
C531 H534 0.950 . S
C532 C531 1.387 . S
C532 C535 1.387 . S
H533 C529 0.950 . S
H534 C531 0.950 . S
C535 C526 1.390 . S
C535 H528 0.950 . S
C535 C532 1.387 . S
C536 C537 1.387 . S
C536 H540 0.950 . S
C536 C545 1.390 . S
C537 C536 1.387 . S
C537 C539 1.387 . S
H538 C545 0.950 . S
C539 C537 1.387 . S
C539 C541 1.390 . S
C539 H543 0.950 . S
H540 C536 0.950 . S
C541 C539 1.390 . S
C541 C542 1.387 . S
C541 H544 0.950 . S
C542 C541 1.387 . S
C542 C545 1.387 . S
H543 C539 0.950 . S
H544 C541 0.950 . S
C545 C536 1.390 . S
C545 H538 0.950 . S
C545 C542 1.387 . S
C546 C547 1.387 . S
C546 H550 0.950 . S
C546 C555 1.390 . S
C547 C546 1.387 . S
C547 C549 1.387 . S
H548 C555 0.950 . S
C549 C547 1.387 . S
C549 C551 1.390 . S
C549 H553 0.950 . S
H550 C546 0.950 . S
C551 C549 1.390 . S
C551 C552 1.387 . S
C551 H554 0.950 . S
C552 C551 1.387 . S
C552 C555 1.387 . S
H553 C549 0.950 . S
H554 C551 0.950 . S
C555 C546 1.390 . S
C555 H548 0.950 . S
C555 C552 1.387 . S
C556 C557 1.387 . S
C556 H560 0.950 . S
C556 C565 1.390 . S
C557 C556 1.387 . S
C557 C559 1.387 . S
H558 C565 0.950 . S
C559 C557 1.387 . S
C559 C561 1.390 . S
C559 H563 0.950 . S
H560 C556 0.950 . S
C561 C559 1.390 . S
C561 C562 1.387 . S
C561 H564 0.950 . S
C562 C561 1.387 . S
C562 C565 1.387 . S
H563 C559 0.950 . S
H564 C561 0.950 . S
C565 C556 1.390 . S
C565 H558 0.950 . S
C565 C562 1.387 . S
C566 C567 1.387 . S
C566 H570 0.950 . S
C566 C575 1.390 . S
C567 C566 1.387 . S
C567 C569 1.387 . S
H568 C575 0.950 . S
C569 C567 1.387 . S
C569 C571 1.390 1_556 S
C569 H573 0.950 . S
H570 C566 0.950 . S
C571 C569 1.390 1_554 S
C571 C572 1.387 1_554 S
C571 H574 0.950 . S
C572 C571 1.387 1_556 S
C572 C575 1.387 . S
H573 C569 0.950 . S
H574 C571 0.950 . S
C575 C566 1.390 . S
C575 H568 0.950 . S
C575 C572 1.387 . S
C576 C577 1.387 . S
C576 H580 0.950 . S
C576 C585 1.390 . S
C577 C576 1.387 . S
C577 C579 1.387 . S
H578 C585 0.950 . S
C579 C577 1.387 . S
C579 C581 1.390 . S
C579 H583 0.950 . S
H580 C576 0.950 . S
C581 C579 1.390 . S
C581 C582 1.387 . S
C581 H584 0.950 . S
C582 C581 1.387 . S
C582 C585 1.387 . S
H583 C579 0.950 . S
H584 C581 0.950 . S
C585 C576 1.390 . S
C585 H578 0.950 . S
C585 C582 1.387 . S
C586 C587 1.387 . S
C586 H590 0.950 . S
C586 C595 1.390 1_565 S
C587 C586 1.387 . S
C587 C589 1.387 . S
H588 C595 0.950 . S
C589 C587 1.387 . S
C589 C591 1.390 1_565 S
C589 H593 0.950 . S
H590 C586 0.950 . S
C591 C589 1.390 1_545 S
C591 C592 1.380 1_554 S
C591 H594 0.950 . S
C592 C591 1.380 1_556 S
C592 C595 1.380 1_556 S
H593 C589 0.950 . S
H594 C591 0.950 . S
C595 C586 1.390 1_545 S
C595 H588 0.950 . S
C595 C592 1.380 1_554 S
C596 C597 1.387 . S
C596 H600 0.950 . S
C596 C605 1.390 . S
C597 C596 1.387 . S
C597 C599 1.387 . S
H598 C605 0.950 . S
C599 C597 1.387 . S
C599 C601 1.390 . S
C599 H603 0.950 . S
H600 C596 0.950 . S
C601 C599 1.390 . S
C601 C602 1.387 . S
C601 H604 0.950 . S
C602 C601 1.387 . S
C602 C605 1.387 . S
H603 C599 0.950 . S
H604 C601 0.950 . S
C605 C596 1.390 . S
C605 H598 0.950 . S
C605 C602 1.387 . S
C606 C607 1.387 . S
C606 H610 0.950 . S
C606 C615 1.390 1_545 S
C607 C606 1.387 . S
C607 C609 1.387 . S
H608 C615 0.950 . S
C609 C607 1.387 . S
C609 C611 1.390 1_545 S
C609 H613 0.950 . S
H610 C606 0.950 . S
C611 C609 1.390 1_565 S
C611 C612 1.387 . S
C611 H614 0.950 . S
C612 C611 1.387 . S
C612 C615 1.387 . S
H613 C609 0.950 . S
H614 C611 0.950 . S
C615 C606 1.390 1_565 S
C615 H608 0.950 . S
C615 C612 1.387 . S
C616 C617 1.387 . S
C616 H620 0.950 . S
C616 C625 1.390 . S
C617 C616 1.387 . S
C617 C619 1.387 . S
H618 C625 0.950 . S
C619 C617 1.387 . S
C619 C621 1.390 . S
C619 H623 0.950 . S
H620 C616 0.950 . S
C621 C619 1.390 . S
C621 C622 1.387 . S
C621 H624 0.950 . S
C622 C621 1.387 . S
C622 C625 1.387 . S
H623 C619 0.950 . S
H624 C621 0.950 . S
C625 C616 1.390 . S
C625 H618 0.950 . S
C625 C622 1.387 . S
C626 C627 1.387 1_554 S
C626 H630 0.950 . S
C626 C635 1.390 1_545 S
C627 C626 1.387 1_556 S
C627 C629 1.387 1_556 S
H628 C635 0.950 . S
C629 C627 1.387 1_554 S
C629 C631 1.390 1_545 S
C629 H633 0.950 . S
H630 C626 0.950 . S
C631 C629 1.390 1_565 S
C631 C632 1.387 . S
C631 H634 0.950 . S
C632 C631 1.387 . S
C632 C635 1.387 . S
H633 C629 0.950 . S
H634 C631 0.950 . S
C635 C626 1.390 1_565 S
C635 H628 0.950 . S
C635 C632 1.387 . S
C636 C637 1.387 . S
C636 H640 0.950 . S
C636 C645 1.390 . S
C637 C636 1.387 . S
C637 C639 1.387 . S
H638 C645 0.950 . S
C639 C637 1.387 . S
C639 C641 1.390 . S
C639 H643 0.950 . S
H640 C636 0.950 . S
C641 C639 1.390 . S
C641 C642 1.387 . S
C641 H644 0.950 . S
C642 C641 1.387 . S
C642 C645 1.387 . S
H643 C639 0.950 . S
H644 C641 0.950 . S
C645 C636 1.390 . S
C645 H638 0.950 . S
C645 C642 1.387 . S
C646 C647 1.387 . S
C646 H650 0.950 . S
C646 C655 1.390 1_545 S
C647 C646 1.387 . S
C647 C649 1.387 . S
H648 C655 0.950 . S
C649 C647 1.387 . S
C649 C651 1.390 1_545 S
C649 H653 0.950 . S
H650 C646 0.950 . S
C651 C649 1.390 1_565 S
C651 C652 1.387 . S
C651 H654 0.950 . S
C652 C651 1.387 . S
C652 C655 1.387 . S
H653 C649 0.950 . S
H654 C651 0.950 . S
C655 C646 1.390 1_565 S
C655 H648 0.950 . S
C655 C652 1.387 . S
C656 C657 1.387 . S
C656 H660 0.950 . S
C656 C665 1.390 . S
C657 C656 1.387 . S
C657 C659 1.387 . S
H658 C665 0.950 . S
C659 C657 1.387 . S
C659 C661 1.390 . S
C659 H663 0.950 . S
H660 C656 0.950 . S
C661 C659 1.390 . S
C661 C662 1.387 . S
C661 H664 0.950 . S
C662 C661 1.387 . S
C662 C665 1.387 . S
H663 C659 0.950 . S
H664 C661 0.950 . S
C665 C656 1.390 . S
C665 H658 0.950 . S
C665 C662 1.387 . S
C666 C667 1.387 . S
C666 H670 0.950 . S
C666 C675 1.390 . S
C667 C666 1.387 . S
C667 C669 1.387 . S
H668 C675 0.950 . S
C669 C667 1.387 . S
C669 C671 1.390 . S
C669 H673 0.950 . S
H670 C666 0.950 . S
C671 C669 1.390 . S
C671 C672 1.387 . S
C671 H674 0.950 . S
C672 C671 1.387 . S
C672 C675 1.387 . S
H673 C669 0.950 . S
H674 C671 0.950 . S
C675 C666 1.390 . S
C675 H668 0.950 . S
C675 C672 1.387 . S
C676 C677 1.387 . S
C676 H680 0.950 . S
C676 C685 1.390 . S
C677 C676 1.387 . S
C677 C679 1.387 . S
H678 C685 0.950 . S
C679 C677 1.387 . S
C679 C681 1.390 . S
C679 H683 0.950 . S
H680 C676 0.950 . S
C681 C679 1.390 . S
C681 C682 1.387 . S
C681 H684 0.950 . S
C682 C681 1.387 . S
C682 C685 1.387 . S
H683 C679 0.950 . S
H684 C681 0.950 . S
C685 C676 1.390 . S
C685 H678 0.950 . S
C685 C682 1.387 . S
C686 C687 1.387 . S
C686 H690 0.950 . S
C686 C695 1.390 . S
C687 C686 1.387 . S
C687 C689 1.387 . S
H688 C695 0.950 . S
C689 C687 1.387 . S
C689 C691 1.390 . S
C689 H693 0.950 . S
H690 C686 0.950 . S
C691 C689 1.390 . S
C691 C692 1.380 1_554 S
C691 H694 0.950 . S
C692 C691 1.380 1_556 S
C692 C695 1.380 1_556 S
H693 C689 0.950 . S
H694 C691 0.950 . S
C695 C686 1.390 . S
C695 H688 0.950 . S
C695 C692 1.380 1_554 S
C696 C697 1.387 . S
C696 H700 0.950 . S
C696 C705 1.390 . S
C697 C696 1.387 . S
C697 C699 1.387 . S
H698 C705 0.950 . S
C699 C697 1.387 . S
C699 C701 1.390 . S
C699 H703 0.950 . S
H700 C696 0.950 . S
C701 C699 1.390 . S
C701 C702 1.387 . S
C701 H704 0.950 . S
C702 C701 1.387 . S
C702 C705 1.387 . S
H703 C699 0.950 . S
H704 C701 0.950 . S
C705 C696 1.390 . S
C705 H698 0.950 . S
C705 C702 1.387 . S
C706 C707 1.387 . S
C706 H710 0.950 . S
C706 C715 1.390 . S
C707 C706 1.387 . S
C707 C709 1.387 . S
H708 C715 0.950 . S
C709 C707 1.387 . S
C709 C711 1.390 . S
C709 H713 0.950 . S
H710 C706 0.950 . S
C711 C709 1.390 . S
C711 C712 1.387 . S
C711 H714 0.950 . S
C712 C711 1.387 . S
C712 C715 1.387 . S
H713 C709 0.950 . S
H714 C711 0.950 . S
C715 C706 1.390 . S
C715 H708 0.950 . S
C715 C712 1.387 . S
C716 C717 1.387 . S
C716 H720 0.950 . S
C716 C725 1.390 . S
C717 C716 1.387 . S
C717 C719 1.387 . S
H718 C725 0.950 . S
C719 C717 1.387 . S
C719 C721 1.390 . S
C719 H723 0.950 . S
H720 C716 0.950 . S
C721 C719 1.390 . S
C721 C722 1.387 . S
C721 H724 0.950 . S
C722 C721 1.387 . S
C722 C725 1.387 . S
H723 C719 0.950 . S
H724 C721 0.950 . S
C725 C716 1.390 . S
C725 H718 0.950 . S
C725 C722 1.387 . S
C726 C727 1.387 . S
C726 H730 0.950 . S
C726 C735 1.390 . S
C727 C726 1.387 . S
C727 C729 1.387 . S
H728 C735 0.950 . S
C729 C727 1.387 . S
C729 C731 1.390 . S
C729 H733 0.950 . S
H730 C726 0.950 . S
C731 C729 1.390 . S
C731 C732 1.379 1_554 S
C731 H734 0.950 . S
C732 C731 1.379 1_556 S
C732 C735 1.379 1_556 S
H733 C729 0.950 . S
H734 C731 0.950 . S
C735 C726 1.390 . S
C735 H728 0.950 . S
C735 C732 1.379 1_554 S
C736 C737 1.387 . S
C736 H740 0.950 . S
C736 C745 1.390 . S
C737 C736 1.387 . S
C737 C739 1.387 . S
H738 C745 0.950 . S
C739 C737 1.387 . S
C739 C741 1.390 . S
C739 H743 0.950 . S
H740 C736 0.950 . S
C741 C739 1.390 . S
C741 C742 1.387 . S
C741 H744 0.950 . S
C742 C741 1.387 . S
C742 C745 1.387 . S
H743 C739 0.950 . S
H744 C741 0.950 . S
C745 C736 1.390 . S
C745 H738 0.950 . S
C745 C742 1.387 . S
C746 C747 1.387 . S
C746 H750 0.950 . S
C746 C755 1.390 1_455 S
C747 C746 1.387 . S
C747 C749 1.387 . S
H748 C755 0.950 . S
C749 C747 1.387 . S
C749 C751 1.390 1_455 S
C749 H753 0.950 . S
H750 C746 0.950 . S
C751 C749 1.390 1_655 S
C751 C752 1.387 . S
C751 H754 0.950 . S
C752 C751 1.387 . S
C752 C755 1.387 . S
H753 C749 0.950 . S
H754 C751 0.950 . S
C755 C746 1.390 1_655 S
C755 H748 0.950 . S
C755 C752 1.387 . S
C756 C757 1.387 . S
C756 H760 0.950 . S
C756 C765 1.390 . S
C757 C756 1.387 . S
C757 C759 1.387 . S
H758 C765 0.950 . S
C759 C757 1.387 . S
C759 C761 1.390 . S
C759 H763 0.950 . S
H760 C756 0.950 . S
C761 C759 1.390 . S
C761 C762 1.387 . S
C761 H764 0.950 . S
C762 C761 1.387 . S
C762 C765 1.387 . S
H763 C759 0.950 . S
H764 C761 0.950 . S
C765 C756 1.390 . S
C765 H758 0.950 . S
C765 C762 1.387 . S
C766 C767 1.387 . S
C766 H770 0.950 . S
C766 C775 1.390 . S
C767 C766 1.387 . S
C767 C769 1.387 . S
H768 C775 0.950 . S
C769 C767 1.387 . S
C769 C771 1.390 . S
C769 H773 0.950 . S
H770 C766 0.950 . S
C771 C769 1.390 . S
C771 C772 1.387 . S
C771 H774 0.950 . S
C772 C771 1.387 . S
C772 C775 1.387 . S
H773 C769 0.950 . S
H774 C771 0.950 . S
C775 C766 1.390 . S
C775 H768 0.950 . S
C775 C772 1.387 . S
C776 C777 1.387 . S
C776 H780 0.950 . S
C776 C785 1.390 . S
C777 C776 1.387 . S
C777 C779 1.387 . S
H778 C785 0.950 . S
C779 C777 1.387 . S
C779 C781 1.390 . S
C779 H783 0.950 . S
H780 C776 0.950 . S
C781 C779 1.390 . S
C781 C782 1.387 . S
C781 H784 0.950 . S
C782 C781 1.387 . S
C782 C785 1.387 . S
H783 C779 0.950 . S
H784 C781 0.950 . S
C785 C776 1.390 . S
C785 H778 0.950 . S
C785 C782 1.387 . S
C786 C787 1.387 . S
C786 H790 0.950 1_565 S
C786 C795 1.390 . S
C787 C786 1.387 . S
C787 C789 1.387 . S
H788 C795 0.950 1_545 S
C789 C787 1.387 . S
C789 C791 1.390 . S
C789 H793 0.950 . S
H790 C786 0.950 1_545 S
C791 C789 1.390 . S
C791 C792 1.387 . S
C791 H794 0.950 . S
C792 C791 1.387 . S
C792 C795 1.387 . S
H793 C789 0.950 . S
H794 C791 0.950 . S
C795 C786 1.390 . S
C795 H788 0.950 1_565 S
C795 C792 1.387 . S
C796 C797 1.387 . S
C796 H800 0.950 . S
C796 C805 1.390 . S
C797 C796 1.387 . S
C797 C799 1.387 . S
H798 C805 0.950 . S
C799 C797 1.387 . S
C799 C801 1.390 . S
C799 H803 0.950 . S
H800 C796 0.950 . S
C801 C799 1.390 . S
C801 C802 1.387 . S
C801 H804 0.950 . S
C802 C801 1.387 . S
C802 C805 1.387 . S
H803 C799 0.950 . S
H804 C801 0.950 . S
C805 C796 1.390 . S
C805 H798 0.950 . S
C805 C802 1.387 . S
C806 C807 1.387 . S
C806 H810 0.950 1_545 S
C806 C815 1.390 1_655 S
C807 C806 1.387 . S
C807 C809 1.387 . S
H808 C815 0.950 1_565 S
C809 C807 1.387 . S
C809 C811 1.390 1_655 S
C809 H813 0.950 . S
H810 C806 0.950 1_565 S
C811 C809 1.390 1_455 S
C811 C812 1.387 . S
C811 H814 0.950 . S
C812 C811 1.387 . S
C812 C815 1.387 . S
H813 C809 0.950 . S
H814 C811 0.950 . S
C815 C806 1.390 1_455 S
C815 H808 0.950 1_545 S
C815 C812 1.387 . S
C816 C817 1.387 . S
C816 H820 0.950 . S
C816 C825 1.390 . S
C817 C816 1.387 . S
C817 C819 1.387 . S
H818 C825 0.950 . S
C819 C817 1.387 . S
C819 C821 1.390 . S
C819 H823 0.950 . S
H820 C816 0.950 . S
C821 C819 1.390 . S
C821 C822 1.387 . S
C821 H824 0.950 . S
C822 C821 1.387 . S
C822 C825 1.387 . S
H823 C819 0.950 . S
H824 C821 0.950 . S
C825 C816 1.390 . S
C825 H818 0.950 . S
C825 C822 1.387 . S
C826 C827 1.387 . S
C826 H830 0.950 . S
C826 C835 1.390 . S
C827 C826 1.387 . S
C827 C829 1.387 . S
H828 C835 0.950 . S
C829 C827 1.387 . S
C829 C831 1.390 . S
C829 H833 0.950 . S
H830 C826 0.950 . S
C831 C829 1.390 . S
C831 C832 1.387 . S
C831 H834 0.950 . S
C832 C831 1.387 . S
C832 C835 1.387 . S
H833 C829 0.950 . S
H834 C831 0.950 . S
C835 C826 1.390 . S
C835 H828 0.950 . S
C835 C832 1.387 . S
C836 C837 1.387 . S
C836 H840 0.950 . S
C836 C845 1.390 . S
C837 C836 1.387 . S
C837 C839 1.387 . S
H838 C845 0.950 . S
C839 C837 1.387 . S
C839 C841 1.390 . S
C839 H843 0.950 . S
H840 C836 0.950 . S
C841 C839 1.390 . S
C841 C842 1.387 . S
C841 H844 0.950 . S
C842 C841 1.387 . S
C842 C845 1.387 . S
H843 C839 0.950 . S
H844 C841 0.950 . S
C845 C836 1.390 . S
C845 H838 0.950 . S
C845 C842 1.387 . S
C846 C847 1.387 . S
C846 H850 0.950 . S
C846 C855 1.390 . S
C847 C846 1.387 . S
C847 C849 1.387 . S
H848 C855 0.950 . S
C849 C847 1.387 . S
C849 C851 1.390 . S
C849 H853 0.950 . S
H850 C846 0.950 . S
C851 C849 1.390 . S
C851 C852 1.387 . S
C851 H854 0.950 . S
C852 C851 1.387 . S
C852 C855 1.387 . S
H853 C849 0.950 . S
H854 C851 0.950 . S
C855 C846 1.390 . S
C855 H848 0.950 . S
C855 C852 1.387 . S
C856 C857 1.387 . S
C856 H860 0.950 . S
C856 C865 1.390 . S
C857 C856 1.387 . S
C857 C859 1.387 . S
H858 C865 0.950 . S
C859 C857 1.387 . S
C859 C861 1.390 . S
C859 H863 0.950 . S
H860 C856 0.950 . S
C861 C859 1.390 . S
C861 C862 1.387 . S
C861 H864 0.950 . S
C862 C861 1.387 . S
C862 C865 1.387 . S
H863 C859 0.950 . S
H864 C861 0.950 . S
C865 C856 1.390 . S
C865 H858 0.950 . S
C865 C862 1.387 . S
C866 C867 1.387 . S
C866 H870 0.950 . S
C866 C875 1.390 1_655 S
C867 C866 1.387 . S
C867 C869 1.387 . S
H868 C875 0.950 . S
C869 C867 1.387 . S
C869 C871 1.390 1_655 S
C869 H873 0.950 . S
H870 C866 0.950 . S
C871 C869 1.390 1_455 S
C871 C872 1.387 . S
C871 H874 0.950 . S
C872 C871 1.387 . S
C872 C875 1.387 . S
H873 C869 0.950 . S
H874 C871 0.950 . S
C875 C866 1.390 1_455 S
C875 H868 0.950 . S
C875 C872 1.387 . S
C876 C877 1.387 . S
C876 H880 0.950 . S
C876 C885 1.390 1_655 S
C877 C876 1.387 . S
C877 C879 1.387 . S
H878 C885 0.950 . S
C879 C877 1.387 . S
C879 C881 1.390 1_655 S
C879 H883 0.950 . S
H880 C876 0.950 . S
C881 C879 1.390 1_455 S
C881 C882 1.387 . S
C881 H884 0.950 . S
C882 C881 1.387 . S
C882 C885 1.387 . S
H883 C879 0.950 . S
H884 C881 0.950 . S
C885 C876 1.390 1_455 S
C885 H878 0.950 . S
C885 C882 1.387 . S
C886 C887 1.387 . S
C886 H890 0.950 . S
C886 C895 1.390 . S
C887 C886 1.387 . S
C887 C889 1.387 . S
H888 C895 0.950 . S
C889 C887 1.387 . S
C889 C891 1.390 . S
C889 H893 0.950 . S
H890 C886 0.950 . S
C891 C889 1.390 . S
C891 C892 1.387 . S
C891 H894 0.950 . S
C892 C891 1.387 . S
C892 C895 1.387 . S
H893 C889 0.950 . S
H894 C891 0.950 . S
C895 C886 1.390 . S
C895 H888 0.950 . S
C895 C892 1.387 . S
C896 C897 1.387 . S
C896 H900 0.950 . S
C896 C905 1.390 . S
C897 C896 1.387 . S
C897 C899 1.387 . S
H898 C905 0.950 . S
C899 C897 1.387 . S
C899 C901 1.390 . S
C899 H903 0.950 . S
H900 C896 0.950 . S
C901 C899 1.390 . S
C901 C902 1.387 . S
C901 H904 0.950 . S
C902 C901 1.387 . S
C902 C905 1.387 . S
H903 C899 0.950 . S
H904 C901 0.950 . S
C905 C896 1.390 . S
C905 H898 0.950 . S
C905 C902 1.387 . S
C906 C907 1.387 . S
C906 H910 0.950 . S
C906 C915 1.390 1_565 S
C907 C906 1.387 . S
C907 C909 1.387 . S
H908 C915 0.950 . S
C909 C907 1.387 . S
C909 C911 1.390 1_565 S
C909 H913 0.950 . S
H910 C906 0.950 . S
C911 C909 1.390 1_545 S
C911 C912 1.387 . S
C911 H914 0.950 . S
C912 C911 1.387 . S
C912 C915 1.387 . S
H913 C909 0.950 . S
H914 C911 0.950 . S
C915 C906 1.390 1_545 S
C915 H908 0.950 . S
C915 C912 1.387 . S
C916 C917 1.387 . S
C916 H920 0.950 . S
C916 C925 1.390 . S
C917 C916 1.387 . S
C917 C919 1.387 . S
H918 C925 0.950 . S
C919 C917 1.387 . S
C919 C921 1.390 . S
C919 H923 0.950 . S
H920 C916 0.950 . S
C921 C919 1.390 . S
C921 C922 1.387 . S
C921 H924 0.950 . S
C922 C921 1.387 . S
C922 C925 1.387 . S
H923 C919 0.950 . S
H924 C921 0.950 . S
C925 C916 1.390 . S
C925 H918 0.950 . S
C925 C922 1.387 . S
C926 C927 1.387 . S
C926 H930 0.950 . S
C926 C935 1.390 1_545 S
C927 C926 1.387 . S
C927 C929 1.387 . S
H928 C935 0.950 . S
C929 C927 1.387 . S
C929 C931 1.390 1_545 S
C929 H933 0.950 . S
H930 C926 0.950 . S
C931 C929 1.390 1_565 S
C931 C932 1.387 . S
C931 H934 0.950 . S
C932 C931 1.387 . S
C932 C935 1.387 . S
H933 C929 0.950 . S
H934 C931 0.950 . S
C935 C926 1.390 1_565 S
C935 H928 0.950 . S
C935 C932 1.387 . S
C936 C937 1.387 . S
C936 H940 0.950 . S
C936 C945 1.390 . S
C937 C936 1.387 . S
C937 C939 1.387 . S
H938 C945 0.950 . S
C939 C937 1.387 . S
C939 C941 1.390 . S
C939 H943 0.950 . S
H940 C936 0.950 . S
C941 C939 1.390 . S
C941 C942 1.387 . S
C941 H944 0.950 . S
C942 C941 1.387 . S
C942 C945 1.387 . S
H943 C939 0.950 . S
H944 C941 0.950 . S
C945 C936 1.390 . S
C945 H938 0.950 . S
C945 C942 1.387 . S
C946 C947 1.387 . S
C946 H950 0.950 . S
C946 C955 1.390 1_545 S
C947 C946 1.387 . S
C947 C949 1.387 . S
H948 C955 0.950 . S
C949 C947 1.387 . S
C949 C951 1.390 1_545 S
C949 H953 0.950 . S
H950 C946 0.950 . S
C951 C949 1.390 1_565 S
C951 C952 1.387 . S
C951 H954 0.950 . S
C952 C951 1.387 . S
C952 C955 1.387 . S
H953 C949 0.950 . S
H954 C951 0.950 . S
C955 C946 1.390 1_565 S
C955 H948 0.950 . S
C955 C952 1.387 . S
C956 C957 1.387 . S
C956 H960 0.950 . S
C956 C965 1.390 . S
C957 C956 1.387 . S
C957 C959 1.387 . S
H958 C965 0.950 . S
C959 C957 1.387 . S
C959 C961 1.390 . S
C959 H963 0.950 . S
H960 C956 0.950 . S
C961 C959 1.390 . S
C961 C962 1.387 . S
C961 H964 0.950 . S
C962 C961 1.387 . S
C962 C965 1.387 . S
H963 C959 0.950 . S
H964 C961 0.950 . S
C965 C956 1.390 . S
C965 H958 0.950 . S
C965 C962 1.387 . S
C966 C967 1.387 . S
C966 H970 0.950 . S
C966 C975 1.390 1_565 S
C967 C966 1.387 . S
C967 C969 1.387 . S
H968 C975 0.950 . S
C969 C967 1.387 . S
C969 C971 1.390 1_565 S
C969 H973 0.950 . S
H970 C966 0.950 . S
C971 C969 1.390 1_545 S
C971 C972 1.387 . S
C971 H974 0.950 . S
C972 C971 1.387 . S
C972 C975 1.387 . S
H973 C969 0.950 . S
H974 C971 0.950 . S
C975 C966 1.390 1_545 S
C975 H968 0.950 . S
C975 C972 1.387 . S
C976 C977 1.387 . S
C976 H980 0.950 . S
C976 C985 1.390 . S
C977 C976 1.387 . S
C977 C979 1.387 . S
H978 C985 0.950 . S
C979 C977 1.387 . S
C979 C981 1.390 . S
C979 H983 0.950 . S
H980 C976 0.950 . S
C981 C979 1.390 . S
C981 C982 1.387 . S
C981 H984 0.950 . S
C982 C981 1.387 . S
C982 C985 1.387 . S
H983 C979 0.950 . S
H984 C981 0.950 . S
C985 C976 1.390 . S
C985 H978 0.950 . S
C985 C982 1.387 . S
C986 C987 1.387 . S
C986 H990 0.950 . S
C986 C995 1.390 . S
C987 C986 1.387 . S
C987 C989 1.387 . S
H988 C995 0.950 . S
C989 C987 1.387 . S
C989 C991 1.390 . S
C989 H993 0.950 . S
H990 C986 0.950 . S
C991 C989 1.390 . S
C991 C992 1.387 . S
C991 H994 0.950 . S
C992 C991 1.387 . S
C992 C995 1.387 . S
H993 C989 0.950 . S
H994 C991 0.950 . S
C995 C986 1.390 . S
C995 H988 0.950 . S
C995 C992 1.387 . S
C996 C997 1.387 . S
C996 H1000 0.950 . S
C996 C1005 1.390 . S
C997 C996 1.387 . S
C997 C999 1.387 . S
H998 C1005 0.950 . S
C999 C997 1.387 . S
C999 C1001 1.390 . S
C999 H1003 0.950 . S
H1000 C996 0.950 . S
C1001 C999 1.390 . S
C1001 C1002 1.387 . S
C1001 H1004 0.950 . S
C1002 C1001 1.387 . S
C1002 C1005 1.387 . S
H1003 C999 0.950 . S
H1004 C1001 0.950 . S
C1005 C996 1.390 . S
C1005 H998 0.950 . S
C1005 C1002 1.387 . S
C1006 C1007 1.387 . S
C1006 H1010 0.950 . S
C1006 C1015 1.390 . S
C1007 C1006 1.387 . S
C1007 C1009 1.387 . S
H1008 C1015 0.950 . S
C1009 C1007 1.387 . S
C1009 C1011 1.390 . S
C1009 H1013 0.950 . S
H1010 C1006 0.950 . S
C1011 C1009 1.390 . S
C1011 C1012 1.387 . S
C1011 H1014 0.950 . S
C1012 C1011 1.387 . S
C1012 C1015 1.387 . S
H1013 C1009 0.950 . S
H1014 C1011 0.950 . S
C1015 C1006 1.390 . S
C1015 H1008 0.950 . S
C1015 C1012 1.387 . S
C1016 C1017 1.387 . S
C1016 H1020 0.950 . S
C1016 C1025 1.390 . S
C1017 C1016 1.387 . S
C1017 C1019 1.387 . S
H1018 C1025 0.950 . S
C1019 C1017 1.387 . S
C1019 C1021 1.390 . S
C1019 H1023 0.950 . S
H1020 C1016 0.950 . S
C1021 C1019 1.390 . S
C1021 C1022 1.387 . S
C1021 H1024 0.950 . S
C1022 C1021 1.387 . S
C1022 C1025 1.387 . S
H1023 C1019 0.950 . S
H1024 C1021 0.950 . S
C1025 C1016 1.390 . S
C1025 H1018 0.950 . S
C1025 C1022 1.387 . S
C1026 C1027 1.387 . S
C1026 H1030 0.950 . S
C1026 C1035 1.390 . S
C1027 C1026 1.387 . S
C1027 C1029 1.387 . S
H1028 C1035 0.950 . S
C1029 C1027 1.387 . S
C1029 C1031 1.390 . S
C1029 H1033 0.950 . S
H1030 C1026 0.950 . S
C1031 C1029 1.390 . S
C1031 C1032 1.387 . S
C1031 H1034 0.950 . S
C1032 C1031 1.387 . S
C1032 C1035 1.387 . S
H1033 C1029 0.950 . S
H1034 C1031 0.950 . S
C1035 C1026 1.390 . S
C1035 H1028 0.950 . S
C1035 C1032 1.387 . S
C1036 C1037 1.387 . S
C1036 H1040 0.950 . S
C1036 C1045 1.390 . S
C1037 C1036 1.387 . S
C1037 C1039 1.387 . S
H1038 C1045 0.950 . S
C1039 C1037 1.387 . S
C1039 C1041 1.390 . S
C1039 H1043 0.950 . S
H1040 C1036 0.950 . S
C1041 C1039 1.390 . S
C1041 C1042 1.387 . S
C1041 H1044 0.950 . S
C1042 C1041 1.387 . S
C1042 C1045 1.387 . S
H1043 C1039 0.950 . S
H1044 C1041 0.950 . S
C1045 C1036 1.390 . S
C1045 H1038 0.950 . S
C1045 C1042 1.387 . S
C1046 C1047 1.387 . S
C1046 H1050 0.950 . S
C1046 C1055 1.390 . S
C1047 C1046 1.387 . S
C1047 C1049 1.387 . S
H1048 C1055 0.950 . S
C1049 C1047 1.387 . S
C1049 C1051 1.390 . S
C1049 H1053 0.950 . S
H1050 C1046 0.950 . S
C1051 C1049 1.390 . S
C1051 C1052 1.387 . S
C1051 H1054 0.950 . S
C1052 C1051 1.387 . S
C1052 C1055 1.387 . S
H1053 C1049 0.950 . S
H1054 C1051 0.950 . S
C1055 C1046 1.390 . S
C1055 H1048 0.950 . S
C1055 C1052 1.387 . S
C417 C101 1.614 . S
C422 C4 1.614 1_556 S
C427 C17 1.615 . S
C432 C56 1.615 . S
C437 C75 1.616 . S
C442 C36 1.616 . S
C447 C43 1.615 . S
C452 C88 1.615 . S
C457 C108 1.614 . S
C462 C205 1.614 . S
C467 C121 1.614 . S
C472 C166 1.614 1_556 S
C477 C134 1.616 . S
C482 C179 1.616 . S
C487 C147 1.615 . S
C492 C186 1.614 . S
C497 C218 1.616 . S
C502 C309 1.616 . S
C507 C225 1.614 . S
C512 C270 1.614 . S
C517 C283 1.616 . S
C522 C238 1.616 1_556 S
C527 C296 1.615 . S
C532 C251 1.615 . S
C537 C316 1.615 . S
C542 C413 1.615 . S
C547 C368 1.615 . S
C552 C329 1.614 . S
C557 C387 1.616 . S
C562 C348 1.616 . S
C567 C355 1.615 . S
C572 C400 1.615 1_556 S
C577 C10 1.059 . S
C582 C82 1.059 . S
C587 C23 1.057 . S
C592 C95 1.072 . S
C597 C62 1.057 . S
C602 C30 1.057 . S
C607 C49 1.059 . S
C612 C69 1.059 . S
C617 C114 1.059 . S
C622 C192 1.059 . S
C627 C127 1.059 . S
C632 C199 1.059 . S
C637 C160 1.057 . S
C642 C140 1.057 . S
C647 C173 1.059 . S
C652 C153 1.059 . S
C657 C212 1.057 . S
C662 C290 1.057 . S
C667 C303 1.059 . S
C672 C231 1.059 . S
C677 C264 1.059 . S
C682 C244 1.059 . S
C687 C257 1.057 . S
C692 C277 1.071 . S
C697 C322 1.057 . S
C702 C394 1.057 . S
C707 C335 1.059 . S
C712 C407 1.059 . S
C717 C374 1.057 . S
C722 C342 1.057 . S
C727 C381 1.059 . S
C732 C361 1.075 . S
C737 C5 1.604 . S
C742 C393 1.604 . S
C747 C18 1.604 . S
C752 C198 1.604 . S
C757 C29 1.604 . S
C762 C369 1.604 . S
C767 C44 1.604 . S
C772 C172 1.604 . S
C777 C57 1.604 . S
C782 C341 1.604 . S
C787 C68 1.604 . S
C792 C148 1.604 . S
C797 C81 1.604 . S
C802 C317 1.605 . S
C807 C122 1.604 . S
C812 C94 1.604 . S
C817 C289 1.604 . S
C822 C109 1.604 . S
C827 C135 1.604 . S
C832 C263 1.604 . S
C837 C239 1.604 . S
C842 C159 1.604 . S
C847 C211 1.604 . S
C852 C187 1.605 . S
C857 C226 1.604 . S
C862 C406 1.604 . S
C867 C252 1.604 . S
C872 C380 1.604 . S
C877 C276 1.604 . S
C882 C356 1.604 . S
C887 C330 1.604 . S
C892 C302 1.604 . S
C897 C3 1.508 . S
C902 C83 1.508 . S
C907 C16 1.508 . S
C912 C96 1.508 . S
C917 C55 1.508 . S
C922 C31 1.508 . S
C927 C42 1.508 1_554 S
C932 C70 1.508 . S
C937 C107 1.509 . S
C942 C185 1.509 . S
C947 C120 1.508 . S
C952 C200 1.508 . S
C957 C161 1.508 . S
C962 C133 1.508 . S
C967 C146 1.509 . S
C972 C174 1.509 1_554 S
C977 C291 1.509 . S
C982 C213 1.509 . S
C987 C304 1.509 . S
C992 C224 1.509 1_554 S
C997 C265 1.508 . S
C1002 C237 1.508 . S
C1007 C278 1.508 . S
C1012 C250 1.508 . S
C1017 C395 1.508 . S
C1022 C315 1.508 . S
C1027 C408 1.509 1_554 S
C1032 C328 1.509 . S
C1037 C343 1.509 . S
C1042 C367 1.509 . S
C1047 C382 1.508 . S
C1052 C354 1.508 . S
