# Generated by pormake.
# Topology msp, (4)-cn, num edge types: 1
# Building blocks:
#     Node 0, Type 0, BuildingBlock: KOZSID_clean_sbu_0, # of connection points: 4
#     Node 1, Type 0, BuildingBlock: KOZSID_clean_sbu_0, # of connection points: 4
#     Node 2, Type 0, BuildingBlock: KOZSID_clean_sbu_0, # of connection points: 4
#     Node 3, Type 0, BuildingBlock: KOZSID_clean_sbu_0, # of connection points: 4
#     Node 4, Type 0, BuildingBlock: KOZSID_clean_sbu_0, # of connection points: 4
#     Node 5, Type 0, BuildingBlock: KOZSID_clean_sbu_0, # of connection points: 4
#     Node 6, Type 0, BuildingBlock: KOZSID_clean_sbu_0, # of connection points: 4
#     Node 7, Type 0, BuildingBlock: KOZSID_clean_sbu_0, # of connection points: 4
#     Edge 8, Type (0, 0), BuildingBlock: UVAHIK_clean_linker_0, # of connection points: 2
#     Edge 9, Type (0, 0), BuildingBlock: UVAHIK_clean_linker_0, # of connection points: 2
#     Edge 10, Type (0, 0), BuildingBlock: UVAHIK_clean_linker_0, # of connection points: 2
#     Edge 11, Type (0, 0), BuildingBlock: UVAHIK_clean_linker_0, # of connection points: 2
#     Edge 12, Type (0, 0), BuildingBlock: UVAHIK_clean_linker_0, # of connection points: 2
#     Edge 13, Type (0, 0), BuildingBlock: UVAHIK_clean_linker_0, # of connection points: 2
#     Edge 14, Type (0, 0), BuildingBlock: UVAHIK_clean_linker_0, # of connection points: 2
#     Edge 15, Type (0, 0), BuildingBlock: UVAHIK_clean_linker_0, # of connection points: 2
#     Edge 16, Type (0, 0), BuildingBlock: UVAHIK_clean_linker_0, # of connection points: 2
#     Edge 17, Type (0, 0), BuildingBlock: UVAHIK_clean_linker_0, # of connection points: 2
#     Edge 18, Type (0, 0), BuildingBlock: UVAHIK_clean_linker_0, # of connection points: 2
#     Edge 19, Type (0, 0), BuildingBlock: UVAHIK_clean_linker_0, # of connection points: 2
#     Edge 20, Type (0, 0), BuildingBlock: UVAHIK_clean_linker_0, # of connection points: 2
#     Edge 21, Type (0, 0), BuildingBlock: UVAHIK_clean_linker_0, # of connection points: 2
#     Edge 22, Type (0, 0), BuildingBlock: UVAHIK_clean_linker_0, # of connection points: 2
#     Edge 23, Type (0, 0), BuildingBlock: UVAHIK_clean_linker_0, # of connection points: 2
# Relax obj value: 0.068
# Max RMSD: 0.205
# Mean RMSD: 0.205
data_MOF--net-msp--node1-KOZSID_clean_sbu_0--edge1-UVAHIK_clean_linker_0
_symmetry_space_group_name_H-M    P1
_symmetry_Int_Tables_number       1
_symmetry_cell_setting            triclinic
loop_
_symmetry_equiv_pos_as_xyz
'x, y, z'
_cell_length_a     31.480225
_cell_length_b     17.462525
_cell_length_c     71.279342
_cell_angle_alpha  89.999762
_cell_angle_beta   91.73569
_cell_angle_gamma 90.008516
loop_
_atom_site_label
_atom_site_type_symbol
_atom_site_fract_x
_atom_site_fract_y
_atom_site_fract_z
_atom_type_partial_charge
C0 C 0.00214 0.45718 0.39089 0.0
C1 C 0.99118 0.53303 0.39375 0.0
C2 C 0.99982 0.57115 0.37741 0.0
C3 C 0.01545 0.51638 0.36557 0.0
N4 N 0.01685 0.44661 0.3735 0.0
Co5 Co 0.03876 0.35161 0.36229 0.0
N6 N 0.07238 0.41016 0.34415 0.0
C7 C 0.0661 0.48408 0.33936 0.0
C8 C 0.09325 0.50879 0.32593 0.0
C9 C 0.11767 0.4463 0.32185 0.0
C10 C 0.10401 0.38655 0.33307 0.0
N11 N 0.06013 0.25589 0.35104 0.0
C12 C 0.09269 0.24498 0.33936 0.0
C13 C 0.09616 0.16811 0.33458 0.0
C14 C 0.06393 0.13037 0.34323 0.0
C15 C 0.04274 0.18583 0.35287 0.0
N16 N 0.00495 0.29407 0.38055 0.0
C17 C 0.99283 0.22046 0.37925 0.0
C18 C 0.97193 0.19627 0.39485 0.0
C19 C 0.97113 0.25867 0.40662 0.0
C20 C 0.9915 0.31757 0.39744 0.0
N21 N 0.99048 0.35026 0.34435 0.0
C22 C 0.92099 0.33938 0.31901 0.0
C23 C 0.91506 0.35732 0.33792 0.0
C24 C 0.95019 0.36284 0.35033 0.0
C25 C 0.96252 0.32864 0.31302 0.0
C26 C 0.99667 0.33424 0.32586 0.0
N27 N 0.08663 0.35266 0.38036 0.0
C28 C 0.12401 0.28966 0.40584 0.0
C29 C 0.14153 0.35953 0.41188 0.0
C30 C 0.13402 0.42466 0.40075 0.0
C31 C 0.10657 0.4199 0.38499 0.0
C32 C 0.09681 0.28744 0.39006 0.0
H33 H 0.09952 0.47156 0.37722 0.0
H34 H 0.08212 0.23358 0.38638 0.0
H35 H 0.94473 0.37626 0.36484 0.0
H36 H 0.02805 0.32415 0.32081 0.0
C37 C 0.0381 0.53044 0.3493 0.0
C38 C 0.99752 0.39566 0.40458 0.0
C39 C 0.11773 0.30658 0.33096 0.0
C40 C 0.01053 0.17288 0.36571 0.0
H41 H 0.97892 0.55805 0.40638 0.0
H42 H 0.99758 0.6322 0.37495 0.0
H43 H 0.09549 0.56565 0.32 0.0
H44 H 0.1419 0.44443 0.31141 0.0
H45 H 0.11904 0.14221 0.3255 0.0
H46 H 0.0574 0.06953 0.34286 0.0
H47 H 0.96116 0.13886 0.3979 0.0
H48 H 0.95787 0.2599 0.42043 0.0
H49 H 0.88353 0.36697 0.34312 0.0
H50 H 0.96862 0.31377 0.2986 0.0
H51 H 0.13001 0.23733 0.41363 0.0
H52 H 0.14701 0.47985 0.4048 0.0
C53 C 0.50417 0.4532 0.61438 0.0
C54 C 0.51691 0.52866 0.61228 0.0
C55 C 0.50855 0.56502 0.62888 0.0
C56 C 0.49109 0.50992 0.64007 0.0
N57 N 0.48825 0.44149 0.63152 0.0
Co58 Co 0.46312 0.34695 0.64172 0.0
N59 N 0.43042 0.40583 0.66014 0.0
C60 C 0.43839 0.47852 0.66555 0.0
C61 C 0.41145 0.50372 0.679 0.0
C62 C 0.38535 0.4428 0.68245 0.0
C63 C 0.39787 0.38342 0.67086 0.0
N64 N 0.43879 0.25165 0.652 0.0
C65 C 0.40566 0.24192 0.66344 0.0
C66 C 0.39998 0.16482 0.6675 0.0
C67 C 0.43138 0.12557 0.65868 0.0
C68 C 0.45432 0.18044 0.64964 0.0
N69 N 0.49575 0.28906 0.62318 0.0
C70 C 0.50587 0.21438 0.62385 0.0
C71 C 0.52682 0.19088 0.60818 0.0
C72 C 0.52971 0.25496 0.59705 0.0
C73 C 0.51027 0.31373 0.60661 0.0
N74 N 0.51066 0.33888 0.65993 0.0
C75 C 0.57874 0.32103 0.68578 0.0
C76 C 0.5859 0.34071 0.66707 0.0
C77 C 0.55147 0.34937 0.65439 0.0
C78 C 0.53672 0.31199 0.6913 0.0
C79 C 0.5033 0.32109 0.67822 0.0
N80 N 0.41593 0.35469 0.62339 0.0
C81 C 0.3748 0.29685 0.59821 0.0
C82 C 0.35958 0.36875 0.59254 0.0
C83 C 0.37112 0.43297 0.6033 0.0
C84 C 0.39882 0.4245 0.61887 0.0
C85 C 0.40306 0.29111 0.61359 0.0
H86 H 0.40791 0.47495 0.62673 0.0
H87 H 0.4161 0.2356 0.61694 0.0
H88 H 0.55788 0.36366 0.64002 0.0
H89 H 0.47149 0.31301 0.68297 0.0
C90 C 0.46802 0.52365 0.65623 0.0
C91 C 0.50725 0.39308 0.60018 0.0
C92 C 0.38218 0.30435 0.67233 0.0
C93 C 0.48654 0.16644 0.63686 0.0
H94 H 0.52999 0.55511 0.60002 0.0
H95 H 0.51204 0.62549 0.63188 0.0
H96 H 0.4105 0.55991 0.68539 0.0
H97 H 0.36079 0.44159 0.69275 0.0
H98 H 0.37619 0.13967 0.67626 0.0
H99 H 0.43626 0.06422 0.65854 0.0
H100 H 0.53642 0.13323 0.60469 0.0
H101 H 0.54392 0.25808 0.58343 0.0
H102 H 0.61786 0.34777 0.66213 0.0
H103 H 0.52955 0.29821 0.70568 0.0
H104 H 0.3668 0.24583 0.59021 0.0
H105 H 0.35952 0.48943 0.59949 0.0
C106 C 0.0065 0.69015 0.60689 0.0
C107 C 0.02462 0.75152 0.59775 0.0
C108 C 0.02136 0.81354 0.60953 0.0
C109 C 0.00135 0.78659 0.6251 0.0
N110 N 0.99215 0.71164 0.62378 0.0
Co111 Co 0.96067 0.64967 0.64202 0.0
N112 N 0.93554 0.74227 0.65328 0.0
C113 C 0.9501 0.81442 0.65145 0.0
C114 C 0.92685 0.86687 0.66115 0.0
C115 C 0.89627 0.82494 0.66983 0.0
C116 C 0.90272 0.74879 0.66502 0.0
N117 N 0.92951 0.58668 0.66015 0.0
C118 C 0.8971 0.60599 0.67128 0.0
C119 C 0.88581 0.5444 0.68245 0.0
C120 C 0.91256 0.48525 0.6783 0.0
C121 C 0.93865 0.51362 0.66488 0.0
N122 N 0.98626 0.55786 0.63076 0.0
C123 C 0.99037 0.48829 0.63864 0.0
C124 C 0.00798 0.43582 0.62674 0.0
C125 C 0.01505 0.47525 0.61042 0.0
C126 C 0.00125 0.54949 0.61335 0.0
N127 N 0.00877 0.65717 0.65996 0.0
C128 C 0.07755 0.68082 0.68511 0.0
C129 C 0.0357 0.68564 0.69111 0.0
C130 C 0.00191 0.67347 0.67838 0.0
C131 C 0.08427 0.66118 0.66636 0.0
C132 C 0.04947 0.64962 0.65402 0.0
N133 N 0.91295 0.64276 0.62397 0.0
C134 C 0.86816 0.56542 0.60362 0.0
C135 C 0.85861 0.62951 0.59242 0.0
C136 C 0.87359 0.70124 0.59841 0.0
C137 C 0.90047 0.70666 0.61423 0.0
C138 C 0.89541 0.57334 0.61939 0.0
H139 H 0.91318 0.76212 0.61788 0.0
H140 H 0.9043 0.52261 0.62719 0.0
H141 H 0.9702 0.67878 0.68345 0.0
H142 H 0.05548 0.63625 0.63956 0.0
C143 C 0.98178 0.83164 0.63864 0.0
C144 C 0.00344 0.6117 0.59971 0.0
C145 C 0.88039 0.68401 0.6735 0.0
C146 C 0.96834 0.47111 0.6549 0.0
H147 H 0.03801 0.75198 0.58396 0.0
H148 H 0.02991 0.87219 0.6065 0.0
H149 H 0.931 0.92838 0.66156 0.0
H150 H 0.87255 0.84766 0.67899 0.0
H151 H 0.86161 0.54297 0.6929 0.0
H152 H 0.91255 0.42811 0.68419 0.0
H153 H 0.01254 0.37514 0.62915 0.0
H154 H 0.02815 0.45207 0.59775 0.0
H155 H 0.029 0.6991 0.70556 0.0
H156 H 0.11611 0.65703 0.66111 0.0
H157 H 0.85706 0.50891 0.59958 0.0
H158 H 0.86596 0.75265 0.59049 0.0
C159 C 0.49503 0.68808 0.39853 0.0
C160 C 0.47813 0.74921 0.40818 0.0
C161 C 0.48264 0.81251 0.39691 0.0
C162 C 0.50193 0.78624 0.38107 0.0
N163 N 0.50948 0.71059 0.38177 0.0
Co164 Co 0.5391 0.64863 0.363 0.0
N165 N 0.56617 0.74069 0.35235 0.0
C166 C 0.5532 0.81358 0.35472 0.0
C167 C 0.57747 0.86547 0.34533 0.0
C168 C 0.60701 0.8225 0.33628 0.0
C169 C 0.59896 0.74632 0.34057 0.0
N170 N 0.56873 0.58567 0.34436 0.0
C171 C 0.60147 0.60402 0.33331 0.0
C172 C 0.61136 0.543 0.3217 0.0
C173 C 0.58337 0.48528 0.32547 0.0
C174 C 0.558 0.51389 0.33912 0.0
N175 N 0.51129 0.55738 0.3736 0.0
C176 C 0.50565 0.48919 0.36516 0.0
C177 C 0.48702 0.43641 0.37663 0.0
C178 C 0.48083 0.47403 0.39327 0.0
C179 C 0.49594 0.54793 0.39093 0.0
N180 N 0.49108 0.66162 0.34524 0.0
C181 C 0.42252 0.68779 0.32012 0.0
C182 C 0.46441 0.69216 0.31416 0.0
C183 C 0.49809 0.67876 0.32687 0.0
C184 C 0.41564 0.66841 0.33887 0.0
C185 C 0.45031 0.65567 0.3512 0.0
N186 N 0.58678 0.63612 0.38091 0.0
C187 C 0.62949 0.55367 0.40085 0.0
C188 C 0.64357 0.61687 0.41141 0.0
C189 C 0.63071 0.69014 0.40568 0.0
C190 C 0.60221 0.69848 0.39048 0.0
C191 C 0.60161 0.56468 0.38544 0.0
H192 H 0.591 0.75524 0.38712 0.0
H193 H 0.59048 0.51507 0.37774 0.0
H194 H 0.52985 0.68314 0.3218 0.0
H195 H 0.44417 0.642 0.36563 0.0
C196 C 0.52218 0.83154 0.36778 0.0
C197 C 0.49567 0.60873 0.40507 0.0
C198 C 0.6198 0.68108 0.33158 0.0
C199 C 0.52737 0.47247 0.3488 0.0
H200 H 0.46455 0.7481 0.42195 0.0
H201 H 0.47521 0.87123 0.40039 0.0
H202 H 0.57468 0.92724 0.34538 0.0
H203 H 0.63112 0.84463 0.32723 0.0
H204 H 0.63543 0.54113 0.31118 0.0
H205 H 0.58207 0.4289 0.31917 0.0
H206 H 0.48136 0.37635 0.37375 0.0
H207 H 0.46764 0.44922 0.4057 0.0
H208 H 0.47123 0.70559 0.29973 0.0
H209 H 0.38376 0.66481 0.34411 0.0
H210 H 0.63923 0.49616 0.40471 0.0
H211 H 0.64069 0.74048 0.41353 0.0
C212 C 0.49819 0.96843 0.88942 0.0
C213 C 0.48885 0.04563 0.89147 0.0
C214 C 0.49934 0.08065 0.87498 0.0
C215 C 0.51477 0.02333 0.86389 0.0
N216 N 0.51438 0.95469 0.8724 0.0
Co217 Co 0.53667 0.85742 0.86238 0.0
N218 N 0.57266 0.91232 0.84447 0.0
C219 C 0.56764 0.98573 0.839 0.0
C220 C 0.5963 0.0078 0.82594 0.0
C221 C 0.62042 0.94404 0.82279 0.0
C222 C 0.60507 0.88621 0.83417 0.0
N223 N 0.55818 0.7595 0.85232 0.0
C224 C 0.59165 0.7459 0.8413 0.0
C225 C 0.59475 0.66833 0.83722 0.0
C226 C 0.56136 0.63286 0.84557 0.0
C227 C 0.53988 0.69029 0.85438 0.0
N228 N 0.50074 0.8035 0.88041 0.0
C229 C 0.48784 0.73025 0.87947 0.0
C230 C 0.46483 0.70924 0.89475 0.0
C231 C 0.46354 0.77341 0.90593 0.0
C232 C 0.48596 0.82977 0.89679 0.0
N233 N 0.49009 0.85484 0.8436 0.0
C234 C 0.42278 0.8381 0.81731 0.0
C235 C 0.41521 0.86065 0.8358 0.0
C236 C 0.44928 0.86885 0.84869 0.0
C237 C 0.4649 0.82695 0.81215 0.0
C238 C 0.49793 0.83556 0.82544 0.0
N239 N 0.58282 0.85941 0.88131 0.0
C240 C 0.61884 0.79699 0.90726 0.0
C241 C 0.63636 0.86685 0.9133 0.0
C242 C 0.62911 0.93186 0.9021 0.0
C243 C 0.60253 0.92673 0.88605 0.0
C244 C 0.59217 0.79456 0.89132 0.0
H245 H 0.59618 0.97807 0.87805 0.0
H246 H 0.57743 0.74073 0.88767 0.0
H247 H 0.44253 0.88477 0.86293 0.0
H248 H 0.52979 0.82503 0.82102 0.0
C249 C 0.5392 0.03419 0.84802 0.0
C250 C 0.49166 0.90846 0.90348 0.0
C251 C 0.61796 0.80547 0.8328 0.0
C252 C 0.50627 0.68017 0.86667 0.0
H253 H 0.47684 0.07454 0.9036 0.0
H254 H 0.49874 0.14145 0.87204 0.0
H255 H 0.59966 0.06377 0.81963 0.0
H256 H 0.64553 0.94007 0.8128 0.0
H257 H 0.61815 0.64046 0.82874 0.0
H258 H 0.5542 0.57224 0.84555 0.0
H259 H 0.45277 0.65288 0.898 0.0
H260 H 0.44845 0.7781 0.91933 0.0
H261 H 0.38317 0.86963 0.84045 0.0
H262 H 0.4724 0.81112 0.79794 0.0
H263 H 0.62455 0.74473 0.91512 0.0
H264 H 0.64209 0.98708 0.90614 0.0
C265 C 0.00243 0.96276 0.11506 0.0
C266 C 0.01336 0.03935 0.11319 0.0
C267 C 0.00454 0.07408 0.12993 0.0
C268 C 0.98845 0.01722 0.14098 0.0
N269 N 0.98688 0.94914 0.13221 0.0
Co270 Co 0.96306 0.85286 0.14209 0.0
N271 N 0.9292 0.90908 0.16057 0.0
C272 C 0.93609 0.98174 0.16627 0.0
C273 C 0.90861 0.00492 0.17971 0.0
C274 C 0.8833 0.94266 0.18286 0.0
C275 C 0.89679 0.88457 0.1711 0.0
N276 N 0.94001 0.75589 0.15203 0.0
C277 C 0.90682 0.74391 0.16331 0.0
C278 C 0.90226 0.66636 0.16714 0.0
C279 C 0.93445 0.62917 0.15834 0.0
C280 C 0.95672 0.68563 0.14954 0.0
N281 N 0.99684 0.79764 0.1235 0.0
C282 C 0.00822 0.72354 0.12405 0.0
C283 C 0.02992 0.7019 0.10844 0.0
C284 C 0.03194 0.76658 0.09746 0.0
C285 C 0.01124 0.82385 0.10705 0.0
N286 N 0.01044 0.84619 0.1604 0.0
C287 C 0.07847 0.82783 0.18624 0.0
C288 C 0.08559 0.84967 0.16767 0.0
C289 C 0.05118 0.8586 0.15499 0.0
C290 C 0.03649 0.81739 0.19167 0.0
C291 C 0.00309 0.82678 0.1786 0.0
N292 N 0.91606 0.85912 0.12365 0.0
C293 C 0.87627 0.80047 0.09817 0.0
C294 C 0.86 0.87184 0.09268 0.0
C295 C 0.87037 0.93609 0.10365 0.0
C296 C 0.89793 0.92825 0.11927 0.0
C297 C 0.90438 0.79541 0.11361 0.0
H298 H 0.90608 0.97872 0.12732 0.0
H299 H 0.91824 0.74043 0.11685 0.0
H300 H 0.05756 0.87435 0.14071 0.0
H301 H 0.97131 0.8173 0.18325 0.0
C302 C 0.9651 0.02878 0.15715 0.0
C303 C 0.00681 0.90324 0.10071 0.0
C304 C 0.88218 0.80471 0.17225 0.0
C305 C 0.98942 0.67397 0.13686 0.0
H306 H 0.02535 0.06805 0.10103 0.0
H307 H 0.00663 0.13462 0.13309 0.0
H308 H 0.90679 0.06066 0.18628 0.0
H309 H 0.85864 0.93976 0.19309 0.0
H310 H 0.87867 0.63957 0.17572 0.0
H311 H 0.94029 0.56811 0.15806 0.0
H312 H 0.04059 0.64497 0.10486 0.0
H313 H 0.04637 0.77104 0.08392 0.0
H314 H 0.11753 0.85796 0.16281 0.0
H315 H 0.02934 0.80201 0.20595 0.0
H316 H 0.86913 0.74948 0.09001 0.0
H317 H 0.85788 0.99209 0.09997 0.0
C318 C 0.50853 0.19401 0.10601 0.0
C319 C 0.52466 0.25727 0.09684 0.0
C320 C 0.52076 0.31843 0.10882 0.0
C321 C 0.50218 0.28949 0.12451 0.0
N322 N 0.49445 0.21401 0.12308 0.0
Co323 Co 0.46408 0.14986 0.14127 0.0
N324 N 0.43742 0.24064 0.15269 0.0
C325 C 0.45086 0.31355 0.15104 0.0
C326 C 0.42682 0.3644 0.16086 0.0
C327 C 0.39689 0.32058 0.16943 0.0
C328 C 0.40449 0.24501 0.16442 0.0
N329 N 0.43397 0.08468 0.1593 0.0
C330 C 0.40118 0.10185 0.17042 0.0
C331 C 0.39089 0.03939 0.18149 0.0
C332 C 0.41871 0.98189 0.17729 0.0
C333 C 0.44437 0.01208 0.16394 0.0
N334 N 0.49125 0.05994 0.1299 0.0
C335 C 0.49677 0.9906 0.13775 0.0
C336 C 0.51572 0.93964 0.12589 0.0
C337 C 0.52217 0.9798 0.10962 0.0
C338 C 0.50662 0.05294 0.11253 0.0
N339 N 0.51206 0.15932 0.15921 0.0
C340 C 0.58064 0.17987 0.18469 0.0
C341 C 0.53869 0.18397 0.19062 0.0
C342 C 0.50502 0.17349 0.17772 0.0
C343 C 0.5875 0.16414 0.16573 0.0
C344 C 0.55284 0.15389 0.15325 0.0
N345 N 0.41651 0.14086 0.12319 0.0
C346 C 0.37362 0.06166 0.10249 0.0
C347 C 0.36311 0.12557 0.09139 0.0
C348 C 0.37651 0.19795 0.09763 0.0
C349 C 0.40293 0.20437 0.11357 0.0
C350 C 0.40038 0.07059 0.11839 0.0
H351 H 0.41447 0.26044 0.11741 0.0
H352 H 0.41013 0.02011 0.1261 0.0
H353 H 0.47324 0.17804 0.18276 0.0
H354 H 0.55901 0.14226 0.13871 0.0
C355 C 0.48206 0.33286 0.1382 0.0
C356 C 0.5071 0.11517 0.09879 0.0
C357 C 0.38309 0.1788 0.17271 0.0
C358 C 0.47495 0.97167 0.15396 0.0
H359 H 0.53699 0.26017 0.08289 0.0
H360 H 0.52769 0.37781 0.1058 0.0
H361 H 0.43001 0.42608 0.1614 0.0
H362 H 0.37282 0.3417 0.17864 0.0
H363 H 0.36664 0.03637 0.1919 0.0
H364 H 0.41968 0.92464 0.18311 0.0
H365 H 0.52159 0.8793 0.12828 0.0
H366 H 0.53588 0.95772 0.09697 0.0
H367 H 0.53176 0.19701 0.20506 0.0
H368 H 0.61939 0.15949 0.16055 0.0
H369 H 0.36369 0.00466 0.09828 0.0
H370 H 0.36801 0.24921 0.08982 0.0
C371 C 0.99668 0.19743 0.89922 0.0
C372 C 0.98248 0.26112 0.90884 0.0
C373 C 0.98783 0.323 0.89723 0.0
C374 C 0.00529 0.29399 0.88129 0.0
N375 N 0.01099 0.21781 0.88222 0.0
Co376 Co 0.03902 0.15288 0.86347 0.0
N377 N 0.0677 0.24238 0.85239 0.0
C378 C 0.05632 0.31619 0.85457 0.0
C379 C 0.0814 0.36588 0.84491 0.0
C380 C 0.10982 0.32043 0.83588 0.0
C381 C 0.10032 0.24511 0.84046 0.0
N382 N 0.06684 0.08695 0.84486 0.0
C383 C 0.09963 0.10243 0.8336 0.0
C384 C 0.10794 0.0402 0.82212 0.0
C385 C 0.07883 0.98466 0.82619 0.0
C386 C 0.05444 0.0157 0.83988 0.0
N387 N 0.00985 0.06425 0.87449 0.0
C388 C 0.00227 0.99621 0.86626 0.0
C389 C 0.98223 0.94582 0.8779 0.0
C390 C 0.97722 0.98496 0.89444 0.0
C391 C 0.99465 0.05695 0.89188 0.0
N392 N 0.99084 0.16795 0.84589 0.0
C393 C 0.92215 0.19452 0.82086 0.0
C394 C 0.96398 0.197 0.81475 0.0
C395 C 0.99771 0.18345 0.82743 0.0
C396 C 0.91539 0.17732 0.83974 0.0
C397 C 0.95013 0.16441 0.85203 0.0
N398 N 0.08689 0.13819 0.88117 0.0
C399 C 0.12977 0.05391 0.90058 0.0
C400 C 0.145 0.11639 0.91112 0.0
C401 C 0.13244 0.19017 0.90565 0.0
C402 C 0.10343 0.1998 0.89068 0.0
C403 C 0.10107 0.06613 0.88551 0.0
H404 H 0.09283 0.25702 0.88741 0.0
H405 H 0.08891 0.01705 0.87791 0.0
H406 H 0.02941 0.18603 0.82222 0.0
H407 H 0.94409 0.15222 0.86655 0.0
C408 C 0.02612 0.3369 0.86773 0.0
C409 C 0.99598 0.11792 0.90596 0.0
C410 C 0.11955 0.17803 0.83157 0.0
C411 C 0.02312 0.97698 0.84982 0.0
H412 H 0.97047 0.26371 0.92286 0.0
H413 H 0.98253 0.38259 0.90062 0.0
H414 H 0.07988 0.4278 0.84477 0.0
H415 H 0.13413 0.34038 0.82664 0.0
H416 H 0.13171 0.03616 0.8115 0.0
H417 H 0.07618 0.9281 0.82005 0.0
H418 H 0.97465 0.88632 0.87518 0.0
H419 H 0.96314 0.96292 0.90701 0.0
H420 H 0.97069 0.20878 0.80022 0.0
H421 H 0.88358 0.1753 0.84509 0.0
H422 H 0.13918 0.996 0.90421 0.0
H423 H 0.14327 0.24006 0.91346 0.0
C424 C 0.9611 0.4084 0.43526 0.0
C425 C 0.99811 0.4136 0.42489 0.0
C426 C 0.96176 0.42944 0.45421 0.0
C427 C 0.03507 0.46437 0.49511 0.0
H428 H 0.93957 0.57763 0.51415 0.0
C429 C 0.03964 0.60233 0.56891 0.0
C430 C 0.00292 0.59437 0.57938 0.0
C431 C 0.03911 0.58175 0.54993 0.0
C432 C 0.96632 0.54545 0.5091 0.0
H433 H 0.06435 0.44626 0.42576 0.0
H434 H 0.06579 0.4834 0.4588 0.0
H435 H 0.93844 0.53696 0.48142 0.0
H436 H 0.93737 0.55762 0.57863 0.0
H437 H 0.93604 0.52201 0.54548 0.0
H438 H 0.06299 0.47315 0.52279 0.0
C439 C 0.03642 0.46161 0.45255 0.0
C440 C 0.96564 0.52194 0.49034 0.0
C441 C 0.03566 0.44065 0.43363 0.0
C442 C 0.96578 0.56536 0.57069 0.0
C443 C 0.96509 0.54519 0.55172 0.0
C444 C 0.03579 0.48804 0.51385 0.0
C445 C 0.99942 0.45662 0.46308 0.0
C446 C 0.99998 0.48101 0.4831 0.0
C447 C 0.00184 0.5527 0.54112 0.0
C448 C 0.00141 0.52879 0.52108 0.0
H449 H 0.93156 0.38921 0.42864 0.0
H450 H 0.93278 0.42426 0.46192 0.0
H451 H 0.06179 0.432 0.49009 0.0
H452 H 0.06884 0.62333 0.57549 0.0
H453 H 0.06786 0.58875 0.54214 0.0
C454 C 0.46016 0.55823 0.43353 0.0
C455 C 0.49585 0.59078 0.42536 0.0
C456 C 0.46149 0.53785 0.45251 0.0
C457 C 0.53743 0.49271 0.49164 0.0
H458 H 0.4389 0.52087 0.52226 0.0
C459 C 0.54284 0.44649 0.57207 0.0
C460 C 0.50741 0.41181 0.57995 0.0
C461 C 0.54179 0.46735 0.55312 0.0
C462 C 0.46654 0.51179 0.51385 0.0
H463 H 0.56007 0.63103 0.43046 0.0
H464 H 0.56255 0.59645 0.46375 0.0
H465 H 0.43614 0.56215 0.48959 0.0
H466 H 0.44391 0.36877 0.57442 0.0
H467 H 0.44185 0.40469 0.54121 0.0
H468 H 0.56784 0.44257 0.51594 0.0
C469 C 0.53382 0.58482 0.4555 0.0
C470 C 0.46497 0.53551 0.49511 0.0
C471 C 0.5324 0.60512 0.43651 0.0
C472 C 0.47137 0.39622 0.56858 0.0
C473 C 0.47019 0.41722 0.54965 0.0
C474 C 0.53902 0.46912 0.5104 0.0
C475 C 0.49849 0.55023 0.4637 0.0
C476 C 0.50037 0.52616 0.48375 0.0
C477 C 0.50528 0.45367 0.54172 0.0
C478 C 0.50357 0.47828 0.52173 0.0
H479 H 0.43144 0.54776 0.42516 0.0
H480 H 0.43382 0.51087 0.45829 0.0
H481 H 0.56505 0.48344 0.48323 0.0
H482 H 0.5711 0.4582 0.58064 0.0
H483 H 0.56923 0.49574 0.54752 0.0
C484 C 0.53773 0.11801 0.06652 0.0
C485 C 0.50501 0.09687 0.07843 0.0
C486 C 0.53558 0.09799 0.0475 0.0
C487 C 0.49696 0.95333 0.01538 0.0
H488 H 0.4986 0.10838 0.97641 0.0
C489 C 0.52235 0.89421 0.936 0.0
C490 C 0.49116 0.92591 0.92384 0.0
C491 C 0.52346 0.9128 0.9551 0.0
C492 C 0.49816 0.06463 0.98718 0.0
H493 H 0.44574 0.03485 0.08013 0.0
H494 H 0.44246 0.99813 0.04696 0.0
H495 H 0.50252 0.14687 0.00955 0.0
H496 H 0.43464 0.99651 0.92221 0.0
H497 H 0.43775 0.03218 0.95549 0.0
H498 H 0.49365 0.87098 0.99301 0.0
C499 C 0.46912 0.03186 0.05224 0.0
C500 C 0.50057 0.08657 0.00605 0.0
C501 C 0.47089 0.05315 0.07114 0.0
C502 C 0.46006 0.974 0.93118 0.0
C503 C 0.46163 0.99383 0.95018 0.0
C504 C 0.49557 0.93128 0.9965 0.0
C505 C 0.50138 0.05436 0.04025 0.0
C506 C 0.49968 0.03112 0.02029 0.0
C507 C 0.49353 0.96388 0.96227 0.0
C508 C 0.49582 0.98681 0.98226 0.0
H509 H 0.56547 0.14824 0.07196 0.0
H510 H 0.56118 0.11479 0.03854 0.0
H511 H 0.49639 0.90964 0.02616 0.0
H512 H 0.54626 0.85611 0.93064 0.0
H513 H 0.54829 0.88883 0.96417 0.0
C514 C 0.97434 0.89387 0.0684 0.0
C515 C 0.0069 0.92191 0.08042 0.0
C516 C 0.97321 0.91313 0.04934 0.0
C517 C 0.00172 0.06236 0.01726 0.0
H518 H 0.00069 0.90765 0.97817 0.0
C519 C 0.96448 0.12037 0.93803 0.0
C520 C 0.99705 0.09775 0.9262 0.0
C521 C 0.96573 0.09913 0.95697 0.0
C522 C 0.00089 0.95126 0.98898 0.0
H523 H 0.06541 0.98709 0.08186 0.0
H524 H 0.06238 0.02391 0.04865 0.0
H525 H 0.00242 0.86859 0.0113 0.0
H526 H 0.05503 0.03191 0.92448 0.0
H527 H 0.0566 0.99276 0.95754 0.0
H528 H 0.99917 0.145 0.99496 0.0
C529 C 0.03756 0.9878 0.05403 0.0
C530 C 0.00171 0.929 0.00785 0.0
C531 C 0.03911 0.9673 0.073 0.0
C532 C 0.03 0.05114 0.93344 0.0
C533 C 0.0308 0.02857 0.95226 0.0
C534 C 0.99987 0.08457 0.99841 0.0
C535 C 0.00448 0.96123 0.04208 0.0
C536 C 0.0025 0.98442 0.02212 0.0
C537 C 0.99882 0.05281 0.9642 0.0
C538 C 0.99979 0.02921 0.98413 0.0
H539 H 0.94946 0.85803 0.07384 0.0
H540 H 0.94743 0.89193 0.04037 0.0
H541 H 0.00214 0.10601 0.02807 0.0
H542 H 0.93761 0.15302 0.93259 0.0
H543 H 0.94035 0.11736 0.96588 0.0
C544 C 0.61573 0.16502 0.21661 0.0
C545 C 0.61676 0.19372 0.1982 0.0
C546 C 0.64861 0.18118 0.22961 0.0
C547 C 0.73546 0.31923 0.23934 0.0
H548 H 0.77598 0.16332 0.27425 0.0
C549 C 0.88574 0.35708 0.28722 0.0
C550 C 0.88424 0.32903 0.30568 0.0
C551 C 0.85236 0.34293 0.27431 0.0
C552 C 0.76466 0.20777 0.26475 0.0
H553 H 0.65346 0.26152 0.179 0.0
H554 H 0.71132 0.28835 0.20158 0.0
H555 H 0.7203 0.13199 0.25101 0.0
H556 H 0.84621 0.26499 0.32511 0.0
H557 H 0.78768 0.24114 0.30263 0.0
H558 H 0.78007 0.39487 0.25306 0.0
C559 C 0.68475 0.25415 0.20603 0.0
C560 C 0.73277 0.18979 0.25141 0.0
C561 C 0.65184 0.23794 0.19301 0.0
C562 C 0.84819 0.28791 0.31105 0.0
C563 C 0.81489 0.27348 0.29811 0.0
C564 C 0.76744 0.33717 0.25267 0.0
C565 C 0.68337 0.22641 0.22453 0.0
C566 C 0.71774 0.2453 0.23855 0.0
C567 C 0.8168 0.30014 0.27954 0.0
C568 C 0.78237 0.28165 0.26553 0.0
H569 H 0.58942 0.13004 0.22101 0.0
H570 H 0.64634 0.15943 0.24377 0.0
H571 H 0.72415 0.3637 0.22986 0.0
H572 H 0.91289 0.38961 0.28271 0.0
H573 H 0.85494 0.36386 0.26008 0.0
C574 C 0.61325 0.24882 0.71259 0.0
C575 C 0.61465 0.30891 0.69949 0.0
C576 C 0.64641 0.23801 0.72578 0.0
C577 C 0.75955 0.28166 0.73526 0.0
H578 H 0.73272 0.23271 0.78665 0.0
C579 C 0.88855 0.26995 0.79439 0.0
C580 C 0.88601 0.21019 0.80753 0.0
C581 C 0.8552 0.28359 0.78146 0.0
C582 C 0.74078 0.2455 0.77232 0.0
H583 H 0.65217 0.40479 0.69 0.0
H584 H 0.71027 0.38567 0.71301 0.0
H585 H 0.67536 0.25344 0.76346 0.0
H586 H 0.8464 0.1179 0.81738 0.0
H587 H 0.78818 0.14135 0.79472 0.0
H588 H 0.82495 0.2732 0.74407 0.0
C589 C 0.68358 0.34652 0.71294 0.0
C590 C 0.7079 0.25745 0.75903 0.0
C591 C 0.65032 0.35743 0.69975 0.0
C592 C 0.8491 0.16493 0.80758 0.0
C593 C 0.81575 0.17843 0.7946 0.0
C594 C 0.79244 0.26955 0.74854 0.0
C595 C 0.68188 0.28688 0.72617 0.0
C596 C 0.7169 0.27547 0.74034 0.0
C597 C 0.8185 0.2377 0.78131 0.0
C598 C 0.78346 0.25119 0.76723 0.0
H599 H 0.58666 0.20945 0.71255 0.0
H600 H 0.6445 0.19066 0.73553 0.0
H601 H 0.76755 0.2944 0.72092 0.0
H602 H 0.91626 0.3067 0.7942 0.0
H603 H 0.85804 0.33061 0.77167 0.0
C604 C 0.15065 0.65303 0.69866 0.0
C605 C 0.11371 0.69824 0.6983 0.0
C606 C 0.18425 0.66924 0.71135 0.0
C607 C 0.20862 0.77084 0.75601 0.0
H608 H 0.32524 0.75326 0.74057 0.0
C609 C 0.35135 0.87207 0.80275 0.0
C610 C 0.38712 0.82384 0.80359 0.0
C611 C 0.31799 0.85808 0.78978 0.0
C612 C 0.29284 0.75778 0.74514 0.0
H613 H 0.08364 0.79735 0.71056 0.0
H614 H 0.14219 0.82586 0.73254 0.0
H615 H 0.26729 0.7259 0.71809 0.0
H616 H 0.41527 0.72191 0.79176 0.0
H617 H 0.35732 0.69784 0.76917 0.0
H618 H 0.23422 0.80287 0.78305 0.0
C619 C 0.1449 0.77683 0.72335 0.0
C620 C 0.25963 0.74197 0.73227 0.0
C621 C 0.11133 0.76051 0.71073 0.0
C622 C 0.38862 0.76115 0.79124 0.0
C623 C 0.35538 0.74727 0.77828 0.0
C624 C 0.24184 0.78682 0.76886 0.0
C625 C 0.18169 0.73121 0.72389 0.0
C626 C 0.2171 0.74816 0.73755 0.0
C627 C 0.31969 0.79558 0.77737 0.0
C628 C 0.28433 0.78024 0.7636 0.0
H629 H 0.15326 0.60423 0.68939 0.0
H630 H 0.2119 0.63234 0.71155 0.0
H631 H 0.17625 0.77503 0.76064 0.0
H632 H 0.3494 0.92131 0.81192 0.0
H633 H 0.29113 0.89687 0.78928 0.0
C634 C 0.38876 0.76569 0.29415 0.0
C635 C 0.38644 0.70425 0.30682 0.0
C636 C 0.35537 0.78049 0.28132 0.0
C637 C 0.24108 0.74241 0.272 0.0
H638 H 0.26741 0.79839 0.22098 0.0
C639 C 0.1132 0.75269 0.21249 0.0
C640 C 0.11441 0.81449 0.19986 0.0
C641 C 0.14645 0.74045 0.22554 0.0
C642 C 0.25953 0.78368 0.23522 0.0
H643 H 0.3472 0.61015 0.31596 0.0
H644 H 0.2889 0.63565 0.29347 0.0
H645 H 0.325 0.77453 0.24387 0.0
H646 H 0.15166 0.91188 0.19108 0.0
H647 H 0.20992 0.89027 0.21388 0.0
H648 H 0.1756 0.75108 0.26329 0.0
C649 C 0.31634 0.6731 0.29363 0.0
C650 C 0.29253 0.77002 0.24836 0.0
C651 C 0.34974 0.65841 0.30652 0.0
C652 C 0.14996 0.86328 0.20047 0.0
C653 C 0.18331 0.85093 0.21354 0.0
C654 C 0.20809 0.75592 0.25885 0.0
C655 C 0.31885 0.73413 0.28082 0.0
C656 C 0.2837 0.7491 0.2669 0.0
C657 C 0.18181 0.78955 0.22628 0.0
C658 C 0.21694 0.77651 0.24031 0.0
H659 H 0.41629 0.80292 0.29426 0.0
H660 H 0.35801 0.82881 0.2719 0.0
H661 H 0.23315 0.72766 0.28623 0.0
H662 H 0.08671 0.71308 0.21215 0.0
H663 H 0.14469 0.69181 0.23492 0.0
C664 C 0.37254 0.21534 0.20607 0.0
C665 C 0.35489 0.192 0.1887 0.0
C666 C 0.3467 0.22578 0.22144 0.0
C667 C 0.23546 0.25952 0.2341 0.0
H668 H 0.27533 0.19165 0.28338 0.0
C669 C 0.12743 0.26347 0.29798 0.0
C670 C 0.1456 0.28782 0.31517 0.0
C671 C 0.15296 0.24967 0.28266 0.0
C672 C 0.26393 0.21168 0.26976 0.0
H673 H 0.2971 0.15975 0.1736 0.0
H674 H 0.2514 0.17767 0.20057 0.0
H675 H 0.31945 0.17108 0.25629 0.0
H676 H 0.20407 0.31832 0.32997 0.0
H677 H 0.24918 0.29469 0.30309 0.0
H678 H 0.18002 0.30041 0.24757 0.0
C679 C 0.28511 0.18915 0.20227 0.0
C680 C 0.2892 0.19985 0.25422 0.0
C681 C 0.31109 0.17864 0.18687 0.0
C682 C 0.18965 0.2985 0.31686 0.0
C683 C 0.2153 0.28474 0.30151 0.0
C684 C 0.2102 0.27139 0.24964 0.0
C685 C 0.30266 0.2127 0.21976 0.0
C686 C 0.27532 0.22381 0.23621 0.0
C687 C 0.1972 0.26055 0.28418 0.0
C688 C 0.22414 0.2477 0.26767 0.0
H689 H 0.40642 0.22531 0.20773 0.0
H690 H 0.36119 0.24485 0.2346 0.0
H691 H 0.2241 0.27973 0.22049 0.0
H692 H 0.09335 0.25579 0.29638 0.0
H693 H 0.13801 0.23024 0.26963 0.0
C694 C 0.37159 0.25738 0.70494 0.0
C695 C 0.35396 0.28574 0.68801 0.0
C696 C 0.34585 0.24348 0.72018 0.0
C697 C 0.24349 0.29912 0.73992 0.0
H698 H 0.26128 0.1192 0.7711 0.0
C699 C 0.12915 0.21755 0.79834 0.0
C700 C 0.14713 0.1906 0.81533 0.0
C701 C 0.15438 0.22832 0.78279 0.0
C702 C 0.25623 0.17018 0.76267 0.0
H703 H 0.29623 0.32304 0.67361 0.0
H704 H 0.25066 0.29817 0.7003 0.0
H705 H 0.30453 0.13825 0.74365 0.0
H706 H 0.20485 0.15218 0.82954 0.0
H707 H 0.2496 0.17164 0.8023 0.0
H708 H 0.19533 0.33126 0.75895 0.0
C709 C 0.28439 0.28673 0.70182 0.0
C710 C 0.28097 0.18104 0.74691 0.0
C711 C 0.31024 0.30043 0.68653 0.0
C712 C 0.1906 0.17357 0.81654 0.0
C713 C 0.21596 0.18423 0.80094 0.0
C714 C 0.21878 0.28829 0.75567 0.0
C715 C 0.30195 0.25828 0.71886 0.0
C716 C 0.27492 0.24569 0.73535 0.0
C717 C 0.19814 0.21196 0.78389 0.0
C718 C 0.22484 0.2237 0.76725 0.0
H719 H 0.40547 0.24702 0.70642 0.0
H720 H 0.36053 0.22289 0.73316 0.0
H721 H 0.2385 0.35021 0.73152 0.0
H722 H 0.09544 0.22991 0.79711 0.0
H723 H 0.13946 0.24839 0.76981 0.0
C724 C 0.69029 0.79636 0.81913 0.0
C725 C 0.64637 0.784 0.8174 0.0
C726 C 0.71624 0.78284 0.80387 0.0
C727 C 0.71917 0.68341 0.75793 0.0
H728 H 0.80531 0.83446 0.7471 0.0
C729 C 0.80901 0.68355 0.68823 0.0
C730 C 0.85267 0.69897 0.68957 0.0
C731 C 0.7837 0.69361 0.70387 0.0
C732 C 0.78171 0.79129 0.75002 0.0
H733 H 0.59471 0.74906 0.7986 0.0
H734 H 0.63985 0.72495 0.77195 0.0
H735 H 0.76248 0.84967 0.77477 0.0
H736 H 0.90466 0.73502 0.70804 0.0
H737 H 0.8607 0.75267 0.73538 0.0
H738 H 0.73838 0.6251 0.73315 0.0
C739 C 0.65457 0.74365 0.78509 0.0
C740 C 0.75722 0.79993 0.76592 0.0
C741 C 0.62872 0.75742 0.8003 0.0
C742 C 0.87081 0.72422 0.70669 0.0
C743 C 0.84562 0.73438 0.72228 0.0
C744 C 0.7437 0.67472 0.74203 0.0
C745 C 0.6986 0.7569 0.78662 0.0
C746 C 0.7256 0.74618 0.77005 0.0
C747 C 0.80176 0.71901 0.7211 0.0
C748 C 0.77525 0.72861 0.73787 0.0
H749 H 0.70433 0.81774 0.83217 0.0
H750 H 0.75008 0.79299 0.80555 0.0
H751 H 0.69543 0.64046 0.76083 0.0
H752 H 0.79465 0.66324 0.67516 0.0
H753 H 0.74998 0.68188 0.70244 0.0
C754 C 0.8101 0.79956 0.18628 0.0
C755 C 0.85376 0.78421 0.18773 0.0
C756 C 0.78422 0.78613 0.20157 0.0
C757 C 0.78019 0.68155 0.24678 0.0
H758 H 0.69696 0.83592 0.259 0.0
C759 C 0.69098 0.67793 0.31666 0.0
C760 C 0.64762 0.69604 0.31554 0.0
C761 C 0.71633 0.68845 0.30106 0.0
C762 C 0.71973 0.79184 0.25568 0.0
H763 H 0.90508 0.74426 0.20608 0.0
H764 H 0.86005 0.72031 0.23279 0.0
H765 H 0.73974 0.8522 0.23135 0.0
H766 H 0.59618 0.73733 0.29745 0.0
H767 H 0.64021 0.75578 0.27016 0.0
H768 H 0.76019 0.62122 0.27114 0.0
C769 C 0.84545 0.74128 0.21984 0.0
C770 C 0.7442 0.80111 0.2398 0.0
C771 C 0.87124 0.75497 0.2046 0.0
C772 C 0.62982 0.72437 0.29865 0.0
C773 C 0.65506 0.735 0.28309 0.0
C774 C 0.75568 0.67223 0.26267 0.0
C775 C 0.80168 0.7573 0.21858 0.0
C776 C 0.77477 0.74615 0.23517 0.0
C777 C 0.69862 0.71702 0.28406 0.0
C778 C 0.72516 0.7273 0.26732 0.0
H779 H 0.79621 0.82298 0.17342 0.0
H780 H 0.75057 0.79848 0.2001 0.0
H781 H 0.8031 0.63766 0.24349 0.0
H782 H 0.70508 0.65527 0.32955 0.0
H783 H 0.74983 0.67464 0.30233 0.0
C784 C 0.30028 0.32692 0.5707 0.0
C785 C 0.33436 0.37659 0.57476 0.0
C786 C 0.27896 0.32954 0.55324 0.0
C787 C 0.26304 0.44824 0.51019 0.0
H788 H 0.22907 0.25351 0.48831 0.0
C789 C 0.20059 0.41198 0.43293 0.0
C790 C 0.1646 0.36493 0.43037 0.0
C791 C 0.22166 0.41662 0.45049 0.0
C792 C 0.2381 0.30839 0.49429 0.0
H793 H 0.37286 0.46823 0.56383 0.0
H794 H 0.33627 0.47193 0.53314 0.0
H795 H 0.26464 0.25624 0.51907 0.0
H796 H 0.12143 0.28886 0.44455 0.0
H797 H 0.15858 0.29584 0.4749 0.0
H798 H 0.23689 0.49991 0.48509 0.0
C799 C 0.32523 0.43212 0.54357 0.0
C800 C 0.25833 0.31007 0.51198 0.0
C801 C 0.34624 0.43005 0.56115 0.0
C802 C 0.1498 0.32378 0.44583 0.0
C803 C 0.17095 0.32804 0.46328 0.0
C804 C 0.24304 0.44645 0.49238 0.0
C805 C 0.29165 0.38119 0.5393 0.0
C806 C 0.27071 0.38002 0.52027 0.0
C807 C 0.20725 0.37407 0.46579 0.0
C808 C 0.23001 0.37651 0.48433 0.0
H809 H 0.2903 0.28558 0.58101 0.0
H810 H 0.25265 0.29065 0.55063 0.0
H811 H 0.27174 0.5032 0.5162 0.0
H812 H 0.21286 0.44426 0.42131 0.0
H813 H 0.24971 0.45228 0.45201 0.0
C814 C 0.85152 0.66192 0.55831 0.0
C815 C 0.83648 0.62146 0.57382 0.0
C816 C 0.831 0.65605 0.54076 0.0
C817 C 0.7588 0.53639 0.51177 0.0
H818 H 0.73943 0.72574 0.4844 0.0
C819 C 0.65579 0.55526 0.44286 0.0
C820 C 0.66894 0.60701 0.4291 0.0
C821 C 0.6768 0.55233 0.46043 0.0
C822 C 0.7451 0.67214 0.4917 0.0
H823 H 0.78879 0.54117 0.5829 0.0
H824 H 0.75268 0.53084 0.55204 0.0
H825 H 0.77439 0.72916 0.51527 0.0
H826 H 0.71538 0.69369 0.42255 0.0
H827 H 0.75284 0.68729 0.45295 0.0
H828 H 0.72971 0.47933 0.48805 0.0
C829 C 0.78048 0.56711 0.55357 0.0
C830 C 0.76503 0.67418 0.50944 0.0
C831 C 0.80107 0.57312 0.57122 0.0
C832 C 0.70439 0.65376 0.43297 0.0
C833 C 0.72562 0.65038 0.45044 0.0
C834 C 0.73897 0.53427 0.49392 0.0
C835 C 0.79497 0.60932 0.53822 0.0
C836 C 0.77242 0.60637 0.51963 0.0
C837 C 0.71158 0.6008 0.46453 0.0
C838 C 0.7322 0.60215 0.48361 0.0
H839 H 0.87953 0.69777 0.55968 0.0
H840 H 0.84354 0.68788 0.52912 0.0
H841 H 0.76435 0.48314 0.51924 0.0
H842 H 0.62813 0.51937 0.44033 0.0
H843 H 0.66482 0.51412 0.471 0.0
C844 C 0.84572 0.93342 0.06141 0.0
C845 C 0.83456 0.87922 0.07497 0.0
C846 C 0.82421 0.93573 0.04396 0.0
C847 C 0.7569 0.81404 0.01243 0.0
H848 H 0.73335 0.00505 0.98637 0.0
C849 C 0.64567 0.83002 0.94718 0.0
C850 C 0.65978 0.87205 0.93172 0.0
C851 C 0.66743 0.83362 0.96449 0.0
C852 C 0.74009 0.95128 0.99343 0.0
H853 H 0.79143 0.78678 0.08123 0.0
H854 H 0.75291 0.79217 0.05106 0.0
H855 H 0.76937 0.00716 0.01724 0.0
H856 H 0.7076 0.95208 0.92254 0.0
H857 H 0.74543 0.95908 0.95302 0.0
H858 H 0.72699 0.75835 0.98878 0.0
C859 C 0.779 0.83158 0.05362 0.0
C860 C 0.76076 0.95239 0.0111 0.0
C861 C 0.80081 0.82875 0.07096 0.0
C862 C 0.69575 0.91926 0.93416 0.0
C863 C 0.71742 0.92328 0.95159 0.0
C864 C 0.73596 0.81303 0.99489 0.0
C865 C 0.79086 0.88423 0.03976 0.0
C866 C 0.76922 0.88374 0.02088 0.0
C867 C 0.70368 0.87986 0.96687 0.0
C868 C 0.72712 0.88158 0.98524 0.0
H869 H 0.87211 0.97217 0.06406 0.0
H870 H 0.83463 0.97631 0.03357 0.0
H871 H 0.76379 0.75992 0.01929 0.0
H872 H 0.61741 0.79476 0.94599 0.0
H873 H 0.65561 0.80069 0.97611 0.0
C874 C 0.35573 0.15938 0.05737 0.0
C875 C 0.34137 0.11705 0.07271 0.0
C876 C 0.3354 0.15343 0.03978 0.0
C877 C 0.26511 0.03181 0.01029 0.0
H878 H 0.24253 0.22203 0.98375 0.0
C879 C 0.15979 0.05152 0.94204 0.0
C880 C 0.17152 0.10534 0.92847 0.0
C881 C 0.1817 0.04767 0.95939 0.0
C882 C 0.24912 0.16822 0.9908 0.0
H883 H 0.29516 0.03328 0.08144 0.0
H884 H 0.2594 0.02279 0.05051 0.0
H885 H 0.27777 0.22503 0.01454 0.0
H886 H 0.21679 0.1942 0.92199 0.0
H887 H 0.25565 0.18643 0.95203 0.0
H888 H 0.23655 0.97502 0.98641 0.0
C889 C 0.28652 0.06059 0.0522 0.0
C890 C 0.26922 0.17 0.00851 0.0
C891 C 0.30691 0.06669 0.06989 0.0
C892 C 0.2067 0.15288 0.93228 0.0
C893 C 0.22878 0.14865 0.94954 0.0
C894 C 0.24509 0.02996 0.99247 0.0
C895 C 0.30025 0.10473 0.03702 0.0
C896 C 0.27772 0.10189 0.01842 0.0
C897 C 0.21596 0.09728 0.96349 0.0
C898 C 0.23712 0.09821 0.98246 0.0
H899 H 0.38303 0.1969 0.05891 0.0
H900 H 0.34737 0.18683 0.02827 0.0
H901 H 0.27153 0.97834 0.01753 0.0
H902 H 0.13251 0.01468 0.93956 0.0
H903 H 0.17071 0.00791 0.96985 0.0
loop_
_geom_bond_atom_site_label_1
_geom_bond_atom_site_label_2
_geom_bond_distance
_geom_bond_site_symmetry_2
_ccdc_geom_bond_type
C0 C1 1.443 . S
C0 N4 1.376 . S
C0 C38 1.389 . S
C1 C0 1.443 . S
C1 C2 1.340 . S
C1 H41 0.951 . S
C2 C1 1.340 . S
C2 C3 1.439 . S
C2 H42 0.950 . S
C3 C2 1.439 . S
C3 N4 1.374 . S
C3 C37 1.395 . S
N4 C0 1.376 . S
N4 C3 1.374 . S
N4 Co5 2.008 . S
Co5 N4 2.008 . S
Co5 N6 1.995 . S
Co5 N11 2.008 . S
Co5 N16 1.995 . S
Co5 N21 2.282 1_455 S
Co5 N27 2.282 . S
N6 Co5 1.995 . S
N6 C7 1.376 . S
N6 C10 1.383 . S
C7 N6 1.376 . S
C7 C8 1.446 . S
C7 C37 1.391 . S
C8 C7 1.446 . S
C8 C9 1.339 . S
C8 H43 0.949 . S
C9 C8 1.339 . S
C9 C10 1.439 . S
C9 H44 0.950 . S
C10 N6 1.383 . S
C10 C9 1.439 . S
C10 C39 1.392 . S
N11 Co5 2.008 . S
N11 C12 1.376 . S
N11 C15 1.374 . S
C12 N11 1.376 . S
C12 C13 1.443 . S
C12 C39 1.389 . S
C13 C12 1.443 . S
C13 C14 1.340 1_545 S
C13 H45 0.951 . S
C14 C13 1.340 1_565 S
C14 C15 1.439 1_565 S
C14 H46 0.950 . S
C15 N11 1.374 . S
C15 C14 1.439 1_545 S
C15 C40 1.395 . S
N16 Co5 1.995 . S
N16 C17 1.376 . S
N16 C20 1.383 1_455 S
C17 N16 1.376 . S
C17 C18 1.446 1_455 S
C17 C40 1.391 . S
C18 C17 1.446 1_655 S
C18 C19 1.339 . S
C18 H47 0.949 . S
C19 C18 1.339 . S
C19 C20 1.439 . S
C19 H48 0.950 . S
C20 N16 1.383 1_655 S
C20 C19 1.439 . S
C20 C38 1.392 1_655 S
N21 Co5 2.282 1_655 S
N21 C24 1.332 . S
N21 C26 1.332 . S
C22 C23 1.386 . S
C22 C25 1.388 . S
C23 C22 1.386 . S
C23 C24 1.382 . S
C23 H49 0.950 . S
C24 N21 1.332 . S
C24 C23 1.382 . S
C24 H35 0.952 . S
C25 C22 1.388 . S
C25 C26 1.382 . S
C25 H50 0.950 . S
C26 N21 1.332 . S
C26 C25 1.382 . S
C26 H36 0.948 1_655 S
N27 Co5 2.282 . S
N27 C31 1.332 . S
N27 C32 1.332 . S
C28 C29 1.388 . S
C28 C32 1.382 . S
C28 H51 0.950 . S
C29 C28 1.388 . S
C29 C30 1.386 . S
C30 C29 1.386 . S
C30 C31 1.382 . S
C30 H52 0.950 . S
C31 N27 1.332 . S
C31 C30 1.382 . S
C31 H33 0.952 . S
C32 N27 1.332 . S
C32 C28 1.382 . S
C32 H34 0.948 . S
H33 C31 0.952 . S
H34 C32 0.948 . S
H35 C24 0.952 . S
H36 C26 0.948 1_455 S
C37 C3 1.395 . S
C37 C7 1.391 . S
C38 C0 1.389 . S
C38 C20 1.392 1_455 S
C39 C10 1.392 . S
C39 C12 1.389 . S
C40 C15 1.395 . S
C40 C17 1.391 . S
H41 C1 0.951 . S
H42 C2 0.950 . S
H43 C8 0.949 . S
H44 C9 0.950 . S
H45 C13 0.951 . S
H46 C14 0.950 . S
H47 C18 0.949 . S
H48 C19 0.950 . S
H49 C23 0.950 . S
H50 C25 0.950 . S
H51 C28 0.950 . S
H52 C30 0.950 . S
C53 C54 1.443 . S
C53 N57 1.376 . S
C53 C91 1.389 . S
C54 C53 1.443 . S
C54 C55 1.340 . S
C54 H94 0.951 . S
C55 C54 1.340 . S
C55 C56 1.439 . S
C55 H95 0.950 . S
C56 C55 1.439 . S
C56 N57 1.374 . S
C56 C90 1.395 . S
N57 C53 1.376 . S
N57 C56 1.374 . S
N57 Co58 2.008 . S
Co58 N57 2.008 . S
Co58 N59 1.995 . S
Co58 N64 2.008 . S
Co58 N69 1.995 . S
Co58 N74 2.282 . S
Co58 N80 2.282 . S
N59 Co58 1.995 . S
N59 C60 1.376 . S
N59 C63 1.383 . S
C60 N59 1.376 . S
C60 C61 1.446 . S
C60 C90 1.391 . S
C61 C60 1.446 . S
C61 C62 1.339 . S
C61 H96 0.949 . S
C62 C61 1.339 . S
C62 C63 1.439 . S
C62 H97 0.950 . S
C63 N59 1.383 . S
C63 C62 1.439 . S
C63 C92 1.392 . S
N64 Co58 2.008 . S
N64 C65 1.376 . S
N64 C68 1.374 . S
C65 N64 1.376 . S
C65 C66 1.443 . S
C65 C92 1.389 . S
C66 C65 1.443 . S
C66 C67 1.340 1_545 S
C66 H98 0.951 . S
C67 C66 1.340 1_565 S
C67 C68 1.439 1_565 S
C67 H99 0.950 . S
C68 N64 1.374 . S
C68 C67 1.439 1_545 S
C68 C93 1.395 . S
N69 Co58 1.995 . S
N69 C70 1.376 . S
N69 C73 1.383 . S
C70 N69 1.376 . S
C70 C71 1.446 . S
C70 C93 1.391 . S
C71 C70 1.446 . S
C71 C72 1.339 . S
C71 H100 0.949 . S
C72 C71 1.339 . S
C72 C73 1.439 . S
C72 H101 0.950 . S
C73 N69 1.383 . S
C73 C72 1.439 . S
C73 C91 1.392 . S
N74 Co58 2.282 . S
N74 C77 1.332 . S
N74 C79 1.332 . S
C75 C76 1.386 . S
C75 C78 1.388 . S
C76 C75 1.386 . S
C76 C77 1.382 . S
C76 H102 0.950 . S
C77 N74 1.332 . S
C77 C76 1.382 . S
C77 H88 0.952 . S
C78 C75 1.388 . S
C78 C79 1.382 . S
C78 H103 0.950 . S
C79 N74 1.332 . S
C79 C78 1.382 . S
C79 H89 0.948 . S
N80 Co58 2.282 . S
N80 C84 1.332 . S
N80 C85 1.332 . S
C81 C82 1.388 . S
C81 C85 1.382 . S
C81 H104 0.950 . S
C82 C81 1.388 . S
C82 C83 1.386 . S
C83 C82 1.386 . S
C83 C84 1.382 . S
C83 H105 0.950 . S
C84 N80 1.332 . S
C84 C83 1.382 . S
C84 H86 0.952 . S
C85 N80 1.332 . S
C85 C81 1.382 . S
C85 H87 0.948 . S
H86 C84 0.952 . S
H87 C85 0.948 . S
H88 C77 0.952 . S
H89 C79 0.948 . S
C90 C56 1.395 . S
C90 C60 1.391 . S
C91 C53 1.389 . S
C91 C73 1.392 . S
C92 C63 1.392 . S
C92 C65 1.389 . S
C93 C68 1.395 . S
C93 C70 1.391 . S
H94 C54 0.951 . S
H95 C55 0.950 . S
H96 C61 0.949 . S
H97 C62 0.950 . S
H98 C66 0.951 . S
H99 C67 0.950 . S
H100 C71 0.949 . S
H101 C72 0.950 . S
H102 C76 0.950 . S
H103 C78 0.950 . S
H104 C81 0.950 . S
H105 C83 0.950 . S
C106 C107 1.443 1_655 S
C106 N110 1.376 . S
C106 C144 1.389 . S
C107 C106 1.443 1_455 S
C107 C108 1.335 1_455 S
C107 H147 0.951 . S
C108 C107 1.335 1_655 S
C108 C109 1.449 . S
C108 H148 0.946 1_655 S
C109 C108 1.449 . S
C109 N110 1.374 . S
C109 C143 1.395 . S
N110 C106 1.376 . S
N110 C109 1.374 . S
N110 Co111 2.008 . S
Co111 N110 2.008 . S
Co111 N112 1.995 . S
Co111 N117 2.008 . S
Co111 N122 1.995 . S
Co111 N127 2.282 1_655 S
Co111 N133 2.282 . S
N112 Co111 1.995 . S
N112 C113 1.376 . S
N112 C116 1.383 . S
C113 N112 1.376 . S
C113 C114 1.446 1_565 S
C113 C143 1.391 . S
C114 C113 1.446 1_545 S
C114 C115 1.339 1_545 S
C114 H149 0.949 . S
C115 C114 1.339 1_565 S
C115 C116 1.439 . S
C115 H150 0.950 . S
C116 N112 1.383 . S
C116 C115 1.439 . S
C116 C145 1.392 . S
N117 Co111 2.008 . S
N117 C118 1.376 . S
N117 C121 1.374 . S
C118 N117 1.376 . S
C118 C119 1.443 . S
C118 C145 1.389 . S
C119 C118 1.443 . S
C119 C120 1.340 . S
C119 H151 0.951 . S
C120 C119 1.340 . S
C120 C121 1.439 . S
C120 H152 0.950 . S
C121 N117 1.374 . S
C121 C120 1.439 . S
C121 C146 1.395 . S
N122 Co111 1.995 . S
N122 C123 1.376 . S
N122 C126 1.383 . S
C123 N122 1.376 . S
C123 C124 1.446 . S
C123 C146 1.391 . S
C124 C123 1.446 . S
C124 C125 1.339 . S
C124 H153 0.949 . S
C125 C124 1.339 . S
C125 C126 1.439 . S
C125 H154 0.939 1_655 S
C126 N122 1.383 . S
C126 C125 1.439 . S
C126 C144 1.392 . S
N127 Co111 2.282 1_455 S
N127 C130 1.332 . S
N127 C132 1.332 . S
C128 C129 1.386 . S
C128 C131 1.388 . S
C129 C128 1.386 . S
C129 C130 1.382 . S
C129 H155 0.950 . S
C130 N127 1.332 . S
C130 C129 1.382 . S
C130 H141 0.952 . S
C131 C128 1.388 . S
C131 C132 1.382 . S
C131 H156 0.950 . S
C132 N127 1.332 . S
C132 C131 1.382 . S
C132 H142 0.948 . S
N133 Co111 2.282 . S
N133 C137 1.332 . S
N133 C138 1.332 . S
C134 C135 1.388 . S
C134 C138 1.382 . S
C134 H157 0.950 . S
C135 C134 1.388 . S
C135 C136 1.386 . S
C136 C135 1.386 . S
C136 C137 1.382 . S
C136 H158 0.950 . S
C137 N133 1.332 . S
C137 C136 1.382 . S
C137 H139 0.952 . S
C138 N133 1.332 . S
C138 C134 1.382 . S
C138 H140 0.948 . S
H139 C137 0.952 . S
H140 C138 0.948 . S
H141 C130 0.952 . S
H142 C132 0.948 . S
C143 C109 1.395 . S
C143 C113 1.391 . S
C144 C106 1.389 . S
C144 C126 1.392 . S
C145 C116 1.392 . S
C145 C118 1.389 . S
C146 C121 1.395 . S
C146 C123 1.391 . S
H147 C107 0.951 . S
H148 C108 0.946 1_455 S
H149 C114 0.949 . S
H150 C115 0.950 . S
H151 C119 0.951 . S
H152 C120 0.950 . S
H153 C124 0.949 . S
H154 C125 0.939 1_455 S
H155 C129 0.950 . S
H156 C131 0.950 . S
H157 C134 0.950 . S
H158 C136 0.950 . S
C159 C160 1.443 . S
C159 N163 1.376 . S
C159 C197 1.389 . S
C160 C159 1.443 . S
C160 C161 1.340 . S
C160 H200 0.951 . S
C161 C160 1.340 . S
C161 C162 1.439 . S
C161 H201 0.950 . S
C162 C161 1.439 . S
C162 N163 1.374 . S
C162 C196 1.395 . S
N163 C159 1.376 . S
N163 C162 1.374 . S
N163 Co164 2.008 . S
Co164 N163 2.008 . S
Co164 N165 1.995 . S
Co164 N170 2.008 . S
Co164 N175 1.995 . S
Co164 N180 2.282 . S
Co164 N186 2.282 . S
N165 Co164 1.995 . S
N165 C166 1.376 . S
N165 C169 1.383 . S
C166 N165 1.376 . S
C166 C167 1.446 1_565 S
C166 C196 1.391 . S
C167 C166 1.446 1_545 S
C167 C168 1.339 1_545 S
C167 H202 0.949 . S
C168 C167 1.339 1_565 S
C168 C169 1.439 . S
C168 H203 0.950 . S
C169 N165 1.383 . S
C169 C168 1.439 . S
C169 C198 1.392 . S
N170 Co164 2.008 . S
N170 C171 1.376 . S
N170 C174 1.374 . S
C171 N170 1.376 . S
C171 C172 1.443 . S
C171 C198 1.389 . S
C172 C171 1.443 . S
C172 C173 1.340 . S
C172 H204 0.951 . S
C173 C172 1.340 . S
C173 C174 1.439 . S
C173 H205 0.950 . S
C174 N170 1.374 . S
C174 C173 1.439 . S
C174 C199 1.395 . S
N175 Co164 1.995 . S
N175 C176 1.376 . S
N175 C179 1.383 . S
C176 N175 1.376 . S
C176 C177 1.446 . S
C176 C199 1.391 . S
C177 C176 1.446 . S
C177 C178 1.339 . S
C177 H206 0.949 . S
C178 C177 1.339 . S
C178 C179 1.439 . S
C178 H207 0.950 . S
C179 N175 1.383 . S
C179 C178 1.439 . S
C179 C197 1.392 . S
N180 Co164 2.282 . S
N180 C183 1.332 . S
N180 C185 1.332 . S
C181 C182 1.386 . S
C181 C184 1.388 . S
C182 C181 1.386 . S
C182 C183 1.382 . S
C182 H208 0.950 . S
C183 N180 1.332 . S
C183 C182 1.382 . S
C183 H194 0.952 . S
C184 C181 1.388 . S
C184 C185 1.382 . S
C184 H209 0.950 . S
C185 N180 1.332 . S
C185 C184 1.382 . S
C185 H195 0.948 . S
N186 Co164 2.282 . S
N186 C190 1.332 . S
N186 C191 1.332 . S
C187 C188 1.388 . S
C187 C191 1.382 . S
C187 H210 0.950 . S
C188 C187 1.388 . S
C188 C189 1.386 . S
C189 C188 1.386 . S
C189 C190 1.382 . S
C189 H211 0.950 . S
C190 N186 1.332 . S
C190 C189 1.382 . S
C190 H192 0.952 . S
C191 N186 1.332 . S
C191 C187 1.382 . S
C191 H193 0.948 . S
H192 C190 0.952 . S
H193 C191 0.948 . S
H194 C183 0.952 . S
H195 C185 0.948 . S
C196 C162 1.395 . S
C196 C166 1.391 . S
C197 C159 1.389 . S
C197 C179 1.392 . S
C198 C169 1.392 . S
C198 C171 1.389 . S
C199 C174 1.395 . S
C199 C176 1.391 . S
H200 C160 0.951 . S
H201 C161 0.950 . S
H202 C167 0.949 . S
H203 C168 0.950 . S
H204 C172 0.951 . S
H205 C173 0.950 . S
H206 C177 0.949 . S
H207 C178 0.950 . S
H208 C182 0.950 . S
H209 C184 0.950 . S
H210 C187 0.950 . S
H211 C189 0.950 . S
C212 C213 1.443 . S
C212 N216 1.376 . S
C212 C250 1.389 . S
C213 C212 1.443 . S
C213 C214 1.340 . S
C213 H253 0.951 . S
C214 C213 1.340 . S
C214 C215 1.439 . S
C214 H254 0.950 . S
C215 C214 1.439 . S
C215 N216 1.374 . S
C215 C249 1.395 . S
N216 C212 1.376 . S
N216 C215 1.374 . S
N216 Co217 2.008 . S
Co217 N216 2.008 . S
Co217 N218 1.995 . S
Co217 N223 2.008 . S
Co217 N228 1.995 . S
Co217 N233 2.282 . S
Co217 N239 2.282 . S
N218 Co217 1.995 . S
N218 C219 1.376 . S
N218 C222 1.383 . S
C219 N218 1.376 . S
C219 C220 1.446 . S
C219 C249 1.391 . S
C220 C219 1.446 . S
C220 C221 1.339 . S
C220 H255 0.949 . S
C221 C220 1.339 . S
C221 C222 1.439 . S
C221 H256 0.950 . S
C222 N218 1.383 . S
C222 C221 1.439 . S
C222 C251 1.392 . S
N223 Co217 2.008 . S
N223 C224 1.376 . S
N223 C227 1.374 . S
C224 N223 1.376 . S
C224 C225 1.443 . S
C224 C251 1.389 . S
C225 C224 1.443 . S
C225 C226 1.340 . S
C225 H257 0.951 . S
C226 C225 1.340 . S
C226 C227 1.439 . S
C226 H258 0.950 . S
C227 N223 1.374 . S
C227 C226 1.439 . S
C227 C252 1.395 . S
N228 Co217 1.995 . S
N228 C229 1.376 . S
N228 C232 1.383 . S
C229 N228 1.376 . S
C229 C230 1.446 . S
C229 C252 1.391 . S
C230 C229 1.446 . S
C230 C231 1.339 . S
C230 H259 0.949 . S
C231 C230 1.339 . S
C231 C232 1.439 . S
C231 H260 0.950 . S
C232 N228 1.383 . S
C232 C231 1.439 . S
C232 C250 1.392 . S
N233 Co217 2.282 . S
N233 C236 1.332 . S
N233 C238 1.332 . S
C234 C235 1.386 . S
C234 C237 1.388 . S
C235 C234 1.386 . S
C235 C236 1.382 . S
C235 H261 0.950 . S
C236 N233 1.332 . S
C236 C235 1.382 . S
C236 H247 0.952 . S
C237 C234 1.388 . S
C237 C238 1.382 . S
C237 H262 0.950 . S
C238 N233 1.332 . S
C238 C237 1.382 . S
C238 H248 0.948 . S
N239 Co217 2.282 . S
N239 C243 1.332 . S
N239 C244 1.332 . S
C240 C241 1.388 . S
C240 C244 1.382 . S
C240 H263 0.950 . S
C241 C240 1.388 . S
C241 C242 1.386 . S
C242 C241 1.386 . S
C242 C243 1.382 . S
C242 H264 0.950 . S
C243 N239 1.332 . S
C243 C242 1.382 . S
C243 H245 0.952 . S
C244 N239 1.332 . S
C244 C240 1.382 . S
C244 H246 0.948 . S
H245 C243 0.952 . S
H246 C244 0.948 . S
H247 C236 0.952 . S
H248 C238 0.948 . S
C249 C215 1.395 . S
C249 C219 1.391 . S
C250 C212 1.389 . S
C250 C232 1.392 . S
C251 C222 1.392 . S
C251 C224 1.389 . S
C252 C227 1.395 . S
C252 C229 1.391 . S
H253 C213 0.951 . S
H254 C214 0.950 . S
H255 C220 0.949 . S
H256 C221 0.950 . S
H257 C225 0.951 . S
H258 C226 0.950 . S
H259 C230 0.949 . S
H260 C231 0.950 . S
H261 C235 0.950 . S
H262 C237 0.950 . S
H263 C240 0.950 . S
H264 C242 0.950 . S
C265 C266 1.443 . S
C265 N269 1.376 . S
C265 C303 1.389 . S
C266 C265 1.443 . S
C266 C267 1.340 . S
C266 H306 0.951 . S
C267 C266 1.340 . S
C267 C268 1.439 . S
C267 H307 0.950 . S
C268 C267 1.439 . S
C268 N269 1.374 . S
C268 C302 1.395 . S
N269 C265 1.376 . S
N269 C268 1.374 . S
N269 Co270 2.008 . S
Co270 N269 2.008 . S
Co270 N271 1.995 . S
Co270 N276 2.008 . S
Co270 N281 1.995 . S
Co270 N286 2.282 1_655 S
Co270 N292 2.282 . S
N271 Co270 1.995 . S
N271 C272 1.376 . S
N271 C275 1.383 . S
C272 N271 1.376 . S
C272 C273 1.446 . S
C272 C302 1.391 . S
C273 C272 1.446 . S
C273 C274 1.339 . S
C273 H308 0.949 . S
C274 C273 1.339 . S
C274 C275 1.439 . S
C274 H309 0.950 . S
C275 N271 1.383 . S
C275 C274 1.439 . S
C275 C304 1.392 . S
N276 Co270 2.008 . S
N276 C277 1.376 . S
N276 C280 1.374 . S
C277 N276 1.376 . S
C277 C278 1.443 . S
C277 C304 1.389 . S
C278 C277 1.443 . S
C278 C279 1.340 . S
C278 H310 0.951 . S
C279 C278 1.340 . S
C279 C280 1.439 . S
C279 H311 0.950 . S
C280 N276 1.374 . S
C280 C279 1.439 . S
C280 C305 1.395 . S
N281 Co270 1.995 . S
N281 C282 1.376 . S
N281 C285 1.383 1_655 S
C282 N281 1.376 . S
C282 C283 1.446 1_655 S
C282 C305 1.391 . S
C283 C282 1.446 1_455 S
C283 C284 1.339 . S
C283 H312 0.949 . S
C284 C283 1.339 . S
C284 C285 1.439 . S
C284 H313 0.950 . S
C285 N281 1.383 1_455 S
C285 C284 1.439 . S
C285 C303 1.392 1_455 S
N286 Co270 2.282 1_455 S
N286 C289 1.332 . S
N286 C291 1.332 . S
C287 C288 1.386 . S
C287 C290 1.388 . S
C288 C287 1.386 . S
C288 C289 1.382 . S
C288 H314 0.950 . S
C289 N286 1.332 . S
C289 C288 1.382 . S
C289 H300 0.952 . S
C290 C287 1.388 . S
C290 C291 1.382 . S
C290 H315 0.950 . S
C291 N286 1.332 . S
C291 C290 1.382 . S
C291 H301 0.948 1_455 S
N292 Co270 2.282 . S
N292 C296 1.332 . S
N292 C297 1.332 . S
C293 C294 1.388 . S
C293 C297 1.382 . S
C293 H316 0.950 . S
C294 C293 1.388 . S
C294 C295 1.386 . S
C295 C294 1.386 . S
C295 C296 1.382 . S
C295 H317 0.950 . S
C296 N292 1.332 . S
C296 C295 1.382 . S
C296 H298 0.952 . S
C297 N292 1.332 . S
C297 C293 1.382 . S
C297 H299 0.948 . S
H298 C296 0.952 . S
H299 C297 0.948 . S
H300 C289 0.952 . S
H301 C291 0.948 1_655 S
C302 C268 1.395 . S
C302 C272 1.391 . S
C303 C265 1.389 . S
C303 C285 1.392 1_655 S
C304 C275 1.392 . S
C304 C277 1.389 . S
C305 C280 1.395 . S
C305 C282 1.391 . S
H306 C266 0.951 . S
H307 C267 0.950 . S
H308 C273 0.949 . S
H309 C274 0.950 . S
H310 C278 0.951 . S
H311 C279 0.950 . S
H312 C283 0.949 . S
H313 C284 0.950 . S
H314 C288 0.950 . S
H315 C290 0.950 . S
H316 C293 0.950 . S
H317 C295 0.950 . S
C318 C319 1.443 . S
C318 N322 1.376 . S
C318 C356 1.389 . S
C319 C318 1.443 . S
C319 C320 1.340 . S
C319 H359 0.951 . S
C320 C319 1.340 . S
C320 C321 1.439 . S
C320 H360 0.950 . S
C321 C320 1.439 . S
C321 N322 1.374 . S
C321 C355 1.395 . S
N322 C318 1.376 . S
N322 C321 1.374 . S
N322 Co323 2.008 . S
Co323 N322 2.008 . S
Co323 N324 1.995 . S
Co323 N329 2.008 . S
Co323 N334 1.995 . S
Co323 N339 2.282 . S
Co323 N345 2.282 . S
N324 Co323 1.995 . S
N324 C325 1.376 . S
N324 C328 1.383 . S
C325 N324 1.376 . S
C325 C326 1.446 . S
C325 C355 1.391 . S
C326 C325 1.446 . S
C326 C327 1.339 . S
C326 H361 0.949 . S
C327 C326 1.339 . S
C327 C328 1.439 . S
C327 H362 0.950 . S
C328 N324 1.383 . S
C328 C327 1.439 . S
C328 C357 1.392 . S
N329 Co323 2.008 . S
N329 C330 1.376 . S
N329 C333 1.374 . S
C330 N329 1.376 . S
C330 C331 1.443 . S
C330 C357 1.389 . S
C331 C330 1.443 . S
C331 C332 1.340 . S
C331 H363 0.951 . S
C332 C331 1.340 . S
C332 C333 1.439 . S
C332 H364 0.950 . S
C333 N329 1.374 . S
C333 C332 1.439 . S
C333 C358 1.395 . S
N334 Co323 1.995 . S
N334 C335 1.376 . S
N334 C338 1.383 . S
C335 N334 1.376 . S
C335 C336 1.446 . S
C335 C358 1.391 . S
C336 C335 1.446 . S
C336 C337 1.339 . S
C336 H365 0.949 . S
C337 C336 1.339 . S
C337 C338 1.439 . S
C337 H366 0.950 . S
C338 N334 1.383 . S
C338 C337 1.439 . S
C338 C356 1.392 . S
N339 Co323 2.282 . S
N339 C342 1.332 . S
N339 C344 1.332 . S
C340 C341 1.386 . S
C340 C343 1.388 . S
C341 C340 1.386 . S
C341 C342 1.382 . S
C341 H367 0.950 . S
C342 N339 1.332 . S
C342 C341 1.382 . S
C342 H353 0.952 . S
C343 C340 1.388 . S
C343 C344 1.382 . S
C343 H368 0.950 . S
C344 N339 1.332 . S
C344 C343 1.382 . S
C344 H354 0.948 . S
N345 Co323 2.282 . S
N345 C349 1.332 . S
N345 C350 1.332 . S
C346 C347 1.388 . S
C346 C350 1.382 . S
C346 H369 0.950 . S
C347 C346 1.388 . S
C347 C348 1.386 . S
C348 C347 1.386 . S
C348 C349 1.382 . S
C348 H370 0.950 . S
C349 N345 1.332 . S
C349 C348 1.382 . S
C349 H351 0.952 . S
C350 N345 1.332 . S
C350 C346 1.382 . S
C350 H352 0.948 . S
H351 C349 0.952 . S
H352 C350 0.948 . S
H353 C342 0.952 . S
H354 C344 0.948 . S
C355 C321 1.395 . S
C355 C325 1.391 . S
C356 C318 1.389 . S
C356 C338 1.392 . S
C357 C328 1.392 . S
C357 C330 1.389 . S
C358 C333 1.395 . S
C358 C335 1.391 . S
H359 C319 0.951 . S
H360 C320 0.950 . S
H361 C326 0.949 . S
H362 C327 0.950 . S
H363 C331 0.951 . S
H364 C332 0.950 . S
H365 C336 0.949 . S
H366 C337 0.950 . S
H367 C341 0.950 . S
H368 C343 0.950 . S
H369 C346 0.950 . S
H370 C348 0.950 . S
C371 C372 1.443 1_455 S
C371 N375 1.376 . S
C371 C409 1.389 . S
C372 C371 1.443 1_655 S
C372 C373 1.334 1_655 S
C372 H412 0.951 . S
C373 C372 1.334 1_455 S
C373 C374 1.451 . S
C373 H413 0.946 1_455 S
C374 C373 1.451 . S
C374 N375 1.374 . S
C374 C408 1.395 . S
N375 C371 1.376 . S
N375 C374 1.374 . S
N375 Co376 2.008 . S
Co376 N375 2.008 . S
Co376 N377 1.995 . S
Co376 N382 2.008 . S
Co376 N387 1.995 . S
Co376 N392 2.282 1_455 S
Co376 N398 2.282 . S
N377 Co376 1.995 . S
N377 C378 1.376 . S
N377 C381 1.383 . S
C378 N377 1.376 . S
C378 C379 1.446 . S
C378 C408 1.391 . S
C379 C378 1.446 . S
C379 C380 1.339 . S
C379 H414 0.949 . S
C380 C379 1.339 . S
C380 C381 1.439 . S
C380 H415 0.950 . S
C381 N377 1.383 . S
C381 C380 1.439 . S
C381 C410 1.392 . S
N382 Co376 2.008 . S
N382 C383 1.376 . S
N382 C386 1.374 . S
C383 N382 1.376 . S
C383 C384 1.443 . S
C383 C410 1.389 . S
C384 C383 1.443 . S
C384 C385 1.340 . S
C384 H416 0.951 . S
C385 C384 1.340 . S
C385 C386 1.439 . S
C385 H417 0.950 . S
C386 N382 1.374 . S
C386 C385 1.439 . S
C386 C411 1.395 . S
N387 Co376 1.995 . S
N387 C388 1.376 . S
N387 C391 1.383 . S
C388 N387 1.376 . S
C388 C389 1.446 . S
C388 C411 1.391 . S
C389 C388 1.446 . S
C389 C390 1.339 . S
C389 H418 0.949 . S
C390 C389 1.339 . S
C390 C391 1.439 . S
C390 H419 0.939 1_455 S
C391 N387 1.383 . S
C391 C390 1.439 . S
C391 C409 1.392 . S
N392 Co376 2.282 1_655 S
N392 C395 1.332 . S
N392 C397 1.332 . S
C393 C394 1.386 . S
C393 C396 1.388 . S
C394 C393 1.386 . S
C394 C395 1.382 . S
C394 H420 0.950 . S
C395 N392 1.332 . S
C395 C394 1.382 . S
C395 H406 0.952 . S
C396 C393 1.388 . S
C396 C397 1.382 . S
C396 H421 0.950 . S
C397 N392 1.332 . S
C397 C396 1.382 . S
C397 H407 0.948 . S
N398 Co376 2.282 . S
N398 C402 1.332 . S
N398 C403 1.332 . S
C399 C400 1.388 . S
C399 C403 1.382 . S
C399 H422 0.950 . S
C400 C399 1.388 . S
C400 C401 1.386 . S
C401 C400 1.386 . S
C401 C402 1.382 . S
C401 H423 0.950 . S
C402 N398 1.332 . S
C402 C401 1.382 . S
C402 H404 0.952 . S
C403 N398 1.332 . S
C403 C399 1.382 . S
C403 H405 0.948 . S
H404 C402 0.952 . S
H405 C403 0.948 . S
H406 C395 0.952 . S
H407 C397 0.948 . S
C408 C374 1.395 . S
C408 C378 1.391 . S
C409 C371 1.389 . S
C409 C391 1.392 . S
C410 C381 1.392 . S
C410 C383 1.389 . S
C411 C386 1.395 . S
C411 C388 1.391 . S
H412 C372 0.951 . S
H413 C373 0.946 1_655 S
H414 C379 0.949 . S
H415 C380 0.950 . S
H416 C384 0.951 . S
H417 C385 0.950 . S
H418 C389 0.949 . S
H419 C390 0.939 1_655 S
H420 C394 0.950 . S
H421 C396 0.950 . S
H422 C399 0.950 . S
H423 C401 0.950 . S
C424 C425 1.349 . S
C424 C426 1.327 . S
C424 H449 0.950 . S
C425 C424 1.349 . S
C425 C441 1.349 1_655 S
C426 C424 1.327 . S
C426 C445 1.429 . S
C426 H450 0.950 . S
C427 C444 1.574 . S
C427 C446 1.368 1_455 S
C427 H451 0.949 . S
H428 C432 0.949 . S
C429 C430 1.349 . S
C429 C431 1.327 . S
C429 H452 0.950 . S
C430 C429 1.349 . S
C430 C442 1.349 1_455 S
C431 C429 1.327 . S
C431 C447 1.429 . S
C431 H453 0.950 . S
C432 H428 0.949 . S
C432 C440 1.574 . S
C432 C448 1.368 1_655 S
H433 C441 0.950 . S
H434 C439 0.950 . S
H435 C440 0.949 . S
H436 C442 0.950 . S
H437 C443 0.950 . S
H438 C444 0.949 . S
C439 H434 0.950 . S
C439 C441 1.327 . S
C439 C445 1.429 1_455 S
C440 C432 1.574 . S
C440 H435 0.949 . S
C440 C446 1.368 . S
C441 C425 1.349 1_455 S
C441 H433 0.950 . S
C441 C439 1.327 . S
C442 C430 1.349 1_655 S
C442 H436 0.950 . S
C442 C443 1.327 . S
C443 H437 0.950 . S
C443 C442 1.327 . S
C443 C447 1.429 1_655 S
C444 C427 1.574 . S
C444 H438 0.949 . S
C444 C448 1.368 . S
C445 C426 1.429 . S
C445 C439 1.429 1_655 S
C445 C446 1.523 . S
C446 C427 1.368 1_655 S
C446 C440 1.368 . S
C446 C445 1.523 . S
C447 C431 1.429 . S
C447 C443 1.429 1_455 S
C447 C448 1.523 . S
C448 C432 1.368 1_455 S
C448 C444 1.368 . S
C448 C447 1.523 . S
H449 C424 0.950 . S
H450 C426 0.950 . S
H451 C427 0.949 . S
H452 C429 0.950 . S
H453 C431 0.950 . S
C454 C455 1.349 . S
C454 C456 1.327 . S
C454 H479 0.950 . S
C455 C454 1.349 . S
C455 C471 1.349 . S
C456 C454 1.327 . S
C456 C475 1.429 . S
C456 H480 0.950 . S
C457 C474 1.574 . S
C457 C476 1.368 . S
C457 H481 0.949 . S
H458 C462 0.949 . S
C459 C460 1.349 . S
C459 C461 1.327 . S
C459 H482 0.950 . S
C460 C459 1.349 . S
C460 C472 1.349 . S
C461 C459 1.327 . S
C461 C477 1.429 . S
C461 H483 0.950 . S
C462 H458 0.949 . S
C462 C470 1.574 . S
C462 C478 1.368 . S
H463 C471 0.950 . S
H464 C469 0.950 . S
H465 C470 0.949 . S
H466 C472 0.950 . S
H467 C473 0.950 . S
H468 C474 0.949 . S
C469 H464 0.950 . S
C469 C471 1.327 . S
C469 C475 1.429 . S
C470 C462 1.574 . S
C470 H465 0.949 . S
C470 C476 1.368 . S
C471 C455 1.349 . S
C471 H463 0.950 . S
C471 C469 1.327 . S
C472 C460 1.349 . S
C472 H466 0.950 . S
C472 C473 1.327 . S
C473 H467 0.950 . S
C473 C472 1.327 . S
C473 C477 1.429 . S
C474 C457 1.574 . S
C474 H468 0.949 . S
C474 C478 1.368 . S
C475 C456 1.429 . S
C475 C469 1.429 . S
C475 C476 1.523 . S
C476 C457 1.368 . S
C476 C470 1.368 . S
C476 C475 1.523 . S
C477 C461 1.429 . S
C477 C473 1.429 . S
C477 C478 1.523 . S
C478 C462 1.368 . S
C478 C474 1.368 . S
C478 C477 1.523 . S
H479 C454 0.950 . S
H480 C456 0.950 . S
H481 C457 0.949 . S
H482 C459 0.950 . S
H483 C461 0.950 . S
C484 C485 1.349 . S
C484 C486 1.327 . S
C484 H509 0.950 . S
C485 C484 1.349 . S
C485 C501 1.349 . S
C486 C484 1.327 . S
C486 C505 1.429 . S
C486 H510 0.950 . S
C487 C504 1.574 . S
C487 C506 1.368 1_565 S
C487 H511 0.949 . S
H488 C492 0.949 . S
C489 C490 1.349 . S
C489 C491 1.327 . S
C489 H512 0.950 . S
C490 C489 1.349 . S
C490 C502 1.349 . S
C491 C489 1.327 . S
C491 C507 1.429 . S
C491 H513 0.950 . S
C492 H488 0.949 . S
C492 C500 1.574 . S
C492 C508 1.368 1_545 S
H493 C501 0.950 . S
H494 C499 0.950 . S
H495 C500 0.949 . S
H496 C502 0.950 . S
H497 C503 0.950 . S
H498 C504 0.949 . S
C499 H494 0.950 . S
C499 C501 1.327 . S
C499 C505 1.429 . S
C500 C492 1.574 . S
C500 H495 0.949 . S
C500 C506 1.368 1_556 S
C501 C485 1.349 . S
C501 H493 0.950 . S
C501 C499 1.327 . S
C502 C490 1.349 . S
C502 H496 0.950 . S
C502 C503 1.327 . S
C503 H497 0.950 . S
C503 C502 1.327 . S
C503 C507 1.429 . S
C504 C487 1.574 . S
C504 H498 0.949 . S
C504 C508 1.368 1_554 S
C505 C486 1.429 . S
C505 C499 1.429 . S
C505 C506 1.523 . S
C506 C487 1.368 1_545 S
C506 C500 1.368 1_554 S
C506 C505 1.523 . S
C507 C491 1.429 . S
C507 C503 1.429 . S
C507 C508 1.523 . S
C508 C492 1.368 1_565 S
C508 C504 1.368 1_556 S
C508 C507 1.523 . S
H509 C484 0.950 . S
H510 C486 0.950 . S
H511 C487 0.949 . S
H512 C489 0.950 . S
H513 C491 0.950 . S
C514 C515 1.349 . S
C514 C516 1.327 . S
C514 H539 0.950 . S
C515 C514 1.349 . S
C515 C531 1.349 1_455 S
C516 C514 1.327 . S
C516 C535 1.429 . S
C516 H540 0.950 . S
C517 C534 1.574 . S
C517 C536 1.368 1_645 S
C517 H541 0.949 . S
H518 C522 0.949 . S
C519 C520 1.349 . S
C519 C521 1.327 . S
C519 H542 0.950 . S
C520 C519 1.349 . S
C520 C532 1.349 1_655 S
C521 C519 1.327 . S
C521 C537 1.429 . S
C521 H543 0.950 . S
C522 H518 0.949 . S
C522 C530 1.574 . S
C522 C538 1.368 1_465 S
H523 C531 0.950 . S
H524 C529 0.950 . S
H525 C530 0.949 . S
H526 C532 0.950 . S
H527 C533 0.950 . S
H528 C534 0.949 . S
C529 H524 0.950 . S
C529 C531 1.327 . S
C529 C535 1.429 1_655 S
C530 C522 1.574 . S
C530 H525 0.949 . S
C530 C536 1.368 1_556 S
C531 C515 1.349 1_655 S
C531 H523 0.950 . S
C531 C529 1.327 . S
C532 C520 1.349 1_455 S
C532 H526 0.950 . S
C532 C533 1.327 . S
C533 H527 0.950 . S
C533 C532 1.327 . S
C533 C537 1.429 1_455 S
C534 C517 1.574 . S
C534 H528 0.949 . S
C534 C538 1.368 1_554 S
C535 C516 1.429 . S
C535 C529 1.429 1_455 S
C535 C536 1.523 . S
C536 C517 1.368 1_465 S
C536 C530 1.368 1_554 S
C536 C535 1.523 . S
C537 C521 1.429 . S
C537 C533 1.429 1_655 S
C537 C538 1.523 . S
C538 C522 1.368 1_645 S
C538 C534 1.368 1_556 S
C538 C537 1.523 . S
H539 C514 0.950 . S
H540 C516 0.950 . S
H541 C517 0.949 . S
H542 C519 0.950 . S
H543 C521 0.950 . S
C544 C545 1.349 . S
C544 C546 1.327 . S
C544 H569 0.950 . S
C545 C544 1.349 . S
C545 C561 1.349 . S
C546 C544 1.327 . S
C546 C565 1.429 . S
C546 H570 0.950 . S
C547 C564 1.574 . S
C547 C566 1.368 . S
C547 H571 0.949 . S
H548 C552 0.949 . S
C549 C550 1.349 . S
C549 C551 1.327 . S
C549 H572 0.950 . S
C550 C549 1.349 . S
C550 C562 1.349 . S
C551 C549 1.327 . S
C551 C567 1.429 . S
C551 H573 0.950 . S
C552 H548 0.949 . S
C552 C560 1.574 . S
C552 C568 1.368 . S
H553 C561 0.950 . S
H554 C559 0.950 . S
H555 C560 0.949 . S
H556 C562 0.950 . S
H557 C563 0.950 . S
H558 C564 0.949 . S
C559 H554 0.950 . S
C559 C561 1.327 . S
C559 C565 1.429 . S
C560 C552 1.574 . S
C560 H555 0.949 . S
C560 C566 1.368 . S
C561 C545 1.349 . S
C561 H553 0.950 . S
C561 C559 1.327 . S
C562 C550 1.349 . S
C562 H556 0.950 . S
C562 C563 1.327 . S
C563 H557 0.950 . S
C563 C562 1.327 . S
C563 C567 1.429 . S
C564 C547 1.574 . S
C564 H558 0.949 . S
C564 C568 1.368 . S
C565 C546 1.429 . S
C565 C559 1.429 . S
C565 C566 1.523 . S
C566 C547 1.368 . S
C566 C560 1.368 . S
C566 C565 1.523 . S
C567 C551 1.429 . S
C567 C563 1.429 . S
C567 C568 1.523 . S
C568 C552 1.368 . S
C568 C564 1.368 . S
C568 C567 1.523 . S
H569 C544 0.950 . S
H570 C546 0.950 . S
H571 C547 0.949 . S
H572 C549 0.950 . S
H573 C551 0.950 . S
C574 C575 1.349 . S
C574 C576 1.327 . S
C574 H599 0.950 . S
C575 C574 1.349 . S
C575 C591 1.349 . S
C576 C574 1.327 . S
C576 C595 1.429 . S
C576 H600 0.950 . S
C577 C594 1.574 . S
C577 C596 1.368 . S
C577 H601 0.949 . S
H578 C582 0.949 . S
C579 C580 1.349 . S
C579 C581 1.327 . S
C579 H602 0.950 . S
C580 C579 1.349 . S
C580 C592 1.349 . S
C581 C579 1.327 . S
C581 C597 1.429 . S
C581 H603 0.950 . S
C582 H578 0.949 . S
C582 C590 1.574 . S
C582 C598 1.368 . S
H583 C591 0.950 . S
H584 C589 0.950 . S
H585 C590 0.949 . S
H586 C592 0.950 . S
H587 C593 0.950 . S
H588 C594 0.949 . S
C589 H584 0.950 . S
C589 C591 1.327 . S
C589 C595 1.429 . S
C590 C582 1.574 . S
C590 H585 0.949 . S
C590 C596 1.368 . S
C591 C575 1.349 . S
C591 H583 0.950 . S
C591 C589 1.327 . S
C592 C580 1.349 . S
C592 H586 0.950 . S
C592 C593 1.327 . S
C593 H587 0.950 . S
C593 C592 1.327 . S
C593 C597 1.429 . S
C594 C577 1.574 . S
C594 H588 0.949 . S
C594 C598 1.368 . S
C595 C576 1.429 . S
C595 C589 1.429 . S
C595 C596 1.523 . S
C596 C577 1.368 . S
C596 C590 1.368 . S
C596 C595 1.523 . S
C597 C581 1.429 . S
C597 C593 1.429 . S
C597 C598 1.523 . S
C598 C582 1.368 . S
C598 C594 1.368 . S
C598 C597 1.523 . S
H599 C574 0.950 . S
H600 C576 0.950 . S
H601 C577 0.949 . S
H602 C579 0.950 . S
H603 C581 0.950 . S
C604 C605 1.349 . S
C604 C606 1.327 . S
C604 H629 0.950 . S
C605 C604 1.349 . S
C605 C621 1.349 . S
C606 C604 1.327 . S
C606 C625 1.429 . S
C606 H630 0.950 . S
C607 C624 1.574 . S
C607 C626 1.368 . S
C607 H631 0.949 . S
H608 C612 0.949 . S
C609 C610 1.349 . S
C609 C611 1.327 . S
C609 H632 0.950 . S
C610 C609 1.349 . S
C610 C622 1.349 . S
C611 C609 1.327 . S
C611 C627 1.429 . S
C611 H633 0.950 . S
C612 H608 0.949 . S
C612 C620 1.574 . S
C612 C628 1.368 . S
H613 C621 0.950 . S
H614 C619 0.950 . S
H615 C620 0.949 . S
H616 C622 0.950 . S
H617 C623 0.950 . S
H618 C624 0.949 . S
C619 H614 0.950 . S
C619 C621 1.327 . S
C619 C625 1.429 . S
C620 C612 1.574 . S
C620 H615 0.949 . S
C620 C626 1.368 . S
C621 C605 1.349 . S
C621 H613 0.950 . S
C621 C619 1.327 . S
C622 C610 1.349 . S
C622 H616 0.950 . S
C622 C623 1.327 . S
C623 H617 0.950 . S
C623 C622 1.327 . S
C623 C627 1.429 . S
C624 C607 1.574 . S
C624 H618 0.949 . S
C624 C628 1.368 . S
C625 C606 1.429 . S
C625 C619 1.429 . S
C625 C626 1.523 . S
C626 C607 1.368 . S
C626 C620 1.368 . S
C626 C625 1.523 . S
C627 C611 1.429 . S
C627 C623 1.429 . S
C627 C628 1.523 . S
C628 C612 1.368 . S
C628 C624 1.368 . S
C628 C627 1.523 . S
H629 C604 0.950 . S
H630 C606 0.950 . S
H631 C607 0.949 . S
H632 C609 0.950 . S
H633 C611 0.950 . S
C634 C635 1.349 . S
C634 C636 1.327 . S
C634 H659 0.950 . S
C635 C634 1.349 . S
C635 C651 1.349 . S
C636 C634 1.327 . S
C636 C655 1.429 . S
C636 H660 0.950 . S
C637 C654 1.574 . S
C637 C656 1.368 . S
C637 H661 0.949 . S
H638 C642 0.949 . S
C639 C640 1.349 . S
C639 C641 1.327 . S
C639 H662 0.950 . S
C640 C639 1.349 . S
C640 C652 1.349 . S
C641 C639 1.327 . S
C641 C657 1.429 . S
C641 H663 0.950 . S
C642 H638 0.949 . S
C642 C650 1.574 . S
C642 C658 1.368 . S
H643 C651 0.950 . S
H644 C649 0.950 . S
H645 C650 0.949 . S
H646 C652 0.950 . S
H647 C653 0.950 . S
H648 C654 0.949 . S
C649 H644 0.950 . S
C649 C651 1.327 . S
C649 C655 1.429 . S
C650 C642 1.574 . S
C650 H645 0.949 . S
C650 C656 1.368 . S
C651 C635 1.349 . S
C651 H643 0.950 . S
C651 C649 1.327 . S
C652 C640 1.349 . S
C652 H646 0.950 . S
C652 C653 1.327 . S
C653 H647 0.950 . S
C653 C652 1.327 . S
C653 C657 1.429 . S
C654 C637 1.574 . S
C654 H648 0.949 . S
C654 C658 1.368 . S
C655 C636 1.429 . S
C655 C649 1.429 . S
C655 C656 1.523 . S
C656 C637 1.368 . S
C656 C650 1.368 . S
C656 C655 1.523 . S
C657 C641 1.429 . S
C657 C653 1.429 . S
C657 C658 1.523 . S
C658 C642 1.368 . S
C658 C654 1.368 . S
C658 C657 1.523 . S
H659 C634 0.950 . S
H660 C636 0.950 . S
H661 C637 0.949 . S
H662 C639 0.950 . S
H663 C641 0.950 . S
C664 C665 1.349 . S
C664 C666 1.327 . S
C664 H689 0.950 . S
C665 C664 1.349 . S
C665 C681 1.349 . S
C666 C664 1.327 . S
C666 C685 1.429 . S
C666 H690 0.950 . S
C667 C684 1.574 . S
C667 C686 1.368 . S
C667 H691 0.949 . S
H668 C672 0.949 . S
C669 C670 1.349 . S
C669 C671 1.327 . S
C669 H692 0.950 . S
C670 C669 1.349 . S
C670 C682 1.349 . S
C671 C669 1.327 . S
C671 C687 1.429 . S
C671 H693 0.950 . S
C672 H668 0.949 . S
C672 C680 1.574 . S
C672 C688 1.368 . S
H673 C681 0.950 . S
H674 C679 0.950 . S
H675 C680 0.949 . S
H676 C682 0.950 . S
H677 C683 0.950 . S
H678 C684 0.949 . S
C679 H674 0.950 . S
C679 C681 1.327 . S
C679 C685 1.429 . S
C680 C672 1.574 . S
C680 H675 0.949 . S
C680 C686 1.368 . S
C681 C665 1.349 . S
C681 H673 0.950 . S
C681 C679 1.327 . S
C682 C670 1.349 . S
C682 H676 0.950 . S
C682 C683 1.327 . S
C683 H677 0.950 . S
C683 C682 1.327 . S
C683 C687 1.429 . S
C684 C667 1.574 . S
C684 H678 0.949 . S
C684 C688 1.368 . S
C685 C666 1.429 . S
C685 C679 1.429 . S
C685 C686 1.523 . S
C686 C667 1.368 . S
C686 C680 1.368 . S
C686 C685 1.523 . S
C687 C671 1.429 . S
C687 C683 1.429 . S
C687 C688 1.523 . S
C688 C672 1.368 . S
C688 C684 1.368 . S
C688 C687 1.523 . S
H689 C664 0.950 . S
H690 C666 0.950 . S
H691 C667 0.949 . S
H692 C669 0.950 . S
H693 C671 0.950 . S
C694 C695 1.349 . S
C694 C696 1.327 . S
C694 H719 0.950 . S
C695 C694 1.349 . S
C695 C711 1.349 . S
C696 C694 1.327 . S
C696 C715 1.429 . S
C696 H720 0.950 . S
C697 C714 1.574 . S
C697 C716 1.368 . S
C697 H721 0.949 . S
H698 C702 0.949 . S
C699 C700 1.349 . S
C699 C701 1.327 . S
C699 H722 0.950 . S
C700 C699 1.349 . S
C700 C712 1.349 . S
C701 C699 1.327 . S
C701 C717 1.429 . S
C701 H723 0.950 . S
C702 H698 0.949 . S
C702 C710 1.574 . S
C702 C718 1.368 . S
H703 C711 0.950 . S
H704 C709 0.950 . S
H705 C710 0.949 . S
H706 C712 0.950 . S
H707 C713 0.950 . S
H708 C714 0.949 . S
C709 H704 0.950 . S
C709 C711 1.327 . S
C709 C715 1.429 . S
C710 C702 1.574 . S
C710 H705 0.949 . S
C710 C716 1.368 . S
C711 C695 1.349 . S
C711 H703 0.950 . S
C711 C709 1.327 . S
C712 C700 1.349 . S
C712 H706 0.950 . S
C712 C713 1.327 . S
C713 H707 0.950 . S
C713 C712 1.327 . S
C713 C717 1.429 . S
C714 C697 1.574 . S
C714 H708 0.949 . S
C714 C718 1.368 . S
C715 C696 1.429 . S
C715 C709 1.429 . S
C715 C716 1.523 . S
C716 C697 1.368 . S
C716 C710 1.368 . S
C716 C715 1.523 . S
C717 C701 1.429 . S
C717 C713 1.429 . S
C717 C718 1.523 . S
C718 C702 1.368 . S
C718 C714 1.368 . S
C718 C717 1.523 . S
H719 C694 0.950 . S
H720 C696 0.950 . S
H721 C697 0.949 . S
H722 C699 0.950 . S
H723 C701 0.950 . S
C724 C725 1.349 . S
C724 C726 1.327 . S
C724 H749 0.950 . S
C725 C724 1.349 . S
C725 C741 1.349 . S
C726 C724 1.327 . S
C726 C745 1.429 . S
C726 H750 0.950 . S
C727 C744 1.574 . S
C727 C746 1.368 . S
C727 H751 0.949 . S
H728 C732 0.949 . S
C729 C730 1.349 . S
C729 C731 1.327 . S
C729 H752 0.950 . S
C730 C729 1.349 . S
C730 C742 1.349 . S
C731 C729 1.327 . S
C731 C747 1.429 . S
C731 H753 0.950 . S
C732 H728 0.949 . S
C732 C740 1.574 . S
C732 C748 1.368 . S
H733 C741 0.950 . S
H734 C739 0.950 . S
H735 C740 0.949 . S
H736 C742 0.950 . S
H737 C743 0.950 . S
H738 C744 0.949 . S
C739 H734 0.950 . S
C739 C741 1.327 . S
C739 C745 1.429 . S
C740 C732 1.574 . S
C740 H735 0.949 . S
C740 C746 1.368 . S
C741 C725 1.349 . S
C741 H733 0.950 . S
C741 C739 1.327 . S
C742 C730 1.349 . S
C742 H736 0.950 . S
C742 C743 1.327 . S
C743 H737 0.950 . S
C743 C742 1.327 . S
C743 C747 1.429 . S
C744 C727 1.574 . S
C744 H738 0.949 . S
C744 C748 1.368 . S
C745 C726 1.429 . S
C745 C739 1.429 . S
C745 C746 1.523 . S
C746 C727 1.368 . S
C746 C740 1.368 . S
C746 C745 1.523 . S
C747 C731 1.429 . S
C747 C743 1.429 . S
C747 C748 1.523 . S
C748 C732 1.368 . S
C748 C744 1.368 . S
C748 C747 1.523 . S
H749 C724 0.950 . S
H750 C726 0.950 . S
H751 C727 0.949 . S
H752 C729 0.950 . S
H753 C731 0.950 . S
C754 C755 1.349 . S
C754 C756 1.327 . S
C754 H779 0.950 . S
C755 C754 1.349 . S
C755 C771 1.349 . S
C756 C754 1.327 . S
C756 C775 1.429 . S
C756 H780 0.950 . S
C757 C774 1.574 . S
C757 C776 1.368 . S
C757 H781 0.949 . S
H758 C762 0.949 . S
C759 C760 1.349 . S
C759 C761 1.327 . S
C759 H782 0.950 . S
C760 C759 1.349 . S
C760 C772 1.349 . S
C761 C759 1.327 . S
C761 C777 1.429 . S
C761 H783 0.950 . S
C762 H758 0.949 . S
C762 C770 1.574 . S
C762 C778 1.368 . S
H763 C771 0.950 . S
H764 C769 0.950 . S
H765 C770 0.949 . S
H766 C772 0.950 . S
H767 C773 0.950 . S
H768 C774 0.949 . S
C769 H764 0.950 . S
C769 C771 1.327 . S
C769 C775 1.429 . S
C770 C762 1.574 . S
C770 H765 0.949 . S
C770 C776 1.368 . S
C771 C755 1.349 . S
C771 H763 0.950 . S
C771 C769 1.327 . S
C772 C760 1.349 . S
C772 H766 0.950 . S
C772 C773 1.327 . S
C773 H767 0.950 . S
C773 C772 1.327 . S
C773 C777 1.429 . S
C774 C757 1.574 . S
C774 H768 0.949 . S
C774 C778 1.368 . S
C775 C756 1.429 . S
C775 C769 1.429 . S
C775 C776 1.523 . S
C776 C757 1.368 . S
C776 C770 1.368 . S
C776 C775 1.523 . S
C777 C761 1.429 . S
C777 C773 1.429 . S
C777 C778 1.523 . S
C778 C762 1.368 . S
C778 C774 1.368 . S
C778 C777 1.523 . S
H779 C754 0.950 . S
H780 C756 0.950 . S
H781 C757 0.949 . S
H782 C759 0.950 . S
H783 C761 0.950 . S
C784 C785 1.349 . S
C784 C786 1.327 . S
C784 H809 0.950 . S
C785 C784 1.349 . S
C785 C801 1.349 . S
C786 C784 1.327 . S
C786 C805 1.429 . S
C786 H810 0.950 . S
C787 C804 1.574 . S
C787 C806 1.368 . S
C787 H811 0.949 . S
H788 C792 0.949 . S
C789 C790 1.349 . S
C789 C791 1.327 . S
C789 H812 0.950 . S
C790 C789 1.349 . S
C790 C802 1.349 . S
C791 C789 1.327 . S
C791 C807 1.429 . S
C791 H813 0.950 . S
C792 H788 0.949 . S
C792 C800 1.574 . S
C792 C808 1.368 . S
H793 C801 0.950 . S
H794 C799 0.950 . S
H795 C800 0.949 . S
H796 C802 0.950 . S
H797 C803 0.950 . S
H798 C804 0.949 . S
C799 H794 0.950 . S
C799 C801 1.327 . S
C799 C805 1.429 . S
C800 C792 1.574 . S
C800 H795 0.949 . S
C800 C806 1.368 . S
C801 C785 1.349 . S
C801 H793 0.950 . S
C801 C799 1.327 . S
C802 C790 1.349 . S
C802 H796 0.950 . S
C802 C803 1.327 . S
C803 H797 0.950 . S
C803 C802 1.327 . S
C803 C807 1.429 . S
C804 C787 1.574 . S
C804 H798 0.949 . S
C804 C808 1.368 . S
C805 C786 1.429 . S
C805 C799 1.429 . S
C805 C806 1.523 . S
C806 C787 1.368 . S
C806 C800 1.368 . S
C806 C805 1.523 . S
C807 C791 1.429 . S
C807 C803 1.429 . S
C807 C808 1.523 . S
C808 C792 1.368 . S
C808 C804 1.368 . S
C808 C807 1.523 . S
H809 C784 0.950 . S
H810 C786 0.950 . S
H811 C787 0.949 . S
H812 C789 0.950 . S
H813 C791 0.950 . S
C814 C815 1.349 . S
C814 C816 1.327 . S
C814 H839 0.950 . S
C815 C814 1.349 . S
C815 C831 1.349 . S
C816 C814 1.327 . S
C816 C835 1.429 . S
C816 H840 0.950 . S
C817 C834 1.574 . S
C817 C836 1.368 . S
C817 H841 0.949 . S
H818 C822 0.949 . S
C819 C820 1.349 . S
C819 C821 1.327 . S
C819 H842 0.950 . S
C820 C819 1.349 . S
C820 C832 1.349 . S
C821 C819 1.327 . S
C821 C837 1.429 . S
C821 H843 0.950 . S
C822 H818 0.949 . S
C822 C830 1.574 . S
C822 C838 1.368 . S
H823 C831 0.950 . S
H824 C829 0.950 . S
H825 C830 0.949 . S
H826 C832 0.950 . S
H827 C833 0.950 . S
H828 C834 0.949 . S
C829 H824 0.950 . S
C829 C831 1.327 . S
C829 C835 1.429 . S
C830 C822 1.574 . S
C830 H825 0.949 . S
C830 C836 1.368 . S
C831 C815 1.349 . S
C831 H823 0.950 . S
C831 C829 1.327 . S
C832 C820 1.349 . S
C832 H826 0.950 . S
C832 C833 1.327 . S
C833 H827 0.950 . S
C833 C832 1.327 . S
C833 C837 1.429 . S
C834 C817 1.574 . S
C834 H828 0.949 . S
C834 C838 1.368 . S
C835 C816 1.429 . S
C835 C829 1.429 . S
C835 C836 1.523 . S
C836 C817 1.368 . S
C836 C830 1.368 . S
C836 C835 1.523 . S
C837 C821 1.429 . S
C837 C833 1.429 . S
C837 C838 1.523 . S
C838 C822 1.368 . S
C838 C834 1.368 . S
C838 C837 1.523 . S
H839 C814 0.950 . S
H840 C816 0.950 . S
H841 C817 0.949 . S
H842 C819 0.950 . S
H843 C821 0.950 . S
C844 C845 1.349 . S
C844 C846 1.327 . S
C844 H869 0.950 . S
C845 C844 1.349 . S
C845 C861 1.349 . S
C846 C844 1.327 . S
C846 C865 1.429 . S
C846 H870 0.950 . S
C847 C864 1.574 1_554 S
C847 C866 1.368 . S
C847 H871 0.949 . S
H848 C852 0.949 . S
C849 C850 1.349 . S
C849 C851 1.327 . S
C849 H872 0.950 . S
C850 C849 1.349 . S
C850 C862 1.349 . S
C851 C849 1.327 . S
C851 C867 1.429 . S
C851 H873 0.950 . S
C852 H848 0.949 . S
C852 C860 1.574 1_556 S
C852 C868 1.368 . S
H853 C861 0.950 . S
H854 C859 0.950 . S
H855 C860 0.949 . S
H856 C862 0.950 . S
H857 C863 0.950 . S
H858 C864 0.949 . S
C859 H854 0.950 . S
C859 C861 1.327 . S
C859 C865 1.429 . S
C860 C852 1.574 1_554 S
C860 H855 0.949 . S
C860 C866 1.368 . S
C861 C845 1.349 . S
C861 H853 0.950 . S
C861 C859 1.327 . S
C862 C850 1.349 . S
C862 H856 0.950 . S
C862 C863 1.327 . S
C863 H857 0.950 . S
C863 C862 1.327 . S
C863 C867 1.429 . S
C864 C847 1.574 1_556 S
C864 H858 0.949 . S
C864 C868 1.368 . S
C865 C846 1.429 . S
C865 C859 1.429 . S
C865 C866 1.523 . S
C866 C847 1.368 . S
C866 C860 1.368 . S
C866 C865 1.523 . S
C867 C851 1.429 . S
C867 C863 1.429 . S
C867 C868 1.523 . S
C868 C852 1.368 . S
C868 C864 1.368 . S
C868 C867 1.523 . S
H869 C844 0.950 . S
H870 C846 0.950 . S
H871 C847 0.949 . S
H872 C849 0.950 . S
H873 C851 0.950 . S
C874 C875 1.349 . S
C874 C876 1.327 . S
C874 H899 0.950 . S
C875 C874 1.349 . S
C875 C891 1.349 . S
C876 C874 1.327 . S
C876 C895 1.429 . S
C876 H900 0.950 . S
C877 C894 1.574 1_554 S
C877 C896 1.368 . S
C877 H901 0.949 . S
H878 C882 0.949 . S
C879 C880 1.349 . S
C879 C881 1.327 . S
C879 H902 0.950 . S
C880 C879 1.349 . S
C880 C892 1.349 . S
C881 C879 1.327 . S
C881 C897 1.429 . S
C881 H903 0.950 . S
C882 H878 0.949 . S
C882 C890 1.574 1_556 S
C882 C898 1.368 . S
H883 C891 0.950 . S
H884 C889 0.950 . S
H885 C890 0.949 . S
H886 C892 0.950 . S
H887 C893 0.950 . S
H888 C894 0.949 . S
C889 H884 0.950 . S
C889 C891 1.327 . S
C889 C895 1.429 . S
C890 C882 1.574 1_554 S
C890 H885 0.949 . S
C890 C896 1.368 . S
C891 C875 1.349 . S
C891 H883 0.950 . S
C891 C889 1.327 . S
C892 C880 1.349 . S
C892 H886 0.950 . S
C892 C893 1.327 . S
C893 H887 0.950 . S
C893 C892 1.327 . S
C893 C897 1.429 . S
C894 C877 1.574 1_556 S
C894 H888 0.949 . S
C894 C898 1.368 . S
C895 C876 1.429 . S
C895 C889 1.429 . S
C895 C896 1.523 . S
C896 C877 1.368 . S
C896 C890 1.368 . S
C896 C895 1.523 . S
C897 C881 1.429 . S
C897 C893 1.429 . S
C897 C898 1.523 . S
C898 C882 1.368 . S
C898 C894 1.368 . S
C898 C897 1.523 . S
H899 C874 0.950 . S
H900 C876 0.950 . S
H901 C877 0.949 . S
H902 C879 0.950 . S
H903 C881 0.950 . S
C425 C38 1.889 1_655 S
C430 C144 1.899 1_455 S
C455 C197 1.899 . S
C460 C91 1.889 . S
C485 C356 1.896 . S
C490 C250 1.886 . S
C515 C303 1.886 1_455 S
C520 C409 1.896 1_655 S
C545 C340 2.076 . S
C550 C22 2.076 . S
C575 C75 2.077 . S
C580 C393 2.076 . S
C605 C128 2.076 . S
C610 C234 2.076 . S
C635 C181 2.076 . S
C640 C287 2.077 . S
C665 C357 2.261 . S
C670 C39 2.271 . S
C695 C92 2.271 . S
C700 C410 2.260 . S
C725 C251 2.271 . S
C730 C145 2.260 . S
C755 C304 2.271 . S
C760 C198 2.260 . S
C785 C82 0.439 . S
C790 C29 0.439 . S
C815 C135 0.438 . S
C820 C188 0.438 . S
C845 C294 0.440 . S
C850 C241 0.440 . S
C875 C347 0.439 . S
C880 C400 0.439 . S
