# Generated by pormake.
# Topology wmt, (6)-cn, num edge types: 1
# Building blocks:
#     Node 0, Type 0, BuildingBlock: BETFAJ_clean_sbu_0, # of connection points: 6
#     Node 1, Type 0, BuildingBlock: BETFAJ_clean_sbu_0, # of connection points: 6
#     Node 2, Type 0, BuildingBlock: BETFAJ_clean_sbu_0, # of connection points: 6
#     Node 3, Type 0, BuildingBlock: BETFAJ_clean_sbu_0, # of connection points: 6
#     Node 4, Type 0, BuildingBlock: BETFAJ_clean_sbu_0, # of connection points: 6
#     Node 5, Type 0, BuildingBlock: BETFAJ_clean_sbu_0, # of connection points: 6
#     Node 6, Type 0, BuildingBlock: BETFAJ_clean_sbu_0, # of connection points: 6
#     Node 7, Type 0, BuildingBlock: BETFAJ_clean_sbu_0, # of connection points: 6
#     Node 8, Type 0, BuildingBlock: BETFAJ_clean_sbu_0, # of connection points: 6
#     Node 9, Type 0, BuildingBlock: BETFAJ_clean_sbu_0, # of connection points: 6
#     Node 10, Type 0, BuildingBlock: BETFAJ_clean_sbu_0, # of connection points: 6
#     Node 11, Type 0, BuildingBlock: BETFAJ_clean_sbu_0, # of connection points: 6
#     Node 12, Type 0, BuildingBlock: BETFAJ_clean_sbu_0, # of connection points: 6
#     Node 13, Type 0, BuildingBlock: BETFAJ_clean_sbu_0, # of connection points: 6
#     Node 14, Type 0, BuildingBlock: BETFAJ_clean_sbu_0, # of connection points: 6
#     Node 15, Type 0, BuildingBlock: BETFAJ_clean_sbu_0, # of connection points: 6
#     Node 16, Type 0, BuildingBlock: BETFAJ_clean_sbu_0, # of connection points: 6
#     Node 17, Type 0, BuildingBlock: BETFAJ_clean_sbu_0, # of connection points: 6
#     Node 18, Type 0, BuildingBlock: BETFAJ_clean_sbu_0, # of connection points: 6
#     Node 19, Type 0, BuildingBlock: BETFAJ_clean_sbu_0, # of connection points: 6
#     Node 20, Type 0, BuildingBlock: BETFAJ_clean_sbu_0, # of connection points: 6
#     Node 21, Type 0, BuildingBlock: BETFAJ_clean_sbu_0, # of connection points: 6
#     Node 22, Type 0, BuildingBlock: BETFAJ_clean_sbu_0, # of connection points: 6
#     Node 23, Type 0, BuildingBlock: BETFAJ_clean_sbu_0, # of connection points: 6
#     Node 24, Type 0, BuildingBlock: BETFAJ_clean_sbu_0, # of connection points: 6
#     Node 25, Type 0, BuildingBlock: BETFAJ_clean_sbu_0, # of connection points: 6
#     Node 26, Type 0, BuildingBlock: BETFAJ_clean_sbu_0, # of connection points: 6
#     Node 27, Type 0, BuildingBlock: BETFAJ_clean_sbu_0, # of connection points: 6
#     Node 28, Type 0, BuildingBlock: BETFAJ_clean_sbu_0, # of connection points: 6
#     Node 29, Type 0, BuildingBlock: BETFAJ_clean_sbu_0, # of connection points: 6
#     Node 30, Type 0, BuildingBlock: BETFAJ_clean_sbu_0, # of connection points: 6
#     Node 31, Type 0, BuildingBlock: BETFAJ_clean_sbu_0, # of connection points: 6
#     Node 32, Type 0, BuildingBlock: BETFAJ_clean_sbu_0, # of connection points: 6
#     Node 33, Type 0, BuildingBlock: BETFAJ_clean_sbu_0, # of connection points: 6
#     Node 34, Type 0, BuildingBlock: BETFAJ_clean_sbu_0, # of connection points: 6
#     Node 35, Type 0, BuildingBlock: BETFAJ_clean_sbu_0, # of connection points: 6
#     Edge 36, Type (0, 0), BuildingBlock: AJUNOK_clean_linker_0, # of connection points: 2
#     Edge 37, Type (0, 0), BuildingBlock: AJUNOK_clean_linker_0, # of connection points: 2
#     Edge 38, Type (0, 0), BuildingBlock: AJUNOK_clean_linker_0, # of connection points: 2
#     Edge 39, Type (0, 0), BuildingBlock: AJUNOK_clean_linker_0, # of connection points: 2
#     Edge 40, Type (0, 0), BuildingBlock: AJUNOK_clean_linker_0, # of connection points: 2
#     Edge 41, Type (0, 0), BuildingBlock: AJUNOK_clean_linker_0, # of connection points: 2
#     Edge 42, Type (0, 0), BuildingBlock: AJUNOK_clean_linker_0, # of connection points: 2
#     Edge 43, Type (0, 0), BuildingBlock: AJUNOK_clean_linker_0, # of connection points: 2
#     Edge 44, Type (0, 0), BuildingBlock: AJUNOK_clean_linker_0, # of connection points: 2
#     Edge 45, Type (0, 0), BuildingBlock: AJUNOK_clean_linker_0, # of connection points: 2
#     Edge 46, Type (0, 0), BuildingBlock: AJUNOK_clean_linker_0, # of connection points: 2
#     Edge 47, Type (0, 0), BuildingBlock: AJUNOK_clean_linker_0, # of connection points: 2
#     Edge 48, Type (0, 0), BuildingBlock: AJUNOK_clean_linker_0, # of connection points: 2
#     Edge 49, Type (0, 0), BuildingBlock: AJUNOK_clean_linker_0, # of connection points: 2
#     Edge 50, Type (0, 0), BuildingBlock: AJUNOK_clean_linker_0, # of connection points: 2
#     Edge 51, Type (0, 0), BuildingBlock: AJUNOK_clean_linker_0, # of connection points: 2
#     Edge 52, Type (0, 0), BuildingBlock: AJUNOK_clean_linker_0, # of connection points: 2
#     Edge 53, Type (0, 0), BuildingBlock: AJUNOK_clean_linker_0, # of connection points: 2
#     Edge 54, Type (0, 0), BuildingBlock: AJUNOK_clean_linker_0, # of connection points: 2
#     Edge 55, Type (0, 0), BuildingBlock: AJUNOK_clean_linker_0, # of connection points: 2
#     Edge 56, Type (0, 0), BuildingBlock: AJUNOK_clean_linker_0, # of connection points: 2
#     Edge 57, Type (0, 0), BuildingBlock: AJUNOK_clean_linker_0, # of connection points: 2
#     Edge 58, Type (0, 0), BuildingBlock: AJUNOK_clean_linker_0, # of connection points: 2
#     Edge 59, Type (0, 0), BuildingBlock: AJUNOK_clean_linker_0, # of connection points: 2
#     Edge 60, Type (0, 0), BuildingBlock: AJUNOK_clean_linker_0, # of connection points: 2
#     Edge 61, Type (0, 0), BuildingBlock: AJUNOK_clean_linker_0, # of connection points: 2
#     Edge 62, Type (0, 0), BuildingBlock: AJUNOK_clean_linker_0, # of connection points: 2
#     Edge 63, Type (0, 0), BuildingBlock: AJUNOK_clean_linker_0, # of connection points: 2
#     Edge 64, Type (0, 0), BuildingBlock: AJUNOK_clean_linker_0, # of connection points: 2
#     Edge 65, Type (0, 0), BuildingBlock: AJUNOK_clean_linker_0, # of connection points: 2
#     Edge 66, Type (0, 0), BuildingBlock: AJUNOK_clean_linker_0, # of connection points: 2
#     Edge 67, Type (0, 0), BuildingBlock: AJUNOK_clean_linker_0, # of connection points: 2
#     Edge 68, Type (0, 0), BuildingBlock: AJUNOK_clean_linker_0, # of connection points: 2
#     Edge 69, Type (0, 0), BuildingBlock: AJUNOK_clean_linker_0, # of connection points: 2
#     Edge 70, Type (0, 0), BuildingBlock: AJUNOK_clean_linker_0, # of connection points: 2
#     Edge 71, Type (0, 0), BuildingBlock: AJUNOK_clean_linker_0, # of connection points: 2
#     Edge 72, Type (0, 0), BuildingBlock: AJUNOK_clean_linker_0, # of connection points: 2
#     Edge 73, Type (0, 0), BuildingBlock: AJUNOK_clean_linker_0, # of connection points: 2
#     Edge 74, Type (0, 0), BuildingBlock: AJUNOK_clean_linker_0, # of connection points: 2
#     Edge 75, Type (0, 0), BuildingBlock: AJUNOK_clean_linker_0, # of connection points: 2
#     Edge 76, Type (0, 0), BuildingBlock: AJUNOK_clean_linker_0, # of connection points: 2
#     Edge 77, Type (0, 0), BuildingBlock: AJUNOK_clean_linker_0, # of connection points: 2
#     Edge 78, Type (0, 0), BuildingBlock: AJUNOK_clean_linker_0, # of connection points: 2
#     Edge 79, Type (0, 0), BuildingBlock: AJUNOK_clean_linker_0, # of connection points: 2
#     Edge 80, Type (0, 0), BuildingBlock: AJUNOK_clean_linker_0, # of connection points: 2
#     Edge 81, Type (0, 0), BuildingBlock: AJUNOK_clean_linker_0, # of connection points: 2
#     Edge 82, Type (0, 0), BuildingBlock: AJUNOK_clean_linker_0, # of connection points: 2
#     Edge 83, Type (0, 0), BuildingBlock: AJUNOK_clean_linker_0, # of connection points: 2
#     Edge 84, Type (0, 0), BuildingBlock: AJUNOK_clean_linker_0, # of connection points: 2
#     Edge 85, Type (0, 0), BuildingBlock: AJUNOK_clean_linker_0, # of connection points: 2
#     Edge 86, Type (0, 0), BuildingBlock: AJUNOK_clean_linker_0, # of connection points: 2
#     Edge 87, Type (0, 0), BuildingBlock: AJUNOK_clean_linker_0, # of connection points: 2
#     Edge 88, Type (0, 0), BuildingBlock: AJUNOK_clean_linker_0, # of connection points: 2
#     Edge 89, Type (0, 0), BuildingBlock: AJUNOK_clean_linker_0, # of connection points: 2
#     Edge 90, Type (0, 0), BuildingBlock: AJUNOK_clean_linker_0, # of connection points: 2
#     Edge 91, Type (0, 0), BuildingBlock: AJUNOK_clean_linker_0, # of connection points: 2
#     Edge 92, Type (0, 0), BuildingBlock: AJUNOK_clean_linker_0, # of connection points: 2
#     Edge 93, Type (0, 0), BuildingBlock: AJUNOK_clean_linker_0, # of connection points: 2
#     Edge 94, Type (0, 0), BuildingBlock: AJUNOK_clean_linker_0, # of connection points: 2
#     Edge 95, Type (0, 0), BuildingBlock: AJUNOK_clean_linker_0, # of connection points: 2
#     Edge 96, Type (0, 0), BuildingBlock: AJUNOK_clean_linker_0, # of connection points: 2
#     Edge 97, Type (0, 0), BuildingBlock: AJUNOK_clean_linker_0, # of connection points: 2
#     Edge 98, Type (0, 0), BuildingBlock: AJUNOK_clean_linker_0, # of connection points: 2
#     Edge 99, Type (0, 0), BuildingBlock: AJUNOK_clean_linker_0, # of connection points: 2
#     Edge 100, Type (0, 0), BuildingBlock: AJUNOK_clean_linker_0, # of connection points: 2
#     Edge 101, Type (0, 0), BuildingBlock: AJUNOK_clean_linker_0, # of connection points: 2
#     Edge 102, Type (0, 0), BuildingBlock: AJUNOK_clean_linker_0, # of connection points: 2
#     Edge 103, Type (0, 0), BuildingBlock: AJUNOK_clean_linker_0, # of connection points: 2
#     Edge 104, Type (0, 0), BuildingBlock: AJUNOK_clean_linker_0, # of connection points: 2
#     Edge 105, Type (0, 0), BuildingBlock: AJUNOK_clean_linker_0, # of connection points: 2
#     Edge 106, Type (0, 0), BuildingBlock: AJUNOK_clean_linker_0, # of connection points: 2
#     Edge 107, Type (0, 0), BuildingBlock: AJUNOK_clean_linker_0, # of connection points: 2
#     Edge 108, Type (0, 0), BuildingBlock: AJUNOK_clean_linker_0, # of connection points: 2
#     Edge 109, Type (0, 0), BuildingBlock: AJUNOK_clean_linker_0, # of connection points: 2
#     Edge 110, Type (0, 0), BuildingBlock: AJUNOK_clean_linker_0, # of connection points: 2
#     Edge 111, Type (0, 0), BuildingBlock: AJUNOK_clean_linker_0, # of connection points: 2
#     Edge 112, Type (0, 0), BuildingBlock: AJUNOK_clean_linker_0, # of connection points: 2
#     Edge 113, Type (0, 0), BuildingBlock: AJUNOK_clean_linker_0, # of connection points: 2
#     Edge 114, Type (0, 0), BuildingBlock: AJUNOK_clean_linker_0, # of connection points: 2
#     Edge 115, Type (0, 0), BuildingBlock: AJUNOK_clean_linker_0, # of connection points: 2
#     Edge 116, Type (0, 0), BuildingBlock: AJUNOK_clean_linker_0, # of connection points: 2
#     Edge 117, Type (0, 0), BuildingBlock: AJUNOK_clean_linker_0, # of connection points: 2
#     Edge 118, Type (0, 0), BuildingBlock: AJUNOK_clean_linker_0, # of connection points: 2
#     Edge 119, Type (0, 0), BuildingBlock: AJUNOK_clean_linker_0, # of connection points: 2
#     Edge 120, Type (0, 0), BuildingBlock: AJUNOK_clean_linker_0, # of connection points: 2
#     Edge 121, Type (0, 0), BuildingBlock: AJUNOK_clean_linker_0, # of connection points: 2
#     Edge 122, Type (0, 0), BuildingBlock: AJUNOK_clean_linker_0, # of connection points: 2
#     Edge 123, Type (0, 0), BuildingBlock: AJUNOK_clean_linker_0, # of connection points: 2
#     Edge 124, Type (0, 0), BuildingBlock: AJUNOK_clean_linker_0, # of connection points: 2
#     Edge 125, Type (0, 0), BuildingBlock: AJUNOK_clean_linker_0, # of connection points: 2
#     Edge 126, Type (0, 0), BuildingBlock: AJUNOK_clean_linker_0, # of connection points: 2
#     Edge 127, Type (0, 0), BuildingBlock: AJUNOK_clean_linker_0, # of connection points: 2
#     Edge 128, Type (0, 0), BuildingBlock: AJUNOK_clean_linker_0, # of connection points: 2
#     Edge 129, Type (0, 0), BuildingBlock: AJUNOK_clean_linker_0, # of connection points: 2
#     Edge 130, Type (0, 0), BuildingBlock: AJUNOK_clean_linker_0, # of connection points: 2
#     Edge 131, Type (0, 0), BuildingBlock: AJUNOK_clean_linker_0, # of connection points: 2
#     Edge 132, Type (0, 0), BuildingBlock: AJUNOK_clean_linker_0, # of connection points: 2
#     Edge 133, Type (0, 0), BuildingBlock: AJUNOK_clean_linker_0, # of connection points: 2
#     Edge 134, Type (0, 0), BuildingBlock: AJUNOK_clean_linker_0, # of connection points: 2
#     Edge 135, Type (0, 0), BuildingBlock: AJUNOK_clean_linker_0, # of connection points: 2
#     Edge 136, Type (0, 0), BuildingBlock: AJUNOK_clean_linker_0, # of connection points: 2
#     Edge 137, Type (0, 0), BuildingBlock: AJUNOK_clean_linker_0, # of connection points: 2
#     Edge 138, Type (0, 0), BuildingBlock: AJUNOK_clean_linker_0, # of connection points: 2
#     Edge 139, Type (0, 0), BuildingBlock: AJUNOK_clean_linker_0, # of connection points: 2
#     Edge 140, Type (0, 0), BuildingBlock: AJUNOK_clean_linker_0, # of connection points: 2
#     Edge 141, Type (0, 0), BuildingBlock: AJUNOK_clean_linker_0, # of connection points: 2
#     Edge 142, Type (0, 0), BuildingBlock: AJUNOK_clean_linker_0, # of connection points: 2
#     Edge 143, Type (0, 0), BuildingBlock: AJUNOK_clean_linker_0, # of connection points: 2
# Relax obj value: 0.470
# Max RMSD: 0.203
# Mean RMSD: 0.203
data_MOF--net-wmt--node1-BETFAJ_clean_sbu_0--edge1-AJUNOK_clean_linker_0
_symmetry_space_group_name_H-M    P1
_symmetry_Int_Tables_number       1
_symmetry_cell_setting            triclinic
loop_
_symmetry_equiv_pos_as_xyz
'x, y, z'
_cell_length_a     59.225736
_cell_length_b     59.190913
_cell_length_c     27.570965
_cell_angle_alpha  89.994396
_cell_angle_beta   89.933657
_cell_angle_gamma 120.05204
loop_
_atom_site_label
_atom_site_type_symbol
_atom_site_fract_x
_atom_site_fract_y
_atom_site_fract_z
_atom_type_partial_charge
Sm0 Sm 0.06404 0.46793 0.18133 0.0
Sm1 Sm 0.01577 0.42744 0.13292 0.0
C2 C 0.09207 0.50441 0.24728 0.0
C3 C 0.0864 0.51287 0.29517 0.0
C4 C 0.06116 0.50787 0.30741 0.0
C5 C 0.05639 0.5171 0.3514 0.0
C6 C 0.07666 0.5315 0.38486 0.0
C7 C 0.10189 0.53647 0.37226 0.0
C8 C 0.10663 0.52728 0.32832 0.0
C9 C 0.07606 0.43932 0.11436 0.0
C10 C 0.01419 0.42268 0.25085 0.0
C11 C 0.98361 0.39209 0.07119 0.0
C12 C 0.99234 0.39184 1.0221 0.0
C13 C 0.0187 0.40904 1.01346 0.0
C14 C 0.02922 0.4119 0.96812 0.0
C15 C 0.01346 0.39771 0.92943 0.0
C16 C 0.98667 0.38003 0.93732 0.0
C17 C 0.976 0.37718 0.98396 0.0
C18 C 0.00982 0.46746 0.16793 0.0
C19 C 0.05767 0.48179 0.06928 0.0
O20 O 0.08181 0.50865 0.20878 0.0
O21 O 0.09118 0.4818 0.24527 0.0
O22 O 0.05538 0.42947 0.14136 0.0
O23 O 0.09218 0.46269 0.13054 0.0
O24 O 0.03768 0.44357 0.24746 0.0
O25 O 0.00146 0.41091 0.21083 0.0
O26 O 0.99617 0.38685 0.10434 0.0
O27 O 0.9829 0.41332 0.08083 0.0
O28 O 0.02996 0.46889 0.15014 0.0
O29 O 0.99255 0.44296 0.1744 0.0
O30 O 0.03621 0.4584 0.06994 0.0
O31 O 0.07173 0.49145 0.10936 0.0
H32 H 0.04507 0.49693 0.28273 0.0
H33 H 0.0367 0.51272 0.35943 0.0
H34 H 0.11824 0.54797 0.39602 0.0
H35 H 0.12633 0.53179 0.31994 0.0
H36 H 0.03163 0.41959 1.04277 0.0
H37 H 0.05001 0.42484 0.96392 0.0
H38 H 0.97408 0.3689 0.90756 0.0
H39 H 0.95539 0.36398 0.99004 0.0
Sm40 Sm 0.51979 0.58702 0.17747 0.0
Sm41 Sm 0.56799 0.58958 0.13311 0.0
C42 C 0.47886 0.57178 0.23623 0.0
C43 C 0.47012 0.55787 0.28436 0.0
C44 C 0.44591 0.5346 0.28818 0.0
C45 C 0.43729 0.52105 0.33258 0.0
C46 C 0.45249 0.53036 0.37507 0.0
C47 C 0.47691 0.55353 0.37107 0.0
C48 C 0.48555 0.56707 0.32657 0.0
C49 C 0.5455 0.62921 0.11328 0.0
C50 C 0.56616 0.58903 0.25278 0.0
C51 C 0.61195 0.60133 0.08828 0.0
C52 C 0.62531 0.61324 1.04323 0.0
C53 C 0.64887 0.61422 1.03192 0.0
C54 C 0.6605 0.62356 0.98677 0.0
C55 C 0.64873 0.63228 0.95334 0.0
C56 C 0.62577 0.63232 0.96577 0.0
C57 C 0.61397 0.62257 1.01034 0.0
C58 C 0.53046 0.53958 0.16027 0.0
C59 C 0.5161 0.57211 0.06127 0.0
O60 O 0.47902 0.55794 0.1993 0.0
O61 O 0.4988 0.59574 0.23546 0.0
O62 O 0.55704 0.6211 0.14227 0.0
O63 O 0.52128 0.61886 0.12727 0.0
O64 O 0.5431 0.5871 0.24696 0.0
O65 O 0.58085 0.59232 0.21427 0.0
O66 O 0.60987 0.61697 0.11925 0.0
O67 O 0.59047 0.57885 0.08361 0.0
O68 O 0.52744 0.55755 0.14416 0.0
O69 O 0.55532 0.54894 0.16648 0.0
O70 O 0.54193 0.58205 0.06364 0.0
O71 O 0.50231 0.56902 0.1016 0.0
H72 H 0.43358 0.52673 0.2565 0.0
H73 H 0.4188 0.50297 0.33329 0.0
H74 H 0.48932 0.56143 0.40262 0.0
H75 H 0.5044 0.58477 0.3253 0.0
H76 H 0.65772 0.60695 0.05726 0.0
H77 H 0.67794 0.62299 0.97712 0.0
H78 H 0.61613 0.63842 0.93984 0.0
H79 H 0.5955 0.62134 1.01843 0.0
Sm80 Sm 0.40586 0.93196 0.1771 0.0
Sm81 Sm 0.40281 0.97672 0.12953 0.0
C82 C 0.42112 0.90726 0.23859 0.0
C83 C 0.43525 0.9133 0.28662 0.0
C84 C 0.45595 0.93849 0.29787 0.0
C85 C 0.46963 0.9436 0.34224 0.0
C86 C 0.46315 0.92381 0.37705 0.0
C87 C 0.44231 0.89867 0.36578 0.0
C88 C 0.42865 0.89352 0.32141 0.0
C89 C 0.36301 0.9142 0.11323 0.0
C90 C 0.40455 0.97773 0.24957 0.0
C91 C 0.39091 0.0072 0.07853 0.0
C92 C 0.37465 0.00326 1.03589 0.0
C93 C 0.35126 0.97966 1.03031 0.0
C94 C 0.33887 0.97281 0.98574 0.0
C95 C 0.34987 0.98922 0.94584 0.0
C96 C 0.37183 0.01408 0.9522 0.0
C97 C 0.38424 0.0211 0.99731 0.0
C98 C 0.45287 0.99074 0.15789 0.0
C99 C 0.42159 0.94171 0.06175 0.0
O100 O 0.4347 0.92053 0.20076 0.0
O101 O 0.39728 0.90346 0.23796 0.0
O102 O 0.3714 0.93419 0.14145 0.0
O103 O 0.37423 0.901 0.12633 0.0
O104 O 0.40597 0.95625 0.24486 0.0
O105 O 0.40135 0.9888 0.21036 0.0
O106 O 0.37856 0.99501 0.11807 0.0
O107 O 0.41178 0.00551 0.07043 0.0
O108 O 0.43525 0.96917 0.14289 0.0
O109 O 0.44296 0.00583 0.16253 0.0
O110 O 0.41083 0.95692 0.06202 0.0
O111 O 0.4248 0.932 0.10311 0.0
H112 H 0.46162 0.95434 0.27231 0.0
H113 H 0.485 0.96324 0.34977 0.0
H114 H 0.43671 0.88276 0.39117 0.0
H115 H 0.41297 0.87389 0.3141 0.0
H116 H 0.34362 0.96563 0.05923 0.0
H117 H 0.32202 0.95368 0.98115 0.0
H118 H 0.3808 0.02692 0.92143 0.0
H119 H 0.40236 0.03944 1.00095 0.0
Sm120 Sm 0.47341 0.07079 0.52674 0.0
Sm121 Sm 0.4313 0.02139 0.56882 0.0
C122 C 0.5104 0.10056 0.46325 0.0
C123 C 0.51934 0.09473 0.41585 0.0
C124 C 0.52845 0.07684 0.41346 0.0
C125 C 0.53707 0.07164 0.36941 0.0
C126 C 0.53702 0.08403 0.32567 0.0
C127 C 0.52748 0.10166 0.328 0.0
C128 C 0.51888 0.10694 0.37225 0.0
C129 C 0.4444 0.08097 0.59523 0.0
C130 C 0.42948 0.02447 0.45034 0.0
C131 C 0.3903 0.98308 0.61296 0.0
C132 C 0.37706 0.97541 0.65983 0.0
C133 C 0.35051 0.96784 0.6633 0.0
C134 C 0.33834 0.96277 0.70862 0.0
C135 C 0.3526 0.96471 0.75046 0.0
C136 C 0.37884 0.97122 0.74639 0.0
C137 C 0.39092 0.9764 0.70152 0.0
C138 C 0.4723 0.01604 0.53475 0.0
C139 C 0.48323 0.05926 0.63902 0.0
O140 O 0.51494 0.09131 0.50295 0.0
O141 O 0.48746 0.09894 0.46423 0.0
O142 O 0.43466 0.06157 0.56528 0.0
O143 O 0.46797 0.09773 0.58095 0.0
O144 O 0.4516 0.04661 0.45676 0.0
O145 O 0.41599 0.01161 0.48896 0.0
O146 O 0.38975 0.00227 0.59061 0.0
O147 O 0.41291 0.98429 0.60963 0.0
O148 O 0.47323 0.03549 0.55442 0.0
O149 O 0.44796 -0.00078 0.52636 0.0
O150 O 0.45849 0.03974 0.63741 0.0
O151 O 0.49475 0.07271 0.59891 0.0
H152 H 0.52891 0.06668 0.44577 0.0
H153 H 0.54354 0.05756 0.36987 0.0
H154 H 0.52704 0.11179 0.29565 0.0
H155 H 0.51194 0.12075 0.37236 0.0
H156 H 0.33948 0.96674 0.63121 0.0
H157 H 0.31817 0.958 0.71113 0.0
H158 H 0.39057 0.97375 0.77825 0.0
H159 H 0.41142 0.98227 0.69991 0.0
Sm160 Sm 0.92441 0.40237 0.53032 0.0
Sm161 Sm 0.9715 0.40308 0.56515 0.0
C162 C 0.8964 0.41421 0.47082 0.0
C163 C 0.90295 0.42944 0.4239 0.0
C164 C 0.92802 0.45101 0.41513 0.0
C165 C 0.93393 0.46537 0.37138 0.0
C166 C 0.91502 0.45872 0.33464 0.0
C167 C 0.89006 0.43687 0.34332 0.0
C168 C 0.88414 0.42257 0.38715 0.0
C169 C 0.91131 0.36025 0.59397 0.0
C170 C 0.96588 0.4 0.44942 0.0
C171 C 0.01029 0.39779 0.59938 0.0
C172 C 0.02618 0.40563 0.64235 0.0
C173 C 0.03934 0.39254 0.65614 0.0
C174 C 0.0496 0.39604 0.70272 0.0
C175 C 0.04653 0.41257 0.73515 0.0
C176 C 0.03559 0.42754 0.71897 0.0
C177 C 0.02536 0.42396 0.67288 0.0
C178 C 0.98092 0.45258 0.54077 0.0
C179 C 0.93892 0.42 0.64433 0.0
O180 O 0.90765 0.42743 0.51029 0.0
O181 O 0.89535 0.3915 0.47002 0.0
O182 O 0.92986 0.36875 0.56205 0.0
O183 O 0.89645 0.37004 0.58376 0.0
O184 O 0.94886 0.40756 0.459 0.0
O185 O 0.97391 0.39151 0.48573 0.0
O186 O 0.98576 0.38078 0.60642 0.0
O187 O 0.01366 0.41678 0.57101 0.0
O188 O 0.9612 0.43441 0.56012 0.0
O189 O 0.9959 0.44352 0.52809 0.0
O190 O 0.95724 0.41322 0.63844 0.0
O191 O 0.9252 0.42028 0.60617 0.0
H192 H 0.94319 0.45678 0.44216 0.0
H193 H 0.95356 0.4815 0.36609 0.0
H194 H 0.87487 0.43095 0.31633 0.0
H195 H 0.86469 0.40609 0.39237 0.0
H196 H 0.04001 0.37831 0.63239 0.0
H197 H 0.05773 0.38418 0.71478 0.0
H198 H 0.03212 0.4398 0.74345 0.0
H199 H 0.01486 0.43386 0.66258 0.0
Sm200 Sm 0.5908 0.52158 0.52959 0.0
Sm201 Sm 0.59158 0.56892 0.57293 0.0
C202 C 0.57766 0.4819 0.46868 0.0
C203 C 0.56432 0.47468 0.42011 0.0
C204 C 0.54936 0.4856 0.40352 0.0
C205 C 0.53599 0.47794 0.35885 0.0
C206 C 0.5369 0.45891 0.32932 0.0
C207 C 0.55236 0.44843 0.34568 0.0
C208 C 0.56579 0.45615 0.39034 0.0
C209 C 0.63313 0.54879 0.59266 0.0
C210 C 0.59048 0.56687 0.45362 0.0
C211 C 0.60244 0.61218 0.61963 0.0
C212 C 0.61865 0.62553 0.66156 0.0
C213 C 0.64085 0.62359 0.67011 0.0
C214 C 0.65323 0.63061 0.71465 0.0
C215 C 0.64352 0.63959 0.75136 0.0
C216 C 0.62265 0.64383 0.74166 0.0
C217 C 0.61014 0.6367 0.6967 0.0
C218 C 0.54221 0.53063 0.54491 0.0
C219 C 0.57509 0.51681 0.64499 0.0
O220 O 0.56329 0.48092 0.50569 0.0
O221 O 0.60125 0.50235 0.47057 0.0
O222 O 0.62447 0.5596 0.56299 0.0
O223 O 0.62242 0.52408 0.58198 0.0
O224 O 0.59006 0.54453 0.4602 0.0
O225 O 0.59271 0.58137 0.49178 0.0
O226 O 0.61504 0.6118 0.58082 0.0
O227 O 0.58192 0.58953 0.62919 0.0
O228 O 0.56033 0.5281 0.56166 0.0
O229 O 0.55077 0.55542 0.53993 0.0
O230 O 0.58431 0.54256 0.64244 0.0
O231 O 0.57277 0.50322 0.60482 0.0
H232 H 0.54782 0.49999 0.42533 0.0
H233 H 0.52502 0.48713 0.34734 0.0
H234 H 0.55368 0.43378 0.32434 0.0
H235 H 0.5771 0.44734 0.40191 0.0
H236 H 0.64748 0.61506 0.64329 0.0
H237 H 0.66938 0.62754 0.72179 0.0
H238 H 0.6148 0.65065 0.76991 0.0
H239 H 0.5929 0.63825 0.69061 0.0
Sm240 Sm 0.97224 0.56641 0.07087 0.0
Sm241 Sm 0.92544 0.51869 1.03124 0.0
C242 C 0.00845 0.61006 0.11182 0.0
C243 C 0.01255 0.62397 0.15733 0.0
C244 C 0.99114 0.62253 0.18129 0.0
C245 C 0.99311 0.62946 0.22959 0.0
C246 C 0.01675 0.63885 0.25413 0.0
C247 C 0.03889 0.64217 0.2294 0.0
C248 C 0.03678 0.63474 0.18079 0.0
C249 C 0.98287 0.52768 1.04334 0.0
C250 C 0.93732 0.51549 0.14602 0.0
C251 C 0.89785 0.47928 0.97039 0.0
C252 C 0.90439 0.47029 0.92394 0.0
C253 C 0.92974 0.47487 0.91458 0.0
C254 C 0.93579 0.46657 0.87087 0.0
C255 C 0.91675 0.45325 0.8347 0.0
C256 C 0.89132 0.44868 0.84449 0.0
C257 C 0.8853 0.45706 0.88818 0.0
C258 C 0.91085 0.54698 0.09308 0.0
C259 C 0.9702 0.56268 0.95365 0.0
O260 O 0.9902 0.60891 0.08339 0.0
O261 O 0.00779 0.58774 0.11565 0.0
O262 O 0.9626 0.52522 0.06205 0.0
O263 O -0.00173 0.55226 1.03422 0.0
O264 O 0.95361 0.54129 0.14217 0.0
O265 O 0.92617 0.50123 0.10647 0.0
O266 O 0.90847 0.47689 1.01039 0.0
O267 O 0.89762 0.50135 0.96899 0.0
O268 O 0.93019 0.5574 0.06305 0.0
O269 O 0.8963 0.52237 0.08228 0.0
O270 O 0.95228 0.53829 0.963 0.0
O271 O 0.97862 0.57964 0.98956 0.0
H272 H 0.97242 0.61426 0.16365 0.0
H273 H 0.97555 0.62517 0.249 0.0
H274 H 0.05708 0.64862 0.24851 0.0
H275 H 0.05345 0.63564 0.16265 0.0
H276 H 0.94504 0.48506 0.94109 0.0
H277 H 0.95564 0.47108 0.8653 0.0
H278 H 0.87581 0.43832 0.81848 0.0
H279 H 0.86556 0.45311 0.89404 0.0
Sm280 Sm 0.42781 0.40532 0.06891 0.0
Sm281 Sm 0.47425 0.40231 1.02935 0.0
C282 C 0.38522 0.40005 0.11096 0.0
C283 C 0.37412 0.39835 0.15899 0.0
C284 C 0.38983 0.41439 0.19654 0.0
C285 C 0.38038 0.40994 0.24364 0.0
C286 C 0.35514 0.38931 0.25399 0.0
C287 C 0.33866 0.37471 0.21575 0.0
C288 C 0.34809 0.37946 0.16827 0.0
C289 C 0.46817 0.45277 1.03653 0.0
C290 C 0.47956 0.42232 0.14242 0.0
C291 C 0.5135 0.41381 0.96804 0.0
C292 C 0.52176 0.42861 0.92068 0.0
C293 C 0.51225 0.44515 0.90612 0.0
C294 C 0.52061 0.45952 0.86236 0.0
C295 C 0.53895 0.45805 0.8316 0.0
C296 C 0.54813 0.44116 0.84608 0.0
C297 C 0.53974 0.42677 0.88983 0.0
C298 C 0.44548 0.36208 0.09573 0.0
C299 C 0.42889 0.40051 0.95114 0.0
O300 O 0.38756 0.38015 0.09723 0.0
O301 O 0.40544 0.42251 0.0996 0.0
O302 O 0.46939 0.43459 0.05669 0.0
O303 O 0.44371 0.44491 1.02876 0.0
O304 O 0.4544 0.41556 0.13868 0.0
O305 O 0.49273 0.42164 0.10363 0.0
O306 O 0.51575 0.42747 1.00697 0.0
O307 O 0.49182 0.39111 0.96834 0.0
O308 O 0.43541 0.37108 0.06502 0.0
O309 O 0.46952 0.37 0.08274 0.0
O310 O 0.45215 0.40332 0.95909 0.0
O311 O 0.41368 0.39754 0.98848 0.0
H312 H 0.40995 0.42922 0.19016 0.0
H313 H 0.39386 0.4211 0.27233 0.0
H314 H 0.31914 0.35874 0.22291 0.0
H315 H 0.3355 0.36755 0.1392 0.0
H316 H 0.49834 0.44706 0.92874 0.0
H317 H 0.51241 0.47161 0.85242 0.0
H318 H 0.56222 0.43934 0.82386 0.0
H319 H 0.54752 0.41431 0.89976 0.0
Sm320 Sm 0.5864 0.02293 0.06824 0.0
Sm321 Sm 0.59196 0.07187 1.02768 0.0
C322 C 0.58522 0.98365 0.11658 0.0
C323 C 0.58465 0.98044 0.16863 0.0
C324 C 0.58847 0.0018 0.19584 0.0
C325 C 0.58566 0.0001 0.24496 0.0
C326 C 0.57795 0.9765 0.26848 0.0
C327 C 0.57435 0.95463 0.2421 0.0
C328 C 0.57746 0.95655 0.19147 0.0
C329 C 0.53988 0.01704 1.03413 0.0
C330 C 0.57195 0.06128 0.13857 0.0
C331 C 0.58545 0.10104 0.96214 0.0
C332 C 0.5707 0.09458 0.91457 0.0
C333 C 0.54589 0.09242 0.91166 0.0
C334 C 0.5319 0.08619 0.86756 0.0
C335 C 0.54226 0.08212 0.82449 0.0
C336 C 0.56692 0.08395 0.82754 0.0
C337 C 0.58088 0.09009 0.87165 0.0
C338 C 0.63175 0.08288 0.09593 0.0
C339 C 0.59006 0.02612 0.95218 0.0
O340 O 0.60674 0.00321 0.09926 0.0
O341 O 0.56449 0.9835 0.10055 0.0
O342 O 0.5578 0.03617 0.05541 0.0
O343 O 0.54779 0.00065 1.02498 0.0
O344 O 0.57929 0.04332 0.13647 0.0
O345 O 0.57128 0.07331 0.09834 0.0
O346 O 0.57156 0.09278 1.00205 0.0
O347 O 0.6066 0.09908 0.96426 0.0
O348 O 0.62268 0.06362 0.06554 0.0
O349 O 0.62376 0.09878 0.08223 0.0
O350 O 0.5844 0.0447 0.95999 0.0
O351 O 0.59709 0.01719 0.98958 0.0
H352 H 0.59429 0.02025 0.17924 0.0
H353 H 0.58975 0.01752 0.26483 0.0
H354 H 0.56899 0.93642 0.26033 0.0
H355 H 0.57398 0.93966 0.17044 0.0
H356 H 0.53722 0.09561 0.94364 0.0
H357 H 0.51305 0.08501 0.86702 0.0
H358 H 0.57543 0.08038 0.79577 0.0
H359 H 0.5997 0.09122 0.87201 0.0
Sm360 Sm 0.57062 0.9773 0.64225 0.0
Sm361 Sm 0.52403 0.93104 0.67924 0.0
C362 C 0.61241 0.01582 0.60082 0.0
C363 C 0.61166 0.02611 0.55349 0.0
C364 C 0.6323 0.03384 0.52084 0.0
C365 C 0.62723 0.03196 0.47112 0.0
C366 C 0.60128 0.02086 0.45449 0.0
C367 C 0.58162 0.01679 0.48775 0.0
C368 C 0.58699 0.02011 0.53668 0.0
C369 C 0.53048 0.98748 0.66275 0.0
C370 C 0.51972 0.94312 0.56502 0.0
C371 C 0.48564 0.90229 0.74115 0.0
C372 C 0.47589 0.90824 0.78721 0.0
C373 C 0.47594 0.93191 0.79372 0.0
C374 C 0.46701 0.93731 0.83739 0.0
C375 C 0.45802 0.91936 0.87626 0.0
C376 C 0.45781 0.89561 0.86937 0.0
C377 C 0.46662 0.89018 0.82569 0.0
C378 C 0.55274 0.91639 0.61828 0.0
C379 C 0.56647 0.97466 0.75688 0.0
O380 O 0.60725 0.99169 0.5999 0.0
O381 O 0.59911 0.01966 0.63409 0.0
O382 O 0.5288 0.96719 0.64598 0.0
O383 O 0.55461 0.00292 0.67429 0.0
O384 O 0.54525 0.96074 0.5694 0.0
O385 O 0.50599 0.93069 0.60436 0.0
O386 O 0.4821 0.91168 0.70056 0.0
O387 O 0.50857 0.90391 0.74284 0.0
O388 O 0.56306 0.93557 0.6489 0.0
O389 O 0.52798 0.90224 0.62795 0.0
O390 O 0.54172 0.96018 0.74508 0.0
O391 O 0.5838 0.97943 0.7227 0.0
H392 H 0.65151 0.03859 0.53346 0.0
H393 H 0.64303 0.03626 0.44621 0.0
H394 H 0.5613 0.00766 0.4777 0.0
H395 H 0.57072 0.01388 0.56143 0.0
H396 H 0.48305 0.9464 0.76508 0.0
H397 H 0.46763 0.95583 0.84107 0.0
H398 H 0.45059 0.88099 0.89774 0.0
H399 H 0.4662 0.87176 0.82201 0.0
Sm400 Sm 0.02013 0.58638 0.63967 0.0
Sm401 Sm 0.06745 0.59048 0.68246 0.0
C402 C 0.98286 0.58943 0.59273 0.0
C403 C 0.98085 0.60065 0.54703 0.0
C404 C -0.00028 0.62624 0.53505 0.0
C405 C 0.00262 0.63456 0.4874 0.0
C406 C 0.9864 0.6177 0.45149 0.0
C407 C 0.96587 0.59288 0.46391 0.0
C408 C 0.96302 0.58439 0.51184 0.0
C409 C 0.0115 0.53833 0.6711 0.0
C410 C 0.05744 0.57178 0.56949 0.0
C411 C 0.09741 0.58435 0.74739 0.0
C412 C 0.09257 0.57038 0.79554 0.0
C413 C 0.10445 0.55544 0.8062 0.0
C414 C 0.09986 0.54197 0.85074 0.0
C415 C 0.08287 0.54259 0.886 0.0
C416 C 0.07109 0.55765 0.87537 0.0
C417 C 0.07601 0.57146 0.83119 0.0
C418 C 0.07997 0.63179 0.617 0.0
C419 C 0.02057 0.58712 0.7567 0.0
O420 O 0.99728 0.60595 0.62637 0.0
O421 O 0.98697 0.56982 0.5883 0.0
O422 O 0.03185 0.55637 0.65276 0.0
O423 O 0.99572 0.54706 0.67961 0.0
O424 O 0.04045 0.58044 0.57042 0.0
O425 O 0.06866 0.57062 0.61054 0.0
O426 O 0.0882 0.56983 0.70848 0.0
O427 O 0.09479 0.6051 0.74548 0.0
O428 O 0.06049 0.62241 0.64667 0.0
O429 O 0.09526 0.62283 0.62908 0.0
O430 O 0.0396 0.58212 0.74916 0.0
O431 O 0.01162 0.59403 0.71923 0.0
H432 H 0.01388 0.63891 0.56141 0.0
H433 H 0.0192 0.65305 0.47767 0.0
H434 H 0.95338 0.57953 0.43613 0.0
H435 H 0.94834 0.5645 0.52062 0.0
H436 H 0.11733 0.55412 0.77989 0.0
H437 H 0.10932 0.53064 0.85717 0.0
H438 H 0.05819 0.55899 0.90162 0.0
H439 H 0.06673 0.58296 0.82504 0.0
Sm440 Sm 0.40709 0.42226 0.63025 0.0
Sm441 Sm 0.4028 0.46607 0.67699 0.0
C442 C 0.40317 0.38268 0.57883 0.0
C443 C 0.39036 0.36996 0.5332 0.0
C444 C 0.36313 0.35767 0.52872 0.0
C445 C 0.35173 0.35317 0.48308 0.0
C446 C 0.36744 0.36046 0.44179 0.0
C447 C 0.39417 0.36933 0.44594 0.0
C448 C 0.40562 0.37398 0.49164 0.0
C449 C 0.45456 0.46258 0.66198 0.0
C450 C 0.4184 0.47339 0.56167 0.0
C451 C 0.41393 0.50476 0.73942 0.0
C452 C 0.42897 0.5142 0.78642 0.0
C453 C 0.42187 0.49856 0.82858 0.0
C454 C 0.43629 0.50791 0.87205 0.0
C455 C 0.45845 0.53316 0.87497 0.0
C456 C 0.46543 0.54874 0.83274 0.0
C457 C 0.451 0.53942 0.78938 0.0
C458 C 0.36108 0.43766 0.61337 0.0
C459 C 0.40542 0.4212 0.74951 0.0
O460 O 0.38795 0.37984 0.61555 0.0
O461 O 0.42256 0.40662 0.5745 0.0
O462 O 0.43587 0.46392 0.64449 0.0
O463 O 0.44747 0.43811 0.66651 0.0
O464 O 0.41136 0.4482 0.56246 0.0
O465 O 0.41978 0.48613 0.60238 0.0
O466 O 0.42751 0.50763 0.70007 0.0
O467 O 0.3916 0.48268 0.73941 0.0
O468 O 0.37134 0.42729 0.6404 0.0
O469 O 0.3693 0.46144 0.62827 0.0
O470 O 0.40447 0.44291 0.74487 0.0
O471 O 0.40475 0.40802 0.71029 0.0
H472 H 0.35097 0.35399 0.56016 0.0
H473 H 0.33117 0.34659 0.48005 0.0
H474 H 0.40651 0.37514 0.414 0.0
H475 H 0.42664 0.38304 0.49428 0.0
H476 H 0.40517 0.479 0.82808 0.0
H477 H 0.4302 0.49517 0.90339 0.0
H478 H 0.48186 0.56846 0.83331 0.0
H479 H 0.45708 0.55212 0.75795 0.0
Sm480 Sm 0.7206 0.80095 0.50463 0.0
Sm481 Sm 0.67881 0.74831 0.46937 0.0
C482 C 0.74747 0.8426 0.5608 0.0
C483 C 0.74311 0.85152 0.60955 0.0
C484 C 0.73984 0.87346 0.61306 0.0
C485 C 0.73575 0.88206 0.65826 0.0
C486 C 0.73465 0.86897 0.70183 0.0
C487 C 0.73836 0.84725 0.69833 0.0
C488 C 0.74242 0.83863 0.6531 0.0
C489 C 0.73963 0.77547 0.44356 0.0
C490 C 0.6813 0.75787 0.58877 0.0
C491 C 0.6505 0.69857 0.44509 0.0
C492 C 0.6369 0.68627 0.4003 0.0
C493 C 0.63185 0.66123 0.3875 0.0
C494 C 0.6255 0.65271 0.33951 0.0
C495 C 0.62321 0.66886 0.3049 0.0
C496 C 0.62614 0.69295 0.31938 0.0
C497 C 0.63301 0.70159 0.36655 0.0
C498 C 0.6623 0.78316 0.46224 0.0
C499 C 0.7072 0.79948 0.39078 0.0
O500 O 0.73297 0.84221 0.52438 0.0
O501 O 0.75146 0.82266 0.55996 0.0
O502 O 0.72203 0.76453 0.47653 0.0
O503 O 0.75027 0.80056 0.44896 0.0
O504 O 0.70074 0.78139 0.57844 0.0
O505 O 0.67059 0.74063 0.55337 0.0
O506 O 0.67586 0.71223 0.44082 0.0
O507 O 0.64103 0.71096 0.46926 0.0
O508 O 0.67675 0.78311 0.49685 0.0
O509 O 0.65332 0.76207 0.43647 0.0
O510 O 0.69455 0.77326 0.39541 0.0
O511 O 0.71602 0.81459 0.4297 0.0
H512 H 0.74054 0.88414 0.58065 0.0
H513 H 0.73384 0.89931 0.65899 0.0
H514 H 0.73758 0.83647 0.73063 0.0
H515 H 0.74482 0.82166 0.65236 0.0
H516 H 0.63473 0.64919 0.41349 0.0
H517 H 0.62389 0.63435 0.32888 0.0
H518 H 0.6254 0.70626 0.29329 0.0
H519 H 0.63714 0.72109 0.37567 0.0
Sm520 Sm 0.19143 0.92208 0.51039 0.0
Sm521 Sm 0.24048 0.92673 0.46385 0.0
C522 C 0.15109 0.90652 0.57073 0.0
C523 C 0.14319 0.89276 0.61908 0.0
C524 C 0.11869 0.86998 0.62459 0.0
C525 C 0.11086 0.85669 0.66939 0.0
C526 C 0.12716 0.86582 0.71052 0.0
C527 C 0.15188 0.88843 0.70474 0.0
C528 C 0.15974 0.90167 0.65987 0.0
C529 C 0.21802 0.96579 0.44869 0.0
C530 C 0.23797 0.9237 0.58429 0.0
C531 C 0.28461 0.94553 0.41595 0.0
C532 C 0.29417 0.96197 0.37314 0.0
C533 C 0.32088 0.97628 0.36307 0.0
C534 C 0.32966 0.99148 0.32126 0.0
C535 C 0.31154 0.99125 0.28814 0.0
C536 C 0.28493 0.97808 0.29993 0.0
C537 C 0.27632 0.96361 0.34229 0.0
C538 C 0.20624 0.87695 0.49437 0.0
C539 C 0.18619 0.90639 0.39532 0.0
O540 O 0.15101 0.89267 0.5336 0.0
O541 O 0.1708 0.9306 0.56934 0.0
O542 O 0.22863 0.95701 0.47811 0.0
O543 O 0.19314 0.95404 0.45868 0.0
O544 O 0.21512 0.92225 0.57887 0.0
O545 O 0.25264 0.92698 0.5455 0.0
O546 O 0.28167 0.95708 0.45393 0.0
O547 O 0.26488 0.92197 0.40863 0.0
O548 O 0.20115 0.89361 0.47798 0.0
O549 O 0.23127 0.88612 0.49177 0.0
O550 O 0.21224 0.91734 0.39596 0.0
O551 O 0.17308 0.90316 0.43642 0.0
H552 H 0.10547 0.8624 0.59405 0.0
H553 H 0.09173 0.83943 0.67202 0.0
H554 H 0.16537 0.89582 0.73489 0.0
H555 H 0.17886 0.91891 0.65717 0.0
H556 H 0.33478 0.9746 0.38591 0.0
H557 H 0.35021 0.00103 0.31219 0.0
H558 H 0.27052 0.97714 0.27456 0.0
H559 H 0.2556 0.95286 0.34994 0.0
Sm560 Sm 0.07865 0.26855 0.50158 0.0
Sm561 Sm 0.06092 0.30533 0.46639 0.0
C562 C 0.09763 0.24534 0.55798 0.0
C563 C 0.1118 0.25092 0.60606 0.0
C564 C 0.13628 0.27351 0.6141 0.0
C565 C 0.14915 0.27812 0.65937 0.0
C566 C 0.13793 0.26049 0.69847 0.0
C567 C 0.11363 0.23776 0.68996 0.0
C568 C 0.10085 0.23313 0.64479 0.0
C569 C 0.03277 0.24479 0.44284 0.0
C570 C 0.07067 0.30546 0.585 0.0
C571 C 0.03674 0.33047 0.44003 0.0
C572 C 0.04241 0.34865 0.40003 0.0
C573 C 0.022 0.34624 0.37093 0.0
C574 C 0.0267 0.35346 0.32232 0.0
C575 C 0.05134 0.3609 0.30248 0.0
C576 C 0.07258 0.36851 0.3339 0.0
C577 C 0.06811 0.36273 0.38288 0.0
C578 C 0.11349 0.32767 0.45784 0.0
C579 C 0.08779 0.28165 0.38742 0.0
O580 O 0.11026 0.25995 0.52046 0.0
O581 O 0.07305 0.23936 0.55886 0.0
O582 O 0.03812 0.26201 0.47596 0.0
O583 O 0.04974 0.23711 0.44737 0.0
O584 O 0.07904 0.28924 0.57402 0.0
O585 O 0.06012 0.31276 0.55053 0.0
O586 O 0.02894 0.30644 0.42667 0.0
O587 O 0.05429 0.33866 0.47434 0.0
O588 O 0.10019 0.31261 0.49276 0.0
O589 O 0.09913 0.33359 0.43148 0.0
O590 O 0.07147 0.29108 0.39301 0.0
O591 O 0.0967 0.27488 0.42564 0.0
H592 H 0.14552 0.28778 0.58546 0.0
H593 H 0.16775 0.29583 0.66401 0.0
H594 H 0.1045 0.22321 0.71817 0.0
H595 H 0.08226 0.21539 0.64008 0.0
H596 H 0.00213 0.33596 0.38383 0.0
H597 H 0.01032 0.34937 0.29918 0.0
H598 H 0.0921 0.37525 0.32031 0.0
H599 H 0.08437 0.36586 0.4054 0.0
Sm600 Sm 0.13961 0.4005 0.85808 0.0
Sm601 Sm 0.09943 0.35121 0.90185 0.0
C602 C 0.17414 0.42984 0.79064 0.0
C603 C 0.18325 0.42309 0.74446 0.0
C604 C 0.18976 0.40318 0.7431 0.0
C605 C 0.19837 0.39706 0.69986 0.0
C606 C 0.2004 0.41029 0.65605 0.0
C607 C 0.19391 0.43024 0.65756 0.0
C608 C 0.18548 0.43649 0.70092 0.0
C609 C 0.10954 0.41017 0.92611 0.0
C610 C 0.09549 0.35219 0.78542 0.0
C611 C 0.06677 0.31482 0.96183 0.0
C612 C 0.06636 0.31861 1.01381 0.0
C613 C 0.07879 0.34426 1.03047 0.0
C614 C 0.07852 0.34974 0.0788 0.0
C615 C 0.06681 0.32947 0.11251 0.0
C616 C 0.05692 0.30348 0.09663 0.0
C617 C 0.05623 0.29802 1.04706 0.0
C618 C 0.14087 0.34746 0.86578 0.0
C619 C 0.15244 0.39228 0.96848 0.0
O620 O 0.18063 0.42346 0.83171 0.0
O621 O 0.1502 0.42575 0.79164 0.0
O622 O 0.1003 0.39032 0.89722 0.0
O623 O 0.13306 0.42689 0.91146 0.0
O624 O 0.11898 0.37265 0.79161 0.0
O625 O 0.08079 0.3414 0.82415 0.0
O626 O 0.06007 0.32889 0.93528 0.0
O627 O 0.08827 0.31617 0.947 0.0
O628 O 0.14136 0.36651 0.88617 0.0
O629 O 0.11665 0.33015 0.85748 0.0
O630 O 0.12764 0.37325 0.96757 0.0
O631 O 0.16376 0.4048 0.92766 0.0
H632 H 0.18808 0.39214 0.77553 0.0
H633 H 0.20299 0.38153 0.70061 0.0
H634 H 0.19572 0.44142 0.62525 0.0
H635 H 0.18076 0.45196 0.7004 0.0
H636 H 0.08774 0.36034 1.00562 0.0
H637 H 0.08642 0.36998 0.08893 0.0
H638 H 0.04928 0.2874 0.12205 0.0
H639 H 0.04786 0.27802 1.03485 0.0
Sm640 Sm 0.59346 0.73672 0.8682 0.0
Sm641 Sm 0.63913 0.73258 0.91054 0.0
C642 C 0.5688 0.75142 0.80641 0.0
C643 C 0.57637 0.76669 0.75952 0.0
C644 C 0.59826 0.79209 0.75617 0.0
C645 C 0.60494 0.80615 0.71208 0.0
C646 C 0.59019 0.79523 0.66959 0.0
C647 C 0.56832 0.76985 0.67307 0.0
C648 C 0.56156 0.75587 0.71719 0.0
C649 C 0.57699 0.69267 0.92763 0.0
C650 C 0.63816 0.73558 0.79232 0.0
C651 C 0.66778 0.71912 0.9632 0.0
C652 C 0.66598 0.71186 1.01445 0.0
C653 C 0.66738 0.68983 1.02826 0.0
C654 C 0.65956 0.67939 0.07482 0.0
C655 C 0.65015 0.69088 0.10772 0.0
C656 C 0.65152 0.71453 0.09525 0.0
C657 C 0.65908 0.72472 1.04889 0.0
C658 C 0.65185 0.78259 0.88388 0.0
C659 C 0.60496 0.75167 0.98294 0.0
O660 O 0.57986 0.76418 0.84644 0.0
O661 O 0.56615 0.728 0.80572 0.0
O662 O 0.59672 0.70192 0.89869 0.0
O663 O 0.56308 0.70344 0.91674 0.0
O664 O 0.62024 0.74211 0.80112 0.0
O665 O 0.64676 0.72716 0.82856 0.0
O666 O 0.64821 0.70259 0.93645 0.0
O667 O 0.6745 0.74339 0.95436 0.0
O668 O 0.63104 0.76486 0.90118 0.0
O669 O 0.66765 0.77346 0.87833 0.0
O670 O 0.62116 0.74207 0.97956 0.0
O671 O 0.59333 0.75421 0.94362 0.0
H672 H 0.61036 0.80117 0.78766 0.0
H673 H 0.62195 0.82552 0.71109 0.0
H674 H 0.5561 0.76084 0.64168 0.0
H675 H 0.54455 0.73649 0.71823 0.0
H676 H 0.67343 0.68014 1.00245 0.0
H677 H 0.65988 0.66185 0.0844 0.0
H678 H 0.64601 0.72481 0.12084 0.0
H679 H 0.65848 0.74208 1.03931 0.0
Sm680 Sm 0.25673 0.8545 0.86515 0.0
Sm681 Sm 0.25586 0.90137 0.90633 0.0
C682 C 0.24384 0.81496 0.80446 0.0
C683 C 0.22814 0.80671 0.75827 0.0
C684 C 0.20402 0.80599 0.75464 0.0
C685 C 0.18907 0.79764 0.71182 0.0
C686 C 0.19788 0.79011 0.67076 0.0
C687 C 0.22236 0.79156 0.67386 0.0
C688 C 0.23716 0.79957 0.71702 0.0
C689 C 0.29825 0.88189 0.92928 0.0
C690 C 0.2579 0.89987 0.78727 0.0
C691 C 0.2648 0.94432 0.95172 0.0
C692 C 0.27474 0.95568 0.99918 0.0
C693 C 0.29049 0.9828 1.0043 0.0
C694 C 0.30216 0.99334 1.04891 0.0
C695 C 0.29813 0.97672 0.08833 0.0
C696 C 0.28139 0.94972 0.08335 0.0
C697 C 0.27002 0.93926 1.03904 0.0
C698 C 0.20691 0.8619 0.87797 0.0
C699 C 0.23952 0.85029 0.97984 0.0
O700 O 0.23117 0.81284 0.84474 0.0
O701 O 0.26668 0.83642 0.80323 0.0
O702 O 0.28935 0.89264 0.89996 0.0
O703 O 0.28915 0.85768 0.91622 0.0
O704 O 0.25623 0.87701 0.79473 0.0
O705 O 0.26009 0.91458 0.82505 0.0
O706 O 0.2818 0.94331 0.92275 0.0
O707 O 0.24211 0.92284 0.95168 0.0
O708 O 0.22535 0.86013 0.89544 0.0
O709 O 0.21501 0.88656 0.87186 0.0
O710 O 0.24854 0.87595 0.97678 0.0
O711 O 0.23769 0.83659 0.94008 0.0
H712 H 0.19666 0.81202 0.78487 0.0
H713 H 0.17069 0.79743 0.71065 0.0
H714 H 0.22991 0.78608 0.64302 0.0
H715 H 0.2557 0.80009 0.71819 0.0
H716 H 0.29434 0.99565 0.97357 0.0
H717 H 0.31472 0.01427 0.05239 0.0
H718 H 0.27704 0.9366 0.11383 0.0
H719 H 0.25783 0.91828 1.03582 0.0
Sm720 Sm 0.64552 0.90577 0.41189 0.0
Sm721 Sm 0.59942 0.85616 0.36927 0.0
C722 C 0.67646 0.95065 0.45511 0.0
C723 C 0.67759 0.96457 0.49927 0.0
C724 C 0.65562 0.95527 0.52907 0.0
C725 C 0.65746 0.96677 0.57391 0.0
C726 C 0.68165 0.98694 0.59036 0.0
C727 C 0.7036 0.99647 0.56007 0.0
C728 C 0.70146 0.9856 0.51427 0.0
C729 C 0.65904 0.87 0.37992 0.0
C730 C 0.61325 0.85294 0.48326 0.0
C731 C 0.57288 0.81509 0.31099 0.0
C732 C 0.57775 0.80682 0.26232 0.0
C733 C 0.60155 0.82162 0.23748 0.0
C734 C 0.60621 0.81326 0.19254 0.0
C735 C 0.58736 0.78955 0.17112 0.0
C736 C 0.56344 0.77492 0.19597 0.0
C737 C 0.55875 0.78341 0.24079 0.0
C738 C 0.58354 0.88204 0.4347 0.0
C739 C 0.64312 0.90183 0.29169 0.0
O740 O 0.65866 0.9476 0.42339 0.0
O741 O 0.67818 0.92965 0.46147 0.0
O742 O 0.63804 0.86591 0.39812 0.0
O743 O 0.67533 0.89493 0.38074 0.0
O744 O 0.62793 0.879 0.48152 0.0
O745 O 0.6028 0.83911 0.44303 0.0
O746 O 0.5876 0.81553 0.34684 0.0
O747 O 0.56907 0.83513 0.31224 0.0
O748 O 0.60237 0.89334 0.40376 0.0
O749 O 0.57022 0.85727 0.42397 0.0
O750 O 0.62164 0.87924 0.29923 0.0
O751 O 0.65543 0.91704 0.32929 0.0
H752 H 0.63749 0.93826 0.51874 0.0
H753 H 0.64045 0.95847 0.59731 0.0
H754 H 0.72261 0.01129 0.57282 0.0
H755 H 0.71871 0.99261 0.49178 0.0
H756 H 0.61675 0.83963 0.25291 0.0
H757 H 0.6246 0.82562 0.17442 0.0
H758 H 0.54839 0.75657 0.18116 0.0
H759 H 0.54026 0.77144 0.25894 0.0
Sm760 Sm 0.08475 0.73267 0.41599 0.0
Sm761 Sm 0.13579 0.7436 0.37293 0.0
C762 C 0.03785 0.7093 0.45489 0.0
C763 C 0.03185 0.70096 0.50528 0.0
C764 C 0.05068 0.69857 0.53168 0.0
C765 C 0.04645 0.6911 0.57972 0.0
C766 C 0.02374 0.68698 0.60328 0.0
C767 C 0.00472 0.68946 0.5772 0.0
C768 C 0.00865 0.69621 0.52789 0.0
C769 C 0.1191 0.78417 0.41998 0.0
C770 C 0.13773 0.75533 0.48745 0.0
C771 C 0.17677 0.76057 0.31354 0.0
C772 C 0.18484 0.77336 0.26437 0.0
C773 C 0.1822 0.79497 0.25128 0.0
C774 C 0.19065 0.80711 0.20548 0.0
C775 C 0.20182 0.79793 0.17102 0.0
C776 C 0.20442 0.77631 0.18435 0.0
C777 C 0.19606 0.76426 0.23012 0.0
C778 C 0.11355 0.69955 0.43629 0.0
C779 C 0.08934 0.73787 0.29572 0.0
O780 O 0.04698 0.69689 0.42959 0.0
O781 O 0.05144 0.73452 0.44897 0.0
O782 O 0.11817 0.76955 0.38472 0.0
O783 O 0.09886 0.77211 0.44782 0.0
O784 O 0.11169 0.74065 0.48529 0.0
O785 O 0.15185 0.76253 0.44713 0.0
O786 O 0.1754 0.77445 0.34932 0.0
O787 O 0.15796 0.7361 0.31526 0.0
O788 O 0.10123 0.70578 0.40572 0.0
O789 O 0.13829 0.71463 0.42733 0.0
O790 O 0.111 0.73696 0.30223 0.0
O791 O 0.07549 0.73703 0.33431 0.0
H792 H 0.06877 0.70248 0.51498 0.0
H793 H 0.06119 0.68885 0.59879 0.0
H794 H 0.98747 0.68709 0.59534 0.0
H795 H 0.99405 0.69829 0.50791 0.0
H796 H 0.17364 0.8026 0.2765 0.0
H797 H 0.18817 0.82358 0.19685 0.0
H798 H 0.21341 0.7689 0.15966 0.0
H799 H 0.19863 0.74785 0.23894 0.0
Sm800 Sm 0.25501 0.34899 0.40794 0.0
Sm801 Sm 0.25708 0.3963 0.36099 0.0
C802 C 0.2652 0.31743 0.45818 0.0
C803 C 0.27791 0.32083 0.5045 0.0
C804 C 0.28488 0.30282 0.52101 0.0
C805 C 0.29687 0.30656 0.5661 0.0
C806 C 0.30189 0.32837 0.59423 0.0
C807 C 0.29555 0.34667 0.57672 0.0
C808 C 0.28354 0.34286 0.53213 0.0
C809 C 0.20714 0.33849 0.37282 0.0
C810 C 0.23799 0.38576 0.4743 0.0
C811 C 0.24688 0.42432 0.29815 0.0
C812 C 0.23395 0.41969 0.24907 0.0
C813 C 0.21136 0.42166 0.24332 0.0
C814 C 0.19887 0.41743 0.19795 0.0
C815 C 0.20861 0.41128 0.15632 0.0
C816 C 0.23115 0.40909 0.16214 0.0
C817 C 0.24359 0.41322 0.20767 0.0
C818 C 0.29791 0.40973 0.42788 0.0
C819 C 0.25736 0.35036 0.2885 0.0
O820 O 0.28055 0.33263 0.42377 0.0
O821 O 0.24279 0.31676 0.46041 0.0
O822 O 0.2247 0.3593 0.39079 0.0
O823 O 0.21479 0.32141 0.37354 0.0
O824 O 0.24726 0.3693 0.47488 0.0
O825 O 0.23652 0.39651 0.43285 0.0
O826 O 0.23179 0.41191 0.3351 0.0
O827 O 0.26969 0.42573 0.30113 0.0
O828 O 0.2889 0.3903 0.39832 0.0
O829 O 0.28878 0.42475 0.4144 0.0
O830 O 0.25694 0.37232 0.29315 0.0
O831 O 0.25856 0.33809 0.32769 0.0
H832 H 0.2808 0.28588 0.49948 0.0
H833 H 0.30163 0.29225 0.57957 0.0
H834 H 0.29889 0.36334 0.59841 0.0
H835 H 0.27827 0.35691 0.51949 0.0
H836 H 0.20328 0.42655 0.27416 0.0
H837 H 0.18165 0.41934 0.19536 0.0
H838 H 0.23901 0.40376 0.1316 0.0
H839 H 0.26074 0.41121 0.21038 0.0
Sm840 Sm 0.24024 0.31114 0.96719 0.0
Sm841 Sm 0.19061 0.26528 1.0075 0.0
C842 C 0.28579 0.34525 0.92934 0.0
C843 C 0.30255 0.34849 0.88799 0.0
C844 C 0.30885 0.32925 0.87675 0.0
C845 C 0.31842 0.32871 0.8311 0.0
C846 C 0.32129 0.34714 0.79624 0.0
C847 C 0.31866 0.36855 0.80974 0.0
C848 C 0.30927 0.36921 0.85573 0.0
C849 C 0.20258 0.32381 0.99211 0.0
C850 C 0.19017 0.27802 0.89094 0.0
C851 C 0.14843 0.24128 0.06378 0.0
C852 C 0.13964 0.24822 0.1102 0.0
C853 C 0.13193 0.26728 0.11121 0.0
C854 C 0.12341 0.27341 0.15453 0.0
C855 C 0.12213 0.26064 0.19855 0.0
C856 C 0.13001 0.24171 0.19749 0.0
C857 C 0.13852 0.23558 0.15418 0.0
C858 C 0.21736 0.2484 0.94763 0.0
C859 C 0.23589 0.30722 0.08652 0.0
O860 O 0.28295 0.32798 0.96216 0.0
O861 O 0.26396 0.34467 0.91885 0.0
O862 O 0.19975 0.30301 0.97549 0.0
O863 O 0.22731 0.33918 0.9995 0.0
O864 O 0.21608 0.29331 0.89493 0.0
O865 O 0.17553 0.26722 0.93033 0.0
O866 O 0.14964 0.25441 1.02465 0.0
O867 O 0.16775 0.23641 0.0661 0.0
O868 O 0.22863 0.26823 0.97645 0.0
O869 O 0.19268 0.23482 0.95911 0.0
O870 O 0.21273 0.28664 0.07857 0.0
O871 O 0.25132 0.31945 1.04936 0.0
H872 H 0.30407 0.31335 0.90141 0.0
H873 H 0.32038 0.31215 0.82099 0.0
H874 H 0.3209 0.38306 0.78326 0.0
H875 H 0.30495 0.38451 0.86434 0.0
H876 H 0.13255 0.27766 0.07844 0.0
H877 H 0.11825 0.28855 0.15356 0.0
H878 H 0.12932 0.2313 0.23026 0.0
H879 H 0.14417 0.22078 0.15513 0.0
Sm880 Sm 0.68405 0.92132 0.96847 0.0
Sm881 Sm 0.73034 0.9193 1.00927 0.0
C882 C 0.65312 0.93382 0.92186 0.0
C883 C 0.65582 0.94907 0.87825 0.0
C884 C 0.67385 0.97598 0.87655 0.0
C885 C 0.67893 0.98947 0.83294 0.0
C886 C 0.6659 0.97629 0.79087 0.0
C887 C 0.64657 0.9499 0.79309 0.0
C888 C 0.64154 0.93632 0.83661 0.0
C889 C 0.67206 0.87153 0.9964 0.0
C890 C 0.71762 0.90413 0.89391 0.0
C891 C 0.75473 0.90294 0.06881 0.0
C892 C 0.74654 0.88687 0.11481 0.0
C893 C 0.72006 0.86901 0.1253 0.0
C894 C 0.71267 0.85347 0.16777 0.0
C895 C 0.73146 0.8556 0.2016 0.0
C896 C 0.75786 0.87371 0.19138 0.0
C897 C 0.76527 0.88892 0.14859 0.0
C898 C 0.7458 0.96179 0.94549 0.0
C899 C 0.6864 0.92107 0.0876 0.0
O900 O 0.66711 0.94686 0.95946 0.0
O901 O 0.65297 0.9119 0.91449 0.0
O902 O 0.69273 0.8894 0.97899 0.0
O903 O 0.65585 0.88019 1.00016 0.0
O904 O 0.70198 0.91421 0.89801 0.0
O905 O 0.729 0.90105 0.93319 0.0
O906 O 0.74304 0.89085 1.02881 0.0
O907 O 0.75816 0.92664 0.07062 0.0
O908 O 0.72674 0.95352 0.97619 0.0
O909 O 0.75964 0.95086 0.95614 0.0
O910 O 0.70792 0.91994 0.08023 0.0
O911 O 0.67402 0.92346 1.04985 0.0
H912 H 0.68455 0.98641 0.90849 0.0
H913 H 0.6938 0.00976 0.83173 0.0
H914 H 0.6366 0.93943 0.7605 0.0
H915 H 0.62736 0.91564 0.83727 0.0
H916 H 0.70498 0.86721 0.10082 0.0
H917 H 0.69216 0.84026 0.17483 0.0
H918 H 0.77287 0.87614 0.21674 0.0
H919 H 0.78577 0.90242 0.142 0.0
Sm920 Sm 0.07155 0.75812 0.97169 0.0
Sm921 Sm 0.06935 0.80428 1.01205 0.0
C922 C 0.06226 0.71312 0.93418 0.0
C923 C 0.04736 0.69467 0.89583 0.0
C924 C 0.02393 0.6924 0.87988 0.0
C925 C 0.01288 0.67976 0.83644 0.0
C926 C 0.02574 0.67014 0.80804 0.0
C927 C 0.04723 0.66923 0.82726 0.0
C928 C 0.05808 0.68157 0.87118 0.0
C929 C 0.12002 0.79753 1.00149 0.0
C930 C 0.08928 0.80983 0.89854 0.0
C931 C 0.08399 0.84514 0.07104 0.0
C932 C 0.09836 0.85357 0.11897 0.0
C933 C 0.11925 0.87926 0.12533 0.0
C934 C 0.13338 0.88732 0.16937 0.0
C935 C 0.12716 0.87001 0.20895 0.0
C936 C 0.10647 0.84415 0.20211 0.0
C937 C 0.09231 0.83617 0.15816 0.0
C938 C 0.02906 0.77675 0.9442 0.0
C939 C 0.06901 0.76022 0.0914 0.0
O940 O 0.04858 0.71512 0.96953 0.0
O941 O 0.08164 0.7357 0.92007 0.0
O942 O 0.10161 0.79933 0.98391 0.0
O943 O 0.11179 0.77291 1.00817 0.0
O944 O 0.08197 0.7845 0.90145 0.0
O945 O 0.08871 0.82268 0.9378 0.0
O946 O 0.09763 0.84542 1.03344 0.0
O947 O 0.06019 0.8249 0.07038 0.0
O948 O 0.03743 0.76602 0.9749 0.0
O949 O 0.03771 0.80088 0.95776 0.0
O950 O 0.06668 0.78098 0.08353 0.0
O951 O 0.07047 0.7472 0.05379 0.0
H952 H 0.01588 0.70286 0.89828 0.0
H953 H 0.99693 0.68139 0.82136 0.0
H954 H 0.05751 0.66199 0.80549 0.0
H955 H 0.07609 0.68293 0.88349 0.0
H956 H 0.12472 0.89324 0.09603 0.0
H957 H 0.14902 0.90736 0.17261 0.0
H958 H 0.10132 0.82977 0.23056 0.0
H959 H 0.07669 0.81622 0.15476 0.0
Sm960 Sm 0.39944 0.1408 0.8448 0.0
Sm961 Sm 0.35399 0.09093 0.80305 0.0
C962 C 0.42461 0.18164 0.9037 0.0
C963 C 0.41833 0.18983 0.95142 0.0
C964 C 0.39492 0.19025 0.95868 0.0
C965 C 0.38962 0.1986 1.00313 0.0
C966 C 0.40738 0.20658 1.04211 0.0
C967 C 0.43078 0.20615 1.03466 0.0
C968 C 0.43612 0.19791 0.99021 0.0
C969 C 0.41567 0.11423 0.78165 0.0
C970 C 0.35585 0.09476 0.92237 0.0
C971 C 0.32509 0.04674 0.75628 0.0
C972 C 0.32883 0.03599 0.71099 0.0
C973 C 0.3489 0.02996 0.70693 0.0
C974 C 0.35763 0.02762 0.66141 0.0
C975 C 0.34643 0.03124 0.61994 0.0
C976 C 0.32434 0.03398 0.62372 0.0
C977 C 0.3154 0.03613 0.66921 0.0
C978 C 0.34003 0.12731 0.83014 0.0
C979 C 0.3865 0.14366 0.73041 0.0
O980 O 0.4114 0.18162 0.86555 0.0
O981 O 0.42868 0.16176 0.90384 0.0
O982 O 0.39685 0.1034 0.81257 0.0
O983 O 0.42885 0.13918 0.79104 0.0
O984 O 0.37629 0.11814 0.91458 0.0
O985 O 0.34438 0.07904 0.88504 0.0
O986 O 0.3404 0.04897 0.79251 0.0
O987 O 0.32244 0.06729 0.75106 0.0
O988 O 0.36121 0.13093 0.81375 0.0
O989 O 0.32464 0.10226 0.83472 0.0
O990 O 0.37177 0.11758 0.7329 0.0
O991 O 0.3969 0.15768 0.77042 0.0
H992 H 0.38059 0.18412 0.92993 0.0
H993 H 0.37136 0.19846 1.00719 0.0
H994 H 0.44528 0.21258 0.06311 0.0
H995 H 0.45437 0.19804 0.98605 0.0
H996 H 0.35924 0.02917 0.73853 0.0
H997 H 0.37429 0.02497 0.65842 0.0
H998 H 0.31549 0.03676 0.59157 0.0
H999 H 0.2996 0.04034 0.67147 0.0
Sm1000 Sm 0.85277 0.25698 0.84839 0.0
Sm1001 Sm 0.89991 0.25858 0.80562 0.0
C1002 C 0.81394 0.24687 0.90959 0.0
C1003 C 0.80567 0.23291 0.95737 0.0
C1004 C 0.8176 0.21931 0.97592 0.0
C1005 C 0.8101 0.20645 1.02097 0.0
C1006 C 0.7897 0.2059 1.04845 0.0
C1007 C 0.77768 0.21948 1.02956 0.0
C1008 C 0.78562 0.23285 0.98484 0.0
C1009 C 0.87914 0.29867 0.7822 0.0
C1010 C 0.8983 0.25722 0.92389 0.0
C1011 C 0.94176 0.27128 0.75343 0.0
C1012 C 0.94839 0.28232 0.70451 0.0
C1013 C 0.96838 0.30824 0.69817 0.0
C1014 C 0.97073 0.32103 0.65442 0.0
C1015 C 0.9533 0.3079 0.61634 0.0
C1016 C 0.93462 0.28138 0.62172 0.0
C1017 C 0.93207 0.26873 0.66539 0.0
C1018 C 0.86265 0.20855 0.83397 0.0
C1019 C 0.84677 0.23953 0.73521 0.0
O1020 O 0.81134 0.23245 0.87163 0.0
O1021 O 0.836 0.26921 0.90881 0.0
O1022 O 0.89007 0.29092 0.8133 0.0
O1023 O 0.85445 0.28741 0.79303 0.0
O1024 O 0.874 0.25151 0.91612 0.0
O1025 O 0.91451 0.26453 0.88655 0.0
O1026 O 0.94085 0.28684 0.78611 0.0
O1027 O 0.92228 0.24732 0.75678 0.0
O1028 O 0.85922 0.22618 0.8171 0.0
O1029 O 0.88765 0.21798 0.83886 0.0
O1030 O 0.87273 0.25004 0.73657 0.0
O1031 O 0.83355 0.23665 0.77601 0.0
H1032 H 0.83275 0.21848 0.95554 0.0
H1033 H 0.82061 0.19714 1.03435 0.0
H1034 H 0.76183 0.21953 1.0491 0.0
H1035 H 0.7759 0.24299 0.97152 0.0
H1036 H 0.98115 0.31908 0.72799 0.0
H1037 H 0.98542 0.34141 0.6515 0.0
H1038 H 0.92155 0.27042 0.59235 0.0
H1039 H 0.91652 0.24866 0.66895 0.0
Sm1040 Sm 0.73901 0.5958 0.84051 0.0
Sm1041 Sm 0.73918 0.64436 0.8022 0.0
C1042 C 0.75487 0.57022 0.89773 0.0
C1043 C 0.77086 0.57732 0.94373 0.0
C1044 C 0.79515 0.60066 0.94791 0.0
C1045 C 0.80989 0.60705 0.99118 0.0
C1046 C 0.80076 0.5905 1.03201 0.0
C1047 C 0.77664 0.56704 1.0275 0.0
C1048 C 0.762 0.56059 0.98422 0.0
C1049 C 0.69765 0.5828 0.77583 0.0
C1050 C 0.73538 0.63797 0.91994 0.0
C1051 C 0.73089 0.67976 0.76072 0.0
C1052 C 0.72719 0.68698 0.71207 0.0
C1053 C 0.74454 0.69006 0.67465 0.0
C1054 C 0.73839 0.69232 0.62706 0.0
C1055 C 0.71474 0.69135 0.61613 0.0
C1056 C 0.69821 0.68981 0.65397 0.0
C1057 C 0.70473 0.68828 0.70185 0.0
C1058 C 0.78751 0.65341 0.83283 0.0
C1059 C 0.75838 0.61215 0.72723 0.0
O1060 O 0.76704 0.58231 0.85794 0.0
O1061 O 0.73125 0.56695 0.90024 0.0
O1062 O 0.70646 0.60179 0.80663 0.0
O1063 O 0.70655 0.56733 0.7878 0.0
O1064 O 0.73862 0.61772 0.91197 0.0
O1065 O 0.73191 0.65001 0.88291 0.0
O1066 O 0.71204 0.65753 0.77734 0.0
O1067 O 0.75407 0.68347 0.77047 0.0
O1068 O 0.76949 0.63377 0.81309 0.0
O1069 O 0.77893 0.66939 0.84135 0.0
O1070 O 0.75054 0.62968 0.7316 0.0
O1071 O 0.75838 0.59836 0.76548 0.0
H1072 H 0.80274 0.6142 0.91778 0.0
H1073 H 0.82821 0.62531 0.99307 0.0
H1074 H 0.76903 0.55352 0.05765 0.0
H1075 H 0.74359 0.54242 0.98247 0.0
H1076 H 0.76202 0.68906 0.68159 0.0
H1077 H 0.7511 0.6924 0.59871 0.0
H1078 H 0.67963 0.68826 0.64635 0.0
H1079 H 0.69145 0.68645 0.7306 0.0
Sm1080 Sm 0.80011 0.72604 0.19822 0.0
Sm1081 Sm 0.75357 0.67855 0.24155 0.0
C1082 C 0.83978 0.75303 0.13705 0.0
C1083 C 0.84765 0.74792 0.08798 0.0
C1084 C 0.83816 0.72236 0.07033 0.0
C1085 C 0.84696 0.71777 1.02567 0.0
C1086 C 0.865 0.73863 0.99649 0.0
C1087 C 0.87395 0.7642 1.01366 0.0
C1088 C 0.86556 0.76875 0.05876 0.0
C1089 C 0.77301 0.74071 0.26306 0.0
C1090 C 0.75541 0.68115 0.12214 0.0
C1091 C 0.71024 0.64427 0.28564 0.0
C1092 C 0.69612 0.64598 0.32737 0.0
C1093 C 0.69466 0.66864 0.33358 0.0
C1094 C 0.6912 0.67578 0.37941 0.0
C1095 C 0.68814 0.65993 0.41933 0.0
C1096 C 0.68579 0.63538 0.41214 0.0
C1097 C 0.69 0.62847 0.36604 0.0
C1098 C 0.79184 0.66853 0.20921 0.0
C1099 C 0.80516 0.71489 0.31321 0.0
O1100 O 0.84071 0.73931 0.1735 0.0
O1101 O 0.81925 0.75599 0.13938 0.0
O1102 O 0.76193 0.72082 0.23407 0.0
O1103 O 0.7973 0.75517 0.24974 0.0
O1104 O 0.77728 0.70339 0.1288 0.0
O1105 O 0.74131 0.66813 0.16017 0.0
O1106 O 0.71056 0.65748 0.24721 0.0
O1107 O 0.73316 0.6473 0.29603 0.0
O1108 O 0.79442 0.68881 0.22812 0.0
O1109 O 0.76722 0.65141 0.20823 0.0
O1110 O 0.77954 0.69785 0.31103 0.0
O1111 O 0.81857 0.72642 0.273 0.0
H1112 H 0.82394 0.70585 0.0912 0.0
H1113 H 0.83935 0.69784 1.01361 0.0
H1114 H 0.88786 0.78079 0.99246 0.0
H1115 H 0.87328 0.78866 0.07099 0.0
H1116 H 0.69891 0.68222 0.30406 0.0
H1117 H 0.69317 0.69469 0.38387 0.0
H1118 H 0.68349 0.62288 0.44269 0.0
H1119 H 0.69104 0.61082 0.36164 0.0
Sm1120 Sm 0.26431 0.07066 0.19877 0.0
Sm1121 Sm 0.31403 0.07763 0.24306 0.0
C1122 C 0.23551 0.07976 0.13596 0.0
C1123 C 0.24116 0.09385 0.08797 0.0
C1124 C 0.26572 0.11583 0.07769 0.0
C1125 C 0.27061 0.12929 1.03308 0.0
C1126 C 0.25121 0.12113 0.99689 0.0
C1127 C 0.22666 0.0991 1.0074 0.0
C1128 C 0.22176 0.08572 0.05206 0.0
C1129 C 0.25323 0.03056 0.26514 0.0
C1130 C 0.31127 0.07275 0.12455 0.0
C1131 C 0.35353 0.07872 0.29036 0.0
C1132 C 0.36169 0.07453 0.33793 0.0
C1133 C 0.3737 0.05932 0.34181 0.0
C1134 C 0.38021 0.0539 0.38732 0.0
C1135 C 0.37485 0.0638 0.4293 0.0
C1136 C 0.36398 0.08009 0.42483 0.0
C1137 C 0.35748 0.08543 0.37961 0.0
C1138 C 0.31818 0.12372 0.20939 0.0
C1139 C 0.27442 0.08856 0.31319 0.0
O1140 O 0.24648 0.0941 0.1744 0.0
O1141 O 0.2356 0.05762 0.13736 0.0
O1142 O 0.27344 0.04098 0.23694 0.0
O1143 O 0.23658 0.03731 0.24987 0.0
O1144 O 0.28898 0.07253 0.12996 0.0
O1145 O 0.32391 0.07204 0.16345 0.0
O1146 O 0.33581 0.05808 0.26763 0.0
O1147 O 0.3502 0.09882 0.28593 0.0
O1148 O 0.2992 0.10481 0.22908 0.0
O1149 O 0.33572 0.11711 0.20185 0.0
O1150 O 0.29315 0.08233 0.31142 0.0
O1151 O 0.26206 0.0887 0.27282 0.0
H1152 H 0.28122 0.1227 0.10428 0.0
H1153 H 0.28978 0.14599 1.0267 0.0
H1154 H 0.21094 0.0924 0.98134 0.0
H1155 H 0.20261 0.06903 0.0587 0.0
H1156 H 0.37748 0.05115 0.30972 0.0
H1157 H 0.38872 0.04148 0.38976 0.0
H1158 H 0.35911 0.0876 0.45656 0.0
H1159 H 0.3483 0.09728 0.37754 0.0
Sm1160 Sm 0.92285 0.18856 0.19986 0.0
Sm1161 Sm 0.92394 0.23591 0.24354 0.0
C1162 C 0.91042 0.15002 0.13678 0.0
C1163 C 0.89517 0.14206 0.08983 0.0
C1164 C 0.8735 0.11677 0.08403 0.0
C1165 C 0.85933 0.10897 1.04006 0.0
C1166 C 0.8664 0.12614 1.00014 0.0
C1167 C 0.88764 0.1517 1.00655 0.0
C1168 C 0.9018 0.15947 1.05041 0.0
C1169 C 0.96623 0.21602 0.26101 0.0
C1170 C 0.92193 0.23348 0.12472 0.0
C1171 C 0.93124 0.27875 0.28824 0.0
C1172 C 0.94015 0.29379 0.33293 0.0
C1173 C 0.94653 0.2837 0.37304 0.0
C1174 C 0.95272 0.29704 0.41683 0.0
C1175 C 0.95205 0.32034 0.42124 0.0
C1176 C 0.94594 0.33066 0.38104 0.0
C1177 C 0.94034 0.31754 0.33666 0.0
C1178 C 0.87454 0.19723 0.21535 0.0
C1179 C 0.90821 0.1838 0.31522 0.0
O1180 O 0.89725 0.14703 0.17685 0.0
O1181 O 0.93317 0.17167 0.13698 0.0
O1182 O 0.95686 0.22681 0.23295 0.0
O1183 O 0.9561 0.19161 0.24852 0.0
O1184 O 0.91621 0.20919 0.13272 0.0
O1185 O 0.92972 0.24987 0.16185 0.0
O1186 O 0.94893 0.27791 0.26128 0.0
O1187 O 0.9097 0.25626 0.29119 0.0
O1188 O 0.89255 0.19485 0.23311 0.0
O1189 O 0.88324 0.22198 0.20903 0.0
O1190 O 0.91782 0.20965 0.31282 0.0
O1191 O 0.90503 0.17009 0.27483 0.0
H1192 H 0.86761 0.10285 0.11353 0.0
H1193 H 0.84315 0.08919 1.03695 0.0
H1194 H 0.89338 0.16587 0.97755 0.0
H1195 H 0.91803 0.17923 0.05328 0.0
H1196 H 0.94558 0.26502 0.37115 0.0
H1197 H 0.95679 0.28852 0.44805 0.0
H1198 H 0.94461 0.34816 0.38442 0.0
H1199 H 0.93511 0.32534 0.30585 0.0
Sm1200 Sm 0.30996 0.23246 0.74315 0.0
Sm1201 Sm 0.26252 0.18835 0.69657 0.0
C1202 C 0.34341 0.27281 0.79507 0.0
C1203 C 0.341 0.28093 0.84339 0.0
C1204 C 0.3608 0.30397 0.86408 0.0
C1205 C 0.3575 0.31096 0.91087 0.0
C1206 C 0.33437 0.29484 0.93653 0.0
C1207 C 0.3144 0.27236 0.91461 0.0
C1208 C 0.3179 0.26526 0.8688 0.0
C1209 C 0.31868 0.1933 0.71076 0.0
C1210 C 0.27216 0.1795 0.81073 0.0
C1211 C 0.23404 0.15022 0.63415 0.0
C1212 C 0.24019 0.14207 0.58672 0.0
C1213 C 0.26593 0.14878 0.57469 0.0
C1214 C 0.27155 0.14035 0.53085 0.0
C1215 C 0.2516 0.12488 0.49761 0.0
C1216 C 0.22593 0.11869 0.50936 0.0
C1217 C 0.22031 0.12709 0.55332 0.0
C1218 C 0.24882 0.21519 0.76339 0.0
C1219 C 0.30975 0.23407 0.62411 0.0
O1220 O 0.32787 0.2742 0.76293 0.0
O1221 O 0.3433 0.25068 0.79375 0.0
O1222 O 0.2982 0.19118 0.72788 0.0
O1223 O 0.33559 0.218 0.7065 0.0
O1224 O 0.28958 0.20498 0.81048 0.0
O1225 O 0.26091 0.16738 0.76943 0.0
O1226 O 0.24513 0.14708 0.67263 0.0
O1227 O 0.23407 0.1724 0.63504 0.0
O1228 O 0.26884 0.22618 0.73494 0.0
O1229 O 0.23366 0.19147 0.74799 0.0
O1230 O 0.28765 0.21169 0.62859 0.0
O1231 O 0.32157 0.24756 0.66349 0.0
H1232 H 0.37867 0.31631 0.84434 0.0
H1233 H 0.37306 0.32848 0.92729 0.0
H1234 H 0.29609 0.26008 0.93316 0.0
H1235 H 0.30249 0.24752 0.85305 0.0
H1236 H 0.28176 0.16049 0.59937 0.0
H1237 H 0.29164 0.14615 0.52285 0.0
H1238 H 0.21003 0.10687 0.48491 0.0
H1239 H 0.20031 0.12163 0.56141 0.0
Sm1240 Sm 0.76033 0.06921 0.733 0.0
Sm1241 Sm 0.8073 0.07003 0.6984 0.0
C1242 C 0.71425 0.05874 0.76673 0.0
C1243 C 0.70499 0.06554 0.80958 0.0
C1244 C 0.67869 0.05106 0.82293 0.0
C1245 C 0.67105 0.05439 0.86896 0.0
C1246 C 0.68983 0.07208 0.90144 0.0
C1247 C 0.71574 0.08803 0.88581 0.0
C1248 C 0.72324 0.08476 0.84016 0.0
C1249 C 0.79977 0.11999 0.71272 0.0
C1250 C 0.81108 0.08846 0.81139 0.0
C1251 C 0.84559 0.07933 0.63672 0.0
C1252 C 0.85493 0.09469 0.58981 0.0
C1253 C 0.87814 0.11911 0.58831 0.0
C1254 C 0.88681 0.13382 0.54501 0.0
C1255 C 0.8726 0.12474 0.50133 0.0
C1256 C 0.84958 0.10009 0.50273 0.0
C1257 C 0.84086 0.08542 0.54606 0.0
C1258 C 0.77813 0.02743 0.76164 0.0
C1259 C 0.76588 0.07174 0.61792 0.0
O1260 O 0.72443 0.04398 0.77441 0.0
O1261 O 0.72834 0.07817 0.73777 0.0
O1262 O 0.80189 0.10153 0.729 0.0
O1263 O 0.7753 0.1112 0.70362 0.0
O1264 O 0.78565 0.08085 0.80618 0.0
O1265 O 0.82492 0.08885 0.77286 0.0
O1266 O 0.84937 0.09263 0.67695 0.0
O1267 O 0.82291 0.05757 0.63649 0.0
O1268 O 0.76835 0.03556 0.72858 0.0
O1269 O 0.80308 0.0383 0.7536 0.0
O1270 O 0.7904 0.08106 0.63054 0.0
O1271 O 0.74825 0.05932 0.65166 0.0
H1272 H 0.66451 0.03609 0.7992 0.0
H1273 H 0.65108 0.04184 0.88051 0.0
H1274 H 0.73092 0.1012 0.91035 0.0
H1275 H 0.74368 0.09581 0.83016 0.0
H1276 H 0.88973 0.12692 0.62084 0.0
H1277 H 0.905 0.15221 0.54572 0.0
H1278 H 0.83789 0.09227 0.47032 0.0
H1279 H 0.82289 0.06682 0.54521 0.0
Sm1280 Sm 0.92194 0.68683 0.73671 0.0
Sm1281 Sm 0.92176 0.73345 0.69532 0.0
C1282 C 0.93167 0.65522 0.78804 0.0
C1283 C 0.94357 0.66036 0.83553 0.0
C1284 C 0.95403 0.68564 0.85378 0.0
C1285 C 0.96529 0.69175 0.89916 0.0
C1286 C 0.96549 0.67239 0.92803 0.0
C1287 C 0.95489 0.64683 0.90968 0.0
C1288 C 0.94403 0.64085 0.86326 0.0
C1289 C 0.87274 0.67564 0.70769 0.0
C1290 C 0.90353 0.72132 0.80833 0.0
C1291 C 0.91084 0.76095 0.6329 0.0
C1292 C 0.89513 0.75415 0.58641 0.0
C1293 C 0.86918 0.74913 0.58645 0.0
C1294 C 0.85426 0.74247 0.54343 0.0
C1295 C 0.86468 0.74058 0.49853 0.0
C1296 C 0.89077 0.74593 0.49842 0.0
C1297 C 0.90566 0.75249 0.54147 0.0
C1298 C 0.96375 0.74772 0.76024 0.0
C1299 C 0.92026 0.68748 0.61874 0.0
O1300 O 0.94725 0.67027 0.75371 0.0
O1301 O 0.90892 0.65372 0.7877 0.0
O1302 O 0.89061 0.69629 0.72518 0.0
O1303 O 0.88151 0.65958 0.70208 0.0
O1304 O 0.91352 0.70543 0.80619 0.0
O1305 O 0.90134 0.7324 0.76794 0.0
O1306 O 0.89788 0.75134 0.67339 0.0
O1307 O 0.93306 0.76099 0.63247 0.0
O1308 O 0.95538 0.72892 0.72909 0.0
O1309 O 0.95285 0.76161 0.75044 0.0
O1310 O 0.91556 0.70674 0.62717 0.0
O1311 O 0.9273 0.67807 0.65559 0.0
H1312 H 0.95357 0.70071 0.83253 0.0
H1313 H 0.97411 0.71172 0.91128 0.0
H1314 H 0.95463 0.63145 0.93136 0.0
H1315 H 0.93581 0.62116 0.84938 0.0
H1316 H 0.86031 0.7504 0.61994 0.0
H1317 H 0.83461 0.73925 0.54537 0.0
H1318 H 0.89963 0.74462 0.46496 0.0
H1319 H 0.92547 0.75615 0.53944 0.0
Sm1320 Sm 0.90749 0.63949 0.29843 0.0
Sm1321 Sm 0.85434 0.60197 0.33564 0.0
C1322 C 0.95628 0.66177 0.26962 0.0
C1323 C 0.96742 0.66615 0.2213 0.0
C1324 C 0.9526 0.64912 0.18402 0.0
C1325 C 0.96193 0.654 0.13697 0.0
C1326 C 0.98587 0.67628 0.12648 0.0
C1327 C 0.00095 0.6932 0.16356 0.0
C1328 C 0.99176 0.6881 0.21119 0.0
C1329 C 0.87658 0.66062 0.29118 0.0
C1330 C 0.85641 0.61417 0.2212 0.0
C1331 C 0.81246 0.57801 0.39207 0.0
C1332 C 0.80497 0.58379 0.44069 0.0
C1333 C 0.80732 0.60818 0.45143 0.0
C1334 C 0.80059 0.61331 0.4976 0.0
C1335 C 0.7916 0.59437 0.53478 0.0
C1336 C 0.78898 0.56989 0.52361 0.0
C1337 C 0.79562 0.56475 0.47746 0.0
C1338 C 0.87568 0.57852 0.27451 0.0
C1339 C 0.89918 0.64073 0.41767 0.0
O1340 O 0.94293 0.63733 0.2833 0.0
O1341 O 0.94477 0.67506 0.27984 0.0
O1342 O 0.87541 0.64599 0.32655 0.0
O1343 O 0.89679 0.66697 0.26402 0.0
O1344 O 0.8823 0.62389 0.22538 0.0
O1345 O 0.84152 0.60762 0.26053 0.0
O1346 O 0.8142 0.593 0.35539 0.0
O1347 O 0.83098 0.57195 0.39167 0.0
O1348 O 0.88793 0.59592 0.30712 0.0
O1349 O 0.85106 0.57061 0.28037 0.0
O1350 O 0.8753 0.62159 0.4087 0.0
O1351 O 0.91607 0.65072 0.3814 0.0
H1352 H 0.9335 0.63243 0.19104 0.0
H1353 H 0.94974 0.64123 0.10822 0.0
H1354 H 0.01893 0.71084 0.15514 0.0
H1355 H 0.00303 0.7018 0.23951 0.0
H1356 H 0.81452 0.62344 0.42424 0.0
H1357 H 0.8028 0.63233 0.50437 0.0
H1358 H 0.78139 0.55443 0.55037 0.0
H1359 H 0.79339 0.54572 0.47047 0.0
Sm1360 Sm 0.35537 0.26267 0.30418 0.0
Sm1361 Sm 0.40053 0.25799 0.34573 0.0
C1362 C 0.3251 0.2791 0.26649 0.0
C1363 C 0.32606 0.29553 0.22649 0.0
C1364 C 0.34926 0.30941 0.20056 0.0
C1365 C 0.34948 0.32055 0.15626 0.0
C1366 C 0.32588 0.31581 0.13582 0.0
C1367 C 0.30313 0.30472 0.16424 0.0
C1368 C 0.30327 0.29465 0.20998 0.0
C1369 C 0.34107 0.21184 0.32898 0.0
C1370 C 0.38763 0.24308 0.23028 0.0
C1371 C 0.42558 0.24186 0.40366 0.0
C1372 C 0.41909 0.22726 0.45123 0.0
C1373 C 0.3962 0.2028 0.45742 0.0
C1374 C 0.39056 0.18921 0.50196 0.0
C1375 C 0.40745 0.19967 0.54207 0.0
C1376 C 0.43036 0.22409 0.53569 0.0
C1377 C 0.43604 0.23762 0.49115 0.0
C1378 C 0.41735 0.30124 0.28363 0.0
C1379 C 0.35665 0.2589 0.42376 0.0
O1380 O 0.34179 0.29127 0.30144 0.0
O1381 O 0.32392 0.25719 0.25379 0.0
O1382 O 0.36248 0.22965 0.31382 0.0
O1383 O 0.32565 0.22143 0.33327 0.0
O1384 O 0.37273 0.25423 0.23295 0.0
O1385 O 0.39808 0.23945 0.27027 0.0
O1386 O 0.4123 0.22887 0.36539 0.0
O1387 O 0.42994 0.26593 0.40415 0.0
O1388 O 0.39831 0.29313 0.31415 0.0
O1389 O 0.43044 0.28946 0.29341 0.0
O1390 O 0.37764 0.25699 0.41613 0.0
O1391 O 0.34504 0.26284 0.38643 0.0
H1392 H 0.36639 0.30899 0.21208 0.0
H1393 H 0.36702 0.32845 0.13434 0.0
H1394 H 0.2847 0.30059 0.14855 0.0
H1395 H 0.28515 0.28394 0.22996 0.0
H1396 H 0.38252 0.19408 0.4278 0.0
H1397 H 0.3727 0.1706 0.50518 0.0
H1398 H 0.44421 0.23269 0.56508 0.0
H1399 H 0.45388 0.25625 0.48785 0.0
Sm1400 Sm 0.7373 0.09541 0.30402 0.0
Sm1401 Sm 0.73634 0.14095 0.34853 0.0
C1402 C 0.72978 0.05779 0.24335 0.0
C1403 C 0.72129 0.05743 0.19364 0.0
C1404 C 0.71366 0.07557 0.18274 0.0
C1405 C 0.70607 0.0778 0.13684 0.0
C1406 C 0.70636 0.06211 0.09954 0.0
C1407 C 0.71447 0.04382 0.10969 0.0
C1408 C 0.722 0.0415 0.1569 0.0
C1409 C 0.786 0.13327 0.33438 0.0
C1410 C 0.75497 0.15021 0.23672 0.0
C1411 C 0.74552 0.17796 0.4132 0.0
C1412 C 0.7606 0.18659 0.45985 0.0
C1413 C 0.78285 0.1842 0.46781 0.0
C1414 C 0.79698 0.19264 0.51167 0.0
C1415 C 0.78914 0.20346 0.54915 0.0
C1416 C 0.76693 0.2059 0.54085 0.0
C1417 C 0.7529 0.19757 0.49699 0.0
C1418 C 0.6939 0.11349 0.28436 0.0
C1419 C 0.73878 0.09579 0.42123 0.0
O1420 O 0.71259 0.05494 0.2763 0.0
O1421 O 0.7528 0.07768 0.25234 0.0
O1422 O 0.76829 0.13643 0.31696 0.0
O1423 O 0.77693 0.10842 0.34099 0.0
O1424 O 0.74756 0.12499 0.23894 0.0
O1425 O 0.75525 0.16285 0.27671 0.0
O1426 O 0.75912 0.18221 0.37326 0.0
O1427 O 0.72398 0.15514 0.41304 0.0
O1428 O 0.70306 0.10276 0.31317 0.0
O1429 O 0.70409 0.13786 0.29695 0.0
O1430 O 0.74376 0.11996 0.41428 0.0
O1431 O 0.73161 0.0797 0.38375 0.0
H1432 H 0.71248 0.08748 0.21072 0.0
H1433 H 0.6992 0.09142 0.13143 0.0
H1434 H 0.71524 0.03161 0.08124 0.0
H1435 H 0.72841 0.02765 0.16451 0.0
H1436 H 0.78934 0.17575 0.44009 0.0
H1437 H 0.81384 0.19031 0.51655 0.0
H1438 H 0.76048 0.21455 0.56821 0.0
H1439 H 0.73599 0.19983 0.49205 0.0
C1440 C 0.11311 0.43955 0.99711 0.0
C1441 C 0.09799 0.41535 0.97304 0.0
C1442 C 0.10563 0.44609 1.04165 0.0
C1443 C 0.08265 0.42881 0.06756 0.0
H1444 H 0.13136 0.45416 0.98116 0.0
H1445 H 0.11843 0.46544 0.05592 0.0
S1446 S 0.03467 0.36242 1.02216 0.0
N1447 N 0.05668 0.37448 0.97821 0.0
N1448 N 0.04512 0.38482 0.06537 0.0
C1449 C 0.06748 0.40394 1.04516 0.0
C1450 C 0.07435 0.39783 0.99746 0.0
C1451 C 0.58836 0.67221 1.00234 0.0
C1452 C 0.57004 0.67421 0.9719 0.0
C1453 C 0.58094 0.65758 1.04706 0.0
C1454 C 0.55482 0.64438 0.06453 0.0
H1455 H 0.60872 0.68261 0.9925 0.0
H1456 H 0.59593 0.6569 0.06827 0.0
S1457 S 0.49867 0.64069 0.99624 0.0
N1458 N 0.52408 0.65936 0.96184 0.0
N1459 N 0.51048 0.63298 1.04348 0.0
C1460 C 0.53642 0.64557 1.03318 0.0
C1461 C 0.54388 0.66011 0.98806 0.0
C1462 C 0.32664 0.91331 0.05687 0.0
C1463 C 0.34727 0.90813 0.06518 0.0
C1464 C 0.3118 0.90631 1.0126 0.0
C1465 C 0.31644 0.89341 0.97375 0.0
H1466 H 0.32104 0.92185 0.08555 0.0
H1467 H 0.29582 0.91012 1.00976 0.0
S1468 S 0.36642 0.8729 0.97699 0.0
N1469 N 0.37019 0.88774 1.02951 0.0
N1470 N 0.34248 0.87428 0.94918 0.0
C1471 C 0.33642 0.88741 0.98231 0.0
C1472 C 0.35164 0.89479 1.02675 0.0
C1473 C 0.43431 0.11093 0.64681 0.0
C1474 C 0.4321 0.08614 0.64061 0.0
C1475 C 0.4282 0.11908 0.69127 0.0
C1476 C 0.41934 0.1031 0.73333 0.0
H1477 H 0.44167 0.12474 0.61704 0.0
H1478 H 0.43108 0.13862 0.69287 0.0
S1479 S 0.4138 0.03801 0.74135 0.0
N1480 N 0.42244 0.0466 0.6843 0.0
N1481 N 0.41094 0.06179 0.76633 0.0
C1482 C 0.41715 0.07834 0.72817 0.0
C1483 C 0.42353 0.07 0.68269 0.0
C1484 C 0.87957 0.32329 0.65022 0.0
C1485 C 0.90571 0.34227 0.63913 0.0
C1486 C 0.87189 0.30929 0.69505 0.0
C1487 C 0.88965 0.31313 0.73307 0.0
H1488 H 0.86444 0.31957 0.62412 0.0
H1489 H 0.85135 0.29541 0.70017 0.0
S1490 S 0.96035 0.36188 0.72713 0.0
N1491 N 0.94926 0.36487 0.67394 0.0
N1492 N 0.93508 0.33839 0.75617 0.0
C1493 C 0.91595 0.33175 0.72277 0.0
C1494 C 0.92382 0.34627 0.67687 0.0
C1495 C 0.64309 0.54319 0.68115 0.0
C1496 C 0.64869 0.55969 0.64016 0.0
C1497 C 0.65797 0.55143 0.72487 0.0
C1498 C 0.67939 0.57697 0.73154 0.0
H1499 H 0.62715 0.52323 0.67927 0.0
H1500 H 0.65285 0.53726 0.75372 0.0
S1501 S 0.70403 0.62744 0.63405 0.0
N1502 N 0.67897 0.60229 0.60821 0.0
N1503 N 0.70562 0.61842 0.69009 0.0
C1504 C 0.68518 0.59371 0.69064 0.0
C1505 C 0.67029 0.58501 0.64551 0.0
C1506 C 0.91216 0.57776 0.22071 0.0
C1507 C 0.88622 0.5727 0.22719 0.0
C1508 C 0.92063 0.57091 0.17691 0.0
C1509 C 0.90404 0.55925 0.13622 0.0
H1510 H 0.92587 0.58623 0.25033 0.0
H1511 H 0.93999 0.5735 0.17607 0.0
S1512 S 0.83443 0.54181 0.13267 0.0
N1513 N 0.84414 0.55476 0.187 0.0
N1514 N 0.86013 0.543 0.10678 0.0
C1515 C 0.87831 0.55443 0.14225 0.0
C1516 C 0.86955 0.56093 0.18662 0.0
C1517 C 0.43309 0.31054 0.19527 0.0
C1518 C 0.42157 0.31613 0.23524 0.0
C1519 C 0.43901 0.32437 0.15042 0.0
C1520 C 0.43347 0.34466 0.14127 0.0
H1521 H 0.4381 0.29535 0.19877 0.0
H1522 H 0.44866 0.31935 0.1226 0.0
S1523 S 0.4047 0.3686 0.2343 0.0
N1524 N 0.40639 0.345 0.26292 0.0
N1525 N 0.41583 0.36976 0.17879 0.0
C1526 C 0.42168 0.35039 0.18085 0.0
C1527 C 0.41628 0.33663 0.22736 0.0
C1528 C 0.65987 0.11382 0.1634 0.0
C1529 C 0.64813 0.08837 0.14332 0.0
C1530 C 0.6737 0.12084 0.20816 0.0
C1531 C 0.67653 0.10291 0.23809 0.0
H1532 H 0.65861 0.12903 0.14389 0.0
H1533 H 0.68252 0.14105 0.21925 0.0
S1534 S 0.65054 0.0334 0.20461 0.0
N1535 N 0.64234 0.04525 0.15771 0.0
N1536 N 0.66479 0.05744 0.24423 0.0
C1537 C 0.66397 0.07696 0.22001 0.0
C1538 C 0.6509 0.07003 0.17251 0.0
C1539 C 0.56346 0.87506 0.52011 0.0
C1540 C 0.5785 0.89265 0.48249 0.0
C1541 C 0.55678 0.88319 0.56404 0.0
C1542 C 0.56488 0.90963 0.57447 0.0
H1543 H 0.5563 0.8544 0.51543 0.0
H1544 H 0.54454 0.86829 0.58996 0.0
S1545 S 0.60313 0.96373 0.48799 0.0
N1546 N 0.60044 0.93809 0.45904 0.0
N1547 N 0.58779 0.95298 0.54009 0.0
C1548 C 0.57988 0.92735 0.53712 0.0
C1549 C 0.58666 0.91907 0.49202 0.0
C1550 C 0.06921 0.647 0.53506 0.0
C1551 C 0.0866 0.65097 0.57394 0.0
C1552 C 0.07735 0.66246 0.49126 0.0
C1553 C 0.10349 0.68278 0.48337 0.0
H1554 H 0.04938 0.63099 0.53745 0.0
H1555 H 0.06311 0.65801 0.46291 0.0
S1556 S 0.15703 0.70128 0.5732 0.0
N1557 N 0.1314 0.67716 0.60017 0.0
N1558 N 0.1465 0.70533 0.52034 0.0
C1559 C 0.12086 0.68674 0.52222 0.0
C1560 C 0.11257 0.67121 0.56636 0.0
C1561 C 0.34164 0.40805 0.53554 0.0
C1562 C 0.34239 0.42658 0.56929 0.0
C1563 C 0.32682 0.40167 0.49105 0.0
C1564 C 0.31253 0.41403 0.47686 0.0
H1565 H 0.35315 0.39891 0.54286 0.0
H1566 H 0.32685 0.3872 0.46724 0.0
S1567 S 0.30522 0.46159 0.5544 0.0
N1568 N 0.32481 0.455 0.58606 0.0
N1569 N 0.29864 0.44413 0.50443 0.0
C1570 C 0.31248 0.43175 0.51142 0.0
C1571 C 0.32692 0.43775 0.55653 0.0
C1572 C 0.73645 0.73881 0.32116 0.0
C1573 C 0.76292 0.74691 0.31066 0.0
C1574 C 0.7286 0.74666 0.36463 0.0
C1575 C 0.74669 0.76329 0.40034 0.0
H1576 H 0.7217 0.72713 0.29474 0.0
H1577 H 0.70816 0.74035 0.36909 0.0
S1578 S 0.81825 0.78987 0.39233 0.0
N1579 N 0.80699 0.77231 0.3425 0.0
N1580 N 0.79252 0.78734 0.42063 0.0
C1581 C 0.77304 0.77147 0.38994 0.0
C1582 C 0.78097 0.76323 0.34662 0.0
C1583 C 0.21197 0.97941 0.36373 0.0
C1584 C 0.22926 0.98184 0.40147 0.0
C1585 C 0.22038 0.99415 0.32 0.0
C1586 C 0.24685 0.01249 0.30988 0.0
H1587 H 0.19127 0.96593 0.36804 0.0
H1588 H 0.20559 0.99136 0.2938 0.0
S1589 S 0.30085 0.02744 0.39632 0.0
N1590 N 0.27481 0.00488 0.42519 0.0
N1591 N 0.29056 0.03233 0.34371 0.0
C1592 C 0.26462 0.01515 0.34711 0.0
C1593 C 0.25593 1e-05 0.39223 0.0
C1594 C 0.98315 0.24208 0.34263 0.0
C1595 C 0.98548 0.22738 0.30418 0.0
C1596 C 0.99789 0.24772 0.38705 0.0
C1597 C 0.0163 0.23938 0.3956 0.0
H1598 H 0.96897 0.24832 0.33915 0.0
H1599 H 0.99423 0.25813 0.41536 0.0
S1600 S 0.03153 0.20193 0.30515 0.0
N1601 N 0.00875 0.20563 0.27813 0.0
N1602 N 0.03633 0.21644 0.35827 0.0
C1603 C 0.01917 0.22532 0.35649 0.0
C1604 C 0.004 0.21937 0.31212 0.0
C1605 C 0.25782 0.25017 0.83179 0.0
C1606 C 0.2427 0.22483 0.81145 0.0
C1607 C 0.25057 0.25799 0.87601 0.0
C1608 C 0.22816 0.24065 0.90342 0.0
H1609 H 0.27553 0.26409 0.81363 0.0
H1610 H 0.26232 0.27787 0.88831 0.0
S1611 S 0.18343 0.17102 0.87083 0.0
N1612 N 0.20486 0.18206 0.82627 0.0
N1613 N 0.19229 0.19603 0.90755 0.0
C1614 C 0.21373 0.21504 0.88448 0.0
C1615 C 0.22072 0.20734 0.83959 0.0
C1616 C 0.769 0.9873 0.81309 0.0
C1617 C 0.76492 0.00871 0.80573 0.0
C1618 C 0.76193 0.97225 0.85686 0.0
C1619 C 0.75035 0.97739 0.89746 0.0
H1620 H 0.77853 0.98241 0.78481 0.0
H1621 H 0.76619 0.95649 0.85915 0.0
S1622 S 0.73822 0.03314 0.90239 0.0
N1623 N 0.74992 0.03509 0.84716 0.0
N1624 N 0.73689 0.00719 0.92769 0.0
C1625 C 0.74613 0.99871 0.89113 0.0
C1626 C 0.75336 0.01416 0.84627 0.0
C1627 C 0.9893 0.76892 0.89313 0.0
C1628 C 0.0108 0.76487 0.89926 0.0
C1629 C 0.97433 0.76266 0.8494 0.0
C1630 C 0.9797 0.75204 0.80764 0.0
H1631 H 0.98417 0.77766 0.92251 0.0
H1632 H 0.95837 0.76663 0.8482 0.0
S1633 S 0.03582 0.74075 0.79934 0.0
N1634 N 0.03748 0.75096 0.85573 0.0
N1635 N 0.00985 0.73965 0.77494 0.0
C1636 C 0.00122 0.74803 0.81264 0.0
C1637 C 0.01651 0.75433 0.85754 0.0
C1638 C 0.02021 0.38008 0.85253 0.0
C1639 C 0.02565 0.40167 0.88152 0.0
C1640 C 0.03066 0.38363 0.80599 0.0
C1641 C 0.04698 0.40889 0.78753 0.0
H1642 H 0.00703 0.36041 0.86513 0.0
H1643 H 0.02384 0.36663 0.78289 0.0
S1644 S 0.07049 0.47153 0.85174 0.0
N1645 N 0.05008 0.44913 0.88991 0.0
N1646 N 0.07167 0.45535 0.804 0.0
C1647 C 0.0551 0.43037 0.81832 0.0
C1648 C 0.04364 0.42693 0.86476 0.0
C1649 C 0.66304 0.66049 0.88055 0.0
C1650 C 0.65687 0.63668 0.90252 0.0
C1651 C 0.6603 0.66199 0.8305 0.0
C1652 C 0.65186 0.63977 0.80143 0.0
H1653 H 0.6681 0.67741 0.90264 0.0
H1654 H 0.66338 0.68013 0.81487 0.0
S1655 S 0.6368 0.5738 0.84132 0.0
N1656 N 0.64476 0.59131 0.89153 0.0
N1657 N 0.63997 0.59403 0.79717 0.0
C1658 C 0.64824 0.61654 0.82248 0.0
C1659 C 0.65084 0.61505 0.8733 0.0
C1660 C 0.33509 0.98883 0.8609 0.0
C1661 C 0.34313 0.97779 0.89718 0.0
C1662 C 0.33425 0.98143 0.81237 0.0
C1663 C 0.34201 0.96334 0.79929 0.0
H1664 H 0.33104 0.00428 0.8697 0.0
H1665 H 0.32997 0.99171 0.78477 0.0
S1666 S 0.36199 0.92722 0.88142 0.0
N1667 N 0.35691 0.94652 0.91741 0.0
N1668 N 0.35428 0.93204 0.82647 0.0
C1669 C 0.34714 0.95014 0.83591 0.0
C1670 C 0.34828 0.95777 0.88492 0.0
C1671 C 0.01344 0.616 0.32971 0.0
C1672 C 0.01549 0.63813 0.30688 0.0
C1673 C 0.00322 0.60916 0.37636 0.0
C1674 C 0.99469 0.62421 0.40117 0.0
H1675 H 0.01825 0.60304 0.31025 0.0
H1676 H 0.00182 0.59191 0.39304 0.0
S1677 S -0.00182 0.68514 0.35861 0.0
N1678 N 0.01047 0.67625 0.31356 0.0
N1679 N 0.99006 0.66272 0.4012 0.0
C1680 C 0.99758 0.64691 0.37957 0.0
C1681 C 0.00838 0.65409 0.33234 0.0
C1682 C 0.34268 0.35406 0.31438 0.0
C1683 C 0.34901 0.37994 0.30437 0.0
C1684 C 0.34702 0.34705 0.36041 0.0
C1685 C 0.35787 0.36581 0.39706 0.0
H1686 H 0.33682 0.33986 0.28549 0.0
H1687 H 0.34364 0.32751 0.36642 0.0
S1688 S 0.3738 0.43476 0.39156 0.0
N1689 N 0.36236 0.42295 0.33715 0.0
N1690 N 0.37263 0.41033 0.42256 0.0
C1691 C 0.36212 0.39101 0.38882 0.0
C1692 C 0.3569 0.39788 0.3427 0.0
C1693 C 0.59815 0.97997 0.34649 0.0
C1694 C 0.5766 0.97737 0.32105 0.0
C1695 C 0.60669 0.99515 0.3883 0.0
C1696 C 0.59365 0.00781 0.40668 0.0
H1697 H 0.61005 0.97254 0.33132 0.0
H1698 H 0.62392 0.9971 0.40573 0.0
S1699 S 0.53632 0.00705 0.35064 0.0
N1700 N 0.54155 0.98715 0.31687 0.0
N1701 N 0.55873 0.01756 0.39344 0.0
C1702 C 0.57148 0.00454 0.38184 0.0
C1703 C 0.56225 0.98824 0.34039 0.0
C1704 C 0.64385 0.66192 0.23268 0.0
C1705 C 0.62308 0.664 0.25249 0.0
C1706 C 0.65156 0.66901 0.18444 0.0
C1707 C 0.63873 0.67842 0.15488 0.0
H1708 H 0.65589 0.65745 0.25572 0.0
H1709 H 0.66894 0.66916 0.17163 0.0
S1710 S 0.57962 0.68185 0.18757 0.0
N1711 N 0.58679 0.67106 0.23703 0.0
N1712 N 0.60164 0.68538 0.14696 0.0
C1713 C 0.61606 0.67761 0.17292 0.0
C1714 C 0.60798 0.66987 0.22153 0.0
C1715 C 0.30504 0.00538 0.15873 0.0
C1716 C 0.30993 0.9871 0.13586 0.0
C1717 C 0.3085 0.0093 0.2087 0.0
C1718 C 0.31821 0.99618 0.23658 0.0
H1719 H 0.29566 0.0143 0.13915 0.0
H1720 H 0.3008 0.02026 0.22627 0.0
S1721 S 0.33509 0.94747 0.19322 0.0
N1722 N 0.32556 0.95643 0.14441 0.0
N1723 N 0.33407 0.96555 0.23742 0.0
C1724 C 0.32581 0.98009 0.21309 0.0
C1725 C 0.32114 0.97511 0.16284 0.0
C1726 C 0.07698 0.36884 0.22645 0.0
C1727 C 0.05371 0.35366 0.25224 0.0
C1728 C 0.08185 0.3599 0.18319 0.0
C1729 C 0.06298 0.33614 0.1623 0.0
H1730 H 0.09192 0.3875 0.24043 0.0
H1731 H 0.10053 0.37198 0.16575 0.0
S1732 S -0.00078 0.28854 0.21565 0.0
N1733 N 0.01254 0.3123 0.25579 0.0
N1734 N 0.02002 0.29772 0.17031 0.0
C1735 C 0.03943 0.32095 0.18715 0.0
C1736 C 0.03508 0.32928 0.23278 0.0
C1737 C 0.66656 -0.00058 0.66447 0.0
C1738 C 0.68439 0.99355 0.6422 0.0
C1739 C 0.66221 0.99635 0.71455 0.0
C1740 C 0.67592 0.98774 0.74328 0.0
H1741 H 0.65432 0.00413 0.64252 0.0
H1742 H 0.6467 0.99868 0.7302 0.0
S1743 S 0.72579 0.97159 0.70322 0.0
N1744 N 0.71697 0.98045 0.65322 0.0
N1745 N 0.70902 0.97513 0.74746 0.0
C1746 C 0.69543 0.98417 0.72223 0.0
C1747 C 0.69974 0.9871 0.67144 0.0
C1748 C 0.04373 0.69874 0.68413 0.0
C1749 C 0.02188 0.68236 0.65589 0.0
C1750 C 0.04497 0.69341 0.73265 0.0
C1751 C 0.02401 0.672 0.75541 0.0
H1752 H 0.06018 0.7158 0.66835 0.0
H1753 H 0.06226 0.7067 0.753 0.0
S1754 S 0.96093 0.62489 0.6994 0.0
N1755 N 0.97804 0.64462 0.65449 0.0
N1756 N 0.97975 0.63557 0.74799 0.0
C1757 C 0.00132 0.65618 0.72867 0.0
C1758 C 0.00034 0.66122 0.67832 0.0
C1759 C 0.33635 0.35869 0.7109 0.0
C1760 C 0.31956 0.34028 0.74481 0.0
C1761 C 0.33145 0.3541 0.66133 0.0
C1762 C 0.31031 0.3306 0.64453 0.0
H1763 H 0.35222 0.37732 0.72285 0.0
H1764 H 0.34309 0.36964 0.63615 0.0
S1765 S 0.25845 0.27833 0.71843 0.0
N1766 N 0.27901 0.29948 0.75806 0.0
N1767 N 0.27146 0.28984 0.6648 0.0
C1768 C 0.29374 0.31188 0.67794 0.0
C1769 C 0.29799 0.31697 0.72822 0.0
C1770 C 0.3773 0.06475 0.56398 0.0
C1771 C 0.3608 0.03822 0.57432 0.0
C1772 C 0.38547 0.07297 0.51656 0.0
C1773 C 0.37684 0.05485 0.47827 0.0
H1774 H 0.38203 0.07932 0.59193 0.0
H1775 H 0.39623 0.09374 0.50914 0.0
S1776 S 0.34015 0.98276 0.49073 0.0
N1777 N 0.34072 0.99366 0.54601 0.0
N1778 N 0.35627 0.0089 0.45618 0.0
C1779 C 0.36353 0.02806 0.48969 0.0
C1780 C 0.35514 0.01976 0.53805 0.0
C1781 C 0.93068 0.31969 0.49709 0.0
C1782 C 0.95385 0.33065 0.47013 0.0
C1783 C 0.93097 0.31503 0.54663 0.0
C1784 C 0.95441 0.32089 0.57003 0.0
H1785 H 0.91202 0.31158 0.47885 0.0
H1786 H 0.91249 0.30451 0.56557 0.0
S1787 S 0.02078 0.35991 0.51855 0.0
N1788 N 0.00105 0.35522 0.47262 0.0
N1789 N 0.00179 0.34442 0.5651 0.0
C1790 C 0.97795 0.33565 0.54485 0.0
C1791 C 0.97759 0.34117 0.49486 0.0
C1792 C 0.68112 0.66657 0.55348 0.0
C1793 C 0.70583 0.68773 0.56542 0.0
C1794 C 0.67475 0.6583 0.50542 0.0
C1795 C 0.69288 0.67108 0.46818 0.0
H1796 H 0.66736 0.65515 0.58164 0.0
H1797 H 0.6561 0.64116 0.49759 0.0
S1798 S 0.75957 0.72802 0.48052 0.0
N1799 N 0.74751 0.72247 0.53595 0.0
N1800 N 0.73617 0.70605 0.44584 0.0
C1801 C 0.71706 0.69307 0.47931 0.0
C1802 C 0.72334 0.70169 0.52796 0.0
C1803 C 0.33554 0.32516 1.00096 0.0
C1804 C 0.33097 0.30035 0.98698 0.0
C1805 C 0.33202 0.33011 1.04928 0.0
C1806 C 0.32343 0.31018 0.08404 0.0
H1807 H 0.34206 0.34078 0.97459 0.0
H1808 H 0.33675 0.34962 0.0597 0.0
S1809 S 0.3107 0.24272 0.06634 0.0
N1810 N 0.31915 0.25639 1.01227 0.0
N1811 N 0.31127 0.26531 0.10217 0.0
C1812 C 0.31842 0.28529 0.07017 0.0
C1813 C 0.3226 0.28048 1.02181 0.0
C1814 C 0.6763 0.04476 0.97481 0.0
C1815 C 0.685 0.06943 0.95387 0.0
C1816 C 0.68247 0.04253 1.02271 0.0
C1817 C 0.69781 0.06488 1.05076 0.0
H1818 H 0.66695 0.02722 0.95289 0.0
H1819 H 0.67622 0.02323 1.03703 0.0
S1820 S 0.721 0.1337 1.01421 0.0
N1821 N 0.70495 0.11608 0.96667 0.0
N1822 N 0.71912 0.11251 0.05516 0.0
C1823 C 0.70448 0.08956 1.03136 0.0
C1824 C 0.69714 0.09161 0.98338 0.0
C1825 C 0.99122 0.66809 0.99531 0.0
C1826 C 0.97645 0.67891 0.97736 0.0
C1827 C -0.00191 0.67051 1.04424 0.0
C1828 C 0.99081 0.68422 0.07594 0.0
H1829 H 0.99628 0.65653 0.97207 0.0
H1830 H 0.00712 0.65981 0.05814 0.0
S1831 S 0.95499 0.71871 1.04677 0.0
N1832 N 0.95645 0.70542 0.99515 0.0
N1833 N 0.97107 0.71119 0.08632 0.0
C1834 C 0.97873 0.69755 0.05761 0.0
C1835 C 0.97096 0.69446 1.00839 0.0
C1836 C 0.05107 0.51085 0.94863 0.0
C1837 C 0.07705 0.52737 0.93319 0.0
C1838 C 0.04507 0.49621 0.99214 0.0
C1839 C 0.06474 0.49779 1.02325 0.0
H1840 H 0.03511 0.50883 0.92645 0.0
H1841 H 0.02474 0.48375 1.00177 0.0
S1842 S 0.13592 0.53794 1.00041 0.0
N1843 N 0.12264 0.54402 0.95316 0.0
N1844 N 0.11141 0.5172 1.03488 0.0
C1845 C 0.09077 0.51434 1.00855 0.0
C1846 C 0.09689 0.52883 0.9637 0.0
C1847 C 0.47448 0.54883 1.01106 0.0
C1848 C 0.50204 0.56274 1.01308 0.0
C1849 C 0.46076 0.53931 0.96687 0.0
C1850 C 0.47376 0.5433 0.92197 0.0
H1851 H 0.46323 0.54505 1.04406 0.0
H1852 H 0.43964 0.52896 0.96792 0.0
S1853 S 0.54585 0.57765 0.90641 0.0
N1854 N 0.54179 0.57951 0.96522 0.0
N1855 N 0.51623 0.56159 0.88308 0.0
C1856 C 0.50134 0.55708 0.92341 0.0
C1857 C 0.51534 0.56672 0.96847 0.0
C1858 C 0.42347 0.941 0.96917 0.0
C1859 C 0.4313 0.93631 1.0147 0.0
C1860 C 0.43219 0.93571 0.92493 0.0
C1861 C 0.4492 0.92542 0.92385 0.0
H1862 H 0.41016 0.94853 0.96757 0.0
H1863 H 0.42518 0.93934 0.89121 0.0
S1864 S 0.47781 0.91205 1.0324 0.0
N1865 N 0.45859 0.92213 0.05512 0.0
N1866 N 0.47496 0.91263 0.97294 0.0
C1867 C 0.45762 0.92121 0.96907 0.0
C1868 C 0.44873 0.92653 1.01401 0.0
C1869 C 0.48669 0.05218 0.72956 0.0
C1870 C 0.49867 0.06527 0.68589 0.0
C1871 C 0.50068 0.05771 0.7738 0.0
C1872 C 0.52756 0.07634 0.77672 0.0
H1873 H 0.4662 0.03748 0.72979 0.0
H1874 H 0.49036 0.04702 0.80597 0.0
S1875 S 0.56847 0.11668 0.67382 0.0
N1876 N 0.5394 0.09833 0.6495 0.0
N1877 N 0.56538 0.10827 0.73156 0.0
C1878 C 0.5398 0.08949 0.73338 0.0
C1879 C 0.52552 0.0841 0.6885 0.0
C1880 C 0.91664 0.43807 0.69794 0.0
C1881 C 0.93438 0.4288 0.69339 0.0
C1882 C 0.91133 0.44589 0.74303 0.0
C1883 C 0.92325 0.44478 0.7867 0.0
H1884 H 0.90663 0.43942 0.6662 0.0
H1885 H 0.89782 0.45317 0.74332 0.0
S1886 S 0.9714 0.42188 0.79564 0.0
N1887 N 0.96442 0.41959 0.73727 0.0
N1888 N 0.95367 0.43291 0.82163 0.0
C1889 C 0.94115 0.43556 0.78269 0.0
C1890 C 0.94683 0.42793 0.73646 0.0
C1891 C 0.55066 0.46204 0.7415 0.0
C1892 C 0.54831 0.47367 0.78455 0.0
C1893 C 0.55921 0.476 0.69722 0.0
C1894 C 0.56624 0.50256 0.69333 0.0
H1895 H 0.54545 0.4417 0.74172 0.0
H1896 H 0.56034 0.46573 0.66565 0.0
S1897 S 0.56475 0.54294 0.79539 0.0
N1898 N 0.55459 0.514 0.82014 0.0
N1899 N 0.57052 0.54 0.7378 0.0
C1900 C 0.56425 0.51457 0.73622 0.0
C1901 C 0.55533 0.50026 0.7813 0.0
C1902 C 0.91813 0.47426 0.19765 0.0
C1903 C 0.93215 0.50184 0.19489 0.0
C1904 C 0.91279 0.46076 0.24237 0.0
C1905 C 0.92123 0.47395 0.28717 0.0
H1906 H 0.91119 0.4628 0.16479 0.0
H1907 H 0.90214 0.43962 0.24166 0.0
S1908 S 0.95768 0.54619 0.30141 0.0
N1909 N 0.95382 0.54183 0.24219 0.0
N1910 N 0.94375 0.51667 0.3255 0.0
C1911 C 0.93521 0.50156 0.28509 0.0
C1912 C 0.94063 0.51536 0.23942 0.0
C1913 C 0.53354 0.44659 0.23983 0.0
C1914 C 0.52188 0.44992 0.2819 0.0
C1915 C 0.5199 0.43796 0.19539 0.0
C1916 C 0.4937 0.43195 0.19045 0.0
H1917 H 0.5536 0.45093 0.24104 0.0
H1918 H 0.53009 0.4359 0.1646 0.0
S1919 S 0.45364 0.43679 0.28961 0.0
N1920 N 0.48205 0.44589 0.31547 0.0
N1921 N 0.45676 0.43023 0.23262 0.0
C1922 C 0.4818 0.43526 0.23224 0.0
C1923 C 0.49573 0.44408 0.27752 0.0
C1924 C 0.54214 0.07147 0.18908 0.0
C1925 C 0.5635 0.06719 0.18639 0.0
C1926 C 0.53374 0.07672 0.2337 0.0
C1927 C 0.54652 0.07844 0.27808 0.0
H1928 H 0.5315 0.07034 0.15642 0.0
H1929 H 0.51679 0.07914 0.23333 0.0
S1930 S 0.60581 0.07218 0.28986 0.0
N1931 N 0.5983 0.06671 0.23175 0.0
N1932 N 0.58351 0.07754 0.31454 0.0
C1933 C 0.56844 0.07488 0.27543 0.0
C1934 C 0.57665 0.06907 0.23009 0.0
C1935 C 0.51872 0.94686 0.47222 0.0
C1936 C 0.50539 0.93883 0.51708 0.0
C1937 C 0.50517 0.94227 0.42746 0.0
C1938 C 0.4776 0.92938 0.42513 0.0
H1939 H 0.53982 0.95643 0.47149 0.0
H1940 H 0.51639 0.94837 0.39422 0.0
S1941 S 0.43326 0.90684 0.53171 0.0
N1942 N 0.4626 0.91881 0.55552 0.0
N1943 N 0.43777 0.91049 0.47251 0.0
C1944 C 0.46415 0.92189 0.46969 0.0
C1945 C 0.47782 0.92653 0.51511 0.0
C1946 C 0.05612 0.55337 0.43417 0.0
C1947 C 0.07164 0.54139 0.43238 0.0
C1948 C 0.05179 0.56323 0.47802 0.0
C1949 C 0.06266 0.56158 0.52263 0.0
H1950 H 0.04748 0.55552 0.40116 0.0
H1951 H 0.03982 0.57229 0.47677 0.0
S1952 S 0.10322 0.53028 0.53898 0.0
N1953 N 0.0966 0.52721 0.48044 0.0
N1954 N 0.08902 0.54584 0.56167 0.0
C1955 C 0.07792 0.5493 0.52136 0.0
C1956 C 0.08225 0.53925 0.47681 0.0
C1957 C 0.46058 0.51229 0.45309 0.0
C1958 C 0.44325 0.51582 0.42299 0.0
C1959 C 0.45241 0.49858 0.4976 0.0
C1960 C 0.42661 0.48794 0.5145 0.0
H1961 H 0.48063 0.51985 0.44184 0.0
H1962 H 0.46642 0.49624 0.51896 0.0
S1963 S 0.37347 0.49209 0.45195 0.0
N1964 N 0.39881 0.50771 0.41534 0.0
N1965 N 0.38384 0.48208 0.4983 0.0
C1966 C 0.40911 0.49136 0.48536 0.0
C1967 C 0.4173 0.5052 0.43992 0.0
C1968 C 0.71196 0.81328 0.25184 0.0
C1969 C 0.72373 0.84078 0.24924 0.0
C1970 C 0.70625 0.79983 0.2971 0.0
C1971 C 0.7118 0.81324 0.34189 0.0
H1972 H 0.70766 0.8021 0.21863 0.0
H1973 H 0.69779 0.77883 0.29689 0.0
S1974 S 0.73975 0.88524 0.35433 0.0
N1975 N 0.73879 0.88052 0.29525 0.0
N1976 N 0.72809 0.85611 0.37903 0.0
C1977 C 0.72266 0.84075 0.33914 0.0
C1978 C 0.72858 0.85423 0.29338 0.0
C1979 C 0.1695 0.89529 0.25811 0.0
C1980 C 0.14203 0.87896 0.25687 0.0
C1981 C 0.18359 0.90382 0.30238 0.0
C1982 C 0.17101 0.89675 0.34803 0.0
H1983 H 0.18036 0.90138 0.22444 0.0
H1984 H 0.20458 0.9163 0.30068 0.0
S1985 S 0.09929 0.85486 0.36586 0.0
N1986 N 0.10292 0.85671 0.30639 0.0
N1987 N 0.12895 0.87216 0.3884 0.0
C1988 C 0.14353 0.88048 0.34725 0.0
C1989 C 0.12925 0.87176 0.30228 0.0
C1990 C 0.12664 0.26947 0.28928 0.0
C1991 C 0.1133 0.26726 0.24561 0.0
C1992 C 0.11853 0.27466 0.33399 0.0
C1993 C 0.09666 0.27815 0.33788 0.0
H1994 H 0.14368 0.26718 0.28907 0.0
H1995 H 0.12961 0.27581 0.36603 0.0
S1996 S 0.05432 0.27401 0.23516 0.0
N1997 N 0.07648 0.26865 0.20977 0.0
N1998 N 0.0618 0.27905 0.29332 0.0
C1999 C 0.08335 0.27652 0.2945 0.0
C2000 C 0.09149 0.27096 0.24874 0.0
C2001 C 0.16754 0.3916 0.10439 0.0
C2002 C 0.19498 0.40682 0.10762 0.0
C2003 C 0.15427 0.38718 0.05971 0.0
C2004 C 0.16753 0.398 1.01563 0.0
H2005 H 0.15611 0.38264 0.13672 0.0
H2006 H 0.13327 0.37511 0.05996 0.0
S2007 S 0.23942 0.44003 1.00353 0.0
N2008 N 0.23493 0.43314 0.06202 0.0
N2009 N 0.21011 0.42505 0.97878 0.0
C2010 C 0.19497 0.41344 1.0183 0.0
C2011 C 0.20858 0.41773 0.06384 0.0
C2012 C 0.57714 0.76021 1.0422 0.0
C2013 C 0.60096 0.76134 1.0312 0.0
C2014 C 0.57291 0.76913 0.08711 0.0
C2015 C 0.59241 0.78006 0.12326 0.0
H2016 H 0.56142 0.7521 1.01598 0.0
H2017 H 0.55419 0.76774 0.09325 0.0
S2018 S 0.65884 0.78858 0.11211 0.0
N2019 N 0.64475 0.7754 0.05994 0.0
N2020 N 0.63675 0.79134 0.14405 0.0
C2021 C 0.61645 0.78152 0.11243 0.0
C2022 C 0.62069 0.77238 0.06674 0.0
C2023 C 0.2257 0.83839 0.11727 0.0
C2024 C 0.21094 0.81093 0.12175 0.0
C2025 C 0.23488 0.85083 0.07177 0.0
C2026 C 0.22976 0.83651 1.02816 0.0
H2027 H 0.23059 0.85046 0.1494 0.0
H2028 H 0.24629 0.87194 0.07096 0.0
S2029 S 0.1901 0.76418 1.01889 0.0
N2030 N 0.19034 0.76997 0.0775 0.0
N2031 N 0.20765 0.793 0.99295 0.0
C2032 C 0.21467 0.80904 1.03209 0.0
C2033 C 0.2053 0.79641 0.07839 0.0
C2034 C 0.60339 0.83652 0.61995 0.0
C2035 C 0.59735 0.81019 0.62204 0.0
C2036 C 0.60896 0.85037 0.57547 0.0
C2037 C 0.60875 0.83858 0.53082 0.0
H2038 H 0.60323 0.84639 0.65291 0.0
H2039 H 0.61286 0.87031 0.57602 0.0
S2040 S 0.59794 0.7714 0.51657 0.0
N2041 N 0.59422 0.77395 0.57531 0.0
N2042 N 0.60433 0.79955 0.4926 0.0
C2043 C 0.60367 0.81259 0.53266 0.0
C2044 C 0.59809 0.79857 0.57783 0.0
C2045 C 0.17865 0.78377 0.53606 0.0
C2046 C 0.15199 0.7642 0.53532 0.0
C2047 C 0.19316 0.79197 0.57952 0.0
C2048 C 0.18183 0.78114 0.62478 0.0
H2049 H 0.18858 0.79299 0.50259 0.0
H2050 H 0.21347 0.80712 0.57765 0.0
S2051 S 0.11341 0.72831 0.64368 0.0
N2052 N 0.11524 0.73376 0.58467 0.0
N2053 N 0.14246 0.74898 0.66582 0.0
C2054 C 0.15525 0.7616 0.62477 0.0
C2055 C 0.1404 0.75323 0.58041 0.0
C2056 C 0.23956 0.39279 0.56579 0.0
C2057 C 0.22788 0.39138 0.52045 0.0
C2058 C 0.23062 0.39876 0.60905 0.0
C2059 C 0.20938 0.40342 0.60934 0.0
H2060 H 0.25613 0.38977 0.56779 0.0
H2061 H 0.24079 0.40016 0.64252 0.0
S2062 S 0.16957 0.39833 0.50126 0.0
N2063 N 0.19248 0.39303 0.47945 0.0
N2064 N 0.17543 0.40348 0.55995 0.0
C2065 C 0.19702 0.40114 0.56433 0.0
C2066 C 0.20628 0.39533 0.52032 0.0
C2067 C 0.17835 0.27491 0.75208 0.0
C2068 C 0.15128 0.26565 0.74779 0.0
C2069 C 0.19079 0.27897 0.79791 0.0
C2070 C 0.17684 0.27395 0.842 0.0
H2071 H 0.19005 0.27863 0.71966 0.0
H2072 H 0.21151 0.28577 0.79867 0.0
S2073 S 0.10618 0.25239 0.85161 0.0
N2074 N 0.11158 0.25387 0.79266 0.0
N2075 N 0.1344 0.26077 0.87754 0.0
C2076 C 0.14989 0.26528 0.83812 0.0
C2077 C 0.13733 0.26135 0.79162 0.0
C2078 C 0.74005 0.88704 0.83794 0.0
C2079 C 0.72164 0.89532 0.84457 0.0
C2080 C 0.74404 0.8786 0.79228 0.0
C2081 C 0.72984 0.87793 0.75056 0.0
H2082 H 0.7517 0.88718 0.86831 0.0
H2083 H 0.75871 0.87285 0.78959 0.0
S2084 S 0.67779 0.89563 0.74823 0.0
N2085 N 0.68827 0.90121 0.8048 0.0
N2086 N 0.69534 0.885 0.72025 0.0
C2087 C 0.71107 0.88576 0.75683 0.0
C2088 C 0.70708 0.89447 0.80325 0.0
C2089 C 0.09713 0.81114 0.80722 0.0
C2090 C 0.09957 0.82449 0.85112 0.0
C2091 C 0.10596 0.82445 0.76238 0.0
C2092 C 0.11821 0.85193 0.75905 0.0
H2093 H 0.08816 0.79011 0.80728 0.0
H2094 H 0.10339 0.81306 0.72999 0.0
S2095 S 0.13024 0.89661 0.86287 0.0
N2096 N 0.11583 0.8673 0.88774 0.0
N2097 N 0.13228 0.89197 0.80438 0.0
C2098 C 0.12116 0.86557 0.80272 0.0
C2099 C 0.11193 0.85202 0.84828 0.0
C2100 C 0.3875 0.14488 0.63767 0.0
C2101 C 0.39091 0.15781 0.68246 0.0
C2102 C 0.39256 0.15829 0.59274 0.0
C2103 C 0.40124 0.18531 0.59026 0.0
H2104 H 0.38134 0.12429 0.63722 0.0
H2105 H 0.39012 0.14745 0.55965 0.0
S2106 S 0.41012 0.22774 0.69626 0.0
N2107 N 0.40173 0.1991 0.72054 0.0
N2108 N 0.41064 0.22377 0.63711 0.0
C2109 C 0.40387 0.19821 0.63469 0.0
C2110 C 0.39887 0.18465 0.6803 0.0
C2111 C 0.84502 0.23634 0.64275 0.0
C2112 C 0.83199 0.22974 0.68797 0.0
C2113 C 0.83126 0.22761 0.59831 0.0
C2114 C 0.80378 0.21194 0.59683 0.0
H2115 H 0.86605 0.24863 0.6415 0.0
H2116 H 0.84225 0.23362 0.56476 0.0
S2117 S 0.76035 0.18687 0.70453 0.0
N2118 N 0.78976 0.20498 0.7277 0.0
N2119 N 0.76439 0.1887 0.64515 0.0
C2120 C 0.79064 0.20471 0.64174 0.0
C2121 C 0.80455 0.21354 0.68684 0.0
C2122 C 0.77056 0.61332 0.58968 0.0
C2123 C 0.78453 0.5999 0.58454 0.0
C2124 C 0.76288 0.61776 0.63563 0.0
C2125 C 0.76828 0.60862 0.67889 0.0
H2126 H 0.76505 0.62013 0.55782 0.0
H2127 H 0.75235 0.62825 0.63706 0.0
S2128 S 0.80837 0.5765 0.68678 0.0
N2129 N 0.80651 0.58069 0.62803 0.0
N2130 N 0.79135 0.58812 0.71348 0.0
C2131 C 0.78323 0.59617 0.67447 0.0
C2132 C 0.79141 0.592 0.62774 0.0
C2133 C 0.86011 0.74705 0.40834 0.0
C2134 C 0.84879 0.73355 0.45195 0.0
C2135 C 0.84592 0.74098 0.36441 0.0
C2136 C 0.81952 0.72099 0.36131 0.0
H2137 H 0.88019 0.76279 0.40813 0.0
H2138 H 0.85587 0.75227 0.3325 0.0
S2139 S 0.78074 0.67829 0.464 0.0
N2140 N 0.80949 0.69818 0.48822 0.0
N2141 N 0.78292 0.68707 0.40655 0.0
C2142 C 0.80792 0.70717 0.4046 0.0
C2143 C 0.82244 0.71335 0.44943 0.0
C2144 C 0.25216 0.10824 0.36246 0.0
C2145 C 0.26843 0.09714 0.3608 0.0
C2146 C 0.24677 0.11696 0.40642 0.0
C2147 C 0.25748 0.11521 0.45105 0.0
H2148 H 0.24364 0.1105 0.32938 0.0
H2149 H 0.23437 0.12556 0.40525 0.0
S2150 S 0.30009 0.08636 0.4679 0.0
N2151 N 0.29442 0.0841 0.409 0.0
N2152 N 0.28428 0.10029 0.49074 0.0
C2153 C 0.27354 0.1039 0.45004 0.0
C2154 C 0.27898 0.09495 0.40535 0.0
C2155 C 0.8804 0.12809 0.40981 0.0
C2156 C 0.88183 0.14047 0.45445 0.0
C2157 C 0.889 0.14217 0.36571 0.0
C2158 C 0.89954 0.16951 0.36345 0.0
H2159 H 0.87282 0.10723 0.40886 0.0
H2160 H 0.88732 0.13133 0.33298 0.0
S2161 S 0.90625 0.21153 0.46908 0.0
N2162 N 0.89361 0.18198 0.49261 0.0
N2163 N 0.91001 0.20825 0.41065 0.0
C2164 C 0.90085 0.18216 0.40772 0.0
C2165 C 0.89203 0.16779 0.45272 0.0
C2166 C 0.27441 0.17708 0.90289 0.0
C2167 C 0.26643 0.16418 0.85769 0.0
C2168 C 0.2696 0.16321 0.94719 0.0
C2169 C 0.25649 0.13564 0.94885 0.0
H2170 H 0.28439 0.1982 0.90427 0.0
H2171 H 0.27595 0.17428 0.98058 0.0
S2172 S 0.23342 0.09223 0.84088 0.0
N2173 N 0.24579 0.12185 0.81789 0.0
N2174 N 0.23709 0.09613 0.9002 0.0
C2175 C 0.24878 0.12252 0.90387 0.0
C2176 C 0.25365 0.13662 0.85878 0.0
C2177 C 0.82477 0.1028 0.94875 0.0
C2178 C 0.85233 0.11723 0.95172 0.0
C2179 C 0.81154 0.09411 0.9037 0.0
C2180 C 0.82516 0.09891 0.85931 0.0
H2181 H 0.81325 0.09833 0.98158 0.0
H2182 H 0.79044 0.08324 0.90384 0.0
S2183 S 0.8975 0.13602 0.84649 0.0
N2184 N 0.8926 0.13592 0.90542 0.0
N2185 N 0.86822 0.11991 0.82195 0.0
C2186 C 0.85273 0.11353 0.86189 0.0
C2187 C 0.86611 0.12255 0.90753 0.0
C2188 C 0.89562 0.71452 0.8999 0.0
C2189 C 0.89342 0.72573 0.85609 0.0
C2190 C 0.88614 0.71836 0.94469 0.0
C2191 C 0.87427 0.73391 0.9482 0.0
H2192 H 0.90481 0.70265 0.89978 0.0
H2193 H 0.88853 0.70941 0.97707 0.0
S2194 S 0.86188 0.76638 0.84481 0.0
N2195 N 0.87695 0.75218 0.81985 0.0
N2196 N 0.8598 0.75951 0.90324 0.0
C2197 C 0.87168 0.74496 0.9048 0.0
C2198 C 0.88103 0.74086 0.85918 0.0
C2199 C 0.85579 0.61196 0.12791 0.0
C2200 C 0.84292 0.60984 0.17234 0.0
C2201 C 0.84242 0.60622 0.08273 0.0
C2202 C 0.81551 0.59796 0.07977 0.0
H2203 H 0.87622 0.61753 0.12802 0.0
H2204 H 0.85313 0.60764 1.04993 0.0
S2205 S 0.77317 0.59218 0.18391 0.0
N2206 N 0.80161 0.60063 0.20885 0.0
N2207 N 0.77731 0.59042 0.12517 0.0
C2208 C 0.80276 0.59674 0.12359 0.0
C2209 C 0.81619 0.60251 0.1693 0.0
C2210 C 0.39192 0.23271 0.09252 0.0
C2211 C 0.40159 0.21518 0.09027 0.0
C2212 C 0.38723 0.24147 0.13737 0.0
C2213 C 0.39195 0.23315 0.18235 0.0
H2214 H 0.38837 0.24015 0.05926 0.0
H2215 H 0.38021 0.25522 0.13668 0.0
S2216 S 0.41439 0.18491 0.19695 0.0
N2217 N 0.41351 0.18821 0.13768 0.0
N2218 N 0.40528 0.20466 0.22089 0.0
C2219 C 0.40098 0.21508 0.18043 0.0
C2220 C 0.40563 0.20614 0.13492 0.0
C2221 C 0.77456 0.20206 0.13631 0.0
C2222 C 0.78102 0.19137 0.09637 0.0
C2223 C 0.7665 0.18894 0.1814 0.0
C2224 C 0.76425 0.16432 0.18885 0.0
H2225 H 0.77604 0.22099 0.13301 0.0
H2226 H 0.76178 0.19814 0.21054 0.0
S2227 S 0.77889 0.12744 0.09673 0.0
N2228 N 0.78422 0.15414 0.06799 0.0
N2229 N 0.76984 0.13004 0.15208 0.0
C2230 C 0.77077 0.15343 0.14935 0.0
C2231 C 0.77896 0.16676 0.10352 0.0
C2232 C 0.97532 0.40837 0.30902 0.0
C2233 C 0.00131 0.41416 0.3009 0.0
C2234 C 0.96405 0.40366 0.35638 0.0
C2235 C 0.97775 0.40356 0.39845 0.0
H2236 H 0.96382 0.4085 0.27863 0.0
H2237 H 0.94434 0.40014 0.36002 0.0
S2238 S 0.04615 0.41673 0.39775 0.0
N2239 N 0.04024 0.41927 0.34005 0.0
N2240 N 0.0191 0.40947 0.42742 0.0
C2241 C 0.0035 0.40857 0.39052 0.0
C2242 C 0.01519 0.4141 0.34254 0.0
C2243 C 0.57353 0.58879 0.39391 0.0
C2244 C 0.58658 0.57455 0.40216 0.0
C2245 C 0.56729 0.59359 0.34629 0.0
C2246 C 0.57454 0.58533 0.30367 0.0
H2247 H 0.56719 0.59557 0.42469 0.0
H2248 H 0.55662 0.60395 0.3429 0.0
S2249 S 0.60931 0.54759 0.30381 0.0
N2250 N 0.60629 0.55214 0.36201 0.0
N2251 N 0.59587 0.56211 0.27412 0.0
C2252 C 0.58818 0.57168 0.31142 0.0
C2253 C 0.59381 0.5661 0.35983 0.0
C2254 C 0.40063 0.97474 0.34303 0.0
C2255 C 0.40855 0.9902 0.30029 0.0
C2256 C 0.40627 0.9858 0.39063 0.0
C2257 C 0.42106 0.01309 0.39884 0.0
H2258 H 0.39006 0.95368 0.33976 0.0
H2259 H 0.39976 0.97266 0.42141 0.0
S2260 S 0.44681 0.06278 0.30023 0.0
N2261 N 0.43163 0.03479 0.2706 0.0
N2262 N 0.44318 0.05523 0.35849 0.0
C2263 C 0.42899 0.02877 0.35642 0.0
C2264 C 0.42253 0.01752 0.30797 0.0
C2265 C 0.9873 0.5917 0.87646 0.0
C2266 C 0.98323 0.56959 0.90358 0.0
C2267 C -0.00136 0.5971 0.82893 0.0
C2268 C 0.00739 0.58126 0.80666 0.0
H2269 H 0.98124 0.6047 0.89164 0.0
H2270 H 0.00096 0.61408 0.80985 0.0
S2271 S 0.00205 0.52154 0.86206 0.0
N2272 N 0.98928 0.53199 0.90347 0.0
N2273 N 0.01083 0.54239 0.81661 0.0
C2274 C 0.00367 0.5594 0.83382 0.0
C2275 C 0.99162 0.55356 0.8813 0.0
C2276 C 0.3977 0.41691 0.84188 0.0
C2277 C 0.40933 0.41299 0.80015 0.0
C2278 C 0.40302 0.41167 0.88978 0.0
C2279 C 0.42097 0.40298 0.89916 0.0
H2280 H 0.38443 0.42435 0.83756 0.0
H2281 H 0.39365 0.41545 0.91991 0.0
S2282 S 0.45739 0.39006 0.80328 0.0
N2283 N 0.43963 0.39946 0.7724 0.0
N2284 N 0.4503 0.39072 0.86103 0.0
C2285 C 0.43263 0.3989 0.85766 0.0
C2286 C 0.42668 0.40357 0.80889 0.0
C2287 C 0.56936 0.01662 0.86742 0.0
C2288 C 0.58543 0.01357 0.90181 0.0
C2289 C 0.56349 0.00411 0.82134 0.0
C2290 C 0.57396 0.98844 0.80599 0.0
H2291 H 0.56064 0.02837 0.87652 0.0
H2292 H 0.55063 0.00689 0.79728 0.0
S2293 S 0.61626 0.9732 0.88169 0.0
N2294 N 0.61079 0.9925 0.91679 0.0
N2295 N 0.60096 0.97035 0.83005 0.0
C2296 C 0.59028 0.98548 0.83955 0.0
C2297 C 0.59563 0.99759 0.88715 0.0
C2298 C 0.65131 0.72189 0.71212 0.0
C2299 C 0.65035 0.7411 0.74138 0.0
C2300 C 0.66047 0.72698 0.66295 0.0
C2301 C 0.67054 0.75188 0.64099 0.0
H2302 H 0.64404 0.70246 0.72667 0.0
H2303 H 0.65952 0.71122 0.64175 0.0
S2304 S 0.67046 0.80841 0.69998 0.0
N2305 N 0.65852 0.78555 0.7422 0.0
N2306 N 0.67701 0.79538 0.65291 0.0
C2307 C 0.66952 0.77109 0.67001 0.0
C2308 C 0.65925 0.76566 0.71903 0.0
C2309 C 0.24327 0.92294 0.72566 0.0
C2310 C 0.25545 0.90802 0.73524 0.0
C2311 C 0.23832 0.92832 0.6775 0.0
C2312 C 0.24598 0.91992 0.63555 0.0
H2313 H 0.23652 0.92976 0.75575 0.0
H2314 H 0.22813 0.93911 0.67317 0.0
S2315 S 0.27944 0.88097 0.63923 0.0
N2316 N 0.27529 0.8852 0.69709 0.0
N2317 N 0.26712 0.89613 0.60814 0.0
C2318 C 0.25895 0.90573 0.64462 0.0
C2319 C 0.26332 0.89961 0.69364 0.0
C2320 C 0.06387 0.33183 0.71196 0.0
C2321 C 0.08813 0.33959 0.7349 0.0
C2322 C 0.05826 0.32147 0.66359 0.0
C2323 C 0.07627 0.31745 0.63615 0.0
H2324 H 0.04926 0.33429 0.73108 0.0
H2325 H 0.03948 0.31616 0.64794 0.0
S2326 S 0.14251 0.33444 0.67881 0.0
N2327 N 0.13027 0.3427 0.72478 0.0
N2328 N 0.11961 0.32267 0.63681 0.0
C2329 C 0.10037 0.32496 0.65911 0.0
C2330 C 0.10629 0.33609 0.70734 0.0
C2331 C 0.69139 0.9272 0.18108 0.0
C2332 C 0.67519 0.91788 0.1394 0.0
C2333 C 0.68113 0.92321 0.22941 0.0
C2334 C 0.65398 0.90888 0.23944 0.0
H2335 H 0.71236 0.93774 0.17639 0.0
H2336 H 0.69475 0.93068 0.25936 0.0
S2337 S 0.60271 0.87902 0.14425 0.0
N2338 N 0.63016 0.8933 0.11283 0.0
N2339 N 0.61125 0.88499 0.20187 0.0
C2340 C 0.63764 0.89929 0.19806 0.0
C2341 C 0.64804 0.90396 0.14895 0.0
C2342 C 0.09291 0.73658 0.20235 0.0
C2343 C 0.08178 0.74153 0.24384 0.0
C2344 C 0.0879 0.74165 0.15402 0.0
C2345 C 0.07203 0.75267 0.14363 0.0
H2346 H 0.10585 0.72891 0.20717 0.0
H2347 H 0.09745 0.73761 0.12429 0.0
S2348 S 0.03684 0.76833 0.23777 0.0
N2349 N 0.05282 0.75719 0.26965 0.0
N2350 N 0.04417 0.76715 0.18034 0.0
C2351 C 0.06054 0.75745 0.18466 0.0
C2352 C 0.06513 0.75173 0.23386 0.0
C2353 C 0.26007 0.34445 0.14816 0.0
C2354 C 0.24359 0.31753 0.13847 0.0
C2355 C 0.2649 0.35472 0.19623 0.0
C2356 C 0.25432 0.33864 0.23774 0.0
H2357 H 0.26852 0.35797 0.11817 0.0
H2358 H 0.27692 0.37564 0.20084 0.0
S2359 S 0.21084 0.26664 0.23365 0.0
N2360 N 0.2171 0.27501 0.17595 0.0
N2361 N 0.227 0.29397 0.26495 0.0
C2362 C 0.23866 0.31161 0.22866 0.0
C2363 C 0.23312 0.30123 0.17973 0.0
C2364 C 0.30777 0.06431 1.03203 0.0
C2365 C 0.32324 0.07637 0.07364 0.0
C2366 C 0.31844 0.06921 0.98405 0.0
C2367 C 0.3451 0.08721 0.97443 0.0
H2368 H 0.28707 0.05095 1.03649 0.0
H2369 H 0.30537 0.05946 0.95402 0.0
S2370 S 0.39417 0.12492 0.06996 0.0
N2371 N 0.36697 0.10725 0.10094 0.0
N2372 N 0.38654 0.1172 1.01239 0.0
C2373 C 0.36071 0.09938 1.01587 0.0
C2374 C 0.34999 0.09382 0.06466 0.0
C2375 C 0.89063 0.22764 0.99743 0.0
C2376 C 0.90584 0.25219 0.97463 0.0
C2377 C 0.89629 0.22204 1.04473 0.0
C2378 C 0.91699 0.24087 0.07362 0.0
H2379 H 0.87415 0.21228 0.97817 0.0
H2380 H 0.88382 0.20264 0.05919 0.0
S2381 S 0.96269 0.30881 1.03271 0.0
N2382 N 0.94296 0.29571 0.9858 0.0
N2383 N 0.9527 0.28575 0.0746 0.0
C2384 C 0.93217 0.26573 1.05165 0.0
C2385 C 0.92688 0.27119 1.00259 0.0
C2386 C 0.72997 0.63272 1.01298 0.0
C2387 C 0.73838 0.64897 0.97135 0.0
C2388 C 0.73423 0.64303 0.06107 0.0
C2389 C 0.74797 0.67023 0.07051 0.0
H2390 H 0.72001 0.61174 1.00842 0.0
H2391 H 0.72752 0.62948 0.09122 0.0
S2392 S 0.77517 0.72152 0.97487 0.0
N2393 N 0.76126 0.69396 0.94385 0.0
N2394 N 0.77015 0.71305 1.03264 0.0
C2395 C 0.75654 0.68661 1.02911 0.0
C2396 C 0.75155 0.67613 0.98031 0.0
C2397 C 0.31847 0.24563 0.48404 0.0
C2398 C 0.34533 0.25491 0.47547 0.0
C2399 C 0.30727 0.23937 0.53154 0.0
C2400 C 0.32232 0.24281 0.57374 0.0
H2401 H 0.30569 0.24229 0.45353 0.0
H2402 H 0.28646 0.23162 0.53517 0.0
S2403 S 0.39353 0.26656 0.57285 0.0
N2404 N 0.3865 0.26686 0.51499 0.0
N2405 N 0.3659 0.25629 0.60277 0.0
C2406 C 0.34926 0.25265 0.56583 0.0
C2407 C 0.36054 0.25833 0.51747 0.0
C2408 C 0.73319 0.0636 0.54801 0.0
C2409 C 0.75885 0.07748 0.56727 0.0
C2410 C 0.72684 0.06858 0.50058 0.0
C2411 C 0.74551 0.08868 0.4705 0.0
H2412 H 0.7177 0.0488 0.56992 0.0
H2413 H 0.7069 0.0571 0.48807 0.0
S2414 S 0.81457 0.13359 0.50483 0.0
N2415 N 0.80256 0.11371 0.55182 0.0
N2416 N 0.79037 0.12384 0.46574 0.0
C2417 C 0.77085 0.10343 0.4901 0.0
C2418 C 0.77754 0.09776 0.53738 0.0
C2419 C 0.92967 0.66441 0.54717 0.0
C2420 C 0.91524 0.67537 0.56746 0.0
C2421 C 0.92529 0.65407 0.49881 0.0
C2422 C 0.90543 0.65305 0.46857 0.0
H2423 H 0.94466 0.66395 0.56867 0.0
H2424 H 0.93721 0.64626 0.48548 0.0
S2425 S 0.86057 0.67706 0.50418 0.0
N2426 N 0.87956 0.68353 0.55207 0.0
N2427 N 0.87064 0.66324 0.46423 0.0
C2428 C 0.89047 0.66323 0.48895 0.0
C2429 C 0.89547 0.6745 0.5372 0.0
C2430 C 0.97848 0.47243 0.11565 0.0
C2431 C 0.00186 0.48419 0.14229 0.0
C2432 C 0.97407 0.48602 0.07891 0.0
C2433 C 0.99257 0.5121 0.06776 0.0
H2434 H 0.9638 0.45222 0.12176 0.0
H2435 H 0.9554 0.47643 0.06051 0.0
S2436 S 0.05722 0.5516 0.12623 0.0
N2437 N 0.04403 0.52315 0.15429 0.0
N2438 N 0.03549 0.54902 0.08583 0.0
C2439 C 0.01617 0.52404 0.09369 0.0
C2440 C 0.02068 0.51014 0.13114 0.0
C2441 C 0.48795 0.50576 0.12853 0.0
C2442 C 0.51477 0.51478 0.13416 0.0
C2443 C 0.47326 0.48779 0.09233 0.0
C2444 C 0.48482 0.47803 0.06024 0.0
H2445 H 0.47842 0.5134 0.15139 0.0
H2446 H 0.45248 0.48061 0.09105 0.0
S2447 S 0.55423 0.49537 0.05866 0.0
N2448 N 0.5523 0.51267 0.10378 0.0
N2449 N 0.52451 0.47871 1.03602 0.0
C2450 C 0.51159 0.487 0.06515 0.0
C2451 C 0.52654 0.50516 0.10224 0.0
C2452 C 0.50463 0.98621 0.08824 0.0
C2453 C 0.51449 0.00798 0.05726 0.0
C2454 C 0.48667 0.98249 0.12473 0.0
C2455 C 0.47761 0.00019 0.13144 0.0
H2456 H 0.51176 0.97259 0.08596 0.0
H2457 H 0.47904 0.96505 0.14688 0.0
S2458 S 0.49748 0.06028 0.05912 0.0
N2459 N 0.51421 0.04752 1.03546 0.0
N2460 N 0.47988 0.04033 0.10327 0.0
C2461 C 0.4873 0.02204 0.1005 0.0
C2462 C 0.5056 0.02578 0.06333 0.0
C2463 C 0.48966 0.97863 0.62244 0.0
C2464 C 0.51552 0.99701 0.63514 0.0
C2465 C 0.47651 0.9836 0.58552 0.0
C2466 C 0.48865 0.00732 0.55977 0.0
H2467 H 0.47973 0.9598 0.64038 0.0
H2468 H 0.45632 0.96916 0.57872 0.0
S2469 S 0.55629 0.06181 0.57749 0.0
N2470 N 0.55291 0.03985 0.61817 0.0
N2471 N 0.52814 0.04914 0.54867 0.0
C2472 C 0.5146 0.02574 0.57158 0.0
C2473 C 0.52795 0.02078 0.60954 0.0
C2474 C 0.9745 0.48674 0.57785 0.0
C2475 C 0.99151 0.47716 0.56815 0.0
C2476 C 0.97948 0.50454 0.61541 0.0
C2477 C 0.00173 0.5135 0.64489 0.0
H2478 H 0.95666 0.47967 0.55717 0.0
H2479 H 0.96632 0.51211 0.61993 0.0
S2480 S 0.05184 0.49367 0.63661 0.0
N2481 N 0.03112 0.47734 0.59261 0.0
N2482 N 0.04055 0.51111 0.66284 0.0
C2483 C 0.0187 0.50383 0.63611 0.0
C2484 C 0.01374 0.48581 0.59766 0.0
C2485 C 0.50822 0.4868 0.57008 0.0
C2486 C 0.51712 0.51372 0.56893 0.0
C2487 C 0.48981 0.47046 0.6043 0.0
C2488 C 0.47959 0.48046 0.63881 0.0
H2489 H 0.51628 0.47845 0.54528 0.0
H2490 H 0.48278 0.4497 0.60232 0.0
S2491 S 0.4968 0.5495 0.65256 0.0
N2492 N 0.51468 0.54974 0.60635 0.0
N2493 N 0.47976 0.51878 0.67026 0.0
C2494 C 0.4884 0.5073 0.63832 0.0
C2495 C 0.50706 0.52397 0.60332 0.0
C2496 C 0.6773 0.85286 0.44047 0.0
C2497 C 0.66703 0.85124 0.39363 0.0
C2498 C 0.67554 0.83079 0.46326 0.0
C2499 C 0.66317 0.80643 0.44004 0.0
H2500 H 0.68516 0.87088 0.46085 0.0
H2501 H 0.6833 0.83267 0.49951 0.0
S2502 S 0.63436 0.79288 0.31566 0.0
N2503 N 0.6454 0.82427 0.32413 0.0
N2504 N 0.64138 0.78258 0.36593 0.0
C2505 C 0.65345 0.80496 0.3924 0.0
C2506 C 0.65571 0.82747 0.36936 0.0
C2507 C 0.18829 0.84128 0.43416 0.0
C2508 C 0.18777 0.84996 0.48157 0.0
C2509 C 0.16608 0.81999 0.41379 0.0
C2510 C 0.14271 0.80702 0.44018 0.0
H2511 H 0.2054 0.85212 0.41156 0.0
H2512 H 0.16697 0.81422 0.37689 0.0
S2513 S 0.1326 0.82177 0.56756 0.0
N2514 N 0.16312 0.84364 0.55501 0.0
N2515 N 0.12126 0.80385 0.51815 0.0
C2516 C 0.14252 0.8152 0.48855 0.0
C2517 C 0.16513 0.83657 0.50896 0.0
C2518 C 0.17125 0.31802 0.43275 0.0
C2519 C 0.18068 0.33114 0.38816 0.0
C2520 C 0.15021 0.31782 0.45671 0.0
C2521 C 0.13785 0.33061 0.43665 0.0
H2522 H 0.18109 0.30901 0.45046 0.0
H2523 H 0.14361 0.30766 0.49096 0.0
S2524 S 0.15635 0.36876 0.32143 0.0
N2525 N 0.17698 0.35781 0.32587 0.0
N2526 N 0.13742 0.35754 0.36974 0.0
C2527 C 0.14739 0.34395 0.39205 0.0
C2528 C 0.16871 0.34406 0.36798 0.0
C2529 C 0.16041 0.31496 0.95936 0.0
C2530 C 0.18706 0.33304 0.96603 0.0
C2531 C 0.14608 0.31799 0.92225 0.0
C2532 C 0.15771 0.33949 0.89059 0.0
H2533 H 0.15079 0.29763 0.98182 0.0
H2534 H 0.12545 0.30391 0.91984 0.0
S2535 S 0.22668 0.39277 0.89256 0.0
N2536 N 0.22458 0.3733 0.93739 0.0
N2537 N 0.1972 0.37945 0.86873 0.0
C2538 C 0.18426 0.35786 0.89702 0.0
C2539 C 0.19896 0.35472 0.9347 0.0
C2540 C 0.64629 0.83792 0.93516 0.0
C2541 C 0.6638 0.84601 0.97439 0.0
C2542 C 0.6446 0.81908 0.90231 0.0
C2543 C 0.66059 0.80793 0.907 0.0
H2544 H 0.63457 0.84696 0.92858 0.0
H2545 H 0.63009 0.81257 0.87383 0.0
S2546 S 0.70867 0.82159 1.00499 0.0
N2547 N 0.69674 0.8409 1.01694 0.0
N2548 N 0.69366 0.8055 0.95536 0.0
C2549 C 0.67806 0.81576 0.94623 0.0
C2550 C 0.67951 0.83467 0.97995 0.0
C2551 C 0.15375 0.84077 0.9712 0.0
C2552 C 0.14481 0.81387 0.97558 0.0
C2553 C 0.17199 0.85606 0.93559 0.0
C2554 C 0.18188 0.84499 0.90263 0.0
H2555 H 0.14594 0.84989 0.99466 0.0
H2556 H 0.17912 0.87686 0.93521 0.0
S2557 S 0.16384 0.77539 0.89628 0.0
N2558 N 0.14658 0.77671 0.94211 0.0
N2559 N 0.18093 0.80556 0.87578 0.0
C2560 C 0.1728 0.81812 0.90612 0.0
C2561 C 0.15445 0.80258 0.94255 0.0
C2562 C 0.34583 0.18661 0.77076 0.0
C2563 C 0.32633 0.17605 0.73494 0.0
C2564 C 0.34811 0.17064 0.80551 0.0
C2565 C 0.33097 0.14349 0.80601 0.0
H2566 H 0.35888 0.2075 0.7732 0.0
H2567 H 0.3641 0.17947 0.83111 0.0
S2568 S 0.27642 0.10635 0.72003 0.0
N2569 N 0.28935 0.13703 0.7024 0.0
N2570 N 0.29379 0.10675 0.76718 0.0
C2571 C 0.31119 0.13272 0.77067 0.0
C2572 C 0.30898 0.14902 0.73514 0.0
C2573 C 0.85775 0.17381 0.7769 0.0
C2574 C 0.84635 0.183 0.81058 0.0
C2575 C 0.84253 0.1549 0.74227 0.0
C2576 C 0.81538 0.14464 0.73948 0.0
H2577 H 0.87872 0.18205 0.77585 0.0
H2578 H 0.85201 0.1478 0.71801 0.0
S2579 S 0.7759 0.16065 0.82237 0.0
N2580 N 0.80625 0.17949 0.84078 0.0
N2581 N 0.77754 0.14381 0.7761 0.0
C2582 C 0.80369 0.15327 0.7737 0.0
C2583 C 0.81917 0.17234 0.8092 0.0
C2584 C 0.8392 0.64718 0.76726 0.0
C2585 C 0.84771 0.66705 0.73216 0.0
C2586 C 0.82184 0.64493 0.80403 0.0
C2587 C 0.81242 0.66249 0.80741 0.0
H2588 H 0.84685 0.63395 0.76769 0.0
H2589 H 0.81489 0.62864 0.82898 0.0
S2590 S 0.82838 0.71754 0.72328 0.0
N2591 N 0.84519 0.70426 0.70235 0.0
N2592 N 0.81261 0.70016 0.7714 0.0
C2593 C 0.82081 0.68244 0.77242 0.0
C2594 C 0.83817 0.68447 0.73462 0.0
C2595 C 0.83041 0.65176 0.29447 0.0
C2596 C 0.85438 0.66213 0.27008 0.0
C2597 C 0.80895 0.65143 0.27221 0.0
C2598 C 0.81076 0.66112 0.22477 0.0
H2599 H 0.82834 0.6442 0.33096 0.0
H2600 H 0.79119 0.64474 0.29305 0.0
S2601 S 0.86836 0.68943 0.14445 0.0
N2602 N 0.87822 0.68203 0.19483 0.0
N2603 N 0.83754 0.6806 0.15398 0.0
C2604 C 0.83418 0.67088 0.19973 0.0
C2605 C 0.85613 0.67168 0.22221 0.0
C2606 C 0.35043 0.17808 0.29958 0.0
C2607 C 0.33219 0.18657 0.3047 0.0
C2608 C 0.34724 0.15957 0.26464 0.0
C2609 C 0.32557 0.14865 0.23343 0.0
H2610 H 0.3679 0.18661 0.32164 0.0
H2611 H 0.36139 0.15309 0.26347 0.0
S2612 S 0.27152 0.16312 0.23284 0.0
N2613 N 0.29126 0.18205 0.27595 0.0
N2614 N 0.28514 0.14685 0.21085 0.0
C2615 C 0.30699 0.15662 0.23856 0.0
C2616 C 0.31018 0.17546 0.27424 0.0
C2617 C 0.83956 0.19173 0.27195 0.0
C2618 C 0.84919 0.18057 0.23871 0.0
C2619 C 0.82088 0.17635 0.30676 0.0
C2620 C 0.81125 0.1493 0.30998 0.0
H2621 H 0.84725 0.21263 0.27244 0.0
H2622 H 0.8132 0.18555 0.33043 0.0
S2623 S 0.83002 0.11076 0.23034 0.0
N2624 N 0.84757 0.14102 0.21046 0.0
N2625 N 0.81261 0.11202 0.27597 0.0
C2626 C 0.82082 0.13796 0.27692 0.0
C2627 C 0.83954 0.15358 0.24109 0.0
loop_
_geom_bond_atom_site_label_1
_geom_bond_atom_site_label_2
_geom_bond_distance
_geom_bond_site_symmetry_2
_ccdc_geom_bond_type
Sm0 C2 2.846 . S
Sm0 O20 2.543 . S
Sm0 O21 2.450 . S
Sm0 O22 2.681 . S
Sm0 O23 2.464 . S
Sm0 O24 2.396 . S
Sm0 O28 2.386 . S
Sm0 O31 2.408 . S
Sm1 C11 2.846 1_554 S
Sm1 O22 2.386 . S
Sm1 O25 2.408 . S
Sm1 O26 2.543 1_554 S
Sm1 O27 2.450 1_554 S
Sm1 O28 2.681 . S
Sm1 O29 2.464 . S
Sm1 O30 2.396 . S
C2 Sm0 2.846 . S
C2 C3 1.506 . S
C2 O20 1.261 . S
C2 O21 1.242 . S
C3 C2 1.506 . S
C3 C4 1.358 . S
C3 C8 1.382 . S
C4 C3 1.358 . S
C4 C5 1.385 . S
C4 H32 0.930 . S
C5 C4 1.385 . S
C5 C6 1.395 . S
C5 H33 0.929 . S
C6 C5 1.395 . S
C6 C7 1.335 . S
C7 C6 1.335 . S
C7 C8 1.398 . S
C7 H34 0.930 . S
C8 C3 1.382 . S
C8 C7 1.398 . S
C8 H35 0.929 . S
C9 O22 1.271 . S
C9 O23 1.251 . S
C10 O24 1.252 . S
C10 O25 1.272 . S
C11 Sm1 2.846 1_556 S
C11 C12 1.506 . S
C11 O26 1.261 . S
C11 O27 1.242 . S
C12 C11 1.506 . S
C12 C13 1.358 . S
C12 C17 1.410 . S
C13 C12 1.358 . S
C13 C14 1.385 . S
C13 H36 0.930 . S
C14 C13 1.385 . S
C14 C15 1.395 . S
C14 H37 0.929 . S
C15 C14 1.395 . S
C15 C16 1.335 1_455 S
C16 C15 1.335 1_655 S
C16 C17 1.395 1_655 S
C16 H38 0.930 . S
C17 C12 1.410 . S
C17 C16 1.395 1_455 S
C17 H39 0.905 1_455 S
C18 O28 1.271 . S
C18 O29 1.251 . S
C19 O30 1.252 . S
C19 O31 1.272 . S
O20 Sm0 2.543 . S
O20 C2 1.261 . S
O21 Sm0 2.450 . S
O21 C2 1.242 . S
O22 Sm0 2.681 . S
O22 Sm1 2.386 . S
O22 C9 1.271 . S
O23 Sm0 2.464 . S
O23 C9 1.251 . S
O24 Sm0 2.396 . S
O24 C10 1.252 . S
O25 Sm1 2.408 . S
O25 C10 1.272 . S
O26 Sm1 2.543 1_556 S
O26 C11 1.261 . S
O27 Sm1 2.450 1_556 S
O27 C11 1.242 . S
O28 Sm0 2.386 . S
O28 Sm1 2.681 . S
O28 C18 1.271 . S
O29 Sm1 2.464 . S
O29 C18 1.251 . S
O30 Sm1 2.396 . S
O30 C19 1.252 . S
O31 Sm0 2.408 . S
O31 C19 1.272 . S
H32 C4 0.930 . S
H33 C5 0.929 . S
H34 C7 0.930 . S
H35 C8 0.929 . S
H36 C13 0.930 . S
H37 C14 0.929 . S
H38 C16 0.930 . S
H39 C17 0.905 1_655 S
Sm40 C42 2.846 . S
Sm40 O60 2.543 . S
Sm40 O61 2.450 . S
Sm40 O62 2.681 . S
Sm40 O63 2.464 . S
Sm40 O64 2.396 . S
Sm40 O68 2.386 . S
Sm40 O71 2.408 . S
Sm41 C51 2.846 1_554 S
Sm41 O62 2.386 . S
Sm41 O65 2.408 . S
Sm41 O66 2.543 1_554 S
Sm41 O67 2.450 1_554 S
Sm41 O68 2.681 . S
Sm41 O69 2.464 . S
Sm41 O70 2.396 . S
C42 Sm40 2.846 . S
C42 C43 1.506 . S
C42 O60 1.261 . S
C42 O61 1.242 . S
C43 C42 1.506 . S
C43 C44 1.358 . S
C43 C48 1.382 . S
C44 C43 1.358 . S
C44 C45 1.385 . S
C44 H72 0.930 . S
C45 C44 1.385 . S
C45 C46 1.395 . S
C45 H73 0.929 . S
C46 C45 1.395 . S
C46 C47 1.335 . S
C47 C46 1.335 . S
C47 C48 1.398 . S
C47 H74 0.930 . S
C48 C43 1.382 . S
C48 C47 1.398 . S
C48 H75 0.929 . S
C49 O62 1.271 . S
C49 O63 1.251 . S
C50 O64 1.252 . S
C50 O65 1.272 . S
C51 Sm41 2.846 1_556 S
C51 C52 1.506 . S
C51 O66 1.261 . S
C51 O67 1.242 . S
C52 C51 1.506 . S
C52 C53 1.358 . S
C52 C57 1.382 . S
C53 C52 1.358 . S
C53 C54 1.385 . S
C53 H76 0.930 . S
C54 C53 1.385 . S
C54 C55 1.395 . S
C54 H77 0.929 . S
C55 C54 1.395 . S
C55 C56 1.335 . S
C56 C55 1.335 . S
C56 C57 1.398 . S
C56 H78 0.930 . S
C57 C52 1.382 . S
C57 C56 1.398 . S
C57 H79 0.929 . S
C58 O68 1.271 . S
C58 O69 1.251 . S
C59 O70 1.252 . S
C59 O71 1.272 . S
O60 Sm40 2.543 . S
O60 C42 1.261 . S
O61 Sm40 2.450 . S
O61 C42 1.242 . S
O62 Sm40 2.681 . S
O62 Sm41 2.386 . S
O62 C49 1.271 . S
O63 Sm40 2.464 . S
O63 C49 1.251 . S
O64 Sm40 2.396 . S
O64 C50 1.252 . S
O65 Sm41 2.408 . S
O65 C50 1.272 . S
O66 Sm41 2.543 1_556 S
O66 C51 1.261 . S
O67 Sm41 2.450 1_556 S
O67 C51 1.242 . S
O68 Sm40 2.386 . S
O68 Sm41 2.681 . S
O68 C58 1.271 . S
O69 Sm41 2.464 . S
O69 C58 1.251 . S
O70 Sm41 2.396 . S
O70 C59 1.252 . S
O71 Sm40 2.408 . S
O71 C59 1.272 . S
H72 C44 0.930 . S
H73 C45 0.929 . S
H74 C47 0.930 . S
H75 C48 0.929 . S
H76 C53 0.930 . S
H77 C54 0.929 . S
H78 C56 0.930 . S
H79 C57 0.929 . S
Sm80 C82 2.846 . S
Sm80 O100 2.543 . S
Sm80 O101 2.450 . S
Sm80 O102 2.681 . S
Sm80 O103 2.464 . S
Sm80 O104 2.396 . S
Sm80 O108 2.386 . S
Sm80 O111 2.408 . S
Sm81 C91 2.846 1_554 S
Sm81 O102 2.386 . S
Sm81 O105 2.408 . S
Sm81 O106 2.543 1_554 S
Sm81 O107 2.450 1_554 S
Sm81 O108 2.681 . S
Sm81 O109 2.464 . S
Sm81 O110 2.396 . S
C82 Sm80 2.846 . S
C82 C83 1.506 . S
C82 O100 1.261 . S
C82 O101 1.242 . S
C83 C82 1.506 . S
C83 C84 1.358 . S
C83 C88 1.382 . S
C84 C83 1.358 . S
C84 C85 1.385 . S
C84 H112 0.930 . S
C85 C84 1.385 . S
C85 C86 1.395 . S
C85 H113 0.929 . S
C86 C85 1.395 . S
C86 C87 1.335 . S
C87 C86 1.335 . S
C87 C88 1.398 . S
C87 H114 0.930 . S
C88 C83 1.382 . S
C88 C87 1.398 . S
C88 H115 0.929 . S
C89 O102 1.271 . S
C89 O103 1.251 . S
C90 O104 1.252 . S
C90 O105 1.272 . S
C91 Sm81 2.846 1_556 S
C91 C92 1.506 . S
C91 O106 1.261 . S
C91 O107 1.242 . S
C92 C91 1.506 . S
C92 C93 1.358 . S
C92 C97 1.403 . S
C93 C92 1.358 . S
C93 C94 1.385 . S
C93 H116 0.930 . S
C94 C93 1.385 . S
C94 C95 1.395 . S
C94 H117 0.929 . S
C95 C94 1.395 . S
C95 C96 1.335 1_565 S
C96 C95 1.335 1_545 S
C96 C97 1.388 1_545 S
C96 H118 0.930 . S
C97 C92 1.403 . S
C97 C96 1.388 1_565 S
C97 H119 0.919 1_565 S
C98 O108 1.271 . S
C98 O109 1.251 . S
C99 O110 1.252 . S
C99 O111 1.272 . S
O100 Sm80 2.543 . S
O100 C82 1.261 . S
O101 Sm80 2.450 . S
O101 C82 1.242 . S
O102 Sm80 2.681 . S
O102 Sm81 2.386 . S
O102 C89 1.271 . S
O103 Sm80 2.464 . S
O103 C89 1.251 . S
O104 Sm80 2.396 . S
O104 C90 1.252 . S
O105 Sm81 2.408 . S
O105 C90 1.272 . S
O106 Sm81 2.543 1_556 S
O106 C91 1.261 . S
O107 Sm81 2.450 1_556 S
O107 C91 1.242 . S
O108 Sm80 2.386 . S
O108 Sm81 2.681 . S
O108 C98 1.271 . S
O109 Sm81 2.464 . S
O109 C98 1.251 . S
O110 Sm81 2.396 . S
O110 C99 1.252 . S
O111 Sm80 2.408 . S
O111 C99 1.272 . S
H112 C84 0.930 . S
H113 C85 0.929 . S
H114 C87 0.930 . S
H115 C88 0.929 . S
H116 C93 0.930 . S
H117 C94 0.929 . S
H118 C96 0.930 . S
H119 C97 0.919 1_545 S
Sm120 C122 2.846 . S
Sm120 O140 2.543 . S
Sm120 O141 2.450 . S
Sm120 O142 2.681 . S
Sm120 O143 2.464 . S
Sm120 O144 2.396 . S
Sm120 O148 2.386 . S
Sm120 O151 2.408 . S
Sm121 C131 2.846 . S
Sm121 O142 2.386 . S
Sm121 O145 2.408 . S
Sm121 O146 2.543 . S
Sm121 O147 2.450 . S
Sm121 O148 2.681 . S
Sm121 O149 2.464 . S
Sm121 O150 2.396 . S
C122 Sm120 2.846 . S
C122 C123 1.506 . S
C122 O140 1.261 . S
C122 O141 1.242 . S
C123 C122 1.506 . S
C123 C124 1.358 . S
C123 C128 1.382 . S
C124 C123 1.358 . S
C124 C125 1.385 . S
C124 H152 0.930 . S
C125 C124 1.385 . S
C125 C126 1.395 . S
C125 H153 0.929 . S
C126 C125 1.395 . S
C126 C127 1.335 . S
C127 C126 1.335 . S
C127 C128 1.398 . S
C127 H154 0.930 . S
C128 C123 1.382 . S
C128 C127 1.398 . S
C128 H155 0.929 . S
C129 O142 1.271 . S
C129 O143 1.251 . S
C130 O144 1.252 . S
C130 O145 1.272 . S
C131 Sm121 2.846 . S
C131 C132 1.506 . S
C131 O146 1.261 . S
C131 O147 1.242 . S
C132 C131 1.506 . S
C132 C133 1.358 . S
C132 C137 1.414 . S
C133 C132 1.358 . S
C133 C134 1.385 . S
C133 H156 0.930 . S
C134 C133 1.385 . S
C134 C135 1.395 . S
C134 H157 0.929 . S
C135 C134 1.395 . S
C135 C136 1.335 1_545 S
C136 C135 1.335 1_565 S
C136 C137 1.395 1_565 S
C136 H158 0.930 . S
C137 C132 1.414 . S
C137 C136 1.395 1_545 S
C137 H159 0.901 1_545 S
C138 O148 1.271 . S
C138 O149 1.251 . S
C139 O150 1.252 . S
C139 O151 1.272 . S
O140 Sm120 2.543 . S
O140 C122 1.261 . S
O141 Sm120 2.450 . S
O141 C122 1.242 . S
O142 Sm120 2.681 . S
O142 Sm121 2.386 . S
O142 C129 1.271 . S
O143 Sm120 2.464 . S
O143 C129 1.251 . S
O144 Sm120 2.396 . S
O144 C130 1.252 . S
O145 Sm121 2.408 . S
O145 C130 1.272 . S
O146 Sm121 2.543 . S
O146 C131 1.261 . S
O147 Sm121 2.450 . S
O147 C131 1.242 . S
O148 Sm120 2.386 . S
O148 Sm121 2.681 . S
O148 C138 1.271 . S
O149 Sm121 2.464 . S
O149 C138 1.251 . S
O150 Sm121 2.396 . S
O150 C139 1.252 . S
O151 Sm120 2.408 . S
O151 C139 1.272 . S
H152 C124 0.930 . S
H153 C125 0.929 . S
H154 C127 0.930 . S
H155 C128 0.929 . S
H156 C133 0.930 . S
H157 C134 0.929 . S
H158 C136 0.930 . S
H159 C137 0.901 1_565 S
Sm160 C162 2.846 . S
Sm160 O180 2.543 . S
Sm160 O181 2.450 . S
Sm160 O182 2.681 . S
Sm160 O183 2.464 . S
Sm160 O184 2.396 . S
Sm160 O188 2.386 . S
Sm160 O191 2.408 . S
Sm161 C171 2.846 . S
Sm161 O182 2.386 . S
Sm161 O185 2.408 . S
Sm161 O186 2.543 . S
Sm161 O187 2.450 . S
Sm161 O188 2.681 . S
Sm161 O189 2.464 . S
Sm161 O190 2.396 . S
C162 Sm160 2.846 . S
C162 C163 1.506 . S
C162 O180 1.261 . S
C162 O181 1.242 . S
C163 C162 1.506 . S
C163 C164 1.358 . S
C163 C168 1.382 . S
C164 C163 1.358 . S
C164 C165 1.385 . S
C164 H192 0.930 . S
C165 C164 1.385 . S
C165 C166 1.395 . S
C165 H193 0.929 . S
C166 C165 1.395 . S
C166 C167 1.335 . S
C167 C166 1.335 . S
C167 C168 1.398 . S
C167 H194 0.930 . S
C168 C163 1.382 . S
C168 C167 1.398 . S
C168 H195 0.929 . S
C169 O182 1.271 . S
C169 O183 1.251 . S
C170 O184 1.252 . S
C170 O185 1.272 . S
C171 Sm161 2.846 . S
C171 C172 1.506 . S
C171 O186 1.261 . S
C171 O187 1.242 . S
C172 C171 1.506 . S
C172 C173 1.358 . S
C172 C177 1.405 . S
C173 C172 1.358 . S
C173 C174 1.385 . S
C173 H196 0.930 . S
C174 C173 1.385 . S
C174 C175 1.395 . S
C174 H197 0.929 . S
C175 C174 1.395 . S
C175 C176 1.335 1_655 S
C176 C175 1.335 1_455 S
C176 C177 1.387 1_455 S
C176 H198 0.930 . S
C177 C172 1.405 . S
C177 C176 1.387 1_655 S
C177 H199 0.918 1_655 S
C178 O188 1.271 . S
C178 O189 1.251 . S
C179 O190 1.252 . S
C179 O191 1.272 . S
O180 Sm160 2.543 . S
O180 C162 1.261 . S
O181 Sm160 2.450 . S
O181 C162 1.242 . S
O182 Sm160 2.681 . S
O182 Sm161 2.386 . S
O182 C169 1.271 . S
O183 Sm160 2.464 . S
O183 C169 1.251 . S
O184 Sm160 2.396 . S
O184 C170 1.252 . S
O185 Sm161 2.408 . S
O185 C170 1.272 . S
O186 Sm161 2.543 . S
O186 C171 1.261 . S
O187 Sm161 2.450 . S
O187 C171 1.242 . S
O188 Sm160 2.386 . S
O188 Sm161 2.681 . S
O188 C178 1.271 . S
O189 Sm161 2.464 . S
O189 C178 1.251 . S
O190 Sm161 2.396 . S
O190 C179 1.252 . S
O191 Sm160 2.408 . S
O191 C179 1.272 . S
H192 C164 0.930 . S
H193 C165 0.929 . S
H194 C167 0.930 . S
H195 C168 0.929 . S
H196 C173 0.930 . S
H197 C174 0.929 . S
H198 C176 0.930 . S
H199 C177 0.918 1_455 S
Sm200 C202 2.846 . S
Sm200 O220 2.543 . S
Sm200 O221 2.450 . S
Sm200 O222 2.681 . S
Sm200 O223 2.464 . S
Sm200 O224 2.396 . S
Sm200 O228 2.386 . S
Sm200 O231 2.408 . S
Sm201 C211 2.846 . S
Sm201 O222 2.386 . S
Sm201 O225 2.408 . S
Sm201 O226 2.543 . S
Sm201 O227 2.450 . S
Sm201 O228 2.681 . S
Sm201 O229 2.464 . S
Sm201 O230 2.396 . S
C202 Sm200 2.846 . S
C202 C203 1.506 . S
C202 O220 1.261 . S
C202 O221 1.242 . S
C203 C202 1.506 . S
C203 C204 1.358 . S
C203 C208 1.382 . S
C204 C203 1.358 . S
C204 C205 1.385 . S
C204 H232 0.930 . S
C205 C204 1.385 . S
C205 C206 1.395 . S
C205 H233 0.929 . S
C206 C205 1.395 . S
C206 C207 1.335 . S
C207 C206 1.335 . S
C207 C208 1.398 . S
C207 H234 0.930 . S
C208 C203 1.382 . S
C208 C207 1.398 . S
C208 H235 0.929 . S
C209 O222 1.271 . S
C209 O223 1.251 . S
C210 O224 1.252 . S
C210 O225 1.272 . S
C211 Sm201 2.846 . S
C211 C212 1.506 . S
C211 O226 1.261 . S
C211 O227 1.242 . S
C212 C211 1.506 . S
C212 C213 1.358 . S
C212 C217 1.382 . S
C213 C212 1.358 . S
C213 C214 1.385 . S
C213 H236 0.930 . S
C214 C213 1.385 . S
C214 C215 1.395 . S
C214 H237 0.929 . S
C215 C214 1.395 . S
C215 C216 1.335 . S
C216 C215 1.335 . S
C216 C217 1.398 . S
C216 H238 0.930 . S
C217 C212 1.382 . S
C217 C216 1.398 . S
C217 H239 0.929 . S
C218 O228 1.271 . S
C218 O229 1.251 . S
C219 O230 1.252 . S
C219 O231 1.272 . S
O220 Sm200 2.543 . S
O220 C202 1.261 . S
O221 Sm200 2.450 . S
O221 C202 1.242 . S
O222 Sm200 2.681 . S
O222 Sm201 2.386 . S
O222 C209 1.271 . S
O223 Sm200 2.464 . S
O223 C209 1.251 . S
O224 Sm200 2.396 . S
O224 C210 1.252 . S
O225 Sm201 2.408 . S
O225 C210 1.272 . S
O226 Sm201 2.543 . S
O226 C211 1.261 . S
O227 Sm201 2.450 . S
O227 C211 1.242 . S
O228 Sm200 2.386 . S
O228 Sm201 2.681 . S
O228 C218 1.271 . S
O229 Sm201 2.464 . S
O229 C218 1.251 . S
O230 Sm201 2.396 . S
O230 C219 1.252 . S
O231 Sm200 2.408 . S
O231 C219 1.272 . S
H232 C204 0.930 . S
H233 C205 0.929 . S
H234 C207 0.930 . S
H235 C208 0.929 . S
H236 C213 0.930 . S
H237 C214 0.929 . S
H238 C216 0.930 . S
H239 C217 0.929 . S
Sm240 C242 2.846 . S
Sm240 O260 2.543 . S
Sm240 O261 2.450 . S
Sm240 O262 2.681 1_554 S
Sm240 O263 2.464 . S
Sm240 O264 2.396 . S
Sm240 O268 2.386 . S
Sm240 O271 2.408 1_554 S
Sm241 C251 2.846 . S
Sm241 O262 2.386 . S
Sm241 O265 2.408 1_556 S
Sm241 O266 2.543 . S
Sm241 O267 2.450 . S
Sm241 O268 2.681 1_556 S
Sm241 O269 2.464 . S
Sm241 O270 2.396 . S
C242 Sm240 2.846 . S
C242 C243 1.506 . S
C242 O260 1.261 . S
C242 O261 1.242 . S
C243 C242 1.506 . S
C243 C244 1.358 . S
C243 C248 1.417 . S
C244 C243 1.358 . S
C244 C245 1.385 . S
C244 H272 0.930 . S
C245 C244 1.385 . S
C245 C246 1.395 . S
C245 H273 0.929 . S
C246 C245 1.395 . S
C246 C247 1.335 1_655 S
C247 C246 1.335 1_455 S
C247 C248 1.395 1_455 S
C247 H274 0.930 . S
C248 C243 1.417 . S
C248 C247 1.395 1_655 S
C248 H275 0.899 1_655 S
C249 O262 1.271 1_554 S
C249 O263 1.251 . S
C250 O264 1.252 . S
C250 O265 1.272 . S
C251 Sm241 2.846 . S
C251 C252 1.506 . S
C251 O266 1.261 . S
C251 O267 1.242 . S
C252 C251 1.506 . S
C252 C253 1.358 . S
C252 C257 1.382 . S
C253 C252 1.358 . S
C253 C254 1.385 . S
C253 H276 0.930 . S
C254 C253 1.385 . S
C254 C255 1.395 . S
C254 H277 0.929 . S
C255 C254 1.395 . S
C255 C256 1.335 . S
C256 C255 1.335 . S
C256 C257 1.398 . S
C256 H278 0.930 . S
C257 C252 1.382 . S
C257 C256 1.398 . S
C257 H279 0.929 . S
C258 O268 1.271 . S
C258 O269 1.251 1_554 S
C259 O270 1.252 . S
C259 O271 1.272 . S
O260 Sm240 2.543 . S
O260 C242 1.261 . S
O261 Sm240 2.450 . S
O261 C242 1.242 . S
O262 Sm240 2.681 1_556 S
O262 Sm241 2.386 . S
O262 C249 1.271 1_556 S
O263 Sm240 2.464 . S
O263 C249 1.251 . S
O264 Sm240 2.396 . S
O264 C250 1.252 . S
O265 Sm241 2.408 1_554 S
O265 C250 1.272 . S
O266 Sm241 2.543 . S
O266 C251 1.261 . S
O267 Sm241 2.450 . S
O267 C251 1.242 . S
O268 Sm240 2.386 . S
O268 Sm241 2.681 1_554 S
O268 C258 1.271 . S
O269 Sm241 2.464 . S
O269 C258 1.251 1_556 S
O270 Sm241 2.396 . S
O270 C259 1.252 . S
O271 Sm240 2.408 1_556 S
O271 C259 1.272 . S
H272 C244 0.930 . S
H273 C245 0.929 . S
H274 C247 0.930 . S
H275 C248 0.899 1_455 S
H276 C253 0.930 . S
H277 C254 0.929 . S
H278 C256 0.930 . S
H279 C257 0.929 . S
Sm280 C282 2.846 . S
Sm280 O300 2.543 . S
Sm280 O301 2.450 . S
Sm280 O302 2.681 1_554 S
Sm280 O303 2.464 . S
Sm280 O304 2.396 . S
Sm280 O308 2.386 . S
Sm280 O311 2.408 1_554 S
Sm281 C291 2.846 . S
Sm281 O302 2.386 . S
Sm281 O305 2.408 1_556 S
Sm281 O306 2.543 . S
Sm281 O307 2.450 . S
Sm281 O308 2.681 1_556 S
Sm281 O309 2.464 . S
Sm281 O310 2.396 . S
C282 Sm280 2.846 . S
C282 C283 1.506 . S
C282 O300 1.261 . S
C282 O301 1.242 . S
C283 C282 1.506 . S
C283 C284 1.358 . S
C283 C288 1.382 . S
C284 C283 1.358 . S
C284 C285 1.385 . S
C284 H312 0.930 . S
C285 C284 1.385 . S
C285 C286 1.395 . S
C285 H313 0.929 . S
C286 C285 1.395 . S
C286 C287 1.335 . S
C287 C286 1.335 . S
C287 C288 1.398 . S
C287 H314 0.930 . S
C288 C283 1.382 . S
C288 C287 1.398 . S
C288 H315 0.929 . S
C289 O302 1.271 1_554 S
C289 O303 1.251 . S
C290 O304 1.252 . S
C290 O305 1.272 . S
C291 Sm281 2.846 . S
C291 C292 1.506 . S
C291 O306 1.261 . S
C291 O307 1.242 . S
C292 C291 1.506 . S
C292 C293 1.358 . S
C292 C297 1.382 . S
C293 C292 1.358 . S
C293 C294 1.385 . S
C293 H316 0.930 . S
C294 C293 1.385 . S
C294 C295 1.395 . S
C294 H317 0.929 . S
C295 C294 1.395 . S
C295 C296 1.335 . S
C296 C295 1.335 . S
C296 C297 1.398 . S
C296 H318 0.930 . S
C297 C292 1.382 . S
C297 C296 1.398 . S
C297 H319 0.929 . S
C298 O308 1.271 . S
C298 O309 1.251 1_554 S
C299 O310 1.252 . S
C299 O311 1.272 . S
O300 Sm280 2.543 . S
O300 C282 1.261 . S
O301 Sm280 2.450 . S
O301 C282 1.242 . S
O302 Sm280 2.681 1_556 S
O302 Sm281 2.386 . S
O302 C289 1.271 1_556 S
O303 Sm280 2.464 . S
O303 C289 1.251 . S
O304 Sm280 2.396 . S
O304 C290 1.252 . S
O305 Sm281 2.408 1_554 S
O305 C290 1.272 . S
O306 Sm281 2.543 . S
O306 C291 1.261 . S
O307 Sm281 2.450 . S
O307 C291 1.242 . S
O308 Sm280 2.386 . S
O308 Sm281 2.681 1_554 S
O308 C298 1.271 . S
O309 Sm281 2.464 . S
O309 C298 1.251 1_556 S
O310 Sm281 2.396 . S
O310 C299 1.252 . S
O311 Sm280 2.408 1_556 S
O311 C299 1.272 . S
H312 C284 0.930 . S
H313 C285 0.929 . S
H314 C287 0.930 . S
H315 C288 0.929 . S
H316 C293 0.930 . S
H317 C294 0.929 . S
H318 C296 0.930 . S
H319 C297 0.929 . S
Sm320 C322 2.846 . S
Sm320 O340 2.543 . S
Sm320 O341 2.450 . S
Sm320 O342 2.681 1_554 S
Sm320 O343 2.464 . S
Sm320 O344 2.396 . S
Sm320 O348 2.386 . S
Sm320 O351 2.408 1_554 S
Sm321 C331 2.846 . S
Sm321 O342 2.386 . S
Sm321 O345 2.408 1_556 S
Sm321 O346 2.543 . S
Sm321 O347 2.450 . S
Sm321 O348 2.681 1_556 S
Sm321 O349 2.464 . S
Sm321 O350 2.396 . S
C322 Sm320 2.846 . S
C322 C323 1.506 . S
C322 O340 1.261 . S
C322 O341 1.242 . S
C323 C322 1.506 . S
C323 C324 1.358 . S
C323 C328 1.403 . S
C324 C323 1.358 . S
C324 C325 1.385 . S
C324 H352 0.930 . S
C325 C324 1.385 . S
C325 C326 1.395 . S
C325 H353 0.929 . S
C326 C325 1.395 . S
C326 C327 1.335 1_545 S
C327 C326 1.335 1_565 S
C327 C328 1.388 1_565 S
C327 H354 0.930 . S
C328 C323 1.403 . S
C328 C327 1.388 1_545 S
C328 H355 0.919 1_545 S
C329 O342 1.271 1_554 S
C329 O343 1.251 . S
C330 O344 1.252 . S
C330 O345 1.272 . S
C331 Sm321 2.846 . S
C331 C332 1.506 . S
C331 O346 1.261 . S
C331 O347 1.242 . S
C332 C331 1.506 . S
C332 C333 1.358 . S
C332 C337 1.382 . S
C333 C332 1.358 . S
C333 C334 1.385 . S
C333 H356 0.930 . S
C334 C333 1.385 . S
C334 C335 1.395 . S
C334 H357 0.929 . S
C335 C334 1.395 . S
C335 C336 1.335 . S
C336 C335 1.335 . S
C336 C337 1.398 . S
C336 H358 0.930 . S
C337 C332 1.382 . S
C337 C336 1.398 . S
C337 H359 0.929 . S
C338 O348 1.271 . S
C338 O349 1.251 1_554 S
C339 O350 1.252 . S
C339 O351 1.272 . S
O340 Sm320 2.543 . S
O340 C322 1.261 . S
O341 Sm320 2.450 . S
O341 C322 1.242 . S
O342 Sm320 2.681 1_556 S
O342 Sm321 2.386 . S
O342 C329 1.271 1_556 S
O343 Sm320 2.464 . S
O343 C329 1.251 . S
O344 Sm320 2.396 . S
O344 C330 1.252 . S
O345 Sm321 2.408 1_554 S
O345 C330 1.272 . S
O346 Sm321 2.543 . S
O346 C331 1.261 . S
O347 Sm321 2.450 . S
O347 C331 1.242 . S
O348 Sm320 2.386 . S
O348 Sm321 2.681 1_554 S
O348 C338 1.271 . S
O349 Sm321 2.464 . S
O349 C338 1.251 1_556 S
O350 Sm321 2.396 . S
O350 C339 1.252 . S
O351 Sm320 2.408 1_556 S
O351 C339 1.272 . S
H352 C324 0.930 . S
H353 C325 0.929 . S
H354 C327 0.930 . S
H355 C328 0.919 1_565 S
H356 C333 0.930 . S
H357 C334 0.929 . S
H358 C336 0.930 . S
H359 C337 0.929 . S
Sm360 C362 2.846 . S
Sm360 O380 2.543 . S
Sm360 O381 2.450 . S
Sm360 O382 2.681 . S
Sm360 O383 2.464 . S
Sm360 O384 2.396 . S
Sm360 O388 2.386 . S
Sm360 O391 2.408 . S
Sm361 C371 2.846 . S
Sm361 O382 2.386 . S
Sm361 O385 2.408 . S
Sm361 O386 2.543 . S
Sm361 O387 2.450 . S
Sm361 O388 2.681 . S
Sm361 O389 2.464 . S
Sm361 O390 2.396 . S
C362 Sm360 2.846 . S
C362 C363 1.506 . S
C362 O380 1.261 . S
C362 O381 1.242 . S
C363 C362 1.506 . S
C363 C364 1.358 . S
C363 C368 1.414 . S
C364 C363 1.358 . S
C364 C365 1.385 . S
C364 H392 0.930 . S
C365 C364 1.385 . S
C365 C366 1.395 . S
C365 H393 0.929 . S
C366 C365 1.395 . S
C366 C367 1.335 1_565 S
C367 C366 1.335 1_545 S
C367 C368 1.395 1_545 S
C367 H394 0.930 . S
C368 C363 1.414 . S
C368 C367 1.395 1_565 S
C368 H395 0.901 1_565 S
C369 O382 1.271 . S
C369 O383 1.251 . S
C370 O384 1.252 . S
C370 O385 1.272 . S
C371 Sm361 2.846 . S
C371 C372 1.506 . S
C371 O386 1.261 . S
C371 O387 1.242 . S
C372 C371 1.506 . S
C372 C373 1.358 . S
C372 C377 1.382 . S
C373 C372 1.358 . S
C373 C374 1.385 . S
C373 H396 0.930 . S
C374 C373 1.385 . S
C374 C375 1.395 . S
C374 H397 0.929 . S
C375 C374 1.395 . S
C375 C376 1.335 . S
C376 C375 1.335 . S
C376 C377 1.398 . S
C376 H398 0.930 . S
C377 C372 1.382 . S
C377 C376 1.398 . S
C377 H399 0.929 . S
C378 O388 1.271 . S
C378 O389 1.251 . S
C379 O390 1.252 . S
C379 O391 1.272 . S
O380 Sm360 2.543 . S
O380 C362 1.261 . S
O381 Sm360 2.450 . S
O381 C362 1.242 . S
O382 Sm360 2.681 . S
O382 Sm361 2.386 . S
O382 C369 1.271 . S
O383 Sm360 2.464 . S
O383 C369 1.251 . S
O384 Sm360 2.396 . S
O384 C370 1.252 . S
O385 Sm361 2.408 . S
O385 C370 1.272 . S
O386 Sm361 2.543 . S
O386 C371 1.261 . S
O387 Sm361 2.450 . S
O387 C371 1.242 . S
O388 Sm360 2.386 . S
O388 Sm361 2.681 . S
O388 C378 1.271 . S
O389 Sm361 2.464 . S
O389 C378 1.251 . S
O390 Sm361 2.396 . S
O390 C379 1.252 . S
O391 Sm360 2.408 . S
O391 C379 1.272 . S
H392 C364 0.930 . S
H393 C365 0.929 . S
H394 C367 0.930 . S
H395 C368 0.901 1_545 S
H396 C373 0.930 . S
H397 C374 0.929 . S
H398 C376 0.930 . S
H399 C377 0.929 . S
Sm400 C402 2.846 . S
Sm400 O420 2.543 . S
Sm400 O421 2.450 . S
Sm400 O422 2.681 . S
Sm400 O423 2.464 . S
Sm400 O424 2.396 . S
Sm400 O428 2.386 . S
Sm400 O431 2.408 . S
Sm401 C411 2.846 . S
Sm401 O422 2.386 . S
Sm401 O425 2.408 . S
Sm401 O426 2.543 . S
Sm401 O427 2.450 . S
Sm401 O428 2.681 . S
Sm401 O429 2.464 . S
Sm401 O430 2.396 . S
C402 Sm400 2.846 . S
C402 C403 1.506 . S
C402 O420 1.261 . S
C402 O421 1.242 . S
C403 C402 1.506 . S
C403 C404 1.358 . S
C403 C408 1.401 . S
C404 C403 1.358 . S
C404 C405 1.385 . S
C404 H432 0.930 . S
C405 C404 1.385 . S
C405 C406 1.395 . S
C405 H433 0.929 . S
C406 C405 1.395 . S
C406 C407 1.335 1_455 S
C407 C406 1.335 1_655 S
C407 C408 1.389 1_655 S
C407 H434 0.930 . S
C408 C403 1.401 . S
C408 C407 1.389 1_455 S
C408 H435 0.920 1_455 S
C409 O422 1.271 . S
C409 O423 1.251 . S
C410 O424 1.252 . S
C410 O425 1.272 . S
C411 Sm401 2.846 . S
C411 C412 1.506 . S
C411 O426 1.261 . S
C411 O427 1.242 . S
C412 C411 1.506 . S
C412 C413 1.358 . S
C412 C417 1.382 . S
C413 C412 1.358 . S
C413 C414 1.385 . S
C413 H436 0.930 . S
C414 C413 1.385 . S
C414 C415 1.395 . S
C414 H437 0.929 . S
C415 C414 1.395 . S
C415 C416 1.335 . S
C416 C415 1.335 . S
C416 C417 1.398 . S
C416 H438 0.930 . S
C417 C412 1.382 . S
C417 C416 1.398 . S
C417 H439 0.929 . S
C418 O428 1.271 . S
C418 O429 1.251 . S
C419 O430 1.252 . S
C419 O431 1.272 . S
O420 Sm400 2.543 . S
O420 C402 1.261 . S
O421 Sm400 2.450 . S
O421 C402 1.242 . S
O422 Sm400 2.681 . S
O422 Sm401 2.386 . S
O422 C409 1.271 . S
O423 Sm400 2.464 . S
O423 C409 1.251 . S
O424 Sm400 2.396 . S
O424 C410 1.252 . S
O425 Sm401 2.408 . S
O425 C410 1.272 . S
O426 Sm401 2.543 . S
O426 C411 1.261 . S
O427 Sm401 2.450 . S
O427 C411 1.242 . S
O428 Sm400 2.386 . S
O428 Sm401 2.681 . S
O428 C418 1.271 . S
O429 Sm401 2.464 . S
O429 C418 1.251 . S
O430 Sm401 2.396 . S
O430 C419 1.252 . S
O431 Sm400 2.408 . S
O431 C419 1.272 . S
H432 C404 0.930 . S
H433 C405 0.929 . S
H434 C407 0.930 . S
H435 C408 0.920 1_655 S
H436 C413 0.930 . S
H437 C414 0.929 . S
H438 C416 0.930 . S
H439 C417 0.929 . S
Sm440 C442 2.846 . S
Sm440 O460 2.543 . S
Sm440 O461 2.450 . S
Sm440 O462 2.681 . S
Sm440 O463 2.464 . S
Sm440 O464 2.396 . S
Sm440 O468 2.386 . S
Sm440 O471 2.408 . S
Sm441 C451 2.846 . S
Sm441 O462 2.386 . S
Sm441 O465 2.408 . S
Sm441 O466 2.543 . S
Sm441 O467 2.450 . S
Sm441 O468 2.681 . S
Sm441 O469 2.464 . S
Sm441 O470 2.396 . S
C442 Sm440 2.846 . S
C442 C443 1.506 . S
C442 O460 1.261 . S
C442 O461 1.242 . S
C443 C442 1.506 . S
C443 C444 1.358 . S
C443 C448 1.382 . S
C444 C443 1.358 . S
C444 C445 1.385 . S
C444 H472 0.930 . S
C445 C444 1.385 . S
C445 C446 1.395 . S
C445 H473 0.929 . S
C446 C445 1.395 . S
C446 C447 1.335 . S
C447 C446 1.335 . S
C447 C448 1.398 . S
C447 H474 0.930 . S
C448 C443 1.382 . S
C448 C447 1.398 . S
C448 H475 0.929 . S
C449 O462 1.271 . S
C449 O463 1.251 . S
C450 O464 1.252 . S
C450 O465 1.272 . S
C451 Sm441 2.846 . S
C451 C452 1.506 . S
C451 O466 1.261 . S
C451 O467 1.242 . S
C452 C451 1.506 . S
C452 C453 1.358 . S
C452 C457 1.382 . S
C453 C452 1.358 . S
C453 C454 1.385 . S
C453 H476 0.930 . S
C454 C453 1.385 . S
C454 C455 1.395 . S
C454 H477 0.929 . S
C455 C454 1.395 . S
C455 C456 1.335 . S
C456 C455 1.335 . S
C456 C457 1.398 . S
C456 H478 0.930 . S
C457 C452 1.382 . S
C457 C456 1.398 . S
C457 H479 0.929 . S
C458 O468 1.271 . S
C458 O469 1.251 . S
C459 O470 1.252 . S
C459 O471 1.272 . S
O460 Sm440 2.543 . S
O460 C442 1.261 . S
O461 Sm440 2.450 . S
O461 C442 1.242 . S
O462 Sm440 2.681 . S
O462 Sm441 2.386 . S
O462 C449 1.271 . S
O463 Sm440 2.464 . S
O463 C449 1.251 . S
O464 Sm440 2.396 . S
O464 C450 1.252 . S
O465 Sm441 2.408 . S
O465 C450 1.272 . S
O466 Sm441 2.543 . S
O466 C451 1.261 . S
O467 Sm441 2.450 . S
O467 C451 1.242 . S
O468 Sm440 2.386 . S
O468 Sm441 2.681 . S
O468 C458 1.271 . S
O469 Sm441 2.464 . S
O469 C458 1.251 . S
O470 Sm441 2.396 . S
O470 C459 1.252 . S
O471 Sm440 2.408 . S
O471 C459 1.272 . S
H472 C444 0.930 . S
H473 C445 0.929 . S
H474 C447 0.930 . S
H475 C448 0.929 . S
H476 C453 0.930 . S
H477 C454 0.929 . S
H478 C456 0.930 . S
H479 C457 0.929 . S
Sm480 C482 2.846 . S
Sm480 O500 2.543 . S
Sm480 O501 2.450 . S
Sm480 O502 2.681 . S
Sm480 O503 2.464 . S
Sm480 O504 2.396 . S
Sm480 O508 2.386 . S
Sm480 O511 2.408 . S
Sm481 C491 2.846 . S
Sm481 O502 2.386 . S
Sm481 O505 2.408 . S
Sm481 O506 2.543 . S
Sm481 O507 2.450 . S
Sm481 O508 2.681 . S
Sm481 O509 2.464 . S
Sm481 O510 2.396 . S
C482 Sm480 2.846 . S
C482 C483 1.506 . S
C482 O500 1.261 . S
C482 O501 1.242 . S
C483 C482 1.506 . S
C483 C484 1.358 . S
C483 C488 1.382 . S
C484 C483 1.358 . S
C484 C485 1.385 . S
C484 H512 0.930 . S
C485 C484 1.385 . S
C485 C486 1.395 . S
C485 H513 0.929 . S
C486 C485 1.395 . S
C486 C487 1.335 . S
C487 C486 1.335 . S
C487 C488 1.398 . S
C487 H514 0.930 . S
C488 C483 1.382 . S
C488 C487 1.398 . S
C488 H515 0.929 . S
C489 O502 1.271 . S
C489 O503 1.251 . S
C490 O504 1.252 . S
C490 O505 1.272 . S
C491 Sm481 2.846 . S
C491 C492 1.506 . S
C491 O506 1.261 . S
C491 O507 1.242 . S
C492 C491 1.506 . S
C492 C493 1.358 . S
C492 C497 1.382 . S
C493 C492 1.358 . S
C493 C494 1.385 . S
C493 H516 0.930 . S
C494 C493 1.385 . S
C494 C495 1.395 . S
C494 H517 0.929 . S
C495 C494 1.395 . S
C495 C496 1.335 . S
C496 C495 1.335 . S
C496 C497 1.398 . S
C496 H518 0.930 . S
C497 C492 1.382 . S
C497 C496 1.398 . S
C497 H519 0.929 . S
C498 O508 1.271 . S
C498 O509 1.251 . S
C499 O510 1.252 . S
C499 O511 1.272 . S
O500 Sm480 2.543 . S
O500 C482 1.261 . S
O501 Sm480 2.450 . S
O501 C482 1.242 . S
O502 Sm480 2.681 . S
O502 Sm481 2.386 . S
O502 C489 1.271 . S
O503 Sm480 2.464 . S
O503 C489 1.251 . S
O504 Sm480 2.396 . S
O504 C490 1.252 . S
O505 Sm481 2.408 . S
O505 C490 1.272 . S
O506 Sm481 2.543 . S
O506 C491 1.261 . S
O507 Sm481 2.450 . S
O507 C491 1.242 . S
O508 Sm480 2.386 . S
O508 Sm481 2.681 . S
O508 C498 1.271 . S
O509 Sm481 2.464 . S
O509 C498 1.251 . S
O510 Sm481 2.396 . S
O510 C499 1.252 . S
O511 Sm480 2.408 . S
O511 C499 1.272 . S
H512 C484 0.930 . S
H513 C485 0.929 . S
H514 C487 0.930 . S
H515 C488 0.929 . S
H516 C493 0.930 . S
H517 C494 0.929 . S
H518 C496 0.930 . S
H519 C497 0.929 . S
Sm520 C522 2.846 . S
Sm520 O540 2.543 . S
Sm520 O541 2.450 . S
Sm520 O542 2.681 . S
Sm520 O543 2.464 . S
Sm520 O544 2.396 . S
Sm520 O548 2.386 . S
Sm520 O551 2.408 . S
Sm521 C531 2.846 . S
Sm521 O542 2.386 . S
Sm521 O545 2.408 . S
Sm521 O546 2.543 . S
Sm521 O547 2.450 . S
Sm521 O548 2.681 . S
Sm521 O549 2.464 . S
Sm521 O550 2.396 . S
C522 Sm520 2.846 . S
C522 C523 1.506 . S
C522 O540 1.261 . S
C522 O541 1.242 . S
C523 C522 1.506 . S
C523 C524 1.358 . S
C523 C528 1.382 . S
C524 C523 1.358 . S
C524 C525 1.385 . S
C524 H552 0.930 . S
C525 C524 1.385 . S
C525 C526 1.395 . S
C525 H553 0.929 . S
C526 C525 1.395 . S
C526 C527 1.335 . S
C527 C526 1.335 . S
C527 C528 1.398 . S
C527 H554 0.930 . S
C528 C523 1.382 . S
C528 C527 1.398 . S
C528 H555 0.929 . S
C529 O542 1.271 . S
C529 O543 1.251 . S
C530 O544 1.252 . S
C530 O545 1.272 . S
C531 Sm521 2.846 . S
C531 C532 1.506 . S
C531 O546 1.261 . S
C531 O547 1.242 . S
C532 C531 1.506 . S
C532 C533 1.358 . S
C532 C537 1.382 . S
C533 C532 1.358 . S
C533 C534 1.385 . S
C533 H556 0.930 . S
C534 C533 1.385 . S
C534 C535 1.395 . S
C534 H557 0.929 . S
C535 C534 1.395 . S
C535 C536 1.335 . S
C536 C535 1.335 . S
C536 C537 1.398 . S
C536 H558 0.930 . S
C537 C532 1.382 . S
C537 C536 1.398 . S
C537 H559 0.929 . S
C538 O548 1.271 . S
C538 O549 1.251 . S
C539 O550 1.252 . S
C539 O551 1.272 . S
O540 Sm520 2.543 . S
O540 C522 1.261 . S
O541 Sm520 2.450 . S
O541 C522 1.242 . S
O542 Sm520 2.681 . S
O542 Sm521 2.386 . S
O542 C529 1.271 . S
O543 Sm520 2.464 . S
O543 C529 1.251 . S
O544 Sm520 2.396 . S
O544 C530 1.252 . S
O545 Sm521 2.408 . S
O545 C530 1.272 . S
O546 Sm521 2.543 . S
O546 C531 1.261 . S
O547 Sm521 2.450 . S
O547 C531 1.242 . S
O548 Sm520 2.386 . S
O548 Sm521 2.681 . S
O548 C538 1.271 . S
O549 Sm521 2.464 . S
O549 C538 1.251 . S
O550 Sm521 2.396 . S
O550 C539 1.252 . S
O551 Sm520 2.408 . S
O551 C539 1.272 . S
H552 C524 0.930 . S
H553 C525 0.929 . S
H554 C527 0.930 . S
H555 C528 0.929 . S
H556 C533 0.930 . S
H557 C534 0.929 . S
H558 C536 0.930 . S
H559 C537 0.929 . S
Sm560 C562 2.846 . S
Sm560 O580 2.543 . S
Sm560 O581 2.450 . S
Sm560 O582 2.681 . S
Sm560 O583 2.464 . S
Sm560 O584 2.396 . S
Sm560 O588 2.386 . S
Sm560 O591 2.408 . S
Sm561 C571 2.846 . S
Sm561 O582 2.386 . S
Sm561 O585 2.408 . S
Sm561 O586 2.543 . S
Sm561 O587 2.450 . S
Sm561 O588 2.681 . S
Sm561 O589 2.464 . S
Sm561 O590 2.396 . S
C562 Sm560 2.846 . S
C562 C563 1.506 . S
C562 O580 1.261 . S
C562 O581 1.242 . S
C563 C562 1.506 . S
C563 C564 1.358 . S
C563 C568 1.382 . S
C564 C563 1.358 . S
C564 C565 1.385 . S
C564 H592 0.930 . S
C565 C564 1.385 . S
C565 C566 1.395 . S
C565 H593 0.929 . S
C566 C565 1.395 . S
C566 C567 1.335 . S
C567 C566 1.335 . S
C567 C568 1.398 . S
C567 H594 0.930 . S
C568 C563 1.382 . S
C568 C567 1.398 . S
C568 H595 0.929 . S
C569 O582 1.271 . S
C569 O583 1.251 . S
C570 O584 1.252 . S
C570 O585 1.272 . S
C571 Sm561 2.846 . S
C571 C572 1.506 . S
C571 O586 1.261 . S
C571 O587 1.242 . S
C572 C571 1.506 . S
C572 C573 1.358 . S
C572 C577 1.382 . S
C573 C572 1.358 . S
C573 C574 1.385 . S
C573 H596 0.930 . S
C574 C573 1.385 . S
C574 C575 1.395 . S
C574 H597 0.929 . S
C575 C574 1.395 . S
C575 C576 1.335 . S
C576 C575 1.335 . S
C576 C577 1.398 . S
C576 H598 0.930 . S
C577 C572 1.382 . S
C577 C576 1.398 . S
C577 H599 0.929 . S
C578 O588 1.271 . S
C578 O589 1.251 . S
C579 O590 1.252 . S
C579 O591 1.272 . S
O580 Sm560 2.543 . S
O580 C562 1.261 . S
O581 Sm560 2.450 . S
O581 C562 1.242 . S
O582 Sm560 2.681 . S
O582 Sm561 2.386 . S
O582 C569 1.271 . S
O583 Sm560 2.464 . S
O583 C569 1.251 . S
O584 Sm560 2.396 . S
O584 C570 1.252 . S
O585 Sm561 2.408 . S
O585 C570 1.272 . S
O586 Sm561 2.543 . S
O586 C571 1.261 . S
O587 Sm561 2.450 . S
O587 C571 1.242 . S
O588 Sm560 2.386 . S
O588 Sm561 2.681 . S
O588 C578 1.271 . S
O589 Sm561 2.464 . S
O589 C578 1.251 . S
O590 Sm561 2.396 . S
O590 C579 1.252 . S
O591 Sm560 2.408 . S
O591 C579 1.272 . S
H592 C564 0.930 . S
H593 C565 0.929 . S
H594 C567 0.930 . S
H595 C568 0.929 . S
H596 C573 0.930 . S
H597 C574 0.929 . S
H598 C576 0.930 . S
H599 C577 0.929 . S
Sm600 C602 2.846 . S
Sm600 O620 2.543 . S
Sm600 O621 2.450 . S
Sm600 O622 2.681 . S
Sm600 O623 2.464 . S
Sm600 O624 2.396 . S
Sm600 O628 2.386 . S
Sm600 O631 2.408 . S
Sm601 C611 2.846 . S
Sm601 O622 2.386 . S
Sm601 O625 2.408 . S
Sm601 O626 2.543 . S
Sm601 O627 2.450 . S
Sm601 O628 2.681 . S
Sm601 O629 2.464 . S
Sm601 O630 2.396 . S
C602 Sm600 2.846 . S
C602 C603 1.506 . S
C602 O620 1.261 . S
C602 O621 1.242 . S
C603 C602 1.506 . S
C603 C604 1.358 . S
C603 C608 1.382 . S
C604 C603 1.358 . S
C604 C605 1.385 . S
C604 H632 0.930 . S
C605 C604 1.385 . S
C605 C606 1.395 . S
C605 H633 0.929 . S
C606 C605 1.395 . S
C606 C607 1.335 . S
C607 C606 1.335 . S
C607 C608 1.398 . S
C607 H634 0.930 . S
C608 C603 1.382 . S
C608 C607 1.398 . S
C608 H635 0.929 . S
C609 O622 1.271 . S
C609 O623 1.251 . S
C610 O624 1.252 . S
C610 O625 1.272 . S
C611 Sm601 2.846 . S
C611 C612 1.506 1_556 S
C611 O626 1.261 . S
C611 O627 1.242 . S
C612 C611 1.506 1_554 S
C612 C613 1.358 . S
C612 C617 1.382 . S
C613 C612 1.358 . S
C613 C614 1.385 . S
C613 H636 0.930 . S
C614 C613 1.385 . S
C614 C615 1.395 . S
C614 H637 0.929 . S
C615 C614 1.395 . S
C615 C616 1.335 . S
C616 C615 1.335 . S
C616 C617 1.398 . S
C616 H638 0.930 . S
C617 C612 1.382 . S
C617 C616 1.398 . S
C617 H639 0.929 . S
C618 O628 1.271 . S
C618 O629 1.251 . S
C619 O630 1.252 . S
C619 O631 1.272 . S
O620 Sm600 2.543 . S
O620 C602 1.261 . S
O621 Sm600 2.450 . S
O621 C602 1.242 . S
O622 Sm600 2.681 . S
O622 Sm601 2.386 . S
O622 C609 1.271 . S
O623 Sm600 2.464 . S
O623 C609 1.251 . S
O624 Sm600 2.396 . S
O624 C610 1.252 . S
O625 Sm601 2.408 . S
O625 C610 1.272 . S
O626 Sm601 2.543 . S
O626 C611 1.261 . S
O627 Sm601 2.450 . S
O627 C611 1.242 . S
O628 Sm600 2.386 . S
O628 Sm601 2.681 . S
O628 C618 1.271 . S
O629 Sm601 2.464 . S
O629 C618 1.251 . S
O630 Sm601 2.396 . S
O630 C619 1.252 . S
O631 Sm600 2.408 . S
O631 C619 1.272 . S
H632 C604 0.930 . S
H633 C605 0.929 . S
H634 C607 0.930 . S
H635 C608 0.929 . S
H636 C613 0.930 . S
H637 C614 0.929 . S
H638 C616 0.930 . S
H639 C617 0.929 . S
Sm640 C642 2.846 . S
Sm640 O660 2.543 . S
Sm640 O661 2.450 . S
Sm640 O662 2.681 . S
Sm640 O663 2.464 . S
Sm640 O664 2.396 . S
Sm640 O668 2.386 . S
Sm640 O671 2.408 . S
Sm641 C651 2.846 . S
Sm641 O662 2.386 . S
Sm641 O665 2.408 . S
Sm641 O666 2.543 . S
Sm641 O667 2.450 . S
Sm641 O668 2.681 . S
Sm641 O669 2.464 . S
Sm641 O670 2.396 . S
C642 Sm640 2.846 . S
C642 C643 1.506 . S
C642 O660 1.261 . S
C642 O661 1.242 . S
C643 C642 1.506 . S
C643 C644 1.358 . S
C643 C648 1.382 . S
C644 C643 1.358 . S
C644 C645 1.385 . S
C644 H672 0.930 . S
C645 C644 1.385 . S
C645 C646 1.395 . S
C645 H673 0.929 . S
C646 C645 1.395 . S
C646 C647 1.335 . S
C647 C646 1.335 . S
C647 C648 1.398 . S
C647 H674 0.930 . S
C648 C643 1.382 . S
C648 C647 1.398 . S
C648 H675 0.929 . S
C649 O662 1.271 . S
C649 O663 1.251 . S
C650 O664 1.252 . S
C650 O665 1.272 . S
C651 Sm641 2.846 . S
C651 C652 1.506 1_556 S
C651 O666 1.261 . S
C651 O667 1.242 . S
C652 C651 1.506 1_554 S
C652 C653 1.358 . S
C652 C657 1.382 . S
C653 C652 1.358 . S
C653 C654 1.385 . S
C653 H676 0.930 . S
C654 C653 1.385 . S
C654 C655 1.395 . S
C654 H677 0.929 . S
C655 C654 1.395 . S
C655 C656 1.335 . S
C656 C655 1.335 . S
C656 C657 1.398 . S
C656 H678 0.930 . S
C657 C652 1.382 . S
C657 C656 1.398 . S
C657 H679 0.929 . S
C658 O668 1.271 . S
C658 O669 1.251 . S
C659 O670 1.252 . S
C659 O671 1.272 . S
O660 Sm640 2.543 . S
O660 C642 1.261 . S
O661 Sm640 2.450 . S
O661 C642 1.242 . S
O662 Sm640 2.681 . S
O662 Sm641 2.386 . S
O662 C649 1.271 . S
O663 Sm640 2.464 . S
O663 C649 1.251 . S
O664 Sm640 2.396 . S
O664 C650 1.252 . S
O665 Sm641 2.408 . S
O665 C650 1.272 . S
O666 Sm641 2.543 . S
O666 C651 1.261 . S
O667 Sm641 2.450 . S
O667 C651 1.242 . S
O668 Sm640 2.386 . S
O668 Sm641 2.681 . S
O668 C658 1.271 . S
O669 Sm641 2.464 . S
O669 C658 1.251 . S
O670 Sm641 2.396 . S
O670 C659 1.252 . S
O671 Sm640 2.408 . S
O671 C659 1.272 . S
H672 C644 0.930 . S
H673 C645 0.929 . S
H674 C647 0.930 . S
H675 C648 0.929 . S
H676 C653 0.930 . S
H677 C654 0.929 . S
H678 C656 0.930 . S
H679 C657 0.929 . S
Sm680 C682 2.846 . S
Sm680 O700 2.543 . S
Sm680 O701 2.450 . S
Sm680 O702 2.681 . S
Sm680 O703 2.464 . S
Sm680 O704 2.396 . S
Sm680 O708 2.386 . S
Sm680 O711 2.408 . S
Sm681 C691 2.846 . S
Sm681 O702 2.386 . S
Sm681 O705 2.408 . S
Sm681 O706 2.543 . S
Sm681 O707 2.450 . S
Sm681 O708 2.681 . S
Sm681 O709 2.464 . S
Sm681 O710 2.396 . S
C682 Sm680 2.846 . S
C682 C683 1.506 . S
C682 O700 1.261 . S
C682 O701 1.242 . S
C683 C682 1.506 . S
C683 C684 1.358 . S
C683 C688 1.382 . S
C684 C683 1.358 . S
C684 C685 1.385 . S
C684 H712 0.930 . S
C685 C684 1.385 . S
C685 C686 1.395 . S
C685 H713 0.929 . S
C686 C685 1.395 . S
C686 C687 1.335 . S
C687 C686 1.335 . S
C687 C688 1.398 . S
C687 H714 0.930 . S
C688 C683 1.382 . S
C688 C687 1.398 . S
C688 H715 0.929 . S
C689 O702 1.271 . S
C689 O703 1.251 . S
C690 O704 1.252 . S
C690 O705 1.272 . S
C691 Sm681 2.846 . S
C691 C692 1.506 1_556 S
C691 O706 1.261 . S
C691 O707 1.242 . S
C692 C691 1.506 1_554 S
C692 C693 1.358 . S
C692 C697 1.382 . S
C693 C692 1.358 . S
C693 C694 1.385 . S
C693 H716 0.930 . S
C694 C693 1.385 . S
C694 C695 1.395 . S
C694 H717 0.929 . S
C695 C694 1.395 . S
C695 C696 1.335 . S
C696 C695 1.335 . S
C696 C697 1.398 . S
C696 H718 0.930 . S
C697 C692 1.382 . S
C697 C696 1.398 . S
C697 H719 0.929 . S
C698 O708 1.271 . S
C698 O709 1.251 . S
C699 O710 1.252 . S
C699 O711 1.272 . S
O700 Sm680 2.543 . S
O700 C682 1.261 . S
O701 Sm680 2.450 . S
O701 C682 1.242 . S
O702 Sm680 2.681 . S
O702 Sm681 2.386 . S
O702 C689 1.271 . S
O703 Sm680 2.464 . S
O703 C689 1.251 . S
O704 Sm680 2.396 . S
O704 C690 1.252 . S
O705 Sm681 2.408 . S
O705 C690 1.272 . S
O706 Sm681 2.543 . S
O706 C691 1.261 . S
O707 Sm681 2.450 . S
O707 C691 1.242 . S
O708 Sm680 2.386 . S
O708 Sm681 2.681 . S
O708 C698 1.271 . S
O709 Sm681 2.464 . S
O709 C698 1.251 . S
O710 Sm681 2.396 . S
O710 C699 1.252 . S
O711 Sm680 2.408 . S
O711 C699 1.272 . S
H712 C684 0.930 . S
H713 C685 0.929 . S
H714 C687 0.930 . S
H715 C688 0.929 . S
H716 C693 0.930 . S
H717 C694 0.929 . S
H718 C696 0.930 . S
H719 C697 0.929 . S
Sm720 C722 2.846 . S
Sm720 O740 2.543 . S
Sm720 O741 2.450 . S
Sm720 O742 2.681 . S
Sm720 O743 2.464 . S
Sm720 O744 2.396 . S
Sm720 O748 2.386 . S
Sm720 O751 2.408 . S
Sm721 C731 2.846 . S
Sm721 O742 2.386 . S
Sm721 O745 2.408 . S
Sm721 O746 2.543 . S
Sm721 O747 2.450 . S
Sm721 O748 2.681 . S
Sm721 O749 2.464 . S
Sm721 O750 2.396 . S
C722 Sm720 2.846 . S
C722 C723 1.506 . S
C722 O740 1.261 . S
C722 O741 1.242 . S
C723 C722 1.506 . S
C723 C724 1.358 . S
C723 C728 1.382 . S
C724 C723 1.358 . S
C724 C725 1.385 . S
C724 H752 0.930 . S
C725 C724 1.385 . S
C725 C726 1.395 . S
C725 H753 0.929 . S
C726 C725 1.395 . S
C726 C727 1.335 . S
C727 C726 1.335 . S
C727 C728 1.398 . S
C727 H754 0.930 . S
C728 C723 1.382 . S
C728 C727 1.398 . S
C728 H755 0.929 . S
C729 O742 1.271 . S
C729 O743 1.251 . S
C730 O744 1.252 . S
C730 O745 1.272 . S
C731 Sm721 2.846 . S
C731 C732 1.506 . S
C731 O746 1.261 . S
C731 O747 1.242 . S
C732 C731 1.506 . S
C732 C733 1.358 . S
C732 C737 1.382 . S
C733 C732 1.358 . S
C733 C734 1.385 . S
C733 H756 0.930 . S
C734 C733 1.385 . S
C734 C735 1.395 . S
C734 H757 0.929 . S
C735 C734 1.395 . S
C735 C736 1.335 . S
C736 C735 1.335 . S
C736 C737 1.398 . S
C736 H758 0.930 . S
C737 C732 1.382 . S
C737 C736 1.398 . S
C737 H759 0.929 . S
C738 O748 1.271 . S
C738 O749 1.251 . S
C739 O750 1.252 . S
C739 O751 1.272 . S
O740 Sm720 2.543 . S
O740 C722 1.261 . S
O741 Sm720 2.450 . S
O741 C722 1.242 . S
O742 Sm720 2.681 . S
O742 Sm721 2.386 . S
O742 C729 1.271 . S
O743 Sm720 2.464 . S
O743 C729 1.251 . S
O744 Sm720 2.396 . S
O744 C730 1.252 . S
O745 Sm721 2.408 . S
O745 C730 1.272 . S
O746 Sm721 2.543 . S
O746 C731 1.261 . S
O747 Sm721 2.450 . S
O747 C731 1.242 . S
O748 Sm720 2.386 . S
O748 Sm721 2.681 . S
O748 C738 1.271 . S
O749 Sm721 2.464 . S
O749 C738 1.251 . S
O750 Sm721 2.396 . S
O750 C739 1.252 . S
O751 Sm720 2.408 . S
O751 C739 1.272 . S
H752 C724 0.930 . S
H753 C725 0.929 . S
H754 C727 0.930 . S
H755 C728 0.929 . S
H756 C733 0.930 . S
H757 C734 0.929 . S
H758 C736 0.930 . S
H759 C737 0.929 . S
Sm760 C762 2.846 . S
Sm760 O780 2.543 . S
Sm760 O781 2.450 . S
Sm760 O782 2.681 . S
Sm760 O783 2.464 . S
Sm760 O784 2.396 . S
Sm760 O788 2.386 . S
Sm760 O791 2.408 . S
Sm761 C771 2.846 . S
Sm761 O782 2.386 . S
Sm761 O785 2.408 . S
Sm761 O786 2.543 . S
Sm761 O787 2.450 . S
Sm761 O788 2.681 . S
Sm761 O789 2.464 . S
Sm761 O790 2.396 . S
C762 Sm760 2.846 . S
C762 C763 1.506 . S
C762 O780 1.261 . S
C762 O781 1.242 . S
C763 C762 1.506 . S
C763 C764 1.358 . S
C763 C768 1.382 . S
C764 C763 1.358 . S
C764 C765 1.385 . S
C764 H792 0.930 . S
C765 C764 1.385 . S
C765 C766 1.395 . S
C765 H793 0.929 . S
C766 C765 1.395 . S
C766 C767 1.335 . S
C767 C766 1.335 . S
C767 C768 1.398 . S
C767 H794 0.930 . S
C768 C763 1.382 . S
C768 C767 1.398 . S
C768 H795 0.929 . S
C769 O782 1.271 . S
C769 O783 1.251 . S
C770 O784 1.252 . S
C770 O785 1.272 . S
C771 Sm761 2.846 . S
C771 C772 1.506 . S
C771 O786 1.261 . S
C771 O787 1.242 . S
C772 C771 1.506 . S
C772 C773 1.358 . S
C772 C777 1.382 . S
C773 C772 1.358 . S
C773 C774 1.385 . S
C773 H796 0.930 . S
C774 C773 1.385 . S
C774 C775 1.395 . S
C774 H797 0.929 . S
C775 C774 1.395 . S
C775 C776 1.335 . S
C776 C775 1.335 . S
C776 C777 1.398 . S
C776 H798 0.930 . S
C777 C772 1.382 . S
C777 C776 1.398 . S
C777 H799 0.929 . S
C778 O788 1.271 . S
C778 O789 1.251 . S
C779 O790 1.252 . S
C779 O791 1.272 . S
O780 Sm760 2.543 . S
O780 C762 1.261 . S
O781 Sm760 2.450 . S
O781 C762 1.242 . S
O782 Sm760 2.681 . S
O782 Sm761 2.386 . S
O782 C769 1.271 . S
O783 Sm760 2.464 . S
O783 C769 1.251 . S
O784 Sm760 2.396 . S
O784 C770 1.252 . S
O785 Sm761 2.408 . S
O785 C770 1.272 . S
O786 Sm761 2.543 . S
O786 C771 1.261 . S
O787 Sm761 2.450 . S
O787 C771 1.242 . S
O788 Sm760 2.386 . S
O788 Sm761 2.681 . S
O788 C778 1.271 . S
O789 Sm761 2.464 . S
O789 C778 1.251 . S
O790 Sm761 2.396 . S
O790 C779 1.252 . S
O791 Sm760 2.408 . S
O791 C779 1.272 . S
H792 C764 0.930 . S
H793 C765 0.929 . S
H794 C767 0.930 . S
H795 C768 0.929 . S
H796 C773 0.930 . S
H797 C774 0.929 . S
H798 C776 0.930 . S
H799 C777 0.929 . S
Sm800 C802 2.846 . S
Sm800 O820 2.543 . S
Sm800 O821 2.450 . S
Sm800 O822 2.681 . S
Sm800 O823 2.464 . S
Sm800 O824 2.396 . S
Sm800 O828 2.386 . S
Sm800 O831 2.408 . S
Sm801 C811 2.846 . S
Sm801 O822 2.386 . S
Sm801 O825 2.408 . S
Sm801 O826 2.543 . S
Sm801 O827 2.450 . S
Sm801 O828 2.681 . S
Sm801 O829 2.464 . S
Sm801 O830 2.396 . S
C802 Sm800 2.846 . S
C802 C803 1.506 . S
C802 O820 1.261 . S
C802 O821 1.242 . S
C803 C802 1.506 . S
C803 C804 1.358 . S
C803 C808 1.382 . S
C804 C803 1.358 . S
C804 C805 1.385 . S
C804 H832 0.930 . S
C805 C804 1.385 . S
C805 C806 1.395 . S
C805 H833 0.929 . S
C806 C805 1.395 . S
C806 C807 1.335 . S
C807 C806 1.335 . S
C807 C808 1.398 . S
C807 H834 0.930 . S
C808 C803 1.382 . S
C808 C807 1.398 . S
C808 H835 0.929 . S
C809 O822 1.271 . S
C809 O823 1.251 . S
C810 O824 1.252 . S
C810 O825 1.272 . S
C811 Sm801 2.846 . S
C811 C812 1.506 . S
C811 O826 1.261 . S
C811 O827 1.242 . S
C812 C811 1.506 . S
C812 C813 1.358 . S
C812 C817 1.382 . S
C813 C812 1.358 . S
C813 C814 1.385 . S
C813 H836 0.930 . S
C814 C813 1.385 . S
C814 C815 1.395 . S
C814 H837 0.929 . S
C815 C814 1.395 . S
C815 C816 1.335 . S
C816 C815 1.335 . S
C816 C817 1.398 . S
C816 H838 0.930 . S
C817 C812 1.382 . S
C817 C816 1.398 . S
C817 H839 0.929 . S
C818 O828 1.271 . S
C818 O829 1.251 . S
C819 O830 1.252 . S
C819 O831 1.272 . S
O820 Sm800 2.543 . S
O820 C802 1.261 . S
O821 Sm800 2.450 . S
O821 C802 1.242 . S
O822 Sm800 2.681 . S
O822 Sm801 2.386 . S
O822 C809 1.271 . S
O823 Sm800 2.464 . S
O823 C809 1.251 . S
O824 Sm800 2.396 . S
O824 C810 1.252 . S
O825 Sm801 2.408 . S
O825 C810 1.272 . S
O826 Sm801 2.543 . S
O826 C811 1.261 . S
O827 Sm801 2.450 . S
O827 C811 1.242 . S
O828 Sm800 2.386 . S
O828 Sm801 2.681 . S
O828 C818 1.271 . S
O829 Sm801 2.464 . S
O829 C818 1.251 . S
O830 Sm801 2.396 . S
O830 C819 1.252 . S
O831 Sm800 2.408 . S
O831 C819 1.272 . S
H832 C804 0.930 . S
H833 C805 0.929 . S
H834 C807 0.930 . S
H835 C808 0.929 . S
H836 C813 0.930 . S
H837 C814 0.929 . S
H838 C816 0.930 . S
H839 C817 0.929 . S
Sm840 C842 2.846 . S
Sm840 O860 2.543 . S
Sm840 O861 2.450 . S
Sm840 O862 2.681 . S
Sm840 O863 2.464 . S
Sm840 O864 2.396 . S
Sm840 O868 2.386 . S
Sm840 O871 2.408 . S
Sm841 C851 2.846 1_556 S
Sm841 O862 2.386 . S
Sm841 O865 2.408 . S
Sm841 O866 2.543 1_556 S
Sm841 O867 2.450 1_556 S
Sm841 O868 2.681 . S
Sm841 O869 2.464 . S
Sm841 O870 2.396 1_556 S
C842 Sm840 2.846 . S
C842 C843 1.506 . S
C842 O860 1.261 . S
C842 O861 1.242 . S
C843 C842 1.506 . S
C843 C844 1.358 . S
C843 C848 1.382 . S
C844 C843 1.358 . S
C844 C845 1.385 . S
C844 H872 0.930 . S
C845 C844 1.385 . S
C845 C846 1.395 . S
C845 H873 0.929 . S
C846 C845 1.395 . S
C846 C847 1.335 . S
C847 C846 1.335 . S
C847 C848 1.398 . S
C847 H874 0.930 . S
C848 C843 1.382 . S
C848 C847 1.398 . S
C848 H875 0.929 . S
C849 O862 1.271 . S
C849 O863 1.251 . S
C850 O864 1.252 . S
C850 O865 1.272 . S
C851 Sm841 2.846 1_554 S
C851 C852 1.506 . S
C851 O866 1.261 . S
C851 O867 1.242 . S
C852 C851 1.506 . S
C852 C853 1.358 . S
C852 C857 1.382 . S
C853 C852 1.358 . S
C853 C854 1.385 . S
C853 H876 0.930 . S
C854 C853 1.385 . S
C854 C855 1.395 . S
C854 H877 0.929 . S
C855 C854 1.395 . S
C855 C856 1.335 . S
C856 C855 1.335 . S
C856 C857 1.398 . S
C856 H878 0.930 . S
C857 C852 1.382 . S
C857 C856 1.398 . S
C857 H879 0.929 . S
C858 O868 1.271 . S
C858 O869 1.251 . S
C859 O870 1.252 . S
C859 O871 1.272 1_554 S
O860 Sm840 2.543 . S
O860 C842 1.261 . S
O861 Sm840 2.450 . S
O861 C842 1.242 . S
O862 Sm840 2.681 . S
O862 Sm841 2.386 . S
O862 C849 1.271 . S
O863 Sm840 2.464 . S
O863 C849 1.251 . S
O864 Sm840 2.396 . S
O864 C850 1.252 . S
O865 Sm841 2.408 . S
O865 C850 1.272 . S
O866 Sm841 2.543 1_554 S
O866 C851 1.261 . S
O867 Sm841 2.450 1_554 S
O867 C851 1.242 . S
O868 Sm840 2.386 . S
O868 Sm841 2.681 . S
O868 C858 1.271 . S
O869 Sm841 2.464 . S
O869 C858 1.251 . S
O870 Sm841 2.396 1_554 S
O870 C859 1.252 . S
O871 Sm840 2.408 . S
O871 C859 1.272 1_556 S
H872 C844 0.930 . S
H873 C845 0.929 . S
H874 C847 0.930 . S
H875 C848 0.929 . S
H876 C853 0.930 . S
H877 C854 0.929 . S
H878 C856 0.930 . S
H879 C857 0.929 . S
Sm880 C882 2.846 . S
Sm880 O900 2.543 . S
Sm880 O901 2.450 . S
Sm880 O902 2.681 . S
Sm880 O903 2.464 . S
Sm880 O904 2.396 . S
Sm880 O908 2.386 . S
Sm880 O911 2.408 . S
Sm881 C891 2.846 1_556 S
Sm881 O902 2.386 . S
Sm881 O905 2.408 . S
Sm881 O906 2.543 1_556 S
Sm881 O907 2.450 1_556 S
Sm881 O908 2.681 . S
Sm881 O909 2.464 . S
Sm881 O910 2.396 1_556 S
C882 Sm880 2.846 . S
C882 C883 1.506 . S
C882 O900 1.261 . S
C882 O901 1.242 . S
C883 C882 1.506 . S
C883 C884 1.358 . S
C883 C888 1.382 . S
C884 C883 1.358 . S
C884 C885 1.385 . S
C884 H912 0.930 . S
C885 C884 1.385 . S
C885 C886 1.395 . S
C885 H913 0.929 . S
C886 C885 1.395 . S
C886 C887 1.335 . S
C887 C886 1.335 . S
C887 C888 1.398 . S
C887 H914 0.930 . S
C888 C883 1.382 . S
C888 C887 1.398 . S
C888 H915 0.929 . S
C889 O902 1.271 . S
C889 O903 1.251 . S
C890 O904 1.252 . S
C890 O905 1.272 . S
C891 Sm881 2.846 1_554 S
C891 C892 1.506 . S
C891 O906 1.261 . S
C891 O907 1.242 . S
C892 C891 1.506 . S
C892 C893 1.358 . S
C892 C897 1.382 . S
C893 C892 1.358 . S
C893 C894 1.385 . S
C893 H916 0.930 . S
C894 C893 1.385 . S
C894 C895 1.395 . S
C894 H917 0.929 . S
C895 C894 1.395 . S
C895 C896 1.335 . S
C896 C895 1.335 . S
C896 C897 1.398 . S
C896 H918 0.930 . S
C897 C892 1.382 . S
C897 C896 1.398 . S
C897 H919 0.929 . S
C898 O908 1.271 . S
C898 O909 1.251 . S
C899 O910 1.252 . S
C899 O911 1.272 1_554 S
O900 Sm880 2.543 . S
O900 C882 1.261 . S
O901 Sm880 2.450 . S
O901 C882 1.242 . S
O902 Sm880 2.681 . S
O902 Sm881 2.386 . S
O902 C889 1.271 . S
O903 Sm880 2.464 . S
O903 C889 1.251 . S
O904 Sm880 2.396 . S
O904 C890 1.252 . S
O905 Sm881 2.408 . S
O905 C890 1.272 . S
O906 Sm881 2.543 1_554 S
O906 C891 1.261 . S
O907 Sm881 2.450 1_554 S
O907 C891 1.242 . S
O908 Sm880 2.386 . S
O908 Sm881 2.681 . S
O908 C898 1.271 . S
O909 Sm881 2.464 . S
O909 C898 1.251 . S
O910 Sm881 2.396 1_554 S
O910 C899 1.252 . S
O911 Sm880 2.408 . S
O911 C899 1.272 1_556 S
H912 C884 0.930 . S
H913 C885 0.929 . S
H914 C887 0.930 . S
H915 C888 0.929 . S
H916 C893 0.930 . S
H917 C894 0.929 . S
H918 C896 0.930 . S
H919 C897 0.929 . S
Sm920 C922 2.846 . S
Sm920 O940 2.543 . S
Sm920 O941 2.450 . S
Sm920 O942 2.681 . S
Sm920 O943 2.464 . S
Sm920 O944 2.396 . S
Sm920 O948 2.386 . S
Sm920 O951 2.408 . S
Sm921 C931 2.846 1_556 S
Sm921 O942 2.386 . S
Sm921 O945 2.408 . S
Sm921 O946 2.543 1_556 S
Sm921 O947 2.450 1_556 S
Sm921 O948 2.681 . S
Sm921 O949 2.464 . S
Sm921 O950 2.396 1_556 S
C922 Sm920 2.846 . S
C922 C923 1.506 . S
C922 O940 1.261 . S
C922 O941 1.242 . S
C923 C922 1.506 . S
C923 C924 1.358 . S
C923 C928 1.382 . S
C924 C923 1.358 . S
C924 C925 1.385 . S
C924 H952 0.930 . S
C925 C924 1.385 . S
C925 C926 1.395 . S
C925 H953 0.929 . S
C926 C925 1.395 . S
C926 C927 1.335 . S
C927 C926 1.335 . S
C927 C928 1.398 . S
C927 H954 0.930 . S
C928 C923 1.382 . S
C928 C927 1.398 . S
C928 H955 0.929 . S
C929 O942 1.271 . S
C929 O943 1.251 . S
C930 O944 1.252 . S
C930 O945 1.272 . S
C931 Sm921 2.846 1_554 S
C931 C932 1.506 . S
C931 O946 1.261 . S
C931 O947 1.242 . S
C932 C931 1.506 . S
C932 C933 1.358 . S
C932 C937 1.382 . S
C933 C932 1.358 . S
C933 C934 1.385 . S
C933 H956 0.930 . S
C934 C933 1.385 . S
C934 C935 1.395 . S
C934 H957 0.929 . S
C935 C934 1.395 . S
C935 C936 1.335 . S
C936 C935 1.335 . S
C936 C937 1.398 . S
C936 H958 0.930 . S
C937 C932 1.382 . S
C937 C936 1.398 . S
C937 H959 0.929 . S
C938 O948 1.271 . S
C938 O949 1.251 . S
C939 O950 1.252 . S
C939 O951 1.272 1_554 S
O940 Sm920 2.543 . S
O940 C922 1.261 . S
O941 Sm920 2.450 . S
O941 C922 1.242 . S
O942 Sm920 2.681 . S
O942 Sm921 2.386 . S
O942 C929 1.271 . S
O943 Sm920 2.464 . S
O943 C929 1.251 . S
O944 Sm920 2.396 . S
O944 C930 1.252 . S
O945 Sm921 2.408 . S
O945 C930 1.272 . S
O946 Sm921 2.543 1_554 S
O946 C931 1.261 . S
O947 Sm921 2.450 1_554 S
O947 C931 1.242 . S
O948 Sm920 2.386 . S
O948 Sm921 2.681 . S
O948 C938 1.271 . S
O949 Sm921 2.464 . S
O949 C938 1.251 . S
O950 Sm921 2.396 1_554 S
O950 C939 1.252 . S
O951 Sm920 2.408 . S
O951 C939 1.272 1_556 S
H952 C924 0.930 . S
H953 C925 0.929 . S
H954 C927 0.930 . S
H955 C928 0.929 . S
H956 C933 0.930 . S
H957 C934 0.929 . S
H958 C936 0.930 . S
H959 C937 0.929 . S
Sm960 C962 2.846 . S
Sm960 O980 2.543 . S
Sm960 O981 2.450 . S
Sm960 O982 2.681 . S
Sm960 O983 2.464 . S
Sm960 O984 2.396 . S
Sm960 O988 2.386 . S
Sm960 O991 2.408 . S
Sm961 C971 2.846 . S
Sm961 O982 2.386 . S
Sm961 O985 2.408 . S
Sm961 O986 2.543 . S
Sm961 O987 2.450 . S
Sm961 O988 2.681 . S
Sm961 O989 2.464 . S
Sm961 O990 2.396 . S
C962 Sm960 2.846 . S
C962 C963 1.506 . S
C962 O980 1.261 . S
C962 O981 1.242 . S
C963 C962 1.506 . S
C963 C964 1.358 . S
C963 C968 1.382 . S
C964 C963 1.358 . S
C964 C965 1.385 1_556 S
C964 H992 0.930 . S
C965 C964 1.385 1_554 S
C965 C966 1.395 . S
C965 H993 0.929 . S
C966 C965 1.395 . S
C966 C967 1.335 1_554 S
C967 C966 1.335 1_556 S
C967 C968 1.398 . S
C967 H994 0.930 1_556 S
C968 C963 1.382 . S
C968 C967 1.398 . S
C968 H995 0.929 . S
C969 O982 1.271 . S
C969 O983 1.251 . S
C970 O984 1.252 . S
C970 O985 1.272 . S
C971 Sm961 2.846 . S
C971 C972 1.506 . S
C971 O986 1.261 . S
C971 O987 1.242 . S
C972 C971 1.506 . S
C972 C973 1.358 . S
C972 C977 1.382 . S
C973 C972 1.358 . S
C973 C974 1.385 . S
C973 H996 0.930 . S
C974 C973 1.385 . S
C974 C975 1.395 . S
C974 H997 0.929 . S
C975 C974 1.395 . S
C975 C976 1.335 . S
C976 C975 1.335 . S
C976 C977 1.398 . S
C976 H998 0.930 . S
C977 C972 1.382 . S
C977 C976 1.398 . S
C977 H999 0.929 . S
C978 O988 1.271 . S
C978 O989 1.251 . S
C979 O990 1.252 . S
C979 O991 1.272 . S
O980 Sm960 2.543 . S
O980 C962 1.261 . S
O981 Sm960 2.450 . S
O981 C962 1.242 . S
O982 Sm960 2.681 . S
O982 Sm961 2.386 . S
O982 C969 1.271 . S
O983 Sm960 2.464 . S
O983 C969 1.251 . S
O984 Sm960 2.396 . S
O984 C970 1.252 . S
O985 Sm961 2.408 . S
O985 C970 1.272 . S
O986 Sm961 2.543 . S
O986 C971 1.261 . S
O987 Sm961 2.450 . S
O987 C971 1.242 . S
O988 Sm960 2.386 . S
O988 Sm961 2.681 . S
O988 C978 1.271 . S
O989 Sm961 2.464 . S
O989 C978 1.251 . S
O990 Sm961 2.396 . S
O990 C979 1.252 . S
O991 Sm960 2.408 . S
O991 C979 1.272 . S
H992 C964 0.930 . S
H993 C965 0.929 . S
H994 C967 0.930 1_554 S
H995 C968 0.929 . S
H996 C973 0.930 . S
H997 C974 0.929 . S
H998 C976 0.930 . S
H999 C977 0.929 . S
Sm1000 C1002 2.846 . S
Sm1000 O1020 2.543 . S
Sm1000 O1021 2.450 . S
Sm1000 O1022 2.681 . S
Sm1000 O1023 2.464 . S
Sm1000 O1024 2.396 . S
Sm1000 O1028 2.386 . S
Sm1000 O1031 2.408 . S
Sm1001 C1011 2.846 . S
Sm1001 O1022 2.386 . S
Sm1001 O1025 2.408 . S
Sm1001 O1026 2.543 . S
Sm1001 O1027 2.450 . S
Sm1001 O1028 2.681 . S
Sm1001 O1029 2.464 . S
Sm1001 O1030 2.396 . S
C1002 Sm1000 2.846 . S
C1002 C1003 1.506 . S
C1002 O1020 1.261 . S
C1002 O1021 1.242 . S
C1003 C1002 1.506 . S
C1003 C1004 1.358 . S
C1003 C1008 1.382 . S
C1004 C1003 1.358 . S
C1004 C1005 1.385 1_556 S
C1004 H1032 0.930 . S
C1005 C1004 1.385 1_554 S
C1005 C1006 1.395 . S
C1005 H1033 0.929 . S
C1006 C1005 1.395 . S
C1006 C1007 1.335 1_554 S
C1007 C1006 1.335 1_556 S
C1007 C1008 1.398 . S
C1007 H1034 0.930 1_556 S
C1008 C1003 1.382 . S
C1008 C1007 1.398 . S
C1008 H1035 0.929 . S
C1009 O1022 1.271 . S
C1009 O1023 1.251 . S
C1010 O1024 1.252 . S
C1010 O1025 1.272 . S
C1011 Sm1001 2.846 . S
C1011 C1012 1.506 . S
C1011 O1026 1.261 . S
C1011 O1027 1.242 . S
C1012 C1011 1.506 . S
C1012 C1013 1.358 . S
C1012 C1017 1.382 . S
C1013 C1012 1.358 . S
C1013 C1014 1.385 . S
C1013 H1036 0.930 . S
C1014 C1013 1.385 . S
C1014 C1015 1.395 . S
C1014 H1037 0.929 . S
C1015 C1014 1.395 . S
C1015 C1016 1.335 . S
C1016 C1015 1.335 . S
C1016 C1017 1.398 . S
C1016 H1038 0.930 . S
C1017 C1012 1.382 . S
C1017 C1016 1.398 . S
C1017 H1039 0.929 . S
C1018 O1028 1.271 . S
C1018 O1029 1.251 . S
C1019 O1030 1.252 . S
C1019 O1031 1.272 . S
O1020 Sm1000 2.543 . S
O1020 C1002 1.261 . S
O1021 Sm1000 2.450 . S
O1021 C1002 1.242 . S
O1022 Sm1000 2.681 . S
O1022 Sm1001 2.386 . S
O1022 C1009 1.271 . S
O1023 Sm1000 2.464 . S
O1023 C1009 1.251 . S
O1024 Sm1000 2.396 . S
O1024 C1010 1.252 . S
O1025 Sm1001 2.408 . S
O1025 C1010 1.272 . S
O1026 Sm1001 2.543 . S
O1026 C1011 1.261 . S
O1027 Sm1001 2.450 . S
O1027 C1011 1.242 . S
O1028 Sm1000 2.386 . S
O1028 Sm1001 2.681 . S
O1028 C1018 1.271 . S
O1029 Sm1001 2.464 . S
O1029 C1018 1.251 . S
O1030 Sm1001 2.396 . S
O1030 C1019 1.252 . S
O1031 Sm1000 2.408 . S
O1031 C1019 1.272 . S
H1032 C1004 0.930 . S
H1033 C1005 0.929 . S
H1034 C1007 0.930 1_554 S
H1035 C1008 0.929 . S
H1036 C1013 0.930 . S
H1037 C1014 0.929 . S
H1038 C1016 0.930 . S
H1039 C1017 0.929 . S
Sm1040 C1042 2.846 . S
Sm1040 O1060 2.543 . S
Sm1040 O1061 2.450 . S
Sm1040 O1062 2.681 . S
Sm1040 O1063 2.464 . S
Sm1040 O1064 2.396 . S
Sm1040 O1068 2.386 . S
Sm1040 O1071 2.408 . S
Sm1041 C1051 2.846 . S
Sm1041 O1062 2.386 . S
Sm1041 O1065 2.408 . S
Sm1041 O1066 2.543 . S
Sm1041 O1067 2.450 . S
Sm1041 O1068 2.681 . S
Sm1041 O1069 2.464 . S
Sm1041 O1070 2.396 . S
C1042 Sm1040 2.846 . S
C1042 C1043 1.506 . S
C1042 O1060 1.261 . S
C1042 O1061 1.242 . S
C1043 C1042 1.506 . S
C1043 C1044 1.358 . S
C1043 C1048 1.382 . S
C1044 C1043 1.358 . S
C1044 C1045 1.385 1_556 S
C1044 H1072 0.930 . S
C1045 C1044 1.385 1_554 S
C1045 C1046 1.395 . S
C1045 H1073 0.929 . S
C1046 C1045 1.395 . S
C1046 C1047 1.335 1_554 S
C1047 C1046 1.335 1_556 S
C1047 C1048 1.398 . S
C1047 H1074 0.930 1_556 S
C1048 C1043 1.382 . S
C1048 C1047 1.398 . S
C1048 H1075 0.929 . S
C1049 O1062 1.271 . S
C1049 O1063 1.251 . S
C1050 O1064 1.252 . S
C1050 O1065 1.272 . S
C1051 Sm1041 2.846 . S
C1051 C1052 1.506 . S
C1051 O1066 1.261 . S
C1051 O1067 1.242 . S
C1052 C1051 1.506 . S
C1052 C1053 1.358 . S
C1052 C1057 1.382 . S
C1053 C1052 1.358 . S
C1053 C1054 1.385 . S
C1053 H1076 0.930 . S
C1054 C1053 1.385 . S
C1054 C1055 1.395 . S
C1054 H1077 0.929 . S
C1055 C1054 1.395 . S
C1055 C1056 1.335 . S
C1056 C1055 1.335 . S
C1056 C1057 1.398 . S
C1056 H1078 0.930 . S
C1057 C1052 1.382 . S
C1057 C1056 1.398 . S
C1057 H1079 0.929 . S
C1058 O1068 1.271 . S
C1058 O1069 1.251 . S
C1059 O1070 1.252 . S
C1059 O1071 1.272 . S
O1060 Sm1040 2.543 . S
O1060 C1042 1.261 . S
O1061 Sm1040 2.450 . S
O1061 C1042 1.242 . S
O1062 Sm1040 2.681 . S
O1062 Sm1041 2.386 . S
O1062 C1049 1.271 . S
O1063 Sm1040 2.464 . S
O1063 C1049 1.251 . S
O1064 Sm1040 2.396 . S
O1064 C1050 1.252 . S
O1065 Sm1041 2.408 . S
O1065 C1050 1.272 . S
O1066 Sm1041 2.543 . S
O1066 C1051 1.261 . S
O1067 Sm1041 2.450 . S
O1067 C1051 1.242 . S
O1068 Sm1040 2.386 . S
O1068 Sm1041 2.681 . S
O1068 C1058 1.271 . S
O1069 Sm1041 2.464 . S
O1069 C1058 1.251 . S
O1070 Sm1041 2.396 . S
O1070 C1059 1.252 . S
O1071 Sm1040 2.408 . S
O1071 C1059 1.272 . S
H1072 C1044 0.930 . S
H1073 C1045 0.929 . S
H1074 C1047 0.930 1_554 S
H1075 C1048 0.929 . S
H1076 C1053 0.930 . S
H1077 C1054 0.929 . S
H1078 C1056 0.930 . S
H1079 C1057 0.929 . S
Sm1080 C1082 2.846 . S
Sm1080 O1100 2.543 . S
Sm1080 O1101 2.450 . S
Sm1080 O1102 2.681 . S
Sm1080 O1103 2.464 . S
Sm1080 O1104 2.396 . S
Sm1080 O1108 2.386 . S
Sm1080 O1111 2.408 . S
Sm1081 C1091 2.846 . S
Sm1081 O1102 2.386 . S
Sm1081 O1105 2.408 . S
Sm1081 O1106 2.543 . S
Sm1081 O1107 2.450 . S
Sm1081 O1108 2.681 . S
Sm1081 O1109 2.464 . S
Sm1081 O1110 2.396 . S
C1082 Sm1080 2.846 . S
C1082 C1083 1.506 . S
C1082 O1100 1.261 . S
C1082 O1101 1.242 . S
C1083 C1082 1.506 . S
C1083 C1084 1.358 1_554 S
C1083 C1088 1.382 1_554 S
C1084 C1083 1.358 1_556 S
C1084 C1085 1.385 . S
C1084 H1112 0.930 . S
C1085 C1084 1.385 . S
C1085 C1086 1.395 . S
C1085 H1113 0.929 . S
C1086 C1085 1.395 . S
C1086 C1087 1.335 . S
C1087 C1086 1.335 . S
C1087 C1088 1.398 . S
C1087 H1114 0.930 . S
C1088 C1083 1.382 1_556 S
C1088 C1087 1.398 . S
C1088 H1115 0.929 1_556 S
C1089 O1102 1.271 . S
C1089 O1103 1.251 . S
C1090 O1104 1.252 . S
C1090 O1105 1.272 . S
C1091 Sm1081 2.846 . S
C1091 C1092 1.506 . S
C1091 O1106 1.261 . S
C1091 O1107 1.242 . S
C1092 C1091 1.506 . S
C1092 C1093 1.358 . S
C1092 C1097 1.382 . S
C1093 C1092 1.358 . S
C1093 C1094 1.385 . S
C1093 H1116 0.930 . S
C1094 C1093 1.385 . S
C1094 C1095 1.395 . S
C1094 H1117 0.929 . S
C1095 C1094 1.395 . S
C1095 C1096 1.335 . S
C1096 C1095 1.335 . S
C1096 C1097 1.398 . S
C1096 H1118 0.930 . S
C1097 C1092 1.382 . S
C1097 C1096 1.398 . S
C1097 H1119 0.929 . S
C1098 O1108 1.271 . S
C1098 O1109 1.251 . S
C1099 O1110 1.252 . S
C1099 O1111 1.272 . S
O1100 Sm1080 2.543 . S
O1100 C1082 1.261 . S
O1101 Sm1080 2.450 . S
O1101 C1082 1.242 . S
O1102 Sm1080 2.681 . S
O1102 Sm1081 2.386 . S
O1102 C1089 1.271 . S
O1103 Sm1080 2.464 . S
O1103 C1089 1.251 . S
O1104 Sm1080 2.396 . S
O1104 C1090 1.252 . S
O1105 Sm1081 2.408 . S
O1105 C1090 1.272 . S
O1106 Sm1081 2.543 . S
O1106 C1091 1.261 . S
O1107 Sm1081 2.450 . S
O1107 C1091 1.242 . S
O1108 Sm1080 2.386 . S
O1108 Sm1081 2.681 . S
O1108 C1098 1.271 . S
O1109 Sm1081 2.464 . S
O1109 C1098 1.251 . S
O1110 Sm1081 2.396 . S
O1110 C1099 1.252 . S
O1111 Sm1080 2.408 . S
O1111 C1099 1.272 . S
H1112 C1084 0.930 . S
H1113 C1085 0.929 . S
H1114 C1087 0.930 . S
H1115 C1088 0.929 1_554 S
H1116 C1093 0.930 . S
H1117 C1094 0.929 . S
H1118 C1096 0.930 . S
H1119 C1097 0.929 . S
Sm1120 C1122 2.846 . S
Sm1120 O1140 2.543 . S
Sm1120 O1141 2.450 . S
Sm1120 O1142 2.681 . S
Sm1120 O1143 2.464 . S
Sm1120 O1144 2.396 . S
Sm1120 O1148 2.386 . S
Sm1120 O1151 2.408 . S
Sm1121 C1131 2.846 . S
Sm1121 O1142 2.386 . S
Sm1121 O1145 2.408 . S
Sm1121 O1146 2.543 . S
Sm1121 O1147 2.450 . S
Sm1121 O1148 2.681 . S
Sm1121 O1149 2.464 . S
Sm1121 O1150 2.396 . S
C1122 Sm1120 2.846 . S
C1122 C1123 1.506 . S
C1122 O1140 1.261 . S
C1122 O1141 1.242 . S
C1123 C1122 1.506 . S
C1123 C1124 1.358 1_554 S
C1123 C1128 1.382 1_554 S
C1124 C1123 1.358 1_556 S
C1124 C1125 1.385 . S
C1124 H1152 0.930 . S
C1125 C1124 1.385 . S
C1125 C1126 1.395 . S
C1125 H1153 0.929 . S
C1126 C1125 1.395 . S
C1126 C1127 1.335 . S
C1127 C1126 1.335 . S
C1127 C1128 1.398 . S
C1127 H1154 0.930 . S
C1128 C1123 1.382 1_556 S
C1128 C1127 1.398 . S
C1128 H1155 0.929 1_556 S
C1129 O1142 1.271 . S
C1129 O1143 1.251 . S
C1130 O1144 1.252 . S
C1130 O1145 1.272 . S
C1131 Sm1121 2.846 . S
C1131 C1132 1.506 . S
C1131 O1146 1.261 . S
C1131 O1147 1.242 . S
C1132 C1131 1.506 . S
C1132 C1133 1.358 . S
C1132 C1137 1.382 . S
C1133 C1132 1.358 . S
C1133 C1134 1.385 . S
C1133 H1156 0.930 . S
C1134 C1133 1.385 . S
C1134 C1135 1.395 . S
C1134 H1157 0.929 . S
C1135 C1134 1.395 . S
C1135 C1136 1.335 . S
C1136 C1135 1.335 . S
C1136 C1137 1.398 . S
C1136 H1158 0.930 . S
C1137 C1132 1.382 . S
C1137 C1136 1.398 . S
C1137 H1159 0.929 . S
C1138 O1148 1.271 . S
C1138 O1149 1.251 . S
C1139 O1150 1.252 . S
C1139 O1151 1.272 . S
O1140 Sm1120 2.543 . S
O1140 C1122 1.261 . S
O1141 Sm1120 2.450 . S
O1141 C1122 1.242 . S
O1142 Sm1120 2.681 . S
O1142 Sm1121 2.386 . S
O1142 C1129 1.271 . S
O1143 Sm1120 2.464 . S
O1143 C1129 1.251 . S
O1144 Sm1120 2.396 . S
O1144 C1130 1.252 . S
O1145 Sm1121 2.408 . S
O1145 C1130 1.272 . S
O1146 Sm1121 2.543 . S
O1146 C1131 1.261 . S
O1147 Sm1121 2.450 . S
O1147 C1131 1.242 . S
O1148 Sm1120 2.386 . S
O1148 Sm1121 2.681 . S
O1148 C1138 1.271 . S
O1149 Sm1121 2.464 . S
O1149 C1138 1.251 . S
O1150 Sm1121 2.396 . S
O1150 C1139 1.252 . S
O1151 Sm1120 2.408 . S
O1151 C1139 1.272 . S
H1152 C1124 0.930 . S
H1153 C1125 0.929 . S
H1154 C1127 0.930 . S
H1155 C1128 0.929 1_554 S
H1156 C1133 0.930 . S
H1157 C1134 0.929 . S
H1158 C1136 0.930 . S
H1159 C1137 0.929 . S
Sm1160 C1162 2.846 . S
Sm1160 O1180 2.543 . S
Sm1160 O1181 2.450 . S
Sm1160 O1182 2.681 . S
Sm1160 O1183 2.464 . S
Sm1160 O1184 2.396 . S
Sm1160 O1188 2.386 . S
Sm1160 O1191 2.408 . S
Sm1161 C1171 2.846 . S
Sm1161 O1182 2.386 . S
Sm1161 O1185 2.408 . S
Sm1161 O1186 2.543 . S
Sm1161 O1187 2.450 . S
Sm1161 O1188 2.681 . S
Sm1161 O1189 2.464 . S
Sm1161 O1190 2.396 . S
C1162 Sm1160 2.846 . S
C1162 C1163 1.506 . S
C1162 O1180 1.261 . S
C1162 O1181 1.242 . S
C1163 C1162 1.506 . S
C1163 C1164 1.358 1_554 S
C1163 C1168 1.382 1_554 S
C1164 C1163 1.358 1_556 S
C1164 C1165 1.385 . S
C1164 H1192 0.930 . S
C1165 C1164 1.385 . S
C1165 C1166 1.395 . S
C1165 H1193 0.929 . S
C1166 C1165 1.395 . S
C1166 C1167 1.335 . S
C1167 C1166 1.335 . S
C1167 C1168 1.398 . S
C1167 H1194 0.930 . S
C1168 C1163 1.382 1_556 S
C1168 C1167 1.398 . S
C1168 H1195 0.929 1_556 S
C1169 O1182 1.271 . S
C1169 O1183 1.251 . S
C1170 O1184 1.252 . S
C1170 O1185 1.272 . S
C1171 Sm1161 2.846 . S
C1171 C1172 1.506 . S
C1171 O1186 1.261 . S
C1171 O1187 1.242 . S
C1172 C1171 1.506 . S
C1172 C1173 1.358 . S
C1172 C1177 1.382 . S
C1173 C1172 1.358 . S
C1173 C1174 1.385 . S
C1173 H1196 0.930 . S
C1174 C1173 1.385 . S
C1174 C1175 1.395 . S
C1174 H1197 0.929 . S
C1175 C1174 1.395 . S
C1175 C1176 1.335 . S
C1176 C1175 1.335 . S
C1176 C1177 1.398 . S
C1176 H1198 0.930 . S
C1177 C1172 1.382 . S
C1177 C1176 1.398 . S
C1177 H1199 0.929 . S
C1178 O1188 1.271 . S
C1178 O1189 1.251 . S
C1179 O1190 1.252 . S
C1179 O1191 1.272 . S
O1180 Sm1160 2.543 . S
O1180 C1162 1.261 . S
O1181 Sm1160 2.450 . S
O1181 C1162 1.242 . S
O1182 Sm1160 2.681 . S
O1182 Sm1161 2.386 . S
O1182 C1169 1.271 . S
O1183 Sm1160 2.464 . S
O1183 C1169 1.251 . S
O1184 Sm1160 2.396 . S
O1184 C1170 1.252 . S
O1185 Sm1161 2.408 . S
O1185 C1170 1.272 . S
O1186 Sm1161 2.543 . S
O1186 C1171 1.261 . S
O1187 Sm1161 2.450 . S
O1187 C1171 1.242 . S
O1188 Sm1160 2.386 . S
O1188 Sm1161 2.681 . S
O1188 C1178 1.271 . S
O1189 Sm1161 2.464 . S
O1189 C1178 1.251 . S
O1190 Sm1161 2.396 . S
O1190 C1179 1.252 . S
O1191 Sm1160 2.408 . S
O1191 C1179 1.272 . S
H1192 C1164 0.930 . S
H1193 C1165 0.929 . S
H1194 C1167 0.930 . S
H1195 C1168 0.929 1_554 S
H1196 C1173 0.930 . S
H1197 C1174 0.929 . S
H1198 C1176 0.930 . S
H1199 C1177 0.929 . S
Sm1200 C1202 2.846 . S
Sm1200 O1220 2.543 . S
Sm1200 O1221 2.450 . S
Sm1200 O1222 2.681 . S
Sm1200 O1223 2.464 . S
Sm1200 O1224 2.396 . S
Sm1200 O1228 2.386 . S
Sm1200 O1231 2.408 . S
Sm1201 C1211 2.846 . S
Sm1201 O1222 2.386 . S
Sm1201 O1225 2.408 . S
Sm1201 O1226 2.543 . S
Sm1201 O1227 2.450 . S
Sm1201 O1228 2.681 . S
Sm1201 O1229 2.464 . S
Sm1201 O1230 2.396 . S
C1202 Sm1200 2.846 . S
C1202 C1203 1.506 . S
C1202 O1220 1.261 . S
C1202 O1221 1.242 . S
C1203 C1202 1.506 . S
C1203 C1204 1.358 . S
C1203 C1208 1.382 . S
C1204 C1203 1.358 . S
C1204 C1205 1.385 . S
C1204 H1232 0.930 . S
C1205 C1204 1.385 . S
C1205 C1206 1.395 . S
C1205 H1233 0.929 . S
C1206 C1205 1.395 . S
C1206 C1207 1.335 . S
C1207 C1206 1.335 . S
C1207 C1208 1.398 . S
C1207 H1234 0.930 . S
C1208 C1203 1.382 . S
C1208 C1207 1.398 . S
C1208 H1235 0.929 . S
C1209 O1222 1.271 . S
C1209 O1223 1.251 . S
C1210 O1224 1.252 . S
C1210 O1225 1.272 . S
C1211 Sm1201 2.846 . S
C1211 C1212 1.506 . S
C1211 O1226 1.261 . S
C1211 O1227 1.242 . S
C1212 C1211 1.506 . S
C1212 C1213 1.358 . S
C1212 C1217 1.382 . S
C1213 C1212 1.358 . S
C1213 C1214 1.385 . S
C1213 H1236 0.930 . S
C1214 C1213 1.385 . S
C1214 C1215 1.395 . S
C1214 H1237 0.929 . S
C1215 C1214 1.395 . S
C1215 C1216 1.335 . S
C1216 C1215 1.335 . S
C1216 C1217 1.398 . S
C1216 H1238 0.930 . S
C1217 C1212 1.382 . S
C1217 C1216 1.398 . S
C1217 H1239 0.929 . S
C1218 O1228 1.271 . S
C1218 O1229 1.251 . S
C1219 O1230 1.252 . S
C1219 O1231 1.272 . S
O1220 Sm1200 2.543 . S
O1220 C1202 1.261 . S
O1221 Sm1200 2.450 . S
O1221 C1202 1.242 . S
O1222 Sm1200 2.681 . S
O1222 Sm1201 2.386 . S
O1222 C1209 1.271 . S
O1223 Sm1200 2.464 . S
O1223 C1209 1.251 . S
O1224 Sm1200 2.396 . S
O1224 C1210 1.252 . S
O1225 Sm1201 2.408 . S
O1225 C1210 1.272 . S
O1226 Sm1201 2.543 . S
O1226 C1211 1.261 . S
O1227 Sm1201 2.450 . S
O1227 C1211 1.242 . S
O1228 Sm1200 2.386 . S
O1228 Sm1201 2.681 . S
O1228 C1218 1.271 . S
O1229 Sm1201 2.464 . S
O1229 C1218 1.251 . S
O1230 Sm1201 2.396 . S
O1230 C1219 1.252 . S
O1231 Sm1200 2.408 . S
O1231 C1219 1.272 . S
H1232 C1204 0.930 . S
H1233 C1205 0.929 . S
H1234 C1207 0.930 . S
H1235 C1208 0.929 . S
H1236 C1213 0.930 . S
H1237 C1214 0.929 . S
H1238 C1216 0.930 . S
H1239 C1217 0.929 . S
Sm1240 C1242 2.846 . S
Sm1240 O1260 2.543 . S
Sm1240 O1261 2.450 . S
Sm1240 O1262 2.681 . S
Sm1240 O1263 2.464 . S
Sm1240 O1264 2.396 . S
Sm1240 O1268 2.386 . S
Sm1240 O1271 2.408 . S
Sm1241 C1251 2.846 . S
Sm1241 O1262 2.386 . S
Sm1241 O1265 2.408 . S
Sm1241 O1266 2.543 . S
Sm1241 O1267 2.450 . S
Sm1241 O1268 2.681 . S
Sm1241 O1269 2.464 . S
Sm1241 O1270 2.396 . S
C1242 Sm1240 2.846 . S
C1242 C1243 1.506 . S
C1242 O1260 1.261 . S
C1242 O1261 1.242 . S
C1243 C1242 1.506 . S
C1243 C1244 1.358 . S
C1243 C1248 1.382 . S
C1244 C1243 1.358 . S
C1244 C1245 1.385 . S
C1244 H1272 0.930 . S
C1245 C1244 1.385 . S
C1245 C1246 1.395 . S
C1245 H1273 0.929 . S
C1246 C1245 1.395 . S
C1246 C1247 1.335 . S
C1247 C1246 1.335 . S
C1247 C1248 1.398 . S
C1247 H1274 0.930 . S
C1248 C1243 1.382 . S
C1248 C1247 1.398 . S
C1248 H1275 0.929 . S
C1249 O1262 1.271 . S
C1249 O1263 1.251 . S
C1250 O1264 1.252 . S
C1250 O1265 1.272 . S
C1251 Sm1241 2.846 . S
C1251 C1252 1.506 . S
C1251 O1266 1.261 . S
C1251 O1267 1.242 . S
C1252 C1251 1.506 . S
C1252 C1253 1.358 . S
C1252 C1257 1.382 . S
C1253 C1252 1.358 . S
C1253 C1254 1.385 . S
C1253 H1276 0.930 . S
C1254 C1253 1.385 . S
C1254 C1255 1.395 . S
C1254 H1277 0.929 . S
C1255 C1254 1.395 . S
C1255 C1256 1.335 . S
C1256 C1255 1.335 . S
C1256 C1257 1.398 . S
C1256 H1278 0.930 . S
C1257 C1252 1.382 . S
C1257 C1256 1.398 . S
C1257 H1279 0.929 . S
C1258 O1268 1.271 . S
C1258 O1269 1.251 . S
C1259 O1270 1.252 . S
C1259 O1271 1.272 . S
O1260 Sm1240 2.543 . S
O1260 C1242 1.261 . S
O1261 Sm1240 2.450 . S
O1261 C1242 1.242 . S
O1262 Sm1240 2.681 . S
O1262 Sm1241 2.386 . S
O1262 C1249 1.271 . S
O1263 Sm1240 2.464 . S
O1263 C1249 1.251 . S
O1264 Sm1240 2.396 . S
O1264 C1250 1.252 . S
O1265 Sm1241 2.408 . S
O1265 C1250 1.272 . S
O1266 Sm1241 2.543 . S
O1266 C1251 1.261 . S
O1267 Sm1241 2.450 . S
O1267 C1251 1.242 . S
O1268 Sm1240 2.386 . S
O1268 Sm1241 2.681 . S
O1268 C1258 1.271 . S
O1269 Sm1241 2.464 . S
O1269 C1258 1.251 . S
O1270 Sm1241 2.396 . S
O1270 C1259 1.252 . S
O1271 Sm1240 2.408 . S
O1271 C1259 1.272 . S
H1272 C1244 0.930 . S
H1273 C1245 0.929 . S
H1274 C1247 0.930 . S
H1275 C1248 0.929 . S
H1276 C1253 0.930 . S
H1277 C1254 0.929 . S
H1278 C1256 0.930 . S
H1279 C1257 0.929 . S
Sm1280 C1282 2.846 . S
Sm1280 O1300 2.543 . S
Sm1280 O1301 2.450 . S
Sm1280 O1302 2.681 . S
Sm1280 O1303 2.464 . S
Sm1280 O1304 2.396 . S
Sm1280 O1308 2.386 . S
Sm1280 O1311 2.408 . S
Sm1281 C1291 2.846 . S
Sm1281 O1302 2.386 . S
Sm1281 O1305 2.408 . S
Sm1281 O1306 2.543 . S
Sm1281 O1307 2.450 . S
Sm1281 O1308 2.681 . S
Sm1281 O1309 2.464 . S
Sm1281 O1310 2.396 . S
C1282 Sm1280 2.846 . S
C1282 C1283 1.506 . S
C1282 O1300 1.261 . S
C1282 O1301 1.242 . S
C1283 C1282 1.506 . S
C1283 C1284 1.358 . S
C1283 C1288 1.382 . S
C1284 C1283 1.358 . S
C1284 C1285 1.385 . S
C1284 H1312 0.930 . S
C1285 C1284 1.385 . S
C1285 C1286 1.395 . S
C1285 H1313 0.929 . S
C1286 C1285 1.395 . S
C1286 C1287 1.335 . S
C1287 C1286 1.335 . S
C1287 C1288 1.398 . S
C1287 H1314 0.930 . S
C1288 C1283 1.382 . S
C1288 C1287 1.398 . S
C1288 H1315 0.929 . S
C1289 O1302 1.271 . S
C1289 O1303 1.251 . S
C1290 O1304 1.252 . S
C1290 O1305 1.272 . S
C1291 Sm1281 2.846 . S
C1291 C1292 1.506 . S
C1291 O1306 1.261 . S
C1291 O1307 1.242 . S
C1292 C1291 1.506 . S
C1292 C1293 1.358 . S
C1292 C1297 1.382 . S
C1293 C1292 1.358 . S
C1293 C1294 1.385 . S
C1293 H1316 0.930 . S
C1294 C1293 1.385 . S
C1294 C1295 1.395 . S
C1294 H1317 0.929 . S
C1295 C1294 1.395 . S
C1295 C1296 1.335 . S
C1296 C1295 1.335 . S
C1296 C1297 1.398 . S
C1296 H1318 0.930 . S
C1297 C1292 1.382 . S
C1297 C1296 1.398 . S
C1297 H1319 0.929 . S
C1298 O1308 1.271 . S
C1298 O1309 1.251 . S
C1299 O1310 1.252 . S
C1299 O1311 1.272 . S
O1300 Sm1280 2.543 . S
O1300 C1282 1.261 . S
O1301 Sm1280 2.450 . S
O1301 C1282 1.242 . S
O1302 Sm1280 2.681 . S
O1302 Sm1281 2.386 . S
O1302 C1289 1.271 . S
O1303 Sm1280 2.464 . S
O1303 C1289 1.251 . S
O1304 Sm1280 2.396 . S
O1304 C1290 1.252 . S
O1305 Sm1281 2.408 . S
O1305 C1290 1.272 . S
O1306 Sm1281 2.543 . S
O1306 C1291 1.261 . S
O1307 Sm1281 2.450 . S
O1307 C1291 1.242 . S
O1308 Sm1280 2.386 . S
O1308 Sm1281 2.681 . S
O1308 C1298 1.271 . S
O1309 Sm1281 2.464 . S
O1309 C1298 1.251 . S
O1310 Sm1281 2.396 . S
O1310 C1299 1.252 . S
O1311 Sm1280 2.408 . S
O1311 C1299 1.272 . S
H1312 C1284 0.930 . S
H1313 C1285 0.929 . S
H1314 C1287 0.930 . S
H1315 C1288 0.929 . S
H1316 C1293 0.930 . S
H1317 C1294 0.929 . S
H1318 C1296 0.930 . S
H1319 C1297 0.929 . S
Sm1320 C1322 2.846 . S
Sm1320 O1340 2.543 . S
Sm1320 O1341 2.450 . S
Sm1320 O1342 2.681 . S
Sm1320 O1343 2.464 . S
Sm1320 O1344 2.396 . S
Sm1320 O1348 2.386 . S
Sm1320 O1351 2.408 . S
Sm1321 C1331 2.846 . S
Sm1321 O1342 2.386 . S
Sm1321 O1345 2.408 . S
Sm1321 O1346 2.543 . S
Sm1321 O1347 2.450 . S
Sm1321 O1348 2.681 . S
Sm1321 O1349 2.464 . S
Sm1321 O1350 2.396 . S
C1322 Sm1320 2.846 . S
C1322 C1323 1.506 . S
C1322 O1340 1.261 . S
C1322 O1341 1.242 . S
C1323 C1322 1.506 . S
C1323 C1324 1.358 . S
C1323 C1328 1.382 . S
C1324 C1323 1.358 . S
C1324 C1325 1.385 . S
C1324 H1352 0.930 . S
C1325 C1324 1.385 . S
C1325 C1326 1.395 . S
C1325 H1353 0.929 . S
C1326 C1325 1.395 . S
C1326 C1327 1.335 . S
C1327 C1326 1.335 . S
C1327 C1328 1.398 . S
C1327 H1354 0.930 . S
C1328 C1323 1.382 . S
C1328 C1327 1.398 . S
C1328 H1355 0.929 . S
C1329 O1342 1.271 . S
C1329 O1343 1.251 . S
C1330 O1344 1.252 . S
C1330 O1345 1.272 . S
C1331 Sm1321 2.846 . S
C1331 C1332 1.506 . S
C1331 O1346 1.261 . S
C1331 O1347 1.242 . S
C1332 C1331 1.506 . S
C1332 C1333 1.358 . S
C1332 C1337 1.382 . S
C1333 C1332 1.358 . S
C1333 C1334 1.385 . S
C1333 H1356 0.930 . S
C1334 C1333 1.385 . S
C1334 C1335 1.395 . S
C1334 H1357 0.929 . S
C1335 C1334 1.395 . S
C1335 C1336 1.335 . S
C1336 C1335 1.335 . S
C1336 C1337 1.398 . S
C1336 H1358 0.930 . S
C1337 C1332 1.382 . S
C1337 C1336 1.398 . S
C1337 H1359 0.929 . S
C1338 O1348 1.271 . S
C1338 O1349 1.251 . S
C1339 O1350 1.252 . S
C1339 O1351 1.272 . S
O1340 Sm1320 2.543 . S
O1340 C1322 1.261 . S
O1341 Sm1320 2.450 . S
O1341 C1322 1.242 . S
O1342 Sm1320 2.681 . S
O1342 Sm1321 2.386 . S
O1342 C1329 1.271 . S
O1343 Sm1320 2.464 . S
O1343 C1329 1.251 . S
O1344 Sm1320 2.396 . S
O1344 C1330 1.252 . S
O1345 Sm1321 2.408 . S
O1345 C1330 1.272 . S
O1346 Sm1321 2.543 . S
O1346 C1331 1.261 . S
O1347 Sm1321 2.450 . S
O1347 C1331 1.242 . S
O1348 Sm1320 2.386 . S
O1348 Sm1321 2.681 . S
O1348 C1338 1.271 . S
O1349 Sm1321 2.464 . S
O1349 C1338 1.251 . S
O1350 Sm1321 2.396 . S
O1350 C1339 1.252 . S
O1351 Sm1320 2.408 . S
O1351 C1339 1.272 . S
H1352 C1324 0.930 . S
H1353 C1325 0.929 . S
H1354 C1327 0.930 . S
H1355 C1328 0.929 . S
H1356 C1333 0.930 . S
H1357 C1334 0.929 . S
H1358 C1336 0.930 . S
H1359 C1337 0.929 . S
Sm1360 C1362 2.846 . S
Sm1360 O1380 2.543 . S
Sm1360 O1381 2.450 . S
Sm1360 O1382 2.681 . S
Sm1360 O1383 2.464 . S
Sm1360 O1384 2.396 . S
Sm1360 O1388 2.386 . S
Sm1360 O1391 2.408 . S
Sm1361 C1371 2.846 . S
Sm1361 O1382 2.386 . S
Sm1361 O1385 2.408 . S
Sm1361 O1386 2.543 . S
Sm1361 O1387 2.450 . S
Sm1361 O1388 2.681 . S
Sm1361 O1389 2.464 . S
Sm1361 O1390 2.396 . S
C1362 Sm1360 2.846 . S
C1362 C1363 1.506 . S
C1362 O1380 1.261 . S
C1362 O1381 1.242 . S
C1363 C1362 1.506 . S
C1363 C1364 1.358 . S
C1363 C1368 1.382 . S
C1364 C1363 1.358 . S
C1364 C1365 1.385 . S
C1364 H1392 0.930 . S
C1365 C1364 1.385 . S
C1365 C1366 1.395 . S
C1365 H1393 0.929 . S
C1366 C1365 1.395 . S
C1366 C1367 1.335 . S
C1367 C1366 1.335 . S
C1367 C1368 1.398 . S
C1367 H1394 0.930 . S
C1368 C1363 1.382 . S
C1368 C1367 1.398 . S
C1368 H1395 0.929 . S
C1369 O1382 1.271 . S
C1369 O1383 1.251 . S
C1370 O1384 1.252 . S
C1370 O1385 1.272 . S
C1371 Sm1361 2.846 . S
C1371 C1372 1.506 . S
C1371 O1386 1.261 . S
C1371 O1387 1.242 . S
C1372 C1371 1.506 . S
C1372 C1373 1.358 . S
C1372 C1377 1.382 . S
C1373 C1372 1.358 . S
C1373 C1374 1.385 . S
C1373 H1396 0.930 . S
C1374 C1373 1.385 . S
C1374 C1375 1.395 . S
C1374 H1397 0.929 . S
C1375 C1374 1.395 . S
C1375 C1376 1.335 . S
C1376 C1375 1.335 . S
C1376 C1377 1.398 . S
C1376 H1398 0.930 . S
C1377 C1372 1.382 . S
C1377 C1376 1.398 . S
C1377 H1399 0.929 . S
C1378 O1388 1.271 . S
C1378 O1389 1.251 . S
C1379 O1390 1.252 . S
C1379 O1391 1.272 . S
O1380 Sm1360 2.543 . S
O1380 C1362 1.261 . S
O1381 Sm1360 2.450 . S
O1381 C1362 1.242 . S
O1382 Sm1360 2.681 . S
O1382 Sm1361 2.386 . S
O1382 C1369 1.271 . S
O1383 Sm1360 2.464 . S
O1383 C1369 1.251 . S
O1384 Sm1360 2.396 . S
O1384 C1370 1.252 . S
O1385 Sm1361 2.408 . S
O1385 C1370 1.272 . S
O1386 Sm1361 2.543 . S
O1386 C1371 1.261 . S
O1387 Sm1361 2.450 . S
O1387 C1371 1.242 . S
O1388 Sm1360 2.386 . S
O1388 Sm1361 2.681 . S
O1388 C1378 1.271 . S
O1389 Sm1361 2.464 . S
O1389 C1378 1.251 . S
O1390 Sm1361 2.396 . S
O1390 C1379 1.252 . S
O1391 Sm1360 2.408 . S
O1391 C1379 1.272 . S
H1392 C1364 0.930 . S
H1393 C1365 0.929 . S
H1394 C1367 0.930 . S
H1395 C1368 0.929 . S
H1396 C1373 0.930 . S
H1397 C1374 0.929 . S
H1398 C1376 0.930 . S
H1399 C1377 0.929 . S
Sm1400 C1402 2.846 . S
Sm1400 O1420 2.543 . S
Sm1400 O1421 2.450 . S
Sm1400 O1422 2.681 . S
Sm1400 O1423 2.464 . S
Sm1400 O1424 2.396 . S
Sm1400 O1428 2.386 . S
Sm1400 O1431 2.408 . S
Sm1401 C1411 2.846 . S
Sm1401 O1422 2.386 . S
Sm1401 O1425 2.408 . S
Sm1401 O1426 2.543 . S
Sm1401 O1427 2.450 . S
Sm1401 O1428 2.681 . S
Sm1401 O1429 2.464 . S
Sm1401 O1430 2.396 . S
C1402 Sm1400 2.846 . S
C1402 C1403 1.506 . S
C1402 O1420 1.261 . S
C1402 O1421 1.242 . S
C1403 C1402 1.506 . S
C1403 C1404 1.358 . S
C1403 C1408 1.382 . S
C1404 C1403 1.358 . S
C1404 C1405 1.385 . S
C1404 H1432 0.930 . S
C1405 C1404 1.385 . S
C1405 C1406 1.395 . S
C1405 H1433 0.929 . S
C1406 C1405 1.395 . S
C1406 C1407 1.335 . S
C1407 C1406 1.335 . S
C1407 C1408 1.398 . S
C1407 H1434 0.930 . S
C1408 C1403 1.382 . S
C1408 C1407 1.398 . S
C1408 H1435 0.929 . S
C1409 O1422 1.271 . S
C1409 O1423 1.251 . S
C1410 O1424 1.252 . S
C1410 O1425 1.272 . S
C1411 Sm1401 2.846 . S
C1411 C1412 1.506 . S
C1411 O1426 1.261 . S
C1411 O1427 1.242 . S
C1412 C1411 1.506 . S
C1412 C1413 1.358 . S
C1412 C1417 1.382 . S
C1413 C1412 1.358 . S
C1413 C1414 1.385 . S
C1413 H1436 0.930 . S
C1414 C1413 1.385 . S
C1414 C1415 1.395 . S
C1414 H1437 0.929 . S
C1415 C1414 1.395 . S
C1415 C1416 1.335 . S
C1416 C1415 1.335 . S
C1416 C1417 1.398 . S
C1416 H1438 0.930 . S
C1417 C1412 1.382 . S
C1417 C1416 1.398 . S
C1417 H1439 0.929 . S
C1418 O1428 1.271 . S
C1418 O1429 1.251 . S
C1419 O1430 1.252 . S
C1419 O1431 1.272 . S
O1420 Sm1400 2.543 . S
O1420 C1402 1.261 . S
O1421 Sm1400 2.450 . S
O1421 C1402 1.242 . S
O1422 Sm1400 2.681 . S
O1422 Sm1401 2.386 . S
O1422 C1409 1.271 . S
O1423 Sm1400 2.464 . S
O1423 C1409 1.251 . S
O1424 Sm1400 2.396 . S
O1424 C1410 1.252 . S
O1425 Sm1401 2.408 . S
O1425 C1410 1.272 . S
O1426 Sm1401 2.543 . S
O1426 C1411 1.261 . S
O1427 Sm1401 2.450 . S
O1427 C1411 1.242 . S
O1428 Sm1400 2.386 . S
O1428 Sm1401 2.681 . S
O1428 C1418 1.271 . S
O1429 Sm1401 2.464 . S
O1429 C1418 1.251 . S
O1430 Sm1401 2.396 . S
O1430 C1419 1.252 . S
O1431 Sm1400 2.408 . S
O1431 C1419 1.272 . S
H1432 C1404 0.930 . S
H1433 C1405 0.929 . S
H1434 C1407 0.930 . S
H1435 C1408 0.929 . S
H1436 C1413 0.930 . S
H1437 C1414 0.929 . S
H1438 C1416 0.930 . S
H1439 C1417 0.929 . S
C1440 C1441 1.369 . S
C1440 C1442 1.419 . S
C1440 H1444 0.930 . S
C1441 C1440 1.369 . S
C1441 C1450 1.429 . S
C1442 C1440 1.419 . S
C1442 C1443 1.363 1_556 S
C1442 H1445 0.929 . S
C1443 C1442 1.363 1_554 S
C1443 C1449 1.428 1_554 S
H1444 C1440 0.930 . S
H1445 C1442 0.929 . S
S1446 N1447 1.613 . S
S1446 N1448 1.610 1_556 S
N1447 S1446 1.613 . S
N1447 C1450 1.350 . S
N1448 S1446 1.610 1_554 S
N1448 C1449 1.351 1_554 S
C1449 C1443 1.428 1_556 S
C1449 N1448 1.351 1_556 S
C1449 C1450 1.434 . S
C1450 C1441 1.429 . S
C1450 N1447 1.350 . S
C1450 C1449 1.434 . S
C1451 C1452 1.369 . S
C1451 C1453 1.419 . S
C1451 H1455 0.930 . S
C1452 C1451 1.369 . S
C1452 C1461 1.429 . S
C1453 C1451 1.419 . S
C1453 C1454 1.363 1_556 S
C1453 H1456 0.929 . S
C1454 C1453 1.363 1_554 S
C1454 C1460 1.432 . S
H1455 C1451 0.930 . S
H1456 C1453 0.929 . S
S1457 N1458 1.613 . S
S1457 N1459 1.610 1_556 S
N1458 S1457 1.613 . S
N1458 C1461 1.350 . S
N1459 S1457 1.610 1_554 S
N1459 C1460 1.357 . S
C1460 C1454 1.432 . S
C1460 N1459 1.357 . S
C1460 C1461 1.424 1_554 S
C1461 C1452 1.429 . S
C1461 N1458 1.350 . S
C1461 C1460 1.424 1_556 S
C1462 C1463 1.369 1_556 S
C1462 C1464 1.419 . S
C1462 H1466 0.930 1_556 S
C1463 C1462 1.369 1_554 S
C1463 C1472 1.429 1_554 S
C1464 C1462 1.419 . S
C1464 C1465 1.363 . S
C1464 H1467 0.929 . S
C1465 C1464 1.363 . S
C1465 C1471 1.428 . S
H1466 C1462 0.930 1_554 S
H1467 C1464 0.929 . S
S1468 N1469 1.613 . S
S1468 N1470 1.610 . S
N1469 S1468 1.613 . S
N1469 C1472 1.350 . S
N1470 S1468 1.610 . S
N1470 C1471 1.351 . S
C1471 C1465 1.428 . S
C1471 N1470 1.351 . S
C1471 C1472 1.434 . S
C1472 C1463 1.429 1_556 S
C1472 N1469 1.350 . S
C1472 C1471 1.434 . S
C1473 C1474 1.369 . S
C1473 C1475 1.419 . S
C1473 H1477 0.930 . S
C1474 C1473 1.369 . S
C1474 C1483 1.429 . S
C1475 C1473 1.419 . S
C1475 C1476 1.363 . S
C1475 H1478 0.929 . S
C1476 C1475 1.363 . S
C1476 C1482 1.428 . S
H1477 C1473 0.930 . S
H1478 C1475 0.929 . S
S1479 N1480 1.613 . S
S1479 N1481 1.610 . S
N1480 S1479 1.613 . S
N1480 C1483 1.350 . S
N1481 S1479 1.610 . S
N1481 C1482 1.351 . S
C1482 C1476 1.428 . S
C1482 N1481 1.351 . S
C1482 C1483 1.434 . S
C1483 C1474 1.429 . S
C1483 N1480 1.350 . S
C1483 C1482 1.434 . S
C1484 C1485 1.369 . S
C1484 C1486 1.419 . S
C1484 H1488 0.930 . S
C1485 C1484 1.369 . S
C1485 C1494 1.429 . S
C1486 C1484 1.419 . S
C1486 C1487 1.363 . S
C1486 H1489 0.929 . S
C1487 C1486 1.363 . S
C1487 C1493 1.428 . S
H1488 C1484 0.930 . S
H1489 C1486 0.929 . S
S1490 N1491 1.613 . S
S1490 N1492 1.610 . S
N1491 S1490 1.613 . S
N1491 C1494 1.350 . S
N1492 S1490 1.610 . S
N1492 C1493 1.351 . S
C1493 C1487 1.428 . S
C1493 N1492 1.351 . S
C1493 C1494 1.434 . S
C1494 C1485 1.429 . S
C1494 N1491 1.350 . S
C1494 C1493 1.434 . S
C1495 C1496 1.369 . S
C1495 C1497 1.419 . S
C1495 H1499 0.930 . S
C1496 C1495 1.369 . S
C1496 C1505 1.429 . S
C1497 C1495 1.419 . S
C1497 C1498 1.363 . S
C1497 H1500 0.929 . S
C1498 C1497 1.363 . S
C1498 C1504 1.428 . S
H1499 C1495 0.930 . S
H1500 C1497 0.929 . S
S1501 N1502 1.613 . S
S1501 N1503 1.610 . S
N1502 S1501 1.613 . S
N1502 C1505 1.350 . S
N1503 S1501 1.610 . S
N1503 C1504 1.351 . S
C1504 C1498 1.428 . S
C1504 N1503 1.351 . S
C1504 C1505 1.434 . S
C1505 C1496 1.429 . S
C1505 N1502 1.350 . S
C1505 C1504 1.434 . S
C1506 C1507 1.369 . S
C1506 C1508 1.419 . S
C1506 H1510 0.930 . S
C1507 C1506 1.369 . S
C1507 C1516 1.429 . S
C1508 C1506 1.419 . S
C1508 C1509 1.363 . S
C1508 H1511 0.929 . S
C1509 C1508 1.363 . S
C1509 C1515 1.428 . S
H1510 C1506 0.930 . S
H1511 C1508 0.929 . S
S1512 N1513 1.613 . S
S1512 N1514 1.610 . S
N1513 S1512 1.613 . S
N1513 C1516 1.350 . S
N1514 S1512 1.610 . S
N1514 C1515 1.351 . S
C1515 C1509 1.428 . S
C1515 N1514 1.351 . S
C1515 C1516 1.434 . S
C1516 C1507 1.429 . S
C1516 N1513 1.350 . S
C1516 C1515 1.434 . S
C1517 C1518 1.369 . S
C1517 C1519 1.419 . S
C1517 H1521 0.930 . S
C1518 C1517 1.369 . S
C1518 C1527 1.429 . S
C1519 C1517 1.419 . S
C1519 C1520 1.363 . S
C1519 H1522 0.929 . S
C1520 C1519 1.363 . S
C1520 C1526 1.428 . S
H1521 C1517 0.930 . S
H1522 C1519 0.929 . S
S1523 N1524 1.613 . S
S1523 N1525 1.610 . S
N1524 S1523 1.613 . S
N1524 C1527 1.350 . S
N1525 S1523 1.610 . S
N1525 C1526 1.351 . S
C1526 C1520 1.428 . S
C1526 N1525 1.351 . S
C1526 C1527 1.434 . S
C1527 C1518 1.429 . S
C1527 N1524 1.350 . S
C1527 C1526 1.434 . S
C1528 C1529 1.369 . S
C1528 C1530 1.419 . S
C1528 H1532 0.930 . S
C1529 C1528 1.369 . S
C1529 C1538 1.429 . S
C1530 C1528 1.419 . S
C1530 C1531 1.363 . S
C1530 H1533 0.929 . S
C1531 C1530 1.363 . S
C1531 C1537 1.428 . S
H1532 C1528 0.930 . S
H1533 C1530 0.929 . S
S1534 N1535 1.613 . S
S1534 N1536 1.610 . S
N1535 S1534 1.613 . S
N1535 C1538 1.350 . S
N1536 S1534 1.610 . S
N1536 C1537 1.351 . S
C1537 C1531 1.428 . S
C1537 N1536 1.351 . S
C1537 C1538 1.434 . S
C1538 C1529 1.429 . S
C1538 N1535 1.350 . S
C1538 C1537 1.434 . S
C1539 C1540 1.369 . S
C1539 C1541 1.419 . S
C1539 H1543 0.930 . S
C1540 C1539 1.369 . S
C1540 C1549 1.429 . S
C1541 C1539 1.419 . S
C1541 C1542 1.363 . S
C1541 H1544 0.929 . S
C1542 C1541 1.363 . S
C1542 C1548 1.428 . S
H1543 C1539 0.930 . S
H1544 C1541 0.929 . S
S1545 N1546 1.613 . S
S1545 N1547 1.610 . S
N1546 S1545 1.613 . S
N1546 C1549 1.350 . S
N1547 S1545 1.610 . S
N1547 C1548 1.351 . S
C1548 C1542 1.428 . S
C1548 N1547 1.351 . S
C1548 C1549 1.434 . S
C1549 C1540 1.429 . S
C1549 N1546 1.350 . S
C1549 C1548 1.434 . S
C1550 C1551 1.369 . S
C1550 C1552 1.419 . S
C1550 H1554 0.930 . S
C1551 C1550 1.369 . S
C1551 C1560 1.429 . S
C1552 C1550 1.419 . S
C1552 C1553 1.363 . S
C1552 H1555 0.929 . S
C1553 C1552 1.363 . S
C1553 C1559 1.428 . S
H1554 C1550 0.930 . S
H1555 C1552 0.929 . S
S1556 N1557 1.613 . S
S1556 N1558 1.610 . S
N1557 S1556 1.613 . S
N1557 C1560 1.350 . S
N1558 S1556 1.610 . S
N1558 C1559 1.351 . S
C1559 C1553 1.428 . S
C1559 N1558 1.351 . S
C1559 C1560 1.434 . S
C1560 C1551 1.429 . S
C1560 N1557 1.350 . S
C1560 C1559 1.434 . S
C1561 C1562 1.369 . S
C1561 C1563 1.419 . S
C1561 H1565 0.930 . S
C1562 C1561 1.369 . S
C1562 C1571 1.429 . S
C1563 C1561 1.419 . S
C1563 C1564 1.363 . S
C1563 H1566 0.929 . S
C1564 C1563 1.363 . S
C1564 C1570 1.428 . S
H1565 C1561 0.930 . S
H1566 C1563 0.929 . S
S1567 N1568 1.613 . S
S1567 N1569 1.610 . S
N1568 S1567 1.613 . S
N1568 C1571 1.350 . S
N1569 S1567 1.610 . S
N1569 C1570 1.351 . S
C1570 C1564 1.428 . S
C1570 N1569 1.351 . S
C1570 C1571 1.434 . S
C1571 C1562 1.429 . S
C1571 N1568 1.350 . S
C1571 C1570 1.434 . S
C1572 C1573 1.369 . S
C1572 C1574 1.419 . S
C1572 H1576 0.930 . S
C1573 C1572 1.369 . S
C1573 C1582 1.429 . S
C1574 C1572 1.419 . S
C1574 C1575 1.363 . S
C1574 H1577 0.929 . S
C1575 C1574 1.363 . S
C1575 C1581 1.428 . S
H1576 C1572 0.930 . S
H1577 C1574 0.929 . S
S1578 N1579 1.613 . S
S1578 N1580 1.610 . S
N1579 S1578 1.613 . S
N1579 C1582 1.350 . S
N1580 S1578 1.610 . S
N1580 C1581 1.351 . S
C1581 C1575 1.428 . S
C1581 N1580 1.351 . S
C1581 C1582 1.434 . S
C1582 C1573 1.429 . S
C1582 N1579 1.350 . S
C1582 C1581 1.434 . S
C1583 C1584 1.369 1_545 S
C1583 C1585 1.419 . S
C1583 H1587 0.930 . S
C1584 C1583 1.369 1_565 S
C1584 C1593 1.429 . S
C1585 C1583 1.419 . S
C1585 C1586 1.363 . S
C1585 H1588 0.929 . S
C1586 C1585 1.363 . S
C1586 C1592 1.428 1_545 S
H1587 C1583 0.930 . S
H1588 C1585 0.929 . S
S1589 N1590 1.613 . S
S1589 N1591 1.610 . S
N1590 S1589 1.613 . S
N1590 C1593 1.350 . S
N1591 S1589 1.610 . S
N1591 C1592 1.351 . S
C1592 C1586 1.428 1_565 S
C1592 N1591 1.351 . S
C1592 C1593 1.434 . S
C1593 C1584 1.429 . S
C1593 N1590 1.350 . S
C1593 C1592 1.434 . S
C1594 C1595 1.369 . S
C1594 C1596 1.419 . S
C1594 H1598 0.930 . S
C1595 C1594 1.369 . S
C1595 C1604 1.429 1_655 S
C1596 C1594 1.419 . S
C1596 C1597 1.363 1_655 S
C1596 H1599 0.929 . S
C1597 C1596 1.363 1_455 S
C1597 C1603 1.428 . S
H1598 C1594 0.930 . S
H1599 C1596 0.929 . S
S1600 N1601 1.613 . S
S1600 N1602 1.610 . S
N1601 S1600 1.613 . S
N1601 C1604 1.350 . S
N1602 S1600 1.610 . S
N1602 C1603 1.351 . S
C1603 C1597 1.428 . S
C1603 N1602 1.351 . S
C1603 C1604 1.434 . S
C1604 C1595 1.429 1_455 S
C1604 N1601 1.350 . S
C1604 C1603 1.434 . S
C1605 C1606 1.369 . S
C1605 C1607 1.419 . S
C1605 H1609 0.930 . S
C1606 C1605 1.369 . S
C1606 C1615 1.429 . S
C1607 C1605 1.419 . S
C1607 C1608 1.363 . S
C1607 H1610 0.929 . S
C1608 C1607 1.363 . S
C1608 C1614 1.428 . S
H1609 C1605 0.930 . S
H1610 C1607 0.929 . S
S1611 N1612 1.613 . S
S1611 N1613 1.610 . S
N1612 S1611 1.613 . S
N1612 C1615 1.350 . S
N1613 S1611 1.610 . S
N1613 C1614 1.351 . S
C1614 C1608 1.428 . S
C1614 N1613 1.351 . S
C1614 C1615 1.434 . S
C1615 C1606 1.429 . S
C1615 N1612 1.350 . S
C1615 C1614 1.434 . S
C1616 C1617 1.369 1_565 S
C1616 C1618 1.419 . S
C1616 H1620 0.930 . S
C1617 C1616 1.369 1_545 S
C1617 C1626 1.429 . S
C1618 C1616 1.419 . S
C1618 C1619 1.363 . S
C1618 H1621 0.929 . S
C1619 C1618 1.363 . S
C1619 C1625 1.428 1_565 S
H1620 C1616 0.930 . S
H1621 C1618 0.929 . S
S1622 N1623 1.613 . S
S1622 N1624 1.610 . S
N1623 S1622 1.613 . S
N1623 C1626 1.350 . S
N1624 S1622 1.610 . S
N1624 C1625 1.351 . S
C1625 C1619 1.428 1_545 S
C1625 N1624 1.351 . S
C1625 C1626 1.434 . S
C1626 C1617 1.429 . S
C1626 N1623 1.350 . S
C1626 C1625 1.434 . S
C1627 C1628 1.369 1_655 S
C1627 C1629 1.419 . S
C1627 H1631 0.930 . S
C1628 C1627 1.369 1_455 S
C1628 C1637 1.429 . S
C1629 C1627 1.419 . S
C1629 C1630 1.363 . S
C1629 H1632 0.929 . S
C1630 C1629 1.363 . S
C1630 C1636 1.428 1_655 S
H1631 C1627 0.930 . S
H1632 C1629 0.929 . S
S1633 N1634 1.613 . S
S1633 N1635 1.610 . S
N1634 S1633 1.613 . S
N1634 C1637 1.350 . S
N1635 S1633 1.610 . S
N1635 C1636 1.351 . S
C1636 C1630 1.428 1_455 S
C1636 N1635 1.351 . S
C1636 C1637 1.434 . S
C1637 C1628 1.429 . S
C1637 N1634 1.350 . S
C1637 C1636 1.434 . S
C1638 C1639 1.369 1_655 S
C1638 C1640 1.419 . S
C1638 H1642 0.930 . S
C1639 C1638 1.369 1_455 S
C1639 C1648 1.429 . S
C1640 C1638 1.419 . S
C1640 C1641 1.363 . S
C1640 H1643 0.929 . S
C1641 C1640 1.363 . S
C1641 C1647 1.428 1_655 S
H1642 C1638 0.930 . S
H1643 C1640 0.929 . S
S1644 N1645 1.613 . S
S1644 N1646 1.610 . S
N1645 S1644 1.613 . S
N1645 C1648 1.350 . S
N1646 S1644 1.610 . S
N1646 C1647 1.351 . S
C1647 C1641 1.428 1_455 S
C1647 N1646 1.351 . S
C1647 C1648 1.434 . S
C1648 C1639 1.429 . S
C1648 N1645 1.350 . S
C1648 C1647 1.434 . S
C1649 C1650 1.369 . S
C1649 C1651 1.419 . S
C1649 H1653 0.930 . S
C1650 C1649 1.369 . S
C1650 C1659 1.429 . S
C1651 C1649 1.419 . S
C1651 C1652 1.363 . S
C1651 H1654 0.929 . S
C1652 C1651 1.363 . S
C1652 C1658 1.428 . S
H1653 C1649 0.930 . S
H1654 C1651 0.929 . S
S1655 N1656 1.613 . S
S1655 N1657 1.610 . S
N1656 S1655 1.613 . S
N1656 C1659 1.350 . S
N1657 S1655 1.610 . S
N1657 C1658 1.351 . S
C1658 C1652 1.428 . S
C1658 N1657 1.351 . S
C1658 C1659 1.434 . S
C1659 C1650 1.429 . S
C1659 N1656 1.350 . S
C1659 C1658 1.434 . S
C1660 C1661 1.369 1_545 S
C1660 C1662 1.419 . S
C1660 H1664 0.930 . S
C1661 C1660 1.369 1_565 S
C1661 C1670 1.429 . S
C1662 C1660 1.419 . S
C1662 C1663 1.363 . S
C1662 H1665 0.929 . S
C1663 C1662 1.363 . S
C1663 C1669 1.428 1_545 S
H1664 C1660 0.930 . S
H1665 C1662 0.929 . S
S1666 N1667 1.613 . S
S1666 N1668 1.610 . S
N1667 S1666 1.613 . S
N1667 C1670 1.350 . S
N1668 S1666 1.610 . S
N1668 C1669 1.351 . S
C1669 C1663 1.428 1_565 S
C1669 N1668 1.351 . S
C1669 C1670 1.434 . S
C1670 C1661 1.429 . S
C1670 N1667 1.350 . S
C1670 C1669 1.434 . S
C1671 C1672 1.369 1_455 S
C1671 C1673 1.419 . S
C1671 H1675 0.930 . S
C1672 C1671 1.369 1_655 S
C1672 C1681 1.429 . S
C1673 C1671 1.419 . S
C1673 C1674 1.363 . S
C1673 H1676 0.929 . S
C1674 C1673 1.363 . S
C1674 C1680 1.428 1_455 S
H1675 C1671 0.930 . S
H1676 C1673 0.929 . S
S1677 N1678 1.613 . S
S1677 N1679 1.610 . S
N1678 S1677 1.613 . S
N1678 C1681 1.350 . S
N1679 S1677 1.610 . S
N1679 C1680 1.351 . S
C1680 C1674 1.428 1_655 S
C1680 N1679 1.351 . S
C1680 C1681 1.434 . S
C1681 C1672 1.429 . S
C1681 N1678 1.350 . S
C1681 C1680 1.434 . S
C1682 C1683 1.369 . S
C1682 C1684 1.419 . S
C1682 H1686 0.930 . S
C1683 C1682 1.369 . S
C1683 C1692 1.429 . S
C1684 C1682 1.419 . S
C1684 C1685 1.363 . S
C1684 H1687 0.929 . S
C1685 C1684 1.363 . S
C1685 C1691 1.428 . S
H1686 C1682 0.930 . S
H1687 C1684 0.929 . S
S1688 N1689 1.613 . S
S1688 N1690 1.610 . S
N1689 S1688 1.613 . S
N1689 C1692 1.350 . S
N1690 S1688 1.610 . S
N1690 C1691 1.351 . S
C1691 C1685 1.428 . S
C1691 N1690 1.351 . S
C1691 C1692 1.434 . S
C1692 C1683 1.429 . S
C1692 N1689 1.350 . S
C1692 C1691 1.434 . S
C1693 C1694 1.369 1_565 S
C1693 C1695 1.419 . S
C1693 H1697 0.930 . S
C1694 C1693 1.369 1_545 S
C1694 C1703 1.429 . S
C1695 C1693 1.419 . S
C1695 C1696 1.363 . S
C1695 H1698 0.929 . S
C1696 C1695 1.363 . S
C1696 C1702 1.428 1_565 S
H1697 C1693 0.930 . S
H1698 C1695 0.929 . S
S1699 N1700 1.613 . S
S1699 N1701 1.610 . S
N1700 S1699 1.613 . S
N1700 C1703 1.350 . S
N1701 S1699 1.610 . S
N1701 C1702 1.351 . S
C1702 C1696 1.428 1_545 S
C1702 N1701 1.351 . S
C1702 C1703 1.434 . S
C1703 C1694 1.429 . S
C1703 N1700 1.350 . S
C1703 C1702 1.434 . S
C1704 C1705 1.369 . S
C1704 C1706 1.419 . S
C1704 H1708 0.930 . S
C1705 C1704 1.369 . S
C1705 C1714 1.429 . S
C1706 C1704 1.419 . S
C1706 C1707 1.363 . S
C1706 H1709 0.929 . S
C1707 C1706 1.363 . S
C1707 C1713 1.428 . S
H1708 C1704 0.930 . S
H1709 C1706 0.929 . S
S1710 N1711 1.613 . S
S1710 N1712 1.610 . S
N1711 S1710 1.613 . S
N1711 C1714 1.350 . S
N1712 S1710 1.610 . S
N1712 C1713 1.351 . S
C1713 C1707 1.428 . S
C1713 N1712 1.351 . S
C1713 C1714 1.434 . S
C1714 C1705 1.429 . S
C1714 N1711 1.350 . S
C1714 C1713 1.434 . S
C1715 C1716 1.369 . S
C1715 C1717 1.419 . S
C1715 H1719 0.930 . S
C1716 C1715 1.369 . S
C1716 C1725 1.429 . S
C1717 C1715 1.419 . S
C1717 C1718 1.363 . S
C1717 H1720 0.929 . S
C1718 C1717 1.363 . S
C1718 C1724 1.428 . S
H1719 C1715 0.930 . S
H1720 C1717 0.929 . S
S1721 N1722 1.613 . S
S1721 N1723 1.610 . S
N1722 S1721 1.613 . S
N1722 C1725 1.350 . S
N1723 S1721 1.610 . S
N1723 C1724 1.351 . S
C1724 C1718 1.428 . S
C1724 N1723 1.351 . S
C1724 C1725 1.434 . S
C1725 C1716 1.429 . S
C1725 N1722 1.350 . S
C1725 C1724 1.434 . S
C1726 C1727 1.369 . S
C1726 C1728 1.419 . S
C1726 H1730 0.930 . S
C1727 C1726 1.369 . S
C1727 C1736 1.429 . S
C1728 C1726 1.419 . S
C1728 C1729 1.363 . S
C1728 H1731 0.929 . S
C1729 C1728 1.363 . S
C1729 C1735 1.428 . S
H1730 C1726 0.930 . S
H1731 C1728 0.929 . S
S1732 N1733 1.613 . S
S1732 N1734 1.610 . S
N1733 S1732 1.613 . S
N1733 C1736 1.350 . S
N1734 S1732 1.610 . S
N1734 C1735 1.351 . S
C1735 C1729 1.428 . S
C1735 N1734 1.351 . S
C1735 C1736 1.434 . S
C1736 C1727 1.429 . S
C1736 N1733 1.350 . S
C1736 C1735 1.434 . S
C1737 C1738 1.369 . S
C1737 C1739 1.419 . S
C1737 H1741 0.930 . S
C1738 C1737 1.369 . S
C1738 C1747 1.429 . S
C1739 C1737 1.419 . S
C1739 C1740 1.363 . S
C1739 H1742 0.929 . S
C1740 C1739 1.363 . S
C1740 C1746 1.428 . S
H1741 C1737 0.930 . S
H1742 C1739 0.929 . S
S1743 N1744 1.613 . S
S1743 N1745 1.610 . S
N1744 S1743 1.613 . S
N1744 C1747 1.350 . S
N1745 S1743 1.610 . S
N1745 C1746 1.351 . S
C1746 C1740 1.428 . S
C1746 N1745 1.351 . S
C1746 C1747 1.434 . S
C1747 C1738 1.429 . S
C1747 N1744 1.350 . S
C1747 C1746 1.434 . S
C1748 C1749 1.369 . S
C1748 C1750 1.419 . S
C1748 H1752 0.930 . S
C1749 C1748 1.369 . S
C1749 C1758 1.429 . S
C1750 C1748 1.419 . S
C1750 C1751 1.363 . S
C1750 H1753 0.929 . S
C1751 C1750 1.363 . S
C1751 C1757 1.428 . S
H1752 C1748 0.930 . S
H1753 C1750 0.929 . S
S1754 N1755 1.613 . S
S1754 N1756 1.610 . S
N1755 S1754 1.613 . S
N1755 C1758 1.350 . S
N1756 S1754 1.610 . S
N1756 C1757 1.351 . S
C1757 C1751 1.428 . S
C1757 N1756 1.351 . S
C1757 C1758 1.434 . S
C1758 C1749 1.429 . S
C1758 N1755 1.350 . S
C1758 C1757 1.434 . S
C1759 C1760 1.369 . S
C1759 C1761 1.419 . S
C1759 H1763 0.930 . S
C1760 C1759 1.369 . S
C1760 C1769 1.429 . S
C1761 C1759 1.419 . S
C1761 C1762 1.363 . S
C1761 H1764 0.929 . S
C1762 C1761 1.363 . S
C1762 C1768 1.428 . S
H1763 C1759 0.930 . S
H1764 C1761 0.929 . S
S1765 N1766 1.613 . S
S1765 N1767 1.610 . S
N1766 S1765 1.613 . S
N1766 C1769 1.350 . S
N1767 S1765 1.610 . S
N1767 C1768 1.351 . S
C1768 C1762 1.428 . S
C1768 N1767 1.351 . S
C1768 C1769 1.434 . S
C1769 C1760 1.429 . S
C1769 N1766 1.350 . S
C1769 C1768 1.434 . S
C1770 C1771 1.369 . S
C1770 C1772 1.419 . S
C1770 H1774 0.930 . S
C1771 C1770 1.369 . S
C1771 C1780 1.429 . S
C1772 C1770 1.419 . S
C1772 C1773 1.363 . S
C1772 H1775 0.929 . S
C1773 C1772 1.363 . S
C1773 C1779 1.428 . S
H1774 C1770 0.930 . S
H1775 C1772 0.929 . S
S1776 N1777 1.613 . S
S1776 N1778 1.610 . S
N1777 S1776 1.613 . S
N1777 C1780 1.350 . S
N1778 S1776 1.610 . S
N1778 C1779 1.351 . S
C1779 C1773 1.428 . S
C1779 N1778 1.351 . S
C1779 C1780 1.434 . S
C1780 C1771 1.429 . S
C1780 N1777 1.350 . S
C1780 C1779 1.434 . S
C1781 C1782 1.369 . S
C1781 C1783 1.419 . S
C1781 H1785 0.930 . S
C1782 C1781 1.369 . S
C1782 C1791 1.429 . S
C1783 C1781 1.419 . S
C1783 C1784 1.363 . S
C1783 H1786 0.929 . S
C1784 C1783 1.363 . S
C1784 C1790 1.428 . S
H1785 C1781 0.930 . S
H1786 C1783 0.929 . S
S1787 N1788 1.613 . S
S1787 N1789 1.610 . S
N1788 S1787 1.613 . S
N1788 C1791 1.350 . S
N1789 S1787 1.610 . S
N1789 C1790 1.351 . S
C1790 C1784 1.428 . S
C1790 N1789 1.351 . S
C1790 C1791 1.434 . S
C1791 C1782 1.429 . S
C1791 N1788 1.350 . S
C1791 C1790 1.434 . S
C1792 C1793 1.369 . S
C1792 C1794 1.419 . S
C1792 H1796 0.930 . S
C1793 C1792 1.369 . S
C1793 C1802 1.429 . S
C1794 C1792 1.419 . S
C1794 C1795 1.363 . S
C1794 H1797 0.929 . S
C1795 C1794 1.363 . S
C1795 C1801 1.428 . S
H1796 C1792 0.930 . S
H1797 C1794 0.929 . S
S1798 N1799 1.613 . S
S1798 N1800 1.610 . S
N1799 S1798 1.613 . S
N1799 C1802 1.350 . S
N1800 S1798 1.610 . S
N1800 C1801 1.351 . S
C1801 C1795 1.428 . S
C1801 N1800 1.351 . S
C1801 C1802 1.434 . S
C1802 C1793 1.429 . S
C1802 N1799 1.350 . S
C1802 C1801 1.434 . S
C1803 C1804 1.369 . S
C1803 C1805 1.419 1_556 S
C1803 H1807 0.930 . S
C1804 C1803 1.369 . S
C1804 C1813 1.429 . S
C1805 C1803 1.419 1_554 S
C1805 C1806 1.363 . S
C1805 H1808 0.929 . S
C1806 C1805 1.363 . S
C1806 C1812 1.428 1_554 S
H1807 C1803 0.930 . S
H1808 C1805 0.929 . S
S1809 N1810 1.613 . S
S1809 N1811 1.610 . S
N1810 S1809 1.613 . S
N1810 C1813 1.350 . S
N1811 S1809 1.610 . S
N1811 C1812 1.351 . S
C1812 C1806 1.428 1_556 S
C1812 N1811 1.351 . S
C1812 C1813 1.434 . S
C1813 C1804 1.429 . S
C1813 N1810 1.350 . S
C1813 C1812 1.434 . S
C1814 C1815 1.369 . S
C1814 C1816 1.419 1_556 S
C1814 H1818 0.930 . S
C1815 C1814 1.369 . S
C1815 C1824 1.429 . S
C1816 C1814 1.419 1_554 S
C1816 C1817 1.363 . S
C1816 H1819 0.929 . S
C1817 C1816 1.363 . S
C1817 C1823 1.428 1_554 S
H1818 C1814 0.930 . S
H1819 C1816 0.929 . S
S1820 N1821 1.613 . S
S1820 N1822 1.610 . S
N1821 S1820 1.613 . S
N1821 C1824 1.350 . S
N1822 S1820 1.610 . S
N1822 C1823 1.351 . S
C1823 C1817 1.428 1_556 S
C1823 N1822 1.351 . S
C1823 C1824 1.434 . S
C1824 C1815 1.429 . S
C1824 N1821 1.350 . S
C1824 C1823 1.434 . S
C1825 C1826 1.369 . S
C1825 C1827 1.419 . S
C1825 H1829 0.930 . S
C1826 C1825 1.369 . S
C1826 C1835 1.429 . S
C1827 C1825 1.419 . S
C1827 C1828 1.363 1_556 S
C1827 H1830 0.929 . S
C1828 C1827 1.363 1_554 S
C1828 C1834 1.428 . S
H1829 C1825 0.930 . S
H1830 C1827 0.929 . S
S1831 N1832 1.613 1_554 S
S1831 N1833 1.610 . S
N1832 S1831 1.613 1_556 S
N1832 C1835 1.350 . S
N1833 S1831 1.610 . S
N1833 C1834 1.351 . S
C1834 C1828 1.428 . S
C1834 N1833 1.351 . S
C1834 C1835 1.434 1_554 S
C1835 C1826 1.429 . S
C1835 N1832 1.350 . S
C1835 C1834 1.434 1_556 S
C1836 C1837 1.369 . S
C1836 C1838 1.419 . S
C1836 H1840 0.930 . S
C1837 C1836 1.369 . S
C1837 C1846 1.429 . S
C1838 C1836 1.419 . S
C1838 C1839 1.363 . S
C1838 H1841 0.929 . S
C1839 C1838 1.363 . S
C1839 C1845 1.428 . S
H1840 C1836 0.930 . S
H1841 C1838 0.929 . S
S1842 N1843 1.613 . S
S1842 N1844 1.610 . S
N1843 S1842 1.613 . S
N1843 C1846 1.350 . S
N1844 S1842 1.610 . S
N1844 C1845 1.351 . S
C1845 C1839 1.428 . S
C1845 N1844 1.351 . S
C1845 C1846 1.434 . S
C1846 C1837 1.429 . S
C1846 N1843 1.350 . S
C1846 C1845 1.434 . S
C1847 C1848 1.369 . S
C1847 C1849 1.419 . S
C1847 H1851 0.930 . S
C1848 C1847 1.369 . S
C1848 C1857 1.429 . S
C1849 C1847 1.419 . S
C1849 C1850 1.363 . S
C1849 H1852 0.929 . S
C1850 C1849 1.363 . S
C1850 C1856 1.428 . S
H1851 C1847 0.930 . S
H1852 C1849 0.929 . S
S1853 N1854 1.613 . S
S1853 N1855 1.610 . S
N1854 S1853 1.613 . S
N1854 C1857 1.350 . S
N1855 S1853 1.610 . S
N1855 C1856 1.351 . S
C1856 C1850 1.428 . S
C1856 N1855 1.351 . S
C1856 C1857 1.434 . S
C1857 C1848 1.429 . S
C1857 N1854 1.350 . S
C1857 C1856 1.434 . S
C1858 C1859 1.369 . S
C1858 C1860 1.419 . S
C1858 H1862 0.930 . S
C1859 C1858 1.369 . S
C1859 C1868 1.429 . S
C1860 C1858 1.419 . S
C1860 C1861 1.363 . S
C1860 H1863 0.929 . S
C1861 C1860 1.363 . S
C1861 C1867 1.428 . S
H1862 C1858 0.930 . S
H1863 C1860 0.929 . S
S1864 N1865 1.613 . S
S1864 N1866 1.610 1_554 S
N1865 S1864 1.613 . S
N1865 C1868 1.350 1_554 S
N1866 S1864 1.610 1_556 S
N1866 C1867 1.351 . S
C1867 C1861 1.428 . S
C1867 N1866 1.351 . S
C1867 C1868 1.434 . S
C1868 C1859 1.429 . S
C1868 N1865 1.350 1_556 S
C1868 C1867 1.434 . S
C1869 C1870 1.369 . S
C1869 C1871 1.419 . S
C1869 H1873 0.930 . S
C1870 C1869 1.369 . S
C1870 C1879 1.429 . S
C1871 C1869 1.419 . S
C1871 C1872 1.363 . S
C1871 H1874 0.929 . S
C1872 C1871 1.363 . S
C1872 C1878 1.428 . S
H1873 C1869 0.930 . S
H1874 C1871 0.929 . S
S1875 N1876 1.613 . S
S1875 N1877 1.610 . S
N1876 S1875 1.613 . S
N1876 C1879 1.350 . S
N1877 S1875 1.610 . S
N1877 C1878 1.351 . S
C1878 C1872 1.428 . S
C1878 N1877 1.351 . S
C1878 C1879 1.434 . S
C1879 C1870 1.429 . S
C1879 N1876 1.350 . S
C1879 C1878 1.434 . S
C1880 C1881 1.369 . S
C1880 C1882 1.419 . S
C1880 H1884 0.930 . S
C1881 C1880 1.369 . S
C1881 C1890 1.429 . S
C1882 C1880 1.419 . S
C1882 C1883 1.363 . S
C1882 H1885 0.929 . S
C1883 C1882 1.363 . S
C1883 C1889 1.428 . S
H1884 C1880 0.930 . S
H1885 C1882 0.929 . S
S1886 N1887 1.613 . S
S1886 N1888 1.610 . S
N1887 S1886 1.613 . S
N1887 C1890 1.350 . S
N1888 S1886 1.610 . S
N1888 C1889 1.351 . S
C1889 C1883 1.428 . S
C1889 N1888 1.351 . S
C1889 C1890 1.434 . S
C1890 C1881 1.429 . S
C1890 N1887 1.350 . S
C1890 C1889 1.434 . S
C1891 C1892 1.369 . S
C1891 C1893 1.419 . S
C1891 H1895 0.930 . S
C1892 C1891 1.369 . S
C1892 C1901 1.429 . S
C1893 C1891 1.419 . S
C1893 C1894 1.363 . S
C1893 H1896 0.929 . S
C1894 C1893 1.363 . S
C1894 C1900 1.428 . S
H1895 C1891 0.930 . S
H1896 C1893 0.929 . S
S1897 N1898 1.613 . S
S1897 N1899 1.610 . S
N1898 S1897 1.613 . S
N1898 C1901 1.350 . S
N1899 S1897 1.610 . S
N1899 C1900 1.351 . S
C1900 C1894 1.428 . S
C1900 N1899 1.351 . S
C1900 C1901 1.434 . S
C1901 C1892 1.429 . S
C1901 N1898 1.350 . S
C1901 C1900 1.434 . S
C1902 C1903 1.369 . S
C1902 C1904 1.419 . S
C1902 H1906 0.930 . S
C1903 C1902 1.369 . S
C1903 C1912 1.429 . S
C1904 C1902 1.419 . S
C1904 C1905 1.363 . S
C1904 H1907 0.929 . S
C1905 C1904 1.363 . S
C1905 C1911 1.428 . S
H1906 C1902 0.930 . S
H1907 C1904 0.929 . S
S1908 N1909 1.613 . S
S1908 N1910 1.610 . S
N1909 S1908 1.613 . S
N1909 C1912 1.350 . S
N1910 S1908 1.610 . S
N1910 C1911 1.351 . S
C1911 C1905 1.428 . S
C1911 N1910 1.351 . S
C1911 C1912 1.434 . S
C1912 C1903 1.429 . S
C1912 N1909 1.350 . S
C1912 C1911 1.434 . S
C1913 C1914 1.369 . S
C1913 C1915 1.419 . S
C1913 H1917 0.930 . S
C1914 C1913 1.369 . S
C1914 C1923 1.429 . S
C1915 C1913 1.419 . S
C1915 C1916 1.363 . S
C1915 H1918 0.929 . S
C1916 C1915 1.363 . S
C1916 C1922 1.428 . S
H1917 C1913 0.930 . S
H1918 C1915 0.929 . S
S1919 N1920 1.613 . S
S1919 N1921 1.610 . S
N1920 S1919 1.613 . S
N1920 C1923 1.350 . S
N1921 S1919 1.610 . S
N1921 C1922 1.351 . S
C1922 C1916 1.428 . S
C1922 N1921 1.351 . S
C1922 C1923 1.434 . S
C1923 C1914 1.429 . S
C1923 N1920 1.350 . S
C1923 C1922 1.434 . S
C1924 C1925 1.369 . S
C1924 C1926 1.419 . S
C1924 H1928 0.930 . S
C1925 C1924 1.369 . S
C1925 C1934 1.429 . S
C1926 C1924 1.419 . S
C1926 C1927 1.363 . S
C1926 H1929 0.929 . S
C1927 C1926 1.363 . S
C1927 C1933 1.428 . S
H1928 C1924 0.930 . S
H1929 C1926 0.929 . S
S1930 N1931 1.613 . S
S1930 N1932 1.610 . S
N1931 S1930 1.613 . S
N1931 C1934 1.350 . S
N1932 S1930 1.610 . S
N1932 C1933 1.351 . S
C1933 C1927 1.428 . S
C1933 N1932 1.351 . S
C1933 C1934 1.434 . S
C1934 C1925 1.429 . S
C1934 N1931 1.350 . S
C1934 C1933 1.434 . S
C1935 C1936 1.369 . S
C1935 C1937 1.419 . S
C1935 H1939 0.930 . S
C1936 C1935 1.369 . S
C1936 C1945 1.429 . S
C1937 C1935 1.419 . S
C1937 C1938 1.363 . S
C1937 H1940 0.929 . S
C1938 C1937 1.363 . S
C1938 C1944 1.428 . S
H1939 C1935 0.930 . S
H1940 C1937 0.929 . S
S1941 N1942 1.613 . S
S1941 N1943 1.610 . S
N1942 S1941 1.613 . S
N1942 C1945 1.350 . S
N1943 S1941 1.610 . S
N1943 C1944 1.351 . S
C1944 C1938 1.428 . S
C1944 N1943 1.351 . S
C1944 C1945 1.434 . S
C1945 C1936 1.429 . S
C1945 N1942 1.350 . S
C1945 C1944 1.434 . S
C1946 C1947 1.369 . S
C1946 C1948 1.419 . S
C1946 H1950 0.930 . S
C1947 C1946 1.369 . S
C1947 C1956 1.429 . S
C1948 C1946 1.419 . S
C1948 C1949 1.363 . S
C1948 H1951 0.929 . S
C1949 C1948 1.363 . S
C1949 C1955 1.428 . S
H1950 C1946 0.930 . S
H1951 C1948 0.929 . S
S1952 N1953 1.613 . S
S1952 N1954 1.610 . S
N1953 S1952 1.613 . S
N1953 C1956 1.350 . S
N1954 S1952 1.610 . S
N1954 C1955 1.351 . S
C1955 C1949 1.428 . S
C1955 N1954 1.351 . S
C1955 C1956 1.434 . S
C1956 C1947 1.429 . S
C1956 N1953 1.350 . S
C1956 C1955 1.434 . S
C1957 C1958 1.369 . S
C1957 C1959 1.419 . S
C1957 H1961 0.930 . S
C1958 C1957 1.369 . S
C1958 C1967 1.429 . S
C1959 C1957 1.419 . S
C1959 C1960 1.363 . S
C1959 H1962 0.929 . S
C1960 C1959 1.363 . S
C1960 C1966 1.428 . S
H1961 C1957 0.930 . S
H1962 C1959 0.929 . S
S1963 N1964 1.613 . S
S1963 N1965 1.610 . S
N1964 S1963 1.613 . S
N1964 C1967 1.350 . S
N1965 S1963 1.610 . S
N1965 C1966 1.351 . S
C1966 C1960 1.428 . S
C1966 N1965 1.351 . S
C1966 C1967 1.434 . S
C1967 C1958 1.429 . S
C1967 N1964 1.350 . S
C1967 C1966 1.434 . S
C1968 C1969 1.369 . S
C1968 C1970 1.419 . S
C1968 H1972 0.930 . S
C1969 C1968 1.369 . S
C1969 C1978 1.429 . S
C1970 C1968 1.419 . S
C1970 C1971 1.363 . S
C1970 H1973 0.929 . S
C1971 C1970 1.363 . S
C1971 C1977 1.428 . S
H1972 C1968 0.930 . S
H1973 C1970 0.929 . S
S1974 N1975 1.613 . S
S1974 N1976 1.610 . S
N1975 S1974 1.613 . S
N1975 C1978 1.350 . S
N1976 S1974 1.610 . S
N1976 C1977 1.351 . S
C1977 C1971 1.428 . S
C1977 N1976 1.351 . S
C1977 C1978 1.434 . S
C1978 C1969 1.429 . S
C1978 N1975 1.350 . S
C1978 C1977 1.434 . S
C1979 C1980 1.369 . S
C1979 C1981 1.419 . S
C1979 H1983 0.930 . S
C1980 C1979 1.369 . S
C1980 C1989 1.429 . S
C1981 C1979 1.419 . S
C1981 C1982 1.363 . S
C1981 H1984 0.929 . S
C1982 C1981 1.363 . S
C1982 C1988 1.428 . S
H1983 C1979 0.930 . S
H1984 C1981 0.929 . S
S1985 N1986 1.613 . S
S1985 N1987 1.610 . S
N1986 S1985 1.613 . S
N1986 C1989 1.350 . S
N1987 S1985 1.610 . S
N1987 C1988 1.351 . S
C1988 C1982 1.428 . S
C1988 N1987 1.351 . S
C1988 C1989 1.434 . S
C1989 C1980 1.429 . S
C1989 N1986 1.350 . S
C1989 C1988 1.434 . S
C1990 C1991 1.369 . S
C1990 C1992 1.419 . S
C1990 H1994 0.930 . S
C1991 C1990 1.369 . S
C1991 C2000 1.429 . S
C1992 C1990 1.419 . S
C1992 C1993 1.363 . S
C1992 H1995 0.929 . S
C1993 C1992 1.363 . S
C1993 C1999 1.428 . S
H1994 C1990 0.930 . S
H1995 C1992 0.929 . S
S1996 N1997 1.613 . S
S1996 N1998 1.610 . S
N1997 S1996 1.613 . S
N1997 C2000 1.350 . S
N1998 S1996 1.610 . S
N1998 C1999 1.351 . S
C1999 C1993 1.428 . S
C1999 N1998 1.351 . S
C1999 C2000 1.434 . S
C2000 C1991 1.429 . S
C2000 N1997 1.350 . S
C2000 C1999 1.434 . S
C2001 C2002 1.369 . S
C2001 C2003 1.419 1_554 S
C2001 H2005 0.930 . S
C2002 C2001 1.369 . S
C2002 C2011 1.429 . S
C2003 C2001 1.419 1_556 S
C2003 C2004 1.363 . S
C2003 H2006 0.929 . S
C2004 C2003 1.363 . S
C2004 C2010 1.428 . S
H2005 C2001 0.930 . S
H2006 C2003 0.929 . S
S2007 N2008 1.613 1_556 S
S2007 N2009 1.610 . S
N2008 S2007 1.613 1_554 S
N2008 C2011 1.350 . S
N2009 S2007 1.610 . S
N2009 C2010 1.351 . S
C2010 C2004 1.428 . S
C2010 N2009 1.351 . S
C2010 C2011 1.434 1_556 S
C2011 C2002 1.429 . S
C2011 N2008 1.350 . S
C2011 C2010 1.434 1_554 S
C2012 C2013 1.369 . S
C2012 C2014 1.434 . S
C2012 H2016 0.930 . S
C2013 C2012 1.369 . S
C2013 C2022 1.429 1_556 S
C2014 C2012 1.434 . S
C2014 C2015 1.345 1_556 S
C2014 H2017 0.932 . S
C2015 C2014 1.345 1_554 S
C2015 C2021 1.428 . S
H2016 C2012 0.930 . S
H2017 C2014 0.932 . S
S2018 N2019 1.613 . S
S2018 N2020 1.610 . S
N2019 S2018 1.613 . S
N2019 C2022 1.350 . S
N2020 S2018 1.610 . S
N2020 C2021 1.351 . S
C2021 C2015 1.428 . S
C2021 N2020 1.351 . S
C2021 C2022 1.434 . S
C2022 C2013 1.429 1_554 S
C2022 N2019 1.350 . S
C2022 C2021 1.434 . S
C2023 C2024 1.369 . S
C2023 C2025 1.419 1_554 S
C2023 H2027 0.930 . S
C2024 C2023 1.369 . S
C2024 C2033 1.429 . S
C2025 C2023 1.419 1_556 S
C2025 C2026 1.363 . S
C2025 H2028 0.929 . S
C2026 C2025 1.363 . S
C2026 C2032 1.428 . S
H2027 C2023 0.930 . S
H2028 C2025 0.929 . S
S2029 N2030 1.613 1_556 S
S2029 N2031 1.610 . S
N2030 S2029 1.613 1_554 S
N2030 C2033 1.350 . S
N2031 S2029 1.610 . S
N2031 C2032 1.351 . S
C2032 C2026 1.428 . S
C2032 N2031 1.351 . S
C2032 C2033 1.434 1_556 S
C2033 C2024 1.429 . S
C2033 N2030 1.350 . S
C2033 C2032 1.434 1_554 S
C2034 C2035 1.369 . S
C2034 C2036 1.419 . S
C2034 H2038 0.930 . S
C2035 C2034 1.369 . S
C2035 C2044 1.429 . S
C2036 C2034 1.419 . S
C2036 C2037 1.363 . S
C2036 H2039 0.929 . S
C2037 C2036 1.363 . S
C2037 C2043 1.428 . S
H2038 C2034 0.930 . S
H2039 C2036 0.929 . S
S2040 N2041 1.613 . S
S2040 N2042 1.610 . S
N2041 S2040 1.613 . S
N2041 C2044 1.350 . S
N2042 S2040 1.610 . S
N2042 C2043 1.351 . S
C2043 C2037 1.428 . S
C2043 N2042 1.351 . S
C2043 C2044 1.434 . S
C2044 C2035 1.429 . S
C2044 N2041 1.350 . S
C2044 C2043 1.434 . S
C2045 C2046 1.369 . S
C2045 C2047 1.419 . S
C2045 H2049 0.930 . S
C2046 C2045 1.369 . S
C2046 C2055 1.429 . S
C2047 C2045 1.419 . S
C2047 C2048 1.363 . S
C2047 H2050 0.929 . S
C2048 C2047 1.363 . S
C2048 C2054 1.428 . S
H2049 C2045 0.930 . S
H2050 C2047 0.929 . S
S2051 N2052 1.613 . S
S2051 N2053 1.610 . S
N2052 S2051 1.613 . S
N2052 C2055 1.350 . S
N2053 S2051 1.610 . S
N2053 C2054 1.351 . S
C2054 C2048 1.428 . S
C2054 N2053 1.351 . S
C2054 C2055 1.434 . S
C2055 C2046 1.429 . S
C2055 N2052 1.350 . S
C2055 C2054 1.434 . S
C2056 C2057 1.369 . S
C2056 C2058 1.419 . S
C2056 H2060 0.930 . S
C2057 C2056 1.369 . S
C2057 C2066 1.429 . S
C2058 C2056 1.419 . S
C2058 C2059 1.363 . S
C2058 H2061 0.929 . S
C2059 C2058 1.363 . S
C2059 C2065 1.428 . S
H2060 C2056 0.930 . S
H2061 C2058 0.929 . S
S2062 N2063 1.613 . S
S2062 N2064 1.610 . S
N2063 S2062 1.613 . S
N2063 C2066 1.350 . S
N2064 S2062 1.610 . S
N2064 C2065 1.351 . S
C2065 C2059 1.428 . S
C2065 N2064 1.351 . S
C2065 C2066 1.434 . S
C2066 C2057 1.429 . S
C2066 N2063 1.350 . S
C2066 C2065 1.434 . S
C2067 C2068 1.369 . S
C2067 C2069 1.419 . S
C2067 H2071 0.930 . S
C2068 C2067 1.369 . S
C2068 C2077 1.429 . S
C2069 C2067 1.419 . S
C2069 C2070 1.363 . S
C2069 H2072 0.929 . S
C2070 C2069 1.363 . S
C2070 C2076 1.428 . S
H2071 C2067 0.930 . S
H2072 C2069 0.929 . S
S2073 N2074 1.613 . S
S2073 N2075 1.610 . S
N2074 S2073 1.613 . S
N2074 C2077 1.350 . S
N2075 S2073 1.610 . S
N2075 C2076 1.351 . S
C2076 C2070 1.428 . S
C2076 N2075 1.351 . S
C2076 C2077 1.434 . S
C2077 C2068 1.429 . S
C2077 N2074 1.350 . S
C2077 C2076 1.434 . S
C2078 C2079 1.369 . S
C2078 C2080 1.419 . S
C2078 H2082 0.930 . S
C2079 C2078 1.369 . S
C2079 C2088 1.429 . S
C2080 C2078 1.419 . S
C2080 C2081 1.363 . S
C2080 H2083 0.929 . S
C2081 C2080 1.363 . S
C2081 C2087 1.428 . S
H2082 C2078 0.930 . S
H2083 C2080 0.929 . S
S2084 N2085 1.613 . S
S2084 N2086 1.610 . S
N2085 S2084 1.613 . S
N2085 C2088 1.350 . S
N2086 S2084 1.610 . S
N2086 C2087 1.351 . S
C2087 C2081 1.428 . S
C2087 N2086 1.351 . S
C2087 C2088 1.434 . S
C2088 C2079 1.429 . S
C2088 N2085 1.350 . S
C2088 C2087 1.434 . S
C2089 C2090 1.369 . S
C2089 C2091 1.419 . S
C2089 H2093 0.930 . S
C2090 C2089 1.369 . S
C2090 C2099 1.429 . S
C2091 C2089 1.419 . S
C2091 C2092 1.363 . S
C2091 H2094 0.929 . S
C2092 C2091 1.363 . S
C2092 C2098 1.428 . S
H2093 C2089 0.930 . S
H2094 C2091 0.929 . S
S2095 N2096 1.613 . S
S2095 N2097 1.610 . S
N2096 S2095 1.613 . S
N2096 C2099 1.350 . S
N2097 S2095 1.610 . S
N2097 C2098 1.351 . S
C2098 C2092 1.428 . S
C2098 N2097 1.351 . S
C2098 C2099 1.434 . S
C2099 C2090 1.429 . S
C2099 N2096 1.350 . S
C2099 C2098 1.434 . S
C2100 C2101 1.369 . S
C2100 C2102 1.419 . S
C2100 H2104 0.930 . S
C2101 C2100 1.369 . S
C2101 C2110 1.429 . S
C2102 C2100 1.419 . S
C2102 C2103 1.363 . S
C2102 H2105 0.929 . S
C2103 C2102 1.363 . S
C2103 C2109 1.428 . S
H2104 C2100 0.930 . S
H2105 C2102 0.929 . S
S2106 N2107 1.613 . S
S2106 N2108 1.610 . S
N2107 S2106 1.613 . S
N2107 C2110 1.350 . S
N2108 S2106 1.610 . S
N2108 C2109 1.351 . S
C2109 C2103 1.428 . S
C2109 N2108 1.351 . S
C2109 C2110 1.434 . S
C2110 C2101 1.429 . S
C2110 N2107 1.350 . S
C2110 C2109 1.434 . S
C2111 C2112 1.369 . S
C2111 C2113 1.419 . S
C2111 H2115 0.930 . S
C2112 C2111 1.369 . S
C2112 C2121 1.429 . S
C2113 C2111 1.419 . S
C2113 C2114 1.363 . S
C2113 H2116 0.929 . S
C2114 C2113 1.363 . S
C2114 C2120 1.428 . S
H2115 C2111 0.930 . S
H2116 C2113 0.929 . S
S2117 N2118 1.613 . S
S2117 N2119 1.610 . S
N2118 S2117 1.613 . S
N2118 C2121 1.350 . S
N2119 S2117 1.610 . S
N2119 C2120 1.351 . S
C2120 C2114 1.428 . S
C2120 N2119 1.351 . S
C2120 C2121 1.434 . S
C2121 C2112 1.429 . S
C2121 N2118 1.350 . S
C2121 C2120 1.434 . S
C2122 C2123 1.369 . S
C2122 C2124 1.419 . S
C2122 H2126 0.930 . S
C2123 C2122 1.369 . S
C2123 C2132 1.429 . S
C2124 C2122 1.419 . S
C2124 C2125 1.363 . S
C2124 H2127 0.929 . S
C2125 C2124 1.363 . S
C2125 C2131 1.428 . S
H2126 C2122 0.930 . S
H2127 C2124 0.929 . S
S2128 N2129 1.613 . S
S2128 N2130 1.610 . S
N2129 S2128 1.613 . S
N2129 C2132 1.350 . S
N2130 S2128 1.610 . S
N2130 C2131 1.351 . S
C2131 C2125 1.428 . S
C2131 N2130 1.351 . S
C2131 C2132 1.434 . S
C2132 C2123 1.429 . S
C2132 N2129 1.350 . S
C2132 C2131 1.434 . S
C2133 C2134 1.369 . S
C2133 C2135 1.419 . S
C2133 H2137 0.930 . S
C2134 C2133 1.369 . S
C2134 C2143 1.429 . S
C2135 C2133 1.419 . S
C2135 C2136 1.363 . S
C2135 H2138 0.929 . S
C2136 C2135 1.363 . S
C2136 C2142 1.428 . S
H2137 C2133 0.930 . S
H2138 C2135 0.929 . S
S2139 N2140 1.613 . S
S2139 N2141 1.610 . S
N2140 S2139 1.613 . S
N2140 C2143 1.350 . S
N2141 S2139 1.610 . S
N2141 C2142 1.351 . S
C2142 C2136 1.428 . S
C2142 N2141 1.351 . S
C2142 C2143 1.434 . S
C2143 C2134 1.429 . S
C2143 N2140 1.350 . S
C2143 C2142 1.434 . S
C2144 C2145 1.369 . S
C2144 C2146 1.419 . S
C2144 H2148 0.930 . S
C2145 C2144 1.369 . S
C2145 C2154 1.429 . S
C2146 C2144 1.419 . S
C2146 C2147 1.363 . S
C2146 H2149 0.929 . S
C2147 C2146 1.363 . S
C2147 C2153 1.428 . S
H2148 C2144 0.930 . S
H2149 C2146 0.929 . S
S2150 N2151 1.613 . S
S2150 N2152 1.610 . S
N2151 S2150 1.613 . S
N2151 C2154 1.350 . S
N2152 S2150 1.610 . S
N2152 C2153 1.351 . S
C2153 C2147 1.428 . S
C2153 N2152 1.351 . S
C2153 C2154 1.434 . S
C2154 C2145 1.429 . S
C2154 N2151 1.350 . S
C2154 C2153 1.434 . S
C2155 C2156 1.369 . S
C2155 C2157 1.419 . S
C2155 H2159 0.930 . S
C2156 C2155 1.369 . S
C2156 C2165 1.429 . S
C2157 C2155 1.419 . S
C2157 C2158 1.363 . S
C2157 H2160 0.929 . S
C2158 C2157 1.363 . S
C2158 C2164 1.428 . S
H2159 C2155 0.930 . S
H2160 C2157 0.929 . S
S2161 N2162 1.613 . S
S2161 N2163 1.610 . S
N2162 S2161 1.613 . S
N2162 C2165 1.350 . S
N2163 S2161 1.610 . S
N2163 C2164 1.351 . S
C2164 C2158 1.428 . S
C2164 N2163 1.351 . S
C2164 C2165 1.434 . S
C2165 C2156 1.429 . S
C2165 N2162 1.350 . S
C2165 C2164 1.434 . S
C2166 C2167 1.369 . S
C2166 C2168 1.419 . S
C2166 H2170 0.930 . S
C2167 C2166 1.369 . S
C2167 C2176 1.429 . S
C2168 C2166 1.419 . S
C2168 C2169 1.363 . S
C2168 H2171 0.929 . S
C2169 C2168 1.363 . S
C2169 C2175 1.428 . S
H2170 C2166 0.930 . S
H2171 C2168 0.929 . S
S2172 N2173 1.613 . S
S2172 N2174 1.610 . S
N2173 S2172 1.613 . S
N2173 C2176 1.350 . S
N2174 S2172 1.610 . S
N2174 C2175 1.351 . S
C2175 C2169 1.428 . S
C2175 N2174 1.351 . S
C2175 C2176 1.434 . S
C2176 C2167 1.429 . S
C2176 N2173 1.350 . S
C2176 C2175 1.434 . S
C2177 C2178 1.369 . S
C2177 C2179 1.419 . S
C2177 H2181 0.930 . S
C2178 C2177 1.369 . S
C2178 C2187 1.429 . S
C2179 C2177 1.419 . S
C2179 C2180 1.363 . S
C2179 H2182 0.929 . S
C2180 C2179 1.363 . S
C2180 C2186 1.428 . S
H2181 C2177 0.930 . S
H2182 C2179 0.929 . S
S2183 N2184 1.613 . S
S2183 N2185 1.610 . S
N2184 S2183 1.613 . S
N2184 C2187 1.350 . S
N2185 S2183 1.610 . S
N2185 C2186 1.351 . S
C2186 C2180 1.428 . S
C2186 N2185 1.351 . S
C2186 C2187 1.434 . S
C2187 C2178 1.429 . S
C2187 N2184 1.350 . S
C2187 C2186 1.434 . S
C2188 C2189 1.369 . S
C2188 C2190 1.419 . S
C2188 H2192 0.930 . S
C2189 C2188 1.369 . S
C2189 C2198 1.429 . S
C2190 C2188 1.419 . S
C2190 C2191 1.363 . S
C2190 H2193 0.929 . S
C2191 C2190 1.363 . S
C2191 C2197 1.428 . S
H2192 C2188 0.930 . S
H2193 C2190 0.929 . S
S2194 N2195 1.613 . S
S2194 N2196 1.610 . S
N2195 S2194 1.613 . S
N2195 C2198 1.350 . S
N2196 S2194 1.610 . S
N2196 C2197 1.351 . S
C2197 C2191 1.428 . S
C2197 N2196 1.351 . S
C2197 C2198 1.434 . S
C2198 C2189 1.429 . S
C2198 N2195 1.350 . S
C2198 C2197 1.434 . S
C2199 C2200 1.369 . S
C2199 C2201 1.419 . S
C2199 H2203 0.930 . S
C2200 C2199 1.369 . S
C2200 C2209 1.429 . S
C2201 C2199 1.419 . S
C2201 C2202 1.363 . S
C2201 H2204 0.929 . S
C2202 C2201 1.363 . S
C2202 C2208 1.428 . S
H2203 C2199 0.930 . S
H2204 C2201 0.929 . S
S2205 N2206 1.613 . S
S2205 N2207 1.610 . S
N2206 S2205 1.613 . S
N2206 C2209 1.350 . S
N2207 S2205 1.610 . S
N2207 C2208 1.351 . S
C2208 C2202 1.428 . S
C2208 N2207 1.351 . S
C2208 C2209 1.434 . S
C2209 C2200 1.429 . S
C2209 N2206 1.350 . S
C2209 C2208 1.434 . S
C2210 C2211 1.369 . S
C2210 C2212 1.419 . S
C2210 H2214 0.930 . S
C2211 C2210 1.369 . S
C2211 C2220 1.429 . S
C2212 C2210 1.419 . S
C2212 C2213 1.363 . S
C2212 H2215 0.929 . S
C2213 C2212 1.363 . S
C2213 C2219 1.428 . S
H2214 C2210 0.930 . S
H2215 C2212 0.929 . S
S2216 N2217 1.613 . S
S2216 N2218 1.610 . S
N2217 S2216 1.613 . S
N2217 C2220 1.350 . S
N2218 S2216 1.610 . S
N2218 C2219 1.351 . S
C2219 C2213 1.428 . S
C2219 N2218 1.351 . S
C2219 C2220 1.434 . S
C2220 C2211 1.429 . S
C2220 N2217 1.350 . S
C2220 C2219 1.434 . S
C2221 C2222 1.369 . S
C2221 C2223 1.419 . S
C2221 H2225 0.930 . S
C2222 C2221 1.369 . S
C2222 C2231 1.429 . S
C2223 C2221 1.419 . S
C2223 C2224 1.363 . S
C2223 H2226 0.929 . S
C2224 C2223 1.363 . S
C2224 C2230 1.428 . S
H2225 C2221 0.930 . S
H2226 C2223 0.929 . S
S2227 N2228 1.613 . S
S2227 N2229 1.610 . S
N2228 S2227 1.613 . S
N2228 C2231 1.350 . S
N2229 S2227 1.610 . S
N2229 C2230 1.351 . S
C2230 C2224 1.428 . S
C2230 N2229 1.351 . S
C2230 C2231 1.434 . S
C2231 C2222 1.429 . S
C2231 N2228 1.350 . S
C2231 C2230 1.434 . S
C2232 C2233 1.369 . S
C2232 C2234 1.419 1_455 S
C2232 H2236 0.930 . S
C2233 C2232 1.369 . S
C2233 C2242 1.429 . S
C2234 C2232 1.419 1_655 S
C2234 C2235 1.363 . S
C2234 H2237 0.929 . S
C2235 C2234 1.363 . S
C2235 C2241 1.428 . S
H2236 C2232 0.930 . S
H2237 C2234 0.929 . S
S2238 N2239 1.613 . S
S2238 N2240 1.610 1_455 S
N2239 S2238 1.613 . S
N2239 C2242 1.350 . S
N2240 S2238 1.610 1_655 S
N2240 C2241 1.351 . S
C2241 C2235 1.428 . S
C2241 N2240 1.351 . S
C2241 C2242 1.434 1_655 S
C2242 C2233 1.429 . S
C2242 N2239 1.350 . S
C2242 C2241 1.434 1_455 S
C2243 C2244 1.369 . S
C2243 C2245 1.419 . S
C2243 H2247 0.930 . S
C2244 C2243 1.369 . S
C2244 C2253 1.429 . S
C2245 C2243 1.419 . S
C2245 C2246 1.363 . S
C2245 H2248 0.929 . S
C2246 C2245 1.363 . S
C2246 C2252 1.428 . S
H2247 C2243 0.930 . S
H2248 C2245 0.929 . S
S2249 N2250 1.613 . S
S2249 N2251 1.610 . S
N2250 S2249 1.613 . S
N2250 C2253 1.350 . S
N2251 S2249 1.610 . S
N2251 C2252 1.351 . S
C2252 C2246 1.428 . S
C2252 N2251 1.351 . S
C2252 C2253 1.434 . S
C2253 C2244 1.429 . S
C2253 N2250 1.350 . S
C2253 C2252 1.434 . S
C2254 C2255 1.369 . S
C2254 C2256 1.419 . S
C2254 H2258 0.930 . S
C2255 C2254 1.369 . S
C2255 C2264 1.429 1_565 S
C2256 C2254 1.419 . S
C2256 C2257 1.363 1_565 S
C2256 H2259 0.929 . S
C2257 C2256 1.363 1_545 S
C2257 C2263 1.428 . S
H2258 C2254 0.930 . S
H2259 C2256 0.929 . S
S2260 N2261 1.613 . S
S2260 N2262 1.610 . S
N2261 S2260 1.613 . S
N2261 C2264 1.350 . S
N2262 S2260 1.610 . S
N2262 C2263 1.351 . S
C2263 C2257 1.428 . S
C2263 N2262 1.351 . S
C2263 C2264 1.434 . S
C2264 C2255 1.429 1_545 S
C2264 N2261 1.350 . S
C2264 C2263 1.434 . S
C2265 C2266 1.369 . S
C2265 C2267 1.444 . S
C2265 H2269 0.930 . S
C2266 C2265 1.369 . S
C2266 C2275 1.429 1_655 S
C2267 C2265 1.444 . S
C2267 C2268 1.319 1_655 S
C2267 H2270 0.951 . S
C2268 C2267 1.319 1_455 S
C2268 C2274 1.428 . S
H2269 C2265 0.930 . S
H2270 C2267 0.951 . S
S2271 N2272 1.613 . S
S2271 N2273 1.610 . S
N2272 S2271 1.613 . S
N2272 C2275 1.350 . S
N2273 S2271 1.610 . S
N2273 C2274 1.351 . S
C2274 C2268 1.428 . S
C2274 N2273 1.351 . S
C2274 C2275 1.434 . S
C2275 C2266 1.429 1_455 S
C2275 N2272 1.350 . S
C2275 C2274 1.434 . S
C2276 C2277 1.369 . S
C2276 C2278 1.419 . S
C2276 H2280 0.930 . S
C2277 C2276 1.369 . S
C2277 C2286 1.429 . S
C2278 C2276 1.419 . S
C2278 C2279 1.363 . S
C2278 H2281 0.929 . S
C2279 C2278 1.363 . S
C2279 C2285 1.428 . S
H2280 C2276 0.930 . S
H2281 C2278 0.929 . S
S2282 N2283 1.613 . S
S2282 N2284 1.610 . S
N2283 S2282 1.613 . S
N2283 C2286 1.350 . S
N2284 S2282 1.610 . S
N2284 C2285 1.351 . S
C2285 C2279 1.428 . S
C2285 N2284 1.351 . S
C2285 C2286 1.434 . S
C2286 C2277 1.429 . S
C2286 N2283 1.350 . S
C2286 C2285 1.434 . S
C2287 C2288 1.369 . S
C2287 C2289 1.419 1_545 S
C2287 H2291 0.930 . S
C2288 C2287 1.369 . S
C2288 C2297 1.429 . S
C2289 C2287 1.419 1_565 S
C2289 C2290 1.363 . S
C2289 H2292 0.929 . S
C2290 C2289 1.363 . S
C2290 C2296 1.428 . S
H2291 C2287 0.930 . S
H2292 C2289 0.929 . S
S2293 N2294 1.613 1_565 S
S2293 N2295 1.610 . S
N2294 S2293 1.613 1_545 S
N2294 C2297 1.350 . S
N2295 S2293 1.610 . S
N2295 C2296 1.351 . S
C2296 C2290 1.428 . S
C2296 N2295 1.351 . S
C2296 C2297 1.434 1_565 S
C2297 C2288 1.429 . S
C2297 N2294 1.350 . S
C2297 C2296 1.434 1_545 S
C2298 C2299 1.369 . S
C2298 C2300 1.419 . S
C2298 H2302 0.930 . S
C2299 C2298 1.369 . S
C2299 C2308 1.429 . S
C2300 C2298 1.419 . S
C2300 C2301 1.363 . S
C2300 H2303 0.929 . S
C2301 C2300 1.363 . S
C2301 C2307 1.428 . S
H2302 C2298 0.930 . S
H2303 C2300 0.929 . S
S2304 N2305 1.613 . S
S2304 N2306 1.610 . S
N2305 S2304 1.613 . S
N2305 C2308 1.350 . S
N2306 S2304 1.610 . S
N2306 C2307 1.351 . S
C2307 C2301 1.428 . S
C2307 N2306 1.351 . S
C2307 C2308 1.434 . S
C2308 C2299 1.429 . S
C2308 N2305 1.350 . S
C2308 C2307 1.434 . S
C2309 C2310 1.369 . S
C2309 C2311 1.419 . S
C2309 H2313 0.930 . S
C2310 C2309 1.369 . S
C2310 C2319 1.429 . S
C2311 C2309 1.419 . S
C2311 C2312 1.363 . S
C2311 H2314 0.929 . S
C2312 C2311 1.363 . S
C2312 C2318 1.428 . S
H2313 C2309 0.930 . S
H2314 C2311 0.929 . S
S2315 N2316 1.613 . S
S2315 N2317 1.610 . S
N2316 S2315 1.613 . S
N2316 C2319 1.350 . S
N2317 S2315 1.610 . S
N2317 C2318 1.351 . S
C2318 C2312 1.428 . S
C2318 N2317 1.351 . S
C2318 C2319 1.434 . S
C2319 C2310 1.429 . S
C2319 N2316 1.350 . S
C2319 C2318 1.434 . S
C2320 C2321 1.369 . S
C2320 C2322 1.419 . S
C2320 H2324 0.930 . S
C2321 C2320 1.369 . S
C2321 C2330 1.429 . S
C2322 C2320 1.419 . S
C2322 C2323 1.363 . S
C2322 H2325 0.929 . S
C2323 C2322 1.363 . S
C2323 C2329 1.428 . S
H2324 C2320 0.930 . S
H2325 C2322 0.929 . S
S2326 N2327 1.613 . S
S2326 N2328 1.610 . S
N2327 S2326 1.613 . S
N2327 C2330 1.350 . S
N2328 S2326 1.610 . S
N2328 C2329 1.351 . S
C2329 C2323 1.428 . S
C2329 N2328 1.351 . S
C2329 C2330 1.434 . S
C2330 C2321 1.429 . S
C2330 N2327 1.350 . S
C2330 C2329 1.434 . S
C2331 C2332 1.369 . S
C2331 C2333 1.419 . S
C2331 H2335 0.930 . S
C2332 C2331 1.369 . S
C2332 C2341 1.429 . S
C2333 C2331 1.419 . S
C2333 C2334 1.363 . S
C2333 H2336 0.929 . S
C2334 C2333 1.363 . S
C2334 C2340 1.428 . S
H2335 C2331 0.930 . S
H2336 C2333 0.929 . S
S2337 N2338 1.613 . S
S2337 N2339 1.610 . S
N2338 S2337 1.613 . S
N2338 C2341 1.350 . S
N2339 S2337 1.610 . S
N2339 C2340 1.351 . S
C2340 C2334 1.428 . S
C2340 N2339 1.351 . S
C2340 C2341 1.434 . S
C2341 C2332 1.429 . S
C2341 N2338 1.350 . S
C2341 C2340 1.434 . S
C2342 C2343 1.369 . S
C2342 C2344 1.419 . S
C2342 H2346 0.930 . S
C2343 C2342 1.369 . S
C2343 C2352 1.429 . S
C2344 C2342 1.419 . S
C2344 C2345 1.363 . S
C2344 H2347 0.929 . S
C2345 C2344 1.363 . S
C2345 C2351 1.428 . S
H2346 C2342 0.930 . S
H2347 C2344 0.929 . S
S2348 N2349 1.613 . S
S2348 N2350 1.610 . S
N2349 S2348 1.613 . S
N2349 C2352 1.350 . S
N2350 S2348 1.610 . S
N2350 C2351 1.351 . S
C2351 C2345 1.428 . S
C2351 N2350 1.351 . S
C2351 C2352 1.434 . S
C2352 C2343 1.429 . S
C2352 N2349 1.350 . S
C2352 C2351 1.434 . S
C2353 C2354 1.369 . S
C2353 C2355 1.419 . S
C2353 H2357 0.930 . S
C2354 C2353 1.369 . S
C2354 C2363 1.429 . S
C2355 C2353 1.419 . S
C2355 C2356 1.363 . S
C2355 H2358 0.929 . S
C2356 C2355 1.363 . S
C2356 C2362 1.428 . S
H2357 C2353 0.930 . S
H2358 C2355 0.929 . S
S2359 N2360 1.613 . S
S2359 N2361 1.610 . S
N2360 S2359 1.613 . S
N2360 C2363 1.350 . S
N2361 S2359 1.610 . S
N2361 C2362 1.351 . S
C2362 C2356 1.428 . S
C2362 N2361 1.351 . S
C2362 C2363 1.434 . S
C2363 C2354 1.429 . S
C2363 N2360 1.350 . S
C2363 C2362 1.434 . S
C2364 C2365 1.369 1_556 S
C2364 C2366 1.419 . S
C2364 H2368 0.930 . S
C2365 C2364 1.369 1_554 S
C2365 C2374 1.429 . S
C2366 C2364 1.419 . S
C2366 C2367 1.363 . S
C2366 H2369 0.929 . S
C2367 C2366 1.363 . S
C2367 C2373 1.428 . S
H2368 C2364 0.930 . S
H2369 C2366 0.929 . S
S2370 N2371 1.613 . S
S2370 N2372 1.610 1_554 S
N2371 S2370 1.613 . S
N2371 C2374 1.350 . S
N2372 S2370 1.610 1_556 S
N2372 C2373 1.351 . S
C2373 C2367 1.428 . S
C2373 N2372 1.351 . S
C2373 C2374 1.434 1_556 S
C2374 C2365 1.429 . S
C2374 N2371 1.350 . S
C2374 C2373 1.434 1_554 S
C2375 C2376 1.369 . S
C2375 C2377 1.419 . S
C2375 H2379 0.930 . S
C2376 C2375 1.369 . S
C2376 C2385 1.429 . S
C2377 C2375 1.419 . S
C2377 C2378 1.363 1_556 S
C2377 H2380 0.929 . S
C2378 C2377 1.363 1_554 S
C2378 C2384 1.428 1_554 S
H2379 C2375 0.930 . S
H2380 C2377 0.929 . S
S2381 N2382 1.613 . S
S2381 N2383 1.610 1_556 S
N2382 S2381 1.613 . S
N2382 C2385 1.350 . S
N2383 S2381 1.610 1_554 S
N2383 C2384 1.351 1_554 S
C2384 C2378 1.428 1_556 S
C2384 N2383 1.351 1_556 S
C2384 C2385 1.434 . S
C2385 C2376 1.429 . S
C2385 N2382 1.350 . S
C2385 C2384 1.434 . S
C2386 C2387 1.369 . S
C2386 C2388 1.419 . S
C2386 H2390 0.930 . S
C2387 C2386 1.369 . S
C2387 C2396 1.429 . S
C2388 C2386 1.419 . S
C2388 C2389 1.363 1_556 S
C2388 H2391 0.929 1_556 S
C2389 C2388 1.363 1_554 S
C2389 C2395 1.428 1_554 S
H2390 C2386 0.930 . S
H2391 C2388 0.929 1_554 S
S2392 N2393 1.613 . S
S2392 N2394 1.610 . S
N2393 S2392 1.613 . S
N2393 C2396 1.350 . S
N2394 S2392 1.610 . S
N2394 C2395 1.351 . S
C2395 C2389 1.428 1_556 S
C2395 N2394 1.351 . S
C2395 C2396 1.434 . S
C2396 C2387 1.429 . S
C2396 N2393 1.350 . S
C2396 C2395 1.434 . S
C2397 C2398 1.369 . S
C2397 C2399 1.419 . S
C2397 H2401 0.930 . S
C2398 C2397 1.369 . S
C2398 C2407 1.429 . S
C2399 C2397 1.419 . S
C2399 C2400 1.363 . S
C2399 H2402 0.929 . S
C2400 C2399 1.363 . S
C2400 C2406 1.428 . S
H2401 C2397 0.930 . S
H2402 C2399 0.929 . S
S2403 N2404 1.613 . S
S2403 N2405 1.610 . S
N2404 S2403 1.613 . S
N2404 C2407 1.350 . S
N2405 S2403 1.610 . S
N2405 C2406 1.351 . S
C2406 C2400 1.428 . S
C2406 N2405 1.351 . S
C2406 C2407 1.434 . S
C2407 C2398 1.429 . S
C2407 N2404 1.350 . S
C2407 C2406 1.434 . S
C2408 C2409 1.369 . S
C2408 C2410 1.419 . S
C2408 H2412 0.930 . S
C2409 C2408 1.369 . S
C2409 C2418 1.429 . S
C2410 C2408 1.419 . S
C2410 C2411 1.363 . S
C2410 H2413 0.929 . S
C2411 C2410 1.363 . S
C2411 C2417 1.428 . S
H2412 C2408 0.930 . S
H2413 C2410 0.929 . S
S2414 N2415 1.613 . S
S2414 N2416 1.610 . S
N2415 S2414 1.613 . S
N2415 C2418 1.350 . S
N2416 S2414 1.610 . S
N2416 C2417 1.351 . S
C2417 C2411 1.428 . S
C2417 N2416 1.351 . S
C2417 C2418 1.434 . S
C2418 C2409 1.429 . S
C2418 N2415 1.350 . S
C2418 C2417 1.434 . S
C2419 C2420 1.369 . S
C2419 C2421 1.419 . S
C2419 H2423 0.930 . S
C2420 C2419 1.369 . S
C2420 C2429 1.429 . S
C2421 C2419 1.419 . S
C2421 C2422 1.363 . S
C2421 H2424 0.929 . S
C2422 C2421 1.363 . S
C2422 C2428 1.428 . S
H2423 C2419 0.930 . S
H2424 C2421 0.929 . S
S2425 N2426 1.613 . S
S2425 N2427 1.610 . S
N2426 S2425 1.613 . S
N2426 C2429 1.350 . S
N2427 S2425 1.610 . S
N2427 C2428 1.351 . S
C2428 C2422 1.428 . S
C2428 N2427 1.351 . S
C2428 C2429 1.434 . S
C2429 C2420 1.429 . S
C2429 N2426 1.350 . S
C2429 C2428 1.434 . S
C2430 C2431 1.369 . S
C2430 C2432 1.419 . S
C2430 H2434 0.930 . S
C2431 C2430 1.369 . S
C2431 C2440 1.429 1_455 S
C2432 C2430 1.419 . S
C2432 C2433 1.363 1_455 S
C2432 H2435 0.929 1_554 S
C2433 C2432 1.363 1_655 S
C2433 C2439 1.428 . S
H2434 C2430 0.930 . S
H2435 C2432 0.929 1_556 S
S2436 N2437 1.613 . S
S2436 N2438 1.610 . S
N2437 S2436 1.613 . S
N2437 C2440 1.350 . S
N2438 S2436 1.610 . S
N2438 C2439 1.351 . S
C2439 C2433 1.428 . S
C2439 N2438 1.351 . S
C2439 C2440 1.434 . S
C2440 C2431 1.429 1_655 S
C2440 N2437 1.350 . S
C2440 C2439 1.434 . S
C2441 C2442 1.369 . S
C2441 C2443 1.419 . S
C2441 H2445 0.930 . S
C2442 C2441 1.369 . S
C2442 C2451 1.429 . S
C2443 C2441 1.419 . S
C2443 C2444 1.363 . S
C2443 H2446 0.929 . S
C2444 C2443 1.363 . S
C2444 C2450 1.428 . S
H2445 C2441 0.930 . S
H2446 C2443 0.929 . S
S2447 N2448 1.613 1_556 S
S2447 N2449 1.610 . S
N2448 S2447 1.613 1_554 S
N2448 C2451 1.350 . S
N2449 S2447 1.610 . S
N2449 C2450 1.351 1_556 S
C2450 C2444 1.428 . S
C2450 N2449 1.351 1_554 S
C2450 C2451 1.434 . S
C2451 C2442 1.429 . S
C2451 N2448 1.350 . S
C2451 C2450 1.434 . S
C2452 C2453 1.369 1_565 S
C2452 C2454 1.419 . S
C2452 H2456 0.930 1_554 S
C2453 C2452 1.369 1_545 S
C2453 C2462 1.429 . S
C2454 C2452 1.419 . S
C2454 C2455 1.363 . S
C2454 H2457 0.929 . S
C2455 C2454 1.363 . S
C2455 C2461 1.428 1_565 S
H2456 C2452 0.930 1_556 S
H2457 C2454 0.929 . S
S2458 N2459 1.613 . S
S2458 N2460 1.610 . S
N2459 S2458 1.613 . S
N2459 C2462 1.350 . S
N2460 S2458 1.610 . S
N2460 C2461 1.351 . S
C2461 C2455 1.428 1_545 S
C2461 N2460 1.351 . S
C2461 C2462 1.434 . S
C2462 C2453 1.429 . S
C2462 N2459 1.350 . S
C2462 C2461 1.434 . S
C2463 C2464 1.369 . S
C2463 C2465 1.419 . S
C2463 H2467 0.930 . S
C2464 C2463 1.369 . S
C2464 C2473 1.429 1_565 S
C2465 C2463 1.419 . S
C2465 C2466 1.363 1_565 S
C2465 H2468 0.929 . S
C2466 C2465 1.363 1_545 S
C2466 C2472 1.428 . S
H2467 C2463 0.930 . S
H2468 C2465 0.929 . S
S2469 N2470 1.613 . S
S2469 N2471 1.610 . S
N2470 S2469 1.613 . S
N2470 C2473 1.350 . S
N2471 S2469 1.610 . S
N2471 C2472 1.351 . S
C2472 C2466 1.428 . S
C2472 N2471 1.351 . S
C2472 C2473 1.434 . S
C2473 C2464 1.429 1_545 S
C2473 N2470 1.350 . S
C2473 C2472 1.434 . S
C2474 C2475 1.369 1_455 S
C2474 C2476 1.419 . S
C2474 H2478 0.930 . S
C2475 C2474 1.369 1_655 S
C2475 C2484 1.429 . S
C2476 C2474 1.419 . S
C2476 C2477 1.363 . S
C2476 H2479 0.929 . S
C2477 C2476 1.363 . S
C2477 C2483 1.428 1_455 S
H2478 C2474 0.930 . S
H2479 C2476 0.929 . S
S2480 N2481 1.613 . S
S2480 N2482 1.610 . S
N2481 S2480 1.613 . S
N2481 C2484 1.350 . S
N2482 S2480 1.610 . S
N2482 C2483 1.351 . S
C2483 C2477 1.428 1_655 S
C2483 N2482 1.351 . S
C2483 C2484 1.434 . S
C2484 C2475 1.429 . S
C2484 N2481 1.350 . S
C2484 C2483 1.434 . S
C2485 C2486 1.369 . S
C2485 C2487 1.419 . S
C2485 H2489 0.930 . S
C2486 C2485 1.369 . S
C2486 C2495 1.429 . S
C2487 C2485 1.419 . S
C2487 C2488 1.363 . S
C2487 H2490 0.929 . S
C2488 C2487 1.363 . S
C2488 C2494 1.428 . S
H2489 C2485 0.930 . S
H2490 C2487 0.929 . S
S2491 N2492 1.613 . S
S2491 N2493 1.610 . S
N2492 S2491 1.613 . S
N2492 C2495 1.350 . S
N2493 S2491 1.610 . S
N2493 C2494 1.351 . S
C2494 C2488 1.428 . S
C2494 N2493 1.351 . S
C2494 C2495 1.434 . S
C2495 C2486 1.429 . S
C2495 N2492 1.350 . S
C2495 C2494 1.434 . S
C2496 C2497 1.369 . S
C2496 C2498 1.419 . S
C2496 H2500 0.930 . S
C2497 C2496 1.369 . S
C2497 C2506 1.429 . S
C2498 C2496 1.419 . S
C2498 C2499 1.363 . S
C2498 H2501 0.929 . S
C2499 C2498 1.363 . S
C2499 C2505 1.428 . S
H2500 C2496 0.930 . S
H2501 C2498 0.929 . S
S2502 N2503 1.613 . S
S2502 N2504 1.610 . S
N2503 S2502 1.613 . S
N2503 C2506 1.350 . S
N2504 S2502 1.610 . S
N2504 C2505 1.351 . S
C2505 C2499 1.428 . S
C2505 N2504 1.351 . S
C2505 C2506 1.434 . S
C2506 C2497 1.429 . S
C2506 N2503 1.350 . S
C2506 C2505 1.434 . S
C2507 C2508 1.369 . S
C2507 C2509 1.419 . S
C2507 H2511 0.930 . S
C2508 C2507 1.369 . S
C2508 C2517 1.429 . S
C2509 C2507 1.419 . S
C2509 C2510 1.363 . S
C2509 H2512 0.929 . S
C2510 C2509 1.363 . S
C2510 C2516 1.428 . S
H2511 C2507 0.930 . S
H2512 C2509 0.929 . S
S2513 N2514 1.613 . S
S2513 N2515 1.610 . S
N2514 S2513 1.613 . S
N2514 C2517 1.350 . S
N2515 S2513 1.610 . S
N2515 C2516 1.351 . S
C2516 C2510 1.428 . S
C2516 N2515 1.351 . S
C2516 C2517 1.434 . S
C2517 C2508 1.429 . S
C2517 N2514 1.350 . S
C2517 C2516 1.434 . S
C2518 C2519 1.369 . S
C2518 C2520 1.419 . S
C2518 H2522 0.930 . S
C2519 C2518 1.369 . S
C2519 C2528 1.429 . S
C2520 C2518 1.419 . S
C2520 C2521 1.363 . S
C2520 H2523 0.929 . S
C2521 C2520 1.363 . S
C2521 C2527 1.428 . S
H2522 C2518 0.930 . S
H2523 C2520 0.929 . S
S2524 N2525 1.613 . S
S2524 N2526 1.610 . S
N2525 S2524 1.613 . S
N2525 C2528 1.350 . S
N2526 S2524 1.610 . S
N2526 C2527 1.351 . S
C2527 C2521 1.428 . S
C2527 N2526 1.351 . S
C2527 C2528 1.434 . S
C2528 C2519 1.429 . S
C2528 N2525 1.350 . S
C2528 C2527 1.434 . S
C2529 C2530 1.369 . S
C2529 C2531 1.419 . S
C2529 H2533 0.930 . S
C2530 C2529 1.369 . S
C2530 C2539 1.429 . S
C2531 C2529 1.419 . S
C2531 C2532 1.363 . S
C2531 H2534 0.929 . S
C2532 C2531 1.363 . S
C2532 C2538 1.428 . S
H2533 C2529 0.930 . S
H2534 C2531 0.929 . S
S2535 N2536 1.613 . S
S2535 N2537 1.610 . S
N2536 S2535 1.613 . S
N2536 C2539 1.350 . S
N2537 S2535 1.610 . S
N2537 C2538 1.351 . S
C2538 C2532 1.428 . S
C2538 N2537 1.351 . S
C2538 C2539 1.434 . S
C2539 C2530 1.429 . S
C2539 N2536 1.350 . S
C2539 C2538 1.434 . S
C2540 C2541 1.369 . S
C2540 C2542 1.419 . S
C2540 H2544 0.930 . S
C2541 C2540 1.369 . S
C2541 C2550 1.429 . S
C2542 C2540 1.419 . S
C2542 C2543 1.363 . S
C2542 H2545 0.929 . S
C2543 C2542 1.363 . S
C2543 C2549 1.428 . S
H2544 C2540 0.930 . S
H2545 C2542 0.929 . S
S2546 N2547 1.613 . S
S2546 N2548 1.610 . S
N2547 S2546 1.613 . S
N2547 C2550 1.350 . S
N2548 S2546 1.610 . S
N2548 C2549 1.351 . S
C2549 C2543 1.428 . S
C2549 N2548 1.351 . S
C2549 C2550 1.434 . S
C2550 C2541 1.429 . S
C2550 N2547 1.350 . S
C2550 C2549 1.434 . S
C2551 C2552 1.369 . S
C2551 C2553 1.419 . S
C2551 H2555 0.930 . S
C2552 C2551 1.369 . S
C2552 C2561 1.429 . S
C2553 C2551 1.419 . S
C2553 C2554 1.363 . S
C2553 H2556 0.929 . S
C2554 C2553 1.363 . S
C2554 C2560 1.428 . S
H2555 C2551 0.930 . S
H2556 C2553 0.929 . S
S2557 N2558 1.613 . S
S2557 N2559 1.610 . S
N2558 S2557 1.613 . S
N2558 C2561 1.350 . S
N2559 S2557 1.610 . S
N2559 C2560 1.351 . S
C2560 C2554 1.428 . S
C2560 N2559 1.351 . S
C2560 C2561 1.434 . S
C2561 C2552 1.429 . S
C2561 N2558 1.350 . S
C2561 C2560 1.434 . S
C2562 C2563 1.369 . S
C2562 C2564 1.419 . S
C2562 H2566 0.930 . S
C2563 C2562 1.369 . S
C2563 C2572 1.429 . S
C2564 C2562 1.419 . S
C2564 C2565 1.363 . S
C2564 H2567 0.929 . S
C2565 C2564 1.363 . S
C2565 C2571 1.428 . S
H2566 C2562 0.930 . S
H2567 C2564 0.929 . S
S2568 N2569 1.613 . S
S2568 N2570 1.610 . S
N2569 S2568 1.613 . S
N2569 C2572 1.350 . S
N2570 S2568 1.610 . S
N2570 C2571 1.351 . S
C2571 C2565 1.428 . S
C2571 N2570 1.351 . S
C2571 C2572 1.434 . S
C2572 C2563 1.429 . S
C2572 N2569 1.350 . S
C2572 C2571 1.434 . S
C2573 C2574 1.369 . S
C2573 C2575 1.419 . S
C2573 H2577 0.930 . S
C2574 C2573 1.369 . S
C2574 C2583 1.429 . S
C2575 C2573 1.419 . S
C2575 C2576 1.363 . S
C2575 H2578 0.929 . S
C2576 C2575 1.363 . S
C2576 C2582 1.428 . S
H2577 C2573 0.930 . S
H2578 C2575 0.929 . S
S2579 N2580 1.613 . S
S2579 N2581 1.610 . S
N2580 S2579 1.613 . S
N2580 C2583 1.350 . S
N2581 S2579 1.610 . S
N2581 C2582 1.351 . S
C2582 C2576 1.428 . S
C2582 N2581 1.351 . S
C2582 C2583 1.434 . S
C2583 C2574 1.429 . S
C2583 N2580 1.350 . S
C2583 C2582 1.434 . S
C2584 C2585 1.369 . S
C2584 C2586 1.419 . S
C2584 H2588 0.930 . S
C2585 C2584 1.369 . S
C2585 C2594 1.429 . S
C2586 C2584 1.419 . S
C2586 C2587 1.363 . S
C2586 H2589 0.929 . S
C2587 C2586 1.363 . S
C2587 C2593 1.428 . S
H2588 C2584 0.930 . S
H2589 C2586 0.929 . S
S2590 N2591 1.613 . S
S2590 N2592 1.610 . S
N2591 S2590 1.613 . S
N2591 C2594 1.350 . S
N2592 S2590 1.610 . S
N2592 C2593 1.351 . S
C2593 C2587 1.428 . S
C2593 N2592 1.351 . S
C2593 C2594 1.434 . S
C2594 C2585 1.429 . S
C2594 N2591 1.350 . S
C2594 C2593 1.434 . S
C2595 C2596 1.369 . S
C2595 C2597 1.419 . S
C2595 H2599 0.930 . S
C2596 C2595 1.369 . S
C2596 C2605 1.429 . S
C2597 C2595 1.419 . S
C2597 C2598 1.363 . S
C2597 H2600 0.929 . S
C2598 C2597 1.363 . S
C2598 C2604 1.428 . S
H2599 C2595 0.930 . S
H2600 C2597 0.929 . S
S2601 N2602 1.613 . S
S2601 N2603 1.610 . S
N2602 S2601 1.613 . S
N2602 C2605 1.350 . S
N2603 S2601 1.610 . S
N2603 C2604 1.351 . S
C2604 C2598 1.428 . S
C2604 N2603 1.351 . S
C2604 C2605 1.434 . S
C2605 C2596 1.429 . S
C2605 N2602 1.350 . S
C2605 C2604 1.434 . S
C2606 C2607 1.369 . S
C2606 C2608 1.419 . S
C2606 H2610 0.930 . S
C2607 C2606 1.369 . S
C2607 C2616 1.429 . S
C2608 C2606 1.419 . S
C2608 C2609 1.363 . S
C2608 H2611 0.929 . S
C2609 C2608 1.363 . S
C2609 C2615 1.428 . S
H2610 C2606 0.930 . S
H2611 C2608 0.929 . S
S2612 N2613 1.613 . S
S2612 N2614 1.610 . S
N2613 S2612 1.613 . S
N2613 C2616 1.350 . S
N2614 S2612 1.610 . S
N2614 C2615 1.351 . S
C2615 C2609 1.428 . S
C2615 N2614 1.351 . S
C2615 C2616 1.434 . S
C2616 C2607 1.429 . S
C2616 N2613 1.350 . S
C2616 C2615 1.434 . S
C2617 C2618 1.369 . S
C2617 C2619 1.419 . S
C2617 H2621 0.930 . S
C2618 C2617 1.369 . S
C2618 C2627 1.429 . S
C2619 C2617 1.419 . S
C2619 C2620 1.363 . S
C2619 H2622 0.929 . S
C2620 C2619 1.363 . S
C2620 C2626 1.428 . S
H2621 C2617 0.930 . S
H2622 C2619 0.929 . S
S2623 N2624 1.613 . S
S2623 N2625 1.610 . S
N2624 S2623 1.613 . S
N2624 C2627 1.350 . S
N2625 S2623 1.610 . S
N2625 C2626 1.351 . S
C2626 C2620 1.428 . S
C2626 N2625 1.351 . S
C2626 C2627 1.434 . S
C2627 C2618 1.429 . S
C2627 N2624 1.350 . S
C2627 C2626 1.434 . S
C1441 C609 2.541 . S
C1443 C9 2.543 . S
C1452 C649 2.537 . S
C1454 C49 2.544 . S
C1463 C89 2.537 . S
C1465 C689 2.544 . S
C1474 C129 2.539 . S
C1476 C969 2.544 . S
C1485 C169 2.538 . S
C1487 C1009 2.543 . S
C1496 C209 2.544 . S
C1498 C1049 2.542 . S
C1507 C1338 2.538 . S
C1509 C258 2.542 . S
C1518 C1378 2.539 . S
C1520 C298 2.544 . S
C1529 C338 2.541 . S
C1531 C1418 2.542 . S
C1540 C738 2.545 . S
C1542 C378 2.539 . S
C1551 C418 2.545 . S
C1553 C778 2.538 . S
C1562 C458 2.537 . S
C1564 C818 2.542 . S
C1573 C1089 2.538 . S
C1575 C489 2.545 . S
C1584 C529 2.542 . S
C1586 C1129 2.543 . S
C1595 C1169 2.539 . S
C1597 C569 2.540 . S
C1606 C1218 2.538 . S
C1608 C858 2.542 . S
C1617 C1258 2.537 . S
C1619 C898 2.544 . S
C1628 C938 2.537 . S
C1630 C1298 2.544 . S
C1639 C15 0.409 . S
C1641 C175 0.388 . S
C1650 C55 0.393 . S
C1652 C215 0.410 . S
C1661 C95 0.411 . S
C1663 C135 0.390 . S
C1672 C246 0.411 . S
C1674 C406 0.398 . S
C1683 C286 0.387 . S
C1685 C446 0.397 . S
C1694 C326 0.412 . S
C1696 C366 0.389 . S
C1705 C495 0.390 . S
C1707 C655 0.409 . S
C1716 C695 0.411 . S
C1718 C535 0.390 . S
C1727 C575 0.409 . S
C1729 C615 0.388 . S
C1738 C726 0.391 . S
C1740 C886 0.394 . S
C1749 C766 0.396 . S
C1751 C926 0.409 . S
C1760 C846 0.412 . S
C1762 C806 0.391 . S
C1771 C975 0.392 . S
C1773 C1135 0.409 . S
C1782 C1175 0.413 . S
C1784 C1015 0.392 . S
C1793 C1055 0.394 . S
C1795 C1095 0.389 . S
C1804 C1206 0.385 . S
C1806 C1366 0.407 . S
C1815 C1246 0.384 . S
C1817 C1406 0.404 . S
C1826 C1286 0.407 . S
C1828 C1326 0.387 . S
C1837 C415 1.678 . S
C1839 C19 1.782 1_556 S
C1848 C59 1.781 1_556 S
C1850 C455 1.685 . S
C1859 C99 1.777 1_556 S
C1861 C375 1.687 . S
C1870 C139 1.780 . S
C1872 C335 1.686 . S
C1881 C179 1.782 . S
C1883 C255 1.679 . S
C1892 C295 1.677 . S
C1894 C219 1.780 . S
C1903 C250 1.782 . S
C1905 C166 1.679 . S
C1914 C206 1.679 . S
C1916 C290 1.782 . S
C1925 C330 1.783 . S
C1927 C126 1.680 . S
C1936 C370 1.779 . S
C1938 C86 1.687 . S
C1947 C6 1.684 . S
C1949 C410 1.777 . S
C1958 C46 1.678 . S
C1960 C450 1.782 . S
C1969 C895 1.687 . S
C1971 C499 1.777 . S
C1980 C935 1.685 . S
C1982 C539 1.781 . S
C1991 C855 1.678 . S
C1993 C579 1.782 . S
C2002 C815 1.685 . S
C2004 C619 1.780 . S
C2013 C659 1.782 . S
C2015 C735 1.678 . S
C2024 C775 1.684 . S
C2026 C699 1.777 . S
C2035 C646 1.687 . S
C2037 C730 1.777 . S
C2046 C770 1.781 . S
C2048 C686 1.678 . S
C2057 C810 1.778 . S
C2059 C606 1.687 . S
C2068 C566 1.677 . S
C2070 C850 1.780 . S
C2079 C890 1.777 . S
C2081 C486 1.680 . S
C2090 C930 1.782 . S
C2092 C526 1.683 . S
C2101 C979 1.777 . S
C2103 C1375 1.687 . S
C2112 C1019 1.776 . S
C2114 C1415 1.686 . S
C2123 C1335 1.685 . S
C2125 C1059 1.776 . S
C2134 C1295 1.684 . S
C2136 C1099 1.777 . S
C2145 C1139 1.783 . S
C2147 C1215 1.679 . S
C2156 C1255 1.678 . S
C2158 C1179 1.779 . S
C2167 C1210 1.776 . S
C2169 C1126 1.685 . S
C2178 C1166 1.681 . S
C2180 C1250 1.782 . S
C2189 C1290 1.776 . S
C2191 C1086 1.686 . S
C2200 C1330 1.779 . S
C2202 C1046 1.687 . S
C2211 C966 1.687 . S
C2213 C1370 1.778 . S
C2222 C1006 1.677 . S
C2224 C1410 1.781 . S
C2233 C10 3.339 . S
C2235 C170 3.339 . S
C2244 C210 3.340 . S
C2246 C50 3.339 . S
C2255 C90 3.338 . S
C2257 C130 3.340 . S
C2266 C259 3.338 . S
C2268 C419 3.339 . S
C2277 C459 3.338 . S
C2279 C299 3.340 . S
C2288 C339 3.340 . S
C2290 C379 3.339 . S
C2299 C650 3.338 . S
C2301 C490 3.338 . S
C2310 C690 3.340 . S
C2312 C530 3.338 . S
C2321 C610 3.338 . S
C2323 C570 3.339 . S
C2332 C899 3.338 . S
C2334 C739 3.340 . S
C2343 C779 3.338 . S
C2345 C939 3.340 . S
C2354 C859 3.340 . S
C2356 C819 3.338 . S
C2365 C1130 3.338 . S
C2367 C970 3.339 . S
C2376 C1010 3.340 . S
C2378 C1170 3.340 . S
C2387 C1050 3.338 . S
C2389 C1090 3.340 . S
C2398 C1379 3.340 . S
C2400 C1219 3.339 . S
C2409 C1259 3.338 . S
C2411 C1419 3.339 . S
C2420 C1299 3.338 . S
C2422 C1339 3.338 . S
C2431 C18 1.348 . S
C2433 C249 1.340 . S
C2442 C58 1.340 . S
C2444 C289 1.346 . S
C2453 C329 1.335 . S
C2455 C98 1.349 . S
C2464 C369 1.347 . S
C2466 C138 1.343 . S
C2475 C178 1.337 . S
C2477 C409 1.349 . S
C2486 C218 1.343 . S
C2488 C449 1.343 . S
C2497 C729 1.346 . S
C2499 C498 1.340 . S
C2508 C538 1.352 . S
C2510 C769 1.337 . S
C2519 C809 1.345 . S
C2521 C578 1.341 . S
C2530 C849 1.334 . S
C2532 C618 1.350 . S
C2541 C889 1.352 . S
C2543 C658 1.336 . S
C2552 C929 1.334 . S
C2554 C698 1.351 . S
C2563 C1209 1.353 . S
C2565 C978 1.337 . S
C2574 C1018 1.351 . S
C2576 C1249 1.337 . S
C2585 C1289 1.352 . S
C2587 C1058 1.337 . S
C2596 C1329 1.338 . S
C2598 C1098 1.346 . S
C2607 C1369 1.353 . S
C2609 C1138 1.336 . S
C2618 C1178 1.340 . S
C2620 C1409 1.346 . S
