# Generated by pormake.
# Topology upc, (4)-cn, num edge types: 1
# Building blocks:
#     Node 0, Type 0, BuildingBlock: CEKHIL_clean_sbu_0, # of connection points: 4
#     Node 1, Type 0, BuildingBlock: CEKHIL_clean_sbu_0, # of connection points: 4
#     Node 2, Type 0, BuildingBlock: CEKHIL_clean_sbu_0, # of connection points: 4
#     Node 3, Type 0, BuildingBlock: CEKHIL_clean_sbu_0, # of connection points: 4
#     Node 4, Type 0, BuildingBlock: CEKHIL_clean_sbu_0, # of connection points: 4
#     Node 5, Type 0, BuildingBlock: CEKHIL_clean_sbu_0, # of connection points: 4
#     Node 6, Type 0, BuildingBlock: CEKHIL_clean_sbu_0, # of connection points: 4
#     Node 7, Type 0, BuildingBlock: CEKHIL_clean_sbu_0, # of connection points: 4
#     Node 8, Type 0, BuildingBlock: CEKHIL_clean_sbu_0, # of connection points: 4
#     Node 9, Type 0, BuildingBlock: CEKHIL_clean_sbu_0, # of connection points: 4
#     Node 10, Type 0, BuildingBlock: CEKHIL_clean_sbu_0, # of connection points: 4
#     Node 11, Type 0, BuildingBlock: CEKHIL_clean_sbu_0, # of connection points: 4
#     Node 12, Type 0, BuildingBlock: CEKHIL_clean_sbu_0, # of connection points: 4
#     Node 13, Type 0, BuildingBlock: CEKHIL_clean_sbu_0, # of connection points: 4
#     Node 14, Type 0, BuildingBlock: CEKHIL_clean_sbu_0, # of connection points: 4
#     Node 15, Type 0, BuildingBlock: CEKHIL_clean_sbu_0, # of connection points: 4
#     Edge 16, Type (0, 0), BuildingBlock: ZUJKAS_clean_linker_0, # of connection points: 2
#     Edge 17, Type (0, 0), BuildingBlock: ZUJKAS_clean_linker_0, # of connection points: 2
#     Edge 18, Type (0, 0), BuildingBlock: ZUJKAS_clean_linker_0, # of connection points: 2
#     Edge 19, Type (0, 0), BuildingBlock: ZUJKAS_clean_linker_0, # of connection points: 2
#     Edge 20, Type (0, 0), BuildingBlock: ZUJKAS_clean_linker_0, # of connection points: 2
#     Edge 21, Type (0, 0), BuildingBlock: ZUJKAS_clean_linker_0, # of connection points: 2
#     Edge 22, Type (0, 0), BuildingBlock: ZUJKAS_clean_linker_0, # of connection points: 2
#     Edge 23, Type (0, 0), BuildingBlock: ZUJKAS_clean_linker_0, # of connection points: 2
#     Edge 24, Type (0, 0), BuildingBlock: ZUJKAS_clean_linker_0, # of connection points: 2
#     Edge 25, Type (0, 0), BuildingBlock: ZUJKAS_clean_linker_0, # of connection points: 2
#     Edge 26, Type (0, 0), BuildingBlock: ZUJKAS_clean_linker_0, # of connection points: 2
#     Edge 27, Type (0, 0), BuildingBlock: ZUJKAS_clean_linker_0, # of connection points: 2
#     Edge 28, Type (0, 0), BuildingBlock: ZUJKAS_clean_linker_0, # of connection points: 2
#     Edge 29, Type (0, 0), BuildingBlock: ZUJKAS_clean_linker_0, # of connection points: 2
#     Edge 30, Type (0, 0), BuildingBlock: ZUJKAS_clean_linker_0, # of connection points: 2
#     Edge 31, Type (0, 0), BuildingBlock: ZUJKAS_clean_linker_0, # of connection points: 2
#     Edge 32, Type (0, 0), BuildingBlock: ZUJKAS_clean_linker_0, # of connection points: 2
#     Edge 33, Type (0, 0), BuildingBlock: ZUJKAS_clean_linker_0, # of connection points: 2
#     Edge 34, Type (0, 0), BuildingBlock: ZUJKAS_clean_linker_0, # of connection points: 2
#     Edge 35, Type (0, 0), BuildingBlock: ZUJKAS_clean_linker_0, # of connection points: 2
#     Edge 36, Type (0, 0), BuildingBlock: ZUJKAS_clean_linker_0, # of connection points: 2
#     Edge 37, Type (0, 0), BuildingBlock: ZUJKAS_clean_linker_0, # of connection points: 2
#     Edge 38, Type (0, 0), BuildingBlock: ZUJKAS_clean_linker_0, # of connection points: 2
#     Edge 39, Type (0, 0), BuildingBlock: ZUJKAS_clean_linker_0, # of connection points: 2
#     Edge 40, Type (0, 0), BuildingBlock: ZUJKAS_clean_linker_0, # of connection points: 2
#     Edge 41, Type (0, 0), BuildingBlock: ZUJKAS_clean_linker_0, # of connection points: 2
#     Edge 42, Type (0, 0), BuildingBlock: ZUJKAS_clean_linker_0, # of connection points: 2
#     Edge 43, Type (0, 0), BuildingBlock: ZUJKAS_clean_linker_0, # of connection points: 2
#     Edge 44, Type (0, 0), BuildingBlock: ZUJKAS_clean_linker_0, # of connection points: 2
#     Edge 45, Type (0, 0), BuildingBlock: ZUJKAS_clean_linker_0, # of connection points: 2
#     Edge 46, Type (0, 0), BuildingBlock: ZUJKAS_clean_linker_0, # of connection points: 2
#     Edge 47, Type (0, 0), BuildingBlock: ZUJKAS_clean_linker_0, # of connection points: 2
# Relax obj value: 0.268
# Max RMSD: 0.292
# Mean RMSD: 0.292
data_MOF--net-upc--node1-CEKHIL_clean_sbu_0--edge1-ZUJKAS_clean_linker_0
_symmetry_space_group_name_H-M    P1
_symmetry_Int_Tables_number       1
_symmetry_cell_setting            triclinic
loop_
_symmetry_equiv_pos_as_xyz
'x, y, z'
_cell_length_a     43.153932
_cell_length_b     43.143296
_cell_length_c     55.547215
_cell_angle_alpha  89.991938
_cell_angle_beta   90.018422
_cell_angle_gamma 90.03207
loop_
_atom_site_label
_atom_site_type_symbol
_atom_site_fract_x
_atom_site_fract_y
_atom_site_fract_z
_atom_type_partial_charge
Co0 Co 0.07335 0.63156 0.11565 0.0
O1 O 0.0798 0.59698 0.09471 0.0
O2 O 0.03492 0.62118 0.09987 0.0
C3 C 0.11588 0.65768 0.10387 0.0
O4 O 0.05798 0.66807 0.13529 0.0
Co5 Co 0.12125 0.64695 0.15556 0.0
O6 O 0.09616 0.68522 0.15932 0.0
C7 C 0.077 0.59561 0.16273 0.0
C8 C 0.05068 0.59944 0.08922 0.0
C9 C 0.06887 0.68745 0.15068 0.0
O10 O 0.06308 0.60298 0.14308 0.0
O11 O 0.10211 0.60855 0.16986 0.0
O12 O 0.09045 0.65958 0.09143 0.0
O13 O 0.11537 0.63852 0.12172 0.0
Co14 Co 0.85449 0.06258 0.1174 0.0
O15 O 0.88858 0.07611 0.09811 0.0
O16 O 0.87148 0.02764 0.10042 0.0
C17 C 0.82307 0.10171 0.10657 0.0
O18 O 0.82018 0.03999 0.13506 0.0
Co19 Co 0.8293 0.10369 0.1587 0.0
O20 O 0.79493 0.07302 0.15927 0.0
C21 C 0.88722 0.06838 0.1656 0.0
C22 C 0.89106 0.04743 0.09138 0.0
C23 C 0.79816 0.04631 0.14978 0.0
O24 O 0.883 0.05471 0.1453 0.0
O25 O 0.86999 0.09045 0.17328 0.0
O26 O 0.82536 0.07728 0.093 0.0
O27 O 0.84095 0.10235 0.12517 0.0
Co28 Co 0.42963 0.86139 0.11594 0.0
O29 O 0.41796 0.89514 0.09541 0.0
O30 O 0.46576 0.87696 0.09968 0.0
C31 C 0.39042 0.83022 0.10465 0.0
O32 O 0.45077 0.82719 0.13488 0.0
Co33 Co 0.38675 0.83706 0.15642 0.0
O34 O 0.41584 0.80147 0.15704 0.0
C35 C 0.42446 0.89359 0.1645 0.0
C36 C 0.44702 0.89656 0.08945 0.0
C37 C 0.44323 0.80473 0.14887 0.0
O38 O 0.43674 0.89068 0.14352 0.0
O39 O 0.40317 0.87557 0.17246 0.0
O40 O 0.41549 0.83171 0.09173 0.0
O41 O 0.38921 0.84869 0.1229 0.0
Co42 Co 0.63672 0.4218 0.12179 0.0
O43 O 0.60262 0.41082 0.10147 0.0
O44 O 0.62191 0.45826 0.10551 0.0
C45 C 0.66664 0.38186 0.11022 0.0
O46 O 0.67171 0.44207 0.14045 0.0
Co47 Co 0.65964 0.37826 0.16222 0.0
O48 O 0.69549 0.40698 0.16378 0.0
C49 C 0.60347 0.41633 0.16986 0.0
C50 C 0.60186 0.43986 0.09541 0.0
C51 C 0.69351 0.43416 0.15494 0.0
O52 O 0.60769 0.42953 0.14937 0.0
O53 O 0.6205 0.39413 0.1776 0.0
O54 O 0.66577 0.40707 0.09745 0.0
O55 O 0.64835 0.38101 0.12861 0.0
Co56 Co 0.07435 0.86679 0.37831 0.0
O57 O 0.08285 0.89973 0.40029 0.0
O58 O 0.03677 0.87788 0.39504 0.0
C59 C 0.11593 0.83831 0.38862 0.0
O60 O 0.05714 0.83213 0.35755 0.0
Co61 Co 0.12088 0.85246 0.33728 0.0
O62 O 0.09462 0.81508 0.33283 0.0
C63 C 0.07801 0.90527 0.33239 0.0
C64 C 0.05381 0.89827 0.40616 0.0
C65 C 0.06733 0.81324 0.34153 0.0
O66 O 0.06459 0.8973 0.3521 0.0
O67 O 0.10245 0.89199 0.32433 0.0
O68 O 0.09066 0.8367 0.40126 0.0
O69 O 0.11595 0.85857 0.37151 0.0
Co70 Co 0.63964 0.06223 0.37879 0.0
O71 O 0.60549 0.0752 0.39847 0.0
O72 O 0.62338 0.02707 0.39579 0.0
C73 C 0.67087 0.10171 0.38935 0.0
O74 O 0.67404 0.0397 0.3612 0.0
Co75 Co 0.66627 0.10225 0.33747 0.0
O76 O 0.7018 0.07305 0.33907 0.0
C77 C 0.60828 0.06647 0.32994 0.0
C78 C 0.60374 0.04641 0.40521 0.0
C79 C 0.69764 0.04629 0.34815 0.0
O80 O 0.61093 0.05424 0.35097 0.0
O81 O 0.62686 0.08725 0.32191 0.0
O82 O 0.66879 0.07738 0.40306 0.0
O83 O 0.65306 0.10203 0.3707 0.0
Co84 Co 0.43046 0.63411 0.37939 0.0
O85 O 0.41717 0.60006 0.39904 0.0
O86 O 0.46541 0.61768 0.39663 0.0
C87 C 0.39107 0.66547 0.3897 0.0
O88 O 0.45314 0.66848 0.36172 0.0
Co89 Co 0.39067 0.66014 0.33774 0.0
O90 O 0.4193 0.6961 0.33992 0.0
C91 C 0.42702 0.60262 0.33051 0.0
C92 C 0.44587 0.59806 0.40589 0.0
C93 C 0.44618 0.69217 0.34884 0.0
O94 O 0.43856 0.60525 0.35176 0.0
O95 O 0.40657 0.62119 0.32203 0.0
O96 O 0.41534 0.6634 0.40349 0.0
O97 O 0.39073 0.6475 0.37113 0.0
Co98 Co 0.85971 0.42667 0.37898 0.0
O99 O 0.89364 0.41924 0.40041 0.0
O100 O 0.87017 0.46457 0.39541 0.0
C101 C 0.83277 0.38418 0.38969 0.0
O102 O 0.82398 0.44318 0.35909 0.0
Co103 Co 0.84405 0.3803 0.33809 0.0
O104 O 0.80638 0.40626 0.3341 0.0
C105 C 0.89697 0.42313 0.33261 0.0
C106 C 0.8914 0.44829 0.40621 0.0
C107 C 0.80464 0.43329 0.34328 0.0
O108 O 0.88918 0.4371 0.35215 0.0
O109 O 0.88364 0.39844 0.32504 0.0
O110 O 0.83086 0.40931 0.4025 0.0
O111 O 0.85227 0.38496 0.37209 0.0
Co112 Co 0.92293 0.36933 0.87326 0.0
O113 O 0.91186 0.40323 0.89377 0.0
O114 O 0.95911 0.38341 0.89038 0.0
C115 C 0.88242 0.33936 0.88361 0.0
O116 O 0.94308 0.33428 0.85451 0.0
Co117 Co 0.8798 0.34844 0.83172 0.0
O118 O 0.90757 0.31187 0.83068 0.0
C119 C 0.91953 0.40372 0.82543 0.0
C120 C 0.94071 0.40356 0.90034 0.0
C121 C 0.93465 0.31287 0.83981 0.0
O122 O 0.93192 0.39881 0.84614 0.0
O123 O 0.89721 0.38736 0.81703 0.0
O124 O 0.90711 0.33994 0.897 0.0
O125 O 0.88223 0.35827 0.8656 0.0
Co126 Co 0.13333 0.92568 0.88274 0.0
O127 O 0.09991 0.91804 0.90447 0.0
O128 O 0.12311 0.96353 0.89931 0.0
C129 C 0.15988 0.88306 0.89339 0.0
O130 O 0.16841 0.94245 0.86237 0.0
Co131 Co 0.14925 0.87941 0.84199 0.0
O132 O 0.18698 0.90535 0.83809 0.0
C133 C 0.09594 0.92194 0.83658 0.0
C134 C 0.10212 0.94709 0.91027 0.0
C135 C 0.188 0.93268 0.84676 0.0
O136 O 0.10339 0.93589 0.85621 0.0
O137 O 0.10964 0.89751 0.82893 0.0
O138 O 0.16276 0.90835 0.9059 0.0
O139 O 0.14034 0.88397 0.87585 0.0
Co140 Co 0.57094 0.12947 0.8737 0.0
O141 O 0.5806 0.09593 0.89502 0.0
O142 O 0.53382 0.11628 0.88994 0.0
C143 C 0.61135 0.1592 0.88469 0.0
O144 O 0.55194 0.16421 0.85399 0.0
Co145 Co 0.61573 0.14944 0.83304 0.0
O146 O 0.58813 0.18606 0.8305 0.0
C147 C 0.57566 0.09445 0.82624 0.0
C148 C 0.55143 0.09614 0.90073 0.0
C149 C 0.56079 0.18525 0.83914 0.0
O150 O 0.56277 0.0995 0.84674 0.0
O151 O 0.59827 0.11065 0.81815 0.0
O152 O 0.58606 0.15927 0.89738 0.0
O153 O 0.61209 0.1399 0.86693 0.0
Co154 Co 0.36777 0.56801 0.88229 0.0
O155 O 0.40195 0.57686 0.90314 0.0
O156 O 0.38081 0.53041 0.89792 0.0
C157 C 0.33949 0.60883 0.89435 0.0
O158 O 0.33236 0.5498 0.86288 0.0
Co159 Co 0.34592 0.61376 0.84285 0.0
O160 O 0.30808 0.58748 0.84249 0.0
C161 C 0.40085 0.57381 0.83429 0.0
C162 C 0.40139 0.54762 0.90861 0.0
C163 C 0.30975 0.55965 0.84999 0.0
O164 O 0.39677 0.5602 0.85467 0.0
O165 O 0.38422 0.59661 0.82706 0.0
O166 O 0.3388 0.58321 0.90665 0.0
O167 O 0.358 0.60934 0.87614 0.0
Co168 Co 0.92708 0.13374 0.61936 0.0
O169 O 0.9174 0.10019 0.5982 0.0
O170 O 0.9642 0.12066 0.60292 0.0
C171 C 0.8865 0.16322 0.6084 0.0
O172 O 0.94555 0.16865 0.63922 0.0
Co173 Co 0.88107 0.15155 0.66001 0.0
O174 O 0.90888 0.18792 0.6637 0.0
C175 C 0.92147 0.09699 0.66595 0.0
C176 C 0.94646 0.10044 0.59229 0.0
C177 C 0.93616 0.18848 0.65486 0.0
O178 O 0.93567 0.10395 0.64634 0.0
O179 O 0.89741 0.11143 0.67348 0.0
O180 O 0.91172 0.16342 0.59564 0.0
O181 O 0.8859 0.14371 0.62602 0.0
Co182 Co 0.35523 0.93203 0.61332 0.0
O183 O 0.38999 0.92051 0.59378 0.0
O184 O 0.3712 0.96818 0.59742 0.0
C185 C 0.32512 0.89239 0.60127 0.0
O186 O 0.32011 0.95317 0.63109 0.0
Co187 Co 0.32853 0.88978 0.6532 0.0
O188 O 0.2924 0.91823 0.65171 0.0
C189 C 0.38561 0.92633 0.66244 0.0
C190 C 0.39136 0.94957 0.58777 0.0
C191 C 0.29633 0.94553 0.64358 0.0
O192 O 0.38322 0.93931 0.64167 0.0
O193 O 0.36721 0.90496 0.66975 0.0
O194 O 0.32692 0.9174 0.58828 0.0
O195 O 0.34247 0.89162 0.62018 0.0
Co196 Co 0.5682 0.36025 0.61849 0.0
O197 O 0.57691 0.3947 0.59777 0.0
O198 O 0.53063 0.37316 0.60278 0.0
C199 C 0.60909 0.33181 0.60668 0.0
O200 O 0.55005 0.32448 0.63757 0.0
Co201 Co 0.61385 0.33925 0.65839 0.0
O202 O 0.58675 0.30219 0.6603 0.0
C203 C 0.57348 0.39375 0.66648 0.0
C204 C 0.54768 0.39398 0.59224 0.0
C205 C 0.55929 0.303 0.65188 0.0
O206 O 0.55997 0.38914 0.64614 0.0
O207 O 0.59645 0.37756 0.67392 0.0
O208 O 0.58374 0.33162 0.59404 0.0
O209 O 0.60949 0.3504 0.62487 0.0
Co210 Co 0.13429 0.57438 0.61425 0.0
O211 O 0.10025 0.58643 0.5942 0.0
O212 O 0.11768 0.53834 0.59845 0.0
C213 C 0.16569 0.613 0.60216 0.0
O214 O 0.16863 0.55297 0.63289 0.0
Co215 Co 0.16015 0.61755 0.654 0.0
O216 O 0.1955 0.58815 0.65399 0.0
C217 C 0.10303 0.58114 0.66304 0.0
C218 C 0.09815 0.55736 0.58844 0.0
C219 C 0.19164 0.56061 0.64629 0.0
O220 O 0.10559 0.56811 0.6423 0.0
O221 O 0.12138 0.60249 0.67043 0.0
O222 O 0.16354 0.58779 0.58946 0.0
O223 O 0.14775 0.61466 0.62069 0.0
H224 H 0.12582 0.69446 0.06442 0.0
H225 H 0.17394 0.7214 0.05352 0.0
H226 H 0.21731 0.6871 0.11824 0.0
H227 H 0.16984 0.65984 0.12895 0.0
H228 H 0.2041 0.76655 0.07768 0.0
H229 H 0.28195 0.66604 0.06819 0.0
H230 H 0.24027 0.66213 0.06867 0.0
H231 H 0.26188 0.66434 0.0964 0.0
C232 C 0.14571 0.69261 0.07624 0.0
C233 C 0.14418 0.67496 0.09748 0.0
C234 C 0.17316 0.70786 0.06994 0.0
C235 C 0.19943 0.70552 0.08474 0.0
C236 C 0.19766 0.68835 0.10614 0.0
H237 H 0.33752 0.82264 0.13022 0.0
H238 H 0.29192 0.79265 0.11919 0.0
C239 C 0.17038 0.67307 0.11238 0.0
C240 C 0.22813 0.72281 0.07912 0.0
H241 H 0.30679 0.71484 0.07956 0.0
C242 C 0.22652 0.7552 0.07747 0.0
C243 C 0.25736 0.70799 0.07818 0.0
C244 C 0.26043 0.67317 0.07767 0.0
C245 C 0.2535 0.77327 0.07728 0.0
C246 C 0.28265 0.75852 0.07927 0.0
C247 C 0.28436 0.7261 0.07853 0.0
C248 C 0.31085 0.77622 0.08545 0.0
C249 C 0.25054 0.80807 0.076 0.0
C250 C 0.33711 0.77584 0.07057 0.0
C251 C 0.3635 0.79289 0.07694 0.0
C252 C 0.3639 0.81026 0.09837 0.0
C253 C 0.33785 0.80972 0.1135 0.0
C254 C 0.31166 0.79279 0.10714 0.0
H255 H 0.229 0.81499 0.06644 0.0
H256 H 0.24934 0.81759 0.09454 0.0
H257 H 0.27072 0.81865 0.06671 0.0
H258 H 0.337 0.76277 0.05391 0.0
H259 H 0.38331 0.79288 0.06498 0.0
H260 H 0.78922 0.1111 0.06531 0.0
H261 H 0.76276 0.15919 0.05324 0.0
H262 H 0.78896 0.20144 0.12061 0.0
H263 H 0.81516 0.15403 0.13272 0.0
H264 H 0.71423 0.19236 0.07814 0.0
H265 H 0.82029 0.26307 0.06863 0.0
H266 H 0.82075 0.22116 0.06792 0.0
H267 H 0.82022 0.24146 0.09624 0.0
C268 C 0.7891 0.13063 0.07756 0.0
C269 C 0.80441 0.12895 0.09987 0.0
C270 C 0.77418 0.15804 0.07059 0.0
C271 C 0.77476 0.18399 0.08579 0.0
C272 C 0.78906 0.18188 0.10837 0.0
H273 H 0.67149 0.32752 0.13438 0.0
H274 H 0.69681 0.28013 0.12109 0.0
C275 C 0.80378 0.15467 0.11534 0.0
C276 C 0.75953 0.21331 0.07904 0.0
H277 H 0.77334 0.2911 0.07957 0.0
C278 C 0.72713 0.21395 0.07769 0.0
C279 C 0.77645 0.24135 0.07788 0.0
C280 C 0.81139 0.24174 0.07747 0.0
C281 C 0.71109 0.24218 0.0779 0.0
C282 C 0.72802 0.27015 0.0799 0.0
C283 C 0.76043 0.26957 0.0785 0.0
C284 C 0.71283 0.29926 0.08728 0.0
C285 C 0.67616 0.24178 0.07736 0.0
C286 C 0.71471 0.32613 0.07312 0.0
C287 C 0.70039 0.3535 0.08081 0.0
C288 C 0.68432 0.35428 0.10283 0.0
C289 C 0.68347 0.32758 0.11725 0.0
C290 C 0.69766 0.30039 0.10957 0.0
H291 H 0.66736 0.22109 0.0676 0.0
H292 H 0.66724 0.24068 0.09609 0.0
H293 H 0.66678 0.26297 0.06866 0.0
H294 H 0.72683 0.32576 0.05605 0.0
H295 H 0.70142 0.3738 0.06936 0.0
H296 H 0.12427 0.79835 0.42633 0.0
H297 H 0.17181 0.77028 0.43691 0.0
H298 H 0.21745 0.80893 0.37467 0.0
H299 H 0.17045 0.83723 0.36421 0.0
H300 H 0.20312 0.72679 0.41079 0.0
H301 H 0.27957 0.82696 0.42795 0.0
H302 H 0.23787 0.83039 0.42673 0.0
H303 H 0.26043 0.83074 0.39944 0.0
C304 C 0.1445 0.80086 0.41496 0.0
C305 C 0.14376 0.82007 0.39452 0.0
C306 C 0.17161 0.78496 0.42108 0.0
C307 C 0.19834 0.78824 0.40693 0.0
C308 C 0.19737 0.80689 0.38626 0.0
H309 H 0.34065 0.67555 0.36176 0.0
H310 H 0.29426 0.7048 0.37183 0.0
C311 C 0.17039 0.82277 0.38016 0.0
C312 C 0.22684 0.7707 0.41254 0.0
H313 H 0.30533 0.77925 0.41571 0.0
C314 C 0.22541 0.73824 0.41246 0.0
C315 C 0.25582 0.78563 0.41536 0.0
C316 C 0.25849 0.82036 0.41766 0.0
C317 C 0.2525 0.72038 0.41284 0.0
C318 C 0.2816 0.73548 0.41285 0.0
C319 C 0.28296 0.76778 0.41523 0.0
C320 C 0.31036 0.71849 0.40717 0.0
C321 C 0.24977 0.68552 0.41221 0.0
C322 C 0.33535 0.71768 0.42333 0.0
C323 C 0.3622 0.70108 0.41751 0.0
C324 C 0.36432 0.68533 0.39541 0.0
C325 C 0.33962 0.68719 0.37902 0.0
C326 C 0.31298 0.70369 0.38482 0.0
H327 H 0.22761 0.67766 0.42037 0.0
H328 H 0.25011 0.67759 0.39321 0.0
H329 H 0.26931 0.67433 0.42189 0.0
H330 H 0.33383 0.72939 0.44054 0.0
H331 H 0.38096 0.70005 0.43045 0.0
H332 H 0.83055 0.33115 0.36353 0.0
H333 H 0.80367 0.28314 0.37343 0.0
H334 H 0.76947 0.32421 0.43905 0.0
H335 H 0.79609 0.37287 0.42901 0.0
H336 H 0.81097 0.24527 0.41462 0.0
H337 H 0.6909 0.29151 0.40537 0.0
H338 H 0.72415 0.31224 0.39399 0.0
H339 H 0.71664 0.31118 0.42576 0.0
C340 C 0.8172 0.3301 0.38002 0.0
C341 C 0.81528 0.35579 0.39545 0.0
C342 C 0.802 0.30259 0.38571 0.0
C343 C 0.78459 0.30018 0.40693 0.0
C344 C 0.78257 0.32575 0.42246 0.0
H345 H 0.70271 0.11365 0.43119 0.0
H346 H 0.73124 0.16135 0.44123 0.0
C347 C 0.79774 0.35347 0.4167 0.0
C348 C 0.76825 0.27082 0.41207 0.0
H349 H 0.69645 0.23792 0.41023 0.0
C350 C 0.78589 0.2436 0.41418 0.0
C351 C 0.73556 0.26892 0.41151 0.0
C352 C 0.71555 0.29741 0.40891 0.0
C353 C 0.77176 0.21431 0.41414 0.0
C354 C 0.7392 0.2124 0.41217 0.0
C355 C 0.72145 0.23965 0.41175 0.0
C356 C 0.72347 0.18289 0.40656 0.0
C357 C 0.79173 0.18563 0.41448 0.0
C358 C 0.71002 0.17929 0.38378 0.0
C359 C 0.69384 0.1524 0.37807 0.0
C360 C 0.69074 0.12851 0.39506 0.0
C361 C 0.70491 0.13168 0.41773 0.0
C362 C 0.72113 0.15884 0.42349 0.0
H363 H 0.81685 0.19124 0.41401 0.0
H364 H 0.78691 0.17215 0.43107 0.0
H365 H 0.78611 0.17063 0.39883 0.0
H366 H 0.71179 0.19754 0.37044 0.0
H367 H 0.68328 0.15062 0.36043 0.0
H368 H 0.83209 0.32932 0.8554 0.0
H369 H 0.78556 0.30002 0.86536 0.0
H370 H 0.82419 0.27685 0.9347 0.0
H371 H 0.87145 0.30581 0.9246 0.0
H372 H 0.79738 0.22709 0.91269 0.0
H373 H 0.7166 0.32613 0.91049 0.0
H374 H 0.73898 0.32449 0.88334 0.0
H375 H 0.75814 0.33112 0.91171 0.0
C376 C 0.83074 0.31801 0.87278 0.0
C377 C 0.85528 0.32 0.8893 0.0
C378 C 0.804 0.30153 0.87854 0.0
C379 C 0.80107 0.2871 0.90105 0.0
C380 C 0.82587 0.28825 0.91738 0.0
H381 H 0.61714 0.20137 0.92136 0.0
H382 H 0.66323 0.23221 0.93149 0.0
C383 C 0.85283 0.30465 0.91155 0.0
C384 C 0.77247 0.26968 0.9067 0.0
H385 H 0.69381 0.27545 0.90288 0.0
C386 C 0.77472 0.23775 0.9111 0.0
C387 C 0.7429 0.28374 0.90532 0.0
C388 C 0.73901 0.31834 0.90274 0.0
C389 C 0.74814 0.21909 0.91192 0.0
C390 C 0.71883 0.23271 0.90775 0.0
C391 C 0.71639 0.26498 0.9056 0.0
C392 C 0.69119 0.21364 0.90256 0.0
C393 C 0.75177 0.18479 0.91637 0.0
C394 C 0.69154 0.1937 0.88264 0.0
C395 C 0.66541 0.17635 0.87676 0.0
C396 C 0.63832 0.17872 0.89062 0.0
C397 C 0.63776 0.19906 0.91039 0.0
C398 C 0.66402 0.21656 0.91625 0.0
H399 H 0.77286 0.17989 0.9272 0.0
H400 H 0.73129 0.17511 0.92586 0.0
H401 H 0.75427 0.17267 0.89886 0.0
H402 H 0.712 0.1918 0.87144 0.0
H403 H 0.66652 0.16101 0.86135 0.0
H404 H 0.28725 0.61153 0.92254 0.0
H405 H 0.2537 0.65705 0.92866 0.0
H406 H 0.31627 0.71257 0.88613 0.0
H407 H 0.34914 0.66755 0.8795 0.0
H408 H 0.26537 0.72034 0.94658 0.0
H409 H 0.23239 0.71579 0.85017 0.0
H410 H 0.25111 0.68386 0.86531 0.0
H411 H 0.27355 0.71632 0.85481 0.0
C412 C 0.29384 0.63357 0.91472 0.0
C413 C 0.32039 0.636 0.9002 0.0
C414 C 0.27482 0.65946 0.91829 0.0
C415 C 0.2824 0.6879 0.90751 0.0
C416 C 0.30984 0.69065 0.89424 0.0
H417 H 0.21457 0.87575 0.9179 0.0
H418 H 0.24241 0.82686 0.92476 0.0
C419 C 0.32851 0.66489 0.89042 0.0
C420 C 0.26083 0.71436 0.90826 0.0
H421 H 0.22071 0.76245 0.87105 0.0
C422 C 0.25517 0.72944 0.93019 0.0
C423 C 0.24733 0.72577 0.88686 0.0
C424 C 0.25112 0.70943 0.86299 0.0
C425 C 0.23709 0.75652 0.93109 0.0
C426 C 0.22508 0.76888 0.90941 0.0
C427 C 0.23009 0.75312 0.88766 0.0
C428 C 0.20708 0.79803 0.90837 0.0
C429 C 0.23092 0.77144 0.95516 0.0
C430 C 0.17826 0.79807 0.89671 0.0
C431 C 0.163 0.82582 0.89213 0.0
C432 C 0.17597 0.8541 0.89948 0.0
C433 C 0.20415 0.85415 0.9121 0.0
C434 C 0.21984 0.82625 0.91626 0.0
H435 H 0.23336 0.75451 0.97012 0.0
H436 H 0.24802 0.79026 0.95816 0.0
H437 H 0.20732 0.78164 0.95585 0.0
H438 H 0.16797 0.7766 0.89047 0.0
H439 H 0.14107 0.82512 0.88263 0.0
H440 H 0.6192 0.29721 0.56596 0.0
H441 H 0.66664 0.26866 0.55549 0.0
H442 H 0.70753 0.29569 0.62319 0.0
H443 H 0.66092 0.32441 0.63351 0.0
H444 H 0.74631 0.30503 0.58279 0.0
H445 H 0.69566 0.18612 0.58588 0.0
H446 H 0.67759 0.21443 0.56666 0.0
H447 H 0.67588 0.21904 0.59873 0.0
C448 C 0.63829 0.29682 0.57861 0.0
C449 C 0.6364 0.31296 0.60056 0.0
C450 C 0.6653 0.28056 0.57262 0.0
C451 C 0.69049 0.28011 0.5886 0.0
C452 C 0.68839 0.29597 0.61055 0.0
H453 H 0.83427 0.17037 0.63494 0.0
H454 H 0.78772 0.19921 0.62425 0.0
C455 C 0.66166 0.31224 0.61647 0.0
C456 C 0.71931 0.26308 0.58316 0.0
H457 H 0.74966 0.19017 0.58364 0.0
C458 C 0.74714 0.27991 0.58242 0.0
C459 C 0.72008 0.23036 0.58265 0.0
C460 C 0.69081 0.21124 0.58362 0.0
C461 C 0.77591 0.26485 0.58308 0.0
C462 C 0.77666 0.23214 0.58409 0.0
C463 C 0.74885 0.21529 0.58294 0.0
C464 C 0.80539 0.21517 0.58996 0.0
C465 C 0.80511 0.28404 0.5845 0.0
C466 C 0.83088 0.21492 0.57428 0.0
C467 C 0.85777 0.19867 0.5805 0.0
C468 C 0.85929 0.18226 0.60235 0.0
C469 C 0.83377 0.18278 0.61799 0.0
C470 C 0.80711 0.1991 0.61185 0.0
H471 H 0.80014 0.30912 0.58683 0.0
H472 H 0.81982 0.27617 0.59973 0.0
H473 H 0.81862 0.28108 0.56766 0.0
H474 H 0.82984 0.22694 0.55718 0.0
H475 H 0.87706 0.19843 0.56803 0.0
H476 H 0.19894 0.62092 0.56042 0.0
H477 H 0.22737 0.66777 0.548 0.0
H478 H 0.2045 0.71122 0.61561 0.0
H479 H 0.17625 0.66509 0.62802 0.0
H480 H 0.19067 0.74654 0.57052 0.0
H481 H 0.31148 0.70164 0.57844 0.0
H482 H 0.28251 0.67952 0.56253 0.0
H483 H 0.28003 0.68347 0.59458 0.0
C484 C 0.20032 0.64039 0.57267 0.0
C485 C 0.18533 0.63944 0.59515 0.0
C486 C 0.21643 0.66706 0.56553 0.0
C487 C 0.21775 0.69287 0.58087 0.0
C488 C 0.20345 0.69157 0.60348 0.0
H489 H 0.31263 0.84206 0.62864 0.0
H490 H 0.28649 0.79458 0.61654 0.0
C491 C 0.18744 0.66513 0.61057 0.0
C492 C 0.2337 0.72174 0.57392 0.0
H493 H 0.30494 0.75559 0.57645 0.0
C494 C 0.21571 0.74859 0.57105 0.0
C495 C 0.2663 0.72405 0.57463 0.0
C496 C 0.28643 0.69575 0.57773 0.0
C497 C 0.22942 0.77807 0.57096 0.0
C498 C 0.26186 0.78049 0.57366 0.0
C499 C 0.28003 0.75351 0.57441 0.0
C500 C 0.27668 0.81012 0.5803 0.0
C501 C 0.20901 0.80642 0.57008 0.0
C502 C 0.27922 0.83485 0.564 0.0
C503 C 0.29402 0.86235 0.57098 0.0
C504 C 0.30656 0.86519 0.59425 0.0
C505 C 0.30331 0.84056 0.61056 0.0
C506 C 0.28852 0.81334 0.60365 0.0
H507 H 0.18398 0.80041 0.56952 0.0
H508 H 0.21336 0.82125 0.58608 0.0
H509 H 0.21466 0.82026 0.55383 0.0
H510 H 0.2703 0.83268 0.54585 0.0
H511 H 0.29641 0.88095 0.55801 0.0
H512 H 0.91205 0.48432 0.33023 0.0
H513 H 0.94629 0.50953 0.30129 0.0
H514 H 0.97052 0.42034 0.27158 0.0
H515 H 0.9349 0.39509 0.29972 0.0
H516 H 0.00505 0.50843 0.29211 0.0
H517 H 0.94321 0.46326 0.21199 0.0
H518 H 0.92852 0.45832 0.2421 0.0
H519 H 0.95822 0.43292 0.2307 0.0
C520 C 0.92483 0.47003 0.31764 0.0
C521 C 0.92058 0.43775 0.31707 0.0
C522 C 0.94439 0.48448 0.30107 0.0
C523 C 0.96043 0.46692 0.28382 0.0
C524 C 0.95759 0.43449 0.28414 0.0
H525 H 0.1039 0.55889 0.19711 0.0
H526 H 0.0776 0.52493 0.22593 0.0
C527 C 0.93746 0.42005 0.30037 0.0
C528 C 0.97956 0.48284 0.26534 0.0
H529 H 0.98965 0.49085 0.2047 0.0
C530 C 0.00169 0.50459 0.27298 0.0
C531 C 0.97479 0.47822 0.24036 0.0
C532 C 0.94969 0.45717 0.23077 0.0
C533 C 0.01887 0.52214 0.25642 0.0
C534 C 0.01485 0.51675 0.23145 0.0
C535 C 0.99302 0.49469 0.22383 0.0
C536 C 0.03141 0.53518 0.21289 0.0
C537 C 0.04004 0.5472 0.26592 0.0
C538 C 0.01441 0.55082 0.19508 0.0
C539 C 0.02944 0.56939 0.17817 0.0
C540 C 0.06178 0.57308 0.17891 0.0
C541 C 0.07892 0.55673 0.19628 0.0
C542 C 0.06388 0.53756 0.2129 0.0
H543 H 0.03362 0.55423 0.2845 0.0
H544 H 0.06415 0.53834 0.26645 0.0
H545 H 0.03944 0.56809 0.25424 0.0
H546 H 0.98935 0.54929 0.19463 0.0
H547 H 0.01556 0.58183 0.1651 0.0
H548 H 0.90727 0.00896 0.1689 0.0
H549 H 0.94394 0.98746 0.1978 0.0
H550 H 0.96016 0.07898 0.22664 0.0
H551 H 0.92181 0.10032 0.19863 0.0
H552 H 0.00199 0.99388 0.20569 0.0
H553 H 0.94008 0.03503 0.28708 0.0
H554 H 0.92382 0.03849 0.25735 0.0
H555 H 0.95211 0.06611 0.26782 0.0
C556 C 0.91875 0.02453 0.18135 0.0
C557 C 0.91159 0.05627 0.18166 0.0
C558 C 0.93972 0.01222 0.19788 0.0
C559 C 0.9544 0.03146 0.2148 0.0
C560 C 0.94838 0.06347 0.21436 0.0
H561 H 0.10419 0.94391 0.29885 0.0
H562 H 0.07703 0.97882 0.27115 0.0
C563 C 0.92671 0.0757 0.19821 0.0
C564 C 0.97559 0.01759 0.23293 0.0
H565 H 0.98811 0.01022 0.29335 0.0
C566 C -0.00103 0.99747 0.22487 0.0
C567 C 0.97143 0.022 0.258 0.0
C568 C 0.94532 0.04131 0.26811 0.0
C569 C 0.01761 0.98089 0.24107 0.0
C570 C 0.01389 0.98581 0.26612 0.0
C571 C 0.99118 0.00669 0.27416 0.0
C572 C 0.03116 0.96746 0.28435 0.0
C573 C 0.03979 0.95707 0.2311 0.0
C574 C 0.01467 0.95098 0.30199 0.0
C575 C 0.03018 0.93197 0.31831 0.0
C576 C 0.06252 0.9286 0.31711 0.0
C577 C 0.07921 0.94585 0.30001 0.0
C578 C 0.06368 0.96554 0.28402 0.0
H579 H 0.03357 0.9502 0.21243 0.0
H580 H 0.06349 0.96703 0.23061 0.0
H581 H 0.04019 0.93589 0.24244 0.0
H582 H 0.9896 0.95207 0.30269 0.0
H583 H 0.01662 0.91884 0.33118 0.0
H584 H 0.59944 0.08063 0.28238 0.0
H585 H 0.56304 0.05658 0.25439 0.0
H586 H 0.52592 0.0008 0.31196 0.0
H587 H 0.5622 0.02469 0.34024 0.0
H588 H 0.56251 0.99008 0.24676 0.0
H589 H 0.4481 0.03575 0.27607 0.0
H590 H 0.48418 0.055 0.28314 0.0
H591 H 0.47286 0.02091 0.29944 0.0
C592 C 0.58323 0.06364 0.28926 0.0
C593 C 0.58388 0.05453 0.31359 0.0
C594 C 0.56245 0.04993 0.2732 0.0
C595 C 0.5417 0.02715 0.28118 0.0
C596 C 0.54148 0.0187 0.30556 0.0
H597 H 0.4171 0.89758 0.21333 0.0
H598 H 0.44443 0.93204 0.24102 0.0
C599 C 0.56237 0.03228 0.32165 0.0
C600 C 0.52239 0.01019 0.2636 0.0
H601 H 0.44766 0.99541 0.24704 0.0
C602 C 0.53741 0.9914 0.24665 0.0
C603 C 0.4897 0.0118 0.26379 0.0
C604 C 0.47263 0.0321 0.28145 0.0
C605 C 0.52057 0.9736 0.23009 0.0
C606 C 0.48781 0.9754 0.23005 0.0
C607 C 0.47277 0.99428 0.247 0.0
C608 C 0.46887 0.95694 0.21305 0.0
C609 C 0.53802 0.95224 0.21337 0.0
C610 C 0.47273 0.96028 0.1881 0.0
C611 C 0.45737 0.94045 0.1722 0.0
C612 C 0.43746 0.91723 0.18098 0.0
C613 C 0.43223 0.91521 0.20594 0.0
C614 C 0.44785 0.93487 0.22182 0.0
H615 H 0.56185 0.94749 0.21998 0.0
H616 H 0.5257 0.92981 0.21119 0.0
H617 H 0.54 0.96329 0.1954 0.0
H618 H 0.48827 0.97772 0.18094 0.0
H619 H 0.46166 0.94286 0.15308 0.0
H620 H 0.59353 0.40261 0.21739 0.0
H621 H 0.55797 0.42849 0.24508 0.0
H622 H 0.52366 0.48511 0.18695 0.0
H623 H 0.559 0.4594 0.15903 0.0
H624 H 0.56084 0.49467 0.25222 0.0
H625 H 0.44415 0.45538 0.22278 0.0
H626 H 0.47913 0.43419 0.21578 0.0
H627 H 0.46951 0.46861 0.19923 0.0
C628 C 0.57801 0.42012 0.21033 0.0
C629 C 0.57925 0.42901 0.18597 0.0
C630 C 0.55774 0.43489 0.22621 0.0
C631 C 0.53808 0.45847 0.21797 0.0
C632 C 0.53834 0.4666 0.19354 0.0
H633 H 0.42128 0.59792 0.28157 0.0
H634 H 0.44714 0.56091 0.25502 0.0
C635 C 0.55871 0.45198 0.17766 0.0
C636 C 0.51969 0.47676 0.23531 0.0
H637 H 0.44591 0.49723 0.25058 0.0
C638 C 0.5357 0.49502 0.25208 0.0
C639 C 0.48698 0.47735 0.23476 0.0
C640 C 0.46881 0.45768 0.21731 0.0
C641 C 0.51986 0.51454 0.26803 0.0
C642 C 0.48707 0.51507 0.26763 0.0
C643 C 0.47103 0.49661 0.25093 0.0
C644 C 0.46917 0.53547 0.2839 0.0
C645 C 0.53848 0.53524 0.28453 0.0
C646 C 0.47221 0.53278 0.30896 0.0
C647 C 0.45773 0.55405 0.32418 0.0
C648 C 0.43952 0.57812 0.31461 0.0
C649 C 0.43515 0.57969 0.28954 0.0
C650 C 0.4499 0.55856 0.27433 0.0
H651 H 0.56273 0.53803 0.27816 0.0
H652 H 0.52777 0.55856 0.28602 0.0
H653 H 0.53927 0.52477 0.30276 0.0
H654 H 0.48636 0.51462 0.31673 0.0
H655 H 0.46126 0.55194 0.34342 0.0
H656 H 0.09604 0.59497 0.71087 0.0
H657 H 0.06083 0.57044 0.73957 0.0
H658 H 0.0213 0.51549 0.6825 0.0
H659 H 0.05636 0.53981 0.65352 0.0
H660 H 0.9774 0.5445 0.71856 0.0
H661 H 0.07441 0.47591 0.75776 0.0
H662 H 0.08031 0.51702 0.75476 0.0
H663 H 0.07672 0.49347 0.7283 0.0
C664 C 0.07958 0.57802 0.70428 0.0
C665 C 0.07922 0.56921 0.67987 0.0
C666 C 0.05957 0.56397 0.72075 0.0
C667 C 0.0388 0.54101 0.71311 0.0
C668 C 0.03729 0.53316 0.68867 0.0
H669 H 0.9097 0.41324 0.77731 0.0
H670 H 0.93684 0.44938 0.75095 0.0
C671 C 0.05739 0.54706 0.67217 0.0
C672 C 0.01994 0.52385 0.73082 0.0
H673 H 0.0252 0.46946 0.77516 0.0
C674 C 0.98774 0.52816 0.73103 0.0
C675 C 0.03368 0.50265 0.747 0.0
C676 C 0.06815 0.49669 0.74698 0.0
C677 C 0.96881 0.51182 0.74721 0.0
C678 C 0.98249 0.49016 0.76312 0.0
C679 C 0.01477 0.48616 0.76301 0.0
C680 C 0.96385 0.47042 0.77945 0.0
C681 C 0.93444 0.5182 0.74729 0.0
C682 C 0.97023 0.46998 0.80421 0.0
C683 C 0.95505 0.44904 0.81933 0.0
C684 C 0.93316 0.42809 0.80993 0.0
C685 C 0.92618 0.42922 0.78521 0.0
C686 C 0.94156 0.45002 0.77009 0.0
H687 H 0.92916 0.54151 0.73985 0.0
H688 H 0.92257 0.50078 0.73583 0.0
H689 H 0.92473 0.51663 0.76576 0.0
H690 H 0.98748 0.48543 0.81178 0.0
H691 H 0.96096 0.44885 0.83828 0.0
H692 H 0.05774 0.89341 0.80413 0.0
H693 H 0.02231 0.9183 0.77565 0.0
H694 H 0.04733 0.00794 0.80419 0.0
H695 H 0.08133 0.98311 0.8335 0.0
H696 H 0.98865 0.0071 0.79504 0.0
H697 H 0.04996 0.95957 0.71552 0.0
H698 H 0.03453 0.92987 0.73464 0.0
H699 H 0.0646 0.95513 0.74569 0.0
C700 C 0.05536 0.9184 0.80447 0.0
C701 C 0.07234 0.93634 0.82095 0.0
C702 C 0.03536 0.93262 0.78803 0.0
C703 C 0.0328 0.96506 0.78729 0.0
C704 C 0.04898 0.98288 0.80432 0.0
H705 H 0.98208 0.08022 0.66824 0.0
H706 H 0.00657 0.04621 0.69763 0.0
C707 C 0.06838 0.96866 0.8211 0.0
C708 C 0.01386 0.98073 0.7686 0.0
H709 H 0.00422 0.988 0.70786 0.0
C710 C 0.99204 0.00291 0.77596 0.0
C711 C 0.01863 0.9756 0.74368 0.0
C712 C 0.04342 0.954 0.73438 0.0
C713 C 0.97532 0.02055 0.75919 0.0
C714 C 0.97943 0.01478 0.73428 0.0
C715 C 0.00079 0.99214 0.72693 0.0
C716 C 0.96376 0.03362 0.71552 0.0
C717 C 0.95467 0.04619 0.7684 0.0
C718 C 0.93141 0.03726 0.7153 0.0
C719 C 0.91738 0.05732 0.69879 0.0
C720 C 0.9354 0.07326 0.68174 0.0
C721 C 0.96754 0.06814 0.68108 0.0
C722 C 0.98159 0.04871 0.69792 0.0
H723 H 0.96095 0.05315 0.78704 0.0
H724 H 0.95603 0.067 0.75669 0.0
H725 H 0.93032 0.03796 0.7687 0.0
H726 H 0.91705 0.02505 0.72816 0.0
H727 H 0.89252 0.06059 0.69952 0.0
H728 H 0.53452 0.04887 0.83864 0.0
H729 H 0.50711 0.01358 0.81162 0.0
H730 H 0.55706 0.05135 0.75109 0.0
H731 H 0.58512 0.08612 0.77797 0.0
H732 H 0.46886 0.03202 0.7764 0.0
H733 H 0.56198 0.96001 0.73673 0.0
H734 H 0.56796 0.98353 0.76321 0.0
H735 H 0.56931 0.00075 0.7337 0.0
C736 C 0.54014 0.04926 0.81964 0.0
C737 C 0.56202 0.07036 0.81048 0.0
C738 C 0.52444 0.02906 0.80423 0.0
C739 C 0.53027 0.02957 0.77937 0.0
C740 C 0.55273 0.04996 0.77026 0.0
H741 H 0.43198 0.96815 0.65325 0.0
H742 H 0.46823 0.99087 0.68216 0.0
C743 C 0.56865 0.06998 0.78568 0.0
C744 C 0.51067 0.01114 0.76278 0.0
H745 H 0.51297 0.95933 0.7163 0.0
C746 C 0.47849 0.01582 0.76349 0.0
C747 C 0.5233 0.99016 0.74583 0.0
C748 C 0.55751 0.98306 0.74494 0.0
C749 C 0.45866 0.00067 0.74734 0.0
C750 C 0.47134 0.98014 0.73017 0.0
C751 C 0.50344 0.97517 0.72953 0.0
C752 C 0.45144 0.96423 0.71243 0.0
C753 C 0.42434 0.00733 0.7483 0.0
C754 C 0.43059 0.94125 0.71989 0.0
C755 C 0.40988 0.92815 0.70347 0.0
C756 C 0.40963 0.9379 0.67928 0.0
C757 C 0.4314 0.96019 0.67174 0.0
C758 C 0.4522 0.97316 0.68819 0.0
H759 H 0.41894 0.02767 0.75982 0.0
H760 H 0.41513 0.01165 0.72993 0.0
H761 H 0.41205 0.98687 0.75576 0.0
H762 H 0.42991 0.93395 0.73855 0.0
H763 H 0.39352 0.91103 0.70993 0.0
H764 H 0.58277 0.39937 0.71493 0.0
H765 H 0.55681 0.43481 0.74257 0.0
H766 H 0.50955 0.47777 0.68282 0.0
H767 H 0.53466 0.4417 0.65504 0.0
H768 H 0.55487 0.49717 0.74739 0.0
H769 H 0.43794 0.45191 0.72485 0.0
H770 H 0.473 0.43319 0.71487 0.0
H771 H 0.45853 0.46677 0.69929 0.0
C772 C 0.56706 0.41652 0.7076 0.0
C773 C 0.5605 0.41749 0.6828 0.0
C774 C 0.55224 0.43676 0.72344 0.0
C775 C 0.53075 0.45845 0.7148 0.0
C776 C 0.52541 0.46061 0.68993 0.0
H777 H 0.41006 0.58919 0.78704 0.0
H778 H 0.44426 0.56367 0.75821 0.0
C779 C 0.53991 0.4401 0.67407 0.0
C780 C 0.51324 0.47798 0.73196 0.0
H781 H 0.44 0.49526 0.75088 0.0
C782 C 0.52976 0.49678 0.74815 0.0
C783 C 0.48046 0.47717 0.73307 0.0
C784 C 0.46143 0.45596 0.71727 0.0
C785 C 0.51432 0.51501 0.76529 0.0
C786 C 0.48165 0.51436 0.76616 0.0
C787 C 0.46511 0.4958 0.74993 0.0
C788 C 0.46395 0.53205 0.78423 0.0
C789 C 0.53289 0.53494 0.7823 0.0
C790 C 0.46407 0.52282 0.80843 0.0
C791 C 0.44441 0.5372 0.82499 0.0
C792 C 0.42433 0.56107 0.81757 0.0
C793 C 0.42523 0.57097 0.79343 0.0
C794 C 0.44473 0.55642 0.77689 0.0
H795 H 0.55749 0.53701 0.77662 0.0
H796 H 0.52265 0.5585 0.78354 0.0
H797 H 0.53228 0.52453 0.80057 0.0
H798 H 0.47854 0.50375 0.8143 0.0
H799 H 0.44434 0.52899 0.84342 0.0
H800 H 0.08363 0.73826 0.17743 0.0
H801 H 0.05081 0.76211 0.2077 0.0
H802 H 0.97222 0.7101 0.18171 0.0
H803 H 0.00529 0.68545 0.15145 0.0
H804 H 0.99403 0.7934 0.21355 0.0
H805 H 0.98786 0.67198 0.24794 0.0
H806 H 0.013 0.68127 0.22307 0.0
H807 H 0.9717 0.68155 0.21904 0.0
C808 C 0.05917 0.73257 0.17758 0.0
C809 C 0.04731 0.70928 0.16254 0.0
C810 C 0.04032 0.74635 0.19486 0.0
C811 C 0.00927 0.73715 0.19742 0.0
C812 C 0.9963 0.71697 0.18038 0.0
H813 H 0.00412 0.81894 0.33882 0.0
H814 H 0.97124 0.79624 0.30747 0.0
C815 C 0.01524 0.70309 0.16298 0.0
C816 C 0.99356 0.74442 0.22044 0.0
H817 H 0.9896 0.71178 0.27626 0.0
C818 C 0.99157 0.77564 0.22724 0.0
C819 C 0.98974 0.72108 0.23815 0.0
C820 C 0.99063 0.68705 0.23186 0.0
C821 C 0.99127 0.78418 0.25162 0.0
C822 C 0.99257 0.76069 0.26942 0.0
C823 C 0.98907 0.72963 0.26251 0.0
C824 C 0.00741 0.76702 0.29296 0.0
C825 C 0.99387 0.8181 0.25797 0.0
C826 C 0.03769 0.75602 0.29651 0.0
C827 C 0.0564 0.7687 0.3144 0.0
C828 C 0.04514 0.79263 0.32908 0.0
C829 C 0.01355 0.8007 0.32762 0.0
C830 C 0.99476 0.78795 0.30959 0.0
H831 H 0.99291 0.83329 0.24183 0.0
H832 H 0.97463 0.82473 0.27016 0.0
H833 H 0.01605 0.82254 0.26751 0.0
H834 H 0.0479 0.73967 0.284 0.0
H835 H 0.08046 0.76165 0.31532 0.0
H836 H 0.74062 0.04663 0.17021 0.0
H837 H 0.72732 0.01536 0.20526 0.0
H838 H 0.80699 0.95746 0.19276 0.0
H839 H 0.81987 0.98786 0.15716 0.0
H840 H 0.74364 0.93591 0.22714 0.0
H841 H 0.81558 0.04005 0.24627 0.0
H842 H 0.78563 0.04524 0.22413 0.0
H843 H 0.81746 0.01963 0.21802 0.0
C844 C 0.75412 0.02602 0.17396 0.0
C845 C 0.78181 0.02031 0.16149 0.0
C846 C 0.74642 0.00802 0.19395 0.0
C847 C 0.76668 0.98468 0.20184 0.0
C848 C 0.79114 0.97543 0.18693 0.0
H849 H 0.76033 0.0361 0.3474 0.0
H850 H 0.78733 0.00343 0.31809 0.0
C851 C 0.7985 0.99302 0.16658 0.0
C852 C 0.76866 0.97906 0.22796 0.0
H853 H 0.78587 0.02027 0.27813 0.0
C854 C 0.75343 0.95383 0.23852 0.0
C855 C 0.78298 0.00154 0.24274 0.0
C856 C 0.80159 0.02803 0.23231 0.0
C857 C 0.74942 0.95237 0.26366 0.0
C858 C 0.75923 0.97772 0.27811 0.0
C859 C 0.77769 0.00086 0.2675 0.0
C860 C 0.7453 0.98491 0.30207 0.0
C861 C 0.73415 0.92405 0.27422 0.0
C862 C 0.71295 0.98286 0.30481 0.0
C863 C 0.69785 1e-05 0.32251 0.0
C864 C 0.71461 0.02055 0.33709 0.0
C865 C 0.74702 0.02038 0.33623 0.0
C866 C 0.76234 0.00181 0.31936 0.0
H867 H 0.74379 0.9028 0.26578 0.0
H868 H 0.73748 0.92251 0.29401 0.0
H869 H 0.709 0.92443 0.27005 0.0
H870 H 0.69874 0.97103 0.29168 0.0
H871 H 0.67273 8e-05 0.32274 0.0
H872 H 0.49206 0.66873 0.32221 0.0
H873 H 0.51906 0.69621 0.29067 0.0
H874 H 0.4859 0.78334 0.3192 0.0
H875 H 0.45546 0.75492 0.34914 0.0
H876 H 0.46611 0.78098 0.2796 0.0
H877 H 0.58511 0.74451 0.26388 0.0
H878 H 0.5645 0.70904 0.26812 0.0
H879 H 0.56665 0.73693 0.29244 0.0
C880 C 0.49165 0.69386 0.32237 0.0
C881 C 0.47147 0.7098 0.33777 0.0
C882 C 0.50756 0.70978 0.30437 0.0
C883 C 0.50455 0.74212 0.30211 0.0
C884 C 0.48824 0.75837 0.32014 0.0
H885 H 0.50107 0.82574 0.15964 0.0
H886 H 0.52963 0.81013 0.19554 0.0
C887 C 0.47096 0.74224 0.33738 0.0
C888 C 0.51 0.75677 0.27814 0.0
H889 H 0.55131 0.74631 0.22615 0.0
C890 C 0.48559 0.77438 0.26842 0.0
C891 C 0.53531 0.74882 0.26301 0.0
C892 C 0.56444 0.73409 0.27265 0.0
C893 C 0.4841 0.78109 0.24389 0.0
C894 C 0.50701 0.76903 0.22837 0.0
C895 C 0.53314 0.75437 0.23808 0.0
C896 C 0.5016 0.76953 0.20216 0.0
C897 C 0.45658 0.79908 0.23448 0.0
C898 C 0.47827 0.75023 0.19291 0.0
C899 C 0.46136 0.75945 0.17273 0.0
C900 C 0.46812 0.78775 0.16143 0.0
C901 C 0.49519 0.80389 0.16809 0.0
C902 C 0.5117 0.79497 0.18861 0.0
H903 H 0.44471 0.81216 0.24903 0.0
H904 H 0.46377 0.8157 0.22029 0.0
H905 H 0.43959 0.78274 0.22647 0.0
H906 H 0.47026 0.73042 0.20318 0.0
H907 H 0.44085 0.74641 0.1678 0.0
H908 H 0.68054 0.49608 0.15805 0.0
H909 H 0.70111 0.53118 0.18863 0.0
H910 H 0.76915 0.46242 0.20831 0.0
H911 H 0.74891 0.42755 0.1779 0.0
H912 H 0.69216 0.5122 0.2331 0.0
H913 H 0.81556 0.53908 0.22639 0.0
H914 H 0.7927 0.52971 0.20006 0.0
H915 H 0.81124 0.49949 0.21739 0.0
C916 C 0.7009 0.48905 0.16807 0.0
C917 C 0.71269 0.45873 0.16601 0.0
C918 C 0.71262 0.50922 0.18557 0.0
C919 C 0.73659 0.4995 0.20089 0.0
C920 C 0.75098 0.47081 0.19654 0.0
H921 H 0.75246 0.42105 0.31731 0.0
H922 H 0.72914 0.45522 0.2877 0.0
C923 C 0.73916 0.45062 0.17925 0.0
C924 C 0.74105 0.51414 0.22479 0.0
H925 H 0.79843 0.51704 0.26662 0.0
C926 C 0.71537 0.51474 0.24035 0.0
C927 C 0.77097 0.51882 0.23442 0.0
C928 C 0.79906 0.5221 0.21851 0.0
C929 C 0.71941 0.51382 0.26538 0.0
C930 C 0.74974 0.51189 0.27479 0.0
C931 C 0.77505 0.51741 0.25944 0.0
C932 C 0.75607 0.49565 0.29777 0.0
C933 C 0.69125 0.51169 0.28133 0.0
C934 C 0.77803 0.50722 0.31409 0.0
C935 C 0.79148 0.48752 0.33115 0.0
C936 C 0.78356 0.45584 0.33174 0.0
C937 C 0.7592 0.44524 0.31716 0.0
C938 C 0.7456 0.46497 0.30034 0.0
H939 H 0.67249 0.52687 0.27438 0.0
H940 H 0.68236 0.48754 0.28116 0.0
H941 H 0.69665 0.51838 0.30018 0.0
H942 H 0.78656 0.53073 0.31235 0.0
H943 H 0.81018 0.49643 0.34217 0.0
H944 H -0.00044 0.18263 0.65555 0.0
H945 H 0.03437 0.20606 0.68528 0.0
H946 H 0.95904 0.26271 0.71116 0.0
H947 H 0.92467 0.24024 0.68133 0.0
H948 H 0.01627 0.29141 0.71632 0.0
H949 H 0.02035 0.17058 0.75201 0.0
H950 H 0.03641 0.17946 0.72295 0.0
H951 H 0.99512 0.17967 0.72716 0.0
C952 C 0.99077 0.20098 0.66696 0.0
C953 C 0.95911 0.20901 0.66657 0.0
C954 C 0.01067 0.21414 0.68408 0.0
C955 C -0.00094 0.23536 0.70096 0.0
C956 C 0.96852 0.24615 0.69848 0.0
H957 H 0.92542 0.25907 0.81529 0.0
H958 H 0.96064 0.23686 0.78603 0.0
C959 C 0.94875 0.23315 0.68145 0.0
C960 C 0.01553 0.24256 0.72372 0.0
H961 H 0.01839 0.21086 0.77988 0.0
C962 C 0.0182 0.27385 0.73022 0.0
C963 C 0.01893 0.2195 0.74169 0.0
C964 C 0.01763 0.18538 0.73578 0.0
C965 C 0.018 0.28283 0.7545 0.0
C966 C 0.0158 0.25967 0.77254 0.0
C967 C 0.0194 0.22848 0.76597 0.0
C968 C -0.0005 0.26634 0.79547 0.0
C969 C 0.01564 0.31692 0.76036 0.0
C970 C 0.0103 0.28855 0.81192 0.0
C971 C 0.98985 0.30162 0.82868 0.0
C972 C 0.9585 0.29244 0.82914 0.0
C973 C 0.9492 0.26712 0.81503 0.0
C974 C 0.96948 0.25425 0.79832 0.0
H975 H 0.01741 0.33174 0.74406 0.0
H976 H 0.99316 0.32185 0.7693 0.0
H977 H 0.03454 0.32359 0.77287 0.0
H978 H 0.03364 0.29756 0.81052 0.0
H979 H 0.99787 0.32083 0.83958 0.0
H980 H 0.23353 0.95493 0.6445 0.0
H981 H 0.20614 0.98385 0.67585 0.0
H982 H 0.29423 0.01541 0.70379 0.0
H983 H 0.32056 0.99028 0.67089 0.0
H984 H 0.20937 0.96145 0.71422 0.0
H985 H 0.24733 0.07844 0.73534 0.0
H986 H 0.25387 0.06261 0.7057 0.0
H987 H 0.2827 0.05851 0.72922 0.0
C988 C 0.2466 0.96983 0.65648 0.0
C989 C 0.27901 0.97034 0.65556 0.0
C990 C 0.23107 0.98624 0.67453 0.0
C991 C 0.24794 0.00142 0.69285 0.0
C992 C 0.28016 0.00471 0.69 0.0
H993 H 0.24344 0.92407 0.82405 0.0
H994 H 0.2601 0.95366 0.78891 0.0
C995 C 0.29544 0.98983 0.67119 0.0
C996 C 0.23429 0.00488 0.71739 0.0
H997 H 0.24792 0.04106 0.77123 0.0
C998 C 0.21689 0.97976 0.72623 0.0
C999 C 0.24323 0.02867 0.73366 0.0
C1000 C 0.25749 0.05867 0.72525 0.0
C1001 C 0.21152 0.97596 0.7508 0.0
C1002 C 0.22491 0.99708 0.7672 0.0
C1003 C 0.23911 0.02408 0.75856 0.0
C1004 C 0.22537 0.9894 0.79306 0.0
C1005 C 0.1932 0.94805 0.75909 0.0
C1006 C 0.20259 0.00162 0.80826 0.0
C1007 C 0.19346 0.98504 0.82868 0.0
C1008 C 0.20661 0.95582 0.8336 0.0
C1009 C 0.23269 0.94629 0.82048 0.0
C1010 C 0.24228 0.96326 0.80045 0.0
H1011 H 0.17786 0.93908 0.74461 0.0
H1012 H 0.20947 0.92924 0.7642 0.0
H1013 H 0.17873 0.95371 0.77501 0.0
H1014 H 0.18935 0.02178 0.80282 0.0
H1015 H 0.17337 0.99309 0.83857 0.0
H1016 H 0.56992 0.23986 0.81558 0.0
H1017 H 0.53544 0.2622 0.78579 0.0
H1018 H 0.46365 0.19762 0.80609 0.0
H1019 H 0.49836 0.17492 0.83606 0.0
H1020 H 0.4801 0.18933 0.76076 0.0
H1021 H 0.46066 0.31373 0.77143 0.0
H1022 H 0.50033 0.30668 0.77905 0.0
H1023 H 0.46993 0.28918 0.79683 0.0
C1024 C 0.54637 0.23126 0.81447 0.0
C1025 C 0.53712 0.20524 0.8278 0.0
C1026 C 0.52642 0.2443 0.79754 0.0
C1027 C 0.49683 0.23161 0.79364 0.0
C1028 C 0.4863 0.20786 0.80885 0.0
H1029 H 0.49669 0.31225 0.65502 0.0
H1030 H 0.46247 0.28876 0.68495 0.0
C1031 C 0.50623 0.19494 0.826 0.0
C1032 C 0.48135 0.23787 0.77032 0.0
H1033 H 0.47909 0.29715 0.73012 0.0
C1034 C 0.47843 0.21295 0.75417 0.0
C1035 C 0.47776 0.26841 0.76163 0.0
C1036 C 0.47698 0.29591 0.77833 0.0
C1037 C 0.478 0.21805 0.72925 0.0
C1038 C 0.48103 0.24865 0.72053 0.0
C1039 C 0.47786 0.27352 0.73671 0.0
C1040 C 0.49619 0.25517 0.69713 0.0
C1041 C 0.47748 0.19053 0.71255 0.0
C1042 C 0.52591 0.24292 0.69306 0.0
C1043 C 0.54558 0.25639 0.67614 0.0
C1044 C 0.53592 0.28244 0.66302 0.0
C1045 C 0.50489 0.29225 0.66494 0.0
C1046 C 0.48523 0.27886 0.68206 0.0
H1047 H 0.46144 0.17249 0.71952 0.0
H1048 H 0.47023 0.19715 0.69407 0.0
H1049 H 0.50096 0.18008 0.71176 0.0
H1050 H 0.53524 0.22506 0.70469 0.0
H1051 H 0.56924 0.24815 0.67492 0.0
H1052 H 0.2465 0.55763 0.84752 0.0
H1053 H 0.21666 0.53009 0.81673 0.0
H1054 H 0.30102 0.48708 0.7914 0.0
H1055 H 0.32962 0.5116 0.82368 0.0
H1056 H 0.22396 0.54846 0.77663 0.0
H1057 H 0.24637 0.42475 0.76562 0.0
H1058 H 0.25484 0.44402 0.79371 0.0
H1059 H 0.28357 0.44203 0.77003 0.0
C1060 C 0.25809 0.54078 0.83622 0.0
C1061 C 0.29021 0.53672 0.83775 0.0
C1062 C 0.24116 0.5251 0.81854 0.0
C1063 C 0.25647 0.50668 0.80126 0.0
C1064 C 0.28815 0.50035 0.80454 0.0
H1065 H 0.25142 0.56173 0.66224 0.0
H1066 H 0.2686 0.5348 0.69848 0.0
C1067 C 0.30472 0.51478 0.82295 0.0
C1068 C 0.24228 0.50179 0.77708 0.0
H1069 H 0.24685 0.45572 0.72699 0.0
C1070 C 0.22803 0.52756 0.76628 0.0
C1071 C 0.24713 0.4747 0.76306 0.0
C1072 C 0.25851 0.44479 0.77394 0.0
C1073 C 0.22118 0.52807 0.74175 0.0
C1074 C 0.22986 0.50262 0.72726 0.0
C1075 C 0.24145 0.47568 0.73809 0.0
C1076 C 0.22807 0.50546 0.70083 0.0
C1077 C 0.20624 0.55677 0.73128 0.0
C1078 C 0.20136 0.49531 0.68887 0.0
C1079 C 0.1918 0.51029 0.66782 0.0
C1080 C 0.20859 0.53592 0.65906 0.0
C1081 C 0.23792 0.5423 0.66879 0.0
C1082 C 0.24779 0.52683 0.68948 0.0
H1083 H 0.19454 0.57084 0.74535 0.0
H1084 H 0.22433 0.57142 0.72277 0.0
H1085 H 0.18892 0.5506 0.7173 0.0
H1086 H 0.18589 0.47884 0.69739 0.0
H1087 H 0.16912 0.50475 0.66061 0.0
H1088 H 0.99137 0.60045 0.07165 0.0
H1089 H 0.96953 0.56681 0.04029 0.0
H1090 H 0.0569 0.51886 0.03458 0.0
H1091 H 0.07871 0.55189 0.06584 0.0
H1092 H 0.99272 0.56016 0.99259 0.0
H1093 H 0.99349 0.44846 0.04208 0.0
H1094 H 0.99646 0.48549 0.05708 0.0
H1095 H 0.02989 0.4686 0.04292 0.0
C1096 C 0.00577 0.58252 0.06385 0.0
C1097 C 0.03669 0.57871 0.07121 0.0
C1098 C 0.99331 0.56341 0.04598 0.0
C1099 C 0.01154 0.54016 0.03547 0.0
C1100 C 0.04232 0.53629 0.04286 0.0
H1101 H -0.00147 0.40739 0.92024 0.0
H1102 H 0.01532 0.44214 0.95263 0.0
C1103 C 0.05477 0.55531 0.06063 0.0
C1104 C -0.00085 0.52077 0.01588 0.0
H1105 H 0.98689 0.44561 -0.00052 0.0
C1106 C 0.99107 0.53514 0.99412 0.0
C1107 C 0.99725 0.48819 0.01804 0.0
C1108 C 0.00445 0.47175 0.04136 0.0
C1109 C 0.98199 0.51759 0.9741 0.0
C1110 C 0.98065 0.48497 0.97615 0.0
C1111 C 0.98825 0.47065 -0.00198 0.0
C1112 C 0.971 0.46521 0.95588 0.0
C1113 C 0.97474 0.53393 0.95075 0.0
C1114 C 0.9406 0.46683 0.94716 0.0
C1115 C 0.93098 0.4471 0.92876 0.0
C1116 C 0.95162 0.42536 0.91887 0.0
C1117 C 0.98219 0.42399 0.92749 0.0
C1118 C 0.99177 0.44373 0.94596 0.0
H1119 H 0.98363 0.5581 0.9506 0.0
H1120 H 0.98485 0.52123 0.93524 0.0
H1121 H 0.94924 0.53477 0.94823 0.0
H1122 H 0.92415 0.48295 0.95491 0.0
H1123 H 0.90724 0.44862 0.92254 0.0
H1124 H 0.05677 0.91728 0.93486 0.0
H1125 H 0.02362 0.93817 0.9664 0.0
H1126 H 0.06839 0.02717 0.95968 0.0
H1127 H 0.10176 0.00646 0.92773 0.0
H1128 H 0.04461 0.96563 0.0107 0.0
H1129 H 0.97361 0.04528 0.95417 0.0
H1130 H 0.99614 0.01407 0.94143 0.0
H1131 H 0.01505 0.04867 0.9517 0.0
C1132 C 0.05953 0.94136 0.93996 0.0
C1133 C 0.0818 0.9603 0.92884 0.0
C1134 C 0.04062 0.95319 0.958 0.0
C1135 C 0.04355 0.98415 0.96515 0.0
C1136 C 0.06566 0.00327 0.95411 0.0
H1137 H 0.93462 0.08433 0.07073 0.0
H1138 H 0.97375 0.06952 0.04118 0.0
C1139 C 0.08469 0.99141 0.93597 0.0
C1140 C 0.0236 0.99591 0.98454 0.0
H1141 H 0.96218 0.04337 0.99559 0.0
C1142 C 0.02668 0.98277 0.0075 0.0
C1143 C 0.00039 0.01823 0.98012 0.0
C1144 C 0.9958 0.03233 0.95551 0.0
C1145 C 0.00678 0.99119 0.02627 0.0
C1146 C 0.98303 0.0129 0.02169 0.0
C1147 C 0.98044 0.02663 -0.00111 0.0
C1148 C 0.96016 0.02129 0.0402 0.0
C1149 C 0.01132 0.97687 0.0508 0.0
C1150 C 0.93958 -0.00104 0.04923 0.0
C1151 C 0.91718 0.0073 0.06614 0.0
C1152 C 0.91503 0.03812 0.07405 0.0
C1153 C 0.93575 0.06037 0.06496 0.0
C1154 C 0.9581 0.05201 0.04811 0.0
H1155 H 0.03498 0.96707 0.05291 0.0
H1156 H 0.00735 0.99418 0.06527 0.0
H1157 H 0.9944 0.95774 0.05323 0.0
H1158 H 0.94056 0.97522 0.04293 0.0
H1159 H 0.9014 0.98973 0.07277 0.0
H1160 H 0.5056 0.90295 0.07154 0.0
H1161 H 0.52265 0.9383 0.03967 0.0
H1162 H 0.43001 0.97512 0.03418 0.0
H1163 H 0.41282 0.94017 0.06608 0.0
H1164 H 0.49732 0.94012 0.99213 0.0
H1165 H 0.48548 0.05288 0.03967 0.0
H1166 H 0.48723 0.01628 0.05541 0.0
H1167 H 0.45196 0.02821 0.04094 0.0
C1168 C 0.48896 0.91881 0.06371 0.0
C1169 C 0.45791 0.91885 0.07128 0.0
C1170 C 0.49871 0.9389 0.04553 0.0
C1171 C 0.47761 0.95944 0.03485 0.0
C1172 C 0.4467 0.95977 0.04254 0.0
H1173 H 0.49219 0.09255 0.91796 0.0
H1174 H 0.47294 0.05818 0.94977 0.0
C1175 C 0.43692 0.93969 0.06067 0.0
C1176 C 0.48751 0.97942 0.01477 0.0
H1177 H 0.49592 0.0549 0.9978 0.0
C1178 C 0.49716 0.96521 0.99335 0.0
C1179 C 0.48695 0.01208 0.0165 0.0
C1180 C 0.4776 0.02836 0.03942 0.0
C1181 C 0.50612 0.98292 0.97341 0.0
C1182 C 0.50585 0.01559 0.97521 0.0
C1183 C 0.49595 0.02981 0.99656 0.0
C1184 C 0.51701 0.03543 0.95545 0.0
C1185 C 0.51542 0.96658 0.95051 0.0
C1186 C 0.54812 0.03397 0.94834 0.0
C1187 C 0.55913 0.05345 0.93027 0.0
C1188 C 0.53923 0.07484 0.91912 0.0
C1189 C 0.50801 0.07621 0.92621 0.0
C1190 C 0.49701 0.05668 0.94435 0.0
H1191 H 0.50655 0.94241 0.94996 0.0
H1192 H 0.50673 0.9792 0.93444 0.0
H1193 H 0.54108 0.96566 0.94942 0.0
H1194 H 0.564 0.01809 0.95706 0.0
H1195 H 0.58334 0.05196 0.92526 0.0
H1196 H 0.40415 0.48822 0.92568 0.0
H1197 H 0.43743 0.46872 0.95811 0.0
H1198 H 0.47931 0.55906 0.96513 0.0
H1199 H 0.44619 0.57879 0.93301 0.0
H1200 H 0.50444 0.46993 0.96101 0.0
H1201 H 0.44761 0.53766 0.03371 0.0
H1202 H 0.42965 0.53107 0.00478 0.0
H1203 H 0.4593 0.56004 0.00798 0.0
C1204 C 0.42054 0.50386 0.93409 0.0
C1205 C 0.42247 0.53505 0.92697 0.0
C1206 C 0.43944 0.49272 0.95256 0.0
C1207 C 0.4603 0.51268 0.96416 0.0
C1208 C 0.46286 0.54355 0.95664 0.0
H1209 H 0.59632 0.49849 0.0773 0.0
H1210 H 0.56131 0.51571 0.04523 0.0
C1211 C 0.44405 0.55469 0.93822 0.0
C1212 C 0.47964 0.50136 0.9841 0.0
H1213 H 0.49469 0.51227 0.04377 0.0
C1214 C 0.50223 0.47894 0.97916 0.0
C1215 C 0.47655 0.51337 0.00765 0.0
C1216 C 0.4518 0.53668 0.01399 0.0
C1217 C 0.5225 0.46868 0.99716 0.0
C1218 C 0.51958 0.48091 0.02066 0.0
C1219 C 0.49681 0.50313 0.02565 0.0
C1220 C 0.53994 0.47076 0.04039 0.0
C1221 C 0.54732 0.44546 0.9908 0.0
C1222 C 0.53883 0.44004 0.04846 0.0
C1223 C 0.55868 0.43017 0.06668 0.0
C1224 C 0.57982 0.45097 0.07717 0.0
C1225 C 0.58031 0.48198 0.06948 0.0
C1226 C 0.5604 0.49182 0.05121 0.0
H1227 H 0.55098 0.44389 0.97104 0.0
H1228 H 0.56966 0.45162 -0.00049 0.0
H1229 H 0.54031 0.42222 0.9974 0.0
H1230 H 0.52272 0.42367 0.04057 0.0
H1231 H 0.55765 0.40617 0.07235 0.0
H1232 H 0.08554 0.94121 0.43191 0.0
H1233 H 0.06593 0.97468 0.46373 0.0
H1234 H 0.97452 0.93583 0.45474 0.0
H1235 H 0.99412 0.90169 0.42284 0.0
H1236 H 0.01822 0.01893 0.4605 0.0
H1237 H 0.9925 0.92655 0.52751 0.0
H1238 H 0.01663 0.91992 0.50146 0.0
H1239 H 0.97525 0.92149 0.49831 0.0
C1240 C 0.06124 0.93969 0.43667 0.0
C1241 C 0.04134 0.91876 0.42496 0.0
C1242 C 0.05012 0.95886 0.45484 0.0
C1243 C 0.01895 0.9574 0.46168 0.0
C1244 C -0.00119 0.93684 0.44989 0.0
H1245 H 0.91351 0.05712 0.5678 0.0
H1246 H 0.93185 0.02277 0.53604 0.0
C1247 C 0.00997 0.91753 0.43165 0.0
C1248 C 0.00774 0.97788 0.48101 0.0
H1249 H 0.97895 0.97782 0.53814 0.0
C1250 C 0.00962 0.01002 0.4775 0.0
C1251 C 0.99671 0.96599 0.5031 0.0
C1252 C 0.99532 0.93161 0.50802 0.0
C1253 C 0.00039 0.03074 0.49551 0.0
C1254 C 0.98952 0.01886 0.51765 0.0
C1255 C 0.98748 0.98672 0.52112 0.0
C1256 C 0.9791 0.03942 0.5372 0.0
C1257 C 0.00179 0.06511 0.49056 0.0
C1258 C -0.00016 0.0598 0.54854 0.0
C1259 C 0.98943 0.07958 0.56673 0.0
C1260 C 0.9582 0.07903 0.57382 0.0
C1261 C 0.93771 0.05813 0.56269 0.0
C1262 C 0.9481 0.03847 0.54456 0.0
H1263 H 0.00396 0.07013 0.47101 0.0
H1264 H 0.98079 0.07695 0.49755 0.0
H1265 H 0.02228 0.07511 0.49981 0.0
H1266 H 0.02401 0.0604 0.5433 0.0
H1267 H 0.00572 0.09537 0.57509 0.0
H1268 H 0.56033 0.08189 0.42771 0.0
H1269 H 0.52437 0.06576 0.45934 0.0
H1270 H 0.55975 0.97243 0.45522 0.0
H1271 H 0.59602 0.98835 0.4237 0.0
H1272 H 0.47835 0.0181 0.45754 0.0
H1273 H 0.56836 0.99641 0.52717 0.0
H1274 H 0.57593 0.01863 0.50025 0.0
H1275 H 0.57453 0.97705 0.49893 0.0
C1276 C 0.56043 0.05792 0.4335 0.0
C1277 C 0.58107 0.03639 0.42337 0.0
C1278 C 0.5399 0.04879 0.45153 0.0
C1279 C 0.53987 0.01809 0.45975 0.0
C1280 C 0.55993 0.99637 0.44932 0.0
H1281 H 0.43573 0.91565 0.56506 0.0
H1282 H 0.47174 0.93335 0.53402 0.0
C1283 C 0.58046 0.00546 0.43127 0.0
C1284 C 0.51867 0.00878 0.47919 0.0
H1285 H 0.51694 0.9816 0.53681 0.0
C1286 C 0.48669 0.01025 0.47493 0.0
C1287 C 0.52985 -0.00137 0.50177 0.0
C1288 C 0.56403 0.99778 0.50748 0.0
C1289 C 0.46543 0.00115 0.49261 0.0
C1290 C 0.47661 0.99088 0.51515 0.0
C1291 C 0.50859 0.98955 0.51945 0.0
C1292 C 0.45545 0.98076 0.53437 0.0
C1293 C 0.43125 0.00188 0.48687 0.0
C1294 C 0.43491 0.00182 0.54505 0.0
C1295 C 0.41432 0.99182 0.56278 0.0
C1296 C 0.41414 0.96064 0.57008 0.0
C1297 C 0.4353 0.9398 0.55973 0.0
C1298 C 0.45586 0.94983 0.54203 0.0
H1299 H 0.42691 0.00375 0.46721 0.0
H1300 H 0.41953 0.98073 0.49374 0.0
H1301 H 0.42056 0.02226 0.49577 0.0
H1302 H 0.43473 0.02592 0.53958 0.0
H1303 H 0.39835 0.0084 0.57054 0.0
H1304 H 0.57821 0.43965 0.56824 0.0
H1305 H 0.55795 0.47302 0.53643 0.0
H1306 H 0.4684 0.42933 0.54284 0.0
H1307 H 0.4884 0.39591 0.57495 0.0
H1308 H 0.53169 0.45155 0.49234 0.0
H1309 H 0.44964 0.52348 0.54575 0.0
H1310 H 0.48025 0.50115 0.55955 0.0
H1311 H 0.44579 0.48219 0.54898 0.0
C1312 C 0.55412 0.4373 0.56306 0.0
C1313 C 0.53485 0.41521 0.57406 0.0
C1314 C 0.54264 0.45634 0.54488 0.0
C1315 C 0.51171 0.4537 0.53751 0.0
C1316 C 0.49225 0.43194 0.5486 0.0
H1317 H 0.40985 0.55444 0.42765 0.0
H1318 H 0.42547 0.51726 0.45856 0.0
C1319 C 0.50372 0.41285 0.56684 0.0
C1320 C 0.50036 0.47299 0.51749 0.0
H1321 H 0.45079 0.53187 0.50376 0.0
C1322 C 0.51397 0.4691 0.49477 0.0
C1323 C 0.47716 0.49565 0.52085 0.0
C1324 C 0.46244 0.50116 0.54511 0.0
C1325 C 0.50503 0.48747 0.47519 0.0
C1326 C 0.48231 0.51059 0.47866 0.0
C1327 C 0.46826 0.51409 0.50127 0.0
C1328 C 0.47337 0.53204 0.45923 0.0
C1329 C 0.51978 0.48186 0.45095 0.0
C1330 C 0.49521 0.55263 0.44952 0.0
C1331 C 0.48641 0.57385 0.43185 0.0
C1332 C 0.45557 0.5749 0.4238 0.0
C1333 C 0.4338 0.55413 0.4335 0.0
C1334 C 0.44263 0.53292 0.45114 0.0
H1335 H 0.53021 0.45837 0.44979 0.0
H1336 H 0.50258 0.48449 0.43622 0.0
H1337 H 0.5385 0.4991 0.44806 0.0
H1338 H 0.51892 0.55263 0.45591 0.0
H1339 H 0.50363 0.58968 0.42477 0.0
H1340 H 0.93686 0.41888 0.4311 0.0
H1341 H 0.97037 0.44046 0.46222 0.0
H1342 H 0.92642 0.5296 0.45391 0.0
H1343 H 0.89233 0.50805 0.42277 0.0
H1344 H 0.01176 0.49106 0.45764 0.0
H1345 H 0.92093 0.51138 0.52703 0.0
H1346 H 0.91469 0.48658 0.50129 0.0
H1347 H 0.91381 0.52795 0.49784 0.0
C1348 C 0.93424 0.44308 0.43588 0.0
C1349 C 0.91192 0.46179 0.42459 0.0
C1350 C 0.95341 0.45533 0.45364 0.0
C1351 C 0.95054 0.48644 0.46047 0.0
C1352 C 0.92855 0.50537 0.44909 0.0
H1353 H 0.05376 0.59201 0.56642 0.0
H1354 H 0.01752 0.57537 0.53517 0.0
C1355 C 0.90927 0.4931 0.43126 0.0
C1356 C 0.97111 0.49889 0.47928 0.0
H1357 H 0.97198 0.52659 0.53678 0.0
C1358 C 0.00312 0.49891 0.47494 0.0
C1359 C 0.95958 0.50908 0.50173 0.0
C1360 C 0.9254 0.50861 0.50745 0.0
C1361 C 0.02405 0.5088 0.49258 0.0
C1362 C 0.01258 0.51841 0.51519 0.0
C1363 C 0.98055 0.51899 0.5194 0.0
C1364 C 0.03359 0.5279 0.53472 0.0
C1365 C 0.05824 0.5091 0.48687 0.0
C1366 C 0.05405 0.50644 0.54504 0.0
C1367 C 0.07476 0.51582 0.56291 0.0
C1368 C 0.07518 0.54679 0.57067 0.0
C1369 C 0.05405 0.56801 0.56071 0.0
C1370 C 0.03334 0.55859 0.5429 0.0
H1371 H 0.06259 0.50804 0.46717 0.0
H1372 H 0.06947 0.53027 0.4942 0.0
H1373 H 0.06941 0.48865 0.49532 0.0
H1374 H 0.05414 0.48251 0.53913 0.0
H1375 H 0.0907 0.49896 0.57036 0.0
loop_
_geom_bond_atom_site_label_1
_geom_bond_atom_site_label_2
_geom_bond_distance
_geom_bond_site_symmetry_2
_ccdc_geom_bond_type
Co0 O1 2.216 . S
Co0 O2 2.091 . S
Co0 O4 2.004 . S
Co0 O10 2.021 . S
Co0 O12 2.137 . S
Co0 O13 2.244 . S
O1 Co0 2.216 . S
O1 C8 1.247 . S
O2 Co0 2.091 . S
O2 C8 1.261 . S
C3 O12 1.247 . S
C3 O13 1.272 . S
O4 Co0 2.004 . S
O4 C9 1.259 . S
Co5 O6 2.061 . S
Co5 O11 2.052 . S
Co5 O13 2.135 . S
O6 Co5 2.061 . S
O6 C9 1.235 . S
C7 O10 1.238 . S
C7 O11 1.241 . S
C8 O1 1.247 . S
C8 O2 1.261 . S
C9 O4 1.259 . S
C9 O6 1.235 . S
O10 Co0 2.021 . S
O10 C7 1.238 . S
O11 Co5 2.052 . S
O11 C7 1.241 . S
O12 Co0 2.137 . S
O12 C3 1.247 . S
O13 Co0 2.244 . S
O13 C3 1.272 . S
O13 Co5 2.135 . S
Co14 O15 2.216 . S
Co14 O16 2.091 . S
Co14 O18 2.004 . S
Co14 O24 2.021 . S
Co14 O26 2.137 . S
Co14 O27 2.244 . S
O15 Co14 2.216 . S
O15 C22 1.247 . S
O16 Co14 2.091 . S
O16 C22 1.261 . S
C17 O26 1.247 . S
C17 O27 1.272 . S
O18 Co14 2.004 . S
O18 C23 1.259 . S
Co19 O20 2.061 . S
Co19 O25 2.052 . S
Co19 O27 2.135 . S
O20 Co19 2.061 . S
O20 C23 1.235 . S
C21 O24 1.238 . S
C21 O25 1.241 . S
C22 O15 1.247 . S
C22 O16 1.261 . S
C23 O18 1.259 . S
C23 O20 1.235 . S
O24 Co14 2.021 . S
O24 C21 1.238 . S
O25 Co19 2.052 . S
O25 C21 1.241 . S
O26 Co14 2.137 . S
O26 C17 1.247 . S
O27 Co14 2.244 . S
O27 C17 1.272 . S
O27 Co19 2.135 . S
Co28 O29 2.216 . S
Co28 O30 2.091 . S
Co28 O32 2.004 . S
Co28 O38 2.021 . S
Co28 O40 2.137 . S
Co28 O41 2.244 . S
O29 Co28 2.216 . S
O29 C36 1.247 . S
O30 Co28 2.091 . S
O30 C36 1.261 . S
C31 O40 1.247 . S
C31 O41 1.272 . S
O32 Co28 2.004 . S
O32 C37 1.259 . S
Co33 O34 2.061 . S
Co33 O39 2.052 . S
Co33 O41 2.135 . S
O34 Co33 2.061 . S
O34 C37 1.235 . S
C35 O38 1.238 . S
C35 O39 1.241 . S
C36 O29 1.247 . S
C36 O30 1.261 . S
C37 O32 1.259 . S
C37 O34 1.235 . S
O38 Co28 2.021 . S
O38 C35 1.238 . S
O39 Co33 2.052 . S
O39 C35 1.241 . S
O40 Co28 2.137 . S
O40 C31 1.247 . S
O41 Co28 2.244 . S
O41 C31 1.272 . S
O41 Co33 2.135 . S
Co42 O43 2.216 . S
Co42 O44 2.091 . S
Co42 O46 2.004 . S
Co42 O52 2.021 . S
Co42 O54 2.137 . S
Co42 O55 2.244 . S
O43 Co42 2.216 . S
O43 C50 1.247 . S
O44 Co42 2.091 . S
O44 C50 1.261 . S
C45 O54 1.247 . S
C45 O55 1.272 . S
O46 Co42 2.004 . S
O46 C51 1.259 . S
Co47 O48 2.061 . S
Co47 O53 2.052 . S
Co47 O55 2.135 . S
O48 Co47 2.061 . S
O48 C51 1.235 . S
C49 O52 1.238 . S
C49 O53 1.241 . S
C50 O43 1.247 . S
C50 O44 1.261 . S
C51 O46 1.259 . S
C51 O48 1.235 . S
O52 Co42 2.021 . S
O52 C49 1.238 . S
O53 Co47 2.052 . S
O53 C49 1.241 . S
O54 Co42 2.137 . S
O54 C45 1.247 . S
O55 Co42 2.244 . S
O55 C45 1.272 . S
O55 Co47 2.135 . S
Co56 O57 2.216 . S
Co56 O58 2.091 . S
Co56 O60 2.004 . S
Co56 O66 2.021 . S
Co56 O68 2.137 . S
Co56 O69 2.244 . S
O57 Co56 2.216 . S
O57 C64 1.247 . S
O58 Co56 2.091 . S
O58 C64 1.261 . S
C59 O68 1.247 . S
C59 O69 1.272 . S
O60 Co56 2.004 . S
O60 C65 1.259 . S
Co61 O62 2.061 . S
Co61 O67 2.052 . S
Co61 O69 2.135 . S
O62 Co61 2.061 . S
O62 C65 1.235 . S
C63 O66 1.238 . S
C63 O67 1.241 . S
C64 O57 1.247 . S
C64 O58 1.261 . S
C65 O60 1.259 . S
C65 O62 1.235 . S
O66 Co56 2.021 . S
O66 C63 1.238 . S
O67 Co61 2.052 . S
O67 C63 1.241 . S
O68 Co56 2.137 . S
O68 C59 1.247 . S
O69 Co56 2.244 . S
O69 C59 1.272 . S
O69 Co61 2.135 . S
Co70 O71 2.216 . S
Co70 O72 2.091 . S
Co70 O74 2.004 . S
Co70 O80 2.021 . S
Co70 O82 2.137 . S
Co70 O83 2.244 . S
O71 Co70 2.216 . S
O71 C78 1.247 . S
O72 Co70 2.091 . S
O72 C78 1.261 . S
C73 O82 1.247 . S
C73 O83 1.272 . S
O74 Co70 2.004 . S
O74 C79 1.259 . S
Co75 O76 2.061 . S
Co75 O81 2.052 . S
Co75 O83 2.135 . S
O76 Co75 2.061 . S
O76 C79 1.235 . S
C77 O80 1.238 . S
C77 O81 1.241 . S
C78 O71 1.247 . S
C78 O72 1.261 . S
C79 O74 1.259 . S
C79 O76 1.235 . S
O80 Co70 2.021 . S
O80 C77 1.238 . S
O81 Co75 2.052 . S
O81 C77 1.241 . S
O82 Co70 2.137 . S
O82 C73 1.247 . S
O83 Co70 2.244 . S
O83 C73 1.272 . S
O83 Co75 2.135 . S
Co84 O85 2.216 . S
Co84 O86 2.091 . S
Co84 O88 2.004 . S
Co84 O94 2.021 . S
Co84 O96 2.137 . S
Co84 O97 2.244 . S
O85 Co84 2.216 . S
O85 C92 1.247 . S
O86 Co84 2.091 . S
O86 C92 1.261 . S
C87 O96 1.247 . S
C87 O97 1.272 . S
O88 Co84 2.004 . S
O88 C93 1.259 . S
Co89 O90 2.061 . S
Co89 O95 2.052 . S
Co89 O97 2.135 . S
O90 Co89 2.061 . S
O90 C93 1.235 . S
C91 O94 1.238 . S
C91 O95 1.241 . S
C92 O85 1.247 . S
C92 O86 1.261 . S
C93 O88 1.259 . S
C93 O90 1.235 . S
O94 Co84 2.021 . S
O94 C91 1.238 . S
O95 Co89 2.052 . S
O95 C91 1.241 . S
O96 Co84 2.137 . S
O96 C87 1.247 . S
O97 Co84 2.244 . S
O97 C87 1.272 . S
O97 Co89 2.135 . S
Co98 O99 2.216 . S
Co98 O100 2.091 . S
Co98 O102 2.004 . S
Co98 O108 2.021 . S
Co98 O110 2.137 . S
Co98 O111 2.244 . S
O99 Co98 2.216 . S
O99 C106 1.247 . S
O100 Co98 2.091 . S
O100 C106 1.261 . S
C101 O110 1.247 . S
C101 O111 1.272 . S
O102 Co98 2.004 . S
O102 C107 1.259 . S
Co103 O104 2.061 . S
Co103 O109 2.052 . S
Co103 O111 2.135 . S
O104 Co103 2.061 . S
O104 C107 1.235 . S
C105 O108 1.238 . S
C105 O109 1.241 . S
C106 O99 1.247 . S
C106 O100 1.261 . S
C107 O102 1.259 . S
C107 O104 1.235 . S
O108 Co98 2.021 . S
O108 C105 1.238 . S
O109 Co103 2.052 . S
O109 C105 1.241 . S
O110 Co98 2.137 . S
O110 C101 1.247 . S
O111 Co98 2.244 . S
O111 C101 1.272 . S
O111 Co103 2.135 . S
Co112 O113 2.216 . S
Co112 O114 2.091 . S
Co112 O116 2.004 . S
Co112 O122 2.021 . S
Co112 O124 2.137 . S
Co112 O125 2.244 . S
O113 Co112 2.216 . S
O113 C120 1.247 . S
O114 Co112 2.091 . S
O114 C120 1.261 . S
C115 O124 1.247 . S
C115 O125 1.272 . S
O116 Co112 2.004 . S
O116 C121 1.259 . S
Co117 O118 2.061 . S
Co117 O123 2.052 . S
Co117 O125 2.135 . S
O118 Co117 2.061 . S
O118 C121 1.235 . S
C119 O122 1.238 . S
C119 O123 1.241 . S
C120 O113 1.247 . S
C120 O114 1.261 . S
C121 O116 1.259 . S
C121 O118 1.235 . S
O122 Co112 2.021 . S
O122 C119 1.238 . S
O123 Co117 2.052 . S
O123 C119 1.241 . S
O124 Co112 2.137 . S
O124 C115 1.247 . S
O125 Co112 2.244 . S
O125 C115 1.272 . S
O125 Co117 2.135 . S
Co126 O127 2.216 . S
Co126 O128 2.091 . S
Co126 O130 2.004 . S
Co126 O136 2.021 . S
Co126 O138 2.137 . S
Co126 O139 2.244 . S
O127 Co126 2.216 . S
O127 C134 1.247 . S
O128 Co126 2.091 . S
O128 C134 1.261 . S
C129 O138 1.247 . S
C129 O139 1.272 . S
O130 Co126 2.004 . S
O130 C135 1.259 . S
Co131 O132 2.061 . S
Co131 O137 2.052 . S
Co131 O139 2.135 . S
O132 Co131 2.061 . S
O132 C135 1.235 . S
C133 O136 1.238 . S
C133 O137 1.241 . S
C134 O127 1.247 . S
C134 O128 1.261 . S
C135 O130 1.259 . S
C135 O132 1.235 . S
O136 Co126 2.021 . S
O136 C133 1.238 . S
O137 Co131 2.052 . S
O137 C133 1.241 . S
O138 Co126 2.137 . S
O138 C129 1.247 . S
O139 Co126 2.244 . S
O139 C129 1.272 . S
O139 Co131 2.135 . S
Co140 O141 2.216 . S
Co140 O142 2.091 . S
Co140 O144 2.004 . S
Co140 O150 2.021 . S
Co140 O152 2.137 . S
Co140 O153 2.244 . S
O141 Co140 2.216 . S
O141 C148 1.247 . S
O142 Co140 2.091 . S
O142 C148 1.261 . S
C143 O152 1.247 . S
C143 O153 1.272 . S
O144 Co140 2.004 . S
O144 C149 1.259 . S
Co145 O146 2.061 . S
Co145 O151 2.052 . S
Co145 O153 2.135 . S
O146 Co145 2.061 . S
O146 C149 1.235 . S
C147 O150 1.238 . S
C147 O151 1.241 . S
C148 O141 1.247 . S
C148 O142 1.261 . S
C149 O144 1.259 . S
C149 O146 1.235 . S
O150 Co140 2.021 . S
O150 C147 1.238 . S
O151 Co145 2.052 . S
O151 C147 1.241 . S
O152 Co140 2.137 . S
O152 C143 1.247 . S
O153 Co140 2.244 . S
O153 C143 1.272 . S
O153 Co145 2.135 . S
Co154 O155 2.216 . S
Co154 O156 2.091 . S
Co154 O158 2.004 . S
Co154 O164 2.021 . S
Co154 O166 2.137 . S
Co154 O167 2.244 . S
O155 Co154 2.216 . S
O155 C162 1.247 . S
O156 Co154 2.091 . S
O156 C162 1.261 . S
C157 O166 1.247 . S
C157 O167 1.272 . S
O158 Co154 2.004 . S
O158 C163 1.259 . S
Co159 O160 2.061 . S
Co159 O165 2.052 . S
Co159 O167 2.135 . S
O160 Co159 2.061 . S
O160 C163 1.235 . S
C161 O164 1.238 . S
C161 O165 1.241 . S
C162 O155 1.247 . S
C162 O156 1.261 . S
C163 O158 1.259 . S
C163 O160 1.235 . S
O164 Co154 2.021 . S
O164 C161 1.238 . S
O165 Co159 2.052 . S
O165 C161 1.241 . S
O166 Co154 2.137 . S
O166 C157 1.247 . S
O167 Co154 2.244 . S
O167 C157 1.272 . S
O167 Co159 2.135 . S
Co168 O169 2.216 . S
Co168 O170 2.091 . S
Co168 O172 2.004 . S
Co168 O178 2.021 . S
Co168 O180 2.137 . S
Co168 O181 2.244 . S
O169 Co168 2.216 . S
O169 C176 1.247 . S
O170 Co168 2.091 . S
O170 C176 1.261 . S
C171 O180 1.247 . S
C171 O181 1.272 . S
O172 Co168 2.004 . S
O172 C177 1.259 . S
Co173 O174 2.061 . S
Co173 O179 2.052 . S
Co173 O181 2.135 . S
O174 Co173 2.061 . S
O174 C177 1.235 . S
C175 O178 1.238 . S
C175 O179 1.241 . S
C176 O169 1.247 . S
C176 O170 1.261 . S
C177 O172 1.259 . S
C177 O174 1.235 . S
O178 Co168 2.021 . S
O178 C175 1.238 . S
O179 Co173 2.052 . S
O179 C175 1.241 . S
O180 Co168 2.137 . S
O180 C171 1.247 . S
O181 Co168 2.244 . S
O181 C171 1.272 . S
O181 Co173 2.135 . S
Co182 O183 2.216 . S
Co182 O184 2.091 . S
Co182 O186 2.004 . S
Co182 O192 2.021 . S
Co182 O194 2.137 . S
Co182 O195 2.244 . S
O183 Co182 2.216 . S
O183 C190 1.247 . S
O184 Co182 2.091 . S
O184 C190 1.261 . S
C185 O194 1.247 . S
C185 O195 1.272 . S
O186 Co182 2.004 . S
O186 C191 1.259 . S
Co187 O188 2.061 . S
Co187 O193 2.052 . S
Co187 O195 2.135 . S
O188 Co187 2.061 . S
O188 C191 1.235 . S
C189 O192 1.238 . S
C189 O193 1.241 . S
C190 O183 1.247 . S
C190 O184 1.261 . S
C191 O186 1.259 . S
C191 O188 1.235 . S
O192 Co182 2.021 . S
O192 C189 1.238 . S
O193 Co187 2.052 . S
O193 C189 1.241 . S
O194 Co182 2.137 . S
O194 C185 1.247 . S
O195 Co182 2.244 . S
O195 C185 1.272 . S
O195 Co187 2.135 . S
Co196 O197 2.216 . S
Co196 O198 2.091 . S
Co196 O200 2.004 . S
Co196 O206 2.021 . S
Co196 O208 2.137 . S
Co196 O209 2.244 . S
O197 Co196 2.216 . S
O197 C204 1.247 . S
O198 Co196 2.091 . S
O198 C204 1.261 . S
C199 O208 1.247 . S
C199 O209 1.272 . S
O200 Co196 2.004 . S
O200 C205 1.259 . S
Co201 O202 2.061 . S
Co201 O207 2.052 . S
Co201 O209 2.135 . S
O202 Co201 2.061 . S
O202 C205 1.235 . S
C203 O206 1.238 . S
C203 O207 1.241 . S
C204 O197 1.247 . S
C204 O198 1.261 . S
C205 O200 1.259 . S
C205 O202 1.235 . S
O206 Co196 2.021 . S
O206 C203 1.238 . S
O207 Co201 2.052 . S
O207 C203 1.241 . S
O208 Co196 2.137 . S
O208 C199 1.247 . S
O209 Co196 2.244 . S
O209 C199 1.272 . S
O209 Co201 2.135 . S
Co210 O211 2.216 . S
Co210 O212 2.091 . S
Co210 O214 2.004 . S
Co210 O220 2.021 . S
Co210 O222 2.137 . S
Co210 O223 2.244 . S
O211 Co210 2.216 . S
O211 C218 1.247 . S
O212 Co210 2.091 . S
O212 C218 1.261 . S
C213 O222 1.247 . S
C213 O223 1.272 . S
O214 Co210 2.004 . S
O214 C219 1.259 . S
Co215 O216 2.061 . S
Co215 O221 2.052 . S
Co215 O223 2.135 . S
O216 Co215 2.061 . S
O216 C219 1.235 . S
C217 O220 1.238 . S
C217 O221 1.241 . S
C218 O211 1.247 . S
C218 O212 1.261 . S
C219 O214 1.259 . S
C219 O216 1.235 . S
O220 Co210 2.021 . S
O220 C217 1.238 . S
O221 Co215 2.052 . S
O221 C217 1.241 . S
O222 Co210 2.137 . S
O222 C213 1.247 . S
O223 Co210 2.244 . S
O223 C213 1.272 . S
O223 Co215 2.135 . S
H224 C232 0.929 . S
H225 C234 0.930 . S
H226 C236 0.930 . S
H227 C239 0.929 . S
H228 C242 0.930 . S
H229 C244 0.960 . S
H230 C244 0.960 . S
H231 C244 0.960 . S
C232 H224 0.929 . S
C232 C233 1.377 . S
C232 C234 1.384 . S
C233 C232 1.377 . S
C233 C239 1.390 . S
C234 H225 0.930 . S
C234 C232 1.384 . S
C234 C235 1.372 . S
C235 C234 1.372 . S
C235 C236 1.400 . S
C235 C240 1.490 . S
C236 H226 0.930 . S
C236 C235 1.400 . S
C236 C239 1.386 . S
H237 C253 0.930 . S
H238 C254 0.931 . S
C239 H227 0.929 . S
C239 C233 1.390 . S
C239 C236 1.386 . S
C240 C235 1.490 . S
C240 C242 1.395 . S
C240 C243 1.403 . S
H241 C247 0.930 . S
C242 H228 0.930 . S
C242 C240 1.395 . S
C242 C245 1.403 . S
C243 C240 1.403 . S
C243 C244 1.524 . S
C243 C247 1.400 . S
C244 H229 0.960 . S
C244 H230 0.960 . S
C244 H231 0.960 . S
C244 C243 1.524 . S
C245 C242 1.403 . S
C245 C246 1.392 . S
C245 C249 1.495 . S
C246 C245 1.392 . S
C246 C247 1.385 . S
C246 C248 1.478 . S
C247 H241 0.930 . S
C247 C243 1.400 . S
C247 C246 1.385 . S
C248 C246 1.478 . S
C248 C250 1.381 . S
C248 C254 1.383 . S
C249 C245 1.495 . S
C249 H255 0.959 . S
C249 H256 0.961 . S
C249 H257 0.960 . S
C250 C248 1.381 . S
C250 C251 1.394 . S
C250 H258 0.930 . S
C251 C250 1.394 . S
C251 C252 1.383 . S
C251 H259 0.929 . S
C252 C251 1.383 . S
C252 C253 1.377 . S
C253 H237 0.930 . S
C253 C252 1.377 . S
C253 C254 1.379 . S
C254 H238 0.931 . S
C254 C248 1.383 . S
C254 C253 1.379 . S
H255 C249 0.959 . S
H256 C249 0.961 . S
H257 C249 0.960 . S
H258 C250 0.930 . S
H259 C251 0.929 . S
H260 C268 0.929 . S
H261 C270 0.930 . S
H262 C272 0.930 . S
H263 C275 0.929 . S
H264 C278 0.930 . S
H265 C280 0.960 . S
H266 C280 0.960 . S
H267 C280 0.960 . S
C268 H260 0.929 . S
C268 C269 1.377 . S
C268 C270 1.384 . S
C269 C268 1.377 . S
C269 C275 1.390 . S
C270 H261 0.930 . S
C270 C268 1.384 . S
C270 C271 1.372 . S
C271 C270 1.372 . S
C271 C272 1.400 . S
C271 C276 1.490 . S
C272 H262 0.930 . S
C272 C271 1.400 . S
C272 C275 1.386 . S
H273 C289 0.930 . S
H274 C290 0.931 . S
C275 H263 0.929 . S
C275 C269 1.390 . S
C275 C272 1.386 . S
C276 C271 1.490 . S
C276 C278 1.395 . S
C276 C279 1.403 . S
H277 C283 0.930 . S
C278 H264 0.930 . S
C278 C276 1.395 . S
C278 C281 1.403 . S
C279 C276 1.403 . S
C279 C280 1.524 . S
C279 C283 1.400 . S
C280 H265 0.960 . S
C280 H266 0.960 . S
C280 H267 0.960 . S
C280 C279 1.524 . S
C281 C278 1.403 . S
C281 C282 1.392 . S
C281 C285 1.495 . S
C282 C281 1.392 . S
C282 C283 1.385 . S
C282 C284 1.478 . S
C283 H277 0.930 . S
C283 C279 1.400 . S
C283 C282 1.385 . S
C284 C282 1.478 . S
C284 C286 1.381 . S
C284 C290 1.383 . S
C285 C281 1.495 . S
C285 H291 0.959 . S
C285 H292 0.961 . S
C285 H293 0.960 . S
C286 C284 1.381 . S
C286 C287 1.394 . S
C286 H294 0.930 . S
C287 C286 1.394 . S
C287 C288 1.383 . S
C287 H295 0.929 . S
C288 C287 1.383 . S
C288 C289 1.377 . S
C289 H273 0.930 . S
C289 C288 1.377 . S
C289 C290 1.379 . S
C290 H274 0.931 . S
C290 C284 1.383 . S
C290 C289 1.379 . S
H291 C285 0.959 . S
H292 C285 0.961 . S
H293 C285 0.960 . S
H294 C286 0.930 . S
H295 C287 0.929 . S
H296 C304 0.929 . S
H297 C306 0.930 . S
H298 C308 0.930 . S
H299 C311 0.929 . S
H300 C314 0.930 . S
H301 C316 0.960 . S
H302 C316 0.960 . S
H303 C316 0.960 . S
C304 H296 0.929 . S
C304 C305 1.377 . S
C304 C306 1.384 . S
C305 C304 1.377 . S
C305 C311 1.390 . S
C306 H297 0.930 . S
C306 C304 1.384 . S
C306 C307 1.372 . S
C307 C306 1.372 . S
C307 C308 1.400 . S
C307 C312 1.490 . S
C308 H298 0.930 . S
C308 C307 1.400 . S
C308 C311 1.386 . S
H309 C325 0.930 . S
H310 C326 0.931 . S
C311 H299 0.929 . S
C311 C305 1.390 . S
C311 C308 1.386 . S
C312 C307 1.490 . S
C312 C314 1.395 . S
C312 C315 1.403 . S
H313 C319 0.930 . S
C314 H300 0.930 . S
C314 C312 1.395 . S
C314 C317 1.403 . S
C315 C312 1.403 . S
C315 C316 1.524 . S
C315 C319 1.400 . S
C316 H301 0.960 . S
C316 H302 0.960 . S
C316 H303 0.960 . S
C316 C315 1.524 . S
C317 C314 1.403 . S
C317 C318 1.392 . S
C317 C321 1.495 . S
C318 C317 1.392 . S
C318 C319 1.385 . S
C318 C320 1.478 . S
C319 H313 0.930 . S
C319 C315 1.400 . S
C319 C318 1.385 . S
C320 C318 1.478 . S
C320 C322 1.381 . S
C320 C326 1.383 . S
C321 C317 1.495 . S
C321 H327 0.959 . S
C321 H328 0.961 . S
C321 H329 0.960 . S
C322 C320 1.381 . S
C322 C323 1.394 . S
C322 H330 0.930 . S
C323 C322 1.394 . S
C323 C324 1.383 . S
C323 H331 0.929 . S
C324 C323 1.383 . S
C324 C325 1.377 . S
C325 H309 0.930 . S
C325 C324 1.377 . S
C325 C326 1.379 . S
C326 H310 0.931 . S
C326 C320 1.383 . S
C326 C325 1.379 . S
H327 C321 0.959 . S
H328 C321 0.961 . S
H329 C321 0.960 . S
H330 C322 0.930 . S
H331 C323 0.929 . S
H332 C340 0.929 . S
H333 C342 0.930 . S
H334 C344 0.930 . S
H335 C347 0.929 . S
H336 C350 0.930 . S
H337 C352 0.960 . S
H338 C352 0.960 . S
H339 C352 0.960 . S
C340 H332 0.929 . S
C340 C341 1.377 . S
C340 C342 1.384 . S
C341 C340 1.377 . S
C341 C347 1.390 . S
C342 H333 0.930 . S
C342 C340 1.384 . S
C342 C343 1.372 . S
C343 C342 1.372 . S
C343 C344 1.400 . S
C343 C348 1.490 . S
C344 H334 0.930 . S
C344 C343 1.400 . S
C344 C347 1.386 . S
H345 C361 0.930 . S
H346 C362 0.931 . S
C347 H335 0.929 . S
C347 C341 1.390 . S
C347 C344 1.386 . S
C348 C343 1.490 . S
C348 C350 1.395 . S
C348 C351 1.403 . S
H349 C355 0.930 . S
C350 H336 0.930 . S
C350 C348 1.395 . S
C350 C353 1.403 . S
C351 C348 1.403 . S
C351 C352 1.524 . S
C351 C355 1.400 . S
C352 H337 0.960 . S
C352 H338 0.960 . S
C352 H339 0.960 . S
C352 C351 1.524 . S
C353 C350 1.403 . S
C353 C354 1.392 . S
C353 C357 1.495 . S
C354 C353 1.392 . S
C354 C355 1.385 . S
C354 C356 1.478 . S
C355 H349 0.930 . S
C355 C351 1.400 . S
C355 C354 1.385 . S
C356 C354 1.478 . S
C356 C358 1.381 . S
C356 C362 1.383 . S
C357 C353 1.495 . S
C357 H363 0.959 . S
C357 H364 0.961 . S
C357 H365 0.960 . S
C358 C356 1.381 . S
C358 C359 1.394 . S
C358 H366 0.930 . S
C359 C358 1.394 . S
C359 C360 1.383 . S
C359 H367 0.929 . S
C360 C359 1.383 . S
C360 C361 1.377 . S
C361 H345 0.930 . S
C361 C360 1.377 . S
C361 C362 1.379 . S
C362 H346 0.931 . S
C362 C356 1.383 . S
C362 C361 1.379 . S
H363 C357 0.959 . S
H364 C357 0.961 . S
H365 C357 0.960 . S
H366 C358 0.930 . S
H367 C359 0.929 . S
H368 C376 0.929 . S
H369 C378 0.930 . S
H370 C380 0.930 . S
H371 C383 0.929 . S
H372 C386 0.930 . S
H373 C388 0.960 . S
H374 C388 0.960 . S
H375 C388 0.960 . S
C376 H368 0.929 . S
C376 C377 1.377 . S
C376 C378 1.384 . S
C377 C376 1.377 . S
C377 C383 1.390 . S
C378 H369 0.930 . S
C378 C376 1.384 . S
C378 C379 1.372 . S
C379 C378 1.372 . S
C379 C380 1.400 . S
C379 C384 1.490 . S
C380 H370 0.930 . S
C380 C379 1.400 . S
C380 C383 1.386 . S
H381 C397 0.930 . S
H382 C398 0.931 . S
C383 H371 0.929 . S
C383 C377 1.390 . S
C383 C380 1.386 . S
C384 C379 1.490 . S
C384 C386 1.395 . S
C384 C387 1.403 . S
H385 C391 0.930 . S
C386 H372 0.930 . S
C386 C384 1.395 . S
C386 C389 1.403 . S
C387 C384 1.403 . S
C387 C388 1.524 . S
C387 C391 1.400 . S
C388 H373 0.960 . S
C388 H374 0.960 . S
C388 H375 0.960 . S
C388 C387 1.524 . S
C389 C386 1.403 . S
C389 C390 1.392 . S
C389 C393 1.495 . S
C390 C389 1.392 . S
C390 C391 1.385 . S
C390 C392 1.478 . S
C391 H385 0.930 . S
C391 C387 1.400 . S
C391 C390 1.385 . S
C392 C390 1.478 . S
C392 C394 1.381 . S
C392 C398 1.383 . S
C393 C389 1.495 . S
C393 H399 0.959 . S
C393 H400 0.961 . S
C393 H401 0.960 . S
C394 C392 1.381 . S
C394 C395 1.394 . S
C394 H402 0.930 . S
C395 C394 1.394 . S
C395 C396 1.383 . S
C395 H403 0.929 . S
C396 C395 1.383 . S
C396 C397 1.377 . S
C397 H381 0.930 . S
C397 C396 1.377 . S
C397 C398 1.379 . S
C398 H382 0.931 . S
C398 C392 1.383 . S
C398 C397 1.379 . S
H399 C393 0.959 . S
H400 C393 0.961 . S
H401 C393 0.960 . S
H402 C394 0.930 . S
H403 C395 0.929 . S
H404 C412 0.929 . S
H405 C414 0.930 . S
H406 C416 0.930 . S
H407 C419 0.929 . S
H408 C422 0.930 . S
H409 C424 0.960 . S
H410 C424 0.960 . S
H411 C424 0.960 . S
C412 H404 0.929 . S
C412 C413 1.377 . S
C412 C414 1.384 . S
C413 C412 1.377 . S
C413 C419 1.390 . S
C414 H405 0.930 . S
C414 C412 1.384 . S
C414 C415 1.372 . S
C415 C414 1.372 . S
C415 C416 1.400 . S
C415 C420 1.490 . S
C416 H406 0.930 . S
C416 C415 1.400 . S
C416 C419 1.386 . S
H417 C433 0.930 . S
H418 C434 0.931 . S
C419 H407 0.929 . S
C419 C413 1.390 . S
C419 C416 1.386 . S
C420 C415 1.490 . S
C420 C422 1.395 . S
C420 C423 1.403 . S
H421 C427 0.930 . S
C422 H408 0.930 . S
C422 C420 1.395 . S
C422 C425 1.403 . S
C423 C420 1.403 . S
C423 C424 1.524 . S
C423 C427 1.400 . S
C424 H409 0.960 . S
C424 H410 0.960 . S
C424 H411 0.960 . S
C424 C423 1.524 . S
C425 C422 1.403 . S
C425 C426 1.392 . S
C425 C429 1.495 . S
C426 C425 1.392 . S
C426 C427 1.385 . S
C426 C428 1.478 . S
C427 H421 0.930 . S
C427 C423 1.400 . S
C427 C426 1.385 . S
C428 C426 1.478 . S
C428 C430 1.381 . S
C428 C434 1.383 . S
C429 C425 1.495 . S
C429 H435 0.959 . S
C429 H436 0.961 . S
C429 H437 0.960 . S
C430 C428 1.381 . S
C430 C431 1.394 . S
C430 H438 0.930 . S
C431 C430 1.394 . S
C431 C432 1.383 . S
C431 H439 0.929 . S
C432 C431 1.383 . S
C432 C433 1.377 . S
C433 H417 0.930 . S
C433 C432 1.377 . S
C433 C434 1.379 . S
C434 H418 0.931 . S
C434 C428 1.383 . S
C434 C433 1.379 . S
H435 C429 0.959 . S
H436 C429 0.961 . S
H437 C429 0.960 . S
H438 C430 0.930 . S
H439 C431 0.929 . S
H440 C448 0.929 . S
H441 C450 0.930 . S
H442 C452 0.930 . S
H443 C455 0.929 . S
H444 C458 0.930 . S
H445 C460 0.960 . S
H446 C460 0.960 . S
H447 C460 0.960 . S
C448 H440 0.929 . S
C448 C449 1.377 . S
C448 C450 1.384 . S
C449 C448 1.377 . S
C449 C455 1.390 . S
C450 H441 0.930 . S
C450 C448 1.384 . S
C450 C451 1.372 . S
C451 C450 1.372 . S
C451 C452 1.400 . S
C451 C456 1.490 . S
C452 H442 0.930 . S
C452 C451 1.400 . S
C452 C455 1.386 . S
H453 C469 0.930 . S
H454 C470 0.931 . S
C455 H443 0.929 . S
C455 C449 1.390 . S
C455 C452 1.386 . S
C456 C451 1.490 . S
C456 C458 1.395 . S
C456 C459 1.403 . S
H457 C463 0.930 . S
C458 H444 0.930 . S
C458 C456 1.395 . S
C458 C461 1.403 . S
C459 C456 1.403 . S
C459 C460 1.524 . S
C459 C463 1.400 . S
C460 H445 0.960 . S
C460 H446 0.960 . S
C460 H447 0.960 . S
C460 C459 1.524 . S
C461 C458 1.403 . S
C461 C462 1.392 . S
C461 C465 1.495 . S
C462 C461 1.392 . S
C462 C463 1.385 . S
C462 C464 1.478 . S
C463 H457 0.930 . S
C463 C459 1.400 . S
C463 C462 1.385 . S
C464 C462 1.478 . S
C464 C466 1.381 . S
C464 C470 1.383 . S
C465 C461 1.495 . S
C465 H471 0.959 . S
C465 H472 0.961 . S
C465 H473 0.960 . S
C466 C464 1.381 . S
C466 C467 1.394 . S
C466 H474 0.930 . S
C467 C466 1.394 . S
C467 C468 1.383 . S
C467 H475 0.929 . S
C468 C467 1.383 . S
C468 C469 1.377 . S
C469 H453 0.930 . S
C469 C468 1.377 . S
C469 C470 1.379 . S
C470 H454 0.931 . S
C470 C464 1.383 . S
C470 C469 1.379 . S
H471 C465 0.959 . S
H472 C465 0.961 . S
H473 C465 0.960 . S
H474 C466 0.930 . S
H475 C467 0.929 . S
H476 C484 0.929 . S
H477 C486 0.930 . S
H478 C488 0.930 . S
H479 C491 0.929 . S
H480 C494 0.930 . S
H481 C496 0.960 . S
H482 C496 0.960 . S
H483 C496 0.960 . S
C484 H476 0.929 . S
C484 C485 1.377 . S
C484 C486 1.384 . S
C485 C484 1.377 . S
C485 C491 1.390 . S
C486 H477 0.930 . S
C486 C484 1.384 . S
C486 C487 1.372 . S
C487 C486 1.372 . S
C487 C488 1.400 . S
C487 C492 1.490 . S
C488 H478 0.930 . S
C488 C487 1.400 . S
C488 C491 1.386 . S
H489 C505 0.930 . S
H490 C506 0.931 . S
C491 H479 0.929 . S
C491 C485 1.390 . S
C491 C488 1.386 . S
C492 C487 1.490 . S
C492 C494 1.395 . S
C492 C495 1.403 . S
H493 C499 0.930 . S
C494 H480 0.930 . S
C494 C492 1.395 . S
C494 C497 1.403 . S
C495 C492 1.403 . S
C495 C496 1.524 . S
C495 C499 1.400 . S
C496 H481 0.960 . S
C496 H482 0.960 . S
C496 H483 0.960 . S
C496 C495 1.524 . S
C497 C494 1.403 . S
C497 C498 1.392 . S
C497 C501 1.495 . S
C498 C497 1.392 . S
C498 C499 1.385 . S
C498 C500 1.478 . S
C499 H493 0.930 . S
C499 C495 1.400 . S
C499 C498 1.385 . S
C500 C498 1.478 . S
C500 C502 1.381 . S
C500 C506 1.383 . S
C501 C497 1.495 . S
C501 H507 0.959 . S
C501 H508 0.961 . S
C501 H509 0.960 . S
C502 C500 1.381 . S
C502 C503 1.394 . S
C502 H510 0.930 . S
C503 C502 1.394 . S
C503 C504 1.383 . S
C503 H511 0.929 . S
C504 C503 1.383 . S
C504 C505 1.377 . S
C505 H489 0.930 . S
C505 C504 1.377 . S
C505 C506 1.379 . S
C506 H490 0.931 . S
C506 C500 1.383 . S
C506 C505 1.379 . S
H507 C501 0.959 . S
H508 C501 0.961 . S
H509 C501 0.960 . S
H510 C502 0.930 . S
H511 C503 0.929 . S
H512 C520 0.929 . S
H513 C522 0.930 . S
H514 C524 0.930 . S
H515 C527 0.929 . S
H516 C530 0.930 . S
H517 C532 0.960 . S
H518 C532 0.960 . S
H519 C532 0.960 . S
C520 H512 0.929 . S
C520 C521 1.377 . S
C520 C522 1.384 . S
C521 C520 1.377 . S
C521 C527 1.390 . S
C522 H513 0.930 . S
C522 C520 1.384 . S
C522 C523 1.372 . S
C523 C522 1.372 . S
C523 C524 1.400 . S
C523 C528 1.490 . S
C524 H514 0.930 . S
C524 C523 1.400 . S
C524 C527 1.386 . S
H525 C541 0.930 . S
H526 C542 0.931 . S
C527 H515 0.929 . S
C527 C521 1.390 . S
C527 C524 1.386 . S
C528 C523 1.490 . S
C528 C530 1.395 . S
C528 C531 1.403 . S
H529 C535 0.930 . S
C530 H516 0.930 . S
C530 C528 1.395 . S
C530 C533 1.403 . S
C531 C528 1.403 . S
C531 C532 1.524 . S
C531 C535 1.400 . S
C532 H517 0.960 . S
C532 H518 0.960 . S
C532 H519 0.960 . S
C532 C531 1.524 . S
C533 C530 1.403 . S
C533 C534 1.392 . S
C533 C537 1.495 1_655 S
C534 C533 1.392 . S
C534 C535 1.385 . S
C534 C536 1.478 . S
C535 H529 0.930 . S
C535 C531 1.400 . S
C535 C534 1.385 . S
C536 C534 1.478 . S
C536 C538 1.381 . S
C536 C542 1.383 1_655 S
C537 C533 1.495 1_455 S
C537 H543 0.959 . S
C537 H544 0.961 . S
C537 H545 0.960 1_455 S
C538 C536 1.381 . S
C538 C539 1.394 . S
C538 H546 0.930 . S
C539 C538 1.394 . S
C539 C540 1.383 1_655 S
C539 H547 0.929 . S
C540 C539 1.383 1_455 S
C540 C541 1.377 . S
C541 H525 0.930 . S
C541 C540 1.377 . S
C541 C542 1.379 . S
C542 H526 0.931 . S
C542 C536 1.383 1_455 S
C542 C541 1.379 . S
H543 C537 0.959 . S
H544 C537 0.961 . S
H545 C537 0.960 1_655 S
H546 C538 0.930 . S
H547 C539 0.929 . S
H548 C556 0.929 . S
H549 C558 0.930 . S
H550 C560 0.930 . S
H551 C563 0.929 . S
H552 C566 0.930 . S
H553 C568 0.960 . S
H554 C568 0.960 . S
H555 C568 0.960 . S
C556 H548 0.929 . S
C556 C557 1.377 1_565 S
C556 C558 1.384 . S
C557 C556 1.377 1_545 S
C557 C563 1.390 . S
C558 H549 0.930 . S
C558 C556 1.384 . S
C558 C559 1.372 . S
C559 C558 1.372 . S
C559 C560 1.400 1_565 S
C559 C564 1.490 . S
C560 H550 0.930 . S
C560 C559 1.400 1_545 S
C560 C563 1.386 . S
H561 C577 0.930 . S
H562 C578 0.931 . S
C563 H551 0.929 . S
C563 C557 1.390 . S
C563 C560 1.386 . S
C564 C559 1.490 . S
C564 C566 1.395 . S
C564 C567 1.403 . S
H565 C571 0.930 . S
C566 H552 0.930 . S
C566 C564 1.395 . S
C566 C569 1.403 . S
C567 C564 1.403 . S
C567 C568 1.524 1_565 S
C567 C571 1.400 . S
C568 H553 0.960 . S
C568 H554 0.960 . S
C568 H555 0.960 . S
C568 C567 1.524 1_545 S
C569 C566 1.403 . S
C569 C570 1.392 . S
C569 C573 1.495 . S
C570 C569 1.392 . S
C570 C571 1.385 . S
C570 C572 1.478 . S
C571 H565 0.930 . S
C571 C567 1.400 . S
C571 C570 1.385 . S
C572 C570 1.478 . S
C572 C574 1.381 . S
C572 C578 1.383 1_655 S
C573 C569 1.495 . S
C573 H579 0.959 . S
C573 H580 0.961 1_655 S
C573 H581 0.960 . S
C574 C572 1.381 . S
C574 C575 1.394 . S
C574 H582 0.930 . S
C575 C574 1.394 . S
C575 C576 1.383 1_655 S
C575 H583 0.929 . S
C576 C575 1.383 1_455 S
C576 C577 1.377 . S
C577 H561 0.930 . S
C577 C576 1.377 . S
C577 C578 1.379 . S
C578 H562 0.931 . S
C578 C572 1.383 1_455 S
C578 C577 1.379 . S
H579 C573 0.959 . S
H580 C573 0.961 1_455 S
H581 C573 0.960 . S
H582 C574 0.930 . S
H583 C575 0.929 . S
H584 C592 0.929 . S
H585 C594 0.930 . S
H586 C596 0.930 . S
H587 C599 0.929 . S
H588 C602 0.930 . S
H589 C604 0.960 . S
H590 C604 0.960 . S
H591 C604 0.960 . S
C592 H584 0.929 . S
C592 C593 1.377 . S
C592 C594 1.384 . S
C593 C592 1.377 . S
C593 C599 1.390 1_545 S
C594 H585 0.930 . S
C594 C592 1.384 . S
C594 C595 1.372 1_545 S
C595 C594 1.372 1_565 S
C595 C596 1.400 . S
C595 C600 1.490 . S
C596 H586 0.930 . S
C596 C595 1.400 . S
C596 C599 1.386 . S
H597 C613 0.930 . S
H598 C614 0.931 . S
C599 H587 0.929 . S
C599 C593 1.390 1_565 S
C599 C596 1.386 . S
C600 C595 1.490 . S
C600 C602 1.395 . S
C600 C603 1.403 . S
H601 C607 0.930 . S
C602 H588 0.930 . S
C602 C600 1.395 . S
C602 C605 1.403 . S
C603 C600 1.403 . S
C603 C604 1.524 . S
C603 C607 1.400 . S
C604 H589 0.960 . S
C604 H590 0.960 . S
C604 H591 0.960 . S
C604 C603 1.524 . S
C605 C602 1.403 . S
C605 C606 1.392 . S
C605 C609 1.495 . S
C606 C605 1.392 . S
C606 C607 1.385 . S
C606 C608 1.478 . S
C607 H601 0.930 . S
C607 C603 1.400 . S
C607 C606 1.385 . S
C608 C606 1.478 . S
C608 C610 1.381 . S
C608 C614 1.383 . S
C609 C605 1.495 . S
C609 H615 0.959 . S
C609 H616 0.961 . S
C609 H617 0.960 . S
C610 C608 1.381 . S
C610 C611 1.394 . S
C610 H618 0.930 . S
C611 C610 1.394 . S
C611 C612 1.383 . S
C611 H619 0.929 . S
C612 C611 1.383 . S
C612 C613 1.377 . S
C613 H597 0.930 . S
C613 C612 1.377 . S
C613 C614 1.379 . S
C614 H598 0.931 . S
C614 C608 1.383 . S
C614 C613 1.379 . S
H615 C609 0.959 . S
H616 C609 0.961 . S
H617 C609 0.960 . S
H618 C610 0.930 . S
H619 C611 0.929 . S
H620 C628 0.929 . S
H621 C630 0.930 . S
H622 C632 0.930 . S
H623 C635 0.929 . S
H624 C638 0.930 . S
H625 C640 0.960 . S
H626 C640 0.960 . S
H627 C640 0.960 . S
C628 H620 0.929 . S
C628 C629 1.377 . S
C628 C630 1.384 . S
C629 C628 1.377 . S
C629 C635 1.390 . S
C630 H621 0.930 . S
C630 C628 1.384 . S
C630 C631 1.372 . S
C631 C630 1.372 . S
C631 C632 1.400 . S
C631 C636 1.490 . S
C632 H622 0.930 . S
C632 C631 1.400 . S
C632 C635 1.386 . S
H633 C649 0.930 . S
H634 C650 0.931 . S
C635 H623 0.929 . S
C635 C629 1.390 . S
C635 C632 1.386 . S
C636 C631 1.490 . S
C636 C638 1.395 . S
C636 C639 1.403 . S
H637 C643 0.930 . S
C638 H624 0.930 . S
C638 C636 1.395 . S
C638 C641 1.403 . S
C639 C636 1.403 . S
C639 C640 1.524 . S
C639 C643 1.400 . S
C640 H625 0.960 . S
C640 H626 0.960 . S
C640 H627 0.960 . S
C640 C639 1.524 . S
C641 C638 1.403 . S
C641 C642 1.392 . S
C641 C645 1.495 . S
C642 C641 1.392 . S
C642 C643 1.385 . S
C642 C644 1.478 . S
C643 H637 0.930 . S
C643 C639 1.400 . S
C643 C642 1.385 . S
C644 C642 1.478 . S
C644 C646 1.381 . S
C644 C650 1.383 . S
C645 C641 1.495 . S
C645 H651 0.959 . S
C645 H652 0.961 . S
C645 H653 0.960 . S
C646 C644 1.381 . S
C646 C647 1.394 . S
C646 H654 0.930 . S
C647 C646 1.394 . S
C647 C648 1.383 . S
C647 H655 0.929 . S
C648 C647 1.383 . S
C648 C649 1.377 . S
C649 H633 0.930 . S
C649 C648 1.377 . S
C649 C650 1.379 . S
C650 H634 0.931 . S
C650 C644 1.383 . S
C650 C649 1.379 . S
H651 C645 0.959 . S
H652 C645 0.961 . S
H653 C645 0.960 . S
H654 C646 0.930 . S
H655 C647 0.929 . S
H656 C664 0.929 . S
H657 C666 0.930 . S
H658 C668 0.930 . S
H659 C671 0.929 . S
H660 C674 0.930 . S
H661 C676 0.960 . S
H662 C676 0.960 . S
H663 C676 0.960 . S
C664 H656 0.929 . S
C664 C665 1.377 . S
C664 C666 1.384 . S
C665 C664 1.377 . S
C665 C671 1.390 . S
C666 H657 0.930 . S
C666 C664 1.384 . S
C666 C667 1.372 . S
C667 C666 1.372 . S
C667 C668 1.400 . S
C667 C672 1.490 . S
C668 H658 0.930 . S
C668 C667 1.400 . S
C668 C671 1.386 . S
H669 C685 0.929 1_455 S
H670 C686 0.931 . S
C671 H659 0.929 . S
C671 C665 1.390 . S
C671 C668 1.386 . S
C672 C667 1.490 . S
C672 C674 1.395 . S
C672 C675 1.403 . S
H673 C679 0.930 . S
C674 H660 0.930 . S
C674 C672 1.395 . S
C674 C677 1.403 . S
C675 C672 1.403 . S
C675 C676 1.524 . S
C675 C679 1.400 . S
C676 H661 0.960 . S
C676 H662 0.960 . S
C676 H663 0.960 . S
C676 C675 1.524 . S
C677 C674 1.403 . S
C677 C678 1.392 . S
C677 C681 1.495 1_455 S
C678 C677 1.392 . S
C678 C679 1.385 . S
C678 C680 1.478 . S
C679 H673 0.930 . S
C679 C675 1.400 . S
C679 C678 1.385 . S
C680 C678 1.478 . S
C680 C682 1.381 1_455 S
C680 C686 1.383 . S
C681 C677 1.495 1_655 S
C681 H687 0.959 . S
C681 H688 0.961 . S
C681 H689 0.960 . S
C682 C680 1.381 1_655 S
C682 C683 1.394 . S
C682 H690 0.930 . S
C683 C682 1.394 . S
C683 C684 1.383 . S
C683 H691 0.929 . S
C684 C683 1.383 . S
C684 C685 1.380 . S
C685 H669 0.929 1_655 S
C685 C684 1.380 . S
C685 C686 1.377 1_655 S
C686 H670 0.931 . S
C686 C680 1.383 . S
C686 C685 1.377 1_455 S
H687 C681 0.959 . S
H688 C681 0.961 . S
H689 C681 0.960 . S
H690 C682 0.930 . S
H691 C683 0.929 . S
H692 C700 0.929 . S
H693 C702 0.930 . S
H694 C704 0.930 . S
H695 C707 0.929 . S
H696 C710 0.930 . S
H697 C712 0.961 . S
H698 C712 0.974 . S
H699 C712 0.957 1_545 S
C700 H692 0.929 . S
C700 C701 1.377 . S
C700 C702 1.384 . S
C701 C700 1.377 . S
C701 C707 1.390 1_565 S
C702 H693 0.930 . S
C702 C700 1.384 . S
C702 C703 1.372 1_565 S
C703 C702 1.372 1_545 S
C703 C704 1.400 . S
C703 C708 1.490 . S
C704 H694 0.930 . S
C704 C703 1.400 . S
C704 C707 1.386 . S
H705 C721 0.930 . S
H706 C722 0.931 . S
C707 H695 0.929 . S
C707 C701 1.390 1_545 S
C707 C704 1.386 . S
C708 C703 1.490 . S
C708 C710 1.395 . S
C708 C711 1.403 . S
H709 C715 0.930 . S
C710 H696 0.930 . S
C710 C708 1.395 . S
C710 C713 1.403 . S
C711 C708 1.403 . S
C711 C712 1.513 1_545 S
C711 C715 1.400 . S
C712 H697 0.961 . S
C712 H698 0.974 . S
C712 H699 0.957 1_565 S
C712 C711 1.513 1_565 S
C713 C710 1.403 . S
C713 C714 1.392 . S
C713 C717 1.495 1_455 S
C714 C713 1.392 . S
C714 C715 1.385 . S
C714 C716 1.478 . S
C715 H709 0.930 . S
C715 C711 1.400 . S
C715 C714 1.385 . S
C716 C714 1.478 . S
C716 C718 1.381 1_455 S
C716 C722 1.383 . S
C717 C713 1.495 1_655 S
C717 H723 0.959 . S
C717 H724 0.961 . S
C717 H725 0.960 . S
C718 C716 1.381 1_655 S
C718 C719 1.394 . S
C718 H726 0.930 . S
C719 C718 1.394 . S
C719 C720 1.383 . S
C719 H727 0.929 . S
C720 C719 1.383 . S
C720 C721 1.377 1_655 S
C721 H705 0.930 . S
C721 C720 1.377 1_455 S
C721 C722 1.379 . S
C722 H706 0.931 . S
C722 C716 1.383 . S
C722 C721 1.379 . S
H723 C717 0.959 . S
H724 C717 0.961 . S
H725 C717 0.960 . S
H726 C718 0.930 . S
H727 C719 0.929 . S
H728 C736 0.929 . S
H729 C738 0.930 . S
H730 C740 0.930 . S
H731 C743 0.929 . S
H732 C746 0.930 . S
H733 C748 0.960 . S
H734 C748 0.960 . S
H735 C748 0.960 . S
C736 H728 0.929 . S
C736 C737 1.377 . S
C736 C738 1.384 . S
C737 C736 1.377 . S
C737 C743 1.390 . S
C738 H729 0.930 . S
C738 C736 1.384 . S
C738 C739 1.372 . S
C739 C738 1.372 . S
C739 C740 1.400 . S
C739 C744 1.490 . S
C740 H730 0.930 . S
C740 C739 1.400 . S
C740 C743 1.386 . S
H741 C757 0.930 . S
H742 C758 0.931 . S
C743 H731 0.929 . S
C743 C737 1.390 . S
C743 C740 1.386 . S
C744 C739 1.490 . S
C744 C746 1.395 . S
C744 C747 1.403 . S
H745 C751 0.930 . S
C746 H732 0.930 . S
C746 C744 1.395 . S
C746 C749 1.403 . S
C747 C744 1.403 . S
C747 C748 1.524 . S
C747 C751 1.400 . S
C748 H733 0.960 . S
C748 H734 0.960 . S
C748 H735 0.960 . S
C748 C747 1.524 . S
C749 C746 1.403 . S
C749 C750 1.392 . S
C749 C753 1.495 . S
C750 C749 1.392 . S
C750 C751 1.385 . S
C750 C752 1.478 . S
C751 H745 0.930 . S
C751 C747 1.400 . S
C751 C750 1.385 . S
C752 C750 1.478 . S
C752 C754 1.381 1_545 S
C752 C758 1.383 . S
C753 C749 1.495 . S
C753 H759 0.959 . S
C753 H760 0.961 . S
C753 H761 0.960 1_545 S
C754 C752 1.381 1_565 S
C754 C755 1.394 . S
C754 H762 0.930 . S
C755 C754 1.394 . S
C755 C756 1.383 . S
C755 H763 0.929 . S
C756 C755 1.383 . S
C756 C757 1.377 1_565 S
C757 H741 0.930 . S
C757 C756 1.377 1_545 S
C757 C758 1.379 . S
C758 H742 0.931 . S
C758 C752 1.383 . S
C758 C757 1.379 . S
H759 C753 0.959 . S
H760 C753 0.961 . S
H761 C753 0.960 1_565 S
H762 C754 0.930 . S
H763 C755 0.929 . S
H764 C772 0.929 . S
H765 C774 0.930 . S
H766 C776 0.930 . S
H767 C779 0.929 . S
H768 C782 0.930 . S
H769 C784 0.960 . S
H770 C784 0.960 . S
H771 C784 0.960 . S
C772 H764 0.929 . S
C772 C773 1.377 . S
C772 C774 1.384 . S
C773 C772 1.377 . S
C773 C779 1.390 . S
C774 H765 0.930 . S
C774 C772 1.384 . S
C774 C775 1.372 . S
C775 C774 1.372 . S
C775 C776 1.400 . S
C775 C780 1.490 . S
C776 H766 0.930 . S
C776 C775 1.400 . S
C776 C779 1.386 . S
H777 C793 0.930 . S
H778 C794 0.931 . S
C779 H767 0.929 . S
C779 C773 1.390 . S
C779 C776 1.386 . S
C780 C775 1.490 . S
C780 C782 1.395 . S
C780 C783 1.403 . S
H781 C787 0.930 . S
C782 H768 0.930 . S
C782 C780 1.395 . S
C782 C785 1.403 . S
C783 C780 1.403 . S
C783 C784 1.524 . S
C783 C787 1.400 . S
C784 H769 0.960 . S
C784 H770 0.960 . S
C784 H771 0.960 . S
C784 C783 1.524 . S
C785 C782 1.403 . S
C785 C786 1.392 . S
C785 C789 1.495 . S
C786 C785 1.392 . S
C786 C787 1.385 . S
C786 C788 1.478 . S
C787 H781 0.930 . S
C787 C783 1.400 . S
C787 C786 1.385 . S
C788 C786 1.478 . S
C788 C790 1.381 . S
C788 C794 1.383 . S
C789 C785 1.495 . S
C789 H795 0.959 . S
C789 H796 0.961 . S
C789 H797 0.960 . S
C790 C788 1.381 . S
C790 C791 1.394 . S
C790 H798 0.930 . S
C791 C790 1.394 . S
C791 C792 1.383 . S
C791 H799 0.929 . S
C792 C791 1.383 . S
C792 C793 1.377 . S
C793 H777 0.930 . S
C793 C792 1.377 . S
C793 C794 1.379 . S
C794 H778 0.931 . S
C794 C788 1.383 . S
C794 C793 1.379 . S
H795 C789 0.959 . S
H796 C789 0.961 . S
H797 C789 0.960 . S
H798 C790 0.930 . S
H799 C791 0.929 . S
H800 C808 0.929 . S
H801 C810 0.930 . S
H802 C812 0.930 . S
H803 C815 0.929 . S
H804 C818 0.930 . S
H805 C820 0.960 . S
H806 C820 0.960 . S
H807 C820 0.960 . S
C808 H800 0.929 . S
C808 C809 1.377 . S
C808 C810 1.384 . S
C809 C808 1.377 . S
C809 C815 1.390 1_455 S
C810 H801 0.930 . S
C810 C808 1.384 . S
C810 C811 1.372 . S
C811 C810 1.372 . S
C811 C812 1.400 1_455 S
C811 C816 1.490 . S
C812 H802 0.930 . S
C812 C811 1.400 1_655 S
C812 C815 1.386 . S
H813 C829 0.905 1_655 S
H814 C830 0.931 1_655 S
C815 H803 0.929 . S
C815 C809 1.390 1_655 S
C815 C812 1.386 . S
C816 C811 1.490 . S
C816 C818 1.395 . S
C816 C819 1.403 . S
H817 C823 0.930 1_655 S
C818 H804 0.930 . S
C818 C816 1.395 . S
C818 C821 1.403 . S
C819 C816 1.403 . S
C819 C820 1.524 1_455 S
C819 C823 1.400 . S
C820 H805 0.960 . S
C820 H806 0.960 . S
C820 H807 0.960 . S
C820 C819 1.524 1_655 S
C821 C818 1.403 . S
C821 C822 1.392 . S
C821 C825 1.495 . S
C822 C821 1.392 . S
C822 C823 1.385 . S
C822 C824 1.478 . S
C823 H817 0.930 1_455 S
C823 C819 1.400 . S
C823 C822 1.385 . S
C824 C822 1.478 . S
C824 C826 1.381 . S
C824 C830 1.383 . S
C825 C821 1.495 . S
C825 H831 0.959 . S
C825 H832 0.961 . S
C825 H833 0.960 . S
C826 C824 1.381 . S
C826 C827 1.394 . S
C826 H834 0.930 . S
C827 C826 1.394 . S
C827 C828 1.383 . S
C827 H835 0.929 . S
C828 C827 1.383 . S
C828 C829 1.400 . S
C829 H813 0.905 1_455 S
C829 C828 1.400 . S
C829 C830 1.381 . S
C830 H814 0.931 1_455 S
C830 C824 1.383 . S
C830 C829 1.381 . S
H831 C825 0.959 . S
H832 C825 0.961 . S
H833 C825 0.960 . S
H834 C826 0.930 . S
H835 C827 0.929 . S
H836 C844 0.929 . S
H837 C846 0.930 . S
H838 C848 0.930 . S
H839 C851 0.929 . S
H840 C854 0.930 . S
H841 C856 0.960 . S
H842 C856 0.960 . S
H843 C856 0.960 . S
C844 H836 0.929 . S
C844 C845 1.377 . S
C844 C846 1.384 . S
C845 C844 1.377 . S
C845 C851 1.390 . S
C846 H837 0.930 . S
C846 C844 1.384 . S
C846 C847 1.372 . S
C847 C846 1.372 . S
C847 C848 1.400 . S
C847 C852 1.490 . S
C848 H838 0.930 . S
C848 C847 1.400 . S
C848 C851 1.386 . S
H849 C865 0.930 . S
H850 C866 0.931 . S
C851 H839 0.929 . S
C851 C845 1.390 . S
C851 C848 1.386 . S
C852 C847 1.490 . S
C852 C854 1.395 1_545 S
C852 C855 1.403 . S
H853 C859 0.930 . S
C854 H840 0.930 . S
C854 C852 1.395 1_565 S
C854 C857 1.403 . S
C855 C852 1.403 . S
C855 C856 1.524 . S
C855 C859 1.400 . S
C856 H841 0.960 . S
C856 H842 0.960 . S
C856 H843 0.960 . S
C856 C855 1.524 . S
C857 C854 1.403 . S
C857 C858 1.392 1_565 S
C857 C861 1.495 . S
C858 C857 1.392 1_545 S
C858 C859 1.385 . S
C858 C860 1.478 . S
C859 H853 0.930 . S
C859 C855 1.400 . S
C859 C858 1.385 . S
C860 C858 1.478 . S
C860 C862 1.381 . S
C860 C866 1.383 . S
C861 C857 1.495 . S
C861 H867 0.959 . S
C861 H868 0.961 . S
C861 H869 0.960 . S
C862 C860 1.381 . S
C862 C863 1.394 . S
C862 H870 0.930 . S
C863 C862 1.394 . S
C863 C864 1.383 . S
C863 H871 0.929 . S
C864 C863 1.383 . S
C864 C865 1.377 . S
C865 H849 0.930 . S
C865 C864 1.377 . S
C865 C866 1.379 . S
C866 H850 0.931 . S
C866 C860 1.383 . S
C866 C865 1.379 . S
H867 C861 0.959 . S
H868 C861 0.961 . S
H869 C861 0.960 . S
H870 C862 0.930 . S
H871 C863 0.929 . S
H872 C880 0.929 . S
H873 C882 0.930 . S
H874 C884 0.930 . S
H875 C887 0.929 . S
H876 C890 0.930 . S
H877 C892 0.960 . S
H878 C892 0.960 . S
H879 C892 0.960 . S
C880 H872 0.929 . S
C880 C881 1.377 . S
C880 C882 1.384 . S
C881 C880 1.377 . S
C881 C887 1.390 . S
C882 H873 0.930 . S
C882 C880 1.384 . S
C882 C883 1.372 . S
C883 C882 1.372 . S
C883 C884 1.400 . S
C883 C888 1.490 . S
C884 H874 0.930 . S
C884 C883 1.400 . S
C884 C887 1.386 . S
H885 C901 0.930 . S
H886 C902 0.931 . S
C887 H875 0.929 . S
C887 C881 1.390 . S
C887 C884 1.386 . S
C888 C883 1.490 . S
C888 C890 1.395 . S
C888 C891 1.403 . S
H889 C895 0.930 . S
C890 H876 0.930 . S
C890 C888 1.395 . S
C890 C893 1.403 . S
C891 C888 1.403 . S
C891 C892 1.524 . S
C891 C895 1.400 . S
C892 H877 0.960 . S
C892 H878 0.960 . S
C892 H879 0.960 . S
C892 C891 1.524 . S
C893 C890 1.403 . S
C893 C894 1.392 . S
C893 C897 1.495 . S
C894 C893 1.392 . S
C894 C895 1.385 . S
C894 C896 1.478 . S
C895 H889 0.930 . S
C895 C891 1.400 . S
C895 C894 1.385 . S
C896 C894 1.478 . S
C896 C898 1.381 . S
C896 C902 1.383 . S
C897 C893 1.495 . S
C897 H903 0.959 . S
C897 H904 0.961 . S
C897 H905 0.960 . S
C898 C896 1.381 . S
C898 C899 1.394 . S
C898 H906 0.930 . S
C899 C898 1.394 . S
C899 C900 1.383 . S
C899 H907 0.929 . S
C900 C899 1.383 . S
C900 C901 1.377 . S
C901 H885 0.930 . S
C901 C900 1.377 . S
C901 C902 1.379 . S
C902 H886 0.931 . S
C902 C896 1.383 . S
C902 C901 1.379 . S
H903 C897 0.959 . S
H904 C897 0.961 . S
H905 C897 0.960 . S
H906 C898 0.930 . S
H907 C899 0.929 . S
H908 C916 0.929 . S
H909 C918 0.930 . S
H910 C920 0.930 . S
H911 C923 0.929 . S
H912 C926 0.930 . S
H913 C928 0.960 . S
H914 C928 0.960 . S
H915 C928 0.960 . S
C916 H908 0.929 . S
C916 C917 1.377 . S
C916 C918 1.384 . S
C917 C916 1.377 . S
C917 C923 1.390 . S
C918 H909 0.930 . S
C918 C916 1.384 . S
C918 C919 1.372 . S
C919 C918 1.372 . S
C919 C920 1.400 . S
C919 C924 1.490 . S
C920 H910 0.930 . S
C920 C919 1.400 . S
C920 C923 1.386 . S
H921 C937 0.930 . S
H922 C938 0.931 . S
C923 H911 0.929 . S
C923 C917 1.390 . S
C923 C920 1.386 . S
C924 C919 1.490 . S
C924 C926 1.395 . S
C924 C927 1.403 . S
H925 C931 0.930 . S
C926 H912 0.930 . S
C926 C924 1.395 . S
C926 C929 1.403 . S
C927 C924 1.403 . S
C927 C928 1.524 . S
C927 C931 1.400 . S
C928 H913 0.960 . S
C928 H914 0.960 . S
C928 H915 0.960 . S
C928 C927 1.524 . S
C929 C926 1.403 . S
C929 C930 1.392 . S
C929 C933 1.495 . S
C930 C929 1.392 . S
C930 C931 1.385 . S
C930 C932 1.478 . S
C931 H925 0.930 . S
C931 C927 1.400 . S
C931 C930 1.385 . S
C932 C930 1.478 . S
C932 C934 1.381 . S
C932 C938 1.383 . S
C933 C929 1.495 . S
C933 H939 0.959 . S
C933 H940 0.961 . S
C933 H941 0.960 . S
C934 C932 1.381 . S
C934 C935 1.394 . S
C934 H942 0.930 . S
C935 C934 1.394 . S
C935 C936 1.383 . S
C935 H943 0.929 . S
C936 C935 1.383 . S
C936 C937 1.377 . S
C937 H921 0.930 . S
C937 C936 1.377 . S
C937 C938 1.379 . S
C938 H922 0.931 . S
C938 C932 1.383 . S
C938 C937 1.379 . S
H939 C933 0.959 . S
H940 C933 0.961 . S
H941 C933 0.960 . S
H942 C934 0.930 . S
H943 C935 0.929 . S
H944 C952 0.952 . S
H945 C954 0.930 . S
H946 C956 0.930 . S
H947 C959 0.929 . S
H948 C962 0.930 . S
H949 C964 0.960 . S
H950 C964 0.960 . S
H951 C964 0.960 . S
C952 H944 0.952 . S
C952 C953 1.355 1_455 S
C952 C954 1.385 . S
C953 C952 1.355 1_655 S
C953 C959 1.390 . S
C954 H945 0.930 . S
C954 C952 1.385 . S
C954 C955 1.372 1_455 S
C955 C954 1.372 1_655 S
C955 C956 1.400 . S
C955 C960 1.490 . S
C956 H946 0.930 . S
C956 C955 1.400 . S
C956 C959 1.386 . S
H957 C973 0.930 . S
H958 C974 0.931 . S
C959 H947 0.929 . S
C959 C953 1.390 . S
C959 C956 1.386 . S
C960 C955 1.490 . S
C960 C962 1.395 . S
C960 C963 1.403 . S
H961 C967 0.930 . S
C962 H948 0.930 . S
C962 C960 1.395 . S
C962 C965 1.403 . S
C963 C960 1.403 . S
C963 C964 1.524 . S
C963 C967 1.400 . S
C964 H949 0.960 . S
C964 H950 0.960 . S
C964 H951 0.960 . S
C964 C963 1.524 . S
C965 C962 1.403 . S
C965 C966 1.392 . S
C965 C969 1.495 . S
C966 C965 1.392 . S
C966 C967 1.385 . S
C966 C968 1.478 . S
C967 H961 0.930 . S
C967 C963 1.400 . S
C967 C966 1.385 . S
C968 C966 1.478 . S
C968 C970 1.381 1_655 S
C968 C974 1.383 . S
C969 C965 1.495 . S
C969 H975 0.959 . S
C969 H976 0.961 . S
C969 H977 0.960 . S
C970 C968 1.381 1_455 S
C970 C971 1.394 . S
C970 H978 0.930 . S
C971 C970 1.394 . S
C971 C972 1.383 1_455 S
C971 H979 0.929 . S
C972 C971 1.383 1_655 S
C972 C973 1.377 . S
C973 H957 0.930 . S
C973 C972 1.377 . S
C973 C974 1.379 . S
C974 H958 0.931 . S
C974 C968 1.383 . S
C974 C973 1.379 . S
H975 C969 0.959 . S
H976 C969 0.961 . S
H977 C969 0.960 . S
H978 C970 0.930 . S
H979 C971 0.929 . S
H980 C988 0.929 . S
H981 C990 0.930 . S
H982 C992 0.930 . S
H983 C995 0.929 . S
H984 C998 0.930 . S
H985 C1000 0.960 . S
H986 C1000 0.960 . S
H987 C1000 0.960 . S
C988 H980 0.929 . S
C988 C989 1.377 . S
C988 C990 1.384 . S
C989 C988 1.377 . S
C989 C995 1.390 . S
C990 H981 0.930 . S
C990 C988 1.384 . S
C990 C991 1.372 . S
C991 C990 1.372 . S
C991 C992 1.400 . S
C991 C996 1.490 . S
C992 H982 0.930 . S
C992 C991 1.400 . S
C992 C995 1.386 . S
H993 C1009 0.930 . S
H994 C1010 0.931 . S
C995 H983 0.929 . S
C995 C989 1.390 . S
C995 C992 1.386 . S
C996 C991 1.490 . S
C996 C998 1.395 . S
C996 C999 1.403 . S
H997 C1003 0.930 1_545 S
C998 H984 0.930 . S
C998 C996 1.395 . S
C998 C1001 1.403 . S
C999 C996 1.403 . S
C999 C1000 1.524 1_565 S
C999 C1003 1.400 . S
C1000 H985 0.960 . S
C1000 H986 0.960 . S
C1000 H987 0.960 . S
C1000 C999 1.524 1_545 S
C1001 C998 1.403 . S
C1001 C1002 1.392 . S
C1001 C1005 1.495 . S
C1002 C1001 1.392 . S
C1002 C1003 1.385 . S
C1002 C1004 1.478 . S
C1003 H997 0.930 1_565 S
C1003 C999 1.400 . S
C1003 C1002 1.385 . S
C1004 C1002 1.478 . S
C1004 C1006 1.381 . S
C1004 C1010 1.383 . S
C1005 C1001 1.495 . S
C1005 H1011 0.959 . S
C1005 H1012 0.961 . S
C1005 H1013 0.960 . S
C1006 C1004 1.381 . S
C1006 C1007 1.394 . S
C1006 H1014 0.930 . S
C1007 C1006 1.394 . S
C1007 C1008 1.383 . S
C1007 H1015 0.929 . S
C1008 C1007 1.383 . S
C1008 C1009 1.377 . S
C1009 H993 0.930 . S
C1009 C1008 1.377 . S
C1009 C1010 1.379 . S
C1010 H994 0.931 . S
C1010 C1004 1.383 . S
C1010 C1009 1.379 . S
H1011 C1005 0.959 . S
H1012 C1005 0.961 . S
H1013 C1005 0.960 . S
H1014 C1006 0.930 . S
H1015 C1007 0.929 . S
H1016 C1024 0.929 . S
H1017 C1026 0.930 . S
H1018 C1028 0.930 . S
H1019 C1031 0.929 . S
H1020 C1034 0.930 . S
H1021 C1036 0.960 . S
H1022 C1036 0.960 . S
H1023 C1036 0.960 . S
C1024 H1016 0.929 . S
C1024 C1025 1.377 . S
C1024 C1026 1.384 . S
C1025 C1024 1.377 . S
C1025 C1031 1.390 . S
C1026 H1017 0.930 . S
C1026 C1024 1.384 . S
C1026 C1027 1.372 . S
C1027 C1026 1.372 . S
C1027 C1028 1.400 . S
C1027 C1032 1.490 . S
C1028 H1018 0.930 . S
C1028 C1027 1.400 . S
C1028 C1031 1.386 . S
H1029 C1045 0.930 . S
H1030 C1046 0.931 . S
C1031 H1019 0.929 . S
C1031 C1025 1.390 . S
C1031 C1028 1.386 . S
C1032 C1027 1.490 . S
C1032 C1034 1.395 . S
C1032 C1035 1.403 . S
H1033 C1039 0.930 . S
C1034 H1020 0.930 . S
C1034 C1032 1.395 . S
C1034 C1037 1.403 . S
C1035 C1032 1.403 . S
C1035 C1036 1.524 . S
C1035 C1039 1.400 . S
C1036 H1021 0.960 . S
C1036 H1022 0.960 . S
C1036 H1023 0.960 . S
C1036 C1035 1.524 . S
C1037 C1034 1.403 . S
C1037 C1038 1.392 . S
C1037 C1041 1.495 . S
C1038 C1037 1.392 . S
C1038 C1039 1.385 . S
C1038 C1040 1.478 . S
C1039 H1033 0.930 . S
C1039 C1035 1.400 . S
C1039 C1038 1.385 . S
C1040 C1038 1.478 . S
C1040 C1042 1.381 . S
C1040 C1046 1.383 . S
C1041 C1037 1.495 . S
C1041 H1047 0.959 . S
C1041 H1048 0.961 . S
C1041 H1049 0.960 . S
C1042 C1040 1.381 . S
C1042 C1043 1.394 . S
C1042 H1050 0.930 . S
C1043 C1042 1.394 . S
C1043 C1044 1.383 . S
C1043 H1051 0.929 . S
C1044 C1043 1.383 . S
C1044 C1045 1.377 . S
C1045 H1029 0.930 . S
C1045 C1044 1.377 . S
C1045 C1046 1.379 . S
C1046 H1030 0.931 . S
C1046 C1040 1.383 . S
C1046 C1045 1.379 . S
H1047 C1041 0.959 . S
H1048 C1041 0.961 . S
H1049 C1041 0.960 . S
H1050 C1042 0.930 . S
H1051 C1043 0.929 . S
H1052 C1060 0.929 . S
H1053 C1062 0.930 . S
H1054 C1064 0.930 . S
H1055 C1067 0.929 . S
H1056 C1070 0.930 . S
H1057 C1072 0.960 . S
H1058 C1072 0.960 . S
H1059 C1072 0.960 . S
C1060 H1052 0.929 . S
C1060 C1061 1.377 . S
C1060 C1062 1.384 . S
C1061 C1060 1.377 . S
C1061 C1067 1.390 . S
C1062 H1053 0.930 . S
C1062 C1060 1.384 . S
C1062 C1063 1.372 . S
C1063 C1062 1.372 . S
C1063 C1064 1.400 . S
C1063 C1068 1.490 . S
C1064 H1054 0.930 . S
C1064 C1063 1.400 . S
C1064 C1067 1.386 . S
H1065 C1081 0.930 . S
H1066 C1082 0.931 . S
C1067 H1055 0.929 . S
C1067 C1061 1.390 . S
C1067 C1064 1.386 . S
C1068 C1063 1.490 . S
C1068 C1070 1.395 . S
C1068 C1071 1.403 . S
H1069 C1075 0.930 . S
C1070 H1056 0.930 . S
C1070 C1068 1.395 . S
C1070 C1073 1.403 . S
C1071 C1068 1.403 . S
C1071 C1072 1.524 . S
C1071 C1075 1.400 . S
C1072 H1057 0.960 . S
C1072 H1058 0.960 . S
C1072 H1059 0.960 . S
C1072 C1071 1.524 . S
C1073 C1070 1.403 . S
C1073 C1074 1.392 . S
C1073 C1077 1.495 . S
C1074 C1073 1.392 . S
C1074 C1075 1.385 . S
C1074 C1076 1.478 . S
C1075 H1069 0.930 . S
C1075 C1071 1.400 . S
C1075 C1074 1.385 . S
C1076 C1074 1.478 . S
C1076 C1078 1.381 . S
C1076 C1082 1.383 . S
C1077 C1073 1.495 . S
C1077 H1083 0.959 . S
C1077 H1084 0.961 . S
C1077 H1085 0.960 . S
C1078 C1076 1.381 . S
C1078 C1079 1.394 . S
C1078 H1086 0.930 . S
C1079 C1078 1.394 . S
C1079 C1080 1.383 . S
C1079 H1087 0.929 . S
C1080 C1079 1.383 . S
C1080 C1081 1.377 . S
C1081 H1065 0.930 . S
C1081 C1080 1.377 . S
C1081 C1082 1.379 . S
C1082 H1066 0.931 . S
C1082 C1076 1.383 . S
C1082 C1081 1.379 . S
H1083 C1077 0.959 . S
H1084 C1077 0.961 . S
H1085 C1077 0.960 . S
H1086 C1078 0.930 . S
H1087 C1079 0.929 . S
H1088 C1096 0.929 . S
H1089 C1098 0.930 . S
H1090 C1100 0.930 . S
H1091 C1103 0.929 . S
H1092 C1106 0.930 . S
H1093 C1108 0.960 . S
H1094 C1108 0.960 . S
H1095 C1108 0.960 . S
C1096 H1088 0.929 . S
C1096 C1097 1.377 1_655 S
C1096 C1098 1.384 . S
C1097 C1096 1.377 1_455 S
C1097 C1103 1.390 . S
C1098 H1089 0.930 . S
C1098 C1096 1.384 . S
C1098 C1099 1.372 1_655 S
C1099 C1098 1.372 1_455 S
C1099 C1100 1.400 . S
C1099 C1104 1.490 . S
C1100 H1090 0.930 . S
C1100 C1099 1.400 . S
C1100 C1103 1.386 . S
H1101 C1117 0.930 . S
H1102 C1118 0.931 . S
C1103 H1091 0.929 . S
C1103 C1097 1.390 . S
C1103 C1100 1.386 . S
C1104 C1099 1.490 . S
C1104 C1106 1.395 1_454 S
C1104 C1107 1.403 . S
H1105 C1111 0.930 . S
C1106 H1092 0.930 . S
C1106 C1104 1.395 1_656 S
C1106 C1109 1.403 . S
C1107 C1104 1.403 . S
C1107 C1108 1.524 . S
C1107 C1111 1.400 . S
C1108 H1093 0.960 . S
C1108 H1094 0.960 . S
C1108 H1095 0.960 . S
C1108 C1107 1.524 . S
C1109 C1106 1.403 . S
C1109 C1110 1.392 . S
C1109 C1113 1.495 . S
C1110 C1109 1.392 . S
C1110 C1111 1.385 1_656 S
C1110 C1112 1.478 . S
C1111 H1105 0.930 . S
C1111 C1107 1.400 . S
C1111 C1110 1.385 1_454 S
C1112 C1110 1.478 . S
C1112 C1114 1.381 . S
C1112 C1118 1.383 1_655 S
C1113 C1109 1.495 . S
C1113 H1119 0.959 . S
C1113 H1120 0.961 . S
C1113 H1121 0.960 . S
C1114 C1112 1.381 . S
C1114 C1115 1.394 . S
C1114 H1122 0.930 . S
C1115 C1114 1.394 . S
C1115 C1116 1.383 . S
C1115 H1123 0.929 . S
C1116 C1115 1.383 . S
C1116 C1117 1.377 1_655 S
C1117 H1101 0.930 . S
C1117 C1116 1.377 1_455 S
C1117 C1118 1.379 . S
C1118 H1102 0.931 . S
C1118 C1112 1.383 1_455 S
C1118 C1117 1.379 . S
H1119 C1113 0.959 . S
H1120 C1113 0.961 . S
H1121 C1113 0.960 . S
H1122 C1114 0.930 . S
H1123 C1115 0.929 . S
H1124 C1132 0.929 . S
H1125 C1134 0.930 . S
H1126 C1136 0.930 . S
H1127 C1139 0.929 . S
H1128 C1142 0.930 . S
H1129 C1144 0.960 . S
H1130 C1144 0.960 . S
H1131 C1144 0.960 1_545 S
C1132 H1124 0.929 . S
C1132 C1133 1.377 . S
C1132 C1134 1.384 . S
C1133 C1132 1.377 . S
C1133 C1139 1.390 1_565 S
C1134 H1125 0.930 . S
C1134 C1132 1.384 . S
C1134 C1135 1.372 . S
C1135 C1134 1.372 . S
C1135 C1136 1.400 1_565 S
C1135 C1140 1.490 . S
C1136 H1126 0.930 . S
C1136 C1135 1.400 1_545 S
C1136 C1139 1.386 . S
H1137 C1153 0.930 . S
H1138 C1154 0.931 . S
C1139 H1127 0.929 . S
C1139 C1133 1.390 1_545 S
C1139 C1136 1.386 . S
C1140 C1135 1.490 . S
C1140 C1142 1.395 1_556 S
C1140 C1143 1.403 1_455 S
H1141 C1147 0.930 . S
C1142 H1128 0.930 . S
C1142 C1140 1.395 1_554 S
C1142 C1145 1.403 1_565 S
C1143 C1140 1.403 1_655 S
C1143 C1144 1.524 . S
C1143 C1147 1.403 . S
C1144 H1129 0.960 . S
C1144 H1130 0.960 . S
C1144 H1131 0.960 1_565 S
C1144 C1143 1.524 . S
C1145 C1142 1.403 1_545 S
C1145 C1146 1.392 1_455 S
C1145 C1149 1.495 . S
C1146 C1145 1.392 1_655 S
C1146 C1147 1.383 1_544 S
C1146 C1148 1.478 . S
C1147 H1141 0.930 . S
C1147 C1143 1.403 . S
C1147 C1146 1.383 1_566 S
C1148 C1146 1.478 . S
C1148 C1150 1.381 1_545 S
C1148 C1154 1.383 . S
C1149 C1145 1.495 . S
C1149 H1155 0.959 . S
C1149 H1156 0.961 . S
C1149 H1157 0.960 1_545 S
C1150 C1148 1.381 1_565 S
C1150 C1151 1.394 . S
C1150 H1158 0.930 . S
C1151 C1150 1.394 . S
C1151 C1152 1.383 1_565 S
C1151 H1159 0.929 . S
C1152 C1151 1.383 1_545 S
C1152 C1153 1.377 . S
C1153 H1137 0.930 . S
C1153 C1152 1.377 . S
C1153 C1154 1.379 . S
C1154 H1138 0.931 . S
C1154 C1148 1.383 . S
C1154 C1153 1.379 . S
H1155 C1149 0.959 . S
H1156 C1149 0.961 . S
H1157 C1149 0.960 1_565 S
H1158 C1150 0.930 . S
H1159 C1151 0.929 . S
H1160 C1168 0.929 . S
H1161 C1170 0.930 . S
H1162 C1172 0.930 . S
H1163 C1175 0.929 . S
H1164 C1178 0.930 . S
H1165 C1180 0.950 1_545 S
H1166 C1180 0.959 1_545 S
H1167 C1180 0.970 . S
C1168 H1160 0.929 . S
C1168 C1169 1.377 . S
C1168 C1170 1.384 . S
C1169 C1168 1.377 . S
C1169 C1175 1.390 . S
C1170 H1161 0.930 . S
C1170 C1168 1.384 . S
C1170 C1171 1.372 . S
C1171 C1170 1.372 . S
C1171 C1172 1.400 . S
C1171 C1176 1.490 . S
C1172 H1162 0.930 . S
C1172 C1171 1.400 . S
C1172 C1175 1.386 . S
H1173 C1189 0.930 . S
H1174 C1190 0.931 . S
C1175 H1163 0.929 . S
C1175 C1169 1.390 . S
C1175 C1172 1.386 . S
C1176 C1171 1.490 . S
C1176 C1178 1.395 . S
C1176 C1179 1.403 . S
H1177 C1183 0.930 . S
C1178 H1164 0.930 . S
C1178 C1176 1.395 . S
C1178 C1181 1.378 1_564 S
C1179 C1176 1.403 . S
C1179 C1180 1.524 . S
C1179 C1183 1.400 1_564 S
C1180 H1165 0.950 1_565 S
C1180 H1166 0.959 1_565 S
C1180 H1167 0.970 . S
C1180 C1179 1.524 . S
C1181 C1178 1.378 1_546 S
C1181 C1182 1.417 . S
C1181 C1185 1.495 . S
C1182 C1181 1.417 . S
C1182 C1183 1.385 . S
C1182 C1184 1.478 . S
C1183 H1177 0.930 . S
C1183 C1179 1.400 1_546 S
C1183 C1182 1.385 . S
C1184 C1182 1.478 . S
C1184 C1186 1.381 . S
C1184 C1190 1.383 . S
C1185 C1181 1.495 . S
C1185 H1191 0.930 1_545 S
C1185 H1192 0.961 . S
C1185 H1193 0.990 . S
C1186 C1184 1.381 . S
C1186 C1187 1.394 . S
C1186 H1194 0.930 . S
C1187 C1186 1.394 . S
C1187 C1188 1.383 . S
C1187 H1195 0.929 . S
C1188 C1187 1.383 . S
C1188 C1189 1.377 . S
C1189 H1173 0.930 . S
C1189 C1188 1.377 . S
C1189 C1190 1.379 . S
C1190 H1174 0.931 . S
C1190 C1184 1.383 . S
C1190 C1189 1.379 . S
H1191 C1185 0.930 1_565 S
H1192 C1185 0.961 . S
H1193 C1185 0.990 . S
H1194 C1186 0.930 . S
H1195 C1187 0.929 . S
H1196 C1204 0.929 . S
H1197 C1206 0.930 . S
H1198 C1208 0.930 . S
H1199 C1211 0.929 . S
H1200 C1214 0.930 . S
H1201 C1216 0.960 . S
H1202 C1216 0.960 . S
H1203 C1216 0.960 . S
C1204 H1196 0.929 . S
C1204 C1205 1.377 . S
C1204 C1206 1.384 . S
C1205 C1204 1.377 . S
C1205 C1211 1.390 . S
C1206 H1197 0.930 . S
C1206 C1204 1.384 . S
C1206 C1207 1.372 . S
C1207 C1206 1.372 . S
C1207 C1208 1.400 . S
C1207 C1212 1.490 . S
C1208 H1198 0.930 . S
C1208 C1207 1.400 . S
C1208 C1211 1.386 . S
H1209 C1225 0.930 . S
H1210 C1226 0.931 . S
C1211 H1199 0.929 . S
C1211 C1205 1.390 . S
C1211 C1208 1.386 . S
C1212 C1207 1.490 . S
C1212 C1214 1.395 . S
C1212 C1215 1.403 1_556 S
H1213 C1219 0.930 . S
C1214 H1200 0.930 . S
C1214 C1212 1.395 . S
C1214 C1217 1.403 . S
C1215 C1212 1.403 1_554 S
C1215 C1216 1.524 . S
C1215 C1219 1.400 . S
C1216 H1201 0.960 . S
C1216 H1202 0.960 . S
C1216 H1203 0.960 . S
C1216 C1215 1.524 . S
C1217 C1214 1.403 . S
C1217 C1218 1.392 1_556 S
C1217 C1221 1.495 . S
C1218 C1217 1.392 1_554 S
C1218 C1219 1.385 . S
C1218 C1220 1.478 . S
C1219 H1213 0.930 . S
C1219 C1215 1.400 . S
C1219 C1218 1.385 . S
C1220 C1218 1.478 . S
C1220 C1222 1.381 . S
C1220 C1226 1.383 . S
C1221 C1217 1.495 . S
C1221 H1227 0.959 . S
C1221 H1228 0.961 . S
C1221 H1229 0.960 . S
C1222 C1220 1.381 . S
C1222 C1223 1.394 . S
C1222 H1230 0.930 . S
C1223 C1222 1.394 . S
C1223 C1224 1.383 . S
C1223 H1231 0.929 . S
C1224 C1223 1.383 . S
C1224 C1225 1.377 . S
C1225 H1209 0.930 . S
C1225 C1224 1.377 . S
C1225 C1226 1.379 . S
C1226 H1210 0.931 . S
C1226 C1220 1.383 . S
C1226 C1225 1.379 . S
H1227 C1221 0.959 . S
H1228 C1221 0.961 . S
H1229 C1221 0.960 . S
H1230 C1222 0.930 . S
H1231 C1223 0.929 . S
H1232 C1240 0.929 . S
H1233 C1242 0.930 . S
H1234 C1244 0.930 . S
H1235 C1247 0.929 . S
H1236 C1250 0.931 . S
H1237 C1252 0.960 . S
H1238 C1252 0.960 . S
H1239 C1252 0.960 . S
C1240 H1232 0.929 . S
C1240 C1241 1.377 . S
C1240 C1242 1.384 . S
C1241 C1240 1.377 . S
C1241 C1247 1.390 1_455 S
C1242 H1233 0.930 . S
C1242 C1240 1.384 . S
C1242 C1243 1.372 . S
C1243 C1242 1.372 . S
C1243 C1244 1.400 1_455 S
C1243 C1248 1.490 . S
C1244 H1234 0.930 . S
C1244 C1243 1.400 1_655 S
C1244 C1247 1.386 . S
H1245 C1261 0.930 . S
H1246 C1262 0.931 . S
C1247 H1235 0.929 . S
C1247 C1241 1.390 1_655 S
C1247 C1244 1.386 . S
C1248 C1243 1.490 . S
C1248 C1250 1.395 1_565 S
C1248 C1251 1.403 1_455 S
H1249 C1255 0.930 . S
C1250 H1236 0.931 . S
C1250 C1248 1.395 1_545 S
C1250 C1253 1.403 . S
C1251 C1248 1.403 1_655 S
C1251 C1252 1.524 . S
C1251 C1255 1.400 1_565 S
C1252 H1237 0.960 . S
C1252 H1238 0.960 . S
C1252 H1239 0.960 . S
C1252 C1251 1.524 . S
C1253 C1250 1.403 . S
C1253 C1254 1.401 . S
C1253 C1257 1.495 . S
C1254 C1253 1.401 . S
C1254 C1255 1.378 1_455 S
C1254 C1256 1.476 1_455 S
C1255 H1249 0.930 . S
C1255 C1251 1.400 1_545 S
C1255 C1254 1.378 1_655 S
C1256 C1254 1.476 1_655 S
C1256 C1258 1.381 1_655 S
C1256 C1262 1.383 . S
C1257 C1253 1.495 . S
C1257 H1263 0.959 . S
C1257 H1264 0.961 . S
C1257 H1265 0.960 . S
C1258 C1256 1.381 1_455 S
C1258 C1259 1.394 . S
C1258 H1266 0.930 . S
C1259 C1258 1.394 . S
C1259 C1260 1.383 1_455 S
C1259 H1267 0.929 . S
C1260 C1259 1.383 1_655 S
C1260 C1261 1.377 . S
C1261 H1245 0.930 . S
C1261 C1260 1.377 . S
C1261 C1262 1.379 . S
C1262 H1246 0.931 . S
C1262 C1256 1.383 . S
C1262 C1261 1.379 . S
H1263 C1257 0.959 . S
H1264 C1257 0.961 . S
H1265 C1257 0.960 . S
H1266 C1258 0.930 . S
H1267 C1259 0.929 . S
H1268 C1276 0.929 . S
H1269 C1278 0.930 . S
H1270 C1280 0.930 . S
H1271 C1283 0.929 . S
H1272 C1286 0.930 . S
H1273 C1288 0.960 . S
H1274 C1288 0.960 1_545 S
H1275 C1288 0.960 . S
C1276 H1268 0.929 . S
C1276 C1277 1.377 . S
C1276 C1278 1.384 . S
C1277 C1276 1.377 . S
C1277 C1283 1.390 1_545 S
C1278 H1269 0.930 . S
C1278 C1276 1.384 . S
C1278 C1279 1.372 . S
C1279 C1278 1.372 . S
C1279 C1280 1.400 1_545 S
C1279 C1284 1.490 . S
C1280 H1270 0.930 . S
C1280 C1279 1.400 1_565 S
C1280 C1283 1.386 . S
H1281 C1297 0.930 . S
H1282 C1298 0.931 . S
C1283 H1271 0.929 . S
C1283 C1277 1.390 1_565 S
C1283 C1280 1.386 . S
C1284 C1279 1.490 . S
C1284 C1286 1.395 . S
C1284 C1287 1.402 1_545 S
H1285 C1291 0.930 . S
C1286 H1272 0.930 . S
C1286 C1284 1.395 . S
C1286 C1289 1.403 . S
C1287 C1284 1.402 1_565 S
C1287 C1288 1.524 . S
C1287 C1291 1.400 . S
C1288 H1273 0.960 . S
C1288 H1274 0.960 1_565 S
C1288 H1275 0.960 . S
C1288 C1287 1.524 . S
C1289 C1286 1.403 . S
C1289 C1290 1.392 1_545 S
C1289 C1293 1.495 . S
C1290 C1289 1.392 1_565 S
C1290 C1291 1.385 . S
C1290 C1292 1.478 . S
C1291 H1285 0.930 . S
C1291 C1287 1.400 . S
C1291 C1290 1.385 . S
C1292 C1290 1.478 . S
C1292 C1294 1.381 1_565 S
C1292 C1298 1.383 . S
C1293 C1289 1.495 . S
C1293 H1299 0.959 . S
C1293 H1300 0.961 1_545 S
C1293 H1301 0.960 . S
C1294 C1292 1.381 1_545 S
C1294 C1295 1.394 . S
C1294 H1302 0.930 . S
C1295 C1294 1.394 . S
C1295 C1296 1.383 1_545 S
C1295 H1303 0.929 . S
C1296 C1295 1.383 1_565 S
C1296 C1297 1.377 . S
C1297 H1281 0.930 . S
C1297 C1296 1.377 . S
C1297 C1298 1.379 . S
C1298 H1282 0.931 . S
C1298 C1292 1.383 . S
C1298 C1297 1.379 . S
H1299 C1293 0.959 . S
H1300 C1293 0.961 1_565 S
H1301 C1293 0.960 . S
H1302 C1294 0.930 . S
H1303 C1295 0.929 . S
H1304 C1312 0.929 . S
H1305 C1314 0.930 . S
H1306 C1316 0.930 . S
H1307 C1319 0.929 . S
H1308 C1322 0.930 . S
H1309 C1324 0.960 . S
H1310 C1324 0.960 . S
H1311 C1324 0.960 . S
C1312 H1304 0.929 . S
C1312 C1313 1.377 . S
C1312 C1314 1.384 . S
C1313 C1312 1.377 . S
C1313 C1319 1.390 . S
C1314 H1305 0.930 . S
C1314 C1312 1.384 . S
C1314 C1315 1.372 . S
C1315 C1314 1.372 . S
C1315 C1316 1.400 . S
C1315 C1320 1.490 . S
C1316 H1306 0.930 . S
C1316 C1315 1.400 . S
C1316 C1319 1.386 . S
H1317 C1333 0.930 . S
H1318 C1334 0.931 . S
C1319 H1307 0.929 . S
C1319 C1313 1.390 . S
C1319 C1316 1.386 . S
C1320 C1315 1.490 . S
C1320 C1322 1.395 . S
C1320 C1323 1.403 . S
H1321 C1327 0.930 . S
C1322 H1308 0.930 . S
C1322 C1320 1.395 . S
C1322 C1325 1.403 . S
C1323 C1320 1.403 . S
C1323 C1324 1.524 . S
C1323 C1327 1.400 . S
C1324 H1309 0.960 . S
C1324 H1310 0.960 . S
C1324 H1311 0.960 . S
C1324 C1323 1.524 . S
C1325 C1322 1.403 . S
C1325 C1326 1.392 . S
C1325 C1329 1.495 . S
C1326 C1325 1.392 . S
C1326 C1327 1.385 . S
C1326 C1328 1.478 . S
C1327 H1321 0.930 . S
C1327 C1323 1.400 . S
C1327 C1326 1.385 . S
C1328 C1326 1.478 . S
C1328 C1330 1.381 . S
C1328 C1334 1.383 . S
C1329 C1325 1.495 . S
C1329 H1335 0.959 . S
C1329 H1336 0.961 . S
C1329 H1337 0.960 . S
C1330 C1328 1.381 . S
C1330 C1331 1.394 . S
C1330 H1338 0.930 . S
C1331 C1330 1.394 . S
C1331 C1332 1.383 . S
C1331 H1339 0.929 . S
C1332 C1331 1.383 . S
C1332 C1333 1.377 . S
C1333 H1317 0.930 . S
C1333 C1332 1.377 . S
C1333 C1334 1.379 . S
C1334 H1318 0.931 . S
C1334 C1328 1.383 . S
C1334 C1333 1.379 . S
H1335 C1329 0.959 . S
H1336 C1329 0.961 . S
H1337 C1329 0.960 . S
H1338 C1330 0.930 . S
H1339 C1331 0.929 . S
H1340 C1348 0.929 . S
H1341 C1350 0.930 . S
H1342 C1352 0.930 . S
H1343 C1355 0.929 . S
H1344 C1358 0.930 . S
H1345 C1360 0.960 . S
H1346 C1360 0.960 . S
H1347 C1360 0.960 . S
C1348 H1340 0.929 . S
C1348 C1349 1.377 . S
C1348 C1350 1.384 . S
C1349 C1348 1.377 . S
C1349 C1355 1.390 . S
C1350 H1341 0.930 . S
C1350 C1348 1.384 . S
C1350 C1351 1.372 . S
C1351 C1350 1.372 . S
C1351 C1352 1.400 . S
C1351 C1356 1.490 . S
C1352 H1342 0.930 . S
C1352 C1351 1.400 . S
C1352 C1355 1.386 . S
H1353 C1369 0.930 . S
H1354 C1370 0.931 . S
C1355 H1343 0.929 . S
C1355 C1349 1.390 . S
C1355 C1352 1.386 . S
C1356 C1351 1.490 . S
C1356 C1358 1.395 1_655 S
C1356 C1359 1.403 . S
H1357 C1363 0.929 1_655 S
C1358 H1344 0.930 . S
C1358 C1356 1.395 1_455 S
C1358 C1361 1.403 . S
C1359 C1356 1.403 . S
C1359 C1360 1.524 . S
C1359 C1363 1.377 1_655 S
C1360 H1345 0.960 . S
C1360 H1346 0.960 . S
C1360 H1347 0.960 . S
C1360 C1359 1.524 . S
C1361 C1358 1.403 . S
C1361 C1362 1.392 . S
C1361 C1365 1.495 . S
C1362 C1361 1.392 . S
C1362 C1363 1.410 . S
C1362 C1364 1.478 . S
C1363 H1357 0.929 1_455 S
C1363 C1359 1.377 1_455 S
C1363 C1362 1.410 . S
C1364 C1362 1.478 . S
C1364 C1366 1.381 . S
C1364 C1370 1.383 . S
C1365 C1361 1.495 . S
C1365 H1371 0.959 . S
C1365 H1372 0.961 . S
C1365 H1373 0.960 . S
C1366 C1364 1.381 . S
C1366 C1367 1.394 . S
C1366 H1374 0.930 . S
C1367 C1366 1.394 . S
C1367 C1368 1.383 . S
C1367 H1375 0.929 . S
C1368 C1367 1.383 . S
C1368 C1369 1.377 . S
C1369 H1353 0.930 . S
C1369 C1368 1.377 . S
C1369 C1370 1.379 . S
C1370 H1354 0.931 . S
C1370 C1364 1.383 . S
C1370 C1369 1.379 . S
H1371 C1365 0.959 . S
H1372 C1365 0.961 . S
H1373 C1365 0.960 . S
H1374 C1366 0.930 . S
H1375 C1367 0.929 . S
C233 C3 1.660 . S
C252 C31 1.666 . S
C269 C17 1.658 . S
C288 C45 1.667 . S
C305 C59 1.658 . S
C324 C87 1.667 . S
C341 C101 1.655 . S
C360 C73 1.638 . S
C377 C115 1.656 . S
C396 C143 1.669 . S
C413 C157 1.654 . S
C432 C129 1.662 . S
C449 C199 1.656 . S
C468 C171 1.637 . S
C485 C213 1.654 . S
C504 C185 1.640 . S
C521 C105 1.028 . S
C540 C7 0.990 . S
C557 C21 1.026 . S
C576 C63 0.988 . S
C593 C77 1.035 . S
C612 C35 1.063 . S
C629 C49 1.037 . S
C648 C91 1.066 . S
C665 C217 1.025 . S
C684 C119 1.014 . S
C701 C133 1.031 . S
C720 C175 0.989 . S
C737 C147 1.033 . S
C756 C189 0.988 . S
C773 C203 1.034 . S
C792 C161 1.074 . S
C809 C9 0.660 . S
C828 C65 0.584 . S
C845 C23 0.687 . S
C864 C79 0.718 . S
C881 C93 0.670 . S
C900 C37 0.640 . S
C917 C51 0.688 . S
C936 C107 0.725 . S
C953 C177 0.682 . S
C972 C121 0.595 . S
C989 C191 0.695 . S
C1008 C135 0.587 . S
C1025 C149 0.687 . S
C1044 C205 0.746 . S
C1061 C163 0.700 . S
C1080 C219 0.652 . S
C1097 C8 1.706 . S
C1116 C120 1.687 . S
C1133 C134 1.706 . S
C1152 C22 1.687 . S
C1169 C36 1.705 . S
C1188 C148 1.690 . S
C1205 C162 1.713 . S
C1224 C50 1.715 . S
C1241 C64 1.712 . S
C1260 C176 1.724 . S
C1277 C78 1.709 . S
C1296 C190 1.723 . S
C1313 C204 1.706 . S
C1332 C92 1.688 . S
C1349 C106 1.710 . S
C1368 C218 1.723 . S
