# Generated by pormake.
# Topology une, (4)-cn, num edge types: 1
# Building blocks:
#     Node 0, Type 0, BuildingBlock: GALJAG_clean_sbu_0, # of connection points: 4
#     Node 1, Type 0, BuildingBlock: GALJAG_clean_sbu_0, # of connection points: 4
#     Node 2, Type 0, BuildingBlock: GALJAG_clean_sbu_0, # of connection points: 4
#     Node 3, Type 0, BuildingBlock: GALJAG_clean_sbu_0, # of connection points: 4
#     Node 4, Type 0, BuildingBlock: GALJAG_clean_sbu_0, # of connection points: 4
#     Node 5, Type 0, BuildingBlock: GALJAG_clean_sbu_0, # of connection points: 4
#     Node 6, Type 0, BuildingBlock: GALJAG_clean_sbu_0, # of connection points: 4
#     Node 7, Type 0, BuildingBlock: GALJAG_clean_sbu_0, # of connection points: 4
#     Node 8, Type 0, BuildingBlock: GALJAG_clean_sbu_0, # of connection points: 4
#     Node 9, Type 0, BuildingBlock: GALJAG_clean_sbu_0, # of connection points: 4
#     Node 10, Type 0, BuildingBlock: GALJAG_clean_sbu_0, # of connection points: 4
#     Node 11, Type 0, BuildingBlock: GALJAG_clean_sbu_0, # of connection points: 4
#     Node 12, Type 0, BuildingBlock: GALJAG_clean_sbu_0, # of connection points: 4
#     Node 13, Type 0, BuildingBlock: GALJAG_clean_sbu_0, # of connection points: 4
#     Node 14, Type 0, BuildingBlock: GALJAG_clean_sbu_0, # of connection points: 4
#     Node 15, Type 0, BuildingBlock: GALJAG_clean_sbu_0, # of connection points: 4
#     Node 16, Type 0, BuildingBlock: GALJAG_clean_sbu_0, # of connection points: 4
#     Node 17, Type 0, BuildingBlock: GALJAG_clean_sbu_0, # of connection points: 4
#     Edge 18, Type (0, 0), BuildingBlock: XUDNAN_clean_linker_2, # of connection points: 2
#     Edge 19, Type (0, 0), BuildingBlock: XUDNAN_clean_linker_2, # of connection points: 2
#     Edge 20, Type (0, 0), BuildingBlock: XUDNAN_clean_linker_2, # of connection points: 2
#     Edge 21, Type (0, 0), BuildingBlock: XUDNAN_clean_linker_2, # of connection points: 2
#     Edge 22, Type (0, 0), BuildingBlock: XUDNAN_clean_linker_2, # of connection points: 2
#     Edge 23, Type (0, 0), BuildingBlock: XUDNAN_clean_linker_2, # of connection points: 2
#     Edge 24, Type (0, 0), BuildingBlock: XUDNAN_clean_linker_2, # of connection points: 2
#     Edge 25, Type (0, 0), BuildingBlock: XUDNAN_clean_linker_2, # of connection points: 2
#     Edge 26, Type (0, 0), BuildingBlock: XUDNAN_clean_linker_2, # of connection points: 2
#     Edge 27, Type (0, 0), BuildingBlock: XUDNAN_clean_linker_2, # of connection points: 2
#     Edge 28, Type (0, 0), BuildingBlock: XUDNAN_clean_linker_2, # of connection points: 2
#     Edge 29, Type (0, 0), BuildingBlock: XUDNAN_clean_linker_2, # of connection points: 2
#     Edge 30, Type (0, 0), BuildingBlock: XUDNAN_clean_linker_2, # of connection points: 2
#     Edge 31, Type (0, 0), BuildingBlock: XUDNAN_clean_linker_2, # of connection points: 2
#     Edge 32, Type (0, 0), BuildingBlock: XUDNAN_clean_linker_2, # of connection points: 2
#     Edge 33, Type (0, 0), BuildingBlock: XUDNAN_clean_linker_2, # of connection points: 2
#     Edge 34, Type (0, 0), BuildingBlock: XUDNAN_clean_linker_2, # of connection points: 2
#     Edge 35, Type (0, 0), BuildingBlock: XUDNAN_clean_linker_2, # of connection points: 2
#     Edge 36, Type (0, 0), BuildingBlock: XUDNAN_clean_linker_2, # of connection points: 2
#     Edge 37, Type (0, 0), BuildingBlock: XUDNAN_clean_linker_2, # of connection points: 2
#     Edge 38, Type (0, 0), BuildingBlock: XUDNAN_clean_linker_2, # of connection points: 2
#     Edge 39, Type (0, 0), BuildingBlock: XUDNAN_clean_linker_2, # of connection points: 2
#     Edge 40, Type (0, 0), BuildingBlock: XUDNAN_clean_linker_2, # of connection points: 2
#     Edge 41, Type (0, 0), BuildingBlock: XUDNAN_clean_linker_2, # of connection points: 2
#     Edge 42, Type (0, 0), BuildingBlock: XUDNAN_clean_linker_2, # of connection points: 2
#     Edge 43, Type (0, 0), BuildingBlock: XUDNAN_clean_linker_2, # of connection points: 2
#     Edge 44, Type (0, 0), BuildingBlock: XUDNAN_clean_linker_2, # of connection points: 2
#     Edge 45, Type (0, 0), BuildingBlock: XUDNAN_clean_linker_2, # of connection points: 2
#     Edge 46, Type (0, 0), BuildingBlock: XUDNAN_clean_linker_2, # of connection points: 2
#     Edge 47, Type (0, 0), BuildingBlock: XUDNAN_clean_linker_2, # of connection points: 2
#     Edge 48, Type (0, 0), BuildingBlock: XUDNAN_clean_linker_2, # of connection points: 2
#     Edge 49, Type (0, 0), BuildingBlock: XUDNAN_clean_linker_2, # of connection points: 2
#     Edge 50, Type (0, 0), BuildingBlock: XUDNAN_clean_linker_2, # of connection points: 2
#     Edge 51, Type (0, 0), BuildingBlock: XUDNAN_clean_linker_2, # of connection points: 2
#     Edge 52, Type (0, 0), BuildingBlock: XUDNAN_clean_linker_2, # of connection points: 2
#     Edge 53, Type (0, 0), BuildingBlock: XUDNAN_clean_linker_2, # of connection points: 2
# Relax obj value: 0.162
# Max RMSD: 0.139
# Mean RMSD: 0.139
data_MOF--net-une--node1-GALJAG_clean_sbu_0--edge1-XUDNAN_clean_linker_2
_symmetry_space_group_name_H-M    P1
_symmetry_Int_Tables_number       1
_symmetry_cell_setting            triclinic
loop_
_symmetry_equiv_pos_as_xyz
'x, y, z'
_cell_length_a     39.768525
_cell_length_b     39.752849
_cell_length_c     51.581235
_cell_angle_alpha  89.998527
_cell_angle_beta   89.979368
_cell_angle_gamma 120.0428
loop_
_atom_site_label
_atom_site_type_symbol
_atom_site_fract_x
_atom_site_fract_y
_atom_site_fract_z
_atom_type_partial_charge
In0 In 0.35657 0.06431 0.07583 0.0
O1 O 0.30855 0.06649 0.09816 0.0
O2 O 0.36568 0.09998 0.11328 0.0
C3 C 0.30471 0.98946 0.06593 0.0
C4 C 0.35907 0.11467 0.04016 0.0
C5 C 0.42126 0.05773 0.07315 0.0
O6 O 0.31355 0.00197 0.08886 0.0
O7 O 0.32121 0.01469 0.04849 0.0
O8 O 0.41086 0.07231 0.05547 0.0
O9 O 0.40102 0.04953 0.09355 0.0
C10 C 0.33015 0.09013 0.11526 0.0
O11 O 0.37934 0.12585 0.06056 0.0
O12 O 0.33802 0.07837 0.03775 0.0
In13 In 0.94811 0.31243 0.04533 0.0
O14 O 0.95806 0.29303 0.08476 0.0
O15 O 0.90386 0.28974 0.07929 0.0
C16 C 0.02355 0.33532 0.03894 0.0
C17 C 0.90148 0.24893 0.01736 0.0
C18 C 0.95002 0.37466 0.02205 0.0
O19 O 0.01258 0.35612 0.05058 0.0
O20 O 0.99651 0.30285 0.03114 0.0
O21 O 0.94109 0.34334 0.01058 0.0
O22 O 0.95567 0.37415 0.04615 0.0
C23 C 0.92482 0.28226 0.0938 0.0
O24 O 0.88911 0.26899 0.02846 0.0
O25 O 0.93737 0.26141 0.02004 0.0
In26 In 0.71465 0.63093 0.04768 0.0
O27 O 0.75657 0.62249 0.02231 0.0
O28 O 0.76115 0.67824 0.02253 0.0
C29 C 0.65219 0.57836 0.01994 0.0
C30 C 0.75025 0.62208 0.09015 0.0
C31 C 0.68887 0.68016 0.05843 0.0
O32 O 0.68301 0.60476 0.0099 0.0
O33 O 0.653 0.57694 0.04444 0.0
O34 O 0.67026 0.64488 0.06519 0.0
O35 O 0.7206 0.69043 0.04696 0.0
C36 C 0.77392 0.65702 0.01397 0.0
O37 O 0.74735 0.65171 0.08609 0.0
O38 O 0.73267 0.59527 0.07373 0.0
In39 In 0.62129 0.92567 0.97749 0.0
O40 O 0.64143 0.91957 0.93709 0.0
O41 O 0.58413 0.87793 0.94768 0.0
C42 C 0.6876 0.99389 0.97403 0.0
C43 C 0.62406 0.87366 0.00944 0.0
C44 C 0.57589 0.94831 0.00255 0.0
O45 O 0.65508 0.9906 0.96861 0.0
O46 O 0.6865 0.96293 0.98105 0.0
O47 O 0.59822 0.93906 0.01377 0.0
O48 O 0.57543 0.94549 0.97806 0.0
C49 C 0.61111 0.88852 0.93126 0.0
O50 O 0.5929 0.86778 0.99898 0.0
O51 O 0.65357 0.90593 0.00406 0.0
In52 In 0.08316 0.7104 0.93504 0.0
O53 O 0.14225 0.74882 0.95362 0.0
O54 O 0.0921 0.73513 0.97598 0.0
C55 C 0.06142 0.63493 0.94446 0.0
C56 C 0.12327 0.74857 0.89177 0.0
C57 C 0.01623 0.71174 0.9356 0.0
O58 O 0.07551 0.66103 0.96155 0.0
O59 O 0.0603 0.64716 0.92203 0.0
O60 O 0.01796 0.6823 0.92843 0.0
O61 O 0.04836 0.74077 0.94178 0.0
C62 C 0.12865 0.75309 0.97466 0.0
O63 O 0.09388 0.74958 0.89979 0.0
O64 O 0.13107 0.72622 0.90457 0.0
In65 In 0.31827 0.37073 0.93321 0.0
O66 O 0.28364 0.3299 0.90041 0.0
O67 O 0.29477 0.38778 0.89741 0.0
C68 C 0.32923 0.31214 0.94776 0.0
C69 C 0.26523 0.37606 0.96253 0.0
C70 C 0.39295 0.42769 0.94118 0.0
O71 O 0.33379 0.32394 0.92461 0.0
O72 O 0.31874 0.32954 0.96341 0.0
O73 O 0.36755 0.41393 0.95867 0.0
O74 O 0.38033 0.4145 0.91875 0.0
C75 C 0.27797 0.35385 0.88795 0.0
O76 O 0.29295 0.40538 0.95177 0.0
O77 O 0.26455 0.34441 0.95856 0.0
In78 In 0.01078 0.38392 0.41978 0.0
O79 O 0.96714 0.38302 0.44843 0.0
O80 O 0.02629 0.42044 0.45778 0.0
C81 C 0.95323 0.31191 0.40861 0.0
C82 C 0.02262 0.44101 0.3868 0.0
C83 C 0.06713 0.36672 0.40896 0.0
O84 O 0.97721 0.31858 0.42666 0.0
O85 O 0.95771 0.34167 0.39673 0.0
O86 O 0.05399 0.38071 0.39261 0.0
O87 O 0.05379 0.36375 0.43167 0.0
C88 C 0.99117 0.40814 0.46375 0.0
O89 O 0.04819 0.4447 0.40292 0.0
O90 O 0.99131 0.40883 0.38758 0.0
In91 In 0.60001 0.63363 0.3686 0.0
O92 O 0.53687 0.6147 0.36035 0.0
O93 O 0.56379 0.58928 0.33813 0.0
C94 C 0.62135 0.70223 0.34483 0.0
C95 C 0.57686 0.60315 0.41678 0.0
C96 C 0.66405 0.62747 0.36351 0.0
O97 O 0.61895 0.67289 0.3337 0.0
O98 O 0.61234 0.6973 0.36869 0.0
O99 O 0.66472 0.65628 0.37426 0.0
O100 O 0.63113 0.60165 0.3556 0.0
C101 C 0.53325 0.59047 0.34307 0.0
O102 O 0.56728 0.58349 0.39627 0.0
O103 O 0.59838 0.63944 0.41342 0.0
In104 In 0.36985 0.96217 0.38159 0.0
O105 O 0.4053 0.94788 0.35313 0.0
O106 O 0.41595 0.0057 0.35423 0.0
C107 C 0.29625 0.90272 0.37369 0.0
C108 C 0.41089 0.95843 0.42256 0.0
C109 C 0.35249 0.01932 0.38179 0.0
O110 O 0.32246 0.91437 0.35669 0.0
O111 O 0.30779 0.91907 0.39548 0.0
O112 O 0.36624 0.01168 0.40154 0.0
O113 O 0.34757 0.9982 0.36228 0.0
C114 C 0.42462 0.98205 0.34445 0.0
O115 O 0.40641 0.98714 0.41826 0.0
O116 O 0.39267 0.93037 0.4071 0.0
In117 In 0.27226 0.26067 0.29748 0.0
O118 O 0.30405 0.25052 0.26442 0.0
O119 O 0.24326 0.22723 0.25992 0.0
C120 C 0.32102 0.33765 0.30188 0.0
C121 C 0.29144 0.21702 0.32692 0.0
C122 C 0.20791 0.25855 0.31691 0.0
O123 O 0.31418 0.32066 0.28024 0.0
O124 O 0.30455 0.31586 0.32101 0.0
O125 O 0.22194 0.23871 0.32582 0.0
O126 O 0.22399 0.27681 0.29632 0.0
C127 C 0.27429 0.23038 0.25077 0.0
O128 O 0.26117 0.20292 0.3132 0.0
O129 O 0.31217 0.25359 0.3262 0.0
In130 In 0.73686 0.04112 0.2663 0.0
O131 O 0.74672 0.06766 0.22526 0.0
O132 O 0.79452 0.06902 0.24409 0.0
C133 C 0.66656 0.03599 0.26559 0.0
C134 C 0.77666 0.08563 0.30718 0.0
C135 C 0.71755 0.96662 0.27615 0.0
O136 O 0.67076 0.00704 0.26155 0.0
O137 O 0.69773 0.06751 0.26922 0.0
O138 O 0.71872 0.98964 0.29344 0.0
O139 O 0.72676 0.98132 0.25366 0.0
C140 C 0.78258 0.07934 0.22474 0.0
O141 O 0.78054 0.05764 0.29953 0.0
O142 O 0.75249 0.09069 0.29451 0.0
In143 In 0.97536 0.68295 0.27326 0.0
O144 O 0.93223 0.69748 0.29234 0.0
O145 O 0.92273 0.64001 0.29617 0.0
C146 C 0.03699 0.74459 0.2961 0.0
C147 C 0.94734 0.67676 0.22414 0.0
C148 C 0.99823 0.63107 0.28314 0.0
O149 O 0.00504 0.7234 0.30733 0.0
O150 O 0.03733 0.7366 0.27239 0.0
O151 O 0.02076 0.66366 0.27295 0.0
O152 O 0.96423 0.62445 0.2874 0.0
C153 C 0.91101 0.66351 0.30112 0.0
O154 O 0.95968 0.65546 0.23296 0.0
O155 O 0.95247 0.70393 0.23919 0.0
In156 In 0.68245 0.72943 0.74975 0.0
O157 O 0.67141 0.74273 0.70863 0.0
O158 O 0.6834 0.78504 0.73781 0.0
C159 C 0.748 0.72773 0.73695 0.0
C160 C 0.67245 0.74999 0.79832 0.0
C161 C 0.62004 0.6599 0.73919 0.0
O162 O 0.74039 0.75302 0.72883 0.0
O163 O 0.7245 0.70529 0.75385 0.0
O164 O 0.65301 0.66397 0.74389 0.0
O165 O 0.61852 0.69084 0.73993 0.0
C166 C 0.67588 0.77559 0.71428 0.0
O167 O 0.65127 0.71684 0.78868 0.0
O168 O 0.70139 0.77211 0.78447 0.0
In169 In 0.28512 0.98455 0.71314 0.0
O170 O 0.2942 0.95255 0.74623 0.0
O171 O 0.25107 0.9683 0.75204 0.0
C172 C 0.35946 0.00519 0.70485 0.0
C173 C 0.22952 0.92475 0.68642 0.0
C174 C 0.28806 0.04856 0.69213 0.0
O175 O 0.34994 0.02542 0.71859 0.0
O176 O 0.33146 0.97423 0.69586 0.0
O177 O 0.27592 0.01681 0.68041 0.0
O178 O 0.29624 0.04771 0.71577 0.0
C179 C 0.26763 0.95041 0.76062 0.0
O180 O 0.26512 0.93957 0.68091 0.0
O181 O 0.22204 0.94053 0.7051 0.0
In182 In 0.04911 0.31614 0.71123 0.0
O183 O 0.08338 0.33758 0.74884 0.0
O184 O 0.06061 0.27813 0.73985 0.0
C185 C 0.03059 0.37066 0.72301 0.0
C186 C 0.10624 0.33366 0.67668 0.0
C187 C 0.98542 0.26508 0.68404 0.0
O188 O 0.00611 0.33483 0.72462 0.0
O189 O 0.0641 0.37876 0.71573 0.0
O190 O 0.01537 0.29273 0.67394 0.0
O191 O 0.98744 0.26212 0.70839 0.0
C192 C 0.08134 0.306 0.75495 0.0
O193 O 0.09052 0.30245 0.68954 0.0
O194 O 0.09303 0.35608 0.68119 0.0
In195 In 0.9484 0.60008 0.64008 0.0
O196 O 0.92883 0.54448 0.66369 0.0
O197 O 0.98385 0.59357 0.67203 0.0
C198 C 0.89299 0.61937 0.64984 0.0
C199 C 0.94562 0.55755 0.59801 0.0
C200 C 0.00979 0.67252 0.63934 0.0
O201 O 0.89933 0.59808 0.66478 0.0
O202 O 0.91219 0.62814 0.62901 0.0
O203 O 0.9968 0.65261 0.6189 0.0
O204 O 0.99195 0.6558 0.65985 0.0
C205 C 0.95959 0.5586 0.67696 0.0
O206 O 0.97685 0.58237 0.60857 0.0
O207 O 0.91538 0.55505 0.60801 0.0
In208 In 0.41574 0.38119 0.60344 0.0
O209 O 0.42808 0.39909 0.5603 0.0
O210 O 0.47556 0.42257 0.58624 0.0
C211 C 0.34458 0.37356 0.59938 0.0
C212 C 0.44417 0.42714 0.64547 0.0
C213 C 0.40222 0.30829 0.61324 0.0
O214 O 0.37524 0.40492 0.59412 0.0
O215 O 0.34989 0.34603 0.6059 0.0
O216 O 0.41253 0.33409 0.63042 0.0
O217 O 0.40148 0.31999 0.59057 0.0
C218 C 0.46381 0.42257 0.56359 0.0
O219 O 0.462 0.41216 0.63459 0.0
O220 O 0.41186 0.41823 0.63549 0.0
In221 In 0.65325 0.03766 0.59867 0.0
O222 O 0.62957 0.07297 0.61843 0.0
O223 O 0.59668 0.01123 0.62085 0.0
C224 C 0.72742 0.09539 0.60759 0.0
C225 C 0.61601 0.02198 0.55221 0.0
C226 C 0.65937 0.97689 0.61531 0.0
O227 O 0.70292 0.07769 0.62515 0.0
O228 O 0.71437 0.0851 0.58486 0.0
O229 O 0.66975 0.99078 0.59279 0.0
O230 O 0.64589 0.99352 0.62917 0.0
C231 C 0.59944 0.0433 0.62676 0.0
O232 O 0.62747 0.0007 0.56243 0.0
O233 O 0.62585 0.05308 0.56445 0.0
H234 H 0.45162 0.05366 0.02651 0.0
H235 H 0.4538 0.03085 0.10857 0.0
H236 H 0.49462 0.00143 0.09925 0.0
H237 H 0.44128 0.96494 0.00474 0.0
H238 H 0.47113 0.98493 0.97628 0.0
H239 H 0.44552 0.00769 0.98947 0.0
H240 H 0.51007 0.07313 0.9933 0.0
H241 H 0.53585 0.05072 0.97978 0.0
H242 H 0.55027 0.07498 0.0107 0.0
H243 H 0.53241 0.97185 0.08073 0.0
H244 H 0.56571 0.94522 0.05477 0.0
H245 H 0.53674 0.98474 0.98426 0.0
C246 C 0.46144 0.04333 0.04262 0.0
C247 C 0.45 0.04505 0.06837 0.0
C248 C 0.4626 0.03025 0.08878 0.0
C249 C 0.48566 0.01338 0.08363 0.0
C250 C 0.49557 0.01128 0.05795 0.0
C251 C 0.48399 0.02597 0.03778 0.0
C252 C 0.49681 0.01823 0.0118 0.0
C253 C 0.46158 0.99241 0.99456 0.0
C254 C 0.52493 0.05655 0.99809 0.0
C255 C 0.51737 0.99674 0.02046 0.0
C256 C 0.51643 0.99324 0.04718 0.0
C257 C 0.53339 0.97453 0.05982 0.0
C258 C 0.55219 0.95942 0.04486 0.0
C259 C 0.55376 0.96276 0.01745 0.0
C260 C 0.53581 0.98148 0.00513 0.0
H261 H 0.98942 0.451 0.03854 0.0
H262 H 0.93158 0.37845 0.97178 0.0
H263 H 0.95408 0.43695 0.94469 0.0
H264 H 0.97047 0.53025 0.02157 0.0
H265 H 0.01721 0.56749 0.03315 0.0
H266 H 0.99401 0.51989 0.04771 0.0
H267 H 0.05527 0.51482 0.03814 0.0
H268 H 0.0784 0.5621 0.02316 0.0
H269 H 0.07303 0.52069 0.00533 0.0
H270 H 0.98652 0.50299 0.92397 0.0
H271 H 0.0221 0.5726 0.91205 0.0
H272 H 0.05908 0.60268 0.99198 0.0
C273 C 0.98072 0.44751 0.01838 0.0
C274 C 0.95849 0.41011 0.00733 0.0
C275 C 0.94839 0.40677 0.98072 0.0
C276 C 0.96117 0.43984 0.96512 0.0
C277 C 0.98404 0.47622 0.97636 0.0
C278 C 0.99335 0.48035 1.00244 0.0
C279 C 0.01924 0.52284 0.00943 0.0
C280 C 0.99901 0.53588 0.02913 0.0
C281 C 0.05883 0.53055 0.01962 0.0
C282 C 0.02327 0.5418 0.9832 0.0
C283 C 0.00279 0.51437 0.96438 0.0
C284 C 0.00249 0.52479 0.93858 0.0
C285 C 0.02298 0.56437 0.93194 0.0
C286 C 0.04347 0.59309 0.95101 0.0
C287 C 0.04383 0.58144 0.97691 0.0
H288 H 0.42507 0.45231 0.98917 0.0
H289 H 0.4551 0.46018 0.90765 0.0
H290 H 0.52491 0.49798 0.91917 0.0
H291 H 0.50159 0.54847 0.0077 0.0
H292 H 0.50918 0.53251 0.03873 0.0
H293 H 0.46195 0.50754 0.02377 0.0
H294 H 0.46224 0.44265 0.02708 0.0
H295 H 0.5097 0.46749 0.04175 0.0
H296 H 0.50168 0.43897 0.01284 0.0
H297 H 0.59141 0.53415 0.93985 0.0
H298 H 0.64947 0.5682 0.96765 0.0
H299 H 0.57593 0.53501 0.03591 0.0
C300 C 0.44627 0.46236 0.97366 0.0
C301 C 0.43462 0.45351 0.94744 0.0
C302 C 0.46334 0.46686 0.92781 0.0
C303 C 0.50303 0.48818 0.93421 0.0
C304 C 0.51347 0.49575 0.96031 0.0
C305 C 0.48589 0.48341 0.97971 0.0
C306 C 0.50466 0.49492 0.00627 0.0
C307 C 0.4937 0.52251 0.01992 0.0
C308 C 0.49393 0.45885 0.02296 0.0
C309 C 0.54725 0.51573 0.99886 0.0
C310 C 0.55167 0.51588 0.97224 0.0
C311 C 0.58824 0.5341 0.96069 0.0
C312 C 0.62106 0.55328 0.97667 0.0
C313 C 0.61726 0.554 0.00397 0.0
C314 C 0.5798 0.53446 0.01517 0.0
H315 H 0.10617 0.37819 0.36312 0.0
H316 H 0.08014 0.31481 0.4357 0.0
H317 H 0.1103 0.27779 0.41889 0.0
H318 H 0.08703 0.30027 0.32132 0.0
H319 H 0.12655 0.32853 0.29933 0.0
H320 H 0.10464 0.35148 0.31729 0.0
H321 H 0.17165 0.40149 0.33632 0.0
H322 H 0.19389 0.37924 0.31796 0.0
H323 H 0.20043 0.38446 0.3526 0.0
H324 H 0.13916 0.24468 0.39302 0.0
H325 H 0.17362 0.22443 0.3627 0.0
H326 H 0.18278 0.31068 0.30717 0.0
C327 C 0.10743 0.357 0.37565 0.0
C328 C 0.0909 0.34943 0.40078 0.0
C329 C 0.09296 0.32136 0.41652 0.0
C330 C 0.10971 0.29995 0.40703 0.0
C331 C 0.1246 0.30727 0.38186 0.0
C332 C 0.12439 0.33569 0.36658 0.0
C333 C 0.14282 0.33818 0.34035 0.0
C334 C 0.1135 0.32907 0.31827 0.0
C335 C 0.17937 0.37821 0.3366 0.0
C336 C 0.15307 0.30641 0.34312 0.0
C337 C 0.14196 0.28872 0.36714 0.0
C338 C 0.14821 0.2585 0.37424 0.0
C339 C 0.16758 0.247 0.35677 0.0
C340 C 0.18081 0.26583 0.33248 0.0
C341 C 0.17267 0.2954 0.32543 0.0
H342 H 0.63661 0.77414 0.36358 0.0
H343 H 0.6369 0.71399 0.29338 0.0
H344 H 0.66162 0.77462 0.26859 0.0
H345 H 0.60646 0.83727 0.33283 0.0
H346 H 0.63714 0.87871 0.35277 0.0
H347 H 0.61874 0.83028 0.36526 0.0
H348 H 0.68899 0.84614 0.37533 0.0
H349 H 0.7076 0.89455 0.36275 0.0
H350 H 0.72469 0.86371 0.34974 0.0
H351 H 0.68727 0.84154 0.25111 0.0
H352 H 0.7109 0.91089 0.24206 0.0
H353 H 0.69452 0.92885 0.32304 0.0
C354 C 0.64167 0.77376 0.34298 0.0
C355 C 0.63475 0.73918 0.33047 0.0
C356 C 0.64194 0.73999 0.30347 0.0
C357 C 0.65604 0.77436 0.28915 0.0
C358 C 0.6629 0.80795 0.302 0.0
C359 C 0.65588 0.80806 0.32826 0.0
C360 C 0.66607 0.8485 0.33717 0.0
C361 C 0.62995 0.84869 0.34762 0.0
C362 C 0.69879 0.86414 0.35745 0.0
C363 C 0.67991 0.87086 0.31184 0.0
C364 C 0.67783 0.84685 0.29182 0.0
C365 C 0.68901 0.86069 0.26661 0.0
C366 C 0.70246 0.90013 0.26165 0.0
C367 C 0.70464 0.92532 0.28178 0.0
C368 C 0.69329 0.91035 0.30722 0.0
H369 H 0.1136 0.78121 0.28022 0.0
H370 H 0.04 0.76863 0.34592 0.0
H371 H 0.09809 0.80626 0.3731 0.0
H372 H 0.18401 0.77019 0.31534 0.0
H373 H 0.22519 0.80584 0.29712 0.0
H374 H 0.17806 0.78007 0.28206 0.0
H375 H 0.18181 0.84525 0.27037 0.0
H376 H 0.22926 0.87123 0.28499 0.0
H377 H 0.19136 0.88038 0.29556 0.0
H378 H 0.16405 0.84219 0.39396 0.0
H379 H 0.23357 0.879 0.40588 0.0
H380 H 0.26472 0.86842 0.32688 0.0
C381 C 0.10976 0.78711 0.30016 0.0
C382 C 0.07218 0.77214 0.31088 0.0
C383 C 0.06844 0.77993 0.33722 0.0
C384 C 0.10129 0.80115 0.35287 0.0
C385 C 0.13786 0.81452 0.34196 0.0
C386 C 0.14236 0.80826 0.31614 0.0
C387 C 0.185 0.82532 0.30941 0.0
C388 C 0.19355 0.79345 0.30046 0.0
C389 C 0.19759 0.85746 0.28887 0.0
C390 C 0.20365 0.8419 0.33549 0.0
C391 C 0.17592 0.83522 0.35402 0.0
C392 C 0.18605 0.84772 0.37958 0.0
C393 C 0.22562 0.8684 0.38622 0.0
C394 C 0.25463 0.87646 0.3674 0.0
C395 C 0.24328 0.8625 0.34179 0.0
H396 H 0.84471 0.60194 0.69224 0.0
H397 H 0.89201 0.68049 0.62668 0.0
H398 H 0.86344 0.71868 0.64362 0.0
H399 H 0.75315 0.60326 0.69516 0.0
H400 H 0.75089 0.60068 0.73005 0.0
H401 H 0.77457 0.5792 0.71244 0.0
H402 H 0.83699 0.62019 0.73946 0.0
H403 H 0.81376 0.64238 0.75678 0.0
H404 H 0.85892 0.67235 0.74002 0.0
H405 H 0.83374 0.75086 0.66891 0.0
H406 H 0.79546 0.76919 0.69703 0.0
H407 H 0.76404 0.66842 0.74552 0.0
C408 C 0.84851 0.62683 0.68126 0.0
C409 C 0.87059 0.6382 0.65808 0.0
C410 C 0.87501 0.67102 0.64434 0.0
C411 C 0.85917 0.69312 0.65394 0.0
C412 C 0.83855 0.68181 0.67718 0.0
C413 C 0.83237 0.64897 0.69039 0.0
C414 C 0.80811 0.64275 0.71458 0.0
C415 C 0.76938 0.60419 0.71295 0.0
C416 C 0.83081 0.64453 0.73916 0.0
C417 C 0.8019 0.67741 0.71298 0.0
C418 C 0.82021 0.69978 0.69141 0.0
C419 C 0.81904 0.73342 0.68576 0.0
C420 C 0.7974 0.74375 0.702 0.0
C421 C 0.77675 0.72034 0.72356 0.0
C422 C 0.77976 0.68713 0.72936 0.0
H423 H 0.40262 0.27687 0.66068 0.0
H424 H 0.36328 0.24563 0.58124 0.0
H425 H 0.32724 0.17635 0.59373 0.0
H426 H 0.41507 0.19302 0.67363 0.0
H427 H 0.39884 0.18842 0.70674 0.0
H428 H 0.42249 0.23535 0.69128 0.0
H429 H 0.36332 0.24334 0.70233 0.0
H430 H 0.33916 0.19609 0.71737 0.0
H431 H 0.31559 0.20706 0.69157 0.0
H432 H 0.29235 0.11131 0.61511 0.0
H433 H 0.26797 0.05307 0.64253 0.0
H434 H 0.33107 0.12526 0.70834 0.0
C435 C 0.38695 0.25539 0.64583 0.0
C436 C 0.38585 0.26668 0.61992 0.0
C437 C 0.36482 0.2377 0.60112 0.0
C438 C 0.34399 0.19829 0.60808 0.0
C439 C 0.34473 0.18826 0.6339 0.0
C440 C 0.36624 0.21583 0.65241 0.0
C441 C 0.36244 0.19705 0.67874 0.0
C442 C 0.40207 0.20386 0.68814 0.0
C443 C 0.34403 0.21177 0.69867 0.0
C444 C 0.3352 0.15461 0.67216 0.0
C445 C 0.32511 0.1504 0.64622 0.0
C446 C 0.30025 0.11422 0.6354 0.0
C447 C 0.28637 0.08129 0.65123 0.0
C448 C 0.29751 0.0845 0.67763 0.0
C449 C 0.32168 0.12184 0.68833 0.0
H450 H 0.76057 0.1165 0.65563 0.0
H451 H 0.78726 0.13791 0.57363 0.0
H452 H 0.8564 0.18262 0.58444 0.0
H453 H 0.82679 0.214 0.67779 0.0
H454 H 0.83962 0.19803 0.70694 0.0
H455 H 0.7924 0.1685 0.69263 0.0
H456 H 0.80454 0.11032 0.69056 0.0
H457 H 0.85194 0.13976 0.70467 0.0
H458 H 0.847 0.11589 0.67404 0.0
H459 H 0.92248 0.22451 0.6043 0.0
H460 H 0.9806 0.26195 0.63143 0.0
H461 H 0.91115 0.21243 0.70075 0.0
C462 C 0.78088 0.13078 0.63991 0.0
C463 C 0.7685 0.12384 0.61373 0.0
C464 C 0.79606 0.14291 0.59378 0.0
C465 C 0.83537 0.16825 0.59976 0.0
C466 C 0.84661 0.17408 0.62577 0.0
C467 C 0.82015 0.15598 0.64553 0.0
C468 C 0.83972 0.16699 0.67188 0.0
C469 C 0.82368 0.18814 0.68827 0.0
C470 C 0.83555 0.1311 0.68612 0.0
C471 C 0.88147 0.19423 0.66391 0.0
C472 C 0.88474 0.19787 0.63721 0.0
C473 C 0.92023 0.22182 0.6252 0.0
C474 C 0.95311 0.24294 0.64081 0.0
C475 C 0.9505 0.24003 0.66823 0.0
C476 C 0.91416 0.215 0.67986 0.0
H477 H 0.37038 0.14601 0.15272 0.0
H478 H 0.25491 0.07208 0.12132 0.0
H479 H 0.2286 0.10159 0.15118 0.0
H480 H 0.33993 0.14276 0.21943 0.0
H481 H 0.37564 0.19272 0.22591 0.0
H482 H 0.3854 0.1656 0.20207 0.0
H483 H 0.39848 0.21838 0.16774 0.0
H484 H 0.38834 0.24544 0.19142 0.0
H485 H 0.36173 0.23119 0.16134 0.0
H486 H 0.2145 0.13955 0.18418 0.0
H487 H 0.21343 0.18071 0.21979 0.0
H488 H 0.33767 0.23006 0.22999 0.0
C489 C 0.33954 0.13587 0.15227 0.0
C490 C 0.31474 0.10664 0.13465 0.0
C491 C 0.27455 0.09434 0.13463 0.0
C492 C 0.25928 0.11103 0.15149 0.0
C493 C 0.28449 0.14007 0.16837 0.0
C494 C 0.32372 0.15224 0.16906 0.0
C495 C 0.34432 0.18374 0.18931 0.0
C496 C 0.36238 0.1704 0.21043 0.0
C497 C 0.37503 0.22195 0.17669 0.0
C498 C 0.31055 0.18724 0.19987 0.0
C499 C 0.27632 0.16192 0.18743 0.0
C500 C 0.24115 0.15954 0.19405 0.0
C501 C 0.24082 0.18314 0.21423 0.0
C502 C 0.27542 0.20877 0.22761 0.0
C503 C 0.31074 0.21102 0.22002 0.0
H504 H 0.84897 0.23755 0.11068 0.0
H505 H 0.96759 0.2686 0.12892 0.0
H506 H 0.94375 0.21905 0.16342 0.0
H507 H 0.81255 0.21742 0.17801 0.0
H508 H 0.76605 0.17718 0.16868 0.0
H509 H 0.79264 0.21692 0.14652 0.0
H510 H 0.78906 0.1682 0.11177 0.0
H511 H 0.7631 0.1284 0.13397 0.0
H512 H 0.80753 0.13614 0.11923 0.0
H513 H 0.90744 0.16354 0.19389 0.0
H514 H 0.86102 0.10995 0.22183 0.0
H515 H 0.76533 0.11415 0.18458 0.0
C516 C 0.86992 0.23455 0.12237 0.0
C517 C 0.91023 0.25721 0.11719 0.0
C518 C 0.93665 0.25181 0.1326 0.0
C519 C 0.92337 0.22356 0.15217 0.0
C520 C 0.8835 0.20085 0.15623 0.0
C521 C 0.85711 0.20633 0.14208 0.0
C522 C 0.81575 0.17738 0.15021 0.0
C523 C 0.79556 0.19849 0.16153 0.0
C524 C 0.7925 0.15097 0.12743 0.0
C525 C 0.82311 0.15471 0.17097 0.0
C526 C 0.86243 0.16869 0.17399 0.0
C527 C 0.87657 0.15247 0.19181 0.0
C528 C 0.84993 0.12184 0.2075 0.0
C529 C 0.80951 0.10768 0.20537 0.0
C530 C 0.79601 0.12408 0.18654 0.0
H531 H 0.90716 0.7111 0.2045 0.0
H532 H 0.93002 0.61658 0.19121 0.0
H533 H 0.88075 0.59121 0.15652 0.0
H534 H 0.80547 0.65681 0.19547 0.0
H535 H 0.80172 0.69464 0.1788 0.0
H536 H 0.84043 0.70712 0.20167 0.0
H537 H 0.8915 0.74733 0.16653 0.0
H538 H 0.85291 0.7356 0.1437 0.0
H539 H 0.89076 0.72485 0.13602 0.0
H540 H 0.82554 0.57323 0.12529 0.0
H541 H 0.77418 0.56877 0.09604 0.0
H542 H 0.78791 0.6755 0.12876 0.0
C543 C 0.90241 0.68556 0.1939 0.0
C544 C 0.92266 0.66595 0.20054 0.0
C545 C 0.91512 0.63228 0.18641 0.0
C546 C 0.88697 0.61747 0.16675 0.0
C547 C 0.86664 0.63672 0.16124 0.0
C548 C 0.87445 0.67043 0.17407 0.0
C549 C 0.84825 0.68534 0.16442 0.0
C550 C 0.82244 0.686 0.18641 0.0
C551 C 0.87229 0.72567 0.15192 0.0
C552 C 0.82436 0.65462 0.14436 0.0
C553 C 0.83522 0.62666 0.14297 0.0
C554 C 0.81696 0.5951 0.12609 0.0
C555 C 0.7876 0.59263 0.10968 0.0
C556 C 0.77691 0.62167 0.11013 0.0
C557 C 0.79529 0.65273 0.128 0.0
H558 H 0.66669 0.90591 0.8939 0.0
H559 H 0.55565 0.81304 0.92153 0.0
H560 H 0.56078 0.76726 0.89159 0.0
H561 H 0.65327 0.87364 0.82576 0.0
H562 H 0.70377 0.8881 0.82181 0.0
H563 H 0.68992 0.91374 0.84425 0.0
H564 H 0.72616 0.90032 0.88092 0.0
H565 H 0.73938 0.87388 0.85872 0.0
H566 H 0.71338 0.85092 0.88808 0.0
H567 H 0.58047 0.73053 0.86135 0.0
H568 H 0.60853 0.70698 0.82828 0.0
H569 H 0.70638 0.82386 0.81927 0.0
C570 C 0.64302 0.87613 0.89324 0.0
C571 C 0.61062 0.86309 0.91001 0.0
C572 C 0.58052 0.8238 0.90872 0.0
C573 C 0.58335 0.79751 0.89193 0.0
C574 C 0.61632 0.811 0.87636 0.0
C575 C 0.64527 0.84955 0.87646 0.0
C576 C 0.67772 0.85649 0.85783 0.0
C577 C 0.68137 0.88465 0.83612 0.0
C578 C 0.71645 0.87128 0.87226 0.0
C579 C 0.66274 0.81572 0.84746 0.0
C580 C 0.62741 0.78991 0.85858 0.0
C581 C 0.60796 0.75054 0.85237 0.0
C582 C 0.62433 0.73739 0.83367 0.0
C583 C 0.65975 0.76349 0.82119 0.0
C584 C 0.67947 0.80309 0.82859 0.0
H585 H 0.11148 0.79837 0.86102 0.0
H586 H 0.19453 0.76055 0.87721 0.0
H587 H 0.24141 0.81068 0.84733 0.0
H588 H 0.13533 0.81873 0.79229 0.0
H589 H 0.12865 0.86035 0.79222 0.0
H590 H 0.10148 0.82097 0.8145 0.0
H591 H 0.1276 0.86966 0.85278 0.0
H592 H 0.1554 0.90909 0.83065 0.0
H593 H 0.17931 0.89998 0.85715 0.0
H594 H 0.28009 0.86611 0.81713 0.0
H595 H 0.3058 0.91856 0.78464 0.0
H596 H 0.19779 0.92069 0.78701 0.0
C597 C 0.13936 0.80033 0.85803 0.0
C598 C 0.14932 0.77543 0.87144 0.0
C599 C 0.18614 0.77907 0.86706 0.0
C600 C 0.21307 0.80766 0.85025 0.0
C601 C 0.2027 0.83229 0.83782 0.0
C602 C 0.16654 0.82859 0.84115 0.0
C603 C 0.16262 0.85847 0.82505 0.0
C604 C 0.13009 0.83843 0.80481 0.0
C605 C 0.15583 0.88592 0.84246 0.0
C606 C 0.20233 0.87971 0.81227 0.0
C607 C 0.225 0.86421 0.8201 0.0
C608 C 0.26258 0.87841 0.81082 0.0
C609 C 0.277 0.90839 0.79243 0.0
C610 C 0.25396 0.92397 0.78337 0.0
C611 C 0.21634 0.90985 0.79385 0.0
H612 H 0.24616 0.39389 0.86429 0.0
H613 H 0.24566 0.28451 0.86263 0.0
H614 H 0.1937 0.2594 0.82974 0.0
H615 H 0.14347 0.35292 0.85823 0.0
H616 H 0.14638 0.39097 0.83769 0.0
H617 H 0.18477 0.40134 0.86041 0.0
H618 H 0.23534 0.42753 0.82319 0.0
H619 H 0.19719 0.41781 0.80044 0.0
H620 H 0.22812 0.39733 0.79529 0.0
H621 H 0.13993 0.24505 0.79798 0.0
H622 H 0.09222 0.24487 0.76708 0.0
H623 H 0.12729 0.36321 0.78938 0.0
C624 C 0.23555 0.36491 0.85668 0.0
C625 C 0.25018 0.34125 0.86596 0.0
C626 C 0.23506 0.30325 0.85577 0.0
C627 C 0.20539 0.28863 0.83713 0.0
C628 C 0.19093 0.31228 0.82884 0.0
C629 C 0.20573 0.34974 0.83807 0.0
C630 C 0.18476 0.36894 0.82602 0.0
C631 C 0.16359 0.37913 0.84683 0.0
C632 C 0.21304 0.40503 0.8103 0.0
C633 C 0.15611 0.33653 0.80852 0.0
C634 C 0.15993 0.30397 0.81057 0.0
C635 C 0.1367 0.27041 0.7962 0.0
C636 C 0.1095 0.27046 0.77881 0.0
C637 C 0.10585 0.3039 0.77587 0.0
C638 C 0.12917 0.33708 0.79127 0.0
H639 H 0.03538 0.4716 0.49558 0.0
H640 H 0.91699 0.3806 0.48001 0.0
H641 H 0.89275 0.40921 0.51207 0.0
H642 H 0.02201 0.47848 0.56544 0.0
H643 H 0.05315 0.53052 0.56619 0.0
H644 H 0.06155 0.50199 0.54269 0.0
H645 H 0.05739 0.54394 0.50579 0.0
H646 H 0.04852 0.57229 0.52915 0.0
H647 H 0.01468 0.54855 0.50301 0.0
H648 H 0.88049 0.44915 0.54405 0.0
H649 H 0.88178 0.49544 0.57658 0.0
H650 H 0.00769 0.56041 0.57242 0.0
C651 C 0.00445 0.4574 0.49925 0.0
C652 C 0.97813 0.42375 0.48527 0.0
C653 C 0.93779 0.40632 0.49045 0.0
C654 C 0.92365 0.42242 0.50861 0.0
C655 C 0.95014 0.45599 0.52163 0.0
C656 C 0.98972 0.47313 0.51745 0.0
C657 C 0.01171 0.50937 0.53399 0.0
C658 C 0.0387 0.5048 0.55322 0.0
C659 C 0.03441 0.54568 0.51696 0.0
C660 C 0.97829 0.50991 0.54791 0.0
C661 C 0.94303 0.47892 0.54037 0.0
C662 C 0.90796 0.47344 0.55022 0.0
C663 C 0.90894 0.49998 0.5686 0.0
C664 C 0.94474 0.53154 0.57705 0.0
C665 C 0.97981 0.53658 0.56635 0.0
H666 H 0.51326 0.53304 0.42726 0.0
H667 H 0.61377 0.62891 0.46375 0.0
H668 H 0.59715 0.59177 0.50501 0.0
H669 H 0.44943 0.50796 0.48347 0.0
H670 H 0.42523 0.45663 0.4766 0.0
H671 H 0.44517 0.49126 0.45049 0.0
H672 H 0.48538 0.45984 0.43554 0.0
H673 H 0.46609 0.42553 0.46186 0.0
H674 H 0.51789 0.45594 0.45809 0.0
H675 H 0.57158 0.54163 0.54127 0.0
H676 H 0.53438 0.48733 0.5716 0.0
H677 H 0.44834 0.42578 0.51183 0.0
C678 C 0.53158 0.5464 0.44403 0.0
C679 C 0.56489 0.58382 0.44238 0.0
C680 C 0.58801 0.60042 0.4647 0.0
C681 C 0.57892 0.57939 0.4881 0.0
C682 C 0.54631 0.54212 0.48887 0.0
C683 C 0.52255 0.52616 0.46754 0.0
C684 C 0.48865 0.48606 0.47351 0.0
C685 C 0.44983 0.48546 0.47087 0.0
C686 C 0.48958 0.45502 0.45622 0.0
C687 C 0.49718 0.4816 0.50152 0.0
C688 C 0.53083 0.51405 0.50993 0.0
C689 C 0.54505 0.51629 0.53493 0.0
C690 C 0.52383 0.48511 0.55196 0.0
C691 C 0.48844 0.45224 0.5441 0.0
C692 C 0.47529 0.45043 0.51841 0.0
H693 H 0.57618 0.05592 0.53138 0.0
H694 H 0.59279 0.95652 0.52339 0.0
H695 H 0.54118 0.92879 0.49027 0.0
H696 H 0.47331 0.00375 0.5254 0.0
H697 H 0.47041 0.0407 0.50692 0.0
H698 H 0.51006 0.0541 0.52914 0.0
H699 H 0.55962 0.08894 0.49213 0.0
H700 H 0.52012 0.07617 0.46988 0.0
H701 H 0.55621 0.06268 0.46283 0.0
H702 H 0.48534 0.90996 0.45961 0.0
H703 H 0.4333 0.90442 0.43063 0.0
H704 H 0.45298 0.01608 0.458 0.0
C705 C 0.56944 0.02868 0.5223 0.0
C706 C 0.58874 0.0085 0.52991 0.0
C707 C 0.57862 0.97264 0.51781 0.0
C708 C 0.54917 0.95653 0.49904 0.0
C709 C 0.53004 0.97661 0.49246 0.0
C710 C 0.54004 0.01213 0.50346 0.0
C711 C 0.51458 0.02747 0.49306 0.0
C712 C 0.49068 0.03175 0.51494 0.0
C713 C 0.5391 0.0661 0.47861 0.0
C714 C 0.48873 0.99502 0.47456 0.0
C715 C 0.49798 0.96585 0.47464 0.0
C716 C 0.47795 0.93271 0.4593 0.0
C717 C 0.44827 0.9297 0.443 0.0
C718 C 0.43895 0.95971 0.44207 0.0
C719 C 0.45928 0.99256 0.45833 0.0
H720 H 0.30355 0.95255 0.02165 0.0
H721 H 0.24484 0.93477 0.09547 0.0
H722 H 0.19591 0.86789 0.08197 0.0
H723 H 0.22248 0.90583 0.98297 0.0
H724 H 0.2421 0.88443 0.96128 0.0
H725 H 0.27422 0.92874 0.97802 0.0
H726 H 0.31176 0.89676 0.9972 0.0
H727 H 0.27969 0.85222 0.98043 0.0
H728 H 0.28572 0.8519 0.01504 0.0
H729 H 0.1487 0.80708 0.05745 0.0
H730 H 0.10956 0.756 0.02529 0.0
H731 H 0.20254 0.81269 0.96911 0.0
C732 C 0.28071 0.93433 0.03513 0.0
C733 C 0.2776 0.94859 0.05949 0.0
C734 C 0.24758 0.92409 0.07673 0.0
C735 C 0.2198 0.88618 0.06922 0.0
C736 C 0.22326 0.87321 0.04475 0.0
C737 C 0.25341 0.89641 0.02818 0.0
C738 C 0.24989 0.8766 1.00251 0.0
C739 C 0.24698 0.90031 0.97988 0.0
C740 C 0.28378 0.86891 0.99858 0.0
C741 C 0.21208 0.8392 0.00671 0.0
C742 C 0.19716 0.83759 0.03121 0.0
C743 C 0.16055 0.80756 0.03848 0.0
C744 C 0.13852 0.77878 0.02011 0.0
C745 C 0.15339 0.78025 0.99494 0.0
C746 C 0.19092 0.81037 0.98844 0.0
H747 H 0.05386 0.29174 0.02097 0.0
H748 H 0.08546 0.40924 0.04304 0.0
H749 H 0.15286 0.43254 0.02836 0.0
H750 H 0.14661 0.29844 0.03943 0.0
H751 H 0.14498 0.26889 0.01242 0.0
H752 H 0.10048 0.26143 0.02685 0.0
H753 H 0.07736 0.27114 0.98192 0.0
H754 H 0.12183 0.27893 0.9674 0.0
H755 H 0.10747 0.31512 0.96397 0.0
H756 H 0.21463 0.44366 0.00656 0.0
H757 H 0.26702 0.44091 0.98234 0.0
H758 H 0.19484 0.31565 0.97648 0.0
C759 C 0.07513 0.32227 0.02315 0.0
C760 C 0.06462 0.34874 0.03312 0.0
C761 C 0.09311 0.38848 0.03558 0.0
C762 C 0.13138 0.40196 0.02726 0.0
C763 C 0.1406 0.37516 0.01692 0.0
C764 C 0.11338 0.33606 0.01521 0.0
C765 C 0.13007 0.31338 1.00247 0.0
C766 C 0.13057 0.28379 0.02143 0.0
C767 C 0.10786 0.29349 0.97746 0.0
C768 C 0.17068 0.34596 0.99664 0.0
C769 C 0.17631 0.38141 0.0051 0.0
C770 C 0.2108 0.41598 1.00026 0.0
C771 C 0.24027 0.41419 0.98643 0.0
C772 C 0.235 0.37805 0.97781 0.0
C773 C 0.19988 0.34361 0.98321 0.0
H774 H 0.72777 0.75824 0.05095 0.0
H775 H 0.61422 0.6612 0.07008 0.0
H776 H 0.58592 0.70395 0.06586 0.0
H777 H 0.71409 0.83633 0.08238 0.0
H778 H 0.74091 0.8701 0.05677 0.0
H779 H 0.75304 0.83383 0.0663 0.0
H780 H 0.74417 0.80966 0.01876 0.0
H781 H 0.73166 0.84543 0.00915 0.0
H782 H 0.69869 0.79476 1.00253 0.0
H783 H 0.56852 0.75358 0.05123 0.0
H784 H 0.56416 0.80717 0.03014 0.0
H785 H 0.68953 0.87213 0.02219 0.0
C786 C 0.69719 0.74631 0.05509 0.0
C787 C 0.67315 0.70657 0.06091 0.0
C788 C 0.63317 0.69175 0.06585 0.0
C789 C 0.61687 0.7158 0.06349 0.0
C790 C 0.64117 0.75462 0.05667 0.0
C791 C 0.68063 0.76993 0.05301 0.0
C792 C 0.69985 0.81134 0.04328 0.0
C793 C 0.72867 0.83957 0.06339 0.0
C794 C 0.71973 0.8155 0.01687 0.0
C795 C 0.66477 0.81635 0.04076 0.0
C796 C 0.63121 0.78353 0.04882 0.0
C797 C 0.5947 0.77983 0.04555 0.0
C798 C 0.59247 0.81028 0.03346 0.0
C799 C 0.62656 0.84385 0.02487 0.0
C800 C 0.6631 0.84716 0.02913 0.0
H801 H 0.69737 0.06596 0.98246 0.0
H802 H 0.76 0.00527 0.96564 0.0
H803 H 0.82226 0.06705 0.96909 0.0
H804 H 0.76629 0.1605 0.95099 0.0
H805 H 0.76037 0.18812 0.97649 0.0
H806 H 0.72072 0.14072 0.96807 0.0
H807 H 0.71644 0.1186 0.01583 0.0
H808 H 0.75604 0.16575 0.02435 0.0
H809 H 0.75907 0.12291 0.0313 0.0
H810 H 0.87715 0.13318 0.97858 0.0
H811 H 0.92134 0.19846 0.99618 0.0
H812 H 0.82319 0.21575 0.00918 0.0
C813 C 0.72421 0.06604 0.97874 0.0
C814 C 0.72415 0.03122 0.97342 0.0
C815 C 0.75968 0.03188 0.96955 0.0
C816 C 0.79507 0.0668 0.97133 0.0
C817 C 0.79431 0.10061 0.97721 0.0
C818 C 0.75983 0.10054 0.98097 0.0
C819 C 0.76717 0.13979 0.99026 0.0
C820 C 0.75279 0.15838 0.97025 0.0
C821 C 0.74859 0.13654 0.01702 0.0
C822 C 0.81108 0.16155 0.99185 0.0
C823 C 0.82615 0.13866 0.9837 0.0
C824 C 0.86577 0.15158 0.98471 0.0
C825 C 0.89062 0.18866 0.99477 0.0
C826 C 0.87563 0.21209 0.00398 0.0
C827 C 0.83545 0.19857 1.00205 0.0
H828 H 0.80382 0.61576 0.99109 0.0
H829 H 0.82074 0.732 0.99815 0.0
H830 H 0.88132 0.75798 0.97271 0.0
H831 H 0.89877 0.64048 1.00047 0.0
H832 H 0.89913 0.60644 0.97755 0.0
H833 H 0.85438 0.59636 0.99276 0.0
H834 H 0.82284 0.58922 0.94761 0.0
H835 H 0.86765 0.5993 0.93222 0.0
H836 H 0.84573 0.62824 0.92442 0.0
H837 H 0.94444 0.77234 0.95296 0.0
H838 H 0.00463 0.77367 0.93911 0.0
H839 H 0.94524 0.64788 0.94298 0.0
C840 C 0.81982 0.64655 0.98675 0.0
C841 C 0.8077 0.67191 0.99651 0.0
C842 C 0.82952 0.71207 0.99072 0.0
C843 C 0.86386 0.72706 0.97623 0.0
C844 C 0.87553 0.70138 0.96736 0.0
C845 C 0.85394 0.66189 0.97215 0.0
C846 C 0.87441 0.64096 0.96237 0.0
C847 C 0.88213 0.61985 0.98461 0.0
C848 C 0.85128 0.61277 0.94034 0.0
C849 C 0.91169 0.67505 0.95238 0.0
C850 C 0.91163 0.70962 0.95519 0.0
C851 C 0.9445 0.74542 0.95001 0.0
C852 C 0.97853 0.74592 0.94223 0.0
C853 C 0.9792 0.71085 0.93963 0.0
C854 C 0.9451 0.67502 0.94411 0.0
H855 H 0.34988 0.30096 0.99585 0.0
H856 H 0.32327 0.25239 0.9183 0.0
H857 H 0.33146 0.19759 0.93298 0.0
H858 H 0.42463 0.27512 0.00904 0.0
H859 H 0.41156 0.26507 0.04277 0.0
H860 H 0.40448 0.30074 0.02589 0.0
H861 H 0.33172 0.26399 0.03886 0.0
H862 H 0.33855 0.22827 0.05577 0.0
H863 H 0.30211 0.21324 0.03082 0.0
H864 H 0.33626 0.14532 0.95731 0.0
H865 H 0.34259 0.10171 0.98869 0.0
H866 H 0.37174 0.18759 0.04926 0.0
C867 C 0.34597 0.27883 0.98197 0.0
C868 C 0.33569 0.28049 0.95604 0.0
C869 C 0.33119 0.25144 0.93826 0.0
C870 C 0.33576 0.22031 0.94642 0.0
C871 C 0.34567 0.21935 0.97223 0.0
C872 C 0.35131 0.24816 0.98963 0.0
C873 C 0.36193 0.24041 0.01624 0.0
C874 C 0.4031 0.27223 0.02393 0.0
C875 C 0.33177 0.23622 0.03661 0.0
C876 C 0.36027 0.20212 0.01131 0.0
C877 C 0.35069 0.19038 0.98583 0.0
C878 C 0.34453 0.15453 0.97717 0.0
C879 C 0.34807 0.12998 0.99508 0.0
C880 C 0.35822 0.14173 0.02116 0.0
C881 C 0.36488 0.17842 0.02925 0.0
H882 H 0.89299 0.29101 0.37513 0.0
H883 H 0.94914 0.24376 0.42301 0.0
H884 H 0.90566 0.17839 0.4049 0.0
H885 H 0.79378 0.2052 0.37884 0.0
H886 H 0.78328 0.21108 0.3457 0.0
H887 H 0.81597 0.253 0.36459 0.0
H888 H 0.86913 0.27227 0.32943 0.0
H889 H 0.8368 0.23037 0.31055 0.0
H890 H 0.88368 0.23777 0.31992 0.0
H891 H 0.86213 0.12038 0.37718 0.0
H892 H 0.81867 0.07334 0.34424 0.0
H893 H 0.78925 0.15832 0.31635 0.0
C894 C 0.89556 0.26675 0.38221 0.0
C895 C 0.92427 0.27228 0.40046 0.0
C896 C 0.92706 0.23998 0.40915 0.0
C897 C 0.90255 0.2028 0.39896 0.0
C898 C 0.87512 0.19848 0.38047 0.0
C899 C 0.87112 0.2295 0.37248 0.0
C900 C 0.84083 0.2177 0.35144 0.0
C901 C 0.80642 0.22199 0.36071 0.0
C902 C 0.8587 0.2409 0.32636 0.0
C903 C 0.82924 0.17546 0.34824 0.0
C904 C 0.84924 0.16482 0.36516 0.0
C905 C 0.84567 0.12811 0.36423 0.0
C906 C 0.8211 0.10168 0.34544 0.0
C907 C 0.80036 0.11215 0.32806 0.0
C908 C 0.80416 0.1493 0.32977 0.0
H909 H 0.88213 0.70934 0.31846 0.0
H910 H 0.85622 0.58966 0.31404 0.0
H911 H 0.79173 0.5677 0.33323 0.0
H912 H 0.83039 0.69853 0.38053 0.0
H913 H 0.8136 0.73101 0.37038 0.0
H914 H 0.85912 0.73768 0.35838 0.0
H915 H 0.83529 0.73427 0.31118 0.0
H916 H 0.78974 0.72748 0.32301 0.0
H917 H 0.79035 0.69257 0.301 0.0
H918 H 0.72759 0.55809 0.34738 0.0
H919 H 0.6692 0.56203 0.35868 0.0
H920 H 0.73771 0.68784 0.3568 0.0
C921 C 0.8631 0.6786 0.32196 0.0
C922 C 0.87407 0.65118 0.31477 0.0
C923 C 0.8484 0.61116 0.31949 0.0
C924 C 0.81172 0.59839 0.3304 0.0
C925 C 0.80146 0.62607 0.33685 0.0
C926 C 0.82654 0.66537 0.33316 0.0
C927 C 0.80769 0.68888 0.34082 0.0
C928 C 0.82897 0.7156 0.36391 0.0
C929 C 0.80564 0.71215 0.31762 0.0
C930 C 0.76773 0.65655 0.34857 0.0
C931 C 0.76477 0.62053 0.34615 0.0
C932 C 0.72973 0.58612 0.34994 0.0
C933 C 0.69676 0.5886 0.35624 0.0
C934 C 0.69932 0.62519 0.35896 0.0
C935 C 0.73533 0.65953 0.35546 0.0
H936 H 0.26673 0.14112 0.31768 0.0
H937 H 0.34202 0.23719 0.36783 0.0
H938 H 0.36191 0.19484 0.39048 0.0
H939 H 0.23677 0.0626 0.36457 0.0
H940 H 0.23846 0.03004 0.34097 0.0
H941 H 0.22726 0.06673 0.33089 0.0
H942 H 0.28392 0.09324 0.29776 0.0
H943 H 0.29522 0.05665 0.30768 0.0
H944 H 0.33217 0.10724 0.30884 0.0
H945 H 0.37454 0.14167 0.40664 0.0
H946 H 0.38378 0.0848 0.41199 0.0
H947 H 0.30321 0.02634 0.34892 0.0
C948 C 0.28687 0.15306 0.33374 0.0
C949 C 0.30251 0.19213 0.34133 0.0
C950 C 0.32959 0.20714 0.36192 0.0
C951 C 0.34087 0.1833 0.37492 0.0
C952 C 0.32503 0.14482 0.36681 0.0
C953 C 0.2989 0.13 0.3465 0.0
C954 C 0.28867 0.08896 0.33986 0.0
C955 C 0.24521 0.0604 0.34435 0.0
C956 C 0.30074 0.0864 0.31189 0.0
C957 C 0.31343 0.083 0.35943 0.0
C958 C 0.33367 0.11517 0.37515 0.0
C959 C 0.35877 0.11631 0.39447 0.0
C960 C 0.36375 0.08394 0.39742 0.0
C961 C 0.34428 0.05147 0.38079 0.0
C962 C 0.31852 0.05092 0.36184 0.0
H963 H 0.51874 0.53608 0.30581 0.0
H964 H 0.46195 0.57797 0.35778 0.0
H965 H 0.39855 0.52078 0.3473 0.0
H966 H 0.43593 0.48855 0.25706 0.0
H967 H 0.44522 0.44904 0.25213 0.0
H968 H 0.48478 0.49701 0.25949 0.0
H969 H 0.5038 0.46887 0.29844 0.0
H970 H 0.46412 0.42107 0.29152 0.0
H971 H 0.46818 0.4421 0.32314 0.0
H972 H 0.34513 0.45368 0.33934 0.0
H973 H 0.30329 0.38356 0.33041 0.0
H974 H 0.39277 0.38579 0.28132 0.0
C975 C 0.49277 0.53394 0.3142 0.0
C976 C 0.49515 0.56143 0.33254 0.0
C977 C 0.46071 0.55739 0.34351 0.0
C978 C 0.42457 0.52499 0.33767 0.0
C979 C 0.42338 0.49739 0.32046 0.0
C980 C 0.45645 0.50193 0.30839 0.0
C981 C 0.44782 0.46624 0.2927 0.0
C982 C 0.45378 0.47579 0.26362 0.0
C983 C 0.47243 0.44855 0.30203 0.0
C984 C 0.40525 0.44008 0.29905 0.0
C985 C 0.39169 0.45877 0.31495 0.0
C986 C 0.35493 0.43912 0.32621 0.0
C987 C 0.33153 0.39935 0.32121 0.0
C988 C 0.34481 0.37989 0.30487 0.0
C989 C 0.38173 0.40057 0.29323 0.0
H990 H 0.59847 0.97105 0.27833 0.0
H991 H 0.64934 0.0941 0.26226 0.0
H992 H 0.58783 0.09084 0.27483 0.0
H993 H 0.4955 0.94052 0.25971 0.0
H994 H 0.47626 0.90646 0.28621 0.0
H995 H 0.52114 0.91658 0.2709 0.0
H996 H 0.55562 0.93507 0.31553 0.0
H997 H 0.51109 0.92536 0.33093 0.0
H998 H 0.55414 0.97226 0.33468 0.0
H999 H 0.52529 0.07668 0.29479 0.0
H1000 H 0.46639 0.05306 0.32162 0.0
H1001 H 0.45642 0.93941 0.32614 0.0
C1002 C 0.59608 0.99692 0.27654 0.0
C1003 C 0.62828 0.03271 0.26898 0.0
C1004 C 0.62475 0.06635 0.26777 0.0
C1005 C 0.58993 0.06472 0.27478 0.0
C1006 C 0.55905 0.02925 0.28301 0.0
C1007 C 0.5617 0.99589 0.28385 0.0
C1008 C 0.52622 0.96274 0.29658 0.0
C1009 C 0.50343 0.92962 0.27719 0.0
C1010 C 0.53746 0.94803 0.32087 0.0
C1011 C 0.50391 0.98308 0.30364 0.0
C1012 C 0.52302 0.02121 0.29518 0.0
C1013 C 0.50968 0.0467 0.30111 0.0
C1014 C 0.47628 0.03305 0.31643 0.0
C1015 C 0.45681 0.99438 0.32581 0.0
C1016 C 0.47042 0.96894 0.31888 0.0
H1017 H 0.95276 0.55568 0.29736 0.0
H1018 H 0.073 0.64733 0.29094 0.0
H1019 H 0.09362 0.60603 0.31399 0.0
H1020 H 0.95731 0.52841 0.35949 0.0
H1021 H 0.92535 0.477 0.35486 0.0
H1022 H 0.9206 0.51116 0.33458 0.0
H1023 H 0.92907 0.4786 0.29348 0.0
H1024 H 0.93328 0.44385 0.31363 0.0
H1025 H 0.97095 0.4726 0.29057 0.0
H1026 H 0.09961 0.55859 0.34363 0.0
H1027 H 0.09102 0.50631 0.37376 0.0
H1028 H 0.96699 0.44551 0.35903 0.0
C1029 C 0.98351 0.56663 0.30016 0.0
C1030 C 0.01134 0.60452 0.29238 0.0
C1031 C 0.05129 0.61813 0.29656 0.0
C1032 C 0.06322 0.59495 0.3097 0.0
C1033 C 0.03483 0.55814 0.31802 0.0
C1034 C 0.99584 0.54381 0.31295 0.0
C1035 C 0.9708 0.50445 0.32527 0.0
C1036 C 0.94184 0.50535 0.3447 0.0
C1037 C 0.9498 0.47302 0.3045 0.0
C1038 C 0.00161 0.49943 0.3389 0.0
C1039 C 0.03839 0.53057 0.33447 0.0
C1040 C 0.07105 0.53367 0.34678 0.0
C1041 C 0.06589 0.50404 0.36396 0.0
C1042 C 0.02842 0.47186 0.36848 0.0
C1043 C 0.99607 0.46951 0.3556 0.0
H1044 H 0.5173 0.45857 0.66576 0.0
H1045 H 0.4103 0.46221 0.6714 0.0
H1046 H 0.44216 0.51798 0.70124 0.0
H1047 H 0.5513 0.49103 0.73419 0.0
H1048 H 0.60119 0.51933 0.72386 0.0
H1049 H 0.56814 0.47555 0.70669 0.0
H1050 H 0.58469 0.5146 0.66379 0.0
H1051 H 0.6174 0.55844 0.68079 0.0
H1052 H 0.57838 0.5564 0.6618 0.0
H1053 H 0.48783 0.57923 0.72391 0.0
H1054 H 0.54378 0.64007 0.74004 0.0
H1055 H 0.62081 0.59594 0.72096 0.0
C1056 C 0.50027 0.47034 0.67396 0.0
C1057 C 0.46135 0.45607 0.6664 0.0
C1058 C 0.44013 0.47264 0.67706 0.0
C1059 C 0.45795 0.50426 0.69406 0.0
C1060 C 0.4968 0.51859 0.70042 0.0
C1061 C 0.51761 0.50187 0.691 0.0
C1062 C 0.55992 0.52508 0.69883 0.0
C1063 C 0.57077 0.50133 0.71698 0.0
C1064 C 0.58664 0.53948 0.67488 0.0
C1065 C 0.55997 0.55835 0.71311 0.0
C1066 C 0.52319 0.55384 0.71404 0.0
C1067 C 0.5166 0.58267 0.72391 0.0
C1068 C 0.54851 0.61716 0.73288 0.0
C1069 C 0.58636 0.62233 0.73197 0.0
C1070 C 0.59199 0.59227 0.7224 0.0
H1071 H 0.52685 0.98399 0.63736 0.0
H1072 H 0.6036 0.10748 0.64975 0.0
H1073 H 0.55165 0.11037 0.67445 0.0
H1074 H 0.44247 0.9895 0.62592 0.0
H1075 H 0.41022 0.94404 0.64166 0.0
H1076 H 0.45451 0.95142 0.62709 0.0
H1077 H 0.47503 0.93497 0.67087 0.0
H1078 H 0.43078 0.92765 0.68561 0.0
H1079 H 0.47707 0.96182 0.69956 0.0
H1080 H 0.49024 0.09962 0.69664 0.0
H1081 H 0.42318 0.07729 0.71167 0.0
H1082 H 0.38705 0.96152 0.68291 0.0
C1083 C 0.53292 0.01158 0.64554 0.0
C1084 C 0.5692 0.04548 0.64188 0.0
C1085 C 0.5759 0.08117 0.65245 0.0
C1086 C 0.54669 0.08303 0.66657 0.0
C1087 C 0.51108 0.04897 0.66974 0.0
C1088 C 0.50408 0.01399 0.65936 0.0
C1089 C 0.4627 0.98211 0.66395 0.0
C1090 C 0.44122 0.96584 0.63812 0.0
C1091 C 0.46134 0.94973 0.68102 0.0
C1092 C 0.44723 0.00468 0.67824 0.0
C1093 C 0.47564 0.04305 0.68177 0.0
C1094 C 0.46781 0.0696 0.69408 0.0
C1095 C 0.42974 0.05666 0.70259 0.0
C1096 C 0.4001 0.01774 0.69839 0.0
C1097 C 0.40918 0.99144 0.68638 0.0
H1098 H 0.96263 0.36745 0.71055 0.0
H1099 H 0.07701 0.44286 0.74257 0.0
H1100 H 0.06425 0.4976 0.74257 0.0
H1101 H 0.9679 0.43187 0.66597 0.0
H1102 H 0.91764 0.41937 0.66688 0.0
H1103 H 0.93089 0.38393 0.6759 0.0
H1104 H 0.89735 0.37492 0.72048 0.0
H1105 H 0.88378 0.41037 0.71152 0.0
H1106 H 0.91089 0.41662 0.74087 0.0
H1107 H 0.04456 0.54572 0.73218 0.0
H1108 H 0.02128 0.58489 0.70973 0.0
H1109 H 0.92047 0.47948 0.68231 0.0
C1110 C 0.98417 0.39513 0.71861 0.0
C1111 C 0.02043 0.40104 0.72707 0.0
C1112 C 0.04886 0.43789 0.73635 0.0
C1113 C 0.04176 0.469 0.73655 0.0
C1114 C 0.0062 0.46275 0.72719 0.0
C1115 C 0.97782 0.42671 0.71834 0.0
C1116 C 0.94511 0.42926 0.70516 0.0
C1117 C 0.94014 0.41531 0.67681 0.0
C1118 C 0.90703 0.40644 0.72043 0.0
C1119 C 0.96051 0.4726 0.70679 0.0
C1120 C 0.99522 0.49116 0.72025 0.0
C1121 C 0.017 0.53149 0.7221 0.0
C1122 C 0.00361 0.55351 0.70921 0.0
C1123 C 0.969 0.53514 0.69443 0.0
C1124 C 0.94661 0.49419 0.69392 0.0
H1125 H 0.15737 0.87403 0.70455 0.0
H1126 H 0.23365 0.89715 0.63863 0.0
H1127 H 0.18324 0.83692 0.61747 0.0
H1128 H 0.12292 0.77377 0.70668 0.0
H1129 H 0.07436 0.76062 0.71651 0.0
H1130 H 0.11451 0.80756 0.72492 0.0
H1131 H 0.0804 0.84095 0.70269 0.0
H1132 H 0.04002 0.79406 0.69424 0.0
H1133 H 0.06526 0.82983 0.66934 0.0
H1134 H 0.12492 0.77277 0.60439 0.0
H1135 H 0.06564 0.70783 0.60189 0.0
H1136 H 0.03034 0.726 0.67775 0.0
C1137 C 0.16315 0.86679 0.68544 0.0
C1138 C 0.19904 0.89029 0.673 0.0
C1139 C 0.2061 0.87948 0.64834 0.0
C1140 C 0.17766 0.84547 0.63618 0.0
C1141 C 0.14263 0.82262 0.64912 0.0
C1142 C 0.13545 0.83274 0.67329 0.0
C1143 C 0.09693 0.80179 0.6841 0.0
C1144 C 0.10254 0.78495 0.70955 0.0
C1145 C 0.06901 0.81761 0.6878 0.0
C1146 C 0.08368 0.77242 0.66237 0.0
C1147 C 0.11005 0.78513 0.64216 0.0
C1148 C 0.10403 0.76256 0.62007 0.0
C1149 C 0.07036 0.72583 0.6188 0.0
C1150 C 0.04369 0.71203 0.63967 0.0
C1151 C 0.05038 0.73582 0.66156 0.0
H1152 H 0.13968 0.29013 0.66511 0.0
H1153 H 0.14603 0.39996 0.64778 0.0
H1154 H 0.2036 0.41863 0.62021 0.0
H1155 H 0.23788 0.32684 0.67263 0.0
H1156 H 0.23896 0.28601 0.65835 0.0
H1157 H 0.1952 0.27919 0.67335 0.0
H1158 H 0.15727 0.24937 0.63073 0.0
H1159 H 0.2011 0.25623 0.61554 0.0
H1160 H 0.17401 0.27651 0.60092 0.0
H1161 H 0.26504 0.42857 0.59935 0.0
H1162 H 0.32577 0.42937 0.58768 0.0
H1163 H 0.27807 0.3125 0.61809 0.0
C1164 C 0.15267 0.31778 0.65505 0.0
C1165 C 0.13842 0.34359 0.65846 0.0
C1166 C 0.15646 0.37972 0.64531 0.0
C1167 C 0.18904 0.39046 0.62953 0.0
C1168 C 0.20284 0.36458 0.62695 0.0
C1169 C 0.18505 0.32886 0.63926 0.0
C1170 C 0.20747 0.3078 0.63533 0.0
C1171 C 0.22066 0.29951 0.66146 0.0
C1172 C 0.18353 0.27025 0.61969 0.0
C1173 C 0.24148 0.33785 0.61974 0.0
C1174 C 0.23807 0.37018 0.61475 0.0
C1175 C 0.26768 0.40311 0.60267 0.0
C1176 C 0.30203 0.40331 0.59612 0.0
C1177 C 0.3064 0.37087 0.60181 0.0
C1178 C 0.27527 0.33743 0.61308 0.0
H1179 H 0.66801 0.83885 0.72333 0.0
H1180 H 0.67773 0.77017 0.66153 0.0
H1181 H 0.67515 0.81464 0.62904 0.0
H1182 H 0.59969 0.85845 0.69054 0.0
H1183 H 0.62032 0.90693 0.70347 0.0
H1184 H 0.62358 0.86998 0.72164 0.0
H1185 H 0.69846 0.91387 0.72381 0.0
H1186 H 0.69545 0.95091 0.7056 0.0
H1187 H 0.72575 0.93221 0.69419 0.0
H1188 H 0.674 0.8684 0.60351 0.0
H1189 H 0.66953 0.9245 0.58685 0.0
H1190 H 0.65716 0.95521 0.66557 0.0
C1191 C 0.66961 0.83319 0.70295 0.0
C1192 C 0.67326 0.8013 0.69485 0.0
C1193 C 0.6749 0.79452 0.66806 0.0
C1194 C 0.67356 0.81964 0.64951 0.0
C1195 C 0.67014 0.851 0.65815 0.0
C1196 C 0.66778 0.85758 0.68424 0.0
C1197 C 0.66329 0.89275 0.68849 0.0
C1198 C 0.6244 0.88133 0.70182 0.0
C1199 C 0.6978 0.92429 0.70393 0.0
C1200 C 0.66375 0.90512 0.66073 0.0
C1201 C 0.66805 0.88093 0.64349 0.0
C1202 C 0.67033 0.88737 0.61681 0.0
C1203 C 0.66788 0.91927 0.60754 0.0
C1204 C 0.66275 0.94386 0.62494 0.0
C1205 C 0.66069 0.9366 0.65182 0.0
loop_
_geom_bond_atom_site_label_1
_geom_bond_atom_site_label_2
_geom_bond_distance
_geom_bond_site_symmetry_2
_ccdc_geom_bond_type
In0 O1 2.294 . S
In0 O2 2.326 . S
In0 O6 2.266 . S
In0 O7 2.326 . S
In0 O8 2.266 . S
In0 O9 2.326 . S
In0 O11 2.294 . S
In0 O12 2.326 . S
O1 In0 2.294 . S
O1 C10 1.240 . S
O2 In0 2.326 . S
O2 C10 1.252 . S
C3 O6 1.249 1_565 S
C3 O7 1.255 1_565 S
C4 O11 1.240 . S
C4 O12 1.252 . S
C5 O8 1.252 . S
C5 O9 1.260 . S
O6 In0 2.266 . S
O6 C3 1.249 1_545 S
O7 In0 2.326 . S
O7 C3 1.255 1_545 S
O8 In0 2.266 . S
O8 C5 1.252 . S
O9 In0 2.326 . S
O9 C5 1.260 . S
C10 O1 1.240 . S
C10 O2 1.252 . S
O11 In0 2.294 . S
O11 C4 1.240 . S
O12 In0 2.326 . S
O12 C4 1.252 . S
In13 O14 2.294 . S
In13 O15 2.326 . S
In13 O19 2.266 . S
In13 O20 2.326 . S
In13 O21 2.266 . S
In13 O22 2.326 . S
In13 O24 2.294 . S
In13 O25 2.326 . S
O14 In13 2.294 . S
O14 C23 1.240 . S
O15 In13 2.326 . S
O15 C23 1.252 . S
C16 O19 1.251 1_455 S
C16 O20 1.251 1_455 S
C17 O24 1.240 . S
C17 O25 1.252 . S
C18 O21 1.252 . S
C18 O22 1.260 . S
O19 In13 2.266 . S
O19 C16 1.251 1_655 S
O20 In13 2.326 . S
O20 C16 1.251 1_655 S
O21 In13 2.266 . S
O21 C18 1.252 . S
O22 In13 2.326 . S
O22 C18 1.260 . S
C23 O14 1.240 . S
C23 O15 1.252 . S
O24 In13 2.294 . S
O24 C17 1.240 . S
O25 In13 2.326 . S
O25 C17 1.252 . S
In26 O27 2.294 . S
In26 O28 2.326 . S
In26 O32 2.266 . S
In26 O33 2.326 . S
In26 O34 2.266 . S
In26 O35 2.326 . S
In26 O37 2.294 . S
In26 O38 2.326 . S
O27 In26 2.294 . S
O27 C36 1.240 . S
O28 In26 2.326 . S
O28 C36 1.252 . S
C29 O32 1.252 . S
C29 O33 1.260 . S
C30 O37 1.240 . S
C30 O38 1.252 . S
C31 O34 1.252 . S
C31 O35 1.260 . S
O32 In26 2.266 . S
O32 C29 1.252 . S
O33 In26 2.326 . S
O33 C29 1.260 . S
O34 In26 2.266 . S
O34 C31 1.252 . S
O35 In26 2.326 . S
O35 C31 1.260 . S
C36 O27 1.240 . S
C36 O28 1.252 . S
O37 In26 2.294 . S
O37 C30 1.240 . S
O38 In26 2.326 . S
O38 C30 1.252 . S
In39 O40 2.294 . S
In39 O41 2.326 . S
In39 O45 2.266 . S
In39 O46 2.326 . S
In39 O47 2.266 . S
In39 O48 2.326 . S
In39 O50 2.294 . S
In39 O51 2.326 . S
O40 In39 2.294 . S
O40 C49 1.240 . S
O41 In39 2.326 . S
O41 C49 1.252 . S
C42 O45 1.249 1_545 S
C42 O46 1.255 1_545 S
C43 O50 1.240 . S
C43 O51 1.252 . S
C44 O47 1.252 . S
C44 O48 1.260 . S
O45 In39 2.266 . S
O45 C42 1.249 1_565 S
O46 In39 2.326 . S
O46 C42 1.255 1_565 S
O47 In39 2.266 . S
O47 C44 1.252 . S
O48 In39 2.326 . S
O48 C44 1.260 . S
C49 O40 1.240 . S
C49 O41 1.252 . S
O50 In39 2.294 . S
O50 C43 1.240 . S
O51 In39 2.326 . S
O51 C43 1.252 . S
In52 O53 2.294 . S
In52 O54 2.326 . S
In52 O58 2.266 . S
In52 O59 2.326 . S
In52 O60 2.266 . S
In52 O61 2.326 . S
In52 O63 2.294 . S
In52 O64 2.326 . S
O53 In52 2.294 . S
O53 C62 1.240 . S
O54 In52 2.326 . S
O54 C62 1.252 . S
C55 O58 1.252 . S
C55 O59 1.260 . S
C56 O63 1.240 . S
C56 O64 1.252 . S
C57 O60 1.251 1_655 S
C57 O61 1.251 1_655 S
O58 In52 2.266 . S
O58 C55 1.252 . S
O59 In52 2.326 . S
O59 C55 1.260 . S
O60 In52 2.266 . S
O60 C57 1.251 1_455 S
O61 In52 2.326 . S
O61 C57 1.251 1_455 S
C62 O53 1.240 . S
C62 O54 1.252 . S
O63 In52 2.294 . S
O63 C56 1.240 . S
O64 In52 2.326 . S
O64 C56 1.252 . S
In65 O66 2.294 . S
In65 O67 2.326 . S
In65 O71 2.266 . S
In65 O72 2.326 . S
In65 O73 2.266 . S
In65 O74 2.326 . S
In65 O76 2.294 . S
In65 O77 2.326 . S
O66 In65 2.294 . S
O66 C75 1.240 . S
O67 In65 2.326 . S
O67 C75 1.252 . S
C68 O71 1.252 . S
C68 O72 1.260 . S
C69 O76 1.240 . S
C69 O77 1.252 . S
C70 O73 1.252 . S
C70 O74 1.260 . S
O71 In65 2.266 . S
O71 C68 1.252 . S
O72 In65 2.326 . S
O72 C68 1.260 . S
O73 In65 2.266 . S
O73 C70 1.252 . S
O74 In65 2.326 . S
O74 C70 1.260 . S
C75 O66 1.240 . S
C75 O67 1.252 . S
O76 In65 2.294 . S
O76 C69 1.240 . S
O77 In65 2.326 . S
O77 C69 1.252 . S
In78 O79 2.294 . S
In78 O80 2.326 . S
In78 O84 2.266 1_455 S
In78 O85 2.326 1_455 S
In78 O86 2.266 . S
In78 O87 2.326 . S
In78 O89 2.294 . S
In78 O90 2.326 1_455 S
O79 In78 2.294 . S
O79 C88 1.240 . S
O80 In78 2.326 . S
O80 C88 1.252 . S
C81 O84 1.252 . S
C81 O85 1.260 . S
C82 O89 1.240 . S
C82 O90 1.252 1_455 S
C83 O86 1.252 . S
C83 O87 1.260 . S
O84 In78 2.266 1_655 S
O84 C81 1.252 . S
O85 In78 2.326 1_655 S
O85 C81 1.260 . S
O86 In78 2.266 . S
O86 C83 1.252 . S
O87 In78 2.326 . S
O87 C83 1.260 . S
C88 O79 1.240 . S
C88 O80 1.252 . S
O89 In78 2.294 . S
O89 C82 1.240 . S
O90 In78 2.326 1_655 S
O90 C82 1.252 1_655 S
In91 O92 2.294 . S
In91 O93 2.326 . S
In91 O97 2.266 . S
In91 O98 2.326 . S
In91 O99 2.266 . S
In91 O100 2.326 . S
In91 O102 2.294 . S
In91 O103 2.326 . S
O92 In91 2.294 . S
O92 C101 1.240 . S
O93 In91 2.326 . S
O93 C101 1.252 . S
C94 O97 1.252 . S
C94 O98 1.260 . S
C95 O102 1.240 . S
C95 O103 1.252 . S
C96 O99 1.252 . S
C96 O100 1.260 . S
O97 In91 2.266 . S
O97 C94 1.252 . S
O98 In91 2.326 . S
O98 C94 1.260 . S
O99 In91 2.266 . S
O99 C96 1.252 . S
O100 In91 2.326 . S
O100 C96 1.260 . S
C101 O92 1.240 . S
C101 O93 1.252 . S
O102 In91 2.294 . S
O102 C95 1.240 . S
O103 In91 2.326 . S
O103 C95 1.252 . S
In104 O105 2.294 . S
In104 O106 2.326 1_565 S
In104 O110 2.266 . S
In104 O111 2.326 . S
In104 O112 2.266 1_565 S
In104 O113 2.326 1_565 S
In104 O115 2.294 . S
In104 O116 2.326 . S
O105 In104 2.294 . S
O105 C114 1.240 . S
O106 In104 2.326 1_545 S
O106 C114 1.252 1_545 S
C107 O110 1.252 . S
C107 O111 1.260 . S
C108 O115 1.240 . S
C108 O116 1.252 . S
C109 O112 1.252 . S
C109 O113 1.260 . S
O110 In104 2.266 . S
O110 C107 1.252 . S
O111 In104 2.326 . S
O111 C107 1.260 . S
O112 In104 2.266 1_545 S
O112 C109 1.252 . S
O113 In104 2.326 1_545 S
O113 C109 1.260 . S
C114 O105 1.240 . S
C114 O106 1.252 1_565 S
O115 In104 2.294 . S
O115 C108 1.240 . S
O116 In104 2.326 . S
O116 C108 1.252 . S
In117 O118 2.294 . S
In117 O119 2.326 . S
In117 O123 2.266 . S
In117 O124 2.326 . S
In117 O125 2.266 . S
In117 O126 2.326 . S
In117 O128 2.294 . S
In117 O129 2.326 . S
O118 In117 2.294 . S
O118 C127 1.240 . S
O119 In117 2.326 . S
O119 C127 1.252 . S
C120 O123 1.252 . S
C120 O124 1.260 . S
C121 O128 1.240 . S
C121 O129 1.252 . S
C122 O125 1.252 . S
C122 O126 1.260 . S
O123 In117 2.266 . S
O123 C120 1.252 . S
O124 In117 2.326 . S
O124 C120 1.260 . S
O125 In117 2.266 . S
O125 C122 1.252 . S
O126 In117 2.326 . S
O126 C122 1.260 . S
C127 O118 1.240 . S
C127 O119 1.252 . S
O128 In117 2.294 . S
O128 C121 1.240 . S
O129 In117 2.326 . S
O129 C121 1.252 . S
In130 O131 2.294 . S
In130 O132 2.326 . S
In130 O136 2.266 . S
In130 O137 2.326 . S
In130 O138 2.266 1_545 S
In130 O139 2.326 1_545 S
In130 O141 2.294 . S
In130 O142 2.326 . S
O131 In130 2.294 . S
O131 C140 1.240 . S
O132 In130 2.326 . S
O132 C140 1.252 . S
C133 O136 1.252 . S
C133 O137 1.260 . S
C134 O141 1.240 . S
C134 O142 1.252 . S
C135 O138 1.252 . S
C135 O139 1.260 . S
O136 In130 2.266 . S
O136 C133 1.252 . S
O137 In130 2.326 . S
O137 C133 1.260 . S
O138 In130 2.266 1_565 S
O138 C135 1.252 . S
O139 In130 2.326 1_565 S
O139 C135 1.260 . S
C140 O131 1.240 . S
C140 O132 1.252 . S
O141 In130 2.294 . S
O141 C134 1.240 . S
O142 In130 2.326 . S
O142 C134 1.252 . S
In143 O144 2.294 . S
In143 O145 2.326 . S
In143 O149 2.266 1_655 S
In143 O150 2.326 1_655 S
In143 O151 2.266 . S
In143 O152 2.326 . S
In143 O154 2.294 . S
In143 O155 2.326 . S
O144 In143 2.294 . S
O144 C153 1.240 . S
O145 In143 2.326 . S
O145 C153 1.252 . S
C146 O149 1.252 . S
C146 O150 1.260 . S
C147 O154 1.240 . S
C147 O155 1.252 . S
C148 O151 1.252 . S
C148 O152 1.260 . S
O149 In143 2.266 1_455 S
O149 C146 1.252 . S
O150 In143 2.326 1_455 S
O150 C146 1.260 . S
O151 In143 2.266 . S
O151 C148 1.252 . S
O152 In143 2.326 . S
O152 C148 1.260 . S
C153 O144 1.240 . S
C153 O145 1.252 . S
O154 In143 2.294 . S
O154 C147 1.240 . S
O155 In143 2.326 . S
O155 C147 1.252 . S
In156 O157 2.294 . S
In156 O158 2.326 . S
In156 O162 2.266 . S
In156 O163 2.326 . S
In156 O164 2.266 . S
In156 O165 2.326 . S
In156 O167 2.294 . S
In156 O168 2.326 . S
O157 In156 2.294 . S
O157 C166 1.240 . S
O158 In156 2.326 . S
O158 C166 1.252 . S
C159 O162 1.252 . S
C159 O163 1.260 . S
C160 O167 1.240 . S
C160 O168 1.252 . S
C161 O164 1.252 . S
C161 O165 1.260 . S
O162 In156 2.266 . S
O162 C159 1.252 . S
O163 In156 2.326 . S
O163 C159 1.260 . S
O164 In156 2.266 . S
O164 C161 1.252 . S
O165 In156 2.326 . S
O165 C161 1.260 . S
C166 O157 1.240 . S
C166 O158 1.252 . S
O167 In156 2.294 . S
O167 C160 1.240 . S
O168 In156 2.326 . S
O168 C160 1.252 . S
In169 O170 2.294 . S
In169 O171 2.326 . S
In169 O175 2.266 . S
In169 O176 2.326 . S
In169 O177 2.266 1_565 S
In169 O178 2.326 1_565 S
In169 O180 2.294 . S
In169 O181 2.326 . S
O170 In169 2.294 . S
O170 C179 1.240 . S
O171 In169 2.326 . S
O171 C179 1.252 . S
C172 O175 1.252 . S
C172 O176 1.260 . S
C173 O180 1.240 . S
C173 O181 1.252 . S
C174 O177 1.252 . S
C174 O178 1.260 . S
O175 In169 2.266 . S
O175 C172 1.252 . S
O176 In169 2.326 . S
O176 C172 1.260 . S
O177 In169 2.266 1_545 S
O177 C174 1.252 . S
O178 In169 2.326 1_545 S
O178 C174 1.260 . S
C179 O170 1.240 . S
C179 O171 1.252 . S
O180 In169 2.294 . S
O180 C173 1.240 . S
O181 In169 2.326 . S
O181 C173 1.252 . S
In182 O183 2.294 . S
In182 O184 2.326 . S
In182 O188 2.266 . S
In182 O189 2.326 . S
In182 O190 2.266 1_455 S
In182 O191 2.326 1_455 S
In182 O193 2.294 . S
In182 O194 2.326 . S
O183 In182 2.294 . S
O183 C192 1.240 . S
O184 In182 2.326 . S
O184 C192 1.252 . S
C185 O188 1.252 . S
C185 O189 1.260 . S
C186 O193 1.240 . S
C186 O194 1.252 . S
C187 O190 1.252 . S
C187 O191 1.260 . S
O188 In182 2.266 . S
O188 C185 1.252 . S
O189 In182 2.326 . S
O189 C185 1.260 . S
O190 In182 2.266 1_655 S
O190 C187 1.252 . S
O191 In182 2.326 1_655 S
O191 C187 1.260 . S
C192 O183 1.240 . S
C192 O184 1.252 . S
O193 In182 2.294 . S
O193 C186 1.240 . S
O194 In182 2.326 . S
O194 C186 1.252 . S
In195 O196 2.294 . S
In195 O197 2.326 1_655 S
In195 O201 2.266 . S
In195 O202 2.326 . S
In195 O203 2.266 1_655 S
In195 O204 2.326 1_655 S
In195 O206 2.294 . S
In195 O207 2.326 . S
O196 In195 2.294 . S
O196 C205 1.240 . S
O197 In195 2.326 1_455 S
O197 C205 1.252 1_455 S
C198 O201 1.252 . S
C198 O202 1.260 . S
C199 O206 1.240 . S
C199 O207 1.252 . S
C200 O203 1.252 . S
C200 O204 1.260 . S
O201 In195 2.266 . S
O201 C198 1.252 . S
O202 In195 2.326 . S
O202 C198 1.260 . S
O203 In195 2.266 1_455 S
O203 C200 1.252 . S
O204 In195 2.326 1_455 S
O204 C200 1.260 . S
C205 O196 1.240 . S
C205 O197 1.252 1_655 S
O206 In195 2.294 . S
O206 C199 1.240 . S
O207 In195 2.326 . S
O207 C199 1.252 . S
In208 O209 2.294 . S
In208 O210 2.326 . S
In208 O214 2.266 . S
In208 O215 2.326 . S
In208 O216 2.266 . S
In208 O217 2.326 . S
In208 O219 2.294 . S
In208 O220 2.326 . S
O209 In208 2.294 . S
O209 C218 1.240 . S
O210 In208 2.326 . S
O210 C218 1.252 . S
C211 O214 1.252 . S
C211 O215 1.260 . S
C212 O219 1.240 . S
C212 O220 1.252 . S
C213 O216 1.252 . S
C213 O217 1.260 . S
O214 In208 2.266 . S
O214 C211 1.252 . S
O215 In208 2.326 . S
O215 C211 1.260 . S
O216 In208 2.266 . S
O216 C213 1.252 . S
O217 In208 2.326 . S
O217 C213 1.260 . S
C218 O209 1.240 . S
C218 O210 1.252 . S
O219 In208 2.294 . S
O219 C212 1.240 . S
O220 In208 2.326 . S
O220 C212 1.252 . S
In221 O222 2.294 . S
In221 O223 2.326 1_545 S
In221 O227 2.266 . S
In221 O228 2.326 . S
In221 O229 2.266 1_545 S
In221 O230 2.326 1_545 S
In221 O232 2.294 . S
In221 O233 2.326 . S
O222 In221 2.294 . S
O222 C231 1.240 . S
O223 In221 2.326 1_565 S
O223 C231 1.252 1_565 S
C224 O227 1.252 . S
C224 O228 1.260 . S
C225 O232 1.240 . S
C225 O233 1.252 . S
C226 O229 1.252 . S
C226 O230 1.260 . S
O227 In221 2.266 . S
O227 C224 1.252 . S
O228 In221 2.326 . S
O228 C224 1.260 . S
O229 In221 2.266 1_565 S
O229 C226 1.252 . S
O230 In221 2.326 1_565 S
O230 C226 1.260 . S
C231 O222 1.240 . S
C231 O223 1.252 1_545 S
O232 In221 2.294 . S
O232 C225 1.240 . S
O233 In221 2.326 . S
O233 C225 1.252 . S
H234 C246 0.930 . S
H235 C248 0.930 . S
H236 C249 0.930 1_556 S
H237 C253 0.959 1_556 S
H238 C253 0.959 . S
H239 C253 0.961 . S
H240 C254 0.960 . S
H241 C254 0.961 . S
H242 C254 0.959 . S
H243 C257 0.929 . S
H244 C258 0.931 . S
H245 C260 0.930 1_545 S
C246 H234 0.930 . S
C246 C247 1.399 . S
C246 C251 1.399 . S
C247 C246 1.399 . S
C247 C248 1.376 1_545 S
C248 H235 0.930 . S
C248 C247 1.376 1_565 S
C248 C249 1.388 . S
C249 H236 0.930 1_554 S
C249 C248 1.388 . S
C249 C250 1.390 . S
C250 C249 1.390 . S
C250 C251 1.394 1_565 S
C250 C256 1.465 1_554 S
C251 C246 1.399 . S
C251 C250 1.394 1_545 S
C251 C252 1.516 . S
C252 C251 1.516 . S
C252 C253 1.502 . S
C252 C254 1.561 . S
C252 C255 1.526 1_554 S
C253 H237 0.959 1_554 S
C253 H238 0.959 . S
C253 H239 0.961 . S
C253 C252 1.502 . S
C254 H240 0.960 . S
C254 H241 0.961 . S
C254 H242 0.959 . S
C254 C252 1.561 . S
C255 C252 1.526 1_556 S
C255 C256 1.396 1_545 S
C255 C260 1.390 1_545 S
C256 C250 1.465 1_556 S
C256 C255 1.396 1_565 S
C256 C257 1.399 . S
C257 H243 0.929 . S
C257 C256 1.399 . S
C257 C258 1.385 . S
C258 H244 0.931 . S
C258 C257 1.385 . S
C258 C259 1.389 . S
C259 C258 1.389 . S
C259 C260 1.387 . S
C260 H245 0.930 1_565 S
C260 C255 1.390 1_565 S
C260 C259 1.387 . S
H261 C273 0.930 . S
H262 C275 0.930 1_455 S
H263 C276 0.930 . S
H264 C280 0.959 . S
H265 C280 0.959 . S
H266 C280 0.961 . S
H267 C281 0.967 . S
H268 C281 0.980 . S
H269 C281 0.926 1_455 S
H270 C284 0.929 . S
H271 C285 0.931 . S
H272 C287 0.930 1_655 S
C273 H261 0.930 . S
C273 C274 1.399 . S
C273 C278 1.399 . S
C274 C273 1.399 . S
C274 C275 1.376 . S
C275 H262 0.930 1_655 S
C275 C274 1.376 . S
C275 C276 1.388 1_654 S
C276 H263 0.930 . S
C276 C275 1.388 1_456 S
C276 C277 1.391 . S
C277 C276 1.391 . S
C277 C278 1.388 1_456 S
C277 C283 1.468 . S
C278 C273 1.399 . S
C278 C277 1.388 1_654 S
C278 C279 1.516 . S
C279 C278 1.516 . S
C279 C280 1.502 . S
C279 C281 1.570 . S
C279 C282 1.526 1_654 S
C280 H264 0.959 . S
C280 H265 0.959 . S
C280 H266 0.961 . S
C280 C279 1.502 . S
C281 H267 0.967 . S
C281 H268 0.980 . S
C281 H269 0.926 1_655 S
C281 C279 1.570 . S
C282 C279 1.526 1_456 S
C282 C283 1.396 . S
C282 C287 1.390 . S
C283 C277 1.468 . S
C283 C282 1.396 . S
C283 C284 1.399 . S
C284 H270 0.929 . S
C284 C283 1.399 . S
C284 C285 1.385 . S
C285 H271 0.931 . S
C285 C284 1.385 . S
C285 C286 1.389 . S
C286 C285 1.389 . S
C286 C287 1.387 . S
C287 H272 0.930 1_455 S
C287 C282 1.390 . S
C287 C286 1.387 . S
H288 C300 0.930 . S
H289 C302 0.930 . S
H290 C303 0.930 . S
H291 C307 0.959 . S
H292 C307 0.959 . S
H293 C307 0.961 . S
H294 C308 0.960 . S
H295 C308 0.961 . S
H296 C308 0.959 . S
H297 C311 0.929 . S
H298 C312 0.931 . S
H299 C314 0.930 . S
C300 H288 0.930 . S
C300 C301 1.399 . S
C300 C305 1.405 . S
C301 C300 1.399 . S
C301 C302 1.376 . S
C302 H289 0.930 . S
C302 C301 1.376 . S
C302 C303 1.388 . S
C303 H290 0.930 . S
C303 C302 1.388 . S
C303 C304 1.390 . S
C304 C303 1.390 . S
C304 C305 1.403 . S
C304 C310 1.465 . S
C305 C300 1.405 . S
C305 C304 1.403 . S
C305 C306 1.501 1_556 S
C306 C305 1.501 1_554 S
C306 C307 1.502 . S
C306 C308 1.561 . S
C306 C309 1.526 . S
C307 H291 0.959 . S
C307 H292 0.959 . S
C307 H293 0.961 . S
C307 C306 1.502 . S
C308 H294 0.960 . S
C308 H295 0.961 . S
C308 H296 0.959 . S
C308 C306 1.561 . S
C309 C306 1.526 . S
C309 C310 1.396 1_554 S
C309 C314 1.390 . S
C310 C304 1.465 . S
C310 C309 1.396 1_556 S
C310 C311 1.399 . S
C311 H297 0.929 . S
C311 C310 1.399 . S
C311 C312 1.385 1_556 S
C312 H298 0.931 . S
C312 C311 1.385 1_554 S
C312 C313 1.389 . S
C313 C312 1.389 . S
C313 C314 1.387 . S
C314 H299 0.930 . S
C314 C309 1.390 . S
C314 C313 1.387 . S
H315 C327 0.930 . S
H316 C329 0.930 . S
H317 C330 0.930 . S
H318 C334 0.959 . S
H319 C334 0.959 . S
H320 C334 0.961 . S
H321 C335 0.960 . S
H322 C335 0.961 . S
H323 C335 0.959 . S
H324 C338 0.929 . S
H325 C339 0.931 . S
H326 C341 0.930 . S
C327 H315 0.930 . S
C327 C328 1.399 . S
C327 C332 1.399 . S
C328 C327 1.399 . S
C328 C329 1.376 . S
C329 H316 0.930 . S
C329 C328 1.376 . S
C329 C330 1.388 . S
C330 H317 0.930 . S
C330 C329 1.388 . S
C330 C331 1.390 . S
C331 C330 1.390 . S
C331 C332 1.394 . S
C331 C337 1.465 . S
C332 C327 1.399 . S
C332 C331 1.394 . S
C332 C333 1.516 . S
C333 C332 1.516 . S
C333 C334 1.502 . S
C333 C335 1.561 . S
C333 C336 1.526 . S
C334 H318 0.959 . S
C334 H319 0.959 . S
C334 H320 0.961 . S
C334 C333 1.502 . S
C335 H321 0.960 . S
C335 H322 0.961 . S
C335 H323 0.959 . S
C335 C333 1.561 . S
C336 C333 1.526 . S
C336 C337 1.396 . S
C336 C341 1.390 . S
C337 C331 1.465 . S
C337 C336 1.396 . S
C337 C338 1.399 . S
C338 H324 0.929 . S
C338 C337 1.399 . S
C338 C339 1.385 . S
C339 H325 0.931 . S
C339 C338 1.385 . S
C339 C340 1.389 . S
C340 C339 1.389 . S
C340 C341 1.387 . S
C341 H326 0.930 . S
C341 C336 1.390 . S
C341 C340 1.387 . S
H342 C354 0.930 . S
H343 C356 0.930 . S
H344 C357 0.930 . S
H345 C361 0.959 . S
H346 C361 0.959 . S
H347 C361 0.961 . S
H348 C362 0.960 . S
H349 C362 0.961 . S
H350 C362 0.959 . S
H351 C365 0.929 . S
H352 C366 0.931 . S
H353 C368 0.930 . S
C354 H342 0.930 . S
C354 C355 1.399 . S
C354 C359 1.399 . S
C355 C354 1.399 . S
C355 C356 1.376 . S
C356 H343 0.930 . S
C356 C355 1.376 . S
C356 C357 1.388 . S
C357 H344 0.930 . S
C357 C356 1.388 . S
C357 C358 1.390 . S
C358 C357 1.390 . S
C358 C359 1.394 . S
C358 C364 1.465 . S
C359 C354 1.399 . S
C359 C358 1.394 . S
C359 C360 1.516 . S
C360 C359 1.516 . S
C360 C361 1.502 . S
C360 C362 1.561 . S
C360 C363 1.526 . S
C361 H345 0.959 . S
C361 H346 0.959 . S
C361 H347 0.961 . S
C361 C360 1.502 . S
C362 H348 0.960 . S
C362 H349 0.961 . S
C362 H350 0.959 . S
C362 C360 1.561 . S
C363 C360 1.526 . S
C363 C364 1.396 . S
C363 C368 1.390 . S
C364 C358 1.465 . S
C364 C363 1.396 . S
C364 C365 1.399 . S
C365 H351 0.929 . S
C365 C364 1.399 . S
C365 C366 1.385 . S
C366 H352 0.931 . S
C366 C365 1.385 . S
C366 C367 1.389 . S
C367 C366 1.389 . S
C367 C368 1.387 . S
C368 H353 0.930 . S
C368 C363 1.390 . S
C368 C367 1.387 . S
H369 C381 0.930 . S
H370 C383 0.930 . S
H371 C384 0.930 . S
H372 C388 0.959 . S
H373 C388 0.959 . S
H374 C388 0.961 . S
H375 C389 0.960 . S
H376 C389 0.961 . S
H377 C389 0.959 . S
H378 C392 0.929 . S
H379 C393 0.931 . S
H380 C395 0.930 . S
C381 H369 0.930 . S
C381 C382 1.399 . S
C381 C386 1.399 . S
C382 C381 1.399 . S
C382 C383 1.376 . S
C383 H370 0.930 . S
C383 C382 1.376 . S
C383 C384 1.388 . S
C384 H371 0.930 . S
C384 C383 1.388 . S
C384 C385 1.390 . S
C385 C384 1.390 . S
C385 C386 1.394 . S
C385 C391 1.465 . S
C386 C381 1.399 . S
C386 C385 1.394 . S
C386 C387 1.516 . S
C387 C386 1.516 . S
C387 C388 1.502 . S
C387 C389 1.561 . S
C387 C390 1.526 . S
C388 H372 0.959 . S
C388 H373 0.959 . S
C388 H374 0.961 . S
C388 C387 1.502 . S
C389 H375 0.960 . S
C389 H376 0.961 . S
C389 H377 0.959 . S
C389 C387 1.561 . S
C390 C387 1.526 . S
C390 C391 1.396 . S
C390 C395 1.390 . S
C391 C385 1.465 . S
C391 C390 1.396 . S
C391 C392 1.399 . S
C392 H378 0.929 . S
C392 C391 1.399 . S
C392 C393 1.385 . S
C393 H379 0.931 . S
C393 C392 1.385 . S
C393 C394 1.389 . S
C394 C393 1.389 . S
C394 C395 1.387 . S
C395 H380 0.930 . S
C395 C390 1.390 . S
C395 C394 1.387 . S
H396 C408 0.930 . S
H397 C410 0.930 . S
H398 C411 0.930 . S
H399 C415 0.959 . S
H400 C415 0.959 . S
H401 C415 0.961 . S
H402 C416 0.960 . S
H403 C416 0.961 . S
H404 C416 0.959 . S
H405 C419 0.929 . S
H406 C420 0.931 . S
H407 C422 0.930 . S
C408 H396 0.930 . S
C408 C409 1.399 . S
C408 C413 1.399 . S
C409 C408 1.399 . S
C409 C410 1.376 . S
C410 H397 0.930 . S
C410 C409 1.376 . S
C410 C411 1.388 . S
C411 H398 0.930 . S
C411 C410 1.388 . S
C411 C412 1.390 . S
C412 C411 1.390 . S
C412 C413 1.394 . S
C412 C418 1.465 . S
C413 C408 1.399 . S
C413 C412 1.394 . S
C413 C414 1.516 . S
C414 C413 1.516 . S
C414 C415 1.502 . S
C414 C416 1.561 . S
C414 C417 1.526 . S
C415 H399 0.959 . S
C415 H400 0.959 . S
C415 H401 0.961 . S
C415 C414 1.502 . S
C416 H402 0.960 . S
C416 H403 0.961 . S
C416 H404 0.959 . S
C416 C414 1.561 . S
C417 C414 1.526 . S
C417 C418 1.396 . S
C417 C422 1.390 . S
C418 C412 1.465 . S
C418 C417 1.396 . S
C418 C419 1.399 . S
C419 H405 0.929 . S
C419 C418 1.399 . S
C419 C420 1.385 . S
C420 H406 0.931 . S
C420 C419 1.385 . S
C420 C421 1.389 . S
C421 C420 1.389 . S
C421 C422 1.387 . S
C422 H407 0.930 . S
C422 C417 1.390 . S
C422 C421 1.387 . S
H423 C435 0.930 . S
H424 C437 0.930 . S
H425 C438 0.930 . S
H426 C442 0.959 . S
H427 C442 0.959 . S
H428 C442 0.961 . S
H429 C443 0.960 . S
H430 C443 0.961 . S
H431 C443 0.959 . S
H432 C446 0.929 . S
H433 C447 0.931 . S
H434 C449 0.930 . S
C435 H423 0.930 . S
C435 C436 1.399 . S
C435 C440 1.399 . S
C436 C435 1.399 . S
C436 C437 1.376 . S
C437 H424 0.930 . S
C437 C436 1.376 . S
C437 C438 1.388 . S
C438 H425 0.930 . S
C438 C437 1.388 . S
C438 C439 1.390 . S
C439 C438 1.390 . S
C439 C440 1.394 . S
C439 C445 1.465 . S
C440 C435 1.399 . S
C440 C439 1.394 . S
C440 C441 1.516 . S
C441 C440 1.516 . S
C441 C442 1.502 . S
C441 C443 1.561 . S
C441 C444 1.526 . S
C442 H426 0.959 . S
C442 H427 0.959 . S
C442 H428 0.961 . S
C442 C441 1.502 . S
C443 H429 0.960 . S
C443 H430 0.961 . S
C443 H431 0.959 . S
C443 C441 1.561 . S
C444 C441 1.526 . S
C444 C445 1.396 . S
C444 C449 1.390 . S
C445 C439 1.465 . S
C445 C444 1.396 . S
C445 C446 1.399 . S
C446 H432 0.929 . S
C446 C445 1.399 . S
C446 C447 1.385 . S
C447 H433 0.931 . S
C447 C446 1.385 . S
C447 C448 1.389 . S
C448 C447 1.389 . S
C448 C449 1.387 . S
C449 H434 0.930 . S
C449 C444 1.390 . S
C449 C448 1.387 . S
H450 C462 0.930 . S
H451 C464 0.930 . S
H452 C465 0.930 . S
H453 C469 0.959 . S
H454 C469 0.959 . S
H455 C469 0.961 . S
H456 C470 0.960 . S
H457 C470 0.961 . S
H458 C470 0.959 . S
H459 C473 0.929 . S
H460 C474 0.931 . S
H461 C476 0.930 . S
C462 H450 0.930 . S
C462 C463 1.399 . S
C462 C467 1.399 . S
C463 C462 1.399 . S
C463 C464 1.376 . S
C464 H451 0.930 . S
C464 C463 1.376 . S
C464 C465 1.388 . S
C465 H452 0.930 . S
C465 C464 1.388 . S
C465 C466 1.390 . S
C466 C465 1.390 . S
C466 C467 1.394 . S
C466 C472 1.465 . S
C467 C462 1.399 . S
C467 C466 1.394 . S
C467 C468 1.516 . S
C468 C467 1.516 . S
C468 C469 1.502 . S
C468 C470 1.561 . S
C468 C471 1.526 . S
C469 H453 0.959 . S
C469 H454 0.959 . S
C469 H455 0.961 . S
C469 C468 1.502 . S
C470 H456 0.960 . S
C470 H457 0.961 . S
C470 H458 0.959 . S
C470 C468 1.561 . S
C471 C468 1.526 . S
C471 C472 1.396 . S
C471 C476 1.390 . S
C472 C466 1.465 . S
C472 C471 1.396 . S
C472 C473 1.399 . S
C473 H459 0.929 . S
C473 C472 1.399 . S
C473 C474 1.385 . S
C474 H460 0.931 . S
C474 C473 1.385 . S
C474 C475 1.389 . S
C475 C474 1.389 . S
C475 C476 1.387 . S
C476 H461 0.930 . S
C476 C471 1.390 . S
C476 C475 1.387 . S
H477 C489 0.930 . S
H478 C491 0.930 . S
H479 C492 0.930 . S
H480 C496 0.959 . S
H481 C496 0.959 . S
H482 C496 0.961 . S
H483 C497 0.960 . S
H484 C497 0.961 . S
H485 C497 0.959 . S
H486 C500 0.929 . S
H487 C501 0.931 . S
H488 C503 0.930 . S
C489 H477 0.930 . S
C489 C490 1.399 . S
C489 C494 1.399 . S
C490 C489 1.399 . S
C490 C491 1.376 . S
C491 H478 0.930 . S
C491 C490 1.376 . S
C491 C492 1.388 . S
C492 H479 0.930 . S
C492 C491 1.388 . S
C492 C493 1.390 . S
C493 C492 1.390 . S
C493 C494 1.394 . S
C493 C499 1.465 . S
C494 C489 1.399 . S
C494 C493 1.394 . S
C494 C495 1.516 . S
C495 C494 1.516 . S
C495 C496 1.502 . S
C495 C497 1.561 . S
C495 C498 1.526 . S
C496 H480 0.959 . S
C496 H481 0.959 . S
C496 H482 0.961 . S
C496 C495 1.502 . S
C497 H483 0.960 . S
C497 H484 0.961 . S
C497 H485 0.959 . S
C497 C495 1.561 . S
C498 C495 1.526 . S
C498 C499 1.396 . S
C498 C503 1.390 . S
C499 C493 1.465 . S
C499 C498 1.396 . S
C499 C500 1.399 . S
C500 H486 0.929 . S
C500 C499 1.399 . S
C500 C501 1.385 . S
C501 H487 0.931 . S
C501 C500 1.385 . S
C501 C502 1.389 . S
C502 C501 1.389 . S
C502 C503 1.387 . S
C503 H488 0.930 . S
C503 C498 1.390 . S
C503 C502 1.387 . S
H504 C516 0.930 . S
H505 C518 0.930 . S
H506 C519 0.930 . S
H507 C523 0.959 . S
H508 C523 0.959 . S
H509 C523 0.961 . S
H510 C524 0.960 . S
H511 C524 0.961 . S
H512 C524 0.959 . S
H513 C527 0.929 . S
H514 C528 0.931 . S
H515 C530 0.930 . S
C516 H504 0.930 . S
C516 C517 1.399 . S
C516 C521 1.399 . S
C517 C516 1.399 . S
C517 C518 1.376 . S
C518 H505 0.930 . S
C518 C517 1.376 . S
C518 C519 1.388 . S
C519 H506 0.930 . S
C519 C518 1.388 . S
C519 C520 1.390 . S
C520 C519 1.390 . S
C520 C521 1.394 . S
C520 C526 1.465 . S
C521 C516 1.399 . S
C521 C520 1.394 . S
C521 C522 1.516 . S
C522 C521 1.516 . S
C522 C523 1.502 . S
C522 C524 1.561 . S
C522 C525 1.526 . S
C523 H507 0.959 . S
C523 H508 0.959 . S
C523 H509 0.961 . S
C523 C522 1.502 . S
C524 H510 0.960 . S
C524 H511 0.961 . S
C524 H512 0.959 . S
C524 C522 1.561 . S
C525 C522 1.526 . S
C525 C526 1.396 . S
C525 C530 1.390 . S
C526 C520 1.465 . S
C526 C525 1.396 . S
C526 C527 1.399 . S
C527 H513 0.929 . S
C527 C526 1.399 . S
C527 C528 1.385 . S
C528 H514 0.931 . S
C528 C527 1.385 . S
C528 C529 1.389 . S
C529 C528 1.389 . S
C529 C530 1.387 . S
C530 H515 0.930 . S
C530 C525 1.390 . S
C530 C529 1.387 . S
H531 C543 0.930 . S
H532 C545 0.930 . S
H533 C546 0.930 . S
H534 C550 0.959 . S
H535 C550 0.959 . S
H536 C550 0.961 . S
H537 C551 0.960 . S
H538 C551 0.961 . S
H539 C551 0.959 . S
H540 C554 0.929 . S
H541 C555 0.931 . S
H542 C557 0.930 . S
C543 H531 0.930 . S
C543 C544 1.399 . S
C543 C548 1.399 . S
C544 C543 1.399 . S
C544 C545 1.376 . S
C545 H532 0.930 . S
C545 C544 1.376 . S
C545 C546 1.388 . S
C546 H533 0.930 . S
C546 C545 1.388 . S
C546 C547 1.390 . S
C547 C546 1.390 . S
C547 C548 1.394 . S
C547 C553 1.465 . S
C548 C543 1.399 . S
C548 C547 1.394 . S
C548 C549 1.516 . S
C549 C548 1.516 . S
C549 C550 1.502 . S
C549 C551 1.561 . S
C549 C552 1.526 . S
C550 H534 0.959 . S
C550 H535 0.959 . S
C550 H536 0.961 . S
C550 C549 1.502 . S
C551 H537 0.960 . S
C551 H538 0.961 . S
C551 H539 0.959 . S
C551 C549 1.561 . S
C552 C549 1.526 . S
C552 C553 1.396 . S
C552 C557 1.390 . S
C553 C547 1.465 . S
C553 C552 1.396 . S
C553 C554 1.399 . S
C554 H540 0.929 . S
C554 C553 1.399 . S
C554 C555 1.385 . S
C555 H541 0.931 . S
C555 C554 1.385 . S
C555 C556 1.389 . S
C556 C555 1.389 . S
C556 C557 1.387 . S
C557 H542 0.930 . S
C557 C552 1.390 . S
C557 C556 1.387 . S
H558 C570 0.930 . S
H559 C572 0.930 . S
H560 C573 0.930 . S
H561 C577 0.959 . S
H562 C577 0.959 . S
H563 C577 0.961 . S
H564 C578 0.960 . S
H565 C578 0.961 . S
H566 C578 0.959 . S
H567 C581 0.929 . S
H568 C582 0.931 . S
H569 C584 0.930 . S
C570 H558 0.930 . S
C570 C571 1.399 . S
C570 C575 1.399 . S
C571 C570 1.399 . S
C571 C572 1.376 . S
C572 H559 0.930 . S
C572 C571 1.376 . S
C572 C573 1.388 . S
C573 H560 0.930 . S
C573 C572 1.388 . S
C573 C574 1.390 . S
C574 C573 1.390 . S
C574 C575 1.394 . S
C574 C580 1.465 . S
C575 C570 1.399 . S
C575 C574 1.394 . S
C575 C576 1.516 . S
C576 C575 1.516 . S
C576 C577 1.502 . S
C576 C578 1.561 . S
C576 C579 1.526 . S
C577 H561 0.959 . S
C577 H562 0.959 . S
C577 H563 0.961 . S
C577 C576 1.502 . S
C578 H564 0.960 . S
C578 H565 0.961 . S
C578 H566 0.959 . S
C578 C576 1.561 . S
C579 C576 1.526 . S
C579 C580 1.396 . S
C579 C584 1.390 . S
C580 C574 1.465 . S
C580 C579 1.396 . S
C580 C581 1.399 . S
C581 H567 0.929 . S
C581 C580 1.399 . S
C581 C582 1.385 . S
C582 H568 0.931 . S
C582 C581 1.385 . S
C582 C583 1.389 . S
C583 C582 1.389 . S
C583 C584 1.387 . S
C584 H569 0.930 . S
C584 C579 1.390 . S
C584 C583 1.387 . S
H585 C597 0.930 . S
H586 C599 0.930 . S
H587 C600 0.930 . S
H588 C604 0.959 . S
H589 C604 0.959 . S
H590 C604 0.961 . S
H591 C605 0.960 . S
H592 C605 0.961 . S
H593 C605 0.959 . S
H594 C608 0.929 . S
H595 C609 0.931 . S
H596 C611 0.930 . S
C597 H585 0.930 . S
C597 C598 1.399 . S
C597 C602 1.399 . S
C598 C597 1.399 . S
C598 C599 1.376 . S
C599 H586 0.930 . S
C599 C598 1.376 . S
C599 C600 1.388 . S
C600 H587 0.930 . S
C600 C599 1.388 . S
C600 C601 1.390 . S
C601 C600 1.390 . S
C601 C602 1.394 . S
C601 C607 1.465 . S
C602 C597 1.399 . S
C602 C601 1.394 . S
C602 C603 1.516 . S
C603 C602 1.516 . S
C603 C604 1.502 . S
C603 C605 1.561 . S
C603 C606 1.526 . S
C604 H588 0.959 . S
C604 H589 0.959 . S
C604 H590 0.961 . S
C604 C603 1.502 . S
C605 H591 0.960 . S
C605 H592 0.961 . S
C605 H593 0.959 . S
C605 C603 1.561 . S
C606 C603 1.526 . S
C606 C607 1.396 . S
C606 C611 1.390 . S
C607 C601 1.465 . S
C607 C606 1.396 . S
C607 C608 1.399 . S
C608 H594 0.929 . S
C608 C607 1.399 . S
C608 C609 1.385 . S
C609 H595 0.931 . S
C609 C608 1.385 . S
C609 C610 1.389 . S
C610 C609 1.389 . S
C610 C611 1.387 . S
C611 H596 0.930 . S
C611 C606 1.390 . S
C611 C610 1.387 . S
H612 C624 0.930 . S
H613 C626 0.930 . S
H614 C627 0.930 . S
H615 C631 0.959 . S
H616 C631 0.959 . S
H617 C631 0.961 . S
H618 C632 0.960 . S
H619 C632 0.961 . S
H620 C632 0.959 . S
H621 C635 0.929 . S
H622 C636 0.931 . S
H623 C638 0.930 . S
C624 H612 0.930 . S
C624 C625 1.399 . S
C624 C629 1.399 . S
C625 C624 1.399 . S
C625 C626 1.376 . S
C626 H613 0.930 . S
C626 C625 1.376 . S
C626 C627 1.388 . S
C627 H614 0.930 . S
C627 C626 1.388 . S
C627 C628 1.390 . S
C628 C627 1.390 . S
C628 C629 1.394 . S
C628 C634 1.465 . S
C629 C624 1.399 . S
C629 C628 1.394 . S
C629 C630 1.516 . S
C630 C629 1.516 . S
C630 C631 1.502 . S
C630 C632 1.561 . S
C630 C633 1.526 . S
C631 H615 0.959 . S
C631 H616 0.959 . S
C631 H617 0.961 . S
C631 C630 1.502 . S
C632 H618 0.960 . S
C632 H619 0.961 . S
C632 H620 0.959 . S
C632 C630 1.561 . S
C633 C630 1.526 . S
C633 C634 1.396 . S
C633 C638 1.390 . S
C634 C628 1.465 . S
C634 C633 1.396 . S
C634 C635 1.399 . S
C635 H621 0.929 . S
C635 C634 1.399 . S
C635 C636 1.385 . S
C636 H622 0.931 . S
C636 C635 1.385 . S
C636 C637 1.389 . S
C637 C636 1.389 . S
C637 C638 1.387 . S
C638 H623 0.930 . S
C638 C633 1.390 . S
C638 C637 1.387 . S
H639 C651 0.930 . S
H640 C653 0.930 . S
H641 C654 0.930 . S
H642 C658 0.959 . S
H643 C658 0.959 . S
H644 C658 0.961 . S
H645 C659 0.960 . S
H646 C659 0.961 . S
H647 C659 0.959 . S
H648 C662 0.929 . S
H649 C663 0.931 . S
H650 C665 0.930 . S
C651 H639 0.930 . S
C651 C652 1.399 . S
C651 C656 1.399 . S
C652 C651 1.399 . S
C652 C653 1.376 1_455 S
C653 H640 0.930 . S
C653 C652 1.376 1_655 S
C653 C654 1.388 . S
C654 H641 0.930 . S
C654 C653 1.388 . S
C654 C655 1.390 . S
C655 C654 1.390 . S
C655 C656 1.394 1_655 S
C655 C661 1.465 . S
C656 C651 1.399 . S
C656 C655 1.394 1_455 S
C656 C657 1.516 . S
C657 C656 1.516 . S
C657 C658 1.502 . S
C657 C659 1.561 . S
C657 C660 1.526 . S
C658 H642 0.959 . S
C658 H643 0.959 . S
C658 H644 0.961 . S
C658 C657 1.502 . S
C659 H645 0.960 . S
C659 H646 0.961 . S
C659 H647 0.959 . S
C659 C657 1.561 . S
C660 C657 1.526 . S
C660 C661 1.396 1_455 S
C660 C665 1.390 . S
C661 C655 1.465 . S
C661 C660 1.396 1_655 S
C661 C662 1.399 . S
C662 H648 0.929 . S
C662 C661 1.399 . S
C662 C663 1.385 . S
C663 H649 0.931 . S
C663 C662 1.385 . S
C663 C664 1.389 . S
C664 C663 1.389 . S
C664 C665 1.387 1_655 S
C665 H650 0.930 . S
C665 C660 1.390 . S
C665 C664 1.387 1_455 S
H666 C678 0.930 . S
H667 C680 0.930 . S
H668 C681 0.930 . S
H669 C685 0.959 . S
H670 C685 0.959 . S
H671 C685 0.961 . S
H672 C686 0.960 . S
H673 C686 0.961 . S
H674 C686 0.959 . S
H675 C689 0.929 . S
H676 C690 0.931 . S
H677 C692 0.930 . S
C678 H666 0.930 . S
C678 C679 1.399 . S
C678 C683 1.399 . S
C679 C678 1.399 . S
C679 C680 1.376 . S
C680 H667 0.930 . S
C680 C679 1.376 . S
C680 C681 1.388 . S
C681 H668 0.930 . S
C681 C680 1.388 . S
C681 C682 1.390 . S
C682 C681 1.390 . S
C682 C683 1.394 . S
C682 C688 1.465 . S
C683 C678 1.399 . S
C683 C682 1.394 . S
C683 C684 1.516 . S
C684 C683 1.516 . S
C684 C685 1.502 . S
C684 C686 1.561 . S
C684 C687 1.526 . S
C685 H669 0.959 . S
C685 H670 0.959 . S
C685 H671 0.961 . S
C685 C684 1.502 . S
C686 H672 0.960 . S
C686 H673 0.961 . S
C686 H674 0.959 . S
C686 C684 1.561 . S
C687 C684 1.526 . S
C687 C688 1.396 . S
C687 C692 1.390 . S
C688 C682 1.465 . S
C688 C687 1.396 . S
C688 C689 1.399 . S
C689 H675 0.929 . S
C689 C688 1.399 . S
C689 C690 1.385 . S
C690 H676 0.931 . S
C690 C689 1.385 . S
C690 C691 1.389 . S
C691 C690 1.389 . S
C691 C692 1.387 . S
C692 H677 0.930 . S
C692 C687 1.390 . S
C692 C691 1.387 . S
H693 C705 0.930 . S
H694 C707 0.930 . S
H695 C708 0.930 . S
H696 C712 0.959 . S
H697 C712 0.959 . S
H698 C712 0.961 . S
H699 C713 0.960 . S
H700 C713 0.961 . S
H701 C713 0.959 . S
H702 C716 0.929 . S
H703 C717 0.931 . S
H704 C719 0.930 . S
C705 H693 0.930 . S
C705 C706 1.399 . S
C705 C710 1.399 . S
C706 C705 1.399 . S
C706 C707 1.376 1_545 S
C707 H694 0.930 . S
C707 C706 1.376 1_565 S
C707 C708 1.388 . S
C708 H695 0.930 . S
C708 C707 1.388 . S
C708 C709 1.390 . S
C709 C708 1.390 . S
C709 C710 1.394 1_565 S
C709 C715 1.465 . S
C710 C705 1.399 . S
C710 C709 1.394 1_545 S
C710 C711 1.516 . S
C711 C710 1.516 . S
C711 C712 1.502 . S
C711 C713 1.561 . S
C711 C714 1.526 . S
C712 H696 0.959 . S
C712 H697 0.959 . S
C712 H698 0.961 . S
C712 C711 1.502 . S
C713 H699 0.960 . S
C713 H700 0.961 . S
C713 H701 0.959 . S
C713 C711 1.561 . S
C714 C711 1.526 . S
C714 C715 1.396 1_545 S
C714 C719 1.390 . S
C715 C709 1.465 . S
C715 C714 1.396 1_565 S
C715 C716 1.399 . S
C716 H702 0.929 . S
C716 C715 1.399 . S
C716 C717 1.385 . S
C717 H703 0.931 . S
C717 C716 1.385 . S
C717 C718 1.389 . S
C718 C717 1.389 . S
C718 C719 1.387 1_565 S
C719 H704 0.930 . S
C719 C714 1.390 . S
C719 C718 1.387 1_545 S
H720 C732 0.909 1_556 S
H721 C734 0.930 . S
H722 C735 0.930 . S
H723 C739 0.959 . S
H724 C739 0.959 . S
H725 C739 0.961 . S
H726 C740 0.960 . S
H727 C740 0.961 . S
H728 C740 0.959 . S
H729 C743 0.929 . S
H730 C744 0.931 . S
H731 C746 0.930 . S
C732 H720 0.909 1_554 S
C732 C733 1.424 . S
C732 C737 1.396 1_554 S
C733 C732 1.424 . S
C733 C734 1.376 . S
C734 H721 0.930 . S
C734 C733 1.376 . S
C734 C735 1.388 . S
C735 H722 0.930 . S
C735 C734 1.388 . S
C735 C736 1.390 . S
C736 C735 1.390 . S
C736 C737 1.394 1_554 S
C736 C742 1.465 . S
C737 C732 1.396 1_556 S
C737 C736 1.394 1_556 S
C737 C738 1.516 . S
C738 C737 1.516 . S
C738 C739 1.502 . S
C738 C740 1.561 . S
C738 C741 1.526 . S
C739 H723 0.959 . S
C739 H724 0.959 . S
C739 H725 0.961 . S
C739 C738 1.502 . S
C740 H726 0.960 . S
C740 H727 0.961 . S
C740 H728 0.959 . S
C740 C738 1.561 . S
C741 C738 1.526 . S
C741 C742 1.396 1_556 S
C741 C746 1.390 . S
C742 C736 1.465 . S
C742 C741 1.396 1_554 S
C742 C743 1.399 . S
C743 H729 0.929 . S
C743 C742 1.399 . S
C743 C744 1.385 . S
C744 H730 0.931 . S
C744 C743 1.385 . S
C744 C745 1.389 1_554 S
C745 C744 1.389 1_556 S
C745 C746 1.387 . S
C746 H731 0.930 . S
C746 C741 1.390 . S
C746 C745 1.387 . S
H747 C759 0.930 . S
H748 C761 0.930 . S
H749 C762 0.930 . S
H750 C766 0.959 1_554 S
H751 C766 0.959 . S
H752 C766 0.961 . S
H753 C767 0.960 . S
H754 C767 0.961 . S
H755 C767 0.959 . S
H756 C770 0.929 . S
H757 C771 0.931 . S
H758 C773 0.930 . S
C759 H747 0.930 . S
C759 C760 1.399 . S
C759 C764 1.396 1_554 S
C760 C759 1.399 . S
C760 C761 1.376 . S
C761 H748 0.930 . S
C761 C760 1.376 . S
C761 C762 1.388 . S
C762 H749 0.930 . S
C762 C761 1.388 . S
C762 C763 1.390 . S
C763 C762 1.390 . S
C763 C764 1.391 1_554 S
C763 C769 1.465 1_554 S
C764 C759 1.396 1_556 S
C764 C763 1.391 1_556 S
C764 C765 1.521 . S
C765 C764 1.521 . S
C765 C766 1.502 . S
C765 C767 1.561 . S
C765 C768 1.526 . S
C766 H750 0.959 1_556 S
C766 H751 0.959 . S
C766 H752 0.961 . S
C766 C765 1.502 . S
C767 H753 0.960 . S
C767 H754 0.961 . S
C767 H755 0.959 . S
C767 C765 1.561 . S
C768 C765 1.526 . S
C768 C769 1.396 . S
C768 C773 1.390 . S
C769 C763 1.465 1_556 S
C769 C768 1.396 . S
C769 C770 1.399 1_556 S
C770 H756 0.929 . S
C770 C769 1.399 1_554 S
C770 C771 1.385 1_554 S
C771 H757 0.931 . S
C771 C770 1.385 1_556 S
C771 C772 1.389 . S
C772 C771 1.389 . S
C772 C773 1.387 . S
C773 H758 0.930 . S
C773 C768 1.390 . S
C773 C772 1.387 . S
H774 C786 0.930 1_556 S
H775 C788 0.930 . S
H776 C789 0.930 . S
H777 C793 0.974 . S
H778 C793 0.959 . S
H779 C793 0.961 . S
H780 C794 0.960 . S
H781 C794 0.961 . S
H782 C794 0.959 . S
H783 C797 0.929 . S
H784 C798 0.925 1_554 S
H785 C800 0.930 . S
C786 H774 0.930 1_554 S
C786 C787 1.399 . S
C786 C791 1.399 1_554 S
C787 C786 1.399 . S
C787 C788 1.376 . S
C788 H775 0.930 . S
C788 C787 1.376 . S
C788 C789 1.388 . S
C789 H776 0.930 . S
C789 C788 1.388 . S
C789 C790 1.390 . S
C790 C789 1.390 . S
C790 C791 1.394 1_554 S
C790 C796 1.479 . S
C791 C786 1.399 1_556 S
C791 C790 1.394 1_556 S
C791 C792 1.516 . S
C792 C791 1.516 . S
C792 C793 1.502 . S
C792 C794 1.561 . S
C792 C795 1.526 . S
C793 H777 0.974 . S
C793 H778 0.959 . S
C793 H779 0.961 . S
C793 C792 1.502 . S
C794 H780 0.960 . S
C794 H781 0.961 . S
C794 H782 0.959 . S
C794 C792 1.561 . S
C795 C792 1.526 . S
C795 C796 1.369 1_556 S
C795 C800 1.390 . S
C796 C790 1.479 . S
C796 C795 1.369 1_554 S
C796 C797 1.409 . S
C797 H783 0.929 . S
C797 C796 1.409 . S
C797 C798 1.385 1_554 S
C798 H784 0.925 1_556 S
C798 C797 1.385 1_556 S
C798 C799 1.389 . S
C799 C798 1.389 . S
C799 C800 1.387 . S
C800 H785 0.930 . S
C800 C795 1.390 . S
C800 C799 1.387 . S
H801 C813 0.930 . S
H802 C815 0.930 1_565 S
H803 C816 0.930 . S
H804 C820 0.959 . S
H805 C820 0.959 . S
H806 C820 0.961 . S
H807 C821 0.960 . S
H808 C821 0.961 . S
H809 C821 0.959 1_554 S
H810 C824 0.929 . S
H811 C825 0.931 . S
H812 C827 0.930 1_556 S
C813 H801 0.930 . S
C813 C814 1.399 . S
C813 C818 1.399 . S
C814 C813 1.399 . S
C814 C815 1.376 1_556 S
C815 H802 0.930 1_545 S
C815 C814 1.376 1_554 S
C815 C816 1.388 . S
C816 H803 0.930 . S
C816 C815 1.388 . S
C816 C817 1.390 . S
C817 C816 1.390 . S
C817 C818 1.394 1_554 S
C817 C823 1.465 . S
C818 C813 1.399 . S
C818 C817 1.394 1_556 S
C818 C819 1.516 . S
C819 C818 1.516 . S
C819 C820 1.502 . S
C819 C821 1.561 . S
C819 C822 1.498 1_556 S
C820 H804 0.959 . S
C820 H805 0.959 . S
C820 H806 0.961 . S
C820 C819 1.502 . S
C821 H807 0.960 . S
C821 H808 0.961 . S
C821 H809 0.959 1_556 S
C821 C819 1.561 . S
C822 C819 1.498 1_554 S
C822 C823 1.420 . S
C822 C827 1.397 . S
C823 C817 1.465 . S
C823 C822 1.420 . S
C823 C824 1.399 . S
C824 H810 0.929 . S
C824 C823 1.399 . S
C824 C825 1.385 . S
C825 H811 0.931 . S
C825 C824 1.385 . S
C825 C826 1.389 . S
C826 C825 1.389 . S
C826 C827 1.387 . S
C827 H812 0.930 1_554 S
C827 C822 1.397 . S
C827 C826 1.387 . S
H828 C840 0.930 . S
H829 C842 0.930 . S
H830 C843 0.930 . S
H831 C847 0.959 . S
H832 C847 0.959 . S
H833 C847 0.961 . S
H834 C848 0.960 . S
H835 C848 0.961 . S
H836 C848 0.959 . S
H837 C851 0.929 . S
H838 C852 0.931 1_455 S
H839 C854 0.930 . S
C840 H828 0.930 . S
C840 C841 1.399 . S
C840 C845 1.399 . S
C841 C840 1.399 . S
C841 C842 1.376 . S
C842 H829 0.930 . S
C842 C841 1.376 . S
C842 C843 1.388 . S
C843 H830 0.930 . S
C843 C842 1.388 . S
C843 C844 1.390 . S
C844 C843 1.390 . S
C844 C845 1.394 . S
C844 C850 1.465 1_554 S
C845 C840 1.399 . S
C845 C844 1.394 . S
C845 C846 1.505 1_554 S
C846 C845 1.505 1_556 S
C846 C847 1.469 1_556 S
C846 C848 1.599 . S
C846 C849 1.538 . S
C847 H831 0.959 . S
C847 H832 0.959 . S
C847 H833 0.961 . S
C847 C846 1.469 1_554 S
C848 H834 0.960 . S
C848 H835 0.961 . S
C848 H836 0.959 . S
C848 C846 1.599 . S
C849 C846 1.538 . S
C849 C850 1.396 . S
C849 C854 1.390 . S
C850 C844 1.465 1_556 S
C850 C849 1.396 . S
C850 C851 1.399 . S
C851 H837 0.929 . S
C851 C850 1.399 . S
C851 C852 1.385 . S
C852 H838 0.931 1_655 S
C852 C851 1.385 . S
C852 C853 1.389 . S
C853 C852 1.389 . S
C853 C854 1.387 . S
C854 H839 0.930 . S
C854 C849 1.390 . S
C854 C853 1.387 . S
H855 C867 0.930 1_554 S
H856 C869 0.930 . S
H857 C870 0.930 . S
H858 C874 0.959 . S
H859 C874 0.959 . S
H860 C874 0.961 . S
H861 C875 0.960 . S
H862 C875 0.961 . S
H863 C875 0.959 . S
H864 C878 0.929 . S
H865 C879 0.928 1_556 S
H866 C881 0.930 . S
C867 H855 0.930 1_556 S
C867 C868 1.399 . S
C867 C872 1.399 1_556 S
C868 C867 1.399 . S
C868 C869 1.376 . S
C869 H856 0.930 . S
C869 C868 1.376 . S
C869 C870 1.388 . S
C870 H857 0.930 . S
C870 C869 1.388 . S
C870 C871 1.390 . S
C871 C870 1.390 . S
C871 C872 1.394 1_556 S
C871 C877 1.465 . S
C872 C867 1.399 1_554 S
C872 C871 1.394 1_554 S
C872 C873 1.516 . S
C873 C872 1.516 . S
C873 C874 1.502 . S
C873 C875 1.561 . S
C873 C876 1.526 . S
C874 H858 0.959 . S
C874 H859 0.959 . S
C874 H860 0.961 . S
C874 C873 1.502 . S
C875 H861 0.960 . S
C875 H862 0.961 . S
C875 H863 0.959 . S
C875 C873 1.561 . S
C876 C873 1.526 . S
C876 C877 1.396 1_554 S
C876 C881 1.390 . S
C877 C871 1.465 . S
C877 C876 1.396 1_556 S
C877 C878 1.399 . S
C878 H864 0.929 . S
C878 C877 1.399 . S
C878 C879 1.382 1_556 S
C879 H865 0.928 1_554 S
C879 C878 1.382 1_554 S
C879 C880 1.396 . S
C880 C879 1.396 . S
C880 C881 1.387 . S
C881 H866 0.930 . S
C881 C876 1.390 . S
C881 C880 1.387 . S
H882 C894 0.930 . S
H883 C896 0.930 . S
H884 C897 0.930 . S
H885 C901 0.959 . S
H886 C901 0.959 . S
H887 C901 0.961 . S
H888 C902 0.960 . S
H889 C902 0.961 . S
H890 C902 0.959 . S
H891 C905 0.929 . S
H892 C906 0.931 . S
H893 C908 0.930 . S
C894 H882 0.930 . S
C894 C895 1.399 . S
C894 C899 1.399 . S
C895 C894 1.399 . S
C895 C896 1.376 . S
C896 H883 0.930 . S
C896 C895 1.376 . S
C896 C897 1.388 . S
C897 H884 0.930 . S
C897 C896 1.388 . S
C897 C898 1.390 . S
C898 C897 1.390 . S
C898 C899 1.394 . S
C898 C904 1.465 . S
C899 C894 1.399 . S
C899 C898 1.394 . S
C899 C900 1.516 . S
C900 C899 1.516 . S
C900 C901 1.502 . S
C900 C902 1.561 . S
C900 C903 1.526 . S
C901 H885 0.959 . S
C901 H886 0.959 . S
C901 H887 0.961 . S
C901 C900 1.502 . S
C902 H888 0.960 . S
C902 H889 0.961 . S
C902 H890 0.959 . S
C902 C900 1.561 . S
C903 C900 1.526 . S
C903 C904 1.396 . S
C903 C908 1.390 . S
C904 C898 1.465 . S
C904 C903 1.396 . S
C904 C905 1.399 . S
C905 H891 0.929 . S
C905 C904 1.399 . S
C905 C906 1.385 . S
C906 H892 0.931 . S
C906 C905 1.385 . S
C906 C907 1.389 . S
C907 C906 1.389 . S
C907 C908 1.387 . S
C908 H893 0.930 . S
C908 C903 1.390 . S
C908 C907 1.387 . S
H909 C921 0.930 . S
H910 C923 0.930 . S
H911 C924 0.930 . S
H912 C928 0.959 . S
H913 C928 0.959 . S
H914 C928 0.961 . S
H915 C929 0.960 . S
H916 C929 0.961 . S
H917 C929 0.959 . S
H918 C932 0.929 . S
H919 C933 0.931 . S
H920 C935 0.930 . S
C921 H909 0.930 . S
C921 C922 1.399 . S
C921 C926 1.399 . S
C922 C921 1.399 . S
C922 C923 1.376 . S
C923 H910 0.930 . S
C923 C922 1.376 . S
C923 C924 1.388 . S
C924 H911 0.930 . S
C924 C923 1.388 . S
C924 C925 1.390 . S
C925 C924 1.390 . S
C925 C926 1.394 . S
C925 C931 1.465 . S
C926 C921 1.399 . S
C926 C925 1.394 . S
C926 C927 1.516 . S
C927 C926 1.516 . S
C927 C928 1.502 . S
C927 C929 1.561 . S
C927 C930 1.526 . S
C928 H912 0.959 . S
C928 H913 0.959 . S
C928 H914 0.961 . S
C928 C927 1.502 . S
C929 H915 0.960 . S
C929 H916 0.961 . S
C929 H917 0.959 . S
C929 C927 1.561 . S
C930 C927 1.526 . S
C930 C931 1.396 . S
C930 C935 1.390 . S
C931 C925 1.465 . S
C931 C930 1.396 . S
C931 C932 1.399 . S
C932 H918 0.929 . S
C932 C931 1.399 . S
C932 C933 1.385 . S
C933 H919 0.931 . S
C933 C932 1.385 . S
C933 C934 1.389 . S
C934 C933 1.389 . S
C934 C935 1.387 . S
C935 H920 0.930 . S
C935 C930 1.390 . S
C935 C934 1.387 . S
H936 C948 0.930 . S
H937 C950 0.930 . S
H938 C951 0.930 . S
H939 C955 0.959 . S
H940 C955 0.959 . S
H941 C955 0.961 . S
H942 C956 0.960 . S
H943 C956 0.961 . S
H944 C956 0.959 . S
H945 C959 0.929 . S
H946 C960 0.931 . S
H947 C962 0.930 . S
C948 H936 0.930 . S
C948 C949 1.399 . S
C948 C953 1.399 . S
C949 C948 1.399 . S
C949 C950 1.376 . S
C950 H937 0.930 . S
C950 C949 1.376 . S
C950 C951 1.388 . S
C951 H938 0.930 . S
C951 C950 1.388 . S
C951 C952 1.390 . S
C952 C951 1.390 . S
C952 C953 1.394 . S
C952 C958 1.465 . S
C953 C948 1.399 . S
C953 C952 1.394 . S
C953 C954 1.516 . S
C954 C953 1.516 . S
C954 C955 1.502 . S
C954 C956 1.561 . S
C954 C957 1.526 . S
C955 H939 0.959 . S
C955 H940 0.959 . S
C955 H941 0.961 . S
C955 C954 1.502 . S
C956 H942 0.960 . S
C956 H943 0.961 . S
C956 H944 0.959 . S
C956 C954 1.561 . S
C957 C954 1.526 . S
C957 C958 1.396 . S
C957 C962 1.390 . S
C958 C952 1.465 . S
C958 C957 1.396 . S
C958 C959 1.399 . S
C959 H945 0.929 . S
C959 C958 1.399 . S
C959 C960 1.385 . S
C960 H946 0.931 . S
C960 C959 1.385 . S
C960 C961 1.389 . S
C961 C960 1.389 . S
C961 C962 1.387 . S
C962 H947 0.930 . S
C962 C957 1.390 . S
C962 C961 1.387 . S
H963 C975 0.930 . S
H964 C977 0.930 . S
H965 C978 0.930 . S
H966 C982 0.959 . S
H967 C982 0.959 . S
H968 C982 0.961 . S
H969 C983 0.960 . S
H970 C983 0.961 . S
H971 C983 0.959 . S
H972 C986 0.929 . S
H973 C987 0.931 . S
H974 C989 0.930 . S
C975 H963 0.930 . S
C975 C976 1.399 . S
C975 C980 1.399 . S
C976 C975 1.399 . S
C976 C977 1.376 . S
C977 H964 0.930 . S
C977 C976 1.376 . S
C977 C978 1.388 . S
C978 H965 0.930 . S
C978 C977 1.388 . S
C978 C979 1.390 . S
C979 C978 1.390 . S
C979 C980 1.394 . S
C979 C985 1.465 . S
C980 C975 1.399 . S
C980 C979 1.394 . S
C980 C981 1.516 . S
C981 C980 1.516 . S
C981 C982 1.502 . S
C981 C983 1.561 . S
C981 C984 1.526 . S
C982 H966 0.959 . S
C982 H967 0.959 . S
C982 H968 0.961 . S
C982 C981 1.502 . S
C983 H969 0.960 . S
C983 H970 0.961 . S
C983 H971 0.959 . S
C983 C981 1.561 . S
C984 C981 1.526 . S
C984 C985 1.396 . S
C984 C989 1.390 . S
C985 C979 1.465 . S
C985 C984 1.396 . S
C985 C986 1.399 . S
C986 H972 0.929 . S
C986 C985 1.399 . S
C986 C987 1.385 . S
C987 H973 0.931 . S
C987 C986 1.385 . S
C987 C988 1.389 . S
C988 C987 1.389 . S
C988 C989 1.387 . S
C989 H974 0.930 . S
C989 C984 1.390 . S
C989 C988 1.387 . S
H990 C1002 0.930 . S
H991 C1004 0.930 . S
H992 C1005 0.930 . S
H993 C1009 0.959 . S
H994 C1009 0.959 . S
H995 C1009 0.961 . S
H996 C1010 0.960 . S
H997 C1010 0.961 . S
H998 C1010 0.959 . S
H999 C1013 0.929 . S
H1000 C1014 0.931 . S
H1001 C1016 0.926 . S
C1002 H990 0.930 . S
C1002 C1003 1.399 . S
C1002 C1007 1.399 . S
C1003 C1002 1.399 . S
C1003 C1004 1.376 . S
C1004 H991 0.930 . S
C1004 C1003 1.376 . S
C1004 C1005 1.388 . S
C1005 H992 0.930 . S
C1005 C1004 1.388 . S
C1005 C1006 1.390 . S
C1006 C1005 1.390 . S
C1006 C1007 1.394 . S
C1006 C1012 1.465 . S
C1007 C1002 1.399 . S
C1007 C1006 1.394 . S
C1007 C1008 1.516 . S
C1008 C1007 1.516 . S
C1008 C1009 1.502 . S
C1008 C1010 1.561 1_545 S
C1008 C1011 1.526 . S
C1009 H993 0.959 . S
C1009 H994 0.959 . S
C1009 H995 0.961 . S
C1009 C1008 1.502 . S
C1010 H996 0.960 . S
C1010 H997 0.961 . S
C1010 H998 0.959 . S
C1010 C1008 1.561 1_565 S
C1011 C1008 1.526 . S
C1011 C1012 1.396 . S
C1011 C1016 1.385 . S
C1012 C1006 1.465 . S
C1012 C1011 1.396 . S
C1012 C1013 1.399 1_545 S
C1013 H999 0.929 . S
C1013 C1012 1.399 1_565 S
C1013 C1014 1.385 . S
C1014 H1000 0.931 . S
C1014 C1013 1.385 . S
C1014 C1015 1.389 . S
C1015 C1014 1.389 . S
C1015 C1016 1.388 1_565 S
C1016 H1001 0.926 . S
C1016 C1011 1.385 . S
C1016 C1015 1.388 1_545 S
H1017 C1029 0.930 . S
H1018 C1031 0.930 . S
H1019 C1032 0.930 . S
H1020 C1036 0.959 . S
H1021 C1036 0.959 . S
H1022 C1036 0.961 . S
H1023 C1037 0.960 . S
H1024 C1037 0.961 . S
H1025 C1037 0.959 . S
H1026 C1040 0.929 . S
H1027 C1041 0.931 . S
H1028 C1043 0.930 . S
C1029 H1017 0.930 . S
C1029 C1030 1.399 . S
C1029 C1034 1.399 . S
C1030 C1029 1.399 . S
C1030 C1031 1.376 . S
C1031 H1018 0.930 . S
C1031 C1030 1.376 . S
C1031 C1032 1.388 . S
C1032 H1019 0.930 . S
C1032 C1031 1.388 . S
C1032 C1033 1.390 . S
C1033 C1032 1.390 . S
C1033 C1034 1.394 . S
C1033 C1039 1.465 . S
C1034 C1029 1.399 . S
C1034 C1033 1.394 . S
C1034 C1035 1.516 . S
C1035 C1034 1.516 . S
C1035 C1036 1.502 1_655 S
C1035 C1037 1.561 . S
C1035 C1038 1.526 . S
C1036 H1020 0.959 . S
C1036 H1021 0.959 . S
C1036 H1022 0.961 . S
C1036 C1035 1.502 1_455 S
C1037 H1023 0.960 . S
C1037 H1024 0.961 . S
C1037 H1025 0.959 . S
C1037 C1035 1.561 . S
C1038 C1035 1.526 . S
C1038 C1039 1.396 . S
C1038 C1043 1.390 . S
C1039 C1033 1.465 . S
C1039 C1038 1.396 . S
C1039 C1040 1.399 . S
C1040 H1026 0.929 . S
C1040 C1039 1.399 . S
C1040 C1041 1.385 1_655 S
C1041 H1027 0.931 . S
C1041 C1040 1.385 1_455 S
C1041 C1042 1.389 . S
C1042 C1041 1.389 . S
C1042 C1043 1.387 1_455 S
C1043 H1028 0.930 . S
C1043 C1038 1.390 . S
C1043 C1042 1.387 1_655 S
H1044 C1056 0.930 . S
H1045 C1058 0.930 . S
H1046 C1059 0.930 . S
H1047 C1063 0.959 . S
H1048 C1063 0.959 . S
H1049 C1063 0.961 . S
H1050 C1064 0.960 . S
H1051 C1064 0.961 . S
H1052 C1064 0.959 . S
H1053 C1067 0.929 . S
H1054 C1068 0.931 . S
H1055 C1070 0.930 . S
C1056 H1044 0.930 . S
C1056 C1057 1.399 . S
C1056 C1061 1.399 . S
C1057 C1056 1.399 . S
C1057 C1058 1.376 . S
C1058 H1045 0.930 . S
C1058 C1057 1.376 . S
C1058 C1059 1.388 . S
C1059 H1046 0.930 . S
C1059 C1058 1.388 . S
C1059 C1060 1.390 . S
C1060 C1059 1.390 . S
C1060 C1061 1.394 . S
C1060 C1066 1.465 . S
C1061 C1056 1.399 . S
C1061 C1060 1.394 . S
C1061 C1062 1.516 . S
C1062 C1061 1.516 . S
C1062 C1063 1.502 . S
C1062 C1064 1.561 . S
C1062 C1065 1.526 . S
C1063 H1047 0.959 . S
C1063 H1048 0.959 . S
C1063 H1049 0.961 . S
C1063 C1062 1.502 . S
C1064 H1050 0.960 . S
C1064 H1051 0.961 . S
C1064 H1052 0.959 . S
C1064 C1062 1.561 . S
C1065 C1062 1.526 . S
C1065 C1066 1.396 . S
C1065 C1070 1.390 . S
C1066 C1060 1.465 . S
C1066 C1065 1.396 . S
C1066 C1067 1.399 . S
C1067 H1053 0.929 . S
C1067 C1066 1.399 . S
C1067 C1068 1.385 . S
C1068 H1054 0.931 . S
C1068 C1067 1.385 . S
C1068 C1069 1.389 . S
C1069 C1068 1.389 . S
C1069 C1070 1.387 . S
C1070 H1055 0.930 . S
C1070 C1065 1.390 . S
C1070 C1069 1.387 . S
H1071 C1083 0.930 . S
H1072 C1085 0.930 . S
H1073 C1086 0.930 . S
H1074 C1090 0.959 . S
H1075 C1090 0.959 . S
H1076 C1090 0.961 . S
H1077 C1091 0.960 . S
H1078 C1091 0.961 . S
H1079 C1091 0.959 . S
H1080 C1094 0.929 . S
H1081 C1095 0.931 . S
H1082 C1097 0.930 . S
C1083 H1071 0.930 . S
C1083 C1084 1.399 1_565 S
C1083 C1088 1.399 . S
C1084 C1083 1.399 1_545 S
C1084 C1085 1.376 . S
C1085 H1072 0.930 . S
C1085 C1084 1.376 . S
C1085 C1086 1.388 . S
C1086 H1073 0.930 . S
C1086 C1085 1.388 . S
C1086 C1087 1.390 . S
C1087 C1086 1.390 . S
C1087 C1088 1.394 1_545 S
C1087 C1093 1.465 . S
C1088 C1083 1.399 . S
C1088 C1087 1.394 1_565 S
C1088 C1089 1.516 . S
C1089 C1088 1.516 . S
C1089 C1090 1.502 . S
C1089 C1091 1.561 . S
C1089 C1092 1.526 . S
C1090 H1074 0.959 . S
C1090 H1075 0.959 . S
C1090 H1076 0.961 . S
C1090 C1089 1.502 . S
C1091 H1077 0.960 . S
C1091 H1078 0.961 . S
C1091 H1079 0.959 . S
C1091 C1089 1.561 . S
C1092 C1089 1.526 . S
C1092 C1093 1.396 1_565 S
C1092 C1097 1.390 . S
C1093 C1087 1.465 . S
C1093 C1092 1.396 1_545 S
C1093 C1094 1.399 . S
C1094 H1080 0.929 . S
C1094 C1093 1.399 . S
C1094 C1095 1.385 . S
C1095 H1081 0.931 . S
C1095 C1094 1.385 . S
C1095 C1096 1.389 1_545 S
C1096 C1095 1.389 1_565 S
C1096 C1097 1.387 . S
C1097 H1082 0.930 . S
C1097 C1092 1.390 . S
C1097 C1096 1.387 . S
H1098 C1110 0.930 . S
H1099 C1112 0.930 . S
H1100 C1113 0.930 . S
H1101 C1117 0.959 . S
H1102 C1117 0.959 . S
H1103 C1117 0.961 . S
H1104 C1118 0.960 . S
H1105 C1118 0.961 . S
H1106 C1118 0.959 . S
H1107 C1121 0.929 . S
H1108 C1122 0.931 . S
H1109 C1124 0.930 . S
C1110 H1098 0.930 . S
C1110 C1111 1.399 1_655 S
C1110 C1115 1.399 . S
C1111 C1110 1.399 1_455 S
C1111 C1112 1.376 . S
C1112 H1099 0.930 . S
C1112 C1111 1.376 . S
C1112 C1113 1.388 . S
C1113 H1100 0.930 . S
C1113 C1112 1.388 . S
C1113 C1114 1.390 . S
C1114 C1113 1.390 . S
C1114 C1115 1.394 1_455 S
C1114 C1120 1.465 . S
C1115 C1110 1.399 . S
C1115 C1114 1.394 1_655 S
C1115 C1116 1.516 . S
C1116 C1115 1.516 . S
C1116 C1117 1.502 . S
C1116 C1118 1.561 . S
C1116 C1119 1.526 . S
C1117 H1101 0.959 . S
C1117 H1102 0.959 . S
C1117 H1103 0.961 . S
C1117 C1116 1.502 . S
C1118 H1104 0.960 . S
C1118 H1105 0.961 . S
C1118 H1106 0.959 . S
C1118 C1116 1.561 . S
C1119 C1116 1.526 . S
C1119 C1120 1.396 1_655 S
C1119 C1124 1.390 . S
C1120 C1114 1.465 . S
C1120 C1119 1.396 1_455 S
C1120 C1121 1.399 . S
C1121 H1107 0.929 . S
C1121 C1120 1.399 . S
C1121 C1122 1.385 . S
C1122 H1108 0.931 . S
C1122 C1121 1.385 . S
C1122 C1123 1.389 . S
C1123 C1122 1.389 . S
C1123 C1124 1.387 1_455 S
C1124 H1109 0.930 . S
C1124 C1119 1.390 . S
C1124 C1123 1.387 1_655 S
H1125 C1137 0.930 . S
H1126 C1139 0.930 . S
H1127 C1140 0.930 . S
H1128 C1144 0.959 . S
H1129 C1144 0.959 . S
H1130 C1144 0.961 . S
H1131 C1145 0.960 . S
H1132 C1145 0.961 . S
H1133 C1145 0.959 . S
H1134 C1148 0.929 . S
H1135 C1149 0.931 . S
H1136 C1151 0.930 . S
C1137 H1125 0.930 . S
C1137 C1138 1.399 . S
C1137 C1142 1.399 . S
C1138 C1137 1.399 . S
C1138 C1139 1.376 . S
C1139 H1126 0.930 . S
C1139 C1138 1.376 . S
C1139 C1140 1.388 . S
C1140 H1127 0.930 . S
C1140 C1139 1.388 . S
C1140 C1141 1.390 . S
C1141 C1140 1.390 . S
C1141 C1142 1.394 . S
C1141 C1147 1.465 . S
C1142 C1137 1.399 . S
C1142 C1141 1.394 . S
C1142 C1143 1.516 . S
C1143 C1142 1.516 . S
C1143 C1144 1.502 . S
C1143 C1145 1.561 . S
C1143 C1146 1.526 . S
C1144 H1128 0.959 . S
C1144 H1129 0.959 . S
C1144 H1130 0.961 . S
C1144 C1143 1.502 . S
C1145 H1131 0.960 . S
C1145 H1132 0.961 . S
C1145 H1133 0.959 . S
C1145 C1143 1.561 . S
C1146 C1143 1.526 . S
C1146 C1147 1.396 . S
C1146 C1151 1.390 . S
C1147 C1141 1.465 . S
C1147 C1146 1.396 . S
C1147 C1148 1.399 . S
C1148 H1134 0.929 . S
C1148 C1147 1.399 . S
C1148 C1149 1.385 . S
C1149 H1135 0.931 . S
C1149 C1148 1.385 . S
C1149 C1150 1.389 . S
C1150 C1149 1.389 . S
C1150 C1151 1.387 . S
C1151 H1136 0.930 . S
C1151 C1146 1.390 . S
C1151 C1150 1.387 . S
H1152 C1164 0.930 . S
H1153 C1166 0.930 . S
H1154 C1167 0.930 . S
H1155 C1171 0.959 . S
H1156 C1171 0.959 . S
H1157 C1171 0.961 . S
H1158 C1172 0.960 . S
H1159 C1172 0.961 . S
H1160 C1172 0.959 . S
H1161 C1175 0.929 . S
H1162 C1176 0.931 . S
H1163 C1178 0.930 . S
C1164 H1152 0.930 . S
C1164 C1165 1.399 . S
C1164 C1169 1.399 . S
C1165 C1164 1.399 . S
C1165 C1166 1.376 . S
C1166 H1153 0.930 . S
C1166 C1165 1.376 . S
C1166 C1167 1.388 . S
C1167 H1154 0.930 . S
C1167 C1166 1.388 . S
C1167 C1168 1.390 . S
C1168 C1167 1.390 . S
C1168 C1169 1.394 . S
C1168 C1174 1.465 . S
C1169 C1164 1.399 . S
C1169 C1168 1.394 . S
C1169 C1170 1.516 . S
C1170 C1169 1.516 . S
C1170 C1171 1.502 . S
C1170 C1172 1.561 . S
C1170 C1173 1.526 . S
C1171 H1155 0.959 . S
C1171 H1156 0.959 . S
C1171 H1157 0.961 . S
C1171 C1170 1.502 . S
C1172 H1158 0.960 . S
C1172 H1159 0.961 . S
C1172 H1160 0.959 . S
C1172 C1170 1.561 . S
C1173 C1170 1.526 . S
C1173 C1174 1.396 . S
C1173 C1178 1.390 . S
C1174 C1168 1.465 . S
C1174 C1173 1.396 . S
C1174 C1175 1.399 . S
C1175 H1161 0.929 . S
C1175 C1174 1.399 . S
C1175 C1176 1.385 . S
C1176 H1162 0.931 . S
C1176 C1175 1.385 . S
C1176 C1177 1.389 . S
C1177 C1176 1.389 . S
C1177 C1178 1.387 . S
C1178 H1163 0.930 . S
C1178 C1173 1.390 . S
C1178 C1177 1.387 . S
H1179 C1191 0.930 . S
H1180 C1193 0.930 . S
H1181 C1194 0.930 . S
H1182 C1198 0.959 . S
H1183 C1198 0.959 . S
H1184 C1198 0.961 . S
H1185 C1199 0.960 . S
H1186 C1199 0.961 . S
H1187 C1199 0.959 . S
H1188 C1202 0.929 . S
H1189 C1203 0.931 . S
H1190 C1205 0.930 . S
C1191 H1179 0.930 . S
C1191 C1192 1.399 . S
C1191 C1196 1.399 . S
C1192 C1191 1.399 . S
C1192 C1193 1.376 . S
C1193 H1180 0.930 . S
C1193 C1192 1.376 . S
C1193 C1194 1.388 . S
C1194 H1181 0.930 . S
C1194 C1193 1.388 . S
C1194 C1195 1.390 . S
C1195 C1194 1.390 . S
C1195 C1196 1.394 . S
C1195 C1201 1.465 . S
C1196 C1191 1.399 . S
C1196 C1195 1.394 . S
C1196 C1197 1.516 . S
C1197 C1196 1.516 . S
C1197 C1198 1.502 . S
C1197 C1199 1.561 . S
C1197 C1200 1.526 . S
C1198 H1182 0.959 . S
C1198 H1183 0.959 . S
C1198 H1184 0.961 . S
C1198 C1197 1.502 . S
C1199 H1185 0.960 . S
C1199 H1186 0.961 . S
C1199 H1187 0.959 . S
C1199 C1197 1.561 . S
C1200 C1197 1.526 . S
C1200 C1201 1.396 . S
C1200 C1205 1.390 . S
C1201 C1195 1.465 . S
C1201 C1200 1.396 . S
C1201 C1202 1.399 . S
C1202 H1188 0.929 . S
C1202 C1201 1.399 . S
C1202 C1203 1.385 . S
C1203 H1189 0.931 . S
C1203 C1202 1.385 . S
C1203 C1204 1.389 . S
C1204 C1203 1.389 . S
C1204 C1205 1.387 . S
C1205 H1190 0.930 . S
C1205 C1200 1.390 . S
C1205 C1204 1.387 . S
C247 C5 1.918 . S
C259 C44 1.936 . S
C274 C18 1.911 . S
C286 C55 1.941 . S
C301 C70 1.925 . S
C313 C29 1.917 . S
C328 C83 1.938 . S
C340 C122 1.916 . S
C355 C94 1.905 . S
C367 C135 1.944 . S
C382 C146 1.905 . S
C394 C107 1.944 . S
C409 C198 1.930 . S
C421 C159 1.913 . S
C436 C213 1.915 . S
C448 C174 1.927 . S
C463 C224 1.941 . S
C475 C187 1.905 . S
C490 C10 1.606 . S
C502 C127 1.672 . S
C517 C23 1.634 . S
C529 C140 1.637 . S
C544 C147 1.615 . S
C556 C30 1.671 . S
C571 C49 1.624 . S
C583 C160 1.647 . S
C598 C56 1.614 . S
C610 C179 1.658 . S
C625 C75 1.636 . S
C637 C192 1.655 . S
C652 C88 1.616 . S
C664 C199 1.657 . S
C679 C95 1.664 . S
C691 C218 1.611 . S
C706 C225 1.647 . S
C718 C108 1.644 . S
C733 C3 0.845 . S
C745 C62 0.859 . S
C760 C16 0.862 . S
C772 C69 0.840 . S
C787 C31 0.851 . S
C799 C43 0.843 . S
C814 C42 0.851 . S
C826 C17 0.835 . S
C841 C36 0.857 . S
C853 C57 0.843 . S
C868 C68 0.832 . S
C880 C4 0.858 . S
C895 C81 0.846 . S
C907 C134 0.852 . S
C922 C153 0.828 . S
C934 C96 0.844 . S
C949 C121 0.859 . S
C961 C109 0.833 . S
C976 C101 0.830 . S
C988 C120 0.849 . S
C1003 C133 0.853 . S
C1015 C114 0.826 . S
C1030 C148 0.834 . S
C1042 C82 0.858 . S
C1057 C212 0.830 . S
C1069 C161 0.842 . S
C1084 C231 0.851 . S
C1096 C172 0.847 . S
C1111 C185 0.832 . S
C1123 C205 0.854 1_455 S
C1138 C173 0.848 . S
C1150 C200 0.842 . S
C1165 C186 0.854 . S
C1177 C211 0.834 . S
C1192 C166 0.851 . S
C1204 C226 0.840 . S
