# Generated by pormake.
# Topology cab, (5)-cn, num edge types: 1
# Building blocks:
#     Node 0, Type 0, BuildingBlock: XOMCOT_clean_sbu_0, # of connection points: 5
#     Node 1, Type 0, BuildingBlock: XOMCOT_clean_sbu_0, # of connection points: 5
#     Node 2, Type 0, BuildingBlock: XOMCOT_clean_sbu_0, # of connection points: 5
#     Node 3, Type 0, BuildingBlock: XOMCOT_clean_sbu_0, # of connection points: 5
#     Node 4, Type 0, BuildingBlock: XOMCOT_clean_sbu_0, # of connection points: 5
#     Node 5, Type 0, BuildingBlock: XOMCOT_clean_sbu_0, # of connection points: 5
#     Edge 6, Type (0, 0), BuildingBlock: CIFDUS_clean_linker_0, # of connection points: 2
#     Edge 7, Type (0, 0), BuildingBlock: CIFDUS_clean_linker_0, # of connection points: 2
#     Edge 8, Type (0, 0), BuildingBlock: CIFDUS_clean_linker_0, # of connection points: 2
#     Edge 9, Type (0, 0), BuildingBlock: CIFDUS_clean_linker_0, # of connection points: 2
#     Edge 10, Type (0, 0), BuildingBlock: CIFDUS_clean_linker_0, # of connection points: 2
#     Edge 11, Type (0, 0), BuildingBlock: CIFDUS_clean_linker_0, # of connection points: 2
#     Edge 12, Type (0, 0), BuildingBlock: CIFDUS_clean_linker_0, # of connection points: 2
#     Edge 13, Type (0, 0), BuildingBlock: CIFDUS_clean_linker_0, # of connection points: 2
#     Edge 14, Type (0, 0), BuildingBlock: CIFDUS_clean_linker_0, # of connection points: 2
#     Edge 15, Type (0, 0), BuildingBlock: CIFDUS_clean_linker_0, # of connection points: 2
#     Edge 16, Type (0, 0), BuildingBlock: CIFDUS_clean_linker_0, # of connection points: 2
#     Edge 17, Type (0, 0), BuildingBlock: CIFDUS_clean_linker_0, # of connection points: 2
#     Edge 18, Type (0, 0), BuildingBlock: CIFDUS_clean_linker_0, # of connection points: 2
#     Edge 19, Type (0, 0), BuildingBlock: CIFDUS_clean_linker_0, # of connection points: 2
#     Edge 20, Type (0, 0), BuildingBlock: CIFDUS_clean_linker_0, # of connection points: 2
# Relax obj value: 0.843
# Max RMSD: 0.228
# Mean RMSD: 0.225
data_MOF--net-cab--node1-XOMCOT_clean_sbu_0--edge1-CIFDUS_clean_linker_0
_symmetry_space_group_name_H-M    P1
_symmetry_Int_Tables_number       1
_symmetry_cell_setting            triclinic
loop_
_symmetry_equiv_pos_as_xyz
'x, y, z'
_cell_length_a     32.962487
_cell_length_b     32.851419
_cell_length_c     32.69961
_cell_angle_alpha  77.34274
_cell_angle_beta   75.872781
_cell_angle_gamma 77.362135
loop_
_atom_site_label
_atom_site_type_symbol
_atom_site_fract_x
_atom_site_fract_y
_atom_site_fract_z
_atom_type_partial_charge
Co0 Co 0.02501 0.98469 0.35837 0.0
C1 C 0.02958 0.90386 0.33455 0.0
C2 C 0.05139 0.89225 0.39328 0.0
C3 C 0.0568 0.85414 0.37962 0.0
N4 N 0.03444 0.92349 0.36466 0.0
N5 N 0.04283 0.8617 0.34277 0.0
H6 H 0.01909 0.92067 0.30553 0.0
H7 H 0.06114 0.89619 0.42106 0.0
C8 C 0.94015 0.96175 0.36816 0.0
O9 O 0.94952 0.92877 0.39731 0.0
N10 N 0.01554 0.04569 0.35035 0.0
C11 C 0.02743 0.07015 0.37183 0.0
C12 C 0.01494 0.11201 0.35484 0.0
C13 C -0.00354 0.07267 0.32052 0.0
N14 N -0.00448 0.11359 0.32244 0.0
C15 C 0.03723 0.97311 0.44325 0.0
C16 C 0.9596 0.02022 0.47389 0.0
C17 C -0.00753 0.0134 0.49609 0.0
C18 C 0.03072 0.9872 0.48183 0.0
C19 C 0.96731 0.00523 0.43549 0.0
N20 N 0.00646 0.98359 0.41959 0.0
H21 H 0.06894 0.9584 0.43007 0.0
H22 H 0.94341 0.01615 0.41633 0.0
H23 H 0.04433 0.05845 0.39773 0.0
H24 H 0.9849 0.06225 0.297 0.0
O25 O 0.08515 0.98311 0.3525 0.0
O26 O 0.05338 0.9876 0.2989 0.0
O27 O 0.96591 0.98751 0.3508 0.0
C28 C 0.08825 0.9859 0.31159 0.0
H29 H 0.07175 0.82361 0.39448 0.0
H30 H 0.02018 0.13903 0.36545 0.0
H31 H 0.92962 0.0404 0.48388 0.0
H32 H 0.05736 0.98182 0.49742 0.0
Co33 Co 0.08838 0.18215 0.75725 0.0
C34 C 0.01753 0.15438 0.82349 0.0
C35 C -0.00554 0.20691 0.77872 0.0
C36 C 0.96191 0.19996 0.81327 0.0
N37 N 0.0294 0.17757 0.78432 0.0
N38 N 0.97652 0.16713 0.84169 0.0
H39 H 0.03961 0.13119 0.83994 0.0
H40 H -0.00636 0.23533 0.75482 0.0
C41 C 0.08734 0.08986 0.77383 0.0
O42 O 0.05351 0.0995 0.75676 0.0
N43 N 0.14677 0.18758 0.73304 0.0
C44 C 0.16185 0.21889 0.70284 0.0
C45 C 0.20503 0.2141 0.70041 0.0
C46 C 0.18056 0.16409 0.74815 0.0
N47 N 0.21646 0.17937 0.72862 0.0
C48 C 0.04781 0.18972 0.6856 0.0
C49 C 0.10279 0.12139 0.65535 0.0
C50 C 0.0628 0.1335 0.64445 0.0
C51 C 0.03645 0.17023 0.65716 0.0
C52 C 0.1123 0.14126 0.68436 0.0
N53 N 0.08276 0.17183 0.70267 0.0
H54 H 0.02732 0.21754 0.69543 0.0
H55 H 0.14144 0.12853 0.69576 0.0
H56 H 0.14252 0.24453 0.68549 0.0
H57 H 0.17854 0.13811 0.775 0.0
O58 O 0.07237 0.24341 0.75021 0.0
O59 O 0.09222 0.20037 0.80734 0.0
O60 O 0.10606 0.11921 0.77639 0.0
C61 C 0.07773 0.23839 0.78937 0.0
H62 H 0.93137 0.22054 0.81901 0.0
H63 H 0.22604 0.23526 0.68081 0.0
H64 H 0.12523 0.09469 0.64422 0.0
H65 H 0.00611 0.18207 0.64782 0.0
Co66 Co 0.35685 0.03338 0.99632 0.0
C67 C 0.36391 0.06869 0.90374 0.0
C68 C 0.40766 0.01074 0.91458 0.0
C69 C 0.40826 0.02177 0.87132 0.0
N70 N 0.37943 0.03996 0.93506 0.0
N71 N 0.38071 0.05823 0.86472 0.0
H72 H 0.33776 0.09451 0.90925 0.0
H73 H 0.42398 0.98146 0.93009 0.0
C74 C 0.35635 0.93996 0.02611 0.0
O75 O 0.36336 0.94206 0.0634 0.0
N76 N 0.3336 0.02663 0.05747 0.0
C77 C 0.34781 0.03715 0.08842 0.0
C78 C 0.31835 0.03166 0.12623 0.0
C79 C 0.29551 0.01551 0.0768 0.0
N80 N 0.2854 0.01817 0.11883 0.0
C81 C 0.43064 0.05484 0.01067 0.0
C82 C 0.47446 0.97353 0.02959 0.0
C83 C 0.48681 0.00704 0.04067 0.0
C84 C 0.4662 0.04834 0.02847 0.0
C85 C 0.43862 0.98155 0.0115 0.0
N86 N 0.4148 0.02136 0.00616 0.0
H87 H 0.41426 0.08688 0.00371 0.0
H88 H 0.4303 0.95529 0.0028 0.0
H89 H 0.37654 0.04957 0.08406 0.0
H90 H 0.27551 0.00605 0.06009 0.0
O91 O 0.34536 0.09387 0.99395 0.0
O92 O 0.29968 0.0568 0.98698 0.0
O93 O 0.35523 0.97253 0.99646 0.0
C94 C 0.30734 0.09317 0.9899 0.0
H95 H 0.42503 0.00281 0.84711 0.0
H96 H 0.32028 0.03894 0.15633 0.0
H97 H 0.49101 0.9413 0.03661 0.0
H98 H 0.47631 0.07536 0.03445 0.0
Co99 Co -0.00579 0.34712 0.07327 0.0
C100 C 0.9055 0.36553 0.06806 0.0
C101 C 0.91872 0.41453 0.09383 0.0
C102 C 0.87543 0.42022 0.09668 0.0
N103 N 0.93753 0.3801 0.07569 0.0
N104 N 0.86729 0.38926 0.08038 0.0
H105 H 0.90973 0.33527 0.05808 0.0
H106 H 0.93408 0.4322 0.10778 0.0
C107 C 0.97915 0.3549 0.98488 0.0
O108 O 0.96616 0.39597 0.98222 0.0
N109 N 0.05027 0.31372 0.0711 0.0
C110 C 0.08111 0.32204 0.08685 0.0
C111 C 0.11744 0.29334 0.0766 0.0
C112 C 0.06789 0.27981 0.05188 0.0
N113 N 0.10912 0.26698 0.05453 0.0
C114 C 0.01998 0.42605 0.06795 0.0
C115 C 0.0716 0.42729 0.9871 0.0
C116 C 0.06996 0.45886 0.01009 0.0
C117 C 0.04395 0.45815 0.05095 0.0
C118 C 0.04779 0.39529 0.00568 0.0
N119 N 0.02098 0.3958 0.04492 0.0
H120 H 0.00274 0.42412 0.10065 0.0
H121 H 0.053 0.36892 0.98926 0.0
H122 H 0.07759 0.34774 0.10391 0.0
H123 H 0.05137 0.26564 0.03533 0.0
O124 O -0.00867 0.34926 0.13277 0.0
O125 O 0.9704 0.30017 0.10974 0.0
O126 O -0.00772 0.33237 0.01771 0.0
C127 C 0.97636 0.31402 0.14172 0.0
H128 H 0.8516 0.44308 0.11279 0.0
H129 H 0.14769 0.29191 0.08477 0.0
H130 H 0.09271 0.42619 0.9561 0.0
H131 H 0.04304 0.48162 0.06999 0.0
Co132 Co 0.78486 0.07954 0.12858 0.0
C133 C 0.75299 0.17222 0.12112 0.0
C134 C 0.77875 0.14733 0.17726 0.0
C135 C 0.77031 0.19059 0.17256 0.0
N136 N 0.76687 0.13524 0.14567 0.0
N137 N 0.75478 0.20644 0.13678 0.0
H138 H 0.7459 0.17437 0.09005 0.0
H139 H 0.79759 0.12721 0.19907 0.0
C140 C 0.77478 0.05436 0.22319 0.0
O141 O 0.73627 0.0769 0.2274 0.0
N142 N 0.80504 0.02517 0.11089 0.0
C143 C 0.7888 0.00725 0.08658 0.0
C144 C 0.81689 0.97127 0.07668 0.0
C145 C 0.84275 0.00057 0.11489 0.0
N146 N 0.85088 0.96745 0.09425 0.0
C147 C 0.69519 0.09507 0.13419 0.0
C148 C 0.68278 0.01416 0.17501 0.0
C149 C 0.64957 0.04277 0.1595 0.0
C150 C 0.65548 0.08408 0.14039 0.0
C151 C 0.72177 0.02686 0.16928 0.0
N152 N 0.72794 0.06651 0.1479 0.0
H153 H 0.70018 0.12554 0.11564 0.0
H154 H 0.74789 0.00385 0.17947 0.0
H155 H 0.7595 0.02035 0.07548 0.0
H156 H 0.86449 0.00778 0.13124 0.0
O157 O 0.78174 0.10462 0.07038 0.0
O158 O 0.8388 0.09595 0.09817 0.0
O159 O 0.79885 0.05312 0.18618 0.0
C160 C 0.82117 0.10867 0.06485 0.0
H161 H 0.78077 0.20892 0.19056 0.0
H162 H 0.8137 0.95089 0.05615 0.0
H163 H 0.67931 0.98174 0.18921 0.0
H164 H 0.63072 0.10655 0.12691 0.0
Co165 Co 0.14409 0.79501 0.01257 0.0
C166 C 0.1364 0.76939 0.10728 0.0
C167 C 0.19277 0.79503 0.07726 0.0
C168 C 0.18997 0.78734 0.12064 0.0
N169 N 0.16021 0.78211 0.06831 0.0
N170 N 0.15438 0.77142 0.13958 0.0
H171 H 0.10486 0.76229 0.11228 0.0
H172 H 0.21446 0.8135 0.05473 0.0
C173 C 0.23895 0.78016 0.98606 0.0
O174 O 0.24024 0.74252 0.01042 0.0
N175 N 0.12807 0.81035 0.95768 0.0
C176 C 0.10276 0.79301 0.94233 0.0
C177 C 0.09374 0.81927 0.9053 0.0
C178 C 0.13389 0.84663 0.93035 0.0
N179 N 0.11311 0.85324 0.89802 0.0
C180 C 0.1403 0.70717 0.03908 0.0
C181 C 0.18802 0.68112 0.96415 0.0
C182 C 0.17157 0.65128 -0.00177 0.0
C183 C 0.14764 0.66466 0.03602 0.0
C184 C 0.18079 0.72351 0.96901 0.0
N185 N 0.15768 0.73589 0.00649 0.0
H186 H 0.11909 0.71707 0.06706 0.0
H187 H 0.19305 0.74658 0.94238 0.0
H188 H 0.09005 0.76454 0.95806 0.0
H189 H 0.15021 0.86928 0.93628 0.0
O190 O 0.08496 0.79767 0.03985 0.0
O191 O 0.11976 0.85175 0.02313 0.0
O192 O 0.20327 0.80423 0.98304 0.0
C193 C 0.08416 0.83761 0.0391 0.0
H194 H 0.20978 0.79747 0.13712 0.0
H195 H 0.07298 0.81447 0.88643 0.0
H196 H 0.2055 0.67189 0.93399 0.0
H197 H 0.13265 0.64273 0.06221 0.0
H198 H 0.93572 0.24697 0.17105 0.0
H199 H 0.0119 0.31911 0.20723 0.0
H200 H 0.02154 0.2642 0.26971 0.0
H201 H 0.01669 0.19162 0.30753 0.0
H202 H 0.93976 0.11992 0.27141 0.0
H203 H 0.92249 0.17868 0.21511 0.0
C204 C 0.9537 0.25108 0.19312 0.0
C205 C 0.97349 0.28675 0.18431 0.0
C206 C 0.95979 0.21907 0.2284 0.0
C207 C -0.00368 0.29193 0.21335 0.0
C208 C 0.00219 0.26033 0.24885 0.0
C209 C -0.00454 0.18893 0.28808 0.0
C210 C 0.98062 0.15061 0.29323 0.0
C211 C 0.98536 0.22307 0.25576 0.0
C212 C 0.95295 0.14826 0.26747 0.0
C213 C 0.9427 0.18206 0.23537 0.0
H214 H 0.82129 0.97726 0.24274 0.0
H215 H 0.77168 0.09644 0.28656 0.0
H216 H 0.81573 0.07576 0.34062 0.0
H217 H 0.87597 0.02794 0.36754 0.0
H218 H 0.92283 0.90716 0.32675 0.0
H219 H 0.87163 0.92364 0.27973 0.0
C220 C 0.8195 -0.00192 0.26496 0.0
C221 C 0.79396 0.03829 0.26079 0.0
C222 C 0.84441 0.98573 0.29617 0.0
C223 C 0.79125 0.06523 0.28958 0.0
C224 C 0.81656 0.05355 0.3202 0.0
C225 C 0.87378 0.00482 0.34936 0.0
C226 C 0.90266 0.96657 0.35018 0.0
C227 C 0.84428 0.01449 0.32275 0.0
C228 C 0.90029 0.93663 0.3266 0.0
C229 C 0.87141 0.94622 0.29951 0.0
H230 H 0.11113 0.80149 0.3261 0.0
H231 H -0.00781 0.86137 0.28959 0.0
H232 H 0.01383 0.83021 0.22453 0.0
H233 H 0.07218 0.79869 0.17205 0.0
H234 H 0.19291 0.74305 0.2065 0.0
H235 H 0.16491 0.75887 0.27885 0.0
C236 C 0.08939 0.80635 0.30471 0.0
C237 C 0.05046 0.83414 0.3121 0.0
C238 C 0.10274 0.7896 0.26671 0.0
C239 C 0.0226 0.84052 0.28401 0.0
C240 C 0.03503 0.82286 0.24681 0.0
C241 C 0.09179 0.7886 0.1959 0.0
C242 C 0.13465 0.77022 0.18404 0.0
C243 C 0.0759 0.79922 0.23679 0.0
C244 C 0.15994 0.7577 0.21505 0.0
C245 C 0.144 0.7669 0.25625 0.0
H246 H 0.27383 -0.00212 0.20494 0.0
H247 H 0.20833 0.02302 0.10031 0.0
H248 H 0.14198 0.01309 0.15079 0.0
H249 H 0.10177 -0.00011 0.22478 0.0
H250 H 0.16651 0.97759 0.3296 0.0
H251 H 0.23376 0.98428 0.27893 0.0
C252 C 0.24504 0.00147 0.19313 0.0
C253 C 0.24633 0.01118 0.14876 0.0
C254 C 0.20672 -0.00361 0.22242 0.0
C255 C 0.20867 0.01497 0.13414 0.0
C256 C 0.17051 0.0096 0.16305 0.0
C257 C 0.13063 -0.0037 0.23654 0.0
C258 C 0.12914 0.98832 0.28088 0.0
C259 C 0.16911 0.00058 0.20725 0.0
C260 C 0.16678 0.98383 0.29561 0.0
C261 C 0.20526 0.98767 0.26666 0.0
H262 H 0.16288 0.91335 0.87248 0.0
H263 H 0.04866 0.88158 0.85464 0.0
H264 H 0.03305 0.95097 0.81112 0.0
H265 H 0.04777 0.02298 0.78412 0.0
H266 H 0.1591 0.05676 0.80621 0.0
H267 H 0.17938 0.98444 0.84277 0.0
C268 C 0.13445 0.9215 0.85931 0.0
C269 C 0.10672 0.89214 0.86769 0.0
C270 C 0.12481 0.9621 0.83544 0.0
C271 C 0.07078 0.90311 0.84893 0.0
C272 C 0.06155 0.94309 0.82423 0.0
C273 C 0.07669 0.01452 0.79659 0.0
C274 C 0.10165 0.04537 0.79279 0.0
C275 C 0.08775 0.97316 0.81822 0.0
C276 C 0.13909 0.03374 0.80902 0.0
C277 C 0.15073 0.99238 0.82991 0.0
H278 H 0.35901 0.14008 0.83212 0.0
H279 H 0.35874 0.01343 0.81626 0.0
H280 H 0.31082 0.04114 0.76632 0.0
H281 H 0.25985 0.10059 0.73724 0.0
H282 H 0.26025 0.22734 0.75216 0.0
H283 H 0.31768 0.20093 0.79195 0.0
C284 C 0.34929 0.11887 0.81663 0.0
C285 C 0.36194 0.07493 0.8279 0.0
C286 C 0.32144 0.13507 0.78832 0.0
C287 C 0.34955 0.04741 0.80775 0.0
C288 C 0.32183 0.06321 0.77958 0.0
C289 C 0.27357 0.12231 0.74824 0.0
C290 C 0.25608 0.16557 0.74232 0.0
C291 C 0.30624 0.1068 0.77108 0.0
C292 C 0.27369 0.1939 0.75635 0.0
C293 C 0.30614 0.17875 0.77935 0.0
H294 H 0.02573 0.22347 0.864 0.0
H295 H 0.08243 0.32344 0.77541 0.0
H296 H 0.05069 0.37208 0.82709 0.0
H297 H 0.01323 0.38239 0.90124 0.0
H298 H 0.95832 0.27989 0.98782 0.0
H299 H 0.98181 0.23594 0.93243 0.0
C300 C 0.03092 0.25604 0.85586 0.0
C301 C 0.05702 0.26992 0.8168 0.0
C302 C 0.01252 0.2832 0.88517 0.0
C303 C 0.06278 0.31226 0.80582 0.0
C304 C 0.04465 0.33986 0.83528 0.0
C305 C 0.00543 0.35092 0.90726 0.0
C306 C 0.98429 0.33406 0.94827 0.0
C307 C 0.02024 0.3253 0.87553 0.0
C308 C 0.97469 0.29316 0.95634 0.0
C309 C 0.98833 0.26801 0.9249 0.0
H310 H 0.90693 0.1044 0.03753 0.0
H311 H 0.78793 0.14884 0.99562 0.0
H312 H 0.82573 0.17034 0.92275 0.0
H313 H 0.89223 0.17399 0.87034 0.0
H314 H 0.0117 0.13133 0.91137 0.0
H315 H 0.97417 0.11086 0.98478 0.0
C316 C 0.88935 0.11921 0.01249 0.0
C317 C 0.84473 0.1249 0.02193 0.0
C318 C 0.91135 0.1312 0.97034 0.0
C319 C 0.82232 0.14389 0.98916 0.0
C320 C 0.84389 0.15615 0.94742 0.0
C321 C 0.91011 0.16058 0.89534 0.0
C322 C 0.95473 0.15404 0.88507 0.0
C323 C 0.88836 0.1495 0.93756 0.0
C324 C 0.97738 0.13602 0.91795 0.0
C325 C 0.9559 0.12467 0.96014 0.0
H326 H 0.22154 0.09775 0.00518 0.0
H327 H 0.3191 0.17408 0.97988 0.0
H328 H 0.26534 0.23594 0.99445 0.0
H329 H 0.19161 0.26664 0.02097 0.0
H330 H 0.09338 0.19123 0.04846 0.0
H331 H 0.14618 0.13078 0.02582 0.0
C332 C 0.23086 0.12814 0.00205 0.0
C333 C 0.27419 0.13133 0.99181 0.0
C334 C 0.19973 0.16356 0.01127 0.0
C335 C 0.28595 0.17079 0.98804 0.0
C336 C 0.25526 0.20616 0.99646 0.0
C337 C 0.18182 0.23697 0.02188 0.0
C338 C 0.13895 0.23301 0.03699 0.0
C339 C 0.21225 0.20258 0.00929 0.0
C340 C 0.12631 0.19486 0.03698 0.0
C341 C 0.1565 0.16033 0.02425 0.0
H342 H 0.33549 0.92718 0.95536 0.0
H343 H 0.36125 0.86262 0.07884 0.0
H344 H 0.33742 0.80016 0.07046 0.0
H345 H 0.29645 0.77029 0.03492 0.0
H346 H 0.26162 0.83954 0.91681 0.0
H347 H 0.30357 0.89296 0.91507 0.0
C348 C 0.33666 0.89919 0.98015 0.0
C349 C 0.34916 0.89988 0.01812 0.0
C350 C 0.32147 0.8641 0.97584 0.0
C351 C 0.35102 0.86317 0.04963 0.0
C352 C 0.33748 0.82741 0.04483 0.0
C353 C 0.29959 0.79613 0.00789 0.0
C354 C 0.27592 0.80136 0.97617 0.0
C355 C 0.32086 0.82829 0.00897 0.0
C356 C 0.27967 0.83512 0.94154 0.0
C357 C 0.30311 0.8659 0.94091 0.0
H358 H 0.73494 0.27815 0.169 0.0
H359 H 0.78279 0.2291 0.05112 0.0
H360 H 0.81336 0.29232 0.01762 0.0
H361 H 0.84353 0.34992 0.02903 0.0
H362 H 0.80278 0.39408 0.14971 0.0
H363 H 0.75169 0.34583 0.17444 0.0
C364 C 0.75078 0.28217 0.13552 0.0
C365 C 0.75766 0.24851 0.11309 0.0
C366 C 0.77038 0.31757 0.1172 0.0
C367 C 0.77729 0.25426 0.06939 0.0
C368 C 0.79533 0.29029 0.0503 0.0
C369 C 0.82229 0.34992 0.06012 0.0
C370 C 0.82774 0.37442 0.08798 0.0
C371 C 0.79473 0.32045 0.07494 0.0
C372 C 0.79953 0.37517 0.12781 0.0
C373 C 0.77065 0.34715 0.14219 0.0
H374 H 0.00433 0.8206 0.0564 0.0
H375 H 0.07429 0.91845 0.05295 0.0
H376 H 0.0077 0.9669 0.07202 0.0
H377 H 0.92973 0.98243 0.08603 0.0
H378 H 0.85978 0.88568 0.08661 0.0
H379 H 0.92634 0.8357 0.07197 0.0
C380 C 0.00501 0.8524 0.06023 0.0
C381 C 0.04413 0.86595 0.05333 0.0
C382 C 0.96665 0.88028 0.07034 0.0
C383 C 0.04454 0.90733 0.05803 0.0
C384 C 0.0065 0.93504 0.06889 0.0
C385 C 0.92906 0.95022 0.08362 0.0
C386 C 0.88994 0.93762 0.08757 0.0
C387 C 0.96739 0.92199 0.07464 0.0
C388 C 0.88956 0.89607 0.0834 0.0
C389 C 0.92755 0.86753 0.07517 0.0
H390 H 0.01513 0.15629 0.58272 0.0
H391 H 0.07452 0.04745 0.66174 0.0
H392 H 0.05217 0.0002 0.62709 0.0
H393 H 0.02093 0.98964 0.57047 0.0
H394 H 0.96293 0.09823 0.49029 0.0
H395 H 0.9773 0.14547 0.53095 0.0
C396 C 0.02273 0.12228 0.59269 0.0
C397 C 0.04748 0.1055 0.62388 0.0
C398 C 0.00939 0.09512 0.57295 0.0
C399 C 0.05687 0.06126 0.63662 0.0
C400 C 0.04363 0.03414 0.61726 0.0
C401 C 0.01079 0.02362 0.56245 0.0
C402 C -0.00886 0.04033 0.52737 0.0
C403 C 0.02065 0.05071 0.5848 0.0
C404 C 0.97766 0.0844 0.51754 0.0
C405 C 0.98648 0.11156 0.54033 0.0
H406 H 0.65009 0.98342 0.11481 0.0
H407 H 0.56649 0.07227 0.19057 0.0
H408 H 0.5061 0.06352 0.16411 0.0
H409 H 0.48048 0.0401 0.11057 0.0
H410 H 0.56547 0.95686 0.02925 0.0
H411 H 0.62217 0.95315 0.06713 0.0
C412 C 0.61829 -0.00046 0.12664 0.0
C413 C 0.61226 0.02825 0.15458 0.0
C414 C 0.58445 -0.00397 0.10954 0.0
C415 C 0.57138 0.04983 0.16924 0.0
C416 C 0.53713 0.04515 0.15379 0.0
C417 C 0.5114 0.02094 0.10138 0.0
C418 C 0.51939 -0.00035 0.06662 0.0
C419 C 0.54381 0.01998 0.12241 0.0
C420 C 0.55893 0.97383 0.0557 0.0
C421 C 0.59127 0.97183 0.07724 0.0
H422 H 0.14191 0.62634 0.93979 0.0
H423 H 0.20193 0.57924 0.04825 0.0
H424 H 0.18047 0.5106 0.05743 0.0
H425 H 0.13186 0.47059 0.04402 0.0
H426 H 0.06832 0.51873 0.93824 0.0
H427 H 0.10406 0.58048 0.91803 0.0
C428 C 0.15179 0.60035 0.96418 0.0
C429 C 0.17303 0.60749 0.99357 0.0
C430 C 0.13767 0.56178 0.97037 0.0
C431 C 0.18545 0.57406 0.02543 0.0
C432 C 0.17278 0.53512 0.03095 0.0
C433 C 0.12669 0.4943 0.01604 0.0
C434 C 0.09714 0.49114 0.99304 0.0
C435 C 0.14678 0.52963 0.00521 0.0
C436 C 0.09081 0.5212 0.95645 0.0
C437 C 0.11111 0.55637 0.94504 0.0
loop_
_geom_bond_atom_site_label_1
_geom_bond_atom_site_label_2
_geom_bond_distance
_geom_bond_site_symmetry_2
_ccdc_geom_bond_type
Co0 N4 2.148 1_545 S
Co0 N10 2.128 . S
Co0 N20 2.194 . S
Co0 O25 2.351 1_545 S
Co0 O26 2.155 . S
Co0 O27 2.096 1_455 S
C1 N4 1.301 . S
C1 N5 1.328 . S
C1 H6 0.930 . S
C2 C3 1.333 . S
C2 N4 1.317 1_655 S
C2 H7 0.930 . S
C3 C2 1.333 . S
C3 N5 1.350 1_655 S
C3 H29 0.931 . S
N4 Co0 2.148 1_565 S
N4 C1 1.301 . S
N4 C2 1.317 1_455 S
N5 C1 1.328 . S
N5 C3 1.350 1_455 S
H6 C1 0.930 . S
H7 C2 0.930 . S
C8 O9 1.224 . S
C8 O27 1.247 . S
O9 C8 1.224 . S
N10 Co0 2.128 . S
N10 C11 1.355 . S
N10 C13 1.311 1_455 S
C11 N10 1.355 . S
C11 C12 1.363 . S
C11 H23 0.929 . S
C12 C11 1.363 . S
C12 N14 1.375 1_455 S
C12 H30 0.931 . S
C13 N10 1.311 1_655 S
C13 N14 1.347 . S
C13 H24 0.929 . S
N14 C12 1.375 1_655 S
N14 C13 1.347 . S
C15 C18 1.371 . S
C15 N20 1.328 1_565 S
C15 H21 0.929 . S
C16 C17 1.362 1_655 S
C16 C19 1.378 . S
C16 H31 0.929 . S
C17 C16 1.362 1_455 S
C17 C18 1.361 1_545 S
C18 C15 1.371 . S
C18 C17 1.361 1_565 S
C18 H32 0.930 . S
C19 C16 1.378 . S
C19 N20 1.315 1_655 S
C19 H22 0.930 . S
N20 Co0 2.194 . S
N20 C15 1.328 1_545 S
N20 C19 1.315 1_455 S
H21 C15 0.929 . S
H22 C19 0.930 . S
H23 C11 0.929 . S
H24 C13 0.929 . S
O25 Co0 2.351 1_565 S
O25 C28 1.244 . S
O26 Co0 2.155 . S
O26 C28 1.240 1_545 S
O27 Co0 2.096 1_655 S
O27 C8 1.247 . S
C28 O25 1.244 . S
C28 O26 1.240 1_565 S
H29 C3 0.931 . S
H30 C12 0.931 . S
H31 C16 0.929 . S
H32 C18 0.930 . S
Co33 N37 2.148 . S
Co33 N43 2.128 . S
Co33 N53 2.194 . S
Co33 O58 2.351 . S
Co33 O59 2.155 . S
Co33 O60 2.096 . S
C34 N37 1.301 . S
C34 N38 1.328 . S
C34 H39 0.930 . S
C35 C36 1.333 . S
C35 N37 1.317 . S
C35 H40 0.930 . S
C36 C35 1.333 . S
C36 N38 1.350 . S
C36 H62 0.931 1_455 S
N37 Co33 2.148 . S
N37 C34 1.301 . S
N37 C35 1.317 . S
N38 C34 1.328 . S
N38 C36 1.350 . S
H39 C34 0.930 . S
H40 C35 0.930 . S
C41 O42 1.224 . S
C41 O60 1.247 . S
O42 C41 1.224 . S
N43 Co33 2.128 . S
N43 C44 1.355 . S
N43 C46 1.311 . S
C44 N43 1.355 . S
C44 C45 1.363 . S
C44 H56 0.929 . S
C45 C44 1.363 . S
C45 N47 1.375 . S
C45 H63 0.931 . S
C46 N43 1.311 . S
C46 N47 1.347 . S
C46 H57 0.929 . S
N47 C45 1.375 . S
N47 C46 1.347 . S
C48 C51 1.365 . S
C48 N53 1.328 . S
C48 H54 0.929 . S
C49 C50 1.362 . S
C49 C52 1.378 . S
C49 H64 0.929 . S
C50 C49 1.362 . S
C50 C51 1.366 . S
C51 C48 1.365 . S
C51 C50 1.366 . S
C51 H65 0.930 . S
C52 C49 1.378 . S
C52 N53 1.315 . S
C52 H55 0.930 . S
N53 Co33 2.194 . S
N53 C48 1.328 . S
N53 C52 1.315 . S
H54 C48 0.929 . S
H55 C52 0.930 . S
H56 C44 0.929 . S
H57 C46 0.929 . S
O58 Co33 2.351 . S
O58 C61 1.244 . S
O59 Co33 2.155 . S
O59 C61 1.240 . S
O60 Co33 2.096 . S
O60 C41 1.247 . S
C61 O58 1.244 . S
C61 O59 1.240 . S
H62 C36 0.931 1_655 S
H63 C45 0.931 . S
H64 C49 0.929 . S
H65 C51 0.930 . S
Co66 N70 2.148 1_554 S
Co66 N76 2.128 . S
Co66 N86 2.198 1_554 S
Co66 O91 2.351 1_554 S
Co66 O92 2.155 1_554 S
Co66 O93 2.096 1_545 S
C67 N70 1.301 . S
C67 N71 1.328 . S
C67 H72 0.930 . S
C68 C69 1.333 1_565 S
C68 N70 1.317 1_565 S
C68 H73 0.930 . S
C69 C68 1.333 1_545 S
C69 N71 1.350 . S
C69 H95 0.931 1_545 S
N70 Co66 2.148 1_556 S
N70 C67 1.301 . S
N70 C68 1.317 1_545 S
N71 C67 1.328 . S
N71 C69 1.350 . S
H72 C67 0.930 . S
H73 C68 0.930 . S
C74 O75 1.224 . S
C74 O93 1.247 . S
O75 C74 1.224 . S
N76 Co66 2.128 . S
N76 C77 1.355 . S
N76 C79 1.311 1_545 S
C77 N76 1.355 . S
C77 C78 1.363 . S
C77 H89 0.929 . S
C78 C77 1.363 . S
C78 N80 1.375 . S
C78 H96 0.931 . S
C79 N76 1.311 1_565 S
C79 N80 1.347 1_565 S
C79 H90 0.929 . S
N80 C78 1.375 . S
N80 C79 1.347 1_545 S
C81 C84 1.365 . S
C81 N86 1.328 . S
C81 H87 0.929 . S
C82 C83 1.362 1_565 S
C82 C85 1.378 . S
C82 H97 0.929 . S
C83 C82 1.362 1_545 S
C83 C84 1.366 1_554 S
C84 C81 1.365 . S
C84 C83 1.366 1_556 S
C84 H98 0.930 . S
C85 C82 1.378 . S
C85 N86 1.310 1_564 S
C85 H88 0.930 . S
N86 Co66 2.198 1_556 S
N86 C81 1.328 . S
N86 C85 1.310 1_546 S
H87 C81 0.929 . S
H88 C85 0.930 . S
H89 C77 0.929 . S
H90 C79 0.929 . S
O91 Co66 2.351 1_556 S
O91 C94 1.244 . S
O92 Co66 2.155 1_556 S
O92 C94 1.240 . S
O93 Co66 2.096 1_565 S
O93 C74 1.247 . S
C94 O91 1.244 . S
C94 O92 1.240 . S
H95 C69 0.931 1_565 S
H96 C78 0.931 . S
H97 C82 0.929 . S
H98 C84 0.930 . S
Co99 N103 2.148 1_455 S
Co99 N109 2.128 . S
Co99 N119 2.194 . S
Co99 O124 2.351 1_455 S
Co99 O125 2.155 . S
Co99 O126 2.096 1_554 S
C100 N103 1.301 . S
C100 N104 1.328 . S
C100 H105 0.930 . S
C101 C102 1.333 . S
C101 N103 1.317 1_556 S
C101 H106 0.930 . S
C102 C101 1.333 . S
C102 N104 1.350 1_556 S
C102 H128 0.931 . S
N103 Co99 2.148 1_655 S
N103 C100 1.301 . S
N103 C101 1.317 1_554 S
N104 C100 1.328 . S
N104 C102 1.350 1_554 S
H105 C100 0.930 . S
H106 C101 0.930 . S
C107 O108 1.224 . S
C107 O126 1.247 . S
O108 C107 1.224 . S
N109 Co99 2.128 . S
N109 C110 1.355 . S
N109 C112 1.311 1_554 S
C110 N109 1.355 . S
C110 C111 1.363 . S
C110 H122 0.929 . S
C111 C110 1.363 . S
C111 N113 1.375 1_554 S
C111 H129 0.931 . S
C112 N109 1.311 1_556 S
C112 N113 1.347 . S
C112 H123 0.929 . S
N113 C111 1.375 1_556 S
N113 C112 1.347 . S
C114 C117 1.365 . S
C114 N119 1.328 . S
C114 H120 0.929 1_455 S
C115 C116 1.362 1_556 S
C115 C118 1.378 . S
C115 H130 0.929 . S
C116 C115 1.362 1_554 S
C116 C117 1.366 . S
C117 C114 1.365 . S
C117 C116 1.366 . S
C117 H131 0.931 1_455 S
C118 C115 1.378 . S
C118 N119 1.315 1_556 S
C118 H121 0.930 . S
N119 Co99 2.194 . S
N119 C114 1.328 . S
N119 C118 1.315 1_554 S
H120 C114 0.929 1_655 S
H121 C118 0.930 . S
H122 C110 0.929 . S
H123 C112 0.929 . S
O124 Co99 2.351 1_655 S
O124 C127 1.241 . S
O125 Co99 2.155 . S
O125 C127 1.241 1_455 S
O126 Co99 2.096 1_556 S
O126 C107 1.247 . S
C127 O124 1.241 . S
C127 O125 1.241 1_655 S
H128 C102 0.931 . S
H129 C111 0.931 . S
H130 C115 0.929 . S
H131 C117 0.931 1_655 S
Co132 N136 2.148 . S
Co132 N142 2.128 . S
Co132 N152 2.194 . S
Co132 O157 2.351 . S
Co132 O158 2.155 . S
Co132 O159 2.096 . S
C133 N136 1.301 . S
C133 N137 1.328 . S
C133 H138 0.930 . S
C134 C135 1.333 . S
C134 N136 1.317 . S
C134 H139 0.930 . S
C135 C134 1.333 . S
C135 N137 1.350 . S
C135 H161 0.931 . S
N136 Co132 2.148 . S
N136 C133 1.301 . S
N136 C134 1.317 . S
N137 C133 1.328 . S
N137 C135 1.350 . S
H138 C133 0.930 . S
H139 C134 0.930 . S
C140 O141 1.224 . S
C140 O159 1.247 . S
O141 C140 1.224 . S
N142 Co132 2.128 . S
N142 C143 1.355 . S
N142 C145 1.311 . S
C143 N142 1.355 . S
C143 C144 1.363 1_545 S
C143 H155 0.929 . S
C144 C143 1.363 1_565 S
C144 N146 1.375 . S
C144 H162 0.931 . S
C145 N142 1.311 . S
C145 N146 1.347 1_545 S
C145 H156 0.929 . S
N146 C144 1.375 . S
N146 C145 1.347 1_565 S
C147 C150 1.365 . S
C147 N152 1.328 . S
C147 H153 0.929 . S
C148 C149 1.362 . S
C148 C151 1.378 . S
C148 H163 0.929 . S
C149 C148 1.362 . S
C149 C150 1.366 . S
C150 C147 1.365 . S
C150 C149 1.366 . S
C150 H164 0.930 . S
C151 C148 1.378 . S
C151 N152 1.315 . S
C151 H154 0.930 . S
N152 Co132 2.194 . S
N152 C147 1.328 . S
N152 C151 1.315 . S
H153 C147 0.929 . S
H154 C151 0.930 . S
H155 C143 0.929 . S
H156 C145 0.929 . S
O157 Co132 2.351 . S
O157 C160 1.244 . S
O158 Co132 2.155 . S
O158 C160 1.240 . S
O159 Co132 2.096 . S
O159 C140 1.247 . S
C160 O157 1.244 . S
C160 O158 1.240 . S
H161 C135 0.931 . S
H162 C144 0.931 . S
H163 C148 0.929 . S
H164 C150 0.930 . S
Co165 N169 2.148 . S
Co165 N175 2.128 . S
Co165 N185 2.194 . S
Co165 O190 2.351 . S
Co165 O191 2.155 . S
Co165 O192 2.096 . S
C166 N169 1.301 . S
C166 N170 1.328 . S
C166 H171 0.930 . S
C167 C168 1.333 . S
C167 N169 1.317 . S
C167 H172 0.930 . S
C168 C167 1.333 . S
C168 N170 1.350 . S
C168 H194 0.931 . S
N169 Co165 2.148 . S
N169 C166 1.301 . S
N169 C167 1.317 . S
N170 C166 1.328 . S
N170 C168 1.350 . S
H171 C166 0.930 . S
H172 C167 0.930 . S
C173 O174 1.224 . S
C173 O192 1.247 . S
O174 C173 1.224 . S
N175 Co165 2.128 . S
N175 C176 1.355 . S
N175 C178 1.311 . S
C176 N175 1.355 . S
C176 C177 1.363 1_554 S
C176 H188 0.929 . S
C177 C176 1.363 1_556 S
C177 N179 1.375 . S
C177 H195 0.931 . S
C178 N175 1.311 . S
C178 N179 1.347 1_554 S
C178 H189 0.929 . S
N179 C177 1.375 . S
N179 C178 1.347 1_556 S
C180 C183 1.365 . S
C180 N185 1.328 . S
C180 H186 0.929 . S
C181 C182 1.362 . S
C181 C184 1.378 . S
C181 H196 0.929 . S
C182 C181 1.362 . S
C182 C183 1.366 . S
C183 C180 1.365 . S
C183 C182 1.366 . S
C183 H197 0.930 . S
C184 C181 1.378 . S
C184 N185 1.315 . S
C184 H187 0.930 . S
N185 Co165 2.194 . S
N185 C180 1.328 . S
N185 C184 1.315 . S
H186 C180 0.929 . S
H187 C184 0.930 . S
H188 C176 0.929 . S
H189 C178 0.929 . S
O190 Co165 2.351 . S
O190 C193 1.244 . S
O191 Co165 2.155 . S
O191 C193 1.240 . S
O192 Co165 2.096 . S
O192 C173 1.247 . S
C193 O190 1.244 . S
C193 O191 1.240 . S
H194 C168 0.931 . S
H195 C177 0.931 . S
H196 C181 0.929 . S
H197 C183 0.930 . S
H198 C204 0.930 . S
H199 C207 0.930 . S
H200 C208 0.930 . S
H201 C209 0.930 . S
H202 C212 0.930 . S
H203 C213 0.930 . S
C204 H198 0.930 . S
C204 C205 1.355 1_455 S
C204 C206 1.415 . S
C205 C204 1.355 1_655 S
C205 C207 1.419 . S
C206 C204 1.415 . S
C206 C211 1.425 1_455 S
C206 C213 1.409 . S
C207 H199 0.930 . S
C207 C205 1.419 . S
C207 C208 1.362 . S
C208 H200 0.930 . S
C208 C207 1.362 . S
C208 C211 1.409 . S
C209 H201 0.930 . S
C209 C210 1.355 . S
C209 C211 1.415 . S
C210 C209 1.355 . S
C210 C212 1.419 1_655 S
C211 C206 1.425 1_655 S
C211 C208 1.409 . S
C211 C209 1.415 . S
C212 H202 0.930 . S
C212 C210 1.419 1_455 S
C212 C213 1.362 . S
C213 H203 0.930 . S
C213 C206 1.409 . S
C213 C212 1.362 . S
H214 C220 0.930 . S
H215 C223 0.930 . S
H216 C224 0.930 . S
H217 C225 0.930 . S
H218 C228 0.930 1_565 S
H219 C229 0.930 . S
C220 H214 0.930 . S
C220 C221 1.355 . S
C220 C222 1.415 . S
C221 C220 1.355 . S
C221 C223 1.419 . S
C222 C220 1.415 . S
C222 C227 1.425 . S
C222 C229 1.409 . S
C223 H215 0.930 . S
C223 C221 1.419 . S
C223 C224 1.362 . S
C224 H216 0.930 . S
C224 C223 1.362 . S
C224 C227 1.409 . S
C225 H217 0.930 . S
C225 C226 1.355 . S
C225 C227 1.415 . S
C226 C225 1.355 . S
C226 C228 1.419 . S
C227 C222 1.425 . S
C227 C224 1.409 . S
C227 C225 1.415 . S
C228 H218 0.930 1_545 S
C228 C226 1.419 . S
C228 C229 1.362 . S
C229 H219 0.930 . S
C229 C222 1.409 . S
C229 C228 1.362 . S
H230 C236 0.930 . S
H231 C239 0.930 . S
H232 C240 0.930 . S
H233 C241 0.930 . S
H234 C244 0.930 . S
H235 C245 0.930 . S
C236 H230 0.930 . S
C236 C237 1.355 . S
C236 C238 1.415 . S
C237 C236 1.355 . S
C237 C239 1.419 . S
C238 C236 1.415 . S
C238 C243 1.425 . S
C238 C245 1.409 . S
C239 H231 0.930 . S
C239 C237 1.419 . S
C239 C240 1.362 . S
C240 H232 0.930 . S
C240 C239 1.362 . S
C240 C243 1.409 . S
C241 H233 0.930 . S
C241 C242 1.355 . S
C241 C243 1.415 . S
C242 C241 1.355 . S
C242 C244 1.419 . S
C243 C238 1.425 . S
C243 C240 1.409 . S
C243 C241 1.415 . S
C244 H234 0.930 . S
C244 C242 1.419 . S
C244 C245 1.362 . S
C245 H235 0.930 . S
C245 C238 1.409 . S
C245 C244 1.362 . S
H246 C252 0.930 1_545 S
H247 C255 0.930 . S
H248 C256 0.930 . S
H249 C257 0.930 . S
H250 C260 0.930 . S
H251 C261 0.930 . S
C252 H246 0.930 1_565 S
C252 C253 1.355 . S
C252 C254 1.415 . S
C253 C252 1.355 . S
C253 C255 1.419 . S
C254 C252 1.415 . S
C254 C259 1.425 . S
C254 C261 1.409 1_565 S
C255 H247 0.930 . S
C255 C253 1.419 . S
C255 C256 1.362 . S
C256 H248 0.930 . S
C256 C255 1.362 . S
C256 C259 1.409 . S
C257 H249 0.930 . S
C257 C258 1.355 . S
C257 C259 1.415 . S
C258 C257 1.355 . S
C258 C260 1.419 1_565 S
C259 C254 1.425 . S
C259 C256 1.409 . S
C259 C257 1.415 . S
C260 H250 0.930 . S
C260 C258 1.419 1_545 S
C260 C261 1.362 . S
C261 H251 0.930 . S
C261 C254 1.409 1_545 S
C261 C260 1.362 . S
H262 C268 0.930 . S
H263 C271 0.930 . S
H264 C272 0.930 . S
H265 C273 0.930 . S
H266 C276 0.930 . S
H267 C277 0.930 . S
C268 H262 0.930 . S
C268 C269 1.355 . S
C268 C270 1.415 . S
C269 C268 1.355 . S
C269 C271 1.419 . S
C270 C268 1.415 . S
C270 C275 1.425 . S
C270 C277 1.409 . S
C271 H263 0.930 . S
C271 C269 1.419 . S
C271 C272 1.362 . S
C272 H264 0.930 . S
C272 C271 1.362 . S
C272 C275 1.409 . S
C273 H265 0.930 . S
C273 C274 1.355 . S
C273 C275 1.415 . S
C274 C273 1.355 . S
C274 C276 1.419 . S
C275 C270 1.425 . S
C275 C272 1.409 . S
C275 C273 1.415 . S
C276 H266 0.930 . S
C276 C274 1.419 . S
C276 C277 1.362 . S
C277 H267 0.930 . S
C277 C270 1.409 . S
C277 C276 1.362 . S
H278 C284 0.930 . S
H279 C287 0.930 . S
H280 C288 0.930 . S
H281 C289 0.930 . S
H282 C292 0.930 . S
H283 C293 0.930 . S
C284 H278 0.930 . S
C284 C285 1.355 . S
C284 C286 1.415 . S
C285 C284 1.355 . S
C285 C287 1.419 . S
C286 C284 1.415 . S
C286 C291 1.425 . S
C286 C293 1.409 . S
C287 H279 0.930 . S
C287 C285 1.419 . S
C287 C288 1.362 . S
C288 H280 0.930 . S
C288 C287 1.362 . S
C288 C291 1.409 . S
C289 H281 0.930 . S
C289 C290 1.355 . S
C289 C291 1.415 . S
C290 C289 1.355 . S
C290 C292 1.419 . S
C291 C286 1.425 . S
C291 C288 1.409 . S
C291 C289 1.415 . S
C292 H282 0.930 . S
C292 C290 1.419 . S
C292 C293 1.362 . S
C293 H283 0.930 . S
C293 C286 1.409 . S
C293 C292 1.362 . S
H294 C300 0.930 . S
H295 C303 0.930 . S
H296 C304 0.930 . S
H297 C305 0.930 . S
H298 C308 0.930 . S
H299 C309 0.930 . S
C300 H294 0.930 . S
C300 C301 1.355 . S
C300 C302 1.415 . S
C301 C300 1.355 . S
C301 C303 1.419 . S
C302 C300 1.415 . S
C302 C307 1.425 . S
C302 C309 1.409 . S
C303 H295 0.930 . S
C303 C301 1.419 . S
C303 C304 1.362 . S
C304 H296 0.930 . S
C304 C303 1.362 . S
C304 C307 1.409 . S
C305 H297 0.930 . S
C305 C306 1.355 . S
C305 C307 1.415 . S
C306 C305 1.355 . S
C306 C308 1.419 . S
C307 C302 1.425 . S
C307 C304 1.409 . S
C307 C305 1.415 . S
C308 H298 0.930 . S
C308 C306 1.419 . S
C308 C309 1.362 . S
C309 H299 0.930 . S
C309 C302 1.409 . S
C309 C308 1.362 . S
H310 C316 0.930 . S
H311 C319 0.930 . S
H312 C320 0.930 . S
H313 C321 0.930 . S
H314 C324 0.930 1_455 S
H315 C325 0.930 . S
C316 H310 0.930 . S
C316 C317 1.355 . S
C316 C318 1.415 . S
C317 C316 1.355 . S
C317 C319 1.419 . S
C318 C316 1.415 . S
C318 C323 1.425 . S
C318 C325 1.409 . S
C319 H311 0.930 . S
C319 C317 1.419 . S
C319 C320 1.362 . S
C320 H312 0.930 . S
C320 C319 1.362 . S
C320 C323 1.409 . S
C321 H313 0.930 . S
C321 C322 1.355 . S
C321 C323 1.415 . S
C322 C321 1.355 . S
C322 C324 1.419 . S
C323 C318 1.425 . S
C323 C320 1.409 . S
C323 C321 1.415 . S
C324 H314 0.930 1_655 S
C324 C322 1.419 . S
C324 C325 1.362 . S
C325 H315 0.930 . S
C325 C318 1.409 . S
C325 C324 1.362 . S
H326 C332 0.930 . S
H327 C335 0.930 . S
H328 C336 0.930 . S
H329 C337 0.930 . S
H330 C340 0.930 . S
H331 C341 0.930 . S
C332 H326 0.930 . S
C332 C333 1.355 . S
C332 C334 1.415 . S
C333 C332 1.355 . S
C333 C335 1.419 . S
C334 C332 1.415 . S
C334 C339 1.425 . S
C334 C341 1.409 . S
C335 H327 0.930 . S
C335 C333 1.419 . S
C335 C336 1.362 . S
C336 H328 0.930 . S
C336 C335 1.362 . S
C336 C339 1.409 . S
C337 H329 0.930 . S
C337 C338 1.355 . S
C337 C339 1.415 . S
C338 C337 1.355 . S
C338 C340 1.419 . S
C339 C334 1.425 . S
C339 C336 1.409 . S
C339 C337 1.415 . S
C340 H330 0.930 . S
C340 C338 1.419 . S
C340 C341 1.362 . S
C341 H331 0.930 . S
C341 C334 1.409 . S
C341 C340 1.362 . S
H342 C348 0.930 . S
H343 C351 0.930 . S
H344 C352 0.930 . S
H345 C353 0.930 . S
H346 C356 0.930 . S
H347 C357 0.930 . S
C348 H342 0.930 . S
C348 C349 1.355 . S
C348 C350 1.415 . S
C349 C348 1.355 . S
C349 C351 1.419 . S
C350 C348 1.415 . S
C350 C355 1.425 . S
C350 C357 1.409 . S
C351 H343 0.930 . S
C351 C349 1.419 . S
C351 C352 1.362 . S
C352 H344 0.930 . S
C352 C351 1.362 . S
C352 C355 1.409 . S
C353 H345 0.930 . S
C353 C354 1.355 . S
C353 C355 1.415 . S
C354 C353 1.355 . S
C354 C356 1.419 . S
C355 C350 1.425 . S
C355 C352 1.409 . S
C355 C353 1.415 . S
C356 H346 0.930 . S
C356 C354 1.419 . S
C356 C357 1.362 . S
C357 H347 0.930 . S
C357 C350 1.409 . S
C357 C356 1.362 . S
H358 C364 0.930 . S
H359 C367 0.930 . S
H360 C368 0.916 1_556 S
H361 C369 0.930 . S
H362 C372 0.930 . S
H363 C373 0.930 . S
C364 H358 0.930 . S
C364 C365 1.355 . S
C364 C366 1.415 . S
C365 C364 1.355 . S
C365 C367 1.419 . S
C366 C364 1.415 . S
C366 C371 1.425 . S
C366 C373 1.409 . S
C367 H359 0.930 . S
C367 C365 1.419 . S
C367 C368 1.362 . S
C368 H360 0.916 1_554 S
C368 C367 1.362 . S
C368 C371 1.409 . S
C369 H361 0.930 . S
C369 C370 1.355 . S
C369 C371 1.415 . S
C370 C369 1.355 . S
C370 C372 1.419 . S
C371 C366 1.425 . S
C371 C368 1.409 . S
C371 C369 1.415 . S
C372 H362 0.930 . S
C372 C370 1.419 . S
C372 C373 1.362 . S
C373 H363 0.930 . S
C373 C366 1.409 . S
C373 C372 1.362 . S
H374 C380 0.930 . S
H375 C383 0.930 . S
H376 C384 0.930 . S
H377 C385 0.930 . S
H378 C388 0.930 . S
H379 C389 0.930 . S
C380 H374 0.930 . S
C380 C381 1.355 . S
C380 C382 1.415 . S
C381 C380 1.355 . S
C381 C383 1.419 . S
C382 C380 1.415 . S
C382 C387 1.425 . S
C382 C389 1.409 . S
C383 H375 0.930 . S
C383 C381 1.419 . S
C383 C384 1.362 . S
C384 H376 0.930 . S
C384 C383 1.362 . S
C384 C387 1.409 . S
C385 H377 0.930 . S
C385 C386 1.355 . S
C385 C387 1.415 . S
C386 C385 1.355 . S
C386 C388 1.419 . S
C387 C382 1.425 . S
C387 C384 1.409 . S
C387 C385 1.415 . S
C388 H378 0.930 . S
C388 C386 1.419 . S
C388 C389 1.362 . S
C389 H379 0.930 . S
C389 C382 1.409 . S
C389 C388 1.362 . S
H390 C396 0.930 . S
H391 C399 0.930 . S
H392 C400 0.930 . S
H393 C401 0.930 1_565 S
H394 C404 0.930 . S
H395 C405 0.930 . S
C396 H390 0.930 . S
C396 C397 1.355 . S
C396 C398 1.415 . S
C397 C396 1.355 . S
C397 C399 1.419 . S
C398 C396 1.415 . S
C398 C403 1.425 . S
C398 C405 1.409 . S
C399 H391 0.930 . S
C399 C397 1.419 . S
C399 C400 1.362 . S
C400 H392 0.930 . S
C400 C399 1.362 . S
C400 C403 1.409 . S
C401 H393 0.930 1_545 S
C401 C402 1.355 . S
C401 C403 1.415 . S
C402 C401 1.355 . S
C402 C404 1.419 . S
C403 C398 1.425 . S
C403 C400 1.409 . S
C403 C401 1.415 . S
C404 H394 0.930 . S
C404 C402 1.419 . S
C404 C405 1.362 . S
C405 H395 0.930 . S
C405 C398 1.409 . S
C405 C404 1.362 . S
H406 C412 0.930 . S
H407 C415 0.930 . S
H408 C416 0.930 1_556 S
H409 C417 0.930 1_556 S
H410 C420 0.930 1_565 S
H411 C421 0.930 . S
C412 H406 0.930 . S
C412 C413 1.355 . S
C412 C414 1.415 . S
C413 C412 1.355 . S
C413 C415 1.419 . S
C414 C412 1.415 . S
C414 C419 1.425 . S
C414 C421 1.409 . S
C415 H407 0.930 . S
C415 C413 1.419 . S
C415 C416 1.362 . S
C416 H408 0.930 1_554 S
C416 C415 1.362 . S
C416 C419 1.409 . S
C417 H409 0.930 1_554 S
C417 C418 1.355 . S
C417 C419 1.415 . S
C418 C417 1.355 . S
C418 C420 1.419 . S
C419 C414 1.425 . S
C419 C416 1.409 . S
C419 C417 1.415 . S
C420 H410 0.930 1_545 S
C420 C418 1.419 . S
C420 C421 1.362 . S
C421 H411 0.930 . S
C421 C414 1.409 . S
C421 C420 1.362 . S
H422 C428 0.930 . S
H423 C431 0.930 . S
H424 C432 0.930 . S
H425 C433 0.930 1_655 S
H426 C436 0.930 1_556 S
H427 C437 0.931 1_556 S
C428 H422 0.930 . S
C428 C429 1.355 . S
C428 C430 1.415 . S
C429 C428 1.355 . S
C429 C431 1.419 . S
C430 C428 1.415 . S
C430 C435 1.425 . S
C430 C437 1.409 . S
C431 H423 0.930 . S
C431 C429 1.419 . S
C431 C432 1.362 . S
C432 H424 0.930 . S
C432 C431 1.362 . S
C432 C435 1.409 . S
C433 H425 0.930 1_455 S
C433 C434 1.355 . S
C433 C435 1.415 . S
C434 C433 1.355 . S
C434 C436 1.419 . S
C435 C430 1.425 . S
C435 C432 1.409 . S
C435 C433 1.415 . S
C436 H426 0.930 1_554 S
C436 C434 1.419 . S
C436 C437 1.362 . S
C437 H427 0.931 1_554 S
C437 C430 1.409 . S
C437 C436 1.362 . S
C205 C127 1.618 . S
C210 N14 1.421 . S
C221 C140 0.950 . S
C226 C8 0.981 . S
C237 N5 0.616 . S
C242 N170 0.815 . S
C253 N80 1.480 1_565 S
C258 C28 1.608 . S
C269 N179 1.486 . S
C274 C41 1.661 1_565 S
C285 N71 0.571 . S
C290 N47 0.727 . S
C301 C61 0.915 . S
C306 C107 0.894 . S
C317 C160 1.594 1_556 S
C322 N38 1.268 1_655 S
C333 C94 1.591 . S
C338 N113 1.415 . S
C349 C74 0.868 . S
C354 C173 0.780 . S
C365 N137 0.704 . S
C370 N104 0.789 . S
C381 C193 1.648 1_655 S
C386 N146 1.490 . S
C397 C50 1.272 . S
C402 C17 1.305 . S
C413 C149 1.197 . S
C418 C83 1.209 . S
C429 C182 1.196 . S
C434 C116 1.211 . S
