# Generated by pormake.
# Topology vmg, (6)-cn, num edge types: 1
# Building blocks:
#     Node 0, Type 0, BuildingBlock: MIDCAF_clean_sbu_0, # of connection points: 6
#     Node 1, Type 0, BuildingBlock: MIDCAF_clean_sbu_0, # of connection points: 6
#     Node 2, Type 0, BuildingBlock: MIDCAF_clean_sbu_0, # of connection points: 6
#     Node 3, Type 0, BuildingBlock: MIDCAF_clean_sbu_0, # of connection points: 6
#     Node 4, Type 0, BuildingBlock: MIDCAF_clean_sbu_0, # of connection points: 6
#     Node 5, Type 0, BuildingBlock: MIDCAF_clean_sbu_0, # of connection points: 6
#     Node 6, Type 0, BuildingBlock: MIDCAF_clean_sbu_0, # of connection points: 6
#     Node 7, Type 0, BuildingBlock: MIDCAF_clean_sbu_0, # of connection points: 6
#     Edge 8, Type (0, 0), BuildingBlock: UVAHIK_clean_linker_0, # of connection points: 2
#     Edge 9, Type (0, 0), BuildingBlock: UVAHIK_clean_linker_0, # of connection points: 2
#     Edge 10, Type (0, 0), BuildingBlock: UVAHIK_clean_linker_0, # of connection points: 2
#     Edge 11, Type (0, 0), BuildingBlock: UVAHIK_clean_linker_0, # of connection points: 2
#     Edge 12, Type (0, 0), BuildingBlock: UVAHIK_clean_linker_0, # of connection points: 2
#     Edge 13, Type (0, 0), BuildingBlock: UVAHIK_clean_linker_0, # of connection points: 2
#     Edge 14, Type (0, 0), BuildingBlock: UVAHIK_clean_linker_0, # of connection points: 2
#     Edge 15, Type (0, 0), BuildingBlock: UVAHIK_clean_linker_0, # of connection points: 2
#     Edge 16, Type (0, 0), BuildingBlock: UVAHIK_clean_linker_0, # of connection points: 2
#     Edge 17, Type (0, 0), BuildingBlock: UVAHIK_clean_linker_0, # of connection points: 2
#     Edge 18, Type (0, 0), BuildingBlock: UVAHIK_clean_linker_0, # of connection points: 2
#     Edge 19, Type (0, 0), BuildingBlock: UVAHIK_clean_linker_0, # of connection points: 2
#     Edge 20, Type (0, 0), BuildingBlock: UVAHIK_clean_linker_0, # of connection points: 2
#     Edge 21, Type (0, 0), BuildingBlock: UVAHIK_clean_linker_0, # of connection points: 2
#     Edge 22, Type (0, 0), BuildingBlock: UVAHIK_clean_linker_0, # of connection points: 2
#     Edge 23, Type (0, 0), BuildingBlock: UVAHIK_clean_linker_0, # of connection points: 2
#     Edge 24, Type (0, 0), BuildingBlock: UVAHIK_clean_linker_0, # of connection points: 2
#     Edge 25, Type (0, 0), BuildingBlock: UVAHIK_clean_linker_0, # of connection points: 2
#     Edge 26, Type (0, 0), BuildingBlock: UVAHIK_clean_linker_0, # of connection points: 2
#     Edge 27, Type (0, 0), BuildingBlock: UVAHIK_clean_linker_0, # of connection points: 2
#     Edge 28, Type (0, 0), BuildingBlock: UVAHIK_clean_linker_0, # of connection points: 2
#     Edge 29, Type (0, 0), BuildingBlock: UVAHIK_clean_linker_0, # of connection points: 2
#     Edge 30, Type (0, 0), BuildingBlock: UVAHIK_clean_linker_0, # of connection points: 2
#     Edge 31, Type (0, 0), BuildingBlock: UVAHIK_clean_linker_0, # of connection points: 2
# Relax obj value: 0.371
# Max RMSD: 0.252
# Mean RMSD: 0.252
data_MOF--net-vmg--node1-MIDCAF_clean_sbu_0--edge1-UVAHIK_clean_linker_0
_symmetry_space_group_name_H-M    P1
_symmetry_Int_Tables_number       1
_symmetry_cell_setting            triclinic
loop_
_symmetry_equiv_pos_as_xyz
'x, y, z'
_cell_length_a     31.83088
_cell_length_b     57.106162
_cell_length_c     33.101006
_cell_angle_alpha  89.978741
_cell_angle_beta   94.14754
_cell_angle_gamma 90.088088
loop_
_atom_site_label
_atom_site_type_symbol
_atom_site_fract_x
_atom_site_fract_y
_atom_site_fract_z
_atom_type_partial_charge
Zn0 Zn 0.1852 0.41716 0.16474 0.0
Zn1 Zn 0.28241 0.38413 0.07859 0.0
Zn2 Zn 0.23242 0.40127 0.12132 0.0
C3 C 0.32446 0.39093 0.15272 0.0
C4 C 0.22166 0.35125 0.08197 0.0
O5 O 0.19741 0.42542 0.08199 0.0
O6 O 0.1428 0.42387 0.11914 0.0
C7 C 0.2541 0.43562 0.19795 0.0
O8 O 0.2925 0.4043 0.15576 0.0
O9 O 0.32568 0.37705 0.12318 0.0
O10 O 0.24678 0.35797 0.05656 0.0
O11 O 0.21496 0.36425 0.11245 0.0
O12 O 0.21707 0.44336 0.19217 0.0
O13 O 0.26537 0.41801 0.17685 0.0
O14 O 0.18648 0.37448 0.13883 0.0
O15 O 0.17207 0.38914 0.19766 0.0
C16 C 0.16848 0.37263 0.1723 0.0
O17 O 0.23331 0.42157 0.06274 0.0
O18 O 0.29408 0.41013 0.04154 0.0
C19 C 0.15815 0.42882 0.08613 0.0
C20 C 0.26264 0.42355 0.03798 0.0
Zn21 Zn 0.83705 0.42294 0.38925 0.0
Zn22 Zn 0.70391 0.39062 0.41819 0.0
Zn23 Zn 0.77367 0.40474 0.39729 0.0
C24 C 0.71363 0.38082 0.33457 0.0
C25 C 0.76341 0.36411 0.46259 0.0
O26 O 0.81707 0.39824 0.4508 0.0
O27 O 0.83534 0.43492 0.44574 0.0
C28 C 0.78105 0.4507 0.3487 0.0
O29 O 0.75238 0.38602 0.34313 0.0
O30 O 0.68685 0.38337 0.36066 0.0
O31 O 0.7243 0.3645 0.45323 0.0
O32 O 0.78761 0.37958 0.44797 0.0
O33 O 0.81738 0.4431 0.34348 0.0
O34 O 0.76036 0.44165 0.37706 0.0
O35 O 0.79738 0.38817 0.34443 0.0
O36 O 0.86036 0.39124 0.37581 0.0
C37 C 0.83603 0.38162 0.34875 0.0
O38 O 0.74085 0.43723 0.41298 0.0
O39 O 0.68943 0.42067 0.4441 0.0
C40 C 0.83369 0.41674 0.46716 0.0
C41 C 0.7102 0.43878 0.43632 0.0
Zn42 Zn 0.80894 0.57586 0.84248 0.0
Zn43 Zn 0.70647 0.59971 0.92464 0.0
Zn44 Zn 0.75921 0.5885 0.88265 0.0
C45 C 0.66757 0.59699 0.8484 0.0
C46 C 0.76436 0.63543 0.92701 0.0
O47 O 0.79791 0.5662 0.92265 0.0
O48 O 0.85284 0.57401 0.88831 0.0
C49 C 0.74578 0.55245 0.80939 0.0
O50 O 0.70022 0.58416 0.84468 0.0
O51 O 0.66449 0.60882 0.8802 0.0
O52 O 0.74107 0.62543 0.95109 0.0
O53 O 0.7719 0.62535 0.89368 0.0
O54 O 0.78341 0.54671 0.81912 0.0
O55 O 0.73016 0.57027 0.827 0.0
O56 O 0.80182 0.61762 0.86561 0.0
O57 O 0.81402 0.60344 0.80601 0.0
C58 C 0.81768 0.62007 0.83112 0.0
O59 O 0.76113 0.56802 0.94176 0.0
O60 O 0.6957 0.57168 0.95831 0.0
C61 C 0.83799 0.56691 0.92041 0.0
C62 C 0.73154 0.56247 0.96475 0.0
Zn63 Zn 0.2396 0.59124 0.54746 0.0
Zn64 Zn 0.14857 0.55682 0.62971 0.0
Zn65 Zn 0.20286 0.57606 0.5988 0.0
C66 C 0.15462 0.60326 0.66152 0.0
C67 C 0.22406 0.53492 0.65836 0.0
O68 O 0.25193 0.55035 0.58709 0.0
O69 O 0.24152 0.55959 0.52247 0.0
C70 C 0.19086 0.62641 0.56746 0.0
O71 O 0.18767 0.60412 0.64121 0.0
O72 O 0.1311 0.58537 0.65933 0.0
O73 O 0.18484 0.53401 0.66183 0.0
O74 O 0.23885 0.54908 0.63281 0.0
O75 O 0.19558 0.61636 0.53401 0.0
O76 O 0.19967 0.61491 0.60042 0.0
O77 O 0.2353 0.60513 0.62991 0.0
O78 O 0.28739 0.59853 0.59136 0.0
C79 C 0.275 0.6059 0.62455 0.0
O80 O 0.1621 0.57079 0.54544 0.0
O81 O 0.11844 0.5485 0.57677 0.0
C82 C 0.25504 0.54528 0.54954 0.0
C83 C 0.12967 0.55778 0.54456 0.0
Zn84 Zn 0.61102 0.89972 0.12601 0.0
Zn85 Zn 0.80254 0.90546 0.09653 0.0
Zn86 Zn 0.73255 0.91511 0.09835 0.0
C87 C 0.79226 0.91969 0.17395 0.0
C88 C 0.75765 0.86665 0.07329 0.0
O89 O 0.6947 0.90077 0.04756 0.0
O90 O 0.6488 0.8869 0.08459 0.0
C91 C 0.66767 0.9353 0.1715 0.0
O92 O 0.75499 0.91243 0.16268 0.0
O93 O 0.8186 0.92271 0.14769 0.0
O94 O 0.79023 0.87065 0.09645 0.0
O95 O 0.73248 0.88339 0.06363 0.0
O96 O 0.63032 0.92752 0.16319 0.0
O97 O 0.69842 0.92963 0.14991 0.0
O98 O 0.71838 0.89939 0.15747 0.0
O99 O 0.66729 0.87985 0.12485 0.0
C100 C 0.69036 0.88292 0.15748 0.0
O101 O 0.75377 0.94501 0.06601 0.0
O102 O 0.80114 0.92174 0.04307 0.0
C103 C 0.6559 0.89867 0.05337 0.0
C104 C 0.77866 0.9399 0.03871 0.0
Zn105 Zn 0.33936 0.8852 0.2994 0.0
Zn106 Zn 0.21951 0.89253 0.42975 0.0
Zn107 Zn 0.28 0.90099 0.3947 0.0
C108 C 0.18465 0.9063 0.36035 0.0
C109 C 0.25697 0.851 0.42547 0.0
O110 O 0.33609 0.91187 0.37133 0.0
O111 O 0.38244 0.90853 0.32576 0.0
C112 C 0.26349 0.9157 0.29377 0.0
O113 O 0.22255 0.90087 0.35328 0.0
O114 O 0.175 0.90895 0.39631 0.0
O115 O 0.21942 0.85801 0.42447 0.0
O116 O 0.28642 0.86564 0.42031 0.0
O117 O 0.29098 0.90456 0.27544 0.0
O118 O 0.26049 0.91403 0.33244 0.0
O119 O 0.33146 0.87492 0.39903 0.0
O120 O 0.31881 0.86137 0.33812 0.0
C121 C 0.34316 0.86217 0.36995 0.0
O122 O 0.27861 0.92687 0.44293 0.0
O123 O 0.23992 0.90643 0.48226 0.0
C124 C 0.37022 0.91852 0.35717 0.0
C125 C 0.26325 0.92391 0.47718 0.0
Zn126 Zn 0.33222 0.07206 0.85761 0.0
Zn127 Zn 0.22709 0.11749 0.93189 0.0
Zn128 Zn 0.28158 0.09414 0.89276 0.0
C129 C 0.18661 0.10414 0.85767 0.0
C130 C 0.29318 0.14771 0.91962 0.0
O131 O 0.30888 0.06814 0.93653 0.0
O132 O 0.36675 0.06091 0.90593 0.0
C133 C 0.25937 0.05913 0.81906 0.0
O134 O 0.22163 0.0933 0.85446 0.0
O135 O 0.18122 0.11666 0.88827 0.0
O136 O 0.25981 0.14635 0.93779 0.0
O137 O 0.30628 0.13018 0.89976 0.0
O138 O 0.29426 0.04937 0.82816 0.0
O139 O 0.24991 0.07819 0.83712 0.0
O140 O 0.33357 0.11772 0.87684 0.0
O141 O 0.35717 0.09771 0.82624 0.0
C142 C 0.35734 0.11622 0.84705 0.0
O143 O 0.27236 0.07671 0.95153 0.0
O144 O 0.22408 0.09754 0.98041 0.0
C145 C 0.34602 0.05928 0.93683 0.0
C146 C 0.24859 0.08019 0.98092 0.0
Zn147 Zn 0.78632 0.09363 0.56987 0.0
Zn148 Zn 0.65192 0.07884 0.61742 0.0
Zn149 Zn 0.71754 0.08845 0.59761 0.0
C150 C 0.67133 0.11989 0.65209 0.0
C151 C 0.70964 0.0478 0.65335 0.0
O152 O 0.73614 0.05253 0.57932 0.0
O153 O 0.78506 0.06377 0.53952 0.0
C154 C 0.73111 0.12582 0.53121 0.0
O155 O 0.70707 0.10943 0.6519 0.0
O156 O 0.64091 0.11244 0.62903 0.0
O157 O 0.67736 0.05902 0.66197 0.0
O158 O 0.72598 0.0523 0.61972 0.0
O159 O 0.77 0.12268 0.53976 0.0
O160 O 0.70411 0.11192 0.54571 0.0
O161 O 0.75198 0.10664 0.64766 0.0
O162 O 0.81322 0.09627 0.62571 0.0
C163 C 0.79209 0.1044 0.65339 0.0
O164 O 0.67083 0.09555 0.5462 0.0
O165 O 0.63199 0.06597 0.56474 0.0
C166 C 0.76041 0.04807 0.55062 0.0
C167 C 0.64128 0.08049 0.53807 0.0
C168 C 0.68608 0.39877 0.27222 0.0
C169 C 0.69665 0.37793 0.29285 0.0
C170 C 0.648 0.40057 0.24898 0.0
C171 C 0.54759 0.37582 0.26642 0.0
H172 H 0.50286 0.41602 0.17934 0.0
C173 C 0.3817 0.37185 0.19427 0.0
C174 C 0.36115 0.3925 0.18161 0.0
C175 C 0.42181 0.37282 0.21361 0.0
C176 C 0.5152 0.40518 0.20432 0.0
H177 H 0.68087 0.34136 0.29904 0.0
H178 H 0.61515 0.34401 0.25659 0.0
H179 H 0.57887 0.40881 0.18795 0.0
H180 H 0.3641 0.43039 0.18141 0.0
H181 H 0.43579 0.4321 0.21445 0.0
H182 H 0.48408 0.37189 0.28243 0.0
C183 C 0.63536 0.35929 0.25962 0.0
C184 C 0.55844 0.40075 0.20877 0.0
C185 C 0.67333 0.35762 0.28326 0.0
C186 C 0.37969 0.41429 0.19118 0.0
C187 C 0.42049 0.41526 0.20979 0.0
C188 C 0.50458 0.38021 0.26194 0.0
C189 C 0.62056 0.38133 0.24605 0.0
C190 C 0.57482 0.38548 0.23919 0.0
C191 C 0.44229 0.39444 0.2197 0.0
C192 C 0.48793 0.39442 0.23027 0.0
H193 H 0.7026 0.41476 0.28039 0.0
H194 H 0.63759 0.41777 0.23875 0.0
H195 H 0.55953 0.36486 0.29137 0.0
H196 H 0.36769 0.35491 0.1871 0.0
H197 H 0.43811 0.35653 0.22076 0.0
C198 C 0.6179 0.62037 0.8044 0.0
C199 C 0.63285 0.59825 0.81693 0.0
C200 C 0.57905 0.6226 0.7825 0.0
C201 C 0.4769 0.59624 0.77728 0.0
H202 H 0.45361 0.63168 0.67833 0.0
C203 C 0.31828 0.59235 0.68414 0.0
C204 C 0.30625 0.61079 0.65803 0.0
C205 C 0.35573 0.59357 0.70859 0.0
C206 C 0.45932 0.62222 0.70653 0.0
H207 H 0.62053 0.56099 0.8152 0.0
H208 H 0.55142 0.56489 0.77735 0.0
H209 H 0.52619 0.62662 0.70571 0.0
H210 H 0.32174 0.6456 0.63823 0.0
H211 H 0.38668 0.64847 0.68261 0.0
H212 H 0.41028 0.59232 0.7791 0.0
C213 C 0.57012 0.58044 0.78419 0.0
C214 C 0.501 0.61905 0.72179 0.0
C215 C 0.60962 0.57818 0.80537 0.0
C216 C 0.33046 0.63129 0.65863 0.0
C217 C 0.36782 0.63271 0.68358 0.0
C218 C 0.43516 0.59975 0.76247 0.0
C219 C 0.55409 0.60275 0.77367 0.0
C220 C 0.51014 0.60569 0.75686 0.0
C221 C 0.38197 0.61338 0.70735 0.0
C222 C 0.4258 0.61242 0.72644 0.0
H223 H 0.63536 0.63606 0.81337 0.0
H224 H 0.56733 0.63995 0.77478 0.0
H225 H 0.48322 0.58638 0.80502 0.0
H226 H 0.30066 0.57612 0.68292 0.0
H227 H 0.36556 0.57818 0.72585 0.0
C228 C 0.13037 0.92845 0.31946 0.0
C229 C 0.15066 0.90713 0.32821 0.0
C230 C 0.08946 0.9287 0.30115 0.0
C231 C 0.99504 0.89295 0.30223 0.0
H232 H 0.94767 0.93949 0.22705 0.0
C233 C 0.82343 0.89659 0.23021 0.0
C234 C 0.80975 0.91865 0.21599 0.0
C235 C 0.86231 0.89443 0.2525 0.0
C236 C 0.96032 0.92668 0.24878 0.0
H237 H 0.14614 0.86947 0.32261 0.0
H238 H 0.07432 0.8698 0.29042 0.0
H239 H 0.02375 0.936 0.23827 0.0
H240 H 0.82051 0.95593 0.22096 0.0
H241 H 0.88656 0.9524 0.26234 0.0
H242 H 0.93131 0.88366 0.31266 0.0
C243 C 0.08989 0.88631 0.29765 0.0
C244 C 0.00395 0.92451 0.25476 0.0
C245 C 0.1311 0.88612 0.31544 0.0
C246 C 0.83049 0.93872 0.23154 0.0
C247 C 0.86888 0.93663 0.2544 0.0
C248 C 0.9512 0.89513 0.29625 0.0
C249 C 0.068 0.90757 0.29213 0.0
C250 C 0.02184 0.90785 0.28191 0.0
C251 C 0.88704 0.91444 0.26149 0.0
C252 C 0.93337 0.91232 0.26995 0.0
H253 H 0.14483 0.94479 0.32971 0.0
H254 H 0.07344 0.94536 0.29732 0.0
H255 H 0.00795 0.88011 0.32379 0.0
H256 H 0.80791 0.88084 0.21843 0.0
H257 H 0.87507 0.87706 0.25806 0.0
C258 C 0.1332 0.12303 0.81093 0.0
C259 C 0.15154 0.10232 0.82655 0.0
C260 C 0.09338 0.12263 0.79049 0.0
C261 C 0.99553 0.09139 0.7955 0.0
H262 H 0.9586 0.12896 0.70211 0.0
C263 C 0.82899 0.08926 0.71505 0.0
C264 C 0.81522 0.1089 0.6924 0.0
C265 C 0.86731 0.08977 0.73831 0.0
C266 C 0.96827 0.11881 0.72881 0.0
H267 H 0.14448 0.06476 0.83113 0.0
H268 H 0.07379 0.06401 0.79568 0.0
H269 H 0.03363 0.12442 0.72047 0.0
H270 H 0.82777 0.14527 0.67981 0.0
H271 H 0.89413 0.14662 0.72189 0.0
H272 H 0.93016 0.08602 0.80422 0.0
C273 C 0.09045 0.08052 0.79912 0.0
C274 C 0.0113 0.11592 0.73889 0.0
C275 C 0.1309 0.08089 0.81895 0.0
C276 C 0.83744 0.13002 0.69759 0.0
C277 C 0.87587 0.13059 0.72096 0.0
C278 C 0.9524 0.0944 0.78557 0.0
C279 C 0.07077 0.10155 0.78609 0.0
C280 C 0.02539 0.10228 0.77244 0.0
C281 C 0.89262 0.10996 0.73905 0.0
C282 C 0.93822 0.10827 0.75221 0.0
H283 H 0.1486 0.13975 0.81678 0.0
H284 H 0.07903 0.1391 0.78092 0.0
H285 H 0.00552 0.08113 0.822 0.0
H286 H 0.81324 0.07259 0.71034 0.0
H287 H 0.87909 0.07354 0.75173 0.0
C288 C 0.22762 0.31074 0.10599 0.0
C289 C 0.20746 0.32695 0.07938 0.0
C290 C 0.2346 0.28794 0.09276 0.0
C291 C 0.21879 0.24773 0.00438 0.0
H292 H 0.3408 0.24298 0.01672 0.0
C293 C 0.29638 0.18843 0.89964 0.0
C294 C 0.31538 0.17005 0.92227 0.0
C295 C 0.29084 0.21006 0.91804 0.0
C296 C 0.30677 0.24414 0.01304 0.0
H297 H 0.17212 0.33154 0.02172 0.0
H298 H 0.18283 0.29171 0.99901 0.0
H299 H 0.30454 0.27056 0.05851 0.0
H300 H 0.35241 0.16106 0.97732 0.0
H301 H 0.3438 0.19894 0.00927 0.0
H302 H 0.22108 0.22163 0.95845 0.0
C303 C 0.1942 0.29636 0.02959 0.0
C304 C 0.28587 0.25959 0.0374 0.0
C305 C 0.18776 0.31919 0.04261 0.0
C306 C 0.33738 0.17505 0.9595 0.0
C307 C 0.3319 0.19668 0.97803 0.0
C308 C 0.23967 0.2324 0.97996 0.0
C309 C 0.22093 0.28128 0.05308 0.0
C310 C 0.2417 0.26178 0.03289 0.0
C311 C 0.30495 0.21338 0.95884 0.0
C312 C 0.2839 0.23077 0.98352 0.0
H313 H 0.24316 0.31649 0.13449 0.0
H314 H 0.25444 0.27642 0.11183 0.0
H315 H 0.18478 0.24894 1.00041 0.0
H316 H 0.27941 0.18494 0.87069 0.0
H317 H 0.27105 0.22303 0.90217 0.0
C318 C 0.76084 0.33458 0.51683 0.0
C319 C 0.78023 0.34286 0.48288 0.0
C320 C 0.75962 0.3106 0.52502 0.0
C321 C 0.79335 0.25145 0.49203 0.0
H322 H 0.67712 0.23558 0.50823 0.0
C323 C 0.74033 0.15627 0.47944 0.0
C324 C 0.71851 0.14821 0.51207 0.0
C325 C 0.74353 0.18025 0.47185 0.0
C326 C 0.70975 0.23964 0.50395 0.0
H327 H 0.81782 0.33309 0.43368 0.0
H328 H 0.81549 0.29117 0.44759 0.0
H329 H 0.6994 0.27635 0.51051 0.0
H330 H 0.67943 0.15849 0.55983 0.0
H331 H 0.68532 0.20038 0.5471 0.0
H332 H 0.80372 0.2147 0.48558 0.0
C333 C 0.8014 0.30306 0.46819 0.0
C334 C 0.7227 0.26305 0.50559 0.0
C335 C 0.80316 0.32715 0.46041 0.0
C336 C 0.6959 0.16428 0.53406 0.0
C337 C 0.69967 0.18834 0.52693 0.0
C338 C 0.78042 0.228 0.4905 0.0
C339 C 0.77709 0.29446 0.49888 0.0
C340 C 0.76469 0.26928 0.49978 0.0
C341 C 0.7257 0.19662 0.49732 0.0
C342 C 0.73841 0.22177 0.49639 0.0
H343 H 0.7429 0.34639 0.53453 0.0
H344 H 0.74195 0.30459 0.5498 0.0
H345 H 0.8259 0.25557 0.48754 0.0
H346 H 0.75804 0.14415 0.46211 0.0
H347 H 0.76251 0.18598 0.44783 0.0
C348 C 0.73355 0.84075 0.0156 0.0
C349 C 0.75092 0.84331 0.05558 0.0
C350 C 0.73231 0.81872 0.99716 0.0
C351 C 0.73274 0.7563 0.01748 0.0
H352 H 0.80087 0.74881 0.92566 0.0
C353 C 0.78603 0.66616 0.97652 0.0
C354 C 0.77779 0.65952 0.93598 0.0
C355 C 0.78576 0.68968 0.98725 0.0
C356 C 0.78136 0.75071 0.95094 0.0
H357 H 0.77817 0.82509 0.10856 0.0
H358 H 0.7745 0.78646 0.07687 0.0
H359 H 0.78675 0.78818 0.95114 0.0
H360 H 0.7675 0.67193 0.87425 0.0
H361 H 0.76623 0.71342 0.89315 0.0
H362 H 0.72723 0.71909 0.01776 0.0
C363 C 0.76263 0.80147 0.05959 0.0
C364 C 0.77313 0.77315 0.96532 0.0
C365 C 0.76487 0.82349 0.07761 0.0
C366 C 0.77385 0.67677 0.90575 0.0
C367 C 0.77297 0.70044 0.91658 0.0
C368 C 0.74062 0.734 0.003 0.0
C369 C 0.7473 0.79901 0.01899 0.0
C370 C 0.74973 0.77598 0.99937 0.0
C371 C 0.77652 0.70692 0.95767 0.0
C372 C 0.76614 0.73091 0.97045 0.0
H373 H 0.72276 0.85589 0.99806 0.0
H374 H 0.72028 0.8171 0.96583 0.0
H375 H 0.71424 0.75818 0.04351 0.0
H376 H 0.78978 0.65308 1.00024 0.0
H377 H 0.79012 0.69428 0.01904 0.0
C378 C 0.16609 0.66333 0.53444 0.0
C379 C 0.18714 0.65207 0.56764 0.0
C380 C 0.17289 0.68705 0.52753 0.0
C381 C 0.25889 0.7283 0.54014 0.0
H382 H 0.1764 0.77088 0.48935 0.0
C383 C 0.29065 0.82139 0.47241 0.0
C384 C 0.2653 0.8266 0.43708 0.0
C385 C 0.28606 0.79985 0.49197 0.0
C386 C 0.19984 0.7591 0.5033 0.0
H387 H 0.22892 0.65701 0.62167 0.0
H388 H 0.24129 0.69865 0.60922 0.0
H389 H 0.15277 0.73593 0.52327 0.0
H390 H 0.21957 0.81289 0.39161 0.0
H391 H 0.21277 0.77509 0.42466 0.0
H392 H 0.30599 0.75139 0.51903 0.0
C393 C 0.21959 0.68908 0.58858 0.0
C394 C 0.18627 0.73923 0.52297 0.0
C395 C 0.21213 0.66535 0.59591 0.0
C396 C 0.23925 0.8092 0.41897 0.0
C397 C 0.23501 0.78773 0.43813 0.0
C398 C 0.27253 0.74833 0.52041 0.0
C399 C 0.20136 0.69987 0.55341 0.0
C400 C 0.21559 0.72321 0.54043 0.0
C401 C 0.25626 0.78347 0.47608 0.0
C402 C 0.24304 0.76342 0.50057 0.0
H403 H 0.14669 0.65341 0.51226 0.0
H404 H 0.15848 0.69484 0.50008 0.0
H405 H 0.28222 0.71614 0.55309 0.0
H406 H 0.31069 0.83473 0.48698 0.0
H407 H 0.30309 0.79687 0.52104 0.0
C408 C 0.85917 0.53742 0.97301 0.0
C409 C 0.86724 0.5584 0.95309 0.0
C410 C 0.89239 0.52538 0.99344 0.0
C411 C 0.00119 0.51763 0.97446 0.0
H412 H 0.00363 0.47477 0.06525 0.0
C413 C 0.14158 0.46103 0.03756 0.0
C414 C 0.13063 0.43955 0.05433 0.0
C415 C 0.11014 0.47523 0.01906 0.0
C416 C 0.00294 0.48647 0.03944 0.0
H417 H 0.9135 0.58547 0.94427 0.0
H418 H 0.97136 0.56465 0.98061 0.0
H419 H 0.94742 0.50376 0.05685 0.0
H420 H 0.08081 0.41415 0.05995 0.0
H421 H 0.026 0.43875 0.02695 0.0
H422 H 0.05662 0.5002 0.95696 0.0
C423 C 0.94006 0.55706 0.97937 0.0
C424 C 0.97114 0.50316 0.03499 0.0
C425 C 0.90706 0.56894 0.95873 0.0
C426 C 0.0895 0.43092 0.04761 0.0
C427 C 0.05827 0.44497 0.02898 0.0
C428 C 0.03305 0.50095 0.97896 0.0
C429 C 0.93357 0.53443 0.99409 0.0
C430 C 0.96982 0.51875 0.00229 0.0
C431 C 0.0679 0.46786 0.01743 0.0
C432 C 0.03379 0.48507 0.01117 0.0
H433 H 0.82847 0.52916 0.96919 0.0
H434 H 0.88656 0.508 0.00491 0.0
H435 H 0.00031 0.52914 0.94838 0.0
H436 H 0.17331 0.46786 0.04254 0.0
H437 H 0.11825 0.49279 0.00995 0.0
C438 C 0.06349 0.55792 0.50331 0.0
C439 C 0.10593 0.55119 0.50691 0.0
C440 C 0.03259 0.54141 0.49178 0.0
C441 C 0.00968 0.47972 0.46623 0.0
H442 H 0.96141 0.47958 0.57074 0.0
C443 C 0.90187 0.4062 0.49869 0.0
C444 C 0.86238 0.41624 0.50368 0.0
C445 C 0.93829 0.41948 0.50771 0.0
C446 C 0.97453 0.47932 0.54145 0.0
H447 H 0.15034 0.52465 0.49148 0.0
H448 H 0.09655 0.49588 0.47062 0.0
H449 H 0.00421 0.51257 0.55165 0.0
H450 H 0.83014 0.44356 0.53412 0.0
H451 H 0.8928 0.46647 0.55077 0.0
H452 H 0.979 0.44681 0.45538 0.0
C453 C 0.08676 0.51347 0.47777 0.0
C454 C 0.99857 0.49835 0.53027 0.0
C455 C 0.11764 0.53006 0.4893 0.0
C456 C 0.8604 0.43586 0.52894 0.0
C457 C 0.89656 0.44925 0.53785 0.0
C458 C 0.98505 0.46077 0.47717 0.0
C459 C 0.04434 0.51833 0.4833 0.0
C460 C 0.01594 0.49886 0.49239 0.0
C461 C 0.93501 0.44232 0.52309 0.0
C462 C 0.96688 0.46042 0.51484 0.0
H463 H 0.05387 0.57429 0.51635 0.0
H464 H -0.00011 0.5457 0.49518 0.0
H465 H 0.02331 0.47959 0.43717 0.0
H466 H 0.90424 0.39058 0.48041 0.0
H467 H 0.96794 0.41315 0.49789 0.0
C468 C 0.59021 0.9142 0.01933 0.0
C469 C 0.62766 0.91835 0.04299 0.0
C470 C 0.56055 0.93201 0.01288 0.0
C471 C 0.52045 0.98442 0.05947 0.0
H472 H 0.46308 0.99333 0.95322 0.0
C473 C 0.4006 0.05622 0.99324 0.0
C474 C 0.36527 0.04642 0.97163 0.0
C475 C 0.43097 0.04174 0.01299 0.0
C476 C 0.47868 0.99085 0.98311 0.0
H477 H 0.6643 0.9441 0.07823 0.0
H478 H 0.61159 0.97534 0.06793 0.0
H479 H 0.52382 0.96732 0.96096 0.0
H480 H 0.33138 0.01438 0.95686 0.0
H481 H 0.38466 0.98896 0.99105 0.0
H482 H 0.4749 0.00833 0.08123 0.0
C483 C 0.60538 0.9584 0.05404 0.0
C484 C 0.51345 0.97607 0.98751 0.0
C485 C 0.63553 0.94065 0.05976 0.0
C486 C 0.35808 0.02227 0.97393 0.0
C487 C 0.38865 0.00778 0.9932 0.0
C488 C 0.48557 -0.00057 0.05496 0.0
C489 C 0.56744 0.95415 0.03076 0.0
C490 C 0.53411 0.97224 0.02583 0.0
C491 C 0.42643 0.01735 0.01064 0.0
C492 C 0.46389 0.00223 0.01684 0.0
H493 H 0.58354 0.89703 0.00645 0.0
H494 H 0.53146 0.92818 0.99506 0.0
H495 H 0.53577 0.98168 0.0894 0.0
H496 H 0.40694 0.07482 0.99119 0.0
H497 H 0.45996 0.04945 0.02606 0.0
C498 C 0.43958 0.93742 0.37441 0.0
C499 C 0.39596 0.93697 0.37774 0.0
C500 C 0.4639 0.95565 0.39159 0.0
C501 C 0.45905 0.01728 0.41677 0.0
H502 H 0.56783 0.00508 0.47313 0.0
C503 C 0.57438 0.08469 0.49798 0.0
C504 C 0.61727 0.07878 0.49887 0.0
C505 C 0.54429 0.07083 0.47633 0.0
C506 C 0.53782 0.00876 0.45683 0.0
H507 H 0.34341 0.95476 0.4025 0.0
H508 H 0.38614 0.98723 0.43182 0.0
H509 H 0.51998 0.97264 0.45653 0.0
H510 H 0.66306 0.05659 0.47277 0.0
H511 H 0.61086 0.0329 0.43376 0.0
H512 H 0.47721 0.05356 0.41726 0.0
C513 C 0.40139 0.97335 0.41606 0.0
C514 C 0.5103 0.99021 0.44772 0.0
C515 C 0.37709 0.95477 0.39951 0.0
C516 C 0.6302 0.06162 0.47224 0.0
C517 C 0.60023 0.04773 0.45066 0.0
C518 C 0.48671 0.03596 0.426 0.0
C519 C 0.44501 0.97403 0.4119 0.0
C520 C 0.4711 0.99417 0.42672 0.0
C521 C 0.55704 0.05104 0.45527 0.0
C522 C 0.52686 0.03175 0.44512 0.0
H523 H 0.4549 0.92378 0.35814 0.0
H524 H 0.4974 0.95579 0.38775 0.0
H525 H 0.42897 0.02078 0.40047 0.0
H526 H 0.56372 0.09772 0.51873 0.0
H527 H 0.51125 0.07395 0.48012 0.0
C528 C 0.12784 0.34765 0.2169 0.0
C529 C 0.13627 0.3546 0.17765 0.0
C530 C 0.08916 0.33752 0.22404 0.0
C531 C 0.98392 0.34865 0.18884 0.0
H532 H 0.9579 0.30398 0.2716 0.0
C533 C 0.84176 0.36469 0.27958 0.0
C534 C 0.85412 0.36483 0.32114 0.0
C535 C 0.86668 0.35328 0.25242 0.0
C536 C 0.96442 0.31644 0.24816 0.0
H537 H 0.11295 0.35434 0.11449 0.0
H538 H 0.04458 0.33721 0.12724 0.0
H539 H 0.02508 0.30142 0.24057 0.0
H540 H 0.8989 0.35116 0.36755 0.0
H541 H 0.94213 0.33157 0.32094 0.0
H542 H 0.92578 0.36533 0.19927 0.0
C543 C 0.0681 0.33933 0.15231 0.0
C544 C 0.00277 0.31483 0.23026 0.0
C545 C 0.10728 0.34898 0.14504 0.0
C546 C 0.88899 0.35149 0.33553 0.0
C547 C 0.91358 0.34003 0.30865 0.0
C548 C 0.94593 0.35052 0.20721 0.0
C549 C 0.05801 0.3346 0.19212 0.0
C550 C 0.01365 0.3316 0.20184 0.0
C551 C 0.90401 0.34173 0.2666 0.0
C552 C 0.93678 0.33521 0.23872 0.0
H553 H 0.1497 0.35187 0.24249 0.0
H554 H 0.08214 0.3342 0.25508 0.0
H555 H 0.99168 0.36198 0.16728 0.0
H556 H 0.81488 0.37487 0.26782 0.0
H557 H 0.85807 0.35466 0.22026 0.0
C558 C 0.14847 0.62578 0.72477 0.0
C559 C 0.13923 0.62365 0.68292 0.0
C560 C 0.12134 0.63824 0.74841 0.0
C561 C 0.01914 0.67217 0.74257 0.0
H562 H 0.99605 0.63169 0.83231 0.0
C563 C 0.85555 0.64513 0.78438 0.0
C564 C 0.84928 0.63831 0.82425 0.0
C565 C 0.89415 0.6545 0.77475 0.0
C566 C 0.00242 0.64367 0.80811 0.0
H567 H 0.09676 0.6341 0.63228 0.0
H568 H 0.04916 0.65537 0.67294 0.0
H569 H 0.06184 0.62772 0.80083 0.0
H570 H 0.87662 0.63832 0.8861 0.0
H571 H 0.94435 0.65461 0.86926 0.0
H572 H 0.95764 0.68664 0.74809 0.0
C573 C 0.07753 0.64814 0.68803 0.0
C574 C 0.04048 0.64143 0.78993 0.0
C575 C 0.10492 0.63595 0.6645 0.0
C576 C 0.88048 0.64359 0.85513 0.0
C577 C 0.91945 0.65265 0.84541 0.0
C578 C 0.98078 0.67422 0.76053 0.0
C579 C 0.084 0.64829 0.73059 0.0
C580 C 0.04868 0.65494 0.75576 0.0
C581 C 0.92744 0.65694 0.80478 0.0
C582 C 0.97133 0.65933 0.79248 0.0
H583 H 0.17442 0.61607 0.73963 0.0
H584 H 0.12801 0.63845 0.78095 0.0
H585 H 0.02465 0.68329 0.71697 0.0
H586 H 0.83202 0.64117 0.76002 0.0
H587 H 0.89917 0.65752 0.74316 0.0
C588 C 0.41976 0.86996 0.39072 0.0
C589 C 0.38874 0.85789 0.36638 0.0
C590 C 0.46196 0.86958 0.38115 0.0
C591 C 0.53791 0.83866 0.32037 0.0
H592 H 0.58327 0.90043 0.30116 0.0
C593 C 0.64262 0.85711 0.19305 0.0
C594 C 0.67225 0.87541 0.19538 0.0
C595 C 0.61809 0.85241 0.22517 0.0
C596 C 0.57181 0.88301 0.30736 0.0
H597 H 0.37831 0.8343 0.31534 0.0
H598 H 0.45168 0.83318 0.29938 0.0
H599 H 0.51992 0.89646 0.33802 0.0
H600 H 0.70288 0.90136 0.23521 0.0
H601 H 0.65889 0.89348 0.29173 0.0
H602 H 0.58873 0.82521 0.28848 0.0
C603 C 0.44348 0.8432 0.32545 0.0
C604 C 0.53539 0.88075 0.32839 0.0
C605 C 0.40137 0.8439 0.33453 0.0
C606 C 0.67951 0.88757 0.23214 0.0
C607 C 0.65434 0.88304 0.26445 0.0
C608 C 0.57444 0.8409 0.29972 0.0
C609 C 0.47403 0.85661 0.34783 0.0
C610 C 0.51712 0.85861 0.3336 0.0
C611 C 0.62252 0.86581 0.26079 0.0
C612 C 0.59074 0.86316 0.29133 0.0
H613 H 0.41115 0.8809 0.41552 0.0
H614 H 0.48491 0.87998 0.39905 0.0
H615 H 0.52489 0.82135 0.32448 0.0
H616 H 0.63672 0.84713 0.16538 0.0
H617 H 0.59374 0.83919 0.22092 0.0
C618 C 0.67513 0.1343 0.72355 0.0
C619 C 0.66155 0.13741 0.68266 0.0
C620 C 0.65275 0.14472 0.75381 0.0
C621 C 0.5543 0.18059 0.7674 0.0
H622 H 0.53332 0.13039 0.84211 0.0
C623 C 0.39641 0.1403 0.79993 0.0
C624 C 0.38896 0.13424 0.83985 0.0
C625 C 0.43359 0.15172 0.7916 0.0
C626 C 0.53931 0.14492 0.82223 0.0
H627 H 0.6184 0.15631 0.641 0.0
H628 H 0.57914 0.17375 0.69258 0.0
H629 H 0.598 0.13051 0.80798 0.0
H630 H 0.41265 0.13669 0.90268 0.0
H631 H 0.47902 0.15579 0.88782 0.0
H632 H 0.49253 0.19308 0.77836 0.0
C633 C 0.60674 0.16364 0.70238 0.0
C634 C 0.57671 0.14511 0.80262 0.0
C635 C 0.62925 0.15349 0.67243 0.0
C636 C 0.41762 0.14144 0.87169 0.0
C637 C 0.45552 0.15226 0.86324 0.0
C638 C 0.51632 0.17998 0.78618 0.0
C639 C 0.61627 0.15813 0.74348 0.0
C640 C 0.58378 0.16224 0.77319 0.0
C641 C 0.4644 0.15667 0.82297 0.0
C642 C 0.50788 0.16157 0.81244 0.0
H643 H 0.70006 0.122 0.73219 0.0
H644 H 0.66205 0.14069 0.78514 0.0
H645 H 0.55908 0.19458 0.74613 0.0
H646 H 0.37479 0.13477 0.77495 0.0
H647 H 0.43993 0.15469 0.76028 0.0
C648 C 0.2227 0.44216 0.97835 0.0
C649 C 0.2597 0.4402 0.00384 0.0
C650 C 0.22309 0.45433 0.94157 0.0
C651 C 0.28688 0.4954 0.88286 0.0
H652 H 0.22904 0.46456 0.79055 0.0
C653 C 0.25867 0.539 0.72644 0.0
C654 C 0.25094 0.52496 0.69193 0.0
C655 C 0.26803 0.52889 0.7644 0.0
C656 C 0.24614 0.47322 0.81576 0.0
H657 H 0.32535 0.45022 0.0122 0.0
H658 H 0.32612 0.47148 0.94855 0.0
H659 H 0.22462 0.44823 0.85778 0.0
H660 H 0.24971 0.48949 0.66926 0.0
H661 H 0.26904 0.47163 0.73528 0.0
H662 H 0.30949 0.52 0.84077 0.0
C663 C 0.29672 0.46384 0.95662 0.0
C664 C 0.24274 0.46411 0.85458 0.0
C665 C 0.29636 0.45158 0.99306 0.0
C666 C 0.25639 0.50069 0.69535 0.0
C667 C 0.26655 0.49051 0.73335 0.0
C668 C 0.29058 0.50442 0.84396 0.0
C669 C 0.26048 0.46478 0.92979 0.0
C670 C 0.26282 0.47514 0.88868 0.0
C671 C 0.27001 0.5044 0.7687 0.0
C672 C 0.27001 0.49356 0.80981 0.0
H673 H 0.19425 0.43315 0.98564 0.0
H674 H 0.19444 0.45498 0.92185 0.0
H675 H 0.30263 0.50443 0.90845 0.0
H676 H 0.25284 0.55768 0.72488 0.0
H677 H 0.26988 0.54026 0.79062 0.0
C678 C 0.73719 0.47545 0.47082 0.0
C679 C 0.70361 0.46007 0.46064 0.0
C680 C 0.73565 0.49054 0.50408 0.0
C681 C 0.66676 0.51189 0.58411 0.0
H682 H 0.77041 0.50672 0.65245 0.0
C683 C 0.73739 0.51879 0.76202 0.0
C684 C 0.7246 0.54129 0.77304 0.0
C685 C 0.72842 0.5105 0.72272 0.0
C686 C 0.7411 0.50822 0.63387 0.0
H687 H 0.64024 0.45042 0.47425 0.0
H688 H 0.63771 0.47634 0.532 0.0
H689 H 0.76807 0.49254 0.58333 0.0
H690 H 0.68899 0.5719 0.75259 0.0
H691 H 0.67302 0.55729 0.68349 0.0
H692 H 0.63964 0.52687 0.63579 0.0
C693 C 0.66528 0.47694 0.51469 0.0
C694 C 0.73996 0.50047 0.59383 0.0
C695 C 0.66678 0.46196 0.48149 0.0
C696 C 0.69905 0.55444 0.74502 0.0
C697 C 0.69016 0.54612 0.70537 0.0
C698 C 0.66795 0.51971 0.62437 0.0
C699 C 0.70052 0.49052 0.52774 0.0
C700 C 0.70264 0.50184 0.5685 0.0
C701 C 0.70664 0.52456 0.69334 0.0
C702 C 0.70494 0.51748 0.64994 0.0
H703 H 0.76603 0.47442 0.45542 0.0
H704 H 0.76299 0.50121 0.51268 0.0
H705 H 0.63755 0.51339 0.5654 0.0
H706 H 0.75678 0.50816 0.78308 0.0
H707 H 0.74044 0.4935 0.71477 0.0
C708 C 0.75545 0.45378 0.27723 0.0
C709 C 0.76067 0.46465 0.3153 0.0
C710 C 0.74659 0.46683 0.2421 0.0
C711 C 0.78126 0.51152 0.18984 0.0
H712 H 0.67597 0.51749 0.12436 0.0
C713 C 0.77278 0.5553 0.03061 0.0
C714 C 0.74 0.54871 0.00226 0.0
C715 C 0.77469 0.54634 0.07017 0.0
C716 C 0.70587 0.51572 0.14181 0.0
H717 H 0.76247 0.49799 0.34639 0.0
H718 H 0.74831 0.52133 0.28385 0.0
H719 H 0.67619 0.50119 0.19253 0.0
H720 H 0.68516 0.52658 0.99192 0.0
H721 H 0.69028 0.5094 0.05943 0.0
H722 H 0.81176 0.52419 0.13875 0.0
C723 C 0.74902 0.5024 0.28195 0.0
C724 C 0.70569 0.50682 0.18125 0.0
C725 C 0.75674 0.48911 0.31761 0.0
C726 C 0.71079 0.53191 0.01328 0.0
C727 C 0.71334 0.52244 0.05238 0.0
C728 C 0.78164 0.52 0.15014 0.0
C729 C 0.74459 0.49126 0.24393 0.0
C730 C 0.7434 0.50454 0.20547 0.0
C731 C 0.74431 0.53017 0.08204 0.0
C732 C 0.74399 0.52193 0.12516 0.0
H733 H 0.7615 0.43523 0.27428 0.0
H734 H 0.74425 0.45793 0.21311 0.0
H735 H 0.81085 0.50939 0.20778 0.0
H736 H 0.79525 0.5686 0.02306 0.0
H737 H 0.79888 0.55303 0.09179 0.0
C738 C 0.2768 0.46811 0.24458 0.0
C739 C 0.28055 0.44458 0.23315 0.0
C740 C 0.29161 0.47558 0.2832 0.0
C741 C 0.30119 0.4522 0.38533 0.0
H742 H 0.34063 0.51494 0.41188 0.0
C743 C 0.31655 0.52539 0.52416 0.0
C744 C 0.27503 0.52388 0.53559 0.0
C745 C 0.33035 0.5107 0.49394 0.0
C746 C 0.33045 0.49715 0.40539 0.0
H747 H 0.3054 0.41072 0.25204 0.0
H748 H 0.33108 0.42373 0.32004 0.0
H749 H 0.34447 0.5002 0.34325 0.0
H750 H 0.21638 0.50485 0.52678 0.0
H751 H 0.24028 0.47898 0.47464 0.0
H752 H 0.28544 0.44955 0.44707 0.0
C753 C 0.31668 0.43641 0.29901 0.0
C754 C 0.33231 0.48879 0.36584 0.0
C755 C 0.30242 0.42902 0.25997 0.0
C756 C 0.24892 0.50591 0.51931 0.0
C757 C 0.26263 0.4912 0.48911 0.0
C758 C 0.29913 0.46061 0.4249 0.0
C759 C 0.30994 0.45958 0.31156 0.0
C760 C 0.31641 0.46652 0.35498 0.0
C761 C 0.3027 0.49433 0.47441 0.0
C762 C 0.3125 0.48348 0.43513 0.0
H763 H 0.25999 0.48046 0.2245 0.0
H764 H 0.28568 0.4935 0.2918 0.0
H765 H 0.28833 0.43503 0.37795 0.0
H766 H 0.33691 0.5395 0.53553 0.0
H767 H 0.3616 0.51335 0.4838 0.0
C768 C 0.76714 0.97548 0.99344 0.0
C769 C 0.77662 0.95163 0.99874 0.0
C770 C 0.76615 0.98551 0.95455 0.0
C771 C 0.74889 0.97034 0.84681 0.0
H772 H 0.81009 0.02738 0.82686 0.0
C773 C 0.74189 0.01159 0.68678 0.0
C774 C 0.73309 0.03564 0.68714 0.0
C775 C 0.75553 0.00014 0.72307 0.0
C776 C 0.79266 0.01147 0.83189 0.0
H777 H 0.79084 0.91945 0.96746 0.0
H778 H 0.78817 0.93673 0.90049 0.0
H779 H 0.81285 0.01098 0.89519 0.0
H780 H 0.73372 0.0668 0.72443 0.0
H781 H 0.75739 0.04728 0.78666 0.0
H782 H 0.72732 0.97116 0.78408 0.0
C783 C 0.78223 0.94781 0.92602 0.0
C784 C 0.79414 0.00218 0.8711 0.0
C785 C 0.78407 0.93799 0.96456 0.0
C786 C 0.74051 0.04821 0.72337 0.0
C787 C 0.75438 0.03699 0.75913 0.0
C788 C 0.74697 0.97976 0.80771 0.0
C789 C 0.77347 0.97165 0.92049 0.0
C790 C 0.77186 0.98168 0.87903 0.0
C791 C 0.76077 0.01268 0.75991 0.0
C792 C 0.76825 0.00068 0.79983 0.0
H793 H 0.76112 0.98633 0.0192 0.0
H794 H 0.75906 0.00397 0.95098 0.0
H795 H 0.73139 0.95448 0.85209 0.0
H796 H 0.73593 0.00151 0.65925 0.0
H797 H 0.76059 0.9814 0.72256 0.0
C798 C 0.22447 0.06445 0.75012 0.0
C799 C 0.23366 0.05001 0.78392 0.0
C800 C 0.21521 0.05445 0.71185 0.0
C801 C 0.19324 -0.0016 0.6574 0.0
H802 H 0.28164 0.0181 0.58989 0.0
C803 C 0.2617 0.93454 0.54945 0.0
C804 C 0.2666 0.94172 0.5095 0.0
C805 C 0.25343 0.95083 0.57908 0.0
C806 C 0.25629 0.01266 0.60793 0.0
H807 H 0.23561 0.01429 0.80569 0.0
H808 H 0.21781 -0.00313 0.7396 0.0
H809 H 0.26527 0.04196 0.648 0.0
H810 H 0.26997 0.97172 0.46979 0.0
H811 H 0.25582 0.00055 0.52225 0.0
H812 H 0.18538 0.96864 0.61845 0.0
C813 C 0.21826 0.01579 0.74209 0.0
C814 C 0.24669 0.02638 0.64105 0.0
C815 C 0.2284 0.02573 0.77999 0.0
C816 C 0.26653 0.96576 0.50045 0.0
C817 C 0.25809 0.9822 0.53033 0.0
C818 C 0.20272 0.98477 0.62432 0.0
C819 C 0.2141 0.02997 0.70731 0.0
C820 C 0.21621 0.01889 0.66701 0.0
C821 C 0.24969 0.97471 0.56947 0.0
C822 C 0.23555 0.99124 0.60028 0.0
H823 H 0.22875 0.08324 0.7525 0.0
H824 H 0.21177 0.06575 0.68554 0.0
H825 H 0.16934 0.99234 0.67664 0.0
H826 H 0.26206 0.91612 0.55738 0.0
H827 H 0.24856 0.94459 0.60931 0.0
C828 C 0.21928 0.92602 0.23179 0.0
C829 C 0.23766 0.93271 0.26978 0.0
C830 C 0.20861 0.9429 0.20238 0.0
C831 C 0.20316 0.00612 0.17757 0.0
H832 H 0.26535 0.98665 0.08682 0.0
C833 C 0.24651 0.07177 0.05445 0.0
C834 C 0.24828 0.06356 0.01471 0.0
C835 C 0.24183 0.05611 0.08624 0.0
C836 C 0.247 0.99236 0.11127 0.0
H837 H 0.25518 0.96211 0.3087 0.0
H838 H 0.23724 0.99177 0.25688 0.0
H839 H 0.25484 0.95934 0.14094 0.0
H840 H 0.24644 0.03283 0.97649 0.0
H841 H 0.23572 0.00548 0.03122 0.0
H842 H 0.1948 0.03913 0.14753 0.0
C843 C 0.23053 0.97356 0.24992 0.0
C844 C 0.24101 0.97661 0.14247 0.0
C845 C 0.24068 0.9566 0.27962 0.0
C846 C 0.24576 0.03947 0.0071 0.0
C847 C 0.23975 0.02384 0.03864 0.0
C848 C 0.20845 0.02184 0.14581 0.0
C849 C 0.21695 0.9667 0.2103 0.0
C850 C 0.21924 0.98329 0.17604 0.0
C851 C 0.23752 0.03193 0.07871 0.0
C852 C 0.23079 0.01521 0.11232 0.0
H853 H 0.21649 0.90767 0.22373 0.0
H854 H 0.19723 0.9372 0.17234 0.0
H855 H 0.18642 0.01176 0.2032 0.0
H856 H 0.24863 0.09036 0.0609 0.0
H857 H 0.24152 0.06304 0.11664 0.0
C858 C 0.78712 0.02095 0.4996 0.0
C859 C 0.75496 0.02697 0.52468 0.0
C860 C 0.77849 0.00725 0.46502 0.0
C861 C 0.68753 0.99411 0.39264 0.0
H862 H 0.76925 0.95706 0.33936 0.0
C863 C 0.64661 0.94749 0.23998 0.0
C864 C 0.67682 0.94754 0.21093 0.0
C865 C 0.65654 0.95589 0.27916 0.0
C866 C 0.74622 0.96754 0.35372 0.0
H867 H 0.6895 0.02115 0.53552 0.0
H868 H 0.67464 0.99635 0.47602 0.0
H869 H 0.78561 0.97051 0.40876 0.0
H870 H 0.7407 0.9576 0.2002 0.0
H871 H 0.75813 0.97235 0.26884 0.0
H872 H 0.64819 0.99114 0.33767 0.0
C873 C 0.70636 0.00293 0.48229 0.0
C874 C 0.75552 0.97522 0.39362 0.0
C875 C 0.71503 0.01677 0.51695 0.0
C876 C 0.71688 0.95698 0.22189 0.0
C877 C 0.72691 0.96534 0.2613 0.0
C878 C 0.67815 0.9863 0.35296 0.0
C879 C 0.73745 -0.00099 0.45472 0.0
C880 C 0.72639 0.98878 0.41363 0.0
C881 C 0.69694 0.96468 0.29055 0.0
C882 C 0.7074 0.97303 0.33285 0.0
H883 H 0.81831 0.02849 0.5048 0.0
H884 H 0.80339 0.00475 0.44484 0.0
H885 H 0.66466 0.005 0.40633 0.0
H886 H 0.61556 0.94012 0.23303 0.0
H887 H 0.63281 0.95484 0.30095 0.0
loop_
_geom_bond_atom_site_label_1
_geom_bond_atom_site_label_2
_geom_bond_distance
_geom_bond_site_symmetry_2
_ccdc_geom_bond_type
Zn0 O6 1.920 . S
Zn0 O12 1.898 . S
Zn0 O15 1.905 . S
Zn1 O9 1.905 . S
Zn1 O10 1.898 . S
Zn1 O18 1.920 . S
Zn2 O5 2.080 . S
Zn2 O8 2.114 . S
Zn2 O11 2.120 . S
Zn2 O13 2.120 . S
Zn2 O14 2.114 . S
Zn2 O17 2.080 . S
C3 O8 1.166 . S
C3 O9 1.182 . S
C4 O10 1.167 . S
C4 O11 1.299 . S
O5 Zn2 2.080 . S
O5 C19 1.305 . S
O6 Zn0 1.920 . S
O6 C19 1.234 . S
C7 O12 1.167 . S
C7 O13 1.299 . S
O8 Zn2 2.114 . S
O8 C3 1.166 . S
O9 Zn1 1.905 . S
O9 C3 1.182 . S
O10 Zn1 1.898 . S
O10 C4 1.167 . S
O11 Zn2 2.120 . S
O11 C4 1.299 . S
O12 Zn0 1.898 . S
O12 C7 1.167 . S
O13 Zn2 2.120 . S
O13 C7 1.299 . S
O14 Zn2 2.114 . S
O14 C16 1.166 . S
O15 Zn0 1.905 . S
O15 C16 1.182 . S
C16 O14 1.166 . S
C16 O15 1.182 . S
O17 Zn2 2.080 . S
O17 C20 1.305 . S
O18 Zn1 1.920 . S
O18 C20 1.234 . S
C19 O5 1.305 . S
C19 O6 1.234 . S
C20 O17 1.305 . S
C20 O18 1.234 . S
Zn21 O27 1.920 . S
Zn21 O33 1.898 . S
Zn21 O36 1.905 . S
Zn22 O30 1.905 . S
Zn22 O31 1.898 . S
Zn22 O39 1.920 . S
Zn23 O26 2.080 . S
Zn23 O29 2.114 . S
Zn23 O32 2.120 . S
Zn23 O34 2.120 . S
Zn23 O35 2.114 . S
Zn23 O38 2.080 . S
C24 O29 1.166 . S
C24 O30 1.182 . S
C25 O31 1.167 . S
C25 O32 1.299 . S
O26 Zn23 2.080 . S
O26 C40 1.305 . S
O27 Zn21 1.920 . S
O27 C40 1.234 . S
C28 O33 1.167 . S
C28 O34 1.299 . S
O29 Zn23 2.114 . S
O29 C24 1.166 . S
O30 Zn22 1.905 . S
O30 C24 1.182 . S
O31 Zn22 1.898 . S
O31 C25 1.167 . S
O32 Zn23 2.120 . S
O32 C25 1.299 . S
O33 Zn21 1.898 . S
O33 C28 1.167 . S
O34 Zn23 2.120 . S
O34 C28 1.299 . S
O35 Zn23 2.114 . S
O35 C37 1.166 . S
O36 Zn21 1.905 . S
O36 C37 1.182 . S
C37 O35 1.166 . S
C37 O36 1.182 . S
O38 Zn23 2.080 . S
O38 C41 1.305 . S
O39 Zn22 1.920 . S
O39 C41 1.234 . S
C40 O26 1.305 . S
C40 O27 1.234 . S
C41 O38 1.305 . S
C41 O39 1.234 . S
Zn42 O48 1.920 . S
Zn42 O54 1.898 . S
Zn42 O57 1.905 . S
Zn43 O51 1.905 . S
Zn43 O52 1.898 . S
Zn43 O60 1.920 . S
Zn44 O47 2.080 . S
Zn44 O50 2.114 . S
Zn44 O53 2.120 . S
Zn44 O55 2.120 . S
Zn44 O56 2.114 . S
Zn44 O59 2.080 . S
C45 O50 1.166 . S
C45 O51 1.182 . S
C46 O52 1.167 . S
C46 O53 1.299 . S
O47 Zn44 2.080 . S
O47 C61 1.305 . S
O48 Zn42 1.920 . S
O48 C61 1.234 . S
C49 O54 1.167 . S
C49 O55 1.299 . S
O50 Zn44 2.114 . S
O50 C45 1.166 . S
O51 Zn43 1.905 . S
O51 C45 1.182 . S
O52 Zn43 1.898 . S
O52 C46 1.167 . S
O53 Zn44 2.120 . S
O53 C46 1.299 . S
O54 Zn42 1.898 . S
O54 C49 1.167 . S
O55 Zn44 2.120 . S
O55 C49 1.299 . S
O56 Zn44 2.114 . S
O56 C58 1.166 . S
O57 Zn42 1.905 . S
O57 C58 1.182 . S
C58 O56 1.166 . S
C58 O57 1.182 . S
O59 Zn44 2.080 . S
O59 C62 1.305 . S
O60 Zn43 1.920 . S
O60 C62 1.234 . S
C61 O47 1.305 . S
C61 O48 1.234 . S
C62 O59 1.305 . S
C62 O60 1.234 . S
Zn63 O69 1.920 . S
Zn63 O75 1.898 . S
Zn63 O78 1.905 . S
Zn64 O72 1.905 . S
Zn64 O73 1.898 . S
Zn64 O81 1.920 . S
Zn65 O68 2.080 . S
Zn65 O71 2.114 . S
Zn65 O74 2.120 . S
Zn65 O76 2.120 . S
Zn65 O77 2.114 . S
Zn65 O80 2.080 . S
C66 O71 1.166 . S
C66 O72 1.182 . S
C67 O73 1.167 . S
C67 O74 1.299 . S
O68 Zn65 2.080 . S
O68 C82 1.305 . S
O69 Zn63 1.920 . S
O69 C82 1.234 . S
C70 O75 1.167 . S
C70 O76 1.299 . S
O71 Zn65 2.114 . S
O71 C66 1.166 . S
O72 Zn64 1.905 . S
O72 C66 1.182 . S
O73 Zn64 1.898 . S
O73 C67 1.167 . S
O74 Zn65 2.120 . S
O74 C67 1.299 . S
O75 Zn63 1.898 . S
O75 C70 1.167 . S
O76 Zn65 2.120 . S
O76 C70 1.299 . S
O77 Zn65 2.114 . S
O77 C79 1.166 . S
O78 Zn63 1.905 . S
O78 C79 1.182 . S
C79 O77 1.166 . S
C79 O78 1.182 . S
O80 Zn65 2.080 . S
O80 C83 1.305 . S
O81 Zn64 1.920 . S
O81 C83 1.234 . S
C82 O68 1.305 . S
C82 O69 1.234 . S
C83 O80 1.305 . S
C83 O81 1.234 . S
Zn84 O90 1.920 . S
Zn84 O96 1.898 . S
Zn84 O99 1.905 . S
Zn85 O93 1.905 . S
Zn85 O94 1.898 . S
Zn85 O102 1.920 . S
Zn86 O89 2.080 . S
Zn86 O92 2.114 . S
Zn86 O95 2.120 . S
Zn86 O97 2.120 . S
Zn86 O98 2.114 . S
Zn86 O101 2.080 . S
C87 O92 1.166 . S
C87 O93 1.182 . S
C88 O94 1.167 . S
C88 O95 1.299 . S
O89 Zn86 2.080 . S
O89 C103 1.305 . S
O90 Zn84 1.920 . S
O90 C103 1.234 . S
C91 O96 1.167 . S
C91 O97 1.299 . S
O92 Zn86 2.114 . S
O92 C87 1.166 . S
O93 Zn85 1.905 . S
O93 C87 1.182 . S
O94 Zn85 1.898 . S
O94 C88 1.167 . S
O95 Zn86 2.120 . S
O95 C88 1.299 . S
O96 Zn84 1.898 . S
O96 C91 1.167 . S
O97 Zn86 2.120 . S
O97 C91 1.299 . S
O98 Zn86 2.114 . S
O98 C100 1.166 . S
O99 Zn84 1.905 . S
O99 C100 1.182 . S
C100 O98 1.166 . S
C100 O99 1.182 . S
O101 Zn86 2.080 . S
O101 C104 1.305 . S
O102 Zn85 1.920 . S
O102 C104 1.234 . S
C103 O89 1.305 . S
C103 O90 1.234 . S
C104 O101 1.305 . S
C104 O102 1.234 . S
Zn105 O111 1.920 . S
Zn105 O117 1.898 . S
Zn105 O120 1.905 . S
Zn106 O114 1.905 . S
Zn106 O115 1.898 . S
Zn106 O123 1.920 . S
Zn107 O110 2.080 . S
Zn107 O113 2.114 . S
Zn107 O116 2.120 . S
Zn107 O118 2.120 . S
Zn107 O119 2.114 . S
Zn107 O122 2.080 . S
C108 O113 1.166 . S
C108 O114 1.182 . S
C109 O115 1.167 . S
C109 O116 1.299 . S
O110 Zn107 2.080 . S
O110 C124 1.305 . S
O111 Zn105 1.920 . S
O111 C124 1.234 . S
C112 O117 1.167 . S
C112 O118 1.299 . S
O113 Zn107 2.114 . S
O113 C108 1.166 . S
O114 Zn106 1.905 . S
O114 C108 1.182 . S
O115 Zn106 1.898 . S
O115 C109 1.167 . S
O116 Zn107 2.120 . S
O116 C109 1.299 . S
O117 Zn105 1.898 . S
O117 C112 1.167 . S
O118 Zn107 2.120 . S
O118 C112 1.299 . S
O119 Zn107 2.114 . S
O119 C121 1.166 . S
O120 Zn105 1.905 . S
O120 C121 1.182 . S
C121 O119 1.166 . S
C121 O120 1.182 . S
O122 Zn107 2.080 . S
O122 C125 1.305 . S
O123 Zn106 1.920 . S
O123 C125 1.234 . S
C124 O110 1.305 . S
C124 O111 1.234 . S
C125 O122 1.305 . S
C125 O123 1.234 . S
Zn126 O132 1.920 . S
Zn126 O138 1.898 . S
Zn126 O141 1.905 . S
Zn127 O135 1.905 . S
Zn127 O136 1.898 . S
Zn127 O144 1.920 . S
Zn128 O131 2.080 . S
Zn128 O134 2.114 . S
Zn128 O137 2.120 . S
Zn128 O139 2.120 . S
Zn128 O140 2.114 . S
Zn128 O143 2.080 . S
C129 O134 1.166 . S
C129 O135 1.182 . S
C130 O136 1.167 . S
C130 O137 1.299 . S
O131 Zn128 2.080 . S
O131 C145 1.305 . S
O132 Zn126 1.920 . S
O132 C145 1.234 . S
C133 O138 1.167 . S
C133 O139 1.299 . S
O134 Zn128 2.114 . S
O134 C129 1.166 . S
O135 Zn127 1.905 . S
O135 C129 1.182 . S
O136 Zn127 1.898 . S
O136 C130 1.167 . S
O137 Zn128 2.120 . S
O137 C130 1.299 . S
O138 Zn126 1.898 . S
O138 C133 1.167 . S
O139 Zn128 2.120 . S
O139 C133 1.299 . S
O140 Zn128 2.114 . S
O140 C142 1.166 . S
O141 Zn126 1.905 . S
O141 C142 1.182 . S
C142 O140 1.166 . S
C142 O141 1.182 . S
O143 Zn128 2.080 . S
O143 C146 1.305 . S
O144 Zn127 1.920 . S
O144 C146 1.234 . S
C145 O131 1.305 . S
C145 O132 1.234 . S
C146 O143 1.305 . S
C146 O144 1.234 . S
Zn147 O153 1.920 . S
Zn147 O159 1.898 . S
Zn147 O162 1.905 . S
Zn148 O156 1.905 . S
Zn148 O157 1.898 . S
Zn148 O165 1.920 . S
Zn149 O152 2.080 . S
Zn149 O155 2.114 . S
Zn149 O158 2.120 . S
Zn149 O160 2.120 . S
Zn149 O161 2.114 . S
Zn149 O164 2.080 . S
C150 O155 1.166 . S
C150 O156 1.182 . S
C151 O157 1.167 . S
C151 O158 1.299 . S
O152 Zn149 2.080 . S
O152 C166 1.305 . S
O153 Zn147 1.920 . S
O153 C166 1.234 . S
C154 O159 1.167 . S
C154 O160 1.299 . S
O155 Zn149 2.114 . S
O155 C150 1.166 . S
O156 Zn148 1.905 . S
O156 C150 1.182 . S
O157 Zn148 1.898 . S
O157 C151 1.167 . S
O158 Zn149 2.120 . S
O158 C151 1.299 . S
O159 Zn147 1.898 . S
O159 C154 1.167 . S
O160 Zn149 2.120 . S
O160 C154 1.299 . S
O161 Zn149 2.114 . S
O161 C163 1.166 . S
O162 Zn147 1.905 . S
O162 C163 1.182 . S
C163 O161 1.166 . S
C163 O162 1.182 . S
O164 Zn149 2.080 . S
O164 C167 1.305 . S
O165 Zn148 1.920 . S
O165 C167 1.234 . S
C166 O152 1.305 . S
C166 O153 1.234 . S
C167 O164 1.305 . S
C167 O165 1.234 . S
C168 C169 1.349 . S
C168 C170 1.327 . S
C168 H193 0.950 . S
C169 C168 1.349 . S
C169 C185 1.349 . S
C170 C168 1.327 . S
C170 C189 1.429 . S
C170 H194 0.950 . S
C171 C188 1.574 . S
C171 C190 1.368 . S
C171 H195 0.949 . S
H172 C176 0.949 . S
C173 C174 1.349 . S
C173 C175 1.327 . S
C173 H196 0.950 . S
C174 C173 1.349 . S
C174 C186 1.349 . S
C175 C173 1.327 . S
C175 C191 1.429 . S
C175 H197 0.950 . S
C176 H172 0.949 . S
C176 C184 1.574 . S
C176 C192 1.368 . S
H177 C185 0.950 . S
H178 C183 0.950 . S
H179 C184 0.949 . S
H180 C186 0.950 . S
H181 C187 0.950 . S
H182 C188 0.949 . S
C183 H178 0.950 . S
C183 C185 1.327 . S
C183 C189 1.429 . S
C184 C176 1.574 . S
C184 H179 0.949 . S
C184 C190 1.368 . S
C185 C169 1.349 . S
C185 H177 0.950 . S
C185 C183 1.327 . S
C186 C174 1.349 . S
C186 H180 0.950 . S
C186 C187 1.327 . S
C187 H181 0.950 . S
C187 C186 1.327 . S
C187 C191 1.429 . S
C188 C171 1.574 . S
C188 H182 0.949 . S
C188 C192 1.368 . S
C189 C170 1.429 . S
C189 C183 1.429 . S
C189 C190 1.523 . S
C190 C171 1.368 . S
C190 C184 1.368 . S
C190 C189 1.523 . S
C191 C175 1.429 . S
C191 C187 1.429 . S
C191 C192 1.523 . S
C192 C176 1.368 . S
C192 C188 1.368 . S
C192 C191 1.523 . S
H193 C168 0.950 . S
H194 C170 0.950 . S
H195 C171 0.949 . S
H196 C173 0.950 . S
H197 C175 0.950 . S
C198 C199 1.349 . S
C198 C200 1.327 . S
C198 H223 0.950 . S
C199 C198 1.349 . S
C199 C215 1.349 . S
C200 C198 1.327 . S
C200 C219 1.429 . S
C200 H224 0.950 . S
C201 C218 1.574 . S
C201 C220 1.368 . S
C201 H225 0.949 . S
H202 C206 0.949 . S
C203 C204 1.349 . S
C203 C205 1.327 . S
C203 H226 0.950 . S
C204 C203 1.349 . S
C204 C216 1.349 . S
C205 C203 1.327 . S
C205 C221 1.429 . S
C205 H227 0.950 . S
C206 H202 0.949 . S
C206 C214 1.574 . S
C206 C222 1.368 . S
H207 C215 0.950 . S
H208 C213 0.950 . S
H209 C214 0.949 . S
H210 C216 0.950 . S
H211 C217 0.950 . S
H212 C218 0.949 . S
C213 H208 0.950 . S
C213 C215 1.327 . S
C213 C219 1.429 . S
C214 C206 1.574 . S
C214 H209 0.949 . S
C214 C220 1.368 . S
C215 C199 1.349 . S
C215 H207 0.950 . S
C215 C213 1.327 . S
C216 C204 1.349 . S
C216 H210 0.950 . S
C216 C217 1.327 . S
C217 H211 0.950 . S
C217 C216 1.327 . S
C217 C221 1.429 . S
C218 C201 1.574 . S
C218 H212 0.949 . S
C218 C222 1.368 . S
C219 C200 1.429 . S
C219 C213 1.429 . S
C219 C220 1.523 . S
C220 C201 1.368 . S
C220 C214 1.368 . S
C220 C219 1.523 . S
C221 C205 1.429 . S
C221 C217 1.429 . S
C221 C222 1.523 . S
C222 C206 1.368 . S
C222 C218 1.368 . S
C222 C221 1.523 . S
H223 C198 0.950 . S
H224 C200 0.950 . S
H225 C201 0.949 . S
H226 C203 0.950 . S
H227 C205 0.950 . S
C228 C229 1.349 . S
C228 C230 1.327 . S
C228 H253 0.950 . S
C229 C228 1.349 . S
C229 C245 1.349 . S
C230 C228 1.327 . S
C230 C249 1.429 . S
C230 H254 0.950 . S
C231 C248 1.574 1_455 S
C231 C250 1.368 . S
C231 H255 0.949 . S
H232 C236 0.949 . S
C233 C234 1.349 . S
C233 C235 1.327 . S
C233 H256 0.950 . S
C234 C233 1.349 . S
C234 C246 1.349 . S
C235 C233 1.327 . S
C235 C251 1.429 . S
C235 H257 0.950 . S
C236 H232 0.949 . S
C236 C244 1.574 1_655 S
C236 C252 1.368 . S
H237 C245 0.950 . S
H238 C243 0.950 . S
H239 C244 0.949 . S
H240 C246 0.950 . S
H241 C247 0.950 . S
H242 C248 0.949 . S
C243 H238 0.950 . S
C243 C245 1.327 . S
C243 C249 1.429 . S
C244 C236 1.574 1_455 S
C244 H239 0.949 . S
C244 C250 1.368 . S
C245 C229 1.349 . S
C245 H237 0.950 . S
C245 C243 1.327 . S
C246 C234 1.349 . S
C246 H240 0.950 . S
C246 C247 1.327 . S
C247 H241 0.950 . S
C247 C246 1.327 . S
C247 C251 1.429 . S
C248 C231 1.574 1_655 S
C248 H242 0.949 . S
C248 C252 1.368 . S
C249 C230 1.429 . S
C249 C243 1.429 . S
C249 C250 1.523 . S
C250 C231 1.368 . S
C250 C244 1.368 . S
C250 C249 1.523 . S
C251 C235 1.429 . S
C251 C247 1.429 . S
C251 C252 1.523 . S
C252 C236 1.368 . S
C252 C248 1.368 . S
C252 C251 1.523 . S
H253 C228 0.950 . S
H254 C230 0.950 . S
H255 C231 0.949 . S
H256 C233 0.950 . S
H257 C235 0.950 . S
C258 C259 1.349 . S
C258 C260 1.327 . S
C258 H283 0.950 . S
C259 C258 1.349 . S
C259 C275 1.349 . S
C260 C258 1.327 . S
C260 C279 1.429 . S
C260 H284 0.950 . S
C261 C278 1.574 1_455 S
C261 C280 1.368 . S
C261 H285 0.949 . S
H262 C266 0.949 . S
C263 C264 1.349 . S
C263 C265 1.327 . S
C263 H286 0.950 . S
C264 C263 1.349 . S
C264 C276 1.349 . S
C265 C263 1.327 . S
C265 C281 1.429 . S
C265 H287 0.950 . S
C266 H262 0.949 . S
C266 C274 1.574 1_655 S
C266 C282 1.368 . S
H267 C275 0.950 . S
H268 C273 0.950 . S
H269 C274 0.949 . S
H270 C276 0.950 . S
H271 C277 0.950 . S
H272 C278 0.949 . S
C273 H268 0.950 . S
C273 C275 1.327 . S
C273 C279 1.429 . S
C274 C266 1.574 1_455 S
C274 H269 0.949 . S
C274 C280 1.368 . S
C275 C259 1.349 . S
C275 H267 0.950 . S
C275 C273 1.327 . S
C276 C264 1.349 . S
C276 H270 0.950 . S
C276 C277 1.327 . S
C277 H271 0.950 . S
C277 C276 1.327 . S
C277 C281 1.429 . S
C278 C261 1.574 1_655 S
C278 H272 0.949 . S
C278 C282 1.368 . S
C279 C260 1.429 . S
C279 C273 1.429 . S
C279 C280 1.523 . S
C280 C261 1.368 . S
C280 C274 1.368 . S
C280 C279 1.523 . S
C281 C265 1.429 . S
C281 C277 1.429 . S
C281 C282 1.523 . S
C282 C266 1.368 . S
C282 C278 1.368 . S
C282 C281 1.523 . S
H283 C258 0.950 . S
H284 C260 0.950 . S
H285 C261 0.949 . S
H286 C263 0.950 . S
H287 C265 0.950 . S
C288 C289 1.349 . S
C288 C290 1.327 . S
C288 H313 0.950 . S
C289 C288 1.349 . S
C289 C305 1.349 . S
C290 C288 1.327 . S
C290 C309 1.429 . S
C290 H314 0.950 . S
C291 C308 1.574 . S
C291 C310 1.368 1_556 S
C291 H315 0.949 . S
H292 C296 0.949 . S
C293 C294 1.349 . S
C293 C295 1.327 . S
C293 H316 0.950 . S
C294 C293 1.349 . S
C294 C306 1.349 . S
C295 C293 1.327 . S
C295 C311 1.429 . S
C295 H317 0.950 . S
C296 H292 0.949 . S
C296 C304 1.574 . S
C296 C312 1.368 1_554 S
H297 C305 0.950 . S
H298 C303 0.950 . S
H299 C304 0.949 . S
H300 C306 0.950 . S
H301 C307 0.950 . S
H302 C308 0.949 . S
C303 H298 0.950 . S
C303 C305 1.327 . S
C303 C309 1.429 . S
C304 C296 1.574 . S
C304 H299 0.949 . S
C304 C310 1.368 . S
C305 C289 1.349 . S
C305 H297 0.950 . S
C305 C303 1.327 . S
C306 C294 1.349 . S
C306 H300 0.950 . S
C306 C307 1.327 . S
C307 H301 0.950 . S
C307 C306 1.327 . S
C307 C311 1.429 . S
C308 C291 1.574 . S
C308 H302 0.949 . S
C308 C312 1.368 . S
C309 C290 1.429 . S
C309 C303 1.429 . S
C309 C310 1.523 . S
C310 C291 1.368 1_554 S
C310 C304 1.368 . S
C310 C309 1.523 . S
C311 C295 1.429 . S
C311 C307 1.429 . S
C311 C312 1.523 . S
C312 C296 1.368 1_556 S
C312 C308 1.368 . S
C312 C311 1.523 . S
H313 C288 0.950 . S
H314 C290 0.950 . S
H315 C291 0.949 . S
H316 C293 0.950 . S
H317 C295 0.950 . S
C318 C319 1.349 . S
C318 C320 1.327 . S
C318 H343 0.950 . S
C319 C318 1.349 . S
C319 C335 1.349 . S
C320 C318 1.327 . S
C320 C339 1.429 . S
C320 H344 0.950 . S
C321 C338 1.574 . S
C321 C340 1.368 . S
C321 H345 0.949 . S
H322 C326 0.949 . S
C323 C324 1.349 . S
C323 C325 1.327 . S
C323 H346 0.950 . S
C324 C323 1.349 . S
C324 C336 1.349 . S
C325 C323 1.327 . S
C325 C341 1.429 . S
C325 H347 0.950 . S
C326 H322 0.949 . S
C326 C334 1.574 . S
C326 C342 1.368 . S
H327 C335 0.950 . S
H328 C333 0.950 . S
H329 C334 0.949 . S
H330 C336 0.950 . S
H331 C337 0.950 . S
H332 C338 0.949 . S
C333 H328 0.950 . S
C333 C335 1.327 . S
C333 C339 1.429 . S
C334 C326 1.574 . S
C334 H329 0.949 . S
C334 C340 1.368 . S
C335 C319 1.349 . S
C335 H327 0.950 . S
C335 C333 1.327 . S
C336 C324 1.349 . S
C336 H330 0.950 . S
C336 C337 1.327 . S
C337 H331 0.950 . S
C337 C336 1.327 . S
C337 C341 1.429 . S
C338 C321 1.574 . S
C338 H332 0.949 . S
C338 C342 1.368 . S
C339 C320 1.429 . S
C339 C333 1.429 . S
C339 C340 1.523 . S
C340 C321 1.368 . S
C340 C334 1.368 . S
C340 C339 1.523 . S
C341 C325 1.429 . S
C341 C337 1.429 . S
C341 C342 1.523 . S
C342 C326 1.368 . S
C342 C338 1.368 . S
C342 C341 1.523 . S
H343 C318 0.950 . S
H344 C320 0.950 . S
H345 C321 0.949 . S
H346 C323 0.950 . S
H347 C325 0.950 . S
C348 C349 1.349 . S
C348 C350 1.327 . S
C348 H373 0.950 . S
C349 C348 1.349 . S
C349 C365 1.349 . S
C350 C348 1.327 . S
C350 C369 1.429 . S
C350 H374 0.950 1_554 S
C351 C368 1.574 . S
C351 C370 1.368 . S
C351 H375 0.949 . S
H352 C356 0.949 . S
C353 C354 1.349 . S
C353 C355 1.327 . S
C353 H376 0.950 . S
C354 C353 1.349 . S
C354 C366 1.349 . S
C355 C353 1.327 . S
C355 C371 1.429 . S
C355 H377 0.950 1_556 S
C356 H352 0.949 . S
C356 C364 1.574 . S
C356 C372 1.368 . S
H357 C365 0.950 . S
H358 C363 0.950 . S
H359 C364 0.949 . S
H360 C366 0.950 . S
H361 C367 0.950 . S
H362 C368 0.949 . S
C363 H358 0.950 . S
C363 C365 1.327 . S
C363 C369 1.429 . S
C364 C356 1.574 . S
C364 H359 0.949 . S
C364 C370 1.368 1_556 S
C365 C349 1.349 . S
C365 H357 0.950 . S
C365 C363 1.327 . S
C366 C354 1.349 . S
C366 H360 0.950 . S
C366 C367 1.327 . S
C367 H361 0.950 . S
C367 C366 1.327 . S
C367 C371 1.429 . S
C368 C351 1.574 . S
C368 H362 0.949 . S
C368 C372 1.368 1_554 S
C369 C350 1.429 . S
C369 C363 1.429 . S
C369 C370 1.523 . S
C370 C351 1.368 . S
C370 C364 1.368 1_554 S
C370 C369 1.523 . S
C371 C355 1.429 . S
C371 C367 1.429 . S
C371 C372 1.523 . S
C372 C356 1.368 . S
C372 C368 1.368 1_556 S
C372 C371 1.523 . S
H373 C348 0.950 . S
H374 C350 0.950 1_556 S
H375 C351 0.949 . S
H376 C353 0.950 . S
H377 C355 0.950 1_554 S
C378 C379 1.349 . S
C378 C380 1.327 . S
C378 H403 0.950 . S
C379 C378 1.349 . S
C379 C395 1.349 . S
C380 C378 1.327 . S
C380 C399 1.429 . S
C380 H404 0.950 . S
C381 C398 1.574 . S
C381 C400 1.368 . S
C381 H405 0.949 . S
H382 C386 0.949 . S
C383 C384 1.349 . S
C383 C385 1.327 . S
C383 H406 0.950 . S
C384 C383 1.349 . S
C384 C396 1.349 . S
C385 C383 1.327 . S
C385 C401 1.429 . S
C385 H407 0.950 . S
C386 H382 0.949 . S
C386 C394 1.574 . S
C386 C402 1.368 . S
H387 C395 0.950 . S
H388 C393 0.950 . S
H389 C394 0.949 . S
H390 C396 0.950 . S
H391 C397 0.950 . S
H392 C398 0.949 . S
C393 H388 0.950 . S
C393 C395 1.327 . S
C393 C399 1.429 . S
C394 C386 1.574 . S
C394 H389 0.949 . S
C394 C400 1.368 . S
C395 C379 1.349 . S
C395 H387 0.950 . S
C395 C393 1.327 . S
C396 C384 1.349 . S
C396 H390 0.950 . S
C396 C397 1.327 . S
C397 H391 0.950 . S
C397 C396 1.327 . S
C397 C401 1.429 . S
C398 C381 1.574 . S
C398 H392 0.949 . S
C398 C402 1.368 . S
C399 C380 1.429 . S
C399 C393 1.429 . S
C399 C400 1.523 . S
C400 C381 1.368 . S
C400 C394 1.368 . S
C400 C399 1.523 . S
C401 C385 1.429 . S
C401 C397 1.429 . S
C401 C402 1.523 . S
C402 C386 1.368 . S
C402 C398 1.368 . S
C402 C401 1.523 . S
H403 C378 0.950 . S
H404 C380 0.950 . S
H405 C381 0.949 . S
H406 C383 0.950 . S
H407 C385 0.950 . S
C408 C409 1.349 . S
C408 C410 1.327 . S
C408 H433 0.950 . S
C409 C408 1.349 . S
C409 C425 1.349 . S
C410 C408 1.327 . S
C410 C429 1.429 . S
C410 H434 0.950 1_556 S
C411 C428 1.574 1_655 S
C411 C430 1.368 . S
C411 H435 0.949 . S
H412 C416 0.949 . S
C413 C414 1.349 . S
C413 C415 1.327 . S
C413 H436 0.950 . S
C414 C413 1.349 . S
C414 C426 1.349 . S
C415 C413 1.327 . S
C415 C431 1.429 . S
C415 H437 0.950 1_554 S
C416 H412 0.949 . S
C416 C424 1.574 1_455 S
C416 C432 1.368 . S
H417 C425 0.950 . S
H418 C423 0.950 . S
H419 C424 0.949 . S
H420 C426 0.950 . S
H421 C427 0.950 . S
H422 C428 0.949 . S
C423 H418 0.950 . S
C423 C425 1.327 . S
C423 C429 1.429 . S
C424 C416 1.574 1_655 S
C424 H419 0.949 . S
C424 C430 1.368 1_554 S
C425 C409 1.349 . S
C425 H417 0.950 . S
C425 C423 1.327 . S
C426 C414 1.349 . S
C426 H420 0.950 . S
C426 C427 1.327 . S
C427 H421 0.950 . S
C427 C426 1.327 . S
C427 C431 1.429 . S
C428 C411 1.574 1_455 S
C428 H422 0.949 . S
C428 C432 1.368 1_556 S
C429 C410 1.429 . S
C429 C423 1.429 . S
C429 C430 1.523 . S
C430 C411 1.368 . S
C430 C424 1.368 1_556 S
C430 C429 1.523 . S
C431 C415 1.429 . S
C431 C427 1.429 . S
C431 C432 1.523 . S
C432 C416 1.368 . S
C432 C428 1.368 1_554 S
C432 C431 1.523 . S
H433 C408 0.950 . S
H434 C410 0.950 1_554 S
H435 C411 0.949 . S
H436 C413 0.950 . S
H437 C415 0.950 1_556 S
C438 C439 1.349 . S
C438 C440 1.327 . S
C438 H463 0.950 . S
C439 C438 1.349 . S
C439 C455 1.349 . S
C440 C438 1.327 . S
C440 C459 1.429 . S
C440 H464 0.950 . S
C441 C458 1.574 . S
C441 C460 1.368 . S
C441 H465 0.949 . S
H442 C446 0.949 . S
C443 C444 1.349 . S
C443 C445 1.327 . S
C443 H466 0.950 . S
C444 C443 1.349 . S
C444 C456 1.349 . S
C445 C443 1.327 . S
C445 C461 1.429 . S
C445 H467 0.950 . S
C446 H442 0.949 . S
C446 C454 1.574 . S
C446 C462 1.368 . S
H447 C455 0.950 . S
H448 C453 0.950 . S
H449 C454 0.949 . S
H450 C456 0.950 . S
H451 C457 0.950 . S
H452 C458 0.949 . S
C453 H448 0.950 . S
C453 C455 1.327 . S
C453 C459 1.429 . S
C454 C446 1.574 . S
C454 H449 0.949 . S
C454 C460 1.368 1_655 S
C455 C439 1.349 . S
C455 H447 0.950 . S
C455 C453 1.327 . S
C456 C444 1.349 . S
C456 H450 0.950 . S
C456 C457 1.327 . S
C457 H451 0.950 . S
C457 C456 1.327 . S
C457 C461 1.429 . S
C458 C441 1.574 . S
C458 H452 0.949 . S
C458 C462 1.368 1_455 S
C459 C440 1.429 . S
C459 C453 1.429 . S
C459 C460 1.523 . S
C460 C441 1.368 . S
C460 C454 1.368 1_455 S
C460 C459 1.523 . S
C461 C445 1.429 . S
C461 C457 1.429 . S
C461 C462 1.523 . S
C462 C446 1.368 . S
C462 C458 1.368 1_655 S
C462 C461 1.523 . S
H463 C438 0.950 . S
H464 C440 0.950 . S
H465 C441 0.949 . S
H466 C443 0.950 . S
H467 C445 0.950 . S
C468 C469 1.349 . S
C468 C470 1.327 . S
C468 H493 0.950 . S
C469 C468 1.349 . S
C469 C485 1.349 . S
C470 C468 1.327 . S
C470 C489 1.429 . S
C470 H494 0.950 1_554 S
C471 C488 1.574 . S
C471 C490 1.368 1_545 S
C471 H495 0.949 . S
H472 C476 0.949 . S
C473 C474 1.349 . S
C473 C475 1.327 . S
C473 H496 0.950 . S
C474 C473 1.349 . S
C474 C486 1.349 . S
C475 C473 1.327 . S
C475 C491 1.429 . S
C475 H497 0.950 1_556 S
C476 H472 0.949 . S
C476 C484 1.574 . S
C476 C492 1.368 1_565 S
H477 C485 0.950 . S
H478 C483 0.950 . S
H479 C484 0.949 . S
H480 C486 0.950 . S
H481 C487 0.950 . S
H482 C488 0.949 . S
C483 H478 0.950 . S
C483 C485 1.327 . S
C483 C489 1.429 . S
C484 C476 1.574 . S
C484 H479 0.949 . S
C484 C490 1.368 1_556 S
C485 C469 1.349 . S
C485 H477 0.950 . S
C485 C483 1.327 . S
C486 C474 1.349 . S
C486 H480 0.950 . S
C486 C487 1.327 . S
C487 H481 0.950 . S
C487 C486 1.327 . S
C487 C491 1.429 . S
C488 C471 1.574 . S
C488 H482 0.949 . S
C488 C492 1.368 1_554 S
C489 C470 1.429 . S
C489 C483 1.429 . S
C489 C490 1.523 . S
C490 C471 1.368 1_565 S
C490 C484 1.368 1_554 S
C490 C489 1.523 . S
C491 C475 1.429 . S
C491 C487 1.429 . S
C491 C492 1.523 . S
C492 C476 1.368 1_545 S
C492 C488 1.368 1_556 S
C492 C491 1.523 . S
H493 C468 0.950 . S
H494 C470 0.950 1_556 S
H495 C471 0.949 . S
H496 C473 0.950 . S
H497 C475 0.950 1_554 S
C498 C499 1.349 . S
C498 C500 1.327 . S
C498 H523 0.950 . S
C499 C498 1.349 . S
C499 C515 1.349 . S
C500 C498 1.327 . S
C500 C519 1.429 . S
C500 H524 0.950 . S
C501 C518 1.574 . S
C501 C520 1.368 1_545 S
C501 H525 0.949 . S
H502 C506 0.949 . S
C503 C504 1.349 . S
C503 C505 1.327 . S
C503 H526 0.950 . S
C504 C503 1.349 . S
C504 C516 1.349 . S
C505 C503 1.327 . S
C505 C521 1.429 . S
C505 H527 0.950 . S
C506 H502 0.949 . S
C506 C514 1.574 . S
C506 C522 1.368 1_565 S
H507 C515 0.950 . S
H508 C513 0.950 . S
H509 C514 0.949 . S
H510 C516 0.950 . S
H511 C517 0.950 . S
H512 C518 0.949 . S
C513 H508 0.950 . S
C513 C515 1.327 . S
C513 C519 1.429 . S
C514 C506 1.574 . S
C514 H509 0.949 . S
C514 C520 1.368 . S
C515 C499 1.349 . S
C515 H507 0.950 . S
C515 C513 1.327 . S
C516 C504 1.349 . S
C516 H510 0.950 . S
C516 C517 1.327 . S
C517 H511 0.950 . S
C517 C516 1.327 . S
C517 C521 1.429 . S
C518 C501 1.574 . S
C518 H512 0.949 . S
C518 C522 1.368 . S
C519 C500 1.429 . S
C519 C513 1.429 . S
C519 C520 1.523 . S
C520 C501 1.368 1_565 S
C520 C514 1.368 . S
C520 C519 1.523 . S
C521 C505 1.429 . S
C521 C517 1.429 . S
C521 C522 1.523 . S
C522 C506 1.368 1_545 S
C522 C518 1.368 . S
C522 C521 1.523 . S
H523 C498 0.950 . S
H524 C500 0.950 . S
H525 C501 0.949 . S
H526 C503 0.950 . S
H527 C505 0.950 . S
C528 C529 1.349 . S
C528 C530 1.327 . S
C528 H553 0.950 . S
C529 C528 1.349 . S
C529 C545 1.349 . S
C530 C528 1.327 . S
C530 C549 1.429 . S
C530 H554 0.950 . S
C531 C548 1.574 1_455 S
C531 C550 1.368 . S
C531 H555 0.949 . S
H532 C536 0.949 . S
C533 C534 1.349 . S
C533 C535 1.327 . S
C533 H556 0.950 . S
C534 C533 1.349 . S
C534 C546 1.349 . S
C535 C533 1.327 . S
C535 C551 1.429 . S
C535 H557 0.950 . S
C536 H532 0.949 . S
C536 C544 1.574 1_655 S
C536 C552 1.368 . S
H537 C545 0.950 . S
H538 C543 0.950 . S
H539 C544 0.949 . S
H540 C546 0.950 . S
H541 C547 0.950 . S
H542 C548 0.949 . S
C543 H538 0.950 . S
C543 C545 1.327 . S
C543 C549 1.429 . S
C544 C536 1.574 1_455 S
C544 H539 0.949 . S
C544 C550 1.368 . S
C545 C529 1.349 . S
C545 H537 0.950 . S
C545 C543 1.327 . S
C546 C534 1.349 . S
C546 H540 0.950 . S
C546 C547 1.327 . S
C547 H541 0.950 . S
C547 C546 1.327 . S
C547 C551 1.429 . S
C548 C531 1.574 1_655 S
C548 H542 0.949 . S
C548 C552 1.368 . S
C549 C530 1.429 . S
C549 C543 1.429 . S
C549 C550 1.523 . S
C550 C531 1.368 . S
C550 C544 1.368 . S
C550 C549 1.523 . S
C551 C535 1.429 . S
C551 C547 1.429 . S
C551 C552 1.523 . S
C552 C536 1.368 . S
C552 C548 1.368 . S
C552 C551 1.523 . S
H553 C528 0.950 . S
H554 C530 0.950 . S
H555 C531 0.949 . S
H556 C533 0.950 . S
H557 C535 0.950 . S
C558 C559 1.349 . S
C558 C560 1.327 . S
C558 H583 0.950 . S
C559 C558 1.349 . S
C559 C575 1.349 . S
C560 C558 1.327 . S
C560 C579 1.429 . S
C560 H584 0.950 . S
C561 C578 1.574 1_455 S
C561 C580 1.368 . S
C561 H585 0.949 . S
H562 C566 0.949 . S
C563 C564 1.349 . S
C563 C565 1.327 . S
C563 H586 0.950 . S
C564 C563 1.349 . S
C564 C576 1.349 . S
C565 C563 1.327 . S
C565 C581 1.429 . S
C565 H587 0.950 . S
C566 H562 0.949 . S
C566 C574 1.574 1_655 S
C566 C582 1.368 . S
H567 C575 0.950 . S
H568 C573 0.950 . S
H569 C574 0.949 . S
H570 C576 0.950 . S
H571 C577 0.950 . S
H572 C578 0.949 . S
C573 H568 0.950 . S
C573 C575 1.327 . S
C573 C579 1.429 . S
C574 C566 1.574 1_455 S
C574 H569 0.949 . S
C574 C580 1.368 . S
C575 C559 1.349 . S
C575 H567 0.950 . S
C575 C573 1.327 . S
C576 C564 1.349 . S
C576 H570 0.950 . S
C576 C577 1.327 . S
C577 H571 0.950 . S
C577 C576 1.327 . S
C577 C581 1.429 . S
C578 C561 1.574 1_655 S
C578 H572 0.949 . S
C578 C582 1.368 . S
C579 C560 1.429 . S
C579 C573 1.429 . S
C579 C580 1.523 . S
C580 C561 1.368 . S
C580 C574 1.368 . S
C580 C579 1.523 . S
C581 C565 1.429 . S
C581 C577 1.429 . S
C581 C582 1.523 . S
C582 C566 1.368 . S
C582 C578 1.368 . S
C582 C581 1.523 . S
H583 C558 0.950 . S
H584 C560 0.950 . S
H585 C561 0.949 . S
H586 C563 0.950 . S
H587 C565 0.950 . S
C588 C589 1.349 . S
C588 C590 1.327 . S
C588 H613 0.950 . S
C589 C588 1.349 . S
C589 C605 1.349 . S
C590 C588 1.327 . S
C590 C609 1.429 . S
C590 H614 0.950 . S
C591 C608 1.574 . S
C591 C610 1.368 . S
C591 H615 0.949 . S
H592 C596 0.949 . S
C593 C594 1.349 . S
C593 C595 1.327 . S
C593 H616 0.950 . S
C594 C593 1.349 . S
C594 C606 1.349 . S
C595 C593 1.327 . S
C595 C611 1.429 . S
C595 H617 0.950 . S
C596 H592 0.949 . S
C596 C604 1.574 . S
C596 C612 1.368 . S
H597 C605 0.950 . S
H598 C603 0.950 . S
H599 C604 0.949 . S
H600 C606 0.950 . S
H601 C607 0.950 . S
H602 C608 0.949 . S
C603 H598 0.950 . S
C603 C605 1.327 . S
C603 C609 1.429 . S
C604 C596 1.574 . S
C604 H599 0.949 . S
C604 C610 1.368 . S
C605 C589 1.349 . S
C605 H597 0.950 . S
C605 C603 1.327 . S
C606 C594 1.349 . S
C606 H600 0.950 . S
C606 C607 1.327 . S
C607 H601 0.950 . S
C607 C606 1.327 . S
C607 C611 1.429 . S
C608 C591 1.574 . S
C608 H602 0.949 . S
C608 C612 1.368 . S
C609 C590 1.429 . S
C609 C603 1.429 . S
C609 C610 1.523 . S
C610 C591 1.368 . S
C610 C604 1.368 . S
C610 C609 1.523 . S
C611 C595 1.429 . S
C611 C607 1.429 . S
C611 C612 1.523 . S
C612 C596 1.368 . S
C612 C608 1.368 . S
C612 C611 1.523 . S
H613 C588 0.950 . S
H614 C590 0.950 . S
H615 C591 0.949 . S
H616 C593 0.950 . S
H617 C595 0.950 . S
C618 C619 1.349 . S
C618 C620 1.327 . S
C618 H643 0.950 . S
C619 C618 1.349 . S
C619 C635 1.349 . S
C620 C618 1.327 . S
C620 C639 1.429 . S
C620 H644 0.950 . S
C621 C638 1.574 . S
C621 C640 1.368 . S
C621 H645 0.949 . S
H622 C626 0.949 . S
C623 C624 1.349 . S
C623 C625 1.327 . S
C623 H646 0.950 . S
C624 C623 1.349 . S
C624 C636 1.349 . S
C625 C623 1.327 . S
C625 C641 1.429 . S
C625 H647 0.950 . S
C626 H622 0.949 . S
C626 C634 1.574 . S
C626 C642 1.368 . S
H627 C635 0.950 . S
H628 C633 0.950 . S
H629 C634 0.949 . S
H630 C636 0.950 . S
H631 C637 0.950 . S
H632 C638 0.949 . S
C633 H628 0.950 . S
C633 C635 1.327 . S
C633 C639 1.429 . S
C634 C626 1.574 . S
C634 H629 0.949 . S
C634 C640 1.368 . S
C635 C619 1.349 . S
C635 H627 0.950 . S
C635 C633 1.327 . S
C636 C624 1.349 . S
C636 H630 0.950 . S
C636 C637 1.327 . S
C637 H631 0.950 . S
C637 C636 1.327 . S
C637 C641 1.429 . S
C638 C621 1.574 . S
C638 H632 0.949 . S
C638 C642 1.368 . S
C639 C620 1.429 . S
C639 C633 1.429 . S
C639 C640 1.523 . S
C640 C621 1.368 . S
C640 C634 1.368 . S
C640 C639 1.523 . S
C641 C625 1.429 . S
C641 C637 1.429 . S
C641 C642 1.523 . S
C642 C626 1.368 . S
C642 C638 1.368 . S
C642 C641 1.523 . S
H643 C618 0.950 . S
H644 C620 0.950 . S
H645 C621 0.949 . S
H646 C623 0.950 . S
H647 C625 0.950 . S
C648 C649 1.349 1_556 S
C648 C650 1.327 . S
C648 H673 0.950 . S
C649 C648 1.349 1_554 S
C649 C665 1.349 . S
C650 C648 1.327 . S
C650 C669 1.429 . S
C650 H674 0.950 . S
C651 C668 1.574 . S
C651 C670 1.368 . S
C651 H675 0.949 . S
H652 C656 0.949 . S
C653 C654 1.349 . S
C653 C655 1.327 . S
C653 H676 0.950 . S
C654 C653 1.349 . S
C654 C666 1.349 . S
C655 C653 1.327 . S
C655 C671 1.429 . S
C655 H677 0.950 . S
C656 H652 0.949 . S
C656 C664 1.574 . S
C656 C672 1.368 . S
H657 C665 0.950 . S
H658 C663 0.950 . S
H659 C664 0.949 . S
H660 C666 0.950 . S
H661 C667 0.950 . S
H662 C668 0.949 . S
C663 H658 0.950 . S
C663 C665 1.327 1_556 S
C663 C669 1.429 . S
C664 C656 1.574 . S
C664 H659 0.949 . S
C664 C670 1.368 . S
C665 C649 1.349 . S
C665 H657 0.950 . S
C665 C663 1.327 1_554 S
C666 C654 1.349 . S
C666 H660 0.950 . S
C666 C667 1.327 . S
C667 H661 0.950 . S
C667 C666 1.327 . S
C667 C671 1.429 . S
C668 C651 1.574 . S
C668 H662 0.949 . S
C668 C672 1.368 . S
C669 C650 1.429 . S
C669 C663 1.429 . S
C669 C670 1.523 . S
C670 C651 1.368 . S
C670 C664 1.368 . S
C670 C669 1.523 . S
C671 C655 1.429 . S
C671 C667 1.429 . S
C671 C672 1.523 . S
C672 C656 1.368 . S
C672 C668 1.368 . S
C672 C671 1.523 . S
H673 C648 0.950 . S
H674 C650 0.950 . S
H675 C651 0.949 . S
H676 C653 0.950 . S
H677 C655 0.950 . S
C678 C679 1.349 . S
C678 C680 1.327 . S
C678 H703 0.950 . S
C679 C678 1.349 . S
C679 C695 1.349 . S
C680 C678 1.327 . S
C680 C699 1.429 . S
C680 H704 0.950 . S
C681 C698 1.574 . S
C681 C700 1.368 . S
C681 H705 0.949 . S
H682 C686 0.949 . S
C683 C684 1.349 . S
C683 C685 1.327 . S
C683 H706 0.950 . S
C684 C683 1.349 . S
C684 C696 1.349 . S
C685 C683 1.327 . S
C685 C701 1.429 . S
C685 H707 0.950 . S
C686 H682 0.949 . S
C686 C694 1.574 . S
C686 C702 1.368 . S
H687 C695 0.950 . S
H688 C693 0.950 . S
H689 C694 0.949 . S
H690 C696 0.950 . S
H691 C697 0.950 . S
H692 C698 0.949 . S
C693 H688 0.950 . S
C693 C695 1.327 . S
C693 C699 1.429 . S
C694 C686 1.574 . S
C694 H689 0.949 . S
C694 C700 1.368 . S
C695 C679 1.349 . S
C695 H687 0.950 . S
C695 C693 1.327 . S
C696 C684 1.349 . S
C696 H690 0.950 . S
C696 C697 1.327 . S
C697 H691 0.950 . S
C697 C696 1.327 . S
C697 C701 1.429 . S
C698 C681 1.574 . S
C698 H692 0.949 . S
C698 C702 1.368 . S
C699 C680 1.429 . S
C699 C693 1.429 . S
C699 C700 1.523 . S
C700 C681 1.368 . S
C700 C694 1.368 . S
C700 C699 1.523 . S
C701 C685 1.429 . S
C701 C697 1.429 . S
C701 C702 1.523 . S
C702 C686 1.368 . S
C702 C698 1.368 . S
C702 C701 1.523 . S
H703 C678 0.950 . S
H704 C680 0.950 . S
H705 C681 0.949 . S
H706 C683 0.950 . S
H707 C685 0.950 . S
C708 C709 1.349 . S
C708 C710 1.327 . S
C708 H733 0.950 . S
C709 C708 1.349 . S
C709 C725 1.349 . S
C710 C708 1.327 . S
C710 C729 1.429 . S
C710 H734 0.950 . S
C711 C728 1.574 . S
C711 C730 1.368 . S
C711 H735 0.949 . S
H712 C716 0.949 . S
C713 C714 1.349 1_554 S
C713 C715 1.327 . S
C713 H736 0.950 . S
C714 C713 1.349 1_556 S
C714 C726 1.349 . S
C715 C713 1.327 . S
C715 C731 1.429 . S
C715 H737 0.950 . S
C716 H712 0.949 . S
C716 C724 1.574 . S
C716 C732 1.368 . S
H717 C725 0.950 . S
H718 C723 0.950 . S
H719 C724 0.949 . S
H720 C726 0.950 . S
H721 C727 0.950 . S
H722 C728 0.949 . S
C723 H718 0.950 . S
C723 C725 1.327 . S
C723 C729 1.429 . S
C724 C716 1.574 . S
C724 H719 0.949 . S
C724 C730 1.368 . S
C725 C709 1.349 . S
C725 H717 0.950 . S
C725 C723 1.327 . S
C726 C714 1.349 . S
C726 H720 0.950 . S
C726 C727 1.327 1_556 S
C727 H721 0.950 . S
C727 C726 1.327 1_554 S
C727 C731 1.429 . S
C728 C711 1.574 . S
C728 H722 0.949 . S
C728 C732 1.368 . S
C729 C710 1.429 . S
C729 C723 1.429 . S
C729 C730 1.523 . S
C730 C711 1.368 . S
C730 C724 1.368 . S
C730 C729 1.523 . S
C731 C715 1.429 . S
C731 C727 1.429 . S
C731 C732 1.523 . S
C732 C716 1.368 . S
C732 C728 1.368 . S
C732 C731 1.523 . S
H733 C708 0.950 . S
H734 C710 0.950 . S
H735 C711 0.949 . S
H736 C713 0.950 . S
H737 C715 0.950 . S
C738 C739 1.349 . S
C738 C740 1.327 . S
C738 H763 0.950 . S
C739 C738 1.349 . S
C739 C755 1.349 . S
C740 C738 1.327 . S
C740 C759 1.429 . S
C740 H764 0.950 . S
C741 C758 1.574 . S
C741 C760 1.368 . S
C741 H765 0.949 . S
H742 C746 0.949 . S
C743 C744 1.349 . S
C743 C745 1.327 . S
C743 H766 0.950 . S
C744 C743 1.349 . S
C744 C756 1.349 . S
C745 C743 1.327 . S
C745 C761 1.429 . S
C745 H767 0.950 . S
C746 H742 0.949 . S
C746 C754 1.574 . S
C746 C762 1.368 . S
H747 C755 0.950 . S
H748 C753 0.950 . S
H749 C754 0.949 . S
H750 C756 0.950 . S
H751 C757 0.950 . S
H752 C758 0.949 . S
C753 H748 0.950 . S
C753 C755 1.327 . S
C753 C759 1.429 . S
C754 C746 1.574 . S
C754 H749 0.949 . S
C754 C760 1.368 . S
C755 C739 1.349 . S
C755 H747 0.950 . S
C755 C753 1.327 . S
C756 C744 1.349 . S
C756 H750 0.950 . S
C756 C757 1.327 . S
C757 H751 0.950 . S
C757 C756 1.327 . S
C757 C761 1.429 . S
C758 C741 1.574 . S
C758 H752 0.949 . S
C758 C762 1.368 . S
C759 C740 1.429 . S
C759 C753 1.429 . S
C759 C760 1.523 . S
C760 C741 1.368 . S
C760 C754 1.368 . S
C760 C759 1.523 . S
C761 C745 1.429 . S
C761 C757 1.429 . S
C761 C762 1.523 . S
C762 C746 1.368 . S
C762 C758 1.368 . S
C762 C761 1.523 . S
H763 C738 0.950 . S
H764 C740 0.950 . S
H765 C741 0.949 . S
H766 C743 0.950 . S
H767 C745 0.950 . S
C768 C769 1.349 . S
C768 C770 1.327 1_554 S
C768 H793 0.950 . S
C769 C768 1.349 . S
C769 C785 1.349 1_554 S
C770 C768 1.327 1_556 S
C770 C789 1.429 . S
C770 H794 0.950 . S
C771 C788 1.574 . S
C771 C790 1.368 . S
C771 H795 0.949 . S
H772 C776 0.949 . S
C773 C774 1.349 . S
C773 C775 1.327 . S
C773 H796 0.950 . S
C774 C773 1.349 . S
C774 C786 1.349 . S
C775 C773 1.327 . S
C775 C791 1.429 . S
C775 H797 0.950 1_545 S
C776 H772 0.949 . S
C776 C784 1.552 1_545 S
C776 C792 1.368 . S
H777 C785 0.950 . S
H778 C783 0.950 . S
H779 C784 0.937 1_545 S
H780 C786 0.950 . S
H781 C787 0.950 . S
H782 C788 0.949 . S
C783 H778 0.950 . S
C783 C785 1.327 . S
C783 C789 1.429 . S
C784 C776 1.552 1_565 S
C784 H779 0.937 1_565 S
C784 C790 1.405 . S
C785 C769 1.349 1_556 S
C785 H777 0.950 . S
C785 C783 1.327 . S
C786 C774 1.349 . S
C786 H780 0.950 . S
C786 C787 1.327 . S
C787 H781 0.950 . S
C787 C786 1.327 . S
C787 C791 1.429 . S
C788 C771 1.574 . S
C788 H782 0.949 . S
C788 C792 1.368 1_565 S
C789 C770 1.429 . S
C789 C783 1.429 . S
C789 C790 1.523 . S
C790 C771 1.368 . S
C790 C784 1.405 . S
C790 C789 1.523 . S
C791 C775 1.429 . S
C791 C787 1.429 . S
C791 C792 1.523 . S
C792 C776 1.368 . S
C792 C788 1.368 1_545 S
C792 C791 1.523 . S
H793 C768 0.950 . S
H794 C770 0.950 . S
H795 C771 0.949 . S
H796 C773 0.950 . S
H797 C775 0.950 1_565 S
C798 C799 1.349 . S
C798 C800 1.327 . S
C798 H823 0.950 . S
C799 C798 1.349 . S
C799 C815 1.349 . S
C800 C798 1.327 . S
C800 C819 1.429 . S
C800 H824 0.950 . S
C801 C818 1.574 . S
C801 C820 1.368 1_565 S
C801 H825 0.949 . S
H802 C806 0.949 1_545 S
C803 C804 1.349 . S
C803 C805 1.327 . S
C803 H826 0.950 . S
C804 C803 1.349 . S
C804 C816 1.349 . S
C805 C803 1.327 . S
C805 C821 1.429 . S
C805 H827 0.950 . S
C806 H802 0.949 1_565 S
C806 C814 1.574 1_565 S
C806 C822 1.368 . S
H807 C815 0.950 . S
H808 C813 0.950 1_565 S
H809 C814 0.949 . S
H810 C816 0.950 . S
H811 C817 0.950 . S
H812 C818 0.949 . S
C813 H808 0.950 1_545 S
C813 C815 1.327 . S
C813 C819 1.429 . S
C814 C806 1.574 1_545 S
C814 H809 0.949 . S
C814 C820 1.368 . S
C815 C799 1.349 . S
C815 H807 0.950 . S
C815 C813 1.327 . S
C816 C804 1.349 . S
C816 H810 0.950 . S
C816 C817 1.327 . S
C817 H811 0.950 . S
C817 C816 1.327 . S
C817 C821 1.429 . S
C818 C801 1.574 . S
C818 H812 0.949 . S
C818 C822 1.368 . S
C819 C800 1.429 . S
C819 C813 1.429 . S
C819 C820 1.523 . S
C820 C801 1.368 1_545 S
C820 C814 1.368 . S
C820 C819 1.523 . S
C821 C805 1.429 . S
C821 C817 1.429 . S
C821 C822 1.523 . S
C822 C806 1.368 . S
C822 C818 1.368 . S
C822 C821 1.523 . S
H823 C798 0.950 . S
H824 C800 0.950 . S
H825 C801 0.949 . S
H826 C803 0.950 . S
H827 C805 0.950 . S
C828 C829 1.349 . S
C828 C830 1.327 . S
C828 H853 0.950 . S
C829 C828 1.349 . S
C829 C845 1.349 . S
C830 C828 1.327 . S
C830 C849 1.429 . S
C830 H854 0.950 . S
C831 C848 1.574 . S
C831 C850 1.368 1_545 S
C831 H855 0.949 . S
H832 C836 0.949 . S
C833 C834 1.349 1_554 S
C833 C835 1.327 . S
C833 H856 0.950 . S
C834 C833 1.349 1_556 S
C834 C846 1.349 . S
C835 C833 1.327 . S
C835 C851 1.429 . S
C835 H857 0.950 . S
C836 H832 0.949 . S
C836 C844 1.574 . S
C836 C852 1.368 1_565 S
H837 C845 0.950 . S
H838 C843 0.950 1_545 S
H839 C844 0.949 . S
H840 C846 0.950 . S
H841 C847 0.950 . S
H842 C848 0.949 . S
C843 H838 0.950 1_565 S
C843 C845 1.327 . S
C843 C849 1.429 . S
C844 C836 1.574 . S
C844 H839 0.949 . S
C844 C850 1.368 . S
C845 C829 1.349 . S
C845 H837 0.950 . S
C845 C843 1.327 . S
C846 C834 1.349 . S
C846 H840 0.950 . S
C846 C847 1.327 1_556 S
C847 H841 0.950 . S
C847 C846 1.327 1_554 S
C847 C851 1.429 . S
C848 C831 1.574 . S
C848 H842 0.949 . S
C848 C852 1.368 . S
C849 C830 1.429 . S
C849 C843 1.429 . S
C849 C850 1.523 . S
C850 C831 1.368 1_565 S
C850 C844 1.368 . S
C850 C849 1.523 . S
C851 C835 1.429 . S
C851 C847 1.429 . S
C851 C852 1.523 . S
C852 C836 1.368 1_545 S
C852 C848 1.368 . S
C852 C851 1.523 . S
H853 C828 0.950 . S
H854 C830 0.950 . S
H855 C831 0.949 . S
H856 C833 0.950 . S
H857 C835 0.950 . S
C858 C859 1.349 . S
C858 C860 1.327 . S
C858 H883 0.950 . S
C859 C858 1.349 . S
C859 C875 1.349 . S
C860 C858 1.327 . S
C860 C879 1.429 . S
C860 H884 0.950 . S
C861 C878 1.574 1_545 S
C861 C880 1.368 . S
C861 H885 0.949 . S
H862 C866 0.949 . S
C863 C864 1.349 . S
C863 C865 1.327 . S
C863 H886 0.950 . S
C864 C863 1.349 . S
C864 C876 1.349 . S
C865 C863 1.327 . S
C865 C881 1.429 . S
C865 H887 0.950 . S
C866 H862 0.949 . S
C866 C874 1.574 . S
C866 C882 1.368 1_545 S
H867 C875 0.950 . S
H868 C873 0.950 . S
H869 C874 0.949 . S
H870 C876 0.950 . S
H871 C877 0.950 . S
H872 C878 0.949 . S
C873 H868 0.950 . S
C873 C875 1.327 . S
C873 C879 1.429 . S
C874 C866 1.574 . S
C874 H869 0.949 . S
C874 C880 1.368 . S
C875 C859 1.349 . S
C875 H867 0.950 . S
C875 C873 1.327 . S
C876 C864 1.349 . S
C876 H870 0.950 . S
C876 C877 1.327 . S
C877 H871 0.950 . S
C877 C876 1.327 . S
C877 C881 1.429 . S
C878 C861 1.574 1_565 S
C878 H872 0.949 . S
C878 C882 1.368 . S
C879 C860 1.429 . S
C879 C873 1.429 . S
C879 C880 1.523 . S
C880 C861 1.368 . S
C880 C874 1.368 . S
C880 C879 1.523 . S
C881 C865 1.429 . S
C881 C877 1.429 . S
C881 C882 1.523 . S
C882 C866 1.368 1_565 S
C882 C878 1.368 . S
C882 C881 1.523 . S
H883 C858 0.950 . S
H884 C860 0.950 . S
H885 C861 0.949 . S
H886 C863 0.950 . S
H887 C865 0.950 . S
C169 C24 0.924 . S
C174 C3 0.924 . S
C199 C45 0.924 . S
C204 C79 0.924 . S
C229 C108 0.924 . S
C234 C87 0.924 . S
C259 C129 0.924 . S
C264 C163 0.924 . S
C289 C4 1.259 . S
C294 C130 1.259 . S
C319 C25 1.259 . S
C324 C154 1.259 . S
C349 C88 1.259 . S
C354 C46 1.259 . S
C379 C70 1.259 . S
C384 C109 1.259 . S
C409 C61 0.880 . S
C414 C19 0.880 . S
C439 C83 0.880 . S
C444 C40 0.880 . S
C469 C103 0.880 . S
C474 C145 0.880 . S
C499 C124 0.880 . S
C504 C167 0.880 . S
C529 C16 0.883 . S
C534 C37 0.883 . S
C559 C66 0.883 . S
C564 C58 0.883 . S
C589 C121 0.883 . S
C594 C100 0.883 . S
C619 C150 0.883 . S
C624 C142 0.883 . S
C649 C20 1.412 . S
C654 C67 1.290 . S
C679 C41 1.412 . S
C684 C49 1.290 . S
C709 C28 1.290 . S
C714 C62 1.412 . S
C739 C7 1.290 . S
C744 C82 1.412 . S
C769 C104 1.412 . S
C774 C151 1.290 . S
C799 C133 1.290 . S
C804 C125 1.412 . S
C829 C112 1.290 . S
C834 C146 1.412 . S
C859 C166 1.412 . S
C864 C91 1.290 . S
