# Generated by pormake.
# Topology wga, (5)-cn, num edge types: 1
# Building blocks:
#     Node 0, Type 0, BuildingBlock: XOMCOT_clean_sbu_0, # of connection points: 5
#     Node 1, Type 0, BuildingBlock: XOMCOT_clean_sbu_0, # of connection points: 5
#     Node 2, Type 0, BuildingBlock: XOMCOT_clean_sbu_0, # of connection points: 5
#     Node 3, Type 0, BuildingBlock: XOMCOT_clean_sbu_0, # of connection points: 5
#     Node 4, Type 0, BuildingBlock: XOMCOT_clean_sbu_0, # of connection points: 5
#     Node 5, Type 0, BuildingBlock: XOMCOT_clean_sbu_0, # of connection points: 5
#     Node 6, Type 0, BuildingBlock: XOMCOT_clean_sbu_0, # of connection points: 5
#     Node 7, Type 0, BuildingBlock: XOMCOT_clean_sbu_0, # of connection points: 5
#     Node 8, Type 0, BuildingBlock: XOMCOT_clean_sbu_0, # of connection points: 5
#     Node 9, Type 0, BuildingBlock: XOMCOT_clean_sbu_0, # of connection points: 5
#     Node 10, Type 0, BuildingBlock: XOMCOT_clean_sbu_0, # of connection points: 5
#     Node 11, Type 0, BuildingBlock: XOMCOT_clean_sbu_0, # of connection points: 5
#     Node 12, Type 0, BuildingBlock: XOMCOT_clean_sbu_0, # of connection points: 5
#     Node 13, Type 0, BuildingBlock: XOMCOT_clean_sbu_0, # of connection points: 5
#     Node 14, Type 0, BuildingBlock: XOMCOT_clean_sbu_0, # of connection points: 5
#     Node 15, Type 0, BuildingBlock: XOMCOT_clean_sbu_0, # of connection points: 5
#     Node 16, Type 0, BuildingBlock: XOMCOT_clean_sbu_0, # of connection points: 5
#     Node 17, Type 0, BuildingBlock: XOMCOT_clean_sbu_0, # of connection points: 5
#     Node 18, Type 0, BuildingBlock: XOMCOT_clean_sbu_0, # of connection points: 5
#     Node 19, Type 0, BuildingBlock: XOMCOT_clean_sbu_0, # of connection points: 5
#     Node 20, Type 0, BuildingBlock: XOMCOT_clean_sbu_0, # of connection points: 5
#     Node 21, Type 0, BuildingBlock: XOMCOT_clean_sbu_0, # of connection points: 5
#     Node 22, Type 0, BuildingBlock: XOMCOT_clean_sbu_0, # of connection points: 5
#     Node 23, Type 0, BuildingBlock: XOMCOT_clean_sbu_0, # of connection points: 5
#     Node 24, Type 0, BuildingBlock: XOMCOT_clean_sbu_0, # of connection points: 5
#     Node 25, Type 0, BuildingBlock: XOMCOT_clean_sbu_0, # of connection points: 5
#     Node 26, Type 0, BuildingBlock: XOMCOT_clean_sbu_0, # of connection points: 5
#     Node 27, Type 0, BuildingBlock: XOMCOT_clean_sbu_0, # of connection points: 5
#     Node 28, Type 0, BuildingBlock: XOMCOT_clean_sbu_0, # of connection points: 5
#     Node 29, Type 0, BuildingBlock: XOMCOT_clean_sbu_0, # of connection points: 5
#     Node 30, Type 0, BuildingBlock: XOMCOT_clean_sbu_0, # of connection points: 5
#     Node 31, Type 0, BuildingBlock: XOMCOT_clean_sbu_0, # of connection points: 5
#     Edge 32, Type (0, 0), BuildingBlock: XIVTED_clean_linker_0, # of connection points: 2
#     Edge 33, Type (0, 0), BuildingBlock: XIVTED_clean_linker_0, # of connection points: 2
#     Edge 34, Type (0, 0), BuildingBlock: XIVTED_clean_linker_0, # of connection points: 2
#     Edge 35, Type (0, 0), BuildingBlock: XIVTED_clean_linker_0, # of connection points: 2
#     Edge 36, Type (0, 0), BuildingBlock: XIVTED_clean_linker_0, # of connection points: 2
#     Edge 37, Type (0, 0), BuildingBlock: XIVTED_clean_linker_0, # of connection points: 2
#     Edge 38, Type (0, 0), BuildingBlock: XIVTED_clean_linker_0, # of connection points: 2
#     Edge 39, Type (0, 0), BuildingBlock: XIVTED_clean_linker_0, # of connection points: 2
#     Edge 40, Type (0, 0), BuildingBlock: XIVTED_clean_linker_0, # of connection points: 2
#     Edge 41, Type (0, 0), BuildingBlock: XIVTED_clean_linker_0, # of connection points: 2
#     Edge 42, Type (0, 0), BuildingBlock: XIVTED_clean_linker_0, # of connection points: 2
#     Edge 43, Type (0, 0), BuildingBlock: XIVTED_clean_linker_0, # of connection points: 2
#     Edge 44, Type (0, 0), BuildingBlock: XIVTED_clean_linker_0, # of connection points: 2
#     Edge 45, Type (0, 0), BuildingBlock: XIVTED_clean_linker_0, # of connection points: 2
#     Edge 46, Type (0, 0), BuildingBlock: XIVTED_clean_linker_0, # of connection points: 2
#     Edge 47, Type (0, 0), BuildingBlock: XIVTED_clean_linker_0, # of connection points: 2
#     Edge 48, Type (0, 0), BuildingBlock: XIVTED_clean_linker_0, # of connection points: 2
#     Edge 49, Type (0, 0), BuildingBlock: XIVTED_clean_linker_0, # of connection points: 2
#     Edge 50, Type (0, 0), BuildingBlock: XIVTED_clean_linker_0, # of connection points: 2
#     Edge 51, Type (0, 0), BuildingBlock: XIVTED_clean_linker_0, # of connection points: 2
#     Edge 52, Type (0, 0), BuildingBlock: XIVTED_clean_linker_0, # of connection points: 2
#     Edge 53, Type (0, 0), BuildingBlock: XIVTED_clean_linker_0, # of connection points: 2
#     Edge 54, Type (0, 0), BuildingBlock: XIVTED_clean_linker_0, # of connection points: 2
#     Edge 55, Type (0, 0), BuildingBlock: XIVTED_clean_linker_0, # of connection points: 2
#     Edge 56, Type (0, 0), BuildingBlock: XIVTED_clean_linker_0, # of connection points: 2
#     Edge 57, Type (0, 0), BuildingBlock: XIVTED_clean_linker_0, # of connection points: 2
#     Edge 58, Type (0, 0), BuildingBlock: XIVTED_clean_linker_0, # of connection points: 2
#     Edge 59, Type (0, 0), BuildingBlock: XIVTED_clean_linker_0, # of connection points: 2
#     Edge 60, Type (0, 0), BuildingBlock: XIVTED_clean_linker_0, # of connection points: 2
#     Edge 61, Type (0, 0), BuildingBlock: XIVTED_clean_linker_0, # of connection points: 2
#     Edge 62, Type (0, 0), BuildingBlock: XIVTED_clean_linker_0, # of connection points: 2
#     Edge 63, Type (0, 0), BuildingBlock: XIVTED_clean_linker_0, # of connection points: 2
#     Edge 64, Type (0, 0), BuildingBlock: XIVTED_clean_linker_0, # of connection points: 2
#     Edge 65, Type (0, 0), BuildingBlock: XIVTED_clean_linker_0, # of connection points: 2
#     Edge 66, Type (0, 0), BuildingBlock: XIVTED_clean_linker_0, # of connection points: 2
#     Edge 67, Type (0, 0), BuildingBlock: XIVTED_clean_linker_0, # of connection points: 2
#     Edge 68, Type (0, 0), BuildingBlock: XIVTED_clean_linker_0, # of connection points: 2
#     Edge 69, Type (0, 0), BuildingBlock: XIVTED_clean_linker_0, # of connection points: 2
#     Edge 70, Type (0, 0), BuildingBlock: XIVTED_clean_linker_0, # of connection points: 2
#     Edge 71, Type (0, 0), BuildingBlock: XIVTED_clean_linker_0, # of connection points: 2
#     Edge 72, Type (0, 0), BuildingBlock: XIVTED_clean_linker_0, # of connection points: 2
#     Edge 73, Type (0, 0), BuildingBlock: XIVTED_clean_linker_0, # of connection points: 2
#     Edge 74, Type (0, 0), BuildingBlock: XIVTED_clean_linker_0, # of connection points: 2
#     Edge 75, Type (0, 0), BuildingBlock: XIVTED_clean_linker_0, # of connection points: 2
#     Edge 76, Type (0, 0), BuildingBlock: XIVTED_clean_linker_0, # of connection points: 2
#     Edge 77, Type (0, 0), BuildingBlock: XIVTED_clean_linker_0, # of connection points: 2
#     Edge 78, Type (0, 0), BuildingBlock: XIVTED_clean_linker_0, # of connection points: 2
#     Edge 79, Type (0, 0), BuildingBlock: XIVTED_clean_linker_0, # of connection points: 2
#     Edge 80, Type (0, 0), BuildingBlock: XIVTED_clean_linker_0, # of connection points: 2
#     Edge 81, Type (0, 0), BuildingBlock: XIVTED_clean_linker_0, # of connection points: 2
#     Edge 82, Type (0, 0), BuildingBlock: XIVTED_clean_linker_0, # of connection points: 2
#     Edge 83, Type (0, 0), BuildingBlock: XIVTED_clean_linker_0, # of connection points: 2
#     Edge 84, Type (0, 0), BuildingBlock: XIVTED_clean_linker_0, # of connection points: 2
#     Edge 85, Type (0, 0), BuildingBlock: XIVTED_clean_linker_0, # of connection points: 2
#     Edge 86, Type (0, 0), BuildingBlock: XIVTED_clean_linker_0, # of connection points: 2
#     Edge 87, Type (0, 0), BuildingBlock: XIVTED_clean_linker_0, # of connection points: 2
#     Edge 88, Type (0, 0), BuildingBlock: XIVTED_clean_linker_0, # of connection points: 2
#     Edge 89, Type (0, 0), BuildingBlock: XIVTED_clean_linker_0, # of connection points: 2
#     Edge 90, Type (0, 0), BuildingBlock: XIVTED_clean_linker_0, # of connection points: 2
#     Edge 91, Type (0, 0), BuildingBlock: XIVTED_clean_linker_0, # of connection points: 2
#     Edge 92, Type (0, 0), BuildingBlock: XIVTED_clean_linker_0, # of connection points: 2
#     Edge 93, Type (0, 0), BuildingBlock: XIVTED_clean_linker_0, # of connection points: 2
#     Edge 94, Type (0, 0), BuildingBlock: XIVTED_clean_linker_0, # of connection points: 2
#     Edge 95, Type (0, 0), BuildingBlock: XIVTED_clean_linker_0, # of connection points: 2
#     Edge 96, Type (0, 0), BuildingBlock: XIVTED_clean_linker_0, # of connection points: 2
#     Edge 97, Type (0, 0), BuildingBlock: XIVTED_clean_linker_0, # of connection points: 2
#     Edge 98, Type (0, 0), BuildingBlock: XIVTED_clean_linker_0, # of connection points: 2
#     Edge 99, Type (0, 0), BuildingBlock: XIVTED_clean_linker_0, # of connection points: 2
#     Edge 100, Type (0, 0), BuildingBlock: XIVTED_clean_linker_0, # of connection points: 2
#     Edge 101, Type (0, 0), BuildingBlock: XIVTED_clean_linker_0, # of connection points: 2
#     Edge 102, Type (0, 0), BuildingBlock: XIVTED_clean_linker_0, # of connection points: 2
#     Edge 103, Type (0, 0), BuildingBlock: XIVTED_clean_linker_0, # of connection points: 2
#     Edge 104, Type (0, 0), BuildingBlock: XIVTED_clean_linker_0, # of connection points: 2
#     Edge 105, Type (0, 0), BuildingBlock: XIVTED_clean_linker_0, # of connection points: 2
#     Edge 106, Type (0, 0), BuildingBlock: XIVTED_clean_linker_0, # of connection points: 2
#     Edge 107, Type (0, 0), BuildingBlock: XIVTED_clean_linker_0, # of connection points: 2
#     Edge 108, Type (0, 0), BuildingBlock: XIVTED_clean_linker_0, # of connection points: 2
#     Edge 109, Type (0, 0), BuildingBlock: XIVTED_clean_linker_0, # of connection points: 2
#     Edge 110, Type (0, 0), BuildingBlock: XIVTED_clean_linker_0, # of connection points: 2
#     Edge 111, Type (0, 0), BuildingBlock: XIVTED_clean_linker_0, # of connection points: 2
# Relax obj value: 0.124
# Max RMSD: 0.132
# Mean RMSD: 0.132
data_MOF--net-wga--node1-XOMCOT_clean_sbu_0--edge1-XIVTED_clean_linker_0
_symmetry_space_group_name_H-M    P1
_symmetry_Int_Tables_number       1
_symmetry_cell_setting            triclinic
loop_
_symmetry_equiv_pos_as_xyz
'x, y, z'
_cell_length_a     108.99354
_cell_length_b     108.95535
_cell_length_c     17.812523
_cell_angle_alpha  89.964316
_cell_angle_beta   90.120124
_cell_angle_gamma 89.966092
loop_
_atom_site_label
_atom_site_type_symbol
_atom_site_fract_x
_atom_site_fract_y
_atom_site_fract_z
_atom_type_partial_charge
Co0 Co 0.08347 0.56475 0.14411 0.0
C1 C 0.08441 0.56356 0.31322 0.0
C2 C 0.09787 0.55224 0.25955 0.0
C3 C 0.09924 0.55106 0.33597 0.0
N4 N 0.08845 0.55993 0.24498 0.0
N5 N 0.09078 0.55819 0.36966 0.0
H6 H 0.07704 0.56994 0.32236 0.0
H7 H 0.1034 0.54781 0.21715 0.0
C8 C 0.07884 0.53802 0.1536 0.0
O9 O 0.07388 0.54031 0.21932 0.0
N10 N 0.07896 0.56964 0.04359 0.0
C11 C 0.07149 0.57905 0.02597 0.0
C12 C 0.07094 0.58011 0.94924 0.0
C13 C 0.08295 0.56512 0.97748 0.0
N14 N 0.07818 0.5714 0.91857 0.0
C15 C 0.06121 0.57379 0.21324 0.0
C16 C 0.04562 0.55755 0.14205 0.0
C17 C 0.04054 0.56643 0.18969 0.0
C18 C 0.04855 0.57467 0.22542 0.0
C19 C 0.05823 0.55714 0.13061 0.0
N20 N 0.066 0.56474 0.16899 0.0
H21 H 0.06711 0.58073 0.23693 0.0
H22 H 0.06162 0.55097 0.08821 0.0
H23 H 0.06684 0.58482 0.06626 0.0
H24 H 0.08944 0.55764 0.97286 0.0
O25 O 0.08734 0.58165 0.16691 0.0
O26 O 0.10047 0.56798 0.12149 0.0
O27 O 0.08304 0.54685 0.11382 0.0
C28 C 0.09839 0.57916 0.14388 0.0
H29 H 0.10611 0.54559 0.36443 0.0
H30 H 0.06555 0.58679 0.91858 0.0
H31 H 0.03991 0.55102 0.11238 0.0
H32 H 0.04506 0.58203 0.26017 0.0
Co33 Co 0.68197 0.83589 0.39377 0.0
C34 C 0.68275 0.83725 0.56253 0.0
C35 C 0.69417 0.85062 0.50903 0.0
C36 C 0.69515 0.85211 0.58553 0.0
N37 N 0.68653 0.84118 0.4944 0.0
N38 N 0.68795 0.8437 0.61905 0.0
H39 H 0.67641 0.82985 0.57161 0.0
H40 H 0.69874 0.85607 0.46667 0.0
C41 C 0.70871 0.8311 0.40615 0.0
O42 O 0.70643 0.82658 0.47309 0.0
N43 N 0.67739 0.83107 0.2934 0.0
C44 C 0.66817 0.82344 0.27494 0.0
C45 C 0.6673 0.8229 0.19806 0.0
C46 C 0.68198 0.83518 0.22775 0.0
N47 N 0.67594 0.83033 0.16826 0.0
C48 C 0.67209 0.81429 0.4647 0.0
C49 C 0.68858 0.7978 0.40415 0.0
C50 C 0.67927 0.79341 0.45091 0.0
C51 C 0.67084 0.80179 0.4806 0.0
C52 C 0.68935 0.81032 0.38866 0.0
N53 N 0.6816 0.81855 0.4221 0.0
H54 H 0.66514 0.82051 0.48496 0.0
H55 H 0.69589 0.81325 0.34703 0.0
H56 H 0.66235 0.81871 0.31465 0.0
H57 H 0.6893 0.84185 0.22391 0.0
O58 O 0.66508 0.84006 0.4137 0.0
O59 O 0.67897 0.85289 0.36791 0.0
O60 O 0.6999 0.83509 0.36531 0.0
C61 C 0.66771 0.85099 0.38918 0.0
H62 H 0.70056 0.85901 0.61412 0.0
H63 H 0.66078 0.81745 0.16672 0.0
H64 H 0.69489 0.79153 0.37699 0.0
H65 H 0.66327 0.79871 0.51509 0.0
Co66 Co 0.40636 0.42845 0.63828 0.0
C67 C 0.40526 0.42975 0.8046 0.0
C68 C 0.39612 0.44499 0.75214 0.0
C69 C 0.39526 0.44629 0.82886 0.0
N70 N 0.40244 0.43467 0.73706 0.0
N71 N 0.401 0.43671 0.86195 0.0
H72 H 0.41043 0.42134 0.8114 0.0
H73 H 0.39234 0.45111 0.71025 0.0
C74 C 0.41648 0.45034 0.55651 0.0
O75 O 0.42477 0.4433 0.52469 0.0
N76 N 0.40989 0.42216 0.53768 0.0
C77 C 0.41501 0.41131 0.51878 0.0
C78 C 0.4147 0.41 0.44209 0.0
C79 C 0.40606 0.42701 0.47151 0.0
N80 N 0.40911 0.41989 0.4121 0.0
C81 C 0.42853 0.41563 0.67731 0.0
C82 C 0.44283 0.43612 0.70303 0.0
C83 C 0.44845 0.42456 0.70091 0.0
C84 C 0.44106 0.41419 0.69078 0.0
C85 C 0.43026 0.43712 0.6883 0.0
N86 N 0.42349 0.42702 0.66932 0.0
H87 H 0.42292 0.40753 0.67303 0.0
H88 H 0.42606 0.44608 0.69153 0.0
H89 H 0.4183 0.40442 0.55706 0.0
H90 H 0.40091 0.43548 0.46714 0.0
O91 O 0.40057 0.41244 0.66812 0.0
O92 O 0.38911 0.42695 0.61529 0.0
O93 O 0.40873 0.44587 0.60274 0.0
C94 C 0.38994 0.4159 0.64254 0.0
H95 H 0.39054 0.45362 0.85789 0.0
H96 H 0.4183 0.40227 0.411 0.0
H97 H 0.44815 0.44434 0.7133 0.0
H98 H 0.44496 0.40504 0.69274 0.0
Co99 Co 0.81489 0.16004 0.89336 0.0
C100 C 0.8139 0.15866 0.05954 0.0
C101 C 0.7995 0.14825 1.0074 0.0
C102 C 0.79847 0.14707 0.08412 0.0
N103 N 0.80914 0.15553 0.99216 0.0
N104 N 0.80753 0.15362 0.11705 0.0
H105 H 0.82194 0.16438 0.06605 0.0
H106 H 0.79363 0.14406 0.96561 0.0
C107 C 0.79229 0.16876 0.81251 0.0
O108 O 0.79874 0.17749 0.78047 0.0
N109 N 0.82077 0.16424 0.79289 0.0
C110 C 0.83094 0.17063 0.77474 0.0
C111 C 0.83212 0.17096 0.69804 0.0
C112 C 0.81626 0.16026 0.72619 0.0
N113 N 0.82282 0.16454 0.66719 0.0
C114 C 0.82633 0.18274 0.93685 0.0
C115 C 0.80504 0.19597 0.95914 0.0
C116 C 0.81631 0.20216 0.96106 0.0
C117 C 0.82707 0.19524 0.95296 0.0
C118 C 0.80475 0.18341 0.94312 0.0
N119 N 0.81526 0.17719 0.92555 0.0
H120 H 0.83472 0.17755 0.93317 0.0
H121 H 0.79601 0.17879 0.9446 0.0
H122 H 0.83747 0.17446 0.81353 0.0
H123 H 0.80821 0.15451 0.72106 0.0
O124 O 0.83134 0.15526 0.92099 0.0
O125 O 0.81745 0.14291 0.87005 0.0
O126 O 0.79729 0.16133 0.85894 0.0
C127 C 0.82853 0.1444 0.89593 0.0
H128 H 0.79146 0.14191 0.11321 0.0
H129 H 0.83949 0.17534 0.66751 0.0
H130 H 0.79648 0.20081 0.96768 0.0
H131 H 0.83602 0.19946 0.95851 0.0
Co132 Co 0.08488 0.42983 0.87968 0.0
C133 C 0.08638 0.43088 0.71426 0.0
C134 C 0.09631 0.44569 0.76553 0.0
C135 C 0.0973 0.44673 0.68859 0.0
N136 N 0.08944 0.43578 0.78133 0.0
N137 N 0.09104 0.43741 0.65624 0.0
H138 H 0.08092 0.42265 0.70847 0.0
H139 H 0.10028 0.45177 0.80697 0.0
C140 C 0.07494 0.45181 0.95796 0.0
O141 O 0.06574 0.44489 0.97984 0.0
N142 N 0.08073 0.42372 0.97992 0.0
C143 C 0.07592 0.41273 0.99883 0.0
C144 C 0.07576 0.41164 0.07573 0.0
C145 C 0.08408 0.4288 0.04636 0.0
N146 N 0.08084 0.42178 0.10583 0.0
C147 C 0.06146 0.41883 0.8433 0.0
C148 C 0.0499 0.44041 0.80292 0.0
C149 C 0.04288 0.42968 0.80904 0.0
C150 C 0.04893 0.41868 0.82651 0.0
C151 C 0.06239 0.44012 0.82031 0.0
N152 N 0.06779 0.42962 0.84646 0.0
H153 H 0.06605 0.41024 0.85321 0.0
H154 H 0.06766 0.44844 0.81414 0.0
H155 H 0.0734 0.40553 0.96047 0.0
H156 H 0.08892 0.43742 0.05102 0.0
O157 O 0.0897 0.41349 0.8499 0.0
O158 O 0.10189 0.42722 0.90453 0.0
O159 O 0.08338 0.44731 0.91652 0.0
C160 C 0.10045 0.41625 0.87701 0.0
H161 H 0.1021 0.45395 0.65902 0.0
H162 H 0.07265 0.4037 0.10686 0.0
H163 H 0.04577 0.449 0.78559 0.0
H164 H 0.04401 0.41006 0.82933 0.0
Co165 Co 0.81598 0.83329 0.1178 0.0
C166 C 0.81483 0.83444 0.9522 0.0
C167 C 0.80012 0.84456 1.00295 0.0
C168 C 0.79909 0.84553 0.92601 0.0
N169 N 0.80996 0.83759 0.0191 0.0
N170 N 0.80835 0.83916 0.894 0.0
H171 H 0.82304 0.82893 0.94662 0.0
H172 H 0.79411 0.84867 0.04419 0.0
C173 C 0.79405 0.82417 0.20043 0.0
O174 O 0.80087 0.81498 0.22398 0.0
N175 N 0.82216 0.82934 0.2182 0.0
C176 C 0.83269 0.82357 0.23701 0.0
C177 C 0.83386 0.82344 0.31386 0.0
C178 C 0.81745 0.83319 0.28453 0.0
N179 N 0.82422 0.8294 0.34398 0.0
C180 C 0.82683 0.8099 0.07967 0.0
C181 C 0.80499 0.79789 0.05196 0.0
C182 C 0.81586 0.79106 0.05492 0.0
C183 C 0.82697 0.79729 0.06515 0.0
C184 C 0.80532 0.81049 0.06574 0.0
N185 N 0.816 0.8161 0.08685 0.0
H186 H 0.83545 0.81464 0.08525 0.0
H187 H 0.7969 0.81565 0.06126 0.0
H188 H 0.83947 0.82015 0.19855 0.0
H189 H 0.80916 0.8386 0.28907 0.0
O190 O 0.83237 0.83779 0.0878 0.0
O191 O 0.81876 0.85039 0.13932 0.0
O192 O 0.79853 0.83219 0.15579 0.0
C193 C 0.82974 0.84872 0.11258 0.0
H194 H 0.79196 0.85044 0.89616 0.0
H195 H 0.84147 0.81955 0.34493 0.0
H196 H 0.79627 0.7935 0.04044 0.0
H197 H 0.83563 0.79242 0.06487 0.0
Co198 Co 0.40898 0.56357 0.39004 0.0
C199 C 0.40778 0.56239 0.22372 0.0
C200 C 0.39732 0.54803 0.27581 0.0
C201 C 0.39637 0.54681 0.19906 0.0
N202 N 0.40452 0.55774 0.29114 0.0
N203 N 0.40295 0.55583 0.1662 0.0
H204 H 0.41369 0.57029 0.21715 0.0
H205 H 0.39301 0.54227 0.31755 0.0
C206 C 0.41733 0.54106 0.47177 0.0
O207 O 0.42625 0.54756 0.50152 0.0
N208 N 0.41305 0.56952 0.49074 0.0
C209 C 0.41902 0.57993 0.50962 0.0
C210 C 0.41887 0.58127 0.5863 0.0
C211 C 0.40887 0.56501 0.55692 0.0
N212 N 0.41252 0.57187 0.61631 0.0
C213 C 0.43258 0.57383 0.3521 0.0
C214 C 0.44396 0.55179 0.32036 0.0
C215 C 0.45105 0.56252 0.32167 0.0
C216 C 0.44509 0.57372 0.33516 0.0
C217 C 0.43149 0.55235 0.33782 0.0
N218 N 0.42617 0.56315 0.35952 0.0
H219 H 0.42806 0.58255 0.35834 0.0
H220 H 0.42615 0.54405 0.33358 0.0
H221 H 0.42279 0.58654 0.4713 0.0
H222 H 0.40305 0.557 0.5613 0.0
O223 O 0.4049 0.58012 0.36039 0.0
O224 O 0.39192 0.56682 0.41117 0.0
O225 O 0.4097 0.546 0.42627 0.0
C226 C 0.39388 0.57777 0.38449 0.0
H227 H 0.39105 0.53992 0.16983 0.0
H228 H 0.42309 0.58869 0.61736 0.0
H229 H 0.44798 0.54302 0.30587 0.0
H230 H 0.45006 0.58232 0.33424 0.0
Co231 Co 0.67927 0.15826 0.64187 0.0
C232 C 0.6802 0.15698 0.47618 0.0
C233 C 0.69457 0.14638 0.52749 0.0
C234 C 0.69557 0.14535 0.45067 0.0
N235 N 0.68496 0.15369 0.54322 0.0
N236 N 0.68653 0.15202 0.41831 0.0
H237 H 0.6722 0.16278 0.47024 0.0
H238 H 0.70044 0.14211 0.56898 0.0
C239 C 0.70184 0.16705 0.72089 0.0
O240 O 0.69534 0.17603 0.74979 0.0
N241 N 0.67342 0.16245 0.74236 0.0
C242 C 0.66285 0.16812 0.76122 0.0
C243 C 0.66177 0.16831 0.83802 0.0
C244 C 0.67823 0.15866 0.80867 0.0
N245 N 0.67149 0.16243 0.86807 0.0
C246 C 0.66877 0.18186 0.60423 0.0
C247 C 0.69066 0.19322 0.56926 0.0
C248 C 0.67996 0.20034 0.57253 0.0
C249 C 0.66882 0.19439 0.58747 0.0
C250 C 0.69017 0.18074 0.5866 0.0
N251 N 0.67948 0.17542 0.61006 0.0
H252 H 0.66009 0.17734 0.61173 0.0
H253 H 0.69845 0.17538 0.58129 0.0
H254 H 0.65593 0.17135 0.7229 0.0
H255 H 0.68653 0.15326 0.81325 0.0
O256 O 0.66272 0.15396 0.61339 0.0
O257 O 0.67626 0.14122 0.66455 0.0
O258 O 0.69688 0.15921 0.67697 0.0
C259 C 0.66525 0.143 0.63823 0.0
H260 H 0.70256 0.14022 0.42114 0.0
H261 H 0.65413 0.17208 0.86913 0.0
H262 H 0.69937 0.19724 0.5536 0.0
H263 H 0.66023 0.19938 0.58801 0.0
Co264 Co 0.90863 0.43014 0.8858 0.0
C265 C 0.90735 0.43141 0.71962 0.0
C266 C 0.89742 0.44615 0.77158 0.0
C267 C 0.8965 0.44738 0.69476 0.0
N268 N 0.90427 0.43618 0.78702 0.0
N269 N 0.90275 0.43811 0.66197 0.0
H270 H 0.91299 0.4233 0.71315 0.0
H271 H 0.89333 0.45209 0.81326 0.0
C272 C 0.91754 0.45235 0.96833 0.0
O273 O 0.92642 0.44569 0.99732 0.0
N274 N 0.9126 0.42397 0.98631 0.0
C275 C 0.91818 0.41334 1.00505 0.0
C276 C 0.91802 0.41199 0.08178 0.0
C277 C 0.90862 0.42861 0.05263 0.0
N278 N 0.91205 0.42162 0.11199 0.0
C279 C 0.93208 0.41937 0.84827 0.0
C280 C 0.94379 0.44121 0.81619 0.0
C281 C 0.95076 0.4304 0.81866 0.0
C282 C 0.94464 0.41929 0.83216 0.0
C283 C 0.9313 0.44085 0.83301 0.0
N284 N 0.92581 0.43016 0.85486 0.0
H285 H 0.92743 0.41073 0.85475 0.0
H286 H 0.92609 0.44924 0.82852 0.0
H287 H 0.92165 0.40658 0.96657 0.0
H288 H 0.90307 0.43681 0.05714 0.0
O289 O 0.90398 0.41378 0.85491 0.0
O290 O 0.89158 0.42741 0.90826 0.0
O291 O 0.90981 0.44762 0.92278 0.0
C292 C 0.89312 0.4165 0.88032 0.0
H293 H 0.89143 0.45446 0.66546 0.0
H294 H 0.92197 0.40439 0.11272 0.0
H295 H 0.94794 0.44992 0.80157 0.0
H296 H 0.9495 0.41063 0.83206 0.0
Co297 Co 0.31635 0.1595 0.63343 0.0
C298 C 0.3149 0.15861 0.4673 0.0
C299 C 0.29993 0.149 0.51899 0.0
C300 C 0.29866 0.14821 0.44214 0.0
N301 N 0.31007 0.15557 0.5346 0.0
N302 N 0.30807 0.15425 0.40957 0.0
H303 H 0.32316 0.16402 0.46096 0.0
H304 H 0.29394 0.14497 0.56054 0.0
C305 C 0.29452 0.16871 0.71632 0.0
O306 O 0.30139 0.17788 0.73935 0.0
N307 N 0.32281 0.16298 0.73407 0.0
C308 C 0.33401 0.16735 0.75232 0.0
C309 C 0.33539 0.16718 0.82904 0.0
C310 C 0.31785 0.15958 0.80074 0.0
N311 N 0.3252 0.16234 0.85978 0.0
C312 C 0.32684 0.18343 0.60379 0.0
C313 C 0.30502 0.19465 0.56443 0.0
C314 C 0.3156 0.20188 0.5714 0.0
C315 C 0.32671 0.19603 0.58873 0.0
C316 C 0.30559 0.18211 0.58003 0.0
N317 N 0.31622 0.17682 0.60516 0.0
H318 H 0.33552 0.17903 0.61334 0.0
H319 H 0.29738 0.17669 0.57297 0.0
H320 H 0.34114 0.16983 0.71338 0.0
H321 H 0.30921 0.15479 0.80585 0.0
O322 O 0.33266 0.15513 0.60081 0.0
O323 O 0.31922 0.1423 0.65193 0.0
O324 O 0.29899 0.16053 0.67282 0.0
C325 C 0.3301 0.14408 0.62391 0.0
H326 H 0.29147 0.14334 0.41266 0.0
H327 H 0.34341 0.17027 0.85951 0.0
H328 H 0.29635 0.19864 0.54735 0.0
H329 H 0.33521 0.20114 0.59233 0.0
Co330 Co 0.58521 0.56271 0.38317 0.0
C331 C 0.58645 0.5616 0.21749 0.0
C332 C 0.59628 0.5467 0.26888 0.0
C333 C 0.59722 0.54561 0.192 0.0
N334 N 0.58948 0.55668 0.2846 0.0
N335 N 0.59104 0.55498 0.15967 0.0
H336 H 0.58087 0.56976 0.21135 0.0
H337 H 0.60034 0.54069 0.31038 0.0
C338 C 0.57591 0.5408 0.46426 0.0
O339 O 0.56675 0.54775 0.48647 0.0
N340 N 0.58138 0.56891 0.48366 0.0
C341 C 0.57651 0.57987 0.50266 0.0
C342 C 0.57669 0.58109 0.57947 0.0
C343 C 0.58506 0.56396 0.54986 0.0
N344 N 0.58203 0.57105 0.60938 0.0
C345 C 0.56138 0.5731 0.3501 0.0
C346 C 0.55029 0.55126 0.31037 0.0
C347 C 0.54304 0.56184 0.31649 0.0
C348 C 0.54884 0.57297 0.3339 0.0
C349 C 0.56279 0.55184 0.32713 0.0
N350 N 0.56798 0.56247 0.35276 0.0
H351 H 0.56576 0.5818 0.35956 0.0
H352 H 0.56826 0.54364 0.32066 0.0
H353 H 0.57365 0.58695 0.4643 0.0
H354 H 0.59021 0.5555 0.55421 0.0
O355 O 0.58937 0.57913 0.35216 0.0
O356 O 0.60232 0.56582 0.40387 0.0
O357 O 0.58423 0.54525 0.42157 0.0
C358 C 0.60037 0.57676 0.3767 0.0
H359 H 0.60226 0.53857 0.16236 0.0
H360 H 0.57328 0.5889 0.61058 0.0
H361 H 0.54635 0.54258 0.2932 0.0
H362 H 0.54372 0.58147 0.33681 0.0
Co363 Co 0.17699 0.83426 0.14217 0.0
C364 C 0.17815 0.83572 0.97613 0.0
C365 C 0.19233 0.84639 0.02857 0.0
C366 C 0.19348 0.84743 0.95181 0.0
N367 N 0.18276 0.83901 0.04364 0.0
N368 N 0.18456 0.84071 0.91862 0.0
H369 H 0.17023 0.82983 0.96967 0.0
H370 H 0.19811 0.85067 0.07045 0.0
C371 C 0.20004 0.82543 0.21604 0.0
O372 O 0.19434 0.81524 0.23433 0.0
N373 N 0.1711 0.82989 0.24261 0.0
C374 C 0.15985 0.8257 0.26119 0.0
C375 C 0.15886 0.82512 0.33801 0.0
C376 C 0.1765 0.83246 0.3095 0.0
N377 N 0.16935 0.82934 0.36858 0.0
C378 C 0.16736 0.81006 0.11175 0.0
C379 C 0.18908 0.80004 0.06072 0.0
C380 C 0.17886 0.79236 0.06942 0.0
C381 C 0.16778 0.79763 0.09307 0.0
C382 C 0.18822 0.81243 0.07994 0.0
N383 N 0.17769 0.81711 0.11032 0.0
H384 H 0.15866 0.814 0.12638 0.0
H385 H 0.19614 0.81824 0.07175 0.0
H386 H 0.15241 0.82399 0.22261 0.0
H387 H 0.18534 0.83685 0.31507 0.0
O388 O 0.16041 0.83812 0.1118 0.0
O389 O 0.17347 0.85119 0.1644 0.0
O390 O 0.1945 0.83389 0.17958 0.0
C391 C 0.16261 0.84915 0.1366 0.0
H392 H 0.20051 0.85259 0.92298 0.0
H393 H 0.15075 0.82243 0.36892 0.0
H394 H 0.19768 0.7965 0.03944 0.0
H395 H 0.15954 0.79217 0.09879 0.0
Co396 Co 0.90653 0.56401 0.16887 0.0
C397 C 0.9053 0.5629 0.33445 0.0
C398 C 0.89544 0.54803 0.2834 0.0
C399 C 0.89444 0.54701 0.36032 0.0
N400 N 0.90227 0.55797 0.26745 0.0
N401 N 0.90065 0.55638 0.39251 0.0
H402 H 0.91067 0.5712 0.34022 0.0
H403 H 0.89146 0.54194 0.24204 0.0
C404 C 0.91587 0.54199 0.08617 0.0
O405 O 0.92451 0.54887 0.05673 0.0
N406 N 0.91045 0.57021 0.06865 0.0
C407 C 0.9164 0.58062 0.05001 0.0
C408 C 0.91646 0.58183 0.97319 0.0
C409 C 0.90643 0.5656 1.00232 0.0
N410 N 0.91029 0.57232 0.94292 0.0
C411 C 0.92947 0.5755 0.20964 0.0
C412 C 0.9424 0.55399 0.23147 0.0
C413 C 0.94879 0.56513 0.23004 0.0
C414 C 0.9421 0.57604 0.22296 0.0
C415 C 0.92977 0.55392 0.21897 0.0
N416 N 0.92369 0.56448 0.20063 0.0
H417 H 0.92439 0.58396 0.20563 0.0
H418 H 0.92497 0.54528 0.22259 0.0
H419 H 0.92007 0.58727 0.08854 0.0
H420 H 0.90094 0.55737 0.99777 0.0
O421 O 0.90152 0.58029 0.19891 0.0
O422 O 0.88942 0.56638 0.14539 0.0
O423 O 0.90813 0.54652 0.13233 0.0
C424 C 0.89075 0.57736 0.17288 0.0
H425 H 0.88964 0.53982 0.39003 0.0
H426 H 0.92049 0.58937 0.94226 0.0
H427 H 0.94717 0.54539 0.24072 0.0
H428 H 0.94665 0.58488 0.22443 0.0
Co429 Co 0.181 0.15826 0.88613 0.0
C430 C 0.18209 0.15749 0.05497 0.0
C431 C 0.19291 0.14355 1.00211 0.0
C432 C 0.19408 0.14229 0.07856 0.0
N433 N 0.18552 0.15318 0.98708 0.0
N434 N 0.18728 0.15108 0.11181 0.0
H435 H 0.1758 0.16495 0.0635 0.0
H436 H 0.19728 0.1379 0.96 0.0
C437 C 0.20773 0.16279 0.89908 0.0
O438 O 0.20531 0.16765 0.96492 0.0
N439 N 0.17646 0.16288 0.78543 0.0
C440 C 0.16705 0.17027 0.76624 0.0
C441 C 0.16665 0.1712 0.68935 0.0
C442 C 0.18159 0.15928 0.72029 0.0
N443 N 0.17578 0.1643 0.66051 0.0
C444 C 0.17158 0.18042 0.95426 0.0
C445 C 0.18794 0.19617 0.88581 0.0
C446 C 0.1787 0.20117 0.93107 0.0
C447 C 0.17044 0.19309 0.9657 0.0
C448 C 0.18862 0.18355 0.87509 0.0
N449 N 0.1809 0.17571 0.91185 0.0
H450 H 0.16462 0.17444 0.97697 0.0
H451 H 0.19506 0.18021 0.83407 0.0
H452 H 0.16085 0.17459 0.80548 0.0
H453 H 0.18941 0.15318 0.71688 0.0
O454 O 0.16405 0.15437 0.90664 0.0
O455 O 0.17783 0.14128 0.86219 0.0
O456 O 0.19897 0.15871 0.8581 0.0
C457 C 0.1666 0.14334 0.88339 0.0
H458 H 0.19966 0.13553 0.1072 0.0
H459 H 0.15996 0.17634 0.65713 0.0
H460 H 0.1945 0.20197 0.85711 0.0
H461 H 0.16285 0.19651 0.99872 0.0
Co462 Co 0.58309 0.42747 0.64807 0.0
C463 C 0.58396 0.42883 0.8174 0.0
C464 C 0.59592 0.44164 0.76323 0.0
C465 C 0.59728 0.44291 0.83958 0.0
N466 N 0.58737 0.43299 0.74894 0.0
N467 N 0.58976 0.43485 0.87362 0.0
H468 H 0.57756 0.42151 0.82696 0.0
H469 H 0.60094 0.44661 0.72066 0.0
C470 C 0.57705 0.45391 0.65105 0.0
O471 O 0.57148 0.45153 0.71482 0.0
N472 N 0.57936 0.42196 0.54761 0.0
C473 C 0.57264 0.41201 0.53002 0.0
C474 C 0.57232 0.41083 0.45326 0.0
C475 C 0.58312 0.4267 0.48153 0.0
N476 N 0.57893 0.42003 0.42263 0.0
C477 C 0.56084 0.41852 0.71785 0.0
C478 C 0.54498 0.43278 0.63367 0.0
C479 C 0.54013 0.42479 0.68737 0.0
C480 C 0.54819 0.41755 0.72976 0.0
C481 C 0.55765 0.43363 0.62478 0.0
N482 N 0.5655 0.42701 0.66915 0.0
H483 H 0.56681 0.412 0.74507 0.0
H484 H 0.56109 0.43932 0.57992 0.0
H485 H 0.56829 0.40601 0.57036 0.0
H486 H 0.58897 0.43468 0.47694 0.0
O487 O 0.58738 0.41084 0.675 0.0
O488 O 0.60032 0.4247 0.62975 0.0
O489 O 0.58214 0.44519 0.61434 0.0
C490 C 0.59847 0.41356 0.65373 0.0
H491 H 0.60358 0.44906 0.86774 0.0
H492 H 0.56746 0.40378 0.42252 0.0
H493 H 0.53901 0.43821 0.59806 0.0
H494 H 0.54471 0.41083 0.76913 0.0
Co495 Co 0.31326 0.83512 0.3902 0.0
C496 C 0.31188 0.83611 0.55927 0.0
C497 C 0.30244 0.85091 0.50497 0.0
C498 C 0.30134 0.85238 0.58132 0.0
N499 N 0.30893 0.84064 0.49079 0.0
N500 N 0.30728 0.84306 0.61559 0.0
H501 H 0.31744 0.8281 0.56855 0.0
H502 H 0.29865 0.8569 0.46236 0.0
C503 C 0.28608 0.83265 0.40091 0.0
O504 O 0.28752 0.82894 0.47052 0.0
N505 N 0.31766 0.83006 0.28991 0.0
C506 C 0.32662 0.8221 0.27174 0.0
C507 C 0.32702 0.821 0.1949 0.0
C508 C 0.31281 0.83383 0.22405 0.0
N509 N 0.31835 0.82837 0.16489 0.0
C510 C 0.32193 0.81284 0.45999 0.0
C511 C 0.30516 0.79747 0.39156 0.0
C512 C 0.31457 0.79229 0.43481 0.0
C513 C 0.32292 0.80014 0.47041 0.0
C514 C 0.30449 0.81016 0.38285 0.0
N515 N 0.31263 0.81778 0.4181 0.0
H516 H 0.32904 0.81866 0.48264 0.0
H517 H 0.29788 0.81365 0.34319 0.0
H518 H 0.33254 0.81749 0.31162 0.0
H519 H 0.30537 0.84038 0.21966 0.0
O520 O 0.33034 0.83844 0.41122 0.0
O521 O 0.3171 0.8519 0.36444 0.0
O522 O 0.29537 0.83524 0.36015 0.0
C523 C 0.32822 0.84949 0.38662 0.0
H524 H 0.29641 0.85968 0.60916 0.0
H525 H 0.33342 0.81541 0.16349 0.0
H526 H 0.29862 0.79174 0.36209 0.0
H527 H 0.33055 0.79649 0.50241 0.0
Co528 Co 0.58546 0.06349 0.64901 0.0
C529 C 0.58612 0.06206 0.81817 0.0
C530 C 0.59912 0.05022 0.76454 0.0
C531 C 0.60043 0.04897 0.84095 0.0
N532 N 0.59001 0.05827 0.74992 0.0
N533 N 0.59226 0.05643 0.87462 0.0
H534 H 0.57909 0.0688 0.82734 0.0
H535 H 0.60454 0.04564 0.72217 0.0
C536 C 0.58042 0.03682 0.65411 0.0
O537 O 0.57507 0.03904 0.71875 0.0
N538 N 0.58141 0.06875 0.54848 0.0
C539 C 0.57431 0.07845 0.53088 0.0
C540 C 0.57386 0.07957 0.45415 0.0
C541 C 0.58527 0.06412 0.48239 0.0
N542 N 0.58078 0.0706 0.42349 0.0
C543 C 0.563 0.07229 0.71652 0.0
C544 C 0.54755 0.05728 0.63473 0.0
C545 C 0.5424 0.06594 0.68331 0.0
C546 C 0.55028 0.07347 0.72507 0.0
C547 C 0.56024 0.0564 0.62811 0.0
N548 N 0.56789 0.06349 0.67086 0.0
H549 H 0.56884 0.07897 0.74331 0.0
H550 H 0.56383 0.05042 0.58522 0.0
H551 H 0.5698 0.08432 0.5712 0.0
H552 H 0.59142 0.05636 0.47777 0.0
O553 O 0.58923 0.08027 0.67473 0.0
O554 O 0.60257 0.06679 0.62962 0.0
O555 O 0.58504 0.04569 0.61634 0.0
C556 C 0.60037 0.07789 0.65297 0.0
H557 H 0.6071 0.04326 0.86943 0.0
H558 H 0.56872 0.08644 0.42346 0.0
H559 H 0.54182 0.05142 0.60024 0.0
H560 H 0.54665 0.08063 0.76087 0.0
Co561 Co 0.17759 0.33519 0.91342 0.0
C562 C 0.17882 0.33651 0.07967 0.0
C563 C 0.1936 0.34634 0.02755 0.0
C564 C 0.19481 0.34732 0.10434 0.0
N565 N 0.18363 0.33952 1.01221 0.0
N566 N 0.18552 0.34114 0.13727 0.0
H567 H 0.17069 0.33093 0.08622 0.0
H568 H 0.19955 0.35038 0.98579 0.0
C569 C 0.19966 0.32611 0.83014 0.0
O570 O 0.19285 0.31751 0.79956 0.0
N571 N 0.17145 0.33122 0.81294 0.0
C572 C 0.1612 0.32501 0.79395 0.0
C573 C 0.15983 0.32522 0.71719 0.0
C574 C 0.17586 0.33555 0.74685 0.0
N575 N 0.16908 0.3318 0.68731 0.0
C576 C 0.16622 0.31222 0.95471 0.0
C577 C 0.1878 0.29935 0.9752 0.0
C578 C 0.17669 0.29292 0.97431 0.0
C579 C 0.16575 0.29957 0.96791 0.0
C580 C 0.18782 0.31199 0.96279 0.0
N581 N 0.17721 0.31804 0.94516 0.0
H582 H 0.15774 0.31728 0.95098 0.0
H583 H 0.19644 0.31681 0.96604 0.0
H584 H 0.15477 0.32092 0.83222 0.0
H585 H 0.18381 0.34145 0.74265 0.0
O586 O 0.16129 0.34018 0.94302 0.0
O587 O 0.17521 0.35227 0.88977 0.0
O588 O 0.19507 0.33368 0.87712 0.0
C589 C 0.16421 0.35094 0.91675 0.0
H590 H 0.20189 0.3524 0.1335 0.0
H591 H 0.15254 0.32081 0.68593 0.0
H592 H 0.19643 0.29461 0.98396 0.0
H593 H 0.15693 0.295 0.96979 0.0
Co594 Co 0.90793 0.92936 0.15013 0.0
C595 C 0.90636 0.93024 0.31623 0.0
C596 C 0.89545 0.94429 0.26401 0.0
C597 C 0.89421 0.94525 0.34075 0.0
N598 N 0.90308 0.93491 0.24881 0.0
N599 N 0.90107 0.93642 0.37373 0.0
H600 H 0.91237 0.92241 0.32275 0.0
H601 H 0.8911 0.95003 0.22219 0.0
C602 C 0.91614 0.95208 0.06979 0.0
O603 O 0.92509 0.94573 0.0394 0.0
N604 N 0.91246 0.92365 0.04979 0.0
C605 C 0.91932 0.91378 0.03165 0.0
C606 C 0.91968 0.91261 0.95492 0.0
C607 C 0.90827 0.92798 0.98305 0.0
N608 N 0.91282 0.9216 0.92403 0.0
C609 C 0.93108 0.91877 0.19486 0.0
C610 C 0.94326 0.94069 0.21696 0.0
C611 C 0.94997 0.92973 0.21824 0.0
C612 C 0.94363 0.91862 0.21079 0.0
C613 C 0.93069 0.94038 0.20191 0.0
N614 N 0.92501 0.9296 0.18367 0.0
H615 H 0.9263 0.91015 0.1905 0.0
H616 H 0.92564 0.94887 0.20415 0.0
H617 H 0.92346 0.90745 0.07045 0.0
H618 H 0.90215 0.93576 0.97794 0.0
O619 O 0.90372 0.91274 0.17701 0.0
O620 O 0.89098 0.92623 0.12541 0.0
O621 O 0.90869 0.94702 0.11573 0.0
C622 C 0.89283 0.91518 0.15083 0.0
H623 H 0.8888 0.95207 0.36982 0.0
H624 H 0.92439 0.90544 0.92442 0.0
H625 H 0.94772 0.94943 0.22642 0.0
H626 H 0.94841 0.90991 0.21408 0.0
Co627 Co 0.31391 0.65726 0.39002 0.0
C628 C 0.31276 0.65659 0.55879 0.0
C629 C 0.30058 0.64382 0.50579 0.0
C630 C 0.2995 0.64251 0.58224 0.0
N631 N 0.30873 0.65281 0.49084 0.0
N632 N 0.30718 0.65053 0.61545 0.0
H633 H 0.31967 0.66347 0.56757 0.0
H634 H 0.29583 0.63848 0.46362 0.0
C635 C 0.28731 0.66254 0.3954 0.0
O636 O 0.28965 0.66793 0.45985 0.0
N637 N 0.31913 0.66118 0.28958 0.0
C638 C 0.32887 0.66817 0.27151 0.0
C639 C 0.32987 0.66855 0.19471 0.0
C640 C 0.31435 0.65733 0.22386 0.0
N641 N 0.32077 0.66171 0.16467 0.0
C642 C 0.32284 0.67978 0.45721 0.0
C643 C 0.30778 0.69519 0.3753 0.0
C644 C 0.31639 0.70038 0.42424 0.0
C645 C 0.32396 0.69251 0.46595 0.0
C646 C 0.30695 0.68251 0.36851 0.0
N647 N 0.31404 0.67486 0.41148 0.0
H648 H 0.32954 0.67394 0.48396 0.0
H649 H 0.30099 0.6789 0.32547 0.0
H650 H 0.33484 0.67265 0.31153 0.0
H651 H 0.30652 0.65126 0.21974 0.0
O652 O 0.33069 0.65333 0.41564 0.0
O653 O 0.31705 0.6401 0.37091 0.0
O654 O 0.29609 0.6578 0.35756 0.0
C655 C 0.32818 0.64219 0.39416 0.0
H656 H 0.29376 0.63591 0.61104 0.0
H657 H 0.33672 0.6736 0.16356 0.0
H658 H 0.3019 0.70091 0.34078 0.0
H659 H 0.33109 0.69616 0.50198 0.0
Co660 Co 0.58685 0.92923 0.36918 0.0
C661 C 0.58767 0.93051 0.20341 0.0
C662 C 0.59688 0.9458 0.25444 0.0
C663 C 0.59772 0.94694 0.17756 0.0
N664 N 0.59054 0.93554 0.27041 0.0
N665 N 0.59194 0.93731 0.14543 0.0
H666 H 0.58251 0.92209 0.19748 0.0
H667 H 0.60076 0.95195 0.29578 0.0
C668 C 0.5773 0.95079 0.45385 0.0
O669 O 0.56847 0.94363 0.47837 0.0
N670 N 0.58356 0.92281 0.46973 0.0
C671 C 0.57835 0.91202 0.48904 0.0
C672 C 0.57866 0.91077 0.56584 0.0
C673 C 0.58748 0.92765 0.53559 0.0
N674 N 0.58435 0.92065 0.59531 0.0
C675 C 0.5639 0.91751 0.33375 0.0
C676 C 0.55068 0.93869 0.30671 0.0
C677 C 0.54443 0.92745 0.30921 0.0
C678 C 0.55133 0.91672 0.31971 0.0
C679 C 0.5633 0.93903 0.32072 0.0
N680 N 0.56954 0.92863 0.34074 0.0
H681 H 0.56909 0.90914 0.33828 0.0
H682 H 0.56799 0.94773 0.31674 0.0
H683 H 0.57495 0.90516 0.45093 0.0
H684 H 0.59272 0.93606 0.53957 0.0
O685 O 0.59172 0.91304 0.33741 0.0
O686 O 0.60417 0.92686 0.38796 0.0
O687 O 0.58532 0.9466 0.40822 0.0
C688 C 0.60267 0.91587 0.36074 0.0
H689 H 0.60248 0.95416 0.1478 0.0
H690 H 0.57496 0.90314 0.59737 0.0
H691 H 0.54584 0.94721 0.29631 0.0
H692 H 0.54706 0.90775 0.31726 0.0
Co693 Co 0.3113 0.33626 0.63373 0.0
C694 C 0.30999 0.3375 0.4675 0.0
C695 C 0.29499 0.34702 0.51952 0.0
C696 C 0.29373 0.34792 0.44272 0.0
N697 N 0.30514 0.34044 0.53492 0.0
N698 N 0.30316 0.34194 0.4099 0.0
H699 H 0.31826 0.3321 0.46098 0.0
H700 H 0.28895 0.35094 0.56123 0.0
C701 C 0.28935 0.32672 0.71569 0.0
O702 O 0.29626 0.31803 0.74469 0.0
N703 N 0.31757 0.3325 0.73434 0.0
C704 C 0.32842 0.32736 0.75319 0.0
C705 C 0.32976 0.3276 0.82993 0.0
C706 C 0.31278 0.33633 0.8006 0.0
N707 N 0.31991 0.3332 0.86002 0.0
C708 C 0.32272 0.31309 0.59719 0.0
C709 C 0.30125 0.3007 0.56534 0.0
C710 C 0.31224 0.29403 0.56904 0.0
C711 C 0.32316 0.3005 0.58225 0.0
C712 C 0.30126 0.31325 0.58098 0.0
N713 N 0.31177 0.31908 0.60293 0.0
H714 H 0.33122 0.318 0.60369 0.0
H715 H 0.29273 0.31823 0.57587 0.0
H716 H 0.33532 0.32418 0.71478 0.0
H717 H 0.30439 0.34157 0.80502 0.0
O718 O 0.32752 0.34132 0.60305 0.0
O719 O 0.31358 0.3534 0.65621 0.0
O720 O 0.29387 0.33461 0.67045 0.0
C721 C 0.32454 0.35211 0.62856 0.0
H722 H 0.28652 0.35281 0.41345 0.0
H723 H 0.33751 0.32399 0.86094 0.0
H724 H 0.29268 0.29627 0.55089 0.0
H725 H 0.33195 0.29588 0.58303 0.0
Co726 Co 0.90817 0.06477 0.88523 0.0
C727 C 0.90717 0.06353 0.71879 0.0
C728 C 0.89684 0.04908 0.77079 0.0
C729 C 0.89587 0.04788 0.69406 0.0
N730 N 0.90396 0.05884 0.78618 0.0
N731 N 0.90236 0.05696 0.66122 0.0
H732 H 0.91296 0.07152 0.71225 0.0
H733 H 0.89253 0.0433 0.81249 0.0
C734 C 0.91613 0.04232 0.96999 0.0
O735 O 0.92482 0.0488 1.00234 0.0
N736 N 0.91202 0.07081 0.98595 0.0
C737 C 0.9186 0.08083 1.00507 0.0
C738 C 0.91834 0.08224 0.08171 0.0
C739 C 0.90744 0.06659 0.0518 0.0
N740 N 0.91137 0.07325 0.11135 0.0
C741 C 0.93124 0.0756 0.84465 0.0
C742 C 0.94406 0.05399 0.82451 0.0
C743 C 0.95047 0.06514 0.82207 0.0
C744 C 0.94377 0.07606 0.82931 0.0
C745 C 0.93148 0.05398 0.83978 0.0
N746 N 0.92544 0.06466 0.85597 0.0
H747 H 0.92624 0.08411 0.84745 0.0
H748 H 0.92668 0.04533 0.83857 0.0
H749 H 0.92304 0.08705 0.96694 0.0
H750 H 0.90128 0.05884 0.05588 0.0
O751 O 0.90395 0.08124 0.85523 0.0
O752 O 0.891 0.06785 0.9052 0.0
O753 O 0.90894 0.04723 0.92173 0.0
C754 C 0.89293 0.07882 0.87872 0.0
H755 H 0.89055 0.04098 0.66486 0.0
H756 H 0.92301 0.08934 0.11311 0.0
H757 H 0.94875 0.04532 0.81664 0.0
H758 H 0.94817 0.08491 0.82338 0.0
Co759 Co 0.17833 0.65839 0.13054 0.0
C760 C 0.17957 0.65702 0.96458 0.0
C761 C 0.19417 0.64689 0.01703 0.0
C762 C 0.19529 0.64581 0.94026 0.0
N763 N 0.18434 0.65394 0.03209 0.0
N764 N 0.18611 0.65218 0.90709 0.0
H765 H 0.17141 0.66258 0.95807 0.0
H766 H 0.2001 0.64282 0.05892 0.0
C767 C 0.20043 0.66772 0.21045 0.0
O768 O 0.19364 0.67704 0.23211 0.0
N769 N 0.17215 0.66241 0.23093 0.0
C770 C 0.1611 0.66716 0.24897 0.0
C771 C 0.15991 0.66746 0.32574 0.0
C772 C 0.17717 0.65921 0.29794 0.0
N773 N 0.17006 0.66253 0.35679 0.0
C774 C 0.16795 0.68218 0.09663 0.0
C775 C 0.18972 0.69321 0.05524 0.0
C776 C 0.17914 0.70046 0.06083 0.0
C777 C 0.16805 0.69468 0.07932 0.0
C778 C 0.18918 0.68074 0.07311 0.0
N779 N 0.17858 0.67558 0.0993 0.0
H780 H 0.15928 0.67783 0.10685 0.0
H781 H 0.19738 0.67526 0.06687 0.0
H782 H 0.15391 0.66954 0.21003 0.0
H783 H 0.18582 0.65443 0.30355 0.0
O784 O 0.16191 0.65415 0.09962 0.0
O785 O 0.17523 0.64131 0.15209 0.0
O786 O 0.19581 0.65936 0.16871 0.0
C787 C 0.16431 0.64317 0.12456 0.0
H788 H 0.20245 0.64083 0.91138 0.0
H789 H 0.15191 0.67058 0.35618 0.0
H790 H 0.19837 0.69712 0.03742 0.0
H791 H 0.15954 0.69979 0.08209 0.0
Co792 Co 0.40987 0.92701 0.37966 0.0
C793 C 0.40901 0.92844 0.21344 0.0
C794 C 0.39942 0.94343 0.26522 0.0
C795 C 0.39859 0.9447 0.18841 0.0
N796 N 0.406 0.93328 0.28077 0.0
N797 N 0.40462 0.93527 0.15573 0.0
H798 H 0.41439 0.92016 0.20706 0.0
H799 H 0.3954 0.94942 0.30681 0.0
C800 C 0.41902 0.94877 0.46455 0.0
O801 O 0.42799 0.9418 0.48967 0.0
N802 N 0.41335 0.92061 0.48029 0.0
C803 C 0.41872 0.90986 0.49902 0.0
C804 C 0.41849 0.90849 0.57573 0.0
C805 C 0.40943 0.92531 0.54654 0.0
N806 N 0.4127 0.91824 0.60588 0.0
C807 C 0.43297 0.91566 0.34361 0.0
C808 C 0.4458 0.93706 0.3168 0.0
C809 C 0.45223 0.9259 0.31833 0.0
C810 C 0.44552 0.91506 0.32889 0.0
C811 C 0.4332 0.93719 0.33149 0.0
N812 N 0.42716 0.92668 0.3512 0.0
H813 H 0.42793 0.9072 0.34801 0.0
H814 H 0.42838 0.94583 0.32795 0.0
H815 H 0.42216 0.90309 0.46052 0.0
H816 H 0.40409 0.93365 0.55108 0.0
O817 O 0.4052 0.91073 0.3478 0.0
O818 O 0.39262 0.92442 0.39844 0.0
O819 O 0.41111 0.94439 0.41869 0.0
C820 C 0.39423 0.91346 0.37106 0.0
H821 H 0.39368 0.95188 0.15903 0.0
H822 H 0.42231 0.90084 0.60672 0.0
H823 H 0.45047 0.94566 0.30645 0.0
H824 H 0.44993 0.90616 0.32578 0.0
Co825 Co 0.81138 0.65642 0.13466 0.0
C826 C 0.81031 0.65523 0.9656 0.0
C827 C 0.79938 0.64151 0.01969 0.0
C828 C 0.79825 0.64007 0.94329 0.0
N829 N 0.80682 0.65111 0.03397 0.0
N830 N 0.80512 0.64871 0.90919 0.0
H831 H 0.81666 0.66262 0.95649 0.0
H832 H 0.79496 0.63599 0.06226 0.0
C833 C 0.78472 0.6612 0.12094 0.0
O834 O 0.78726 0.66579 0.05453 0.0
N835 N 0.81598 0.66125 0.23511 0.0
C836 C 0.82539 0.66866 0.25348 0.0
C837 C 0.82591 0.66969 0.33033 0.0
C838 C 0.81096 0.65772 0.30086 0.0
N839 N 0.81684 0.66281 0.36016 0.0
C840 C 0.82093 0.67836 0.06419 0.0
C841 C 0.80466 0.69435 0.13151 0.0
C842 C 0.81392 0.69921 0.0859 0.0
C843 C 0.82213 0.69101 0.0518 0.0
C844 C 0.80394 0.68176 0.14332 0.0
N845 N 0.8116 0.6738 0.10708 0.0
H846 H 0.82786 0.6723 0.04193 0.0
H847 H 0.79752 0.67856 0.18483 0.0
H848 H 0.83155 0.67293 0.2137 0.0
H849 H 0.80318 0.65159 0.30506 0.0
O850 O 0.82826 0.65229 0.11356 0.0
O851 O 0.81442 0.63952 0.16127 0.0
O852 O 0.7934 0.65714 0.16271 0.0
C853 C 0.82561 0.6414 0.13888 0.0
H854 H 0.79264 0.63328 0.91529 0.0
H855 H 0.83264 0.67486 0.36185 0.0
H856 H 0.79812 0.70022 0.15975 0.0
H857 H 0.82974 0.69433 0.0185 0.0
Co858 Co 0.08512 0.06573 0.87268 0.0
C859 C 0.08596 0.06444 0.70704 0.0
C860 C 0.09584 0.04956 0.75819 0.0
C861 C 0.09676 0.04848 0.68131 0.0
N862 N 0.08905 0.05953 0.77406 0.0
N863 N 0.09055 0.05786 0.64904 0.0
H864 H 0.08065 0.07277 0.70122 0.0
H865 H 0.0999 0.04352 0.79958 0.0
C866 C 0.07605 0.04386 0.9566 0.0
O867 O 0.067 0.05075 0.98108 0.0
N868 N 0.08155 0.07209 0.97306 0.0
C869 C 0.07616 0.08282 0.99151 0.0
C870 C 0.0761 0.08405 0.06829 0.0
C871 C 0.08529 0.06729 0.03953 0.0
N872 N 0.08175 0.07422 0.09873 0.0
C873 C 0.06192 0.0769 0.83664 0.0
C874 C 0.04919 0.05541 0.81037 0.0
C875 C 0.04267 0.06651 0.81322 0.0
C876 C 0.04933 0.0774 0.82301 0.0
C877 C 0.06184 0.05538 0.82376 0.0
N878 N 0.06782 0.06592 0.8437 0.0
H879 H 0.0669 0.08539 0.841 0.0
H880 H 0.06674 0.04679 0.81965 0.0
H881 H 0.07295 0.0897 0.95281 0.0
H882 H 0.09043 0.05884 0.04443 0.0
O883 O 0.0896 0.08204 0.84094 0.0
O884 O 0.10235 0.0685 0.89203 0.0
O885 O 0.08401 0.04832 0.91154 0.0
C886 C 0.1006 0.07945 0.86455 0.0
H887 H 0.10155 0.04127 0.6517 0.0
H888 H 0.07249 0.0918 0.09909 0.0
H889 H 0.04456 0.04678 0.80038 0.0
H890 H 0.04484 0.08626 0.82063 0.0
Co891 Co 0.67861 0.33428 0.65147 0.0
C892 C 0.67954 0.33571 0.48572 0.0
C893 C 0.69393 0.34622 0.53717 0.0
C894 C 0.69502 0.34718 0.46031 0.0
N895 N 0.68428 0.33898 0.55284 0.0
N896 N 0.68597 0.34056 0.42797 0.0
H897 H 0.67168 0.32972 0.47952 0.0
H898 H 0.69977 0.35052 0.57869 0.0
C899 C 0.70144 0.32543 0.72701 0.0
O900 O 0.69518 0.31586 0.75035 0.0
N901 N 0.67282 0.32997 0.75197 0.0
C902 C 0.66187 0.3251 0.77099 0.0
C903 C 0.66075 0.32507 0.84777 0.0
C904 C 0.67791 0.33338 0.81827 0.0
N905 N 0.67085 0.33027 0.87777 0.0
C906 C 0.66871 0.31032 0.61763 0.0
C907 C 0.6906 0.29979 0.57377 0.0
C908 C 0.68018 0.29232 0.57994 0.0
C909 C 0.66902 0.29785 0.59969 0.0
C910 C 0.68985 0.31222 0.59221 0.0
N911 N 0.67921 0.31713 0.61965 0.0
H912 H 0.65997 0.31449 0.62872 0.0
H913 H 0.6979 0.31786 0.58521 0.0
H914 H 0.65469 0.32249 0.7327 0.0
H915 H 0.68636 0.33853 0.8227 0.0
O916 O 0.66201 0.33814 0.6221 0.0
O917 O 0.6751 0.35126 0.67376 0.0
O918 O 0.6962 0.33374 0.68758 0.0
C919 C 0.66418 0.34916 0.64687 0.0
H920 H 0.70186 0.35249 0.43066 0.0
H921 H 0.65293 0.32168 0.87877 0.0
H922 H 0.69928 0.29606 0.55499 0.0
H923 H 0.66063 0.29258 0.60292 0.0
Co924 Co 0.40766 0.06232 0.63733 0.0
C925 C 0.407 0.06104 0.8063 0.0
C926 C 0.39333 0.04994 0.75277 0.0
C927 C 0.39208 0.0487 0.82916 0.0
N928 N 0.40279 0.05755 0.73817 0.0
N929 N 0.40069 0.05568 0.86281 0.0
H930 H 0.41426 0.06753 0.81531 0.0
H931 H 0.38776 0.04551 0.7104 0.0
C932 C 0.41252 0.03564 0.64757 0.0
O933 O 0.4176 0.03809 0.71283 0.0
N934 N 0.41202 0.06709 0.53669 0.0
C935 C 0.41922 0.07663 0.51774 0.0
C936 C 0.42009 0.07709 0.44084 0.0
C937 C 0.40847 0.06193 0.47142 0.0
N938 N 0.41333 0.06786 0.41178 0.0
C939 C 0.42993 0.07143 0.70577 0.0
C940 C 0.44559 0.05602 0.62873 0.0
C941 C 0.45061 0.065 0.67576 0.0
C942 C 0.44262 0.07271 0.71525 0.0
C943 C 0.43292 0.05502 0.62126 0.0
N944 N 0.42516 0.06235 0.66155 0.0
H945 H 0.42399 0.07821 0.73075 0.0
H946 H 0.42945 0.04879 0.57932 0.0
H947 H 0.42349 0.08285 0.55717 0.0
H948 H 0.40254 0.05398 0.46781 0.0
O949 O 0.4039 0.07923 0.65975 0.0
O950 O 0.39061 0.06565 0.61498 0.0
O951 O 0.4081 0.04438 0.60771 0.0
C952 C 0.39282 0.07683 0.63688 0.0
H953 H 0.38543 0.04298 0.85749 0.0
H954 H 0.4251 0.08387 0.40879 0.0
H955 H 0.45143 0.05004 0.5959 0.0
H956 H 0.44614 0.0801 0.7498 0.0
Co957 Co 0.67654 0.65954 0.39488 0.0
C958 C 0.67765 0.65843 0.5607 0.0
C959 C 0.69251 0.64853 0.50983 0.0
C960 C 0.69358 0.64758 0.58673 0.0
N961 N 0.68257 0.65537 0.49375 0.0
N962 N 0.68423 0.6538 0.61879 0.0
H963 H 0.6695 0.66401 0.56651 0.0
H964 H 0.6985 0.64441 0.46855 0.0
C965 C 0.69847 0.66845 0.31107 0.0
O966 O 0.69166 0.67747 0.28522 0.0
N967 N 0.6704 0.66336 0.29436 0.0
C968 C 0.66023 0.66967 0.27476 0.0
C969 C 0.659 0.66949 0.19791 0.0
C970 C 0.6749 0.65902 0.22869 0.0
N971 N 0.66827 0.66284 0.16875 0.0
C972 C 0.66532 0.68253 0.43577 0.0
C973 C 0.68684 0.69526 0.46057 0.0
C974 C 0.67569 0.70171 0.46284 0.0
C975 C 0.6648 0.69502 0.45324 0.0
C976 C 0.68689 0.68274 0.44411 0.0
N977 N 0.6763 0.67677 0.42531 0.0
H978 H 0.65684 0.6775 0.43135 0.0
H979 H 0.69553 0.67791 0.44597 0.0
H980 H 0.65381 0.67387 0.31265 0.0
H981 H 0.68283 0.65307 0.22505 0.0
O982 O 0.66017 0.65488 0.4246 0.0
O983 O 0.67392 0.64237 0.37388 0.0
O984 O 0.69398 0.66069 0.35734 0.0
C985 C 0.66292 0.64395 0.4004 0.0
H986 H 0.70057 0.64247 0.61653 0.0
H987 H 0.65182 0.67399 0.16609 0.0
H988 H 0.69553 0.69984 0.4696 0.0
H989 H 0.65591 0.69935 0.45925 0.0
Co990 Co 0.08475 0.93073 0.13951 0.0
C991 C 0.08578 0.93156 0.30826 0.0
C992 C 0.09968 0.94242 0.25541 0.0
C993 C 0.10111 0.94336 0.3319 0.0
N994 N 0.08995 0.93517 0.24038 0.0
N995 N 0.09237 0.93652 0.365 0.0
H996 H 0.07814 0.92549 0.31693 0.0
H997 H 0.10538 0.94672 0.21329 0.0
C998 C 0.081 0.95758 0.1513 0.0
O999 O 0.07612 0.95526 0.21718 0.0
N1000 N 0.08004 0.9262 0.03898 0.0
C1001 C 0.07223 0.91711 0.02071 0.0
C1002 C 0.07167 0.91622 0.94391 0.0
C1003 C 0.08423 0.93068 0.97331 0.0
N1004 N 0.07925 0.92471 0.91399 0.0
C1005 C 0.06224 0.92224 0.20786 0.0
C1006 C 0.04715 0.93911 0.13777 0.0
C1007 C 0.04178 0.93017 0.18379 0.0
C1008 C 0.04953 0.92164 0.21918 0.0
C1009 C 0.05978 0.93923 0.12704 0.0
N1010 N 0.06731 0.93128 0.16472 0.0
H1011 H 0.06792 0.91506 0.23103 0.0
H1012 H 0.06336 0.94543 0.08536 0.0
H1013 H 0.06737 0.91143 0.06056 0.0
H1014 H 0.09101 0.9379 0.96932 0.0
O1015 O 0.08809 0.91367 0.16121 0.0
O1016 O 0.10163 0.92696 0.11638 0.0
O1017 O 0.08487 0.94871 0.11046 0.0
C1018 C 0.09921 0.91583 0.13833 0.0
H1019 H 0.1082 0.94847 0.3608 0.0
H1020 H 0.06606 0.90981 0.9127 0.0
H1021 H 0.04164 0.94585 0.10846 0.0
H1022 H 0.04581 0.91424 0.25272 0.0
Co1023 Co 0.81479 0.33628 0.88064 0.0
C1024 C 0.8138 0.33782 0.04633 0.0
C1025 C 0.79889 0.34757 0.99462 0.0
C1026 C 0.7978 0.34857 0.07148 0.0
N1027 N 0.80888 0.34078 0.97909 0.0
N1028 N 0.80718 0.34243 0.10405 0.0
H1029 H 0.82195 0.33224 0.05264 0.0
H1030 H 0.79284 0.35155 0.95299 0.0
C1031 C 0.79259 0.32627 0.80299 0.0
O1032 O 0.79941 0.31718 0.77824 0.0
N1033 N 0.82077 0.33211 0.78042 0.0
C1034 C 0.83137 0.32656 0.76118 0.0
C1035 C 0.83249 0.32662 0.68431 0.0
C1036 C 0.81586 0.33589 0.71436 0.0
N1037 N 0.82272 0.33247 0.65463 0.0
C1038 C 0.82662 0.31367 0.92213 0.0
C1039 C 0.80556 0.30056 0.95331 0.0
C1040 C 0.81683 0.29434 0.95184 0.0
C1041 C 0.82751 0.30121 0.93942 0.0
C1042 C 0.80514 0.31309 0.93631 0.0
N1043 N 0.81547 0.31921 0.9141 0.0
H1044 H 0.83496 0.31885 0.91568 0.0
H1045 H 0.79644 0.31778 0.93987 0.0
H1046 H 0.83824 0.32315 0.7993 0.0
H1047 H 0.80759 0.34135 0.71036 0.0
O1048 O 0.83107 0.34138 0.90979 0.0
O1049 O 0.81713 0.35338 0.85573 0.0
O1050 O 0.79728 0.33458 0.84472 0.0
C1051 C 0.82813 0.3521 0.8833 0.0
H1052 H 0.79074 0.35361 0.10093 0.0
H1053 H 0.84003 0.32271 0.65294 0.0
H1054 H 0.79708 0.29578 0.96517 0.0
H1055 H 0.8365 0.297 0.94262 0.0
H1056 H 0.0758 0.58819 0.80658 0.0
H1057 H 0.09601 0.54192 0.48094 0.0
H1058 H 0.08585 0.55048 0.84875 0.0
H1059 H 0.08169 0.57827 0.44099 0.0
H1060 H 0.09333 0.54504 0.6159 0.0
H1061 H 0.07884 0.58486 0.67305 0.0
C1062 C 0.07857 0.57917 0.78794 0.0
C1063 C 0.08044 0.56957 0.83945 0.0
C1064 C 0.09076 0.55233 0.57758 0.0
C1065 C 0.08413 0.56573 0.68548 0.0
C1066 C 0.09235 0.55058 0.50049 0.0
C1067 C 0.08908 0.55985 0.44935 0.0
C1068 C 0.08593 0.56346 0.60394 0.0
C1069 C 0.0842 0.57081 0.47803 0.0
C1070 C 0.08037 0.57729 0.71137 0.0
C1071 C 0.08435 0.55817 0.81142 0.0
N1072 N 0.08282 0.57232 0.55328 0.0
N1073 N 0.08604 0.55656 0.73632 0.0
H1074 H 0.66775 0.83453 0.68823 0.0
H1075 H 0.69681 0.83862 0.10099 0.0
H1076 H 0.7039 0.84901 0.73204 0.0
H1077 H 0.65948 0.82774 0.05451 0.0
H1078 H 0.69985 0.84228 0.96666 0.0
H1079 H 0.66489 0.83149 0.82265 0.0
C1080 C 0.67513 0.83701 0.72603 0.0
C1081 C 0.6861 0.842 0.69858 0.0
C1082 C 0.691 0.8391 0.98605 0.0
C1083 C 0.68285 0.83864 0.85325 0.0
C1084 C 0.68924 0.83706 0.06284 0.0
C1085 C 0.67789 0.83278 0.08946 0.0
C1086 C 0.68135 0.83684 0.93543 0.0
C1087 C 0.66846 0.8308 0.03692 0.0
C1088 C 0.67346 0.83535 0.80299 0.0
C1089 C 0.69525 0.84525 0.75067 0.0
N1090 N 0.67041 0.83282 0.9627 0.0
N1091 N 0.69343 0.84348 0.82545 0.0
H1092 H 0.40053 0.45355 0.97473 0.0
H1093 H 0.40727 0.4031 0.29965 0.0
H1094 H 0.40408 0.41472 0.93257 0.0
H1095 H 0.40638 0.44205 0.34276 0.0
H1096 H 0.40531 0.40721 0.16569 0.0
H1097 H 0.4019 0.44955 0.1094 0.0
C1098 C 0.40154 0.44417 0.99363 0.0
C1099 C 0.40214 0.43446 0.94176 0.0
C1100 C 0.40552 0.41487 0.20433 0.0
C1101 C 0.4038 0.42981 0.09673 0.0
C1102 C 0.4067 0.41254 0.28111 0.0
C1103 C 0.4071 0.42224 0.33303 0.0
C1104 C 0.40472 0.42703 0.17858 0.0
C1105 C 0.40603 0.43427 0.30515 0.0
C1106 C 0.40238 0.4419 0.07074 0.0
C1107 C 0.40368 0.42252 0.97007 0.0
N1108 N 0.40494 0.43632 0.22993 0.0
N1109 N 0.40442 0.42054 0.04545 0.0
H1110 H 0.80037 0.13819 0.2293 0.0
H1111 H 0.83008 0.17952 0.55367 0.0
H1112 H 0.81983 0.17202 0.18838 0.0
H1113 H 0.81001 0.14617 0.59805 0.0
H1114 H 0.8265 0.17671 0.41995 0.0
H1115 H 0.8038 0.14082 0.36377 0.0
C1116 C 0.80531 0.14621 0.24834 0.0
C1117 C 0.80977 0.15492 0.19681 0.0
C1118 C 0.82287 0.16998 0.45876 0.0
C1119 C 0.81385 0.15791 0.35163 0.0
C1120 C 0.82499 0.17153 0.53546 0.0
C1121 C 0.82045 0.163 0.58775 0.0
C1122 C 0.81615 0.15982 0.43336 0.0
C1123 C 0.81364 0.15301 0.56018 0.0
C1124 C 0.80732 0.14767 0.32538 0.0
C1125 C 0.81632 0.165 0.22543 0.0
N1126 N 0.81173 0.15168 0.48494 0.0
N1127 N 0.81814 0.16621 0.3007 0.0
H1128 H 0.07324 0.42378 0.58802 0.0
H1129 H 0.09779 0.43686 0.17123 0.0
H1130 H 0.10529 0.44573 0.54104 0.0
H1131 H 0.0676 0.41267 0.22224 0.0
H1132 H 0.10031 0.44086 0.30564 0.0
H1133 H 0.07083 0.42003 0.45391 0.0
C1134 C 0.07984 0.42777 0.54986 0.0
C1135 C 0.08951 0.43508 0.57667 0.0
C1136 C 0.09315 0.43466 0.28734 0.0
C1137 C 0.08668 0.43093 0.42176 0.0
C1138 C 0.09165 0.43242 0.21042 0.0
C1139 C 0.08249 0.42435 0.18494 0.0
C1140 C 0.08539 0.42885 0.33937 0.0
C1141 C 0.07491 0.41879 0.23892 0.0
C1142 C 0.07841 0.42567 0.47292 0.0
C1143 C 0.09761 0.44015 0.52352 0.0
N1144 N 0.07652 0.42115 0.31324 0.0
N1145 N 0.09601 0.43798 0.44886 0.0
H1146 H 0.82154 0.82108 0.82579 0.0
H1147 H 0.81018 0.84715 0.4099 0.0
H1148 H 0.80062 0.85388 0.77926 0.0
H1149 H 0.83239 0.81536 0.46 0.0
H1150 H 0.80615 0.84959 0.54424 0.0
H1151 H 0.82541 0.81881 0.69169 0.0
C1152 C 0.81781 0.82786 0.78769 0.0
C1153 C 0.81074 0.8377 0.81454 0.0
C1154 C 0.81193 0.8421 0.52574 0.0
C1155 C 0.81504 0.83505 0.65981 0.0
C1156 C 0.81419 0.84066 0.44886 0.0
C1157 C 0.82171 0.83107 0.42311 0.0
C1158 C 0.81717 0.83386 0.57749 0.0
C1159 C 0.82672 0.82302 0.47683 0.0
C1160 C 0.81997 0.82651 0.71079 0.0
C1161 C 0.80599 0.84606 0.7616 0.0
N1162 N 0.82436 0.82459 0.55112 0.0
N1163 N 0.80823 0.84454 0.687 0.0
H1164 H 0.41219 0.58875 0.7288 0.0
H1165 H 0.40105 0.53909 0.05343 0.0
H1166 H 0.40797 0.55001 0.68564 0.0
H1167 H 0.40801 0.57745 0.09574 0.0
H1168 H 0.40283 0.54295 0.91882 0.0
H1169 H 0.40992 0.58482 0.8627 0.0
C1170 C 0.41082 0.5794 0.74731 0.0
C1171 C 0.41037 0.56969 0.69538 0.0
C1172 C 0.40397 0.55053 0.9575 0.0
C1173 C 0.40763 0.56513 0.84977 0.0
C1174 C 0.4029 0.54835 0.03457 0.0
C1175 C 0.40433 0.55797 0.08645 0.0
C1176 C 0.40646 0.56244 0.93158 0.0
C1177 C 0.40694 0.56972 0.05823 0.0
C1178 C 0.40947 0.57717 0.82406 0.0
C1179 C 0.40829 0.5578 0.72323 0.0
N1180 N 0.40788 0.57162 0.98288 0.0
N1181 N 0.40704 0.55585 0.79843 0.0
H1182 H 0.68522 0.14445 0.93421 0.0
H1183 H 0.67409 0.17059 0.34951 0.0
H1184 H 0.66359 0.17663 0.98347 0.0
H1185 H 0.69381 0.13704 0.30416 0.0
H1186 H 0.67049 0.17307 0.21518 0.0
H1187 H 0.68908 0.14185 0.06881 0.0
C1188 C 0.68132 0.15099 0.97309 0.0
C1189 C 0.67399 0.16073 0.94714 0.0
C1190 C 0.67561 0.16516 0.2346 0.0
C1191 C 0.67832 0.15777 0.10157 0.0
C1192 C 0.67761 0.16369 0.3116 0.0
C1193 C 0.68427 0.15358 0.3388 0.0
C1194 C 0.6803 0.15646 0.18393 0.0
C1195 C 0.68876 0.14507 0.28618 0.0
C1196 C 0.68347 0.14947 0.05006 0.0
C1197 C 0.6691 0.16886 1.00059 0.0
N1198 N 0.6867 0.1467 0.21147 0.0
N1199 N 0.67135 0.1672 0.07495 0.0
H1200 H 0.91136 0.40479 0.22501 0.0
H1201 H 0.90133 0.45485 0.54866 0.0
H1202 H 0.90809 0.44361 0.18111 0.0
H1203 H 0.9072 0.41632 0.59188 0.0
H1204 H 0.90308 0.45089 0.41416 0.0
H1205 H 0.90915 0.40882 0.35884 0.0
C1206 C 0.91021 0.41418 0.2433 0.0
C1207 C 0.91 0.42387 0.19113 0.0
C1208 C 0.90399 0.4433 0.45301 0.0
C1209 C 0.90733 0.42856 0.34554 0.0
C1210 C 0.90292 0.44554 0.53005 0.0
C1211 C 0.90407 0.4359 0.5822 0.0
C1212 C 0.90618 0.43131 0.42735 0.0
C1213 C 0.90636 0.42407 0.55421 0.0
C1214 C 0.9089 0.41647 0.32005 0.0
C1215 C 0.90821 0.43583 0.21882 0.0
N1216 N 0.9073 0.42211 0.4789 0.0
N1217 N 0.90699 0.43783 0.29399 0.0
H1218 H 0.34193 0.16041 0.97318 0.0
H1219 H 0.29131 0.15364 0.29612 0.0
H1220 H 0.30297 0.16025 0.92893 0.0
H1221 H 0.33003 0.15776 0.34 0.0
H1222 H 0.29539 0.15519 0.1616 0.0
H1223 H 0.33772 0.15859 0.10696 0.0
C1224 C 0.33247 0.16004 0.99133 0.0
C1225 C 0.3228 0.16057 0.93904 0.0
C1226 C 0.303 0.15577 0.20061 0.0
C1227 C 0.31791 0.15834 0.09345 0.0
C1228 C 0.30069 0.15482 0.27761 0.0
C1229 C 0.31035 0.15552 0.32989 0.0
C1230 C 0.31508 0.15738 0.17518 0.0
C1231 C 0.32228 0.15727 0.30216 0.0
C1232 C 0.33008 0.15895 0.06807 0.0
C1233 C 0.31074 0.15977 0.96667 0.0
N1234 N 0.3243 0.1581 0.22689 0.0
N1235 N 0.30865 0.15873 0.04183 0.0
H1236 H 0.58512 0.54875 0.67637 0.0
H1237 H 0.58698 0.57703 0.092 0.0
H1238 H 0.58337 0.58755 0.72398 0.0
H1239 H 0.59222 0.53854 0.04488 0.0
H1240 H 0.58507 0.58094 0.95739 0.0
H1241 H 0.58756 0.54473 0.81073 0.0
C1242 C 0.58535 0.55644 0.71476 0.0
C1243 C 0.584 0.56853 0.6883 0.0
C1244 C 0.58665 0.57163 0.97646 0.0
C1245 C 0.58661 0.56395 0.84283 0.0
C1246 C 0.58766 0.56938 0.05352 0.0
C1247 C 0.58977 0.55743 0.08019 0.0
C1248 C 0.5877 0.56187 0.92529 0.0
C1249 C 0.59075 0.54792 0.02714 0.0
C1250 C 0.58667 0.55413 0.79167 0.0
C1251 C 0.58418 0.57808 0.74135 0.0
N1252 N 0.58968 0.55034 0.95243 0.0
N1253 N 0.58543 0.57559 0.81579 0.0
H1254 H 0.19278 0.85529 0.80457 0.0
H1255 H 0.15995 0.81584 0.48283 0.0
H1256 H 0.17163 0.82256 0.84827 0.0
H1257 H 0.18466 0.8458 0.43643 0.0
H1258 H 0.16369 0.81856 0.61687 0.0
H1259 H 0.18956 0.8523 0.6704 0.0
C1260 C 0.18752 0.84743 0.78636 0.0
C1261 C 0.18251 0.83915 0.83873 0.0
C1262 C 0.16832 0.82454 0.57748 0.0
C1263 C 0.17864 0.83578 0.68388 0.0
C1264 C 0.16613 0.82304 0.50075 0.0
C1265 C 0.17192 0.83066 0.4479 0.0
C1266 C 0.17634 0.83378 0.60221 0.0
C1267 C 0.18004 0.83966 0.4748 0.0
C1268 C 0.18564 0.84576 0.70935 0.0
C1269 C 0.17557 0.82928 0.81075 0.0
N1270 N 0.18196 0.84101 0.55 0.0
N1271 N 0.17385 0.82788 0.73549 0.0
H1272 H 0.89244 0.55842 0.87657 0.0
H1273 H 0.91854 0.56978 0.46125 0.0
H1274 H 0.92435 0.5804 0.82708 0.0
H1275 H 0.88597 0.54854 0.50682 0.0
H1276 H 0.92073 0.57369 0.59539 0.0
H1277 H 0.88998 0.5544 0.74212 0.0
C1278 C 0.89895 0.56238 0.83775 0.0
C1279 C 0.90858 0.56984 0.86372 0.0
C1280 C 0.91309 0.56817 0.57609 0.0
C1281 C 0.90577 0.5653 0.70923 0.0
C1282 C 0.91179 0.56598 0.49916 0.0
C1283 C 0.90204 0.55881 0.47202 0.0
C1284 C 0.9046 0.56316 0.62685 0.0
C1285 C 0.89372 0.55399 0.52472 0.0
C1286 C 0.8975 0.56012 0.7608 0.0
C1287 C 0.91666 0.57479 0.81015 0.0
N1288 N 0.89519 0.55625 0.59938 0.0
N1289 N 0.91507 0.57243 0.73583 0.0
H1290 H 0.18607 0.14425 0.59509 0.0
H1291 H 0.18079 0.17239 0.1808 0.0
H1292 H 0.17143 0.18019 0.54645 0.0
H1293 H 0.19083 0.13474 0.22556 0.0
H1294 H 0.17852 0.17578 0.31525 0.0
H1295 H 0.18944 0.14107 0.46065 0.0
C1296 C 0.18366 0.15151 0.55625 0.0
C1297 C 0.17839 0.16247 0.58204 0.0
C1298 C 0.18122 0.16677 0.29565 0.0
C1299 C 0.18213 0.15887 0.42819 0.0
C1300 C 0.18244 0.1648 0.21865 0.0
C1301 C 0.18595 0.15323 0.19134 0.0
C1302 C 0.18356 0.15713 0.34607 0.0
C1303 C 0.18823 0.14384 0.24373 0.0
C1304 C 0.1855 0.14966 0.47947 0.0
C1305 C 0.17532 0.17152 0.52902 0.0
N1306 N 0.18698 0.14599 0.31848 0.0
N1307 N 0.17723 0.16951 0.45473 0.0
H1308 H 0.59344 0.45143 0.98529 0.0
H1309 H 0.57795 0.40317 0.31045 0.0
H1310 H 0.58308 0.4138 0.94481 0.0
H1311 H 0.58481 0.44155 0.35309 0.0
H1312 H 0.58067 0.40683 0.17684 0.0
H1313 H 0.59128 0.44791 0.12024 0.0
C1314 C 0.59077 0.44241 1.00471 0.0
C1315 C 0.58844 0.4329 0.95338 0.0
C1316 C 0.58158 0.41447 0.2153 0.0
C1317 C 0.58587 0.42882 0.10803 0.0
C1318 C 0.57996 0.4124 0.29188 0.0
C1319 C 0.58104 0.42208 0.34354 0.0
C1320 C 0.58434 0.42633 0.18956 0.0
C1321 C 0.58397 0.43379 0.31566 0.0
C1322 C 0.58947 0.44043 0.0818 0.0
C1323 C 0.58483 0.42145 0.98195 0.0
N1324 N 0.58548 0.43559 0.24058 0.0
N1325 N 0.58368 0.41973 0.05721 0.0
H1326 H 0.32178 0.81198 0.05245 0.0
H1327 H 0.3048 0.85986 0.72797 0.0
H1328 H 0.3094 0.84887 0.09658 0.0
H1329 H 0.31246 0.82155 0.6874 0.0
H1330 H 0.30671 0.85617 0.86251 0.0
H1331 H 0.31876 0.81547 0.91836 0.0
C1332 C 0.31845 0.82083 0.03393 0.0
C1333 C 0.31592 0.83017 0.08596 0.0
C1334 C 0.30795 0.84857 0.82413 0.0
C1335 C 0.31238 0.83424 0.93198 0.0
C1336 C 0.30681 0.85065 0.74703 0.0
C1337 C 0.30847 0.84101 0.69555 0.0
C1338 C 0.31083 0.83676 0.85041 0.0
C1339 C 0.31127 0.82932 0.72433 0.0
C1340 C 0.31666 0.82281 0.95727 0.0
C1341 C 0.31139 0.84139 0.05862 0.0
N1342 N 0.31238 0.82754 0.79963 0.0
N1343 N 0.30984 0.84314 0.9835 0.0
H1344 H 0.59688 0.04004 0.9862 0.0
H1345 H 0.57902 0.0874 0.3112 0.0
H1346 H 0.58411 0.07695 0.94561 0.0
H1347 H 0.58751 0.04933 0.35401 0.0
H1348 H 0.58178 0.08385 0.17761 0.0
H1349 H 0.59448 0.04339 0.12116 0.0
C1350 C 0.59362 0.04887 1.00561 0.0
C1351 C 0.5907 0.05823 0.9543 0.0
C1352 C 0.58303 0.07625 0.2161 0.0
C1353 C 0.58788 0.06211 0.10888 0.0
C1354 C 0.58139 0.07826 0.29268 0.0
C1355 C 0.58291 0.06863 0.34438 0.0
C1356 C 0.58627 0.06452 0.19039 0.0
C1357 C 0.58631 0.05705 0.31653 0.0
C1358 C 0.59219 0.05075 0.0827 0.0
C1359 C 0.58634 0.06942 0.98279 0.0
N1360 N 0.58785 0.05531 0.24143 0.0
N1361 N 0.5851 0.07105 0.05804 0.0
H1362 H 0.20218 0.3429 0.251 0.0
H1363 H 0.15229 0.33182 0.57401 0.0
H1364 H 0.16376 0.33652 0.20722 0.0
H1365 H 0.19091 0.33665 0.61869 0.0
H1366 H 0.15628 0.33414 0.44012 0.0
H1367 H 0.19819 0.34124 0.38545 0.0
C1368 C 0.19288 0.34122 0.26944 0.0
C1369 C 0.18329 0.33989 0.2171 0.0
C1370 C 0.16389 0.33471 0.4791 0.0
C1371 C 0.17867 0.33788 0.37201 0.0
C1372 C 0.16163 0.33335 0.55584 0.0
C1373 C 0.17128 0.33396 0.60822 0.0
C1374 C 0.17592 0.33672 0.45382 0.0
C1375 C 0.18315 0.33621 0.58078 0.0
C1376 C 0.19063 0.34021 0.34648 0.0
C1377 C 0.17148 0.33749 0.24499 0.0
N1378 N 0.18514 0.33745 0.50561 0.0
N1379 N 0.16951 0.33659 0.32031 0.0
H1380 H 0.88544 0.94306 0.48603 0.0
H1381 H 0.928 0.9149 0.81033 0.0
H1382 H 0.91991 0.92474 0.44512 0.0
H1383 H 0.8939 0.93366 0.85493 0.0
H1384 H 0.92498 0.91834 0.67665 0.0
H1385 H 0.88824 0.93973 0.62053 0.0
C1386 C 0.89364 0.93839 0.50507 0.0
C1387 C 0.90247 0.93422 0.45351 0.0
C1388 C 0.91813 0.92171 0.7155 0.0
C1389 C 0.90566 0.93025 0.60838 0.0
C1390 C 0.9198 0.91967 0.7922 0.0
C1391 C 0.91113 0.92388 0.84457 0.0
C1392 C 0.90769 0.92803 0.69014 0.0
C1393 C 0.90086 0.93029 0.81702 0.0
C1394 C 0.89519 0.93643 0.58213 0.0
C1395 C 0.91277 0.92801 0.48215 0.0
N1396 N 0.89942 0.93213 0.74178 0.0
N1397 N 0.91408 0.92625 0.55742 0.0
H1398 H 0.32806 0.65819 0.68436 0.0
H1399 H 0.29926 0.65526 0.09718 0.0
H1400 H 0.29101 0.64628 0.7283 0.0
H1401 H 0.33732 0.66315 0.05124 0.0
H1402 H 0.29581 0.65222 0.96269 0.0
H1403 H 0.33132 0.6607 0.81895 0.0
C1404 C 0.32058 0.65617 0.72225 0.0
C1405 C 0.30923 0.65204 0.69488 0.0
C1406 C 0.30492 0.65461 0.98221 0.0
C1407 C 0.31294 0.65478 0.84952 0.0
C1408 C 0.30691 0.65629 0.05909 0.0
C1409 C 0.31859 0.65955 0.08585 0.0
C1410 C 0.31467 0.65622 0.9317 0.0
C1411 C 0.32811 0.66088 0.03344 0.0
C1412 C 0.32247 0.65753 0.79925 0.0
C1413 C 0.29994 0.64936 0.74694 0.0
N1414 N 0.32594 0.65924 0.95909 0.0
N1415 N 0.30199 0.65081 0.82174 0.0
H1416 H 0.58872 0.91508 0.07832 0.0
H1417 H 0.58734 0.943 0.6614 0.0
H1418 H 0.59272 0.95369 0.03007 0.0
H1419 H 0.58555 0.90424 0.71044 0.0
H1420 H 0.58943 0.94715 0.79579 0.0
H1421 H 0.58723 0.91101 0.94376 0.0
C1422 C 0.58921 0.92272 0.03962 0.0
C1423 C 0.59086 0.93476 0.06598 0.0
C1424 C 0.58861 0.93773 0.77708 0.0
C1425 C 0.58927 0.93013 0.91111 0.0
C1426 C 0.5875 0.93535 0.70016 0.0
C1427 C 0.58623 0.92324 0.67415 0.0
C1428 C 0.58844 0.92796 0.82865 0.0
C1429 C 0.58631 0.91373 0.72757 0.0
C1430 C 0.58844 0.92038 0.96258 0.0
C1431 C 0.59161 0.94425 1.01262 0.0
N1432 N 0.58737 0.91629 0.80201 0.0
N1433 N 0.59079 0.94174 0.93795 0.0
H1434 H 0.28638 0.34285 0.29656 0.0
H1435 H 0.33671 0.33464 0.97303 0.0
H1436 H 0.32507 0.33823 0.33987 0.0
H1437 H 0.2978 0.33633 0.92903 0.0
H1438 H 0.33262 0.33674 0.10683 0.0
H1439 H 0.29038 0.34127 0.16203 0.0
C1440 C 0.29574 0.34156 0.27795 0.0
C1441 C 0.3054 0.34071 0.33013 0.0
C1442 C 0.32496 0.33667 0.06802 0.0
C1443 C 0.31005 0.33881 0.17527 0.0
C1444 C 0.32728 0.33542 0.9913 0.0
C1445 C 0.31759 0.33522 0.93912 0.0
C1446 C 0.31282 0.33775 0.09348 0.0
C1447 C 0.30558 0.33654 0.96676 0.0
C1448 C 0.298 0.3406 0.20091 0.0
C1449 C 0.3173 0.33882 0.30217 0.0
N1450 N 0.30355 0.33771 0.04191 0.0
N1451 N 0.31928 0.33797 0.22685 0.0
H1452 H 0.90021 0.04034 0.54794 0.0
H1453 H 0.91171 0.09006 0.22408 0.0
H1454 H 0.90739 0.07863 0.59108 0.0
H1455 H 0.90606 0.05154 0.18014 0.0
H1456 H 0.90949 0.08611 0.35812 0.0
H1457 H 0.90172 0.04432 0.41343 0.0
C1458 C 0.90204 0.04961 0.52932 0.0
C1459 C 0.90362 0.05917 0.58144 0.0
C1460 C 0.90871 0.07851 0.31927 0.0
C1461 C 0.90546 0.06378 0.42655 0.0
C1462 C 0.91002 0.08075 0.24249 0.0
C1463 C 0.90916 0.07111 0.19035 0.0
C1464 C 0.90652 0.06652 0.34475 0.0
C1465 C 0.9067 0.05928 0.21795 0.0
C1466 C 0.90296 0.05186 0.45226 0.0
C1467 C 0.90621 0.07094 0.55341 0.0
N1468 N 0.90552 0.05731 0.29316 0.0
N1469 N 0.90702 0.07291 0.47806 0.0
H1470 H 0.16084 0.67622 0.47091 0.0
H1471 H 0.1944 0.63749 0.79387 0.0
H1472 H 0.18504 0.64577 0.42532 0.0
H1473 H 0.17265 0.66988 0.83606 0.0
H1474 H 0.19082 0.64007 0.65961 0.0
H1475 H 0.16469 0.67363 0.60479 0.0
C1476 C 0.16691 0.66892 0.48892 0.0
C1477 C 0.17254 0.66115 0.43625 0.0
C1478 C 0.18684 0.64662 0.69824 0.0
C1479 C 0.17712 0.65821 0.59064 0.0
C1480 C 0.18893 0.64519 0.77526 0.0
C1481 C 0.18386 0.65349 0.82721 0.0
C1482 C 0.17959 0.65641 0.67235 0.0
C1483 C 0.17665 0.66315 0.79884 0.0
C1484 C 0.16917 0.66751 0.56564 0.0
C1485 C 0.18054 0.65204 0.46347 0.0
N1486 N 0.17475 0.66433 0.7236 0.0
N1487 N 0.18255 0.6508 0.53867 0.0
H1488 H 0.40359 0.95199 0.04222 0.0
H1489 H 0.41166 0.90148 0.71913 0.0
H1490 H 0.40837 0.91333 0.08597 0.0
H1491 H 0.40941 0.94036 0.67468 0.0
H1492 H 0.40975 0.90564 0.85303 0.0
H1493 H 0.40502 0.9479 0.90772 0.0
C1494 C 0.40489 0.94262 0.02372 0.0
C1495 C 0.40581 0.93299 0.076 0.0
C1496 C 0.40966 0.91328 0.81409 0.0
C1497 C 0.40754 0.92824 0.92119 0.0
C1498 C 0.41079 0.91091 0.73733 0.0
C1499 C 0.41078 0.92058 0.68502 0.0
C1500 C 0.40848 0.92542 0.83942 0.0
C1501 C 0.40936 0.93259 0.71253 0.0
C1502 C 0.40576 0.94031 0.94669 0.0
C1503 C 0.40771 0.92107 0.04817 0.0
N1504 N 0.40832 0.93466 0.78771 0.0
N1505 N 0.40847 0.91904 0.97287 0.0
H1506 H 0.80121 0.63219 0.79676 0.0
H1507 H 0.82142 0.67886 0.47297 0.0
H1508 H 0.81213 0.66969 0.83769 0.0
H1509 H 0.80668 0.64287 0.42808 0.0
H1510 H 0.81833 0.67547 0.60693 0.0
H1511 H 0.80334 0.63575 0.66217 0.0
C1512 C 0.804 0.64119 0.77775 0.0
C1513 C 0.8065 0.65064 0.82929 0.0
C1514 C 0.81573 0.66831 0.5679 0.0
C1515 C 0.80909 0.65473 0.67451 0.0
C1516 C 0.81755 0.67022 0.49129 0.0
C1517 C 0.81438 0.6611 0.43907 0.0
C1518 C 0.81075 0.65716 0.59298 0.0
C1519 C 0.80918 0.65018 0.46619 0.0
C1520 C 0.80526 0.6432 0.70065 0.0
C1521 C 0.81027 0.66205 0.80067 0.0
N1522 N 0.80759 0.64848 0.54129 0.0
N1523 N 0.81145 0.66376 0.72541 0.0
H1524 H 0.07285 0.07149 0.57996 0.0
H1525 H 0.09901 0.05964 0.16548 0.0
H1526 H 0.1052 0.04985 0.53509 0.0
H1527 H 0.06791 0.08283 0.21403 0.0
H1528 H 0.10121 0.05548 0.29995 0.0
H1529 H 0.07081 0.0755 0.44575 0.0
C1530 C 0.07958 0.06763 0.5422 0.0
C1531 C 0.08923 0.06031 0.56954 0.0
C1532 C 0.09392 0.0615 0.28108 0.0
C1533 C 0.08685 0.06477 0.41474 0.0
C1534 C 0.09262 0.06384 0.20413 0.0
C1535 C 0.08329 0.07166 0.17794 0.0
C1536 C 0.0858 0.06698 0.3324 0.0
C1537 C 0.07537 0.07691 0.23124 0.0
C1538 C 0.07837 0.06987 0.46525 0.0
C1539 C 0.09753 0.05541 0.51705 0.0
N1540 N 0.0768 0.07447 0.30559 0.0
N1541 N 0.09615 0.05772 0.44241 0.0
H1542 H 0.69304 0.33367 0.94567 0.0
H1543 H 0.66421 0.33559 0.35946 0.0
H1544 H 0.65422 0.33157 0.99155 0.0
H1545 H 0.70253 0.34211 0.31422 0.0
H1546 H 0.66057 0.33329 0.22482 0.0
H1547 H 0.69687 0.33636 0.08012 0.0
C1548 C 0.68531 0.33385 0.98367 0.0
C1549 C 0.67328 0.33232 0.9567 0.0
C1550 C 0.66978 0.33524 0.24429 0.0
C1551 C 0.67763 0.33524 0.11122 0.0
C1552 C 0.67188 0.33647 0.32136 0.0
C1553 C 0.68369 0.33906 0.34851 0.0
C1554 C 0.67957 0.33653 0.19364 0.0
C1555 C 0.69324 0.34027 0.296 0.0
C1556 C 0.68751 0.33533 0.06061 0.0
C1557 C 0.66366 0.33249 1.00925 0.0
N1558 N 0.69098 0.33897 0.22126 0.0
N1559 N 0.66605 0.33389 0.08367 0.0
H1560 H 0.39353 0.05715 0.34589 0.0
H1561 H 0.42181 0.06262 0.93261 0.0
H1562 H 0.42915 0.07249 0.29812 0.0
H1563 H 0.38437 0.05183 0.97594 0.0
H1564 H 0.42504 0.06507 0.06712 0.0
H1565 H 0.39049 0.05359 0.2114 0.0
C1566 C 0.40075 0.05968 0.30723 0.0
C1567 C 0.41158 0.06519 0.33327 0.0
C1568 C 0.41611 0.06217 0.0472 0.0
C1569 C 0.40815 0.06124 0.1794 0.0
C1570 C 0.41423 0.06084 0.97016 0.0
C1571 C 0.40276 0.05707 0.94243 0.0
C1572 C 0.40649 0.05968 0.09726 0.0
C1573 C 0.39339 0.05464 0.99446 0.0
C1574 C 0.39898 0.05772 0.23043 0.0
C1575 C 0.42058 0.0684 0.2805 0.0
N1576 N 0.39546 0.056 0.06927 0.0
N1577 N 0.41866 0.06639 0.2062 0.0
H1578 H 0.69026 0.65784 0.10299 0.0
H1579 H 0.66227 0.65847 0.68587 0.0
H1580 H 0.65185 0.66313 0.05348 0.0
H1581 H 0.70053 0.65194 0.73436 0.0
H1582 H 0.65834 0.66031 0.82034 0.0
H1583 H 0.69422 0.65535 0.96866 0.0
C1584 C 0.68263 0.65836 0.06413 0.0
C1585 C 0.67069 0.66073 0.08998 0.0
C1586 C 0.6676 0.65846 0.80159 0.0
C1587 C 0.6752 0.65806 0.93555 0.0
C1588 C 0.66987 0.65749 0.72457 0.0
C1589 C 0.68176 0.65504 0.69825 0.0
C1590 C 0.67729 0.65701 0.85311 0.0
C1591 C 0.69119 0.65368 0.75169 0.0
C1592 C 0.68492 0.65703 0.98725 0.0
C1593 C 0.66122 0.6615 0.03645 0.0
N1594 N 0.68876 0.6547 0.82634 0.0
N1595 N 0.66368 0.66019 0.96206 0.0
H1596 H 0.08253 0.91662 0.43409 0.0
H1597 H 0.08775 0.94547 0.84633 0.0
H1598 H 0.09812 0.95231 0.47763 0.0
H1599 H 0.07634 0.90827 0.80076 0.0
H1600 H 0.09126 0.94847 0.71187 0.0
H1601 H 0.07951 0.9138 0.56861 0.0
C1602 C 0.08526 0.9239 0.47188 0.0
C1603 C 0.09057 0.93473 0.44441 0.0
C1604 C 0.08799 0.93966 0.73149 0.0
C1605 C 0.08724 0.93152 0.59899 0.0
C1606 C 0.08604 0.93792 0.80834 0.0
C1607 C 0.08166 0.92662 0.8352 0.0
C1608 C 0.08553 0.93004 0.68113 0.0
C1609 C 0.07949 0.91721 0.78292 0.0
C1610 C 0.08361 0.92225 0.54884 0.0
C1611 C 0.09411 0.94376 0.49635 0.0
N1612 N 0.08142 0.91914 0.70863 0.0
N1613 N 0.09235 0.94198 0.57112 0.0
H1614 H 0.8006 0.33667 0.58746 0.0
H1615 H 0.82912 0.338 0.17242 0.0
H1616 H 0.83926 0.3331 0.54026 0.0
H1617 H 0.79071 0.34386 0.21853 0.0
H1618 H 0.83291 0.33589 0.30703 0.0
H1619 H 0.79672 0.3394 0.45306 0.0
C1620 C 0.80829 0.33655 0.54914 0.0
C1621 C 0.82029 0.33459 0.57572 0.0
C1622 C 0.82364 0.33765 0.28775 0.0
C1623 C 0.81587 0.33756 0.42117 0.0
C1624 C 0.82146 0.33879 0.21065 0.0
C1625 C 0.80957 0.34112 0.18363 0.0
C1626 C 0.81387 0.33881 0.33867 0.0
C1627 C 0.80005 0.34222 0.23647 0.0
C1628 C 0.80606 0.33804 0.47221 0.0
C1629 C 0.82985 0.33437 0.52279 0.0
N1630 N 0.8024 0.34103 0.31122 0.0
N1631 N 0.82743 0.3358 0.44836 0.0
H1632 H 0.16741 0.61856 0.14925 0.0
H1633 H 0.09571 0.60398 0.15788 0.0
H1634 H 0.13968 0.64578 0.10162 0.0
H1635 H 0.12306 0.57585 0.12503 0.0
H1636 H 0.11185 0.61955 0.15174 0.0
H1637 H 0.15138 0.60281 0.1539 0.0
C1638 C 0.15796 0.62121 0.1396 0.0
C1639 C 0.15486 0.63348 0.12486 0.0
C1640 C 0.11431 0.60997 0.14579 0.0
C1641 C 0.13652 0.61558 0.13101 0.0
C1642 C 0.10512 0.60108 0.14964 0.0
C1643 C 0.10807 0.58862 0.14185 0.0
C1644 C 0.12655 0.60636 0.13511 0.0
C1645 C 0.1204 0.58538 0.13103 0.0
C1646 C 0.14883 0.61223 0.14212 0.0
C1647 C 0.14248 0.63641 0.11277 0.0
N1648 N 0.12921 0.59419 0.12832 0.0
N1649 N 0.13374 0.62754 0.11661 0.0
H1650 H 0.62723 0.91963 0.38596 0.0
H1651 H 0.64294 0.84823 0.39997 0.0
H1652 H 0.60082 0.89128 0.33584 0.0
H1653 H 0.67094 0.87569 0.367 0.0
H1654 H 0.62728 0.8642 0.39014 0.0
H1655 H 0.64339 0.90394 0.39126 0.0
C1656 C 0.62485 0.91012 0.37577 0.0
C1657 C 0.61268 0.90674 0.3604 0.0
C1658 C 0.63685 0.86673 0.38489 0.0
C1659 C 0.63102 0.88881 0.36737 0.0
C1660 C 0.64579 0.85764 0.39087 0.0
C1661 C 0.65825 0.86065 0.38424 0.0
C1662 C 0.64037 0.87898 0.37323 0.0
C1663 C 0.66142 0.87298 0.37219 0.0
C1664 C 0.63406 0.9012 0.37869 0.0
C1665 C 0.61009 0.8943 0.34763 0.0
N1666 N 0.65253 0.88173 0.36747 0.0
N1667 N 0.61916 0.88578 0.35197 0.0
H1668 H 0.32778 0.36904 0.73864 0.0
H1669 H 0.3731 0.41302 0.53101 0.0
H1670 H 0.34145 0.35803 0.52186 0.0
H1671 H 0.38326 0.39943 0.74991 0.0
H1672 H 0.35651 0.39768 0.52586 0.0
H1673 H 0.34345 0.3853 0.74312 0.0
C1674 C 0.33399 0.37017 0.6917 0.0
C1675 C 0.33342 0.36225 0.62983 0.0
C1676 C 0.36235 0.39819 0.57507 0.0
C1677 C 0.35094 0.38082 0.63394 0.0
C1678 C 0.3717 0.40692 0.57829 0.0
C1679 C 0.37948 0.4074 0.64098 0.0
C1680 C 0.36057 0.39025 0.63603 0.0
C1681 C 0.37744 0.39926 0.70059 0.0
C1682 C 0.34289 0.37935 0.69452 0.0
C1683 C 0.34169 0.36396 0.57061 0.0
N1684 N 0.36806 0.39106 0.69707 0.0
N1685 N 0.35008 0.37318 0.57369 0.0
H1686 H 0.89578 0.10337 0.85617 0.0
H1687 H 0.82457 0.11985 0.87286 0.0
H1688 H 0.8682 0.07595 0.90123 0.0
H1689 H 0.85327 0.14625 0.91489 0.0
H1690 H 0.84012 0.10357 0.86761 0.0
H1691 H 0.87994 0.11922 0.8605 0.0
C1692 C 0.88637 0.10068 0.86657 0.0
C1693 C 0.88329 0.08834 0.87847 0.0
C1694 C 0.84298 0.11293 0.87822 0.0
C1695 C 0.86512 0.10643 0.88332 0.0
C1696 C 0.83414 0.12221 0.88105 0.0
C1697 C 0.83766 0.1344 0.89446 0.0
C1698 C 0.85542 0.11592 0.8876 0.0
C1699 C 0.85016 0.13697 0.90476 0.0
C1700 C 0.87735 0.10973 0.86943 0.0
C1701 C 0.87096 0.08537 0.892 0.0
N1702 N 0.85859 0.12782 0.90062 0.0
N1703 N 0.86229 0.09436 0.89379 0.0
H1704 H 0.147 0.35706 0.02119 0.0
H1705 H 0.10656 0.39924 0.77147 0.0
H1706 H 0.161 0.36738 0.80391 0.0
H1707 H 0.1165 0.41243 0.99151 0.0
H1708 H 0.12281 0.38357 0.78128 0.0
H1709 H 0.13175 0.37371 1.01182 0.0
C1710 C 0.14683 0.36284 0.97168 0.0
C1711 C 0.15524 0.36098 0.91339 0.0
C1712 C 0.1214 0.38995 0.82708 0.0
C1713 C 0.13779 0.37956 0.90156 0.0
C1714 C 0.11218 0.39881 0.82167 0.0
C1715 C 0.11034 0.40711 0.8806 0.0
C1716 C 0.12843 0.38917 0.89293 0.0
C1717 C 0.11778 0.40624 0.94467 0.0
C1718 C 0.13822 0.37229 0.96654 0.0
C1719 C 0.15471 0.36865 0.85023 0.0
N1720 N 0.12642 0.39727 0.94974 0.0
N1721 N 0.14598 0.37753 0.84537 0.0
H1722 H 0.86829 0.91828 0.12435 0.0
H1723 H 0.85447 0.8466 0.09286 0.0
H1724 H 0.89563 0.89044 0.16654 0.0
H1725 H 0.82606 0.87324 0.13659 0.0
H1726 H 0.86982 0.86291 0.10229 0.0
H1727 H 0.85271 0.90215 0.11291 0.0
C1728 C 0.871 0.90878 0.13137 0.0
C1729 C 0.88324 0.90567 0.14663 0.0
C1730 C 0.86022 0.86518 0.10972 0.0
C1731 C 0.86557 0.88725 0.13258 0.0
C1732 C 0.85146 0.8559 0.1039 0.0
C1733 C 0.83899 0.85859 0.11407 0.0
C1734 C 0.85647 0.87725 0.12482 0.0
C1735 C 0.83559 0.87078 0.12863 0.0
C1736 C 0.86212 0.8996 0.12494 0.0
C1737 C 0.88627 0.89323 0.15517 0.0
N1738 N 0.84429 0.87969 0.13335 0.0
N1739 N 0.87751 0.88446 0.14754 0.0
H1740 H 0.32491 0.61744 0.37767 0.0
H1741 H 0.39651 0.60238 0.36065 0.0
H1742 H 0.35297 0.64488 0.4097 0.0
H1743 H 0.36924 0.57474 0.40754 0.0
H1744 H 0.38045 0.61806 0.36357 0.0
H1745 H 0.34085 0.60158 0.37464 0.0
C1746 C 0.33442 0.62012 0.38413 0.0
C1747 C 0.33763 0.63248 0.39407 0.0
C1748 C 0.37799 0.60856 0.37324 0.0
C1749 C 0.35588 0.61444 0.38986 0.0
C1750 C 0.38713 0.5996 0.37121 0.0
C1751 C 0.3842 0.58725 0.38393 0.0
C1752 C 0.36579 0.60512 0.38712 0.0
C1753 C 0.3719 0.58417 0.39766 0.0
C1754 C 0.3435 0.61107 0.38257 0.0
C1755 C 0.35009 0.63545 0.40224 0.0
N1756 N 0.36313 0.59305 0.39859 0.0
N1757 N 0.35877 0.6265 0.39951 0.0
H1758 H 0.59732 0.1026 0.66957 0.0
H1759 H 0.66876 0.11844 0.66192 0.0
H1760 H 0.62515 0.07499 0.63502 0.0
H1761 H 0.64054 0.14525 0.61682 0.0
H1762 H 0.65302 0.1024 0.66605 0.0
H1763 H 0.6132 0.11844 0.66523 0.0
C1764 C 0.60679 0.09987 0.6614 0.0
C1765 C 0.60994 0.08747 0.65257 0.0
C1766 C 0.6503 0.11179 0.65499 0.0
C1767 C 0.62813 0.10554 0.64778 0.0
C1768 C 0.65926 0.12094 0.65279 0.0
C1769 C 0.65594 0.13318 0.63887 0.0
C1770 C 0.63792 0.11495 0.64434 0.0
C1771 C 0.6435 0.13592 0.62738 0.0
C1772 C 0.61582 0.10892 0.65855 0.0
C1773 C 0.62233 0.08446 0.64184 0.0
N1774 N 0.63493 0.12689 0.63083 0.0
N1775 N 0.63099 0.09343 0.64005 0.0
H1776 H 0.83206 0.36877 0.7719 0.0
H1777 H 0.87607 0.41287 0.98896 0.0
H1778 H 0.84448 0.35816 0.99259 0.0
H1779 H 0.88755 0.39969 0.77195 0.0
H1780 H 0.85973 0.39728 0.9902 0.0
H1781 H 0.84795 0.38487 0.76935 0.0
C1782 C 0.83804 0.36996 0.82002 0.0
C1783 C 0.83705 0.36221 0.88256 0.0
C1784 C 0.86582 0.3979 0.94232 0.0
C1785 C 0.85482 0.38056 0.88054 0.0
C1786 C 0.87505 0.40676 0.94137 0.0
C1787 C 0.88311 0.40747 0.88032 0.0
C1788 C 0.86443 0.39004 0.88069 0.0
C1789 C 0.88152 0.39933 0.82014 0.0
C1790 C 0.84709 0.37903 0.81828 0.0
C1791 C 0.84504 0.36397 0.94334 0.0
N1792 N 0.87223 0.391 0.82135 0.0
N1793 N 0.85354 0.37308 0.94127 0.0
H1794 H 0.36804 0.07406 0.61733 0.0
H1795 H 0.35469 0.14609 0.59767 0.0
H1796 H 0.39604 0.10157 0.64928 0.0
H1797 H 0.32643 0.11948 0.645 0.0
H1798 H 0.36994 0.1296 0.5993 0.0
H1799 H 0.35256 0.09038 0.61138 0.0
C1800 C 0.37092 0.08353 0.62305 0.0
C1801 C 0.38332 0.08648 0.63403 0.0
C1802 C 0.3604 0.12738 0.60923 0.0
C1803 C 0.36574 0.10514 0.62648 0.0
C1804 C 0.35169 0.13677 0.60793 0.0
C1805 C 0.33929 0.13414 0.62138 0.0
C1806 C 0.35666 0.11525 0.62315 0.0
C1807 C 0.33591 0.1219 0.63465 0.0
C1808 C 0.36209 0.09282 0.61982 0.0
C1809 C 0.38657 0.09889 0.64115 0.0
N1810 N 0.34455 0.11289 0.63501 0.0
N1811 N 0.37783 0.10777 0.63688 0.0
H1812 H 0.62506 0.57391 0.40049 0.0
H1813 H 0.6382 0.64581 0.42099 0.0
H1814 H 0.59741 0.60137 0.35669 0.0
H1815 H 0.66687 0.61941 0.37792 0.0
H1816 H 0.62306 0.62929 0.41438 0.0
H1817 H 0.64056 0.5902 0.40743 0.0
C1818 C 0.62227 0.58335 0.39211 0.0
C1819 C 0.60996 0.58631 0.3778 0.0
C1820 C 0.63266 0.62712 0.40641 0.0
C1821 C 0.62753 0.60492 0.38676 0.0
C1822 C 0.64131 0.63652 0.4106 0.0
C1823 C 0.65379 0.63396 0.39987 0.0
C1824 C 0.63654 0.61504 0.3924 0.0
C1825 C 0.65732 0.62177 0.38626 0.0
C1826 C 0.6311 0.59262 0.39598 0.0
C1827 C 0.60681 0.59869 0.36743 0.0
N1828 N 0.64873 0.61274 0.38318 0.0
N1829 N 0.61553 0.60755 0.37264 0.0
H1830 H 0.138 0.84659 0.11097 0.0
H1831 H 0.12396 0.9185 0.12068 0.0
H1832 H 0.16574 0.87378 0.15787 0.0
H1833 H 0.09592 0.89106 0.15277 0.0
H1834 H 0.13946 0.90224 0.11878 0.0
H1835 H 0.12244 0.86283 0.11048 0.0
C1836 C 0.14082 0.85598 0.12086 0.0
C1837 C 0.15316 0.85885 0.13457 0.0
C1838 C 0.12992 0.89979 0.12634 0.0
C1839 C 0.13547 0.87744 0.1337 0.0
C1840 C 0.12107 0.90905 0.12719 0.0
C1841 C 0.10865 0.90611 0.13706 0.0
C1842 C 0.1263 0.88749 0.13436 0.0
C1843 C 0.1054 0.89372 0.14537 0.0
C1844 C 0.13194 0.86523 0.1209 0.0
C1845 C 0.15631 0.87116 0.14733 0.0
N1846 N 0.11418 0.88485 0.14349 0.0
N1847 N 0.14753 0.88002 0.14628 0.0
H1848 H 0.88466 0.59414 0.2799 0.0
H1849 H 0.84344 0.63625 0.03696 0.0
H1850 H 0.87424 0.58098 0.06061 0.0
H1851 H 0.82892 0.62467 0.25054 0.0
H1852 H 0.85903 0.61992 0.04559 0.0
H1853 H 0.8681 0.60953 0.27268 0.0
C1854 C 0.87887 0.59452 0.23042 0.0
C1855 C 0.88068 0.58632 0.1709 0.0
C1856 C 0.85239 0.62101 0.09032 0.0
C1857 C 0.86223 0.60393 0.16154 0.0
C1858 C 0.84359 0.63029 0.08566 0.0
C1859 C 0.83493 0.63169 0.14304 0.0
C1860 C 0.85275 0.61345 0.15398 0.0
C1861 C 0.83543 0.62376 0.20501 0.0
C1862 C 0.86947 0.60321 0.22651 0.0
C1863 C 0.873 0.58711 0.10784 0.0
N1864 N 0.84433 0.61504 0.2095 0.0
N1865 N 0.86419 0.59593 0.10418 0.0
H1866 H 0.16989 0.11864 0.86436 0.0
H1867 H 0.0983 0.10398 0.83829 0.0
H1868 H 0.14178 0.1461 0.89439 0.0
H1869 H 0.12522 0.07612 0.88903 0.0
H1870 H 0.11447 0.11949 0.84192 0.0
H1871 H 0.15392 0.10283 0.85773 0.0
C1872 C 0.16036 0.12134 0.8695 0.0
C1873 C 0.15713 0.13368 0.88007 0.0
C1874 C 0.11684 0.10998 0.8522 0.0
C1875 C 0.13889 0.11572 0.8718 0.0
C1876 C 0.10763 0.10112 0.84975 0.0
C1877 C 0.11043 0.08875 0.86349 0.0
C1878 C 0.12897 0.10645 0.86759 0.0
C1879 C 0.12268 0.08556 0.87835 0.0
C1880 C 0.15128 0.11232 0.86591 0.0
C1881 C 0.14466 0.13668 0.88652 0.0
N1882 N 0.13152 0.09436 0.87979 0.0
N1883 N 0.13599 0.12776 0.88188 0.0
H1884 H 0.62315 0.41736 0.63789 0.0
H1885 H 0.63965 0.34606 0.6232 0.0
H1886 H 0.59632 0.38876 0.67079 0.0
H1887 H 0.66676 0.37387 0.67049 0.0
H1888 H 0.62368 0.36182 0.6259 0.0
H1889 H 0.63935 0.40174 0.63619 0.0
C1890 C 0.62067 0.4078 0.64484 0.0
C1891 C 0.60838 0.40433 0.65459 0.0
C1892 C 0.63312 0.36447 0.63574 0.0
C1893 C 0.62681 0.38647 0.65189 0.0
C1894 C 0.64224 0.3555 0.63384 0.0
C1895 C 0.65454 0.35868 0.64667 0.0
C1896 C 0.63632 0.37675 0.64959 0.0
C1897 C 0.65738 0.37103 0.66051 0.0
C1898 C 0.62992 0.39891 0.64404 0.0
C1899 C 0.60568 0.39183 0.66344 0.0
N1900 N 0.64833 0.37964 0.66128 0.0
N1901 N 0.61481 0.38334 0.66139 0.0
H1902 H 0.36966 0.91729 0.39277 0.0
H1903 H 0.35295 0.84604 0.40058 0.0
H1904 H 0.39613 0.88879 0.34744 0.0
H1905 H 0.3257 0.87423 0.36563 0.0
H1906 H 0.36901 0.8617 0.39439 0.0
H1907 H 0.35343 0.90173 0.39528 0.0
C1908 C 0.37204 0.90776 0.38313 0.0
C1909 C 0.38424 0.90431 0.36976 0.0
C1910 C 0.35952 0.86445 0.38791 0.0
C1911 C 0.36579 0.8865 0.37346 0.0
C1912 C 0.35035 0.85553 0.39176 0.0
C1913 C 0.33799 0.85886 0.38353 0.0
C1914 C 0.35628 0.8768 0.37682 0.0
C1915 C 0.33513 0.87128 0.37198 0.0
C1916 C 0.36278 0.89891 0.38443 0.0
C1917 C 0.38683 0.89185 0.35762 0.0
N1918 N 0.34421 0.87982 0.36937 0.0
N1919 N 0.3777 0.88338 0.36028 0.0
H1920 H 0.09055 0.46994 0.90937 0.0
H1921 H 0.06718 0.51825 0.21404 0.0
H1922 H 0.06093 0.46305 0.06436 0.0
H1923 H 0.08959 0.52892 0.02536 0.0
H1924 H 0.06626 0.49747 0.16469 0.0
H1925 H 0.09167 0.49114 0.9552 0.0
C1926 C 0.08428 0.47288 0.95292 0.0
C1927 C 0.07563 0.46471 0.98316 0.0
C1928 C 0.07137 0.50434 0.13389 0.0
C1929 C 0.07693 0.48885 0.03593 0.0
C1930 C 0.07194 0.51623 0.16221 0.0
C1931 C 0.07848 0.52536 0.12378 0.0
C1932 C 0.07746 0.50147 0.06682 0.0
C1933 C 0.08444 0.52216 0.05674 0.0
C1934 C 0.08491 0.48497 0.97885 0.0
C1935 C 0.06772 0.46902 0.03927 0.0
N1936 N 0.08382 0.51045 0.03043 0.0
N1937 N 0.0686 0.48076 0.06402 0.0
H1938 H 0.7286 0.81987 0.46916 0.0
H1939 H 0.77595 0.83968 0.14954 0.0
H1940 H 0.71756 0.84071 0.27405 0.0
H1941 H 0.78311 0.81136 0.3136 0.0
H1942 H 0.75503 0.84164 0.19863 0.0
H1943 H 0.74922 0.81828 0.41785 0.0
C1944 C 0.73051 0.82416 0.41556 0.0
C1945 C 0.72131 0.83043 0.37582 0.0
C1946 C 0.76119 0.83498 0.22359 0.0
C1947 C 0.745 0.82863 0.31663 0.0
C1948 C 0.77313 0.83387 0.19575 0.0
C1949 C 0.78129 0.82534 0.22751 0.0
C1950 C 0.75747 0.82761 0.28409 0.0
C1951 C 0.77714 0.81803 0.28716 0.0
C1952 C 0.7423 0.8232 0.38614 0.0
C1953 C 0.72437 0.83577 0.30652 0.0
N1954 N 0.76555 0.81938 0.31368 0.0
N1955 N 0.73597 0.83477 0.27914 0.0
H1956 H 0.42341 0.52891 0.60036 0.0
H1957 H 0.42244 0.46234 0.42694 0.0
H1958 H 0.41024 0.52305 0.3747 0.0
H1959 H 0.4107 0.46854 0.65493 0.0
H1960 H 0.42227 0.48466 0.40568 0.0
H1961 H 0.42301 0.50661 0.62133 0.0
C1962 C 0.42045 0.52291 0.55534 0.0
C1963 C 0.4168 0.52775 0.48589 0.0
C1964 C 0.41974 0.48108 0.46022 0.0
C1965 C 0.4166 0.50242 0.5088 0.0
C1966 C 0.41989 0.46841 0.47247 0.0
C1967 C 0.41655 0.46366 0.54265 0.0
C1968 C 0.41657 0.48899 0.51926 0.0
C1969 C 0.41325 0.47188 0.59984 0.0
C1970 C 0.42018 0.51025 0.56739 0.0
C1971 C 0.41301 0.51964 0.42928 0.0
N1972 N 0.41348 0.48417 0.58717 0.0
N1973 N 0.41315 0.50732 0.44165 0.0
H1974 H 0.77463 0.16202 0.91225 0.0
H1975 H 0.71969 0.15969 0.62377 0.0
H1976 H 0.77976 0.17398 0.68357 0.0
H1977 H 0.71419 0.17357 0.84794 0.0
H1978 H 0.74197 0.15996 0.64551 0.0
H1979 H 0.75238 0.16132 0.89036 0.0
C1980 C 0.77106 0.16441 0.85735 0.0
C1981 C 0.77896 0.1681 0.79955 0.0
C1982 C 0.73584 0.1629 0.6898 0.0
C1983 C 0.75373 0.16708 0.7741 0.0
C1984 C 0.72318 0.16268 0.67773 0.0
C1985 C 0.71517 0.16663 0.73425 0.0
C1986 C 0.74042 0.16676 0.75951 0.0
C1987 C 0.72012 0.17052 0.80294 0.0
C1988 C 0.75842 0.16407 0.84514 0.0
C1989 C 0.77391 0.17118 0.72958 0.0
N1990 N 0.73246 0.17037 0.81402 0.0
N1991 N 0.76159 0.17049 0.71845 0.0
H1992 H 0.91033 0.47081 0.87492 0.0
H1993 H 0.90927 0.52331 0.17978 0.0
H1994 H 0.92322 0.46379 0.10003 0.0
H1995 H 0.92192 0.53069 0.95494 0.0
H1996 H 0.90953 0.50122 0.15161 0.0
H1997 H 0.90972 0.49287 0.90348 0.0
C1998 C 0.91294 0.47393 0.93045 0.0
C1999 C 0.91687 0.46555 0.98527 0.0
C2000 C 0.91221 0.50772 0.10862 0.0
C2001 C 0.91596 0.49055 0.01834 0.0
C2002 C 0.912 0.52027 0.12439 0.0
C2003 C 0.91561 0.52876 0.06951 0.0
C2004 C 0.9157 0.50373 0.03693 0.0
C2005 C 0.91916 0.52439 0.99878 0.0
C2006 C 0.91265 0.48646 0.94646 0.0
C2007 C 0.92023 0.47001 0.05621 0.0
N2008 N 0.919 0.51215 0.98416 0.0
N2009 N 0.91958 0.48224 0.07108 0.0
H2010 H 0.2169 0.15258 0.76947 0.0
H2011 H 0.28349 0.18186 0.8276 0.0
H2012 H 0.22754 0.17392 0.96316 0.0
H2013 H 0.2763 0.15352 0.66407 0.0
H2014 H 0.26237 0.18023 0.87093 0.0
H2015 H 0.23806 0.15384 0.7233 0.0
C2016 C 0.22367 0.1575 0.80231 0.0
C2017 C 0.22044 0.16315 0.87032 0.0
C2018 C 0.2654 0.17434 0.82561 0.0
C2019 C 0.24456 0.16469 0.81767 0.0
C2020 C 0.27746 0.1753 0.80061 0.0
C2021 C 0.28167 0.16781 0.74214 0.0
C2022 C 0.25742 0.16589 0.7916 0.0
C2023 C 0.27343 0.15944 0.70953 0.0
C2024 C 0.23574 0.1582 0.77599 0.0
C2025 C 0.22958 0.16941 0.91053 0.0
N2026 N 0.26167 0.15873 0.73457 0.0
N2027 N 0.24119 0.17004 0.88347 0.0
H2028 H 0.5647 0.47354 0.70754 0.0
H2029 H 0.59136 0.52246 0.41559 0.0
H2030 H 0.58919 0.46325 0.52802 0.0
H2031 H 0.5617 0.52967 0.56976 0.0
H2032 H 0.59181 0.50107 0.45901 0.0
H2033 H 0.56463 0.49449 0.66095 0.0
C2034 C 0.57008 0.47568 0.65819 0.0
C2035 C 0.57697 0.4666 0.62166 0.0
C2036 C 0.5852 0.50735 0.48307 0.0
C2037 C 0.57694 0.49073 0.56781 0.0
C2038 C 0.58496 0.51956 0.45854 0.0
C2039 C 0.57647 0.52786 0.48908 0.0
C2040 C 0.57697 0.5035 0.53891 0.0
C2041 C 0.56838 0.5236 0.54438 0.0
C2042 C 0.57001 0.48768 0.63147 0.0
C2043 C 0.58374 0.46996 0.55784 0.0
N2044 N 0.56886 0.51175 0.56756 0.0
N2045 N 0.58359 0.48179 0.53298 0.0
H2046 H 0.27922 0.8248 0.26158 0.0
H2047 H 0.21041 0.84608 0.27393 0.0
H2048 H 0.2649 0.84028 0.46621 0.0
H2049 H 0.21868 0.80882 0.21012 0.0
H2050 H 0.23179 0.8486 0.3164 0.0
H2051 H 0.25813 0.82336 0.21223 0.0
C2052 C 0.27164 0.82805 0.2955 0.0
C2053 C 0.2737 0.83263 0.36797 0.0
C2054 C 0.22888 0.83993 0.29257 0.0
C2055 C 0.24987 0.83128 0.31165 0.0
C2056 C 0.21678 0.8385 0.26826 0.0
C2057 C 0.21287 0.82722 0.23903 0.0
C2058 C 0.23714 0.83015 0.28497 0.0
C2059 C 0.22139 0.81762 0.233 0.0
C2060 C 0.25969 0.82716 0.26761 0.0
C2061 C 0.26362 0.83664 0.41019 0.0
N2062 N 0.23321 0.81933 0.25515 0.0
N2063 N 0.2521 0.83598 0.38112 0.0
H2064 H 0.59212 0.96939 0.40226 0.0
H2065 H 0.56906 0.01683 0.71378 0.0
H2066 H 0.56406 0.96146 0.56598 0.0
H2067 H 0.59127 0.02799 0.52526 0.0
H2068 H 0.56842 0.9961 0.6638 0.0
H2069 H 0.59312 0.99052 0.44943 0.0
C2070 C 0.58617 0.97208 0.44802 0.0
C2071 C 0.57798 0.96364 0.4802 0.0
C2072 C 0.57343 0.00306 0.63315 0.0
C2073 C 0.57913 0.98772 0.53448 0.0
C2074 C 0.57383 0.01493 0.66181 0.0
C2075 C 0.58023 0.02419 0.62365 0.0
C2076 C 0.57953 0.00032 0.56587 0.0
C2077 C 0.58622 0.02113 0.55648 0.0
C2078 C 0.58673 0.98414 0.47475 0.0
C2079 C 0.57048 0.96764 0.53922 0.0
N2080 N 0.58575 0.00943 0.52972 0.0
N2081 N 0.57127 0.97935 0.56454 0.0
H2082 H 0.21817 0.33258 0.92531 0.0
H2083 H 0.27078 0.33357 0.62202 0.0
H2084 H 0.21111 0.32059 0.69852 0.0
H2085 H 0.27797 0.32041 0.84632 0.0
H2086 H 0.24871 0.33348 0.64964 0.0
H2087 H 0.24025 0.33278 0.89784 0.0
C2088 C 0.22128 0.33007 0.86966 0.0
C2089 C 0.21289 0.32653 0.81401 0.0
C2090 C 0.25515 0.33063 0.69263 0.0
C2091 C 0.23792 0.32696 0.78224 0.0
C2092 C 0.2677 0.33074 0.67718 0.0
C2093 C 0.27613 0.32696 0.73206 0.0
C2094 C 0.2511 0.32706 0.76404 0.0
C2095 C 0.27171 0.32331 0.80247 0.0
C2096 C 0.23383 0.33012 0.85428 0.0
C2097 C 0.21735 0.32329 0.74296 0.0
N2098 N 0.25946 0.32357 0.81683 0.0
N2099 N 0.22959 0.3237 0.72874 0.0
H2100 H 0.90855 0.96997 0.16633 0.0
H2101 H 0.90943 0.02432 0.872 0.0
H2102 H 0.92191 0.96432 0.94118 0.0
H2103 H 0.92103 0.03023 0.10083 0.0
H2104 H 0.90894 0.00212 0.8961 0.0
H2105 H 0.90808 0.9922 0.14269 0.0
C2106 C 0.91127 0.97342 0.11178 0.0
C2107 C 0.91531 0.96537 0.05555 0.0
C2108 C 0.91155 0.00832 0.94091 0.0
C2109 C 0.91458 0.99057 0.02811 0.0
C2110 C 0.91177 0.02093 0.92744 0.0
C2111 C 0.91533 0.02905 0.98457 0.0
C2112 C 0.91457 0.00387 1.01249 0.0
C2113 C 0.91834 0.02423 0.05527 0.0
C2114 C 0.91107 0.98605 0.09859 0.0
C2115 C 0.91882 0.97027 0.98602 0.0
N2116 N 0.91779 0.01192 0.06755 0.0
N2117 N 0.91827 0.98257 0.97393 0.0
H2118 H 0.27809 0.65119 0.26898 0.0
H2119 H 0.21186 0.68188 0.31541 0.0
H2120 H 0.26767 0.6747 0.45324 0.0
H2121 H 0.21842 0.65178 0.16311 0.0
H2122 H 0.23302 0.68048 0.35818 0.0
H2123 H 0.25692 0.65226 0.22148 0.0
C2124 C 0.27137 0.65656 0.29942 0.0
C2125 C 0.27466 0.66285 0.36525 0.0
C2126 C 0.22986 0.67416 0.31545 0.0
C2127 C 0.25056 0.66418 0.31111 0.0
C2128 C 0.21776 0.67498 0.29077 0.0
C2129 C 0.21334 0.66692 0.23567 0.0
C2130 C 0.23769 0.66526 0.2846 0.0
C2131 C 0.22145 0.65815 0.20596 0.0
C2132 C 0.25931 0.65715 0.27238 0.0
C2133 C 0.26559 0.66967 0.40241 0.0
N2134 N 0.23326 0.65756 0.2307 0.0
N2135 N 0.254 0.67017 0.37472 0.0
H2136 H 0.40231 0.0264 0.51768 0.0
H2137 H 0.43184 0.95983 0.57744 0.0
H2138 H 0.42383 0.01589 0.71115 0.0
H2139 H 0.40404 0.96704 0.41007 0.0
H2140 H 0.43007 0.98097 0.62056 0.0
H2141 H 0.40374 0.00524 0.47119 0.0
C2142 C 0.40731 0.01966 0.5504 0.0
C2143 C 0.41296 0.02293 0.61845 0.0
C2144 C 0.42434 0.97795 0.57441 0.0
C2145 C 0.41469 -0.0012 0.56544 0.0
C2146 C 0.42538 0.96587 0.54954 0.0
C2147 C 0.41807 0.96165 0.49005 0.0
C2148 C 0.41599 0.98594 0.53933 0.0
C2149 C 0.40983 0.96991 0.45631 0.0
C2150 C 0.40811 0.0076 0.52389 0.0
C2151 C 0.41932 0.01382 0.65849 0.0
N2152 N 0.40903 0.98168 0.48131 0.0
N2153 N 0.42004 0.00222 0.63128 0.0
H2154 H 0.71649 0.65347 0.36824 0.0
H2155 H 0.76514 0.67228 0.05393 0.0
H2156 H 0.70974 0.68066 0.19661 0.0
H2157 H 0.77531 0.6519 0.25258 0.0
H2158 H 0.74431 0.67398 0.10143 0.0
H2159 H 0.73763 0.65146 0.32325 0.0
C2160 C 0.71945 0.65902 0.32119 0.0
C2161 C 0.71134 0.66726 0.28613 0.0
C2162 C 0.75108 0.66914 0.13479 0.0
C2163 C 0.73544 0.66494 0.23429 0.0
C2164 C 0.763 0.66812 0.10756 0.0
C2165 C 0.77201 0.66194 0.14937 0.0
C2166 C 0.74806 0.66387 0.20422 0.0
C2167 C 0.76865 0.65676 0.21855 0.0
C2168 C 0.73151 0.65788 0.29571 0.0
C2169 C 0.71567 0.67423 0.22556 0.0
N2170 N 0.75692 0.65782 0.24382 0.0
N2171 N 0.7274 0.67288 0.20142 0.0
H2172 H 0.0706 0.97759 0.21696 0.0
H2173 H 0.09111 0.02564 0.9027 0.0
H2174 H 0.0908 0.9666 0.01976 0.0
H2175 H 0.06334 0.03279 0.06957 0.0
H2176 H 0.09269 0.00447 0.94889 0.0
H2177 H 0.06961 -0.00159 0.1685 0.0
C2178 C 0.07487 0.97955 0.16344 0.0
C2179 C 0.08078 0.9703 0.12231 0.0
C2180 C 0.08624 0.01069 0.9751 0.0
C2181 C 0.07965 0.99427 0.0663 0.0
C2182 C 0.08535 0.02277 0.94896 0.0
C2183 C 0.07707 0.031 0.98234 0.0
C2184 C 0.0789 0.00689 0.03551 0.0
C2185 C 0.06982 0.02678 0.04193 0.0
C2186 C 0.07426 0.99147 0.13566 0.0
C2187 C 0.08613 0.97345 0.05326 0.0
N2188 N 0.07094 0.01505 0.06673 0.0
N2189 N 0.08546 0.9852 0.02739 0.0
H2190 H 0.71652 0.3455 0.71852 0.0
H2191 H 0.77825 0.30698 0.7592 0.0
H2192 H 0.71683 0.30659 0.76419 0.0
H2193 H 0.77651 0.34548 0.81508 0.0
H2194 H 0.75598 0.30692 0.74141 0.0
H2195 H 0.73886 0.34592 0.73603 0.0
C2196 C 0.72128 0.33706 0.73239 0.0
C2197 C 0.71482 0.326 0.74021 0.0
C2198 C 0.76049 0.31537 0.75749 0.0
C2199 C 0.74029 0.3264 0.75895 0.0
C2200 C 0.7732 0.31544 0.76719 0.0
C2201 C 0.77923 0.32625 0.78874 0.0
C2202 C 0.75379 0.32624 0.76815 0.0
C2203 C 0.77221 0.33694 0.79875 0.0
C2204 C 0.734 0.33732 0.74248 0.0
C2205 C 0.72143 0.31533 0.75818 0.0
N2206 N 0.75985 0.33668 0.788 0.0
N2207 N 0.73382 0.31578 0.76635 0.0
H2208 H 0.02723 0.57283 0.31578 0.0
H2209 H 0.96377 0.55136 0.14286 0.0
H2210 H 0.02275 0.56226 0.0835 0.0
H2211 H 0.96462 0.57926 0.31448 0.0
H2212 H 0.98611 0.55224 0.13522 0.0
H2213 H 0.0048 0.57298 0.32913 0.0
C2214 C 0.02159 0.57061 0.26753 0.0
C2215 C 0.02698 0.56731 0.19871 0.0
C2216 C 0.98142 0.55815 0.17474 0.0
C2217 C 0.00141 0.5672 0.21446 0.0
C2218 C 0.9687 0.55757 0.17961 0.0
C2219 C 0.96237 0.56522 0.22954 0.0
C2220 C 0.98792 0.56631 0.22085 0.0
C2221 C 0.96919 0.57325 0.2751 0.0
C2222 C 0.00881 0.57066 0.27542 0.0
C2223 C 0.01914 0.56446 0.1384 0.0
N2224 N 0.98166 0.57354 0.27004 0.0
N2225 N 0.0068 0.56434 0.14795 0.0
H2226 H 0.69135 0.71632 0.54629 0.0
H2227 H 0.65856 0.77944 0.43662 0.0
H2228 H 0.65948 0.71832 0.40195 0.0
H2229 H 0.69696 0.77705 0.49378 0.0
H2230 H 0.65695 0.75708 0.44892 0.0
H2231 H 0.69175 0.73872 0.55129 0.0
C2232 C 0.68443 0.7214 0.51562 0.0
C2233 C 0.67544 0.71531 0.47288 0.0
C2234 C 0.6657 0.76147 0.45928 0.0
C2235 C 0.67571 0.741 0.48029 0.0
C2236 C 0.66661 0.77421 0.45276 0.0
C2237 C 0.67793 0.78005 0.46399 0.0
C2238 C 0.67614 0.75457 0.47818 0.0
C2239 C 0.6881 0.77286 0.48405 0.0
C2240 C 0.68464 0.7342 0.51898 0.0
C2241 C 0.66651 0.7225 0.43636 0.0
N2242 N 0.68697 0.76048 0.49058 0.0
N2243 N 0.66689 0.73494 0.44079 0.0
H2244 H 0.46317 0.41125 0.60863 0.0
H2245 H 0.52625 0.42738 0.81423 0.0
H2246 H 0.46445 0.43518 0.80134 0.0
H2247 H 0.52361 0.4194 0.57776 0.0
H2248 H 0.5037 0.42648 0.82287 0.0
H2249 H 0.48558 0.41022 0.60963 0.0
C2250 C 0.46818 0.41617 0.65176 0.0
C2251 C 0.46198 0.42333 0.70495 0.0
C2252 C 0.5081 0.42488 0.76929 0.0
C2253 C 0.48759 0.42218 0.70634 0.0
C2254 C 0.5209 0.42533 0.76446 0.0
C2255 C 0.5267 0.42352 0.69513 0.0
C2256 C 0.50116 0.42235 0.70463 0.0
C2257 C 0.51944 0.42094 0.63207 0.0
C2258 C 0.48095 0.41564 0.65195 0.0
C2259 C 0.46892 0.42963 0.75904 0.0
N2260 N 0.50704 0.42038 0.63835 0.0
N2261 N 0.48139 0.42889 0.75852 0.0
H2262 H 0.83185 0.27844 0.87696 0.0
H2263 H 0.80217 0.21747 0.0491 0.0
H2264 H 0.80319 0.27916 0.04396 0.0
H2265 H 0.83166 0.21789 0.8877 0.0
H2266 H 0.80268 0.23995 0.05221 0.0
H2267 H 0.83237 0.25619 0.88556 0.0
C2268 C 0.82575 0.27394 0.91626 0.0
C2269 C 0.81748 0.28075 0.95997 0.0
C2270 C 0.80909 0.2351 0.01653 0.0
C2271 C 0.81786 0.25508 0.96892 0.0
C2272 C 0.80876 0.22227 1.01444 0.0
C2273 C 0.81689 0.21575 0.96805 0.0
C2274 C 0.81756 0.24146 0.97164 0.0
C2275 C 0.82534 0.22247 0.92515 0.0
C2276 C 0.826 0.26119 0.92071 0.0
C2277 C 0.80962 0.27431 1.0085 0.0
N2278 N 0.82541 0.23492 0.92778 0.0
N2279 N 0.80998 0.26183 1.01152 0.0
H2280 H 0.96662 0.44783 0.87137 0.0
H2281 H 0.02752 0.41282 0.74146 0.0
H2282 H 0.96595 0.41387 0.74654 0.0
H2283 H 0.02721 0.44743 0.85927 0.0
H2284 H 0.00506 0.41324 0.73794 0.0
H2285 H 0.98886 0.44815 0.86148 0.0
C2286 C 0.97112 0.4405 0.84101 0.0
C2287 C 0.96433 0.43082 0.80964 0.0
C2288 C 0.00993 0.42078 0.76406 0.0
C2289 C 0.98999 0.43101 0.79939 0.0
C2290 C 0.02275 0.42052 0.76641 0.0
C2291 C 0.0293 0.4301 0.80083 0.0
C2292 C 0.0036 0.43066 0.79667 0.0
C2293 C 0.02261 0.43992 0.83125 0.0
C2294 C 0.98387 0.44065 0.83586 0.0
C2295 C 0.97078 0.42144 0.77247 0.0
N2296 N 0.01016 0.43991 0.82877 0.0
N2297 N 0.98325 0.42175 0.76858 0.0
H2298 H 0.80105 0.77628 0.1368 0.0
H2299 H 0.82131 0.71261 0.96197 0.0
H2300 H 0.82989 0.77504 0.97144 0.0
H2301 H 0.80985 0.71686 0.1926 0.0
H2302 H 0.82223 0.73508 0.95051 0.0
H2303 H 0.80111 0.75389 0.14172 0.0
C2304 C 0.8073 0.77126 0.10081 0.0
C2305 C 0.81546 0.77749 0.05351 0.0
C2306 C 0.81954 0.731 1.00342 0.0
C2307 C 0.8156 0.75188 0.05912 0.0
C2308 C 0.81905 0.7182 1.01022 0.0
C2309 C 0.81526 0.71276 0.07796 0.0
C2310 C 0.81604 0.73835 0.06438 0.0
C2311 C 0.81239 0.72054 0.13841 0.0
C2312 C 0.8074 0.75851 0.10415 0.0
C2313 C 0.82349 0.77055 1.00885 0.0
N2314 N 0.81271 0.73289 0.12988 0.0
N2315 N 0.82333 0.75806 1.01238 0.0
H2316 H 0.46603 0.57869 0.24574 0.0
H2317 H 0.52765 0.54379 0.36614 0.0
H2318 H 0.46696 0.54511 0.37446 0.0
H2319 H 0.52747 0.5784 0.24803 0.0
H2320 H 0.50535 0.54332 0.35926 0.0
H2321 H 0.48843 0.57809 0.23734 0.0
C2322 C 0.47092 0.57119 0.27219 0.0
C2323 C 0.46457 0.56196 0.31114 0.0
C2324 C 0.51017 0.551 0.33446 0.0
C2325 C 0.49021 0.56117 0.30112 0.0
C2326 C 0.52294 0.55123 0.33783 0.0
C2327 C 0.52949 0.56116 0.30774 0.0
C2328 C 0.50382 0.56079 0.3009 0.0
C2329 C 0.52281 0.57064 0.27298 0.0
C2330 C 0.48371 0.57082 0.26702 0.0
C2331 C 0.47141 0.55235 0.34308 0.0
N2332 N 0.51034 0.57024 0.27076 0.0
N2333 N 0.48383 0.55224 0.33764 0.0
H2334 H 0.66351 0.21558 0.5003 0.0
H2335 H 0.6986 0.27686 0.62424 0.0
H2336 H 0.69763 0.21607 0.62385 0.0
H2337 H 0.66359 0.27696 0.51039 0.0
H2338 H 0.69923 0.25457 0.6136 0.0
H2339 H 0.66407 0.23801 0.49422 0.0
C2340 C 0.67113 0.22038 0.52605 0.0
C2341 C 0.68051 0.21389 0.56295 0.0
C2342 C 0.69143 0.25946 0.59054 0.0
C2343 C 0.68125 0.23957 0.55561 0.0
C2344 C 0.69111 0.27222 0.59608 0.0
C2345 C 0.681 0.27883 0.56844 0.0
C2346 C 0.68157 0.25319 0.55724 0.0
C2347 C 0.67148 0.27225 0.53362 0.0
C2348 C 0.67147 0.23319 0.52222 0.0
C2349 C 0.69026 0.22063 0.59406 0.0
N2350 N 0.67197 0.2598 0.52931 0.0
N2351 N 0.69034 0.23307 0.59001 0.0
H2352 H 0.29524 0.27791 0.62361 0.0
H2353 H 0.33212 0.21751 0.50353 0.0
H2354 H 0.32923 0.27903 0.49964 0.0
H2355 H 0.29754 0.21724 0.62134 0.0
H2356 H 0.33108 0.23994 0.49747 0.0
H2357 H 0.29563 0.25561 0.61768 0.0
C2358 C 0.30272 0.27349 0.59424 0.0
C2359 C 0.3122 0.28042 0.56197 0.0
C2360 C 0.32369 0.23496 0.52424 0.0
C2361 C 0.31284 0.25473 0.55633 0.0
C2362 C 0.32431 0.22215 0.52807 0.0
C2363 C 0.31491 0.21545 0.56307 0.0
C2364 C 0.31363 0.24112 0.55592 0.0
C2365 C 0.30493 0.22197 0.59291 0.0
C2366 C 0.30299 0.26071 0.5914 0.0
C2367 C 0.3218 0.27409 0.52619 0.0
N2368 N 0.30459 0.23441 0.58891 0.0
N2369 N 0.32189 0.2616 0.52453 0.0
H2370 H 0.16236 0.71564 0.99132 0.0
H2371 H 0.19784 0.77709 0.10741 0.0
H2372 H 0.19724 0.71621 0.10661 0.0
H2373 H 0.16205 0.7769 1.00315 0.0
H2374 H 0.19866 0.75481 0.09539 0.0
H2375 H 0.16286 0.73804 0.98456 0.0
C2376 C 0.17013 0.72045 1.01508 0.0
C2377 C 0.17973 0.71399 0.05006 0.0
C2378 C 0.19065 0.75964 0.0747 0.0
C2379 C 0.1804 0.73967 0.04195 0.0
C2380 C 0.19021 0.77239 0.08103 0.0
C2381 C 0.17982 0.77891 0.05662 0.0
C2382 C 0.18063 0.75329 0.04381 0.0
C2383 C 0.17015 0.77225 0.02393 0.0
C2384 C 0.17044 0.73325 1.01087 0.0
C2385 C 0.18968 0.72075 0.07849 0.0
N2386 N 0.17076 0.75982 0.01882 0.0
N2387 N 0.18972 0.7332 0.07422 0.0
H2388 H 0.1628 0.27703 0.05954 0.0
H2389 H 0.18268 0.21864 0.823 0.0
H2390 H 0.19034 0.278 0.8861 0.0
H2391 H 0.17146 0.21477 0.05433 0.0
H2392 H 0.18199 0.2408 0.83688 0.0
H2393 H 0.1626 0.25444 0.0511 0.0
C2394 C 0.16881 0.27248 0.01999 0.0
C2395 C 0.17666 0.27933 0.97379 0.0
C2396 C 0.17971 0.2351 0.88466 0.0
C2397 C 0.1763 0.25375 0.96292 0.0
C2398 C 0.18017 0.22241 0.87705 0.0
C2399 C 0.17741 0.21474 0.93816 0.0
C2400 C 0.17625 0.24027 0.95343 0.0
C2401 C 0.17368 0.22029 1.0057 0.0
C2402 C 0.16871 0.25965 0.01538 0.0
C2403 C 0.18427 0.27304 0.92339 0.0
N2404 N 0.17322 0.23275 1.01163 0.0
N2405 N 0.18382 0.26063 0.91889 0.0
H2406 H 0.31711 0.71626 0.30619 0.0
H2407 H 0.31966 0.77736 0.55594 0.0
H2408 H 0.31925 0.71528 0.548 0.0
H2409 H 0.31345 0.77649 0.31673 0.0
H2410 H 0.32159 0.75485 0.5554 0.0
H2411 H 0.3179 0.73855 0.31012 0.0
C2412 C 0.31772 0.72076 0.36029 0.0
C2413 C 0.31789 0.71391 0.42696 0.0
C2414 C 0.31982 0.75962 0.50314 0.0
C2415 C 0.31889 0.73956 0.43199 0.0
C2416 C 0.31876 0.77244 0.5034 0.0
C2417 C 0.31621 0.77877 0.43646 0.0
C2418 C 0.31845 0.75317 0.43532 0.0
C2419 C 0.31514 0.77198 0.3699 0.0
C2420 C 0.31822 0.73351 0.36252 0.0
C2421 C 0.31905 0.72024 0.49531 0.0
N2422 N 0.31624 0.75959 0.37112 0.0
N2423 N 0.3194 0.73274 0.49618 0.0
H2424 H 0.52745 0.06899 0.80638 0.0
H2425 H 0.4663 0.06587 0.55736 0.0
H2426 H 0.52663 0.06682 0.56459 0.0
H2427 H 0.46551 0.06849 0.79893 0.0
H2428 H 0.48853 0.06759 0.56054 0.0
H2429 H 0.50492 0.07031 0.80671 0.0
C2430 C 0.52254 0.06889 0.75346 0.0
C2431 C 0.52889 0.06759 0.68544 0.0
C2432 C 0.48355 0.06783 0.61306 0.0
C2433 C 0.50325 0.06907 0.68532 0.0
C2434 C 0.47084 0.06678 0.61124 0.0
C2435 C 0.46408 0.06684 0.67808 0.0
C2436 C 0.48964 0.06889 0.68231 0.0
C2437 C 0.47041 0.06837 0.74615 0.0
C2438 C 0.50971 0.0696 0.75367 0.0
C2439 C 0.5221 0.06751 0.61845 0.0
N2440 N 0.48288 0.06922 0.74665 0.0
N2441 N 0.50969 0.06817 0.62017 0.0
H2442 H 0.0245 0.93487 0.07539 0.0
H2443 H 0.96552 0.91593 0.30659 0.0
H2444 H 0.02789 0.92353 0.30706 0.0
H2445 H 0.96521 0.94383 0.13464 0.0
H2446 H 0.98812 0.91569 0.30146 0.0
H2447 H 0.00234 0.93501 0.08878 0.0
C2448 C 0.02063 0.93252 0.12945 0.0
C2449 C 0.02818 0.92946 0.19075 0.0
C2450 C 0.98305 0.92192 0.26548 0.0
C2451 C 0.00262 0.92923 0.20539 0.0
C2452 C 0.97022 0.92204 0.2682 0.0
C2453 C 0.96354 0.92996 0.22118 0.0
C2454 C 0.98914 0.92954 0.21409 0.0
C2455 C 0.97002 0.93769 0.17245 0.0
C2456 C 0.00794 0.93254 0.13678 0.0
C2457 C 0.02248 0.92596 0.25826 0.0
N2458 N 0.98244 0.9372 0.16963 0.0
N2459 N 0.01001 0.92593 0.26384 0.0
H2460 H 0.52889 0.94101 0.21877 0.0
H2461 H 0.46827 0.91123 0.39504 0.0
H2462 H 0.52887 0.91266 0.38824 0.0
H2463 H 0.46726 0.93983 0.22721 0.0
H2464 H 0.49055 0.91109 0.38777 0.0
H2465 H 0.50642 0.94037 0.21676 0.0
C2466 C 0.52419 0.93465 0.25551 0.0
C2467 C 0.53082 0.92687 0.30371 0.0
C2468 C 0.48548 0.91738 0.35223 0.0
C2469 C 0.50512 0.92604 0.30131 0.0
C2470 C 0.47272 0.9174 0.35593 0.0
C2471 C 0.46583 0.92553 0.31152 0.0
C2472 C 0.4915 0.92558 0.3039 0.0
C2473 C 0.47218 0.9335 0.26315 0.0
C2474 C 0.51136 0.93425 0.25406 0.0
C2475 C 0.5242 0.91871 0.3493 0.0
N2476 N 0.48466 0.93333 0.2607 0.0
N2477 N 0.51176 0.91854 0.34711 0.0
H2478 H 0.02705 0.08106 0.89317 0.0
H2479 H 0.96543 0.05071 0.73355 0.0
H2480 H 0.02713 0.05241 0.72582 0.0
H2481 H 0.96651 0.08025 0.8949 0.0
H2482 H 0.9879 0.05119 0.72744 0.0
H2483 H 0.00477 0.08109 0.89078 0.0
C2484 C 0.02239 0.07486 0.85513 0.0
C2485 C 0.02904 0.06676 0.80932 0.0
C2486 C 0.98319 0.0576 0.76386 0.0
C2487 C 0.00334 0.06657 0.80747 0.0
C2488 C 0.97037 0.05729 0.76766 0.0
C2489 C 0.96405 0.06548 0.81468 0.0
C2490 C 0.98972 0.06611 0.80765 0.0
C2491 C 0.97094 0.07389 0.85694 0.0
C2492 C 0.00962 0.07482 0.85424 0.0
C2493 C 0.02242 0.05873 0.76266 0.0
N2494 N 0.98337 0.07396 0.85254 0.0
N2495 N 0.00993 0.05882 0.76299 0.0
loop_
_geom_bond_atom_site_label_1
_geom_bond_atom_site_label_2
_geom_bond_distance
_geom_bond_site_symmetry_2
_ccdc_geom_bond_type
Co0 N4 2.148 . S
Co0 N10 2.128 1_554 S
Co0 N20 2.194 . S
Co0 O25 2.351 . S
Co0 O26 2.155 . S
Co0 O27 2.096 . S
C1 N4 1.301 . S
C1 N5 1.328 . S
C1 H6 0.930 . S
C2 C3 1.333 . S
C2 N4 1.317 . S
C2 H7 0.930 . S
C3 C2 1.333 . S
C3 N5 1.350 . S
C3 H29 0.931 . S
N4 Co0 2.148 . S
N4 C1 1.301 . S
N4 C2 1.317 . S
N5 C1 1.328 . S
N5 C3 1.350 . S
H6 C1 0.930 . S
H7 C2 0.930 . S
C8 O9 1.224 . S
C8 O27 1.247 . S
O9 C8 1.224 . S
N10 Co0 2.128 1_556 S
N10 C11 1.355 . S
N10 C13 1.311 . S
C11 N10 1.355 . S
C11 C12 1.363 . S
C11 H23 0.929 . S
C12 C11 1.363 . S
C12 N14 1.375 . S
C12 H30 0.931 . S
C13 N10 1.311 . S
C13 N14 1.347 . S
C13 H24 0.929 . S
N14 C12 1.375 . S
N14 C13 1.347 . S
C15 C18 1.365 . S
C15 N20 1.328 . S
C15 H21 0.929 . S
C16 C17 1.362 . S
C16 C19 1.378 . S
C16 H31 0.929 . S
C17 C16 1.362 . S
C17 C18 1.366 . S
C18 C15 1.365 . S
C18 C17 1.366 . S
C18 H32 0.930 . S
C19 C16 1.378 . S
C19 N20 1.315 . S
C19 H22 0.930 . S
N20 Co0 2.194 . S
N20 C15 1.328 . S
N20 C19 1.315 . S
H21 C15 0.929 . S
H22 C19 0.930 . S
H23 C11 0.929 . S
H24 C13 0.929 . S
O25 Co0 2.351 . S
O25 C28 1.244 . S
O26 Co0 2.155 . S
O26 C28 1.240 . S
O27 Co0 2.096 . S
O27 C8 1.247 . S
C28 O25 1.244 . S
C28 O26 1.240 . S
H29 C3 0.931 . S
H30 C12 0.931 . S
H31 C16 0.929 . S
H32 C18 0.930 . S
Co33 N37 2.148 . S
Co33 N43 2.128 . S
Co33 N53 2.194 . S
Co33 O58 2.351 . S
Co33 O59 2.155 . S
Co33 O60 2.096 . S
C34 N37 1.301 . S
C34 N38 1.328 . S
C34 H39 0.930 . S
C35 C36 1.333 . S
C35 N37 1.317 . S
C35 H40 0.930 . S
C36 C35 1.333 . S
C36 N38 1.350 . S
C36 H62 0.931 . S
N37 Co33 2.148 . S
N37 C34 1.301 . S
N37 C35 1.317 . S
N38 C34 1.328 . S
N38 C36 1.350 . S
H39 C34 0.930 . S
H40 C35 0.930 . S
C41 O42 1.224 . S
C41 O60 1.247 . S
O42 C41 1.224 . S
N43 Co33 2.128 . S
N43 C44 1.355 . S
N43 C46 1.311 . S
C44 N43 1.355 . S
C44 C45 1.363 . S
C44 H56 0.929 . S
C45 C44 1.363 . S
C45 N47 1.375 . S
C45 H63 0.931 . S
C46 N43 1.311 . S
C46 N47 1.347 . S
C46 H57 0.929 . S
N47 C45 1.375 . S
N47 C46 1.347 . S
C48 C51 1.365 . S
C48 N53 1.328 . S
C48 H54 0.929 . S
C49 C50 1.362 . S
C49 C52 1.378 . S
C49 H64 0.929 . S
C50 C49 1.362 . S
C50 C51 1.366 . S
C51 C48 1.365 . S
C51 C50 1.366 . S
C51 H65 0.930 . S
C52 C49 1.378 . S
C52 N53 1.315 . S
C52 H55 0.930 . S
N53 Co33 2.194 . S
N53 C48 1.328 . S
N53 C52 1.315 . S
H54 C48 0.929 . S
H55 C52 0.930 . S
H56 C44 0.929 . S
H57 C46 0.929 . S
O58 Co33 2.351 . S
O58 C61 1.244 . S
O59 Co33 2.155 . S
O59 C61 1.240 . S
O60 Co33 2.096 . S
O60 C41 1.247 . S
C61 O58 1.244 . S
C61 O59 1.240 . S
H62 C36 0.931 . S
H63 C45 0.931 . S
H64 C49 0.929 . S
H65 C51 0.930 . S
Co66 N70 2.148 . S
Co66 N76 2.128 . S
Co66 N86 2.194 . S
Co66 O91 2.351 . S
Co66 O92 2.155 . S
Co66 O93 2.096 . S
C67 N70 1.301 . S
C67 N71 1.328 . S
C67 H72 0.930 . S
C68 C69 1.333 . S
C68 N70 1.317 . S
C68 H73 0.930 . S
C69 C68 1.333 . S
C69 N71 1.350 . S
C69 H95 0.931 . S
N70 Co66 2.148 . S
N70 C67 1.301 . S
N70 C68 1.317 . S
N71 C67 1.328 . S
N71 C69 1.350 . S
H72 C67 0.930 . S
H73 C68 0.930 . S
C74 O75 1.224 . S
C74 O93 1.247 . S
O75 C74 1.224 . S
N76 Co66 2.128 . S
N76 C77 1.355 . S
N76 C79 1.311 . S
C77 N76 1.355 . S
C77 C78 1.363 . S
C77 H89 0.929 . S
C78 C77 1.363 . S
C78 N80 1.375 . S
C78 H96 0.931 . S
C79 N76 1.311 . S
C79 N80 1.347 . S
C79 H90 0.929 . S
N80 C78 1.375 . S
N80 C79 1.347 . S
C81 C84 1.365 . S
C81 N86 1.328 . S
C81 H87 0.929 . S
C82 C83 1.362 . S
C82 C85 1.378 . S
C82 H97 0.929 . S
C83 C82 1.362 . S
C83 C84 1.366 . S
C84 C81 1.365 . S
C84 C83 1.366 . S
C84 H98 0.930 . S
C85 C82 1.378 . S
C85 N86 1.315 . S
C85 H88 0.930 . S
N86 Co66 2.194 . S
N86 C81 1.328 . S
N86 C85 1.315 . S
H87 C81 0.929 . S
H88 C85 0.930 . S
H89 C77 0.929 . S
H90 C79 0.929 . S
O91 Co66 2.351 . S
O91 C94 1.244 . S
O92 Co66 2.155 . S
O92 C94 1.240 . S
O93 Co66 2.096 . S
O93 C74 1.247 . S
C94 O91 1.244 . S
C94 O92 1.240 . S
H95 C69 0.931 . S
H96 C78 0.931 . S
H97 C82 0.929 . S
H98 C84 0.930 . S
Co99 N103 2.148 . S
Co99 N109 2.128 . S
Co99 N119 2.194 . S
Co99 O124 2.351 . S
Co99 O125 2.155 . S
Co99 O126 2.096 . S
C100 N103 1.301 . S
C100 N104 1.328 1_556 S
C100 H105 0.930 . S
C101 C102 1.333 1_556 S
C101 N103 1.317 . S
C101 H106 0.930 . S
C102 C101 1.333 1_554 S
C102 N104 1.350 . S
C102 H128 0.931 . S
N103 Co99 2.148 . S
N103 C100 1.301 . S
N103 C101 1.317 . S
N104 C100 1.328 1_554 S
N104 C102 1.350 . S
H105 C100 0.930 . S
H106 C101 0.930 . S
C107 O108 1.224 . S
C107 O126 1.247 . S
O108 C107 1.224 . S
N109 Co99 2.128 . S
N109 C110 1.355 . S
N109 C112 1.311 . S
C110 N109 1.355 . S
C110 C111 1.363 . S
C110 H122 0.929 . S
C111 C110 1.363 . S
C111 N113 1.375 . S
C111 H129 0.931 . S
C112 N109 1.311 . S
C112 N113 1.347 . S
C112 H123 0.929 . S
N113 C111 1.375 . S
N113 C112 1.347 . S
C114 C117 1.365 . S
C114 N119 1.328 . S
C114 H120 0.929 . S
C115 C116 1.362 . S
C115 C118 1.378 . S
C115 H130 0.929 . S
C116 C115 1.362 . S
C116 C117 1.366 . S
C117 C114 1.365 . S
C117 C116 1.366 . S
C117 H131 0.930 . S
C118 C115 1.378 . S
C118 N119 1.315 . S
C118 H121 0.930 . S
N119 Co99 2.194 . S
N119 C114 1.328 . S
N119 C118 1.315 . S
H120 C114 0.929 . S
H121 C118 0.930 . S
H122 C110 0.929 . S
H123 C112 0.929 . S
O124 Co99 2.351 . S
O124 C127 1.244 . S
O125 Co99 2.155 . S
O125 C127 1.240 . S
O126 Co99 2.096 . S
O126 C107 1.247 . S
C127 O124 1.244 . S
C127 O125 1.240 . S
H128 C102 0.931 . S
H129 C111 0.931 . S
H130 C115 0.929 . S
H131 C117 0.930 . S
Co132 N136 2.148 . S
Co132 N142 2.128 1_556 S
Co132 N152 2.194 . S
Co132 O157 2.351 . S
Co132 O158 2.155 . S
Co132 O159 2.096 . S
C133 N136 1.301 . S
C133 N137 1.328 . S
C133 H138 0.930 . S
C134 C135 1.333 . S
C134 N136 1.317 . S
C134 H139 0.930 . S
C135 C134 1.333 . S
C135 N137 1.350 . S
C135 H161 0.931 . S
N136 Co132 2.148 . S
N136 C133 1.301 . S
N136 C134 1.317 . S
N137 C133 1.328 . S
N137 C135 1.350 . S
H138 C133 0.930 . S
H139 C134 0.930 . S
C140 O141 1.224 . S
C140 O159 1.247 . S
O141 C140 1.224 . S
N142 Co132 2.128 1_554 S
N142 C143 1.355 . S
N142 C145 1.311 . S
C143 N142 1.355 . S
C143 C144 1.363 . S
C143 H155 0.929 . S
C144 C143 1.363 . S
C144 N146 1.375 . S
C144 H162 0.931 . S
C145 N142 1.311 . S
C145 N146 1.347 . S
C145 H156 0.929 . S
N146 C144 1.375 . S
N146 C145 1.347 . S
C147 C150 1.365 . S
C147 N152 1.328 . S
C147 H153 0.929 . S
C148 C149 1.362 . S
C148 C151 1.378 . S
C148 H163 0.929 . S
C149 C148 1.362 . S
C149 C150 1.366 . S
C150 C147 1.365 . S
C150 C149 1.366 . S
C150 H164 0.930 . S
C151 C148 1.378 . S
C151 N152 1.315 . S
C151 H154 0.930 . S
N152 Co132 2.194 . S
N152 C147 1.328 . S
N152 C151 1.315 . S
H153 C147 0.929 . S
H154 C151 0.930 . S
H155 C143 0.929 . S
H156 C145 0.929 . S
O157 Co132 2.351 . S
O157 C160 1.244 . S
O158 Co132 2.155 . S
O158 C160 1.240 . S
O159 Co132 2.096 . S
O159 C140 1.247 . S
C160 O157 1.244 . S
C160 O158 1.240 . S
H161 C135 0.931 . S
H162 C144 0.931 . S
H163 C148 0.929 . S
H164 C150 0.930 . S
Co165 N169 2.148 . S
Co165 N175 2.128 . S
Co165 N185 2.194 . S
Co165 O190 2.351 . S
Co165 O191 2.155 . S
Co165 O192 2.096 . S
C166 N169 1.301 . S
C166 N170 1.328 1_554 S
C166 H171 0.930 . S
C167 C168 1.333 1_554 S
C167 N169 1.317 . S
C167 H172 0.930 . S
C168 C167 1.333 1_556 S
C168 N170 1.350 . S
C168 H194 0.931 . S
N169 Co165 2.148 . S
N169 C166 1.301 . S
N169 C167 1.317 . S
N170 C166 1.328 1_556 S
N170 C168 1.350 . S
H171 C166 0.930 . S
H172 C167 0.930 . S
C173 O174 1.224 . S
C173 O192 1.247 . S
O174 C173 1.224 . S
N175 Co165 2.128 . S
N175 C176 1.355 . S
N175 C178 1.311 . S
C176 N175 1.355 . S
C176 C177 1.363 . S
C176 H188 0.929 . S
C177 C176 1.363 . S
C177 N179 1.375 . S
C177 H195 0.931 . S
C178 N175 1.311 . S
C178 N179 1.347 . S
C178 H189 0.929 . S
N179 C177 1.375 . S
N179 C178 1.347 . S
C180 C183 1.365 . S
C180 N185 1.328 . S
C180 H186 0.929 . S
C181 C182 1.362 . S
C181 C184 1.378 . S
C181 H196 0.929 . S
C182 C181 1.362 . S
C182 C183 1.366 . S
C183 C180 1.365 . S
C183 C182 1.366 . S
C183 H197 0.930 . S
C184 C181 1.378 . S
C184 N185 1.315 . S
C184 H187 0.930 . S
N185 Co165 2.194 . S
N185 C180 1.328 . S
N185 C184 1.315 . S
H186 C180 0.929 . S
H187 C184 0.930 . S
H188 C176 0.929 . S
H189 C178 0.929 . S
O190 Co165 2.351 . S
O190 C193 1.244 . S
O191 Co165 2.155 . S
O191 C193 1.240 . S
O192 Co165 2.096 . S
O192 C173 1.247 . S
C193 O190 1.244 . S
C193 O191 1.240 . S
H194 C168 0.931 . S
H195 C177 0.931 . S
H196 C181 0.929 . S
H197 C183 0.930 . S
Co198 N202 2.148 . S
Co198 N208 2.128 . S
Co198 N218 2.194 . S
Co198 O223 2.351 . S
Co198 O224 2.155 . S
Co198 O225 2.096 . S
C199 N202 1.301 . S
C199 N203 1.328 . S
C199 H204 0.930 . S
C200 C201 1.333 . S
C200 N202 1.317 . S
C200 H205 0.930 . S
C201 C200 1.333 . S
C201 N203 1.350 . S
C201 H227 0.931 . S
N202 Co198 2.148 . S
N202 C199 1.301 . S
N202 C200 1.317 . S
N203 C199 1.328 . S
N203 C201 1.350 . S
H204 C199 0.930 . S
H205 C200 0.930 . S
C206 O207 1.224 . S
C206 O225 1.247 . S
O207 C206 1.224 . S
N208 Co198 2.128 . S
N208 C209 1.355 . S
N208 C211 1.311 . S
C209 N208 1.355 . S
C209 C210 1.363 . S
C209 H221 0.929 . S
C210 C209 1.363 . S
C210 N212 1.375 . S
C210 H228 0.931 . S
C211 N208 1.311 . S
C211 N212 1.347 . S
C211 H222 0.929 . S
N212 C210 1.375 . S
N212 C211 1.347 . S
C213 C216 1.365 . S
C213 N218 1.328 . S
C213 H219 0.929 . S
C214 C215 1.362 . S
C214 C217 1.378 . S
C214 H229 0.929 . S
C215 C214 1.362 . S
C215 C216 1.366 . S
C216 C213 1.365 . S
C216 C215 1.366 . S
C216 H230 0.930 . S
C217 C214 1.378 . S
C217 N218 1.315 . S
C217 H220 0.930 . S
N218 Co198 2.194 . S
N218 C213 1.328 . S
N218 C217 1.315 . S
H219 C213 0.929 . S
H220 C217 0.930 . S
H221 C209 0.929 . S
H222 C211 0.929 . S
O223 Co198 2.351 . S
O223 C226 1.244 . S
O224 Co198 2.155 . S
O224 C226 1.240 . S
O225 Co198 2.096 . S
O225 C206 1.247 . S
C226 O223 1.244 . S
C226 O224 1.240 . S
H227 C201 0.931 . S
H228 C210 0.931 . S
H229 C214 0.929 . S
H230 C216 0.930 . S
Co231 N235 2.148 . S
Co231 N241 2.128 . S
Co231 N251 2.194 . S
Co231 O256 2.351 . S
Co231 O257 2.155 . S
Co231 O258 2.096 . S
C232 N235 1.301 . S
C232 N236 1.328 . S
C232 H237 0.930 . S
C233 C234 1.333 . S
C233 N235 1.317 . S
C233 H238 0.930 . S
C234 C233 1.333 . S
C234 N236 1.350 . S
C234 H260 0.931 . S
N235 Co231 2.148 . S
N235 C232 1.301 . S
N235 C233 1.317 . S
N236 C232 1.328 . S
N236 C234 1.350 . S
H237 C232 0.930 . S
H238 C233 0.930 . S
C239 O240 1.224 . S
C239 O258 1.247 . S
O240 C239 1.224 . S
N241 Co231 2.128 . S
N241 C242 1.355 . S
N241 C244 1.311 . S
C242 N241 1.355 . S
C242 C243 1.363 . S
C242 H254 0.929 . S
C243 C242 1.363 . S
C243 N245 1.375 . S
C243 H261 0.931 . S
C244 N241 1.311 . S
C244 N245 1.347 . S
C244 H255 0.929 . S
N245 C243 1.375 . S
N245 C244 1.347 . S
C246 C249 1.365 . S
C246 N251 1.328 . S
C246 H252 0.929 . S
C247 C248 1.362 . S
C247 C250 1.378 . S
C247 H262 0.929 . S
C248 C247 1.362 . S
C248 C249 1.366 . S
C249 C246 1.365 . S
C249 C248 1.366 . S
C249 H263 0.930 . S
C250 C247 1.378 . S
C250 N251 1.315 . S
C250 H253 0.930 . S
N251 Co231 2.194 . S
N251 C246 1.328 . S
N251 C250 1.315 . S
H252 C246 0.929 . S
H253 C250 0.930 . S
H254 C242 0.929 . S
H255 C244 0.929 . S
O256 Co231 2.351 . S
O256 C259 1.244 . S
O257 Co231 2.155 . S
O257 C259 1.240 . S
O258 Co231 2.096 . S
O258 C239 1.247 . S
C259 O256 1.244 . S
C259 O257 1.240 . S
H260 C234 0.931 . S
H261 C243 0.931 . S
H262 C247 0.929 . S
H263 C249 0.930 . S
Co264 N268 2.148 . S
Co264 N274 2.128 1_556 S
Co264 N284 2.194 . S
Co264 O289 2.351 . S
Co264 O290 2.155 . S
Co264 O291 2.096 . S
C265 N268 1.301 . S
C265 N269 1.328 . S
C265 H270 0.930 . S
C266 C267 1.333 . S
C266 N268 1.317 . S
C266 H271 0.930 . S
C267 C266 1.333 . S
C267 N269 1.350 . S
C267 H293 0.931 . S
N268 Co264 2.148 . S
N268 C265 1.301 . S
N268 C266 1.317 . S
N269 C265 1.328 . S
N269 C267 1.350 . S
H270 C265 0.930 . S
H271 C266 0.930 . S
C272 O273 1.224 . S
C272 O291 1.247 . S
O273 C272 1.224 . S
N274 Co264 2.128 1_554 S
N274 C275 1.355 . S
N274 C277 1.311 . S
C275 N274 1.355 . S
C275 C276 1.363 . S
C275 H287 0.929 . S
C276 C275 1.363 . S
C276 N278 1.375 . S
C276 H294 0.931 . S
C277 N274 1.311 . S
C277 N278 1.347 . S
C277 H288 0.929 . S
N278 C276 1.375 . S
N278 C277 1.347 . S
C279 C282 1.365 . S
C279 N284 1.328 . S
C279 H285 0.929 . S
C280 C281 1.362 . S
C280 C283 1.378 . S
C280 H295 0.929 . S
C281 C280 1.362 . S
C281 C282 1.366 . S
C282 C279 1.365 . S
C282 C281 1.366 . S
C282 H296 0.930 . S
C283 C280 1.378 . S
C283 N284 1.315 . S
C283 H286 0.930 . S
N284 Co264 2.194 . S
N284 C279 1.328 . S
N284 C283 1.315 . S
H285 C279 0.929 . S
H286 C283 0.930 . S
H287 C275 0.929 . S
H288 C277 0.929 . S
O289 Co264 2.351 . S
O289 C292 1.244 . S
O290 Co264 2.155 . S
O290 C292 1.240 . S
O291 Co264 2.096 . S
O291 C272 1.247 . S
C292 O289 1.244 . S
C292 O290 1.240 . S
H293 C267 0.931 . S
H294 C276 0.931 . S
H295 C280 0.929 . S
H296 C282 0.930 . S
Co297 N301 2.148 . S
Co297 N307 2.128 . S
Co297 N317 2.194 . S
Co297 O322 2.351 . S
Co297 O323 2.155 . S
Co297 O324 2.096 . S
C298 N301 1.301 . S
C298 N302 1.328 . S
C298 H303 0.930 . S
C299 C300 1.333 . S
C299 N301 1.317 . S
C299 H304 0.930 . S
C300 C299 1.333 . S
C300 N302 1.350 . S
C300 H326 0.931 . S
N301 Co297 2.148 . S
N301 C298 1.301 . S
N301 C299 1.317 . S
N302 C298 1.328 . S
N302 C300 1.350 . S
H303 C298 0.930 . S
H304 C299 0.930 . S
C305 O306 1.224 . S
C305 O324 1.247 . S
O306 C305 1.224 . S
N307 Co297 2.128 . S
N307 C308 1.355 . S
N307 C310 1.311 . S
C308 N307 1.355 . S
C308 C309 1.363 . S
C308 H320 0.929 . S
C309 C308 1.363 . S
C309 N311 1.375 . S
C309 H327 0.931 . S
C310 N307 1.311 . S
C310 N311 1.347 . S
C310 H321 0.929 . S
N311 C309 1.375 . S
N311 C310 1.347 . S
C312 C315 1.365 . S
C312 N317 1.328 . S
C312 H318 0.929 . S
C313 C314 1.362 . S
C313 C316 1.378 . S
C313 H328 0.929 . S
C314 C313 1.362 . S
C314 C315 1.366 . S
C315 C312 1.365 . S
C315 C314 1.366 . S
C315 H329 0.930 . S
C316 C313 1.378 . S
C316 N317 1.315 . S
C316 H319 0.930 . S
N317 Co297 2.194 . S
N317 C312 1.328 . S
N317 C316 1.315 . S
H318 C312 0.929 . S
H319 C316 0.930 . S
H320 C308 0.929 . S
H321 C310 0.929 . S
O322 Co297 2.351 . S
O322 C325 1.244 . S
O323 Co297 2.155 . S
O323 C325 1.240 . S
O324 Co297 2.096 . S
O324 C305 1.247 . S
C325 O322 1.244 . S
C325 O323 1.240 . S
H326 C300 0.931 . S
H327 C309 0.931 . S
H328 C313 0.929 . S
H329 C315 0.930 . S
Co330 N334 2.148 . S
Co330 N340 2.128 . S
Co330 N350 2.194 . S
Co330 O355 2.351 . S
Co330 O356 2.155 . S
Co330 O357 2.096 . S
C331 N334 1.301 . S
C331 N335 1.328 . S
C331 H336 0.930 . S
C332 C333 1.333 . S
C332 N334 1.317 . S
C332 H337 0.930 . S
C333 C332 1.333 . S
C333 N335 1.350 . S
C333 H359 0.931 . S
N334 Co330 2.148 . S
N334 C331 1.301 . S
N334 C332 1.317 . S
N335 C331 1.328 . S
N335 C333 1.350 . S
H336 C331 0.930 . S
H337 C332 0.930 . S
C338 O339 1.224 . S
C338 O357 1.247 . S
O339 C338 1.224 . S
N340 Co330 2.128 . S
N340 C341 1.355 . S
N340 C343 1.311 . S
C341 N340 1.355 . S
C341 C342 1.363 . S
C341 H353 0.929 . S
C342 C341 1.363 . S
C342 N344 1.375 . S
C342 H360 0.931 . S
C343 N340 1.311 . S
C343 N344 1.347 . S
C343 H354 0.929 . S
N344 C342 1.375 . S
N344 C343 1.347 . S
C345 C348 1.365 . S
C345 N350 1.328 . S
C345 H351 0.929 . S
C346 C347 1.362 . S
C346 C349 1.378 . S
C346 H361 0.929 . S
C347 C346 1.362 . S
C347 C348 1.366 . S
C348 C345 1.365 . S
C348 C347 1.366 . S
C348 H362 0.930 . S
C349 C346 1.378 . S
C349 N350 1.315 . S
C349 H352 0.930 . S
N350 Co330 2.194 . S
N350 C345 1.328 . S
N350 C349 1.315 . S
H351 C345 0.929 . S
H352 C349 0.930 . S
H353 C341 0.929 . S
H354 C343 0.929 . S
O355 Co330 2.351 . S
O355 C358 1.244 . S
O356 Co330 2.155 . S
O356 C358 1.240 . S
O357 Co330 2.096 . S
O357 C338 1.247 . S
C358 O355 1.244 . S
C358 O356 1.240 . S
H359 C333 0.931 . S
H360 C342 0.931 . S
H361 C346 0.929 . S
H362 C348 0.930 . S
Co363 N367 2.148 . S
Co363 N373 2.128 . S
Co363 N383 2.194 . S
Co363 O388 2.351 . S
Co363 O389 2.155 . S
Co363 O390 2.096 . S
C364 N367 1.301 . S
C364 N368 1.328 1_554 S
C364 H369 0.930 . S
C365 C366 1.333 1_554 S
C365 N367 1.317 . S
C365 H370 0.930 . S
C366 C365 1.333 1_556 S
C366 N368 1.350 . S
C366 H392 0.931 . S
N367 Co363 2.148 . S
N367 C364 1.301 . S
N367 C365 1.317 . S
N368 C364 1.328 1_556 S
N368 C366 1.350 . S
H369 C364 0.930 . S
H370 C365 0.930 . S
C371 O372 1.224 . S
C371 O390 1.247 . S
O372 C371 1.224 . S
N373 Co363 2.128 . S
N373 C374 1.355 . S
N373 C376 1.311 . S
C374 N373 1.355 . S
C374 C375 1.363 . S
C374 H386 0.929 . S
C375 C374 1.363 . S
C375 N377 1.375 . S
C375 H393 0.931 . S
C376 N373 1.311 . S
C376 N377 1.347 . S
C376 H387 0.929 . S
N377 C375 1.375 . S
N377 C376 1.347 . S
C378 C381 1.365 . S
C378 N383 1.328 . S
C378 H384 0.929 . S
C379 C380 1.362 . S
C379 C382 1.378 . S
C379 H394 0.929 . S
C380 C379 1.362 . S
C380 C381 1.366 . S
C381 C378 1.365 . S
C381 C380 1.366 . S
C381 H395 0.930 . S
C382 C379 1.378 . S
C382 N383 1.315 . S
C382 H385 0.930 . S
N383 Co363 2.194 . S
N383 C378 1.328 . S
N383 C382 1.315 . S
H384 C378 0.929 . S
H385 C382 0.930 . S
H386 C374 0.929 . S
H387 C376 0.929 . S
O388 Co363 2.351 . S
O388 C391 1.244 . S
O389 Co363 2.155 . S
O389 C391 1.240 . S
O390 Co363 2.096 . S
O390 C371 1.247 . S
C391 O388 1.244 . S
C391 O389 1.240 . S
H392 C366 0.931 . S
H393 C375 0.931 . S
H394 C379 0.929 . S
H395 C381 0.930 . S
Co396 N400 2.148 . S
Co396 N406 2.128 1_554 S
Co396 N416 2.194 . S
Co396 O421 2.351 . S
Co396 O422 2.155 . S
Co396 O423 2.096 . S
C397 N400 1.301 . S
C397 N401 1.328 . S
C397 H402 0.930 . S
C398 C399 1.333 . S
C398 N400 1.317 . S
C398 H403 0.930 . S
C399 C398 1.333 . S
C399 N401 1.350 . S
C399 H425 0.931 . S
N400 Co396 2.148 . S
N400 C397 1.301 . S
N400 C398 1.317 . S
N401 C397 1.328 . S
N401 C399 1.350 . S
H402 C397 0.930 . S
H403 C398 0.930 . S
C404 O405 1.224 . S
C404 O423 1.247 . S
O405 C404 1.224 . S
N406 Co396 2.128 1_556 S
N406 C407 1.355 . S
N406 C409 1.311 . S
C407 N406 1.355 . S
C407 C408 1.363 . S
C407 H419 0.929 . S
C408 C407 1.363 . S
C408 N410 1.375 . S
C408 H426 0.931 . S
C409 N406 1.311 . S
C409 N410 1.347 . S
C409 H420 0.929 . S
N410 C408 1.375 . S
N410 C409 1.347 . S
C411 C414 1.365 . S
C411 N416 1.328 . S
C411 H417 0.929 . S
C412 C413 1.362 . S
C412 C415 1.378 . S
C412 H427 0.929 . S
C413 C412 1.362 . S
C413 C414 1.366 . S
C414 C411 1.365 . S
C414 C413 1.366 . S
C414 H428 0.930 . S
C415 C412 1.378 . S
C415 N416 1.315 . S
C415 H418 0.930 . S
N416 Co396 2.194 . S
N416 C411 1.328 . S
N416 C415 1.315 . S
H417 C411 0.929 . S
H418 C415 0.930 . S
H419 C407 0.929 . S
H420 C409 0.929 . S
O421 Co396 2.351 . S
O421 C424 1.244 . S
O422 Co396 2.155 . S
O422 C424 1.240 . S
O423 Co396 2.096 . S
O423 C404 1.247 . S
C424 O421 1.244 . S
C424 O422 1.240 . S
H425 C399 0.931 . S
H426 C408 0.931 . S
H427 C412 0.929 . S
H428 C414 0.930 . S
Co429 N433 2.148 . S
Co429 N439 2.128 . S
Co429 N449 2.194 . S
Co429 O454 2.351 . S
Co429 O455 2.155 . S
Co429 O456 2.096 . S
C430 N433 1.301 . S
C430 N434 1.328 1_556 S
C430 H435 0.930 . S
C431 C432 1.333 1_556 S
C431 N433 1.317 . S
C431 H436 0.930 . S
C432 C431 1.333 1_554 S
C432 N434 1.350 . S
C432 H458 0.931 . S
N433 Co429 2.148 . S
N433 C430 1.301 . S
N433 C431 1.317 . S
N434 C430 1.328 1_554 S
N434 C432 1.350 . S
H435 C430 0.930 . S
H436 C431 0.930 . S
C437 O438 1.224 . S
C437 O456 1.247 . S
O438 C437 1.224 . S
N439 Co429 2.128 . S
N439 C440 1.355 . S
N439 C442 1.311 . S
C440 N439 1.355 . S
C440 C441 1.363 . S
C440 H452 0.929 . S
C441 C440 1.363 . S
C441 N443 1.375 . S
C441 H459 0.931 . S
C442 N439 1.311 . S
C442 N443 1.347 . S
C442 H453 0.929 . S
N443 C441 1.375 . S
N443 C442 1.347 . S
C444 C447 1.365 . S
C444 N449 1.328 . S
C444 H450 0.929 . S
C445 C446 1.362 . S
C445 C448 1.378 . S
C445 H460 0.929 . S
C446 C445 1.362 . S
C446 C447 1.366 . S
C447 C444 1.365 . S
C447 C446 1.366 . S
C447 H461 0.930 . S
C448 C445 1.378 . S
C448 N449 1.315 . S
C448 H451 0.930 . S
N449 Co429 2.194 . S
N449 C444 1.328 . S
N449 C448 1.315 . S
H450 C444 0.929 . S
H451 C448 0.930 . S
H452 C440 0.929 . S
H453 C442 0.929 . S
O454 Co429 2.351 . S
O454 C457 1.244 . S
O455 Co429 2.155 . S
O455 C457 1.240 . S
O456 Co429 2.096 . S
O456 C437 1.247 . S
C457 O454 1.244 . S
C457 O455 1.240 . S
H458 C432 0.931 . S
H459 C441 0.931 . S
H460 C445 0.929 . S
H461 C447 0.930 . S
Co462 N466 2.148 . S
Co462 N472 2.128 . S
Co462 N482 2.194 . S
Co462 O487 2.351 . S
Co462 O488 2.155 . S
Co462 O489 2.096 . S
C463 N466 1.301 . S
C463 N467 1.328 . S
C463 H468 0.930 . S
C464 C465 1.333 . S
C464 N466 1.317 . S
C464 H469 0.930 . S
C465 C464 1.333 . S
C465 N467 1.350 . S
C465 H491 0.931 . S
N466 Co462 2.148 . S
N466 C463 1.301 . S
N466 C464 1.317 . S
N467 C463 1.328 . S
N467 C465 1.350 . S
H468 C463 0.930 . S
H469 C464 0.930 . S
C470 O471 1.224 . S
C470 O489 1.247 . S
O471 C470 1.224 . S
N472 Co462 2.128 . S
N472 C473 1.355 . S
N472 C475 1.311 . S
C473 N472 1.355 . S
C473 C474 1.363 . S
C473 H485 0.929 . S
C474 C473 1.363 . S
C474 N476 1.375 . S
C474 H492 0.931 . S
C475 N472 1.311 . S
C475 N476 1.347 . S
C475 H486 0.929 . S
N476 C474 1.375 . S
N476 C475 1.347 . S
C477 C480 1.365 . S
C477 N482 1.328 . S
C477 H483 0.929 . S
C478 C479 1.362 . S
C478 C481 1.378 . S
C478 H493 0.929 . S
C479 C478 1.362 . S
C479 C480 1.366 . S
C480 C477 1.365 . S
C480 C479 1.366 . S
C480 H494 0.930 . S
C481 C478 1.378 . S
C481 N482 1.315 . S
C481 H484 0.930 . S
N482 Co462 2.194 . S
N482 C477 1.328 . S
N482 C481 1.315 . S
H483 C477 0.929 . S
H484 C481 0.930 . S
H485 C473 0.929 . S
H486 C475 0.929 . S
O487 Co462 2.351 . S
O487 C490 1.244 . S
O488 Co462 2.155 . S
O488 C490 1.240 . S
O489 Co462 2.096 . S
O489 C470 1.247 . S
C490 O487 1.244 . S
C490 O488 1.240 . S
H491 C465 0.931 . S
H492 C474 0.931 . S
H493 C478 0.929 . S
H494 C480 0.930 . S
Co495 N499 2.148 . S
Co495 N505 2.128 . S
Co495 N515 2.194 . S
Co495 O520 2.351 . S
Co495 O521 2.155 . S
Co495 O522 2.096 . S
C496 N499 1.301 . S
C496 N500 1.328 . S
C496 H501 0.930 . S
C497 C498 1.333 . S
C497 N499 1.317 . S
C497 H502 0.930 . S
C498 C497 1.333 . S
C498 N500 1.350 . S
C498 H524 0.931 . S
N499 Co495 2.148 . S
N499 C496 1.301 . S
N499 C497 1.317 . S
N500 C496 1.328 . S
N500 C498 1.350 . S
H501 C496 0.930 . S
H502 C497 0.930 . S
C503 O504 1.224 . S
C503 O522 1.247 . S
O504 C503 1.224 . S
N505 Co495 2.128 . S
N505 C506 1.355 . S
N505 C508 1.311 . S
C506 N505 1.355 . S
C506 C507 1.363 . S
C506 H518 0.929 . S
C507 C506 1.363 . S
C507 N509 1.375 . S
C507 H525 0.931 . S
C508 N505 1.311 . S
C508 N509 1.347 . S
C508 H519 0.929 . S
N509 C507 1.375 . S
N509 C508 1.347 . S
C510 C513 1.365 . S
C510 N515 1.328 . S
C510 H516 0.929 . S
C511 C512 1.362 . S
C511 C514 1.378 . S
C511 H526 0.929 . S
C512 C511 1.362 . S
C512 C513 1.366 . S
C513 C510 1.365 . S
C513 C512 1.366 . S
C513 H527 0.930 . S
C514 C511 1.378 . S
C514 N515 1.315 . S
C514 H517 0.930 . S
N515 Co495 2.194 . S
N515 C510 1.328 . S
N515 C514 1.315 . S
H516 C510 0.929 . S
H517 C514 0.930 . S
H518 C506 0.929 . S
H519 C508 0.929 . S
O520 Co495 2.351 . S
O520 C523 1.244 . S
O521 Co495 2.155 . S
O521 C523 1.240 . S
O522 Co495 2.096 . S
O522 C503 1.247 . S
C523 O520 1.244 . S
C523 O521 1.240 . S
H524 C498 0.931 . S
H525 C507 0.931 . S
H526 C511 0.929 . S
H527 C513 0.930 . S
Co528 N532 2.148 . S
Co528 N538 2.128 . S
Co528 N548 2.194 . S
Co528 O553 2.351 . S
Co528 O554 2.155 . S
Co528 O555 2.096 . S
C529 N532 1.301 . S
C529 N533 1.328 . S
C529 H534 0.930 . S
C530 C531 1.333 . S
C530 N532 1.317 . S
C530 H535 0.930 . S
C531 C530 1.333 . S
C531 N533 1.350 . S
C531 H557 0.931 . S
N532 Co528 2.148 . S
N532 C529 1.301 . S
N532 C530 1.317 . S
N533 C529 1.328 . S
N533 C531 1.350 . S
H534 C529 0.930 . S
H535 C530 0.930 . S
C536 O537 1.224 . S
C536 O555 1.247 . S
O537 C536 1.224 . S
N538 Co528 2.128 . S
N538 C539 1.355 . S
N538 C541 1.311 . S
C539 N538 1.355 . S
C539 C540 1.363 . S
C539 H551 0.929 . S
C540 C539 1.363 . S
C540 N542 1.375 . S
C540 H558 0.931 . S
C541 N538 1.311 . S
C541 N542 1.347 . S
C541 H552 0.929 . S
N542 C540 1.375 . S
N542 C541 1.347 . S
C543 C546 1.365 . S
C543 N548 1.328 . S
C543 H549 0.929 . S
C544 C545 1.362 . S
C544 C547 1.378 . S
C544 H559 0.929 . S
C545 C544 1.362 . S
C545 C546 1.366 . S
C546 C543 1.365 . S
C546 C545 1.366 . S
C546 H560 0.930 . S
C547 C544 1.378 . S
C547 N548 1.315 . S
C547 H550 0.930 . S
N548 Co528 2.194 . S
N548 C543 1.328 . S
N548 C547 1.315 . S
H549 C543 0.929 . S
H550 C547 0.930 . S
H551 C539 0.929 . S
H552 C541 0.929 . S
O553 Co528 2.351 . S
O553 C556 1.244 . S
O554 Co528 2.155 . S
O554 C556 1.240 . S
O555 Co528 2.096 . S
O555 C536 1.247 . S
C556 O553 1.244 . S
C556 O554 1.240 . S
H557 C531 0.931 . S
H558 C540 0.931 . S
H559 C544 0.929 . S
H560 C546 0.930 . S
Co561 N565 2.148 . S
Co561 N571 2.128 . S
Co561 N581 2.194 . S
Co561 O586 2.351 . S
Co561 O587 2.155 . S
Co561 O588 2.096 . S
C562 N565 1.301 . S
C562 N566 1.328 1_556 S
C562 H567 0.930 . S
C563 C564 1.333 1_556 S
C563 N565 1.317 . S
C563 H568 0.930 . S
C564 C563 1.333 1_554 S
C564 N566 1.350 . S
C564 H590 0.931 . S
N565 Co561 2.148 . S
N565 C562 1.301 . S
N565 C563 1.317 . S
N566 C562 1.328 1_554 S
N566 C564 1.350 . S
H567 C562 0.930 . S
H568 C563 0.930 . S
C569 O570 1.224 . S
C569 O588 1.247 . S
O570 C569 1.224 . S
N571 Co561 2.128 . S
N571 C572 1.355 . S
N571 C574 1.311 . S
C572 N571 1.355 . S
C572 C573 1.363 . S
C572 H584 0.929 . S
C573 C572 1.363 . S
C573 N575 1.375 . S
C573 H591 0.931 . S
C574 N571 1.311 . S
C574 N575 1.347 . S
C574 H585 0.929 . S
N575 C573 1.375 . S
N575 C574 1.347 . S
C576 C579 1.365 . S
C576 N581 1.328 . S
C576 H582 0.929 . S
C577 C578 1.362 . S
C577 C580 1.378 . S
C577 H592 0.929 . S
C578 C577 1.362 . S
C578 C579 1.366 . S
C579 C576 1.365 . S
C579 C578 1.366 . S
C579 H593 0.930 . S
C580 C577 1.378 . S
C580 N581 1.315 . S
C580 H583 0.930 . S
N581 Co561 2.194 . S
N581 C576 1.328 . S
N581 C580 1.315 . S
H582 C576 0.929 . S
H583 C580 0.930 . S
H584 C572 0.929 . S
H585 C574 0.929 . S
O586 Co561 2.351 . S
O586 C589 1.244 . S
O587 Co561 2.155 . S
O587 C589 1.240 . S
O588 Co561 2.096 . S
O588 C569 1.247 . S
C589 O586 1.244 . S
C589 O587 1.240 . S
H590 C564 0.931 . S
H591 C573 0.931 . S
H592 C577 0.929 . S
H593 C579 0.930 . S
Co594 N598 2.148 . S
Co594 N604 2.128 1_554 S
Co594 N614 2.194 . S
Co594 O619 2.351 . S
Co594 O620 2.155 . S
Co594 O621 2.096 . S
C595 N598 1.301 . S
C595 N599 1.328 . S
C595 H600 0.930 . S
C596 C597 1.333 . S
C596 N598 1.317 . S
C596 H601 0.930 . S
C597 C596 1.333 . S
C597 N599 1.350 . S
C597 H623 0.931 . S
N598 Co594 2.148 . S
N598 C595 1.301 . S
N598 C596 1.317 . S
N599 C595 1.328 . S
N599 C597 1.350 . S
H600 C595 0.930 . S
H601 C596 0.930 . S
C602 O603 1.224 . S
C602 O621 1.247 . S
O603 C602 1.224 . S
N604 Co594 2.128 1_556 S
N604 C605 1.355 . S
N604 C607 1.311 . S
C605 N604 1.355 . S
C605 C606 1.363 . S
C605 H617 0.929 . S
C606 C605 1.363 . S
C606 N608 1.375 . S
C606 H624 0.931 . S
C607 N604 1.311 . S
C607 N608 1.347 . S
C607 H618 0.929 . S
N608 C606 1.375 . S
N608 C607 1.347 . S
C609 C612 1.365 . S
C609 N614 1.328 . S
C609 H615 0.929 . S
C610 C611 1.362 . S
C610 C613 1.378 . S
C610 H625 0.929 . S
C611 C610 1.362 . S
C611 C612 1.366 . S
C612 C609 1.365 . S
C612 C611 1.366 . S
C612 H626 0.930 . S
C613 C610 1.378 . S
C613 N614 1.315 . S
C613 H616 0.930 . S
N614 Co594 2.194 . S
N614 C609 1.328 . S
N614 C613 1.315 . S
H615 C609 0.929 . S
H616 C613 0.930 . S
H617 C605 0.929 . S
H618 C607 0.929 . S
O619 Co594 2.351 . S
O619 C622 1.244 . S
O620 Co594 2.155 . S
O620 C622 1.240 . S
O621 Co594 2.096 . S
O621 C602 1.247 . S
C622 O619 1.244 . S
C622 O620 1.240 . S
H623 C597 0.931 . S
H624 C606 0.931 . S
H625 C610 0.929 . S
H626 C612 0.930 . S
Co627 N631 2.148 . S
Co627 N637 2.128 . S
Co627 N647 2.194 . S
Co627 O652 2.351 . S
Co627 O653 2.155 . S
Co627 O654 2.096 . S
C628 N631 1.301 . S
C628 N632 1.328 . S
C628 H633 0.930 . S
C629 C630 1.333 . S
C629 N631 1.317 . S
C629 H634 0.930 . S
C630 C629 1.333 . S
C630 N632 1.350 . S
C630 H656 0.931 . S
N631 Co627 2.148 . S
N631 C628 1.301 . S
N631 C629 1.317 . S
N632 C628 1.328 . S
N632 C630 1.350 . S
H633 C628 0.930 . S
H634 C629 0.930 . S
C635 O636 1.224 . S
C635 O654 1.247 . S
O636 C635 1.224 . S
N637 Co627 2.128 . S
N637 C638 1.355 . S
N637 C640 1.311 . S
C638 N637 1.355 . S
C638 C639 1.363 . S
C638 H650 0.929 . S
C639 C638 1.363 . S
C639 N641 1.375 . S
C639 H657 0.931 . S
C640 N637 1.311 . S
C640 N641 1.347 . S
C640 H651 0.929 . S
N641 C639 1.375 . S
N641 C640 1.347 . S
C642 C645 1.365 . S
C642 N647 1.328 . S
C642 H648 0.929 . S
C643 C644 1.362 . S
C643 C646 1.378 . S
C643 H658 0.929 . S
C644 C643 1.362 . S
C644 C645 1.366 . S
C645 C642 1.365 . S
C645 C644 1.366 . S
C645 H659 0.930 . S
C646 C643 1.378 . S
C646 N647 1.315 . S
C646 H649 0.930 . S
N647 Co627 2.194 . S
N647 C642 1.328 . S
N647 C646 1.315 . S
H648 C642 0.929 . S
H649 C646 0.930 . S
H650 C638 0.929 . S
H651 C640 0.929 . S
O652 Co627 2.351 . S
O652 C655 1.244 . S
O653 Co627 2.155 . S
O653 C655 1.240 . S
O654 Co627 2.096 . S
O654 C635 1.247 . S
C655 O652 1.244 . S
C655 O653 1.240 . S
H656 C630 0.931 . S
H657 C639 0.931 . S
H658 C643 0.929 . S
H659 C645 0.930 . S
Co660 N664 2.148 . S
Co660 N670 2.128 . S
Co660 N680 2.194 . S
Co660 O685 2.351 . S
Co660 O686 2.155 . S
Co660 O687 2.096 . S
C661 N664 1.301 . S
C661 N665 1.328 . S
C661 H666 0.930 . S
C662 C663 1.333 . S
C662 N664 1.317 . S
C662 H667 0.930 . S
C663 C662 1.333 . S
C663 N665 1.350 . S
C663 H689 0.931 . S
N664 Co660 2.148 . S
N664 C661 1.301 . S
N664 C662 1.317 . S
N665 C661 1.328 . S
N665 C663 1.350 . S
H666 C661 0.930 . S
H667 C662 0.930 . S
C668 O669 1.224 . S
C668 O687 1.247 . S
O669 C668 1.224 . S
N670 Co660 2.128 . S
N670 C671 1.355 . S
N670 C673 1.311 . S
C671 N670 1.355 . S
C671 C672 1.363 . S
C671 H683 0.929 . S
C672 C671 1.363 . S
C672 N674 1.375 . S
C672 H690 0.931 . S
C673 N670 1.311 . S
C673 N674 1.347 . S
C673 H684 0.929 . S
N674 C672 1.375 . S
N674 C673 1.347 . S
C675 C678 1.365 . S
C675 N680 1.328 . S
C675 H681 0.929 . S
C676 C677 1.362 . S
C676 C679 1.378 . S
C676 H691 0.929 . S
C677 C676 1.362 . S
C677 C678 1.366 . S
C678 C675 1.365 . S
C678 C677 1.366 . S
C678 H692 0.930 . S
C679 C676 1.378 . S
C679 N680 1.315 . S
C679 H682 0.930 . S
N680 Co660 2.194 . S
N680 C675 1.328 . S
N680 C679 1.315 . S
H681 C675 0.929 . S
H682 C679 0.930 . S
H683 C671 0.929 . S
H684 C673 0.929 . S
O685 Co660 2.351 . S
O685 C688 1.244 . S
O686 Co660 2.155 . S
O686 C688 1.240 . S
O687 Co660 2.096 . S
O687 C668 1.247 . S
C688 O685 1.244 . S
C688 O686 1.240 . S
H689 C663 0.931 . S
H690 C672 0.931 . S
H691 C676 0.929 . S
H692 C678 0.930 . S
Co693 N697 2.148 . S
Co693 N703 2.128 . S
Co693 N713 2.194 . S
Co693 O718 2.351 . S
Co693 O719 2.155 . S
Co693 O720 2.096 . S
C694 N697 1.301 . S
C694 N698 1.328 . S
C694 H699 0.930 . S
C695 C696 1.333 . S
C695 N697 1.317 . S
C695 H700 0.930 . S
C696 C695 1.333 . S
C696 N698 1.350 . S
C696 H722 0.931 . S
N697 Co693 2.148 . S
N697 C694 1.301 . S
N697 C695 1.317 . S
N698 C694 1.328 . S
N698 C696 1.350 . S
H699 C694 0.930 . S
H700 C695 0.930 . S
C701 O702 1.224 . S
C701 O720 1.247 . S
O702 C701 1.224 . S
N703 Co693 2.128 . S
N703 C704 1.355 . S
N703 C706 1.311 . S
C704 N703 1.355 . S
C704 C705 1.363 . S
C704 H716 0.929 . S
C705 C704 1.363 . S
C705 N707 1.375 . S
C705 H723 0.931 . S
C706 N703 1.311 . S
C706 N707 1.347 . S
C706 H717 0.929 . S
N707 C705 1.375 . S
N707 C706 1.347 . S
C708 C711 1.365 . S
C708 N713 1.328 . S
C708 H714 0.929 . S
C709 C710 1.362 . S
C709 C712 1.378 . S
C709 H724 0.929 . S
C710 C709 1.362 . S
C710 C711 1.366 . S
C711 C708 1.365 . S
C711 C710 1.366 . S
C711 H725 0.930 . S
C712 C709 1.378 . S
C712 N713 1.315 . S
C712 H715 0.930 . S
N713 Co693 2.194 . S
N713 C708 1.328 . S
N713 C712 1.315 . S
H714 C708 0.929 . S
H715 C712 0.930 . S
H716 C704 0.929 . S
H717 C706 0.929 . S
O718 Co693 2.351 . S
O718 C721 1.244 . S
O719 Co693 2.155 . S
O719 C721 1.240 . S
O720 Co693 2.096 . S
O720 C701 1.247 . S
C721 O718 1.244 . S
C721 O719 1.240 . S
H722 C696 0.931 . S
H723 C705 0.931 . S
H724 C709 0.929 . S
H725 C711 0.930 . S
Co726 N730 2.148 . S
Co726 N736 2.128 1_556 S
Co726 N746 2.194 . S
Co726 O751 2.351 . S
Co726 O752 2.155 . S
Co726 O753 2.096 . S
C727 N730 1.301 . S
C727 N731 1.328 . S
C727 H732 0.930 . S
C728 C729 1.333 . S
C728 N730 1.317 . S
C728 H733 0.930 . S
C729 C728 1.333 . S
C729 N731 1.350 . S
C729 H755 0.931 . S
N730 Co726 2.148 . S
N730 C727 1.301 . S
N730 C728 1.317 . S
N731 C727 1.328 . S
N731 C729 1.350 . S
H732 C727 0.930 . S
H733 C728 0.930 . S
C734 O735 1.224 . S
C734 O753 1.247 . S
O735 C734 1.224 . S
N736 Co726 2.128 1_554 S
N736 C737 1.355 . S
N736 C739 1.311 . S
C737 N736 1.355 . S
C737 C738 1.363 . S
C737 H749 0.929 . S
C738 C737 1.363 . S
C738 N740 1.375 . S
C738 H756 0.931 . S
C739 N736 1.311 . S
C739 N740 1.347 . S
C739 H750 0.929 . S
N740 C738 1.375 . S
N740 C739 1.347 . S
C741 C744 1.365 . S
C741 N746 1.328 . S
C741 H747 0.929 . S
C742 C743 1.362 . S
C742 C745 1.378 . S
C742 H757 0.929 . S
C743 C742 1.362 . S
C743 C744 1.366 . S
C744 C741 1.365 . S
C744 C743 1.366 . S
C744 H758 0.930 . S
C745 C742 1.378 . S
C745 N746 1.315 . S
C745 H748 0.930 . S
N746 Co726 2.194 . S
N746 C741 1.328 . S
N746 C745 1.315 . S
H747 C741 0.929 . S
H748 C745 0.930 . S
H749 C737 0.929 . S
H750 C739 0.929 . S
O751 Co726 2.351 . S
O751 C754 1.244 . S
O752 Co726 2.155 . S
O752 C754 1.240 . S
O753 Co726 2.096 . S
O753 C734 1.247 . S
C754 O751 1.244 . S
C754 O752 1.240 . S
H755 C729 0.931 . S
H756 C738 0.931 . S
H757 C742 0.929 . S
H758 C744 0.930 . S
Co759 N763 2.148 . S
Co759 N769 2.128 . S
Co759 N779 2.194 . S
Co759 O784 2.351 . S
Co759 O785 2.155 . S
Co759 O786 2.096 . S
C760 N763 1.301 . S
C760 N764 1.328 1_554 S
C760 H765 0.930 . S
C761 C762 1.333 1_554 S
C761 N763 1.317 . S
C761 H766 0.930 . S
C762 C761 1.333 1_556 S
C762 N764 1.350 . S
C762 H788 0.931 . S
N763 Co759 2.148 . S
N763 C760 1.301 . S
N763 C761 1.317 . S
N764 C760 1.328 1_556 S
N764 C762 1.350 . S
H765 C760 0.930 . S
H766 C761 0.930 . S
C767 O768 1.224 . S
C767 O786 1.247 . S
O768 C767 1.224 . S
N769 Co759 2.128 . S
N769 C770 1.355 . S
N769 C772 1.311 . S
C770 N769 1.355 . S
C770 C771 1.363 . S
C770 H782 0.929 . S
C771 C770 1.363 . S
C771 N773 1.375 . S
C771 H789 0.931 . S
C772 N769 1.311 . S
C772 N773 1.347 . S
C772 H783 0.929 . S
N773 C771 1.375 . S
N773 C772 1.347 . S
C774 C777 1.365 . S
C774 N779 1.328 . S
C774 H780 0.929 . S
C775 C776 1.362 . S
C775 C778 1.378 . S
C775 H790 0.929 . S
C776 C775 1.362 . S
C776 C777 1.366 . S
C777 C774 1.365 . S
C777 C776 1.366 . S
C777 H791 0.930 . S
C778 C775 1.378 . S
C778 N779 1.315 . S
C778 H781 0.930 . S
N779 Co759 2.194 . S
N779 C774 1.328 . S
N779 C778 1.315 . S
H780 C774 0.929 . S
H781 C778 0.930 . S
H782 C770 0.929 . S
H783 C772 0.929 . S
O784 Co759 2.351 . S
O784 C787 1.244 . S
O785 Co759 2.155 . S
O785 C787 1.240 . S
O786 Co759 2.096 . S
O786 C767 1.247 . S
C787 O784 1.244 . S
C787 O785 1.240 . S
H788 C762 0.931 . S
H789 C771 0.931 . S
H790 C775 0.929 . S
H791 C777 0.930 . S
Co792 N796 2.148 . S
Co792 N802 2.128 . S
Co792 N812 2.194 . S
Co792 O817 2.351 . S
Co792 O818 2.155 . S
Co792 O819 2.096 . S
C793 N796 1.301 . S
C793 N797 1.328 . S
C793 H798 0.930 . S
C794 C795 1.333 . S
C794 N796 1.317 . S
C794 H799 0.930 . S
C795 C794 1.333 . S
C795 N797 1.350 . S
C795 H821 0.931 . S
N796 Co792 2.148 . S
N796 C793 1.301 . S
N796 C794 1.317 . S
N797 C793 1.328 . S
N797 C795 1.350 . S
H798 C793 0.930 . S
H799 C794 0.930 . S
C800 O801 1.224 . S
C800 O819 1.247 . S
O801 C800 1.224 . S
N802 Co792 2.128 . S
N802 C803 1.355 . S
N802 C805 1.311 . S
C803 N802 1.355 . S
C803 C804 1.363 . S
C803 H815 0.929 . S
C804 C803 1.363 . S
C804 N806 1.375 . S
C804 H822 0.931 . S
C805 N802 1.311 . S
C805 N806 1.347 . S
C805 H816 0.929 . S
N806 C804 1.375 . S
N806 C805 1.347 . S
C807 C810 1.365 . S
C807 N812 1.328 . S
C807 H813 0.929 . S
C808 C809 1.362 . S
C808 C811 1.378 . S
C808 H823 0.929 . S
C809 C808 1.362 . S
C809 C810 1.366 . S
C810 C807 1.365 . S
C810 C809 1.366 . S
C810 H824 0.930 . S
C811 C808 1.378 . S
C811 N812 1.315 . S
C811 H814 0.930 . S
N812 Co792 2.194 . S
N812 C807 1.328 . S
N812 C811 1.315 . S
H813 C807 0.929 . S
H814 C811 0.930 . S
H815 C803 0.929 . S
H816 C805 0.929 . S
O817 Co792 2.351 . S
O817 C820 1.244 . S
O818 Co792 2.155 . S
O818 C820 1.240 . S
O819 Co792 2.096 . S
O819 C800 1.247 . S
C820 O817 1.244 . S
C820 O818 1.240 . S
H821 C795 0.931 . S
H822 C804 0.931 . S
H823 C808 0.929 . S
H824 C810 0.930 . S
Co825 N829 2.148 . S
Co825 N835 2.128 . S
Co825 N845 2.194 . S
Co825 O850 2.351 . S
Co825 O851 2.155 . S
Co825 O852 2.096 . S
C826 N829 1.301 . S
C826 N830 1.328 1_554 S
C826 H831 0.930 . S
C827 C828 1.333 1_554 S
C827 N829 1.317 . S
C827 H832 0.930 . S
C828 C827 1.333 1_556 S
C828 N830 1.350 . S
C828 H854 0.931 . S
N829 Co825 2.148 . S
N829 C826 1.301 . S
N829 C827 1.317 . S
N830 C826 1.328 1_556 S
N830 C828 1.350 . S
H831 C826 0.930 . S
H832 C827 0.930 . S
C833 O834 1.224 . S
C833 O852 1.247 . S
O834 C833 1.224 . S
N835 Co825 2.128 . S
N835 C836 1.355 . S
N835 C838 1.311 . S
C836 N835 1.355 . S
C836 C837 1.363 . S
C836 H848 0.929 . S
C837 C836 1.363 . S
C837 N839 1.375 . S
C837 H855 0.931 . S
C838 N835 1.311 . S
C838 N839 1.347 . S
C838 H849 0.929 . S
N839 C837 1.375 . S
N839 C838 1.347 . S
C840 C843 1.365 . S
C840 N845 1.328 . S
C840 H846 0.929 . S
C841 C842 1.362 . S
C841 C844 1.378 . S
C841 H856 0.929 . S
C842 C841 1.362 . S
C842 C843 1.366 . S
C843 C840 1.365 . S
C843 C842 1.366 . S
C843 H857 0.930 . S
C844 C841 1.378 . S
C844 N845 1.315 . S
C844 H847 0.930 . S
N845 Co825 2.194 . S
N845 C840 1.328 . S
N845 C844 1.315 . S
H846 C840 0.929 . S
H847 C844 0.930 . S
H848 C836 0.929 . S
H849 C838 0.929 . S
O850 Co825 2.351 . S
O850 C853 1.244 . S
O851 Co825 2.155 . S
O851 C853 1.240 . S
O852 Co825 2.096 . S
O852 C833 1.247 . S
C853 O850 1.244 . S
C853 O851 1.240 . S
H854 C828 0.931 . S
H855 C837 0.931 . S
H856 C841 0.929 . S
H857 C843 0.930 . S
Co858 N862 2.148 . S
Co858 N868 2.128 1_556 S
Co858 N878 2.194 . S
Co858 O883 2.351 . S
Co858 O884 2.155 . S
Co858 O885 2.096 . S
C859 N862 1.301 . S
C859 N863 1.328 . S
C859 H864 0.930 . S
C860 C861 1.333 . S
C860 N862 1.317 . S
C860 H865 0.930 . S
C861 C860 1.333 . S
C861 N863 1.350 . S
C861 H887 0.931 . S
N862 Co858 2.148 . S
N862 C859 1.301 . S
N862 C860 1.317 . S
N863 C859 1.328 . S
N863 C861 1.350 . S
H864 C859 0.930 . S
H865 C860 0.930 . S
C866 O867 1.224 . S
C866 O885 1.247 . S
O867 C866 1.224 . S
N868 Co858 2.128 1_554 S
N868 C869 1.355 . S
N868 C871 1.311 . S
C869 N868 1.355 . S
C869 C870 1.363 . S
C869 H881 0.929 . S
C870 C869 1.363 . S
C870 N872 1.375 . S
C870 H888 0.931 . S
C871 N868 1.311 . S
C871 N872 1.347 . S
C871 H882 0.929 . S
N872 C870 1.375 . S
N872 C871 1.347 . S
C873 C876 1.365 . S
C873 N878 1.328 . S
C873 H879 0.929 . S
C874 C875 1.362 . S
C874 C877 1.378 . S
C874 H889 0.929 . S
C875 C874 1.362 . S
C875 C876 1.366 . S
C876 C873 1.365 . S
C876 C875 1.366 . S
C876 H890 0.930 . S
C877 C874 1.378 . S
C877 N878 1.315 . S
C877 H880 0.930 . S
N878 Co858 2.194 . S
N878 C873 1.328 . S
N878 C877 1.315 . S
H879 C873 0.929 . S
H880 C877 0.930 . S
H881 C869 0.929 . S
H882 C871 0.929 . S
O883 Co858 2.351 . S
O883 C886 1.244 . S
O884 Co858 2.155 . S
O884 C886 1.240 . S
O885 Co858 2.096 . S
O885 C866 1.247 . S
C886 O883 1.244 . S
C886 O884 1.240 . S
H887 C861 0.931 . S
H888 C870 0.931 . S
H889 C874 0.929 . S
H890 C876 0.930 . S
Co891 N895 2.148 . S
Co891 N901 2.128 . S
Co891 N911 2.194 . S
Co891 O916 2.351 . S
Co891 O917 2.155 . S
Co891 O918 2.096 . S
C892 N895 1.301 . S
C892 N896 1.328 . S
C892 H897 0.930 . S
C893 C894 1.333 . S
C893 N895 1.317 . S
C893 H898 0.930 . S
C894 C893 1.333 . S
C894 N896 1.350 . S
C894 H920 0.931 . S
N895 Co891 2.148 . S
N895 C892 1.301 . S
N895 C893 1.317 . S
N896 C892 1.328 . S
N896 C894 1.350 . S
H897 C892 0.930 . S
H898 C893 0.930 . S
C899 O900 1.224 . S
C899 O918 1.247 . S
O900 C899 1.224 . S
N901 Co891 2.128 . S
N901 C902 1.355 . S
N901 C904 1.311 . S
C902 N901 1.355 . S
C902 C903 1.363 . S
C902 H914 0.929 . S
C903 C902 1.363 . S
C903 N905 1.375 . S
C903 H921 0.931 . S
C904 N901 1.311 . S
C904 N905 1.347 . S
C904 H915 0.929 . S
N905 C903 1.375 . S
N905 C904 1.347 . S
C906 C909 1.365 . S
C906 N911 1.328 . S
C906 H912 0.929 . S
C907 C908 1.362 . S
C907 C910 1.378 . S
C907 H922 0.929 . S
C908 C907 1.362 . S
C908 C909 1.366 . S
C909 C906 1.365 . S
C909 C908 1.366 . S
C909 H923 0.930 . S
C910 C907 1.378 . S
C910 N911 1.315 . S
C910 H913 0.930 . S
N911 Co891 2.194 . S
N911 C906 1.328 . S
N911 C910 1.315 . S
H912 C906 0.929 . S
H913 C910 0.930 . S
H914 C902 0.929 . S
H915 C904 0.929 . S
O916 Co891 2.351 . S
O916 C919 1.244 . S
O917 Co891 2.155 . S
O917 C919 1.240 . S
O918 Co891 2.096 . S
O918 C899 1.247 . S
C919 O916 1.244 . S
C919 O917 1.240 . S
H920 C894 0.931 . S
H921 C903 0.931 . S
H922 C907 0.929 . S
H923 C909 0.930 . S
Co924 N928 2.148 . S
Co924 N934 2.128 . S
Co924 N944 2.194 . S
Co924 O949 2.351 . S
Co924 O950 2.155 . S
Co924 O951 2.096 . S
C925 N928 1.301 . S
C925 N929 1.328 . S
C925 H930 0.930 . S
C926 C927 1.333 . S
C926 N928 1.317 . S
C926 H931 0.930 . S
C927 C926 1.333 . S
C927 N929 1.350 . S
C927 H953 0.931 . S
N928 Co924 2.148 . S
N928 C925 1.301 . S
N928 C926 1.317 . S
N929 C925 1.328 . S
N929 C927 1.350 . S
H930 C925 0.930 . S
H931 C926 0.930 . S
C932 O933 1.224 . S
C932 O951 1.247 . S
O933 C932 1.224 . S
N934 Co924 2.128 . S
N934 C935 1.355 . S
N934 C937 1.311 . S
C935 N934 1.355 . S
C935 C936 1.363 . S
C935 H947 0.929 . S
C936 C935 1.363 . S
C936 N938 1.375 . S
C936 H954 0.931 . S
C937 N934 1.311 . S
C937 N938 1.347 . S
C937 H948 0.929 . S
N938 C936 1.375 . S
N938 C937 1.347 . S
C939 C942 1.365 . S
C939 N944 1.328 . S
C939 H945 0.929 . S
C940 C941 1.362 . S
C940 C943 1.378 . S
C940 H955 0.929 . S
C941 C940 1.362 . S
C941 C942 1.366 . S
C942 C939 1.365 . S
C942 C941 1.366 . S
C942 H956 0.930 . S
C943 C940 1.378 . S
C943 N944 1.315 . S
C943 H946 0.930 . S
N944 Co924 2.194 . S
N944 C939 1.328 . S
N944 C943 1.315 . S
H945 C939 0.929 . S
H946 C943 0.930 . S
H947 C935 0.929 . S
H948 C937 0.929 . S
O949 Co924 2.351 . S
O949 C952 1.244 . S
O950 Co924 2.155 . S
O950 C952 1.240 . S
O951 Co924 2.096 . S
O951 C932 1.247 . S
C952 O949 1.244 . S
C952 O950 1.240 . S
H953 C927 0.931 . S
H954 C936 0.931 . S
H955 C940 0.929 . S
H956 C942 0.930 . S
Co957 N961 2.148 . S
Co957 N967 2.128 . S
Co957 N977 2.194 . S
Co957 O982 2.351 . S
Co957 O983 2.155 . S
Co957 O984 2.096 . S
C958 N961 1.301 . S
C958 N962 1.328 . S
C958 H963 0.930 . S
C959 C960 1.333 . S
C959 N961 1.317 . S
C959 H964 0.930 . S
C960 C959 1.333 . S
C960 N962 1.350 . S
C960 H986 0.931 . S
N961 Co957 2.148 . S
N961 C958 1.301 . S
N961 C959 1.317 . S
N962 C958 1.328 . S
N962 C960 1.350 . S
H963 C958 0.930 . S
H964 C959 0.930 . S
C965 O966 1.224 . S
C965 O984 1.247 . S
O966 C965 1.224 . S
N967 Co957 2.128 . S
N967 C968 1.355 . S
N967 C970 1.311 . S
C968 N967 1.355 . S
C968 C969 1.363 . S
C968 H980 0.929 . S
C969 C968 1.363 . S
C969 N971 1.375 . S
C969 H987 0.931 . S
C970 N967 1.311 . S
C970 N971 1.347 . S
C970 H981 0.929 . S
N971 C969 1.375 . S
N971 C970 1.347 . S
C972 C975 1.365 . S
C972 N977 1.328 . S
C972 H978 0.929 . S
C973 C974 1.362 . S
C973 C976 1.378 . S
C973 H988 0.929 . S
C974 C973 1.362 . S
C974 C975 1.366 . S
C975 C972 1.365 . S
C975 C974 1.366 . S
C975 H989 0.930 . S
C976 C973 1.378 . S
C976 N977 1.315 . S
C976 H979 0.930 . S
N977 Co957 2.194 . S
N977 C972 1.328 . S
N977 C976 1.315 . S
H978 C972 0.929 . S
H979 C976 0.930 . S
H980 C968 0.929 . S
H981 C970 0.929 . S
O982 Co957 2.351 . S
O982 C985 1.244 . S
O983 Co957 2.155 . S
O983 C985 1.240 . S
O984 Co957 2.096 . S
O984 C965 1.247 . S
C985 O982 1.244 . S
C985 O983 1.240 . S
H986 C960 0.931 . S
H987 C969 0.931 . S
H988 C973 0.929 . S
H989 C975 0.930 . S
Co990 N994 2.148 . S
Co990 N1000 2.128 1_554 S
Co990 N1010 2.194 . S
Co990 O1015 2.351 . S
Co990 O1016 2.155 . S
Co990 O1017 2.096 . S
C991 N994 1.301 . S
C991 N995 1.328 . S
C991 H996 0.930 . S
C992 C993 1.333 . S
C992 N994 1.317 . S
C992 H997 0.930 . S
C993 C992 1.333 . S
C993 N995 1.350 . S
C993 H1019 0.931 . S
N994 Co990 2.148 . S
N994 C991 1.301 . S
N994 C992 1.317 . S
N995 C991 1.328 . S
N995 C993 1.350 . S
H996 C991 0.930 . S
H997 C992 0.930 . S
C998 O999 1.224 . S
C998 O1017 1.247 . S
O999 C998 1.224 . S
N1000 Co990 2.128 1_556 S
N1000 C1001 1.355 . S
N1000 C1003 1.311 . S
C1001 N1000 1.355 . S
C1001 C1002 1.363 . S
C1001 H1013 0.929 . S
C1002 C1001 1.363 . S
C1002 N1004 1.375 . S
C1002 H1020 0.931 . S
C1003 N1000 1.311 . S
C1003 N1004 1.347 . S
C1003 H1014 0.929 . S
N1004 C1002 1.375 . S
N1004 C1003 1.347 . S
C1005 C1008 1.365 . S
C1005 N1010 1.328 . S
C1005 H1011 0.929 . S
C1006 C1007 1.362 . S
C1006 C1009 1.378 . S
C1006 H1021 0.929 . S
C1007 C1006 1.362 . S
C1007 C1008 1.366 . S
C1008 C1005 1.365 . S
C1008 C1007 1.366 . S
C1008 H1022 0.930 . S
C1009 C1006 1.378 . S
C1009 N1010 1.315 . S
C1009 H1012 0.930 . S
N1010 Co990 2.194 . S
N1010 C1005 1.328 . S
N1010 C1009 1.315 . S
H1011 C1005 0.929 . S
H1012 C1009 0.930 . S
H1013 C1001 0.929 . S
H1014 C1003 0.929 . S
O1015 Co990 2.351 . S
O1015 C1018 1.244 . S
O1016 Co990 2.155 . S
O1016 C1018 1.240 . S
O1017 Co990 2.096 . S
O1017 C998 1.247 . S
C1018 O1015 1.244 . S
C1018 O1016 1.240 . S
H1019 C993 0.931 . S
H1020 C1002 0.931 . S
H1021 C1006 0.929 . S
H1022 C1008 0.930 . S
Co1023 N1027 2.148 . S
Co1023 N1033 2.128 . S
Co1023 N1043 2.194 . S
Co1023 O1048 2.351 . S
Co1023 O1049 2.155 . S
Co1023 O1050 2.096 . S
C1024 N1027 1.301 . S
C1024 N1028 1.328 1_556 S
C1024 H1029 0.930 . S
C1025 C1026 1.333 1_556 S
C1025 N1027 1.317 . S
C1025 H1030 0.930 . S
C1026 C1025 1.333 1_554 S
C1026 N1028 1.350 . S
C1026 H1052 0.931 . S
N1027 Co1023 2.148 . S
N1027 C1024 1.301 . S
N1027 C1025 1.317 . S
N1028 C1024 1.328 1_554 S
N1028 C1026 1.350 . S
H1029 C1024 0.930 . S
H1030 C1025 0.930 . S
C1031 O1032 1.224 . S
C1031 O1050 1.247 . S
O1032 C1031 1.224 . S
N1033 Co1023 2.128 . S
N1033 C1034 1.355 . S
N1033 C1036 1.311 . S
C1034 N1033 1.355 . S
C1034 C1035 1.363 . S
C1034 H1046 0.929 . S
C1035 C1034 1.363 . S
C1035 N1037 1.375 . S
C1035 H1053 0.931 . S
C1036 N1033 1.311 . S
C1036 N1037 1.347 . S
C1036 H1047 0.929 . S
N1037 C1035 1.375 . S
N1037 C1036 1.347 . S
C1038 C1041 1.365 . S
C1038 N1043 1.328 . S
C1038 H1044 0.929 . S
C1039 C1040 1.362 . S
C1039 C1042 1.378 . S
C1039 H1054 0.929 . S
C1040 C1039 1.362 . S
C1040 C1041 1.366 . S
C1041 C1038 1.365 . S
C1041 C1040 1.366 . S
C1041 H1055 0.930 . S
C1042 C1039 1.378 . S
C1042 N1043 1.315 . S
C1042 H1045 0.930 . S
N1043 Co1023 2.194 . S
N1043 C1038 1.328 . S
N1043 C1042 1.315 . S
H1044 C1038 0.929 . S
H1045 C1042 0.930 . S
H1046 C1034 0.929 . S
H1047 C1036 0.929 . S
O1048 Co1023 2.351 . S
O1048 C1051 1.244 . S
O1049 Co1023 2.155 . S
O1049 C1051 1.240 . S
O1050 Co1023 2.096 . S
O1050 C1031 1.247 . S
C1051 O1048 1.244 . S
C1051 O1049 1.240 . S
H1052 C1026 0.931 . S
H1053 C1035 0.931 . S
H1054 C1039 0.929 . S
H1055 C1041 0.930 . S
H1056 C1062 0.930 . S
H1057 C1066 0.930 . S
H1058 C1071 0.929 . S
H1059 C1069 0.929 . S
H1060 C1064 0.929 . S
H1061 C1070 0.929 . S
C1062 H1056 0.930 . S
C1062 C1063 1.367 . S
C1062 C1070 1.378 . S
C1063 C1062 1.367 . S
C1063 C1071 1.433 . S
C1064 H1060 0.929 . S
C1064 C1066 1.378 . S
C1064 C1068 1.350 . S
C1065 C1068 1.463 . S
C1065 C1070 1.350 . S
C1065 N1073 1.427 . S
C1066 H1057 0.930 . S
C1066 C1064 1.378 . S
C1066 C1067 1.367 . S
C1067 C1066 1.367 . S
C1067 C1069 1.433 . S
C1068 C1064 1.350 . S
C1068 C1065 1.463 . S
C1068 N1072 1.427 . S
C1069 H1059 0.929 . S
C1069 C1067 1.433 . S
C1069 N1072 1.384 . S
C1070 H1061 0.929 . S
C1070 C1062 1.378 . S
C1070 C1065 1.350 . S
C1071 H1058 0.929 . S
C1071 C1063 1.433 . S
C1071 N1073 1.384 . S
N1072 C1068 1.427 . S
N1072 C1069 1.384 . S
N1073 C1065 1.427 . S
N1073 C1071 1.384 . S
H1074 C1080 0.930 . S
H1075 C1084 0.930 . S
H1076 C1089 0.929 . S
H1077 C1087 0.929 1_554 S
H1078 C1082 0.929 . S
H1079 C1088 0.929 . S
C1080 H1074 0.930 . S
C1080 C1081 1.367 . S
C1080 C1088 1.378 . S
C1081 C1080 1.367 . S
C1081 C1089 1.433 . S
C1082 H1078 0.929 . S
C1082 C1084 1.378 . S
C1082 C1086 1.350 . S
C1083 C1086 1.463 . S
C1083 C1088 1.350 . S
C1083 N1091 1.427 . S
C1084 H1075 0.930 . S
C1084 C1082 1.378 . S
C1084 C1085 1.367 1_556 S
C1085 C1084 1.367 1_554 S
C1085 C1087 1.433 1_554 S
C1086 C1082 1.350 . S
C1086 C1083 1.463 . S
C1086 N1090 1.427 . S
C1087 H1077 0.929 1_556 S
C1087 C1085 1.433 1_556 S
C1087 N1090 1.384 . S
C1088 H1079 0.929 . S
C1088 C1080 1.378 . S
C1088 C1083 1.350 . S
C1089 H1076 0.929 . S
C1089 C1081 1.433 . S
C1089 N1091 1.384 . S
N1090 C1086 1.427 . S
N1090 C1087 1.384 . S
N1091 C1083 1.427 . S
N1091 C1089 1.384 . S
H1092 C1098 0.930 . S
H1093 C1102 0.930 . S
H1094 C1107 0.929 . S
H1095 C1105 0.929 . S
H1096 C1100 0.929 . S
H1097 C1106 0.929 1_554 S
C1098 H1092 0.930 . S
C1098 C1099 1.367 . S
C1098 C1106 1.378 . S
C1099 C1098 1.367 . S
C1099 C1107 1.433 . S
C1100 H1096 0.929 . S
C1100 C1102 1.378 . S
C1100 C1104 1.350 . S
C1101 C1104 1.463 . S
C1101 C1106 1.350 1_554 S
C1101 N1109 1.427 . S
C1102 H1093 0.930 . S
C1102 C1100 1.378 . S
C1102 C1103 1.367 . S
C1103 C1102 1.367 . S
C1103 C1105 1.433 . S
C1104 C1100 1.350 . S
C1104 C1101 1.463 . S
C1104 N1108 1.427 . S
C1105 H1095 0.929 . S
C1105 C1103 1.433 . S
C1105 N1108 1.384 . S
C1106 H1097 0.929 1_556 S
C1106 C1098 1.378 . S
C1106 C1101 1.350 1_556 S
C1107 H1094 0.929 . S
C1107 C1099 1.433 . S
C1107 N1109 1.384 1_556 S
N1108 C1104 1.427 . S
N1108 C1105 1.384 . S
N1109 C1101 1.427 . S
N1109 C1107 1.384 1_554 S
H1110 C1116 0.930 . S
H1111 C1120 0.930 . S
H1112 C1125 0.929 . S
H1113 C1123 0.929 . S
H1114 C1118 0.929 . S
H1115 C1124 0.929 . S
C1116 H1110 0.930 . S
C1116 C1117 1.367 . S
C1116 C1124 1.378 . S
C1117 C1116 1.367 . S
C1117 C1125 1.433 . S
C1118 H1114 0.929 . S
C1118 C1120 1.378 . S
C1118 C1122 1.350 . S
C1119 C1122 1.463 . S
C1119 C1124 1.350 . S
C1119 N1127 1.427 . S
C1120 H1111 0.930 . S
C1120 C1118 1.378 . S
C1120 C1121 1.367 . S
C1121 C1120 1.367 . S
C1121 C1123 1.433 . S
C1122 C1118 1.350 . S
C1122 C1119 1.463 . S
C1122 N1126 1.427 . S
C1123 H1113 0.929 . S
C1123 C1121 1.433 . S
C1123 N1126 1.384 . S
C1124 H1115 0.929 . S
C1124 C1116 1.378 . S
C1124 C1119 1.350 . S
C1125 H1112 0.929 . S
C1125 C1117 1.433 . S
C1125 N1127 1.384 . S
N1126 C1122 1.427 . S
N1126 C1123 1.384 . S
N1127 C1119 1.427 . S
N1127 C1125 1.384 . S
H1128 C1134 0.930 . S
H1129 C1138 0.930 . S
H1130 C1143 0.929 . S
H1131 C1141 0.929 . S
H1132 C1136 0.929 . S
H1133 C1142 0.929 . S
C1134 H1128 0.930 . S
C1134 C1135 1.367 . S
C1134 C1142 1.378 . S
C1135 C1134 1.367 . S
C1135 C1143 1.433 . S
C1136 H1132 0.929 . S
C1136 C1138 1.378 . S
C1136 C1140 1.350 . S
C1137 C1140 1.463 . S
C1137 C1142 1.350 . S
C1137 N1145 1.427 . S
C1138 H1129 0.930 . S
C1138 C1136 1.378 . S
C1138 C1139 1.367 . S
C1139 C1138 1.367 . S
C1139 C1141 1.433 . S
C1140 C1136 1.350 . S
C1140 C1137 1.463 . S
C1140 N1144 1.427 . S
C1141 H1131 0.929 . S
C1141 C1139 1.433 . S
C1141 N1144 1.384 . S
C1142 H1133 0.929 . S
C1142 C1134 1.378 . S
C1142 C1137 1.350 . S
C1143 H1130 0.929 . S
C1143 C1135 1.433 . S
C1143 N1145 1.384 . S
N1144 C1140 1.427 . S
N1144 C1141 1.384 . S
N1145 C1137 1.427 . S
N1145 C1143 1.384 . S
H1146 C1152 0.930 . S
H1147 C1156 0.930 . S
H1148 C1161 0.929 . S
H1149 C1159 0.929 . S
H1150 C1154 0.929 . S
H1151 C1160 0.929 . S
C1152 H1146 0.930 . S
C1152 C1153 1.367 . S
C1152 C1160 1.378 . S
C1153 C1152 1.367 . S
C1153 C1161 1.433 . S
C1154 H1150 0.929 . S
C1154 C1156 1.378 . S
C1154 C1158 1.350 . S
C1155 C1158 1.463 . S
C1155 C1160 1.350 . S
C1155 N1163 1.427 . S
C1156 H1147 0.930 . S
C1156 C1154 1.378 . S
C1156 C1157 1.367 . S
C1157 C1156 1.367 . S
C1157 C1159 1.433 . S
C1158 C1154 1.350 . S
C1158 C1155 1.463 . S
C1158 N1162 1.427 . S
C1159 H1149 0.929 . S
C1159 C1157 1.433 . S
C1159 N1162 1.384 . S
C1160 H1151 0.929 . S
C1160 C1152 1.378 . S
C1160 C1155 1.350 . S
C1161 H1148 0.929 . S
C1161 C1153 1.433 . S
C1161 N1163 1.384 . S
N1162 C1158 1.427 . S
N1162 C1159 1.384 . S
N1163 C1155 1.427 . S
N1163 C1161 1.384 . S
H1164 C1170 0.930 . S
H1165 C1174 0.930 . S
H1166 C1179 0.929 . S
H1167 C1177 0.929 . S
H1168 C1172 0.929 1_556 S
H1169 C1178 0.929 . S
C1170 H1164 0.930 . S
C1170 C1171 1.367 . S
C1170 C1178 1.378 . S
C1171 C1170 1.367 . S
C1171 C1179 1.433 . S
C1172 H1168 0.929 1_554 S
C1172 C1174 1.378 . S
C1172 C1176 1.350 1_554 S
C1173 C1176 1.463 . S
C1173 C1178 1.350 . S
C1173 N1181 1.427 . S
C1174 H1165 0.930 . S
C1174 C1172 1.378 . S
C1174 C1175 1.367 . S
C1175 C1174 1.367 . S
C1175 C1177 1.433 . S
C1176 C1172 1.350 1_556 S
C1176 C1173 1.463 . S
C1176 N1180 1.432 . S
C1177 H1167 0.929 . S
C1177 C1175 1.433 . S
C1177 N1180 1.374 1_554 S
C1178 H1169 0.929 . S
C1178 C1170 1.378 . S
C1178 C1173 1.350 . S
C1179 H1166 0.929 . S
C1179 C1171 1.433 . S
C1179 N1181 1.384 . S
N1180 C1176 1.432 . S
N1180 C1177 1.374 1_556 S
N1181 C1173 1.427 . S
N1181 C1179 1.384 . S
H1182 C1188 0.930 1_556 S
H1183 C1192 0.930 . S
H1184 C1197 0.921 1_556 S
H1185 C1195 0.929 . S
H1186 C1190 0.929 . S
H1187 C1196 0.929 . S
C1188 H1182 0.930 1_554 S
C1188 C1189 1.367 1_554 S
C1188 C1196 1.378 . S
C1189 C1188 1.367 1_556 S
C1189 C1197 1.433 1_556 S
C1190 H1186 0.929 . S
C1190 C1192 1.378 . S
C1190 C1194 1.350 . S
C1191 C1194 1.463 . S
C1191 C1196 1.350 . S
C1191 N1199 1.427 . S
C1192 H1183 0.930 . S
C1192 C1190 1.378 . S
C1192 C1193 1.367 . S
C1193 C1192 1.367 . S
C1193 C1195 1.433 . S
C1194 C1190 1.350 . S
C1194 C1191 1.463 . S
C1194 N1198 1.427 . S
C1195 H1185 0.929 . S
C1195 C1193 1.433 . S
C1195 N1198 1.384 . S
C1196 H1187 0.929 . S
C1196 C1188 1.378 . S
C1196 C1191 1.350 . S
C1197 H1184 0.921 1_554 S
C1197 C1189 1.433 1_554 S
C1197 N1199 1.384 . S
N1198 C1194 1.427 . S
N1198 C1195 1.384 . S
N1199 C1191 1.427 . S
N1199 C1197 1.384 . S
H1200 C1206 0.930 . S
H1201 C1210 0.930 . S
H1202 C1215 0.929 . S
H1203 C1213 0.929 . S
H1204 C1208 0.929 . S
H1205 C1214 0.929 . S
C1206 H1200 0.930 . S
C1206 C1207 1.367 . S
C1206 C1214 1.378 . S
C1207 C1206 1.367 . S
C1207 C1215 1.433 . S
C1208 H1204 0.929 . S
C1208 C1210 1.378 . S
C1208 C1212 1.350 . S
C1209 C1212 1.463 . S
C1209 C1214 1.350 . S
C1209 N1217 1.427 . S
C1210 H1201 0.930 . S
C1210 C1208 1.378 . S
C1210 C1211 1.367 . S
C1211 C1210 1.367 . S
C1211 C1213 1.433 . S
C1212 C1208 1.350 . S
C1212 C1209 1.463 . S
C1212 N1216 1.427 . S
C1213 H1203 0.929 . S
C1213 C1211 1.433 . S
C1213 N1216 1.384 . S
C1214 H1205 0.929 . S
C1214 C1206 1.378 . S
C1214 C1209 1.350 . S
C1215 H1202 0.929 . S
C1215 C1207 1.433 . S
C1215 N1217 1.384 . S
N1216 C1212 1.427 . S
N1216 C1213 1.384 . S
N1217 C1209 1.427 . S
N1217 C1215 1.384 . S
H1218 C1224 0.930 1_556 S
H1219 C1228 0.930 . S
H1220 C1233 0.929 . S
H1221 C1231 0.929 . S
H1222 C1226 0.929 . S
H1223 C1232 0.929 . S
C1224 H1218 0.930 1_554 S
C1224 C1225 1.367 1_554 S
C1224 C1232 1.378 . S
C1225 C1224 1.367 1_556 S
C1225 C1233 1.433 1_556 S
C1226 H1222 0.929 . S
C1226 C1228 1.378 . S
C1226 C1230 1.350 . S
C1227 C1230 1.463 . S
C1227 C1232 1.350 . S
C1227 N1235 1.427 . S
C1228 H1219 0.930 . S
C1228 C1226 1.378 . S
C1228 C1229 1.367 . S
C1229 C1228 1.367 . S
C1229 C1231 1.433 . S
C1230 C1226 1.350 . S
C1230 C1227 1.463 . S
C1230 N1234 1.427 . S
C1231 H1221 0.929 . S
C1231 C1229 1.433 . S
C1231 N1234 1.384 . S
C1232 H1223 0.929 . S
C1232 C1224 1.378 . S
C1232 C1227 1.350 . S
C1233 H1220 0.929 . S
C1233 C1225 1.433 1_554 S
C1233 N1235 1.384 . S
N1234 C1230 1.427 . S
N1234 C1231 1.384 . S
N1235 C1227 1.427 . S
N1235 C1233 1.384 . S
H1236 C1242 0.930 . S
H1237 C1246 0.930 . S
H1238 C1251 0.929 . S
H1239 C1249 0.929 . S
H1240 C1244 0.929 1_556 S
H1241 C1250 0.929 . S
C1242 H1236 0.930 . S
C1242 C1243 1.367 . S
C1242 C1250 1.378 . S
C1243 C1242 1.367 . S
C1243 C1251 1.433 . S
C1244 H1240 0.929 1_554 S
C1244 C1246 1.376 . S
C1244 C1248 1.351 1_554 S
C1245 C1248 1.463 . S
C1245 C1250 1.350 . S
C1245 N1253 1.427 . S
C1246 H1237 0.930 . S
C1246 C1244 1.376 . S
C1246 C1247 1.367 . S
C1247 C1246 1.367 . S
C1247 C1249 1.433 . S
C1248 C1244 1.351 1_556 S
C1248 C1245 1.463 . S
C1248 N1252 1.427 1_556 S
C1249 H1239 0.929 . S
C1249 C1247 1.433 . S
C1249 N1252 1.384 . S
C1250 H1241 0.929 . S
C1250 C1242 1.378 . S
C1250 C1245 1.350 . S
C1251 H1238 0.929 . S
C1251 C1243 1.433 . S
C1251 N1253 1.384 . S
N1252 C1248 1.427 1_554 S
N1252 C1249 1.384 . S
N1253 C1245 1.427 . S
N1253 C1251 1.384 . S
H1254 C1260 0.930 . S
H1255 C1264 0.930 . S
H1256 C1269 0.929 . S
H1257 C1267 0.929 . S
H1258 C1262 0.929 . S
H1259 C1268 0.929 . S
C1260 H1254 0.930 . S
C1260 C1261 1.367 . S
C1260 C1268 1.378 . S
C1261 C1260 1.367 . S
C1261 C1269 1.433 . S
C1262 H1258 0.929 . S
C1262 C1264 1.378 . S
C1262 C1266 1.350 . S
C1263 C1266 1.463 . S
C1263 C1268 1.350 . S
C1263 N1271 1.427 . S
C1264 H1255 0.930 . S
C1264 C1262 1.378 . S
C1264 C1265 1.367 . S
C1265 C1264 1.367 . S
C1265 C1267 1.433 . S
C1266 C1262 1.350 . S
C1266 C1263 1.463 . S
C1266 N1270 1.427 . S
C1267 H1257 0.929 . S
C1267 C1265 1.433 . S
C1267 N1270 1.384 . S
C1268 H1259 0.929 . S
C1268 C1260 1.378 . S
C1268 C1263 1.350 . S
C1269 H1256 0.929 . S
C1269 C1261 1.433 . S
C1269 N1271 1.384 . S
N1270 C1266 1.427 . S
N1270 C1267 1.384 . S
N1271 C1263 1.427 . S
N1271 C1269 1.384 . S
H1272 C1278 0.930 . S
H1273 C1282 0.930 . S
H1274 C1287 0.929 . S
H1275 C1285 0.929 . S
H1276 C1280 0.929 . S
H1277 C1286 0.929 . S
C1278 H1272 0.930 . S
C1278 C1279 1.367 . S
C1278 C1286 1.378 . S
C1279 C1278 1.367 . S
C1279 C1287 1.433 . S
C1280 H1276 0.929 . S
C1280 C1282 1.378 . S
C1280 C1284 1.350 . S
C1281 C1284 1.463 . S
C1281 C1286 1.350 . S
C1281 N1289 1.427 . S
C1282 H1273 0.930 . S
C1282 C1280 1.378 . S
C1282 C1283 1.367 . S
C1283 C1282 1.367 . S
C1283 C1285 1.433 . S
C1284 C1280 1.350 . S
C1284 C1281 1.463 . S
C1284 N1288 1.427 . S
C1285 H1275 0.929 . S
C1285 C1283 1.433 . S
C1285 N1288 1.384 . S
C1286 H1277 0.929 . S
C1286 C1278 1.378 . S
C1286 C1281 1.350 . S
C1287 H1274 0.929 . S
C1287 C1279 1.433 . S
C1287 N1289 1.384 . S
N1288 C1284 1.427 . S
N1288 C1285 1.384 . S
N1289 C1281 1.427 . S
N1289 C1287 1.384 . S
H1290 C1296 0.930 . S
H1291 C1300 0.930 . S
H1292 C1305 0.929 . S
H1293 C1303 0.929 . S
H1294 C1298 0.929 . S
H1295 C1304 0.929 . S
C1296 H1290 0.930 . S
C1296 C1297 1.367 . S
C1296 C1304 1.378 . S
C1297 C1296 1.367 . S
C1297 C1305 1.433 . S
C1298 H1294 0.929 . S
C1298 C1300 1.378 . S
C1298 C1302 1.350 . S
C1299 C1302 1.463 . S
C1299 C1304 1.350 . S
C1299 N1307 1.427 . S
C1300 H1291 0.930 . S
C1300 C1298 1.378 . S
C1300 C1301 1.367 . S
C1301 C1300 1.367 . S
C1301 C1303 1.433 . S
C1302 C1298 1.350 . S
C1302 C1299 1.463 . S
C1302 N1306 1.427 . S
C1303 H1293 0.929 . S
C1303 C1301 1.433 . S
C1303 N1306 1.384 . S
C1304 H1295 0.929 . S
C1304 C1296 1.378 . S
C1304 C1299 1.350 . S
C1305 H1292 0.929 . S
C1305 C1297 1.433 . S
C1305 N1307 1.384 . S
N1306 C1302 1.427 . S
N1306 C1303 1.384 . S
N1307 C1299 1.427 . S
N1307 C1305 1.384 . S
H1308 C1314 0.930 . S
H1309 C1318 0.930 . S
H1310 C1323 0.929 . S
H1311 C1321 0.929 . S
H1312 C1316 0.929 . S
H1313 C1322 0.929 1_554 S
C1314 H1308 0.930 . S
C1314 C1315 1.367 . S
C1314 C1322 1.378 . S
C1315 C1314 1.367 . S
C1315 C1323 1.433 . S
C1316 H1312 0.929 . S
C1316 C1318 1.378 . S
C1316 C1320 1.350 . S
C1317 C1320 1.463 . S
C1317 C1322 1.350 1_554 S
C1317 N1325 1.431 . S
C1318 H1309 0.930 . S
C1318 C1316 1.378 . S
C1318 C1319 1.367 . S
C1319 C1318 1.367 . S
C1319 C1321 1.433 . S
C1320 C1316 1.350 . S
C1320 C1317 1.463 . S
C1320 N1324 1.427 . S
C1321 H1311 0.929 . S
C1321 C1319 1.433 . S
C1321 N1324 1.384 . S
C1322 H1313 0.929 1_556 S
C1322 C1314 1.378 . S
C1322 C1317 1.350 1_556 S
C1323 H1310 0.929 . S
C1323 C1315 1.433 . S
C1323 N1325 1.376 1_556 S
N1324 C1320 1.427 . S
N1324 C1321 1.384 . S
N1325 C1317 1.431 . S
N1325 C1323 1.376 1_554 S
H1326 C1332 0.930 . S
H1327 C1336 0.930 . S
H1328 C1341 0.929 1_554 S
H1329 C1339 0.929 . S
H1330 C1334 0.929 . S
H1331 C1340 0.929 . S
C1332 H1326 0.930 . S
C1332 C1333 1.367 1_556 S
C1332 C1340 1.378 . S
C1333 C1332 1.367 1_554 S
C1333 C1341 1.433 1_554 S
C1334 H1330 0.929 . S
C1334 C1336 1.378 . S
C1334 C1338 1.350 . S
C1335 C1338 1.463 . S
C1335 C1340 1.350 . S
C1335 N1343 1.427 . S
C1336 H1327 0.930 . S
C1336 C1334 1.378 . S
C1336 C1337 1.367 . S
C1337 C1336 1.367 . S
C1337 C1339 1.433 . S
C1338 C1334 1.350 . S
C1338 C1335 1.463 . S
C1338 N1342 1.427 . S
C1339 H1329 0.929 . S
C1339 C1337 1.433 . S
C1339 N1342 1.384 . S
C1340 H1331 0.929 . S
C1340 C1332 1.378 . S
C1340 C1335 1.350 . S
C1341 H1328 0.929 1_556 S
C1341 C1333 1.433 1_556 S
C1341 N1343 1.384 . S
N1342 C1338 1.427 . S
N1342 C1339 1.384 . S
N1343 C1335 1.427 . S
N1343 C1341 1.384 . S
H1344 C1350 0.930 . S
H1345 C1354 0.930 . S
H1346 C1359 0.929 . S
H1347 C1357 0.929 . S
H1348 C1352 0.929 . S
H1349 C1358 0.929 1_554 S
C1350 H1344 0.930 . S
C1350 C1351 1.367 . S
C1350 C1358 1.378 . S
C1351 C1350 1.367 . S
C1351 C1359 1.433 . S
C1352 H1348 0.929 . S
C1352 C1354 1.378 . S
C1352 C1356 1.350 . S
C1353 C1356 1.463 . S
C1353 C1358 1.350 1_554 S
C1353 N1361 1.427 1_554 S
C1354 H1345 0.930 . S
C1354 C1352 1.378 . S
C1354 C1355 1.367 . S
C1355 C1354 1.367 . S
C1355 C1357 1.433 . S
C1356 C1352 1.350 . S
C1356 C1353 1.463 . S
C1356 N1360 1.427 . S
C1357 H1347 0.929 . S
C1357 C1355 1.433 . S
C1357 N1360 1.384 . S
C1358 H1349 0.929 1_556 S
C1358 C1350 1.378 . S
C1358 C1353 1.350 1_556 S
C1359 H1346 0.929 . S
C1359 C1351 1.433 . S
C1359 N1361 1.385 . S
N1360 C1356 1.427 . S
N1360 C1357 1.384 . S
N1361 C1353 1.427 1_556 S
N1361 C1359 1.385 . S
H1362 C1368 0.930 . S
H1363 C1372 0.930 . S
H1364 C1377 0.929 . S
H1365 C1375 0.929 . S
H1366 C1370 0.929 . S
H1367 C1376 0.929 . S
C1368 H1362 0.930 . S
C1368 C1369 1.367 . S
C1368 C1376 1.378 . S
C1369 C1368 1.367 . S
C1369 C1377 1.433 . S
C1370 H1366 0.929 . S
C1370 C1372 1.378 . S
C1370 C1374 1.350 . S
C1371 C1374 1.463 . S
C1371 C1376 1.350 . S
C1371 N1379 1.427 . S
C1372 H1363 0.930 . S
C1372 C1370 1.378 . S
C1372 C1373 1.367 . S
C1373 C1372 1.367 . S
C1373 C1375 1.433 . S
C1374 C1370 1.350 . S
C1374 C1371 1.463 . S
C1374 N1378 1.427 . S
C1375 H1365 0.929 . S
C1375 C1373 1.433 . S
C1375 N1378 1.384 . S
C1376 H1367 0.929 . S
C1376 C1368 1.378 . S
C1376 C1371 1.350 . S
C1377 H1364 0.929 . S
C1377 C1369 1.433 . S
C1377 N1379 1.384 . S
N1378 C1374 1.427 . S
N1378 C1375 1.384 . S
N1379 C1371 1.427 . S
N1379 C1377 1.384 . S
H1380 C1386 0.930 . S
H1381 C1390 0.930 . S
H1382 C1395 0.929 . S
H1383 C1393 0.929 . S
H1384 C1388 0.929 . S
H1385 C1394 0.929 . S
C1386 H1380 0.930 . S
C1386 C1387 1.367 . S
C1386 C1394 1.378 . S
C1387 C1386 1.367 . S
C1387 C1395 1.433 . S
C1388 H1384 0.929 . S
C1388 C1390 1.378 . S
C1388 C1392 1.350 . S
C1389 C1392 1.463 . S
C1389 C1394 1.350 . S
C1389 N1397 1.427 . S
C1390 H1381 0.930 . S
C1390 C1388 1.378 . S
C1390 C1391 1.367 . S
C1391 C1390 1.367 . S
C1391 C1393 1.433 . S
C1392 C1388 1.350 . S
C1392 C1389 1.463 . S
C1392 N1396 1.427 . S
C1393 H1383 0.929 . S
C1393 C1391 1.433 . S
C1393 N1396 1.384 . S
C1394 H1385 0.929 . S
C1394 C1386 1.378 . S
C1394 C1389 1.350 . S
C1395 H1382 0.929 . S
C1395 C1387 1.433 . S
C1395 N1397 1.384 . S
N1396 C1392 1.427 . S
N1396 C1393 1.384 . S
N1397 C1389 1.427 . S
N1397 C1395 1.384 . S
H1398 C1404 0.930 . S
H1399 C1408 0.930 . S
H1400 C1413 0.929 . S
H1401 C1411 0.929 1_554 S
H1402 C1406 0.929 . S
H1403 C1412 0.929 . S
C1404 H1398 0.930 . S
C1404 C1405 1.367 . S
C1404 C1412 1.378 . S
C1405 C1404 1.367 . S
C1405 C1413 1.433 . S
C1406 H1402 0.929 . S
C1406 C1408 1.378 . S
C1406 C1410 1.350 . S
C1407 C1410 1.463 . S
C1407 C1412 1.350 . S
C1407 N1415 1.427 . S
C1408 H1399 0.930 . S
C1408 C1406 1.378 . S
C1408 C1409 1.367 1_556 S
C1409 C1408 1.367 1_554 S
C1409 C1411 1.433 1_554 S
C1410 C1406 1.350 . S
C1410 C1407 1.463 . S
C1410 N1414 1.427 . S
C1411 H1401 0.929 1_556 S
C1411 C1409 1.433 1_556 S
C1411 N1414 1.384 . S
C1412 H1403 0.929 . S
C1412 C1404 1.378 . S
C1412 C1407 1.350 . S
C1413 H1400 0.929 . S
C1413 C1405 1.433 . S
C1413 N1415 1.384 . S
N1414 C1410 1.427 . S
N1414 C1411 1.384 . S
N1415 C1407 1.427 . S
N1415 C1413 1.384 . S
H1416 C1422 0.930 . S
H1417 C1426 0.930 . S
H1418 C1431 0.929 . S
H1419 C1429 0.929 . S
H1420 C1424 0.929 . S
H1421 C1430 0.929 . S
C1422 H1416 0.930 . S
C1422 C1423 1.367 . S
C1422 C1430 1.377 1_554 S
C1423 C1422 1.367 . S
C1423 C1431 1.433 . S
C1424 H1420 0.929 . S
C1424 C1426 1.378 . S
C1424 C1428 1.350 . S
C1425 C1428 1.463 . S
C1425 C1430 1.350 . S
C1425 N1433 1.427 1_556 S
C1426 H1417 0.930 . S
C1426 C1424 1.378 . S
C1426 C1427 1.367 . S
C1427 C1426 1.367 . S
C1427 C1429 1.433 . S
C1428 C1424 1.350 . S
C1428 C1425 1.463 . S
C1428 N1432 1.427 . S
C1429 H1419 0.929 . S
C1429 C1427 1.433 . S
C1429 N1432 1.384 . S
C1430 H1421 0.929 . S
C1430 C1422 1.377 1_556 S
C1430 C1425 1.350 . S
C1431 H1418 0.929 . S
C1431 C1423 1.433 . S
C1431 N1433 1.384 . S
N1432 C1428 1.427 . S
N1432 C1429 1.384 . S
N1433 C1425 1.427 1_554 S
N1433 C1431 1.384 . S
H1434 C1440 0.930 . S
H1435 C1444 0.930 1_556 S
H1436 C1449 0.929 . S
H1437 C1447 0.929 . S
H1438 C1442 0.929 . S
H1439 C1448 0.929 . S
C1440 H1434 0.930 . S
C1440 C1441 1.367 . S
C1440 C1448 1.378 . S
C1441 C1440 1.367 . S
C1441 C1449 1.433 . S
C1442 H1438 0.929 . S
C1442 C1444 1.378 . S
C1442 C1446 1.350 . S
C1443 C1446 1.463 . S
C1443 C1448 1.350 . S
C1443 N1451 1.427 . S
C1444 H1435 0.930 1_554 S
C1444 C1442 1.378 . S
C1444 C1445 1.367 1_554 S
C1445 C1444 1.367 1_556 S
C1445 C1447 1.433 1_556 S
C1446 C1442 1.350 . S
C1446 C1443 1.463 . S
C1446 N1450 1.427 . S
C1447 H1437 0.929 . S
C1447 C1445 1.433 1_554 S
C1447 N1450 1.384 . S
C1448 H1439 0.929 . S
C1448 C1440 1.378 . S
C1448 C1443 1.350 . S
C1449 H1436 0.929 . S
C1449 C1441 1.433 . S
C1449 N1451 1.384 . S
N1450 C1446 1.427 . S
N1450 C1447 1.384 . S
N1451 C1443 1.427 . S
N1451 C1449 1.384 . S
H1452 C1458 0.930 . S
H1453 C1462 0.930 . S
H1454 C1467 0.929 . S
H1455 C1465 0.929 . S
H1456 C1460 0.929 . S
H1457 C1466 0.929 . S
C1458 H1452 0.930 . S
C1458 C1459 1.367 . S
C1458 C1466 1.378 . S
C1459 C1458 1.367 . S
C1459 C1467 1.433 . S
C1460 H1456 0.929 . S
C1460 C1462 1.378 . S
C1460 C1464 1.350 . S
C1461 C1464 1.463 . S
C1461 C1466 1.350 . S
C1461 N1469 1.427 . S
C1462 H1453 0.930 . S
C1462 C1460 1.378 . S
C1462 C1463 1.367 . S
C1463 C1462 1.367 . S
C1463 C1465 1.433 . S
C1464 C1460 1.350 . S
C1464 C1461 1.463 . S
C1464 N1468 1.427 . S
C1465 H1455 0.929 . S
C1465 C1463 1.433 . S
C1465 N1468 1.384 . S
C1466 H1457 0.929 . S
C1466 C1458 1.378 . S
C1466 C1461 1.350 . S
C1467 H1454 0.929 . S
C1467 C1459 1.433 . S
C1467 N1469 1.384 . S
N1468 C1464 1.427 . S
N1468 C1465 1.384 . S
N1469 C1461 1.427 . S
N1469 C1467 1.384 . S
H1470 C1476 0.930 . S
H1471 C1480 0.930 . S
H1472 C1485 0.929 . S
H1473 C1483 0.929 . S
H1474 C1478 0.929 . S
H1475 C1484 0.929 . S
C1476 H1470 0.930 . S
C1476 C1477 1.367 . S
C1476 C1484 1.378 . S
C1477 C1476 1.367 . S
C1477 C1485 1.433 . S
C1478 H1474 0.929 . S
C1478 C1480 1.378 . S
C1478 C1482 1.350 . S
C1479 C1482 1.463 . S
C1479 C1484 1.350 . S
C1479 N1487 1.427 . S
C1480 H1471 0.930 . S
C1480 C1478 1.378 . S
C1480 C1481 1.367 . S
C1481 C1480 1.367 . S
C1481 C1483 1.433 . S
C1482 C1478 1.350 . S
C1482 C1479 1.463 . S
C1482 N1486 1.427 . S
C1483 H1473 0.929 . S
C1483 C1481 1.433 . S
C1483 N1486 1.384 . S
C1484 H1475 0.929 . S
C1484 C1476 1.378 . S
C1484 C1479 1.350 . S
C1485 H1472 0.929 . S
C1485 C1477 1.433 . S
C1485 N1487 1.384 . S
N1486 C1482 1.427 . S
N1486 C1483 1.384 . S
N1487 C1479 1.427 . S
N1487 C1485 1.384 . S
H1488 C1494 0.930 . S
H1489 C1498 0.930 . S
H1490 C1503 0.929 . S
H1491 C1501 0.929 . S
H1492 C1496 0.929 . S
H1493 C1502 0.929 1_556 S
C1494 H1488 0.930 . S
C1494 C1495 1.367 . S
C1494 C1502 1.378 . S
C1495 C1494 1.367 . S
C1495 C1503 1.433 . S
C1496 H1492 0.929 . S
C1496 C1498 1.378 . S
C1496 C1500 1.350 . S
C1497 C1500 1.463 . S
C1497 C1502 1.350 1_556 S
C1497 N1505 1.427 . S
C1498 H1489 0.930 . S
C1498 C1496 1.378 . S
C1498 C1499 1.367 . S
C1499 C1498 1.367 . S
C1499 C1501 1.433 . S
C1500 C1496 1.350 . S
C1500 C1497 1.463 . S
C1500 N1504 1.427 . S
C1501 H1491 0.929 . S
C1501 C1499 1.433 . S
C1501 N1504 1.384 . S
C1502 H1493 0.929 1_554 S
C1502 C1494 1.378 . S
C1502 C1497 1.350 1_554 S
C1503 H1490 0.929 . S
C1503 C1495 1.433 . S
C1503 N1505 1.385 1_554 S
N1504 C1500 1.427 . S
N1504 C1501 1.384 . S
N1505 C1497 1.427 . S
N1505 C1503 1.385 1_556 S
H1506 C1512 0.930 . S
H1507 C1516 0.930 . S
H1508 C1521 0.929 . S
H1509 C1519 0.929 . S
H1510 C1514 0.929 . S
H1511 C1520 0.929 . S
C1512 H1506 0.930 . S
C1512 C1513 1.367 . S
C1512 C1520 1.378 . S
C1513 C1512 1.367 . S
C1513 C1521 1.433 . S
C1514 H1510 0.929 . S
C1514 C1516 1.378 . S
C1514 C1518 1.350 . S
C1515 C1518 1.463 . S
C1515 C1520 1.350 . S
C1515 N1523 1.427 . S
C1516 H1507 0.930 . S
C1516 C1514 1.378 . S
C1516 C1517 1.367 . S
C1517 C1516 1.367 . S
C1517 C1519 1.433 . S
C1518 C1514 1.350 . S
C1518 C1515 1.463 . S
C1518 N1522 1.427 . S
C1519 H1509 0.929 . S
C1519 C1517 1.433 . S
C1519 N1522 1.384 . S
C1520 H1511 0.929 . S
C1520 C1512 1.378 . S
C1520 C1515 1.350 . S
C1521 H1508 0.929 . S
C1521 C1513 1.433 . S
C1521 N1523 1.384 . S
N1522 C1518 1.427 . S
N1522 C1519 1.384 . S
N1523 C1515 1.427 . S
N1523 C1521 1.384 . S
H1524 C1530 0.930 . S
H1525 C1534 0.930 . S
H1526 C1539 0.929 . S
H1527 C1537 0.929 . S
H1528 C1532 0.929 . S
H1529 C1538 0.929 . S
C1530 H1524 0.930 . S
C1530 C1531 1.367 . S
C1530 C1538 1.378 . S
C1531 C1530 1.367 . S
C1531 C1539 1.433 . S
C1532 H1528 0.929 . S
C1532 C1534 1.378 . S
C1532 C1536 1.350 . S
C1533 C1536 1.463 . S
C1533 C1538 1.350 . S
C1533 N1541 1.427 . S
C1534 H1525 0.930 . S
C1534 C1532 1.378 . S
C1534 C1535 1.367 . S
C1535 C1534 1.367 . S
C1535 C1537 1.433 . S
C1536 C1532 1.350 . S
C1536 C1533 1.463 . S
C1536 N1540 1.427 . S
C1537 H1527 0.929 . S
C1537 C1535 1.433 . S
C1537 N1540 1.384 . S
C1538 H1529 0.929 . S
C1538 C1530 1.378 . S
C1538 C1533 1.350 . S
C1539 H1526 0.929 . S
C1539 C1531 1.433 . S
C1539 N1541 1.384 . S
N1540 C1536 1.427 . S
N1540 C1537 1.384 . S
N1541 C1533 1.427 . S
N1541 C1539 1.384 . S
H1542 C1548 0.930 . S
H1543 C1552 0.930 . S
H1544 C1557 0.929 1_556 S
H1545 C1555 0.929 . S
H1546 C1550 0.929 . S
H1547 C1556 0.929 . S
C1548 H1542 0.930 . S
C1548 C1549 1.367 1_554 S
C1548 C1556 1.378 . S
C1549 C1548 1.367 1_556 S
C1549 C1557 1.433 1_556 S
C1550 H1546 0.929 . S
C1550 C1552 1.378 . S
C1550 C1554 1.350 . S
C1551 C1554 1.463 . S
C1551 C1556 1.350 . S
C1551 N1559 1.427 . S
C1552 H1543 0.930 . S
C1552 C1550 1.378 . S
C1552 C1553 1.367 . S
C1553 C1552 1.367 . S
C1553 C1555 1.433 . S
C1554 C1550 1.350 . S
C1554 C1551 1.463 . S
C1554 N1558 1.427 . S
C1555 H1545 0.929 . S
C1555 C1553 1.433 . S
C1555 N1558 1.384 . S
C1556 H1547 0.929 . S
C1556 C1548 1.378 . S
C1556 C1551 1.350 . S
C1557 H1544 0.929 1_554 S
C1557 C1549 1.433 1_554 S
C1557 N1559 1.384 . S
N1558 C1554 1.427 . S
N1558 C1555 1.384 . S
N1559 C1551 1.427 . S
N1559 C1557 1.384 . S
H1560 C1566 0.930 . S
H1561 C1570 0.930 . S
H1562 C1575 0.929 . S
H1563 C1573 0.929 . S
H1564 C1568 0.927 1_554 S
H1565 C1574 0.929 . S
C1566 H1560 0.930 . S
C1566 C1567 1.367 . S
C1566 C1574 1.378 . S
C1567 C1566 1.367 . S
C1567 C1575 1.433 . S
C1568 H1564 0.927 1_556 S
C1568 C1570 1.381 . S
C1568 C1572 1.348 1_556 S
C1569 C1572 1.463 . S
C1569 C1574 1.350 . S
C1569 N1577 1.427 . S
C1570 H1561 0.930 . S
C1570 C1568 1.381 . S
C1570 C1571 1.367 . S
C1571 C1570 1.367 . S
C1571 C1573 1.433 . S
C1572 C1568 1.348 1_554 S
C1572 C1569 1.463 . S
C1572 N1576 1.427 1_554 S
C1573 H1563 0.929 . S
C1573 C1571 1.433 . S
C1573 N1576 1.384 . S
C1574 H1565 0.929 . S
C1574 C1566 1.378 . S
C1574 C1569 1.350 . S
C1575 H1562 0.929 . S
C1575 C1567 1.433 . S
C1575 N1577 1.384 . S
N1576 C1572 1.427 1_556 S
N1576 C1573 1.384 . S
N1577 C1569 1.427 . S
N1577 C1575 1.384 . S
H1578 C1584 0.930 . S
H1579 C1588 0.930 . S
H1580 C1593 0.929 1_554 S
H1581 C1591 0.929 . S
H1582 C1586 0.929 . S
H1583 C1592 0.929 . S
C1584 H1578 0.930 . S
C1584 C1585 1.367 1_556 S
C1584 C1592 1.378 . S
C1585 C1584 1.367 1_554 S
C1585 C1593 1.433 1_554 S
C1586 H1582 0.929 . S
C1586 C1588 1.378 . S
C1586 C1590 1.350 . S
C1587 C1590 1.463 . S
C1587 C1592 1.350 . S
C1587 N1595 1.427 . S
C1588 H1579 0.930 . S
C1588 C1586 1.378 . S
C1588 C1589 1.367 . S
C1589 C1588 1.367 . S
C1589 C1591 1.433 . S
C1590 C1586 1.350 . S
C1590 C1587 1.463 . S
C1590 N1594 1.427 . S
C1591 H1581 0.929 . S
C1591 C1589 1.433 . S
C1591 N1594 1.384 . S
C1592 H1583 0.929 . S
C1592 C1584 1.378 . S
C1592 C1587 1.350 . S
C1593 H1580 0.929 1_556 S
C1593 C1585 1.433 1_556 S
C1593 N1595 1.384 . S
N1594 C1590 1.427 . S
N1594 C1591 1.384 . S
N1595 C1587 1.427 . S
N1595 C1593 1.384 . S
H1596 C1602 0.930 . S
H1597 C1606 0.930 . S
H1598 C1611 0.929 . S
H1599 C1609 0.929 . S
H1600 C1604 0.929 . S
H1601 C1610 0.929 . S
C1602 H1596 0.930 . S
C1602 C1603 1.367 . S
C1602 C1610 1.378 . S
C1603 C1602 1.367 . S
C1603 C1611 1.433 . S
C1604 H1600 0.929 . S
C1604 C1606 1.378 . S
C1604 C1608 1.350 . S
C1605 C1608 1.463 . S
C1605 C1610 1.350 . S
C1605 N1613 1.427 . S
C1606 H1597 0.930 . S
C1606 C1604 1.378 . S
C1606 C1607 1.367 . S
C1607 C1606 1.367 . S
C1607 C1609 1.433 . S
C1608 C1604 1.350 . S
C1608 C1605 1.463 . S
C1608 N1612 1.427 . S
C1609 H1599 0.929 . S
C1609 C1607 1.433 . S
C1609 N1612 1.384 . S
C1610 H1601 0.929 . S
C1610 C1602 1.378 . S
C1610 C1605 1.350 . S
C1611 H1598 0.929 . S
C1611 C1603 1.433 . S
C1611 N1613 1.384 . S
N1612 C1608 1.427 . S
N1612 C1609 1.384 . S
N1613 C1605 1.427 . S
N1613 C1611 1.384 . S
H1614 C1620 0.930 . S
H1615 C1624 0.930 . S
H1616 C1629 0.929 . S
H1617 C1627 0.929 . S
H1618 C1622 0.929 . S
H1619 C1628 0.929 . S
C1620 H1614 0.930 . S
C1620 C1621 1.367 . S
C1620 C1628 1.378 . S
C1621 C1620 1.367 . S
C1621 C1629 1.433 . S
C1622 H1618 0.929 . S
C1622 C1624 1.378 . S
C1622 C1626 1.350 . S
C1623 C1626 1.463 . S
C1623 C1628 1.350 . S
C1623 N1631 1.427 . S
C1624 H1615 0.930 . S
C1624 C1622 1.378 . S
C1624 C1625 1.367 . S
C1625 C1624 1.367 . S
C1625 C1627 1.433 . S
C1626 C1622 1.350 . S
C1626 C1623 1.463 . S
C1626 N1630 1.427 . S
C1627 H1617 0.929 . S
C1627 C1625 1.433 . S
C1627 N1630 1.384 . S
C1628 H1619 0.929 . S
C1628 C1620 1.378 . S
C1628 C1623 1.350 . S
C1629 H1616 0.929 . S
C1629 C1621 1.433 . S
C1629 N1631 1.384 . S
N1630 C1626 1.427 . S
N1630 C1627 1.384 . S
N1631 C1623 1.427 . S
N1631 C1629 1.384 . S
H1632 C1638 0.930 . S
H1633 C1642 0.930 . S
H1634 C1647 0.929 . S
H1635 C1645 0.929 . S
H1636 C1640 0.929 . S
H1637 C1646 0.929 . S
C1638 H1632 0.930 . S
C1638 C1639 1.367 . S
C1638 C1646 1.378 . S
C1639 C1638 1.367 . S
C1639 C1647 1.433 . S
C1640 H1636 0.929 . S
C1640 C1642 1.378 . S
C1640 C1644 1.350 . S
C1641 C1644 1.463 . S
C1641 C1646 1.350 . S
C1641 N1649 1.427 . S
C1642 H1633 0.930 . S
C1642 C1640 1.378 . S
C1642 C1643 1.367 . S
C1643 C1642 1.367 . S
C1643 C1645 1.433 . S
C1644 C1640 1.350 . S
C1644 C1641 1.463 . S
C1644 N1648 1.427 . S
C1645 H1635 0.929 . S
C1645 C1643 1.433 . S
C1645 N1648 1.384 . S
C1646 H1637 0.929 . S
C1646 C1638 1.378 . S
C1646 C1641 1.350 . S
C1647 H1634 0.929 . S
C1647 C1639 1.433 . S
C1647 N1649 1.384 . S
N1648 C1644 1.427 . S
N1648 C1645 1.384 . S
N1649 C1641 1.427 . S
N1649 C1647 1.384 . S
H1650 C1656 0.930 . S
H1651 C1660 0.930 . S
H1652 C1665 0.929 . S
H1653 C1663 0.929 . S
H1654 C1658 0.929 . S
H1655 C1664 0.929 . S
C1656 H1650 0.930 . S
C1656 C1657 1.367 . S
C1656 C1664 1.378 . S
C1657 C1656 1.367 . S
C1657 C1665 1.433 . S
C1658 H1654 0.929 . S
C1658 C1660 1.378 . S
C1658 C1662 1.350 . S
C1659 C1662 1.463 . S
C1659 C1664 1.350 . S
C1659 N1667 1.427 . S
C1660 H1651 0.930 . S
C1660 C1658 1.378 . S
C1660 C1661 1.367 . S
C1661 C1660 1.367 . S
C1661 C1663 1.433 . S
C1662 C1658 1.350 . S
C1662 C1659 1.463 . S
C1662 N1666 1.427 . S
C1663 H1653 0.929 . S
C1663 C1661 1.433 . S
C1663 N1666 1.384 . S
C1664 H1655 0.929 . S
C1664 C1656 1.378 . S
C1664 C1659 1.350 . S
C1665 H1652 0.929 . S
C1665 C1657 1.433 . S
C1665 N1667 1.384 . S
N1666 C1662 1.427 . S
N1666 C1663 1.384 . S
N1667 C1659 1.427 . S
N1667 C1665 1.384 . S
H1668 C1674 0.930 . S
H1669 C1678 0.930 . S
H1670 C1683 0.929 . S
H1671 C1681 0.929 . S
H1672 C1676 0.929 . S
H1673 C1682 0.929 . S
C1674 H1668 0.930 . S
C1674 C1675 1.367 . S
C1674 C1682 1.378 . S
C1675 C1674 1.367 . S
C1675 C1683 1.433 . S
C1676 H1672 0.929 . S
C1676 C1678 1.378 . S
C1676 C1680 1.350 . S
C1677 C1680 1.463 . S
C1677 C1682 1.350 . S
C1677 N1685 1.427 . S
C1678 H1669 0.930 . S
C1678 C1676 1.378 . S
C1678 C1679 1.367 . S
C1679 C1678 1.367 . S
C1679 C1681 1.433 . S
C1680 C1676 1.350 . S
C1680 C1677 1.463 . S
C1680 N1684 1.427 . S
C1681 H1671 0.929 . S
C1681 C1679 1.433 . S
C1681 N1684 1.384 . S
C1682 H1673 0.929 . S
C1682 C1674 1.378 . S
C1682 C1677 1.350 . S
C1683 H1670 0.929 . S
C1683 C1675 1.433 . S
C1683 N1685 1.384 . S
N1684 C1680 1.427 . S
N1684 C1681 1.384 . S
N1685 C1677 1.427 . S
N1685 C1683 1.384 . S
H1686 C1692 0.930 . S
H1687 C1696 0.930 . S
H1688 C1701 0.929 1_554 S
H1689 C1699 0.929 . S
H1690 C1694 0.929 . S
H1691 C1700 0.929 . S
C1692 H1686 0.930 . S
C1692 C1693 1.367 . S
C1692 C1700 1.378 . S
C1693 C1692 1.367 . S
C1693 C1701 1.433 . S
C1694 H1690 0.929 . S
C1694 C1696 1.378 . S
C1694 C1698 1.350 . S
C1695 C1698 1.463 . S
C1695 C1700 1.350 . S
C1695 N1703 1.427 . S
C1696 H1687 0.930 . S
C1696 C1694 1.378 . S
C1696 C1697 1.367 . S
C1697 C1696 1.367 . S
C1697 C1699 1.433 . S
C1698 C1694 1.350 . S
C1698 C1695 1.463 . S
C1698 N1702 1.427 . S
C1699 H1689 0.929 . S
C1699 C1697 1.433 . S
C1699 N1702 1.384 . S
C1700 H1691 0.929 . S
C1700 C1692 1.378 . S
C1700 C1695 1.350 . S
C1701 H1688 0.929 1_556 S
C1701 C1693 1.433 . S
C1701 N1703 1.384 . S
N1702 C1698 1.427 . S
N1702 C1699 1.384 . S
N1703 C1695 1.427 . S
N1703 C1701 1.384 . S
H1704 C1710 0.930 . S
H1705 C1714 0.930 . S
H1706 C1719 0.929 . S
H1707 C1717 0.929 1_554 S
H1708 C1712 0.929 . S
H1709 C1718 0.929 . S
C1710 H1704 0.930 . S
C1710 C1711 1.367 . S
C1710 C1718 1.378 . S
C1711 C1710 1.367 . S
C1711 C1719 1.433 . S
C1712 H1708 0.929 . S
C1712 C1714 1.378 . S
C1712 C1716 1.350 . S
C1713 C1716 1.463 . S
C1713 C1718 1.350 . S
C1713 N1721 1.427 . S
C1714 H1705 0.930 . S
C1714 C1712 1.378 . S
C1714 C1715 1.367 . S
C1715 C1714 1.367 . S
C1715 C1717 1.433 . S
C1716 C1712 1.350 . S
C1716 C1713 1.463 . S
C1716 N1720 1.427 . S
C1717 H1707 0.929 1_556 S
C1717 C1715 1.433 . S
C1717 N1720 1.384 . S
C1718 H1709 0.929 . S
C1718 C1710 1.378 . S
C1718 C1713 1.350 . S
C1719 H1706 0.929 . S
C1719 C1711 1.433 . S
C1719 N1721 1.384 . S
N1720 C1716 1.427 . S
N1720 C1717 1.384 . S
N1721 C1713 1.427 . S
N1721 C1719 1.384 . S
H1722 C1728 0.930 . S
H1723 C1732 0.930 . S
H1724 C1737 0.929 . S
H1725 C1735 0.929 . S
H1726 C1730 0.929 . S
H1727 C1736 0.929 . S
C1728 H1722 0.930 . S
C1728 C1729 1.367 . S
C1728 C1736 1.378 . S
C1729 C1728 1.367 . S
C1729 C1737 1.433 . S
C1730 H1726 0.929 . S
C1730 C1732 1.378 . S
C1730 C1734 1.350 . S
C1731 C1734 1.463 . S
C1731 C1736 1.350 . S
C1731 N1739 1.427 . S
C1732 H1723 0.930 . S
C1732 C1730 1.378 . S
C1732 C1733 1.367 . S
C1733 C1732 1.367 . S
C1733 C1735 1.433 . S
C1734 C1730 1.350 . S
C1734 C1731 1.463 . S
C1734 N1738 1.427 . S
C1735 H1725 0.929 . S
C1735 C1733 1.433 . S
C1735 N1738 1.384 . S
C1736 H1727 0.929 . S
C1736 C1728 1.378 . S
C1736 C1731 1.350 . S
C1737 H1724 0.929 . S
C1737 C1729 1.433 . S
C1737 N1739 1.384 . S
N1738 C1734 1.427 . S
N1738 C1735 1.384 . S
N1739 C1731 1.427 . S
N1739 C1737 1.384 . S
H1740 C1746 0.930 . S
H1741 C1750 0.930 . S
H1742 C1755 0.929 . S
H1743 C1753 0.929 . S
H1744 C1748 0.929 . S
H1745 C1754 0.929 . S
C1746 H1740 0.930 . S
C1746 C1747 1.367 . S
C1746 C1754 1.378 . S
C1747 C1746 1.367 . S
C1747 C1755 1.433 . S
C1748 H1744 0.929 . S
C1748 C1750 1.378 . S
C1748 C1752 1.350 . S
C1749 C1752 1.463 . S
C1749 C1754 1.350 . S
C1749 N1757 1.427 . S
C1750 H1741 0.930 . S
C1750 C1748 1.378 . S
C1750 C1751 1.367 . S
C1751 C1750 1.367 . S
C1751 C1753 1.433 . S
C1752 C1748 1.350 . S
C1752 C1749 1.463 . S
C1752 N1756 1.427 . S
C1753 H1743 0.929 . S
C1753 C1751 1.433 . S
C1753 N1756 1.384 . S
C1754 H1745 0.929 . S
C1754 C1746 1.378 . S
C1754 C1749 1.350 . S
C1755 H1742 0.929 . S
C1755 C1747 1.433 . S
C1755 N1757 1.384 . S
N1756 C1752 1.427 . S
N1756 C1753 1.384 . S
N1757 C1749 1.427 . S
N1757 C1755 1.384 . S
H1758 C1764 0.930 . S
H1759 C1768 0.930 . S
H1760 C1773 0.929 . S
H1761 C1771 0.929 . S
H1762 C1766 0.929 . S
H1763 C1772 0.929 . S
C1764 H1758 0.930 . S
C1764 C1765 1.367 . S
C1764 C1772 1.378 . S
C1765 C1764 1.367 . S
C1765 C1773 1.433 . S
C1766 H1762 0.929 . S
C1766 C1768 1.378 . S
C1766 C1770 1.350 . S
C1767 C1770 1.463 . S
C1767 C1772 1.350 . S
C1767 N1775 1.427 . S
C1768 H1759 0.930 . S
C1768 C1766 1.378 . S
C1768 C1769 1.367 . S
C1769 C1768 1.367 . S
C1769 C1771 1.433 . S
C1770 C1766 1.350 . S
C1770 C1767 1.463 . S
C1770 N1774 1.427 . S
C1771 H1761 0.929 . S
C1771 C1769 1.433 . S
C1771 N1774 1.384 . S
C1772 H1763 0.929 . S
C1772 C1764 1.378 . S
C1772 C1767 1.350 . S
C1773 H1760 0.929 . S
C1773 C1765 1.433 . S
C1773 N1775 1.384 . S
N1774 C1770 1.427 . S
N1774 C1771 1.384 . S
N1775 C1767 1.427 . S
N1775 C1773 1.384 . S
H1776 C1782 0.930 . S
H1777 C1786 0.930 1_554 S
H1778 C1791 0.929 . S
H1779 C1789 0.929 . S
H1780 C1784 0.929 . S
H1781 C1790 0.929 . S
C1782 H1776 0.930 . S
C1782 C1783 1.367 . S
C1782 C1790 1.378 . S
C1783 C1782 1.367 . S
C1783 C1791 1.433 . S
C1784 H1780 0.929 . S
C1784 C1786 1.378 . S
C1784 C1788 1.350 . S
C1785 C1788 1.463 . S
C1785 C1790 1.350 . S
C1785 N1793 1.427 . S
C1786 H1777 0.930 1_556 S
C1786 C1784 1.378 . S
C1786 C1787 1.367 . S
C1787 C1786 1.367 . S
C1787 C1789 1.433 . S
C1788 C1784 1.350 . S
C1788 C1785 1.463 . S
C1788 N1792 1.427 . S
C1789 H1779 0.929 . S
C1789 C1787 1.433 . S
C1789 N1792 1.384 . S
C1790 H1781 0.929 . S
C1790 C1782 1.378 . S
C1790 C1785 1.350 . S
C1791 H1778 0.929 . S
C1791 C1783 1.433 . S
C1791 N1793 1.384 . S
N1792 C1788 1.427 . S
N1792 C1789 1.384 . S
N1793 C1785 1.427 . S
N1793 C1791 1.384 . S
H1794 C1800 0.930 . S
H1795 C1804 0.930 . S
H1796 C1809 0.929 . S
H1797 C1807 0.929 . S
H1798 C1802 0.929 . S
H1799 C1808 0.929 . S
C1800 H1794 0.930 . S
C1800 C1801 1.367 . S
C1800 C1808 1.378 . S
C1801 C1800 1.367 . S
C1801 C1809 1.433 . S
C1802 H1798 0.929 . S
C1802 C1804 1.378 . S
C1802 C1806 1.350 . S
C1803 C1806 1.463 . S
C1803 C1808 1.350 . S
C1803 N1811 1.427 . S
C1804 H1795 0.930 . S
C1804 C1802 1.378 . S
C1804 C1805 1.367 . S
C1805 C1804 1.367 . S
C1805 C1807 1.433 . S
C1806 C1802 1.350 . S
C1806 C1803 1.463 . S
C1806 N1810 1.427 . S
C1807 H1797 0.929 . S
C1807 C1805 1.433 . S
C1807 N1810 1.384 . S
C1808 H1799 0.929 . S
C1808 C1800 1.378 . S
C1808 C1803 1.350 . S
C1809 H1796 0.929 . S
C1809 C1801 1.433 . S
C1809 N1811 1.384 . S
N1810 C1806 1.427 . S
N1810 C1807 1.384 . S
N1811 C1803 1.427 . S
N1811 C1809 1.384 . S
H1812 C1818 0.930 . S
H1813 C1822 0.930 . S
H1814 C1827 0.929 . S
H1815 C1825 0.929 . S
H1816 C1820 0.929 . S
H1817 C1826 0.929 . S
C1818 H1812 0.930 . S
C1818 C1819 1.367 . S
C1818 C1826 1.378 . S
C1819 C1818 1.367 . S
C1819 C1827 1.433 . S
C1820 H1816 0.929 . S
C1820 C1822 1.378 . S
C1820 C1824 1.350 . S
C1821 C1824 1.463 . S
C1821 C1826 1.350 . S
C1821 N1829 1.427 . S
C1822 H1813 0.930 . S
C1822 C1820 1.378 . S
C1822 C1823 1.367 . S
C1823 C1822 1.367 . S
C1823 C1825 1.433 . S
C1824 C1820 1.350 . S
C1824 C1821 1.463 . S
C1824 N1828 1.427 . S
C1825 H1815 0.929 . S
C1825 C1823 1.433 . S
C1825 N1828 1.384 . S
C1826 H1817 0.929 . S
C1826 C1818 1.378 . S
C1826 C1821 1.350 . S
C1827 H1814 0.929 . S
C1827 C1819 1.433 . S
C1827 N1829 1.384 . S
N1828 C1824 1.427 . S
N1828 C1825 1.384 . S
N1829 C1821 1.427 . S
N1829 C1827 1.384 . S
H1830 C1836 0.930 . S
H1831 C1840 0.930 . S
H1832 C1845 0.929 . S
H1833 C1843 0.929 . S
H1834 C1838 0.929 . S
H1835 C1844 0.929 . S
C1836 H1830 0.930 . S
C1836 C1837 1.367 . S
C1836 C1844 1.378 . S
C1837 C1836 1.367 . S
C1837 C1845 1.433 . S
C1838 H1834 0.929 . S
C1838 C1840 1.378 . S
C1838 C1842 1.350 . S
C1839 C1842 1.463 . S
C1839 C1844 1.350 . S
C1839 N1847 1.427 . S
C1840 H1831 0.930 . S
C1840 C1838 1.378 . S
C1840 C1841 1.367 . S
C1841 C1840 1.367 . S
C1841 C1843 1.433 . S
C1842 C1838 1.350 . S
C1842 C1839 1.463 . S
C1842 N1846 1.427 . S
C1843 H1833 0.929 . S
C1843 C1841 1.433 . S
C1843 N1846 1.384 . S
C1844 H1835 0.929 . S
C1844 C1836 1.378 . S
C1844 C1839 1.350 . S
C1845 H1832 0.929 . S
C1845 C1837 1.433 . S
C1845 N1847 1.384 . S
N1846 C1842 1.427 . S
N1846 C1843 1.384 . S
N1847 C1839 1.427 . S
N1847 C1845 1.384 . S
H1848 C1854 0.930 . S
H1849 C1858 0.930 . S
H1850 C1863 0.929 1_556 S
H1851 C1861 0.929 . S
H1852 C1856 0.929 . S
H1853 C1862 0.929 . S
C1854 H1848 0.930 . S
C1854 C1855 1.367 . S
C1854 C1862 1.378 . S
C1855 C1854 1.367 . S
C1855 C1863 1.433 . S
C1856 H1852 0.929 . S
C1856 C1858 1.378 . S
C1856 C1860 1.350 . S
C1857 C1860 1.463 . S
C1857 C1862 1.350 . S
C1857 N1865 1.427 . S
C1858 H1849 0.930 . S
C1858 C1856 1.378 . S
C1858 C1859 1.367 . S
C1859 C1858 1.367 . S
C1859 C1861 1.433 . S
C1860 C1856 1.350 . S
C1860 C1857 1.463 . S
C1860 N1864 1.427 . S
C1861 H1851 0.929 . S
C1861 C1859 1.433 . S
C1861 N1864 1.384 . S
C1862 H1853 0.929 . S
C1862 C1854 1.378 . S
C1862 C1857 1.350 . S
C1863 H1850 0.929 1_554 S
C1863 C1855 1.433 . S
C1863 N1865 1.384 . S
N1864 C1860 1.427 . S
N1864 C1861 1.384 . S
N1865 C1857 1.427 . S
N1865 C1863 1.384 . S
H1866 C1872 0.930 . S
H1867 C1876 0.930 . S
H1868 C1881 0.929 . S
H1869 C1879 0.929 . S
H1870 C1874 0.929 . S
H1871 C1880 0.929 . S
C1872 H1866 0.930 . S
C1872 C1873 1.367 . S
C1872 C1880 1.378 . S
C1873 C1872 1.367 . S
C1873 C1881 1.433 . S
C1874 H1870 0.929 . S
C1874 C1876 1.378 . S
C1874 C1878 1.350 . S
C1875 C1878 1.463 . S
C1875 C1880 1.350 . S
C1875 N1883 1.427 . S
C1876 H1867 0.930 . S
C1876 C1874 1.378 . S
C1876 C1877 1.367 . S
C1877 C1876 1.367 . S
C1877 C1879 1.433 . S
C1878 C1874 1.350 . S
C1878 C1875 1.463 . S
C1878 N1882 1.427 . S
C1879 H1869 0.929 . S
C1879 C1877 1.433 . S
C1879 N1882 1.384 . S
C1880 H1871 0.929 . S
C1880 C1872 1.378 . S
C1880 C1875 1.350 . S
C1881 H1868 0.929 . S
C1881 C1873 1.433 . S
C1881 N1883 1.384 . S
N1882 C1878 1.427 . S
N1882 C1879 1.384 . S
N1883 C1875 1.427 . S
N1883 C1881 1.384 . S
H1884 C1890 0.930 . S
H1885 C1894 0.930 . S
H1886 C1899 0.929 . S
H1887 C1897 0.929 . S
H1888 C1892 0.929 . S
H1889 C1898 0.929 . S
C1890 H1884 0.930 . S
C1890 C1891 1.367 . S
C1890 C1898 1.378 . S
C1891 C1890 1.367 . S
C1891 C1899 1.433 . S
C1892 H1888 0.929 . S
C1892 C1894 1.378 . S
C1892 C1896 1.350 . S
C1893 C1896 1.463 . S
C1893 C1898 1.350 . S
C1893 N1901 1.427 . S
C1894 H1885 0.930 . S
C1894 C1892 1.378 . S
C1894 C1895 1.367 . S
C1895 C1894 1.367 . S
C1895 C1897 1.433 . S
C1896 C1892 1.350 . S
C1896 C1893 1.463 . S
C1896 N1900 1.427 . S
C1897 H1887 0.929 . S
C1897 C1895 1.433 . S
C1897 N1900 1.384 . S
C1898 H1889 0.929 . S
C1898 C1890 1.378 . S
C1898 C1893 1.350 . S
C1899 H1886 0.929 . S
C1899 C1891 1.433 . S
C1899 N1901 1.384 . S
N1900 C1896 1.427 . S
N1900 C1897 1.384 . S
N1901 C1893 1.427 . S
N1901 C1899 1.384 . S
H1902 C1908 0.930 . S
H1903 C1912 0.930 . S
H1904 C1917 0.929 . S
H1905 C1915 0.929 . S
H1906 C1910 0.929 . S
H1907 C1916 0.929 . S
C1908 H1902 0.930 . S
C1908 C1909 1.367 . S
C1908 C1916 1.378 . S
C1909 C1908 1.367 . S
C1909 C1917 1.433 . S
C1910 H1906 0.929 . S
C1910 C1912 1.378 . S
C1910 C1914 1.350 . S
C1911 C1914 1.463 . S
C1911 C1916 1.350 . S
C1911 N1919 1.427 . S
C1912 H1903 0.930 . S
C1912 C1910 1.378 . S
C1912 C1913 1.367 . S
C1913 C1912 1.367 . S
C1913 C1915 1.433 . S
C1914 C1910 1.350 . S
C1914 C1911 1.463 . S
C1914 N1918 1.427 . S
C1915 H1905 0.929 . S
C1915 C1913 1.433 . S
C1915 N1918 1.384 . S
C1916 H1907 0.929 . S
C1916 C1908 1.378 . S
C1916 C1911 1.350 . S
C1917 H1904 0.929 . S
C1917 C1909 1.433 . S
C1917 N1919 1.384 . S
N1918 C1914 1.427 . S
N1918 C1915 1.384 . S
N1919 C1911 1.427 . S
N1919 C1917 1.384 . S
H1920 C1926 0.930 . S
H1921 C1930 0.930 . S
H1922 C1935 0.929 . S
H1923 C1933 0.929 . S
H1924 C1928 0.929 . S
H1925 C1934 0.929 . S
C1926 H1920 0.930 . S
C1926 C1927 1.367 . S
C1926 C1934 1.378 . S
C1927 C1926 1.367 . S
C1927 C1935 1.433 1_556 S
C1928 H1924 0.929 . S
C1928 C1930 1.378 . S
C1928 C1932 1.350 . S
C1929 C1932 1.463 1_556 S
C1929 C1934 1.350 . S
C1929 N1937 1.427 1_556 S
C1930 H1921 0.930 . S
C1930 C1928 1.378 . S
C1930 C1931 1.367 . S
C1931 C1930 1.367 . S
C1931 C1933 1.433 1_554 S
C1932 C1928 1.350 . S
C1932 C1929 1.463 1_554 S
C1932 N1936 1.427 1_554 S
C1933 H1923 0.929 . S
C1933 C1931 1.433 1_556 S
C1933 N1936 1.384 . S
C1934 H1925 0.929 . S
C1934 C1926 1.378 . S
C1934 C1929 1.350 . S
C1935 H1922 0.929 . S
C1935 C1927 1.433 1_554 S
C1935 N1937 1.384 . S
N1936 C1932 1.427 1_556 S
N1936 C1933 1.384 . S
N1937 C1929 1.427 1_554 S
N1937 C1935 1.384 . S
H1938 C1944 0.930 . S
H1939 C1948 0.930 . S
H1940 C1953 0.929 . S
H1941 C1951 0.929 . S
H1942 C1946 0.929 . S
H1943 C1952 0.929 . S
C1944 H1938 0.930 . S
C1944 C1945 1.367 . S
C1944 C1952 1.378 . S
C1945 C1944 1.367 . S
C1945 C1953 1.433 . S
C1946 H1942 0.929 . S
C1946 C1948 1.378 . S
C1946 C1950 1.350 . S
C1947 C1950 1.463 . S
C1947 C1952 1.350 . S
C1947 N1955 1.427 . S
C1948 H1939 0.930 . S
C1948 C1946 1.378 . S
C1948 C1949 1.367 . S
C1949 C1948 1.367 . S
C1949 C1951 1.433 . S
C1950 C1946 1.350 . S
C1950 C1947 1.463 . S
C1950 N1954 1.427 . S
C1951 H1941 0.929 . S
C1951 C1949 1.433 . S
C1951 N1954 1.384 . S
C1952 H1943 0.929 . S
C1952 C1944 1.378 . S
C1952 C1947 1.350 . S
C1953 H1940 0.929 . S
C1953 C1945 1.433 . S
C1953 N1955 1.384 . S
N1954 C1950 1.427 . S
N1954 C1951 1.384 . S
N1955 C1947 1.427 . S
N1955 C1953 1.384 . S
H1956 C1962 0.930 . S
H1957 C1966 0.930 . S
H1958 C1971 0.929 . S
H1959 C1969 0.929 . S
H1960 C1964 0.929 . S
H1961 C1970 0.929 . S
C1962 H1956 0.930 . S
C1962 C1963 1.367 . S
C1962 C1970 1.378 . S
C1963 C1962 1.367 . S
C1963 C1971 1.433 . S
C1964 H1960 0.929 . S
C1964 C1966 1.378 . S
C1964 C1968 1.350 . S
C1965 C1968 1.463 . S
C1965 C1970 1.350 . S
C1965 N1973 1.427 . S
C1966 H1957 0.930 . S
C1966 C1964 1.378 . S
C1966 C1967 1.367 . S
C1967 C1966 1.367 . S
C1967 C1969 1.433 . S
C1968 C1964 1.350 . S
C1968 C1965 1.463 . S
C1968 N1972 1.427 . S
C1969 H1959 0.929 . S
C1969 C1967 1.433 . S
C1969 N1972 1.384 . S
C1970 H1961 0.929 . S
C1970 C1962 1.378 . S
C1970 C1965 1.350 . S
C1971 H1958 0.929 . S
C1971 C1963 1.433 . S
C1971 N1973 1.384 . S
N1972 C1968 1.427 . S
N1972 C1969 1.384 . S
N1973 C1965 1.427 . S
N1973 C1971 1.384 . S
H1974 C1980 0.930 . S
H1975 C1984 0.930 . S
H1976 C1989 0.929 . S
H1977 C1987 0.929 . S
H1978 C1982 0.929 . S
H1979 C1988 0.929 . S
C1980 H1974 0.930 . S
C1980 C1981 1.367 . S
C1980 C1988 1.378 . S
C1981 C1980 1.367 . S
C1981 C1989 1.433 . S
C1982 H1978 0.929 . S
C1982 C1984 1.378 . S
C1982 C1986 1.350 . S
C1983 C1986 1.463 . S
C1983 C1988 1.350 . S
C1983 N1991 1.427 . S
C1984 H1975 0.930 . S
C1984 C1982 1.378 . S
C1984 C1985 1.367 . S
C1985 C1984 1.367 . S
C1985 C1987 1.433 . S
C1986 C1982 1.350 . S
C1986 C1983 1.463 . S
C1986 N1990 1.427 . S
C1987 H1977 0.929 . S
C1987 C1985 1.433 . S
C1987 N1990 1.384 . S
C1988 H1979 0.929 . S
C1988 C1980 1.378 . S
C1988 C1983 1.350 . S
C1989 H1976 0.929 . S
C1989 C1981 1.433 . S
C1989 N1991 1.384 . S
N1990 C1986 1.427 . S
N1990 C1987 1.384 . S
N1991 C1983 1.427 . S
N1991 C1989 1.384 . S
H1992 C1998 0.930 . S
H1993 C2002 0.930 . S
H1994 C2007 0.929 . S
H1995 C2005 0.929 . S
H1996 C2000 0.929 . S
H1997 C2006 0.929 . S
C1998 H1992 0.930 . S
C1998 C1999 1.367 . S
C1998 C2006 1.378 . S
C1999 C1998 1.367 . S
C1999 C2007 1.433 1_556 S
C2000 H1996 0.929 . S
C2000 C2002 1.378 . S
C2000 C2004 1.350 . S
C2001 C2004 1.463 1_556 S
C2001 C2006 1.350 . S
C2001 N2009 1.427 1_556 S
C2002 H1993 0.930 . S
C2002 C2000 1.378 . S
C2002 C2003 1.367 . S
C2003 C2002 1.367 . S
C2003 C2005 1.433 1_554 S
C2004 C2000 1.350 . S
C2004 C2001 1.463 1_554 S
C2004 N2008 1.427 1_554 S
C2005 H1995 0.929 . S
C2005 C2003 1.433 1_556 S
C2005 N2008 1.384 . S
C2006 H1997 0.929 . S
C2006 C1998 1.378 . S
C2006 C2001 1.350 . S
C2007 H1994 0.929 . S
C2007 C1999 1.433 1_554 S
C2007 N2009 1.384 . S
N2008 C2004 1.427 1_556 S
N2008 C2005 1.384 . S
N2009 C2001 1.427 1_554 S
N2009 C2007 1.384 . S
H2010 C2016 0.930 . S
H2011 C2020 0.930 . S
H2012 C2025 0.929 . S
H2013 C2023 0.929 . S
H2014 C2018 0.929 . S
H2015 C2024 0.929 . S
C2016 H2010 0.930 . S
C2016 C2017 1.367 . S
C2016 C2024 1.378 . S
C2017 C2016 1.367 . S
C2017 C2025 1.433 . S
C2018 H2014 0.929 . S
C2018 C2020 1.378 . S
C2018 C2022 1.350 . S
C2019 C2022 1.463 . S
C2019 C2024 1.350 . S
C2019 N2027 1.427 . S
C2020 H2011 0.930 . S
C2020 C2018 1.378 . S
C2020 C2021 1.367 . S
C2021 C2020 1.367 . S
C2021 C2023 1.433 . S
C2022 C2018 1.350 . S
C2022 C2019 1.463 . S
C2022 N2026 1.427 . S
C2023 H2013 0.929 . S
C2023 C2021 1.433 . S
C2023 N2026 1.384 . S
C2024 H2015 0.929 . S
C2024 C2016 1.378 . S
C2024 C2019 1.350 . S
C2025 H2012 0.929 . S
C2025 C2017 1.433 . S
C2025 N2027 1.384 . S
N2026 C2022 1.427 . S
N2026 C2023 1.384 . S
N2027 C2019 1.427 . S
N2027 C2025 1.384 . S
H2028 C2034 0.930 . S
H2029 C2038 0.930 . S
H2030 C2043 0.929 . S
H2031 C2041 0.929 . S
H2032 C2036 0.929 . S
H2033 C2042 0.929 . S
C2034 H2028 0.930 . S
C2034 C2035 1.367 . S
C2034 C2042 1.378 . S
C2035 C2034 1.367 . S
C2035 C2043 1.433 . S
C2036 H2032 0.929 . S
C2036 C2038 1.378 . S
C2036 C2040 1.350 . S
C2037 C2040 1.463 . S
C2037 C2042 1.350 . S
C2037 N2045 1.427 . S
C2038 H2029 0.930 . S
C2038 C2036 1.378 . S
C2038 C2039 1.367 . S
C2039 C2038 1.367 . S
C2039 C2041 1.433 . S
C2040 C2036 1.350 . S
C2040 C2037 1.463 . S
C2040 N2044 1.427 . S
C2041 H2031 0.929 . S
C2041 C2039 1.433 . S
C2041 N2044 1.384 . S
C2042 H2033 0.929 . S
C2042 C2034 1.378 . S
C2042 C2037 1.350 . S
C2043 H2030 0.929 . S
C2043 C2035 1.433 . S
C2043 N2045 1.384 . S
N2044 C2040 1.427 . S
N2044 C2041 1.384 . S
N2045 C2037 1.427 . S
N2045 C2043 1.384 . S
H2046 C2052 0.930 . S
H2047 C2056 0.930 . S
H2048 C2061 0.929 . S
H2049 C2059 0.929 . S
H2050 C2054 0.929 . S
H2051 C2060 0.929 . S
C2052 H2046 0.930 . S
C2052 C2053 1.367 . S
C2052 C2060 1.378 . S
C2053 C2052 1.367 . S
C2053 C2061 1.433 . S
C2054 H2050 0.929 . S
C2054 C2056 1.378 . S
C2054 C2058 1.350 . S
C2055 C2058 1.463 . S
C2055 C2060 1.350 . S
C2055 N2063 1.427 . S
C2056 H2047 0.930 . S
C2056 C2054 1.378 . S
C2056 C2057 1.367 . S
C2057 C2056 1.367 . S
C2057 C2059 1.433 . S
C2058 C2054 1.350 . S
C2058 C2055 1.463 . S
C2058 N2062 1.427 . S
C2059 H2049 0.929 . S
C2059 C2057 1.433 . S
C2059 N2062 1.384 . S
C2060 H2051 0.929 . S
C2060 C2052 1.378 . S
C2060 C2055 1.350 . S
C2061 H2048 0.929 . S
C2061 C2053 1.433 . S
C2061 N2063 1.384 . S
N2062 C2058 1.427 . S
N2062 C2059 1.384 . S
N2063 C2055 1.427 . S
N2063 C2061 1.384 . S
H2064 C2070 0.930 . S
H2065 C2074 0.930 . S
H2066 C2079 0.929 . S
H2067 C2077 0.929 . S
H2068 C2072 0.929 . S
H2069 C2078 0.929 . S
C2070 H2064 0.930 . S
C2070 C2071 1.367 . S
C2070 C2078 1.378 . S
C2071 C2070 1.367 . S
C2071 C2079 1.433 . S
C2072 H2068 0.929 . S
C2072 C2074 1.378 . S
C2072 C2076 1.350 . S
C2073 C2076 1.463 1_565 S
C2073 C2078 1.350 . S
C2073 N2081 1.427 . S
C2074 H2065 0.930 . S
C2074 C2072 1.378 . S
C2074 C2075 1.367 . S
C2075 C2074 1.367 . S
C2075 C2077 1.433 . S
C2076 C2072 1.350 . S
C2076 C2073 1.463 1_545 S
C2076 N2080 1.427 . S
C2077 H2067 0.929 . S
C2077 C2075 1.433 . S
C2077 N2080 1.384 . S
C2078 H2069 0.929 . S
C2078 C2070 1.378 . S
C2078 C2073 1.350 . S
C2079 H2066 0.929 . S
C2079 C2071 1.433 . S
C2079 N2081 1.384 . S
N2080 C2076 1.427 . S
N2080 C2077 1.384 . S
N2081 C2073 1.427 . S
N2081 C2079 1.384 . S
H2082 C2088 0.930 . S
H2083 C2092 0.930 . S
H2084 C2097 0.929 . S
H2085 C2095 0.929 . S
H2086 C2090 0.929 . S
H2087 C2096 0.929 . S
C2088 H2082 0.930 . S
C2088 C2089 1.367 . S
C2088 C2096 1.378 . S
C2089 C2088 1.367 . S
C2089 C2097 1.433 . S
C2090 H2086 0.929 . S
C2090 C2092 1.378 . S
C2090 C2094 1.350 . S
C2091 C2094 1.463 . S
C2091 C2096 1.350 . S
C2091 N2099 1.427 . S
C2092 H2083 0.930 . S
C2092 C2090 1.378 . S
C2092 C2093 1.367 . S
C2093 C2092 1.367 . S
C2093 C2095 1.433 . S
C2094 C2090 1.350 . S
C2094 C2091 1.463 . S
C2094 N2098 1.427 . S
C2095 H2085 0.929 . S
C2095 C2093 1.433 . S
C2095 N2098 1.384 . S
C2096 H2087 0.929 . S
C2096 C2088 1.378 . S
C2096 C2091 1.350 . S
C2097 H2084 0.929 . S
C2097 C2089 1.433 . S
C2097 N2099 1.384 . S
N2098 C2094 1.427 . S
N2098 C2095 1.384 . S
N2099 C2091 1.427 . S
N2099 C2097 1.384 . S
H2100 C2106 0.930 . S
H2101 C2110 0.930 . S
H2102 C2115 0.929 . S
H2103 C2113 0.929 . S
H2104 C2108 0.929 . S
H2105 C2114 0.929 . S
C2106 H2100 0.930 . S
C2106 C2107 1.367 . S
C2106 C2114 1.378 . S
C2107 C2106 1.367 . S
C2107 C2115 1.433 1_554 S
C2108 H2104 0.929 . S
C2108 C2110 1.378 . S
C2108 C2112 1.350 . S
C2109 C2112 1.463 1_564 S
C2109 C2114 1.350 . S
C2109 N2117 1.427 1_554 S
C2110 H2101 0.930 . S
C2110 C2108 1.378 . S
C2110 C2111 1.367 . S
C2111 C2110 1.367 . S
C2111 C2113 1.433 1_556 S
C2112 C2108 1.350 . S
C2112 C2109 1.463 1_546 S
C2112 N2116 1.427 1_556 S
C2113 H2103 0.929 . S
C2113 C2111 1.433 1_554 S
C2113 N2116 1.384 . S
C2114 H2105 0.929 . S
C2114 C2106 1.378 . S
C2114 C2109 1.350 . S
C2115 H2102 0.929 . S
C2115 C2107 1.433 1_556 S
C2115 N2117 1.384 . S
N2116 C2112 1.427 1_554 S
N2116 C2113 1.384 . S
N2117 C2109 1.427 1_556 S
N2117 C2115 1.384 . S
H2118 C2124 0.930 . S
H2119 C2128 0.930 . S
H2120 C2133 0.929 . S
H2121 C2131 0.929 . S
H2122 C2126 0.929 . S
H2123 C2132 0.929 . S
C2124 H2118 0.930 . S
C2124 C2125 1.367 . S
C2124 C2132 1.378 . S
C2125 C2124 1.367 . S
C2125 C2133 1.433 . S
C2126 H2122 0.929 . S
C2126 C2128 1.378 . S
C2126 C2130 1.350 . S
C2127 C2130 1.463 . S
C2127 C2132 1.350 . S
C2127 N2135 1.427 . S
C2128 H2119 0.930 . S
C2128 C2126 1.378 . S
C2128 C2129 1.367 . S
C2129 C2128 1.367 . S
C2129 C2131 1.433 . S
C2130 C2126 1.350 . S
C2130 C2127 1.463 . S
C2130 N2134 1.427 . S
C2131 H2121 0.929 . S
C2131 C2129 1.433 . S
C2131 N2134 1.384 . S
C2132 H2123 0.929 . S
C2132 C2124 1.378 . S
C2132 C2127 1.350 . S
C2133 H2120 0.929 . S
C2133 C2125 1.433 . S
C2133 N2135 1.384 . S
N2134 C2130 1.427 . S
N2134 C2131 1.384 . S
N2135 C2127 1.427 . S
N2135 C2133 1.384 . S
H2136 C2142 0.930 . S
H2137 C2146 0.930 . S
H2138 C2151 0.929 . S
H2139 C2149 0.929 . S
H2140 C2144 0.929 . S
H2141 C2150 0.929 . S
C2142 H2136 0.930 . S
C2142 C2143 1.367 . S
C2142 C2150 1.378 . S
C2143 C2142 1.367 . S
C2143 C2151 1.433 . S
C2144 H2140 0.929 . S
C2144 C2146 1.378 . S
C2144 C2148 1.350 . S
C2145 C2148 1.463 1_545 S
C2145 C2150 1.350 . S
C2145 N2153 1.427 . S
C2146 H2137 0.930 . S
C2146 C2144 1.378 . S
C2146 C2147 1.367 . S
C2147 C2146 1.367 . S
C2147 C2149 1.433 . S
C2148 C2144 1.350 . S
C2148 C2145 1.463 1_565 S
C2148 N2152 1.427 . S
C2149 H2139 0.929 . S
C2149 C2147 1.433 . S
C2149 N2152 1.384 . S
C2150 H2141 0.929 . S
C2150 C2142 1.378 . S
C2150 C2145 1.350 . S
C2151 H2138 0.929 . S
C2151 C2143 1.433 . S
C2151 N2153 1.384 . S
N2152 C2148 1.427 . S
N2152 C2149 1.384 . S
N2153 C2145 1.427 . S
N2153 C2151 1.384 . S
H2154 C2160 0.930 . S
H2155 C2164 0.930 . S
H2156 C2169 0.929 . S
H2157 C2167 0.929 . S
H2158 C2162 0.929 . S
H2159 C2168 0.929 . S
C2160 H2154 0.930 . S
C2160 C2161 1.367 . S
C2160 C2168 1.378 . S
C2161 C2160 1.367 . S
C2161 C2169 1.433 . S
C2162 H2158 0.929 . S
C2162 C2164 1.378 . S
C2162 C2166 1.350 . S
C2163 C2166 1.463 . S
C2163 C2168 1.350 . S
C2163 N2171 1.427 . S
C2164 H2155 0.930 . S
C2164 C2162 1.378 . S
C2164 C2165 1.367 . S
C2165 C2164 1.367 . S
C2165 C2167 1.433 . S
C2166 C2162 1.350 . S
C2166 C2163 1.463 . S
C2166 N2170 1.427 . S
C2167 H2157 0.929 . S
C2167 C2165 1.433 . S
C2167 N2170 1.384 . S
C2168 H2159 0.929 . S
C2168 C2160 1.378 . S
C2168 C2163 1.350 . S
C2169 H2156 0.929 . S
C2169 C2161 1.433 . S
C2169 N2171 1.384 . S
N2170 C2166 1.427 . S
N2170 C2167 1.384 . S
N2171 C2163 1.427 . S
N2171 C2169 1.384 . S
H2172 C2178 0.930 . S
H2173 C2182 0.930 . S
H2174 C2187 0.929 . S
H2175 C2185 0.929 . S
H2176 C2180 0.929 . S
H2177 C2186 0.929 . S
C2178 H2172 0.930 . S
C2178 C2179 1.367 . S
C2178 C2186 1.378 . S
C2179 C2178 1.367 . S
C2179 C2187 1.433 1_554 S
C2180 H2176 0.929 . S
C2180 C2182 1.378 . S
C2180 C2184 1.350 . S
C2181 C2184 1.463 1_564 S
C2181 C2186 1.350 . S
C2181 N2189 1.427 1_554 S
C2182 H2173 0.930 . S
C2182 C2180 1.378 . S
C2182 C2183 1.367 . S
C2183 C2182 1.367 . S
C2183 C2185 1.433 1_556 S
C2184 C2180 1.350 . S
C2184 C2181 1.463 1_546 S
C2184 N2188 1.427 1_556 S
C2185 H2175 0.929 . S
C2185 C2183 1.433 1_554 S
C2185 N2188 1.384 . S
C2186 H2177 0.929 . S
C2186 C2178 1.378 . S
C2186 C2181 1.350 . S
C2187 H2174 0.929 . S
C2187 C2179 1.433 1_556 S
C2187 N2189 1.384 . S
N2188 C2184 1.427 1_554 S
N2188 C2185 1.384 . S
N2189 C2181 1.427 1_556 S
N2189 C2187 1.384 . S
H2190 C2196 0.930 . S
H2191 C2200 0.930 . S
H2192 C2205 0.929 . S
H2193 C2203 0.929 . S
H2194 C2198 0.929 . S
H2195 C2204 0.929 . S
C2196 H2190 0.930 . S
C2196 C2197 1.367 . S
C2196 C2204 1.378 . S
C2197 C2196 1.367 . S
C2197 C2205 1.433 . S
C2198 H2194 0.929 . S
C2198 C2200 1.378 . S
C2198 C2202 1.350 . S
C2199 C2202 1.463 . S
C2199 C2204 1.350 . S
C2199 N2207 1.427 . S
C2200 H2191 0.930 . S
C2200 C2198 1.378 . S
C2200 C2201 1.367 . S
C2201 C2200 1.367 . S
C2201 C2203 1.433 . S
C2202 C2198 1.350 . S
C2202 C2199 1.463 . S
C2202 N2206 1.427 . S
C2203 H2193 0.929 . S
C2203 C2201 1.433 . S
C2203 N2206 1.384 . S
C2204 H2195 0.929 . S
C2204 C2196 1.378 . S
C2204 C2199 1.350 . S
C2205 H2192 0.929 . S
C2205 C2197 1.433 . S
C2205 N2207 1.384 . S
N2206 C2202 1.427 . S
N2206 C2203 1.384 . S
N2207 C2199 1.427 . S
N2207 C2205 1.384 . S
H2208 C2214 0.930 . S
H2209 C2218 0.930 1_556 S
H2210 C2223 0.929 1_556 S
H2211 C2221 0.929 . S
H2212 C2216 0.929 1_556 S
H2213 C2222 0.929 . S
C2214 H2208 0.930 . S
C2214 C2215 1.367 . S
C2214 C2222 1.378 . S
C2215 C2214 1.367 . S
C2215 C2223 1.433 . S
C2216 H2212 0.929 1_554 S
C2216 C2218 1.378 . S
C2216 C2220 1.350 . S
C2217 C2220 1.463 1_455 S
C2217 C2222 1.350 . S
C2217 N2225 1.427 . S
C2218 H2209 0.930 1_554 S
C2218 C2216 1.378 . S
C2218 C2219 1.367 . S
C2219 C2218 1.367 . S
C2219 C2221 1.433 . S
C2220 C2216 1.350 . S
C2220 C2217 1.463 1_655 S
C2220 N2224 1.427 . S
C2221 H2211 0.929 . S
C2221 C2219 1.433 . S
C2221 N2224 1.384 . S
C2222 H2213 0.929 . S
C2222 C2214 1.378 . S
C2222 C2217 1.350 . S
C2223 H2210 0.929 1_554 S
C2223 C2215 1.433 . S
C2223 N2225 1.384 . S
N2224 C2220 1.427 . S
N2224 C2221 1.384 . S
N2225 C2217 1.427 . S
N2225 C2223 1.384 . S
H2226 C2232 0.930 . S
H2227 C2236 0.930 . S
H2228 C2241 0.929 . S
H2229 C2239 0.929 . S
H2230 C2234 0.929 . S
H2231 C2240 0.929 . S
C2232 H2226 0.930 . S
C2232 C2233 1.367 . S
C2232 C2240 1.378 . S
C2233 C2232 1.367 . S
C2233 C2241 1.433 . S
C2234 H2230 0.929 . S
C2234 C2236 1.378 . S
C2234 C2238 1.350 . S
C2235 C2238 1.463 . S
C2235 C2240 1.350 . S
C2235 N2243 1.427 . S
C2236 H2227 0.930 . S
C2236 C2234 1.378 . S
C2236 C2237 1.367 . S
C2237 C2236 1.367 . S
C2237 C2239 1.433 . S
C2238 C2234 1.350 . S
C2238 C2235 1.463 . S
C2238 N2242 1.427 . S
C2239 H2229 0.929 . S
C2239 C2237 1.433 . S
C2239 N2242 1.384 . S
C2240 H2231 0.929 . S
C2240 C2232 1.378 . S
C2240 C2235 1.350 . S
C2241 H2228 0.929 . S
C2241 C2233 1.433 . S
C2241 N2243 1.384 . S
N2242 C2238 1.427 . S
N2242 C2239 1.384 . S
N2243 C2235 1.427 . S
N2243 C2241 1.384 . S
H2244 C2250 0.930 . S
H2245 C2254 0.930 . S
H2246 C2259 0.929 . S
H2247 C2257 0.929 . S
H2248 C2252 0.929 . S
H2249 C2258 0.929 . S
C2250 H2244 0.930 . S
C2250 C2251 1.367 . S
C2250 C2258 1.378 . S
C2251 C2250 1.367 . S
C2251 C2259 1.433 . S
C2252 H2248 0.929 . S
C2252 C2254 1.378 . S
C2252 C2256 1.350 . S
C2253 C2256 1.463 . S
C2253 C2258 1.350 . S
C2253 N2261 1.427 . S
C2254 H2245 0.930 . S
C2254 C2252 1.378 . S
C2254 C2255 1.367 . S
C2255 C2254 1.367 . S
C2255 C2257 1.433 . S
C2256 C2252 1.350 . S
C2256 C2253 1.463 . S
C2256 N2260 1.427 . S
C2257 H2247 0.929 . S
C2257 C2255 1.433 . S
C2257 N2260 1.384 . S
C2258 H2249 0.929 . S
C2258 C2250 1.378 . S
C2258 C2253 1.350 . S
C2259 H2246 0.929 . S
C2259 C2251 1.433 . S
C2259 N2261 1.384 . S
N2260 C2256 1.427 . S
N2260 C2257 1.384 . S
N2261 C2253 1.427 . S
N2261 C2259 1.384 . S
H2262 C2268 0.930 . S
H2263 C2272 0.930 . S
H2264 C2277 0.929 . S
H2265 C2275 0.929 . S
H2266 C2270 0.929 . S
H2267 C2276 0.929 . S
C2268 H2262 0.930 . S
C2268 C2269 1.367 . S
C2268 C2276 1.378 . S
C2269 C2268 1.367 . S
C2269 C2277 1.433 . S
C2270 H2266 0.929 . S
C2270 C2272 1.378 . S
C2270 C2274 1.350 . S
C2271 C2274 1.463 . S
C2271 C2276 1.350 . S
C2271 N2279 1.427 . S
C2272 H2263 0.930 . S
C2272 C2270 1.378 . S
C2272 C2273 1.367 . S
C2273 C2272 1.367 . S
C2273 C2275 1.433 . S
C2274 C2270 1.350 . S
C2274 C2271 1.463 . S
C2274 N2278 1.427 . S
C2275 H2265 0.929 . S
C2275 C2273 1.433 . S
C2275 N2278 1.384 . S
C2276 H2267 0.929 . S
C2276 C2268 1.378 . S
C2276 C2271 1.350 . S
C2277 H2264 0.929 . S
C2277 C2269 1.433 . S
C2277 N2279 1.384 . S
N2278 C2274 1.427 . S
N2278 C2275 1.384 . S
N2279 C2271 1.427 . S
N2279 C2277 1.384 . S
H2280 C2286 0.930 1_554 S
H2281 C2290 0.930 . S
H2282 C2295 0.929 . S
H2283 C2293 0.929 1_554 S
H2284 C2288 0.929 . S
H2285 C2294 0.929 1_554 S
C2286 H2280 0.930 1_556 S
C2286 C2287 1.367 . S
C2286 C2294 1.378 . S
C2287 C2286 1.367 . S
C2287 C2295 1.433 . S
C2288 H2284 0.929 . S
C2288 C2290 1.378 . S
C2288 C2292 1.350 . S
C2289 C2292 1.463 1_655 S
C2289 C2294 1.350 . S
C2289 N2297 1.427 . S
C2290 H2281 0.930 . S
C2290 C2288 1.378 . S
C2290 C2291 1.367 . S
C2291 C2290 1.367 . S
C2291 C2293 1.433 . S
C2292 C2288 1.350 . S
C2292 C2289 1.463 1_455 S
C2292 N2296 1.427 . S
C2293 H2283 0.929 1_556 S
C2293 C2291 1.433 . S
C2293 N2296 1.384 . S
C2294 H2285 0.929 1_556 S
C2294 C2286 1.378 . S
C2294 C2289 1.350 . S
C2295 H2282 0.929 . S
C2295 C2287 1.433 . S
C2295 N2297 1.384 . S
N2296 C2292 1.427 . S
N2296 C2293 1.384 . S
N2297 C2289 1.427 . S
N2297 C2295 1.384 . S
H2298 C2304 0.930 . S
H2299 C2308 0.930 . S
H2300 C2313 0.929 . S
H2301 C2311 0.929 . S
H2302 C2306 0.929 . S
H2303 C2312 0.929 . S
C2304 H2298 0.930 . S
C2304 C2305 1.367 . S
C2304 C2312 1.378 . S
C2305 C2304 1.367 . S
C2305 C2313 1.433 . S
C2306 H2302 0.929 . S
C2306 C2308 1.378 . S
C2306 C2310 1.350 . S
C2307 C2310 1.463 . S
C2307 C2312 1.350 . S
C2307 N2315 1.427 . S
C2308 H2299 0.930 . S
C2308 C2306 1.378 . S
C2308 C2309 1.367 . S
C2309 C2308 1.367 . S
C2309 C2311 1.433 . S
C2310 C2306 1.350 . S
C2310 C2307 1.463 . S
C2310 N2314 1.427 . S
C2311 H2301 0.929 . S
C2311 C2309 1.433 . S
C2311 N2314 1.384 . S
C2312 H2303 0.929 . S
C2312 C2304 1.378 . S
C2312 C2307 1.350 . S
C2313 H2300 0.929 . S
C2313 C2305 1.433 . S
C2313 N2315 1.384 . S
N2314 C2310 1.427 . S
N2314 C2311 1.384 . S
N2315 C2307 1.427 . S
N2315 C2313 1.384 . S
H2316 C2322 0.930 . S
H2317 C2326 0.930 . S
H2318 C2331 0.929 . S
H2319 C2329 0.929 . S
H2320 C2324 0.929 . S
H2321 C2330 0.929 . S
C2322 H2316 0.930 . S
C2322 C2323 1.367 . S
C2322 C2330 1.378 . S
C2323 C2322 1.367 . S
C2323 C2331 1.433 . S
C2324 H2320 0.929 . S
C2324 C2326 1.378 . S
C2324 C2328 1.350 . S
C2325 C2328 1.463 . S
C2325 C2330 1.350 . S
C2325 N2333 1.427 . S
C2326 H2317 0.930 . S
C2326 C2324 1.378 . S
C2326 C2327 1.367 . S
C2327 C2326 1.367 . S
C2327 C2329 1.433 . S
C2328 C2324 1.350 . S
C2328 C2325 1.463 . S
C2328 N2332 1.427 . S
C2329 H2319 0.929 . S
C2329 C2327 1.433 . S
C2329 N2332 1.384 . S
C2330 H2321 0.929 . S
C2330 C2322 1.378 . S
C2330 C2325 1.350 . S
C2331 H2318 0.929 . S
C2331 C2323 1.433 . S
C2331 N2333 1.384 . S
N2332 C2328 1.427 . S
N2332 C2329 1.384 . S
N2333 C2325 1.427 . S
N2333 C2331 1.384 . S
H2334 C2340 0.930 . S
H2335 C2344 0.930 . S
H2336 C2349 0.929 . S
H2337 C2347 0.929 . S
H2338 C2342 0.929 . S
H2339 C2348 0.929 . S
C2340 H2334 0.930 . S
C2340 C2341 1.367 . S
C2340 C2348 1.378 . S
C2341 C2340 1.367 . S
C2341 C2349 1.433 . S
C2342 H2338 0.929 . S
C2342 C2344 1.378 . S
C2342 C2346 1.350 . S
C2343 C2346 1.463 . S
C2343 C2348 1.350 . S
C2343 N2351 1.427 . S
C2344 H2335 0.930 . S
C2344 C2342 1.378 . S
C2344 C2345 1.367 . S
C2345 C2344 1.367 . S
C2345 C2347 1.433 . S
C2346 C2342 1.350 . S
C2346 C2343 1.463 . S
C2346 N2350 1.427 . S
C2347 H2337 0.929 . S
C2347 C2345 1.433 . S
C2347 N2350 1.384 . S
C2348 H2339 0.929 . S
C2348 C2340 1.378 . S
C2348 C2343 1.350 . S
C2349 H2336 0.929 . S
C2349 C2341 1.433 . S
C2349 N2351 1.384 . S
N2350 C2346 1.427 . S
N2350 C2347 1.384 . S
N2351 C2343 1.427 . S
N2351 C2349 1.384 . S
H2352 C2358 0.930 . S
H2353 C2362 0.930 . S
H2354 C2367 0.929 . S
H2355 C2365 0.929 . S
H2356 C2360 0.929 . S
H2357 C2366 0.929 . S
C2358 H2352 0.930 . S
C2358 C2359 1.367 . S
C2358 C2366 1.378 . S
C2359 C2358 1.367 . S
C2359 C2367 1.433 . S
C2360 H2356 0.929 . S
C2360 C2362 1.378 . S
C2360 C2364 1.350 . S
C2361 C2364 1.463 . S
C2361 C2366 1.350 . S
C2361 N2369 1.427 . S
C2362 H2353 0.930 . S
C2362 C2360 1.378 . S
C2362 C2363 1.367 . S
C2363 C2362 1.367 . S
C2363 C2365 1.433 . S
C2364 C2360 1.350 . S
C2364 C2361 1.463 . S
C2364 N2368 1.427 . S
C2365 H2355 0.929 . S
C2365 C2363 1.433 . S
C2365 N2368 1.384 . S
C2366 H2357 0.929 . S
C2366 C2358 1.378 . S
C2366 C2361 1.350 . S
C2367 H2354 0.929 . S
C2367 C2359 1.433 . S
C2367 N2369 1.384 . S
N2368 C2364 1.427 . S
N2368 C2365 1.384 . S
N2369 C2361 1.427 . S
N2369 C2367 1.384 . S
H2370 C2376 0.930 . S
H2371 C2380 0.930 . S
H2372 C2385 0.929 . S
H2373 C2383 0.929 . S
H2374 C2378 0.929 . S
H2375 C2384 0.929 . S
C2376 H2370 0.930 . S
C2376 C2377 1.367 . S
C2376 C2384 1.378 . S
C2377 C2376 1.367 . S
C2377 C2385 1.433 . S
C2378 H2374 0.929 . S
C2378 C2380 1.378 . S
C2378 C2382 1.350 . S
C2379 C2382 1.463 . S
C2379 C2384 1.350 . S
C2379 N2387 1.427 . S
C2380 H2371 0.930 . S
C2380 C2378 1.378 . S
C2380 C2381 1.367 . S
C2381 C2380 1.367 . S
C2381 C2383 1.433 . S
C2382 C2378 1.350 . S
C2382 C2379 1.463 . S
C2382 N2386 1.427 . S
C2383 H2373 0.929 . S
C2383 C2381 1.433 . S
C2383 N2386 1.384 . S
C2384 H2375 0.929 . S
C2384 C2376 1.378 . S
C2384 C2379 1.350 . S
C2385 H2372 0.929 . S
C2385 C2377 1.433 . S
C2385 N2387 1.384 . S
N2386 C2382 1.427 . S
N2386 C2383 1.384 . S
N2387 C2379 1.427 . S
N2387 C2385 1.384 . S
H2388 C2394 0.930 . S
H2389 C2398 0.930 . S
H2390 C2403 0.929 . S
H2391 C2401 0.929 . S
H2392 C2396 0.929 . S
H2393 C2402 0.929 . S
C2394 H2388 0.930 . S
C2394 C2395 1.367 . S
C2394 C2402 1.378 . S
C2395 C2394 1.367 . S
C2395 C2403 1.433 . S
C2396 H2392 0.929 . S
C2396 C2398 1.378 . S
C2396 C2400 1.350 . S
C2397 C2400 1.463 . S
C2397 C2402 1.350 . S
C2397 N2405 1.427 . S
C2398 H2389 0.930 . S
C2398 C2396 1.378 . S
C2398 C2399 1.367 . S
C2399 C2398 1.367 . S
C2399 C2401 1.433 . S
C2400 C2396 1.350 . S
C2400 C2397 1.463 . S
C2400 N2404 1.427 . S
C2401 H2391 0.929 . S
C2401 C2399 1.433 . S
C2401 N2404 1.384 . S
C2402 H2393 0.929 . S
C2402 C2394 1.378 . S
C2402 C2397 1.350 . S
C2403 H2390 0.929 . S
C2403 C2395 1.433 . S
C2403 N2405 1.384 . S
N2404 C2400 1.427 . S
N2404 C2401 1.384 . S
N2405 C2397 1.427 . S
N2405 C2403 1.384 . S
H2406 C2412 0.930 . S
H2407 C2416 0.930 . S
H2408 C2421 0.929 . S
H2409 C2419 0.929 . S
H2410 C2414 0.929 . S
H2411 C2420 0.929 . S
C2412 H2406 0.930 . S
C2412 C2413 1.367 . S
C2412 C2420 1.378 . S
C2413 C2412 1.367 . S
C2413 C2421 1.433 . S
C2414 H2410 0.929 . S
C2414 C2416 1.378 . S
C2414 C2418 1.350 . S
C2415 C2418 1.463 . S
C2415 C2420 1.350 . S
C2415 N2423 1.427 . S
C2416 H2407 0.930 . S
C2416 C2414 1.378 . S
C2416 C2417 1.367 . S
C2417 C2416 1.367 . S
C2417 C2419 1.433 . S
C2418 C2414 1.350 . S
C2418 C2415 1.463 . S
C2418 N2422 1.427 . S
C2419 H2409 0.929 . S
C2419 C2417 1.433 . S
C2419 N2422 1.384 . S
C2420 H2411 0.929 . S
C2420 C2412 1.378 . S
C2420 C2415 1.350 . S
C2421 H2408 0.929 . S
C2421 C2413 1.433 . S
C2421 N2423 1.384 . S
N2422 C2418 1.427 . S
N2422 C2419 1.384 . S
N2423 C2415 1.427 . S
N2423 C2421 1.384 . S
H2424 C2430 0.930 . S
H2425 C2434 0.930 . S
H2426 C2439 0.929 . S
H2427 C2437 0.929 . S
H2428 C2432 0.929 . S
H2429 C2438 0.929 . S
C2430 H2424 0.930 . S
C2430 C2431 1.367 . S
C2430 C2438 1.378 . S
C2431 C2430 1.367 . S
C2431 C2439 1.433 . S
C2432 H2428 0.929 . S
C2432 C2434 1.378 . S
C2432 C2436 1.350 . S
C2433 C2436 1.463 . S
C2433 C2438 1.350 . S
C2433 N2441 1.427 . S
C2434 H2425 0.930 . S
C2434 C2432 1.378 . S
C2434 C2435 1.367 . S
C2435 C2434 1.367 . S
C2435 C2437 1.433 . S
C2436 C2432 1.350 . S
C2436 C2433 1.463 . S
C2436 N2440 1.427 . S
C2437 H2427 0.929 . S
C2437 C2435 1.433 . S
C2437 N2440 1.384 . S
C2438 H2429 0.929 . S
C2438 C2430 1.378 . S
C2438 C2433 1.350 . S
C2439 H2426 0.929 . S
C2439 C2431 1.433 . S
C2439 N2441 1.384 . S
N2440 C2436 1.427 . S
N2440 C2437 1.384 . S
N2441 C2433 1.427 . S
N2441 C2439 1.384 . S
H2442 C2448 0.930 1_556 S
H2443 C2452 0.930 . S
H2444 C2457 0.929 . S
H2445 C2455 0.929 1_556 S
H2446 C2450 0.929 . S
H2447 C2456 0.929 1_556 S
C2448 H2442 0.930 1_554 S
C2448 C2449 1.367 . S
C2448 C2456 1.378 . S
C2449 C2448 1.367 . S
C2449 C2457 1.433 . S
C2450 H2446 0.929 . S
C2450 C2452 1.378 . S
C2450 C2454 1.350 . S
C2451 C2454 1.463 1_455 S
C2451 C2456 1.350 . S
C2451 N2459 1.427 . S
C2452 H2443 0.930 . S
C2452 C2450 1.378 . S
C2452 C2453 1.367 . S
C2453 C2452 1.367 . S
C2453 C2455 1.433 . S
C2454 C2450 1.350 . S
C2454 C2451 1.463 1_655 S
C2454 N2458 1.427 . S
C2455 H2445 0.929 1_554 S
C2455 C2453 1.433 . S
C2455 N2458 1.384 . S
C2456 H2447 0.929 1_554 S
C2456 C2448 1.378 . S
C2456 C2451 1.350 . S
C2457 H2444 0.929 . S
C2457 C2449 1.433 . S
C2457 N2459 1.384 . S
N2458 C2454 1.427 . S
N2458 C2455 1.384 . S
N2459 C2451 1.427 . S
N2459 C2457 1.384 . S
H2460 C2466 0.930 . S
H2461 C2470 0.930 . S
H2462 C2475 0.929 . S
H2463 C2473 0.929 . S
H2464 C2468 0.929 . S
H2465 C2474 0.929 . S
C2466 H2460 0.930 . S
C2466 C2467 1.367 . S
C2466 C2474 1.378 . S
C2467 C2466 1.367 . S
C2467 C2475 1.433 . S
C2468 H2464 0.929 . S
C2468 C2470 1.378 . S
C2468 C2472 1.350 . S
C2469 C2472 1.463 . S
C2469 C2474 1.350 . S
C2469 N2477 1.427 . S
C2470 H2461 0.930 . S
C2470 C2468 1.378 . S
C2470 C2471 1.367 . S
C2471 C2470 1.367 . S
C2471 C2473 1.433 . S
C2472 C2468 1.350 . S
C2472 C2469 1.463 . S
C2472 N2476 1.427 . S
C2473 H2463 0.929 . S
C2473 C2471 1.433 . S
C2473 N2476 1.384 . S
C2474 H2465 0.929 . S
C2474 C2466 1.378 . S
C2474 C2469 1.350 . S
C2475 H2462 0.929 . S
C2475 C2467 1.433 . S
C2475 N2477 1.384 . S
N2476 C2472 1.427 . S
N2476 C2473 1.384 . S
N2477 C2469 1.427 . S
N2477 C2475 1.384 . S
H2478 C2484 0.930 . S
H2479 C2488 0.930 . S
H2480 C2493 0.929 . S
H2481 C2491 0.929 . S
H2482 C2486 0.929 . S
H2483 C2492 0.929 . S
C2484 H2478 0.930 . S
C2484 C2485 1.367 . S
C2484 C2492 1.378 . S
C2485 C2484 1.367 . S
C2485 C2493 1.433 . S
C2486 H2482 0.929 . S
C2486 C2488 1.378 . S
C2486 C2490 1.350 . S
C2487 C2490 1.463 1_455 S
C2487 C2492 1.350 . S
C2487 N2495 1.427 . S
C2488 H2479 0.930 . S
C2488 C2486 1.378 . S
C2488 C2489 1.367 . S
C2489 C2488 1.367 . S
C2489 C2491 1.433 . S
C2490 C2486 1.350 . S
C2490 C2487 1.463 1_655 S
C2490 N2494 1.427 . S
C2491 H2481 0.929 . S
C2491 C2489 1.433 . S
C2491 N2494 1.384 . S
C2492 H2483 0.929 . S
C2492 C2484 1.378 . S
C2492 C2487 1.350 . S
C2493 H2480 0.929 . S
C2493 C2485 1.433 . S
C2493 N2495 1.384 . S
N2494 C2490 1.427 . S
N2494 C2491 1.384 . S
N2495 C2487 1.427 . S
N2495 C2493 1.384 . S
C1063 N14 1.480 . S
C1067 N5 1.486 . S
C1081 N38 1.495 . S
C1085 N47 1.489 . S
C1099 N71 1.486 . S
C1103 N80 1.480 . S
C1117 N104 1.493 . S
C1121 N113 1.487 . S
C1135 N137 1.497 . S
C1139 N146 1.492 . S
C1153 N170 1.492 . S
C1157 N179 1.487 . S
C1171 N212 1.481 . S
C1175 N203 1.487 . S
C1189 N245 1.489 . S
C1193 N236 1.494 . S
C1207 N278 1.480 . S
C1211 N269 1.486 . S
C1225 N311 1.483 . S
C1229 N302 1.489 . S
C1243 N344 1.492 . S
C1247 N335 1.497 . S
C1261 N368 1.488 . S
C1265 N377 1.481 . S
C1279 N410 1.490 . S
C1283 N401 1.495 . S
C1297 N443 1.490 . S
C1301 N434 1.495 . S
C1315 N467 1.488 . S
C1319 N476 1.483 . S
C1333 N509 1.487 . S
C1337 N500 1.493 . S
C1351 N533 1.486 . S
C1355 N542 1.480 . S
C1369 N566 1.487 . S
C1373 N575 1.482 . S
C1387 N599 1.490 . S
C1391 N608 1.483 . S
C1405 N632 1.497 . S
C1409 N641 1.492 . S
C1423 N665 1.497 . S
C1427 N674 1.492 . S
C1441 N698 1.486 . S
C1445 N707 1.480 . S
C1459 N731 1.486 . S
C1463 N740 1.480 . S
C1477 N773 1.482 . S
C1481 N764 1.488 . S
C1495 N797 1.486 . S
C1499 N806 1.480 . S
C1513 N830 1.487 . S
C1517 N839 1.480 . S
C1531 N863 1.489 . S
C1535 N872 1.484 . S
C1549 N905 1.489 . S
C1553 N896 1.495 . S
C1567 N938 1.492 . S
C1571 N929 1.497 . S
C1585 N971 1.489 . S
C1589 N962 1.495 . S
C1603 N995 1.496 . S
C1607 N1004 1.490 . S
C1621 N1037 1.490 . S
C1625 N1028 1.495 . S
C1639 C787 0.987 . S
C1643 C28 0.988 . S
C1657 C688 0.987 . S
C1661 C61 0.988 . S
C1675 C721 0.984 . S
C1679 C94 0.984 . S
C1693 C754 0.988 . S
C1697 C127 0.987 . S
C1711 C589 0.988 . S
C1715 C160 0.988 . S
C1729 C622 0.987 . S
C1733 C193 0.988 . S
C1747 C655 0.983 . S
C1751 C226 0.985 . S
C1765 C556 0.988 . S
C1769 C259 0.986 . S
C1783 C1051 0.984 . S
C1787 C292 0.983 . S
C1801 C952 0.983 . S
C1805 C325 0.984 . S
C1819 C358 0.983 . S
C1823 C985 0.984 . S
C1837 C391 0.985 . S
C1841 C1018 0.983 . S
C1855 C424 0.988 . S
C1859 C853 0.988 . S
C1873 C457 0.986 . S
C1877 C886 0.988 . S
C1891 C490 0.983 . S
C1895 C919 0.985 . S
C1909 C820 0.985 . S
C1913 C523 0.988 . S
C1927 C140 1.375 . S
C1931 C8 1.381 . S
C1945 C41 1.382 . S
C1949 C173 1.374 . S
C1963 C206 1.379 . S
C1967 C74 1.379 . S
C1981 C107 1.379 . S
C1985 C239 1.377 . S
C1999 C272 1.380 . S
C2003 C404 1.376 . S
C2017 C437 1.374 . S
C2021 C305 1.383 . S
C2035 C470 1.381 . S
C2039 C338 1.375 . S
C2053 C503 1.374 . S
C2057 C371 1.383 . S
C2071 C668 1.375 . S
C2075 C536 1.381 . S
C2089 C569 1.380 . S
C2093 C701 1.376 . S
C2107 C602 1.376 . S
C2111 C734 1.380 . S
C2125 C635 1.374 . S
C2129 C767 1.383 . S
C2143 C932 1.376 . S
C2147 C800 1.382 . S
C2161 C965 1.383 . S
C2165 C833 1.374 . S
C2179 C998 1.382 . S
C2183 C866 1.374 . S
C2197 C899 1.383 . S
C2201 C1031 1.374 . S
C2215 C17 1.504 . S
C2219 C413 1.503 . S
C2233 C974 1.500 . S
C2237 C50 1.506 . S
C2251 C83 1.505 . S
C2255 C479 1.501 . S
C2269 C1040 1.506 . S
C2273 C116 1.501 . S
C2287 C281 1.502 . S
C2291 C149 1.504 . S
C2305 C182 1.502 . S
C2309 C842 1.505 . S
C2323 C215 1.503 . S
C2327 C347 1.504 . S
C2341 C248 1.504 . S
C2345 C908 1.503 . S
C2359 C710 1.503 . S
C2363 C314 1.504 . S
C2377 C776 1.503 . S
C2381 C380 1.503 . S
C2395 C578 1.504 . S
C2399 C446 1.502 . S
C2413 C644 1.502 . S
C2417 C512 1.505 . S
C2431 C545 1.503 . S
C2435 C941 1.503 . S
C2449 C1007 1.504 . S
C2453 C611 1.502 . S
C2467 C677 1.500 . S
C2471 C809 1.506 . S
C2485 C875 1.506 . S
C2489 C743 1.500 . S
