# Generated by pormake.
# Topology umq, (4)-cn, num edge types: 1
# Building blocks:
#     Node 0, Type 0, BuildingBlock: AZAVOO_clean_sbu_0, # of connection points: 4
#     Node 1, Type 0, BuildingBlock: AZAVOO_clean_sbu_0, # of connection points: 4
#     Node 2, Type 0, BuildingBlock: AZAVOO_clean_sbu_0, # of connection points: 4
#     Node 3, Type 0, BuildingBlock: AZAVOO_clean_sbu_0, # of connection points: 4
#     Node 4, Type 0, BuildingBlock: AZAVOO_clean_sbu_0, # of connection points: 4
#     Node 5, Type 0, BuildingBlock: AZAVOO_clean_sbu_0, # of connection points: 4
#     Node 6, Type 0, BuildingBlock: AZAVOO_clean_sbu_0, # of connection points: 4
#     Node 7, Type 0, BuildingBlock: AZAVOO_clean_sbu_0, # of connection points: 4
#     Node 8, Type 0, BuildingBlock: AZAVOO_clean_sbu_0, # of connection points: 4
#     Node 9, Type 0, BuildingBlock: AZAVOO_clean_sbu_0, # of connection points: 4
#     Node 10, Type 0, BuildingBlock: AZAVOO_clean_sbu_0, # of connection points: 4
#     Node 11, Type 0, BuildingBlock: AZAVOO_clean_sbu_0, # of connection points: 4
#     Node 12, Type 0, BuildingBlock: AZAVOO_clean_sbu_0, # of connection points: 4
#     Node 13, Type 0, BuildingBlock: AZAVOO_clean_sbu_0, # of connection points: 4
#     Node 14, Type 0, BuildingBlock: AZAVOO_clean_sbu_0, # of connection points: 4
#     Node 15, Type 0, BuildingBlock: AZAVOO_clean_sbu_0, # of connection points: 4
#     Node 16, Type 0, BuildingBlock: AZAVOO_clean_sbu_0, # of connection points: 4
#     Node 17, Type 0, BuildingBlock: AZAVOO_clean_sbu_0, # of connection points: 4
#     Node 18, Type 0, BuildingBlock: AZAVOO_clean_sbu_0, # of connection points: 4
#     Node 19, Type 0, BuildingBlock: AZAVOO_clean_sbu_0, # of connection points: 4
#     Node 20, Type 0, BuildingBlock: AZAVOO_clean_sbu_0, # of connection points: 4
#     Node 21, Type 0, BuildingBlock: AZAVOO_clean_sbu_0, # of connection points: 4
#     Node 22, Type 0, BuildingBlock: AZAVOO_clean_sbu_0, # of connection points: 4
#     Node 23, Type 0, BuildingBlock: AZAVOO_clean_sbu_0, # of connection points: 4
#     Node 24, Type 0, BuildingBlock: AZAVOO_clean_sbu_0, # of connection points: 4
#     Node 25, Type 0, BuildingBlock: AZAVOO_clean_sbu_0, # of connection points: 4
#     Node 26, Type 0, BuildingBlock: AZAVOO_clean_sbu_0, # of connection points: 4
#     Node 27, Type 0, BuildingBlock: AZAVOO_clean_sbu_0, # of connection points: 4
#     Node 28, Type 0, BuildingBlock: AZAVOO_clean_sbu_0, # of connection points: 4
#     Node 29, Type 0, BuildingBlock: AZAVOO_clean_sbu_0, # of connection points: 4
#     Node 30, Type 0, BuildingBlock: AZAVOO_clean_sbu_0, # of connection points: 4
#     Node 31, Type 0, BuildingBlock: AZAVOO_clean_sbu_0, # of connection points: 4
#     Edge 32, Type (0, 0), BuildingBlock: EZIPEK_clean_linker_0, # of connection points: 2
#     Edge 33, Type (0, 0), BuildingBlock: EZIPEK_clean_linker_0, # of connection points: 2
#     Edge 34, Type (0, 0), BuildingBlock: EZIPEK_clean_linker_0, # of connection points: 2
#     Edge 35, Type (0, 0), BuildingBlock: EZIPEK_clean_linker_0, # of connection points: 2
#     Edge 36, Type (0, 0), BuildingBlock: EZIPEK_clean_linker_0, # of connection points: 2
#     Edge 37, Type (0, 0), BuildingBlock: EZIPEK_clean_linker_0, # of connection points: 2
#     Edge 38, Type (0, 0), BuildingBlock: EZIPEK_clean_linker_0, # of connection points: 2
#     Edge 39, Type (0, 0), BuildingBlock: EZIPEK_clean_linker_0, # of connection points: 2
#     Edge 40, Type (0, 0), BuildingBlock: EZIPEK_clean_linker_0, # of connection points: 2
#     Edge 41, Type (0, 0), BuildingBlock: EZIPEK_clean_linker_0, # of connection points: 2
#     Edge 42, Type (0, 0), BuildingBlock: EZIPEK_clean_linker_0, # of connection points: 2
#     Edge 43, Type (0, 0), BuildingBlock: EZIPEK_clean_linker_0, # of connection points: 2
#     Edge 44, Type (0, 0), BuildingBlock: EZIPEK_clean_linker_0, # of connection points: 2
#     Edge 45, Type (0, 0), BuildingBlock: EZIPEK_clean_linker_0, # of connection points: 2
#     Edge 46, Type (0, 0), BuildingBlock: EZIPEK_clean_linker_0, # of connection points: 2
#     Edge 47, Type (0, 0), BuildingBlock: EZIPEK_clean_linker_0, # of connection points: 2
#     Edge 48, Type (0, 0), BuildingBlock: EZIPEK_clean_linker_0, # of connection points: 2
#     Edge 49, Type (0, 0), BuildingBlock: EZIPEK_clean_linker_0, # of connection points: 2
#     Edge 50, Type (0, 0), BuildingBlock: EZIPEK_clean_linker_0, # of connection points: 2
#     Edge 51, Type (0, 0), BuildingBlock: EZIPEK_clean_linker_0, # of connection points: 2
#     Edge 52, Type (0, 0), BuildingBlock: EZIPEK_clean_linker_0, # of connection points: 2
#     Edge 53, Type (0, 0), BuildingBlock: EZIPEK_clean_linker_0, # of connection points: 2
#     Edge 54, Type (0, 0), BuildingBlock: EZIPEK_clean_linker_0, # of connection points: 2
#     Edge 55, Type (0, 0), BuildingBlock: EZIPEK_clean_linker_0, # of connection points: 2
#     Edge 56, Type (0, 0), BuildingBlock: EZIPEK_clean_linker_0, # of connection points: 2
#     Edge 57, Type (0, 0), BuildingBlock: EZIPEK_clean_linker_0, # of connection points: 2
#     Edge 58, Type (0, 0), BuildingBlock: EZIPEK_clean_linker_0, # of connection points: 2
#     Edge 59, Type (0, 0), BuildingBlock: EZIPEK_clean_linker_0, # of connection points: 2
#     Edge 60, Type (0, 0), BuildingBlock: EZIPEK_clean_linker_0, # of connection points: 2
#     Edge 61, Type (0, 0), BuildingBlock: EZIPEK_clean_linker_0, # of connection points: 2
#     Edge 62, Type (0, 0), BuildingBlock: EZIPEK_clean_linker_0, # of connection points: 2
#     Edge 63, Type (0, 0), BuildingBlock: EZIPEK_clean_linker_0, # of connection points: 2
#     Edge 64, Type (0, 0), BuildingBlock: EZIPEK_clean_linker_0, # of connection points: 2
#     Edge 65, Type (0, 0), BuildingBlock: EZIPEK_clean_linker_0, # of connection points: 2
#     Edge 66, Type (0, 0), BuildingBlock: EZIPEK_clean_linker_0, # of connection points: 2
#     Edge 67, Type (0, 0), BuildingBlock: EZIPEK_clean_linker_0, # of connection points: 2
#     Edge 68, Type (0, 0), BuildingBlock: EZIPEK_clean_linker_0, # of connection points: 2
#     Edge 69, Type (0, 0), BuildingBlock: EZIPEK_clean_linker_0, # of connection points: 2
#     Edge 70, Type (0, 0), BuildingBlock: EZIPEK_clean_linker_0, # of connection points: 2
#     Edge 71, Type (0, 0), BuildingBlock: EZIPEK_clean_linker_0, # of connection points: 2
#     Edge 72, Type (0, 0), BuildingBlock: EZIPEK_clean_linker_0, # of connection points: 2
#     Edge 73, Type (0, 0), BuildingBlock: EZIPEK_clean_linker_0, # of connection points: 2
#     Edge 74, Type (0, 0), BuildingBlock: EZIPEK_clean_linker_0, # of connection points: 2
#     Edge 75, Type (0, 0), BuildingBlock: EZIPEK_clean_linker_0, # of connection points: 2
#     Edge 76, Type (0, 0), BuildingBlock: EZIPEK_clean_linker_0, # of connection points: 2
#     Edge 77, Type (0, 0), BuildingBlock: EZIPEK_clean_linker_0, # of connection points: 2
#     Edge 78, Type (0, 0), BuildingBlock: EZIPEK_clean_linker_0, # of connection points: 2
#     Edge 79, Type (0, 0), BuildingBlock: EZIPEK_clean_linker_0, # of connection points: 2
#     Edge 80, Type (0, 0), BuildingBlock: EZIPEK_clean_linker_0, # of connection points: 2
#     Edge 81, Type (0, 0), BuildingBlock: EZIPEK_clean_linker_0, # of connection points: 2
#     Edge 82, Type (0, 0), BuildingBlock: EZIPEK_clean_linker_0, # of connection points: 2
#     Edge 83, Type (0, 0), BuildingBlock: EZIPEK_clean_linker_0, # of connection points: 2
#     Edge 84, Type (0, 0), BuildingBlock: EZIPEK_clean_linker_0, # of connection points: 2
#     Edge 85, Type (0, 0), BuildingBlock: EZIPEK_clean_linker_0, # of connection points: 2
#     Edge 86, Type (0, 0), BuildingBlock: EZIPEK_clean_linker_0, # of connection points: 2
#     Edge 87, Type (0, 0), BuildingBlock: EZIPEK_clean_linker_0, # of connection points: 2
#     Edge 88, Type (0, 0), BuildingBlock: EZIPEK_clean_linker_0, # of connection points: 2
#     Edge 89, Type (0, 0), BuildingBlock: EZIPEK_clean_linker_0, # of connection points: 2
#     Edge 90, Type (0, 0), BuildingBlock: EZIPEK_clean_linker_0, # of connection points: 2
#     Edge 91, Type (0, 0), BuildingBlock: EZIPEK_clean_linker_0, # of connection points: 2
#     Edge 92, Type (0, 0), BuildingBlock: EZIPEK_clean_linker_0, # of connection points: 2
#     Edge 93, Type (0, 0), BuildingBlock: EZIPEK_clean_linker_0, # of connection points: 2
#     Edge 94, Type (0, 0), BuildingBlock: EZIPEK_clean_linker_0, # of connection points: 2
#     Edge 95, Type (0, 0), BuildingBlock: EZIPEK_clean_linker_0, # of connection points: 2
# Relax obj value: 0.097
# Max RMSD: 0.122
# Mean RMSD: 0.122
data_MOF--net-umq--node1-AZAVOO_clean_sbu_0--edge1-EZIPEK_clean_linker_0
_symmetry_space_group_name_H-M    P1
_symmetry_Int_Tables_number       1
_symmetry_cell_setting            triclinic
loop_
_symmetry_equiv_pos_as_xyz
'x, y, z'
_cell_length_a     47.608952
_cell_length_b     47.414429
_cell_length_c     33.778077
_cell_angle_alpha  89.97786
_cell_angle_beta   90.086971
_cell_angle_gamma 89.907947
loop_
_atom_site_label
_atom_site_type_symbol
_atom_site_fract_x
_atom_site_fract_y
_atom_site_fract_z
_atom_type_partial_charge
Mg0 Mg 0.26517 0.08244 0.18933 0.0
O1 O 0.29473 0.12033 0.19257 0.0
O2 O 0.29614 0.13463 0.25557 0.0
Mg3 Mg 0.27062 0.10383 0.29316 0.0
C4 C 0.3029 0.13748 0.21923 0.0
C5 C 0.25866 0.07484 0.1004 0.0
O6 O 0.23274 0.07783 0.11297 0.0
O7 O 0.29949 0.05402 0.21412 0.0
O8 O 0.30036 0.067 0.2774 0.0
O9 O 0.22828 0.11154 0.18445 0.0
O10 O 0.24458 0.09476 0.24114 0.0
C11 C 0.30945 0.05159 0.24911 0.0
C12 C 0.22714 0.11082 0.22269 0.0
O13 O 0.27868 0.07523 0.1253 0.0
Mg14 Mg 0.88244 0.19391 0.17155 0.0
O15 O 0.86265 0.237 0.1849 0.0
O16 O 0.85572 0.239 0.2504 0.0
Mg17 Mg 0.86945 0.19721 0.27837 0.0
C18 C 0.85431 0.2499 0.2159 0.0
C19 C 0.9101 0.19287 0.08932 0.0
O20 O 0.92346 0.17217 0.10707 0.0
O21 O 0.92426 0.20854 0.19705 0.0
O22 O 0.91556 0.20591 0.26224 0.0
O23 O 0.84034 0.1738 0.16459 0.0
O24 O 0.86371 0.1762 0.22118 0.0
C25 C 0.93215 0.21018 0.23314 0.0
C26 C 0.84154 0.16871 0.20219 0.0
O27 O 0.89286 0.20779 0.10892 0.0
Mg28 Mg 0.72312 0.914 0.18537 0.0
O29 O 0.69526 0.87463 0.18649 0.0
O30 O 0.69105 0.86153 0.24979 0.0
Mg31 Mg 0.71319 0.89392 0.28901 0.0
C32 C 0.68643 0.85763 0.21295 0.0
C33 C 0.71976 0.90191 0.09556 0.0
O34 O 0.73162 0.87866 0.1085 0.0
O35 O 0.68636 0.94091 0.20561 0.0
O36 O 0.68274 0.92932 0.26923 0.0
O37 O 0.76164 0.88691 0.18506 0.0
O38 O 0.74148 0.90311 0.23949 0.0
C39 C 0.67453 0.9437 0.23931 0.0
C40 C 0.76062 0.88783 0.22332 0.0
O41 O 0.71244 0.92082 0.12013 0.0
Mg42 Mg 0.10164 0.80406 0.1716 0.0
O43 O 0.12057 0.76054 0.18261 0.0
O44 O 0.1297 0.75649 0.2473 0.0
Mg45 Mg 0.11616 0.79748 0.27783 0.0
C46 C 0.13001 0.74669 0.21211 0.0
C47 C 0.08584 0.809 0.08346 0.0
O48 O 0.08711 0.83564 0.09397 0.0
O49 O 0.05993 0.79 0.19768 0.0
O50 O 0.06962 0.78984 0.26271 0.0
O51 O 0.14458 0.82294 0.16516 0.0
O52 O 0.12139 0.82043 0.22175 0.0
C53 C 0.05253 0.78707 0.23377 0.0
C54 C 0.14378 0.82735 0.20296 0.0
O55 O 0.08962 0.78996 0.10937 0.0
Mg56 Mg 0.26436 0.90865 0.33823 0.0
O57 O 0.29392 0.87108 0.32747 0.0
O58 O 0.29457 0.863 0.26227 0.0
Mg59 Mg 0.26936 0.89749 0.23108 0.0
C60 C 0.30168 0.85656 0.2976 0.0
C61 C 0.26131 0.92334 0.42666 0.0
O62 O 0.24008 0.93757 0.41182 0.0
O63 O 0.29883 0.939 0.31921 0.0
O64 O 0.29951 0.9318 0.25413 0.0
O65 O 0.22715 0.87978 0.33727 0.0
O66 O 0.2438 0.90165 0.28447 0.0
C67 C 0.30878 0.94442 0.28495 0.0
C68 C 0.22621 0.88414 0.29946 0.0
O69 O 0.27743 0.90981 0.40341 0.0
Mg70 Mg 0.09971 0.19803 0.33489 0.0
O71 O 0.11787 0.24161 0.32193 0.0
O72 O 0.12636 0.24388 0.25689 0.0
Mg73 Mg 0.11393 0.20176 0.22861 0.0
C74 C 0.12672 0.25474 0.29146 0.0
C75 C 0.08779 0.19234 0.42191 0.0
O76 O 0.09254 0.16646 0.40977 0.0
O77 O 0.05784 0.21099 0.30815 0.0
O78 O 0.06712 0.20887 0.24311 0.0
O79 O 0.14267 0.18 0.34322 0.0
O80 O 0.11998 0.18065 0.28597 0.0
C81 C 0.05013 0.21237 0.27197 0.0
C82 C 0.14228 0.17447 0.30571 0.0
O83 O 0.0875 0.21226 0.39677 0.0
Mg84 Mg 0.71697 0.08445 0.32348 0.0
O85 O 0.69345 0.12584 0.30906 0.0
O86 O 0.69215 0.1294 0.24284 0.0
Mg87 Mg 0.71747 0.09349 0.21574 0.0
C88 C 0.68631 0.13875 0.2773 0.0
C89 C 0.707 0.10439 0.40966 0.0
O90 O 0.7187 0.127 0.39452 0.0
O91 O 0.68044 0.05763 0.30165 0.0
O92 O 0.68469 0.06108 0.23629 0.0
O93 O 0.75708 0.10814 0.32775 0.0
O94 O 0.74006 0.09026 0.27222 0.0
C95 C 0.67263 0.05074 0.2668 0.0
C96 C 0.75851 0.10577 0.28964 0.0
O97 O 0.70128 0.08364 0.38725 0.0
Mg98 Mg 0.88689 0.80235 0.34085 0.0
O99 O 0.86824 0.75893 0.32756 0.0
O100 O 0.85886 0.7572 0.26268 0.0
Mg101 Mg 0.8713 0.79935 0.23463 0.0
C102 C 0.85889 0.74609 0.2971 0.0
C103 C 0.89213 0.80382 0.43002 0.0
O104 O 0.87817 0.82687 0.42105 0.0
O105 O 0.92842 0.78925 0.31301 0.0
O106 O 0.91803 0.79127 0.24825 0.0
O107 O 0.84395 0.82071 0.3497 0.0
O108 O 0.86626 0.82012 0.29232 0.0
C109 C 0.93542 0.78745 0.27661 0.0
C110 C 0.84416 0.82644 0.31226 0.0
O111 O 0.89993 0.78741 0.40241 0.0
Mg112 Mg 0.73464 0.91899 0.8383 0.0
O113 O 0.70713 0.87955 0.83018 0.0
O114 O 0.70931 0.86763 0.76622 0.0
Mg115 Mg 0.736 0.89991 0.73317 0.0
C116 C 0.70072 0.86328 0.80148 0.0
C117 C 0.72565 0.90608 0.9263 0.0
O118 O 0.74133 0.88487 0.91466 0.0
O119 O 0.69994 0.94591 0.81095 0.0
O120 O 0.70344 0.9346 0.7472 0.0
O121 O 0.77307 0.89233 0.84615 0.0
O122 O 0.75855 0.90864 0.78836 0.0
C123 C 0.69179 0.94861 0.77507 0.0
C124 C 0.77582 0.89319 0.80809 0.0
O125 O 0.71748 0.92424 0.90106 0.0
Mg126 Mg 0.08667 0.78747 0.82713 0.0
O127 O 0.11419 0.74782 0.82458 0.0
O128 O 0.12578 0.74106 0.76106 0.0
Mg129 Mg 0.10514 0.77512 0.72315 0.0
C130 C 0.12684 0.73401 0.79752 0.0
C131 C 0.07974 0.79898 0.91463 0.0
O132 O 0.08637 0.82359 0.89952 0.0
O133 O 0.05043 0.7613 0.8033 0.0
O134 O 0.06246 0.75603 0.74007 0.0
O135 O 0.12444 0.81524 0.83104 0.0
O136 O 0.10407 0.8026 0.77491 0.0
C137 C 0.04568 0.7513 0.76879 0.0
C138 C 0.12411 0.81555 0.79274 0.0
O139 O 0.07644 0.778 0.89169 0.0
Mg140 Mg 0.26288 0.08783 0.84245 0.0
O141 O 0.29435 0.12323 0.83232 0.0
O142 O 0.29827 0.12926 0.767 0.0
Mg143 Mg 0.27233 0.09552 0.73542 0.0
C144 C 0.304 0.13646 0.80251 0.0
C145 C 0.26392 0.06888 0.93022 0.0
O146 O 0.24883 0.04857 0.91456 0.0
O147 O 0.29582 0.05524 0.82729 0.0
O148 O 0.29818 0.05864 0.76158 0.0
O149 O 0.22748 0.11852 0.83779 0.0
O150 O 0.24457 0.09434 0.78713 0.0
C151 C 0.30538 0.04673 0.79406 0.0
C152 C 0.22744 0.1131 0.80022 0.0
O153 O 0.27425 0.08778 0.90793 0.0
Mg154 Mg 0.88735 0.19281 0.83246 0.0
O155 O 0.86611 0.23514 0.82128 0.0
O156 O 0.86556 0.24217 0.75575 0.0
Mg157 Mg 0.88289 0.20265 0.72502 0.0
C158 C 0.86026 0.25016 0.79106 0.0
C159 C 0.90871 0.18869 0.91854 0.0
O160 O 0.92237 0.16765 0.90216 0.0
O161 O 0.92953 0.21153 0.81591 0.0
O162 O 0.92716 0.21068 0.74958 0.0
O163 O 0.8463 0.16997 0.82975 0.0
O164 O 0.87365 0.17762 0.778 0.0
C165 C 0.94079 0.21408 0.78183 0.0
C166 C 0.85068 0.16767 0.79208 0.0
O167 O 0.89296 0.2042 0.89733 0.0
Mg168 Mg 0.72855 0.0847 0.66546 0.0
O169 O 0.70516 0.12596 0.68021 0.0
O170 O 0.70868 0.13214 0.74586 0.0
Mg171 Mg 0.7356 0.09713 0.77237 0.0
C172 C 0.69997 0.13989 0.71179 0.0
C173 C 0.71575 0.10236 0.57958 0.0
O174 O 0.7316 0.12325 0.5918 0.0
O175 O 0.69364 0.0582 0.69307 0.0
O176 O 0.70184 0.06431 0.75738 0.0
O177 O 0.76865 0.10846 0.65657 0.0
O178 O 0.7544 0.09144 0.71392 0.0
C179 C 0.68805 0.05274 0.72926 0.0
C180 C 0.77199 0.10661 0.69449 0.0
O181 O 0.70872 0.08314 0.60386 0.0
Mg182 Mg 0.88794 0.79037 0.68639 0.0
O183 O 0.86032 0.75156 0.69641 0.0
O184 O 0.85745 0.74487 0.76198 0.0
Mg185 Mg 0.87897 0.78194 0.79313 0.0
C186 C 0.85228 0.73741 0.72643 0.0
C187 C 0.90369 0.79606 0.59873 0.0
O188 O 0.91375 0.81957 0.61357 0.0
O189 O 0.92542 0.76401 0.70584 0.0
O190 O 0.92001 0.76196 0.77113 0.0
O191 O 0.85092 0.81918 0.68533 0.0
O192 O 0.87462 0.80842 0.73966 0.0
C193 C 0.93352 0.75539 0.73978 0.0
C194 C 0.8539 0.82157 0.72327 0.0
O195 O 0.89297 0.77786 0.62177 0.0
Mg196 Mg 0.24906 0.90868 0.68557 0.0
O197 O 0.28173 0.87314 0.68665 0.0
O198 O 0.28333 0.85516 0.74788 0.0
Mg199 Mg 0.25205 0.87886 0.78604 0.0
C200 C 0.29151 0.85578 0.71201 0.0
C201 C 0.24943 0.91546 0.59511 0.0
O202 O 0.22483 0.9041 0.60216 0.0
O203 O 0.27839 0.9383 0.71948 0.0
O204 O 0.27929 0.9184 0.7794 0.0
O205 O 0.21467 0.87774 0.6731 0.0
O206 O 0.22749 0.89085 0.73327 0.0
C207 C 0.28645 0.93803 0.75568 0.0
C208 C 0.21169 0.87567 0.71101 0.0
O209 O 0.26555 0.9213 0.62405 0.0
Mg210 Mg 0.10264 0.19477 0.67833 0.0
O211 O 0.12323 0.23775 0.68642 0.0
O212 O 0.13644 0.24155 0.74978 0.0
Mg213 Mg 0.12408 0.2012 0.78236 0.0
C214 C 0.13474 0.25132 0.71465 0.0
C215 C 0.09201 0.19036 0.59034 0.0
O216 O 0.10317 0.16592 0.59976 0.0
O217 O 0.06338 0.21038 0.70937 0.0
O218 O 0.07724 0.21064 0.77293 0.0
O219 O 0.14443 0.17464 0.66675 0.0
O220 O 0.12485 0.17826 0.72595 0.0
C221 C 0.05848 0.21382 0.7462 0.0
C222 C 0.14577 0.17051 0.70458 0.0
O223 O 0.08728 0.20833 0.6174 0.0
Mg224 Mg 0.76091 0.5808 0.67099 0.0
O225 O 0.78617 0.61998 0.6897 0.0
O226 O 0.78459 0.62265 0.75598 0.0
Mg227 Mg 0.75664 0.58753 0.77913 0.0
C228 C 0.79254 0.632 0.72239 0.0
C229 C 0.76261 0.57365 0.58176 0.0
O230 O 0.73841 0.56263 0.59205 0.0
O231 O 0.79532 0.5514 0.69414 0.0
O232 O 0.78923 0.55492 0.75924 0.0
O233 O 0.72281 0.60772 0.66561 0.0
O234 O 0.73629 0.58657 0.72091 0.0
C235 C 0.80193 0.54431 0.72944 0.0
C236 C 0.72025 0.60465 0.70351 0.0
O237 O 0.77923 0.58235 0.60859 0.0
Mg238 Mg 0.39667 0.70609 0.66145 0.0
O239 O 0.37456 0.74818 0.67112 0.0
O240 O 0.36677 0.75236 0.73608 0.0
Mg241 Mg 0.38513 0.71417 0.7684 0.0
C242 C 0.36447 0.76144 0.70065 0.0
C243 C 0.41553 0.69921 0.57514 0.0
O244 O 0.42454 0.67561 0.59108 0.0
O245 O 0.43785 0.72455 0.68358 0.0
O246 O 0.43013 0.72441 0.74914 0.0
O247 O 0.35525 0.68376 0.65965 0.0
O248 O 0.38061 0.68987 0.71391 0.0
C249 C 0.44615 0.728 0.71927 0.0
C250 C 0.35809 0.68074 0.69753 0.0
O251 O 0.40452 0.71794 0.59712 0.0
Mg252 Mg 0.23758 0.40223 0.66273 0.0
O253 O 0.20747 0.36605 0.6758 0.0
O254 O 0.20513 0.3613 0.74164 0.0
Mg255 Mg 0.23495 0.39317 0.77023 0.0
C256 C 0.19802 0.35391 0.7067 0.0
C257 C 0.23958 0.40724 0.57219 0.0
O258 O 0.26606 0.41046 0.58217 0.0
O259 O 0.20508 0.43378 0.68374 0.0
O260 O 0.20713 0.43031 0.74941 0.0
O261 O 0.27413 0.37267 0.66077 0.0
O262 O 0.25968 0.39444 0.71503 0.0
C263 C 0.19741 0.44194 0.71807 0.0
C264 C 0.2766 0.37684 0.69848 0.0
O265 O 0.22131 0.40399 0.59918 0.0
Mg266 Mg 0.59754 0.29558 0.68119 0.0
O267 O 0.62773 0.25791 0.68871 0.0
O268 O 0.6329 0.25147 0.75411 0.0
Mg269 Mg 0.61031 0.28654 0.78742 0.0
C270 C 0.63748 0.24417 0.7183 0.0
C271 C 0.60952 0.28639 0.59231 0.0
O272 O 0.63488 0.2916 0.60574 0.0
O273 O 0.56191 0.26773 0.70255 0.0
O274 O 0.56931 0.26531 0.76746 0.0
O275 O 0.63323 0.32581 0.67848 0.0
O276 O 0.61226 0.31244 0.73378 0.0
C277 C 0.55507 0.25866 0.73677 0.0
C278 C 0.63226 0.32606 0.71677 0.0
O279 O 0.58923 0.28446 0.61656 0.0
Mg280 Mg 0.76177 0.40682 0.83464 0.0
O281 O 0.78994 0.36833 0.82397 0.0
O282 O 0.78802 0.35829 0.75922 0.0
Mg283 Mg 0.75888 0.38986 0.7288 0.0
C284 C 0.79695 0.35334 0.79419 0.0
C285 C 0.76183 0.42008 0.9226 0.0
O286 O 0.73665 0.42773 0.9108 0.0
O287 O 0.7952 0.43512 0.80703 0.0
O288 O 0.79034 0.42523 0.74297 0.0
O289 O 0.72403 0.37933 0.84319 0.0
O290 O 0.73733 0.39665 0.78538 0.0
C291 C 0.80228 0.4389 0.77092 0.0
C292 C 0.72038 0.38105 0.80531 0.0
O293 O 0.77944 0.41126 0.89719 0.0
Mg294 Mg 0.60784 0.70244 0.82908 0.0
O295 O 0.6315 0.74424 0.82277 0.0
O296 O 0.63993 0.75044 0.75815 0.0
Mg297 Mg 0.62561 0.7114 0.72397 0.0
C298 C 0.64112 0.75876 0.79402 0.0
C299 C 0.57185 0.70935 0.90721 0.0
O300 O 0.55108 0.70203 0.88375 0.0
O301 O 0.56849 0.7223 0.80208 0.0
O302 O 0.57974 0.72205 0.73753 0.0
O303 O 0.64766 0.67762 0.83547 0.0
O304 O 0.62652 0.68637 0.77845 0.0
C305 C 0.56229 0.7262 0.76563 0.0
C306 C 0.64684 0.67472 0.79738 0.0
O307 O 0.59627 0.71292 0.89299 0.0
Mg308 Mg 0.24201 0.58751 0.82078 0.0
O309 O 0.20774 0.62167 0.82024 0.0
O310 O 0.20391 0.63772 0.75816 0.0
Mg311 Mg 0.23474 0.6142 0.71919 0.0
C312 C 0.19684 0.63806 0.7945 0.0
C313 C 0.23214 0.59347 0.91026 0.0
O314 O 0.24148 0.61852 0.90021 0.0
O315 O 0.21396 0.55512 0.78997 0.0
O316 O 0.21034 0.57321 0.72921 0.0
O317 O 0.27518 0.62035 0.82973 0.0
O318 O 0.26111 0.60493 0.77115 0.0
C319 C 0.20525 0.5537 0.75414 0.0
C320 C 0.27677 0.62149 0.79152 0.0
O321 O 0.22843 0.57499 0.88346 0.0
Mg322 Mg 0.40275 0.29498 0.82342 0.0
O323 O 0.37526 0.25538 0.82065 0.0
O324 O 0.36464 0.24751 0.75699 0.0
Mg325 Mg 0.38419 0.28238 0.71948 0.0
C326 C 0.36348 0.24083 0.79357 0.0
C327 C 0.39303 0.28342 0.9115 0.0
O328 O 0.36737 0.28669 0.89793 0.0
O329 O 0.43851 0.26826 0.79957 0.0
O330 O 0.42696 0.26293 0.73614 0.0
O331 O 0.36552 0.32369 0.82756 0.0
O332 O 0.38493 0.3101 0.77133 0.0
C333 C 0.4434 0.258 0.7653 0.0
C334 C 0.3652 0.32353 0.78925 0.0
O335 O 0.4136 0.28459 0.88763 0.0
Mg336 Mg 0.22538 0.41332 0.31367 0.0
O337 O 0.19506 0.37579 0.31133 0.0
O338 O 0.18908 0.36498 0.24742 0.0
Mg339 Mg 0.21396 0.39591 0.20921 0.0
C340 C 0.18456 0.36041 0.2841 0.0
C341 C 0.22515 0.40051 0.40316 0.0
O342 O 0.23699 0.37772 0.38869 0.0
O343 O 0.19057 0.44334 0.29438 0.0
O344 O 0.1868 0.43326 0.23026 0.0
O345 O 0.26217 0.38403 0.3127 0.0
O346 O 0.24287 0.4024 0.25896 0.0
C347 C 0.17946 0.44774 0.26047 0.0
C348 C 0.26127 0.3859 0.27453 0.0
O349 O 0.21604 0.41933 0.37955 0.0
Mg350 Mg 0.60474 0.30046 0.33405 0.0
O351 O 0.62755 0.26042 0.31529 0.0
O352 O 0.6287 0.2602 0.24912 0.0
Mg353 Mg 0.61067 0.30187 0.22615 0.0
C354 C 0.63366 0.24868 0.28252 0.0
C355 C 0.6038 0.30036 0.42356 0.0
O356 O 0.60959 0.32658 0.41402 0.0
O357 O 0.56307 0.28245 0.31259 0.0
O358 O 0.56646 0.28996 0.24717 0.0
O359 O 0.64449 0.32567 0.33624 0.0
O360 O 0.61781 0.32261 0.28383 0.0
C361 C 0.55245 0.28293 0.27783 0.0
C362 C 0.63904 0.33424 0.30064 0.0
O363 O 0.59948 0.28252 0.3962 0.0
Mg364 Mg 0.76366 0.58539 0.32188 0.0
O365 O 0.79161 0.6247 0.31788 0.0
O366 O 0.79549 0.63549 0.25358 0.0
Mg367 Mg 0.77013 0.60389 0.21699 0.0
C368 C 0.80091 0.64027 0.29 0.0
C369 C 0.76272 0.59069 0.41361 0.0
O370 O 0.74201 0.6076 0.40375 0.0
O371 O 0.79964 0.55802 0.29936 0.0
O372 O 0.80063 0.5682 0.23511 0.0
O373 O 0.72476 0.61216 0.32425 0.0
O374 O 0.74332 0.59605 0.2688 0.0
C375 C 0.81002 0.55442 0.26487 0.0
C376 C 0.72439 0.61103 0.28602 0.0
O377 O 0.77697 0.57876 0.38654 0.0
Mg378 Mg 0.39923 0.69635 0.31635 0.0
O379 O 0.37328 0.73718 0.31409 0.0
O380 O 0.36012 0.74404 0.25119 0.0
Mg381 Mg 0.37693 0.70753 0.21366 0.0
C382 C 0.36068 0.75154 0.28748 0.0
C383 C 0.40617 0.69047 0.40598 0.0
O384 O 0.39284 0.66728 0.39617 0.0
O385 O 0.43569 0.72001 0.2881 0.0
O386 O 0.42151 0.7243 0.22563 0.0
O387 O 0.36056 0.67005 0.32456 0.0
O388 O 0.37883 0.68064 0.26637 0.0
C389 C 0.43969 0.72878 0.25277 0.0
C390 C 0.35917 0.66877 0.28636 0.0
O391 O 0.41298 0.70791 0.37911 0.0
Mg392 Mg 0.22767 0.58925 0.16909 0.0
O393 O 0.19922 0.62783 0.17858 0.0
O394 O 0.19761 0.63589 0.24389 0.0
Mg395 Mg 0.22557 0.60379 0.27557 0.0
C396 C 0.19059 0.64193 0.2084 0.0
C397 C 0.23237 0.58325 0.07964 0.0
O398 O 0.25844 0.58165 0.09225 0.0
O399 O 0.19309 0.56044 0.19242 0.0
O400 O 0.19497 0.56856 0.25722 0.0
O401 O 0.26572 0.61673 0.16496 0.0
O402 O 0.25003 0.59843 0.22091 0.0
C403 C 0.18436 0.55566 0.22754 0.0
C404 C 0.26786 0.6143 0.20298 0.0
O405 O 0.21269 0.58552 0.10487 0.0
Mg406 Mg 0.39018 0.2991 0.16719 0.0
O407 O 0.37031 0.25574 0.17797 0.0
O408 O 0.3594 0.25367 0.24241 0.0
Mg409 Mg 0.36969 0.29581 0.27176 0.0
C410 C 0.36045 0.24271 0.20795 0.0
C411 C 0.38738 0.27942 0.08079 0.0
O412 O 0.36095 0.27792 0.09164 0.0
O413 O 0.43014 0.28518 0.19905 0.0
O414 O 0.41672 0.28733 0.26265 0.0
O415 O 0.3483 0.31853 0.15417 0.0
O416 O 0.36752 0.31657 0.21376 0.0
C417 C 0.43541 0.28344 0.23608 0.0
C418 C 0.3467 0.32374 0.19168 0.0
O419 O 0.40601 0.2854 0.10644 0.0
Mg420 Mg 0.76807 0.41392 0.18202 0.0
O421 O 0.79237 0.37286 0.19212 0.0
O422 O 0.79602 0.36653 0.25753 0.0
Mg423 Mg 0.77249 0.4021 0.28865 0.0
C424 C 0.80082 0.3588 0.22205 0.0
C425 C 0.76285 0.41931 0.09211 0.0
O426 O 0.7372 0.42436 0.10449 0.0
O427 O 0.80519 0.4408 0.20161 0.0
O428 O 0.80393 0.43546 0.26698 0.0
O429 O 0.7275 0.39061 0.1822 0.0
O430 O 0.74598 0.40929 0.23544 0.0
C431 C 0.81437 0.44693 0.23608 0.0
C432 C 0.72512 0.39624 0.21957 0.0
O433 O 0.78209 0.41442 0.11733 0.0
Mg434 Mg 0.60008 0.69534 0.15983 0.0
O435 O 0.62398 0.7367 0.17033 0.0
O436 O 0.62995 0.74104 0.23584 0.0
Mg437 Mg 0.61071 0.70275 0.26667 0.0
C438 C 0.63292 0.75018 0.20052 0.0
C439 C 0.5698 0.70075 0.07787 0.0
O440 O 0.55022 0.68713 0.09742 0.0
O441 O 0.56066 0.71769 0.18149 0.0
O442 O 0.56773 0.72007 0.24643 0.0
O443 O 0.63997 0.67037 0.15752 0.0
O444 O 0.61577 0.67818 0.21224 0.0
C445 C 0.55279 0.72551 0.21586 0.0
C446 C 0.63764 0.66762 0.19549 0.0
O447 O 0.59218 0.70807 0.09559 0.0
C448 C 0.32349 0.20998 0.18177 0.0
C449 C 0.34893 0.21399 0.20295 0.0
C450 C 0.3471 0.16541 0.2276 0.0
C451 C 0.32082 0.16185 0.20824 0.0
N452 N 0.2879 0.17768 0.15814 0.0
N453 N 0.38863 0.19438 0.23743 0.0
C454 C 0.31038 0.18305 0.18223 0.0
C455 C 0.3619 0.19125 0.22319 0.0
N456 N 0.31088 0.23236 0.16331 0.0
N457 N 0.35764 0.14411 0.25058 0.0
H458 H 0.39997 0.21304 0.23415 0.0
H459 H 0.40049 0.17807 0.24956 0.0
H460 H 0.34877 0.124 0.25137 0.0
H461 H 0.37469 0.14637 0.26961 0.0
H462 H 0.29041 0.23195 0.15245 0.0
H463 H 0.32019 0.25214 0.16077 0.0
H464 H 0.28155 0.19109 0.1354 0.0
H465 H 0.27679 0.15883 0.1582 0.0
C466 C 0.81527 0.28223 0.19486 0.0
C467 C 0.84225 0.27859 0.21214 0.0
C468 C 0.84407 0.32906 0.2281 0.0
C469 C 0.81573 0.33179 0.2157 0.0
N470 N 0.77302 0.31072 0.1911 0.0
N471 N 0.88253 0.29788 0.24595 0.0
C472 C 0.80105 0.30841 0.1996 0.0
C473 C 0.85675 0.30188 0.22888 0.0
N474 N 0.80314 0.26068 0.17413 0.0
N475 N 0.85903 0.35264 0.23802 0.0
H476 H 0.89333 0.27875 0.24466 0.0
H477 H 0.8927 0.31305 0.26298 0.0
H478 H 0.85037 0.37287 0.2374 0.0
H479 H 0.88053 0.3526 0.24359 0.0
H480 H 0.785 0.26307 0.15719 0.0
H481 H 0.81234 0.24086 0.171 0.0
H482 H 0.76032 0.29359 0.18398 0.0
H483 H 0.76174 0.32945 0.19416 0.0
C484 C 0.62931 0.80186 0.21282 0.0
C485 C 0.6441 0.77909 0.19532 0.0
C486 C 0.68251 0.811 0.17721 0.0
C487 C 0.67009 0.83231 0.20123 0.0
N488 N 0.63058 0.84952 0.23879 0.0
N489 N 0.68359 0.76168 0.15811 0.0
C490 C 0.64302 0.82821 0.21785 0.0
C491 C 0.67011 0.78371 0.17601 0.0
N492 N 0.60179 0.79836 0.22336 0.0
N493 N 0.70606 0.81671 0.15556 0.0
H494 H 0.67412 0.74219 0.1535 0.0
H495 H 0.70444 0.76227 0.14895 0.0
H496 H 0.71658 0.83587 0.15643 0.0
H497 H 0.71418 0.80321 0.13414 0.0
H498 H 0.58885 0.81461 0.23317 0.0
H499 H 0.59097 0.77952 0.21874 0.0
H500 H 0.61277 0.84689 0.25622 0.0
H501 H 0.63864 0.86997 0.23967 0.0
C502 C 0.18394 0.69128 0.18284 0.0
C503 C 0.17275 0.66717 0.20213 0.0
C504 C 0.13169 0.69444 0.22362 0.0
C505 C 0.14319 0.71876 0.20526 0.0
N506 N 0.17725 0.73941 0.16072 0.0
N507 N 0.13353 0.64356 0.23219 0.0
C508 C 0.16822 0.71681 0.18245 0.0
C509 C 0.14582 0.66811 0.21991 0.0
N510 N 0.2104 0.69037 0.16709 0.0
N511 N 0.10738 0.69664 0.24495 0.0
H512 H 0.14322 0.62393 0.22906 0.0
H513 H 0.11292 0.64214 0.2422 0.0
H514 H 0.09526 0.71497 0.24568 0.0
H515 H 0.09969 0.68075 0.26321 0.0
H516 H 0.22149 0.70815 0.15815 0.0
H517 H 0.22221 0.67196 0.16479 0.0
H518 H 0.193 0.73812 0.13946 0.0
H519 H 0.16794 0.75926 0.1617 0.0
C520 C 0.34563 0.82984 0.28177 0.0
C521 C 0.32001 0.83145 0.30323 0.0
C522 C 0.32461 0.7816 0.32227 0.0
C523 C 0.34875 0.7795 0.29788 0.0
N524 N 0.38694 0.80237 0.26422 0.0
N525 N 0.28873 0.81112 0.35197 0.0
C526 C 0.3607 0.80393 0.28059 0.0
C527 C 0.31073 0.8081 0.32628 0.0
N528 N 0.35535 0.85316 0.26228 0.0
N529 N 0.31427 0.75797 0.34019 0.0
H530 H 0.27716 0.82958 0.35506 0.0
H531 H 0.28297 0.79596 0.37267 0.0
H532 H 0.32533 0.73905 0.34125 0.0
H533 H 0.29451 0.75668 0.35318 0.0
H534 H 0.37162 0.85278 0.24178 0.0
H535 H 0.34661 0.87318 0.26602 0.0
H536 H 0.39815 0.81969 0.25395 0.0
H537 H 0.39876 0.78381 0.26392 0.0
C538 C 0.17906 0.31268 0.31619 0.0
C539 C 0.16715 0.33559 0.29472 0.0
C540 C 0.12647 0.30658 0.27673 0.0
C541 C 0.13903 0.28324 0.2963 0.0
N542 N 0.17432 0.26494 0.34107 0.0
N543 N 0.12669 0.35711 0.26455 0.0
C544 C 0.16423 0.28667 0.31842 0.0
C545 C 0.13991 0.33333 0.27806 0.0
N546 N 0.20533 0.31509 0.3323 0.0
N547 N 0.10187 0.30301 0.2564 0.0
H548 H 0.13584 0.37706 0.26625 0.0
H549 H 0.10588 0.35767 0.25511 0.0
H550 H 0.09032 0.28436 0.25737 0.0
H551 H 0.09336 0.31803 0.23735 0.0
H552 H 0.21708 0.2981 0.34266 0.0
H553 H 0.21629 0.334 0.33398 0.0
H554 H 0.1902 0.26722 0.36201 0.0
H555 H 0.16584 0.24472 0.34095 0.0
C556 C 0.68741 0.19097 0.26507 0.0
C557 C 0.67297 0.16697 0.28016 0.0
C558 C 0.63222 0.19665 0.29609 0.0
C559 C 0.64738 0.2207 0.28315 0.0
N560 N 0.69102 0.24194 0.26312 0.0
N561 N 0.63307 0.14711 0.3142 0.0
C562 C 0.67542 0.21819 0.26977 0.0
C563 C 0.64588 0.16991 0.29726 0.0
N564 N 0.71247 0.18787 0.24577 0.0
N565 N 0.60435 0.19915 0.30532 0.0
H566 H 0.64134 0.12676 0.31306 0.0
H567 H 0.615 0.14856 0.3314 0.0
H568 H 0.59363 0.21835 0.30476 0.0
H569 H 0.59123 0.18203 0.31064 0.0
H570 H 0.72202 0.20398 0.22977 0.0
H571 H 0.72309 0.16876 0.24334 0.0
H572 H 0.71256 0.24165 0.25788 0.0
H573 H 0.683 0.2623 0.26645 0.0
C574 C 0.8453 0.66766 0.28276 0.0
C575 C 0.81815 0.66539 0.29961 0.0
C576 C 0.82134 0.71413 0.32381 0.0
C577 C 0.8465 0.71761 0.30171 0.0
N578 N 0.8832 0.69803 0.26093 0.0
N579 N 0.77987 0.686 0.33657 0.0
C580 C 0.8588 0.69438 0.28161 0.0
C581 C 0.80628 0.68829 0.32101 0.0
N582 N 0.85842 0.64394 0.26893 0.0
N583 N 0.81155 0.73563 0.34705 0.0
H584 H 0.76864 0.66721 0.33743 0.0
H585 H 0.76826 0.70304 0.34706 0.0
H586 H 0.82044 0.75567 0.34777 0.0
H587 H 0.79559 0.73323 0.36778 0.0
H588 H 0.8792 0.64341 0.25949 0.0
H589 H 0.84924 0.62399 0.27033 0.0
H590 H 0.89144 0.68313 0.24151 0.0
H591 H 0.89481 0.71666 0.26187 0.0
C592 C 0.65669 0.8369 0.78539 0.0
C593 C 0.68176 0.83888 0.80806 0.0
C594 C 0.6784 0.78887 0.82553 0.0
C595 C 0.65372 0.78669 0.80214 0.0
N596 N 0.6152 0.80964 0.76875 0.0
N597 N 0.71051 0.81954 0.86054 0.0
C598 C 0.64155 0.81108 0.7848 0.0
C599 C 0.69064 0.81582 0.83183 0.0
N600 N 0.64756 0.8597 0.76414 0.0
N601 N 0.69118 0.76507 0.83974 0.0
H602 H 0.71937 0.83904 0.86701 0.0
H603 H 0.71585 0.80399 0.88101 0.0
H604 H 0.68312 0.74486 0.83557 0.0
H605 H 0.71102 0.76513 0.85277 0.0
H606 H 0.63174 0.85871 0.74289 0.0
H607 H 0.65655 0.87967 0.76692 0.0
H608 H 0.60396 0.82716 0.75896 0.0
H609 H 0.60343 0.79111 0.76842 0.0
C610 C 0.16651 0.70751 0.82973 0.0
C611 C 0.14121 0.70724 0.80751 0.0
C612 C 0.14836 0.6573 0.79171 0.0
C613 C 0.17602 0.65941 0.80675 0.0
N614 N 0.21168 0.68537 0.84197 0.0
N615 N 0.10562 0.68152 0.77187 0.0
C616 C 0.18496 0.68396 0.82721 0.0
C617 C 0.13123 0.68183 0.79029 0.0
N618 N 0.17294 0.73024 0.85287 0.0
N619 N 0.13869 0.63169 0.77906 0.0
H620 H 0.09164 0.69848 0.77318 0.0
H621 H 0.09834 0.66489 0.75461 0.0
H622 H 0.15094 0.61343 0.78051 0.0
H623 H 0.1181 0.62789 0.77026 0.0
H624 H 0.1898 0.7307 0.8725 0.0
H625 H 0.15993 0.74781 0.85532 0.0
H626 H 0.22087 0.70385 0.85237 0.0
H627 H 0.22535 0.66818 0.84224 0.0
C628 C 0.32586 0.21173 0.82609 0.0
C629 C 0.35106 0.21321 0.80394 0.0
C630 C 0.34861 0.16264 0.78949 0.0
C631 C 0.32209 0.16156 0.80866 0.0
N632 N 0.28872 0.18307 0.85378 0.0
N633 N 0.39076 0.18953 0.77498 0.0
C634 C 0.31182 0.1854 0.82996 0.0
C635 C 0.36377 0.18841 0.7888 0.0
N636 N 0.31469 0.23579 0.84184 0.0
N637 N 0.35909 0.13895 0.77167 0.0
H638 H 0.40263 0.20801 0.77515 0.0
H639 H 0.40239 0.17195 0.76654 0.0
H640 H 0.3501 0.11906 0.77523 0.0
H641 H 0.37625 0.13893 0.75264 0.0
H642 H 0.29435 0.23742 0.8528 0.0
H643 H 0.32568 0.2547 0.84292 0.0
H644 H 0.28235 0.19861 0.87357 0.0
H645 H 0.27664 0.16494 0.85635 0.0
C646 C 0.8582 0.30257 0.78249 0.0
C647 C 0.84572 0.27745 0.79691 0.0
C648 C 0.80495 0.30444 0.82005 0.0
C649 C 0.81539 0.32854 0.79998 0.0
N650 N 0.85178 0.3512 0.76199 0.0
N651 N 0.80582 0.25361 0.8258 0.0
C652 C 0.84205 0.32781 0.78127 0.0
C653 C 0.81889 0.27817 0.81525 0.0
N654 N 0.88578 0.30245 0.77124 0.0
N655 N 0.78167 0.30649 0.84354 0.0
H656 H 0.81504 0.23379 0.82298 0.0
H657 H 0.78484 0.25258 0.83435 0.0
H658 H 0.77034 0.32508 0.84734 0.0
H659 H 0.77505 0.29038 0.86228 0.0
H660 H 0.89697 0.32057 0.76404 0.0
H661 H 0.89833 0.28442 0.77261 0.0
H662 H 0.86925 0.35104 0.74349 0.0
H663 H 0.8416 0.37069 0.76313 0.0
C664 C 0.68244 0.21729 0.72651 0.0
C665 C 0.65456 0.21845 0.71154 0.0
C666 C 0.65669 0.16801 0.69492 0.0
C667 C 0.68477 0.16712 0.709 0.0
N668 N 0.72634 0.19169 0.73088 0.0
N669 N 0.6162 0.19623 0.67647 0.0
C670 C 0.69821 0.19202 0.72262 0.0
C671 C 0.64215 0.19429 0.69372 0.0
N672 N 0.69371 0.24019 0.74534 0.0
N673 N 0.64325 0.14344 0.68532 0.0
H674 H 0.60364 0.2142 0.67786 0.0
H675 H 0.60767 0.18053 0.65862 0.0
H676 H 0.65299 0.12375 0.68627 0.0
H677 H 0.62184 0.1421 0.67938 0.0
H678 H 0.71228 0.23953 0.76163 0.0
H679 H 0.68371 0.2597 0.74679 0.0
H680 H 0.7382 0.20974 0.73604 0.0
H681 H 0.73852 0.17347 0.72951 0.0
C682 C 0.79413 0.68414 0.73433 0.0
C683 C 0.80786 0.65911 0.72136 0.0
C684 C 0.85104 0.68598 0.70943 0.0
C685 C 0.83659 0.71101 0.72021 0.0
N686 N 0.79294 0.73512 0.73197 0.0
N687 N 0.84823 0.63639 0.69206 0.0
C688 C 0.80769 0.71044 0.7294 0.0
C689 C 0.83592 0.66014 0.70713 0.0
N690 N 0.7684 0.68292 0.75215 0.0
N691 N 0.8794 0.68673 0.70314 0.0
H692 H 0.83867 0.61663 0.6926 0.0
H693 H 0.86731 0.6365 0.67705 0.0
H694 H 0.89101 0.70537 0.7037 0.0
H695 H 0.8918 0.66879 0.69977 0.0
H696 H 0.75916 0.70012 0.76626 0.0
H697 H 0.75708 0.66437 0.75583 0.0
H698 H 0.77117 0.73603 0.7348 0.0
H699 H 0.80212 0.75469 0.72652 0.0
C700 C 0.34024 0.83692 0.71522 0.0
C701 C 0.31269 0.83484 0.69969 0.0
C702 C 0.32332 0.78816 0.67249 0.0
C703 C 0.34897 0.78818 0.69419 0.0
N704 N 0.38376 0.81307 0.73245 0.0
N705 N 0.27758 0.80968 0.66242 0.0
C706 C 0.35813 0.8129 0.7141 0.0
C707 C 0.30432 0.81107 0.67719 0.0
N708 N 0.34918 0.86207 0.73052 0.0
N709 N 0.31691 0.76624 0.64778 0.0
H710 H 0.26357 0.82657 0.6634 0.0
H711 H 0.26865 0.79144 0.65084 0.0
H712 H 0.32944 0.74843 0.6444 0.0
H713 H 0.30016 0.76654 0.62795 0.0
H714 H 0.36965 0.86599 0.73976 0.0
H715 H 0.33644 0.88001 0.73106 0.0
H716 H 0.39053 0.82891 0.75148 0.0
H717 H 0.3983 0.79674 0.72924 0.0
C718 C 0.13796 0.30345 0.72546 0.0
C719 C 0.14807 0.27882 0.7063 0.0
C720 C 0.1894 0.30451 0.68265 0.0
C721 C 0.17946 0.3291 0.70225 0.0
N722 N 0.14149 0.35423 0.73341 0.0
N723 N 0.17965 0.25738 0.65896 0.0
C724 C 0.15283 0.32924 0.72099 0.0
C725 C 0.17243 0.27991 0.68213 0.0
N726 N 0.11429 0.30206 0.74828 0.0
N727 N 0.21586 0.30389 0.66688 0.0
H728 H 0.169 0.23824 0.65908 0.0
H729 H 0.19498 0.25834 0.63704 0.0
H730 H 0.22901 0.32136 0.66541 0.0
H731 H 0.22577 0.28546 0.65758 0.0
H732 H 0.10776 0.31818 0.76705 0.0
H733 H 0.10166 0.28413 0.74974 0.0
H734 H 0.12109 0.35632 0.74404 0.0
H735 H 0.15167 0.37353 0.72968 0.0
C736 C 0.25615 0.09826 0.0345 0.0
C737 C 0.26417 0.07449 0.0573 0.0
C738 C 0.27764 0.04946 0.99668 0.0
C739 C 0.26572 0.07161 0.97385 0.0
N740 N 0.23965 0.11543 0.97124 0.0
N741 N 0.28086 0.02653 0.0608 0.0
C742 C 0.25414 0.09574 0.99275 0.0
C743 C 0.27475 0.04988 0.03864 0.0
N744 N 0.25094 0.12346 0.05278 0.0
N745 N 0.29226 0.02839 0.97825 0.0
H746 H 0.27946 0.02625 0.09161 0.0
H747 H 0.2855 0.00691 0.0486 0.0
H748 H 0.29494 0.02762 0.94762 0.0
H749 H 0.30379 0.01313 0.99339 0.0
H750 H 0.24783 0.14226 0.03741 0.0
H751 H 0.2526 0.12616 0.08336 0.0
H752 H 0.22811 0.13168 0.98415 0.0
H753 H 0.2368 0.11417 0.9407 0.0
C754 C 0.88442 0.18326 0.98366 0.0
C755 C 0.90858 0.19168 0.96213 0.0
C756 C 0.93254 0.20423 0.0241 0.0
C757 C 0.90928 0.19366 0.04559 0.0
N758 N 0.86484 0.1692 0.04679 0.0
N759 N 0.95643 0.20818 0.9608 0.0
C760 C 0.88557 0.18233 0.02565 0.0
C761 C 0.93291 0.20161 0.98207 0.0
N762 N 0.86036 0.17594 0.96399 0.0
N763 N 0.95388 0.21741 0.04391 0.0
H764 H 0.95695 0.20787 0.92992 0.0
H765 H 0.97586 0.21251 0.97355 0.0
H766 H 0.95423 0.2194 0.07467 0.0
H767 H 0.97017 0.22813 0.03001 0.0
H768 H 0.84105 0.17325 0.9779 0.0
H769 H 0.85907 0.17423 0.93328 0.0
H770 H 0.8488 0.15747 0.03389 0.0
H771 H 0.86476 0.16795 0.07761 0.0
C772 C 0.73207 0.93042 0.99155 0.0
C773 C 0.71896 0.9089 0.96894 0.0
C774 C 0.70036 0.88764 0.02975 0.0
C775 C 0.71694 0.90654 0.05237 0.0
N776 N 0.75057 0.94456 0.05538 0.0
N777 N 0.6904 0.86706 0.96544 0.0
C778 C 0.73292 0.92795 0.03351 0.0
C779 C 0.70284 0.88762 0.98777 0.0
N780 N 0.74425 0.95291 0.97299 0.0
N781 N 0.68183 0.87017 0.04853 0.0
H782 H 0.69007 0.86756 0.93455 0.0
H783 H 0.6814 0.84895 0.9773 0.0
H784 H 0.67937 0.86997 0.07923 0.0
H785 H 0.66722 0.85766 0.03383 0.0
H786 H 0.7512 0.97082 0.98788 0.0
H787 H 0.74546 0.95487 0.94233 0.0
H788 H 0.76539 0.95804 0.043 0.0
H789 H 0.7521 0.94342 0.08612 0.0
C790 C 0.05625 0.80954 0.97919 0.0
C791 C 0.0782 0.79594 0.95818 0.0
C792 C 0.10394 0.78794 0.02009 0.0
C793 C 0.08199 0.80162 0.04116 0.0
N794 N 0.03459 0.81935 0.04277 0.0
N795 N 0.1197 0.76667 0.95868 0.0
C796 C 0.05728 0.81055 0.02126 0.0
C797 C 0.10085 0.78308 0.97875 0.0
N798 N 0.03476 0.82203 0.95877 0.0
N799 N 0.1286 0.78143 0.03889 0.0
H800 H 0.11886 0.76357 0.92816 0.0
H801 H 0.1348 0.75422 0.9726 0.0
H802 H 0.13202 0.78488 0.06898 0.0
H803 H 0.14659 0.77466 0.0242 0.0
H804 H 0.01997 0.83531 0.97176 0.0
H805 H 0.03242 0.8201 0.92817 0.0
H806 H 0.015 0.82366 0.03045 0.0
H807 H 0.03462 0.81993 0.07366 0.0
C808 C 0.26689 0.9457 0.49349 0.0
C809 C 0.26417 0.92086 0.47032 0.0
C810 C 0.26143 0.8926 0.53098 0.0
C811 C 0.25908 0.91769 0.55351 0.0
N812 N 0.25885 0.96843 0.5569 0.0
N813 N 0.25596 0.87055 0.46693 0.0
C814 C 0.26205 0.94438 0.53508 0.0
C815 C 0.26113 0.89417 0.48899 0.0
N816 N 0.27451 0.97042 0.4757 0.0
N817 N 0.26414 0.86724 0.5499 0.0
H818 H 0.25497 0.87056 0.43612 0.0
H819 H 0.25026 0.85127 0.47928 0.0
H820 H 0.26472 0.86549 0.58071 0.0
H821 H 0.2687 0.84846 0.53525 0.0
H822 H 0.27938 0.98871 0.49129 0.0
H823 H 0.27854 0.97189 0.4454 0.0
H824 H 0.25741 0.98848 0.54448 0.0
H825 H 0.25597 0.9682 0.5875 0.0
C826 C 0.10558 0.21437 0.52733 0.0
C827 C 0.08656 0.19686 0.54822 0.0
C828 C 0.06311 0.18445 0.48601 0.0
C829 C 0.08503 0.19787 0.46486 0.0
N830 N 0.1282 0.22461 0.46476 0.0
N831 N 0.04672 0.16564 0.54869 0.0
C832 C 0.10625 0.21313 0.48527 0.0
C833 C 0.06496 0.18224 0.5279 0.0
N834 N 0.12337 0.23173 0.54772 0.0
N835 N 0.04037 0.17423 0.46586 0.0
H836 H 0.04645 0.16498 0.57957 0.0
H837 H 0.0327 0.15168 0.5355 0.0
H838 H 0.03837 0.17599 0.43518 0.0
H839 H 0.02244 0.16637 0.47956 0.0
H840 H 0.13562 0.24715 0.53426 0.0
H841 H 0.12418 0.23244 0.57855 0.0
H842 H 0.14608 0.23283 0.47823 0.0
H843 H 0.12966 0.22424 0.434 0.0
C844 C 0.7239 0.07911 0.51404 0.0
C845 C 0.70948 0.09974 0.53674 0.0
C846 C 0.68875 0.11938 0.47603 0.0
C847 C 0.70593 0.10111 0.45326 0.0
N848 N 0.74296 0.06624 0.45018 0.0
N849 N 0.67881 0.14013 0.54027 0.0
C850 C 0.72402 0.08136 0.4721 0.0
C851 C 0.69196 0.12001 0.51797 0.0
N852 N 0.73801 0.05764 0.53247 0.0
N853 N 0.66897 0.13566 0.45748 0.0
H854 H 0.67927 0.14009 0.57116 0.0
H855 H 0.66853 0.15756 0.52833 0.0
H856 H 0.66611 0.13552 0.42684 0.0
H857 H 0.65393 0.14752 0.47238 0.0
H858 H 0.74581 0.04009 0.51752 0.0
H859 H 0.7402 0.05606 0.56306 0.0
H860 H 0.75906 0.05424 0.46257 0.0
H861 H 0.7444 0.06752 0.41946 0.0
C862 C 0.92557 0.79291 0.53144 0.0
C863 C 0.90104 0.79309 0.55524 0.0
C864 C 0.87174 0.7917 0.4956 0.0
C865 C 0.89596 0.7962 0.47216 0.0
N866 N 0.94607 0.8023 0.46702 0.0
N867 N 0.85041 0.79595 0.5602 0.0
C868 C 0.92302 0.79675 0.48977 0.0
C869 C 0.87398 0.79297 0.53745 0.0
N870 N 0.95121 0.78865 0.54871 0.0
N871 N 0.84662 0.78588 0.47773 0.0
H872 H 0.85087 0.79752 0.59096 0.0
H873 H 0.83048 0.79935 0.54838 0.0
H874 H 0.84438 0.78451 0.44704 0.0
H875 H 0.8288 0.7796 0.49323 0.0
H876 H 0.96965 0.78559 0.53273 0.0
H877 H 0.95366 0.78561 0.57913 0.0
H878 H 0.96592 0.80629 0.47869 0.0
H879 H 0.94504 0.80467 0.43635 0.0
C880 C 0.77062 0.60541 0.52308 0.0
C881 C 0.76885 0.57778 0.53914 0.0
C882 C 0.7664 0.55783 0.47224 0.0
C883 C 0.7686 0.58545 0.45616 0.0
N884 N 0.78073 0.63429 0.4656 0.0
N885 N 0.77269 0.52763 0.52961 0.0
C886 C 0.77331 0.60884 0.48145 0.0
C887 C 0.76928 0.55396 0.51382 0.0
N888 N 0.76794 0.62844 0.54715 0.0
N889 N 0.75972 0.53555 0.44836 0.0
H890 H 0.7751 0.52422 0.55996 0.0
H891 H 0.77595 0.50964 0.51253 0.0
H892 H 0.75704 0.53733 0.41785 0.0
H893 H 0.75461 0.51564 0.45917 0.0
H894 H 0.76563 0.64891 0.53643 0.0
H895 H 0.7658 0.62706 0.57778 0.0
H896 H 0.78707 0.65145 0.48263 0.0
H897 H 0.78334 0.63734 0.43522 0.0
C898 C 0.38478 0.70189 0.4712 0.0
C899 C 0.40935 0.69767 0.44835 0.0
C900 C 0.43826 0.70154 0.50827 0.0
C901 C 0.41344 0.70141 0.5315 0.0
N902 N 0.36283 0.69789 0.53542 0.0
N903 N 0.4596 0.69238 0.44426 0.0
C904 C 0.38659 0.70098 0.5131 0.0
C905 C 0.43622 0.69755 0.46656 0.0
N906 N 0.35975 0.70721 0.45273 0.0
N907 N 0.46366 0.70594 0.52613 0.0
H908 H 0.45889 0.69001 0.41358 0.0
H909 H 0.47943 0.68878 0.45627 0.0
H910 H 0.46573 0.70897 0.55659 0.0
H911 H 0.48228 0.70899 0.51061 0.0
H912 H 0.34166 0.71333 0.46778 0.0
H913 H 0.35776 0.70831 0.42199 0.0
H914 H 0.34309 0.69406 0.52325 0.0
H915 H 0.36298 0.69665 0.56622 0.0
C916 C 0.23858 0.42813 0.46404 0.0
C917 C 0.22462 0.40472 0.44668 0.0
C918 C 0.21862 0.3834 0.51232 0.0
C919 C 0.23156 0.40736 0.52974 0.0
N920 N 0.24668 0.45563 0.52339 0.0
N921 N 0.19521 0.36381 0.45477 0.0
C922 C 0.23922 0.43074 0.50593 0.0
C923 C 0.21265 0.38354 0.47104 0.0
N924 N 0.25283 0.44693 0.44089 0.0
N925 N 0.21354 0.35985 0.53454 0.0
H926 H 0.19008 0.3636 0.42472 0.0
H927 H 0.18368 0.34949 0.47155 0.0
H928 H 0.2179 0.35859 0.56473 0.0
H929 H 0.20717 0.34071 0.5224 0.0
H930 H 0.26602 0.46241 0.45243 0.0
H931 H 0.25367 0.44564 0.41014 0.0
H932 H 0.24978 0.47423 0.50757 0.0
H933 H 0.24689 0.45842 0.55404 0.0
C934 C 0.6197 0.26774 0.52443 0.0
C935 C 0.60439 0.28651 0.54901 0.0
C936 C 0.58278 0.30776 0.49025 0.0
C937 C 0.60165 0.29252 0.46591 0.0
N938 N 0.63986 0.25924 0.45969 0.0
N939 N 0.57401 0.3273 0.55506 0.0
C940 C 0.62037 0.2725 0.48284 0.0
C941 C 0.58632 0.30709 0.53195 0.0
N942 N 0.63324 0.24513 0.54086 0.0
N943 N 0.56124 0.32265 0.47344 0.0
H944 H 0.57659 0.32843 0.58564 0.0
H945 H 0.56331 0.34461 0.54345 0.0
H946 H 0.5578 0.32317 0.44292 0.0
H947 H 0.54517 0.33192 0.48984 0.0
H948 H 0.64248 0.22915 0.52419 0.0
H949 H 0.63285 0.24093 0.57119 0.0
H950 H 0.65614 0.24699 0.47112 0.0
H951 H 0.64112 0.2621 0.42915 0.0
C952 C 0.76821 0.44608 0.98625 0.0
C953 C 0.7684 0.4201 0.96551 0.0
C954 C 0.77351 0.39444 0.02831 0.0
C955 C 0.76886 0.42004 0.04907 0.0
N956 N 0.76232 0.47044 0.0489 0.0
N957 N 0.76983 0.36921 0.96606 0.0
C958 C 0.7666 0.44598 0.02831 0.0
C959 C 0.77125 0.39417 0.98626 0.0
N960 N 0.77014 0.47079 0.96554 0.0
N961 N 0.77963 0.37033 0.04882 0.0
H962 H 0.76838 0.368 0.93531 0.0
H963 H 0.7682 0.34961 0.97974 0.0
H964 H 0.78031 0.36946 0.07965 0.0
H965 H 0.78622 0.3517 0.03541 0.0
H966 H 0.77267 0.49046 0.97871 0.0
H967 H 0.77171 0.47138 0.93473 0.0
H968 H 0.75697 0.48954 0.03568 0.0
H969 H 0.76302 0.47142 0.07975 0.0
C970 C 0.56938 0.67834 0.01076 0.0
C971 C 0.56814 0.70317 0.03419 0.0
C972 C 0.56893 0.73237 0.97413 0.0
C973 C 0.56858 0.70751 0.95075 0.0
N974 N 0.56449 0.65683 0.94613 0.0
N975 N 0.56242 0.75351 0.03904 0.0
C976 C 0.56733 0.68051 0.9689 0.0
C977 C 0.56671 0.73015 0.0161 0.0
N978 N 0.57437 0.6528 0.02835 0.0
N979 N 0.57184 0.75805 0.95618 0.0
H980 H 0.56071 0.75254 0.06981 0.0
H981 H 0.55836 0.7735 0.02762 0.0
H982 H 0.57217 0.76051 0.92549 0.0
H983 H 0.57551 0.77672 0.97152 0.0
H984 H 0.57894 0.63447 0.01267 0.0
H985 H 0.57645 0.65019 0.05886 0.0
H986 H 0.55981 0.63703 0.95772 0.0
H987 H 0.56485 0.65708 0.91528 0.0
C988 C 0.21293 0.60577 0.0175 0.0
C989 C 0.22677 0.58283 0.03636 0.0
C990 C 0.24169 0.5646 0.97177 0.0
C991 C 0.22729 0.58715 0.95281 0.0
N992 N 0.19261 0.62411 0.95684 0.0
N993 N 0.24675 0.53628 0.03111 0.0
C994 C 0.21071 0.60606 0.9755 0.0
C995 C 0.23863 0.56087 0.01329 0.0
N996 N 0.20352 0.62819 0.03922 0.0
N997 N 0.25985 0.54791 0.95094 0.0
H998 H 0.24424 0.5327 0.06139 0.0
H999 H 0.25308 0.5185 0.01535 0.0
H1000 H 0.26345 0.55013 0.9207 0.0
H1001 H 0.27327 0.53339 0.96435 0.0
H1002 H 0.19631 0.64686 0.02646 0.0
H1003 H 0.20502 0.62924 0.06995 0.0
H1004 H 0.17807 0.63655 0.97189 0.0
H1005 H 0.1901 0.62443 0.92614 0.0
C1006 C 0.38719 0.2554 0.97383 0.0
C1007 C 0.39743 0.27994 0.95463 0.0
C1008 C 0.40444 0.30307 0.01872 0.0
C1009 C 0.39432 0.27846 0.03805 0.0
N1010 N 0.38199 0.2293 0.03532 0.0
N1011 N 0.42183 0.32445 0.95841 0.0
C1012 C 0.38755 0.25399 0.01592 0.0
C1013 C 0.40833 0.30275 0.97701 0.0
N1014 N 0.37657 0.23372 0.95173 0.0
N1015 N 0.40816 0.32752 0.0396 0.0
H1016 H 0.42389 0.32583 0.92777 0.0
H1017 H 0.43307 0.33992 0.97349 0.0
H1018 H 0.40506 0.32916 0.07002 0.0
H1019 H 0.41202 0.34696 0.02635 0.0
H1020 H 0.3656 0.21678 0.96371 0.0
H1021 H 0.37768 0.23327 0.92088 0.0
H1022 H 0.37938 0.21 0.02112 0.0
H1023 H 0.38243 0.22765 0.06613 0.0
C1024 C 0.33429 0.00647 0.22939 0.0
C1025 C 0.32747 0.02654 0.25896 0.0
C1026 C 0.33063 0.98997 0.30969 0.0
C1027 C 0.32712 0.96979 0.27909 0.0
N1028 N 0.34358 0.957 0.21437 0.0
N1029 N 0.33807 0.03948 0.32611 0.0
C1030 C 0.33509 0.97746 0.24013 0.0
C1031 C 0.33189 0.01901 0.29912 0.0
N1032 N 0.33962 0.01528 0.19171 0.0
N1033 N 0.33263 0.98131 0.3481 0.0
H1034 H 0.34174 0.06027 0.31736 0.0
H1035 H 0.34231 0.03561 0.35584 0.0
H1036 H 0.33592 0.96016 0.35538 0.0
H1037 H 0.33201 0.99486 0.3723 0.0
H1038 H 0.34206 0.00179 0.16767 0.0
H1039 H 0.34239 0.03661 0.18507 0.0
H1040 H 0.35033 0.96087 0.18561 0.0
H1041 H 0.34611 0.93612 0.22359 0.0
C1042 C 0.97745 0.23714 0.23915 0.0
C1043 C 0.96251 0.21137 0.24185 0.0
C1044 C 0.00429 0.1874 0.26768 0.0
C1045 C 0.01976 0.21275 0.26298 0.0
N1046 N 0.02269 0.26087 0.24051 0.0
N1047 N 0.96247 0.16091 0.25114 0.0
C1048 C 0.00681 0.23741 0.24752 0.0
C1049 C 0.97613 0.18622 0.25415 0.0
N1050 N 0.96336 0.26137 0.22967 0.0
N1051 N 0.01649 0.1644 0.28522 0.0
H1052 H 0.94182 0.15901 0.24112 0.0
H1053 H 0.97225 0.14146 0.25513 0.0
H1054 H 0.0376 0.16354 0.29335 0.0
H1055 H 0.00527 0.14671 0.29424 0.0
H1056 H 0.97221 0.28139 0.23114 0.0
H1057 H 0.94204 0.26161 0.22249 0.0
H1058 H 0.01536 0.27859 0.2255 0.0
H1059 H 0.04393 0.26202 0.24789 0.0
C1060 C 0.6488 0.0068 0.29283 0.0
C1061 C 0.65387 0.02568 0.26108 0.0
C1062 C 0.64915 0.98694 0.21403 0.0
C1063 C 0.65519 0.96829 0.24573 0.0
N1064 N 0.64267 0.95775 0.313 0.0
N1065 N 0.64179 0.03579 0.19357 0.0
C1066 C 0.64893 0.97731 0.28475 0.0
C1067 C 0.64803 0.01637 0.22207 0.0
N1068 N 0.64407 0.01718 0.32988 0.0
N1069 N 0.64491 0.97631 0.17699 0.0
H1070 H 0.63919 0.05709 0.20066 0.0
H1071 H 0.63747 0.0309 0.16419 0.0
H1072 H 0.64302 0.95462 0.17223 0.0
H1073 H 0.64214 0.98855 0.15173 0.0
H1074 H 0.64256 0.00481 0.35521 0.0
H1075 H 0.64039 0.03863 0.33462 0.0
H1076 H 0.63787 0.96255 0.34225 0.0
H1077 H 0.63996 0.93652 0.30574 0.0
C1078 C 0.00767 0.81232 0.24627 0.0
C1079 C 0.02228 0.78632 0.24311 0.0
C1080 C 0.97952 0.76045 0.26089 0.0
C1081 C 0.96556 0.78657 0.26659 0.0
N1082 N 0.96685 0.83737 0.27071 0.0
N1083 N 0.02381 0.73586 0.25053 0.0
C1084 C 0.97979 0.81252 0.26093 0.0
C1085 C 0.00868 0.76038 0.2513 0.0
N1086 N 0.02034 0.83685 0.23458 0.0
N1087 N 0.96473 0.73586 0.26392 0.0
H1088 H 0.04489 0.73514 0.24219 0.0
H1089 H 0.01607 0.71651 0.26006 0.0
H1090 H 0.94363 0.73534 0.27221 0.0
H1091 H 0.97274 0.71619 0.25623 0.0
H1092 H 0.00974 0.85595 0.23156 0.0
H1093 H 0.0411 0.83788 0.22489 0.0
H1094 H 0.97717 0.85669 0.27187 0.0
H1095 H 0.9462 0.83854 0.28084 0.0
C1096 C 0.66543 0.99326 0.79247 0.0
C1097 C 0.67238 0.97237 0.76416 0.0
C1098 C 0.66477 0.00667 0.71116 0.0
C1099 C 0.66979 0.02808 0.73952 0.0
N1100 N 0.65986 0.04354 0.8057 0.0
N1101 N 0.6624 0.95607 0.69826 0.0
C1102 C 0.66467 0.02191 0.77995 0.0
C1103 C 0.66645 0.97802 0.72373 0.0
N1104 N 0.65928 0.98544 0.83034 0.0
N1105 N 0.65824 0.01394 0.67317 0.0
H1106 H 0.66054 0.93539 0.70856 0.0
H1107 H 0.65956 0.95823 0.66789 0.0
H1108 H 0.65387 0.03481 0.66543 0.0
H1109 H 0.65501 -0.00041 0.65036 0.0
H1110 H 0.65402 -0.00054 0.85281 0.0
H1111 H 0.65706 0.96425 0.83812 0.0
H1112 H 0.65799 0.04116 0.83619 0.0
H1113 H 0.65711 0.06419 0.79558 0.0
C1114 C 0.97989 0.73662 0.71211 0.0
C1115 C 0.9608 0.73977 0.74412 0.0
C1116 C -0.00116 0.73147 0.79134 0.0
C1117 C 0.01812 0.73724 0.76043 0.0
N1118 N 0.02758 0.72478 0.69261 0.0
N1119 N 0.95049 0.72065 0.80852 0.0
C1120 C 0.00896 0.73345 0.7208 0.0
C1121 C 0.9697 0.73097 0.78231 0.0
N1122 N 0.97036 0.73593 0.67402 0.0
N1123 N 0.00842 0.72607 0.82867 0.0
H1124 H 0.92964 0.71709 0.8003 0.0
H1125 H 0.95566 0.71251 0.83621 0.0
H1126 H 0.02953 0.72167 0.83436 0.0
H1127 H -0.00447 0.72544 0.85353 0.0
H1128 H 0.98338 0.73819 0.64948 0.0
H1129 H 0.9494 0.73193 0.6671 0.0
H1130 H 0.02203 0.72022 0.6635 0.0
H1131 H 0.04794 0.71844 0.6999 0.0
C1132 C 0.2973 0.9735 0.81076 0.0
C1133 C 0.3021 0.96289 0.77158 0.0
C1134 C 0.32666 0.0068 0.75505 0.0
C1135 C 0.31807 0.01791 0.79196 0.0
N1136 N 0.31459 0.00576 0.86073 0.0
N1137 N 0.33246 0.96491 0.71435 0.0
C1138 C 0.31064 -0.00117 0.82198 0.0
C1139 C 0.32062 0.97804 0.74619 0.0
N1140 N 0.27805 0.96193 0.83595 0.0
N1141 N 0.33968 0.02401 0.7285 0.0
H1142 H 0.32961 0.94344 0.70886 0.0
H1143 H 0.3473 0.9744 0.6961 0.0
H1144 H 0.34599 0.04436 0.73632 0.0
H1145 H 0.3437 0.01835 0.69926 0.0
H1146 H 0.27313 0.97113 0.86313 0.0
H1147 H 0.26431 0.94576 0.82877 0.0
H1148 H 0.31056 0.99171 0.88379 0.0
H1149 H 0.32507 0.02423 0.8688 0.0
C1150 C 0.98825 0.19257 0.78905 0.0
C1151 C 0.97162 0.21642 0.77896 0.0
C1152 C 0.0133 0.24065 0.7532 0.0
C1153 C 0.02899 0.2156 0.75909 0.0
N1154 N 0.03103 0.16635 0.77736 0.0
N1155 N 0.96731 0.26291 0.75079 0.0
C1156 C 0.0165 0.19131 0.7761 0.0
C1157 C 0.98391 0.24049 0.76098 0.0
N1158 N 0.97701 0.17077 0.81033 0.0
N1159 N 0.02667 0.2646 0.74091 0.0
H1160 H 0.9461 0.26408 0.7583 0.0
H1161 H 0.97413 0.27977 0.73359 0.0
H1162 H 0.04814 0.26513 0.73476 0.0
H1163 H 0.01711 0.28432 0.73947 0.0
H1164 H 0.98911 0.15488 0.82315 0.0
H1165 H 0.95588 0.16931 0.81788 0.0
H1166 H 0.0219 0.14709 0.78453 0.0
H1167 H 0.05175 0.16417 0.76789 0.0
C1168 C 0.82463 0.49855 0.70745 0.0
C1169 C 0.82071 0.51947 0.73691 0.0
C1170 C 0.82779 0.48404 0.78854 0.0
C1171 C 0.82063 0.46338 0.76 0.0
N1172 N 0.83028 0.44835 0.69353 0.0
N1173 N 0.83459 0.53416 0.80201 0.0
C1174 C 0.82511 0.46977 0.71949 0.0
C1175 C 0.82799 0.51282 0.77656 0.0
N1176 N 0.82769 0.50628 0.6688 0.0
N1177 N 0.83434 0.47594 0.82619 0.0
H1178 H 0.83649 0.55493 0.79203 0.0
H1179 H 0.83947 0.5314 0.83177 0.0
H1180 H 0.83746 0.45476 0.83341 0.0
H1181 H 0.83839 0.48981 0.84933 0.0
H1182 H 0.82792 0.4922 0.6452 0.0
H1183 H 0.83148 0.52718 0.66076 0.0
H1184 H 0.83401 0.45112 0.66346 0.0
H1185 H 0.83308 0.42764 0.70337 0.0
C1186 C 0.51931 0.70244 0.74177 0.0
C1187 C 0.53244 0.72771 0.75441 0.0
C1188 C 0.48895 0.75414 0.74254 0.0
C1189 C 0.47654 0.72918 0.72735 0.0
N1190 N 0.48071 0.68038 0.70722 0.0
N1191 N 0.53165 0.778 0.7637 0.0
C1192 C 0.49205 0.70364 0.72514 0.0
C1193 C 0.5178 0.75375 0.75395 0.0
N1194 N 0.53248 0.67704 0.74738 0.0
N1195 N 0.473 0.77795 0.74656 0.0
H1196 H 0.55248 0.77805 0.77335 0.0
H1197 H 0.52317 0.79809 0.76024 0.0
H1198 H 0.45225 0.77916 0.73668 0.0
H1199 H 0.47974 0.79602 0.76121 0.0
H1200 H 0.52268 0.65764 0.74336 0.0
H1201 H 0.55254 0.67506 0.75954 0.0
H1202 H 0.49233 0.66248 0.70005 0.0
H1203 H 0.46015 0.67945 0.6967 0.0
C1204 C 0.18636 0.4893 0.69098 0.0
C1205 C 0.1828 0.46978 0.72186 0.0
C1206 C 0.17706 0.50966 0.7671 0.0
C1207 C 0.19224 0.52683 0.73988 0.0
N1208 N 0.21344 0.52966 0.67347 0.0
N1209 N 0.16534 0.46185 0.78753 0.0
C1210 C 0.19682 0.51627 0.70058 0.0
C1211 C 0.17472 0.48018 0.75943 0.0
N1212 N 0.18112 0.48169 0.65278 0.0
N1213 N 0.1647 0.52157 0.79949 0.0
H1214 H 0.16106 0.44079 0.78074 0.0
H1215 H 0.16221 0.4674 0.81703 0.0
H1216 H 0.1646 0.54333 0.80412 0.0
H1217 H 0.15204 0.5104 0.8191 0.0
H1218 H 0.18224 0.496 0.62935 0.0
H1219 H 0.17218 0.4622 0.64586 0.0
H1220 H 0.2183 0.5206 0.64618 0.0
H1221 H 0.22546 0.54745 0.67888 0.0
C1222 C 0.47968 0.23746 0.71873 0.0
C1223 C 0.47059 0.24288 0.75799 0.0
C1224 C 0.51879 0.23598 0.78083 0.0
C1225 C 0.5279 0.24315 0.74217 0.0
N1226 N 0.51868 0.23643 0.67251 0.0
N1227 N 0.47973 0.23292 0.82682 0.0
C1228 C 0.50887 0.23919 0.71024 0.0
C1229 C 0.48961 0.23735 0.78944 0.0
N1230 N 0.46077 0.22878 0.69089 0.0
N1231 N 0.53781 0.2264 0.80799 0.0
H1232 H 0.45852 0.22897 0.8323 0.0
H1233 H 0.49243 0.23243 0.85192 0.0
H1234 H 0.5586 0.22212 0.8002 0.0
H1235 H 0.53256 0.21963 0.83632 0.0
H1236 H 0.4661 0.2233 0.66204 0.0
H1237 H 0.44017 0.22352 0.69837 0.0
H1238 H 0.50595 0.23752 0.64748 0.0
H1239 H 0.53974 0.23206 0.66658 0.0
C1240 C 0.1586 0.51163 0.20475 0.0
C1241 C 0.16541 0.53098 0.2353 0.0
C1242 C 0.159 0.49396 0.28475 0.0
C1243 C 0.16248 0.47402 0.25388 0.0
N1244 N 0.14692 0.46299 0.18802 0.0
N1245 N 0.15352 0.54357 0.30212 0.0
C1246 C 0.15604 0.48256 0.21468 0.0
C1247 C 0.15942 0.52315 0.27493 0.0
N1248 N 0.15462 0.5211 0.16703 0.0
N1249 N 0.15553 0.48488 0.32274 0.0
H1250 H 0.15132 0.56468 0.29379 0.0
H1251 H 0.14821 0.53956 0.33144 0.0
H1252 H 0.15157 0.46371 0.32916 0.0
H1253 H 0.1558 0.49806 0.34734 0.0
H1254 H 0.15264 0.50798 0.1425 0.0
H1255 H 0.15232 0.54254 0.16079 0.0
H1256 H 0.14109 0.46762 0.15905 0.0
H1257 H 0.14266 0.44228 0.19664 0.0
C1258 C 0.50455 0.30336 0.28415 0.0
C1259 C 0.52174 0.28021 0.27303 0.0
C1260 C 0.48122 0.25713 0.24188 0.0
C1261 C 0.465 0.28171 0.24913 0.0
N1262 N 0.46244 0.33024 0.2707 0.0
N1263 N 0.52758 0.23558 0.24006 0.0
C1264 C 0.47688 0.30526 0.26892 0.0
C1265 C 0.51036 0.25715 0.25161 0.0
N1266 N 0.51474 0.32387 0.30874 0.0
N1267 N 0.46858 0.23367 0.22658 0.0
H1268 H 0.54858 0.23424 0.2488 0.0
H1269 H 0.52152 0.21973 0.22055 0.0
H1270 H 0.44738 0.23321 0.21878 0.0
H1271 H 0.47845 0.21415 0.22414 0.0
H1272 H 0.50207 0.33918 0.32178 0.0
H1273 H 0.53539 0.32447 0.31892 0.0
H1274 H 0.47132 0.34907 0.28042 0.0
H1275 H 0.4424 0.33307 0.25885 0.0
C1276 C 0.83632 0.51118 0.28905 0.0
C1277 C 0.82936 0.52987 0.25775 0.0
C1278 C 0.83618 0.49187 0.20991 0.0
C1279 C 0.83236 0.4726 0.24154 0.0
N1280 N 0.84628 0.46253 0.30835 0.0
N1281 N 0.84105 0.54116 0.19039 0.0
C1282 C 0.8385 0.48186 0.28047 0.0
C1283 C 0.83542 0.52128 0.21845 0.0
N1284 N 0.84062 0.52158 0.32621 0.0
N1285 N 0.84026 0.48194 0.17247 0.0
H1286 H 0.84331 0.56241 0.19787 0.0
H1287 H 0.84603 0.53662 0.16111 0.0
H1288 H 0.8444 0.46064 0.16718 0.0
H1289 H 0.8405 0.49455 0.14727 0.0
H1290 H 0.84358 0.50916 0.35125 0.0
H1291 H 0.84237 0.54323 0.33133 0.0
H1292 H 0.85123 0.46743 0.33753 0.0
H1293 H 0.84967 0.44143 0.3008 0.0
C1294 C 0.47537 0.74416 0.20143 0.0
C1295 C 0.46755 0.74146 0.2418 0.0
C1296 C 0.51676 0.74877 0.26 0.0
C1297 C 0.52459 0.73932 0.22165 0.0
N1298 N 0.51194 0.74022 0.1521 0.0
N1299 N 0.47984 0.75396 0.30886 0.0
C1300 C 0.50412 0.74088 0.19093 0.0
C1301 C 0.48797 0.7479 0.27108 0.0
N1302 N 0.45589 0.75243 0.17404 0.0
N1303 N 0.53651 0.76047 0.2843 0.0
H1304 H 0.45907 0.75886 0.31593 0.0
H1305 H 0.49367 0.75469 0.33275 0.0
H1306 H 0.55688 0.76461 0.27455 0.0
H1307 H 0.53201 0.76933 0.31175 0.0
H1308 H 0.46057 0.75639 0.14447 0.0
H1309 H 0.43595 0.75943 0.18221 0.0
H1310 H 0.49793 0.73619 0.12907 0.0
H1311 H 0.53223 0.74503 0.14283 0.0
C1312 C 0.18454 0.11314 0.2656 0.0
C1313 C 0.2061 0.12749 0.24483 0.0
C1314 C 0.18621 0.17312 0.26472 0.0
C1315 C 0.16541 0.15869 0.28678 0.0
N1316 N 0.14721 0.11545 0.31422 0.0
N1317 N 0.2304 0.17058 0.22911 0.0
C1318 C 0.16539 0.12882 0.28913 0.0
C1319 C 0.20772 0.15738 0.24551 0.0
N1320 N 0.1815 0.0846 0.26123 0.0
N1321 N 0.18523 0.20186 0.26199 0.0
H1322 H 0.24643 0.15961 0.21491 0.0
H1323 H 0.2345 0.19203 0.23198 0.0
H1324 H 0.171 0.21399 0.27806 0.0
H1325 H 0.19756 0.21361 0.24267 0.0
H1326 H 0.16431 0.07335 0.2718 0.0
H1327 H 0.19497 0.07229 0.24409 0.0
H1328 H 0.14835 0.09403 0.32081 0.0
H1329 H 0.13225 0.12612 0.33108 0.0
C1330 C 0.79931 0.16745 0.24596 0.0
C1331 C 0.81914 0.15288 0.22245 0.0
C1332 C 0.79802 0.10755 0.24064 0.0
C1333 C 0.77939 0.12202 0.26654 0.0
N1334 N 0.76386 0.16555 0.29707 0.0
N1335 N 0.83984 0.10942 0.19969 0.0
C1336 C 0.78058 0.15191 0.27029 0.0
C1337 C 0.81903 0.12302 0.22013 0.0
N1338 N 0.7976 0.19619 0.24362 0.0
N1339 N 0.79591 0.07896 0.23605 0.0
H1340 H 0.85516 0.12 0.18341 0.0
H1341 H 0.84318 0.08774 0.20067 0.0
H1342 H 0.78311 0.06628 0.25357 0.0
H1343 H 0.80601 0.06774 0.21374 0.0
H1344 H 0.78159 0.20807 0.25637 0.0
H1345 H 0.81093 0.20807 0.2258 0.0
H1346 H 0.76673 0.18651 0.30528 0.0
H1347 H 0.74742 0.1559 0.31216 0.0
C1348 C 0.82 0.87153 0.29521 0.0
C1349 C 0.82066 0.84167 0.29316 0.0
C1350 C 0.77964 0.84191 0.24918 0.0
C1351 C 0.78084 0.87181 0.24796 0.0
N1352 N 0.80361 0.91534 0.26615 0.0
N1353 N 0.80183 0.79793 0.26887 0.0
C1354 C 0.80124 0.88673 0.27031 0.0
C1355 C 0.80062 0.8267 0.27036 0.0
N1356 N 0.83719 0.88532 0.32126 0.0
N1357 N 0.75784 0.8282 0.23127 0.0
H1358 H 0.81526 0.78624 0.28689 0.0
H1359 H 0.79033 0.78567 0.24912 0.0
H1360 H 0.74228 0.83882 0.21557 0.0
H1361 H 0.75392 0.80672 0.23414 0.0
H1362 H 0.83559 0.90677 0.32747 0.0
H1363 H 0.85172 0.87495 0.33927 0.0
H1364 H 0.82007 0.9271 0.27793 0.0
H1365 H 0.79029 0.9273 0.24824 0.0
C1366 C 0.18483 0.88519 0.25382 0.0
C1367 C 0.20585 0.86929 0.27371 0.0
C1368 C 0.1874 0.82559 0.24476 0.0
C1369 C 0.16697 0.84164 0.22404 0.0
N1370 N 0.1492 0.8867 0.20244 0.0
N1371 N 0.23034 0.82532 0.28355 0.0
C1372 C 0.16668 0.87147 0.22653 0.0
C1373 C 0.208 0.8397 0.268 0.0
N1374 N 0.18132 0.91316 0.26253 0.0
N1375 N 0.18687 0.79684 0.24244 0.0
H1376 H 0.24562 0.83502 0.30085 0.0
H1377 H 0.23495 0.80436 0.27714 0.0
H1378 H 0.17357 0.78615 0.22313 0.0
H1379 H 0.1987 0.78357 0.26051 0.0
H1380 H 0.16444 0.92518 0.25251 0.0
H1381 H 0.194 0.92397 0.28262 0.0
H1382 H 0.15012 0.90854 0.1996 0.0
H1383 H 0.13525 0.87733 0.18258 0.0
C1384 C 0.83587 0.86963 0.74141 0.0
C1385 C 0.83465 0.83989 0.74645 0.0
C1386 C 0.7941 0.84517 0.7906 0.0
C1387 C 0.79637 0.8749 0.78749 0.0
N1388 N 0.82184 0.91583 0.76535 0.0
N1389 N 0.81516 0.7995 0.77967 0.0
C1390 C 0.81787 0.88727 0.76422 0.0
C1391 C 0.81463 0.82776 0.77242 0.0
N1392 N 0.85418 0.88102 0.71466 0.0
N1393 N 0.77141 0.83349 0.80908 0.0
H1394 H 0.82857 0.78604 0.76468 0.0
H1395 H 0.80369 0.78972 0.80201 0.0
H1396 H 0.75592 0.84553 0.82265 0.0
H1397 H 0.76657 0.81209 0.80818 0.0
H1398 H 0.85366 0.90205 0.70586 0.0
H1399 H 0.86907 0.86911 0.6994 0.0
H1400 H 0.83897 0.92597 0.75262 0.0
H1401 H 0.80921 0.92938 0.78193 0.0
C1402 C 0.19516 0.83267 0.74709 0.0
C1403 C 0.18889 0.85871 0.7285 0.0
C1404 C 0.13948 0.8545 0.74788 0.0
C1405 C 0.14634 0.82991 0.76989 0.0
N1406 N 0.18044 0.79577 0.79228 0.0
N1407 N 0.15617 0.8961 0.71345 0.0
C1408 C 0.17416 0.81904 0.77005 0.0
C1409 C 0.16127 0.86996 0.72914 0.0
N1410 N 0.22095 0.8206 0.74156 0.0
N1411 N 0.11211 0.86315 0.745 0.0
H1412 H 0.17136 0.90783 0.69855 0.0
H1413 H 0.13745 0.90712 0.71729 0.0
H1414 H 0.09571 0.85371 0.76051 0.0
H1415 H 0.10524 0.87865 0.72541 0.0
H1416 H 0.22629 0.80041 0.75107 0.0
H1417 H 0.23643 0.82999 0.72429 0.0
H1418 H 0.20078 0.78858 0.79745 0.0
H1419 H 0.16525 0.78426 0.8074 0.0
C1420 C 0.16879 0.12606 0.72613 0.0
C1421 C 0.1697 0.15583 0.72317 0.0
C1422 C 0.21134 0.15715 0.76579 0.0
C1423 C 0.20818 0.12782 0.77282 0.0
N1424 N 0.18257 0.08446 0.76301 0.0
N1425 N 0.19133 0.20022 0.73894 0.0
C1426 C 0.18676 0.11219 0.7535 0.0
C1427 C 0.19095 0.17153 0.74252 0.0
N1428 N 0.15076 0.1111 0.70263 0.0
N1429 N 0.23433 0.17096 0.78028 0.0
H1430 H 0.17823 0.21091 0.71929 0.0
H1431 H 0.20384 0.21344 0.75608 0.0
H1432 H 0.24961 0.16091 0.79724 0.0
H1433 H 0.23947 0.19167 0.77318 0.0
H1434 H 0.15109 0.08921 0.70029 0.0
H1435 H 0.13702 0.12069 0.68263 0.0
H1436 H 0.16534 0.0728 0.75345 0.0
H1437 H 0.1951 0.07349 0.78318 0.0
C1438 C 0.83167 0.1223 0.76615 0.0
C1439 C 0.83103 0.15219 0.76621 0.0
C1440 C 0.79617 0.15211 0.71273 0.0
C1441 C 0.79432 0.12224 0.71584 0.0
N1442 N 0.81054 0.07845 0.74453 0.0
N1443 N 0.81091 0.19584 0.74344 0.0
C1444 C 0.81216 0.10722 0.74234 0.0
C1445 C 0.81303 0.16718 0.74026 0.0
N1446 N 0.8517 0.10837 0.78779 0.0
N1447 N 0.78186 0.16626 0.68372 0.0
H1448 H 0.82282 0.20743 0.7635 0.0
H1449 H 0.79578 0.20787 0.72887 0.0
H1450 H 0.76706 0.15697 0.66522 0.0
H1451 H 0.78559 0.1873 0.67667 0.0
H1452 H 0.85554 0.08682 0.78572 0.0
H1453 H 0.86606 0.11866 0.80612 0.0
H1454 H 0.81972 0.06654 0.76698 0.0
H1455 H 0.79925 0.06629 0.72433 0.0
C1456 C 0.68189 0.61008 0.75343 0.0
C1457 C 0.70129 0.6229 0.72708 0.0
C1458 C 0.68654 0.66994 0.74964 0.0
C1459 C 0.66731 0.65706 0.77589 0.0
N1460 N 0.64873 0.61544 0.8074 0.0
N1461 N 0.72022 0.66498 0.69646 0.0
C1462 C 0.66568 0.62728 0.77926 0.0
C1463 C 0.70298 0.65283 0.72397 0.0
N1464 N 0.6774 0.58159 0.7515 0.0
N1465 N 0.69042 0.69851 0.75141 0.0
H1466 H 0.73552 0.65399 0.68081 0.0
H1467 H 0.71917 0.68614 0.68841 0.0
H1468 H 0.6795 0.71134 0.77117 0.0
H1469 H 0.70603 0.70933 0.7362 0.0
H1470 H 0.66154 0.57113 0.7667 0.0
H1471 H 0.68785 0.56838 0.73171 0.0
H1472 H 0.64917 0.59417 0.81498 0.0
H1473 H 0.63533 0.62714 0.82543 0.0
C1474 C 0.29055 0.66456 0.75314 0.0
C1475 C 0.29815 0.63869 0.77132 0.0
C1476 C 0.34398 0.63974 0.73877 0.0
C1477 C 0.33688 0.66616 0.72176 0.0
N1478 N 0.3057 0.70608 0.71693 0.0
N1479 N 0.3334 0.60403 0.78782 0.0
C1480 C 0.31073 0.67925 0.73 0.0
C1481 C 0.32534 0.62708 0.7662 0.0
N1482 N 0.26396 0.67487 0.75784 0.0
N1483 N 0.368 0.62613 0.72725 0.0
H1484 H 0.32009 0.59374 0.80761 0.0
H1485 H 0.35392 0.59646 0.78877 0.0
H1486 H 0.38213 0.63457 0.70689 0.0
H1487 H 0.37282 0.60545 0.73511 0.0
H1488 H 0.2558 0.69172 0.74173 0.0
H1489 H 0.24958 0.66571 0.77713 0.0
H1490 H 0.28834 0.71805 0.72523 0.0
H1491 H 0.32 0.71722 0.69967 0.0
C1492 C 0.34884 0.36026 0.74091 0.0
C1493 C 0.34234 0.33741 0.76655 0.0
C1494 C 0.2931 0.339 0.74502 0.0
C1495 C 0.2992 0.36295 0.72151 0.0
N1496 N 0.33162 0.39886 0.70026 0.0
N1497 N 0.30794 0.30695 0.7968 0.0
C1498 C 0.32677 0.37421 0.72019 0.0
C1499 C 0.31432 0.32744 0.76985 0.0
N1500 N 0.37613 0.36867 0.73642 0.0
N1501 N 0.2673 0.3266 0.74233 0.0
H1502 H 0.32308 0.29693 0.81397 0.0
H1503 H 0.28753 0.30111 0.8041 0.0
H1504 H 0.25145 0.33459 0.72436 0.0
H1505 H 0.26227 0.30727 0.75507 0.0
H1506 H 0.38277 0.38257 0.71451 0.0
H1507 H 0.39264 0.3607 0.75339 0.0
H1508 H 0.35037 0.41005 0.70182 0.0
H1509 H 0.31612 0.4094 0.68413 0.0
C1510 C 0.6826 0.32956 0.73802 0.0
C1511 C 0.6546 0.33978 0.74032 0.0
C1512 C 0.66974 0.37714 0.78589 0.0
C1513 C 0.69731 0.36578 0.7853 0.0
N1514 N 0.72833 0.32745 0.76916 0.0
N1515 N 0.62047 0.3712 0.76956 0.0
C1516 C 0.70331 0.34098 0.76361 0.0
C1517 C 0.64782 0.36283 0.76546 0.0
N1518 N 0.68956 0.30901 0.71139 0.0
N1519 N 0.66478 0.40219 0.80473 0.0
H1520 H 0.60404 0.36277 0.75292 0.0
H1521 H 0.61372 0.38545 0.79098 0.0
H1522 H 0.68015 0.41287 0.82086 0.0
H1523 H 0.64603 0.41339 0.80241 0.0
H1524 H 0.71023 0.30347 0.70491 0.0
H1525 H 0.67486 0.29834 0.69413 0.0
H1526 H 0.73304 0.30773 0.75731 0.0
H1527 H 0.74313 0.33458 0.78946 0.0
C1528 C 0.32254 0.36919 0.20642 0.0
C1529 C 0.32267 0.33931 0.20853 0.0
C1530 C 0.27925 0.34019 0.24725 0.0
C1531 C 0.28122 0.36997 0.24956 0.0
N1532 N 0.3057 0.41315 0.23435 0.0
N1533 N 0.30216 0.29592 0.23146 0.0
C1534 C 0.30293 0.38463 0.22956 0.0
C1535 C 0.30125 0.32466 0.22904 0.0
N1536 N 0.34114 0.38278 0.18222 0.0
N1537 N 0.25581 0.32695 0.26114 0.0
H1538 H 0.31693 0.28394 0.2162 0.0
H1539 H 0.28925 0.28407 0.24991 0.0
H1540 H 0.23908 0.33804 0.27339 0.0
H1541 H 0.2517 0.30558 0.25726 0.0
H1542 H 0.34011 0.40425 0.17596 0.0
H1543 H 0.35638 0.37223 0.16571 0.0
H1544 H 0.323 0.42457 0.22453 0.0
H1545 H 0.29166 0.42532 0.25077 0.0
C1546 C 0.65367 0.36342 0.23982 0.0
C1547 C 0.65644 0.35681 0.28083 0.0
C1548 C 0.69807 0.38739 0.28435 0.0
C1549 C 0.69917 0.38776 0.24223 0.0
N1550 N 0.66958 0.39191 0.18465 0.0
N1551 N 0.67056 0.37739 0.343 0.0
C1552 C 0.67456 0.38015 0.221 0.0
C1553 C 0.67574 0.37292 0.30367 0.0
N1554 N 0.63024 0.3557 0.21933 0.0
N1555 N 0.71681 0.40263 0.30601 0.0
H1556 H 0.65159 0.37186 0.35626 0.0
H1557 H 0.68285 0.39 0.3613 0.0
H1558 H 0.72614 0.42082 0.29491 0.0
H1559 H 0.72128 0.39854 0.33566 0.0
H1560 H 0.62964 0.35396 0.18859 0.0
H1561 H 0.61082 0.35323 0.23301 0.0
H1562 H 0.65137 0.38875 0.16818 0.0
H1563 H 0.68195 0.40809 0.1732 0.0
C1564 C 0.67668 0.61155 0.25484 0.0
C1565 C 0.70229 0.62572 0.26292 0.0
C1566 C 0.68598 0.66698 0.22543 0.0
C1567 C 0.6598 0.65341 0.21913 0.0
N1568 N 0.62856 0.61438 0.23127 0.0
N1569 N 0.73044 0.66778 0.26058 0.0
C1570 C 0.65464 0.62616 0.23496 0.0
C1571 C 0.70671 0.65369 0.24943 0.0
N1572 N 0.67379 0.5838 0.26523 0.0
N1573 N 0.691 0.69256 0.20823 0.0
H1574 H 0.74617 0.65833 0.27736 0.0
H1575 H 0.73383 0.68916 0.25566 0.0
H1576 H 0.67566 0.70356 0.1926 0.0
H1577 H 0.71059 0.70226 0.20755 0.0
H1578 H 0.65706 0.5712 0.25632 0.0
H1579 H 0.68918 0.57261 0.28069 0.0
H1580 H 0.62233 0.59617 0.24605 0.0
H1581 H 0.6123 0.62373 0.21522 0.0
C1582 C 0.28615 0.65392 0.24507 0.0
C1583 C 0.291 0.6282 0.22482 0.0
C1584 C 0.3408 0.62967 0.24364 0.0
C1585 C 0.33552 0.65451 0.26598 0.0
N1586 N 0.30285 0.68861 0.29213 0.0
N1587 N 0.32156 0.58934 0.20864 0.0
C1588 C 0.30804 0.66604 0.26809 0.0
C1589 C 0.31799 0.61548 0.22507 0.0
N1590 N 0.26095 0.66738 0.24085 0.0
N1591 N 0.36765 0.61968 0.2401 0.0
H1592 H 0.30549 0.57851 0.19417 0.0
H1593 H 0.33978 0.57737 0.21166 0.0
H1594 H 0.38464 0.62811 0.25557 0.0
H1595 H 0.3735 0.60395 0.22026 0.0
H1596 H 0.25688 0.68769 0.25105 0.0
H1597 H 0.24468 0.65903 0.22406 0.0
H1598 H 0.2828 0.696 0.29875 0.0
H1599 H 0.31863 0.69894 0.30767 0.0
loop_
_geom_bond_atom_site_label_1
_geom_bond_atom_site_label_2
_geom_bond_distance
_geom_bond_site_symmetry_2
_ccdc_geom_bond_type
Mg0 O1 2.028 . S
Mg0 O7 1.986 . S
Mg0 O9 2.114 . S
Mg0 O10 2.251 . S
Mg0 O13 2.010 . S
O1 Mg0 2.028 . S
O1 C4 1.250 . S
O2 Mg3 2.028 . S
O2 C4 1.248 . S
Mg3 O2 2.028 . S
Mg3 O8 2.032 . S
Mg3 O10 2.079 . S
C4 O1 1.250 . S
C4 O2 1.248 . S
C5 O6 1.264 . S
C5 O13 1.249 . S
O6 C5 1.264 . S
O7 Mg0 1.986 . S
O7 C11 1.246 . S
O8 Mg3 2.032 . S
O8 C11 1.259 . S
O9 Mg0 2.114 . S
O9 C12 1.252 . S
O10 Mg0 2.251 . S
O10 Mg3 2.079 . S
O10 C12 1.273 . S
C11 O7 1.246 . S
C11 O8 1.259 . S
C12 O9 1.252 . S
C12 O10 1.273 . S
O13 Mg0 2.010 . S
O13 C5 1.249 . S
Mg14 O15 2.028 . S
Mg14 O21 1.986 . S
Mg14 O23 2.114 . S
Mg14 O24 2.251 . S
Mg14 O27 2.010 . S
O15 Mg14 2.028 . S
O15 C18 1.250 . S
O16 Mg17 2.028 . S
O16 C18 1.248 . S
Mg17 O16 2.028 . S
Mg17 O22 2.032 . S
Mg17 O24 2.079 . S
C18 O15 1.250 . S
C18 O16 1.248 . S
C19 O20 1.264 . S
C19 O27 1.249 . S
O20 C19 1.264 . S
O21 Mg14 1.986 . S
O21 C25 1.246 . S
O22 Mg17 2.032 . S
O22 C25 1.259 . S
O23 Mg14 2.114 . S
O23 C26 1.252 . S
O24 Mg14 2.251 . S
O24 Mg17 2.079 . S
O24 C26 1.273 . S
C25 O21 1.246 . S
C25 O22 1.259 . S
C26 O23 1.252 . S
C26 O24 1.273 . S
O27 Mg14 2.010 . S
O27 C19 1.249 . S
Mg28 O29 2.028 . S
Mg28 O35 1.986 . S
Mg28 O37 2.114 . S
Mg28 O38 2.251 . S
Mg28 O41 2.010 . S
O29 Mg28 2.028 . S
O29 C32 1.250 . S
O30 Mg31 2.028 . S
O30 C32 1.248 . S
Mg31 O30 2.028 . S
Mg31 O36 2.032 . S
Mg31 O38 2.079 . S
C32 O29 1.250 . S
C32 O30 1.248 . S
C33 O34 1.264 . S
C33 O41 1.249 . S
O34 C33 1.264 . S
O35 Mg28 1.986 . S
O35 C39 1.246 . S
O36 Mg31 2.032 . S
O36 C39 1.259 . S
O37 Mg28 2.114 . S
O37 C40 1.252 . S
O38 Mg28 2.251 . S
O38 Mg31 2.079 . S
O38 C40 1.273 . S
C39 O35 1.246 . S
C39 O36 1.259 . S
C40 O37 1.252 . S
C40 O38 1.273 . S
O41 Mg28 2.010 . S
O41 C33 1.249 . S
Mg42 O43 2.028 . S
Mg42 O49 1.986 . S
Mg42 O51 2.114 . S
Mg42 O52 2.251 . S
Mg42 O55 2.010 . S
O43 Mg42 2.028 . S
O43 C46 1.250 . S
O44 Mg45 2.028 . S
O44 C46 1.248 . S
Mg45 O44 2.028 . S
Mg45 O50 2.032 . S
Mg45 O52 2.079 . S
C46 O43 1.250 . S
C46 O44 1.248 . S
C47 O48 1.264 . S
C47 O55 1.249 . S
O48 C47 1.264 . S
O49 Mg42 1.986 . S
O49 C53 1.246 . S
O50 Mg45 2.032 . S
O50 C53 1.259 . S
O51 Mg42 2.114 . S
O51 C54 1.252 . S
O52 Mg42 2.251 . S
O52 Mg45 2.079 . S
O52 C54 1.273 . S
C53 O49 1.246 . S
C53 O50 1.259 . S
C54 O51 1.252 . S
C54 O52 1.273 . S
O55 Mg42 2.010 . S
O55 C47 1.249 . S
Mg56 O57 2.028 . S
Mg56 O63 1.986 . S
Mg56 O65 2.114 . S
Mg56 O66 2.251 . S
Mg56 O69 2.010 . S
O57 Mg56 2.028 . S
O57 C60 1.250 . S
O58 Mg59 2.028 . S
O58 C60 1.248 . S
Mg59 O58 2.028 . S
Mg59 O64 2.032 . S
Mg59 O66 2.079 . S
C60 O57 1.250 . S
C60 O58 1.248 . S
C61 O62 1.264 . S
C61 O69 1.249 . S
O62 C61 1.264 . S
O63 Mg56 1.986 . S
O63 C67 1.246 . S
O64 Mg59 2.032 . S
O64 C67 1.259 . S
O65 Mg56 2.114 . S
O65 C68 1.252 . S
O66 Mg56 2.251 . S
O66 Mg59 2.079 . S
O66 C68 1.273 . S
C67 O63 1.246 . S
C67 O64 1.259 . S
C68 O65 1.252 . S
C68 O66 1.273 . S
O69 Mg56 2.010 . S
O69 C61 1.249 . S
Mg70 O71 2.028 . S
Mg70 O77 1.986 . S
Mg70 O79 2.114 . S
Mg70 O80 2.251 . S
Mg70 O83 2.010 . S
O71 Mg70 2.028 . S
O71 C74 1.250 . S
O72 Mg73 2.028 . S
O72 C74 1.248 . S
Mg73 O72 2.028 . S
Mg73 O78 2.032 . S
Mg73 O80 2.079 . S
C74 O71 1.250 . S
C74 O72 1.248 . S
C75 O76 1.264 . S
C75 O83 1.249 . S
O76 C75 1.264 . S
O77 Mg70 1.986 . S
O77 C81 1.246 . S
O78 Mg73 2.032 . S
O78 C81 1.259 . S
O79 Mg70 2.114 . S
O79 C82 1.252 . S
O80 Mg70 2.251 . S
O80 Mg73 2.079 . S
O80 C82 1.273 . S
C81 O77 1.246 . S
C81 O78 1.259 . S
C82 O79 1.252 . S
C82 O80 1.273 . S
O83 Mg70 2.010 . S
O83 C75 1.249 . S
Mg84 O85 2.028 . S
Mg84 O91 1.986 . S
Mg84 O93 2.114 . S
Mg84 O94 2.251 . S
Mg84 O97 2.010 . S
O85 Mg84 2.028 . S
O85 C88 1.250 . S
O86 Mg87 2.028 . S
O86 C88 1.248 . S
Mg87 O86 2.028 . S
Mg87 O92 2.032 . S
Mg87 O94 2.079 . S
C88 O85 1.250 . S
C88 O86 1.248 . S
C89 O90 1.264 . S
C89 O97 1.249 . S
O90 C89 1.264 . S
O91 Mg84 1.986 . S
O91 C95 1.246 . S
O92 Mg87 2.032 . S
O92 C95 1.259 . S
O93 Mg84 2.114 . S
O93 C96 1.252 . S
O94 Mg84 2.251 . S
O94 Mg87 2.079 . S
O94 C96 1.273 . S
C95 O91 1.246 . S
C95 O92 1.259 . S
C96 O93 1.252 . S
C96 O94 1.273 . S
O97 Mg84 2.010 . S
O97 C89 1.249 . S
Mg98 O99 2.028 . S
Mg98 O105 1.986 . S
Mg98 O107 2.114 . S
Mg98 O108 2.251 . S
Mg98 O111 2.010 . S
O99 Mg98 2.028 . S
O99 C102 1.250 . S
O100 Mg101 2.028 . S
O100 C102 1.248 . S
Mg101 O100 2.028 . S
Mg101 O106 2.032 . S
Mg101 O108 2.079 . S
C102 O99 1.250 . S
C102 O100 1.248 . S
C103 O104 1.264 . S
C103 O111 1.249 . S
O104 C103 1.264 . S
O105 Mg98 1.986 . S
O105 C109 1.246 . S
O106 Mg101 2.032 . S
O106 C109 1.259 . S
O107 Mg98 2.114 . S
O107 C110 1.252 . S
O108 Mg98 2.251 . S
O108 Mg101 2.079 . S
O108 C110 1.273 . S
C109 O105 1.246 . S
C109 O106 1.259 . S
C110 O107 1.252 . S
C110 O108 1.273 . S
O111 Mg98 2.010 . S
O111 C103 1.249 . S
Mg112 O113 2.028 . S
Mg112 O119 1.986 . S
Mg112 O121 2.114 . S
Mg112 O122 2.251 . S
Mg112 O125 2.010 . S
O113 Mg112 2.028 . S
O113 C116 1.250 . S
O114 Mg115 2.028 . S
O114 C116 1.248 . S
Mg115 O114 2.028 . S
Mg115 O120 2.032 . S
Mg115 O122 2.079 . S
C116 O113 1.250 . S
C116 O114 1.248 . S
C117 O118 1.264 . S
C117 O125 1.249 . S
O118 C117 1.264 . S
O119 Mg112 1.986 . S
O119 C123 1.246 . S
O120 Mg115 2.032 . S
O120 C123 1.259 . S
O121 Mg112 2.114 . S
O121 C124 1.252 . S
O122 Mg112 2.251 . S
O122 Mg115 2.079 . S
O122 C124 1.273 . S
C123 O119 1.246 . S
C123 O120 1.259 . S
C124 O121 1.252 . S
C124 O122 1.273 . S
O125 Mg112 2.010 . S
O125 C117 1.249 . S
Mg126 O127 2.028 . S
Mg126 O133 1.986 . S
Mg126 O135 2.114 . S
Mg126 O136 2.251 . S
Mg126 O139 2.010 . S
O127 Mg126 2.028 . S
O127 C130 1.250 . S
O128 Mg129 2.028 . S
O128 C130 1.248 . S
Mg129 O128 2.028 . S
Mg129 O134 2.032 . S
Mg129 O136 2.079 . S
C130 O127 1.250 . S
C130 O128 1.248 . S
C131 O132 1.264 . S
C131 O139 1.249 . S
O132 C131 1.264 . S
O133 Mg126 1.986 . S
O133 C137 1.246 . S
O134 Mg129 2.032 . S
O134 C137 1.259 . S
O135 Mg126 2.114 . S
O135 C138 1.252 . S
O136 Mg126 2.251 . S
O136 Mg129 2.079 . S
O136 C138 1.273 . S
C137 O133 1.246 . S
C137 O134 1.259 . S
C138 O135 1.252 . S
C138 O136 1.273 . S
O139 Mg126 2.010 . S
O139 C131 1.249 . S
Mg140 O141 2.028 . S
Mg140 O147 1.986 . S
Mg140 O149 2.114 . S
Mg140 O150 2.251 . S
Mg140 O153 2.010 . S
O141 Mg140 2.028 . S
O141 C144 1.250 . S
O142 Mg143 2.028 . S
O142 C144 1.248 . S
Mg143 O142 2.028 . S
Mg143 O148 2.032 . S
Mg143 O150 2.079 . S
C144 O141 1.250 . S
C144 O142 1.248 . S
C145 O146 1.264 . S
C145 O153 1.249 . S
O146 C145 1.264 . S
O147 Mg140 1.986 . S
O147 C151 1.246 . S
O148 Mg143 2.032 . S
O148 C151 1.259 . S
O149 Mg140 2.114 . S
O149 C152 1.252 . S
O150 Mg140 2.251 . S
O150 Mg143 2.079 . S
O150 C152 1.273 . S
C151 O147 1.246 . S
C151 O148 1.259 . S
C152 O149 1.252 . S
C152 O150 1.273 . S
O153 Mg140 2.010 . S
O153 C145 1.249 . S
Mg154 O155 2.028 . S
Mg154 O161 1.986 . S
Mg154 O163 2.114 . S
Mg154 O164 2.251 . S
Mg154 O167 2.010 . S
O155 Mg154 2.028 . S
O155 C158 1.250 . S
O156 Mg157 2.028 . S
O156 C158 1.248 . S
Mg157 O156 2.028 . S
Mg157 O162 2.032 . S
Mg157 O164 2.079 . S
C158 O155 1.250 . S
C158 O156 1.248 . S
C159 O160 1.264 . S
C159 O167 1.249 . S
O160 C159 1.264 . S
O161 Mg154 1.986 . S
O161 C165 1.246 . S
O162 Mg157 2.032 . S
O162 C165 1.259 . S
O163 Mg154 2.114 . S
O163 C166 1.252 . S
O164 Mg154 2.251 . S
O164 Mg157 2.079 . S
O164 C166 1.273 . S
C165 O161 1.246 . S
C165 O162 1.259 . S
C166 O163 1.252 . S
C166 O164 1.273 . S
O167 Mg154 2.010 . S
O167 C159 1.249 . S
Mg168 O169 2.028 . S
Mg168 O175 1.986 . S
Mg168 O177 2.114 . S
Mg168 O178 2.251 . S
Mg168 O181 2.010 . S
O169 Mg168 2.028 . S
O169 C172 1.250 . S
O170 Mg171 2.028 . S
O170 C172 1.248 . S
Mg171 O170 2.028 . S
Mg171 O176 2.032 . S
Mg171 O178 2.079 . S
C172 O169 1.250 . S
C172 O170 1.248 . S
C173 O174 1.264 . S
C173 O181 1.249 . S
O174 C173 1.264 . S
O175 Mg168 1.986 . S
O175 C179 1.246 . S
O176 Mg171 2.032 . S
O176 C179 1.259 . S
O177 Mg168 2.114 . S
O177 C180 1.252 . S
O178 Mg168 2.251 . S
O178 Mg171 2.079 . S
O178 C180 1.273 . S
C179 O175 1.246 . S
C179 O176 1.259 . S
C180 O177 1.252 . S
C180 O178 1.273 . S
O181 Mg168 2.010 . S
O181 C173 1.249 . S
Mg182 O183 2.028 . S
Mg182 O189 1.986 . S
Mg182 O191 2.114 . S
Mg182 O192 2.251 . S
Mg182 O195 2.010 . S
O183 Mg182 2.028 . S
O183 C186 1.250 . S
O184 Mg185 2.028 . S
O184 C186 1.248 . S
Mg185 O184 2.028 . S
Mg185 O190 2.032 . S
Mg185 O192 2.079 . S
C186 O183 1.250 . S
C186 O184 1.248 . S
C187 O188 1.264 . S
C187 O195 1.249 . S
O188 C187 1.264 . S
O189 Mg182 1.986 . S
O189 C193 1.246 . S
O190 Mg185 2.032 . S
O190 C193 1.259 . S
O191 Mg182 2.114 . S
O191 C194 1.252 . S
O192 Mg182 2.251 . S
O192 Mg185 2.079 . S
O192 C194 1.273 . S
C193 O189 1.246 . S
C193 O190 1.259 . S
C194 O191 1.252 . S
C194 O192 1.273 . S
O195 Mg182 2.010 . S
O195 C187 1.249 . S
Mg196 O197 2.028 . S
Mg196 O203 1.986 . S
Mg196 O205 2.114 . S
Mg196 O206 2.251 . S
Mg196 O209 2.010 . S
O197 Mg196 2.028 . S
O197 C200 1.250 . S
O198 Mg199 2.028 . S
O198 C200 1.248 . S
Mg199 O198 2.028 . S
Mg199 O204 2.032 . S
Mg199 O206 2.079 . S
C200 O197 1.250 . S
C200 O198 1.248 . S
C201 O202 1.264 . S
C201 O209 1.249 . S
O202 C201 1.264 . S
O203 Mg196 1.986 . S
O203 C207 1.246 . S
O204 Mg199 2.032 . S
O204 C207 1.259 . S
O205 Mg196 2.114 . S
O205 C208 1.252 . S
O206 Mg196 2.251 . S
O206 Mg199 2.079 . S
O206 C208 1.273 . S
C207 O203 1.246 . S
C207 O204 1.259 . S
C208 O205 1.252 . S
C208 O206 1.273 . S
O209 Mg196 2.010 . S
O209 C201 1.249 . S
Mg210 O211 2.028 . S
Mg210 O217 1.986 . S
Mg210 O219 2.114 . S
Mg210 O220 2.251 . S
Mg210 O223 2.010 . S
O211 Mg210 2.028 . S
O211 C214 1.250 . S
O212 Mg213 2.028 . S
O212 C214 1.248 . S
Mg213 O212 2.028 . S
Mg213 O218 2.032 . S
Mg213 O220 2.079 . S
C214 O211 1.250 . S
C214 O212 1.248 . S
C215 O216 1.264 . S
C215 O223 1.249 . S
O216 C215 1.264 . S
O217 Mg210 1.986 . S
O217 C221 1.246 . S
O218 Mg213 2.032 . S
O218 C221 1.259 . S
O219 Mg210 2.114 . S
O219 C222 1.252 . S
O220 Mg210 2.251 . S
O220 Mg213 2.079 . S
O220 C222 1.273 . S
C221 O217 1.246 . S
C221 O218 1.259 . S
C222 O219 1.252 . S
C222 O220 1.273 . S
O223 Mg210 2.010 . S
O223 C215 1.249 . S
Mg224 O225 2.028 . S
Mg224 O231 1.986 . S
Mg224 O233 2.114 . S
Mg224 O234 2.251 . S
Mg224 O237 2.010 . S
O225 Mg224 2.028 . S
O225 C228 1.250 . S
O226 Mg227 2.028 . S
O226 C228 1.248 . S
Mg227 O226 2.028 . S
Mg227 O232 2.032 . S
Mg227 O234 2.079 . S
C228 O225 1.250 . S
C228 O226 1.248 . S
C229 O230 1.264 . S
C229 O237 1.249 . S
O230 C229 1.264 . S
O231 Mg224 1.986 . S
O231 C235 1.246 . S
O232 Mg227 2.032 . S
O232 C235 1.259 . S
O233 Mg224 2.114 . S
O233 C236 1.252 . S
O234 Mg224 2.251 . S
O234 Mg227 2.079 . S
O234 C236 1.273 . S
C235 O231 1.246 . S
C235 O232 1.259 . S
C236 O233 1.252 . S
C236 O234 1.273 . S
O237 Mg224 2.010 . S
O237 C229 1.249 . S
Mg238 O239 2.028 . S
Mg238 O245 1.986 . S
Mg238 O247 2.114 . S
Mg238 O248 2.251 . S
Mg238 O251 2.010 . S
O239 Mg238 2.028 . S
O239 C242 1.250 . S
O240 Mg241 2.028 . S
O240 C242 1.248 . S
Mg241 O240 2.028 . S
Mg241 O246 2.032 . S
Mg241 O248 2.079 . S
C242 O239 1.250 . S
C242 O240 1.248 . S
C243 O244 1.264 . S
C243 O251 1.249 . S
O244 C243 1.264 . S
O245 Mg238 1.986 . S
O245 C249 1.246 . S
O246 Mg241 2.032 . S
O246 C249 1.259 . S
O247 Mg238 2.114 . S
O247 C250 1.252 . S
O248 Mg238 2.251 . S
O248 Mg241 2.079 . S
O248 C250 1.273 . S
C249 O245 1.246 . S
C249 O246 1.259 . S
C250 O247 1.252 . S
C250 O248 1.273 . S
O251 Mg238 2.010 . S
O251 C243 1.249 . S
Mg252 O253 2.028 . S
Mg252 O259 1.986 . S
Mg252 O261 2.114 . S
Mg252 O262 2.251 . S
Mg252 O265 2.010 . S
O253 Mg252 2.028 . S
O253 C256 1.250 . S
O254 Mg255 2.028 . S
O254 C256 1.248 . S
Mg255 O254 2.028 . S
Mg255 O260 2.032 . S
Mg255 O262 2.079 . S
C256 O253 1.250 . S
C256 O254 1.248 . S
C257 O258 1.264 . S
C257 O265 1.249 . S
O258 C257 1.264 . S
O259 Mg252 1.986 . S
O259 C263 1.246 . S
O260 Mg255 2.032 . S
O260 C263 1.259 . S
O261 Mg252 2.114 . S
O261 C264 1.252 . S
O262 Mg252 2.251 . S
O262 Mg255 2.079 . S
O262 C264 1.273 . S
C263 O259 1.246 . S
C263 O260 1.259 . S
C264 O261 1.252 . S
C264 O262 1.273 . S
O265 Mg252 2.010 . S
O265 C257 1.249 . S
Mg266 O267 2.028 . S
Mg266 O273 1.986 . S
Mg266 O275 2.114 . S
Mg266 O276 2.251 . S
Mg266 O279 2.010 . S
O267 Mg266 2.028 . S
O267 C270 1.250 . S
O268 Mg269 2.028 . S
O268 C270 1.248 . S
Mg269 O268 2.028 . S
Mg269 O274 2.032 . S
Mg269 O276 2.079 . S
C270 O267 1.250 . S
C270 O268 1.248 . S
C271 O272 1.264 . S
C271 O279 1.249 . S
O272 C271 1.264 . S
O273 Mg266 1.986 . S
O273 C277 1.246 . S
O274 Mg269 2.032 . S
O274 C277 1.259 . S
O275 Mg266 2.114 . S
O275 C278 1.252 . S
O276 Mg266 2.251 . S
O276 Mg269 2.079 . S
O276 C278 1.273 . S
C277 O273 1.246 . S
C277 O274 1.259 . S
C278 O275 1.252 . S
C278 O276 1.273 . S
O279 Mg266 2.010 . S
O279 C271 1.249 . S
Mg280 O281 2.028 . S
Mg280 O287 1.986 . S
Mg280 O289 2.114 . S
Mg280 O290 2.251 . S
Mg280 O293 2.010 . S
O281 Mg280 2.028 . S
O281 C284 1.250 . S
O282 Mg283 2.028 . S
O282 C284 1.248 . S
Mg283 O282 2.028 . S
Mg283 O288 2.032 . S
Mg283 O290 2.079 . S
C284 O281 1.250 . S
C284 O282 1.248 . S
C285 O286 1.264 . S
C285 O293 1.249 . S
O286 C285 1.264 . S
O287 Mg280 1.986 . S
O287 C291 1.246 . S
O288 Mg283 2.032 . S
O288 C291 1.259 . S
O289 Mg280 2.114 . S
O289 C292 1.252 . S
O290 Mg280 2.251 . S
O290 Mg283 2.079 . S
O290 C292 1.273 . S
C291 O287 1.246 . S
C291 O288 1.259 . S
C292 O289 1.252 . S
C292 O290 1.273 . S
O293 Mg280 2.010 . S
O293 C285 1.249 . S
Mg294 O295 2.028 . S
Mg294 O301 1.986 . S
Mg294 O303 2.114 . S
Mg294 O304 2.251 . S
Mg294 O307 2.010 . S
O295 Mg294 2.028 . S
O295 C298 1.250 . S
O296 Mg297 2.028 . S
O296 C298 1.248 . S
Mg297 O296 2.028 . S
Mg297 O302 2.032 . S
Mg297 O304 2.079 . S
C298 O295 1.250 . S
C298 O296 1.248 . S
C299 O300 1.264 . S
C299 O307 1.249 . S
O300 C299 1.264 . S
O301 Mg294 1.986 . S
O301 C305 1.246 . S
O302 Mg297 2.032 . S
O302 C305 1.259 . S
O303 Mg294 2.114 . S
O303 C306 1.252 . S
O304 Mg294 2.251 . S
O304 Mg297 2.079 . S
O304 C306 1.273 . S
C305 O301 1.246 . S
C305 O302 1.259 . S
C306 O303 1.252 . S
C306 O304 1.273 . S
O307 Mg294 2.010 . S
O307 C299 1.249 . S
Mg308 O309 2.028 . S
Mg308 O315 1.986 . S
Mg308 O317 2.114 . S
Mg308 O318 2.251 . S
Mg308 O321 2.010 . S
O309 Mg308 2.028 . S
O309 C312 1.250 . S
O310 Mg311 2.028 . S
O310 C312 1.248 . S
Mg311 O310 2.028 . S
Mg311 O316 2.032 . S
Mg311 O318 2.079 . S
C312 O309 1.250 . S
C312 O310 1.248 . S
C313 O314 1.264 . S
C313 O321 1.249 . S
O314 C313 1.264 . S
O315 Mg308 1.986 . S
O315 C319 1.246 . S
O316 Mg311 2.032 . S
O316 C319 1.259 . S
O317 Mg308 2.114 . S
O317 C320 1.252 . S
O318 Mg308 2.251 . S
O318 Mg311 2.079 . S
O318 C320 1.273 . S
C319 O315 1.246 . S
C319 O316 1.259 . S
C320 O317 1.252 . S
C320 O318 1.273 . S
O321 Mg308 2.010 . S
O321 C313 1.249 . S
Mg322 O323 2.028 . S
Mg322 O329 1.986 . S
Mg322 O331 2.114 . S
Mg322 O332 2.251 . S
Mg322 O335 2.010 . S
O323 Mg322 2.028 . S
O323 C326 1.250 . S
O324 Mg325 2.028 . S
O324 C326 1.248 . S
Mg325 O324 2.028 . S
Mg325 O330 2.032 . S
Mg325 O332 2.079 . S
C326 O323 1.250 . S
C326 O324 1.248 . S
C327 O328 1.264 . S
C327 O335 1.249 . S
O328 C327 1.264 . S
O329 Mg322 1.986 . S
O329 C333 1.246 . S
O330 Mg325 2.032 . S
O330 C333 1.259 . S
O331 Mg322 2.114 . S
O331 C334 1.252 . S
O332 Mg322 2.251 . S
O332 Mg325 2.079 . S
O332 C334 1.273 . S
C333 O329 1.246 . S
C333 O330 1.259 . S
C334 O331 1.252 . S
C334 O332 1.273 . S
O335 Mg322 2.010 . S
O335 C327 1.249 . S
Mg336 O337 2.028 . S
Mg336 O343 1.986 . S
Mg336 O345 2.114 . S
Mg336 O346 2.251 . S
Mg336 O349 2.010 . S
O337 Mg336 2.028 . S
O337 C340 1.250 . S
O338 Mg339 2.028 . S
O338 C340 1.248 . S
Mg339 O338 2.028 . S
Mg339 O344 2.032 . S
Mg339 O346 2.079 . S
C340 O337 1.250 . S
C340 O338 1.248 . S
C341 O342 1.264 . S
C341 O349 1.249 . S
O342 C341 1.264 . S
O343 Mg336 1.986 . S
O343 C347 1.246 . S
O344 Mg339 2.032 . S
O344 C347 1.259 . S
O345 Mg336 2.114 . S
O345 C348 1.252 . S
O346 Mg336 2.251 . S
O346 Mg339 2.079 . S
O346 C348 1.273 . S
C347 O343 1.246 . S
C347 O344 1.259 . S
C348 O345 1.252 . S
C348 O346 1.273 . S
O349 Mg336 2.010 . S
O349 C341 1.249 . S
Mg350 O351 2.028 . S
Mg350 O357 1.986 . S
Mg350 O359 2.114 . S
Mg350 O360 2.251 . S
Mg350 O363 2.010 . S
O351 Mg350 2.028 . S
O351 C354 1.250 . S
O352 Mg353 2.028 . S
O352 C354 1.248 . S
Mg353 O352 2.028 . S
Mg353 O358 2.032 . S
Mg353 O360 2.079 . S
C354 O351 1.250 . S
C354 O352 1.248 . S
C355 O356 1.264 . S
C355 O363 1.249 . S
O356 C355 1.264 . S
O357 Mg350 1.986 . S
O357 C361 1.246 . S
O358 Mg353 2.032 . S
O358 C361 1.259 . S
O359 Mg350 2.114 . S
O359 C362 1.252 . S
O360 Mg350 2.251 . S
O360 Mg353 2.079 . S
O360 C362 1.273 . S
C361 O357 1.246 . S
C361 O358 1.259 . S
C362 O359 1.252 . S
C362 O360 1.273 . S
O363 Mg350 2.010 . S
O363 C355 1.249 . S
Mg364 O365 2.028 . S
Mg364 O371 1.986 . S
Mg364 O373 2.114 . S
Mg364 O374 2.251 . S
Mg364 O377 2.010 . S
O365 Mg364 2.028 . S
O365 C368 1.250 . S
O366 Mg367 2.028 . S
O366 C368 1.248 . S
Mg367 O366 2.028 . S
Mg367 O372 2.032 . S
Mg367 O374 2.079 . S
C368 O365 1.250 . S
C368 O366 1.248 . S
C369 O370 1.264 . S
C369 O377 1.249 . S
O370 C369 1.264 . S
O371 Mg364 1.986 . S
O371 C375 1.246 . S
O372 Mg367 2.032 . S
O372 C375 1.259 . S
O373 Mg364 2.114 . S
O373 C376 1.252 . S
O374 Mg364 2.251 . S
O374 Mg367 2.079 . S
O374 C376 1.273 . S
C375 O371 1.246 . S
C375 O372 1.259 . S
C376 O373 1.252 . S
C376 O374 1.273 . S
O377 Mg364 2.010 . S
O377 C369 1.249 . S
Mg378 O379 2.028 . S
Mg378 O385 1.986 . S
Mg378 O387 2.114 . S
Mg378 O388 2.251 . S
Mg378 O391 2.010 . S
O379 Mg378 2.028 . S
O379 C382 1.250 . S
O380 Mg381 2.028 . S
O380 C382 1.248 . S
Mg381 O380 2.028 . S
Mg381 O386 2.032 . S
Mg381 O388 2.079 . S
C382 O379 1.250 . S
C382 O380 1.248 . S
C383 O384 1.264 . S
C383 O391 1.249 . S
O384 C383 1.264 . S
O385 Mg378 1.986 . S
O385 C389 1.246 . S
O386 Mg381 2.032 . S
O386 C389 1.259 . S
O387 Mg378 2.114 . S
O387 C390 1.252 . S
O388 Mg378 2.251 . S
O388 Mg381 2.079 . S
O388 C390 1.273 . S
C389 O385 1.246 . S
C389 O386 1.259 . S
C390 O387 1.252 . S
C390 O388 1.273 . S
O391 Mg378 2.010 . S
O391 C383 1.249 . S
Mg392 O393 2.028 . S
Mg392 O399 1.986 . S
Mg392 O401 2.114 . S
Mg392 O402 2.251 . S
Mg392 O405 2.010 . S
O393 Mg392 2.028 . S
O393 C396 1.250 . S
O394 Mg395 2.028 . S
O394 C396 1.248 . S
Mg395 O394 2.028 . S
Mg395 O400 2.032 . S
Mg395 O402 2.079 . S
C396 O393 1.250 . S
C396 O394 1.248 . S
C397 O398 1.264 . S
C397 O405 1.249 . S
O398 C397 1.264 . S
O399 Mg392 1.986 . S
O399 C403 1.246 . S
O400 Mg395 2.032 . S
O400 C403 1.259 . S
O401 Mg392 2.114 . S
O401 C404 1.252 . S
O402 Mg392 2.251 . S
O402 Mg395 2.079 . S
O402 C404 1.273 . S
C403 O399 1.246 . S
C403 O400 1.259 . S
C404 O401 1.252 . S
C404 O402 1.273 . S
O405 Mg392 2.010 . S
O405 C397 1.249 . S
Mg406 O407 2.028 . S
Mg406 O413 1.986 . S
Mg406 O415 2.114 . S
Mg406 O416 2.251 . S
Mg406 O419 2.010 . S
O407 Mg406 2.028 . S
O407 C410 1.250 . S
O408 Mg409 2.028 . S
O408 C410 1.248 . S
Mg409 O408 2.028 . S
Mg409 O414 2.032 . S
Mg409 O416 2.079 . S
C410 O407 1.250 . S
C410 O408 1.248 . S
C411 O412 1.264 . S
C411 O419 1.249 . S
O412 C411 1.264 . S
O413 Mg406 1.986 . S
O413 C417 1.246 . S
O414 Mg409 2.032 . S
O414 C417 1.259 . S
O415 Mg406 2.114 . S
O415 C418 1.252 . S
O416 Mg406 2.251 . S
O416 Mg409 2.079 . S
O416 C418 1.273 . S
C417 O413 1.246 . S
C417 O414 1.259 . S
C418 O415 1.252 . S
C418 O416 1.273 . S
O419 Mg406 2.010 . S
O419 C411 1.249 . S
Mg420 O421 2.028 . S
Mg420 O427 1.986 . S
Mg420 O429 2.114 . S
Mg420 O430 2.251 . S
Mg420 O433 2.010 . S
O421 Mg420 2.028 . S
O421 C424 1.250 . S
O422 Mg423 2.028 . S
O422 C424 1.248 . S
Mg423 O422 2.028 . S
Mg423 O428 2.032 . S
Mg423 O430 2.079 . S
C424 O421 1.250 . S
C424 O422 1.248 . S
C425 O426 1.264 . S
C425 O433 1.249 . S
O426 C425 1.264 . S
O427 Mg420 1.986 . S
O427 C431 1.246 . S
O428 Mg423 2.032 . S
O428 C431 1.259 . S
O429 Mg420 2.114 . S
O429 C432 1.252 . S
O430 Mg420 2.251 . S
O430 Mg423 2.079 . S
O430 C432 1.273 . S
C431 O427 1.246 . S
C431 O428 1.259 . S
C432 O429 1.252 . S
C432 O430 1.273 . S
O433 Mg420 2.010 . S
O433 C425 1.249 . S
Mg434 O435 2.028 . S
Mg434 O441 1.986 . S
Mg434 O443 2.114 . S
Mg434 O444 2.251 . S
Mg434 O447 2.010 . S
O435 Mg434 2.028 . S
O435 C438 1.250 . S
O436 Mg437 2.028 . S
O436 C438 1.248 . S
Mg437 O436 2.028 . S
Mg437 O442 2.032 . S
Mg437 O444 2.079 . S
C438 O435 1.250 . S
C438 O436 1.248 . S
C439 O440 1.264 . S
C439 O447 1.249 . S
O440 C439 1.264 . S
O441 Mg434 1.986 . S
O441 C445 1.246 . S
O442 Mg437 2.032 . S
O442 C445 1.259 . S
O443 Mg434 2.114 . S
O443 C446 1.252 . S
O444 Mg434 2.251 . S
O444 Mg437 2.079 . S
O444 C446 1.273 . S
C445 O441 1.246 . S
C445 O442 1.259 . S
C446 O443 1.252 . S
C446 O444 1.273 . S
O447 Mg434 2.010 . S
O447 C439 1.249 . S
C448 C449 1.363 . S
C448 C454 1.379 . S
C448 N456 1.356 . S
C449 C448 1.363 . S
C449 C455 1.363 . S
C450 C451 1.363 . S
C450 C455 1.379 . S
C450 N457 1.356 . S
C451 C450 1.363 . S
C451 C454 1.363 . S
N452 C454 1.356 . S
N452 H464 0.984 . S
N452 H465 0.985 . S
N453 C455 1.356 . S
N453 H458 0.984 . S
N453 H459 0.985 . S
C454 C448 1.379 . S
C454 C451 1.363 . S
C454 N452 1.356 . S
C455 C449 1.363 . S
C455 C450 1.379 . S
C455 N453 1.356 . S
N456 C448 1.356 . S
N456 H462 0.984 . S
N456 H463 0.984 . S
N457 C450 1.356 . S
N457 H460 0.984 . S
N457 H461 0.985 . S
H458 N453 0.984 . S
H459 N453 0.985 . S
H460 N457 0.984 . S
H461 N457 0.985 . S
H462 N456 0.984 . S
H463 N456 0.984 . S
H464 N452 0.984 . S
H465 N452 0.985 . S
C466 C467 1.363 . S
C466 C472 1.379 . S
C466 N474 1.356 . S
C467 C466 1.363 . S
C467 C473 1.363 . S
C468 C469 1.363 . S
C468 C473 1.379 . S
C468 N475 1.356 . S
C469 C468 1.363 . S
C469 C472 1.363 . S
N470 C472 1.356 . S
N470 H482 0.984 . S
N470 H483 0.985 . S
N471 C473 1.356 . S
N471 H476 0.984 . S
N471 H477 0.985 . S
C472 C466 1.379 . S
C472 C469 1.363 . S
C472 N470 1.356 . S
C473 C467 1.363 . S
C473 C468 1.379 . S
C473 N471 1.356 . S
N474 C466 1.356 . S
N474 H480 0.984 . S
N474 H481 0.984 . S
N475 C468 1.356 . S
N475 H478 0.984 . S
N475 H479 0.985 . S
H476 N471 0.984 . S
H477 N471 0.985 . S
H478 N475 0.984 . S
H479 N475 0.985 . S
H480 N474 0.984 . S
H481 N474 0.984 . S
H482 N470 0.984 . S
H483 N470 0.985 . S
C484 C485 1.363 . S
C484 C490 1.379 . S
C484 N492 1.356 . S
C485 C484 1.363 . S
C485 C491 1.363 . S
C486 C487 1.363 . S
C486 C491 1.379 . S
C486 N493 1.356 . S
C487 C486 1.363 . S
C487 C490 1.363 . S
N488 C490 1.356 . S
N488 H500 0.984 . S
N488 H501 0.985 . S
N489 C491 1.356 . S
N489 H494 0.984 . S
N489 H495 0.985 . S
C490 C484 1.379 . S
C490 C487 1.363 . S
C490 N488 1.356 . S
C491 C485 1.363 . S
C491 C486 1.379 . S
C491 N489 1.356 . S
N492 C484 1.356 . S
N492 H498 0.984 . S
N492 H499 0.984 . S
N493 C486 1.356 . S
N493 H496 0.984 . S
N493 H497 0.985 . S
H494 N489 0.984 . S
H495 N489 0.985 . S
H496 N493 0.984 . S
H497 N493 0.985 . S
H498 N492 0.984 . S
H499 N492 0.984 . S
H500 N488 0.984 . S
H501 N488 0.985 . S
C502 C503 1.363 . S
C502 C508 1.379 . S
C502 N510 1.356 . S
C503 C502 1.363 . S
C503 C509 1.363 . S
C504 C505 1.363 . S
C504 C509 1.379 . S
C504 N511 1.356 . S
C505 C504 1.363 . S
C505 C508 1.363 . S
N506 C508 1.356 . S
N506 H518 0.984 . S
N506 H519 0.985 . S
N507 C509 1.356 . S
N507 H512 0.984 . S
N507 H513 0.985 . S
C508 C502 1.379 . S
C508 C505 1.363 . S
C508 N506 1.356 . S
C509 C503 1.363 . S
C509 C504 1.379 . S
C509 N507 1.356 . S
N510 C502 1.356 . S
N510 H516 0.984 . S
N510 H517 0.984 . S
N511 C504 1.356 . S
N511 H514 0.984 . S
N511 H515 0.985 . S
H512 N507 0.984 . S
H513 N507 0.985 . S
H514 N511 0.984 . S
H515 N511 0.985 . S
H516 N510 0.984 . S
H517 N510 0.984 . S
H518 N506 0.984 . S
H519 N506 0.985 . S
C520 C521 1.363 . S
C520 C526 1.379 . S
C520 N528 1.356 . S
C521 C520 1.363 . S
C521 C527 1.363 . S
C522 C523 1.363 . S
C522 C527 1.379 . S
C522 N529 1.356 . S
C523 C522 1.363 . S
C523 C526 1.363 . S
N524 C526 1.356 . S
N524 H536 0.984 . S
N524 H537 0.985 . S
N525 C527 1.356 . S
N525 H530 0.984 . S
N525 H531 0.985 . S
C526 C520 1.379 . S
C526 C523 1.363 . S
C526 N524 1.356 . S
C527 C521 1.363 . S
C527 C522 1.379 . S
C527 N525 1.356 . S
N528 C520 1.356 . S
N528 H534 0.984 . S
N528 H535 0.984 . S
N529 C522 1.356 . S
N529 H532 0.984 . S
N529 H533 0.985 . S
H530 N525 0.984 . S
H531 N525 0.985 . S
H532 N529 0.984 . S
H533 N529 0.985 . S
H534 N528 0.984 . S
H535 N528 0.984 . S
H536 N524 0.984 . S
H537 N524 0.985 . S
C538 C539 1.363 . S
C538 C544 1.379 . S
C538 N546 1.356 . S
C539 C538 1.363 . S
C539 C545 1.363 . S
C540 C541 1.363 . S
C540 C545 1.379 . S
C540 N547 1.356 . S
C541 C540 1.363 . S
C541 C544 1.363 . S
N542 C544 1.356 . S
N542 H554 0.984 . S
N542 H555 0.985 . S
N543 C545 1.356 . S
N543 H548 0.984 . S
N543 H549 0.985 . S
C544 C538 1.379 . S
C544 C541 1.363 . S
C544 N542 1.356 . S
C545 C539 1.363 . S
C545 C540 1.379 . S
C545 N543 1.356 . S
N546 C538 1.356 . S
N546 H552 0.984 . S
N546 H553 0.984 . S
N547 C540 1.356 . S
N547 H550 0.984 . S
N547 H551 0.985 . S
H548 N543 0.984 . S
H549 N543 0.985 . S
H550 N547 0.984 . S
H551 N547 0.985 . S
H552 N546 0.984 . S
H553 N546 0.984 . S
H554 N542 0.984 . S
H555 N542 0.985 . S
C556 C557 1.363 . S
C556 C562 1.379 . S
C556 N564 1.356 . S
C557 C556 1.363 . S
C557 C563 1.363 . S
C558 C559 1.363 . S
C558 C563 1.379 . S
C558 N565 1.356 . S
C559 C558 1.363 . S
C559 C562 1.363 . S
N560 C562 1.356 . S
N560 H572 0.984 . S
N560 H573 0.985 . S
N561 C563 1.356 . S
N561 H566 0.984 . S
N561 H567 0.985 . S
C562 C556 1.379 . S
C562 C559 1.363 . S
C562 N560 1.356 . S
C563 C557 1.363 . S
C563 C558 1.379 . S
C563 N561 1.356 . S
N564 C556 1.356 . S
N564 H570 0.984 . S
N564 H571 0.984 . S
N565 C558 1.356 . S
N565 H568 0.984 . S
N565 H569 0.985 . S
H566 N561 0.984 . S
H567 N561 0.985 . S
H568 N565 0.984 . S
H569 N565 0.985 . S
H570 N564 0.984 . S
H571 N564 0.984 . S
H572 N560 0.984 . S
H573 N560 0.985 . S
C574 C575 1.363 . S
C574 C580 1.379 . S
C574 N582 1.356 . S
C575 C574 1.363 . S
C575 C581 1.363 . S
C576 C577 1.363 . S
C576 C581 1.379 . S
C576 N583 1.356 . S
C577 C576 1.363 . S
C577 C580 1.363 . S
N578 C580 1.356 . S
N578 H590 0.984 . S
N578 H591 0.985 . S
N579 C581 1.356 . S
N579 H584 0.984 . S
N579 H585 0.985 . S
C580 C574 1.379 . S
C580 C577 1.363 . S
C580 N578 1.356 . S
C581 C575 1.363 . S
C581 C576 1.379 . S
C581 N579 1.356 . S
N582 C574 1.356 . S
N582 H588 0.984 . S
N582 H589 0.984 . S
N583 C576 1.356 . S
N583 H586 0.984 . S
N583 H587 0.985 . S
H584 N579 0.984 . S
H585 N579 0.985 . S
H586 N583 0.984 . S
H587 N583 0.985 . S
H588 N582 0.984 . S
H589 N582 0.984 . S
H590 N578 0.984 . S
H591 N578 0.985 . S
C592 C593 1.363 . S
C592 C598 1.379 . S
C592 N600 1.356 . S
C593 C592 1.363 . S
C593 C599 1.363 . S
C594 C595 1.363 . S
C594 C599 1.379 . S
C594 N601 1.356 . S
C595 C594 1.363 . S
C595 C598 1.363 . S
N596 C598 1.356 . S
N596 H608 0.984 . S
N596 H609 0.985 . S
N597 C599 1.356 . S
N597 H602 0.984 . S
N597 H603 0.985 . S
C598 C592 1.379 . S
C598 C595 1.363 . S
C598 N596 1.356 . S
C599 C593 1.363 . S
C599 C594 1.379 . S
C599 N597 1.356 . S
N600 C592 1.356 . S
N600 H606 0.984 . S
N600 H607 0.984 . S
N601 C594 1.356 . S
N601 H604 0.984 . S
N601 H605 0.985 . S
H602 N597 0.984 . S
H603 N597 0.985 . S
H604 N601 0.984 . S
H605 N601 0.985 . S
H606 N600 0.984 . S
H607 N600 0.984 . S
H608 N596 0.984 . S
H609 N596 0.985 . S
C610 C611 1.363 . S
C610 C616 1.379 . S
C610 N618 1.356 . S
C611 C610 1.363 . S
C611 C617 1.363 . S
C612 C613 1.363 . S
C612 C617 1.379 . S
C612 N619 1.356 . S
C613 C612 1.363 . S
C613 C616 1.363 . S
N614 C616 1.356 . S
N614 H626 0.984 . S
N614 H627 0.985 . S
N615 C617 1.356 . S
N615 H620 0.984 . S
N615 H621 0.985 . S
C616 C610 1.379 . S
C616 C613 1.363 . S
C616 N614 1.356 . S
C617 C611 1.363 . S
C617 C612 1.379 . S
C617 N615 1.356 . S
N618 C610 1.356 . S
N618 H624 0.984 . S
N618 H625 0.984 . S
N619 C612 1.356 . S
N619 H622 0.984 . S
N619 H623 0.985 . S
H620 N615 0.984 . S
H621 N615 0.985 . S
H622 N619 0.984 . S
H623 N619 0.985 . S
H624 N618 0.984 . S
H625 N618 0.984 . S
H626 N614 0.984 . S
H627 N614 0.985 . S
C628 C629 1.363 . S
C628 C634 1.379 . S
C628 N636 1.356 . S
C629 C628 1.363 . S
C629 C635 1.363 . S
C630 C631 1.363 . S
C630 C635 1.379 . S
C630 N637 1.356 . S
C631 C630 1.363 . S
C631 C634 1.363 . S
N632 C634 1.356 . S
N632 H644 0.984 . S
N632 H645 0.985 . S
N633 C635 1.356 . S
N633 H638 0.984 . S
N633 H639 0.985 . S
C634 C628 1.379 . S
C634 C631 1.363 . S
C634 N632 1.356 . S
C635 C629 1.363 . S
C635 C630 1.379 . S
C635 N633 1.356 . S
N636 C628 1.356 . S
N636 H642 0.984 . S
N636 H643 0.984 . S
N637 C630 1.356 . S
N637 H640 0.984 . S
N637 H641 0.985 . S
H638 N633 0.984 . S
H639 N633 0.985 . S
H640 N637 0.984 . S
H641 N637 0.985 . S
H642 N636 0.984 . S
H643 N636 0.984 . S
H644 N632 0.984 . S
H645 N632 0.985 . S
C646 C647 1.363 . S
C646 C652 1.379 . S
C646 N654 1.356 . S
C647 C646 1.363 . S
C647 C653 1.363 . S
C648 C649 1.363 . S
C648 C653 1.379 . S
C648 N655 1.356 . S
C649 C648 1.363 . S
C649 C652 1.363 . S
N650 C652 1.356 . S
N650 H662 0.984 . S
N650 H663 0.985 . S
N651 C653 1.356 . S
N651 H656 0.984 . S
N651 H657 0.985 . S
C652 C646 1.379 . S
C652 C649 1.363 . S
C652 N650 1.356 . S
C653 C647 1.363 . S
C653 C648 1.379 . S
C653 N651 1.356 . S
N654 C646 1.356 . S
N654 H660 0.984 . S
N654 H661 0.984 . S
N655 C648 1.356 . S
N655 H658 0.984 . S
N655 H659 0.985 . S
H656 N651 0.984 . S
H657 N651 0.985 . S
H658 N655 0.984 . S
H659 N655 0.985 . S
H660 N654 0.984 . S
H661 N654 0.984 . S
H662 N650 0.984 . S
H663 N650 0.985 . S
C664 C665 1.363 . S
C664 C670 1.379 . S
C664 N672 1.356 . S
C665 C664 1.363 . S
C665 C671 1.363 . S
C666 C667 1.363 . S
C666 C671 1.379 . S
C666 N673 1.356 . S
C667 C666 1.363 . S
C667 C670 1.363 . S
N668 C670 1.356 . S
N668 H680 0.984 . S
N668 H681 0.985 . S
N669 C671 1.356 . S
N669 H674 0.984 . S
N669 H675 0.985 . S
C670 C664 1.379 . S
C670 C667 1.363 . S
C670 N668 1.356 . S
C671 C665 1.363 . S
C671 C666 1.379 . S
C671 N669 1.356 . S
N672 C664 1.356 . S
N672 H678 0.984 . S
N672 H679 0.984 . S
N673 C666 1.356 . S
N673 H676 0.984 . S
N673 H677 0.985 . S
H674 N669 0.984 . S
H675 N669 0.985 . S
H676 N673 0.984 . S
H677 N673 0.985 . S
H678 N672 0.984 . S
H679 N672 0.984 . S
H680 N668 0.984 . S
H681 N668 0.985 . S
C682 C683 1.363 . S
C682 C688 1.379 . S
C682 N690 1.356 . S
C683 C682 1.363 . S
C683 C689 1.363 . S
C684 C685 1.363 . S
C684 C689 1.379 . S
C684 N691 1.356 . S
C685 C684 1.363 . S
C685 C688 1.363 . S
N686 C688 1.356 . S
N686 H698 0.984 . S
N686 H699 0.985 . S
N687 C689 1.356 . S
N687 H692 0.984 . S
N687 H693 0.985 . S
C688 C682 1.379 . S
C688 C685 1.363 . S
C688 N686 1.356 . S
C689 C683 1.363 . S
C689 C684 1.379 . S
C689 N687 1.356 . S
N690 C682 1.356 . S
N690 H696 0.984 . S
N690 H697 0.984 . S
N691 C684 1.356 . S
N691 H694 0.984 . S
N691 H695 0.985 . S
H692 N687 0.984 . S
H693 N687 0.985 . S
H694 N691 0.984 . S
H695 N691 0.985 . S
H696 N690 0.984 . S
H697 N690 0.984 . S
H698 N686 0.984 . S
H699 N686 0.985 . S
C700 C701 1.363 . S
C700 C706 1.379 . S
C700 N708 1.356 . S
C701 C700 1.363 . S
C701 C707 1.363 . S
C702 C703 1.363 . S
C702 C707 1.379 . S
C702 N709 1.356 . S
C703 C702 1.363 . S
C703 C706 1.363 . S
N704 C706 1.356 . S
N704 H716 0.984 . S
N704 H717 0.985 . S
N705 C707 1.356 . S
N705 H710 0.984 . S
N705 H711 0.985 . S
C706 C700 1.379 . S
C706 C703 1.363 . S
C706 N704 1.356 . S
C707 C701 1.363 . S
C707 C702 1.379 . S
C707 N705 1.356 . S
N708 C700 1.356 . S
N708 H714 0.984 . S
N708 H715 0.984 . S
N709 C702 1.356 . S
N709 H712 0.984 . S
N709 H713 0.985 . S
H710 N705 0.984 . S
H711 N705 0.985 . S
H712 N709 0.984 . S
H713 N709 0.985 . S
H714 N708 0.984 . S
H715 N708 0.984 . S
H716 N704 0.984 . S
H717 N704 0.985 . S
C718 C719 1.363 . S
C718 C724 1.379 . S
C718 N726 1.356 . S
C719 C718 1.363 . S
C719 C725 1.363 . S
C720 C721 1.363 . S
C720 C725 1.379 . S
C720 N727 1.356 . S
C721 C720 1.363 . S
C721 C724 1.363 . S
N722 C724 1.356 . S
N722 H734 0.984 . S
N722 H735 0.985 . S
N723 C725 1.356 . S
N723 H728 0.984 . S
N723 H729 0.985 . S
C724 C718 1.379 . S
C724 C721 1.363 . S
C724 N722 1.356 . S
C725 C719 1.363 . S
C725 C720 1.379 . S
C725 N723 1.356 . S
N726 C718 1.356 . S
N726 H732 0.984 . S
N726 H733 0.984 . S
N727 C720 1.356 . S
N727 H730 0.984 . S
N727 H731 0.985 . S
H728 N723 0.984 . S
H729 N723 0.985 . S
H730 N727 0.984 . S
H731 N727 0.985 . S
H732 N726 0.984 . S
H733 N726 0.984 . S
H734 N722 0.984 . S
H735 N722 0.985 . S
C736 C737 1.363 . S
C736 C742 1.379 1_554 S
C736 N744 1.356 . S
C737 C736 1.363 . S
C737 C743 1.363 . S
C738 C739 1.363 . S
C738 C743 1.379 1_556 S
C738 N745 1.356 . S
C739 C738 1.363 . S
C739 C742 1.363 . S
N740 C742 1.356 . S
N740 H752 0.984 . S
N740 H753 0.985 . S
N741 C743 1.356 . S
N741 H746 0.984 . S
N741 H747 0.985 . S
C742 C736 1.379 1_556 S
C742 C739 1.363 . S
C742 N740 1.356 . S
C743 C737 1.363 . S
C743 C738 1.379 1_554 S
C743 N741 1.356 . S
N744 C736 1.356 . S
N744 H750 0.984 . S
N744 H751 0.984 . S
N745 C738 1.356 . S
N745 H748 0.984 . S
N745 H749 0.985 . S
H746 N741 0.984 . S
H747 N741 0.985 . S
H748 N745 0.984 . S
H749 N745 0.985 . S
H750 N744 0.984 . S
H751 N744 0.984 . S
H752 N740 0.984 . S
H753 N740 0.985 . S
C754 C755 1.363 . S
C754 C760 1.379 1_556 S
C754 N762 1.356 . S
C755 C754 1.363 . S
C755 C761 1.363 . S
C756 C757 1.363 . S
C756 C761 1.379 1_554 S
C756 N763 1.356 . S
C757 C756 1.363 . S
C757 C760 1.363 . S
N758 C760 1.356 . S
N758 H770 0.984 . S
N758 H771 0.985 . S
N759 C761 1.356 . S
N759 H764 0.984 . S
N759 H765 0.985 . S
C760 C754 1.379 1_554 S
C760 C757 1.363 . S
C760 N758 1.356 . S
C761 C755 1.363 . S
C761 C756 1.379 1_556 S
C761 N759 1.356 . S
N762 C754 1.356 . S
N762 H768 0.984 . S
N762 H769 0.984 . S
N763 C756 1.356 . S
N763 H766 0.984 . S
N763 H767 0.985 . S
H764 N759 0.984 . S
H765 N759 0.985 . S
H766 N763 0.984 . S
H767 N763 0.985 . S
H768 N762 0.984 . S
H769 N762 0.984 . S
H770 N758 0.984 . S
H771 N758 0.985 . S
C772 C773 1.363 . S
C772 C778 1.379 1_556 S
C772 N780 1.356 . S
C773 C772 1.363 . S
C773 C779 1.363 . S
C774 C775 1.363 . S
C774 C779 1.379 1_554 S
C774 N781 1.356 . S
C775 C774 1.363 . S
C775 C778 1.363 . S
N776 C778 1.356 . S
N776 H788 0.984 . S
N776 H789 0.985 . S
N777 C779 1.356 . S
N777 H782 0.984 . S
N777 H783 0.985 . S
C778 C772 1.379 1_554 S
C778 C775 1.363 . S
C778 N776 1.356 . S
C779 C773 1.363 . S
C779 C774 1.379 1_556 S
C779 N777 1.356 . S
N780 C772 1.356 . S
N780 H786 0.984 . S
N780 H787 0.984 . S
N781 C774 1.356 . S
N781 H784 0.984 . S
N781 H785 0.985 . S
H782 N777 0.984 . S
H783 N777 0.985 . S
H784 N781 0.984 . S
H785 N781 0.985 . S
H786 N780 0.984 . S
H787 N780 0.984 . S
H788 N776 0.984 . S
H789 N776 0.985 . S
C790 C791 1.363 . S
C790 C796 1.379 1_556 S
C790 N798 1.356 . S
C791 C790 1.363 . S
C791 C797 1.363 . S
C792 C793 1.363 . S
C792 C797 1.379 1_554 S
C792 N799 1.356 . S
C793 C792 1.363 . S
C793 C796 1.363 . S
N794 C796 1.356 . S
N794 H806 0.984 . S
N794 H807 0.985 . S
N795 C797 1.356 . S
N795 H800 0.984 . S
N795 H801 0.985 . S
C796 C790 1.379 1_554 S
C796 C793 1.363 . S
C796 N794 1.356 . S
C797 C791 1.363 . S
C797 C792 1.379 1_556 S
C797 N795 1.356 . S
N798 C790 1.356 . S
N798 H804 0.984 . S
N798 H805 0.984 . S
N799 C792 1.356 . S
N799 H802 0.984 . S
N799 H803 0.985 . S
H800 N795 0.984 . S
H801 N795 0.985 . S
H802 N799 0.984 . S
H803 N799 0.985 . S
H804 N798 0.984 . S
H805 N798 0.984 . S
H806 N794 0.984 . S
H807 N794 0.985 . S
C808 C809 1.363 . S
C808 C814 1.379 . S
C808 N816 1.356 . S
C809 C808 1.363 . S
C809 C815 1.363 . S
C810 C811 1.363 . S
C810 C815 1.379 . S
C810 N817 1.356 . S
C811 C810 1.363 . S
C811 C814 1.363 . S
N812 C814 1.356 . S
N812 H824 0.984 . S
N812 H825 0.985 . S
N813 C815 1.356 . S
N813 H818 0.984 . S
N813 H819 0.985 . S
C814 C808 1.379 . S
C814 C811 1.363 . S
C814 N812 1.356 . S
C815 C809 1.363 . S
C815 C810 1.379 . S
C815 N813 1.356 . S
N816 C808 1.356 . S
N816 H822 0.984 . S
N816 H823 0.984 . S
N817 C810 1.356 . S
N817 H820 0.984 . S
N817 H821 0.985 . S
H818 N813 0.984 . S
H819 N813 0.985 . S
H820 N817 0.984 . S
H821 N817 0.985 . S
H822 N816 0.984 . S
H823 N816 0.984 . S
H824 N812 0.984 . S
H825 N812 0.985 . S
C826 C827 1.363 . S
C826 C832 1.379 . S
C826 N834 1.356 . S
C827 C826 1.363 . S
C827 C833 1.363 . S
C828 C829 1.363 . S
C828 C833 1.379 . S
C828 N835 1.356 . S
C829 C828 1.363 . S
C829 C832 1.363 . S
N830 C832 1.356 . S
N830 H842 0.984 . S
N830 H843 0.985 . S
N831 C833 1.356 . S
N831 H836 0.984 . S
N831 H837 0.985 . S
C832 C826 1.379 . S
C832 C829 1.363 . S
C832 N830 1.356 . S
C833 C827 1.363 . S
C833 C828 1.379 . S
C833 N831 1.356 . S
N834 C826 1.356 . S
N834 H840 0.984 . S
N834 H841 0.984 . S
N835 C828 1.356 . S
N835 H838 0.984 . S
N835 H839 0.985 . S
H836 N831 0.984 . S
H837 N831 0.985 . S
H838 N835 0.984 . S
H839 N835 0.985 . S
H840 N834 0.984 . S
H841 N834 0.984 . S
H842 N830 0.984 . S
H843 N830 0.985 . S
C844 C845 1.363 . S
C844 C850 1.379 . S
C844 N852 1.356 . S
C845 C844 1.363 . S
C845 C851 1.363 . S
C846 C847 1.363 . S
C846 C851 1.379 . S
C846 N853 1.356 . S
C847 C846 1.363 . S
C847 C850 1.363 . S
N848 C850 1.356 . S
N848 H860 0.984 . S
N848 H861 0.985 . S
N849 C851 1.356 . S
N849 H854 0.984 . S
N849 H855 0.985 . S
C850 C844 1.379 . S
C850 C847 1.363 . S
C850 N848 1.356 . S
C851 C845 1.363 . S
C851 C846 1.379 . S
C851 N849 1.356 . S
N852 C844 1.356 . S
N852 H858 0.984 . S
N852 H859 0.984 . S
N853 C846 1.356 . S
N853 H856 0.984 . S
N853 H857 0.985 . S
H854 N849 0.984 . S
H855 N849 0.985 . S
H856 N853 0.984 . S
H857 N853 0.985 . S
H858 N852 0.984 . S
H859 N852 0.984 . S
H860 N848 0.984 . S
H861 N848 0.985 . S
C862 C863 1.363 . S
C862 C868 1.379 . S
C862 N870 1.356 . S
C863 C862 1.363 . S
C863 C869 1.363 . S
C864 C865 1.363 . S
C864 C869 1.379 . S
C864 N871 1.356 . S
C865 C864 1.363 . S
C865 C868 1.363 . S
N866 C868 1.356 . S
N866 H878 0.984 . S
N866 H879 0.985 . S
N867 C869 1.356 . S
N867 H872 0.984 . S
N867 H873 0.985 . S
C868 C862 1.379 . S
C868 C865 1.363 . S
C868 N866 1.356 . S
C869 C863 1.363 . S
C869 C864 1.379 . S
C869 N867 1.356 . S
N870 C862 1.356 . S
N870 H876 0.984 . S
N870 H877 0.984 . S
N871 C864 1.356 . S
N871 H874 0.984 . S
N871 H875 0.985 . S
H872 N867 0.984 . S
H873 N867 0.985 . S
H874 N871 0.984 . S
H875 N871 0.985 . S
H876 N870 0.984 . S
H877 N870 0.984 . S
H878 N866 0.984 . S
H879 N866 0.985 . S
C880 C881 1.363 . S
C880 C886 1.379 . S
C880 N888 1.356 . S
C881 C880 1.363 . S
C881 C887 1.363 . S
C882 C883 1.363 . S
C882 C887 1.379 . S
C882 N889 1.356 . S
C883 C882 1.363 . S
C883 C886 1.363 . S
N884 C886 1.356 . S
N884 H896 0.984 . S
N884 H897 0.985 . S
N885 C887 1.356 . S
N885 H890 0.984 . S
N885 H891 0.985 . S
C886 C880 1.379 . S
C886 C883 1.363 . S
C886 N884 1.356 . S
C887 C881 1.363 . S
C887 C882 1.379 . S
C887 N885 1.356 . S
N888 C880 1.356 . S
N888 H894 0.984 . S
N888 H895 0.984 . S
N889 C882 1.356 . S
N889 H892 0.984 . S
N889 H893 0.985 . S
H890 N885 0.984 . S
H891 N885 0.985 . S
H892 N889 0.984 . S
H893 N889 0.985 . S
H894 N888 0.984 . S
H895 N888 0.984 . S
H896 N884 0.984 . S
H897 N884 0.985 . S
C898 C899 1.363 . S
C898 C904 1.379 . S
C898 N906 1.356 . S
C899 C898 1.363 . S
C899 C905 1.363 . S
C900 C901 1.363 . S
C900 C905 1.379 . S
C900 N907 1.356 . S
C901 C900 1.363 . S
C901 C904 1.363 . S
N902 C904 1.356 . S
N902 H914 0.984 . S
N902 H915 0.985 . S
N903 C905 1.356 . S
N903 H908 0.984 . S
N903 H909 0.985 . S
C904 C898 1.379 . S
C904 C901 1.363 . S
C904 N902 1.356 . S
C905 C899 1.363 . S
C905 C900 1.379 . S
C905 N903 1.356 . S
N906 C898 1.356 . S
N906 H912 0.984 . S
N906 H913 0.984 . S
N907 C900 1.356 . S
N907 H910 0.984 . S
N907 H911 0.985 . S
H908 N903 0.984 . S
H909 N903 0.985 . S
H910 N907 0.984 . S
H911 N907 0.985 . S
H912 N906 0.984 . S
H913 N906 0.984 . S
H914 N902 0.984 . S
H915 N902 0.985 . S
C916 C917 1.363 . S
C916 C922 1.379 . S
C916 N924 1.356 . S
C917 C916 1.363 . S
C917 C923 1.363 . S
C918 C919 1.363 . S
C918 C923 1.379 . S
C918 N925 1.356 . S
C919 C918 1.363 . S
C919 C922 1.363 . S
N920 C922 1.356 . S
N920 H932 0.984 . S
N920 H933 0.985 . S
N921 C923 1.356 . S
N921 H926 0.984 . S
N921 H927 0.985 . S
C922 C916 1.379 . S
C922 C919 1.363 . S
C922 N920 1.356 . S
C923 C917 1.363 . S
C923 C918 1.379 . S
C923 N921 1.356 . S
N924 C916 1.356 . S
N924 H930 0.984 . S
N924 H931 0.984 . S
N925 C918 1.356 . S
N925 H928 0.984 . S
N925 H929 0.985 . S
H926 N921 0.984 . S
H927 N921 0.985 . S
H928 N925 0.984 . S
H929 N925 0.985 . S
H930 N924 0.984 . S
H931 N924 0.984 . S
H932 N920 0.984 . S
H933 N920 0.985 . S
C934 C935 1.363 . S
C934 C940 1.379 . S
C934 N942 1.356 . S
C935 C934 1.363 . S
C935 C941 1.363 . S
C936 C937 1.363 . S
C936 C941 1.379 . S
C936 N943 1.356 . S
C937 C936 1.363 . S
C937 C940 1.363 . S
N938 C940 1.356 . S
N938 H950 0.984 . S
N938 H951 0.985 . S
N939 C941 1.356 . S
N939 H944 0.984 . S
N939 H945 0.985 . S
C940 C934 1.379 . S
C940 C937 1.363 . S
C940 N938 1.356 . S
C941 C935 1.363 . S
C941 C936 1.379 . S
C941 N939 1.356 . S
N942 C934 1.356 . S
N942 H948 0.984 . S
N942 H949 0.984 . S
N943 C936 1.356 . S
N943 H946 0.984 . S
N943 H947 0.985 . S
H944 N939 0.984 . S
H945 N939 0.985 . S
H946 N943 0.984 . S
H947 N943 0.985 . S
H948 N942 0.984 . S
H949 N942 0.984 . S
H950 N938 0.984 . S
H951 N938 0.985 . S
C952 C953 1.363 . S
C952 C958 1.379 1_556 S
C952 N960 1.356 . S
C953 C952 1.363 . S
C953 C959 1.363 . S
C954 C955 1.363 . S
C954 C959 1.379 1_554 S
C954 N961 1.356 . S
C955 C954 1.363 . S
C955 C958 1.363 . S
N956 C958 1.356 . S
N956 H968 0.984 . S
N956 H969 0.985 . S
N957 C959 1.356 . S
N957 H962 0.984 . S
N957 H963 0.985 . S
C958 C952 1.379 1_554 S
C958 C955 1.363 . S
C958 N956 1.356 . S
C959 C953 1.363 . S
C959 C954 1.379 1_556 S
C959 N957 1.356 . S
N960 C952 1.356 . S
N960 H966 0.984 . S
N960 H967 0.984 . S
N961 C954 1.356 . S
N961 H964 0.984 . S
N961 H965 0.985 . S
H962 N957 0.984 . S
H963 N957 0.985 . S
H964 N961 0.984 . S
H965 N961 0.985 . S
H966 N960 0.984 . S
H967 N960 0.984 . S
H968 N956 0.984 . S
H969 N956 0.985 . S
C970 C971 1.363 . S
C970 C976 1.379 1_554 S
C970 N978 1.356 . S
C971 C970 1.363 . S
C971 C977 1.363 . S
C972 C973 1.363 . S
C972 C977 1.379 1_556 S
C972 N979 1.356 . S
C973 C972 1.363 . S
C973 C976 1.363 . S
N974 C976 1.356 . S
N974 H986 0.984 . S
N974 H987 0.985 . S
N975 C977 1.356 . S
N975 H980 0.984 . S
N975 H981 0.985 . S
C976 C970 1.379 1_556 S
C976 C973 1.363 . S
C976 N974 1.356 . S
C977 C971 1.363 . S
C977 C972 1.379 1_554 S
C977 N975 1.356 . S
N978 C970 1.356 . S
N978 H984 0.984 . S
N978 H985 0.984 . S
N979 C972 1.356 . S
N979 H982 0.984 . S
N979 H983 0.985 . S
H980 N975 0.984 . S
H981 N975 0.985 . S
H982 N979 0.984 . S
H983 N979 0.985 . S
H984 N978 0.984 . S
H985 N978 0.984 . S
H986 N974 0.984 . S
H987 N974 0.985 . S
C988 C989 1.363 . S
C988 C994 1.379 1_554 S
C988 N996 1.356 . S
C989 C988 1.363 . S
C989 C995 1.363 . S
C990 C991 1.363 . S
C990 C995 1.379 1_556 S
C990 N997 1.356 . S
C991 C990 1.363 . S
C991 C994 1.363 . S
N992 C994 1.356 . S
N992 H1004 0.984 . S
N992 H1005 0.985 . S
N993 C995 1.356 . S
N993 H998 0.984 . S
N993 H999 0.985 . S
C994 C988 1.379 1_556 S
C994 C991 1.363 . S
C994 N992 1.356 . S
C995 C989 1.363 . S
C995 C990 1.379 1_554 S
C995 N993 1.356 . S
N996 C988 1.356 . S
N996 H1002 0.984 . S
N996 H1003 0.984 . S
N997 C990 1.356 . S
N997 H1000 0.984 . S
N997 H1001 0.985 . S
H998 N993 0.984 . S
H999 N993 0.985 . S
H1000 N997 0.984 . S
H1001 N997 0.985 . S
H1002 N996 0.984 . S
H1003 N996 0.984 . S
H1004 N992 0.984 . S
H1005 N992 0.985 . S
C1006 C1007 1.363 . S
C1006 C1012 1.379 1_556 S
C1006 N1014 1.356 . S
C1007 C1006 1.363 . S
C1007 C1013 1.363 . S
C1008 C1009 1.363 . S
C1008 C1013 1.379 1_554 S
C1008 N1015 1.356 . S
C1009 C1008 1.363 . S
C1009 C1012 1.363 . S
N1010 C1012 1.356 . S
N1010 H1022 0.984 . S
N1010 H1023 0.985 . S
N1011 C1013 1.356 . S
N1011 H1016 0.984 . S
N1011 H1017 0.985 . S
C1012 C1006 1.379 1_554 S
C1012 C1009 1.363 . S
C1012 N1010 1.356 . S
C1013 C1007 1.363 . S
C1013 C1008 1.379 1_556 S
C1013 N1011 1.356 . S
N1014 C1006 1.356 . S
N1014 H1020 0.984 . S
N1014 H1021 0.984 . S
N1015 C1008 1.356 . S
N1015 H1018 0.984 . S
N1015 H1019 0.985 . S
H1016 N1011 0.984 . S
H1017 N1011 0.985 . S
H1018 N1015 0.984 . S
H1019 N1015 0.985 . S
H1020 N1014 0.984 . S
H1021 N1014 0.984 . S
H1022 N1010 0.984 . S
H1023 N1010 0.985 . S
C1024 C1025 1.363 . S
C1024 C1030 1.379 1_545 S
C1024 N1032 1.356 . S
C1025 C1024 1.363 . S
C1025 C1031 1.363 . S
C1026 C1027 1.363 . S
C1026 C1031 1.379 1_565 S
C1026 N1033 1.356 . S
C1027 C1026 1.363 . S
C1027 C1030 1.363 . S
N1028 C1030 1.356 . S
N1028 H1040 0.984 . S
N1028 H1041 0.985 . S
N1029 C1031 1.356 . S
N1029 H1034 0.984 . S
N1029 H1035 0.985 . S
C1030 C1024 1.379 1_565 S
C1030 C1027 1.363 . S
C1030 N1028 1.356 . S
C1031 C1025 1.363 . S
C1031 C1026 1.379 1_545 S
C1031 N1029 1.356 . S
N1032 C1024 1.356 . S
N1032 H1038 0.984 . S
N1032 H1039 0.984 . S
N1033 C1026 1.356 . S
N1033 H1036 0.984 . S
N1033 H1037 0.985 . S
H1034 N1029 0.984 . S
H1035 N1029 0.985 . S
H1036 N1033 0.984 . S
H1037 N1033 0.985 . S
H1038 N1032 0.984 . S
H1039 N1032 0.984 . S
H1040 N1028 0.984 . S
H1041 N1028 0.985 . S
C1042 C1043 1.363 . S
C1042 C1048 1.379 1_655 S
C1042 N1050 1.356 . S
C1043 C1042 1.363 . S
C1043 C1049 1.363 . S
C1044 C1045 1.363 . S
C1044 C1049 1.379 1_455 S
C1044 N1051 1.356 . S
C1045 C1044 1.363 . S
C1045 C1048 1.363 . S
N1046 C1048 1.356 . S
N1046 H1058 0.984 . S
N1046 H1059 0.985 . S
N1047 C1049 1.356 . S
N1047 H1052 0.984 . S
N1047 H1053 0.985 . S
C1048 C1042 1.379 1_455 S
C1048 C1045 1.363 . S
C1048 N1046 1.356 . S
C1049 C1043 1.363 . S
C1049 C1044 1.379 1_655 S
C1049 N1047 1.356 . S
N1050 C1042 1.356 . S
N1050 H1056 0.984 . S
N1050 H1057 0.984 . S
N1051 C1044 1.356 . S
N1051 H1054 0.984 . S
N1051 H1055 0.985 . S
H1052 N1047 0.984 . S
H1053 N1047 0.985 . S
H1054 N1051 0.984 . S
H1055 N1051 0.985 . S
H1056 N1050 0.984 . S
H1057 N1050 0.984 . S
H1058 N1046 0.984 . S
H1059 N1046 0.985 . S
C1060 C1061 1.363 . S
C1060 C1066 1.379 1_545 S
C1060 N1068 1.356 . S
C1061 C1060 1.363 . S
C1061 C1067 1.363 . S
C1062 C1063 1.363 . S
C1062 C1067 1.379 1_565 S
C1062 N1069 1.356 . S
C1063 C1062 1.363 . S
C1063 C1066 1.363 . S
N1064 C1066 1.356 . S
N1064 H1076 0.984 . S
N1064 H1077 0.985 . S
N1065 C1067 1.356 . S
N1065 H1070 0.984 . S
N1065 H1071 0.985 . S
C1066 C1060 1.379 1_565 S
C1066 C1063 1.363 . S
C1066 N1064 1.356 . S
C1067 C1061 1.363 . S
C1067 C1062 1.379 1_545 S
C1067 N1065 1.356 . S
N1068 C1060 1.356 . S
N1068 H1074 0.984 . S
N1068 H1075 0.984 . S
N1069 C1062 1.356 . S
N1069 H1072 0.984 . S
N1069 H1073 0.985 . S
H1070 N1065 0.984 . S
H1071 N1065 0.985 . S
H1072 N1069 0.984 . S
H1073 N1069 0.985 . S
H1074 N1068 0.984 . S
H1075 N1068 0.984 . S
H1076 N1064 0.984 . S
H1077 N1064 0.985 . S
C1078 C1079 1.363 . S
C1078 C1084 1.379 1_455 S
C1078 N1086 1.356 . S
C1079 C1078 1.363 . S
C1079 C1085 1.363 . S
C1080 C1081 1.363 . S
C1080 C1085 1.379 1_655 S
C1080 N1087 1.356 . S
C1081 C1080 1.363 . S
C1081 C1084 1.363 . S
N1082 C1084 1.356 . S
N1082 H1094 0.984 . S
N1082 H1095 0.985 . S
N1083 C1085 1.356 . S
N1083 H1088 0.984 . S
N1083 H1089 0.985 . S
C1084 C1078 1.379 1_655 S
C1084 C1081 1.363 . S
C1084 N1082 1.356 . S
C1085 C1079 1.363 . S
C1085 C1080 1.379 1_455 S
C1085 N1083 1.356 . S
N1086 C1078 1.356 . S
N1086 H1092 0.984 . S
N1086 H1093 0.984 . S
N1087 C1080 1.356 . S
N1087 H1090 0.984 . S
N1087 H1091 0.985 . S
H1088 N1083 0.984 . S
H1089 N1083 0.985 . S
H1090 N1087 0.984 . S
H1091 N1087 0.985 . S
H1092 N1086 0.984 . S
H1093 N1086 0.984 . S
H1094 N1082 0.984 . S
H1095 N1082 0.985 . S
C1096 C1097 1.363 . S
C1096 C1102 1.379 1_565 S
C1096 N1104 1.356 . S
C1097 C1096 1.363 . S
C1097 C1103 1.363 . S
C1098 C1099 1.363 . S
C1098 C1103 1.379 1_545 S
C1098 N1105 1.356 . S
C1099 C1098 1.363 . S
C1099 C1102 1.363 . S
N1100 C1102 1.356 . S
N1100 H1112 0.984 . S
N1100 H1113 0.985 . S
N1101 C1103 1.356 . S
N1101 H1106 0.984 . S
N1101 H1107 0.985 . S
C1102 C1096 1.379 1_545 S
C1102 C1099 1.363 . S
C1102 N1100 1.356 . S
C1103 C1097 1.363 . S
C1103 C1098 1.379 1_565 S
C1103 N1101 1.356 . S
N1104 C1096 1.356 . S
N1104 H1110 0.984 . S
N1104 H1111 0.984 . S
N1105 C1098 1.356 . S
N1105 H1108 0.984 . S
N1105 H1109 0.985 . S
H1106 N1101 0.984 . S
H1107 N1101 0.985 . S
H1108 N1105 0.984 . S
H1109 N1105 0.985 . S
H1110 N1104 0.984 . S
H1111 N1104 0.984 . S
H1112 N1100 0.984 . S
H1113 N1100 0.985 . S
C1114 C1115 1.363 . S
C1114 C1120 1.379 1_655 S
C1114 N1122 1.356 . S
C1115 C1114 1.363 . S
C1115 C1121 1.363 . S
C1116 C1117 1.363 . S
C1116 C1121 1.379 1_455 S
C1116 N1123 1.356 . S
C1117 C1116 1.363 . S
C1117 C1120 1.363 . S
N1118 C1120 1.356 . S
N1118 H1130 0.984 . S
N1118 H1131 0.985 . S
N1119 C1121 1.356 . S
N1119 H1124 0.984 . S
N1119 H1125 0.985 . S
C1120 C1114 1.379 1_455 S
C1120 C1117 1.363 . S
C1120 N1118 1.356 . S
C1121 C1115 1.363 . S
C1121 C1116 1.379 1_655 S
C1121 N1119 1.356 . S
N1122 C1114 1.356 . S
N1122 H1128 0.984 . S
N1122 H1129 0.984 . S
N1123 C1116 1.356 . S
N1123 H1126 0.984 . S
N1123 H1127 0.985 . S
H1124 N1119 0.984 . S
H1125 N1119 0.985 . S
H1126 N1123 0.984 . S
H1127 N1123 0.985 . S
H1128 N1122 0.984 . S
H1129 N1122 0.984 . S
H1130 N1118 0.984 . S
H1131 N1118 0.985 . S
C1132 C1133 1.363 . S
C1132 C1138 1.379 1_565 S
C1132 N1140 1.356 . S
C1133 C1132 1.363 . S
C1133 C1139 1.363 . S
C1134 C1135 1.363 . S
C1134 C1139 1.379 1_545 S
C1134 N1141 1.356 . S
C1135 C1134 1.363 . S
C1135 C1138 1.363 . S
N1136 C1138 1.356 . S
N1136 H1148 0.984 . S
N1136 H1149 0.985 . S
N1137 C1139 1.356 . S
N1137 H1142 0.984 . S
N1137 H1143 0.985 . S
C1138 C1132 1.379 1_545 S
C1138 C1135 1.363 . S
C1138 N1136 1.356 . S
C1139 C1133 1.363 . S
C1139 C1134 1.379 1_565 S
C1139 N1137 1.356 . S
N1140 C1132 1.356 . S
N1140 H1146 0.984 . S
N1140 H1147 0.984 . S
N1141 C1134 1.356 . S
N1141 H1144 0.984 . S
N1141 H1145 0.985 . S
H1142 N1137 0.984 . S
H1143 N1137 0.985 . S
H1144 N1141 0.984 . S
H1145 N1141 0.985 . S
H1146 N1140 0.984 . S
H1147 N1140 0.984 . S
H1148 N1136 0.984 . S
H1149 N1136 0.985 . S
C1150 C1151 1.363 . S
C1150 C1156 1.379 1_655 S
C1150 N1158 1.356 . S
C1151 C1150 1.363 . S
C1151 C1157 1.363 . S
C1152 C1153 1.363 . S
C1152 C1157 1.379 1_455 S
C1152 N1159 1.356 . S
C1153 C1152 1.363 . S
C1153 C1156 1.363 . S
N1154 C1156 1.356 . S
N1154 H1166 0.984 . S
N1154 H1167 0.985 . S
N1155 C1157 1.356 . S
N1155 H1160 0.984 . S
N1155 H1161 0.985 . S
C1156 C1150 1.379 1_455 S
C1156 C1153 1.363 . S
C1156 N1154 1.356 . S
C1157 C1151 1.363 . S
C1157 C1152 1.379 1_655 S
C1157 N1155 1.356 . S
N1158 C1150 1.356 . S
N1158 H1164 0.984 . S
N1158 H1165 0.984 . S
N1159 C1152 1.356 . S
N1159 H1162 0.984 . S
N1159 H1163 0.985 . S
H1160 N1155 0.984 . S
H1161 N1155 0.985 . S
H1162 N1159 0.984 . S
H1163 N1159 0.985 . S
H1164 N1158 0.984 . S
H1165 N1158 0.984 . S
H1166 N1154 0.984 . S
H1167 N1154 0.985 . S
C1168 C1169 1.363 . S
C1168 C1174 1.379 . S
C1168 N1176 1.356 . S
C1169 C1168 1.363 . S
C1169 C1175 1.363 . S
C1170 C1171 1.363 . S
C1170 C1175 1.379 . S
C1170 N1177 1.356 . S
C1171 C1170 1.363 . S
C1171 C1174 1.363 . S
N1172 C1174 1.356 . S
N1172 H1184 0.984 . S
N1172 H1185 0.985 . S
N1173 C1175 1.356 . S
N1173 H1178 0.984 . S
N1173 H1179 0.985 . S
C1174 C1168 1.379 . S
C1174 C1171 1.363 . S
C1174 N1172 1.356 . S
C1175 C1169 1.363 . S
C1175 C1170 1.379 . S
C1175 N1173 1.356 . S
N1176 C1168 1.356 . S
N1176 H1182 0.984 . S
N1176 H1183 0.984 . S
N1177 C1170 1.356 . S
N1177 H1180 0.984 . S
N1177 H1181 0.985 . S
H1178 N1173 0.984 . S
H1179 N1173 0.985 . S
H1180 N1177 0.984 . S
H1181 N1177 0.985 . S
H1182 N1176 0.984 . S
H1183 N1176 0.984 . S
H1184 N1172 0.984 . S
H1185 N1172 0.985 . S
C1186 C1187 1.363 . S
C1186 C1192 1.379 . S
C1186 N1194 1.356 . S
C1187 C1186 1.363 . S
C1187 C1193 1.363 . S
C1188 C1189 1.363 . S
C1188 C1193 1.379 . S
C1188 N1195 1.356 . S
C1189 C1188 1.363 . S
C1189 C1192 1.363 . S
N1190 C1192 1.356 . S
N1190 H1202 0.984 . S
N1190 H1203 0.985 . S
N1191 C1193 1.356 . S
N1191 H1196 0.984 . S
N1191 H1197 0.985 . S
C1192 C1186 1.379 . S
C1192 C1189 1.363 . S
C1192 N1190 1.356 . S
C1193 C1187 1.363 . S
C1193 C1188 1.379 . S
C1193 N1191 1.356 . S
N1194 C1186 1.356 . S
N1194 H1200 0.984 . S
N1194 H1201 0.984 . S
N1195 C1188 1.356 . S
N1195 H1198 0.984 . S
N1195 H1199 0.985 . S
H1196 N1191 0.984 . S
H1197 N1191 0.985 . S
H1198 N1195 0.984 . S
H1199 N1195 0.985 . S
H1200 N1194 0.984 . S
H1201 N1194 0.984 . S
H1202 N1190 0.984 . S
H1203 N1190 0.985 . S
C1204 C1205 1.363 . S
C1204 C1210 1.379 . S
C1204 N1212 1.356 . S
C1205 C1204 1.363 . S
C1205 C1211 1.363 . S
C1206 C1207 1.363 . S
C1206 C1211 1.379 . S
C1206 N1213 1.356 . S
C1207 C1206 1.363 . S
C1207 C1210 1.363 . S
N1208 C1210 1.356 . S
N1208 H1220 0.984 . S
N1208 H1221 0.985 . S
N1209 C1211 1.356 . S
N1209 H1214 0.984 . S
N1209 H1215 0.985 . S
C1210 C1204 1.379 . S
C1210 C1207 1.363 . S
C1210 N1208 1.356 . S
C1211 C1205 1.363 . S
C1211 C1206 1.379 . S
C1211 N1209 1.356 . S
N1212 C1204 1.356 . S
N1212 H1218 0.984 . S
N1212 H1219 0.984 . S
N1213 C1206 1.356 . S
N1213 H1216 0.984 . S
N1213 H1217 0.985 . S
H1214 N1209 0.984 . S
H1215 N1209 0.985 . S
H1216 N1213 0.984 . S
H1217 N1213 0.985 . S
H1218 N1212 0.984 . S
H1219 N1212 0.984 . S
H1220 N1208 0.984 . S
H1221 N1208 0.985 . S
C1222 C1223 1.363 . S
C1222 C1228 1.379 . S
C1222 N1230 1.356 . S
C1223 C1222 1.363 . S
C1223 C1229 1.363 . S
C1224 C1225 1.363 . S
C1224 C1229 1.379 . S
C1224 N1231 1.356 . S
C1225 C1224 1.363 . S
C1225 C1228 1.363 . S
N1226 C1228 1.356 . S
N1226 H1238 0.984 . S
N1226 H1239 0.985 . S
N1227 C1229 1.356 . S
N1227 H1232 0.984 . S
N1227 H1233 0.985 . S
C1228 C1222 1.379 . S
C1228 C1225 1.363 . S
C1228 N1226 1.356 . S
C1229 C1223 1.363 . S
C1229 C1224 1.379 . S
C1229 N1227 1.356 . S
N1230 C1222 1.356 . S
N1230 H1236 0.984 . S
N1230 H1237 0.984 . S
N1231 C1224 1.356 . S
N1231 H1234 0.984 . S
N1231 H1235 0.985 . S
H1232 N1227 0.984 . S
H1233 N1227 0.985 . S
H1234 N1231 0.984 . S
H1235 N1231 0.985 . S
H1236 N1230 0.984 . S
H1237 N1230 0.984 . S
H1238 N1226 0.984 . S
H1239 N1226 0.985 . S
C1240 C1241 1.363 . S
C1240 C1246 1.379 . S
C1240 N1248 1.356 . S
C1241 C1240 1.363 . S
C1241 C1247 1.363 . S
C1242 C1243 1.363 . S
C1242 C1247 1.379 . S
C1242 N1249 1.356 . S
C1243 C1242 1.363 . S
C1243 C1246 1.363 . S
N1244 C1246 1.356 . S
N1244 H1256 0.984 . S
N1244 H1257 0.985 . S
N1245 C1247 1.356 . S
N1245 H1250 0.984 . S
N1245 H1251 0.985 . S
C1246 C1240 1.379 . S
C1246 C1243 1.363 . S
C1246 N1244 1.356 . S
C1247 C1241 1.363 . S
C1247 C1242 1.379 . S
C1247 N1245 1.356 . S
N1248 C1240 1.356 . S
N1248 H1254 0.984 . S
N1248 H1255 0.984 . S
N1249 C1242 1.356 . S
N1249 H1252 0.984 . S
N1249 H1253 0.985 . S
H1250 N1245 0.984 . S
H1251 N1245 0.985 . S
H1252 N1249 0.984 . S
H1253 N1249 0.985 . S
H1254 N1248 0.984 . S
H1255 N1248 0.984 . S
H1256 N1244 0.984 . S
H1257 N1244 0.985 . S
C1258 C1259 1.363 . S
C1258 C1264 1.379 . S
C1258 N1266 1.356 . S
C1259 C1258 1.363 . S
C1259 C1265 1.363 . S
C1260 C1261 1.363 . S
C1260 C1265 1.379 . S
C1260 N1267 1.356 . S
C1261 C1260 1.363 . S
C1261 C1264 1.363 . S
N1262 C1264 1.356 . S
N1262 H1274 0.984 . S
N1262 H1275 0.985 . S
N1263 C1265 1.356 . S
N1263 H1268 0.984 . S
N1263 H1269 0.985 . S
C1264 C1258 1.379 . S
C1264 C1261 1.363 . S
C1264 N1262 1.356 . S
C1265 C1259 1.363 . S
C1265 C1260 1.379 . S
C1265 N1263 1.356 . S
N1266 C1258 1.356 . S
N1266 H1272 0.984 . S
N1266 H1273 0.984 . S
N1267 C1260 1.356 . S
N1267 H1270 0.984 . S
N1267 H1271 0.985 . S
H1268 N1263 0.984 . S
H1269 N1263 0.985 . S
H1270 N1267 0.984 . S
H1271 N1267 0.985 . S
H1272 N1266 0.984 . S
H1273 N1266 0.984 . S
H1274 N1262 0.984 . S
H1275 N1262 0.985 . S
C1276 C1277 1.363 . S
C1276 C1282 1.379 . S
C1276 N1284 1.356 . S
C1277 C1276 1.363 . S
C1277 C1283 1.363 . S
C1278 C1279 1.363 . S
C1278 C1283 1.379 . S
C1278 N1285 1.356 . S
C1279 C1278 1.363 . S
C1279 C1282 1.363 . S
N1280 C1282 1.356 . S
N1280 H1292 0.984 . S
N1280 H1293 0.985 . S
N1281 C1283 1.356 . S
N1281 H1286 0.984 . S
N1281 H1287 0.985 . S
C1282 C1276 1.379 . S
C1282 C1279 1.363 . S
C1282 N1280 1.356 . S
C1283 C1277 1.363 . S
C1283 C1278 1.379 . S
C1283 N1281 1.356 . S
N1284 C1276 1.356 . S
N1284 H1290 0.984 . S
N1284 H1291 0.984 . S
N1285 C1278 1.356 . S
N1285 H1288 0.984 . S
N1285 H1289 0.985 . S
H1286 N1281 0.984 . S
H1287 N1281 0.985 . S
H1288 N1285 0.984 . S
H1289 N1285 0.985 . S
H1290 N1284 0.984 . S
H1291 N1284 0.984 . S
H1292 N1280 0.984 . S
H1293 N1280 0.985 . S
C1294 C1295 1.363 . S
C1294 C1300 1.379 . S
C1294 N1302 1.356 . S
C1295 C1294 1.363 . S
C1295 C1301 1.363 . S
C1296 C1297 1.363 . S
C1296 C1301 1.379 . S
C1296 N1303 1.356 . S
C1297 C1296 1.363 . S
C1297 C1300 1.363 . S
N1298 C1300 1.356 . S
N1298 H1310 0.984 . S
N1298 H1311 0.985 . S
N1299 C1301 1.356 . S
N1299 H1304 0.984 . S
N1299 H1305 0.985 . S
C1300 C1294 1.379 . S
C1300 C1297 1.363 . S
C1300 N1298 1.356 . S
C1301 C1295 1.363 . S
C1301 C1296 1.379 . S
C1301 N1299 1.356 . S
N1302 C1294 1.356 . S
N1302 H1308 0.984 . S
N1302 H1309 0.984 . S
N1303 C1296 1.356 . S
N1303 H1306 0.984 . S
N1303 H1307 0.985 . S
H1304 N1299 0.984 . S
H1305 N1299 0.985 . S
H1306 N1303 0.984 . S
H1307 N1303 0.985 . S
H1308 N1302 0.984 . S
H1309 N1302 0.984 . S
H1310 N1298 0.984 . S
H1311 N1298 0.985 . S
C1312 C1313 1.363 . S
C1312 C1318 1.379 . S
C1312 N1320 1.356 . S
C1313 C1312 1.363 . S
C1313 C1319 1.363 . S
C1314 C1315 1.363 . S
C1314 C1319 1.379 . S
C1314 N1321 1.356 . S
C1315 C1314 1.363 . S
C1315 C1318 1.363 . S
N1316 C1318 1.356 . S
N1316 H1328 0.984 . S
N1316 H1329 0.985 . S
N1317 C1319 1.356 . S
N1317 H1322 0.984 . S
N1317 H1323 0.985 . S
C1318 C1312 1.379 . S
C1318 C1315 1.363 . S
C1318 N1316 1.356 . S
C1319 C1313 1.363 . S
C1319 C1314 1.379 . S
C1319 N1317 1.356 . S
N1320 C1312 1.356 . S
N1320 H1326 0.984 . S
N1320 H1327 0.984 . S
N1321 C1314 1.356 . S
N1321 H1324 0.984 . S
N1321 H1325 0.985 . S
H1322 N1317 0.984 . S
H1323 N1317 0.985 . S
H1324 N1321 0.984 . S
H1325 N1321 0.985 . S
H1326 N1320 0.984 . S
H1327 N1320 0.984 . S
H1328 N1316 0.984 . S
H1329 N1316 0.985 . S
C1330 C1331 1.363 . S
C1330 C1336 1.379 . S
C1330 N1338 1.356 . S
C1331 C1330 1.363 . S
C1331 C1337 1.363 . S
C1332 C1333 1.363 . S
C1332 C1337 1.379 . S
C1332 N1339 1.356 . S
C1333 C1332 1.363 . S
C1333 C1336 1.363 . S
N1334 C1336 1.356 . S
N1334 H1346 0.984 . S
N1334 H1347 0.985 . S
N1335 C1337 1.356 . S
N1335 H1340 0.984 . S
N1335 H1341 0.985 . S
C1336 C1330 1.379 . S
C1336 C1333 1.363 . S
C1336 N1334 1.356 . S
C1337 C1331 1.363 . S
C1337 C1332 1.379 . S
C1337 N1335 1.356 . S
N1338 C1330 1.356 . S
N1338 H1344 0.984 . S
N1338 H1345 0.984 . S
N1339 C1332 1.356 . S
N1339 H1342 0.984 . S
N1339 H1343 0.985 . S
H1340 N1335 0.984 . S
H1341 N1335 0.985 . S
H1342 N1339 0.984 . S
H1343 N1339 0.985 . S
H1344 N1338 0.984 . S
H1345 N1338 0.984 . S
H1346 N1334 0.984 . S
H1347 N1334 0.985 . S
C1348 C1349 1.363 . S
C1348 C1354 1.379 . S
C1348 N1356 1.356 . S
C1349 C1348 1.363 . S
C1349 C1355 1.363 . S
C1350 C1351 1.363 . S
C1350 C1355 1.379 . S
C1350 N1357 1.356 . S
C1351 C1350 1.363 . S
C1351 C1354 1.363 . S
N1352 C1354 1.356 . S
N1352 H1364 0.984 . S
N1352 H1365 0.985 . S
N1353 C1355 1.356 . S
N1353 H1358 0.984 . S
N1353 H1359 0.985 . S
C1354 C1348 1.379 . S
C1354 C1351 1.363 . S
C1354 N1352 1.356 . S
C1355 C1349 1.363 . S
C1355 C1350 1.379 . S
C1355 N1353 1.356 . S
N1356 C1348 1.356 . S
N1356 H1362 0.984 . S
N1356 H1363 0.984 . S
N1357 C1350 1.356 . S
N1357 H1360 0.984 . S
N1357 H1361 0.985 . S
H1358 N1353 0.984 . S
H1359 N1353 0.985 . S
H1360 N1357 0.984 . S
H1361 N1357 0.985 . S
H1362 N1356 0.984 . S
H1363 N1356 0.984 . S
H1364 N1352 0.984 . S
H1365 N1352 0.985 . S
C1366 C1367 1.363 . S
C1366 C1372 1.379 . S
C1366 N1374 1.356 . S
C1367 C1366 1.363 . S
C1367 C1373 1.363 . S
C1368 C1369 1.363 . S
C1368 C1373 1.379 . S
C1368 N1375 1.356 . S
C1369 C1368 1.363 . S
C1369 C1372 1.363 . S
N1370 C1372 1.356 . S
N1370 H1382 0.984 . S
N1370 H1383 0.985 . S
N1371 C1373 1.356 . S
N1371 H1376 0.984 . S
N1371 H1377 0.985 . S
C1372 C1366 1.379 . S
C1372 C1369 1.363 . S
C1372 N1370 1.356 . S
C1373 C1367 1.363 . S
C1373 C1368 1.379 . S
C1373 N1371 1.356 . S
N1374 C1366 1.356 . S
N1374 H1380 0.984 . S
N1374 H1381 0.984 . S
N1375 C1368 1.356 . S
N1375 H1378 0.984 . S
N1375 H1379 0.985 . S
H1376 N1371 0.984 . S
H1377 N1371 0.985 . S
H1378 N1375 0.984 . S
H1379 N1375 0.985 . S
H1380 N1374 0.984 . S
H1381 N1374 0.984 . S
H1382 N1370 0.984 . S
H1383 N1370 0.985 . S
C1384 C1385 1.363 . S
C1384 C1390 1.379 . S
C1384 N1392 1.356 . S
C1385 C1384 1.363 . S
C1385 C1391 1.363 . S
C1386 C1387 1.363 . S
C1386 C1391 1.379 . S
C1386 N1393 1.356 . S
C1387 C1386 1.363 . S
C1387 C1390 1.363 . S
N1388 C1390 1.356 . S
N1388 H1400 0.984 . S
N1388 H1401 0.985 . S
N1389 C1391 1.356 . S
N1389 H1394 0.984 . S
N1389 H1395 0.985 . S
C1390 C1384 1.379 . S
C1390 C1387 1.363 . S
C1390 N1388 1.356 . S
C1391 C1385 1.363 . S
C1391 C1386 1.379 . S
C1391 N1389 1.356 . S
N1392 C1384 1.356 . S
N1392 H1398 0.984 . S
N1392 H1399 0.984 . S
N1393 C1386 1.356 . S
N1393 H1396 0.984 . S
N1393 H1397 0.985 . S
H1394 N1389 0.984 . S
H1395 N1389 0.985 . S
H1396 N1393 0.984 . S
H1397 N1393 0.985 . S
H1398 N1392 0.984 . S
H1399 N1392 0.984 . S
H1400 N1388 0.984 . S
H1401 N1388 0.985 . S
C1402 C1403 1.363 . S
C1402 C1408 1.379 . S
C1402 N1410 1.356 . S
C1403 C1402 1.363 . S
C1403 C1409 1.363 . S
C1404 C1405 1.363 . S
C1404 C1409 1.379 . S
C1404 N1411 1.356 . S
C1405 C1404 1.363 . S
C1405 C1408 1.363 . S
N1406 C1408 1.356 . S
N1406 H1418 0.984 . S
N1406 H1419 0.985 . S
N1407 C1409 1.356 . S
N1407 H1412 0.984 . S
N1407 H1413 0.985 . S
C1408 C1402 1.379 . S
C1408 C1405 1.363 . S
C1408 N1406 1.356 . S
C1409 C1403 1.363 . S
C1409 C1404 1.379 . S
C1409 N1407 1.356 . S
N1410 C1402 1.356 . S
N1410 H1416 0.984 . S
N1410 H1417 0.984 . S
N1411 C1404 1.356 . S
N1411 H1414 0.984 . S
N1411 H1415 0.985 . S
H1412 N1407 0.984 . S
H1413 N1407 0.985 . S
H1414 N1411 0.984 . S
H1415 N1411 0.985 . S
H1416 N1410 0.984 . S
H1417 N1410 0.984 . S
H1418 N1406 0.984 . S
H1419 N1406 0.985 . S
C1420 C1421 1.363 . S
C1420 C1426 1.379 . S
C1420 N1428 1.356 . S
C1421 C1420 1.363 . S
C1421 C1427 1.363 . S
C1422 C1423 1.363 . S
C1422 C1427 1.379 . S
C1422 N1429 1.356 . S
C1423 C1422 1.363 . S
C1423 C1426 1.363 . S
N1424 C1426 1.356 . S
N1424 H1436 0.984 . S
N1424 H1437 0.985 . S
N1425 C1427 1.356 . S
N1425 H1430 0.984 . S
N1425 H1431 0.985 . S
C1426 C1420 1.379 . S
C1426 C1423 1.363 . S
C1426 N1424 1.356 . S
C1427 C1421 1.363 . S
C1427 C1422 1.379 . S
C1427 N1425 1.356 . S
N1428 C1420 1.356 . S
N1428 H1434 0.984 . S
N1428 H1435 0.984 . S
N1429 C1422 1.356 . S
N1429 H1432 0.984 . S
N1429 H1433 0.985 . S
H1430 N1425 0.984 . S
H1431 N1425 0.985 . S
H1432 N1429 0.984 . S
H1433 N1429 0.985 . S
H1434 N1428 0.984 . S
H1435 N1428 0.984 . S
H1436 N1424 0.984 . S
H1437 N1424 0.985 . S
C1438 C1439 1.363 . S
C1438 C1444 1.379 . S
C1438 N1446 1.356 . S
C1439 C1438 1.363 . S
C1439 C1445 1.363 . S
C1440 C1441 1.363 . S
C1440 C1445 1.379 . S
C1440 N1447 1.356 . S
C1441 C1440 1.363 . S
C1441 C1444 1.363 . S
N1442 C1444 1.356 . S
N1442 H1454 0.984 . S
N1442 H1455 0.985 . S
N1443 C1445 1.356 . S
N1443 H1448 0.984 . S
N1443 H1449 0.985 . S
C1444 C1438 1.379 . S
C1444 C1441 1.363 . S
C1444 N1442 1.356 . S
C1445 C1439 1.363 . S
C1445 C1440 1.379 . S
C1445 N1443 1.356 . S
N1446 C1438 1.356 . S
N1446 H1452 0.984 . S
N1446 H1453 0.984 . S
N1447 C1440 1.356 . S
N1447 H1450 0.984 . S
N1447 H1451 0.985 . S
H1448 N1443 0.984 . S
H1449 N1443 0.985 . S
H1450 N1447 0.984 . S
H1451 N1447 0.985 . S
H1452 N1446 0.984 . S
H1453 N1446 0.984 . S
H1454 N1442 0.984 . S
H1455 N1442 0.985 . S
C1456 C1457 1.363 . S
C1456 C1462 1.379 . S
C1456 N1464 1.356 . S
C1457 C1456 1.363 . S
C1457 C1463 1.363 . S
C1458 C1459 1.363 . S
C1458 C1463 1.379 . S
C1458 N1465 1.356 . S
C1459 C1458 1.363 . S
C1459 C1462 1.363 . S
N1460 C1462 1.356 . S
N1460 H1472 0.984 . S
N1460 H1473 0.985 . S
N1461 C1463 1.356 . S
N1461 H1466 0.984 . S
N1461 H1467 0.985 . S
C1462 C1456 1.379 . S
C1462 C1459 1.363 . S
C1462 N1460 1.356 . S
C1463 C1457 1.363 . S
C1463 C1458 1.379 . S
C1463 N1461 1.356 . S
N1464 C1456 1.356 . S
N1464 H1470 0.984 . S
N1464 H1471 0.984 . S
N1465 C1458 1.356 . S
N1465 H1468 0.984 . S
N1465 H1469 0.985 . S
H1466 N1461 0.984 . S
H1467 N1461 0.985 . S
H1468 N1465 0.984 . S
H1469 N1465 0.985 . S
H1470 N1464 0.984 . S
H1471 N1464 0.984 . S
H1472 N1460 0.984 . S
H1473 N1460 0.985 . S
C1474 C1475 1.363 . S
C1474 C1480 1.379 . S
C1474 N1482 1.356 . S
C1475 C1474 1.363 . S
C1475 C1481 1.363 . S
C1476 C1477 1.363 . S
C1476 C1481 1.379 . S
C1476 N1483 1.356 . S
C1477 C1476 1.363 . S
C1477 C1480 1.363 . S
N1478 C1480 1.356 . S
N1478 H1490 0.984 . S
N1478 H1491 0.985 . S
N1479 C1481 1.356 . S
N1479 H1484 0.984 . S
N1479 H1485 0.985 . S
C1480 C1474 1.379 . S
C1480 C1477 1.363 . S
C1480 N1478 1.356 . S
C1481 C1475 1.363 . S
C1481 C1476 1.379 . S
C1481 N1479 1.356 . S
N1482 C1474 1.356 . S
N1482 H1488 0.984 . S
N1482 H1489 0.984 . S
N1483 C1476 1.356 . S
N1483 H1486 0.984 . S
N1483 H1487 0.985 . S
H1484 N1479 0.984 . S
H1485 N1479 0.985 . S
H1486 N1483 0.984 . S
H1487 N1483 0.985 . S
H1488 N1482 0.984 . S
H1489 N1482 0.984 . S
H1490 N1478 0.984 . S
H1491 N1478 0.985 . S
C1492 C1493 1.363 . S
C1492 C1498 1.379 . S
C1492 N1500 1.356 . S
C1493 C1492 1.363 . S
C1493 C1499 1.363 . S
C1494 C1495 1.363 . S
C1494 C1499 1.379 . S
C1494 N1501 1.356 . S
C1495 C1494 1.363 . S
C1495 C1498 1.363 . S
N1496 C1498 1.356 . S
N1496 H1508 0.984 . S
N1496 H1509 0.985 . S
N1497 C1499 1.356 . S
N1497 H1502 0.984 . S
N1497 H1503 0.985 . S
C1498 C1492 1.379 . S
C1498 C1495 1.363 . S
C1498 N1496 1.356 . S
C1499 C1493 1.363 . S
C1499 C1494 1.379 . S
C1499 N1497 1.356 . S
N1500 C1492 1.356 . S
N1500 H1506 0.984 . S
N1500 H1507 0.984 . S
N1501 C1494 1.356 . S
N1501 H1504 0.984 . S
N1501 H1505 0.985 . S
H1502 N1497 0.984 . S
H1503 N1497 0.985 . S
H1504 N1501 0.984 . S
H1505 N1501 0.985 . S
H1506 N1500 0.984 . S
H1507 N1500 0.984 . S
H1508 N1496 0.984 . S
H1509 N1496 0.985 . S
C1510 C1511 1.363 . S
C1510 C1516 1.379 . S
C1510 N1518 1.356 . S
C1511 C1510 1.363 . S
C1511 C1517 1.363 . S
C1512 C1513 1.363 . S
C1512 C1517 1.379 . S
C1512 N1519 1.356 . S
C1513 C1512 1.363 . S
C1513 C1516 1.363 . S
N1514 C1516 1.356 . S
N1514 H1526 0.984 . S
N1514 H1527 0.985 . S
N1515 C1517 1.356 . S
N1515 H1520 0.984 . S
N1515 H1521 0.985 . S
C1516 C1510 1.379 . S
C1516 C1513 1.363 . S
C1516 N1514 1.356 . S
C1517 C1511 1.363 . S
C1517 C1512 1.379 . S
C1517 N1515 1.356 . S
N1518 C1510 1.356 . S
N1518 H1524 0.984 . S
N1518 H1525 0.984 . S
N1519 C1512 1.356 . S
N1519 H1522 0.984 . S
N1519 H1523 0.985 . S
H1520 N1515 0.984 . S
H1521 N1515 0.985 . S
H1522 N1519 0.984 . S
H1523 N1519 0.985 . S
H1524 N1518 0.984 . S
H1525 N1518 0.984 . S
H1526 N1514 0.984 . S
H1527 N1514 0.985 . S
C1528 C1529 1.363 . S
C1528 C1534 1.379 . S
C1528 N1536 1.356 . S
C1529 C1528 1.363 . S
C1529 C1535 1.363 . S
C1530 C1531 1.363 . S
C1530 C1535 1.379 . S
C1530 N1537 1.356 . S
C1531 C1530 1.363 . S
C1531 C1534 1.363 . S
N1532 C1534 1.356 . S
N1532 H1544 0.984 . S
N1532 H1545 0.985 . S
N1533 C1535 1.356 . S
N1533 H1538 0.984 . S
N1533 H1539 0.985 . S
C1534 C1528 1.379 . S
C1534 C1531 1.363 . S
C1534 N1532 1.356 . S
C1535 C1529 1.363 . S
C1535 C1530 1.379 . S
C1535 N1533 1.356 . S
N1536 C1528 1.356 . S
N1536 H1542 0.984 . S
N1536 H1543 0.984 . S
N1537 C1530 1.356 . S
N1537 H1540 0.984 . S
N1537 H1541 0.985 . S
H1538 N1533 0.984 . S
H1539 N1533 0.985 . S
H1540 N1537 0.984 . S
H1541 N1537 0.985 . S
H1542 N1536 0.984 . S
H1543 N1536 0.984 . S
H1544 N1532 0.984 . S
H1545 N1532 0.985 . S
C1546 C1547 1.363 . S
C1546 C1552 1.379 . S
C1546 N1554 1.356 . S
C1547 C1546 1.363 . S
C1547 C1553 1.363 . S
C1548 C1549 1.363 . S
C1548 C1553 1.379 . S
C1548 N1555 1.356 . S
C1549 C1548 1.363 . S
C1549 C1552 1.363 . S
N1550 C1552 1.356 . S
N1550 H1562 0.984 . S
N1550 H1563 0.985 . S
N1551 C1553 1.356 . S
N1551 H1556 0.984 . S
N1551 H1557 0.985 . S
C1552 C1546 1.379 . S
C1552 C1549 1.363 . S
C1552 N1550 1.356 . S
C1553 C1547 1.363 . S
C1553 C1548 1.379 . S
C1553 N1551 1.356 . S
N1554 C1546 1.356 . S
N1554 H1560 0.984 . S
N1554 H1561 0.984 . S
N1555 C1548 1.356 . S
N1555 H1558 0.984 . S
N1555 H1559 0.985 . S
H1556 N1551 0.984 . S
H1557 N1551 0.985 . S
H1558 N1555 0.984 . S
H1559 N1555 0.985 . S
H1560 N1554 0.984 . S
H1561 N1554 0.984 . S
H1562 N1550 0.984 . S
H1563 N1550 0.985 . S
C1564 C1565 1.363 . S
C1564 C1570 1.379 . S
C1564 N1572 1.356 . S
C1565 C1564 1.363 . S
C1565 C1571 1.363 . S
C1566 C1567 1.363 . S
C1566 C1571 1.379 . S
C1566 N1573 1.356 . S
C1567 C1566 1.363 . S
C1567 C1570 1.363 . S
N1568 C1570 1.356 . S
N1568 H1580 0.984 . S
N1568 H1581 0.985 . S
N1569 C1571 1.356 . S
N1569 H1574 0.984 . S
N1569 H1575 0.985 . S
C1570 C1564 1.379 . S
C1570 C1567 1.363 . S
C1570 N1568 1.356 . S
C1571 C1565 1.363 . S
C1571 C1566 1.379 . S
C1571 N1569 1.356 . S
N1572 C1564 1.356 . S
N1572 H1578 0.984 . S
N1572 H1579 0.984 . S
N1573 C1566 1.356 . S
N1573 H1576 0.984 . S
N1573 H1577 0.985 . S
H1574 N1569 0.984 . S
H1575 N1569 0.985 . S
H1576 N1573 0.984 . S
H1577 N1573 0.985 . S
H1578 N1572 0.984 . S
H1579 N1572 0.984 . S
H1580 N1568 0.984 . S
H1581 N1568 0.985 . S
C1582 C1583 1.363 . S
C1582 C1588 1.379 . S
C1582 N1590 1.356 . S
C1583 C1582 1.363 . S
C1583 C1589 1.363 . S
C1584 C1585 1.363 . S
C1584 C1589 1.379 . S
C1584 N1591 1.356 . S
C1585 C1584 1.363 . S
C1585 C1588 1.363 . S
N1586 C1588 1.356 . S
N1586 H1598 0.984 . S
N1586 H1599 0.985 . S
N1587 C1589 1.356 . S
N1587 H1592 0.984 . S
N1587 H1593 0.985 . S
C1588 C1582 1.379 . S
C1588 C1585 1.363 . S
C1588 N1586 1.356 . S
C1589 C1583 1.363 . S
C1589 C1584 1.379 . S
C1589 N1587 1.356 . S
N1590 C1582 1.356 . S
N1590 H1596 0.984 . S
N1590 H1597 0.984 . S
N1591 C1584 1.356 . S
N1591 H1594 0.984 . S
N1591 H1595 0.985 . S
H1592 N1587 0.984 . S
H1593 N1587 0.985 . S
H1594 N1591 0.984 . S
H1595 N1591 0.985 . S
H1596 N1590 0.984 . S
H1597 N1590 0.984 . S
H1598 N1586 0.984 . S
H1599 N1586 0.985 . S
C449 C410 1.296 . S
C451 C4 1.296 . S
C467 C18 1.296 . S
C469 C424 1.296 . S
C485 C438 1.296 . S
C487 C32 1.296 . S
C503 C396 1.296 . S
C505 C46 1.296 . S
C521 C60 1.296 . S
C523 C382 1.296 . S
C539 C340 1.296 . S
C541 C74 1.296 . S
C557 C88 1.296 . S
C559 C354 1.296 . S
C575 C368 1.296 . S
C577 C102 1.296 . S
C593 C116 1.296 . S
C595 C298 1.296 . S
C611 C130 1.296 . S
C613 C312 1.296 . S
C629 C326 1.296 . S
C631 C144 1.296 . S
C647 C158 1.296 . S
C649 C284 1.296 . S
C665 C270 1.296 . S
C667 C172 1.296 . S
C683 C228 1.296 . S
C685 C186 1.296 . S
C701 C200 1.296 . S
C703 C242 1.296 . S
C719 C214 1.296 . S
C721 C256 1.296 . S
C737 C5 1.305 . S
C739 C145 1.305 . S
C755 C159 1.305 . S
C757 C19 1.305 . S
C773 C117 1.305 . S
C775 C33 1.305 . S
C791 C131 1.305 . S
C793 C47 1.305 . S
C809 C61 1.305 . S
C811 C201 1.305 . S
C827 C215 1.305 . S
C829 C75 1.305 . S
C845 C173 1.305 . S
C847 C89 1.305 . S
C863 C187 1.305 . S
C865 C103 1.305 . S
C881 C229 1.305 . S
C883 C369 1.305 . S
C899 C383 1.305 . S
C901 C243 1.305 . S
C917 C341 1.305 . S
C919 C257 1.305 . S
C935 C271 1.305 . S
C937 C355 1.305 . S
C953 C285 1.305 . S
C955 C425 1.305 . S
C971 C439 1.305 . S
C973 C299 1.305 . S
C989 C397 1.305 . S
C991 C313 1.305 . S
C1007 C327 1.305 . S
C1009 C411 1.305 . S
C1025 C11 1.274 . S
C1027 C67 1.274 . S
C1043 C25 1.274 . S
C1045 C81 1.274 . S
C1061 C95 1.274 . S
C1063 C39 1.274 . S
C1079 C53 1.274 . S
C1081 C109 1.274 . S
C1097 C123 1.274 . S
C1099 C179 1.274 . S
C1115 C193 1.274 . S
C1117 C137 1.274 . S
C1133 C207 1.274 . S
C1135 C151 1.274 . S
C1151 C165 1.274 . S
C1153 C221 1.274 . S
C1169 C235 1.274 . S
C1171 C291 1.274 . S
C1187 C305 1.274 . S
C1189 C249 1.274 . S
C1205 C263 1.274 . S
C1207 C319 1.274 . S
C1223 C333 1.274 . S
C1225 C277 1.274 . S
C1241 C403 1.274 . S
C1243 C347 1.274 . S
C1259 C361 1.274 . S
C1261 C417 1.274 . S
C1277 C375 1.274 . S
C1279 C431 1.274 . S
C1295 C389 1.274 . S
C1297 C445 1.274 . S
C1313 C12 1.527 . S
C1315 C82 1.527 . S
C1331 C26 1.527 . S
C1333 C96 1.527 . S
C1349 C110 1.527 . S
C1351 C40 1.527 . S
C1367 C68 1.527 . S
C1369 C54 1.527 . S
C1385 C194 1.527 . S
C1387 C124 1.527 . S
C1403 C208 1.527 . S
C1405 C138 1.527 . S
C1421 C222 1.527 . S
C1423 C152 1.527 . S
C1439 C166 1.527 . S
C1441 C180 1.527 . S
C1457 C236 1.527 . S
C1459 C306 1.527 . S
C1475 C320 1.527 . S
C1477 C250 1.527 . S
C1493 C334 1.527 . S
C1495 C264 1.527 . S
C1511 C278 1.527 . S
C1513 C292 1.527 . S
C1529 C418 1.527 . S
C1531 C348 1.527 . S
C1547 C362 1.527 . S
C1549 C432 1.527 . S
C1565 C376 1.527 . S
C1567 C446 1.527 . S
C1583 C404 1.527 . S
C1585 C390 1.527 . S
