# Generated by pormake.
# Topology umm, (4)-cn, num edge types: 1
# Building blocks:
#     Node 0, Type 0, BuildingBlock: MUDLON_clean_sbu_0, # of connection points: 4
#     Node 1, Type 0, BuildingBlock: MUDLON_clean_sbu_0, # of connection points: 4
#     Node 2, Type 0, BuildingBlock: MUDLON_clean_sbu_0, # of connection points: 4
#     Node 3, Type 0, BuildingBlock: MUDLON_clean_sbu_0, # of connection points: 4
#     Node 4, Type 0, BuildingBlock: MUDLON_clean_sbu_0, # of connection points: 4
#     Node 5, Type 0, BuildingBlock: MUDLON_clean_sbu_0, # of connection points: 4
#     Node 6, Type 0, BuildingBlock: MUDLON_clean_sbu_0, # of connection points: 4
#     Node 7, Type 0, BuildingBlock: MUDLON_clean_sbu_0, # of connection points: 4
#     Node 8, Type 0, BuildingBlock: MUDLON_clean_sbu_0, # of connection points: 4
#     Node 9, Type 0, BuildingBlock: MUDLON_clean_sbu_0, # of connection points: 4
#     Node 10, Type 0, BuildingBlock: MUDLON_clean_sbu_0, # of connection points: 4
#     Node 11, Type 0, BuildingBlock: MUDLON_clean_sbu_0, # of connection points: 4
#     Edge 12, Type (0, 0), BuildingBlock: ZUJKAS_clean_linker_0, # of connection points: 2
#     Edge 13, Type (0, 0), BuildingBlock: ZUJKAS_clean_linker_0, # of connection points: 2
#     Edge 14, Type (0, 0), BuildingBlock: ZUJKAS_clean_linker_0, # of connection points: 2
#     Edge 15, Type (0, 0), BuildingBlock: ZUJKAS_clean_linker_0, # of connection points: 2
#     Edge 16, Type (0, 0), BuildingBlock: ZUJKAS_clean_linker_0, # of connection points: 2
#     Edge 17, Type (0, 0), BuildingBlock: ZUJKAS_clean_linker_0, # of connection points: 2
#     Edge 18, Type (0, 0), BuildingBlock: ZUJKAS_clean_linker_0, # of connection points: 2
#     Edge 19, Type (0, 0), BuildingBlock: ZUJKAS_clean_linker_0, # of connection points: 2
#     Edge 20, Type (0, 0), BuildingBlock: ZUJKAS_clean_linker_0, # of connection points: 2
#     Edge 21, Type (0, 0), BuildingBlock: ZUJKAS_clean_linker_0, # of connection points: 2
#     Edge 22, Type (0, 0), BuildingBlock: ZUJKAS_clean_linker_0, # of connection points: 2
#     Edge 23, Type (0, 0), BuildingBlock: ZUJKAS_clean_linker_0, # of connection points: 2
#     Edge 24, Type (0, 0), BuildingBlock: ZUJKAS_clean_linker_0, # of connection points: 2
#     Edge 25, Type (0, 0), BuildingBlock: ZUJKAS_clean_linker_0, # of connection points: 2
#     Edge 26, Type (0, 0), BuildingBlock: ZUJKAS_clean_linker_0, # of connection points: 2
#     Edge 27, Type (0, 0), BuildingBlock: ZUJKAS_clean_linker_0, # of connection points: 2
#     Edge 28, Type (0, 0), BuildingBlock: ZUJKAS_clean_linker_0, # of connection points: 2
#     Edge 29, Type (0, 0), BuildingBlock: ZUJKAS_clean_linker_0, # of connection points: 2
#     Edge 30, Type (0, 0), BuildingBlock: ZUJKAS_clean_linker_0, # of connection points: 2
#     Edge 31, Type (0, 0), BuildingBlock: ZUJKAS_clean_linker_0, # of connection points: 2
#     Edge 32, Type (0, 0), BuildingBlock: ZUJKAS_clean_linker_0, # of connection points: 2
#     Edge 33, Type (0, 0), BuildingBlock: ZUJKAS_clean_linker_0, # of connection points: 2
#     Edge 34, Type (0, 0), BuildingBlock: ZUJKAS_clean_linker_0, # of connection points: 2
#     Edge 35, Type (0, 0), BuildingBlock: ZUJKAS_clean_linker_0, # of connection points: 2
# Relax obj value: 0.066
# Max RMSD: 0.172
# Mean RMSD: 0.172
data_MOF--net-umm--node1-MUDLON_clean_sbu_0--edge1-ZUJKAS_clean_linker_0
_symmetry_space_group_name_H-M    P1
_symmetry_Int_Tables_number       1
_symmetry_cell_setting            triclinic
loop_
_symmetry_equiv_pos_as_xyz
'x, y, z'
_cell_length_a     75.565833
_cell_length_b     75.583124
_cell_length_c     38.16171
_cell_angle_alpha  89.991075
_cell_angle_beta   89.984728
_cell_angle_gamma 120.03162
loop_
_atom_site_label
_atom_site_type_symbol
_atom_site_fract_x
_atom_site_fract_y
_atom_site_fract_z
_atom_type_partial_charge
Mg0 Mg 0.40915 0.55329 0.09109 0.0
C1 C 0.44525 0.54878 0.09271 0.0
O2 O 0.45228 0.56859 0.09292 0.0
C3 C 0.36553 0.5423 0.09452 0.0
O4 O 0.37453 0.55846 0.11487 0.0
C5 C 0.40895 0.55652 0.1679 0.0
O6 O 0.39942 0.53674 0.16197 0.0
O7 O 0.4151 0.56859 0.14174 0.0
O8 O 0.42598 0.53683 0.09185 0.0
O9 O 0.42098 0.57335 0.04562 0.0
C10 C 0.41029 0.57957 0.02983 0.0
O11 O 0.39299 0.57611 0.04393 0.0
O12 O 0.37621 0.53503 0.08215 0.0
Mg13 Mg 0.86358 0.40106 0.43109 0.0
C14 C 0.90802 0.42168 0.40411 0.0
O15 O 0.89929 0.41326 0.37416 0.0
C16 C 0.82985 0.35923 0.42491 0.0
O17 O 0.82179 0.36976 0.43772 0.0
C18 C 0.8635 0.42207 0.4988 0.0
O19 O 0.87809 0.4378 0.48201 0.0
O20 O 0.85394 0.40496 0.48309 0.0
O21 O 0.89694 0.41809 0.43124 0.0
O22 O 0.85272 0.41163 0.38742 0.0
C23 C 0.86383 0.4283 0.37117 0.0
O24 O 0.88181 0.44144 0.38408 0.0
O25 O 0.84912 0.36838 0.42039 0.0
Mg26 Mg 0.47132 0.85964 0.76621 0.0
C27 C 0.47591 0.90028 0.76488 0.0
O28 O 0.45648 0.88774 0.77169 0.0
C29 C 0.48353 0.82768 0.76907 0.0
O30 O 0.46831 0.82057 0.79151 0.0
C31 C 0.44438 0.8401 0.83404 0.0
O32 O 0.43097 0.82538 0.81393 0.0
O33 O 0.46065 0.85447 0.82055 0.0
O34 O 0.48756 0.89277 0.76071 0.0
O35 O 0.44858 0.84924 0.72431 0.0
C36 C 0.44357 0.83284 0.70752 0.0
O37 O 0.44943 0.82031 0.71955 0.0
O38 O 0.48964 0.8452 0.75556 0.0
Mg39 Mg 0.62595 0.47277 0.09815 0.0
C40 C 0.59085 0.47851 0.10339 0.0
O41 O 0.5836 0.45869 0.10512 0.0
C42 C 0.66559 0.47683 0.08584 0.0
O43 O 0.65262 0.45719 0.08972 0.0
C44 C 0.63103 0.46341 0.17227 0.0
O45 O 0.6479 0.48095 0.16734 0.0
O46 O 0.61874 0.45536 0.14671 0.0
O47 O 0.61011 0.49019 0.10063 0.0
O48 O 0.61433 0.45446 0.05097 0.0
C49 C 0.61616 0.46543 0.02441 0.0
O50 O 0.62375 0.48516 0.02901 0.0
O51 O 0.65892 0.48921 0.08956 0.0
Mg52 Mg 0.15968 0.61691 0.42061 0.0
C53 C 0.11999 0.58008 0.4113 0.0
O54 O 0.13339 0.57384 0.4114 0.0
C55 C 0.19109 0.66099 0.42638 0.0
O56 O 0.19769 0.65235 0.44866 0.0
C57 C 0.17916 0.60885 0.48774 0.0
O58 O 0.19349 0.60971 0.46711 0.0
O59 O 0.16491 0.61112 0.47477 0.0
O60 O 0.1265 0.59914 0.41452 0.0
O61 O 0.17108 0.60579 0.37817 0.0
C62 C 0.18714 0.61792 0.36115 0.0
O63 O 0.19883 0.63655 0.37302 0.0
O64 O 0.17385 0.64988 0.41169 0.0
Mg65 Mg 0.55283 0.15746 0.75561 0.0
C66 C 0.54778 0.11632 0.74867 0.0
O67 O 0.56709 0.12868 0.74081 0.0
C68 C 0.54054 0.18908 0.75806 0.0
O69 O 0.55649 0.19653 0.77895 0.0
C70 C 0.58048 0.1642 0.82005 0.0
O71 O 0.58839 0.15572 0.80019 0.0
O72 O 0.56677 0.16743 0.80741 0.0
O73 O 0.53665 0.12407 0.75607 0.0
O74 O 0.57314 0.16601 0.71023 0.0
C75 C 0.5771 0.18151 0.69153 0.0
O76 O 0.57172 0.19451 0.70299 0.0
O77 O 0.53389 0.17126 0.74545 0.0
Mg78 Mg 0.47273 0.61805 0.60063 0.0
C79 C 0.47778 0.58233 0.59412 0.0
O80 O 0.4582 0.57544 0.58903 0.0
C81 C 0.48352 0.66166 0.59731 0.0
O82 O 0.46729 0.6526 0.57712 0.0
C83 C 0.46942 0.61946 0.52375 0.0
O84 O 0.48917 0.63047 0.52959 0.0
O85 O 0.45747 0.612 0.54991 0.0
O86 O 0.48935 0.60135 0.59997 0.0
O87 O 0.45252 0.60616 0.64597 0.0
C88 C 0.44667 0.61713 0.6619 0.0
O89 O 0.45061 0.6346 0.64796 0.0
O90 O 0.49091 0.65103 0.60949 0.0
Mg91 Mg 0.86927 0.47122 0.93833 0.0
C92 C 0.91026 0.47594 0.94996 0.0
O93 O 0.8978 0.45761 0.9624 0.0
C94 C 0.83977 0.48651 0.93326 0.0
O95 O 0.83255 0.47189 0.90968 0.0
C96 C 0.86578 0.44639 0.87252 0.0
O97 O 0.8788 0.44298 0.88984 0.0
O98 O 0.85862 0.45659 0.8872 0.0
O99 O 0.90267 0.48641 0.93786 0.0
O100 O 0.85959 0.45115 0.9841 0.0
C101 C 0.8441 0.44799 1.00212 0.0
O102 O 0.8319 0.4542 0.98983 0.0
O103 O 0.85665 0.49121 0.94812 0.0
Mg104 Mg 0.40703 0.85937 0.27612 0.0
C105 C 0.44304 0.9002 0.28901 0.0
O106 O 0.44915 0.88745 0.29876 0.0
C107 C 0.36307 0.82804 0.27014 0.0
O108 O 0.37206 0.82067 0.25025 0.0
C109 C 0.42676 0.86194 0.20508 0.0
O110 O 0.43942 0.88039 0.21679 0.0
O111 O 0.41237 0.84945 0.22499 0.0
O112 O 0.42477 0.89285 0.27797 0.0
O113 O 0.41692 0.84938 0.3223 0.0
C114 C 0.40474 0.83338 0.33942 0.0
O115 O 0.3866 0.82093 0.32637 0.0
O116 O 0.37398 0.84575 0.28335 0.0
Mg117 Mg 0.55298 0.40088 0.5993 0.0
C118 C 0.54835 0.43693 0.59902 0.0
O119 O 0.56813 0.44395 0.60078 0.0
C120 C 0.54312 0.35771 0.59568 0.0
O121 O 0.56061 0.36758 0.57887 0.0
C122 C 0.55925 0.39963 0.52282 0.0
O123 O 0.53945 0.38735 0.52627 0.0
O124 O 0.56985 0.40782 0.55017 0.0
O125 O 0.53643 0.41765 0.59779 0.0
O126 O 0.57228 0.41262 0.6457 0.0
C127 C 0.5751 0.40099 0.66623 0.0
O128 O 0.56811 0.38185 0.65728 0.0
O129 O 0.53471 0.36774 0.60617 0.0
Mg130 Mg 0.16748 0.55568 0.92954 0.0
C131 C 0.12371 0.53658 0.95501 0.0
O132 O 0.13327 0.54391 0.98485 0.0
C133 C 0.20013 0.5446 0.9264 0.0
O134 O 0.20755 0.56088 0.90629 0.0
C135 C 0.16529 0.57441 0.86062 0.0
O136 O 0.14777 0.5704 0.87458 0.0
O137 O 0.17744 0.57098 0.87864 0.0
O138 O 0.13414 0.53807 0.92783 0.0
O139 O 0.17527 0.57554 0.97554 0.0
C140 C 0.19117 0.58004 0.99353 0.0
O141 O 0.20441 0.57517 0.9813 0.0
O142 O 0.18215 0.53744 0.93862 0.0
Mg143 Mg 0.62059 0.15712 0.26217 0.0
C144 C 0.59943 0.11272 0.28923 0.0
O145 O 0.60717 0.12155 0.31945 0.0
C146 C 0.66223 0.19102 0.26823 0.0
O147 O 0.65142 0.19893 0.2561 0.0
C148 C 0.60018 0.1562 0.19324 0.0
O149 O 0.58527 0.13983 0.20811 0.0
O150 O 0.61649 0.16711 0.21057 0.0
O151 O 0.60365 0.12373 0.26186 0.0
O152 O 0.61038 0.16798 0.30635 0.0
C153 C 0.59366 0.15725 0.3227 0.0
O154 O 0.58004 0.13948 0.30974 0.0
O155 O 0.65335 0.17173 0.27232 0.0
H156 H 0.39848 0.53401 0.22794 0.0
H157 H 0.40692 0.5462 0.28813 0.0
H158 H 0.43764 0.60852 0.25149 0.0
H159 H 0.42917 0.59642 0.19078 0.0
H160 H 0.44698 0.57045 0.31397 0.0
H161 H 0.4004 0.60797 0.33227 0.0
H162 H 0.39546 0.58975 0.29768 0.0
H163 H 0.41633 0.61549 0.29385 0.0
C164 C 0.40688 0.55033 0.23255 0.0
C165 C 0.41318 0.56424 0.20446 0.0
C166 C 0.41167 0.55726 0.26705 0.0
C167 C 0.42274 0.57825 0.27434 0.0
C168 C 0.4288 0.59225 0.24648 0.0
H169 H 0.49158 0.63348 0.46352 0.0
H170 H 0.47966 0.62412 0.40331 0.0
C171 C 0.42404 0.58531 0.21181 0.0
C172 C 0.42898 0.58524 0.31094 0.0
H173 H 0.42318 0.61177 0.37826 0.0
C174 C 0.44177 0.57948 0.32802 0.0
C175 C 0.42199 0.59684 0.32931 0.0
C176 C 0.40765 0.60278 0.31256 0.0
C177 C 0.44795 0.58518 0.36284 0.0
C178 C 0.44133 0.59714 0.38101 0.0
C179 C 0.42832 0.6027 0.36416 0.0
C180 C 0.44804 0.60407 0.41745 0.0
C181 C 0.46135 0.57817 0.3801 0.0
C182 C 0.43406 0.59636 0.44535 0.0
C183 C 0.44083 0.60168 0.48 0.0
C184 C 0.46168 0.61489 0.48722 0.0
C185 C 0.47545 0.62315 0.459 0.0
C186 C 0.46869 0.6178 0.42451 0.0
H187 H 0.46134 0.56546 0.36544 0.0
H188 H 0.4773 0.59111 0.3811 0.0
H189 H 0.45626 0.57305 0.4074 0.0
H190 H 0.41803 0.58577 0.44038 0.0
H191 H 0.42982 0.5951 0.5011 0.0
H192 H 0.87969 0.45665 0.53898 0.0
H193 H 0.87694 0.45903 0.60241 0.0
H194 H 0.83737 0.39371 0.60831 0.0
H195 H 0.83966 0.39122 0.54465 0.0
H196 H 0.82463 0.41424 0.65189 0.0
H197 H 0.90727 0.44249 0.67069 0.0
H198 H 0.90231 0.45809 0.64145 0.0
H199 H 0.89446 0.43215 0.62957 0.0
C200 C 0.87024 0.44279 0.55367 0.0
C201 C 0.86006 0.42371 0.53671 0.0
C202 C 0.86879 0.44416 0.59001 0.0
C203 C 0.85735 0.42649 0.61027 0.0
C204 C 0.84642 0.40753 0.59327 0.0
H205 H 0.87675 0.42275 0.83435 0.0
H206 H 0.87267 0.41601 0.77137 0.0
C207 C 0.84775 0.40615 0.55684 0.0
C208 C 0.85734 0.42774 0.6492 0.0
H209 H 0.88897 0.44361 0.72039 0.0
C210 C 0.83868 0.42059 0.66692 0.0
C211 C 0.87562 0.43566 0.66889 0.0
C212 C 0.89603 0.44234 0.65175 0.0
C213 C 0.83788 0.42158 0.70368 0.0
C214 C 0.85628 0.43031 0.72322 0.0
C215 C 0.87486 0.43707 0.70549 0.0
C216 C 0.8568 0.43274 0.76202 0.0
C217 C 0.8173 0.41294 0.72122 0.0
C218 C 0.84904 0.44421 0.77796 0.0
C219 C 0.85119 0.44794 0.8141 0.0
C220 C 0.86143 0.44053 0.83501 0.0
C221 C 0.8688 0.4287 0.81909 0.0
C222 C 0.86651 0.42486 0.78302 0.0
H223 H 0.80486 0.40148 0.70433 0.0
H224 H 0.81699 0.40563 0.74663 0.0
H225 H 0.81405 0.42549 0.72629 0.0
H226 H 0.84192 0.45088 0.76231 0.0
H227 H 0.84546 0.45724 0.82542 0.0
H228 H 0.46848 0.86925 0.88168 0.0
H229 H 0.4631 0.86965 0.94463 0.0
H230 H 0.40711 0.81182 0.93681 0.0
H231 H 0.41245 0.81118 0.87348 0.0
H232 H 0.42945 0.86867 0.97857 0.0
H233 H 0.4383 0.80253 0.01713 0.0
H234 H 0.44678 0.81508 0.9752 0.0
H235 H 0.42008 0.79793 0.98302 0.0
C236 C 0.45503 0.85653 0.89323 0.0
C237 C 0.44091 0.84014 0.87241 0.0
C238 C 0.45198 0.85681 0.9293 0.0
C239 C 0.43484 0.84067 0.94555 0.0
C240 C 0.42064 0.82428 0.92494 0.0
H241 H 0.40005 0.82737 0.16836 0.0
H242 H 0.40084 0.82097 0.10544 0.0
C243 C 0.42365 0.824 0.8887 0.0
C244 C 0.43173 0.84154 0.98387 0.0
H245 H 0.43066 0.81904 0.06224 0.0
C246 C 0.42964 0.85777 0.99684 0.0
C247 C 0.43184 0.82722 1.00768 0.0
C248 C 0.43451 0.80976 0.99526 0.0
C249 C 0.42789 0.86024 0.03291 0.0
C250 C 0.42867 0.84633 0.05684 0.0
C251 C 0.43016 0.82973 0.04388 0.0
C252 C 0.4288 0.84937 0.09538 0.0
C253 C 0.42514 0.87771 0.04507 0.0
C254 C 0.44459 0.86713 0.11081 0.0
C255 C 0.44419 0.87083 0.14661 0.0
C256 C 0.42805 0.85677 0.16793 0.0
C257 C 0.41268 0.83854 0.15272 0.0
C258 C 0.41309 0.83486 0.11676 0.0
H259 H 0.41902 0.88321 0.02384 0.0
H260 H 0.41463 0.87317 0.06789 0.0
H261 H 0.44018 0.89066 0.05314 0.0
H262 H 0.45711 0.87833 0.09501 0.0
H263 H 0.45638 0.88494 0.1574 0.0
H264 H 0.59479 0.43079 0.19451 0.0
H265 H 0.58486 0.41873 0.25482 0.0
H266 H 0.64489 0.46362 0.29092 0.0
H267 H 0.65486 0.47597 0.23097 0.0
H268 H 0.60125 0.40365 0.30547 0.0
H269 H 0.60702 0.47661 0.34828 0.0
H270 H 0.60706 0.47028 0.3027 0.0
H271 H 0.62984 0.47934 0.3286 0.0
C272 C 0.60594 0.43798 0.21523 0.0
C273 C 0.62555 0.4545 0.20795 0.0
C274 C 0.60024 0.43107 0.24969 0.0
C275 C 0.614 0.44056 0.27743 0.0
C276 C 0.63388 0.45639 0.27002 0.0
H277 H 0.59894 0.42719 0.5049 0.0
H278 H 0.6135 0.43624 0.44576 0.0
C279 C 0.63957 0.46336 0.23567 0.0
C280 C 0.60739 0.43435 0.31421 0.0
H281 H 0.60002 0.45193 0.39219 0.0
C282 C 0.60098 0.41419 0.32446 0.0
C283 C 0.60708 0.44815 0.33895 0.0
C284 C 0.61293 0.46975 0.32912 0.0
C285 C 0.59437 0.40749 0.35887 0.0
C286 C 0.59388 0.42124 0.38348 0.0
C287 C 0.60052 0.44146 0.37333 0.0
C288 C 0.58554 0.41476 0.41938 0.0
C289 C 0.58816 0.38581 0.36867 0.0
C290 C 0.565 0.39975 0.42414 0.0
C291 C 0.55665 0.39459 0.45779 0.0
C292 C 0.56864 0.40442 0.48744 0.0
C293 C 0.58931 0.41929 0.48265 0.0
C294 C 0.59764 0.42449 0.44889 0.0
H295 H 0.59487 0.37923 0.35054 0.0
H296 H 0.59294 0.38497 0.39585 0.0
H297 H 0.57128 0.37621 0.36715 0.0
H298 H 0.55525 0.39236 0.40175 0.0
H299 H 0.54066 0.38311 0.46047 0.0
H300 H 0.15144 0.60586 0.53683 0.0
H301 H 0.15201 0.60095 0.59991 0.0
H302 H 0.20806 0.59948 0.58929 0.0
H303 H 0.20776 0.60463 0.52587 0.0
H304 H 0.15148 0.56833 0.63506 0.0
H305 H 0.22153 0.64162 0.66776 0.0
H306 H 0.20844 0.63742 0.62637 0.0
H307 H 0.22446 0.62656 0.63427 0.0
C308 C 0.16397 0.60457 0.54779 0.0
C309 C 0.1796 0.6057 0.52616 0.0
C310 C 0.16425 0.60176 0.58395 0.0
C311 C 0.1802 0.60012 0.59946 0.0
C312 C 0.19579 0.6011 0.57802 0.0
H313 H 0.19771 0.57945 0.82029 0.0
H314 H 0.20234 0.58584 0.75697 0.0
C315 C 0.19552 0.60391 0.54171 0.0
C316 C 0.17997 0.59675 0.63794 0.0
H317 H 0.2054 0.61832 0.71428 0.0
C318 C 0.1633 0.57925 0.65235 0.0
C319 C 0.19546 0.61094 0.6605 0.0
C320 C 0.21343 0.63029 0.64662 0.0
C321 C 0.1616 0.57561 0.68863 0.0
C322 C 0.17679 0.59005 0.7113 0.0
C323 C 0.19374 0.60731 0.69689 0.0
C324 C 0.17489 0.58767 0.75006 0.0
C325 C 0.14358 0.55621 0.70234 0.0
C326 C 0.1583 0.58725 0.76739 0.0
C327 C 0.15561 0.58362 0.80346 0.0
C328 C 0.16954 0.58046 0.82313 0.0
C329 C 0.18666 0.58177 0.80597 0.0
C330 C 0.18933 0.5854 0.76976 0.0
H331 H 0.13661 0.54436 0.6816 0.0
H332 H 0.14814 0.54987 0.72456 0.0
H333 H 0.13172 0.55962 0.71183 0.0
H334 H 0.14721 0.58941 0.75287 0.0
H335 H 0.14234 0.58288 0.81577 0.0
H336 H 0.56728 0.13633 0.14961 0.0
H337 H 0.56599 0.14092 0.08648 0.0
H338 H 0.62872 0.18977 0.08796 0.0
H339 H 0.63008 0.18552 0.15139 0.0
H340 H 0.60396 0.19816 0.0449 0.0
H341 H 0.59338 0.12158 0.01608 0.0
H342 H 0.57451 0.12086 0.04553 0.0
H343 H 0.60089 0.13329 0.05875 0.0
C344 C 0.58078 0.14818 0.13664 0.0
C345 C 0.59885 0.16042 0.15559 0.0
C346 C 0.58005 0.15069 0.10045 0.0
C347 C 0.5974 0.16537 0.08233 0.0
C348 C 0.61519 0.17823 0.10135 0.0
H349 H 0.60925 0.15937 0.85575 0.0
H350 H 0.61539 0.16198 0.91897 0.0
C351 C 0.61593 0.17578 0.13763 0.0
C352 C 0.59707 0.16687 0.04349 0.0
H353 H 0.58859 0.13907 0.96853 0.0
C354 C 0.60071 0.18529 0.02815 0.0
C355 C 0.59322 0.1502 0.02159 0.0
C356 C 0.59048 0.13043 0.03624 0.0
C357 C 0.6 0.18728 0.99157 0.0
C358 C 0.59519 0.17028 0.96979 0.0
C359 C 0.59212 0.15206 0.98515 0.0
C360 C 0.59286 0.17077 0.9311 0.0
C361 C 0.60466 0.20764 0.97664 0.0
C362 C 0.57829 0.17502 0.9167 0.0
C363 C 0.57484 0.17367 0.8805 0.0
C364 C 0.58571 0.16778 0.85791 0.0
C365 C 0.6006 0.16395 0.87232 0.0
C366 C 0.60411 0.1654 0.90851 0.0
H367 H 0.61407 0.22035 0.99497 0.0
H368 H 0.61286 0.2107 0.95124 0.0
H369 H 0.59011 0.20757 0.97217 0.0
H370 H 0.56905 0.17871 0.93355 0.0
H371 H 0.56316 0.1766 0.87039 0.0
H372 H 0.34098 0.50877 0.05359 0.0
H373 H 0.30849 0.50068 0.02581 0.0
H374 H 0.31141 0.55344 0.07511 0.0
H375 H 0.34306 0.56097 0.10404 0.0
H376 H 0.27369 0.52344 0.0751 0.0
H377 H 0.30547 0.53004 0.94128 0.0
H378 H 0.3051 0.5102 0.96763 0.0
H379 H 0.32115 0.53654 0.97997 0.0
C380 C 0.3345 0.51845 0.05887 0.0
C381 C 0.34473 0.53561 0.08083 0.0
C382 C 0.31603 0.51393 0.04269 0.0
C383 C 0.30771 0.52675 0.04756 0.0
C384 C 0.31748 0.54333 0.07073 0.0
H385 H 0.24129 0.56275 0.91721 0.0
H386 H 0.26493 0.55445 0.94589 0.0
C387 C 0.33567 0.54764 0.08728 0.0
C388 C 0.28939 0.52377 0.02782 0.0
H389 H 0.27192 0.52393 0.94528 0.0
C390 C 0.27321 0.52336 0.04669 0.0
C391 C 0.2888 0.52381 0.9907 0.0
C392 C 0.30611 0.52535 0.96863 0.0
C393 C 0.25706 0.52404 0.02969 0.0
C394 C 0.25657 0.52428 0.99257 0.0
C395 C 0.27222 0.52364 0.97369 0.0
C396 C 0.24153 0.52775 0.97291 0.0
C397 C 0.24144 0.52583 0.05179 0.0
C398 C 0.22031 0.51519 0.97756 0.0
C399 C 0.20665 0.52015 0.96153 0.0
C400 C 0.21395 0.53751 0.93994 0.0
C401 C 0.23508 0.54929 0.93369 0.0
C402 C 0.24868 0.54453 0.9501 0.0
H403 H 0.24674 0.53028 0.07922 0.0
H404 H 0.23794 0.5373 0.04065 0.0
H405 H 0.2271 0.51083 0.05254 0.0
H406 H 0.21433 0.5018 0.99416 0.0
H407 H 0.19044 0.51065 0.96664 0.0
H408 H 0.84003 0.33386 0.38898 0.0
H409 H 0.81638 0.30044 0.36299 0.0
H410 H 0.76527 0.30388 0.40539 0.0
H411 H 0.78857 0.33667 0.43199 0.0
H412 H 0.7596 0.26562 0.4111 0.0
H413 H 0.78359 0.29516 0.27547 0.0
H414 H 0.80327 0.2967 0.30387 0.0
H415 H 0.79154 0.31182 0.31308 0.0
C416 C 0.82376 0.32733 0.39313 0.0
C417 C 0.81621 0.33806 0.41229 0.0
C418 C 0.81025 0.3083 0.37803 0.0
C419 C 0.789 0.29981 0.38164 0.0
C420 C 0.78157 0.31011 0.4021 0.0
H421 H 0.68424 0.23235 0.26186 0.0
H422 H 0.71703 0.25586 0.28821 0.0
C423 C 0.79497 0.32895 0.41724 0.0
C424 C 0.77412 0.28081 0.363 0.0
H425 H 0.75547 0.2622 0.28141 0.0
C426 C 0.75887 0.26468 0.38272 0.0
C427 C 0.77313 0.27967 0.32595 0.0
C428 C 0.78863 0.29677 0.30322 0.0
C429 C 0.74205 0.24805 0.36655 0.0
C430 C 0.7407 0.24726 0.32951 0.0
C431 C 0.75658 0.26279 0.30977 0.0
C432 C 0.72169 0.23229 0.31101 0.0
C433 C 0.72522 0.23224 0.38933 0.0
C434 C 0.71351 0.21105 0.31416 0.0
C435 C 0.69448 0.19742 0.2992 0.0
C436 C 0.68342 0.20483 0.28065 0.0
C437 C 0.69221 0.22606 0.27614 0.0
C438 C 0.71106 0.23958 0.29114 0.0
H439 H 0.72692 0.2371 0.41719 0.0
H440 H 0.71002 0.22913 0.37989 0.0
H441 H 0.72557 0.21776 0.38815 0.0
H442 H 0.72163 0.20504 0.32873 0.0
H443 H 0.6882 0.18116 0.303 0.0
H444 H 0.51597 0.837 0.72509 0.0
H445 H 0.52414 0.81291 0.69645 0.0
H446 H 0.47375 0.76285 0.75032 0.0
H447 H 0.46621 0.78674 0.78011 0.0
H448 H 0.50427 0.7561 0.7472 0.0
H449 H 0.49293 0.77906 0.61455 0.0
H450 H 0.51325 0.79925 0.63905 0.0
H451 H 0.48725 0.7884 0.65392 0.0
C452 C 0.50684 0.82088 0.73117 0.0
C453 C 0.49033 0.8138 0.75469 0.0
C454 C 0.5114 0.80709 0.7145 0.0
C455 C 0.49923 0.78594 0.72042 0.0
C456 C 0.48335 0.77903 0.7451 0.0
H457 H 0.46395 0.6834 0.59003 0.0
H458 H 0.4715 0.71498 0.6192 0.0
C459 C 0.47903 0.79277 0.76215 0.0
C460 C 0.50217 0.77071 0.70023 0.0
H461 H 0.50073 0.75272 0.61751 0.0
C462 C 0.50365 0.75544 0.7188 0.0
C463 C 0.50121 0.76973 0.66314 0.0
C464 C 0.49838 0.78485 0.64145 0.0
C465 C 0.50322 0.73877 0.7016 0.0
C466 C 0.50214 0.73774 0.66451 0.0
C467 C 0.50167 0.75353 0.64588 0.0
C468 C 0.49899 0.71934 0.64477 0.0
C469 C 0.50262 0.72186 0.72357 0.0
C470 C 0.5122 0.71138 0.64848 0.0
C471 C 0.50766 0.69293 0.63219 0.0
C472 C 0.49009 0.68238 0.61122 0.0
C473 C 0.47761 0.69105 0.60596 0.0
C474 C 0.48194 0.7092 0.62267 0.0
H475 H 0.49855 0.72267 0.75128 0.0
H476 H 0.49137 0.70662 0.71298 0.0
H477 H 0.51793 0.72322 0.72338 0.0
H478 H 0.52581 0.7192 0.66447 0.0
H479 H 0.51767 0.68674 0.63654 0.0
H480 H 0.69684 0.51599 0.07159 0.0
H481 H 0.7312 0.52607 0.04952 0.0
H482 H 0.7163 0.46304 0.05182 0.0
H483 H 0.68253 0.45301 0.07449 0.0
H484 H 0.7542 0.48811 0.07714 0.0
H485 H 0.74376 0.51736 0.94951 0.0
H486 H 0.74089 0.52931 0.98811 0.0
H487 H 0.7228 0.50295 0.97923 0.0
C488 C 0.701 0.50434 0.06762 0.0
C489 C 0.68687 0.48368 0.07464 0.0
C490 C 0.72057 0.5101 0.05476 0.0
C491 C 0.72625 0.49527 0.04847 0.0
C492 C 0.71232 0.47477 0.05639 0.0
H493 H 0.80157 0.47632 0.91091 0.0
H494 H 0.77697 0.48313 0.94014 0.0
C495 C 0.69292 0.46905 0.06932 0.0
C496 C 0.74637 0.50053 0.03297 0.0
H497 H 0.77398 0.51621 0.957 0.0
C498 C 0.75871 0.49455 0.05106 0.0
C499 C 0.75216 0.50881 0.99884 0.0
C500 C 0.7392 0.51486 0.97755 0.0
C501 C 0.77603 0.49557 0.03539 0.0
C502 C 0.78156 0.5034 1.00091 0.0
C503 C 0.7698 0.51035 0.98347 0.0
C504 C 0.79773 0.50197 0.98097 0.0
C505 C 0.78738 0.48697 0.05507 0.0
C506 C 0.81794 0.51096 0.9933 0.0
C507 C 0.8321 0.50689 0.97674 0.0
C508 C 0.82634 0.49396 0.94731 0.0
C509 C 0.80654 0.48623 0.93363 0.0
C510 C 0.79241 0.49015 0.95031 0.0
H511 H 0.77864 0.47776 0.07813 0.0
H512 H 0.79069 0.47719 0.03773 0.0
H513 H 0.80213 0.49973 0.06466 0.0
H514 H 0.82258 0.52057 0.01639 0.0
H515 H 0.84727 0.51322 0.98782 0.0
H516 H 0.183 0.68533 0.38311 0.0
H517 H 0.20794 0.7182 0.35704 0.0
H518 H 0.25651 0.71601 0.41268 0.0
H519 H 0.23178 0.68404 0.43999 0.0
H520 H 0.26392 0.75333 0.41183 0.0
H521 H 0.24323 0.72272 0.27645 0.0
H522 H 0.22282 0.72271 0.30047 0.0
H523 H 0.23281 0.70668 0.31451 0.0
C524 C 0.19897 0.69205 0.39013 0.0
C525 C 0.20538 0.68195 0.41344 0.0
C526 C 0.21326 0.71075 0.37492 0.0
C527 C 0.23426 0.7194 0.38207 0.0
C528 C 0.24047 0.70971 0.40652 0.0
H529 H 0.33999 0.78704 0.25966 0.0
H530 H 0.30733 0.76329 0.28608 0.0
C531 C 0.22623 0.69133 0.42216 0.0
C532 C 0.2501 0.738 0.36345 0.0
H533 H 0.27022 0.75636 0.28242 0.0
C534 C 0.26521 0.75407 0.3835 0.0
C535 C 0.2519 0.73896 0.32643 0.0
C536 C 0.23696 0.7218 0.30316 0.0
C537 C 0.28253 0.77043 0.36786 0.0
C538 C 0.28443 0.77129 0.33086 0.0
C539 C 0.26876 0.75579 0.31074 0.0
C540 C 0.30357 0.7865 0.31271 0.0
C541 C 0.29919 0.78585 0.39138 0.0
C542 C 0.31229 0.80769 0.31793 0.0
C543 C 0.33138 0.82143 0.30325 0.0
C544 C 0.34183 0.81425 0.2824 0.0
C545 C 0.33245 0.79317 0.27558 0.0
C546 C 0.31367 0.7795 0.2907 0.0
H547 H 0.29752 0.78026 0.41879 0.0
H548 H 0.31453 0.78955 0.38171 0.0
H549 H 0.29844 0.80013 0.39179 0.0
H550 H 0.30456 0.81359 0.33387 0.0
H551 H 0.3381 0.83759 0.30876 0.0
H552 H 0.5079 0.17962 0.71443 0.0
H553 H 0.49926 0.20364 0.68674 0.0
H554 H 0.54921 0.25361 0.74149 0.0
H555 H 0.55723 0.22982 0.77025 0.0
H556 H 0.51798 0.25958 0.73915 0.0
H557 H 0.53065 0.23865 0.60559 0.0
H558 H 0.51046 0.21814 0.62983 0.0
H559 H 0.53647 0.22914 0.64461 0.0
C560 C 0.51681 0.1957 0.72092 0.0
C561 C 0.53337 0.20279 0.74433 0.0
C562 C 0.51199 0.20945 0.70481 0.0
C563 C 0.52391 0.23056 0.71127 0.0
C564 C 0.5398 0.23745 0.73588 0.0
H565 H 0.56237 0.33566 0.58833 0.0
H566 H 0.55343 0.30308 0.61512 0.0
C567 C 0.54441 0.22376 0.75232 0.0
C568 C 0.52079 0.24584 0.69165 0.0
H569 H 0.52348 0.26534 0.60975 0.0
C570 C 0.51897 0.26074 0.71081 0.0
C571 C 0.5222 0.24743 0.65463 0.0
C572 C 0.52523 0.23262 0.6324 0.0
C573 C 0.51967 0.27771 0.69432 0.0
C574 C 0.52141 0.27946 0.65734 0.0
C575 C 0.52206 0.26397 0.63804 0.0
C576 C 0.52531 0.2984 0.6386 0.0
C577 C 0.51991 0.29421 0.71696 0.0
C578 C 0.51221 0.30651 0.64187 0.0
C579 C 0.51751 0.3255 0.62693 0.0
C580 C 0.5358 0.3365 0.60786 0.0
C581 C 0.5482 0.3277 0.60291 0.0
C582 C 0.54307 0.30897 0.61822 0.0
H583 H 0.52314 0.29268 0.74486 0.0
H584 H 0.5316 0.30962 0.70764 0.0
H585 H 0.50473 0.29313 0.71573 0.0
H586 H 0.49811 0.29839 0.65658 0.0
H587 H 0.50754 0.33177 0.63098 0.0
H588 H 0.48682 0.57117 0.09064 0.0
H589 H 0.51117 0.55897 0.09228 0.0
H590 H 0.46144 0.4968 0.09927 0.0
H591 H 0.43678 0.50891 0.09702 0.0
H592 H 0.51739 0.53729 0.14356 0.0
H593 H 0.4952 0.49372 0.01873 0.0
H594 H 0.48683 0.51154 0.03025 0.0
H595 H 0.47451 0.48635 0.04909 0.0
C596 C 0.48097 0.55486 0.09237 0.0
C597 C 0.4598 0.541 0.09354 0.0
C598 C 0.49496 0.54793 0.09336 0.0
C599 C 0.48817 0.52697 0.09545 0.0
C600 C 0.46704 0.51303 0.09692 0.0
H601 H 0.5494 0.4566 0.10921 0.0
H602 H 0.52528 0.46907 0.10805 0.0
C603 C 0.45297 0.51997 0.09582 0.0
C604 C 0.50334 0.51994 0.0968 0.0
H605 H 0.51928 0.49065 0.05416 0.0
C606 C 0.51785 0.52714 0.12394 0.0
C607 C 0.50398 0.50676 0.07113 0.0
C608 C 0.48943 0.49926 0.04045 0.0
C609 C 0.53274 0.52125 0.12647 0.0
C610 C 0.53332 0.50802 0.10087 0.0
C611 C 0.51883 0.50082 0.07372 0.0
C612 C 0.54839 0.50088 0.10235 0.0
C613 C 0.54742 0.52883 0.15694 0.0
C614 C 0.56949 0.51464 0.09942 0.0
C615 C 0.58345 0.50754 0.1001 0.0
C616 C 0.5765 0.48654 0.10357 0.0
C617 C 0.55534 0.47288 0.10653 0.0
C618 C 0.54147 0.47996 0.10582 0.0
H619 H 0.54206 0.53498 0.17834 0.0
H620 H 0.5496 0.5164 0.16771 0.0
H621 H 0.5625 0.54129 0.14784 0.0
H622 H 0.57514 0.53084 0.09612 0.0
H623 H 0.59961 0.51845 0.09757 0.0
H624 H 0.9362 0.43379 0.35106 0.0
H625 H 0.97206 0.46096 0.35258 0.0
H626 H 0.9655 0.4725 0.46111 0.0
H627 H 0.92981 0.44516 0.46006 0.0
H628 H 0.9881 0.50195 0.36638 0.0
H629 H 0.01638 0.46733 0.46357 0.0
H630 H 0.99182 0.45293 0.4425 0.0
H631 H 0.99505 0.46945 0.47882 0.0
C632 C 0.94244 0.44193 0.37539 0.0
C633 C 0.93013 0.43716 0.4055 0.0
C634 C 0.96293 0.45753 0.37616 0.0
C635 C 0.97156 0.46864 0.40706 0.0
C636 C 0.95933 0.46388 0.43717 0.0
H637 H 0.08696 0.58583 0.41993 0.0
H638 H 0.05059 0.55955 0.41863 0.0
C639 C 0.93887 0.44825 0.43647 0.0
C640 C 0.9932 0.48551 0.40753 0.0
H641 H 0.03914 0.50183 0.4479 0.0
C642 C 0.99929 0.50192 0.38415 0.0
C643 C 1.00782 0.48539 0.43054 0.0
C644 C 1.00254 0.46775 0.45506 0.0
C645 C 0.01957 0.51824 0.38324 0.0
C646 C 0.03408 0.51832 0.40677 0.0
C647 C 0.02798 0.50188 0.43009 0.0
C648 C 0.05596 0.53464 0.40646 0.0
C649 C 0.0254 0.53496 0.35648 0.0
C650 C 0.07107 0.52939 0.40051 0.0
C651 C 0.09174 0.54426 0.40156 0.0
C652 C 0.09787 0.56481 0.40863 0.0
C653 C 0.08274 0.57017 0.41419 0.0
C654 C 0.06195 0.55518 0.4133 0.0
H655 H 1.01392 0.53018 0.33511 0.0
H656 H 0.02637 0.54854 0.3695 0.0
H657 H 0.04054 0.53955 0.34475 0.0
H658 H 0.06685 0.51368 0.39517 0.0
H659 H 0.10293 0.53955 0.39704 0.0
H660 H 0.50858 0.08551 0.76305 0.0
H661 H 0.49619 0.04864 0.76591 0.0
H662 H 0.55641 0.05984 0.73945 0.0
H663 H 0.56889 0.09642 0.7367 0.0
H664 H 0.4975 0.02253 0.71212 0.0
H665 H 0.54203 0.02531 0.82976 0.0
H666 H 0.53778 0.04601 0.81781 0.0
H667 H 0.55692 0.04275 0.79552 0.0
C668 C 0.51917 0.0801 0.75789 0.0
C669 C 0.53975 0.09395 0.74982 0.0
C670 C 0.51207 0.05906 0.75952 0.0
C671 C 0.52548 0.05156 0.75345 0.0
C672 C 0.5459 0.06532 0.7449 0.0
H673 H 0.51516 0.93128 0.75161 0.0
H674 H 0.52724 0.96803 0.74752 0.0
C675 C 0.55297 0.08626 0.74316 0.0
C676 C 0.51818 0.02935 0.75538 0.0
H677 H 0.5255 0.99392 0.79862 0.0
C678 C 0.5035 0.01623 0.73116 0.0
C679 C 0.52618 0.02121 0.78008 0.0
C680 C 0.54147 0.03449 0.8075 0.0
C681 C 0.49685 0.99522 0.73058 0.0
C682 C 0.50481 0.98707 0.75533 0.0
C683 C 0.5195 1.00021 0.77956 0.0
C684 C 0.49757 0.96485 0.75731 0.0
C685 C 0.48167 0.98202 0.70296 0.0
C686 C 0.477 0.95095 0.76465 0.0
C687 C 0.47009 0.93006 0.76698 0.0
C688 C 0.48364 0.92256 0.76226 0.0
C689 C 0.50433 0.93653 0.75526 0.0
C690 C 0.51125 0.95752 0.75294 0.0
H691 H 0.48155 0.99124 0.68037 0.0
H692 H 0.48512 0.97024 0.69316 0.0
H693 H 0.46611 0.97411 0.71451 0.0
H694 H 0.46627 0.95628 0.76892 0.0
H695 H 0.45408 0.91979 0.77263 0.0
H696 H 0.51724 0.59048 0.6046 0.0
H697 H 0.52952 0.56591 0.60419 0.0
H698 H 0.46836 0.517 0.58286 0.0
H699 H 0.45608 0.54127 0.58272 0.0
H700 H 0.51738 0.5317 0.64682 0.0
H701 H 0.5014 0.50846 0.5074 0.0
H702 H 0.50172 0.53094 0.5242 0.0
H703 H 0.47963 0.50608 0.53053 0.0
C704 C 0.50646 0.57451 0.59958 0.0
C705 C 0.4857 0.56789 0.59352 0.0
C706 C 0.51348 0.56049 0.59939 0.0
C707 C 0.49991 0.53966 0.59289 0.0
C708 C 0.4792 0.53304 0.5871 0.0
H709 H 0.50866 0.42869 0.5913 0.0
H710 H 0.49658 0.45344 0.59071 0.0
C711 C 0.47219 0.54698 0.58727 0.0
C712 C 0.50712 0.52461 0.59337 0.0
H713 H 0.50923 0.48787 0.54429 0.0
C714 C 0.51574 0.52222 0.62433 0.0
C715 C 0.50487 0.51216 0.56405 0.0
C716 C 0.49658 0.51463 0.52955 0.0
C717 C 0.52181 0.50747 0.62697 0.0
C718 C 0.51945 0.49496 0.59772 0.0
C719 C 0.51087 0.49736 0.56675 0.0
C720 C 0.52658 0.47988 0.59834 0.0
C721 C 0.53036 0.50513 0.66127 0.0
C722 C 0.54742 0.48657 0.60235 0.0
C723 C 0.55434 0.47255 0.6026 0.0
C724 C 0.54056 0.45148 0.59874 0.0
C725 C 0.51965 0.44478 0.59447 0.0
C726 C 0.51274 0.45889 0.59409 0.0
H727 H 0.52631 0.51198 0.68341 0.0
H728 H 0.52469 0.48877 0.66719 0.0
H729 H 0.54728 0.51303 0.65945 0.0
H730 H 0.55841 0.5027 0.60501 0.0
H731 H 0.57056 0.47831 0.6058 0.0
H732 H 0.1001 0.52644 0.89565 0.0
H733 H 0.06419 0.51738 0.89134 0.0
H734 H 0.06106 0.5206 1.00381 0.0
H735 H 0.09696 0.53001 1.00834 0.0
H736 H 0.02916 0.48554 0.91785 0.0
H737 H 0.04056 0.55845 0.97215 0.0
H738 H 0.06159 0.55507 0.95872 0.0
H739 H 0.04974 0.546 1.00084 0.0
C740 C 0.09174 0.5251 0.9195 0.0
C741 C 0.10147 0.5291 0.95234 0.0
C742 C 0.07122 0.51998 0.91697 0.0
C743 C 0.06006 0.51879 0.94718 0.0
C744 C 0.06951 0.52199 0.98006 0.0
H745 H 0.93028 0.45777 0.97812 0.0
H746 H 0.96657 0.46895 0.97486 0.0
C747 C 0.09002 0.5272 0.98262 0.0
C748 C 0.03847 0.51398 0.94446 0.0
H749 H 1.00597 0.5311 0.96799 0.0
C750 C 0.02412 0.49558 0.92856 0.0
C751 C 0.03194 0.52728 0.95777 0.0
C752 C 0.0468 0.5479 0.97299 0.0
C753 C 1.00333 0.48973 0.92687 0.0
C754 C 0.99662 0.50245 0.94209 0.0
C755 C 1.01107 0.52123 0.95672 0.0
C756 C 0.97459 0.49609 0.9444 0.0
C757 C 0.98875 0.46999 0.90868 0.0
C758 C 0.96707 0.50805 0.92951 0.0
C759 C 0.94621 0.50177 0.93162 0.0
C760 C 0.93255 0.48347 0.94881 0.0
C761 C 0.94028 0.47185 0.96437 0.0
C762 C 0.96105 0.47814 0.96233 0.0
H763 H 0.99682 0.46549 0.88943 0.0
H764 H 0.98152 0.45761 0.92846 0.0
H765 H 0.97648 0.47122 0.89485 0.0
H766 H 0.9773 0.52208 0.91583 0.0
H767 H 0.94075 0.51109 0.91942 0.0
H768 H 0.43735 0.93166 0.26626 0.0
H769 H 0.46305 0.96823 0.26369 0.0
H770 H 0.50782 0.95556 0.30888 0.0
H771 H 0.48253 0.9193 0.31139 0.0
H772 H 0.48715 0.99567 0.31846 0.0
H773 H 0.53553 0.98708 0.21843 0.0
H774 H 0.5095 0.9674 0.22704 0.0
H775 H 0.52981 0.9704 0.25544 0.0
C776 C 0.45265 0.93669 0.27572 0.0
C777 C 0.45789 0.9225 0.28879 0.0
C778 C 0.46732 0.95757 0.27422 0.0
C779 C 0.48745 0.96455 0.2855 0.0
C780 C 0.49252 0.95048 0.29934 0.0
H781 H 0.58449 0.08526 0.34342 0.0
H782 H 0.55695 0.04961 0.34143 0.0
C783 C 0.47795 0.92972 0.30091 0.0
C784 C 0.50331 0.98651 0.28317 0.0
H785 H 0.55046 0.01893 0.24875 0.0
C786 C 0.50092 1.00081 0.30301 0.0
C787 C 0.52117 0.99324 0.26265 0.0
C788 C 0.52413 0.97878 0.2394 0.0
C789 C 0.51621 0.02153 0.30379 0.0
C790 C 0.53451 0.02806 0.28461 0.0
C791 C 0.53657 0.01388 0.26383 0.0
C792 C 0.55167 0.04954 0.28569 0.0
C793 C 0.51259 0.03628 0.32499 0.0
C794 C 0.55841 0.06116 0.25481 0.0
C795 C 0.57429 0.08151 0.25579 0.0
C796 C 0.58385 0.09065 0.2877 0.0
C797 C 0.57745 0.07877 0.31843 0.0
C798 C 0.56156 0.05842 0.3174 0.0
H799 H 0.49606 0.03017 0.33012 0.0
H800 H 0.52043 0.03892 0.35065 0.0
H801 H 0.51883 0.05122 0.3114 0.0
H802 H 0.55112 0.05458 0.22999 0.0
H803 H 0.5788 0.09018 0.23161 0.0
H804 H 0.43824 0.58314 0.70047 0.0
H805 H 0.43033 0.57766 0.76313 0.0
H806 H 0.4304 0.63465 0.76885 0.0
H807 H 0.43825 0.64028 0.70635 0.0
H808 H 0.4566 0.62989 0.81852 0.0
H809 H 0.37719 0.56399 0.81839 0.0
H810 H 0.39511 0.56131 0.79105 0.0
H811 H 0.38841 0.58039 0.78076 0.0
C812 C 0.43619 0.59432 0.71489 0.0
C813 C 0.43893 0.61218 0.69837 0.0
C814 C 0.43164 0.59115 0.75069 0.0
C815 C 0.42974 0.60574 0.77055 0.0
C816 C 0.43179 0.62322 0.75394 0.0
H817 H 0.38937 0.5919 0.98732 0.0
H818 H 0.39496 0.60008 0.92489 0.0
C819 C 0.43621 0.62635 0.71816 0.0
C820 C 0.42705 0.60351 0.80906 0.0
H821 H 0.39421 0.57358 0.87321 0.0
C822 C 0.44293 0.61765 0.83054 0.0
C823 C 0.40914 0.58763 0.82455 0.0
C824 C 0.39137 0.57251 0.80261 0.0
C825 C 0.44153 0.61609 0.86723 0.0
C826 C 0.42385 0.59986 0.88275 0.0
C827 C 0.4078 0.58596 0.86123 0.0
C828 C 0.42174 0.5968 0.92125 0.0
C829 C 0.4589 0.63192 0.88903 0.0
C830 C 0.43514 0.59255 0.94006 0.0
C831 C 0.43205 0.58793 0.97583 0.0
C832 C 0.41537 0.58733 0.99339 0.0
C833 C 0.40237 0.59224 0.97467 0.0
C834 C 0.40548 0.59685 0.93893 0.0
H835 H 0.46862 0.64609 0.87384 0.0
H836 H 0.45309 0.63593 0.91269 0.0
H837 H 0.46868 0.62565 0.89775 0.0
H838 H 0.44758 0.59209 0.92683 0.0
H839 H 0.44228 0.5841 0.98936 0.0
H840 H 0.82865 0.40311 0.33514 0.0
H841 H 0.82184 0.40481 0.27294 0.0
H842 H 0.87977 0.46049 0.2626 0.0
H843 H 0.88661 0.45912 0.32485 0.0
H844 H 0.84852 0.46148 0.22604 0.0
H845 H 0.85066 0.39062 0.19648 0.0
H846 H 0.83234 0.38774 0.22925 0.0
H847 H 0.85918 0.40386 0.23777 0.0
C848 C 0.83984 0.41588 0.31978 0.0
C849 C 0.85828 0.43089 0.33498 0.0
C850 C 0.83598 0.41673 0.28414 0.0
C851 C 0.85051 0.4325 0.26295 0.0
C852 C 0.86842 0.44808 0.27841 0.0
H853 H 0.87022 0.43995 0.03967 0.0
H854 H 0.87003 0.43478 0.10296 0.0
C855 C 0.87228 0.44728 0.31406 0.0
C856 C 0.84745 0.43251 0.22449 0.0
H857 H 0.84253 0.40567 0.1495 0.0
C858 C 0.84711 0.44924 0.2093 0.0
C859 C 0.84592 0.41665 0.20264 0.0
C860 C 0.84722 0.39877 0.21721 0.0
C861 C 0.84528 0.45057 0.17289 0.0
C862 C 0.84339 0.43454 0.15109 0.0
C863 C 0.84374 0.41781 0.16627 0.0
C864 C 0.84214 0.43545 0.11234 0.0
C865 C 0.84606 0.46945 0.15799 0.0
C866 C 0.82606 0.4367 0.09638 0.0
C867 C 0.82613 0.43969 0.06019 0.0
C868 C 0.84221 0.44133 0.0392 0.0
C869 C 0.85762 0.4388 0.05501 0.0
C870 C 0.85757 0.43588 0.09123 0.0
H871 H 0.8524 0.48227 0.17708 0.0
H872 H 0.8555 0.47459 0.13381 0.0
H873 H 0.83035 0.4659 0.15114 0.0
H874 H 0.81374 0.43591 0.11206 0.0
H875 H 0.81393 0.44142 0.04888 0.0
H876 H 0.43301 0.80054 0.66343 0.0
H877 H 0.42481 0.79848 0.60108 0.0
H878 H 0.42775 0.85685 0.6069 0.0
H879 H 0.43572 0.85898 0.66946 0.0
H880 H 0.39544 0.8282 0.56528 0.0
H881 H 0.46904 0.83333 0.52893 0.0
H882 H 0.45349 0.81277 0.55835 0.0
H883 H 0.46386 0.83878 0.57257 0.0
C884 C 0.43162 0.81283 0.65164 0.0
C885 C 0.43523 0.83003 0.67144 0.0
C886 C 0.42709 0.81168 0.61589 0.0
C887 C 0.42618 0.82774 0.59917 0.0
C888 C 0.42857 0.84436 0.61923 0.0
H889 H 0.43844 0.85909 0.3785 0.0
H890 H 0.44351 0.85686 0.44134 0.0
C891 C 0.43307 0.84553 0.65504 0.0
C892 C 0.4235 0.82759 0.56058 0.0
H893 H 0.44588 0.82759 0.48269 0.0
C894 C 0.40643 0.82802 0.5472 0.0
C895 C 0.43805 0.8277 0.53703 0.0
C896 C 0.45725 0.82831 0.54983 0.0
C897 C 0.40339 0.82833 0.51092 0.0
C898 C 0.41766 0.82789 0.48738 0.0
C899 C 0.43485 0.82769 0.50076 0.0
C900 C 0.4153 0.82828 0.44877 0.0
C901 C 0.38517 0.82962 0.49812 0.0
C902 C 0.39814 0.81258 0.43183 0.0
C903 C 0.39519 0.81379 0.39592 0.0
C904 C 0.40943 0.83069 0.37616 0.0
C905 C 0.42715 0.84588 0.39288 0.0
C906 C 0.43006 0.84466 0.42884 0.0
H907 H 0.37867 0.8349 0.51906 0.0
H908 H 0.38936 0.84019 0.47545 0.0
H909 H 0.37307 0.81425 0.48951 0.0
H910 H 0.3868 0.79955 0.44653 0.0
H911 H 0.38144 0.80174 0.38389 0.0
H912 H 0.58713 0.43827 0.69608 0.0
H913 H 0.5954 0.44772 0.75767 0.0
H914 H 0.58842 0.38859 0.77962 0.0
H915 H 0.58038 0.37906 0.71807 0.0
H916 H 0.5682 0.42658 0.81246 0.0
H917 H 0.64174 0.42772 0.83057 0.0
H918 H 0.63203 0.4288 0.78787 0.0
H919 H 0.62164 0.4049 0.81082 0.0
C920 C 0.58776 0.42741 0.71383 0.0
C921 C 0.58302 0.40788 0.70214 0.0
C922 C 0.59244 0.43282 0.74904 0.0
C923 C 0.59263 0.4189 0.77317 0.0
C924 C 0.58868 0.39969 0.76136 0.0
H925 H 0.60607 0.42682 1.0024 0.0
H926 H 0.59907 0.41369 0.94203 0.0
C927 C 0.584 0.39425 0.72614 0.0
C928 C 0.59524 0.42388 0.81105 0.0
H929 H 0.62593 0.4312 0.88171 0.0
C930 C 0.58084 0.42761 0.82758 0.0
C931 C 0.61159 0.42495 0.8308 0.0
C932 C 0.62775 0.42154 0.81415 0.0
C933 C 0.58242 0.43257 0.86328 0.0
C934 C 0.59902 0.43412 0.88285 0.0
C935 C 0.61319 0.42993 0.86659 0.0
C936 C 0.60273 0.4416 0.91947 0.0
C937 C 0.56629 0.43607 0.87981 0.0
C938 C 0.6072 0.4616 0.92659 0.0
C939 C 0.6112 0.4691 0.96077 0.0
C940 C 0.61088 0.45676 0.98864 0.0
C941 C 0.60631 0.43664 0.98153 0.0
C942 C 0.60238 0.42916 0.9471 0.0
H943 H 0.5519 0.42885 0.86434 0.0
H944 H 0.56281 0.42994 0.90694 0.0
H945 H 0.57198 0.45274 0.88101 0.0
H946 H 0.60785 0.47154 0.90556 0.0
H947 H 0.61472 0.48467 0.96526 0.0
H948 H 0.16378 0.58617 0.0314 0.0
H949 H 0.16513 0.5937 0.09406 0.0
H950 H 0.22386 0.59747 0.10158 0.0
H951 H 0.22259 0.58979 0.03916 0.0
H952 H 0.19616 0.57196 0.15176 0.0
H953 H 0.19935 0.64691 0.14851 0.0
H954 H 0.17872 0.62723 0.12361 0.0
H955 H 0.20469 0.63612 0.1105 0.0
C956 C 0.17717 0.58898 0.04622 0.0
C957 C 0.19309 0.58739 0.03018 0.0
C958 C 0.17793 0.59331 0.08206 0.0
C959 C 0.19466 0.59627 0.10249 0.0
C960 C 0.2108 0.59525 0.08634 0.0
H961 H 0.2188 0.64119 0.31678 0.0
H962 H 0.22158 0.6351 0.2547 0.0
C963 C 0.21007 0.59093 0.05057 0.0
C964 C 0.19485 0.59926 0.14101 0.0
H965 H 0.19335 0.63058 0.20399 0.0
C966 C 0.19563 0.58483 0.1632 0.0
C967 C 0.19436 0.61614 0.1559 0.0
C968 C 0.19442 0.63261 0.13346 0.0
C969 C 0.1956 0.58664 0.19986 0.0
C970 C 0.19451 0.6032 0.21474 0.0
C971 C 0.19406 0.61781 0.19255 0.0
C972 C 0.19377 0.60573 0.25325 0.0
C973 C 0.19702 0.57097 0.22232 0.0
C974 C 0.17739 0.59105 0.27331 0.0
C975 C 0.17578 0.59444 0.30896 0.0
C976 C 0.19045 0.61267 0.32516 0.0
C977 C 0.20722 0.62698 0.30524 0.0
C978 C 0.20881 0.62357 0.26965 0.0
H979 H 0.20315 0.56259 0.20738 0.0
H980 H 0.20692 0.57825 0.2455 0.0
H981 H 0.18152 0.55966 0.23182 0.0
H982 H 0.16543 0.57731 0.26112 0.0
H983 H 0.1626 0.58316 0.32341 0.0
H984 H 0.5851 0.21146 0.64345 0.0
H985 H 0.59002 0.21037 0.58034 0.0
H986 H 0.58792 0.15262 0.59212 0.0
H987 H 0.58328 0.15369 0.65538 0.0
H988 H 0.61755 0.1788 0.54423 0.0
H989 H 0.54212 0.17194 0.51726 0.0
H990 H 0.55931 0.19402 0.54241 0.0
H991 H 0.5498 0.16893 0.56059 0.0
C992 C 0.586 0.19867 0.63276 0.0
C993 C 0.58357 0.18255 0.65449 0.0
C994 C 0.58866 0.198 0.5966 0.0
C995 C 0.58882 0.18117 0.58143 0.0
C996 C 0.58766 0.16567 0.60326 0.0
H997 H 0.56277 0.13516 0.36938 0.0
H998 H 0.5619 0.14226 0.4317 0.0
C999 C 0.58505 0.16633 0.63945 0.0
C1000 C 0.58931 0.17925 0.54275 0.0
H1001 H 0.56228 0.17446 0.46806 0.0
C1002 C 0.60552 0.17793 0.52754 0.0
C1003 C 0.57342 0.17779 0.52108 0.0
C1004 C 0.55506 0.17805 0.53609 0.0
C1005 C 0.60633 0.1753 0.49122 0.0
C1006 C 0.59065 0.17427 0.46948 0.0
C1007 C 0.57439 0.17549 0.48472 0.0
C1008 C 0.59042 0.17102 0.43105 0.0
C1009 C 0.62366 0.17306 0.47659 0.0
C1010 C 0.60635 0.1852 0.40971 0.0
C1011 C 0.6069 0.1812 0.37405 0.0
C1012 C 0.59145 0.16297 0.35898 0.0
C1013 C 0.57494 0.14933 0.38008 0.0
C1014 C 0.57443 0.15333 0.41576 0.0
H1015 H 0.63157 0.16931 0.49735 0.0
H1016 H 0.61806 0.16094 0.45625 0.0
H1017 H 0.63505 0.18768 0.46426 0.0
H1018 H 0.6186 0.19918 0.42079 0.0
H1019 H 0.61978 0.19212 0.35856 0.0
loop_
_geom_bond_atom_site_label_1
_geom_bond_atom_site_label_2
_geom_bond_distance
_geom_bond_site_symmetry_2
_ccdc_geom_bond_type
Mg0 O7 2.141 . S
Mg0 O8 2.048 . S
Mg0 O9 2.048 . S
Mg0 O12 2.141 . S
C1 O2 1.313 . S
C1 O8 1.195 . S
O2 C1 1.313 . S
C3 O4 1.245 . S
C3 O12 1.289 . S
O4 C3 1.245 . S
C5 O6 1.245 . S
C5 O7 1.289 . S
O6 C5 1.245 . S
O7 Mg0 2.141 . S
O7 C5 1.289 . S
O8 Mg0 2.048 . S
O8 C1 1.195 . S
O9 Mg0 2.048 . S
O9 C10 1.195 1_554 S
C10 O9 1.195 1_556 S
C10 O11 1.309 1_556 S
O11 C10 1.309 1_554 S
O12 Mg0 2.141 . S
O12 C3 1.289 . S
Mg13 O20 2.141 . S
Mg13 O21 2.048 . S
Mg13 O22 2.048 . S
Mg13 O25 2.141 . S
C14 O15 1.313 . S
C14 O21 1.195 . S
O15 C14 1.313 . S
C16 O17 1.245 . S
C16 O25 1.289 . S
O17 C16 1.245 . S
C18 O19 1.245 . S
C18 O20 1.289 . S
O19 C18 1.245 . S
O20 Mg13 2.141 . S
O20 C18 1.289 . S
O21 Mg13 2.048 . S
O21 C14 1.195 . S
O22 Mg13 2.048 . S
O22 C23 1.195 . S
C23 O22 1.195 . S
C23 O24 1.313 . S
O24 C23 1.313 . S
O25 Mg13 2.141 . S
O25 C16 1.289 . S
Mg26 O33 2.141 . S
Mg26 O34 2.048 . S
Mg26 O35 2.048 . S
Mg26 O38 2.141 . S
C27 O28 1.313 . S
C27 O34 1.195 . S
O28 C27 1.313 . S
C29 O30 1.245 . S
C29 O38 1.289 . S
O30 C29 1.245 . S
C31 O32 1.245 . S
C31 O33 1.289 . S
O32 C31 1.245 . S
O33 Mg26 2.141 . S
O33 C31 1.289 . S
O34 Mg26 2.048 . S
O34 C27 1.195 . S
O35 Mg26 2.048 . S
O35 C36 1.195 . S
C36 O35 1.195 . S
C36 O37 1.313 . S
O37 C36 1.313 . S
O38 Mg26 2.141 . S
O38 C29 1.289 . S
Mg39 O46 2.141 . S
Mg39 O47 2.048 . S
Mg39 O48 2.048 . S
Mg39 O51 2.141 . S
C40 O41 1.313 . S
C40 O47 1.195 . S
O41 C40 1.313 . S
C42 O43 1.245 . S
C42 O51 1.289 . S
O43 C42 1.245 . S
C44 O45 1.245 . S
C44 O46 1.289 . S
O45 C44 1.245 . S
O46 Mg39 2.141 . S
O46 C44 1.289 . S
O47 Mg39 2.048 . S
O47 C40 1.195 . S
O48 Mg39 2.048 . S
O48 C49 1.195 1_554 S
C49 O48 1.195 1_556 S
C49 O50 1.309 1_556 S
O50 C49 1.309 1_554 S
O51 Mg39 2.141 . S
O51 C42 1.289 . S
Mg52 O59 2.141 . S
Mg52 O60 2.048 . S
Mg52 O61 2.048 . S
Mg52 O64 2.141 . S
C53 O54 1.313 . S
C53 O60 1.195 . S
O54 C53 1.313 . S
C55 O56 1.245 . S
C55 O64 1.289 . S
O56 C55 1.245 . S
C57 O58 1.245 . S
C57 O59 1.289 . S
O58 C57 1.245 . S
O59 Mg52 2.141 . S
O59 C57 1.289 . S
O60 Mg52 2.048 . S
O60 C53 1.195 . S
O61 Mg52 2.048 . S
O61 C62 1.195 . S
C62 O61 1.195 . S
C62 O63 1.313 . S
O63 C62 1.313 . S
O64 Mg52 2.141 . S
O64 C55 1.289 . S
Mg65 O72 2.141 . S
Mg65 O73 2.048 . S
Mg65 O74 2.048 . S
Mg65 O77 2.141 . S
C66 O67 1.313 . S
C66 O73 1.195 . S
O67 C66 1.313 . S
C68 O69 1.245 . S
C68 O77 1.289 . S
O69 C68 1.245 . S
C70 O71 1.245 . S
C70 O72 1.289 . S
O71 C70 1.245 . S
O72 Mg65 2.141 . S
O72 C70 1.289 . S
O73 Mg65 2.048 . S
O73 C66 1.195 . S
O74 Mg65 2.048 . S
O74 C75 1.195 . S
C75 O74 1.195 . S
C75 O76 1.313 . S
O76 C75 1.313 . S
O77 Mg65 2.141 . S
O77 C68 1.289 . S
Mg78 O85 2.141 . S
Mg78 O86 2.048 . S
Mg78 O87 2.048 . S
Mg78 O90 2.141 . S
C79 O80 1.313 . S
C79 O86 1.195 . S
O80 C79 1.313 . S
C81 O82 1.245 . S
C81 O90 1.289 . S
O82 C81 1.245 . S
C83 O84 1.245 . S
C83 O85 1.289 . S
O84 C83 1.245 . S
O85 Mg78 2.141 . S
O85 C83 1.289 . S
O86 Mg78 2.048 . S
O86 C79 1.195 . S
O87 Mg78 2.048 . S
O87 C88 1.195 . S
C88 O87 1.195 . S
C88 O89 1.313 . S
O89 C88 1.313 . S
O90 Mg78 2.141 . S
O90 C81 1.289 . S
Mg91 O98 2.141 . S
Mg91 O99 2.048 . S
Mg91 O100 2.048 . S
Mg91 O103 2.141 . S
C92 O93 1.313 . S
C92 O99 1.195 . S
O93 C92 1.313 . S
C94 O95 1.245 . S
C94 O103 1.289 . S
O95 C94 1.245 . S
C96 O97 1.245 . S
C96 O98 1.289 . S
O97 C96 1.245 . S
O98 Mg91 2.141 . S
O98 C96 1.289 . S
O99 Mg91 2.048 . S
O99 C92 1.195 . S
O100 Mg91 2.048 . S
O100 C101 1.195 1_556 S
C101 O100 1.195 1_554 S
C101 O102 1.309 1_554 S
O102 C101 1.309 1_556 S
O103 Mg91 2.141 . S
O103 C94 1.289 . S
Mg104 O111 2.141 . S
Mg104 O112 2.048 . S
Mg104 O113 2.048 . S
Mg104 O116 2.141 . S
C105 O106 1.313 . S
C105 O112 1.195 . S
O106 C105 1.313 . S
C107 O108 1.245 . S
C107 O116 1.289 . S
O108 C107 1.245 . S
C109 O110 1.245 . S
C109 O111 1.289 . S
O110 C109 1.245 . S
O111 Mg104 2.141 . S
O111 C109 1.289 . S
O112 Mg104 2.048 . S
O112 C105 1.195 . S
O113 Mg104 2.048 . S
O113 C114 1.195 . S
C114 O113 1.195 . S
C114 O115 1.313 . S
O115 C114 1.313 . S
O116 Mg104 2.141 . S
O116 C107 1.289 . S
Mg117 O124 2.141 . S
Mg117 O125 2.048 . S
Mg117 O126 2.048 . S
Mg117 O129 2.141 . S
C118 O119 1.313 . S
C118 O125 1.195 . S
O119 C118 1.313 . S
C120 O121 1.245 . S
C120 O129 1.289 . S
O121 C120 1.245 . S
C122 O123 1.245 . S
C122 O124 1.289 . S
O123 C122 1.245 . S
O124 Mg117 2.141 . S
O124 C122 1.289 . S
O125 Mg117 2.048 . S
O125 C118 1.195 . S
O126 Mg117 2.048 . S
O126 C127 1.195 . S
C127 O126 1.195 . S
C127 O128 1.313 . S
O128 C127 1.313 . S
O129 Mg117 2.141 . S
O129 C120 1.289 . S
Mg130 O137 2.141 . S
Mg130 O138 2.048 . S
Mg130 O139 2.048 . S
Mg130 O142 2.141 . S
C131 O132 1.313 . S
C131 O138 1.195 . S
O132 C131 1.313 . S
C133 O134 1.245 . S
C133 O142 1.289 . S
O134 C133 1.245 . S
C135 O136 1.245 . S
C135 O137 1.289 . S
O136 C135 1.245 . S
O137 Mg130 2.141 . S
O137 C135 1.289 . S
O138 Mg130 2.048 . S
O138 C131 1.195 . S
O139 Mg130 2.048 . S
O139 C140 1.195 1_556 S
C140 O139 1.195 1_554 S
C140 O141 1.309 1_554 S
O141 C140 1.309 1_556 S
O142 Mg130 2.141 . S
O142 C133 1.289 . S
Mg143 O150 2.141 . S
Mg143 O151 2.048 . S
Mg143 O152 2.048 . S
Mg143 O155 2.141 . S
C144 O145 1.313 . S
C144 O151 1.195 . S
O145 C144 1.313 . S
C146 O147 1.245 . S
C146 O155 1.289 . S
O147 C146 1.245 . S
C148 O149 1.245 . S
C148 O150 1.289 . S
O149 C148 1.245 . S
O150 Mg143 2.141 . S
O150 C148 1.289 . S
O151 Mg143 2.048 . S
O151 C144 1.195 . S
O152 Mg143 2.048 . S
O152 C153 1.195 . S
C153 O152 1.195 . S
C153 O154 1.313 . S
O154 C153 1.313 . S
O155 Mg143 2.141 . S
O155 C146 1.289 . S
H156 C164 0.929 . S
H157 C166 0.930 . S
H158 C168 0.930 . S
H159 C171 0.929 . S
H160 C174 0.930 . S
H161 C176 0.960 . S
H162 C176 0.960 . S
H163 C176 0.960 . S
C164 H156 0.929 . S
C164 C165 1.377 . S
C164 C166 1.384 . S
C165 C164 1.377 . S
C165 C171 1.390 . S
C166 H157 0.930 . S
C166 C164 1.384 . S
C166 C167 1.372 . S
C167 C166 1.372 . S
C167 C168 1.400 . S
C167 C172 1.490 . S
C168 H158 0.930 . S
C168 C167 1.400 . S
C168 C171 1.386 . S
H169 C185 0.930 . S
H170 C186 0.931 . S
C171 H159 0.929 . S
C171 C165 1.390 . S
C171 C168 1.386 . S
C172 C167 1.490 . S
C172 C174 1.395 . S
C172 C175 1.403 . S
H173 C179 0.930 . S
C174 H160 0.930 . S
C174 C172 1.395 . S
C174 C177 1.403 . S
C175 C172 1.403 . S
C175 C176 1.524 . S
C175 C179 1.400 . S
C176 H161 0.960 . S
C176 H162 0.960 . S
C176 H163 0.960 . S
C176 C175 1.524 . S
C177 C174 1.403 . S
C177 C178 1.392 . S
C177 C181 1.495 . S
C178 C177 1.392 . S
C178 C179 1.385 . S
C178 C180 1.478 . S
C179 H173 0.930 . S
C179 C175 1.400 . S
C179 C178 1.385 . S
C180 C178 1.478 . S
C180 C182 1.381 . S
C180 C186 1.383 . S
C181 C177 1.495 . S
C181 H187 0.959 . S
C181 H188 0.961 . S
C181 H189 0.960 . S
C182 C180 1.381 . S
C182 C183 1.394 . S
C182 H190 0.930 . S
C183 C182 1.394 . S
C183 C184 1.383 . S
C183 H191 0.929 . S
C184 C183 1.383 . S
C184 C185 1.377 . S
C185 H169 0.930 . S
C185 C184 1.377 . S
C185 C186 1.379 . S
C186 H170 0.931 . S
C186 C180 1.383 . S
C186 C185 1.379 . S
H187 C181 0.959 . S
H188 C181 0.961 . S
H189 C181 0.960 . S
H190 C182 0.930 . S
H191 C183 0.929 . S
H192 C200 0.929 . S
H193 C202 0.930 . S
H194 C204 0.930 . S
H195 C207 0.929 . S
H196 C210 0.930 . S
H197 C212 0.960 . S
H198 C212 0.960 . S
H199 C212 0.960 . S
C200 H192 0.929 . S
C200 C201 1.377 . S
C200 C202 1.384 . S
C201 C200 1.377 . S
C201 C207 1.390 . S
C202 H193 0.930 . S
C202 C200 1.384 . S
C202 C203 1.372 . S
C203 C202 1.372 . S
C203 C204 1.400 . S
C203 C208 1.490 . S
C204 H194 0.930 . S
C204 C203 1.400 . S
C204 C207 1.386 . S
H205 C221 0.930 . S
H206 C222 0.931 . S
C207 H195 0.929 . S
C207 C201 1.390 . S
C207 C204 1.386 . S
C208 C203 1.490 . S
C208 C210 1.395 . S
C208 C211 1.403 . S
H209 C215 0.930 . S
C210 H196 0.930 . S
C210 C208 1.395 . S
C210 C213 1.403 . S
C211 C208 1.403 . S
C211 C212 1.524 . S
C211 C215 1.400 . S
C212 H197 0.960 . S
C212 H198 0.960 . S
C212 H199 0.960 . S
C212 C211 1.524 . S
C213 C210 1.403 . S
C213 C214 1.392 . S
C213 C217 1.495 . S
C214 C213 1.392 . S
C214 C215 1.385 . S
C214 C216 1.478 . S
C215 H209 0.930 . S
C215 C211 1.400 . S
C215 C214 1.385 . S
C216 C214 1.478 . S
C216 C218 1.381 . S
C216 C222 1.383 . S
C217 C213 1.495 . S
C217 H223 0.959 . S
C217 H224 0.961 . S
C217 H225 0.960 . S
C218 C216 1.381 . S
C218 C219 1.394 . S
C218 H226 0.930 . S
C219 C218 1.394 . S
C219 C220 1.383 . S
C219 H227 0.929 . S
C220 C219 1.383 . S
C220 C221 1.377 . S
C221 H205 0.930 . S
C221 C220 1.377 . S
C221 C222 1.379 . S
C222 H206 0.931 . S
C222 C216 1.383 . S
C222 C221 1.379 . S
H223 C217 0.959 . S
H224 C217 0.961 . S
H225 C217 0.960 . S
H226 C218 0.930 . S
H227 C219 0.929 . S
H228 C236 0.929 . S
H229 C238 0.930 . S
H230 C240 0.930 . S
H231 C243 0.929 . S
H232 C246 0.930 . S
H233 C248 0.960 . S
H234 C248 0.960 . S
H235 C248 0.960 . S
C236 H228 0.929 . S
C236 C237 1.377 . S
C236 C238 1.384 . S
C237 C236 1.377 . S
C237 C243 1.390 . S
C238 H229 0.930 . S
C238 C236 1.384 . S
C238 C239 1.372 . S
C239 C238 1.372 . S
C239 C240 1.400 . S
C239 C244 1.490 . S
C240 H230 0.930 . S
C240 C239 1.400 . S
C240 C243 1.386 . S
H241 C257 0.930 . S
H242 C258 0.931 . S
C243 H231 0.929 . S
C243 C237 1.390 . S
C243 C240 1.386 . S
C244 C239 1.490 . S
C244 C246 1.395 . S
C244 C247 1.403 . S
H245 C251 0.930 . S
C246 H232 0.930 . S
C246 C244 1.395 . S
C246 C249 1.403 1_556 S
C247 C244 1.403 . S
C247 C248 1.524 . S
C247 C251 1.400 1_556 S
C248 H233 0.960 . S
C248 H234 0.960 . S
C248 H235 0.960 . S
C248 C247 1.524 . S
C249 C246 1.403 1_554 S
C249 C250 1.392 . S
C249 C253 1.495 . S
C250 C249 1.392 . S
C250 C251 1.385 . S
C250 C252 1.478 . S
C251 H245 0.930 . S
C251 C247 1.400 1_554 S
C251 C250 1.385 . S
C252 C250 1.478 . S
C252 C254 1.381 . S
C252 C258 1.383 . S
C253 C249 1.495 . S
C253 H259 0.959 . S
C253 H260 0.961 . S
C253 H261 0.960 . S
C254 C252 1.381 . S
C254 C255 1.394 . S
C254 H262 0.930 . S
C255 C254 1.394 . S
C255 C256 1.383 . S
C255 H263 0.929 . S
C256 C255 1.383 . S
C256 C257 1.377 . S
C257 H241 0.930 . S
C257 C256 1.377 . S
C257 C258 1.379 . S
C258 H242 0.931 . S
C258 C252 1.383 . S
C258 C257 1.379 . S
H259 C253 0.959 . S
H260 C253 0.961 . S
H261 C253 0.960 . S
H262 C254 0.930 . S
H263 C255 0.929 . S
H264 C272 0.929 . S
H265 C274 0.930 . S
H266 C276 0.930 . S
H267 C279 0.929 . S
H268 C282 0.930 . S
H269 C284 0.960 . S
H270 C284 0.960 . S
H271 C284 0.960 . S
C272 H264 0.929 . S
C272 C273 1.377 . S
C272 C274 1.384 . S
C273 C272 1.377 . S
C273 C279 1.390 . S
C274 H265 0.930 . S
C274 C272 1.384 . S
C274 C275 1.372 . S
C275 C274 1.372 . S
C275 C276 1.400 . S
C275 C280 1.490 . S
C276 H266 0.930 . S
C276 C275 1.400 . S
C276 C279 1.386 . S
H277 C293 0.930 . S
H278 C294 0.931 . S
C279 H267 0.929 . S
C279 C273 1.390 . S
C279 C276 1.386 . S
C280 C275 1.490 . S
C280 C282 1.395 . S
C280 C283 1.403 . S
H281 C287 0.930 . S
C282 H268 0.930 . S
C282 C280 1.395 . S
C282 C285 1.403 . S
C283 C280 1.403 . S
C283 C284 1.524 . S
C283 C287 1.400 . S
C284 H269 0.960 . S
C284 H270 0.960 . S
C284 H271 0.960 . S
C284 C283 1.524 . S
C285 C282 1.403 . S
C285 C286 1.392 . S
C285 C289 1.495 . S
C286 C285 1.392 . S
C286 C287 1.385 . S
C286 C288 1.478 . S
C287 H281 0.930 . S
C287 C283 1.400 . S
C287 C286 1.385 . S
C288 C286 1.478 . S
C288 C290 1.381 . S
C288 C294 1.383 . S
C289 C285 1.495 . S
C289 H295 0.959 . S
C289 H296 0.961 . S
C289 H297 0.960 . S
C290 C288 1.381 . S
C290 C291 1.394 . S
C290 H298 0.930 . S
C291 C290 1.394 . S
C291 C292 1.383 . S
C291 H299 0.929 . S
C292 C291 1.383 . S
C292 C293 1.377 . S
C293 H277 0.930 . S
C293 C292 1.377 . S
C293 C294 1.379 . S
C294 H278 0.931 . S
C294 C288 1.383 . S
C294 C293 1.379 . S
H295 C289 0.959 . S
H296 C289 0.961 . S
H297 C289 0.960 . S
H298 C290 0.930 . S
H299 C291 0.929 . S
H300 C308 0.929 . S
H301 C310 0.930 . S
H302 C312 0.930 . S
H303 C315 0.929 . S
H304 C318 0.930 . S
H305 C320 0.960 . S
H306 C320 0.960 . S
H307 C320 0.960 . S
C308 H300 0.929 . S
C308 C309 1.377 . S
C308 C310 1.384 . S
C309 C308 1.377 . S
C309 C315 1.390 . S
C310 H301 0.930 . S
C310 C308 1.384 . S
C310 C311 1.372 . S
C311 C310 1.372 . S
C311 C312 1.400 . S
C311 C316 1.490 . S
C312 H302 0.930 . S
C312 C311 1.400 . S
C312 C315 1.386 . S
H313 C329 0.930 . S
H314 C330 0.931 . S
C315 H303 0.929 . S
C315 C309 1.390 . S
C315 C312 1.386 . S
C316 C311 1.490 . S
C316 C318 1.395 . S
C316 C319 1.403 . S
H317 C323 0.930 . S
C318 H304 0.930 . S
C318 C316 1.395 . S
C318 C321 1.403 . S
C319 C316 1.403 . S
C319 C320 1.524 . S
C319 C323 1.400 . S
C320 H305 0.960 . S
C320 H306 0.960 . S
C320 H307 0.960 . S
C320 C319 1.524 . S
C321 C318 1.403 . S
C321 C322 1.392 . S
C321 C325 1.495 . S
C322 C321 1.392 . S
C322 C323 1.385 . S
C322 C324 1.478 . S
C323 H317 0.930 . S
C323 C319 1.400 . S
C323 C322 1.385 . S
C324 C322 1.478 . S
C324 C326 1.381 . S
C324 C330 1.383 . S
C325 C321 1.495 . S
C325 H331 0.959 . S
C325 H332 0.961 . S
C325 H333 0.960 . S
C326 C324 1.381 . S
C326 C327 1.394 . S
C326 H334 0.930 . S
C327 C326 1.394 . S
C327 C328 1.383 . S
C327 H335 0.929 . S
C328 C327 1.383 . S
C328 C329 1.377 . S
C329 H313 0.930 . S
C329 C328 1.377 . S
C329 C330 1.379 . S
C330 H314 0.931 . S
C330 C324 1.383 . S
C330 C329 1.379 . S
H331 C325 0.959 . S
H332 C325 0.961 . S
H333 C325 0.960 . S
H334 C326 0.930 . S
H335 C327 0.929 . S
H336 C344 0.929 . S
H337 C346 0.930 . S
H338 C348 0.930 . S
H339 C351 0.929 . S
H340 C354 0.930 . S
H341 C356 0.960 . S
H342 C356 0.960 . S
H343 C356 0.960 . S
C344 H336 0.929 . S
C344 C345 1.377 . S
C344 C346 1.384 . S
C345 C344 1.377 . S
C345 C351 1.390 . S
C346 H337 0.930 . S
C346 C344 1.384 . S
C346 C347 1.372 . S
C347 C346 1.372 . S
C347 C348 1.400 . S
C347 C352 1.490 . S
C348 H338 0.930 . S
C348 C347 1.400 . S
C348 C351 1.386 . S
H349 C365 0.930 . S
H350 C366 0.931 . S
C351 H339 0.929 . S
C351 C345 1.390 . S
C351 C348 1.386 . S
C352 C347 1.490 . S
C352 C354 1.395 . S
C352 C355 1.403 . S
H353 C359 0.930 . S
C354 H340 0.930 . S
C354 C352 1.395 . S
C354 C357 1.403 1_554 S
C355 C352 1.403 . S
C355 C356 1.524 . S
C355 C359 1.400 1_554 S
C356 H341 0.960 . S
C356 H342 0.960 . S
C356 H343 0.960 . S
C356 C355 1.524 . S
C357 C354 1.403 1_556 S
C357 C358 1.392 . S
C357 C361 1.495 . S
C358 C357 1.392 . S
C358 C359 1.385 . S
C358 C360 1.478 . S
C359 H353 0.930 . S
C359 C355 1.400 1_556 S
C359 C358 1.385 . S
C360 C358 1.478 . S
C360 C362 1.381 . S
C360 C366 1.383 . S
C361 C357 1.495 . S
C361 H367 0.959 . S
C361 H368 0.961 . S
C361 H369 0.960 . S
C362 C360 1.381 . S
C362 C363 1.394 . S
C362 H370 0.930 . S
C363 C362 1.394 . S
C363 C364 1.383 . S
C363 H371 0.929 . S
C364 C363 1.383 . S
C364 C365 1.377 . S
C365 H349 0.930 . S
C365 C364 1.377 . S
C365 C366 1.379 . S
C366 H350 0.931 . S
C366 C360 1.383 . S
C366 C365 1.379 . S
H367 C361 0.959 . S
H368 C361 0.961 . S
H369 C361 0.960 . S
H370 C362 0.930 . S
H371 C363 0.929 . S
H372 C380 0.929 . S
H373 C382 0.930 . S
H374 C384 0.930 . S
H375 C387 0.929 . S
H376 C390 0.930 . S
H377 C392 0.960 . S
H378 C392 0.960 . S
H379 C392 0.960 . S
C380 H372 0.929 . S
C380 C381 1.377 . S
C380 C382 1.384 . S
C381 C380 1.377 . S
C381 C387 1.390 . S
C382 H373 0.930 . S
C382 C380 1.384 . S
C382 C383 1.372 . S
C383 C382 1.372 . S
C383 C384 1.400 . S
C383 C388 1.490 . S
C384 H374 0.930 . S
C384 C383 1.400 . S
C384 C387 1.386 . S
H385 C401 0.930 . S
H386 C402 0.931 . S
C387 H375 0.929 . S
C387 C381 1.390 . S
C387 C384 1.386 . S
C388 C383 1.490 . S
C388 C390 1.395 . S
C388 C391 1.403 1_554 S
H389 C395 0.930 . S
C390 H376 0.930 . S
C390 C388 1.395 . S
C390 C393 1.403 . S
C391 C388 1.403 1_556 S
C391 C392 1.524 . S
C391 C395 1.400 . S
C392 H377 0.960 . S
C392 H378 0.960 . S
C392 H379 0.960 . S
C392 C391 1.524 . S
C393 C390 1.403 . S
C393 C394 1.392 1_554 S
C393 C397 1.495 . S
C394 C393 1.392 1_556 S
C394 C395 1.385 . S
C394 C396 1.478 . S
C395 H389 0.930 . S
C395 C391 1.400 . S
C395 C394 1.385 . S
C396 C394 1.478 . S
C396 C398 1.381 . S
C396 C402 1.383 . S
C397 C393 1.495 . S
C397 H403 0.959 . S
C397 H404 0.961 . S
C397 H405 0.960 . S
C398 C396 1.381 . S
C398 C399 1.394 . S
C398 H406 0.930 . S
C399 C398 1.394 . S
C399 C400 1.383 . S
C399 H407 0.929 . S
C400 C399 1.383 . S
C400 C401 1.377 . S
C401 H385 0.930 . S
C401 C400 1.377 . S
C401 C402 1.379 . S
C402 H386 0.931 . S
C402 C396 1.383 . S
C402 C401 1.379 . S
H403 C397 0.959 . S
H404 C397 0.961 . S
H405 C397 0.960 . S
H406 C398 0.930 . S
H407 C399 0.929 . S
H408 C416 0.929 . S
H409 C418 0.930 . S
H410 C420 0.930 . S
H411 C423 0.929 . S
H412 C426 0.930 . S
H413 C428 0.960 . S
H414 C428 0.960 . S
H415 C428 0.960 . S
C416 H408 0.929 . S
C416 C417 1.377 . S
C416 C418 1.384 . S
C417 C416 1.377 . S
C417 C423 1.390 . S
C418 H409 0.930 . S
C418 C416 1.384 . S
C418 C419 1.372 . S
C419 C418 1.372 . S
C419 C420 1.400 . S
C419 C424 1.490 . S
C420 H410 0.930 . S
C420 C419 1.400 . S
C420 C423 1.386 . S
H421 C437 0.930 . S
H422 C438 0.931 . S
C423 H411 0.929 . S
C423 C417 1.390 . S
C423 C420 1.386 . S
C424 C419 1.490 . S
C424 C426 1.395 . S
C424 C427 1.403 . S
H425 C431 0.930 . S
C426 H412 0.930 . S
C426 C424 1.395 . S
C426 C429 1.403 . S
C427 C424 1.403 . S
C427 C428 1.524 . S
C427 C431 1.400 . S
C428 H413 0.960 . S
C428 H414 0.960 . S
C428 H415 0.960 . S
C428 C427 1.524 . S
C429 C426 1.403 . S
C429 C430 1.392 . S
C429 C433 1.495 . S
C430 C429 1.392 . S
C430 C431 1.385 . S
C430 C432 1.478 . S
C431 H425 0.930 . S
C431 C427 1.400 . S
C431 C430 1.385 . S
C432 C430 1.478 . S
C432 C434 1.381 . S
C432 C438 1.383 . S
C433 C429 1.495 . S
C433 H439 0.959 . S
C433 H440 0.961 . S
C433 H441 0.960 . S
C434 C432 1.381 . S
C434 C435 1.394 . S
C434 H442 0.930 . S
C435 C434 1.394 . S
C435 C436 1.383 . S
C435 H443 0.929 . S
C436 C435 1.383 . S
C436 C437 1.377 . S
C437 H421 0.930 . S
C437 C436 1.377 . S
C437 C438 1.379 . S
C438 H422 0.931 . S
C438 C432 1.383 . S
C438 C437 1.379 . S
H439 C433 0.959 . S
H440 C433 0.961 . S
H441 C433 0.960 . S
H442 C434 0.930 . S
H443 C435 0.929 . S
H444 C452 0.929 . S
H445 C454 0.930 . S
H446 C456 0.930 . S
H447 C459 0.929 . S
H448 C462 0.930 . S
H449 C464 0.960 . S
H450 C464 0.960 . S
H451 C464 0.960 . S
C452 H444 0.929 . S
C452 C453 1.377 . S
C452 C454 1.384 . S
C453 C452 1.377 . S
C453 C459 1.390 . S
C454 H445 0.930 . S
C454 C452 1.384 . S
C454 C455 1.372 . S
C455 C454 1.372 . S
C455 C456 1.400 . S
C455 C460 1.490 . S
C456 H446 0.930 . S
C456 C455 1.400 . S
C456 C459 1.386 . S
H457 C473 0.930 . S
H458 C474 0.931 . S
C459 H447 0.929 . S
C459 C453 1.390 . S
C459 C456 1.386 . S
C460 C455 1.490 . S
C460 C462 1.395 . S
C460 C463 1.403 . S
H461 C467 0.930 . S
C462 H448 0.930 . S
C462 C460 1.395 . S
C462 C465 1.403 . S
C463 C460 1.403 . S
C463 C464 1.524 . S
C463 C467 1.400 . S
C464 H449 0.960 . S
C464 H450 0.960 . S
C464 H451 0.960 . S
C464 C463 1.524 . S
C465 C462 1.403 . S
C465 C466 1.392 . S
C465 C469 1.495 . S
C466 C465 1.392 . S
C466 C467 1.385 . S
C466 C468 1.478 . S
C467 H461 0.930 . S
C467 C463 1.400 . S
C467 C466 1.385 . S
C468 C466 1.478 . S
C468 C470 1.381 . S
C468 C474 1.383 . S
C469 C465 1.495 . S
C469 H475 0.959 . S
C469 H476 0.961 . S
C469 H477 0.960 . S
C470 C468 1.381 . S
C470 C471 1.394 . S
C470 H478 0.930 . S
C471 C470 1.394 . S
C471 C472 1.383 . S
C471 H479 0.929 . S
C472 C471 1.383 . S
C472 C473 1.377 . S
C473 H457 0.930 . S
C473 C472 1.377 . S
C473 C474 1.379 . S
C474 H458 0.931 . S
C474 C468 1.383 . S
C474 C473 1.379 . S
H475 C469 0.959 . S
H476 C469 0.961 . S
H477 C469 0.960 . S
H478 C470 0.930 . S
H479 C471 0.929 . S
H480 C488 0.929 . S
H481 C490 0.930 . S
H482 C492 0.930 1_556 S
H483 C495 0.929 . S
H484 C498 0.930 . S
H485 C500 0.960 . S
H486 C500 0.960 . S
H487 C500 0.960 . S
C488 H480 0.929 . S
C488 C489 1.377 . S
C488 C490 1.384 . S
C489 C488 1.377 . S
C489 C495 1.390 . S
C490 H481 0.930 . S
C490 C488 1.384 . S
C490 C491 1.372 . S
C491 C490 1.372 . S
C491 C492 1.400 . S
C491 C496 1.490 . S
C492 H482 0.930 1_554 S
C492 C491 1.400 . S
C492 C495 1.386 . S
H493 C509 0.930 . S
H494 C510 0.931 . S
C495 H483 0.929 . S
C495 C489 1.390 . S
C495 C492 1.386 . S
C496 C491 1.490 . S
C496 C498 1.395 . S
C496 C499 1.403 1_554 S
H497 C503 0.930 . S
C498 H484 0.930 . S
C498 C496 1.395 . S
C498 C501 1.403 . S
C499 C496 1.403 1_556 S
C499 C500 1.524 . S
C499 C503 1.400 . S
C500 H485 0.960 . S
C500 H486 0.960 . S
C500 H487 0.960 . S
C500 C499 1.524 . S
C501 C498 1.403 . S
C501 C502 1.392 1_554 S
C501 C505 1.495 . S
C502 C501 1.392 1_556 S
C502 C503 1.385 . S
C502 C504 1.478 . S
C503 H497 0.930 . S
C503 C499 1.400 . S
C503 C502 1.385 . S
C504 C502 1.478 . S
C504 C506 1.381 . S
C504 C510 1.383 . S
C505 C501 1.495 . S
C505 H511 0.959 . S
C505 H512 0.961 . S
C505 H513 0.960 . S
C506 C504 1.381 . S
C506 C507 1.394 . S
C506 H514 0.930 1_556 S
C507 C506 1.394 . S
C507 C508 1.383 . S
C507 H515 0.929 . S
C508 C507 1.383 . S
C508 C509 1.377 . S
C509 H493 0.930 . S
C509 C508 1.377 . S
C509 C510 1.379 . S
C510 H494 0.931 . S
C510 C504 1.383 . S
C510 C509 1.379 . S
H511 C505 0.959 . S
H512 C505 0.961 . S
H513 C505 0.960 . S
H514 C506 0.930 1_554 S
H515 C507 0.929 . S
H516 C524 0.929 . S
H517 C526 0.930 . S
H518 C528 0.930 . S
H519 C531 0.929 . S
H520 C534 0.930 . S
H521 C536 0.960 . S
H522 C536 0.960 . S
H523 C536 0.960 . S
C524 H516 0.929 . S
C524 C525 1.377 . S
C524 C526 1.384 . S
C525 C524 1.377 . S
C525 C531 1.390 . S
C526 H517 0.930 . S
C526 C524 1.384 . S
C526 C527 1.372 . S
C527 C526 1.372 . S
C527 C528 1.400 . S
C527 C532 1.490 . S
C528 H518 0.930 . S
C528 C527 1.400 . S
C528 C531 1.386 . S
H529 C545 0.930 . S
H530 C546 0.931 . S
C531 H519 0.929 . S
C531 C525 1.390 . S
C531 C528 1.386 . S
C532 C527 1.490 . S
C532 C534 1.395 . S
C532 C535 1.403 . S
H533 C539 0.930 . S
C534 H520 0.930 . S
C534 C532 1.395 . S
C534 C537 1.403 . S
C535 C532 1.403 . S
C535 C536 1.524 . S
C535 C539 1.400 . S
C536 H521 0.960 . S
C536 H522 0.960 . S
C536 H523 0.960 . S
C536 C535 1.524 . S
C537 C534 1.403 . S
C537 C538 1.392 . S
C537 C541 1.495 . S
C538 C537 1.392 . S
C538 C539 1.385 . S
C538 C540 1.478 . S
C539 H533 0.930 . S
C539 C535 1.400 . S
C539 C538 1.385 . S
C540 C538 1.478 . S
C540 C542 1.381 . S
C540 C546 1.383 . S
C541 C537 1.495 . S
C541 H547 0.959 . S
C541 H548 0.961 . S
C541 H549 0.960 . S
C542 C540 1.381 . S
C542 C543 1.394 . S
C542 H550 0.930 . S
C543 C542 1.394 . S
C543 C544 1.383 . S
C543 H551 0.929 . S
C544 C543 1.383 . S
C544 C545 1.377 . S
C545 H529 0.930 . S
C545 C544 1.377 . S
C545 C546 1.379 . S
C546 H530 0.931 . S
C546 C540 1.383 . S
C546 C545 1.379 . S
H547 C541 0.959 . S
H548 C541 0.961 . S
H549 C541 0.960 . S
H550 C542 0.930 . S
H551 C543 0.929 . S
H552 C560 0.929 . S
H553 C562 0.930 . S
H554 C564 0.930 . S
H555 C567 0.929 . S
H556 C570 0.930 . S
H557 C572 0.960 . S
H558 C572 0.960 . S
H559 C572 0.960 . S
C560 H552 0.929 . S
C560 C561 1.377 . S
C560 C562 1.384 . S
C561 C560 1.377 . S
C561 C567 1.390 . S
C562 H553 0.930 . S
C562 C560 1.384 . S
C562 C563 1.372 . S
C563 C562 1.372 . S
C563 C564 1.400 . S
C563 C568 1.490 . S
C564 H554 0.930 . S
C564 C563 1.400 . S
C564 C567 1.386 . S
H565 C581 0.930 . S
H566 C582 0.931 . S
C567 H555 0.929 . S
C567 C561 1.390 . S
C567 C564 1.386 . S
C568 C563 1.490 . S
C568 C570 1.395 . S
C568 C571 1.403 . S
H569 C575 0.930 . S
C570 H556 0.930 . S
C570 C568 1.395 . S
C570 C573 1.403 . S
C571 C568 1.403 . S
C571 C572 1.524 . S
C571 C575 1.400 . S
C572 H557 0.960 . S
C572 H558 0.960 . S
C572 H559 0.960 . S
C572 C571 1.524 . S
C573 C570 1.403 . S
C573 C574 1.392 . S
C573 C577 1.495 . S
C574 C573 1.392 . S
C574 C575 1.385 . S
C574 C576 1.478 . S
C575 H569 0.930 . S
C575 C571 1.400 . S
C575 C574 1.385 . S
C576 C574 1.478 . S
C576 C578 1.381 . S
C576 C582 1.383 . S
C577 C573 1.495 . S
C577 H583 0.959 . S
C577 H584 0.961 . S
C577 H585 0.960 . S
C578 C576 1.381 . S
C578 C579 1.394 . S
C578 H586 0.930 . S
C579 C578 1.394 . S
C579 C580 1.383 . S
C579 H587 0.929 . S
C580 C579 1.383 . S
C580 C581 1.377 . S
C581 H565 0.930 . S
C581 C580 1.377 . S
C581 C582 1.379 . S
C582 H566 0.931 . S
C582 C576 1.383 . S
C582 C581 1.379 . S
H583 C577 0.959 . S
H584 C577 0.961 . S
H585 C577 0.960 . S
H586 C578 0.930 . S
H587 C579 0.929 . S
H588 C596 0.929 . S
H589 C598 0.930 . S
H590 C600 0.930 . S
H591 C603 0.929 . S
H592 C606 0.930 . S
H593 C608 0.960 . S
H594 C608 0.960 . S
H595 C608 0.960 . S
C596 H588 0.929 . S
C596 C597 1.377 . S
C596 C598 1.384 . S
C597 C596 1.377 . S
C597 C603 1.390 . S
C598 H589 0.930 . S
C598 C596 1.384 . S
C598 C599 1.372 . S
C599 C598 1.372 . S
C599 C600 1.400 . S
C599 C604 1.490 . S
C600 H590 0.930 . S
C600 C599 1.400 . S
C600 C603 1.386 . S
H601 C617 0.930 . S
H602 C618 0.931 . S
C603 H591 0.929 . S
C603 C597 1.390 . S
C603 C600 1.386 . S
C604 C599 1.490 . S
C604 C606 1.395 . S
C604 C607 1.403 . S
H605 C611 0.930 . S
C606 H592 0.930 . S
C606 C604 1.395 . S
C606 C609 1.403 . S
C607 C604 1.403 . S
C607 C608 1.524 . S
C607 C611 1.400 . S
C608 H593 0.960 . S
C608 H594 0.960 . S
C608 H595 0.960 . S
C608 C607 1.524 . S
C609 C606 1.403 . S
C609 C610 1.392 . S
C609 C613 1.495 . S
C610 C609 1.392 . S
C610 C611 1.385 . S
C610 C612 1.478 . S
C611 H605 0.930 . S
C611 C607 1.400 . S
C611 C610 1.385 . S
C612 C610 1.478 . S
C612 C614 1.381 . S
C612 C618 1.383 . S
C613 C609 1.495 . S
C613 H619 0.959 . S
C613 H620 0.961 . S
C613 H621 0.960 . S
C614 C612 1.381 . S
C614 C615 1.394 . S
C614 H622 0.930 . S
C615 C614 1.394 . S
C615 C616 1.383 . S
C615 H623 0.929 . S
C616 C615 1.383 . S
C616 C617 1.377 . S
C617 H601 0.930 . S
C617 C616 1.377 . S
C617 C618 1.379 . S
C618 H602 0.931 . S
C618 C612 1.383 . S
C618 C617 1.379 . S
H619 C613 0.959 . S
H620 C613 0.961 . S
H621 C613 0.960 . S
H622 C614 0.930 . S
H623 C615 0.929 . S
H624 C632 0.929 . S
H625 C634 0.930 . S
H626 C636 0.930 . S
H627 C639 0.929 . S
H628 C642 0.930 . S
H629 C644 0.960 . S
H630 C644 0.960 . S
H631 C644 0.960 . S
C632 H624 0.929 . S
C632 C633 1.377 . S
C632 C634 1.384 . S
C633 C632 1.377 . S
C633 C639 1.390 . S
C634 H625 0.930 . S
C634 C632 1.384 . S
C634 C635 1.372 . S
C635 C634 1.372 . S
C635 C636 1.400 . S
C635 C640 1.490 . S
C636 H626 0.930 . S
C636 C635 1.400 . S
C636 C639 1.386 . S
H637 C653 0.930 . S
H638 C654 0.931 . S
C639 H627 0.929 . S
C639 C633 1.390 . S
C639 C636 1.386 . S
C640 C635 1.490 . S
C640 C642 1.395 . S
C640 C643 1.403 . S
H641 C647 0.930 . S
C642 H628 0.930 . S
C642 C640 1.395 . S
C642 C645 1.403 1_655 S
C643 C640 1.403 . S
C643 C644 1.524 . S
C643 C647 1.400 1_655 S
C644 H629 0.960 . S
C644 H630 0.960 . S
C644 H631 0.960 . S
C644 C643 1.524 . S
C645 C642 1.403 1_455 S
C645 C646 1.392 . S
C645 C649 1.495 . S
C646 C645 1.392 . S
C646 C647 1.385 . S
C646 C648 1.478 . S
C647 H641 0.930 . S
C647 C643 1.400 1_455 S
C647 C646 1.385 . S
C648 C646 1.478 . S
C648 C650 1.381 . S
C648 C654 1.383 . S
C649 C645 1.495 . S
C649 H655 0.959 . S
C649 H656 0.961 . S
C649 H657 0.960 . S
C650 C648 1.381 . S
C650 C651 1.394 . S
C650 H658 0.930 . S
C651 C650 1.394 . S
C651 C652 1.383 . S
C651 H659 0.929 . S
C652 C651 1.383 . S
C652 C653 1.377 . S
C653 H637 0.930 . S
C653 C652 1.377 . S
C653 C654 1.379 . S
C654 H638 0.931 . S
C654 C648 1.383 . S
C654 C653 1.379 . S
H655 C649 0.959 . S
H656 C649 0.961 . S
H657 C649 0.960 . S
H658 C650 0.930 . S
H659 C651 0.929 . S
H660 C668 0.929 . S
H661 C670 0.930 . S
H662 C672 0.930 . S
H663 C675 0.929 . S
H664 C678 0.930 . S
H665 C680 0.960 . S
H666 C680 0.960 . S
H667 C680 0.960 . S
C668 H660 0.929 . S
C668 C669 1.377 . S
C668 C670 1.384 . S
C669 C668 1.377 . S
C669 C675 1.390 . S
C670 H661 0.930 . S
C670 C668 1.384 . S
C670 C671 1.372 . S
C671 C670 1.372 . S
C671 C672 1.400 . S
C671 C676 1.490 . S
C672 H662 0.930 . S
C672 C671 1.400 . S
C672 C675 1.386 . S
H673 C689 0.930 . S
H674 C690 0.931 . S
C675 H663 0.929 . S
C675 C669 1.390 . S
C675 C672 1.386 . S
C676 C671 1.490 . S
C676 C678 1.395 . S
C676 C679 1.403 . S
H677 C683 0.930 . S
C678 H664 0.930 . S
C678 C676 1.395 . S
C678 C681 1.403 1_545 S
C679 C676 1.403 . S
C679 C680 1.524 . S
C679 C683 1.400 1_545 S
C680 H665 0.960 . S
C680 H666 0.960 . S
C680 H667 0.960 . S
C680 C679 1.524 . S
C681 C678 1.403 1_565 S
C681 C682 1.392 . S
C681 C685 1.495 . S
C682 C681 1.392 . S
C682 C683 1.385 . S
C682 C684 1.478 . S
C683 H677 0.930 . S
C683 C679 1.400 1_565 S
C683 C682 1.385 . S
C684 C682 1.478 . S
C684 C686 1.381 . S
C684 C690 1.383 . S
C685 C681 1.495 . S
C685 H691 0.959 . S
C685 H692 0.961 . S
C685 H693 0.960 . S
C686 C684 1.381 . S
C686 C687 1.394 . S
C686 H694 0.930 . S
C687 C686 1.394 . S
C687 C688 1.383 . S
C687 H695 0.929 . S
C688 C687 1.383 . S
C688 C689 1.377 . S
C689 H673 0.930 . S
C689 C688 1.377 . S
C689 C690 1.379 . S
C690 H674 0.931 . S
C690 C684 1.383 . S
C690 C689 1.379 . S
H691 C685 0.959 . S
H692 C685 0.961 . S
H693 C685 0.960 . S
H694 C686 0.930 . S
H695 C687 0.929 . S
H696 C704 0.929 . S
H697 C706 0.930 . S
H698 C708 0.930 . S
H699 C711 0.929 . S
H700 C714 0.930 . S
H701 C716 0.960 . S
H702 C716 0.960 . S
H703 C716 0.960 . S
C704 H696 0.929 . S
C704 C705 1.377 . S
C704 C706 1.384 . S
C705 C704 1.377 . S
C705 C711 1.390 . S
C706 H697 0.930 . S
C706 C704 1.384 . S
C706 C707 1.372 . S
C707 C706 1.372 . S
C707 C708 1.400 . S
C707 C712 1.490 . S
C708 H698 0.930 . S
C708 C707 1.400 . S
C708 C711 1.386 . S
H709 C725 0.930 . S
H710 C726 0.931 . S
C711 H699 0.929 . S
C711 C705 1.390 . S
C711 C708 1.386 . S
C712 C707 1.490 . S
C712 C714 1.395 . S
C712 C715 1.403 . S
H713 C719 0.930 . S
C714 H700 0.930 . S
C714 C712 1.395 . S
C714 C717 1.403 . S
C715 C712 1.403 . S
C715 C716 1.524 . S
C715 C719 1.400 . S
C716 H701 0.960 . S
C716 H702 0.960 . S
C716 H703 0.960 . S
C716 C715 1.524 . S
C717 C714 1.403 . S
C717 C718 1.392 . S
C717 C721 1.495 . S
C718 C717 1.392 . S
C718 C719 1.385 . S
C718 C720 1.478 . S
C719 H713 0.930 . S
C719 C715 1.400 . S
C719 C718 1.385 . S
C720 C718 1.478 . S
C720 C722 1.381 . S
C720 C726 1.383 . S
C721 C717 1.495 . S
C721 H727 0.959 . S
C721 H728 0.961 . S
C721 H729 0.960 . S
C722 C720 1.381 . S
C722 C723 1.394 . S
C722 H730 0.930 . S
C723 C722 1.394 . S
C723 C724 1.383 . S
C723 H731 0.929 . S
C724 C723 1.383 . S
C724 C725 1.377 . S
C725 H709 0.930 . S
C725 C724 1.377 . S
C725 C726 1.379 . S
C726 H710 0.931 . S
C726 C720 1.383 . S
C726 C725 1.379 . S
H727 C721 0.959 . S
H728 C721 0.961 . S
H729 C721 0.960 . S
H730 C722 0.930 . S
H731 C723 0.929 . S
H732 C740 0.929 . S
H733 C742 0.930 . S
H734 C744 0.930 . S
H735 C747 0.929 . S
H736 C750 0.930 . S
H737 C752 0.960 . S
H738 C752 0.960 . S
H739 C752 0.960 . S
C740 H732 0.929 . S
C740 C741 1.377 . S
C740 C742 1.384 . S
C741 C740 1.377 . S
C741 C747 1.390 . S
C742 H733 0.930 . S
C742 C740 1.384 . S
C742 C743 1.372 . S
C743 C742 1.372 . S
C743 C744 1.400 . S
C743 C748 1.490 . S
C744 H734 0.930 . S
C744 C743 1.400 . S
C744 C747 1.386 . S
H745 C761 0.930 . S
H746 C762 0.931 . S
C747 H735 0.929 . S
C747 C741 1.390 . S
C747 C744 1.386 . S
C748 C743 1.490 . S
C748 C750 1.395 . S
C748 C751 1.403 . S
H749 C755 0.930 . S
C750 H736 0.930 . S
C750 C748 1.395 . S
C750 C753 1.403 1_455 S
C751 C748 1.403 . S
C751 C752 1.524 . S
C751 C755 1.400 1_455 S
C752 H737 0.960 . S
C752 H738 0.960 . S
C752 H739 0.960 . S
C752 C751 1.524 . S
C753 C750 1.403 1_655 S
C753 C754 1.392 . S
C753 C757 1.495 . S
C754 C753 1.392 . S
C754 C755 1.385 . S
C754 C756 1.478 . S
C755 H749 0.930 . S
C755 C751 1.400 1_655 S
C755 C754 1.385 . S
C756 C754 1.478 . S
C756 C758 1.381 . S
C756 C762 1.383 . S
C757 C753 1.495 . S
C757 H763 0.959 . S
C757 H764 0.961 . S
C757 H765 0.960 . S
C758 C756 1.381 . S
C758 C759 1.394 . S
C758 H766 0.930 . S
C759 C758 1.394 . S
C759 C760 1.383 . S
C759 H767 0.929 . S
C760 C759 1.383 . S
C760 C761 1.377 . S
C761 H745 0.930 . S
C761 C760 1.377 . S
C761 C762 1.379 . S
C762 H746 0.931 . S
C762 C756 1.383 . S
C762 C761 1.379 . S
H763 C757 0.959 . S
H764 C757 0.961 . S
H765 C757 0.960 . S
H766 C758 0.930 . S
H767 C759 0.929 . S
H768 C776 0.929 . S
H769 C778 0.930 . S
H770 C780 0.930 . S
H771 C783 0.929 . S
H772 C786 0.930 . S
H773 C788 0.960 . S
H774 C788 0.960 . S
H775 C788 0.960 . S
C776 H768 0.929 . S
C776 C777 1.377 . S
C776 C778 1.384 . S
C777 C776 1.377 . S
C777 C783 1.390 . S
C778 H769 0.930 . S
C778 C776 1.384 . S
C778 C779 1.372 . S
C779 C778 1.372 . S
C779 C780 1.400 . S
C779 C784 1.490 . S
C780 H770 0.930 . S
C780 C779 1.400 . S
C780 C783 1.386 . S
H781 C797 0.930 . S
H782 C798 0.931 . S
C783 H771 0.929 . S
C783 C777 1.390 . S
C783 C780 1.386 . S
C784 C779 1.490 . S
C784 C786 1.395 . S
C784 C787 1.403 . S
H785 C791 0.930 . S
C786 H772 0.930 . S
C786 C784 1.395 . S
C786 C789 1.403 1_565 S
C787 C784 1.403 . S
C787 C788 1.524 . S
C787 C791 1.400 1_565 S
C788 H773 0.960 . S
C788 H774 0.960 . S
C788 H775 0.960 . S
C788 C787 1.524 . S
C789 C786 1.403 1_545 S
C789 C790 1.392 . S
C789 C793 1.495 . S
C790 C789 1.392 . S
C790 C791 1.385 . S
C790 C792 1.478 . S
C791 H785 0.930 . S
C791 C787 1.400 1_545 S
C791 C790 1.385 . S
C792 C790 1.478 . S
C792 C794 1.381 . S
C792 C798 1.383 . S
C793 C789 1.495 . S
C793 H799 0.959 . S
C793 H800 0.961 . S
C793 H801 0.960 . S
C794 C792 1.381 . S
C794 C795 1.394 . S
C794 H802 0.930 . S
C795 C794 1.394 . S
C795 C796 1.383 . S
C795 H803 0.929 . S
C796 C795 1.383 . S
C796 C797 1.377 . S
C797 H781 0.930 . S
C797 C796 1.377 . S
C797 C798 1.379 . S
C798 H782 0.931 . S
C798 C792 1.383 . S
C798 C797 1.379 . S
H799 C793 0.959 . S
H800 C793 0.961 . S
H801 C793 0.960 . S
H802 C794 0.930 . S
H803 C795 0.929 . S
H804 C812 0.929 . S
H805 C814 0.930 . S
H806 C816 0.930 . S
H807 C819 0.929 . S
H808 C822 0.930 . S
H809 C824 0.960 . S
H810 C824 0.960 . S
H811 C824 0.960 . S
C812 H804 0.929 . S
C812 C813 1.377 . S
C812 C814 1.384 . S
C813 C812 1.377 . S
C813 C819 1.390 . S
C814 H805 0.930 . S
C814 C812 1.384 . S
C814 C815 1.372 . S
C815 C814 1.372 . S
C815 C816 1.400 . S
C815 C820 1.490 . S
C816 H806 0.930 . S
C816 C815 1.400 . S
C816 C819 1.386 . S
H817 C833 0.930 . S
H818 C834 0.931 . S
C819 H807 0.929 . S
C819 C813 1.390 . S
C819 C816 1.386 . S
C820 C815 1.490 . S
C820 C822 1.395 . S
C820 C823 1.403 . S
H821 C827 0.930 . S
C822 H808 0.930 . S
C822 C820 1.395 . S
C822 C825 1.403 . S
C823 C820 1.403 . S
C823 C824 1.524 . S
C823 C827 1.400 . S
C824 H809 0.960 . S
C824 H810 0.960 . S
C824 H811 0.960 . S
C824 C823 1.524 . S
C825 C822 1.403 . S
C825 C826 1.392 . S
C825 C829 1.495 . S
C826 C825 1.392 . S
C826 C827 1.385 . S
C826 C828 1.478 . S
C827 H821 0.930 . S
C827 C823 1.400 . S
C827 C826 1.385 . S
C828 C826 1.478 . S
C828 C830 1.381 . S
C828 C834 1.383 . S
C829 C825 1.495 . S
C829 H835 0.959 . S
C829 H836 0.961 . S
C829 H837 0.960 . S
C830 C828 1.381 . S
C830 C831 1.394 . S
C830 H838 0.930 . S
C831 C830 1.394 . S
C831 C832 1.383 . S
C831 H839 0.929 . S
C832 C831 1.383 . S
C832 C833 1.377 . S
C833 H817 0.930 . S
C833 C832 1.377 . S
C833 C834 1.379 . S
C834 H818 0.931 . S
C834 C828 1.383 . S
C834 C833 1.379 . S
H835 C829 0.959 . S
H836 C829 0.961 . S
H837 C829 0.960 . S
H838 C830 0.930 . S
H839 C831 0.929 . S
H840 C848 0.929 . S
H841 C850 0.930 . S
H842 C852 0.930 . S
H843 C855 0.929 . S
H844 C858 0.930 . S
H845 C860 0.960 . S
H846 C860 0.960 . S
H847 C860 0.960 . S
C848 H840 0.929 . S
C848 C849 1.377 . S
C848 C850 1.384 . S
C849 C848 1.377 . S
C849 C855 1.390 . S
C850 H841 0.930 . S
C850 C848 1.384 . S
C850 C851 1.372 . S
C851 C850 1.372 . S
C851 C852 1.400 . S
C851 C856 1.490 . S
C852 H842 0.930 . S
C852 C851 1.400 . S
C852 C855 1.386 . S
H853 C869 0.930 . S
H854 C870 0.931 . S
C855 H843 0.929 . S
C855 C849 1.390 . S
C855 C852 1.386 . S
C856 C851 1.490 . S
C856 C858 1.395 . S
C856 C859 1.403 . S
H857 C863 0.930 . S
C858 H844 0.930 . S
C858 C856 1.395 . S
C858 C861 1.403 . S
C859 C856 1.403 . S
C859 C860 1.524 . S
C859 C863 1.400 . S
C860 H845 0.960 . S
C860 H846 0.960 . S
C860 H847 0.960 . S
C860 C859 1.524 . S
C861 C858 1.403 . S
C861 C862 1.392 . S
C861 C865 1.495 . S
C862 C861 1.392 . S
C862 C863 1.385 . S
C862 C864 1.478 . S
C863 H857 0.930 . S
C863 C859 1.400 . S
C863 C862 1.385 . S
C864 C862 1.478 . S
C864 C866 1.381 . S
C864 C870 1.383 . S
C865 C861 1.495 . S
C865 H871 0.959 . S
C865 H872 0.961 . S
C865 H873 0.960 . S
C866 C864 1.381 . S
C866 C867 1.394 . S
C866 H874 0.930 . S
C867 C866 1.394 . S
C867 C868 1.383 . S
C867 H875 0.929 . S
C868 C867 1.383 . S
C868 C869 1.377 . S
C869 H853 0.930 . S
C869 C868 1.377 . S
C869 C870 1.379 . S
C870 H854 0.931 . S
C870 C864 1.383 . S
C870 C869 1.379 . S
H871 C865 0.959 . S
H872 C865 0.961 . S
H873 C865 0.960 . S
H874 C866 0.930 . S
H875 C867 0.929 . S
H876 C884 0.929 . S
H877 C886 0.930 . S
H878 C888 0.930 . S
H879 C891 0.929 . S
H880 C894 0.930 . S
H881 C896 0.960 . S
H882 C896 0.960 . S
H883 C896 0.960 . S
C884 H876 0.929 . S
C884 C885 1.377 . S
C884 C886 1.384 . S
C885 C884 1.377 . S
C885 C891 1.390 . S
C886 H877 0.930 . S
C886 C884 1.384 . S
C886 C887 1.372 . S
C887 C886 1.372 . S
C887 C888 1.400 . S
C887 C892 1.490 . S
C888 H878 0.930 . S
C888 C887 1.400 . S
C888 C891 1.386 . S
H889 C905 0.930 . S
H890 C906 0.931 . S
C891 H879 0.929 . S
C891 C885 1.390 . S
C891 C888 1.386 . S
C892 C887 1.490 . S
C892 C894 1.395 . S
C892 C895 1.403 . S
H893 C899 0.930 . S
C894 H880 0.930 . S
C894 C892 1.395 . S
C894 C897 1.403 . S
C895 C892 1.403 . S
C895 C896 1.524 . S
C895 C899 1.400 . S
C896 H881 0.960 . S
C896 H882 0.960 . S
C896 H883 0.960 . S
C896 C895 1.524 . S
C897 C894 1.403 . S
C897 C898 1.392 . S
C897 C901 1.495 . S
C898 C897 1.392 . S
C898 C899 1.385 . S
C898 C900 1.478 . S
C899 H893 0.930 . S
C899 C895 1.400 . S
C899 C898 1.385 . S
C900 C898 1.478 . S
C900 C902 1.381 . S
C900 C906 1.383 . S
C901 C897 1.495 . S
C901 H907 0.959 . S
C901 H908 0.961 . S
C901 H909 0.960 . S
C902 C900 1.381 . S
C902 C903 1.394 . S
C902 H910 0.930 . S
C903 C902 1.394 . S
C903 C904 1.383 . S
C903 H911 0.929 . S
C904 C903 1.383 . S
C904 C905 1.377 . S
C905 H889 0.930 . S
C905 C904 1.377 . S
C905 C906 1.379 . S
C906 H890 0.931 . S
C906 C900 1.383 . S
C906 C905 1.379 . S
H907 C901 0.959 . S
H908 C901 0.961 . S
H909 C901 0.960 . S
H910 C902 0.930 . S
H911 C903 0.929 . S
H912 C920 0.929 . S
H913 C922 0.930 . S
H914 C924 0.930 . S
H915 C927 0.929 . S
H916 C930 0.930 . S
H917 C932 0.960 . S
H918 C932 0.960 . S
H919 C932 0.960 . S
C920 H912 0.929 . S
C920 C921 1.377 . S
C920 C922 1.384 . S
C921 C920 1.377 . S
C921 C927 1.390 . S
C922 H913 0.930 . S
C922 C920 1.384 . S
C922 C923 1.372 . S
C923 C922 1.372 . S
C923 C924 1.400 . S
C923 C928 1.490 . S
C924 H914 0.930 . S
C924 C923 1.400 . S
C924 C927 1.386 . S
H925 C941 0.930 . S
H926 C942 0.931 . S
C927 H915 0.929 . S
C927 C921 1.390 . S
C927 C924 1.386 . S
C928 C923 1.490 . S
C928 C930 1.395 . S
C928 C931 1.403 . S
H929 C935 0.930 . S
C930 H916 0.930 . S
C930 C928 1.395 . S
C930 C933 1.403 . S
C931 C928 1.403 . S
C931 C932 1.524 . S
C931 C935 1.400 . S
C932 H917 0.960 . S
C932 H918 0.960 . S
C932 H919 0.960 . S
C932 C931 1.524 . S
C933 C930 1.403 . S
C933 C934 1.392 . S
C933 C937 1.495 . S
C934 C933 1.392 . S
C934 C935 1.385 . S
C934 C936 1.478 . S
C935 H929 0.930 . S
C935 C931 1.400 . S
C935 C934 1.385 . S
C936 C934 1.478 . S
C936 C938 1.381 . S
C936 C942 1.383 . S
C937 C933 1.495 . S
C937 H943 0.959 . S
C937 H944 0.961 . S
C937 H945 0.960 . S
C938 C936 1.381 . S
C938 C939 1.394 . S
C938 H946 0.930 . S
C939 C938 1.394 . S
C939 C940 1.383 . S
C939 H947 0.929 . S
C940 C939 1.383 . S
C940 C941 1.377 . S
C941 H925 0.930 . S
C941 C940 1.377 . S
C941 C942 1.379 . S
C942 H926 0.931 . S
C942 C936 1.383 . S
C942 C941 1.379 . S
H943 C937 0.959 . S
H944 C937 0.961 . S
H945 C937 0.960 . S
H946 C938 0.930 . S
H947 C939 0.929 . S
H948 C956 0.929 . S
H949 C958 0.930 . S
H950 C960 0.930 . S
H951 C963 0.929 . S
H952 C966 0.930 . S
H953 C968 0.960 . S
H954 C968 0.960 . S
H955 C968 0.960 . S
C956 H948 0.929 . S
C956 C957 1.377 . S
C956 C958 1.384 . S
C957 C956 1.377 . S
C957 C963 1.390 . S
C958 H949 0.930 . S
C958 C956 1.384 . S
C958 C959 1.372 . S
C959 C958 1.372 . S
C959 C960 1.400 . S
C959 C964 1.490 . S
C960 H950 0.930 . S
C960 C959 1.400 . S
C960 C963 1.386 . S
H961 C977 0.930 . S
H962 C978 0.931 . S
C963 H951 0.929 . S
C963 C957 1.390 . S
C963 C960 1.386 . S
C964 C959 1.490 . S
C964 C966 1.395 . S
C964 C967 1.403 . S
H965 C971 0.930 . S
C966 H952 0.930 . S
C966 C964 1.395 . S
C966 C969 1.403 . S
C967 C964 1.403 . S
C967 C968 1.524 . S
C967 C971 1.400 . S
C968 H953 0.960 . S
C968 H954 0.960 . S
C968 H955 0.960 . S
C968 C967 1.524 . S
C969 C966 1.403 . S
C969 C970 1.392 . S
C969 C973 1.495 . S
C970 C969 1.392 . S
C970 C971 1.385 . S
C970 C972 1.478 . S
C971 H965 0.930 . S
C971 C967 1.400 . S
C971 C970 1.385 . S
C972 C970 1.478 . S
C972 C974 1.381 . S
C972 C978 1.383 . S
C973 C969 1.495 . S
C973 H979 0.959 . S
C973 H980 0.961 . S
C973 H981 0.960 . S
C974 C972 1.381 . S
C974 C975 1.394 . S
C974 H982 0.930 . S
C975 C974 1.394 . S
C975 C976 1.383 . S
C975 H983 0.929 . S
C976 C975 1.383 . S
C976 C977 1.377 . S
C977 H961 0.930 . S
C977 C976 1.377 . S
C977 C978 1.379 . S
C978 H962 0.931 . S
C978 C972 1.383 . S
C978 C977 1.379 . S
H979 C973 0.959 . S
H980 C973 0.961 . S
H981 C973 0.960 . S
H982 C974 0.930 . S
H983 C975 0.929 . S
H984 C992 0.929 . S
H985 C994 0.930 . S
H986 C996 0.930 . S
H987 C999 0.929 . S
H988 C1002 0.930 . S
H989 C1004 0.960 . S
H990 C1004 0.960 . S
H991 C1004 0.960 . S
C992 H984 0.929 . S
C992 C993 1.377 . S
C992 C994 1.384 . S
C993 C992 1.377 . S
C993 C999 1.390 . S
C994 H985 0.930 . S
C994 C992 1.384 . S
C994 C995 1.372 . S
C995 C994 1.372 . S
C995 C996 1.400 . S
C995 C1000 1.490 . S
C996 H986 0.930 . S
C996 C995 1.400 . S
C996 C999 1.386 . S
H997 C1013 0.930 . S
H998 C1014 0.931 . S
C999 H987 0.929 . S
C999 C993 1.390 . S
C999 C996 1.386 . S
C1000 C995 1.490 . S
C1000 C1002 1.395 . S
C1000 C1003 1.403 . S
H1001 C1007 0.930 . S
C1002 H988 0.930 . S
C1002 C1000 1.395 . S
C1002 C1005 1.403 . S
C1003 C1000 1.403 . S
C1003 C1004 1.524 . S
C1003 C1007 1.400 . S
C1004 H989 0.960 . S
C1004 H990 0.960 . S
C1004 H991 0.960 . S
C1004 C1003 1.524 . S
C1005 C1002 1.403 . S
C1005 C1006 1.392 . S
C1005 C1009 1.495 . S
C1006 C1005 1.392 . S
C1006 C1007 1.385 . S
C1006 C1008 1.478 . S
C1007 H1001 0.930 . S
C1007 C1003 1.400 . S
C1007 C1006 1.385 . S
C1008 C1006 1.478 . S
C1008 C1010 1.381 . S
C1008 C1014 1.383 . S
C1009 C1005 1.495 . S
C1009 H1015 0.959 . S
C1009 H1016 0.961 . S
C1009 H1017 0.960 . S
C1010 C1008 1.381 . S
C1010 C1011 1.394 . S
C1010 H1018 0.930 . S
C1011 C1010 1.394 . S
C1011 C1012 1.383 . S
C1011 H1019 0.929 . S
C1012 C1011 1.383 . S
C1012 C1013 1.377 . S
C1013 H997 0.930 . S
C1013 C1012 1.377 . S
C1013 C1014 1.379 . S
C1014 H998 0.931 . S
C1014 C1008 1.383 . S
C1014 C1013 1.379 . S
H1015 C1009 0.959 . S
H1016 C1009 0.961 . S
H1017 C1009 0.960 . S
H1018 C1010 0.930 . S
H1019 C1011 0.929 . S
C165 C5 1.839 . S
C184 C83 1.848 . S
C201 C18 1.836 . S
C220 C96 1.842 . S
C237 C31 1.839 . S
C256 C109 1.846 . S
C273 C44 1.839 . S
C292 C122 1.846 . S
C309 C57 1.839 . S
C328 C135 1.844 . S
C345 C148 1.836 . S
C364 C70 1.842 . S
C381 C3 1.842 . S
C400 C133 1.832 . S
C417 C16 1.842 . S
C436 C146 1.838 . S
C453 C29 1.842 . S
C472 C81 1.838 . S
C489 C42 1.843 . S
C508 C94 1.831 . S
C525 C55 1.842 . S
C544 C107 1.843 . S
C561 C68 1.842 . S
C580 C120 1.834 . S
C597 C1 1.812 . S
C616 C40 1.802 . S
C633 C14 1.811 . S
C652 C53 1.801 . S
C669 C66 1.812 . S
C688 C27 1.802 . S
C705 C79 1.812 . S
C724 C118 1.801 . S
C741 C131 1.815 . S
C760 C92 1.817 . S
C777 C105 1.815 . S
C796 C144 1.817 . S
C813 C88 0.721 . S
C832 C10 0.695 . S
C849 C23 0.729 . S
C868 C101 0.708 . S
C885 C36 0.730 . S
C904 C114 0.745 . S
C921 C127 0.724 . S
C940 C49 0.693 . S
C957 C140 0.719 . S
C976 C62 0.700 . S
C993 C75 0.724 . S
C1012 C153 0.754 . S
