# Generated by pormake.
# Topology acs-h, (5)-cn, num edge types: 1
# Building blocks:
#     Node 0, Type 0, BuildingBlock: BEQFEK_clean_sbu_0, # of connection points: 5
#     Node 1, Type 0, BuildingBlock: BEQFEK_clean_sbu_0, # of connection points: 5
#     Node 2, Type 0, BuildingBlock: BEQFEK_clean_sbu_0, # of connection points: 5
#     Node 3, Type 0, BuildingBlock: BEQFEK_clean_sbu_0, # of connection points: 5
#     Node 4, Type 0, BuildingBlock: BEQFEK_clean_sbu_0, # of connection points: 5
#     Node 5, Type 0, BuildingBlock: BEQFEK_clean_sbu_0, # of connection points: 5
#     Node 6, Type 0, BuildingBlock: BEQFEK_clean_sbu_0, # of connection points: 5
#     Node 7, Type 0, BuildingBlock: BEQFEK_clean_sbu_0, # of connection points: 5
#     Node 8, Type 0, BuildingBlock: BEQFEK_clean_sbu_0, # of connection points: 5
#     Node 9, Type 0, BuildingBlock: BEQFEK_clean_sbu_0, # of connection points: 5
#     Node 10, Type 0, BuildingBlock: BEQFEK_clean_sbu_0, # of connection points: 5
#     Node 11, Type 0, BuildingBlock: BEQFEK_clean_sbu_0, # of connection points: 5
#     Edge 12, Type (0, 0), BuildingBlock: UVAHIK_clean_linker_0, # of connection points: 2
#     Edge 13, Type (0, 0), BuildingBlock: UVAHIK_clean_linker_0, # of connection points: 2
#     Edge 14, Type (0, 0), BuildingBlock: UVAHIK_clean_linker_0, # of connection points: 2
#     Edge 15, Type (0, 0), BuildingBlock: UVAHIK_clean_linker_0, # of connection points: 2
#     Edge 16, Type (0, 0), BuildingBlock: UVAHIK_clean_linker_0, # of connection points: 2
#     Edge 17, Type (0, 0), BuildingBlock: UVAHIK_clean_linker_0, # of connection points: 2
#     Edge 18, Type (0, 0), BuildingBlock: UVAHIK_clean_linker_0, # of connection points: 2
#     Edge 19, Type (0, 0), BuildingBlock: UVAHIK_clean_linker_0, # of connection points: 2
#     Edge 20, Type (0, 0), BuildingBlock: UVAHIK_clean_linker_0, # of connection points: 2
#     Edge 21, Type (0, 0), BuildingBlock: UVAHIK_clean_linker_0, # of connection points: 2
#     Edge 22, Type (0, 0), BuildingBlock: UVAHIK_clean_linker_0, # of connection points: 2
#     Edge 23, Type (0, 0), BuildingBlock: UVAHIK_clean_linker_0, # of connection points: 2
#     Edge 24, Type (0, 0), BuildingBlock: UVAHIK_clean_linker_0, # of connection points: 2
#     Edge 25, Type (0, 0), BuildingBlock: UVAHIK_clean_linker_0, # of connection points: 2
#     Edge 26, Type (0, 0), BuildingBlock: UVAHIK_clean_linker_0, # of connection points: 2
#     Edge 27, Type (0, 0), BuildingBlock: UVAHIK_clean_linker_0, # of connection points: 2
#     Edge 28, Type (0, 0), BuildingBlock: UVAHIK_clean_linker_0, # of connection points: 2
#     Edge 29, Type (0, 0), BuildingBlock: UVAHIK_clean_linker_0, # of connection points: 2
#     Edge 30, Type (0, 0), BuildingBlock: UVAHIK_clean_linker_0, # of connection points: 2
#     Edge 31, Type (0, 0), BuildingBlock: UVAHIK_clean_linker_0, # of connection points: 2
#     Edge 32, Type (0, 0), BuildingBlock: UVAHIK_clean_linker_0, # of connection points: 2
#     Edge 33, Type (0, 0), BuildingBlock: UVAHIK_clean_linker_0, # of connection points: 2
#     Edge 34, Type (0, 0), BuildingBlock: UVAHIK_clean_linker_0, # of connection points: 2
#     Edge 35, Type (0, 0), BuildingBlock: UVAHIK_clean_linker_0, # of connection points: 2
#     Edge 36, Type (0, 0), BuildingBlock: UVAHIK_clean_linker_0, # of connection points: 2
#     Edge 37, Type (0, 0), BuildingBlock: UVAHIK_clean_linker_0, # of connection points: 2
#     Edge 38, Type (0, 0), BuildingBlock: UVAHIK_clean_linker_0, # of connection points: 2
#     Edge 39, Type (0, 0), BuildingBlock: UVAHIK_clean_linker_0, # of connection points: 2
#     Edge 40, Type (0, 0), BuildingBlock: UVAHIK_clean_linker_0, # of connection points: 2
#     Edge 41, Type (0, 0), BuildingBlock: UVAHIK_clean_linker_0, # of connection points: 2
# Relax obj value: 1.203
# Max RMSD: 0.212
# Mean RMSD: 0.212
data_MOF--net-acs-h--node1-BEQFEK_clean_sbu_0--edge1-UVAHIK_clean_linker_0
_symmetry_space_group_name_H-M    P1
_symmetry_Int_Tables_number       1
_symmetry_cell_setting            triclinic
loop_
_symmetry_equiv_pos_as_xyz
'x, y, z'
_cell_length_a     53.790964
_cell_length_b     53.76803
_cell_length_c     46.761447
_cell_angle_alpha  89.987532
_cell_angle_beta   90.005466
_cell_angle_gamma 119.9551
loop_
_atom_site_label
_atom_site_type_symbol
_atom_site_fract_x
_atom_site_fract_y
_atom_site_fract_z
_atom_type_partial_charge
Co0 Co 0.43973 0.09803 0.09152 0.0
Co1 Co 0.43943 0.13741 0.04203 0.0
C2 C 0.4939 0.14823 0.07204 0.0
O3 O 0.48077 0.12768 0.08962 0.0
O4 O 0.48024 0.15365 0.05319 0.0
C5 C 0.45011 0.08261 0.1458 0.0
O6 O 0.46506 0.11066 0.14854 0.0
C7 C 0.45283 0.19438 0.02593 0.0
C8 C 0.42889 0.18903 0.98589 0.0
C9 C 0.44662 0.20935 0.00573 0.0
N10 N 0.43895 0.16646 0.01883 0.0
N11 N 0.42477 0.16331 0.99476 0.0
C12 C 0.47285 0.20622 0.05098 0.0
H13 H 0.49365 0.20805 0.045 0.0
H14 H 0.46403 0.19129 0.06941 0.0
H15 H 0.47719 0.22778 0.05749 0.0
C16 C 0.40042 0.11493 0.11801 0.0
N17 N 0.41568 0.11398 0.09561 0.0
N18 N 0.41498 0.13007 0.07477 0.0
C19 C 0.39909 0.14174 0.08349 0.0
C20 C 0.38984 0.13309 0.11136 0.0
C21 C 0.39944 0.1019 0.14658 0.0
H22 H 0.39715 0.08042 0.14372 0.0
H23 H 0.41964 0.11591 0.15827 0.0
H24 H 0.3813 0.09947 0.15977 0.0
O25 O 0.43121 0.07582 0.05626 0.0
O26 O 0.43054 0.10209 0.01984 0.0
H27 H 0.39035 0.15553 0.04353 0.0
H28 H 0.37468 0.16267 0.07443 0.0
C29 C 0.39379 0.16212 0.06629 0.0
H30 H 0.41254 0.18405 0.06803 0.0
H31 H 0.41204 0.14366 0.98461 0.0
O32 O 0.43603 0.0719 0.12296 0.0
C33 C 0.42869 0.07906 0.02968 0.0
Co34 Co 0.92004 0.35398 0.10185 0.0
Co35 Co 0.87407 0.31334 0.05737 0.0
C36 C 0.87121 0.36188 0.08796 0.0
O37 O 0.89366 0.36952 0.10285 0.0
O38 O 0.86224 0.34101 0.07053 0.0
C39 C 0.96736 0.4021 0.12486 0.0
O40 O 0.96525 0.41256 0.10015 0.0
C41 C 0.81441 0.27214 0.04925 0.0
C42 C 0.81088 0.26063 0.00355 0.0
C43 C 0.7948 0.25641 0.02812 0.0
N44 N 0.84088 0.2848 0.03794 0.0
N45 N 0.83874 0.27764 0.01063 0.0
C46 C 0.80786 0.27821 0.07874 0.0
H47 H 0.79536 0.2895 0.07724 0.0
H48 H 0.82781 0.29147 0.09106 0.0
H49 H 0.79461 0.25788 0.0905 0.0
C50 C 0.89942 0.29909 0.13213 0.0
N51 N 0.90068 0.31431 0.10879 0.0
N52 N 0.88333 0.29689 0.08904 0.0
C53 C 0.87129 0.26973 0.09885 0.0
C54 C 0.88066 0.27017 0.1267 0.0
C55 C 0.91278 0.31256 0.16019 0.0
H56 H 0.9344 0.31478 0.16154 0.0
H57 H 0.91516 0.3342 0.16193 0.0
H58 H 0.8997 0.29925 0.17841 0.0
O59 O 0.93817 0.36333 0.06413 0.0
O60 O 0.90678 0.33605 0.03099 0.0
H61 H 0.85629 0.24762 0.05876 0.0
H62 H 0.85299 0.22487 0.08885 0.0
C63 C 0.85129 0.24371 0.08189 0.0
H64 H 0.82888 0.23865 0.08534 0.0
H65 H 0.85609 0.28547 0.99655 0.0
O66 O 0.95033 0.37573 0.13024 0.0
C67 C 0.93158 0.35637 0.03809 0.0
Co68 Co 0.63546 0.5652 0.08214 0.0
Co69 Co 0.68127 0.55492 0.0505 0.0
C70 C 0.62204 0.50683 0.06009 0.0
O71 O 0.61428 0.52394 0.07013 0.0
O72 O 0.64806 0.51562 0.05332 0.0
C73 C 0.58274 0.55709 0.10368 0.0
O74 O 0.57264 0.53892 0.08228 0.0
C75 C 0.71785 0.52998 0.04357 0.0
C76 C 0.75409 0.56194 0.01765 0.0
C77 C 0.74376 0.53586 0.0316 0.0
N78 N 0.71286 0.5514 0.0369 0.0
N79 N 0.73446 0.57034 0.02114 0.0
C80 C 0.69974 0.5061 0.0638 0.0
H81 H 0.68832 0.51285 0.07889 0.0
H82 H 0.71303 0.4994 0.07616 0.0
H83 H 0.68367 0.48739 0.05136 0.0
C84 C 0.67724 0.58189 0.12911 0.0
N85 N 0.66876 0.57318 0.10211 0.0
N86 N 0.6894 0.57204 0.08809 0.0
C87 C 0.7119 0.58022 0.10597 0.0
C88 C 0.70486 0.58661 0.13255 0.0
C89 C 0.65924 0.58612 0.15083 0.0
H90 H 0.65324 0.60171 0.14244 0.0
H91 H 0.63911 0.56547 0.15436 0.0
H92 H 0.67071 0.59424 0.17143 0.0
O93 O 0.64974 0.59096 0.04916 0.0
O94 O 0.66769 0.5723 0.02041 0.0
H95 H 0.74632 0.58906 0.07713 0.0
H96 H 0.75591 0.59107 0.11436 0.0
C97 C 0.73858 0.57944 0.09853 0.0
H98 H 0.73366 0.55684 0.09801 0.0
H99 H 0.73622 0.58939 0.01349 0.0
O100 O 0.60975 0.57238 0.10675 0.0
C101 C 0.6489 0.57961 0.02519 0.0
Co102 Co 0.90968 0.5477 0.39745 0.0
Co103 Co 0.87257 0.54981 0.4481 0.0
C104 C 0.86536 0.49413 0.4264 0.0
O105 O 0.88464 0.50679 0.40751 0.0
O106 O 0.85825 0.50822 0.44304 0.0
C107 C 0.91811 0.52794 0.34546 0.0
O108 O 0.8903 0.51103 0.34859 0.0
C109 C 0.81751 0.53378 0.47231 0.0
C110 C 0.82602 0.56707 0.50458 0.0
C111 C 0.80426 0.54257 0.49184 0.0
N112 N 0.8459 0.55185 0.4735 0.0
N113 N 0.85101 0.5716 0.49309 0.0
C114 C 0.80303 0.51056 0.45039 0.0
H115 H 0.79998 0.49013 0.45936 0.0
H116 H 0.81633 0.51586 0.43078 0.0
H117 H 0.78161 0.50741 0.44468 0.0
C118 C 0.88442 0.57831 0.36761 0.0
N119 N 0.88887 0.56682 0.39131 0.0
N120 N 0.87347 0.56814 0.4125 0.0
C121 C 0.85858 0.58052 0.40273 0.0
C122 C 0.86485 0.58717 0.37398 0.0
C123 C 0.89614 0.57763 0.33877 0.0
H124 H 0.9191 0.58397 0.34067 0.0
H125 H 0.88422 0.55545 0.33024 0.0
H126 H 0.894 0.59206 0.32334 0.0
O127 O 0.93672 0.56462 0.42899 0.0
O128 O 0.91106 0.56446 0.46634 0.0
H129 H 0.8472 0.59357 0.44157 0.0
H130 H 0.83329 0.60103 0.40959 0.0
C131 C 0.83803 0.58536 0.42013 0.0
H132 H 0.81764 0.5648 0.42262 0.0
H133 H 0.87136 0.5887 0.49787 0.0
O134 O 0.93162 0.54773 0.36364 0.0
C135 C 0.93463 0.56862 0.45548 0.0
Co136 Co 0.45688 0.37267 0.39268 0.0
Co137 Co 0.45183 0.32703 0.43806 0.0
C138 C 0.50874 0.37747 0.42087 0.0
O139 O 0.49734 0.38669 0.40317 0.0
O140 O 0.49351 0.35465 0.43504 0.0
C141 C 0.47855 0.40575 0.34359 0.0
O142 O 0.49575 0.39512 0.34617 0.0
C143 C 0.46825 0.28543 0.45213 0.0
C144 C 0.43891 0.25868 0.48643 0.0
C145 C 0.46181 0.26236 0.46972 0.0
N146 N 0.45038 0.29535 0.45816 0.0
N147 N 0.43284 0.27935 0.47879 0.0
C148 C 0.48939 0.29623 0.42799 0.0
H149 H 0.51072 0.31247 0.43629 0.0
H150 H 0.48272 0.30635 0.41128 0.0
H151 H 0.49142 0.27846 0.41836 0.0
C152 C 0.42471 0.3204 0.35757 0.0
N153 N 0.43706 0.33363 0.3823 0.0
N154 N 0.43396 0.31435 0.40144 0.0
C155 C 0.4193 0.28808 0.38941 0.0
C156 C 0.41307 0.29101 0.3612 0.0
C157 C 0.42674 0.33607 0.3304 0.0
H158 H 0.41939 0.35172 0.33429 0.0
H159 H 0.44948 0.34813 0.3235 0.0
H160 H 0.41399 0.3215 0.31282 0.0
O161 O 0.43926 0.37907 0.42643 0.0
O162 O 0.43651 0.34844 0.46015 0.0
H163 H 0.40431 0.26127 0.42665 0.0
H164 H 0.39355 0.24197 0.39315 0.0
C165 C 0.41121 0.26052 0.40449 0.0
H166 H 0.43005 0.25737 0.4053 0.0
H167 H 0.41659 0.28228 0.4874 0.0
O168 O 0.45801 0.39796 0.36123 0.0
C169 C 0.43332 0.36937 0.45188 0.0
Co170 Co 0.63581 0.07789 0.39523 0.0
Co171 Co 0.67955 0.12486 0.4371 0.0
C172 C 0.62992 0.12851 0.41492 0.0
O173 O 0.62092 0.10494 0.4015 0.0
O174 O 0.65336 0.13967 0.4288 0.0
C175 C 0.60999 0.06406 0.34199 0.0
O176 O 0.62608 0.09207 0.33962 0.0
C177 C 0.71991 0.18126 0.46042 0.0
C178 C 0.75098 0.17353 0.484 0.0
C179 C 0.74494 0.1948 0.47623 0.0
N180 N 0.71112 0.1531 0.45911 0.0
N181 N 0.72962 0.14853 0.47356 0.0
C182 C 0.70646 0.19542 0.44401 0.0
H183 H 0.68724 0.19232 0.45581 0.0
H184 H 0.69976 0.18553 0.42255 0.0
H185 H 0.72138 0.21877 0.44132 0.0
C186 C 0.68888 0.09523 0.36221 0.0
N187 N 0.67509 0.09665 0.38561 0.0
N188 N 0.69344 0.11739 0.40231 0.0
C189 C 0.71933 0.13077 0.38927 0.0
C190 C 0.71723 0.11715 0.36333 0.0
C191 C 0.67548 0.07283 0.33939 0.0
H192 H 0.65809 0.05254 0.34854 0.0
H193 H 0.66636 0.08038 0.32249 0.0
H194 H 0.69181 0.06878 0.32931 0.0
O195 O 0.62867 0.05592 0.43006 0.0
O196 O 0.6557 0.08988 0.46133 0.0
H197 H 0.75346 0.15342 0.41906 0.0
H198 H 0.76148 0.16834 0.38345 0.0
C199 C 0.74441 0.15807 0.39983 0.0
H200 H 0.73721 0.17335 0.40595 0.0
H201 H 0.72825 0.12854 0.47537 0.0
O202 O 0.6113 0.05194 0.36475 0.0
C203 C 0.63643 0.06409 0.45564 0.0
Co204 Co 0.55495 0.91261 0.89865 0.0
Co205 Co 0.55305 0.87256 0.94852 0.0
C206 C 0.49934 0.8654 0.92033 0.0
O207 O 0.51313 0.8858 0.90273 0.0
O208 O 0.51239 0.85833 0.93839 0.0
C209 C 0.54471 0.92729 0.844 0.0
O210 O 0.52838 0.89927 0.84224 0.0
C211 C 0.53529 0.81545 0.96898 0.0
C212 C 0.56347 0.82184 0.00587 0.0
C213 C 0.54155 0.80094 0.98945 0.0
N214 N 0.55242 0.84377 0.97299 0.0
N215 N 0.56914 0.84754 0.99526 0.0
C216 C 0.51529 0.80237 0.94418 0.0
H217 H 0.49331 0.79654 0.951 0.0
H218 H 0.52189 0.81767 0.92605 0.0
H219 H 0.51478 0.78243 0.93703 0.0
C220 C 0.59039 0.89086 0.87176 0.0
N221 N 0.57615 0.89347 0.89423 0.0
N222 N 0.57579 0.87701 0.91525 0.0
C223 C 0.58974 0.8633 0.90659 0.0
C224 C 0.5991 0.87127 0.87866 0.0
C225 C 0.59252 0.90419 0.84309 0.0
H226 H 0.59671 0.92641 0.84577 0.0
H227 H 0.572 0.89141 0.83147 0.0
H228 H 0.60991 0.90477 0.82993 0.0
O229 O 0.56664 0.93645 0.93292 0.0
O230 O 0.56481 0.90921 0.96953 0.0
H231 H 0.59852 0.84937 0.94638 0.0
H232 H 0.61034 0.83841 0.91515 0.0
C233 C 0.59313 0.84183 0.92401 0.0
H234 H 0.57278 0.82102 0.92374 0.0
H235 H 0.58485 0.86758 0.00276 0.0
O236 O 0.55954 0.9382 0.86639 0.0
C237 C 0.56879 0.93304 0.95953 0.0
Co238 Co 0.07709 0.62758 0.90632 0.0
Co239 Co 0.12373 0.67398 0.94661 0.0
C240 C 0.12571 0.62119 0.92789 0.0
O241 O 0.1031 0.61187 0.91278 0.0
O242 O 0.13581 0.64483 0.9414 0.0
C243 C 0.03412 0.57582 0.88267 0.0
O244 O 0.03809 0.56561 0.90671 0.0
C245 C 0.18284 0.71517 0.96021 0.0
C246 C 0.17994 0.74508 0.99053 0.0
C247 C 0.19922 0.73967 0.97607 0.0
N248 N 0.155 0.70606 0.96509 0.0
N249 N 0.15334 0.72393 0.98341 0.0
C250 C 0.19365 0.70241 0.93846 0.0
H251 H 0.19905 0.68741 0.94935 0.0
H252 H 0.17718 0.69063 0.92185 0.0
H253 H 0.21346 0.7194 0.9281 0.0
C254 C 0.09725 0.67698 0.86794 0.0
N255 N 0.09693 0.66569 0.89366 0.0
N256 N 0.11615 0.6857 0.9104 0.0
C257 C 0.12934 0.71065 0.89563 0.0
C258 C 0.11796 0.70584 0.86811 0.0
C259 C 0.0791 0.65986 0.8432 0.0
H260 H 0.05627 0.64797 0.84988 0.0
H261 H 0.08533 0.64386 0.83675 0.0
H262 H 0.08134 0.67374 0.82468 0.0
O263 O 0.05711 0.62406 0.94194 0.0
O264 O 0.08948 0.65491 0.97246 0.0
H265 H 0.15934 0.7564 0.89296 0.0
H266 H 0.17388 0.73498 0.90612 0.0
C267 C 0.15472 0.7376 0.90638 0.0
H268 H 0.15079 0.74184 0.92861 0.0
H269 H 0.1341 0.72207 0.99055 0.0
O270 O 0.04842 0.60267 0.87806 0.0
C271 C 0.06407 0.6348 0.96684 0.0
Co272 Co 0.37111 0.44717 0.9039 0.0
Co273 Co 0.32718 0.44486 0.94959 0.0
C274 C 0.37879 0.50058 0.93114 0.0
O275 O 0.38702 0.48837 0.91328 0.0
O276 O 0.35621 0.48611 0.94592 0.0
C277 C 0.40044 0.46336 0.85221 0.0
O278 O 0.38894 0.47993 0.85236 0.0
C279 C 0.2873 0.46334 0.96538 0.0
C280 C 0.25967 0.43292 -0.00141 0.0
C281 C 0.26413 0.45667 0.98287 0.0
N282 N 0.29653 0.44473 0.97049 0.0
N283 N 0.28007 0.42663 0.99056 0.0
C284 C 0.29842 0.48514 0.94183 0.0
H285 H 0.30895 0.47909 0.92501 0.0
H286 H 0.28072 0.48725 0.93213 0.0
H287 H 0.31423 0.50631 0.9508 0.0
C288 C 0.31769 0.41638 0.86922 0.0
N289 N 0.33178 0.42853 0.89374 0.0
N290 N 0.31329 0.42717 0.91301 0.0
C291 C 0.28688 0.4143 0.90113 0.0
C292 C 0.28882 0.4073 0.87298 0.0
C293 C 0.33195 0.41557 0.84201 0.0
H294 H 0.34906 0.41041 0.84668 0.0
H295 H 0.34157 0.43687 0.83151 0.0
H296 H 0.31657 0.39943 0.82683 0.0
O297 O 0.3766 0.42885 0.93752 0.0
O298 O 0.34689 0.42751 0.97146 0.0
H299 H 0.25981 0.40127 0.93821 0.0
H300 H 0.2407 0.39242 0.90464 0.0
C301 C 0.26004 0.40882 0.91613 0.0
H302 H 0.25917 0.42897 0.91699 0.0
H303 H 0.28231 0.40964 -0.00172 0.0
O304 O 0.39532 0.44607 0.87277 0.0
C305 C 0.36673 0.4228 0.96287 0.0
Co306 Co 0.09516 0.45215 0.59365 0.0
Co307 Co 0.13738 0.44958 0.549 0.0
C308 C 0.14226 0.50535 0.56576 0.0
O309 O 0.12087 0.49274 0.58248 0.0
O310 O 0.15156 0.49128 0.55201 0.0
C311 C 0.08403 0.47363 0.64301 0.0
O312 O 0.11184 0.4909 0.64054 0.0
C313 C 0.19351 0.46484 0.52705 0.0
C314 C 0.18557 0.42928 0.49796 0.0
C315 C 0.20707 0.4551 0.50885 0.0
N316 N 0.16523 0.446 0.52675 0.0
N317 N 0.16052 0.42478 0.50922 0.0
C318 C 0.20755 0.49028 0.54658 0.0
H319 H 0.20957 0.50936 0.53533 0.0
H320 H 0.19449 0.4865 0.56615 0.0
H321 H 0.22935 0.49486 0.55281 0.0
C322 C 0.11728 0.42268 0.62952 0.0
N323 N 0.11549 0.43364 0.60428 0.0
N324 N 0.13355 0.43254 0.58605 0.0
C325 C 0.14783 0.42115 0.59953 0.0
C326 C 0.13813 0.41482 0.62763 0.0
C327 C 0.0998 0.42039 0.65533 0.0
H328 H 0.0775 0.41376 0.6489 0.0
H329 H 0.10928 0.44162 0.66598 0.0
H330 H 0.09941 0.40456 0.67084 0.0
O331 O 0.07049 0.43346 0.56105 0.0
O332 O 0.10029 0.43461 0.52745 0.0
H333 H 0.16599 0.40885 0.56541 0.0
H334 H 0.17902 0.4068 0.60043 0.0
C335 C 0.17229 0.41919 0.58671 0.0
H336 H 0.19086 0.44109 0.58392 0.0
H337 H 0.14032 0.40705 0.50526 0.0
O338 O 0.07133 0.45329 0.62518 0.0
C339 C 0.07546 0.42963 0.53532 0.0
Co340 Co 0.55865 0.64019 0.58468 0.0
Co341 Co 0.55554 0.68812 0.55043 0.0
C342 C 0.50484 0.63172 0.55415 0.0
O343 O 0.52037 0.62259 0.5653 0.0
O344 O 0.51467 0.65838 0.54997 0.0
C345 C 0.53268 0.59511 0.62247 0.0
O346 O 0.51235 0.60134 0.61766 0.0
C347 C 0.53758 0.72927 0.53728 0.0
C348 C 0.57392 0.76363 0.51341 0.0
C349 C 0.547 0.75566 0.52438 0.0
N350 N 0.55772 0.72171 0.53392 0.0
N351 N 0.57937 0.74224 0.51943 0.0
C352 C 0.51137 0.71305 0.5555 0.0
H353 H 0.49347 0.69726 0.54199 0.0
H354 H 0.5154 0.70133 0.57273 0.0
H355 H 0.50485 0.7277 0.56533 0.0
C356 C 0.5759 0.68245 0.63122 0.0
N357 N 0.56759 0.67395 0.60416 0.0
N358 N 0.56902 0.69538 0.58927 0.0
C359 C 0.57822 0.71839 0.60668 0.0
C360 C 0.58279 0.71086 0.63385 0.0
C361 C 0.57864 0.66405 0.65362 0.0
H362 H 0.58957 0.65302 0.64447 0.0
H363 H 0.55689 0.6474 0.66061 0.0
H364 H 0.59092 0.67685 0.67244 0.0
O365 O 0.58852 0.65116 0.55605 0.0
O366 O 0.57122 0.66898 0.52472 0.0
H367 H 0.5931 0.75387 0.57773 0.0
H368 H 0.5912 0.7631 0.6145 0.0
C369 C 0.58072 0.74634 0.5979 0.0
H370 H 0.55901 0.74314 0.5941 0.0
H371 H 0.59815 0.74202 0.51435 0.0
O372 O 0.55709 0.61042 0.61092 0.0
C373 C 0.58181 0.65292 0.53044 0.0
Co374 Co 0.35846 0.92606 0.5964 0.0
Co375 Co 0.31712 0.87631 0.55556 0.0
C376 C 0.36836 0.8771 0.57881 0.0
O377 O 0.37598 0.90102 0.59106 0.0
O378 O 0.34478 0.86392 0.56524 0.0
C379 C 0.38483 0.94215 0.64917 0.0
O380 O 0.37066 0.91405 0.65175 0.0
C381 C 0.28072 0.81962 0.53001 0.0
C382 C 0.2451 0.82353 0.51139 0.0
C383 C 0.25474 0.80432 0.51591 0.0
N384 N 0.28648 0.84681 0.53347 0.0
N385 N 0.2653 0.84913 0.52186 0.0
C386 C 0.29798 0.80773 0.54315 0.0
H387 H 0.30217 0.8141 0.56596 0.0
H388 H 0.287 0.784 0.54194 0.0
H389 H 0.31882 0.81684 0.53181 0.0
C390 C 0.30509 0.90441 0.63013 0.0
N391 N 0.31919 0.90496 0.60615 0.0
N392 N 0.30217 0.88298 0.58995 0.0
C393 C 0.27718 0.86682 0.60395 0.0
C394 C 0.27822 0.87987 0.62999 0.0
C395 C 0.31707 0.92678 0.6531 0.0
H396 H 0.33272 0.94792 0.6439 0.0
H397 H 0.328 0.9208 0.66949 0.0
H398 H 0.29953 0.92841 0.66385 0.0
O399 O 0.36429 0.94709 0.56109 0.0
O400 O 0.34014 0.91106 0.53087 0.0
H401 H 0.24218 0.83892 0.57703 0.0
H402 H 0.24032 0.82472 0.61236 0.0
C403 C 0.255 0.83725 0.59471 0.0
H404 H 0.26564 0.82551 0.58674 0.0
H405 H 0.26396 0.86783 0.52231 0.0
O406 O 0.38197 0.9534 0.62648 0.0
C407 C 0.35791 0.93753 0.53572 0.0
C408 C 0.56258 0.02301 0.32705 0.0
C409 C 0.58853 0.04773 0.31985 0.0
C410 C 0.53999 0.01102 0.30738 0.0
C411 C 0.49461 0.01681 0.27323 0.0
H412 H 0.50442 0.01731 0.19105 0.0
C413 C 0.46113 0.07463 0.19547 0.0
C414 C 0.45217 0.06407 0.16772 0.0
C415 C 0.46764 0.05918 0.21505 0.0
C416 C 0.50081 0.01623 0.21392 0.0
H417 H 0.61238 0.07759 0.28588 0.0
H418 H 0.57328 0.05651 0.25147 0.0
H419 H 0.53811 0.01285 0.22258 0.0
H420 H 0.44113 0.02825 0.13914 0.0
H421 H 0.45342 0.00154 0.1733 0.0
H422 H 0.45881 0.02274 0.26458 0.0
C423 C 0.57016 0.04641 0.27222 0.0
C424 C 0.5202 0.01384 0.23194 0.0
C425 C 0.59248 0.05868 0.29199 0.0
C426 C 0.44805 0.0369 0.16043 0.0
C427 C 0.45506 0.02162 0.17991 0.0
C428 C 0.47537 0.01945 0.25521 0.0
C429 C 0.54333 0.02323 0.2801 0.0
C430 C 0.51822 0.0158 0.2617 0.0
C431 C 0.4657 0.03305 0.2071 0.0
C432 C 0.47934 0.02086 0.22546 0.0
H433 H 0.55903 0.01416 0.34845 0.0
H434 H 0.5195 0.99316 0.31393 0.0
H435 H 0.49261 0.01847 0.2961 0.0
H436 H 0.46426 0.09542 0.20169 0.0
H437 H 0.47613 0.06871 0.23574 0.0
C438 C 0.9879 0.4109 0.17415 0.0
C439 C 0.98371 0.42173 0.14841 0.0
C440 C 0.99586 0.4277 0.19886 0.0
C441 C 0.00869 0.49863 0.22778 0.0
H442 H 0.95097 0.44845 0.28218 0.0
C443 C 0.91838 0.49818 0.30493 0.0
C444 C 0.93371 0.52141 0.32351 0.0
C445 C 0.93284 0.48932 0.28662 0.0
C446 C 0.96737 0.46276 0.26733 0.0
H447 H 0.9883 0.45976 0.12735 0.0
H448 H 0.00057 0.48838 0.17041 0.0
H449 H 0.96612 0.42784 0.24495 0.0
H450 H 0.9763 0.55459 0.33645 0.0
H451 H 0.00168 0.53908 0.30389 0.0
H452 H 0.00779 0.53341 0.24938 0.0
C453 C 0.99831 0.46725 0.17181 0.0
C454 C 0.97649 0.451 0.24615 0.0
C455 C 0.99097 0.45067 0.147 0.0
C456 C 0.96391 0.53653 0.3224 0.0
C457 C 0.97844 0.52768 0.30386 0.0
C458 C 0.99938 0.51043 0.24905 0.0
C459 C 0.99894 0.45529 0.19838 0.0
C460 C 0.99621 0.46863 0.22519 0.0
C461 C 0.96295 0.50351 0.2864 0.0
C462 C 0.97756 0.49238 0.26803 0.0
H463 H 0.98309 0.38883 0.17565 0.0
H464 H 0.99721 0.41818 0.21879 0.0
H465 H 0.02436 0.51288 0.21235 0.0
H466 H 0.89514 0.48623 0.30503 0.0
H467 H 0.92038 0.47106 0.2728 0.0
C468 C 0.57424 0.57332 0.15095 0.0
C469 C 0.56367 0.55433 0.12767 0.0
C470 C 0.55908 0.56636 0.17672 0.0
C471 C 0.49326 0.50806 0.21345 0.0
H472 H 0.54953 0.51742 0.27055 0.0
C473 C 0.5086 0.43727 0.30399 0.0
C474 C 0.48415 0.42738 0.32129 0.0
C475 C 0.51511 0.45859 0.28372 0.0
C476 C 0.53349 0.51481 0.25496 0.0
H477 H 0.52729 0.51504 0.11188 0.0
H478 H 0.50167 0.50227 0.15683 0.0
H479 H 0.56503 0.54665 0.22788 0.0
H480 H 0.44696 0.43172 0.33054 0.0
H481 H 0.45835 0.46913 0.29449 0.0
H482 H 0.46218 0.47421 0.23994 0.0
C483 C 0.52133 0.52275 0.15545 0.0
C484 C 0.54229 0.53191 0.23055 0.0
C485 C 0.53622 0.52997 0.12957 0.0
C486 C 0.466 0.43898 0.31752 0.0
C487 C 0.47248 0.46034 0.29696 0.0
C488 C 0.48448 0.49072 0.23791 0.0
C489 C 0.53341 0.53999 0.17984 0.0
C490 C 0.52254 0.52779 0.20876 0.0
C491 C 0.49734 0.47058 0.28015 0.0
C492 C 0.50483 0.493 0.25811 0.0
H493 H 0.59509 0.59259 0.14991 0.0
H494 H 0.56856 0.58065 0.19478 0.0
H495 H 0.47736 0.50475 0.19743 0.0
H496 H 0.52298 0.42874 0.30619 0.0
H497 H 0.53404 0.46552 0.27058 0.0
C498 C 0.54848 0.97351 0.82836 0.0
C499 C 0.54321 0.94579 0.82167 0.0
C500 C 0.54185 0.98888 0.80863 0.0
C501 C 0.52042 0.99002 0.73356 0.0
H502 H 0.4589 0.9984 0.76672 0.0
C503 C 0.40306 0.94964 0.69897 0.0
C504 C 0.40631 0.9597 0.67081 0.0
C505 C 0.4257 0.96285 0.71828 0.0
C506 C 0.47651 0.99697 0.7572 0.0
H507 H 0.5295 0.9135 0.78846 0.0
H508 H 0.51834 0.94039 0.75394 0.0
H509 H 0.49297 0.99424 0.79797 0.0
H510 H 0.43484 0.99261 0.64112 0.0
H511 H 0.47502 0.01523 0.67483 0.0
H512 H 0.50243 0.99019 0.69286 0.0
C513 C 0.52743 0.95027 0.77436 0.0
C514 C 0.4961 0.99473 0.77504 0.0
C515 C 0.53354 0.93472 0.79421 0.0
C516 C 0.43184 0.9845 0.6628 0.0
C517 C 0.45479 0.99741 0.682 0.0
C518 C 0.50099 0.99253 0.71571 0.0
C519 C 0.53047 0.97699 0.78177 0.0
C520 C 0.51705 0.98937 0.76337 0.0
C521 C 0.45219 0.98605 0.7096 0.0
C522 C 0.47779 0.99413 0.72747 0.0
H523 H 0.55596 0.98253 0.84943 0.0
H524 H 0.54432 0.00941 0.81482 0.0
H525 H 0.53656 0.98616 0.7241 0.0
H526 H 0.3835 0.93066 0.70566 0.0
H527 H 0.42318 0.9534 0.7393 0.0
C528 C 0.03823 0.46009 0.66927 0.0
C529 C 0.06782 0.47884 0.66536 0.0
C530 C 0.02305 0.46606 0.68988 0.0
C531 C 0.02781 0.52631 0.73172 0.0
H532 H 0.98361 0.46983 0.78972 0.0
C533 C 0.0163 0.52935 0.85715 0.0
C534 C 0.01842 0.55639 0.85882 0.0
C535 C 0.0088 0.51423 0.83139 0.0
C536 C 0.99566 0.4858 0.77356 0.0
H537 H 0.10471 0.51828 0.68016 0.0
H538 H 0.07843 0.52852 0.71592 0.0
H539 H 0.99944 0.45527 0.7471 0.0
H540 H 0.01025 0.58691 0.83652 0.0
H541 H 0.99574 0.55987 0.79193 0.0
H542 H 0.02654 0.55738 0.75872 0.0
C543 C 0.06681 0.50946 0.70285 0.0
C544 C 0.00449 0.47738 0.74906 0.0
C545 C 0.08193 0.50344 0.68253 0.0
C546 C 0.00936 0.56634 0.83554 0.0
C547 C 0.0012 0.55091 0.80998 0.0
C548 C 0.01923 0.53475 0.75616 0.0
C549 C 0.0372 0.49103 0.70659 0.0
C550 C 0.02192 0.49793 0.7287 0.0
C551 C 0.00281 0.5257 0.80699 0.0
C552 C 0.0043 0.51491 0.77811 0.0
H553 H 0.0268 0.44092 0.65635 0.0
H554 H 0.00026 0.45145 0.69248 0.0
H555 H 0.04072 0.54246 0.71599 0.0
H556 H 0.02299 0.52106 0.87487 0.0
H557 H 0.01037 0.49496 0.83007 0.0
C558 C 0.5485 0.56979 0.65681 0.0
C559 C 0.52666 0.57078 0.64126 0.0
C560 C 0.54153 0.54827 0.67732 0.0
C561 C 0.47993 0.4803 0.70578 0.0
H562 H 0.5079 0.51605 0.77971 0.0
C563 C 0.41065 0.46865 0.80025 0.0
C564 C 0.41789 0.46409 0.82776 0.0
C565 C 0.42821 0.47171 0.77709 0.0
C566 C 0.50046 0.50537 0.75927 0.0
H567 H 0.4809 0.54903 0.6331 0.0
H568 H 0.46878 0.512 0.66855 0.0
H569 H 0.53368 0.54093 0.73655 0.0
H570 H 0.44852 0.45835 0.85286 0.0
H571 H 0.4804 0.46537 0.81211 0.0
H572 H 0.44481 0.44634 0.72853 0.0
C573 C 0.49125 0.52744 0.66513 0.0
C574 C 0.51525 0.51958 0.7345 0.0
C575 C 0.49814 0.54897 0.64505 0.0
C576 C 0.44256 0.46178 0.83171 0.0
C577 C 0.46067 0.4657 0.80855 0.0
C578 C 0.46495 0.46632 0.73051 0.0
C579 C 0.51271 0.52727 0.68214 0.0
C580 C 0.50395 0.50807 0.70744 0.0
C581 C 0.45368 0.47093 0.78114 0.0
C582 C 0.47419 0.47963 0.75723 0.0
H583 H 0.5707 0.58637 0.65415 0.0
H584 H 0.55851 0.54865 0.6901 0.0
H585 H 0.47112 0.4706 0.68523 0.0
H586 H 0.39162 0.47032 0.79672 0.0
H587 H 0.42264 0.47619 0.7562 0.0
C588 C 0.45381 0.07075 0.98969 0.0
C589 C 0.43233 0.05921 0.01073 0.0
C590 C 0.46828 0.05621 0.98186 0.0
C591 C 0.47065 0.98852 0.9918 0.0
H592 H 0.55257 0.04084 -0.0011 0.0
C593 C 0.5458 0.9433 0.00016 0.0
C594 C 0.56656 0.95384 0.97838 0.0
C595 C 0.53197 0.95847 0.00794 0.0
C596 C 0.52977 0.02598 0.99686 0.0
H597 H 0.40602 0.02167 0.03659 0.0
H598 H 0.43067 0.9961 0.02261 0.0
H599 H 0.51978 0.0598 -0.00247 0.0
H600 H 0.59271 0.99058 0.95146 0.0
H601 H 0.56917 0.01727 0.96543 0.0
H602 H 0.48063 0.9547 0.99124 0.0
C603 C 0.43688 0.01648 0.01244 0.0
C604 C 0.51097 0.03682 0.9957 0.0
C605 C 0.42253 0.03104 0.02031 0.0
C606 C 0.57665 0.98189 0.96821 0.0
C607 C 0.56295 0.9971 0.97607 0.0
C608 C 0.48943 0.97768 0.99303 0.0
C609 C 0.4612 0.0298 0.99471 0.0
C610 C 0.48116 0.01823 0.99315 0.0
C611 C 0.53905 0.98455 0.99437 0.0
C612 C 0.51922 0.99626 0.99565 0.0
H613 H 0.4619 0.09246 0.98199 0.0
H614 H 0.48643 0.06665 0.96748 0.0
H615 H 0.44786 0.97362 0.98968 0.0
H616 H 0.53756 0.92177 0.00844 0.0
H617 H 0.51415 0.94866 0.02278 0.0
C618 C 0.97853 0.39713 0.02395 0.0
C619 C 0.94946 0.3788 0.01725 0.0
C620 C 0.99183 0.42624 0.01702 0.0
C621 C 0.98296 0.48264 0.98034 0.0
H622 H 0.01542 0.52459 0.05088 0.0
C623 C 0.0158 0.59957 0.98395 0.0
C624 C 0.04527 0.6163 0.98986 0.0
C625 C 0.00062 0.57092 0.99268 0.0
C626 C 0.00643 0.5132 0.03105 0.0
H627 H 0.91334 0.37525 0.99329 0.0
H628 H 0.93665 0.42582 0.98073 0.0
H629 H 0.00055 0.47374 0.04815 0.0
H630 H 0.08014 0.61852 0.01499 0.0
H631 H 0.05374 0.56888 0.03054 0.0
H632 H 0.98904 0.5221 0.96314 0.0
C633 C 0.94904 0.41803 0.99194 0.0
C634 C 0.99821 0.48414 0.02932 0.0
C635 C 0.93575 0.38884 -0.00118 0.0
C636 C 0.0575 0.60605 0.00987 0.0
C637 C 0.04239 0.57731 0.01849 0.0
C638 C 0.99119 0.5117 0.98206 0.0
C639 C 0.97634 0.43731 0.00299 0.0
C640 C 0.98658 0.46858 0.00388 0.0
C641 C 0.01469 0.5589 0.00775 0.0
C642 C 0.00308 0.52735 0.00742 0.0
H643 H 0.9897 0.38987 0.03792 0.0
H644 H 0.01331 0.44047 0.02492 0.0
H645 H 0.97412 0.47129 0.96046 0.0
H646 H 0.00573 0.60713 0.96888 0.0
H647 H 0.97888 0.55749 0.98503 0.0
C648 C 0.39606 0.43785 0.00666 0.0
C649 C 0.38498 0.41869 0.98359 0.0
C650 C 0.42376 0.4468 0.01667 0.0
C651 C 0.48954 0.45719 0.9822 0.0
H652 H 0.52435 0.50073 0.0511 0.0
C653 C 0.61256 0.53469 -0.00037 0.0
C654 C 0.61965 0.56061 0.01363 0.0
C655 C 0.5838 0.51343 0.99606 0.0
C656 C 0.51489 0.48868 0.0317 0.0
H657 H 0.39134 0.38946 0.95691 0.0
H658 H 0.43882 0.40353 0.97568 0.0
H659 H 0.47342 0.46502 0.051 0.0
H660 H 0.60209 0.58586 0.03139 0.0
H661 H 0.55212 0.54898 0.02477 0.0
H662 H 0.53118 0.48111 0.96301 0.0
C663 C 0.42706 0.41306 0.98491 0.0
C664 C 0.48571 0.46814 0.03166 0.0
C665 C 0.39959 0.40453 0.97454 0.0
C666 C 0.5974 0.56595 0.02105 0.0
C667 C 0.56878 0.54474 0.01752 0.0
C668 C 0.51883 0.47742 0.98242 0.0
C669 C 0.44045 0.43618 0.00415 0.0
C670 C 0.47237 0.45286 0.00658 0.0
C671 C 0.56173 0.5178 0.00632 0.0
C672 C 0.53152 0.4941 0.00683 0.0
H673 H 0.3853 0.44916 0.01402 0.0
H674 H 0.43307 0.46444 0.03172 0.0
H675 H 0.48015 0.44629 0.96227 0.0
H676 H 0.6291 0.52987 0.9934 0.0
H677 H 0.5789 0.49293 0.98702 0.0
C678 C 0.02695 0.42047 0.52273 0.0
C679 C 0.05526 0.42971 0.51401 0.0
C680 C 0.01265 0.43443 0.51273 0.0
C681 C 0.03578 0.50813 0.49128 0.0
H682 H 0.95425 0.4813 0.4898 0.0
C683 C 0.98365 0.57628 0.46226 0.0
C684 C 0.95646 0.56779 0.47395 0.0
C685 C 0.9985 0.56222 0.4702 0.0
C686 C 0.9771 0.48913 0.49069 0.0
H687 H 0.08825 0.4563 0.48346 0.0
H688 H 0.06284 0.47983 0.46517 0.0
H689 H 0.97077 0.44655 0.48933 0.0
H690 H 0.92623 0.54198 0.50698 0.0
H691 H 0.95249 0.51797 0.5213 0.0
H692 H 0.04203 0.55074 0.49245 0.0
C693 C 0.05229 0.4629 0.48087 0.0
C694 C 0.98656 0.4692 0.49009 0.0
C695 C 0.0666 0.44892 0.49092 0.0
C696 C 0.947 0.54887 0.49737 0.0
C697 C 0.96177 0.53466 0.5052 0.0
C698 C 0.02631 0.52806 0.49172 0.0
C699 C 0.02629 0.45747 0.49346 0.0
C700 C 0.01602 0.47842 0.49052 0.0
C701 C 0.98647 0.53967 0.49013 0.0
C702 C 0.99686 0.51878 0.49169 0.0
H703 H 0.01752 0.40543 0.54029 0.0
H704 H 0.99245 0.42932 0.52264 0.0
H705 H 0.05864 0.51604 0.49239 0.0
H706 H 0.99158 0.59099 0.44432 0.0
H707 H 0.0177 0.56686 0.45845 0.0
C708 C 0.45027 0.39673 0.49694 0.0
C709 C 0.43205 0.38904 0.47306 0.0
C710 C 0.46278 0.4246 0.50792 0.0
C711 C 0.46699 0.49549 0.50282 0.0
H712 H 0.5483 0.52349 0.49228 0.0
C713 C 0.5466 0.61645 0.49636 0.0
C714 C 0.57129 0.62622 0.51347 0.0
C715 C 0.52946 0.58721 0.49021 0.0
C716 C 0.52576 0.51613 0.49568 0.0
H717 H 0.40816 0.40221 0.44578 0.0
H718 H 0.42924 0.45045 0.4655 0.0
H719 H 0.51469 0.47217 0.49205 0.0
H720 H 0.59935 0.61349 0.53399 0.0
H721 H 0.5697 0.56284 0.52333 0.0
H722 H 0.47808 0.5395 0.50667 0.0
C723 C 0.43459 0.43543 0.47524 0.0
C724 C 0.50648 0.48664 0.49574 0.0
C725 C 0.42232 0.40768 0.46407 0.0
C726 C 0.58039 0.60668 0.52093 0.0
C727 C 0.56321 0.57749 0.5149 0.0
C728 C 0.48636 0.52507 0.50313 0.0
C729 C 0.45668 0.44481 0.49557 0.0
C730 C 0.47689 0.47598 0.4992 0.0
C731 C 0.53675 0.5672 0.50081 0.0
C732 C 0.51601 0.53578 0.49936 0.0
H733 H 0.45814 0.38284 0.50441 0.0
H734 H 0.4793 0.43115 0.5241 0.0
H735 H 0.44429 0.48786 0.50536 0.0
H736 H 0.53892 0.63082 0.49006 0.0
H737 H 0.5097 0.58015 0.47846 0.0
C738 C 0.60713 0.06036 0.49783 0.0
C739 C 0.61552 0.04643 0.47784 0.0
C740 C 0.57864 0.04721 0.50708 0.0
C741 C 0.50701 0.98093 0.50271 0.0
H742 H 0.48137 0.03498 0.48447 0.0
C743 C 0.38792 0.94039 0.49431 0.0
C744 C 0.37938 0.95473 0.51367 0.0
C745 C 0.41651 0.95326 0.48542 0.0
C746 C 0.48817 0.01965 0.48968 0.0
H747 H 0.60269 0.00584 0.45695 0.0
H748 H 0.55333 0.98274 0.47348 0.0
H749 H 0.53256 0.05152 0.48691 0.0
H750 H 0.39219 0.99578 0.53356 0.0
H751 H 0.44172 0.01831 0.51776 0.0
H752 H 0.46262 0.94906 0.50552 0.0
C753 C 0.56823 0.00405 0.48134 0.0
C754 C 0.5175 0.02917 0.49144 0.0
C755 C 0.59667 0.01722 0.47203 0.0
C756 C 0.3983 0.98402 0.51908 0.0
C757 C 0.42685 0.99689 0.51017 0.0
C758 C 0.47767 0.97142 0.50098 0.0
C759 C 0.55844 0.01983 0.49692 0.0
C760 C 0.52727 0.00993 0.49802 0.0
C761 C 0.4367 0.98077 0.49529 0.0
C762 C 0.46789 0.99066 0.49437 0.0
H763 H 0.62121 0.08277 0.50304 0.0
H764 H 0.57185 0.05951 0.51995 0.0
H765 H 0.51384 0.96561 0.50783 0.0
H766 H 0.3738 0.91794 0.4893 0.0
H767 H 0.42331 0.9407 0.473 0.0
C768 C 0.41644 0.25305 0.33399 0.0
C769 C 0.40257 0.26891 0.33856 0.0
C770 C 0.4097 0.23526 0.31014 0.0
C771 C 0.35861 0.20128 0.24991 0.0
H772 H 0.42712 0.21221 0.21127 0.0
C773 C 0.36039 0.13473 0.1522 0.0
C774 C 0.3829 0.14909 0.1326 0.0
C775 C 0.35843 0.14913 0.17629 0.0
C776 C 0.40775 0.20915 0.22156 0.0
H777 H 0.36923 0.27697 0.32343 0.0
H778 H 0.3579 0.24641 0.28103 0.0
H779 H 0.43146 0.23548 0.25678 0.0
H780 H 0.41942 0.19023 0.12122 0.0
H781 H 0.41525 0.21562 0.16226 0.0
H782 H 0.33503 0.17522 0.21401 0.0
C783 C 0.37387 0.24757 0.29592 0.0
C784 C 0.41021 0.2221 0.24796 0.0
C785 C 0.3805 0.26524 0.31998 0.0
C786 C 0.40177 0.17863 0.13595 0.0
C787 C 0.39964 0.19307 0.15971 0.0
C788 C 0.35613 0.1882 0.22331 0.0
C789 C 0.38911 0.23316 0.29025 0.0
C790 C 0.38572 0.21832 0.26253 0.0
C791 C 0.37886 0.17818 0.18088 0.0
C792 C 0.38075 0.19219 0.20879 0.0
H793 H 0.43348 0.25547 0.3481 0.0
H794 H 0.42137 0.22393 0.30673 0.0
H795 H 0.33934 0.19791 0.26067 0.0
H796 H 0.34534 0.112 0.14976 0.0
H797 H 0.34209 0.13709 0.19215 0.0
C798 C 0.72845 0.13115 0.31226 0.0
C799 C 0.73775 0.12758 0.33918 0.0
C800 C 0.74729 0.14121 0.28918 0.0
C801 C 0.82248 0.18586 0.27096 0.0
H802 H 0.79509 0.15405 0.19544 0.0
C803 C 0.88498 0.24285 0.16815 0.0
C804 C 0.86777 0.24684 0.14816 0.0
C805 C 0.87239 0.22349 0.19082 0.0
C806 C 0.80313 0.16308 0.21639 0.0
H807 H 0.77403 0.13182 0.36326 0.0
H808 H 0.80759 0.15027 0.32264 0.0
H809 H 0.76687 0.1289 0.23749 0.0
H810 H 0.82398 0.23354 0.13608 0.0
H811 H 0.8021 0.1994 0.17483 0.0
H812 H 0.85809 0.22077 0.2497 0.0
C813 C 0.78551 0.14493 0.3195 0.0
C814 C 0.78699 0.14871 0.24045 0.0
C815 C 0.76643 0.13448 0.34267 0.0
C816 C 0.83782 0.23033 0.15056 0.0
C817 C 0.82527 0.21084 0.17293 0.0
C818 C 0.83866 0.2003 0.24683 0.0
C819 C 0.77603 0.14827 0.29249 0.0
C820 C 0.79593 0.16051 0.26788 0.0
C821 C 0.84237 0.2076 0.19365 0.0
C822 C 0.82857 0.18959 0.21924 0.0
H823 H 0.70668 0.12676 0.30914 0.0
H824 H 0.7395 0.14426 0.26886 0.0
H825 H 0.82983 0.19551 0.29183 0.0
H826 H 0.90815 0.25533 0.1667 0.0
H827 H 0.88609 0.22134 0.20641 0.0
C828 C 0.81895 0.57636 0.3506 0.0
C829 C 0.8487 0.59438 0.35324 0.0
C830 C 0.80386 0.58093 0.32888 0.0
C831 C 0.81523 0.61229 0.25708 0.0
H832 H 0.73684 0.59601 0.26611 0.0
C833 C 0.74913 0.61624 0.1616 0.0
C834 C 0.72126 0.59267 0.15946 0.0
C835 C 0.76512 0.62081 0.18661 0.0
C836 C 0.7587 0.60055 0.26324 0.0
H837 H 0.88589 0.63217 0.33662 0.0
H838 H 0.85952 0.64038 0.29849 0.0
H839 H 0.76424 0.5969 0.30809 0.0
H840 H 0.68782 0.55578 0.18162 0.0
H841 H 0.71562 0.56362 0.22535 0.0
H842 H 0.80949 0.61527 0.21219 0.0
C843 C 0.8479 0.62242 0.31288 0.0
C844 C 0.77439 0.60107 0.28728 0.0
C845 C 0.86297 0.61782 0.33467 0.0
C846 C 0.70926 0.5742 0.18292 0.0
C847 C 0.72515 0.57879 0.20794 0.0
C848 C 0.79955 0.61181 0.23305 0.0
C849 C 0.81825 0.60366 0.30939 0.0
C850 C 0.80266 0.60638 0.28442 0.0
C851 C 0.7534 0.60194 0.20996 0.0
C852 C 0.77092 0.60538 0.23579 0.0
H853 H 0.80755 0.55799 0.36458 0.0
H854 H 0.78114 0.56585 0.32661 0.0
H855 H 0.8368 0.61605 0.25404 0.0
H856 H 0.75862 0.63094 0.14382 0.0
H857 H 0.78668 0.63903 0.18763 0.0
C858 C 0.63046 0.86902 0.84025 0.0
C859 C 0.60635 0.85505 0.85805 0.0
C860 C 0.63457 0.85407 0.81796 0.0
C861 C 0.60965 0.78081 0.78934 0.0
H862 H 0.62302 0.81787 0.71531 0.0
C863 C 0.57308 0.71732 0.68452 0.0
C864 C 0.59068 0.72809 0.66033 0.0
C865 C 0.58012 0.73339 0.70967 0.0
C866 C 0.6198 0.80738 0.73585 0.0
H867 H 0.56831 0.81445 0.86757 0.0
H868 H 0.57549 0.78829 0.82902 0.0
H869 H 0.62738 0.84508 0.75855 0.0
H870 H 0.62983 0.76352 0.64341 0.0
H871 H 0.64212 0.79203 0.68745 0.0
H872 H 0.6011 0.74283 0.76655 0.0
C873 C 0.59142 0.81065 0.83221 0.0
C874 C 0.62236 0.82299 0.76065 0.0
C875 C 0.58727 0.82561 0.85429 0.0
C876 C 0.61569 0.75505 0.66173 0.0
C877 C 0.62272 0.77125 0.68689 0.0
C878 C 0.60707 0.76521 0.76457 0.0
C879 C 0.61471 0.82485 0.81333 0.0
C880 C 0.61654 0.80965 0.78761 0.0
C881 C 0.60494 0.7606 0.71112 0.0
C882 C 0.61135 0.77811 0.7375 0.0
H883 H 0.64562 0.89167 0.84304 0.0
H884 H 0.65291 0.86549 0.80397 0.0
H885 H 0.60551 0.77007 0.80985 0.0
H886 H 0.5536 0.6966 0.68384 0.0
H887 H 0.56571 0.72477 0.72777 0.0
C888 C 0.14089 0.71439 0.82024 0.0
C889 C 0.13087 0.72426 0.84274 0.0
C890 C 0.15455 0.73193 0.79679 0.0
C891 C 0.16741 0.7976 0.75845 0.0
H892 H 0.23501 0.79624 0.73192 0.0
C893 C 0.23013 0.85374 0.65424 0.0
C894 C 0.26007 0.86606 0.65537 0.0
C895 C 0.21316 0.8381 0.67758 0.0
C896 C 0.21636 0.79714 0.73919 0.0
H897 H 0.12633 0.7597 0.85821 0.0
H898 H 0.15109 0.79102 0.81731 0.0
H899 H 0.20754 0.76579 0.77148 0.0
H900 H 0.29579 0.87209 0.68176 0.0
H901 H 0.2666 0.84617 0.72266 0.0
H902 H 0.17689 0.82963 0.72629 0.0
C903 C 0.14803 0.76953 0.81765 0.0
C904 C 0.20034 0.77933 0.76165 0.0
C905 C 0.13415 0.75179 0.84114 0.0
C906 C 0.27282 0.86335 0.68046 0.0
C907 C 0.25601 0.84803 0.70375 0.0
C908 C 0.18356 0.81556 0.73587 0.0
C909 C 0.15879 0.75991 0.79542 0.0
C910 C 0.17563 0.77923 0.77153 0.0
C911 C 0.22595 0.83459 0.70237 0.0
C912 C 0.20831 0.81559 0.7261 0.0
H913 H 0.13867 0.69323 0.82107 0.0
H914 H 0.16208 0.72365 0.77981 0.0
H915 H 0.14836 0.79787 0.76546 0.0
H916 H 0.21987 0.85554 0.63504 0.0
H917 H 0.19004 0.82786 0.6758 0.0
C918 C 0.15414 0.38396 0.65304 0.0
C919 C 0.15164 0.40872 0.65211 0.0
C920 C 0.16555 0.37798 0.67734 0.0
C921 C 0.17641 0.39403 0.75428 0.0
H922 H 0.23912 0.37823 0.74881 0.0
C923 C 0.25566 0.41799 0.84565 0.0
C924 C 0.26717 0.4 0.85026 0.0
C925 C 0.23742 0.41326 0.82257 0.0
C926 C 0.22121 0.38201 0.75073 0.0
H927 H 0.15981 0.44705 0.67506 0.0
H928 H 0.17927 0.43654 0.71739 0.0
H929 H 0.21525 0.38074 0.70525 0.0
H930 H 0.26765 0.36211 0.83551 0.0
H931 H 0.23571 0.35379 0.79468 0.0
H932 H 0.18265 0.39599 0.79956 0.0
C933 C 0.17216 0.42152 0.69971 0.0
C934 C 0.20761 0.3835 0.72578 0.0
C935 C 0.16111 0.42758 0.67548 0.0
C936 C 0.25931 0.3765 0.83203 0.0
C937 C 0.2411 0.37179 0.80875 0.0
C938 C 0.18986 0.39242 0.77914 0.0
C939 C 0.17423 0.39653 0.70107 0.0
C940 C 0.18572 0.39046 0.72732 0.0
C941 C 0.23027 0.39038 0.80356 0.0
C942 C 0.21304 0.38734 0.77761 0.0
H943 H 0.14676 0.36903 0.63529 0.0
H944 H 0.16697 0.35858 0.67786 0.0
H945 H 0.15919 0.39887 0.7561 0.0
H946 H 0.26164 0.43641 0.85931 0.0
H947 H 0.22986 0.42827 0.81897 0.0
C948 C 0.45324 0.25333 0.03041 0.0
C949 C 0.45623 0.24031 0.00569 0.0
C950 C 0.46635 0.28314 0.03229 0.0
C951 C 0.49141 0.34728 0.03152 0.0
H952 H 0.56667 0.38727 0.9965 0.0
C953 C 0.57087 0.46819 0.05248 0.0
C954 C 0.60016 0.47669 0.05378 0.0
C955 C 0.55063 0.44048 0.04353 0.0
C956 C 0.54582 0.37644 0.0067 0.0
H957 H 0.47205 0.24765 0.96223 0.0
H958 H 0.49405 0.29992 0.96484 0.0
H959 H 0.53495 0.33705 0.98586 0.0
H960 H 0.63095 0.46225 0.04821 0.0
H961 H 0.59581 0.41375 0.03438 0.0
H962 H 0.50325 0.38625 0.05402 0.0
C963 C 0.48285 0.28727 0.98342 0.0
C964 C 0.52727 0.34762 0.0001 0.0
C965 C 0.47002 0.25734 0.98175 0.0
C966 C 0.60862 0.45655 0.04712 0.0
C967 C 0.58841 0.42874 0.03879 0.0
C968 C 0.51019 0.37603 0.03851 0.0
C969 C 0.48218 0.30064 0.00914 0.0
C970 C 0.50004 0.33238 0.01293 0.0
C971 C 0.55919 0.42042 0.03634 0.0
C972 C 0.53796 0.39078 0.02677 0.0
H973 H 0.44173 0.24046 0.04881 0.0
H974 H 0.46528 0.29236 0.0525 0.0
H975 H 0.47038 0.33654 0.04134 0.0
H976 H 0.56366 0.48322 0.05748 0.0
H977 H 0.52841 0.43504 0.04171 0.0
C978 C 0.74794 0.25001 0.01122 0.0
C979 C 0.76329 0.2425 0.03023 0.0
C980 C 0.7187 0.23989 0.0156 0.0
C981 C 0.66448 0.21218 0.07329 0.0
H982 H 0.61022 0.19056 0.0108 0.0
C983 C 0.54143 0.15606 0.08948 0.0
C984 C 0.5257 0.16364 0.07094 0.0
C985 C 0.5709 0.16733 0.08548 0.0
C986 C 0.62519 0.1969 0.02847 0.0
H987 H 0.7599 0.21667 0.06712 0.0
H988 H 0.70885 0.1988 0.07477 0.0
H989 H 0.66012 0.20512 0.0007 0.0
H990 H 0.52904 0.19027 0.03456 0.0
H991 H 0.58039 0.21014 0.02792 0.0
H992 H 0.62947 0.20375 0.10106 0.0
C993 C 0.71947 0.21326 0.05706 0.0
C994 C 0.65379 0.20519 0.02267 0.0
C995 C 0.74867 0.22345 0.0527 0.0
C996 C 0.5404 0.18386 0.04922 0.0
C997 C 0.56982 0.19506 0.04521 0.0
C998 C 0.63587 0.20383 0.07909 0.0
C999 C 0.70427 0.22189 0.03897 0.0
C1000 C 0.67377 0.21286 0.04502 0.0
C1001 C 0.58527 0.1864 0.06284 0.0
C1002 C 0.61589 0.19608 0.05675 0.0
H1003 H 0.75883 0.26474 0.99376 0.0
H1004 H 0.70769 0.24706 0.00133 0.0
H1005 H 0.67943 0.21848 0.09098 0.0
H1006 H 0.53082 0.14054 0.10641 0.0
H1007 H 0.58216 0.16012 0.09936 0.0
C1008 C 0.87175 0.40804 0.09743 0.0
C1009 C 0.85691 0.3793 0.08827 0.0
C1010 C 0.85985 0.42574 0.0935 0.0
C1011 C 0.79214 0.42515 0.08006 0.0
H1012 H 0.84004 0.49774 0.04169 0.0
C1013 C 0.74334 0.48931 0.03214 0.0
C1014 C 0.75856 0.51922 0.03539 0.0
C1015 C 0.75624 0.47305 0.03877 0.0
C1016 C 0.82647 0.47776 0.05277 0.0
H1017 H 0.81738 0.3462 0.06917 0.0
H1018 H 0.79646 0.37693 0.06284 0.0
H1019 H 0.86037 0.46788 0.05576 0.0
H1020 H 0.79943 0.55589 0.04688 0.0
H1021 H 0.82202 0.52748 0.05906 0.0
H1022 H 0.7583 0.43493 0.0774 0.0
C1023 C 0.81734 0.38582 0.07288 0.0
C1024 C 0.83814 0.46067 0.06084 0.0
C1025 C 0.82936 0.36825 0.07645 0.0
C1026 C 0.78732 0.53281 0.04417 0.0
C1027 C 0.8002 0.51651 0.05111 0.0
C1028 C 0.78054 0.44232 0.07226 0.0
C1029 C 0.83273 0.41491 0.08075 0.0
C1030 C 0.82098 0.43404 0.07426 0.0
C1031 C 0.7846 0.48635 0.04902 0.0
C1032 C 0.79743 0.46867 0.05814 0.0
H1033 H 0.89309 0.41723 0.10646 0.0
H1034 H 0.87205 0.44802 0.10001 0.0
H1035 H 0.77851 0.40488 0.09068 0.0
H1036 H 0.72129 0.47843 0.02482 0.0
H1037 H 0.74384 0.44999 0.03605 0.0
C1038 C 0.756 0.50133 0.50202 0.0
C1039 C 0.77311 0.53036 0.49469 0.0
C1040 C 0.72636 0.48736 0.49795 0.0
C1041 C 0.67545 0.48916 0.44891 0.0
H1042 H 0.61806 0.43263 0.49965 0.0
C1043 C 0.55542 0.42376 0.41797 0.0
C1044 C 0.53969 0.39519 0.4275 0.0
C1045 C 0.58359 0.44166 0.42721 0.0
C1046 C 0.63387 0.44808 0.48507 0.0
H1047 H 0.77308 0.56802 0.47849 0.0
H1048 H 0.72094 0.54348 0.47113 0.0
H1049 H 0.66719 0.46257 0.51658 0.0
H1050 H 0.54172 0.3627 0.4533 0.0
H1051 H 0.59113 0.39348 0.46843 0.0
H1052 H 0.64267 0.47402 0.41698 0.0
C1053 C 0.73044 0.53162 0.48021 0.0
C1054 C 0.66193 0.46538 0.4949 0.0
C1055 C 0.76011 0.54571 0.48471 0.0
C1056 C 0.55316 0.38461 0.44559 0.0
C1057 C 0.58142 0.4024 0.45457 0.0
C1058 C 0.64749 0.47165 0.43896 0.0
C1059 C 0.71344 0.5021 0.48601 0.0
C1060 C 0.68304 0.48591 0.47683 0.0
C1061 C 0.59682 0.43132 0.44596 0.0
C1062 C 0.6264 0.45065 0.4568 0.0
H1063 H 0.76579 0.48908 0.50934 0.0
H1064 H 0.71384 0.46457 0.50235 0.0
H1065 H 0.69143 0.50448 0.43435 0.0
H1066 H 0.54564 0.43269 0.4042 0.0
H1067 H 0.59464 0.46385 0.42033 0.0
C1068 C 0.62299 0.17014 0.42623 0.0
C1069 C 0.61136 0.14151 0.41734 0.0
C1070 C 0.60513 0.18132 0.43259 0.0
C1071 C 0.53125 0.16911 0.42402 0.0
H1072 H 0.55258 0.21912 0.4902 0.0
C1073 C 0.46112 0.21552 0.46601 0.0
C1074 C 0.47649 0.24537 0.46998 0.0
C1075 C 0.47577 0.20034 0.46195 0.0
C1076 C 0.54636 0.20522 0.47165 0.0
H1077 H 0.57182 0.10246 0.40705 0.0
H1078 H 0.54056 0.12191 0.41842 0.0
H1079 H 0.58179 0.19807 0.47661 0.0
H1080 H 0.51881 0.28258 0.4746 0.0
H1081 H 0.54436 0.25622 0.46791 0.0
H1082 H 0.4958 0.17647 0.41914 0.0
C1083 C 0.56355 0.13582 0.42025 0.0
C1084 C 0.56319 0.19329 0.46373 0.0
C1085 C 0.58149 0.12468 0.4137 0.0
C1086 C 0.50653 0.25957 0.47139 0.0
C1087 C 0.52112 0.24444 0.46771 0.0
C1088 C 0.5143 0.18098 0.43207 0.0
C1089 C 0.57514 0.1641 0.43041 0.0
C1090 C 0.55619 0.17552 0.43949 0.0
C1091 C 0.50597 0.21476 0.46233 0.0
C1092 C 0.52197 0.19957 0.45568 0.0
H1093 H 0.64591 0.18382 0.42876 0.0
H1094 H 0.61487 0.20344 0.43954 0.0
H1095 H 0.52531 0.15567 0.40516 0.0
H1096 H 0.43791 0.2042 0.46474 0.0
H1097 H 0.46354 0.17743 0.4581 0.0
C1098 C 0.83095 0.44812 0.45091 0.0
C1099 C 0.85325 0.46295 0.43113 0.0
C1100 C 0.82159 0.41945 0.4576 0.0
C1101 C 0.82387 0.35514 0.4323 0.0
H1102 H 0.80184 0.32998 0.51064 0.0
C1103 C 0.79061 0.24019 0.46703 0.0
C1104 C 0.76338 0.22599 0.47974 0.0
C1105 C 0.80532 0.2701 0.46439 0.0
C1106 C 0.80801 0.33677 0.48872 0.0
H1107 H 0.88293 0.45906 0.40256 0.0
H1108 H 0.86707 0.40937 0.41467 0.0
H1109 H 0.81917 0.38005 0.49803 0.0
H1110 H 0.73086 0.2314 0.5014 0.0
H1111 H 0.75678 0.28373 0.49741 0.0
H1112 H 0.81271 0.3118 0.4231 0.0
C1113 C 0.85638 0.41967 0.42465 0.0
C1114 C 0.8177 0.36537 0.48139 0.0
C1115 C 0.86554 0.44824 0.41773 0.0
C1116 C 0.75197 0.24208 0.49168 0.0
C1117 C 0.76679 0.27195 0.48938 0.0
C1118 C 0.81447 0.32664 0.43971 0.0
C1119 C 0.83451 0.40499 0.44493 0.0
C1120 C 0.82534 0.37483 0.45299 0.0
C1121 C 0.79312 0.28616 0.47478 0.0
C1122 C 0.80608 0.31708 0.46789 0.0
H1123 H 0.82099 0.45875 0.46163 0.0
H1124 H 0.80425 0.40867 0.47282 0.0
H1125 H 0.82917 0.3615 0.41017 0.0
H1126 H 0.79962 0.22808 0.45747 0.0
H1127 H 0.82571 0.28059 0.45326 0.0
C1128 C 0.42539 0.54707 0.92702 0.0
C1129 C 0.39684 0.53178 0.93666 0.0
C1130 C 0.44319 0.57583 0.93473 0.0
C1131 C 0.44857 0.62984 0.98817 0.0
H1132 H 0.50495 0.68443 0.93531 0.0
C1133 C 0.49907 0.75266 0.99641 0.0
C1134 C 0.52862 0.76961 0.99143 0.0
C1135 C 0.48538 0.72291 0.99315 0.0
C1136 C 0.48958 0.6693 0.95044 0.0
H1137 H 0.36442 0.5351 0.96123 0.0
H1138 H 0.3948 0.5853 0.97345 0.0
H1139 H 0.47564 0.63427 0.92117 0.0
H1140 H 0.5673 0.76927 0.97954 0.0
H1141 H 0.54319 0.71691 0.97331 0.0
H1142 H 0.46174 0.66535 0.01684 0.0
C1143 C 0.4039 0.57495 0.96078 0.0
C1144 C 0.47276 0.64053 0.94237 0.0
C1145 C 0.38627 0.54616 0.95343 0.0
C1146 C 0.54455 0.75642 0.98395 0.0
C1147 C 0.53074 0.72663 0.98014 0.0
C1148 C 0.46509 0.65866 0.99603 0.0
C1149 C 0.43276 0.59007 0.95199 0.0
C1150 C 0.45175 0.62046 0.96099 0.0
C1151 C 0.50094 0.7097 0.98423 0.0
C1152 C 0.48553 0.67871 0.97714 0.0
H1153 H 0.4343 0.53658 0.91427 0.0
H1154 H 0.46535 0.58661 0.92777 0.0
H1155 H 0.43319 0.61494 0.00341 0.0
H1156 H 0.4864 0.76258 0.00177 0.0
H1157 H 0.46236 0.71041 0.99615 0.0
C1158 C 0.24691 0.74379 0.98238 0.0
C1159 C 0.23073 0.75697 0.97598 0.0
C1160 C 0.27653 0.75848 0.97817 0.0
C1161 C 0.33093 0.81236 0.93238 0.0
H1162 H 0.38412 0.81029 0.98695 0.0
C1163 C 0.45355 0.86577 0.91118 0.0
C1164 C 0.46776 0.85201 0.92254 0.0
C1165 C 0.42458 0.85559 0.91742 0.0
C1166 C 0.36952 0.81073 0.97128 0.0
H1167 H 0.23242 0.79581 0.96086 0.0
H1168 H 0.28462 0.82166 0.953 0.0
H1169 H 0.33414 0.79143 0.00045 0.0
H1170 H 0.46221 0.81583 0.9479 0.0
H1171 H 0.41171 0.79742 0.95765 0.0
H1172 H 0.36598 0.83066 0.90279 0.0
C1173 C 0.27433 0.80003 0.96148 0.0
C1174 C 0.34096 0.80016 0.97916 0.0
C1175 C 0.24465 0.78543 0.9662 0.0
C1176 C 0.45201 0.82703 0.93892 0.0
C1177 C 0.42307 0.81668 0.94484 0.0
C1178 C 0.35949 0.82267 0.92435 0.0
C1179 C 0.29044 0.78649 0.96704 0.0
C1180 C 0.32131 0.80053 0.95969 0.0
C1181 C 0.40917 0.83129 0.93489 0.0
C1182 C 0.37905 0.82157 0.94357 0.0
H1183 H 0.23647 0.72176 0.98982 0.0
H1184 H 0.28837 0.74745 0.98241 0.0
H1185 H 0.3161 0.81258 0.91685 0.0
H1186 H 0.46511 0.8852 0.89865 0.0
H1187 H 0.41465 0.86748 0.90948 0.0
C1188 C 0.12514 0.57427 0.92361 0.0
C1189 C 0.13948 0.60341 0.93158 0.0
C1190 C 0.13729 0.55704 0.92936 0.0
C1191 C 0.20616 0.5607 0.94301 0.0
H1192 H 0.16143 0.48773 0.98181 0.0
C1193 C 0.26107 0.50109 0.98666 0.0
C1194 C 0.24711 0.47126 0.98302 0.0
C1195 C 0.24644 0.51605 0.98201 0.0
C1196 C 0.17413 0.50787 0.97066 0.0
H1197 H 0.17799 0.6372 0.95153 0.0
H1198 H 0.19937 0.60744 0.96084 0.0
H1199 H 0.13884 0.51582 0.96833 0.0
H1200 H 0.20681 0.43331 0.97277 0.0
H1201 H 0.1811 0.45949 0.9639 0.0
H1202 H 0.24127 0.55284 0.94467 0.0
C1203 C 0.17873 0.59792 0.95022 0.0
C1204 C 0.16117 0.52394 0.96296 0.0
C1205 C 0.16645 0.61499 0.94487 0.0
C1206 C 0.21787 0.45634 0.97595 0.0
C1207 C 0.20324 0.47138 0.97087 0.0
C1208 C 0.219 0.54458 0.9504 0.0
C1209 C 0.1642 0.56872 0.94277 0.0
C1210 C 0.17719 0.55068 0.94937 0.0
C1211 C 0.21761 0.50155 0.97307 0.0
C1212 C 0.20332 0.51814 0.96471 0.0
H1213 H 0.10423 0.56459 0.91354 0.0
H1214 H 0.12571 0.53462 0.92324 0.0
H1215 H 0.2189 0.58103 0.93216 0.0
H1216 H 0.28361 0.51296 0.99231 0.0
H1217 H 0.258 0.53912 0.9848 0.0
C1218 C 0.46514 0.5811 0.54641 0.0
C1219 C 0.47524 0.61079 0.54504 0.0
C1220 C 0.43737 0.56135 0.53736 0.0
C1221 C 0.37664 0.55515 0.49423 0.0
H1222 H 0.33025 0.49009 0.54343 0.0
C1223 C 0.25397 0.49841 0.49785 0.0
C1224 C 0.23818 0.46888 0.50352 0.0
C1225 C 0.28386 0.51267 0.49721 0.0
C1226 C 0.34304 0.50777 0.52909 0.0
H1227 H 0.46408 0.64292 0.53283 0.0
H1228 H 0.41556 0.60852 0.5176 0.0
H1229 H 0.38099 0.52121 0.55405 0.0
H1230 H 0.24084 0.43057 0.51107 0.0
H1231 H 0.29349 0.45557 0.50995 0.0
H1232 H 0.33843 0.54223 0.46983 0.0
C1233 C 0.42925 0.6005 0.52523 0.0
C1234 C 0.37214 0.52566 0.53522 0.0
C1235 C 0.45701 0.62024 0.53422 0.0
C1236 C 0.25266 0.45341 0.50674 0.0
C1237 C 0.2827 0.46774 0.50632 0.0
C1238 C 0.34756 0.53727 0.48811 0.0
C1239 C 0.41908 0.57083 0.52674 0.0
C1240 C 0.38909 0.54998 0.5183 0.0
C1241 C 0.29862 0.49767 0.50226 0.0
C1242 C 0.33027 0.51382 0.5059 0.0
H1243 H 0.47873 0.57306 0.55433 0.0
H1244 H 0.4303 0.53865 0.53851 0.0
H1245 H 0.38928 0.57335 0.48042 0.0
H1246 H 0.24319 0.51069 0.49491 0.0
H1247 H 0.2954 0.53573 0.49424 0.0
C1248 C 0.37891 0.83782 0.56772 0.0
C1249 C 0.38858 0.86598 0.5772 0.0
C1250 C 0.39836 0.82857 0.56155 0.0
C1251 C 0.47214 0.84316 0.57276 0.0
H1252 H 0.45795 0.80082 0.50177 0.0
C1253 C 0.54685 0.80154 0.53308 0.0
C1254 C 0.53231 0.77265 0.52458 0.0
C1255 C 0.53174 0.81624 0.5372 0.0
C1256 C 0.46217 0.8125 0.52171 0.0
H1257 H 0.4263 0.90604 0.58923 0.0
H1258 H 0.46038 0.8897 0.57862 0.0
H1259 H 0.42654 0.81921 0.51575 0.0
H1260 H 0.49126 0.73706 0.51162 0.0
H1261 H 0.46487 0.76239 0.51894 0.0
H1262 H 0.50744 0.83584 0.579 0.0
C1263 C 0.43766 0.87486 0.57586 0.0
C1264 C 0.44413 0.82298 0.52975 0.0
C1265 C 0.41812 0.88418 0.582 0.0
C1266 C 0.50286 0.75923 0.51859 0.0
C1267 C 0.48782 0.77386 0.52256 0.0
C1268 C 0.49018 0.83255 0.56475 0.0
C1269 C 0.428 0.84722 0.56479 0.0
C1270 C 0.44853 0.83791 0.55564 0.0
C1271 C 0.50192 0.80234 0.53251 0.0
C1272 C 0.48504 0.8166 0.53939 0.0
H1273 H 0.3563 0.82305 0.56436 0.0
H1274 H 0.39019 0.80688 0.55378 0.0
H1275 H 0.47603 0.85455 0.59285 0.0
H1276 H 0.56961 0.81234 0.53776 0.0
H1277 H 0.54328 0.83829 0.5445 0.0
C1278 C 0.21253 0.75663 0.527 0.0
C1279 C 0.23836 0.77296 0.51217 0.0
C1280 C 0.20026 0.72683 0.5289 0.0
C1281 C 0.22317 0.67277 0.5267 0.0
H1282 H 0.14168 0.61862 0.53284 0.0
C1283 C 0.17723 0.55063 0.54043 0.0
C1284 C 0.15472 0.53646 0.56019 0.0
C1285 C 0.1871 0.57926 0.53311 0.0
C1286 C 0.16452 0.63357 0.53139 0.0
H1287 H 0.27052 0.77134 0.48577 0.0
H1288 H 0.24867 0.71914 0.48819 0.0
H1289 H 0.15798 0.66843 0.51983 0.0
H1290 H 0.1254 0.54161 0.5882 0.0
H1291 H 0.1428 0.5916 0.57549 0.0
H1292 H 0.2297 0.63797 0.53838 0.0
C1293 C 0.23826 0.72924 0.4991 0.0
C1294 C 0.17385 0.66207 0.52388 0.0
C1295 C 0.2506 0.75902 0.4974 0.0
C1296 C 0.14276 0.55181 0.5729 0.0
C1297 C 0.15254 0.58039 0.56544 0.0
C1298 C 0.21383 0.64428 0.53406 0.0
C1299 C 0.21357 0.71291 0.51581 0.0
C1300 C 0.20331 0.68208 0.52166 0.0
C1301 C 0.1746 0.59433 0.54524 0.0
C1302 C 0.18443 0.62443 0.53673 0.0
H1303 H 0.20292 0.76707 0.53874 0.0
H1304 H 0.18136 0.71498 0.54209 0.0
H1305 H 0.24603 0.68769 0.52582 0.0
H1306 H 0.1868 0.53945 0.53006 0.0
H1307 H 0.20401 0.58936 0.51733 0.0
loop_
_geom_bond_atom_site_label_1
_geom_bond_atom_site_label_2
_geom_bond_distance
_geom_bond_site_symmetry_2
_ccdc_geom_bond_type
Co0 O3 1.970 . S
Co0 N17 1.989 . S
Co0 O25 1.967 . S
Co0 O32 1.920 . S
Co1 O4 1.966 . S
Co1 N10 2.022 . S
Co1 N18 1.993 . S
Co1 O26 1.941 . S
C2 O3 1.258 . S
C2 O4 1.263 . S
O3 Co0 1.970 . S
O3 C2 1.258 . S
O4 Co1 1.966 . S
O4 C2 1.263 . S
C5 O6 1.235 . S
C5 O32 1.289 . S
O6 C5 1.235 . S
C7 C9 1.400 . S
C7 N10 1.351 . S
C7 C12 1.501 . S
C8 C9 1.387 . S
C8 N11 1.341 . S
C9 C7 1.400 . S
C9 C8 1.387 . S
N10 Co1 2.022 . S
N10 C7 1.351 . S
N10 N11 1.365 . S
N11 C8 1.341 . S
N11 N10 1.365 . S
N11 H31 0.862 . S
C12 C7 1.501 . S
C12 H13 0.961 . S
C12 H14 0.961 . S
C12 H15 0.966 . S
H13 C12 0.961 . S
H14 C12 0.961 . S
H15 C12 0.966 . S
C16 N17 1.342 . S
C16 C20 1.401 . S
C16 C21 1.499 . S
N17 Co0 1.989 . S
N17 C16 1.342 . S
N17 N18 1.388 . S
N18 Co1 1.993 . S
N18 N17 1.388 . S
N18 C19 1.346 . S
C19 N18 1.346 . S
C19 C20 1.396 . S
C19 C29 1.510 . S
C20 C16 1.401 . S
C20 C19 1.396 . S
C21 C16 1.499 . S
C21 H22 0.959 . S
C21 H23 0.960 . S
C21 H24 0.961 . S
H22 C21 0.959 . S
H23 C21 0.960 . S
H24 C21 0.961 . S
O25 Co0 1.967 . S
O25 C33 1.258 . S
O26 Co1 1.941 . S
O26 C33 1.266 . S
H27 C29 0.959 . S
H28 C29 0.961 . S
C29 C19 1.510 . S
C29 H27 0.959 . S
C29 H28 0.961 . S
C29 H30 0.960 . S
H30 C29 0.960 . S
H31 N11 0.862 . S
O32 Co0 1.920 . S
O32 C5 1.289 . S
C33 O25 1.258 . S
C33 O26 1.266 . S
Co34 O37 1.970 . S
Co34 N51 1.989 . S
Co34 O59 1.967 . S
Co34 O66 1.920 . S
Co35 O38 1.966 . S
Co35 N44 2.022 . S
Co35 N52 1.993 . S
Co35 O60 1.941 . S
C36 O37 1.258 . S
C36 O38 1.263 . S
O37 Co34 1.970 . S
O37 C36 1.258 . S
O38 Co35 1.966 . S
O38 C36 1.263 . S
C39 O40 1.235 . S
C39 O66 1.289 . S
O40 C39 1.235 . S
C41 C43 1.400 . S
C41 N44 1.351 . S
C41 C46 1.501 . S
C42 C43 1.387 . S
C42 N45 1.341 . S
C43 C41 1.400 . S
C43 C42 1.387 . S
N44 Co35 2.022 . S
N44 C41 1.351 . S
N44 N45 1.365 . S
N45 C42 1.341 . S
N45 N44 1.365 . S
N45 H65 0.862 . S
C46 C41 1.501 . S
C46 H47 0.961 . S
C46 H48 0.961 . S
C46 H49 0.967 . S
H47 C46 0.961 . S
H48 C46 0.961 . S
H49 C46 0.967 . S
C50 N51 1.342 . S
C50 C54 1.401 . S
C50 C55 1.499 . S
N51 Co34 1.989 . S
N51 C50 1.342 . S
N51 N52 1.388 . S
N52 Co35 1.993 . S
N52 N51 1.388 . S
N52 C53 1.346 . S
C53 N52 1.346 . S
C53 C54 1.396 . S
C53 C63 1.510 . S
C54 C50 1.401 . S
C54 C53 1.396 . S
C55 C50 1.499 . S
C55 H56 0.959 . S
C55 H57 0.960 . S
C55 H58 0.961 . S
H56 C55 0.959 . S
H57 C55 0.960 . S
H58 C55 0.961 . S
O59 Co34 1.967 . S
O59 C67 1.258 . S
O60 Co35 1.941 . S
O60 C67 1.266 . S
H61 C63 0.959 . S
H62 C63 0.961 . S
C63 C53 1.510 . S
C63 H61 0.959 . S
C63 H62 0.961 . S
C63 H64 0.960 . S
H64 C63 0.960 . S
H65 N45 0.862 . S
O66 Co34 1.920 . S
O66 C39 1.289 . S
C67 O59 1.258 . S
C67 O60 1.266 . S
Co68 O71 1.970 . S
Co68 N85 1.989 . S
Co68 O93 1.967 . S
Co68 O100 1.920 . S
Co69 O72 1.966 . S
Co69 N78 2.022 . S
Co69 N86 1.993 . S
Co69 O94 1.941 . S
C70 O71 1.258 . S
C70 O72 1.263 . S
O71 Co68 1.970 . S
O71 C70 1.258 . S
O72 Co69 1.966 . S
O72 C70 1.263 . S
C73 O74 1.235 . S
C73 O100 1.289 . S
O74 C73 1.235 . S
C75 C77 1.400 . S
C75 N78 1.351 . S
C75 C80 1.501 . S
C76 C77 1.387 . S
C76 N79 1.341 . S
C77 C75 1.400 . S
C77 C76 1.387 . S
N78 Co69 2.022 . S
N78 C75 1.351 . S
N78 N79 1.365 . S
N79 C76 1.341 . S
N79 N78 1.365 . S
N79 H99 0.862 . S
C80 C75 1.501 . S
C80 H81 0.961 . S
C80 H82 0.961 . S
C80 H83 0.968 . S
H81 C80 0.961 . S
H82 C80 0.961 . S
H83 C80 0.968 . S
C84 N85 1.342 . S
C84 C88 1.401 . S
C84 C89 1.499 . S
N85 Co68 1.989 . S
N85 C84 1.342 . S
N85 N86 1.388 . S
N86 Co69 1.993 . S
N86 N85 1.388 . S
N86 C87 1.346 . S
C87 N86 1.346 . S
C87 C88 1.396 . S
C87 C97 1.510 . S
C88 C84 1.401 . S
C88 C87 1.396 . S
C89 C84 1.499 . S
C89 H90 0.959 . S
C89 H91 0.960 . S
C89 H92 0.961 . S
H90 C89 0.959 . S
H91 C89 0.960 . S
H92 C89 0.961 . S
O93 Co68 1.967 . S
O93 C101 1.258 . S
O94 Co69 1.941 . S
O94 C101 1.266 . S
H95 C97 0.959 . S
H96 C97 0.961 . S
C97 C87 1.510 . S
C97 H95 0.959 . S
C97 H96 0.961 . S
C97 H98 0.960 . S
H98 C97 0.960 . S
H99 N79 0.862 . S
O100 Co68 1.920 . S
O100 C73 1.289 . S
C101 O93 1.258 . S
C101 O94 1.266 . S
Co102 O105 1.970 . S
Co102 N119 1.989 . S
Co102 O127 1.967 . S
Co102 O134 1.920 . S
Co103 O106 1.966 . S
Co103 N112 2.022 . S
Co103 N120 1.993 . S
Co103 O128 1.941 . S
C104 O105 1.258 . S
C104 O106 1.263 . S
O105 Co102 1.970 . S
O105 C104 1.258 . S
O106 Co103 1.966 . S
O106 C104 1.263 . S
C107 O108 1.235 . S
C107 O134 1.289 . S
O108 C107 1.235 . S
C109 C111 1.400 . S
C109 N112 1.351 . S
C109 C114 1.501 . S
C110 C111 1.387 . S
C110 N113 1.341 . S
C111 C109 1.400 . S
C111 C110 1.387 . S
N112 Co103 2.022 . S
N112 C109 1.351 . S
N112 N113 1.365 . S
N113 C110 1.341 . S
N113 N112 1.365 . S
N113 H133 0.862 . S
C114 C109 1.501 . S
C114 H115 0.961 . S
C114 H116 0.961 . S
C114 H117 0.960 . S
H115 C114 0.961 . S
H116 C114 0.961 . S
H117 C114 0.960 . S
C118 N119 1.342 . S
C118 C122 1.401 . S
C118 C123 1.499 . S
N119 Co102 1.989 . S
N119 C118 1.342 . S
N119 N120 1.388 . S
N120 Co103 1.993 . S
N120 N119 1.388 . S
N120 C121 1.346 . S
C121 N120 1.346 . S
C121 C122 1.396 . S
C121 C131 1.510 . S
C122 C118 1.401 . S
C122 C121 1.396 . S
C123 C118 1.499 . S
C123 H124 0.959 . S
C123 H125 0.960 . S
C123 H126 0.961 . S
H124 C123 0.959 . S
H125 C123 0.960 . S
H126 C123 0.961 . S
O127 Co102 1.967 . S
O127 C135 1.258 . S
O128 Co103 1.941 . S
O128 C135 1.266 . S
H129 C131 0.959 . S
H130 C131 0.961 . S
C131 C121 1.510 . S
C131 H129 0.959 . S
C131 H130 0.961 . S
C131 H132 0.960 . S
H132 C131 0.960 . S
H133 N113 0.862 . S
O134 Co102 1.920 . S
O134 C107 1.289 . S
C135 O127 1.258 . S
C135 O128 1.266 . S
Co136 O139 1.970 . S
Co136 N153 1.989 . S
Co136 O161 1.967 . S
Co136 O168 1.920 . S
Co137 O140 1.966 . S
Co137 N146 2.022 . S
Co137 N154 1.993 . S
Co137 O162 1.941 . S
C138 O139 1.258 . S
C138 O140 1.263 . S
O139 Co136 1.970 . S
O139 C138 1.258 . S
O140 Co137 1.966 . S
O140 C138 1.263 . S
C141 O142 1.235 . S
C141 O168 1.289 . S
O142 C141 1.235 . S
C143 C145 1.400 . S
C143 N146 1.351 . S
C143 C148 1.501 . S
C144 C145 1.387 . S
C144 N147 1.341 . S
C145 C143 1.400 . S
C145 C144 1.387 . S
N146 Co137 2.022 . S
N146 C143 1.351 . S
N146 N147 1.365 . S
N147 C144 1.341 . S
N147 N146 1.365 . S
N147 H167 0.862 . S
C148 C143 1.501 . S
C148 H149 0.961 . S
C148 H150 0.961 . S
C148 H151 0.960 . S
H149 C148 0.961 . S
H150 C148 0.961 . S
H151 C148 0.960 . S
C152 N153 1.342 . S
C152 C156 1.401 . S
C152 C157 1.499 . S
N153 Co136 1.989 . S
N153 C152 1.342 . S
N153 N154 1.388 . S
N154 Co137 1.993 . S
N154 N153 1.388 . S
N154 C155 1.346 . S
C155 N154 1.346 . S
C155 C156 1.396 . S
C155 C165 1.510 . S
C156 C152 1.401 . S
C156 C155 1.396 . S
C157 C152 1.499 . S
C157 H158 0.959 . S
C157 H159 0.960 . S
C157 H160 0.961 . S
H158 C157 0.959 . S
H159 C157 0.960 . S
H160 C157 0.961 . S
O161 Co136 1.967 . S
O161 C169 1.258 . S
O162 Co137 1.941 . S
O162 C169 1.266 . S
H163 C165 0.959 . S
H164 C165 0.961 . S
C165 C155 1.510 . S
C165 H163 0.959 . S
C165 H164 0.961 . S
C165 H166 0.960 . S
H166 C165 0.960 . S
H167 N147 0.862 . S
O168 Co136 1.920 . S
O168 C141 1.289 . S
C169 O161 1.258 . S
C169 O162 1.266 . S
Co170 O173 1.970 . S
Co170 N187 1.989 . S
Co170 O195 1.967 . S
Co170 O202 1.920 . S
Co171 O174 1.966 . S
Co171 N180 2.022 . S
Co171 N188 1.993 . S
Co171 O196 1.941 . S
C172 O173 1.258 . S
C172 O174 1.263 . S
O173 Co170 1.970 . S
O173 C172 1.258 . S
O174 Co171 1.966 . S
O174 C172 1.263 . S
C175 O176 1.235 . S
C175 O202 1.289 . S
O176 C175 1.235 . S
C177 C179 1.400 . S
C177 N180 1.351 . S
C177 C182 1.501 . S
C178 C179 1.387 . S
C178 N181 1.341 . S
C179 C177 1.400 . S
C179 C178 1.387 . S
N180 Co171 2.022 . S
N180 C177 1.351 . S
N180 N181 1.365 . S
N181 C178 1.341 . S
N181 N180 1.365 . S
N181 H201 0.862 . S
C182 C177 1.501 . S
C182 H183 0.961 . S
C182 H184 0.961 . S
C182 H185 0.960 . S
H183 C182 0.961 . S
H184 C182 0.961 . S
H185 C182 0.960 . S
C186 N187 1.342 . S
C186 C190 1.401 . S
C186 C191 1.499 . S
N187 Co170 1.989 . S
N187 C186 1.342 . S
N187 N188 1.388 . S
N188 Co171 1.993 . S
N188 N187 1.388 . S
N188 C189 1.346 . S
C189 N188 1.346 . S
C189 C190 1.396 . S
C189 C199 1.510 . S
C190 C186 1.401 . S
C190 C189 1.396 . S
C191 C186 1.499 . S
C191 H192 0.959 . S
C191 H193 0.960 . S
C191 H194 0.961 . S
H192 C191 0.959 . S
H193 C191 0.960 . S
H194 C191 0.961 . S
O195 Co170 1.967 . S
O195 C203 1.258 . S
O196 Co171 1.941 . S
O196 C203 1.266 . S
H197 C199 0.959 . S
H198 C199 0.961 . S
C199 C189 1.510 . S
C199 H197 0.959 . S
C199 H198 0.961 . S
C199 H200 0.960 . S
H200 C199 0.960 . S
H201 N181 0.862 . S
O202 Co170 1.920 . S
O202 C175 1.289 . S
C203 O195 1.258 . S
C203 O196 1.266 . S
Co204 O207 1.970 . S
Co204 N221 1.989 . S
Co204 O229 1.967 . S
Co204 O236 1.920 . S
Co205 O208 1.966 . S
Co205 N214 2.022 . S
Co205 N222 1.993 . S
Co205 O230 1.941 . S
C206 O207 1.258 . S
C206 O208 1.263 . S
O207 Co204 1.970 . S
O207 C206 1.258 . S
O208 Co205 1.966 . S
O208 C206 1.263 . S
C209 O210 1.235 . S
C209 O236 1.289 . S
O210 C209 1.235 . S
C211 C213 1.400 . S
C211 N214 1.351 . S
C211 C216 1.501 . S
C212 C213 1.387 . S
C212 N215 1.341 . S
C213 C211 1.400 . S
C213 C212 1.387 . S
N214 Co205 2.022 . S
N214 C211 1.351 . S
N214 N215 1.365 . S
N215 C212 1.341 . S
N215 N214 1.365 . S
N215 H235 0.862 . S
C216 C211 1.501 . S
C216 H217 0.961 . S
C216 H218 0.961 . S
C216 H219 0.966 . S
H217 C216 0.961 . S
H218 C216 0.961 . S
H219 C216 0.966 . S
C220 N221 1.342 . S
C220 C224 1.401 . S
C220 C225 1.499 . S
N221 Co204 1.989 . S
N221 C220 1.342 . S
N221 N222 1.388 . S
N222 Co205 1.993 . S
N222 N221 1.388 . S
N222 C223 1.346 . S
C223 N222 1.346 . S
C223 C224 1.396 . S
C223 C233 1.510 . S
C224 C220 1.401 . S
C224 C223 1.396 . S
C225 C220 1.499 . S
C225 H226 0.959 . S
C225 H227 0.960 . S
C225 H228 0.961 . S
H226 C225 0.959 . S
H227 C225 0.960 . S
H228 C225 0.961 . S
O229 Co204 1.967 . S
O229 C237 1.258 . S
O230 Co205 1.941 . S
O230 C237 1.266 . S
H231 C233 0.959 . S
H232 C233 0.961 . S
C233 C223 1.510 . S
C233 H231 0.959 . S
C233 H232 0.961 . S
C233 H234 0.960 . S
H234 C233 0.960 . S
H235 N215 0.862 . S
O236 Co204 1.920 . S
O236 C209 1.289 . S
C237 O229 1.258 . S
C237 O230 1.266 . S
Co238 O241 1.970 . S
Co238 N255 1.989 . S
Co238 O263 1.967 . S
Co238 O270 1.920 . S
Co239 O242 1.966 . S
Co239 N248 2.022 . S
Co239 N256 1.993 . S
Co239 O264 1.941 . S
C240 O241 1.258 . S
C240 O242 1.263 . S
O241 Co238 1.970 . S
O241 C240 1.258 . S
O242 Co239 1.966 . S
O242 C240 1.263 . S
C243 O244 1.235 . S
C243 O270 1.289 . S
O244 C243 1.235 . S
C245 C247 1.400 . S
C245 N248 1.351 . S
C245 C250 1.501 . S
C246 C247 1.387 . S
C246 N249 1.341 . S
C247 C245 1.400 . S
C247 C246 1.387 . S
N248 Co239 2.022 . S
N248 C245 1.351 . S
N248 N249 1.365 . S
N249 C246 1.341 . S
N249 N248 1.365 . S
N249 H269 0.862 . S
C250 C245 1.501 . S
C250 H251 0.961 . S
C250 H252 0.961 . S
C250 H253 0.967 . S
H251 C250 0.961 . S
H252 C250 0.961 . S
H253 C250 0.967 . S
C254 N255 1.342 . S
C254 C258 1.401 . S
C254 C259 1.499 . S
N255 Co238 1.989 . S
N255 C254 1.342 . S
N255 N256 1.388 . S
N256 Co239 1.993 . S
N256 N255 1.388 . S
N256 C257 1.346 . S
C257 N256 1.346 . S
C257 C258 1.396 . S
C257 C267 1.510 . S
C258 C254 1.401 . S
C258 C257 1.396 . S
C259 C254 1.499 . S
C259 H260 0.959 . S
C259 H261 0.960 . S
C259 H262 0.961 . S
H260 C259 0.959 . S
H261 C259 0.960 . S
H262 C259 0.961 . S
O263 Co238 1.967 . S
O263 C271 1.258 . S
O264 Co239 1.941 . S
O264 C271 1.266 . S
H265 C267 0.959 . S
H266 C267 0.961 . S
C267 C257 1.510 . S
C267 H265 0.959 . S
C267 H266 0.961 . S
C267 H268 0.960 . S
H268 C267 0.960 . S
H269 N249 0.862 . S
O270 Co238 1.920 . S
O270 C243 1.289 . S
C271 O263 1.258 . S
C271 O264 1.266 . S
Co272 O275 1.970 . S
Co272 N289 1.989 . S
Co272 O297 1.967 . S
Co272 O304 1.920 . S
Co273 O276 1.966 . S
Co273 N282 2.022 . S
Co273 N290 1.993 . S
Co273 O298 1.941 . S
C274 O275 1.258 . S
C274 O276 1.263 . S
O275 Co272 1.970 . S
O275 C274 1.258 . S
O276 Co273 1.966 . S
O276 C274 1.263 . S
C277 O278 1.235 . S
C277 O304 1.289 . S
O278 C277 1.235 . S
C279 C281 1.400 . S
C279 N282 1.351 . S
C279 C284 1.501 . S
C280 C281 1.387 . S
C280 N283 1.341 . S
C281 C279 1.400 . S
C281 C280 1.387 . S
N282 Co273 2.022 . S
N282 C279 1.351 . S
N282 N283 1.365 . S
N283 C280 1.341 . S
N283 N282 1.365 . S
N283 H303 0.862 . S
C284 C279 1.501 . S
C284 H285 0.961 . S
C284 H286 0.961 . S
C284 H287 0.968 . S
H285 C284 0.961 . S
H286 C284 0.961 . S
H287 C284 0.968 . S
C288 N289 1.342 . S
C288 C292 1.401 . S
C288 C293 1.499 . S
N289 Co272 1.989 . S
N289 C288 1.342 . S
N289 N290 1.388 . S
N290 Co273 1.993 . S
N290 N289 1.388 . S
N290 C291 1.346 . S
C291 N290 1.346 . S
C291 C292 1.396 . S
C291 C301 1.510 . S
C292 C288 1.401 . S
C292 C291 1.396 . S
C293 C288 1.499 . S
C293 H294 0.959 . S
C293 H295 0.960 . S
C293 H296 0.961 . S
H294 C293 0.959 . S
H295 C293 0.960 . S
H296 C293 0.961 . S
O297 Co272 1.967 . S
O297 C305 1.258 . S
O298 Co273 1.941 . S
O298 C305 1.266 . S
H299 C301 0.959 . S
H300 C301 0.961 . S
C301 C291 1.510 . S
C301 H299 0.959 . S
C301 H300 0.961 . S
C301 H302 0.960 . S
H302 C301 0.960 . S
H303 N283 0.862 . S
O304 Co272 1.920 . S
O304 C277 1.289 . S
C305 O297 1.258 . S
C305 O298 1.266 . S
Co306 O309 1.970 . S
Co306 N323 1.989 . S
Co306 O331 1.967 . S
Co306 O338 1.920 . S
Co307 O310 1.966 . S
Co307 N316 2.022 . S
Co307 N324 1.993 . S
Co307 O332 1.941 . S
C308 O309 1.258 . S
C308 O310 1.263 . S
O309 Co306 1.970 . S
O309 C308 1.258 . S
O310 Co307 1.966 . S
O310 C308 1.263 . S
C311 O312 1.235 . S
C311 O338 1.289 . S
O312 C311 1.235 . S
C313 C315 1.400 . S
C313 N316 1.351 . S
C313 C318 1.501 . S
C314 C315 1.387 . S
C314 N317 1.341 . S
C315 C313 1.400 . S
C315 C314 1.387 . S
N316 Co307 2.022 . S
N316 C313 1.351 . S
N316 N317 1.365 . S
N317 C314 1.341 . S
N317 N316 1.365 . S
N317 H337 0.862 . S
C318 C313 1.501 . S
C318 H319 0.961 . S
C318 H320 0.961 . S
C318 H321 0.960 . S
H319 C318 0.961 . S
H320 C318 0.961 . S
H321 C318 0.960 . S
C322 N323 1.342 . S
C322 C326 1.401 . S
C322 C327 1.499 . S
N323 Co306 1.989 . S
N323 C322 1.342 . S
N323 N324 1.388 . S
N324 Co307 1.993 . S
N324 N323 1.388 . S
N324 C325 1.346 . S
C325 N324 1.346 . S
C325 C326 1.396 . S
C325 C335 1.510 . S
C326 C322 1.401 . S
C326 C325 1.396 . S
C327 C322 1.499 . S
C327 H328 0.959 . S
C327 H329 0.960 . S
C327 H330 0.961 . S
H328 C327 0.959 . S
H329 C327 0.960 . S
H330 C327 0.961 . S
O331 Co306 1.967 . S
O331 C339 1.258 . S
O332 Co307 1.941 . S
O332 C339 1.266 . S
H333 C335 0.959 . S
H334 C335 0.961 . S
C335 C325 1.510 . S
C335 H333 0.959 . S
C335 H334 0.961 . S
C335 H336 0.960 . S
H336 C335 0.960 . S
H337 N317 0.862 . S
O338 Co306 1.920 . S
O338 C311 1.289 . S
C339 O331 1.258 . S
C339 O332 1.266 . S
Co340 O343 1.970 . S
Co340 N357 1.989 . S
Co340 O365 1.967 . S
Co340 O372 1.920 . S
Co341 O344 1.966 . S
Co341 N350 2.022 . S
Co341 N358 1.993 . S
Co341 O366 1.941 . S
C342 O343 1.258 . S
C342 O344 1.263 . S
O343 Co340 1.970 . S
O343 C342 1.258 . S
O344 Co341 1.966 . S
O344 C342 1.263 . S
C345 O346 1.235 . S
C345 O372 1.289 . S
O346 C345 1.235 . S
C347 C349 1.400 . S
C347 N350 1.351 . S
C347 C352 1.501 . S
C348 C349 1.387 . S
C348 N351 1.341 . S
C349 C347 1.400 . S
C349 C348 1.387 . S
N350 Co341 2.022 . S
N350 C347 1.351 . S
N350 N351 1.365 . S
N351 C348 1.341 . S
N351 N350 1.365 . S
N351 H371 0.862 . S
C352 C347 1.501 . S
C352 H353 0.961 . S
C352 H354 0.961 . S
C352 H355 0.960 . S
H353 C352 0.961 . S
H354 C352 0.961 . S
H355 C352 0.960 . S
C356 N357 1.342 . S
C356 C360 1.401 . S
C356 C361 1.499 . S
N357 Co340 1.989 . S
N357 C356 1.342 . S
N357 N358 1.388 . S
N358 Co341 1.993 . S
N358 N357 1.388 . S
N358 C359 1.346 . S
C359 N358 1.346 . S
C359 C360 1.396 . S
C359 C369 1.510 . S
C360 C356 1.401 . S
C360 C359 1.396 . S
C361 C356 1.499 . S
C361 H362 0.959 . S
C361 H363 0.960 . S
C361 H364 0.961 . S
H362 C361 0.959 . S
H363 C361 0.960 . S
H364 C361 0.961 . S
O365 Co340 1.967 . S
O365 C373 1.258 . S
O366 Co341 1.941 . S
O366 C373 1.266 . S
H367 C369 0.959 . S
H368 C369 0.961 . S
C369 C359 1.510 . S
C369 H367 0.959 . S
C369 H368 0.961 . S
C369 H370 0.960 . S
H370 C369 0.960 . S
H371 N351 0.862 . S
O372 Co340 1.920 . S
O372 C345 1.289 . S
C373 O365 1.258 . S
C373 O366 1.266 . S
Co374 O377 1.970 . S
Co374 N391 1.989 . S
Co374 O399 1.967 . S
Co374 O406 1.920 . S
Co375 O378 1.966 . S
Co375 N384 2.022 . S
Co375 N392 1.993 . S
Co375 O400 1.941 . S
C376 O377 1.258 . S
C376 O378 1.263 . S
O377 Co374 1.970 . S
O377 C376 1.258 . S
O378 Co375 1.966 . S
O378 C376 1.263 . S
C379 O380 1.235 . S
C379 O406 1.289 . S
O380 C379 1.235 . S
C381 C383 1.400 . S
C381 N384 1.351 . S
C381 C386 1.501 . S
C382 C383 1.387 . S
C382 N385 1.341 . S
C383 C381 1.400 . S
C383 C382 1.387 . S
N384 Co375 2.022 . S
N384 C381 1.351 . S
N384 N385 1.365 . S
N385 C382 1.341 . S
N385 N384 1.365 . S
N385 H405 0.862 . S
C386 C381 1.501 . S
C386 H387 0.961 . S
C386 H388 0.961 . S
C386 H389 0.960 . S
H387 C386 0.961 . S
H388 C386 0.961 . S
H389 C386 0.960 . S
C390 N391 1.342 . S
C390 C394 1.401 . S
C390 C395 1.499 . S
N391 Co374 1.989 . S
N391 C390 1.342 . S
N391 N392 1.388 . S
N392 Co375 1.993 . S
N392 N391 1.388 . S
N392 C393 1.346 . S
C393 N392 1.346 . S
C393 C394 1.396 . S
C393 C403 1.510 . S
C394 C390 1.401 . S
C394 C393 1.396 . S
C395 C390 1.499 . S
C395 H396 0.959 . S
C395 H397 0.960 . S
C395 H398 0.961 . S
H396 C395 0.959 . S
H397 C395 0.960 . S
H398 C395 0.961 . S
O399 Co374 1.967 . S
O399 C407 1.258 . S
O400 Co375 1.941 . S
O400 C407 1.266 . S
H401 C403 0.959 . S
H402 C403 0.961 . S
C403 C393 1.510 . S
C403 H401 0.959 . S
C403 H402 0.961 . S
C403 H404 0.960 . S
H404 C403 0.960 . S
H405 N385 0.862 . S
O406 Co374 1.920 . S
O406 C379 1.289 . S
C407 O399 1.258 . S
C407 O400 1.266 . S
C408 C409 1.349 . S
C408 C410 1.327 . S
C408 H433 0.950 . S
C409 C408 1.349 . S
C409 C425 1.349 . S
C410 C408 1.327 . S
C410 C429 1.429 . S
C410 H434 0.950 . S
C411 C428 1.574 . S
C411 C430 1.368 . S
C411 H435 0.949 . S
H412 C416 0.949 . S
C413 C414 1.349 . S
C413 C415 1.327 . S
C413 H436 0.950 . S
C414 C413 1.349 . S
C414 C426 1.349 . S
C415 C413 1.327 . S
C415 C431 1.429 . S
C415 H437 0.950 . S
C416 H412 0.949 . S
C416 C424 1.574 . S
C416 C432 1.368 . S
H417 C425 0.950 . S
H418 C423 0.950 . S
H419 C424 0.949 . S
H420 C426 0.950 . S
H421 C427 0.950 . S
H422 C428 0.949 . S
C423 H418 0.950 . S
C423 C425 1.327 . S
C423 C429 1.429 . S
C424 C416 1.574 . S
C424 H419 0.949 . S
C424 C430 1.368 . S
C425 C409 1.349 . S
C425 H417 0.950 . S
C425 C423 1.327 . S
C426 C414 1.349 . S
C426 H420 0.950 . S
C426 C427 1.327 . S
C427 H421 0.950 . S
C427 C426 1.327 . S
C427 C431 1.429 . S
C428 C411 1.574 . S
C428 H422 0.949 . S
C428 C432 1.368 . S
C429 C410 1.429 . S
C429 C423 1.429 . S
C429 C430 1.523 . S
C430 C411 1.368 . S
C430 C424 1.368 . S
C430 C429 1.523 . S
C431 C415 1.429 . S
C431 C427 1.429 . S
C431 C432 1.523 . S
C432 C416 1.368 . S
C432 C428 1.368 . S
C432 C431 1.523 . S
H433 C408 0.950 . S
H434 C410 0.950 . S
H435 C411 0.949 . S
H436 C413 0.950 . S
H437 C415 0.950 . S
C438 C439 1.349 . S
C438 C440 1.327 . S
C438 H463 0.950 . S
C439 C438 1.349 . S
C439 C455 1.349 . S
C440 C438 1.327 . S
C440 C459 1.429 . S
C440 H464 0.950 . S
C441 C458 1.574 . S
C441 C460 1.368 . S
C441 H465 0.949 . S
H442 C446 0.949 . S
C443 C444 1.349 . S
C443 C445 1.327 . S
C443 H466 0.950 . S
C444 C443 1.349 . S
C444 C456 1.349 . S
C445 C443 1.327 . S
C445 C461 1.429 . S
C445 H467 0.950 . S
C446 H442 0.949 . S
C446 C454 1.574 . S
C446 C462 1.368 . S
H447 C455 0.950 . S
H448 C453 0.950 . S
H449 C454 0.949 . S
H450 C456 0.950 . S
H451 C457 0.950 . S
H452 C458 0.949 . S
C453 H448 0.950 . S
C453 C455 1.327 . S
C453 C459 1.429 . S
C454 C446 1.574 . S
C454 H449 0.949 . S
C454 C460 1.368 . S
C455 C439 1.349 . S
C455 H447 0.950 . S
C455 C453 1.327 . S
C456 C444 1.349 . S
C456 H450 0.950 . S
C456 C457 1.327 . S
C457 H451 0.950 . S
C457 C456 1.327 . S
C457 C461 1.429 . S
C458 C441 1.574 . S
C458 H452 0.949 . S
C458 C462 1.368 . S
C459 C440 1.429 . S
C459 C453 1.429 . S
C459 C460 1.523 . S
C460 C441 1.368 . S
C460 C454 1.368 . S
C460 C459 1.523 . S
C461 C445 1.429 . S
C461 C457 1.429 . S
C461 C462 1.523 . S
C462 C446 1.368 . S
C462 C458 1.368 . S
C462 C461 1.523 . S
H463 C438 0.950 . S
H464 C440 0.950 . S
H465 C441 0.949 . S
H466 C443 0.950 . S
H467 C445 0.950 . S
C468 C469 1.349 . S
C468 C470 1.327 . S
C468 H493 0.950 . S
C469 C468 1.349 . S
C469 C485 1.349 . S
C470 C468 1.327 . S
C470 C489 1.429 . S
C470 H494 0.950 . S
C471 C488 1.574 . S
C471 C490 1.368 . S
C471 H495 0.949 . S
H472 C476 0.949 . S
C473 C474 1.349 . S
C473 C475 1.327 . S
C473 H496 0.950 . S
C474 C473 1.349 . S
C474 C486 1.349 . S
C475 C473 1.327 . S
C475 C491 1.429 . S
C475 H497 0.950 . S
C476 H472 0.949 . S
C476 C484 1.574 . S
C476 C492 1.368 . S
H477 C485 0.950 . S
H478 C483 0.950 . S
H479 C484 0.949 . S
H480 C486 0.950 . S
H481 C487 0.950 . S
H482 C488 0.949 . S
C483 H478 0.950 . S
C483 C485 1.327 . S
C483 C489 1.429 . S
C484 C476 1.574 . S
C484 H479 0.949 . S
C484 C490 1.368 . S
C485 C469 1.349 . S
C485 H477 0.950 . S
C485 C483 1.327 . S
C486 C474 1.349 . S
C486 H480 0.950 . S
C486 C487 1.327 . S
C487 H481 0.950 . S
C487 C486 1.327 . S
C487 C491 1.429 . S
C488 C471 1.574 . S
C488 H482 0.949 . S
C488 C492 1.368 . S
C489 C470 1.429 . S
C489 C483 1.429 . S
C489 C490 1.523 . S
C490 C471 1.368 . S
C490 C484 1.368 . S
C490 C489 1.523 . S
C491 C475 1.429 . S
C491 C487 1.429 . S
C491 C492 1.523 . S
C492 C476 1.368 . S
C492 C488 1.368 . S
C492 C491 1.523 . S
H493 C468 0.950 . S
H494 C470 0.950 . S
H495 C471 0.949 . S
H496 C473 0.950 . S
H497 C475 0.950 . S
C498 C499 1.349 . S
C498 C500 1.327 . S
C498 H523 0.950 . S
C499 C498 1.349 . S
C499 C515 1.349 . S
C500 C498 1.327 . S
C500 C519 1.429 . S
C500 H524 0.950 . S
C501 C518 1.574 . S
C501 C520 1.368 . S
C501 H525 0.949 . S
H502 C506 0.949 . S
C503 C504 1.349 . S
C503 C505 1.327 . S
C503 H526 0.950 . S
C504 C503 1.349 . S
C504 C516 1.349 . S
C505 C503 1.327 . S
C505 C521 1.429 . S
C505 H527 0.950 . S
C506 H502 0.949 . S
C506 C514 1.574 . S
C506 C522 1.368 . S
H507 C515 0.950 . S
H508 C513 0.950 . S
H509 C514 0.949 . S
H510 C516 0.950 . S
H511 C517 0.950 . S
H512 C518 0.949 . S
C513 H508 0.950 . S
C513 C515 1.327 . S
C513 C519 1.429 . S
C514 C506 1.574 . S
C514 H509 0.949 . S
C514 C520 1.368 . S
C515 C499 1.349 . S
C515 H507 0.950 . S
C515 C513 1.327 . S
C516 C504 1.349 . S
C516 H510 0.950 . S
C516 C517 1.327 . S
C517 H511 0.950 . S
C517 C516 1.327 . S
C517 C521 1.429 . S
C518 C501 1.574 . S
C518 H512 0.949 . S
C518 C522 1.368 . S
C519 C500 1.429 . S
C519 C513 1.429 . S
C519 C520 1.523 . S
C520 C501 1.368 . S
C520 C514 1.368 . S
C520 C519 1.523 . S
C521 C505 1.429 . S
C521 C517 1.429 . S
C521 C522 1.523 . S
C522 C506 1.368 . S
C522 C518 1.368 . S
C522 C521 1.523 . S
H523 C498 0.950 . S
H524 C500 0.950 . S
H525 C501 0.949 . S
H526 C503 0.950 . S
H527 C505 0.950 . S
C528 C529 1.349 . S
C528 C530 1.327 . S
C528 H553 0.950 . S
C529 C528 1.349 . S
C529 C545 1.349 . S
C530 C528 1.327 . S
C530 C549 1.429 . S
C530 H554 0.950 . S
C531 C548 1.574 . S
C531 C550 1.368 . S
C531 H555 0.949 . S
H532 C536 0.949 . S
C533 C534 1.349 . S
C533 C535 1.327 . S
C533 H556 0.950 . S
C534 C533 1.349 . S
C534 C546 1.349 . S
C535 C533 1.327 . S
C535 C551 1.429 . S
C535 H557 0.950 . S
C536 H532 0.949 . S
C536 C544 1.574 . S
C536 C552 1.368 . S
H537 C545 0.950 . S
H538 C543 0.950 . S
H539 C544 0.949 . S
H540 C546 0.950 . S
H541 C547 0.950 . S
H542 C548 0.949 . S
C543 H538 0.950 . S
C543 C545 1.327 . S
C543 C549 1.429 . S
C544 C536 1.574 . S
C544 H539 0.949 . S
C544 C550 1.368 . S
C545 C529 1.349 . S
C545 H537 0.950 . S
C545 C543 1.327 . S
C546 C534 1.349 . S
C546 H540 0.950 . S
C546 C547 1.327 . S
C547 H541 0.950 . S
C547 C546 1.327 . S
C547 C551 1.429 . S
C548 C531 1.574 . S
C548 H542 0.949 . S
C548 C552 1.368 . S
C549 C530 1.429 . S
C549 C543 1.429 . S
C549 C550 1.523 . S
C550 C531 1.368 . S
C550 C544 1.368 . S
C550 C549 1.523 . S
C551 C535 1.429 . S
C551 C547 1.429 . S
C551 C552 1.523 . S
C552 C536 1.368 . S
C552 C548 1.368 . S
C552 C551 1.523 . S
H553 C528 0.950 . S
H554 C530 0.950 . S
H555 C531 0.949 . S
H556 C533 0.950 . S
H557 C535 0.950 . S
C558 C559 1.349 . S
C558 C560 1.327 . S
C558 H583 0.950 . S
C559 C558 1.349 . S
C559 C575 1.349 . S
C560 C558 1.327 . S
C560 C579 1.429 . S
C560 H584 0.950 . S
C561 C578 1.574 . S
C561 C580 1.368 . S
C561 H585 0.949 . S
H562 C566 0.949 . S
C563 C564 1.349 . S
C563 C565 1.327 . S
C563 H586 0.950 . S
C564 C563 1.349 . S
C564 C576 1.349 . S
C565 C563 1.327 . S
C565 C581 1.429 . S
C565 H587 0.950 . S
C566 H562 0.949 . S
C566 C574 1.574 . S
C566 C582 1.368 . S
H567 C575 0.950 . S
H568 C573 0.950 . S
H569 C574 0.949 . S
H570 C576 0.950 . S
H571 C577 0.950 . S
H572 C578 0.949 . S
C573 H568 0.950 . S
C573 C575 1.327 . S
C573 C579 1.429 . S
C574 C566 1.574 . S
C574 H569 0.949 . S
C574 C580 1.368 . S
C575 C559 1.349 . S
C575 H567 0.950 . S
C575 C573 1.327 . S
C576 C564 1.349 . S
C576 H570 0.950 . S
C576 C577 1.327 . S
C577 H571 0.950 . S
C577 C576 1.327 . S
C577 C581 1.429 . S
C578 C561 1.574 . S
C578 H572 0.949 . S
C578 C582 1.368 . S
C579 C560 1.429 . S
C579 C573 1.429 . S
C579 C580 1.523 . S
C580 C561 1.368 . S
C580 C574 1.368 . S
C580 C579 1.523 . S
C581 C565 1.429 . S
C581 C577 1.429 . S
C581 C582 1.523 . S
C582 C566 1.368 . S
C582 C578 1.368 . S
C582 C581 1.523 . S
H583 C558 0.950 . S
H584 C560 0.950 . S
H585 C561 0.949 . S
H586 C563 0.950 . S
H587 C565 0.950 . S
C588 C589 1.349 . S
C588 C590 1.327 . S
C588 H613 0.950 . S
C589 C588 1.349 . S
C589 C605 1.349 . S
C590 C588 1.327 . S
C590 C609 1.429 . S
C590 H614 0.950 . S
C591 C608 1.574 . S
C591 C610 1.368 1_566 S
C591 H615 0.949 . S
H592 C596 0.949 . S
C593 C594 1.349 . S
C593 C595 1.327 . S
C593 H616 0.950 . S
C594 C593 1.349 . S
C594 C606 1.349 . S
C595 C593 1.327 . S
C595 C611 1.429 . S
C595 H617 0.950 . S
C596 H592 0.949 . S
C596 C604 1.574 . S
C596 C612 1.368 1_544 S
H597 C605 0.965 . S
H598 C603 0.958 1_556 S
H599 C604 0.949 . S
H600 C606 0.965 . S
H601 C607 0.958 1_554 S
H602 C608 0.949 . S
C603 H598 0.958 1_554 S
C603 C605 1.327 . S
C603 C609 1.429 . S
C604 C596 1.574 . S
C604 H599 0.949 . S
C604 C610 1.368 . S
C605 C589 1.349 . S
C605 H597 0.965 . S
C605 C603 1.327 . S
C606 C594 1.349 . S
C606 H600 0.965 . S
C606 C607 1.327 . S
C607 H601 0.958 1_556 S
C607 C606 1.327 . S
C607 C611 1.429 . S
C608 C591 1.574 . S
C608 H602 0.949 . S
C608 C612 1.368 . S
C609 C590 1.429 . S
C609 C603 1.429 . S
C609 C610 1.523 . S
C610 C591 1.368 1_544 S
C610 C604 1.368 . S
C610 C609 1.523 . S
C611 C595 1.429 . S
C611 C607 1.429 . S
C611 C612 1.523 . S
C612 C596 1.368 1_566 S
C612 C608 1.368 . S
C612 C611 1.523 . S
H613 C588 0.950 . S
H614 C590 0.950 . S
H615 C591 0.949 . S
H616 C593 0.950 . S
H617 C595 0.950 . S
C618 C619 1.349 . S
C618 C620 1.327 . S
C618 H643 0.950 . S
C619 C618 1.349 . S
C619 C635 1.349 . S
C620 C618 1.327 . S
C620 C639 1.429 . S
C620 H644 0.960 . S
C621 C638 1.574 . S
C621 C640 1.368 1_556 S
C621 H645 0.949 . S
H622 C626 0.949 . S
C623 C624 1.349 . S
C623 C625 1.327 . S
C623 H646 0.950 . S
C624 C623 1.349 . S
C624 C636 1.349 . S
C625 C623 1.327 . S
C625 C641 1.429 . S
C625 H647 0.960 . S
C626 H622 0.949 . S
C626 C634 1.574 . S
C626 C642 1.368 1_554 S
H627 C635 0.950 1_556 S
H628 C633 0.950 . S
H629 C634 0.949 . S
H630 C636 0.950 1_554 S
H631 C637 0.950 . S
H632 C638 0.949 . S
C633 H628 0.950 . S
C633 C635 1.327 1_556 S
C633 C639 1.429 1_556 S
C634 C626 1.574 . S
C634 H629 0.949 . S
C634 C640 1.368 1_455 S
C635 C619 1.349 . S
C635 H627 0.950 1_554 S
C635 C633 1.327 1_554 S
C636 C624 1.349 . S
C636 H630 0.950 1_556 S
C636 C637 1.327 1_556 S
C637 H631 0.950 . S
C637 C636 1.327 1_554 S
C637 C641 1.429 1_554 S
C638 C621 1.574 . S
C638 H632 0.949 . S
C638 C642 1.368 1_655 S
C639 C620 1.429 . S
C639 C633 1.429 1_554 S
C639 C640 1.523 . S
C640 C621 1.368 1_554 S
C640 C634 1.368 1_655 S
C640 C639 1.523 . S
C641 C625 1.429 . S
C641 C637 1.429 1_556 S
C641 C642 1.523 . S
C642 C626 1.368 1_556 S
C642 C638 1.368 1_455 S
C642 C641 1.523 . S
H643 C618 0.950 . S
H644 C620 0.960 . S
H645 C621 0.949 . S
H646 C623 0.950 . S
H647 C625 0.960 . S
C648 C649 1.349 1_554 S
C648 C650 1.327 . S
C648 H673 0.950 . S
C649 C648 1.349 1_556 S
C649 C665 1.349 . S
C650 C648 1.327 . S
C650 C669 1.429 1_554 S
C650 H674 0.950 . S
C651 C668 1.574 . S
C651 C670 1.368 . S
C651 H675 0.949 . S
H652 C656 0.949 . S
C653 C654 1.349 1_556 S
C653 C655 1.327 . S
C653 H676 0.950 . S
C654 C653 1.349 1_554 S
C654 C666 1.349 . S
C655 C653 1.327 . S
C655 C671 1.429 1_556 S
C655 H677 0.950 . S
C656 H652 0.949 . S
C656 C664 1.574 . S
C656 C672 1.368 . S
H657 C665 0.950 . S
H658 C663 0.950 . S
H659 C664 0.949 . S
H660 C666 0.950 . S
H661 C667 0.950 . S
H662 C668 0.949 . S
C663 H658 0.950 . S
C663 C665 1.327 . S
C663 C669 1.429 . S
C664 C656 1.574 . S
C664 H659 0.949 . S
C664 C670 1.368 1_554 S
C665 C649 1.349 . S
C665 H657 0.950 . S
C665 C663 1.327 . S
C666 C654 1.349 . S
C666 H660 0.950 . S
C666 C667 1.327 . S
C667 H661 0.950 . S
C667 C666 1.327 . S
C667 C671 1.429 . S
C668 C651 1.574 . S
C668 H662 0.949 . S
C668 C672 1.368 1_556 S
C669 C650 1.429 1_556 S
C669 C663 1.429 . S
C669 C670 1.523 . S
C670 C651 1.368 . S
C670 C664 1.368 1_556 S
C670 C669 1.523 . S
C671 C655 1.429 1_554 S
C671 C667 1.429 . S
C671 C672 1.523 . S
C672 C656 1.368 . S
C672 C668 1.368 1_554 S
C672 C671 1.523 . S
H673 C648 0.950 . S
H674 C650 0.950 . S
H675 C651 0.949 . S
H676 C653 0.950 . S
H677 C655 0.950 . S
C678 C679 1.349 . S
C678 C680 1.327 . S
C678 H703 0.950 . S
C679 C678 1.349 . S
C679 C695 1.349 . S
C680 C678 1.327 . S
C680 C699 1.429 . S
C680 H704 0.950 1_455 S
C681 C698 1.574 . S
C681 C700 1.368 . S
C681 H705 0.949 . S
H682 C686 0.949 . S
C683 C684 1.349 . S
C683 C685 1.327 . S
C683 H706 0.950 . S
C684 C683 1.349 . S
C684 C696 1.349 . S
C685 C683 1.327 . S
C685 C701 1.429 . S
C685 H707 0.950 1_655 S
C686 H682 0.949 . S
C686 C694 1.574 . S
C686 C702 1.368 . S
H687 C695 0.950 . S
H688 C693 0.950 . S
H689 C694 0.949 . S
H690 C696 0.950 . S
H691 C697 0.950 . S
H692 C698 0.949 . S
C693 H688 0.950 . S
C693 C695 1.327 . S
C693 C699 1.429 . S
C694 C686 1.574 . S
C694 H689 0.949 . S
C694 C700 1.368 1_655 S
C695 C679 1.349 . S
C695 H687 0.950 . S
C695 C693 1.327 . S
C696 C684 1.349 . S
C696 H690 0.950 . S
C696 C697 1.327 . S
C697 H691 0.950 . S
C697 C696 1.327 . S
C697 C701 1.429 . S
C698 C681 1.574 . S
C698 H692 0.949 . S
C698 C702 1.368 1_455 S
C699 C680 1.429 . S
C699 C693 1.429 . S
C699 C700 1.523 . S
C700 C681 1.368 . S
C700 C694 1.368 1_455 S
C700 C699 1.523 . S
C701 C685 1.429 . S
C701 C697 1.429 . S
C701 C702 1.523 . S
C702 C686 1.368 . S
C702 C698 1.368 1_655 S
C702 C701 1.523 . S
H703 C678 0.950 . S
H704 C680 0.950 1_655 S
H705 C681 0.949 . S
H706 C683 0.950 . S
H707 C685 0.950 1_455 S
C708 C709 1.349 . S
C708 C710 1.327 . S
C708 H733 0.950 . S
C709 C708 1.349 . S
C709 C725 1.349 . S
C710 C708 1.327 . S
C710 C729 1.429 . S
C710 H734 0.950 . S
C711 C728 1.574 . S
C711 C730 1.368 . S
C711 H735 0.949 . S
H712 C716 0.949 . S
C713 C714 1.349 . S
C713 C715 1.327 . S
C713 H736 0.950 . S
C714 C713 1.349 . S
C714 C726 1.349 . S
C715 C713 1.327 . S
C715 C731 1.429 . S
C715 H737 0.950 . S
C716 H712 0.949 . S
C716 C724 1.574 . S
C716 C732 1.368 . S
H717 C725 0.950 . S
H718 C723 0.950 . S
H719 C724 0.949 . S
H720 C726 0.950 . S
H721 C727 0.950 . S
H722 C728 0.949 . S
C723 H718 0.950 . S
C723 C725 1.327 . S
C723 C729 1.429 . S
C724 C716 1.574 . S
C724 H719 0.949 . S
C724 C730 1.368 . S
C725 C709 1.349 . S
C725 H717 0.950 . S
C725 C723 1.327 . S
C726 C714 1.349 . S
C726 H720 0.950 . S
C726 C727 1.327 . S
C727 H721 0.950 . S
C727 C726 1.327 . S
C727 C731 1.429 . S
C728 C711 1.574 . S
C728 H722 0.949 . S
C728 C732 1.368 . S
C729 C710 1.429 . S
C729 C723 1.429 . S
C729 C730 1.523 . S
C730 C711 1.368 . S
C730 C724 1.368 . S
C730 C729 1.523 . S
C731 C715 1.429 . S
C731 C727 1.429 . S
C731 C732 1.523 . S
C732 C716 1.368 . S
C732 C728 1.368 . S
C732 C731 1.523 . S
H733 C708 0.950 . S
H734 C710 0.950 . S
H735 C711 0.949 . S
H736 C713 0.950 . S
H737 C715 0.950 . S
C738 C739 1.349 . S
C738 C740 1.327 . S
C738 H763 0.950 . S
C739 C738 1.349 . S
C739 C755 1.349 . S
C740 C738 1.327 . S
C740 C759 1.429 . S
C740 H764 0.950 . S
C741 C758 1.574 . S
C741 C760 1.368 1_565 S
C741 H765 0.949 . S
H742 C746 0.949 . S
C743 C744 1.349 . S
C743 C745 1.327 . S
C743 H766 0.950 . S
C744 C743 1.349 . S
C744 C756 1.349 . S
C745 C743 1.327 . S
C745 C761 1.429 . S
C745 H767 0.950 . S
C746 H742 0.949 . S
C746 C754 1.574 . S
C746 C762 1.368 1_545 S
H747 C755 0.950 . S
H748 C753 0.950 1_565 S
H749 C754 0.949 . S
H750 C756 0.950 . S
H751 C757 0.950 1_545 S
H752 C758 0.949 . S
C753 H748 0.950 1_545 S
C753 C755 1.327 . S
C753 C759 1.429 . S
C754 C746 1.574 . S
C754 H749 0.949 . S
C754 C760 1.368 . S
C755 C739 1.349 . S
C755 H747 0.950 . S
C755 C753 1.327 . S
C756 C744 1.349 . S
C756 H750 0.950 . S
C756 C757 1.327 . S
C757 H751 0.950 1_565 S
C757 C756 1.327 . S
C757 C761 1.429 . S
C758 C741 1.574 . S
C758 H752 0.949 . S
C758 C762 1.368 . S
C759 C740 1.429 . S
C759 C753 1.429 . S
C759 C760 1.523 . S
C760 C741 1.368 1_545 S
C760 C754 1.368 . S
C760 C759 1.523 . S
C761 C745 1.429 . S
C761 C757 1.429 . S
C761 C762 1.523 . S
C762 C746 1.368 1_565 S
C762 C758 1.368 . S
C762 C761 1.523 . S
H763 C738 0.950 . S
H764 C740 0.950 . S
H765 C741 0.949 . S
H766 C743 0.950 . S
H767 C745 0.950 . S
C768 C769 1.349 . S
C768 C770 1.327 . S
C768 H793 0.950 . S
C769 C768 1.349 . S
C769 C785 1.349 . S
C770 C768 1.327 . S
C770 C789 1.429 . S
C770 H794 0.950 . S
C771 C788 1.574 . S
C771 C790 1.368 . S
C771 H795 0.949 . S
H772 C776 0.949 . S
C773 C774 1.349 . S
C773 C775 1.327 . S
C773 H796 0.950 . S
C774 C773 1.349 . S
C774 C786 1.349 . S
C775 C773 1.327 . S
C775 C791 1.429 . S
C775 H797 0.950 . S
C776 H772 0.949 . S
C776 C784 1.574 . S
C776 C792 1.368 . S
H777 C785 0.950 . S
H778 C783 0.950 . S
H779 C784 0.949 . S
H780 C786 0.950 . S
H781 C787 0.950 . S
H782 C788 0.949 . S
C783 H778 0.950 . S
C783 C785 1.327 . S
C783 C789 1.429 . S
C784 C776 1.574 . S
C784 H779 0.949 . S
C784 C790 1.368 . S
C785 C769 1.349 . S
C785 H777 0.950 . S
C785 C783 1.327 . S
C786 C774 1.349 . S
C786 H780 0.950 . S
C786 C787 1.327 . S
C787 H781 0.950 . S
C787 C786 1.327 . S
C787 C791 1.429 . S
C788 C771 1.574 . S
C788 H782 0.949 . S
C788 C792 1.368 . S
C789 C770 1.429 . S
C789 C783 1.429 . S
C789 C790 1.523 . S
C790 C771 1.368 . S
C790 C784 1.368 . S
C790 C789 1.523 . S
C791 C775 1.429 . S
C791 C787 1.429 . S
C791 C792 1.523 . S
C792 C776 1.368 . S
C792 C788 1.368 . S
C792 C791 1.523 . S
H793 C768 0.950 . S
H794 C770 0.950 . S
H795 C771 0.949 . S
H796 C773 0.950 . S
H797 C775 0.950 . S
C798 C799 1.349 . S
C798 C800 1.327 . S
C798 H823 0.950 . S
C799 C798 1.349 . S
C799 C815 1.349 . S
C800 C798 1.327 . S
C800 C819 1.429 . S
C800 H824 0.950 . S
C801 C818 1.574 . S
C801 C820 1.368 . S
C801 H825 0.949 . S
H802 C806 0.949 . S
C803 C804 1.349 . S
C803 C805 1.327 . S
C803 H826 0.950 . S
C804 C803 1.349 . S
C804 C816 1.349 . S
C805 C803 1.327 . S
C805 C821 1.429 . S
C805 H827 0.950 . S
C806 H802 0.949 . S
C806 C814 1.574 . S
C806 C822 1.368 . S
H807 C815 0.950 . S
H808 C813 0.950 . S
H809 C814 0.949 . S
H810 C816 0.950 . S
H811 C817 0.950 . S
H812 C818 0.949 . S
C813 H808 0.950 . S
C813 C815 1.327 . S
C813 C819 1.429 . S
C814 C806 1.574 . S
C814 H809 0.949 . S
C814 C820 1.368 . S
C815 C799 1.349 . S
C815 H807 0.950 . S
C815 C813 1.327 . S
C816 C804 1.349 . S
C816 H810 0.950 . S
C816 C817 1.327 . S
C817 H811 0.950 . S
C817 C816 1.327 . S
C817 C821 1.429 . S
C818 C801 1.574 . S
C818 H812 0.949 . S
C818 C822 1.368 . S
C819 C800 1.429 . S
C819 C813 1.429 . S
C819 C820 1.523 . S
C820 C801 1.368 . S
C820 C814 1.368 . S
C820 C819 1.523 . S
C821 C805 1.429 . S
C821 C817 1.429 . S
C821 C822 1.523 . S
C822 C806 1.368 . S
C822 C818 1.368 . S
C822 C821 1.523 . S
H823 C798 0.950 . S
H824 C800 0.950 . S
H825 C801 0.949 . S
H826 C803 0.950 . S
H827 C805 0.950 . S
C828 C829 1.349 . S
C828 C830 1.327 . S
C828 H853 0.950 . S
C829 C828 1.349 . S
C829 C845 1.349 . S
C830 C828 1.327 . S
C830 C849 1.429 . S
C830 H854 0.950 . S
C831 C848 1.574 . S
C831 C850 1.368 . S
C831 H855 0.949 . S
H832 C836 0.949 . S
C833 C834 1.349 . S
C833 C835 1.327 . S
C833 H856 0.950 . S
C834 C833 1.349 . S
C834 C846 1.349 . S
C835 C833 1.327 . S
C835 C851 1.429 . S
C835 H857 0.950 . S
C836 H832 0.949 . S
C836 C844 1.574 . S
C836 C852 1.368 . S
H837 C845 0.950 . S
H838 C843 0.950 . S
H839 C844 0.949 . S
H840 C846 0.950 . S
H841 C847 0.950 . S
H842 C848 0.949 . S
C843 H838 0.950 . S
C843 C845 1.327 . S
C843 C849 1.429 . S
C844 C836 1.574 . S
C844 H839 0.949 . S
C844 C850 1.368 . S
C845 C829 1.349 . S
C845 H837 0.950 . S
C845 C843 1.327 . S
C846 C834 1.349 . S
C846 H840 0.950 . S
C846 C847 1.327 . S
C847 H841 0.950 . S
C847 C846 1.327 . S
C847 C851 1.429 . S
C848 C831 1.574 . S
C848 H842 0.949 . S
C848 C852 1.368 . S
C849 C830 1.429 . S
C849 C843 1.429 . S
C849 C850 1.523 . S
C850 C831 1.368 . S
C850 C844 1.368 . S
C850 C849 1.523 . S
C851 C835 1.429 . S
C851 C847 1.429 . S
C851 C852 1.523 . S
C852 C836 1.368 . S
C852 C848 1.368 . S
C852 C851 1.523 . S
H853 C828 0.950 . S
H854 C830 0.950 . S
H855 C831 0.949 . S
H856 C833 0.950 . S
H857 C835 0.950 . S
C858 C859 1.349 . S
C858 C860 1.327 . S
C858 H883 0.950 . S
C859 C858 1.349 . S
C859 C875 1.349 . S
C860 C858 1.327 . S
C860 C879 1.429 . S
C860 H884 0.950 . S
C861 C878 1.574 . S
C861 C880 1.368 . S
C861 H885 0.949 . S
H862 C866 0.949 . S
C863 C864 1.349 . S
C863 C865 1.327 . S
C863 H886 0.950 . S
C864 C863 1.349 . S
C864 C876 1.349 . S
C865 C863 1.327 . S
C865 C881 1.429 . S
C865 H887 0.950 . S
C866 H862 0.949 . S
C866 C874 1.574 . S
C866 C882 1.368 . S
H867 C875 0.950 . S
H868 C873 0.950 . S
H869 C874 0.949 . S
H870 C876 0.950 . S
H871 C877 0.950 . S
H872 C878 0.949 . S
C873 H868 0.950 . S
C873 C875 1.327 . S
C873 C879 1.429 . S
C874 C866 1.574 . S
C874 H869 0.949 . S
C874 C880 1.368 . S
C875 C859 1.349 . S
C875 H867 0.950 . S
C875 C873 1.327 . S
C876 C864 1.349 . S
C876 H870 0.950 . S
C876 C877 1.327 . S
C877 H871 0.950 . S
C877 C876 1.327 . S
C877 C881 1.429 . S
C878 C861 1.574 . S
C878 H872 0.949 . S
C878 C882 1.368 . S
C879 C860 1.429 . S
C879 C873 1.429 . S
C879 C880 1.523 . S
C880 C861 1.368 . S
C880 C874 1.368 . S
C880 C879 1.523 . S
C881 C865 1.429 . S
C881 C877 1.429 . S
C881 C882 1.523 . S
C882 C866 1.368 . S
C882 C878 1.368 . S
C882 C881 1.523 . S
H883 C858 0.950 . S
H884 C860 0.950 . S
H885 C861 0.949 . S
H886 C863 0.950 . S
H887 C865 0.950 . S
C888 C889 1.349 . S
C888 C890 1.327 . S
C888 H913 0.950 . S
C889 C888 1.349 . S
C889 C905 1.349 . S
C890 C888 1.327 . S
C890 C909 1.429 . S
C890 H914 0.950 . S
C891 C908 1.574 . S
C891 C910 1.368 . S
C891 H915 0.949 . S
H892 C896 0.949 . S
C893 C894 1.349 . S
C893 C895 1.327 . S
C893 H916 0.950 . S
C894 C893 1.349 . S
C894 C906 1.349 . S
C895 C893 1.327 . S
C895 C911 1.429 . S
C895 H917 0.950 . S
C896 H892 0.949 . S
C896 C904 1.574 . S
C896 C912 1.368 . S
H897 C905 0.950 . S
H898 C903 0.950 . S
H899 C904 0.949 . S
H900 C906 0.950 . S
H901 C907 0.950 . S
H902 C908 0.949 . S
C903 H898 0.950 . S
C903 C905 1.327 . S
C903 C909 1.429 . S
C904 C896 1.574 . S
C904 H899 0.949 . S
C904 C910 1.368 . S
C905 C889 1.349 . S
C905 H897 0.950 . S
C905 C903 1.327 . S
C906 C894 1.349 . S
C906 H900 0.950 . S
C906 C907 1.327 . S
C907 H901 0.950 . S
C907 C906 1.327 . S
C907 C911 1.429 . S
C908 C891 1.574 . S
C908 H902 0.949 . S
C908 C912 1.368 . S
C909 C890 1.429 . S
C909 C903 1.429 . S
C909 C910 1.523 . S
C910 C891 1.368 . S
C910 C904 1.368 . S
C910 C909 1.523 . S
C911 C895 1.429 . S
C911 C907 1.429 . S
C911 C912 1.523 . S
C912 C896 1.368 . S
C912 C908 1.368 . S
C912 C911 1.523 . S
H913 C888 0.950 . S
H914 C890 0.950 . S
H915 C891 0.949 . S
H916 C893 0.950 . S
H917 C895 0.950 . S
C918 C919 1.349 . S
C918 C920 1.327 . S
C918 H943 0.950 . S
C919 C918 1.349 . S
C919 C935 1.349 . S
C920 C918 1.327 . S
C920 C939 1.429 . S
C920 H944 0.950 . S
C921 C938 1.574 . S
C921 C940 1.368 . S
C921 H945 0.949 . S
H922 C926 0.949 . S
C923 C924 1.349 . S
C923 C925 1.327 . S
C923 H946 0.950 . S
C924 C923 1.349 . S
C924 C936 1.349 . S
C925 C923 1.327 . S
C925 C941 1.429 . S
C925 H947 0.950 . S
C926 H922 0.949 . S
C926 C934 1.574 . S
C926 C942 1.368 . S
H927 C935 0.950 . S
H928 C933 0.950 . S
H929 C934 0.949 . S
H930 C936 0.950 . S
H931 C937 0.950 . S
H932 C938 0.949 . S
C933 H928 0.950 . S
C933 C935 1.327 . S
C933 C939 1.429 . S
C934 C926 1.574 . S
C934 H929 0.949 . S
C934 C940 1.368 . S
C935 C919 1.349 . S
C935 H927 0.950 . S
C935 C933 1.327 . S
C936 C924 1.349 . S
C936 H930 0.950 . S
C936 C937 1.327 . S
C937 H931 0.950 . S
C937 C936 1.327 . S
C937 C941 1.429 . S
C938 C921 1.574 . S
C938 H932 0.949 . S
C938 C942 1.368 . S
C939 C920 1.429 . S
C939 C933 1.429 . S
C939 C940 1.523 . S
C940 C921 1.368 . S
C940 C934 1.368 . S
C940 C939 1.523 . S
C941 C925 1.429 . S
C941 C937 1.429 . S
C941 C942 1.523 . S
C942 C926 1.368 . S
C942 C938 1.368 . S
C942 C941 1.523 . S
H943 C918 0.950 . S
H944 C920 0.950 . S
H945 C921 0.949 . S
H946 C923 0.950 . S
H947 C925 0.950 . S
C948 C949 1.349 . S
C948 C950 1.327 . S
C948 H973 0.950 . S
C949 C948 1.349 . S
C949 C965 1.349 1_554 S
C950 C948 1.327 . S
C950 C969 1.429 . S
C950 H974 0.950 . S
C951 C968 1.574 . S
C951 C970 1.368 . S
C951 H975 0.949 . S
H952 C956 0.949 . S
C953 C954 1.349 . S
C953 C955 1.327 . S
C953 H976 0.950 . S
C954 C953 1.349 . S
C954 C966 1.349 . S
C955 C953 1.327 . S
C955 C971 1.429 . S
C955 H977 0.950 . S
C956 H952 0.949 . S
C956 C964 1.574 . S
C956 C972 1.368 . S
H957 C965 0.950 . S
H958 C963 0.953 . S
H959 C964 0.949 . S
H960 C966 0.950 . S
H961 C967 0.950 . S
H962 C968 0.949 . S
C963 H958 0.953 . S
C963 C965 1.330 . S
C963 C969 1.423 1_556 S
C964 C956 1.574 . S
C964 H959 0.949 . S
C964 C970 1.368 . S
C965 C949 1.349 1_556 S
C965 H957 0.950 . S
C965 C963 1.330 . S
C966 C954 1.349 . S
C966 H960 0.950 . S
C966 C967 1.327 . S
C967 H961 0.950 . S
C967 C966 1.327 . S
C967 C971 1.429 . S
C968 C951 1.574 . S
C968 H962 0.949 . S
C968 C972 1.368 . S
C969 C950 1.429 . S
C969 C963 1.423 1_554 S
C969 C970 1.523 . S
C970 C951 1.368 . S
C970 C964 1.368 . S
C970 C969 1.523 . S
C971 C955 1.429 . S
C971 C967 1.429 . S
C971 C972 1.523 . S
C972 C956 1.368 . S
C972 C968 1.368 . S
C972 C971 1.523 . S
H973 C948 0.950 . S
H974 C950 0.950 . S
H975 C951 0.949 . S
H976 C953 0.950 . S
H977 C955 0.950 . S
C978 C979 1.349 1_556 S
C978 C980 1.327 . S
C978 H1003 0.950 . S
C979 C978 1.349 1_554 S
C979 C995 1.349 . S
C980 C978 1.327 . S
C980 C999 1.429 1_556 S
C980 H1004 0.950 . S
C981 C998 1.574 . S
C981 C1000 1.368 . S
C981 H1005 0.949 . S
H982 C986 0.936 1_556 S
C983 C984 1.349 . S
C983 C985 1.327 . S
C983 H1006 0.950 . S
C984 C983 1.349 . S
C984 C996 1.349 . S
C985 C983 1.327 . S
C985 C1001 1.429 . S
C985 H1007 0.950 . S
C986 H982 0.936 1_554 S
C986 C994 1.574 . S
C986 C1002 1.368 . S
H987 C995 0.950 . S
H988 C993 0.950 . S
H989 C994 0.949 1_556 S
H990 C996 0.950 . S
H991 C997 0.950 . S
H992 C998 0.949 . S
C993 H988 0.950 . S
C993 C995 1.327 . S
C993 C999 1.429 . S
C994 C986 1.574 . S
C994 H989 0.949 1_554 S
C994 C1000 1.368 . S
C995 C979 1.349 . S
C995 H987 0.950 . S
C995 C993 1.327 . S
C996 C984 1.349 . S
C996 H990 0.950 . S
C996 C997 1.327 . S
C997 H991 0.950 . S
C997 C996 1.327 . S
C997 C1001 1.429 . S
C998 C981 1.574 . S
C998 H992 0.949 . S
C998 C1002 1.368 . S
C999 C980 1.429 1_554 S
C999 C993 1.429 . S
C999 C1000 1.523 . S
C1000 C981 1.368 . S
C1000 C994 1.368 . S
C1000 C999 1.523 . S
C1001 C985 1.429 . S
C1001 C997 1.429 . S
C1001 C1002 1.523 . S
C1002 C986 1.368 . S
C1002 C998 1.368 . S
C1002 C1001 1.523 . S
H1003 C978 0.950 . S
H1004 C980 0.950 . S
H1005 C981 0.949 . S
H1006 C983 0.950 . S
H1007 C985 0.950 . S
C1008 C1009 1.349 . S
C1008 C1010 1.327 . S
C1008 H1033 0.950 . S
C1009 C1008 1.349 . S
C1009 C1025 1.349 . S
C1010 C1008 1.327 . S
C1010 C1029 1.429 . S
C1010 H1034 0.950 . S
C1011 C1028 1.574 . S
C1011 C1030 1.368 . S
C1011 H1035 0.949 . S
H1012 C1016 0.949 . S
C1013 C1014 1.349 1_556 S
C1013 C1015 1.327 . S
C1013 H1036 0.950 . S
C1014 C1013 1.349 1_554 S
C1014 C1026 1.349 . S
C1015 C1013 1.327 . S
C1015 C1031 1.429 1_556 S
C1015 H1037 0.950 . S
C1016 H1012 0.949 . S
C1016 C1024 1.574 . S
C1016 C1032 1.368 . S
H1017 C1025 0.950 . S
H1018 C1023 0.950 . S
H1019 C1024 0.949 . S
H1020 C1026 0.950 . S
H1021 C1027 0.950 . S
H1022 C1028 0.949 1_556 S
C1023 H1018 0.950 . S
C1023 C1025 1.327 . S
C1023 C1029 1.429 . S
C1024 C1016 1.574 . S
C1024 H1019 0.949 . S
C1024 C1030 1.368 . S
C1025 C1009 1.349 . S
C1025 H1017 0.950 . S
C1025 C1023 1.327 . S
C1026 C1014 1.349 . S
C1026 H1020 0.950 . S
C1026 C1027 1.327 . S
C1027 H1021 0.950 . S
C1027 C1026 1.327 . S
C1027 C1031 1.429 . S
C1028 C1011 1.574 . S
C1028 H1022 0.949 1_554 S
C1028 C1032 1.368 . S
C1029 C1010 1.429 . S
C1029 C1023 1.429 . S
C1029 C1030 1.523 . S
C1030 C1011 1.368 . S
C1030 C1024 1.368 . S
C1030 C1029 1.523 . S
C1031 C1015 1.429 1_554 S
C1031 C1027 1.429 . S
C1031 C1032 1.523 . S
C1032 C1016 1.368 . S
C1032 C1028 1.368 . S
C1032 C1031 1.523 . S
H1033 C1008 0.950 . S
H1034 C1010 0.950 . S
H1035 C1011 0.949 . S
H1036 C1013 0.950 . S
H1037 C1015 0.950 . S
C1038 C1039 1.349 . S
C1038 C1040 1.327 . S
C1038 H1063 0.950 . S
C1039 C1038 1.349 . S
C1039 C1055 1.349 . S
C1040 C1038 1.327 . S
C1040 C1059 1.429 . S
C1040 H1064 0.950 . S
C1041 C1058 1.574 . S
C1041 C1060 1.368 . S
C1041 H1065 0.949 . S
H1042 C1046 0.949 . S
C1043 C1044 1.349 . S
C1043 C1045 1.327 . S
C1043 H1066 0.950 . S
C1044 C1043 1.349 . S
C1044 C1056 1.349 . S
C1045 C1043 1.327 . S
C1045 C1061 1.429 . S
C1045 H1067 0.950 . S
C1046 H1042 0.949 . S
C1046 C1054 1.574 . S
C1046 C1062 1.368 . S
H1047 C1055 0.950 . S
H1048 C1053 0.950 . S
H1049 C1054 0.949 . S
H1050 C1056 0.950 . S
H1051 C1057 0.950 . S
H1052 C1058 0.949 . S
C1053 H1048 0.950 . S
C1053 C1055 1.327 . S
C1053 C1059 1.429 . S
C1054 C1046 1.574 . S
C1054 H1049 0.949 . S
C1054 C1060 1.368 . S
C1055 C1039 1.349 . S
C1055 H1047 0.950 . S
C1055 C1053 1.327 . S
C1056 C1044 1.349 . S
C1056 H1050 0.950 . S
C1056 C1057 1.327 . S
C1057 H1051 0.950 . S
C1057 C1056 1.327 . S
C1057 C1061 1.429 . S
C1058 C1041 1.574 . S
C1058 H1052 0.949 . S
C1058 C1062 1.368 . S
C1059 C1040 1.429 . S
C1059 C1053 1.429 . S
C1059 C1060 1.523 . S
C1060 C1041 1.368 . S
C1060 C1054 1.368 . S
C1060 C1059 1.523 . S
C1061 C1045 1.429 . S
C1061 C1057 1.429 . S
C1061 C1062 1.523 . S
C1062 C1046 1.368 . S
C1062 C1058 1.368 . S
C1062 C1061 1.523 . S
H1063 C1038 0.950 . S
H1064 C1040 0.950 . S
H1065 C1041 0.949 . S
H1066 C1043 0.950 . S
H1067 C1045 0.950 . S
C1068 C1069 1.349 . S
C1068 C1070 1.327 . S
C1068 H1093 0.950 . S
C1069 C1068 1.349 . S
C1069 C1085 1.349 . S
C1070 C1068 1.327 . S
C1070 C1089 1.429 . S
C1070 H1094 0.950 . S
C1071 C1088 1.574 . S
C1071 C1090 1.368 . S
C1071 H1095 0.949 . S
H1072 C1076 0.949 . S
C1073 C1074 1.349 . S
C1073 C1075 1.327 . S
C1073 H1096 0.950 . S
C1074 C1073 1.349 . S
C1074 C1086 1.349 . S
C1075 C1073 1.327 . S
C1075 C1091 1.429 . S
C1075 H1097 0.950 . S
C1076 H1072 0.949 . S
C1076 C1084 1.574 . S
C1076 C1092 1.368 . S
H1077 C1085 0.950 . S
H1078 C1083 0.950 . S
H1079 C1084 0.949 . S
H1080 C1086 0.950 . S
H1081 C1087 0.950 . S
H1082 C1088 0.949 . S
C1083 H1078 0.950 . S
C1083 C1085 1.327 . S
C1083 C1089 1.429 . S
C1084 C1076 1.574 . S
C1084 H1079 0.949 . S
C1084 C1090 1.368 . S
C1085 C1069 1.349 . S
C1085 H1077 0.950 . S
C1085 C1083 1.327 . S
C1086 C1074 1.349 . S
C1086 H1080 0.950 . S
C1086 C1087 1.327 . S
C1087 H1081 0.950 . S
C1087 C1086 1.327 . S
C1087 C1091 1.429 . S
C1088 C1071 1.574 . S
C1088 H1082 0.949 . S
C1088 C1092 1.368 . S
C1089 C1070 1.429 . S
C1089 C1083 1.429 . S
C1089 C1090 1.523 . S
C1090 C1071 1.368 . S
C1090 C1084 1.368 . S
C1090 C1089 1.523 . S
C1091 C1075 1.429 . S
C1091 C1087 1.429 . S
C1091 C1092 1.523 . S
C1092 C1076 1.368 . S
C1092 C1088 1.368 . S
C1092 C1091 1.523 . S
H1093 C1068 0.950 . S
H1094 C1070 0.950 . S
H1095 C1071 0.949 . S
H1096 C1073 0.950 . S
H1097 C1075 0.950 . S
C1098 C1099 1.349 . S
C1098 C1100 1.327 . S
C1098 H1123 0.950 . S
C1099 C1098 1.349 . S
C1099 C1115 1.349 . S
C1100 C1098 1.327 . S
C1100 C1119 1.429 . S
C1100 H1124 0.950 . S
C1101 C1118 1.574 . S
C1101 C1120 1.368 . S
C1101 H1125 0.949 . S
H1102 C1106 0.949 . S
C1103 C1104 1.349 . S
C1103 C1105 1.327 . S
C1103 H1126 0.950 . S
C1104 C1103 1.349 . S
C1104 C1116 1.349 . S
C1105 C1103 1.327 . S
C1105 C1121 1.429 . S
C1105 H1127 0.950 . S
C1106 H1102 0.949 . S
C1106 C1114 1.574 . S
C1106 C1122 1.368 . S
H1107 C1115 0.950 . S
H1108 C1113 0.950 . S
H1109 C1114 0.949 . S
H1110 C1116 0.950 . S
H1111 C1117 0.950 . S
H1112 C1118 0.949 . S
C1113 H1108 0.950 . S
C1113 C1115 1.327 . S
C1113 C1119 1.429 . S
C1114 C1106 1.574 . S
C1114 H1109 0.949 . S
C1114 C1120 1.368 . S
C1115 C1099 1.349 . S
C1115 H1107 0.950 . S
C1115 C1113 1.327 . S
C1116 C1104 1.349 . S
C1116 H1110 0.950 . S
C1116 C1117 1.327 . S
C1117 H1111 0.950 . S
C1117 C1116 1.327 . S
C1117 C1121 1.429 . S
C1118 C1101 1.574 . S
C1118 H1112 0.949 . S
C1118 C1122 1.368 . S
C1119 C1100 1.429 . S
C1119 C1113 1.429 . S
C1119 C1120 1.523 . S
C1120 C1101 1.368 . S
C1120 C1114 1.368 . S
C1120 C1119 1.523 . S
C1121 C1105 1.429 . S
C1121 C1117 1.429 . S
C1121 C1122 1.523 . S
C1122 C1106 1.368 . S
C1122 C1118 1.368 . S
C1122 C1121 1.523 . S
H1123 C1098 0.950 . S
H1124 C1100 0.950 . S
H1125 C1101 0.949 . S
H1126 C1103 0.950 . S
H1127 C1105 0.950 . S
C1128 C1129 1.349 . S
C1128 C1130 1.327 . S
C1128 H1153 0.950 . S
C1129 C1128 1.349 . S
C1129 C1145 1.349 . S
C1130 C1128 1.327 . S
C1130 C1149 1.429 . S
C1130 H1154 0.950 . S
C1131 C1148 1.572 1_556 S
C1131 C1150 1.368 . S
C1131 H1155 0.949 1_556 S
H1132 C1136 0.949 . S
C1133 C1134 1.349 1_554 S
C1133 C1135 1.327 . S
C1133 H1156 0.950 . S
C1134 C1133 1.349 1_556 S
C1134 C1146 1.349 . S
C1135 C1133 1.327 . S
C1135 C1151 1.429 1_554 S
C1135 H1157 0.950 . S
C1136 H1132 0.949 . S
C1136 C1144 1.574 . S
C1136 C1152 1.368 . S
H1137 C1145 0.950 . S
H1138 C1143 0.950 . S
H1139 C1144 0.949 . S
H1140 C1146 0.950 . S
H1141 C1147 0.950 . S
H1142 C1148 0.957 . S
C1143 H1138 0.950 . S
C1143 C1145 1.327 . S
C1143 C1149 1.429 . S
C1144 C1136 1.574 . S
C1144 H1139 0.949 . S
C1144 C1150 1.368 . S
C1145 C1129 1.349 . S
C1145 H1137 0.950 . S
C1145 C1143 1.327 . S
C1146 C1134 1.349 . S
C1146 H1140 0.950 . S
C1146 C1147 1.327 . S
C1147 H1141 0.950 . S
C1147 C1146 1.327 . S
C1147 C1151 1.429 . S
C1148 C1131 1.572 1_554 S
C1148 H1142 0.957 . S
C1148 C1152 1.362 1_554 S
C1149 C1130 1.429 . S
C1149 C1143 1.429 . S
C1149 C1150 1.523 . S
C1150 C1131 1.368 . S
C1150 C1144 1.368 . S
C1150 C1149 1.523 . S
C1151 C1135 1.429 1_556 S
C1151 C1147 1.429 . S
C1151 C1152 1.523 . S
C1152 C1136 1.368 . S
C1152 C1148 1.362 1_556 S
C1152 C1151 1.523 . S
H1153 C1128 0.950 . S
H1154 C1130 0.950 . S
H1155 C1131 0.949 1_554 S
H1156 C1133 0.950 . S
H1157 C1135 0.950 . S
C1158 C1159 1.349 1_554 S
C1158 C1160 1.327 . S
C1158 H1183 0.950 . S
C1159 C1158 1.349 1_556 S
C1159 C1175 1.349 . S
C1160 C1158 1.327 . S
C1160 C1179 1.429 1_554 S
C1160 H1184 0.950 . S
C1161 C1178 1.574 . S
C1161 C1180 1.368 . S
C1161 H1185 0.949 . S
H1162 C1166 0.949 1_554 S
C1163 C1164 1.349 . S
C1163 C1165 1.327 . S
C1163 H1186 0.950 . S
C1164 C1163 1.349 . S
C1164 C1176 1.349 . S
C1165 C1163 1.327 . S
C1165 C1181 1.429 . S
C1165 H1187 0.950 . S
C1166 H1162 0.949 1_556 S
C1166 C1174 1.567 1_556 S
C1166 C1182 1.368 . S
H1167 C1175 0.950 . S
H1168 C1173 0.950 . S
H1169 C1174 0.978 . S
H1170 C1176 0.950 . S
H1171 C1177 0.950 . S
H1172 C1178 0.949 . S
C1173 H1168 0.950 . S
C1173 C1175 1.327 . S
C1173 C1179 1.429 . S
C1174 C1166 1.567 1_554 S
C1174 H1169 0.978 . S
C1174 C1180 1.343 1_554 S
C1175 C1159 1.349 . S
C1175 H1167 0.950 . S
C1175 C1173 1.327 . S
C1176 C1164 1.349 . S
C1176 H1170 0.950 . S
C1176 C1177 1.327 . S
C1177 H1171 0.950 . S
C1177 C1176 1.327 . S
C1177 C1181 1.429 . S
C1178 C1161 1.574 . S
C1178 H1172 0.949 . S
C1178 C1182 1.368 . S
C1179 C1160 1.429 1_556 S
C1179 C1173 1.429 . S
C1179 C1180 1.523 . S
C1180 C1161 1.368 . S
C1180 C1174 1.343 1_556 S
C1180 C1179 1.523 . S
C1181 C1165 1.429 . S
C1181 C1177 1.429 . S
C1181 C1182 1.523 . S
C1182 C1166 1.368 . S
C1182 C1178 1.368 . S
C1182 C1181 1.523 . S
H1183 C1158 0.950 . S
H1184 C1160 0.950 . S
H1185 C1161 0.949 . S
H1186 C1163 0.950 . S
H1187 C1165 0.950 . S
C1188 C1189 1.349 . S
C1188 C1190 1.327 . S
C1188 H1213 0.950 . S
C1189 C1188 1.349 . S
C1189 C1205 1.349 . S
C1190 C1188 1.327 . S
C1190 C1209 1.429 . S
C1190 H1214 0.950 . S
C1191 C1208 1.574 . S
C1191 C1210 1.368 . S
C1191 H1215 0.949 . S
H1192 C1196 0.949 . S
C1193 C1194 1.349 1_554 S
C1193 C1195 1.327 . S
C1193 H1216 0.950 . S
C1194 C1193 1.349 1_556 S
C1194 C1206 1.349 . S
C1195 C1193 1.327 . S
C1195 C1211 1.429 1_554 S
C1195 H1217 0.950 . S
C1196 H1192 0.949 . S
C1196 C1204 1.574 . S
C1196 C1212 1.368 . S
H1197 C1205 0.950 . S
H1198 C1203 0.950 . S
H1199 C1204 0.949 . S
H1200 C1206 0.950 . S
H1201 C1207 0.950 . S
H1202 C1208 0.949 1_554 S
C1203 H1198 0.950 . S
C1203 C1205 1.327 . S
C1203 C1209 1.429 . S
C1204 C1196 1.574 . S
C1204 H1199 0.949 . S
C1204 C1210 1.368 . S
C1205 C1189 1.349 . S
C1205 H1197 0.950 . S
C1205 C1203 1.327 . S
C1206 C1194 1.349 . S
C1206 H1200 0.950 . S
C1206 C1207 1.327 . S
C1207 H1201 0.950 . S
C1207 C1206 1.327 . S
C1207 C1211 1.429 . S
C1208 C1191 1.574 . S
C1208 H1202 0.949 1_556 S
C1208 C1212 1.368 . S
C1209 C1190 1.429 . S
C1209 C1203 1.429 . S
C1209 C1210 1.523 . S
C1210 C1191 1.368 . S
C1210 C1204 1.368 . S
C1210 C1209 1.523 . S
C1211 C1195 1.429 1_556 S
C1211 C1207 1.429 . S
C1211 C1212 1.523 . S
C1212 C1196 1.368 . S
C1212 C1208 1.368 . S
C1212 C1211 1.523 . S
H1213 C1188 0.950 . S
H1214 C1190 0.950 . S
H1215 C1191 0.949 . S
H1216 C1193 0.950 . S
H1217 C1195 0.950 . S
C1218 C1219 1.349 . S
C1218 C1220 1.327 . S
C1218 H1243 0.950 . S
C1219 C1218 1.349 . S
C1219 C1235 1.349 . S
C1220 C1218 1.327 . S
C1220 C1239 1.429 . S
C1220 H1244 0.950 . S
C1221 C1238 1.574 . S
C1221 C1240 1.368 . S
C1221 H1245 0.949 . S
H1222 C1226 0.949 . S
C1223 C1224 1.349 . S
C1223 C1225 1.327 . S
C1223 H1246 0.950 . S
C1224 C1223 1.349 . S
C1224 C1236 1.349 . S
C1225 C1223 1.327 . S
C1225 C1241 1.429 . S
C1225 H1247 0.950 . S
C1226 H1222 0.949 . S
C1226 C1234 1.574 . S
C1226 C1242 1.368 . S
H1227 C1235 0.950 . S
H1228 C1233 0.950 . S
H1229 C1234 0.949 . S
H1230 C1236 0.950 . S
H1231 C1237 0.950 . S
H1232 C1238 0.949 . S
C1233 H1228 0.950 . S
C1233 C1235 1.327 . S
C1233 C1239 1.429 . S
C1234 C1226 1.574 . S
C1234 H1229 0.949 . S
C1234 C1240 1.368 . S
C1235 C1219 1.349 . S
C1235 H1227 0.950 . S
C1235 C1233 1.327 . S
C1236 C1224 1.349 . S
C1236 H1230 0.950 . S
C1236 C1237 1.327 . S
C1237 H1231 0.950 . S
C1237 C1236 1.327 . S
C1237 C1241 1.429 . S
C1238 C1221 1.574 . S
C1238 H1232 0.949 . S
C1238 C1242 1.368 . S
C1239 C1220 1.429 . S
C1239 C1233 1.429 . S
C1239 C1240 1.523 . S
C1240 C1221 1.368 . S
C1240 C1234 1.368 . S
C1240 C1239 1.523 . S
C1241 C1225 1.429 . S
C1241 C1237 1.429 . S
C1241 C1242 1.523 . S
C1242 C1226 1.368 . S
C1242 C1238 1.368 . S
C1242 C1241 1.523 . S
H1243 C1218 0.950 . S
H1244 C1220 0.950 . S
H1245 C1221 0.949 . S
H1246 C1223 0.950 . S
H1247 C1225 0.950 . S
C1248 C1249 1.349 . S
C1248 C1250 1.327 . S
C1248 H1273 0.950 . S
C1249 C1248 1.349 . S
C1249 C1265 1.349 . S
C1250 C1248 1.327 . S
C1250 C1269 1.429 . S
C1250 H1274 0.950 . S
C1251 C1268 1.574 . S
C1251 C1270 1.368 . S
C1251 H1275 0.949 . S
H1252 C1256 0.949 . S
C1253 C1254 1.349 . S
C1253 C1255 1.327 . S
C1253 H1276 0.950 . S
C1254 C1253 1.349 . S
C1254 C1266 1.349 . S
C1255 C1253 1.327 . S
C1255 C1271 1.429 . S
C1255 H1277 0.950 . S
C1256 H1252 0.949 . S
C1256 C1264 1.574 . S
C1256 C1272 1.368 . S
H1257 C1265 0.950 . S
H1258 C1263 0.950 . S
H1259 C1264 0.949 . S
H1260 C1266 0.950 . S
H1261 C1267 0.950 . S
H1262 C1268 0.949 . S
C1263 H1258 0.950 . S
C1263 C1265 1.327 . S
C1263 C1269 1.429 . S
C1264 C1256 1.574 . S
C1264 H1259 0.949 . S
C1264 C1270 1.368 . S
C1265 C1249 1.349 . S
C1265 H1257 0.950 . S
C1265 C1263 1.327 . S
C1266 C1254 1.349 . S
C1266 H1260 0.950 . S
C1266 C1267 1.327 . S
C1267 H1261 0.950 . S
C1267 C1266 1.327 . S
C1267 C1271 1.429 . S
C1268 C1251 1.574 . S
C1268 H1262 0.949 . S
C1268 C1272 1.368 . S
C1269 C1250 1.429 . S
C1269 C1263 1.429 . S
C1269 C1270 1.523 . S
C1270 C1251 1.368 . S
C1270 C1264 1.368 . S
C1270 C1269 1.523 . S
C1271 C1255 1.429 . S
C1271 C1267 1.429 . S
C1271 C1272 1.523 . S
C1272 C1256 1.368 . S
C1272 C1268 1.368 . S
C1272 C1271 1.523 . S
H1273 C1248 0.950 . S
H1274 C1250 0.950 . S
H1275 C1251 0.949 . S
H1276 C1253 0.950 . S
H1277 C1255 0.950 . S
C1278 C1279 1.349 . S
C1278 C1280 1.327 . S
C1278 H1303 0.950 . S
C1279 C1278 1.349 . S
C1279 C1295 1.349 . S
C1280 C1278 1.327 . S
C1280 C1299 1.429 . S
C1280 H1304 0.950 . S
C1281 C1298 1.574 . S
C1281 C1300 1.368 . S
C1281 H1305 0.949 . S
H1282 C1286 0.949 . S
C1283 C1284 1.349 . S
C1283 C1285 1.327 . S
C1283 H1306 0.950 . S
C1284 C1283 1.349 . S
C1284 C1296 1.349 . S
C1285 C1283 1.327 . S
C1285 C1301 1.429 . S
C1285 H1307 0.950 . S
C1286 H1282 0.949 . S
C1286 C1294 1.574 . S
C1286 C1302 1.368 . S
H1287 C1295 0.950 . S
H1288 C1293 0.950 . S
H1289 C1294 0.949 . S
H1290 C1296 0.950 . S
H1291 C1297 0.950 . S
H1292 C1298 0.949 . S
C1293 H1288 0.950 . S
C1293 C1295 1.327 . S
C1293 C1299 1.429 . S
C1294 C1286 1.574 . S
C1294 H1289 0.949 . S
C1294 C1300 1.368 . S
C1295 C1279 1.349 . S
C1295 H1287 0.950 . S
C1295 C1293 1.327 . S
C1296 C1284 1.349 . S
C1296 H1290 0.950 . S
C1296 C1297 1.327 . S
C1297 H1291 0.950 . S
C1297 C1296 1.327 . S
C1297 C1301 1.429 . S
C1298 C1281 1.574 . S
C1298 H1292 0.949 . S
C1298 C1302 1.368 . S
C1299 C1280 1.429 . S
C1299 C1293 1.429 . S
C1299 C1300 1.523 . S
C1300 C1281 1.368 . S
C1300 C1294 1.368 . S
C1300 C1299 1.523 . S
C1301 C1285 1.429 . S
C1301 C1297 1.429 . S
C1301 C1302 1.523 . S
C1302 C1286 1.368 . S
C1302 C1298 1.368 . S
C1302 C1301 1.523 . S
H1303 C1278 0.950 . S
H1304 C1280 0.950 . S
H1305 C1281 0.949 . S
H1306 C1283 0.950 . S
H1307 C1285 0.950 . S
C409 C175 0.686 . S
C414 C5 0.686 . S
C439 C39 0.686 . S
C444 C107 0.686 . S
C469 C73 0.686 . S
C474 C141 0.686 . S
C499 C209 0.686 . S
C504 C379 0.686 . S
C529 C311 0.686 . S
C534 C243 0.686 . S
C559 C345 0.686 . S
C564 C277 0.686 . S
C589 C33 1.461 . S
C594 C237 1.461 . S
C619 C67 1.461 . S
C624 C271 1.461 . S
C649 C305 1.461 . S
C654 C101 1.461 . S
C679 C339 1.461 . S
C684 C135 1.461 . S
C709 C169 1.460 . S
C714 C373 1.460 . S
C739 C203 1.461 . S
C744 C407 1.461 . S
C769 C156 1.448 . S
C774 C20 1.448 . S
C799 C190 1.449 . S
C804 C54 1.449 . S
C829 C122 1.448 . S
C834 C88 1.448 . S
C859 C224 1.448 . S
C864 C360 1.448 . S
C889 C258 1.449 . S
C894 C394 1.449 . S
C919 C326 1.448 . S
C924 C292 1.448 . S
C949 C9 1.308 . S
C954 C70 1.349 . S
C979 C43 1.308 . S
C984 C2 1.349 . S
C1009 C36 1.349 . S
C1014 C77 1.308 . S
C1039 C111 1.308 . S
C1044 C138 1.349 . S
C1069 C172 1.349 . S
C1074 C145 1.308 . S
C1099 C104 1.348 . S
C1104 C179 1.308 . S
C1129 C274 1.349 . S
C1134 C213 1.308 . S
C1159 C247 1.308 . S
C1164 C206 1.349 . S
C1189 C240 1.349 . S
C1194 C281 1.308 . S
C1219 C342 1.349 . S
C1224 C315 1.308 . S
C1249 C376 1.349 . S
C1254 C349 1.308 . S
C1279 C383 1.308 . S
C1284 C308 1.348 . S
