# Generated by pormake.
# Topology vma, (5)-cn, num edge types: 1
# Building blocks:
#     Node 0, Type 0, BuildingBlock: XOMCOT_clean_sbu_0, # of connection points: 5
#     Node 1, Type 0, BuildingBlock: XOMCOT_clean_sbu_0, # of connection points: 5
#     Node 2, Type 0, BuildingBlock: XOMCOT_clean_sbu_0, # of connection points: 5
#     Node 3, Type 0, BuildingBlock: XOMCOT_clean_sbu_0, # of connection points: 5
#     Node 4, Type 0, BuildingBlock: XOMCOT_clean_sbu_0, # of connection points: 5
#     Node 5, Type 0, BuildingBlock: XOMCOT_clean_sbu_0, # of connection points: 5
#     Node 6, Type 0, BuildingBlock: XOMCOT_clean_sbu_0, # of connection points: 5
#     Node 7, Type 0, BuildingBlock: XOMCOT_clean_sbu_0, # of connection points: 5
#     Edge 8, Type (0, 0), BuildingBlock: CIFDUS_clean_linker_0, # of connection points: 2
#     Edge 9, Type (0, 0), BuildingBlock: CIFDUS_clean_linker_0, # of connection points: 2
#     Edge 10, Type (0, 0), BuildingBlock: CIFDUS_clean_linker_0, # of connection points: 2
#     Edge 11, Type (0, 0), BuildingBlock: CIFDUS_clean_linker_0, # of connection points: 2
#     Edge 12, Type (0, 0), BuildingBlock: CIFDUS_clean_linker_0, # of connection points: 2
#     Edge 13, Type (0, 0), BuildingBlock: CIFDUS_clean_linker_0, # of connection points: 2
#     Edge 14, Type (0, 0), BuildingBlock: CIFDUS_clean_linker_0, # of connection points: 2
#     Edge 15, Type (0, 0), BuildingBlock: CIFDUS_clean_linker_0, # of connection points: 2
#     Edge 16, Type (0, 0), BuildingBlock: CIFDUS_clean_linker_0, # of connection points: 2
#     Edge 17, Type (0, 0), BuildingBlock: CIFDUS_clean_linker_0, # of connection points: 2
#     Edge 18, Type (0, 0), BuildingBlock: CIFDUS_clean_linker_0, # of connection points: 2
#     Edge 19, Type (0, 0), BuildingBlock: CIFDUS_clean_linker_0, # of connection points: 2
#     Edge 20, Type (0, 0), BuildingBlock: CIFDUS_clean_linker_0, # of connection points: 2
#     Edge 21, Type (0, 0), BuildingBlock: CIFDUS_clean_linker_0, # of connection points: 2
#     Edge 22, Type (0, 0), BuildingBlock: CIFDUS_clean_linker_0, # of connection points: 2
#     Edge 23, Type (0, 0), BuildingBlock: CIFDUS_clean_linker_0, # of connection points: 2
#     Edge 24, Type (0, 0), BuildingBlock: CIFDUS_clean_linker_0, # of connection points: 2
#     Edge 25, Type (0, 0), BuildingBlock: CIFDUS_clean_linker_0, # of connection points: 2
#     Edge 26, Type (0, 0), BuildingBlock: CIFDUS_clean_linker_0, # of connection points: 2
#     Edge 27, Type (0, 0), BuildingBlock: CIFDUS_clean_linker_0, # of connection points: 2
# Relax obj value: 0.096
# Max RMSD: 0.193
# Mean RMSD: 0.193
data_MOF--net-vma--node1-XOMCOT_clean_sbu_0--edge1-CIFDUS_clean_linker_0
_symmetry_space_group_name_H-M    P1
_symmetry_Int_Tables_number       1
_symmetry_cell_setting            triclinic
loop_
_symmetry_equiv_pos_as_xyz
'x, y, z'
_cell_length_a     39.397075
_cell_length_b     22.958079
_cell_length_c     34.372015
_cell_angle_alpha  90.02122
_cell_angle_beta   109.84523
_cell_angle_gamma 90.121602
loop_
_atom_site_label
_atom_site_type_symbol
_atom_site_fract_x
_atom_site_fract_y
_atom_site_fract_z
_atom_type_partial_charge
Co0 Co 0.37173 0.11321 0.36625 0.0
C1 C 0.43307 0.10388 0.33223 0.0
C2 C 0.38189 0.10925 0.28399 0.0
C3 C 0.40802 0.10358 0.26623 0.0
N4 N 0.39717 0.1094 0.32564 0.0
N5 N 0.44036 0.09976 0.29642 0.0
H6 H 0.45353 0.10174 0.36248 0.0
H7 H 0.35351 0.10951 0.26684 0.0
C8 C 0.32318 0.20253 0.30917 0.0
O9 O 0.30924 0.16278 0.28092 0.0
N10 N 0.34703 0.11952 0.40638 0.0
C11 C 0.33418 0.07667 0.42434 0.0
C12 C 0.31607 0.10165 0.44829 0.0
C13 C 0.33714 0.16962 0.42014 0.0
N14 N 0.31791 0.16022 0.44553 0.0
C15 C 0.34315 0.01609 0.31615 0.0
C16 C 0.27065 0.03278 0.30316 0.0
C17 C 0.28168 0.983 0.28702 0.0
C18 C 0.31837 0.97548 0.29346 0.0
C19 C 0.29675 0.07312 0.3259 0.0
N20 N 0.33246 0.06543 0.33077 0.0
H21 H 0.37145 1.00731 0.32253 0.0
H22 H 0.28828 0.11049 0.33942 0.0
H23 H 0.33696 0.03062 0.41953 0.0
H24 H 0.34306 0.2123 0.41078 0.0
O25 O 0.39926 0.04894 0.39631 0.0
O26 O 0.41561 0.14141 0.40845 0.0
O27 O 0.34916 0.19056 0.34233 0.0
C28 C 0.42239 0.08655 0.41831 0.0
H29 H 0.40323 0.10223 0.23334 0.0
H30 H 0.30258 0.07834 0.46623 0.0
H31 H 0.2425 0.03945 0.29933 0.0
H32 H 0.3281 0.93761 0.28164 0.0
Co33 Co 0.66596 0.11299 0.13831 0.0
C34 C 0.61776 0.0781 0.18705 0.0
C35 C 0.65265 0.14945 0.21439 0.0
C36 C 0.6299 0.14083 0.23627 0.0
N37 N 0.64584 0.10977 0.18356 0.0
N38 N 0.6076 0.09632 0.21912 0.0
H39 H 0.60393 0.04423 0.16566 0.0
H40 H 0.67179 0.18483 0.22016 0.0
C41 C 0.71733 0.21099 0.17111 0.0
O42 O 0.74343 0.17675 0.1694 0.0
N43 N 0.68451 0.12074 0.09175 0.0
C44 C 0.68407 0.08108 0.0624 0.0
C45 C 0.69897 0.10527 0.03511 0.0
C46 C 0.69706 0.1699 0.07923 0.0
N47 N 0.70722 0.16123 0.0459 0.0
C48 C 0.72185 0.02834 0.15638 0.0
C49 C 0.75163 0.04569 0.24055 0.0
C50 C 0.762 0.99652 0.22304 0.0
C51 C 0.74822 0.99055 0.18 0.0
C52 C 0.72604 0.08446 0.2152 0.0
N53 N 0.71039 0.07458 0.17353 0.0
H54 H 0.70898 0.01705 0.12461 0.0
H55 H 0.71854 0.12134 0.22967 0.0
H56 H 0.67327 0.0374 0.06027 0.0
H57 H 0.69816 0.21207 0.09325 0.0
O58 O 0.64165 0.04231 0.11529 0.0
O59 O 0.61764 0.12998 0.09951 0.0
O60 O 0.68448 0.19401 0.15757 0.0
C61 C 0.61441 0.07352 0.09394 0.0
H62 H 0.6282 0.16849 0.26105 0.0
H63 H 0.70264 0.08373 0.0088 0.0
H64 H 0.76179 0.05288 0.27364 0.0
H65 H 0.75615 0.95476 0.16445 0.0
Co66 Co 0.6433 0.89293 0.62544 0.0
C67 C 0.5953 0.92884 0.6744 0.0
C68 C 0.63013 0.85755 0.70179 0.0
C69 C 0.6094 0.8692 0.72562 0.0
N70 N 0.62214 0.89535 0.66976 0.0
N71 N 0.58734 0.91379 0.70859 0.0
H72 H 0.5813 0.9625 0.65297 0.0
H73 H 0.64938 0.82246 0.70784 0.0
C74 C 0.69867 0.80152 0.66206 0.0
O75 O 0.72401 0.83745 0.66007 0.0
N76 N 0.66382 0.8865 0.58045 0.0
C77 C 0.6639 0.92615 0.55138 0.0
C78 C 0.68027 0.90253 0.52527 0.0
C79 C 0.67805 0.8381 0.56926 0.0
N80 N 0.68943 0.84701 0.53674 0.0
C81 C 0.69219 0.98847 0.64361 0.0
C82 C 0.72608 0.96825 0.72702 0.0
C83 C 0.73267 0.02076 0.71005 0.0
C84 C 0.71636 0.02938 0.66748 0.0
C85 C 0.70183 0.92768 0.70167 0.0
N86 N 0.68479 0.93818 0.66031 0.0
H87 H 0.67767 0.99972 0.61211 0.0
H88 H 0.69652 0.88859 0.71585 0.0
H89 H 0.65196 0.96898 0.54814 0.0
H90 H 0.67942 0.79633 0.58384 0.0
O91 O 0.61474 0.95844 0.59872 0.0
O92 O 0.59725 0.86637 0.5868 0.0
O93 O 0.66546 0.81566 0.64774 0.0
C94 C 0.59013 0.92151 0.57855 0.0
H95 H 0.60921 0.84444 0.75236 0.0
H96 H 0.68417 0.92427 0.49917 0.0
H97 H 0.73813 0.95978 0.75985 0.0
H98 H 0.72093 0.06897 0.65281 0.0
Co99 Co 0.37607 0.9178 0.88979 0.0
C100 C 0.43463 0.92775 0.85085 0.0
C101 C 0.38614 0.88603 0.81216 0.0
C102 C 0.40934 0.8908 0.79028 0.0
N103 N 0.40162 0.90943 0.85012 0.0
N104 N 0.43977 0.91726 0.81435 0.0
H105 H 0.45402 0.94981 0.87676 0.0
H106 H 0.35905 0.86857 0.80045 0.0
C107 C 0.32674 0.81026 0.87082 0.0
O108 O 0.30346 0.83434 0.88542 0.0
N109 N 0.35105 0.92282 0.92993 0.0
C110 C 0.33096 0.96679 0.93629 0.0
C111 C 0.31453 0.94835 0.96385 0.0
C112 C 0.3485 0.87993 0.95582 0.0
N113 N 0.32494 0.89312 0.97541 0.0
C114 C 0.35021 1.00132 0.82773 0.0
C115 C 0.27711 0.99524 0.81342 0.0
C116 C 0.29063 0.03926 0.79436 0.0
C117 C 0.32744 0.03966 0.80027 0.0
C118 C 0.30114 0.95521 0.83979 0.0
N119 N 0.33751 0.95899 0.84716 0.0
H120 H 0.37876 1.00796 0.83475 0.0
H121 H 0.29037 0.92509 0.85628 0.0
H122 H 0.32684 1.00811 0.92027 0.0
H123 H 0.36134 0.83791 0.95755 0.0
O124 O 0.40205 0.98704 0.91298 0.0
O125 O 0.42035 0.89818 0.93527 0.0
O126 O 0.35526 0.83726 0.87095 0.0
C127 C 0.42579 0.95453 0.93906 0.0
H128 H 0.40419 0.87561 0.75898 0.0
H129 H 0.29444 0.97231 0.97233 0.0
H130 H 0.24875 0.99377 0.80992 0.0
H131 H 0.33919 0.07188 0.78556 0.0
Co132 Co 0.89168 0.62173 0.38946 0.0
C133 C 0.93572 0.59563 0.33288 0.0
C134 C 0.96453 0.64579 0.38634 0.0
C135 C 0.98705 0.6358 0.3642 0.0
N136 N 0.93216 0.61991 0.36749 0.0
N137 N 0.96903 0.60437 0.33056 0.0
H138 H 0.91446 0.57321 0.30915 0.0
H139 H 0.97173 0.67177 0.41415 0.0
C140 C 0.86598 0.70367 0.3191 0.0
O141 O 0.87256 0.66246 0.29624 0.0
N142 N 0.85293 0.62618 0.41237 0.0
C143 C 0.834 0.58193 0.42061 0.0
C144 C 0.80886 0.60459 0.43627 0.0
C145 C 0.83941 0.67498 0.42358 0.0
N146 N 0.81217 0.66332 0.43826 0.0
C147 C 0.87517 0.51707 0.34407 0.0
C148 C 0.80303 0.53877 0.3016 0.0
C149 C 0.81662 0.48237 0.30148 0.0
C150 C 0.85337 0.47249 0.32181 0.0
C151 C 0.82609 0.58283 0.32439 0.0
N152 N 0.86169 0.57138 0.34561 0.0
H153 H 0.9029 0.50709 0.36177 0.0
H154 H 0.81481 0.62483 0.32728 0.0
H155 H 0.83791 0.53643 0.41518 0.0
H156 H 0.84973 0.71804 0.42133 0.0
O157 O 0.91365 0.56019 0.42692 0.0
O158 O 0.92458 0.65374 0.44115 0.0
O159 O 0.87289 0.6956 0.35773 0.0
C160 C 0.93189 0.59951 0.45246 0.0
H161 H 1.01415 0.65276 0.37131 0.0
H162 H 0.78938 0.57926 0.44493 0.0
H163 H 0.77459 0.54772 0.28653 0.0
H164 H 0.86491 0.42959 0.32217 0.0
Co165 Co 0.15375 0.6093 0.11793 0.0
C166 C 0.10877 0.58138 0.17197 0.0
C167 C 0.09584 0.66217 0.13876 0.0
C168 C 0.07266 0.65475 0.16037 0.0
N169 N 0.11836 0.61631 0.14557 0.0
N170 N 0.08066 0.60418 0.18128 0.0
H171 H 0.1218 0.54053 0.18395 0.0
H172 H 0.09632 0.69887 0.11923 0.0
C173 C 0.20869 0.69585 0.1615 0.0
O174 O 0.23232 0.65625 0.16014 0.0
N175 N 0.18808 0.60745 0.08769 0.0
C176 C 0.20283 0.56207 0.07423 0.0
C177 C 0.22456 0.58295 0.05322 0.0
C178 C 0.19976 0.65509 0.0724 0.0
N179 N 0.22294 0.64168 0.05231 0.0
C180 C 0.19322 0.50942 0.15743 0.0
C181 C 0.22061 0.55247 0.23716 0.0
C182 C 0.23021 0.49645 0.22867 0.0
C183 C 0.21575 0.47478 0.18848 0.0
C184 C 0.19736 0.58584 0.2048 0.0
N185 N 0.18581 0.56548 0.16488 0.0
H186 H 0.18081 0.48987 0.12758 0.0
H187 H 0.1885 0.62771 0.21198 0.0
H188 H 0.19773 0.51667 0.07775 0.0
H189 H 0.19116 0.69894 0.07573 0.0
O190 O 0.1283 0.54341 0.08761 0.0
O191 O 0.11666 0.63459 0.06679 0.0
O192 O 0.17494 0.68618 0.1439 0.0
C193 C 0.10858 0.57931 0.06041 0.0
H194 H 0.0521 0.68517 0.16168 0.0
H195 H 0.24041 0.55647 0.03979 0.0
H196 H 0.23022 0.56956 0.26839 0.0
H197 H 0.22147 0.43073 0.18119 0.0
Co198 Co 0.1665 0.4198 0.63603 0.0
C199 C 0.11691 0.45582 0.68164 0.0
C200 C 0.15611 0.39366 0.71576 0.0
C201 C 0.1331 0.4047 0.73719 0.0
N202 N 0.14636 0.42599 0.68083 0.0
N203 N 0.10823 0.4433 0.71557 0.0
H204 H 0.10091 0.48414 0.65723 0.0
H205 H 0.17706 0.3611 0.72436 0.0
C206 C 0.22253 0.32886 0.66707 0.0
O207 O 0.24446 0.36324 0.65615 0.0
N208 N 0.18581 0.41087 0.59069 0.0
C209 C 0.19592 0.45202 0.56874 0.0
C210 C 0.21001 0.42533 0.54169 0.0
C211 C 0.19194 0.3597 0.57447 0.0
N212 N 0.20796 0.36715 0.54568 0.0
C213 C 0.21175 0.52126 0.65592 0.0
C214 C 0.2554 0.48752 0.73385 0.0
C215 C 0.25962 0.54329 0.71985 0.0
C216 C 0.23782 0.55973 0.68012 0.0
C217 C 0.22935 0.45 0.70835 0.0
N218 N 0.20808 0.46635 0.66934 0.0
H219 H 0.193 0.53768 0.6275 0.0
H220 H 0.22583 0.4087 0.72112 0.0
H221 H 0.19309 0.49832 0.57119 0.0
H222 H 0.18614 0.31754 0.5848 0.0
O223 O 0.13686 0.48312 0.60739 0.0
O224 O 0.12038 0.3903 0.5996 0.0
O225 O 0.18989 0.34396 0.66043 0.0
C226 C 0.11218 0.44474 0.58998 0.0
H227 H 0.1328 0.38217 0.76475 0.0
H228 H 0.22093 0.44727 0.52067 0.0
H229 H 0.2712 0.47378 0.76487 0.0
H230 H 0.23911 0.60351 0.66892 0.0
Co231 Co 0.87977 0.39376 0.86562 0.0
C232 C 0.93063 0.43306 0.82205 0.0
C233 C 0.90629 0.35091 0.79953 0.0
C234 C 0.93019 0.36409 0.77971 0.0
N235 N 0.90499 0.39523 0.82497 0.0
N236 N 0.94551 0.41565 0.79389 0.0
H237 H 0.93961 0.47117 0.84137 0.0
H238 H 0.89341 0.30906 0.79761 0.0
C239 C 0.82973 0.31955 0.8006 0.0
O240 O 0.82766 0.36311 0.77511 0.0
N241 N 0.85601 0.3887 0.90667 0.0
C242 C 0.84692 0.43218 0.9275 0.0
C243 C 0.82804 0.40878 0.95116 0.0
C244 C 0.84298 0.33967 0.91825 0.0
N245 N 0.82542 0.35046 0.9452 0.0
C246 C 0.85359 0.49644 0.82002 0.0
C247 C 0.7813 0.48279 0.8097 0.0
C248 C 0.79334 0.53461 0.79726 0.0
C249 C 0.8297 0.54074 0.80195 0.0
C250 C 0.80644 0.43902 0.82806 0.0
N251 N 0.84218 0.44613 0.83272 0.0
H252 H 0.88171 0.50452 0.82594 0.0
H253 H 0.79739 0.40011 0.83935 0.0
H254 H 0.85282 0.47776 0.92493 0.0
H255 H 0.84542 0.29704 0.90614 0.0
O256 O 0.91023 0.45404 0.89652 0.0
O257 O 0.92363 0.36031 0.90541 0.0
O258 O 0.85161 0.32204 0.8379 0.0
C259 C 0.93319 0.41454 0.91531 0.0
H260 H 0.93805 0.33564 0.75911 0.0
H261 H 0.81704 0.43315 0.97105 0.0
H262 H 0.75323 0.4772 0.80676 0.0
H263 H 0.83986 0.58062 0.79301 0.0
H264 H 0.26531 0.37846 0.52009 0.0
H265 H 0.18584 0.2548 0.52922 0.0
H266 H 0.21325 0.17893 0.49961 0.0
H267 H 0.25976 0.14786 0.4705 0.0
H268 H 0.33959 0.27232 0.46298 0.0
H269 H 0.3117 0.34758 0.49179 0.0
C270 C 0.25361 0.33517 0.51514 0.0
C271 C 0.22331 0.32271 0.52673 0.0
C272 C 0.26963 0.29168 0.49827 0.0
C273 C 0.2092 0.26575 0.52087 0.0
C274 C 0.22485 0.2223 0.50381 0.0
C275 C 0.27131 0.19123 0.4755 0.0
C276 C 0.30178 0.20403 0.46417 0.0
C277 C 0.25518 0.23468 0.49249 0.0
C278 C 0.31592 0.261 0.47058 0.0
C279 C 0.30006 0.30423 0.48734 0.0
H280 H 0.75714 0.13889 0.01014 0.0
H281 H 0.69686 0.27806 0.03993 0.0
H282 H 0.7283 0.3493 0.01157 0.0
H283 H 0.77305 0.37226 0.97836 0.0
H284 H 0.83501 0.23295 0.95106 0.0
H285 H 0.80247 0.16206 0.97762 0.0
C286 C 0.75059 0.18473 0.00997 0.0
C287 C 0.72456 0.20291 0.02711 0.0
C288 C 0.76913 0.22567 0.99399 0.0
C289 C 0.71693 0.26275 0.0273 0.0
C290 C 0.73487 0.30357 0.01096 0.0
C291 C 0.77982 0.32657 0.9785 0.0
C292 C 0.8066 0.30859 0.96229 0.0
C293 C 0.76121 0.28562 0.99443 0.0
C294 C 0.81432 0.24864 0.96251 0.0
C295 C 0.79577 0.20778 0.97799 0.0
H296 H 0.7326 0.8715 0.49157 0.0
H297 H 0.68926 0.72853 0.54181 0.0
H298 H 0.72378 0.65983 0.51652 0.0
H299 H 0.76715 0.63963 0.48149 0.0
H300 H 0.8086 0.78159 0.42811 0.0
H301 H 0.77408 0.85055 0.45333 0.0
C302 C 0.73024 0.82534 0.4966 0.0
C303 C 0.70828 0.80593 0.5191 0.0
C304 C 0.75013 0.78542 0.48158 0.0
C305 C 0.70622 0.74556 0.52546 0.0
C306 C 0.72591 0.70587 0.51073 0.0
C307 C 0.76859 0.68542 0.47481 0.0
C308 C 0.79104 0.70453 0.45281 0.0
C309 C 0.74817 0.72525 0.489 0.0
C310 C 0.7923 0.76477 0.44531 0.0
C311 C 0.77225 0.80459 0.45958 0.0
H312 H 0.31281 0.77776 0.96056 0.0
H313 H 0.29766 0.9185 0.03596 0.0
H314 H 0.26446 0.85318 0.06667 0.0
H315 H 0.23885 0.75607 0.07127 0.0
H316 H 0.25193 0.61723 0.99279 0.0
H317 H 0.28683 0.68155 0.96451 0.0
C318 C 0.30267 0.79412 0.98404 0.0
C319 C 0.30798 0.85318 0.99599 0.0
C320 C 0.28295 0.75654 1.00094 0.0
C321 C 0.29397 0.87345 0.02608 0.0
C322 C 0.27492 0.83605 0.04362 0.0
C323 C 0.24895 0.73985 0.0477 0.0
C324 C 0.24258 0.68125 0.03452 0.0
C325 C 0.26889 0.77755 0.03101 0.0
C326 C 0.25658 0.66145 1.00423 0.0
C327 C 0.27654 0.69845 0.98778 0.0
H328 H 0.59879 0.10778 0.29325 0.0
H329 H 0.5442 0.05141 0.16766 0.0
H330 H 0.48775 0.04233 0.18203 0.0
H331 H 0.45291 0.05957 0.22813 0.0
H332 H 0.50683 0.12435 0.35189 0.0
H333 H 0.56448 0.12079 0.34029 0.0
C334 C 0.57459 0.09344 0.26893 0.0
C335 C 0.57583 0.0812 0.22916 0.0
C336 C 0.54196 0.09037 0.277 0.0
C337 C 0.5443 0.06095 0.19853 0.0
C338 C 0.51185 0.05635 0.20665 0.0
C339 C 0.47708 0.07341 0.25263 0.0
C340 C 0.47501 0.09325 0.29073 0.0
C341 C 0.51017 0.07262 0.24541 0.0
C342 C 0.5072 0.10891 0.32231 0.0
C343 C 0.5403 0.10716 0.31561 0.0
H344 H 0.58894 0.9233 0.78705 0.0
H345 H 0.51973 0.94469 0.66047 0.0
H346 H 0.46727 0.95414 0.68308 0.0
H347 H 0.44052 0.94343 0.73805 0.0
H348 H 0.50974 0.91798 0.86433 0.0
H349 H 0.56289 0.92349 0.84284 0.0
C350 C 0.5624 0.93092 0.7645 0.0
C351 C 0.55815 0.93256 0.72206 0.0
C352 C 0.5324 0.9348 0.77771 0.0
C353 C 0.52376 0.94352 0.69323 0.0
C354 C 0.49374 0.94824 0.70617 0.0
C355 C 0.46725 0.93939 0.76092 0.0
C356 C 0.4711 0.92918 0.80273 0.0
C357 C 0.49761 0.94183 0.74818 0.0
C358 C 0.50598 0.92575 0.83208 0.0
C359 C 0.53635 0.92855 0.81971 0.0
H360 H 1.01002 0.60367 0.17027 0.0
H361 H 0.11443 0.56334 0.25849 0.0
H362 H 0.08777 0.55338 0.31318 0.0
H363 H 0.03599 0.56979 0.33725 0.0
H364 H 0.93164 0.61024 0.24865 0.0
H365 H 0.95668 0.60587 0.19249 0.0
C366 C 0.0267 0.59139 0.20133 0.0
C367 C 0.06416 0.58467 0.21055 0.0
C368 C 1.01118 0.58651 0.23249 0.0
C369 C 0.08556 0.56832 0.2507 0.0
C370 C 0.07033 0.56329 0.28198 0.0
C371 C 0.0187 0.57667 0.30551 0.0
C372 C 0.98209 0.591 0.2971 0.0
C373 C 0.03341 0.57436 0.2735 0.0
C374 C 0.95979 0.59898 0.25585 0.0
C375 C 0.9742 0.59691 0.22383 0.0
H376 H 0.09938 0.46352 0.78852 0.0
H377 H 0.04172 0.44702 0.65777 0.0
H378 H 0.98436 0.44451 0.67049 0.0
H379 H 0.95168 0.43204 0.71975 0.0
H380 H 1.00869 0.44948 0.85036 0.0
H381 H 0.06525 0.46733 0.83712 0.0
C382 C 0.07412 0.46067 0.76288 0.0
C383 C 0.07474 0.45486 0.72234 0.0
C384 C 0.04126 0.45883 0.77052 0.0
C385 C 0.04193 0.45183 0.68919 0.0
C386 C 1.00915 0.44983 0.6965 0.0
C387 C 0.97643 0.44127 0.74508 0.0
C388 C 0.97634 0.43914 0.78589 0.0
C389 C 1.00864 0.45114 0.73712 0.0
C390 C 1.00828 0.45131 0.81872 0.0
C391 C 0.04058 0.46094 0.81112 0.0
H392 H 0.18425 0.80843 0.15481 0.0
H393 H 0.26053 0.6892 0.2358 0.0
H394 H 0.28477 0.76668 0.28576 0.0
H395 H 0.28881 0.86903 0.30338 0.0
H396 H 0.21872 0.9931 0.22055 0.0
H397 H 0.18644 0.91323 0.17516 0.0
C398 C 0.20597 0.79975 0.18358 0.0
C399 C 0.22107 0.74368 0.19144 0.0
C400 C 0.22065 0.84523 0.21189 0.0
C401 C 0.24906 0.73242 0.22877 0.0
C402 C 0.26277 0.77652 0.2575 0.0
C403 C 0.26613 0.87851 0.27561 0.0
C404 C 0.25641 0.93656 0.26486 0.0
C405 C 0.24941 0.83319 0.2489 0.0
C406 C 0.22661 0.94852 0.22936 0.0
C407 C 0.20853 0.90296 0.20321 0.0
H408 H 0.75487 0.8807 0.20714 0.0
H409 H 0.81875 1.00382 0.29762 0.0
H410 H 0.85544 0.92358 0.33728 0.0
H411 H 0.871 0.81775 0.34411 0.0
H412 H 0.81024 0.69988 0.24765 0.0
H413 H 0.77143 0.77928 0.21166 0.0
C414 C 0.77736 0.89078 0.23493 0.0
C415 C 0.78438 0.94878 0.24866 0.0
C416 C 0.79912 0.84515 0.25639 0.0
C417 C 0.81258 0.95977 0.28611 0.0
C418 C 0.83377 0.91389 0.30868 0.0
C419 C 0.84925 0.80986 0.31519 0.0
C420 C 0.84352 0.7533 0.29832 0.0
C421 C 0.82753 0.85636 0.29384 0.0
C422 C 0.8154 0.74324 0.26087 0.0
C423 C 0.7931 0.78851 0.24039 0.0
H424 H 0.71512 0.13441 0.70431 0.0
H425 H 0.79735 0.01511 0.77487 0.0
H426 H 0.83382 0.09734 0.81273 0.0
H427 H 0.84423 0.20454 0.8211 0.0
H428 H 0.76261 0.32093 0.74527 0.0
H429 H 0.72415 0.23851 0.71381 0.0
C430 C 0.74117 0.12624 0.72776 0.0
C431 C 0.75387 0.06887 0.73613 0.0
C432 C 0.76217 0.17337 0.74828 0.0
C433 C 0.78705 0.05896 0.76771 0.0
C434 C 0.80796 0.10597 0.78916 0.0
C435 C 0.81786 0.21153 0.79801 0.0
C436 C 0.8063 0.26853 0.78517 0.0
C437 C 0.79611 0.16355 0.77907 0.0
C438 C 0.7722 0.27735 0.75519 0.0
C439 C 0.75016 0.23031 0.73725 0.0
H440 H 0.19266 0.22175 0.66807 0.0
H441 H 0.2858 0.32848 0.72954 0.0
H442 H 0.31172 0.25051 0.77855 0.0
H443 H 0.30947 0.15208 0.80194 0.0
H444 H 0.22194 0.03752 0.73599 0.0
H445 H 0.19113 0.11924 0.6918 0.0
C446 C 0.21863 0.22747 0.69223 0.0
C447 C 0.23764 0.28018 0.69513 0.0
C448 C 0.234 0.18155 0.71962 0.0
C449 C 0.27114 0.28774 0.72641 0.0
C450 C 0.2858 0.24348 0.7546 0.0
C451 C 0.28377 0.14457 0.77762 0.0
C452 C 0.26844 0.08853 0.77147 0.0
C453 C 0.2677 0.19016 0.7511 0.0
C454 C 0.23438 0.08025 0.74113 0.0
C455 C 0.21703 0.12677 0.71565 0.0
H456 H 0.76864 0.46796 0.22291 0.0
H457 H 0.81227 0.38323 0.34145 0.0
H458 H 0.7827 0.29231 0.31184 0.0
H459 H 0.7503 0.23401 0.25097 0.0
H460 H 0.7057 0.31613 0.13199 0.0
H461 H 0.72944 0.41102 0.16269 0.0
C462 C 0.77091 0.42982 0.24223 0.0
C463 C 0.79301 0.43179 0.28405 0.0
C464 C 0.75404 0.37719 0.22482 0.0
C465 C 0.79582 0.38226 0.30898 0.0
C466 C 0.77899 0.33029 0.29212 0.0
C467 C 0.74536 0.27305 0.23207 0.0
C468 C 0.72662 0.26885 0.18959 0.0
C469 C 0.75903 0.32679 0.2499 0.0
C470 C 0.72008 0.31907 0.16496 0.0
C471 C 0.73375 0.37303 0.18247 0.0
H472 H 0.20923 0.40103 0.25862 0.0
H473 H 0.30314 0.50288 0.26672 0.0
H474 H 0.3424 0.42087 0.29944 0.0
H475 H 0.34853 0.31422 0.31322 0.0
H476 H 0.25282 0.21223 0.29769 0.0
H477 H 0.2157 0.2997 0.28094 0.0
C478 C 0.23838 0.40576 0.26913 0.0
C479 C 0.25347 0.45748 0.26068 0.0
C480 C 0.26034 0.35773 0.2857 0.0
C481 C 0.29114 0.46344 0.27359 0.0
C482 C 0.31346 0.41628 0.29167 0.0
C483 C 0.31967 0.31177 0.30702 0.0
C484 C 0.30315 0.25723 0.30598 0.0
C485 C 0.29824 0.36226 0.29596 0.0
C486 C 0.26582 0.25396 0.29793 0.0
C487 C 0.24464 0.30386 0.28845 0.0
H488 H 0.25846 0.57144 0.79532 0.0
H489 H 0.31009 0.61531 0.70695 0.0
H490 H 0.33995 0.69872 0.74953 0.0
H491 H 0.34551 0.76504 0.8078 0.0
H492 H 0.28854 0.72511 0.89182 0.0
H493 H 0.26716 0.63368 0.85564 0.0
C494 C 0.277 0.59844 0.78599 0.0
C495 C 0.28231 0.58738 0.74832 0.0
C496 C 0.29281 0.64727 0.80971 0.0
C497 C 0.30571 0.62326 0.73595 0.0
C498 C 0.32264 0.67092 0.76019 0.0
C499 C 0.32894 0.7358 0.81853 0.0
C500 C 0.31841 0.75185 0.85221 0.0
C501 C 0.31553 0.68431 0.79652 0.0
C502 C 0.29675 0.71382 0.86573 0.0
C503 C 0.28447 0.66158 0.84504 0.0
H504 H 0.73847 0.78467 0.74115 0.0
H505 H 0.68006 0.69387 0.62865 0.0
H506 H 0.70005 0.59982 0.66283 0.0
H507 H 0.73959 0.54488 0.72332 0.0
H508 H 0.79654 0.63737 0.83574 0.0
H509 H 0.77083 0.72949 0.80369 0.0
C510 C 0.73007 0.74408 0.7244 0.0
C511 C 0.70869 0.74533 0.68259 0.0
C512 C 0.74102 0.69079 0.74441 0.0
C513 C 0.697 0.69316 0.66093 0.0
C514 C 0.70832 0.63968 0.68045 0.0
C515 C 0.74522 0.58508 0.74099 0.0
C516 C 0.76967 0.58493 0.78164 0.0
C517 C 0.73092 0.63802 0.72202 0.0
C518 C 0.77748 0.63699 0.80441 0.0
C519 C 0.76316 0.68956 0.786 0.0
H520 H 0.44 0.97505 0.44162 0.0
H521 H 0.47899 0.15154 0.46847 0.0
H522 H 0.53414 0.11541 0.52097 0.0
H523 H 0.57135 0.0337 0.55795 0.0
H524 H 0.53242 0.85726 0.53037 0.0
H525 H 0.47678 0.89363 0.47907 0.0
C526 C 0.46048 1.00582 0.45897 0.0
C527 C 0.45541 0.06605 0.45112 0.0
C528 C 0.49201 0.98471 0.48878 0.0
C529 C 0.48222 0.1051 0.47394 0.0
C530 C 0.51373 0.0844 0.50388 0.0
C531 C 0.5507 1.00305 0.54079 0.0
C532 C 0.55605 0.9427 0.54792 0.0
C533 C 0.51894 0.02429 0.51136 0.0
C534 C 0.52899 0.90379 0.52545 0.0
C535 C 0.49721 0.92461 0.49614 0.0
H536 H 0.54745 0.11966 0.05354 0.0
H537 H 0.60807 0.9596 0.07201 0.0
H538 H 0.55519 0.90736 0.02816 0.0
H539 H 0.49141 0.90665 0.9829 0.0
H540 H 0.43097 0.06684 0.96397 0.0
H541 H 0.4834 0.11856 0.00943 0.0
C542 C 0.54905 0.07347 0.04781 0.0
C543 C 0.58173 0.0439 0.066 0.0
C544 C 0.51831 0.04318 0.02249 0.0
C545 C 0.58325 0.98375 0.05846 0.0
C546 C 0.55296 0.95355 0.03336 0.0
C547 C 0.4897 0.95265 0.98917 0.0
C548 C 0.45735 0.98266 0.97001 0.0
C549 C 0.52026 0.9827 0.01513 0.0
C550 C 0.45563 0.04255 0.97816 0.0
C551 C 0.48565 0.0724 1.00416 0.0
H552 H 0.08817 0.55571 0.57605 0.0
H553 H 0.05363 0.37713 0.54886 0.0
H554 H 0.99277 0.41031 0.50875 0.0
H555 H 0.95093 0.48969 0.47842 0.0
H556 H 0.986 0.6684 0.50304 0.0
H557 H 0.04515 0.63527 0.54879 0.0
C558 C 0.06739 0.52392 0.56127 0.0
C559 C 0.07553 0.46395 0.56485 0.0
C560 C 0.03258 0.54332 0.5385 0.0
C561 C 0.04815 0.42344 0.5461 0.0
C562 C 1.01336 0.44241 0.52342 0.0
C563 C 0.97127 0.5216 0.49429 0.0
C564 C 0.96415 0.58154 0.48719 0.0
C565 C 1.00544 0.50221 0.51912 0.0
C566 C 0.99074 0.62213 0.50815 0.0
C567 C 0.02467 0.60314 0.53388 0.0
H568 H 0.08766 0.46663 0.04509 0.0
H569 H 0.05698 0.64173 1.00149 0.0
H570 H 1.00052 0.60452 0.95203 0.0
H571 H 0.95906 0.52397 0.9245 0.0
H572 H 0.98826 0.34861 0.96831 0.0
H573 H 0.04672 0.38463 0.01504 0.0
C574 C 0.06881 0.49676 0.02451 0.0
C575 C 0.07647 0.5571 0.02704 0.0
C576 C 0.03622 0.47512 0.99677 0.0
C577 C 0.05178 0.59529 1.00011 0.0
C578 C 0.01946 0.57401 0.97204 0.0
C579 C 0.97805 0.49326 0.94428 0.0
C580 C 0.96909 0.43358 0.94338 0.0
C581 C 1.01122 0.51426 0.97071 0.0
C582 C 0.99439 0.39466 0.96869 0.0
C583 C 0.02775 0.41532 0.99528 0.0
loop_
_geom_bond_atom_site_label_1
_geom_bond_atom_site_label_2
_geom_bond_distance
_geom_bond_site_symmetry_2
_ccdc_geom_bond_type
Co0 N4 2.148 . S
Co0 N10 2.128 . S
Co0 N20 2.194 . S
Co0 O25 2.351 . S
Co0 O26 2.155 . S
Co0 O27 2.096 . S
C1 N4 1.301 . S
C1 N5 1.328 . S
C1 H6 0.930 . S
C2 C3 1.333 . S
C2 N4 1.317 . S
C2 H7 0.930 . S
C3 C2 1.333 . S
C3 N5 1.350 . S
C3 H29 0.931 . S
N4 Co0 2.148 . S
N4 C1 1.301 . S
N4 C2 1.317 . S
N5 C1 1.328 . S
N5 C3 1.350 . S
H6 C1 0.930 . S
H7 C2 0.930 . S
C8 O9 1.224 . S
C8 O27 1.247 . S
O9 C8 1.224 . S
N10 Co0 2.128 . S
N10 C11 1.355 . S
N10 C13 1.311 . S
C11 N10 1.355 . S
C11 C12 1.363 . S
C11 H23 0.929 . S
C12 C11 1.363 . S
C12 N14 1.375 . S
C12 H30 0.931 . S
C13 N10 1.311 . S
C13 N14 1.347 . S
C13 H24 0.929 . S
N14 C12 1.375 . S
N14 C13 1.347 . S
C15 C18 1.365 . S
C15 N20 1.328 1_565 S
C15 H21 0.929 . S
C16 C17 1.362 . S
C16 C19 1.378 1_565 S
C16 H31 0.932 . S
C17 C16 1.362 . S
C17 C18 1.366 . S
C18 C15 1.365 . S
C18 C17 1.366 . S
C18 H32 0.930 . S
C19 C16 1.378 1_545 S
C19 N20 1.315 . S
C19 H22 0.930 . S
N20 Co0 2.194 . S
N20 C15 1.328 1_545 S
N20 C19 1.315 . S
H21 C15 0.929 . S
H22 C19 0.930 . S
H23 C11 0.929 . S
H24 C13 0.929 . S
O25 Co0 2.351 . S
O25 C28 1.244 . S
O26 Co0 2.155 . S
O26 C28 1.240 . S
O27 Co0 2.096 . S
O27 C8 1.247 . S
C28 O25 1.244 . S
C28 O26 1.240 . S
H29 C3 0.931 . S
H30 C12 0.931 . S
H31 C16 0.932 . S
H32 C18 0.930 . S
Co33 N37 2.148 . S
Co33 N43 2.128 . S
Co33 N53 2.194 . S
Co33 O58 2.351 . S
Co33 O59 2.155 . S
Co33 O60 2.096 . S
C34 N37 1.301 . S
C34 N38 1.328 . S
C34 H39 0.930 . S
C35 C36 1.333 . S
C35 N37 1.317 . S
C35 H40 0.930 . S
C36 C35 1.333 . S
C36 N38 1.350 . S
C36 H62 0.931 . S
N37 Co33 2.148 . S
N37 C34 1.301 . S
N37 C35 1.317 . S
N38 C34 1.328 . S
N38 C36 1.350 . S
H39 C34 0.930 . S
H40 C35 0.930 . S
C41 O42 1.224 . S
C41 O60 1.247 . S
O42 C41 1.224 . S
N43 Co33 2.128 . S
N43 C44 1.355 . S
N43 C46 1.311 . S
C44 N43 1.355 . S
C44 C45 1.363 . S
C44 H56 0.929 . S
C45 C44 1.363 . S
C45 N47 1.375 . S
C45 H63 0.931 . S
C46 N43 1.311 . S
C46 N47 1.347 . S
C46 H57 0.929 . S
N47 C45 1.375 . S
N47 C46 1.347 . S
C48 C51 1.365 . S
C48 N53 1.328 1_565 S
C48 H54 0.929 . S
C49 C50 1.362 . S
C49 C52 1.378 1_565 S
C49 H64 0.932 . S
C50 C49 1.362 . S
C50 C51 1.366 . S
C51 C48 1.365 . S
C51 C50 1.366 . S
C51 H65 0.930 . S
C52 C49 1.378 1_545 S
C52 N53 1.315 . S
C52 H55 0.930 . S
N53 Co33 2.194 . S
N53 C48 1.328 1_545 S
N53 C52 1.315 . S
H54 C48 0.929 . S
H55 C52 0.930 . S
H56 C44 0.929 . S
H57 C46 0.929 . S
O58 Co33 2.351 . S
O58 C61 1.244 . S
O59 Co33 2.155 . S
O59 C61 1.240 . S
O60 Co33 2.096 . S
O60 C41 1.247 . S
C61 O58 1.244 . S
C61 O59 1.240 . S
H62 C36 0.931 . S
H63 C45 0.931 . S
H64 C49 0.932 . S
H65 C51 0.930 . S
Co66 N70 2.148 . S
Co66 N76 2.128 . S
Co66 N86 2.194 . S
Co66 O91 2.351 . S
Co66 O92 2.155 . S
Co66 O93 2.096 . S
C67 N70 1.301 . S
C67 N71 1.328 . S
C67 H72 0.930 . S
C68 C69 1.333 . S
C68 N70 1.317 . S
C68 H73 0.930 . S
C69 C68 1.333 . S
C69 N71 1.350 . S
C69 H95 0.931 . S
N70 Co66 2.148 . S
N70 C67 1.301 . S
N70 C68 1.317 . S
N71 C67 1.328 . S
N71 C69 1.350 . S
H72 C67 0.930 . S
H73 C68 0.930 . S
C74 O75 1.224 . S
C74 O93 1.247 . S
O75 C74 1.224 . S
N76 Co66 2.128 . S
N76 C77 1.355 . S
N76 C79 1.311 . S
C77 N76 1.355 . S
C77 C78 1.363 . S
C77 H89 0.929 . S
C78 C77 1.363 . S
C78 N80 1.375 . S
C78 H96 0.931 . S
C79 N76 1.311 . S
C79 N80 1.347 . S
C79 H90 0.929 . S
N80 C78 1.375 . S
N80 C79 1.347 . S
C81 C84 1.365 . S
C81 N86 1.328 1_545 S
C81 H87 0.929 . S
C82 C83 1.362 . S
C82 C85 1.378 1_545 S
C82 H97 0.932 . S
C83 C82 1.362 . S
C83 C84 1.366 . S
C84 C81 1.365 . S
C84 C83 1.366 . S
C84 H98 0.930 . S
C85 C82 1.378 1_565 S
C85 N86 1.315 . S
C85 H88 0.930 . S
N86 Co66 2.194 . S
N86 C81 1.328 1_565 S
N86 C85 1.315 . S
H87 C81 0.929 . S
H88 C85 0.930 . S
H89 C77 0.929 . S
H90 C79 0.929 . S
O91 Co66 2.351 . S
O91 C94 1.244 . S
O92 Co66 2.155 . S
O92 C94 1.240 . S
O93 Co66 2.096 . S
O93 C74 1.247 . S
C94 O91 1.244 . S
C94 O92 1.240 . S
H95 C69 0.931 . S
H96 C78 0.931 . S
H97 C82 0.932 . S
H98 C84 0.930 . S
Co99 N103 2.148 . S
Co99 N109 2.128 . S
Co99 N119 2.194 . S
Co99 O124 2.351 . S
Co99 O125 2.155 . S
Co99 O126 2.096 . S
C100 N103 1.301 . S
C100 N104 1.328 . S
C100 H105 0.930 . S
C101 C102 1.333 . S
C101 N103 1.317 . S
C101 H106 0.930 . S
C102 C101 1.333 . S
C102 N104 1.350 . S
C102 H128 0.931 . S
N103 Co99 2.148 . S
N103 C100 1.301 . S
N103 C101 1.317 . S
N104 C100 1.328 . S
N104 C102 1.350 . S
H105 C100 0.930 . S
H106 C101 0.930 . S
C107 O108 1.224 . S
C107 O126 1.247 . S
O108 C107 1.224 . S
N109 Co99 2.128 . S
N109 C110 1.355 . S
N109 C112 1.311 . S
C110 N109 1.355 . S
C110 C111 1.363 . S
C110 H122 0.929 . S
C111 C110 1.363 . S
C111 N113 1.375 . S
C111 H129 0.931 . S
C112 N109 1.311 . S
C112 N113 1.347 . S
C112 H123 0.929 . S
N113 C111 1.375 . S
N113 C112 1.347 . S
C114 C117 1.365 . S
C114 N119 1.328 1_545 S
C114 H120 0.929 . S
C115 C116 1.362 . S
C115 C118 1.378 1_545 S
C115 H130 0.932 . S
C116 C115 1.362 . S
C116 C117 1.366 . S
C117 C114 1.365 . S
C117 C116 1.366 . S
C117 H131 0.930 . S
C118 C115 1.378 1_565 S
C118 N119 1.315 . S
C118 H121 0.930 . S
N119 Co99 2.194 . S
N119 C114 1.328 1_565 S
N119 C118 1.315 . S
H120 C114 0.929 . S
H121 C118 0.930 . S
H122 C110 0.929 . S
H123 C112 0.929 . S
O124 Co99 2.351 . S
O124 C127 1.244 . S
O125 Co99 2.155 . S
O125 C127 1.240 . S
O126 Co99 2.096 . S
O126 C107 1.247 . S
C127 O124 1.244 . S
C127 O125 1.240 . S
H128 C102 0.931 . S
H129 C111 0.931 . S
H130 C115 0.932 . S
H131 C117 0.930 . S
Co132 N136 2.148 . S
Co132 N142 2.128 . S
Co132 N152 2.194 . S
Co132 O157 2.351 . S
Co132 O158 2.155 . S
Co132 O159 2.096 . S
C133 N136 1.301 . S
C133 N137 1.328 . S
C133 H138 0.930 . S
C134 C135 1.333 . S
C134 N136 1.317 . S
C134 H139 0.930 . S
C135 C134 1.333 . S
C135 N137 1.350 . S
C135 H161 0.931 . S
N136 Co132 2.148 . S
N136 C133 1.301 . S
N136 C134 1.317 . S
N137 C133 1.328 . S
N137 C135 1.350 . S
H138 C133 0.930 . S
H139 C134 0.930 . S
C140 O141 1.224 . S
C140 O159 1.247 . S
O141 C140 1.224 . S
N142 Co132 2.128 . S
N142 C143 1.355 . S
N142 C145 1.311 . S
C143 N142 1.355 . S
C143 C144 1.363 . S
C143 H155 0.929 . S
C144 C143 1.363 . S
C144 N146 1.375 . S
C144 H162 0.931 . S
C145 N142 1.311 . S
C145 N146 1.347 . S
C145 H156 0.929 . S
N146 C144 1.375 . S
N146 C145 1.347 . S
C147 C150 1.365 . S
C147 N152 1.328 . S
C147 H153 0.929 . S
C148 C149 1.362 . S
C148 C151 1.378 . S
C148 H163 0.929 . S
C149 C148 1.362 . S
C149 C150 1.366 . S
C150 C147 1.365 . S
C150 C149 1.366 . S
C150 H164 0.930 . S
C151 C148 1.378 . S
C151 N152 1.315 . S
C151 H154 0.930 . S
N152 Co132 2.194 . S
N152 C147 1.328 . S
N152 C151 1.315 . S
H153 C147 0.929 . S
H154 C151 0.930 . S
H155 C143 0.929 . S
H156 C145 0.929 . S
O157 Co132 2.351 . S
O157 C160 1.244 . S
O158 Co132 2.155 . S
O158 C160 1.240 . S
O159 Co132 2.096 . S
O159 C140 1.247 . S
C160 O157 1.244 . S
C160 O158 1.240 . S
H161 C135 0.931 . S
H162 C144 0.931 . S
H163 C148 0.929 . S
H164 C150 0.930 . S
Co165 N169 2.148 . S
Co165 N175 2.128 . S
Co165 N185 2.194 . S
Co165 O190 2.351 . S
Co165 O191 2.155 . S
Co165 O192 2.096 . S
C166 N169 1.301 . S
C166 N170 1.328 . S
C166 H171 0.930 . S
C167 C168 1.333 . S
C167 N169 1.317 . S
C167 H172 0.930 . S
C168 C167 1.333 . S
C168 N170 1.350 . S
C168 H194 0.931 . S
N169 Co165 2.148 . S
N169 C166 1.301 . S
N169 C167 1.317 . S
N170 C166 1.328 . S
N170 C168 1.350 . S
H171 C166 0.930 . S
H172 C167 0.930 . S
C173 O174 1.224 . S
C173 O192 1.247 . S
O174 C173 1.224 . S
N175 Co165 2.128 . S
N175 C176 1.355 . S
N175 C178 1.311 . S
C176 N175 1.355 . S
C176 C177 1.363 . S
C176 H188 0.929 . S
C177 C176 1.363 . S
C177 N179 1.375 . S
C177 H195 0.931 . S
C178 N175 1.311 . S
C178 N179 1.347 . S
C178 H189 0.929 . S
N179 C177 1.375 . S
N179 C178 1.347 . S
C180 C183 1.365 . S
C180 N185 1.328 . S
C180 H186 0.929 . S
C181 C182 1.362 . S
C181 C184 1.378 . S
C181 H196 0.929 . S
C182 C181 1.362 . S
C182 C183 1.366 . S
C183 C180 1.365 . S
C183 C182 1.366 . S
C183 H197 0.930 . S
C184 C181 1.378 . S
C184 N185 1.315 . S
C184 H187 0.930 . S
N185 Co165 2.194 . S
N185 C180 1.328 . S
N185 C184 1.315 . S
H186 C180 0.929 . S
H187 C184 0.930 . S
H188 C176 0.929 . S
H189 C178 0.929 . S
O190 Co165 2.351 . S
O190 C193 1.244 . S
O191 Co165 2.155 . S
O191 C193 1.240 . S
O192 Co165 2.096 . S
O192 C173 1.247 . S
C193 O190 1.244 . S
C193 O191 1.240 . S
H194 C168 0.931 . S
H195 C177 0.931 . S
H196 C181 0.929 . S
H197 C183 0.930 . S
Co198 N202 2.148 . S
Co198 N208 2.128 . S
Co198 N218 2.194 . S
Co198 O223 2.351 . S
Co198 O224 2.155 . S
Co198 O225 2.096 . S
C199 N202 1.301 . S
C199 N203 1.328 . S
C199 H204 0.930 . S
C200 C201 1.333 . S
C200 N202 1.317 . S
C200 H205 0.930 . S
C201 C200 1.333 . S
C201 N203 1.350 . S
C201 H227 0.931 . S
N202 Co198 2.148 . S
N202 C199 1.301 . S
N202 C200 1.317 . S
N203 C199 1.328 . S
N203 C201 1.350 . S
H204 C199 0.930 . S
H205 C200 0.930 . S
C206 O207 1.224 . S
C206 O225 1.247 . S
O207 C206 1.224 . S
N208 Co198 2.128 . S
N208 C209 1.355 . S
N208 C211 1.311 . S
C209 N208 1.355 . S
C209 C210 1.363 . S
C209 H221 0.929 . S
C210 C209 1.363 . S
C210 N212 1.375 . S
C210 H228 0.931 . S
C211 N208 1.311 . S
C211 N212 1.347 . S
C211 H222 0.929 . S
N212 C210 1.375 . S
N212 C211 1.347 . S
C213 C216 1.365 . S
C213 N218 1.328 . S
C213 H219 0.929 . S
C214 C215 1.362 . S
C214 C217 1.378 . S
C214 H229 0.929 . S
C215 C214 1.362 . S
C215 C216 1.366 . S
C216 C213 1.365 . S
C216 C215 1.366 . S
C216 H230 0.930 . S
C217 C214 1.378 . S
C217 N218 1.315 . S
C217 H220 0.930 . S
N218 Co198 2.194 . S
N218 C213 1.328 . S
N218 C217 1.315 . S
H219 C213 0.929 . S
H220 C217 0.930 . S
H221 C209 0.929 . S
H222 C211 0.929 . S
O223 Co198 2.351 . S
O223 C226 1.244 . S
O224 Co198 2.155 . S
O224 C226 1.240 . S
O225 Co198 2.096 . S
O225 C206 1.247 . S
C226 O223 1.244 . S
C226 O224 1.240 . S
H227 C201 0.931 . S
H228 C210 0.931 . S
H229 C214 0.929 . S
H230 C216 0.930 . S
Co231 N235 2.148 . S
Co231 N241 2.128 . S
Co231 N251 2.194 . S
Co231 O256 2.351 . S
Co231 O257 2.155 . S
Co231 O258 2.096 . S
C232 N235 1.301 . S
C232 N236 1.328 . S
C232 H237 0.930 . S
C233 C234 1.333 . S
C233 N235 1.317 . S
C233 H238 0.930 . S
C234 C233 1.333 . S
C234 N236 1.350 . S
C234 H260 0.931 . S
N235 Co231 2.148 . S
N235 C232 1.301 . S
N235 C233 1.317 . S
N236 C232 1.328 . S
N236 C234 1.350 . S
H237 C232 0.930 . S
H238 C233 0.930 . S
C239 O240 1.224 . S
C239 O258 1.247 . S
O240 C239 1.224 . S
N241 Co231 2.128 . S
N241 C242 1.355 . S
N241 C244 1.311 . S
C242 N241 1.355 . S
C242 C243 1.363 . S
C242 H254 0.929 . S
C243 C242 1.363 . S
C243 N245 1.375 . S
C243 H261 0.931 . S
C244 N241 1.311 . S
C244 N245 1.347 . S
C244 H255 0.929 . S
N245 C243 1.375 . S
N245 C244 1.347 . S
C246 C249 1.365 . S
C246 N251 1.328 . S
C246 H252 0.929 . S
C247 C248 1.362 . S
C247 C250 1.378 . S
C247 H262 0.929 . S
C248 C247 1.362 . S
C248 C249 1.366 . S
C249 C246 1.365 . S
C249 C248 1.366 . S
C249 H263 0.930 . S
C250 C247 1.378 . S
C250 N251 1.315 . S
C250 H253 0.930 . S
N251 Co231 2.194 . S
N251 C246 1.328 . S
N251 C250 1.315 . S
H252 C246 0.929 . S
H253 C250 0.930 . S
H254 C242 0.929 . S
H255 C244 0.929 . S
O256 Co231 2.351 . S
O256 C259 1.244 . S
O257 Co231 2.155 . S
O257 C259 1.240 . S
O258 Co231 2.096 . S
O258 C239 1.247 . S
C259 O256 1.244 . S
C259 O257 1.240 . S
H260 C234 0.931 . S
H261 C243 0.931 . S
H262 C247 0.929 . S
H263 C249 0.930 . S
H264 C270 0.930 . S
H265 C273 0.930 . S
H266 C274 0.930 . S
H267 C275 0.930 . S
H268 C278 0.930 . S
H269 C279 0.930 . S
C270 H264 0.930 . S
C270 C271 1.355 . S
C270 C272 1.415 . S
C271 C270 1.355 . S
C271 C273 1.419 . S
C272 C270 1.415 . S
C272 C277 1.425 . S
C272 C279 1.409 . S
C273 H265 0.930 . S
C273 C271 1.419 . S
C273 C274 1.362 . S
C274 H266 0.930 . S
C274 C273 1.362 . S
C274 C277 1.409 . S
C275 H267 0.930 . S
C275 C276 1.355 . S
C275 C277 1.415 . S
C276 C275 1.355 . S
C276 C278 1.419 . S
C277 C272 1.425 . S
C277 C274 1.409 . S
C277 C275 1.415 . S
C278 H268 0.930 . S
C278 C276 1.419 . S
C278 C279 1.362 . S
C279 H269 0.930 . S
C279 C272 1.409 . S
C279 C278 1.362 . S
H280 C286 0.930 . S
H281 C289 0.930 . S
H282 C290 0.930 . S
H283 C291 0.930 . S
H284 C294 0.930 . S
H285 C295 0.930 . S
C286 H280 0.930 . S
C286 C287 1.355 . S
C286 C288 1.415 1_554 S
C287 C286 1.355 . S
C287 C289 1.419 . S
C288 C286 1.415 1_556 S
C288 C293 1.425 1_556 S
C288 C295 1.409 . S
C289 H281 0.930 . S
C289 C287 1.419 . S
C289 C290 1.362 . S
C290 H282 0.930 . S
C290 C289 1.362 . S
C290 C293 1.409 . S
C291 H283 0.930 . S
C291 C292 1.355 . S
C291 C293 1.415 1_556 S
C292 C291 1.355 . S
C292 C294 1.419 . S
C293 C288 1.425 1_554 S
C293 C290 1.409 . S
C293 C291 1.415 1_554 S
C294 H284 0.930 . S
C294 C292 1.419 . S
C294 C295 1.362 . S
C295 H285 0.930 . S
C295 C288 1.409 . S
C295 C294 1.362 . S
H296 C302 0.930 . S
H297 C305 0.930 . S
H298 C306 0.930 . S
H299 C307 0.930 . S
H300 C310 0.930 . S
H301 C311 0.930 . S
C302 H296 0.930 . S
C302 C303 1.355 . S
C302 C304 1.415 . S
C303 C302 1.355 . S
C303 C305 1.419 . S
C304 C302 1.415 . S
C304 C309 1.425 . S
C304 C311 1.409 . S
C305 H297 0.930 . S
C305 C303 1.419 . S
C305 C306 1.362 . S
C306 H298 0.930 . S
C306 C305 1.362 . S
C306 C309 1.409 . S
C307 H299 0.930 . S
C307 C308 1.355 . S
C307 C309 1.415 . S
C308 C307 1.355 . S
C308 C310 1.419 . S
C309 C304 1.425 . S
C309 C306 1.409 . S
C309 C307 1.415 . S
C310 H300 0.930 . S
C310 C308 1.419 . S
C310 C311 1.362 . S
C311 H301 0.930 . S
C311 C304 1.409 . S
C311 C310 1.362 . S
H312 C318 0.930 . S
H313 C321 0.930 1_554 S
H314 C322 0.930 . S
H315 C323 0.930 . S
H316 C326 0.930 1_556 S
H317 C327 0.930 . S
C318 H312 0.930 . S
C318 C319 1.355 . S
C318 C320 1.415 . S
C319 C318 1.355 . S
C319 C321 1.419 . S
C320 C318 1.415 . S
C320 C325 1.425 1_556 S
C320 C327 1.409 . S
C321 H313 0.930 1_556 S
C321 C319 1.419 . S
C321 C322 1.362 1_556 S
C322 H314 0.930 . S
C322 C321 1.362 1_554 S
C322 C325 1.409 . S
C323 H315 0.930 . S
C323 C324 1.355 . S
C323 C325 1.415 . S
C324 C323 1.355 . S
C324 C326 1.419 . S
C325 C320 1.425 1_554 S
C325 C322 1.409 . S
C325 C323 1.415 . S
C326 H316 0.930 1_554 S
C326 C324 1.419 . S
C326 C327 1.362 1_554 S
C327 H317 0.930 . S
C327 C320 1.409 . S
C327 C326 1.362 1_556 S
H328 C334 0.930 . S
H329 C337 0.930 1_565 S
H330 C338 0.930 1_565 S
H331 C339 0.930 . S
H332 C342 0.930 . S
H333 C343 0.930 . S
C334 H328 0.930 . S
C334 C335 1.355 . S
C334 C336 1.415 . S
C335 C334 1.355 . S
C335 C337 1.419 . S
C336 C334 1.415 . S
C336 C341 1.425 . S
C336 C343 1.409 . S
C337 H329 0.930 1_545 S
C337 C335 1.419 . S
C337 C338 1.362 . S
C338 H330 0.930 1_545 S
C338 C337 1.362 . S
C338 C341 1.409 . S
C339 H331 0.930 . S
C339 C340 1.355 . S
C339 C341 1.415 . S
C340 C339 1.355 . S
C340 C342 1.419 . S
C341 C336 1.425 . S
C341 C338 1.409 . S
C341 C339 1.415 . S
C342 H332 0.930 . S
C342 C340 1.419 . S
C342 C343 1.362 . S
C343 H333 0.930 . S
C343 C336 1.409 . S
C343 C342 1.362 . S
H344 C350 0.930 . S
H345 C353 0.930 . S
H346 C354 0.930 . S
H347 C355 0.930 . S
H348 C358 0.930 . S
H349 C359 0.930 . S
C350 H344 0.930 . S
C350 C351 1.355 . S
C350 C352 1.415 . S
C351 C350 1.355 . S
C351 C353 1.419 . S
C352 C350 1.415 . S
C352 C357 1.425 . S
C352 C359 1.409 . S
C353 H345 0.930 . S
C353 C351 1.419 . S
C353 C354 1.362 . S
C354 H346 0.930 . S
C354 C353 1.362 . S
C354 C357 1.409 . S
C355 H347 0.930 . S
C355 C356 1.355 . S
C355 C357 1.415 . S
C356 C355 1.355 . S
C356 C358 1.419 . S
C357 C352 1.425 . S
C357 C354 1.409 . S
C357 C355 1.415 . S
C358 H348 0.930 . S
C358 C356 1.419 . S
C358 C359 1.362 . S
C359 H349 0.930 . S
C359 C352 1.409 . S
C359 C358 1.362 . S
H360 C366 0.930 . S
H361 C369 0.930 . S
H362 C370 0.930 . S
H363 C371 0.930 . S
H364 C374 0.930 . S
H365 C375 0.930 . S
C366 H360 0.930 . S
C366 C367 1.355 . S
C366 C368 1.415 1_455 S
C367 C366 1.355 . S
C367 C369 1.419 . S
C368 C366 1.415 1_655 S
C368 C373 1.425 1_655 S
C368 C375 1.409 . S
C369 H361 0.930 . S
C369 C367 1.419 . S
C369 C370 1.362 . S
C370 H362 0.930 . S
C370 C369 1.362 . S
C370 C373 1.409 . S
C371 H363 0.930 . S
C371 C372 1.355 . S
C371 C373 1.415 1_655 S
C372 C371 1.355 . S
C372 C374 1.419 . S
C373 C368 1.425 1_455 S
C373 C370 1.409 . S
C373 C371 1.415 1_455 S
C374 H364 0.930 . S
C374 C372 1.419 . S
C374 C375 1.362 . S
C375 H365 0.930 . S
C375 C368 1.409 . S
C375 C374 1.362 . S
H376 C382 0.930 . S
H377 C385 0.930 . S
H378 C386 0.930 . S
H379 C387 0.930 . S
H380 C390 0.930 . S
H381 C391 0.930 . S
C382 H376 0.930 . S
C382 C383 1.355 . S
C382 C384 1.415 . S
C383 C382 1.355 . S
C383 C385 1.419 . S
C384 C382 1.415 . S
C384 C389 1.425 1_455 S
C384 C391 1.409 . S
C385 H377 0.930 . S
C385 C383 1.419 . S
C385 C386 1.362 1_455 S
C386 H378 0.930 . S
C386 C385 1.362 1_655 S
C386 C389 1.409 . S
C387 H379 0.930 . S
C387 C388 1.355 . S
C387 C389 1.415 . S
C388 C387 1.355 . S
C388 C390 1.419 . S
C389 C384 1.425 1_655 S
C389 C386 1.409 . S
C389 C387 1.415 . S
C390 H380 0.930 . S
C390 C388 1.419 . S
C390 C391 1.362 1_655 S
C391 H381 0.930 . S
C391 C384 1.409 . S
C391 C390 1.362 1_455 S
H392 C398 0.930 . S
H393 C401 0.930 . S
H394 C402 0.930 . S
H395 C403 0.930 . S
H396 C406 0.930 . S
H397 C407 0.930 . S
C398 H392 0.930 . S
C398 C399 1.355 . S
C398 C400 1.415 . S
C399 C398 1.355 . S
C399 C401 1.419 . S
C400 C398 1.415 . S
C400 C405 1.425 . S
C400 C407 1.409 . S
C401 H393 0.930 . S
C401 C399 1.419 . S
C401 C402 1.362 . S
C402 H394 0.930 . S
C402 C401 1.362 . S
C402 C405 1.409 . S
C403 H395 0.930 . S
C403 C404 1.355 . S
C403 C405 1.415 . S
C404 C403 1.355 . S
C404 C406 1.419 . S
C405 C400 1.425 . S
C405 C402 1.409 . S
C405 C403 1.415 . S
C406 H396 0.930 . S
C406 C404 1.419 . S
C406 C407 1.362 . S
C407 H397 0.930 . S
C407 C400 1.409 . S
C407 C406 1.362 . S
H408 C414 0.930 . S
H409 C417 0.930 . S
H410 C418 0.930 . S
H411 C419 0.930 . S
H412 C422 0.930 . S
H413 C423 0.930 . S
C414 H408 0.930 . S
C414 C415 1.355 . S
C414 C416 1.415 . S
C415 C414 1.355 . S
C415 C417 1.419 . S
C416 C414 1.415 . S
C416 C421 1.425 . S
C416 C423 1.409 . S
C417 H409 0.930 . S
C417 C415 1.419 . S
C417 C418 1.362 . S
C418 H410 0.930 . S
C418 C417 1.362 . S
C418 C421 1.409 . S
C419 H411 0.930 . S
C419 C420 1.355 . S
C419 C421 1.415 . S
C420 C419 1.355 . S
C420 C422 1.419 . S
C421 C416 1.425 . S
C421 C418 1.409 . S
C421 C419 1.415 . S
C422 H412 0.930 . S
C422 C420 1.419 . S
C422 C423 1.362 . S
C423 H413 0.930 . S
C423 C416 1.409 . S
C423 C422 1.362 . S
H424 C430 0.930 . S
H425 C433 0.930 . S
H426 C434 0.930 . S
H427 C435 0.930 . S
H428 C438 0.930 . S
H429 C439 0.930 . S
C430 H424 0.930 . S
C430 C431 1.355 . S
C430 C432 1.415 . S
C431 C430 1.355 . S
C431 C433 1.419 . S
C432 C430 1.415 . S
C432 C437 1.425 . S
C432 C439 1.409 . S
C433 H425 0.930 . S
C433 C431 1.419 . S
C433 C434 1.362 . S
C434 H426 0.930 . S
C434 C433 1.362 . S
C434 C437 1.409 . S
C435 H427 0.930 . S
C435 C436 1.355 . S
C435 C437 1.415 . S
C436 C435 1.355 . S
C436 C438 1.419 . S
C437 C432 1.425 . S
C437 C434 1.409 . S
C437 C435 1.415 . S
C438 H428 0.930 . S
C438 C436 1.419 . S
C438 C439 1.362 . S
C439 H429 0.930 . S
C439 C432 1.409 . S
C439 C438 1.362 . S
H440 C446 0.930 . S
H441 C449 0.930 . S
H442 C450 0.930 . S
H443 C451 0.930 . S
H444 C454 0.930 . S
H445 C455 0.930 . S
C446 H440 0.930 . S
C446 C447 1.355 . S
C446 C448 1.415 . S
C447 C446 1.355 . S
C447 C449 1.419 . S
C448 C446 1.415 . S
C448 C453 1.425 . S
C448 C455 1.409 . S
C449 H441 0.930 . S
C449 C447 1.419 . S
C449 C450 1.362 . S
C450 H442 0.930 . S
C450 C449 1.362 . S
C450 C453 1.409 . S
C451 H443 0.930 . S
C451 C452 1.355 . S
C451 C453 1.415 . S
C452 C451 1.355 . S
C452 C454 1.419 . S
C453 C448 1.425 . S
C453 C450 1.409 . S
C453 C451 1.415 . S
C454 H444 0.930 . S
C454 C452 1.419 . S
C454 C455 1.362 . S
C455 H445 0.930 . S
C455 C448 1.409 . S
C455 C454 1.362 . S
H456 C462 0.930 . S
H457 C465 0.930 . S
H458 C466 0.930 . S
H459 C467 0.930 . S
H460 C470 0.930 . S
H461 C471 0.930 . S
C462 H456 0.930 . S
C462 C463 1.355 . S
C462 C464 1.415 . S
C463 C462 1.355 . S
C463 C465 1.419 . S
C464 C462 1.415 . S
C464 C469 1.425 . S
C464 C471 1.409 . S
C465 H457 0.930 . S
C465 C463 1.419 . S
C465 C466 1.362 . S
C466 H458 0.930 . S
C466 C465 1.362 . S
C466 C469 1.409 . S
C467 H459 0.930 . S
C467 C468 1.355 . S
C467 C469 1.415 . S
C468 C467 1.355 . S
C468 C470 1.419 . S
C469 C464 1.425 . S
C469 C466 1.409 . S
C469 C467 1.415 . S
C470 H460 0.930 . S
C470 C468 1.419 . S
C470 C471 1.362 . S
C471 H461 0.930 . S
C471 C464 1.409 . S
C471 C470 1.362 . S
H472 C478 0.930 . S
H473 C481 0.930 . S
H474 C482 0.930 . S
H475 C483 0.930 . S
H476 C486 0.930 . S
H477 C487 0.930 . S
C478 H472 0.930 . S
C478 C479 1.355 . S
C478 C480 1.415 . S
C479 C478 1.355 . S
C479 C481 1.419 . S
C480 C478 1.415 . S
C480 C485 1.425 . S
C480 C487 1.409 . S
C481 H473 0.930 . S
C481 C479 1.419 . S
C481 C482 1.362 . S
C482 H474 0.930 . S
C482 C481 1.362 . S
C482 C485 1.409 . S
C483 H475 0.930 . S
C483 C484 1.355 . S
C483 C485 1.415 . S
C484 C483 1.355 . S
C484 C486 1.419 . S
C485 C480 1.425 . S
C485 C482 1.409 . S
C485 C483 1.415 . S
C486 H476 0.930 . S
C486 C484 1.419 . S
C486 C487 1.362 . S
C487 H477 0.930 . S
C487 C480 1.409 . S
C487 C486 1.362 . S
H488 C494 0.930 . S
H489 C497 0.930 . S
H490 C498 0.930 . S
H491 C499 0.930 . S
H492 C502 0.930 . S
H493 C503 0.930 . S
C494 H488 0.930 . S
C494 C495 1.355 . S
C494 C496 1.415 . S
C495 C494 1.355 . S
C495 C497 1.419 . S
C496 C494 1.415 . S
C496 C501 1.425 . S
C496 C503 1.409 . S
C497 H489 0.930 . S
C497 C495 1.419 . S
C497 C498 1.362 . S
C498 H490 0.930 . S
C498 C497 1.362 . S
C498 C501 1.409 . S
C499 H491 0.930 . S
C499 C500 1.355 . S
C499 C501 1.415 . S
C500 C499 1.355 . S
C500 C502 1.419 . S
C501 C496 1.425 . S
C501 C498 1.409 . S
C501 C499 1.415 . S
C502 H492 0.930 . S
C502 C500 1.419 . S
C502 C503 1.362 . S
C503 H493 0.930 . S
C503 C496 1.409 . S
C503 C502 1.362 . S
H504 C510 0.930 . S
H505 C513 0.930 . S
H506 C514 0.930 . S
H507 C515 0.930 . S
H508 C518 0.930 . S
H509 C519 0.930 . S
C510 H504 0.930 . S
C510 C511 1.355 . S
C510 C512 1.415 . S
C511 C510 1.355 . S
C511 C513 1.419 . S
C512 C510 1.415 . S
C512 C517 1.425 . S
C512 C519 1.409 . S
C513 H505 0.930 . S
C513 C511 1.419 . S
C513 C514 1.362 . S
C514 H506 0.930 . S
C514 C513 1.362 . S
C514 C517 1.409 . S
C515 H507 0.930 . S
C515 C516 1.355 . S
C515 C517 1.415 . S
C516 C515 1.355 . S
C516 C518 1.419 . S
C517 C512 1.425 . S
C517 C514 1.409 . S
C517 C515 1.415 . S
C518 H508 0.930 . S
C518 C516 1.419 . S
C518 C519 1.362 . S
C519 H509 0.930 . S
C519 C512 1.409 . S
C519 C518 1.362 . S
H520 C526 0.930 1_565 S
H521 C529 0.930 . S
H522 C530 0.930 . S
H523 C531 0.930 1_545 S
H524 C534 0.930 . S
H525 C535 0.930 . S
C526 H520 0.930 1_545 S
C526 C527 1.355 . S
C526 C528 1.415 1_545 S
C527 C526 1.355 . S
C527 C529 1.419 . S
C528 C526 1.415 1_565 S
C528 C533 1.425 1_565 S
C528 C535 1.409 . S
C529 H521 0.930 . S
C529 C527 1.419 . S
C529 C530 1.362 . S
C530 H522 0.930 . S
C530 C529 1.362 . S
C530 C533 1.409 . S
C531 H523 0.930 1_565 S
C531 C532 1.355 . S
C531 C533 1.415 1_565 S
C532 C531 1.355 . S
C532 C534 1.419 . S
C533 C528 1.425 1_545 S
C533 C530 1.409 . S
C533 C531 1.415 1_545 S
C534 H524 0.930 . S
C534 C532 1.419 . S
C534 C535 1.362 . S
C535 H525 0.930 . S
C535 C528 1.409 . S
C535 C534 1.362 . S
H536 C542 0.930 . S
H537 C545 0.930 . S
H538 C546 0.930 . S
H539 C547 0.930 . S
H540 C550 0.930 . S
H541 C551 0.930 . S
C542 H536 0.930 . S
C542 C543 1.355 . S
C542 C544 1.415 1_554 S
C543 C542 1.355 . S
C543 C545 1.419 1_545 S
C544 C542 1.415 1_556 S
C544 C549 1.425 1_546 S
C544 C551 1.409 . S
C545 H537 0.930 . S
C545 C543 1.419 1_565 S
C545 C546 1.362 . S
C546 H538 0.930 . S
C546 C545 1.362 . S
C546 C549 1.409 . S
C547 H539 0.930 . S
C547 C548 1.355 . S
C547 C549 1.415 1_556 S
C548 C547 1.355 . S
C548 C550 1.419 1_565 S
C549 C544 1.425 1_564 S
C549 C546 1.409 . S
C549 C547 1.415 1_554 S
C550 H540 0.930 . S
C550 C548 1.419 1_545 S
C550 C551 1.362 . S
C551 H541 0.930 . S
C551 C544 1.409 . S
C551 C550 1.362 . S
H552 C558 0.930 . S
H553 C561 0.930 . S
H554 C562 0.930 . S
H555 C563 0.930 . S
H556 C566 0.930 . S
H557 C567 0.930 . S
C558 H552 0.930 . S
C558 C559 1.355 . S
C558 C560 1.415 . S
C559 C558 1.355 . S
C559 C561 1.419 . S
C560 C558 1.415 . S
C560 C565 1.425 1_455 S
C560 C567 1.409 . S
C561 H553 0.930 . S
C561 C559 1.419 . S
C561 C562 1.362 1_455 S
C562 H554 0.930 . S
C562 C561 1.362 1_655 S
C562 C565 1.409 . S
C563 H555 0.930 . S
C563 C564 1.355 . S
C563 C565 1.415 . S
C564 C563 1.355 . S
C564 C566 1.419 . S
C565 C560 1.425 1_655 S
C565 C562 1.409 . S
C565 C563 1.415 . S
C566 H556 0.930 . S
C566 C564 1.419 . S
C566 C567 1.362 1_655 S
C567 H557 0.930 . S
C567 C560 1.409 . S
C567 C566 1.362 1_455 S
H568 C574 0.930 1_556 S
H569 C577 0.930 . S
H570 C578 0.930 . S
H571 C579 0.930 1_554 S
H572 C582 0.930 . S
H573 C583 0.930 . S
C574 H568 0.930 1_554 S
C574 C575 1.355 . S
C574 C576 1.415 1_554 S
C575 C574 1.355 . S
C575 C577 1.419 . S
C576 C574 1.415 1_556 S
C576 C581 1.425 1_456 S
C576 C583 1.409 1_455 S
C577 H569 0.930 . S
C577 C575 1.419 . S
C577 C578 1.362 . S
C578 H570 0.930 . S
C578 C577 1.362 . S
C578 C581 1.409 1_455 S
C579 H571 0.930 1_556 S
C579 C580 1.355 . S
C579 C581 1.415 1_556 S
C580 C579 1.355 . S
C580 C582 1.419 . S
C581 C576 1.425 1_654 S
C581 C578 1.409 1_655 S
C581 C579 1.415 1_554 S
C582 H572 0.930 . S
C582 C580 1.419 . S
C582 C583 1.362 . S
C583 H573 0.930 . S
C583 C576 1.409 1_655 S
C583 C582 1.362 . S
C271 N212 1.992 . S
C276 N14 1.992 . S
C287 N47 2.012 . S
C292 N245 2.012 . S
C303 N80 1.990 . S
C308 N146 1.990 . S
C319 N113 2.009 . S
C324 N179 2.009 . S
C335 N38 1.504 . S
C340 N5 1.437 . S
C351 N71 1.465 . S
C356 N104 1.476 . S
C367 N170 1.465 . S
C372 N137 1.479 . S
C383 N203 1.460 . S
C388 N236 1.482 . S
C399 C173 1.125 . S
C404 C17 1.155 . S
C415 C50 1.163 . S
C420 C140 1.124 . S
C431 C83 1.179 . S
C436 C239 1.138 . S
C447 C206 1.133 . S
C452 C116 1.150 . S
C463 C149 1.185 . S
C468 C41 1.181 . S
C479 C182 1.173 . S
C484 C8 1.130 . S
C495 C215 1.187 . S
C500 C107 1.169 . S
C511 C74 1.185 . S
C516 C248 1.182 . S
C527 C28 1.460 . S
C532 C94 1.460 . S
C543 C61 1.413 . S
C548 C127 1.413 . S
C559 C226 1.432 . S
C564 C160 1.432 . S
C575 C193 1.424 . S
C580 C259 1.424 . S
