# Generated by pormake.
# Topology sxe, (6)-cn, num edge types: 1
# Building blocks:
#     Node 0, Type 0, BuildingBlock: OJICUG_clean_sbu_0, # of connection points: 6
#     Node 1, Type 0, BuildingBlock: OJICUG_clean_sbu_0, # of connection points: 6
#     Node 2, Type 0, BuildingBlock: OJICUG_clean_sbu_0, # of connection points: 6
#     Node 3, Type 0, BuildingBlock: OJICUG_clean_sbu_0, # of connection points: 6
#     Node 4, Type 0, BuildingBlock: OJICUG_clean_sbu_0, # of connection points: 6
#     Node 5, Type 0, BuildingBlock: OJICUG_clean_sbu_0, # of connection points: 6
#     Node 6, Type 0, BuildingBlock: OJICUG_clean_sbu_0, # of connection points: 6
#     Node 7, Type 0, BuildingBlock: OJICUG_clean_sbu_0, # of connection points: 6
#     Node 8, Type 0, BuildingBlock: OJICUG_clean_sbu_0, # of connection points: 6
#     Node 9, Type 0, BuildingBlock: OJICUG_clean_sbu_0, # of connection points: 6
#     Node 10, Type 0, BuildingBlock: OJICUG_clean_sbu_0, # of connection points: 6
#     Node 11, Type 0, BuildingBlock: OJICUG_clean_sbu_0, # of connection points: 6
#     Node 12, Type 0, BuildingBlock: OJICUG_clean_sbu_0, # of connection points: 6
#     Node 13, Type 0, BuildingBlock: OJICUG_clean_sbu_0, # of connection points: 6
#     Node 14, Type 0, BuildingBlock: OJICUG_clean_sbu_0, # of connection points: 6
#     Node 15, Type 0, BuildingBlock: OJICUG_clean_sbu_0, # of connection points: 6
#     Node 16, Type 0, BuildingBlock: OJICUG_clean_sbu_0, # of connection points: 6
#     Node 17, Type 0, BuildingBlock: OJICUG_clean_sbu_0, # of connection points: 6
#     Node 18, Type 0, BuildingBlock: OJICUG_clean_sbu_0, # of connection points: 6
#     Node 19, Type 0, BuildingBlock: OJICUG_clean_sbu_0, # of connection points: 6
#     Node 20, Type 0, BuildingBlock: OJICUG_clean_sbu_0, # of connection points: 6
#     Node 21, Type 0, BuildingBlock: OJICUG_clean_sbu_0, # of connection points: 6
#     Node 22, Type 0, BuildingBlock: OJICUG_clean_sbu_0, # of connection points: 6
#     Node 23, Type 0, BuildingBlock: OJICUG_clean_sbu_0, # of connection points: 6
#     Edge 24, Type (0, 0), BuildingBlock: EZIPEK_clean_linker_0, # of connection points: 2
#     Edge 25, Type (0, 0), BuildingBlock: EZIPEK_clean_linker_0, # of connection points: 2
#     Edge 26, Type (0, 0), BuildingBlock: EZIPEK_clean_linker_0, # of connection points: 2
#     Edge 27, Type (0, 0), BuildingBlock: EZIPEK_clean_linker_0, # of connection points: 2
#     Edge 28, Type (0, 0), BuildingBlock: EZIPEK_clean_linker_0, # of connection points: 2
#     Edge 29, Type (0, 0), BuildingBlock: EZIPEK_clean_linker_0, # of connection points: 2
#     Edge 30, Type (0, 0), BuildingBlock: EZIPEK_clean_linker_0, # of connection points: 2
#     Edge 31, Type (0, 0), BuildingBlock: EZIPEK_clean_linker_0, # of connection points: 2
#     Edge 32, Type (0, 0), BuildingBlock: EZIPEK_clean_linker_0, # of connection points: 2
#     Edge 33, Type (0, 0), BuildingBlock: EZIPEK_clean_linker_0, # of connection points: 2
#     Edge 34, Type (0, 0), BuildingBlock: EZIPEK_clean_linker_0, # of connection points: 2
#     Edge 35, Type (0, 0), BuildingBlock: EZIPEK_clean_linker_0, # of connection points: 2
#     Edge 36, Type (0, 0), BuildingBlock: EZIPEK_clean_linker_0, # of connection points: 2
#     Edge 37, Type (0, 0), BuildingBlock: EZIPEK_clean_linker_0, # of connection points: 2
#     Edge 38, Type (0, 0), BuildingBlock: EZIPEK_clean_linker_0, # of connection points: 2
#     Edge 39, Type (0, 0), BuildingBlock: EZIPEK_clean_linker_0, # of connection points: 2
#     Edge 40, Type (0, 0), BuildingBlock: EZIPEK_clean_linker_0, # of connection points: 2
#     Edge 41, Type (0, 0), BuildingBlock: EZIPEK_clean_linker_0, # of connection points: 2
#     Edge 42, Type (0, 0), BuildingBlock: EZIPEK_clean_linker_0, # of connection points: 2
#     Edge 43, Type (0, 0), BuildingBlock: EZIPEK_clean_linker_0, # of connection points: 2
#     Edge 44, Type (0, 0), BuildingBlock: EZIPEK_clean_linker_0, # of connection points: 2
#     Edge 45, Type (0, 0), BuildingBlock: EZIPEK_clean_linker_0, # of connection points: 2
#     Edge 46, Type (0, 0), BuildingBlock: EZIPEK_clean_linker_0, # of connection points: 2
#     Edge 47, Type (0, 0), BuildingBlock: EZIPEK_clean_linker_0, # of connection points: 2
#     Edge 48, Type (0, 0), BuildingBlock: EZIPEK_clean_linker_0, # of connection points: 2
#     Edge 49, Type (0, 0), BuildingBlock: EZIPEK_clean_linker_0, # of connection points: 2
#     Edge 50, Type (0, 0), BuildingBlock: EZIPEK_clean_linker_0, # of connection points: 2
#     Edge 51, Type (0, 0), BuildingBlock: EZIPEK_clean_linker_0, # of connection points: 2
#     Edge 52, Type (0, 0), BuildingBlock: EZIPEK_clean_linker_0, # of connection points: 2
#     Edge 53, Type (0, 0), BuildingBlock: EZIPEK_clean_linker_0, # of connection points: 2
#     Edge 54, Type (0, 0), BuildingBlock: EZIPEK_clean_linker_0, # of connection points: 2
#     Edge 55, Type (0, 0), BuildingBlock: EZIPEK_clean_linker_0, # of connection points: 2
#     Edge 56, Type (0, 0), BuildingBlock: EZIPEK_clean_linker_0, # of connection points: 2
#     Edge 57, Type (0, 0), BuildingBlock: EZIPEK_clean_linker_0, # of connection points: 2
#     Edge 58, Type (0, 0), BuildingBlock: EZIPEK_clean_linker_0, # of connection points: 2
#     Edge 59, Type (0, 0), BuildingBlock: EZIPEK_clean_linker_0, # of connection points: 2
#     Edge 60, Type (0, 0), BuildingBlock: EZIPEK_clean_linker_0, # of connection points: 2
#     Edge 61, Type (0, 0), BuildingBlock: EZIPEK_clean_linker_0, # of connection points: 2
#     Edge 62, Type (0, 0), BuildingBlock: EZIPEK_clean_linker_0, # of connection points: 2
#     Edge 63, Type (0, 0), BuildingBlock: EZIPEK_clean_linker_0, # of connection points: 2
#     Edge 64, Type (0, 0), BuildingBlock: EZIPEK_clean_linker_0, # of connection points: 2
#     Edge 65, Type (0, 0), BuildingBlock: EZIPEK_clean_linker_0, # of connection points: 2
#     Edge 66, Type (0, 0), BuildingBlock: EZIPEK_clean_linker_0, # of connection points: 2
#     Edge 67, Type (0, 0), BuildingBlock: EZIPEK_clean_linker_0, # of connection points: 2
#     Edge 68, Type (0, 0), BuildingBlock: EZIPEK_clean_linker_0, # of connection points: 2
#     Edge 69, Type (0, 0), BuildingBlock: EZIPEK_clean_linker_0, # of connection points: 2
#     Edge 70, Type (0, 0), BuildingBlock: EZIPEK_clean_linker_0, # of connection points: 2
#     Edge 71, Type (0, 0), BuildingBlock: EZIPEK_clean_linker_0, # of connection points: 2
#     Edge 72, Type (0, 0), BuildingBlock: EZIPEK_clean_linker_0, # of connection points: 2
#     Edge 73, Type (0, 0), BuildingBlock: EZIPEK_clean_linker_0, # of connection points: 2
#     Edge 74, Type (0, 0), BuildingBlock: EZIPEK_clean_linker_0, # of connection points: 2
#     Edge 75, Type (0, 0), BuildingBlock: EZIPEK_clean_linker_0, # of connection points: 2
#     Edge 76, Type (0, 0), BuildingBlock: EZIPEK_clean_linker_0, # of connection points: 2
#     Edge 77, Type (0, 0), BuildingBlock: EZIPEK_clean_linker_0, # of connection points: 2
#     Edge 78, Type (0, 0), BuildingBlock: EZIPEK_clean_linker_0, # of connection points: 2
#     Edge 79, Type (0, 0), BuildingBlock: EZIPEK_clean_linker_0, # of connection points: 2
#     Edge 80, Type (0, 0), BuildingBlock: EZIPEK_clean_linker_0, # of connection points: 2
#     Edge 81, Type (0, 0), BuildingBlock: EZIPEK_clean_linker_0, # of connection points: 2
#     Edge 82, Type (0, 0), BuildingBlock: EZIPEK_clean_linker_0, # of connection points: 2
#     Edge 83, Type (0, 0), BuildingBlock: EZIPEK_clean_linker_0, # of connection points: 2
#     Edge 84, Type (0, 0), BuildingBlock: EZIPEK_clean_linker_0, # of connection points: 2
#     Edge 85, Type (0, 0), BuildingBlock: EZIPEK_clean_linker_0, # of connection points: 2
#     Edge 86, Type (0, 0), BuildingBlock: EZIPEK_clean_linker_0, # of connection points: 2
#     Edge 87, Type (0, 0), BuildingBlock: EZIPEK_clean_linker_0, # of connection points: 2
#     Edge 88, Type (0, 0), BuildingBlock: EZIPEK_clean_linker_0, # of connection points: 2
#     Edge 89, Type (0, 0), BuildingBlock: EZIPEK_clean_linker_0, # of connection points: 2
#     Edge 90, Type (0, 0), BuildingBlock: EZIPEK_clean_linker_0, # of connection points: 2
#     Edge 91, Type (0, 0), BuildingBlock: EZIPEK_clean_linker_0, # of connection points: 2
#     Edge 92, Type (0, 0), BuildingBlock: EZIPEK_clean_linker_0, # of connection points: 2
#     Edge 93, Type (0, 0), BuildingBlock: EZIPEK_clean_linker_0, # of connection points: 2
#     Edge 94, Type (0, 0), BuildingBlock: EZIPEK_clean_linker_0, # of connection points: 2
#     Edge 95, Type (0, 0), BuildingBlock: EZIPEK_clean_linker_0, # of connection points: 2
# Relax obj value: 0.419
# Max RMSD: 0.272
# Mean RMSD: 0.272
data_MOF--net-sxe--node1-OJICUG_clean_sbu_0--edge1-EZIPEK_clean_linker_0
_symmetry_space_group_name_H-M    P1
_symmetry_Int_Tables_number       1
_symmetry_cell_setting            triclinic
loop_
_symmetry_equiv_pos_as_xyz
'x, y, z'
_cell_length_a     36.591262
_cell_length_b     36.426609
_cell_length_c     36.41275
_cell_angle_alpha  90.243431
_cell_angle_beta   90.07093
_cell_angle_gamma 89.983978
loop_
_atom_site_label
_atom_site_type_symbol
_atom_site_fract_x
_atom_site_fract_y
_atom_site_fract_z
_atom_type_partial_charge
Sc0 Sc 0.19396 0.37054 0.2513 0.0
Sc1 Sc 0.21867 0.45231 0.21018 0.0
Sc2 Sc 0.16486 0.45331 0.289 0.0
O3 O 0.19273 0.42537 0.25047 0.0
C4 C 0.11245 0.38755 0.27622 0.0
C5 C 0.18755 0.3828 0.16798 0.0
C6 C 0.14554 0.49521 0.21463 0.0
C7 C 0.27432 0.39164 0.22305 0.0
C8 C 0.20295 0.38895 0.33513 0.0
C9 C 0.2316 0.50435 0.27893 0.0
O10 O 0.13875 0.36565 0.27026 0.0
O11 O 0.20746 0.41112 0.17006 0.0
O12 O 0.1445 0.49268 0.24953 0.0
O13 O 0.24909 0.36901 0.23092 0.0
O14 O 0.18223 0.41691 0.33268 0.0
O15 O 0.23409 0.49753 0.24485 0.0
O16 O 0.21367 0.37101 0.307 0.0
O17 O 0.26963 0.42616 0.22225 0.0
O18 O 0.21111 0.48671 0.30061 0.0
O19 O 0.17402 0.3669 0.1958 0.0
O20 O 0.11625 0.42191 0.28011 0.0
O21 O 0.16837 0.47782 0.19503 0.0
Sc22 Sc 0.28528 0.60735 0.70248 0.0
Sc23 Sc 0.27493 0.51142 0.70787 0.0
Sc24 Sc 0.34718 0.55559 0.75419 0.0
O25 O 0.30239 0.55814 0.72154 0.0
C26 C 0.37148 0.61819 0.69818 0.0
C27 C 0.28175 0.55469 0.63258 0.0
C28 C 0.35764 0.48348 0.70714 0.0
C29 C 0.20895 0.56769 0.71388 0.0
C30 C 0.30413 0.62502 0.78543 0.0
C31 C 0.29118 0.50017 0.79255 0.0
O32 O 0.33904 0.6265 0.68949 0.0
O33 O 0.27955 0.52433 0.64982 0.0
O34 O 0.37126 0.51187 0.7222 0.0
O35 O 0.22899 0.59592 0.7125 0.0
O36 O 0.32689 0.59889 0.78911 0.0
O37 O 0.26981 0.49668 0.76506 0.0
O38 O 0.28729 0.6319 0.75575 0.0
O39 O 0.22114 0.53528 0.71107 0.0
O40 O 0.32088 0.51827 0.79152 0.0
O41 O 0.2823 0.58597 0.6481 0.0
O42 O 0.37847 0.59332 0.72152 0.0
O43 O 0.32355 0.47907 0.7028 0.0
Sc44 Sc 0.69926 0.10287 0.77267 0.0
Sc45 Sc 0.71416 0.01058 0.78972 0.0
Sc46 Sc 0.64463 0.03757 0.73078 0.0
O47 O 0.6858 0.05058 0.76451 0.0
C48 C 0.61496 0.11198 0.76708 0.0
C49 C 0.70045 0.06615 0.8523 0.0
C50 C 0.63304 0.97967 0.79171 0.0
C51 C 0.77657 0.07069 0.77763 0.0
C52 C 0.68471 0.09848 0.68658 0.0
C53 C 0.70808 0.98186 0.71014 0.0
O54 O 0.64433 0.11914 0.78408 0.0
O55 O 0.6983 0.03285 0.84185 0.0
O56 O 0.61916 0.00559 0.77309 0.0
O57 O 0.75516 0.09229 0.76127 0.0
O58 O 0.6685 0.06776 0.68704 0.0
O59 O 0.72926 0.98861 0.73714 0.0
O60 O 0.69413 0.11604 0.71534 0.0
O61 O 0.7654 0.0414 0.79287 0.0
O62 O 0.67461 -0.00848 0.70965 0.0
O63 O 0.70589 0.09299 0.83056 0.0
O64 O 0.61133 0.08442 0.7458 0.0
O65 O 0.6674 0.97415 0.79189 0.0
Sc66 Sc 0.84707 0.93341 0.19972 0.0
Sc67 Sc 0.78289 0.96722 0.26136 0.0
Sc68 Sc 0.79776 0.87349 0.25442 0.0
O69 O 0.80957 0.92454 0.23873 0.0
C70 C 0.80387 0.86611 0.16686 0.0
C71 C 0.78051 0.98583 0.17881 0.0
C72 C 0.72077 0.90569 0.26262 0.0
C73 C 0.86274 0.00083 0.24821 0.0
C74 C 0.88278 0.86752 0.24545 0.0
C75 C 0.8021 0.92085 0.32931 0.0
O76 O 0.81999 0.89661 0.1625 0.0
O77 O 0.76265 0.98186 0.20842 0.0
O78 O 0.74089 0.88165 0.24799 0.0
O79 O 0.87601 0.97208 0.23362 0.0
O80 O 0.85355 0.86002 0.26222 0.0
O81 O 0.80309 0.95225 0.31423 0.0
O82 O 0.88363 0.89081 0.21941 0.0
O83 O 0.82885 0.00437 0.25526 0.0
O84 O 0.79662 0.8909 0.31165 0.0
O85 O 0.81398 0.97629 0.17612 0.0
O86 O 0.79726 0.85254 0.19842 0.0
O87 O 0.73262 0.93712 0.27217 0.0
Sc88 Sc 0.25136 0.13785 0.43456 0.0
Sc89 Sc 0.19558 0.20316 0.47755 0.0
Sc90 Sc 0.19745 0.19574 0.38178 0.0
O91 O 0.21494 0.17913 0.43142 0.0
C92 C 0.28212 0.17849 0.36709 0.0
C93 C 0.27824 0.19251 0.49833 0.0
C94 C 0.20694 0.27093 0.42231 0.0
C95 C 0.19936 0.11729 0.49895 0.0
C96 C 0.19883 0.11199 0.36859 0.0
C97 C 0.12451 0.19946 0.42935 0.0
O98 O 0.28837 0.16386 0.39792 0.0
O99 O 0.24985 0.21259 0.49832 0.0
O100 O 0.21182 0.25094 0.39413 0.0
O101 O 0.21728 0.10799 0.47082 0.0
O102 O 0.18124 0.14174 0.36631 0.0
O103 O 0.13956 0.19529 0.46052 0.0
O104 O 0.22631 0.10796 0.38971 0.0
O105 O 0.19218 0.15083 0.50657 0.0
O106 O 0.14228 0.20416 0.39985 0.0
O107 O 0.281 0.16301 0.47965 0.0
O108 O 0.25047 0.18825 0.35644 0.0
O109 O 0.19784 0.25816 0.45362 0.0
Sc110 Sc 0.24963 0.81852 0.87634 0.0
Sc111 Sc 0.27902 0.78046 0.95789 0.0
Sc112 Sc 0.20983 0.8453 0.95627 0.0
O113 O 0.24668 0.81507 0.93036 0.0
C114 C 0.2336 0.90124 0.89936 0.0
C115 C 0.32965 0.81396 0.89401 0.0
C116 C 0.27822 0.845 0.01151 0.0
C117 C 0.26604 0.73329 0.89028 0.0
C118 C 0.1665 0.81618 0.88749 0.0
C119 C 0.20177 0.77165 -0.0034 0.0
O120 O 0.23427 0.87569 0.87545 0.0
O121 O 0.32372 0.79087 0.91967 0.0
O122 O 0.24492 0.85223 0.00408 0.0
O123 O 0.2659 0.76175 0.87023 0.0
O124 O 0.16917 0.83992 0.91312 0.0
O125 O 0.23628 0.76642 -0.00204 0.0
O126 O 0.19418 0.80163 0.87232 0.0
O127 O 0.26277 0.73451 0.92492 0.0
O128 O 0.18772 0.79601 0.97642 0.0
O129 O 0.30512 0.83497 0.88139 0.0
O130 O 0.23128 0.89508 0.93358 0.0
O131 O 0.29791 0.82417 -0.00815 0.0
Sc132 Sc 0.77618 0.31172 0.52203 0.0
Sc133 Sc 0.70302 0.25078 0.51523 0.0
Sc134 Sc 0.73622 0.27565 0.6005 0.0
O135 O 0.73876 0.27939 0.54587 0.0
C136 C 0.82241 0.28046 0.58607 0.0
C137 C 0.77435 0.23826 0.47259 0.0
C138 C 0.72235 0.19442 0.5785 0.0
C139 C 0.71005 0.32504 0.4709 0.0
C140 C 0.74553 0.36083 0.5882 0.0
C141 C 0.65204 0.27661 0.57624 0.0
O142 O 0.82025 0.28855 0.55242 0.0
O143 O 0.74605 0.22458 0.48691 0.0
O144 O 0.74093 0.21705 0.59756 0.0
O145 O 0.736 0.33849 0.48945 0.0
O146 O 0.73125 0.33407 0.60525 0.0
O147 O 0.658 0.27588 0.54207 0.0
O148 O 0.76793 0.35562 0.56184 0.0
O149 O 0.699 0.29225 0.47414 0.0
O150 O 0.67694 0.27189 0.60027 0.0
O151 O 0.7866 0.27032 0.48003 0.0
O152 O 0.79483 0.27819 0.60717 0.0
O153 O 0.70264 0.20467 0.55181 0.0
Sc154 Sc 0.69949 0.63417 0.03426 0.0
Sc155 Sc 0.76341 0.69923 0.00622 0.0
Sc156 Sc 0.75052 0.67943 0.09906 0.0
O157 O 0.73782 0.67137 0.04611 0.0
C158 C 0.66678 0.67658 0.10386 0.0
C159 C 0.67935 0.69696 0.98031 0.0
C160 C 0.75979 0.76002 0.06699 0.0
C161 C 0.75616 0.62082 0.96877 0.0
C162 C 0.7333 0.59395 0.09782 0.0
C163 C 0.82738 0.67725 0.06364 0.0
O164 O 0.66629 0.6495 0.08155 0.0
O165 O 0.71246 0.70727 0.97574 0.0
O166 O 0.76317 0.73616 0.09199 0.0
O167 O 0.72646 0.61475 0.9856 0.0
O168 O 0.73789 0.6239 0.11511 0.0
O169 O 0.81601 0.69286 0.03425 0.0
O170 O 0.72889 0.59293 0.06348 0.0
O171 O 0.77476 0.64976 0.97492 0.0
O172 O 0.80618 0.66496 0.0884 0.0
O173 O 0.66957 0.67325 0.00371 0.0
O174 O 0.69539 0.69512 0.11057 0.0
O175 O 0.75457 0.75172 0.03342 0.0
Sc176 Sc 0.3689 0.19861 0.16354 0.0
Sc177 Sc 0.45492 0.18792 0.20341 0.0
Sc178 Sc 0.44012 0.25282 0.13366 0.0
O179 O 0.42176 0.21274 0.16678 0.0
C180 C 0.38554 0.21707 0.07979 0.0
C181 C 0.40903 0.12255 0.16523 0.0
C182 C 0.50948 0.20027 0.1371 0.0
C183 C 0.38255 0.18719 0.24877 0.0
C184 C 0.36471 0.28351 0.16374 0.0
C185 C 0.47241 0.27359 0.212 0.0
O186 O 0.36407 0.20993 0.10605 0.0
O187 O 0.43439 0.13413 0.18663 0.0
O188 O 0.49144 0.22642 0.12307 0.0
O189 O 0.36286 0.18581 0.22028 0.0
O190 O 0.3917 0.28599 0.14186 0.0
O191 O 0.47479 0.24049 0.22305 0.0
O192 O 0.3535 0.25337 0.17693 0.0
O193 O 0.41685 0.19061 0.24781 0.0
O194 O 0.46235 0.28152 0.17962 0.0
O195 O 0.38488 0.14381 0.15164 0.0
O196 O 0.41836 0.22675 0.08529 0.0
O197 O 0.49913 0.18258 0.16513 0.0
Sc198 Sc 0.94792 0.22559 0.82673 0.0
Sc199 Sc 0.97103 0.28806 0.76054 0.0
Sc200 Sc 0.88 0.26475 0.77606 0.0
O201 O 0.93283 0.25975 0.78725 0.0
C202 C 0.88069 0.18236 0.79217 0.0
C203 C 0.0006 0.20611 0.76424 0.0
C204 C 0.91782 0.26877 0.6969 0.0
C205 C 0.00631 0.28875 0.83679 0.0
C206 C 0.88324 0.26085 0.86371 0.0
C207 C 0.90622 0.34593 0.77144 0.0
O208 O 0.90201 0.18842 0.81912 0.0
O209 O 0.00756 0.24016 0.75908 0.0
O210 O 0.89015 0.26953 0.71806 0.0
O211 O -0.00258 0.25535 0.84111 0.0
O212 O 0.86555 0.25952 0.83351 0.0
O213 O 0.93763 0.33714 0.75903 0.0
O214 O 0.91778 0.25791 0.86534 0.0
O215 O -0.00751 0.30802 0.81152 0.0
O216 O 0.88298 0.32287 0.78301 0.0
O217 O 0.97559 0.19538 0.78575 0.0
O218 O 0.87401 0.20656 0.76814 0.0
O219 O 0.95056 0.27122 0.70806 0.0
Sc220 Sc 0.5462 0.77249 0.34328 0.0
Sc221 Sc 0.50987 0.71064 0.28051 0.0
Sc222 Sc 0.60493 0.71746 0.29287 0.0
O223 O 0.55378 0.7336 0.30524 0.0
C224 C 0.61194 0.80491 0.30003 0.0
C225 C 0.48509 0.79178 0.28354 0.0
C226 C 0.56881 0.7125 0.21559 0.0
C227 C 0.48142 0.72273 0.36294 0.0
C228 C 0.61365 0.72865 0.37747 0.0
C229 C 0.55939 0.64211 0.29587 0.0
O230 O 0.58121 0.80973 0.31528 0.0
O231 O 0.48849 0.76317 0.26358 0.0
O232 O 0.5947 0.72381 0.23576 0.0
O233 O 0.51053 0.7378 0.37424 0.0
O234 O 0.62094 0.70964 0.34921 0.0
O235 O 0.528 0.65708 0.2975 0.0
O236 O 0.58981 0.7539 0.3768 0.0
O237 O 0.47633 0.71428 0.32936 0.0
O238 O 0.58886 0.66018 0.29092 0.0
O239 O 0.50208 0.79615 0.31364 0.0
O240 O 0.62552 0.77338 0.2932 0.0
O241 O 0.5375 0.70379 0.22804 0.0
Sc242 Sc 0.10295 0.74365 0.71701 0.0
Sc243 Sc 0.01465 0.77624 0.7246 0.0
Sc244 Sc 0.03258 0.69934 0.67068 0.0
O245 O 0.05012 0.73973 0.70385 0.0
C246 C 0.10784 0.72363 0.63406 0.0
C247 C 0.07879 0.82736 0.70669 0.0
C248 C 0.98403 0.76275 0.6435 0.0
C249 C 0.06799 0.76317 0.79232 0.0
C250 C 0.09063 0.65648 0.71378 0.0
C251 C 0.97124 0.70445 0.73276 0.0
O252 O 0.11837 0.74433 0.6602 0.0
O253 O 0.04502 0.82093 0.70214 0.0
O254 O 0.00588 0.73722 0.63488 0.0
O255 O 0.09009 0.74278 0.77455 0.0
O256 O 0.05772 0.65786 0.70327 0.0
O257 O 0.98298 0.73336 0.74822 0.0
O258 O 0.11057 0.68484 0.71778 0.0
O259 O 0.04296 0.78119 0.77633 0.0
O260 O 0.98397 0.69163 0.70285 0.0
O261 O 0.10164 0.80309 0.71694 0.0
O262 O 0.07988 0.70298 0.63572 0.0
O263 O 0.98136 0.77568 0.67586 0.0
Sc264 Sc 0.81919 0.54589 0.69869 0.0
Sc265 Sc 0.75134 0.51323 0.75654 0.0
Sc266 Sc 0.76353 0.60683 0.74604 0.0
O267 O 0.77821 0.55545 0.73377 0.0
C268 C 0.8474 0.61551 0.74438 0.0
C269 C 0.83309 0.48282 0.75196 0.0
C270 C 0.76103 0.56555 0.82343 0.0
C271 C 0.75763 0.48823 0.67465 0.0
C272 C 0.78277 0.61236 0.6602 0.0
C273 C 0.68738 0.57103 0.74375 0.0
O274 O 0.85127 0.59109 0.7196 0.0
O275 O 0.79905 0.47801 0.75701 0.0
O276 O 0.75462 0.59347 0.80339 0.0
O277 O 0.79045 0.5 0.67359 0.0
O278 O 0.7722 0.6262 0.69055 0.0
O279 O 0.69932 0.54198 0.75883 0.0
O280 O 0.79616 0.58038 0.6573 0.0
O281 O 0.73758 0.49299 0.70284 0.0
O282 O 0.70862 0.59538 0.73125 0.0
O283 O 0.84607 0.51148 0.73751 0.0
O284 O 0.81762 0.62174 0.7609 0.0
O285 O 0.76502 0.5332 0.81059 0.0
Sc286 Sc 0.65634 0.36813 0.26324 0.0
Sc287 Sc 0.68395 0.45663 0.28328 0.0
Sc288 Sc 0.61673 0.43889 0.21724 0.0
O289 O 0.65282 0.42161 0.25414 0.0
C290 C 0.65573 0.371 0.1789 0.0
C291 C 0.73938 0.39405 0.27442 0.0
C292 C 0.68297 0.49031 0.20295 0.0
C293 C 0.66 0.39523 0.34085 0.0
C294 C 0.57178 0.37584 0.25133 0.0
C295 C 0.60807 0.49739 0.28281 0.0
O296 O 0.67189 0.35981 0.20765 0.0
O297 O 0.73372 0.42804 0.26908 0.0
O298 O 0.65863 0.46865 0.19092 0.0
O299 O 0.63967 0.3786 0.31819 0.0
O300 O 0.57289 0.40939 0.24255 0.0
O301 O 0.63654 0.48734 0.30015 0.0
O302 O 0.60028 0.35609 0.25059 0.0
O303 O 0.67995 0.42245 0.33186 0.0
O304 O 0.6009 0.48547 0.25062 0.0
O305 O 0.71365 0.37092 0.27759 0.0
O306 O 0.63002 0.39467 0.1793 0.0
O307 O 0.69198 0.49272 0.2367 0.0
Sc308 Sc 0.289 0.87227 0.23892 0.0
Sc309 Sc 0.25779 0.95515 0.20341 0.0
Sc310 Sc 0.31463 0.95506 0.28127 0.0
O311 O 0.28666 0.92749 0.24166 0.0
C312 C 0.28219 0.88549 0.32453 0.0
C313 C 0.20643 0.88815 0.21423 0.0
C314 C 0.24178 0.00072 0.27668 0.0
C315 C 0.29746 0.89378 0.15556 0.0
C316 C 0.37056 0.8928 0.26107 0.0
C317 C 0.32944 0.00318 0.21014 0.0
O318 O 0.27361 0.86719 0.29588 0.0
O319 O 0.20967 0.9226 0.21074 0.0
O320 O 0.26795 0.9873 0.29516 0.0
O321 O 0.30589 0.87352 0.18252 0.0
O322 O 0.3644 0.9258 0.27031 0.0
O323 O 0.30421 0.98837 0.19144 0.0
O324 O 0.34561 0.87014 0.25279 0.0
O325 O 0.27618 0.9211 0.15902 0.0
O326 O 0.33415 -0.00327 0.2441 0.0
O327 O 0.23272 0.86708 0.22283 0.0
O328 O 0.29841 0.91643 0.32345 0.0
O329 O 0.23583 -0.00698 0.24316 0.0
Sc330 Sc 0.18267 0.10906 0.70859 0.0
Sc331 Sc 0.21369 0.0177 0.71278 0.0
Sc332 Sc 0.13752 0.04646 0.76358 0.0
O333 O 0.17813 0.0575 0.72813 0.0
C334 C 0.16497 0.125 0.79028 0.0
C335 C 0.26606 0.08617 0.71448 0.0
C336 C 0.20723 0.00955 0.80021 0.0
C337 C 0.19243 0.05947 0.63806 0.0
C338 C 0.09598 0.09914 0.71214 0.0
C339 C 0.14151 0.97096 0.71956 0.0
O340 O 0.18478 0.13128 0.76253 0.0
O341 O 0.2606 0.05214 0.71782 0.0
O342 O 0.17566 0.024 0.80173 0.0
O343 O 0.18191 0.0888 0.65388 0.0
O344 O 0.09741 0.06794 0.72717 0.0
O345 O 0.17311 0.97593 0.70649 0.0
O346 O 0.12454 0.11813 0.70664 0.0
O347 O 0.20531 0.03166 0.65516 0.0
O348 O 0.12576 -0.00608 0.74037 0.0
O349 O 0.24085 0.10926 0.70924 0.0
O350 O 0.14322 0.09796 0.79264 0.0
O351 O 0.22324 0.00281 0.76972 0.0
Sc352 Sc 0.72947 0.84961 0.52713 0.0
Sc353 Sc 0.79838 0.78928 0.50399 0.0
Sc354 Sc 0.78365 0.81363 0.59383 0.0
O355 O 0.77039 0.81782 0.54173 0.0
C356 C 0.7589 0.8977 0.58897 0.0
C357 C 0.79303 0.86602 0.46935 0.0
C358 C 0.85875 0.81028 0.56354 0.0
C359 C 0.71826 0.78435 0.47468 0.0
C360 C 0.69987 0.81189 0.60021 0.0
C361 C 0.78805 0.73184 0.56346 0.0
O362 O 0.75077 0.89686 0.55511 0.0
O363 O 0.81385 0.83981 0.47905 0.0
O364 O 0.83713 0.83198 0.57966 0.0
O365 O 0.70628 0.80272 0.50156 0.0
O366 O 0.72988 0.79641 0.60835 0.0
O367 O 0.78225 0.73897 0.52981 0.0
O368 O 0.69665 0.8353 0.57454 0.0
O369 O 0.75204 0.78433 0.46647 0.0
O370 O 0.79727 0.75611 0.58694 0.0
O371 O 0.75928 0.86712 0.47856 0.0
O372 O 0.76899 0.86939 0.6065 0.0
O373 O 0.84791 0.78944 0.53752 0.0
Sc374 Sc 0.78378 0.16255 0.03382 0.0
Sc375 Sc 0.70914 0.21814 0.02149 0.0
Sc376 Sc 0.73988 0.19729 0.10946 0.0
O377 O 0.74421 0.19292 0.05525 0.0
C378 C 0.75996 0.11298 0.09711 0.0
C379 C 0.71567 0.14444 0.98243 0.0
C380 C 0.65833 0.19375 0.08817 0.0
C381 C 0.7857 0.22596 0.9806 0.0
C382 C 0.82429 0.1994 0.10171 0.0
C383 C 0.71904 0.27787 0.07931 0.0
O384 O 0.76525 0.11604 0.06292 0.0
O385 O 0.6941 0.16636 -0.00156 0.0
O386 O 0.68388 0.18029 0.10751 0.0
O387 O 0.80268 0.20922 0.00566 0.0
O388 O 0.79575 0.21458 0.11463 0.0
O389 O 0.72138 0.27045 0.04527 0.0
O390 O 0.82329 0.17631 0.07552 0.0
O391 O 0.75084 0.22703 0.97909 0.0
O392 O 0.72275 0.25396 0.10456 0.0
O393 O 0.74989 0.14459 0.98848 0.0
O394 O 0.75534 0.14041 0.11853 0.0
O395 O 0.66384 0.21198 0.05899 0.0
Sc396 Sc 0.26353 0.70555 0.38407 0.0
Sc397 Sc 0.27625 0.70993 0.4779 0.0
Sc398 Sc 0.21735 0.64557 0.4401 0.0
O399 O 0.25226 0.68706 0.43413 0.0
C400 C 0.1781 0.68587 0.37833 0.0
C401 C 0.25932 0.7787 0.42556 0.0
C402 C 0.19884 0.69841 0.50818 0.0
C403 C 0.34086 0.70804 0.42431 0.0
C404 C 0.26212 0.62386 0.36778 0.0
C405 C 0.27251 0.62395 0.49863 0.0
O406 O 0.20853 0.69473 0.36385 0.0
O407 O 0.2758 0.76499 0.4533 0.0
O408 O 0.19567 0.66794 0.49109 0.0
O409 O 0.32006 0.71736 0.39786 0.0
O410 O 0.23561 0.61939 0.38993 0.0
O411 O 0.2787 0.65752 0.50698 0.0
O412 O 0.28108 0.65283 0.36643 0.0
O413 O 0.3291 0.69885 0.45568 0.0
O414 O 0.25739 0.61443 0.46883 0.0
O415 O 0.24636 0.75884 0.40002 0.0
O416 O 0.17539 0.67392 0.41086 0.0
O417 O 0.22435 0.72121 0.50219 0.0
Sc418 Sc 0.26442 0.34888 0.95058 0.0
Sc419 Sc 0.19548 0.28415 0.96074 0.0
Sc420 Sc 0.20814 0.32883 0.87856 0.0
O421 O 0.22233 0.32092 0.93043 0.0
C422 C 0.2369 0.40877 0.90194 0.0
C423 C 0.20854 0.34424 0.01864 0.0
C424 C 0.13306 0.32702 0.91507 0.0
C425 C 0.27929 0.2728 0.98379 0.0
C426 C 0.29121 0.32444 0.87159 0.0
C427 C 0.19256 0.24368 0.8876 0.0
O428 O 0.24157 0.40076 0.93545 0.0
O429 O 0.18583 0.32333 0.00273 0.0
O430 O 0.15582 0.34617 0.89702 0.0
O431 O 0.28997 0.29876 0.96364 0.0
O432 O 0.26091 0.31083 0.86124 0.0
O433 O 0.20311 0.24209 0.92069 0.0
O434 O 0.29454 0.34542 0.89945 0.0
O435 O 0.24543 0.26572 0.989 0.0
O436 O 0.18762 0.27379 0.87082 0.0
O437 O 0.23924 0.35338 0.00473 0.0
O438 O 0.22776 0.38479 0.87819 0.0
O439 O 0.14349 0.30012 0.93515 0.0
Sc440 Sc 0.59804 0.76056 0.79163 0.0
Sc441 Sc 0.51617 0.79017 0.75105 0.0
Sc442 Sc 0.51652 0.71444 0.81037 0.0
O443 O 0.54371 0.75504 0.78425 0.0
C444 C 0.58642 0.67395 0.78035 0.0
C445 C 0.59106 0.78272 0.70802 0.0
C446 C 0.47722 0.7163 0.73169 0.0
C447 C 0.56798 0.84336 0.79753 0.0
C448 C 0.57646 0.73395 0.87104 0.0
C449 C 0.46239 0.77947 0.81919 0.0
O450 O 0.60656 0.70254 0.7814 0.0
O451 O 0.558 0.79294 0.70963 0.0
O452 O 0.48152 0.7041 0.76404 0.0
O453 O 0.59267 0.81899 0.80208 0.0
O454 O 0.54749 0.71815 0.86045 0.0
O455 O 0.47042 0.79294 0.78808 0.0
O456 O 0.59643 0.7523 0.84955 0.0
O457 O 0.53907 0.8368 0.77926 0.0
O458 O 0.47886 0.75248 0.83347 0.0
O459 O 0.60824 0.76944 0.735 0.0
O460 O 0.55277 0.67372 0.78881 0.0
O461 O 0.49151 0.74595 0.72045 0.0
Sc462 Sc 0.03249 0.74586 0.13915 0.0
Sc463 Sc 0.01298 0.67964 0.20407 0.0
Sc464 Sc 0.10324 0.69581 0.17726 0.0
O465 O 0.04978 0.70698 0.17347 0.0
C466 C 0.09833 0.70993 0.09317 0.0
C467 C 0.97042 0.6908 0.12794 0.0
C468 C 0.06432 0.61675 0.17888 0.0
C469 C 0.98369 0.75894 0.21033 0.0
C470 C 0.10134 0.78308 0.17352 0.0
C471 C 0.08036 0.68729 0.25897 0.0
O472 O 0.07245 0.7325 0.09866 0.0
O473 O 0.97072 0.68235 0.16186 0.0
O474 O 0.09196 0.63807 0.17999 0.0
O475 O -0.00928 0.76474 0.17663 0.0
O476 O 0.11854 0.75286 0.17609 0.0
O477 O 0.04919 0.67394 0.25107 0.0
O478 O 0.06835 0.78569 0.16307 0.0
O479 O -0.0057 0.73046 0.2273 0.0
O480 O 0.10163 0.70093 0.23536 0.0
O481 O -0.00349 0.70778 0.11278 0.0
O482 O 0.11094 0.69036 0.11896 0.0
O483 O 0.03157 0.62804 0.18208 0.0
Sc484 Sc 0.45222 0.20978 0.66181 0.0
Sc485 Sc 0.46892 0.28568 0.71599 0.0
Sc486 Sc 0.38033 0.26613 0.68643 0.0
O487 O 0.43354 0.25425 0.6879 0.0
C488 C 0.38514 0.23173 0.6091 0.0
C489 C 0.51193 0.26404 0.643 0.0
C490 C 0.42006 0.34514 0.67952 0.0
C491 C 0.50091 0.21063 0.73421 0.0
C492 C 0.38427 0.17903 0.70025 0.0
C493 C 0.39856 0.28946 0.76676 0.0
O494 O 0.41116 0.21072 0.61877 0.0
O495 O 0.51141 0.27661 0.67568 0.0
O496 O 0.39145 0.32486 0.68043 0.0
O497 O 0.49523 0.20056 0.70128 0.0
O498 O 0.36632 0.2086 0.69432 0.0
O499 O 0.43109 0.29911 0.75952 0.0
O500 O 0.41827 0.17596 0.6946 0.0
O501 O 0.48743 0.23976 0.74771 0.0
O502 O 0.37814 0.27256 0.74433 0.0
O503 O 0.48697 0.2437 0.62974 0.0
O504 O 0.37585 0.25964 0.6279 0.0
O505 O 0.45184 0.33284 0.68598 0.0
Sc506 Sc 0.87651 0.21567 0.27425 0.0
Sc507 Sc 0.97122 0.21198 0.27651 0.0
Sc508 Sc 0.92341 0.26351 0.34169 0.0
O509 O 0.92383 0.23054 0.29758 0.0
C510 C 0.85949 0.29875 0.29747 0.0
C511 C 0.92298 0.22825 0.20511 0.0
C512 C -0.00938 0.29323 0.29448 0.0
C513 C 0.92354 0.14197 0.27027 0.0
C514 C 0.85846 0.20735 0.35682 0.0
C515 C -0.01165 0.2134 0.36318 0.0
O516 O 0.84998 0.26789 0.28415 0.0
O517 O 0.95097 0.21372 0.22007 0.0
O518 O 0.96975 0.29409 0.32242 0.0
O519 O 0.89601 0.16119 0.26108 0.0
O520 O 0.87764 0.23537 0.36496 0.0
O521 O -0.00222 0.20866 0.32981 0.0
O522 O 0.85682 0.19377 0.32477 0.0
O523 O 0.95336 0.1558 0.28179 0.0
O524 O 0.95768 0.22678 0.37206 0.0
O525 O 0.89472 0.23701 0.22327 0.0
O526 O 0.8887 0.30332 0.31572 0.0
O527 O -0.00873 0.267 0.27126 0.0
C528 C 0.27522 0.53222 0.32278 0.0
C529 C 0.24982 0.53685 0.29382 0.0
C530 C 0.24801 0.60275 0.30509 0.0
C531 C 0.26655 0.59662 0.33861 0.0
N532 N 0.30093 0.55757 0.37894 0.0
N533 N 0.21069 0.57605 0.25729 0.0
C534 C 0.28176 0.56201 0.34704 0.0
C535 C 0.23659 0.57213 0.28415 0.0
N536 N 0.29243 0.4992 0.32707 0.0
N537 N 0.24037 0.63772 0.29396 0.0
H538 H 0.20147 0.55449 0.24087 0.0
H539 H 0.19634 0.60032 0.25282 0.0
H540 H 0.24805 0.66087 0.30898 0.0
H541 H 0.22975 0.64395 0.26818 0.0
H542 H 0.31311 0.49457 0.34614 0.0
H543 H 0.28797 0.47716 0.30919 0.0
H544 H 0.30937 0.5322 0.38891 0.0
H545 H 0.30742 0.57964 0.39615 0.0
C546 C 0.22997 0.46822 0.86944 0.0
C547 C 0.25292 0.44272 0.88713 0.0
C548 C 0.30386 0.45961 0.8473 0.0
C549 C 0.28016 0.48366 0.82802 0.0
N550 N 0.22728 0.52271 0.83199 0.0
N551 N 0.31443 0.42561 0.90339 0.0
C552 C 0.24515 0.49174 0.84261 0.0
C553 C 0.29096 0.44268 0.87984 0.0
N554 N 0.19354 0.46901 0.87736 0.0
N555 N 0.33748 0.45087 0.83345 0.0
H556 H 0.30565 0.41384 0.92787 0.0
H557 H 0.34275 0.42689 0.90082 0.0
H558 H 0.34734 0.46101 0.80869 0.0
H559 H 0.35427 0.43075 0.84473 0.0
H560 H 0.17472 0.48426 0.86225 0.0
H561 H 0.18227 0.45307 0.89826 0.0
H562 H 0.20314 0.53168 0.84428 0.0
H563 H 0.23916 0.54146 0.81404 0.0
C564 C 0.70829 0.9274 0.62166 0.0
C565 C 0.74562 0.92825 0.61175 0.0
C566 C 0.75733 0.97074 0.66238 0.0
C567 C 0.72216 0.96253 0.6771 0.0
N568 N 0.66712 0.92558 0.67299 0.0
N569 N 0.80679 0.9493 0.62355 0.0
C570 C 0.6983 0.93891 0.65726 0.0
C571 C 0.77056 0.94954 0.6324 0.0
N572 N 0.68254 0.91467 0.59763 0.0
N573 N 0.77717 -0.00017 0.67523 0.0
H574 H 0.81671 0.9356 0.60036 0.0
H575 H 0.8268 0.96116 0.64019 0.0
H576 H 0.76733 0.01815 0.69486 0.0
H577 H 0.80152 0.00836 0.66313 0.0
H578 H 0.65459 0.91591 0.60303 0.0
H579 H 0.68869 0.90732 0.57068 0.0
H580 H 0.65009 0.90663 0.66 0.0
H581 H 0.6608 0.92943 0.70065 0.0
C582 C 0.73308 0.03024 0.15382 0.0
C583 C 0.76498 0.00866 0.14872 0.0
C584 C 0.78878 0.05123 0.10394 0.0
C585 C 0.75983 0.07577 0.11251 0.0
N586 N 0.69822 0.08382 0.13482 0.0
N587 N 0.80714 0.9876 0.10261 0.0
C588 C 0.72986 0.06384 0.13424 0.0
C589 C 0.7874 0.01543 0.11806 0.0
N590 N 0.70586 0.01814 0.17631 0.0
N591 N 0.81884 0.06246 0.08477 0.0
H592 H 0.80436 0.9605 0.11148 0.0
H593 H 0.82219 -0.00923 0.07854 0.0
H594 H 0.82267 0.08923 0.07563 0.0
H595 H 0.84182 0.04588 0.08127 0.0
H596 H 0.6843 0.0344 0.18543 0.0
H597 H 0.70428 -0.00916 0.18471 0.0
H598 H 0.67457 0.07582 0.1484 0.0
H599 H 0.69458 0.10738 0.11908 0.0
C600 C 0.35574 0.24296 0.54729 0.0
C601 C 0.3608 0.22 0.57834 0.0
C602 C 0.31128 0.17959 0.5567 0.0
C603 C 0.30757 0.20144 0.5249 0.0
N604 N 0.3296 0.25003 0.48626 0.0
N605 N 0.34744 0.16259 0.60914 0.0
C606 C 0.33075 0.23211 0.51914 0.0
C607 C 0.34002 0.18703 0.58181 0.0
N608 N 0.37473 0.27517 0.54483 0.0
N609 N 0.28602 0.15285 0.56406 0.0
H610 H 0.36625 0.16742 0.62985 0.0
H611 H 0.33688 0.13606 0.60974 0.0
H612 H 0.26456 0.14619 0.54638 0.0
H613 H 0.28425 0.13929 0.58912 0.0
H614 H 0.36927 0.29524 0.52531 0.0
H615 H 0.39502 0.2827 0.56355 0.0
H616 H 0.34797 0.27044 0.4787 0.0
H617 H 0.3119 0.2423 0.46512 0.0
C618 C 0.11216 0.74606 0.03804 0.0
C619 C 0.11965 0.71429 0.05845 0.0
C620 C 0.18009 0.71294 0.02894 0.0
C621 C 0.17556 0.75079 0.0198 0.0
N622 N 0.13776 0.80532 0.02866 0.0
N623 N 0.15943 0.66219 0.0669 0.0
C624 C 0.14164 0.76803 0.02801 0.0
C625 C 0.1534 0.69593 0.05205 0.0
N626 N 0.07724 0.75613 0.02979 0.0
N627 N 0.20798 0.6928 0.01423 0.0
H628 H 0.13843 0.64692 0.07868 0.0
H629 H 0.18502 0.64964 0.0673 0.0
H630 H 0.22637 0.70326 -0.00481 0.0
H631 H 0.2105 0.66457 0.01787 0.0
H632 H 0.07146 0.77928 0.01399 0.0
H633 H 0.05513 0.73878 0.03499 0.0
H634 H 0.11313 0.81789 0.03588 0.0
H635 H 0.15998 0.82322 0.02741 0.0
C636 C 0.8507 0.19206 0.42183 0.0
C637 C 0.83533 0.19269 0.38623 0.0
C638 C 0.77603 0.20967 0.41025 0.0
C639 C 0.79311 0.21624 0.44475 0.0
N640 N 0.84189 0.20303 0.48714 0.0
N641 N 0.78171 0.18226 0.34964 0.0
C642 C 0.82894 0.20345 0.45192 0.0
C643 C 0.7972 0.19448 0.38153 0.0
N644 N 0.8867 0.18294 0.4257 0.0
N645 N 0.74067 0.22019 0.40421 0.0
H646 H 0.79703 0.16928 0.32926 0.0
H647 H 0.75361 0.18079 0.34539 0.0
H648 H 0.72392 0.23117 0.4246 0.0
H649 H 0.72848 0.22017 0.37836 0.0
H650 H 0.90124 0.18465 0.4502 0.0
H651 H 0.90199 0.17344 0.40337 0.0
H652 H 0.86741 0.19296 0.49466 0.0
H653 H 0.82584 0.21097 0.50947 0.0
C654 C 0.59962 0.68868 0.91595 0.0
C655 C 0.59201 0.72574 0.90769 0.0
C656 C 0.63823 0.74504 0.95283 0.0
C657 C 0.65085 0.70826 0.95413 0.0
N658 N 0.64723 0.64586 0.93129 0.0
N659 N 0.5998 0.78969 0.92167 0.0
C660 C 0.6325 0.68025 0.93418 0.0
C661 C 0.60996 0.75416 0.9275 0.0
N662 N 0.5754 0.66153 0.90718 0.0
N663 N 0.65257 0.77073 0.97619 0.0
H664 H 0.5768 0.7962 0.90597 0.0
H665 H 0.61413 0.81229 0.93172 0.0
H666 H 0.67346 0.76473 -0.00525 0.0
H667 H 0.64237 0.79727 0.97884 0.0
H668 H 0.57914 0.6343 0.91505 0.0
H669 H 0.54936 0.6668 0.89695 0.0
H670 H 0.63644 0.62565 0.91404 0.0
H671 H 0.67239 0.63883 0.94273 0.0
C672 C 0.47982 0.34169 0.22533 0.0
C673 C 0.48529 0.30445 0.23599 0.0
C674 C 0.53538 0.32295 0.27586 0.0
C675 C 0.53615 0.35705 0.25719 0.0
N676 N 0.49691 0.40537 0.2353 0.0
N677 N 0.50047 0.26795 0.289 0.0
C678 C 0.5044 0.36882 0.23851 0.0
C679 C 0.50748 0.29739 0.26706 0.0
N680 N 0.45129 0.35105 0.20306 0.0
N681 N 0.56132 0.31525 0.30166 0.0
H682 H 0.47689 0.25216 0.28593 0.0
H683 H 0.51478 0.26244 0.31308 0.0
H684 H 0.57915 0.33535 0.31155 0.0
H685 H 0.56519 0.28927 0.31284 0.0
H686 H 0.44902 0.37635 0.19006 0.0
H687 H 0.42961 0.33331 0.19777 0.0
H688 H 0.47315 0.4157 0.22347 0.0
H689 H 0.51195 0.42525 0.24932 0.0
C690 C 0.03404 0.18032 0.70833 0.0
C691 C 0.02222 0.17702 0.74558 0.0
C692 C 0.03792 0.11233 0.743 0.0
C693 C 0.06046 0.11874 0.71245 0.0
N694 N 0.07532 0.15722 0.66126 0.0
N695 N 0.02267 0.13945 0.8008 0.0
C696 C 0.05678 0.15228 0.69333 0.0
C697 C 0.02657 0.14276 0.76366 0.0
N698 N 0.02252 0.2087 0.68689 0.0
N699 N 0.02855 0.07759 0.75304 0.0
H700 H 0.01973 0.16201 0.81828 0.0
H701 H 0.02772 0.1148 0.81441 0.0
H702 H 0.03437 0.05496 0.73635 0.0
H703 H 0.01099 0.07243 0.77498 0.0
H704 H 0.02822 0.2104 0.65893 0.0
H705 H 0.00397 0.22838 0.6958 0.0
H706 H 0.07744 0.18251 0.64816 0.0
H707 H 0.08945 0.13569 0.64861 0.0
C708 C 0.4373 0.83504 0.30483 0.0
C709 C 0.45736 0.82002 0.27498 0.0
C710 C 0.42454 0.86115 0.23357 0.0
C711 C 0.40753 0.87767 0.2645 0.0
N712 N 0.41082 0.89025 0.32937 0.0
N713 N 0.47607 0.82544 0.21148 0.0
C714 C 0.41882 0.86833 0.30006 0.0
C715 C 0.45294 0.83502 0.23929 0.0
N716 N 0.4332 0.81612 0.33683 0.0
N717 N 0.41309 0.87002 0.19905 0.0
H718 H 0.49791 0.80743 0.21506 0.0
H719 H 0.47557 0.838 0.18583 0.0
H720 H 0.39376 0.8906 0.19438 0.0
H721 H 0.42161 0.85596 0.17559 0.0
H722 H 0.41655 0.82544 0.35816 0.0
H723 H 0.44197 0.78906 0.33967 0.0
H724 H 0.42066 0.88478 0.3557 0.0
H725 H 0.39794 0.91561 0.32648 0.0
C726 C 0.91107 0.62774 0.76472 0.0
C727 C 0.8776 0.64108 0.75059 0.0
C728 C 0.90449 0.70157 0.74113 0.0
C729 C 0.93921 0.68602 0.74796 0.0
N730 N 0.9768 0.63592 0.76849 0.0
N731 N 0.84227 0.68987 0.72267 0.0
C732 C 0.94284 0.64965 0.76102 0.0
C733 C 0.87391 0.67804 0.73886 0.0
N734 N 0.91221 0.59432 0.78161 0.0
N735 N 0.90092 0.7385 0.73561 0.0
H736 H 0.81905 0.67364 0.71977 0.0
H737 H 0.83981 0.71498 0.70935 0.0
H738 H 0.92297 0.75657 0.7359 0.0
H739 H 0.87574 0.75175 0.7341 0.0
H740 H 0.93517 0.58419 0.79509 0.0
H741 H 0.88902 0.57794 0.78477 0.0
H742 H 0.98194 0.60838 0.77395 0.0
H743 H 0.00024 0.65226 0.76798 0.0
C744 C 0.75843 0.4295 0.58767 0.0
C745 C 0.73823 0.39935 0.60176 0.0
C746 C 0.71349 0.44102 0.6488 0.0
C747 C 0.74439 0.46391 0.64395 0.0
N748 N 0.78721 0.48814 0.59974 0.0
N749 N 0.6853 0.38215 0.63809 0.0
C750 C 0.76424 0.46072 0.61051 0.0
C751 C 0.7122 0.40676 0.63005 0.0
N752 N 0.76863 0.42994 0.55159 0.0
N753 N 0.68395 0.45353 0.66807 0.0
H754 H 0.67741 0.3614 0.62007 0.0
H755 H 0.67009 0.38321 0.66225 0.0
H756 H 0.68157 0.48083 0.67643 0.0
H757 H 0.6596 0.43899 0.67059 0.0
H758 H 0.78168 0.45205 0.53922 0.0
H759 H 0.75883 0.41081 0.53262 0.0
H760 H 0.80661 0.48491 0.57906 0.0
H761 H 0.78621 0.51441 0.61122 0.0
C762 C 0.6725 0.53451 0.15293 0.0
C763 C 0.69772 0.51644 0.1762 0.0
C764 C 0.74841 0.54625 0.1445 0.0
C765 C 0.72302 0.56172 0.11953 0.0
N766 N 0.66173 0.56113 0.09368 0.0
N767 N 0.75996 0.49842 0.18914 0.0
C768 C 0.68545 0.55229 0.12132 0.0
C769 C 0.73589 0.52033 0.17069 0.0
N770 N 0.63627 0.53652 0.16215 0.0
N771 N 0.78429 0.55651 0.14328 0.0
H772 H 0.75169 0.47853 0.20788 0.0
H773 H 0.78785 0.49774 0.18348 0.0
H774 H 0.79462 0.57366 0.12287 0.0
H775 H 0.80325 0.54939 0.1634 0.0
H776 H 0.61724 0.55192 0.14749 0.0
H777 H 0.62598 0.52677 0.18697 0.0
H778 H 0.63494 0.55143 0.09274 0.0
H779 H 0.66922 0.57466 0.0698 0.0
C780 C 0.19174 0.04563 0.35445 0.0
C781 C 0.19124 0.0823 0.34194 0.0
C782 C 0.21415 0.06358 0.28209 0.0
C783 C 0.21784 0.02725 0.29551 0.0
N784 N 0.19836 0.98121 0.33855 0.0
N785 N 0.18375 0.12201 0.28944 0.0
C786 C 0.20242 0.0174 0.3298 0.0
C787 C 0.19592 0.08983 0.30413 0.0
N788 N 0.18353 0.03838 0.39026 0.0
N789 N 0.23059 0.07408 0.25011 0.0
H790 H 0.16813 0.14081 0.30422 0.0
H791 H 0.18464 0.12748 0.26138 0.0
H792 H 0.24545 0.05634 0.23334 0.0
H793 H 0.23227 0.10139 0.24188 0.0
H794 H 0.1875 0.01291 0.40251 0.0
H795 H 0.17356 0.05871 0.40794 0.0
H796 H 0.18522 0.97212 0.36217 0.0
H797 H 0.20518 0.96027 0.32017 0.0
C798 C 0.20453 0.96291 0.8902 0.0
C799 C 0.23485 0.93914 0.8854 0.0
C800 C 0.25772 0.9777 0.83548 0.0
C801 C 0.22337 -0.00449 0.83523 0.0
N802 N 0.17942 0.02271 0.87646 0.0
N803 N 0.29531 0.92907 0.86145 0.0
C804 C 0.20158 -0.00602 0.86728 0.0
C805 C 0.26349 0.9487 0.86089 0.0
N806 N 0.17717 0.95458 0.91424 0.0
N807 N 0.28472 0.98976 0.81267 0.0
H808 H 0.30063 0.90955 0.88169 0.0
H809 H 0.31639 0.93208 0.84259 0.0
H810 H 0.28175 0.01374 0.79733 0.0
H811 H 0.31079 0.97851 0.81128 0.0
H812 H 0.15249 0.96887 0.91499 0.0
H813 H 0.17807 0.93224 0.93194 0.0
H814 H 0.16477 0.02387 0.90097 0.0
H815 H 0.18004 0.04744 0.86212 0.0
C816 C 0.65408 0.77543 0.45267 0.0
C817 C 0.6911 0.7635 0.45249 0.0
C818 C 0.6736 0.71367 0.41024 0.0
C819 C 0.63724 0.72728 0.41088 0.0
N820 N 0.592 0.7538 0.45093 0.0
N821 N 0.73172 0.71165 0.44225 0.0
C822 C 0.62732 0.75146 0.43935 0.0
C823 C 0.69989 0.72964 0.43456 0.0
N824 N 0.64439 0.8105 0.4619 0.0
N825 N 0.68284 0.6854 0.38742 0.0
H826 H 0.74995 0.72035 0.46244 0.0
H827 H 0.73789 0.6857 0.43187 0.0
H828 H 0.66326 0.66906 0.37448 0.0
H829 H 0.70982 0.67802 0.38201 0.0
H830 H 0.6174 0.81965 0.46034 0.0
H831 H 0.66333 0.8316 0.46536 0.0
H832 H 0.58416 0.77094 0.47258 0.0
H833 H 0.57203 0.7357 0.44117 0.0
C834 C 0.86254 0.22039 0.91376 0.0
C835 C 0.86199 0.25562 0.89743 0.0
C836 C 0.81024 0.27324 0.93654 0.0
C837 C 0.80816 0.23646 0.94884 0.0
N838 N 0.82562 0.17302 0.94028 0.0
N839 N 0.83416 0.31525 0.89084 0.0
C840 C 0.83241 0.2095 0.93486 0.0
C841 C 0.83537 0.28203 0.90805 0.0
N842 N 0.89109 0.19663 0.90864 0.0
N843 N 0.78933 0.29976 0.95279 0.0
H844 H 0.85371 0.32328 0.87163 0.0
H845 H 0.81299 0.33405 0.89442 0.0
H846 H 0.77046 0.29399 0.97342 0.0
H847 H 0.79237 0.32767 0.94754 0.0
H848 H 0.89391 0.17247 0.92363 0.0
H849 H 0.91383 0.20195 0.89252 0.0
H850 H 0.84052 0.15207 0.92773 0.0
H851 H 0.80227 0.16366 0.95343 0.0
C852 C 0.15951 0.69153 0.60391 0.0
C853 C 0.13209 0.71894 0.60235 0.0
C854 C 0.14677 0.73146 0.53805 0.0
C855 C 0.17527 0.70517 0.54019 0.0
N856 N 0.21293 0.6643 0.57611 0.0
N857 N 0.1018 0.76828 0.57077 0.0
C858 C 0.18274 0.68625 0.57337 0.0
C859 C 0.12634 0.73995 0.5702 0.0
N860 N 0.16286 0.67001 0.63443 0.0
N861 N 0.13871 0.74739 0.50507 0.0
H862 H 0.08616 0.77472 0.59387 0.0
H863 H 0.0986 0.78697 0.54949 0.0
H864 H 0.15346 0.74191 0.48115 0.0
H865 H 0.1161 0.76412 0.50064 0.0
H866 H 0.17891 0.64646 0.63557 0.0
H867 H 0.14787 0.67441 0.65832 0.0
H868 H 0.2225 0.65327 0.60062 0.0
H869 H 0.23029 0.65913 0.55418 0.0
C870 C 0.31085 0.21605 0.00921 0.0
C871 C 0.30847 0.25479 0.00553 0.0
C872 C 0.36979 0.26058 0.03115 0.0
C873 C 0.36805 0.22421 0.04383 0.0
N874 N 0.33819 0.16546 0.04285 0.0
N875 N 0.33311 0.31436 0.02332 0.0
C876 C 0.33903 0.20118 0.03182 0.0
C877 C 0.33729 0.27726 0.0193 0.0
N878 N 0.28722 0.19368 -0.00935 0.0
N879 N 0.40189 0.2796 0.03127 0.0
H880 H 0.30835 0.32782 0.01899 0.0
H881 H 0.35292 0.33089 0.0357 0.0
H882 H 0.42692 0.26709 0.03673 0.0
H883 H 0.40406 0.30603 0.02057 0.0
H884 H 0.28979 0.1652 0.99009 0.0
H885 H 0.26699 0.20371 0.97318 0.0
H886 H 0.31583 0.14823 0.03872 0.0
H887 H 0.35988 0.15377 0.05735 0.0
C888 C 0.46572 0.65641 0.70083 0.0
C889 C 0.4551 0.6935 0.70651 0.0
C890 C 0.39552 0.68003 0.67964 0.0
C891 C 0.40214 0.64231 0.68599 0.0
N892 N 0.44644 0.59388 0.68618 0.0
N893 N 0.41075 0.74198 0.69801 0.0
C894 C 0.43857 0.63025 0.69083 0.0
C895 C 0.42061 0.70604 0.69394 0.0
N896 N 0.50137 0.64659 0.70621 0.0
N897 N 0.36612 0.69075 0.65927 0.0
H898 H 0.42852 0.76211 0.7078 0.0
H899 H 0.3842 0.75134 0.69357 0.0
H900 H 0.34985 0.67183 0.6452 0.0
H901 H 0.36127 0.71796 0.65203 0.0
H902 H 0.5115 0.62009 0.7032 0.0
H903 H 0.52147 0.66596 0.71239 0.0
H904 H 0.47191 0.58212 0.69079 0.0
H905 H 0.4269 0.57551 0.67609 0.0
C906 C 0.97483 0.82451 0.22869 0.0
C907 C 0.96282 0.78742 0.2302 0.0
C908 C 0.90967 0.80725 0.26494 0.0
C909 C 0.9152 0.84349 0.25203 0.0
N910 N 0.95843 0.8891 0.23257 0.0
N911 N 0.91724 0.74335 0.2498 0.0
C912 C 0.94978 0.85301 0.23754 0.0
C913 C 0.93015 0.77852 0.24898 0.0
N914 N 0.01026 0.8321 0.21976 0.0
N915 N 0.88604 0.80041 0.29304 0.0
H916 H 0.93045 0.72129 0.23726 0.0
H917 H 0.89153 0.7368 0.26021 0.0
H918 H 0.87423 0.82147 0.30845 0.0
H919 H 0.88292 0.77442 0.30451 0.0
H920 H 0.02158 0.85829 0.22031 0.0
H921 H 0.02936 0.81138 0.21527 0.0
H922 H 0.98113 0.89804 0.21792 0.0
H923 H 0.94243 0.91019 0.24355 0.0
C924 C 0.52042 0.15424 0.76749 0.0
C925 C 0.52866 0.19 0.7548 0.0
C926 C 0.59372 0.1762 0.7548 0.0
C927 C 0.5858 0.14006 0.76736 0.0
N928 N 0.54316 0.09765 0.79427 0.0
N929 N 0.57249 0.23865 0.74742 0.0
C930 C 0.54954 0.13005 0.77662 0.0
C931 C 0.56516 0.20227 0.75273 0.0
N932 N 0.48481 0.14316 0.76943 0.0
N933 N 0.6276 0.18485 0.7415 0.0
H934 H 0.55202 0.25841 0.74504 0.0
H935 H 0.5987 0.24969 0.74922 0.0
H936 H 0.64939 0.16657 0.74056 0.0
H937 H 0.63325 0.20927 0.72786 0.0
H938 H 0.47692 0.11615 0.77424 0.0
H939 H 0.46305 0.1611 0.76475 0.0
H940 H 0.51768 0.09003 0.80439 0.0
H941 H 0.5642 0.07978 0.80166 0.0
C942 C 0.07086 0.35453 0.31737 0.0
C943 C 0.07666 0.37112 0.28294 0.0
C944 C 0.0206 0.34356 0.25909 0.0
C945 C 0.01853 0.32203 0.29138 0.0
N946 N 0.04518 0.30287 0.34923 0.0
N947 N 0.05872 0.38155 0.22019 0.0
C948 C 0.04424 0.32672 0.32032 0.0
C949 C 0.05176 0.36607 0.25358 0.0
N950 N 0.09127 0.36508 0.34706 0.0
N951 N -0.00738 0.34284 0.23419 0.0
H952 H 0.08081 0.39911 0.21577 0.0
H953 H 0.04386 0.37551 0.19653 0.0
H954 H 0.96924 0.32686 0.23779 0.0
H955 H -0.00892 0.36036 0.21172 0.0
H956 H 0.08597 0.35631 0.37372 0.0
H957 H 0.11107 0.3856 0.34549 0.0
H958 H 0.0659 0.30277 0.36888 0.0
H959 H 0.02749 0.28069 0.35172 0.0
C960 C 0.21898 0.33232 0.08511 0.0
C961 C 0.20092 0.35291 0.05736 0.0
C962 C 0.16557 0.38604 0.10382 0.0
C963 C 0.18447 0.3663 0.13138 0.0
N964 N 0.22327 0.31618 0.14962 0.0
N965 N 0.15281 0.3942 0.03892 0.0
C966 C 0.20909 0.33772 0.12236 0.0
C967 C 0.17268 0.37806 0.06631 0.0
N968 N 0.24597 0.30803 0.07577 0.0
N969 N 0.14195 0.4134 0.11387 0.0
H970 H 0.15866 0.39049 0.01111 0.0
H971 H 0.12942 0.40982 0.04346 0.0
H972 H 0.13461 0.41809 0.1412 0.0
H973 H 0.1305 0.43207 0.09563 0.0
H974 H 0.26265 0.29449 0.09444 0.0
H975 H 0.25329 0.3025 0.04879 0.0
H976 H 0.23931 0.29304 0.14515 0.0
H977 H 0.21667 0.31964 0.17723 0.0
C978 C 0.31307 0.59074 0.54277 0.0
C979 C 0.27798 0.59551 0.52703 0.0
C980 C 0.25226 0.5526 0.57186 0.0
C981 C 0.28476 0.55548 0.59229 0.0
N982 N 0.34799 0.57248 0.59652 0.0
N983 N 0.213 0.58138 0.52732 0.0
C984 C 0.31609 0.57236 0.57698 0.0
C985 C 0.24735 0.57571 0.54103 0.0
N986 N 0.34317 0.60393 0.52501 0.0
N987 N 0.2257 0.52879 0.58291 0.0
H988 H 0.20726 0.5984 0.50522 0.0
H989 H 0.18944 0.57139 0.53979 0.0
H990 H 0.22913 0.5118 0.60565 0.0
H991 H 0.20234 0.52311 0.56752 0.0
H992 H 0.36987 0.59913 0.53364 0.0
H993 H 0.34144 0.61719 0.49971 0.0
H994 H 0.37081 0.58797 0.58951 0.0
H995 H 0.35094 0.5575 0.62076 0.0
C996 C 0.67678 0.12958 0.92674 0.0
C997 C 0.70161 0.11835 0.95464 0.0
C998 C 0.71759 0.06362 0.91915 0.0
C999 C 0.69408 0.07593 0.89094 0.0
N1000 N 0.63985 0.10962 0.87521 0.0
N1001 N 0.73229 0.06753 0.98383 0.0
C1002 C 0.66936 0.10494 0.89768 0.0
C1003 C 0.71745 0.08277 0.95304 0.0
N1004 N 0.663 0.16445 0.92548 0.0
N1005 N 0.7416 0.03555 0.91309 0.0
H1006 H 0.73078 0.08043 0.00942 0.0
H1007 H 0.74197 0.04063 0.9847 0.0
H1008 H 0.74223 0.0204 0.88879 0.0
H1009 H 0.76229 0.02878 0.93156 0.0
H1010 H 0.64803 0.17418 0.90318 0.0
H1011 H 0.66907 0.185 0.94438 0.0
H1012 H 0.61944 0.12894 0.88037 0.0
H1013 H 0.634 0.09122 0.85391 0.0
C1014 C 0.78362 0.92249 0.43135 0.0
C1015 C 0.80612 0.89254 0.4411 0.0
C1016 C 0.83733 0.89599 0.3822 0.0
C1017 C 0.80826 0.91827 0.36922 0.0
N1018 N 0.75688 0.95819 0.38235 0.0
N1019 N 0.86755 0.86954 0.43525 0.0
C1020 C 0.78295 0.93415 0.39427 0.0
C1021 C 0.83735 0.8849 0.41949 0.0
N1022 N 0.76425 0.94037 0.45801 0.0
N1023 N 0.86419 0.88487 0.35861 0.0
H1024 H 0.86977 0.86621 0.4636 0.0
H1025 H 0.892 0.86497 0.4214 0.0
H1026 H 0.86638 0.89505 0.33195 0.0
H1027 H 0.88361 0.86502 0.36504 0.0
H1028 H 0.74926 0.96422 0.45348 0.0
H1029 H 0.76699 0.93356 0.48571 0.0
H1030 H 0.73485 0.96664 0.39836 0.0
H1031 H 0.75608 0.96856 0.35578 0.0
C1032 C 0.0687 0.16684 0.4083 0.0
C1033 C 0.08436 0.19782 0.42586 0.0
C1034 C 0.0279 0.23262 0.41696 0.0
C1035 C 0.01563 0.2047 0.39225 0.0
N1036 N 0.01911 0.14227 0.3709 0.0
N1037 N 0.07906 0.25864 0.45078 0.0
C1038 C 0.03429 0.17057 0.39043 0.0
C1039 C 0.06357 0.22989 0.43222 0.0
N1040 N 0.0874 0.13433 0.40837 0.0
N1041 N 0.00601 0.26183 0.42562 0.0
H1042 H 0.10397 0.25624 0.46449 0.0
H1043 H 0.06815 0.28502 0.45158 0.0
H1044 H 0.97992 0.26577 0.41518 0.0
H1045 H 0.01227 0.28087 0.44605 0.0
H1046 H 0.07774 0.10995 0.39706 0.0
H1047 H 0.11233 0.1313 0.42203 0.0
H1048 H 0.03205 0.11743 0.36548 0.0
H1049 H -0.00729 0.14375 0.36007 0.0
C1050 C 0.3624 0.79476 0.83719 0.0
C1051 C 0.36376 0.81045 0.87306 0.0
C1052 C 0.43054 0.81169 0.87052 0.0
C1053 C 0.42882 0.79188 0.83701 0.0
N1054 N 0.39389 0.75834 0.79167 0.0
N1055 N 0.39836 0.83265 0.92497 0.0
C1056 C 0.395 0.78192 0.82105 0.0
C1057 C 0.39768 0.81864 0.89008 0.0
N1058 N 0.33019 0.79195 0.81827 0.0
N1059 N 0.46345 0.82435 0.88309 0.0
H1060 H 0.37472 0.84013 0.93914 0.0
H1061 H 0.42211 0.83529 0.94053 0.0
H1062 H 0.48797 0.8195 0.86926 0.0
H1063 H 0.46626 0.84191 0.90554 0.0
H1064 H 0.32885 0.78483 0.79056 0.0
H1065 H 0.30496 0.79995 0.82851 0.0
H1066 H 0.36991 0.74626 0.78201 0.0
H1067 H 0.41719 0.74786 0.77897 0.0
C1068 C 0.56623 0.236 0.61349 0.0
C1069 C 0.54581 0.26795 0.62209 0.0
C1070 C 0.59416 0.30684 0.59699 0.0
C1071 C 0.61389 0.27462 0.58807 0.0
N1072 N 0.61313 0.20958 0.57554 0.0
N1073 N 0.53644 0.33326 0.61693 0.0
C1074 C 0.59817 0.23952 0.59245 0.0
C1075 C 0.55862 0.30338 0.61234 0.0
N1076 N 0.55652 0.20246 0.62714 0.0
N1077 N 0.60946 0.34042 0.59068 0.0
H1078 H 0.5101 0.33132 0.62769 0.0
H1079 H 0.54288 0.35948 0.60777 0.0
H1080 H 0.63399 0.34342 0.57642 0.0
H1081 H 0.59857 0.36505 0.60025 0.0
H1082 H 0.57333 0.17943 0.62538 0.0
H1083 H 0.53349 0.1981 0.64324 0.0
H1084 H 0.60033 0.18405 0.57471 0.0
H1085 H 0.63576 0.2114 0.55841 0.0
C1086 C 0.91649 0.71888 0.09688 0.0
C1087 C 0.93597 0.68675 0.10702 0.0
C1088 C 0.88759 0.64841 0.0799 0.0
C1089 C 0.86647 0.68046 0.07375 0.0
N1090 N 0.85838 0.74572 0.08211 0.0
N1091 N 0.94054 0.62081 0.10943 0.0
C1092 C 0.88051 0.71556 0.08316 0.0
C1093 C 0.92168 0.65139 0.09879 0.0
N1094 N 0.93185 0.75293 0.10088 0.0
N1095 N 0.87512 0.61537 0.06712 0.0
H1096 H 0.96642 0.62211 0.12143 0.0
H1097 H 0.93006 0.5943 0.10795 0.0
H1098 H 0.8504 0.61274 0.05301 0.0
H1099 H 0.89024 0.59119 0.06784 0.0
H1100 H 0.9211 0.77641 0.08869 0.0
H1101 H 0.95646 0.75794 0.11426 0.0
H1102 H 0.86492 0.77052 0.09477 0.0
H1103 H 0.83209 0.74524 0.0715 0.0
C1104 C 0.39323 0.02763 0.19994 0.0
C1105 C 0.3552 0.02812 0.19107 0.0
C1106 C 0.36873 0.07273 0.14362 0.0
C1107 C 0.40102 0.08243 0.16237 0.0
N1108 N 0.45065 0.06124 0.20015 0.0
N1109 N 0.30649 0.05595 0.15479 0.0
C1110 C 0.41566 0.05718 0.18789 0.0
C1111 C 0.3428 0.05131 0.16228 0.0
N1112 N 0.40804 -0.00168 0.21789 0.0
N1113 N 0.36203 0.08627 0.10945 0.0
H1114 H 0.28563 0.04513 0.17085 0.0
H1115 H 0.29718 0.07474 0.13536 0.0
H1116 H 0.38168 0.10181 0.09569 0.0
H1117 H 0.33922 0.07864 0.094 0.0
H1118 H 0.43591 -0.00454 0.22295 0.0
H1119 H 0.39307 0.97476 0.22379 0.0
H1120 H 0.46129 0.04689 0.2224 0.0
H1121 H 0.46899 0.07902 0.18738 0.0
C1122 C 0.88528 0.4056 0.79803 0.0
C1123 C 0.89338 0.38383 0.76674 0.0
C1124 C 0.87034 0.43182 0.72622 0.0
C1125 C 0.85765 0.45137 0.75752 0.0
N1126 N 0.85189 0.45762 0.82314 0.0
N1127 N 0.88834 0.37307 0.70144 0.0
C1128 C 0.86497 0.43857 0.79351 0.0
C1129 C 0.88504 0.39628 0.73088 0.0
N1130 N 0.89739 0.39478 0.83184 0.0
N1131 N 0.86781 0.44673 0.69189 0.0
H1132 H 0.89832 0.34642 0.70357 0.0
H1133 H 0.87801 0.37888 0.67545 0.0
H1134 H 0.85554 0.47188 0.68643 0.0
H1135 H 0.88071 0.4355 0.66895 0.0
H1136 H 0.89516 0.41078 0.85547 0.0
H1137 H 0.91236 0.37071 0.83574 0.0
H1138 H 0.85262 0.44778 0.84992 0.0
H1139 H 0.83869 0.4829 0.82069 0.0
C1140 C 0.55353 0.53924 0.27825 0.0
C1141 C 0.58518 0.52827 0.29765 0.0
C1142 C 0.58741 0.58825 0.32796 0.0
C1143 C 0.56263 0.60184 0.30108 0.0
N1144 N 0.51889 0.58927 0.25247 0.0
N1145 N 0.61579 0.53481 0.35582 0.0
C1146 C 0.54393 0.57695 0.27741 0.0
C1147 C 0.59741 0.55048 0.32724 0.0
N1148 N 0.53174 0.51319 0.2624 0.0
N1149 N 0.60162 0.61165 0.35372 0.0
H1150 H 0.61829 0.50642 0.35837 0.0
H1151 H 0.62402 0.54896 0.37929 0.0
H1152 H 0.59195 0.63836 0.35735 0.0
H1153 H 0.62334 0.60499 0.37092 0.0
H1154 H 0.50657 0.51893 0.25035 0.0
H1155 H 0.53678 0.48522 0.26591 0.0
H1156 H 0.50856 0.57294 0.23133 0.0
H1157 H 0.50979 0.61628 0.25127 0.0
C1158 C 0.1114 0.91613 0.74616 0.0
C1159 C 0.12412 0.93483 0.71461 0.0
C1160 C 0.10656 0.88231 0.67621 0.0
C1161 C 0.09079 0.86576 0.70752 0.0
N1162 N 0.06818 0.87238 0.76936 0.0
N1163 N 0.1277 0.9389 0.64847 0.0
C1164 C 0.0899 0.88448 0.74152 0.0
C1165 C 0.12003 0.91886 0.67915 0.0
N1166 N 0.1218 0.92697 0.78065 0.0
N1167 N 0.109 0.86305 0.64403 0.0
H1168 H 0.13653 0.9661 0.64964 0.0
H1169 H 0.12213 0.92971 0.62193 0.0
H1170 H 0.09805 0.83677 0.64085 0.0
H1171 H 0.1237 0.87223 0.62138 0.0
H1172 H 0.11572 0.9118 0.80405 0.0
H1173 H 0.14021 0.94826 0.78565 0.0
H1174 H 0.06378 0.88772 0.79317 0.0
H1175 H 0.05113 0.84966 0.76664 0.0
C1176 C 0.79549 0.59252 0.87666 0.0
C1177 C 0.76522 0.57181 0.86341 0.0
C1178 C 0.74123 0.56799 0.92582 0.0
C1179 C 0.76581 0.59613 0.9369 0.0
N1180 N 0.82717 0.61844 0.92953 0.0
N1181 N 0.70884 0.53957 0.87526 0.0
C1182 C 0.79639 0.60363 0.91425 0.0
C1183 C 0.73829 0.55886 0.88805 0.0
N1184 N 0.82294 0.60192 0.85307 0.0
N1185 N 0.72278 0.5482 0.95159 0.0
H1186 H 0.70572 0.53205 0.84777 0.0
H1187 H 0.68625 0.53346 0.89152 0.0
H1188 H 0.72837 0.5508 0.97959 0.0
H1189 H 0.70643 0.52565 0.94514 0.0
H1190 H 0.84347 0.62069 0.85931 0.0
H1191 H 0.82468 0.59131 0.82648 0.0
H1192 H 0.85132 0.62311 0.91527 0.0
H1193 H 0.83007 0.62167 0.95787 0.0
C1194 C 0.70785 0.33087 0.4041 0.0
C1195 C 0.69784 0.34511 0.43867 0.0
C1196 C 0.66239 0.39356 0.40937 0.0
C1197 C 0.66892 0.37625 0.37502 0.0
N1198 N 0.69048 0.32234 0.34135 0.0
N1199 N 0.66338 0.38761 0.47581 0.0
C1200 C 0.68917 0.34297 0.37281 0.0
C1201 C 0.67451 0.37593 0.44191 0.0
N1202 N 0.73631 0.30672 0.40096 0.0
N1203 N 0.64475 0.4266 0.41076 0.0
H1204 H 0.67256 0.37555 0.50009 0.0
H1205 H 0.64348 0.40766 0.47984 0.0
H1206 H 0.63366 0.43907 0.38752 0.0
H1207 H 0.64262 0.44243 0.43454 0.0
H1208 H 0.74709 0.29838 0.37579 0.0
H1209 H 0.75191 0.29836 0.42336 0.0
H1210 H 0.7019 0.29613 0.34045 0.0
H1211 H 0.6769 0.32866 0.3172 0.0
C1212 C 0.3051 0.90927 0.08897 0.0
C1213 C 0.30868 0.88327 0.1176 0.0
C1214 C 0.30377 0.83288 0.07404 0.0
C1215 C 0.29353 0.85847 0.04645 0.0
N1216 N 0.28925 0.92092 0.02519 0.0
N1217 N 0.33494 0.82436 0.13194 0.0
C1218 C 0.29624 0.8968 0.05301 0.0
C1219 C 0.31554 0.84619 0.10859 0.0
N1220 N 0.31196 0.94543 0.09631 0.0
N1221 N 0.29984 0.79595 0.06845 0.0
H1222 H 0.34814 0.83483 0.15511 0.0
H1223 H 0.34283 0.79765 0.12533 0.0
H1224 H 0.29073 0.78443 0.04389 0.0
H1225 H 0.30272 0.77677 0.08942 0.0
H1226 H 0.31168 0.96613 0.07673 0.0
H1227 H 0.32166 0.95406 0.12192 0.0
H1228 H 0.28696 0.94916 0.02879 0.0
H1229 H 0.28486 0.91241 -0.00186 0.0
C1230 C 0.21997 0.053 0.5748 0.0
C1231 C 0.18917 0.05933 0.59757 0.0
C1232 C 0.15808 0.09129 0.54742 0.0
C1233 C 0.19048 0.08846 0.52645 0.0
N1234 N 0.24136 0.048 0.5124 0.0
N1235 N 0.12446 0.07084 0.60109 0.0
C1236 C 0.21791 0.06311 0.53738 0.0
C1237 C 0.15651 0.0737 0.58212 0.0
N1238 N 0.25199 0.03985 0.58887 0.0
N1239 N 0.12936 0.11131 0.53436 0.0
H1240 H 0.12292 0.0572 0.62623 0.0
H1241 H 0.0992 0.07876 0.5906 0.0
H1242 H 0.12892 0.12154 0.50761 0.0
H1243 H 0.10656 0.11822 0.55002 0.0
H1244 H 0.27634 0.03981 0.57403 0.0
H1245 H 0.25508 0.03108 0.61581 0.0
H1246 H 0.26031 0.02781 0.51935 0.0
H1247 H 0.238 0.05076 0.48417 0.0
C1248 C 0.95878 0.79592 0.58851 0.0
C1249 C 0.95421 0.77127 0.61811 0.0
C1250 C 0.88864 0.77777 0.61524 0.0
C1251 C 0.89216 0.79973 0.5833 0.0
N1252 N 0.93035 0.82596 0.53625 0.0
N1253 N 0.91528 0.72817 0.64921 0.0
C1254 C 0.92726 0.80748 0.56864 0.0
C1255 C 0.91927 0.75866 0.62793 0.0
N1256 N -0.00721 0.80883 0.5802 0.0
N1257 N 0.8569 0.7763 0.63486 0.0
H1258 H 0.93752 0.71239 0.65742 0.0
H1259 H 0.88993 0.71621 0.65444 0.0
H1260 H 0.83441 0.79278 0.62959 0.0
H1261 H 0.85479 0.76246 0.65978 0.0
H1262 H -0.00254 0.82966 0.56128 0.0
H1263 H 0.01623 0.79979 0.5938 0.0
H1264 H 0.95507 0.82943 0.52255 0.0
H1265 H 0.9077 0.83606 0.52206 0.0
C1266 C 0.55777 0.17014 0.09872 0.0
C1267 C 0.54781 0.19625 0.12581 0.0
C1268 C 0.61134 0.21641 0.13196 0.0
C1269 C 0.62085 0.19252 0.1026 0.0
N1270 N 0.60419 0.14802 0.05637 0.0
N1271 N 0.56338 0.24621 0.16679 0.0
C1272 C 0.59435 0.16965 0.08552 0.0
C1273 C 0.57417 0.2198 0.1422 0.0
N1274 N 0.53232 0.14561 0.08617 0.0
N1275 N 0.63791 0.23578 0.15012 0.0
H1276 H 0.53667 0.24866 0.17633 0.0
H1277 H 0.58016 0.26722 0.17638 0.0
H1278 H 0.66529 0.23561 0.14246 0.0
H1279 H 0.63354 0.25033 0.17437 0.0
H1280 H 0.53834 0.12357 0.06896 0.0
H1281 H 0.50518 0.14593 0.09496 0.0
H1282 H 0.58566 0.13367 0.04005 0.0
H1283 H 0.63112 0.14569 0.04726 0.0
C1284 C 0.39669 0.67811 0.39899 0.0
C1285 C 0.38049 0.70801 0.41781 0.0
C1286 C 0.43573 0.74482 0.41034 0.0
C1287 C 0.45108 0.71575 0.38893 0.0
N1288 N 0.45222 0.65127 0.37434 0.0
N1289 N 0.38727 0.76446 0.45157 0.0
C1290 C 0.43344 0.68115 0.38709 0.0
C1291 C 0.40111 0.7395 0.42712 0.0
N1292 N 0.37653 0.64737 0.39151 0.0
N1293 N 0.45254 0.77829 0.41255 0.0
H1294 H 0.36162 0.7615 0.46366 0.0
H1295 H 0.40231 0.78617 0.46251 0.0
H1296 H 0.47797 0.7841 0.40134 0.0
H1297 H 0.44016 0.8016 0.42351 0.0
H1298 H 0.38522 0.62645 0.37402 0.0
H1299 H 0.35017 0.64352 0.40172 0.0
H1300 H 0.44201 0.62461 0.37489 0.0
H1301 H 0.47965 0.65278 0.36661 0.0
C1302 C 0.0853 0.34746 0.87075 0.0
C1303 C 0.09364 0.32998 0.90427 0.0
C1304 C 0.03516 0.29748 0.89942 0.0
C1305 C 0.03463 0.30529 0.86106 0.0
N1306 N 0.06482 0.33499 0.8095 0.0
N1307 N 0.07079 0.29592 0.95584 0.0
C1308 C 0.06085 0.33003 0.84645 0.0
C1309 C 0.06661 0.30734 0.92046 0.0
N1310 N 0.10062 0.38043 0.86211 0.0
N1311 N 0.00524 0.28235 0.91589 0.0
H1312 H 0.09049 0.30733 0.97322 0.0
H1313 H 0.05489 0.27546 0.96772 0.0
H1314 H 0.98091 0.27735 0.90184 0.0
H1315 H 0.00306 0.27846 0.9441 0.0
H1316 H 0.09364 0.39476 0.83836 0.0
H1317 H 0.11607 0.39532 0.88115 0.0
H1318 H 0.08563 0.35115 0.79856 0.0
H1319 H 0.05095 0.31956 0.7898 0.0
C1320 C 0.57145 0.94802 0.7984 0.0
C1321 C 0.60878 0.95099 0.80843 0.0
C1322 C 0.60611 0.88883 0.83357 0.0
C1323 C 0.57541 0.88192 0.81072 0.0
N1324 N 0.51967 0.90833 0.78637 0.0
N1325 N 0.65475 0.93074 0.85124 0.0
C1326 C 0.55493 0.91261 0.79783 0.0
C1327 C 0.62397 0.9234 0.83129 0.0
N1328 N 0.55129 0.97907 0.79279 0.0
N1329 N 0.61642 0.86318 0.85878 0.0
H1330 H 0.66439 0.95748 0.8549 0.0
H1331 H 0.67014 0.91086 0.86467 0.0
H1332 H 0.60074 0.8398 0.86351 0.0
H1333 H 0.6376 0.86661 0.87755 0.0
H1334 H 0.52345 0.97913 0.78695 0.0
H1335 H 0.56136 0.00512 0.79909 0.0
H1336 H 0.50574 0.92767 0.77071 0.0
H1337 H 0.50366 0.8861 0.79438 0.0
C1338 C 0.08223 0.52044 0.20942 0.0
C1339 C 0.11883 0.51964 0.19645 0.0
C1340 C 0.10332 0.56841 0.15371 0.0
C1341 C 0.07266 0.57716 0.17547 0.0
N1342 N 0.02924 0.55808 0.22174 0.0
N1343 N 0.16508 0.54632 0.15654 0.0
C1344 C 0.06035 0.55173 0.2021 0.0
C1345 C 0.12954 0.54378 0.1678 0.0
N1346 N 0.06832 0.49115 0.22806 0.0
N1347 N 0.10848 0.58603 0.12116 0.0
H1348 H 0.18656 0.53183 0.16832 0.0
H1349 H 0.17395 0.56617 0.13805 0.0
H1350 H 0.0893 0.60479 0.11119 0.0
H1351 H 0.12935 0.5791 0.10294 0.0
H1352 H 0.04095 0.48913 0.23563 0.0
H1353 H 0.08323 0.46708 0.23199 0.0
H1354 H 0.02236 0.54315 0.24509 0.0
H1355 H 0.0105 0.57847 0.21512 0.0
C1356 C 0.38855 0.40044 0.65299 0.0
C1357 C 0.41514 0.38569 0.67704 0.0
C1358 C 0.40944 0.43884 0.71757 0.0
C1359 C 0.3818 0.45331 0.6944 0.0
N1360 N 0.35527 0.45468 0.63367 0.0
N1361 N 0.46367 0.40154 0.71991 0.0
C1362 C 0.37467 0.4363 0.65988 0.0
C1363 C 0.43008 0.40846 0.70508 0.0
N1364 N 0.3764 0.38001 0.62394 0.0
N1365 N 0.41447 0.45181 0.75249 0.0
H1366 H 0.48175 0.38233 0.70908 0.0
H1367 H 0.47588 0.41901 0.73907 0.0
H1368 H 0.39891 0.47267 0.76423 0.0
H1369 H 0.43166 0.43891 0.7713 0.0
H1370 H 0.35392 0.3873 0.60797 0.0
H1371 H 0.38851 0.35507 0.61661 0.0
H1372 H 0.35146 0.44477 0.60707 0.0
H1373 H 0.34636 0.48166 0.63742 0.0
C1374 C 0.90248 0.08301 0.2978 0.0
C1375 C 0.91909 0.10174 0.26818 0.0
C1376 C 0.90445 0.05118 0.2264 0.0
C1377 C 0.88689 0.03262 0.25579 0.0
N1378 N 0.87797 0.02565 0.32092 0.0
N1379 N 0.94629 0.09952 0.20835 0.0
C1380 C 0.88886 0.04687 0.29208 0.0
C1381 C 0.9237 0.08423 0.23384 0.0
N1382 N 0.89834 0.10045 0.33085 0.0
N1383 N 0.90045 0.03897 0.19106 0.0
H1384 H 0.96093 0.12355 0.21373 0.0
H1385 H 0.95342 0.08652 0.18385 0.0
H1386 H 0.88607 0.01528 0.18404 0.0
H1387 H 0.90896 0.05392 0.1683 0.0
H1388 H 0.88248 0.09021 0.3522 0.0
H1389 H 0.90965 0.12622 0.3363 0.0
H1390 H 0.88148 0.03319 0.34831 0.0
H1391 H 0.86847 -0.00116 0.31745 0.0
C1392 C 0.24445 0.35316 0.37625 0.0
C1393 C 0.21147 0.373 0.37188 0.0
C1394 C 0.18152 0.33493 0.41784 0.0
C1395 C 0.21196 0.31086 0.4167 0.0
N1396 N 0.27635 0.30323 0.40696 0.0
N1397 N 0.1586 0.39582 0.40429 0.0
C1398 C 0.24506 0.32251 0.40028 0.0
C1399 C 0.18317 0.36835 0.39798 0.0
N1400 N 0.27434 0.3631 0.35622 0.0
N1401 N 0.15033 0.32492 0.43567 0.0
H1402 H 0.16144 0.4218 0.39279 0.0
H1403 H 0.13865 0.39453 0.42462 0.0
H1404 H 0.14887 0.30173 0.45217 0.0
H1405 H 0.12569 0.33901 0.43303 0.0
H1406 H 0.29852 0.34813 0.35501 0.0
H1407 H 0.2745 0.38709 0.34059 0.0
H1408 H 0.302 0.3105 0.3971 0.0
H1409 H 0.27664 0.28098 0.42492 0.0
C1410 C 0.31308 0.69158 0.86519 0.0
C1411 C 0.27568 0.69848 0.87227 0.0
C1412 C 0.25826 0.64976 0.82962 0.0
C1413 C 0.29518 0.6478 0.81762 0.0
N1414 N 0.3576 0.66924 0.82145 0.0
N1415 N 0.21225 0.68463 0.8626 0.0
C1416 C 0.32278 0.6689 0.83507 0.0
C1417 C 0.2481 0.67733 0.85522 0.0
N1418 N 0.33918 0.70687 0.88729 0.0
N1419 N 0.23316 0.62499 0.81687 0.0
H1420 H 0.2045 0.70313 0.88306 0.0
H1421 H 0.19052 0.67361 0.84773 0.0
H1422 H 0.23965 0.60441 0.798 0.0
H1423 H 0.20673 0.62284 0.8272 0.0
H1424 H 0.36692 0.70084 0.88521 0.0
H1425 H 0.33247 0.72236 0.91044 0.0
H1426 H 0.37773 0.68729 0.83063 0.0
H1427 H 0.36573 0.6537 0.79878 0.0
C1428 C 0.68365 0.13953 0.59147 0.0
C1429 C 0.71833 0.15648 0.59264 0.0
C1430 C 0.7346 0.11901 0.64539 0.0
C1431 C 0.6967 0.11301 0.65114 0.0
N1432 N 0.63455 0.11532 0.62828 0.0
N1433 N 0.78092 0.15236 0.61126 0.0
C1434 C 0.67099 0.12177 0.62341 0.0
C1435 C 0.74538 0.14248 0.61644 0.0
N1436 N 0.66368 0.13933 0.55985 0.0
N1437 N 0.75975 0.10206 0.66732 0.0
H1438 H 0.78883 0.1664 0.58764 0.0
H1439 H 0.80201 0.14668 0.62955 0.0
H1440 H 0.75222 0.08361 0.68778 0.0
H1441 H 0.78786 0.10382 0.66358 0.0
H1442 H 0.63911 0.1251 0.55714 0.0
H1443 H 0.67431 0.149 0.53515 0.0
H1444 H 0.6147 0.12456 0.60997 0.0
H1445 H 0.6239 0.10311 0.65178 0.0
C1446 C 0.73932 0.81087 0.10711 0.0
C1447 C 0.76345 0.79856 0.07938 0.0
C1448 C 0.81217 0.83747 0.10379 0.0
C1449 C 0.7892 0.84688 0.13392 0.0
N1450 N 0.72748 0.85465 0.15597 0.0
N1451 N 0.81593 0.81132 0.04228 0.0
C1452 C 0.75152 0.83752 0.13288 0.0
C1453 C 0.79744 0.81616 0.07444 0.0
N1454 N 0.70538 0.79551 0.10966 0.0
N1455 N 0.84845 0.84639 0.10437 0.0
H1456 H 0.80523 0.79559 0.02081 0.0
H1457 H 0.83974 0.82548 0.03569 0.0
H1458 H 0.86085 0.86037 0.12606 0.0
H1459 H 0.86703 0.83753 0.0846 0.0
H1460 H 0.6879 0.79953 0.13187 0.0
H1461 H 0.69544 0.77753 0.08958 0.0
H1462 H 0.6993 0.85091 0.15467 0.0
H1463 H 0.73544 0.8756 0.17388 0.0
C1464 C 0.3612 0.21195 0.30938 0.0
C1465 C 0.36407 0.18226 0.28417 0.0
C1466 C 0.31598 0.14874 0.31586 0.0
C1467 C 0.31206 0.17892 0.34033 0.0
N1468 N 0.33544 0.235 0.36651 0.0
N1469 N 0.3529 0.11883 0.26925 0.0
C1470 C 0.33631 0.20917 0.33916 0.0
C1471 C 0.34421 0.14942 0.2894 0.0
N1472 N 0.38088 0.24331 0.3038 0.0
N1473 N 0.29199 0.12001 0.31716 0.0
H1474 H 0.3741 0.11854 0.25008 0.0
H1475 H 0.34173 0.09298 0.27383 0.0
H1476 H 0.27175 0.1178 0.33706 0.0
H1477 H 0.29072 0.09935 0.29738 0.0
H1478 H 0.37685 0.26753 0.3185 0.0
H1479 H 0.4005 0.24568 0.28324 0.0
H1480 H 0.35453 0.25601 0.36923 0.0
H1481 H 0.317 0.23382 0.38831 0.0
C1482 C 0.12547 0.76323 0.8761 0.0
C1483 C 0.13033 0.80185 0.8767 0.0
C1484 C 0.07274 0.80842 0.84403 0.0
C1485 C 0.07705 0.77194 0.83124 0.0
N1486 N 0.09839 0.71109 0.8444 0.0
N1487 N 0.10448 0.86219 0.86677 0.0
C1488 C 0.10003 0.74795 0.85101 0.0
C1489 C 0.10224 0.82496 0.8632 0.0
N1490 N 0.14498 0.74171 0.89963 0.0
N1491 N 0.04059 0.8265 0.83861 0.0
H1492 H 0.1259 0.87543 0.88021 0.0
H1493 H 0.08566 0.88007 0.85499 0.0
H1494 H 0.01783 0.81335 0.82736 0.0
H1495 H 0.03522 0.85243 0.84952 0.0
H1496 H 0.14044 0.71367 0.90268 0.0
H1497 H 0.16333 0.75283 0.91862 0.0
H1498 H 0.11731 0.69232 0.85455 0.0
H1499 H 0.07782 0.69971 0.82801 0.0
C1500 C 0.86702 0.23841 0.61485 0.0
C1501 C 0.8586 0.27403 0.60222 0.0
C1502 C 0.90991 0.29885 0.63697 0.0
C1503 C 0.91026 0.26606 0.65745 0.0
N1504 N 0.89539 0.20218 0.66287 0.0
N1505 N 0.87434 0.33814 0.59699 0.0
C1506 C 0.89149 0.23465 0.64469 0.0
C1507 C 0.88149 0.30418 0.61107 0.0
N1508 N 0.8512 0.20869 0.59845 0.0
N1509 N 0.93583 0.32502 0.64342 0.0
H1510 H 0.85401 0.34272 0.57745 0.0
H1511 H 0.8875 0.36196 0.60574 0.0
H1512 H 0.95672 0.32115 0.66253 0.0
H1513 H 0.9385 0.34871 0.62775 0.0
H1514 H 0.85824 0.18169 0.60452 0.0
H1515 H 0.83356 0.21154 0.57611 0.0
H1516 H 0.8793 0.17913 0.65783 0.0
H1517 H 0.91455 0.199 0.68392 0.0
C1518 C 0.59196 0.66455 0.17451 0.0
C1519 C 0.57979 0.70116 0.17832 0.0
C1520 C 0.61629 0.71836 0.12476 0.0
C1521 C 0.63422 0.68385 0.12665 0.0
N1522 N 0.64357 0.62683 0.15888 0.0
N1523 N 0.57919 0.76345 0.1571 0.0
C1524 C 0.62284 0.65728 0.15249 0.0
C1525 C 0.59116 0.72819 0.15296 0.0
N1526 N 0.57524 0.63704 0.19342 0.0
N1527 N 0.62343 0.74151 0.09626 0.0
H1528 H 0.5595 0.77057 0.17662 0.0
H1529 H 0.58968 0.7855 0.14236 0.0
H1530 H 0.6415 0.73465 0.07516 0.0
H1531 H 0.60927 0.76592 0.09194 0.0
H1532 H 0.58169 0.60939 0.1897 0.0
H1533 H 0.55223 0.64175 0.20952 0.0
H1534 H 0.639 0.60947 0.18107 0.0
H1535 H 0.66785 0.62151 0.14501 0.0
C1536 C 0.32959 0.34182 0.15437 0.0
C1537 C 0.34836 0.31754 0.1781 0.0
C1538 C 0.32886 0.35286 0.23188 0.0
C1539 C 0.30809 0.37551 0.20843 0.0
N1540 N 0.29693 0.3994 0.1478 0.0
N1541 N 0.37508 0.30577 0.23762 0.0
C1542 C 0.31166 0.37285 0.16971 0.0
C1543 C 0.35102 0.32501 0.21635 0.0
N1544 N 0.32692 0.33391 0.11771 0.0
N1545 N 0.32569 0.35696 0.26906 0.0
H1546 H 0.39176 0.28499 0.22719 0.0
H1547 H 0.38123 0.31283 0.26466 0.0
H1548 H 0.31131 0.37881 0.28081 0.0
H1549 H 0.33604 0.33832 0.28802 0.0
H1550 H 0.31053 0.34847 0.09949 0.0
H1551 H 0.33924 0.31105 0.10564 0.0
H1552 H 0.30077 0.40057 0.11952 0.0
H1553 H 0.28379 0.4225 0.15833 0.0
C1554 C 0.83536 0.13925 0.8204 0.0
C1555 C 0.85962 0.1476 0.79122 0.0
C1556 C 0.83711 0.0941 0.75695 0.0
C1557 C 0.81291 0.08624 0.78622 0.0
N1558 N 0.79867 0.09306 0.85039 0.0
N1559 N 0.89 0.12833 0.73567 0.0
C1560 C 0.81588 0.10572 0.81971 0.0
C1561 C 0.8627 0.12337 0.76073 0.0
N1562 N 0.82807 0.16477 0.84695 0.0
N1563 N 0.83439 0.07439 0.72513 0.0
H1564 H 0.90919 0.14941 0.73801 0.0
H1565 H 0.89544 0.10998 0.71437 0.0
H1566 H 0.81728 0.05157 0.72298 0.0
H1567 H 0.84796 0.08121 0.70099 0.0
H1568 H 0.8071 0.16173 0.86603 0.0
H1569 H 0.8398 0.19078 0.84718 0.0
H1570 H 0.80204 0.10498 0.87626 0.0
H1571 H 0.78448 0.06826 0.85066 0.0
C1572 C 0.66082 0.87924 0.24649 0.0
C1573 C 0.6844 0.89274 0.2742 0.0
C1574 C 0.65216 0.8563 0.32035 0.0
C1575 C 0.63374 0.8377 0.29149 0.0
N1576 N 0.61797 0.83193 0.22742 0.0
N1577 N 0.70239 0.89579 0.3379 0.0
C1578 C 0.63689 0.84967 0.25461 0.0
C1579 C 0.67928 0.88261 0.31147 0.0
N1580 N 0.66201 0.89471 0.2124 0.0
N1581 N 0.64434 0.84819 0.35616 0.0
H1582 H 0.72126 0.91644 0.33283 0.0
H1583 H 0.70397 0.88544 0.36446 0.0
H1584 H 0.62623 0.82752 0.36386 0.0
H1585 H 0.65382 0.86354 0.37839 0.0
H1586 H 0.64405 0.88815 0.1912 0.0
H1587 H 0.67941 0.91665 0.20652 0.0
H1588 H 0.62198 0.83657 0.19953 0.0
H1589 H 0.59908 0.81117 0.23275 0.0
C1590 C 0.15041 0.5805 0.68218 0.0
C1591 C 0.1693 0.57408 0.71537 0.0
C1592 C 0.12489 0.61009 0.74985 0.0
C1593 C 0.10882 0.62055 0.71617 0.0
N1594 N 0.09722 0.60642 0.65223 0.0
N1595 N 0.16725 0.56922 0.7807 0.0
C1596 C 0.11815 0.60208 0.68301 0.0
C1597 C 0.15381 0.58427 0.74934 0.0
N1598 N 0.16495 0.56822 0.64983 0.0
N1599 N 0.11363 0.62625 0.7818 0.0
H1600 H 0.18729 0.54895 0.77939 0.0
H1601 H 0.15616 0.57369 0.80665 0.0
H1602 H 0.09116 0.64392 0.78273 0.0
H1603 H 0.12701 0.62302 0.80683 0.0
H1604 H 0.15545 0.57588 0.62402 0.0
H1605 H 0.18777 0.55105 0.64902 0.0
H1606 H 0.1013 0.5917 0.62803 0.0
H1607 H 0.07362 0.62235 0.65169 0.0
C1608 C 0.75071 0.6493 0.61234 0.0
C1609 C 0.78386 0.6365 0.62783 0.0
C1610 C 0.81879 0.67671 0.58722 0.0
C1611 C 0.78583 0.69396 0.57688 0.0
N1612 N 0.72014 0.69744 0.57803 0.0
N1613 N 0.84989 0.63878 0.63168 0.0
C1614 C 0.75157 0.67997 0.58834 0.0
C1615 C 0.81814 0.64979 0.61517 0.0
N1616 N 0.71861 0.63208 0.62072 0.0
N1617 N 0.85072 0.68687 0.57066 0.0
H1618 H 0.85091 0.61906 0.65226 0.0
H1619 H 0.87517 0.6509 0.6268 0.0
H1620 H 0.85155 0.70679 0.55013 0.0
H1621 H 0.87551 0.67343 0.57462 0.0
H1622 H 0.69377 0.63808 0.60815 0.0
H1623 H 0.71744 0.60951 0.63825 0.0
H1624 H 0.69455 0.69164 0.58902 0.0
H1625 H 0.71996 0.71905 0.5593 0.0
C1626 C 0.66398 0.31428 0.09229 0.0
C1627 C 0.70264 0.31287 0.09062 0.0
C1628 C 0.70643 0.36309 0.1346 0.0
C1629 C 0.66922 0.35701 0.14354 0.0
N1630 N 0.61139 0.32792 0.13026 0.0
N1631 N 0.76121 0.33766 0.10692 0.0
C1632 C 0.64726 0.33366 0.12159 0.0
C1633 C 0.72406 0.33845 0.11022 0.0
N1634 N 0.64359 0.29617 0.06657 0.0
N1635 N 0.72458 0.39229 0.14955 0.0
H1636 H 0.77431 0.32061 0.08792 0.0
H1637 H 0.77877 0.35277 0.12369 0.0
H1638 H 0.71183 0.41094 0.16724 0.0
H1639 H 0.75088 0.39988 0.14173 0.0
H1640 H 0.61523 0.29798 0.06499 0.0
H1641 H 0.65548 0.28264 0.04432 0.0
H1642 H 0.59531 0.30785 0.11777 0.0
H1643 H 0.59818 0.34172 0.15157 0.0
C1644 C 0.29506 0.83575 0.41548 0.0
C1645 C 0.26056 0.81867 0.41749 0.0
C1646 C 0.23745 0.86022 0.37003 0.0
C1647 C 0.27412 0.86882 0.36083 0.0
N1648 N 0.33841 0.86636 0.37619 0.0
N1649 N 0.19639 0.82082 0.4048 0.0
C1650 C 0.30307 0.85794 0.38456 0.0
C1651 C 0.2307 0.83381 0.39791 0.0
N1652 N 0.32004 0.83043 0.44278 0.0
N1653 N 0.20951 0.877 0.35173 0.0
H1654 H 0.19146 0.80266 0.42638 0.0
H1655 H 0.17337 0.82733 0.38936 0.0
H1656 H 0.21422 0.89659 0.33148 0.0
H1657 H 0.18202 0.87364 0.35811 0.0
H1658 H 0.34507 0.844 0.44397 0.0
H1659 H 0.31355 0.81617 0.46666 0.0
H1660 H 0.36079 0.85535 0.38999 0.0
H1661 H 0.34544 0.88251 0.35386 0.0
C1662 C 0.21022 0.18217 0.86251 0.0
C1663 C 0.1832 0.2095 0.86825 0.0
C1664 C 0.14107 0.17765 0.82688 0.0
C1665 C 0.16812 0.15047 0.82128 0.0
N1666 N 0.22307 0.12033 0.84148 0.0
N1667 N 0.11984 0.22796 0.86488 0.0
C1668 C 0.20095 0.15056 0.8418 0.0
C1669 C 0.14753 0.20552 0.8533 0.0
N1670 N 0.24525 0.1874 0.8746 0.0
N1671 N 0.1101 0.17779 0.80581 0.0
H1672 H 0.1235 0.24803 0.88505 0.0
H1673 H 0.09262 0.22433 0.8573 0.0
H1674 H 0.10418 0.15724 0.78668 0.0
H1675 H 0.09141 0.19937 0.80565 0.0
H1676 H 0.26684 0.17018 0.86743 0.0
H1677 H 0.25355 0.21057 0.8893 0.0
H1678 H 0.24574 0.11746 0.85856 0.0
H1679 H 0.21664 0.09664 0.82658 0.0
C1680 C 0.63957 0.78356 0.61598 0.0
C1681 C 0.66912 0.80697 0.62556 0.0
C1682 C 0.64026 0.82162 0.68413 0.0
C1683 C 0.61362 0.79438 0.67692 0.0
N1684 N 0.58782 0.74783 0.63766 0.0
N1685 N 0.70016 0.84525 0.67017 0.0
C1686 C 0.61286 0.77515 0.64306 0.0
C1687 C 0.67016 0.82526 0.66001 0.0
N1688 N 0.63737 0.76921 0.5813 0.0
N1689 N 0.63659 0.84418 0.71406 0.0
H1690 H 0.72215 0.85008 0.65281 0.0
H1691 H 0.70446 0.85514 0.69669 0.0
H1692 H 0.61398 0.8432 0.73144 0.0
H1693 H 0.65398 0.86599 0.71996 0.0
H1694 H 0.61483 0.75471 0.57155 0.0
H1695 H 0.65724 0.77389 0.56133 0.0
H1696 H 0.58829 0.72994 0.6153 0.0
H1697 H 0.56749 0.74182 0.65679 0.0
C1698 C 0.9167 0.19179 0.14905 0.0
C1699 C 0.91793 0.22698 0.16487 0.0
C1700 C 0.86938 0.24655 0.12328 0.0
C1701 C 0.86013 0.20897 0.11803 0.0
N1702 N 0.87594 0.14473 0.12718 0.0
N1703 N 0.90301 0.29067 0.16073 0.0
C1704 C 0.88459 0.1811 0.13021 0.0
C1705 C 0.89732 0.25555 0.14892 0.0
N1706 N 0.94536 0.1684 0.15349 0.0
N1707 N 0.85137 0.27315 0.10408 0.0
H1708 H 0.92418 0.29693 0.17901 0.0
H1709 H 0.88668 0.31284 0.15334 0.0
H1710 H 0.83155 0.26695 0.08436 0.0
H1711 H 0.85821 0.30087 0.10524 0.0
H1712 H 0.94681 0.143 0.14027 0.0
H1713 H 0.96932 0.17672 0.16671 0.0
H1714 H 0.89171 0.12409 0.13906 0.0
H1715 H 0.85145 0.13519 0.1162 0.0
C1716 C 0.13569 0.6506 0.33784 0.0
C1717 C 0.14556 0.68455 0.35445 0.0
C1718 C 0.09973 0.71636 0.31745 0.0
C1719 C 0.09511 0.68396 0.29639 0.0
N1720 N 0.10811 0.61998 0.28546 0.0
N1721 N 0.13693 0.74971 0.36165 0.0
C1722 C 0.11228 0.65073 0.30676 0.0
C1723 C 0.12717 0.71743 0.34507 0.0
N1724 N 0.14902 0.61836 0.3515 0.0
N1725 N 0.07777 0.74592 0.31075 0.0
H1726 H 0.15579 0.75094 0.38315 0.0
H1727 H 0.12766 0.77533 0.35315 0.0
H1728 H 0.05726 0.74525 0.29079 0.0
H1729 H 0.0776 0.76961 0.32684 0.0
H1730 H 0.14032 0.59259 0.34267 0.0
H1731 H 0.16646 0.61716 0.37408 0.0
H1732 H 0.12386 0.59636 0.28838 0.0
H1733 H 0.08997 0.61866 0.26337 0.0
C1734 C 0.33226 0.34351 0.82092 0.0
C1735 C 0.32345 0.31797 0.8487 0.0
C1736 C 0.37238 0.27704 0.82826 0.0
C1737 C 0.38084 0.30257 0.80039 0.0
N1738 N 0.3766 0.36382 0.77617 0.0
N1739 N 0.33825 0.26392 0.8838 0.0
C1740 C 0.3635 0.33724 0.799 0.0
C1741 C 0.34475 0.28589 0.85416 0.0
N1742 N 0.30949 0.37242 0.81396 0.0
N1743 N 0.38974 0.24382 0.82875 0.0
H1744 H 0.31727 0.26904 0.90248 0.0
H1745 H 0.3549 0.24201 0.89124 0.0
H1746 H 0.41147 0.23771 0.81118 0.0
H1747 H 0.38196 0.22202 0.84538 0.0
H1748 H 0.31197 0.38919 0.791 0.0
H1749 H 0.2863 0.37806 0.82961 0.0
H1750 H 0.36695 0.39072 0.77615 0.0
H1751 H 0.39966 0.35985 0.75988 0.0
C1752 C 0.63496 0.60564 0.71916 0.0
C1753 C 0.64836 0.58163 0.74641 0.0
C1754 C 0.61005 0.61071 0.79273 0.0
C1755 C 0.60277 0.63935 0.76738 0.0
N1756 N 0.60264 0.66223 0.70527 0.0
N1757 N 0.63419 0.54928 0.80192 0.0
C1758 C 0.61279 0.63582 0.72986 0.0
C1759 C 0.63098 0.58006 0.78095 0.0
N1760 N 0.6449 0.59964 0.6835 0.0
N1761 N 0.59911 0.61399 0.82846 0.0
H1762 H 0.64683 0.52555 0.7921 0.0
H1763 H 0.62051 0.54551 0.82667 0.0
H1764 H 0.58314 0.63576 0.83783 0.0
H1765 H 0.60743 0.59629 0.84922 0.0
H1766 H 0.63578 0.61504 0.66133 0.0
H1767 H 0.66086 0.57698 0.67615 0.0
H1768 H 0.61118 0.66298 0.67806 0.0
H1769 H 0.58582 0.68427 0.71236 0.0
C1770 C 0.1526 0.85087 0.23233 0.0
C1771 C 0.17153 0.87046 0.20475 0.0
C1772 C 0.1379 0.83797 0.15646 0.0
C1773 C 0.12094 0.81664 0.184 0.0
N1774 N 0.10505 0.80695 0.24737 0.0
N1775 N 0.1767 0.88973 0.14155 0.0
C1776 C 0.12586 0.82466 0.22179 0.0
C1777 C 0.162 0.86662 0.1671 0.0
N1778 N 0.16144 0.85655 0.2684 0.0
N1779 N 0.13272 0.8292 0.12025 0.0
H1780 H 0.1955 0.91021 0.14801 0.0
H1781 H 0.16829 0.89069 0.11427 0.0
H1782 H 0.1144 0.80902 0.1115 0.0
H1783 H 0.14779 0.84041 0.09886 0.0
H1784 H 0.15215 0.84041 0.28995 0.0
H1785 H 0.17918 0.87744 0.27669 0.0
H1786 H 0.10491 0.81353 0.27518 0.0
H1787 H 0.08581 0.78699 0.24032 0.0
C1788 C 0.32909 0.09399 0.6899 0.0
C1789 C 0.30328 0.10047 0.71806 0.0
C1790 C 0.34013 0.15035 0.74308 0.0
C1791 C 0.36367 0.14659 0.71248 0.0
N1792 N 0.38978 0.10572 0.66676 0.0
N1793 N 0.28944 0.12513 0.77778 0.0
C1794 C 0.36151 0.11513 0.68941 0.0
C1795 C 0.31075 0.12542 0.74699 0.0
N1796 N 0.32144 0.06978 0.66215 0.0
N1797 N 0.34548 0.17847 0.76749 0.0
H1798 H 0.26823 0.10629 0.78111 0.0
H1799 H 0.29451 0.14105 0.80102 0.0
H1800 H 0.36854 0.1953 0.76646 0.0
H1801 H 0.3271 0.18555 0.78812 0.0
H1802 H 0.33684 0.06779 0.63818 0.0
H1803 H 0.29834 0.05307 0.66201 0.0
H1804 H 0.39053 0.08123 0.65192 0.0
H1805 H 0.41426 0.12011 0.66553 0.0
C1806 C 0.78725 0.37136 0.31704 0.0
C1807 C 0.77684 0.38008 0.28063 0.0
C1808 C 0.82821 0.34415 0.25668 0.0
C1809 C 0.8344 0.33025 0.29251 0.0
N1810 N 0.82052 0.33023 0.35733 0.0
N1811 N 0.78772 0.37749 0.21568 0.0
C1812 C 0.81461 0.34429 0.32304 0.0
C1813 C 0.79786 0.36775 0.2504 0.0
N1814 N 0.77051 0.38892 0.3457 0.0
N1815 N 0.85172 0.33507 0.22895 0.0
H1816 H 0.76715 0.3967 0.21082 0.0
H1817 H 0.79873 0.366 0.19194 0.0
H1818 H 0.87436 0.31811 0.23299 0.0
H1819 H 0.85072 0.3466 0.20288 0.0
H1820 H 0.77816 0.38601 0.37306 0.0
H1821 H 0.75087 0.40926 0.34163 0.0
H1822 H 0.80498 0.33694 0.38028 0.0
H1823 H 0.84 0.3101 0.36281 0.0
loop_
_geom_bond_atom_site_label_1
_geom_bond_atom_site_label_2
_geom_bond_distance
_geom_bond_site_symmetry_2
_ccdc_geom_bond_type
Sc0 O3 2.025 . S
Sc0 O10 2.105 . S
Sc0 O13 2.105 . S
Sc0 O16 2.105 . S
Sc0 O19 2.105 . S
Sc1 O3 2.025 . S
Sc1 O11 2.105 . S
Sc1 O15 2.105 . S
Sc1 O17 2.105 . S
Sc1 O21 2.105 . S
Sc2 O3 2.025 . S
Sc2 O12 2.105 . S
Sc2 O14 2.105 . S
Sc2 O18 2.105 . S
Sc2 O20 2.105 . S
O3 Sc0 2.025 . S
O3 Sc1 2.025 . S
O3 Sc2 2.025 . S
C4 O10 1.268 . S
C4 O20 1.268 . S
C5 O11 1.268 . S
C5 O19 1.268 . S
C6 O12 1.268 . S
C6 O21 1.268 . S
C7 O13 1.268 . S
C7 O17 1.268 . S
C8 O14 1.268 . S
C8 O16 1.268 . S
C9 O15 1.268 . S
C9 O18 1.268 . S
O10 Sc0 2.105 . S
O10 C4 1.268 . S
O11 Sc1 2.105 . S
O11 C5 1.268 . S
O12 Sc2 2.105 . S
O12 C6 1.268 . S
O13 Sc0 2.105 . S
O13 C7 1.268 . S
O14 Sc2 2.105 . S
O14 C8 1.268 . S
O15 Sc1 2.105 . S
O15 C9 1.268 . S
O16 Sc0 2.105 . S
O16 C8 1.268 . S
O17 Sc1 2.105 . S
O17 C7 1.268 . S
O18 Sc2 2.105 . S
O18 C9 1.268 . S
O19 Sc0 2.105 . S
O19 C5 1.268 . S
O20 Sc2 2.105 . S
O20 C4 1.268 . S
O21 Sc1 2.105 . S
O21 C6 1.268 . S
Sc22 O25 2.025 . S
Sc22 O32 2.105 . S
Sc22 O35 2.105 . S
Sc22 O38 2.105 . S
Sc22 O41 2.105 . S
Sc23 O25 2.025 . S
Sc23 O33 2.105 . S
Sc23 O37 2.105 . S
Sc23 O39 2.105 . S
Sc23 O43 2.105 . S
Sc24 O25 2.025 . S
Sc24 O34 2.105 . S
Sc24 O36 2.105 . S
Sc24 O40 2.105 . S
Sc24 O42 2.105 . S
O25 Sc22 2.025 . S
O25 Sc23 2.025 . S
O25 Sc24 2.025 . S
C26 O32 1.268 . S
C26 O42 1.268 . S
C27 O33 1.268 . S
C27 O41 1.268 . S
C28 O34 1.268 . S
C28 O43 1.268 . S
C29 O35 1.268 . S
C29 O39 1.268 . S
C30 O36 1.268 . S
C30 O38 1.268 . S
C31 O37 1.268 . S
C31 O40 1.268 . S
O32 Sc22 2.105 . S
O32 C26 1.268 . S
O33 Sc23 2.105 . S
O33 C27 1.268 . S
O34 Sc24 2.105 . S
O34 C28 1.268 . S
O35 Sc22 2.105 . S
O35 C29 1.268 . S
O36 Sc24 2.105 . S
O36 C30 1.268 . S
O37 Sc23 2.105 . S
O37 C31 1.268 . S
O38 Sc22 2.105 . S
O38 C30 1.268 . S
O39 Sc23 2.105 . S
O39 C29 1.268 . S
O40 Sc24 2.105 . S
O40 C31 1.268 . S
O41 Sc22 2.105 . S
O41 C27 1.268 . S
O42 Sc24 2.105 . S
O42 C26 1.268 . S
O43 Sc23 2.105 . S
O43 C28 1.268 . S
Sc44 O47 2.025 . S
Sc44 O54 2.105 . S
Sc44 O57 2.105 . S
Sc44 O60 2.105 . S
Sc44 O63 2.105 . S
Sc45 O47 2.025 . S
Sc45 O55 2.105 . S
Sc45 O59 2.105 . S
Sc45 O61 2.105 . S
Sc45 O65 2.105 . S
Sc46 O47 2.025 . S
Sc46 O56 2.105 . S
Sc46 O58 2.105 . S
Sc46 O62 2.105 . S
Sc46 O64 2.105 . S
O47 Sc44 2.025 . S
O47 Sc45 2.025 . S
O47 Sc46 2.025 . S
C48 O54 1.268 . S
C48 O64 1.268 . S
C49 O55 1.268 . S
C49 O63 1.268 . S
C50 O56 1.262 1_565 S
C50 O65 1.266 1_565 S
C51 O57 1.268 . S
C51 O61 1.268 . S
C52 O58 1.268 . S
C52 O60 1.268 . S
C53 O59 1.268 . S
C53 O62 1.268 . S
O54 Sc44 2.105 . S
O54 C48 1.268 . S
O55 Sc45 2.105 . S
O55 C49 1.268 . S
O56 Sc46 2.105 . S
O56 C50 1.262 1_545 S
O57 Sc44 2.105 . S
O57 C51 1.268 . S
O58 Sc46 2.105 . S
O58 C52 1.268 . S
O59 Sc45 2.105 . S
O59 C53 1.268 . S
O60 Sc44 2.105 . S
O60 C52 1.268 . S
O61 Sc45 2.105 . S
O61 C51 1.268 . S
O62 Sc46 2.105 . S
O62 C53 1.268 . S
O63 Sc44 2.105 . S
O63 C49 1.268 . S
O64 Sc46 2.105 . S
O64 C48 1.268 . S
O65 Sc45 2.105 . S
O65 C50 1.266 1_545 S
Sc66 O69 2.025 . S
Sc66 O76 2.105 . S
Sc66 O79 2.105 . S
Sc66 O82 2.105 . S
Sc66 O85 2.105 . S
Sc67 O69 2.025 . S
Sc67 O77 2.105 . S
Sc67 O81 2.105 . S
Sc67 O83 2.105 . S
Sc67 O87 2.105 . S
Sc68 O69 2.025 . S
Sc68 O78 2.105 . S
Sc68 O80 2.105 . S
Sc68 O84 2.105 . S
Sc68 O86 2.105 . S
O69 Sc66 2.025 . S
O69 Sc67 2.025 . S
O69 Sc68 2.025 . S
C70 O76 1.268 . S
C70 O86 1.268 . S
C71 O77 1.268 . S
C71 O85 1.268 . S
C72 O78 1.268 . S
C72 O87 1.268 . S
C73 O79 1.262 1_545 S
C73 O83 1.266 1_545 S
C74 O80 1.268 . S
C74 O82 1.268 . S
C75 O81 1.268 . S
C75 O84 1.268 . S
O76 Sc66 2.105 . S
O76 C70 1.268 . S
O77 Sc67 2.105 . S
O77 C71 1.268 . S
O78 Sc68 2.105 . S
O78 C72 1.268 . S
O79 Sc66 2.105 . S
O79 C73 1.262 1_565 S
O80 Sc68 2.105 . S
O80 C74 1.268 . S
O81 Sc67 2.105 . S
O81 C75 1.268 . S
O82 Sc66 2.105 . S
O82 C74 1.268 . S
O83 Sc67 2.105 . S
O83 C73 1.266 1_565 S
O84 Sc68 2.105 . S
O84 C75 1.268 . S
O85 Sc66 2.105 . S
O85 C71 1.268 . S
O86 Sc68 2.105 . S
O86 C70 1.268 . S
O87 Sc67 2.105 . S
O87 C72 1.268 . S
Sc88 O91 2.025 . S
Sc88 O98 2.105 . S
Sc88 O101 2.105 . S
Sc88 O104 2.105 . S
Sc88 O107 2.105 . S
Sc89 O91 2.025 . S
Sc89 O99 2.105 . S
Sc89 O103 2.105 . S
Sc89 O105 2.105 . S
Sc89 O109 2.105 . S
Sc90 O91 2.025 . S
Sc90 O100 2.105 . S
Sc90 O102 2.105 . S
Sc90 O106 2.105 . S
Sc90 O108 2.105 . S
O91 Sc88 2.025 . S
O91 Sc89 2.025 . S
O91 Sc90 2.025 . S
C92 O98 1.268 . S
C92 O108 1.268 . S
C93 O99 1.268 . S
C93 O107 1.268 . S
C94 O100 1.268 . S
C94 O109 1.268 . S
C95 O101 1.268 . S
C95 O105 1.268 . S
C96 O102 1.268 . S
C96 O104 1.268 . S
C97 O103 1.268 . S
C97 O106 1.268 . S
O98 Sc88 2.105 . S
O98 C92 1.268 . S
O99 Sc89 2.105 . S
O99 C93 1.268 . S
O100 Sc90 2.105 . S
O100 C94 1.268 . S
O101 Sc88 2.105 . S
O101 C95 1.268 . S
O102 Sc90 2.105 . S
O102 C96 1.268 . S
O103 Sc89 2.105 . S
O103 C97 1.268 . S
O104 Sc88 2.105 . S
O104 C96 1.268 . S
O105 Sc89 2.105 . S
O105 C95 1.268 . S
O106 Sc90 2.105 . S
O106 C97 1.268 . S
O107 Sc88 2.105 . S
O107 C93 1.268 . S
O108 Sc90 2.105 . S
O108 C92 1.268 . S
O109 Sc89 2.105 . S
O109 C94 1.268 . S
Sc110 O113 2.025 . S
Sc110 O120 2.105 . S
Sc110 O123 2.105 . S
Sc110 O126 2.105 . S
Sc110 O129 2.105 . S
Sc111 O113 2.025 . S
Sc111 O121 2.105 . S
Sc111 O125 2.105 . S
Sc111 O127 2.105 . S
Sc111 O131 2.105 . S
Sc112 O113 2.025 . S
Sc112 O122 2.105 . S
Sc112 O124 2.105 . S
Sc112 O128 2.105 . S
Sc112 O130 2.105 . S
O113 Sc110 2.025 . S
O113 Sc111 2.025 . S
O113 Sc112 2.025 . S
C114 O120 1.268 . S
C114 O130 1.268 . S
C115 O121 1.268 . S
C115 O129 1.268 . S
C116 O122 1.262 1_554 S
C116 O131 1.266 1_554 S
C117 O123 1.268 . S
C117 O127 1.268 . S
C118 O124 1.268 . S
C118 O126 1.268 . S
C119 O125 1.268 . S
C119 O128 1.268 . S
O120 Sc110 2.105 . S
O120 C114 1.268 . S
O121 Sc111 2.105 . S
O121 C115 1.268 . S
O122 Sc112 2.105 . S
O122 C116 1.262 1_556 S
O123 Sc110 2.105 . S
O123 C117 1.268 . S
O124 Sc112 2.105 . S
O124 C118 1.268 . S
O125 Sc111 2.105 . S
O125 C119 1.268 . S
O126 Sc110 2.105 . S
O126 C118 1.268 . S
O127 Sc111 2.105 . S
O127 C117 1.268 . S
O128 Sc112 2.105 . S
O128 C119 1.268 . S
O129 Sc110 2.105 . S
O129 C115 1.268 . S
O130 Sc112 2.105 . S
O130 C114 1.268 . S
O131 Sc111 2.105 . S
O131 C116 1.266 1_556 S
Sc132 O135 2.025 . S
Sc132 O142 2.105 . S
Sc132 O145 2.105 . S
Sc132 O148 2.105 . S
Sc132 O151 2.105 . S
Sc133 O135 2.025 . S
Sc133 O143 2.105 . S
Sc133 O147 2.105 . S
Sc133 O149 2.105 . S
Sc133 O153 2.105 . S
Sc134 O135 2.025 . S
Sc134 O144 2.105 . S
Sc134 O146 2.105 . S
Sc134 O150 2.105 . S
Sc134 O152 2.105 . S
O135 Sc132 2.025 . S
O135 Sc133 2.025 . S
O135 Sc134 2.025 . S
C136 O142 1.268 . S
C136 O152 1.268 . S
C137 O143 1.268 . S
C137 O151 1.268 . S
C138 O144 1.268 . S
C138 O153 1.268 . S
C139 O145 1.268 . S
C139 O149 1.268 . S
C140 O146 1.268 . S
C140 O148 1.268 . S
C141 O147 1.268 . S
C141 O150 1.268 . S
O142 Sc132 2.105 . S
O142 C136 1.268 . S
O143 Sc133 2.105 . S
O143 C137 1.268 . S
O144 Sc134 2.105 . S
O144 C138 1.268 . S
O145 Sc132 2.105 . S
O145 C139 1.268 . S
O146 Sc134 2.105 . S
O146 C140 1.268 . S
O147 Sc133 2.105 . S
O147 C141 1.268 . S
O148 Sc132 2.105 . S
O148 C140 1.268 . S
O149 Sc133 2.105 . S
O149 C139 1.268 . S
O150 Sc134 2.105 . S
O150 C141 1.268 . S
O151 Sc132 2.105 . S
O151 C137 1.268 . S
O152 Sc134 2.105 . S
O152 C136 1.268 . S
O153 Sc133 2.105 . S
O153 C138 1.268 . S
Sc154 O157 2.025 . S
Sc154 O164 2.105 . S
Sc154 O167 2.105 . S
Sc154 O170 2.105 . S
Sc154 O173 2.105 . S
Sc155 O157 2.025 . S
Sc155 O165 2.105 . S
Sc155 O169 2.105 . S
Sc155 O171 2.105 . S
Sc155 O175 2.105 . S
Sc156 O157 2.025 . S
Sc156 O166 2.105 . S
Sc156 O168 2.105 . S
Sc156 O172 2.105 . S
Sc156 O174 2.105 . S
O157 Sc154 2.025 . S
O157 Sc155 2.025 . S
O157 Sc156 2.025 . S
C158 O164 1.268 . S
C158 O174 1.268 . S
C159 O165 1.268 . S
C159 O173 1.268 . S
C160 O166 1.268 . S
C160 O175 1.268 . S
C161 O167 1.262 1_556 S
C161 O171 1.266 1_556 S
C162 O168 1.268 . S
C162 O170 1.268 . S
C163 O169 1.268 . S
C163 O172 1.268 . S
O164 Sc154 2.105 . S
O164 C158 1.268 . S
O165 Sc155 2.105 . S
O165 C159 1.268 . S
O166 Sc156 2.105 . S
O166 C160 1.268 . S
O167 Sc154 2.105 . S
O167 C161 1.262 1_554 S
O168 Sc156 2.105 . S
O168 C162 1.268 . S
O169 Sc155 2.105 . S
O169 C163 1.268 . S
O170 Sc154 2.105 . S
O170 C162 1.268 . S
O171 Sc155 2.105 . S
O171 C161 1.266 1_554 S
O172 Sc156 2.105 . S
O172 C163 1.268 . S
O173 Sc154 2.105 . S
O173 C159 1.268 . S
O174 Sc156 2.105 . S
O174 C158 1.268 . S
O175 Sc155 2.105 . S
O175 C160 1.268 . S
Sc176 O179 2.025 . S
Sc176 O186 2.105 . S
Sc176 O189 2.105 . S
Sc176 O192 2.105 . S
Sc176 O195 2.105 . S
Sc177 O179 2.025 . S
Sc177 O187 2.105 . S
Sc177 O191 2.105 . S
Sc177 O193 2.105 . S
Sc177 O197 2.105 . S
Sc178 O179 2.025 . S
Sc178 O188 2.105 . S
Sc178 O190 2.105 . S
Sc178 O194 2.105 . S
Sc178 O196 2.105 . S
O179 Sc176 2.025 . S
O179 Sc177 2.025 . S
O179 Sc178 2.025 . S
C180 O186 1.268 . S
C180 O196 1.268 . S
C181 O187 1.268 . S
C181 O195 1.268 . S
C182 O188 1.268 . S
C182 O197 1.268 . S
C183 O189 1.268 . S
C183 O193 1.268 . S
C184 O190 1.268 . S
C184 O192 1.268 . S
C185 O191 1.268 . S
C185 O194 1.268 . S
O186 Sc176 2.105 . S
O186 C180 1.268 . S
O187 Sc177 2.105 . S
O187 C181 1.268 . S
O188 Sc178 2.105 . S
O188 C182 1.268 . S
O189 Sc176 2.105 . S
O189 C183 1.268 . S
O190 Sc178 2.105 . S
O190 C184 1.268 . S
O191 Sc177 2.105 . S
O191 C185 1.268 . S
O192 Sc176 2.105 . S
O192 C184 1.268 . S
O193 Sc177 2.105 . S
O193 C183 1.268 . S
O194 Sc178 2.105 . S
O194 C185 1.268 . S
O195 Sc176 2.105 . S
O195 C181 1.268 . S
O196 Sc178 2.105 . S
O196 C180 1.268 . S
O197 Sc177 2.105 . S
O197 C182 1.268 . S
Sc198 O201 2.025 . S
Sc198 O208 2.105 . S
Sc198 O211 2.105 . S
Sc198 O214 2.105 . S
Sc198 O217 2.105 . S
Sc199 O201 2.025 . S
Sc199 O209 2.105 . S
Sc199 O213 2.105 . S
Sc199 O215 2.105 . S
Sc199 O219 2.105 . S
Sc200 O201 2.025 . S
Sc200 O210 2.105 . S
Sc200 O212 2.105 . S
Sc200 O216 2.105 . S
Sc200 O218 2.105 . S
O201 Sc198 2.025 . S
O201 Sc199 2.025 . S
O201 Sc200 2.025 . S
C202 O208 1.268 . S
C202 O218 1.268 . S
C203 O209 1.268 . S
C203 O217 1.268 . S
C204 O210 1.268 . S
C204 O219 1.268 . S
C205 O211 1.262 1_455 S
C205 O215 1.266 1_455 S
C206 O212 1.268 . S
C206 O214 1.268 . S
C207 O213 1.268 . S
C207 O216 1.268 . S
O208 Sc198 2.105 . S
O208 C202 1.268 . S
O209 Sc199 2.105 . S
O209 C203 1.268 . S
O210 Sc200 2.105 . S
O210 C204 1.268 . S
O211 Sc198 2.105 . S
O211 C205 1.262 1_655 S
O212 Sc200 2.105 . S
O212 C206 1.268 . S
O213 Sc199 2.105 . S
O213 C207 1.268 . S
O214 Sc198 2.105 . S
O214 C206 1.268 . S
O215 Sc199 2.105 . S
O215 C205 1.266 1_655 S
O216 Sc200 2.105 . S
O216 C207 1.268 . S
O217 Sc198 2.105 . S
O217 C203 1.268 . S
O218 Sc200 2.105 . S
O218 C202 1.268 . S
O219 Sc199 2.105 . S
O219 C204 1.268 . S
Sc220 O223 2.025 . S
Sc220 O230 2.105 . S
Sc220 O233 2.105 . S
Sc220 O236 2.105 . S
Sc220 O239 2.105 . S
Sc221 O223 2.025 . S
Sc221 O231 2.105 . S
Sc221 O235 2.105 . S
Sc221 O237 2.105 . S
Sc221 O241 2.105 . S
Sc222 O223 2.025 . S
Sc222 O232 2.105 . S
Sc222 O234 2.105 . S
Sc222 O238 2.105 . S
Sc222 O240 2.105 . S
O223 Sc220 2.025 . S
O223 Sc221 2.025 . S
O223 Sc222 2.025 . S
C224 O230 1.268 . S
C224 O240 1.268 . S
C225 O231 1.268 . S
C225 O239 1.268 . S
C226 O232 1.268 . S
C226 O241 1.268 . S
C227 O233 1.268 . S
C227 O237 1.268 . S
C228 O234 1.268 . S
C228 O236 1.268 . S
C229 O235 1.268 . S
C229 O238 1.268 . S
O230 Sc220 2.105 . S
O230 C224 1.268 . S
O231 Sc221 2.105 . S
O231 C225 1.268 . S
O232 Sc222 2.105 . S
O232 C226 1.268 . S
O233 Sc220 2.105 . S
O233 C227 1.268 . S
O234 Sc222 2.105 . S
O234 C228 1.268 . S
O235 Sc221 2.105 . S
O235 C229 1.268 . S
O236 Sc220 2.105 . S
O236 C228 1.268 . S
O237 Sc221 2.105 . S
O237 C227 1.268 . S
O238 Sc222 2.105 . S
O238 C229 1.268 . S
O239 Sc220 2.105 . S
O239 C225 1.268 . S
O240 Sc222 2.105 . S
O240 C224 1.268 . S
O241 Sc221 2.105 . S
O241 C226 1.268 . S
Sc242 O245 2.025 . S
Sc242 O252 2.105 . S
Sc242 O255 2.105 . S
Sc242 O258 2.105 . S
Sc242 O261 2.105 . S
Sc243 O245 2.025 . S
Sc243 O253 2.105 . S
Sc243 O257 2.105 . S
Sc243 O259 2.105 . S
Sc243 O263 2.105 . S
Sc244 O245 2.025 . S
Sc244 O254 2.105 . S
Sc244 O256 2.105 . S
Sc244 O260 2.105 . S
Sc244 O262 2.105 . S
O245 Sc242 2.025 . S
O245 Sc243 2.025 . S
O245 Sc244 2.025 . S
C246 O252 1.268 . S
C246 O262 1.268 . S
C247 O253 1.268 . S
C247 O261 1.268 . S
C248 O254 1.262 1_655 S
C248 O263 1.266 1_655 S
C249 O255 1.268 . S
C249 O259 1.268 . S
C250 O256 1.268 . S
C250 O258 1.268 . S
C251 O257 1.268 . S
C251 O260 1.268 . S
O252 Sc242 2.105 . S
O252 C246 1.268 . S
O253 Sc243 2.105 . S
O253 C247 1.268 . S
O254 Sc244 2.105 . S
O254 C248 1.262 1_455 S
O255 Sc242 2.105 . S
O255 C249 1.268 . S
O256 Sc244 2.105 . S
O256 C250 1.268 . S
O257 Sc243 2.105 . S
O257 C251 1.268 . S
O258 Sc242 2.105 . S
O258 C250 1.268 . S
O259 Sc243 2.105 . S
O259 C249 1.268 . S
O260 Sc244 2.105 . S
O260 C251 1.268 . S
O261 Sc242 2.105 . S
O261 C247 1.268 . S
O262 Sc244 2.105 . S
O262 C246 1.268 . S
O263 Sc243 2.105 . S
O263 C248 1.266 1_455 S
Sc264 O267 2.025 . S
Sc264 O274 2.105 . S
Sc264 O277 2.105 . S
Sc264 O280 2.105 . S
Sc264 O283 2.105 . S
Sc265 O267 2.025 . S
Sc265 O275 2.105 . S
Sc265 O279 2.105 . S
Sc265 O281 2.105 . S
Sc265 O285 2.105 . S
Sc266 O267 2.025 . S
Sc266 O276 2.105 . S
Sc266 O278 2.105 . S
Sc266 O282 2.105 . S
Sc266 O284 2.105 . S
O267 Sc264 2.025 . S
O267 Sc265 2.025 . S
O267 Sc266 2.025 . S
C268 O274 1.268 . S
C268 O284 1.268 . S
C269 O275 1.268 . S
C269 O283 1.268 . S
C270 O276 1.268 . S
C270 O285 1.268 . S
C271 O277 1.268 . S
C271 O281 1.268 . S
C272 O278 1.268 . S
C272 O280 1.268 . S
C273 O279 1.268 . S
C273 O282 1.268 . S
O274 Sc264 2.105 . S
O274 C268 1.268 . S
O275 Sc265 2.105 . S
O275 C269 1.268 . S
O276 Sc266 2.105 . S
O276 C270 1.268 . S
O277 Sc264 2.105 . S
O277 C271 1.268 . S
O278 Sc266 2.105 . S
O278 C272 1.268 . S
O279 Sc265 2.105 . S
O279 C273 1.268 . S
O280 Sc264 2.105 . S
O280 C272 1.268 . S
O281 Sc265 2.105 . S
O281 C271 1.268 . S
O282 Sc266 2.105 . S
O282 C273 1.268 . S
O283 Sc264 2.105 . S
O283 C269 1.268 . S
O284 Sc266 2.105 . S
O284 C268 1.268 . S
O285 Sc265 2.105 . S
O285 C270 1.268 . S
Sc286 O289 2.025 . S
Sc286 O296 2.105 . S
Sc286 O299 2.105 . S
Sc286 O302 2.105 . S
Sc286 O305 2.105 . S
Sc287 O289 2.025 . S
Sc287 O297 2.105 . S
Sc287 O301 2.105 . S
Sc287 O303 2.105 . S
Sc287 O307 2.105 . S
Sc288 O289 2.025 . S
Sc288 O298 2.105 . S
Sc288 O300 2.105 . S
Sc288 O304 2.105 . S
Sc288 O306 2.105 . S
O289 Sc286 2.025 . S
O289 Sc287 2.025 . S
O289 Sc288 2.025 . S
C290 O296 1.268 . S
C290 O306 1.268 . S
C291 O297 1.268 . S
C291 O305 1.268 . S
C292 O298 1.268 . S
C292 O307 1.268 . S
C293 O299 1.268 . S
C293 O303 1.268 . S
C294 O300 1.268 . S
C294 O302 1.268 . S
C295 O301 1.268 . S
C295 O304 1.268 . S
O296 Sc286 2.105 . S
O296 C290 1.268 . S
O297 Sc287 2.105 . S
O297 C291 1.268 . S
O298 Sc288 2.105 . S
O298 C292 1.268 . S
O299 Sc286 2.105 . S
O299 C293 1.268 . S
O300 Sc288 2.105 . S
O300 C294 1.268 . S
O301 Sc287 2.105 . S
O301 C295 1.268 . S
O302 Sc286 2.105 . S
O302 C294 1.268 . S
O303 Sc287 2.105 . S
O303 C293 1.268 . S
O304 Sc288 2.105 . S
O304 C295 1.268 . S
O305 Sc286 2.105 . S
O305 C291 1.268 . S
O306 Sc288 2.105 . S
O306 C290 1.268 . S
O307 Sc287 2.105 . S
O307 C292 1.268 . S
Sc308 O311 2.025 . S
Sc308 O318 2.105 . S
Sc308 O321 2.105 . S
Sc308 O324 2.105 . S
Sc308 O327 2.105 . S
Sc309 O311 2.025 . S
Sc309 O319 2.105 . S
Sc309 O323 2.105 . S
Sc309 O325 2.105 . S
Sc309 O329 2.105 . S
Sc310 O311 2.025 . S
Sc310 O320 2.105 . S
Sc310 O322 2.105 . S
Sc310 O326 2.105 . S
Sc310 O328 2.105 . S
O311 Sc308 2.025 . S
O311 Sc309 2.025 . S
O311 Sc310 2.025 . S
C312 O318 1.268 . S
C312 O328 1.268 . S
C313 O319 1.268 . S
C313 O327 1.268 . S
C314 O320 1.268 . S
C314 O329 1.268 . S
C315 O321 1.268 . S
C315 O325 1.268 . S
C316 O322 1.268 . S
C316 O324 1.268 . S
C317 O323 1.266 1_545 S
C317 O326 1.262 1_545 S
O318 Sc308 2.105 . S
O318 C312 1.268 . S
O319 Sc309 2.105 . S
O319 C313 1.268 . S
O320 Sc310 2.105 . S
O320 C314 1.268 . S
O321 Sc308 2.105 . S
O321 C315 1.268 . S
O322 Sc310 2.105 . S
O322 C316 1.268 . S
O323 Sc309 2.105 . S
O323 C317 1.266 1_565 S
O324 Sc308 2.105 . S
O324 C316 1.268 . S
O325 Sc309 2.105 . S
O325 C315 1.268 . S
O326 Sc310 2.105 . S
O326 C317 1.262 1_565 S
O327 Sc308 2.105 . S
O327 C313 1.268 . S
O328 Sc310 2.105 . S
O328 C312 1.268 . S
O329 Sc309 2.105 . S
O329 C314 1.268 . S
Sc330 O333 2.025 . S
Sc330 O340 2.105 . S
Sc330 O343 2.105 . S
Sc330 O346 2.105 . S
Sc330 O349 2.105 . S
Sc331 O333 2.025 . S
Sc331 O341 2.105 . S
Sc331 O345 2.105 . S
Sc331 O347 2.105 . S
Sc331 O351 2.105 . S
Sc332 O333 2.025 . S
Sc332 O342 2.105 . S
Sc332 O344 2.105 . S
Sc332 O348 2.105 . S
Sc332 O350 2.105 . S
O333 Sc330 2.025 . S
O333 Sc331 2.025 . S
O333 Sc332 2.025 . S
C334 O340 1.268 . S
C334 O350 1.268 . S
C335 O341 1.268 . S
C335 O349 1.268 . S
C336 O342 1.268 . S
C336 O351 1.268 . S
C337 O343 1.268 . S
C337 O347 1.268 . S
C338 O344 1.268 . S
C338 O346 1.268 . S
C339 O345 1.266 1_565 S
C339 O348 1.262 1_565 S
O340 Sc330 2.105 . S
O340 C334 1.268 . S
O341 Sc331 2.105 . S
O341 C335 1.268 . S
O342 Sc332 2.105 . S
O342 C336 1.268 . S
O343 Sc330 2.105 . S
O343 C337 1.268 . S
O344 Sc332 2.105 . S
O344 C338 1.268 . S
O345 Sc331 2.105 . S
O345 C339 1.266 1_545 S
O346 Sc330 2.105 . S
O346 C338 1.268 . S
O347 Sc331 2.105 . S
O347 C337 1.268 . S
O348 Sc332 2.105 . S
O348 C339 1.262 1_545 S
O349 Sc330 2.105 . S
O349 C335 1.268 . S
O350 Sc332 2.105 . S
O350 C334 1.268 . S
O351 Sc331 2.105 . S
O351 C336 1.268 . S
Sc352 O355 2.025 . S
Sc352 O362 2.105 . S
Sc352 O365 2.105 . S
Sc352 O368 2.105 . S
Sc352 O371 2.105 . S
Sc353 O355 2.025 . S
Sc353 O363 2.105 . S
Sc353 O367 2.105 . S
Sc353 O369 2.105 . S
Sc353 O373 2.105 . S
Sc354 O355 2.025 . S
Sc354 O364 2.105 . S
Sc354 O366 2.105 . S
Sc354 O370 2.105 . S
Sc354 O372 2.105 . S
O355 Sc352 2.025 . S
O355 Sc353 2.025 . S
O355 Sc354 2.025 . S
C356 O362 1.268 . S
C356 O372 1.268 . S
C357 O363 1.268 . S
C357 O371 1.268 . S
C358 O364 1.268 . S
C358 O373 1.268 . S
C359 O365 1.268 . S
C359 O369 1.268 . S
C360 O366 1.268 . S
C360 O368 1.268 . S
C361 O367 1.268 . S
C361 O370 1.268 . S
O362 Sc352 2.105 . S
O362 C356 1.268 . S
O363 Sc353 2.105 . S
O363 C357 1.268 . S
O364 Sc354 2.105 . S
O364 C358 1.268 . S
O365 Sc352 2.105 . S
O365 C359 1.268 . S
O366 Sc354 2.105 . S
O366 C360 1.268 . S
O367 Sc353 2.105 . S
O367 C361 1.268 . S
O368 Sc352 2.105 . S
O368 C360 1.268 . S
O369 Sc353 2.105 . S
O369 C359 1.268 . S
O370 Sc354 2.105 . S
O370 C361 1.268 . S
O371 Sc352 2.105 . S
O371 C357 1.268 . S
O372 Sc354 2.105 . S
O372 C356 1.268 . S
O373 Sc353 2.105 . S
O373 C358 1.268 . S
Sc374 O377 2.025 . S
Sc374 O384 2.105 . S
Sc374 O387 2.105 . S
Sc374 O390 2.105 . S
Sc374 O393 2.105 . S
Sc375 O377 2.025 . S
Sc375 O385 2.105 . S
Sc375 O389 2.105 . S
Sc375 O391 2.105 . S
Sc375 O395 2.105 . S
Sc376 O377 2.025 . S
Sc376 O386 2.105 . S
Sc376 O388 2.105 . S
Sc376 O392 2.105 . S
Sc376 O394 2.105 . S
O377 Sc374 2.025 . S
O377 Sc375 2.025 . S
O377 Sc376 2.025 . S
C378 O384 1.268 . S
C378 O394 1.268 . S
C379 O385 1.266 1_556 S
C379 O393 1.262 1_556 S
C380 O386 1.268 . S
C380 O395 1.268 . S
C381 O387 1.268 . S
C381 O391 1.268 . S
C382 O388 1.268 . S
C382 O390 1.268 . S
C383 O389 1.268 . S
C383 O392 1.268 . S
O384 Sc374 2.105 . S
O384 C378 1.268 . S
O385 Sc375 2.105 . S
O385 C379 1.266 1_554 S
O386 Sc376 2.105 . S
O386 C380 1.268 . S
O387 Sc374 2.105 . S
O387 C381 1.268 . S
O388 Sc376 2.105 . S
O388 C382 1.268 . S
O389 Sc375 2.105 . S
O389 C383 1.268 . S
O390 Sc374 2.105 . S
O390 C382 1.268 . S
O391 Sc375 2.105 . S
O391 C381 1.268 . S
O392 Sc376 2.105 . S
O392 C383 1.268 . S
O393 Sc374 2.105 . S
O393 C379 1.262 1_554 S
O394 Sc376 2.105 . S
O394 C378 1.268 . S
O395 Sc375 2.105 . S
O395 C380 1.268 . S
Sc396 O399 2.025 . S
Sc396 O406 2.105 . S
Sc396 O409 2.105 . S
Sc396 O412 2.105 . S
Sc396 O415 2.105 . S
Sc397 O399 2.025 . S
Sc397 O407 2.105 . S
Sc397 O411 2.105 . S
Sc397 O413 2.105 . S
Sc397 O417 2.105 . S
Sc398 O399 2.025 . S
Sc398 O408 2.105 . S
Sc398 O410 2.105 . S
Sc398 O414 2.105 . S
Sc398 O416 2.105 . S
O399 Sc396 2.025 . S
O399 Sc397 2.025 . S
O399 Sc398 2.025 . S
C400 O406 1.268 . S
C400 O416 1.268 . S
C401 O407 1.268 . S
C401 O415 1.268 . S
C402 O408 1.268 . S
C402 O417 1.268 . S
C403 O409 1.268 . S
C403 O413 1.268 . S
C404 O410 1.268 . S
C404 O412 1.268 . S
C405 O411 1.268 . S
C405 O414 1.268 . S
O406 Sc396 2.105 . S
O406 C400 1.268 . S
O407 Sc397 2.105 . S
O407 C401 1.268 . S
O408 Sc398 2.105 . S
O408 C402 1.268 . S
O409 Sc396 2.105 . S
O409 C403 1.268 . S
O410 Sc398 2.105 . S
O410 C404 1.268 . S
O411 Sc397 2.105 . S
O411 C405 1.268 . S
O412 Sc396 2.105 . S
O412 C404 1.268 . S
O413 Sc397 2.105 . S
O413 C403 1.268 . S
O414 Sc398 2.105 . S
O414 C405 1.268 . S
O415 Sc396 2.105 . S
O415 C401 1.268 . S
O416 Sc398 2.105 . S
O416 C400 1.268 . S
O417 Sc397 2.105 . S
O417 C402 1.268 . S
Sc418 O421 2.025 . S
Sc418 O428 2.105 . S
Sc418 O431 2.105 . S
Sc418 O434 2.105 . S
Sc418 O437 2.105 . S
Sc419 O421 2.025 . S
Sc419 O429 2.105 . S
Sc419 O433 2.105 . S
Sc419 O435 2.105 . S
Sc419 O439 2.105 . S
Sc420 O421 2.025 . S
Sc420 O430 2.105 . S
Sc420 O432 2.105 . S
Sc420 O436 2.105 . S
Sc420 O438 2.105 . S
O421 Sc418 2.025 . S
O421 Sc419 2.025 . S
O421 Sc420 2.025 . S
C422 O428 1.268 . S
C422 O438 1.268 . S
C423 O429 1.266 1_554 S
C423 O437 1.262 1_554 S
C424 O430 1.268 . S
C424 O439 1.268 . S
C425 O431 1.268 . S
C425 O435 1.268 . S
C426 O432 1.268 . S
C426 O434 1.268 . S
C427 O433 1.268 . S
C427 O436 1.268 . S
O428 Sc418 2.105 . S
O428 C422 1.268 . S
O429 Sc419 2.105 . S
O429 C423 1.266 1_556 S
O430 Sc420 2.105 . S
O430 C424 1.268 . S
O431 Sc418 2.105 . S
O431 C425 1.268 . S
O432 Sc420 2.105 . S
O432 C426 1.268 . S
O433 Sc419 2.105 . S
O433 C427 1.268 . S
O434 Sc418 2.105 . S
O434 C426 1.268 . S
O435 Sc419 2.105 . S
O435 C425 1.268 . S
O436 Sc420 2.105 . S
O436 C427 1.268 . S
O437 Sc418 2.105 . S
O437 C423 1.262 1_556 S
O438 Sc420 2.105 . S
O438 C422 1.268 . S
O439 Sc419 2.105 . S
O439 C424 1.268 . S
Sc440 O443 2.025 . S
Sc440 O450 2.105 . S
Sc440 O453 2.105 . S
Sc440 O456 2.105 . S
Sc440 O459 2.105 . S
Sc441 O443 2.025 . S
Sc441 O451 2.105 . S
Sc441 O455 2.105 . S
Sc441 O457 2.105 . S
Sc441 O461 2.105 . S
Sc442 O443 2.025 . S
Sc442 O452 2.105 . S
Sc442 O454 2.105 . S
Sc442 O458 2.105 . S
Sc442 O460 2.105 . S
O443 Sc440 2.025 . S
O443 Sc441 2.025 . S
O443 Sc442 2.025 . S
C444 O450 1.268 . S
C444 O460 1.268 . S
C445 O451 1.268 . S
C445 O459 1.268 . S
C446 O452 1.268 . S
C446 O461 1.268 . S
C447 O453 1.268 . S
C447 O457 1.268 . S
C448 O454 1.268 . S
C448 O456 1.268 . S
C449 O455 1.268 . S
C449 O458 1.268 . S
O450 Sc440 2.105 . S
O450 C444 1.268 . S
O451 Sc441 2.105 . S
O451 C445 1.268 . S
O452 Sc442 2.105 . S
O452 C446 1.268 . S
O453 Sc440 2.105 . S
O453 C447 1.268 . S
O454 Sc442 2.105 . S
O454 C448 1.268 . S
O455 Sc441 2.105 . S
O455 C449 1.268 . S
O456 Sc440 2.105 . S
O456 C448 1.268 . S
O457 Sc441 2.105 . S
O457 C447 1.268 . S
O458 Sc442 2.105 . S
O458 C449 1.268 . S
O459 Sc440 2.105 . S
O459 C445 1.268 . S
O460 Sc442 2.105 . S
O460 C444 1.268 . S
O461 Sc441 2.105 . S
O461 C446 1.268 . S
Sc462 O465 2.025 . S
Sc462 O472 2.105 . S
Sc462 O475 2.105 . S
Sc462 O478 2.105 . S
Sc462 O481 2.105 . S
Sc463 O465 2.025 . S
Sc463 O473 2.105 . S
Sc463 O477 2.105 . S
Sc463 O479 2.105 . S
Sc463 O483 2.105 . S
Sc464 O465 2.025 . S
Sc464 O474 2.105 . S
Sc464 O476 2.105 . S
Sc464 O480 2.105 . S
Sc464 O482 2.105 . S
O465 Sc462 2.025 . S
O465 Sc463 2.025 . S
O465 Sc464 2.025 . S
C466 O472 1.268 . S
C466 O482 1.268 . S
C467 O473 1.266 1_655 S
C467 O481 1.262 1_655 S
C468 O474 1.268 . S
C468 O483 1.268 . S
C469 O475 1.268 . S
C469 O479 1.268 . S
C470 O476 1.268 . S
C470 O478 1.268 . S
C471 O477 1.268 . S
C471 O480 1.268 . S
O472 Sc462 2.105 . S
O472 C466 1.268 . S
O473 Sc463 2.105 . S
O473 C467 1.266 1_455 S
O474 Sc464 2.105 . S
O474 C468 1.268 . S
O475 Sc462 2.105 . S
O475 C469 1.268 . S
O476 Sc464 2.105 . S
O476 C470 1.268 . S
O477 Sc463 2.105 . S
O477 C471 1.268 . S
O478 Sc462 2.105 . S
O478 C470 1.268 . S
O479 Sc463 2.105 . S
O479 C469 1.268 . S
O480 Sc464 2.105 . S
O480 C471 1.268 . S
O481 Sc462 2.105 . S
O481 C467 1.262 1_455 S
O482 Sc464 2.105 . S
O482 C466 1.268 . S
O483 Sc463 2.105 . S
O483 C468 1.268 . S
Sc484 O487 2.025 . S
Sc484 O494 2.105 . S
Sc484 O497 2.105 . S
Sc484 O500 2.105 . S
Sc484 O503 2.105 . S
Sc485 O487 2.025 . S
Sc485 O495 2.105 . S
Sc485 O499 2.105 . S
Sc485 O501 2.105 . S
Sc485 O505 2.105 . S
Sc486 O487 2.025 . S
Sc486 O496 2.105 . S
Sc486 O498 2.105 . S
Sc486 O502 2.105 . S
Sc486 O504 2.105 . S
O487 Sc484 2.025 . S
O487 Sc485 2.025 . S
O487 Sc486 2.025 . S
C488 O494 1.268 . S
C488 O504 1.268 . S
C489 O495 1.268 . S
C489 O503 1.268 . S
C490 O496 1.268 . S
C490 O505 1.268 . S
C491 O497 1.268 . S
C491 O501 1.268 . S
C492 O498 1.268 . S
C492 O500 1.268 . S
C493 O499 1.268 . S
C493 O502 1.268 . S
O494 Sc484 2.105 . S
O494 C488 1.268 . S
O495 Sc485 2.105 . S
O495 C489 1.268 . S
O496 Sc486 2.105 . S
O496 C490 1.268 . S
O497 Sc484 2.105 . S
O497 C491 1.268 . S
O498 Sc486 2.105 . S
O498 C492 1.268 . S
O499 Sc485 2.105 . S
O499 C493 1.268 . S
O500 Sc484 2.105 . S
O500 C492 1.268 . S
O501 Sc485 2.105 . S
O501 C491 1.268 . S
O502 Sc486 2.105 . S
O502 C493 1.268 . S
O503 Sc484 2.105 . S
O503 C489 1.268 . S
O504 Sc486 2.105 . S
O504 C488 1.268 . S
O505 Sc485 2.105 . S
O505 C490 1.268 . S
Sc506 O509 2.025 . S
Sc506 O516 2.105 . S
Sc506 O519 2.105 . S
Sc506 O522 2.105 . S
Sc506 O525 2.105 . S
Sc507 O509 2.025 . S
Sc507 O517 2.105 . S
Sc507 O521 2.105 . S
Sc507 O523 2.105 . S
Sc507 O527 2.105 . S
Sc508 O509 2.025 . S
Sc508 O518 2.105 . S
Sc508 O520 2.105 . S
Sc508 O524 2.105 . S
Sc508 O526 2.105 . S
O509 Sc506 2.025 . S
O509 Sc507 2.025 . S
O509 Sc508 2.025 . S
C510 O516 1.268 . S
C510 O526 1.268 . S
C511 O517 1.268 . S
C511 O525 1.268 . S
C512 O518 1.268 . S
C512 O527 1.268 . S
C513 O519 1.268 . S
C513 O523 1.268 . S
C514 O520 1.268 . S
C514 O522 1.268 . S
C515 O521 1.266 1_455 S
C515 O524 1.262 1_455 S
O516 Sc506 2.105 . S
O516 C510 1.268 . S
O517 Sc507 2.105 . S
O517 C511 1.268 . S
O518 Sc508 2.105 . S
O518 C512 1.268 . S
O519 Sc506 2.105 . S
O519 C513 1.268 . S
O520 Sc508 2.105 . S
O520 C514 1.268 . S
O521 Sc507 2.105 . S
O521 C515 1.266 1_655 S
O522 Sc506 2.105 . S
O522 C514 1.268 . S
O523 Sc507 2.105 . S
O523 C513 1.268 . S
O524 Sc508 2.105 . S
O524 C515 1.262 1_655 S
O525 Sc506 2.105 . S
O525 C511 1.268 . S
O526 Sc508 2.105 . S
O526 C510 1.268 . S
O527 Sc507 2.105 . S
O527 C512 1.268 . S
C528 C529 1.363 . S
C528 C534 1.379 . S
C528 N536 1.356 . S
C529 C528 1.363 . S
C529 C535 1.363 . S
C530 C531 1.363 . S
C530 C535 1.379 . S
C530 N537 1.356 . S
C531 C530 1.363 . S
C531 C534 1.363 . S
N532 C534 1.356 . S
N532 H544 0.984 . S
N532 H545 0.985 . S
N533 C535 1.356 . S
N533 H538 0.984 . S
N533 H539 0.985 . S
C534 C528 1.379 . S
C534 C531 1.363 . S
C534 N532 1.356 . S
C535 C529 1.363 . S
C535 C530 1.379 . S
C535 N533 1.356 . S
N536 C528 1.356 . S
N536 H542 0.984 . S
N536 H543 0.984 . S
N537 C530 1.356 . S
N537 H540 0.984 . S
N537 H541 0.985 . S
H538 N533 0.984 . S
H539 N533 0.985 . S
H540 N537 0.984 . S
H541 N537 0.985 . S
H542 N536 0.984 . S
H543 N536 0.984 . S
H544 N532 0.984 . S
H545 N532 0.985 . S
C546 C547 1.363 . S
C546 C552 1.379 . S
C546 N554 1.356 . S
C547 C546 1.363 . S
C547 C553 1.363 . S
C548 C549 1.363 . S
C548 C553 1.379 . S
C548 N555 1.356 . S
C549 C548 1.363 . S
C549 C552 1.363 . S
N550 C552 1.356 . S
N550 H562 0.984 . S
N550 H563 0.985 . S
N551 C553 1.356 . S
N551 H556 0.984 . S
N551 H557 0.985 . S
C552 C546 1.379 . S
C552 C549 1.363 . S
C552 N550 1.356 . S
C553 C547 1.363 . S
C553 C548 1.379 . S
C553 N551 1.356 . S
N554 C546 1.356 . S
N554 H560 0.984 . S
N554 H561 0.984 . S
N555 C548 1.356 . S
N555 H558 0.984 . S
N555 H559 0.985 . S
H556 N551 0.984 . S
H557 N551 0.985 . S
H558 N555 0.984 . S
H559 N555 0.985 . S
H560 N554 0.984 . S
H561 N554 0.984 . S
H562 N550 0.984 . S
H563 N550 0.985 . S
C564 C565 1.363 . S
C564 C570 1.379 . S
C564 N572 1.356 . S
C565 C564 1.363 . S
C565 C571 1.363 . S
C566 C567 1.363 1_545 S
C566 C571 1.379 1_545 S
C566 N573 1.356 . S
C567 C566 1.363 1_565 S
C567 C570 1.363 . S
N568 C570 1.356 . S
N568 H580 0.984 . S
N568 H581 0.985 . S
N569 C571 1.356 . S
N569 H574 0.984 . S
N569 H575 1.004 . S
C570 C564 1.379 . S
C570 C567 1.363 . S
C570 N568 1.356 . S
C571 C565 1.363 . S
C571 C566 1.379 1_565 S
C571 N569 1.356 . S
N572 C564 1.356 . S
N572 H578 0.984 . S
N572 H579 0.984 . S
N573 C566 1.356 . S
N573 H576 0.984 . S
N573 H577 0.985 . S
H574 N569 0.984 . S
H575 N569 1.004 . S
H576 N573 0.984 . S
H577 N573 0.985 . S
H578 N572 0.984 . S
H579 N572 0.984 . S
H580 N568 0.984 . S
H581 N568 0.985 . S
C582 C583 1.363 . S
C582 C588 1.379 . S
C582 N590 1.356 . S
C583 C582 1.363 . S
C583 C589 1.363 1_545 S
C584 C585 1.363 . S
C584 C589 1.379 1_545 S
C584 N591 1.356 . S
C585 C584 1.363 . S
C585 C588 1.363 . S
N586 C588 1.356 . S
N586 H598 0.984 . S
N586 H599 0.985 . S
N587 C589 1.356 . S
N587 H592 0.984 . S
N587 H593 0.985 . S
C588 C582 1.379 . S
C588 C585 1.363 . S
C588 N586 1.356 . S
C589 C583 1.363 1_565 S
C589 C584 1.379 1_565 S
C589 N587 1.356 . S
N590 C582 1.356 . S
N590 H596 0.984 . S
N590 H597 0.984 . S
N591 C584 1.356 . S
N591 H594 0.984 . S
N591 H595 0.985 . S
H592 N587 0.984 . S
H593 N587 0.985 . S
H594 N591 0.984 . S
H595 N591 0.985 . S
H596 N590 0.984 . S
H597 N590 0.984 . S
H598 N586 0.984 . S
H599 N586 0.985 . S
C600 C601 1.363 . S
C600 C606 1.379 . S
C600 N608 1.356 . S
C601 C600 1.363 . S
C601 C607 1.363 . S
C602 C603 1.363 . S
C602 C607 1.379 . S
C602 N609 1.356 . S
C603 C602 1.363 . S
C603 C606 1.363 . S
N604 C606 1.356 . S
N604 H616 0.984 . S
N604 H617 0.985 . S
N605 C607 1.356 . S
N605 H610 0.984 . S
N605 H611 0.985 . S
C606 C600 1.379 . S
C606 C603 1.363 . S
C606 N604 1.356 . S
C607 C601 1.363 . S
C607 C602 1.379 . S
C607 N605 1.356 . S
N608 C600 1.356 . S
N608 H614 0.984 . S
N608 H615 0.984 . S
N609 C602 1.356 . S
N609 H612 0.984 . S
N609 H613 0.985 . S
H610 N605 0.984 . S
H611 N605 0.985 . S
H612 N609 0.984 . S
H613 N609 0.985 . S
H614 N608 0.984 . S
H615 N608 0.984 . S
H616 N604 0.984 . S
H617 N604 0.985 . S
C618 C619 1.363 . S
C618 C624 1.379 . S
C618 N626 1.356 . S
C619 C618 1.363 . S
C619 C625 1.363 . S
C620 C621 1.363 . S
C620 C625 1.379 . S
C620 N627 1.356 . S
C621 C620 1.363 . S
C621 C624 1.363 . S
N622 C624 1.365 . S
N622 H634 0.987 . S
N622 H635 0.973 1_554 S
N623 C625 1.356 . S
N623 H628 0.984 . S
N623 H629 0.985 . S
C624 C618 1.379 . S
C624 C621 1.363 . S
C624 N622 1.365 . S
C625 C619 1.363 . S
C625 C620 1.379 . S
C625 N623 1.356 . S
N626 C618 1.356 . S
N626 H632 0.984 . S
N626 H633 0.984 . S
N627 C620 1.356 . S
N627 H630 0.984 1_554 S
N627 H631 0.985 . S
H628 N623 0.984 . S
H629 N623 0.985 . S
H630 N627 0.984 1_556 S
H631 N627 0.985 . S
H632 N626 0.984 . S
H633 N626 0.984 . S
H634 N622 0.987 . S
H635 N622 0.973 1_556 S
C636 C637 1.363 . S
C636 C642 1.379 . S
C636 N644 1.356 . S
C637 C636 1.363 . S
C637 C643 1.363 . S
C638 C639 1.363 . S
C638 C643 1.379 . S
C638 N645 1.356 . S
C639 C638 1.363 . S
C639 C642 1.363 . S
N640 C642 1.356 . S
N640 H652 0.984 . S
N640 H653 0.985 . S
N641 C643 1.356 . S
N641 H646 0.984 . S
N641 H647 0.985 . S
C642 C636 1.379 . S
C642 C639 1.363 . S
C642 N640 1.356 . S
C643 C637 1.363 . S
C643 C638 1.379 . S
C643 N641 1.356 . S
N644 C636 1.356 . S
N644 H650 0.984 . S
N644 H651 0.984 . S
N645 C638 1.356 . S
N645 H648 0.984 . S
N645 H649 0.985 . S
H646 N641 0.984 . S
H647 N641 0.985 . S
H648 N645 0.984 . S
H649 N645 0.985 . S
H650 N644 0.984 . S
H651 N644 0.984 . S
H652 N640 0.984 . S
H653 N640 0.985 . S
C654 C655 1.363 . S
C654 C660 1.379 . S
C654 N662 1.356 . S
C655 C654 1.363 . S
C655 C661 1.363 . S
C656 C657 1.363 . S
C656 C661 1.379 . S
C656 N663 1.356 1_556 S
C657 C656 1.363 . S
C657 C660 1.363 . S
N658 C660 1.356 . S
N658 H670 0.984 . S
N658 H671 0.985 1_556 S
N659 C661 1.356 . S
N659 H664 0.984 . S
N659 H665 0.985 . S
C660 C654 1.379 . S
C660 C657 1.363 . S
C660 N658 1.356 . S
C661 C655 1.363 . S
C661 C656 1.379 . S
C661 N659 1.356 . S
N662 C654 1.356 . S
N662 H668 0.984 . S
N662 H669 0.984 . S
N663 C656 1.356 1_554 S
N663 H666 0.984 . S
N663 H667 0.985 . S
H664 N659 0.984 . S
H665 N659 0.985 . S
H666 N663 0.984 . S
H667 N663 0.985 . S
H668 N662 0.984 . S
H669 N662 0.984 . S
H670 N658 0.984 . S
H671 N658 0.985 1_554 S
C672 C673 1.363 . S
C672 C678 1.379 . S
C672 N680 1.356 . S
C673 C672 1.363 . S
C673 C679 1.363 . S
C674 C675 1.363 . S
C674 C679 1.379 . S
C674 N681 1.356 . S
C675 C674 1.363 . S
C675 C678 1.363 . S
N676 C678 1.356 . S
N676 H688 0.984 . S
N676 H689 0.985 . S
N677 C679 1.356 . S
N677 H682 0.984 . S
N677 H683 0.985 . S
C678 C672 1.379 . S
C678 C675 1.363 . S
C678 N676 1.356 . S
C679 C673 1.363 . S
C679 C674 1.379 . S
C679 N677 1.356 . S
N680 C672 1.356 . S
N680 H686 0.984 . S
N680 H687 0.984 . S
N681 C674 1.356 . S
N681 H684 0.984 . S
N681 H685 0.985 . S
H682 N677 0.984 . S
H683 N677 0.985 . S
H684 N681 0.984 . S
H685 N681 0.985 . S
H686 N680 0.984 . S
H687 N680 0.984 . S
H688 N676 0.984 . S
H689 N676 0.985 . S
C690 C691 1.363 . S
C690 C696 1.379 . S
C690 N698 1.356 1_455 S
C691 C690 1.363 . S
C691 C697 1.363 . S
C692 C693 1.363 . S
C692 C697 1.379 . S
C692 N699 1.356 . S
C693 C692 1.363 . S
C693 C696 1.363 . S
N694 C696 1.356 . S
N694 H706 0.984 . S
N694 H707 0.985 . S
N695 C697 1.356 . S
N695 H700 0.984 . S
N695 H701 0.985 . S
C696 C690 1.379 . S
C696 C693 1.363 . S
C696 N694 1.356 . S
C697 C691 1.363 . S
C697 C692 1.379 . S
C697 N695 1.356 . S
N698 C690 1.356 1_655 S
N698 H704 0.984 . S
N698 H705 0.984 . S
N699 C692 1.356 . S
N699 H702 0.984 . S
N699 H703 0.985 . S
H700 N695 0.984 . S
H701 N695 0.985 . S
H702 N699 0.984 . S
H703 N699 0.985 . S
H704 N698 0.984 . S
H705 N698 0.984 . S
H706 N694 0.984 . S
H707 N694 0.985 . S
C708 C709 1.363 . S
C708 C714 1.379 . S
C708 N716 1.356 . S
C709 C708 1.363 . S
C709 C715 1.363 . S
C710 C711 1.363 . S
C710 C715 1.379 . S
C710 N717 1.356 . S
C711 C710 1.363 . S
C711 C714 1.363 . S
N712 C714 1.356 . S
N712 H724 0.984 . S
N712 H725 0.985 . S
N713 C715 1.356 . S
N713 H718 0.984 . S
N713 H719 0.985 . S
C714 C708 1.379 . S
C714 C711 1.363 . S
C714 N712 1.356 . S
C715 C709 1.363 . S
C715 C710 1.379 . S
C715 N713 1.356 . S
N716 C708 1.356 . S
N716 H722 0.984 . S
N716 H723 0.984 . S
N717 C710 1.356 . S
N717 H720 0.984 . S
N717 H721 0.985 . S
H718 N713 0.984 . S
H719 N713 0.985 . S
H720 N717 0.984 . S
H721 N717 0.985 . S
H722 N716 0.984 . S
H723 N716 0.984 . S
H724 N712 0.984 . S
H725 N712 0.985 . S
C726 C727 1.363 . S
C726 C732 1.379 1_655 S
C726 N734 1.356 . S
C727 C726 1.363 . S
C727 C733 1.363 . S
C728 C729 1.363 . S
C728 C733 1.379 . S
C728 N735 1.356 . S
C729 C728 1.363 . S
C729 C732 1.363 1_655 S
N730 C732 1.356 . S
N730 H742 0.984 . S
N730 H743 0.985 . S
N731 C733 1.356 . S
N731 H736 0.984 . S
N731 H737 0.985 . S
C732 C726 1.379 1_455 S
C732 C729 1.363 1_455 S
C732 N730 1.356 . S
C733 C727 1.363 . S
C733 C728 1.379 . S
C733 N731 1.356 . S
N734 C726 1.356 . S
N734 H740 0.984 1_655 S
N734 H741 0.984 . S
N735 C728 1.356 . S
N735 H738 0.984 . S
N735 H739 0.985 . S
H736 N731 0.984 . S
H737 N731 0.985 . S
H738 N735 0.984 . S
H739 N735 0.985 . S
H740 N734 0.984 1_455 S
H741 N734 0.984 . S
H742 N730 0.984 . S
H743 N730 0.985 . S
C744 C745 1.363 . S
C744 C750 1.379 . S
C744 N752 1.356 . S
C745 C744 1.363 . S
C745 C751 1.363 . S
C746 C747 1.363 . S
C746 C751 1.379 . S
C746 N753 1.356 . S
C747 C746 1.363 . S
C747 C750 1.363 . S
N748 C750 1.356 . S
N748 H760 0.984 . S
N748 H761 0.985 . S
N749 C751 1.356 . S
N749 H754 0.984 . S
N749 H755 0.985 . S
C750 C744 1.379 . S
C750 C747 1.363 . S
C750 N748 1.356 . S
C751 C745 1.363 . S
C751 C746 1.379 . S
C751 N749 1.356 . S
N752 C744 1.356 . S
N752 H758 0.984 . S
N752 H759 0.984 . S
N753 C746 1.356 . S
N753 H756 0.984 . S
N753 H757 0.985 . S
H754 N749 0.984 . S
H755 N749 0.985 . S
H756 N753 0.984 . S
H757 N753 0.985 . S
H758 N752 0.984 . S
H759 N752 0.984 . S
H760 N748 0.984 . S
H761 N748 0.985 . S
C762 C763 1.363 . S
C762 C768 1.379 . S
C762 N770 1.356 . S
C763 C762 1.363 . S
C763 C769 1.363 . S
C764 C765 1.363 . S
C764 C769 1.379 . S
C764 N771 1.356 . S
C765 C764 1.363 . S
C765 C768 1.363 . S
N766 C768 1.356 . S
N766 H778 0.984 . S
N766 H779 0.985 . S
N767 C769 1.356 . S
N767 H772 0.984 . S
N767 H773 0.985 . S
C768 C762 1.379 . S
C768 C765 1.363 . S
C768 N766 1.356 . S
C769 C763 1.363 . S
C769 C764 1.379 . S
C769 N767 1.356 . S
N770 C762 1.356 . S
N770 H776 0.984 . S
N770 H777 0.984 . S
N771 C764 1.356 . S
N771 H774 0.984 . S
N771 H775 0.985 . S
H772 N767 0.984 . S
H773 N767 0.985 . S
H774 N771 0.984 . S
H775 N771 0.985 . S
H776 N770 0.984 . S
H777 N770 0.984 . S
H778 N766 0.984 . S
H779 N766 0.985 . S
C780 C781 1.363 . S
C780 C786 1.379 . S
C780 N788 1.356 . S
C781 C780 1.363 . S
C781 C787 1.363 . S
C782 C783 1.363 . S
C782 C787 1.379 . S
C782 N789 1.356 . S
C783 C782 1.363 . S
C783 C786 1.363 . S
N784 C786 1.356 1_565 S
N784 H796 0.984 . S
N784 H797 0.985 . S
N785 C787 1.356 . S
N785 H790 0.984 . S
N785 H791 0.985 . S
C786 C780 1.379 . S
C786 C783 1.363 . S
C786 N784 1.356 1_545 S
C787 C781 1.363 . S
C787 C782 1.379 . S
C787 N785 1.356 . S
N788 C780 1.356 . S
N788 H794 0.984 . S
N788 H795 0.984 . S
N789 C782 1.356 . S
N789 H792 0.984 . S
N789 H793 0.985 . S
H790 N785 0.984 . S
H791 N785 0.985 . S
H792 N789 0.984 . S
H793 N789 0.985 . S
H794 N788 0.984 . S
H795 N788 0.984 . S
H796 N784 0.984 . S
H797 N784 0.985 . S
C798 C799 1.363 . S
C798 C804 1.379 . S
C798 N806 1.356 . S
C799 C798 1.363 . S
C799 C805 1.363 . S
C800 C801 1.363 . S
C800 C805 1.379 . S
C800 N807 1.356 . S
C801 C800 1.363 . S
C801 C804 1.363 . S
N802 C804 1.356 1_545 S
N802 H814 0.984 . S
N802 H815 0.985 . S
N803 C805 1.356 . S
N803 H808 0.984 . S
N803 H809 0.985 . S
C804 C798 1.379 . S
C804 C801 1.363 . S
C804 N802 1.356 1_565 S
C805 C799 1.363 . S
C805 C800 1.379 . S
C805 N803 1.356 . S
N806 C798 1.356 . S
N806 H812 0.984 . S
N806 H813 0.984 . S
N807 C800 1.356 . S
N807 H810 0.984 . S
N807 H811 0.985 . S
H808 N803 0.984 . S
H809 N803 0.985 . S
H810 N807 0.984 . S
H811 N807 0.985 . S
H812 N806 0.984 . S
H813 N806 0.984 . S
H814 N802 0.984 . S
H815 N802 0.985 . S
C816 C817 1.363 . S
C816 C822 1.379 . S
C816 N824 1.356 . S
C817 C816 1.363 . S
C817 C823 1.363 . S
C818 C819 1.363 . S
C818 C823 1.379 . S
C818 N825 1.356 . S
C819 C818 1.363 . S
C819 C822 1.363 . S
N820 C822 1.356 . S
N820 H832 0.984 . S
N820 H833 0.985 . S
N821 C823 1.356 . S
N821 H826 0.984 . S
N821 H827 0.985 . S
C822 C816 1.379 . S
C822 C819 1.363 . S
C822 N820 1.356 . S
C823 C817 1.363 . S
C823 C818 1.379 . S
C823 N821 1.356 . S
N824 C816 1.356 . S
N824 H830 0.984 . S
N824 H831 0.984 . S
N825 C818 1.356 . S
N825 H828 0.984 . S
N825 H829 0.985 . S
H826 N821 0.984 . S
H827 N821 0.985 . S
H828 N825 0.984 . S
H829 N825 0.985 . S
H830 N824 0.984 . S
H831 N824 0.984 . S
H832 N820 0.984 . S
H833 N820 0.985 . S
C834 C835 1.363 . S
C834 C840 1.379 . S
C834 N842 1.356 . S
C835 C834 1.363 . S
C835 C841 1.363 . S
C836 C837 1.363 . S
C836 C841 1.379 . S
C836 N843 1.356 1_556 S
C837 C836 1.363 . S
C837 C840 1.363 . S
N838 C840 1.356 . S
N838 H850 0.984 . S
N838 H851 0.985 . S
N839 C841 1.356 . S
N839 H844 0.984 . S
N839 H845 0.985 . S
C840 C834 1.379 . S
C840 C837 1.363 . S
C840 N838 1.356 . S
C841 C835 1.363 . S
C841 C836 1.379 . S
C841 N839 1.356 . S
N842 C834 1.356 . S
N842 H848 0.984 . S
N842 H849 0.984 . S
N843 C836 1.356 1_554 S
N843 H846 0.984 . S
N843 H847 0.985 . S
H844 N839 0.984 . S
H845 N839 0.985 . S
H846 N843 0.984 . S
H847 N843 0.985 . S
H848 N842 0.984 . S
H849 N842 0.984 . S
H850 N838 0.984 . S
H851 N838 0.985 . S
C852 C853 1.363 . S
C852 C858 1.379 . S
C852 N860 1.356 . S
C853 C852 1.363 . S
C853 C859 1.363 . S
C854 C855 1.363 . S
C854 C859 1.379 . S
C854 N861 1.356 . S
C855 C854 1.363 . S
C855 C858 1.363 . S
N856 C858 1.356 . S
N856 H868 0.984 . S
N856 H869 0.985 . S
N857 C859 1.356 . S
N857 H862 0.984 . S
N857 H863 0.985 . S
C858 C852 1.379 . S
C858 C855 1.363 . S
C858 N856 1.356 . S
C859 C853 1.363 . S
C859 C854 1.379 . S
C859 N857 1.356 . S
N860 C852 1.356 . S
N860 H866 0.984 . S
N860 H867 0.984 . S
N861 C854 1.356 . S
N861 H864 0.984 . S
N861 H865 0.985 . S
H862 N857 0.984 . S
H863 N857 0.985 . S
H864 N861 0.984 . S
H865 N861 0.985 . S
H866 N860 0.984 . S
H867 N860 0.984 . S
H868 N856 0.984 . S
H869 N856 0.985 . S
C870 C871 1.363 . S
C870 C876 1.379 . S
C870 N878 1.356 1_554 S
C871 C870 1.363 . S
C871 C877 1.363 . S
C872 C873 1.363 . S
C872 C877 1.379 . S
C872 N879 1.356 . S
C873 C872 1.363 . S
C873 C876 1.363 . S
N874 C876 1.356 . S
N874 H886 0.984 . S
N874 H887 0.985 . S
N875 C877 1.356 . S
N875 H880 0.984 1_554 S
N875 H881 0.985 . S
C876 C870 1.379 . S
C876 C873 1.363 . S
C876 N874 1.356 . S
C877 C871 1.363 . S
C877 C872 1.379 . S
C877 N875 1.356 . S
N878 C870 1.356 1_556 S
N878 H884 0.984 . S
N878 H885 0.984 . S
N879 C872 1.356 . S
N879 H882 0.984 . S
N879 H883 0.985 . S
H880 N875 0.984 1_556 S
H881 N875 0.985 . S
H882 N879 0.984 . S
H883 N879 0.985 . S
H884 N878 0.984 . S
H885 N878 0.984 . S
H886 N874 0.984 . S
H887 N874 0.985 . S
C888 C889 1.363 . S
C888 C894 1.379 . S
C888 N896 1.356 . S
C889 C888 1.363 . S
C889 C895 1.363 . S
C890 C891 1.363 . S
C890 C895 1.379 . S
C890 N897 1.356 . S
C891 C890 1.363 . S
C891 C894 1.363 . S
N892 C894 1.356 . S
N892 H904 0.984 . S
N892 H905 0.985 . S
N893 C895 1.356 . S
N893 H898 0.984 . S
N893 H899 0.985 . S
C894 C888 1.379 . S
C894 C891 1.363 . S
C894 N892 1.356 . S
C895 C889 1.363 . S
C895 C890 1.379 . S
C895 N893 1.356 . S
N896 C888 1.356 . S
N896 H902 0.984 . S
N896 H903 0.984 . S
N897 C890 1.356 . S
N897 H900 0.984 . S
N897 H901 0.985 . S
H898 N893 0.984 . S
H899 N893 0.985 . S
H900 N897 0.984 . S
H901 N897 0.985 . S
H902 N896 0.984 . S
H903 N896 0.984 . S
H904 N892 0.984 . S
H905 N892 0.985 . S
C906 C907 1.363 . S
C906 C912 1.379 . S
C906 N914 1.356 1_655 S
C907 C906 1.363 . S
C907 C913 1.363 . S
C908 C909 1.363 . S
C908 C913 1.379 . S
C908 N915 1.356 . S
C909 C908 1.363 . S
C909 C912 1.363 . S
N910 C912 1.356 . S
N910 H922 0.984 . S
N910 H923 0.985 . S
N911 C913 1.356 . S
N911 H916 0.984 . S
N911 H917 0.985 . S
C912 C906 1.379 . S
C912 C909 1.363 . S
C912 N910 1.356 . S
C913 C907 1.363 . S
C913 C908 1.379 . S
C913 N911 1.356 . S
N914 C906 1.356 1_455 S
N914 H920 0.984 . S
N914 H921 0.984 . S
N915 C908 1.356 . S
N915 H918 0.984 . S
N915 H919 0.985 . S
H916 N911 0.984 . S
H917 N911 0.985 . S
H918 N915 0.984 . S
H919 N915 0.985 . S
H920 N914 0.984 . S
H921 N914 0.984 . S
H922 N910 0.984 . S
H923 N910 0.985 . S
C924 C925 1.363 . S
C924 C930 1.379 . S
C924 N932 1.356 . S
C925 C924 1.363 . S
C925 C931 1.363 . S
C926 C927 1.363 . S
C926 C931 1.379 . S
C926 N933 1.356 . S
C927 C926 1.363 . S
C927 C930 1.363 . S
N928 C930 1.356 . S
N928 H940 0.984 . S
N928 H941 0.985 . S
N929 C931 1.356 . S
N929 H934 0.984 . S
N929 H935 0.985 . S
C930 C924 1.379 . S
C930 C927 1.363 . S
C930 N928 1.356 . S
C931 C925 1.363 . S
C931 C926 1.379 . S
C931 N929 1.356 . S
N932 C924 1.356 . S
N932 H938 0.984 . S
N932 H939 0.984 . S
N933 C926 1.356 . S
N933 H936 0.984 . S
N933 H937 0.985 . S
H934 N929 0.984 . S
H935 N929 0.985 . S
H936 N933 0.984 . S
H937 N933 0.985 . S
H938 N932 0.984 . S
H939 N932 0.984 . S
H940 N928 0.984 . S
H941 N928 0.985 . S
C942 C943 1.363 . S
C942 C948 1.379 . S
C942 N950 1.356 . S
C943 C942 1.363 . S
C943 C949 1.363 . S
C944 C945 1.363 . S
C944 C949 1.379 . S
C944 N951 1.356 1_455 S
C945 C944 1.363 . S
C945 C948 1.363 . S
N946 C948 1.356 . S
N946 H958 0.984 . S
N946 H959 1.005 . S
N947 C949 1.356 . S
N947 H952 0.984 . S
N947 H953 0.985 . S
C948 C942 1.379 . S
C948 C945 1.363 . S
C948 N946 1.356 . S
C949 C943 1.363 . S
C949 C944 1.379 . S
C949 N947 1.356 . S
N950 C942 1.356 . S
N950 H956 0.984 . S
N950 H957 0.984 . S
N951 C944 1.356 1_655 S
N951 H954 0.984 . S
N951 H955 0.985 . S
H952 N947 0.984 . S
H953 N947 0.985 . S
H954 N951 0.984 . S
H955 N951 0.985 . S
H956 N950 0.984 . S
H957 N950 0.984 . S
H958 N946 0.984 . S
H959 N946 1.005 . S
C960 C961 1.363 . S
C960 C966 1.379 . S
C960 N968 1.356 . S
C961 C960 1.363 . S
C961 C967 1.363 . S
C962 C963 1.363 . S
C962 C967 1.379 . S
C962 N969 1.356 . S
C963 C962 1.363 . S
C963 C966 1.363 . S
N964 C966 1.356 . S
N964 H976 0.984 . S
N964 H977 0.985 . S
N965 C967 1.356 . S
N965 H970 0.984 1_554 S
N965 H971 0.985 . S
C966 C960 1.379 . S
C966 C963 1.363 . S
C966 N964 1.356 . S
C967 C961 1.363 . S
C967 C962 1.379 . S
C967 N965 1.356 . S
N968 C960 1.356 . S
N968 H974 0.984 . S
N968 H975 0.984 1_554 S
N969 C962 1.356 . S
N969 H972 0.984 . S
N969 H973 0.985 . S
H970 N965 0.984 1_556 S
H971 N965 0.985 . S
H972 N969 0.984 . S
H973 N969 0.985 . S
H974 N968 0.984 . S
H975 N968 0.984 1_556 S
H976 N964 0.984 . S
H977 N964 0.985 . S
C978 C979 1.363 . S
C978 C984 1.379 . S
C978 N986 1.356 . S
C979 C978 1.363 . S
C979 C985 1.363 . S
C980 C981 1.363 . S
C980 C985 1.379 . S
C980 N987 1.356 . S
C981 C980 1.363 . S
C981 C984 1.363 . S
N982 C984 1.356 . S
N982 H994 0.984 . S
N982 H995 0.985 . S
N983 C985 1.356 . S
N983 H988 0.984 . S
N983 H989 0.985 . S
C984 C978 1.379 . S
C984 C981 1.363 . S
C984 N982 1.356 . S
C985 C979 1.363 . S
C985 C980 1.379 . S
C985 N983 1.356 . S
N986 C978 1.356 . S
N986 H992 0.984 . S
N986 H993 0.984 . S
N987 C980 1.356 . S
N987 H990 0.984 . S
N987 H991 0.985 . S
H988 N983 0.984 . S
H989 N983 0.985 . S
H990 N987 0.984 . S
H991 N987 0.985 . S
H992 N986 0.984 . S
H993 N986 0.984 . S
H994 N982 0.984 . S
H995 N982 0.985 . S
C996 C997 1.363 . S
C996 C1002 1.379 . S
C996 N1004 1.356 . S
C997 C996 1.363 . S
C997 C1003 1.363 . S
C998 C999 1.363 . S
C998 C1003 1.379 . S
C998 N1005 1.356 . S
C999 C998 1.363 . S
C999 C1002 1.363 . S
N1000 C1002 1.356 . S
N1000 H1012 0.984 . S
N1000 H1013 0.985 . S
N1001 C1003 1.370 . S
N1001 H1006 0.973 1_556 S
N1001 H1007 0.983 1_556 S
C1002 C996 1.379 . S
C1002 C999 1.363 . S
C1002 N1000 1.356 . S
C1003 C997 1.363 . S
C1003 C998 1.379 . S
C1003 N1001 1.370 . S
N1004 C996 1.356 . S
N1004 H1010 0.984 . S
N1004 H1011 0.984 . S
N1005 C998 1.356 . S
N1005 H1008 0.984 . S
N1005 H1009 0.985 . S
H1006 N1001 0.973 1_554 S
H1007 N1001 0.983 1_554 S
H1008 N1005 0.984 . S
H1009 N1005 0.985 . S
H1010 N1004 0.984 . S
H1011 N1004 0.984 . S
H1012 N1000 0.984 . S
H1013 N1000 0.985 . S
C1014 C1015 1.363 . S
C1014 C1020 1.379 . S
C1014 N1022 1.356 . S
C1015 C1014 1.363 . S
C1015 C1021 1.363 . S
C1016 C1017 1.363 . S
C1016 C1021 1.379 . S
C1016 N1023 1.356 . S
C1017 C1016 1.363 . S
C1017 C1020 1.363 . S
N1018 C1020 1.356 . S
N1018 H1030 0.984 . S
N1018 H1031 0.985 . S
N1019 C1021 1.356 . S
N1019 H1024 0.984 . S
N1019 H1025 0.985 . S
C1020 C1014 1.379 . S
C1020 C1017 1.363 . S
C1020 N1018 1.356 . S
C1021 C1015 1.363 . S
C1021 C1016 1.379 . S
C1021 N1019 1.356 . S
N1022 C1014 1.356 . S
N1022 H1028 0.984 . S
N1022 H1029 0.984 . S
N1023 C1016 1.356 . S
N1023 H1026 0.984 . S
N1023 H1027 0.985 . S
H1024 N1019 0.984 . S
H1025 N1019 0.985 . S
H1026 N1023 0.984 . S
H1027 N1023 0.985 . S
H1028 N1022 0.984 . S
H1029 N1022 0.984 . S
H1030 N1018 0.984 . S
H1031 N1018 0.985 . S
C1032 C1033 1.363 . S
C1032 C1038 1.379 . S
C1032 N1040 1.356 . S
C1033 C1032 1.363 . S
C1033 C1039 1.363 . S
C1034 C1035 1.363 . S
C1034 C1039 1.379 . S
C1034 N1041 1.356 . S
C1035 C1034 1.363 . S
C1035 C1038 1.363 . S
N1036 C1038 1.356 . S
N1036 H1048 0.984 . S
N1036 H1049 0.985 1_455 S
N1037 C1039 1.356 . S
N1037 H1042 0.984 . S
N1037 H1043 0.985 . S
C1038 C1032 1.379 . S
C1038 C1035 1.363 . S
C1038 N1036 1.356 . S
C1039 C1033 1.363 . S
C1039 C1034 1.379 . S
C1039 N1037 1.356 . S
N1040 C1032 1.356 . S
N1040 H1046 0.984 . S
N1040 H1047 0.984 . S
N1041 C1034 1.356 . S
N1041 H1044 0.984 . S
N1041 H1045 0.985 . S
H1042 N1037 0.984 . S
H1043 N1037 0.985 . S
H1044 N1041 0.984 . S
H1045 N1041 0.985 . S
H1046 N1040 0.984 . S
H1047 N1040 0.984 . S
H1048 N1036 0.984 . S
H1049 N1036 0.985 1_655 S
C1050 C1051 1.363 . S
C1050 C1056 1.379 . S
C1050 N1058 1.356 . S
C1051 C1050 1.363 . S
C1051 C1057 1.363 . S
C1052 C1053 1.363 . S
C1052 C1057 1.379 . S
C1052 N1059 1.356 . S
C1053 C1052 1.363 . S
C1053 C1056 1.363 . S
N1054 C1056 1.356 . S
N1054 H1066 0.984 . S
N1054 H1067 0.985 . S
N1055 C1057 1.356 . S
N1055 H1060 0.984 . S
N1055 H1061 0.985 . S
C1056 C1050 1.379 . S
C1056 C1053 1.363 . S
C1056 N1054 1.356 . S
C1057 C1051 1.363 . S
C1057 C1052 1.379 . S
C1057 N1055 1.356 . S
N1058 C1050 1.356 . S
N1058 H1064 0.984 . S
N1058 H1065 0.984 . S
N1059 C1052 1.356 . S
N1059 H1062 0.984 . S
N1059 H1063 0.985 . S
H1060 N1055 0.984 . S
H1061 N1055 0.985 . S
H1062 N1059 0.984 . S
H1063 N1059 0.985 . S
H1064 N1058 0.984 . S
H1065 N1058 0.984 . S
H1066 N1054 0.984 . S
H1067 N1054 0.985 . S
C1068 C1069 1.363 . S
C1068 C1074 1.379 . S
C1068 N1076 1.356 . S
C1069 C1068 1.363 . S
C1069 C1075 1.363 . S
C1070 C1071 1.363 . S
C1070 C1075 1.379 . S
C1070 N1077 1.356 . S
C1071 C1070 1.363 . S
C1071 C1074 1.363 . S
N1072 C1074 1.356 . S
N1072 H1084 0.984 . S
N1072 H1085 0.985 . S
N1073 C1075 1.356 . S
N1073 H1078 0.984 . S
N1073 H1079 0.985 . S
C1074 C1068 1.379 . S
C1074 C1071 1.363 . S
C1074 N1072 1.356 . S
C1075 C1069 1.363 . S
C1075 C1070 1.379 . S
C1075 N1073 1.356 . S
N1076 C1068 1.356 . S
N1076 H1082 0.984 . S
N1076 H1083 0.984 . S
N1077 C1070 1.356 . S
N1077 H1080 0.984 . S
N1077 H1081 0.985 . S
H1078 N1073 0.984 . S
H1079 N1073 0.985 . S
H1080 N1077 0.984 . S
H1081 N1077 0.985 . S
H1082 N1076 0.984 . S
H1083 N1076 0.984 . S
H1084 N1072 0.984 . S
H1085 N1072 0.985 . S
C1086 C1087 1.363 . S
C1086 C1092 1.379 . S
C1086 N1094 1.356 . S
C1087 C1086 1.363 . S
C1087 C1093 1.363 . S
C1088 C1089 1.363 . S
C1088 C1093 1.379 . S
C1088 N1095 1.356 . S
C1089 C1088 1.363 . S
C1089 C1092 1.363 . S
N1090 C1092 1.356 . S
N1090 H1102 0.984 . S
N1090 H1103 0.985 . S
N1091 C1093 1.356 . S
N1091 H1096 0.984 1_655 S
N1091 H1097 0.985 . S
C1092 C1086 1.379 . S
C1092 C1089 1.363 . S
C1092 N1090 1.356 . S
C1093 C1087 1.363 . S
C1093 C1088 1.379 . S
C1093 N1091 1.356 . S
N1094 C1086 1.356 . S
N1094 H1100 0.984 . S
N1094 H1101 0.984 . S
N1095 C1088 1.356 . S
N1095 H1098 0.984 . S
N1095 H1099 0.985 . S
H1096 N1091 0.984 1_455 S
H1097 N1091 0.985 . S
H1098 N1095 0.984 . S
H1099 N1095 0.985 . S
H1100 N1094 0.984 . S
H1101 N1094 0.984 . S
H1102 N1090 0.984 . S
H1103 N1090 0.985 . S
C1104 C1105 1.363 . S
C1104 C1110 1.379 . S
C1104 N1112 1.356 1_545 S
C1105 C1104 1.363 . S
C1105 C1111 1.363 . S
C1106 C1107 1.363 . S
C1106 C1111 1.379 . S
C1106 N1113 1.356 . S
C1107 C1106 1.363 . S
C1107 C1110 1.363 . S
N1108 C1110 1.356 . S
N1108 H1120 0.984 . S
N1108 H1121 0.985 . S
N1109 C1111 1.356 . S
N1109 H1114 0.984 . S
N1109 H1115 0.985 . S
C1110 C1104 1.379 . S
C1110 C1107 1.363 . S
C1110 N1108 1.356 . S
C1111 C1105 1.363 . S
C1111 C1106 1.379 . S
C1111 N1109 1.356 . S
N1112 C1104 1.356 1_565 S
N1112 H1118 0.984 . S
N1112 H1119 0.984 . S
N1113 C1106 1.356 . S
N1113 H1116 0.984 . S
N1113 H1117 0.985 . S
H1114 N1109 0.984 . S
H1115 N1109 0.985 . S
H1116 N1113 0.984 . S
H1117 N1113 0.985 . S
H1118 N1112 0.984 . S
H1119 N1112 0.984 . S
H1120 N1108 0.984 . S
H1121 N1108 0.985 . S
C1122 C1123 1.363 . S
C1122 C1128 1.379 . S
C1122 N1130 1.356 . S
C1123 C1122 1.363 . S
C1123 C1129 1.363 . S
C1124 C1125 1.363 . S
C1124 C1129 1.379 . S
C1124 N1131 1.356 . S
C1125 C1124 1.363 . S
C1125 C1128 1.363 . S
N1126 C1128 1.356 . S
N1126 H1138 0.984 . S
N1126 H1139 0.985 . S
N1127 C1129 1.356 . S
N1127 H1132 0.984 . S
N1127 H1133 0.985 . S
C1128 C1122 1.379 . S
C1128 C1125 1.363 . S
C1128 N1126 1.356 . S
C1129 C1123 1.363 . S
C1129 C1124 1.379 . S
C1129 N1127 1.356 . S
N1130 C1122 1.356 . S
N1130 H1136 0.984 . S
N1130 H1137 0.984 . S
N1131 C1124 1.356 . S
N1131 H1134 0.984 . S
N1131 H1135 0.985 . S
H1132 N1127 0.984 . S
H1133 N1127 0.985 . S
H1134 N1131 0.984 . S
H1135 N1131 0.985 . S
H1136 N1130 0.984 . S
H1137 N1130 0.984 . S
H1138 N1126 0.984 . S
H1139 N1126 0.985 . S
C1140 C1141 1.363 . S
C1140 C1146 1.379 . S
C1140 N1148 1.356 . S
C1141 C1140 1.363 . S
C1141 C1147 1.363 . S
C1142 C1143 1.363 . S
C1142 C1147 1.379 . S
C1142 N1149 1.356 . S
C1143 C1142 1.363 . S
C1143 C1146 1.363 . S
N1144 C1146 1.356 . S
N1144 H1156 0.984 . S
N1144 H1157 0.985 . S
N1145 C1147 1.356 . S
N1145 H1150 0.984 . S
N1145 H1151 0.985 . S
C1146 C1140 1.379 . S
C1146 C1143 1.363 . S
C1146 N1144 1.356 . S
C1147 C1141 1.363 . S
C1147 C1142 1.379 . S
C1147 N1145 1.356 . S
N1148 C1140 1.356 . S
N1148 H1154 0.984 . S
N1148 H1155 0.984 . S
N1149 C1142 1.356 . S
N1149 H1152 0.984 . S
N1149 H1153 0.985 . S
H1150 N1145 0.984 . S
H1151 N1145 0.985 . S
H1152 N1149 0.984 . S
H1153 N1149 0.985 . S
H1154 N1148 0.984 . S
H1155 N1148 0.984 . S
H1156 N1144 0.984 . S
H1157 N1144 0.985 . S
C1158 C1159 1.363 . S
C1158 C1164 1.379 . S
C1158 N1166 1.356 . S
C1159 C1158 1.363 . S
C1159 C1165 1.363 . S
C1160 C1161 1.363 . S
C1160 C1165 1.379 . S
C1160 N1167 1.356 . S
C1161 C1160 1.363 . S
C1161 C1164 1.363 . S
N1162 C1164 1.356 . S
N1162 H1174 0.984 . S
N1162 H1175 0.985 . S
N1163 C1165 1.356 . S
N1163 H1168 0.984 1_565 S
N1163 H1169 0.985 . S
C1164 C1158 1.379 . S
C1164 C1161 1.363 . S
C1164 N1162 1.356 . S
C1165 C1159 1.363 . S
C1165 C1160 1.379 . S
C1165 N1163 1.356 . S
N1166 C1158 1.356 . S
N1166 H1172 0.984 . S
N1166 H1173 0.984 . S
N1167 C1160 1.356 . S
N1167 H1170 0.984 . S
N1167 H1171 0.985 . S
H1168 N1163 0.984 1_545 S
H1169 N1163 0.985 . S
H1170 N1167 0.984 . S
H1171 N1167 0.985 . S
H1172 N1166 0.984 . S
H1173 N1166 0.984 . S
H1174 N1162 0.984 . S
H1175 N1162 0.985 . S
C1176 C1177 1.363 . S
C1176 C1182 1.379 . S
C1176 N1184 1.356 . S
C1177 C1176 1.363 . S
C1177 C1183 1.363 . S
C1178 C1179 1.363 . S
C1178 C1183 1.379 . S
C1178 N1185 1.356 . S
C1179 C1178 1.363 . S
C1179 C1182 1.363 . S
N1180 C1182 1.356 . S
N1180 H1192 0.984 . S
N1180 H1193 0.985 1_556 S
N1181 C1183 1.356 . S
N1181 H1186 0.984 . S
N1181 H1187 0.985 . S
C1182 C1176 1.379 . S
C1182 C1179 1.363 . S
C1182 N1180 1.356 . S
C1183 C1177 1.363 . S
C1183 C1178 1.379 . S
C1183 N1181 1.356 . S
N1184 C1176 1.356 . S
N1184 H1190 0.984 . S
N1184 H1191 0.984 . S
N1185 C1178 1.356 . S
N1185 H1188 0.984 1_556 S
N1185 H1189 0.985 . S
H1186 N1181 0.984 . S
H1187 N1181 0.985 . S
H1188 N1185 0.984 1_554 S
H1189 N1185 0.985 . S
H1190 N1184 0.984 . S
H1191 N1184 0.984 . S
H1192 N1180 0.984 . S
H1193 N1180 0.985 1_554 S
C1194 C1195 1.363 . S
C1194 C1200 1.379 . S
C1194 N1202 1.356 . S
C1195 C1194 1.363 . S
C1195 C1201 1.363 . S
C1196 C1197 1.363 . S
C1196 C1201 1.379 . S
C1196 N1203 1.356 . S
C1197 C1196 1.363 . S
C1197 C1200 1.363 . S
N1198 C1200 1.356 . S
N1198 H1210 0.984 . S
N1198 H1211 0.985 . S
N1199 C1201 1.356 . S
N1199 H1204 0.984 . S
N1199 H1205 0.985 . S
C1200 C1194 1.379 . S
C1200 C1197 1.363 . S
C1200 N1198 1.356 . S
C1201 C1195 1.363 . S
C1201 C1196 1.379 . S
C1201 N1199 1.356 . S
N1202 C1194 1.356 . S
N1202 H1208 0.984 . S
N1202 H1209 0.984 . S
N1203 C1196 1.356 . S
N1203 H1206 0.984 . S
N1203 H1207 0.985 . S
H1204 N1199 0.984 . S
H1205 N1199 0.985 . S
H1206 N1203 0.984 . S
H1207 N1203 0.985 . S
H1208 N1202 0.984 . S
H1209 N1202 0.984 . S
H1210 N1198 0.984 . S
H1211 N1198 0.985 . S
C1212 C1213 1.363 . S
C1212 C1218 1.379 . S
C1212 N1220 1.356 . S
C1213 C1212 1.363 . S
C1213 C1219 1.363 . S
C1214 C1215 1.363 . S
C1214 C1219 1.379 . S
C1214 N1221 1.356 . S
C1215 C1214 1.363 . S
C1215 C1218 1.363 . S
N1216 C1218 1.356 . S
N1216 H1228 0.984 . S
N1216 H1229 0.960 1_554 S
N1217 C1219 1.356 . S
N1217 H1222 0.984 . S
N1217 H1223 0.985 . S
C1218 C1212 1.379 . S
C1218 C1215 1.363 . S
C1218 N1216 1.356 . S
C1219 C1213 1.363 . S
C1219 C1214 1.379 . S
C1219 N1217 1.356 . S
N1220 C1212 1.356 . S
N1220 H1226 0.984 . S
N1220 H1227 0.984 . S
N1221 C1214 1.356 . S
N1221 H1224 0.984 1_554 S
N1221 H1225 0.985 . S
H1222 N1217 0.984 . S
H1223 N1217 0.985 . S
H1224 N1221 0.984 1_556 S
H1225 N1221 0.985 . S
H1226 N1220 0.984 . S
H1227 N1220 0.984 . S
H1228 N1216 0.984 . S
H1229 N1216 0.960 1_556 S
C1230 C1231 1.363 . S
C1230 C1236 1.379 . S
C1230 N1238 1.356 . S
C1231 C1230 1.363 . S
C1231 C1237 1.363 . S
C1232 C1233 1.363 . S
C1232 C1237 1.379 . S
C1232 N1239 1.356 . S
C1233 C1232 1.363 . S
C1233 C1236 1.363 . S
N1234 C1236 1.356 . S
N1234 H1246 0.984 . S
N1234 H1247 0.985 . S
N1235 C1237 1.356 . S
N1235 H1240 0.984 . S
N1235 H1241 0.985 . S
C1236 C1230 1.379 . S
C1236 C1233 1.363 . S
C1236 N1234 1.356 . S
C1237 C1231 1.363 . S
C1237 C1232 1.379 . S
C1237 N1235 1.356 . S
N1238 C1230 1.356 . S
N1238 H1244 0.984 . S
N1238 H1245 0.984 . S
N1239 C1232 1.356 . S
N1239 H1242 0.984 . S
N1239 H1243 0.985 . S
H1240 N1235 0.984 . S
H1241 N1235 0.985 . S
H1242 N1239 0.984 . S
H1243 N1239 0.985 . S
H1244 N1238 0.984 . S
H1245 N1238 0.984 . S
H1246 N1234 0.984 . S
H1247 N1234 0.985 . S
C1248 C1249 1.363 . S
C1248 C1254 1.379 . S
C1248 N1256 1.359 . S
C1249 C1248 1.363 . S
C1249 C1255 1.363 . S
C1250 C1251 1.363 . S
C1250 C1255 1.379 . S
C1250 N1257 1.356 . S
C1251 C1250 1.363 . S
C1251 C1254 1.363 . S
N1252 C1254 1.356 . S
N1252 H1264 0.984 . S
N1252 H1265 0.985 . S
N1253 C1255 1.356 . S
N1253 H1258 0.984 . S
N1253 H1259 0.985 . S
C1254 C1248 1.379 . S
C1254 C1251 1.363 . S
C1254 N1252 1.356 . S
C1255 C1249 1.363 . S
C1255 C1250 1.379 . S
C1255 N1253 1.356 . S
N1256 C1248 1.359 . S
N1256 H1262 0.984 1_655 S
N1256 H1263 0.982 1_655 S
N1257 C1250 1.356 . S
N1257 H1260 0.984 . S
N1257 H1261 0.985 . S
H1258 N1253 0.984 . S
H1259 N1253 0.985 . S
H1260 N1257 0.984 . S
H1261 N1257 0.985 . S
H1262 N1256 0.984 1_455 S
H1263 N1256 0.982 1_455 S
H1264 N1252 0.984 . S
H1265 N1252 0.985 . S
C1266 C1267 1.363 . S
C1266 C1272 1.379 . S
C1266 N1274 1.356 . S
C1267 C1266 1.363 . S
C1267 C1273 1.363 . S
C1268 C1269 1.363 . S
C1268 C1273 1.379 . S
C1268 N1275 1.356 . S
C1269 C1268 1.363 . S
C1269 C1272 1.363 . S
N1270 C1272 1.356 . S
N1270 H1282 0.984 . S
N1270 H1283 0.985 . S
N1271 C1273 1.356 . S
N1271 H1276 0.984 . S
N1271 H1277 0.985 . S
C1272 C1266 1.379 . S
C1272 C1269 1.363 . S
C1272 N1270 1.356 . S
C1273 C1267 1.363 . S
C1273 C1268 1.379 . S
C1273 N1271 1.356 . S
N1274 C1266 1.356 . S
N1274 H1280 0.984 . S
N1274 H1281 0.984 . S
N1275 C1268 1.356 . S
N1275 H1278 0.984 . S
N1275 H1279 0.985 . S
H1276 N1271 0.984 . S
H1277 N1271 0.985 . S
H1278 N1275 0.984 . S
H1279 N1275 0.985 . S
H1280 N1274 0.984 . S
H1281 N1274 0.984 . S
H1282 N1270 0.984 . S
H1283 N1270 0.985 . S
C1284 C1285 1.363 . S
C1284 C1290 1.379 . S
C1284 N1292 1.356 . S
C1285 C1284 1.363 . S
C1285 C1291 1.363 . S
C1286 C1287 1.363 . S
C1286 C1291 1.379 . S
C1286 N1293 1.356 . S
C1287 C1286 1.363 . S
C1287 C1290 1.363 . S
N1288 C1290 1.356 . S
N1288 H1300 0.984 . S
N1288 H1301 0.985 . S
N1289 C1291 1.356 . S
N1289 H1294 0.984 . S
N1289 H1295 0.985 . S
C1290 C1284 1.379 . S
C1290 C1287 1.363 . S
C1290 N1288 1.356 . S
C1291 C1285 1.363 . S
C1291 C1286 1.379 . S
C1291 N1289 1.356 . S
N1292 C1284 1.356 . S
N1292 H1298 0.984 . S
N1292 H1299 0.984 . S
N1293 C1286 1.356 . S
N1293 H1296 0.984 . S
N1293 H1297 0.985 . S
H1294 N1289 0.984 . S
H1295 N1289 0.985 . S
H1296 N1293 0.984 . S
H1297 N1293 0.985 . S
H1298 N1292 0.984 . S
H1299 N1292 0.984 . S
H1300 N1288 0.984 . S
H1301 N1288 0.985 . S
C1302 C1303 1.363 . S
C1302 C1308 1.379 . S
C1302 N1310 1.356 . S
C1303 C1302 1.363 . S
C1303 C1309 1.363 . S
C1304 C1305 1.363 . S
C1304 C1309 1.379 . S
C1304 N1311 1.356 . S
C1305 C1304 1.363 . S
C1305 C1308 1.363 . S
N1306 C1308 1.356 . S
N1306 H1318 0.984 . S
N1306 H1319 0.985 . S
N1307 C1309 1.356 . S
N1307 H1312 0.984 . S
N1307 H1313 0.985 . S
C1308 C1302 1.379 . S
C1308 C1305 1.363 . S
C1308 N1306 1.356 . S
C1309 C1303 1.363 . S
C1309 C1304 1.379 . S
C1309 N1307 1.356 . S
N1310 C1302 1.356 . S
N1310 H1316 0.984 . S
N1310 H1317 0.984 . S
N1311 C1304 1.356 . S
N1311 H1314 0.984 1_455 S
N1311 H1315 0.985 . S
H1312 N1307 0.984 . S
H1313 N1307 0.985 . S
H1314 N1311 0.984 1_655 S
H1315 N1311 0.985 . S
H1316 N1310 0.984 . S
H1317 N1310 0.984 . S
H1318 N1306 0.984 . S
H1319 N1306 0.985 . S
C1320 C1321 1.363 . S
C1320 C1326 1.379 . S
C1320 N1328 1.356 . S
C1321 C1320 1.363 . S
C1321 C1327 1.363 . S
C1322 C1323 1.363 . S
C1322 C1327 1.379 . S
C1322 N1329 1.356 . S
C1323 C1322 1.363 . S
C1323 C1326 1.363 . S
N1324 C1326 1.356 . S
N1324 H1336 0.984 . S
N1324 H1337 0.985 . S
N1325 C1327 1.356 . S
N1325 H1330 0.974 1_565 S
N1325 H1331 0.985 . S
C1326 C1320 1.379 . S
C1326 C1323 1.363 . S
C1326 N1324 1.356 . S
C1327 C1321 1.363 . S
C1327 C1322 1.379 . S
C1327 N1325 1.356 . S
N1328 C1320 1.356 . S
N1328 H1334 0.984 . S
N1328 H1335 0.984 1_565 S
N1329 C1322 1.356 . S
N1329 H1332 0.984 . S
N1329 H1333 0.985 . S
H1330 N1325 0.974 1_545 S
H1331 N1325 0.985 . S
H1332 N1329 0.984 . S
H1333 N1329 0.985 . S
H1334 N1328 0.984 . S
H1335 N1328 0.984 1_545 S
H1336 N1324 0.984 . S
H1337 N1324 0.985 . S
C1338 C1339 1.363 . S
C1338 C1344 1.379 . S
C1338 N1346 1.356 . S
C1339 C1338 1.363 . S
C1339 C1345 1.363 . S
C1340 C1341 1.363 . S
C1340 C1345 1.379 . S
C1340 N1347 1.356 . S
C1341 C1340 1.363 . S
C1341 C1344 1.363 . S
N1342 C1344 1.356 . S
N1342 H1354 0.984 . S
N1342 H1355 0.985 . S
N1343 C1345 1.356 . S
N1343 H1348 0.984 . S
N1343 H1349 0.985 . S
C1344 C1338 1.379 . S
C1344 C1341 1.363 . S
C1344 N1342 1.356 . S
C1345 C1339 1.363 . S
C1345 C1340 1.379 . S
C1345 N1343 1.356 . S
N1346 C1338 1.356 . S
N1346 H1352 0.984 . S
N1346 H1353 0.984 . S
N1347 C1340 1.356 . S
N1347 H1350 0.984 . S
N1347 H1351 0.985 . S
H1348 N1343 0.984 . S
H1349 N1343 0.985 . S
H1350 N1347 0.984 . S
H1351 N1347 0.985 . S
H1352 N1346 0.984 . S
H1353 N1346 0.984 . S
H1354 N1342 0.984 . S
H1355 N1342 0.985 . S
C1356 C1357 1.363 . S
C1356 C1362 1.379 . S
C1356 N1364 1.356 . S
C1357 C1356 1.363 . S
C1357 C1363 1.363 . S
C1358 C1359 1.363 . S
C1358 C1363 1.379 . S
C1358 N1365 1.356 . S
C1359 C1358 1.363 . S
C1359 C1362 1.363 . S
N1360 C1362 1.356 . S
N1360 H1372 0.984 . S
N1360 H1373 0.985 . S
N1361 C1363 1.356 . S
N1361 H1366 0.984 . S
N1361 H1367 0.985 . S
C1362 C1356 1.379 . S
C1362 C1359 1.363 . S
C1362 N1360 1.356 . S
C1363 C1357 1.363 . S
C1363 C1358 1.379 . S
C1363 N1361 1.356 . S
N1364 C1356 1.356 . S
N1364 H1370 0.984 . S
N1364 H1371 0.984 . S
N1365 C1358 1.356 . S
N1365 H1368 0.984 . S
N1365 H1369 0.985 . S
H1366 N1361 0.984 . S
H1367 N1361 0.985 . S
H1368 N1365 0.984 . S
H1369 N1365 0.985 . S
H1370 N1364 0.984 . S
H1371 N1364 0.984 . S
H1372 N1360 0.984 . S
H1373 N1360 0.985 . S
C1374 C1375 1.363 . S
C1374 C1380 1.379 . S
C1374 N1382 1.356 . S
C1375 C1374 1.363 . S
C1375 C1381 1.363 . S
C1376 C1377 1.363 . S
C1376 C1381 1.379 . S
C1376 N1383 1.356 . S
C1377 C1376 1.363 . S
C1377 C1380 1.363 . S
N1378 C1380 1.356 1_565 S
N1378 H1390 0.984 . S
N1378 H1391 0.985 . S
N1379 C1381 1.356 . S
N1379 H1384 0.984 . S
N1379 H1385 0.985 . S
C1380 C1374 1.379 . S
C1380 C1377 1.363 . S
C1380 N1378 1.356 1_545 S
C1381 C1375 1.363 . S
C1381 C1376 1.379 . S
C1381 N1379 1.356 . S
N1382 C1374 1.356 . S
N1382 H1388 0.984 . S
N1382 H1389 0.984 . S
N1383 C1376 1.356 . S
N1383 H1386 0.984 . S
N1383 H1387 0.985 . S
H1384 N1379 0.984 . S
H1385 N1379 0.985 . S
H1386 N1383 0.984 . S
H1387 N1383 0.985 . S
H1388 N1382 0.984 . S
H1389 N1382 0.984 . S
H1390 N1378 0.984 . S
H1391 N1378 0.985 . S
C1392 C1393 1.363 . S
C1392 C1398 1.379 . S
C1392 N1400 1.356 . S
C1393 C1392 1.363 . S
C1393 C1399 1.363 . S
C1394 C1395 1.363 . S
C1394 C1399 1.379 . S
C1394 N1401 1.356 . S
C1395 C1394 1.363 . S
C1395 C1398 1.363 . S
N1396 C1398 1.356 . S
N1396 H1408 0.984 . S
N1396 H1409 0.985 . S
N1397 C1399 1.356 . S
N1397 H1402 0.984 . S
N1397 H1403 0.985 . S
C1398 C1392 1.379 . S
C1398 C1395 1.363 . S
C1398 N1396 1.356 . S
C1399 C1393 1.363 . S
C1399 C1394 1.379 . S
C1399 N1397 1.356 . S
N1400 C1392 1.356 . S
N1400 H1406 0.984 . S
N1400 H1407 0.984 . S
N1401 C1394 1.356 . S
N1401 H1404 0.984 . S
N1401 H1405 0.985 . S
H1402 N1397 0.984 . S
H1403 N1397 0.985 . S
H1404 N1401 0.984 . S
H1405 N1401 0.985 . S
H1406 N1400 0.984 . S
H1407 N1400 0.984 . S
H1408 N1396 0.984 . S
H1409 N1396 0.985 . S
C1410 C1411 1.363 . S
C1410 C1416 1.379 . S
C1410 N1418 1.356 . S
C1411 C1410 1.363 . S
C1411 C1417 1.363 . S
C1412 C1413 1.363 . S
C1412 C1417 1.379 . S
C1412 N1419 1.356 . S
C1413 C1412 1.363 . S
C1413 C1416 1.363 . S
N1414 C1416 1.356 . S
N1414 H1426 0.984 . S
N1414 H1427 0.985 . S
N1415 C1417 1.356 . S
N1415 H1420 0.984 . S
N1415 H1421 0.985 . S
C1416 C1410 1.379 . S
C1416 C1413 1.363 . S
C1416 N1414 1.356 . S
C1417 C1411 1.363 . S
C1417 C1412 1.379 . S
C1417 N1415 1.356 . S
N1418 C1410 1.356 . S
N1418 H1424 0.984 . S
N1418 H1425 0.984 . S
N1419 C1412 1.356 . S
N1419 H1422 0.984 . S
N1419 H1423 0.985 . S
H1420 N1415 0.984 . S
H1421 N1415 0.985 . S
H1422 N1419 0.984 . S
H1423 N1419 0.985 . S
H1424 N1418 0.984 . S
H1425 N1418 0.984 . S
H1426 N1414 0.984 . S
H1427 N1414 0.985 . S
C1428 C1429 1.363 . S
C1428 C1434 1.379 . S
C1428 N1436 1.356 . S
C1429 C1428 1.363 . S
C1429 C1435 1.363 . S
C1430 C1431 1.363 . S
C1430 C1435 1.379 . S
C1430 N1437 1.356 . S
C1431 C1430 1.363 . S
C1431 C1434 1.363 . S
N1432 C1434 1.356 . S
N1432 H1444 0.984 . S
N1432 H1445 0.985 . S
N1433 C1435 1.356 . S
N1433 H1438 0.984 . S
N1433 H1439 0.985 . S
C1434 C1428 1.379 . S
C1434 C1431 1.363 . S
C1434 N1432 1.356 . S
C1435 C1429 1.363 . S
C1435 C1430 1.379 . S
C1435 N1433 1.356 . S
N1436 C1428 1.356 . S
N1436 H1442 0.984 . S
N1436 H1443 0.984 . S
N1437 C1430 1.356 . S
N1437 H1440 0.984 . S
N1437 H1441 0.985 . S
H1438 N1433 0.984 . S
H1439 N1433 0.985 . S
H1440 N1437 0.984 . S
H1441 N1437 0.985 . S
H1442 N1436 0.984 . S
H1443 N1436 0.984 . S
H1444 N1432 0.984 . S
H1445 N1432 0.985 . S
C1446 C1447 1.363 . S
C1446 C1452 1.379 . S
C1446 N1454 1.356 . S
C1447 C1446 1.363 . S
C1447 C1453 1.363 . S
C1448 C1449 1.363 . S
C1448 C1453 1.379 . S
C1448 N1455 1.356 . S
C1449 C1448 1.363 . S
C1449 C1452 1.363 . S
N1450 C1452 1.356 . S
N1450 H1462 0.984 . S
N1450 H1463 0.985 . S
N1451 C1453 1.356 . S
N1451 H1456 0.984 . S
N1451 H1457 0.985 . S
C1452 C1446 1.379 . S
C1452 C1449 1.363 . S
C1452 N1450 1.356 . S
C1453 C1447 1.363 . S
C1453 C1448 1.379 . S
C1453 N1451 1.356 . S
N1454 C1446 1.356 . S
N1454 H1460 0.984 . S
N1454 H1461 0.984 . S
N1455 C1448 1.356 . S
N1455 H1458 0.984 . S
N1455 H1459 0.985 . S
H1456 N1451 0.984 . S
H1457 N1451 0.985 . S
H1458 N1455 0.984 . S
H1459 N1455 0.985 . S
H1460 N1454 0.984 . S
H1461 N1454 0.984 . S
H1462 N1450 0.984 . S
H1463 N1450 0.985 . S
C1464 C1465 1.363 . S
C1464 C1470 1.379 . S
C1464 N1472 1.356 . S
C1465 C1464 1.363 . S
C1465 C1471 1.363 . S
C1466 C1467 1.363 . S
C1466 C1471 1.379 . S
C1466 N1473 1.356 . S
C1467 C1466 1.363 . S
C1467 C1470 1.363 . S
N1468 C1470 1.356 . S
N1468 H1480 0.984 . S
N1468 H1481 0.985 . S
N1469 C1471 1.356 . S
N1469 H1474 0.984 . S
N1469 H1475 0.985 . S
C1470 C1464 1.379 . S
C1470 C1467 1.363 . S
C1470 N1468 1.356 . S
C1471 C1465 1.363 . S
C1471 C1466 1.379 . S
C1471 N1469 1.356 . S
N1472 C1464 1.356 . S
N1472 H1478 0.984 . S
N1472 H1479 0.984 . S
N1473 C1466 1.356 . S
N1473 H1476 0.984 . S
N1473 H1477 0.985 . S
H1474 N1469 0.984 . S
H1475 N1469 0.985 . S
H1476 N1473 0.984 . S
H1477 N1473 0.985 . S
H1478 N1472 0.984 . S
H1479 N1472 0.984 . S
H1480 N1468 0.984 . S
H1481 N1468 0.985 . S
C1482 C1483 1.363 . S
C1482 C1488 1.379 . S
C1482 N1490 1.356 . S
C1483 C1482 1.363 . S
C1483 C1489 1.363 . S
C1484 C1485 1.363 . S
C1484 C1489 1.379 . S
C1484 N1491 1.356 . S
C1485 C1484 1.363 . S
C1485 C1488 1.363 . S
N1486 C1488 1.356 . S
N1486 H1498 0.984 . S
N1486 H1499 0.985 . S
N1487 C1489 1.356 . S
N1487 H1492 0.984 . S
N1487 H1493 0.985 . S
C1488 C1482 1.379 . S
C1488 C1485 1.363 . S
C1488 N1486 1.356 . S
C1489 C1483 1.363 . S
C1489 C1484 1.379 . S
C1489 N1487 1.356 . S
N1490 C1482 1.356 . S
N1490 H1496 0.984 . S
N1490 H1497 0.984 . S
N1491 C1484 1.356 . S
N1491 H1494 0.984 . S
N1491 H1495 0.985 . S
H1492 N1487 0.984 . S
H1493 N1487 0.985 . S
H1494 N1491 0.984 . S
H1495 N1491 0.985 . S
H1496 N1490 0.984 . S
H1497 N1490 0.984 . S
H1498 N1486 0.984 . S
H1499 N1486 0.985 . S
C1500 C1501 1.363 . S
C1500 C1506 1.379 . S
C1500 N1508 1.356 . S
C1501 C1500 1.363 . S
C1501 C1507 1.363 . S
C1502 C1503 1.363 . S
C1502 C1507 1.379 . S
C1502 N1509 1.356 . S
C1503 C1502 1.363 . S
C1503 C1506 1.363 . S
N1504 C1506 1.356 . S
N1504 H1516 0.984 . S
N1504 H1517 0.985 . S
N1505 C1507 1.356 . S
N1505 H1510 0.984 . S
N1505 H1511 0.985 . S
C1506 C1500 1.379 . S
C1506 C1503 1.363 . S
C1506 N1504 1.356 . S
C1507 C1501 1.363 . S
C1507 C1502 1.379 . S
C1507 N1505 1.356 . S
N1508 C1500 1.356 . S
N1508 H1514 0.984 . S
N1508 H1515 0.984 . S
N1509 C1502 1.356 . S
N1509 H1512 0.984 . S
N1509 H1513 0.985 . S
H1510 N1505 0.984 . S
H1511 N1505 0.985 . S
H1512 N1509 0.984 . S
H1513 N1509 0.985 . S
H1514 N1508 0.984 . S
H1515 N1508 0.984 . S
H1516 N1504 0.984 . S
H1517 N1504 0.985 . S
C1518 C1519 1.363 . S
C1518 C1524 1.379 . S
C1518 N1526 1.356 . S
C1519 C1518 1.363 . S
C1519 C1525 1.363 . S
C1520 C1521 1.363 . S
C1520 C1525 1.379 . S
C1520 N1527 1.356 . S
C1521 C1520 1.363 . S
C1521 C1524 1.363 . S
N1522 C1524 1.356 . S
N1522 H1534 0.984 . S
N1522 H1535 0.985 . S
N1523 C1525 1.356 . S
N1523 H1528 0.984 . S
N1523 H1529 0.985 . S
C1524 C1518 1.379 . S
C1524 C1521 1.363 . S
C1524 N1522 1.356 . S
C1525 C1519 1.363 . S
C1525 C1520 1.379 . S
C1525 N1523 1.356 . S
N1526 C1518 1.356 . S
N1526 H1532 0.984 . S
N1526 H1533 0.984 . S
N1527 C1520 1.356 . S
N1527 H1530 0.984 . S
N1527 H1531 0.985 . S
H1528 N1523 0.984 . S
H1529 N1523 0.985 . S
H1530 N1527 0.984 . S
H1531 N1527 0.985 . S
H1532 N1526 0.984 . S
H1533 N1526 0.984 . S
H1534 N1522 0.984 . S
H1535 N1522 0.985 . S
C1536 C1537 1.363 . S
C1536 C1542 1.379 . S
C1536 N1544 1.356 . S
C1537 C1536 1.363 . S
C1537 C1543 1.363 . S
C1538 C1539 1.363 . S
C1538 C1543 1.379 . S
C1538 N1545 1.356 . S
C1539 C1538 1.363 . S
C1539 C1542 1.363 . S
N1540 C1542 1.356 . S
N1540 H1552 0.984 . S
N1540 H1553 0.985 . S
N1541 C1543 1.356 . S
N1541 H1546 0.984 . S
N1541 H1547 0.985 . S
C1542 C1536 1.379 . S
C1542 C1539 1.363 . S
C1542 N1540 1.356 . S
C1543 C1537 1.363 . S
C1543 C1538 1.379 . S
C1543 N1541 1.356 . S
N1544 C1536 1.356 . S
N1544 H1550 0.984 . S
N1544 H1551 0.984 . S
N1545 C1538 1.356 . S
N1545 H1548 0.984 . S
N1545 H1549 0.985 . S
H1546 N1541 0.984 . S
H1547 N1541 0.985 . S
H1548 N1545 0.984 . S
H1549 N1545 0.985 . S
H1550 N1544 0.984 . S
H1551 N1544 0.984 . S
H1552 N1540 0.984 . S
H1553 N1540 0.985 . S
C1554 C1555 1.363 . S
C1554 C1560 1.379 . S
C1554 N1562 1.356 . S
C1555 C1554 1.363 . S
C1555 C1561 1.363 . S
C1556 C1557 1.363 . S
C1556 C1561 1.379 . S
C1556 N1563 1.356 . S
C1557 C1556 1.363 . S
C1557 C1560 1.363 . S
N1558 C1560 1.356 . S
N1558 H1570 0.984 . S
N1558 H1571 0.985 . S
N1559 C1561 1.356 . S
N1559 H1564 0.984 . S
N1559 H1565 0.985 . S
C1560 C1554 1.379 . S
C1560 C1557 1.363 . S
C1560 N1558 1.356 . S
C1561 C1555 1.363 . S
C1561 C1556 1.379 . S
C1561 N1559 1.356 . S
N1562 C1554 1.356 . S
N1562 H1568 0.984 . S
N1562 H1569 0.984 . S
N1563 C1556 1.356 . S
N1563 H1566 0.984 . S
N1563 H1567 0.985 . S
H1564 N1559 0.984 . S
H1565 N1559 0.985 . S
H1566 N1563 0.984 . S
H1567 N1563 0.985 . S
H1568 N1562 0.984 . S
H1569 N1562 0.984 . S
H1570 N1558 0.984 . S
H1571 N1558 0.985 . S
C1572 C1573 1.363 . S
C1572 C1578 1.379 . S
C1572 N1580 1.356 . S
C1573 C1572 1.363 . S
C1573 C1579 1.363 . S
C1574 C1575 1.363 . S
C1574 C1579 1.379 . S
C1574 N1581 1.356 . S
C1575 C1574 1.363 . S
C1575 C1578 1.363 . S
N1576 C1578 1.356 . S
N1576 H1588 0.984 . S
N1576 H1589 0.985 . S
N1577 C1579 1.356 . S
N1577 H1582 0.984 . S
N1577 H1583 0.985 . S
C1578 C1572 1.379 . S
C1578 C1575 1.363 . S
C1578 N1576 1.356 . S
C1579 C1573 1.363 . S
C1579 C1574 1.379 . S
C1579 N1577 1.356 . S
N1580 C1572 1.356 . S
N1580 H1586 0.984 . S
N1580 H1587 0.984 . S
N1581 C1574 1.356 . S
N1581 H1584 0.984 . S
N1581 H1585 0.985 . S
H1582 N1577 0.984 . S
H1583 N1577 0.985 . S
H1584 N1581 0.984 . S
H1585 N1581 0.985 . S
H1586 N1580 0.984 . S
H1587 N1580 0.984 . S
H1588 N1576 0.984 . S
H1589 N1576 0.985 . S
C1590 C1591 1.363 . S
C1590 C1596 1.379 . S
C1590 N1598 1.356 . S
C1591 C1590 1.363 . S
C1591 C1597 1.363 . S
C1592 C1593 1.363 . S
C1592 C1597 1.379 . S
C1592 N1599 1.356 . S
C1593 C1592 1.363 . S
C1593 C1596 1.363 . S
N1594 C1596 1.356 . S
N1594 H1606 0.984 . S
N1594 H1607 0.985 . S
N1595 C1597 1.356 . S
N1595 H1600 0.984 . S
N1595 H1601 0.985 . S
C1596 C1590 1.379 . S
C1596 C1593 1.363 . S
C1596 N1594 1.356 . S
C1597 C1591 1.363 . S
C1597 C1592 1.379 . S
C1597 N1595 1.356 . S
N1598 C1590 1.356 . S
N1598 H1604 0.984 . S
N1598 H1605 0.984 . S
N1599 C1592 1.356 . S
N1599 H1602 0.984 . S
N1599 H1603 0.985 . S
H1600 N1595 0.984 . S
H1601 N1595 0.985 . S
H1602 N1599 0.984 . S
H1603 N1599 0.985 . S
H1604 N1598 0.984 . S
H1605 N1598 0.984 . S
H1606 N1594 0.984 . S
H1607 N1594 0.985 . S
C1608 C1609 1.363 . S
C1608 C1614 1.379 . S
C1608 N1616 1.356 . S
C1609 C1608 1.363 . S
C1609 C1615 1.363 . S
C1610 C1611 1.363 . S
C1610 C1615 1.379 . S
C1610 N1617 1.356 . S
C1611 C1610 1.363 . S
C1611 C1614 1.363 . S
N1612 C1614 1.356 . S
N1612 H1624 0.984 . S
N1612 H1625 0.985 . S
N1613 C1615 1.356 . S
N1613 H1618 0.984 . S
N1613 H1619 0.985 . S
C1614 C1608 1.379 . S
C1614 C1611 1.363 . S
C1614 N1612 1.356 . S
C1615 C1609 1.363 . S
C1615 C1610 1.379 . S
C1615 N1613 1.356 . S
N1616 C1608 1.356 . S
N1616 H1622 0.984 . S
N1616 H1623 0.984 . S
N1617 C1610 1.356 . S
N1617 H1620 0.984 . S
N1617 H1621 0.985 . S
H1618 N1613 0.984 . S
H1619 N1613 0.985 . S
H1620 N1617 0.984 . S
H1621 N1617 0.985 . S
H1622 N1616 0.984 . S
H1623 N1616 0.984 . S
H1624 N1612 0.984 . S
H1625 N1612 0.985 . S
C1626 C1627 1.363 . S
C1626 C1632 1.379 . S
C1626 N1634 1.356 . S
C1627 C1626 1.363 . S
C1627 C1633 1.363 . S
C1628 C1629 1.363 . S
C1628 C1633 1.379 . S
C1628 N1635 1.356 . S
C1629 C1628 1.363 . S
C1629 C1632 1.363 . S
N1630 C1632 1.356 . S
N1630 H1642 0.984 . S
N1630 H1643 0.985 . S
N1631 C1633 1.356 . S
N1631 H1636 0.984 . S
N1631 H1637 0.985 . S
C1632 C1626 1.379 . S
C1632 C1629 1.363 . S
C1632 N1630 1.356 . S
C1633 C1627 1.363 . S
C1633 C1628 1.379 . S
C1633 N1631 1.356 . S
N1634 C1626 1.356 . S
N1634 H1640 0.984 . S
N1634 H1641 0.984 . S
N1635 C1628 1.356 . S
N1635 H1638 0.984 . S
N1635 H1639 0.985 . S
H1636 N1631 0.984 . S
H1637 N1631 0.985 . S
H1638 N1635 0.984 . S
H1639 N1635 0.985 . S
H1640 N1634 0.984 . S
H1641 N1634 0.984 . S
H1642 N1630 0.984 . S
H1643 N1630 0.985 . S
C1644 C1645 1.363 . S
C1644 C1650 1.379 . S
C1644 N1652 1.356 . S
C1645 C1644 1.363 . S
C1645 C1651 1.363 . S
C1646 C1647 1.363 . S
C1646 C1651 1.379 . S
C1646 N1653 1.356 . S
C1647 C1646 1.363 . S
C1647 C1650 1.363 . S
N1648 C1650 1.356 . S
N1648 H1660 0.984 . S
N1648 H1661 0.985 . S
N1649 C1651 1.356 . S
N1649 H1654 0.984 . S
N1649 H1655 0.985 . S
C1650 C1644 1.379 . S
C1650 C1647 1.363 . S
C1650 N1648 1.356 . S
C1651 C1645 1.363 . S
C1651 C1646 1.379 . S
C1651 N1649 1.356 . S
N1652 C1644 1.356 . S
N1652 H1658 0.984 . S
N1652 H1659 0.984 . S
N1653 C1646 1.356 . S
N1653 H1656 0.984 . S
N1653 H1657 0.985 . S
H1654 N1649 0.984 . S
H1655 N1649 0.985 . S
H1656 N1653 0.984 . S
H1657 N1653 0.985 . S
H1658 N1652 0.984 . S
H1659 N1652 0.984 . S
H1660 N1648 0.984 . S
H1661 N1648 0.985 . S
C1662 C1663 1.363 . S
C1662 C1668 1.379 . S
C1662 N1670 1.356 . S
C1663 C1662 1.363 . S
C1663 C1669 1.363 . S
C1664 C1665 1.363 . S
C1664 C1669 1.379 . S
C1664 N1671 1.356 . S
C1665 C1664 1.363 . S
C1665 C1668 1.363 . S
N1666 C1668 1.356 . S
N1666 H1678 0.984 . S
N1666 H1679 0.985 . S
N1667 C1669 1.356 . S
N1667 H1672 0.984 . S
N1667 H1673 0.985 . S
C1668 C1662 1.379 . S
C1668 C1665 1.363 . S
C1668 N1666 1.356 . S
C1669 C1663 1.363 . S
C1669 C1664 1.379 . S
C1669 N1667 1.356 . S
N1670 C1662 1.356 . S
N1670 H1676 0.984 . S
N1670 H1677 0.984 . S
N1671 C1664 1.356 . S
N1671 H1674 0.984 . S
N1671 H1675 0.985 . S
H1672 N1667 0.984 . S
H1673 N1667 0.985 . S
H1674 N1671 0.984 . S
H1675 N1671 0.985 . S
H1676 N1670 0.984 . S
H1677 N1670 0.984 . S
H1678 N1666 0.984 . S
H1679 N1666 0.985 . S
C1680 C1681 1.363 . S
C1680 C1686 1.379 . S
C1680 N1688 1.356 . S
C1681 C1680 1.363 . S
C1681 C1687 1.363 . S
C1682 C1683 1.363 . S
C1682 C1687 1.379 . S
C1682 N1689 1.356 . S
C1683 C1682 1.363 . S
C1683 C1686 1.363 . S
N1684 C1686 1.356 . S
N1684 H1696 0.984 . S
N1684 H1697 0.985 . S
N1685 C1687 1.356 . S
N1685 H1690 0.984 . S
N1685 H1691 0.985 . S
C1686 C1680 1.379 . S
C1686 C1683 1.363 . S
C1686 N1684 1.356 . S
C1687 C1681 1.363 . S
C1687 C1682 1.379 . S
C1687 N1685 1.356 . S
N1688 C1680 1.356 . S
N1688 H1694 0.984 . S
N1688 H1695 0.984 . S
N1689 C1682 1.356 . S
N1689 H1692 0.984 . S
N1689 H1693 0.985 . S
H1690 N1685 0.984 . S
H1691 N1685 0.985 . S
H1692 N1689 0.984 . S
H1693 N1689 0.985 . S
H1694 N1688 0.984 . S
H1695 N1688 0.984 . S
H1696 N1684 0.984 . S
H1697 N1684 0.985 . S
C1698 C1699 1.363 . S
C1698 C1704 1.379 . S
C1698 N1706 1.356 . S
C1699 C1698 1.363 . S
C1699 C1705 1.363 . S
C1700 C1701 1.363 . S
C1700 C1705 1.379 . S
C1700 N1707 1.356 . S
C1701 C1700 1.363 . S
C1701 C1704 1.363 . S
N1702 C1704 1.356 . S
N1702 H1714 0.984 . S
N1702 H1715 0.985 . S
N1703 C1705 1.356 . S
N1703 H1708 0.984 . S
N1703 H1709 0.985 . S
C1704 C1698 1.379 . S
C1704 C1701 1.363 . S
C1704 N1702 1.356 . S
C1705 C1699 1.363 . S
C1705 C1700 1.379 . S
C1705 N1703 1.356 . S
N1706 C1698 1.356 . S
N1706 H1712 0.984 . S
N1706 H1713 0.984 . S
N1707 C1700 1.356 . S
N1707 H1710 0.984 . S
N1707 H1711 0.985 . S
H1708 N1703 0.984 . S
H1709 N1703 0.985 . S
H1710 N1707 0.984 . S
H1711 N1707 0.985 . S
H1712 N1706 0.984 . S
H1713 N1706 0.984 . S
H1714 N1702 0.984 . S
H1715 N1702 0.985 . S
C1716 C1717 1.363 . S
C1716 C1722 1.379 . S
C1716 N1724 1.356 . S
C1717 C1716 1.363 . S
C1717 C1723 1.363 . S
C1718 C1719 1.363 . S
C1718 C1723 1.379 . S
C1718 N1725 1.356 . S
C1719 C1718 1.363 . S
C1719 C1722 1.363 . S
N1720 C1722 1.356 . S
N1720 H1732 0.984 . S
N1720 H1733 0.985 . S
N1721 C1723 1.356 . S
N1721 H1726 0.984 . S
N1721 H1727 0.985 . S
C1722 C1716 1.379 . S
C1722 C1719 1.363 . S
C1722 N1720 1.356 . S
C1723 C1717 1.363 . S
C1723 C1718 1.379 . S
C1723 N1721 1.356 . S
N1724 C1716 1.356 . S
N1724 H1730 0.984 . S
N1724 H1731 0.984 . S
N1725 C1718 1.356 . S
N1725 H1728 0.984 . S
N1725 H1729 0.985 . S
H1726 N1721 0.984 . S
H1727 N1721 0.985 . S
H1728 N1725 0.984 . S
H1729 N1725 0.985 . S
H1730 N1724 0.984 . S
H1731 N1724 0.984 . S
H1732 N1720 0.984 . S
H1733 N1720 0.985 . S
C1734 C1735 1.363 . S
C1734 C1740 1.379 . S
C1734 N1742 1.356 . S
C1735 C1734 1.363 . S
C1735 C1741 1.363 . S
C1736 C1737 1.363 . S
C1736 C1741 1.379 . S
C1736 N1743 1.356 . S
C1737 C1736 1.363 . S
C1737 C1740 1.363 . S
N1738 C1740 1.356 . S
N1738 H1750 0.984 . S
N1738 H1751 0.985 . S
N1739 C1741 1.356 . S
N1739 H1744 0.984 . S
N1739 H1745 0.985 . S
C1740 C1734 1.379 . S
C1740 C1737 1.363 . S
C1740 N1738 1.356 . S
C1741 C1735 1.363 . S
C1741 C1736 1.379 . S
C1741 N1739 1.356 . S
N1742 C1734 1.356 . S
N1742 H1748 0.984 . S
N1742 H1749 0.984 . S
N1743 C1736 1.356 . S
N1743 H1746 0.984 . S
N1743 H1747 0.985 . S
H1744 N1739 0.984 . S
H1745 N1739 0.985 . S
H1746 N1743 0.984 . S
H1747 N1743 0.985 . S
H1748 N1742 0.984 . S
H1749 N1742 0.984 . S
H1750 N1738 0.984 . S
H1751 N1738 0.985 . S
C1752 C1753 1.363 . S
C1752 C1758 1.379 . S
C1752 N1760 1.356 . S
C1753 C1752 1.363 . S
C1753 C1759 1.363 . S
C1754 C1755 1.363 . S
C1754 C1759 1.379 . S
C1754 N1761 1.356 . S
C1755 C1754 1.363 . S
C1755 C1758 1.363 . S
N1756 C1758 1.356 . S
N1756 H1768 0.984 . S
N1756 H1769 0.985 . S
N1757 C1759 1.356 . S
N1757 H1762 0.984 . S
N1757 H1763 0.985 . S
C1758 C1752 1.379 . S
C1758 C1755 1.363 . S
C1758 N1756 1.356 . S
C1759 C1753 1.363 . S
C1759 C1754 1.379 . S
C1759 N1757 1.356 . S
N1760 C1752 1.356 . S
N1760 H1766 0.984 . S
N1760 H1767 0.984 . S
N1761 C1754 1.356 . S
N1761 H1764 0.984 . S
N1761 H1765 0.985 . S
H1762 N1757 0.984 . S
H1763 N1757 0.985 . S
H1764 N1761 0.984 . S
H1765 N1761 0.985 . S
H1766 N1760 0.984 . S
H1767 N1760 0.984 . S
H1768 N1756 0.984 . S
H1769 N1756 0.985 . S
C1770 C1771 1.363 . S
C1770 C1776 1.379 . S
C1770 N1778 1.356 . S
C1771 C1770 1.363 . S
C1771 C1777 1.363 . S
C1772 C1773 1.363 . S
C1772 C1777 1.379 . S
C1772 N1779 1.356 . S
C1773 C1772 1.363 . S
C1773 C1776 1.363 . S
N1774 C1776 1.356 . S
N1774 H1786 0.984 . S
N1774 H1787 0.985 . S
N1775 C1777 1.356 . S
N1775 H1780 0.984 . S
N1775 H1781 0.985 . S
C1776 C1770 1.379 . S
C1776 C1773 1.363 . S
C1776 N1774 1.356 . S
C1777 C1771 1.363 . S
C1777 C1772 1.379 . S
C1777 N1775 1.356 . S
N1778 C1770 1.356 . S
N1778 H1784 0.984 . S
N1778 H1785 0.984 . S
N1779 C1772 1.356 . S
N1779 H1782 0.984 . S
N1779 H1783 0.985 . S
H1780 N1775 0.984 . S
H1781 N1775 0.985 . S
H1782 N1779 0.984 . S
H1783 N1779 0.985 . S
H1784 N1778 0.984 . S
H1785 N1778 0.984 . S
H1786 N1774 0.984 . S
H1787 N1774 0.985 . S
C1788 C1789 1.363 . S
C1788 C1794 1.379 . S
C1788 N1796 1.356 . S
C1789 C1788 1.363 . S
C1789 C1795 1.363 . S
C1790 C1791 1.363 . S
C1790 C1795 1.379 . S
C1790 N1797 1.356 . S
C1791 C1790 1.363 . S
C1791 C1794 1.363 . S
N1792 C1794 1.356 . S
N1792 H1804 0.984 . S
N1792 H1805 0.985 . S
N1793 C1795 1.356 . S
N1793 H1798 0.984 . S
N1793 H1799 0.985 . S
C1794 C1788 1.379 . S
C1794 C1791 1.363 . S
C1794 N1792 1.356 . S
C1795 C1789 1.363 . S
C1795 C1790 1.379 . S
C1795 N1793 1.356 . S
N1796 C1788 1.356 . S
N1796 H1802 0.984 . S
N1796 H1803 0.984 . S
N1797 C1790 1.356 . S
N1797 H1800 0.984 . S
N1797 H1801 0.985 . S
H1798 N1793 0.984 . S
H1799 N1793 0.985 . S
H1800 N1797 0.984 . S
H1801 N1797 0.985 . S
H1802 N1796 0.984 . S
H1803 N1796 0.984 . S
H1804 N1792 0.984 . S
H1805 N1792 0.985 . S
C1806 C1807 1.363 . S
C1806 C1812 1.379 . S
C1806 N1814 1.356 . S
C1807 C1806 1.363 . S
C1807 C1813 1.363 . S
C1808 C1809 1.363 . S
C1808 C1813 1.379 . S
C1808 N1815 1.356 . S
C1809 C1808 1.363 . S
C1809 C1812 1.363 . S
N1810 C1812 1.356 . S
N1810 H1822 0.984 . S
N1810 H1823 0.985 . S
N1811 C1813 1.356 . S
N1811 H1816 0.984 . S
N1811 H1817 0.985 . S
C1812 C1806 1.379 . S
C1812 C1809 1.363 . S
C1812 N1810 1.356 . S
C1813 C1807 1.363 . S
C1813 C1808 1.379 . S
C1813 N1811 1.356 . S
N1814 C1806 1.356 . S
N1814 H1820 0.984 . S
N1814 H1821 0.984 . S
N1815 C1808 1.356 . S
N1815 H1818 0.984 . S
N1815 H1819 0.985 . S
H1816 N1811 0.984 . S
H1817 N1811 0.985 . S
H1818 N1815 0.984 . S
H1819 N1815 0.985 . S
H1820 N1814 0.984 . S
H1821 N1814 0.984 . S
H1822 N1810 0.984 . S
H1823 N1810 0.985 . S
C529 C9 1.553 . S
C531 C404 1.459 . S
C547 C422 1.459 . S
C549 C31 1.553 . S
C565 C356 1.459 . S
C567 C53 1.553 1_565 S
C583 C71 1.553 1_545 S
C585 C378 1.459 . S
C601 C488 1.459 . S
C603 C93 1.553 . S
C619 C466 1.459 . S
C621 C119 1.553 1_554 S
C637 C514 1.459 . S
C639 C137 1.553 . S
C655 C448 1.459 . S
C657 C159 1.553 1_556 S
C673 C185 1.553 . S
C675 C294 1.459 . S
C691 C203 1.553 1_455 S
C693 C338 1.459 . S
C709 C225 1.553 . S
C711 C316 1.459 . S
C727 C268 1.459 . S
C729 C251 1.553 1_655 S
C745 C140 1.459 . S
C747 C271 1.553 . S
C763 C292 1.553 . S
C765 C162 1.459 . S
C781 C96 1.459 . S
C783 C314 1.553 1_545 S
C799 C114 1.459 . S
C801 C336 1.553 1_565 S
C817 C359 1.553 . S
C819 C228 1.459 . S
C835 C206 1.459 . S
C837 C381 1.553 1_556 S
C853 C246 1.459 . S
C855 C402 1.553 . S
C871 C425 1.553 1_554 S
C873 C180 1.459 . S
C889 C446 1.553 . S
C891 C26 1.459 . S
C907 C469 1.553 1_655 S
C909 C74 1.459 . S
C925 C491 1.553 . S
C927 C48 1.459 . S
C943 C4 1.459 . S
C945 C512 1.553 1_455 S
C961 C423 1.247 . S
C963 C5 1.205 . S
C979 C405 1.236 . S
C981 C27 1.205 . S
C997 C379 1.247 . S
C999 C49 1.205 . S
C1015 C357 1.236 . S
C1017 C75 1.205 . S
C1033 C97 1.205 . S
C1035 C515 1.247 . S
C1051 C115 1.205 . S
C1053 C449 1.236 . S
C1069 C489 1.236 . S
C1071 C141 1.205 . S
C1087 C467 1.247 . S
C1089 C163 1.205 . S
C1105 C317 1.247 . S
C1107 C181 1.205 . S
C1123 C207 1.205 . S
C1125 C269 1.236 . S
C1141 C295 1.236 . S
C1143 C229 1.205 . S
C1159 C339 1.247 . S
C1161 C247 1.205 . S
C1177 C270 1.205 . S
C1179 C161 1.247 . S
C1195 C139 1.236 . S
C1197 C293 1.205 . S
C1213 C315 1.205 . S
C1215 C116 1.247 . S
C1231 C337 1.205 . S
C1233 C95 1.236 . S
C1249 C248 1.247 . S
C1251 C358 1.205 . S
C1267 C182 1.236 . S
C1269 C380 1.205 . S
C1285 C403 1.205 . S
C1287 C227 1.236 . S
C1303 C424 1.205 . S
C1305 C205 1.247 . S
C1321 C50 1.247 . S
C1323 C447 1.205 . S
C1339 C6 1.236 . S
C1341 C468 1.205 . S
C1357 C490 1.205 . S
C1359 C28 1.236 . S
C1375 C513 1.205 . S
C1377 C73 1.247 . S
C1393 C8 1.085 . S
C1395 C94 1.071 . S
C1411 C117 1.071 . S
C1413 C30 1.085 . S
C1429 C138 1.071 . S
C1431 C52 1.085 . S
C1447 C160 1.071 . S
C1449 C70 1.085 . S
C1465 C183 1.071 . S
C1467 C92 1.085 . S
C1483 C118 1.085 . S
C1485 C249 1.071 . S
C1501 C136 1.085 . S
C1503 C204 1.071 . S
C1519 C226 1.071 . S
C1521 C158 1.085 . S
C1537 C184 1.085 . S
C1539 C7 1.071 . S
C1555 C202 1.085 . S
C1557 C51 1.071 . S
C1573 C72 1.071 . S
C1575 C224 1.085 . S
C1591 C29 1.071 . S
C1593 C250 1.085 . S
C1609 C272 1.085 . S
C1611 C361 1.071 . S
C1627 C383 1.071 . S
C1629 C290 1.085 . S
C1645 C401 1.071 . S
C1647 C312 1.085 . S
C1663 C427 1.071 . S
C1665 C334 1.085 . S
C1681 C360 1.085 . S
C1683 C445 1.071 . S
C1699 C511 1.071 . S
C1701 C382 1.085 . S
C1717 C400 1.085 . S
C1719 C471 1.071 . S
C1735 C426 1.085 . S
C1737 C493 1.071 . S
C1753 C273 1.071 . S
C1755 C444 1.085 . S
C1771 C313 1.071 . S
C1773 C470 1.085 . S
C1789 C335 1.071 . S
C1791 C492 1.085 . S
C1807 C291 1.071 . S
C1809 C510 1.085 . S
