# Generated by pormake.
# Topology hcp, (12)-cn, num edge types: 1
# Building blocks:
#     Node 0, Type 0, BuildingBlock: ENOWUB_clean_sbu_0, # of connection points: 12
#     Node 1, Type 0, BuildingBlock: ENOWUB_clean_sbu_0, # of connection points: 12
#     Edge 2, Type (0, 0), BuildingBlock: XIVTED_clean_linker_0, # of connection points: 2
#     Edge 3, Type (0, 0), BuildingBlock: XIVTED_clean_linker_0, # of connection points: 2
#     Edge 4, Type (0, 0), BuildingBlock: XIVTED_clean_linker_0, # of connection points: 2
#     Edge 5, Type (0, 0), BuildingBlock: XIVTED_clean_linker_0, # of connection points: 2
#     Edge 6, Type (0, 0), BuildingBlock: XIVTED_clean_linker_0, # of connection points: 2
#     Edge 7, Type (0, 0), BuildingBlock: XIVTED_clean_linker_0, # of connection points: 2
#     Edge 8, Type (0, 0), BuildingBlock: XIVTED_clean_linker_0, # of connection points: 2
#     Edge 9, Type (0, 0), BuildingBlock: XIVTED_clean_linker_0, # of connection points: 2
#     Edge 10, Type (0, 0), BuildingBlock: XIVTED_clean_linker_0, # of connection points: 2
#     Edge 11, Type (0, 0), BuildingBlock: XIVTED_clean_linker_0, # of connection points: 2
#     Edge 12, Type (0, 0), BuildingBlock: XIVTED_clean_linker_0, # of connection points: 2
#     Edge 13, Type (0, 0), BuildingBlock: XIVTED_clean_linker_0, # of connection points: 2
# Relax obj value: 0.186
# Max RMSD: 0.270
# Mean RMSD: 0.270
data_MOF--net-hcp--node1-ENOWUB_clean_sbu_0--edge1-XIVTED_clean_linker_0
_symmetry_space_group_name_H-M    P1
_symmetry_Int_Tables_number       1
_symmetry_cell_setting            triclinic
loop_
_symmetry_equiv_pos_as_xyz
'x, y, z'
_cell_length_a     18.906644
_cell_length_b     18.848311
_cell_length_c     30.773827
_cell_angle_alpha  90.077313
_cell_angle_beta   89.95954
_cell_angle_gamma 120.05797
loop_
_atom_site_label
_atom_site_type_symbol
_atom_site_fract_x
_atom_site_fract_y
_atom_site_fract_z
_atom_type_partial_charge
O0 O 0.73252 0.25949 0.13643 0.0
O1 O 0.66672 0.21613 0.2275 0.0
O2 O 0.72405 0.44183 0.22775 0.0
O3 O 0.62885 0.31018 0.17583 0.0
O4 O 0.76071 0.3479 0.27725 0.0
Zr5 Zr 0.75837 0.34668 0.20116 0.0
Zr6 Zr 0.66785 0.21835 0.30383 0.0
Zr7 Zr 0.53644 0.18089 0.20235 0.0
O8 O 0.63192 0.3113 0.33218 0.0
O9 O 0.4992 0.2737 0.22869 0.0
O10 O 0.53762 0.18055 0.27839 0.0
Zr11 Zr 0.7241 0.44068 0.30415 0.0
Zr12 Zr 0.59344 0.40363 0.20235 0.0
Zr13 Zr 0.50252 0.27463 0.30492 0.0
O14 O 0.5944 0.40457 0.27844 0.0
O15 O 0.52331 0.37343 0.36241 0.0
O16 O 0.37495 0.14932 0.28741 0.0
O17 O 0.88495 0.47375 0.21789 0.0
O18 O 0.72629 0.56807 0.28579 0.0
O19 O 0.53698 0.05435 0.21947 0.0
O20 O 0.47097 0.20407 0.13888 0.0
O21 O 0.8027 0.42074 0.36174 0.0
O22 O 0.57126 0.1409 0.36232 0.0
O23 O 0.6782 0.46503 0.13708 0.0
O24 O 0.46713 0.4033 0.22053 0.0
O25 O 0.79335 0.21757 0.28496 0.0
O26 O 0.65966 0.46966 0.36443 0.0
O27 O 0.59783 0.15816 0.1396 0.0
O28 O 0.39613 0.09964 0.22352 0.0
O29 O 0.86311 0.52431 0.28132 0.0
O30 O 0.84061 0.28786 0.22077 0.0
O31 O 0.41778 0.32966 0.28363 0.0
O32 O 0.4762 0.18236 0.36522 0.0
O33 O 0.77986 0.43227 0.13917 0.0
C34 C 0.66869 0.19458 0.12169 0.0
O35 O 0.7615 0.28384 0.36361 0.0
O36 O 0.61179 0.07829 0.28207 0.0
C37 C 0.58541 0.43885 0.37796 0.0
C38 C 0.35146 0.09772 0.25552 0.0
C39 C 0.90784 0.52624 0.24935 0.0
C40 C 0.69777 0.59082 0.25387 0.0
C41 C 0.56766 0.03241 0.25069 0.0
C42 C 0.46972 0.26766 0.12396 0.0
C43 C 0.80533 0.35819 0.37725 0.0
C44 C 0.50693 0.13871 0.37853 0.0
C45 C 0.74284 0.46661 0.12182 0.0
C46 C 0.4152 0.37302 0.25212 0.0
C47 C 0.84399 0.24578 0.25272 0.0
O48 O 0.50596 0.33957 0.14099 0.0
O49 O 0.6542 0.5452 0.22226 0.0
O50 O 0.35172 0.80898 0.86223 0.0
O51 O 0.29046 0.63772 0.83185 0.0
O52 O 0.25748 0.73356 0.72721 0.0
O53 O 0.38597 0.76865 0.77871 0.0
O54 O 0.16262 0.60187 0.77641 0.0
Zr55 Zr 0.2555 0.7312 0.80352 0.0
Zr56 Zr 0.19861 0.50877 0.80314 0.0
Zr57 Zr 0.42043 0.67428 0.80555 0.0
O58 O 0.20013 0.50786 0.72683 0.0
O59 O 0.42489 0.67595 0.72927 0.0
O60 O 0.32885 0.54464 0.77834 0.0
Zr61 Zr 0.16612 0.60313 0.70037 0.0
Zr62 Zr 0.38806 0.76885 0.70265 0.0
Zr63 Zr 0.33137 0.54631 0.70224 0.0
O64 O 0.29615 0.63975 0.67558 0.0
O65 O 0.24802 0.48587 0.63631 0.0
O66 O 0.45653 0.54533 0.72146 0.0
O67 O 0.12989 0.73141 0.78446 0.0
O68 O 0.1925 0.69125 0.6362 0.0
O69 O 0.39732 0.57612 0.86408 0.0
O70 O 0.54839 0.79981 0.78835 0.0
O71 O 0.03925 0.47546 0.71625 0.0
O72 O 0.19693 0.38148 0.78487 0.0
O73 O 0.38755 0.89547 0.71981 0.0
O74 O 0.45349 0.74578 0.63905 0.0
O75 O 0.11978 0.52866 0.86071 0.0
O76 O 0.14629 0.51859 0.63802 0.0
O77 O 0.44646 0.76718 0.86559 0.0
O78 O 0.50486 0.61844 0.78485 0.0
O79 O 0.08318 0.66121 0.72013 0.0
O80 O 0.16195 0.66576 0.86324 0.0
O81 O 0.42277 0.61167 0.64237 0.0
O82 O 0.26996 0.40454 0.72166 0.0
O83 O 0.31156 0.87126 0.782 0.0
C84 C 0.41585 0.81112 0.87867 0.0
O85 O 0.05991 0.42508 0.77995 0.0
O86 O 0.261 0.47993 0.86397 0.0
C87 C 0.1837 0.48452 0.62073 0.0
C88 C 0.50781 0.5751 0.75337 0.0
C89 C 0.07936 0.70301 0.75217 0.0
C90 C 0.25646 0.75639 0.62187 0.0
C91 C 0.33423 0.51065 0.87893 0.0
C92 C 0.57235 0.85145 0.75649 0.0
C93 C 0.01577 0.42298 0.74769 0.0
C94 C 0.22591 0.35881 0.75307 0.0
C95 C 0.35627 0.91728 0.75085 0.0
C96 C 0.45776 0.68323 0.62498 0.0
C97 C 0.11773 0.59135 0.87658 0.0
O98 O 0.52812 0.84964 0.72433 0.0
O99 O 0.32718 0.79245 0.63997 0.0
H100 H 0.52184 0.80718 0.93771 0.0
H101 H 0.64386 0.24182 0.04322 0.0
H102 H 0.4171 0.95444 0.89795 0.0
H103 H 0.68605 0.06252 0.10611 0.0
H104 H 0.58917 0.15141 0.97978 0.0
H105 H 0.60509 0.91166 0.99123 0.0
C106 C 0.51604 0.86137 0.94031 0.0
C107 C 0.46161 0.87153 0.91348 0.0
C108 C 0.61264 0.13285 0.0069 0.0
C109 C 0.55839 -0.00762 0.97434 0.0
C110 C 0.64546 0.18517 0.04266 0.0
C111 C 0.67119 0.16018 0.07935 0.0
C112 C 0.6054 0.05497 0.00807 0.0
C113 C 0.66869 0.08467 0.07793 0.0
C114 C 0.56393 0.92113 0.9708 0.0
C115 C 0.45721 0.94334 0.91833 0.0
N116 N 0.63555 0.03429 0.04303 0.0
N117 N 0.50512 0.00111 0.94809 0.0
H118 H 0.40772 0.69415 0.54399 0.0
H119 H 0.44292 0.43818 0.39578 0.0
H120 H 0.59391 0.67241 0.61309 0.0
H121 H 0.69415 0.5472 0.43727 0.0
H122 H 0.42148 0.52036 0.45006 0.0
H123 H 0.44208 0.64498 0.47781 0.0
C124 C 0.45823 0.68238 0.54464 0.0
C125 C 0.49878 0.68803 0.5837 0.0
C126 C 0.48169 0.52744 0.44679 0.0
C127 C 0.53523 0.62752 0.50929 0.0
C128 C 0.49356 0.4793 0.41633 0.0
C129 C 0.57033 0.48535 0.4121 0.0
C130 C 0.54687 0.58155 0.47355 0.0
C131 C 0.63392 0.54048 0.43937 0.0
C132 C 0.47641 0.65231 0.50725 0.0
C133 C 0.56209 0.66972 0.58333 0.0
N134 N 0.62048 0.58561 0.46928 0.0
N135 N 0.57797 0.63956 0.54679 0.0
H136 H 0.69161 0.39541 0.04329 0.0
H137 H 0.12296 0.70344 0.93482 0.0
H138 H 0.87545 0.6153 0.10585 0.0
H139 H -0.02565 0.45002 0.89656 0.0
H140 H 0.02017 0.68416 0.98875 0.0
H141 H 0.77946 0.42985 0.97894 0.0
C142 C 0.74877 0.45308 0.04251 0.0
C143 C 0.77586 0.50359 0.07937 0.0
C144 C 0.01 0.6328 0.96854 0.0
C145 C 0.87787 0.54166 0.007 0.0
C146 C 0.06878 0.64356 0.9378 0.0
C147 C 0.0578 0.57795 0.91132 0.0
C148 C 0.93892 0.55613 0.97269 0.0
C149 C -0.01396 0.50196 0.91667 0.0
C150 C 0.79955 0.47185 0.00622 0.0
C151 C 0.85177 0.57594 0.07759 0.0
N152 N 0.92924 0.49316 0.94671 0.0
N153 N 0.90056 0.59251 0.04215 0.0
H154 H 0.27798 0.70836 0.54273 0.0
H155 H 0.40137 0.14329 0.43776 0.0
H156 H 0.2422 0.89051 0.60751 0.0
H157 H 0.50548 -0.00454 0.39769 0.0
H158 H 0.31871 0.03936 0.49161 0.0
H159 H 0.33197 0.79859 0.47924 0.0
C160 C 0.27775 0.76572 0.54263 0.0
C161 C 0.25411 0.79158 0.57983 0.0
C162 C 0.3596 0.02966 0.47102 0.0
C163 C 0.31871 0.89629 0.50844 0.0
C164 C 0.40712 0.08908 0.44034 0.0
C165 C 0.46123 0.07859 0.41337 0.0
C166 C 0.36516 0.95843 0.47453 0.0
C167 C 0.46561 0.00679 0.41819 0.0
C168 C 0.31007 0.81785 0.50683 0.0
C169 C 0.25806 0.86779 0.57894 0.0
N170 N 0.41804 0.94934 0.4481 0.0
N171 N 0.29054 0.91789 0.54395 0.0
H172 H 0.3176 0.24449 0.11337 0.0
H173 H 0.21639 0.38709 0.92831 0.0
H174 H 0.5348 0.29384 0.04353 0.0
H175 H 0.47784 0.52435 0.9093 0.0
H176 H 0.23433 0.30426 0.98286 0.0
H177 H 0.27439 0.2942 0.05136 0.0
C178 C 0.3538 0.26155 0.08388 0.0
C179 C 0.42847 0.26286 0.08286 0.0
C180 C 0.28796 0.3532 0.96734 0.0
C181 C 0.38167 0.32323 0.01228 0.0
C182 C 0.27785 0.40059 0.93589 0.0
C183 C 0.34588 0.46392 0.91437 0.0
C184 C 0.36681 0.36895 0.97764 0.0
C185 C 0.4237 0.47731 0.92543 0.0
C186 C 0.3297 0.2909 0.04853 0.0
C187 C 0.47565 0.28978 0.04489 0.0
N188 N 0.43197 0.43011 0.95622 0.0
N189 N 0.45226 0.32042 0.01139 0.0
H190 H 0.80202 0.24613 0.43476 0.0
H191 H 0.23403 0.55643 0.54229 0.0
H192 H 0.94818 0.50011 0.3973 0.0
H193 H 0.05259 0.33492 0.60447 0.0
H194 H 0.14513 0.52173 0.47835 0.0
H195 H 0.90594 0.26596 0.48805 0.0
C196 C 0.85587 0.30625 0.43779 0.0
C197 C 0.86581 0.37184 0.41173 0.0
C198 C 0.12581 0.47946 0.50544 0.0
C199 C -0.01394 0.39432 0.47234 0.0
C200 C 0.17718 0.4984 0.54149 0.0
C201 C 0.15102 0.44753 0.57818 0.0
C202 C 0.04786 0.40909 0.50626 0.0
C203 C 0.07559 0.37461 0.57635 0.0
C204 C 0.91532 0.31733 0.46816 0.0
C205 C 0.93723 0.44815 0.41711 0.0
N206 N 0.02621 0.35789 0.54115 0.0
N207 N -0.00529 0.45725 0.44676 0.0
H208 H 0.53885 0.92797 0.31722 0.0
H209 H 0.72645 0.69469 0.1869 0.0
H210 H 0.59495 0.96209 0.18036 0.0
H211 H 0.67282 0.6631 0.32406 0.0
H212 H 0.6846 0.79779 0.18445 0.0
H213 H 0.58157 0.82554 0.31957 0.0
C214 C 0.55766 0.9116 0.28735 0.0
C215 C 0.56348 0.95299 0.24852 0.0
C216 C 0.68322 0.76943 0.21526 0.0
C217 C 0.61565 0.83904 0.25128 0.0
C218 C 0.7084 0.71174 0.2168 0.0
C219 C 0.70289 0.67075 0.25574 0.0
C220 C 0.65176 0.78553 0.25289 0.0
C221 C 0.67864 0.69412 0.29353 0.0
C222 C 0.58337 0.85432 0.28884 0.0
C223 C 0.58882 0.93063 0.21077 0.0
N224 N 0.6526 0.74927 0.29104 0.0
N225 N 0.61529 0.87579 0.21322 0.0
H226 H -0.00083 0.72333 0.68478 0.0
H227 H 0.58759 0.55592 0.82134 0.0
H228 H -0.01515 0.68206 0.82315 0.0
H229 H 0.60128 0.59189 0.68253 0.0
H230 H 0.73193 0.5964 0.82231 0.0
H231 H 0.85448 0.68138 0.68393 0.0
C232 C -0.03417 0.70772 0.7152 0.0
C233 C 0.00351 0.70595 0.7541 0.0
C234 C 0.70325 0.59432 0.79152 0.0
C235 C 0.83777 0.65504 0.75316 0.0
C236 C 0.62071 0.57008 0.79086 0.0
C237 C 0.58307 0.57104 0.75179 0.0
C238 C 0.74836 0.62022 0.75284 0.0
C239 C 0.62818 0.58993 0.71323 0.0
C240 C 0.88307 0.68258 0.71461 0.0
C241 C 0.95802 0.68498 0.7926 0.0
N242 N 0.70914 0.61512 0.71481 0.0
N243 N 0.8769 0.65911 0.79107 0.0
H244 H 0.2788 0.00337 0.32658 0.0
H245 H -0.02161 0.62115 0.17816 0.0
H246 H 0.24815 0.01976 0.18875 0.0
H247 H 0.01179 0.60479 0.31568 0.0
H248 H 0.08173 0.76684 0.18054 0.0
H249 H 0.17465 0.85806 0.32409 0.0
C250 C 0.24779 -0.02302 0.29616 0.0
C251 C 0.27179 0.02287 0.25779 0.0
C252 C 0.06741 0.73105 0.21007 0.0
C253 C 0.15608 0.85708 0.2542 0.0
C254 C 0.00984 0.64767 0.20846 0.0
C255 C -0.01305 0.60165 0.24679 0.0
C256 C 0.10165 0.76776 0.25029 0.0
C257 C 0.02798 0.63886 0.28548 0.0
C258 C 0.18973 0.89378 0.2945 0.0
C259 C 0.23118 -0.01422 0.21898 0.0
N260 N 0.08271 0.72017 0.28639 0.0
N261 N 0.17597 0.90459 0.21803 0.0
H262 H 0.19879 0.25537 0.68594 0.0
H263 H 0.38358 0.02137 0.81751 0.0
H264 H 0.24921 0.286 0.82345 0.0
H265 H 0.33042 -0.01204 0.68032 0.0
H266 H 0.34073 0.12372 0.81956 0.0
H267 H 0.24071 0.15229 0.68378 0.0
C268 C 0.21616 0.23813 0.71596 0.0
C269 C 0.22077 0.27886 0.75493 0.0
C270 C 0.33961 0.09511 0.78883 0.0
C271 C 0.27195 0.16408 0.75243 0.0
C272 C 0.36539 0.03788 0.78751 0.0
C273 C 0.36043 -0.0033 0.74867 0.0
C274 C 0.30811 0.11058 0.75107 0.0
C275 C 0.33587 0.01924 0.71076 0.0
C276 C 0.24137 0.18043 0.71459 0.0
C277 C 0.24412 0.25521 0.79288 0.0
N278 N 0.30931 0.07404 0.71302 0.0
N279 N 0.27022 0.20007 0.79057 0.0
H280 H 0.33713 0.39649 0.31948 0.0
H281 H 0.92217 0.22231 0.18531 0.0
H282 H 0.3198 0.35084 0.18144 0.0
H283 H 0.93965 0.2683 0.32333 0.0
H284 H 0.0667 0.26353 0.18379 0.0
H285 H 0.19268 0.35563 0.32097 0.0
C286 C 0.30316 0.38019 0.28924 0.0
C287 C 0.33986 0.37681 0.25027 0.0
C288 C 0.03882 0.26347 0.21455 0.0
C289 C 0.17442 0.32704 0.25196 0.0
C290 C 0.95616 0.23873 0.21554 0.0
C291 C 0.91943 0.24207 0.25451 0.0
C292 C 0.085 0.29225 0.25277 0.0
C293 C -0.03426 0.26415 0.29274 0.0
C294 C 0.22056 0.35568 0.29021 0.0
C295 C 0.29366 0.35494 0.21202 0.0
N296 N 0.04676 0.28967 0.29081 0.0
N297 N 0.21267 0.3296 0.21392 0.0
H298 H 0.94768 0.32536 0.67698 0.0
H299 H 0.64335 0.94829 0.8271 0.0
H300 H 0.90958 0.34686 0.81343 0.0
H301 H 0.67751 0.9268 0.69012 0.0
H302 H 0.7475 0.09359 0.82374 0.0
H303 H 0.84461 0.17957 0.68021 0.0
C304 C 0.91521 0.29994 0.70715 0.0
C305 C 0.93666 0.3475 0.74498 0.0
C306 C 0.73322 0.05676 0.79455 0.0
C307 C 0.82229 0.18127 0.74954 0.0
C308 C 0.67518 0.97356 0.79674 0.0
C309 C 0.65219 0.92619 0.75881 0.0
C310 C 0.76788 0.092 0.75416 0.0
C311 C 0.69376 0.96189 0.72002 0.0
C312 C 0.85781 0.21651 0.70929 0.0
C313 C 0.89442 0.31164 0.7836 0.0
N314 N 0.74893 0.04309 0.71853 0.0
N315 N 0.83991 0.23028 0.78505 0.0
loop_
_geom_bond_atom_site_label_1
_geom_bond_atom_site_label_2
_geom_bond_distance
_geom_bond_site_symmetry_2
_ccdc_geom_bond_type
O0 Zr5 2.207 . S
O0 C34 1.295 . S
O1 Zr5 2.133 . S
O1 Zr6 2.133 . S
O1 Zr7 2.133 . S
O2 Zr5 2.133 . S
O2 Zr11 2.133 . S
O2 Zr12 2.133 . S
O3 Zr5 2.133 . S
O3 Zr7 2.133 . S
O3 Zr12 2.133 . S
O4 Zr5 2.133 . S
O4 Zr6 2.133 . S
O4 Zr11 2.133 . S
Zr5 O0 2.207 . S
Zr5 O1 2.133 . S
Zr5 O2 2.133 . S
Zr5 O3 2.133 . S
Zr5 O4 2.133 . S
Zr5 O17 2.207 . S
Zr5 O30 2.207 . S
Zr5 O33 2.207 . S
Zr6 O1 2.133 . S
Zr6 O4 2.133 . S
Zr6 O8 2.133 . S
Zr6 O10 2.133 . S
Zr6 O22 2.207 . S
Zr6 O25 2.207 . S
Zr6 O35 2.207 . S
Zr6 O36 2.207 . S
Zr7 O1 2.133 . S
Zr7 O3 2.133 . S
Zr7 O9 2.133 . S
Zr7 O10 2.133 . S
Zr7 O19 2.207 . S
Zr7 O20 2.207 . S
Zr7 O27 2.207 . S
Zr7 O28 2.207 . S
O8 Zr6 2.133 . S
O8 Zr11 2.133 . S
O8 Zr13 2.133 . S
O9 Zr7 2.133 . S
O9 Zr12 2.133 . S
O9 Zr13 2.133 . S
O10 Zr6 2.133 . S
O10 Zr7 2.133 . S
O10 Zr13 2.133 . S
Zr11 O2 2.133 . S
Zr11 O4 2.133 . S
Zr11 O8 2.133 . S
Zr11 O14 2.133 . S
Zr11 O18 2.207 . S
Zr11 O21 2.207 . S
Zr11 O26 2.207 . S
Zr11 O29 2.207 . S
Zr12 O2 2.133 . S
Zr12 O3 2.133 . S
Zr12 O9 2.133 . S
Zr12 O14 2.133 . S
Zr12 O23 2.207 . S
Zr12 O24 2.207 . S
Zr12 O48 2.207 . S
Zr12 O49 2.207 . S
Zr13 O8 2.133 . S
Zr13 O9 2.133 . S
Zr13 O10 2.133 . S
Zr13 O14 2.133 . S
Zr13 O15 2.207 . S
Zr13 O16 2.207 . S
Zr13 O31 2.207 . S
Zr13 O32 2.207 . S
O14 Zr11 2.133 . S
O14 Zr12 2.133 . S
O14 Zr13 2.133 . S
O15 Zr13 2.207 . S
O15 C37 1.295 . S
O16 Zr13 2.207 . S
O16 C38 1.295 . S
O17 Zr5 2.207 . S
O17 C39 1.295 . S
O18 Zr11 2.207 . S
O18 C40 1.295 . S
O19 Zr7 2.207 . S
O19 C41 1.295 . S
O20 Zr7 2.207 . S
O20 C42 1.295 . S
O21 Zr11 2.207 . S
O21 C43 1.295 . S
O22 Zr6 2.207 . S
O22 C44 1.295 . S
O23 Zr12 2.207 . S
O23 C45 1.295 . S
O24 Zr12 2.207 . S
O24 C46 1.295 . S
O25 Zr6 2.207 . S
O25 C47 1.295 . S
O26 Zr11 2.207 . S
O26 C37 1.295 . S
O27 Zr7 2.207 . S
O27 C34 1.295 . S
O28 Zr7 2.207 . S
O28 C38 1.295 . S
O29 Zr11 2.207 . S
O29 C39 1.295 . S
O30 Zr5 2.207 . S
O30 C47 1.295 . S
O31 Zr13 2.207 . S
O31 C46 1.295 . S
O32 Zr13 2.207 . S
O32 C44 1.295 . S
O33 Zr5 2.207 . S
O33 C45 1.295 . S
C34 O0 1.295 . S
C34 O27 1.295 . S
O35 Zr6 2.207 . S
O35 C43 1.295 . S
O36 Zr6 2.207 . S
O36 C41 1.295 . S
C37 O15 1.295 . S
C37 O26 1.295 . S
C38 O16 1.295 . S
C38 O28 1.295 . S
C39 O17 1.295 . S
C39 O29 1.295 . S
C40 O18 1.295 . S
C40 O49 1.295 . S
C41 O19 1.295 . S
C41 O36 1.295 . S
C42 O20 1.295 . S
C42 O48 1.295 . S
C43 O21 1.295 . S
C43 O35 1.295 . S
C44 O22 1.295 . S
C44 O32 1.295 . S
C45 O23 1.295 . S
C45 O33 1.295 . S
C46 O24 1.295 . S
C46 O31 1.295 . S
C47 O25 1.295 . S
C47 O30 1.295 . S
O48 Zr12 2.207 . S
O48 C42 1.295 . S
O49 Zr12 2.207 . S
O49 C40 1.295 . S
O50 Zr55 2.207 . S
O50 C84 1.295 . S
O51 Zr55 2.133 . S
O51 Zr56 2.133 . S
O51 Zr57 2.133 . S
O52 Zr55 2.133 . S
O52 Zr61 2.133 . S
O52 Zr62 2.133 . S
O53 Zr55 2.133 . S
O53 Zr57 2.133 . S
O53 Zr62 2.133 . S
O54 Zr55 2.133 . S
O54 Zr56 2.133 . S
O54 Zr61 2.133 . S
Zr55 O50 2.207 . S
Zr55 O51 2.133 . S
Zr55 O52 2.133 . S
Zr55 O53 2.133 . S
Zr55 O54 2.133 . S
Zr55 O67 2.207 . S
Zr55 O80 2.207 . S
Zr55 O83 2.207 . S
Zr56 O51 2.133 . S
Zr56 O54 2.133 . S
Zr56 O58 2.133 . S
Zr56 O60 2.133 . S
Zr56 O72 2.207 . S
Zr56 O75 2.207 . S
Zr56 O85 2.207 . S
Zr56 O86 2.207 . S
Zr57 O51 2.133 . S
Zr57 O53 2.133 . S
Zr57 O59 2.133 . S
Zr57 O60 2.133 . S
Zr57 O69 2.207 . S
Zr57 O70 2.207 . S
Zr57 O77 2.207 . S
Zr57 O78 2.207 . S
O58 Zr56 2.133 . S
O58 Zr61 2.133 . S
O58 Zr63 2.133 . S
O59 Zr57 2.133 . S
O59 Zr62 2.133 . S
O59 Zr63 2.133 . S
O60 Zr56 2.133 . S
O60 Zr57 2.133 . S
O60 Zr63 2.133 . S
Zr61 O52 2.133 . S
Zr61 O54 2.133 . S
Zr61 O58 2.133 . S
Zr61 O64 2.133 . S
Zr61 O68 2.207 . S
Zr61 O71 2.207 . S
Zr61 O76 2.207 . S
Zr61 O79 2.207 . S
Zr62 O52 2.133 . S
Zr62 O53 2.133 . S
Zr62 O59 2.133 . S
Zr62 O64 2.133 . S
Zr62 O73 2.207 . S
Zr62 O74 2.207 . S
Zr62 O98 2.207 . S
Zr62 O99 2.207 . S
Zr63 O58 2.133 . S
Zr63 O59 2.133 . S
Zr63 O60 2.133 . S
Zr63 O64 2.133 . S
Zr63 O65 2.207 . S
Zr63 O66 2.207 . S
Zr63 O81 2.207 . S
Zr63 O82 2.207 . S
O64 Zr61 2.133 . S
O64 Zr62 2.133 . S
O64 Zr63 2.133 . S
O65 Zr63 2.207 . S
O65 C87 1.295 . S
O66 Zr63 2.207 . S
O66 C88 1.295 . S
O67 Zr55 2.207 . S
O67 C89 1.295 . S
O68 Zr61 2.207 . S
O68 C90 1.295 . S
O69 Zr57 2.207 . S
O69 C91 1.295 . S
O70 Zr57 2.207 . S
O70 C92 1.295 . S
O71 Zr61 2.207 . S
O71 C93 1.295 . S
O72 Zr56 2.207 . S
O72 C94 1.295 . S
O73 Zr62 2.207 . S
O73 C95 1.295 . S
O74 Zr62 2.207 . S
O74 C96 1.295 . S
O75 Zr56 2.207 . S
O75 C97 1.295 . S
O76 Zr61 2.207 . S
O76 C87 1.295 . S
O77 Zr57 2.207 . S
O77 C84 1.295 . S
O78 Zr57 2.207 . S
O78 C88 1.295 . S
O79 Zr61 2.207 . S
O79 C89 1.295 . S
O80 Zr55 2.207 . S
O80 C97 1.295 . S
O81 Zr63 2.207 . S
O81 C96 1.295 . S
O82 Zr63 2.207 . S
O82 C94 1.295 . S
O83 Zr55 2.207 . S
O83 C95 1.295 . S
C84 O50 1.295 . S
C84 O77 1.295 . S
O85 Zr56 2.207 . S
O85 C93 1.295 . S
O86 Zr56 2.207 . S
O86 C91 1.295 . S
C87 O65 1.295 . S
C87 O76 1.295 . S
C88 O66 1.295 . S
C88 O78 1.295 . S
C89 O67 1.295 . S
C89 O79 1.295 . S
C90 O68 1.295 . S
C90 O99 1.295 . S
C91 O69 1.295 . S
C91 O86 1.295 . S
C92 O70 1.295 . S
C92 O98 1.295 . S
C93 O71 1.295 . S
C93 O85 1.295 . S
C94 O72 1.295 . S
C94 O82 1.295 . S
C95 O73 1.295 . S
C95 O83 1.295 . S
C96 O74 1.295 . S
C96 O81 1.295 . S
C97 O75 1.295 . S
C97 O80 1.295 . S
O98 Zr62 2.207 . S
O98 C92 1.295 . S
O99 Zr62 2.207 . S
O99 C90 1.295 . S
H100 C106 0.930 . S
H101 C110 0.930 . S
H102 C115 0.929 . S
H103 C113 0.929 . S
H104 C108 0.929 . S
H105 C114 0.929 . S
C106 H100 0.930 . S
C106 C107 1.367 . S
C106 C114 1.378 . S
C107 C106 1.367 . S
C107 C115 1.433 . S
C108 H104 0.929 . S
C108 C110 1.378 . S
C108 C112 1.350 . S
C109 C112 1.463 1_556 S
C109 C114 1.350 1_545 S
C109 N117 1.427 . S
C110 H101 0.930 . S
C110 C108 1.378 . S
C110 C111 1.367 . S
C111 C110 1.367 . S
C111 C113 1.433 . S
C112 C108 1.350 . S
C112 C109 1.463 1_554 S
C112 N116 1.427 . S
C113 H103 0.929 . S
C113 C111 1.433 . S
C113 N116 1.384 . S
C114 H105 0.929 . S
C114 C106 1.378 . S
C114 C109 1.350 1_565 S
C115 H102 0.929 . S
C115 C107 1.433 . S
C115 N117 1.384 1_565 S
N116 C112 1.427 . S
N116 C113 1.384 . S
N117 C109 1.427 . S
N117 C115 1.384 1_545 S
H118 C124 0.930 . S
H119 C128 0.930 . S
H120 C133 0.929 . S
H121 C131 0.929 . S
H122 C126 0.929 . S
H123 C132 0.929 . S
C124 H118 0.930 . S
C124 C125 1.367 . S
C124 C132 1.378 . S
C125 C124 1.367 . S
C125 C133 1.433 . S
C126 H122 0.929 . S
C126 C128 1.378 . S
C126 C130 1.350 . S
C127 C130 1.463 . S
C127 C132 1.350 . S
C127 N135 1.427 . S
C128 H119 0.930 . S
C128 C126 1.378 . S
C128 C129 1.367 . S
C129 C128 1.367 . S
C129 C131 1.433 . S
C130 C126 1.350 . S
C130 C127 1.463 . S
C130 N134 1.427 . S
C131 H121 0.929 . S
C131 C129 1.433 . S
C131 N134 1.384 . S
C132 H123 0.929 . S
C132 C124 1.378 . S
C132 C127 1.350 . S
C133 H120 0.929 . S
C133 C125 1.433 . S
C133 N135 1.384 . S
N134 C130 1.427 . S
N134 C131 1.384 . S
N135 C127 1.427 . S
N135 C133 1.384 . S
H136 C142 0.930 . S
H137 C146 0.930 . S
H138 C151 0.929 . S
H139 C149 0.929 . S
H140 C144 0.929 . S
H141 C150 0.929 . S
C142 H136 0.930 . S
C142 C143 1.367 . S
C142 C150 1.378 . S
C143 C142 1.367 . S
C143 C151 1.433 . S
C144 H140 0.929 . S
C144 C146 1.378 . S
C144 C148 1.350 1_455 S
C145 C148 1.463 1_554 S
C145 C150 1.350 . S
C145 N153 1.427 . S
C146 H137 0.930 . S
C146 C144 1.378 . S
C146 C147 1.367 . S
C147 C146 1.367 . S
C147 C149 1.433 . S
C148 C144 1.350 1_655 S
C148 C145 1.463 1_556 S
C148 N152 1.427 . S
C149 H139 0.929 . S
C149 C147 1.433 . S
C149 N152 1.384 1_455 S
C150 H141 0.929 . S
C150 C142 1.378 . S
C150 C145 1.350 . S
C151 H138 0.929 . S
C151 C143 1.433 . S
C151 N153 1.384 . S
N152 C148 1.427 . S
N152 C149 1.384 1_655 S
N153 C145 1.427 . S
N153 C151 1.384 . S
H154 C160 0.930 . S
H155 C164 0.930 . S
H156 C169 0.929 . S
H157 C167 0.929 1_565 S
H158 C162 0.929 . S
H159 C168 0.929 . S
C160 H154 0.930 . S
C160 C161 1.367 . S
C160 C168 1.378 . S
C161 C160 1.367 . S
C161 C169 1.433 . S
C162 H158 0.929 . S
C162 C164 1.378 . S
C162 C166 1.350 1_545 S
C163 C166 1.463 . S
C163 C168 1.350 . S
C163 N171 1.427 . S
C164 H155 0.930 . S
C164 C162 1.378 . S
C164 C165 1.367 . S
C165 C164 1.367 . S
C165 C167 1.433 . S
C166 C162 1.350 1_565 S
C166 C163 1.463 . S
C166 N170 1.427 . S
C167 H157 0.929 1_545 S
C167 C165 1.433 . S
C167 N170 1.384 1_545 S
C168 H159 0.929 . S
C168 C160 1.378 . S
C168 C163 1.350 . S
C169 H156 0.929 . S
C169 C161 1.433 . S
C169 N171 1.384 . S
N170 C166 1.427 . S
N170 C167 1.384 1_565 S
N171 C163 1.427 . S
N171 C169 1.384 . S
H172 C178 0.930 . S
H173 C182 0.930 . S
H174 C187 0.929 . S
H175 C185 0.929 . S
H176 C180 0.929 . S
H177 C186 0.929 . S
C178 H172 0.930 . S
C178 C179 1.367 . S
C178 C186 1.378 . S
C179 C178 1.367 . S
C179 C187 1.433 . S
C180 H176 0.929 . S
C180 C182 1.378 . S
C180 C184 1.350 . S
C181 C184 1.463 1_554 S
C181 C186 1.350 . S
C181 N189 1.427 . S
C182 H173 0.930 . S
C182 C180 1.378 . S
C182 C183 1.367 . S
C183 C182 1.367 . S
C183 C185 1.433 . S
C184 C180 1.350 . S
C184 C181 1.463 1_556 S
C184 N188 1.427 . S
C185 H175 0.929 . S
C185 C183 1.433 . S
C185 N188 1.384 . S
C186 H177 0.929 . S
C186 C178 1.378 . S
C186 C181 1.350 . S
C187 H174 0.929 . S
C187 C179 1.433 . S
C187 N189 1.384 . S
N188 C184 1.427 . S
N188 C185 1.384 . S
N189 C181 1.427 . S
N189 C187 1.384 . S
H190 C196 0.930 . S
H191 C200 0.930 . S
H192 C205 0.929 . S
H193 C203 0.929 . S
H194 C198 0.929 . S
H195 C204 0.929 . S
C196 H190 0.930 . S
C196 C197 1.367 . S
C196 C204 1.378 . S
C197 C196 1.367 . S
C197 C205 1.433 . S
C198 H194 0.929 . S
C198 C200 1.378 . S
C198 C202 1.350 . S
C199 C202 1.463 . S
C199 C204 1.350 1_455 S
C199 N207 1.427 . S
C200 H191 0.930 . S
C200 C198 1.378 . S
C200 C201 1.367 . S
C201 C200 1.367 . S
C201 C203 1.433 . S
C202 C198 1.350 . S
C202 C199 1.463 . S
C202 N206 1.427 . S
C203 H193 0.929 . S
C203 C201 1.433 . S
C203 N206 1.384 . S
C204 H195 0.929 . S
C204 C196 1.378 . S
C204 C199 1.350 1_655 S
C205 H192 0.929 . S
C205 C197 1.433 . S
C205 N207 1.384 1_655 S
N206 C202 1.427 . S
N206 C203 1.384 . S
N207 C199 1.427 . S
N207 C205 1.384 1_455 S
H208 C214 0.929 . S
H209 C218 0.930 . S
H210 C223 0.929 . S
H211 C221 0.929 . S
H212 C216 0.929 . S
H213 C222 0.929 . S
C214 H208 0.929 . S
C214 C215 1.366 . S
C214 C222 1.379 1_545 S
C215 C214 1.366 . S
C215 C223 1.433 1_545 S
C216 H212 0.929 . S
C216 C218 1.378 . S
C216 C220 1.350 . S
C217 C220 1.463 . S
C217 C222 1.350 . S
C217 N225 1.427 . S
C218 H209 0.930 . S
C218 C216 1.378 . S
C218 C219 1.367 . S
C219 C218 1.367 . S
C219 C221 1.433 . S
C220 C216 1.350 . S
C220 C217 1.463 . S
C220 N224 1.427 . S
C221 H211 0.929 . S
C221 C219 1.433 . S
C221 N224 1.384 . S
C222 H213 0.929 . S
C222 C214 1.379 1_565 S
C222 C217 1.350 . S
C223 H210 0.929 . S
C223 C215 1.433 1_565 S
C223 N225 1.384 . S
N224 C220 1.427 . S
N224 C221 1.384 . S
N225 C217 1.427 . S
N225 C223 1.384 . S
H226 C232 0.930 . S
H227 C236 0.930 . S
H228 C241 0.929 . S
H229 C239 0.929 . S
H230 C234 0.929 . S
H231 C240 0.929 . S
C232 H226 0.930 . S
C232 C233 1.367 1_655 S
C232 C240 1.378 . S
C233 C232 1.367 1_455 S
C233 C241 1.433 . S
C234 H230 0.929 . S
C234 C236 1.378 . S
C234 C238 1.350 . S
C235 C238 1.463 . S
C235 C240 1.350 . S
C235 N243 1.427 . S
C236 H227 0.930 . S
C236 C234 1.378 . S
C236 C237 1.367 . S
C237 C236 1.367 . S
C237 C239 1.433 . S
C238 C234 1.350 . S
C238 C235 1.463 . S
C238 N242 1.427 . S
C239 H229 0.929 . S
C239 C237 1.433 . S
C239 N242 1.384 . S
C240 H231 0.929 . S
C240 C232 1.378 . S
C240 C235 1.350 . S
C241 H228 0.929 . S
C241 C233 1.433 . S
C241 N243 1.384 1_455 S
N242 C238 1.427 . S
N242 C239 1.384 . S
N243 C235 1.427 . S
N243 C241 1.384 1_655 S
H244 C250 0.930 . S
H245 C254 0.930 . S
H246 C259 0.929 1_545 S
H247 C257 0.929 1_655 S
H248 C252 0.929 . S
H249 C258 0.929 . S
C250 H244 0.930 . S
C250 C251 1.367 . S
C250 C258 1.378 1_545 S
C251 C250 1.367 . S
C251 C259 1.433 1_545 S
C252 H248 0.929 . S
C252 C254 1.378 . S
C252 C256 1.350 . S
C253 C256 1.463 . S
C253 C258 1.350 . S
C253 N261 1.427 . S
C254 H245 0.930 . S
C254 C252 1.378 . S
C254 C255 1.367 1_455 S
C255 C254 1.367 1_655 S
C255 C257 1.433 1_655 S
C256 C252 1.350 . S
C256 C253 1.463 . S
C256 N260 1.427 . S
C257 H247 0.929 1_455 S
C257 C255 1.433 1_455 S
C257 N260 1.384 . S
C258 H249 0.929 . S
C258 C250 1.378 1_565 S
C258 C253 1.350 . S
C259 H246 0.929 1_565 S
C259 C251 1.433 1_565 S
C259 N261 1.384 . S
N260 C256 1.427 . S
N260 C257 1.384 . S
N261 C253 1.427 . S
N261 C259 1.384 . S
H262 C268 0.930 . S
H263 C272 0.930 . S
H264 C277 0.929 . S
H265 C275 0.929 . S
H266 C270 0.929 . S
H267 C276 0.929 . S
C268 H262 0.930 . S
C268 C269 1.367 . S
C268 C276 1.378 . S
C269 C268 1.367 . S
C269 C277 1.433 . S
C270 H266 0.929 . S
C270 C272 1.378 1_545 S
C270 C274 1.350 . S
C271 C274 1.463 . S
C271 C276 1.350 . S
C271 N279 1.427 . S
C272 H263 0.930 . S
C272 C270 1.378 1_565 S
C272 C273 1.367 . S
C273 C272 1.367 . S
C273 C275 1.433 1_565 S
C274 C270 1.350 . S
C274 C271 1.463 . S
C274 N278 1.427 . S
C275 H265 0.929 . S
C275 C273 1.433 1_545 S
C275 N278 1.384 . S
C276 H267 0.929 . S
C276 C268 1.378 . S
C276 C271 1.350 . S
C277 H264 0.929 . S
C277 C269 1.433 . S
C277 N279 1.384 . S
N278 C274 1.427 . S
N278 C275 1.384 . S
N279 C271 1.427 . S
N279 C277 1.384 . S
H280 C286 0.930 . S
H281 C290 0.930 . S
H282 C295 0.929 . S
H283 C293 0.929 . S
H284 C288 0.929 . S
H285 C294 0.929 . S
C286 H280 0.930 . S
C286 C287 1.367 . S
C286 C294 1.378 . S
C287 C286 1.367 . S
C287 C295 1.433 . S
C288 H284 0.929 . S
C288 C290 1.378 . S
C288 C292 1.350 . S
C289 C292 1.463 . S
C289 C294 1.350 . S
C289 N297 1.427 . S
C290 H281 0.930 . S
C290 C288 1.378 . S
C290 C291 1.367 1_455 S
C291 C290 1.367 1_655 S
C291 C293 1.433 . S
C292 C288 1.350 . S
C292 C289 1.463 . S
C292 N296 1.427 . S
C293 H283 0.929 . S
C293 C291 1.433 . S
C293 N296 1.384 1_655 S
C294 H285 0.929 . S
C294 C286 1.378 . S
C294 C289 1.350 . S
C295 H282 0.929 . S
C295 C287 1.433 . S
C295 N297 1.384 . S
N296 C292 1.427 . S
N296 C293 1.384 1_455 S
N297 C289 1.427 . S
N297 C295 1.384 . S
H298 C304 0.930 . S
H299 C308 0.930 . S
H300 C313 0.929 1_455 S
H301 C311 0.929 1_565 S
H302 C306 0.929 . S
H303 C312 0.929 . S
C304 H298 0.930 . S
C304 C305 1.367 1_655 S
C304 C312 1.378 . S
C305 C304 1.367 1_455 S
C305 C313 1.433 1_455 S
C306 H302 0.929 . S
C306 C308 1.378 1_545 S
C306 C310 1.350 . S
C307 C310 1.463 . S
C307 C312 1.350 . S
C307 N315 1.427 . S
C308 H299 0.930 . S
C308 C306 1.378 1_565 S
C308 C309 1.367 . S
C309 C308 1.367 . S
C309 C311 1.433 1_565 S
C310 C306 1.350 . S
C310 C307 1.463 . S
C310 N314 1.427 . S
C311 H301 0.929 1_545 S
C311 C309 1.433 1_545 S
C311 N314 1.384 . S
C312 H303 0.929 . S
C312 C304 1.378 . S
C312 C307 1.350 . S
C313 H300 0.929 1_655 S
C313 C305 1.433 1_655 S
C313 N315 1.384 . S
N314 C310 1.427 . S
N314 C311 1.384 . S
N315 C307 1.427 . S
N315 C313 1.384 . S
C107 C84 1.851 . S
C111 C34 1.724 . S
C125 C96 1.740 . S
C129 C37 1.855 . S
C143 C45 1.726 . S
C147 C97 1.852 . S
C161 C90 1.736 . S
C165 C44 1.854 . S
C179 C42 1.723 . S
C183 C91 1.851 . S
C197 C43 1.852 . S
C201 C87 1.727 . S
C215 C41 1.129 . S
C219 C40 1.129 . S
C233 C89 1.128 . S
C237 C88 1.128 . S
C251 C38 1.133 . S
C255 C39 1.133 . S
C269 C94 1.129 . S
C273 C95 1.129 . S
C287 C46 1.128 . S
C291 C47 1.128 . S
C305 C93 1.133 . S
C309 C92 1.133 . S
