# Generated by pormake.
# Topology wna, (6)-cn, num edge types: 1
# Building blocks:
#     Node 0, Type 0, BuildingBlock: UKALOJ_clean_sbu_0, # of connection points: 6
#     Node 1, Type 0, BuildingBlock: UKALOJ_clean_sbu_0, # of connection points: 6
#     Node 2, Type 0, BuildingBlock: UKALOJ_clean_sbu_0, # of connection points: 6
#     Node 3, Type 0, BuildingBlock: UKALOJ_clean_sbu_0, # of connection points: 6
#     Node 4, Type 0, BuildingBlock: UKALOJ_clean_sbu_0, # of connection points: 6
#     Node 5, Type 0, BuildingBlock: UKALOJ_clean_sbu_0, # of connection points: 6
#     Node 6, Type 0, BuildingBlock: UKALOJ_clean_sbu_0, # of connection points: 6
#     Node 7, Type 0, BuildingBlock: UKALOJ_clean_sbu_0, # of connection points: 6
#     Node 8, Type 0, BuildingBlock: UKALOJ_clean_sbu_0, # of connection points: 6
#     Node 9, Type 0, BuildingBlock: UKALOJ_clean_sbu_0, # of connection points: 6
#     Node 10, Type 0, BuildingBlock: UKALOJ_clean_sbu_0, # of connection points: 6
#     Node 11, Type 0, BuildingBlock: UKALOJ_clean_sbu_0, # of connection points: 6
#     Node 12, Type 0, BuildingBlock: UKALOJ_clean_sbu_0, # of connection points: 6
#     Node 13, Type 0, BuildingBlock: UKALOJ_clean_sbu_0, # of connection points: 6
#     Node 14, Type 0, BuildingBlock: UKALOJ_clean_sbu_0, # of connection points: 6
#     Node 15, Type 0, BuildingBlock: UKALOJ_clean_sbu_0, # of connection points: 6
#     Node 16, Type 0, BuildingBlock: UKALOJ_clean_sbu_0, # of connection points: 6
#     Node 17, Type 0, BuildingBlock: UKALOJ_clean_sbu_0, # of connection points: 6
#     Node 18, Type 0, BuildingBlock: UKALOJ_clean_sbu_0, # of connection points: 6
#     Node 19, Type 0, BuildingBlock: UKALOJ_clean_sbu_0, # of connection points: 6
#     Node 20, Type 0, BuildingBlock: UKALOJ_clean_sbu_0, # of connection points: 6
#     Node 21, Type 0, BuildingBlock: UKALOJ_clean_sbu_0, # of connection points: 6
#     Node 22, Type 0, BuildingBlock: UKALOJ_clean_sbu_0, # of connection points: 6
#     Node 23, Type 0, BuildingBlock: UKALOJ_clean_sbu_0, # of connection points: 6
#     Node 24, Type 0, BuildingBlock: UKALOJ_clean_sbu_0, # of connection points: 6
#     Node 25, Type 0, BuildingBlock: UKALOJ_clean_sbu_0, # of connection points: 6
#     Node 26, Type 0, BuildingBlock: UKALOJ_clean_sbu_0, # of connection points: 6
#     Node 27, Type 0, BuildingBlock: UKALOJ_clean_sbu_0, # of connection points: 6
#     Node 28, Type 0, BuildingBlock: UKALOJ_clean_sbu_0, # of connection points: 6
#     Node 29, Type 0, BuildingBlock: UKALOJ_clean_sbu_0, # of connection points: 6
#     Node 30, Type 0, BuildingBlock: UKALOJ_clean_sbu_0, # of connection points: 6
#     Node 31, Type 0, BuildingBlock: UKALOJ_clean_sbu_0, # of connection points: 6
#     Node 32, Type 0, BuildingBlock: UKALOJ_clean_sbu_0, # of connection points: 6
#     Node 33, Type 0, BuildingBlock: UKALOJ_clean_sbu_0, # of connection points: 6
#     Node 34, Type 0, BuildingBlock: UKALOJ_clean_sbu_0, # of connection points: 6
#     Node 35, Type 0, BuildingBlock: UKALOJ_clean_sbu_0, # of connection points: 6
#     Edge 36, Type (0, 0), BuildingBlock: CIFDUS_clean_linker_0, # of connection points: 2
#     Edge 37, Type (0, 0), BuildingBlock: CIFDUS_clean_linker_0, # of connection points: 2
#     Edge 38, Type (0, 0), BuildingBlock: CIFDUS_clean_linker_0, # of connection points: 2
#     Edge 39, Type (0, 0), BuildingBlock: CIFDUS_clean_linker_0, # of connection points: 2
#     Edge 40, Type (0, 0), BuildingBlock: CIFDUS_clean_linker_0, # of connection points: 2
#     Edge 41, Type (0, 0), BuildingBlock: CIFDUS_clean_linker_0, # of connection points: 2
#     Edge 42, Type (0, 0), BuildingBlock: CIFDUS_clean_linker_0, # of connection points: 2
#     Edge 43, Type (0, 0), BuildingBlock: CIFDUS_clean_linker_0, # of connection points: 2
#     Edge 44, Type (0, 0), BuildingBlock: CIFDUS_clean_linker_0, # of connection points: 2
#     Edge 45, Type (0, 0), BuildingBlock: CIFDUS_clean_linker_0, # of connection points: 2
#     Edge 46, Type (0, 0), BuildingBlock: CIFDUS_clean_linker_0, # of connection points: 2
#     Edge 47, Type (0, 0), BuildingBlock: CIFDUS_clean_linker_0, # of connection points: 2
#     Edge 48, Type (0, 0), BuildingBlock: CIFDUS_clean_linker_0, # of connection points: 2
#     Edge 49, Type (0, 0), BuildingBlock: CIFDUS_clean_linker_0, # of connection points: 2
#     Edge 50, Type (0, 0), BuildingBlock: CIFDUS_clean_linker_0, # of connection points: 2
#     Edge 51, Type (0, 0), BuildingBlock: CIFDUS_clean_linker_0, # of connection points: 2
#     Edge 52, Type (0, 0), BuildingBlock: CIFDUS_clean_linker_0, # of connection points: 2
#     Edge 53, Type (0, 0), BuildingBlock: CIFDUS_clean_linker_0, # of connection points: 2
#     Edge 54, Type (0, 0), BuildingBlock: CIFDUS_clean_linker_0, # of connection points: 2
#     Edge 55, Type (0, 0), BuildingBlock: CIFDUS_clean_linker_0, # of connection points: 2
#     Edge 56, Type (0, 0), BuildingBlock: CIFDUS_clean_linker_0, # of connection points: 2
#     Edge 57, Type (0, 0), BuildingBlock: CIFDUS_clean_linker_0, # of connection points: 2
#     Edge 58, Type (0, 0), BuildingBlock: CIFDUS_clean_linker_0, # of connection points: 2
#     Edge 59, Type (0, 0), BuildingBlock: CIFDUS_clean_linker_0, # of connection points: 2
#     Edge 60, Type (0, 0), BuildingBlock: CIFDUS_clean_linker_0, # of connection points: 2
#     Edge 61, Type (0, 0), BuildingBlock: CIFDUS_clean_linker_0, # of connection points: 2
#     Edge 62, Type (0, 0), BuildingBlock: CIFDUS_clean_linker_0, # of connection points: 2
#     Edge 63, Type (0, 0), BuildingBlock: CIFDUS_clean_linker_0, # of connection points: 2
#     Edge 64, Type (0, 0), BuildingBlock: CIFDUS_clean_linker_0, # of connection points: 2
#     Edge 65, Type (0, 0), BuildingBlock: CIFDUS_clean_linker_0, # of connection points: 2
#     Edge 66, Type (0, 0), BuildingBlock: CIFDUS_clean_linker_0, # of connection points: 2
#     Edge 67, Type (0, 0), BuildingBlock: CIFDUS_clean_linker_0, # of connection points: 2
#     Edge 68, Type (0, 0), BuildingBlock: CIFDUS_clean_linker_0, # of connection points: 2
#     Edge 69, Type (0, 0), BuildingBlock: CIFDUS_clean_linker_0, # of connection points: 2
#     Edge 70, Type (0, 0), BuildingBlock: CIFDUS_clean_linker_0, # of connection points: 2
#     Edge 71, Type (0, 0), BuildingBlock: CIFDUS_clean_linker_0, # of connection points: 2
#     Edge 72, Type (0, 0), BuildingBlock: CIFDUS_clean_linker_0, # of connection points: 2
#     Edge 73, Type (0, 0), BuildingBlock: CIFDUS_clean_linker_0, # of connection points: 2
#     Edge 74, Type (0, 0), BuildingBlock: CIFDUS_clean_linker_0, # of connection points: 2
#     Edge 75, Type (0, 0), BuildingBlock: CIFDUS_clean_linker_0, # of connection points: 2
#     Edge 76, Type (0, 0), BuildingBlock: CIFDUS_clean_linker_0, # of connection points: 2
#     Edge 77, Type (0, 0), BuildingBlock: CIFDUS_clean_linker_0, # of connection points: 2
#     Edge 78, Type (0, 0), BuildingBlock: CIFDUS_clean_linker_0, # of connection points: 2
#     Edge 79, Type (0, 0), BuildingBlock: CIFDUS_clean_linker_0, # of connection points: 2
#     Edge 80, Type (0, 0), BuildingBlock: CIFDUS_clean_linker_0, # of connection points: 2
#     Edge 81, Type (0, 0), BuildingBlock: CIFDUS_clean_linker_0, # of connection points: 2
#     Edge 82, Type (0, 0), BuildingBlock: CIFDUS_clean_linker_0, # of connection points: 2
#     Edge 83, Type (0, 0), BuildingBlock: CIFDUS_clean_linker_0, # of connection points: 2
#     Edge 84, Type (0, 0), BuildingBlock: CIFDUS_clean_linker_0, # of connection points: 2
#     Edge 85, Type (0, 0), BuildingBlock: CIFDUS_clean_linker_0, # of connection points: 2
#     Edge 86, Type (0, 0), BuildingBlock: CIFDUS_clean_linker_0, # of connection points: 2
#     Edge 87, Type (0, 0), BuildingBlock: CIFDUS_clean_linker_0, # of connection points: 2
#     Edge 88, Type (0, 0), BuildingBlock: CIFDUS_clean_linker_0, # of connection points: 2
#     Edge 89, Type (0, 0), BuildingBlock: CIFDUS_clean_linker_0, # of connection points: 2
#     Edge 90, Type (0, 0), BuildingBlock: CIFDUS_clean_linker_0, # of connection points: 2
#     Edge 91, Type (0, 0), BuildingBlock: CIFDUS_clean_linker_0, # of connection points: 2
#     Edge 92, Type (0, 0), BuildingBlock: CIFDUS_clean_linker_0, # of connection points: 2
#     Edge 93, Type (0, 0), BuildingBlock: CIFDUS_clean_linker_0, # of connection points: 2
#     Edge 94, Type (0, 0), BuildingBlock: CIFDUS_clean_linker_0, # of connection points: 2
#     Edge 95, Type (0, 0), BuildingBlock: CIFDUS_clean_linker_0, # of connection points: 2
#     Edge 96, Type (0, 0), BuildingBlock: CIFDUS_clean_linker_0, # of connection points: 2
#     Edge 97, Type (0, 0), BuildingBlock: CIFDUS_clean_linker_0, # of connection points: 2
#     Edge 98, Type (0, 0), BuildingBlock: CIFDUS_clean_linker_0, # of connection points: 2
#     Edge 99, Type (0, 0), BuildingBlock: CIFDUS_clean_linker_0, # of connection points: 2
#     Edge 100, Type (0, 0), BuildingBlock: CIFDUS_clean_linker_0, # of connection points: 2
#     Edge 101, Type (0, 0), BuildingBlock: CIFDUS_clean_linker_0, # of connection points: 2
#     Edge 102, Type (0, 0), BuildingBlock: CIFDUS_clean_linker_0, # of connection points: 2
#     Edge 103, Type (0, 0), BuildingBlock: CIFDUS_clean_linker_0, # of connection points: 2
#     Edge 104, Type (0, 0), BuildingBlock: CIFDUS_clean_linker_0, # of connection points: 2
#     Edge 105, Type (0, 0), BuildingBlock: CIFDUS_clean_linker_0, # of connection points: 2
#     Edge 106, Type (0, 0), BuildingBlock: CIFDUS_clean_linker_0, # of connection points: 2
#     Edge 107, Type (0, 0), BuildingBlock: CIFDUS_clean_linker_0, # of connection points: 2
#     Edge 108, Type (0, 0), BuildingBlock: CIFDUS_clean_linker_0, # of connection points: 2
#     Edge 109, Type (0, 0), BuildingBlock: CIFDUS_clean_linker_0, # of connection points: 2
#     Edge 110, Type (0, 0), BuildingBlock: CIFDUS_clean_linker_0, # of connection points: 2
#     Edge 111, Type (0, 0), BuildingBlock: CIFDUS_clean_linker_0, # of connection points: 2
#     Edge 112, Type (0, 0), BuildingBlock: CIFDUS_clean_linker_0, # of connection points: 2
#     Edge 113, Type (0, 0), BuildingBlock: CIFDUS_clean_linker_0, # of connection points: 2
#     Edge 114, Type (0, 0), BuildingBlock: CIFDUS_clean_linker_0, # of connection points: 2
#     Edge 115, Type (0, 0), BuildingBlock: CIFDUS_clean_linker_0, # of connection points: 2
#     Edge 116, Type (0, 0), BuildingBlock: CIFDUS_clean_linker_0, # of connection points: 2
#     Edge 117, Type (0, 0), BuildingBlock: CIFDUS_clean_linker_0, # of connection points: 2
#     Edge 118, Type (0, 0), BuildingBlock: CIFDUS_clean_linker_0, # of connection points: 2
#     Edge 119, Type (0, 0), BuildingBlock: CIFDUS_clean_linker_0, # of connection points: 2
#     Edge 120, Type (0, 0), BuildingBlock: CIFDUS_clean_linker_0, # of connection points: 2
#     Edge 121, Type (0, 0), BuildingBlock: CIFDUS_clean_linker_0, # of connection points: 2
#     Edge 122, Type (0, 0), BuildingBlock: CIFDUS_clean_linker_0, # of connection points: 2
#     Edge 123, Type (0, 0), BuildingBlock: CIFDUS_clean_linker_0, # of connection points: 2
#     Edge 124, Type (0, 0), BuildingBlock: CIFDUS_clean_linker_0, # of connection points: 2
#     Edge 125, Type (0, 0), BuildingBlock: CIFDUS_clean_linker_0, # of connection points: 2
#     Edge 126, Type (0, 0), BuildingBlock: CIFDUS_clean_linker_0, # of connection points: 2
#     Edge 127, Type (0, 0), BuildingBlock: CIFDUS_clean_linker_0, # of connection points: 2
#     Edge 128, Type (0, 0), BuildingBlock: CIFDUS_clean_linker_0, # of connection points: 2
#     Edge 129, Type (0, 0), BuildingBlock: CIFDUS_clean_linker_0, # of connection points: 2
#     Edge 130, Type (0, 0), BuildingBlock: CIFDUS_clean_linker_0, # of connection points: 2
#     Edge 131, Type (0, 0), BuildingBlock: CIFDUS_clean_linker_0, # of connection points: 2
#     Edge 132, Type (0, 0), BuildingBlock: CIFDUS_clean_linker_0, # of connection points: 2
#     Edge 133, Type (0, 0), BuildingBlock: CIFDUS_clean_linker_0, # of connection points: 2
#     Edge 134, Type (0, 0), BuildingBlock: CIFDUS_clean_linker_0, # of connection points: 2
#     Edge 135, Type (0, 0), BuildingBlock: CIFDUS_clean_linker_0, # of connection points: 2
#     Edge 136, Type (0, 0), BuildingBlock: CIFDUS_clean_linker_0, # of connection points: 2
#     Edge 137, Type (0, 0), BuildingBlock: CIFDUS_clean_linker_0, # of connection points: 2
#     Edge 138, Type (0, 0), BuildingBlock: CIFDUS_clean_linker_0, # of connection points: 2
#     Edge 139, Type (0, 0), BuildingBlock: CIFDUS_clean_linker_0, # of connection points: 2
#     Edge 140, Type (0, 0), BuildingBlock: CIFDUS_clean_linker_0, # of connection points: 2
#     Edge 141, Type (0, 0), BuildingBlock: CIFDUS_clean_linker_0, # of connection points: 2
#     Edge 142, Type (0, 0), BuildingBlock: CIFDUS_clean_linker_0, # of connection points: 2
#     Edge 143, Type (0, 0), BuildingBlock: CIFDUS_clean_linker_0, # of connection points: 2
# Relax obj value: 0.413
# Max RMSD: 0.269
# Mean RMSD: 0.258
data_MOF--net-wna--node1-UKALOJ_clean_sbu_0--edge1-CIFDUS_clean_linker_0
_symmetry_space_group_name_H-M    P1
_symmetry_Int_Tables_number       1
_symmetry_cell_setting            triclinic
loop_
_symmetry_equiv_pos_as_xyz
'x, y, z'
_cell_length_a     41.009649
_cell_length_b     41.040126
_cell_length_c     69.060145
_cell_angle_alpha  89.876877
_cell_angle_beta   90.059276
_cell_angle_gamma 120.06677
loop_
_atom_site_label
_atom_site_type_symbol
_atom_site_fract_x
_atom_site_fract_y
_atom_site_fract_z
_atom_type_partial_charge
Zn0 Zn 0.11424 0.21563 0.17558 0.0
O1 O 0.08814 0.18996 0.20399 0.0
C2 C 0.04155 0.20785 0.16646 0.0
Zn3 Zn 0.11453 0.26781 0.18375 0.0
C4 C 0.07985 0.20865 0.21583 0.0
O5 O 0.09104 0.24299 0.2118 0.0
C6 C 0.14177 0.27334 0.14255 0.0
O7 O 0.17329 0.29344 0.19367 0.0
O8 O 0.16933 0.2398 0.18619 0.0
N9 N 0.11144 0.31402 0.19154 0.0
C10 C 0.13007 0.35026 0.18567 0.0
C11 C 0.0861 0.34359 0.20453 0.0
N12 N 0.08439 0.31008 0.2034 0.0
N13 N 0.11444 0.36944 0.1935 0.0
C14 C 0.13078 0.1499 0.17726 0.0
C15 C 0.12038 0.13046 0.14809 0.0
N16 N 0.11741 0.16952 0.16774 0.0
N17 N 0.11081 0.15727 0.14966 0.0
N18 N 0.13322 0.1253 0.16515 0.0
H19 H 0.14656 0.18289 0.20379 0.0
H20 H 0.1696 0.15579 0.19993 0.0
H21 H 0.12073 0.1335 0.20704 0.0
C22 C 0.14294 0.15623 0.19809 0.0
C23 C 0.16463 0.36706 0.17321 0.0
H24 H 0.18105 0.35272 0.17578 0.0
H25 H 0.18265 0.39759 0.1762 0.0
H26 H 0.15616 0.36336 0.15777 0.0
O27 O 0.13491 0.29143 0.15528 0.0
O28 O 0.13647 0.24082 0.14702 0.0
C29 C 0.1886 0.27303 0.19253 0.0
O30 O 0.06078 0.19172 0.16468 0.0
O31 O 0.05648 0.24062 0.17388 0.0
Zn32 Zn 0.78841 0.89436 0.17644 0.0
O33 O 0.81338 0.89501 0.20535 0.0
C34 C 0.80411 0.83473 0.16626 0.0
Zn35 Zn 0.73897 0.83874 0.18316 0.0
C36 C 0.79663 0.86595 0.21627 0.0
O37 O 0.7639 0.84 0.21123 0.0
C38 C 0.73243 0.86237 0.14252 0.0
O39 O 0.70823 0.86583 0.19379 0.0
O40 O 0.75841 0.9194 0.18662 0.0
N41 N 0.69518 0.78699 0.18988 0.0
C42 C 0.65905 0.76788 0.18388 0.0
C43 C 0.66811 0.73121 0.20208 0.0
N44 N 0.70062 0.76426 0.20134 0.0
N45 N 0.6415 0.73263 0.19124 0.0
C46 C 0.84942 0.97899 0.17998 0.0
C47 C 0.87135 0.99166 0.15128 0.0
N48 N 0.83212 0.94668 0.16972 0.0
N49 N 0.84584 0.95465 0.15192 0.0
N50 N 0.87418 0.00784 0.16865 0.0
H51 H 0.81318 0.95857 0.2053 0.0
H52 H 0.84093 0.00911 0.20318 0.0
H53 H 0.86222 0.98152 0.21014 0.0
C54 C 0.84065 0.98225 0.20074 0.0
C55 C 0.64057 0.78427 0.17166 0.0
H56 H 0.65289 0.81472 0.17461 0.0
H57 H 0.60979 0.76965 0.17446 0.0
H58 H 0.64511 0.78079 0.15617 0.0
O59 O 0.71541 0.83601 0.15477 0.0
O60 O 0.76397 0.8907 0.14742 0.0
C61 C 0.72474 0.90163 0.1926 0.0
O62 O 0.81779 0.87005 0.16588 0.0
O63 O 0.77069 0.81342 0.17242 0.0
Zn64 Zn 0.11778 0.8891 0.16867 0.0
O65 O 0.11822 0.91397 0.19748 0.0
C66 C 0.17699 0.96467 0.15842 0.0
Zn67 Zn 0.17354 0.89579 0.17534 0.0
C68 C 0.14703 0.92576 0.20851 0.0
O69 O 0.17268 0.91852 0.20359 0.0
C70 C 0.14898 0.86604 0.13463 0.0
O71 O 0.14707 0.83798 0.18586 0.0
O72 O 0.09299 0.834 0.17935 0.0
N73 N 0.22568 0.90426 0.18144 0.0
C74 C 0.2452 0.88815 0.17485 0.0
C75 C 0.28174 0.93345 0.19327 0.0
N76 N 0.24835 0.93219 0.193 0.0
N77 N 0.28062 0.90616 0.18197 0.0
C78 C 0.0341 0.86748 0.17341 0.0
C79 C 0.01977 0.87523 0.14476 0.0
N80 N 0.06545 0.88057 0.16248 0.0
N81 N 0.05648 0.88533 0.1447 0.0
N82 N 0.00491 0.86383 0.16259 0.0
H83 H 0.05397 0.85 0.19829 0.0
H84 H 0.0039 0.83214 0.19778 0.0
H85 H 0.03644 0.88084 0.20347 0.0
C86 C 0.03191 0.8567 0.19436 0.0
C87 C 0.22901 0.85373 0.16234 0.0
H88 H 0.19864 0.83509 0.16545 0.0
H89 H 0.24408 0.83792 0.16472 0.0
H90 H 0.2321 0.8623 0.14691 0.0
O91 O 0.17575 0.87582 0.14667 0.0
O92 O 0.12026 0.86818 0.13982 0.0
C93 C 0.11121 0.81845 0.18518 0.0
O94 O 0.14175 0.94254 0.15765 0.0
O95 O 0.19829 0.95295 0.165 0.0
Zn96 Zn 0.28045 0.11772 0.32841 0.0
O97 O 0.31376 0.1756 0.31805 0.0
C98 C 0.2843 0.14935 0.36723 0.0
Zn99 Zn 0.23024 0.12299 0.3316 0.0
C100 C 0.29512 0.19216 0.31462 0.0
O101 O 0.26009 0.17474 0.31771 0.0
C102 C 0.21162 0.05009 0.34562 0.0
O103 O 0.20565 0.09316 0.30321 0.0
O104 O 0.26034 0.09658 0.29995 0.0
N105 N 0.19082 0.1381 0.3366 0.0
C106 C 0.15475 0.12653 0.33192 0.0
C107 C 0.17522 0.17696 0.34843 0.0
N108 N 0.20329 0.16937 0.34683 0.0
N109 N 0.14435 0.15067 0.33918 0.0
C110 C 0.35924 0.12508 0.33095 0.0
C111 C 0.35136 0.07831 0.31407 0.0
N112 N 0.32382 0.10815 0.32392 0.0
N113 N 0.31909 0.07931 0.31329 0.0
N114 N 0.37703 0.10671 0.32507 0.0
H115 H 0.36543 0.17878 0.33886 0.0
H116 H 0.40799 0.17616 0.34077 0.0
H117 H 0.37097 0.15296 0.35835 0.0
C118 C 0.37698 0.16041 0.34282 0.0
C119 C 0.12985 0.09095 0.32114 0.0
H120 H 0.13194 0.09723 0.3054 0.0
H121 H 0.10006 0.07887 0.32571 0.0
H122 H 0.13915 0.07012 0.32361 0.0
O123 O 0.19966 0.07314 0.34518 0.0
O124 O 0.24458 0.0602 0.33917 0.0
C125 C 0.22741 0.08542 0.29335 0.0
O126 O 0.30075 0.13673 0.35678 0.0
O127 O 0.25503 0.14871 0.3604 0.0
Zn128 Zn 0.89136 0.16367 0.33392 0.0
O129 O 0.83289 0.14095 0.3258 0.0
C130 C 0.86488 0.1419 0.37448 0.0
Zn131 Zn 0.88519 0.1082 0.33951 0.0
C132 C 0.81421 0.10519 0.32454 0.0
O133 O 0.83103 0.08694 0.32773 0.0
C134 C 0.96043 0.16225 0.34912 0.0
O135 O 0.91095 0.10873 0.31047 0.0
O136 O 0.90771 0.15947 0.30506 0.0
N137 N 0.8692 0.05342 0.34556 0.0
C138 C 0.88546 0.03187 0.34559 0.0
C139 C 0.8283 0.99697 0.35443 0.0
N140 N 0.8338 0.03161 0.35111 0.0
N141 N 0.86024 0.99621 0.35114 0.0
C142 C 0.89124 0.2397 0.33323 0.0
C143 C 0.93401 0.26999 0.31222 0.0
N144 N 0.90384 0.21682 0.32708 0.0
N145 N 0.93023 0.23566 0.31396 0.0
N146 N 0.90985 0.27335 0.32412 0.0
H147 H 0.83838 0.19799 0.34558 0.0
H148 H 0.84563 0.24527 0.34514 0.0
H149 H 0.87072 0.23264 0.36227 0.0
C150 C 0.8595 0.22824 0.34729 0.0
C151 C 0.92525 0.0456 0.33938 0.0
H152 H 0.93504 0.06979 0.32932 0.0
H153 H 0.92775 0.02267 0.33233 0.0
H154 H 0.9438 0.05526 0.35231 0.0
O155 O 0.93711 0.12753 0.35116 0.0
O156 O 0.94964 0.18413 0.34216 0.0
C157 C 0.9181 0.13661 0.29938 0.0
O158 O 0.87665 0.16958 0.36289 0.0
O159 O 0.86397 0.11193 0.36859 0.0
Zn160 Zn 0.85009 0.73067 0.33502 0.0
O161 O 0.87175 0.69404 0.3263 0.0
C162 C 0.87242 0.72085 0.37452 0.0
Zn163 Zn 0.90587 0.77752 0.34044 0.0
C164 C 0.90713 0.7112 0.32333 0.0
O165 O 0.92593 0.74628 0.32612 0.0
C166 C 0.85419 0.80102 0.35202 0.0
O167 O 0.90349 0.80542 0.31215 0.0
O168 O 0.85338 0.75111 0.30636 0.0
N169 N 0.961 0.81487 0.34612 0.0
C170 C 0.98345 0.85254 0.34671 0.0
C171 C 0.01725 0.82827 0.35416 0.0
N172 N 0.98211 0.8 0.35082 0.0
N173 N 0.01896 0.8616 0.35177 0.0
C174 C 0.77543 0.65502 0.3354 0.0
C175 C 0.74151 0.66653 0.31635 0.0
N176 N 0.79684 0.69052 0.32892 0.0
N177 N 0.77585 0.69754 0.31695 0.0
N178 N 0.74066 0.63949 0.32777 0.0
H179 H 0.81864 0.64422 0.34589 0.0
H180 H 0.77157 0.60403 0.34653 0.0
H181 H 0.78552 0.64135 0.36385 0.0
C182 C 0.78866 0.63496 0.3486 0.0
C183 C 0.97078 0.87989 0.3415 0.0
H184 H 0.99357 0.90466 0.33387 0.0
H185 H 0.96374 0.8898 0.35494 0.0
H186 H 0.9452 0.86629 0.33231 0.0
O187 O 0.88817 0.80955 0.35441 0.0
O188 O 0.83121 0.76955 0.34413 0.0
C189 C 0.87573 0.7847 0.30093 0.0
O190 O 0.84421 0.70933 0.36343 0.0
O191 O 0.90377 0.74858 0.36877 0.0
Zn192 Zn 0.91646 0.73307 0.84305 0.0
O193 O 0.94384 0.70069 0.84617 0.0
C194 C 0.918 0.73851 0.88625 0.0
Zn195 Zn 0.9667 0.78261 0.85582 0.0
C196 C 0.97757 0.71588 0.85242 0.0
O197 O 0.99507 0.75086 0.85661 0.0
C198 C 0.9042 0.79774 0.84776 0.0
O199 O 0.98356 0.79762 0.82733 0.0
O200 O 0.93583 0.74706 0.81472 0.0
N201 N 0.0141 0.83056 0.86482 0.0
C202 C 0.02571 0.86691 0.86066 0.0
C203 C 0.06721 0.86642 0.87907 0.0
N204 N 0.03996 0.8303 0.87625 0.0
N205 N 0.05857 0.88979 0.86958 0.0
C206 C 0.84229 0.65588 0.84306 0.0
C207 C 0.8134 0.66327 0.81941 0.0
N208 N 0.8672 0.68761 0.83371 0.0
N209 N 0.84928 0.69175 0.81882 0.0
N210 N 0.80789 0.64043 0.83465 0.0
H211 H 0.88184 0.64386 0.85728 0.0
H212 H 0.83297 0.60728 0.85953 0.0
H213 H 0.85102 0.64999 0.87319 0.0
C214 C 0.85262 0.63815 0.85915 0.0
C215 C 0.00626 0.88029 0.84705 0.0
H216 H 0.02688 0.90713 0.83999 0.0
H217 H 0.98617 0.88544 0.85538 0.0
H218 H 0.99061 0.85931 0.83565 0.0
O219 O 0.93629 0.81172 0.85574 0.0
O220 O 0.88955 0.76526 0.84029 0.0
C221 C 0.9663 0.77815 0.81264 0.0
O222 O 0.89833 0.7209 0.87161 0.0
O223 O 0.95029 0.76723 0.88396 0.0
Zn224 Zn 0.2229 0.18828 0.85538 0.0
O225 O 0.21269 0.18932 0.82588 0.0
C226 C 0.20024 0.10665 0.85016 0.0
Zn227 Zn 0.26933 0.17957 0.84507 0.0
C228 C 0.23187 0.1862 0.81236 0.0
O229 O 0.26053 0.18348 0.81628 0.0
C230 C 0.25859 0.17808 0.88767 0.0
O231 O 0.30601 0.23857 0.84668 0.0
O232 O 0.26071 0.2491 0.85549 0.0
N233 N 0.31326 0.17193 0.83848 0.0
C234 C 0.34402 0.17826 0.8486 0.0
C235 C 0.34184 0.14797 0.82319 0.0
N236 N 0.31223 0.15352 0.82259 0.0
N237 N 0.36232 0.16301 0.8394 0.0
C238 C 0.14051 0.1728 0.85635 0.0
C239 C 0.1446 0.21722 0.874 0.0
N240 N 0.17697 0.19402 0.86169 0.0
N241 N 0.17942 0.22163 0.87263 0.0
N242 N 0.11961 0.18656 0.86404 0.0
H243 H 0.10217 0.13815 0.83391 0.0
H244 H 0.11469 0.11359 0.85127 0.0
H245 H 0.14775 0.14189 0.83291 0.0
C246 C 0.12563 0.13994 0.84274 0.0
C247 C 0.35711 0.20125 0.86679 0.0
H248 H 0.34989 0.22389 0.86649 0.0
H249 H 0.38803 0.21401 0.86857 0.0
H250 H 0.34286 0.18305 0.87949 0.0
O251 O 0.2763 0.1739 0.87383 0.0
O252 O 0.23373 0.18711 0.88451 0.0
C253 C 0.29548 0.26171 0.85161 0.0
O254 O 0.18795 0.12789 0.85603 0.0
O255 O 0.23365 0.12146 0.8438 0.0
Zn256 Zn 0.81274 0.02398 0.85327 0.0
O257 O 0.81557 0.01329 0.82351 0.0
C258 C 0.89655 0.08016 0.85291 0.0
Zn259 Zn 0.82721 0.08132 0.8439 0.0
C260 C 0.82467 0.03864 0.81066 0.0
O261 O 0.83092 0.07101 0.81539 0.0
C262 C 0.81601 0.06836 0.88613 0.0
O263 O 0.76841 0.06027 0.84097 0.0
O264 O 0.75343 0.00357 0.85072 0.0
N265 N 0.83768 0.13361 0.83699 0.0
C266 C 0.82689 0.15634 0.84537 0.0
C267 C 0.86743 0.18835 0.82375 0.0
N268 N 0.86246 0.15339 0.82337 0.0
N269 N 0.84555 0.19105 0.83747 0.0
C270 C 0.81935 0.95217 0.85425 0.0
C271 C 0.78635 0.92316 0.87896 0.0
N272 N 0.80324 0.97178 0.8607 0.0
N273 N 0.78253 0.95356 0.87597 0.0
N274 N 0.80897 0.92151 0.86536 0.0
H275 H 0.8323 0.94865 0.82466 0.0
H276 H 0.86936 0.95677 0.84121 0.0
H277 H 0.86099 0.99453 0.83496 0.0
C278 C 0.84727 0.96407 0.83795 0.0
C279 C 0.79704 0.14429 0.86066 0.0
H280 H 0.77482 0.1146 0.85874 0.0
H281 H 0.78406 0.16239 0.86032 0.0
H282 H 0.8098 0.14696 0.87509 0.0
O283 O 0.82453 0.09186 0.87248 0.0
O284 O 0.80908 0.03523 0.88254 0.0
C285 C 0.74327 0.02689 0.84537 0.0
O286 O 0.87225 0.04603 0.85655 0.0
O287 O 0.88542 0.10225 0.847 0.0
Zn288 Zn 0.74373 0.92298 0.66955 0.0
O289 O 0.70257 0.94017 0.67057 0.0
C290 C 0.75102 0.93801 0.62729 0.0
Zn291 Zn 0.78539 0.98149 0.66089 0.0
C292 C 0.70968 0.97308 0.66595 0.0
O293 O 0.74342 0.99802 0.66185 0.0
C294 C 0.81703 0.92876 0.66229 0.0
O295 O 0.7946 0.98996 0.6912 0.0
O296 O 0.75277 0.93162 0.69846 0.0
N297 N 0.82719 0.03612 0.65595 0.0
C298 C 0.8635 0.05423 0.66173 0.0
C299 C 0.85514 0.09327 0.64511 0.0
N300 N 0.82201 0.06049 0.64569 0.0
N301 N 0.88161 0.08988 0.65499 0.0
C302 C 0.6717 0.84534 0.66524 0.0
C303 C 0.67714 0.81561 0.68918 0.0
N304 N 0.70322 0.86941 0.67493 0.0
N305 N 0.70635 0.85101 0.6899 0.0
N306 N 0.6549 0.8112 0.67385 0.0
H307 H 0.6629 0.88534 0.64899 0.0
H308 H 0.62563 0.83702 0.64674 0.0
H309 H 0.67008 0.85318 0.63464 0.0
C310 C 0.65656 0.85582 0.64799 0.0
C311 C 0.88111 0.03794 0.67474 0.0
H312 H 0.86 0.01422 0.68348 0.0
H313 H 0.90179 0.05992 0.68461 0.0
H314 H 0.89644 0.02764 0.66578 0.0
O315 O 0.82553 0.96255 0.65869 0.0
O316 O 0.78392 0.90548 0.66799 0.0
C317 C 0.77768 0.96413 0.70375 0.0
O318 O 0.73576 0.91411 0.64071 0.0
O319 O 0.77462 0.97209 0.63114 0.0
Zn320 Zn 0.08382 0.83522 0.67564 0.0
O321 O 0.06303 0.77649 0.6725 0.0
C322 C 0.09115 0.83857 0.63303 0.0
Zn323 Zn 0.03204 0.82443 0.6598 0.0
C324 C 0.03168 0.75243 0.66507 0.0
O325 O 0.00957 0.76362 0.6588 0.0
C326 C 0.08706 0.90726 0.66957 0.0
O327 O 0.00898 0.81973 0.68774 0.0
O328 O 0.05948 0.82593 0.70232 0.0
N329 N 0.9854 0.82149 0.64637 0.0
C330 C 0.95232 0.81664 0.65315 0.0
C331 C 0.96034 0.84093 0.62508 0.0
N332 N 0.98986 0.83605 0.62878 0.0
N333 N 0.93623 0.8289 0.64013 0.0
C334 C 0.15821 0.83464 0.67956 0.0
C335 C 0.18698 0.87686 0.70087 0.0
N336 N 0.13304 0.84302 0.68722 0.0
N337 N 0.15083 0.86876 0.70074 0.0
N338 N 0.19254 0.85619 0.68752 0.0
H339 H 0.12275 0.77852 0.66861 0.0
H340 H 0.17197 0.79731 0.66415 0.0
H341 H 0.146 0.81369 0.65026 0.0
C342 C 0.14919 0.80439 0.66481 0.0
C343 C 0.93717 0.80268 0.67302 0.0
H344 H 0.94266 0.77972 0.67708 0.0
H345 H 0.90643 0.79162 0.67377 0.0
H346 H 0.95104 0.82621 0.68349 0.0
O347 O 0.05695 0.88565 0.66029 0.0
O348 O 0.10384 0.89297 0.67858 0.0
C349 C 0.02627 0.82052 0.70315 0.0
O350 O 0.1086 0.84559 0.64891 0.0
O351 O 0.05634 0.82795 0.63285 0.0
Zn352 Zn 0.17399 0.27343 0.68311 0.0
O353 O 0.23372 0.30734 0.6881 0.0
C354 C 0.19137 0.28574 0.64164 0.0
Zn355 Zn 0.18516 0.23057 0.66937 0.0
C356 C 0.25702 0.29854 0.68094 0.0
O357 O 0.24452 0.26638 0.67297 0.0
C358 C 0.10332 0.20798 0.66911 0.0
O359 O 0.18051 0.20877 0.69706 0.0
O360 O 0.1651 0.24814 0.70973 0.0
N361 N 0.18951 0.1857 0.65828 0.0
C362 C 0.1709 0.14909 0.66387 0.0
C363 C 0.2004 0.15224 0.63795 0.0
N364 N 0.2078 0.18748 0.64215 0.0
N365 N 0.17753 0.12768 0.65147 0.0
C366 C 0.172 0.34755 0.68977 0.0
C367 C 0.12911 0.32965 0.71114 0.0
N368 N 0.16313 0.31252 0.69519 0.0
N369 N 0.13689 0.30173 0.70873 0.0
N370 N 0.15051 0.35877 0.69927 0.0
H371 H 0.22565 0.36451 0.67667 0.0
H372 H 0.21408 0.40162 0.67884 0.0
H373 H 0.19096 0.36527 0.66098 0.0
C374 C 0.20267 0.37126 0.67581 0.0
C375 C 0.14394 0.1334 0.68064 0.0
H376 H 0.15981 0.13418 0.69382 0.0
H377 H 0.12192 0.10375 0.67799 0.0
H378 H 0.12966 0.1496 0.68348 0.0
O379 O 0.12684 0.19769 0.66487 0.0
O380 O 0.11507 0.2398 0.67707 0.0
C381 C 0.1702 0.22037 0.71149 0.0
O382 O 0.18332 0.29831 0.65651 0.0
O383 O 0.19127 0.25471 0.64222 0.0
Zn384 Zn 0.78502 0.55895 0.51054 0.0
O385 O 0.75424 0.52781 0.53777 0.0
C386 C 0.71143 0.54092 0.4966 0.0
Zn387 Zn 0.77448 0.60497 0.51866 0.0
C388 C 0.74031 0.54282 0.54886 0.0
O389 O 0.74739 0.57597 0.54484 0.0
C390 C 0.81435 0.62248 0.47988 0.0
O391 O 0.82942 0.63545 0.53249 0.0
O392 O 0.83548 0.58696 0.52511 0.0
N393 N 0.76238 0.6457 0.52594 0.0
C394 C 0.78049 0.68297 0.52227 0.0
C395 C 0.729 0.66909 0.5364 0.0
N396 N 0.73056 0.63719 0.53491 0.0
N397 N 0.76 0.69823 0.52854 0.0
C398 C 0.79639 0.48811 0.50974 0.0
C399 C 0.83457 0.50389 0.48597 0.0
N400 N 0.80066 0.52058 0.50249 0.0
N401 N 0.82429 0.53009 0.48771 0.0
N402 N 0.81778 0.47733 0.49972 0.0
H403 H 0.78197 0.4793 0.53978 0.0
H404 H 0.76299 0.43639 0.52579 0.0
H405 H 0.74279 0.46634 0.52367 0.0
C406 C 0.76949 0.46607 0.52566 0.0
C407 C 0.81854 0.7047 0.51303 0.0
H408 H 0.83592 0.6916 0.51595 0.0
H409 H 0.83352 0.7342 0.51831 0.0
H410 H 0.81482 0.70518 0.49718 0.0
O411 O 0.79969 0.63433 0.49214 0.0
O412 O 0.81295 0.59127 0.48343 0.0
C413 C 0.84911 0.61935 0.53249 0.0
O414 O 0.73557 0.5303 0.49599 0.0
O415 O 0.71994 0.57209 0.50479 0.0
Zn416 Zn 0.4434 0.23172 0.5061 0.0
O417 O 0.46951 0.22923 0.53468 0.0
C418 C 0.46736 0.18087 0.49368 0.0
Zn419 Zn 0.39574 0.17501 0.50966 0.0
C420 C 0.44909 0.19988 0.54499 0.0
O421 O 0.41612 0.17699 0.53876 0.0
C422 C 0.39018 0.20057 0.47045 0.0
O423 O 0.35812 0.19578 0.51819 0.0
O424 O 0.40975 0.25025 0.51917 0.0
N425 N 0.35558 0.12113 0.51518 0.0
C426 C 0.32019 0.09893 0.50865 0.0
C427 C 0.33157 0.06701 0.52919 0.0
N428 N 0.36252 0.10127 0.52796 0.0
N429 N 0.30462 0.0649 0.51726 0.0
C430 C 0.51788 0.31016 0.50006 0.0
C431 C 0.49244 0.34312 0.49312 0.0
N432 N 0.48028 0.28723 0.50105 0.0
N433 N 0.46472 0.30785 0.49667 0.0
N434 N 0.52617 0.34546 0.49505 0.0
H435 H 0.5332 0.27322 0.51453 0.0
H436 H 0.57136 0.32139 0.5116 0.0
H437 H 0.55439 0.28991 0.49119 0.0
C438 C 0.54588 0.29804 0.50476 0.0
C439 C 0.30033 0.11107 0.49469 0.0
H440 H 0.30941 0.14121 0.49673 0.0
H441 H 0.26932 0.09396 0.49655 0.0
H442 H 0.30741 0.10716 0.47969 0.0
O443 O 0.3756 0.17109 0.48081 0.0
O444 O 0.41795 0.23048 0.47739 0.0
C445 C 0.37429 0.23126 0.52066 0.0
O446 O 0.47687 0.21534 0.493 0.0
O447 O 0.43494 0.15693 0.50033 0.0
Zn448 Zn 0.77435 0.21877 0.51033 0.0
O449 O 0.77165 0.24434 0.53856 0.0
C450 C 0.82943 0.29375 0.49883 0.0
Zn451 Zn 0.83048 0.22715 0.51732 0.0
C452 C 0.80048 0.25694 0.5497 0.0
O453 O 0.82645 0.24987 0.54516 0.0
C454 C 0.8097 0.19654 0.47705 0.0
O455 O 0.80653 0.16891 0.52806 0.0
O456 O 0.75248 0.16537 0.52258 0.0
N457 N 0.88375 0.24005 0.52458 0.0
C458 C 0.90596 0.22619 0.51906 0.0
C459 C 0.93851 0.27291 0.53759 0.0
N460 N 0.90399 0.26889 0.53619 0.0
N461 N 0.94061 0.24652 0.52696 0.0
C462 C 0.69794 0.21698 0.50158 0.0
C463 C 0.66559 0.15983 0.49228 0.0
N464 N 0.72037 0.20182 0.50267 0.0
N465 N 0.70019 0.16645 0.49681 0.0
N466 N 0.66334 0.19105 0.49506 0.0
H467 H 0.73333 0.26702 0.51809 0.0
H468 H 0.68565 0.25768 0.51411 0.0
H469 H 0.71955 0.27496 0.49468 0.0
C470 C 0.70971 0.25638 0.50761 0.0
C471 C 0.89304 0.19169 0.50687 0.0
H472 H 0.86282 0.1714 0.50947 0.0
H473 H 0.90982 0.1779 0.51008 0.0
H474 H 0.89669 0.19978 0.49135 0.0
O475 O 0.83648 0.20783 0.48917 0.0
O476 O 0.78009 0.19715 0.48208 0.0
C477 C 0.7706 0.14944 0.52781 0.0
O478 O 0.79443 0.27056 0.4979 0.0
O479 O 0.85165 0.28382 0.50624 0.0
Zn480 Zn 0.94533 0.45715 0.66262 0.0
O481 O 0.97533 0.51639 0.6538 0.0
C482 C 0.95727 0.48613 0.70358 0.0
Zn483 Zn 0.89502 0.45828 0.67208 0.0
C484 C 0.95444 0.53127 0.65336 0.0
O485 O 0.92028 0.51161 0.65849 0.0
C486 C 0.88171 0.38536 0.68123 0.0
O487 O 0.86567 0.42734 0.64404 0.0
O488 O 0.92118 0.4388 0.63465 0.0
N489 N 0.85328 0.46904 0.68055 0.0
C490 C 0.8195 0.46155 0.6735 0.0
C491 C 0.8337 0.50132 0.69633 0.0
N492 N 0.86177 0.49358 0.69477 0.0
N493 N 0.80683 0.48194 0.68304 0.0
C494 C 0.02344 0.46143 0.65998 0.0
C495 C 0.01093 0.41763 0.63976 0.0
N496 N 0.98783 0.4484 0.65382 0.0
N497 N 0.98033 0.42149 0.64108 0.0
N498 N 0.03844 0.44226 0.65154 0.0
H499 H 0.03425 0.51456 0.67144 0.0
H500 H 0.07487 0.50813 0.67085 0.0
H501 H 0.03836 0.48359 0.68856 0.0
C502 C 0.04404 0.494 0.67343 0.0
C503 C 0.7983 0.43262 0.65828 0.0
H504 H 0.80883 0.44518 0.64377 0.0
H505 H 0.76764 0.42228 0.65914 0.0
H506 H 0.80291 0.40837 0.66014 0.0
O507 O 0.86918 0.40702 0.68547 0.0
O508 O 0.91231 0.39809 0.67161 0.0
C509 C 0.88611 0.42345 0.63121 0.0
O510 O 0.97046 0.47414 0.69059 0.0
O511 O 0.92603 0.48493 0.70005 0.0
Zn512 Zn 0.55286 0.49356 0.66793 0.0
O513 O 0.49346 0.46883 0.66033 0.0
C514 C 0.52598 0.47205 0.7081 0.0
Zn515 Zn 0.54759 0.43903 0.67341 0.0
C516 C 0.47583 0.43321 0.65846 0.0
O517 O 0.49362 0.41578 0.66099 0.0
C518 C 0.62265 0.49436 0.68362 0.0
O519 O 0.57432 0.43959 0.64477 0.0
O520 O 0.5692 0.48919 0.63892 0.0
N521 N 0.53242 0.38556 0.68038 0.0
C522 C 0.54853 0.36399 0.68102 0.0
C523 C 0.49202 0.33059 0.69123 0.0
N524 N 0.49747 0.36477 0.68681 0.0
N525 N 0.52362 0.32931 0.68785 0.0
C526 C 0.54818 0.5666 0.6672 0.0
C527 C 0.59236 0.60014 0.64745 0.0
N528 N 0.5631 0.54573 0.66107 0.0
N529 N 0.59031 0.56649 0.64868 0.0
N530 N 0.56623 0.60103 0.65892 0.0
H531 H 0.49544 0.52219 0.67855 0.0
H532 H 0.49962 0.56812 0.67806 0.0
H533 H 0.52509 0.55719 0.69576 0.0
C534 C 0.51503 0.55267 0.68057 0.0
C535 C 0.58784 0.37672 0.67431 0.0
H536 H 0.59757 0.40058 0.66404 0.0
H537 H 0.58937 0.35318 0.66735 0.0
H538 H 0.60704 0.38649 0.68699 0.0
O539 O 0.59944 0.45963 0.68571 0.0
O540 O 0.61189 0.51588 0.6761 0.0
C541 C 0.58049 0.46689 0.63345 0.0
O542 O 0.53849 0.49999 0.69671 0.0
O543 O 0.52496 0.44215 0.70212 0.0
Zn544 Zn 0.51409 0.06949 0.66201 0.0
O545 O 0.53509 0.03455 0.64965 0.0
C546 C 0.53972 0.05915 0.70092 0.0
Zn547 Zn 0.57199 0.1166 0.667 0.0
C548 C 0.57083 0.05057 0.64801 0.0
O549 O 0.59093 0.08452 0.65313 0.0
C550 C 0.51992 0.13784 0.68168 0.0
O551 O 0.57023 0.14411 0.63893 0.0
O552 O 0.51417 0.09513 0.63446 0.0
N553 N 0.6276 0.15422 0.6728 0.0
C554 C 0.65385 0.18901 0.6669 0.0
C555 C 0.68109 0.16914 0.68595 0.0
N556 N 0.64475 0.14213 0.68461 0.0
N557 N 0.6878 0.1989 0.6749 0.0
C558 C 0.43775 0.99457 0.66412 0.0
C559 C 0.40212 0.00885 0.64823 0.0
N560 N 0.45956 0.02966 0.65709 0.0
N561 N 0.43741 0.03832 0.64706 0.0
N562 N 0.40152 0.98106 0.65892 0.0
H563 H 0.48116 0.98129 0.67078 0.0
H564 H 0.43347 0.94215 0.6729 0.0
H565 H 0.45201 0.97858 0.69091 0.0
C566 C 0.45202 0.97285 0.67524 0.0
C567 C 0.64545 0.21357 0.65427 0.0
H568 H 0.6476 0.20723 0.63887 0.0
H569 H 0.66566 0.24379 0.657 0.0
H570 H 0.61633 0.20774 0.65695 0.0
O571 O 0.55473 0.14871 0.68081 0.0
O572 O 0.49594 0.10569 0.6749 0.0
C573 C 0.53973 0.12768 0.62894 0.0
O574 O 0.51172 0.04482 0.68957 0.0
O575 O 0.56947 0.08891 0.69537 0.0
Zn576 Zn 0.59741 0.07234 0.17356 0.0
O577 O 0.62315 0.03819 0.177 0.0
C578 C 0.59565 0.07638 0.21633 0.0
Zn579 Zn 0.64793 0.12032 0.18689 0.0
C580 C 0.65644 0.05229 0.18371 0.0
O581 O 0.67448 0.0871 0.18813 0.0
C582 C 0.58739 0.13879 0.17832 0.0
O583 O 0.66681 0.13579 0.15805 0.0
O584 O 0.61751 0.08591 0.14594 0.0
N585 N 0.69601 0.1664 0.19658 0.0
C586 C 0.70974 0.20316 0.19261 0.0
C587 C 0.74931 0.19949 0.21122 0.0
N588 N 0.72068 0.16412 0.20811 0.0
N589 N 0.74281 0.22431 0.20169 0.0
C590 C 0.52348 0.99555 0.17269 0.0
C591 C 0.49621 1.00223 0.14806 0.0
N592 N 0.54856 0.02768 0.16372 0.0
N593 N 0.53174 0.03143 0.14823 0.0
N594 N 0.48994 0.97935 0.16338 0.0
H595 H 0.56214 0.98521 0.18911 0.0
H596 H 0.51357 0.94794 0.19028 0.0
H597 H 0.52905 0.99109 0.20336 0.0
C598 C 0.5326 0.97891 0.18979 0.0
C599 C 0.69192 0.21855 0.17915 0.0
H600 H 0.71355 0.24546 0.17255 0.0
H601 H 0.67218 0.2242 0.1875 0.0
H602 H 0.67614 0.19844 0.16743 0.0
O603 O 0.61929 0.15153 0.18642 0.0
O604 O 0.57194 0.10638 0.17062 0.0
C605 C 0.64857 0.11612 0.14354 0.0
O606 O 0.57769 0.05999 0.20117 0.0
O607 O 0.62894 0.10408 0.21528 0.0
Zn608 Zn 0.94818 0.51756 0.17825 0.0
O609 O 0.97986 0.57783 0.17995 0.0
C610 C 0.9365 0.51575 0.22064 0.0
Zn611 Zn 0.89734 0.51978 0.18761 0.0
C612 C 0.96422 0.59697 0.1843 0.0
O613 O 0.92883 0.57987 0.18754 0.0
C614 C 0.8831 0.44115 0.18312 0.0
O615 O 0.88714 0.52022 0.15795 0.0
O616 O 0.93865 0.52018 0.14921 0.0
N617 N 0.84787 0.51883 0.19392 0.0
C618 C 0.81208 0.49357 0.1889 0.0
C619 C 0.80963 0.53342 0.20766 0.0
N620 N 0.84626 0.54362 0.20555 0.0
N621 N 0.78765 0.50184 0.19751 0.0
C622 C 0.02551 0.52175 0.18267 0.0
C623 C 0.02593 0.49222 0.1575 0.0
N624 N 0.9953 0.51494 0.17189 0.0
N625 N 0.99597 0.4971 0.15612 0.0
N626 N 0.04498 0.50706 0.17411 0.0
H627 H 0.02282 0.52745 0.21346 0.0
H628 H 0.02936 0.56741 0.19973 0.0
H629 H 0.06819 0.55872 0.20287 0.0
C630 C 0.0373 0.54529 0.20069 0.0
C631 C 0.80086 0.46193 0.17478 0.0
H632 H 0.77598 0.4574 0.16625 0.0
H633 H 0.79291 0.43563 0.18286 0.0
H634 H 0.824 0.46747 0.16472 0.0
O635 O 0.86821 0.4604 0.1883 0.0
O636 O 0.9169 0.45803 0.17716 0.0
C637 C 0.90878 0.52034 0.14478 0.0
O638 O 0.95619 0.51388 0.20709 0.0
O639 O 0.9086 0.52001 0.21701 0.0
Zn640 Zn 0.48552 0.36069 0.18963 0.0
O641 O 0.48522 0.34862 0.16026 0.0
C642 C 0.56745 0.42166 0.18588 0.0
Zn643 Zn 0.49406 0.41581 0.17917 0.0
C644 C 0.49044 0.37175 0.14676 0.0
O645 O 0.49468 0.40374 0.15061 0.0
C646 C 0.48985 0.40559 0.2219 0.0
O647 O 0.43533 0.39199 0.17845 0.0
O648 O 0.42404 0.33685 0.1891 0.0
N649 N 0.50128 0.46692 0.17171 0.0
C650 C 0.49223 0.49042 0.18071 0.0
C651 C 0.52865 0.5206 0.15729 0.0
N652 N 0.52343 0.48555 0.15697 0.0
N653 N 0.50961 0.52466 0.17212 0.0
C654 C 0.4986 0.29227 0.18921 0.0
C655 C 0.47166 0.26317 0.21518 0.0
N656 N 0.48136 0.30998 0.19691 0.0
N657 N 0.46447 0.29167 0.213 0.0
N658 N 0.4927 0.26274 0.20032 0.0
H659 H 0.53681 0.33581 0.16939 0.0
H660 H 0.50556 0.29102 0.15864 0.0
H661 H 0.54544 0.29725 0.17242 0.0
C662 C 0.52322 0.30508 0.17152 0.0
C663 C 0.46466 0.47915 0.19708 0.0
H664 H 0.44227 0.44931 0.19571 0.0
H665 H 0.45171 0.49728 0.19744 0.0
H666 H 0.47938 0.48232 0.21095 0.0
O667 O 0.49443 0.42753 0.20792 0.0
O668 O 0.48505 0.37309 0.2187 0.0
C669 C 0.41178 0.35871 0.18382 0.0
O670 O 0.54667 0.3873 0.19077 0.0
O671 O 0.55204 0.44 0.18009 0.0
Zn672 Zn 0.44419 0.29555 1.00075 0.0
O673 O 0.45462 0.30502 0.03029 0.0
C674 C 0.46457 0.23468 0.00434 0.0
Zn675 Zn 0.39698 0.23954 0.01036 0.0
C676 C 0.4352 0.28204 0.04355 0.0
O677 O 0.40664 0.25085 0.03928 0.0
C678 C 0.4072 0.25336 0.9676 0.0
O679 O 0.36151 0.26299 0.00968 0.0
O680 O 0.4071 0.3195 1.00137 0.0
N681 N 0.35269 0.18773 0.01735 0.0
C682 C 0.3233 0.16107 0.00726 0.0
C683 C 0.32475 0.1367 0.03426 0.0
N684 N 0.35314 0.17261 0.03424 0.0
N685 N 0.30559 0.12858 0.01745 0.0
C686 C 0.5286 0.35789 1.00004 0.0
C687 C 0.52966 0.40189 0.98317 0.0
N688 N 0.4925 0.34669 0.99521 0.0
N689 N 0.49327 0.37421 0.98477 0.0
N690 N 0.55233 0.39208 0.99252 0.0
H691 H 0.56653 0.35609 0.02113 0.0
H692 H 0.54819 0.31874 0.0037 0.0
H693 H 0.51868 0.31812 0.02317 0.0
C694 C 0.54096 0.33643 0.01283 0.0
C695 C 0.31084 0.1673 0.98792 0.0
H696 H 0.31702 0.1968 0.98656 0.0
H697 H 0.28022 0.14772 0.98585 0.0
H698 H 0.32619 0.16177 0.97645 0.0
O699 O 0.38923 0.22945 0.98086 0.0
O700 O 0.43347 0.28609 0.97185 0.0
C701 C 0.37227 0.29699 0.0052 0.0
O702 O 0.47692 0.26842 0.99889 0.0
O703 O 0.4314 0.21576 0.01087 0.0
Zn704 Zn 0.74417 0.15492 1.00083 0.0
O705 O 0.72135 0.09493 0.99762 0.0
C706 C 0.7433 0.15906 0.9583 0.0
Zn707 Zn 0.69028 0.14621 0.98868 0.0
C708 C 0.68787 0.07361 0.99149 0.0
O709 O 0.66749 0.08791 0.9873 0.0
C710 C 0.74634 0.22714 0.99668 0.0
O711 O 0.67182 0.14075 0.01751 0.0
O712 O 0.72485 0.14726 0.02887 0.0
N713 N 0.6414 0.14194 0.97887 0.0
C714 C 0.62092 0.1563 0.98632 0.0
C715 C 0.59769 0.13352 0.95863 0.0
N716 N 0.62688 0.12769 0.96169 0.0
N717 N 0.59327 0.15107 0.97399 0.0
C718 C 0.82081 0.1575 1.00067 0.0
C719 C 0.84712 0.19049 0.02569 0.0
N720 N 0.79478 0.16248 0.01003 0.0
N721 N 0.81105 0.18253 0.02572 0.0
N722 N 0.85426 0.17546 0.01002 0.0
H723 H 0.78353 0.10934 0.98332 0.0
H724 H 0.83258 0.12221 0.98225 0.0
H725 H 0.81627 0.14986 0.96977 0.0
C726 C 0.81282 0.13324 0.98305 0.0
C727 C 0.62931 0.17782 0.005 0.0
H728 H 0.61307 0.15791 0.01683 0.0
H729 H 0.62076 0.1995 0.00422 0.0
H730 H 0.65948 0.19195 0.00876 0.0
O731 O 0.71418 0.205 0.98956 0.0
O732 O 0.76598 0.21371 0.00342 0.0
C733 C 0.69213 0.14225 0.03174 0.0
O734 O 0.76324 0.16371 0.97309 0.0
O735 O 0.70906 0.15006 0.96013 0.0
Zn736 Zn 0.85474 0.55182 0.99837 0.0
O737 O 0.8602 0.54378 0.0281 0.0
C738 C 0.77319 0.53019 0.0056 0.0
Zn739 Zn 0.84753 0.59872 0.00889 0.0
C740 C 0.85761 0.56334 0.04159 0.0
O741 O 0.85244 0.59051 0.03762 0.0
C742 C 0.84307 0.58702 0.96613 0.0
O743 O 0.90644 0.63406 0.00675 0.0
O744 O 0.91545 0.58906 0.99603 0.0
N745 N 0.84244 0.64401 0.01511 0.0
C746 C 0.85179 0.67546 0.00483 0.0
C747 C 0.81962 0.67485 0.02912 0.0
N748 N 0.82295 0.64396 0.03036 0.0
N749 N 0.83727 0.69512 0.01318 0.0
C750 C 0.84056 0.47045 0.99799 0.0
C751 C 0.88412 0.47459 0.97951 0.0
N752 N 0.86058 0.50649 0.99198 0.0
N753 N 0.88771 0.50906 0.98055 0.0
N754 N 0.85462 0.44988 0.99027 0.0
H755 H 0.81156 0.47811 0.0222 0.0
H756 H 0.80719 0.43229 0.02086 0.0
H757 H 0.78172 0.44515 0.00422 0.0
C758 C 0.80863 0.4558 0.01222 0.0
C759 C 0.87653 0.68778 0.98716 0.0
H760 H 0.8594 0.67385 0.97413 0.0
H761 H 0.89862 0.67996 0.98823 0.0
H762 H 0.89027 0.71873 0.98519 0.0
O763 O 0.84119 0.60573 0.98016 0.0
O764 O 0.85004 0.56067 0.96907 0.0
C765 C 0.92878 0.6236 1.00045 0.0
O766 O 0.79354 0.51666 0.99985 0.0
O767 O 0.78917 0.56433 0.01088 0.0
Zn768 Zn 0.44638 0.88235 0.83445 0.0
O769 O 0.41793 0.85605 0.8627 0.0
C770 C 0.37362 0.87187 0.82545 0.0
Zn771 Zn 0.44756 0.93495 0.84177 0.0
C772 C 0.41494 0.87795 0.87483 0.0
O773 O 0.42942 0.91248 0.8702 0.0
C774 C 0.47442 0.94147 0.80117 0.0
O775 O 0.50639 0.96285 0.85016 0.0
O776 O 0.50018 0.90693 0.84695 0.0
N777 N 0.44244 0.97966 0.84996 0.0
C778 C 0.4594 0.01599 0.84432 0.0
C779 C 0.41631 0.00709 0.86439 0.0
N780 N 0.41593 0.97433 0.86256 0.0
N781 N 0.44327 0.03384 0.85309 0.0
C782 C 0.46305 0.81553 0.83568 0.0
C783 C 0.47687 0.81471 0.80602 0.0
N784 N 0.4545 0.8389 0.82598 0.0
N785 N 0.46288 0.838 0.80757 0.0
N786 N 0.47808 0.8006 0.82348 0.0
H787 H 0.4747 0.82841 0.86582 0.0
H788 H 0.45223 0.77847 0.86029 0.0
H789 H 0.42544 0.80158 0.85973 0.0
C790 C 0.45357 0.80538 0.85658 0.0
C791 C 0.49287 0.03415 0.83112 0.0
H792 H 0.5106 0.02101 0.83293 0.0
H793 H 0.51006 0.06478 0.83408 0.0
H794 H 0.48307 0.03014 0.81589 0.0
O795 O 0.4646 0.95822 0.81323 0.0
O796 O 0.47127 0.91005 0.80622 0.0
C797 C 0.52049 0.9414 0.85127 0.0
O798 O 0.39385 0.8572 0.8222 0.0
O799 O 0.38815 0.90411 0.83353 0.0
Zn800 Zn 0.11189 0.56039 0.84342 0.0
O801 O 0.13914 0.55819 0.87213 0.0
C802 C 0.12869 0.50189 0.83248 0.0
Zn803 Zn 0.06348 0.50497 0.85029 0.0
C804 C 0.11914 0.53048 0.88355 0.0
O805 O 0.08552 0.50751 0.87841 0.0
C806 C 0.05366 0.52799 0.81007 0.0
O807 O 0.03207 0.53176 0.85985 0.0
O808 O 0.08371 0.58586 0.85574 0.0
N809 N 0.02024 0.45328 0.85724 0.0
C810 C 0.9841 0.43381 0.85135 0.0
C811 C 0.99392 0.39752 0.86942 0.0
N812 N 0.02616 0.43082 0.86865 0.0
N813 N 0.96703 0.3986 0.85866 0.0
C814 C 0.17566 0.64523 0.84587 0.0
C815 C 0.19405 0.65567 0.81652 0.0
N816 N 0.15586 0.61251 0.83614 0.0
N817 N 0.16745 0.61914 0.81794 0.0
N818 N 0.19985 0.67302 0.8338 0.0
H819 H 0.14251 0.62687 0.87219 0.0
H820 H 0.17151 0.67737 0.86942 0.0
H821 H 0.19208 0.64872 0.87551 0.0
C822 C 0.16983 0.64987 0.8669 0.0
C823 C 0.96516 0.4496 0.83909 0.0
H824 H 0.97704 0.48 0.84193 0.0
H825 H 0.93437 0.43456 0.8419 0.0
H826 H 0.96978 0.44594 0.82364 0.0
O827 O 0.04043 0.50069 0.82196 0.0
O828 O 0.08384 0.55822 0.81483 0.0
C829 C 0.04917 0.56763 0.86032 0.0
O830 O 0.13947 0.53651 0.83075 0.0
O831 O 0.09711 0.48009 0.84057 0.0
Zn832 Zn 0.43912 0.55744 0.84182 0.0
O833 O 0.43879 0.58569 0.86932 0.0
C834 C 0.50464 0.62995 0.83013 0.0
Zn835 Zn 0.49324 0.56041 0.84936 0.0
C836 C 0.46672 0.59535 0.88084 0.0
O837 O 0.49064 0.58521 0.87668 0.0
C838 C 0.47083 0.52887 0.80958 0.0
O839 O 0.45936 0.50198 0.86005 0.0
O840 O 0.40782 0.50411 0.85397 0.0
N841 N 0.54332 0.56482 0.85787 0.0
C842 C 0.56287 0.54862 0.85136 0.0
C843 C 0.59929 0.59353 0.86997 0.0
N844 N 0.56594 0.59245 0.8696 0.0
N845 N 0.59837 0.5665 0.85853 0.0
C846 C 0.35517 0.54045 0.83637 0.0
C847 C 0.35928 0.55693 0.80681 0.0
N848 N 0.39131 0.55418 0.8308 0.0
N849 N 0.39357 0.56429 0.81244 0.0
N850 N 0.33421 0.54166 0.82139 0.0
H851 H 0.36545 0.5378 0.86675 0.0
H852 H 0.3267 0.49583 0.85681 0.0
H853 H 0.32159 0.53641 0.86115 0.0
C854 C 0.34147 0.52704 0.85649 0.0
C855 C 0.54644 0.51398 0.83903 0.0
H856 H 0.51593 0.49585 0.84209 0.0
H857 H 0.56111 0.49786 0.84173 0.0
H858 H 0.54992 0.52218 0.82355 0.0
O859 O 0.49728 0.53866 0.82175 0.0
O860 O 0.44276 0.53247 0.81431 0.0
C861 C 0.42333 0.48585 0.85988 0.0
O862 O 0.46921 0.60964 0.82953 0.0
O863 O 0.52422 0.61752 0.83814 0.0
Zn864 Zn 0.61136 0.78107 1.00105 0.0
O865 O 0.64402 0.83821 0.99088 0.0
C866 C 0.61745 0.80982 0.04133 0.0
Zn867 Zn 0.5612 0.78604 0.00682 0.0
C868 C 0.6265 0.85639 0.98997 0.0
O869 O 0.59204 0.83988 0.99469 0.0
C870 C 0.54369 0.71209 0.01809 0.0
O871 O 0.53602 0.75948 0.97783 0.0
O872 O 0.58938 0.76103 0.97279 0.0
N873 N 0.52127 0.80056 0.01328 0.0
C874 C 0.48941 0.79601 0.00501 0.0
C875 C 0.50398 0.83602 0.02775 0.0
N876 N 0.53 0.82531 0.02742 0.0
N877 N 0.47826 0.81845 0.01372 0.0
C878 C 0.6904 0.78939 1.00064 0.0
C879 C 0.68105 0.7428 0.98314 0.0
N880 N 0.65409 0.77175 0.99494 0.0
N881 N 0.64841 0.74302 0.98394 0.0
N882 N 0.70788 0.77161 0.9935 0.0
H883 H 0.69648 0.84255 0.0098 0.0
H884 H 0.73971 0.84112 0.00933 0.0
H885 H 0.70539 0.81701 0.02808 0.0
C886 C 0.70909 0.82468 0.01252 0.0
C887 C 0.46852 0.76804 0.98934 0.0
H888 H 0.48076 0.78083 0.97509 0.0
H889 H 0.43817 0.75931 0.98947 0.0
H890 H 0.47135 0.74274 0.99134 0.0
O891 O 0.53043 0.73406 0.01885 0.0
O892 O 0.57658 0.72358 0.01123 0.0
C893 C 0.55631 0.75135 0.96699 0.0
O894 O 0.63384 0.79934 0.02944 0.0
O895 O 0.58693 0.80836 0.03591 0.0
Zn896 Zn 0.2259 0.82157 0.99203 0.0
O897 O 0.16676 0.78839 0.98298 0.0
C898 C 0.19815 0.80323 0.03283 0.0
Zn899 Zn 0.22381 0.76869 1.00071 0.0
C900 C 0.15062 0.75256 0.9838 0.0
O901 O 0.16931 0.73755 0.9896 0.0
C902 C 0.29766 0.83342 0.00956 0.0
O903 O 0.25008 0.76651 0.97295 0.0
O904 O 0.24793 0.81681 0.96434 0.0
N905 N 0.21831 0.71965 0.01114 0.0
C906 C 0.20082 0.68422 0.00411 0.0
C907 C 0.21296 0.68136 0.03381 0.0
N908 N 0.22583 0.71775 0.02958 0.0
N909 N 0.1965 0.65922 0.01825 0.0
C910 C 0.2373 0.90224 0.99085 0.0
C911 C 0.22254 0.9062 0.96167 0.0
N912 N 0.22767 0.86927 0.98218 0.0
N913 N 0.21838 0.87173 0.96407 0.0
N914 N 0.23396 0.92572 0.97834 0.0
H915 H 0.22853 0.90692 0.02098 0.0
H916 H 0.27389 0.94236 0.01215 0.0
H917 H 0.26419 0.89484 0.01611 0.0
C918 C 0.25206 0.91216 0.01115 0.0
C919 C 0.1888 0.67507 0.98341 0.0
H920 H 0.15785 0.6628 0.9824 0.0
H921 H 0.19671 0.65475 0.97767 0.0
H922 H 0.20197 0.70055 0.97424 0.0
O923 O 0.27713 0.79825 0.0119 0.0
O924 O 0.28433 0.85209 1.00132 0.0
C925 C 0.25828 0.79292 0.96068 0.0
O926 O 0.20633 0.82823 0.01992 0.0
O927 O 0.20142 0.77474 0.02861 0.0
Zn928 Zn 0.17726 0.39841 1.00167 0.0
O929 O 0.2023 0.36587 0.99006 0.0
C930 C 0.20026 0.3875 0.04107 0.0
Zn931 Zn 0.2341 0.44627 0.0078 0.0
C932 C 0.23824 0.38308 0.98911 0.0
O933 O 0.25682 0.41701 0.99445 0.0
C934 C 0.17822 0.46403 0.02157 0.0
O935 O 0.23459 0.47469 0.97992 0.0
O936 O 0.17959 0.42519 0.97408 0.0
N937 N 0.28814 0.48488 0.01528 0.0
C938 C 0.31525 0.51834 0.00839 0.0
C939 C 0.34034 0.50103 0.03017 0.0
N940 N 0.30389 0.4744 0.02883 0.0
N941 N 0.34843 0.52885 0.0174 0.0
C942 C 0.10212 0.32142 1.00066 0.0
C943 C 0.06839 0.33528 0.98283 0.0
N944 N 0.12401 0.35738 0.9948 0.0
N945 N 0.10304 0.36579 0.98361 0.0
N946 N 0.06692 0.30699 0.99346 0.0
H947 H 0.14585 0.31001 0.00941 0.0
H948 H 0.0988 0.26939 0.00945 0.0
H949 H 0.11292 0.30451 0.0281 0.0
C950 C 0.11576 0.3 0.01251 0.0
C951 C 0.3084 0.54128 0.9938 0.0
H952 H 0.30963 0.53135 0.97903 0.0
H953 H 0.32981 0.57158 0.99502 0.0
H954 H 0.28002 0.53776 0.996 0.0
O955 O 0.21328 0.47595 0.02133 0.0
O956 O 0.15535 0.43239 0.0139 0.0
C957 C 0.20527 0.4581 0.96914 0.0
O958 O 0.17276 0.37261 0.02937 0.0
O959 O 0.22983 0.41762 0.03579 0.0
Zn960 Zn 0.29528 0.44593 0.51317 0.0
O961 O 0.31027 0.46872 0.48552 0.0
C962 C 0.23054 0.45947 0.51264 0.0
Zn963 Zn 0.24388 0.39771 0.49961 0.0
C964 C 0.28924 0.45325 0.47102 0.0
O965 O 0.25933 0.42186 0.4728 0.0
C966 C 0.24989 0.38872 0.54115 0.0
O967 O 0.27337 0.36723 0.49609 0.0
O968 O 0.32379 0.415 0.50906 0.0
N969 N 0.19532 0.35555 0.48751 0.0
C970 C 0.16826 0.32183 0.49414 0.0
C971 C 0.14562 0.33553 0.46982 0.0
N972 N 0.18131 0.36363 0.47216 0.0
N973 N 0.13638 0.30891 0.48354 0.0
C974 C 0.35575 0.53003 0.52114 0.0
C975 C 0.39815 0.52659 0.53731 0.0
N976 N 0.34372 0.49295 0.52366 0.0
N977 N 0.37028 0.49099 0.53369 0.0
N978 N 0.38952 0.55157 0.52968 0.0
H979 H 0.35702 0.57073 0.50098 0.0
H980 H 0.32129 0.55532 0.51915 0.0
H981 H 0.31545 0.52513 0.49908 0.0
C982 C 0.33609 0.54578 0.50929 0.0
C983 C 0.17402 0.30039 0.51 0.0
H984 H 0.20318 0.30534 0.50932 0.0
H985 H 0.15366 0.26979 0.50868 0.0
H986 H 0.16977 0.3102 0.5242 0.0
O987 O 0.22957 0.3746 0.52629 0.0
O988 O 0.27951 0.421 0.54053 0.0
C989 C 0.30695 0.38137 0.50253 0.0
O990 O 0.26464 0.47384 0.51791 0.0
O991 O 0.21462 0.42759 0.50435 0.0
Zn992 Zn 0.54855 0.8527 0.52251 0.0
O993 O 0.53789 0.85137 0.49254 0.0
C994 C 0.53153 0.77245 0.51911 0.0
Zn995 Zn 0.59862 0.84915 0.51375 0.0
C996 C 0.55943 0.85018 0.4797 0.0
O997 O 0.58918 0.85032 0.48465 0.0
C998 C 0.58838 0.85137 0.55624 0.0
O999 O 0.63241 0.90947 0.51466 0.0
O1000 O 0.58233 0.91334 0.52173 0.0
N1001 N 0.64445 0.84477 0.50741 0.0
C1002 C 0.67622 0.85404 0.51731 0.0
C1003 C 0.67358 0.81986 0.49361 0.0
N1004 N 0.64322 0.82411 0.49247 0.0
N1005 N 0.69476 0.8381 0.50917 0.0
C1006 C 0.46473 0.83116 0.52354 0.0
C1007 C 0.4652 0.87463 0.54058 0.0
N1008 N 0.50092 0.85527 0.52829 0.0
N1009 N 0.50119 0.88239 0.5388 0.0
N1010 N 0.44189 0.8425 0.53119 0.0
H1011 H 0.42637 0.79228 0.50237 0.0
H1012 H 0.44345 0.77217 0.51991 0.0
H1013 H 0.47379 0.80062 0.50058 0.0
C1014 C 0.45156 0.79731 0.51076 0.0
C1015 C 0.69021 0.8804 0.53421 0.0
H1016 H 0.68221 0.90235 0.53274 0.0
H1017 H 0.72129 0.89385 0.53552 0.0
H1018 H 0.67736 0.8645 0.5476 0.0
O1019 O 0.60701 0.84711 0.54283 0.0
O1020 O 0.56026 0.85505 0.55211 0.0
C1021 C 0.61783 0.92958 0.51885 0.0
O1022 O 0.51681 0.79205 0.52412 0.0
O1023 O 0.56555 0.78933 0.51342 0.0
Zn1024 Zn 0.14503 0.74945 0.52052 0.0
O1025 O 0.08593 0.72152 0.52444 0.0
C1026 C 0.15125 0.73757 0.56268 0.0
Zn1027 Zn 0.14311 0.69606 0.52835 0.0
C1028 C 0.06663 0.68675 0.52855 0.0
O1029 O 0.08319 0.66765 0.53012 0.0
C1030 C 0.22158 0.76053 0.5217 0.0
O1031 O 0.14028 0.68739 0.49825 0.0
O1032 O 0.13876 0.73887 0.49139 0.0
N1033 N 0.14217 0.64628 0.53282 0.0
C1034 C 0.16538 0.63418 0.52653 0.0
C1035 C 0.12327 0.59037 0.54395 0.0
N1036 N 0.11592 0.61894 0.54358 0.0
N1037 N 0.15426 0.59941 0.53341 0.0
C1038 C 0.16297 0.83196 0.52426 0.0
C1039 C 0.12672 0.83476 0.50297 0.0
N1040 N 0.14394 0.79783 0.51592 0.0
N1041 N 0.12127 0.79953 0.50277 0.0
N1042 N 0.15228 0.85539 0.51658 0.0
H1043 H 0.18256 0.84421 0.55346 0.0
H1044 H 0.21758 0.87175 0.53569 0.0
H1045 H 0.20435 0.8233 0.53959 0.0
C1046 C 0.19372 0.84323 0.53899 0.0
C1047 C 0.19783 0.65539 0.51293 0.0
H1048 H 0.20197 0.63561 0.50374 0.0
H1049 H 0.22388 0.67222 0.52148 0.0
H1050 H 0.19333 0.67461 0.5035 0.0
O1051 O 0.2031 0.72638 0.52724 0.0
O1052 O 0.20389 0.77735 0.51692 0.0
C1053 C 0.13896 0.70962 0.48585 0.0
O1054 O 0.15197 0.75966 0.54962 0.0
O1055 O 0.14584 0.70529 0.55823 0.0
Zn1056 Zn 0.07907 0.58308 0.34841 0.0
O1057 O 0.04018 0.60314 0.35074 0.0
C1058 C 0.07789 0.58906 0.30626 0.0
Zn1059 Zn 0.12132 0.63981 0.3375 0.0
C1060 C 0.04734 0.63497 0.34402 0.0
O1061 O 0.08033 0.65764 0.33764 0.0
C1062 C 0.1508 0.58595 0.33986 0.0
O1063 O 0.13573 0.65727 0.36634 0.0
O1064 O 0.09734 0.59951 0.37624 0.0
N1065 N 0.16318 0.6911 0.32758 0.0
C1066 C 0.19896 0.71271 0.33388 0.0
C1067 C 0.19479 0.73519 0.30676 0.0
N1068 N 0.16063 0.70529 0.31077 0.0
N1069 N 0.21917 0.74063 0.32116 0.0
C1070 C 0.00553 0.50541 0.35293 0.0
C1071 C 0.02095 0.48172 0.37618 0.0
N1072 N 0.04021 0.53169 0.35885 0.0
N1073 N 0.04948 0.51705 0.37346 0.0
N1074 N 0.99292 0.47349 0.36346 0.0
H1075 H 0.98988 0.54148 0.33771 0.0
H1076 H 0.9527 0.49295 0.33989 0.0
H1077 H 0.99104 0.50605 0.32324 0.0
C1078 C 0.98339 0.51187 0.33764 0.0
C1079 C 0.21509 0.7052 0.35176 0.0
H1080 H 0.20034 0.67506 0.35563 0.0
H1081 H 0.21221 0.72101 0.36402 0.0
H1082 H 0.24546 0.71489 0.34988 0.0
O1083 O 0.16022 0.61992 0.3363 0.0
O1084 O 0.11744 0.56328 0.34543 0.0
C1085 C 0.1218 0.63326 0.37991 0.0
O1086 O 0.0617 0.56701 0.32041 0.0
O1087 O 0.10555 0.62182 0.30922 0.0
Zn1088 Zn 0.42501 0.49201 0.33767 0.0
O1089 O 0.40205 0.4335 0.33644 0.0
C1090 C 0.41473 0.49105 0.29452 0.0
Zn1091 Zn 0.36975 0.48142 0.32665 0.0
C1092 C 0.36919 0.4095 0.33089 0.0
O1093 O 0.34643 0.42074 0.32605 0.0
C1094 C 0.4287 0.56386 0.33284 0.0
O1095 O 0.35899 0.47989 0.35642 0.0
O1096 O 0.41391 0.4893 0.36631 0.0
N1097 N 0.31806 0.47591 0.32101 0.0
C1098 C 0.30306 0.49677 0.32718 0.0
C1099 C 0.26137 0.45225 0.31001 0.0
N1100 N 0.29209 0.44825 0.31035 0.0
N1101 N 0.26768 0.48269 0.32034 0.0
C1102 C 0.5072 0.51111 0.33391 0.0
C1103 C 0.51164 0.47786 0.35644 0.0
N1104 N 0.47446 0.49484 0.34365 0.0
N1105 N 0.47714 0.47411 0.35762 0.0
N1106 N 0.5306 0.50024 0.3414 0.0
H1107 H 0.51225 0.52457 0.3037 0.0
H1108 H 0.5471 0.56139 0.31863 0.0
H1109 H 0.49948 0.55265 0.31837 0.0
C1110 C 0.517 0.53916 0.3178 0.0
C1111 C 0.32207 0.52961 0.3408 0.0
H1112 H 0.34301 0.52783 0.35008 0.0
H1113 H 0.3011 0.53128 0.35026 0.0
H1114 H 0.3369 0.55601 0.33224 0.0
O1115 O 0.39562 0.54192 0.32645 0.0
O1116 O 0.44836 0.55017 0.33915 0.0
C1117 C 0.38184 0.48494 0.37005 0.0
O1118 O 0.43629 0.4956 0.30863 0.0
O1119 O 0.38096 0.48278 0.2974 0.0
Zn1120 Zn 0.51587 0.93646 0.3423 0.0
O1121 O 0.57583 0.96842 0.34014 0.0
C1122 C 0.51295 0.93086 0.29985 0.0
Zn1123 Zn 0.51743 0.88638 0.33136 0.0
C1124 C 0.5949 0.9536 0.33436 0.0
O1125 O 0.57778 0.91852 0.33044 0.0
C1126 C 0.43883 0.87081 0.33787 0.0
O1127 O 0.51915 0.87169 0.36051 0.0
O1128 O 0.51899 0.92254 0.37041 0.0
N1129 N 0.5174 0.83939 0.32149 0.0
C1130 C 0.50023 0.80376 0.32826 0.0
C1131 C 0.52344 0.80358 0.30067 0.0
N1132 N 0.53192 0.83922 0.30438 0.0
N1133 N 0.50375 0.78091 0.31549 0.0
C1134 C 0.52548 0.01614 0.34323 0.0
C1135 C 0.48649 0.00931 0.36532 0.0
N1136 N 0.51343 0.98218 0.35146 0.0
N1137 N 0.48976 0.97832 0.36545 0.0
N1138 N 0.50831 0.03349 0.35136 0.0
H1139 H 0.57982 0.02931 0.33251 0.0
H1140 H 0.56714 0.06439 0.32718 0.0
H1141 H 0.54582 0.02059 0.3141 0.0
C1142 C 0.55626 0.03367 0.32839 0.0
C1143 C 0.47809 0.79085 0.34674 0.0
H1144 H 0.49754 0.79439 0.35878 0.0
H1145 H 0.45607 0.76069 0.34595 0.0
H1146 H 0.46457 0.80768 0.35008 0.0
O1147 O 0.45744 0.85598 0.3315 0.0
O1148 O 0.45632 0.90443 0.34404 0.0
C1149 C 0.5189 0.89229 0.37415 0.0
O1150 O 0.51145 0.94946 0.31408 0.0
O1151 O 0.51602 0.90204 0.30282 0.0
H1152 H 0.16999 0.10733 0.13906 0.0
H1153 H 0.12833 0.08533 0.19776 0.0
H1154 H 0.15195 0.04235 0.20225 0.0
H1155 H 0.17422 0.00301 0.18804 0.0
H1156 H 0.20154 0.0128 0.12741 0.0
H1157 H 0.19502 0.06903 0.12502 0.0
C1158 C 0.16648 0.0934 0.15289 0.0
C1159 C 0.14852 0.10081 0.16825 0.0
C1160 C 0.17784 0.06651 0.15494 0.0
C1161 C 0.1437 0.08209 0.186 0.0
C1162 C 0.15673 0.05685 0.18849 0.0
C1163 C 0.18038 0.0186 0.17453 0.0
C1164 C 0.18921 0.00472 0.15803 0.0
C1165 C 0.1729 0.04817 0.17293 0.0
C1166 C 0.19577 0.02387 0.14037 0.0
C1167 C 0.19123 0.05542 0.13897 0.0
H1168 H 0.9991 0.16715 0.19546 0.0
H1169 H 0.99535 0.19008 0.13496 0.0
H1170 H 0.93696 0.12943 0.1312 0.0
H1171 H 0.89541 0.06537 0.14382 0.0
H1172 H 0.91057 0.03959 0.20261 0.0
H1173 H 0.95537 0.10529 0.20853 0.0
C1174 C 0.98432 0.15954 0.1817 0.0
C1175 C 1.00069 0.18313 0.1656 0.0
C1176 C 0.95325 0.12337 0.17932 0.0
C1177 C 0.98248 0.17267 0.14762 0.0
C1178 C 0.94964 0.13767 0.14542 0.0
C1179 C 0.90813 0.07427 0.15801 0.0
C1180 C 0.89845 0.04735 0.17288 0.0
C1181 C 0.93611 0.11198 0.16094 0.0
C1182 C 0.91562 0.05937 0.19112 0.0
C1183 C 0.94194 0.09714 0.19445 0.0
H1184 H 0.94369 0.82566 0.14023 0.0
H1185 H 0.97984 0.87746 0.19637 0.0
H1186 H 0.91593 0.86138 0.20423 0.0
H1187 H 0.85257 0.84256 0.19333 0.0
H1188 H 0.81824 0.80204 0.13525 0.0
H1189 H 0.87793 0.80285 0.12992 0.0
C1190 C 0.93734 0.83288 0.15428 0.0
C1191 C 0.9665 0.85168 0.16791 0.0
C1192 C 0.90068 0.82555 0.15827 0.0
C1193 C 0.95801 0.8614 0.18595 0.0
C1194 C 0.92139 0.85273 0.19036 0.0
C1195 C 0.85769 0.83248 0.17978 0.0
C1196 C 0.83117 0.82156 0.1648 0.0
C1197 C 0.89284 0.83582 0.17645 0.0
C1198 C 0.8381 0.80963 0.14708 0.0
C1199 C 0.87244 0.81078 0.14397 0.0
H1200 H 0.11384 0.17205 0.36686 0.0
H1201 H 0.09915 0.13415 0.30767 0.0
H1202 H 0.04302 0.14035 0.30487 0.0
H1203 H 0.99692 0.15405 0.3198 0.0
H1204 H 0.00984 0.18942 0.37931 0.0
H1205 H 0.06927 0.1886 0.38135 0.0
C1206 C 0.09821 0.16508 0.35338 0.0
C1207 C 0.10987 0.15158 0.33768 0.0
C1208 C 0.06651 0.16936 0.35184 0.0
C1209 C 0.08981 0.14304 0.32019 0.0
C1210 C 0.05818 0.14727 0.31849 0.0
C1211 C 0.01357 0.16279 0.33298 0.0
C1212 C 1.00011 0.17293 0.34923 0.0
C1213 C 0.04628 0.16026 0.33424 0.0
C1214 C 0.02065 0.18278 0.36652 0.0
C1215 C 0.0541 0.18162 0.36774 0.0
H1216 H 0.89855 0.8694 0.36801 0.0
H1217 H 0.78972 0.80134 0.34127 0.0
H1218 H 0.78194 0.85664 0.33897 0.0
H1219 H 0.80901 0.92547 0.34175 0.0
H1220 H 0.91894 0.99305 0.36716 0.0
H1221 H 0.92415 0.93685 0.37206 0.0
C1222 C 0.87284 0.86638 0.36187 0.0
C1223 C 0.84484 0.83121 0.3547 0.0
C1224 C 0.86939 0.89845 0.35978 0.0
C1225 C 0.81161 0.82794 0.347 0.0
C1226 C 0.80739 0.85967 0.34545 0.0
C1227 C 0.83408 0.92775 0.34834 0.0
C1228 C 0.86409 0.96347 0.35352 0.0
C1229 C 0.83661 0.89523 0.35127 0.0
C1230 C 0.89621 0.96617 0.3623 0.0
C1231 C 0.89888 0.93395 0.3654 0.0
H1232 H 0.08846 0.88018 0.34036 0.0
H1233 H 0.0249 0.92283 0.36972 0.0
H1234 H 0.08192 0.98407 0.37349 0.0
H1235 H 0.14815 0.02631 0.36619 0.0
H1236 H 0.21192 0.98563 0.33516 0.0
H1237 H 0.15694 0.92188 0.33528 0.0
C1238 C 0.0873 0.90297 0.34762 0.0
C1239 C 0.05241 0.8976 0.35413 0.0
C1240 C 0.12026 0.93798 0.34978 0.0
C1241 C 0.05109 0.92691 0.36382 0.0
C1242 C 0.08378 0.96165 0.36625 0.0
C1243 C 0.15033 0.00338 0.35975 0.0
C1244 C 0.1839 0.01069 0.35049 0.0
C1245 C 0.11828 0.96762 0.35897 0.0
C1246 C 0.18645 0.98066 0.34245 0.0
C1247 C 0.15485 0.94439 0.34226 0.0
H1248 H 0.90554 0.84394 0.87582 0.0
H1249 H 0.85535 0.79629 0.82059 0.0
H1250 H 0.8201 0.82997 0.82133 0.0
H1251 H 0.80463 0.87422 0.83762 0.0
H1252 H 0.85143 0.91792 0.89375 0.0
H1253 H 0.8867 0.8842 0.89302 0.0
C1254 C 0.88698 0.84111 0.86393 0.0
C1255 C 0.8833 0.81821 0.84806 0.0
C1256 C 0.86601 0.85952 0.86476 0.0
C1257 C 0.85865 0.81401 0.83291 0.0
C1258 C 0.8385 0.83317 0.83334 0.0
C1259 C 0.82223 0.87573 0.8497 0.0
C1260 C 0.82563 0.89812 0.86573 0.0
C1261 C 0.842 0.85603 0.84919 0.0
C1262 C 0.84836 0.90034 0.88142 0.0
C1263 C 0.86865 0.88139 0.88091 0.0
H1264 H 0.12922 0.0648 0.865 0.0
H1265 H 0.22039 0.05519 0.83978 0.0
H1266 H 0.18539 0.98733 0.84468 0.0
H1267 H 0.12867 0.93017 0.8561 0.0
H1268 H 0.03664 0.93882 0.88011 0.0
H1269 H 0.07207 0.00749 0.87593 0.0
C1270 C 0.1413 0.04784 0.86043 0.0
C1271 C 0.17735 0.06517 0.85199 0.0
C1272 C 0.12098 0.00864 0.86327 0.0
C1273 C 0.19264 0.0427 0.84627 0.0
C1274 C 0.17273 0.00382 0.84913 0.0
C1275 C 0.11682 0.94739 0.86057 0.0
C1276 C 0.08052 0.93004 0.86849 0.0
C1277 C 0.137 0.98651 0.8577 0.0
C1278 C 0.06474 0.95206 0.87402 0.0
C1279 C 0.08489 0.99111 0.87157 0.0
H1280 H 0.95424 0.15256 0.85043 0.0
H1281 H 0.93051 0.0393 0.86199 0.0
H1282 H 0.99762 0.06243 0.86686 0.0
H1283 H 0.06314 0.11495 0.86795 0.0
H1284 H 0.08695 0.22787 0.85627 0.0
H1285 H 0.01957 0.20497 0.85175 0.0
C1286 C 0.9637 0.13288 0.85397 0.0
C1287 C 0.93731 0.09421 0.85577 0.0
C1288 C 1.00232 0.14638 0.85683 0.0
C1289 C 0.95015 0.06919 0.8605 0.0
C1290 C 0.98854 0.08239 0.8633 0.0
C1291 C 0.05353 0.13436 0.86412 0.0
C1292 C 0.07988 0.1729 0.86199 0.0
C1293 C 0.01487 0.1209 0.86146 0.0
C1294 C 0.06706 0.19807 0.85783 0.0
C1295 C 0.02864 0.18495 0.85519 0.0
H1296 H 0.8036 0.85664 0.66186 0.0
H1297 H 0.89184 0.97189 0.65355 0.0
H1298 H 0.93627 0.95083 0.64571 0.0
H1299 H 0.95015 0.8996 0.64098 0.0
H1300 H 0.86212 0.78444 0.64796 0.0
H1301 H 0.81725 0.80529 0.65646 0.0
C1302 C 0.83262 0.8772 0.65849 0.0
C1303 C 0.84442 0.91592 0.65853 0.0
C1304 C 0.85792 0.86481 0.65361 0.0
C1305 C 0.88202 0.94204 0.65385 0.0
C1306 C 0.90745 0.92999 0.64925 0.0
C1307 C 0.92101 0.87921 0.64422 0.0
C1308 C 0.90924 0.84066 0.64401 0.0
C1309 C 0.89567 0.89149 0.649 0.0
C1310 C 0.87162 0.81426 0.64827 0.0
C1311 C 0.84612 0.82622 0.6531 0.0
H1312 H 0.17745 0.08403 0.68049 0.0
H1313 H 0.13937 0.08076 0.6221 0.0
H1314 H 0.10553 0.01159 0.62271 0.0
H1315 H 0.08616 0.95178 0.64026 0.0
H1316 H 0.12735 0.956 0.69821 0.0
H1317 H 0.15982 0.02472 0.69762 0.0
C1318 C 0.16175 0.06801 0.66794 0.0
C1319 C 0.16058 0.08724 0.65132 0.0
C1320 C 0.1425 0.0284 0.66845 0.0
C1321 C 0.14068 0.0664 0.635 0.0
C1322 C 0.12114 0.02693 0.63543 0.0
C1323 C 0.10189 0.96782 0.65281 0.0
C1324 C 0.10395 0.94879 0.66936 0.0
C1325 C 0.12156 0.00756 0.65215 0.0
C1326 C 0.12515 0.96996 0.68535 0.0
C1327 C 0.14386 0.00928 0.685 0.0
H1328 H 0.93964 0.08014 0.64667 0.0
H1329 H 0.91123 0.16169 0.66712 0.0
H1330 H 0.97826 0.20687 0.6731 0.0
H1331 H 0.04466 0.22135 0.67399 0.0
H1332 H 0.07116 0.13753 0.65406 0.0
H1333 H 0.00515 0.09473 0.6468 0.0
C1334 C 0.94823 0.1077 0.65261 0.0
C1335 C 0.92085 0.11749 0.6569 0.0
C1336 C 0.98639 0.1329 0.65624 0.0
C1337 C 0.93211 0.15371 0.66386 0.0
C1338 C 0.97027 0.17931 0.66736 0.0
C1339 C 0.03595 0.19374 0.66805 0.0
C1340 C 0.06291 0.18271 0.66467 0.0
C1341 C 0.99765 0.16897 0.66388 0.0
C1342 C 0.05114 0.14685 0.65686 0.0
C1343 C 0.01333 0.12226 0.65267 0.0
H1344 H 0.84394 0.34578 0.52564 0.0
H1345 H 0.83595 0.32714 0.46408 0.0
H1346 H 0.83325 0.38483 0.45886 0.0
H1347 H 0.82466 0.43551 0.47227 0.0
H1348 H 0.82889 0.45204 0.53398 0.0
H1349 H 0.84064 0.39969 0.53892 0.0
C1350 C 0.84324 0.3554 0.51107 0.0
C1351 C 0.84131 0.33323 0.49518 0.0
C1352 C 0.83939 0.38719 0.50835 0.0
C1353 C 0.83866 0.34465 0.4764 0.0
C1354 C 0.83642 0.37716 0.47348 0.0
C1355 C 0.82829 0.42761 0.48677 0.0
C1356 C 0.82452 0.44653 0.50278 0.0
C1357 C 0.83527 0.39776 0.4894 0.0
C1358 C 0.82996 0.43669 0.52151 0.0
C1359 C 0.83728 0.40721 0.52429 0.0
H1360 H 0.54368 0.41504 0.50538 0.0
H1361 H 0.58717 0.3519 0.47637 0.0
H1362 H 0.64707 0.40972 0.47082 0.0
H1363 H 0.68815 0.47683 0.47649 0.0
H1364 H 0.6465 0.54001 0.50732 0.0
H1365 H 0.58376 0.48392 0.50877 0.0
C1366 C 0.56636 0.41411 0.49782 0.0
C1367 C 0.56166 0.37919 0.49192 0.0
C1368 C 0.60052 0.4475 0.4946 0.0
C1369 C 0.5908 0.37818 0.48184 0.0
C1370 C 0.62474 0.41131 0.47837 0.0
C1371 C 0.66519 0.47865 0.48319 0.0
C1372 C 0.6721 0.51246 0.49199 0.0
C1373 C 0.63006 0.44595 0.48499 0.0
C1374 C 0.64194 0.51442 0.50037 0.0
C1375 C 0.60624 0.48218 0.50149 0.0
H1376 H 0.53434 0.22487 0.4765 0.0
H1377 H 0.46794 0.11643 0.50393 0.0
H1378 H 0.52386 0.10958 0.50603 0.0
H1379 H 0.5929 0.13824 0.50368 0.0
H1380 H 0.659 0.24817 0.478 0.0
H1381 H 0.60189 0.25151 0.47233 0.0
C1382 C 0.53186 0.19942 0.48271 0.0
C1383 C 0.49713 0.17137 0.49027 0.0
C1384 C 0.56427 0.19666 0.48478 0.0
C1385 C 0.4943 0.13835 0.49796 0.0
C1386 C 0.52636 0.13471 0.49941 0.0
C1387 C 0.59462 0.16283 0.49681 0.0
C1388 C 0.63006 0.19348 0.49183 0.0
C1389 C 0.56168 0.16433 0.49353 0.0
C1390 C 0.63218 0.22502 0.48269 0.0
C1391 C 0.59951 0.22661 0.47916 0.0
H1392 H 0.76736 0.49432 0.70989 0.0
H1393 H 0.77611 0.48352 0.64833 0.0
H1394 H 0.72249 0.49289 0.64287 0.0
H1395 H 0.67045 0.5 0.65591 0.0
H1396 H 0.66093 0.50941 0.71746 0.0
H1397 H 0.71869 0.50675 0.72269 0.0
C1398 C 0.75749 0.49405 0.69529 0.0
C1399 C 0.77469 0.48659 0.67962 0.0
C1400 C 0.72723 0.50035 0.69227 0.0
C1401 C 0.76217 0.48713 0.66073 0.0
C1402 C 0.73197 0.49327 0.65758 0.0
C1403 C 0.68207 0.50308 0.67037 0.0
C1404 C 0.66248 0.5062 0.68627 0.0
C1405 C 0.71406 0.49953 0.67326 0.0
C1406 C 0.67648 0.50834 0.70503 0.0
C1407 C 0.70901 0.50608 0.70801 0.0
H1408 H 0.56354 0.20303 0.70031 0.0
H1409 H 0.45314 0.13609 0.67496 0.0
H1410 H 0.44381 0.19049 0.6759 0.0
H1411 H 0.47107 0.25893 0.67948 0.0
H1412 H 0.58267 0.32595 0.70313 0.0
H1413 H 0.58825 0.26965 0.70666 0.0
C1414 C 0.53709 0.20007 0.6953 0.0
C1415 C 0.50928 0.16582 0.68728 0.0
C1416 C 0.53282 0.23172 0.69494 0.0
C1417 C 0.47496 0.16219 0.68118 0.0
C1418 C 0.46986 0.1934 0.68146 0.0
C1419 C 0.49648 0.26101 0.6855 0.0
C1420 C 0.527 0.29649 0.69039 0.0
C1421 C 0.49927 0.22859 0.68753 0.0
C1422 C 0.55959 0.29911 0.69847 0.0
C1423 C 0.56248 0.2669 0.70077 0.0
H1424 H 0.8413 0.34127 0.65211 0.0
H1425 H 0.85873 0.34169 0.71359 0.0
H1426 H 0.79926 0.28195 0.71688 0.0
H1427 H 0.739 0.23404 0.70268 0.0
H1428 H 0.71946 0.23651 0.64153 0.0
H1429 H 0.78257 0.29133 0.63762 0.0
C1430 C 0.83266 0.32736 0.66607 0.0
C1431 C 0.85471 0.34492 0.68252 0.0
C1432 C 0.79737 0.29454 0.66796 0.0
C1433 C 0.84268 0.32783 0.70071 0.0
C1434 C 0.8084 0.29415 0.7026 0.0
C1435 C 0.74867 0.24668 0.68851 0.0
C1436 C 0.72426 0.23203 0.67252 0.0
C1437 C 0.78493 0.27805 0.68643 0.0
C1438 C 0.73715 0.24822 0.65418 0.0
C1439 C 0.77342 0.27917 0.6519 0.0
H1440 H 0.59266 0.18735 0.20622 0.0
H1441 H 0.53639 0.13758 0.15243 0.0
H1442 H 0.50184 0.17191 0.15436 0.0
H1443 H 0.48747 0.21625 0.17163 0.0
H1444 H 0.54026 0.26166 0.22653 0.0
H1445 H 0.57614 0.22874 0.2241 0.0
C1446 C 0.57301 0.18424 0.19485 0.0
C1447 C 0.56737 0.16036 0.17909 0.0
C1448 C 0.55242 0.20305 0.1964 0.0
C1449 C 0.54129 0.15596 0.16466 0.0
C1450 C 0.52151 0.17552 0.16578 0.0
C1451 C 0.50671 0.21855 0.18303 0.0
C1452 C 0.51143 0.24114 0.19924 0.0
C1453 C 0.52674 0.19905 0.18162 0.0
C1454 C 0.53619 0.24409 0.21404 0.0
C1455 C 0.55678 0.22551 0.21258 0.0
H1456 H 0.81489 0.39877 0.19996 0.0
H1457 H 0.90416 0.39054 0.17152 0.0
H1458 H 0.86953 0.32221 0.17609 0.0
H1459 H 0.81267 0.26438 0.18755 0.0
H1460 H 0.72317 0.27329 0.21474 0.0
H1461 H 0.75907 0.342 0.21142 0.0
C1462 C 0.82668 0.3821 0.19456 0.0
C1463 C 0.86185 0.39972 0.1852 0.0
C1464 C 0.80667 0.34301 0.1972 0.0
C1465 C 0.877 0.37764 0.17866 0.0
C1466 C 0.85728 0.3386 0.18132 0.0
C1467 C 0.80159 0.28171 0.19295 0.0
C1468 C 0.76576 0.26445 0.20148 0.0
C1469 C 0.82207 0.32098 0.19055 0.0
C1470 C 0.75091 0.28652 0.20822 0.0
C1471 C 0.77129 0.32556 0.20623 0.0
H1472 H 0.74369 0.53089 0.18964 0.0
H1473 H 0.74115 0.42755 0.20381 0.0
H1474 H 0.67224 0.39271 0.20135 0.0
H1475 H 0.61247 0.39192 0.19493 0.0
H1476 H 0.61627 0.49619 0.18032 0.0
H1477 H 0.68446 0.53019 0.18318 0.0
C1478 C 0.72784 0.50078 0.19223 0.0
C1479 C 0.74718 0.48163 0.19661 0.0
C1480 C 0.6884 0.48107 0.19067 0.0
C1481 C 0.72668 0.44262 0.19999 0.0
C1482 C 0.68734 0.4228 0.19869 0.0
C1483 C 0.62825 0.42204 0.19237 0.0
C1484 C 0.60911 0.44132 0.18741 0.0
C1485 C 0.66784 0.4417 0.19393 0.0
C1486 C 0.6301 0.48044 0.1841 0.0
C1487 C 0.66922 0.50008 0.18577 0.0
H1488 H 0.54331 0.13672 1.00202 0.0
H1489 H 0.58982 0.20031 0.94971 0.0
H1490 H 0.5552 0.23401 0.95501 0.0
H1491 H 0.51352 0.24666 0.97537 0.0
H1492 H 0.46452 0.18053 0.02694 0.0
H1493 H 0.49881 0.14682 0.02144 0.0
C1494 C 0.54524 0.15763 0.99174 0.0
C1495 C 0.56872 0.16629 0.97555 0.0
C1496 C 0.52551 0.17678 0.99499 0.0
C1497 C 0.57141 0.19322 0.96215 0.0
C1498 C 0.55203 0.21265 0.96531 0.0
C1499 C 0.51073 0.22511 0.98547 0.0
C1500 C 0.48714 0.21635 1.00168 0.0
C1501 C 0.52948 0.20506 0.98185 0.0
C1502 C 0.48286 0.18782 0.01445 0.0
C1503 C 0.50226 0.16847 0.01127 0.0
H1504 H 0.81893 0.28354 1.00158 0.0
H1505 H 0.70642 0.26256 0.99022 0.0
H1506 H 0.7303 0.32991 0.98708 0.0
H1507 H 0.78319 0.39456 0.98643 0.0
H1508 H 0.89572 0.41669 0.99759 0.0
H1509 H 0.87208 0.34895 1.00144 0.0
C1510 C 0.79964 0.29378 0.9986 0.0
C1511 C 0.76098 0.26811 0.99616 0.0
C1512 C 0.81362 0.33262 0.99655 0.0
C1513 C 0.73634 0.28173 0.99212 0.0
C1514 C 0.74993 0.32023 0.99028 0.0
C1515 C 0.80233 0.38448 0.99007 0.0
C1516 C 0.84089 0.41028 0.99218 0.0
C1517 C 0.78849 0.34585 0.99233 0.0
C1518 C 0.86584 0.39705 0.99605 0.0
C1519 C 0.85231 0.35849 0.99832 0.0
H1520 H 0.59632 0.46277 0.00499 0.0
H1521 H 0.599 0.36714 0.98156 0.0
H1522 H 0.66793 0.40069 0.98399 0.0
H1523 H 0.72769 0.45772 0.99281 0.0
H1524 H 0.72416 0.55291 0.01694 0.0
H1525 H 0.65584 0.51926 0.01434 0.0
C1526 C 0.61222 0.44958 1.00035 0.0
C1527 C 0.59289 0.41266 0.99321 0.0
C1528 C 0.65175 0.4689 1.00204 0.0
C1529 C 0.61349 0.39548 0.9873 0.0
C1530 C 0.65282 0.41467 0.98867 0.0
C1531 C 0.71197 0.47098 0.99763 0.0
C1532 C 0.7313 0.50786 0.00507 0.0
C1533 C 0.67233 0.45139 0.99611 0.0
C1534 C 0.71027 0.52457 0.01117 0.0
C1535 C 0.67105 0.50539 0.00964 0.0
H1536 H 0.48306 0.75446 0.79785 0.0
H1537 H 0.51414 0.79624 0.85611 0.0
H1538 H 0.53385 0.75015 0.86252 0.0
H1539 H 0.53292 0.69158 0.85268 0.0
H1540 H 0.50569 0.65347 0.79373 0.0
H1541 H 0.49668 0.70645 0.78596 0.0
C1542 C 0.49449 0.75382 0.81191 0.0
C1543 C 0.49396 0.77661 0.82697 0.0
C1544 C 0.50766 0.72867 0.81515 0.0
C1545 C 0.51069 0.77663 0.84479 0.0
C1546 C 0.52305 0.75096 0.84831 0.0
C1547 C 0.52721 0.69625 0.83789 0.0
C1548 C 0.52016 0.66896 0.82373 0.0
C1549 C 0.52038 0.72589 0.83378 0.0
C1550 C 0.51184 0.67459 0.80473 0.0
C1551 C 0.5058 0.70436 0.80042 0.0
H1552 H 0.22111 0.72918 0.80809 0.0
H1553 H 0.2411 0.70592 0.86652 0.0
H1554 H 0.29022 0.77096 0.87044 0.0
H1555 H 0.33486 0.83122 0.85561 0.0
H1556 H 0.32365 0.85112 0.79543 0.0
H1557 H 0.26366 0.79139 0.79379 0.0
C1558 C 0.23586 0.7385 0.82179 0.0
C1559 C 0.22641 0.71247 0.83712 0.0
C1560 C 0.26592 0.77564 0.82355 0.0
C1561 C 0.24615 0.72508 0.8547 0.0
C1562 C 0.27491 0.76242 0.85687 0.0
C1563 C 0.31831 0.82312 0.84239 0.0
C1564 C 0.33285 0.84575 0.82579 0.0
C1565 C 0.28575 0.78757 0.84123 0.0
C1566 C 0.31227 0.83454 0.80849 0.0
C1567 C 0.27841 0.80012 0.80751 0.0
H1568 H 0.27198 0.48779 0.84138 0.0
H1569 H 0.30729 0.57254 0.79655 0.0
H1570 H 0.24306 0.55863 0.79242 0.0
H1571 H 0.17907 0.52935 0.80403 0.0
H1572 H 0.1437 0.45245 0.85225 0.0
H1573 H 0.20513 0.45546 0.85229 0.0
C1574 C 0.266 0.50392 0.83107 0.0
C1575 C 0.29523 0.53221 0.81976 0.0
C1576 C 0.22863 0.49666 0.82913 0.0
C1577 C 0.28581 0.55097 0.80565 0.0
C1578 C 0.24893 0.54299 0.80319 0.0
C1579 C 0.1844 0.51233 0.8142 0.0
C1580 C 0.15705 0.49084 0.82812 0.0
C1581 C 0.22039 0.51664 0.81512 0.0
C1582 C 0.16416 0.46884 0.84119 0.0
C1583 C 0.19961 0.47127 0.84148 0.0
H1584 H 0.43974 0.83512 0.03916 0.0
H1585 H 0.45154 0.82202 0.97811 0.0
H1586 H 0.40026 0.83432 0.97105 0.0
H1587 H 0.34789 0.84225 0.98268 0.0
H1588 H 0.33485 0.85298 0.04376 0.0
H1589 H 0.39229 0.85058 0.05041 0.0
C1590 C 0.43114 0.83511 0.0243 0.0
C1591 C 0.44821 0.82585 0.00927 0.0
C1592 C 0.4022 0.84296 0.02038 0.0
C1593 C 0.43745 0.82685 0.99004 0.0
C1594 C 0.40865 0.83468 0.98597 0.0
C1595 C 0.35882 0.84593 0.99733 0.0
C1596 C 0.33802 0.84885 0.01271 0.0
C1597 C 0.39036 0.84206 1.00106 0.0
C1598 C 0.35124 0.85196 0.03172 0.0
C1599 C 0.38353 0.84971 0.03552 0.0
H1600 H 0.20657 0.61829 0.04537 0.0
H1601 H 0.14477 0.60579 0.99259 0.0
H1602 H 0.12734 0.54027 0.99076 0.0
H1603 H 0.13799 0.48874 1.00167 0.0
H1604 H 0.19624 0.5009 0.05548 0.0
H1605 H 0.20414 0.56334 0.0601 0.0
C1606 C 0.18892 0.60141 0.0335 0.0
C1607 C 0.18016 0.6186 0.01825 0.0
C1608 C 0.1773 0.56301 0.03301 0.0
C1609 C 0.15563 0.59525 0.00359 0.0
C1610 C 0.14448 0.55701 1.0028 0.0
C1611 C 0.15062 0.50435 0.01486 0.0
C1612 C 0.16664 0.49057 0.02821 0.0
C1613 C 0.15645 0.54095 0.01703 0.0
C1614 C 0.18356 0.51111 0.04511 0.0
C1615 C 0.18867 0.54703 0.04757 0.0
H1616 H 0.40042 0.56698 0.04434 0.0
H1617 H 0.38075 0.55908 0.98278 0.0
H1618 H 0.44429 0.61209 0.97737 0.0
H1619 H 0.50318 0.66391 0.99051 0.0
H1620 H 0.52159 0.67396 0.05211 0.0
H1621 H 0.46156 0.61556 0.05727 0.0
C1622 C 0.41021 0.57691 0.02976 0.0
C1623 C 0.38555 0.56024 0.01405 0.0
C1624 C 0.44684 0.607 0.02681 0.0
C1625 C 0.3986 0.5727 0.99517 0.0
C1626 C 0.43513 0.60251 0.99206 0.0
C1627 C 0.49463 0.65225 0.00497 0.0
C1628 C 0.51689 0.67217 0.02091 0.0
C1629 C 0.45924 0.62019 0.0078 0.0
C1630 C 0.5052 0.65815 0.03967 0.0
C1631 C 0.47065 0.62528 0.0426 0.0
H1632 H 0.25799 0.52883 0.52829 0.0
H1633 H 0.15648 0.43599 0.5047 0.0
H1634 H 0.12313 0.47073 0.50985 0.0
H1635 H 0.12349 0.52865 0.52038 0.0
H1636 H 0.22605 0.62187 0.54235 0.0
H1637 H 0.25867 0.58609 0.53837 0.0
C1638 C 0.22867 0.5162 0.52413 0.0
C1639 C 0.20992 0.47999 0.51598 0.0
C1640 C 0.20995 0.53652 0.52682 0.0
C1641 C 0.17168 0.46391 0.51094 0.0
C1642 C 0.15258 0.48375 0.51388 0.0
C1643 C 0.15291 0.54078 0.52432 0.0
C1644 C 0.17265 0.57771 0.53147 0.0
C1645 C 0.1715 0.52018 0.52171 0.0
C1646 C 0.21072 0.5936 0.53656 0.0
C1647 C 0.22922 0.57313 0.53435 0.0
H1648 H 0.46011 0.72718 0.53304 0.0
H1649 H 0.55435 0.72309 0.50798 0.0
H1650 H 0.51956 0.65448 0.50995 0.0
H1651 H 0.46141 0.59489 0.51815 0.0
H1652 H 0.36718 0.5991 0.54264 0.0
H1653 H 0.4026 0.66804 0.54155 0.0
C1654 C 0.473 0.71135 0.5279 0.0
C1655 C 0.5098 0.73053 0.52023 0.0
C1656 C 0.45274 0.67172 0.52901 0.0
C1657 C 0.52608 0.70929 0.51388 0.0
C1658 C 0.50619 0.66993 0.51502 0.0
C1659 C 0.44896 0.61109 0.52339 0.0
C1660 C 0.41171 0.59212 0.53031 0.0
C1661 C 0.46946 0.65078 0.52251 0.0
C1662 C 0.39563 0.61322 0.53699 0.0
C1663 C 0.41591 0.65259 0.5364 0.0
H1664 H 0.39817 0.87032 0.51989 0.0
H1665 H 0.3956 0.7713 0.54252 0.0
H1666 H 0.3267 0.73654 0.54118 0.0
H1667 H 0.26752 0.73453 0.53358 0.0
H1668 H 0.26938 0.83329 0.51051 0.0
H1669 H 0.33815 0.86806 0.51201 0.0
C1670 C 0.38226 0.84121 0.52457 0.0
C1671 C 0.4015 0.82307 0.53109 0.0
C1672 C 0.3427 0.82143 0.5236 0.0
C1673 C 0.38106 0.78539 0.53715 0.0
C1674 C 0.3418 0.76565 0.53644 0.0
C1675 C 0.28289 0.76352 0.52868 0.0
C1676 C 0.26327 0.78111 0.5218 0.0
C1677 C 0.32235 0.78332 0.52958 0.0
C1678 C 0.28375 0.81894 0.51578 0.0
C1679 C 0.3231 0.83892 0.51668 0.0
H1680 H 0.13691 0.51375 0.34117 0.0
H1681 H 0.22511 0.62804 0.33013 0.0
H1682 H 0.26875 0.60587 0.32237 0.0
H1683 H 0.28161 0.55396 0.31814 0.0
H1684 H 0.19441 0.44 0.32968 0.0
H1685 H 0.1501 0.46187 0.33723 0.0
C1686 C 0.16575 0.53385 0.33721 0.0
C1687 C 0.17772 0.57252 0.33631 0.0
C1688 C 0.19069 0.52091 0.33262 0.0
C1689 C 0.21513 0.59813 0.33099 0.0
C1690 C 0.24011 0.58549 0.32648 0.0
C1691 C 0.25309 0.53407 0.32262 0.0
C1692 C 0.2414 0.49557 0.32381 0.0
C1693 C 0.22816 0.54696 0.32719 0.0
C1694 C 0.20393 0.4698 0.3288 0.0
C1695 C 0.17876 0.48233 0.33321 0.0
H1696 H 0.41424 0.60527 0.30725 0.0
H1697 H 0.47955 0.61446 0.35805 0.0
H1698 H 0.50809 0.68296 0.35752 0.0
H1699 H 0.51536 0.74059 0.34216 0.0
H1700 H 0.45418 0.73195 0.29002 0.0
H1701 H 0.42319 0.66298 0.29128 0.0
C1702 C 0.43453 0.62235 0.31825 0.0
C1703 C 0.44466 0.605 0.33273 0.0
C1704 C 0.4517 0.66176 0.31749 0.0
C1705 C 0.47139 0.62732 0.34675 0.0
C1706 C 0.48771 0.66643 0.34646 0.0
C1707 C 0.49521 0.72334 0.33116 0.0
C1708 C 0.48669 0.74075 0.31608 0.0
C1709 C 0.47826 0.68397 0.33183 0.0
C1710 C 0.46098 0.71868 0.30168 0.0
C1711 C 0.44327 0.67944 0.30247 0.0
H1712 H 0.26203 0.79408 0.34675 0.0
H1713 H 0.26581 0.73926 0.2945 0.0
H1714 H 0.33491 0.77409 0.29529 0.0
H1715 H 0.39408 0.81861 0.31159 0.0
H1716 H 0.39067 0.87681 0.36277 0.0
H1717 H 0.32167 0.84223 0.36187 0.0
C1718 C 0.27826 0.79036 0.33548 0.0
C1719 C 0.25935 0.76446 0.32057 0.0
C1720 C 0.31785 0.81069 0.33601 0.0
C1721 C 0.28016 0.75946 0.30596 0.0
C1722 C 0.3195 0.77909 0.30652 0.0
C1723 C 0.37815 0.82356 0.32257 0.0
C1724 C 0.39726 0.84977 0.33737 0.0
C1725 C 0.33863 0.80443 0.32161 0.0
C1726 C 0.37645 0.85658 0.35129 0.0
C1727 C 0.33707 0.83688 0.35077 0.0
H1728 H 0.24852 0.34049 0.18164 0.0
H1729 H 0.21974 0.23613 0.21025 0.0
H1730 H 0.28591 0.25264 0.21022 0.0
H1731 H 0.35204 0.29511 0.20005 0.0
H1732 H 0.37965 0.39821 0.17006 0.0
H1733 H 0.31463 0.38371 0.17244 0.0
C1734 C 0.25696 0.32194 0.18836 0.0
C1735 C 0.22929 0.28747 0.19625 0.0
C1736 C 0.29504 0.33097 0.18761 0.0
C1737 C 0.24056 0.26312 0.20433 0.0
C1738 C 0.2784 0.27236 0.20413 0.0
C1739 C 0.34379 0.31428 0.19396 0.0
C1740 C 0.37103 0.34757 0.18475 0.0
C1741 C 0.30589 0.30584 0.19539 0.0
C1742 C 0.35958 0.37222 0.17715 0.0
C1743 C 0.32224 0.36409 0.17857 0.0
H1744 H 0.62166 0.9751 0.1853 0.0
H1745 H 0.73047 0.07597 0.19005 0.0
H1746 H 0.7601 0.03804 0.19557 0.0
H1747 H 0.75606 0.97678 0.1973 0.0
H1748 H 0.64824 0.87506 0.19232 0.0
H1749 H 0.61719 0.91274 0.18925 0.0
C1750 C 0.65186 0.98875 0.1875 0.0
C1751 C 0.67384 0.02845 0.18698 0.0
C1752 C 0.66886 0.96664 0.19088 0.0
C1753 C 0.71285 0.04559 0.19022 0.0
C1754 C 0.72986 0.0239 0.19344 0.0
C1755 C 0.72565 0.96268 0.19584 0.0
C1756 C 0.70455 0.92305 0.195 0.0
C1757 C 0.70823 0.98447 0.19363 0.0
C1758 C 0.66517 0.90544 0.19319 0.0
C1759 C 0.64747 0.92704 0.1912 0.0
H1760 H 0.03572 0.77349 0.18916 0.0
H1761 H 0.13905 0.76987 0.18803 0.0
H1762 H 0.1027 0.70082 0.18795 0.0
H1763 H 0.04119 0.64147 0.1859 0.0
H1764 H 0.93854 0.64656 0.18679 0.0
H1765 H 0.97509 0.715 0.18906 0.0
C1766 C 0.05046 0.7577 0.18913 0.0
C1767 C 0.09018 0.777 0.18854 0.0
C1768 C 0.02942 0.71817 0.18873 0.0
C1769 C 0.10859 0.75588 0.18861 0.0
C1770 C 0.08776 0.71635 0.18838 0.0
C1771 C 0.02682 0.65756 0.18657 0.0
C1772 C 0.98704 0.63873 0.18593 0.0
C1773 C 0.04812 0.69718 0.188 0.0
C1774 C 0.969 0.66012 0.18713 0.0
C1775 C 0.98991 0.69935 0.18846 0.0
H1776 H 0.35349 0.24817 0.33409 0.0
H1777 H 0.27335 0.22712 0.28867 0.0
H1778 H 0.28828 0.29278 0.28977 0.0
H1779 H 0.31999 0.35504 0.30589 0.0
H1780 H 0.39867 0.3749 0.35207 0.0
H1781 H 0.38799 0.31118 0.34874 0.0
C1782 C 0.34045 0.25841 0.32394 0.0
C1783 C 0.31301 0.23309 0.31102 0.0
C1784 C 0.3479 0.2958 0.3253 0.0
C1785 C 0.2952 0.24636 0.29845 0.0
C1786 C 0.30326 0.28375 0.2993 0.0
C1787 C 0.33445 0.34521 0.31532 0.0
C1788 C 0.35958 0.36955 0.32943 0.0
C1789 C 0.32863 0.30845 0.31313 0.0
C1790 C 0.37885 0.35667 0.34122 0.0
C1791 C 0.37299 0.32025 0.33925 0.0
H1792 H 0.63807 0.03066 0.33468 0.0
H1793 H 0.64507 0.9301 0.3264 0.0
H1794 H 0.71263 0.9685 0.32045 0.0
H1795 H 0.76996 0.03008 0.31892 0.0
H1796 H 0.7641 0.13116 0.32744 0.0
H1797 H 0.69555 0.09306 0.33129 0.0
C1798 C 0.65428 0.01707 0.33157 0.0
C1799 C 0.63629 0.97735 0.33118 0.0
C1800 C 0.69325 0.03944 0.32792 0.0
C1801 C 0.65798 0.96046 0.32694 0.0
C1802 C 0.69667 0.98245 0.32345 0.0
C1803 C 0.75375 0.04399 0.32133 0.0
C1804 C 0.77236 0.08359 0.32289 0.0
C1805 C 0.7146 0.02189 0.324 0.0
C1806 C 0.75065 0.10087 0.32599 0.0
C1807 C 0.71145 0.07901 0.32842 0.0
H1808 H 0.90256 0.65323 0.34454 0.0
H1809 H 0.96322 0.72893 0.29765 0.0
H1810 H 0.01269 0.71246 0.30009 0.0
H1811 H 0.04195 0.68151 0.3177 0.0
H1812 H 0.98198 0.606 0.36485 0.0
H1813 H 0.92954 0.61781 0.36044 0.0
C1814 C 0.92586 0.66486 0.33436 0.0
C1815 C 0.92884 0.69165 0.32064 0.0
C1816 C 0.95508 0.65636 0.33639 0.0
C1817 C 0.95993 0.70764 0.30804 0.0
C1818 C 0.98854 0.6987 0.30965 0.0
C1819 C 0.01752 0.66784 0.3271 0.0
C1820 C 0.01632 0.64356 0.34187 0.0
C1821 C 0.98708 0.67413 0.32421 0.0
C1822 C 0.98392 0.62526 0.35356 0.0
C1823 C 0.95377 0.6318 0.35095 0.0
H1824 H 0.65795 0.58004 0.88017 0.0
H1825 H 0.61485 0.55499 0.82188 0.0
H1826 H 0.67575 0.56765 0.80998 0.0
H1827 H 0.74399 0.59721 0.81519 0.0
H1828 H 0.78832 0.63122 0.87289 0.0
H1829 H 0.72517 0.60316 0.88587 0.0
C1830 C 0.66175 0.57637 0.86495 0.0
C1831 C 0.63148 0.5658 0.85209 0.0
C1832 C 0.69761 0.58577 0.858 0.0
C1833 C 0.63689 0.56162 0.83233 0.0
C1834 C 0.67214 0.56961 0.8254 0.0
C1835 C 0.73969 0.59743 0.83067 0.0
C1836 C 0.7712 0.61583 0.84294 0.0
C1837 C 0.70305 0.58321 0.83798 0.0
C1838 C 0.76514 0.61627 0.863 0.0
C1839 C 0.72872 0.6008 0.87047 0.0
H1840 H 0.41065 0.15288 0.81803 0.0
H1841 H 0.37332 0.14879 0.87682 0.0
H1842 H 0.4062 0.11667 0.88706 0.0
H1843 H 0.43203 0.07657 0.87806 0.0
H1844 H 0.45693 0.06938 0.81812 0.0
H1845 H 0.44361 0.11891 0.80972 0.0
C1846 C 0.41072 0.14591 0.83318 0.0
C1847 C 0.38976 0.1538 0.84655 0.0
C1848 C 0.42715 0.1245 0.83875 0.0
C1849 C 0.38995 0.14446 0.86616 0.0
C1850 C 0.40825 0.1252 0.87203 0.0
C1851 C 0.4356 0.08674 0.86327 0.0
C1852 C 0.4458 0.06939 0.84886 0.0
C1853 C 0.42498 0.11321 0.85826 0.0
C1854 C 0.45024 0.08267 0.8297 0.0
C1855 C 0.44185 0.11066 0.82477 0.0
H1856 H 0.85812 0.25125 0.81704 0.0
H1857 H 0.85048 0.21062 0.8754 0.0
H1858 H 0.87934 0.27418 0.88778 0.0
H1859 H 0.92091 0.34131 0.88123 0.0
H1860 H 0.93832 0.3811 0.82228 0.0
H1861 H 0.89151 0.31915 0.81102 0.0
C1862 C 0.86165 0.25644 0.83251 0.0
C1863 C 0.85177 0.22618 0.84519 0.0
C1864 C 0.8809 0.29343 0.83943 0.0
C1865 C 0.85662 0.23299 0.86525 0.0
C1866 C 0.87396 0.26964 0.87236 0.0
C1867 C 0.91335 0.33649 0.86602 0.0
C1868 C 0.93277 0.36583 0.85272 0.0
C1869 C 0.88825 0.30007 0.85948 0.0
C1870 C 0.92314 0.3595 0.83298 0.0
C1871 C 0.89677 0.32371 0.82644 0.0
H1872 H 0.57844 0.65611 0.63445 0.0
H1873 H 0.55573 0.623 0.69441 0.0
H1874 H 0.57161 0.68629 0.70342 0.0
H1875 H 0.60641 0.75333 0.69539 0.0
H1876 H 0.64129 0.78741 0.6364 0.0
H1877 H 0.60579 0.72254 0.62582 0.0
C1878 C 0.57592 0.66267 0.64938 0.0
C1879 C 0.56555 0.63475 0.66362 0.0
C1880 C 0.58795 0.69988 0.65468 0.0
C1881 C 0.56247 0.6434 0.68299 0.0
C1882 C 0.57231 0.67997 0.68825 0.0
C1883 C 0.60515 0.74647 0.68015 0.0
C1884 C 0.62619 0.77526 0.66677 0.0
C1885 C 0.58715 0.70876 0.67437 0.0
C1886 C 0.6246 0.76623 0.64703 0.0
C1887 C 0.60482 0.72884 0.64097 0.0
H1888 H 0.33943 0.93662 0.63898 0.0
H1889 H 0.38757 0.9569 0.69615 0.0
H1890 H 0.32631 0.91278 0.70992 0.0
H1891 H 0.25722 0.87718 0.70624 0.0
H1892 H 0.20932 0.86438 0.64924 0.0
H1893 H 0.2715 0.8956 0.6349 0.0
C1894 C 0.33648 0.93042 0.65437 0.0
C1895 C 0.36793 0.94944 0.66645 0.0
C1896 C 0.30086 0.90638 0.66227 0.0
C1897 C 0.36404 0.94174 0.68643 0.0
C1898 C 0.32881 0.91695 0.69437 0.0
C1899 C 0.26061 0.88035 0.69066 0.0
C1900 C 0.22858 0.86748 0.67888 0.0
C1901 C 0.29678 0.90031 0.68251 0.0
C1902 C 0.23317 0.87238 0.65868 0.0
C1903 C 0.26892 0.891 0.65043 0.0
H1904 H 0.06402 0.44451 0.68784 0.0
H1905 H 0.08295 0.42997 0.62792 0.0
H1906 H 0.12572 0.40759 0.6376 0.0
H1907 H 0.14647 0.3811 0.66298 0.0
H1908 H 0.12926 0.39665 0.72301 0.0
H1909 H 0.09681 0.43054 0.71336 0.0
C1910 C 0.07901 0.4385 0.67684 0.0
C1911 C 0.07061 0.43927 0.65713 0.0
C1912 C 0.10313 0.42526 0.68257 0.0
C1913 C 0.08912 0.42963 0.64314 0.0
C1914 C 0.11335 0.41668 0.64869 0.0
C1915 C 0.13795 0.3938 0.67406 0.0
C1916 C 0.14101 0.38687 0.69375 0.0
C1917 C 0.1192 0.41287 0.66838 0.0
C1918 C 0.12741 0.40184 0.70777 0.0
C1919 C 0.10872 0.42099 0.70225 0.0
H1920 H 0.89126 0.58752 0.54041 0.0
H1921 H 0.89846 0.69564 0.53468 0.0
H1922 H 0.96742 0.72653 0.53382 0.0
H1923 H 0.02486 0.72161 0.5307 0.0
H1924 H 0.01611 0.61245 0.53487 0.0
H1925 H 0.94832 0.58307 0.53996 0.0
C1926 C 0.90789 0.61797 0.53936 0.0
C1927 C 0.88971 0.63924 0.53747 0.0
C1928 C 0.94718 0.6352 0.53807 0.0
C1929 C 0.9117 0.67863 0.53629 0.0
C1930 C 0.95111 0.69621 0.53551 0.0
C1931 C 0.00814 0.69138 0.53275 0.0
C1932 C 0.02555 0.66919 0.53208 0.0
C1933 C 0.96903 0.6746 0.53566 0.0
C1934 C 0.0035 0.63017 0.53509 0.0
C1935 C 0.96472 0.61335 0.53809 0.0
H1936 H 0.40428 0.30663 0.52373 0.0
H1937 H 0.29786 0.20428 0.51586 0.0
H1938 H 0.26764 0.24167 0.50868 0.0
H1939 H 0.27257 0.30402 0.50294 0.0
H1940 H 0.38078 0.40507 0.50942 0.0
H1941 H 0.40931 0.36739 0.51815 0.0
C1942 C 0.3743 0.2922 0.5207 0.0
C1943 C 0.35343 0.25245 0.52048 0.0
C1944 C 0.35762 0.31376 0.51576 0.0
C1945 C 0.31463 0.2347 0.51644 0.0
C1946 C 0.29746 0.25614 0.51204 0.0
C1947 C 0.30252 0.31775 0.50595 0.0
C1948 C 0.32455 0.35751 0.50526 0.0
C1949 C 0.31888 0.29575 0.51122 0.0
C1950 C 0.36315 0.37469 0.50965 0.0
C1951 C 0.37948 0.35314 0.51481 0.0
H1952 H 0.69538 0.97198 0.52063 0.0
H1953 H 0.59505 0.98106 0.52382 0.0
H1954 H 0.63354 0.04862 0.52925 0.0
H1955 H 0.69506 0.10544 0.53179 0.0
H1956 H 0.79646 0.09866 0.52777 0.0
H1957 H 0.75817 0.02986 0.52463 0.0
C1958 C 0.68192 0.98875 0.52243 0.0
C1959 C 0.64212 0.97119 0.52156 0.0
C1960 C 0.70441 0.02798 0.52571 0.0
C1961 C 0.6254 0.99353 0.52424 0.0
C1962 C 0.64745 0.03228 0.52744 0.0
C1963 C 0.70904 0.08903 0.53051 0.0
C1964 C 0.74883 0.10752 0.53006 0.0
C1965 C 0.6869 0.0498 0.52811 0.0
C1966 C 0.76605 0.08541 0.5284 0.0
C1967 C 0.74407 0.04604 0.52635 0.0
H1968 H 0.97437 0.69358 0.64465 0.0
H1969 H 0.06942 0.72069 0.68171 0.0
H1970 H 0.05784 0.65674 0.67889 0.0
H1971 H 0.01842 0.59122 0.66768 0.0
H1972 H 0.92119 0.56256 0.63233 0.0
H1973 H 0.93621 0.62827 0.63236 0.0
C1974 C 0.9925 0.68549 0.65213 0.0
C1975 C 0.02272 0.71234 0.66342 0.0
C1976 C 0.98554 0.64809 0.65057 0.0
C1977 C 0.04599 0.70105 0.67285 0.0
C1978 C 0.03944 0.66426 0.67125 0.0
C1979 C 1.00126 0.59964 0.65949 0.0
C1980 C 0.96917 0.57207 0.64967 0.0
C1981 C 0.00919 0.63738 0.66025 0.0
C1982 C 0.94643 0.58329 0.63972 0.0
C1983 C 0.95477 0.62087 0.63992 0.0
H1984 H 0.309 0.2991 0.65619 0.0
H1985 H 0.29621 0.36482 0.70104 0.0
H1986 H 0.36145 0.41512 0.69614 0.0
H1987 H 0.42341 0.43958 0.67984 0.0
H1988 H 0.43553 0.37285 0.63542 0.0
H1989 H 0.36927 0.32459 0.63896 0.0
C1990 C 0.32053 0.32422 0.66507 0.0
C1991 C 0.29774 0.32769 0.67925 0.0
C1992 C 0.35787 0.35341 0.66189 0.0
C1993 C 0.31312 0.36101 0.69023 0.0
C1994 C 0.35041 0.38999 0.68732 0.0
C1995 C 0.41111 0.41507 0.67049 0.0
C1996 C 0.43418 0.41025 0.65703 0.0
C1997 C 0.37312 0.38658 0.67315 0.0
C1998 C 0.4182 0.3776 0.64556 0.0
C1999 C 0.38042 0.34972 0.64779 0.0
H2000 H 0.70433 0.02037 0.64022 0.0
H2001 H 0.64337 0.94137 0.68593 0.0
H2002 H 0.59063 0.95284 0.68182 0.0
H2003 H 0.5643 0.98984 0.6671 0.0
H2004 H 0.62581 0.0689 0.62159 0.0
H2005 H 0.67498 0.05189 0.62314 0.0
C2006 C 0.67956 0.00584 0.64935 0.0
C2007 C 0.67819 0.98084 0.66372 0.0
C2008 C 0.64898 0.01194 0.64659 0.0
C2009 C 0.64539 0.96127 0.67499 0.0
C2010 C 0.6151 0.96762 0.67256 0.0
C2011 C 0.58763 1.002 0.65695 0.0
C2012 C 0.59104 0.02999 0.64395 0.0
C2013 C 0.6167 0.99321 0.65853 0.0
C2014 C 0.62217 0.04665 0.63139 0.0
C2015 C 0.65065 0.03744 0.63253 0.0
H2016 H 0.33669 0.91607 0.20509 0.0
H2017 H 0.29896 0.89441 0.14586 0.0
H2018 H 0.36066 0.90637 0.13543 0.0
H2019 H 0.42839 0.93578 0.14237 0.0
H2020 H 0.46674 0.96797 0.20114 0.0
H2021 H 0.40274 0.93825 0.21249 0.0
C2022 C 0.34184 0.91294 0.18999 0.0
C2023 C 0.31321 0.90398 0.17637 0.0
C2024 C 0.37804 0.92211 0.18396 0.0
C2025 C 0.32005 0.9002 0.15678 0.0
C2026 C 0.35566 0.9077 0.15074 0.0
C2027 C 0.4226 0.93522 0.15772 0.0
C2028 C 0.45281 0.95362 0.17077 0.0
C2029 C 0.38532 0.92048 0.16409 0.0
C2030 C 0.44481 0.953 0.19065 0.0
C2031 C 0.4078 0.9366 0.19721 0.0
H2032 H 0.09298 0.4932 0.15464 0.0
H2033 H 0.05248 0.49332 0.21227 0.0
H2034 H 0.08093 0.45815 0.22421 0.0
H2035 H 0.10356 0.41457 0.21698 0.0
H2036 H 0.13185 0.40388 0.15814 0.0
H2037 H 0.12282 0.45548 0.14818 0.0
C2038 C 0.0914 0.48646 0.16993 0.0
C2039 C 0.07068 0.49644 0.1824 0.0
C2040 C 0.10519 0.46328 0.1765 0.0
C2041 C 0.06887 0.4874 0.20221 0.0
C2042 C 0.0846 0.46634 0.20908 0.0
C2043 C 0.10879 0.42436 0.2021 0.0
C2044 C 0.1188 0.40551 0.18848 0.0
C2045 C 0.1008 0.45229 0.19615 0.0
C2046 C 0.12532 0.4183 0.16917 0.0
C2047 C 0.11941 0.44754 0.16334 0.0
H2048 H 0.52398 0.58552 0.15161 0.0
H2049 H 0.51871 0.54595 0.21005 0.0
H2050 H 0.55197 0.60994 0.2218 0.0
H2051 H 0.5957 0.67635 0.21451 0.0
H2052 H 0.61021 0.71475 0.15536 0.0
H2053 H 0.56052 0.65323 0.14496 0.0
C2054 C 0.52906 0.59105 0.16699 0.0
C2055 C 0.51843 0.56074 0.17982 0.0
C2056 C 0.55087 0.6282 0.17352 0.0
C2057 C 0.52531 0.5682 0.19975 0.0
C2058 C 0.54523 0.60512 0.20651 0.0
C2059 C 0.58703 0.67139 0.19945 0.0
C2060 C 0.60637 0.7002 0.18583 0.0
C2061 C 0.56004 0.63519 0.19338 0.0
C2062 C 0.59522 0.69359 0.1663 0.0
C2063 C 0.56713 0.65805 0.16026 0.0
H2064 H 0.21329 0.95443 0.00765 0.0
H2065 H 0.27714 0.98329 0.95469 0.0
H2066 H 0.30131 0.0503 0.96081 0.0
H2067 H 0.31091 0.09998 0.98347 0.0
H2068 H 0.24862 0.072 0.03692 0.0
H2069 H 0.21727 0.00495 0.02863 0.0
C2070 C 0.23241 0.97554 0.9975 0.0
C2071 C 0.24432 0.96438 0.98102 0.0
C2072 C 0.24644 0.01388 1.00128 0.0
C2073 C 0.26804 0.99157 0.96755 0.0
C2074 C 0.28189 0.02974 0.97109 0.0
C2075 C 0.28921 0.07947 0.99287 0.0
C2076 C 0.28144 0.0909 0.0106 0.0
C2077 C 0.27208 0.04121 0.98816 0.0
C2078 C 0.2546 0.06368 0.02311 0.0
C2079 C 0.23695 0.02546 0.01842 0.0
H2080 H 0.00971 0.26594 0.96971 0.0
H2081 H 0.04605 0.27401 0.02892 0.0
H2082 H 0.98283 0.22602 0.03857 0.0
H2083 H 0.91502 0.19083 0.03115 0.0
H2084 H 0.87857 0.1918 0.97266 0.0
H2085 H 0.94312 0.2257 0.96173 0.0
C2086 C 0.00386 0.25632 0.98461 0.0
C2087 C 0.03264 0.27314 0.99846 0.0
C2088 C 0.96697 0.23026 0.99024 0.0
C2089 C 0.02484 0.26082 0.01781 0.0
C2090 C 0.98841 0.23376 0.02341 0.0
C2091 C 0.92134 0.19758 0.01594 0.0
C2092 C 0.89163 0.18775 1.00279 0.0
C2093 C 0.95894 0.21953 0.00989 0.0
C2094 C 0.90023 0.1972 0.98311 0.0
C2095 C 0.9375 0.21752 0.97684 0.0
H2096 H 0.82761 0.74562 0.03258 0.0
H2097 H 0.82622 0.70451 0.97496 0.0
H2098 H 0.79476 0.73648 0.96278 0.0
H2099 H 0.75261 0.76068 0.96996 0.0
H2100 H 0.74167 0.78831 0.02885 0.0
H2101 H 0.79243 0.77803 0.03892 0.0
C2102 C 0.82148 0.74481 0.01725 0.0
C2103 C 0.82975 0.72285 0.00485 0.0
C2104 C 0.79998 0.76035 0.01058 0.0
C2105 C 0.82161 0.7219 0.98496 0.0
C2106 C 0.80261 0.73963 0.97794 0.0
C2107 C 0.76231 0.76556 0.98485 0.0
C2108 C 0.74363 0.77555 0.99851 0.0
C2109 C 0.78947 0.75664 0.99085 0.0
C2110 C 0.75612 0.78172 0.01784 0.0
C2111 C 0.78482 0.77512 0.02373 0.0
H2112 H 0.68316 0.96377 0.86051 0.0
H2113 H 0.71275 0.06786 0.8311 0.0
H2114 H 0.64728 0.05309 0.83243 0.0
H2115 H 0.58056 0.00912 0.84066 0.0
H2116 H 0.55114 0.90448 0.8693 0.0
H2117 H 0.61728 0.9213 0.86996 0.0
C2118 C 0.67528 0.98314 0.8543 0.0
C2119 C 0.70293 0.01666 0.84551 0.0
C2120 C 0.63749 0.97463 0.85523 0.0
C2121 C 0.69213 0.04166 0.83781 0.0
C2122 C 0.65463 0.03335 0.83864 0.0
C2123 C 0.58883 0.99053 0.84749 0.0
C2124 C 0.56101 0.95579 0.85511 0.0
C2125 C 0.62697 0.99985 0.84727 0.0
C2126 C 0.57206 0.93152 0.86347 0.0
C2127 C 0.60986 0.94096 0.86371 0.0
H2128 H 0.94429 0.639 0.85366 0.0
H2129 H 0.05211 0.74096 0.85863 0.0
H2130 H 0.08283 0.70387 0.86377 0.0
H2131 H 0.07987 0.64292 0.86515 0.0
H2132 H 0.9727 0.5404 0.85995 0.0
H2133 H 0.94088 0.57727 0.85718 0.0
C2134 C 0.97452 0.65311 0.85583 0.0
C2135 C 0.99589 0.69283 0.85549 0.0
C2136 C 0.99209 0.63151 0.85898 0.0
C2137 C 0.03495 0.71054 0.85867 0.0
C2138 C 0.05257 0.68932 0.86167 0.0
C2139 C 0.04944 0.62848 0.86371 0.0
C2140 C 0.02876 0.58883 0.86272 0.0
C2141 C 0.0315 0.64985 0.86169 0.0
C2142 C 0.98935 0.57079 0.86091 0.0
C2143 C 0.97118 0.59192 0.85911 0.0
H2144 H 0.28699 0.31948 0.86612 0.0
H2145 H 0.36963 0.29604 0.84134 0.0
H2146 H 0.41777 0.36217 0.84408 0.0
H2147 H 0.43615 0.42801 0.85166 0.0
H2148 H 0.35325 0.4518 0.87553 0.0
H2149 H 0.30627 0.38479 0.87541 0.0
C2150 C 0.3155 0.32882 0.8613 0.0
C2151 C 0.32428 0.30257 0.85332 0.0
C2152 C 0.34342 0.36722 0.86297 0.0
C2153 C 0.36168 0.3154 0.84739 0.0
C2154 C 0.38946 0.35336 0.84902 0.0
C2155 C 0.40812 0.41837 0.85735 0.0
C2156 C 0.39844 0.44494 0.8638 0.0
C2157 C 0.38069 0.37967 0.85665 0.0
C2158 C 0.3616 0.43197 0.87064 0.0
C2159 C 0.33455 0.39361 0.87041 0.0
H2160 H 0.59405 0.89769 0.98132 0.0
H2161 H 0.70255 0.9078 0.9914 0.0
H2162 H 0.73189 0.97663 0.99222 0.0
H2163 H 0.72526 0.03365 0.99303 0.0
H2164 H 0.61533 0.02111 0.98371 0.0
H2165 H 0.5881 0.9536 0.9799 0.0
C2166 C 0.62426 0.91489 0.98342 0.0
C2167 C 0.64602 0.89757 0.98641 0.0
C2168 C 0.64061 0.9541 0.98439 0.0
C2169 C 0.68515 0.92038 0.98895 0.0
C2170 C 0.70185 0.95973 0.98964 0.0
C2171 C 0.69537 0.0161 0.99017 0.0
C2172 C 0.67235 0.03254 0.98893 0.0
C2173 C 0.67964 0.97687 0.98793 0.0
C2174 C 0.63376 0.00939 0.9849 0.0
C2175 C 0.61808 0.97067 0.98266 0.0
H2176 H 0.98427 0.61572 0.98236 0.0
H2177 H 0.96446 0.69716 0.01152 0.0
H2178 H 0.02983 0.74566 0.00647 0.0
H2179 H 0.09419 0.76467 0.99556 0.0
H2180 H 0.11486 0.68322 0.96738 0.0
H2181 H 0.04807 0.63574 0.96984 0.0
C2182 C 0.99427 0.64403 0.98766 0.0
C2183 C 0.9693 0.65239 0.99753 0.0
C2184 C 0.03222 0.67219 0.98465 0.0
C2185 C 0.98288 0.68955 0.00403 0.0
C2186 C 0.02037 0.71754 1.00107 0.0
C2187 C 0.08381 0.73687 0.98944 0.0
C2188 C 0.10941 0.72765 0.9811 0.0
C2189 C 0.04544 0.70922 0.99152 0.0
C2190 C 0.09567 0.69111 0.97374 0.0
C2191 C 0.0575 0.66381 0.97531 0.0
H2192 H 0.23058 0.32032 0.00662 0.0
H2193 H 0.298 0.40638 0.9651 0.0
H2194 H 0.34653 0.38841 0.96662 0.0
H2195 H 0.3726 0.35175 0.98203 0.0
H2196 H 0.30534 0.26654 0.02413 0.0
H2197 H 0.25475 0.28096 0.02042 0.0
C2198 C 0.2552 0.33405 0.99734 0.0
C2199 C 0.26018 0.36398 0.98537 0.0
C2200 C 0.28383 0.3246 0.99894 0.0
C2201 C 0.29306 0.38261 0.97405 0.0
C2202 C 0.32115 0.37277 0.97518 0.0
C2203 C 0.347 0.33661 0.9905 0.0
C2204 C 0.34317 0.30852 0.00358 0.0
C2205 C 0.31745 0.3446 0.98804 0.0
C2206 C 0.30933 0.28857 0.01409 0.0
C2207 C 0.28016 0.29661 0.01189 0.0
H2208 H 0.1082 0.29414 0.51987 0.0
H2209 H 0.07755 0.26866 0.45981 0.0
H2210 H 0.01094 0.2409 0.46841 0.0
H2211 H 0.96406 0.23553 0.49228 0.0
H2212 H 0.99554 0.26034 0.55229 0.0
H2213 H 0.05992 0.27617 0.54447 0.0
C2214 C 0.08718 0.28063 0.50872 0.0
C2215 C 0.09803 0.28316 0.48919 0.0
C2216 C 0.04921 0.26528 0.51376 0.0
C2217 C 0.06987 0.26693 0.47494 0.0
C2218 C 0.03187 0.25133 0.47984 0.0
C2219 C 0.9844 0.24252 0.5038 0.0
C2220 C 0.97501 0.24655 0.52289 0.0
C2221 C 0.02142 0.25193 0.49912 0.0
C2222 C 1.00228 0.25716 0.53751 0.0
C2223 C 0.03903 0.26629 0.53302 0.0
H2224 H 0.74515 0.82669 0.49086 0.0
H2225 H 0.69887 0.82327 0.54732 0.0
H2226 H 0.72437 0.78553 0.55965 0.0
H2227 H 0.74525 0.74036 0.55225 0.0
H2228 H 0.78104 0.73531 0.49427 0.0
H2229 H 0.7748 0.78883 0.48476 0.0
C2230 C 0.742 0.8188 0.50603 0.0
C2231 C 0.72026 0.82806 0.51803 0.0
C2232 C 0.75415 0.7944 0.51267 0.0
C2233 C 0.71615 0.81763 0.53771 0.0
C2234 C 0.73007 0.7951 0.54474 0.0
C2235 C 0.75271 0.75188 0.53773 0.0
C2236 C 0.76418 0.73432 0.52414 0.0
C2237 C 0.74688 0.78135 0.53203 0.0
C2238 C 0.77347 0.74901 0.50525 0.0
C2239 C 0.76926 0.77934 0.49968 0.0
H2240 H 0.18062 0.908 0.48907 0.0
H2241 H 0.16257 0.89137 0.55052 0.0
H2242 H 0.20565 0.95856 0.55615 0.0
H2243 H 0.25623 0.01914 0.5437 0.0
H2244 H 0.27607 0.03509 0.48233 0.0
H2245 H 0.22389 0.97138 0.47627 0.0
C2246 C 0.18536 0.91952 0.50359 0.0
C2247 C 0.16955 0.89516 0.51943 0.0
C2248 C 0.21064 0.95786 0.50664 0.0
C2249 C 0.17545 0.90988 0.53824 0.0
C2250 C 0.19998 0.94812 0.54142 0.0
C2251 C 0.24828 0.00876 0.52903 0.0
C2252 C 0.26957 0.03137 0.51348 0.0
C2253 C 0.21903 0.97195 0.52578 0.0
C2254 C 0.2595 0.01814 0.49445 0.0
C2255 C 0.23001 0.98166 0.49103 0.0
H2256 H 0.96785 0.44264 0.32817 0.0
H2257 H 0.9541 0.41839 0.38933 0.0
H2258 H 0.91965 0.3509 0.3824 0.0
H2259 H 0.90621 0.30072 0.35906 0.0
H2260 H 0.91916 0.32562 0.29797 0.0
H2261 H 0.94041 0.39167 0.30477 0.0
C2262 C 0.95553 0.42299 0.34003 0.0
C2263 C 0.96348 0.43569 0.35928 0.0
C2264 C 0.9362 0.3844 0.33592 0.0
C2265 C 0.9484 0.40921 0.3744 0.0
C2266 C 0.92892 0.37068 0.37044 0.0
C2267 C 0.9117 0.32006 0.34719 0.0
C2268 C 0.91116 0.30835 0.32802 0.0
C2269 C 0.92437 0.35803 0.35125 0.0
C2270 C 0.91962 0.33421 0.31284 0.0
C2271 C 0.93192 0.37192 0.31673 0.0
H2272 H 0.68821 0.58887 0.30447 0.0
H2273 H 0.71778 0.61733 0.36435 0.0
H2274 H 0.65491 0.56893 0.3744 0.0
H2275 H 0.58867 0.52793 0.36559 0.0
H2276 H 0.55776 0.50153 0.30572 0.0
H2277 H 0.62393 0.53916 0.296 0.0
C2278 C 0.68091 0.58349 0.31969 0.0
C2279 C 0.70721 0.60615 0.33367 0.0
C2280 C 0.64441 0.55651 0.32526 0.0
C2281 C 0.69801 0.59953 0.3534 0.0
C2282 C 0.66197 0.57222 0.35913 0.0
C2283 C 0.5968 0.52957 0.35052 0.0
C2284 C 0.56894 0.51343 0.33627 0.0
C2285 C 0.63454 0.55181 0.34513 0.0
C2286 C 0.57916 0.51504 0.31677 0.0
C2287 C 0.6168 0.53643 0.31126 0.0
H2288 H 0.42587 0.09707 0.30407 0.0
H2289 H 0.40354 0.11985 0.3619 0.0
H2290 H 0.45264 0.10922 0.3747 0.0
H2291 H 0.49097 0.07933 0.3703 0.0
H2292 H 0.50427 0.04629 0.31292 0.0
H2293 H 0.47155 0.07604 0.29913 0.0
C2294 C 0.43273 0.10079 0.31937 0.0
C2295 C 0.41144 0.10961 0.33193 0.0
C2296 C 0.45949 0.09241 0.32678 0.0
C2297 C 0.42015 0.11417 0.35179 0.0
C2298 C 0.4479 0.10745 0.35919 0.0
C2299 C 0.48781 0.07993 0.35472 0.0
C2300 C 0.50043 0.06081 0.3428 0.0
C2301 C 0.46628 0.09462 0.34694 0.0
C2302 C 0.49601 0.06152 0.32259 0.0
C2303 C 0.47642 0.07792 0.31463 0.0
H2304 H 0.16167 0.31329 0.05252 0.0
H2305 H 0.22976 0.42565 0.07488 0.0
H2306 H 0.21813 0.40086 0.10802 0.0
H2307 H 0.18608 0.34717 0.13101 0.0
H2308 H 0.12237 0.23441 0.10848 0.0
H2309 H 0.13486 0.25916 0.07535 0.0
C2310 C 0.17415 0.33235 0.06464 0.0
C2311 C 0.19637 0.37147 0.06108 0.0
C2312 C 0.16799 0.31771 0.08376 0.0
C2313 C 0.21273 0.39552 0.07705 0.0
C2314 C 0.20589 0.38131 0.09608 0.0
C2315 C 0.17507 0.328 0.11885 0.0
C2316 C 0.15291 0.28884 0.12238 0.0
C2317 C 0.18317 0.34247 0.09968 0.0
C2318 C 0.13952 0.26454 0.10633 0.0
C2319 C 0.14654 0.27875 0.08731 0.0
H2320 H 0.69144 0.84972 0.05273 0.0
H2321 H 0.57851 0.79499 0.07554 0.0
H2322 H 0.60359 0.80628 0.10865 0.0
H2323 H 0.65797 0.82911 0.13134 0.0
H2324 H 0.77086 0.88777 0.10838 0.0
H2325 H 0.74569 0.87769 0.07538 0.0
C2326 C 0.67228 0.84037 0.06493 0.0
C2327 C 0.63296 0.8211 0.06149 0.0
C2328 C 0.68704 0.84758 0.08403 0.0
C2329 C 0.60876 0.80997 0.07762 0.0
C2330 C 0.62317 0.81624 0.09661 0.0
C2331 C 0.67708 0.83977 0.11912 0.0
C2332 C 0.71646 0.85885 0.12249 0.0
C2333 C 0.66228 0.83456 0.10004 0.0
C2334 C 0.74059 0.87307 0.10637 0.0
C2335 C 0.72614 0.86716 0.08743 0.0
H2336 H 0.17993 0.82345 0.12295 0.0
H2337 H 0.12601 0.88287 0.1008 0.0
H2338 H 0.13628 0.86915 0.06755 0.0
H2339 H 0.16294 0.84214 0.04447 0.0
H2340 H 0.21137 0.7776 0.06679 0.0
H2341 H 0.20091 0.79121 0.09996 0.0
C2342 C 0.1703 0.83327 0.11084 0.0
C2343 C 0.1525 0.85455 0.11447 0.0
C2344 C 0.1754 0.82433 0.09166 0.0
C2345 C 0.13967 0.86642 0.09853 0.0
C2346 C 0.1457 0.85868 0.07946 0.0
C2347 C 0.1709 0.83077 0.05659 0.0
C2348 C 0.18814 0.80892 0.05299 0.0
C2349 C 0.16385 0.83793 0.07579 0.0
C2350 C 0.19793 0.79428 0.06899 0.0
C2351 C 0.1921 0.80223 0.08803 0.0
H2352 H 0.31696 0.16509 0.45775 0.0
H2353 H 0.43129 0.23208 0.43759 0.0
H2354 H 0.40891 0.22341 0.40401 0.0
H2355 H 0.35681 0.19334 0.38007 0.0
H2356 H 0.24214 0.13127 0.40031 0.0
H2357 H 0.26437 0.14178 0.43396 0.0
C2358 C 0.33694 0.17811 0.44601 0.0
C2359 C 0.37591 0.19899 0.45026 0.0
C2360 C 0.32369 0.17383 0.42667 0.0
C2361 C 0.40127 0.21602 0.43483 0.0
C2362 C 0.38843 0.21089 0.41557 0.0
C2363 C 0.33667 0.18252 0.39186 0.0
C2364 C 0.29774 0.1613 0.38758 0.0
C2365 C 0.34973 0.18939 0.41126 0.0
C2366 C 0.27212 0.14789 0.4031 0.0
C2367 C 0.28491 0.15368 0.42238 0.0
H2368 H 0.82618 0.17648 0.38674 0.0
H2369 H 0.87993 0.11635 0.4081 0.0
H2370 H 0.86834 0.12801 0.44155 0.0
H2371 H 0.84487 0.15771 0.46502 0.0
H2372 H 0.78518 0.2118 0.4434 0.0
H2373 H 0.79686 0.20009 0.41007 0.0
C2374 C 0.8351 0.16566 0.39872 0.0
C2375 C 0.85419 0.14571 0.39481 0.0
C2376 C 0.8273 0.17155 0.418 0.0
C2377 C 0.86509 0.13159 0.41058 0.0
C2378 C 0.8586 0.13845 0.42977 0.0
C2379 C 0.83419 0.16668 0.45301 0.0
C2380 C 0.81432 0.18592 0.45684 0.0
C2381 C 0.84004 0.15875 0.43371 0.0
C2382 C 0.80037 0.19687 0.441 0.0
C2383 C 0.80721 0.1903 0.42187 0.0
H2384 H 0.88549 0.74566 0.41262 0.0
H2385 H 0.84718 0.64627 0.37772 0.0
H2386 H 0.82769 0.60679 0.40672 0.0
H2387 H 0.81655 0.59941 0.44231 0.0
H2388 H 0.85533 0.69888 0.4772 0.0
H2389 H 0.87923 0.73865 0.44849 0.0
C2390 C 0.8737 0.71548 0.41142 0.0
C2391 C 0.86788 0.69912 0.39285 0.0
C2392 C 0.86187 0.69254 0.42836 0.0
C2393 C 0.85183 0.65975 0.39171 0.0
C2394 C 0.84058 0.63701 0.40837 0.0
C2395 C 0.83065 0.62979 0.44367 0.0
C2396 C 0.83303 0.64584 0.46207 0.0
C2397 C 0.84463 0.65288 0.42683 0.0
C2398 C 0.85162 0.68542 0.46331 0.0
C2399 C 0.86577 0.70838 0.44681 0.0
H2400 H 0.84823 0.68711 0.89814 0.0
H2401 H 0.9648 0.74728 0.91602 0.0
H2402 H 0.95188 0.69988 0.94069 0.0
H2403 H 0.90926 0.63892 0.95482 0.0
H2404 H 0.79214 0.57927 0.93864 0.0
H2405 H 0.80416 0.62713 0.91382 0.0
C2406 C 0.87062 0.68987 0.90759 0.0
C2407 C 0.90752 0.71966 0.90497 0.0
C2408 C 0.86346 0.66158 0.92094 0.0
C2409 C 0.93615 0.72429 0.91775 0.0
C2410 C 0.92904 0.69681 0.9315 0.0
C2411 C 0.88677 0.63589 0.9453 0.0
C2412 C 0.85039 0.60535 0.9476 0.0
C2413 C 0.89331 0.66465 0.93253 0.0
C2414 C 0.82066 0.60206 0.93622 0.0
C2415 C 0.82735 0.62981 0.92257 0.0
H2416 H 0.30114 0.24418 0.90289 0.0
H2417 H 0.25917 0.12567 0.91108 0.0
H2418 H 0.30978 0.13959 0.93432 0.0
H2419 H 0.3673 0.18599 0.9507 0.0
H2420 H 0.40887 0.30454 0.94216 0.0
H2421 H 0.35948 0.29026 0.91842 0.0
C2422 C 0.30235 0.22158 0.91048 0.0
C2423 C 0.27618 0.18416 0.90626 0.0
C2424 C 0.33279 0.22984 0.92238 0.0
C2425 C 0.27852 0.15465 0.91506 0.0
C2426 C 0.30793 0.16262 0.92774 0.0
C2427 C 0.36553 0.20853 0.94346 0.0
C2428 C 0.39041 0.24597 0.94847 0.0
C2429 C 0.33565 0.20012 0.93107 0.0
C2430 C 0.38965 0.27537 0.93847 0.0
C2431 C 0.36089 0.26728 0.92537 0.0
H2432 H 0.84581 0.13702 0.90154 0.0
H2433 H 0.76088 0.0209 0.91081 0.0
H2434 H 0.72625 0.04053 0.93206 0.0
H2435 H 0.71722 0.09083 0.94498 0.0
H2436 H 0.80178 0.20684 0.93571 0.0
H2437 H 0.83805 0.1873 0.91545 0.0
C2438 C 0.82013 0.11606 0.90862 0.0
C2439 C 0.80536 0.07779 0.90447 0.0
C2440 C 0.79915 0.12759 0.91943 0.0
C2441 C 0.7727 0.05058 0.91392 0.0
C2442 C 0.7524 0.06181 0.92556 0.0
C2443 C 0.74282 0.11171 0.93779 0.0
C2444 C 0.75632 0.15008 0.94085 0.0
C2445 C 0.76448 0.1002 0.92755 0.0
C2446 C 0.79041 0.17722 0.9326 0.0
C2447 C 0.81153 0.16602 0.92163 0.0
H2448 H 0.63172 0.8275 0.5724 0.0
H2449 H 0.58776 0.90219 0.58136 0.0
H2450 H 0.64173 0.94245 0.60193 0.0
H2451 H 0.70459 0.95958 0.6141 0.0
H2452 H 0.75056 0.88748 0.60252 0.0
H2453 H 0.69452 0.8451 0.58381 0.0
C2454 C 0.63368 0.85222 0.57925 0.0
C2455 C 0.60672 0.86261 0.57507 0.0
C2456 C 0.6665 0.87719 0.58899 0.0
C2457 C 0.60844 0.89379 0.58439 0.0
C2458 C 0.63986 0.91746 0.59555 0.0
C2459 C 0.703 0.93561 0.60657 0.0
C2460 C 0.73169 0.92691 0.609 0.0
C2461 C 0.66993 0.91046 0.59696 0.0
C2462 C 0.72912 0.8951 0.60006 0.0
C2463 C 0.69662 0.87029 0.59006 0.0
H2464 H 0.19131 0.80525 0.57889 0.0
H2465 H 0.10175 0.69193 0.58984 0.0
H2466 H 0.07206 0.71549 0.61209 0.0
H2467 H 0.06581 0.76857 0.62307 0.0
H2468 H 0.15442 0.88227 0.61206 0.0
H2469 H 0.18915 0.85858 0.59335 0.0
C2470 C 0.16604 0.78581 0.58678 0.0
C2471 C 0.14787 0.74729 0.58247 0.0
C2472 C 0.14766 0.79976 0.59803 0.0
C2473 C 0.11595 0.7218 0.59298 0.0
C2474 C 0.09838 0.73533 0.60515 0.0
C2475 C 0.09219 0.78805 0.61601 0.0
C2476 C 0.10684 0.82691 0.61769 0.0
C2477 C 0.11266 0.77424 0.60657 0.0
C2478 C 0.14207 0.85224 0.60982 0.0
C2479 C 0.16221 0.83871 0.5997 0.0
H2480 H 0.25966 0.41137 0.5783 0.0
H2481 H 0.22203 0.31389 0.54189 0.0
H2482 H 0.19895 0.27241 0.56985 0.0
H2483 H 0.187 0.26393 0.60462 0.0
H2484 H 0.23228 0.3616 0.64139 0.0
H2485 H 0.25463 0.40311 0.61348 0.0
C2486 C 0.24657 0.38109 0.57664 0.0
C2487 C 0.2405 0.36527 0.55826 0.0
C2488 C 0.23428 0.35754 0.59278 0.0
C2489 C 0.22462 0.32621 0.55601 0.0
C2490 C 0.21197 0.30255 0.57195 0.0
C2491 C 0.20163 0.29428 0.6064 0.0
C2492 C 0.20579 0.3099 0.62474 0.0
C2493 C 0.21591 0.3179 0.59037 0.0
C2494 C 0.22603 0.34915 0.62718 0.0
C2495 C 0.2397 0.3729 0.61129 0.0
H2496 H 0.93268 0.47944 0.74184 0.0
H2497 H 0.03331 0.5293 0.70704 0.0
H2498 H 0.07237 0.54835 0.73607 0.0
H2499 H 0.07877 0.54769 0.77197 0.0
H2500 H 0.97823 0.49943 0.8068 0.0
H2501 H 0.93925 0.48358 0.7778 0.0
C2502 C 0.96313 0.49495 0.7406 0.0
C2503 C 0.97973 0.50205 0.722 0.0
C2504 C 0.98588 0.50604 0.75765 0.0
C2505 C 0.01943 0.52223 0.72096 0.0
C2506 C 0.042 0.5335 0.73769 0.0
C2507 C 0.0484 0.5342 0.77323 0.0
C2508 C 0.03167 0.52407 0.79179 0.0
C2509 C 0.0257 0.525 0.7562 0.0
C2510 C 0.99208 0.50652 0.79286 0.0
C2511 C 0.96959 0.49766 0.77617 0.0
H2512 H 0.48705 0.50654 0.71974 0.0
H2513 H 0.53914 0.44534 0.74183 0.0
H2514 H 0.52656 0.45688 0.77512 0.0
H2515 H 0.50332 0.48729 0.79815 0.0
H2516 H 0.44679 0.54405 0.77577 0.0
H2517 H 0.45818 0.53121 0.74262 0.0
C2518 C 0.49548 0.49556 0.73184 0.0
C2519 C 0.51444 0.47541 0.72823 0.0
C2520 C 0.48737 0.50163 0.75098 0.0
C2521 C 0.52448 0.46082 0.74413 0.0
C2522 C 0.51743 0.46761 0.7632 0.0
C2523 C 0.49335 0.49669 0.78602 0.0
C2524 C 0.47451 0.51702 0.78956 0.0
C2525 C 0.49932 0.48843 0.76685 0.0
C2526 C 0.46121 0.5283 0.77358 0.0
C2527 C 0.46792 0.52111 0.75456 0.0
H2528 H 0.50369 0.98469 0.71163 0.0
H2529 H 0.56604 0.0966 0.73527 0.0
H2530 H 0.55173 0.07057 0.7682 0.0
H2531 H 0.51815 0.01582 0.7905 0.0
H2532 H 0.46014 0.90371 0.7668 0.0
H2533 H 0.47595 0.92971 0.73394 0.0
C2534 C 0.51441 0.00339 0.72399 0.0
C2535 C 0.53575 0.04274 0.72085 0.0
C2536 C 0.50655 0.98805 0.74298 0.0
C2537 C 0.54984 0.06633 0.73713 0.0
C2538 C 0.54137 0.05139 0.75602 0.0
C2539 C 0.50912 0.99706 0.77815 0.0
C2540 C 0.48748 0.95769 0.78124 0.0
C2541 C 0.51923 0.0123 0.75917 0.0
C2542 C 0.47674 0.93396 0.76498 0.0
C2543 C 0.4857 0.9489 0.74612 0.0
H2544 H 0.59355 0.01344 0.22485 0.0
H2545 H 0.56233 0.09273 0.24594 0.0
H2546 H 0.52584 0.04913 0.27231 0.0
H2547 H 0.50384 0.98883 0.2888 0.0
H2548 H 0.53778 0.91112 0.26785 0.0
H2549 H 0.56929 0.95236 0.24036 0.0
C2550 C 0.57922 0.02125 0.23552 0.0
C2551 C 0.58102 0.05607 0.23418 0.0
C2552 C 0.55753 0.99578 0.24979 0.0
C2553 C 0.5619 0.06622 0.2474 0.0
C2554 C 0.54058 0.04112 0.26206 0.0
C2555 C 0.51806 0.9809 0.27817 0.0
C2556 C 0.51982 0.94786 0.28063 0.0
C2557 C 0.53813 0.00577 0.26326 0.0
C2558 C 0.53651 0.93674 0.26633 0.0
C2559 C 0.5551 0.96056 0.25086 0.0
H2560 H 0.02368 0.5206 0.29449 0.0
H2561 H 0.09052 0.63639 0.27595 0.0
H2562 H 0.048 0.62407 0.24876 0.0
H2563 H 0.99011 0.58165 0.2317 0.0
H2564 H 0.92307 0.46601 0.24972 0.0
H2565 H 0.96589 0.47772 0.27712 0.0
C2566 C 0.02883 0.54312 0.28453 0.0
C2567 C 0.0594 0.57947 0.28742 0.0
C2568 C 1.0034 0.53635 0.26962 0.0
C2569 C 0.06697 0.60813 0.27399 0.0
C2570 C 0.04238 0.60134 0.2587 0.0
C2571 C 0.98442 0.55949 0.2421 0.0
C2572 C 0.95331 0.52358 0.23954 0.0
C2573 C 0.00996 0.56597 0.25683 0.0
C2574 C 0.9464 0.49419 0.2522 0.0
C2575 C 0.97121 0.5007 0.26744 0.0
H2576 H 0.51757 0.47452 0.23655 0.0
H2577 H 0.43881 0.3573 0.24786 0.0
H2578 H 0.40238 0.37478 0.26903 0.0
H2579 H 0.38988 0.42312 0.28136 0.0
H2580 H 0.46848 0.54025 0.27025 0.0
H2581 H 0.50619 0.52302 0.24971 0.0
C2582 C 0.49292 0.45294 0.24409 0.0
C2583 C 0.4802 0.41489 0.24049 0.0
C2584 C 0.47069 0.46306 0.25478 0.0
C2585 C 0.44898 0.38687 0.25054 0.0
C2586 C 0.42756 0.39678 0.26209 0.0
C2587 C 0.41438 0.44464 0.27367 0.0
C2588 C 0.42598 0.48265 0.27642 0.0
C2589 C 0.43718 0.43463 0.26343 0.0
C2590 C 0.45859 0.51078 0.26742 0.0
C2591 C 0.48065 0.50098 0.25634 0.0
H2592 H 0.97054 0.11516 0.28697 0.0
H2593 H 0.92246 0.18398 0.27089 0.0
H2594 H 0.96829 0.2127 0.24508 0.0
H2595 H 0.02421 0.22175 0.22758 0.0
H2596 H 0.0711 0.151 0.24056 0.0
H2597 H 0.02452 0.12036 0.26672 0.0
C2598 C 0.96951 0.1358 0.27756 0.0
C2599 C 0.94243 0.1471 0.28126 0.0
C2600 C 0.99657 0.15274 0.26225 0.0
C2601 C 0.94247 0.17439 0.26877 0.0
C2602 C 0.96904 0.19122 0.25391 0.0
C2603 C 0.02456 0.1998 0.2362 0.0
C2604 C 0.05212 0.1896 0.23226 0.0
C2605 C 0.99673 0.18133 0.25072 0.0
C2606 C 0.05087 0.16007 0.24331 0.0
C2607 C 0.02396 0.14236 0.25828 0.0
H2608 H 0.89051 0.85745 0.28949 0.0
H2609 H 0.8348 0.74145 0.27094 0.0
H2610 H 0.80511 0.75581 0.24448 0.0
H2611 H 0.7912 0.79955 0.22706 0.0
H2612 H 0.84894 0.91679 0.24263 0.0
H2613 H 0.88085 0.90383 0.26934 0.0
C2614 C 0.87264 0.83551 0.2794 0.0
C2615 C 0.86527 0.79809 0.28259 0.0
C2616 C 0.85508 0.84402 0.26369 0.0
C2617 C 0.84135 0.77036 0.26923 0.0
C2618 C 0.82396 0.77849 0.25398 0.0
C2619 C 0.81059 0.8224 0.23634 0.0
C2620 C 0.81666 0.85906 0.23294 0.0
C2621 C 0.82985 0.81491 0.25126 0.0
C2622 C 0.84302 0.88821 0.2449 0.0
C2623 C 0.86147 0.88074 0.26022 0.0
H2624 H 0.15488 0.03258 0.27908 0.0
H2625 H 0.27356 0.0809 0.2669 0.0
H2626 H 0.25943 0.03579 0.24113 0.0
H2627 H 0.21461 0.98084 0.22238 0.0
H2628 H 0.0955 0.93326 0.23164 0.0
H2629 H 0.10846 0.97896 0.25779 0.0
C2630 C 0.17761 0.03375 0.27056 0.0
C2631 C 0.21554 0.06074 0.27534 0.0
C2632 C 0.16926 0.00708 0.25524 0.0
C2633 C 0.24421 0.06091 0.26396 0.0
C2634 C 0.23618 0.03477 0.2491 0.0
C2635 C 0.1913 0.98005 0.23019 0.0
C2636 C 0.15401 0.95259 0.22516 0.0
C2637 C 0.19898 0.00728 0.2448 0.0
C2638 C 0.12449 0.95336 0.23523 0.0
C2639 C 0.13198 0.97979 0.25021 0.0
H2640 H 0.92942 0.75821 0.7784 0.0
H2641 H 0.0386 0.82967 0.80416 0.0
H2642 H 0.06612 0.85166 0.77223 0.0
H2643 H 0.05997 0.84761 0.73717 0.0
H2644 H 0.95127 0.77684 0.71104 0.0
H2645 H 0.92236 0.7581 0.74306 0.0
C2646 C 0.9592 0.77858 0.77695 0.0
C2647 C 0.98212 0.79192 0.79343 0.0
C2648 C 0.97477 0.79139 0.75861 0.0
C2649 C 0.0205 0.81887 0.79156 0.0
C2650 C 0.03626 0.83148 0.77337 0.0
C2651 C 0.02988 0.82835 0.73853 0.0
C2652 C 0.0077 0.81337 0.72196 0.0
C2653 C 0.01375 0.81751 0.75683 0.0
C2654 C 0.96874 0.78892 0.72371 0.0
C2655 C 0.95232 0.77792 0.74197 0.0
H2656 H 0.20901 0.18753 0.72319 0.0
H2657 H 0.12929 0.22012 0.74238 0.0
H2658 H 0.13849 0.20763 0.77596 0.0
H2659 H 0.17607 0.19694 0.79958 0.0
H2660 H 0.26063 0.17074 0.78043 0.0
H2661 H 0.24276 0.17148 0.74682 0.0
C2662 C 0.19303 0.19101 0.73471 0.0
C2663 C 0.16901 0.20512 0.73062 0.0
C2664 C 0.19996 0.1858 0.75385 0.0
C2665 C 0.14832 0.20965 0.74547 0.0
C2666 C 0.1537 0.20273 0.76457 0.0
C2667 C 0.19045 0.19117 0.78806 0.0
C2668 C 0.22009 0.18466 0.79231 0.0
C2669 C 0.1807 0.19249 0.76892 0.0
C2670 C 0.23817 0.17662 0.77737 0.0
C2671 C 0.22787 0.17681 0.75821 0.0
H2672 H 0.79142 0.97011 0.79408 0.0
H2673 H 0.8598 0.08882 0.78159 0.0
H2674 H 0.85376 0.07574 0.74695 0.0
H2675 H 0.82392 0.03129 0.72044 0.0
H2676 H 0.75245 0.91291 0.73305 0.0
H2677 H 0.76492 0.92521 0.76751 0.0
C2678 C 0.80546 0.99299 0.78376 0.0
C2679 C 0.82556 0.03026 0.79021 0.0
C2680 C 0.80093 0.98543 0.76395 0.0
C2681 C 0.84372 0.05984 0.77681 0.0
C2682 C 0.84026 0.05244 0.75705 0.0
C2683 C 0.81126 0.00819 0.73073 0.0
C2684 C 0.7869 0.97146 0.72432 0.0
C2685 C 0.81801 0.01546 0.75049 0.0
C2686 C 0.77092 0.94162 0.73772 0.0
C2687 C 0.77809 0.94854 0.7574 0.0
H2688 H 0.6365 0.44977 0.6218 0.0
H2689 H 0.57942 0.509 0.60358 0.0
H2690 H 0.62303 0.53698 0.57678 0.0
H2691 H 0.6796 0.54862 0.55915 0.0
H2692 H 0.73656 0.48824 0.57466 0.0
H2693 H 0.69148 0.45727 0.60145 0.0
C2694 C 0.63301 0.46805 0.6117 0.0
C2695 C 0.604 0.47689 0.61504 0.0
C2696 C 0.65884 0.48461 0.59583 0.0
C2697 C 0.60095 0.50132 0.60172 0.0
C2698 C 0.62621 0.51769 0.58628 0.0
C2699 C 0.68233 0.52865 0.56834 0.0
C2700 C 0.71222 0.52152 0.5649 0.0
C2701 C 0.65571 0.51026 0.58338 0.0
C2702 C 0.71428 0.49473 0.57687 0.0
C2703 C 0.68832 0.47694 0.59226 0.0
H2704 H 0.47055 0.11305 0.61621 0.0
H2705 H 0.58852 0.18754 0.60493 0.0
H2706 H 0.57227 0.21819 0.57891 0.0
H2707 H 0.52323 0.22264 0.55825 0.0
H2708 H 0.40589 0.14894 0.57225 0.0
H2709 H 0.42326 0.12027 0.59798 0.0
C2710 C 0.49297 0.13587 0.60805 0.0
C2711 C 0.53094 0.14712 0.61255 0.0
C2712 C 0.48336 0.1541 0.59344 0.0
C2713 C 0.5591 0.1776 0.60188 0.0
C2714 C 0.5497 0.19532 0.58694 0.0
C2715 C 0.50146 0.20087 0.56716 0.0
C2716 C 0.46289 0.18841 0.56292 0.0
C2717 C 0.51176 0.18385 0.58245 0.0
C2718 C 0.43562 0.15958 0.57478 0.0
C2719 C 0.44554 0.14278 0.58962 0.0
H2720 H 0.81282 0.36244 0.62219 0.0
H2721 H 0.9262 0.42551 0.59973 0.0
H2722 H 0.91028 0.38014 0.57394 0.0
H2723 H 0.86631 0.32056 0.55817 0.0
H2724 H 0.75111 0.25816 0.57733 0.0
H2725 H 0.7654 0.30437 0.60345 0.0
C2726 C 0.83383 0.36677 0.61143 0.0
C2727 C 0.87111 0.39807 0.6134 0.0
C2728 C 0.82434 0.33994 0.59601 0.0
C2729 C 0.8975 0.40222 0.59907 0.0
C2730 C 0.88847 0.37593 0.58417 0.0
C2731 C 0.84418 0.3168 0.56809 0.0
C2732 C 0.80775 0.285 0.56585 0.0
C2733 C 0.85237 0.34424 0.58268 0.0
C2734 C 0.77949 0.28177 0.57865 0.0
C2735 C 0.78777 0.30845 0.59366 0.0
H2736 H 0.73336 0.16713 0.06429 0.0
H2737 H 0.61889 0.10781 0.04314 0.0
H2738 H 0.59523 0.09601 0.07637 0.0
H2739 H 0.60744 0.09921 0.1111 0.0
H2740 H 0.72167 0.16003 0.1324 0.0
H2741 H 0.74539 0.17504 0.09916 0.0
C2742 C 0.70324 0.15171 0.067 0.0
C2743 C 0.6778 0.13776 0.05149 0.0
C2744 C 0.68997 0.14533 0.086 0.0
C2745 C 0.63888 0.11857 0.055 0.0
C2746 C 0.62539 0.11176 0.07392 0.0
C2747 C 0.63752 0.11583 0.10843 0.0
C2748 C 0.66295 0.12803 0.12394 0.0
C2749 C 0.65073 0.12444 0.08947 0.0
C2750 C 0.70175 0.15026 0.12052 0.0
C2751 C 0.71525 0.1587 0.1016 0.0
H2752 H 0.86464 0.546 0.13112 0.0
H2753 H 0.9336 0.49929 0.11332 0.0
H2754 H 0.92125 0.50598 0.07932 0.0
H2755 H 0.89368 0.52835 0.05496 0.0
H2756 H 0.82891 0.57955 0.07303 0.0
H2757 H 0.83666 0.56768 0.1069 0.0
C2758 C 0.87664 0.53696 0.11978 0.0
C2759 C 0.89994 0.52228 0.12452 0.0
C2760 C 0.87034 0.54186 0.10047 0.0
C2761 C 0.91572 0.51093 0.10983 0.0
C2762 C 0.90867 0.5147 0.09048 0.0
C2763 C 0.88106 0.53659 0.06634 0.0
C2764 C 0.86094 0.55481 0.06173 0.0
C2765 C 0.88647 0.53062 0.08567 0.0
C2766 C 0.84484 0.56573 0.07644 0.0
C2767 C 0.84916 0.5589 0.09572 0.0
H2768 H 0.45578 0.30127 0.13309 0.0
H2769 H 0.52229 0.41781 0.11586 0.0
H2770 H 0.51385 0.39935 0.08183 0.0
H2771 H 0.48259 0.3509 0.05739 0.0
H2772 H 0.41159 0.23483 0.0746 0.0
H2773 H 0.42688 0.25236 0.10855 0.0
C2774 C 0.46885 0.3225 0.12186 0.0
C2775 C 0.48926 0.36068 0.12671 0.0
C2776 C 0.46275 0.31185 0.1025 0.0
C2777 C 0.50606 0.38819 0.11223 0.0
C2778 C 0.50126 0.37771 0.09287 0.0
C2779 C 0.47072 0.32941 0.06857 0.0
C2780 C 0.44575 0.29185 0.06371 0.0
C2781 C 0.4788 0.33974 0.08789 0.0
C2782 C 0.43052 0.26411 0.07819 0.0
C2783 C 0.43931 0.27403 0.09751 0.0
H2784 H 0.36009 0.80475 0.887 0.0
H2785 H 0.41506 0.92158 0.90419 0.0
H2786 H 0.37167 0.90576 0.93101 0.0
H2787 H 0.31607 0.86028 0.94915 0.0
H2788 H 0.26214 0.7425 0.93503 0.0
H2789 H 0.30634 0.75701 0.90782 0.0
C2790 C 0.36306 0.82663 0.89682 0.0
C2791 C 0.39131 0.86463 0.89315 0.0
C2792 C 0.3375 0.81726 0.91277 0.0
C2793 C 0.39398 0.89224 0.90624 0.0
C2794 C 0.36887 0.88326 0.92171 0.0
C2795 C 0.31376 0.83765 0.9401 0.0
C2796 C 0.28502 0.80036 0.94401 0.0
C2797 C 0.34008 0.84612 0.92493 0.0
C2798 C 0.28351 0.7715 0.93235 0.0
C2799 C 0.30899 0.77988 0.91676 0.0
H2800 H 0.13798 0.45042 0.95828 0.0
H2801 H 0.25538 0.51165 0.94278 0.0
H2802 H 0.24084 0.54168 0.91572 0.0
H2803 H 0.19298 0.54843 0.89517 0.0
H2804 H 0.07676 0.48903 0.91369 0.0
H2805 H 0.09274 0.46152 0.94052 0.0
C2806 C 0.16058 0.47025 0.94899 0.0
C2807 C 0.19776 0.47786 0.95253 0.0
C2808 C 0.15212 0.48829 0.93382 0.0
C2809 C 0.22646 0.50464 0.94046 0.0
C2810 C 0.21806 0.52196 0.92492 0.0
C2811 C 0.1713 0.53019 0.90531 0.0
C2812 C 0.13333 0.5211 0.90198 0.0
C2813 C 0.18079 0.51393 0.92128 0.0
C2814 C 0.10604 0.49682 0.91546 0.0
C2815 C 0.11512 0.4807 0.93094 0.0
H2816 H 0.53536 0.65046 0.89307 0.0
H2817 H 0.41745 0.60306 0.90584 0.0
H2818 H 0.43338 0.64771 0.93289 0.0
H2819 H 0.48227 0.69993 0.95406 0.0
H2820 H 0.59946 0.74807 0.93838 0.0
H2821 H 0.58231 0.70442 0.91161 0.0
C2822 C 0.51296 0.64963 0.90178 0.0
C2823 C 0.47515 0.62255 0.89747 0.0
C2824 C 0.52233 0.67619 0.91692 0.0
C2825 C 0.44678 0.62306 0.90877 0.0
C2826 C 0.45599 0.64882 0.92429 0.0
C2827 C 0.50399 0.70144 0.94455 0.0
C2828 C 0.54245 0.72788 0.94862 0.0
C2829 C 0.49384 0.67564 0.92865 0.0
C2830 C 0.56979 0.72847 0.93599 0.0
C2831 C 0.56002 0.70319 0.92056 0.0
H2832 H 0.36049 0.49123 0.45894 0.0
H2833 H 0.24559 0.44808 0.44041 0.0
H2834 H 0.26576 0.45909 0.40658 0.0
H2835 H 0.31407 0.47067 0.38281 0.0
H2836 H 0.42775 0.50672 0.40156 0.0
H2837 H 0.40998 0.5085 0.43503 0.0
C2838 C 0.34013 0.4853 0.44747 0.0
C2839 C 0.30181 0.46857 0.4518 0.0
C2840 C 0.35153 0.48941 0.42824 0.0
C2841 C 0.27531 0.46069 0.43709 0.0
C2842 C 0.28675 0.4667 0.41786 0.0
C2843 C 0.335 0.47912 0.39421 0.0
C2844 C 0.37178 0.48761 0.38994 0.0
C2845 C 0.32446 0.47921 0.41332 0.0
C2846 C 0.39892 0.49917 0.40469 0.0
C2847 C 0.38892 0.50048 0.42376 0.0
H2848 H 0.5504 0.85392 0.38924 0.0
H2849 H 0.48563 0.90691 0.40389 0.0
H2850 H 0.48885 0.89438 0.43817 0.0
H2851 H 0.51496 0.87378 0.46393 0.0
H2852 H 0.58481 0.82612 0.44971 0.0
H2853 H 0.5746 0.83088 0.4152 0.0
C2854 C 0.53667 0.86221 0.39999 0.0
C2855 C 0.51815 0.88148 0.39431 0.0
C2856 C 0.53979 0.85615 0.41965 0.0
C2857 C 0.50047 0.8924 0.40816 0.0
C2858 C 0.50224 0.88523 0.42768 0.0
C2859 C 0.52754 0.86403 0.45326 0.0
C2860 C 0.55075 0.84995 0.45917 0.0
C2861 C 0.5226 0.86798 0.4336 0.0
C2862 C 0.56712 0.83749 0.44533 0.0
C2863 C 0.56128 0.84013 0.42566 0.0
H2864 H 0.13415 0.64776 0.46964 0.0
H2865 H 0.14567 0.75577 0.45582 0.0
H2866 H 0.14657 0.74348 0.42134 0.0
H2867 H 0.13981 0.70024 0.39526 0.0
H2868 H 0.12378 0.59066 0.40927 0.0
H2869 H 0.12987 0.60575 0.44373 0.0
C2870 C 0.13692 0.66864 0.45909 0.0
C2871 C 0.1394 0.70234 0.46516 0.0
C2872 C 0.13697 0.66127 0.43942 0.0
C2873 C 0.14323 0.72933 0.4514 0.0
C2874 C 0.14396 0.72246 0.43173 0.0
C2875 C 0.13839 0.68007 0.4059 0.0
C2876 C 0.13133 0.64454 0.40001 0.0
C2877 C 0.14037 0.68833 0.4256 0.0
C2878 C 0.12906 0.6182 0.41372 0.0
C2879 C 0.13236 0.62671 0.43333 0.0
loop_
_geom_bond_atom_site_label_1
_geom_bond_atom_site_label_2
_geom_bond_distance
_geom_bond_site_symmetry_2
_ccdc_geom_bond_type
Zn0 O1 2.055 . S
Zn0 O8 2.046 . S
Zn0 N16 2.036 . S
Zn0 O28 2.053 . S
Zn0 O30 2.066 . S
O1 Zn0 2.055 . S
O1 C4 1.259 . S
C2 O30 1.256 . S
C2 O31 1.244 . S
Zn3 O5 2.046 . S
Zn3 O7 2.055 . S
Zn3 N9 2.036 . S
Zn3 O27 2.066 . S
Zn3 O31 2.053 . S
C4 O1 1.259 . S
C4 O5 1.254 . S
O5 Zn3 2.046 . S
O5 C4 1.254 . S
C6 O27 1.256 . S
C6 O28 1.244 . S
O7 Zn3 2.055 . S
O7 C29 1.259 . S
O8 Zn0 2.046 . S
O8 C29 1.254 . S
N9 Zn3 2.036 . S
N9 C10 1.298 . S
N9 N12 1.398 . S
C10 N9 1.298 . S
C10 N13 1.367 . S
C10 C23 1.481 . S
C11 N12 1.299 . S
C11 N13 1.379 . S
N12 N9 1.398 . S
N12 C11 1.299 . S
N13 C10 1.367 . S
N13 C11 1.379 . S
C14 N16 1.298 . S
C14 N18 1.367 . S
C14 C22 1.481 . S
C15 N17 1.299 . S
C15 N18 1.379 . S
N16 Zn0 2.036 . S
N16 C14 1.298 . S
N16 N17 1.398 . S
N17 C15 1.299 . S
N17 N16 1.398 . S
N18 C14 1.367 . S
N18 C15 1.379 . S
H19 C22 0.980 . S
H20 C22 0.981 . S
H21 C22 0.981 . S
C22 C14 1.481 . S
C22 H19 0.980 . S
C22 H20 0.981 . S
C22 H21 0.981 . S
C23 C10 1.481 . S
C23 H24 0.980 . S
C23 H25 0.981 . S
C23 H26 0.981 . S
H24 C23 0.980 . S
H25 C23 0.981 . S
H26 C23 0.981 . S
O27 Zn3 2.066 . S
O27 C6 1.256 . S
O28 Zn0 2.053 . S
O28 C6 1.244 . S
C29 O7 1.259 . S
C29 O8 1.254 . S
O30 Zn0 2.066 . S
O30 C2 1.256 . S
O31 C2 1.244 . S
O31 Zn3 2.053 . S
Zn32 O33 2.055 . S
Zn32 O40 2.046 . S
Zn32 N48 2.036 . S
Zn32 O60 2.053 . S
Zn32 O62 2.066 . S
O33 Zn32 2.055 . S
O33 C36 1.259 . S
C34 O62 1.256 . S
C34 O63 1.244 . S
Zn35 O37 2.046 . S
Zn35 O39 2.055 . S
Zn35 N41 2.036 . S
Zn35 O59 2.066 . S
Zn35 O63 2.053 . S
C36 O33 1.259 . S
C36 O37 1.254 . S
O37 Zn35 2.046 . S
O37 C36 1.254 . S
C38 O59 1.256 . S
C38 O60 1.244 . S
O39 Zn35 2.055 . S
O39 C61 1.259 . S
O40 Zn32 2.046 . S
O40 C61 1.254 . S
N41 Zn35 2.036 . S
N41 C42 1.298 . S
N41 N44 1.398 . S
C42 N41 1.298 . S
C42 N45 1.367 . S
C42 C55 1.481 . S
C43 N44 1.299 . S
C43 N45 1.379 . S
N44 N41 1.398 . S
N44 C43 1.299 . S
N45 C42 1.367 . S
N45 C43 1.379 . S
C46 N48 1.298 . S
C46 N50 1.367 1_565 S
C46 C54 1.481 . S
C47 N49 1.299 1_545 S
C47 N50 1.379 . S
N48 Zn32 2.036 . S
N48 C46 1.298 . S
N48 N49 1.398 . S
N49 C47 1.299 1_565 S
N49 N48 1.398 . S
N50 C46 1.367 1_545 S
N50 C47 1.379 . S
H51 C54 0.980 . S
H52 C54 0.981 1_545 S
H53 C54 0.981 . S
C54 C46 1.481 . S
C54 H51 0.980 . S
C54 H52 0.981 1_565 S
C54 H53 0.981 . S
C55 C42 1.481 . S
C55 H56 0.980 . S
C55 H57 0.981 . S
C55 H58 0.981 . S
H56 C55 0.980 . S
H57 C55 0.981 . S
H58 C55 0.981 . S
O59 Zn35 2.066 . S
O59 C38 1.256 . S
O60 Zn32 2.053 . S
O60 C38 1.244 . S
C61 O39 1.259 . S
C61 O40 1.254 . S
O62 Zn32 2.066 . S
O62 C34 1.256 . S
O63 C34 1.244 . S
O63 Zn35 2.053 . S
Zn64 O65 2.055 . S
Zn64 O72 2.046 . S
Zn64 N80 2.036 . S
Zn64 O92 2.053 . S
Zn64 O94 2.066 . S
O65 Zn64 2.055 . S
O65 C68 1.259 . S
C66 O94 1.256 . S
C66 O95 1.244 . S
Zn67 O69 2.046 . S
Zn67 O71 2.055 . S
Zn67 N73 2.036 . S
Zn67 O91 2.066 . S
Zn67 O95 2.053 . S
C68 O65 1.259 . S
C68 O69 1.254 . S
O69 Zn67 2.046 . S
O69 C68 1.254 . S
C70 O91 1.256 . S
C70 O92 1.244 . S
O71 Zn67 2.055 . S
O71 C93 1.259 . S
O72 Zn64 2.046 . S
O72 C93 1.254 . S
N73 Zn67 2.036 . S
N73 C74 1.298 . S
N73 N76 1.398 . S
C74 N73 1.298 . S
C74 N77 1.367 . S
C74 C87 1.481 . S
C75 N76 1.299 . S
C75 N77 1.379 . S
N76 N73 1.398 . S
N76 C75 1.299 . S
N77 C74 1.367 . S
N77 C75 1.379 . S
C78 N80 1.298 . S
C78 N82 1.367 1_455 S
C78 C86 1.481 . S
C79 N81 1.299 1_655 S
C79 N82 1.379 . S
N80 Zn64 2.036 . S
N80 C78 1.298 . S
N80 N81 1.398 . S
N81 C79 1.299 1_455 S
N81 N80 1.398 . S
N82 C78 1.367 1_655 S
N82 C79 1.379 . S
H83 C86 0.980 . S
H84 C86 0.981 1_655 S
H85 C86 0.981 . S
C86 C78 1.481 . S
C86 H83 0.980 . S
C86 H84 0.981 1_455 S
C86 H85 0.981 . S
C87 C74 1.481 . S
C87 H88 0.980 . S
C87 H89 0.981 . S
C87 H90 0.981 . S
H88 C87 0.980 . S
H89 C87 0.981 . S
H90 C87 0.981 . S
O91 Zn67 2.066 . S
O91 C70 1.256 . S
O92 Zn64 2.053 . S
O92 C70 1.244 . S
C93 O71 1.259 . S
C93 O72 1.254 . S
O94 Zn64 2.066 . S
O94 C66 1.256 . S
O95 C66 1.244 . S
O95 Zn67 2.053 . S
Zn96 O97 2.055 . S
Zn96 O104 2.046 . S
Zn96 N112 2.036 . S
Zn96 O124 2.053 . S
Zn96 O126 2.066 . S
O97 Zn96 2.055 . S
O97 C100 1.259 . S
C98 O126 1.256 . S
C98 O127 1.244 . S
Zn99 O101 2.046 . S
Zn99 O103 2.055 . S
Zn99 N105 2.036 . S
Zn99 O123 2.066 . S
Zn99 O127 2.053 . S
C100 O97 1.259 . S
C100 O101 1.254 . S
O101 Zn99 2.046 . S
O101 C100 1.254 . S
C102 O123 1.256 . S
C102 O124 1.244 . S
O103 Zn99 2.055 . S
O103 C125 1.259 . S
O104 Zn96 2.046 . S
O104 C125 1.254 . S
N105 Zn99 2.036 . S
N105 C106 1.298 . S
N105 N108 1.398 . S
C106 N105 1.298 . S
C106 N109 1.367 . S
C106 C119 1.481 . S
C107 N108 1.299 . S
C107 N109 1.379 . S
N108 N105 1.398 . S
N108 C107 1.299 . S
N109 C106 1.367 . S
N109 C107 1.379 . S
C110 N112 1.298 . S
C110 N114 1.367 . S
C110 C118 1.481 . S
C111 N113 1.299 . S
C111 N114 1.379 . S
N112 Zn96 2.036 . S
N112 C110 1.298 . S
N112 N113 1.398 . S
N113 C111 1.299 . S
N113 N112 1.398 . S
N114 C110 1.367 . S
N114 C111 1.379 . S
H115 C118 0.980 . S
H116 C118 0.981 . S
H117 C118 0.981 . S
C118 C110 1.481 . S
C118 H115 0.980 . S
C118 H116 0.981 . S
C118 H117 0.981 . S
C119 C106 1.481 . S
C119 H120 0.980 . S
C119 H121 0.981 . S
C119 H122 0.981 . S
H120 C119 0.980 . S
H121 C119 0.981 . S
H122 C119 0.981 . S
O123 Zn99 2.066 . S
O123 C102 1.256 . S
O124 Zn96 2.053 . S
O124 C102 1.244 . S
C125 O103 1.259 . S
C125 O104 1.254 . S
O126 Zn96 2.066 . S
O126 C98 1.256 . S
O127 C98 1.244 . S
O127 Zn99 2.053 . S
Zn128 O129 2.055 . S
Zn128 O136 2.046 . S
Zn128 N144 2.036 . S
Zn128 O156 2.053 . S
Zn128 O158 2.066 . S
O129 Zn128 2.055 . S
O129 C132 1.259 . S
C130 O158 1.256 . S
C130 O159 1.244 . S
Zn131 O133 2.046 . S
Zn131 O135 2.055 . S
Zn131 N137 2.036 . S
Zn131 O155 2.066 . S
Zn131 O159 2.053 . S
C132 O129 1.259 . S
C132 O133 1.254 . S
O133 Zn131 2.046 . S
O133 C132 1.254 . S
C134 O155 1.256 . S
C134 O156 1.244 . S
O135 Zn131 2.055 . S
O135 C157 1.259 . S
O136 Zn128 2.046 . S
O136 C157 1.254 . S
N137 Zn131 2.036 . S
N137 C138 1.298 . S
N137 N140 1.398 . S
C138 N137 1.298 . S
C138 N141 1.367 1_545 S
C138 C151 1.481 . S
C139 N140 1.299 1_565 S
C139 N141 1.379 . S
N140 N137 1.398 . S
N140 C139 1.299 1_545 S
N141 C138 1.367 1_565 S
N141 C139 1.379 . S
C142 N144 1.298 . S
C142 N146 1.367 . S
C142 C150 1.481 . S
C143 N145 1.299 . S
C143 N146 1.379 . S
N144 Zn128 2.036 . S
N144 C142 1.298 . S
N144 N145 1.398 . S
N145 C143 1.299 . S
N145 N144 1.398 . S
N146 C142 1.367 . S
N146 C143 1.379 . S
H147 C150 0.980 . S
H148 C150 0.981 . S
H149 C150 0.981 . S
C150 C142 1.481 . S
C150 H147 0.980 . S
C150 H148 0.981 . S
C150 H149 0.981 . S
C151 C138 1.481 . S
C151 H152 0.980 . S
C151 H153 0.981 1_545 S
C151 H154 0.981 . S
H152 C151 0.980 . S
H153 C151 0.981 1_565 S
H154 C151 0.981 . S
O155 Zn131 2.066 . S
O155 C134 1.256 . S
O156 Zn128 2.053 . S
O156 C134 1.244 . S
C157 O135 1.259 . S
C157 O136 1.254 . S
O158 Zn128 2.066 . S
O158 C130 1.256 . S
O159 C130 1.244 . S
O159 Zn131 2.053 . S
Zn160 O161 2.055 . S
Zn160 O168 2.046 . S
Zn160 N176 2.036 . S
Zn160 O188 2.053 . S
Zn160 O190 2.066 . S
O161 Zn160 2.055 . S
O161 C164 1.259 . S
C162 O190 1.256 . S
C162 O191 1.244 . S
Zn163 O165 2.046 . S
Zn163 O167 2.055 . S
Zn163 N169 2.036 . S
Zn163 O187 2.066 . S
Zn163 O191 2.053 . S
C164 O161 1.259 . S
C164 O165 1.254 . S
O165 Zn163 2.046 . S
O165 C164 1.254 . S
C166 O187 1.256 . S
C166 O188 1.244 . S
O167 Zn163 2.055 . S
O167 C189 1.259 . S
O168 Zn160 2.046 . S
O168 C189 1.254 . S
N169 Zn163 2.036 . S
N169 C170 1.298 . S
N169 N172 1.398 . S
C170 N169 1.298 . S
C170 N173 1.367 1_655 S
C170 C183 1.481 . S
C171 N172 1.299 1_455 S
C171 N173 1.379 . S
N172 N169 1.398 . S
N172 C171 1.299 1_655 S
N173 C170 1.367 1_455 S
N173 C171 1.379 . S
C174 N176 1.298 . S
C174 N178 1.367 . S
C174 C182 1.481 . S
C175 N177 1.299 . S
C175 N178 1.379 . S
N176 Zn160 2.036 . S
N176 C174 1.298 . S
N176 N177 1.398 . S
N177 C175 1.299 . S
N177 N176 1.398 . S
N178 C174 1.367 . S
N178 C175 1.379 . S
H179 C182 0.980 . S
H180 C182 0.981 . S
H181 C182 0.981 . S
C182 C174 1.481 . S
C182 H179 0.980 . S
C182 H180 0.981 . S
C182 H181 0.981 . S
C183 C170 1.481 . S
C183 H184 0.980 . S
C183 H185 0.981 1_655 S
C183 H186 0.981 . S
H184 C183 0.980 . S
H185 C183 0.981 1_455 S
H186 C183 0.981 . S
O187 Zn163 2.066 . S
O187 C166 1.256 . S
O188 Zn160 2.053 . S
O188 C166 1.244 . S
C189 O167 1.259 . S
C189 O168 1.254 . S
O190 Zn160 2.066 . S
O190 C162 1.256 . S
O191 C162 1.244 . S
O191 Zn163 2.053 . S
Zn192 O193 2.055 . S
Zn192 O200 2.046 . S
Zn192 N208 2.036 . S
Zn192 O220 2.053 . S
Zn192 O222 2.066 . S
O193 Zn192 2.055 . S
O193 C196 1.259 . S
C194 O222 1.256 . S
C194 O223 1.244 . S
Zn195 O197 2.046 . S
Zn195 O199 2.055 . S
Zn195 N201 2.036 1_655 S
Zn195 O219 2.066 . S
Zn195 O223 2.053 . S
C196 O193 1.259 . S
C196 O197 1.254 . S
O197 Zn195 2.046 . S
O197 C196 1.254 . S
C198 O219 1.256 . S
C198 O220 1.244 . S
O199 Zn195 2.055 . S
O199 C221 1.259 . S
O200 Zn192 2.046 . S
O200 C221 1.254 . S
N201 Zn195 2.036 1_455 S
N201 C202 1.298 . S
N201 N204 1.398 . S
C202 N201 1.298 . S
C202 N205 1.367 . S
C202 C215 1.481 . S
C203 N204 1.299 . S
C203 N205 1.379 . S
N204 N201 1.398 . S
N204 C203 1.299 . S
N205 C202 1.367 . S
N205 C203 1.379 . S
C206 N208 1.298 . S
C206 N210 1.367 . S
C206 C214 1.481 . S
C207 N209 1.299 . S
C207 N210 1.379 . S
N208 Zn192 2.036 . S
N208 C206 1.298 . S
N208 N209 1.398 . S
N209 C207 1.299 . S
N209 N208 1.398 . S
N210 C206 1.367 . S
N210 C207 1.379 . S
H211 C214 0.980 . S
H212 C214 0.981 . S
H213 C214 0.981 . S
C214 C206 1.481 . S
C214 H211 0.980 . S
C214 H212 0.981 . S
C214 H213 0.981 . S
C215 C202 1.481 . S
C215 H216 0.980 . S
C215 H217 0.981 . S
C215 H218 0.981 . S
H216 C215 0.980 . S
H217 C215 0.981 . S
H218 C215 0.981 . S
O219 Zn195 2.066 . S
O219 C198 1.256 . S
O220 Zn192 2.053 . S
O220 C198 1.244 . S
C221 O199 1.259 . S
C221 O200 1.254 . S
O222 Zn192 2.066 . S
O222 C194 1.256 . S
O223 C194 1.244 . S
O223 Zn195 2.053 . S
Zn224 O225 2.055 . S
Zn224 O232 2.046 . S
Zn224 N240 2.036 . S
Zn224 O252 2.053 . S
Zn224 O254 2.066 . S
O225 Zn224 2.055 . S
O225 C228 1.259 . S
C226 O254 1.256 . S
C226 O255 1.244 . S
Zn227 O229 2.046 . S
Zn227 O231 2.055 . S
Zn227 N233 2.036 . S
Zn227 O251 2.066 . S
Zn227 O255 2.053 . S
C228 O225 1.259 . S
C228 O229 1.254 . S
O229 Zn227 2.046 . S
O229 C228 1.254 . S
C230 O251 1.256 . S
C230 O252 1.244 . S
O231 Zn227 2.055 . S
O231 C253 1.259 . S
O232 Zn224 2.046 . S
O232 C253 1.254 . S
N233 Zn227 2.036 . S
N233 C234 1.298 . S
N233 N236 1.398 . S
C234 N233 1.298 . S
C234 N237 1.367 . S
C234 C247 1.481 . S
C235 N236 1.299 . S
C235 N237 1.379 . S
N236 N233 1.398 . S
N236 C235 1.299 . S
N237 C234 1.367 . S
N237 C235 1.379 . S
C238 N240 1.298 . S
C238 N242 1.367 . S
C238 C246 1.481 . S
C239 N241 1.299 . S
C239 N242 1.379 . S
N240 Zn224 2.036 . S
N240 C238 1.298 . S
N240 N241 1.398 . S
N241 C239 1.299 . S
N241 N240 1.398 . S
N242 C238 1.367 . S
N242 C239 1.379 . S
H243 C246 0.980 . S
H244 C246 0.981 . S
H245 C246 0.981 . S
C246 C238 1.481 . S
C246 H243 0.980 . S
C246 H244 0.981 . S
C246 H245 0.981 . S
C247 C234 1.481 . S
C247 H248 0.980 . S
C247 H249 0.981 . S
C247 H250 0.981 . S
H248 C247 0.980 . S
H249 C247 0.981 . S
H250 C247 0.981 . S
O251 Zn227 2.066 . S
O251 C230 1.256 . S
O252 Zn224 2.053 . S
O252 C230 1.244 . S
C253 O231 1.259 . S
C253 O232 1.254 . S
O254 Zn224 2.066 . S
O254 C226 1.256 . S
O255 C226 1.244 . S
O255 Zn227 2.053 . S
Zn256 O257 2.055 . S
Zn256 O264 2.046 . S
Zn256 N272 2.036 1_545 S
Zn256 O284 2.053 . S
Zn256 O286 2.066 . S
O257 Zn256 2.055 . S
O257 C260 1.259 . S
C258 O286 1.256 . S
C258 O287 1.244 . S
Zn259 O261 2.046 . S
Zn259 O263 2.055 . S
Zn259 N265 2.036 . S
Zn259 O283 2.066 . S
Zn259 O287 2.053 . S
C260 O257 1.259 . S
C260 O261 1.254 . S
O261 Zn259 2.046 . S
O261 C260 1.254 . S
C262 O283 1.256 . S
C262 O284 1.244 . S
O263 Zn259 2.055 . S
O263 C285 1.259 . S
O264 Zn256 2.046 . S
O264 C285 1.254 . S
N265 Zn259 2.036 . S
N265 C266 1.298 . S
N265 N268 1.398 . S
C266 N265 1.298 . S
C266 N269 1.367 . S
C266 C279 1.481 . S
C267 N268 1.299 . S
C267 N269 1.379 . S
N268 N265 1.398 . S
N268 C267 1.299 . S
N269 C266 1.367 . S
N269 C267 1.379 . S
C270 N272 1.298 . S
C270 N274 1.367 . S
C270 C278 1.481 . S
C271 N273 1.299 . S
C271 N274 1.379 . S
N272 Zn256 2.036 1_565 S
N272 C270 1.298 . S
N272 N273 1.398 . S
N273 C271 1.299 . S
N273 N272 1.398 . S
N274 C270 1.367 . S
N274 C271 1.379 . S
H275 C278 0.980 . S
H276 C278 0.981 . S
H277 C278 0.981 . S
C278 C270 1.481 . S
C278 H275 0.980 . S
C278 H276 0.981 . S
C278 H277 0.981 . S
C279 C266 1.481 . S
C279 H280 0.980 . S
C279 H281 0.981 . S
C279 H282 0.981 . S
H280 C279 0.980 . S
H281 C279 0.981 . S
H282 C279 0.981 . S
O283 Zn259 2.066 . S
O283 C262 1.256 . S
O284 Zn256 2.053 . S
O284 C262 1.244 . S
C285 O263 1.259 . S
C285 O264 1.254 . S
O286 Zn256 2.066 . S
O286 C258 1.256 . S
O287 C258 1.244 . S
O287 Zn259 2.053 . S
Zn288 O289 2.055 . S
Zn288 O296 2.046 . S
Zn288 N304 2.036 . S
Zn288 O316 2.053 . S
Zn288 O318 2.066 . S
O289 Zn288 2.055 . S
O289 C292 1.259 . S
C290 O318 1.256 . S
C290 O319 1.244 . S
Zn291 O293 2.046 . S
Zn291 O295 2.055 . S
Zn291 N297 2.036 1_565 S
Zn291 O315 2.066 . S
Zn291 O319 2.053 . S
C292 O289 1.259 . S
C292 O293 1.254 . S
O293 Zn291 2.046 . S
O293 C292 1.254 . S
C294 O315 1.256 . S
C294 O316 1.244 . S
O295 Zn291 2.055 . S
O295 C317 1.259 . S
O296 Zn288 2.046 . S
O296 C317 1.254 . S
N297 Zn291 2.036 1_545 S
N297 C298 1.298 . S
N297 N300 1.398 . S
C298 N297 1.298 . S
C298 N301 1.367 . S
C298 C311 1.481 . S
C299 N300 1.299 . S
C299 N301 1.379 . S
N300 N297 1.398 . S
N300 C299 1.299 . S
N301 C298 1.367 . S
N301 C299 1.379 . S
C302 N304 1.298 . S
C302 N306 1.367 . S
C302 C310 1.481 . S
C303 N305 1.299 . S
C303 N306 1.379 . S
N304 Zn288 2.036 . S
N304 C302 1.298 . S
N304 N305 1.398 . S
N305 C303 1.299 . S
N305 N304 1.398 . S
N306 C302 1.367 . S
N306 C303 1.379 . S
H307 C310 0.980 . S
H308 C310 0.981 . S
H309 C310 0.981 . S
C310 C302 1.481 . S
C310 H307 0.980 . S
C310 H308 0.981 . S
C310 H309 0.981 . S
C311 C298 1.481 . S
C311 H312 0.980 . S
C311 H313 0.981 . S
C311 H314 0.981 . S
H312 C311 0.980 . S
H313 C311 0.981 . S
H314 C311 0.981 . S
O315 Zn291 2.066 . S
O315 C294 1.256 . S
O316 Zn288 2.053 . S
O316 C294 1.244 . S
C317 O295 1.259 . S
C317 O296 1.254 . S
O318 Zn288 2.066 . S
O318 C290 1.256 . S
O319 C290 1.244 . S
O319 Zn291 2.053 . S
Zn320 O321 2.055 . S
Zn320 O328 2.046 . S
Zn320 N336 2.036 . S
Zn320 O348 2.053 . S
Zn320 O350 2.066 . S
O321 Zn320 2.055 . S
O321 C324 1.259 . S
C322 O350 1.256 . S
C322 O351 1.244 . S
Zn323 O325 2.046 . S
Zn323 O327 2.055 . S
Zn323 N329 2.036 1_455 S
Zn323 O347 2.066 . S
Zn323 O351 2.053 . S
C324 O321 1.259 . S
C324 O325 1.254 . S
O325 Zn323 2.046 . S
O325 C324 1.254 . S
C326 O347 1.256 . S
C326 O348 1.244 . S
O327 Zn323 2.055 . S
O327 C349 1.259 . S
O328 Zn320 2.046 . S
O328 C349 1.254 . S
N329 Zn323 2.036 1_655 S
N329 C330 1.298 . S
N329 N332 1.398 . S
C330 N329 1.298 . S
C330 N333 1.367 . S
C330 C343 1.481 . S
C331 N332 1.299 . S
C331 N333 1.379 . S
N332 N329 1.398 . S
N332 C331 1.299 . S
N333 C330 1.367 . S
N333 C331 1.379 . S
C334 N336 1.298 . S
C334 N338 1.367 . S
C334 C342 1.481 . S
C335 N337 1.299 . S
C335 N338 1.379 . S
N336 Zn320 2.036 . S
N336 C334 1.298 . S
N336 N337 1.398 . S
N337 C335 1.299 . S
N337 N336 1.398 . S
N338 C334 1.367 . S
N338 C335 1.379 . S
H339 C342 0.980 . S
H340 C342 0.981 . S
H341 C342 0.981 . S
C342 C334 1.481 . S
C342 H339 0.980 . S
C342 H340 0.981 . S
C342 H341 0.981 . S
C343 C330 1.481 . S
C343 H344 0.980 . S
C343 H345 0.981 . S
C343 H346 0.981 . S
H344 C343 0.980 . S
H345 C343 0.981 . S
H346 C343 0.981 . S
O347 Zn323 2.066 . S
O347 C326 1.256 . S
O348 Zn320 2.053 . S
O348 C326 1.244 . S
C349 O327 1.259 . S
C349 O328 1.254 . S
O350 Zn320 2.066 . S
O350 C322 1.256 . S
O351 C322 1.244 . S
O351 Zn323 2.053 . S
Zn352 O353 2.055 . S
Zn352 O360 2.046 . S
Zn352 N368 2.036 . S
Zn352 O380 2.053 . S
Zn352 O382 2.066 . S
O353 Zn352 2.055 . S
O353 C356 1.259 . S
C354 O382 1.256 . S
C354 O383 1.244 . S
Zn355 O357 2.046 . S
Zn355 O359 2.055 . S
Zn355 N361 2.036 . S
Zn355 O379 2.066 . S
Zn355 O383 2.053 . S
C356 O353 1.259 . S
C356 O357 1.254 . S
O357 Zn355 2.046 . S
O357 C356 1.254 . S
C358 O379 1.256 . S
C358 O380 1.244 . S
O359 Zn355 2.055 . S
O359 C381 1.259 . S
O360 Zn352 2.046 . S
O360 C381 1.254 . S
N361 Zn355 2.036 . S
N361 C362 1.298 . S
N361 N364 1.398 . S
C362 N361 1.298 . S
C362 N365 1.367 . S
C362 C375 1.481 . S
C363 N364 1.299 . S
C363 N365 1.379 . S
N364 N361 1.398 . S
N364 C363 1.299 . S
N365 C362 1.367 . S
N365 C363 1.379 . S
C366 N368 1.298 . S
C366 N370 1.367 . S
C366 C374 1.481 . S
C367 N369 1.299 . S
C367 N370 1.379 . S
N368 Zn352 2.036 . S
N368 C366 1.298 . S
N368 N369 1.398 . S
N369 C367 1.299 . S
N369 N368 1.398 . S
N370 C366 1.367 . S
N370 C367 1.379 . S
H371 C374 0.980 . S
H372 C374 0.981 . S
H373 C374 0.981 . S
C374 C366 1.481 . S
C374 H371 0.980 . S
C374 H372 0.981 . S
C374 H373 0.981 . S
C375 C362 1.481 . S
C375 H376 0.980 . S
C375 H377 0.981 . S
C375 H378 0.981 . S
H376 C375 0.980 . S
H377 C375 0.981 . S
H378 C375 0.981 . S
O379 Zn355 2.066 . S
O379 C358 1.256 . S
O380 Zn352 2.053 . S
O380 C358 1.244 . S
C381 O359 1.259 . S
C381 O360 1.254 . S
O382 Zn352 2.066 . S
O382 C354 1.256 . S
O383 C354 1.244 . S
O383 Zn355 2.053 . S
Zn384 O385 2.055 . S
Zn384 O392 2.046 . S
Zn384 N400 2.036 . S
Zn384 O412 2.053 . S
Zn384 O414 2.066 . S
O385 Zn384 2.055 . S
O385 C388 1.259 . S
C386 O414 1.256 . S
C386 O415 1.244 . S
Zn387 O389 2.046 . S
Zn387 O391 2.055 . S
Zn387 N393 2.036 . S
Zn387 O411 2.066 . S
Zn387 O415 2.053 . S
C388 O385 1.259 . S
C388 O389 1.254 . S
O389 Zn387 2.046 . S
O389 C388 1.254 . S
C390 O411 1.256 . S
C390 O412 1.244 . S
O391 Zn387 2.055 . S
O391 C413 1.259 . S
O392 Zn384 2.046 . S
O392 C413 1.254 . S
N393 Zn387 2.036 . S
N393 C394 1.298 . S
N393 N396 1.398 . S
C394 N393 1.298 . S
C394 N397 1.367 . S
C394 C407 1.481 . S
C395 N396 1.299 . S
C395 N397 1.379 . S
N396 N393 1.398 . S
N396 C395 1.299 . S
N397 C394 1.367 . S
N397 C395 1.379 . S
C398 N400 1.298 . S
C398 N402 1.367 . S
C398 C406 1.481 . S
C399 N401 1.299 . S
C399 N402 1.379 . S
N400 Zn384 2.036 . S
N400 C398 1.298 . S
N400 N401 1.398 . S
N401 C399 1.299 . S
N401 N400 1.398 . S
N402 C398 1.367 . S
N402 C399 1.379 . S
H403 C406 0.980 . S
H404 C406 0.981 . S
H405 C406 0.981 . S
C406 C398 1.481 . S
C406 H403 0.980 . S
C406 H404 0.981 . S
C406 H405 0.981 . S
C407 C394 1.481 . S
C407 H408 0.980 . S
C407 H409 0.981 . S
C407 H410 0.981 . S
H408 C407 0.980 . S
H409 C407 0.981 . S
H410 C407 0.981 . S
O411 Zn387 2.066 . S
O411 C390 1.256 . S
O412 Zn384 2.053 . S
O412 C390 1.244 . S
C413 O391 1.259 . S
C413 O392 1.254 . S
O414 Zn384 2.066 . S
O414 C386 1.256 . S
O415 C386 1.244 . S
O415 Zn387 2.053 . S
Zn416 O417 2.055 . S
Zn416 O424 2.046 . S
Zn416 N432 2.036 . S
Zn416 O444 2.053 . S
Zn416 O446 2.066 . S
O417 Zn416 2.055 . S
O417 C420 1.259 . S
C418 O446 1.256 . S
C418 O447 1.244 . S
Zn419 O421 2.046 . S
Zn419 O423 2.055 . S
Zn419 N425 2.036 . S
Zn419 O443 2.066 . S
Zn419 O447 2.053 . S
C420 O417 1.259 . S
C420 O421 1.254 . S
O421 Zn419 2.046 . S
O421 C420 1.254 . S
C422 O443 1.256 . S
C422 O444 1.244 . S
O423 Zn419 2.055 . S
O423 C445 1.259 . S
O424 Zn416 2.046 . S
O424 C445 1.254 . S
N425 Zn419 2.036 . S
N425 C426 1.298 . S
N425 N428 1.398 . S
C426 N425 1.298 . S
C426 N429 1.367 . S
C426 C439 1.481 . S
C427 N428 1.299 . S
C427 N429 1.379 . S
N428 N425 1.398 . S
N428 C427 1.299 . S
N429 C426 1.367 . S
N429 C427 1.379 . S
C430 N432 1.298 . S
C430 N434 1.367 . S
C430 C438 1.481 . S
C431 N433 1.299 . S
C431 N434 1.379 . S
N432 Zn416 2.036 . S
N432 C430 1.298 . S
N432 N433 1.398 . S
N433 C431 1.299 . S
N433 N432 1.398 . S
N434 C430 1.367 . S
N434 C431 1.379 . S
H435 C438 0.980 . S
H436 C438 0.981 . S
H437 C438 0.981 . S
C438 C430 1.481 . S
C438 H435 0.980 . S
C438 H436 0.981 . S
C438 H437 0.981 . S
C439 C426 1.481 . S
C439 H440 0.980 . S
C439 H441 0.981 . S
C439 H442 0.981 . S
H440 C439 0.980 . S
H441 C439 0.981 . S
H442 C439 0.981 . S
O443 Zn419 2.066 . S
O443 C422 1.256 . S
O444 Zn416 2.053 . S
O444 C422 1.244 . S
C445 O423 1.259 . S
C445 O424 1.254 . S
O446 Zn416 2.066 . S
O446 C418 1.256 . S
O447 C418 1.244 . S
O447 Zn419 2.053 . S
Zn448 O449 2.055 . S
Zn448 O456 2.046 . S
Zn448 N464 2.036 . S
Zn448 O476 2.053 . S
Zn448 O478 2.066 . S
O449 Zn448 2.055 . S
O449 C452 1.259 . S
C450 O478 1.256 . S
C450 O479 1.244 . S
Zn451 O453 2.046 . S
Zn451 O455 2.055 . S
Zn451 N457 2.036 . S
Zn451 O475 2.066 . S
Zn451 O479 2.053 . S
C452 O449 1.259 . S
C452 O453 1.254 . S
O453 Zn451 2.046 . S
O453 C452 1.254 . S
C454 O475 1.256 . S
C454 O476 1.244 . S
O455 Zn451 2.055 . S
O455 C477 1.259 . S
O456 Zn448 2.046 . S
O456 C477 1.254 . S
N457 Zn451 2.036 . S
N457 C458 1.298 . S
N457 N460 1.398 . S
C458 N457 1.298 . S
C458 N461 1.367 . S
C458 C471 1.481 . S
C459 N460 1.299 . S
C459 N461 1.379 . S
N460 N457 1.398 . S
N460 C459 1.299 . S
N461 C458 1.367 . S
N461 C459 1.379 . S
C462 N464 1.298 . S
C462 N466 1.367 . S
C462 C470 1.481 . S
C463 N465 1.299 . S
C463 N466 1.379 . S
N464 Zn448 2.036 . S
N464 C462 1.298 . S
N464 N465 1.398 . S
N465 C463 1.299 . S
N465 N464 1.398 . S
N466 C462 1.367 . S
N466 C463 1.379 . S
H467 C470 0.980 . S
H468 C470 0.981 . S
H469 C470 0.981 . S
C470 C462 1.481 . S
C470 H467 0.980 . S
C470 H468 0.981 . S
C470 H469 0.981 . S
C471 C458 1.481 . S
C471 H472 0.980 . S
C471 H473 0.981 . S
C471 H474 0.981 . S
H472 C471 0.980 . S
H473 C471 0.981 . S
H474 C471 0.981 . S
O475 Zn451 2.066 . S
O475 C454 1.256 . S
O476 Zn448 2.053 . S
O476 C454 1.244 . S
C477 O455 1.259 . S
C477 O456 1.254 . S
O478 Zn448 2.066 . S
O478 C450 1.256 . S
O479 C450 1.244 . S
O479 Zn451 2.053 . S
Zn480 O481 2.055 . S
Zn480 O488 2.046 . S
Zn480 N496 2.036 . S
Zn480 O508 2.053 . S
Zn480 O510 2.066 . S
O481 Zn480 2.055 . S
O481 C484 1.259 . S
C482 O510 1.256 . S
C482 O511 1.244 . S
Zn483 O485 2.046 . S
Zn483 O487 2.055 . S
Zn483 N489 2.036 . S
Zn483 O507 2.066 . S
Zn483 O511 2.053 . S
C484 O481 1.259 . S
C484 O485 1.254 . S
O485 Zn483 2.046 . S
O485 C484 1.254 . S
C486 O507 1.256 . S
C486 O508 1.244 . S
O487 Zn483 2.055 . S
O487 C509 1.259 . S
O488 Zn480 2.046 . S
O488 C509 1.254 . S
N489 Zn483 2.036 . S
N489 C490 1.298 . S
N489 N492 1.398 . S
C490 N489 1.298 . S
C490 N493 1.367 . S
C490 C503 1.481 . S
C491 N492 1.299 . S
C491 N493 1.379 . S
N492 N489 1.398 . S
N492 C491 1.299 . S
N493 C490 1.367 . S
N493 C491 1.379 . S
C494 N496 1.298 1_455 S
C494 N498 1.367 . S
C494 C502 1.481 . S
C495 N497 1.299 . S
C495 N498 1.379 1_655 S
N496 Zn480 2.036 . S
N496 C494 1.298 1_655 S
N496 N497 1.398 . S
N497 C495 1.299 . S
N497 N496 1.398 . S
N498 C494 1.367 . S
N498 C495 1.379 1_455 S
H499 C502 0.980 . S
H500 C502 0.981 . S
H501 C502 0.981 . S
C502 C494 1.481 . S
C502 H499 0.980 . S
C502 H500 0.981 . S
C502 H501 0.981 . S
C503 C490 1.481 . S
C503 H504 0.980 . S
C503 H505 0.981 . S
C503 H506 0.981 . S
H504 C503 0.980 . S
H505 C503 0.981 . S
H506 C503 0.981 . S
O507 Zn483 2.066 . S
O507 C486 1.256 . S
O508 Zn480 2.053 . S
O508 C486 1.244 . S
C509 O487 1.259 . S
C509 O488 1.254 . S
O510 Zn480 2.066 . S
O510 C482 1.256 . S
O511 C482 1.244 . S
O511 Zn483 2.053 . S
Zn512 O513 2.055 . S
Zn512 O520 2.046 . S
Zn512 N528 2.036 . S
Zn512 O540 2.053 . S
Zn512 O542 2.066 . S
O513 Zn512 2.055 . S
O513 C516 1.259 . S
C514 O542 1.256 . S
C514 O543 1.244 . S
Zn515 O517 2.046 . S
Zn515 O519 2.055 . S
Zn515 N521 2.036 . S
Zn515 O539 2.066 . S
Zn515 O543 2.053 . S
C516 O513 1.259 . S
C516 O517 1.254 . S
O517 Zn515 2.046 . S
O517 C516 1.254 . S
C518 O539 1.256 . S
C518 O540 1.244 . S
O519 Zn515 2.055 . S
O519 C541 1.259 . S
O520 Zn512 2.046 . S
O520 C541 1.254 . S
N521 Zn515 2.036 . S
N521 C522 1.298 . S
N521 N524 1.398 . S
C522 N521 1.298 . S
C522 N525 1.367 . S
C522 C535 1.481 . S
C523 N524 1.299 . S
C523 N525 1.379 . S
N524 N521 1.398 . S
N524 C523 1.299 . S
N525 C522 1.367 . S
N525 C523 1.379 . S
C526 N528 1.298 . S
C526 N530 1.367 . S
C526 C534 1.481 . S
C527 N529 1.299 . S
C527 N530 1.379 . S
N528 Zn512 2.036 . S
N528 C526 1.298 . S
N528 N529 1.398 . S
N529 C527 1.299 . S
N529 N528 1.398 . S
N530 C526 1.367 . S
N530 C527 1.379 . S
H531 C534 0.980 . S
H532 C534 0.981 . S
H533 C534 0.981 . S
C534 C526 1.481 . S
C534 H531 0.980 . S
C534 H532 0.981 . S
C534 H533 0.981 . S
C535 C522 1.481 . S
C535 H536 0.980 . S
C535 H537 0.981 . S
C535 H538 0.981 . S
H536 C535 0.980 . S
H537 C535 0.981 . S
H538 C535 0.981 . S
O539 Zn515 2.066 . S
O539 C518 1.256 . S
O540 Zn512 2.053 . S
O540 C518 1.244 . S
C541 O519 1.259 . S
C541 O520 1.254 . S
O542 Zn512 2.066 . S
O542 C514 1.256 . S
O543 C514 1.244 . S
O543 Zn515 2.053 . S
Zn544 O545 2.055 . S
Zn544 O552 2.046 . S
Zn544 N560 2.036 . S
Zn544 O572 2.053 . S
Zn544 O574 2.066 . S
O545 Zn544 2.055 . S
O545 C548 1.259 . S
C546 O574 1.256 . S
C546 O575 1.244 . S
Zn547 O549 2.046 . S
Zn547 O551 2.055 . S
Zn547 N553 2.036 . S
Zn547 O571 2.066 . S
Zn547 O575 2.053 . S
C548 O545 1.259 . S
C548 O549 1.254 . S
O549 Zn547 2.046 . S
O549 C548 1.254 . S
C550 O571 1.256 . S
C550 O572 1.244 . S
O551 Zn547 2.055 . S
O551 C573 1.259 . S
O552 Zn544 2.046 . S
O552 C573 1.254 . S
N553 Zn547 2.036 . S
N553 C554 1.298 . S
N553 N556 1.398 . S
C554 N553 1.298 . S
C554 N557 1.367 . S
C554 C567 1.481 . S
C555 N556 1.299 . S
C555 N557 1.379 . S
N556 N553 1.398 . S
N556 C555 1.299 . S
N557 C554 1.367 . S
N557 C555 1.379 . S
C558 N560 1.298 1_565 S
C558 N562 1.367 . S
C558 C566 1.481 . S
C559 N561 1.299 . S
C559 N562 1.379 1_545 S
N560 Zn544 2.036 . S
N560 C558 1.298 1_545 S
N560 N561 1.398 . S
N561 C559 1.299 . S
N561 N560 1.398 . S
N562 C558 1.367 . S
N562 C559 1.379 1_565 S
H563 C566 0.980 . S
H564 C566 0.981 . S
H565 C566 0.981 . S
C566 C558 1.481 . S
C566 H563 0.980 . S
C566 H564 0.981 . S
C566 H565 0.981 . S
C567 C554 1.481 . S
C567 H568 0.980 . S
C567 H569 0.981 . S
C567 H570 0.981 . S
H568 C567 0.980 . S
H569 C567 0.981 . S
H570 C567 0.981 . S
O571 Zn547 2.066 . S
O571 C550 1.256 . S
O572 Zn544 2.053 . S
O572 C550 1.244 . S
C573 O551 1.259 . S
C573 O552 1.254 . S
O574 Zn544 2.066 . S
O574 C546 1.256 . S
O575 C546 1.244 . S
O575 Zn547 2.053 . S
Zn576 O577 2.055 . S
Zn576 O584 2.046 . S
Zn576 N592 2.036 . S
Zn576 O604 2.053 . S
Zn576 O606 2.066 . S
O577 Zn576 2.055 . S
O577 C580 1.259 . S
C578 O606 1.256 . S
C578 O607 1.244 . S
Zn579 O581 2.046 . S
Zn579 O583 2.055 . S
Zn579 N585 2.036 . S
Zn579 O603 2.066 . S
Zn579 O607 2.053 . S
C580 O577 1.259 . S
C580 O581 1.254 . S
O581 Zn579 2.046 . S
O581 C580 1.254 . S
C582 O603 1.256 . S
C582 O604 1.244 . S
O583 Zn579 2.055 . S
O583 C605 1.259 . S
O584 Zn576 2.046 . S
O584 C605 1.254 . S
N585 Zn579 2.036 . S
N585 C586 1.298 . S
N585 N588 1.398 . S
C586 N585 1.298 . S
C586 N589 1.367 . S
C586 C599 1.481 . S
C587 N588 1.299 . S
C587 N589 1.379 . S
N588 N585 1.398 . S
N588 C587 1.299 . S
N589 C586 1.367 . S
N589 C587 1.379 . S
C590 N592 1.298 1_565 S
C590 N594 1.367 . S
C590 C598 1.481 . S
C591 N593 1.291 1_565 S
C591 N594 1.400 . S
N592 Zn576 2.036 . S
N592 C590 1.298 1_545 S
N592 N593 1.398 . S
N593 C591 1.291 1_545 S
N593 N592 1.398 . S
N594 C590 1.367 . S
N594 C591 1.400 . S
H595 C598 0.980 . S
H596 C598 0.981 . S
H597 C598 0.981 . S
C598 C590 1.481 . S
C598 H595 0.980 . S
C598 H596 0.981 . S
C598 H597 0.981 . S
C599 C586 1.481 . S
C599 H600 0.980 . S
C599 H601 0.981 . S
C599 H602 0.981 . S
H600 C599 0.980 . S
H601 C599 0.981 . S
H602 C599 0.981 . S
O603 Zn579 2.066 . S
O603 C582 1.256 . S
O604 Zn576 2.053 . S
O604 C582 1.244 . S
C605 O583 1.259 . S
C605 O584 1.254 . S
O606 Zn576 2.066 . S
O606 C578 1.256 . S
O607 C578 1.244 . S
O607 Zn579 2.053 . S
Zn608 O609 2.055 . S
Zn608 O616 2.046 . S
Zn608 N624 2.036 . S
Zn608 O636 2.053 . S
Zn608 O638 2.066 . S
O609 Zn608 2.055 . S
O609 C612 1.259 . S
C610 O638 1.256 . S
C610 O639 1.244 . S
Zn611 O613 2.046 . S
Zn611 O615 2.055 . S
Zn611 N617 2.036 . S
Zn611 O635 2.066 . S
Zn611 O639 2.053 . S
C612 O609 1.259 . S
C612 O613 1.254 . S
O613 Zn611 2.046 . S
O613 C612 1.254 . S
C614 O635 1.256 . S
C614 O636 1.244 . S
O615 Zn611 2.055 . S
O615 C637 1.259 . S
O616 Zn608 2.046 . S
O616 C637 1.254 . S
N617 Zn611 2.036 . S
N617 C618 1.298 . S
N617 N620 1.398 . S
C618 N617 1.298 . S
C618 N621 1.367 . S
C618 C631 1.481 . S
C619 N620 1.299 . S
C619 N621 1.379 . S
N620 N617 1.398 . S
N620 C619 1.299 . S
N621 C618 1.367 . S
N621 C619 1.379 . S
C622 N624 1.298 1_455 S
C622 N626 1.367 . S
C622 C630 1.481 . S
C623 N625 1.278 1_455 S
C623 N626 1.388 . S
N624 Zn608 2.036 . S
N624 C622 1.298 1_655 S
N624 N625 1.398 . S
N625 C623 1.278 1_655 S
N625 N624 1.398 . S
N626 C622 1.367 . S
N626 C623 1.388 . S
H627 C630 0.980 . S
H628 C630 0.981 . S
H629 C630 0.981 . S
C630 C622 1.481 . S
C630 H627 0.980 . S
C630 H628 0.981 . S
C630 H629 0.981 . S
C631 C618 1.481 . S
C631 H632 0.980 . S
C631 H633 0.981 . S
C631 H634 0.981 . S
H632 C631 0.980 . S
H633 C631 0.981 . S
H634 C631 0.981 . S
O635 Zn611 2.066 . S
O635 C614 1.256 . S
O636 Zn608 2.053 . S
O636 C614 1.244 . S
C637 O615 1.259 . S
C637 O616 1.254 . S
O638 Zn608 2.066 . S
O638 C610 1.256 . S
O639 C610 1.244 . S
O639 Zn611 2.053 . S
Zn640 O641 2.055 . S
Zn640 O648 2.046 . S
Zn640 N656 2.036 . S
Zn640 O668 2.053 . S
Zn640 O670 2.066 . S
O641 Zn640 2.055 . S
O641 C644 1.259 . S
C642 O670 1.256 . S
C642 O671 1.244 . S
Zn643 O645 2.046 . S
Zn643 O647 2.055 . S
Zn643 N649 2.036 . S
Zn643 O667 2.066 . S
Zn643 O671 2.053 . S
C644 O641 1.259 . S
C644 O645 1.254 . S
O645 Zn643 2.046 . S
O645 C644 1.254 . S
C646 O667 1.256 . S
C646 O668 1.244 . S
O647 Zn643 2.055 . S
O647 C669 1.259 . S
O648 Zn640 2.046 . S
O648 C669 1.254 . S
N649 Zn643 2.036 . S
N649 C650 1.298 . S
N649 N652 1.398 . S
C650 N649 1.298 . S
C650 N653 1.367 . S
C650 C663 1.481 . S
C651 N652 1.299 . S
C651 N653 1.379 . S
N652 N649 1.398 . S
N652 C651 1.299 . S
N653 C650 1.367 . S
N653 C651 1.379 . S
C654 N656 1.298 . S
C654 N658 1.367 . S
C654 C662 1.481 . S
C655 N657 1.299 . S
C655 N658 1.379 . S
N656 Zn640 2.036 . S
N656 C654 1.298 . S
N656 N657 1.398 . S
N657 C655 1.299 . S
N657 N656 1.398 . S
N658 C654 1.367 . S
N658 C655 1.379 . S
H659 C662 0.980 . S
H660 C662 0.981 . S
H661 C662 0.981 . S
C662 C654 1.481 . S
C662 H659 0.980 . S
C662 H660 0.981 . S
C662 H661 0.981 . S
C663 C650 1.481 . S
C663 H664 0.980 . S
C663 H665 0.981 . S
C663 H666 0.981 . S
H664 C663 0.980 . S
H665 C663 0.981 . S
H666 C663 0.981 . S
O667 Zn643 2.066 . S
O667 C646 1.256 . S
O668 Zn640 2.053 . S
O668 C646 1.244 . S
C669 O647 1.259 . S
C669 O648 1.254 . S
O670 Zn640 2.066 . S
O670 C642 1.256 . S
O671 C642 1.244 . S
O671 Zn643 2.053 . S
Zn672 O673 2.055 1_556 S
Zn672 O680 2.046 . S
Zn672 N688 2.036 . S
Zn672 O700 2.053 . S
Zn672 O702 2.066 . S
O673 Zn672 2.055 1_554 S
O673 C676 1.259 . S
C674 O702 1.246 1_554 S
C674 O703 1.253 . S
Zn675 O677 2.046 . S
Zn675 O679 2.055 . S
Zn675 N681 2.036 . S
Zn675 O699 2.066 1_554 S
Zn675 O703 2.053 . S
C676 O673 1.259 . S
C676 O677 1.254 . S
O677 Zn675 2.046 . S
O677 C676 1.254 . S
C678 O699 1.256 . S
C678 O700 1.244 . S
O679 Zn675 2.055 . S
O679 C701 1.273 . S
O680 Zn672 2.046 . S
O680 C701 1.252 1_556 S
N681 Zn675 2.036 . S
N681 C682 1.298 . S
N681 N684 1.398 . S
C682 N681 1.298 . S
C682 N685 1.367 . S
C682 C695 1.476 1_554 S
C683 N684 1.299 . S
C683 N685 1.379 . S
N684 N681 1.398 . S
N684 C683 1.299 . S
N685 C682 1.367 . S
N685 C683 1.379 . S
C686 N688 1.298 . S
C686 N690 1.367 . S
C686 C694 1.481 1_556 S
C687 N689 1.299 . S
C687 N690 1.379 . S
N688 Zn672 2.036 . S
N688 C686 1.298 . S
N688 N689 1.398 . S
N689 C687 1.299 . S
N689 N688 1.398 . S
N690 C686 1.367 . S
N690 C687 1.379 . S
H691 C694 0.980 . S
H692 C694 0.981 . S
H693 C694 0.981 . S
C694 C686 1.481 1_554 S
C694 H691 0.980 . S
C694 H692 0.981 . S
C694 H693 0.981 . S
C695 C682 1.476 1_556 S
C695 H696 0.977 1_556 S
C695 H697 0.975 1_556 S
C695 H698 0.995 . S
H696 C695 0.977 1_554 S
H697 C695 0.975 1_554 S
H698 C695 0.995 . S
O699 Zn675 2.066 1_556 S
O699 C678 1.256 . S
O700 Zn672 2.053 . S
O700 C678 1.244 . S
C701 O679 1.273 . S
C701 O680 1.252 1_554 S
O702 Zn672 2.066 . S
O702 C674 1.246 1_556 S
O703 C674 1.253 . S
O703 Zn675 2.053 . S
Zn704 O705 2.055 . S
Zn704 O712 2.046 . S
Zn704 N720 2.036 . S
Zn704 O732 2.053 . S
Zn704 O734 2.066 1_554 S
O705 Zn704 2.055 . S
O705 C708 1.273 . S
C706 O734 1.256 . S
C706 O735 1.244 . S
Zn707 O709 2.046 . S
Zn707 O711 2.055 1_556 S
Zn707 N713 2.036 . S
Zn707 O731 2.066 . S
Zn707 O735 2.053 . S
C708 O705 1.273 . S
C708 O709 1.252 1_554 S
O709 Zn707 2.046 . S
O709 C708 1.252 1_556 S
C710 O731 1.246 1_554 S
C710 O732 1.253 . S
O711 Zn707 2.055 1_554 S
O711 C733 1.259 . S
O712 Zn704 2.046 . S
O712 C733 1.254 . S
N713 Zn707 2.036 . S
N713 C714 1.298 . S
N713 N716 1.398 . S
C714 N713 1.298 . S
C714 N717 1.367 . S
C714 C727 1.481 1_556 S
C715 N716 1.299 . S
C715 N717 1.379 . S
N716 N713 1.398 . S
N716 C715 1.299 . S
N717 C714 1.367 . S
N717 C715 1.379 . S
C718 N720 1.298 . S
C718 N722 1.367 . S
C718 C726 1.476 1_554 S
C719 N721 1.299 . S
C719 N722 1.379 . S
N720 Zn704 2.036 . S
N720 C718 1.298 . S
N720 N721 1.398 . S
N721 C719 1.299 . S
N721 N720 1.398 . S
N722 C718 1.367 . S
N722 C719 1.379 . S
H723 C726 0.977 1_554 S
H724 C726 0.975 1_554 S
H725 C726 0.995 . S
C726 C718 1.476 1_556 S
C726 H723 0.977 1_556 S
C726 H724 0.975 1_556 S
C726 H725 0.995 . S
C727 C714 1.481 1_554 S
C727 H728 0.980 . S
C727 H729 0.981 . S
C727 H730 0.981 . S
H728 C727 0.980 . S
H729 C727 0.981 . S
H730 C727 0.981 . S
O731 Zn707 2.066 . S
O731 C710 1.246 1_556 S
O732 Zn704 2.053 . S
O732 C710 1.253 . S
C733 O711 1.259 . S
C733 O712 1.254 . S
O734 Zn704 2.066 1_556 S
O734 C706 1.256 . S
O735 C706 1.244 . S
O735 Zn707 2.053 . S
Zn736 O737 2.055 1_556 S
Zn736 O744 2.046 . S
Zn736 N752 2.036 . S
Zn736 O764 2.053 . S
Zn736 O766 2.066 . S
O737 Zn736 2.055 1_554 S
O737 C740 1.259 . S
C738 O766 1.246 1_554 S
C738 O767 1.253 . S
Zn739 O741 2.046 . S
Zn739 O743 2.055 . S
Zn739 N745 2.036 . S
Zn739 O763 2.066 1_554 S
Zn739 O767 2.053 . S
C740 O737 1.259 . S
C740 O741 1.254 . S
O741 Zn739 2.046 . S
O741 C740 1.254 . S
C742 O763 1.256 . S
C742 O764 1.244 . S
O743 Zn739 2.055 . S
O743 C765 1.273 . S
O744 Zn736 2.046 . S
O744 C765 1.252 1_556 S
N745 Zn739 2.036 . S
N745 C746 1.298 . S
N745 N748 1.398 . S
C746 N745 1.298 . S
C746 N749 1.367 . S
C746 C759 1.476 1_554 S
C747 N748 1.299 . S
C747 N749 1.379 . S
N748 N745 1.398 . S
N748 C747 1.299 . S
N749 C746 1.367 . S
N749 C747 1.379 . S
C750 N752 1.298 . S
C750 N754 1.367 . S
C750 C758 1.481 1_556 S
C751 N753 1.299 . S
C751 N754 1.379 . S
N752 Zn736 2.036 . S
N752 C750 1.298 . S
N752 N753 1.398 . S
N753 C751 1.299 . S
N753 N752 1.398 . S
N754 C750 1.367 . S
N754 C751 1.379 . S
H755 C758 0.980 . S
H756 C758 0.981 . S
H757 C758 0.981 . S
C758 C750 1.481 1_554 S
C758 H755 0.980 . S
C758 H756 0.981 . S
C758 H757 0.981 . S
C759 C746 1.476 1_556 S
C759 H760 0.977 1_556 S
C759 H761 0.975 1_556 S
C759 H762 0.994 . S
H760 C759 0.977 1_554 S
H761 C759 0.975 1_554 S
H762 C759 0.994 . S
O763 Zn739 2.066 1_556 S
O763 C742 1.256 . S
O764 Zn736 2.053 . S
O764 C742 1.244 . S
C765 O743 1.273 . S
C765 O744 1.252 1_554 S
O766 Zn736 2.066 . S
O766 C738 1.246 1_556 S
O767 C738 1.253 . S
O767 Zn739 2.053 . S
Zn768 O769 2.055 . S
Zn768 O776 2.046 . S
Zn768 N784 2.036 . S
Zn768 O796 2.053 . S
Zn768 O798 2.066 . S
O769 Zn768 2.055 . S
O769 C772 1.259 . S
C770 O798 1.256 . S
C770 O799 1.244 . S
Zn771 O773 2.046 . S
Zn771 O775 2.055 . S
Zn771 N777 2.036 . S
Zn771 O795 2.066 . S
Zn771 O799 2.053 . S
C772 O769 1.259 . S
C772 O773 1.254 . S
O773 Zn771 2.046 . S
O773 C772 1.254 . S
C774 O795 1.256 . S
C774 O796 1.244 . S
O775 Zn771 2.055 . S
O775 C797 1.259 . S
O776 Zn768 2.046 . S
O776 C797 1.254 . S
N777 Zn771 2.036 . S
N777 C778 1.298 1_565 S
N777 N780 1.398 . S
C778 N777 1.298 1_545 S
C778 N781 1.367 . S
C778 C791 1.481 . S
C779 N780 1.299 . S
C779 N781 1.379 1_565 S
N780 N777 1.398 . S
N780 C779 1.299 . S
N781 C778 1.367 . S
N781 C779 1.379 1_545 S
C782 N784 1.298 . S
C782 N786 1.367 . S
C782 C790 1.481 . S
C783 N785 1.299 . S
C783 N786 1.379 . S
N784 Zn768 2.036 . S
N784 C782 1.298 . S
N784 N785 1.398 . S
N785 C783 1.299 . S
N785 N784 1.398 . S
N786 C782 1.367 . S
N786 C783 1.379 . S
H787 C790 0.980 . S
H788 C790 0.981 . S
H789 C790 0.981 . S
C790 C782 1.481 . S
C790 H787 0.980 . S
C790 H788 0.981 . S
C790 H789 0.981 . S
C791 C778 1.481 . S
C791 H792 0.980 . S
C791 H793 0.981 . S
C791 H794 0.981 . S
H792 C791 0.980 . S
H793 C791 0.981 . S
H794 C791 0.981 . S
O795 Zn771 2.066 . S
O795 C774 1.256 . S
O796 Zn768 2.053 . S
O796 C774 1.244 . S
C797 O775 1.259 . S
C797 O776 1.254 . S
O798 Zn768 2.066 . S
O798 C770 1.256 . S
O799 C770 1.244 . S
O799 Zn771 2.053 . S
Zn800 O801 2.055 . S
Zn800 O808 2.046 . S
Zn800 N816 2.036 . S
Zn800 O828 2.053 . S
Zn800 O830 2.066 . S
O801 Zn800 2.055 . S
O801 C804 1.259 . S
C802 O830 1.256 . S
C802 O831 1.244 . S
Zn803 O805 2.046 . S
Zn803 O807 2.055 . S
Zn803 N809 2.036 . S
Zn803 O827 2.066 . S
Zn803 O831 2.053 . S
C804 O801 1.259 . S
C804 O805 1.254 . S
O805 Zn803 2.046 . S
O805 C804 1.254 . S
C806 O827 1.256 . S
C806 O828 1.244 . S
O807 Zn803 2.055 . S
O807 C829 1.259 . S
O808 Zn800 2.046 . S
O808 C829 1.254 . S
N809 Zn803 2.036 . S
N809 C810 1.298 1_455 S
N809 N812 1.398 . S
C810 N809 1.298 1_655 S
C810 N813 1.367 . S
C810 C823 1.481 . S
C811 N812 1.299 . S
C811 N813 1.379 1_455 S
N812 N809 1.398 . S
N812 C811 1.299 . S
N813 C810 1.367 . S
N813 C811 1.379 1_655 S
C814 N816 1.298 . S
C814 N818 1.367 . S
C814 C822 1.481 . S
C815 N817 1.299 . S
C815 N818 1.379 . S
N816 Zn800 2.036 . S
N816 C814 1.298 . S
N816 N817 1.398 . S
N817 C815 1.299 . S
N817 N816 1.398 . S
N818 C814 1.367 . S
N818 C815 1.379 . S
H819 C822 0.980 . S
H820 C822 0.981 . S
H821 C822 0.981 . S
C822 C814 1.481 . S
C822 H819 0.980 . S
C822 H820 0.981 . S
C822 H821 0.981 . S
C823 C810 1.481 . S
C823 H824 0.980 . S
C823 H825 0.981 . S
C823 H826 0.981 . S
H824 C823 0.980 . S
H825 C823 0.981 . S
H826 C823 0.981 . S
O827 Zn803 2.066 . S
O827 C806 1.256 . S
O828 Zn800 2.053 . S
O828 C806 1.244 . S
C829 O807 1.259 . S
C829 O808 1.254 . S
O830 Zn800 2.066 . S
O830 C802 1.256 . S
O831 C802 1.244 . S
O831 Zn803 2.053 . S
Zn832 O833 2.055 . S
Zn832 O840 2.046 . S
Zn832 N848 2.036 . S
Zn832 O860 2.053 . S
Zn832 O862 2.066 . S
O833 Zn832 2.055 . S
O833 C836 1.259 . S
C834 O862 1.256 . S
C834 O863 1.244 . S
Zn835 O837 2.046 . S
Zn835 O839 2.055 . S
Zn835 N841 2.036 . S
Zn835 O859 2.066 . S
Zn835 O863 2.053 . S
C836 O833 1.259 . S
C836 O837 1.254 . S
O837 Zn835 2.046 . S
O837 C836 1.254 . S
C838 O859 1.256 . S
C838 O860 1.244 . S
O839 Zn835 2.055 . S
O839 C861 1.259 . S
O840 Zn832 2.046 . S
O840 C861 1.254 . S
N841 Zn835 2.036 . S
N841 C842 1.298 . S
N841 N844 1.398 . S
C842 N841 1.298 . S
C842 N845 1.367 . S
C842 C855 1.481 . S
C843 N844 1.299 . S
C843 N845 1.379 . S
N844 N841 1.398 . S
N844 C843 1.299 . S
N845 C842 1.367 . S
N845 C843 1.379 . S
C846 N848 1.298 . S
C846 N850 1.367 . S
C846 C854 1.481 . S
C847 N849 1.299 . S
C847 N850 1.379 . S
N848 Zn832 2.036 . S
N848 C846 1.298 . S
N848 N849 1.398 . S
N849 C847 1.299 . S
N849 N848 1.398 . S
N850 C846 1.367 . S
N850 C847 1.379 . S
H851 C854 0.980 . S
H852 C854 0.981 . S
H853 C854 0.981 . S
C854 C846 1.481 . S
C854 H851 0.980 . S
C854 H852 0.981 . S
C854 H853 0.981 . S
C855 C842 1.481 . S
C855 H856 0.980 . S
C855 H857 0.981 . S
C855 H858 0.981 . S
H856 C855 0.980 . S
H857 C855 0.981 . S
H858 C855 0.981 . S
O859 Zn835 2.066 . S
O859 C838 1.256 . S
O860 Zn832 2.053 . S
O860 C838 1.244 . S
C861 O839 1.259 . S
C861 O840 1.254 . S
O862 Zn832 2.066 . S
O862 C834 1.256 . S
O863 C834 1.244 . S
O863 Zn835 2.053 . S
Zn864 O865 2.055 . S
Zn864 O872 2.046 . S
Zn864 N880 2.036 . S
Zn864 O892 2.053 1_556 S
Zn864 O894 2.066 1_556 S
O865 Zn864 2.055 . S
O865 C868 1.259 . S
C866 O894 1.256 . S
C866 O895 1.244 . S
Zn867 O869 2.046 1_554 S
Zn867 O871 2.055 1_554 S
Zn867 N873 2.036 . S
Zn867 O891 2.066 . S
Zn867 O895 2.053 . S
C868 O865 1.259 . S
C868 O869 1.254 . S
O869 Zn867 2.046 1_556 S
O869 C868 1.254 . S
C870 O891 1.256 . S
C870 O892 1.244 . S
O871 Zn867 2.055 1_556 S
O871 C893 1.259 . S
O872 Zn864 2.046 . S
O872 C893 1.254 . S
N873 Zn867 2.036 . S
N873 C874 1.283 1_554 S
N873 N876 1.398 . S
C874 N873 1.283 1_556 S
C874 N877 1.347 1_556 S
C874 C887 1.512 . S
C875 N876 1.299 . S
C875 N877 1.379 . S
N876 N873 1.398 . S
N876 C875 1.299 . S
N877 C874 1.347 1_554 S
N877 C875 1.379 . S
C878 N880 1.298 1_554 S
C878 N882 1.367 . S
C878 C886 1.481 . S
C879 N881 1.299 1_554 S
C879 N882 1.379 . S
N880 Zn864 2.036 . S
N880 C878 1.298 1_556 S
N880 N881 1.398 . S
N881 C879 1.299 1_556 S
N881 N880 1.398 . S
N882 C878 1.367 . S
N882 C879 1.379 . S
H883 C886 0.977 . S
H884 C886 0.983 . S
H885 C886 0.981 . S
C886 C878 1.481 . S
C886 H883 0.977 . S
C886 H884 0.983 . S
C886 H885 0.981 . S
C887 C874 1.512 . S
C887 H888 0.980 . S
C887 H889 0.981 . S
C887 H890 0.981 . S
H888 C887 0.980 . S
H889 C887 0.981 . S
H890 C887 0.981 . S
O891 Zn867 2.066 . S
O891 C870 1.256 . S
O892 Zn864 2.053 1_554 S
O892 C870 1.244 . S
C893 O871 1.259 . S
C893 O872 1.254 . S
O894 Zn864 2.066 1_554 S
O894 C866 1.256 . S
O895 C866 1.244 . S
O895 Zn867 2.053 . S
Zn896 O897 2.055 . S
Zn896 O904 2.046 . S
Zn896 N912 2.036 . S
Zn896 O924 2.053 1_556 S
Zn896 O926 2.066 1_556 S
O897 Zn896 2.055 . S
O897 C900 1.259 . S
C898 O926 1.256 . S
C898 O927 1.244 . S
Zn899 O901 2.046 1_554 S
Zn899 O903 2.055 1_554 S
Zn899 N905 2.036 . S
Zn899 O923 2.066 . S
Zn899 O927 2.053 . S
C900 O897 1.259 . S
C900 O901 1.254 . S
O901 Zn899 2.046 1_556 S
O901 C900 1.254 . S
C902 O923 1.256 . S
C902 O924 1.244 . S
O903 Zn899 2.055 1_556 S
O903 C925 1.259 . S
O904 Zn896 2.046 . S
O904 C925 1.254 . S
N905 Zn899 2.036 . S
N905 C906 1.283 1_554 S
N905 N908 1.398 . S
C906 N905 1.283 1_556 S
C906 N909 1.346 1_556 S
C906 C919 1.513 . S
C907 N908 1.299 . S
C907 N909 1.379 . S
N908 N905 1.398 . S
N908 C907 1.299 . S
N909 C906 1.346 1_554 S
N909 C907 1.379 . S
C910 N912 1.298 1_554 S
C910 N914 1.367 . S
C910 C918 1.481 . S
C911 N913 1.299 1_554 S
C911 N914 1.379 . S
N912 Zn896 2.036 . S
N912 C910 1.298 1_556 S
N912 N913 1.398 . S
N913 C911 1.299 1_556 S
N913 N912 1.398 . S
N914 C910 1.367 . S
N914 C911 1.379 . S
H915 C918 0.977 . S
H916 C918 0.983 . S
H917 C918 0.981 . S
C918 C910 1.481 . S
C918 H915 0.977 . S
C918 H916 0.983 . S
C918 H917 0.981 . S
C919 C906 1.513 . S
C919 H920 0.980 . S
C919 H921 0.981 . S
C919 H922 0.981 . S
H920 C919 0.980 . S
H921 C919 0.981 . S
H922 C919 0.981 . S
O923 Zn899 2.066 . S
O923 C902 1.256 . S
O924 Zn896 2.053 1_554 S
O924 C902 1.244 . S
C925 O903 1.259 . S
C925 O904 1.254 . S
O926 Zn896 2.066 1_554 S
O926 C898 1.256 . S
O927 C898 1.244 . S
O927 Zn899 2.053 . S
Zn928 O929 2.055 . S
Zn928 O936 2.046 . S
Zn928 N944 2.036 . S
Zn928 O956 2.053 1_556 S
Zn928 O958 2.066 1_556 S
O929 Zn928 2.055 . S
O929 C932 1.259 . S
C930 O958 1.256 . S
C930 O959 1.244 . S
Zn931 O933 2.046 1_554 S
Zn931 O935 2.055 1_554 S
Zn931 N937 2.036 . S
Zn931 O955 2.066 . S
Zn931 O959 2.053 . S
C932 O929 1.259 . S
C932 O933 1.254 . S
O933 Zn931 2.046 1_556 S
O933 C932 1.254 . S
C934 O955 1.256 . S
C934 O956 1.244 . S
O935 Zn931 2.055 1_556 S
O935 C957 1.259 . S
O936 Zn928 2.046 . S
O936 C957 1.254 . S
N937 Zn931 2.036 . S
N937 C938 1.283 1_554 S
N937 N940 1.398 . S
C938 N937 1.283 1_556 S
C938 N941 1.347 1_556 S
C938 C951 1.512 . S
C939 N940 1.299 . S
C939 N941 1.379 . S
N940 N937 1.398 . S
N940 C939 1.299 . S
N941 C938 1.347 1_554 S
N941 C939 1.379 . S
C942 N944 1.298 1_554 S
C942 N946 1.367 . S
C942 C950 1.481 . S
C943 N945 1.299 1_554 S
C943 N946 1.379 . S
N944 Zn928 2.036 . S
N944 C942 1.298 1_556 S
N944 N945 1.398 . S
N945 C943 1.299 1_556 S
N945 N944 1.398 . S
N946 C942 1.367 . S
N946 C943 1.379 . S
H947 C950 0.977 . S
H948 C950 0.983 . S
H949 C950 0.981 . S
C950 C942 1.481 . S
C950 H947 0.977 . S
C950 H948 0.983 . S
C950 H949 0.981 . S
C951 C938 1.512 . S
C951 H952 0.980 . S
C951 H953 0.981 . S
C951 H954 0.981 . S
H952 C951 0.980 . S
H953 C951 0.981 . S
H954 C951 0.981 . S
O955 Zn931 2.066 . S
O955 C934 1.256 . S
O956 Zn928 2.053 1_554 S
O956 C934 1.244 . S
C957 O935 1.259 . S
C957 O936 1.254 . S
O958 Zn928 2.066 1_554 S
O958 C930 1.256 . S
O959 C930 1.244 . S
O959 Zn931 2.053 . S
Zn960 O961 2.055 . S
Zn960 O968 2.046 . S
Zn960 N976 2.036 . S
Zn960 O988 2.053 . S
Zn960 O990 2.066 . S
O961 Zn960 2.055 . S
O961 C964 1.259 . S
C962 O990 1.256 . S
C962 O991 1.244 . S
Zn963 O965 2.046 . S
Zn963 O967 2.055 . S
Zn963 N969 2.036 . S
Zn963 O987 2.066 . S
Zn963 O991 2.053 . S
C964 O961 1.259 . S
C964 O965 1.254 . S
O965 Zn963 2.046 . S
O965 C964 1.254 . S
C966 O987 1.256 . S
C966 O988 1.244 . S
O967 Zn963 2.055 . S
O967 C989 1.259 . S
O968 Zn960 2.046 . S
O968 C989 1.254 . S
N969 Zn963 2.036 . S
N969 C970 1.298 . S
N969 N972 1.398 . S
C970 N969 1.298 . S
C970 N973 1.367 . S
C970 C983 1.481 . S
C971 N972 1.299 . S
C971 N973 1.379 . S
N972 N969 1.398 . S
N972 C971 1.299 . S
N973 C970 1.367 . S
N973 C971 1.379 . S
C974 N976 1.298 . S
C974 N978 1.367 . S
C974 C982 1.481 . S
C975 N977 1.299 . S
C975 N978 1.379 . S
N976 Zn960 2.036 . S
N976 C974 1.298 . S
N976 N977 1.398 . S
N977 C975 1.299 . S
N977 N976 1.398 . S
N978 C974 1.367 . S
N978 C975 1.379 . S
H979 C982 0.980 . S
H980 C982 0.981 . S
H981 C982 0.981 . S
C982 C974 1.481 . S
C982 H979 0.980 . S
C982 H980 0.981 . S
C982 H981 0.981 . S
C983 C970 1.481 . S
C983 H984 0.980 . S
C983 H985 0.981 . S
C983 H986 0.981 . S
H984 C983 0.980 . S
H985 C983 0.981 . S
H986 C983 0.981 . S
O987 Zn963 2.066 . S
O987 C966 1.256 . S
O988 Zn960 2.053 . S
O988 C966 1.244 . S
C989 O967 1.259 . S
C989 O968 1.254 . S
O990 Zn960 2.066 . S
O990 C962 1.256 . S
O991 C962 1.244 . S
O991 Zn963 2.053 . S
Zn992 O993 2.055 . S
Zn992 O1000 2.046 . S
Zn992 N1008 2.036 . S
Zn992 O1020 2.053 . S
Zn992 O1022 2.066 . S
O993 Zn992 2.055 . S
O993 C996 1.259 . S
C994 O1022 1.256 . S
C994 O1023 1.244 . S
Zn995 O997 2.046 . S
Zn995 O999 2.055 . S
Zn995 N1001 2.036 . S
Zn995 O1019 2.066 . S
Zn995 O1023 2.053 . S
C996 O993 1.259 . S
C996 O997 1.254 . S
O997 Zn995 2.046 . S
O997 C996 1.254 . S
C998 O1019 1.256 . S
C998 O1020 1.244 . S
O999 Zn995 2.055 . S
O999 C1021 1.259 . S
O1000 Zn992 2.046 . S
O1000 C1021 1.254 . S
N1001 Zn995 2.036 . S
N1001 C1002 1.298 . S
N1001 N1004 1.398 . S
C1002 N1001 1.298 . S
C1002 N1005 1.367 . S
C1002 C1015 1.481 . S
C1003 N1004 1.299 . S
C1003 N1005 1.379 . S
N1004 N1001 1.398 . S
N1004 C1003 1.299 . S
N1005 C1002 1.367 . S
N1005 C1003 1.379 . S
C1006 N1008 1.298 . S
C1006 N1010 1.367 . S
C1006 C1014 1.481 . S
C1007 N1009 1.299 . S
C1007 N1010 1.379 . S
N1008 Zn992 2.036 . S
N1008 C1006 1.298 . S
N1008 N1009 1.398 . S
N1009 C1007 1.299 . S
N1009 N1008 1.398 . S
N1010 C1006 1.367 . S
N1010 C1007 1.379 . S
H1011 C1014 0.980 . S
H1012 C1014 0.981 . S
H1013 C1014 0.981 . S
C1014 C1006 1.481 . S
C1014 H1011 0.980 . S
C1014 H1012 0.981 . S
C1014 H1013 0.981 . S
C1015 C1002 1.481 . S
C1015 H1016 0.980 . S
C1015 H1017 0.981 . S
C1015 H1018 0.981 . S
H1016 C1015 0.980 . S
H1017 C1015 0.981 . S
H1018 C1015 0.981 . S
O1019 Zn995 2.066 . S
O1019 C998 1.256 . S
O1020 Zn992 2.053 . S
O1020 C998 1.244 . S
C1021 O999 1.259 . S
C1021 O1000 1.254 . S
O1022 Zn992 2.066 . S
O1022 C994 1.256 . S
O1023 C994 1.244 . S
O1023 Zn995 2.053 . S
Zn1024 O1025 2.055 . S
Zn1024 O1032 2.046 . S
Zn1024 N1040 2.036 . S
Zn1024 O1052 2.053 . S
Zn1024 O1054 2.066 . S
O1025 Zn1024 2.055 . S
O1025 C1028 1.259 . S
C1026 O1054 1.256 . S
C1026 O1055 1.244 . S
Zn1027 O1029 2.046 . S
Zn1027 O1031 2.055 . S
Zn1027 N1033 2.036 . S
Zn1027 O1051 2.066 . S
Zn1027 O1055 2.053 . S
C1028 O1025 1.259 . S
C1028 O1029 1.254 . S
O1029 Zn1027 2.046 . S
O1029 C1028 1.254 . S
C1030 O1051 1.256 . S
C1030 O1052 1.244 . S
O1031 Zn1027 2.055 . S
O1031 C1053 1.259 . S
O1032 Zn1024 2.046 . S
O1032 C1053 1.254 . S
N1033 Zn1027 2.036 . S
N1033 C1034 1.298 . S
N1033 N1036 1.398 . S
C1034 N1033 1.298 . S
C1034 N1037 1.367 . S
C1034 C1047 1.481 . S
C1035 N1036 1.299 . S
C1035 N1037 1.379 . S
N1036 N1033 1.398 . S
N1036 C1035 1.299 . S
N1037 C1034 1.367 . S
N1037 C1035 1.379 . S
C1038 N1040 1.298 . S
C1038 N1042 1.367 . S
C1038 C1046 1.481 . S
C1039 N1041 1.299 . S
C1039 N1042 1.379 . S
N1040 Zn1024 2.036 . S
N1040 C1038 1.298 . S
N1040 N1041 1.398 . S
N1041 C1039 1.299 . S
N1041 N1040 1.398 . S
N1042 C1038 1.367 . S
N1042 C1039 1.379 . S
H1043 C1046 0.980 . S
H1044 C1046 0.981 . S
H1045 C1046 0.981 . S
C1046 C1038 1.481 . S
C1046 H1043 0.980 . S
C1046 H1044 0.981 . S
C1046 H1045 0.981 . S
C1047 C1034 1.481 . S
C1047 H1048 0.980 . S
C1047 H1049 0.981 . S
C1047 H1050 0.981 . S
H1048 C1047 0.980 . S
H1049 C1047 0.981 . S
H1050 C1047 0.981 . S
O1051 Zn1027 2.066 . S
O1051 C1030 1.256 . S
O1052 Zn1024 2.053 . S
O1052 C1030 1.244 . S
C1053 O1031 1.259 . S
C1053 O1032 1.254 . S
O1054 Zn1024 2.066 . S
O1054 C1026 1.256 . S
O1055 C1026 1.244 . S
O1055 Zn1027 2.053 . S
Zn1056 O1057 2.055 . S
Zn1056 O1064 2.046 . S
Zn1056 N1072 2.036 . S
Zn1056 O1084 2.053 . S
Zn1056 O1086 2.066 . S
O1057 Zn1056 2.055 . S
O1057 C1060 1.259 . S
C1058 O1086 1.256 . S
C1058 O1087 1.244 . S
Zn1059 O1061 2.046 . S
Zn1059 O1063 2.055 . S
Zn1059 N1065 2.036 . S
Zn1059 O1083 2.066 . S
Zn1059 O1087 2.053 . S
C1060 O1057 1.259 . S
C1060 O1061 1.254 . S
O1061 Zn1059 2.046 . S
O1061 C1060 1.254 . S
C1062 O1083 1.256 . S
C1062 O1084 1.244 . S
O1063 Zn1059 2.055 . S
O1063 C1085 1.259 . S
O1064 Zn1056 2.046 . S
O1064 C1085 1.254 . S
N1065 Zn1059 2.036 . S
N1065 C1066 1.298 . S
N1065 N1068 1.398 . S
C1066 N1065 1.298 . S
C1066 N1069 1.367 . S
C1066 C1079 1.481 . S
C1067 N1068 1.299 . S
C1067 N1069 1.379 . S
N1068 N1065 1.398 . S
N1068 C1067 1.299 . S
N1069 C1066 1.367 . S
N1069 C1067 1.379 . S
C1070 N1072 1.298 1_655 S
C1070 N1074 1.367 . S
C1070 C1078 1.481 . S
C1071 N1073 1.291 1_655 S
C1071 N1074 1.400 . S
N1072 Zn1056 2.036 . S
N1072 C1070 1.298 1_455 S
N1072 N1073 1.398 . S
N1073 C1071 1.291 1_455 S
N1073 N1072 1.398 . S
N1074 C1070 1.367 . S
N1074 C1071 1.400 . S
H1075 C1078 0.980 . S
H1076 C1078 0.981 . S
H1077 C1078 0.981 . S
C1078 C1070 1.481 . S
C1078 H1075 0.980 . S
C1078 H1076 0.981 . S
C1078 H1077 0.981 . S
C1079 C1066 1.481 . S
C1079 H1080 0.980 . S
C1079 H1081 0.981 . S
C1079 H1082 0.981 . S
H1080 C1079 0.980 . S
H1081 C1079 0.981 . S
H1082 C1079 0.981 . S
O1083 Zn1059 2.066 . S
O1083 C1062 1.256 . S
O1084 Zn1056 2.053 . S
O1084 C1062 1.244 . S
C1085 O1063 1.259 . S
C1085 O1064 1.254 . S
O1086 Zn1056 2.066 . S
O1086 C1058 1.256 . S
O1087 C1058 1.244 . S
O1087 Zn1059 2.053 . S
Zn1088 O1089 2.055 . S
Zn1088 O1096 2.046 . S
Zn1088 N1104 2.036 . S
Zn1088 O1116 2.053 . S
Zn1088 O1118 2.066 . S
O1089 Zn1088 2.055 . S
O1089 C1092 1.259 . S
C1090 O1118 1.256 . S
C1090 O1119 1.244 . S
Zn1091 O1093 2.046 . S
Zn1091 O1095 2.055 . S
Zn1091 N1097 2.036 . S
Zn1091 O1115 2.066 . S
Zn1091 O1119 2.053 . S
C1092 O1089 1.259 . S
C1092 O1093 1.254 . S
O1093 Zn1091 2.046 . S
O1093 C1092 1.254 . S
C1094 O1115 1.256 . S
C1094 O1116 1.244 . S
O1095 Zn1091 2.055 . S
O1095 C1117 1.259 . S
O1096 Zn1088 2.046 . S
O1096 C1117 1.254 . S
N1097 Zn1091 2.036 . S
N1097 C1098 1.298 . S
N1097 N1100 1.398 . S
C1098 N1097 1.298 . S
C1098 N1101 1.367 . S
C1098 C1111 1.481 . S
C1099 N1100 1.299 . S
C1099 N1101 1.379 . S
N1100 N1097 1.398 . S
N1100 C1099 1.299 . S
N1101 C1098 1.367 . S
N1101 C1099 1.379 . S
C1102 N1104 1.298 . S
C1102 N1106 1.367 . S
C1102 C1110 1.481 . S
C1103 N1105 1.299 . S
C1103 N1106 1.379 . S
N1104 Zn1088 2.036 . S
N1104 C1102 1.298 . S
N1104 N1105 1.398 . S
N1105 C1103 1.299 . S
N1105 N1104 1.398 . S
N1106 C1102 1.367 . S
N1106 C1103 1.379 . S
H1107 C1110 0.980 . S
H1108 C1110 0.981 . S
H1109 C1110 0.981 . S
C1110 C1102 1.481 . S
C1110 H1107 0.980 . S
C1110 H1108 0.981 . S
C1110 H1109 0.981 . S
C1111 C1098 1.481 . S
C1111 H1112 0.980 . S
C1111 H1113 0.981 . S
C1111 H1114 0.981 . S
H1112 C1111 0.980 . S
H1113 C1111 0.981 . S
H1114 C1111 0.981 . S
O1115 Zn1091 2.066 . S
O1115 C1094 1.256 . S
O1116 Zn1088 2.053 . S
O1116 C1094 1.244 . S
C1117 O1095 1.259 . S
C1117 O1096 1.254 . S
O1118 Zn1088 2.066 . S
O1118 C1090 1.256 . S
O1119 C1090 1.244 . S
O1119 Zn1091 2.053 . S
Zn1120 O1121 2.055 . S
Zn1120 O1128 2.046 . S
Zn1120 N1136 2.036 . S
Zn1120 O1148 2.053 . S
Zn1120 O1150 2.066 . S
O1121 Zn1120 2.055 . S
O1121 C1124 1.259 . S
C1122 O1150 1.256 . S
C1122 O1151 1.244 . S
Zn1123 O1125 2.046 . S
Zn1123 O1127 2.055 . S
Zn1123 N1129 2.036 . S
Zn1123 O1147 2.066 . S
Zn1123 O1151 2.053 . S
C1124 O1121 1.259 . S
C1124 O1125 1.254 . S
O1125 Zn1123 2.046 . S
O1125 C1124 1.254 . S
C1126 O1147 1.256 . S
C1126 O1148 1.244 . S
O1127 Zn1123 2.055 . S
O1127 C1149 1.259 . S
O1128 Zn1120 2.046 . S
O1128 C1149 1.254 . S
N1129 Zn1123 2.036 . S
N1129 C1130 1.298 . S
N1129 N1132 1.398 . S
C1130 N1129 1.298 . S
C1130 N1133 1.367 . S
C1130 C1143 1.481 . S
C1131 N1132 1.299 . S
C1131 N1133 1.379 . S
N1132 N1129 1.398 . S
N1132 C1131 1.299 . S
N1133 C1130 1.367 . S
N1133 C1131 1.379 . S
C1134 N1136 1.298 1_545 S
C1134 N1138 1.367 . S
C1134 C1142 1.481 . S
C1135 N1137 1.278 1_545 S
C1135 N1138 1.389 . S
N1136 Zn1120 2.036 . S
N1136 C1134 1.298 1_565 S
N1136 N1137 1.398 . S
N1137 C1135 1.278 1_565 S
N1137 N1136 1.398 . S
N1138 C1134 1.367 . S
N1138 C1135 1.389 . S
H1139 C1142 0.980 . S
H1140 C1142 0.981 . S
H1141 C1142 0.981 . S
C1142 C1134 1.481 . S
C1142 H1139 0.980 . S
C1142 H1140 0.981 . S
C1142 H1141 0.981 . S
C1143 C1130 1.481 . S
C1143 H1144 0.980 . S
C1143 H1145 0.981 . S
C1143 H1146 0.981 . S
H1144 C1143 0.980 . S
H1145 C1143 0.981 . S
H1146 C1143 0.981 . S
O1147 Zn1123 2.066 . S
O1147 C1126 1.256 . S
O1148 Zn1120 2.053 . S
O1148 C1126 1.244 . S
C1149 O1127 1.259 . S
C1149 O1128 1.254 . S
O1150 Zn1120 2.066 . S
O1150 C1122 1.256 . S
O1151 C1122 1.244 . S
O1151 Zn1123 2.053 . S
H1152 C1158 0.930 . S
H1153 C1161 0.930 . S
H1154 C1162 0.930 . S
H1155 C1163 0.930 . S
H1156 C1166 0.930 . S
H1157 C1167 0.930 . S
C1158 H1152 0.930 . S
C1158 C1159 1.355 . S
C1158 C1160 1.415 . S
C1159 C1158 1.355 . S
C1159 C1161 1.419 . S
C1160 C1158 1.415 . S
C1160 C1165 1.425 . S
C1160 C1167 1.409 . S
C1161 H1153 0.930 . S
C1161 C1159 1.419 . S
C1161 C1162 1.362 . S
C1162 H1154 0.930 . S
C1162 C1161 1.362 . S
C1162 C1165 1.409 . S
C1163 H1155 0.930 . S
C1163 C1164 1.355 . S
C1163 C1165 1.415 1_565 S
C1164 C1163 1.355 . S
C1164 C1166 1.419 . S
C1165 C1160 1.425 . S
C1165 C1162 1.409 . S
C1165 C1163 1.415 1_545 S
C1166 H1156 0.930 . S
C1166 C1164 1.419 . S
C1166 C1167 1.362 1_565 S
C1167 H1157 0.930 . S
C1167 C1160 1.409 . S
C1167 C1166 1.362 1_545 S
H1168 C1174 0.930 . S
H1169 C1177 0.930 . S
H1170 C1178 0.930 . S
H1171 C1179 0.930 . S
H1172 C1182 0.930 . S
H1173 C1183 0.930 . S
C1174 H1168 0.930 . S
C1174 C1175 1.355 . S
C1174 C1176 1.415 1_455 S
C1175 C1174 1.355 . S
C1175 C1177 1.419 . S
C1176 C1174 1.415 1_655 S
C1176 C1181 1.425 . S
C1176 C1183 1.409 . S
C1177 H1169 0.930 . S
C1177 C1175 1.419 . S
C1177 C1178 1.362 1_455 S
C1178 H1170 0.930 . S
C1178 C1177 1.362 1_655 S
C1178 C1181 1.409 . S
C1179 H1171 0.930 . S
C1179 C1180 1.355 . S
C1179 C1181 1.415 . S
C1180 C1179 1.355 . S
C1180 C1182 1.419 . S
C1181 C1176 1.425 . S
C1181 C1178 1.409 . S
C1181 C1179 1.415 . S
C1182 H1172 0.930 . S
C1182 C1180 1.419 . S
C1182 C1183 1.362 . S
C1183 H1173 0.930 . S
C1183 C1176 1.409 . S
C1183 C1182 1.362 . S
H1184 C1190 0.930 . S
H1185 C1193 0.930 . S
H1186 C1194 0.930 . S
H1187 C1195 0.930 . S
H1188 C1198 0.930 . S
H1189 C1199 0.930 . S
C1190 H1184 0.930 . S
C1190 C1191 1.355 . S
C1190 C1192 1.415 . S
C1191 C1190 1.355 . S
C1191 C1193 1.419 . S
C1192 C1190 1.415 . S
C1192 C1197 1.425 . S
C1192 C1199 1.409 . S
C1193 H1185 0.930 . S
C1193 C1191 1.419 . S
C1193 C1194 1.362 . S
C1194 H1186 0.930 . S
C1194 C1193 1.362 . S
C1194 C1197 1.409 . S
C1195 H1187 0.930 . S
C1195 C1196 1.355 . S
C1195 C1197 1.415 . S
C1196 C1195 1.355 . S
C1196 C1198 1.419 . S
C1197 C1192 1.425 . S
C1197 C1194 1.409 . S
C1197 C1195 1.415 . S
C1198 H1188 0.930 . S
C1198 C1196 1.419 . S
C1198 C1199 1.362 . S
C1199 H1189 0.930 . S
C1199 C1192 1.409 . S
C1199 C1198 1.362 . S
H1200 C1206 0.930 . S
H1201 C1209 0.930 . S
H1202 C1210 0.930 . S
H1203 C1211 0.930 . S
H1204 C1214 0.930 . S
H1205 C1215 0.930 . S
C1206 H1200 0.930 . S
C1206 C1207 1.355 . S
C1206 C1208 1.415 . S
C1207 C1206 1.355 . S
C1207 C1209 1.419 . S
C1208 C1206 1.415 . S
C1208 C1213 1.425 . S
C1208 C1215 1.409 . S
C1209 H1201 0.930 . S
C1209 C1207 1.419 . S
C1209 C1210 1.362 . S
C1210 H1202 0.930 . S
C1210 C1209 1.362 . S
C1210 C1213 1.409 . S
C1211 H1203 0.930 . S
C1211 C1212 1.355 . S
C1211 C1213 1.415 1_655 S
C1212 C1211 1.355 . S
C1212 C1214 1.419 . S
C1213 C1208 1.425 . S
C1213 C1210 1.409 . S
C1213 C1211 1.415 1_455 S
C1214 H1204 0.930 . S
C1214 C1212 1.419 . S
C1214 C1215 1.362 1_655 S
C1215 H1205 0.930 . S
C1215 C1208 1.409 . S
C1215 C1214 1.362 1_455 S
H1216 C1222 0.930 . S
H1217 C1225 0.930 . S
H1218 C1226 0.930 . S
H1219 C1227 0.930 . S
H1220 C1230 0.930 . S
H1221 C1231 0.930 . S
C1222 H1216 0.930 . S
C1222 C1223 1.355 . S
C1222 C1224 1.415 . S
C1223 C1222 1.355 . S
C1223 C1225 1.419 . S
C1224 C1222 1.415 . S
C1224 C1229 1.425 . S
C1224 C1231 1.409 . S
C1225 H1217 0.930 . S
C1225 C1223 1.419 . S
C1225 C1226 1.362 . S
C1226 H1218 0.930 . S
C1226 C1225 1.362 . S
C1226 C1229 1.409 . S
C1227 H1219 0.930 . S
C1227 C1228 1.355 . S
C1227 C1229 1.415 . S
C1228 C1227 1.355 . S
C1228 C1230 1.419 . S
C1229 C1224 1.425 . S
C1229 C1226 1.409 . S
C1229 C1227 1.415 . S
C1230 H1220 0.930 . S
C1230 C1228 1.419 . S
C1230 C1231 1.362 . S
C1231 H1221 0.930 . S
C1231 C1224 1.409 . S
C1231 C1230 1.362 . S
H1232 C1238 0.930 . S
H1233 C1241 0.930 . S
H1234 C1242 0.930 . S
H1235 C1243 0.930 . S
H1236 C1246 0.930 . S
H1237 C1247 0.930 . S
C1238 H1232 0.930 . S
C1238 C1239 1.355 . S
C1238 C1240 1.415 . S
C1239 C1238 1.355 . S
C1239 C1241 1.419 . S
C1240 C1238 1.415 . S
C1240 C1245 1.425 . S
C1240 C1247 1.409 . S
C1241 H1233 0.930 . S
C1241 C1239 1.419 . S
C1241 C1242 1.362 . S
C1242 H1234 0.930 . S
C1242 C1241 1.362 . S
C1242 C1245 1.409 . S
C1243 H1235 0.930 . S
C1243 C1244 1.355 . S
C1243 C1245 1.415 1_545 S
C1244 C1243 1.355 . S
C1244 C1246 1.419 . S
C1245 C1240 1.425 . S
C1245 C1242 1.409 . S
C1245 C1243 1.415 1_565 S
C1246 H1236 0.930 . S
C1246 C1244 1.419 . S
C1246 C1247 1.362 1_545 S
C1247 H1237 0.930 . S
C1247 C1240 1.409 . S
C1247 C1246 1.362 1_565 S
H1248 C1254 0.930 . S
H1249 C1257 0.930 . S
H1250 C1258 0.930 . S
H1251 C1259 0.930 . S
H1252 C1262 0.930 . S
H1253 C1263 0.930 . S
C1254 H1248 0.930 . S
C1254 C1255 1.355 . S
C1254 C1256 1.415 . S
C1255 C1254 1.355 . S
C1255 C1257 1.419 . S
C1256 C1254 1.415 . S
C1256 C1261 1.425 . S
C1256 C1263 1.409 . S
C1257 H1249 0.930 . S
C1257 C1255 1.419 . S
C1257 C1258 1.362 . S
C1258 H1250 0.930 . S
C1258 C1257 1.362 . S
C1258 C1261 1.409 . S
C1259 H1251 0.930 . S
C1259 C1260 1.355 . S
C1259 C1261 1.415 . S
C1260 C1259 1.355 . S
C1260 C1262 1.419 . S
C1261 C1256 1.425 . S
C1261 C1258 1.409 . S
C1261 C1259 1.415 . S
C1262 H1252 0.930 . S
C1262 C1260 1.419 . S
C1262 C1263 1.362 . S
C1263 H1253 0.930 . S
C1263 C1256 1.409 . S
C1263 C1262 1.362 . S
H1264 C1270 0.930 . S
H1265 C1273 0.930 . S
H1266 C1274 0.930 . S
H1267 C1275 0.930 . S
H1268 C1278 0.930 . S
H1269 C1279 0.930 . S
C1270 H1264 0.930 . S
C1270 C1271 1.355 . S
C1270 C1272 1.418 . S
C1271 C1270 1.355 . S
C1271 C1273 1.419 . S
C1272 C1270 1.418 . S
C1272 C1277 1.423 1_545 S
C1272 C1279 1.408 1_545 S
C1273 H1265 0.930 . S
C1273 C1271 1.419 . S
C1273 C1274 1.362 . S
C1274 H1266 0.930 . S
C1274 C1273 1.362 . S
C1274 C1277 1.409 1_545 S
C1275 H1267 0.930 . S
C1275 C1276 1.355 . S
C1275 C1277 1.415 . S
C1276 C1275 1.355 . S
C1276 C1278 1.419 . S
C1277 C1272 1.423 1_565 S
C1277 C1274 1.409 1_565 S
C1277 C1275 1.415 . S
C1278 H1268 0.930 . S
C1278 C1276 1.419 . S
C1278 C1279 1.362 . S
C1279 H1269 0.930 . S
C1279 C1272 1.408 1_565 S
C1279 C1278 1.362 . S
H1280 C1286 0.930 . S
H1281 C1289 0.930 . S
H1282 C1290 0.949 . S
H1283 C1291 0.930 . S
H1284 C1294 0.930 . S
H1285 C1295 0.930 . S
C1286 H1280 0.930 . S
C1286 C1287 1.355 . S
C1286 C1288 1.415 . S
C1287 C1286 1.355 . S
C1287 C1289 1.419 . S
C1288 C1286 1.415 . S
C1288 C1293 1.425 1_655 S
C1288 C1295 1.409 1_655 S
C1289 H1281 0.930 . S
C1289 C1287 1.419 . S
C1289 C1290 1.362 . S
C1290 H1282 0.949 . S
C1290 C1289 1.362 . S
C1290 C1293 1.409 1_655 S
C1291 H1283 0.930 . S
C1291 C1292 1.355 . S
C1291 C1293 1.415 . S
C1292 C1291 1.355 . S
C1292 C1294 1.419 . S
C1293 C1288 1.425 1_455 S
C1293 C1290 1.409 1_455 S
C1293 C1291 1.415 . S
C1294 H1284 0.930 . S
C1294 C1292 1.419 . S
C1294 C1295 1.362 . S
C1295 H1285 0.930 . S
C1295 C1288 1.409 1_455 S
C1295 C1294 1.362 . S
H1296 C1302 0.930 . S
H1297 C1305 0.930 . S
H1298 C1306 0.930 . S
H1299 C1307 0.930 . S
H1300 C1310 0.930 . S
H1301 C1311 0.930 . S
C1302 H1296 0.930 . S
C1302 C1303 1.355 . S
C1302 C1304 1.415 . S
C1303 C1302 1.355 . S
C1303 C1305 1.419 . S
C1304 C1302 1.415 . S
C1304 C1309 1.425 . S
C1304 C1311 1.409 . S
C1305 H1297 0.930 . S
C1305 C1303 1.419 . S
C1305 C1306 1.362 . S
C1306 H1298 0.930 . S
C1306 C1305 1.362 . S
C1306 C1309 1.409 . S
C1307 H1299 0.930 . S
C1307 C1308 1.355 . S
C1307 C1309 1.415 . S
C1308 C1307 1.355 . S
C1308 C1310 1.419 . S
C1309 C1304 1.425 . S
C1309 C1306 1.409 . S
C1309 C1307 1.415 . S
C1310 H1300 0.930 . S
C1310 C1308 1.419 . S
C1310 C1311 1.362 . S
C1311 H1301 0.930 . S
C1311 C1304 1.409 . S
C1311 C1310 1.362 . S
H1312 C1318 0.930 . S
H1313 C1321 0.930 . S
H1314 C1322 0.930 . S
H1315 C1323 0.930 . S
H1316 C1326 0.930 . S
H1317 C1327 0.930 . S
C1318 H1312 0.930 . S
C1318 C1319 1.355 . S
C1318 C1320 1.415 . S
C1319 C1318 1.355 . S
C1319 C1321 1.419 . S
C1320 C1318 1.415 . S
C1320 C1325 1.429 1_545 S
C1320 C1327 1.409 1_545 S
C1321 H1313 0.930 . S
C1321 C1319 1.419 . S
C1321 C1322 1.362 . S
C1322 H1314 0.930 . S
C1322 C1321 1.362 . S
C1322 C1325 1.392 1_545 S
C1323 H1315 0.930 . S
C1323 C1324 1.355 . S
C1323 C1325 1.428 . S
C1324 C1323 1.355 . S
C1324 C1326 1.419 . S
C1325 C1320 1.429 1_565 S
C1325 C1322 1.392 1_565 S
C1325 C1323 1.428 . S
C1326 H1316 0.930 . S
C1326 C1324 1.419 . S
C1326 C1327 1.362 . S
C1327 H1317 0.930 . S
C1327 C1320 1.409 1_565 S
C1327 C1326 1.362 . S
H1328 C1334 0.930 . S
H1329 C1337 0.930 . S
H1330 C1338 0.930 . S
H1331 C1339 0.930 . S
H1332 C1342 0.930 . S
H1333 C1343 0.930 . S
C1334 H1328 0.930 . S
C1334 C1335 1.355 . S
C1334 C1336 1.415 . S
C1335 C1334 1.355 . S
C1335 C1337 1.419 . S
C1336 C1334 1.415 . S
C1336 C1341 1.425 1_655 S
C1336 C1343 1.409 1_655 S
C1337 H1329 0.930 . S
C1337 C1335 1.419 . S
C1337 C1338 1.362 . S
C1338 H1330 0.930 . S
C1338 C1337 1.362 . S
C1338 C1341 1.409 1_655 S
C1339 H1331 0.930 . S
C1339 C1340 1.355 . S
C1339 C1341 1.415 . S
C1340 C1339 1.355 . S
C1340 C1342 1.419 . S
C1341 C1336 1.425 1_455 S
C1341 C1338 1.409 1_455 S
C1341 C1339 1.415 . S
C1342 H1332 0.930 . S
C1342 C1340 1.419 . S
C1342 C1343 1.362 . S
C1343 H1333 0.930 . S
C1343 C1336 1.409 1_455 S
C1343 C1342 1.362 . S
H1344 C1350 0.930 . S
H1345 C1353 0.930 . S
H1346 C1354 0.930 . S
H1347 C1355 0.930 . S
H1348 C1358 0.930 . S
H1349 C1359 0.930 . S
C1350 H1344 0.930 . S
C1350 C1351 1.355 . S
C1350 C1352 1.415 . S
C1351 C1350 1.355 . S
C1351 C1353 1.419 . S
C1352 C1350 1.415 . S
C1352 C1357 1.425 . S
C1352 C1359 1.409 . S
C1353 H1345 0.930 . S
C1353 C1351 1.419 . S
C1353 C1354 1.362 . S
C1354 H1346 0.930 . S
C1354 C1353 1.362 . S
C1354 C1357 1.409 . S
C1355 H1347 0.930 . S
C1355 C1356 1.355 . S
C1355 C1357 1.415 . S
C1356 C1355 1.355 . S
C1356 C1358 1.419 . S
C1357 C1352 1.425 . S
C1357 C1354 1.409 . S
C1357 C1355 1.415 . S
C1358 H1348 0.930 . S
C1358 C1356 1.419 . S
C1358 C1359 1.362 . S
C1359 H1349 0.930 . S
C1359 C1352 1.409 . S
C1359 C1358 1.362 . S
H1360 C1366 0.930 . S
H1361 C1369 0.930 . S
H1362 C1370 0.930 . S
H1363 C1371 0.930 . S
H1364 C1374 0.930 . S
H1365 C1375 0.930 . S
C1366 H1360 0.930 . S
C1366 C1367 1.355 . S
C1366 C1368 1.415 . S
C1367 C1366 1.355 . S
C1367 C1369 1.419 . S
C1368 C1366 1.415 . S
C1368 C1373 1.425 . S
C1368 C1375 1.409 . S
C1369 H1361 0.930 . S
C1369 C1367 1.419 . S
C1369 C1370 1.362 . S
C1370 H1362 0.930 . S
C1370 C1369 1.362 . S
C1370 C1373 1.409 . S
C1371 H1363 0.930 . S
C1371 C1372 1.355 . S
C1371 C1373 1.415 . S
C1372 C1371 1.355 . S
C1372 C1374 1.419 . S
C1373 C1368 1.425 . S
C1373 C1370 1.409 . S
C1373 C1371 1.415 . S
C1374 H1364 0.930 . S
C1374 C1372 1.419 . S
C1374 C1375 1.362 . S
C1375 H1365 0.930 . S
C1375 C1368 1.409 . S
C1375 C1374 1.362 . S
H1376 C1382 0.930 . S
H1377 C1385 0.930 . S
H1378 C1386 0.930 . S
H1379 C1387 0.930 . S
H1380 C1390 0.930 . S
H1381 C1391 0.930 . S
C1382 H1376 0.930 . S
C1382 C1383 1.355 . S
C1382 C1384 1.415 . S
C1383 C1382 1.355 . S
C1383 C1385 1.419 . S
C1384 C1382 1.415 . S
C1384 C1389 1.425 . S
C1384 C1391 1.409 . S
C1385 H1377 0.930 . S
C1385 C1383 1.419 . S
C1385 C1386 1.362 . S
C1386 H1378 0.930 . S
C1386 C1385 1.362 . S
C1386 C1389 1.409 . S
C1387 H1379 0.930 . S
C1387 C1388 1.355 . S
C1387 C1389 1.415 . S
C1388 C1387 1.355 . S
C1388 C1390 1.419 . S
C1389 C1384 1.425 . S
C1389 C1386 1.409 . S
C1389 C1387 1.415 . S
C1390 H1380 0.930 . S
C1390 C1388 1.419 . S
C1390 C1391 1.362 . S
C1391 H1381 0.930 . S
C1391 C1384 1.409 . S
C1391 C1390 1.362 . S
H1392 C1398 0.930 . S
H1393 C1401 0.930 . S
H1394 C1402 0.930 . S
H1395 C1403 0.930 . S
H1396 C1406 0.930 . S
H1397 C1407 0.930 . S
C1398 H1392 0.930 . S
C1398 C1399 1.355 . S
C1398 C1400 1.415 . S
C1399 C1398 1.355 . S
C1399 C1401 1.419 . S
C1400 C1398 1.415 . S
C1400 C1405 1.425 . S
C1400 C1407 1.409 . S
C1401 H1393 0.930 . S
C1401 C1399 1.419 . S
C1401 C1402 1.362 . S
C1402 H1394 0.930 . S
C1402 C1401 1.362 . S
C1402 C1405 1.409 . S
C1403 H1395 0.930 . S
C1403 C1404 1.355 . S
C1403 C1405 1.415 . S
C1404 C1403 1.355 . S
C1404 C1406 1.419 . S
C1405 C1400 1.425 . S
C1405 C1402 1.409 . S
C1405 C1403 1.415 . S
C1406 H1396 0.930 . S
C1406 C1404 1.419 . S
C1406 C1407 1.362 . S
C1407 H1397 0.930 . S
C1407 C1400 1.409 . S
C1407 C1406 1.362 . S
H1408 C1414 0.930 . S
H1409 C1417 0.930 . S
H1410 C1418 0.930 . S
H1411 C1419 0.930 . S
H1412 C1422 0.930 . S
H1413 C1423 0.930 . S
C1414 H1408 0.930 . S
C1414 C1415 1.355 . S
C1414 C1416 1.415 . S
C1415 C1414 1.355 . S
C1415 C1417 1.419 . S
C1416 C1414 1.415 . S
C1416 C1421 1.425 . S
C1416 C1423 1.409 . S
C1417 H1409 0.930 . S
C1417 C1415 1.419 . S
C1417 C1418 1.362 . S
C1418 H1410 0.930 . S
C1418 C1417 1.362 . S
C1418 C1421 1.409 . S
C1419 H1411 0.930 . S
C1419 C1420 1.355 . S
C1419 C1421 1.415 . S
C1420 C1419 1.355 . S
C1420 C1422 1.419 . S
C1421 C1416 1.425 . S
C1421 C1418 1.409 . S
C1421 C1419 1.415 . S
C1422 H1412 0.930 . S
C1422 C1420 1.419 . S
C1422 C1423 1.362 . S
C1423 H1413 0.930 . S
C1423 C1416 1.409 . S
C1423 C1422 1.362 . S
H1424 C1430 0.930 . S
H1425 C1433 0.930 . S
H1426 C1434 0.930 . S
H1427 C1435 0.930 . S
H1428 C1438 0.930 . S
H1429 C1439 0.930 . S
C1430 H1424 0.930 . S
C1430 C1431 1.355 . S
C1430 C1432 1.415 . S
C1431 C1430 1.355 . S
C1431 C1433 1.419 . S
C1432 C1430 1.415 . S
C1432 C1437 1.425 . S
C1432 C1439 1.409 . S
C1433 H1425 0.930 . S
C1433 C1431 1.419 . S
C1433 C1434 1.362 . S
C1434 H1426 0.930 . S
C1434 C1433 1.362 . S
C1434 C1437 1.409 . S
C1435 H1427 0.930 . S
C1435 C1436 1.355 . S
C1435 C1437 1.415 . S
C1436 C1435 1.355 . S
C1436 C1438 1.419 . S
C1437 C1432 1.425 . S
C1437 C1434 1.409 . S
C1437 C1435 1.415 . S
C1438 H1428 0.930 . S
C1438 C1436 1.419 . S
C1438 C1439 1.362 . S
C1439 H1429 0.930 . S
C1439 C1432 1.409 . S
C1439 C1438 1.362 . S
H1440 C1446 0.930 . S
H1441 C1449 0.930 . S
H1442 C1450 0.930 . S
H1443 C1451 0.930 . S
H1444 C1454 0.930 . S
H1445 C1455 0.930 . S
C1446 H1440 0.930 . S
C1446 C1447 1.355 . S
C1446 C1448 1.415 . S
C1447 C1446 1.355 . S
C1447 C1449 1.419 . S
C1448 C1446 1.415 . S
C1448 C1453 1.425 . S
C1448 C1455 1.409 . S
C1449 H1441 0.930 . S
C1449 C1447 1.419 . S
C1449 C1450 1.362 . S
C1450 H1442 0.930 . S
C1450 C1449 1.362 . S
C1450 C1453 1.409 . S
C1451 H1443 0.930 . S
C1451 C1452 1.355 . S
C1451 C1453 1.415 . S
C1452 C1451 1.355 . S
C1452 C1454 1.419 . S
C1453 C1448 1.425 . S
C1453 C1450 1.409 . S
C1453 C1451 1.415 . S
C1454 H1444 0.930 . S
C1454 C1452 1.419 . S
C1454 C1455 1.362 . S
C1455 H1445 0.930 . S
C1455 C1448 1.409 . S
C1455 C1454 1.362 . S
H1456 C1462 0.930 . S
H1457 C1465 0.930 . S
H1458 C1466 0.930 . S
H1459 C1467 0.930 . S
H1460 C1470 0.930 . S
H1461 C1471 0.930 . S
C1462 H1456 0.930 . S
C1462 C1463 1.355 . S
C1462 C1464 1.415 . S
C1463 C1462 1.355 . S
C1463 C1465 1.419 . S
C1464 C1462 1.415 . S
C1464 C1469 1.425 . S
C1464 C1471 1.409 . S
C1465 H1457 0.930 . S
C1465 C1463 1.419 . S
C1465 C1466 1.362 . S
C1466 H1458 0.930 . S
C1466 C1465 1.362 . S
C1466 C1469 1.409 . S
C1467 H1459 0.930 . S
C1467 C1468 1.355 . S
C1467 C1469 1.415 . S
C1468 C1467 1.355 . S
C1468 C1470 1.419 . S
C1469 C1464 1.425 . S
C1469 C1466 1.409 . S
C1469 C1467 1.415 . S
C1470 H1460 0.930 . S
C1470 C1468 1.419 . S
C1470 C1471 1.362 . S
C1471 H1461 0.930 . S
C1471 C1464 1.409 . S
C1471 C1470 1.362 . S
H1472 C1478 0.930 . S
H1473 C1481 0.930 . S
H1474 C1482 0.930 . S
H1475 C1483 0.930 . S
H1476 C1486 0.930 . S
H1477 C1487 0.930 . S
C1478 H1472 0.930 . S
C1478 C1479 1.355 . S
C1478 C1480 1.415 . S
C1479 C1478 1.355 . S
C1479 C1481 1.419 . S
C1480 C1478 1.415 . S
C1480 C1485 1.425 . S
C1480 C1487 1.409 . S
C1481 H1473 0.930 . S
C1481 C1479 1.419 . S
C1481 C1482 1.362 . S
C1482 H1474 0.930 . S
C1482 C1481 1.362 . S
C1482 C1485 1.409 . S
C1483 H1475 0.930 . S
C1483 C1484 1.355 . S
C1483 C1485 1.415 . S
C1484 C1483 1.355 . S
C1484 C1486 1.419 . S
C1485 C1480 1.425 . S
C1485 C1482 1.409 . S
C1485 C1483 1.415 . S
C1486 H1476 0.930 . S
C1486 C1484 1.419 . S
C1486 C1487 1.362 . S
C1487 H1477 0.930 . S
C1487 C1480 1.409 . S
C1487 C1486 1.362 . S
H1488 C1494 0.930 . S
H1489 C1497 0.930 . S
H1490 C1498 0.930 . S
H1491 C1499 0.930 . S
H1492 C1502 0.930 . S
H1493 C1503 0.930 . S
C1494 H1488 0.930 . S
C1494 C1495 1.355 . S
C1494 C1496 1.415 . S
C1495 C1494 1.355 . S
C1495 C1497 1.419 1_556 S
C1496 C1494 1.415 . S
C1496 C1501 1.425 1_556 S
C1496 C1503 1.409 . S
C1497 H1489 0.930 . S
C1497 C1495 1.419 1_554 S
C1497 C1498 1.362 . S
C1498 H1490 0.930 . S
C1498 C1497 1.362 . S
C1498 C1501 1.409 . S
C1499 H1491 0.930 . S
C1499 C1500 1.355 1_554 S
C1499 C1501 1.415 . S
C1500 C1499 1.355 1_556 S
C1500 C1502 1.419 . S
C1501 C1496 1.425 1_554 S
C1501 C1498 1.409 . S
C1501 C1499 1.415 . S
C1502 H1492 0.930 . S
C1502 C1500 1.419 . S
C1502 C1503 1.362 . S
C1503 H1493 0.930 . S
C1503 C1496 1.409 . S
C1503 C1502 1.362 . S
H1504 C1510 0.930 . S
H1505 C1513 0.930 . S
H1506 C1514 0.930 . S
H1507 C1515 0.930 . S
H1508 C1518 0.930 . S
H1509 C1519 0.930 . S
C1510 H1504 0.930 . S
C1510 C1511 1.355 1_554 S
C1510 C1512 1.415 . S
C1511 C1510 1.355 1_556 S
C1511 C1513 1.419 . S
C1512 C1510 1.415 . S
C1512 C1517 1.425 1_554 S
C1512 C1519 1.409 . S
C1513 H1505 0.930 . S
C1513 C1511 1.419 . S
C1513 C1514 1.362 . S
C1514 H1506 0.930 . S
C1514 C1513 1.362 . S
C1514 C1517 1.409 . S
C1515 H1507 0.930 . S
C1515 C1516 1.355 . S
C1515 C1517 1.415 . S
C1516 C1515 1.355 . S
C1516 C1518 1.419 1_556 S
C1517 C1512 1.425 1_556 S
C1517 C1514 1.409 . S
C1517 C1515 1.415 . S
C1518 H1508 0.930 . S
C1518 C1516 1.419 1_554 S
C1518 C1519 1.362 . S
C1519 H1509 0.930 . S
C1519 C1512 1.409 . S
C1519 C1518 1.362 . S
H1520 C1526 0.930 . S
H1521 C1529 0.930 . S
H1522 C1530 0.930 . S
H1523 C1531 0.930 . S
H1524 C1534 0.930 . S
H1525 C1535 0.930 . S
C1526 H1520 0.930 . S
C1526 C1527 1.355 . S
C1526 C1528 1.415 . S
C1527 C1526 1.355 . S
C1527 C1529 1.419 . S
C1528 C1526 1.415 . S
C1528 C1533 1.425 . S
C1528 C1535 1.409 . S
C1529 H1521 0.930 . S
C1529 C1527 1.419 . S
C1529 C1530 1.362 . S
C1530 H1522 0.930 . S
C1530 C1529 1.362 . S
C1530 C1533 1.409 . S
C1531 H1523 0.930 . S
C1531 C1532 1.360 . S
C1531 C1533 1.415 . S
C1532 C1531 1.360 . S
C1532 C1534 1.419 1_556 S
C1533 C1528 1.425 . S
C1533 C1530 1.409 . S
C1533 C1531 1.415 . S
C1534 H1524 0.930 . S
C1534 C1532 1.419 1_554 S
C1534 C1535 1.362 1_554 S
C1535 H1525 0.930 . S
C1535 C1528 1.409 . S
C1535 C1534 1.362 1_556 S
H1536 C1542 0.930 . S
H1537 C1545 0.930 . S
H1538 C1546 0.930 . S
H1539 C1547 0.930 . S
H1540 C1550 0.930 . S
H1541 C1551 0.930 . S
C1542 H1536 0.930 . S
C1542 C1543 1.355 . S
C1542 C1544 1.415 . S
C1543 C1542 1.355 . S
C1543 C1545 1.419 . S
C1544 C1542 1.415 . S
C1544 C1549 1.425 . S
C1544 C1551 1.409 . S
C1545 H1537 0.930 . S
C1545 C1543 1.419 . S
C1545 C1546 1.362 . S
C1546 H1538 0.930 . S
C1546 C1545 1.362 . S
C1546 C1549 1.409 . S
C1547 H1539 0.930 . S
C1547 C1548 1.355 . S
C1547 C1549 1.415 . S
C1548 C1547 1.355 . S
C1548 C1550 1.419 . S
C1549 C1544 1.425 . S
C1549 C1546 1.409 . S
C1549 C1547 1.415 . S
C1550 H1540 0.930 . S
C1550 C1548 1.419 . S
C1550 C1551 1.362 . S
C1551 H1541 0.930 . S
C1551 C1544 1.409 . S
C1551 C1550 1.362 . S
H1552 C1558 0.930 . S
H1553 C1561 0.930 . S
H1554 C1562 0.930 . S
H1555 C1563 0.930 . S
H1556 C1566 0.930 . S
H1557 C1567 0.930 . S
C1558 H1552 0.930 . S
C1558 C1559 1.355 . S
C1558 C1560 1.415 . S
C1559 C1558 1.355 . S
C1559 C1561 1.419 . S
C1560 C1558 1.415 . S
C1560 C1565 1.425 . S
C1560 C1567 1.409 . S
C1561 H1553 0.930 . S
C1561 C1559 1.419 . S
C1561 C1562 1.362 . S
C1562 H1554 0.930 . S
C1562 C1561 1.362 . S
C1562 C1565 1.409 . S
C1563 H1555 0.930 . S
C1563 C1564 1.355 . S
C1563 C1565 1.415 . S
C1564 C1563 1.355 . S
C1564 C1566 1.419 . S
C1565 C1560 1.425 . S
C1565 C1562 1.409 . S
C1565 C1563 1.415 . S
C1566 H1556 0.930 . S
C1566 C1564 1.419 . S
C1566 C1567 1.362 . S
C1567 H1557 0.930 . S
C1567 C1560 1.409 . S
C1567 C1566 1.362 . S
H1568 C1574 0.930 . S
H1569 C1577 0.930 . S
H1570 C1578 0.930 . S
H1571 C1579 0.930 . S
H1572 C1582 0.930 . S
H1573 C1583 0.930 . S
C1574 H1568 0.930 . S
C1574 C1575 1.355 . S
C1574 C1576 1.415 . S
C1575 C1574 1.355 . S
C1575 C1577 1.419 . S
C1576 C1574 1.415 . S
C1576 C1581 1.425 . S
C1576 C1583 1.409 . S
C1577 H1569 0.930 . S
C1577 C1575 1.419 . S
C1577 C1578 1.362 . S
C1578 H1570 0.930 . S
C1578 C1577 1.362 . S
C1578 C1581 1.409 . S
C1579 H1571 0.930 . S
C1579 C1580 1.355 . S
C1579 C1581 1.415 . S
C1580 C1579 1.355 . S
C1580 C1582 1.419 . S
C1581 C1576 1.425 . S
C1581 C1578 1.409 . S
C1581 C1579 1.415 . S
C1582 H1572 0.930 . S
C1582 C1580 1.419 . S
C1582 C1583 1.362 . S
C1583 H1573 0.930 . S
C1583 C1576 1.409 . S
C1583 C1582 1.362 . S
H1584 C1590 0.930 . S
H1585 C1593 0.930 . S
H1586 C1594 0.930 . S
H1587 C1595 0.930 . S
H1588 C1598 0.930 . S
H1589 C1599 0.930 . S
C1590 H1584 0.930 . S
C1590 C1591 1.355 . S
C1590 C1592 1.415 . S
C1591 C1590 1.355 . S
C1591 C1593 1.419 . S
C1592 C1590 1.415 . S
C1592 C1597 1.425 . S
C1592 C1599 1.409 . S
C1593 H1585 0.930 . S
C1593 C1591 1.419 . S
C1593 C1594 1.362 . S
C1594 H1586 0.930 . S
C1594 C1593 1.362 . S
C1594 C1597 1.409 . S
C1595 H1587 0.930 . S
C1595 C1596 1.355 . S
C1595 C1597 1.415 . S
C1596 C1595 1.355 . S
C1596 C1598 1.419 . S
C1597 C1592 1.425 . S
C1597 C1594 1.409 . S
C1597 C1595 1.415 . S
C1598 H1588 0.930 . S
C1598 C1596 1.419 . S
C1598 C1599 1.362 . S
C1599 H1589 0.930 . S
C1599 C1592 1.409 . S
C1599 C1598 1.362 . S
H1600 C1606 0.930 . S
H1601 C1609 0.930 . S
H1602 C1610 0.930 . S
H1603 C1611 0.930 . S
H1604 C1614 0.930 . S
H1605 C1615 0.930 . S
C1606 H1600 0.930 . S
C1606 C1607 1.355 . S
C1606 C1608 1.415 . S
C1607 C1606 1.355 . S
C1607 C1609 1.419 . S
C1608 C1606 1.415 . S
C1608 C1613 1.425 . S
C1608 C1615 1.409 . S
C1609 H1601 0.930 . S
C1609 C1607 1.419 . S
C1609 C1610 1.362 . S
C1610 H1602 0.930 . S
C1610 C1609 1.362 . S
C1610 C1613 1.409 . S
C1611 H1603 0.930 . S
C1611 C1612 1.355 . S
C1611 C1613 1.415 . S
C1612 C1611 1.355 . S
C1612 C1614 1.419 . S
C1613 C1608 1.425 . S
C1613 C1610 1.409 . S
C1613 C1611 1.415 . S
C1614 H1604 0.930 . S
C1614 C1612 1.419 . S
C1614 C1615 1.362 . S
C1615 H1605 0.930 . S
C1615 C1608 1.409 . S
C1615 C1614 1.362 . S
H1616 C1622 0.930 1_556 S
H1617 C1625 0.930 . S
H1618 C1626 0.930 . S
H1619 C1627 0.930 . S
H1620 C1630 0.922 1_556 S
H1621 C1631 0.930 1_556 S
C1622 H1616 0.930 1_554 S
C1622 C1623 1.355 . S
C1622 C1624 1.415 . S
C1623 C1622 1.355 . S
C1623 C1625 1.419 . S
C1624 C1622 1.415 . S
C1624 C1629 1.425 . S
C1624 C1631 1.409 . S
C1625 H1617 0.930 . S
C1625 C1623 1.419 . S
C1625 C1626 1.362 . S
C1626 H1618 0.930 . S
C1626 C1625 1.362 . S
C1626 C1629 1.409 . S
C1627 H1619 0.930 . S
C1627 C1628 1.355 . S
C1627 C1629 1.415 . S
C1628 C1627 1.355 . S
C1628 C1630 1.419 . S
C1629 C1624 1.425 . S
C1629 C1626 1.409 . S
C1629 C1627 1.415 . S
C1630 H1620 0.922 1_554 S
C1630 C1628 1.419 . S
C1630 C1631 1.362 . S
C1631 H1621 0.930 1_554 S
C1631 C1624 1.409 . S
C1631 C1630 1.362 . S
H1632 C1638 0.930 . S
H1633 C1641 0.930 . S
H1634 C1642 0.930 . S
H1635 C1643 0.930 . S
H1636 C1646 0.930 . S
H1637 C1647 0.930 . S
C1638 H1632 0.930 . S
C1638 C1639 1.355 . S
C1638 C1640 1.415 . S
C1639 C1638 1.355 . S
C1639 C1641 1.419 . S
C1640 C1638 1.415 . S
C1640 C1645 1.425 . S
C1640 C1647 1.409 . S
C1641 H1633 0.930 . S
C1641 C1639 1.419 . S
C1641 C1642 1.362 . S
C1642 H1634 0.930 . S
C1642 C1641 1.362 . S
C1642 C1645 1.409 . S
C1643 H1635 0.930 . S
C1643 C1644 1.355 . S
C1643 C1645 1.415 . S
C1644 C1643 1.355 . S
C1644 C1646 1.419 . S
C1645 C1640 1.425 . S
C1645 C1642 1.409 . S
C1645 C1643 1.415 . S
C1646 H1636 0.930 . S
C1646 C1644 1.419 . S
C1646 C1647 1.362 . S
C1647 H1637 0.930 . S
C1647 C1640 1.409 . S
C1647 C1646 1.362 . S
H1648 C1654 0.930 . S
H1649 C1657 0.930 . S
H1650 C1658 0.930 . S
H1651 C1659 0.930 . S
H1652 C1662 0.930 . S
H1653 C1663 0.930 . S
C1654 H1648 0.930 . S
C1654 C1655 1.355 . S
C1654 C1656 1.415 . S
C1655 C1654 1.355 . S
C1655 C1657 1.419 . S
C1656 C1654 1.415 . S
C1656 C1661 1.425 . S
C1656 C1663 1.409 . S
C1657 H1649 0.930 . S
C1657 C1655 1.419 . S
C1657 C1658 1.362 . S
C1658 H1650 0.930 . S
C1658 C1657 1.362 . S
C1658 C1661 1.409 . S
C1659 H1651 0.930 . S
C1659 C1660 1.355 . S
C1659 C1661 1.415 . S
C1660 C1659 1.355 . S
C1660 C1662 1.419 . S
C1661 C1656 1.425 . S
C1661 C1658 1.409 . S
C1661 C1659 1.415 . S
C1662 H1652 0.930 . S
C1662 C1660 1.419 . S
C1662 C1663 1.362 . S
C1663 H1653 0.930 . S
C1663 C1656 1.409 . S
C1663 C1662 1.362 . S
H1664 C1670 0.930 . S
H1665 C1673 0.930 . S
H1666 C1674 0.930 . S
H1667 C1675 0.930 . S
H1668 C1678 0.930 . S
H1669 C1679 0.930 . S
C1670 H1664 0.930 . S
C1670 C1671 1.355 . S
C1670 C1672 1.415 . S
C1671 C1670 1.355 . S
C1671 C1673 1.419 . S
C1672 C1670 1.415 . S
C1672 C1677 1.425 . S
C1672 C1679 1.409 . S
C1673 H1665 0.930 . S
C1673 C1671 1.419 . S
C1673 C1674 1.362 . S
C1674 H1666 0.930 . S
C1674 C1673 1.362 . S
C1674 C1677 1.409 . S
C1675 H1667 0.930 . S
C1675 C1676 1.355 . S
C1675 C1677 1.415 . S
C1676 C1675 1.355 . S
C1676 C1678 1.419 . S
C1677 C1672 1.425 . S
C1677 C1674 1.409 . S
C1677 C1675 1.415 . S
C1678 H1668 0.930 . S
C1678 C1676 1.419 . S
C1678 C1679 1.362 . S
C1679 H1669 0.930 . S
C1679 C1672 1.409 . S
C1679 C1678 1.362 . S
H1680 C1686 0.930 . S
H1681 C1689 0.930 . S
H1682 C1690 0.930 . S
H1683 C1691 0.930 . S
H1684 C1694 0.930 . S
H1685 C1695 0.930 . S
C1686 H1680 0.930 . S
C1686 C1687 1.355 . S
C1686 C1688 1.415 . S
C1687 C1686 1.355 . S
C1687 C1689 1.419 . S
C1688 C1686 1.415 . S
C1688 C1693 1.425 . S
C1688 C1695 1.409 . S
C1689 H1681 0.930 . S
C1689 C1687 1.419 . S
C1689 C1690 1.362 . S
C1690 H1682 0.930 . S
C1690 C1689 1.362 . S
C1690 C1693 1.409 . S
C1691 H1683 0.930 . S
C1691 C1692 1.355 . S
C1691 C1693 1.415 . S
C1692 C1691 1.355 . S
C1692 C1694 1.419 . S
C1693 C1688 1.425 . S
C1693 C1690 1.409 . S
C1693 C1691 1.415 . S
C1694 H1684 0.930 . S
C1694 C1692 1.419 . S
C1694 C1695 1.362 . S
C1695 H1685 0.930 . S
C1695 C1688 1.409 . S
C1695 C1694 1.362 . S
H1696 C1702 0.930 . S
H1697 C1705 0.930 . S
H1698 C1706 0.930 . S
H1699 C1707 0.930 . S
H1700 C1710 0.930 . S
H1701 C1711 0.930 . S
C1702 H1696 0.930 . S
C1702 C1703 1.355 . S
C1702 C1704 1.415 . S
C1703 C1702 1.355 . S
C1703 C1705 1.419 . S
C1704 C1702 1.415 . S
C1704 C1709 1.425 . S
C1704 C1711 1.409 . S
C1705 H1697 0.930 . S
C1705 C1703 1.419 . S
C1705 C1706 1.362 . S
C1706 H1698 0.930 . S
C1706 C1705 1.362 . S
C1706 C1709 1.409 . S
C1707 H1699 0.930 . S
C1707 C1708 1.355 . S
C1707 C1709 1.415 . S
C1708 C1707 1.355 . S
C1708 C1710 1.419 . S
C1709 C1704 1.425 . S
C1709 C1706 1.409 . S
C1709 C1707 1.415 . S
C1710 H1700 0.930 . S
C1710 C1708 1.419 . S
C1710 C1711 1.362 . S
C1711 H1701 0.930 . S
C1711 C1704 1.409 . S
C1711 C1710 1.362 . S
H1712 C1718 0.930 . S
H1713 C1721 0.930 . S
H1714 C1722 0.930 . S
H1715 C1723 0.930 . S
H1716 C1726 0.930 . S
H1717 C1727 0.930 . S
C1718 H1712 0.930 . S
C1718 C1719 1.355 . S
C1718 C1720 1.415 . S
C1719 C1718 1.355 . S
C1719 C1721 1.419 . S
C1720 C1718 1.415 . S
C1720 C1725 1.425 . S
C1720 C1727 1.409 . S
C1721 H1713 0.930 . S
C1721 C1719 1.419 . S
C1721 C1722 1.362 . S
C1722 H1714 0.930 . S
C1722 C1721 1.362 . S
C1722 C1725 1.409 . S
C1723 H1715 0.930 . S
C1723 C1724 1.355 . S
C1723 C1725 1.415 . S
C1724 C1723 1.355 . S
C1724 C1726 1.419 . S
C1725 C1720 1.425 . S
C1725 C1722 1.409 . S
C1725 C1723 1.415 . S
C1726 H1716 0.930 . S
C1726 C1724 1.419 . S
C1726 C1727 1.362 . S
C1727 H1717 0.930 . S
C1727 C1720 1.409 . S
C1727 C1726 1.362 . S
H1728 C1734 0.930 . S
H1729 C1737 0.930 . S
H1730 C1738 0.930 . S
H1731 C1739 0.930 . S
H1732 C1742 0.930 . S
H1733 C1743 0.930 . S
C1734 H1728 0.930 . S
C1734 C1735 1.355 . S
C1734 C1736 1.415 . S
C1735 C1734 1.355 . S
C1735 C1737 1.419 . S
C1736 C1734 1.415 . S
C1736 C1741 1.425 . S
C1736 C1743 1.409 . S
C1737 H1729 0.930 . S
C1737 C1735 1.419 . S
C1737 C1738 1.362 . S
C1738 H1730 0.930 . S
C1738 C1737 1.362 . S
C1738 C1741 1.409 . S
C1739 H1731 0.930 . S
C1739 C1740 1.355 . S
C1739 C1741 1.415 . S
C1740 C1739 1.355 . S
C1740 C1742 1.419 . S
C1741 C1736 1.425 . S
C1741 C1738 1.409 . S
C1741 C1739 1.415 . S
C1742 H1732 0.930 . S
C1742 C1740 1.419 . S
C1742 C1743 1.362 . S
C1743 H1733 0.930 . S
C1743 C1736 1.409 . S
C1743 C1742 1.362 . S
H1744 C1750 0.930 . S
H1745 C1753 0.930 . S
H1746 C1754 0.930 . S
H1747 C1755 0.930 . S
H1748 C1758 0.930 . S
H1749 C1759 0.930 . S
C1750 H1744 0.930 . S
C1750 C1751 1.355 1_565 S
C1750 C1752 1.415 . S
C1751 C1750 1.355 1_545 S
C1751 C1753 1.419 . S
C1752 C1750 1.415 . S
C1752 C1757 1.425 . S
C1752 C1759 1.409 . S
C1753 H1745 0.930 . S
C1753 C1751 1.419 . S
C1753 C1754 1.362 . S
C1754 H1746 0.930 . S
C1754 C1753 1.362 . S
C1754 C1757 1.409 1_545 S
C1755 H1747 0.930 . S
C1755 C1756 1.355 . S
C1755 C1757 1.415 . S
C1756 C1755 1.355 . S
C1756 C1758 1.419 . S
C1757 C1752 1.425 . S
C1757 C1754 1.409 1_565 S
C1757 C1755 1.415 . S
C1758 H1748 0.930 . S
C1758 C1756 1.419 . S
C1758 C1759 1.362 . S
C1759 H1749 0.930 . S
C1759 C1752 1.409 . S
C1759 C1758 1.362 . S
H1760 C1766 0.930 . S
H1761 C1769 0.930 . S
H1762 C1770 0.930 . S
H1763 C1771 0.934 . S
H1764 C1774 0.930 . S
H1765 C1775 0.930 . S
C1766 H1760 0.930 . S
C1766 C1767 1.355 . S
C1766 C1768 1.415 . S
C1767 C1766 1.355 . S
C1767 C1769 1.419 . S
C1768 C1766 1.415 . S
C1768 C1773 1.425 . S
C1768 C1775 1.409 . S
C1769 H1761 0.930 . S
C1769 C1767 1.419 . S
C1769 C1770 1.362 . S
C1770 H1762 0.930 . S
C1770 C1769 1.362 . S
C1770 C1773 1.409 . S
C1771 H1763 0.934 . S
C1771 C1772 1.355 1_455 S
C1771 C1773 1.415 . S
C1772 C1771 1.355 1_655 S
C1772 C1774 1.419 . S
C1773 C1768 1.425 . S
C1773 C1770 1.409 . S
C1773 C1771 1.415 . S
C1774 H1764 0.930 . S
C1774 C1772 1.419 . S
C1774 C1775 1.362 1_655 S
C1775 H1765 0.930 . S
C1775 C1768 1.409 . S
C1775 C1774 1.362 1_455 S
H1776 C1782 0.930 . S
H1777 C1785 0.930 . S
H1778 C1786 0.930 . S
H1779 C1787 0.930 . S
H1780 C1790 0.930 . S
H1781 C1791 0.930 . S
C1782 H1776 0.930 . S
C1782 C1783 1.355 . S
C1782 C1784 1.415 . S
C1783 C1782 1.355 . S
C1783 C1785 1.419 . S
C1784 C1782 1.415 . S
C1784 C1789 1.425 . S
C1784 C1791 1.409 . S
C1785 H1777 0.930 . S
C1785 C1783 1.419 . S
C1785 C1786 1.362 . S
C1786 H1778 0.930 . S
C1786 C1785 1.362 . S
C1786 C1789 1.409 . S
C1787 H1779 0.930 . S
C1787 C1788 1.355 . S
C1787 C1789 1.415 . S
C1788 C1787 1.355 . S
C1788 C1790 1.419 . S
C1789 C1784 1.425 . S
C1789 C1786 1.409 . S
C1789 C1787 1.415 . S
C1790 H1780 0.930 . S
C1790 C1788 1.419 . S
C1790 C1791 1.362 . S
C1791 H1781 0.930 . S
C1791 C1784 1.409 . S
C1791 C1790 1.362 . S
H1792 C1798 0.930 . S
H1793 C1801 0.930 . S
H1794 C1802 0.930 . S
H1795 C1803 0.930 . S
H1796 C1806 0.930 . S
H1797 C1807 0.930 . S
C1798 H1792 0.930 . S
C1798 C1799 1.355 1_545 S
C1798 C1800 1.415 . S
C1799 C1798 1.355 1_565 S
C1799 C1801 1.419 . S
C1800 C1798 1.415 . S
C1800 C1805 1.425 . S
C1800 C1807 1.409 . S
C1801 H1793 0.930 . S
C1801 C1799 1.419 . S
C1801 C1802 1.362 . S
C1802 H1794 0.930 . S
C1802 C1801 1.362 . S
C1802 C1805 1.409 1_565 S
C1803 H1795 0.930 . S
C1803 C1804 1.355 . S
C1803 C1805 1.415 . S
C1804 C1803 1.355 . S
C1804 C1806 1.419 . S
C1805 C1800 1.425 . S
C1805 C1802 1.409 1_545 S
C1805 C1803 1.415 . S
C1806 H1796 0.930 . S
C1806 C1804 1.419 . S
C1806 C1807 1.362 . S
C1807 H1797 0.930 . S
C1807 C1800 1.409 . S
C1807 C1806 1.362 . S
H1808 C1814 0.930 . S
H1809 C1817 0.930 . S
H1810 C1818 0.930 . S
H1811 C1819 0.930 . S
H1812 C1822 0.930 1_455 S
H1813 C1823 0.930 . S
C1814 H1808 0.930 . S
C1814 C1815 1.355 . S
C1814 C1816 1.415 . S
C1815 C1814 1.355 . S
C1815 C1817 1.419 . S
C1816 C1814 1.415 . S
C1816 C1821 1.425 . S
C1816 C1823 1.409 . S
C1817 H1809 0.930 . S
C1817 C1815 1.419 . S
C1817 C1818 1.362 . S
C1818 H1810 0.930 . S
C1818 C1817 1.362 . S
C1818 C1821 1.409 . S
C1819 H1811 0.930 . S
C1819 C1820 1.355 1_655 S
C1819 C1821 1.415 . S
C1820 C1819 1.355 1_455 S
C1820 C1822 1.419 1_455 S
C1821 C1816 1.425 . S
C1821 C1818 1.409 . S
C1821 C1819 1.415 . S
C1822 H1812 0.930 1_655 S
C1822 C1820 1.419 1_655 S
C1822 C1823 1.362 . S
C1823 H1813 0.930 . S
C1823 C1816 1.409 . S
C1823 C1822 1.362 . S
H1824 C1830 0.930 . S
H1825 C1833 0.930 . S
H1826 C1834 0.930 . S
H1827 C1835 0.930 . S
H1828 C1838 0.930 . S
H1829 C1839 0.930 . S
C1830 H1824 0.930 . S
C1830 C1831 1.355 . S
C1830 C1832 1.415 . S
C1831 C1830 1.355 . S
C1831 C1833 1.419 . S
C1832 C1830 1.415 . S
C1832 C1837 1.425 . S
C1832 C1839 1.409 . S
C1833 H1825 0.930 . S
C1833 C1831 1.419 . S
C1833 C1834 1.362 . S
C1834 H1826 0.930 . S
C1834 C1833 1.362 . S
C1834 C1837 1.409 . S
C1835 H1827 0.930 . S
C1835 C1836 1.355 . S
C1835 C1837 1.415 . S
C1836 C1835 1.355 . S
C1836 C1838 1.419 . S
C1837 C1832 1.425 . S
C1837 C1834 1.409 . S
C1837 C1835 1.415 . S
C1838 H1828 0.930 . S
C1838 C1836 1.419 . S
C1838 C1839 1.362 . S
C1839 H1829 0.930 . S
C1839 C1832 1.409 . S
C1839 C1838 1.362 . S
H1840 C1846 0.930 . S
H1841 C1849 0.930 . S
H1842 C1850 0.930 . S
H1843 C1851 0.930 . S
H1844 C1854 0.930 . S
H1845 C1855 0.930 . S
C1846 H1840 0.930 . S
C1846 C1847 1.355 . S
C1846 C1848 1.415 . S
C1847 C1846 1.355 . S
C1847 C1849 1.419 . S
C1848 C1846 1.415 . S
C1848 C1853 1.425 . S
C1848 C1855 1.409 . S
C1849 H1841 0.930 . S
C1849 C1847 1.419 . S
C1849 C1850 1.362 . S
C1850 H1842 0.930 . S
C1850 C1849 1.362 . S
C1850 C1853 1.409 . S
C1851 H1843 0.930 . S
C1851 C1852 1.355 . S
C1851 C1853 1.415 . S
C1852 C1851 1.355 . S
C1852 C1854 1.419 . S
C1853 C1848 1.425 . S
C1853 C1850 1.409 . S
C1853 C1851 1.415 . S
C1854 H1844 0.930 . S
C1854 C1852 1.419 . S
C1854 C1855 1.362 . S
C1855 H1845 0.930 . S
C1855 C1848 1.409 . S
C1855 C1854 1.362 . S
H1856 C1862 0.930 . S
H1857 C1865 0.930 . S
H1858 C1866 0.930 . S
H1859 C1867 0.930 . S
H1860 C1870 0.930 . S
H1861 C1871 0.930 . S
C1862 H1856 0.930 . S
C1862 C1863 1.355 . S
C1862 C1864 1.415 . S
C1863 C1862 1.355 . S
C1863 C1865 1.419 . S
C1864 C1862 1.415 . S
C1864 C1869 1.425 . S
C1864 C1871 1.409 . S
C1865 H1857 0.930 . S
C1865 C1863 1.419 . S
C1865 C1866 1.362 . S
C1866 H1858 0.930 . S
C1866 C1865 1.362 . S
C1866 C1869 1.409 . S
C1867 H1859 0.930 . S
C1867 C1868 1.355 . S
C1867 C1869 1.415 . S
C1868 C1867 1.355 . S
C1868 C1870 1.419 . S
C1869 C1864 1.425 . S
C1869 C1866 1.409 . S
C1869 C1867 1.415 . S
C1870 H1860 0.930 . S
C1870 C1868 1.419 . S
C1870 C1871 1.362 . S
C1871 H1861 0.930 . S
C1871 C1864 1.409 . S
C1871 C1870 1.362 . S
H1872 C1878 0.930 . S
H1873 C1881 0.930 . S
H1874 C1882 0.930 . S
H1875 C1883 0.930 . S
H1876 C1886 0.930 . S
H1877 C1887 0.930 . S
C1878 H1872 0.930 . S
C1878 C1879 1.355 . S
C1878 C1880 1.415 . S
C1879 C1878 1.355 . S
C1879 C1881 1.419 . S
C1880 C1878 1.415 . S
C1880 C1885 1.425 . S
C1880 C1887 1.409 . S
C1881 H1873 0.930 . S
C1881 C1879 1.419 . S
C1881 C1882 1.362 . S
C1882 H1874 0.930 . S
C1882 C1881 1.362 . S
C1882 C1885 1.409 . S
C1883 H1875 0.930 . S
C1883 C1884 1.355 . S
C1883 C1885 1.415 . S
C1884 C1883 1.355 . S
C1884 C1886 1.419 . S
C1885 C1880 1.425 . S
C1885 C1882 1.409 . S
C1885 C1883 1.415 . S
C1886 H1876 0.930 . S
C1886 C1884 1.419 . S
C1886 C1887 1.362 . S
C1887 H1877 0.930 . S
C1887 C1880 1.409 . S
C1887 C1886 1.362 . S
H1888 C1894 0.930 . S
H1889 C1897 0.930 . S
H1890 C1898 0.930 . S
H1891 C1899 0.930 . S
H1892 C1902 0.930 . S
H1893 C1903 0.930 . S
C1894 H1888 0.930 . S
C1894 C1895 1.355 . S
C1894 C1896 1.415 . S
C1895 C1894 1.355 . S
C1895 C1897 1.419 . S
C1896 C1894 1.415 . S
C1896 C1901 1.425 . S
C1896 C1903 1.409 . S
C1897 H1889 0.930 . S
C1897 C1895 1.419 . S
C1897 C1898 1.362 . S
C1898 H1890 0.930 . S
C1898 C1897 1.362 . S
C1898 C1901 1.409 . S
C1899 H1891 0.930 . S
C1899 C1900 1.355 . S
C1899 C1901 1.415 . S
C1900 C1899 1.355 . S
C1900 C1902 1.419 . S
C1901 C1896 1.425 . S
C1901 C1898 1.409 . S
C1901 C1899 1.415 . S
C1902 H1892 0.930 . S
C1902 C1900 1.419 . S
C1902 C1903 1.362 . S
C1903 H1893 0.930 . S
C1903 C1896 1.409 . S
C1903 C1902 1.362 . S
H1904 C1910 0.930 . S
H1905 C1913 0.930 . S
H1906 C1914 0.930 . S
H1907 C1915 0.930 . S
H1908 C1918 0.930 . S
H1909 C1919 0.930 . S
C1910 H1904 0.930 . S
C1910 C1911 1.355 . S
C1910 C1912 1.415 . S
C1911 C1910 1.355 . S
C1911 C1913 1.419 . S
C1912 C1910 1.415 . S
C1912 C1917 1.425 . S
C1912 C1919 1.409 . S
C1913 H1905 0.930 . S
C1913 C1911 1.419 . S
C1913 C1914 1.362 . S
C1914 H1906 0.930 . S
C1914 C1913 1.362 . S
C1914 C1917 1.409 . S
C1915 H1907 0.930 . S
C1915 C1916 1.355 . S
C1915 C1917 1.415 . S
C1916 C1915 1.355 . S
C1916 C1918 1.419 . S
C1917 C1912 1.425 . S
C1917 C1914 1.409 . S
C1917 C1915 1.415 . S
C1918 H1908 0.930 . S
C1918 C1916 1.419 . S
C1918 C1919 1.362 . S
C1919 H1909 0.930 . S
C1919 C1912 1.409 . S
C1919 C1918 1.362 . S
H1920 C1926 0.930 . S
H1921 C1929 0.930 . S
H1922 C1930 0.930 . S
H1923 C1931 0.930 . S
H1924 C1934 0.930 . S
H1925 C1935 0.930 . S
C1926 H1920 0.930 . S
C1926 C1927 1.355 . S
C1926 C1928 1.415 . S
C1927 C1926 1.355 . S
C1927 C1929 1.419 . S
C1928 C1926 1.415 . S
C1928 C1933 1.425 . S
C1928 C1935 1.409 . S
C1929 H1921 0.930 . S
C1929 C1927 1.419 . S
C1929 C1930 1.362 . S
C1930 H1922 0.930 . S
C1930 C1929 1.362 . S
C1930 C1933 1.409 . S
C1931 H1923 0.930 . S
C1931 C1932 1.355 . S
C1931 C1933 1.415 1_455 S
C1932 C1931 1.355 . S
C1932 C1934 1.419 . S
C1933 C1928 1.425 . S
C1933 C1930 1.409 . S
C1933 C1931 1.415 1_655 S
C1934 H1924 0.930 . S
C1934 C1932 1.419 . S
C1934 C1935 1.362 1_455 S
C1935 H1925 0.930 . S
C1935 C1928 1.409 . S
C1935 C1934 1.362 1_655 S
H1936 C1942 0.930 . S
H1937 C1945 0.930 . S
H1938 C1946 0.930 . S
H1939 C1947 0.930 . S
H1940 C1950 0.930 . S
H1941 C1951 0.930 . S
C1942 H1936 0.930 . S
C1942 C1943 1.355 . S
C1942 C1944 1.415 . S
C1943 C1942 1.355 . S
C1943 C1945 1.419 . S
C1944 C1942 1.415 . S
C1944 C1949 1.425 . S
C1944 C1951 1.409 . S
C1945 H1937 0.930 . S
C1945 C1943 1.419 . S
C1945 C1946 1.362 . S
C1946 H1938 0.930 . S
C1946 C1945 1.362 . S
C1946 C1949 1.409 . S
C1947 H1939 0.930 . S
C1947 C1948 1.355 . S
C1947 C1949 1.415 . S
C1948 C1947 1.355 . S
C1948 C1950 1.419 . S
C1949 C1944 1.425 . S
C1949 C1946 1.409 . S
C1949 C1947 1.415 . S
C1950 H1940 0.930 . S
C1950 C1948 1.419 . S
C1950 C1951 1.362 . S
C1951 H1941 0.930 . S
C1951 C1944 1.409 . S
C1951 C1950 1.362 . S
H1952 C1958 0.930 . S
H1953 C1961 0.930 . S
H1954 C1962 0.930 . S
H1955 C1963 0.930 . S
H1956 C1966 0.930 . S
H1957 C1967 0.930 . S
C1958 H1952 0.930 . S
C1958 C1959 1.355 . S
C1958 C1960 1.415 1_565 S
C1959 C1958 1.355 . S
C1959 C1961 1.419 . S
C1960 C1958 1.415 1_545 S
C1960 C1965 1.425 . S
C1960 C1967 1.409 . S
C1961 H1953 0.930 . S
C1961 C1959 1.419 . S
C1961 C1962 1.360 1_565 S
C1962 H1954 0.930 . S
C1962 C1961 1.360 1_545 S
C1962 C1965 1.412 . S
C1963 H1955 0.930 . S
C1963 C1964 1.355 . S
C1963 C1965 1.415 . S
C1964 C1963 1.355 . S
C1964 C1966 1.419 . S
C1965 C1960 1.425 . S
C1965 C1962 1.412 . S
C1965 C1963 1.415 . S
C1966 H1956 0.930 . S
C1966 C1964 1.419 . S
C1966 C1967 1.362 . S
C1967 H1957 0.930 . S
C1967 C1960 1.409 . S
C1967 C1966 1.362 . S
H1968 C1974 0.930 . S
H1969 C1977 0.930 . S
H1970 C1978 0.930 . S
H1971 C1979 0.930 . S
H1972 C1982 0.930 . S
H1973 C1983 0.930 . S
C1974 H1968 0.930 . S
C1974 C1975 1.355 . S
C1974 C1976 1.415 . S
C1975 C1974 1.355 . S
C1975 C1977 1.419 . S
C1976 C1974 1.415 . S
C1976 C1981 1.425 . S
C1976 C1983 1.409 1_455 S
C1977 H1969 0.930 . S
C1977 C1975 1.419 . S
C1977 C1978 1.362 . S
C1978 H1970 0.930 . S
C1978 C1977 1.362 . S
C1978 C1981 1.409 . S
C1979 H1971 0.930 . S
C1979 C1980 1.355 1_455 S
C1979 C1981 1.415 . S
C1980 C1979 1.355 1_655 S
C1980 C1982 1.419 . S
C1981 C1976 1.425 . S
C1981 C1978 1.409 . S
C1981 C1979 1.415 . S
C1982 H1972 0.930 . S
C1982 C1980 1.419 . S
C1982 C1983 1.362 . S
C1983 H1973 0.930 . S
C1983 C1976 1.409 1_655 S
C1983 C1982 1.362 . S
H1984 C1990 0.930 . S
H1985 C1993 0.930 . S
H1986 C1994 0.930 . S
H1987 C1995 0.930 . S
H1988 C1998 0.930 . S
H1989 C1999 0.930 . S
C1990 H1984 0.930 . S
C1990 C1991 1.355 . S
C1990 C1992 1.415 . S
C1991 C1990 1.355 . S
C1991 C1993 1.419 . S
C1992 C1990 1.415 . S
C1992 C1997 1.425 . S
C1992 C1999 1.409 . S
C1993 H1985 0.930 . S
C1993 C1991 1.419 . S
C1993 C1994 1.362 . S
C1994 H1986 0.930 . S
C1994 C1993 1.362 . S
C1994 C1997 1.409 . S
C1995 H1987 0.930 . S
C1995 C1996 1.355 . S
C1995 C1997 1.415 . S
C1996 C1995 1.355 . S
C1996 C1998 1.419 . S
C1997 C1992 1.425 . S
C1997 C1994 1.409 . S
C1997 C1995 1.415 . S
C1998 H1988 0.930 . S
C1998 C1996 1.419 . S
C1998 C1999 1.362 . S
C1999 H1989 0.930 . S
C1999 C1992 1.409 . S
C1999 C1998 1.362 . S
H2000 C2006 0.930 1_545 S
H2001 C2009 0.930 . S
H2002 C2010 0.930 . S
H2003 C2011 0.930 . S
H2004 C2014 0.930 . S
H2005 C2015 0.930 . S
C2006 H2000 0.930 1_565 S
C2006 C2007 1.355 . S
C2006 C2008 1.415 1_565 S
C2007 C2006 1.355 . S
C2007 C2009 1.419 . S
C2008 C2006 1.415 1_545 S
C2008 C2013 1.425 1_545 S
C2008 C2015 1.409 . S
C2009 H2001 0.930 . S
C2009 C2007 1.419 . S
C2009 C2010 1.362 . S
C2010 H2002 0.930 . S
C2010 C2009 1.362 . S
C2010 C2013 1.409 . S
C2011 H2003 0.930 . S
C2011 C2012 1.355 1_565 S
C2011 C2013 1.415 . S
C2012 C2011 1.355 1_545 S
C2012 C2014 1.419 . S
C2013 C2008 1.425 1_565 S
C2013 C2010 1.409 . S
C2013 C2011 1.415 . S
C2014 H2004 0.930 . S
C2014 C2012 1.419 . S
C2014 C2015 1.362 . S
C2015 H2005 0.930 . S
C2015 C2008 1.409 . S
C2015 C2014 1.362 . S
H2016 C2022 0.930 . S
H2017 C2025 0.930 . S
H2018 C2026 0.930 . S
H2019 C2027 0.930 . S
H2020 C2030 0.930 1_545 S
H2021 C2031 0.930 . S
C2022 H2016 0.930 . S
C2022 C2023 1.355 . S
C2022 C2024 1.415 . S
C2023 C2022 1.355 . S
C2023 C2025 1.419 . S
C2024 C2022 1.415 . S
C2024 C2029 1.425 . S
C2024 C2031 1.409 . S
C2025 H2017 0.930 . S
C2025 C2023 1.419 . S
C2025 C2026 1.362 . S
C2026 H2018 0.930 . S
C2026 C2025 1.362 . S
C2026 C2029 1.409 . S
C2027 H2019 0.930 . S
C2027 C2028 1.355 . S
C2027 C2029 1.415 . S
C2028 C2027 1.355 . S
C2028 C2030 1.419 . S
C2029 C2024 1.425 . S
C2029 C2026 1.409 . S
C2029 C2027 1.415 . S
C2030 H2020 0.930 1_565 S
C2030 C2028 1.419 . S
C2030 C2031 1.362 . S
C2031 H2021 0.930 . S
C2031 C2024 1.409 . S
C2031 C2030 1.362 . S
H2032 C2038 0.930 . S
H2033 C2041 0.930 . S
H2034 C2042 0.930 . S
H2035 C2043 0.930 . S
H2036 C2046 0.930 . S
H2037 C2047 0.930 . S
C2038 H2032 0.930 . S
C2038 C2039 1.355 . S
C2038 C2040 1.415 . S
C2039 C2038 1.355 . S
C2039 C2041 1.419 . S
C2040 C2038 1.415 . S
C2040 C2045 1.425 . S
C2040 C2047 1.409 . S
C2041 H2033 0.930 . S
C2041 C2039 1.419 . S
C2041 C2042 1.362 . S
C2042 H2034 0.930 . S
C2042 C2041 1.362 . S
C2042 C2045 1.409 . S
C2043 H2035 0.930 . S
C2043 C2044 1.355 . S
C2043 C2045 1.415 . S
C2044 C2043 1.355 . S
C2044 C2046 1.419 . S
C2045 C2040 1.425 . S
C2045 C2042 1.409 . S
C2045 C2043 1.415 . S
C2046 H2036 0.930 . S
C2046 C2044 1.419 . S
C2046 C2047 1.362 . S
C2047 H2037 0.930 . S
C2047 C2040 1.409 . S
C2047 C2046 1.362 . S
H2048 C2054 0.930 . S
H2049 C2057 0.930 . S
H2050 C2058 0.930 . S
H2051 C2059 0.930 . S
H2052 C2062 0.930 . S
H2053 C2063 0.930 . S
C2054 H2048 0.930 . S
C2054 C2055 1.355 . S
C2054 C2056 1.415 . S
C2055 C2054 1.355 . S
C2055 C2057 1.419 . S
C2056 C2054 1.415 . S
C2056 C2061 1.425 . S
C2056 C2063 1.409 . S
C2057 H2049 0.930 . S
C2057 C2055 1.419 . S
C2057 C2058 1.362 . S
C2058 H2050 0.930 . S
C2058 C2057 1.362 . S
C2058 C2061 1.409 . S
C2059 H2051 0.930 . S
C2059 C2060 1.355 . S
C2059 C2061 1.415 . S
C2060 C2059 1.355 . S
C2060 C2062 1.419 . S
C2061 C2056 1.425 . S
C2061 C2058 1.409 . S
C2061 C2059 1.415 . S
C2062 H2052 0.930 . S
C2062 C2060 1.419 . S
C2062 C2063 1.362 . S
C2063 H2053 0.930 . S
C2063 C2056 1.409 . S
C2063 C2062 1.362 . S
H2064 C2070 0.930 . S
H2065 C2073 0.930 . S
H2066 C2074 0.923 1_556 S
H2067 C2075 0.930 . S
H2068 C2078 0.930 . S
H2069 C2079 0.930 . S
C2070 H2064 0.930 . S
C2070 C2071 1.355 . S
C2070 C2072 1.415 1_565 S
C2071 C2070 1.355 . S
C2071 C2073 1.419 . S
C2072 C2070 1.415 1_545 S
C2072 C2077 1.425 . S
C2072 C2079 1.409 . S
C2073 H2065 0.930 . S
C2073 C2071 1.419 . S
C2073 C2074 1.362 1_565 S
C2074 H2066 0.923 1_554 S
C2074 C2073 1.362 1_545 S
C2074 C2077 1.409 . S
C2075 H2067 0.930 . S
C2075 C2076 1.355 . S
C2075 C2077 1.415 . S
C2076 C2075 1.355 . S
C2076 C2078 1.419 . S
C2077 C2072 1.425 . S
C2077 C2074 1.409 . S
C2077 C2075 1.415 . S
C2078 H2068 0.930 . S
C2078 C2076 1.419 . S
C2078 C2079 1.362 . S
C2079 H2069 0.930 . S
C2079 C2072 1.409 . S
C2079 C2078 1.362 . S
H2080 C2086 0.930 1_556 S
H2081 C2089 0.930 . S
H2082 C2090 0.930 . S
H2083 C2091 0.930 . S
H2084 C2094 0.931 . S
H2085 C2095 0.930 . S
C2086 H2080 0.930 1_554 S
C2086 C2087 1.355 . S
C2086 C2088 1.415 1_455 S
C2087 C2086 1.355 . S
C2087 C2089 1.419 . S
C2088 C2086 1.415 1_655 S
C2088 C2093 1.425 . S
C2088 C2095 1.409 1_554 S
C2089 H2081 0.930 . S
C2089 C2087 1.419 . S
C2089 C2090 1.362 1_455 S
C2090 H2082 0.930 . S
C2090 C2089 1.362 1_655 S
C2090 C2093 1.409 . S
C2091 H2083 0.930 . S
C2091 C2092 1.355 . S
C2091 C2093 1.415 . S
C2092 C2091 1.355 . S
C2092 C2094 1.417 1_554 S
C2093 C2088 1.425 . S
C2093 C2090 1.409 . S
C2093 C2091 1.415 . S
C2094 H2084 0.931 . S
C2094 C2092 1.417 1_556 S
C2094 C2095 1.363 . S
C2095 H2085 0.930 . S
C2095 C2088 1.409 1_556 S
C2095 C2094 1.363 . S
H2096 C2102 0.930 . S
H2097 C2105 0.930 . S
H2098 C2106 0.930 . S
H2099 C2107 0.930 1_556 S
H2100 C2110 0.930 . S
H2101 C2111 0.930 . S
C2102 H2096 0.930 . S
C2102 C2103 1.355 . S
C2102 C2104 1.415 . S
C2103 C2102 1.355 . S
C2103 C2105 1.419 1_554 S
C2104 C2102 1.415 . S
C2104 C2109 1.425 . S
C2104 C2111 1.409 . S
C2105 H2097 0.930 . S
C2105 C2103 1.419 1_556 S
C2105 C2106 1.362 . S
C2106 H2098 0.930 . S
C2106 C2105 1.362 . S
C2106 C2109 1.409 1_556 S
C2107 H2099 0.930 1_554 S
C2107 C2108 1.355 . S
C2107 C2109 1.415 . S
C2108 C2107 1.355 . S
C2108 C2110 1.419 . S
C2109 C2104 1.425 . S
C2109 C2106 1.409 1_554 S
C2109 C2107 1.415 . S
C2110 H2100 0.930 . S
C2110 C2108 1.419 . S
C2110 C2111 1.362 . S
C2111 H2101 0.930 . S
C2111 C2104 1.409 . S
C2111 C2110 1.362 . S
H2112 C2118 0.930 . S
H2113 C2121 0.930 . S
H2114 C2122 0.930 . S
H2115 C2123 0.930 . S
H2116 C2126 0.930 . S
H2117 C2127 0.928 . S
C2118 H2112 0.930 . S
C2118 C2119 1.355 . S
C2118 C2120 1.415 . S
C2119 C2118 1.355 . S
C2119 C2121 1.419 . S
C2120 C2118 1.415 . S
C2120 C2125 1.425 . S
C2120 C2127 1.408 . S
C2121 H2113 0.930 . S
C2121 C2119 1.419 . S
C2121 C2122 1.362 . S
C2122 H2114 0.930 . S
C2122 C2121 1.362 . S
C2122 C2125 1.409 . S
C2123 H2115 0.930 . S
C2123 C2124 1.355 . S
C2123 C2125 1.415 1_565 S
C2124 C2123 1.355 . S
C2124 C2126 1.419 . S
C2125 C2120 1.425 . S
C2125 C2122 1.409 . S
C2125 C2123 1.415 1_545 S
C2126 H2116 0.930 . S
C2126 C2124 1.419 . S
C2126 C2127 1.366 1_565 S
C2127 H2117 0.928 . S
C2127 C2120 1.408 . S
C2127 C2126 1.366 1_545 S
H2128 C2134 0.930 . S
H2129 C2137 0.929 . S
H2130 C2138 0.930 . S
H2131 C2139 0.930 . S
H2132 C2142 0.930 . S
H2133 C2143 0.930 . S
C2134 H2128 0.930 . S
C2134 C2135 1.355 . S
C2134 C2136 1.415 . S
C2135 C2134 1.355 . S
C2135 C2137 1.411 1_655 S
C2136 C2134 1.415 . S
C2136 C2141 1.425 1_655 S
C2136 C2143 1.409 . S
C2137 H2129 0.929 . S
C2137 C2135 1.411 1_455 S
C2137 C2138 1.371 . S
C2138 H2130 0.930 . S
C2138 C2137 1.371 . S
C2138 C2141 1.409 . S
C2139 H2131 0.930 . S
C2139 C2140 1.355 . S
C2139 C2141 1.415 . S
C2140 C2139 1.355 . S
C2140 C2142 1.419 1_455 S
C2141 C2136 1.425 1_455 S
C2141 C2138 1.409 . S
C2141 C2139 1.415 . S
C2142 H2132 0.930 . S
C2142 C2140 1.419 1_655 S
C2142 C2143 1.362 . S
C2143 H2133 0.930 . S
C2143 C2136 1.409 . S
C2143 C2142 1.362 . S
H2144 C2150 0.930 . S
H2145 C2153 0.930 . S
H2146 C2154 0.930 . S
H2147 C2155 0.930 . S
H2148 C2158 0.930 . S
H2149 C2159 0.930 . S
C2150 H2144 0.930 . S
C2150 C2151 1.355 . S
C2150 C2152 1.415 . S
C2151 C2150 1.355 . S
C2151 C2153 1.419 . S
C2152 C2150 1.415 . S
C2152 C2157 1.425 . S
C2152 C2159 1.409 . S
C2153 H2145 0.930 . S
C2153 C2151 1.419 . S
C2153 C2154 1.362 . S
C2154 H2146 0.930 . S
C2154 C2153 1.362 . S
C2154 C2157 1.409 . S
C2155 H2147 0.930 . S
C2155 C2156 1.355 . S
C2155 C2157 1.415 . S
C2156 C2155 1.355 . S
C2156 C2158 1.419 . S
C2157 C2152 1.425 . S
C2157 C2154 1.409 . S
C2157 C2155 1.415 . S
C2158 H2148 0.930 . S
C2158 C2156 1.419 . S
C2158 C2159 1.362 . S
C2159 H2149 0.930 . S
C2159 C2152 1.409 . S
C2159 C2158 1.362 . S
H2160 C2166 0.930 . S
H2161 C2169 0.925 1_554 S
H2162 C2170 0.930 . S
H2163 C2171 0.930 . S
H2164 C2174 0.930 . S
H2165 C2175 0.930 . S
C2166 H2160 0.930 . S
C2166 C2167 1.355 . S
C2166 C2168 1.415 . S
C2167 C2166 1.355 . S
C2167 C2169 1.429 . S
C2168 C2166 1.415 . S
C2168 C2173 1.425 . S
C2168 C2175 1.409 . S
C2169 H2161 0.925 1_556 S
C2169 C2167 1.429 . S
C2169 C2170 1.359 1_556 S
C2170 H2162 0.930 . S
C2170 C2169 1.359 1_554 S
C2170 C2173 1.409 1_554 S
C2171 H2163 0.930 . S
C2171 C2172 1.355 1_554 S
C2171 C2173 1.415 1_544 S
C2172 C2171 1.355 1_556 S
C2172 C2174 1.419 . S
C2173 C2168 1.425 . S
C2173 C2170 1.409 1_556 S
C2173 C2171 1.415 1_566 S
C2174 H2164 0.930 . S
C2174 C2172 1.419 . S
C2174 C2175 1.362 1_545 S
C2175 H2165 0.930 . S
C2175 C2168 1.409 . S
C2175 C2174 1.362 1_565 S
H2176 C2182 0.930 . S
H2177 C2185 0.930 . S
H2178 C2186 0.934 1_455 S
H2179 C2187 0.930 . S
H2180 C2190 0.930 . S
H2181 C2191 0.930 . S
C2182 H2176 0.930 . S
C2182 C2183 1.355 1_554 S
C2182 C2184 1.420 1_655 S
C2183 C2182 1.355 1_556 S
C2183 C2185 1.419 . S
C2184 C2182 1.420 1_455 S
C2184 C2189 1.412 1_554 S
C2184 C2191 1.417 . S
C2185 H2177 0.930 . S
C2185 C2183 1.419 . S
C2185 C2186 1.370 . S
C2186 H2178 0.934 1_655 S
C2186 C2185 1.370 . S
C2186 C2189 1.398 1_655 S
C2187 H2179 0.930 . S
C2187 C2188 1.355 . S
C2187 C2189 1.415 . S
C2188 C2187 1.355 . S
C2188 C2190 1.419 1_556 S
C2189 C2184 1.412 1_556 S
C2189 C2186 1.398 1_455 S
C2189 C2187 1.415 . S
C2190 H2180 0.930 . S
C2190 C2188 1.419 1_554 S
C2190 C2191 1.362 . S
C2191 H2181 0.930 . S
C2191 C2184 1.417 . S
C2191 C2190 1.362 . S
H2192 C2198 0.930 . S
H2193 C2201 0.930 . S
H2194 C2202 0.930 . S
H2195 C2203 0.930 . S
H2196 C2206 0.930 . S
H2197 C2207 0.930 . S
C2198 H2192 0.930 . S
C2198 C2199 1.355 1_554 S
C2198 C2200 1.415 . S
C2199 C2198 1.355 1_556 S
C2199 C2201 1.419 . S
C2200 C2198 1.415 . S
C2200 C2205 1.425 1_554 S
C2200 C2207 1.409 . S
C2201 H2193 0.930 . S
C2201 C2199 1.419 . S
C2201 C2202 1.362 . S
C2202 H2194 0.930 . S
C2202 C2201 1.362 . S
C2202 C2205 1.409 . S
C2203 H2195 0.930 . S
C2203 C2204 1.355 . S
C2203 C2205 1.415 . S
C2204 C2203 1.355 . S
C2204 C2206 1.419 1_556 S
C2205 C2200 1.425 1_556 S
C2205 C2202 1.409 . S
C2205 C2203 1.415 . S
C2206 H2196 0.930 . S
C2206 C2204 1.419 1_554 S
C2206 C2207 1.362 . S
C2207 H2197 0.930 . S
C2207 C2200 1.409 . S
C2207 C2206 1.362 . S
H2208 C2214 0.930 . S
H2209 C2217 0.930 . S
H2210 C2218 0.930 . S
H2211 C2219 0.930 . S
H2212 C2222 0.930 . S
H2213 C2223 0.930 . S
C2214 H2208 0.930 . S
C2214 C2215 1.355 . S
C2214 C2216 1.415 . S
C2215 C2214 1.355 . S
C2215 C2217 1.419 . S
C2216 C2214 1.415 . S
C2216 C2221 1.425 . S
C2216 C2223 1.409 . S
C2217 H2209 0.930 . S
C2217 C2215 1.419 . S
C2217 C2218 1.362 . S
C2218 H2210 0.930 . S
C2218 C2217 1.362 . S
C2218 C2221 1.409 . S
C2219 H2211 0.930 . S
C2219 C2220 1.355 . S
C2219 C2221 1.415 1_655 S
C2220 C2219 1.355 . S
C2220 C2222 1.419 . S
C2221 C2216 1.425 . S
C2221 C2218 1.409 . S
C2221 C2219 1.415 1_455 S
C2222 H2212 0.930 . S
C2222 C2220 1.419 . S
C2222 C2223 1.362 1_655 S
C2223 H2213 0.930 . S
C2223 C2216 1.409 . S
C2223 C2222 1.362 1_455 S
H2224 C2230 0.930 . S
H2225 C2233 0.930 . S
H2226 C2234 0.930 . S
H2227 C2235 0.930 . S
H2228 C2238 0.930 . S
H2229 C2239 0.930 . S
C2230 H2224 0.930 . S
C2230 C2231 1.355 . S
C2230 C2232 1.415 . S
C2231 C2230 1.355 . S
C2231 C2233 1.419 . S
C2232 C2230 1.415 . S
C2232 C2237 1.425 . S
C2232 C2239 1.409 . S
C2233 H2225 0.930 . S
C2233 C2231 1.419 . S
C2233 C2234 1.362 . S
C2234 H2226 0.930 . S
C2234 C2233 1.362 . S
C2234 C2237 1.409 . S
C2235 H2227 0.930 . S
C2235 C2236 1.355 . S
C2235 C2237 1.415 . S
C2236 C2235 1.355 . S
C2236 C2238 1.419 . S
C2237 C2232 1.425 . S
C2237 C2234 1.409 . S
C2237 C2235 1.415 . S
C2238 H2228 0.930 . S
C2238 C2236 1.419 . S
C2238 C2239 1.362 . S
C2239 H2229 0.930 . S
C2239 C2232 1.409 . S
C2239 C2238 1.362 . S
H2240 C2246 0.930 . S
H2241 C2249 0.930 . S
H2242 C2250 0.930 . S
H2243 C2251 0.930 . S
H2244 C2254 0.930 . S
H2245 C2255 0.930 . S
C2246 H2240 0.930 . S
C2246 C2247 1.355 . S
C2246 C2248 1.415 . S
C2247 C2246 1.355 . S
C2247 C2249 1.419 . S
C2248 C2246 1.415 . S
C2248 C2253 1.425 . S
C2248 C2255 1.409 . S
C2249 H2241 0.930 . S
C2249 C2247 1.419 . S
C2249 C2250 1.362 . S
C2250 H2242 0.930 . S
C2250 C2249 1.362 . S
C2250 C2253 1.409 . S
C2251 H2243 0.930 . S
C2251 C2252 1.355 . S
C2251 C2253 1.415 1_545 S
C2252 C2251 1.355 . S
C2252 C2254 1.419 . S
C2253 C2248 1.425 . S
C2253 C2250 1.409 . S
C2253 C2251 1.415 1_565 S
C2254 H2244 0.930 . S
C2254 C2252 1.419 . S
C2254 C2255 1.362 1_545 S
C2255 H2245 0.930 . S
C2255 C2248 1.409 . S
C2255 C2254 1.362 1_565 S
H2256 C2262 0.930 . S
H2257 C2265 0.930 . S
H2258 C2266 0.930 . S
H2259 C2267 0.930 . S
H2260 C2270 0.930 . S
H2261 C2271 0.930 . S
C2262 H2256 0.930 . S
C2262 C2263 1.355 . S
C2262 C2264 1.415 . S
C2263 C2262 1.355 . S
C2263 C2265 1.419 . S
C2264 C2262 1.415 . S
C2264 C2269 1.425 . S
C2264 C2271 1.409 . S
C2265 H2257 0.930 . S
C2265 C2263 1.419 . S
C2265 C2266 1.362 . S
C2266 H2258 0.930 . S
C2266 C2265 1.362 . S
C2266 C2269 1.409 . S
C2267 H2259 0.930 . S
C2267 C2268 1.355 . S
C2267 C2269 1.415 . S
C2268 C2267 1.355 . S
C2268 C2270 1.419 . S
C2269 C2264 1.425 . S
C2269 C2266 1.409 . S
C2269 C2267 1.415 . S
C2270 H2260 0.930 . S
C2270 C2268 1.419 . S
C2270 C2271 1.362 . S
C2271 H2261 0.930 . S
C2271 C2264 1.409 . S
C2271 C2270 1.362 . S
H2272 C2278 0.930 . S
H2273 C2281 0.930 . S
H2274 C2282 0.930 . S
H2275 C2283 0.930 . S
H2276 C2286 0.930 . S
H2277 C2287 0.930 . S
C2278 H2272 0.930 . S
C2278 C2279 1.355 . S
C2278 C2280 1.415 . S
C2279 C2278 1.355 . S
C2279 C2281 1.419 . S
C2280 C2278 1.415 . S
C2280 C2285 1.425 . S
C2280 C2287 1.409 . S
C2281 H2273 0.930 . S
C2281 C2279 1.419 . S
C2281 C2282 1.362 . S
C2282 H2274 0.930 . S
C2282 C2281 1.362 . S
C2282 C2285 1.409 . S
C2283 H2275 0.930 . S
C2283 C2284 1.355 . S
C2283 C2285 1.415 . S
C2284 C2283 1.355 . S
C2284 C2286 1.419 . S
C2285 C2280 1.425 . S
C2285 C2282 1.409 . S
C2285 C2283 1.415 . S
C2286 H2276 0.930 . S
C2286 C2284 1.419 . S
C2286 C2287 1.362 . S
C2287 H2277 0.930 . S
C2287 C2280 1.409 . S
C2287 C2286 1.362 . S
H2288 C2294 0.930 . S
H2289 C2297 0.930 . S
H2290 C2298 0.930 . S
H2291 C2299 0.930 . S
H2292 C2302 0.930 1_565 S
H2293 C2303 0.930 1_565 S
C2294 H2288 0.930 . S
C2294 C2295 1.355 . S
C2294 C2296 1.415 . S
C2295 C2294 1.355 . S
C2295 C2297 1.419 . S
C2296 C2294 1.415 . S
C2296 C2301 1.425 . S
C2296 C2303 1.409 . S
C2297 H2289 0.930 . S
C2297 C2295 1.419 . S
C2297 C2298 1.362 . S
C2298 H2290 0.930 . S
C2298 C2297 1.362 . S
C2298 C2301 1.409 . S
C2299 H2291 0.930 . S
C2299 C2300 1.355 . S
C2299 C2301 1.415 . S
C2300 C2299 1.355 . S
C2300 C2302 1.419 . S
C2301 C2296 1.425 . S
C2301 C2298 1.409 . S
C2301 C2299 1.415 . S
C2302 H2292 0.930 1_545 S
C2302 C2300 1.419 . S
C2302 C2303 1.362 . S
C2303 H2293 0.930 1_545 S
C2303 C2296 1.409 . S
C2303 C2302 1.362 . S
H2304 C2310 0.930 . S
H2305 C2313 0.930 . S
H2306 C2314 0.930 . S
H2307 C2315 0.930 . S
H2308 C2318 0.930 . S
H2309 C2319 0.930 . S
C2310 H2304 0.930 . S
C2310 C2311 1.355 . S
C2310 C2312 1.415 . S
C2311 C2310 1.355 . S
C2311 C2313 1.419 . S
C2312 C2310 1.415 . S
C2312 C2317 1.425 . S
C2312 C2319 1.409 . S
C2313 H2305 0.930 . S
C2313 C2311 1.419 . S
C2313 C2314 1.362 . S
C2314 H2306 0.930 . S
C2314 C2313 1.362 . S
C2314 C2317 1.409 . S
C2315 H2307 0.930 . S
C2315 C2316 1.355 . S
C2315 C2317 1.415 . S
C2316 C2315 1.355 . S
C2316 C2318 1.419 . S
C2317 C2312 1.425 . S
C2317 C2314 1.409 . S
C2317 C2315 1.415 . S
C2318 H2308 0.930 . S
C2318 C2316 1.419 . S
C2318 C2319 1.362 . S
C2319 H2309 0.930 . S
C2319 C2312 1.409 . S
C2319 C2318 1.362 . S
H2320 C2326 0.930 . S
H2321 C2329 0.930 . S
H2322 C2330 0.930 . S
H2323 C2331 0.930 . S
H2324 C2334 0.930 . S
H2325 C2335 0.930 . S
C2326 H2320 0.930 . S
C2326 C2327 1.355 . S
C2326 C2328 1.415 . S
C2327 C2326 1.355 . S
C2327 C2329 1.419 . S
C2328 C2326 1.415 . S
C2328 C2333 1.425 . S
C2328 C2335 1.409 . S
C2329 H2321 0.930 . S
C2329 C2327 1.419 . S
C2329 C2330 1.362 . S
C2330 H2322 0.930 . S
C2330 C2329 1.362 . S
C2330 C2333 1.409 . S
C2331 H2323 0.930 . S
C2331 C2332 1.355 . S
C2331 C2333 1.415 . S
C2332 C2331 1.355 . S
C2332 C2334 1.419 . S
C2333 C2328 1.425 . S
C2333 C2330 1.409 . S
C2333 C2331 1.415 . S
C2334 H2324 0.930 . S
C2334 C2332 1.419 . S
C2334 C2335 1.362 . S
C2335 H2325 0.930 . S
C2335 C2328 1.409 . S
C2335 C2334 1.362 . S
H2336 C2342 0.930 . S
H2337 C2345 0.930 . S
H2338 C2346 0.930 . S
H2339 C2347 0.930 . S
H2340 C2350 0.930 . S
H2341 C2351 0.930 . S
C2342 H2336 0.930 . S
C2342 C2343 1.355 . S
C2342 C2344 1.415 . S
C2343 C2342 1.355 . S
C2343 C2345 1.419 . S
C2344 C2342 1.415 . S
C2344 C2349 1.425 . S
C2344 C2351 1.409 . S
C2345 H2337 0.930 . S
C2345 C2343 1.419 . S
C2345 C2346 1.362 . S
C2346 H2338 0.930 . S
C2346 C2345 1.362 . S
C2346 C2349 1.409 . S
C2347 H2339 0.930 . S
C2347 C2348 1.355 . S
C2347 C2349 1.415 . S
C2348 C2347 1.355 . S
C2348 C2350 1.419 . S
C2349 C2344 1.425 . S
C2349 C2346 1.409 . S
C2349 C2347 1.415 . S
C2350 H2340 0.930 . S
C2350 C2348 1.419 . S
C2350 C2351 1.362 . S
C2351 H2341 0.930 . S
C2351 C2344 1.409 . S
C2351 C2350 1.362 . S
H2352 C2358 0.930 . S
H2353 C2361 0.930 . S
H2354 C2362 0.930 . S
H2355 C2363 0.930 . S
H2356 C2366 0.930 . S
H2357 C2367 0.930 . S
C2358 H2352 0.930 . S
C2358 C2359 1.355 . S
C2358 C2360 1.415 . S
C2359 C2358 1.355 . S
C2359 C2361 1.419 . S
C2360 C2358 1.415 . S
C2360 C2365 1.425 . S
C2360 C2367 1.409 . S
C2361 H2353 0.930 . S
C2361 C2359 1.419 . S
C2361 C2362 1.362 . S
C2362 H2354 0.930 . S
C2362 C2361 1.362 . S
C2362 C2365 1.409 . S
C2363 H2355 0.930 . S
C2363 C2364 1.355 . S
C2363 C2365 1.415 . S
C2364 C2363 1.355 . S
C2364 C2366 1.419 . S
C2365 C2360 1.425 . S
C2365 C2362 1.409 . S
C2365 C2363 1.415 . S
C2366 H2356 0.930 . S
C2366 C2364 1.419 . S
C2366 C2367 1.362 . S
C2367 H2357 0.930 . S
C2367 C2360 1.409 . S
C2367 C2366 1.362 . S
H2368 C2374 0.930 . S
H2369 C2377 0.930 . S
H2370 C2378 0.930 . S
H2371 C2379 0.930 . S
H2372 C2382 0.930 . S
H2373 C2383 0.930 . S
C2374 H2368 0.930 . S
C2374 C2375 1.355 . S
C2374 C2376 1.415 . S
C2375 C2374 1.355 . S
C2375 C2377 1.419 . S
C2376 C2374 1.415 . S
C2376 C2381 1.425 . S
C2376 C2383 1.409 . S
C2377 H2369 0.930 . S
C2377 C2375 1.419 . S
C2377 C2378 1.362 . S
C2378 H2370 0.930 . S
C2378 C2377 1.362 . S
C2378 C2381 1.409 . S
C2379 H2371 0.930 . S
C2379 C2380 1.355 . S
C2379 C2381 1.415 . S
C2380 C2379 1.355 . S
C2380 C2382 1.419 . S
C2381 C2376 1.425 . S
C2381 C2378 1.409 . S
C2381 C2379 1.415 . S
C2382 H2372 0.930 . S
C2382 C2380 1.419 . S
C2382 C2383 1.362 . S
C2383 H2373 0.930 . S
C2383 C2376 1.409 . S
C2383 C2382 1.362 . S
H2384 C2390 0.930 . S
H2385 C2393 0.930 . S
H2386 C2394 0.930 . S
H2387 C2395 0.930 . S
H2388 C2398 0.930 . S
H2389 C2399 0.930 . S
C2390 H2384 0.930 . S
C2390 C2391 1.355 . S
C2390 C2392 1.415 . S
C2391 C2390 1.355 . S
C2391 C2393 1.419 . S
C2392 C2390 1.415 . S
C2392 C2397 1.425 . S
C2392 C2399 1.409 . S
C2393 H2385 0.930 . S
C2393 C2391 1.419 . S
C2393 C2394 1.362 . S
C2394 H2386 0.930 . S
C2394 C2393 1.362 . S
C2394 C2397 1.409 . S
C2395 H2387 0.930 . S
C2395 C2396 1.355 . S
C2395 C2397 1.415 . S
C2396 C2395 1.355 . S
C2396 C2398 1.419 . S
C2397 C2392 1.425 . S
C2397 C2394 1.409 . S
C2397 C2395 1.415 . S
C2398 H2388 0.930 . S
C2398 C2396 1.419 . S
C2398 C2399 1.362 . S
C2399 H2389 0.930 . S
C2399 C2392 1.409 . S
C2399 C2398 1.362 . S
H2400 C2406 0.930 . S
H2401 C2409 0.930 . S
H2402 C2410 0.930 . S
H2403 C2411 0.930 . S
H2404 C2414 0.930 . S
H2405 C2415 0.930 . S
C2406 H2400 0.930 . S
C2406 C2407 1.355 . S
C2406 C2408 1.415 . S
C2407 C2406 1.355 . S
C2407 C2409 1.419 . S
C2408 C2406 1.415 . S
C2408 C2413 1.425 . S
C2408 C2415 1.409 . S
C2409 H2401 0.930 . S
C2409 C2407 1.419 . S
C2409 C2410 1.362 . S
C2410 H2402 0.930 . S
C2410 C2409 1.362 . S
C2410 C2413 1.409 . S
C2411 H2403 0.930 . S
C2411 C2412 1.355 . S
C2411 C2413 1.415 . S
C2412 C2411 1.355 . S
C2412 C2414 1.419 . S
C2413 C2408 1.425 . S
C2413 C2410 1.409 . S
C2413 C2411 1.415 . S
C2414 H2404 0.930 . S
C2414 C2412 1.419 . S
C2414 C2415 1.362 . S
C2415 H2405 0.930 . S
C2415 C2408 1.409 . S
C2415 C2414 1.362 . S
H2416 C2422 0.930 . S
H2417 C2425 0.930 . S
H2418 C2426 0.930 . S
H2419 C2427 0.930 . S
H2420 C2430 0.930 . S
H2421 C2431 0.930 . S
C2422 H2416 0.930 . S
C2422 C2423 1.355 . S
C2422 C2424 1.415 . S
C2423 C2422 1.355 . S
C2423 C2425 1.419 . S
C2424 C2422 1.415 . S
C2424 C2429 1.425 . S
C2424 C2431 1.409 . S
C2425 H2417 0.930 . S
C2425 C2423 1.419 . S
C2425 C2426 1.362 . S
C2426 H2418 0.930 . S
C2426 C2425 1.362 . S
C2426 C2429 1.409 . S
C2427 H2419 0.930 . S
C2427 C2428 1.355 . S
C2427 C2429 1.415 . S
C2428 C2427 1.355 . S
C2428 C2430 1.419 . S
C2429 C2424 1.425 . S
C2429 C2426 1.409 . S
C2429 C2427 1.415 . S
C2430 H2420 0.930 . S
C2430 C2428 1.419 . S
C2430 C2431 1.362 . S
C2431 H2421 0.930 . S
C2431 C2424 1.409 . S
C2431 C2430 1.362 . S
H2432 C2438 0.930 . S
H2433 C2441 0.930 . S
H2434 C2442 0.930 . S
H2435 C2443 0.930 . S
H2436 C2446 0.930 . S
H2437 C2447 0.930 . S
C2438 H2432 0.930 . S
C2438 C2439 1.355 . S
C2438 C2440 1.415 . S
C2439 C2438 1.355 . S
C2439 C2441 1.419 . S
C2440 C2438 1.415 . S
C2440 C2445 1.425 . S
C2440 C2447 1.409 . S
C2441 H2433 0.930 . S
C2441 C2439 1.419 . S
C2441 C2442 1.362 . S
C2442 H2434 0.930 . S
C2442 C2441 1.362 . S
C2442 C2445 1.409 . S
C2443 H2435 0.930 . S
C2443 C2444 1.355 . S
C2443 C2445 1.415 . S
C2444 C2443 1.355 . S
C2444 C2446 1.419 . S
C2445 C2440 1.425 . S
C2445 C2442 1.409 . S
C2445 C2443 1.415 . S
C2446 H2436 0.930 . S
C2446 C2444 1.419 . S
C2446 C2447 1.362 . S
C2447 H2437 0.930 . S
C2447 C2440 1.409 . S
C2447 C2446 1.362 . S
H2448 C2454 0.930 . S
H2449 C2457 0.930 . S
H2450 C2458 0.930 . S
H2451 C2459 0.930 . S
H2452 C2462 0.930 . S
H2453 C2463 0.930 . S
C2454 H2448 0.930 . S
C2454 C2455 1.355 . S
C2454 C2456 1.415 . S
C2455 C2454 1.355 . S
C2455 C2457 1.419 . S
C2456 C2454 1.415 . S
C2456 C2461 1.425 . S
C2456 C2463 1.409 . S
C2457 H2449 0.930 . S
C2457 C2455 1.419 . S
C2457 C2458 1.362 . S
C2458 H2450 0.930 . S
C2458 C2457 1.362 . S
C2458 C2461 1.409 . S
C2459 H2451 0.930 . S
C2459 C2460 1.355 . S
C2459 C2461 1.415 . S
C2460 C2459 1.355 . S
C2460 C2462 1.419 . S
C2461 C2456 1.425 . S
C2461 C2458 1.409 . S
C2461 C2459 1.415 . S
C2462 H2452 0.930 . S
C2462 C2460 1.419 . S
C2462 C2463 1.362 . S
C2463 H2453 0.930 . S
C2463 C2456 1.409 . S
C2463 C2462 1.362 . S
H2464 C2470 0.930 . S
H2465 C2473 0.930 . S
H2466 C2474 0.930 . S
H2467 C2475 0.930 . S
H2468 C2478 0.930 . S
H2469 C2479 0.930 . S
C2470 H2464 0.930 . S
C2470 C2471 1.355 . S
C2470 C2472 1.415 . S
C2471 C2470 1.355 . S
C2471 C2473 1.419 . S
C2472 C2470 1.415 . S
C2472 C2477 1.425 . S
C2472 C2479 1.409 . S
C2473 H2465 0.930 . S
C2473 C2471 1.419 . S
C2473 C2474 1.362 . S
C2474 H2466 0.930 . S
C2474 C2473 1.362 . S
C2474 C2477 1.409 . S
C2475 H2467 0.930 . S
C2475 C2476 1.355 . S
C2475 C2477 1.415 . S
C2476 C2475 1.355 . S
C2476 C2478 1.419 . S
C2477 C2472 1.425 . S
C2477 C2474 1.409 . S
C2477 C2475 1.415 . S
C2478 H2468 0.930 . S
C2478 C2476 1.419 . S
C2478 C2479 1.362 . S
C2479 H2469 0.930 . S
C2479 C2472 1.409 . S
C2479 C2478 1.362 . S
H2480 C2486 0.930 . S
H2481 C2489 0.930 . S
H2482 C2490 0.930 . S
H2483 C2491 0.930 . S
H2484 C2494 0.930 . S
H2485 C2495 0.930 . S
C2486 H2480 0.930 . S
C2486 C2487 1.355 . S
C2486 C2488 1.415 . S
C2487 C2486 1.355 . S
C2487 C2489 1.419 . S
C2488 C2486 1.415 . S
C2488 C2493 1.425 . S
C2488 C2495 1.409 . S
C2489 H2481 0.930 . S
C2489 C2487 1.419 . S
C2489 C2490 1.362 . S
C2490 H2482 0.930 . S
C2490 C2489 1.362 . S
C2490 C2493 1.409 . S
C2491 H2483 0.930 . S
C2491 C2492 1.355 . S
C2491 C2493 1.415 . S
C2492 C2491 1.355 . S
C2492 C2494 1.419 . S
C2493 C2488 1.425 . S
C2493 C2490 1.409 . S
C2493 C2491 1.415 . S
C2494 H2484 0.930 . S
C2494 C2492 1.419 . S
C2494 C2495 1.362 . S
C2495 H2485 0.930 . S
C2495 C2488 1.409 . S
C2495 C2494 1.362 . S
H2496 C2502 0.930 . S
H2497 C2505 0.930 1_455 S
H2498 C2506 0.930 . S
H2499 C2507 0.930 . S
H2500 C2510 0.930 1_655 S
H2501 C2511 0.930 . S
C2502 H2496 0.930 . S
C2502 C2503 1.355 . S
C2502 C2504 1.415 . S
C2503 C2502 1.355 . S
C2503 C2505 1.419 . S
C2504 C2502 1.415 . S
C2504 C2509 1.425 1_655 S
C2504 C2511 1.409 . S
C2505 H2497 0.930 1_655 S
C2505 C2503 1.419 . S
C2505 C2506 1.362 1_655 S
C2506 H2498 0.930 . S
C2506 C2505 1.362 1_455 S
C2506 C2509 1.409 . S
C2507 H2499 0.930 . S
C2507 C2508 1.355 . S
C2507 C2509 1.415 . S
C2508 C2507 1.355 . S
C2508 C2510 1.419 . S
C2509 C2504 1.425 1_455 S
C2509 C2506 1.409 . S
C2509 C2507 1.415 . S
C2510 H2500 0.930 1_455 S
C2510 C2508 1.419 . S
C2510 C2511 1.362 1_455 S
C2511 H2501 0.930 . S
C2511 C2504 1.409 . S
C2511 C2510 1.362 1_655 S
H2512 C2518 0.930 . S
H2513 C2521 0.930 . S
H2514 C2522 0.930 . S
H2515 C2523 0.930 . S
H2516 C2526 0.930 . S
H2517 C2527 0.930 . S
C2518 H2512 0.930 . S
C2518 C2519 1.355 . S
C2518 C2520 1.415 . S
C2519 C2518 1.355 . S
C2519 C2521 1.419 . S
C2520 C2518 1.415 . S
C2520 C2525 1.425 . S
C2520 C2527 1.409 . S
C2521 H2513 0.930 . S
C2521 C2519 1.419 . S
C2521 C2522 1.362 . S
C2522 H2514 0.930 . S
C2522 C2521 1.362 . S
C2522 C2525 1.409 . S
C2523 H2515 0.930 . S
C2523 C2524 1.355 . S
C2523 C2525 1.415 . S
C2524 C2523 1.355 . S
C2524 C2526 1.419 . S
C2525 C2520 1.425 . S
C2525 C2522 1.409 . S
C2525 C2523 1.415 . S
C2526 H2516 0.930 . S
C2526 C2524 1.419 . S
C2526 C2527 1.362 . S
C2527 H2517 0.930 . S
C2527 C2520 1.409 . S
C2527 C2526 1.362 . S
H2528 C2534 0.930 1_565 S
H2529 C2537 0.930 . S
H2530 C2538 0.930 . S
H2531 C2539 0.930 1_545 S
H2532 C2542 0.930 . S
H2533 C2543 0.930 . S
C2534 H2528 0.930 1_545 S
C2534 C2535 1.355 . S
C2534 C2536 1.415 1_545 S
C2535 C2534 1.355 . S
C2535 C2537 1.419 . S
C2536 C2534 1.415 1_565 S
C2536 C2541 1.425 1_565 S
C2536 C2543 1.409 . S
C2537 H2529 0.930 . S
C2537 C2535 1.419 . S
C2537 C2538 1.362 . S
C2538 H2530 0.930 . S
C2538 C2537 1.362 . S
C2538 C2541 1.409 . S
C2539 H2531 0.930 1_565 S
C2539 C2540 1.355 . S
C2539 C2541 1.415 1_565 S
C2540 C2539 1.355 . S
C2540 C2542 1.419 . S
C2541 C2536 1.425 1_545 S
C2541 C2538 1.409 . S
C2541 C2539 1.415 1_545 S
C2542 H2532 0.930 . S
C2542 C2540 1.419 . S
C2542 C2543 1.362 . S
C2543 H2533 0.930 . S
C2543 C2536 1.409 . S
C2543 C2542 1.362 . S
H2544 C2550 0.930 . S
H2545 C2553 0.930 . S
H2546 C2554 0.930 . S
H2547 C2555 0.930 . S
H2548 C2558 0.930 . S
H2549 C2559 0.930 . S
C2550 H2544 0.930 . S
C2550 C2551 1.355 . S
C2550 C2552 1.415 1_545 S
C2551 C2550 1.355 . S
C2551 C2553 1.419 . S
C2552 C2550 1.415 1_565 S
C2552 C2557 1.425 1_565 S
C2552 C2559 1.409 . S
C2553 H2545 0.930 . S
C2553 C2551 1.419 . S
C2553 C2554 1.362 . S
C2554 H2546 0.930 . S
C2554 C2553 1.362 . S
C2554 C2557 1.409 . S
C2555 H2547 0.930 . S
C2555 C2556 1.355 . S
C2555 C2557 1.415 1_565 S
C2556 C2555 1.355 . S
C2556 C2558 1.419 . S
C2557 C2552 1.425 1_545 S
C2557 C2554 1.409 . S
C2557 C2555 1.415 1_545 S
C2558 H2548 0.930 . S
C2558 C2556 1.419 . S
C2558 C2559 1.362 . S
C2559 H2549 0.930 . S
C2559 C2552 1.409 . S
C2559 C2558 1.362 . S
H2560 C2566 0.930 . S
H2561 C2569 0.930 . S
H2562 C2570 0.930 . S
H2563 C2571 0.930 . S
H2564 C2574 0.930 . S
H2565 C2575 0.930 . S
C2566 H2560 0.930 . S
C2566 C2567 1.355 . S
C2566 C2568 1.415 . S
C2567 C2566 1.355 . S
C2567 C2569 1.419 . S
C2568 C2566 1.415 . S
C2568 C2573 1.425 1_455 S
C2568 C2575 1.409 . S
C2569 H2561 0.930 . S
C2569 C2567 1.419 . S
C2569 C2570 1.362 1_455 S
C2570 H2562 0.930 . S
C2570 C2569 1.362 1_655 S
C2570 C2573 1.409 . S
C2571 H2563 0.930 . S
C2571 C2572 1.355 . S
C2571 C2573 1.415 . S
C2572 C2571 1.355 . S
C2572 C2574 1.419 . S
C2573 C2568 1.425 1_655 S
C2573 C2570 1.409 . S
C2573 C2571 1.415 . S
C2574 H2564 0.930 . S
C2574 C2572 1.419 . S
C2574 C2575 1.362 1_655 S
C2575 H2565 0.930 . S
C2575 C2568 1.409 . S
C2575 C2574 1.362 1_455 S
H2576 C2582 0.930 . S
H2577 C2585 0.930 . S
H2578 C2586 0.930 . S
H2579 C2587 0.930 . S
H2580 C2590 0.930 . S
H2581 C2591 0.930 . S
C2582 H2576 0.930 . S
C2582 C2583 1.355 . S
C2582 C2584 1.415 . S
C2583 C2582 1.355 . S
C2583 C2585 1.419 . S
C2584 C2582 1.415 . S
C2584 C2589 1.425 . S
C2584 C2591 1.409 . S
C2585 H2577 0.930 . S
C2585 C2583 1.419 . S
C2585 C2586 1.362 . S
C2586 H2578 0.930 . S
C2586 C2585 1.362 . S
C2586 C2589 1.409 . S
C2587 H2579 0.930 . S
C2587 C2588 1.355 . S
C2587 C2589 1.415 . S
C2588 C2587 1.355 . S
C2588 C2590 1.419 . S
C2589 C2584 1.425 . S
C2589 C2586 1.409 . S
C2589 C2587 1.415 . S
C2590 H2580 0.930 . S
C2590 C2588 1.419 . S
C2590 C2591 1.362 . S
C2591 H2581 0.930 . S
C2591 C2584 1.409 . S
C2591 C2590 1.362 . S
H2592 C2598 0.930 . S
H2593 C2601 0.930 . S
H2594 C2602 0.930 . S
H2595 C2603 0.930 . S
H2596 C2606 0.930 . S
H2597 C2607 0.930 . S
C2598 H2592 0.930 . S
C2598 C2599 1.355 . S
C2598 C2600 1.415 . S
C2599 C2598 1.355 . S
C2599 C2601 1.419 . S
C2600 C2598 1.415 . S
C2600 C2605 1.425 1_655 S
C2600 C2607 1.409 1_655 S
C2601 H2593 0.930 . S
C2601 C2599 1.419 . S
C2601 C2602 1.362 . S
C2602 H2594 0.930 . S
C2602 C2601 1.362 . S
C2602 C2605 1.409 1_655 S
C2603 H2595 0.930 . S
C2603 C2604 1.355 . S
C2603 C2605 1.415 . S
C2604 C2603 1.355 . S
C2604 C2606 1.419 . S
C2605 C2600 1.425 1_455 S
C2605 C2602 1.409 1_455 S
C2605 C2603 1.415 . S
C2606 H2596 0.930 . S
C2606 C2604 1.419 . S
C2606 C2607 1.362 . S
C2607 H2597 0.930 . S
C2607 C2600 1.409 1_455 S
C2607 C2606 1.362 . S
H2608 C2614 0.930 . S
H2609 C2617 0.930 . S
H2610 C2618 0.930 . S
H2611 C2619 0.930 . S
H2612 C2622 0.930 . S
H2613 C2623 0.930 . S
C2614 H2608 0.930 . S
C2614 C2615 1.355 . S
C2614 C2616 1.415 . S
C2615 C2614 1.355 . S
C2615 C2617 1.419 . S
C2616 C2614 1.415 . S
C2616 C2621 1.425 . S
C2616 C2623 1.409 . S
C2617 H2609 0.930 . S
C2617 C2615 1.419 . S
C2617 C2618 1.362 . S
C2618 H2610 0.930 . S
C2618 C2617 1.362 . S
C2618 C2621 1.409 . S
C2619 H2611 0.930 . S
C2619 C2620 1.355 . S
C2619 C2621 1.415 . S
C2620 C2619 1.355 . S
C2620 C2622 1.419 . S
C2621 C2616 1.425 . S
C2621 C2618 1.409 . S
C2621 C2619 1.415 . S
C2622 H2612 0.930 . S
C2622 C2620 1.419 . S
C2622 C2623 1.362 . S
C2623 H2613 0.930 . S
C2623 C2616 1.409 . S
C2623 C2622 1.362 . S
H2624 C2630 0.930 . S
H2625 C2633 0.930 . S
H2626 C2634 0.930 . S
H2627 C2635 0.930 . S
H2628 C2638 0.930 . S
H2629 C2639 0.930 . S
C2630 H2624 0.930 . S
C2630 C2631 1.355 . S
C2630 C2632 1.415 . S
C2631 C2630 1.355 . S
C2631 C2633 1.419 . S
C2632 C2630 1.415 . S
C2632 C2637 1.425 1_545 S
C2632 C2639 1.409 . S
C2633 H2625 0.930 . S
C2633 C2631 1.419 . S
C2633 C2634 1.362 1_545 S
C2634 H2626 0.930 . S
C2634 C2633 1.362 1_565 S
C2634 C2637 1.409 . S
C2635 H2627 0.930 . S
C2635 C2636 1.355 . S
C2635 C2637 1.415 . S
C2636 C2635 1.355 . S
C2636 C2638 1.419 . S
C2637 C2632 1.425 1_565 S
C2637 C2634 1.409 . S
C2637 C2635 1.415 . S
C2638 H2628 0.930 . S
C2638 C2636 1.419 . S
C2638 C2639 1.362 1_565 S
C2639 H2629 0.930 . S
C2639 C2632 1.409 . S
C2639 C2638 1.362 1_545 S
H2640 C2646 0.930 . S
H2641 C2649 0.930 . S
H2642 C2650 0.930 . S
H2643 C2651 0.930 . S
H2644 C2654 0.930 . S
H2645 C2655 0.930 . S
C2646 H2640 0.930 . S
C2646 C2647 1.355 . S
C2646 C2648 1.415 . S
C2647 C2646 1.355 . S
C2647 C2649 1.419 . S
C2648 C2646 1.415 . S
C2648 C2653 1.425 1_655 S
C2648 C2655 1.409 . S
C2649 H2641 0.930 . S
C2649 C2647 1.419 . S
C2649 C2650 1.362 1_655 S
C2650 H2642 0.930 . S
C2650 C2649 1.362 1_455 S
C2650 C2653 1.409 . S
C2651 H2643 0.930 . S
C2651 C2652 1.355 . S
C2651 C2653 1.415 . S
C2652 C2651 1.355 . S
C2652 C2654 1.419 . S
C2653 C2648 1.425 1_455 S
C2653 C2650 1.409 . S
C2653 C2651 1.415 . S
C2654 H2644 0.930 . S
C2654 C2652 1.419 . S
C2654 C2655 1.362 1_455 S
C2655 H2645 0.930 . S
C2655 C2648 1.409 . S
C2655 C2654 1.362 1_655 S
H2656 C2662 0.930 . S
H2657 C2665 0.930 . S
H2658 C2666 0.930 . S
H2659 C2667 0.930 . S
H2660 C2670 0.930 . S
H2661 C2671 0.930 . S
C2662 H2656 0.930 . S
C2662 C2663 1.355 . S
C2662 C2664 1.415 . S
C2663 C2662 1.355 . S
C2663 C2665 1.419 . S
C2664 C2662 1.415 . S
C2664 C2669 1.425 . S
C2664 C2671 1.409 . S
C2665 H2657 0.930 . S
C2665 C2663 1.419 . S
C2665 C2666 1.362 . S
C2666 H2658 0.930 . S
C2666 C2665 1.362 . S
C2666 C2669 1.409 . S
C2667 H2659 0.930 . S
C2667 C2668 1.355 . S
C2667 C2669 1.415 . S
C2668 C2667 1.355 . S
C2668 C2670 1.419 . S
C2669 C2664 1.425 . S
C2669 C2666 1.409 . S
C2669 C2667 1.415 . S
C2670 H2660 0.930 . S
C2670 C2668 1.419 . S
C2670 C2671 1.362 . S
C2671 H2661 0.930 . S
C2671 C2664 1.409 . S
C2671 C2670 1.362 . S
H2672 C2678 0.930 1_565 S
H2673 C2681 0.930 . S
H2674 C2682 0.930 . S
H2675 C2683 0.930 1_545 S
H2676 C2686 0.930 . S
H2677 C2687 0.930 . S
C2678 H2672 0.930 1_545 S
C2678 C2679 1.355 . S
C2678 C2680 1.415 1_545 S
C2679 C2678 1.355 . S
C2679 C2681 1.419 . S
C2680 C2678 1.415 1_565 S
C2680 C2685 1.425 1_565 S
C2680 C2687 1.409 . S
C2681 H2673 0.930 . S
C2681 C2679 1.419 . S
C2681 C2682 1.362 . S
C2682 H2674 0.930 . S
C2682 C2681 1.362 . S
C2682 C2685 1.409 . S
C2683 H2675 0.930 1_565 S
C2683 C2684 1.355 . S
C2683 C2685 1.415 1_565 S
C2684 C2683 1.355 . S
C2684 C2686 1.419 . S
C2685 C2680 1.425 1_545 S
C2685 C2682 1.409 . S
C2685 C2683 1.415 1_545 S
C2686 H2676 0.930 . S
C2686 C2684 1.419 . S
C2686 C2687 1.362 . S
C2687 H2677 0.930 . S
C2687 C2680 1.409 . S
C2687 C2686 1.362 . S
H2688 C2694 0.930 . S
H2689 C2697 0.930 . S
H2690 C2698 0.930 . S
H2691 C2699 0.930 . S
H2692 C2702 0.930 . S
H2693 C2703 0.930 . S
C2694 H2688 0.930 . S
C2694 C2695 1.355 . S
C2694 C2696 1.415 . S
C2695 C2694 1.355 . S
C2695 C2697 1.419 . S
C2696 C2694 1.415 . S
C2696 C2701 1.425 . S
C2696 C2703 1.409 . S
C2697 H2689 0.930 . S
C2697 C2695 1.419 . S
C2697 C2698 1.362 . S
C2698 H2690 0.930 . S
C2698 C2697 1.362 . S
C2698 C2701 1.409 . S
C2699 H2691 0.930 . S
C2699 C2700 1.355 . S
C2699 C2701 1.415 . S
C2700 C2699 1.355 . S
C2700 C2702 1.419 . S
C2701 C2696 1.425 . S
C2701 C2698 1.409 . S
C2701 C2699 1.415 . S
C2702 H2692 0.930 . S
C2702 C2700 1.419 . S
C2702 C2703 1.362 . S
C2703 H2693 0.930 . S
C2703 C2696 1.409 . S
C2703 C2702 1.362 . S
H2704 C2710 0.930 . S
H2705 C2713 0.930 . S
H2706 C2714 0.930 . S
H2707 C2715 0.930 . S
H2708 C2718 0.930 . S
H2709 C2719 0.930 . S
C2710 H2704 0.930 . S
C2710 C2711 1.355 . S
C2710 C2712 1.415 . S
C2711 C2710 1.355 . S
C2711 C2713 1.419 . S
C2712 C2710 1.415 . S
C2712 C2717 1.425 . S
C2712 C2719 1.409 . S
C2713 H2705 0.930 . S
C2713 C2711 1.419 . S
C2713 C2714 1.362 . S
C2714 H2706 0.930 . S
C2714 C2713 1.362 . S
C2714 C2717 1.409 . S
C2715 H2707 0.930 . S
C2715 C2716 1.355 . S
C2715 C2717 1.415 . S
C2716 C2715 1.355 . S
C2716 C2718 1.419 . S
C2717 C2712 1.425 . S
C2717 C2714 1.409 . S
C2717 C2715 1.415 . S
C2718 H2708 0.930 . S
C2718 C2716 1.419 . S
C2718 C2719 1.362 . S
C2719 H2709 0.930 . S
C2719 C2712 1.409 . S
C2719 C2718 1.362 . S
H2720 C2726 0.930 . S
H2721 C2729 0.930 . S
H2722 C2730 0.930 . S
H2723 C2731 0.930 . S
H2724 C2734 0.930 . S
H2725 C2735 0.930 . S
C2726 H2720 0.930 . S
C2726 C2727 1.355 . S
C2726 C2728 1.415 . S
C2727 C2726 1.355 . S
C2727 C2729 1.419 . S
C2728 C2726 1.415 . S
C2728 C2733 1.425 . S
C2728 C2735 1.409 . S
C2729 H2721 0.930 . S
C2729 C2727 1.419 . S
C2729 C2730 1.362 . S
C2730 H2722 0.930 . S
C2730 C2729 1.362 . S
C2730 C2733 1.409 . S
C2731 H2723 0.930 . S
C2731 C2732 1.355 . S
C2731 C2733 1.415 . S
C2732 C2731 1.355 . S
C2732 C2734 1.419 . S
C2733 C2728 1.425 . S
C2733 C2730 1.409 . S
C2733 C2731 1.415 . S
C2734 H2724 0.930 . S
C2734 C2732 1.419 . S
C2734 C2735 1.362 . S
C2735 H2725 0.930 . S
C2735 C2728 1.409 . S
C2735 C2734 1.362 . S
H2736 C2742 0.930 . S
H2737 C2745 0.930 . S
H2738 C2746 0.930 . S
H2739 C2747 0.930 . S
H2740 C2750 0.930 . S
H2741 C2751 0.930 . S
C2742 H2736 0.930 . S
C2742 C2743 1.355 . S
C2742 C2744 1.415 . S
C2743 C2742 1.355 . S
C2743 C2745 1.419 . S
C2744 C2742 1.415 . S
C2744 C2749 1.425 . S
C2744 C2751 1.409 . S
C2745 H2737 0.930 . S
C2745 C2743 1.419 . S
C2745 C2746 1.362 . S
C2746 H2738 0.930 . S
C2746 C2745 1.362 . S
C2746 C2749 1.409 . S
C2747 H2739 0.930 . S
C2747 C2748 1.355 . S
C2747 C2749 1.415 . S
C2748 C2747 1.355 . S
C2748 C2750 1.419 . S
C2749 C2744 1.425 . S
C2749 C2746 1.409 . S
C2749 C2747 1.415 . S
C2750 H2740 0.930 . S
C2750 C2748 1.419 . S
C2750 C2751 1.362 . S
C2751 H2741 0.930 . S
C2751 C2744 1.409 . S
C2751 C2750 1.362 . S
H2752 C2758 0.930 . S
H2753 C2761 0.930 . S
H2754 C2762 0.930 . S
H2755 C2763 0.930 . S
H2756 C2766 0.930 . S
H2757 C2767 0.930 . S
C2758 H2752 0.930 . S
C2758 C2759 1.355 . S
C2758 C2760 1.415 . S
C2759 C2758 1.355 . S
C2759 C2761 1.419 . S
C2760 C2758 1.415 . S
C2760 C2765 1.425 . S
C2760 C2767 1.409 . S
C2761 H2753 0.930 . S
C2761 C2759 1.419 . S
C2761 C2762 1.362 . S
C2762 H2754 0.930 . S
C2762 C2761 1.362 . S
C2762 C2765 1.409 . S
C2763 H2755 0.930 . S
C2763 C2764 1.355 . S
C2763 C2765 1.415 . S
C2764 C2763 1.355 . S
C2764 C2766 1.419 . S
C2765 C2760 1.425 . S
C2765 C2762 1.409 . S
C2765 C2763 1.415 . S
C2766 H2756 0.930 . S
C2766 C2764 1.419 . S
C2766 C2767 1.362 . S
C2767 H2757 0.930 . S
C2767 C2760 1.409 . S
C2767 C2766 1.362 . S
H2768 C2774 0.930 . S
H2769 C2777 0.930 . S
H2770 C2778 0.930 . S
H2771 C2779 0.930 . S
H2772 C2782 0.930 . S
H2773 C2783 0.930 . S
C2774 H2768 0.930 . S
C2774 C2775 1.355 . S
C2774 C2776 1.415 . S
C2775 C2774 1.355 . S
C2775 C2777 1.419 . S
C2776 C2774 1.415 . S
C2776 C2781 1.425 . S
C2776 C2783 1.409 . S
C2777 H2769 0.930 . S
C2777 C2775 1.419 . S
C2777 C2778 1.362 . S
C2778 H2770 0.930 . S
C2778 C2777 1.362 . S
C2778 C2781 1.409 . S
C2779 H2771 0.930 . S
C2779 C2780 1.355 . S
C2779 C2781 1.415 . S
C2780 C2779 1.355 . S
C2780 C2782 1.419 . S
C2781 C2776 1.425 . S
C2781 C2778 1.409 . S
C2781 C2779 1.415 . S
C2782 H2772 0.930 . S
C2782 C2780 1.419 . S
C2782 C2783 1.362 . S
C2783 H2773 0.930 . S
C2783 C2776 1.409 . S
C2783 C2782 1.362 . S
H2784 C2790 0.930 . S
H2785 C2793 0.930 . S
H2786 C2794 0.930 . S
H2787 C2795 0.930 . S
H2788 C2798 0.930 . S
H2789 C2799 0.930 . S
C2790 H2784 0.930 . S
C2790 C2791 1.355 . S
C2790 C2792 1.415 . S
C2791 C2790 1.355 . S
C2791 C2793 1.419 . S
C2792 C2790 1.415 . S
C2792 C2797 1.425 . S
C2792 C2799 1.409 . S
C2793 H2785 0.930 . S
C2793 C2791 1.419 . S
C2793 C2794 1.362 . S
C2794 H2786 0.930 . S
C2794 C2793 1.362 . S
C2794 C2797 1.409 . S
C2795 H2787 0.930 . S
C2795 C2796 1.355 . S
C2795 C2797 1.415 . S
C2796 C2795 1.355 . S
C2796 C2798 1.419 . S
C2797 C2792 1.425 . S
C2797 C2794 1.409 . S
C2797 C2795 1.415 . S
C2798 H2788 0.930 . S
C2798 C2796 1.419 . S
C2798 C2799 1.362 . S
C2799 H2789 0.930 . S
C2799 C2792 1.409 . S
C2799 C2798 1.362 . S
H2800 C2806 0.930 . S
H2801 C2809 0.930 . S
H2802 C2810 0.930 . S
H2803 C2811 0.930 . S
H2804 C2814 0.930 . S
H2805 C2815 0.930 . S
C2806 H2800 0.930 . S
C2806 C2807 1.355 . S
C2806 C2808 1.415 . S
C2807 C2806 1.355 . S
C2807 C2809 1.419 . S
C2808 C2806 1.415 . S
C2808 C2813 1.425 . S
C2808 C2815 1.409 . S
C2809 H2801 0.930 . S
C2809 C2807 1.419 . S
C2809 C2810 1.362 . S
C2810 H2802 0.930 . S
C2810 C2809 1.362 . S
C2810 C2813 1.409 . S
C2811 H2803 0.930 . S
C2811 C2812 1.355 . S
C2811 C2813 1.415 . S
C2812 C2811 1.355 . S
C2812 C2814 1.419 . S
C2813 C2808 1.425 . S
C2813 C2810 1.409 . S
C2813 C2811 1.415 . S
C2814 H2804 0.930 . S
C2814 C2812 1.419 . S
C2814 C2815 1.362 . S
C2815 H2805 0.930 . S
C2815 C2808 1.409 . S
C2815 C2814 1.362 . S
H2816 C2822 0.930 . S
H2817 C2825 0.930 . S
H2818 C2826 0.930 . S
H2819 C2827 0.930 . S
H2820 C2830 0.930 . S
H2821 C2831 0.930 . S
C2822 H2816 0.930 . S
C2822 C2823 1.355 . S
C2822 C2824 1.415 . S
C2823 C2822 1.355 . S
C2823 C2825 1.419 . S
C2824 C2822 1.415 . S
C2824 C2829 1.425 . S
C2824 C2831 1.409 . S
C2825 H2817 0.930 . S
C2825 C2823 1.419 . S
C2825 C2826 1.362 . S
C2826 H2818 0.930 . S
C2826 C2825 1.362 . S
C2826 C2829 1.409 . S
C2827 H2819 0.930 . S
C2827 C2828 1.355 . S
C2827 C2829 1.415 . S
C2828 C2827 1.355 . S
C2828 C2830 1.419 . S
C2829 C2824 1.425 . S
C2829 C2826 1.409 . S
C2829 C2827 1.415 . S
C2830 H2820 0.930 . S
C2830 C2828 1.419 . S
C2830 C2831 1.362 . S
C2831 H2821 0.930 . S
C2831 C2824 1.409 . S
C2831 C2830 1.362 . S
H2832 C2838 0.930 . S
H2833 C2841 0.930 . S
H2834 C2842 0.930 . S
H2835 C2843 0.930 . S
H2836 C2846 0.930 . S
H2837 C2847 0.930 . S
C2838 H2832 0.930 . S
C2838 C2839 1.355 . S
C2838 C2840 1.415 . S
C2839 C2838 1.355 . S
C2839 C2841 1.419 . S
C2840 C2838 1.415 . S
C2840 C2845 1.425 . S
C2840 C2847 1.409 . S
C2841 H2833 0.930 . S
C2841 C2839 1.419 . S
C2841 C2842 1.362 . S
C2842 H2834 0.930 . S
C2842 C2841 1.362 . S
C2842 C2845 1.409 . S
C2843 H2835 0.930 . S
C2843 C2844 1.355 . S
C2843 C2845 1.415 . S
C2844 C2843 1.355 . S
C2844 C2846 1.419 . S
C2845 C2840 1.425 . S
C2845 C2842 1.409 . S
C2845 C2843 1.415 . S
C2846 H2836 0.930 . S
C2846 C2844 1.419 . S
C2846 C2847 1.362 . S
C2847 H2837 0.930 . S
C2847 C2840 1.409 . S
C2847 C2846 1.362 . S
H2848 C2854 0.930 . S
H2849 C2857 0.930 . S
H2850 C2858 0.930 . S
H2851 C2859 0.930 . S
H2852 C2862 0.930 . S
H2853 C2863 0.930 . S
C2854 H2848 0.930 . S
C2854 C2855 1.355 . S
C2854 C2856 1.415 . S
C2855 C2854 1.355 . S
C2855 C2857 1.419 . S
C2856 C2854 1.415 . S
C2856 C2861 1.425 . S
C2856 C2863 1.409 . S
C2857 H2849 0.930 . S
C2857 C2855 1.419 . S
C2857 C2858 1.362 . S
C2858 H2850 0.930 . S
C2858 C2857 1.362 . S
C2858 C2861 1.409 . S
C2859 H2851 0.930 . S
C2859 C2860 1.355 . S
C2859 C2861 1.415 . S
C2860 C2859 1.355 . S
C2860 C2862 1.419 . S
C2861 C2856 1.425 . S
C2861 C2858 1.409 . S
C2861 C2859 1.415 . S
C2862 H2852 0.930 . S
C2862 C2860 1.419 . S
C2862 C2863 1.362 . S
C2863 H2853 0.930 . S
C2863 C2856 1.409 . S
C2863 C2862 1.362 . S
H2864 C2870 0.930 . S
H2865 C2873 0.930 . S
H2866 C2874 0.930 . S
H2867 C2875 0.930 . S
H2868 C2878 0.930 . S
H2869 C2879 0.930 . S
C2870 H2864 0.930 . S
C2870 C2871 1.355 . S
C2870 C2872 1.415 . S
C2871 C2870 1.355 . S
C2871 C2873 1.419 . S
C2872 C2870 1.415 . S
C2872 C2877 1.425 . S
C2872 C2879 1.409 . S
C2873 H2865 0.930 . S
C2873 C2871 1.419 . S
C2873 C2874 1.362 . S
C2874 H2866 0.930 . S
C2874 C2873 1.362 . S
C2874 C2877 1.409 . S
C2875 H2867 0.930 . S
C2875 C2876 1.355 . S
C2875 C2877 1.415 . S
C2876 C2875 1.355 . S
C2876 C2878 1.419 . S
C2877 C2872 1.425 . S
C2877 C2874 1.409 . S
C2877 C2875 1.415 . S
C2878 H2868 0.930 . S
C2878 C2876 1.419 . S
C2878 C2879 1.362 . S
C2879 H2869 0.930 . S
C2879 C2872 1.409 . S
C2879 C2878 1.362 . S
C1159 N18 1.165 . S
C1164 C66 1.164 . S
C1175 C2 1.166 . S
C1180 N50 1.166 . S
C1191 N82 1.164 . S
C1196 C34 1.163 . S
C1207 N109 1.166 . S
C1212 C134 1.166 . S
C1223 C166 1.166 . S
C1228 N141 1.166 . S
C1239 N173 1.142 . S
C1244 C102 1.142 . S
C1255 C198 1.772 . S
C1260 N274 1.782 . S
C1271 C226 1.764 . S
C1276 N205 1.782 . S
C1287 C258 1.804 . S
C1292 N242 1.811 . S
C1303 C294 1.768 . S
C1308 N333 1.790 . S
C1319 N365 1.782 . S
C1324 C326 1.772 . S
C1335 N301 1.805 . S
C1340 C358 1.787 . S
C1351 C450 1.144 . S
C1356 N402 1.143 . S
C1367 N434 1.152 . S
C1372 C386 1.152 . S
C1383 C418 1.163 . S
C1388 N466 1.163 . S
C1399 N493 1.158 . S
C1404 C518 1.159 . S
C1415 C550 1.164 . S
C1420 N525 1.164 . S
C1431 C486 1.136 . S
C1436 N557 1.135 . S
C1447 C582 1.795 . S
C1452 N658 1.797 . S
C1463 C614 1.766 . S
C1468 N589 1.781 . S
C1479 N621 1.785 . S
C1484 C642 1.778 . S
C1495 N717 1.784 . S
C1500 C674 1.759 1_556 S
C1511 C710 1.773 1_556 S
C1516 N754 1.800 . S
C1527 N690 1.785 . S
C1532 C738 1.777 1_556 S
C1543 N786 1.132 . S
C1548 C834 1.134 . S
C1559 N818 1.166 . S
C1564 C770 1.166 . S
C1575 N850 1.129 . S
C1580 C802 1.131 . S
C1591 N877 1.137 . S
C1596 C902 1.139 . S
C1607 N909 1.139 . S
C1612 C934 1.141 . S
C1623 N941 1.133 . S
C1628 C870 1.134 . S
C1639 C962 1.765 . S
C1644 N1037 1.786 . S
C1655 C994 1.780 . S
C1660 N978 1.786 . S
C1671 N1010 1.783 . S
C1676 C1030 1.775 . S
C1687 C1062 1.779 . S
C1692 N1101 1.800 . S
C1703 C1094 1.780 . S
C1708 N1133 1.786 . S
C1719 N1069 1.808 . S
C1724 C1126 1.804 . S
C1735 C29 1.408 . S
C1740 C669 1.454 . S
C1751 C580 1.457 . S
C1756 C61 1.438 . S
C1767 C93 1.419 . S
C1772 C612 1.462 . S
C1783 C100 1.381 . S
C1788 C1092 1.466 . S
C1799 C1124 1.450 . S
C1804 C132 1.450 . S
C1815 C164 1.413 . S
C1820 C1060 1.452 . S
C1831 N845 0.952 . S
C1836 N210 0.902 . S
C1847 N237 0.912 . S
C1852 N781 0.947 . S
C1863 N269 0.893 . S
C1868 N813 0.956 . S
C1879 N530 0.954 . S
C1884 N306 0.899 . S
C1895 N562 0.969 . S
C1900 N338 0.847 . S
C1911 N498 0.861 . S
C1916 N370 0.932 . S
C1927 C413 1.449 . S
C1932 C1028 1.451 . S
C1943 C445 1.447 . S
C1948 C989 1.453 . S
C1959 C1021 1.466 . S
C1964 C477 1.382 . S
C1975 C324 1.451 . S
C1980 C484 1.417 . S
C1991 C356 1.465 . S
C1996 C516 1.381 . S
C2007 C292 1.466 . S
C2012 C548 1.381 . S
C2023 N77 0.971 . S
C2028 N594 0.831 . S
C2039 N626 0.874 . S
C2044 N13 0.963 . S
C2055 N653 0.784 . S
C2060 N45 0.964 . S
C2071 N914 0.861 . S
C2076 N685 0.935 . S
C2087 N946 0.876 . S
C2092 N722 0.963 . S
C2103 N749 0.787 . S
C2108 N882 0.966 . S
C2119 C285 1.449 . S
C2124 C797 1.431 . S
C2135 C196 1.448 . S
C2140 C829 1.449 . S
C2151 C253 1.449 . S
C2156 C861 1.427 . S
C2167 C868 1.449 . S
C2172 C708 1.444 1_556 S
C2183 C765 1.458 1_556 S
C2188 C900 1.381 . S
C2199 C932 1.385 . S
C2204 C701 1.457 1_556 S
C2215 N973 0.957 . S
C2220 N461 0.869 . S
C2231 N1005 0.947 . S
C2236 N397 0.922 . S
C2247 N1042 0.965 . S
C2252 N429 0.883 . S
C2263 N1074 0.860 . S
C2268 N146 0.876 . S
C2279 N178 0.868 . S
C2284 N1106 0.956 . S
C2295 N114 0.971 . S
C2300 N1138 0.804 . S
C2311 C930 1.880 . S
C2316 C6 1.902 . S
C2327 C866 1.889 . S
C2332 C38 1.903 . S
C2343 C70 1.869 . S
C2348 C898 1.873 . S
C2359 C422 1.903 . S
C2364 C98 1.883 . S
C2375 C130 1.899 . S
C2380 C454 1.901 . S
C2391 C162 1.878 . S
C2396 C390 1.866 . S
C2407 C194 1.364 . S
C2412 C742 1.365 . S
C2423 C230 1.403 . S
C2428 C678 1.402 . S
C2439 C262 1.365 . S
C2444 C706 1.367 . S
C2455 C998 1.420 . S
C2460 C290 1.420 . S
C2471 C1026 1.405 . S
C2476 C322 1.407 . S
C2487 C966 1.359 . S
C2492 C354 1.360 . S
C2503 C482 1.869 . S
C2508 C806 1.872 . S
C2519 C514 1.893 . S
C2524 C838 1.903 . S
C2535 C546 1.891 . S
C2540 C774 1.904 . S
C2551 C578 1.410 . S
C2556 C1122 1.408 . S
C2567 C1058 1.365 . S
C2572 C610 1.366 . S
C2583 C646 1.403 . S
C2588 C1090 1.405 . S
C2599 C157 2.373 . S
C2604 C4 2.391 . S
C2615 C189 2.370 . S
C2620 C36 2.387 . S
C2631 C125 2.359 . S
C2636 C68 2.364 . S
C2647 C221 1.533 . S
C2652 C349 1.572 . S
C2663 C381 1.574 . S
C2668 C228 1.596 . S
C2679 C260 1.597 . S
C2684 C317 1.573 . S
C2695 C541 2.361 . S
C2700 C388 2.375 . S
C2711 C573 2.402 . S
C2716 C420 2.403 . S
C2727 C509 2.394 . S
C2732 C452 2.404 . S
C2743 C733 1.558 . S
C2748 C605 1.595 . S
C2759 C637 1.579 . S
C2764 C740 1.595 . S
C2775 C644 1.589 . S
C2780 C676 1.546 . S
C2791 C772 2.359 . S
C2796 C925 2.365 . S
C2807 C957 2.404 . S
C2812 C804 2.402 . S
C2823 C836 2.404 . S
C2828 C893 2.398 . S
C2839 C964 1.584 . S
C2844 C1117 1.592 . S
C2855 C1149 1.590 . S
C2860 C996 1.549 . S
C2871 C1053 1.596 . S
C2876 C1085 1.573 . S
