# Generated by pormake.
# Topology zfq, (5)-cn, num edge types: 1
# Building blocks:
#     Node 0, Type 0, BuildingBlock: BEQFEK_clean_sbu_0, # of connection points: 5
#     Node 1, Type 0, BuildingBlock: BEQFEK_clean_sbu_0, # of connection points: 5
#     Node 2, Type 0, BuildingBlock: BEQFEK_clean_sbu_0, # of connection points: 5
#     Node 3, Type 0, BuildingBlock: BEQFEK_clean_sbu_0, # of connection points: 5
#     Node 4, Type 0, BuildingBlock: BEQFEK_clean_sbu_0, # of connection points: 5
#     Node 5, Type 0, BuildingBlock: BEQFEK_clean_sbu_0, # of connection points: 5
#     Node 6, Type 0, BuildingBlock: BEQFEK_clean_sbu_0, # of connection points: 5
#     Node 7, Type 0, BuildingBlock: BEQFEK_clean_sbu_0, # of connection points: 5
#     Node 8, Type 0, BuildingBlock: BEQFEK_clean_sbu_0, # of connection points: 5
#     Node 9, Type 0, BuildingBlock: BEQFEK_clean_sbu_0, # of connection points: 5
#     Node 10, Type 0, BuildingBlock: BEQFEK_clean_sbu_0, # of connection points: 5
#     Node 11, Type 0, BuildingBlock: BEQFEK_clean_sbu_0, # of connection points: 5
#     Node 12, Type 0, BuildingBlock: BEQFEK_clean_sbu_0, # of connection points: 5
#     Node 13, Type 0, BuildingBlock: BEQFEK_clean_sbu_0, # of connection points: 5
#     Node 14, Type 0, BuildingBlock: BEQFEK_clean_sbu_0, # of connection points: 5
#     Node 15, Type 0, BuildingBlock: BEQFEK_clean_sbu_0, # of connection points: 5
#     Edge 16, Type (0, 0), BuildingBlock: UVAHIK_clean_linker_0, # of connection points: 2
#     Edge 17, Type (0, 0), BuildingBlock: UVAHIK_clean_linker_0, # of connection points: 2
#     Edge 18, Type (0, 0), BuildingBlock: UVAHIK_clean_linker_0, # of connection points: 2
#     Edge 19, Type (0, 0), BuildingBlock: UVAHIK_clean_linker_0, # of connection points: 2
#     Edge 20, Type (0, 0), BuildingBlock: UVAHIK_clean_linker_0, # of connection points: 2
#     Edge 21, Type (0, 0), BuildingBlock: UVAHIK_clean_linker_0, # of connection points: 2
#     Edge 22, Type (0, 0), BuildingBlock: UVAHIK_clean_linker_0, # of connection points: 2
#     Edge 23, Type (0, 0), BuildingBlock: UVAHIK_clean_linker_0, # of connection points: 2
#     Edge 24, Type (0, 0), BuildingBlock: UVAHIK_clean_linker_0, # of connection points: 2
#     Edge 25, Type (0, 0), BuildingBlock: UVAHIK_clean_linker_0, # of connection points: 2
#     Edge 26, Type (0, 0), BuildingBlock: UVAHIK_clean_linker_0, # of connection points: 2
#     Edge 27, Type (0, 0), BuildingBlock: UVAHIK_clean_linker_0, # of connection points: 2
#     Edge 28, Type (0, 0), BuildingBlock: UVAHIK_clean_linker_0, # of connection points: 2
#     Edge 29, Type (0, 0), BuildingBlock: UVAHIK_clean_linker_0, # of connection points: 2
#     Edge 30, Type (0, 0), BuildingBlock: UVAHIK_clean_linker_0, # of connection points: 2
#     Edge 31, Type (0, 0), BuildingBlock: UVAHIK_clean_linker_0, # of connection points: 2
#     Edge 32, Type (0, 0), BuildingBlock: UVAHIK_clean_linker_0, # of connection points: 2
#     Edge 33, Type (0, 0), BuildingBlock: UVAHIK_clean_linker_0, # of connection points: 2
#     Edge 34, Type (0, 0), BuildingBlock: UVAHIK_clean_linker_0, # of connection points: 2
#     Edge 35, Type (0, 0), BuildingBlock: UVAHIK_clean_linker_0, # of connection points: 2
#     Edge 36, Type (0, 0), BuildingBlock: UVAHIK_clean_linker_0, # of connection points: 2
#     Edge 37, Type (0, 0), BuildingBlock: UVAHIK_clean_linker_0, # of connection points: 2
#     Edge 38, Type (0, 0), BuildingBlock: UVAHIK_clean_linker_0, # of connection points: 2
#     Edge 39, Type (0, 0), BuildingBlock: UVAHIK_clean_linker_0, # of connection points: 2
#     Edge 40, Type (0, 0), BuildingBlock: UVAHIK_clean_linker_0, # of connection points: 2
#     Edge 41, Type (0, 0), BuildingBlock: UVAHIK_clean_linker_0, # of connection points: 2
#     Edge 42, Type (0, 0), BuildingBlock: UVAHIK_clean_linker_0, # of connection points: 2
#     Edge 43, Type (0, 0), BuildingBlock: UVAHIK_clean_linker_0, # of connection points: 2
#     Edge 44, Type (0, 0), BuildingBlock: UVAHIK_clean_linker_0, # of connection points: 2
#     Edge 45, Type (0, 0), BuildingBlock: UVAHIK_clean_linker_0, # of connection points: 2
#     Edge 46, Type (0, 0), BuildingBlock: UVAHIK_clean_linker_0, # of connection points: 2
#     Edge 47, Type (0, 0), BuildingBlock: UVAHIK_clean_linker_0, # of connection points: 2
#     Edge 48, Type (0, 0), BuildingBlock: UVAHIK_clean_linker_0, # of connection points: 2
#     Edge 49, Type (0, 0), BuildingBlock: UVAHIK_clean_linker_0, # of connection points: 2
#     Edge 50, Type (0, 0), BuildingBlock: UVAHIK_clean_linker_0, # of connection points: 2
#     Edge 51, Type (0, 0), BuildingBlock: UVAHIK_clean_linker_0, # of connection points: 2
#     Edge 52, Type (0, 0), BuildingBlock: UVAHIK_clean_linker_0, # of connection points: 2
#     Edge 53, Type (0, 0), BuildingBlock: UVAHIK_clean_linker_0, # of connection points: 2
#     Edge 54, Type (0, 0), BuildingBlock: UVAHIK_clean_linker_0, # of connection points: 2
#     Edge 55, Type (0, 0), BuildingBlock: UVAHIK_clean_linker_0, # of connection points: 2
# Relax obj value: 0.130
# Max RMSD: 0.183
# Mean RMSD: 0.183
data_MOF--net-zfq--node1-BEQFEK_clean_sbu_0--edge1-UVAHIK_clean_linker_0
_symmetry_space_group_name_H-M    P1
_symmetry_Int_Tables_number       1
_symmetry_cell_setting            triclinic
loop_
_symmetry_equiv_pos_as_xyz
'x, y, z'
_cell_length_a     37.170823
_cell_length_b     37.16863
_cell_length_c     93.714976
_cell_angle_alpha  89.973191
_cell_angle_beta   89.977294
_cell_angle_gamma 89.971984
loop_
_atom_site_label
_atom_site_type_symbol
_atom_site_fract_x
_atom_site_fract_y
_atom_site_fract_z
_atom_type_partial_charge
Co0 Co 0.18781 0.178 0.14452 0.0
Co1 Co 0.18864 0.17979 0.11104 0.0
C2 C 0.15025 0.23616 0.12742 0.0
O3 O 0.15927 0.22105 0.1391 0.0
O4 O 0.16065 0.22378 0.11542 0.0
C5 C 0.19927 0.20724 0.17256 0.0
O6 O 0.19913 0.23838 0.16592 0.0
C7 C 0.20035 0.20124 0.08099 0.0
C8 C 0.20923 0.14811 0.07101 0.0
C9 C 0.20847 0.18465 0.0681 0.0
N10 N 0.19666 0.17557 0.09102 0.0
N11 N 0.20157 0.1439 0.08492 0.0
C12 C 0.19965 0.24071 0.08412 0.0
H13 H 0.20633 0.24572 0.09548 0.0
H14 H 0.2189 0.25535 0.07718 0.0
H15 H 0.17219 0.25121 0.08204 0.0
C16 C 0.26626 0.17196 0.13994 0.0
N17 N 0.2325 0.17597 0.135 0.0
N18 N 0.23326 0.17843 0.12101 0.0
C19 C 0.2678 0.17713 0.1166 0.0
C20 C 0.28994 0.17271 0.12846 0.0
C21 C 0.27512 0.16475 0.15526 0.0
H22 H 0.25452 0.14681 0.16001 0.0
H23 H 0.27496 0.19053 0.16123 0.0
H24 H 0.30191 0.1519 0.15641 0.0
O25 O 0.15862 0.13558 0.13994 0.0
O26 O 0.1579 0.13794 0.11629 0.0
H27 H 0.27397 0.15715 0.09536 0.0
H28 H 0.30828 0.18899 0.1006 0.0
C29 C 0.27932 0.1822 0.10143 0.0
H30 H 0.26362 0.2043 0.09654 0.0
H31 H 0.20062 0.11943 0.09037 0.0
O32 O 0.19498 0.17851 0.16542 0.0
C33 C 0.14816 0.12334 0.12797 0.0
Co34 Co 0.17665 0.80704 0.85362 0.0
Co35 Co 0.18074 0.81111 0.88702 0.0
C36 C 0.23566 0.84726 0.86914 0.0
O37 O 0.21967 0.83674 0.85786 0.0
O38 O 0.22432 0.83834 0.88146 0.0
C39 C 0.20548 0.78827 0.8264 0.0
O40 O 0.23566 0.78527 0.83359 0.0
C41 C 0.20451 0.80502 0.91704 0.0
C42 C 0.15232 0.7983 0.92804 0.0
C43 C 0.18906 0.79972 0.93038 0.0
N44 N 0.17803 0.80609 0.90727 0.0
N45 N 0.14693 0.80233 0.91394 0.0
C46 C 0.24338 0.81092 0.91359 0.0
H47 H 0.25326 0.78852 0.90681 0.0
H48 H 0.26018 0.81316 0.92332 0.0
H49 H 0.24619 0.83615 0.9074 0.0
C50 C 0.17091 0.72942 0.86011 0.0
N51 N 0.1755 0.76382 0.86419 0.0
N52 N 0.17902 0.7651 0.87814 0.0
C53 C 0.17803 0.73129 0.88336 0.0
C54 C 0.17259 0.70746 0.87211 0.0
C55 C 0.16191 0.71839 0.84516 0.0
H56 H 0.14465 0.73906 0.84007 0.0
H57 H 0.18712 0.71599 0.8389 0.0
H58 H 0.1476 0.69221 0.84495 0.0
O59 O 0.13419 0.83645 0.85787 0.0
O60 O 0.1383 0.84079 0.88143 0.0
H61 H 0.15923 0.72773 0.90487 0.0
H62 H 0.19154 0.69338 0.90011 0.0
C63 C 0.1841 0.72206 0.89872 0.0
H64 H 0.20606 0.73889 0.90308 0.0
H65 H 0.122 0.80214 0.90882 0.0
O66 O 0.17685 0.79702 0.83294 0.0
C67 C 0.12274 0.84861 0.86971 0.0
Co68 Co 0.81073 0.82079 0.14361 0.0
Co69 Co 0.80991 0.82375 0.11014 0.0
C70 C 0.84799 0.76494 0.12558 0.0
O71 O 0.83839 0.77757 0.13764 0.0
O72 O 0.83838 0.77991 0.11397 0.0
C73 C 0.82999 0.81422 0.17265 0.0
O74 O 0.86244 0.8131 0.16711 0.0
C75 C 0.80091 0.8047 0.07977 0.0
C76 C 0.79101 0.85825 0.07025 0.0
C77 C 0.79355 0.82202 0.06696 0.0
N78 N 0.80208 0.8296 0.09017 0.0
N79 N 0.79637 0.86153 0.08439 0.0
C80 C 0.80873 0.76562 0.08212 0.0
H81 H 0.83481 0.76282 0.08772 0.0
H82 H 0.78761 0.75385 0.08907 0.0
H83 H 0.81037 0.75043 0.07197 0.0
C84 C 0.73231 0.82789 0.13907 0.0
N85 N 0.76609 0.82442 0.13409 0.0
N86 N 0.76539 0.82363 0.12007 0.0
C87 C 0.73092 0.8254 0.11566 0.0
C88 C 0.7087 0.82851 0.12756 0.0
C89 C 0.72345 0.83325 0.15452 0.0
H90 H 0.74389 0.8509 0.15954 0.0
H91 H 0.7241 0.80684 0.16004 0.0
H92 H 0.69653 0.84561 0.15593 0.0
O93 O 0.84084 0.86342 0.13976 0.0
O94 O 0.83992 0.86514 0.11609 0.0
H95 H 0.72376 0.84797 0.09487 0.0
H96 H 0.69091 0.81401 0.09946 0.0
C97 C 0.71958 0.8219 0.1004 0.0
H98 H 0.73621 0.80121 0.09503 0.0
H99 H 0.79588 0.88557 0.09013 0.0
O100 O 0.80307 0.81736 0.16441 0.0
C101 C 0.85048 0.87769 0.12802 0.0
Co102 Co 0.81121 0.18133 0.85417 0.0
Co103 Co 0.8177 0.1792 0.88761 0.0
C104 C 0.75758 0.14195 0.87172 0.0
O105 O 0.76834 0.15299 0.85959 0.0
O106 O 0.77418 0.1504 0.88313 0.0
C107 C 0.78096 0.19134 0.82612 0.0
O108 O 0.75006 0.18788 0.83279 0.0
C109 C 0.79502 0.19618 0.9169 0.0
C110 C 0.84326 0.18083 0.92926 0.0
C111 C 0.80872 0.19444 0.93069 0.0
N112 N 0.82045 0.18444 0.90781 0.0
N113 N 0.84919 0.1753 0.91527 0.0
C114 C 0.75784 0.20673 0.9124 0.0
H115 H 0.7515 0.19573 0.90171 0.0
H116 H 0.75602 0.23646 0.91174 0.0
H117 H 0.73774 0.19716 0.9203 0.0
C118 C 0.81527 0.25984 0.85994 0.0
N119 N 0.81393 0.22539 0.86439 0.0
N120 N 0.81834 0.22446 0.87832 0.0
C121 C 0.82397 0.25816 0.88312 0.0
C122 C 0.82191 0.28183 0.87166 0.0
C123 C 0.8087 0.27121 0.84484 0.0
H124 H 0.78511 0.25656 0.84057 0.0
H125 H 0.80343 0.30049 0.84398 0.0
H126 H 0.83245 0.26408 0.83824 0.0
O127 O 0.8544 0.15076 0.85794 0.0
O128 O 0.8593 0.15067 0.88155 0.0
H129 H 0.84986 0.29294 0.89852 0.0
H130 H 0.81083 0.26914 0.90489 0.0
C131 C 0.83509 0.26704 0.89807 0.0
H132 H 0.85266 0.24554 0.90236 0.0
H133 H 0.8728 0.16506 0.91082 0.0
O134 O 0.81002 0.19008 0.83326 0.0
C135 C 0.87037 0.14082 0.86932 0.0
Co136 Co 0.80501 0.178 0.64499 0.0
Co137 Co 0.80694 0.16674 0.61179 0.0
C138 C 0.84407 0.22921 0.62604 0.0
O139 O 0.83339 0.22 0.63844 0.0
O140 O 0.83537 0.21117 0.61501 0.0
C141 C 0.79732 0.21092 0.67286 0.0
O142 O 0.80296 0.24134 0.66608 0.0
C143 C 0.79375 0.18506 0.58188 0.0
C144 C 0.79721 0.13192 0.57139 0.0
C145 C 0.79089 0.16807 0.56874 0.0
N146 N 0.80139 0.16009 0.59179 0.0
N147 N 0.80375 0.12843 0.58544 0.0
C148 C 0.78663 0.22372 0.58528 0.0
H149 H 0.77822 0.22663 0.59659 0.0
H150 H 0.76553 0.23485 0.57816 0.0
H151 H 0.81174 0.23936 0.58369 0.0
C152 C 0.72632 0.17565 0.63927 0.0
N153 N 0.76084 0.17415 0.63491 0.0
N154 N 0.76166 0.1682 0.62108 0.0
C155 C 0.7277 0.16475 0.61624 0.0
C156 C 0.70406 0.16962 0.62758 0.0
C157 C 0.71525 0.18515 0.65416 0.0
H158 H 0.73128 0.20844 0.6579 0.0
H159 H 0.68631 0.19218 0.65483 0.0
H160 H 0.72097 0.16208 0.66132 0.0
O161 O 0.83566 0.13448 0.6423 0.0
O162 O 0.8359 0.12643 0.61885 0.0
H163 H 0.6903 0.1443 0.60047 0.0
H164 H 0.72105 0.1785 0.59425 0.0
C165 C 0.71823 0.15459 0.60125 0.0
H166 H 0.7368 0.13341 0.5974 0.0
H167 H 0.8092 0.10436 0.59076 0.0
O168 O 0.79642 0.18166 0.66585 0.0
C169 C 0.84587 0.11713 0.63129 0.0
Co170 Co 0.19337 0.18251 0.35391 0.0
Co171 Co 0.17948 0.17842 0.38687 0.0
C172 C 0.24184 0.14038 0.37264 0.0
O173 O 0.23424 0.15267 0.36033 0.0
O174 O 0.22285 0.14841 0.38349 0.0
C175 C 0.20368 0.16663 0.32485 0.0
O176 O 0.20346 0.1337 0.32996 0.0
C177 C 0.19738 0.1951 0.41657 0.0
C178 C 0.14665 0.18226 0.42775 0.0
C179 C 0.18119 0.19523 0.42996 0.0
N180 N 0.1733 0.18317 0.40697 0.0
N181 N 0.14311 0.17535 0.41373 0.0
C182 C 0.2354 0.20458 0.41286 0.0
H183 H 0.23756 0.23406 0.41126 0.0
H184 H 0.25394 0.19651 0.42158 0.0
H185 H 0.24366 0.1914 0.40279 0.0
C186 C 0.18942 0.26047 0.36017 0.0
N187 N 0.18974 0.22586 0.36441 0.0
N188 N 0.18219 0.22426 0.3781 0.0
C189 C 0.1755 0.25776 0.38293 0.0
C190 C 0.18015 0.28192 0.37175 0.0
C191 C 0.19837 0.27245 0.34534 0.0
H192 H 0.22097 0.25615 0.34109 0.0
H193 H 0.206 0.30129 0.34505 0.0
H194 H 0.17465 0.26814 0.33836 0.0
O195 O 0.14841 0.15358 0.35579 0.0
O196 O 0.13821 0.15198 0.37915 0.0
H197 H 0.14528 0.29172 0.39738 0.0
H198 H 0.18255 0.26789 0.40521 0.0
C199 C 0.16031 0.26593 0.39738 0.0
H200 H 0.14182 0.24418 0.40076 0.0
H201 H 0.12 0.16556 0.40875 0.0
O202 O 0.19987 0.19286 0.3334 0.0
C203 C 0.12952 0.14358 0.36644 0.0
Co204 Co 0.18542 0.81671 0.64624 0.0
Co205 Co 0.18622 0.82415 0.61292 0.0
C206 C 0.14726 0.76392 0.62716 0.0
O207 O 0.15651 0.77552 0.63941 0.0
O208 O 0.15763 0.77957 0.61578 0.0
C209 C 0.19558 0.78125 0.6732 0.0
O210 O 0.19476 0.75162 0.66557 0.0
C211 C 0.1989 0.80698 0.58274 0.0
C212 C 0.20399 0.86124 0.5733 0.0
C213 C 0.20535 0.82493 0.57 0.0
N214 N 0.19401 0.8316 0.59306 0.0
N215 N 0.19674 0.86397 0.58733 0.0
C216 C 0.20063 0.76734 0.58546 0.0
H217 H 0.20832 0.76201 0.59671 0.0
H218 H 0.22026 0.75425 0.57819 0.0
H219 H 0.17369 0.75544 0.58355 0.0
C220 C 0.26412 0.82092 0.64183 0.0
N221 N 0.23021 0.81996 0.63681 0.0
N222 N 0.23085 0.82295 0.62282 0.0
C223 C 0.26535 0.82592 0.61849 0.0
C224 C 0.28753 0.82476 0.63041 0.0
C225 C 0.27364 0.82014 0.65735 0.0
H226 H 0.26922 0.79258 0.66155 0.0
H227 H 0.30208 0.82791 0.65917 0.0
H228 H 0.25588 0.83881 0.66331 0.0
O229 O 0.15661 0.86066 0.64322 0.0
O230 O 0.15627 0.86494 0.6196 0.0
H231 H 0.3065 0.82761 0.60206 0.0
H232 H 0.26512 0.80579 0.59714 0.0
C233 C 0.27683 0.82849 0.60322 0.0
H234 H 0.26653 0.85393 0.59858 0.0
H235 H 0.19437 0.88792 0.59306 0.0
O236 O 0.19239 0.8115 0.66701 0.0
C237 C 0.14654 0.87634 0.63182 0.0
Co238 Co 0.81284 0.81568 0.35405 0.0
Co239 Co 0.8266 0.81857 0.38699 0.0
C240 C 0.76187 0.85339 0.37339 0.0
O241 O 0.77047 0.84272 0.36094 0.0
O242 O 0.78106 0.84552 0.38421 0.0
C243 C 0.80275 0.83372 0.3253 0.0
O244 O 0.80152 0.86601 0.33099 0.0
C245 C 0.80973 0.80356 0.41678 0.0
C246 C 0.86211 0.81176 0.42743 0.0
C247 C 0.82662 0.80223 0.42998 0.0
N248 N 0.83409 0.81345 0.40695 0.0
N249 N 0.86529 0.8186 0.41338 0.0
C250 C 0.77197 0.79298 0.4132 0.0
H251 H 0.77006 0.78481 0.40184 0.0
H252 H 0.76279 0.77063 0.42016 0.0
H253 H 0.75398 0.81644 0.41488 0.0
C254 C 0.8191 0.73748 0.35972 0.0
N255 N 0.81896 0.77196 0.36411 0.0
N256 N 0.82617 0.7731 0.37784 0.0
C257 C 0.83217 0.73938 0.38257 0.0
C258 C 0.82768 0.71557 0.37127 0.0
C259 C 0.80935 0.72598 0.34491 0.0
H260 H 0.78702 0.74288 0.34083 0.0
H261 H 0.80103 0.69734 0.34459 0.0
H262 H 0.83293 0.72985 0.33781 0.0
O263 O 0.85577 0.8473 0.35605 0.0
O264 O 0.86552 0.8487 0.37941 0.0
H265 H 0.8578 0.70366 0.39775 0.0
H266 H 0.82152 0.73075 0.40472 0.0
C267 C 0.84482 0.73051 0.39733 0.0
H268 H 0.86449 0.75093 0.40095 0.0
H269 H 0.88886 0.82624 0.40814 0.0
O270 O 0.80703 0.80668 0.33341 0.0
C271 C 0.87363 0.85838 0.36678 0.0
Co272 Co 0.68751 0.68196 0.64359 0.0
Co273 Co 0.68456 0.67857 0.6101 0.0
C274 C 0.64929 0.73823 0.62609 0.0
O275 O 0.65996 0.72557 0.63799 0.0
O276 O 0.65745 0.72298 0.61436 0.0
C277 C 0.672 0.69371 0.67273 0.0
O278 O 0.63969 0.69954 0.66753 0.0
C279 C 0.69274 0.69832 0.57974 0.0
C280 C 0.70131 0.64499 0.56989 0.0
C281 C 0.70016 0.68144 0.56684 0.0
N282 N 0.69047 0.67299 0.58996 0.0
N283 N 0.69517 0.64117 0.58396 0.0
C284 C 0.68661 0.73759 0.58235 0.0
H285 H 0.70915 0.74856 0.58878 0.0
H286 H 0.684 0.75293 0.57226 0.0
H287 H 0.66151 0.74124 0.58855 0.0
C288 C 0.76523 0.67378 0.63773 0.0
N289 N 0.73098 0.67741 0.63331 0.0
N290 N 0.73017 0.67788 0.61929 0.0
C291 C 0.76415 0.67569 0.61431 0.0
C292 C 0.78759 0.67269 0.62583 0.0
C293 C 0.77572 0.669 0.65304 0.0
H294 H 0.75589 0.65147 0.6585 0.0
H295 H 0.77555 0.6956 0.65841 0.0
H296 H 0.80282 0.65677 0.65407 0.0
O297 O 0.65619 0.63994 0.64036 0.0
O298 O 0.65404 0.63794 0.61669 0.0
H299 H 0.76803 0.65326 0.59336 0.0
H300 H 0.8028 0.68569 0.59741 0.0
C301 C 0.77398 0.67899 0.59887 0.0
H302 H 0.75773 0.70052 0.59386 0.0
H303 H 0.69499 0.61687 0.58954 0.0
O304 O 0.69738 0.68557 0.66425 0.0
C305 C 0.64466 0.62583 0.62887 0.0
Co306 Co 0.68725 0.31267 0.35463 0.0
Co307 Co 0.67695 0.31648 0.38788 0.0
C308 C 0.73744 0.35496 0.37267 0.0
O309 O 0.7284 0.34288 0.36049 0.0
O310 O 0.71986 0.34664 0.38386 0.0
C311 C 0.72014 0.30469 0.32691 0.0
O312 O 0.75006 0.31261 0.33367 0.0
C313 C 0.69731 0.30069 0.41751 0.0
C314 C 0.64689 0.31259 0.42908 0.0
C315 C 0.68188 0.30061 0.43105 0.0
N316 N 0.67239 0.31171 0.40807 0.0
N317 N 0.64238 0.31894 0.41506 0.0
C318 C 0.73537 0.29209 0.41354 0.0
H319 H 0.73831 0.26259 0.41219 0.0
H320 H 0.75415 0.30115 0.42201 0.0
H321 H 0.74265 0.30492 0.40327 0.0
C322 C 0.68492 0.23454 0.36099 0.0
N323 N 0.68504 0.26919 0.36519 0.0
N324 N 0.67905 0.27069 0.37901 0.0
C325 C 0.67365 0.23708 0.38398 0.0
C326 C 0.67747 0.21296 0.37275 0.0
C327 C 0.69281 0.22264 0.34606 0.0
H328 H 0.71586 0.23818 0.34179 0.0
H329 H 0.69945 0.19357 0.34557 0.0
H330 H 0.66906 0.22815 0.33923 0.0
O331 O 0.64243 0.34141 0.35734 0.0
O332 O 0.63488 0.34298 0.38084 0.0
H333 H 0.64196 0.24977 0.40246 0.0
H334 H 0.64671 0.20232 0.39913 0.0
C335 C 0.66075 0.22863 0.39875 0.0
H336 H 0.68408 0.22763 0.4061 0.0
H337 H 0.61876 0.32803 0.41024 0.0
O338 O 0.69086 0.30269 0.33388 0.0
C339 C 0.62476 0.35142 0.3683 0.0
Co340 Co 0.30377 0.32434 0.64309 0.0
Co341 Co 0.30613 0.3353 0.60991 0.0
C342 C 0.34441 0.27382 0.62435 0.0
O343 O 0.33323 0.28307 0.63666 0.0
O344 O 0.3356 0.29146 0.61322 0.0
C345 C 0.29628 0.29032 0.67064 0.0
O346 O 0.30413 0.26062 0.66372 0.0
C347 C 0.29286 0.31646 0.58011 0.0
C348 C 0.29597 0.36937 0.56941 0.0
C349 C 0.28967 0.33316 0.56693 0.0
N350 N 0.30066 0.34165 0.5899 0.0
N351 N 0.30284 0.37317 0.58343 0.0
C352 C 0.28577 0.27789 0.58369 0.0
H353 H 0.2778 0.27522 0.59506 0.0
H354 H 0.26436 0.26672 0.57673 0.0
H355 H 0.31075 0.26212 0.58199 0.0
C356 C 0.22528 0.32586 0.63726 0.0
N357 N 0.25979 0.32723 0.63289 0.0
N358 N 0.26064 0.33304 0.61905 0.0
C359 C 0.22667 0.33655 0.61421 0.0
C360 C 0.20303 0.33192 0.62557 0.0
C361 C 0.2142 0.31672 0.65219 0.0
H362 H 0.23004 0.29335 0.65599 0.0
H363 H 0.18522 0.30992 0.6529 0.0
H364 H 0.22011 0.33987 0.65928 0.0
O365 O 0.33327 0.36868 0.64052 0.0
O366 O 0.3339 0.37641 0.61704 0.0
H367 H 0.1893 0.35734 0.59848 0.0
H368 H 0.21991 0.32308 0.59221 0.0
C369 C 0.2172 0.34693 0.59924 0.0
H370 H 0.23584 0.36807 0.59541 0.0
H371 H 0.30828 0.39737 0.58864 0.0
O372 O 0.29439 0.31987 0.66385 0.0
C373 C 0.34324 0.38617 0.6295 0.0
Co374 Co 0.30755 0.68005 0.35603 0.0
Co375 Co 0.31852 0.67632 0.38918 0.0
C376 C 0.25508 0.64179 0.37435 0.0
O377 O 0.26439 0.65323 0.3621 0.0
O378 O 0.27362 0.64897 0.38541 0.0
C379 C 0.29652 0.6636 0.3271 0.0
O380 O 0.29231 0.63134 0.3326 0.0
C381 C 0.29936 0.69408 0.41871 0.0
C382 C 0.34858 0.67851 0.43039 0.0
C383 C 0.31452 0.69301 0.43227 0.0
N384 N 0.32355 0.68125 0.40933 0.0
N385 N 0.35286 0.67189 0.41638 0.0
C386 C 0.26203 0.70533 0.41468 0.0
H387 H 0.25408 0.69331 0.40434 0.0
H388 H 0.26108 0.73498 0.41345 0.0
H389 H 0.24255 0.69734 0.42308 0.0
C390 C 0.31454 0.75791 0.36198 0.0
N391 N 0.31299 0.72344 0.36633 0.0
N392 N 0.31935 0.72194 0.38012 0.0
C393 C 0.32649 0.75538 0.38491 0.0
C394 C 0.32339 0.7794 0.3736 0.0
C395 C 0.30632 0.76982 0.34707 0.0
H396 H 0.28382 0.75366 0.34269 0.0
H397 H 0.29887 0.7987 0.34669 0.0
H398 H 0.33033 0.7653 0.34026 0.0
O399 O 0.3501 0.64803 0.35864 0.0
O400 O 0.35831 0.64647 0.38211 0.0
H401 H 0.35554 0.78903 0.3998 0.0
H402 H 0.31669 0.76643 0.40696 0.0
C403 C 0.3399 0.76362 0.39962 0.0
H404 H 0.35731 0.74148 0.4035 0.0
H405 H 0.3758 0.66102 0.41162 0.0
O406 O 0.30336 0.68978 0.33537 0.0
C407 C 0.36725 0.63687 0.36956 0.0
Co408 Co 0.31123 0.6784 0.146 0.0
Co409 Co 0.31184 0.67864 0.11248 0.0
C410 C 0.3495 0.73575 0.12915 0.0
O411 O 0.34006 0.72124 0.14088 0.0
O412 O 0.33962 0.72275 0.11719 0.0
C413 C 0.30304 0.7063 0.17454 0.0
O414 O 0.30792 0.73783 0.16851 0.0
C415 C 0.30166 0.70156 0.08264 0.0
C416 C 0.30053 0.64907 0.07155 0.0
C417 C 0.29846 0.68581 0.06926 0.0
N418 N 0.30516 0.6752 0.09237 0.0
N419 N 0.30449 0.64393 0.08567 0.0
C420 C 0.30443 0.74072 0.08619 0.0
H421 H 0.33183 0.74625 0.09031 0.0
H422 H 0.2851 0.74741 0.09482 0.0
H423 H 0.29972 0.7582 0.0768 0.0
C424 C 0.2328 0.67546 0.14089 0.0
N425 N 0.26693 0.67714 0.13614 0.0
N426 N 0.2669 0.67717 0.1221 0.0
C427 C 0.2326 0.67541 0.11746 0.0
C428 C 0.20989 0.67425 0.12922 0.0
C429 C 0.22263 0.6735 0.15633 0.0
H430 H 0.22851 0.69972 0.16147 0.0
H431 H 0.19373 0.667 0.15776 0.0
H432 H 0.23908 0.65262 0.16171 0.0
O433 O 0.34069 0.63571 0.14152 0.0
O434 O 0.34196 0.63683 0.11786 0.0
H435 H 0.23239 0.65207 0.09662 0.0
H436 H 0.19227 0.67762 0.10074 0.0
C437 C 0.22188 0.67639 0.10207 0.0
H438 H 0.23402 0.7003 0.09691 0.0
H439 H 0.30694 0.61906 0.09075 0.0
O440 O 0.30317 0.67812 0.16687 0.0
C441 C 0.35136 0.62279 0.12968 0.0
Co442 Co 0.68268 0.68068 0.85335 0.0
Co443 Co 0.6734 0.67922 0.88662 0.0
C444 C 0.73478 0.64149 0.87157 0.0
O445 O 0.72517 0.6524 0.85928 0.0
O446 O 0.71712 0.65011 0.88271 0.0
C447 C 0.71307 0.68557 0.82505 0.0
O448 O 0.74323 0.67613 0.83132 0.0
C449 C 0.69461 0.69769 0.91581 0.0
C450 C 0.64611 0.68264 0.92808 0.0
C451 C 0.68045 0.6967 0.92953 0.0
N452 N 0.66962 0.68514 0.90673 0.0
N453 N 0.64071 0.67616 0.91412 0.0
C454 C 0.73183 0.70832 0.91139 0.0
H455 H 0.7387 0.69662 0.90086 0.0
H456 H 0.73334 0.738 0.91039 0.0
H457 H 0.75175 0.69954 0.91949 0.0
C458 C 0.679 0.75925 0.85878 0.0
N459 N 0.67948 0.72491 0.86336 0.0
N460 N 0.67365 0.72431 0.8772 0.0
C461 C 0.66782 0.75817 0.88179 0.0
C462 C 0.67136 0.78158 0.8703 0.0
C463 C 0.6872 0.7702 0.84375 0.0
H464 H 0.70967 0.75368 0.83956 0.0
H465 H 0.69481 0.799 0.84306 0.0
H466 H 0.6632 0.76529 0.83699 0.0
O467 O 0.63918 0.65032 0.85674 0.0
O468 O 0.63214 0.65073 0.88027 0.0
H469 H 0.63737 0.74588 0.90066 0.0
H470 H 0.63984 0.79316 0.89653 0.0
C471 C 0.65504 0.76746 0.8965 0.0
H472 H 0.67853 0.77027 0.90369 0.0
H473 H 0.61736 0.66544 0.90964 0.0
O474 O 0.68474 0.68942 0.83249 0.0
C475 C 0.62217 0.64065 0.86792 0.0
Co476 Co 0.68883 0.32174 0.14625 0.0
Co477 Co 0.68758 0.31871 0.11276 0.0
C478 C 0.65031 0.26297 0.12977 0.0
O479 O 0.65977 0.27866 0.14126 0.0
O480 O 0.66024 0.27472 0.11762 0.0
C481 C 0.70636 0.29236 0.1736 0.0
O482 O 0.71181 0.26278 0.16623 0.0
C483 C 0.69413 0.29788 0.08233 0.0
C484 C 0.70436 0.35093 0.07244 0.0
C485 C 0.70075 0.3147 0.06934 0.0
N486 N 0.69433 0.32309 0.09263 0.0
N487 N 0.70027 0.35471 0.08662 0.0
C488 C 0.68551 0.25911 0.08494 0.0
H489 H 0.66011 0.25723 0.09108 0.0
H490 H 0.70715 0.24681 0.09148 0.0
H491 H 0.68218 0.24387 0.07487 0.0
C492 C 0.76714 0.32776 0.1407 0.0
N493 N 0.73299 0.32347 0.13624 0.0
N494 N 0.73269 0.3202 0.12227 0.0
C495 C 0.76683 0.32101 0.11742 0.0
C496 C 0.78991 0.3262 0.12893 0.0
C497 C 0.77726 0.33608 0.15581 0.0
H498 H 0.75612 0.35277 0.16088 0.0
H499 H 0.77969 0.31055 0.16187 0.0
H500 H 0.80327 0.35065 0.15634 0.0
O501 O 0.65935 0.36415 0.14184 0.0
O502 O 0.65716 0.36057 0.11822 0.0
H503 H 0.77334 0.33984 0.09603 0.0
H504 H 0.80545 0.30572 0.1012 0.0
C505 C 0.77707 0.31461 0.10218 0.0
H506 H 0.75951 0.29361 0.09752 0.0
H507 H 0.7017 0.3789 0.09224 0.0
O508 O 0.69684 0.32084 0.16711 0.0
C509 C 0.64812 0.37577 0.12987 0.0
Co510 Co 0.31195 0.31012 0.85125 0.0
Co511 Co 0.31523 0.30892 0.8847 0.0
C512 C 0.25626 0.34708 0.8698 0.0
O513 O 0.26957 0.33838 0.85774 0.0
O514 O 0.27056 0.33659 0.88143 0.0
C515 C 0.27963 0.29527 0.82391 0.0
O516 O 0.25019 0.28957 0.83133 0.0
C517 C 0.29875 0.29839 0.91531 0.0
C518 C 0.35348 0.29056 0.92399 0.0
C519 C 0.31751 0.29164 0.92787 0.0
N520 N 0.32267 0.3011 0.90458 0.0
N521 N 0.3553 0.29668 0.90988 0.0
C522 C 0.25886 0.29915 0.9132 0.0
H523 H 0.25196 0.29129 0.90212 0.0
H524 H 0.24527 0.28077 0.92083 0.0
H525 H 0.24891 0.32691 0.91506 0.0
C526 C 0.3197 0.23151 0.85563 0.0
N527 N 0.31575 0.26524 0.86064 0.0
N528 N 0.31531 0.26445 0.87467 0.0
C529 C 0.31782 0.23 0.87905 0.0
C530 C 0.32102 0.20789 0.86713 0.0
C531 C 0.32515 0.22267 0.8402 0.0
H532 H 0.34109 0.24412 0.83495 0.0
H533 H 0.29856 0.22105 0.83486 0.0
H534 H 0.33933 0.19662 0.83886 0.0
O535 O 0.35497 0.33938 0.85482 0.0
O536 O 0.35607 0.33972 0.87848 0.0
H537 H 0.34129 0.22359 0.89972 0.0
H538 H 0.30829 0.18962 0.89532 0.0
C539 C 0.31521 0.21853 0.89433 0.0
H540 H 0.29416 0.23446 0.8998 0.0
H541 H 0.37881 0.2973 0.90379 0.0
O542 O 0.30844 0.30379 0.83036 0.0
C543 C 0.36896 0.34962 0.86651 0.0
C544 C 0.20668 0.17186 0.19507 0.0
C545 C 0.20395 0.20539 0.18822 0.0
C546 C 0.21014 0.16985 0.20988 0.0
C547 C 0.19106 0.22046 0.24264 0.0
H548 H 0.25455 0.15011 0.25998 0.0
C549 C 0.20726 0.20813 0.30379 0.0
C550 C 0.20738 0.17297 0.30934 0.0
C551 C 0.20975 0.21394 0.28909 0.0
C552 C 0.2365 0.16971 0.2553 0.0
H553 H 0.20323 0.26315 0.19152 0.0
H554 H 0.20934 0.25958 0.21744 0.0
H555 H 0.25386 0.15709 0.23411 0.0
H556 H 0.21059 0.11639 0.3038 0.0
H557 H 0.21451 0.12651 0.27819 0.0
H558 H 0.17323 0.23266 0.2638 0.0
C559 C 0.2085 0.23487 0.21133 0.0
C560 C 0.23613 0.17373 0.24048 0.0
C561 C 0.20518 0.2369 0.19649 0.0
C562 C 0.21048 0.14381 0.29988 0.0
C563 C 0.21298 0.14963 0.2852 0.0
C564 C 0.19139 0.21641 0.25746 0.0
C565 C 0.21088 0.20129 0.21819 0.0
C566 C 0.21308 0.19882 0.23397 0.0
C567 C 0.21246 0.18474 0.27962 0.0
C568 C 0.21378 0.19066 0.26395 0.0
H569 H 0.20587 0.14705 0.18902 0.0
H570 H 0.21143 0.14356 0.21485 0.0
H571 H 0.17268 0.23972 0.23793 0.0
H572 H 0.20504 0.2312 0.3108 0.0
H573 H 0.20971 0.24133 0.28514 0.0
C574 C 0.20142 0.81162 0.69687 0.0
C575 C 0.19929 0.77968 0.6889 0.0
C576 C 0.20326 0.81048 0.71172 0.0
C577 C 0.22437 0.75171 0.74231 0.0
H578 H 0.16539 0.82023 0.76298 0.0
C579 C 0.23686 0.77676 0.80316 0.0
C580 C 0.20486 0.78281 0.81078 0.0
C581 C 0.23631 0.77371 0.78829 0.0
C582 C 0.18176 0.80068 0.75739 0.0
H583 H 0.19829 0.72142 0.69026 0.0
H584 H 0.20121 0.71947 0.7163 0.0
H585 H 0.1645 0.82004 0.73704 0.0
H586 H 0.147 0.789 0.80883 0.0
H587 H 0.14604 0.78336 0.78296 0.0
H588 H 0.24124 0.7321 0.76275 0.0
C589 C 0.20172 0.74537 0.711 0.0
C590 C 0.18161 0.80088 0.74251 0.0
C591 C 0.19987 0.74651 0.6961 0.0
C592 C 0.17219 0.78471 0.80327 0.0
C593 C 0.17165 0.78163 0.78844 0.0
C594 C 0.22458 0.75155 0.75724 0.0
C595 C 0.20298 0.77739 0.71897 0.0
C596 C 0.20302 0.77654 0.7348 0.0
C597 C 0.20374 0.77665 0.78076 0.0
C598 C 0.20328 0.77608 0.76493 0.0
H599 H 0.20137 0.83763 0.69165 0.0
H600 H 0.20489 0.8356 0.71754 0.0
H601 H 0.24132 0.73276 0.73665 0.0
H602 H 0.26247 0.77513 0.80863 0.0
H603 H 0.26153 0.77017 0.78266 0.0
C604 C 0.79821 0.8594 0.30069 0.0
C605 C 0.80109 0.82919 0.30963 0.0
C606 C 0.79843 0.85543 0.28588 0.0
C607 C 0.8283 0.79336 0.25769 0.0
H608 H 0.76851 0.85347 0.23357 0.0
C609 C 0.85471 0.81072 0.19746 0.0
C610 C 0.82487 0.81274 0.18829 0.0
C611 C 0.84996 0.81032 0.21224 0.0
C612 C 0.78511 0.83619 0.24014 0.0
H613 H 0.80558 0.77099 0.31005 0.0
H614 H 0.80559 0.76405 0.28415 0.0
H615 H 0.76209 0.85677 0.25941 0.0
H616 H 0.76657 0.81527 0.18746 0.0
H617 H 0.75831 0.8142 0.21327 0.0
H618 H 0.85112 0.77256 0.23841 0.0
C619 C 0.80369 0.79086 0.28861 0.0
C620 C 0.78172 0.83838 0.25496 0.0
C621 C 0.80348 0.79483 0.30344 0.0
C622 C 0.79015 0.81387 0.19423 0.0
C623 C 0.78541 0.81344 0.20902 0.0
C624 C 0.8317 0.79116 0.24287 0.0
C625 C 0.80148 0.82115 0.27966 0.0
C626 C 0.80354 0.81727 0.26391 0.0
C627 C 0.81527 0.81187 0.2182 0.0
C628 C 0.8104 0.81281 0.23393 0.0
H629 H 0.79639 0.88626 0.30511 0.0
H630 H 0.79716 0.87936 0.2793 0.0
H631 H 0.84575 0.77696 0.26428 0.0
H632 H 0.88182 0.80988 0.19323 0.0
H633 H 0.87356 0.80959 0.21901 0.0
C634 C 0.79057 0.17742 0.69589 0.0
C635 C 0.79313 0.21035 0.68857 0.0
C636 C 0.78829 0.17662 0.71076 0.0
C637 C 0.76477 0.23097 0.74221 0.0
H638 H 0.82483 0.16228 0.76233 0.0
C639 C 0.75009 0.19986 0.80257 0.0
C640 C 0.78206 0.19624 0.81045 0.0
C641 C 0.75117 0.20331 0.78771 0.0
C642 C 0.80807 0.18177 0.75687 0.0
H643 H 0.79447 0.26834 0.69115 0.0
H644 H 0.79038 0.26689 0.71717 0.0
H645 H 0.82684 0.16499 0.73634 0.0
H646 H 0.84029 0.19403 0.80892 0.0
H647 H 0.84209 0.19994 0.78303 0.0
H648 H 0.74613 0.2478 0.76281 0.0
C649 C 0.79007 0.24172 0.71135 0.0
C650 C 0.80894 0.18306 0.74199 0.0
C651 C 0.79258 0.24252 0.69646 0.0
C652 C 0.81514 0.19663 0.80318 0.0
C653 C 0.81619 0.19984 0.78833 0.0
C654 C 0.76369 0.22948 0.75713 0.0
C655 C 0.78831 0.20873 0.71866 0.0
C656 C 0.78729 0.20763 0.73449 0.0
C657 C 0.78422 0.20296 0.78043 0.0
C658 C 0.78538 0.20489 0.76461 0.0
H659 H 0.79077 0.15213 0.69015 0.0
H660 H 0.78646 0.15081 0.71608 0.0
H661 H 0.74762 0.25003 0.73672 0.0
H662 H 0.72416 0.19972 0.80785 0.0
H663 H 0.72607 0.20538 0.7819 0.0
C664 C 0.65055 0.70525 0.69763 0.0
C665 C 0.67862 0.69611 0.68827 0.0
C666 C 0.65657 0.70688 0.71233 0.0
C667 C 0.71709 0.67279 0.74028 0.0
H668 H 0.67327 0.74785 0.76318 0.0
C669 C 0.74219 0.68419 0.80092 0.0
C670 C 0.71168 0.69066 0.8094 0.0
C671 C 0.74029 0.68742 0.78607 0.0
C672 C 0.68549 0.72658 0.75694 0.0
H673 H 0.73518 0.68195 0.68696 0.0
H674 H 0.74569 0.68497 0.71262 0.0
H675 H 0.66597 0.74865 0.73732 0.0
H676 H 0.65544 0.70634 0.80897 0.0
H677 H 0.65207 0.71161 0.78312 0.0
H678 H 0.73618 0.65042 0.75991 0.0
C679 C 0.71893 0.69051 0.7086 0.0
C680 C 0.6813 0.72703 0.74213 0.0
C681 C 0.71294 0.68894 0.6939 0.0
C682 C 0.67945 0.70113 0.80275 0.0
C683 C 0.67757 0.70439 0.78793 0.0
C684 C 0.72126 0.67232 0.7551 0.0
C685 C 0.69078 0.69936 0.71799 0.0
C686 C 0.69675 0.69994 0.73365 0.0
C687 C 0.70787 0.69728 0.77941 0.0
C688 C 0.7052 0.69901 0.76361 0.0
H689 H 0.62379 0.7109 0.69365 0.0
H690 H 0.6342 0.71332 0.71929 0.0
H691 H 0.72893 0.65126 0.73407 0.0
H692 H 0.76747 0.67621 0.80571 0.0
H693 H 0.76423 0.6822 0.77981 0.0
C694 C 0.75195 0.30348 0.30331 0.0
C695 C 0.72013 0.29945 0.31126 0.0
C696 C 0.75143 0.30046 0.28844 0.0
C697 C 0.68981 0.30947 0.25798 0.0
H698 H 0.76562 0.26147 0.23684 0.0
C699 C 0.70332 0.32393 0.19715 0.0
C700 C 0.71033 0.29247 0.18931 0.0
C701 C 0.70563 0.32384 0.21201 0.0
C702 C 0.74415 0.27478 0.24261 0.0
H703 H 0.66299 0.28795 0.30985 0.0
H704 H 0.66218 0.28251 0.28396 0.0
H705 H 0.76704 0.26149 0.26293 0.0
H706 H 0.72599 0.23638 0.19095 0.0
H707 H 0.72987 0.23622 0.21696 0.0
H708 H 0.6667 0.32248 0.23774 0.0
C709 C 0.68743 0.28853 0.2892 0.0
C710 C 0.74514 0.27507 0.25753 0.0
C711 C 0.68795 0.29148 0.30405 0.0
C712 C 0.72038 0.26106 0.19667 0.0
C713 C 0.72279 0.261 0.21156 0.0
C714 C 0.6889 0.30929 0.2431 0.0
C715 C 0.71906 0.29342 0.28121 0.0
C716 C 0.71796 0.29244 0.26538 0.0
C717 C 0.71508 0.29231 0.2194 0.0
C718 C 0.7161 0.29206 0.23524 0.0
H719 H 0.7772 0.30961 0.30854 0.0
H720 H 0.77619 0.30466 0.28258 0.0
H721 H 0.66868 0.32344 0.2637 0.0
H722 H 0.69571 0.34866 0.19182 0.0
H723 H 0.70008 0.34855 0.21773 0.0
C724 C 0.31088 0.29994 0.80036 0.0
C725 C 0.27941 0.29261 0.80815 0.0
C726 C 0.31068 0.29876 0.78548 0.0
C727 C 0.26182 0.26261 0.75451 0.0
H728 H 0.31127 0.33911 0.7343 0.0
C729 C 0.29396 0.25753 0.69402 0.0
C730 C 0.29035 0.28969 0.68626 0.0
C731 C 0.28997 0.25741 0.70886 0.0
C732 C 0.29706 0.31772 0.73977 0.0
H733 H 0.22319 0.27761 0.80643 0.0
H734 H 0.22287 0.27566 0.78035 0.0
H735 H 0.3093 0.33976 0.76026 0.0
H736 H 0.27859 0.34674 0.68794 0.0
H737 H 0.27149 0.34644 0.71377 0.0
H738 H 0.24942 0.24073 0.73393 0.0
C739 C 0.24771 0.28215 0.78581 0.0
C740 C 0.29629 0.31787 0.75465 0.0
C741 C 0.24786 0.28344 0.80073 0.0
C742 C 0.28185 0.32155 0.6936 0.0
C743 C 0.27792 0.32142 0.70842 0.0
C744 C 0.26271 0.26237 0.73958 0.0
C745 C 0.27905 0.29017 0.77803 0.0
C746 C 0.27886 0.29023 0.76219 0.0
C747 C 0.28235 0.28946 0.71623 0.0
C748 C 0.28044 0.2899 0.73206 0.0
H749 H 0.33572 0.30688 0.80573 0.0
H750 H 0.33541 0.30449 0.7798 0.0
H751 H 0.24835 0.24084 0.76003 0.0
H752 H 0.30047 0.23252 0.68869 0.0
H753 H 0.29386 0.23241 0.7146 0.0
C754 C 0.29953 0.70337 0.30551 0.0
C755 C 0.29428 0.66908 0.31149 0.0
C756 C 0.29849 0.70819 0.29072 0.0
C757 C 0.30971 0.65801 0.25714 0.0
H758 H 0.26286 0.74064 0.23999 0.0
C759 C 0.29156 0.66962 0.19646 0.0
C760 C 0.29872 0.70322 0.19019 0.0
C761 C 0.28921 0.66617 0.21125 0.0
C762 C 0.27635 0.71761 0.24464 0.0
H763 H 0.28308 0.6131 0.30666 0.0
H764 H 0.281 0.62158 0.28091 0.0
H765 H 0.26215 0.73331 0.2659 0.0
H766 H 0.30824 0.75973 0.19455 0.0
H767 H 0.30453 0.75361 0.22044 0.0
H768 H 0.32415 0.64236 0.23596 0.0
C769 C 0.28644 0.64465 0.28763 0.0
C770 C 0.27593 0.71341 0.25947 0.0
C771 C 0.28745 0.63984 0.3024 0.0
C772 C 0.30269 0.73347 0.19904 0.0
C773 C 0.30039 0.72999 0.21388 0.0
C774 C 0.31015 0.66221 0.24235 0.0
C775 C 0.29223 0.67881 0.28161 0.0
C776 C 0.29254 0.6835 0.26588 0.0
C777 C 0.29404 0.69621 0.22015 0.0
C778 C 0.2934 0.69199 0.23591 0.0
H779 H 0.30485 0.72647 0.31223 0.0
H780 H 0.30338 0.73478 0.2864 0.0
H781 H 0.32334 0.63503 0.26176 0.0
H782 H 0.28803 0.64582 0.18994 0.0
H783 H 0.28363 0.63989 0.21573 0.0
C784 C 0.10866 0.07894 0.14055 0.0
C785 C 0.12121 0.09404 0.12772 0.0
C786 C 0.07988 0.05485 0.14052 0.0
C787 C 0.02582 0.99516 0.11745 0.0
H788 H 0.95194 0.01141 0.146 0.0
C789 C 0.88974 0.92195 0.11523 0.0
C790 C 0.8774 0.90702 0.12812 0.0
C791 C 0.91844 0.94615 0.11515 0.0
C792 C 0.97246 0.00634 0.13804 0.0
H793 H 0.11438 0.09427 0.10472 0.0
H794 H 0.06405 0.05232 0.10469 0.0
H795 H 0.0059 0.04866 0.14595 0.0
H796 H 0.88461 0.9071 0.15111 0.0
H797 H 0.93476 0.94921 0.15094 0.0
H798 H 0.99238 0.95281 0.10955 0.0
C799 C 0.07659 0.05905 0.11477 0.0
C800 C 0.00342 0.02759 0.13803 0.0
C801 C 0.1054 0.08317 0.1148 0.0
C802 C 0.89338 0.91809 0.14099 0.0
C803 C 0.9221 0.94231 0.1409 0.0
C804 C 0.99485 0.9739 0.11746 0.0
C805 C 0.06302 0.04526 0.12766 0.0
C806 C 0.03047 0.02219 0.12776 0.0
C807 C 0.93543 0.956 0.12795 0.0
C808 C 0.96784 0.97925 0.12776 0.0
H809 H 0.12035 0.08651 0.1507 0.0
H810 H 0.07048 0.04411 0.1506 0.0
H811 H 0.04635 0.99009 0.1095 0.0
H812 H 0.87792 0.91419 0.10512 0.0
H813 H 0.92767 0.95678 0.10502 0.0
C814 C 0.91796 0.10369 0.88108 0.0
C815 C 0.90011 0.1144 0.86855 0.0
C816 C 0.94248 0.0753 0.88083 0.0
C817 C -0.00117 0.01923 0.85732 0.0
H818 H 0.98867 0.94912 0.88775 0.0
C819 C 0.07645 0.88519 0.85679 0.0
C820 C 0.09296 0.87506 0.86968 0.0
C821 C 0.05144 0.91321 0.85647 0.0
C822 C 0.99206 0.9686 0.87925 0.0
H823 H 0.89541 0.10476 0.84579 0.0
H824 H 0.93831 0.05504 0.84538 0.0
H825 H 0.95001 0.00207 0.88739 0.0
H826 H 0.09499 0.88558 0.89245 0.0
H827 H 0.05156 0.93458 0.89186 0.0
H828 H 0.04106 0.98583 0.84923 0.0
C829 C 0.93331 0.06874 0.85539 0.0
C830 C 0.96997 -0.00104 0.87905 0.0
C831 C 0.9087 0.09721 0.85563 0.0
C832 C 0.08278 0.89264 0.88234 0.0
C833 C 0.05778 0.92069 0.88201 0.0
C834 C 0.02099 0.98886 0.85753 0.0
C835 C 0.94976 0.05695 0.86806 0.0
C836 C 0.97326 0.02471 0.86814 0.0
C837 C 0.04235 0.93172 0.86903 0.0
C838 C 0.01793 0.96328 0.86853 0.0
H839 H 0.91227 0.11653 0.89121 0.0
H840 H 0.95534 0.06733 0.89071 0.0
H841 H 0.00219 0.03877 0.84884 0.0
H842 H 0.08349 0.8721 0.84684 0.0
H843 H 0.03951 0.92065 0.84634 0.0
C844 C 0.88891 0.08046 0.646 0.0
C845 C 0.87329 0.08844 0.6327 0.0
C846 C 0.91869 0.0575 0.64687 0.0
C847 C 0.99476 0.02816 0.6251 0.0
H848 H 0.00596 0.9517 0.65288 0.0
C849 C 0.10466 0.9202 0.62023 0.0
C850 C 0.12008 0.90603 0.63271 0.0
C851 C 0.07634 0.94476 0.62103 0.0
C852 C 0.00354 0.97337 0.64522 0.0
H853 H 0.87538 0.07671 0.61 0.0
H854 H 0.92706 0.03684 0.61157 0.0
H855 H 0.95124 0.98816 0.65293 0.0
H856 H 0.11899 0.90805 0.65586 0.0
H857 H 0.07001 0.95156 0.65724 0.0
H858 H 0.04693 0.01376 0.6174 0.0
C859 C 0.91666 0.04879 0.62128 0.0
C860 C 0.97212 0.99409 0.64522 0.0
C861 C 0.88687 0.07146 0.62041 0.0
C862 C 0.1076 0.91827 0.64603 0.0
C863 C 0.07932 0.94299 0.64682 0.0
C864 C 0.02622 0.0077 0.62517 0.0
C865 C 0.93344 0.04234 0.63445 0.0
C866 C 0.96722 0.02127 0.635 0.0
C867 C 0.06288 0.95595 0.63433 0.0
C868 C 0.03077 0.97968 0.63508 0.0
H869 H 0.8791 0.09303 0.65568 0.0
H870 H 0.93113 0.05291 0.65716 0.0
H871 H 0.99199 0.04949 0.61729 0.0
H872 H 0.11351 0.91134 0.60979 0.0
H873 H 0.06407 0.95386 0.61119 0.0
C874 C 0.09038 0.1056 0.35061 0.0
C875 C 0.0984 0.11941 0.36421 0.0
C876 C 0.0633 0.07981 0.34891 0.0
C877 C 0.98543 0.03828 0.36759 0.0
H878 H 0.00845 0.95431 0.34475 0.0
C879 C 0.91695 0.90308 0.37675 0.0
C880 C 0.90186 0.88598 0.36479 0.0
C881 C 0.93995 0.93235 0.37505 0.0
C882 C 0.00153 0.9778 0.35102 0.0
H883 H 0.08333 0.11791 0.3866 0.0
H884 H 0.03685 0.07291 0.38367 0.0
H885 H 0.04883 0.00628 0.3445 0.0
H886 H 0.90063 0.88515 0.34162 0.0
H887 H 0.94167 0.93619 0.33871 0.0
H888 H 0.93898 0.0092 0.37455 0.0
C889 C 0.05101 0.08219 0.37426 0.0
C890 C 0.02449 0.00762 0.35084 0.0
C891 C 0.07792 0.10789 0.37596 0.0
C892 C 0.91174 0.89778 0.35106 0.0
C893 C 0.93518 0.92693 0.34937 0.0
C894 C 0.96277 0.00844 0.36787 0.0
C895 C 0.0437 0.06744 0.36077 0.0
C896 C 0.01711 0.03784 0.3594 0.0
C897 C 0.94871 0.94499 0.36138 0.0
C898 C 0.97105 0.97764 0.35986 0.0
H899 H 0.10561 0.11396 0.34133 0.0
H900 H 0.05802 0.06926 0.33834 0.0
H901 H 0.97851 0.06145 0.37404 0.0
H902 H 0.91009 0.8947 0.38748 0.0
H903 H 0.95056 0.94547 0.38448 0.0
C904 C 0.38117 0.43463 0.61875 0.0
C905 C 0.36932 0.41606 0.63095 0.0
C906 C 0.4094 0.45921 0.61964 0.0
C907 C 0.48874 0.47975 0.64159 0.0
H908 H 0.49289 0.56477 0.61765 0.0
C909 C 0.60474 0.58455 0.64295 0.0
C910 C 0.6166 0.59763 0.62966 0.0
C911 C 0.57484 0.56185 0.64381 0.0
C912 C 0.49221 0.54094 0.6243 0.0
H913 H 0.37667 0.41027 0.65381 0.0
H914 H 0.42567 0.45381 0.65538 0.0
H915 H 0.43786 0.52925 0.61849 0.0
H916 H 0.60734 0.59555 0.6068 0.0
H917 H 0.55536 0.55591 0.60833 0.0
H918 H 0.54322 0.4917 0.6474 0.0
C919 C 0.4135 0.44872 0.64508 0.0
C920 C 0.46068 0.52063 0.62481 0.0
C921 C 0.38521 0.42401 0.6442 0.0
C922 C 0.5989 0.58615 0.61722 0.0
C923 C 0.56891 0.56368 0.61809 0.0
C924 C 0.52025 0.50025 0.64115 0.0
C925 C 0.42642 0.46601 0.63275 0.0
C926 C 0.45873 0.48948 0.63328 0.0
C927 C 0.5561 0.55196 0.6314 0.0
C928 C 0.52245 0.53072 0.63233 0.0
H929 H 0.36957 0.42925 0.60837 0.0
H930 H 0.41886 0.47172 0.60989 0.0
H931 H 0.48833 0.45564 0.64808 0.0
H932 H 0.61777 0.59281 0.65275 0.0
H933 H 0.56553 0.55323 0.65421 0.0
C934 C 0.40582 0.59699 0.35421 0.0
C935 C 0.39574 0.60936 0.36783 0.0
C936 C 0.42957 0.56799 0.35278 0.0
C937 C 0.45898 0.48799 0.37218 0.0
H938 H 0.54233 0.4887 0.34731 0.0
C939 C 0.5748 0.38793 0.37873 0.0
C940 C 0.59352 0.37577 0.36662 0.0
C941 C 0.54794 0.4139 0.37747 0.0
C942 C 0.51877 0.48778 0.35409 0.0
H943 H 0.40395 0.60186 0.3906 0.0
H944 H 0.4451 0.55144 0.38804 0.0
H945 H 0.50185 0.54057 0.34769 0.0
H946 H 0.59755 0.38035 0.34359 0.0
H947 H 0.55006 0.42545 0.34138 0.0
H948 H 0.47563 0.43543 0.37865 0.0
C949 C 0.43434 0.56391 0.3785 0.0
C950 C 0.49573 0.51754 0.35435 0.0
C951 C 0.41095 0.593 0.37994 0.0
C952 C 0.58374 0.38921 0.35314 0.0
C953 C 0.55672 0.41524 0.35188 0.0
C954 C 0.48175 0.45819 0.37185 0.0
C955 C 0.44332 0.55068 0.36494 0.0
C956 C 0.46614 0.51821 0.36365 0.0
C957 C 0.53893 0.42828 0.36407 0.0
C958 C 0.5124 0.45806 0.36306 0.0
H959 H 0.39463 0.60902 0.34467 0.0
H960 H 0.43615 0.55828 0.3422 0.0
H961 H 0.43588 0.48753 0.37924 0.0
H962 H 0.5816 0.37823 0.38929 0.0
H963 H 0.53518 0.42367 0.38711 0.0
C964 C 0.60767 0.41947 0.14238 0.0
C965 C 0.62121 0.40512 0.12957 0.0
C966 C 0.57904 0.44379 0.1422 0.0
C967 C 0.50223 0.47049 0.11984 0.0
H968 H 0.49633 0.55109 0.14599 0.0
C969 C 0.39192 0.57997 0.11672 0.0
C970 C 0.37816 0.59332 0.12966 0.0
C971 C 0.42057 0.55566 0.11668 0.0
C972 C 0.4974 0.52841 0.13875 0.0
H973 H 0.61639 0.40652 0.10649 0.0
H974 H 0.56679 0.4494 0.1062 0.0
H975 H 0.55023 0.51371 0.14569 0.0
H976 H 0.38261 0.59012 0.15273 0.0
H977 H 0.43234 0.54742 0.15262 0.0
H978 H 0.4494 0.4853 0.11288 0.0
C979 C 0.57787 0.44122 0.11638 0.0
C980 C 0.52831 0.50707 0.13855 0.0
C981 C 0.6065 0.41687 0.11656 0.0
C982 C 0.39264 0.58055 0.14257 0.0
C983 C 0.42134 0.5563 0.14252 0.0
C984 C 0.47133 0.49188 0.12003 0.0
C985 C 0.56335 0.45437 0.12921 0.0
C986 C 0.53105 0.47784 0.12911 0.0
C987 C 0.43609 0.5442 0.12957 0.0
C988 C 0.46855 0.521 0.12951 0.0
H989 H 0.61831 0.411 0.1526 0.0
H990 H 0.56831 0.45321 0.15227 0.0
H991 H 0.50323 0.44777 0.11262 0.0
H992 H 0.38139 0.5892 0.10658 0.0
H993 H 0.43147 0.54695 0.10653 0.0
C994 C 0.41126 0.39168 0.87889 0.0
C995 C 0.39874 0.37602 0.86618 0.0
C996 C 0.43649 0.41946 0.8785 0.0
C997 C 0.47083 0.49032 0.85458 0.0
H998 H 0.54505 0.49907 0.88342 0.0
C999 C 0.58374 0.59841 0.85361 0.0
C1000 C 0.59255 0.6142 0.86679 0.0
C1001 C 0.5592 0.56994 0.85297 0.0
C1002 C 0.52423 0.49714 0.87537 0.0
H1003 H 0.40417 0.37623 0.84311 0.0
H1004 H 0.44872 0.42425 0.84247 0.0
H1005 H 0.50625 0.44628 0.88329 0.0
H1006 H 0.58091 0.61374 0.88952 0.0
H1007 H 0.53814 0.56439 0.88833 0.0
H1008 H 0.48909 0.54124 0.84666 0.0
C1009 C 0.4384 0.41556 0.85272 0.0
C1010 C 0.50203 0.4669 0.87529 0.0
C1011 C 0.41307 0.38783 0.8531 0.0
C1012 C 0.57502 0.60205 0.87919 0.0
C1013 C 0.55068 0.57359 0.87855 0.0
C1014 C 0.4932 0.52053 0.85463 0.0
C1015 C 0.44993 0.4321 0.8654 0.0
C1016 C 0.47484 0.46329 0.86498 0.0
C1017 C 0.54316 0.55669 0.86549 0.0
C1018 C 0.51985 0.5244 0.86512 0.0
H1019 H 0.40074 0.38332 0.88915 0.0
H1020 H 0.4445 0.43186 0.88846 0.0
H1021 H 0.4498 0.48861 0.84662 0.0
H1022 H 0.59673 0.60713 0.84386 0.0
H1023 H 0.55392 0.55736 0.84276 0.0
C1024 C 0.32178 0.25971 0.95113 0.0
C1025 C 0.3037 0.28452 0.94241 0.0
C1026 C 0.31025 0.25335 0.96505 0.0
C1027 C 0.23236 0.26189 0.98918 0.0
H1028 H 0.3052 0.24558 0.0181 0.0
C1029 C 0.19996 0.23113 0.04886 0.0
C1030 C 0.21846 0.20115 0.05431 0.0
C1031 C 0.20942 0.24561 0.03557 0.0
C1032 C 0.28456 0.25006 0.01014 0.0
H1033 H 0.25996 0.32309 0.94163 0.0
H1034 H 0.23957 0.31183 0.96604 0.0
H1035 H 0.32328 0.26328 0.99413 0.0
H1036 H 0.26106 0.1627 0.0502 0.0
H1037 H 0.27772 0.18803 0.02716 0.0
H1038 H 0.19368 0.2483 0.00531 0.0
C1039 C 0.26228 0.29674 0.96196 0.0
C1040 C 0.29489 0.26006 0.99639 0.0
C1041 C 0.27383 0.30305 0.94794 0.0
C1042 C 0.24643 0.1859 0.04628 0.0
C1043 C 0.25614 0.20056 0.03314 0.0
C1044 C 0.22199 0.25206 0.00301 0.0
C1045 C 0.28055 0.27196 0.97069 0.0
C1046 C 0.269 0.26516 0.98564 0.0
C1047 C 0.23776 0.23053 0.02763 0.0
C1048 C 0.24809 0.24518 0.01351 0.0
H1049 H 0.34481 0.24492 0.94714 0.0
H1050 H 0.32451 0.23353 0.97137 0.0
H1051 H 0.21177 0.26546 0.98113 0.0
H1052 H 0.17779 0.24294 0.05471 0.0
H1053 H 0.19478 0.26867 0.03155 0.0
C1054 C 0.31275 0.69044 0.04339 0.0
C1055 C 0.29333 0.70298 0.05522 0.0
C1056 C 0.30606 0.7043 0.0298 0.0
C1057 C 0.26215 0.7795 0.01044 0.0
H1058 H 0.25526 0.70951 0.97989 0.0
C1059 C 0.19151 0.80827 0.95674 0.0
C1060 C 0.20667 0.7937 0.9443 0.0
C1061 C 0.20598 0.80013 0.97011 0.0
C1062 C 0.25766 0.72953 0.98823 0.0
H1063 H 0.25091 0.73892 0.06214 0.0
H1064 H 0.23914 0.76331 0.03839 0.0
H1065 H 0.27349 0.69008 0.00358 0.0
H1066 H 0.24816 0.75834 0.93608 0.0
H1067 H 0.2741 0.74484 0.95939 0.0
H1068 H 0.24556 0.81882 0.99507 0.0
C1069 C 0.26032 0.74355 0.03965 0.0
C1070 C 0.26812 0.71838 0.00183 0.0
C1071 C 0.26712 0.72971 0.05326 0.0
C1072 C 0.23665 0.77091 0.94545 0.0
C1073 C 0.25113 0.76273 0.95882 0.0
C1074 C 0.25164 0.79066 0.99681 0.0
C1075 C 0.27943 0.73067 0.02774 0.0
C1076 C 0.2702 0.74316 0.01313 0.0
C1077 C 0.23567 0.77688 0.97132 0.0
C1078 C 0.249 0.76573 0.98559 0.0
H1079 H 0.33298 0.66968 0.04464 0.0
H1080 H 0.32153 0.6941 0.02088 0.0
H1081 H 0.26395 0.79932 0.01888 0.0
H1082 H 0.16809 0.82558 0.95613 0.0
H1083 H 0.19309 0.81103 0.97954 0.0
C1084 C 0.72001 0.73772 0.94392 0.0
C1085 C 0.6972 0.70767 0.94316 0.0
C1086 C 0.73431 0.74868 0.957 0.0
C1087 C 0.75066 0.71819 0.99411 0.0
H1088 H 0.75036 0.8204 0.0024 0.0
C1089 C 0.76617 0.77551 0.051 0.0
C1090 C 0.7874 0.80643 0.05269 0.0
C1091 C 0.75858 0.76226 0.03739 0.0
C1092 C 0.75112 0.79181 0.00018 0.0
H1093 H 0.67109 0.66584 0.95551 0.0
H1094 H 0.69551 0.68532 0.97837 0.0
H1095 H 0.73094 0.79943 0.97904 0.0
H1096 H 0.81686 0.84815 0.04157 0.0
H1097 H 0.80371 0.82498 0.01773 0.0
H1098 H 0.77019 0.71065 0.0154 0.0
C1099 C 0.70308 0.69992 0.96883 0.0
C1100 C 0.74002 0.77978 0.98678 0.0
C1101 C 0.68883 0.68895 0.95575 0.0
C1102 C 0.80065 0.82407 0.04054 0.0
C1103 C 0.79301 0.8109 0.02692 0.0
C1104 C 0.76168 0.73024 0.00753 0.0
C1105 C 0.72583 0.73005 0.96961 0.0
C1106 C 0.73939 0.74282 0.98362 0.0
C1107 C 0.77169 0.77998 0.0252 0.0
C1108 C 0.76177 0.76717 0.01074 0.0
H1109 H 0.72601 0.75354 0.93454 0.0
H1110 H 0.75185 0.77194 0.95723 0.0
H1111 H 0.75099 0.68958 0.99193 0.0
H1112 H 0.75441 0.76221 0.06017 0.0
H1113 H 0.74143 0.73885 0.0364 0.0
C1114 C 0.76825 0.234 0.9454 0.0
C1115 C 0.79146 0.20428 0.94438 0.0
C1116 C 0.75386 0.24413 0.95858 0.0
C1117 C 0.73844 0.21204 0.99559 0.0
H1118 H 0.73908 0.31386 0.00457 0.0
C1119 C 0.7254 0.26731 0.05301 0.0
C1120 C 0.70512 0.29878 0.055 0.0
C1121 C 0.73194 0.25422 0.03927 0.0
C1122 C 0.73818 0.28537 0.00216 0.0
H1123 H 0.81793 0.162 0.95637 0.0
H1124 H 0.79333 0.18 0.97939 0.0
H1125 H 0.75756 0.29388 0.98096 0.0
H1126 H 0.67585 0.34132 0.04429 0.0
H1127 H 0.687 0.31837 0.02027 0.0
H1128 H 0.71971 0.20359 0.01695 0.0
C1129 C 0.78557 0.19502 0.96998 0.0
C1130 C 0.74875 0.27391 0.98862 0.0
C1131 C 0.79992 0.1849 0.95681 0.0
C1132 C 0.69141 0.31687 0.04303 0.0
C1133 C 0.69793 0.30382 0.0293 0.0
C1134 C 0.72791 0.22352 0.00917 0.0
C1135 C 0.7626 0.22495 0.97104 0.0
C1136 C 0.74931 0.2371 0.9852 0.0
C1137 C 0.71863 0.27258 0.02726 0.0
C1138 C 0.72793 0.2603 0.01264 0.0
H1139 H 0.76209 0.25027 0.93616 0.0
H1140 H 0.73613 0.26724 0.95902 0.0
H1141 H 0.73809 0.18352 0.99323 0.0
H1142 H 0.73742 0.25357 0.06202 0.0
H1143 H 0.74858 0.2305 0.03804 0.0
C1144 C 0.75867 0.16452 0.54551 0.0
C1145 C 0.78135 0.18364 0.55474 0.0
C1146 C 0.74987 0.17845 0.53213 0.0
C1147 C 0.74937 0.26302 0.51105 0.0
H1148 H 0.73787 0.19672 0.47946 0.0
C1149 C 0.68474 0.30538 0.45761 0.0
C1150 C 0.69752 0.28966 0.44495 0.0
C1151 C 0.69744 0.29389 0.47088 0.0
C1152 C 0.74146 0.21575 0.48809 0.0
H1153 H 0.81383 0.23167 0.55705 0.0
H1154 H 0.79898 0.25589 0.53357 0.0
H1155 H 0.75618 0.17402 0.50262 0.0
H1156 H 0.73289 0.24838 0.43647 0.0
H1157 H 0.75651 0.22989 0.45942 0.0
H1158 H 0.73573 0.30491 0.49635 0.0
C1159 C 0.78701 0.23063 0.53682 0.0
C1160 C 0.7514 0.20261 0.50147 0.0
C1161 C 0.79549 0.21681 0.55029 0.0
C1162 C 0.7234 0.2622 0.44588 0.0
C1163 C 0.7364 0.25096 0.45914 0.0
C1164 C 0.73975 0.27623 0.49761 0.0
C1165 C 0.76409 0.21159 0.52756 0.0
C1166 C 0.75505 0.22598 0.51317 0.0
C1167 C 0.7233 0.26636 0.47183 0.0
C1168 C 0.73532 0.25271 0.48598 0.0
H1169 H 0.74733 0.1389 0.5487 0.0
H1170 H 0.7316 0.16333 0.52542 0.0
H1171 H 0.75164 0.2818 0.51983 0.0
H1172 H 0.66455 0.32639 0.45728 0.0
H1173 H 0.6862 0.30596 0.4804 0.0
C1174 C 0.18305 0.19153 0.45657 0.0
C1175 C 0.1958 0.20719 0.44389 0.0
C1176 C 0.19505 0.20374 0.46984 0.0
C1177 C 0.23716 0.28324 0.48684 0.0
H1178 H 0.24926 0.21796 0.51876 0.0
C1179 C 0.25627 0.33597 0.54394 0.0
C1180 C 0.27961 0.31725 0.55306 0.0
C1181 C 0.24688 0.32162 0.5307 0.0
C1182 C 0.24643 0.23654 0.50993 0.0
H1183 H 0.23013 0.24926 0.43537 0.0
H1184 H 0.25263 0.26899 0.4583 0.0
H1185 H 0.23323 0.19415 0.49542 0.0
H1186 H 0.31259 0.26952 0.55532 0.0
H1187 H 0.29679 0.24462 0.53207 0.0
H1188 H 0.25156 0.32547 0.50117 0.0
C1189 C 0.2331 0.2474 0.45805 0.0
C1190 C 0.23673 0.22292 0.49657 0.0
C1191 C 0.22078 0.23544 0.4448 0.0
C1192 C 0.29379 0.28407 0.54865 0.0
C1193 C 0.28473 0.26985 0.53531 0.0
C1194 C 0.2472 0.29679 0.50014 0.0
C1195 C 0.22014 0.23196 0.47075 0.0
C1196 C 0.23171 0.24613 0.48488 0.0
C1197 C 0.26116 0.28848 0.52616 0.0
C1198 C 0.25162 0.27369 0.5119 0.0
H1199 H 0.1635 0.16994 0.45625 0.0
H1200 H 0.18393 0.19162 0.47938 0.0
H1201 H 0.23307 0.30204 0.47817 0.0
H1202 H 0.24488 0.36157 0.54713 0.0
H1203 H 0.22812 0.33642 0.52409 0.0
C1204 C 0.24029 0.82707 0.54735 0.0
C1205 C 0.21445 0.80986 0.55586 0.0
C1206 C 0.24903 0.81351 0.53391 0.0
C1207 C 0.24324 0.7314 0.51165 0.0
H1208 H 0.26487 0.79866 0.4812 0.0
C1209 C 0.30965 0.68725 0.45876 0.0
C1210 C 0.29918 0.7047 0.44612 0.0
C1211 C 0.29689 0.699 0.47198 0.0
C1212 C 0.25846 0.77943 0.4895 0.0
H1213 H 0.17632 0.76585 0.55678 0.0
H1214 H 0.19127 0.74224 0.5332 0.0
H1215 H 0.24624 0.82126 0.50435 0.0
H1216 H 0.26817 0.74931 0.43762 0.0
H1217 H 0.24451 0.76857 0.46049 0.0
H1218 H 0.25458 0.68953 0.49663 0.0
C1219 C 0.2056 0.76562 0.53708 0.0
C1220 C 0.24829 0.79244 0.50288 0.0
C1221 C 0.19707 0.77908 0.5506 0.0
C1222 C 0.27574 0.73426 0.44701 0.0
C1223 C 0.26274 0.74585 0.46022 0.0
C1224 C 0.25318 0.71835 0.49822 0.0
C1225 C 0.23171 0.7827 0.52857 0.0
C1226 C 0.24095 0.76862 0.51417 0.0
C1227 C 0.27339 0.72857 0.47289 0.0
C1228 C 0.26123 0.74223 0.48701 0.0
H1229 H 0.25417 0.85081 0.55117 0.0
H1230 H 0.26972 0.827 0.52778 0.0
H1231 H 0.23807 0.71227 0.52012 0.0
H1232 H 0.32795 0.66457 0.45844 0.0
H1233 H 0.3062 0.68543 0.48152 0.0
C1234 C 0.83292 0.77158 0.4535 0.0
C1235 C 0.81163 0.79139 0.44395 0.0
C1236 C 0.81935 0.76138 0.46679 0.0
C1237 C 0.73429 0.74889 0.48669 0.0
H1238 H 0.79796 0.74998 0.51944 0.0
C1239 C 0.69815 0.68065 0.54023 0.0
C1240 C 0.70913 0.69761 0.55287 0.0
C1241 C 0.70878 0.69417 0.52696 0.0
C1242 C 0.77964 0.74991 0.51046 0.0
H1243 H 0.76003 0.81762 0.44109 0.0
H1244 H 0.73627 0.7999 0.46431 0.0
H1245 H 0.82005 0.77035 0.49641 0.0
H1246 H 0.74117 0.7411 0.56158 0.0
H1247 H 0.75841 0.76566 0.5385 0.0
H1248 H 0.69365 0.72911 0.50085 0.0
C1249 C 0.76311 0.79131 0.46137 0.0
C1250 C 0.79249 0.76112 0.49719 0.0
C1251 C 0.77666 0.80136 0.44803 0.0
C1252 C 0.73109 0.72826 0.55202 0.0
C1253 C 0.74158 0.7419 0.53877 0.0
C1254 C 0.72137 0.7378 0.49999 0.0
C1255 C 0.7843 0.77117 0.4709 0.0
C1256 C 0.77009 0.76045 0.48511 0.0
C1257 C 0.73087 0.72482 0.52608 0.0
C1258 C 0.74398 0.73795 0.51202 0.0
H1259 H 0.85998 0.76353 0.45062 0.0
H1260 H 0.83623 0.74543 0.47376 0.0
H1261 H 0.71639 0.74775 0.47758 0.0
H1262 H 0.68164 0.65665 0.5406 0.0
H1263 H 0.70055 0.67996 0.51742 0.0
C1264 C 0.60154 0.23091 0.14294 0.0
C1265 C 0.62219 0.23479 0.13047 0.0
C1266 C 0.56948 0.21143 0.14274 0.0
C1267 C 0.49975 0.18597 0.11658 0.0
H1268 H 0.45224 0.15105 0.15072 0.0
C1269 C 0.34821 0.14825 0.11898 0.0
C1270 C 0.32969 0.16991 0.12884 0.0
C1271 C 0.38582 0.14693 0.11903 0.0
C1272 C 0.46535 0.1604 0.14108 0.0
H1273 H 0.62762 0.21754 0.10848 0.0
H1274 H 0.57245 0.18215 0.10828 0.0
H1275 H 0.51711 0.1613 0.15098 0.0
H1276 H 0.33589 0.20665 0.14662 0.0
H1277 H 0.40152 0.20314 0.14709 0.0
H1278 H 0.44768 0.18498 0.10676 0.0
C1279 C 0.58013 0.19558 0.11806 0.0
C1280 C 0.50244 0.16653 0.14122 0.0
C1281 C 0.61198 0.21563 0.1182 0.0
C1282 C 0.34941 0.18932 0.13903 0.0
C1283 C 0.3869 0.18736 0.1393 0.0
C1284 C 0.46282 0.17909 0.11637 0.0
C1285 C 0.55753 0.19473 0.13012 0.0
C1286 C 0.51993 0.18084 0.12914 0.0
C1287 C 0.40543 0.16651 0.1292 0.0
C1288 C 0.44515 0.1675 0.12876 0.0
H1289 H 0.60859 0.2452 0.15261 0.0
H1290 H 0.55294 0.21181 0.15224 0.0
H1291 H 0.51187 0.19744 0.10711 0.0
H1292 H 0.33363 0.13249 0.11118 0.0
H1293 H 0.39961 0.13067 0.11115 0.0
C1294 C 0.18713 0.64652 0.86243 0.0
C1295 C 0.16939 0.66774 0.87263 0.0
C1296 C 0.18414 0.60912 0.86276 0.0
C1297 C 0.17838 0.53508 0.88619 0.0
H1298 H 0.14886 0.47996 0.85308 0.0
C1299 C 0.21252 0.38555 0.88336 0.0
C1300 C 0.22784 0.37501 0.8703 0.0
C1301 C 0.19264 0.41743 0.88434 0.0
C1302 C 0.15734 0.49485 0.86242 0.0
H1303 H 0.13418 0.6665 0.89108 0.0
H1304 H 0.1308 0.60058 0.89216 0.0
H1305 H 0.14036 0.54511 0.85336 0.0
H1306 H 0.2313 0.38793 0.84775 0.0
H1307 H 0.19826 0.44362 0.8495 0.0
H1308 H 0.19839 0.48593 0.89482 0.0
C1309 C 0.1464 0.61321 0.88378 0.0
C1310 C 0.15218 0.53209 0.86259 0.0
C1311 C 0.14867 0.65077 0.88323 0.0
C1312 C 0.22009 0.39527 0.85802 0.0
C1313 C 0.20078 0.42735 0.85903 0.0
C1314 C 0.18432 0.49797 0.8859 0.0
C1315 C 0.16401 0.59218 0.8735 0.0
C1316 C 0.16357 0.55254 0.87431 0.0
C1317 C 0.18813 0.43972 0.87231 0.0
C1318 C 0.17499 0.47748 0.8738 0.0
H1319 H 0.20379 0.65879 0.85429 0.0
H1320 H 0.19843 0.59332 0.85486 0.0
H1321 H 0.18757 0.55047 0.8953 0.0
H1322 H 0.21752 0.37024 0.893 0.0
H1323 H 0.18237 0.42545 0.89467 0.0
C1324 C 0.3878 0.78202 0.11686 0.0
C1325 C 0.3774 0.76419 0.12943 0.0
C1326 C 0.41937 0.80251 0.11652 0.0
C1327 C 0.49593 0.83497 0.13957 0.0
H1328 H 0.55197 0.81399 0.10566 0.0
C1329 C 0.64902 0.81111 0.1378 0.0
C1330 C 0.66894 0.83134 0.12792 0.0
C1331 C 0.61152 0.813 0.13795 0.0
C1332 C 0.53645 0.82057 0.1151 0.0
H1333 H 0.39033 0.75655 0.15181 0.0
H1334 H 0.44554 0.79055 0.1511 0.0
H1335 H 0.4879 0.80089 0.10589 0.0
H1336 H 0.66533 0.8701 0.11068 0.0
H1337 H 0.59934 0.87169 0.11041 0.0
H1338 H 0.54573 0.85163 0.14908 0.0
C1339 C 0.42935 0.78964 0.14151 0.0
C1340 C 0.49958 0.81334 0.11524 0.0
C1341 C 0.39756 0.76977 0.14191 0.0
C1342 C 0.65061 0.85372 0.11824 0.0
C1343 C 0.613 0.85493 0.11816 0.0
C1344 C 0.53298 0.84139 0.13952 0.0
C1345 C 0.44153 0.80507 0.12867 0.0
C1346 C 0.47896 0.81938 0.12764 0.0
C1347 C 0.59323 0.83455 0.12802 0.0
C1348 C 0.55359 0.83338 0.1274 0.0
H1349 H 0.37256 0.77876 0.10711 0.0
H1350 H 0.42719 0.81494 0.10654 0.0
H1351 H 0.48091 0.84096 0.14918 0.0
H1352 H 0.66237 0.79318 0.14521 0.0
H1353 H 0.59671 0.79663 0.14551 0.0
C1354 C 0.78335 0.60352 0.86066 0.0
C1355 C 0.76303 0.61352 0.87268 0.0
C1356 C 0.80367 0.57184 0.86078 0.0
C1357 C 0.83148 0.49428 0.88416 0.0
H1358 H 0.81387 0.43932 0.8497 0.0
C1359 C 0.80839 0.34158 0.88261 0.0
C1360 C 0.82586 0.32146 0.87199 0.0
C1361 C 0.81124 0.37901 0.88283 0.0
C1362 C 0.81961 0.45448 0.8593 0.0
H1363 H 0.75088 0.59987 0.89468 0.0
H1364 H 0.78485 0.54444 0.89473 0.0
H1365 H 0.80184 0.50355 0.84988 0.0
H1366 H 0.86106 0.3245 0.85359 0.0
H1367 H 0.86458 0.39039 0.85357 0.0
H1368 H 0.84651 0.44413 0.89381 0.0
C1369 C 0.78585 0.56102 0.88524 0.0
C1370 C 0.81293 0.49145 0.85942 0.0
C1371 C 0.76603 0.59291 0.88519 0.0
C1372 C 0.8467 0.33945 0.86172 0.0
C1373 C 0.849 0.377 0.86177 0.0
C1374 C 0.83753 0.45716 0.8841 0.0
C1375 C 0.80366 0.54923 0.87284 0.0
C1376 C 0.81766 0.51169 0.87199 0.0
C1377 C 0.83115 0.39708 0.8723 0.0
C1378 C 0.83066 0.43684 0.87178 0.0
H1379 H 0.78208 0.61912 0.85091 0.0
H1380 H 0.81792 0.56421 0.85117 0.0
H1381 H 0.83632 0.50904 0.89393 0.0
H1382 H 0.79182 0.32844 0.89056 0.0
H1383 H 0.79675 0.39394 0.89093 0.0
C1384 C 0.39464 0.24416 0.61108 0.0
C1385 C 0.37281 0.24598 0.6233 0.0
C1386 C 0.42663 0.22446 0.61126 0.0
C1387 C 0.49384 0.19431 0.63762 0.0
H1388 H 0.54282 0.16051 0.60364 0.0
C1389 C 0.64385 0.15123 0.63726 0.0
C1390 C 0.66425 0.16993 0.62706 0.0
C1391 C 0.60623 0.15231 0.63683 0.0
C1392 C 0.52934 0.16966 0.61323 0.0
H1393 H 0.36537 0.22526 0.64474 0.0
H1394 H 0.42044 0.18968 0.64485 0.0
H1395 H 0.4785 0.17367 0.60267 0.0
H1396 H 0.66151 0.20428 0.6084 0.0
H1397 H 0.59589 0.20531 0.60739 0.0
H1398 H 0.54492 0.1905 0.64809 0.0
C1399 C 0.41366 0.2047 0.63532 0.0
C1400 C 0.49255 0.17737 0.61268 0.0
C1401 C 0.38188 0.22485 0.63522 0.0
C1402 C 0.64643 0.18916 0.61627 0.0
C1403 C 0.60893 0.18974 0.61569 0.0
C1404 C 0.53047 0.18606 0.63821 0.0
C1405 C 0.43731 0.20563 0.62359 0.0
C1406 C 0.47456 0.191 0.62475 0.0
C1407 C 0.58847 0.17157 0.62602 0.0
C1408 C 0.54877 0.17477 0.62591 0.0
H1409 H 0.38846 0.26004 0.6017 0.0
H1410 H 0.44408 0.22616 0.60203 0.0
H1411 H 0.48125 0.20525 0.64709 0.0
H1412 H 0.65698 0.13578 0.64557 0.0
H1413 H 0.59101 0.13805 0.64491 0.0
C1414 C 0.18912 0.3416 0.38342 0.0
C1415 C 0.17489 0.32137 0.37212 0.0
C1416 C 0.18457 0.37886 0.38381 0.0
C1417 C 0.17585 0.45525 0.36041 0.0
H1418 H 0.15388 0.50715 0.39523 0.0
C1419 C 0.20616 0.60485 0.36323 0.0
C1420 C 0.22633 0.61433 0.37534 0.0
C1421 C 0.18625 0.57296 0.36304 0.0
C1422 C 0.16007 0.49312 0.38541 0.0
H1423 H 0.14377 0.32392 0.35259 0.0
H1424 H 0.13709 0.3895 0.35296 0.0
H1425 H 0.14659 0.44187 0.39446 0.0
H1426 H 0.23809 0.59982 0.39729 0.0
H1427 H 0.20468 0.54406 0.39682 0.0
H1428 H 0.19191 0.50559 0.35159 0.0
C1429 C 0.15155 0.37639 0.36155 0.0
C1430 C 0.15577 0.45578 0.38497 0.0
C1431 C 0.15565 0.33901 0.36128 0.0
C1432 C 0.22315 0.59322 0.38772 0.0
C1433 C 0.20367 0.56114 0.38747 0.0
C1434 C 0.18065 0.49247 0.36089 0.0
C1435 C 0.16609 0.39665 0.3728 0.0
C1436 C 0.16469 0.43643 0.3726 0.0
C1437 C 0.18648 0.54969 0.37489 0.0
C1438 C 0.17399 0.51177 0.37355 0.0
H1439 H 0.20438 0.32869 0.39183 0.0
H1440 H 0.19661 0.3939 0.39248 0.0
H1441 H 0.18316 0.44094 0.35076 0.0
H1442 H 0.20754 0.62086 0.35358 0.0
H1443 H 0.17241 0.56555 0.35331 0.0
C1444 C 0.6 0.77214 0.61392 0.0
C1445 C 0.62146 0.76677 0.62609 0.0
C1446 C 0.56771 0.79118 0.61489 0.0
C1447 C 0.49939 0.80887 0.64232 0.0
H1448 H 0.44838 0.84998 0.61014 0.0
C1449 C 0.34583 0.85524 0.62477 0.0
C1450 C 0.32717 0.82627 0.63087 0.0
C1451 C 0.38344 0.85628 0.62516 0.0
C1452 C 0.46227 0.83915 0.61935 0.0
H1453 H 0.62818 0.78116 0.64836 0.0
H1454 H 0.57253 0.8156 0.6499 0.0
H1455 H 0.51333 0.8422 0.60886 0.0
H1456 H 0.33254 0.77577 0.64213 0.0
H1457 H 0.39808 0.77688 0.64256 0.0
H1458 H 0.44849 0.80602 0.65283 0.0
C1459 C 0.57985 0.80378 0.63975 0.0
C1460 C 0.49954 0.8343 0.61855 0.0
C1461 C 0.61196 0.7843 0.63883 0.0
C1462 C 0.34648 0.7985 0.63745 0.0
C1463 C 0.384 0.79936 0.63777 0.0
C1464 C 0.46228 0.81408 0.64317 0.0
C1465 C 0.55635 0.80573 0.628 0.0
C1466 C 0.5184 0.81787 0.62982 0.0
C1467 C 0.40301 0.82824 0.63163 0.0
C1468 C 0.44304 0.828 0.6315 0.0
H1469 H 0.6065 0.75915 0.60391 0.0
H1470 H 0.55044 0.79188 0.6056 0.0
H1471 H 0.5127 0.79585 0.6512 0.0
H1472 H 0.33128 0.87713 0.61976 0.0
H1473 H 0.39715 0.87909 0.62046 0.0
C1474 C 0.84903 0.65725 0.36081 0.0
C1475 C 0.83056 0.67587 0.3716 0.0
C1476 C 0.85046 0.61965 0.36092 0.0
C1477 C 0.84009 0.54016 0.38393 0.0
H1478 H 0.80191 0.4935 0.35022 0.0
C1479 C 0.768 0.40463 0.38591 0.0
C1480 C 0.7651 0.38353 0.37353 0.0
C1481 C 0.78754 0.43667 0.38574 0.0
C1482 C 0.81364 0.50571 0.35961 0.0
H1483 H 0.79944 0.66999 0.39102 0.0
H1484 H 0.80275 0.60441 0.39143 0.0
H1485 H 0.8144 0.55763 0.34971 0.0
H1486 H 0.78389 0.37741 0.35174 0.0
H1487 H 0.81908 0.43271 0.3516 0.0
H1488 H 0.8389 0.48846 0.39394 0.0
C1489 C 0.81625 0.61884 0.38293 0.0
C1490 C 0.8206 0.54261 0.35931 0.0
C1491 C 0.81433 0.65633 0.38269 0.0
C1492 C 0.7851 0.39336 0.3614 0.0
C1493 C 0.80506 0.42524 0.36129 0.0
C1494 C 0.83364 0.50313 0.38418 0.0
C1495 C 0.83397 0.60013 0.37197 0.0
C1496 C 0.83268 0.56036 0.37161 0.0
C1497 C 0.80509 0.44816 0.37324 0.0
C1498 C 0.81902 0.48565 0.37218 0.0
H1499 H 0.86225 0.67174 0.35226 0.0
H1500 H 0.86435 0.60581 0.35237 0.0
H1501 H 0.8499 0.55322 0.3935 0.0
H1502 H 0.75309 0.39781 0.39547 0.0
H1503 H 0.78662 0.45356 0.39514 0.0
C1504 C 0.10002 0.72594 0.63864 0.0
C1505 C 0.11916 0.73573 0.6263 0.0
C1506 C 0.06809 0.70645 0.63762 0.0
C1507 C 0.99538 0.69225 0.61138 0.0
H1508 H 0.95215 0.64249 0.64348 0.0
C1509 C 0.84474 0.64717 0.61572 0.0
C1510 C 0.82736 0.66997 0.62552 0.0
C1511 C 0.88233 0.6461 0.615 0.0
C1512 C 0.96411 0.6559 0.63437 0.0
H1513 H 0.12197 0.72904 0.60334 0.0
H1514 H 0.06701 0.69353 0.6016 0.0
H1515 H 0.01705 0.65286 0.64316 0.0
H1516 H 0.83562 0.70902 0.64237 0.0
H1517 H 0.90132 0.70577 0.64156 0.0
H1518 H 0.94206 0.69508 0.6027 0.0
C1519 C 0.07581 0.70233 0.61204 0.0
C1520 C 0.00118 0.66218 0.63421 0.0
C1521 C 0.10756 0.72242 0.61304 0.0
C1522 C 0.84824 0.69078 0.63488 0.0
C1523 C 0.88573 0.68905 0.63439 0.0
C1524 C 0.95847 0.68521 0.61142 0.0
C1525 C 0.05471 0.69562 0.62425 0.0
C1526 C 0.01712 0.68183 0.623 0.0
C1527 C 0.90299 0.66705 0.62435 0.0
C1528 C 0.94247 0.66814 0.62314 0.0
H1529 H 0.1082 0.73556 0.64906 0.0
H1530 H 0.05274 0.70225 0.64729 0.0
H1531 H 0.00627 0.70787 0.60264 0.0
H1532 H 0.82928 0.63038 0.60855 0.0
H1533 H 0.89526 0.62903 0.60716 0.0
C1534 C 0.73111 0.90158 0.3874 0.0
C1535 C 0.73316 0.88077 0.37491 0.0
C1536 C 0.71137 0.93353 0.38758 0.0
C1537 C 0.68399 0.0026 0.36168 0.0
H1538 H 0.65266 0.05169 0.396 0.0
C1539 C 0.65344 0.15507 0.36286 0.0
C1540 C 0.67352 0.17336 0.37327 0.0
C1541 C 0.6508 0.11755 0.36318 0.0
C1542 C 0.66108 0.03819 0.38631 0.0
H1543 H 0.71226 0.87468 0.35344 0.0
H1544 H 0.67661 0.92967 0.35394 0.0
H1545 H 0.66191 0.98663 0.39645 0.0
H1546 H 0.70593 0.16704 0.39231 0.0
H1547 H 0.70069 0.10157 0.39306 0.0
H1548 H 0.68365 0.05434 0.35165 0.0
C1549 C 0.69155 0.92218 0.3634 0.0
C1550 C 0.66652 0.00097 0.38656 0.0
C1551 C 0.71175 0.89044 0.36315 0.0
C1552 C 0.69001 0.15361 0.38423 0.0
C1553 C 0.68692 0.11621 0.38468 0.0
C1554 C 0.67802 0.03967 0.36139 0.0
C1555 C 0.69275 0.94514 0.37534 0.0
C1556 C 0.67941 0.98289 0.37439 0.0
C1557 C 0.66767 0.09779 0.37406 0.0
C1558 C 0.66777 0.05797 0.37383 0.0
H1559 H 0.74707 0.89484 0.39669 0.0
H1560 H 0.71318 0.95037 0.39697 0.0
H1561 H 0.69444 0.98996 0.35213 0.0
H1562 H 0.63984 0.16975 0.35446 0.0
H1563 H 0.63569 0.10395 0.3549 0.0
C1564 C 0.14459 0.31376 0.61453 0.0
C1565 C 0.16321 0.33264 0.62519 0.0
C1566 C 0.10704 0.31372 0.61427 0.0
C1567 C 0.03042 0.31762 0.63769 0.0
H1568 H 0.97552 0.33076 0.6029 0.0
C1569 C 0.88192 0.27833 0.6366 0.0
C1570 C 0.87198 0.25746 0.62473 0.0
C1571 C 0.9135 0.29875 0.63633 0.0
C1572 C 0.99039 0.32685 0.6127 0.0
H1573 H 0.15734 0.36704 0.6437 0.0
H1574 H 0.09138 0.36567 0.6436 0.0
H1575 H 0.03993 0.34363 0.60303 0.0
H1576 H 0.88575 0.24432 0.60283 0.0
H1577 H 0.94103 0.27858 0.60253 0.0
H1578 H 0.98198 0.2984 0.64718 0.0
C1579 C 0.10597 0.35122 0.6354 0.0
C1580 C 0.02723 0.3344 0.61277 0.0
C1581 C 0.14359 0.35178 0.63551 0.0
C1582 C 0.89264 0.25993 0.6122 0.0
C1583 C 0.92443 0.27988 0.61201 0.0
C1584 C 0.99374 0.30948 0.63757 0.0
C1585 C 0.08738 0.33209 0.62479 0.0
C1586 C 0.0477 0.32903 0.62518 0.0
C1587 C 0.93609 0.29836 0.62427 0.0
C1588 C 0.97339 0.31305 0.62497 0.0
H1589 H 0.15907 0.29841 0.60656 0.0
H1590 H 0.09334 0.29829 0.60611 0.0
H1591 H 0.04568 0.31298 0.64736 0.0
H1592 H 0.86631 0.27745 0.64635 0.0
H1593 H 0.92102 0.31352 0.64583 0.0
C1594 C 0.27141 0.09111 0.38649 0.0
C1595 C 0.26943 0.11182 0.37397 0.0
C1596 C 0.29077 0.05895 0.3867 0.0
C1597 C 0.31745 0.98892 0.36116 0.0
H1598 H 0.35073 0.94166 0.39561 0.0
C1599 C 0.3478 0.83661 0.36322 0.0
C1600 C 0.32825 0.8189 0.37396 0.0
C1601 C 0.35076 0.87411 0.36326 0.0
C1602 C 0.34177 0.95464 0.38589 0.0
H1603 H 0.28975 0.11715 0.35236 0.0
H1604 H 0.32461 0.06163 0.35289 0.0
H1605 H 0.34106 0.00667 0.39563 0.0
H1606 H 0.29717 0.82626 0.3933 0.0
H1607 H 0.30302 0.89165 0.39357 0.0
H1608 H 0.31758 0.93672 0.35154 0.0
C1609 C 0.31002 0.06952 0.36239 0.0
C1610 C 0.33609 0.99182 0.38589 0.0
C1611 C 0.29025 0.10153 0.36212 0.0
C1612 C 0.31276 0.8392 0.38499 0.0
C1613 C 0.31615 0.87658 0.38515 0.0
C1614 C 0.32362 0.95188 0.36111 0.0
C1615 C 0.30905 0.04694 0.37444 0.0
C1616 C 0.3225 0.00923 0.37368 0.0
C1617 C 0.33474 0.89443 0.37419 0.0
C1618 C 0.33458 0.93423 0.37361 0.0
H1619 H 0.25589 0.09831 0.39586 0.0
H1620 H 0.2891 0.04235 0.39617 0.0
H1621 H 0.30649 0.00109 0.35161 0.0
H1622 H 0.3606 0.8215 0.35475 0.0
H1623 H 0.36536 0.88725 0.35472 0.0
C1624 C 0.89747 0.73252 0.11293 0.0
C1625 C 0.87605 0.73668 0.12519 0.0
C1626 C 0.92978 0.71342 0.11359 0.0
C1627 C 0.99808 0.69214 0.1407 0.0
H1628 H 0.0489 0.65469 0.10778 0.0
C1629 C 0.15126 0.64602 0.12246 0.0
C1630 C 0.17023 0.67355 0.12938 0.0
C1631 C 0.11362 0.6456 0.12268 0.0
C1632 C 0.03506 0.66447 0.11718 0.0
H1633 H 0.86946 0.72027 0.14724 0.0
H1634 H 0.92505 0.68559 0.14821 0.0
H1635 H 0.98405 0.66327 0.10662 0.0
H1636 H 0.16542 0.72227 0.14183 0.0
H1637 H 0.09988 0.72238 0.14192 0.0
H1638 H 0.04889 0.69294 0.15132 0.0
C1639 C 0.91774 0.69843 0.13825 0.0
C1640 C 0.99785 0.66981 0.11646 0.0
C1641 C 0.88566 0.71804 0.13767 0.0
C1642 C 0.15121 0.70062 0.13652 0.0
C1643 C 0.11369 0.70043 0.13665 0.0
C1644 C 0.03511 0.68636 0.14148 0.0
C1645 C 0.94117 0.69755 0.12645 0.0
C1646 C 0.97906 0.68496 0.12804 0.0
C1647 C 0.09435 0.6729 0.12975 0.0
C1648 C 0.05431 0.67377 0.12956 0.0
H1649 H 0.89089 0.74646 0.10312 0.0
H1650 H 0.94699 0.71362 0.10427 0.0
H1651 H 0.98486 0.70413 0.14983 0.0
H1652 H 0.16559 0.62472 0.11698 0.0
H1653 H 0.09967 0.62381 0.11738 0.0
C1654 C 0.68387 0.84137 0.8814 0.0
C1655 C 0.6678 0.82127 0.87045 0.0
C1656 C 0.68118 0.87881 0.88153 0.0
C1657 C 0.67579 0.95449 0.85787 0.0
H1658 H 0.65453 0.00875 0.89219 0.0
C1659 C 0.71042 0.10384 0.86 0.0
C1660 C 0.72934 0.1139 0.87235 0.0
C1661 C 0.69041 0.07199 0.85973 0.0
C1662 C 0.66064 0.99407 0.88251 0.0
H1663 H 0.63541 0.82443 0.85126 0.0
H1664 H 0.63219 0.89032 0.85111 0.0
H1665 H 0.64473 0.9438 0.89181 0.0
H1666 H 0.73918 0.10018 0.89453 0.0
H1667 H 0.70569 0.04448 0.89395 0.0
H1668 H 0.69434 0.00374 0.84883 0.0
C1669 C 0.64653 0.8769 0.85965 0.0
C1670 C 0.65484 0.95693 0.8823 0.0
C1671 C 0.64866 0.83932 0.85968 0.0
C1672 C 0.72514 0.09318 0.88479 0.0
C1673 C 0.70561 0.06114 0.88447 0.0
C1674 C 0.68219 0.9915 0.85814 0.0
C1675 C 0.66285 0.89694 0.87057 0.0
C1676 C 0.66332 0.93671 0.8701 0.0
C1677 C 0.68931 0.04929 0.87176 0.0
C1678 C 0.67578 0.01164 0.87062 0.0
H1679 H 0.69921 0.8282 0.88972 0.0
H1680 H 0.69452 0.8937 0.88994 0.0
H1681 H 0.68279 0.93943 0.84837 0.0
H1682 H 0.71264 0.11951 0.85029 0.0
H1683 H 0.67732 0.0643 0.84988 0.0
C1684 C 0.84721 0.3495 0.11816 0.0
C1685 C 0.82967 0.32917 0.12874 0.0
C1686 C 0.88479 0.35085 0.11763 0.0
C1687 C 0.96639 0.3408 0.13866 0.0
H1688 H 0.00967 0.29804 0.10508 0.0
C1689 C 0.10274 0.27062 0.14038 0.0
C1690 C 0.12219 0.26448 0.12775 0.0
C1691 C 0.07069 0.29013 0.14011 0.0
C1692 C -0.00154 0.3111 0.11439 0.0
H1693 H 0.8377 0.29483 0.14716 0.0
H1694 H 0.9033 0.29852 0.14661 0.0
H1695 H 0.94545 0.31043 0.10539 0.0
H1696 H 0.12546 0.27771 0.10524 0.0
H1697 H 0.07031 0.31322 0.10489 0.0
H1698 H 0.01909 0.34162 0.14774 0.0
C1699 C 0.8879 0.31322 0.13871 0.0
C1700 C 0.9615 0.31794 0.11457 0.0
C1701 C 0.8504 0.31119 0.13904 0.0
C1702 C 0.11081 0.28147 0.11513 0.0
C1703 C 0.07895 0.30155 0.11491 0.0
C1704 C 0.00349 0.33473 0.13838 0.0
C1705 C 0.90539 0.33267 0.1279 0.0
C1706 C 0.94503 0.3316 0.12688 0.0
C1707 C 0.05752 0.3046 0.12725 0.0
C1708 C 0.01984 0.31837 0.12647 0.0
H1709 H 0.83189 0.36422 0.11025 0.0
H1710 H 0.89778 0.36603 0.10922 0.0
H1711 H 0.95419 0.35176 0.14822 0.0
H1712 H 0.11074 0.25811 0.15033 0.0
H1713 H 0.05509 0.29148 0.14985 0.0
C1714 C 0.28353 0.88642 0.87989 0.0
C1715 C 0.26367 0.87542 0.86791 0.0
C1716 C 0.30348 0.91832 0.87953 0.0
C1717 C 0.3303 0.99501 0.8554 0.0
H1718 H 0.31384 0.05131 0.88962 0.0
C1719 C 0.30493 0.14781 0.85696 0.0
C1720 C 0.32492 0.16823 0.86674 0.0
C1721 C 0.3077 0.11035 0.85682 0.0
C1722 C 0.31918 0.03575 0.88007 0.0
H1723 H 0.25188 0.88763 0.84575 0.0
H1724 H 0.285 0.94343 0.84528 0.0
H1725 H 0.30209 0.98701 0.88994 0.0
H1726 H 0.36438 0.1656 0.88374 0.0
H1727 H 0.36761 0.0997 0.88403 0.0
H1728 H 0.3444 0.04491 0.84532 0.0
C1729 C 0.28607 0.92746 0.85493 0.0
C1730 C 0.31271 -0.00126 0.88024 0.0
C1731 C 0.26672 0.89532 0.85521 0.0
C1732 C 0.34811 0.15047 0.87628 0.0
C1733 C 0.35025 0.11291 0.87637 0.0
C1734 C 0.33598 0.03217 0.85517 0.0
C1735 C 0.30347 0.94023 0.86726 0.0
C1736 C 0.3171 0.97798 0.86778 0.0
C1737 C 0.32997 0.09259 0.86666 0.0
C1738 C 0.32958 0.0529 0.86741 0.0
H1739 H 0.28226 0.87136 0.88977 0.0
H1740 H 0.31748 0.92661 0.88911 0.0
H1741 H 0.33496 0.9799 0.8457 0.0
H1742 H 0.28647 0.16071 0.84963 0.0
H1743 H 0.29139 0.09515 0.84938 0.0
loop_
_geom_bond_atom_site_label_1
_geom_bond_atom_site_label_2
_geom_bond_distance
_geom_bond_site_symmetry_2
_ccdc_geom_bond_type
Co0 O3 1.970 . S
Co0 N17 1.989 . S
Co0 O25 1.967 . S
Co0 O32 1.920 . S
Co1 O4 1.966 . S
Co1 N10 2.022 . S
Co1 N18 1.993 . S
Co1 O26 1.941 . S
C2 O3 1.258 . S
C2 O4 1.263 . S
O3 Co0 1.970 . S
O3 C2 1.258 . S
O4 Co1 1.966 . S
O4 C2 1.263 . S
C5 O6 1.235 . S
C5 O32 1.289 . S
O6 C5 1.235 . S
C7 C9 1.400 . S
C7 N10 1.351 . S
C7 C12 1.501 . S
C8 C9 1.387 . S
C8 N11 1.341 . S
C9 C7 1.400 . S
C9 C8 1.387 . S
N10 Co1 2.022 . S
N10 C7 1.351 . S
N10 N11 1.365 . S
N11 C8 1.341 . S
N11 N10 1.365 . S
N11 H31 0.862 . S
C12 C7 1.501 . S
C12 H13 0.961 . S
C12 H14 0.961 . S
C12 H15 0.960 . S
H13 C12 0.961 . S
H14 C12 0.961 . S
H15 C12 0.960 . S
C16 N17 1.342 . S
C16 C20 1.401 . S
C16 C21 1.499 . S
N17 Co0 1.989 . S
N17 C16 1.342 . S
N17 N18 1.388 . S
N18 Co1 1.993 . S
N18 N17 1.388 . S
N18 C19 1.346 . S
C19 N18 1.346 . S
C19 C20 1.396 . S
C19 C29 1.510 . S
C20 C16 1.401 . S
C20 C19 1.396 . S
C21 C16 1.499 . S
C21 H22 0.959 . S
C21 H23 0.960 . S
C21 H24 0.961 . S
H22 C21 0.959 . S
H23 C21 0.960 . S
H24 C21 0.961 . S
O25 Co0 1.967 . S
O25 C33 1.258 . S
O26 Co1 1.941 . S
O26 C33 1.266 . S
H27 C29 0.959 . S
H28 C29 0.961 . S
C29 C19 1.510 . S
C29 H27 0.959 . S
C29 H28 0.961 . S
C29 H30 0.960 . S
H30 C29 0.960 . S
H31 N11 0.862 . S
O32 Co0 1.920 . S
O32 C5 1.289 . S
C33 O25 1.258 . S
C33 O26 1.266 . S
Co34 O37 1.970 . S
Co34 N51 1.989 . S
Co34 O59 1.967 . S
Co34 O66 1.920 . S
Co35 O38 1.966 . S
Co35 N44 2.022 . S
Co35 N52 1.993 . S
Co35 O60 1.941 . S
C36 O37 1.258 . S
C36 O38 1.263 . S
O37 Co34 1.970 . S
O37 C36 1.258 . S
O38 Co35 1.966 . S
O38 C36 1.263 . S
C39 O40 1.235 . S
C39 O66 1.289 . S
O40 C39 1.235 . S
C41 C43 1.400 . S
C41 N44 1.351 . S
C41 C46 1.501 . S
C42 C43 1.387 . S
C42 N45 1.341 . S
C43 C41 1.400 . S
C43 C42 1.387 . S
N44 Co35 2.022 . S
N44 C41 1.351 . S
N44 N45 1.365 . S
N45 C42 1.341 . S
N45 N44 1.365 . S
N45 H65 0.862 . S
C46 C41 1.501 . S
C46 H47 0.961 . S
C46 H48 0.961 . S
C46 H49 0.960 . S
H47 C46 0.961 . S
H48 C46 0.961 . S
H49 C46 0.960 . S
C50 N51 1.342 . S
C50 C54 1.401 . S
C50 C55 1.499 . S
N51 Co34 1.989 . S
N51 C50 1.342 . S
N51 N52 1.388 . S
N52 Co35 1.993 . S
N52 N51 1.388 . S
N52 C53 1.346 . S
C53 N52 1.346 . S
C53 C54 1.396 . S
C53 C63 1.510 . S
C54 C50 1.401 . S
C54 C53 1.396 . S
C55 C50 1.499 . S
C55 H56 0.959 . S
C55 H57 0.960 . S
C55 H58 0.961 . S
H56 C55 0.959 . S
H57 C55 0.960 . S
H58 C55 0.961 . S
O59 Co34 1.967 . S
O59 C67 1.258 . S
O60 Co35 1.941 . S
O60 C67 1.266 . S
H61 C63 0.959 . S
H62 C63 0.961 . S
C63 C53 1.510 . S
C63 H61 0.959 . S
C63 H62 0.961 . S
C63 H64 0.960 . S
H64 C63 0.960 . S
H65 N45 0.862 . S
O66 Co34 1.920 . S
O66 C39 1.289 . S
C67 O59 1.258 . S
C67 O60 1.266 . S
Co68 O71 1.970 . S
Co68 N85 1.989 . S
Co68 O93 1.967 . S
Co68 O100 1.920 . S
Co69 O72 1.966 . S
Co69 N78 2.022 . S
Co69 N86 1.993 . S
Co69 O94 1.941 . S
C70 O71 1.258 . S
C70 O72 1.263 . S
O71 Co68 1.970 . S
O71 C70 1.258 . S
O72 Co69 1.966 . S
O72 C70 1.263 . S
C73 O74 1.235 . S
C73 O100 1.289 . S
O74 C73 1.235 . S
C75 C77 1.400 . S
C75 N78 1.351 . S
C75 C80 1.501 . S
C76 C77 1.387 . S
C76 N79 1.341 . S
C77 C75 1.400 . S
C77 C76 1.387 . S
N78 Co69 2.022 . S
N78 C75 1.351 . S
N78 N79 1.365 . S
N79 C76 1.341 . S
N79 N78 1.365 . S
N79 H99 0.862 . S
C80 C75 1.501 . S
C80 H81 0.961 . S
C80 H82 0.961 . S
C80 H83 0.960 . S
H81 C80 0.961 . S
H82 C80 0.961 . S
H83 C80 0.960 . S
C84 N85 1.342 . S
C84 C88 1.401 . S
C84 C89 1.499 . S
N85 Co68 1.989 . S
N85 C84 1.342 . S
N85 N86 1.388 . S
N86 Co69 1.993 . S
N86 N85 1.388 . S
N86 C87 1.346 . S
C87 N86 1.346 . S
C87 C88 1.396 . S
C87 C97 1.510 . S
C88 C84 1.401 . S
C88 C87 1.396 . S
C89 C84 1.499 . S
C89 H90 0.959 . S
C89 H91 0.960 . S
C89 H92 0.961 . S
H90 C89 0.959 . S
H91 C89 0.960 . S
H92 C89 0.961 . S
O93 Co68 1.967 . S
O93 C101 1.258 . S
O94 Co69 1.941 . S
O94 C101 1.266 . S
H95 C97 0.959 . S
H96 C97 0.961 . S
C97 C87 1.510 . S
C97 H95 0.959 . S
C97 H96 0.961 . S
C97 H98 0.960 . S
H98 C97 0.960 . S
H99 N79 0.862 . S
O100 Co68 1.920 . S
O100 C73 1.289 . S
C101 O93 1.258 . S
C101 O94 1.266 . S
Co102 O105 1.970 . S
Co102 N119 1.989 . S
Co102 O127 1.967 . S
Co102 O134 1.920 . S
Co103 O106 1.966 . S
Co103 N112 2.022 . S
Co103 N120 1.993 . S
Co103 O128 1.941 . S
C104 O105 1.258 . S
C104 O106 1.263 . S
O105 Co102 1.970 . S
O105 C104 1.258 . S
O106 Co103 1.966 . S
O106 C104 1.263 . S
C107 O108 1.235 . S
C107 O134 1.289 . S
O108 C107 1.235 . S
C109 C111 1.400 . S
C109 N112 1.351 . S
C109 C114 1.501 . S
C110 C111 1.387 . S
C110 N113 1.341 . S
C111 C109 1.400 . S
C111 C110 1.387 . S
N112 Co103 2.022 . S
N112 C109 1.351 . S
N112 N113 1.365 . S
N113 C110 1.341 . S
N113 N112 1.365 . S
N113 H133 0.862 . S
C114 C109 1.501 . S
C114 H115 0.961 . S
C114 H116 0.961 . S
C114 H117 0.960 . S
H115 C114 0.961 . S
H116 C114 0.961 . S
H117 C114 0.960 . S
C118 N119 1.342 . S
C118 C122 1.401 . S
C118 C123 1.499 . S
N119 Co102 1.989 . S
N119 C118 1.342 . S
N119 N120 1.388 . S
N120 Co103 1.993 . S
N120 N119 1.388 . S
N120 C121 1.346 . S
C121 N120 1.346 . S
C121 C122 1.396 . S
C121 C131 1.510 . S
C122 C118 1.401 . S
C122 C121 1.396 . S
C123 C118 1.499 . S
C123 H124 0.959 . S
C123 H125 0.960 . S
C123 H126 0.961 . S
H124 C123 0.959 . S
H125 C123 0.960 . S
H126 C123 0.961 . S
O127 Co102 1.967 . S
O127 C135 1.258 . S
O128 Co103 1.941 . S
O128 C135 1.266 . S
H129 C131 0.959 . S
H130 C131 0.961 . S
C131 C121 1.510 . S
C131 H129 0.959 . S
C131 H130 0.961 . S
C131 H132 0.960 . S
H132 C131 0.960 . S
H133 N113 0.862 . S
O134 Co102 1.920 . S
O134 C107 1.289 . S
C135 O127 1.258 . S
C135 O128 1.266 . S
Co136 O139 1.970 . S
Co136 N153 1.989 . S
Co136 O161 1.967 . S
Co136 O168 1.920 . S
Co137 O140 1.966 . S
Co137 N146 2.022 . S
Co137 N154 1.993 . S
Co137 O162 1.941 . S
C138 O139 1.258 . S
C138 O140 1.263 . S
O139 Co136 1.970 . S
O139 C138 1.258 . S
O140 Co137 1.966 . S
O140 C138 1.263 . S
C141 O142 1.235 . S
C141 O168 1.289 . S
O142 C141 1.235 . S
C143 C145 1.400 . S
C143 N146 1.351 . S
C143 C148 1.501 . S
C144 C145 1.387 . S
C144 N147 1.341 . S
C145 C143 1.400 . S
C145 C144 1.387 . S
N146 Co137 2.022 . S
N146 C143 1.351 . S
N146 N147 1.365 . S
N147 C144 1.341 . S
N147 N146 1.365 . S
N147 H167 0.862 . S
C148 C143 1.501 . S
C148 H149 0.961 . S
C148 H150 0.961 . S
C148 H151 0.960 . S
H149 C148 0.961 . S
H150 C148 0.961 . S
H151 C148 0.960 . S
C152 N153 1.342 . S
C152 C156 1.401 . S
C152 C157 1.499 . S
N153 Co136 1.989 . S
N153 C152 1.342 . S
N153 N154 1.388 . S
N154 Co137 1.993 . S
N154 N153 1.388 . S
N154 C155 1.346 . S
C155 N154 1.346 . S
C155 C156 1.396 . S
C155 C165 1.510 . S
C156 C152 1.401 . S
C156 C155 1.396 . S
C157 C152 1.499 . S
C157 H158 0.959 . S
C157 H159 0.960 . S
C157 H160 0.961 . S
H158 C157 0.959 . S
H159 C157 0.960 . S
H160 C157 0.961 . S
O161 Co136 1.967 . S
O161 C169 1.258 . S
O162 Co137 1.941 . S
O162 C169 1.266 . S
H163 C165 0.959 . S
H164 C165 0.961 . S
C165 C155 1.510 . S
C165 H163 0.959 . S
C165 H164 0.961 . S
C165 H166 0.960 . S
H166 C165 0.960 . S
H167 N147 0.862 . S
O168 Co136 1.920 . S
O168 C141 1.289 . S
C169 O161 1.258 . S
C169 O162 1.266 . S
Co170 O173 1.970 . S
Co170 N187 1.989 . S
Co170 O195 1.967 . S
Co170 O202 1.920 . S
Co171 O174 1.966 . S
Co171 N180 2.022 . S
Co171 N188 1.993 . S
Co171 O196 1.941 . S
C172 O173 1.258 . S
C172 O174 1.263 . S
O173 Co170 1.970 . S
O173 C172 1.258 . S
O174 Co171 1.966 . S
O174 C172 1.263 . S
C175 O176 1.235 . S
C175 O202 1.289 . S
O176 C175 1.235 . S
C177 C179 1.400 . S
C177 N180 1.351 . S
C177 C182 1.501 . S
C178 C179 1.387 . S
C178 N181 1.341 . S
C179 C177 1.400 . S
C179 C178 1.387 . S
N180 Co171 2.022 . S
N180 C177 1.351 . S
N180 N181 1.365 . S
N181 C178 1.341 . S
N181 N180 1.365 . S
N181 H201 0.862 . S
C182 C177 1.501 . S
C182 H183 0.961 . S
C182 H184 0.961 . S
C182 H185 0.960 . S
H183 C182 0.961 . S
H184 C182 0.961 . S
H185 C182 0.960 . S
C186 N187 1.342 . S
C186 C190 1.401 . S
C186 C191 1.499 . S
N187 Co170 1.989 . S
N187 C186 1.342 . S
N187 N188 1.388 . S
N188 Co171 1.993 . S
N188 N187 1.388 . S
N188 C189 1.346 . S
C189 N188 1.346 . S
C189 C190 1.396 . S
C189 C199 1.510 . S
C190 C186 1.401 . S
C190 C189 1.396 . S
C191 C186 1.499 . S
C191 H192 0.959 . S
C191 H193 0.960 . S
C191 H194 0.961 . S
H192 C191 0.959 . S
H193 C191 0.960 . S
H194 C191 0.961 . S
O195 Co170 1.967 . S
O195 C203 1.258 . S
O196 Co171 1.941 . S
O196 C203 1.266 . S
H197 C199 0.959 . S
H198 C199 0.961 . S
C199 C189 1.510 . S
C199 H197 0.959 . S
C199 H198 0.961 . S
C199 H200 0.960 . S
H200 C199 0.960 . S
H201 N181 0.862 . S
O202 Co170 1.920 . S
O202 C175 1.289 . S
C203 O195 1.258 . S
C203 O196 1.266 . S
Co204 O207 1.970 . S
Co204 N221 1.989 . S
Co204 O229 1.967 . S
Co204 O236 1.920 . S
Co205 O208 1.966 . S
Co205 N214 2.022 . S
Co205 N222 1.993 . S
Co205 O230 1.941 . S
C206 O207 1.258 . S
C206 O208 1.263 . S
O207 Co204 1.970 . S
O207 C206 1.258 . S
O208 Co205 1.966 . S
O208 C206 1.263 . S
C209 O210 1.235 . S
C209 O236 1.289 . S
O210 C209 1.235 . S
C211 C213 1.400 . S
C211 N214 1.351 . S
C211 C216 1.501 . S
C212 C213 1.387 . S
C212 N215 1.341 . S
C213 C211 1.400 . S
C213 C212 1.387 . S
N214 Co205 2.022 . S
N214 C211 1.351 . S
N214 N215 1.365 . S
N215 C212 1.341 . S
N215 N214 1.365 . S
N215 H235 0.862 . S
C216 C211 1.501 . S
C216 H217 0.961 . S
C216 H218 0.961 . S
C216 H219 0.960 . S
H217 C216 0.961 . S
H218 C216 0.961 . S
H219 C216 0.960 . S
C220 N221 1.342 . S
C220 C224 1.401 . S
C220 C225 1.499 . S
N221 Co204 1.989 . S
N221 C220 1.342 . S
N221 N222 1.388 . S
N222 Co205 1.993 . S
N222 N221 1.388 . S
N222 C223 1.346 . S
C223 N222 1.346 . S
C223 C224 1.396 . S
C223 C233 1.510 . S
C224 C220 1.401 . S
C224 C223 1.396 . S
C225 C220 1.499 . S
C225 H226 0.959 . S
C225 H227 0.960 . S
C225 H228 0.961 . S
H226 C225 0.959 . S
H227 C225 0.960 . S
H228 C225 0.961 . S
O229 Co204 1.967 . S
O229 C237 1.258 . S
O230 Co205 1.941 . S
O230 C237 1.266 . S
H231 C233 0.959 . S
H232 C233 0.961 . S
C233 C223 1.510 . S
C233 H231 0.959 . S
C233 H232 0.961 . S
C233 H234 0.960 . S
H234 C233 0.960 . S
H235 N215 0.862 . S
O236 Co204 1.920 . S
O236 C209 1.289 . S
C237 O229 1.258 . S
C237 O230 1.266 . S
Co238 O241 1.970 . S
Co238 N255 1.989 . S
Co238 O263 1.967 . S
Co238 O270 1.920 . S
Co239 O242 1.966 . S
Co239 N248 2.022 . S
Co239 N256 1.993 . S
Co239 O264 1.941 . S
C240 O241 1.258 . S
C240 O242 1.263 . S
O241 Co238 1.970 . S
O241 C240 1.258 . S
O242 Co239 1.966 . S
O242 C240 1.263 . S
C243 O244 1.235 . S
C243 O270 1.289 . S
O244 C243 1.235 . S
C245 C247 1.400 . S
C245 N248 1.351 . S
C245 C250 1.501 . S
C246 C247 1.387 . S
C246 N249 1.341 . S
C247 C245 1.400 . S
C247 C246 1.387 . S
N248 Co239 2.022 . S
N248 C245 1.351 . S
N248 N249 1.365 . S
N249 C246 1.341 . S
N249 N248 1.365 . S
N249 H269 0.862 . S
C250 C245 1.501 . S
C250 H251 0.961 . S
C250 H252 0.961 . S
C250 H253 0.960 . S
H251 C250 0.961 . S
H252 C250 0.961 . S
H253 C250 0.960 . S
C254 N255 1.342 . S
C254 C258 1.401 . S
C254 C259 1.499 . S
N255 Co238 1.989 . S
N255 C254 1.342 . S
N255 N256 1.388 . S
N256 Co239 1.993 . S
N256 N255 1.388 . S
N256 C257 1.346 . S
C257 N256 1.346 . S
C257 C258 1.396 . S
C257 C267 1.510 . S
C258 C254 1.401 . S
C258 C257 1.396 . S
C259 C254 1.499 . S
C259 H260 0.959 . S
C259 H261 0.960 . S
C259 H262 0.961 . S
H260 C259 0.959 . S
H261 C259 0.960 . S
H262 C259 0.961 . S
O263 Co238 1.967 . S
O263 C271 1.258 . S
O264 Co239 1.941 . S
O264 C271 1.266 . S
H265 C267 0.959 . S
H266 C267 0.961 . S
C267 C257 1.510 . S
C267 H265 0.959 . S
C267 H266 0.961 . S
C267 H268 0.960 . S
H268 C267 0.960 . S
H269 N249 0.862 . S
O270 Co238 1.920 . S
O270 C243 1.289 . S
C271 O263 1.258 . S
C271 O264 1.266 . S
Co272 O275 1.970 . S
Co272 N289 1.989 . S
Co272 O297 1.967 . S
Co272 O304 1.920 . S
Co273 O276 1.966 . S
Co273 N282 2.022 . S
Co273 N290 1.993 . S
Co273 O298 1.941 . S
C274 O275 1.258 . S
C274 O276 1.263 . S
O275 Co272 1.970 . S
O275 C274 1.258 . S
O276 Co273 1.966 . S
O276 C274 1.263 . S
C277 O278 1.235 . S
C277 O304 1.289 . S
O278 C277 1.235 . S
C279 C281 1.400 . S
C279 N282 1.351 . S
C279 C284 1.501 . S
C280 C281 1.387 . S
C280 N283 1.341 . S
C281 C279 1.400 . S
C281 C280 1.387 . S
N282 Co273 2.022 . S
N282 C279 1.351 . S
N282 N283 1.365 . S
N283 C280 1.341 . S
N283 N282 1.365 . S
N283 H303 0.862 . S
C284 C279 1.501 . S
C284 H285 0.961 . S
C284 H286 0.961 . S
C284 H287 0.960 . S
H285 C284 0.961 . S
H286 C284 0.961 . S
H287 C284 0.960 . S
C288 N289 1.342 . S
C288 C292 1.401 . S
C288 C293 1.499 . S
N289 Co272 1.989 . S
N289 C288 1.342 . S
N289 N290 1.388 . S
N290 Co273 1.993 . S
N290 N289 1.388 . S
N290 C291 1.346 . S
C291 N290 1.346 . S
C291 C292 1.396 . S
C291 C301 1.510 . S
C292 C288 1.401 . S
C292 C291 1.396 . S
C293 C288 1.499 . S
C293 H294 0.959 . S
C293 H295 0.960 . S
C293 H296 0.961 . S
H294 C293 0.959 . S
H295 C293 0.960 . S
H296 C293 0.961 . S
O297 Co272 1.967 . S
O297 C305 1.258 . S
O298 Co273 1.941 . S
O298 C305 1.266 . S
H299 C301 0.959 . S
H300 C301 0.961 . S
C301 C291 1.510 . S
C301 H299 0.959 . S
C301 H300 0.961 . S
C301 H302 0.960 . S
H302 C301 0.960 . S
H303 N283 0.862 . S
O304 Co272 1.920 . S
O304 C277 1.289 . S
C305 O297 1.258 . S
C305 O298 1.266 . S
Co306 O309 1.970 . S
Co306 N323 1.989 . S
Co306 O331 1.967 . S
Co306 O338 1.920 . S
Co307 O310 1.966 . S
Co307 N316 2.022 . S
Co307 N324 1.993 . S
Co307 O332 1.941 . S
C308 O309 1.258 . S
C308 O310 1.263 . S
O309 Co306 1.970 . S
O309 C308 1.258 . S
O310 Co307 1.966 . S
O310 C308 1.263 . S
C311 O312 1.235 . S
C311 O338 1.289 . S
O312 C311 1.235 . S
C313 C315 1.400 . S
C313 N316 1.351 . S
C313 C318 1.501 . S
C314 C315 1.387 . S
C314 N317 1.341 . S
C315 C313 1.400 . S
C315 C314 1.387 . S
N316 Co307 2.022 . S
N316 C313 1.351 . S
N316 N317 1.365 . S
N317 C314 1.341 . S
N317 N316 1.365 . S
N317 H337 0.862 . S
C318 C313 1.501 . S
C318 H319 0.961 . S
C318 H320 0.961 . S
C318 H321 0.960 . S
H319 C318 0.961 . S
H320 C318 0.961 . S
H321 C318 0.960 . S
C322 N323 1.342 . S
C322 C326 1.401 . S
C322 C327 1.499 . S
N323 Co306 1.989 . S
N323 C322 1.342 . S
N323 N324 1.388 . S
N324 Co307 1.993 . S
N324 N323 1.388 . S
N324 C325 1.346 . S
C325 N324 1.346 . S
C325 C326 1.396 . S
C325 C335 1.510 . S
C326 C322 1.401 . S
C326 C325 1.396 . S
C327 C322 1.499 . S
C327 H328 0.959 . S
C327 H329 0.960 . S
C327 H330 0.961 . S
H328 C327 0.959 . S
H329 C327 0.960 . S
H330 C327 0.961 . S
O331 Co306 1.967 . S
O331 C339 1.258 . S
O332 Co307 1.941 . S
O332 C339 1.266 . S
H333 C335 0.959 . S
H334 C335 0.961 . S
C335 C325 1.510 . S
C335 H333 0.959 . S
C335 H334 0.961 . S
C335 H336 0.960 . S
H336 C335 0.960 . S
H337 N317 0.862 . S
O338 Co306 1.920 . S
O338 C311 1.289 . S
C339 O331 1.258 . S
C339 O332 1.266 . S
Co340 O343 1.970 . S
Co340 N357 1.989 . S
Co340 O365 1.967 . S
Co340 O372 1.920 . S
Co341 O344 1.966 . S
Co341 N350 2.022 . S
Co341 N358 1.993 . S
Co341 O366 1.941 . S
C342 O343 1.258 . S
C342 O344 1.263 . S
O343 Co340 1.970 . S
O343 C342 1.258 . S
O344 Co341 1.966 . S
O344 C342 1.263 . S
C345 O346 1.235 . S
C345 O372 1.289 . S
O346 C345 1.235 . S
C347 C349 1.400 . S
C347 N350 1.351 . S
C347 C352 1.501 . S
C348 C349 1.387 . S
C348 N351 1.341 . S
C349 C347 1.400 . S
C349 C348 1.387 . S
N350 Co341 2.022 . S
N350 C347 1.351 . S
N350 N351 1.365 . S
N351 C348 1.341 . S
N351 N350 1.365 . S
N351 H371 0.862 . S
C352 C347 1.501 . S
C352 H353 0.961 . S
C352 H354 0.961 . S
C352 H355 0.960 . S
H353 C352 0.961 . S
H354 C352 0.961 . S
H355 C352 0.960 . S
C356 N357 1.342 . S
C356 C360 1.401 . S
C356 C361 1.499 . S
N357 Co340 1.989 . S
N357 C356 1.342 . S
N357 N358 1.388 . S
N358 Co341 1.993 . S
N358 N357 1.388 . S
N358 C359 1.346 . S
C359 N358 1.346 . S
C359 C360 1.396 . S
C359 C369 1.510 . S
C360 C356 1.401 . S
C360 C359 1.396 . S
C361 C356 1.499 . S
C361 H362 0.959 . S
C361 H363 0.960 . S
C361 H364 0.961 . S
H362 C361 0.959 . S
H363 C361 0.960 . S
H364 C361 0.961 . S
O365 Co340 1.967 . S
O365 C373 1.258 . S
O366 Co341 1.941 . S
O366 C373 1.266 . S
H367 C369 0.959 . S
H368 C369 0.961 . S
C369 C359 1.510 . S
C369 H367 0.959 . S
C369 H368 0.961 . S
C369 H370 0.960 . S
H370 C369 0.960 . S
H371 N351 0.862 . S
O372 Co340 1.920 . S
O372 C345 1.289 . S
C373 O365 1.258 . S
C373 O366 1.266 . S
Co374 O377 1.970 . S
Co374 N391 1.989 . S
Co374 O399 1.967 . S
Co374 O406 1.920 . S
Co375 O378 1.966 . S
Co375 N384 2.022 . S
Co375 N392 1.993 . S
Co375 O400 1.941 . S
C376 O377 1.258 . S
C376 O378 1.263 . S
O377 Co374 1.970 . S
O377 C376 1.258 . S
O378 Co375 1.966 . S
O378 C376 1.263 . S
C379 O380 1.235 . S
C379 O406 1.289 . S
O380 C379 1.235 . S
C381 C383 1.400 . S
C381 N384 1.351 . S
C381 C386 1.501 . S
C382 C383 1.387 . S
C382 N385 1.341 . S
C383 C381 1.400 . S
C383 C382 1.387 . S
N384 Co375 2.022 . S
N384 C381 1.351 . S
N384 N385 1.365 . S
N385 C382 1.341 . S
N385 N384 1.365 . S
N385 H405 0.862 . S
C386 C381 1.501 . S
C386 H387 0.961 . S
C386 H388 0.961 . S
C386 H389 0.960 . S
H387 C386 0.961 . S
H388 C386 0.961 . S
H389 C386 0.960 . S
C390 N391 1.342 . S
C390 C394 1.401 . S
C390 C395 1.499 . S
N391 Co374 1.989 . S
N391 C390 1.342 . S
N391 N392 1.388 . S
N392 Co375 1.993 . S
N392 N391 1.388 . S
N392 C393 1.346 . S
C393 N392 1.346 . S
C393 C394 1.396 . S
C393 C403 1.510 . S
C394 C390 1.401 . S
C394 C393 1.396 . S
C395 C390 1.499 . S
C395 H396 0.959 . S
C395 H397 0.960 . S
C395 H398 0.961 . S
H396 C395 0.959 . S
H397 C395 0.960 . S
H398 C395 0.961 . S
O399 Co374 1.967 . S
O399 C407 1.258 . S
O400 Co375 1.941 . S
O400 C407 1.266 . S
H401 C403 0.959 . S
H402 C403 0.961 . S
C403 C393 1.510 . S
C403 H401 0.959 . S
C403 H402 0.961 . S
C403 H404 0.960 . S
H404 C403 0.960 . S
H405 N385 0.862 . S
O406 Co374 1.920 . S
O406 C379 1.289 . S
C407 O399 1.258 . S
C407 O400 1.266 . S
Co408 O411 1.970 . S
Co408 N425 1.989 . S
Co408 O433 1.967 . S
Co408 O440 1.920 . S
Co409 O412 1.966 . S
Co409 N418 2.022 . S
Co409 N426 1.993 . S
Co409 O434 1.941 . S
C410 O411 1.258 . S
C410 O412 1.263 . S
O411 Co408 1.970 . S
O411 C410 1.258 . S
O412 Co409 1.966 . S
O412 C410 1.263 . S
C413 O414 1.235 . S
C413 O440 1.289 . S
O414 C413 1.235 . S
C415 C417 1.400 . S
C415 N418 1.351 . S
C415 C420 1.501 . S
C416 C417 1.387 . S
C416 N419 1.341 . S
C417 C415 1.400 . S
C417 C416 1.387 . S
N418 Co409 2.022 . S
N418 C415 1.351 . S
N418 N419 1.365 . S
N419 C416 1.341 . S
N419 N418 1.365 . S
N419 H439 0.862 . S
C420 C415 1.501 . S
C420 H421 0.961 . S
C420 H422 0.961 . S
C420 H423 0.960 . S
H421 C420 0.961 . S
H422 C420 0.961 . S
H423 C420 0.960 . S
C424 N425 1.342 . S
C424 C428 1.401 . S
C424 C429 1.499 . S
N425 Co408 1.989 . S
N425 C424 1.342 . S
N425 N426 1.388 . S
N426 Co409 1.993 . S
N426 N425 1.388 . S
N426 C427 1.346 . S
C427 N426 1.346 . S
C427 C428 1.396 . S
C427 C437 1.510 . S
C428 C424 1.401 . S
C428 C427 1.396 . S
C429 C424 1.499 . S
C429 H430 0.959 . S
C429 H431 0.960 . S
C429 H432 0.961 . S
H430 C429 0.959 . S
H431 C429 0.960 . S
H432 C429 0.961 . S
O433 Co408 1.967 . S
O433 C441 1.258 . S
O434 Co409 1.941 . S
O434 C441 1.266 . S
H435 C437 0.959 . S
H436 C437 0.961 . S
C437 C427 1.510 . S
C437 H435 0.959 . S
C437 H436 0.961 . S
C437 H438 0.960 . S
H438 C437 0.960 . S
H439 N419 0.862 . S
O440 Co408 1.920 . S
O440 C413 1.289 . S
C441 O433 1.258 . S
C441 O434 1.266 . S
Co442 O445 1.970 . S
Co442 N459 1.989 . S
Co442 O467 1.967 . S
Co442 O474 1.920 . S
Co443 O446 1.966 . S
Co443 N452 2.022 . S
Co443 N460 1.993 . S
Co443 O468 1.941 . S
C444 O445 1.258 . S
C444 O446 1.263 . S
O445 Co442 1.970 . S
O445 C444 1.258 . S
O446 Co443 1.966 . S
O446 C444 1.263 . S
C447 O448 1.235 . S
C447 O474 1.289 . S
O448 C447 1.235 . S
C449 C451 1.400 . S
C449 N452 1.351 . S
C449 C454 1.501 . S
C450 C451 1.387 . S
C450 N453 1.341 . S
C451 C449 1.400 . S
C451 C450 1.387 . S
N452 Co443 2.022 . S
N452 C449 1.351 . S
N452 N453 1.365 . S
N453 C450 1.341 . S
N453 N452 1.365 . S
N453 H473 0.862 . S
C454 C449 1.501 . S
C454 H455 0.961 . S
C454 H456 0.961 . S
C454 H457 0.960 . S
H455 C454 0.961 . S
H456 C454 0.961 . S
H457 C454 0.960 . S
C458 N459 1.342 . S
C458 C462 1.401 . S
C458 C463 1.499 . S
N459 Co442 1.989 . S
N459 C458 1.342 . S
N459 N460 1.388 . S
N460 Co443 1.993 . S
N460 N459 1.388 . S
N460 C461 1.346 . S
C461 N460 1.346 . S
C461 C462 1.396 . S
C461 C471 1.510 . S
C462 C458 1.401 . S
C462 C461 1.396 . S
C463 C458 1.499 . S
C463 H464 0.959 . S
C463 H465 0.960 . S
C463 H466 0.961 . S
H464 C463 0.959 . S
H465 C463 0.960 . S
H466 C463 0.961 . S
O467 Co442 1.967 . S
O467 C475 1.258 . S
O468 Co443 1.941 . S
O468 C475 1.266 . S
H469 C471 0.959 . S
H470 C471 0.961 . S
C471 C461 1.510 . S
C471 H469 0.959 . S
C471 H470 0.961 . S
C471 H472 0.960 . S
H472 C471 0.960 . S
H473 N453 0.862 . S
O474 Co442 1.920 . S
O474 C447 1.289 . S
C475 O467 1.258 . S
C475 O468 1.266 . S
Co476 O479 1.970 . S
Co476 N493 1.989 . S
Co476 O501 1.967 . S
Co476 O508 1.920 . S
Co477 O480 1.966 . S
Co477 N486 2.022 . S
Co477 N494 1.993 . S
Co477 O502 1.941 . S
C478 O479 1.258 . S
C478 O480 1.263 . S
O479 Co476 1.970 . S
O479 C478 1.258 . S
O480 Co477 1.966 . S
O480 C478 1.263 . S
C481 O482 1.235 . S
C481 O508 1.289 . S
O482 C481 1.235 . S
C483 C485 1.400 . S
C483 N486 1.351 . S
C483 C488 1.501 . S
C484 C485 1.387 . S
C484 N487 1.341 . S
C485 C483 1.400 . S
C485 C484 1.387 . S
N486 Co477 2.022 . S
N486 C483 1.351 . S
N486 N487 1.365 . S
N487 C484 1.341 . S
N487 N486 1.365 . S
N487 H507 0.862 . S
C488 C483 1.501 . S
C488 H489 0.961 . S
C488 H490 0.961 . S
C488 H491 0.960 . S
H489 C488 0.961 . S
H490 C488 0.961 . S
H491 C488 0.960 . S
C492 N493 1.342 . S
C492 C496 1.401 . S
C492 C497 1.499 . S
N493 Co476 1.989 . S
N493 C492 1.342 . S
N493 N494 1.388 . S
N494 Co477 1.993 . S
N494 N493 1.388 . S
N494 C495 1.346 . S
C495 N494 1.346 . S
C495 C496 1.396 . S
C495 C505 1.510 . S
C496 C492 1.401 . S
C496 C495 1.396 . S
C497 C492 1.499 . S
C497 H498 0.959 . S
C497 H499 0.960 . S
C497 H500 0.961 . S
H498 C497 0.959 . S
H499 C497 0.960 . S
H500 C497 0.961 . S
O501 Co476 1.967 . S
O501 C509 1.258 . S
O502 Co477 1.941 . S
O502 C509 1.266 . S
H503 C505 0.959 . S
H504 C505 0.961 . S
C505 C495 1.510 . S
C505 H503 0.959 . S
C505 H504 0.961 . S
C505 H506 0.960 . S
H506 C505 0.960 . S
H507 N487 0.862 . S
O508 Co476 1.920 . S
O508 C481 1.289 . S
C509 O501 1.258 . S
C509 O502 1.266 . S
Co510 O513 1.970 . S
Co510 N527 1.989 . S
Co510 O535 1.967 . S
Co510 O542 1.920 . S
Co511 O514 1.966 . S
Co511 N520 2.022 . S
Co511 N528 1.993 . S
Co511 O536 1.941 . S
C512 O513 1.258 . S
C512 O514 1.263 . S
O513 Co510 1.970 . S
O513 C512 1.258 . S
O514 Co511 1.966 . S
O514 C512 1.263 . S
C515 O516 1.235 . S
C515 O542 1.289 . S
O516 C515 1.235 . S
C517 C519 1.400 . S
C517 N520 1.351 . S
C517 C522 1.501 . S
C518 C519 1.387 . S
C518 N521 1.341 . S
C519 C517 1.400 . S
C519 C518 1.387 . S
N520 Co511 2.022 . S
N520 C517 1.351 . S
N520 N521 1.365 . S
N521 C518 1.341 . S
N521 N520 1.365 . S
N521 H541 0.862 . S
C522 C517 1.501 . S
C522 H523 0.961 . S
C522 H524 0.961 . S
C522 H525 0.960 . S
H523 C522 0.961 . S
H524 C522 0.961 . S
H525 C522 0.960 . S
C526 N527 1.342 . S
C526 C530 1.401 . S
C526 C531 1.499 . S
N527 Co510 1.989 . S
N527 C526 1.342 . S
N527 N528 1.388 . S
N528 Co511 1.993 . S
N528 N527 1.388 . S
N528 C529 1.346 . S
C529 N528 1.346 . S
C529 C530 1.396 . S
C529 C539 1.510 . S
C530 C526 1.401 . S
C530 C529 1.396 . S
C531 C526 1.499 . S
C531 H532 0.959 . S
C531 H533 0.960 . S
C531 H534 0.961 . S
H532 C531 0.959 . S
H533 C531 0.960 . S
H534 C531 0.961 . S
O535 Co510 1.967 . S
O535 C543 1.258 . S
O536 Co511 1.941 . S
O536 C543 1.266 . S
H537 C539 0.959 . S
H538 C539 0.961 . S
C539 C529 1.510 . S
C539 H537 0.959 . S
C539 H538 0.961 . S
C539 H540 0.960 . S
H540 C539 0.960 . S
H541 N521 0.862 . S
O542 Co510 1.920 . S
O542 C515 1.289 . S
C543 O535 1.258 . S
C543 O536 1.266 . S
C544 C545 1.349 . S
C544 C546 1.327 . S
C544 H569 0.950 . S
C545 C544 1.349 . S
C545 C561 1.349 . S
C546 C544 1.327 . S
C546 C565 1.429 . S
C546 H570 0.950 . S
C547 C564 1.574 . S
C547 C566 1.368 . S
C547 H571 0.949 . S
H548 C552 0.949 . S
C549 C550 1.349 . S
C549 C551 1.327 . S
C549 H572 0.950 . S
C550 C549 1.349 . S
C550 C562 1.349 . S
C551 C549 1.327 . S
C551 C567 1.429 . S
C551 H573 0.950 . S
C552 H548 0.949 . S
C552 C560 1.574 . S
C552 C568 1.368 . S
H553 C561 0.950 . S
H554 C559 0.950 . S
H555 C560 0.949 . S
H556 C562 0.950 . S
H557 C563 0.950 . S
H558 C564 0.949 . S
C559 H554 0.950 . S
C559 C561 1.327 . S
C559 C565 1.429 . S
C560 C552 1.574 . S
C560 H555 0.949 . S
C560 C566 1.368 . S
C561 C545 1.349 . S
C561 H553 0.950 . S
C561 C559 1.327 . S
C562 C550 1.349 . S
C562 H556 0.950 . S
C562 C563 1.327 . S
C563 H557 0.950 . S
C563 C562 1.327 . S
C563 C567 1.429 . S
C564 C547 1.574 . S
C564 H558 0.949 . S
C564 C568 1.368 . S
C565 C546 1.429 . S
C565 C559 1.429 . S
C565 C566 1.523 . S
C566 C547 1.368 . S
C566 C560 1.368 . S
C566 C565 1.523 . S
C567 C551 1.429 . S
C567 C563 1.429 . S
C567 C568 1.523 . S
C568 C552 1.368 . S
C568 C564 1.368 . S
C568 C567 1.523 . S
H569 C544 0.950 . S
H570 C546 0.950 . S
H571 C547 0.949 . S
H572 C549 0.950 . S
H573 C551 0.950 . S
C574 C575 1.349 . S
C574 C576 1.327 . S
C574 H599 0.950 . S
C575 C574 1.349 . S
C575 C591 1.349 . S
C576 C574 1.327 . S
C576 C595 1.429 . S
C576 H600 0.950 . S
C577 C594 1.574 . S
C577 C596 1.368 . S
C577 H601 0.949 . S
H578 C582 0.949 . S
C579 C580 1.349 . S
C579 C581 1.327 . S
C579 H602 0.950 . S
C580 C579 1.349 . S
C580 C592 1.349 . S
C581 C579 1.327 . S
C581 C597 1.429 . S
C581 H603 0.950 . S
C582 H578 0.949 . S
C582 C590 1.574 . S
C582 C598 1.368 . S
H583 C591 0.950 . S
H584 C589 0.950 . S
H585 C590 0.949 . S
H586 C592 0.950 . S
H587 C593 0.950 . S
H588 C594 0.949 . S
C589 H584 0.950 . S
C589 C591 1.327 . S
C589 C595 1.429 . S
C590 C582 1.574 . S
C590 H585 0.949 . S
C590 C596 1.368 . S
C591 C575 1.349 . S
C591 H583 0.950 . S
C591 C589 1.327 . S
C592 C580 1.349 . S
C592 H586 0.950 . S
C592 C593 1.327 . S
C593 H587 0.950 . S
C593 C592 1.327 . S
C593 C597 1.429 . S
C594 C577 1.574 . S
C594 H588 0.949 . S
C594 C598 1.368 . S
C595 C576 1.429 . S
C595 C589 1.429 . S
C595 C596 1.523 . S
C596 C577 1.368 . S
C596 C590 1.368 . S
C596 C595 1.523 . S
C597 C581 1.429 . S
C597 C593 1.429 . S
C597 C598 1.523 . S
C598 C582 1.368 . S
C598 C594 1.368 . S
C598 C597 1.523 . S
H599 C574 0.950 . S
H600 C576 0.950 . S
H601 C577 0.949 . S
H602 C579 0.950 . S
H603 C581 0.950 . S
C604 C605 1.349 . S
C604 C606 1.327 . S
C604 H629 0.950 . S
C605 C604 1.349 . S
C605 C621 1.349 . S
C606 C604 1.327 . S
C606 C625 1.429 . S
C606 H630 0.950 . S
C607 C624 1.574 . S
C607 C626 1.368 . S
C607 H631 0.949 . S
H608 C612 0.949 . S
C609 C610 1.349 . S
C609 C611 1.327 . S
C609 H632 0.950 . S
C610 C609 1.349 . S
C610 C622 1.349 . S
C611 C609 1.327 . S
C611 C627 1.429 . S
C611 H633 0.950 . S
C612 H608 0.949 . S
C612 C620 1.574 . S
C612 C628 1.368 . S
H613 C621 0.950 . S
H614 C619 0.950 . S
H615 C620 0.949 . S
H616 C622 0.950 . S
H617 C623 0.950 . S
H618 C624 0.949 . S
C619 H614 0.950 . S
C619 C621 1.327 . S
C619 C625 1.429 . S
C620 C612 1.574 . S
C620 H615 0.949 . S
C620 C626 1.368 . S
C621 C605 1.349 . S
C621 H613 0.950 . S
C621 C619 1.327 . S
C622 C610 1.349 . S
C622 H616 0.950 . S
C622 C623 1.327 . S
C623 H617 0.950 . S
C623 C622 1.327 . S
C623 C627 1.429 . S
C624 C607 1.574 . S
C624 H618 0.949 . S
C624 C628 1.368 . S
C625 C606 1.429 . S
C625 C619 1.429 . S
C625 C626 1.523 . S
C626 C607 1.368 . S
C626 C620 1.368 . S
C626 C625 1.523 . S
C627 C611 1.429 . S
C627 C623 1.429 . S
C627 C628 1.523 . S
C628 C612 1.368 . S
C628 C624 1.368 . S
C628 C627 1.523 . S
H629 C604 0.950 . S
H630 C606 0.950 . S
H631 C607 0.949 . S
H632 C609 0.950 . S
H633 C611 0.950 . S
C634 C635 1.349 . S
C634 C636 1.327 . S
C634 H659 0.950 . S
C635 C634 1.349 . S
C635 C651 1.349 . S
C636 C634 1.327 . S
C636 C655 1.429 . S
C636 H660 0.950 . S
C637 C654 1.574 . S
C637 C656 1.368 . S
C637 H661 0.949 . S
H638 C642 0.949 . S
C639 C640 1.349 . S
C639 C641 1.327 . S
C639 H662 0.950 . S
C640 C639 1.349 . S
C640 C652 1.349 . S
C641 C639 1.327 . S
C641 C657 1.429 . S
C641 H663 0.950 . S
C642 H638 0.949 . S
C642 C650 1.574 . S
C642 C658 1.368 . S
H643 C651 0.950 . S
H644 C649 0.950 . S
H645 C650 0.949 . S
H646 C652 0.950 . S
H647 C653 0.950 . S
H648 C654 0.949 . S
C649 H644 0.950 . S
C649 C651 1.327 . S
C649 C655 1.429 . S
C650 C642 1.574 . S
C650 H645 0.949 . S
C650 C656 1.368 . S
C651 C635 1.349 . S
C651 H643 0.950 . S
C651 C649 1.327 . S
C652 C640 1.349 . S
C652 H646 0.950 . S
C652 C653 1.327 . S
C653 H647 0.950 . S
C653 C652 1.327 . S
C653 C657 1.429 . S
C654 C637 1.574 . S
C654 H648 0.949 . S
C654 C658 1.368 . S
C655 C636 1.429 . S
C655 C649 1.429 . S
C655 C656 1.523 . S
C656 C637 1.368 . S
C656 C650 1.368 . S
C656 C655 1.523 . S
C657 C641 1.429 . S
C657 C653 1.429 . S
C657 C658 1.523 . S
C658 C642 1.368 . S
C658 C654 1.368 . S
C658 C657 1.523 . S
H659 C634 0.950 . S
H660 C636 0.950 . S
H661 C637 0.949 . S
H662 C639 0.950 . S
H663 C641 0.950 . S
C664 C665 1.349 . S
C664 C666 1.327 . S
C664 H689 0.950 . S
C665 C664 1.349 . S
C665 C681 1.349 . S
C666 C664 1.327 . S
C666 C685 1.429 . S
C666 H690 0.950 . S
C667 C684 1.574 . S
C667 C686 1.368 . S
C667 H691 0.949 . S
H668 C672 0.949 . S
C669 C670 1.349 . S
C669 C671 1.327 . S
C669 H692 0.950 . S
C670 C669 1.349 . S
C670 C682 1.349 . S
C671 C669 1.327 . S
C671 C687 1.429 . S
C671 H693 0.950 . S
C672 H668 0.949 . S
C672 C680 1.574 . S
C672 C688 1.368 . S
H673 C681 0.950 . S
H674 C679 0.950 . S
H675 C680 0.949 . S
H676 C682 0.950 . S
H677 C683 0.950 . S
H678 C684 0.949 . S
C679 H674 0.950 . S
C679 C681 1.327 . S
C679 C685 1.429 . S
C680 C672 1.574 . S
C680 H675 0.949 . S
C680 C686 1.368 . S
C681 C665 1.349 . S
C681 H673 0.950 . S
C681 C679 1.327 . S
C682 C670 1.349 . S
C682 H676 0.950 . S
C682 C683 1.327 . S
C683 H677 0.950 . S
C683 C682 1.327 . S
C683 C687 1.429 . S
C684 C667 1.574 . S
C684 H678 0.949 . S
C684 C688 1.368 . S
C685 C666 1.429 . S
C685 C679 1.429 . S
C685 C686 1.523 . S
C686 C667 1.368 . S
C686 C680 1.368 . S
C686 C685 1.523 . S
C687 C671 1.429 . S
C687 C683 1.429 . S
C687 C688 1.523 . S
C688 C672 1.368 . S
C688 C684 1.368 . S
C688 C687 1.523 . S
H689 C664 0.950 . S
H690 C666 0.950 . S
H691 C667 0.949 . S
H692 C669 0.950 . S
H693 C671 0.950 . S
C694 C695 1.349 . S
C694 C696 1.327 . S
C694 H719 0.950 . S
C695 C694 1.349 . S
C695 C711 1.349 . S
C696 C694 1.327 . S
C696 C715 1.429 . S
C696 H720 0.950 . S
C697 C714 1.574 . S
C697 C716 1.368 . S
C697 H721 0.949 . S
H698 C702 0.949 . S
C699 C700 1.349 . S
C699 C701 1.327 . S
C699 H722 0.950 . S
C700 C699 1.349 . S
C700 C712 1.349 . S
C701 C699 1.327 . S
C701 C717 1.429 . S
C701 H723 0.950 . S
C702 H698 0.949 . S
C702 C710 1.574 . S
C702 C718 1.368 . S
H703 C711 0.950 . S
H704 C709 0.950 . S
H705 C710 0.949 . S
H706 C712 0.950 . S
H707 C713 0.950 . S
H708 C714 0.949 . S
C709 H704 0.950 . S
C709 C711 1.327 . S
C709 C715 1.429 . S
C710 C702 1.574 . S
C710 H705 0.949 . S
C710 C716 1.368 . S
C711 C695 1.349 . S
C711 H703 0.950 . S
C711 C709 1.327 . S
C712 C700 1.349 . S
C712 H706 0.950 . S
C712 C713 1.327 . S
C713 H707 0.950 . S
C713 C712 1.327 . S
C713 C717 1.429 . S
C714 C697 1.574 . S
C714 H708 0.949 . S
C714 C718 1.368 . S
C715 C696 1.429 . S
C715 C709 1.429 . S
C715 C716 1.523 . S
C716 C697 1.368 . S
C716 C710 1.368 . S
C716 C715 1.523 . S
C717 C701 1.429 . S
C717 C713 1.429 . S
C717 C718 1.523 . S
C718 C702 1.368 . S
C718 C714 1.368 . S
C718 C717 1.523 . S
H719 C694 0.950 . S
H720 C696 0.950 . S
H721 C697 0.949 . S
H722 C699 0.950 . S
H723 C701 0.950 . S
C724 C725 1.349 . S
C724 C726 1.327 . S
C724 H749 0.950 . S
C725 C724 1.349 . S
C725 C741 1.349 . S
C726 C724 1.327 . S
C726 C745 1.429 . S
C726 H750 0.950 . S
C727 C744 1.574 . S
C727 C746 1.368 . S
C727 H751 0.949 . S
H728 C732 0.949 . S
C729 C730 1.349 . S
C729 C731 1.327 . S
C729 H752 0.950 . S
C730 C729 1.349 . S
C730 C742 1.349 . S
C731 C729 1.327 . S
C731 C747 1.429 . S
C731 H753 0.950 . S
C732 H728 0.949 . S
C732 C740 1.574 . S
C732 C748 1.368 . S
H733 C741 0.950 . S
H734 C739 0.950 . S
H735 C740 0.949 . S
H736 C742 0.950 . S
H737 C743 0.950 . S
H738 C744 0.949 . S
C739 H734 0.950 . S
C739 C741 1.327 . S
C739 C745 1.429 . S
C740 C732 1.574 . S
C740 H735 0.949 . S
C740 C746 1.368 . S
C741 C725 1.349 . S
C741 H733 0.950 . S
C741 C739 1.327 . S
C742 C730 1.349 . S
C742 H736 0.950 . S
C742 C743 1.327 . S
C743 H737 0.950 . S
C743 C742 1.327 . S
C743 C747 1.429 . S
C744 C727 1.574 . S
C744 H738 0.949 . S
C744 C748 1.368 . S
C745 C726 1.429 . S
C745 C739 1.429 . S
C745 C746 1.523 . S
C746 C727 1.368 . S
C746 C740 1.368 . S
C746 C745 1.523 . S
C747 C731 1.429 . S
C747 C743 1.429 . S
C747 C748 1.523 . S
C748 C732 1.368 . S
C748 C744 1.368 . S
C748 C747 1.523 . S
H749 C724 0.950 . S
H750 C726 0.950 . S
H751 C727 0.949 . S
H752 C729 0.950 . S
H753 C731 0.950 . S
C754 C755 1.349 . S
C754 C756 1.327 . S
C754 H779 0.950 . S
C755 C754 1.349 . S
C755 C771 1.349 . S
C756 C754 1.327 . S
C756 C775 1.429 . S
C756 H780 0.950 . S
C757 C774 1.574 . S
C757 C776 1.368 . S
C757 H781 0.949 . S
H758 C762 0.949 . S
C759 C760 1.349 . S
C759 C761 1.327 . S
C759 H782 0.950 . S
C760 C759 1.349 . S
C760 C772 1.349 . S
C761 C759 1.327 . S
C761 C777 1.429 . S
C761 H783 0.950 . S
C762 H758 0.949 . S
C762 C770 1.574 . S
C762 C778 1.368 . S
H763 C771 0.950 . S
H764 C769 0.950 . S
H765 C770 0.949 . S
H766 C772 0.950 . S
H767 C773 0.950 . S
H768 C774 0.949 . S
C769 H764 0.950 . S
C769 C771 1.327 . S
C769 C775 1.429 . S
C770 C762 1.574 . S
C770 H765 0.949 . S
C770 C776 1.368 . S
C771 C755 1.349 . S
C771 H763 0.950 . S
C771 C769 1.327 . S
C772 C760 1.349 . S
C772 H766 0.950 . S
C772 C773 1.327 . S
C773 H767 0.950 . S
C773 C772 1.327 . S
C773 C777 1.429 . S
C774 C757 1.574 . S
C774 H768 0.949 . S
C774 C778 1.368 . S
C775 C756 1.429 . S
C775 C769 1.429 . S
C775 C776 1.523 . S
C776 C757 1.368 . S
C776 C770 1.368 . S
C776 C775 1.523 . S
C777 C761 1.429 . S
C777 C773 1.429 . S
C777 C778 1.523 . S
C778 C762 1.368 . S
C778 C774 1.368 . S
C778 C777 1.523 . S
H779 C754 0.950 . S
H780 C756 0.950 . S
H781 C757 0.949 . S
H782 C759 0.950 . S
H783 C761 0.950 . S
C784 C785 1.349 . S
C784 C786 1.327 . S
C784 H809 0.950 . S
C785 C784 1.349 . S
C785 C801 1.349 . S
C786 C784 1.327 . S
C786 C805 1.429 . S
C786 H810 0.950 . S
C787 C804 1.583 1_545 S
C787 C806 1.368 . S
C787 H811 0.949 . S
H788 C792 0.949 . S
C789 C790 1.349 . S
C789 C791 1.327 . S
C789 H812 0.950 . S
C790 C789 1.349 . S
C790 C802 1.349 . S
C791 C789 1.327 . S
C791 C807 1.429 . S
C791 H813 0.950 . S
C792 H788 0.949 . S
C792 C800 1.583 1_565 S
C792 C808 1.368 . S
H793 C801 0.950 . S
H794 C799 0.950 . S
H795 C800 0.949 . S
H796 C802 0.950 . S
H797 C803 0.950 . S
H798 C804 0.949 . S
C799 H794 0.950 . S
C799 C801 1.327 . S
C799 C805 1.429 . S
C800 C792 1.583 1_545 S
C800 H795 0.949 . S
C800 C806 1.359 1_655 S
C801 C785 1.349 . S
C801 H793 0.950 . S
C801 C799 1.327 . S
C802 C790 1.349 . S
C802 H796 0.950 . S
C802 C803 1.327 . S
C803 H797 0.950 . S
C803 C802 1.327 . S
C803 C807 1.429 . S
C804 C787 1.583 1_565 S
C804 H798 0.949 . S
C804 C808 1.359 1_455 S
C805 C786 1.429 . S
C805 C799 1.429 . S
C805 C806 1.523 . S
C806 C787 1.368 . S
C806 C800 1.359 1_455 S
C806 C805 1.523 . S
C807 C791 1.429 . S
C807 C803 1.429 . S
C807 C808 1.523 . S
C808 C792 1.368 . S
C808 C804 1.359 1_655 S
C808 C807 1.523 . S
H809 C784 0.950 . S
H810 C786 0.950 . S
H811 C787 0.949 . S
H812 C789 0.950 . S
H813 C791 0.950 . S
C814 C815 1.349 . S
C814 C816 1.327 . S
C814 H839 0.950 . S
C815 C814 1.349 . S
C815 C831 1.349 . S
C816 C814 1.327 . S
C816 C835 1.429 . S
C816 H840 0.950 . S
C817 C834 1.583 1_655 S
C817 C836 1.368 . S
C817 H841 0.949 . S
H818 C822 0.949 . S
C819 C820 1.349 . S
C819 C821 1.327 . S
C819 H842 0.950 . S
C820 C819 1.349 . S
C820 C832 1.349 . S
C821 C819 1.327 . S
C821 C837 1.429 . S
C821 H843 0.950 . S
C822 H818 0.949 . S
C822 C830 1.583 1_455 S
C822 C838 1.368 . S
H823 C831 0.950 . S
H824 C829 0.950 . S
H825 C830 0.949 . S
H826 C832 0.950 . S
H827 C833 0.950 . S
H828 C834 0.949 . S
C829 H824 0.950 . S
C829 C831 1.327 . S
C829 C835 1.429 . S
C830 C822 1.583 1_655 S
C830 H825 0.949 . S
C830 C836 1.359 1_565 S
C831 C815 1.349 . S
C831 H823 0.950 . S
C831 C829 1.327 . S
C832 C820 1.349 . S
C832 H826 0.950 . S
C832 C833 1.327 . S
C833 H827 0.950 . S
C833 C832 1.327 . S
C833 C837 1.429 . S
C834 C817 1.583 1_455 S
C834 H828 0.949 . S
C834 C838 1.359 1_545 S
C835 C816 1.429 . S
C835 C829 1.429 . S
C835 C836 1.523 . S
C836 C817 1.368 . S
C836 C830 1.359 1_545 S
C836 C835 1.523 . S
C837 C821 1.429 . S
C837 C833 1.429 . S
C837 C838 1.523 . S
C838 C822 1.368 . S
C838 C834 1.359 1_565 S
C838 C837 1.523 . S
H839 C814 0.950 . S
H840 C816 0.950 . S
H841 C817 0.949 . S
H842 C819 0.950 . S
H843 C821 0.950 . S
C844 C845 1.349 . S
C844 C846 1.327 . S
C844 H869 0.950 . S
C845 C844 1.349 . S
C845 C861 1.349 . S
C846 C844 1.327 . S
C846 C865 1.429 . S
C846 H870 0.950 . S
C847 C864 1.583 1_545 S
C847 C866 1.359 1_455 S
C847 H871 0.949 . S
H848 C852 0.949 . S
C849 C850 1.349 . S
C849 C851 1.327 . S
C849 H872 0.950 . S
C850 C849 1.349 . S
C850 C862 1.349 . S
C851 C849 1.327 . S
C851 C867 1.429 . S
C851 H873 0.950 . S
C852 H848 0.949 . S
C852 C860 1.583 1_565 S
C852 C868 1.359 1_655 S
H853 C861 0.950 . S
H854 C859 0.950 . S
H855 C860 0.949 . S
H856 C862 0.950 . S
H857 C863 0.950 . S
H858 C864 0.949 . S
C859 H854 0.950 . S
C859 C861 1.327 . S
C859 C865 1.429 . S
C860 C852 1.583 1_545 S
C860 H855 0.949 . S
C860 C866 1.368 . S
C861 C845 1.349 . S
C861 H853 0.950 . S
C861 C859 1.327 . S
C862 C850 1.349 . S
C862 H856 0.950 . S
C862 C863 1.327 . S
C863 H857 0.950 . S
C863 C862 1.327 . S
C863 C867 1.429 . S
C864 C847 1.583 1_565 S
C864 H858 0.949 . S
C864 C868 1.368 . S
C865 C846 1.429 . S
C865 C859 1.429 . S
C865 C866 1.523 . S
C866 C847 1.359 1_655 S
C866 C860 1.368 . S
C866 C865 1.523 . S
C867 C851 1.429 . S
C867 C863 1.429 . S
C867 C868 1.523 . S
C868 C852 1.359 1_455 S
C868 C864 1.368 . S
C868 C867 1.523 . S
H869 C844 0.950 . S
H870 C846 0.950 . S
H871 C847 0.949 . S
H872 C849 0.950 . S
H873 C851 0.950 . S
C874 C875 1.349 . S
C874 C876 1.327 . S
C874 H899 0.950 . S
C875 C874 1.349 . S
C875 C891 1.349 . S
C876 C874 1.327 . S
C876 C895 1.429 . S
C876 H900 0.950 . S
C877 C894 1.583 1_455 S
C877 C896 1.368 . S
C877 H901 0.949 . S
H878 C882 0.949 . S
C879 C880 1.349 . S
C879 C881 1.327 . S
C879 H902 0.950 . S
C880 C879 1.349 . S
C880 C892 1.349 . S
C881 C879 1.327 . S
C881 C897 1.429 . S
C881 H903 0.950 . S
C882 H878 0.949 . S
C882 C890 1.583 1_655 S
C882 C898 1.368 . S
H883 C891 0.950 . S
H884 C889 0.950 . S
H885 C890 0.949 . S
H886 C892 0.950 . S
H887 C893 0.950 . S
H888 C894 0.949 . S
C889 H884 0.950 . S
C889 C891 1.327 . S
C889 C895 1.429 . S
C890 C882 1.583 1_455 S
C890 H885 0.949 . S
C890 C896 1.359 1_565 S
C891 C875 1.349 . S
C891 H883 0.950 . S
C891 C889 1.327 . S
C892 C880 1.349 . S
C892 H886 0.950 . S
C892 C893 1.327 . S
C893 H887 0.950 . S
C893 C892 1.327 . S
C893 C897 1.429 . S
C894 C877 1.583 1_655 S
C894 H888 0.949 . S
C894 C898 1.359 1_545 S
C895 C876 1.429 . S
C895 C889 1.429 . S
C895 C896 1.523 . S
C896 C877 1.368 . S
C896 C890 1.359 1_545 S
C896 C895 1.523 . S
C897 C881 1.429 . S
C897 C893 1.429 . S
C897 C898 1.523 . S
C898 C882 1.368 . S
C898 C894 1.359 1_565 S
C898 C897 1.523 . S
H899 C874 0.950 . S
H900 C876 0.950 . S
H901 C877 0.949 . S
H902 C879 0.950 . S
H903 C881 0.950 . S
C904 C905 1.349 . S
C904 C906 1.327 . S
C904 H929 0.950 . S
C905 C904 1.349 . S
C905 C921 1.349 . S
C906 C904 1.327 . S
C906 C925 1.429 . S
C906 H930 0.950 . S
C907 C924 1.574 . S
C907 C926 1.368 . S
C907 H931 0.949 . S
H908 C912 0.949 . S
C909 C910 1.349 . S
C909 C911 1.327 . S
C909 H932 0.950 . S
C910 C909 1.349 . S
C910 C922 1.349 . S
C911 C909 1.327 . S
C911 C927 1.429 . S
C911 H933 0.950 . S
C912 H908 0.949 . S
C912 C920 1.574 . S
C912 C928 1.368 . S
H913 C921 0.950 . S
H914 C919 0.950 . S
H915 C920 0.949 . S
H916 C922 0.950 . S
H917 C923 0.950 . S
H918 C924 0.949 . S
C919 H914 0.950 . S
C919 C921 1.327 . S
C919 C925 1.429 . S
C920 C912 1.574 . S
C920 H915 0.949 . S
C920 C926 1.368 . S
C921 C905 1.349 . S
C921 H913 0.950 . S
C921 C919 1.327 . S
C922 C910 1.349 . S
C922 H916 0.950 . S
C922 C923 1.327 . S
C923 H917 0.950 . S
C923 C922 1.327 . S
C923 C927 1.429 . S
C924 C907 1.574 . S
C924 H918 0.949 . S
C924 C928 1.368 . S
C925 C906 1.429 . S
C925 C919 1.429 . S
C925 C926 1.523 . S
C926 C907 1.368 . S
C926 C920 1.368 . S
C926 C925 1.523 . S
C927 C911 1.429 . S
C927 C923 1.429 . S
C927 C928 1.523 . S
C928 C912 1.368 . S
C928 C924 1.368 . S
C928 C927 1.523 . S
H929 C904 0.950 . S
H930 C906 0.950 . S
H931 C907 0.949 . S
H932 C909 0.950 . S
H933 C911 0.950 . S
C934 C935 1.349 . S
C934 C936 1.327 . S
C934 H959 0.950 . S
C935 C934 1.349 . S
C935 C951 1.349 . S
C936 C934 1.327 . S
C936 C955 1.429 . S
C936 H960 0.950 . S
C937 C954 1.574 . S
C937 C956 1.368 . S
C937 H961 0.949 . S
H938 C942 0.949 . S
C939 C940 1.349 . S
C939 C941 1.327 . S
C939 H962 0.950 . S
C940 C939 1.349 . S
C940 C952 1.349 . S
C941 C939 1.327 . S
C941 C957 1.429 . S
C941 H963 0.950 . S
C942 H938 0.949 . S
C942 C950 1.574 . S
C942 C958 1.368 . S
H943 C951 0.950 . S
H944 C949 0.950 . S
H945 C950 0.949 . S
H946 C952 0.950 . S
H947 C953 0.950 . S
H948 C954 0.949 . S
C949 H944 0.950 . S
C949 C951 1.327 . S
C949 C955 1.429 . S
C950 C942 1.574 . S
C950 H945 0.949 . S
C950 C956 1.368 . S
C951 C935 1.349 . S
C951 H943 0.950 . S
C951 C949 1.327 . S
C952 C940 1.349 . S
C952 H946 0.950 . S
C952 C953 1.327 . S
C953 H947 0.950 . S
C953 C952 1.327 . S
C953 C957 1.429 . S
C954 C937 1.574 . S
C954 H948 0.949 . S
C954 C958 1.368 . S
C955 C936 1.429 . S
C955 C949 1.429 . S
C955 C956 1.523 . S
C956 C937 1.368 . S
C956 C950 1.368 . S
C956 C955 1.523 . S
C957 C941 1.429 . S
C957 C953 1.429 . S
C957 C958 1.523 . S
C958 C942 1.368 . S
C958 C954 1.368 . S
C958 C957 1.523 . S
H959 C934 0.950 . S
H960 C936 0.950 . S
H961 C937 0.949 . S
H962 C939 0.950 . S
H963 C941 0.950 . S
C964 C965 1.349 . S
C964 C966 1.327 . S
C964 H989 0.950 . S
C965 C964 1.349 . S
C965 C981 1.349 . S
C966 C964 1.327 . S
C966 C985 1.429 . S
C966 H990 0.950 . S
C967 C984 1.574 . S
C967 C986 1.368 . S
C967 H991 0.949 . S
H968 C972 0.949 . S
C969 C970 1.349 . S
C969 C971 1.327 . S
C969 H992 0.950 . S
C970 C969 1.349 . S
C970 C982 1.349 . S
C971 C969 1.327 . S
C971 C987 1.429 . S
C971 H993 0.950 . S
C972 H968 0.949 . S
C972 C980 1.574 . S
C972 C988 1.368 . S
H973 C981 0.950 . S
H974 C979 0.950 . S
H975 C980 0.949 . S
H976 C982 0.950 . S
H977 C983 0.950 . S
H978 C984 0.949 . S
C979 H974 0.950 . S
C979 C981 1.327 . S
C979 C985 1.429 . S
C980 C972 1.574 . S
C980 H975 0.949 . S
C980 C986 1.368 . S
C981 C965 1.349 . S
C981 H973 0.950 . S
C981 C979 1.327 . S
C982 C970 1.349 . S
C982 H976 0.950 . S
C982 C983 1.327 . S
C983 H977 0.950 . S
C983 C982 1.327 . S
C983 C987 1.429 . S
C984 C967 1.574 . S
C984 H978 0.949 . S
C984 C988 1.368 . S
C985 C966 1.429 . S
C985 C979 1.429 . S
C985 C986 1.523 . S
C986 C967 1.368 . S
C986 C980 1.368 . S
C986 C985 1.523 . S
C987 C971 1.429 . S
C987 C983 1.429 . S
C987 C988 1.523 . S
C988 C972 1.368 . S
C988 C984 1.368 . S
C988 C987 1.523 . S
H989 C964 0.950 . S
H990 C966 0.950 . S
H991 C967 0.949 . S
H992 C969 0.950 . S
H993 C971 0.950 . S
C994 C995 1.349 . S
C994 C996 1.327 . S
C994 H1019 0.950 . S
C995 C994 1.349 . S
C995 C1011 1.349 . S
C996 C994 1.327 . S
C996 C1015 1.429 . S
C996 H1020 0.950 . S
C997 C1014 1.574 . S
C997 C1016 1.368 . S
C997 H1021 0.949 . S
H998 C1002 0.949 . S
C999 C1000 1.349 . S
C999 C1001 1.327 . S
C999 H1022 0.950 . S
C1000 C999 1.349 . S
C1000 C1012 1.349 . S
C1001 C999 1.327 . S
C1001 C1017 1.429 . S
C1001 H1023 0.950 . S
C1002 H998 0.949 . S
C1002 C1010 1.574 . S
C1002 C1018 1.368 . S
H1003 C1011 0.950 . S
H1004 C1009 0.950 . S
H1005 C1010 0.949 . S
H1006 C1012 0.950 . S
H1007 C1013 0.950 . S
H1008 C1014 0.949 . S
C1009 H1004 0.950 . S
C1009 C1011 1.327 . S
C1009 C1015 1.429 . S
C1010 C1002 1.574 . S
C1010 H1005 0.949 . S
C1010 C1016 1.368 . S
C1011 C995 1.349 . S
C1011 H1003 0.950 . S
C1011 C1009 1.327 . S
C1012 C1000 1.349 . S
C1012 H1006 0.950 . S
C1012 C1013 1.327 . S
C1013 H1007 0.950 . S
C1013 C1012 1.327 . S
C1013 C1017 1.429 . S
C1014 C997 1.574 . S
C1014 H1008 0.949 . S
C1014 C1018 1.368 . S
C1015 C996 1.429 . S
C1015 C1009 1.429 . S
C1015 C1016 1.523 . S
C1016 C997 1.368 . S
C1016 C1010 1.368 . S
C1016 C1015 1.523 . S
C1017 C1001 1.429 . S
C1017 C1013 1.429 . S
C1017 C1018 1.523 . S
C1018 C1002 1.368 . S
C1018 C1014 1.368 . S
C1018 C1017 1.523 . S
H1019 C994 0.950 . S
H1020 C996 0.950 . S
H1021 C997 0.949 . S
H1022 C999 0.950 . S
H1023 C1001 0.950 . S
C1024 C1025 1.349 . S
C1024 C1026 1.327 . S
C1024 H1049 0.950 . S
C1025 C1024 1.349 . S
C1025 C1041 1.349 . S
C1026 C1024 1.327 . S
C1026 C1045 1.429 . S
C1026 H1050 0.950 . S
C1027 C1044 1.574 1_556 S
C1027 C1046 1.368 . S
C1027 H1051 0.949 . S
H1028 C1032 0.949 . S
C1029 C1030 1.349 . S
C1029 C1031 1.327 . S
C1029 H1052 0.950 . S
C1030 C1029 1.349 . S
C1030 C1042 1.349 . S
C1031 C1029 1.327 . S
C1031 C1047 1.429 . S
C1031 H1053 0.950 . S
C1032 H1028 0.949 . S
C1032 C1040 1.574 1_554 S
C1032 C1048 1.368 . S
H1033 C1041 0.950 . S
H1034 C1039 0.950 . S
H1035 C1040 0.949 . S
H1036 C1042 0.950 . S
H1037 C1043 0.950 . S
H1038 C1044 0.949 . S
C1039 H1034 0.950 . S
C1039 C1041 1.327 . S
C1039 C1045 1.429 . S
C1040 C1032 1.574 1_556 S
C1040 H1035 0.949 . S
C1040 C1046 1.368 . S
C1041 C1025 1.349 . S
C1041 H1033 0.950 . S
C1041 C1039 1.327 . S
C1042 C1030 1.349 . S
C1042 H1036 0.950 . S
C1042 C1043 1.327 . S
C1043 H1037 0.950 . S
C1043 C1042 1.327 . S
C1043 C1047 1.429 . S
C1044 C1027 1.574 1_554 S
C1044 H1038 0.949 . S
C1044 C1048 1.368 . S
C1045 C1026 1.429 . S
C1045 C1039 1.429 . S
C1045 C1046 1.523 . S
C1046 C1027 1.368 . S
C1046 C1040 1.368 . S
C1046 C1045 1.523 . S
C1047 C1031 1.429 . S
C1047 C1043 1.429 . S
C1047 C1048 1.523 . S
C1048 C1032 1.368 . S
C1048 C1044 1.368 . S
C1048 C1047 1.523 . S
H1049 C1024 0.950 . S
H1050 C1026 0.950 . S
H1051 C1027 0.949 . S
H1052 C1029 0.950 . S
H1053 C1031 0.950 . S
C1054 C1055 1.349 . S
C1054 C1056 1.327 . S
C1054 H1079 0.950 . S
C1055 C1054 1.349 . S
C1055 C1071 1.349 . S
C1056 C1054 1.327 . S
C1056 C1075 1.429 . S
C1056 H1080 0.950 . S
C1057 C1074 1.574 1_554 S
C1057 C1076 1.368 . S
C1057 H1081 0.949 . S
H1058 C1062 0.949 . S
C1059 C1060 1.349 . S
C1059 C1061 1.327 . S
C1059 H1082 0.950 . S
C1060 C1059 1.349 . S
C1060 C1072 1.349 . S
C1061 C1059 1.327 . S
C1061 C1077 1.429 . S
C1061 H1083 0.950 . S
C1062 H1058 0.949 . S
C1062 C1070 1.574 1_556 S
C1062 C1078 1.368 . S
H1063 C1071 0.950 . S
H1064 C1069 0.950 . S
H1065 C1070 0.949 . S
H1066 C1072 0.950 . S
H1067 C1073 0.950 . S
H1068 C1074 0.949 . S
C1069 H1064 0.950 . S
C1069 C1071 1.327 . S
C1069 C1075 1.429 . S
C1070 C1062 1.574 1_554 S
C1070 H1065 0.949 . S
C1070 C1076 1.368 . S
C1071 C1055 1.349 . S
C1071 H1063 0.950 . S
C1071 C1069 1.327 . S
C1072 C1060 1.349 . S
C1072 H1066 0.950 . S
C1072 C1073 1.327 . S
C1073 H1067 0.950 . S
C1073 C1072 1.327 . S
C1073 C1077 1.429 . S
C1074 C1057 1.574 1_556 S
C1074 H1068 0.949 . S
C1074 C1078 1.368 . S
C1075 C1056 1.429 . S
C1075 C1069 1.429 . S
C1075 C1076 1.523 . S
C1076 C1057 1.368 . S
C1076 C1070 1.368 . S
C1076 C1075 1.523 . S
C1077 C1061 1.429 . S
C1077 C1073 1.429 . S
C1077 C1078 1.523 . S
C1078 C1062 1.368 . S
C1078 C1074 1.368 . S
C1078 C1077 1.523 . S
H1079 C1054 0.950 . S
H1080 C1056 0.950 . S
H1081 C1057 0.949 . S
H1082 C1059 0.950 . S
H1083 C1061 0.950 . S
C1084 C1085 1.349 . S
C1084 C1086 1.327 . S
C1084 H1109 0.950 . S
C1085 C1084 1.349 . S
C1085 C1101 1.349 . S
C1086 C1084 1.327 . S
C1086 C1105 1.429 . S
C1086 H1110 0.950 . S
C1087 C1104 1.574 1_556 S
C1087 C1106 1.368 . S
C1087 H1111 0.949 . S
H1088 C1092 0.949 . S
C1089 C1090 1.349 . S
C1089 C1091 1.327 . S
C1089 H1112 0.950 . S
C1090 C1089 1.349 . S
C1090 C1102 1.349 . S
C1091 C1089 1.327 . S
C1091 C1107 1.429 . S
C1091 H1113 0.950 . S
C1092 H1088 0.949 . S
C1092 C1100 1.574 1_554 S
C1092 C1108 1.368 . S
H1093 C1101 0.950 . S
H1094 C1099 0.950 . S
H1095 C1100 0.949 . S
H1096 C1102 0.950 . S
H1097 C1103 0.950 . S
H1098 C1104 0.949 . S
C1099 H1094 0.950 . S
C1099 C1101 1.327 . S
C1099 C1105 1.429 . S
C1100 C1092 1.574 1_556 S
C1100 H1095 0.949 . S
C1100 C1106 1.368 . S
C1101 C1085 1.349 . S
C1101 H1093 0.950 . S
C1101 C1099 1.327 . S
C1102 C1090 1.349 . S
C1102 H1096 0.950 . S
C1102 C1103 1.327 . S
C1103 H1097 0.950 . S
C1103 C1102 1.327 . S
C1103 C1107 1.429 . S
C1104 C1087 1.574 1_554 S
C1104 H1098 0.949 . S
C1104 C1108 1.368 . S
C1105 C1086 1.429 . S
C1105 C1099 1.429 . S
C1105 C1106 1.523 . S
C1106 C1087 1.368 . S
C1106 C1100 1.368 . S
C1106 C1105 1.523 . S
C1107 C1091 1.429 . S
C1107 C1103 1.429 . S
C1107 C1108 1.523 . S
C1108 C1092 1.368 . S
C1108 C1104 1.368 . S
C1108 C1107 1.523 . S
H1109 C1084 0.950 . S
H1110 C1086 0.950 . S
H1111 C1087 0.949 . S
H1112 C1089 0.950 . S
H1113 C1091 0.950 . S
C1114 C1115 1.349 . S
C1114 C1116 1.327 . S
C1114 H1139 0.950 . S
C1115 C1114 1.349 . S
C1115 C1131 1.349 . S
C1116 C1114 1.327 . S
C1116 C1135 1.429 . S
C1116 H1140 0.950 . S
C1117 C1134 1.574 1_556 S
C1117 C1136 1.368 . S
C1117 H1141 0.949 . S
H1118 C1122 0.949 . S
C1119 C1120 1.349 . S
C1119 C1121 1.327 . S
C1119 H1142 0.950 . S
C1120 C1119 1.349 . S
C1120 C1132 1.349 . S
C1121 C1119 1.327 . S
C1121 C1137 1.429 . S
C1121 H1143 0.950 . S
C1122 H1118 0.949 . S
C1122 C1130 1.574 1_554 S
C1122 C1138 1.368 . S
H1123 C1131 0.950 . S
H1124 C1129 0.950 . S
H1125 C1130 0.949 . S
H1126 C1132 0.950 . S
H1127 C1133 0.950 . S
H1128 C1134 0.949 . S
C1129 H1124 0.950 . S
C1129 C1131 1.327 . S
C1129 C1135 1.429 . S
C1130 C1122 1.574 1_556 S
C1130 H1125 0.949 . S
C1130 C1136 1.368 . S
C1131 C1115 1.349 . S
C1131 H1123 0.950 . S
C1131 C1129 1.327 . S
C1132 C1120 1.349 . S
C1132 H1126 0.950 . S
C1132 C1133 1.327 . S
C1133 H1127 0.950 . S
C1133 C1132 1.327 . S
C1133 C1137 1.429 . S
C1134 C1117 1.574 1_554 S
C1134 H1128 0.949 . S
C1134 C1138 1.368 . S
C1135 C1116 1.429 . S
C1135 C1129 1.429 . S
C1135 C1136 1.523 . S
C1136 C1117 1.368 . S
C1136 C1130 1.368 . S
C1136 C1135 1.523 . S
C1137 C1121 1.429 . S
C1137 C1133 1.429 . S
C1137 C1138 1.523 . S
C1138 C1122 1.368 . S
C1138 C1134 1.368 . S
C1138 C1137 1.523 . S
H1139 C1114 0.950 . S
H1140 C1116 0.950 . S
H1141 C1117 0.949 . S
H1142 C1119 0.950 . S
H1143 C1121 0.950 . S
C1144 C1145 1.349 . S
C1144 C1146 1.327 . S
C1144 H1169 0.950 . S
C1145 C1144 1.349 . S
C1145 C1161 1.349 . S
C1146 C1144 1.327 . S
C1146 C1165 1.429 . S
C1146 H1170 0.950 . S
C1147 C1164 1.574 . S
C1147 C1166 1.368 . S
C1147 H1171 0.949 . S
H1148 C1152 0.949 . S
C1149 C1150 1.349 . S
C1149 C1151 1.327 . S
C1149 H1172 0.950 . S
C1150 C1149 1.349 . S
C1150 C1162 1.349 . S
C1151 C1149 1.327 . S
C1151 C1167 1.429 . S
C1151 H1173 0.950 . S
C1152 H1148 0.949 . S
C1152 C1160 1.574 . S
C1152 C1168 1.368 . S
H1153 C1161 0.950 . S
H1154 C1159 0.950 . S
H1155 C1160 0.949 . S
H1156 C1162 0.950 . S
H1157 C1163 0.950 . S
H1158 C1164 0.949 . S
C1159 H1154 0.950 . S
C1159 C1161 1.327 . S
C1159 C1165 1.429 . S
C1160 C1152 1.574 . S
C1160 H1155 0.949 . S
C1160 C1166 1.368 . S
C1161 C1145 1.349 . S
C1161 H1153 0.950 . S
C1161 C1159 1.327 . S
C1162 C1150 1.349 . S
C1162 H1156 0.950 . S
C1162 C1163 1.327 . S
C1163 H1157 0.950 . S
C1163 C1162 1.327 . S
C1163 C1167 1.429 . S
C1164 C1147 1.574 . S
C1164 H1158 0.949 . S
C1164 C1168 1.368 . S
C1165 C1146 1.429 . S
C1165 C1159 1.429 . S
C1165 C1166 1.523 . S
C1166 C1147 1.368 . S
C1166 C1160 1.368 . S
C1166 C1165 1.523 . S
C1167 C1151 1.429 . S
C1167 C1163 1.429 . S
C1167 C1168 1.523 . S
C1168 C1152 1.368 . S
C1168 C1164 1.368 . S
C1168 C1167 1.523 . S
H1169 C1144 0.950 . S
H1170 C1146 0.950 . S
H1171 C1147 0.949 . S
H1172 C1149 0.950 . S
H1173 C1151 0.950 . S
C1174 C1175 1.349 . S
C1174 C1176 1.327 . S
C1174 H1199 0.950 . S
C1175 C1174 1.349 . S
C1175 C1191 1.349 . S
C1176 C1174 1.327 . S
C1176 C1195 1.429 . S
C1176 H1200 0.950 . S
C1177 C1194 1.574 . S
C1177 C1196 1.368 . S
C1177 H1201 0.949 . S
H1178 C1182 0.949 . S
C1179 C1180 1.349 . S
C1179 C1181 1.327 . S
C1179 H1202 0.950 . S
C1180 C1179 1.349 . S
C1180 C1192 1.349 . S
C1181 C1179 1.327 . S
C1181 C1197 1.429 . S
C1181 H1203 0.950 . S
C1182 H1178 0.949 . S
C1182 C1190 1.574 . S
C1182 C1198 1.368 . S
H1183 C1191 0.950 . S
H1184 C1189 0.950 . S
H1185 C1190 0.949 . S
H1186 C1192 0.950 . S
H1187 C1193 0.950 . S
H1188 C1194 0.949 . S
C1189 H1184 0.950 . S
C1189 C1191 1.327 . S
C1189 C1195 1.429 . S
C1190 C1182 1.574 . S
C1190 H1185 0.949 . S
C1190 C1196 1.368 . S
C1191 C1175 1.349 . S
C1191 H1183 0.950 . S
C1191 C1189 1.327 . S
C1192 C1180 1.349 . S
C1192 H1186 0.950 . S
C1192 C1193 1.327 . S
C1193 H1187 0.950 . S
C1193 C1192 1.327 . S
C1193 C1197 1.429 . S
C1194 C1177 1.574 . S
C1194 H1188 0.949 . S
C1194 C1198 1.368 . S
C1195 C1176 1.429 . S
C1195 C1189 1.429 . S
C1195 C1196 1.523 . S
C1196 C1177 1.368 . S
C1196 C1190 1.368 . S
C1196 C1195 1.523 . S
C1197 C1181 1.429 . S
C1197 C1193 1.429 . S
C1197 C1198 1.523 . S
C1198 C1182 1.368 . S
C1198 C1194 1.368 . S
C1198 C1197 1.523 . S
H1199 C1174 0.950 . S
H1200 C1176 0.950 . S
H1201 C1177 0.949 . S
H1202 C1179 0.950 . S
H1203 C1181 0.950 . S
C1204 C1205 1.349 . S
C1204 C1206 1.327 . S
C1204 H1229 0.950 . S
C1205 C1204 1.349 . S
C1205 C1221 1.349 . S
C1206 C1204 1.327 . S
C1206 C1225 1.429 . S
C1206 H1230 0.950 . S
C1207 C1224 1.574 . S
C1207 C1226 1.368 . S
C1207 H1231 0.949 . S
H1208 C1212 0.949 . S
C1209 C1210 1.349 . S
C1209 C1211 1.327 . S
C1209 H1232 0.950 . S
C1210 C1209 1.349 . S
C1210 C1222 1.349 . S
C1211 C1209 1.327 . S
C1211 C1227 1.429 . S
C1211 H1233 0.950 . S
C1212 H1208 0.949 . S
C1212 C1220 1.574 . S
C1212 C1228 1.368 . S
H1213 C1221 0.950 . S
H1214 C1219 0.950 . S
H1215 C1220 0.949 . S
H1216 C1222 0.950 . S
H1217 C1223 0.950 . S
H1218 C1224 0.949 . S
C1219 H1214 0.950 . S
C1219 C1221 1.327 . S
C1219 C1225 1.429 . S
C1220 C1212 1.574 . S
C1220 H1215 0.949 . S
C1220 C1226 1.368 . S
C1221 C1205 1.349 . S
C1221 H1213 0.950 . S
C1221 C1219 1.327 . S
C1222 C1210 1.349 . S
C1222 H1216 0.950 . S
C1222 C1223 1.327 . S
C1223 H1217 0.950 . S
C1223 C1222 1.327 . S
C1223 C1227 1.429 . S
C1224 C1207 1.574 . S
C1224 H1218 0.949 . S
C1224 C1228 1.368 . S
C1225 C1206 1.429 . S
C1225 C1219 1.429 . S
C1225 C1226 1.523 . S
C1226 C1207 1.368 . S
C1226 C1220 1.368 . S
C1226 C1225 1.523 . S
C1227 C1211 1.429 . S
C1227 C1223 1.429 . S
C1227 C1228 1.523 . S
C1228 C1212 1.368 . S
C1228 C1224 1.368 . S
C1228 C1227 1.523 . S
H1229 C1204 0.950 . S
H1230 C1206 0.950 . S
H1231 C1207 0.949 . S
H1232 C1209 0.950 . S
H1233 C1211 0.950 . S
C1234 C1235 1.349 . S
C1234 C1236 1.327 . S
C1234 H1259 0.950 . S
C1235 C1234 1.349 . S
C1235 C1251 1.349 . S
C1236 C1234 1.327 . S
C1236 C1255 1.429 . S
C1236 H1260 0.950 . S
C1237 C1254 1.574 . S
C1237 C1256 1.368 . S
C1237 H1261 0.949 . S
H1238 C1242 0.949 . S
C1239 C1240 1.349 . S
C1239 C1241 1.327 . S
C1239 H1262 0.950 . S
C1240 C1239 1.349 . S
C1240 C1252 1.349 . S
C1241 C1239 1.327 . S
C1241 C1257 1.429 . S
C1241 H1263 0.950 . S
C1242 H1238 0.949 . S
C1242 C1250 1.574 . S
C1242 C1258 1.368 . S
H1243 C1251 0.950 . S
H1244 C1249 0.950 . S
H1245 C1250 0.949 . S
H1246 C1252 0.950 . S
H1247 C1253 0.950 . S
H1248 C1254 0.949 . S
C1249 H1244 0.950 . S
C1249 C1251 1.327 . S
C1249 C1255 1.429 . S
C1250 C1242 1.574 . S
C1250 H1245 0.949 . S
C1250 C1256 1.368 . S
C1251 C1235 1.349 . S
C1251 H1243 0.950 . S
C1251 C1249 1.327 . S
C1252 C1240 1.349 . S
C1252 H1246 0.950 . S
C1252 C1253 1.327 . S
C1253 H1247 0.950 . S
C1253 C1252 1.327 . S
C1253 C1257 1.429 . S
C1254 C1237 1.574 . S
C1254 H1248 0.949 . S
C1254 C1258 1.368 . S
C1255 C1236 1.429 . S
C1255 C1249 1.429 . S
C1255 C1256 1.523 . S
C1256 C1237 1.368 . S
C1256 C1250 1.368 . S
C1256 C1255 1.523 . S
C1257 C1241 1.429 . S
C1257 C1253 1.429 . S
C1257 C1258 1.523 . S
C1258 C1242 1.368 . S
C1258 C1254 1.368 . S
C1258 C1257 1.523 . S
H1259 C1234 0.950 . S
H1260 C1236 0.950 . S
H1261 C1237 0.949 . S
H1262 C1239 0.950 . S
H1263 C1241 0.950 . S
C1264 C1265 1.349 . S
C1264 C1266 1.327 . S
C1264 H1289 0.950 . S
C1265 C1264 1.349 . S
C1265 C1281 1.349 . S
C1266 C1264 1.327 . S
C1266 C1285 1.429 . S
C1266 H1290 0.950 . S
C1267 C1284 1.574 . S
C1267 C1286 1.368 . S
C1267 H1291 0.949 . S
H1268 C1272 0.949 . S
C1269 C1270 1.349 . S
C1269 C1271 1.327 . S
C1269 H1292 0.950 . S
C1270 C1269 1.349 . S
C1270 C1282 1.349 . S
C1271 C1269 1.327 . S
C1271 C1287 1.429 . S
C1271 H1293 0.950 . S
C1272 H1268 0.949 . S
C1272 C1280 1.574 . S
C1272 C1288 1.368 . S
H1273 C1281 0.950 . S
H1274 C1279 0.950 . S
H1275 C1280 0.949 . S
H1276 C1282 0.950 . S
H1277 C1283 0.950 . S
H1278 C1284 0.949 . S
C1279 H1274 0.950 . S
C1279 C1281 1.327 . S
C1279 C1285 1.429 . S
C1280 C1272 1.574 . S
C1280 H1275 0.949 . S
C1280 C1286 1.368 . S
C1281 C1265 1.349 . S
C1281 H1273 0.950 . S
C1281 C1279 1.327 . S
C1282 C1270 1.349 . S
C1282 H1276 0.950 . S
C1282 C1283 1.327 . S
C1283 H1277 0.950 . S
C1283 C1282 1.327 . S
C1283 C1287 1.429 . S
C1284 C1267 1.574 . S
C1284 H1278 0.949 . S
C1284 C1288 1.368 . S
C1285 C1266 1.429 . S
C1285 C1279 1.429 . S
C1285 C1286 1.523 . S
C1286 C1267 1.368 . S
C1286 C1280 1.368 . S
C1286 C1285 1.523 . S
C1287 C1271 1.429 . S
C1287 C1283 1.429 . S
C1287 C1288 1.523 . S
C1288 C1272 1.368 . S
C1288 C1284 1.368 . S
C1288 C1287 1.523 . S
H1289 C1264 0.950 . S
H1290 C1266 0.950 . S
H1291 C1267 0.949 . S
H1292 C1269 0.950 . S
H1293 C1271 0.950 . S
C1294 C1295 1.349 . S
C1294 C1296 1.327 . S
C1294 H1319 0.950 . S
C1295 C1294 1.349 . S
C1295 C1311 1.349 . S
C1296 C1294 1.327 . S
C1296 C1315 1.429 . S
C1296 H1320 0.950 . S
C1297 C1314 1.574 . S
C1297 C1316 1.368 . S
C1297 H1321 0.949 . S
H1298 C1302 0.949 . S
C1299 C1300 1.349 . S
C1299 C1301 1.327 . S
C1299 H1322 0.950 . S
C1300 C1299 1.349 . S
C1300 C1312 1.349 . S
C1301 C1299 1.327 . S
C1301 C1317 1.429 . S
C1301 H1323 0.950 . S
C1302 H1298 0.949 . S
C1302 C1310 1.574 . S
C1302 C1318 1.368 . S
H1303 C1311 0.950 . S
H1304 C1309 0.950 . S
H1305 C1310 0.949 . S
H1306 C1312 0.950 . S
H1307 C1313 0.950 . S
H1308 C1314 0.949 . S
C1309 H1304 0.950 . S
C1309 C1311 1.327 . S
C1309 C1315 1.429 . S
C1310 C1302 1.574 . S
C1310 H1305 0.949 . S
C1310 C1316 1.368 . S
C1311 C1295 1.349 . S
C1311 H1303 0.950 . S
C1311 C1309 1.327 . S
C1312 C1300 1.349 . S
C1312 H1306 0.950 . S
C1312 C1313 1.327 . S
C1313 H1307 0.950 . S
C1313 C1312 1.327 . S
C1313 C1317 1.429 . S
C1314 C1297 1.574 . S
C1314 H1308 0.949 . S
C1314 C1318 1.368 . S
C1315 C1296 1.429 . S
C1315 C1309 1.429 . S
C1315 C1316 1.523 . S
C1316 C1297 1.368 . S
C1316 C1310 1.368 . S
C1316 C1315 1.523 . S
C1317 C1301 1.429 . S
C1317 C1313 1.429 . S
C1317 C1318 1.523 . S
C1318 C1302 1.368 . S
C1318 C1314 1.368 . S
C1318 C1317 1.523 . S
H1319 C1294 0.950 . S
H1320 C1296 0.950 . S
H1321 C1297 0.949 . S
H1322 C1299 0.950 . S
H1323 C1301 0.950 . S
C1324 C1325 1.349 . S
C1324 C1326 1.327 . S
C1324 H1349 0.950 . S
C1325 C1324 1.349 . S
C1325 C1341 1.349 . S
C1326 C1324 1.327 . S
C1326 C1345 1.429 . S
C1326 H1350 0.950 . S
C1327 C1344 1.574 . S
C1327 C1346 1.368 . S
C1327 H1351 0.949 . S
H1328 C1332 0.949 . S
C1329 C1330 1.349 . S
C1329 C1331 1.327 . S
C1329 H1352 0.950 . S
C1330 C1329 1.349 . S
C1330 C1342 1.349 . S
C1331 C1329 1.327 . S
C1331 C1347 1.429 . S
C1331 H1353 0.950 . S
C1332 H1328 0.949 . S
C1332 C1340 1.574 . S
C1332 C1348 1.368 . S
H1333 C1341 0.950 . S
H1334 C1339 0.950 . S
H1335 C1340 0.949 . S
H1336 C1342 0.950 . S
H1337 C1343 0.950 . S
H1338 C1344 0.949 . S
C1339 H1334 0.950 . S
C1339 C1341 1.327 . S
C1339 C1345 1.429 . S
C1340 C1332 1.574 . S
C1340 H1335 0.949 . S
C1340 C1346 1.368 . S
C1341 C1325 1.349 . S
C1341 H1333 0.950 . S
C1341 C1339 1.327 . S
C1342 C1330 1.349 . S
C1342 H1336 0.950 . S
C1342 C1343 1.327 . S
C1343 H1337 0.950 . S
C1343 C1342 1.327 . S
C1343 C1347 1.429 . S
C1344 C1327 1.574 . S
C1344 H1338 0.949 . S
C1344 C1348 1.368 . S
C1345 C1326 1.429 . S
C1345 C1339 1.429 . S
C1345 C1346 1.523 . S
C1346 C1327 1.368 . S
C1346 C1340 1.368 . S
C1346 C1345 1.523 . S
C1347 C1331 1.429 . S
C1347 C1343 1.429 . S
C1347 C1348 1.523 . S
C1348 C1332 1.368 . S
C1348 C1344 1.368 . S
C1348 C1347 1.523 . S
H1349 C1324 0.950 . S
H1350 C1326 0.950 . S
H1351 C1327 0.949 . S
H1352 C1329 0.950 . S
H1353 C1331 0.950 . S
C1354 C1355 1.349 . S
C1354 C1356 1.327 . S
C1354 H1379 0.950 . S
C1355 C1354 1.349 . S
C1355 C1371 1.349 . S
C1356 C1354 1.327 . S
C1356 C1375 1.429 . S
C1356 H1380 0.950 . S
C1357 C1374 1.574 . S
C1357 C1376 1.368 . S
C1357 H1381 0.949 . S
H1358 C1362 0.949 . S
C1359 C1360 1.349 . S
C1359 C1361 1.327 . S
C1359 H1382 0.950 . S
C1360 C1359 1.349 . S
C1360 C1372 1.349 . S
C1361 C1359 1.327 . S
C1361 C1377 1.429 . S
C1361 H1383 0.950 . S
C1362 H1358 0.949 . S
C1362 C1370 1.574 . S
C1362 C1378 1.368 . S
H1363 C1371 0.950 . S
H1364 C1369 0.950 . S
H1365 C1370 0.949 . S
H1366 C1372 0.950 . S
H1367 C1373 0.950 . S
H1368 C1374 0.949 . S
C1369 H1364 0.950 . S
C1369 C1371 1.327 . S
C1369 C1375 1.429 . S
C1370 C1362 1.574 . S
C1370 H1365 0.949 . S
C1370 C1376 1.368 . S
C1371 C1355 1.349 . S
C1371 H1363 0.950 . S
C1371 C1369 1.327 . S
C1372 C1360 1.349 . S
C1372 H1366 0.950 . S
C1372 C1373 1.327 . S
C1373 H1367 0.950 . S
C1373 C1372 1.327 . S
C1373 C1377 1.429 . S
C1374 C1357 1.574 . S
C1374 H1368 0.949 . S
C1374 C1378 1.368 . S
C1375 C1356 1.429 . S
C1375 C1369 1.429 . S
C1375 C1376 1.523 . S
C1376 C1357 1.368 . S
C1376 C1370 1.368 . S
C1376 C1375 1.523 . S
C1377 C1361 1.429 . S
C1377 C1373 1.429 . S
C1377 C1378 1.523 . S
C1378 C1362 1.368 . S
C1378 C1374 1.368 . S
C1378 C1377 1.523 . S
H1379 C1354 0.950 . S
H1380 C1356 0.950 . S
H1381 C1357 0.949 . S
H1382 C1359 0.950 . S
H1383 C1361 0.950 . S
C1384 C1385 1.349 . S
C1384 C1386 1.327 . S
C1384 H1409 0.950 . S
C1385 C1384 1.349 . S
C1385 C1401 1.349 . S
C1386 C1384 1.327 . S
C1386 C1405 1.429 . S
C1386 H1410 0.950 . S
C1387 C1404 1.574 . S
C1387 C1406 1.368 . S
C1387 H1411 0.949 . S
H1388 C1392 0.949 . S
C1389 C1390 1.349 . S
C1389 C1391 1.327 . S
C1389 H1412 0.950 . S
C1390 C1389 1.349 . S
C1390 C1402 1.349 . S
C1391 C1389 1.327 . S
C1391 C1407 1.429 . S
C1391 H1413 0.950 . S
C1392 H1388 0.949 . S
C1392 C1400 1.574 . S
C1392 C1408 1.368 . S
H1393 C1401 0.950 . S
H1394 C1399 0.950 . S
H1395 C1400 0.949 . S
H1396 C1402 0.950 . S
H1397 C1403 0.950 . S
H1398 C1404 0.949 . S
C1399 H1394 0.950 . S
C1399 C1401 1.327 . S
C1399 C1405 1.429 . S
C1400 C1392 1.574 . S
C1400 H1395 0.949 . S
C1400 C1406 1.368 . S
C1401 C1385 1.349 . S
C1401 H1393 0.950 . S
C1401 C1399 1.327 . S
C1402 C1390 1.349 . S
C1402 H1396 0.950 . S
C1402 C1403 1.327 . S
C1403 H1397 0.950 . S
C1403 C1402 1.327 . S
C1403 C1407 1.429 . S
C1404 C1387 1.574 . S
C1404 H1398 0.949 . S
C1404 C1408 1.368 . S
C1405 C1386 1.429 . S
C1405 C1399 1.429 . S
C1405 C1406 1.523 . S
C1406 C1387 1.368 . S
C1406 C1400 1.368 . S
C1406 C1405 1.523 . S
C1407 C1391 1.429 . S
C1407 C1403 1.429 . S
C1407 C1408 1.523 . S
C1408 C1392 1.368 . S
C1408 C1404 1.368 . S
C1408 C1407 1.523 . S
H1409 C1384 0.950 . S
H1410 C1386 0.950 . S
H1411 C1387 0.949 . S
H1412 C1389 0.950 . S
H1413 C1391 0.950 . S
C1414 C1415 1.349 . S
C1414 C1416 1.327 . S
C1414 H1439 0.950 . S
C1415 C1414 1.349 . S
C1415 C1431 1.349 . S
C1416 C1414 1.327 . S
C1416 C1435 1.429 . S
C1416 H1440 0.950 . S
C1417 C1434 1.574 . S
C1417 C1436 1.368 . S
C1417 H1441 0.949 . S
H1418 C1422 0.949 . S
C1419 C1420 1.349 . S
C1419 C1421 1.327 . S
C1419 H1442 0.950 . S
C1420 C1419 1.349 . S
C1420 C1432 1.349 . S
C1421 C1419 1.327 . S
C1421 C1437 1.429 . S
C1421 H1443 0.950 . S
C1422 H1418 0.949 . S
C1422 C1430 1.574 . S
C1422 C1438 1.368 . S
H1423 C1431 0.950 . S
H1424 C1429 0.950 . S
H1425 C1430 0.949 . S
H1426 C1432 0.950 . S
H1427 C1433 0.950 . S
H1428 C1434 0.949 . S
C1429 H1424 0.950 . S
C1429 C1431 1.327 . S
C1429 C1435 1.429 . S
C1430 C1422 1.574 . S
C1430 H1425 0.949 . S
C1430 C1436 1.368 . S
C1431 C1415 1.349 . S
C1431 H1423 0.950 . S
C1431 C1429 1.327 . S
C1432 C1420 1.349 . S
C1432 H1426 0.950 . S
C1432 C1433 1.327 . S
C1433 H1427 0.950 . S
C1433 C1432 1.327 . S
C1433 C1437 1.429 . S
C1434 C1417 1.574 . S
C1434 H1428 0.949 . S
C1434 C1438 1.368 . S
C1435 C1416 1.429 . S
C1435 C1429 1.429 . S
C1435 C1436 1.523 . S
C1436 C1417 1.368 . S
C1436 C1430 1.368 . S
C1436 C1435 1.523 . S
C1437 C1421 1.429 . S
C1437 C1433 1.429 . S
C1437 C1438 1.523 . S
C1438 C1422 1.368 . S
C1438 C1434 1.368 . S
C1438 C1437 1.523 . S
H1439 C1414 0.950 . S
H1440 C1416 0.950 . S
H1441 C1417 0.949 . S
H1442 C1419 0.950 . S
H1443 C1421 0.950 . S
C1444 C1445 1.349 . S
C1444 C1446 1.327 . S
C1444 H1469 0.950 . S
C1445 C1444 1.349 . S
C1445 C1461 1.349 . S
C1446 C1444 1.327 . S
C1446 C1465 1.429 . S
C1446 H1470 0.950 . S
C1447 C1464 1.574 . S
C1447 C1466 1.368 . S
C1447 H1471 0.949 . S
H1448 C1452 0.949 . S
C1449 C1450 1.349 . S
C1449 C1451 1.327 . S
C1449 H1472 0.950 . S
C1450 C1449 1.349 . S
C1450 C1462 1.349 . S
C1451 C1449 1.327 . S
C1451 C1467 1.429 . S
C1451 H1473 0.950 . S
C1452 H1448 0.949 . S
C1452 C1460 1.574 . S
C1452 C1468 1.368 . S
H1453 C1461 0.950 . S
H1454 C1459 0.950 . S
H1455 C1460 0.949 . S
H1456 C1462 0.950 . S
H1457 C1463 0.950 . S
H1458 C1464 0.949 . S
C1459 H1454 0.950 . S
C1459 C1461 1.327 . S
C1459 C1465 1.429 . S
C1460 C1452 1.574 . S
C1460 H1455 0.949 . S
C1460 C1466 1.368 . S
C1461 C1445 1.349 . S
C1461 H1453 0.950 . S
C1461 C1459 1.327 . S
C1462 C1450 1.349 . S
C1462 H1456 0.950 . S
C1462 C1463 1.327 . S
C1463 H1457 0.950 . S
C1463 C1462 1.327 . S
C1463 C1467 1.429 . S
C1464 C1447 1.574 . S
C1464 H1458 0.949 . S
C1464 C1468 1.368 . S
C1465 C1446 1.429 . S
C1465 C1459 1.429 . S
C1465 C1466 1.523 . S
C1466 C1447 1.368 . S
C1466 C1460 1.368 . S
C1466 C1465 1.523 . S
C1467 C1451 1.429 . S
C1467 C1463 1.429 . S
C1467 C1468 1.523 . S
C1468 C1452 1.368 . S
C1468 C1464 1.368 . S
C1468 C1467 1.523 . S
H1469 C1444 0.950 . S
H1470 C1446 0.950 . S
H1471 C1447 0.949 . S
H1472 C1449 0.950 . S
H1473 C1451 0.950 . S
C1474 C1475 1.349 . S
C1474 C1476 1.327 . S
C1474 H1499 0.950 . S
C1475 C1474 1.349 . S
C1475 C1491 1.349 . S
C1476 C1474 1.327 . S
C1476 C1495 1.429 . S
C1476 H1500 0.950 . S
C1477 C1494 1.574 . S
C1477 C1496 1.368 . S
C1477 H1501 0.949 . S
H1478 C1482 0.949 . S
C1479 C1480 1.349 . S
C1479 C1481 1.327 . S
C1479 H1502 0.950 . S
C1480 C1479 1.349 . S
C1480 C1492 1.349 . S
C1481 C1479 1.327 . S
C1481 C1497 1.429 . S
C1481 H1503 0.950 . S
C1482 H1478 0.949 . S
C1482 C1490 1.574 . S
C1482 C1498 1.368 . S
H1483 C1491 0.950 . S
H1484 C1489 0.950 . S
H1485 C1490 0.949 . S
H1486 C1492 0.950 . S
H1487 C1493 0.950 . S
H1488 C1494 0.949 . S
C1489 H1484 0.950 . S
C1489 C1491 1.327 . S
C1489 C1495 1.429 . S
C1490 C1482 1.574 . S
C1490 H1485 0.949 . S
C1490 C1496 1.368 . S
C1491 C1475 1.349 . S
C1491 H1483 0.950 . S
C1491 C1489 1.327 . S
C1492 C1480 1.349 . S
C1492 H1486 0.950 . S
C1492 C1493 1.327 . S
C1493 H1487 0.950 . S
C1493 C1492 1.327 . S
C1493 C1497 1.429 . S
C1494 C1477 1.574 . S
C1494 H1488 0.949 . S
C1494 C1498 1.368 . S
C1495 C1476 1.429 . S
C1495 C1489 1.429 . S
C1495 C1496 1.523 . S
C1496 C1477 1.368 . S
C1496 C1490 1.368 . S
C1496 C1495 1.523 . S
C1497 C1481 1.429 . S
C1497 C1493 1.429 . S
C1497 C1498 1.523 . S
C1498 C1482 1.368 . S
C1498 C1494 1.368 . S
C1498 C1497 1.523 . S
H1499 C1474 0.950 . S
H1500 C1476 0.950 . S
H1501 C1477 0.949 . S
H1502 C1479 0.950 . S
H1503 C1481 0.950 . S
C1504 C1505 1.349 . S
C1504 C1506 1.327 . S
C1504 H1529 0.950 . S
C1505 C1504 1.349 . S
C1505 C1521 1.349 . S
C1506 C1504 1.327 . S
C1506 C1525 1.429 1_455 S
C1506 H1530 0.950 1_455 S
C1507 C1524 1.574 . S
C1507 C1526 1.368 . S
C1507 H1531 0.949 . S
H1508 C1512 0.949 . S
C1509 C1510 1.349 . S
C1509 C1511 1.327 . S
C1509 H1532 0.950 . S
C1510 C1509 1.349 . S
C1510 C1522 1.349 . S
C1511 C1509 1.327 . S
C1511 C1527 1.429 . S
C1511 H1533 0.950 . S
C1512 H1508 0.949 . S
C1512 C1520 1.574 . S
C1512 C1528 1.368 . S
H1513 C1521 0.950 . S
H1514 C1519 0.950 1_655 S
H1515 C1520 0.949 . S
H1516 C1522 0.950 . S
H1517 C1523 0.950 . S
H1518 C1524 0.949 . S
C1519 H1514 0.950 1_455 S
C1519 C1521 1.327 . S
C1519 C1525 1.429 1_455 S
C1520 C1512 1.574 . S
C1520 H1515 0.949 . S
C1520 C1526 1.368 . S
C1521 C1505 1.349 . S
C1521 H1513 0.950 . S
C1521 C1519 1.327 . S
C1522 C1510 1.349 . S
C1522 H1516 0.950 . S
C1522 C1523 1.327 . S
C1523 H1517 0.950 . S
C1523 C1522 1.327 . S
C1523 C1527 1.429 . S
C1524 C1507 1.574 . S
C1524 H1518 0.949 . S
C1524 C1528 1.368 . S
C1525 C1506 1.429 1_655 S
C1525 C1519 1.429 1_655 S
C1525 C1526 1.523 . S
C1526 C1507 1.368 . S
C1526 C1520 1.368 . S
C1526 C1525 1.523 . S
C1527 C1511 1.429 . S
C1527 C1523 1.429 . S
C1527 C1528 1.523 . S
C1528 C1512 1.368 . S
C1528 C1524 1.368 . S
C1528 C1527 1.523 . S
H1529 C1504 0.950 . S
H1530 C1506 0.950 1_655 S
H1531 C1507 0.949 . S
H1532 C1509 0.950 . S
H1533 C1511 0.950 . S
C1534 C1535 1.349 . S
C1534 C1536 1.327 . S
C1534 H1559 0.950 . S
C1535 C1534 1.349 . S
C1535 C1551 1.349 . S
C1536 C1534 1.327 . S
C1536 C1555 1.429 1_565 S
C1536 H1560 0.950 1_565 S
C1537 C1554 1.574 . S
C1537 C1556 1.368 . S
C1537 H1561 0.949 . S
H1538 C1542 0.949 . S
C1539 C1540 1.349 . S
C1539 C1541 1.327 . S
C1539 H1562 0.950 . S
C1540 C1539 1.349 . S
C1540 C1552 1.349 . S
C1541 C1539 1.327 . S
C1541 C1557 1.429 . S
C1541 H1563 0.950 . S
C1542 H1538 0.949 . S
C1542 C1550 1.574 . S
C1542 C1558 1.368 . S
H1543 C1551 0.950 . S
H1544 C1549 0.950 1_545 S
H1545 C1550 0.949 . S
H1546 C1552 0.950 . S
H1547 C1553 0.950 . S
H1548 C1554 0.949 . S
C1549 H1544 0.950 1_565 S
C1549 C1551 1.327 . S
C1549 C1555 1.429 1_565 S
C1550 C1542 1.574 . S
C1550 H1545 0.949 . S
C1550 C1556 1.368 . S
C1551 C1535 1.349 . S
C1551 H1543 0.950 . S
C1551 C1549 1.327 . S
C1552 C1540 1.349 . S
C1552 H1546 0.950 . S
C1552 C1553 1.327 . S
C1553 H1547 0.950 . S
C1553 C1552 1.327 . S
C1553 C1557 1.429 . S
C1554 C1537 1.574 . S
C1554 H1548 0.949 . S
C1554 C1558 1.368 . S
C1555 C1536 1.429 1_545 S
C1555 C1549 1.429 1_545 S
C1555 C1556 1.523 . S
C1556 C1537 1.368 . S
C1556 C1550 1.368 . S
C1556 C1555 1.523 . S
C1557 C1541 1.429 . S
C1557 C1553 1.429 . S
C1557 C1558 1.523 . S
C1558 C1542 1.368 . S
C1558 C1554 1.368 . S
C1558 C1557 1.523 . S
H1559 C1534 0.950 . S
H1560 C1536 0.950 1_545 S
H1561 C1537 0.949 . S
H1562 C1539 0.950 . S
H1563 C1541 0.950 . S
C1564 C1565 1.349 . S
C1564 C1566 1.327 . S
C1564 H1589 0.950 . S
C1565 C1564 1.349 . S
C1565 C1581 1.349 . S
C1566 C1564 1.327 . S
C1566 C1585 1.429 . S
C1566 H1590 0.950 . S
C1567 C1584 1.574 . S
C1567 C1586 1.368 . S
C1567 H1591 0.949 . S
H1568 C1572 0.949 . S
C1569 C1570 1.349 . S
C1569 C1571 1.327 . S
C1569 H1592 0.950 . S
C1570 C1569 1.349 . S
C1570 C1582 1.349 . S
C1571 C1569 1.327 . S
C1571 C1587 1.429 1_655 S
C1571 H1593 0.950 1_655 S
C1572 H1568 0.949 . S
C1572 C1580 1.574 . S
C1572 C1588 1.368 . S
H1573 C1581 0.950 . S
H1574 C1579 0.950 . S
H1575 C1580 0.949 . S
H1576 C1582 0.950 . S
H1577 C1583 0.950 1_455 S
H1578 C1584 0.949 . S
C1579 H1574 0.950 . S
C1579 C1581 1.327 . S
C1579 C1585 1.429 . S
C1580 C1572 1.574 . S
C1580 H1575 0.949 . S
C1580 C1586 1.368 . S
C1581 C1565 1.349 . S
C1581 H1573 0.950 . S
C1581 C1579 1.327 . S
C1582 C1570 1.349 . S
C1582 H1576 0.950 . S
C1582 C1583 1.327 . S
C1583 H1577 0.950 1_655 S
C1583 C1582 1.327 . S
C1583 C1587 1.429 1_655 S
C1584 C1567 1.574 . S
C1584 H1578 0.949 . S
C1584 C1588 1.368 . S
C1585 C1566 1.429 . S
C1585 C1579 1.429 . S
C1585 C1586 1.523 . S
C1586 C1567 1.368 . S
C1586 C1580 1.368 . S
C1586 C1585 1.523 . S
C1587 C1571 1.429 1_455 S
C1587 C1583 1.429 1_455 S
C1587 C1588 1.523 . S
C1588 C1572 1.368 . S
C1588 C1584 1.368 . S
C1588 C1587 1.523 . S
H1589 C1564 0.950 . S
H1590 C1566 0.950 . S
H1591 C1567 0.949 . S
H1592 C1569 0.950 . S
H1593 C1571 0.950 1_455 S
C1594 C1595 1.349 . S
C1594 C1596 1.327 . S
C1594 H1619 0.950 . S
C1595 C1594 1.349 . S
C1595 C1611 1.349 . S
C1596 C1594 1.327 . S
C1596 C1615 1.429 1_545 S
C1596 H1620 0.950 1_545 S
C1597 C1614 1.574 . S
C1597 C1616 1.368 . S
C1597 H1621 0.949 . S
H1598 C1602 0.949 . S
C1599 C1600 1.349 . S
C1599 C1601 1.327 . S
C1599 H1622 0.950 . S
C1600 C1599 1.349 . S
C1600 C1612 1.349 . S
C1601 C1599 1.327 . S
C1601 C1617 1.429 . S
C1601 H1623 0.950 . S
C1602 H1598 0.949 . S
C1602 C1610 1.574 . S
C1602 C1618 1.368 . S
H1603 C1611 0.950 . S
H1604 C1609 0.950 1_565 S
H1605 C1610 0.949 . S
H1606 C1612 0.950 . S
H1607 C1613 0.950 . S
H1608 C1614 0.949 . S
C1609 H1604 0.950 1_545 S
C1609 C1611 1.327 . S
C1609 C1615 1.429 1_545 S
C1610 C1602 1.574 . S
C1610 H1605 0.949 . S
C1610 C1616 1.368 . S
C1611 C1595 1.349 . S
C1611 H1603 0.950 . S
C1611 C1609 1.327 . S
C1612 C1600 1.349 . S
C1612 H1606 0.950 . S
C1612 C1613 1.327 . S
C1613 H1607 0.950 . S
C1613 C1612 1.327 . S
C1613 C1617 1.429 . S
C1614 C1597 1.574 . S
C1614 H1608 0.949 . S
C1614 C1618 1.368 . S
C1615 C1596 1.429 1_565 S
C1615 C1609 1.429 1_565 S
C1615 C1616 1.523 . S
C1616 C1597 1.368 . S
C1616 C1610 1.368 . S
C1616 C1615 1.523 . S
C1617 C1601 1.429 . S
C1617 C1613 1.429 . S
C1617 C1618 1.523 . S
C1618 C1602 1.368 . S
C1618 C1614 1.368 . S
C1618 C1617 1.523 . S
H1619 C1594 0.950 . S
H1620 C1596 0.950 1_565 S
H1621 C1597 0.949 . S
H1622 C1599 0.950 . S
H1623 C1601 0.950 . S
C1624 C1625 1.349 . S
C1624 C1626 1.327 . S
C1624 H1649 0.950 . S
C1625 C1624 1.349 . S
C1625 C1641 1.349 . S
C1626 C1624 1.327 . S
C1626 C1645 1.429 1_655 S
C1626 H1650 0.950 1_655 S
C1627 C1644 1.574 . S
C1627 C1646 1.368 . S
C1627 H1651 0.949 . S
H1628 C1632 0.949 . S
C1629 C1630 1.349 . S
C1629 C1631 1.327 . S
C1629 H1652 0.950 . S
C1630 C1629 1.349 . S
C1630 C1642 1.349 . S
C1631 C1629 1.327 . S
C1631 C1647 1.429 . S
C1631 H1653 0.950 . S
C1632 H1628 0.949 . S
C1632 C1640 1.574 . S
C1632 C1648 1.368 . S
H1633 C1641 0.950 . S
H1634 C1639 0.950 1_455 S
H1635 C1640 0.949 . S
H1636 C1642 0.950 . S
H1637 C1643 0.950 . S
H1638 C1644 0.949 . S
C1639 H1634 0.950 1_655 S
C1639 C1641 1.327 . S
C1639 C1645 1.429 1_655 S
C1640 C1632 1.574 . S
C1640 H1635 0.949 . S
C1640 C1646 1.368 . S
C1641 C1625 1.349 . S
C1641 H1633 0.950 . S
C1641 C1639 1.327 . S
C1642 C1630 1.349 . S
C1642 H1636 0.950 . S
C1642 C1643 1.327 . S
C1643 H1637 0.950 . S
C1643 C1642 1.327 . S
C1643 C1647 1.429 . S
C1644 C1627 1.574 . S
C1644 H1638 0.949 . S
C1644 C1648 1.368 . S
C1645 C1626 1.429 1_455 S
C1645 C1639 1.429 1_455 S
C1645 C1646 1.523 . S
C1646 C1627 1.368 . S
C1646 C1640 1.368 . S
C1646 C1645 1.523 . S
C1647 C1631 1.429 . S
C1647 C1643 1.429 . S
C1647 C1648 1.523 . S
C1648 C1632 1.368 . S
C1648 C1644 1.368 . S
C1648 C1647 1.523 . S
H1649 C1624 0.950 . S
H1650 C1626 0.950 1_455 S
H1651 C1627 0.949 . S
H1652 C1629 0.950 . S
H1653 C1631 0.950 . S
C1654 C1655 1.349 . S
C1654 C1656 1.327 . S
C1654 H1679 0.950 . S
C1655 C1654 1.349 . S
C1655 C1671 1.349 . S
C1656 C1654 1.327 . S
C1656 C1675 1.429 . S
C1656 H1680 0.950 . S
C1657 C1674 1.574 . S
C1657 C1676 1.368 . S
C1657 H1681 0.949 . S
H1658 C1662 0.949 . S
C1659 C1660 1.349 . S
C1659 C1661 1.327 . S
C1659 H1682 0.950 . S
C1660 C1659 1.349 . S
C1660 C1672 1.349 . S
C1661 C1659 1.327 . S
C1661 C1677 1.429 1_545 S
C1661 H1683 0.950 1_545 S
C1662 H1658 0.949 . S
C1662 C1670 1.574 . S
C1662 C1678 1.368 . S
H1663 C1671 0.950 . S
H1664 C1669 0.950 . S
H1665 C1670 0.949 . S
H1666 C1672 0.950 . S
H1667 C1673 0.950 1_565 S
H1668 C1674 0.949 . S
C1669 H1664 0.950 . S
C1669 C1671 1.327 . S
C1669 C1675 1.429 . S
C1670 C1662 1.574 . S
C1670 H1665 0.949 . S
C1670 C1676 1.368 . S
C1671 C1655 1.349 . S
C1671 H1663 0.950 . S
C1671 C1669 1.327 . S
C1672 C1660 1.349 . S
C1672 H1666 0.950 . S
C1672 C1673 1.327 . S
C1673 H1667 0.950 1_545 S
C1673 C1672 1.327 . S
C1673 C1677 1.429 1_545 S
C1674 C1657 1.574 . S
C1674 H1668 0.949 . S
C1674 C1678 1.368 . S
C1675 C1656 1.429 . S
C1675 C1669 1.429 . S
C1675 C1676 1.523 . S
C1676 C1657 1.368 . S
C1676 C1670 1.368 . S
C1676 C1675 1.523 . S
C1677 C1661 1.429 1_565 S
C1677 C1673 1.429 1_565 S
C1677 C1678 1.523 . S
C1678 C1662 1.368 . S
C1678 C1674 1.368 . S
C1678 C1677 1.523 . S
H1679 C1654 0.950 . S
H1680 C1656 0.950 . S
H1681 C1657 0.949 . S
H1682 C1659 0.950 . S
H1683 C1661 0.950 1_565 S
C1684 C1685 1.349 . S
C1684 C1686 1.327 . S
C1684 H1709 0.950 . S
C1685 C1684 1.349 . S
C1685 C1701 1.349 . S
C1686 C1684 1.327 . S
C1686 C1705 1.429 . S
C1686 H1710 0.950 . S
C1687 C1704 1.574 . S
C1687 C1706 1.368 . S
C1687 H1711 0.949 . S
H1688 C1692 0.949 . S
C1689 C1690 1.349 . S
C1689 C1691 1.327 . S
C1689 H1712 0.950 . S
C1690 C1689 1.349 . S
C1690 C1702 1.349 . S
C1691 C1689 1.327 . S
C1691 C1707 1.429 1_455 S
C1691 H1713 0.950 1_455 S
C1692 H1688 0.949 . S
C1692 C1700 1.574 . S
C1692 C1708 1.368 . S
H1693 C1701 0.950 . S
H1694 C1699 0.950 . S
H1695 C1700 0.949 . S
H1696 C1702 0.950 . S
H1697 C1703 0.950 1_655 S
H1698 C1704 0.949 . S
C1699 H1694 0.950 . S
C1699 C1701 1.327 . S
C1699 C1705 1.429 . S
C1700 C1692 1.574 . S
C1700 H1695 0.949 . S
C1700 C1706 1.368 . S
C1701 C1685 1.349 . S
C1701 H1693 0.950 . S
C1701 C1699 1.327 . S
C1702 C1690 1.349 . S
C1702 H1696 0.950 . S
C1702 C1703 1.327 . S
C1703 H1697 0.950 1_455 S
C1703 C1702 1.327 . S
C1703 C1707 1.429 1_455 S
C1704 C1687 1.574 . S
C1704 H1698 0.949 . S
C1704 C1708 1.368 . S
C1705 C1686 1.429 . S
C1705 C1699 1.429 . S
C1705 C1706 1.523 . S
C1706 C1687 1.368 . S
C1706 C1700 1.368 . S
C1706 C1705 1.523 . S
C1707 C1691 1.429 1_655 S
C1707 C1703 1.429 1_655 S
C1707 C1708 1.523 . S
C1708 C1692 1.368 . S
C1708 C1704 1.368 . S
C1708 C1707 1.523 . S
H1709 C1684 0.950 . S
H1710 C1686 0.950 . S
H1711 C1687 0.949 . S
H1712 C1689 0.950 . S
H1713 C1691 0.950 1_655 S
C1714 C1715 1.349 . S
C1714 C1716 1.327 . S
C1714 H1739 0.950 . S
C1715 C1714 1.349 . S
C1715 C1731 1.349 . S
C1716 C1714 1.327 . S
C1716 C1735 1.429 1_565 S
C1716 H1740 0.950 1_565 S
C1717 C1734 1.574 . S
C1717 C1736 1.368 . S
C1717 H1741 0.949 . S
H1718 C1722 0.949 . S
C1719 C1720 1.349 . S
C1719 C1721 1.327 . S
C1719 H1742 0.950 . S
C1720 C1719 1.349 . S
C1720 C1732 1.349 . S
C1721 C1719 1.327 . S
C1721 C1737 1.429 . S
C1721 H1743 0.950 . S
C1722 H1718 0.949 . S
C1722 C1730 1.574 . S
C1722 C1738 1.368 . S
H1723 C1731 0.950 . S
H1724 C1729 0.950 1_545 S
H1725 C1730 0.949 . S
H1726 C1732 0.950 . S
H1727 C1733 0.950 . S
H1728 C1734 0.949 . S
C1729 H1724 0.950 1_565 S
C1729 C1731 1.327 . S
C1729 C1735 1.429 1_565 S
C1730 C1722 1.574 . S
C1730 H1725 0.949 . S
C1730 C1736 1.368 . S
C1731 C1715 1.349 . S
C1731 H1723 0.950 . S
C1731 C1729 1.327 . S
C1732 C1720 1.349 . S
C1732 H1726 0.950 . S
C1732 C1733 1.327 . S
C1733 H1727 0.950 . S
C1733 C1732 1.327 . S
C1733 C1737 1.429 . S
C1734 C1717 1.574 . S
C1734 H1728 0.949 . S
C1734 C1738 1.368 . S
C1735 C1716 1.429 1_545 S
C1735 C1729 1.429 1_545 S
C1735 C1736 1.523 . S
C1736 C1717 1.368 . S
C1736 C1730 1.368 . S
C1736 C1735 1.523 . S
C1737 C1721 1.429 . S
C1737 C1733 1.429 . S
C1737 C1738 1.523 . S
C1738 C1722 1.368 . S
C1738 C1734 1.368 . S
C1738 C1737 1.523 . S
H1739 C1714 0.950 . S
H1740 C1716 0.950 1_545 S
H1741 C1717 0.949 . S
H1742 C1719 0.950 . S
H1743 C1721 0.950 . S
C545 C5 1.675 . S
C550 C175 1.675 . S
C575 C209 1.675 . S
C580 C39 1.675 . S
C605 C243 1.675 . S
C610 C73 1.675 . S
C635 C141 1.675 . S
C640 C107 1.675 . S
C665 C277 1.675 . S
C670 C447 1.675 . S
C695 C311 1.675 . S
C700 C481 1.675 . S
C725 C515 1.675 . S
C730 C345 1.675 . S
C755 C379 1.675 . S
C760 C413 1.675 . S
C785 C33 1.065 . S
C790 C101 1.065 . S
C815 C135 1.065 . S
C820 C67 1.065 . S
C845 C169 1.065 . S
C850 C237 1.065 . S
C875 C203 1.065 . S
C880 C271 1.065 . S
C905 C373 1.065 . S
C910 C305 1.065 . S
C935 C407 1.065 . S
C940 C339 1.065 . S
C965 C509 1.065 . S
C970 C441 1.065 . S
C995 C543 1.065 . S
C1000 C475 1.065 . S
C1025 C519 1.566 . S
C1030 C9 1.566 . S
C1055 C417 1.566 . S
C1060 C43 1.566 . S
C1085 C451 1.566 . S
C1090 C77 1.566 . S
C1115 C111 1.566 . S
C1120 C485 1.566 . S
C1145 C145 1.566 . S
C1150 C315 1.566 . S
C1175 C179 1.566 . S
C1180 C349 1.566 . S
C1205 C213 1.566 . S
C1210 C383 1.566 . S
C1235 C247 1.566 . S
C1240 C281 1.566 . S
C1265 C478 0.802 . S
C1270 C20 0.806 . S
C1295 C54 0.806 . S
C1300 C512 0.802 . S
C1325 C410 0.802 . S
C1330 C88 0.806 . S
C1355 C444 0.802 . S
C1360 C122 0.806 . S
C1385 C342 0.802 . S
C1390 C156 0.806 . S
C1415 C190 0.806 . S
C1420 C376 0.802 . S
C1445 C274 0.802 . S
C1450 C224 0.806 . S
C1475 C258 0.806 . S
C1480 C308 0.802 . S
C1505 C206 0.802 . S
C1510 C292 0.806 . S
C1535 C240 0.802 . S
C1540 C326 0.806 . S
C1565 C360 0.806 . S
C1570 C138 0.802 . S
C1595 C172 0.802 . S
C1600 C394 0.806 . S
C1625 C70 0.802 . S
C1630 C428 0.806 . S
C1655 C462 0.806 . S
C1660 C104 0.802 . S
C1685 C496 0.806 . S
C1690 C2 0.802 . S
C1715 C36 0.802 . S
C1720 C530 0.806 . S
