# Generated by pormake.
# Topology swf, (7)-cn, num edge types: 1
# Building blocks:
#     Node 0, Type 0, BuildingBlock: NUHQUE_clean_sbu_2, # of connection points: 7
#     Node 1, Type 0, BuildingBlock: NUHQUE_clean_sbu_2, # of connection points: 7
#     Node 2, Type 0, BuildingBlock: NUHQUE_clean_sbu_2, # of connection points: 7
#     Node 3, Type 0, BuildingBlock: NUHQUE_clean_sbu_2, # of connection points: 7
#     Node 4, Type 0, BuildingBlock: NUHQUE_clean_sbu_2, # of connection points: 7
#     Node 5, Type 0, BuildingBlock: NUHQUE_clean_sbu_2, # of connection points: 7
#     Node 6, Type 0, BuildingBlock: NUHQUE_clean_sbu_2, # of connection points: 7
#     Node 7, Type 0, BuildingBlock: NUHQUE_clean_sbu_2, # of connection points: 7
#     Node 8, Type 0, BuildingBlock: NUHQUE_clean_sbu_2, # of connection points: 7
#     Node 9, Type 0, BuildingBlock: NUHQUE_clean_sbu_2, # of connection points: 7
#     Node 10, Type 0, BuildingBlock: NUHQUE_clean_sbu_2, # of connection points: 7
#     Node 11, Type 0, BuildingBlock: NUHQUE_clean_sbu_2, # of connection points: 7
#     Edge 12, Type (0, 0), BuildingBlock: XUDNAN_clean_linker_2, # of connection points: 2
#     Edge 13, Type (0, 0), BuildingBlock: XUDNAN_clean_linker_2, # of connection points: 2
#     Edge 14, Type (0, 0), BuildingBlock: XUDNAN_clean_linker_2, # of connection points: 2
#     Edge 15, Type (0, 0), BuildingBlock: XUDNAN_clean_linker_2, # of connection points: 2
#     Edge 16, Type (0, 0), BuildingBlock: XUDNAN_clean_linker_2, # of connection points: 2
#     Edge 17, Type (0, 0), BuildingBlock: XUDNAN_clean_linker_2, # of connection points: 2
#     Edge 18, Type (0, 0), BuildingBlock: XUDNAN_clean_linker_2, # of connection points: 2
#     Edge 19, Type (0, 0), BuildingBlock: XUDNAN_clean_linker_2, # of connection points: 2
#     Edge 20, Type (0, 0), BuildingBlock: XUDNAN_clean_linker_2, # of connection points: 2
#     Edge 21, Type (0, 0), BuildingBlock: XUDNAN_clean_linker_2, # of connection points: 2
#     Edge 22, Type (0, 0), BuildingBlock: XUDNAN_clean_linker_2, # of connection points: 2
#     Edge 23, Type (0, 0), BuildingBlock: XUDNAN_clean_linker_2, # of connection points: 2
#     Edge 24, Type (0, 0), BuildingBlock: XUDNAN_clean_linker_2, # of connection points: 2
#     Edge 25, Type (0, 0), BuildingBlock: XUDNAN_clean_linker_2, # of connection points: 2
#     Edge 26, Type (0, 0), BuildingBlock: XUDNAN_clean_linker_2, # of connection points: 2
#     Edge 27, Type (0, 0), BuildingBlock: XUDNAN_clean_linker_2, # of connection points: 2
#     Edge 28, Type (0, 0), BuildingBlock: XUDNAN_clean_linker_2, # of connection points: 2
#     Edge 29, Type (0, 0), BuildingBlock: XUDNAN_clean_linker_2, # of connection points: 2
#     Edge 30, Type (0, 0), BuildingBlock: XUDNAN_clean_linker_2, # of connection points: 2
#     Edge 31, Type (0, 0), BuildingBlock: XUDNAN_clean_linker_2, # of connection points: 2
#     Edge 32, Type (0, 0), BuildingBlock: XUDNAN_clean_linker_2, # of connection points: 2
#     Edge 33, Type (0, 0), BuildingBlock: XUDNAN_clean_linker_2, # of connection points: 2
#     Edge 34, Type (0, 0), BuildingBlock: XUDNAN_clean_linker_2, # of connection points: 2
#     Edge 35, Type (0, 0), BuildingBlock: XUDNAN_clean_linker_2, # of connection points: 2
#     Edge 36, Type (0, 0), BuildingBlock: XUDNAN_clean_linker_2, # of connection points: 2
#     Edge 37, Type (0, 0), BuildingBlock: XUDNAN_clean_linker_2, # of connection points: 2
#     Edge 38, Type (0, 0), BuildingBlock: XUDNAN_clean_linker_2, # of connection points: 2
#     Edge 39, Type (0, 0), BuildingBlock: XUDNAN_clean_linker_2, # of connection points: 2
#     Edge 40, Type (0, 0), BuildingBlock: XUDNAN_clean_linker_2, # of connection points: 2
#     Edge 41, Type (0, 0), BuildingBlock: XUDNAN_clean_linker_2, # of connection points: 2
#     Edge 42, Type (0, 0), BuildingBlock: XUDNAN_clean_linker_2, # of connection points: 2
#     Edge 43, Type (0, 0), BuildingBlock: XUDNAN_clean_linker_2, # of connection points: 2
#     Edge 44, Type (0, 0), BuildingBlock: XUDNAN_clean_linker_2, # of connection points: 2
#     Edge 45, Type (0, 0), BuildingBlock: XUDNAN_clean_linker_2, # of connection points: 2
#     Edge 46, Type (0, 0), BuildingBlock: XUDNAN_clean_linker_2, # of connection points: 2
#     Edge 47, Type (0, 0), BuildingBlock: XUDNAN_clean_linker_2, # of connection points: 2
#     Edge 48, Type (0, 0), BuildingBlock: XUDNAN_clean_linker_2, # of connection points: 2
#     Edge 49, Type (0, 0), BuildingBlock: XUDNAN_clean_linker_2, # of connection points: 2
#     Edge 50, Type (0, 0), BuildingBlock: XUDNAN_clean_linker_2, # of connection points: 2
#     Edge 51, Type (0, 0), BuildingBlock: XUDNAN_clean_linker_2, # of connection points: 2
#     Edge 52, Type (0, 0), BuildingBlock: XUDNAN_clean_linker_2, # of connection points: 2
#     Edge 53, Type (0, 0), BuildingBlock: XUDNAN_clean_linker_2, # of connection points: 2
# Relax obj value: 0.261
# Max RMSD: 0.208
# Mean RMSD: 0.208
data_MOF--net-swf--node1-NUHQUE_clean_sbu_2--edge1-XUDNAN_clean_linker_2
_symmetry_space_group_name_H-M    P1
_symmetry_Int_Tables_number       1
_symmetry_cell_setting            triclinic
loop_
_symmetry_equiv_pos_as_xyz
'x, y, z'
_cell_length_a     67.323655
_cell_length_b     67.467789
_cell_length_c     21.797967
_cell_angle_alpha  90.143119
_cell_angle_beta   89.695045
_cell_angle_gamma 120.0013
loop_
_atom_site_label
_atom_site_type_symbol
_atom_site_fract_x
_atom_site_fract_y
_atom_site_fract_z
_atom_type_partial_charge
O0 O 0.53392 0.09033 1.00615 0.0
Tb1 Tb 0.49937 0.07605 0.0408 0.0
Eu2 Eu 0.47617 0.11267 0.10235 0.0
C3 C 0.5456 0.11134 0.98522 0.0
O4 O 0.53641 0.12453 0.98674 0.0
C5 C 0.46153 0.08058 0.98334 0.0
O6 O 0.44867 0.08751 0.16486 0.0
C7 C 0.47526 0.15059 0.09476 0.0
C8 C 0.4531 0.08252 0.21929 0.0
O9 O 0.47395 0.09432 0.24142 0.0
C10 C 0.51709 0.10487 0.16308 0.0
C11 C 0.47472 0.17246 0.09218 0.0
C12 C 0.47598 0.18307 0.03517 0.0
C13 C 0.477 0.20445 0.0329 0.0
C14 C 0.47603 0.21469 0.08822 0.0
C15 C 0.476 0.20525 0.1457 0.0
C16 C 0.47474 0.18375 0.14722 0.0
O17 O 0.48381 0.08959 0.98018 0.0
O18 O 0.45334 0.08633 1.03065 0.0
O19 O 0.49707 0.0461 0.9971 0.0
O20 O 0.47077 0.04166 0.05999 0.0
C21 C 0.47784 0.03132 1.02274 0.0
O22 O 0.51001 0.11929 0.14662 0.0
O23 O 0.50976 0.08491 0.13609 0.0
O24 O 0.46828 0.13739 0.14375 0.0
O25 O 0.48254 0.14296 0.04901 0.0
H26 H 0.47704 0.17517 0.99288 0.0
H27 H 0.47634 0.2309 0.08638 0.0
H28 H 0.47501 0.17638 0.19111 0.0
O29 O 0.42348 0.53385 0.9665 0.0
Tb30 Tb 0.41354 0.50534 1.02669 0.0
Eu31 Eu 0.37743 0.46666 0.10824 0.0
C32 C 0.40944 0.53427 0.9257 0.0
O33 O 0.38869 0.51663 0.91953 0.0
C34 C 0.39141 0.45831 0.9734 0.0
O35 O 0.3727 0.43731 0.16674 0.0
C36 C 0.33952 0.46719 0.08989 0.0
C37 C 0.39101 0.44107 0.19717 0.0
O38 O 0.40982 0.46095 0.1912 0.0
C39 C 0.41237 0.51728 0.16145 0.0
C40 C 0.31761 0.46755 0.08148 0.0
C41 C 0.30899 0.46685 1.0221 0.0
C42 C 0.28796 0.46649 1.01319 0.0
C43 C 0.27609 0.46754 0.06553 0.0
C44 C 0.28469 0.46922 0.12551 0.0
C45 C 0.30528 0.46868 0.13284 0.0
O46 O 0.39227 0.47792 0.96347 0.0
O47 O 0.38873 0.4511 1.03061 0.0
O48 O 0.44801 0.51144 1.01017 0.0
O49 O 0.42687 0.48683 0.07745 0.0
C50 C 0.44657 0.49626 0.04946 0.0
O51 O 0.4025 0.4952 0.17279 0.0
O52 O 0.41104 0.52385 0.10564 0.0
O53 O 0.34202 0.45557 0.13465 0.0
O54 O 0.35769 0.47846 0.0542 0.0
H55 H 0.31871 0.46646 0.98284 0.0
H56 H 0.25966 0.46655 0.05973 0.0
H57 H 0.31217 0.46989 0.17838 0.0
O58 O 0.94752 0.45203 1.00324 0.0
Tb59 Tb 0.96221 0.43146 1.03075 0.0
Eu60 Eu 0.92122 0.37173 0.08915 0.0
C61 C 0.92611 0.44205 0.98521 0.0
O62 O 0.91354 0.41964 0.98789 0.0
C63 C 0.95352 0.38808 0.97139 0.0
O64 O 0.94358 0.37112 0.16431 0.0
C65 C 0.88274 0.33332 0.08019 0.0
C66 C 0.96581 0.38396 0.15666 0.0
O67 O 0.9737 0.39711 0.10822 0.0
C68 C 0.93274 0.42086 0.14937 0.0
C69 C 0.86057 0.31123 0.07424 0.0
C70 C 0.85065 0.30359 1.01593 0.0
C71 C 0.83007 0.28255 1.00833 0.0
C72 C 0.81951 0.26913 0.06079 0.0
C73 C 0.82913 0.27612 0.11976 0.0
C74 C 0.84965 0.29732 0.12595 0.0
O75 O 0.94523 0.4019 0.9723 0.0
O76 O 0.94686 0.37329 1.01664 0.0
O77 O 0.99118 0.45657 0.97746 0.0
O78 O 0.9967 0.43632 0.04241 0.0
C79 C 1.00615 0.4518 0.99984 0.0
O80 O 0.91641 0.40135 0.1253 0.0
O81 O 0.95398 0.43084 0.1283 0.0
O82 O 0.89592 0.33864 0.12887 0.0
O83 O 0.89037 0.34912 0.03699 0.0
H84 H 0.85936 0.3139 0.97604 0.0
H85 H 0.80337 0.25329 0.05598 0.0
H86 H 0.85732 0.30281 0.17084 0.0
O87 O 0.52253 0.88056 0.05858 0.0
Tb88 Tb 0.51937 0.91098 0.04669 0.0
Eu89 Eu 0.56407 0.91473 0.10575 0.0
C90 C 0.51789 0.86574 1.01395 0.0
O91 O 0.51714 0.84625 1.02498 0.0
C92 C 0.56671 0.94969 0.99286 0.0
O93 O 0.59244 0.94462 0.15495 0.0
C94 C 0.57567 0.88353 0.08629 0.0
C95 C 0.5916 0.94731 0.21436 0.0
O96 O 0.57464 0.93129 0.24656 0.0
C97 C 0.52264 0.91514 0.18279 0.0
C98 C 0.57069 0.85925 0.08833 0.0
C99 C 0.56998 0.84817 0.03288 0.0
C100 C 0.5698 0.82712 1.03174 0.0
C101 C 0.56928 0.81655 0.08806 0.0
C102 C 0.57013 0.82733 0.14449 0.0
C103 C 0.57057 0.84855 0.14383 0.0
O104 O 0.54439 0.94128 0.99632 0.0
O105 O 0.57704 0.9412 1.02681 0.0
O106 O 0.49623 0.90571 0.97113 0.0
O107 O 0.48325 0.90029 0.06111 0.0
C108 C 0.47807 0.90035 1.00388 0.0
O109 O 0.5345 0.90441 0.17602 0.0
O110 O 0.52062 0.92577 0.13535 0.0
O111 O 0.58042 0.89556 0.1372 0.0
O112 O 0.56526 0.88933 0.04531 0.0
H113 H 0.57079 0.85664 0.98997 0.0
H114 H 0.57011 0.80091 0.08794 0.0
H115 H 0.57179 0.8572 0.18677 0.0
O116 O 0.64002 0.49727 0.97419 0.0
Tb117 Tb 0.62199 0.50853 0.03434 0.0
Eu118 Eu 0.65981 0.5554 0.10174 0.0
C119 C 0.65431 0.51056 0.93159 0.0
O120 O 0.66194 0.53267 0.93426 0.0
C121 C 0.63366 0.55776 0.97941 0.0
O122 O 0.66298 0.58332 0.16458 0.0
C123 C 0.69758 0.55394 0.09422 0.0
C124 C 0.65527 0.59701 0.14849 0.0
O125 O 0.64775 0.59602 0.09253 0.0
C126 C 0.62756 0.50888 0.17187 0.0
C127 C 0.71937 0.55321 0.0912 0.0
C128 C 0.72742 0.54939 0.03518 0.0
C129 C 0.74876 0.55 1.03112 0.0
C130 C 0.76181 0.55421 0.08534 0.0
C131 C 0.75402 0.55807 0.14212 0.0
C132 C 0.7328 0.55759 0.14401 0.0
O133 O 0.61868 0.53591 0.98822 0.0
O134 O 0.65264 0.56821 1.01203 0.0
O135 O 0.5914 0.4793 0.99641 0.0
O136 O 0.58929 0.49334 0.08145 0.0
C137 C 0.57783 0.4774 0.04157 0.0
O138 O 0.6332 0.53053 0.17114 0.0
O139 O 0.63209 0.50093 0.12211 0.0
O140 O 0.69623 0.57037 0.12321 0.0
O141 O 0.67816 0.53786 0.07046 0.0
H142 H 0.71732 0.54671 0.99425 0.0
H143 H 0.77809 0.55462 0.08339 0.0
H144 H 0.7265 0.56042 0.18711 0.0
O145 O 0.14529 0.64651 1.01867 0.0
Tb146 Tb 0.11996 0.61053 1.02994 0.0
Eu147 Eu 0.12077 0.65405 0.09935 0.0
C148 C 0.16499 0.65467 0.9894 0.0
O149 O 0.17801 0.67686 0.98226 0.0
C150 C 0.08355 0.62218 0.98951 0.0
O151 O 0.09557 0.65339 0.16813 0.0
C152 C 0.15675 0.69515 0.09482 0.0
C153 C 0.0749 0.63539 0.16901 0.0
O154 O 0.06983 0.61892 0.12913 0.0
C155 C 0.11961 0.60986 0.17263 0.0
C156 C 0.17728 0.71861 0.09243 0.0
C157 C 0.18907 0.72776 0.03683 0.0
C158 C 0.20992 0.74898 0.03482 0.0
C159 C 0.21853 0.76124 0.09035 0.0
C160 C 0.2068 0.7525 0.1467 0.0
C161 C 0.18628 0.73107 0.14676 0.0
O162 O 0.08662 0.60504 1.00408 0.0
O163 O 0.09789 0.64312 1.01106 0.0
O164 O 0.1345 0.58803 1.02381 0.0
O165 O 0.11726 0.59117 0.94697 0.0
C166 C 0.12775 0.58086 0.96828 0.0
O167 O 0.1262 0.63201 0.17137 0.0
O168 O 0.11221 0.5973 0.12287 0.0
O169 O 0.13565 0.69145 0.09602 0.0
O170 O 0.15842 0.6767 0.09892 0.0
H171 H 0.18199 0.71817 0.99494 0.0
H172 H 0.23444 0.77747 0.08984 0.0
H173 H 0.17746 0.7237 0.18966 0.0
O174 O 0.88754 0.50858 0.61716 0.0
Tb175 Tb 0.92082 0.51077 0.62361 0.0
Eu176 Eu 0.91956 0.55417 0.56946 0.0
C177 C 0.87327 0.50185 0.66392 0.0
O178 O 0.85245 0.49848 0.65697 0.0
C179 C 0.95593 0.55905 0.68134 0.0
O180 O 0.9471 0.58207 0.51228 0.0
C181 C 0.88645 0.5629 0.59298 0.0
C182 C 0.94553 0.58112 0.45224 0.0
O183 O 0.92671 0.56501 0.42662 0.0
C184 C 0.92357 0.51616 0.48756 0.0
C185 C 0.86218 0.55794 0.58743 0.0
C186 C 0.84883 0.55377 0.64145 0.0
C187 C 0.8269 0.5517 0.63964 0.0
C188 C 0.81865 0.5543 0.58272 0.0
C189 C 0.83156 0.55872 0.52828 0.0
C190 C 0.85322 0.5602 0.53085 0.0
O191 O 0.94874 0.53702 0.67772 0.0
O192 O 0.94684 0.56865 0.64665 0.0
O193 O 0.92004 0.48765 0.69437 0.0
O194 O 0.91698 0.47745 0.60261 0.0
C195 C 0.9193 0.47198 0.65804 0.0
O196 O 0.91062 0.52557 0.49729 0.0
O197 O 0.93588 0.51584 0.53325 0.0
O198 O 0.90053 0.5715 0.54588 0.0
O199 O 0.89095 0.54977 0.6279 0.0
H200 H 0.85562 0.55233 0.68513 0.0
H201 H 0.80212 0.5534 0.58083 0.0
H202 H 0.86347 0.5642 0.4894 0.0
O203 O 0.44676 0.92657 0.70796 0.0
Tb204 Tb 0.4276 0.93602 0.64808 0.0
Eu205 Eu 0.379 0.9201 0.5717 0.0
C206 C 0.44143 0.90525 0.71588 0.0
O207 O 0.42233 0.88862 0.69288 0.0
C208 C 0.39261 0.94644 0.70337 0.0
O209 O 0.37546 0.94466 0.51066 0.0
C210 C 0.34111 0.88113 0.58428 0.0
C211 C 0.37077 0.94081 0.45206 0.0
O212 O 0.36475 0.92064 0.42863 0.0
C213 C 0.42083 0.91325 0.52008 0.0
C214 C 0.31909 0.85867 0.58756 0.0
C215 C 0.31062 0.8468 0.6439 0.0
C216 C 0.28966 0.82575 0.64624 0.0
C217 C 0.27722 0.81696 0.59148 0.0
C218 C 0.28513 0.82838 0.53495 0.0
C219 C 0.30618 0.84915 0.53348 0.0
O220 O 0.40274 0.93451 0.71413 0.0
O221 O 0.38487 0.94614 0.64774 0.0
O222 O 0.46061 0.96612 0.66131 0.0
O223 O 0.43703 0.96857 0.60153 0.0
C224 C 0.45728 0.9798 0.62678 0.0
O225 O 0.40533 0.91897 0.50565 0.0
O226 O 0.42553 0.91215 0.57783 0.0
O227 O 0.34403 0.89654 0.54292 0.0
O228 O 0.35902 0.8869 0.61987 0.0
H229 H 0.32038 0.85379 0.68558 0.0
H230 H 0.2611 0.80091 0.59288 0.0
H231 H 0.31234 0.85812 0.49023 0.0
O232 O 0.53859 0.44716 0.64381 0.0
Tb233 Tb 0.50233 0.43172 0.62581 0.0
Eu234 Eu 0.47597 0.37233 0.5774 0.0
C235 C 0.54729 0.43391 0.65465 0.0
O236 O 0.53362 0.41164 0.65766 0.0
C237 C 0.46334 0.39394 0.69251 0.0
O238 O 0.45401 0.37459 0.5042 0.0
C239 C 0.46873 0.3313 0.60109 0.0
C240 C 0.4461 0.36209 0.4544 0.0
O241 O 0.45025 0.34542 0.44252 0.0
C242 C 0.51667 0.41671 0.50566 0.0
C243 C 0.47382 0.31219 0.59548 0.0
C244 C 0.47586 0.30188 0.64923 0.0
C245 C 0.47834 0.28233 0.64704 0.0
C246 C 0.4785 0.27281 0.58951 0.0
C247 C 0.47707 0.28313 0.53467 0.0
C248 C 0.47454 0.30272 0.53834 0.0
O249 O 0.48571 0.40563 0.69542 0.0
O250 O 0.45474 0.38099 0.64367 0.0
O251 O 0.50218 0.46075 0.66886 0.0
O252 O 0.475 0.43933 0.608 0.0
C253 C 0.48266 0.45659 0.64564 0.0
O254 O 0.51035 0.39605 0.52832 0.0
O255 O 0.50789 0.42886 0.52803 0.0
O256 O 0.45995 0.33622 0.55383 0.0
O257 O 0.48168 0.34918 0.63593 0.0
H258 H 0.47519 0.30898 0.69339 0.0
H259 H 0.48102 0.25816 0.58737 0.0
H260 H 0.47294 0.31047 0.49657 0.0
O261 O 0.12986 0.53031 0.7046 0.0
Tb262 Tb 0.11179 0.50173 0.64406 0.0
Eu263 Eu 0.11446 0.46378 0.56455 0.0
C264 C 0.14577 0.53158 0.74156 0.0
O265 O 0.15028 0.51478 0.74381 0.0
C266 C 0.09072 0.45485 0.69741 0.0
O267 O 0.09442 0.43818 0.49172 0.0
C268 C 0.15204 0.4635 0.59329 0.0
C269 C 0.07224 0.43038 0.49136 0.0
O270 O 0.06329 0.43703 0.53475 0.0
C271 C 0.12779 0.51365 0.51017 0.0
C272 C 0.17576 0.46742 0.58301 0.0
C273 C 0.18827 0.46657 0.63392 0.0
C274 C 0.20955 0.46742 0.6262 0.0
C275 C 0.21849 0.46989 0.56615 0.0
C276 C 0.20641 0.4706 0.51425 0.0
C277 C 0.18492 0.46931 0.52348 0.0
O278 O 0.10797 0.47539 0.70802 0.0
O279 O 0.08695 0.44776 0.64016 0.0
O280 O 0.08342 0.50791 0.65926 0.0
O281 O 0.07919 0.48197 0.59601 0.0
C282 C 0.06914 0.49194 0.62253 0.0
O283 O 0.11742 0.49157 0.49761 0.0
O284 O 0.13394 0.52029 0.567 0.0
O285 O 0.13512 0.44723 0.56174 0.0
O286 O 0.14866 0.48061 0.60762 0.0
H287 H 0.18087 0.46419 0.67945 0.0
H288 H 0.23521 0.47153 0.55984 0.0
H289 H 0.17496 0.46913 0.4844 0.0
O290 O 0.65362 0.14856 0.62762 0.0
Tb291 Tb 0.62099 0.1168 0.63513 0.0
Eu292 Eu 0.66163 0.11288 0.57066 0.0
C293 C 0.66238 0.16246 0.67467 0.0
O294 O 0.68085 0.18257 0.6674 0.0
C295 C 0.63063 0.07848 0.68709 0.0
O296 O 0.65859 0.08503 0.50839 0.0
C297 C 0.70461 0.14392 0.5886 0.0
C298 C 0.6644 0.08913 0.45024 0.0
O299 O 0.67342 0.11012 0.42915 0.0
C300 C 0.62017 0.11246 0.49838 0.0
C301 C 0.72363 0.16785 0.57729 0.0
C302 C 0.73454 0.18224 0.6279 0.0
C303 C 0.75413 0.20403 0.62012 0.0
C304 C 0.76291 0.21117 0.56028 0.0
C305 C 0.75233 0.19732 0.5085 0.0
C306 C 0.73248 0.17568 0.51784 0.0
O307 O 0.61759 0.0879 0.6885 0.0
O308 O 0.64818 0.0857 0.6481 0.0
O309 O 0.59459 0.12564 0.61697 0.0
O310 O 0.60009 0.11963 0.70754 0.0
C311 C 0.58693 0.12369 0.67254 0.0
O312 O 0.64272 0.1243 0.50384 0.0
O313 O 0.60833 0.10113 0.54651 0.0
O314 O 0.69765 0.12912 0.54322 0.0
O315 O 0.68793 0.14072 0.62613 0.0
H316 H 0.72777 0.17634 0.67361 0.0
H317 H 0.77863 0.22734 0.55437 0.0
H318 H 0.72397 0.16475 0.47891 0.0
O319 O 0.53032 0.64761 0.6526 0.0
Tb320 Tb 0.5194 0.61159 0.6414 0.0
Eu321 Eu 0.5633 0.65443 0.56883 0.0
C322 C 0.51824 0.65571 0.67911 0.0
O323 O 0.52737 0.67788 0.6867 0.0
C324 C 0.56788 0.6208 0.67715 0.0
O325 O 0.5884 0.65873 0.49503 0.0
C326 C 0.56603 0.69393 0.59096 0.0
C327 C 0.59478 0.64331 0.49068 0.0
O328 O 0.58704 0.62669 0.53122 0.0
C329 C 0.51917 0.61085 0.49813 0.0
C330 C 0.56873 0.71721 0.58766 0.0
C331 C 0.57006 0.72877 0.64314 0.0
C332 C 0.57221 0.75064 0.64278 0.0
C333 C 0.57259 0.76057 0.58579 0.0
C334 C 0.57216 0.74993 0.5297 0.0
C335 C 0.56972 0.72788 0.53099 0.0
O336 O 0.54613 0.60514 0.67223 0.0
O337 O 0.57647 0.6409 0.64849 0.0
O338 O 0.48227 0.5892 0.64561 0.0
O339 O 0.50191 0.59214 0.72366 0.0
C340 C 0.48129 0.58173 0.70109 0.0
O341 O 0.53508 0.63285 0.4987 0.0
O342 O 0.51414 0.59833 0.54808 0.0
O343 O 0.58358 0.69068 0.59682 0.0
O344 O 0.54775 0.67631 0.56834 0.0
H345 H 0.56988 0.72089 0.68658 0.0
H346 H 0.57379 0.77721 0.58499 0.0
H347 H 0.56932 0.71938 0.48839 0.0
H348 H 0.4565 0.06559 0.3305 0.0
H349 H 0.41039 0.05169 0.17719 0.0
H350 H 0.38305 0.01431 0.22241 0.0
H351 H 0.44748 1.00975 0.34353 0.0
H352 H 0.44886 1.01 0.4261 0.0
H353 H 0.4641 0.03639 0.38398 0.0
H354 H 0.44315 0.05331 0.44635 0.0
H355 H 0.42798 0.02697 0.48887 0.0
H356 H 0.41224 0.03813 0.44913 0.0
H357 H 0.36287 0.97653 0.27807 0.0
H358 H 0.34971 0.94285 0.34674 0.0
H359 H 0.4078 0.98275 0.4656 0.0
C360 C 0.44046 0.05491 0.30704 0.0
C361 C 0.43558 0.06159 0.25043 0.0
C362 C 0.41448 0.04699 0.22082 0.0
C363 C 0.39884 0.02568 0.24601 0.0
C364 C 0.40443 0.01936 0.30112 0.0
C365 C 0.42459 0.03367 0.33173 0.0
C366 C 0.4269 0.02251 0.38918 0.0
C367 C 0.44808 0.01948 0.38542 0.0
C368 C 0.42759 0.03604 0.44678 0.0
C369 C 0.40491 0.99973 0.38597 0.0
C370 C 0.39229 0.99804 0.33449 0.0
C371 C 0.37231 0.97779 0.31932 0.0
C372 C 0.365 0.9588 0.35822 0.0
C373 C 0.37746 0.96055 0.41183 0.0
C374 C 0.39756 0.98126 0.4258 0.0
H375 H 0.4165 0.44901 0.29802 0.0
H376 H 0.36758 0.39432 0.1817 0.0
H377 H 0.37483 0.36659 0.23817 0.0
H378 H 0.45683 0.4321 0.30184 0.0
H379 H 0.46509 0.4402 0.38049 0.0
H380 H 0.45383 0.4548 0.3363 0.0
H381 H 0.42197 0.44485 0.41767 0.0
H382 H 0.4334 0.4306 0.46293 0.0
H383 H 0.40369 0.41546 0.44048 0.0
H384 H 0.39202 0.34631 0.29983 0.0
H385 H 0.41387 0.33474 0.3685 0.0
H386 H 0.45012 0.4036 0.44266 0.0
C387 C 0.40691 0.43109 0.28531 0.0
C388 C 0.39154 0.42364 0.23585 0.0
C389 C 0.37929 0.40017 0.22014 0.0
C390 C 0.3834 0.38441 0.25165 0.0
C391 C 0.39947 0.39255 0.29896 0.0
C392 C 0.41064 0.41532 0.31636 0.0
C393 C 0.42789 0.42031 0.36627 0.0
C394 C 0.45234 0.43788 0.3449 0.0
C395 C 0.42133 0.42826 0.42533 0.0
C396 C 0.42509 0.39687 0.37372 0.0
C397 C 0.40876 0.38099 0.33463 0.0
C398 C 0.40453 0.35852 0.3314 0.0
C399 C 0.41709 0.35215 0.37002 0.0
C400 C 0.4334 0.36823 0.41116 0.0
C401 C 0.43741 0.39079 0.41251 0.0
H402 H 0.02648 0.41381 0.47757 0.0
H403 H 0.08608 0.41838 0.38606 0.0
H404 H 0.06301 0.40158 0.29268 0.0
H405 H 0.98224 0.36025 0.40297 0.0
H406 H 0.96242 0.37079 0.39807 0.0
H407 H 0.98258 0.3797 0.4604 0.0
H408 H 0.99763 0.42216 0.432 0.0
H409 H 0.97767 0.41346 0.36954 0.0
H410 H 1.00789 0.43183 0.35517 0.0
H411 H 0.03588 0.39092 0.20569 0.0
H412 H 1.00565 0.38494 0.13186 0.0
H413 H 0.96317 0.38568 0.28089 0.0
C414 C 0.03455 0.41067 0.43853 0.0
C415 C 0.05802 0.41726 0.43899 0.0
C416 C 0.06806 0.41327 0.38671 0.0
C417 C 0.05509 0.40373 0.33357 0.0
C418 C 0.03215 0.39809 0.33404 0.0
C419 C 0.02189 0.4012 0.38537 0.0
C420 C 0.99767 0.39589 0.37233 0.0
C421 C 0.98019 0.37543 0.41072 0.0
C422 C 0.99508 0.41709 0.38287 0.0
C423 C 0.99606 0.38984 0.30508 0.0
C424 C 1.01614 0.39119 0.28391 0.0
C425 C 1.01984 0.38911 0.22193 0.0
C426 C 1.00267 0.38581 0.18045 0.0
C427 C 0.98207 0.38435 0.20142 0.0
C428 C 0.9785 0.38592 0.26443 0.0
H429 H 0.59135 0.96103 0.33263 0.0
H430 H 0.62831 0.98379 0.15974 0.0
H431 H 0.65291 0.02217 0.2037 0.0
H432 H 0.59001 1.01126 0.36343 0.0
H433 H 0.59362 1.01067 0.44514 0.0
H434 H 0.58039 0.98438 0.4022 0.0
H435 H 0.61044 0.97449 0.44357 0.0
H436 H 0.62371 1.00073 0.48697 0.0
H437 H 0.64057 0.99469 0.43369 0.0
H438 H 0.67077 0.05903 0.26285 0.0
H439 H 0.68187 0.09117 0.33519 0.0
H440 H 0.63389 0.04394 0.46969 0.0
C441 C 0.60493 0.97392 0.30438 0.0
C442 C 0.60796 0.96938 0.24285 0.0
C443 C 0.62571 0.98685 0.20712 0.0
C444 C 0.63978 1.00871 0.23164 0.0
C445 C 0.63598 0.01277 0.29203 0.0
C446 C 0.61912 0.99582 0.32811 0.0
C447 C 0.61772 1.00493 0.39048 0.0
C448 C 0.59404 1.00267 0.40088 0.0
C449 C 0.62347 0.993 0.4417 0.0
C450 C 0.63626 0.0297 0.38359 0.0
C451 C 0.64657 0.03392 0.32647 0.0
C452 C 0.66311 0.05588 0.30812 0.0
C453 C 0.66925 0.07401 0.34935 0.0
C454 C 0.65895 0.06996 0.40819 0.0
C455 C 0.64241 0.04748 0.42548 0.0
H456 H 0.64863 0.58841 0.27125 0.0
H457 H 0.65206 0.63531 0.13032 0.0
H458 H 0.64108 0.65527 0.20685 0.0
H459 H 0.59871 0.58124 0.33872 0.0
H460 H 0.60643 0.579 0.41637 0.0
H461 H 0.6182 0.57081 0.35352 0.0
H462 H 0.65936 0.59911 0.39104 0.0
H463 H 0.64768 0.60733 0.45431 0.0
H464 H 0.66795 0.62881 0.40255 0.0
H465 H 0.62658 0.66791 0.29592 0.0
H466 H 0.60761 0.67107 0.38961 0.0
H467 H 0.61197 0.61469 0.47093 0.0
C468 C 0.64781 0.60335 0.25699 0.0
C469 C 0.65163 0.61067 0.19527 0.0
C470 C 0.64948 0.62968 0.17765 0.0
C471 C 0.64332 0.64113 0.22078 0.0
C472 C 0.6392 0.63319 0.28107 0.0
C473 C 0.64127 0.61469 0.29917 0.0
C474 C 0.63338 0.60794 0.36485 0.0
C475 C 0.61297 0.5833 0.36852 0.0
C476 C 0.65329 0.61099 0.40559 0.0
C477 C 0.62617 0.62531 0.38047 0.0
C478 C 0.63 0.63994 0.33191 0.0
C479 C 0.62373 0.65672 0.33453 0.0
C480 C 0.61297 0.65839 0.38792 0.0
C481 C 0.60835 0.64315 0.43753 0.0
C482 C 0.61539 0.62667 0.43391 0.0
H483 H 0.95347 0.57297 0.33476 0.0
H484 H 0.98426 0.62062 0.48579 0.0
H485 H 0.0203 0.64172 0.42621 0.0
H486 H 1.00178 0.56864 0.30072 0.0
H487 H 0.99742 0.56622 0.21892 0.0
H488 H 0.97326 0.55676 0.26995 0.0
H489 H 0.96157 0.58353 0.21566 0.0
H490 H 0.98563 0.59298 0.16406 0.0
H491 H 0.98216 0.61361 0.20855 0.0
H492 H 0.05371 0.65601 0.35239 0.0
H493 H 0.08205 0.66169 0.27166 0.0
H494 H 0.02935 0.60348 0.17192 0.0
C495 C 0.96757 0.58821 0.3547 0.0
C496 C 0.96602 0.5954 0.41447 0.0
C497 C 0.98508 0.61499 0.43975 0.0
C498 C 1.00558 0.62707 0.40627 0.0
C499 C 1.0067 0.61922 0.34787 0.0
C500 C 0.98818 0.60022 0.32236 0.0
C501 C 0.99431 0.59409 0.26113 0.0
C502 C 0.99153 0.57001 0.26283 0.0
C503 C 0.98007 0.59619 0.20929 0.0
C504 C 1.01924 0.61246 0.25636 0.0
C505 C 0.02605 0.62695 0.30643 0.0
C506 C 0.04853 0.64488 0.31273 0.0
C507 C 0.06449 0.64797 0.26668 0.0
C508 C 0.05787 0.63303 0.21557 0.0
C509 C 0.03492 0.61519 0.21041 0.0
H510 H 0.59185 0.05369 0.76057 0.0
H511 H 0.65711 0.0589 0.71627 0.0
H512 H 0.64858 0.02771 0.78997 0.0
H513 H 0.58979 0.04079 0.92114 0.0
H514 H 0.55949 0.02031 0.92222 0.0
H515 H 0.57096 0.04333 0.86724 0.0
H516 H 0.55317 0.01404 0.78006 0.0
H517 H 0.5419 0.99067 0.83356 0.0
H518 H 0.56016 0.99165 0.77149 0.0
H519 H 0.63274 0.99561 0.87274 0.0
H520 H 0.61058 0.96495 0.94846 0.0
H521 H 0.55433 0.97866 0.93417 0.0
C522 C 0.60434 0.04826 0.76591 0.0
C523 C 0.62527 0.05909 0.73171 0.0
C524 C 0.64099 0.05117 0.74115 0.0
C525 C 0.63626 0.03336 0.78331 0.0
C526 C 0.6155 0.02311 0.81592 0.0
C527 C 0.59966 0.03016 0.80704 0.0
C528 C 0.57825 0.01581 0.84613 0.0
C529 C 0.57441 0.03097 0.89191 0.0
C530 C 0.55712 1.00222 0.80535 0.0
C531 C 0.58454 0.99979 0.87905 0.0
C532 C 0.60618 1.00435 0.86134 0.0
C533 C 0.61575 0.99193 0.88635 0.0
C534 C 0.60298 0.97447 0.92974 0.0
C535 C 0.58051 0.96902 0.94791 0.0
C536 C 0.57134 0.98207 0.92164 0.0
H537 H 0.59377 0.55942 0.95984 0.0
H538 H 0.66237 0.58538 0.88757 0.0
H539 H 0.65393 0.60498 0.8039 0.0
H540 H 0.56298 0.54938 0.82037 0.0
H541 H 0.5448 0.56004 0.84827 0.0
H542 H 0.55671 0.54844 0.90106 0.0
H543 H 0.57399 0.58597 0.96369 0.0
H544 H 0.56245 0.59778 0.90983 0.0
H545 H 0.59273 0.61274 0.92594 0.0
H546 H 0.63678 0.62154 0.72436 0.0
H547 H 0.61339 0.63272 0.66089 0.0
H548 H 0.55619 0.59637 0.78597 0.0
C549 C 0.60703 0.56926 0.92643 0.0
C550 C 0.6288 0.5707 0.9306 0.0
C551 C 0.64567 0.58407 0.88608 0.0
C552 C 0.64096 0.59525 0.83809 0.0
C553 C 0.61934 0.59351 0.83533 0.0
C554 C 0.60277 0.58104 0.87905 0.0
C555 C 0.58121 0.58249 0.86731 0.0
C556 C 0.56018 0.55864 0.85862 0.0
C557 C 0.57736 0.5955 0.91981 0.0
C558 C 0.5875 0.59631 0.80805 0.0
C559 C 0.60977 0.60302 0.79086 0.0
C560 C 0.61937 0.61632 0.73798 0.0
C561 C 0.60594 0.6227 0.70204 0.0
C562 C 0.58282 0.61548 0.71781 0.0
C563 C 0.5737 0.60211 0.77196 0.0
H564 H 0.05158 0.58089 0.93695 0.0
H565 H 0.07195 0.65286 0.9382 0.0
H566 H 0.04167 0.64509 0.8618 0.0
H567 H 0.04063 0.57246 0.77652 0.0
H568 H 1.01649 0.54401 0.78406 0.0
H569 H 0.03878 0.55481 0.84071 0.0
H570 H 1.00921 0.54644 0.92674 0.0
H571 H 0.98657 0.53505 0.8708 0.0
H572 H 0.9901 0.55783 0.92109 0.0
H573 H 1.00836 0.62851 0.78 0.0
H574 H 0.97704 0.60574 0.7065 0.0
H575 H 0.97867 0.54473 0.76021 0.0
C576 C 0.04967 0.59512 0.92181 0.0
C577 C 0.06448 0.61764 0.94457 0.0
C578 C 0.06108 0.63549 0.9223 0.0
C579 C 0.04379 0.63118 0.87859 0.0
C580 C 0.02967 0.60882 0.857 0.0
C581 C 0.03246 0.5911 0.87843 0.0
C582 C 1.01566 0.56869 0.84716 0.0
C583 C 0.0287 0.55946 0.80989 0.0
C584 C 0.99943 0.55096 0.89427 0.0
C585 C 1.00271 0.57629 0.80508 0.0
C586 C 1.01103 0.59953 0.81102 0.0
C587 C 1.00183 0.61031 0.7756 0.0
C588 C 0.98392 0.59715 0.73362 0.0
C589 C 0.97503 0.57323 0.72662 0.0
C590 C 0.98479 0.5629 0.76357 0.0
H591 H 0.4734 0.0619 0.88664 0.0
H592 H 0.41423 0.05305 0.98936 0.0
H593 H 0.38912 0.01879 0.92693 0.0
H594 H 0.44599 0.04581 0.7419 0.0
H595 H 0.45915 0.02989 0.71559 0.0
H596 H 0.47442 0.0536 0.7675 0.0
H597 H 0.47749 0.02785 0.85906 0.0
H598 H 0.46957 1.00852 0.79434 0.0
H599 H 0.45341 0.99938 0.86456 0.0
H600 H 0.37048 0.9828 0.85244 0.0
H601 H 0.36177 0.95144 0.77777 0.0
H602 H 0.43347 0.9847 0.72702 0.0
C603 C 0.45515 0.05294 0.89595 0.0
C604 C 0.44597 0.06049 0.94323 0.0
C605 C 0.42187 0.0479 0.95343 0.0
C606 C 0.40739 0.02828 0.91807 0.0
C607 C 0.41709 0.02126 0.87201 0.0
C608 C 0.44047 0.03336 0.86121 0.0
C609 C 0.44692 0.02243 0.80997 0.0
C610 C 0.4573 0.03897 0.75559 0.0
C611 C 0.46293 0.01417 0.83329 0.0
C612 C 0.42387 1.0021 0.79376 0.0
C613 C 0.40664 1.00151 0.82975 0.0
C614 C 0.38403 0.98337 0.82424 0.0
C615 C 0.37919 0.96552 0.78184 0.0
C616 C 0.39693 0.96556 0.7464 0.0
C617 C 0.41947 0.98421 0.7528 0.0
H618 H 0.46418 0.40472 0.81706 0.0
H619 H 0.43065 0.40242 0.64583 0.0
H620 H 0.40944 0.41885 0.69762 0.0
H621 H 0.41251 0.3871 0.91247 0.0
H622 H 0.42844 0.40488 0.97639 0.0
H623 H 0.44161 0.39367 0.9254 0.0
H624 H 0.47476 0.43456 0.90807 0.0
H625 H 0.46142 0.44671 0.955 0.0
H626 H 0.46894 0.45575 0.87645 0.0
H627 H 0.39372 0.43855 0.76727 0.0
H628 H 0.38067 0.45427 0.85111 0.0
H629 H 0.42 0.43958 0.98133 0.0
C630 C 0.45224 0.40752 0.7906 0.0
C631 C 0.44932 0.40229 0.72679 0.0
C632 C 0.43328 0.4061 0.69444 0.0
C633 C 0.42116 0.41558 0.72358 0.0
C634 C 0.42447 0.42062 0.78617 0.0
C635 C 0.43917 0.41614 0.81975 0.0
C636 C 0.43858 0.42205 0.88724 0.0
C637 C 0.42976 0.40065 0.92777 0.0
C638 C 0.46237 0.44089 0.908 0.0
C639 C 0.42154 0.43077 0.88624 0.0
C640 C 0.41394 0.43017 0.82713 0.0
C641 C 0.39919 0.43857 0.81386 0.0
C642 C 0.3918 0.44748 0.86193 0.0
C643 C 0.39859 0.44759 0.92342 0.0
C644 C 0.41378 0.43908 0.93532 0.0
H645 H 0.04457 0.4404 0.69098 0.0
H646 H 0.09619 0.44369 0.8148 0.0
H647 H 0.06652 0.42503 0.89608 0.0
H648 H 1.01575 0.45512 0.80813 0.0
H649 H 0.98795 0.43793 0.77345 0.0
H650 H 1.01363 0.4498 0.72711 0.0
H651 H 1.00058 0.4089 0.68741 0.0
H652 H 0.97579 0.39706 0.73704 0.0
H653 H 0.9959 0.38686 0.74183 0.0
H654 H 0.02977 0.40338 0.96235 0.0
H655 H 0.99196 0.38783 1.01317 0.0
H656 H 0.96543 0.40426 0.8523 0.0
C657 C 0.04952 0.43678 0.73488 0.0
C658 C 0.07266 0.44287 0.74585 0.0
C659 C 0.07857 0.43877 0.80484 0.0
C660 C 0.06177 0.42813 0.85128 0.0
C661 C 0.03906 0.42213 0.83886 0.0
C662 C 0.03306 0.42678 0.78241 0.0
C663 C 1.00801 0.4207 0.78265 0.0
C664 C 1.00616 0.44216 0.77226 0.0
C665 C 0.99426 0.40228 0.73436 0.0
C666 C 1.00064 0.41154 0.84754 0.0
C667 C 1.01869 0.41202 0.8788 0.0
C668 C 1.01571 0.40333 0.93837 0.0
C669 C 0.99404 0.39443 0.96699 0.0
C670 C 0.9756 0.39502 0.93744 0.0
C671 C 0.97913 0.40369 0.8766 0.0
H672 H 0.48055 0.9248 0.90501 0.0
H673 H 0.43886 0.89159 0.06473 0.0
H674 H 0.42435 0.9186 0.06381 0.0
H675 H 0.50451 0.97197 0.9729 0.0
H676 H 0.51008 0.99111 0.90929 0.0
H677 H 0.50672 0.96347 0.8958 0.0
H678 H 0.47244 0.95203 0.82028 0.0
H679 H 0.47892 0.9811 0.82916 0.0
H680 H 0.45003 0.95791 0.84205 0.0
H681 H 0.42496 0.95538 0.06965 0.0
H682 H 0.44074 0.99706 0.08309 0.0
H683 H 0.48995 1.01017 0.9379 0.0
C684 C 0.46717 0.92232 0.93709 0.0
C685 C 0.46087 0.90639 0.98507 0.0
C686 C 0.44371 0.90368 1.02724 0.0
C687 C 0.43551 0.91913 1.02716 0.0
C688 C 0.44507 0.93728 0.98545 0.0
C689 C 0.4606 0.93887 0.94079 0.0
C690 C 0.47431 0.96294 0.91561 0.0
C691 C 0.5004 0.97292 0.92403 0.0
C692 C 0.4685 0.96353 0.84781 0.0
C693 C 0.46535 0.97496 0.95611 0.0
C694 C 0.44764 0.95977 0.99362 0.0
C695 C 0.43837 0.96735 0.03933 0.0
C696 C 0.44756 0.991 0.04718 0.0
C697 C 0.46638 1.00662 1.01111 0.0
C698 C 0.47523 0.99847 0.96516 0.0
H699 H 0.48743 0.51389 0.99081 0.0
H700 H 0.44227 0.46012 0.11627 0.0
H701 H 0.46912 0.44511 0.11723 0.0
H702 H 0.50713 0.48299 0.89965 0.0
H703 H 0.53613 0.5063 0.89632 0.0
H704 H 0.51286 0.51208 0.90465 0.0
H705 H 0.53201 0.53602 1.00127 0.0
H706 H 0.55512 0.52991 0.99625 0.0
H707 H 0.53816 0.52303 0.06509 0.0
H708 H 0.5031 0.4388 0.11205 0.0
H709 H 0.54161 0.44251 0.10213 0.0
H710 H 0.56143 0.49745 0.97148 0.0
C711 C 0.48316 0.49891 1.01829 0.0
C712 C 0.46298 0.48816 0.05362 0.0
C713 C 0.4579 0.4687 0.0894 0.0
C714 C 0.4729 0.45994 0.08977 0.0
C715 C 0.49264 0.47083 0.05372 0.0
C716 C 0.49779 0.48994 1.01891 0.0
C717 C 0.52084 0.49964 0.9881 0.0
C718 C 0.51908 0.50027 0.918 0.0
C719 C 0.5375 0.52356 1.01417 0.0
C720 C 0.52736 0.48232 1.0081 0.0
C721 C 0.51122 0.4661 0.04724 0.0
C722 C 0.51549 0.4508 0.07965 0.0
C723 C 0.53717 0.45278 0.07334 0.0
C724 C 0.55364 0.46936 0.03349 0.0
C725 C 0.5484 0.48367 0.99906 0.0
H726 H 0.1034 0.5583 0.86891 0.0
H727 H 0.14187 0.55311 1.01947 0.0
H728 H 0.1188 0.51122 1.015 0.0
H729 H 0.05907 0.53177 0.92692 0.0
H730 H 0.03912 0.51481 0.86846 0.0
H731 H 0.06494 0.54013 0.84727 0.0
H732 H 0.07899 0.51982 0.77569 0.0
H733 H 0.05224 0.49365 0.78845 0.0
H734 H 0.07905 0.49436 0.80034 0.0
H735 H 0.08313 0.47527 1.02946 0.0
H736 H 0.04204 0.45018 0.05409 0.0
H737 H 0.02388 0.47802 0.90011 0.0
C738 C 0.10802 0.54819 0.89752 0.0
C739 C 0.12389 0.55869 0.94517 0.0
C740 C 0.12952 0.54526 0.98286 0.0
C741 C 0.1164 0.52133 0.98049 0.0
C742 C 0.09792 0.51127 0.93997 0.0
C743 C 0.09422 0.52434 0.89721 0.0
C744 C 0.07004 0.5114 0.87223 0.0
C745 C 0.05759 0.52532 0.87919 0.0
C746 C 0.07009 0.50437 0.8052 0.0
C747 C 0.05985 0.49071 0.91361 0.0
C748 C 0.07636 0.49016 0.95002 0.0
C749 C 0.07023 0.47504 0.99961 0.0
C750 C 0.04688 0.46101 1.01381 0.0
C751 C 0.0301 0.46262 0.97916 0.0
C752 C 0.03661 0.47662 0.92685 0.0
H753 H 0.95681 0.49119 0.72752 0.0
H754 H 0.91818 0.43488 0.60263 0.0
H755 H 0.95278 0.43148 0.58487 0.0
H756 H 1.00011 0.5161 0.62045 0.0
H757 H 0.02237 0.5309 0.67638 0.0
H758 H 0.9934 0.52396 0.69329 0.0
H759 H 0.99379 0.50253 0.79151 0.0
H760 H 0.02271 0.50931 0.77394 0.0
H761 H 1.00054 0.48004 0.78602 0.0
H762 H 0.99368 0.43876 0.56927 0.0
H763 H 0.03571 0.45469 0.56092 0.0
H764 H 0.04682 0.5103 0.68227 0.0
C765 C 0.95513 0.47713 0.69955 0.0
C766 C 0.93467 0.46277 0.66796 0.0
C767 C 0.93357 0.4455 0.62878 0.0
C768 C 0.95323 0.44373 0.61778 0.0
C769 C 0.9738 0.45981 0.645 0.0
C770 C 0.97476 0.47622 0.68494 0.0
C771 C 0.99911 0.49464 0.69748 0.0
C772 C 1.00402 0.51775 0.67033 0.0
C773 C 1.00435 0.4967 0.76637 0.0
C774 C 1.0119 0.4853 0.66213 0.0
C775 C 0.99714 0.46538 0.63125 0.0
C776 C 1.00533 0.45428 0.59354 0.0
C777 C 0.02918 0.46351 0.58872 0.0
C778 C 0.04439 0.48366 0.6211 0.0
C779 C 0.03557 0.4948 0.65727 0.0
H780 H 0.49348 1.00221 0.70066 0.0
H781 H 0.45542 0.01365 0.55874 0.0
H782 H 0.48129 0.05575 0.57022 0.0
H783 H 0.50851 0.05108 0.80328 0.0
H784 H 0.53589 0.05337 0.81477 0.0
H785 H 0.51156 0.02586 0.79755 0.0
H786 H 0.53652 0.02441 0.70284 0.0
H787 H 0.55897 0.05241 0.72535 0.0
H788 H 0.54775 0.04762 0.6487 0.0
H789 H 0.51576 0.09635 0.58911 0.0
H790 H 0.55476 0.1289 0.60868 0.0
H791 H 0.56372 0.09011 0.75285 0.0
C792 C 0.4903 0.01348 0.67225 0.0
C793 C 0.47251 1.00479 0.62883 0.0
C794 C 0.4691 0.0201 0.59215 0.0
C795 C 0.48355 0.04395 0.59886 0.0
C796 C 0.50076 0.05194 0.6434 0.0
C797 C 0.50399 0.03697 0.67946 0.0
C798 C 0.52501 0.04919 0.71896 0.0
C799 C 0.51981 0.04447 0.7877 0.0
C800 C 0.54314 0.04304 0.69775 0.0
C801 C 0.5323 0.07359 0.70354 0.0
C802 C 0.51882 0.07505 0.65803 0.0
C803 C 0.52585 0.09549 0.62639 0.0
C804 C 0.54786 0.11408 0.6385 0.0
C805 C 0.56207 0.11206 0.68283 0.0
C806 C 0.55304 0.09247 0.71999 0.0
H807 H 0.48341 0.55761 0.7967 0.0
H808 H 0.44032 0.55377 0.64594 0.0
H809 H 0.42473 0.51231 0.63951 0.0
H810 H 0.5057 0.53486 0.73917 0.0
H811 H 0.50752 0.5167 0.79657 0.0
H812 H 0.5045 0.54044 0.81981 0.0
H813 H 0.46744 0.51528 0.88134 0.0
H814 H 0.47135 0.49135 0.86404 0.0
H815 H 0.44451 0.48986 0.84683 0.0
H816 H 0.42846 0.47912 0.61551 0.0
H817 H 0.44681 0.45652 0.58732 0.0
H818 H 0.4894 0.48134 0.74889 0.0
C819 C 0.46938 0.54764 0.76574 0.0
C820 C 0.46348 0.55872 0.72081 0.0
C821 C 0.44524 0.54551 0.68041 0.0
C822 C 0.4363 0.52183 0.67643 0.0
C823 C 0.4455 0.51174 0.71411 0.0
C824 C 0.46098 0.52408 0.76031 0.0
C825 C 0.47276 0.51145 0.78388 0.0
C826 C 0.49915 0.52677 0.78474 0.0
C827 C 0.46343 0.50137 0.84776 0.0
C828 C 0.46493 0.49269 0.73637 0.0
C829 C 0.44809 0.49216 0.69903 0.0
C830 C 0.44098 0.47882 0.6458 0.0
C831 C 0.45173 0.46631 0.62951 0.0
C832 C 0.46977 0.46776 0.66548 0.0
C833 C 0.47574 0.48028 0.7206 0.0
H834 H 0.54807 0.08994 0.18551 0.0
H835 H 0.52333 0.13321 0.26093 0.0
H836 H 0.54861 0.14145 0.35074 0.0
H837 H 0.5529 0.06526 0.32339 0.0
H838 H 0.57944 0.06629 0.30357 0.0
H839 H 0.56021 0.06456 0.244 0.0
H840 H 0.59291 0.10118 0.19377 0.0
H841 H 0.61226 0.10303 0.25333 0.0
H842 H 0.60801 0.12693 0.23873 0.0
H843 H 0.57551 0.14372 0.43525 0.0
H844 H 0.60152 0.13984 0.50723 0.0
H845 H 0.60967 0.09531 0.37884 0.0
C846 C 0.54804 0.10125 0.22078 0.0
C847 C 0.53351 0.11088 0.2158 0.0
C848 C 0.53428 0.12573 0.26302 0.0
C849 C 0.54862 0.13048 0.31443 0.0
C850 C 0.56261 0.12067 0.31797 0.0
C851 C 0.56264 0.10654 0.27206 0.0
C852 C 0.57947 0.09831 0.28711 0.0
C853 C 0.56726 0.07204 0.28969 0.0
C854 C 0.59934 0.10792 0.24045 0.0
C855 C 0.58795 0.10894 0.35022 0.0
C856 C 0.57827 0.12212 0.36646 0.0
C857 C 0.5832 0.13352 0.42265 0.0
C858 C 0.598 0.13115 0.46353 0.0
C859 C 0.60774 0.11733 0.44905 0.0
C860 C 0.6028 0.10627 0.39104 0.0
H861 H 0.42454 0.51052 0.27924 0.0
H862 H 0.43651 0.56401 0.14912 0.0
H863 H 0.46508 0.59288 0.21888 0.0
H864 H 0.43024 0.54385 0.41806 0.0
H865 H 0.44461 0.53194 0.461 0.0
H866 H 0.42469 0.51533 0.40147 0.0
H867 H 0.45611 0.50986 0.34874 0.0
H868 H 0.47619 0.52663 0.4078 0.0
H869 H 0.4831 0.53463 0.32839 0.0
H870 H 0.49407 0.61635 0.30109 0.0
H871 H 0.51852 0.63266 0.39235 0.0
H872 H 0.48771 0.56485 0.47304 0.0
C873 C 0.4329 0.52834 0.26573 0.0
C874 C 0.4279 0.53478 0.20808 0.0
C875 C 0.43967 0.55838 0.19259 0.0
C876 C 0.45612 0.57502 0.23205 0.0
C877 C 0.46086 0.5681 0.28774 0.0
C878 C 0.44943 0.54534 0.30503 0.0
C879 C 0.45787 0.54262 0.36771 0.0
C880 C 0.43818 0.53286 0.41485 0.0
C881 C 0.46898 0.52754 0.36285 0.0
C882 C 0.47573 0.56737 0.38291 0.0
C883 C 0.4773 0.58172 0.33573 0.0
C884 C 0.49282 0.60523 0.33839 0.0
C885 C 0.50681 0.61438 0.39064 0.0
C886 C 0.50528 0.60026 0.44069 0.0
C887 C 0.48946 0.5763 0.43607 0.0
H888 H 0.94717 0.43252 0.26965 0.0
H889 H 0.90564 0.43981 0.13042 0.0
H890 H 0.89886 0.46503 0.20003 0.0
H891 H 0.91043 0.43084 0.39984 0.0
H892 H 0.9344 0.44569 0.45098 0.0
H893 H 0.93548 0.42794 0.3906 0.0
H894 H 0.97318 0.46223 0.35025 0.0
H895 H 0.97213 0.48012 0.4101 0.0
H896 H 0.97393 0.48858 0.33093 0.0
H897 H 0.89821 0.49151 0.28526 0.0
H898 H 0.90146 0.51394 0.37877 0.0
H899 H 0.94215 0.48828 0.46451 0.0
C900 C 0.93642 0.43923 0.2542 0.0
C901 C 0.92679 0.43402 0.19445 0.0
C902 C 0.91291 0.44324 0.17605 0.0
C903 C 0.90909 0.45773 0.21534 0.0
C904 C 0.91891 0.46267 0.27382 0.0
C905 C 0.93196 0.45331 0.29359 0.0
C906 C 0.94007 0.46082 0.35917 0.0
C907 C 0.92947 0.44009 0.40272 0.0
C908 C 0.96639 0.47371 0.36277 0.0
C909 C 0.93047 0.47665 0.3723 0.0
C910 C 0.91815 0.47737 0.32271 0.0
C911 C 0.90771 0.49086 0.32434 0.0
C912 C 0.90968 0.50366 0.37783 0.0
C913 C 0.92209 0.50313 0.42959 0.0
C914 C 0.93263 0.48935 0.42604 0.0
H915 H 0.43229 0.92979 0.3994 0.0
H916 H 0.44118 0.88733 0.53304 0.0
H917 H 0.46746 0.88309 0.46232 0.0
H918 H 0.4352 0.89934 0.26117 0.0
H919 H 0.45125 0.9252 0.21709 0.0
H920 H 0.43179 0.92375 0.27633 0.0
H921 H 0.46481 0.95967 0.32769 0.0
H922 H 0.4844 0.96109 0.26894 0.0
H923 H 0.49072 0.95974 0.34856 0.0
H924 H 0.49466 0.88476 0.37912 0.0
H925 H 0.51918 0.89104 0.28802 0.0
H926 H 0.49375 0.93269 0.20669 0.0
C927 C 0.43936 0.91918 0.41318 0.0
C928 C 0.4343 0.90871 0.47215 0.0
C929 C 0.44453 0.89548 0.48847 0.0
C930 C 0.45961 0.89298 0.44847 0.0
C931 C 0.46466 0.90388 0.3916 0.0
C932 C 0.45476 0.91663 0.37361 0.0
C933 C 0.4639 0.9272 0.31057 0.0
C934 C 0.44437 0.91834 0.26351 0.0
C935 C 0.47672 0.95349 0.31418 0.0
C936 C 0.48039 0.91842 0.29626 0.0
C937 C 0.48055 0.905 0.34373 0.0
C938 C 0.49456 0.89518 0.34158 0.0
C939 C 0.50856 0.8989 0.28952 0.0
C940 C 0.50862 0.91237 0.23964 0.0
C941 C 0.49429 0.92231 0.24373 0.0
H942 H 0.53718 0.4607 0.45646 0.0
H943 H 0.53607 0.39615 0.43663 0.0
H944 H 0.56451 0.41283 0.35228 0.0
H945 H 0.54264 0.47506 0.29504 0.0
H946 H 0.56161 0.50525 0.30717 0.0
H947 H 0.5412 0.48824 0.3657 0.0
H948 H 0.57416 0.50161 0.44427 0.0
H949 H 0.59465 0.51858 0.38579 0.0
H950 H 0.59808 0.49746 0.42753 0.0
H951 H 0.59296 0.43668 0.26716 0.0
H952 H 0.61865 0.46507 0.19095 0.0
H953 H 0.60258 0.51498 0.26637 0.0
C954 C 0.54284 0.44997 0.43447 0.0
C955 C 0.53406 0.42686 0.45387 0.0
C956 C 0.54228 0.41375 0.42335 0.0
C957 C 0.55853 0.42316 0.37511 0.0
C958 C 0.56677 0.4459 0.35739 0.0
C959 C 0.55922 0.45917 0.38633 0.0
C960 C 0.57085 0.4832 0.35856 0.0
C961 C 0.55301 0.48822 0.32992 0.0
C962 C 0.58529 0.50128 0.40692 0.0
C963 C 0.5861 0.48143 0.3093 0.0
C964 C 0.58341 0.45971 0.30939 0.0
C965 C 0.59521 0.45372 0.26722 0.0
C966 C 0.60989 0.47009 0.22387 0.0
C967 C 0.61307 0.49255 0.22233 0.0
C968 C 0.60097 0.49819 0.26638 0.0
H969 H 0.10405 0.56371 0.19681 0.0
H970 H 0.14144 0.63105 0.27999 0.0
H971 H 0.14838 0.61391 0.37162 0.0
H972 H 0.07686 0.53301 0.33917 0.0
H973 H 0.07861 0.50805 0.31845 0.0
H974 H 0.07637 0.52551 0.25953 0.0
H975 H 0.11334 0.53045 0.2085 0.0
H976 H 0.11583 0.5132 0.26759 0.0
H977 H 0.13928 0.54167 0.25289 0.0
H978 H 0.15254 0.58963 0.4538 0.0
H979 H 0.15099 0.56021 0.52327 0.0
H980 H 0.11003 0.50757 0.39042 0.0
C981 C 0.1136 0.5749 0.2344 0.0
C982 C 0.12221 0.59897 0.2304 0.0
C983 C 0.13455 0.61271 0.28123 0.0
C984 C 0.13867 0.60308 0.33367 0.0
C985 C 0.13025 0.57947 0.33562 0.0
C986 C 0.1177 0.56549 0.28764 0.0
C987 C 0.11026 0.54054 0.30213 0.0
C988 C 0.08396 0.52591 0.30499 0.0
C989 C 0.12028 0.5309 0.25496 0.0
C990 C 0.12081 0.5427 0.36541 0.0
C991 C 0.13233 0.56538 0.38355 0.0
C992 C 0.14348 0.57185 0.43994 0.0
C993 C 0.14255 0.55486 0.47926 0.0
C994 C 0.13049 0.5313 0.463 0.0
C995 C 0.11964 0.52531 0.40455 0.0
H996 H 0.43314 0.86558 0.77199 0.0
H997 H 0.48708 0.93464 0.72929 0.0
H998 H 0.51498 0.92783 0.7838 0.0
H999 H 0.44783 0.86566 0.91823 0.0
H1000 H 0.44188 0.83655 0.92315 0.0
H1001 H 0.42711 0.84416 0.86805 0.0
H1002 H 0.44081 0.82838 0.77981 0.0
H1003 H 0.45551 0.82021 0.83428 0.0
H1004 H 0.47097 0.83833 0.77021 0.0
H1005 H 0.53571 0.91614 0.8529 0.0
H1006 H 0.54625 0.90238 0.94525 0.0
H1007 H 0.47927 0.84132 0.94713 0.0
C1008 C 0.45096 0.87897 0.77273 0.0
C1009 C 0.45804 0.9005 0.74616 0.0
C1010 C 0.48133 0.91795 0.74937 0.0
C1011 C 0.49739 0.91415 0.77943 0.0
C1012 C 0.48989 0.89279 0.80577 0.0
C1013 C 0.4672 0.87552 0.80324 0.0
C1014 C 0.46291 0.85554 0.84362 0.0
C1015 C 0.44384 0.8502 0.8911 0.0
C1016 C 0.45722 0.83436 0.80463 0.0
C1017 C 0.48625 0.86513 0.8731 0.0
C1018 C 0.50186 0.88616 0.84819 0.0
C1019 C 0.52387 0.89949 0.87185 0.0
C1020 C 0.52965 0.8917 0.92443 0.0
C1021 C 0.51343 0.871 0.95251 0.0
C1022 C 0.49193 0.85704 0.92525 0.0
H1023 H 0.5657 0.41851 0.73901 0.0
H1024 H 0.58302 0.47312 0.60883 0.0
H1025 H 0.62227 0.49417 0.65028 0.0
H1026 H 0.58632 0.45169 0.85669 0.0
H1027 H 0.59688 0.43586 0.8986 0.0
H1028 H 0.5744 0.42141 0.84413 0.0
H1029 H 0.59885 0.40715 0.78733 0.0
H1030 H 0.6217 0.42204 0.84181 0.0
H1031 H 0.62732 0.42748 0.76084 0.0
H1032 H 0.65382 0.51382 0.72164 0.0
H1033 H 0.67092 0.53156 0.82037 0.0
H1034 H 0.63492 0.46508 0.90797 0.0
C1035 C 0.57823 0.43436 0.71742 0.0
C1036 C 0.57164 0.44418 0.67058 0.0
C1037 C 0.58794 0.46535 0.64468 0.0
C1038 C 0.61034 0.47726 0.66752 0.0
C1039 C 0.61609 0.46784 0.71653 0.0
C1040 C 0.60044 0.44674 0.74117 0.0
C1041 C 0.6085 0.44292 0.80238 0.0
C1042 C 0.59048 0.43771 0.85335 0.0
C1043 C 0.61446 0.42376 0.79777 0.0
C1044 C 0.6299 0.46602 0.81123 0.0
C1045 C 0.63463 0.47974 0.75988 0.0
C1046 C 0.65069 0.5031 0.76148 0.0
C1047 C 0.66043 0.5131 0.81798 0.0
C1048 C 0.65374 0.49973 0.87203 0.0
C1049 C 0.64023 0.47569 0.86724 0.0
H1050 H 0.15009 0.57297 0.72208 0.0
H1051 H 0.1678 0.53525 0.85011 0.0
H1052 H 0.18299 0.56801 0.92196 0.0
H1053 H 0.19924 0.63243 0.76438 0.0
H1054 H 0.1808 0.6444 0.75422 0.0
H1055 H 0.17707 0.62079 0.70704 0.0
H1056 H 0.13432 0.59731 0.74072 0.0
H1057 H 0.13816 0.62105 0.78653 0.0
H1058 H 0.12748 0.59341 0.82135 0.0
H1059 H 0.18866 0.60088 0.98676 0.0
H1060 H 0.18259 0.63001 0.03994 0.0
H1061 H 0.16103 0.64577 0.86925 0.0
C1062 C 0.15779 0.57188 0.7645 0.0
C1063 C 0.15789 0.55177 0.78084 0.0
C1064 C 0.16789 0.55074 0.83669 0.0
C1065 C 0.17667 0.56929 0.87747 0.0
C1066 C 0.17564 0.58871 0.86078 0.0
C1067 C 0.16662 0.59016 0.80519 0.0
C1068 C 0.16441 0.6113 0.80117 0.0
C1069 C 0.18141 0.62823 0.75391 0.0
C1070 C 0.13963 0.60537 0.78666 0.0
C1071 C 0.1713 0.62027 0.8655 0.0
C1072 C 0.17872 0.60767 0.89847 0.0
C1073 C 0.18354 0.61127 0.96102 0.0
C1074 C 0.17983 0.62756 0.99093 0.0
C1075 C 0.17119 0.63956 0.95801 0.0
C1076 C 0.16773 0.6366 0.89458 0.0
H1077 H 0.64234 0.18217 0.73976 0.0
H1078 H 0.65689 0.12653 0.74176 0.0
H1079 H 0.6329 0.11069 0.83485 0.0
H1080 H 0.63731 0.18637 0.91291 0.0
H1081 H 0.614 0.19206 0.90457 0.0
H1082 H 0.63619 0.2018 0.84682 0.0
H1083 H 0.60544 0.17995 0.76246 0.0
H1084 H 0.58367 0.17123 0.82072 0.0
H1085 H 0.58508 0.15 0.77382 0.0
H1086 H 0.6029 0.09761 0.9144 0.0
H1087 H 0.56861 0.08774 0.9765 0.0
H1088 H 0.57237 0.15147 0.92261 0.0
C1089 C 0.64107 0.16717 0.76154 0.0
C1090 C 0.65137 0.15549 0.73474 0.0
C1091 C 0.64903 0.13556 0.76246 0.0
C1092 C 0.63563 0.12661 0.81538 0.0
C1093 C 0.62483 0.13794 0.8397 0.0
C1094 C 0.6275 0.15789 0.81404 0.0
C1095 C 0.61172 0.165 0.84435 0.0
C1096 C 0.62564 0.18765 0.87925 0.0
C1097 C 0.59555 0.16663 0.79749 0.0
C1098 C 0.59876 0.14518 0.88817 0.0
C1099 C 0.60702 0.13011 0.88576 0.0
C1100 C 0.5966 0.10952 0.91785 0.0
C1101 C 0.57703 0.10402 0.95276 0.0
C1102 C 0.56787 0.1189 0.95462 0.0
C1103 C 0.57919 0.13995 0.92286 0.0
H1104 H 0.51166 0.64645 0.79874 0.0
H1105 H 0.47655 0.63122 0.6246 0.0
H1106 H 0.44049 0.60218 0.67517 0.0
H1107 H 0.49023 0.59279 0.84662 0.0
H1108 H 0.48754 0.59767 0.92665 0.0
H1109 H 0.5083 0.62058 0.87989 0.0
H1110 H 0.49049 0.64558 0.91035 0.0
H1111 H 0.46961 0.62259 0.95752 0.0
H1112 H 0.46031 0.63482 0.89865 0.0
H1113 H 0.4119 0.5694 0.73966 0.0
H1114 H 0.39257 0.53738 0.81355 0.0
H1115 H 0.44655 0.57558 0.94536 0.0
C1116 C 0.4961 0.6374 0.772 0.0
C1117 C 0.49646 0.64051 0.70845 0.0
C1118 C 0.47621 0.62865 0.67372 0.0
C1119 C 0.45574 0.61241 0.70211 0.0
C1120 C 0.4561 0.60874 0.76498 0.0
C1121 C 0.47573 0.62125 0.79963 0.0
C1122 C 0.47272 0.61234 0.86428 0.0
C1123 C 0.49075 0.60543 0.88019 0.0
C1124 C 0.47331 0.62988 0.91041 0.0
C1125 C 0.44899 0.59182 0.85943 0.0
C1126 C 0.43939 0.59016 0.80239 0.0
C1127 C 0.41882 0.57091 0.78523 0.0
C1128 C 0.40801 0.55281 0.82726 0.0
C1129 C 0.41809 0.55417 0.88499 0.0
C1130 C 0.43837 0.57419 0.90165 0.0
H1131 H 0.88791 0.42603 0.9137 0.0
H1132 H 0.94612 0.4886 0.98146 0.0
H1133 H 0.93559 0.51126 0.91445 0.0
H1134 H 0.89515 0.44253 0.76446 0.0
H1135 H 0.86532 0.42953 0.74387 0.0
H1136 H 0.8739 0.41769 0.80518 0.0
H1137 H 0.8467 0.42157 0.88155 0.0
H1138 H 0.83694 0.43258 0.82063 0.0
H1139 H 0.84797 0.44876 0.89043 0.0
H1140 H 0.92262 0.5266 0.82989 0.0
H1141 H 0.90695 0.53357 0.73505 0.0
H1142 H 0.85681 0.46137 0.72337 0.0
C1143 C 0.89797 0.44452 0.91609 0.0
C1144 C 0.91771 0.45559 0.9531 0.0
C1145 C 0.93084 0.4798 0.95363 0.0
C1146 C 0.92496 0.49281 0.9159 0.0
C1147 C 0.90581 0.48134 0.87841 0.0
C1148 C 0.89237 0.45775 0.87857 0.0
C1149 C 0.87426 0.4495 0.82911 0.0
C1150 C 0.87735 0.43391 0.78292 0.0
C1151 C 0.85003 0.43739 0.85713 0.0
C1152 C 0.8799 0.47211 0.80038 0.0
C1153 C 0.8981 0.49028 0.8297 0.0
C1154 C 0.90797 0.51262 0.80758 0.0
C1155 C 0.8991 0.51642 0.75378 0.0
C1156 C 0.88062 0.498 0.72332 0.0
C1157 C 0.87059 0.4757 0.74732 0.0
H1158 H 0.45556 0.19233 0.26261 0.0
H1159 H 0.506 0.25086 0.15801 0.0
H1160 H 0.51125 0.2761 0.24491 0.0
H1161 H 0.42991 0.22078 0.34076 0.0
H1162 H 0.42658 0.20684 0.41361 0.0
H1163 H 0.42664 0.19259 0.34366 0.0
H1164 H 0.45989 0.18767 0.38485 0.0
H1165 H 0.45986 0.20182 0.45508 0.0
H1166 H 0.48586 0.21245 0.41062 0.0
H1167 H 0.51001 0.29584 0.33911 0.0
H1168 H 0.50441 0.3087 0.44023 0.0
H1169 H 0.45637 0.2383 0.49045 0.0
C1170 C 0.46786 0.21041 0.25831 0.0
C1171 C 0.47992 0.21955 0.2023 0.0
C1172 C 0.49596 0.24337 0.19919 0.0
C1173 C 0.49924 0.25794 0.24867 0.0
C1174 C 0.48671 0.2486 0.3022 0.0
C1175 C 0.47157 0.22539 0.30806 0.0
C1176 C 0.46052 0.22015 0.37167 0.0
C1177 C 0.43436 0.20946 0.36713 0.0
C1178 C 0.46692 0.2046 0.40769 0.0
C1179 C 0.47158 0.24407 0.39971 0.0
C1180 C 0.48657 0.26013 0.35838 0.0
C1181 C 0.49842 0.28342 0.37209 0.0
C1182 C 0.495 0.29059 0.42962 0.0
C1183 C 0.47991 0.27462 0.47348 0.0
C1184 C 0.46814 0.25095 0.45818 0.0
H1185 H 0.23195 0.4515 0.46874 0.0
H1186 H 0.20385 0.49443 0.41486 0.0
H1187 H 0.22068 0.49853 0.31169 0.0
H1188 H 0.28579 0.48357 0.38628 0.0
H1189 H 0.28739 0.45858 0.36494 0.0
H1190 H 0.27278 0.45851 0.43452 0.0
H1191 H 0.23608 0.42224 0.39786 0.0
H1192 H 0.25058 0.42217 0.32824 0.0
H1193 H 0.22397 0.42244 0.32443 0.0
H1194 H 0.24134 0.49889 0.21457 0.0
H1195 H 0.26312 0.49458 0.1298 0.0
H1196 H 0.27825 0.4513 0.24461 0.0
C1197 C 0.22943 0.46195 0.43559 0.0
C1198 C 0.21637 0.47262 0.45078 0.0
C1199 C 0.21335 0.48575 0.4049 0.0
C1200 C 0.22305 0.48835 0.34603 0.0
C1201 C 0.23589 0.47778 0.33303 0.0
C1202 C 0.23909 0.4648 0.37644 0.0
C1203 C 0.2537 0.45528 0.3504 0.0
C1204 C 0.27625 0.46454 0.38617 0.0
C1205 C 0.24028 0.42897 0.35022 0.0
C1206 C 0.25809 0.46483 0.2854 0.0
C1207 C 0.2477 0.47783 0.27666 0.0
C1208 C 0.24937 0.48858 0.22086 0.0
C1209 C 0.26171 0.48585 0.17259 0.0
C1210 C 0.27228 0.47228 0.17941 0.0
C1211 C 0.27053 0.46184 0.23732 0.0
H1212 H 0.77575 0.24165 0.46073 0.0
H1213 H 0.75301 0.17097 0.41209 0.0
H1214 H 0.77008 0.18349 0.30948 0.0
H1215 H 0.76755 0.2604 0.31474 0.0
H1216 H 0.79323 0.28804 0.31846 0.0
H1217 H 0.77877 0.27359 0.38807 0.0
H1218 H 0.8163 0.27651 0.4279 0.0
H1219 H 0.83089 0.29095 0.35833 0.0
H1220 H 0.83077 0.26531 0.38188 0.0
H1221 H 0.78971 0.20354 0.21133 0.0
H1222 H 0.81032 0.22956 0.12533 0.0
H1223 H 0.82201 0.28767 0.23739 0.0
C1224 C 0.77447 0.22871 0.42899 0.0
C1225 C 0.76264 0.20513 0.44538 0.0
C1226 C 0.76132 0.18901 0.40117 0.0
C1227 C 0.77124 0.196 0.34259 0.0
C1228 C 0.78277 0.21927 0.32838 0.0
C1229 C 0.78454 0.23542 0.37038 0.0
C1230 C 0.7982 0.25942 0.34358 0.0
C1231 C 0.78356 0.27104 0.34106 0.0
C1232 C 0.82036 0.2739 0.3801 0.0
C1233 C 0.80348 0.2542 0.27957 0.0
C1234 C 0.79445 0.23091 0.27199 0.0
C1235 C 0.79681 0.2218 0.21682 0.0
C1236 C 0.80848 0.23677 0.16799 0.0
C1237 C 0.81774 0.26076 0.17398 0.0
C1238 C 0.81534 0.2695 0.23114 0.0
H1239 H 0.54726 0.78274 0.19167 0.0
H1240 H 0.60201 0.85171 0.23131 0.0
H1241 H 0.60918 0.8385 0.32929 0.0
H1242 H 0.52561 0.76868 0.34653 0.0
H1243 H 0.51928 0.73939 0.34327 0.0
H1244 H 0.51874 0.75372 0.27421 0.0
H1245 H 0.54798 0.74441 0.22359 0.0
H1246 H 0.54866 0.73011 0.29265 0.0
H1247 H 0.5749 0.75307 0.2611 0.0
H1248 H 0.61088 0.81878 0.42231 0.0
H1249 H 0.60536 0.79393 0.51043 0.0
H1250 H 0.54872 0.73684 0.41727 0.0
C1251 C 0.56082 0.79498 0.22094 0.0
C1252 C 0.57394 0.81841 0.20368 0.0
C1253 C 0.59145 0.83384 0.24358 0.0
C1254 C 0.59581 0.82644 0.29929 0.0
C1255 C 0.58256 0.80344 0.31516 0.0
C1256 C 0.56533 0.78786 0.27762 0.0
C1257 C 0.55324 0.76424 0.30771 0.0
C1258 C 0.5277 0.75603 0.31858 0.0
C1259 C 0.55638 0.74693 0.26894 0.0
C1260 C 0.56621 0.76918 0.36819 0.0
C1261 C 0.58322 0.79192 0.37061 0.0
C1262 C 0.59755 0.80097 0.4211 0.0
C1263 C 0.5942 0.78667 0.47117 0.0
C1264 C 0.57642 0.76343 0.47157 0.0
C1265 C 0.5625 0.75446 0.41852 0.0
H1266 H 0.8237 0.53777 0.41339 0.0
H1267 H 0.81894 0.59081 0.51379 0.0
H1268 H 0.80115 0.59785 0.42406 0.0
H1269 H 0.83513 0.56569 0.26031 0.0
H1270 H 0.81778 0.53914 0.22022 0.0
H1271 H 0.83205 0.53941 0.29024 0.0
H1272 H 0.79318 0.50914 0.33712 0.0
H1273 H 0.77881 0.50882 0.26736 0.0
H1274 H 0.76968 0.51478 0.33954 0.0
H1275 H 0.782 0.59799 0.32668 0.0
H1276 H 0.76204 0.59087 0.22783 0.0
H1277 H 0.77763 0.53704 0.18768 0.0
C1278 C 0.8193 0.55115 0.41584 0.0
C1279 C 0.82285 0.56384 0.47074 0.0
C1280 C 0.81642 0.58089 0.47245 0.0
C1281 C 0.80634 0.58505 0.42158 0.0
C1282 C 0.80265 0.57203 0.3687 0.0
C1283 C 0.80894 0.55543 0.36516 0.0
C1284 C 0.80181 0.54313 0.30352 0.0
C1285 C 0.82295 0.54708 0.26637 0.0
C1286 C 0.78486 0.51744 0.31244 0.0
C1287 C 0.7902 0.55511 0.27374 0.0
C1288 C 0.79115 0.57187 0.31219 0.0
C1289 C 0.7812 0.58493 0.29616 0.0
C1290 C 0.76973 0.58064 0.23987 0.0
C1291 C 0.768 0.56327 0.1997 0.0
C1292 C 0.77876 0.55058 0.21683 0.0
H1293 H 0.25171 0.77636 0.19135 0.0
H1294 H 0.18172 0.75788 0.23743 0.0
H1295 H 0.19456 0.77632 0.33823 0.0
H1296 H 0.26739 0.76704 0.34035 0.0
H1297 H 0.2962 0.7911 0.33808 0.0
H1298 H 0.28195 0.77735 0.26783 0.0
H1299 H 0.2889 0.81612 0.22561 0.0
H1300 H 0.3032 0.83002 0.29576 0.0
H1301 H 0.27918 0.83242 0.26925 0.0
H1302 H 0.21413 0.79496 0.43598 0.0
H1303 H 0.23946 0.8133 0.52448 0.0
H1304 H 0.29763 0.82115 0.41812 0.0
C1305 C 0.23915 0.77651 0.22228 0.0
C1306 C 0.21555 0.76541 0.20604 0.0
C1307 C 0.19976 0.76585 0.2486 0.0
C1308 C 0.20692 0.77644 0.30608 0.0
C1309 C 0.23009 0.78681 0.321 0.0
C1310 C 0.24606 0.7871 0.28039 0.0
C1311 C 0.26987 0.79908 0.30919 0.0
C1312 C 0.27941 0.78266 0.31415 0.0
C1313 C 0.28626 0.82069 0.27278 0.0
C1314 C 0.26466 0.80518 0.37241 0.0
C1315 C 0.24156 0.79793 0.37785 0.0
C1316 C 0.23227 0.80082 0.43211 0.0
C1317 C 0.24682 0.8112 0.48234 0.0
C1318 C 0.27058 0.81872 0.47866 0.0
C1319 C 0.27962 0.81587 0.42236 0.0
H1320 H 0.54951 0.73726 0.75677 0.0
H1321 H 0.60378 0.79552 0.65982 0.0
H1322 H 0.60898 0.82014 0.74843 0.0
H1323 H 0.52498 0.76736 0.83129 0.0
H1324 H 0.51921 0.75242 0.90344 0.0
H1325 H 0.51995 0.73849 0.83357 0.0
H1326 H 0.55074 0.73081 0.88004 0.0
H1327 H 0.55003 0.74465 0.95021 0.0
H1328 H 0.5768 0.75438 0.91003 0.0
H1329 H 0.60766 0.83929 0.84341 0.0
H1330 H 0.60085 0.85198 0.94298 0.0
H1331 H 0.54788 0.78233 0.98483 0.0
C1332 C 0.56267 0.75513 0.75464 0.0
C1333 C 0.576 0.76442 0.70039 0.0
C1334 C 0.59299 0.78796 0.69982 0.0
C1335 C 0.5962 0.80214 0.75026 0.0
C1336 C 0.58251 0.79269 0.80206 0.0
C1337 C 0.56621 0.76973 0.80528 0.0
C1338 C 0.55375 0.76439 0.86708 0.0
C1339 C 0.52794 0.75512 0.85829 0.0
C1340 C 0.55809 0.74756 0.90403 0.0
C1341 C 0.56532 0.78802 0.89707 0.0
C1342 C 0.5819 0.80395 0.85836 0.0
C1343 C 0.59474 0.82698 0.87419 0.0
C1344 C 0.59057 0.83406 0.9309 0.0
C1345 C 0.57361 0.81832 0.9719 0.0
C1346 C 0.56098 0.79484 0.95475 0.0
H1347 H 0.83919 0.57189 0.75582 0.0
H1348 H 0.78116 0.52104 0.65179 0.0
H1349 H 0.7557 0.51473 0.74019 0.0
H1350 H 0.82066 0.54285 0.90529 0.0
H1351 H 0.83055 0.56905 0.9478 0.0
H1352 H 0.84468 0.56907 0.87731 0.0
H1353 H 0.8378 0.6008 0.83396 0.0
H1354 H 0.8236 0.60082 0.9042 0.0
H1355 H 0.80904 0.59625 0.83192 0.0
H1356 H 0.73595 0.51442 0.83835 0.0
H1357 H 0.72328 0.51991 0.93986 0.0
H1358 H 0.79338 0.57147 0.98299 0.0
C1359 C 0.82119 0.55917 0.75204 0.0
C1360 C 0.81227 0.54698 0.69629 0.0
C1361 C 0.78849 0.53076 0.69337 0.0
C1362 C 0.77384 0.52699 0.74358 0.0
C1363 C 0.78304 0.53949 0.79722 0.0
C1364 C 0.80616 0.55523 0.80206 0.0
C1365 C 0.81133 0.56677 0.86484 0.0
C1366 C 0.82778 0.56162 0.90094 0.0
C1367 C 0.82101 0.5927 0.85832 0.0
C1368 C 0.78751 0.55514 0.89414 0.0
C1369 C 0.77151 0.53943 0.85416 0.0
C1370 C 0.74836 0.5267 0.87 0.0
C1371 C 0.74128 0.5301 0.92794 0.0
C1372 C 0.75716 0.54623 0.97015 0.0
C1373 C 0.7807 0.5588 0.95261 0.0
H1374 H 0.28153 0.83892 0.76148 0.0
H1375 H 0.27622 0.7808 0.66159 0.0
H1376 H 0.25685 0.75583 0.75033 0.0
H1377 H 0.29093 0.82111 0.91489 0.0
H1378 H 0.27391 0.83095 0.95451 0.0
H1379 H 0.2889 0.8449 0.88485 0.0
H1380 H 0.25074 0.83769 0.83713 0.0
H1381 H 0.23563 0.82362 0.90645 0.0
H1382 H 0.22671 0.80892 0.83394 0.0
H1383 H 0.23613 0.73637 0.84681 0.0
H1384 H 0.21618 0.72375 0.94611 0.0
H1385 H 0.23368 0.79362 0.9873 0.0
C1386 C 0.27671 0.82104 0.75893 0.0
C1387 C 0.28054 0.8119 0.70418 0.0
C1388 C 0.27351 0.78827 0.70259 0.0
C1389 C 0.26248 0.7739 0.75295 0.0
C1390 C 0.25846 0.78323 0.80545 0.0
C1391 C 0.26546 0.80627 0.80923 0.0
C1392 C 0.25814 0.8115 0.87082 0.0
C1393 C 0.27923 0.8281 0.9085 0.0
C1394 C 0.24183 0.82099 0.86151 0.0
C1395 C 0.2457 0.78779 0.90036 0.0
C1396 C 0.24625 0.77184 0.86165 0.0
C1397 C 0.23564 0.74875 0.87751 0.0
C1398 C 0.22411 0.74169 0.93413 0.0
C1399 C 0.223 0.7575 0.97508 0.0
C1400 C 0.23424 0.781 0.9577 0.0
H1401 H 0.45639 0.23746 0.6911 0.0
H1402 H 0.50953 0.30669 0.73481 0.0
H1403 H 0.51616 0.2933 0.83342 0.0
H1404 H 0.43294 0.22268 0.84268 0.0
H1405 H 0.42704 0.19352 0.84014 0.0
H1406 H 0.42733 0.20788 0.7703 0.0
H1407 H 0.45767 0.19924 0.72406 0.0
H1408 H 0.45749 0.18486 0.79386 0.0
H1409 H 0.48405 0.2081 0.76473 0.0
H1410 H 0.51677 0.27353 0.9274 0.0
H1411 H 0.50996 0.24863 1.01633 0.0
H1412 H 0.45544 0.19131 0.91818 0.0
C1413 C 0.4696 0.24967 0.72123 0.0
C1414 C 0.48248 0.2732 0.70512 0.0
C1415 C 0.49938 0.28869 0.74619 0.0
C1416 C 0.50336 0.2812 0.80223 0.0
C1417 C 0.4903 0.25809 0.81715 0.0
C1418 C 0.47369 0.24246 0.77825 0.0
C1419 C 0.4614 0.21877 0.80783 0.0
C1420 C 0.43565 0.21022 0.81571 0.0
C1421 C 0.46539 0.20174 0.77038 0.0
C1422 C 0.47346 0.22374 0.86969 0.0
C1423 C 0.49026 0.24653 0.87319 0.0
C1424 C 0.50365 0.25566 0.92529 0.0
C1425 C 0.49956 0.24134 0.97577 0.0
C1426 C 0.48199 0.21803 0.97484 0.0
C1427 C 0.46904 0.209 0.92034 0.0
H1428 H 0.21514 0.48455 0.74602 0.0
H1429 H 0.23233 0.44318 0.62851 0.0
H1430 H 0.25418 0.43902 0.71264 0.0
H1431 H 0.26907 0.51426 0.82509 0.0
H1432 H 0.25663 0.51387 0.89883 0.0
H1433 H 0.24199 0.51359 0.82962 0.0
H1434 H 0.20578 0.47656 0.86576 0.0
H1435 H 0.22032 0.47676 0.93515 0.0
H1436 H 0.20811 0.45192 0.88616 0.0
H1437 H 0.27444 0.43908 0.80988 0.0
H1438 H 0.29098 0.44304 0.91268 0.0
H1439 H 0.26182 0.48504 0.96857 0.0
C1440 C 0.22335 0.47448 0.73803 0.0
C1441 C 0.2221 0.46449 0.6796 0.0
C1442 C 0.2333 0.45152 0.67179 0.0
C1443 C 0.2457 0.44888 0.71968 0.0
C1444 C 0.24684 0.45917 0.77606 0.0
C1445 C 0.23591 0.47165 0.78567 0.0
C1446 C 0.23997 0.48092 0.85101 0.0
C1447 C 0.25267 0.50722 0.85112 0.0
C1448 C 0.21719 0.47094 0.88662 0.0
C1449 C 0.25503 0.4719 0.87617 0.0
C1450 C 0.25866 0.4593 0.83217 0.0
C1451 C 0.27179 0.44904 0.84457 0.0
C1452 C 0.28136 0.4516 0.90334 0.0
C1453 C 0.27805 0.46449 0.94977 0.0
C1454 C 0.26465 0.47481 0.93516 0.0
H1455 H 0.76174 0.19253 0.73695 0.0
H1456 H 0.77287 0.25065 0.62615 0.0
H1457 H 0.79326 0.27655 0.71217 0.0
H1458 H 0.75183 0.21408 0.88099 0.0
H1459 H 0.7662 0.20292 0.92692 0.0
H1460 H 0.75223 0.18872 0.85676 0.0
H1461 H 0.79019 0.19221 0.81728 0.0
H1462 H 0.80428 0.20646 0.88721 0.0
H1463 H 0.81575 0.21999 0.81422 0.0
H1464 H 0.81261 0.29648 0.81018 0.0
H1465 H 0.82934 0.30891 0.9129 0.0
H1466 H 0.80648 0.23823 0.96118 0.0
C1467 C 0.76822 0.21067 0.73088 0.0
C1468 C 0.76572 0.21943 0.67404 0.0
C1469 C 0.7748 0.2434 0.66842 0.0
C1470 C 0.78633 0.25831 0.71732 0.0
C1471 C 0.78866 0.24915 0.77223 0.0
C1472 C 0.77981 0.22588 0.77946 0.0
C1473 C 0.78484 0.22059 0.84344 0.0
C1474 C 0.76244 0.2057 0.87913 0.0
C1475 C 0.79965 0.20914 0.84032 0.0
C1476 C 0.79811 0.24452 0.87064 0.0
C1477 C 0.79998 0.2607 0.8288 0.0
C1478 C 0.81132 0.28394 0.84322 0.0
C1479 C 0.821 0.29087 0.90181 0.0
C1480 C 0.81954 0.27471 0.94583 0.0
C1481 C 0.80782 0.25116 0.92942 0.0
loop_
_geom_bond_atom_site_label_1
_geom_bond_atom_site_label_2
_geom_bond_distance
_geom_bond_site_symmetry_2
_ccdc_geom_bond_type
O0 Tb1 2.292 . S
O0 C3 1.255 . S
Tb1 O0 2.292 . S
Tb1 O17 2.326 . S
Tb1 O19 2.500 . S
Tb1 O20 2.473 1_556 S
Tb1 O23 2.324 1_556 S
Eu2 O6 2.292 . S
Eu2 C7 2.852 . S
Eu2 O18 2.324 1_554 S
Eu2 O22 2.326 . S
Eu2 O24 2.500 . S
Eu2 O25 2.473 . S
C3 O0 1.255 . S
C3 O4 1.247 . S
O4 C3 1.247 . S
C5 O17 1.242 . S
C5 O18 1.258 . S
O6 Eu2 2.292 . S
O6 C8 1.255 . S
C7 Eu2 2.852 . S
C7 C11 1.503 . S
C7 O24 1.273 . S
C7 O25 1.257 . S
C8 O6 1.255 . S
C8 O9 1.247 . S
O9 C8 1.247 . S
C10 O22 1.242 . S
C10 O23 1.258 . S
C11 C7 1.503 . S
C11 C12 1.379 . S
C11 C16 1.392 . S
C12 C11 1.379 . S
C12 C13 1.404 . S
C12 H26 0.929 1_554 S
C13 C12 1.404 . S
C13 C14 1.389 . S
C14 C13 1.389 . S
C14 C15 1.399 . S
C14 H27 0.931 . S
C15 C14 1.399 . S
C15 C16 1.390 . S
C16 C11 1.392 . S
C16 C15 1.390 . S
C16 H28 0.929 . S
O17 Tb1 2.326 . S
O17 C5 1.242 . S
O18 Eu2 2.324 1_556 S
O18 C5 1.258 . S
O19 Tb1 2.500 . S
O19 C21 1.273 . S
O20 Tb1 2.473 1_554 S
O20 C21 1.257 1_554 S
C21 O19 1.273 . S
C21 O20 1.257 1_556 S
O22 Eu2 2.326 . S
O22 C10 1.242 . S
O23 Tb1 2.324 1_554 S
O23 C10 1.258 . S
O24 Eu2 2.500 . S
O24 C7 1.273 . S
O25 Eu2 2.473 . S
O25 C7 1.257 . S
H26 C12 0.929 1_556 S
H27 C14 0.931 . S
H28 C16 0.929 . S
O29 Tb30 2.292 . S
O29 C32 1.255 . S
Tb30 O29 2.292 . S
Tb30 O46 2.326 . S
Tb30 O48 2.500 . S
Tb30 O49 2.473 1_556 S
Tb30 O52 2.324 1_556 S
Eu31 O35 2.292 . S
Eu31 C36 2.852 . S
Eu31 O47 2.324 1_554 S
Eu31 O51 2.326 . S
Eu31 O53 2.500 . S
Eu31 O54 2.473 . S
C32 O29 1.255 . S
C32 O33 1.247 . S
O33 C32 1.247 . S
C34 O46 1.242 . S
C34 O47 1.258 . S
O35 Eu31 2.292 . S
O35 C37 1.255 . S
C36 Eu31 2.852 . S
C36 C40 1.503 . S
C36 O53 1.273 . S
C36 O54 1.257 . S
C37 O35 1.255 . S
C37 O38 1.247 . S
O38 C37 1.247 . S
C39 O51 1.242 . S
C39 O52 1.258 . S
C40 C36 1.503 . S
C40 C41 1.379 . S
C40 C45 1.392 . S
C41 C40 1.379 . S
C41 C42 1.404 . S
C41 H55 0.929 1_554 S
C42 C41 1.404 . S
C42 C43 1.389 . S
C43 C42 1.389 . S
C43 C44 1.399 . S
C43 H56 0.931 . S
C44 C43 1.399 . S
C44 C45 1.390 . S
C45 C40 1.392 . S
C45 C44 1.390 . S
C45 H57 0.929 . S
O46 Tb30 2.326 . S
O46 C34 1.242 . S
O47 Eu31 2.324 1_556 S
O47 C34 1.258 . S
O48 Tb30 2.500 . S
O48 C50 1.273 . S
O49 Tb30 2.473 1_554 S
O49 C50 1.257 1_554 S
C50 O48 1.273 . S
C50 O49 1.257 1_556 S
O51 Eu31 2.326 . S
O51 C39 1.242 . S
O52 Tb30 2.324 1_554 S
O52 C39 1.258 . S
O53 Eu31 2.500 . S
O53 C36 1.273 . S
O54 Eu31 2.473 . S
O54 C36 1.257 . S
H55 C41 0.929 1_556 S
H56 C43 0.931 . S
H57 C45 0.929 . S
O58 Tb59 2.292 . S
O58 C61 1.255 . S
Tb59 O58 2.292 . S
Tb59 O75 2.326 . S
Tb59 O77 2.500 . S
Tb59 O78 2.473 1_556 S
Tb59 O81 2.324 1_556 S
Eu60 O64 2.292 . S
Eu60 C65 2.852 . S
Eu60 O76 2.324 1_554 S
Eu60 O80 2.326 . S
Eu60 O82 2.500 . S
Eu60 O83 2.473 . S
C61 O58 1.255 . S
C61 O62 1.247 . S
O62 C61 1.247 . S
C63 O75 1.242 . S
C63 O76 1.258 . S
O64 Eu60 2.292 . S
O64 C66 1.255 . S
C65 Eu60 2.852 . S
C65 C69 1.503 . S
C65 O82 1.273 . S
C65 O83 1.257 . S
C66 O64 1.255 . S
C66 O67 1.247 . S
O67 C66 1.247 . S
C68 O80 1.242 . S
C68 O81 1.258 . S
C69 C65 1.503 . S
C69 C70 1.379 . S
C69 C74 1.392 . S
C70 C69 1.379 . S
C70 C71 1.404 . S
C70 H84 0.929 1_554 S
C71 C70 1.404 . S
C71 C72 1.389 . S
C72 C71 1.389 . S
C72 C73 1.399 . S
C72 H85 0.931 . S
C73 C72 1.399 . S
C73 C74 1.390 . S
C74 C69 1.392 . S
C74 C73 1.390 . S
C74 H86 0.929 . S
O75 Tb59 2.326 . S
O75 C63 1.242 . S
O76 Eu60 2.324 1_556 S
O76 C63 1.258 . S
O77 Tb59 2.500 . S
O77 C79 1.273 . S
O78 Tb59 2.473 1_554 S
O78 C79 1.257 1_554 S
C79 O77 1.273 . S
C79 O78 1.257 1_556 S
O80 Eu60 2.326 . S
O80 C68 1.242 . S
O81 Tb59 2.324 1_554 S
O81 C68 1.258 . S
O82 Eu60 2.500 . S
O82 C65 1.273 . S
O83 Eu60 2.473 . S
O83 C65 1.257 . S
H84 C70 0.929 1_556 S
H85 C72 0.931 . S
H86 C74 0.929 . S
O87 Tb88 2.292 . S
O87 C90 1.255 . S
Tb88 O87 2.292 . S
Tb88 O104 2.326 . S
Tb88 O106 2.500 . S
Tb88 O107 2.473 1_556 S
Tb88 O110 2.324 1_556 S
Eu89 O93 2.292 . S
Eu89 C94 2.852 . S
Eu89 O105 2.324 1_554 S
Eu89 O109 2.326 . S
Eu89 O111 2.500 . S
Eu89 O112 2.473 . S
C90 O87 1.255 . S
C90 O91 1.247 . S
O91 C90 1.247 . S
C92 O104 1.242 . S
C92 O105 1.258 . S
O93 Eu89 2.292 . S
O93 C95 1.255 . S
C94 Eu89 2.852 . S
C94 C98 1.503 . S
C94 O111 1.273 . S
C94 O112 1.257 . S
C95 O93 1.255 . S
C95 O96 1.247 . S
O96 C95 1.247 . S
C97 O109 1.242 . S
C97 O110 1.258 . S
C98 C94 1.503 . S
C98 C99 1.379 . S
C98 C103 1.392 . S
C99 C98 1.379 . S
C99 C100 1.404 . S
C99 H113 0.929 1_554 S
C100 C99 1.404 . S
C100 C101 1.389 . S
C101 C100 1.389 . S
C101 C102 1.399 . S
C101 H114 0.931 . S
C102 C101 1.399 . S
C102 C103 1.390 . S
C103 C98 1.392 . S
C103 C102 1.390 . S
C103 H115 0.929 . S
O104 Tb88 2.326 . S
O104 C92 1.242 . S
O105 Eu89 2.324 1_556 S
O105 C92 1.258 . S
O106 Tb88 2.500 . S
O106 C108 1.273 . S
O107 Tb88 2.473 1_554 S
O107 C108 1.257 1_554 S
C108 O106 1.273 . S
C108 O107 1.257 1_556 S
O109 Eu89 2.326 . S
O109 C97 1.242 . S
O110 Tb88 2.324 1_554 S
O110 C97 1.258 . S
O111 Eu89 2.500 . S
O111 C94 1.273 . S
O112 Eu89 2.473 . S
O112 C94 1.257 . S
H113 C99 0.929 1_556 S
H114 C101 0.931 . S
H115 C103 0.929 . S
O116 Tb117 2.292 . S
O116 C119 1.255 . S
Tb117 O116 2.292 . S
Tb117 O133 2.326 . S
Tb117 O135 2.500 . S
Tb117 O136 2.473 1_556 S
Tb117 O139 2.324 1_556 S
Eu118 O122 2.292 . S
Eu118 C123 2.852 . S
Eu118 O134 2.324 1_554 S
Eu118 O138 2.326 . S
Eu118 O140 2.500 . S
Eu118 O141 2.473 . S
C119 O116 1.255 . S
C119 O120 1.247 . S
O120 C119 1.247 . S
C121 O133 1.242 . S
C121 O134 1.258 . S
O122 Eu118 2.292 . S
O122 C124 1.255 . S
C123 Eu118 2.852 . S
C123 C127 1.503 . S
C123 O140 1.273 . S
C123 O141 1.257 . S
C124 O122 1.255 . S
C124 O125 1.247 . S
O125 C124 1.247 . S
C126 O138 1.242 . S
C126 O139 1.258 . S
C127 C123 1.503 . S
C127 C128 1.379 . S
C127 C132 1.392 . S
C128 C127 1.379 . S
C128 C129 1.404 . S
C128 H142 0.929 1_554 S
C129 C128 1.404 . S
C129 C130 1.389 . S
C130 C129 1.389 . S
C130 C131 1.399 . S
C130 H143 0.931 . S
C131 C130 1.399 . S
C131 C132 1.390 . S
C132 C127 1.392 . S
C132 C131 1.390 . S
C132 H144 0.929 . S
O133 Tb117 2.326 . S
O133 C121 1.242 . S
O134 Eu118 2.324 1_556 S
O134 C121 1.258 . S
O135 Tb117 2.500 . S
O135 C137 1.273 . S
O136 Tb117 2.473 1_554 S
O136 C137 1.257 1_554 S
C137 O135 1.273 . S
C137 O136 1.257 1_556 S
O138 Eu118 2.326 . S
O138 C126 1.242 . S
O139 Tb117 2.324 1_554 S
O139 C126 1.258 . S
O140 Eu118 2.500 . S
O140 C123 1.273 . S
O141 Eu118 2.473 . S
O141 C123 1.257 . S
H142 C128 0.929 1_556 S
H143 C130 0.931 . S
H144 C132 0.929 . S
O145 Tb146 2.292 . S
O145 C148 1.255 . S
Tb146 O145 2.292 . S
Tb146 O162 2.326 . S
Tb146 O164 2.500 . S
Tb146 O165 2.473 1_556 S
Tb146 O168 2.324 1_556 S
Eu147 O151 2.292 . S
Eu147 C152 2.852 . S
Eu147 O163 2.324 1_554 S
Eu147 O167 2.326 . S
Eu147 O169 2.500 . S
Eu147 O170 2.473 . S
C148 O145 1.255 . S
C148 O149 1.247 . S
O149 C148 1.247 . S
C150 O162 1.242 . S
C150 O163 1.258 . S
O151 Eu147 2.292 . S
O151 C153 1.255 . S
C152 Eu147 2.852 . S
C152 C156 1.503 . S
C152 O169 1.273 . S
C152 O170 1.257 . S
C153 O151 1.255 . S
C153 O154 1.247 . S
O154 C153 1.247 . S
C155 O167 1.242 . S
C155 O168 1.258 . S
C156 C152 1.503 . S
C156 C157 1.379 . S
C156 C161 1.392 . S
C157 C156 1.379 . S
C157 C158 1.404 . S
C157 H171 0.929 1_554 S
C158 C157 1.404 . S
C158 C159 1.389 . S
C159 C158 1.389 . S
C159 C160 1.399 . S
C159 H172 0.931 . S
C160 C159 1.399 . S
C160 C161 1.390 . S
C161 C156 1.392 . S
C161 C160 1.390 . S
C161 H173 0.929 . S
O162 Tb146 2.326 . S
O162 C150 1.242 . S
O163 Eu147 2.324 1_556 S
O163 C150 1.258 . S
O164 Tb146 2.500 . S
O164 C166 1.273 . S
O165 Tb146 2.473 1_554 S
O165 C166 1.257 1_554 S
C166 O164 1.273 . S
C166 O165 1.257 1_556 S
O167 Eu147 2.326 . S
O167 C155 1.242 . S
O168 Tb146 2.324 1_554 S
O168 C155 1.258 . S
O169 Eu147 2.500 . S
O169 C152 1.273 . S
O170 Eu147 2.473 . S
O170 C152 1.257 . S
H171 C157 0.929 1_556 S
H172 C159 0.931 . S
H173 C161 0.929 . S
O174 Tb175 2.292 . S
O174 C177 1.255 . S
Tb175 O174 2.292 . S
Tb175 O191 2.326 . S
Tb175 O193 2.500 . S
Tb175 O194 2.473 . S
Tb175 O197 2.324 . S
Eu176 O180 2.292 . S
Eu176 C181 2.852 . S
Eu176 O192 2.324 . S
Eu176 O196 2.326 . S
Eu176 O198 2.500 . S
Eu176 O199 2.473 . S
C177 O174 1.255 . S
C177 O178 1.247 . S
O178 C177 1.247 . S
C179 O191 1.242 . S
C179 O192 1.258 . S
O180 Eu176 2.292 . S
O180 C182 1.255 . S
C181 Eu176 2.852 . S
C181 C185 1.503 . S
C181 O198 1.273 . S
C181 O199 1.257 . S
C182 O180 1.255 . S
C182 O183 1.247 . S
O183 C182 1.247 . S
C184 O196 1.242 . S
C184 O197 1.258 . S
C185 C181 1.503 . S
C185 C186 1.379 . S
C185 C190 1.392 . S
C186 C185 1.379 . S
C186 C187 1.404 . S
C186 H200 0.929 . S
C187 C186 1.404 . S
C187 C188 1.389 . S
C188 C187 1.389 . S
C188 C189 1.399 . S
C188 H201 0.931 . S
C189 C188 1.399 . S
C189 C190 1.390 . S
C190 C185 1.392 . S
C190 C189 1.390 . S
C190 H202 0.929 . S
O191 Tb175 2.326 . S
O191 C179 1.242 . S
O192 Eu176 2.324 . S
O192 C179 1.258 . S
O193 Tb175 2.500 . S
O193 C195 1.273 . S
O194 Tb175 2.473 . S
O194 C195 1.257 . S
C195 O193 1.273 . S
C195 O194 1.257 . S
O196 Eu176 2.326 . S
O196 C184 1.242 . S
O197 Tb175 2.324 . S
O197 C184 1.258 . S
O198 Eu176 2.500 . S
O198 C181 1.273 . S
O199 Eu176 2.473 . S
O199 C181 1.257 . S
H200 C186 0.929 . S
H201 C188 0.931 . S
H202 C190 0.929 . S
O203 Tb204 2.292 . S
O203 C206 1.255 . S
Tb204 O203 2.292 . S
Tb204 O220 2.326 . S
Tb204 O222 2.500 . S
Tb204 O223 2.473 . S
Tb204 O226 2.324 . S
Eu205 O209 2.292 . S
Eu205 C210 2.852 . S
Eu205 O221 2.324 . S
Eu205 O225 2.326 . S
Eu205 O227 2.500 . S
Eu205 O228 2.473 . S
C206 O203 1.255 . S
C206 O207 1.247 . S
O207 C206 1.247 . S
C208 O220 1.242 . S
C208 O221 1.258 . S
O209 Eu205 2.292 . S
O209 C211 1.255 . S
C210 Eu205 2.852 . S
C210 C214 1.503 . S
C210 O227 1.273 . S
C210 O228 1.257 . S
C211 O209 1.255 . S
C211 O212 1.247 . S
O212 C211 1.247 . S
C213 O225 1.242 . S
C213 O226 1.258 . S
C214 C210 1.503 . S
C214 C215 1.379 . S
C214 C219 1.392 . S
C215 C214 1.379 . S
C215 C216 1.404 . S
C215 H229 0.929 . S
C216 C215 1.404 . S
C216 C217 1.389 . S
C217 C216 1.389 . S
C217 C218 1.399 . S
C217 H230 0.931 . S
C218 C217 1.399 . S
C218 C219 1.390 . S
C219 C214 1.392 . S
C219 C218 1.390 . S
C219 H231 0.929 . S
O220 Tb204 2.326 . S
O220 C208 1.242 . S
O221 Eu205 2.324 . S
O221 C208 1.258 . S
O222 Tb204 2.500 . S
O222 C224 1.273 . S
O223 Tb204 2.473 . S
O223 C224 1.257 . S
C224 O222 1.273 . S
C224 O223 1.257 . S
O225 Eu205 2.326 . S
O225 C213 1.242 . S
O226 Tb204 2.324 . S
O226 C213 1.258 . S
O227 Eu205 2.500 . S
O227 C210 1.273 . S
O228 Eu205 2.473 . S
O228 C210 1.257 . S
H229 C215 0.929 . S
H230 C217 0.931 . S
H231 C219 0.929 . S
O232 Tb233 2.292 . S
O232 C235 1.255 . S
Tb233 O232 2.292 . S
Tb233 O249 2.326 . S
Tb233 O251 2.500 . S
Tb233 O252 2.473 . S
Tb233 O255 2.324 . S
Eu234 O238 2.292 . S
Eu234 C239 2.852 . S
Eu234 O250 2.324 . S
Eu234 O254 2.326 . S
Eu234 O256 2.500 . S
Eu234 O257 2.473 . S
C235 O232 1.255 . S
C235 O236 1.247 . S
O236 C235 1.247 . S
C237 O249 1.242 . S
C237 O250 1.258 . S
O238 Eu234 2.292 . S
O238 C240 1.255 . S
C239 Eu234 2.852 . S
C239 C243 1.503 . S
C239 O256 1.273 . S
C239 O257 1.257 . S
C240 O238 1.255 . S
C240 O241 1.247 . S
O241 C240 1.247 . S
C242 O254 1.242 . S
C242 O255 1.258 . S
C243 C239 1.503 . S
C243 C244 1.379 . S
C243 C248 1.392 . S
C244 C243 1.379 . S
C244 C245 1.404 . S
C244 H258 0.929 . S
C245 C244 1.404 . S
C245 C246 1.389 . S
C246 C245 1.389 . S
C246 C247 1.399 . S
C246 H259 0.931 . S
C247 C246 1.399 . S
C247 C248 1.390 . S
C248 C243 1.392 . S
C248 C247 1.390 . S
C248 H260 0.929 . S
O249 Tb233 2.326 . S
O249 C237 1.242 . S
O250 Eu234 2.324 . S
O250 C237 1.258 . S
O251 Tb233 2.500 . S
O251 C253 1.273 . S
O252 Tb233 2.473 . S
O252 C253 1.257 . S
C253 O251 1.273 . S
C253 O252 1.257 . S
O254 Eu234 2.326 . S
O254 C242 1.242 . S
O255 Tb233 2.324 . S
O255 C242 1.258 . S
O256 Eu234 2.500 . S
O256 C239 1.273 . S
O257 Eu234 2.473 . S
O257 C239 1.257 . S
H258 C244 0.929 . S
H259 C246 0.931 . S
H260 C248 0.929 . S
O261 Tb262 2.292 . S
O261 C264 1.255 . S
Tb262 O261 2.292 . S
Tb262 O278 2.326 . S
Tb262 O280 2.500 . S
Tb262 O281 2.473 . S
Tb262 O284 2.324 . S
Eu263 O267 2.292 . S
Eu263 C268 2.852 . S
Eu263 O279 2.324 . S
Eu263 O283 2.326 . S
Eu263 O285 2.500 . S
Eu263 O286 2.473 . S
C264 O261 1.255 . S
C264 O265 1.247 . S
O265 C264 1.247 . S
C266 O278 1.242 . S
C266 O279 1.258 . S
O267 Eu263 2.292 . S
O267 C269 1.255 . S
C268 Eu263 2.852 . S
C268 C272 1.503 . S
C268 O285 1.273 . S
C268 O286 1.257 . S
C269 O267 1.255 . S
C269 O270 1.247 . S
O270 C269 1.247 . S
C271 O283 1.242 . S
C271 O284 1.258 . S
C272 C268 1.503 . S
C272 C273 1.379 . S
C272 C277 1.392 . S
C273 C272 1.379 . S
C273 C274 1.404 . S
C273 H287 0.929 . S
C274 C273 1.404 . S
C274 C275 1.389 . S
C275 C274 1.389 . S
C275 C276 1.399 . S
C275 H288 0.931 . S
C276 C275 1.399 . S
C276 C277 1.390 . S
C277 C272 1.392 . S
C277 C276 1.390 . S
C277 H289 0.929 . S
O278 Tb262 2.326 . S
O278 C266 1.242 . S
O279 Eu263 2.324 . S
O279 C266 1.258 . S
O280 Tb262 2.500 . S
O280 C282 1.273 . S
O281 Tb262 2.473 . S
O281 C282 1.257 . S
C282 O280 1.273 . S
C282 O281 1.257 . S
O283 Eu263 2.326 . S
O283 C271 1.242 . S
O284 Tb262 2.324 . S
O284 C271 1.258 . S
O285 Eu263 2.500 . S
O285 C268 1.273 . S
O286 Eu263 2.473 . S
O286 C268 1.257 . S
H287 C273 0.929 . S
H288 C275 0.931 . S
H289 C277 0.929 . S
O290 Tb291 2.292 . S
O290 C293 1.255 . S
Tb291 O290 2.292 . S
Tb291 O307 2.326 . S
Tb291 O309 2.500 . S
Tb291 O310 2.473 . S
Tb291 O313 2.324 . S
Eu292 O296 2.292 . S
Eu292 C297 2.852 . S
Eu292 O308 2.324 . S
Eu292 O312 2.326 . S
Eu292 O314 2.500 . S
Eu292 O315 2.473 . S
C293 O290 1.255 . S
C293 O294 1.247 . S
O294 C293 1.247 . S
C295 O307 1.242 . S
C295 O308 1.258 . S
O296 Eu292 2.292 . S
O296 C298 1.255 . S
C297 Eu292 2.852 . S
C297 C301 1.503 . S
C297 O314 1.273 . S
C297 O315 1.257 . S
C298 O296 1.255 . S
C298 O299 1.247 . S
O299 C298 1.247 . S
C300 O312 1.242 . S
C300 O313 1.258 . S
C301 C297 1.503 . S
C301 C302 1.379 . S
C301 C306 1.392 . S
C302 C301 1.379 . S
C302 C303 1.404 . S
C302 H316 0.929 . S
C303 C302 1.404 . S
C303 C304 1.389 . S
C304 C303 1.389 . S
C304 C305 1.399 . S
C304 H317 0.931 . S
C305 C304 1.399 . S
C305 C306 1.390 . S
C306 C301 1.392 . S
C306 C305 1.390 . S
C306 H318 0.929 . S
O307 Tb291 2.326 . S
O307 C295 1.242 . S
O308 Eu292 2.324 . S
O308 C295 1.258 . S
O309 Tb291 2.500 . S
O309 C311 1.273 . S
O310 Tb291 2.473 . S
O310 C311 1.257 . S
C311 O309 1.273 . S
C311 O310 1.257 . S
O312 Eu292 2.326 . S
O312 C300 1.242 . S
O313 Tb291 2.324 . S
O313 C300 1.258 . S
O314 Eu292 2.500 . S
O314 C297 1.273 . S
O315 Eu292 2.473 . S
O315 C297 1.257 . S
H316 C302 0.929 . S
H317 C304 0.931 . S
H318 C306 0.929 . S
O319 Tb320 2.292 . S
O319 C322 1.255 . S
Tb320 O319 2.292 . S
Tb320 O336 2.326 . S
Tb320 O338 2.500 . S
Tb320 O339 2.473 . S
Tb320 O342 2.324 . S
Eu321 O325 2.292 . S
Eu321 C326 2.852 . S
Eu321 O337 2.324 . S
Eu321 O341 2.326 . S
Eu321 O343 2.500 . S
Eu321 O344 2.473 . S
C322 O319 1.255 . S
C322 O323 1.247 . S
O323 C322 1.247 . S
C324 O336 1.242 . S
C324 O337 1.258 . S
O325 Eu321 2.292 . S
O325 C327 1.255 . S
C326 Eu321 2.852 . S
C326 C330 1.503 . S
C326 O343 1.273 . S
C326 O344 1.257 . S
C327 O325 1.255 . S
C327 O328 1.247 . S
O328 C327 1.247 . S
C329 O341 1.242 . S
C329 O342 1.258 . S
C330 C326 1.503 . S
C330 C331 1.379 . S
C330 C335 1.392 . S
C331 C330 1.379 . S
C331 C332 1.404 . S
C331 H345 0.929 . S
C332 C331 1.404 . S
C332 C333 1.389 . S
C333 C332 1.389 . S
C333 C334 1.399 . S
C333 H346 0.931 . S
C334 C333 1.399 . S
C334 C335 1.390 . S
C335 C330 1.392 . S
C335 C334 1.390 . S
C335 H347 0.929 . S
O336 Tb320 2.326 . S
O336 C324 1.242 . S
O337 Eu321 2.324 . S
O337 C324 1.258 . S
O338 Tb320 2.500 . S
O338 C340 1.273 . S
O339 Tb320 2.473 . S
O339 C340 1.257 . S
C340 O338 1.273 . S
C340 O339 1.257 . S
O341 Eu321 2.326 . S
O341 C329 1.242 . S
O342 Tb320 2.324 . S
O342 C329 1.258 . S
O343 Eu321 2.500 . S
O343 C326 1.273 . S
O344 Eu321 2.473 . S
O344 C326 1.257 . S
H345 C331 0.929 . S
H346 C333 0.931 . S
H347 C335 0.929 . S
H348 C360 0.930 . S
H349 C362 0.930 . S
H350 C363 0.930 . S
H351 C367 0.959 . S
H352 C367 0.959 . S
H353 C367 0.961 . S
H354 C368 0.960 . S
H355 C368 0.961 . S
H356 C368 0.959 . S
H357 C371 0.929 . S
H358 C372 0.931 . S
H359 C374 0.930 . S
C360 H348 0.930 . S
C360 C361 1.399 . S
C360 C365 1.399 . S
C361 C360 1.399 . S
C361 C362 1.376 . S
C362 H349 0.930 . S
C362 C361 1.376 . S
C362 C363 1.388 . S
C363 H350 0.930 . S
C363 C362 1.388 . S
C363 C364 1.390 . S
C364 C363 1.390 . S
C364 C365 1.394 . S
C364 C370 1.465 1_545 S
C365 C360 1.399 . S
C365 C364 1.394 . S
C365 C366 1.516 . S
C366 C365 1.516 . S
C366 C367 1.502 . S
C366 C368 1.561 . S
C366 C369 1.526 1_545 S
C367 H351 0.959 . S
C367 H352 0.959 . S
C367 H353 0.961 . S
C367 C366 1.502 . S
C368 H354 0.960 . S
C368 H355 0.961 . S
C368 H356 0.959 . S
C368 C366 1.561 . S
C369 C366 1.526 1_565 S
C369 C370 1.396 . S
C369 C374 1.390 . S
C370 C364 1.465 1_565 S
C370 C369 1.396 . S
C370 C371 1.399 . S
C371 H357 0.929 . S
C371 C370 1.399 . S
C371 C372 1.385 . S
C372 H358 0.931 . S
C372 C371 1.385 . S
C372 C373 1.389 . S
C373 C372 1.389 . S
C373 C374 1.387 . S
C374 H359 0.930 . S
C374 C369 1.390 . S
C374 C373 1.387 . S
H375 C387 0.930 . S
H376 C389 0.930 . S
H377 C390 0.930 . S
H378 C394 0.959 . S
H379 C394 0.959 . S
H380 C394 0.961 . S
H381 C395 0.960 . S
H382 C395 0.961 . S
H383 C395 0.959 . S
H384 C398 0.929 . S
H385 C399 0.931 . S
H386 C401 0.930 . S
C387 H375 0.930 . S
C387 C388 1.399 . S
C387 C392 1.399 . S
C388 C387 1.399 . S
C388 C389 1.376 . S
C389 H376 0.930 . S
C389 C388 1.376 . S
C389 C390 1.388 . S
C390 H377 0.930 . S
C390 C389 1.388 . S
C390 C391 1.390 . S
C391 C390 1.390 . S
C391 C392 1.394 . S
C391 C397 1.465 . S
C392 C387 1.399 . S
C392 C391 1.394 . S
C392 C393 1.516 . S
C393 C392 1.516 . S
C393 C394 1.502 . S
C393 C395 1.561 . S
C393 C396 1.526 . S
C394 H378 0.959 . S
C394 H379 0.959 . S
C394 H380 0.961 . S
C394 C393 1.502 . S
C395 H381 0.960 . S
C395 H382 0.961 . S
C395 H383 0.959 . S
C395 C393 1.561 . S
C396 C393 1.526 . S
C396 C397 1.396 . S
C396 C401 1.390 . S
C397 C391 1.465 . S
C397 C396 1.396 . S
C397 C398 1.399 . S
C398 H384 0.929 . S
C398 C397 1.399 . S
C398 C399 1.385 . S
C399 H385 0.931 . S
C399 C398 1.385 . S
C399 C400 1.389 . S
C400 C399 1.389 . S
C400 C401 1.387 . S
C401 H386 0.930 . S
C401 C396 1.390 . S
C401 C400 1.387 . S
H402 C414 0.930 . S
H403 C416 0.930 . S
H404 C417 0.930 . S
H405 C421 0.956 1_455 S
H406 C421 0.959 . S
H407 C421 0.961 1_455 S
H408 C422 0.960 . S
H409 C422 0.961 . S
H410 C422 0.959 . S
H411 C425 0.929 . S
H412 C426 0.931 . S
H413 C428 0.930 . S
C414 H402 0.930 . S
C414 C415 1.399 . S
C414 C419 1.399 . S
C415 C414 1.399 . S
C415 C416 1.376 . S
C416 H403 0.930 . S
C416 C415 1.376 . S
C416 C417 1.388 . S
C417 H404 0.930 . S
C417 C416 1.388 . S
C417 C418 1.390 . S
C418 C417 1.390 . S
C418 C419 1.394 . S
C418 C424 1.465 1_455 S
C419 C414 1.399 . S
C419 C418 1.394 . S
C419 C420 1.516 1_455 S
C420 C419 1.516 1_655 S
C420 C421 1.502 . S
C420 C422 1.561 . S
C420 C423 1.526 . S
C421 H405 0.956 1_655 S
C421 H406 0.959 . S
C421 H407 0.961 1_655 S
C421 C420 1.502 . S
C422 H408 0.960 . S
C422 H409 0.961 . S
C422 H410 0.959 . S
C422 C420 1.561 . S
C423 C420 1.526 . S
C423 C424 1.396 . S
C423 C428 1.390 . S
C424 C418 1.465 1_655 S
C424 C423 1.396 . S
C424 C425 1.399 . S
C425 H411 0.929 . S
C425 C424 1.399 . S
C425 C426 1.385 . S
C426 H412 0.931 . S
C426 C425 1.385 . S
C426 C427 1.389 . S
C427 C426 1.389 . S
C427 C428 1.387 . S
C428 H413 0.930 . S
C428 C423 1.390 . S
C428 C427 1.387 . S
H429 C441 0.930 . S
H430 C443 0.930 . S
H431 C444 0.930 . S
H432 C448 0.959 . S
H433 C448 0.959 . S
H434 C448 0.961 . S
H435 C449 0.960 . S
H436 C449 0.961 . S
H437 C449 0.959 . S
H438 C452 0.929 . S
H439 C453 0.931 . S
H440 C455 0.930 . S
C441 H429 0.930 . S
C441 C442 1.399 . S
C441 C446 1.399 . S
C442 C441 1.399 . S
C442 C443 1.376 . S
C443 H430 0.930 . S
C443 C442 1.376 . S
C443 C444 1.388 . S
C444 H431 0.930 . S
C444 C443 1.388 . S
C444 C445 1.390 . S
C445 C444 1.390 . S
C445 C446 1.394 . S
C445 C451 1.465 1_565 S
C446 C441 1.399 . S
C446 C445 1.394 . S
C446 C447 1.516 . S
C447 C446 1.516 . S
C447 C448 1.502 . S
C447 C449 1.561 . S
C447 C450 1.526 1_565 S
C448 H432 0.959 . S
C448 H433 0.959 . S
C448 H434 0.961 . S
C448 C447 1.502 . S
C449 H435 0.960 . S
C449 H436 0.961 . S
C449 H437 0.959 . S
C449 C447 1.561 . S
C450 C447 1.526 1_545 S
C450 C451 1.396 . S
C450 C455 1.390 . S
C451 C445 1.465 1_545 S
C451 C450 1.396 . S
C451 C452 1.399 . S
C452 H438 0.929 . S
C452 C451 1.399 . S
C452 C453 1.385 . S
C453 H439 0.931 . S
C453 C452 1.385 . S
C453 C454 1.389 . S
C454 C453 1.389 . S
C454 C455 1.387 . S
C455 H440 0.930 . S
C455 C450 1.390 . S
C455 C454 1.387 . S
H456 C468 0.930 . S
H457 C470 0.930 . S
H458 C471 0.930 . S
H459 C475 0.959 . S
H460 C475 0.959 . S
H461 C475 0.961 . S
H462 C476 0.960 . S
H463 C476 0.961 . S
H464 C476 0.959 . S
H465 C479 0.929 . S
H466 C480 0.931 . S
H467 C482 0.930 . S
C468 H456 0.930 . S
C468 C469 1.399 . S
C468 C473 1.399 . S
C469 C468 1.399 . S
C469 C470 1.376 . S
C470 H457 0.930 . S
C470 C469 1.376 . S
C470 C471 1.388 . S
C471 H458 0.930 . S
C471 C470 1.388 . S
C471 C472 1.390 . S
C472 C471 1.390 . S
C472 C473 1.394 . S
C472 C478 1.465 . S
C473 C468 1.399 . S
C473 C472 1.394 . S
C473 C474 1.516 . S
C474 C473 1.516 . S
C474 C475 1.502 . S
C474 C476 1.561 . S
C474 C477 1.526 . S
C475 H459 0.959 . S
C475 H460 0.959 . S
C475 H461 0.961 . S
C475 C474 1.502 . S
C476 H462 0.960 . S
C476 H463 0.961 . S
C476 H464 0.959 . S
C476 C474 1.561 . S
C477 C474 1.526 . S
C477 C478 1.396 . S
C477 C482 1.390 . S
C478 C472 1.465 . S
C478 C477 1.396 . S
C478 C479 1.399 . S
C479 H465 0.929 . S
C479 C478 1.399 . S
C479 C480 1.385 . S
C480 H466 0.931 . S
C480 C479 1.385 . S
C480 C481 1.389 . S
C481 C480 1.389 . S
C481 C482 1.387 . S
C482 H467 0.930 . S
C482 C477 1.390 . S
C482 C481 1.387 . S
H483 C495 0.930 . S
H484 C497 0.930 . S
H485 C498 0.930 . S
H486 C502 0.959 . S
H487 C502 0.959 . S
H488 C502 0.961 . S
H489 C503 0.960 . S
H490 C503 0.961 . S
H491 C503 0.959 . S
H492 C506 0.929 . S
H493 C507 0.931 . S
H494 C509 0.930 . S
C495 H483 0.930 . S
C495 C496 1.399 . S
C495 C500 1.399 . S
C496 C495 1.399 . S
C496 C497 1.376 . S
C497 H484 0.930 . S
C497 C496 1.376 . S
C497 C498 1.388 . S
C498 H485 0.930 . S
C498 C497 1.388 . S
C498 C499 1.390 . S
C499 C498 1.390 . S
C499 C500 1.394 . S
C499 C505 1.465 1_655 S
C500 C495 1.399 . S
C500 C499 1.394 . S
C500 C501 1.516 . S
C501 C500 1.516 . S
C501 C502 1.502 . S
C501 C503 1.561 . S
C501 C504 1.526 1_655 S
C502 H486 0.959 . S
C502 H487 0.959 . S
C502 H488 0.961 . S
C502 C501 1.502 . S
C503 H489 0.960 . S
C503 H490 0.961 . S
C503 H491 0.959 . S
C503 C501 1.561 . S
C504 C501 1.526 1_455 S
C504 C505 1.396 . S
C504 C509 1.390 . S
C505 C499 1.465 1_455 S
C505 C504 1.396 . S
C505 C506 1.399 . S
C506 H492 0.929 . S
C506 C505 1.399 . S
C506 C507 1.385 . S
C507 H493 0.931 . S
C507 C506 1.385 . S
C507 C508 1.389 . S
C508 C507 1.389 . S
C508 C509 1.387 . S
C509 H494 0.930 . S
C509 C504 1.390 . S
C509 C508 1.387 . S
H510 C522 0.930 . S
H511 C524 0.930 . S
H512 C525 0.930 . S
H513 C529 0.959 . S
H514 C529 0.959 . S
H515 C529 0.961 . S
H516 C530 0.960 . S
H517 C530 0.961 . S
H518 C530 0.959 . S
H519 C533 0.929 1_545 S
H520 C534 0.931 . S
H521 C536 0.930 . S
C522 H510 0.930 . S
C522 C523 1.399 . S
C522 C527 1.399 . S
C523 C522 1.399 . S
C523 C524 1.376 . S
C524 H511 0.930 . S
C524 C523 1.376 . S
C524 C525 1.388 . S
C525 H512 0.930 . S
C525 C524 1.388 . S
C525 C526 1.390 . S
C526 C525 1.390 . S
C526 C527 1.394 . S
C526 C532 1.465 1_545 S
C527 C522 1.399 . S
C527 C526 1.394 . S
C527 C528 1.516 1_545 S
C528 C527 1.516 1_565 S
C528 C529 1.502 . S
C528 C530 1.561 . S
C528 C531 1.526 . S
C529 H513 0.959 . S
C529 H514 0.959 . S
C529 H515 0.961 . S
C529 C528 1.502 . S
C530 H516 0.960 . S
C530 H517 0.961 . S
C530 H518 0.959 . S
C530 C528 1.561 . S
C531 C528 1.526 . S
C531 C532 1.396 . S
C531 C536 1.390 . S
C532 C526 1.465 1_565 S
C532 C531 1.396 . S
C532 C533 1.399 . S
C533 H519 0.929 1_565 S
C533 C532 1.399 . S
C533 C534 1.385 . S
C534 H520 0.931 . S
C534 C533 1.385 . S
C534 C535 1.389 . S
C535 C534 1.389 . S
C535 C536 1.387 . S
C536 H521 0.930 . S
C536 C531 1.390 . S
C536 C535 1.387 . S
H537 C549 0.930 . S
H538 C551 0.930 . S
H539 C552 0.930 . S
H540 C556 0.959 . S
H541 C556 0.959 . S
H542 C556 0.961 . S
H543 C557 0.960 . S
H544 C557 0.961 . S
H545 C557 0.959 . S
H546 C560 0.929 . S
H547 C561 0.931 . S
H548 C563 0.930 . S
C549 H537 0.930 . S
C549 C550 1.399 . S
C549 C554 1.399 . S
C550 C549 1.399 . S
C550 C551 1.376 . S
C551 H538 0.930 . S
C551 C550 1.376 . S
C551 C552 1.388 . S
C552 H539 0.930 . S
C552 C551 1.388 . S
C552 C553 1.390 . S
C553 C552 1.390 . S
C553 C554 1.394 . S
C553 C559 1.465 . S
C554 C549 1.399 . S
C554 C553 1.394 . S
C554 C555 1.516 . S
C555 C554 1.516 . S
C555 C556 1.502 . S
C555 C557 1.561 . S
C555 C558 1.526 . S
C556 H540 0.959 . S
C556 H541 0.959 . S
C556 H542 0.961 . S
C556 C555 1.502 . S
C557 H543 0.960 . S
C557 H544 0.961 . S
C557 H545 0.959 . S
C557 C555 1.561 . S
C558 C555 1.526 . S
C558 C559 1.396 . S
C558 C563 1.390 . S
C559 C553 1.465 . S
C559 C558 1.396 . S
C559 C560 1.399 . S
C560 H546 0.929 . S
C560 C559 1.399 . S
C560 C561 1.385 . S
C561 H547 0.931 . S
C561 C560 1.385 . S
C561 C562 1.389 . S
C562 C561 1.389 . S
C562 C563 1.387 . S
C563 H548 0.930 . S
C563 C558 1.390 . S
C563 C562 1.387 . S
H564 C576 0.930 . S
H565 C578 0.930 . S
H566 C579 0.930 1_655 S
H567 C583 0.959 . S
H568 C583 0.959 . S
H569 C583 0.961 . S
H570 C584 0.960 . S
H571 C584 0.961 . S
H572 C584 0.959 . S
H573 C587 0.929 . S
H574 C588 0.931 . S
H575 C590 0.930 . S
C576 H564 0.930 . S
C576 C577 1.399 . S
C576 C581 1.399 . S
C577 C576 1.399 . S
C577 C578 1.376 . S
C578 H565 0.930 . S
C578 C577 1.376 . S
C578 C579 1.388 . S
C579 H566 0.930 1_455 S
C579 C578 1.388 . S
C579 C580 1.390 . S
C580 C579 1.390 . S
C580 C581 1.394 . S
C580 C586 1.465 1_455 S
C581 C576 1.399 . S
C581 C580 1.394 . S
C581 C582 1.516 . S
C582 C581 1.516 . S
C582 C583 1.502 . S
C582 C584 1.561 . S
C582 C585 1.526 1_455 S
C583 H567 0.959 . S
C583 H568 0.959 . S
C583 H569 0.961 . S
C583 C582 1.502 . S
C584 H570 0.960 . S
C584 H571 0.961 . S
C584 H572 0.959 . S
C584 C582 1.561 . S
C585 C582 1.526 1_655 S
C585 C586 1.396 . S
C585 C590 1.390 . S
C586 C580 1.465 1_655 S
C586 C585 1.396 . S
C586 C587 1.399 . S
C587 H573 0.929 . S
C587 C586 1.399 . S
C587 C588 1.385 . S
C588 H574 0.931 . S
C588 C587 1.385 . S
C588 C589 1.389 . S
C589 C588 1.389 . S
C589 C590 1.387 . S
C590 H575 0.930 . S
C590 C585 1.390 . S
C590 C589 1.387 . S
H591 C603 0.930 . S
H592 C605 0.930 . S
H593 C606 0.930 . S
H594 C610 0.959 . S
H595 C610 0.954 . S
H596 C610 0.961 . S
H597 C611 0.960 . S
H598 C611 0.961 . S
H599 C611 0.959 . S
H600 C614 0.929 . S
H601 C615 0.931 . S
H602 C617 0.930 . S
C603 H591 0.930 . S
C603 C604 1.399 . S
C603 C608 1.399 . S
C604 C603 1.399 . S
C604 C605 1.376 . S
C605 H592 0.930 . S
C605 C604 1.376 . S
C605 C606 1.388 . S
C606 H593 0.930 . S
C606 C605 1.388 . S
C606 C607 1.390 . S
C607 C606 1.390 . S
C607 C608 1.394 . S
C607 C613 1.465 1_545 S
C608 C603 1.399 . S
C608 C607 1.394 . S
C608 C609 1.516 1_545 S
C609 C608 1.516 1_565 S
C609 C610 1.502 1_565 S
C609 C611 1.561 . S
C609 C612 1.526 . S
C610 H594 0.959 . S
C610 H595 0.954 . S
C610 H596 0.961 . S
C610 C609 1.502 1_545 S
C611 H597 0.960 . S
C611 H598 0.961 . S
C611 H599 0.959 . S
C611 C609 1.561 . S
C612 C609 1.526 . S
C612 C613 1.396 . S
C612 C617 1.390 . S
C613 C607 1.465 1_565 S
C613 C612 1.396 . S
C613 C614 1.399 . S
C614 H600 0.929 . S
C614 C613 1.399 . S
C614 C615 1.385 . S
C615 H601 0.931 . S
C615 C614 1.385 . S
C615 C616 1.389 . S
C616 C615 1.389 . S
C616 C617 1.387 . S
C617 H602 0.930 . S
C617 C612 1.390 . S
C617 C616 1.387 . S
H618 C630 0.930 . S
H619 C632 0.930 . S
H620 C633 0.930 . S
H621 C637 0.959 . S
H622 C637 0.959 . S
H623 C637 0.961 . S
H624 C638 0.960 . S
H625 C638 0.961 . S
H626 C638 0.959 . S
H627 C641 0.929 . S
H628 C642 0.931 . S
H629 C644 0.930 . S
C630 H618 0.930 . S
C630 C631 1.399 . S
C630 C635 1.399 . S
C631 C630 1.399 . S
C631 C632 1.376 . S
C632 H619 0.930 . S
C632 C631 1.376 . S
C632 C633 1.388 . S
C633 H620 0.930 . S
C633 C632 1.388 . S
C633 C634 1.390 . S
C634 C633 1.390 . S
C634 C635 1.394 . S
C634 C640 1.465 . S
C635 C630 1.399 . S
C635 C634 1.394 . S
C635 C636 1.516 . S
C636 C635 1.516 . S
C636 C637 1.502 . S
C636 C638 1.561 . S
C636 C639 1.526 . S
C637 H621 0.959 . S
C637 H622 0.959 . S
C637 H623 0.961 . S
C637 C636 1.502 . S
C638 H624 0.960 . S
C638 H625 0.961 . S
C638 H626 0.959 . S
C638 C636 1.561 . S
C639 C636 1.526 . S
C639 C640 1.396 . S
C639 C644 1.390 . S
C640 C634 1.465 . S
C640 C639 1.396 . S
C640 C641 1.399 . S
C641 H627 0.929 . S
C641 C640 1.399 . S
C641 C642 1.385 . S
C642 H628 0.931 . S
C642 C641 1.385 . S
C642 C643 1.389 . S
C643 C642 1.389 . S
C643 C644 1.387 . S
C644 H629 0.930 . S
C644 C639 1.390 . S
C644 C643 1.387 . S
H645 C657 0.930 . S
H646 C659 0.930 . S
H647 C660 0.930 . S
H648 C664 0.959 . S
H649 C664 0.959 . S
H650 C664 0.961 . S
H651 C665 0.960 . S
H652 C665 0.961 . S
H653 C665 0.959 . S
H654 C668 0.929 1_455 S
H655 C669 0.931 . S
H656 C671 0.930 . S
C657 H645 0.930 . S
C657 C658 1.399 . S
C657 C662 1.399 . S
C658 C657 1.399 . S
C658 C659 1.376 . S
C659 H646 0.930 . S
C659 C658 1.376 . S
C659 C660 1.388 . S
C660 H647 0.930 . S
C660 C659 1.388 . S
C660 C661 1.390 . S
C661 C660 1.390 . S
C661 C662 1.394 . S
C661 C667 1.465 1_455 S
C662 C657 1.399 . S
C662 C661 1.394 . S
C662 C663 1.516 1_455 S
C663 C662 1.516 1_655 S
C663 C664 1.502 . S
C663 C665 1.561 . S
C663 C666 1.526 . S
C664 H648 0.959 . S
C664 H649 0.959 . S
C664 H650 0.961 . S
C664 C663 1.502 . S
C665 H651 0.960 . S
C665 H652 0.961 . S
C665 H653 0.959 . S
C665 C663 1.561 . S
C666 C663 1.526 . S
C666 C667 1.396 . S
C666 C671 1.390 . S
C667 C661 1.465 1_655 S
C667 C666 1.396 . S
C667 C668 1.399 . S
C668 H654 0.929 1_655 S
C668 C667 1.399 . S
C668 C669 1.385 . S
C669 H655 0.931 . S
C669 C668 1.385 . S
C669 C670 1.389 . S
C670 C669 1.389 . S
C670 C671 1.387 . S
C671 H656 0.930 . S
C671 C666 1.390 . S
C671 C670 1.387 . S
H672 C684 0.930 . S
H673 C686 0.930 . S
H674 C687 0.930 . S
H675 C691 0.959 . S
H676 C691 0.959 . S
H677 C691 0.961 . S
H678 C692 0.960 . S
H679 C692 0.961 1_545 S
H680 C692 0.959 . S
H681 C695 0.929 . S
H682 C696 0.931 . S
H683 C698 0.930 . S
C684 H672 0.930 . S
C684 C685 1.387 1_556 S
C684 C689 1.399 . S
C685 C684 1.387 1_554 S
C685 C686 1.391 . S
C686 H673 0.930 . S
C686 C685 1.391 . S
C686 C687 1.388 . S
C687 H674 0.930 . S
C687 C686 1.388 . S
C687 C688 1.390 . S
C688 C687 1.390 . S
C688 C689 1.394 1_554 S
C688 C694 1.465 1_565 S
C689 C684 1.399 . S
C689 C688 1.394 1_556 S
C689 C690 1.516 1_565 S
C690 C689 1.516 1_545 S
C690 C691 1.502 . S
C690 C692 1.561 1_545 S
C690 C693 1.526 . S
C691 H675 0.959 . S
C691 H676 0.959 . S
C691 H677 0.961 . S
C691 C690 1.502 . S
C692 H678 0.960 . S
C692 H679 0.961 1_565 S
C692 H680 0.959 . S
C692 C690 1.561 1_565 S
C693 C690 1.526 . S
C693 C694 1.396 1_556 S
C693 C698 1.390 . S
C694 C688 1.465 1_545 S
C694 C693 1.396 1_554 S
C694 C695 1.399 . S
C695 H681 0.929 . S
C695 C694 1.399 . S
C695 C696 1.385 . S
C696 H682 0.931 . S
C696 C695 1.385 . S
C696 C697 1.389 . S
C697 C696 1.389 . S
C697 C698 1.387 1_554 S
C698 H683 0.930 . S
C698 C693 1.390 . S
C698 C697 1.387 1_556 S
H699 C711 0.930 . S
H700 C713 0.930 . S
H701 C714 0.930 . S
H702 C718 0.959 . S
H703 C718 0.959 . S
H704 C718 0.961 . S
H705 C719 0.960 . S
H706 C719 0.961 . S
H707 C719 0.959 . S
H708 C722 0.929 . S
H709 C723 0.931 . S
H710 C725 0.930 . S
C711 H699 0.930 . S
C711 C712 1.399 1_556 S
C711 C716 1.399 . S
C712 C711 1.399 1_554 S
C712 C713 1.376 . S
C713 H700 0.930 . S
C713 C712 1.376 . S
C713 C714 1.388 . S
C714 H701 0.930 . S
C714 C713 1.388 . S
C714 C715 1.390 . S
C715 C714 1.390 . S
C715 C716 1.394 1_554 S
C715 C721 1.465 . S
C716 C711 1.399 . S
C716 C715 1.394 1_556 S
C716 C717 1.516 . S
C717 C716 1.516 . S
C717 C718 1.502 . S
C717 C719 1.561 . S
C717 C720 1.526 . S
C718 H702 0.959 . S
C718 H703 0.959 . S
C718 H704 0.961 . S
C718 C717 1.502 . S
C719 H705 0.960 . S
C719 H706 0.961 . S
C719 H707 0.959 . S
C719 C717 1.561 . S
C720 C717 1.526 . S
C720 C721 1.396 1_556 S
C720 C725 1.390 . S
C721 C715 1.465 . S
C721 C720 1.396 1_554 S
C721 C722 1.399 . S
C722 H708 0.929 . S
C722 C721 1.399 . S
C722 C723 1.385 . S
C723 H709 0.931 . S
C723 C722 1.385 . S
C723 C724 1.389 . S
C724 C723 1.389 . S
C724 C725 1.387 1_554 S
C725 H710 0.930 . S
C725 C720 1.390 . S
C725 C724 1.387 1_556 S
H726 C738 0.930 . S
H727 C740 0.930 . S
H728 C741 0.930 . S
H729 C745 0.959 . S
H730 C745 0.959 . S
H731 C745 0.961 . S
H732 C746 0.960 . S
H733 C746 0.961 1_655 S
H734 C746 0.959 . S
H735 C749 0.939 . S
H736 C750 0.931 . S
H737 C752 0.930 . S
C738 H726 0.930 . S
C738 C739 1.398 1_556 S
C738 C743 1.399 . S
C739 C738 1.398 1_554 S
C739 C740 1.378 . S
C740 H727 0.930 . S
C740 C739 1.378 . S
C740 C741 1.388 . S
C741 H728 0.930 . S
C741 C740 1.388 . S
C741 C742 1.390 . S
C742 C741 1.390 . S
C742 C743 1.394 1_554 S
C742 C748 1.465 1_455 S
C743 C738 1.399 . S
C743 C742 1.394 1_556 S
C743 C744 1.516 1_455 S
C744 C743 1.516 1_655 S
C744 C745 1.502 . S
C744 C746 1.561 1_655 S
C744 C747 1.526 . S
C745 H729 0.959 . S
C745 H730 0.959 . S
C745 H731 0.961 . S
C745 C744 1.502 . S
C746 H732 0.960 . S
C746 H733 0.961 1_455 S
C746 H734 0.959 . S
C746 C744 1.561 1_455 S
C747 C744 1.526 . S
C747 C748 1.396 1_556 S
C747 C752 1.390 . S
C748 C742 1.465 1_655 S
C748 C747 1.396 1_554 S
C748 C749 1.399 . S
C749 H735 0.939 . S
C749 C748 1.399 . S
C749 C750 1.385 . S
C750 H736 0.931 . S
C750 C749 1.385 . S
C750 C751 1.389 . S
C751 C750 1.389 . S
C751 C752 1.387 1_554 S
C752 H737 0.930 . S
C752 C747 1.390 . S
C752 C751 1.387 1_556 S
H753 C765 0.930 . S
H754 C767 0.930 . S
H755 C768 0.930 . S
H756 C772 0.959 . S
H757 C772 0.959 . S
H758 C772 0.961 . S
H759 C773 0.960 . S
H760 C773 0.961 . S
H761 C773 0.959 . S
H762 C776 0.906 1_655 S
H763 C777 0.931 . S
H764 C779 0.930 . S
C765 H753 0.930 . S
C765 C766 1.399 . S
C765 C770 1.399 . S
C766 C765 1.399 . S
C766 C767 1.376 . S
C767 H754 0.930 . S
C767 C766 1.376 . S
C767 C768 1.388 . S
C768 H755 0.930 . S
C768 C767 1.388 . S
C768 C769 1.390 . S
C769 C768 1.390 . S
C769 C770 1.394 . S
C769 C775 1.465 1_655 S
C770 C765 1.399 . S
C770 C769 1.394 . S
C770 C771 1.516 1_655 S
C771 C770 1.516 1_455 S
C771 C772 1.502 . S
C771 C773 1.561 . S
C771 C774 1.526 . S
C772 H756 0.959 . S
C772 H757 0.959 . S
C772 H758 0.961 . S
C772 C771 1.502 . S
C773 H759 0.960 . S
C773 H760 0.961 . S
C773 H761 0.959 . S
C773 C771 1.561 . S
C774 C771 1.526 . S
C774 C775 1.396 . S
C774 C779 1.390 . S
C775 C769 1.465 1_455 S
C775 C774 1.396 . S
C775 C776 1.379 . S
C776 H762 0.906 1_455 S
C776 C775 1.379 . S
C776 C777 1.431 . S
C777 H763 0.931 . S
C777 C776 1.431 . S
C777 C778 1.389 . S
C778 C777 1.389 . S
C778 C779 1.387 . S
C779 H764 0.930 . S
C779 C774 1.390 . S
C779 C778 1.387 . S
H780 C792 0.930 . S
H781 C794 0.930 . S
H782 C795 0.930 1_545 S
H783 C799 0.959 . S
H784 C799 0.959 . S
H785 C799 0.961 . S
H786 C800 0.960 . S
H787 C800 0.961 . S
H788 C800 0.959 . S
H789 C803 0.929 . S
H790 C804 0.931 . S
H791 C806 0.930 . S
C792 H780 0.930 . S
C792 C793 1.399 . S
C792 C797 1.399 . S
C793 C792 1.399 . S
C793 C794 1.376 . S
C794 H781 0.930 . S
C794 C793 1.376 . S
C794 C795 1.388 . S
C795 H782 0.930 1_565 S
C795 C794 1.388 . S
C795 C796 1.390 . S
C796 C795 1.390 . S
C796 C797 1.394 . S
C796 C802 1.465 1_565 S
C797 C792 1.399 . S
C797 C796 1.394 . S
C797 C798 1.516 . S
C798 C797 1.516 . S
C798 C799 1.502 . S
C798 C800 1.561 . S
C798 C801 1.526 1_565 S
C799 H783 0.959 . S
C799 H784 0.959 . S
C799 H785 0.961 . S
C799 C798 1.502 . S
C800 H786 0.960 . S
C800 H787 0.961 . S
C800 H788 0.959 . S
C800 C798 1.561 . S
C801 C798 1.526 1_545 S
C801 C802 1.396 . S
C801 C806 1.390 . S
C802 C796 1.465 1_545 S
C802 C801 1.396 . S
C802 C803 1.399 . S
C803 H789 0.929 . S
C803 C802 1.399 . S
C803 C804 1.385 . S
C804 H790 0.931 . S
C804 C803 1.385 . S
C804 C805 1.389 . S
C805 C804 1.389 . S
C805 C806 1.387 . S
C806 H791 0.930 . S
C806 C801 1.390 . S
C806 C805 1.387 . S
H807 C819 0.930 . S
H808 C821 0.930 . S
H809 C822 0.930 . S
H810 C826 0.959 . S
H811 C826 0.959 . S
H812 C826 0.961 . S
H813 C827 0.960 . S
H814 C827 0.961 . S
H815 C827 0.959 . S
H816 C830 0.929 . S
H817 C831 0.931 . S
H818 C833 0.930 . S
C819 H807 0.930 . S
C819 C820 1.399 . S
C819 C824 1.399 . S
C820 C819 1.399 . S
C820 C821 1.376 . S
C821 H808 0.930 . S
C821 C820 1.376 . S
C821 C822 1.388 . S
C822 H809 0.930 . S
C822 C821 1.388 . S
C822 C823 1.390 . S
C823 C822 1.390 . S
C823 C824 1.394 . S
C823 C829 1.465 . S
C824 C819 1.399 . S
C824 C823 1.394 . S
C824 C825 1.516 . S
C825 C824 1.516 . S
C825 C826 1.502 . S
C825 C827 1.561 . S
C825 C828 1.526 . S
C826 H810 0.959 . S
C826 H811 0.959 . S
C826 H812 0.961 . S
C826 C825 1.502 . S
C827 H813 0.960 . S
C827 H814 0.961 . S
C827 H815 0.959 . S
C827 C825 1.561 . S
C828 C825 1.526 . S
C828 C829 1.396 . S
C828 C833 1.390 . S
C829 C823 1.465 . S
C829 C828 1.396 . S
C829 C830 1.399 . S
C830 H816 0.929 . S
C830 C829 1.399 . S
C830 C831 1.385 . S
C831 H817 0.931 . S
C831 C830 1.385 . S
C831 C832 1.389 . S
C832 C831 1.389 . S
C832 C833 1.387 . S
C833 H818 0.930 . S
C833 C828 1.390 . S
C833 C832 1.387 . S
H834 C846 0.930 . S
H835 C848 0.930 . S
H836 C849 0.930 . S
H837 C853 0.959 . S
H838 C853 0.959 . S
H839 C853 0.961 . S
H840 C854 0.960 . S
H841 C854 0.961 . S
H842 C854 0.959 . S
H843 C857 0.929 . S
H844 C858 0.931 . S
H845 C860 0.930 . S
C846 H834 0.930 . S
C846 C847 1.399 . S
C846 C851 1.399 . S
C847 C846 1.399 . S
C847 C848 1.376 . S
C848 H835 0.930 . S
C848 C847 1.376 . S
C848 C849 1.388 . S
C849 H836 0.930 . S
C849 C848 1.388 . S
C849 C850 1.390 . S
C850 C849 1.390 . S
C850 C851 1.394 . S
C850 C856 1.465 . S
C851 C846 1.399 . S
C851 C850 1.394 . S
C851 C852 1.516 . S
C852 C851 1.516 . S
C852 C853 1.502 . S
C852 C854 1.561 . S
C852 C855 1.526 . S
C853 H837 0.959 . S
C853 H838 0.959 . S
C853 H839 0.961 . S
C853 C852 1.502 . S
C854 H840 0.960 . S
C854 H841 0.961 . S
C854 H842 0.959 . S
C854 C852 1.561 . S
C855 C852 1.526 . S
C855 C856 1.396 . S
C855 C860 1.390 . S
C856 C850 1.465 . S
C856 C855 1.396 . S
C856 C857 1.399 . S
C857 H843 0.929 . S
C857 C856 1.399 . S
C857 C858 1.385 . S
C858 H844 0.931 . S
C858 C857 1.385 . S
C858 C859 1.389 . S
C859 C858 1.389 . S
C859 C860 1.387 . S
C860 H845 0.930 . S
C860 C855 1.390 . S
C860 C859 1.387 . S
H861 C873 0.930 . S
H862 C875 0.930 . S
H863 C876 0.930 . S
H864 C880 0.959 . S
H865 C880 0.959 . S
H866 C880 0.961 . S
H867 C881 0.960 . S
H868 C881 0.961 . S
H869 C881 0.959 . S
H870 C884 0.929 . S
H871 C885 0.931 . S
H872 C887 0.930 . S
C873 H861 0.930 . S
C873 C874 1.399 . S
C873 C878 1.399 . S
C874 C873 1.399 . S
C874 C875 1.376 . S
C875 H862 0.930 . S
C875 C874 1.376 . S
C875 C876 1.388 . S
C876 H863 0.930 . S
C876 C875 1.388 . S
C876 C877 1.390 . S
C877 C876 1.390 . S
C877 C878 1.394 . S
C877 C883 1.465 . S
C878 C873 1.399 . S
C878 C877 1.394 . S
C878 C879 1.516 . S
C879 C878 1.516 . S
C879 C880 1.502 . S
C879 C881 1.561 . S
C879 C882 1.526 . S
C880 H864 0.959 . S
C880 H865 0.959 . S
C880 H866 0.961 . S
C880 C879 1.502 . S
C881 H867 0.960 . S
C881 H868 0.961 . S
C881 H869 0.959 . S
C881 C879 1.561 . S
C882 C879 1.526 . S
C882 C883 1.396 . S
C882 C887 1.390 . S
C883 C877 1.465 . S
C883 C882 1.396 . S
C883 C884 1.399 . S
C884 H870 0.929 . S
C884 C883 1.399 . S
C884 C885 1.385 . S
C885 H871 0.931 . S
C885 C884 1.385 . S
C885 C886 1.389 . S
C886 C885 1.389 . S
C886 C887 1.387 . S
C887 H872 0.930 . S
C887 C882 1.390 . S
C887 C886 1.387 . S
H888 C900 0.930 . S
H889 C902 0.930 . S
H890 C903 0.930 . S
H891 C907 0.959 . S
H892 C907 0.959 . S
H893 C907 0.961 . S
H894 C908 0.960 . S
H895 C908 0.961 . S
H896 C908 0.959 . S
H897 C911 0.929 . S
H898 C912 0.931 . S
H899 C914 0.930 . S
C900 H888 0.930 . S
C900 C901 1.399 . S
C900 C905 1.399 . S
C901 C900 1.399 . S
C901 C902 1.376 . S
C902 H889 0.930 . S
C902 C901 1.376 . S
C902 C903 1.388 . S
C903 H890 0.930 . S
C903 C902 1.388 . S
C903 C904 1.390 . S
C904 C903 1.390 . S
C904 C905 1.394 . S
C904 C910 1.465 . S
C905 C900 1.399 . S
C905 C904 1.394 . S
C905 C906 1.516 . S
C906 C905 1.516 . S
C906 C907 1.502 . S
C906 C908 1.561 . S
C906 C909 1.526 . S
C907 H891 0.959 . S
C907 H892 0.959 . S
C907 H893 0.961 . S
C907 C906 1.502 . S
C908 H894 0.960 . S
C908 H895 0.961 . S
C908 H896 0.959 . S
C908 C906 1.561 . S
C909 C906 1.526 . S
C909 C910 1.396 . S
C909 C914 1.390 . S
C910 C904 1.465 . S
C910 C909 1.396 . S
C910 C911 1.399 . S
C911 H897 0.929 . S
C911 C910 1.399 . S
C911 C912 1.385 . S
C912 H898 0.931 . S
C912 C911 1.385 . S
C912 C913 1.389 . S
C913 C912 1.389 . S
C913 C914 1.387 . S
C914 H899 0.930 . S
C914 C909 1.390 . S
C914 C913 1.387 . S
H915 C927 0.930 . S
H916 C929 0.930 . S
H917 C930 0.930 . S
H918 C934 0.959 . S
H919 C934 0.959 . S
H920 C934 0.961 . S
H921 C935 0.960 . S
H922 C935 0.961 . S
H923 C935 0.959 . S
H924 C938 0.929 . S
H925 C939 0.931 . S
H926 C941 0.930 . S
C927 H915 0.930 . S
C927 C928 1.399 . S
C927 C932 1.399 . S
C928 C927 1.399 . S
C928 C929 1.376 . S
C929 H916 0.930 . S
C929 C928 1.376 . S
C929 C930 1.388 . S
C930 H917 0.930 . S
C930 C929 1.388 . S
C930 C931 1.390 . S
C931 C930 1.390 . S
C931 C932 1.394 . S
C931 C937 1.465 . S
C932 C927 1.399 . S
C932 C931 1.394 . S
C932 C933 1.516 . S
C933 C932 1.516 . S
C933 C934 1.502 . S
C933 C935 1.561 . S
C933 C936 1.526 . S
C934 H918 0.959 . S
C934 H919 0.959 . S
C934 H920 0.961 . S
C934 C933 1.502 . S
C935 H921 0.960 . S
C935 H922 0.961 . S
C935 H923 0.959 . S
C935 C933 1.561 . S
C936 C933 1.526 . S
C936 C937 1.396 . S
C936 C941 1.390 . S
C937 C931 1.465 . S
C937 C936 1.396 . S
C937 C938 1.399 . S
C938 H924 0.929 . S
C938 C937 1.399 . S
C938 C939 1.385 . S
C939 H925 0.931 . S
C939 C938 1.385 . S
C939 C940 1.389 . S
C940 C939 1.389 . S
C940 C941 1.387 . S
C941 H926 0.930 . S
C941 C936 1.390 . S
C941 C940 1.387 . S
H942 C954 0.930 . S
H943 C956 0.930 . S
H944 C957 0.930 . S
H945 C961 0.959 . S
H946 C961 0.959 . S
H947 C961 0.961 . S
H948 C962 0.960 . S
H949 C962 0.961 . S
H950 C962 0.959 . S
H951 C965 0.929 . S
H952 C966 0.931 . S
H953 C968 0.930 . S
C954 H942 0.930 . S
C954 C955 1.399 . S
C954 C959 1.399 . S
C955 C954 1.399 . S
C955 C956 1.376 . S
C956 H943 0.930 . S
C956 C955 1.376 . S
C956 C957 1.388 . S
C957 H944 0.930 . S
C957 C956 1.388 . S
C957 C958 1.390 . S
C958 C957 1.390 . S
C958 C959 1.394 . S
C958 C964 1.465 . S
C959 C954 1.399 . S
C959 C958 1.394 . S
C959 C960 1.516 . S
C960 C959 1.516 . S
C960 C961 1.502 . S
C960 C962 1.561 . S
C960 C963 1.526 . S
C961 H945 0.959 . S
C961 H946 0.959 . S
C961 H947 0.961 . S
C961 C960 1.502 . S
C962 H948 0.960 . S
C962 H949 0.961 . S
C962 H950 0.959 . S
C962 C960 1.561 . S
C963 C960 1.526 . S
C963 C964 1.396 . S
C963 C968 1.390 . S
C964 C958 1.465 . S
C964 C963 1.396 . S
C964 C965 1.399 . S
C965 H951 0.929 . S
C965 C964 1.399 . S
C965 C966 1.385 . S
C966 H952 0.931 . S
C966 C965 1.385 . S
C966 C967 1.389 . S
C967 C966 1.389 . S
C967 C968 1.387 . S
C968 H953 0.930 . S
C968 C963 1.390 . S
C968 C967 1.387 . S
H969 C981 0.930 . S
H970 C983 0.930 . S
H971 C984 0.930 . S
H972 C988 0.959 . S
H973 C988 0.959 . S
H974 C988 0.961 . S
H975 C989 0.960 . S
H976 C989 0.961 . S
H977 C989 0.959 . S
H978 C992 0.929 . S
H979 C993 0.931 . S
H980 C995 0.930 . S
C981 H969 0.930 . S
C981 C982 1.399 . S
C981 C986 1.399 . S
C982 C981 1.399 . S
C982 C983 1.376 . S
C983 H970 0.930 . S
C983 C982 1.376 . S
C983 C984 1.388 . S
C984 H971 0.930 . S
C984 C983 1.388 . S
C984 C985 1.390 . S
C985 C984 1.390 . S
C985 C986 1.394 . S
C985 C991 1.465 . S
C986 C981 1.399 . S
C986 C985 1.394 . S
C986 C987 1.516 . S
C987 C986 1.516 . S
C987 C988 1.502 . S
C987 C989 1.561 . S
C987 C990 1.526 . S
C988 H972 0.959 . S
C988 H973 0.959 . S
C988 H974 0.961 . S
C988 C987 1.502 . S
C989 H975 0.960 . S
C989 H976 0.961 . S
C989 H977 0.959 . S
C989 C987 1.561 . S
C990 C987 1.526 . S
C990 C991 1.396 . S
C990 C995 1.390 . S
C991 C985 1.465 . S
C991 C990 1.396 . S
C991 C992 1.399 . S
C992 H978 0.929 . S
C992 C991 1.399 . S
C992 C993 1.385 . S
C993 H979 0.931 . S
C993 C992 1.385 . S
C993 C994 1.389 . S
C994 C993 1.389 . S
C994 C995 1.387 . S
C995 H980 0.930 . S
C995 C990 1.390 . S
C995 C994 1.387 . S
H996 C1008 0.930 . S
H997 C1010 0.930 . S
H998 C1011 0.930 . S
H999 C1015 0.959 . S
H1000 C1015 0.959 . S
H1001 C1015 0.961 . S
H1002 C1016 0.960 . S
H1003 C1016 0.961 . S
H1004 C1016 0.959 . S
H1005 C1019 0.929 . S
H1006 C1020 0.931 . S
H1007 C1022 0.930 . S
C1008 H996 0.930 . S
C1008 C1009 1.399 . S
C1008 C1013 1.399 . S
C1009 C1008 1.399 . S
C1009 C1010 1.376 . S
C1010 H997 0.930 . S
C1010 C1009 1.376 . S
C1010 C1011 1.388 . S
C1011 H998 0.930 . S
C1011 C1010 1.388 . S
C1011 C1012 1.390 . S
C1012 C1011 1.390 . S
C1012 C1013 1.394 . S
C1012 C1018 1.465 . S
C1013 C1008 1.399 . S
C1013 C1012 1.394 . S
C1013 C1014 1.516 . S
C1014 C1013 1.516 . S
C1014 C1015 1.502 . S
C1014 C1016 1.561 . S
C1014 C1017 1.526 . S
C1015 H999 0.959 . S
C1015 H1000 0.959 . S
C1015 H1001 0.961 . S
C1015 C1014 1.502 . S
C1016 H1002 0.960 . S
C1016 H1003 0.961 . S
C1016 H1004 0.959 . S
C1016 C1014 1.561 . S
C1017 C1014 1.526 . S
C1017 C1018 1.396 . S
C1017 C1022 1.390 . S
C1018 C1012 1.465 . S
C1018 C1017 1.396 . S
C1018 C1019 1.399 . S
C1019 H1005 0.929 . S
C1019 C1018 1.399 . S
C1019 C1020 1.385 . S
C1020 H1006 0.931 . S
C1020 C1019 1.385 . S
C1020 C1021 1.389 . S
C1021 C1020 1.389 . S
C1021 C1022 1.387 . S
C1022 H1007 0.930 . S
C1022 C1017 1.390 . S
C1022 C1021 1.387 . S
H1023 C1035 0.930 . S
H1024 C1037 0.930 . S
H1025 C1038 0.930 . S
H1026 C1042 0.959 . S
H1027 C1042 0.959 . S
H1028 C1042 0.961 . S
H1029 C1043 0.960 . S
H1030 C1043 0.961 . S
H1031 C1043 0.959 . S
H1032 C1046 0.929 . S
H1033 C1047 0.931 . S
H1034 C1049 0.930 . S
C1035 H1023 0.930 . S
C1035 C1036 1.399 . S
C1035 C1040 1.399 . S
C1036 C1035 1.399 . S
C1036 C1037 1.376 . S
C1037 H1024 0.930 . S
C1037 C1036 1.376 . S
C1037 C1038 1.388 . S
C1038 H1025 0.930 . S
C1038 C1037 1.388 . S
C1038 C1039 1.390 . S
C1039 C1038 1.390 . S
C1039 C1040 1.394 . S
C1039 C1045 1.465 . S
C1040 C1035 1.399 . S
C1040 C1039 1.394 . S
C1040 C1041 1.516 . S
C1041 C1040 1.516 . S
C1041 C1042 1.502 . S
C1041 C1043 1.561 . S
C1041 C1044 1.526 . S
C1042 H1026 0.959 . S
C1042 H1027 0.959 . S
C1042 H1028 0.961 . S
C1042 C1041 1.502 . S
C1043 H1029 0.960 . S
C1043 H1030 0.961 . S
C1043 H1031 0.959 . S
C1043 C1041 1.561 . S
C1044 C1041 1.526 . S
C1044 C1045 1.396 . S
C1044 C1049 1.390 . S
C1045 C1039 1.465 . S
C1045 C1044 1.396 . S
C1045 C1046 1.399 . S
C1046 H1032 0.929 . S
C1046 C1045 1.399 . S
C1046 C1047 1.385 . S
C1047 H1033 0.931 . S
C1047 C1046 1.385 . S
C1047 C1048 1.389 . S
C1048 C1047 1.389 . S
C1048 C1049 1.387 . S
C1049 H1034 0.930 . S
C1049 C1044 1.390 . S
C1049 C1048 1.387 . S
H1050 C1062 0.930 . S
H1051 C1064 0.930 . S
H1052 C1065 0.930 . S
H1053 C1069 0.959 . S
H1054 C1069 0.959 . S
H1055 C1069 0.961 . S
H1056 C1070 0.960 . S
H1057 C1070 0.961 . S
H1058 C1070 0.959 . S
H1059 C1073 0.929 . S
H1060 C1074 0.931 . S
H1061 C1076 0.930 . S
C1062 H1050 0.930 . S
C1062 C1063 1.399 . S
C1062 C1067 1.399 . S
C1063 C1062 1.399 . S
C1063 C1064 1.376 . S
C1064 H1051 0.930 . S
C1064 C1063 1.376 . S
C1064 C1065 1.388 . S
C1065 H1052 0.930 . S
C1065 C1064 1.388 . S
C1065 C1066 1.390 . S
C1066 C1065 1.390 . S
C1066 C1067 1.394 . S
C1066 C1072 1.465 . S
C1067 C1062 1.399 . S
C1067 C1066 1.394 . S
C1067 C1068 1.516 . S
C1068 C1067 1.516 . S
C1068 C1069 1.502 . S
C1068 C1070 1.561 . S
C1068 C1071 1.526 . S
C1069 H1053 0.959 . S
C1069 H1054 0.959 . S
C1069 H1055 0.961 . S
C1069 C1068 1.502 . S
C1070 H1056 0.960 . S
C1070 H1057 0.961 . S
C1070 H1058 0.959 . S
C1070 C1068 1.561 . S
C1071 C1068 1.526 . S
C1071 C1072 1.396 . S
C1071 C1076 1.390 . S
C1072 C1066 1.465 . S
C1072 C1071 1.396 . S
C1072 C1073 1.399 . S
C1073 H1059 0.929 . S
C1073 C1072 1.399 . S
C1073 C1074 1.385 . S
C1074 H1060 0.931 . S
C1074 C1073 1.385 . S
C1074 C1075 1.389 . S
C1075 C1074 1.389 . S
C1075 C1076 1.387 . S
C1076 H1061 0.930 . S
C1076 C1071 1.390 . S
C1076 C1075 1.387 . S
H1077 C1089 0.930 . S
H1078 C1091 0.930 . S
H1079 C1092 0.930 . S
H1080 C1096 0.959 . S
H1081 C1096 0.959 . S
H1082 C1096 0.961 . S
H1083 C1097 0.960 . S
H1084 C1097 0.961 . S
H1085 C1097 0.959 . S
H1086 C1100 0.929 . S
H1087 C1101 0.931 . S
H1088 C1103 0.930 . S
C1089 H1077 0.930 . S
C1089 C1090 1.399 . S
C1089 C1094 1.399 . S
C1090 C1089 1.399 . S
C1090 C1091 1.376 . S
C1091 H1078 0.930 . S
C1091 C1090 1.376 . S
C1091 C1092 1.388 . S
C1092 H1079 0.930 . S
C1092 C1091 1.388 . S
C1092 C1093 1.390 . S
C1093 C1092 1.390 . S
C1093 C1094 1.394 . S
C1093 C1099 1.465 . S
C1094 C1089 1.399 . S
C1094 C1093 1.394 . S
C1094 C1095 1.516 . S
C1095 C1094 1.516 . S
C1095 C1096 1.502 . S
C1095 C1097 1.561 . S
C1095 C1098 1.526 . S
C1096 H1080 0.959 . S
C1096 H1081 0.959 . S
C1096 H1082 0.961 . S
C1096 C1095 1.502 . S
C1097 H1083 0.960 . S
C1097 H1084 0.961 . S
C1097 H1085 0.959 . S
C1097 C1095 1.561 . S
C1098 C1095 1.526 . S
C1098 C1099 1.396 . S
C1098 C1103 1.390 . S
C1099 C1093 1.465 . S
C1099 C1098 1.396 . S
C1099 C1100 1.399 . S
C1100 H1086 0.929 . S
C1100 C1099 1.399 . S
C1100 C1101 1.385 . S
C1101 H1087 0.931 . S
C1101 C1100 1.385 . S
C1101 C1102 1.389 . S
C1102 C1101 1.389 . S
C1102 C1103 1.387 . S
C1103 H1088 0.930 . S
C1103 C1098 1.390 . S
C1103 C1102 1.387 . S
H1104 C1116 0.930 . S
H1105 C1118 0.930 . S
H1106 C1119 0.930 . S
H1107 C1123 0.959 . S
H1108 C1123 0.959 . S
H1109 C1123 0.961 . S
H1110 C1124 0.960 . S
H1111 C1124 0.961 . S
H1112 C1124 0.959 . S
H1113 C1127 0.929 . S
H1114 C1128 0.931 . S
H1115 C1130 0.930 . S
C1116 H1104 0.930 . S
C1116 C1117 1.399 . S
C1116 C1121 1.399 . S
C1117 C1116 1.399 . S
C1117 C1118 1.376 . S
C1118 H1105 0.930 . S
C1118 C1117 1.376 . S
C1118 C1119 1.388 . S
C1119 H1106 0.930 . S
C1119 C1118 1.388 . S
C1119 C1120 1.390 . S
C1120 C1119 1.390 . S
C1120 C1121 1.394 . S
C1120 C1126 1.465 . S
C1121 C1116 1.399 . S
C1121 C1120 1.394 . S
C1121 C1122 1.516 . S
C1122 C1121 1.516 . S
C1122 C1123 1.502 . S
C1122 C1124 1.561 . S
C1122 C1125 1.526 . S
C1123 H1107 0.959 . S
C1123 H1108 0.959 . S
C1123 H1109 0.961 . S
C1123 C1122 1.502 . S
C1124 H1110 0.960 . S
C1124 H1111 0.961 . S
C1124 H1112 0.959 . S
C1124 C1122 1.561 . S
C1125 C1122 1.526 . S
C1125 C1126 1.396 . S
C1125 C1130 1.390 . S
C1126 C1120 1.465 . S
C1126 C1125 1.396 . S
C1126 C1127 1.399 . S
C1127 H1113 0.929 . S
C1127 C1126 1.399 . S
C1127 C1128 1.385 . S
C1128 H1114 0.931 . S
C1128 C1127 1.385 . S
C1128 C1129 1.389 . S
C1129 C1128 1.389 . S
C1129 C1130 1.387 . S
C1130 H1115 0.930 . S
C1130 C1125 1.390 . S
C1130 C1129 1.387 . S
H1131 C1143 0.930 . S
H1132 C1145 0.930 . S
H1133 C1146 0.930 . S
H1134 C1150 0.959 . S
H1135 C1150 0.959 . S
H1136 C1150 0.961 . S
H1137 C1151 0.960 . S
H1138 C1151 0.961 . S
H1139 C1151 0.959 . S
H1140 C1154 0.929 . S
H1141 C1155 0.931 . S
H1142 C1157 0.930 . S
C1143 H1131 0.930 . S
C1143 C1144 1.399 . S
C1143 C1148 1.399 . S
C1144 C1143 1.399 . S
C1144 C1145 1.376 . S
C1145 H1132 0.930 . S
C1145 C1144 1.376 . S
C1145 C1146 1.388 . S
C1146 H1133 0.930 . S
C1146 C1145 1.388 . S
C1146 C1147 1.390 . S
C1147 C1146 1.390 . S
C1147 C1148 1.394 . S
C1147 C1153 1.465 . S
C1148 C1143 1.399 . S
C1148 C1147 1.394 . S
C1148 C1149 1.516 . S
C1149 C1148 1.516 . S
C1149 C1150 1.502 . S
C1149 C1151 1.561 . S
C1149 C1152 1.526 . S
C1150 H1134 0.959 . S
C1150 H1135 0.959 . S
C1150 H1136 0.961 . S
C1150 C1149 1.502 . S
C1151 H1137 0.960 . S
C1151 H1138 0.961 . S
C1151 H1139 0.959 . S
C1151 C1149 1.561 . S
C1152 C1149 1.526 . S
C1152 C1153 1.396 . S
C1152 C1157 1.390 . S
C1153 C1147 1.465 . S
C1153 C1152 1.396 . S
C1153 C1154 1.399 . S
C1154 H1140 0.929 . S
C1154 C1153 1.399 . S
C1154 C1155 1.385 . S
C1155 H1141 0.931 . S
C1155 C1154 1.385 . S
C1155 C1156 1.389 . S
C1156 C1155 1.389 . S
C1156 C1157 1.387 . S
C1157 H1142 0.930 . S
C1157 C1152 1.390 . S
C1157 C1156 1.387 . S
H1158 C1170 0.930 . S
H1159 C1172 0.930 . S
H1160 C1173 0.930 . S
H1161 C1177 0.959 . S
H1162 C1177 0.959 . S
H1163 C1177 0.961 . S
H1164 C1178 0.960 . S
H1165 C1178 0.961 . S
H1166 C1178 0.959 . S
H1167 C1181 0.929 . S
H1168 C1182 0.931 . S
H1169 C1184 0.930 . S
C1170 H1158 0.930 . S
C1170 C1171 1.399 . S
C1170 C1175 1.399 . S
C1171 C1170 1.399 . S
C1171 C1172 1.376 . S
C1172 H1159 0.930 . S
C1172 C1171 1.376 . S
C1172 C1173 1.388 . S
C1173 H1160 0.930 . S
C1173 C1172 1.388 . S
C1173 C1174 1.390 . S
C1174 C1173 1.390 . S
C1174 C1175 1.394 . S
C1174 C1180 1.465 . S
C1175 C1170 1.399 . S
C1175 C1174 1.394 . S
C1175 C1176 1.516 . S
C1176 C1175 1.516 . S
C1176 C1177 1.502 . S
C1176 C1178 1.561 . S
C1176 C1179 1.526 . S
C1177 H1161 0.959 . S
C1177 H1162 0.959 . S
C1177 H1163 0.961 . S
C1177 C1176 1.502 . S
C1178 H1164 0.960 . S
C1178 H1165 0.961 . S
C1178 H1166 0.959 . S
C1178 C1176 1.561 . S
C1179 C1176 1.526 . S
C1179 C1180 1.396 . S
C1179 C1184 1.390 . S
C1180 C1174 1.465 . S
C1180 C1179 1.396 . S
C1180 C1181 1.399 . S
C1181 H1167 0.929 . S
C1181 C1180 1.399 . S
C1181 C1182 1.385 . S
C1182 H1168 0.931 . S
C1182 C1181 1.385 . S
C1182 C1183 1.389 . S
C1183 C1182 1.389 . S
C1183 C1184 1.387 . S
C1184 H1169 0.930 . S
C1184 C1179 1.390 . S
C1184 C1183 1.387 . S
H1185 C1197 0.930 . S
H1186 C1199 0.930 . S
H1187 C1200 0.930 . S
H1188 C1204 0.959 . S
H1189 C1204 0.959 . S
H1190 C1204 0.961 . S
H1191 C1205 0.960 . S
H1192 C1205 0.961 . S
H1193 C1205 0.959 . S
H1194 C1208 0.929 . S
H1195 C1209 0.931 . S
H1196 C1211 0.930 . S
C1197 H1185 0.930 . S
C1197 C1198 1.399 . S
C1197 C1202 1.399 . S
C1198 C1197 1.399 . S
C1198 C1199 1.376 . S
C1199 H1186 0.930 . S
C1199 C1198 1.376 . S
C1199 C1200 1.388 . S
C1200 H1187 0.930 . S
C1200 C1199 1.388 . S
C1200 C1201 1.390 . S
C1201 C1200 1.390 . S
C1201 C1202 1.394 . S
C1201 C1207 1.465 . S
C1202 C1197 1.399 . S
C1202 C1201 1.394 . S
C1202 C1203 1.516 . S
C1203 C1202 1.516 . S
C1203 C1204 1.502 . S
C1203 C1205 1.561 . S
C1203 C1206 1.526 . S
C1204 H1188 0.959 . S
C1204 H1189 0.959 . S
C1204 H1190 0.961 . S
C1204 C1203 1.502 . S
C1205 H1191 0.960 . S
C1205 H1192 0.961 . S
C1205 H1193 0.959 . S
C1205 C1203 1.561 . S
C1206 C1203 1.526 . S
C1206 C1207 1.396 . S
C1206 C1211 1.390 . S
C1207 C1201 1.465 . S
C1207 C1206 1.396 . S
C1207 C1208 1.399 . S
C1208 H1194 0.929 . S
C1208 C1207 1.399 . S
C1208 C1209 1.385 . S
C1209 H1195 0.931 . S
C1209 C1208 1.385 . S
C1209 C1210 1.389 . S
C1210 C1209 1.389 . S
C1210 C1211 1.387 . S
C1211 H1196 0.930 . S
C1211 C1206 1.390 . S
C1211 C1210 1.387 . S
H1212 C1224 0.930 . S
H1213 C1226 0.930 . S
H1214 C1227 0.930 . S
H1215 C1231 0.959 . S
H1216 C1231 0.959 . S
H1217 C1231 0.961 . S
H1218 C1232 0.960 . S
H1219 C1232 0.961 . S
H1220 C1232 0.959 . S
H1221 C1235 0.929 . S
H1222 C1236 0.931 . S
H1223 C1238 0.930 . S
C1224 H1212 0.930 . S
C1224 C1225 1.399 . S
C1224 C1229 1.399 . S
C1225 C1224 1.399 . S
C1225 C1226 1.376 . S
C1226 H1213 0.930 . S
C1226 C1225 1.376 . S
C1226 C1227 1.388 . S
C1227 H1214 0.930 . S
C1227 C1226 1.388 . S
C1227 C1228 1.390 . S
C1228 C1227 1.390 . S
C1228 C1229 1.394 . S
C1228 C1234 1.465 . S
C1229 C1224 1.399 . S
C1229 C1228 1.394 . S
C1229 C1230 1.516 . S
C1230 C1229 1.516 . S
C1230 C1231 1.502 . S
C1230 C1232 1.561 . S
C1230 C1233 1.526 . S
C1231 H1215 0.959 . S
C1231 H1216 0.959 . S
C1231 H1217 0.961 . S
C1231 C1230 1.502 . S
C1232 H1218 0.960 . S
C1232 H1219 0.961 . S
C1232 H1220 0.959 . S
C1232 C1230 1.561 . S
C1233 C1230 1.526 . S
C1233 C1234 1.396 . S
C1233 C1238 1.390 . S
C1234 C1228 1.465 . S
C1234 C1233 1.396 . S
C1234 C1235 1.399 . S
C1235 H1221 0.929 . S
C1235 C1234 1.399 . S
C1235 C1236 1.385 . S
C1236 H1222 0.931 . S
C1236 C1235 1.385 . S
C1236 C1237 1.389 . S
C1237 C1236 1.389 . S
C1237 C1238 1.387 . S
C1238 H1223 0.930 . S
C1238 C1233 1.390 . S
C1238 C1237 1.387 . S
H1239 C1251 0.930 . S
H1240 C1253 0.930 . S
H1241 C1254 0.930 . S
H1242 C1258 0.959 . S
H1243 C1258 0.959 . S
H1244 C1258 0.961 . S
H1245 C1259 0.960 . S
H1246 C1259 0.961 . S
H1247 C1259 0.959 . S
H1248 C1262 0.929 . S
H1249 C1263 0.931 . S
H1250 C1265 0.930 . S
C1251 H1239 0.930 . S
C1251 C1252 1.399 . S
C1251 C1256 1.399 . S
C1252 C1251 1.399 . S
C1252 C1253 1.376 . S
C1253 H1240 0.930 . S
C1253 C1252 1.376 . S
C1253 C1254 1.388 . S
C1254 H1241 0.930 . S
C1254 C1253 1.388 . S
C1254 C1255 1.390 . S
C1255 C1254 1.390 . S
C1255 C1256 1.394 . S
C1255 C1261 1.465 . S
C1256 C1251 1.399 . S
C1256 C1255 1.394 . S
C1256 C1257 1.516 . S
C1257 C1256 1.516 . S
C1257 C1258 1.502 . S
C1257 C1259 1.561 . S
C1257 C1260 1.526 . S
C1258 H1242 0.959 . S
C1258 H1243 0.959 . S
C1258 H1244 0.961 . S
C1258 C1257 1.502 . S
C1259 H1245 0.960 . S
C1259 H1246 0.961 . S
C1259 H1247 0.959 . S
C1259 C1257 1.561 . S
C1260 C1257 1.526 . S
C1260 C1261 1.396 . S
C1260 C1265 1.390 . S
C1261 C1255 1.465 . S
C1261 C1260 1.396 . S
C1261 C1262 1.399 . S
C1262 H1248 0.929 . S
C1262 C1261 1.399 . S
C1262 C1263 1.385 . S
C1263 H1249 0.931 . S
C1263 C1262 1.385 . S
C1263 C1264 1.389 . S
C1264 C1263 1.389 . S
C1264 C1265 1.387 . S
C1265 H1250 0.930 . S
C1265 C1260 1.390 . S
C1265 C1264 1.387 . S
H1266 C1278 0.930 . S
H1267 C1280 0.930 . S
H1268 C1281 0.930 . S
H1269 C1285 0.959 . S
H1270 C1285 0.959 . S
H1271 C1285 0.961 . S
H1272 C1286 0.960 . S
H1273 C1286 0.961 . S
H1274 C1286 0.959 . S
H1275 C1289 0.929 . S
H1276 C1290 0.931 . S
H1277 C1292 0.930 . S
C1278 H1266 0.930 . S
C1278 C1279 1.399 . S
C1278 C1283 1.399 . S
C1279 C1278 1.399 . S
C1279 C1280 1.376 . S
C1280 H1267 0.930 . S
C1280 C1279 1.376 . S
C1280 C1281 1.388 . S
C1281 H1268 0.930 . S
C1281 C1280 1.388 . S
C1281 C1282 1.390 . S
C1282 C1281 1.390 . S
C1282 C1283 1.394 . S
C1282 C1288 1.465 . S
C1283 C1278 1.399 . S
C1283 C1282 1.394 . S
C1283 C1284 1.516 . S
C1284 C1283 1.516 . S
C1284 C1285 1.502 . S
C1284 C1286 1.561 . S
C1284 C1287 1.526 . S
C1285 H1269 0.959 . S
C1285 H1270 0.959 . S
C1285 H1271 0.961 . S
C1285 C1284 1.502 . S
C1286 H1272 0.960 . S
C1286 H1273 0.961 . S
C1286 H1274 0.959 . S
C1286 C1284 1.561 . S
C1287 C1284 1.526 . S
C1287 C1288 1.396 . S
C1287 C1292 1.390 . S
C1288 C1282 1.465 . S
C1288 C1287 1.396 . S
C1288 C1289 1.399 . S
C1289 H1275 0.929 . S
C1289 C1288 1.399 . S
C1289 C1290 1.385 . S
C1290 H1276 0.931 . S
C1290 C1289 1.385 . S
C1290 C1291 1.389 . S
C1291 C1290 1.389 . S
C1291 C1292 1.387 . S
C1292 H1277 0.930 . S
C1292 C1287 1.390 . S
C1292 C1291 1.387 . S
H1293 C1305 0.930 . S
H1294 C1307 0.930 . S
H1295 C1308 0.930 . S
H1296 C1312 0.959 . S
H1297 C1312 0.959 . S
H1298 C1312 0.961 . S
H1299 C1313 0.960 . S
H1300 C1313 0.961 . S
H1301 C1313 0.959 . S
H1302 C1316 0.929 . S
H1303 C1317 0.931 . S
H1304 C1319 0.930 . S
C1305 H1293 0.930 . S
C1305 C1306 1.399 . S
C1305 C1310 1.399 . S
C1306 C1305 1.399 . S
C1306 C1307 1.376 . S
C1307 H1294 0.930 . S
C1307 C1306 1.376 . S
C1307 C1308 1.388 . S
C1308 H1295 0.930 . S
C1308 C1307 1.388 . S
C1308 C1309 1.390 . S
C1309 C1308 1.390 . S
C1309 C1310 1.394 . S
C1309 C1315 1.465 . S
C1310 C1305 1.399 . S
C1310 C1309 1.394 . S
C1310 C1311 1.516 . S
C1311 C1310 1.516 . S
C1311 C1312 1.502 . S
C1311 C1313 1.561 . S
C1311 C1314 1.526 . S
C1312 H1296 0.959 . S
C1312 H1297 0.959 . S
C1312 H1298 0.961 . S
C1312 C1311 1.502 . S
C1313 H1299 0.960 . S
C1313 H1300 0.961 . S
C1313 H1301 0.959 . S
C1313 C1311 1.561 . S
C1314 C1311 1.526 . S
C1314 C1315 1.396 . S
C1314 C1319 1.390 . S
C1315 C1309 1.465 . S
C1315 C1314 1.396 . S
C1315 C1316 1.399 . S
C1316 H1302 0.929 . S
C1316 C1315 1.399 . S
C1316 C1317 1.385 . S
C1317 H1303 0.931 . S
C1317 C1316 1.385 . S
C1317 C1318 1.389 . S
C1318 C1317 1.389 . S
C1318 C1319 1.387 . S
C1319 H1304 0.930 . S
C1319 C1314 1.390 . S
C1319 C1318 1.387 . S
H1320 C1332 0.930 . S
H1321 C1334 0.930 . S
H1322 C1335 0.930 . S
H1323 C1339 0.959 . S
H1324 C1339 0.959 . S
H1325 C1339 0.961 . S
H1326 C1340 0.960 . S
H1327 C1340 0.961 . S
H1328 C1340 0.959 . S
H1329 C1343 0.929 . S
H1330 C1344 0.931 . S
H1331 C1346 0.930 . S
C1332 H1320 0.930 . S
C1332 C1333 1.399 . S
C1332 C1337 1.399 . S
C1333 C1332 1.399 . S
C1333 C1334 1.376 . S
C1334 H1321 0.930 . S
C1334 C1333 1.376 . S
C1334 C1335 1.388 . S
C1335 H1322 0.930 . S
C1335 C1334 1.388 . S
C1335 C1336 1.390 . S
C1336 C1335 1.390 . S
C1336 C1337 1.394 . S
C1336 C1342 1.465 . S
C1337 C1332 1.399 . S
C1337 C1336 1.394 . S
C1337 C1338 1.516 . S
C1338 C1337 1.516 . S
C1338 C1339 1.502 . S
C1338 C1340 1.561 . S
C1338 C1341 1.526 . S
C1339 H1323 0.959 . S
C1339 H1324 0.959 . S
C1339 H1325 0.961 . S
C1339 C1338 1.502 . S
C1340 H1326 0.960 . S
C1340 H1327 0.961 . S
C1340 H1328 0.959 . S
C1340 C1338 1.561 . S
C1341 C1338 1.526 . S
C1341 C1342 1.396 . S
C1341 C1346 1.390 . S
C1342 C1336 1.465 . S
C1342 C1341 1.396 . S
C1342 C1343 1.399 . S
C1343 H1329 0.929 . S
C1343 C1342 1.399 . S
C1343 C1344 1.385 . S
C1344 H1330 0.931 . S
C1344 C1343 1.385 . S
C1344 C1345 1.389 . S
C1345 C1344 1.389 . S
C1345 C1346 1.387 . S
C1346 H1331 0.930 . S
C1346 C1341 1.390 . S
C1346 C1345 1.387 . S
H1347 C1359 0.930 . S
H1348 C1361 0.930 . S
H1349 C1362 0.930 . S
H1350 C1366 0.959 . S
H1351 C1366 0.959 . S
H1352 C1366 0.961 . S
H1353 C1367 0.960 . S
H1354 C1367 0.961 . S
H1355 C1367 0.959 . S
H1356 C1370 0.929 . S
H1357 C1371 0.931 . S
H1358 C1373 0.930 . S
C1359 H1347 0.930 . S
C1359 C1360 1.399 . S
C1359 C1364 1.399 . S
C1360 C1359 1.399 . S
C1360 C1361 1.376 . S
C1361 H1348 0.930 . S
C1361 C1360 1.376 . S
C1361 C1362 1.388 . S
C1362 H1349 0.930 . S
C1362 C1361 1.388 . S
C1362 C1363 1.390 . S
C1363 C1362 1.390 . S
C1363 C1364 1.394 . S
C1363 C1369 1.465 . S
C1364 C1359 1.399 . S
C1364 C1363 1.394 . S
C1364 C1365 1.516 . S
C1365 C1364 1.516 . S
C1365 C1366 1.502 . S
C1365 C1367 1.561 . S
C1365 C1368 1.526 . S
C1366 H1350 0.959 . S
C1366 H1351 0.959 . S
C1366 H1352 0.961 . S
C1366 C1365 1.502 . S
C1367 H1353 0.960 . S
C1367 H1354 0.961 . S
C1367 H1355 0.959 . S
C1367 C1365 1.561 . S
C1368 C1365 1.526 . S
C1368 C1369 1.396 . S
C1368 C1373 1.390 . S
C1369 C1363 1.465 . S
C1369 C1368 1.396 . S
C1369 C1370 1.399 . S
C1370 H1356 0.929 . S
C1370 C1369 1.399 . S
C1370 C1371 1.385 . S
C1371 H1357 0.931 . S
C1371 C1370 1.385 . S
C1371 C1372 1.389 . S
C1372 C1371 1.389 . S
C1372 C1373 1.387 . S
C1373 H1358 0.930 . S
C1373 C1368 1.390 . S
C1373 C1372 1.387 . S
H1374 C1386 0.930 . S
H1375 C1388 0.930 . S
H1376 C1389 0.930 . S
H1377 C1393 0.959 . S
H1378 C1393 0.959 . S
H1379 C1393 0.961 . S
H1380 C1394 0.960 . S
H1381 C1394 0.961 . S
H1382 C1394 0.959 . S
H1383 C1397 0.929 . S
H1384 C1398 0.931 . S
H1385 C1400 0.930 . S
C1386 H1374 0.930 . S
C1386 C1387 1.399 . S
C1386 C1391 1.399 . S
C1387 C1386 1.399 . S
C1387 C1388 1.376 . S
C1388 H1375 0.930 . S
C1388 C1387 1.376 . S
C1388 C1389 1.388 . S
C1389 H1376 0.930 . S
C1389 C1388 1.388 . S
C1389 C1390 1.390 . S
C1390 C1389 1.390 . S
C1390 C1391 1.394 . S
C1390 C1396 1.465 . S
C1391 C1386 1.399 . S
C1391 C1390 1.394 . S
C1391 C1392 1.516 . S
C1392 C1391 1.516 . S
C1392 C1393 1.502 . S
C1392 C1394 1.561 . S
C1392 C1395 1.526 . S
C1393 H1377 0.959 . S
C1393 H1378 0.959 . S
C1393 H1379 0.961 . S
C1393 C1392 1.502 . S
C1394 H1380 0.960 . S
C1394 H1381 0.961 . S
C1394 H1382 0.959 . S
C1394 C1392 1.561 . S
C1395 C1392 1.526 . S
C1395 C1396 1.396 . S
C1395 C1400 1.390 . S
C1396 C1390 1.465 . S
C1396 C1395 1.396 . S
C1396 C1397 1.399 . S
C1397 H1383 0.929 . S
C1397 C1396 1.399 . S
C1397 C1398 1.385 . S
C1398 H1384 0.931 . S
C1398 C1397 1.385 . S
C1398 C1399 1.389 . S
C1399 C1398 1.389 . S
C1399 C1400 1.387 . S
C1400 H1385 0.930 . S
C1400 C1395 1.390 . S
C1400 C1399 1.387 . S
H1401 C1413 0.930 . S
H1402 C1415 0.930 . S
H1403 C1416 0.930 . S
H1404 C1420 0.959 . S
H1405 C1420 0.959 . S
H1406 C1420 0.961 . S
H1407 C1421 0.960 . S
H1408 C1421 0.961 . S
H1409 C1421 0.959 . S
H1410 C1424 0.929 . S
H1411 C1425 0.931 . S
H1412 C1427 0.930 . S
C1413 H1401 0.930 . S
C1413 C1414 1.399 . S
C1413 C1418 1.399 . S
C1414 C1413 1.399 . S
C1414 C1415 1.376 . S
C1415 H1402 0.930 . S
C1415 C1414 1.376 . S
C1415 C1416 1.388 . S
C1416 H1403 0.930 . S
C1416 C1415 1.388 . S
C1416 C1417 1.390 . S
C1417 C1416 1.390 . S
C1417 C1418 1.394 . S
C1417 C1423 1.465 . S
C1418 C1413 1.399 . S
C1418 C1417 1.394 . S
C1418 C1419 1.516 . S
C1419 C1418 1.516 . S
C1419 C1420 1.502 . S
C1419 C1421 1.561 . S
C1419 C1422 1.526 . S
C1420 H1404 0.959 . S
C1420 H1405 0.959 . S
C1420 H1406 0.961 . S
C1420 C1419 1.502 . S
C1421 H1407 0.960 . S
C1421 H1408 0.961 . S
C1421 H1409 0.959 . S
C1421 C1419 1.561 . S
C1422 C1419 1.526 . S
C1422 C1423 1.396 . S
C1422 C1427 1.390 . S
C1423 C1417 1.465 . S
C1423 C1422 1.396 . S
C1423 C1424 1.399 . S
C1424 H1410 0.929 . S
C1424 C1423 1.399 . S
C1424 C1425 1.385 . S
C1425 H1411 0.931 . S
C1425 C1424 1.385 . S
C1425 C1426 1.389 . S
C1426 C1425 1.389 . S
C1426 C1427 1.387 . S
C1427 H1412 0.930 . S
C1427 C1422 1.390 . S
C1427 C1426 1.387 . S
H1428 C1440 0.930 . S
H1429 C1442 0.930 . S
H1430 C1443 0.930 . S
H1431 C1447 0.959 . S
H1432 C1447 0.959 . S
H1433 C1447 0.961 . S
H1434 C1448 0.960 . S
H1435 C1448 0.961 . S
H1436 C1448 0.959 . S
H1437 C1451 0.929 . S
H1438 C1452 0.931 . S
H1439 C1454 0.930 . S
C1440 H1428 0.930 . S
C1440 C1441 1.399 . S
C1440 C1445 1.399 . S
C1441 C1440 1.399 . S
C1441 C1442 1.376 . S
C1442 H1429 0.930 . S
C1442 C1441 1.376 . S
C1442 C1443 1.388 . S
C1443 H1430 0.930 . S
C1443 C1442 1.388 . S
C1443 C1444 1.390 . S
C1444 C1443 1.390 . S
C1444 C1445 1.394 . S
C1444 C1450 1.465 . S
C1445 C1440 1.399 . S
C1445 C1444 1.394 . S
C1445 C1446 1.516 . S
C1446 C1445 1.516 . S
C1446 C1447 1.502 . S
C1446 C1448 1.561 . S
C1446 C1449 1.526 . S
C1447 H1431 0.959 . S
C1447 H1432 0.959 . S
C1447 H1433 0.961 . S
C1447 C1446 1.502 . S
C1448 H1434 0.960 . S
C1448 H1435 0.961 . S
C1448 H1436 0.959 . S
C1448 C1446 1.561 . S
C1449 C1446 1.526 . S
C1449 C1450 1.396 . S
C1449 C1454 1.390 . S
C1450 C1444 1.465 . S
C1450 C1449 1.396 . S
C1450 C1451 1.399 . S
C1451 H1437 0.929 . S
C1451 C1450 1.399 . S
C1451 C1452 1.385 . S
C1452 H1438 0.931 . S
C1452 C1451 1.385 . S
C1452 C1453 1.389 . S
C1453 C1452 1.389 . S
C1453 C1454 1.387 . S
C1454 H1439 0.930 . S
C1454 C1449 1.390 . S
C1454 C1453 1.387 . S
H1455 C1467 0.930 . S
H1456 C1469 0.930 . S
H1457 C1470 0.930 . S
H1458 C1474 0.959 . S
H1459 C1474 0.959 . S
H1460 C1474 0.961 . S
H1461 C1475 0.960 . S
H1462 C1475 0.961 . S
H1463 C1475 0.959 . S
H1464 C1478 0.929 . S
H1465 C1479 0.931 . S
H1466 C1481 0.930 . S
C1467 H1455 0.930 . S
C1467 C1468 1.399 . S
C1467 C1472 1.399 . S
C1468 C1467 1.399 . S
C1468 C1469 1.376 . S
C1469 H1456 0.930 . S
C1469 C1468 1.376 . S
C1469 C1470 1.388 . S
C1470 H1457 0.930 . S
C1470 C1469 1.388 . S
C1470 C1471 1.390 . S
C1471 C1470 1.390 . S
C1471 C1472 1.394 . S
C1471 C1477 1.465 . S
C1472 C1467 1.399 . S
C1472 C1471 1.394 . S
C1472 C1473 1.516 . S
C1473 C1472 1.516 . S
C1473 C1474 1.502 . S
C1473 C1475 1.561 . S
C1473 C1476 1.526 . S
C1474 H1458 0.959 . S
C1474 H1459 0.959 . S
C1474 H1460 0.961 . S
C1474 C1473 1.502 . S
C1475 H1461 0.960 . S
C1475 H1462 0.961 . S
C1475 H1463 0.959 . S
C1475 C1473 1.561 . S
C1476 C1473 1.526 . S
C1476 C1477 1.396 . S
C1476 C1481 1.390 . S
C1477 C1471 1.465 . S
C1477 C1476 1.396 . S
C1477 C1478 1.399 . S
C1478 H1464 0.929 . S
C1478 C1477 1.399 . S
C1478 C1479 1.385 . S
C1479 H1465 0.931 . S
C1479 C1478 1.385 . S
C1479 C1480 1.389 . S
C1480 C1479 1.389 . S
C1480 C1481 1.387 . S
C1481 H1466 0.930 . S
C1481 C1476 1.390 . S
C1481 C1480 1.387 . S
C361 C8 0.789 . S
C373 C211 0.916 . S
C388 C37 0.817 . S
C400 C240 0.906 . S
C415 C269 0.761 . S
C427 C66 0.697 . S
C442 C95 0.793 . S
C454 C298 0.915 . S
C469 C124 0.668 . S
C481 C327 0.806 . S
C496 C182 0.739 . S
C508 C153 0.921 . S
C523 C295 1.553 . S
C535 C92 1.511 . S
C550 C121 1.566 . S
C562 C324 1.498 . S
C577 C150 1.497 . S
C589 C179 1.565 . S
C604 C5 1.521 . S
C616 C208 1.543 . S
C631 C237 1.502 . S
C643 C34 1.561 . S
C658 C266 1.566 . S
C670 C63 1.498 . S
C685 C108 0.358 1_554 S
C697 C21 0.518 1_554 S
C712 C50 0.373 1_554 S
C724 C137 0.511 1_554 S
C739 C166 0.346 1_554 S
C751 C79 0.531 1_554 S
C766 C195 0.343 . S
C778 C282 0.554 . S
C793 C224 0.547 . S
C805 C311 0.329 . S
C820 C340 0.347 . S
C832 C253 0.531 . S
C847 C10 2.703 . S
C859 C300 2.677 . S
C874 C39 2.686 . S
C886 C329 2.727 . S
C901 C68 2.694 . S
C913 C184 2.684 . S
C928 C213 2.670 . S
C940 C97 2.715 . S
C955 C242 2.708 . S
C967 C126 2.711 . S
C982 C155 2.726 . S
C994 C271 2.687 . S
C1009 C206 0.573 . S
C1021 C90 0.720 . S
C1036 C235 0.550 . S
C1048 C119 0.739 . S
C1063 C264 0.739 . S
C1075 C148 0.591 . S
C1090 C293 0.582 . S
C1102 C3 0.712 . S
C1117 C322 0.739 . S
C1129 C32 0.591 . S
C1144 C61 0.535 . S
C1156 C177 0.772 . S
C1171 C15 2.382 . S
C1183 C247 2.385 . S
C1198 C276 2.385 . S
C1210 C44 2.383 . S
C1225 C305 2.393 . S
C1237 C73 2.392 . S
C1252 C102 2.393 . S
C1264 C334 2.391 . S
C1279 C189 2.389 . S
C1291 C131 2.393 . S
C1306 C160 2.393 . S
C1318 C218 2.392 . S
C1333 C332 2.971 . S
C1345 C100 2.988 1_556 S
C1360 C187 3.001 . S
C1372 C129 3.016 1_556 S
C1387 C216 2.977 . S
C1399 C158 3.003 1_556 S
C1414 C245 3.015 . S
C1426 C13 3.006 1_556 S
C1441 C274 2.976 . S
C1453 C42 2.974 1_556 S
C1468 C303 2.976 . S
C1480 C71 3.001 1_556 S
