# Generated by pormake.
# Topology sml, (6)-cn, num edge types: 1
# Building blocks:
#     Node 0, Type 0, BuildingBlock: CUWYAW_clean_sbu_0, # of connection points: 6
#     Node 1, Type 0, BuildingBlock: CUWYAW_clean_sbu_0, # of connection points: 6
#     Node 2, Type 0, BuildingBlock: CUWYAW_clean_sbu_0, # of connection points: 6
#     Node 3, Type 0, BuildingBlock: CUWYAW_clean_sbu_0, # of connection points: 6
#     Node 4, Type 0, BuildingBlock: CUWYAW_clean_sbu_0, # of connection points: 6
#     Node 5, Type 0, BuildingBlock: CUWYAW_clean_sbu_0, # of connection points: 6
#     Edge 6, Type (0, 0), BuildingBlock: KIFKEQ_clean_linker_1, # of connection points: 2
#     Edge 7, Type (0, 0), BuildingBlock: KIFKEQ_clean_linker_1, # of connection points: 2
#     Edge 8, Type (0, 0), BuildingBlock: KIFKEQ_clean_linker_1, # of connection points: 2
#     Edge 9, Type (0, 0), BuildingBlock: KIFKEQ_clean_linker_1, # of connection points: 2
#     Edge 10, Type (0, 0), BuildingBlock: KIFKEQ_clean_linker_1, # of connection points: 2
#     Edge 11, Type (0, 0), BuildingBlock: KIFKEQ_clean_linker_1, # of connection points: 2
#     Edge 12, Type (0, 0), BuildingBlock: KIFKEQ_clean_linker_1, # of connection points: 2
#     Edge 13, Type (0, 0), BuildingBlock: KIFKEQ_clean_linker_1, # of connection points: 2
#     Edge 14, Type (0, 0), BuildingBlock: KIFKEQ_clean_linker_1, # of connection points: 2
#     Edge 15, Type (0, 0), BuildingBlock: KIFKEQ_clean_linker_1, # of connection points: 2
#     Edge 16, Type (0, 0), BuildingBlock: KIFKEQ_clean_linker_1, # of connection points: 2
#     Edge 17, Type (0, 0), BuildingBlock: KIFKEQ_clean_linker_1, # of connection points: 2
#     Edge 18, Type (0, 0), BuildingBlock: KIFKEQ_clean_linker_1, # of connection points: 2
#     Edge 19, Type (0, 0), BuildingBlock: KIFKEQ_clean_linker_1, # of connection points: 2
#     Edge 20, Type (0, 0), BuildingBlock: KIFKEQ_clean_linker_1, # of connection points: 2
#     Edge 21, Type (0, 0), BuildingBlock: KIFKEQ_clean_linker_1, # of connection points: 2
#     Edge 22, Type (0, 0), BuildingBlock: KIFKEQ_clean_linker_1, # of connection points: 2
#     Edge 23, Type (0, 0), BuildingBlock: KIFKEQ_clean_linker_1, # of connection points: 2
# Relax obj value: 0.232
# Max RMSD: 0.248
# Mean RMSD: 0.248
data_MOF--net-sml--node1-CUWYAW_clean_sbu_0--edge1-KIFKEQ_clean_linker_1
_symmetry_space_group_name_H-M    P1
_symmetry_Int_Tables_number       1
_symmetry_cell_setting            triclinic
loop_
_symmetry_equiv_pos_as_xyz
'x, y, z'
_cell_length_a     33.241453
_cell_length_b     33.282167
_cell_length_c     25.308045
_cell_angle_alpha  90.081248
_cell_angle_beta   90.132411
_cell_angle_gamma 120.09686
loop_
_atom_site_label
_atom_site_type_symbol
_atom_site_fract_x
_atom_site_fract_y
_atom_site_fract_z
_atom_type_partial_charge
C0 C 0.2377 0.37261 0.16215 0.0
Eu1 Eu 0.2201 0.4034 0.07569 0.0
C2 C 0.2317 0.37729 0.21897 0.0
C3 C 0.25865 0.36951 0.25569 0.0
C4 C 0.25554 0.37671 0.30964 0.0
C5 C 0.22532 0.3918 0.32783 0.0
C6 C 0.19789 0.399 0.2908 0.0
C7 C 0.20121 0.392 0.23682 0.0
C8 C 0.27986 0.47035 1.00904 0.0
C9 C 0.18854 0.47966 0.07969 0.0
C10 C 0.16997 0.45477 0.87966 0.0
Eu11 Eu 0.17707 0.42306 0.97086 0.0
C12 C 0.18602 0.45567 0.82528 0.0
C13 C 0.18513 0.48671 0.78864 0.0
C14 C 0.19466 0.4841 0.73533 0.0
C15 C 0.20498 0.45014 0.7176 0.0
C16 C 0.20776 0.42037 0.75507 0.0
C17 C 0.19845 0.42318 0.80841 0.0
C18 C 0.10886 0.36741 0.0401 0.0
C19 C 0.20588 0.34235 0.96847 0.0
O20 O 0.19968 0.34855 0.13419 0.0
O21 O 0.26823 0.41074 0.1385 0.0
O22 O 0.28575 0.47252 0.05997 0.0
O23 O 0.2448 0.43251 0.99617 0.0
O24 O 0.19119 0.44698 0.1066 0.0
O25 O 0.19032 0.48193 0.02724 0.0
O26 O 0.2015 0.48064 0.91493 0.0
O27 O 0.13962 0.41356 0.89751 0.0
O28 O 0.10056 0.38054 0.99513 0.0
O29 O 0.15195 0.38457 0.04439 0.0
O30 O 0.19126 0.36705 0.94202 0.0
O31 O 0.21734 0.34908 0.01932 0.0
H32 H 0.28254 0.35838 0.24256 0.0
H33 H 0.27672 0.37035 0.33715 0.0
H34 H 0.1747 0.41115 0.30341 0.0
H35 H 0.18053 0.39878 0.20897 0.0
H36 H 0.17577 0.51212 0.80099 0.0
H37 H 0.19316 0.50823 0.70785 0.0
H38 H 0.2152 0.39355 0.74296 0.0
H39 H 0.19935 0.39888 0.83614 0.0
C40 C 0.84823 0.23272 0.50017 0.0
Eu41 Eu 0.80734 0.21762 0.40819 0.0
C42 C 0.83559 0.22754 0.55643 0.0
C43 C 0.87063 0.24963 0.59453 0.0
C44 C 0.85949 0.24569 0.64823 0.0
C45 C 0.81295 0.21963 0.66491 0.0
C46 C 0.77785 0.19747 0.62637 0.0
C47 C 0.7891 0.20136 0.57261 0.0
C48 C 0.81055 0.2824 0.34125 0.0
C49 C 0.69853 0.19118 0.42152 0.0
C50 C 0.70083 0.16784 0.2208 0.0
Eu51 Eu 0.74017 0.18073 0.31327 0.0
C52 C 0.71453 0.175 0.16461 0.0
C53 C 0.68949 0.13885 0.12847 0.0
C54 C 0.70141 0.14446 0.07498 0.0
C55 C 0.73856 0.18654 0.05638 0.0
C56 C 0.76369 0.22283 0.09268 0.0
C57 C 0.75194 0.21706 0.14637 0.0
C58 C 0.73299 0.1147 0.38037 0.0
C59 C 0.85034 0.21107 0.29994 0.0
O60 O 0.83383 0.19436 0.47304 0.0
O61 O 0.84367 0.26415 0.47419 0.0
O62 O 0.84731 0.28606 0.36395 0.0
O63 O 0.77459 0.24661 0.35672 0.0
O64 O 0.737 0.19669 0.44397 0.0
O65 O 0.69277 0.18894 0.36971 0.0
O66 O 0.71329 0.20491 0.24982 0.0
O67 O 0.70522 0.13577 0.2456 0.0
O68 O 0.69812 0.11276 0.3549 0.0
O69 O 0.77089 0.14983 0.36658 0.0
O70 O 0.81119 0.20399 0.27777 0.0
O71 O 0.85601 0.21223 0.35162 0.0
H72 H 0.90672 0.26992 0.58274 0.0
H73 H 0.88748 0.2626 0.67671 0.0
H74 H 0.74163 0.17758 0.63765 0.0
H75 H 0.76153 0.18406 0.54372 0.0
H76 H 0.66049 0.10617 0.14166 0.0
H77 H 0.68101 0.11605 0.04801 0.0
H78 H 0.7928 0.25548 0.07969 0.0
H79 H 0.7721 0.24545 0.17349 0.0
C80 C 0.62136 0.85244 0.82653 0.0
Eu81 Eu 0.59335 0.81175 0.73454 0.0
C82 C 0.61347 0.83986 0.88299 0.0
C83 C 0.63065 0.87508 0.92132 0.0
C84 C 0.62356 0.86406 0.97513 0.0
C85 C 0.59894 0.81746 0.99177 0.0
C86 C 0.5816 0.78218 0.95306 0.0
C87 C 0.58893 0.79329 0.89919 0.0
C88 C 0.53276 0.81668 0.66699 0.0
C89 C 0.50662 0.70484 0.75026 0.0
C90 C 0.53119 0.70265 0.54866 0.0
Eu91 Eu 0.55873 0.74203 0.64111 0.0
C92 C 0.53814 0.71625 0.49232 0.0
C93 C 0.54402 0.68805 0.45561 0.0
C94 C 0.55038 0.69968 0.40198 0.0
C95 C 0.55079 0.73981 0.3836 0.0
C96 C 0.54525 0.76831 0.42072 0.0
C97 C 0.53909 0.75671 0.47452 0.0
C98 C 0.61628 0.73322 0.70908 0.0
C99 C 0.64233 0.8507 0.62507 0.0
O100 O 0.64347 0.83605 0.79939 0.0
O101 O 0.5863 0.85022 0.80039 0.0
O102 O 0.56694 0.85315 0.68912 0.0
O103 O 0.53106 0.78032 0.68356 0.0
O104 O 0.54094 0.74315 0.77153 0.0
O105 O 0.50249 0.69742 0.69866 0.0
O106 O 0.50746 0.71623 0.57747 0.0
O107 O 0.56719 0.7059 0.57374 0.0
O108 O 0.58234 0.69861 0.68424 0.0
O109 O 0.62074 0.77146 0.69398 0.0
O110 O 0.60814 0.81192 0.60449 0.0
O111 O 0.64831 0.8573 0.67662 0.0
H112 H 0.64953 0.91124 0.90962 0.0
H113 H 0.63686 0.89212 1.00369 0.0
H114 H 0.56294 0.74595 0.96439 0.0
H115 H 0.5756 0.76553 0.87028 0.0
H116 H 0.54377 0.65688 0.46848 0.0
H117 H 0.55548 0.67736 0.37499 0.0
H118 H 0.54493 0.79923 0.40816 0.0
H119 H 0.53487 0.77926 0.5021 0.0
C120 C 0.76723 0.62076 0.15897 0.0
Eu121 Eu 0.77944 0.59238 0.06719 0.0
C122 C 0.77129 0.61258 0.21548 0.0
C123 C 0.75053 0.62721 0.25319 0.0
C124 C 0.75355 0.61953 0.30704 0.0
C125 C 0.7773 0.59683 0.32437 0.0
C126 C 0.79807 0.58215 0.28619 0.0
C127 C 0.79515 0.59004 0.2323 0.0
C128 C 0.71216 0.53035 1.00211 0.0
C129 C 0.80192 0.50735 0.08302 0.0
C130 C 0.82279 0.52895 0.88111 0.0
Eu131 Eu 0.81271 0.55746 0.97355 0.0
C132 C 0.8161 0.53631 0.8249 0.0
C133 C 0.85109 0.54432 0.78852 0.0
C134 C 0.84603 0.55158 0.73509 0.0
C135 C 0.80565 0.55076 0.71671 0.0
C136 C 0.77049 0.54268 0.75326 0.0
C137 C 0.77574 0.53574 0.8069 0.0
C138 C 0.88094 0.61677 0.03897 0.0
C139 C 0.78674 0.64009 0.9574 0.0
O140 O 0.80599 0.64226 0.13218 0.0
O141 O 0.73403 0.58611 0.13266 0.0
O142 O 0.71058 0.56499 0.02359 0.0
O143 O 0.74742 0.52906 0.01772 0.0
O144 O 0.79795 0.54158 0.10427 0.0
O145 O 0.80336 0.50237 0.03136 0.0
O146 O 0.78548 0.50606 0.91016 0.0
O147 O 0.85643 0.56442 0.90601 0.0
O148 O 0.8811 0.58248 0.01465 0.0
O149 O 0.84642 0.62052 0.02483 0.0
O150 O 0.79103 0.60584 0.9369 0.0
O151 O 0.78731 0.64663 1.00893 0.0
H152 H 0.73204 0.64476 0.24098 0.0
H153 H 0.73779 0.63203 0.33513 0.0
H154 H 0.81613 0.56407 0.29785 0.0
H155 H 0.81145 0.57848 0.2038 0.0
H156 H 0.88247 0.54489 0.80148 0.0
H157 H 0.87351 0.55716 0.70799 0.0
H158 H 0.7392 0.54232 0.7405 0.0
H159 H 0.74833 0.53004 0.83421 0.0
C160 C 0.15136 0.76662 0.48269 0.0
Eu161 Eu 0.1915 0.78262 0.39051 0.0
C162 C 0.16443 0.77271 0.53933 0.0
C163 C 0.14282 0.73431 0.57316 0.0
C164 C 0.15381 0.73893 0.62702 0.0
C165 C 0.18656 0.78225 0.64856 0.0
C166 C 0.20842 0.82073 0.61442 0.0
C167 C 0.19757 0.81601 0.56039 0.0
C168 C 0.18672 0.71791 0.32182 0.0
C169 C 0.3001 0.80877 0.40572 0.0
C170 C 0.30061 0.83738 0.20536 0.0
Eu171 Eu 0.25963 0.82077 0.29717 0.0
C172 C 0.28753 0.82879 0.14908 0.0
C173 C 0.3208 0.85464 0.11065 0.0
C174 C 0.30908 0.84788 0.05698 0.0
C175 C 0.26369 0.8152 0.04063 0.0
C176 C 0.23034 0.78926 0.07942 0.0
C177 C 0.24223 0.79588 0.13319 0.0
C178 C 0.26679 0.88561 0.36671 0.0
C179 C 0.1496 0.79066 0.28189 0.0
O180 O 0.16282 0.80398 0.45489 0.0
O181 O 0.15712 0.73589 0.4567 0.0
O182 O 0.15073 0.7146 0.34587 0.0
O183 O 0.22342 0.75329 0.33747 0.0
O184 O 0.26158 0.80364 0.42729 0.0
O185 O 0.30638 0.81126 0.35399 0.0
O186 O 0.29111 0.80111 0.23422 0.0
O187 O 0.29137 0.86653 0.22963 0.0
O188 O 0.30177 0.88774 0.34158 0.0
O189 O 0.22901 0.8511 0.35133 0.0
O190 O 0.18861 0.79658 0.26076 0.0
O191 O 0.14386 0.79009 0.33354 0.0
H192 H 0.11728 0.70053 0.55785 0.0
H193 H 0.13688 0.70832 0.65169 0.0
H194 H 0.23341 0.85474 0.62955 0.0
H195 H 0.21492 0.8463 0.53527 0.0
H196 H 0.35588 0.88034 0.12219 0.0
H197 H 0.33543 0.86889 0.0283 0.0
H198 H 0.19521 0.76351 0.06819 0.0
H199 H 0.2161 0.77538 0.16232 0.0
C200 C 0.36399 0.14649 0.82342 0.0
Eu201 Eu 0.39457 0.18595 0.73181 0.0
C202 C 0.37243 0.1595 0.87982 0.0
C203 C 0.3598 0.12474 0.91793 0.0
C204 C 0.36774 0.13616 0.97165 0.0
C205 C 0.38871 0.18274 0.98851 0.0
C206 C 0.40134 0.21757 0.94996 0.0
C207 C 0.39323 0.20605 0.89617 0.0
C208 C 0.45864 0.18378 0.66858 0.0
C209 C 0.47887 0.29476 0.7485 0.0
C210 C 0.45641 0.29552 0.54633 0.0
Eu211 Eu 0.42911 0.25557 0.63816 0.0
C212 C 0.44933 0.28207 0.48982 0.0
C213 C 0.43959 0.30825 0.45405 0.0
C214 C 0.43267 0.29652 0.40038 0.0
C215 C 0.43559 0.25838 0.38112 0.0
C216 C 0.44538 0.23212 0.41707 0.0
C217 C 0.45198 0.24369 0.47094 0.0
C218 C 0.36671 0.25887 0.70311 0.0
C219 C 0.35027 0.14522 0.62013 0.0
O220 O 0.34401 0.16481 0.79552 0.0
O221 O 0.39786 0.14575 0.79804 0.0
O222 O 0.42534 0.14685 0.69077 0.0
O223 O 0.45818 0.21965 0.68339 0.0
O224 O 0.44543 0.25566 0.7693 0.0
O225 O 0.48348 0.30182 0.6969 0.0
O226 O 0.48044 0.28211 0.575 0.0
O227 O 0.42037 0.29198 0.57139 0.0
O228 O 0.40082 0.29542 0.68147 0.0
O229 O 0.3657 0.22248 0.68727 0.0
O230 O 0.3837 0.18486 0.60058 0.0
O231 O 0.34276 0.13852 0.67148 0.0
H232 H 0.34361 0.08861 0.90612 0.0
H233 H 0.35681 0.10831 1.00003 0.0
H234 H 0.41805 0.25383 0.96124 0.0
H235 H 0.40328 0.23348 0.86739 0.0
H236 H 0.43741 0.33798 0.46767 0.0
H237 H 0.42573 0.3178 0.37378 0.0
H238 H 0.44735 0.20223 0.40367 0.0
H239 H 0.45905 0.2226 0.49773 0.0
H240 H 0.39398 0.32821 0.77436 0.0
H241 H 0.27823 0.19418 0.73142 0.0
H242 H 0.34818 0.33455 0.84578 0.0
H243 H 0.23148 0.20138 0.80231 0.0
H244 H 0.17353 0.30454 0.87077 0.0
H245 H 0.20831 0.2725 0.8113 0.0
H246 H 0.30272 0.2832 0.93493 0.0
H247 H 0.26758 0.31427 0.99499 0.0
C248 C 0.35871 0.3001 0.78038 0.0
C249 C 0.3393 0.26093 0.74735 0.0
C250 C 0.33274 0.30352 0.82143 0.0
C251 C 0.28655 0.26833 0.82942 0.0
C252 C 0.26716 0.22877 0.79685 0.0
C253 C 0.29372 0.22474 0.75649 0.0
C254 C 0.20062 0.29858 0.88585 0.0
C255 C 0.21813 0.31239 0.9374 0.0
C256 C 0.22032 0.28008 0.85187 0.0
C257 C 0.25823 0.27579 0.8687 0.0
C258 C 0.27344 0.28625 0.92129 0.0
C259 C 0.25319 0.30391 0.95559 0.0
H260 H 0.1204 0.34113 0.13919 0.0
H261 H 0.01636 0.33132 0.02955 0.0
H262 H 0.05963 0.29496 0.20329 0.0
H263 H 0.95608 0.28777 0.09374 0.0
H264 H 0.84881 0.18513 0.19773 0.0
H265 H 0.91348 0.21636 0.13602 0.0
H266 H 0.00675 0.30038 0.26125 0.0
H267 H 0.94228 0.26698 0.32345 0.0
C268 C 0.08457 0.3288 0.12876 0.0
C269 C 0.07304 0.33926 0.07931 0.0
C270 C 0.04971 0.30274 0.16557 0.0
C271 C 0.0027 0.28709 0.15366 0.0
C272 C 0.99157 0.29792 0.10399 0.0
C273 C 0.02626 0.32342 0.06726 0.0
C274 C 0.88336 0.2095 0.21222 0.0
C275 C 0.89052 0.22386 0.26522 0.0
C276 C 0.92041 0.22779 0.17679 0.0
C277 C 0.96529 0.26179 0.19326 0.0
C278 C 0.97285 0.2741 0.2471 0.0
C279 C 0.93585 0.25503 0.28282 0.0
H280 H 0.65366 0.03534 0.40168 0.0
H281 H 0.80043 0.10922 0.4386 0.0
H282 H 0.64246 0.97244 0.45944 0.0
H283 H 0.78863 0.04598 0.49865 0.0
H284 H 0.64273 0.84768 0.51756 0.0
H285 H 0.67354 0.91318 0.45731 0.0
H286 H 0.73496 0.00798 0.58838 0.0
H287 H 0.70378 0.94219 0.64959 0.0
C288 C 0.68362 0.0382 0.42225 0.0
C289 C 0.72793 0.07732 0.41583 0.0
C290 C 0.67717 0.00205 0.45518 0.0
C291 C 0.71475 0.00431 0.48307 0.0
C292 C 0.75917 0.04359 0.47742 0.0
C293 C 0.76584 0.0797 0.44338 0.0
C294 C 0.66363 0.88232 0.53375 0.0
C295 C 0.67002 0.88971 0.5886 0.0
C296 C 0.68131 0.9198 0.4991 0.0
C297 C 0.70606 0.96546 0.51841 0.0
C298 C 0.71607 0.97299 0.57265 0.0
C299 C 0.69809 0.93532 0.6076 0.0
H300 H 0.60962 0.65226 0.73804 0.0
H301 H 0.69262 0.80034 0.76361 0.0
H302 H 0.65973 0.63987 0.79768 0.0
H303 H 0.74233 0.78743 0.82561 0.0
H304 H 0.78745 0.63863 0.84989 0.0
H305 H 0.75237 0.6694 0.78998 0.0
H306 H 0.72312 0.73378 0.92088 0.0
H307 H 0.75796 0.70244 0.98194 0.0
C308 C 0.63849 0.68223 0.75662 0.0
C309 C 0.64713 0.7273 0.74631 0.0
C310 C 0.66717 0.67507 0.7907 0.0
C311 C 0.70486 0.71272 0.81585 0.0
C312 C 0.71331 0.75792 0.8066 0.0
C313 C 0.68487 0.76522 0.77144 0.0
C314 C 0.7745 0.66011 0.86614 0.0
C315 C 0.77479 0.66736 0.92095 0.0
C316 C 0.75451 0.67778 0.83166 0.0
C317 C 0.7348 0.70349 0.85104 0.0
C318 C 0.73836 0.71415 0.90515 0.0
C319 C 0.75817 0.69611 0.93998 0.0
H320 H 0.05814 0.75912 0.3079 0.0
H321 H 0.15041 0.79301 0.17428 0.0
H322 H 0.99115 0.7239 0.24767 0.0
H323 H 0.08373 0.75728 0.11506 0.0
H324 H 0.95843 0.61366 0.06236 0.0
H325 H 0.02231 0.66472 0.12023 0.0
H326 H 0.95386 0.74262 0.15552 0.0
H327 H 0.88985 0.69205 0.09518 0.0
C328 C 0.06427 0.76012 0.26579 0.0
C329 C 0.10965 0.77808 0.24604 0.0
C330 C 0.02592 0.74009 0.23142 0.0
C331 C 0.0325 0.73757 0.17699 0.0
C332 C 0.07786 0.75854 0.15699 0.0
C333 C 0.11601 0.77883 0.19105 0.0
C334 C 0.95689 0.64176 0.08211 0.0
C335 C 0.91897 0.6487 0.07448 0.0
C336 C 0.99355 0.67102 0.11515 0.0
C337 C 0.99296 0.70758 0.14201 0.0
C338 C 0.95489 0.71449 0.13518 0.0
C339 C 0.91833 0.68554 0.10097 0.0
H340 H 0.35375 0.14848 0.51269 0.0
H341 H 0.29046 0.05291 0.64271 0.0
H342 H 0.32594 0.08345 0.45174 0.0
H343 H 0.26215 0.98749 0.5806 0.0
H344 H 0.19869 0.8902 0.42414 0.0
H345 H 0.20993 0.95142 0.48735 0.0
H346 H 0.35724 0.02354 0.45562 0.0
H347 H 0.34652 0.96248 0.39464 0.0
C348 C 0.33308 0.11367 0.52828 0.0
C349 C 0.32503 0.10593 0.58285 0.0
C350 C 0.31714 0.07645 0.4932 0.0
C351 C 0.29242 0.03064 0.51168 0.0
C352 C 0.28106 0.02262 0.56552 0.0
C353 C 0.29737 0.06006 0.60096 0.0
C354 C 0.23341 0.91888 0.43132 0.0
C355 C 0.27174 0.92151 0.4047 0.0
C356 C 0.23978 0.95382 0.46722 0.0
C357 C 0.28436 0.99221 0.47577 0.0
C358 C 0.32244 0.99455 0.44918 0.0
C359 C 0.31625 0.95951 0.41435 0.0
H360 H 0.15522 0.45712 0.63525 0.0
H361 H 0.26596 0.42869 0.66939 0.0
H362 H 0.16159 0.44487 0.54166 0.0
H363 H 0.27064 0.41399 0.57585 0.0
H364 H 0.29753 0.43578 0.39787 0.0
H365 H 0.29392 0.45134 0.4914 0.0
H366 H 0.14411 0.38311 0.48092 0.0
H367 H 0.14789 0.36816 0.38727 0.0
C368 C 0.18119 0.44857 0.62283 0.0
C369 C 0.21018 0.44408 0.66007 0.0
C370 C 0.18433 0.4408 0.5691 0.0
C371 C 0.2164 0.42809 0.55105 0.0
C372 C 0.2458 0.42411 0.58817 0.0
C373 C 0.24276 0.43204 0.64197 0.0
C374 C 0.26381 0.4238 0.41567 0.0
C375 C 0.22299 0.40073 0.38508 0.0
C376 C 0.26172 0.43269 0.46935 0.0
C377 C 0.21873 0.41857 0.49386 0.0
C378 C 0.1779 0.39527 0.46324 0.0
C379 C 0.18002 0.38658 0.40952 0.0
H380 H 0.74431 0.12466 0.99004 0.0
H381 H 0.76003 0.26152 0.99341 0.0
H382 H 0.76205 0.13311 0.89597 0.0
H383 H 0.77714 0.26984 0.89901 0.0
H384 H 0.85158 0.28701 0.74156 0.0
H385 H 0.83488 0.27935 0.83582 0.0
H386 H 0.72964 0.13565 0.81226 0.0
H387 H 0.74794 0.14271 0.7184 0.0
C388 C 0.75122 0.15645 0.97056 0.0
C389 C 0.75065 0.19238 0.99922 0.0
C390 C 0.76127 0.16126 0.91653 0.0
C391 C 0.77081 0.20207 0.88965 0.0
C392 C 0.77059 0.23818 0.91847 0.0
C393 C 0.76076 0.23343 0.97261 0.0
C394 C 0.82518 0.25362 0.75653 0.0
C395 C 0.8013 0.21541 0.72226 0.0
C396 C 0.81518 0.24939 0.81058 0.0
C397 C 0.78094 0.20685 0.83186 0.0
C398 C 0.75669 0.16878 0.79748 0.0
C399 C 0.76676 0.17299 0.74343 0.0
H400 H 0.51557 0.68032 0.29877 0.0
H401 H 0.59979 0.82603 0.33739 0.0
H402 H 0.52777 0.69886 0.2052 0.0
H403 H 0.60989 0.8448 0.24358 0.0
H404 H 0.66109 0.85814 0.07328 0.0
H405 H 0.649 0.83978 0.16711 0.0
H406 H 0.50754 0.73255 0.13458 0.0
H407 H 0.51993 0.75061 0.04062 0.0
C408 C 0.53672 0.71637 0.28741 0.0
C409 C 0.55689 0.75159 0.32602 0.0
C410 C 0.54319 0.72709 0.23351 0.0
C411 C 0.56985 0.77339 0.21645 0.0
C412 C 0.58965 0.80868 0.25503 0.0
C413 C 0.58331 0.79794 0.309 0.0
C414 C 0.62728 0.83085 0.08617 0.0
C415 C 0.59149 0.80589 0.04925 0.0
C416 C 0.62029 0.82035 0.14012 0.0
C417 C 0.57722 0.7847 0.1588 0.0
C418 C 0.54142 0.75974 0.12179 0.0
C419 C 0.54849 0.77011 0.06778 0.0
H420 H 0.87083 0.61548 0.65048 0.0
H421 H 0.72873 0.50264 0.65355 0.0
H422 H 0.86342 0.62623 0.5565 0.0
H423 H 0.7214 0.51274 0.55918 0.0
H424 H 0.71045 0.57278 0.40076 0.0
H425 H 0.71696 0.56298 0.49513 0.0
H426 H 0.85749 0.59087 0.47278 0.0
H427 H 0.85181 0.60307 0.37889 0.0
C428 C 0.83807 0.59271 0.63095 0.0
C429 C 0.80043 0.5581 0.65956 0.0
C430 C 0.83383 0.59876 0.57693 0.0
C431 C 0.79189 0.57019 0.54986 0.0
C432 C 0.75406 0.53584 0.57867 0.0
C433 C 0.75824 0.52998 0.63284 0.0
C434 C 0.74296 0.57734 0.41599 0.0
C435 C 0.78068 0.58898 0.38196 0.0
C436 C 0.74649 0.5711 0.47017 0.0
C437 C 0.7878 0.57618 0.49191 0.0
C438 C 0.82534 0.58732 0.45777 0.0
C439 C 0.82185 0.59369 0.40362 0.0
H440 H 0.1268 0.73986 0.73141 0.0
H441 H 0.27132 0.83573 0.69707 0.0
H442 H 0.14497 0.74598 0.82527 0.0
H443 H 0.28903 0.84382 0.79121 0.0
H444 H 0.31475 0.81086 0.95833 0.0
H445 H 0.29592 0.80259 0.86442 0.0
H446 H 0.16616 0.79741 0.89907 0.0
H447 H 0.18483 0.80502 0.99313 0.0
C448 C 0.1625 0.76226 0.74377 0.0
C449 C 0.19759 0.78713 0.70633 0.0
C450 C 0.17282 0.76626 0.79784 0.0
C451 C 0.21851 0.79542 0.81612 0.0
C452 C 0.25355 0.82053 0.77871 0.0
C453 C 0.24326 0.81639 0.7246 0.0
C454 C 0.28228 0.80815 0.94588 0.0
C455 C 0.25137 0.80873 0.98333 0.0
C456 C 0.2715 0.80353 0.89193 0.0
C457 C 0.22958 0.79956 0.87385 0.0
C458 C 0.19847 0.79972 0.91142 0.0
C459 C 0.20917 0.80412 0.96545 0.0
H460 H 0.48622 0.23358 0.31729 0.0
H461 H 0.36924 0.25623 0.3149 0.0
H462 H 0.47626 0.21643 0.22282 0.0
H463 H 0.35863 0.23831 0.22077 0.0
H464 H 0.37944 0.24924 0.04284 0.0
H465 H 0.39216 0.26803 0.13663 0.0
H466 H 0.42713 0.16046 0.15909 0.0
H467 H 0.41681 0.14336 0.06489 0.0
C468 C 0.45803 0.23437 0.29671 0.0
C469 C 0.42863 0.24641 0.32371 0.0
C470 C 0.45224 0.22449 0.24246 0.0
C471 C 0.41669 0.22608 0.21379 0.0
C472 C 0.387 0.23764 0.24107 0.0
C473 C 0.39297 0.24779 0.2952 0.0
C474 C 0.39049 0.23 0.06758 0.0
C475 C 0.39699 0.19469 0.046 0.0
C476 C 0.39718 0.24036 0.12168 0.0
C477 C 0.41045 0.21564 0.15584 0.0
C478 C 0.41735 0.1806 0.13414 0.0
C479 C 0.4108 0.17034 0.08004 0.0
H480 H 0.22037 0.57061 0.05408 0.0
H481 H 0.14637 0.46802 0.17464 0.0
H482 H 0.21812 0.63007 0.10963 0.0
H483 H 0.14321 0.52699 0.22917 0.0
H484 H 0.10999 0.6404 0.28479 0.0
H485 H 0.10728 0.5832 0.22162 0.0
H486 H 0.25654 0.66279 0.20635 0.0
H487 H 0.25953 0.71877 0.27126 0.0
C488 C 0.20302 0.56067 0.09196 0.0
C489 C 0.18371 0.51484 0.1102 0.0
C490 C 0.20193 0.59463 0.12373 0.0
C491 C 0.18047 0.58293 0.17352 0.0
C492 C 0.15969 0.53676 0.19079 0.0
C493 C 0.16172 0.50316 0.1597 0.0
C494 C 0.14218 0.64569 0.26785 0.0
C495 C 0.18497 0.68423 0.28255 0.0
C496 C 0.14058 0.61309 0.2317 0.0
C497 C 0.18167 0.61895 0.2089 0.0
C498 C 0.22434 0.65795 0.22278 0.0
C499 C 0.22602 0.68999 0.25978 0.0
H500 H 0.70768 0.2207 0.52337 0.0
H501 H 0.60627 0.15635 0.39809 0.0
H502 H 0.64784 0.21818 0.58091 0.0
H503 H 0.54602 0.15342 0.45653 0.0
H504 H 0.45133 0.11069 0.61173 0.0
H505 H 0.50797 0.11177 0.54874 0.0
H506 H 0.59725 0.25866 0.57664 0.0
H507 H 0.54062 0.25776 0.63877 0.0
C508 C 0.67256 0.20577 0.50817 0.0
C509 C 0.66167 0.18874 0.45615 0.0
C510 C 0.63842 0.2046 0.54107 0.0
C511 C 0.59252 0.18575 0.52297 0.0
C512 C 0.58124 0.16799 0.47131 0.0
C513 C 0.61568 0.16989 0.43793 0.0
C514 C 0.48306 0.14312 0.60421 0.0
C515 C 0.49196 0.18407 0.63024 0.0
C516 C 0.51517 0.1438 0.56803 0.0
C517 C 0.5569 0.18525 0.55822 0.0
C518 C 0.56544 0.22622 0.58392 0.0
C519 C 0.53308 0.2257 0.6193 0.0
H520 H 0.27284 0.46659 0.90177 0.0
H521 H 0.36081 0.55039 0.03003 0.0
H522 H 0.32531 0.52349 0.83833 0.0
H523 H 0.41553 0.6057 0.96674 0.0
H524 H 0.48331 0.7203 0.84775 0.0
H525 H 0.42744 0.66412 0.90884 0.0
H526 H 0.39698 0.55394 0.79691 0.0
H527 H 0.45136 0.61112 0.73445 0.0
C528 C 0.30347 0.49734 0.91634 0.0
C529 C 0.31231 0.50463 0.97082 0.0
C530 C 0.33405 0.52967 0.87991 0.0
C531 C 0.37488 0.56955 0.89709 0.0
C532 C 0.384 0.57615 0.95182 0.0
C533 C 0.35286 0.54426 0.98824 0.0
C534 C 0.46458 0.68405 0.83613 0.0
C535 C 0.47178 0.67004 0.78637 0.0
C536 C 0.4327 0.65166 0.87142 0.0
C537 C 0.40778 0.60415 0.85836 0.0
C538 C 0.41488 0.59021 0.80825 0.0
C539 C 0.44624 0.6229 0.77244 0.0
H540 H 0.8835 0.34647 0.2826 0.0
H541 H 0.73667 0.28985 0.30987 0.0
H542 H 0.88198 0.39992 0.21674 0.0
H543 H 0.73533 0.34335 0.24489 0.0
H544 H 0.7726 0.48946 0.18488 0.0
H545 H 0.77573 0.43416 0.2452 0.0
H546 H 0.83943 0.39352 0.12392 0.0
H547 H 0.83596 0.44891 0.06271 0.0
C548 C 0.85104 0.34558 0.27452 0.0
C549 C 0.81028 0.31444 0.30142 0.0
C550 C 0.8501 0.37578 0.23671 0.0
C551 C 0.80857 0.37573 0.22608 0.0
C552 C 0.76783 0.34424 0.25271 0.0
C553 C 0.7686 0.31366 0.28975 0.0
C554 C 0.78741 0.4689 0.17094 0.0
C555 C 0.80404 0.47353 0.11901 0.0
C556 C 0.78895 0.43708 0.20544 0.0
C557 C 0.80774 0.40965 0.18907 0.0
C558 C 0.82496 0.41451 0.13741 0.0
C559 C 0.82271 0.44592 0.10244 0.0
H560 H 0.39262 0.84115 0.38468 0.0
H561 H 0.28979 0.78218 0.50852 0.0
H562 H 0.45179 0.84485 0.44615 0.0
H563 H 0.34836 0.78548 0.56885 0.0
H564 H 0.45014 0.74408 0.63641 0.0
H565 H 0.3963 0.7432 0.57012 0.0
H566 H 0.4902 0.88836 0.53827 0.0
H567 H 0.54436 0.88938 0.60543 0.0
C568 C 0.38263 0.82892 0.42478 0.0
C569 C 0.33651 0.81129 0.44166 0.0
C570 C 0.41648 0.8313 0.45991 0.0
C571 C 0.40446 0.81527 0.51205 0.0
C572 C 0.35844 0.79771 0.52873 0.0
C573 C 0.32496 0.79601 0.49412 0.0
C574 C 0.45938 0.7758 0.61519 0.0
C575 C 0.50111 0.81691 0.62628 0.0
C576 C 0.42857 0.77528 0.57735 0.0
C577 C 0.43909 0.81574 0.54932 0.0
C578 C 0.48145 0.85668 0.55928 0.0
C579 C 0.51212 0.85737 0.59788 0.0
H580 H 0.6487 0.54043 0.9434 0.0
H581 H 0.69989 0.44634 0.97379 0.0
H582 H 0.5923 0.48473 0.87976 0.0
H583 H 0.64334 0.39067 0.91106 0.0
H584 H 0.49581 0.28414 0.85142 0.0
H585 H 0.55251 0.34264 0.91126 0.0
H586 H 0.59512 0.44587 0.78858 0.0
H587 H 0.53847 0.38703 0.7279 0.0
C588 C 0.64775 0.50783 0.93654 0.0
C589 C 0.6783 0.49742 0.96363 0.0
C590 C 0.6158 0.47621 0.9 0.0
C591 C 0.61343 0.43341 0.89083 0.0
C592 C 0.64422 0.42326 0.91779 0.0
C593 C 0.67659 0.45512 0.95352 0.0
C594 C 0.51707 0.31929 0.83706 0.0
C595 C 0.51272 0.3309 0.78479 0.0
C596 C 0.54969 0.35269 0.87133 0.0
C597 C 0.5782 0.39863 0.85441 0.0
C598 C 0.57336 0.41066 0.80255 0.0
C599 C 0.54117 0.37697 0.76785 0.0
loop_
_geom_bond_atom_site_label_1
_geom_bond_atom_site_label_2
_geom_bond_distance
_geom_bond_site_symmetry_2
_ccdc_geom_bond_type
C0 Eu1 2.835 . S
C0 C2 1.500 . S
C0 O20 1.257 . S
C0 O21 1.260 . S
Eu1 C0 2.835 . S
Eu1 O20 2.473 . S
Eu1 O21 2.480 . S
Eu1 O22 2.430 . S
Eu1 O23 2.670 1_554 S
Eu1 O24 2.394 . S
Eu1 O29 2.355 . S
Eu1 O31 2.374 1_554 S
C2 C0 1.500 . S
C2 C3 1.377 . S
C2 C7 1.377 . S
C3 C2 1.377 . S
C3 C4 1.395 . S
C3 H32 0.931 . S
C4 C3 1.395 . S
C4 C5 1.383 . S
C4 H33 0.931 . S
C5 C4 1.383 . S
C5 C6 1.394 . S
C6 C5 1.394 . S
C6 C7 1.378 . S
C6 H34 0.931 . S
C7 C2 1.377 . S
C7 C6 1.378 . S
C7 H35 0.931 . S
C8 O22 1.259 1_556 S
C8 O23 1.270 . S
C9 O24 1.251 . S
C9 O25 1.251 . S
C10 Eu11 2.835 . S
C10 C12 1.500 . S
C10 O26 1.257 . S
C10 O27 1.260 . S
Eu11 C10 2.835 . S
Eu11 O23 2.355 . S
Eu11 O25 2.374 1_556 S
Eu11 O26 2.473 . S
Eu11 O27 2.480 . S
Eu11 O28 2.430 . S
Eu11 O29 2.670 1_556 S
Eu11 O30 2.394 . S
C12 C10 1.500 . S
C12 C13 1.377 . S
C12 C17 1.377 . S
C13 C12 1.377 . S
C13 C14 1.395 . S
C13 H36 0.931 . S
C14 C13 1.395 . S
C14 C15 1.383 . S
C14 H37 0.931 . S
C15 C14 1.383 . S
C15 C16 1.394 . S
C16 C15 1.394 . S
C16 C17 1.378 . S
C16 H38 0.931 . S
C17 C12 1.377 . S
C17 C16 1.378 . S
C17 H39 0.931 . S
C18 O28 1.259 1_554 S
C18 O29 1.270 . S
C19 O30 1.251 . S
C19 O31 1.251 . S
O20 C0 1.257 . S
O20 Eu1 2.473 . S
O21 C0 1.260 . S
O21 Eu1 2.480 . S
O22 Eu1 2.430 . S
O22 C8 1.259 1_554 S
O23 Eu1 2.670 1_556 S
O23 C8 1.270 . S
O23 Eu11 2.355 . S
O24 Eu1 2.394 . S
O24 C9 1.251 . S
O25 C9 1.251 . S
O25 Eu11 2.374 1_554 S
O26 C10 1.257 . S
O26 Eu11 2.473 . S
O27 C10 1.260 . S
O27 Eu11 2.480 . S
O28 Eu11 2.430 . S
O28 C18 1.259 1_556 S
O29 Eu1 2.355 . S
O29 Eu11 2.670 1_554 S
O29 C18 1.270 . S
O30 Eu11 2.394 . S
O30 C19 1.251 . S
O31 Eu1 2.374 1_556 S
O31 C19 1.251 . S
H32 C3 0.931 . S
H33 C4 0.931 . S
H34 C6 0.931 . S
H35 C7 0.931 . S
H36 C13 0.931 . S
H37 C14 0.931 . S
H38 C16 0.931 . S
H39 C17 0.931 . S
C40 Eu41 2.835 . S
C40 C42 1.500 . S
C40 O60 1.257 . S
C40 O61 1.260 . S
Eu41 C40 2.835 . S
Eu41 O60 2.473 . S
Eu41 O61 2.480 . S
Eu41 O62 2.430 . S
Eu41 O63 2.670 . S
Eu41 O64 2.394 . S
Eu41 O69 2.355 . S
Eu41 O71 2.374 . S
C42 C40 1.500 . S
C42 C43 1.377 . S
C42 C47 1.377 . S
C43 C42 1.377 . S
C43 C44 1.395 . S
C43 H72 0.931 . S
C44 C43 1.395 . S
C44 C45 1.383 . S
C44 H73 0.931 . S
C45 C44 1.383 . S
C45 C46 1.394 . S
C46 C45 1.394 . S
C46 C47 1.378 . S
C46 H74 0.931 . S
C47 C42 1.377 . S
C47 C46 1.378 . S
C47 H75 0.931 . S
C48 O62 1.259 . S
C48 O63 1.270 . S
C49 O64 1.251 . S
C49 O65 1.251 . S
C50 Eu51 2.835 . S
C50 C52 1.500 . S
C50 O66 1.257 . S
C50 O67 1.260 . S
Eu51 C50 2.835 . S
Eu51 O63 2.355 . S
Eu51 O65 2.374 . S
Eu51 O66 2.473 . S
Eu51 O67 2.480 . S
Eu51 O68 2.430 . S
Eu51 O69 2.670 . S
Eu51 O70 2.394 . S
C52 C50 1.500 . S
C52 C53 1.377 . S
C52 C57 1.377 . S
C53 C52 1.377 . S
C53 C54 1.395 . S
C53 H76 0.931 . S
C54 C53 1.395 . S
C54 C55 1.383 . S
C54 H77 0.931 . S
C55 C54 1.383 . S
C55 C56 1.394 . S
C56 C55 1.394 . S
C56 C57 1.378 . S
C56 H78 0.931 . S
C57 C52 1.377 . S
C57 C56 1.378 . S
C57 H79 0.931 . S
C58 O68 1.259 . S
C58 O69 1.270 . S
C59 O70 1.251 . S
C59 O71 1.251 . S
O60 C40 1.257 . S
O60 Eu41 2.473 . S
O61 C40 1.260 . S
O61 Eu41 2.480 . S
O62 Eu41 2.430 . S
O62 C48 1.259 . S
O63 Eu41 2.670 . S
O63 C48 1.270 . S
O63 Eu51 2.355 . S
O64 Eu41 2.394 . S
O64 C49 1.251 . S
O65 C49 1.251 . S
O65 Eu51 2.374 . S
O66 C50 1.257 . S
O66 Eu51 2.473 . S
O67 C50 1.260 . S
O67 Eu51 2.480 . S
O68 Eu51 2.430 . S
O68 C58 1.259 . S
O69 Eu41 2.355 . S
O69 Eu51 2.670 . S
O69 C58 1.270 . S
O70 Eu51 2.394 . S
O70 C59 1.251 . S
O71 Eu41 2.374 . S
O71 C59 1.251 . S
H72 C43 0.931 . S
H73 C44 0.931 . S
H74 C46 0.931 . S
H75 C47 0.931 . S
H76 C53 0.931 . S
H77 C54 0.931 . S
H78 C56 0.931 . S
H79 C57 0.931 . S
C80 Eu81 2.835 . S
C80 C82 1.500 . S
C80 O100 1.257 . S
C80 O101 1.260 . S
Eu81 C80 2.835 . S
Eu81 O100 2.473 . S
Eu81 O101 2.480 . S
Eu81 O102 2.430 . S
Eu81 O103 2.670 . S
Eu81 O104 2.394 . S
Eu81 O109 2.355 . S
Eu81 O111 2.374 . S
C82 C80 1.500 . S
C82 C83 1.377 . S
C82 C87 1.377 . S
C83 C82 1.377 . S
C83 C84 1.395 . S
C83 H112 0.931 . S
C84 C83 1.395 . S
C84 C85 1.390 . S
C84 H113 0.931 . S
C85 C84 1.390 . S
C85 C86 1.398 . S
C86 C85 1.398 . S
C86 C87 1.378 . S
C86 H114 0.936 . S
C87 C82 1.377 . S
C87 C86 1.378 . S
C87 H115 0.931 . S
C88 O102 1.259 . S
C88 O103 1.270 . S
C89 O104 1.251 . S
C89 O105 1.251 . S
C90 Eu91 2.835 . S
C90 C92 1.500 . S
C90 O106 1.257 . S
C90 O107 1.260 . S
Eu91 C90 2.835 . S
Eu91 O103 2.355 . S
Eu91 O105 2.374 . S
Eu91 O106 2.473 . S
Eu91 O107 2.480 . S
Eu91 O108 2.430 . S
Eu91 O109 2.670 . S
Eu91 O110 2.394 . S
C92 C90 1.500 . S
C92 C93 1.377 . S
C92 C97 1.377 . S
C93 C92 1.377 . S
C93 C94 1.395 . S
C93 H116 0.931 . S
C94 C93 1.395 . S
C94 C95 1.383 . S
C94 H117 0.931 . S
C95 C94 1.383 . S
C95 C96 1.394 . S
C96 C95 1.394 . S
C96 C97 1.378 . S
C96 H118 0.931 . S
C97 C92 1.377 . S
C97 C96 1.378 . S
C97 H119 0.931 . S
C98 O108 1.259 . S
C98 O109 1.270 . S
C99 O110 1.251 . S
C99 O111 1.251 . S
O100 C80 1.257 . S
O100 Eu81 2.473 . S
O101 C80 1.260 . S
O101 Eu81 2.480 . S
O102 Eu81 2.430 . S
O102 C88 1.259 . S
O103 Eu81 2.670 . S
O103 C88 1.270 . S
O103 Eu91 2.355 . S
O104 Eu81 2.394 . S
O104 C89 1.251 . S
O105 C89 1.251 . S
O105 Eu91 2.374 . S
O106 C90 1.257 . S
O106 Eu91 2.473 . S
O107 C90 1.260 . S
O107 Eu91 2.480 . S
O108 Eu91 2.430 . S
O108 C98 1.259 . S
O109 Eu81 2.355 . S
O109 Eu91 2.670 . S
O109 C98 1.270 . S
O110 Eu91 2.394 . S
O110 C99 1.251 . S
O111 Eu81 2.374 . S
O111 C99 1.251 . S
H112 C83 0.931 . S
H113 C84 0.931 . S
H114 C86 0.936 . S
H115 C87 0.931 . S
H116 C93 0.931 . S
H117 C94 0.931 . S
H118 C96 0.931 . S
H119 C97 0.931 . S
C120 Eu121 2.835 . S
C120 C122 1.500 . S
C120 O140 1.257 . S
C120 O141 1.260 . S
Eu121 C120 2.835 . S
Eu121 O140 2.473 . S
Eu121 O141 2.480 . S
Eu121 O142 2.430 . S
Eu121 O143 2.670 1_554 S
Eu121 O144 2.394 . S
Eu121 O149 2.355 . S
Eu121 O151 2.374 1_554 S
C122 C120 1.500 . S
C122 C123 1.377 . S
C122 C127 1.377 . S
C123 C122 1.377 . S
C123 C124 1.395 . S
C123 H152 0.931 . S
C124 C123 1.395 . S
C124 C125 1.383 . S
C124 H153 0.931 . S
C125 C124 1.383 . S
C125 C126 1.394 . S
C126 C125 1.394 . S
C126 C127 1.378 . S
C126 H154 0.931 . S
C127 C122 1.377 . S
C127 C126 1.378 . S
C127 H155 0.931 . S
C128 O142 1.259 1_556 S
C128 O143 1.270 . S
C129 O144 1.251 . S
C129 O145 1.251 . S
C130 Eu131 2.835 . S
C130 C132 1.500 . S
C130 O146 1.257 . S
C130 O147 1.260 . S
Eu131 C130 2.835 . S
Eu131 O143 2.355 . S
Eu131 O145 2.374 1_556 S
Eu131 O146 2.473 . S
Eu131 O147 2.480 . S
Eu131 O148 2.430 . S
Eu131 O149 2.670 1_556 S
Eu131 O150 2.394 . S
C132 C130 1.500 . S
C132 C133 1.377 . S
C132 C137 1.377 . S
C133 C132 1.377 . S
C133 C134 1.395 . S
C133 H156 0.931 . S
C134 C133 1.395 . S
C134 C135 1.383 . S
C134 H157 0.931 . S
C135 C134 1.383 . S
C135 C136 1.394 . S
C136 C135 1.394 . S
C136 C137 1.378 . S
C136 H158 0.931 . S
C137 C132 1.377 . S
C137 C136 1.378 . S
C137 H159 0.931 . S
C138 O148 1.259 1_554 S
C138 O149 1.270 . S
C139 O150 1.251 . S
C139 O151 1.251 . S
O140 C120 1.257 . S
O140 Eu121 2.473 . S
O141 C120 1.260 . S
O141 Eu121 2.480 . S
O142 Eu121 2.430 . S
O142 C128 1.259 1_554 S
O143 Eu121 2.670 1_556 S
O143 C128 1.270 . S
O143 Eu131 2.355 . S
O144 Eu121 2.394 . S
O144 C129 1.251 . S
O145 C129 1.251 . S
O145 Eu131 2.374 1_554 S
O146 C130 1.257 . S
O146 Eu131 2.473 . S
O147 C130 1.260 . S
O147 Eu131 2.480 . S
O148 Eu131 2.430 . S
O148 C138 1.259 1_556 S
O149 Eu121 2.355 . S
O149 Eu131 2.670 1_554 S
O149 C138 1.270 . S
O150 Eu131 2.394 . S
O150 C139 1.251 . S
O151 Eu121 2.374 1_556 S
O151 C139 1.251 . S
H152 C123 0.931 . S
H153 C124 0.931 . S
H154 C126 0.931 . S
H155 C127 0.931 . S
H156 C133 0.931 . S
H157 C134 0.931 . S
H158 C136 0.931 . S
H159 C137 0.931 . S
C160 Eu161 2.835 . S
C160 C162 1.500 . S
C160 O180 1.257 . S
C160 O181 1.260 . S
Eu161 C160 2.835 . S
Eu161 O180 2.473 . S
Eu161 O181 2.480 . S
Eu161 O182 2.430 . S
Eu161 O183 2.670 . S
Eu161 O184 2.394 . S
Eu161 O189 2.355 . S
Eu161 O191 2.374 . S
C162 C160 1.500 . S
C162 C163 1.377 . S
C162 C167 1.377 . S
C163 C162 1.377 . S
C163 C164 1.395 . S
C163 H192 0.931 . S
C164 C163 1.395 . S
C164 C165 1.383 . S
C164 H193 0.931 . S
C165 C164 1.383 . S
C165 C166 1.394 . S
C166 C165 1.394 . S
C166 C167 1.378 . S
C166 H194 0.931 . S
C167 C162 1.377 . S
C167 C166 1.378 . S
C167 H195 0.931 . S
C168 O182 1.259 . S
C168 O183 1.270 . S
C169 O184 1.251 . S
C169 O185 1.251 . S
C170 Eu171 2.835 . S
C170 C172 1.500 . S
C170 O186 1.257 . S
C170 O187 1.260 . S
Eu171 C170 2.835 . S
Eu171 O183 2.355 . S
Eu171 O185 2.374 . S
Eu171 O186 2.473 . S
Eu171 O187 2.480 . S
Eu171 O188 2.430 . S
Eu171 O189 2.670 . S
Eu171 O190 2.394 . S
C172 C170 1.500 . S
C172 C173 1.377 . S
C172 C177 1.377 . S
C173 C172 1.377 . S
C173 C174 1.395 . S
C173 H196 0.931 . S
C174 C173 1.395 . S
C174 C175 1.383 . S
C174 H197 0.931 . S
C175 C174 1.383 . S
C175 C176 1.394 . S
C176 C175 1.394 . S
C176 C177 1.378 . S
C176 H198 0.931 . S
C177 C172 1.377 . S
C177 C176 1.378 . S
C177 H199 0.931 . S
C178 O188 1.259 . S
C178 O189 1.270 . S
C179 O190 1.251 . S
C179 O191 1.251 . S
O180 C160 1.257 . S
O180 Eu161 2.473 . S
O181 C160 1.260 . S
O181 Eu161 2.480 . S
O182 Eu161 2.430 . S
O182 C168 1.259 . S
O183 Eu161 2.670 . S
O183 C168 1.270 . S
O183 Eu171 2.355 . S
O184 Eu161 2.394 . S
O184 C169 1.251 . S
O185 C169 1.251 . S
O185 Eu171 2.374 . S
O186 C170 1.257 . S
O186 Eu171 2.473 . S
O187 C170 1.260 . S
O187 Eu171 2.480 . S
O188 Eu171 2.430 . S
O188 C178 1.259 . S
O189 Eu161 2.355 . S
O189 Eu171 2.670 . S
O189 C178 1.270 . S
O190 Eu171 2.394 . S
O190 C179 1.251 . S
O191 Eu161 2.374 . S
O191 C179 1.251 . S
H192 C163 0.931 . S
H193 C164 0.931 . S
H194 C166 0.931 . S
H195 C167 0.931 . S
H196 C173 0.931 . S
H197 C174 0.931 . S
H198 C176 0.931 . S
H199 C177 0.931 . S
C200 Eu201 2.835 . S
C200 C202 1.500 . S
C200 O220 1.257 . S
C200 O221 1.260 . S
Eu201 C200 2.835 . S
Eu201 O220 2.473 . S
Eu201 O221 2.480 . S
Eu201 O222 2.430 . S
Eu201 O223 2.670 . S
Eu201 O224 2.394 . S
Eu201 O229 2.355 . S
Eu201 O231 2.374 . S
C202 C200 1.500 . S
C202 C203 1.377 . S
C202 C207 1.377 . S
C203 C202 1.377 . S
C203 C204 1.395 . S
C203 H232 0.931 . S
C204 C203 1.395 . S
C204 C205 1.390 . S
C204 H233 0.931 . S
C205 C204 1.390 . S
C205 C206 1.398 . S
C206 C205 1.398 . S
C206 C207 1.378 . S
C206 H234 0.936 . S
C207 C202 1.377 . S
C207 C206 1.378 . S
C207 H235 0.931 . S
C208 O222 1.259 . S
C208 O223 1.270 . S
C209 O224 1.251 . S
C209 O225 1.251 . S
C210 Eu211 2.835 . S
C210 C212 1.500 . S
C210 O226 1.257 . S
C210 O227 1.260 . S
Eu211 C210 2.835 . S
Eu211 O223 2.355 . S
Eu211 O225 2.374 . S
Eu211 O226 2.473 . S
Eu211 O227 2.480 . S
Eu211 O228 2.430 . S
Eu211 O229 2.670 . S
Eu211 O230 2.394 . S
C212 C210 1.500 . S
C212 C213 1.377 . S
C212 C217 1.377 . S
C213 C212 1.377 . S
C213 C214 1.395 . S
C213 H236 0.931 . S
C214 C213 1.395 . S
C214 C215 1.383 . S
C214 H237 0.931 . S
C215 C214 1.383 . S
C215 C216 1.394 . S
C216 C215 1.394 . S
C216 C217 1.378 . S
C216 H238 0.931 . S
C217 C212 1.377 . S
C217 C216 1.378 . S
C217 H239 0.931 . S
C218 O228 1.259 . S
C218 O229 1.270 . S
C219 O230 1.251 . S
C219 O231 1.251 . S
O220 C200 1.257 . S
O220 Eu201 2.473 . S
O221 C200 1.260 . S
O221 Eu201 2.480 . S
O222 Eu201 2.430 . S
O222 C208 1.259 . S
O223 Eu201 2.670 . S
O223 C208 1.270 . S
O223 Eu211 2.355 . S
O224 Eu201 2.394 . S
O224 C209 1.251 . S
O225 C209 1.251 . S
O225 Eu211 2.374 . S
O226 C210 1.257 . S
O226 Eu211 2.473 . S
O227 C210 1.260 . S
O227 Eu211 2.480 . S
O228 Eu211 2.430 . S
O228 C218 1.259 . S
O229 Eu201 2.355 . S
O229 Eu211 2.670 . S
O229 C218 1.270 . S
O230 Eu211 2.394 . S
O230 C219 1.251 . S
O231 Eu201 2.374 . S
O231 C219 1.251 . S
H232 C203 0.931 . S
H233 C204 0.931 . S
H234 C206 0.936 . S
H235 C207 0.931 . S
H236 C213 0.931 . S
H237 C214 0.931 . S
H238 C216 0.931 . S
H239 C217 0.931 . S
H240 C248 0.950 . S
H241 C253 0.950 . S
H242 C250 0.950 . S
H243 C252 0.950 . S
H244 C254 0.950 . S
H245 C256 0.950 . S
H246 C258 0.950 . S
H247 C259 0.950 . S
C248 H240 0.950 . S
C248 C249 1.386 . S
C248 C250 1.391 . S
C249 C248 1.386 . S
C249 C253 1.393 . S
C250 H242 0.950 . S
C250 C248 1.391 . S
C250 C251 1.400 . S
C251 C250 1.400 . S
C251 C252 1.398 . S
C251 C257 1.491 . S
C252 H243 0.950 . S
C252 C251 1.398 . S
C252 C253 1.391 . S
C253 H241 0.950 . S
C253 C249 1.393 . S
C253 C252 1.391 . S
C254 H244 0.950 . S
C254 C255 1.386 . S
C254 C256 1.391 . S
C255 C254 1.386 . S
C255 C259 1.393 . S
C256 H245 0.950 . S
C256 C254 1.391 . S
C256 C257 1.400 . S
C257 C251 1.491 . S
C257 C256 1.400 . S
C257 C258 1.398 . S
C258 H246 0.950 . S
C258 C257 1.398 . S
C258 C259 1.391 . S
C259 H247 0.950 . S
C259 C255 1.393 . S
C259 C258 1.391 . S
H260 C268 0.950 . S
H261 C273 0.950 . S
H262 C270 0.950 . S
H263 C272 0.950 1_655 S
H264 C274 0.950 . S
H265 C276 0.950 . S
H266 C278 0.950 1_455 S
H267 C279 0.950 . S
C268 H260 0.950 . S
C268 C269 1.386 . S
C268 C270 1.391 . S
C269 C268 1.386 . S
C269 C273 1.393 . S
C270 H262 0.950 . S
C270 C268 1.391 . S
C270 C271 1.400 . S
C271 C270 1.400 . S
C271 C272 1.398 . S
C271 C277 1.491 1_455 S
C272 H263 0.950 1_455 S
C272 C271 1.398 . S
C272 C273 1.391 . S
C273 H261 0.950 . S
C273 C269 1.393 . S
C273 C272 1.391 . S
C274 H264 0.950 . S
C274 C275 1.386 . S
C274 C276 1.391 . S
C275 C274 1.386 . S
C275 C279 1.393 . S
C276 H265 0.950 . S
C276 C274 1.391 . S
C276 C277 1.400 . S
C277 C271 1.491 1_655 S
C277 C276 1.400 . S
C277 C278 1.398 . S
C278 H266 0.950 1_655 S
C278 C277 1.398 . S
C278 C279 1.391 . S
C279 H267 0.950 . S
C279 C275 1.393 . S
C279 C278 1.391 . S
H280 C288 0.950 . S
H281 C293 0.950 . S
H282 C290 0.950 . S
H283 C292 0.976 . S
H284 C294 0.950 . S
H285 C296 0.950 . S
H286 C298 0.950 . S
H287 C299 0.950 . S
C288 H280 0.950 . S
C288 C289 1.386 . S
C288 C290 1.391 . S
C289 C288 1.386 . S
C289 C293 1.393 . S
C290 H282 0.950 . S
C290 C288 1.391 . S
C290 C291 1.400 . S
C291 C290 1.400 . S
C291 C292 1.398 . S
C291 C297 1.491 1_545 S
C292 H283 0.976 . S
C292 C291 1.398 . S
C292 C293 1.391 . S
C293 H281 0.950 . S
C293 C289 1.393 . S
C293 C292 1.391 . S
C294 H284 0.950 . S
C294 C295 1.386 . S
C294 C296 1.391 . S
C295 C294 1.386 . S
C295 C299 1.393 . S
C296 H285 0.950 . S
C296 C294 1.391 . S
C296 C297 1.400 . S
C297 C291 1.491 1_565 S
C297 C296 1.400 . S
C297 C298 1.398 . S
C298 H286 0.950 . S
C298 C297 1.398 . S
C298 C299 1.391 . S
C299 H287 0.950 . S
C299 C295 1.393 . S
C299 C298 1.391 . S
H300 C308 0.950 . S
H301 C313 0.950 . S
H302 C310 0.950 . S
H303 C312 0.950 . S
H304 C314 0.950 . S
H305 C316 0.950 . S
H306 C318 0.950 . S
H307 C319 0.950 . S
C308 H300 0.950 . S
C308 C309 1.386 . S
C308 C310 1.391 . S
C309 C308 1.386 . S
C309 C313 1.393 . S
C310 H302 0.950 . S
C310 C308 1.391 . S
C310 C311 1.400 . S
C311 C310 1.400 . S
C311 C312 1.398 . S
C311 C317 1.491 . S
C312 H303 0.950 . S
C312 C311 1.398 . S
C312 C313 1.391 . S
C313 H301 0.950 . S
C313 C309 1.393 . S
C313 C312 1.391 . S
C314 H304 0.950 . S
C314 C315 1.386 . S
C314 C316 1.391 . S
C315 C314 1.386 . S
C315 C319 1.393 . S
C316 H305 0.950 . S
C316 C314 1.391 . S
C316 C317 1.400 . S
C317 C311 1.491 . S
C317 C316 1.400 . S
C317 C318 1.398 . S
C318 H306 0.950 . S
C318 C317 1.398 . S
C318 C319 1.391 . S
C319 H307 0.950 . S
C319 C315 1.393 . S
C319 C318 1.391 . S
H320 C328 0.950 . S
H321 C333 0.950 . S
H322 C330 0.950 1_655 S
H323 C332 0.950 . S
H324 C334 0.950 . S
H325 C336 0.950 1_455 S
H326 C338 0.950 . S
H327 C339 0.950 . S
C328 H320 0.950 . S
C328 C329 1.386 . S
C328 C330 1.391 . S
C329 C328 1.386 . S
C329 C333 1.393 . S
C330 H322 0.950 1_455 S
C330 C328 1.391 . S
C330 C331 1.400 . S
C331 C330 1.400 . S
C331 C332 1.398 . S
C331 C337 1.491 1_455 S
C332 H323 0.950 . S
C332 C331 1.398 . S
C332 C333 1.391 . S
C333 H321 0.950 . S
C333 C329 1.393 . S
C333 C332 1.391 . S
C334 H324 0.950 . S
C334 C335 1.386 . S
C334 C336 1.391 . S
C335 C334 1.386 . S
C335 C339 1.393 . S
C336 H325 0.950 1_655 S
C336 C334 1.391 . S
C336 C337 1.400 . S
C337 C331 1.491 1_655 S
C337 C336 1.400 . S
C337 C338 1.398 . S
C338 H326 0.950 . S
C338 C337 1.398 . S
C338 C339 1.391 . S
C339 H327 0.950 . S
C339 C335 1.393 . S
C339 C338 1.391 . S
H340 C348 0.950 . S
H341 C353 0.950 . S
H342 C350 0.950 . S
H343 C352 0.950 . S
H344 C354 0.950 . S
H345 C356 0.950 . S
H346 C358 0.950 1_545 S
H347 C359 0.950 . S
C348 H340 0.950 . S
C348 C349 1.386 . S
C348 C350 1.391 . S
C349 C348 1.386 . S
C349 C353 1.393 . S
C350 H342 0.950 . S
C350 C348 1.391 . S
C350 C351 1.400 . S
C351 C350 1.400 . S
C351 C352 1.398 . S
C351 C357 1.491 1_545 S
C352 H343 0.950 . S
C352 C351 1.398 . S
C352 C353 1.391 . S
C353 H341 0.950 . S
C353 C349 1.393 . S
C353 C352 1.391 . S
C354 H344 0.950 . S
C354 C355 1.386 . S
C354 C356 1.391 . S
C355 C354 1.386 . S
C355 C359 1.393 . S
C356 H345 0.950 . S
C356 C354 1.391 . S
C356 C357 1.400 . S
C357 C351 1.491 1_565 S
C357 C356 1.400 . S
C357 C358 1.398 . S
C358 H346 0.950 1_565 S
C358 C357 1.398 . S
C358 C359 1.391 . S
C359 H347 0.950 . S
C359 C355 1.393 . S
C359 C358 1.391 . S
H360 C368 0.950 . S
H361 C373 0.950 . S
H362 C370 0.950 . S
H363 C372 0.950 . S
H364 C374 0.950 . S
H365 C376 0.950 . S
H366 C378 0.950 . S
H367 C379 0.950 . S
C368 H360 0.950 . S
C368 C369 1.386 . S
C368 C370 1.391 . S
C369 C368 1.386 . S
C369 C373 1.393 . S
C370 H362 0.950 . S
C370 C368 1.391 . S
C370 C371 1.400 . S
C371 C370 1.400 . S
C371 C372 1.398 . S
C371 C377 1.491 . S
C372 H363 0.950 . S
C372 C371 1.398 . S
C372 C373 1.391 . S
C373 H361 0.950 . S
C373 C369 1.393 . S
C373 C372 1.391 . S
C374 H364 0.950 . S
C374 C375 1.386 . S
C374 C376 1.391 . S
C375 C374 1.386 . S
C375 C379 1.393 . S
C376 H365 0.950 . S
C376 C374 1.391 . S
C376 C377 1.400 . S
C377 C371 1.491 . S
C377 C376 1.400 . S
C377 C378 1.398 . S
C378 H366 0.950 . S
C378 C377 1.398 . S
C378 C379 1.391 . S
C379 H367 0.950 . S
C379 C375 1.393 . S
C379 C378 1.391 . S
H380 C388 0.950 . S
H381 C393 0.950 . S
H382 C390 0.950 . S
H383 C392 0.950 . S
H384 C394 0.950 . S
H385 C396 0.950 . S
H386 C398 0.950 . S
H387 C399 0.950 . S
C388 H380 0.950 . S
C388 C389 1.386 . S
C388 C390 1.391 . S
C389 C388 1.386 . S
C389 C393 1.393 . S
C390 H382 0.950 . S
C390 C388 1.391 . S
C390 C391 1.400 . S
C391 C390 1.400 . S
C391 C392 1.398 . S
C391 C397 1.491 . S
C392 H383 0.950 . S
C392 C391 1.398 . S
C392 C393 1.391 . S
C393 H381 0.950 . S
C393 C389 1.393 . S
C393 C392 1.391 . S
C394 H384 0.950 . S
C394 C395 1.386 . S
C394 C396 1.391 . S
C395 C394 1.386 . S
C395 C399 1.393 . S
C396 H385 0.950 . S
C396 C394 1.391 . S
C396 C397 1.400 . S
C397 C391 1.491 . S
C397 C396 1.400 . S
C397 C398 1.398 . S
C398 H386 0.950 . S
C398 C397 1.398 . S
C398 C399 1.391 . S
C399 H387 0.950 . S
C399 C395 1.393 . S
C399 C398 1.391 . S
H400 C408 0.950 . S
H401 C413 0.950 . S
H402 C410 0.950 . S
H403 C412 0.950 . S
H404 C414 0.950 . S
H405 C416 0.950 . S
H406 C418 0.950 . S
H407 C419 0.950 . S
C408 H400 0.950 . S
C408 C409 1.386 . S
C408 C410 1.391 . S
C409 C408 1.386 . S
C409 C413 1.393 . S
C410 H402 0.950 . S
C410 C408 1.391 . S
C410 C411 1.400 . S
C411 C410 1.400 . S
C411 C412 1.398 . S
C411 C417 1.491 . S
C412 H403 0.950 . S
C412 C411 1.398 . S
C412 C413 1.391 . S
C413 H401 0.950 . S
C413 C409 1.393 . S
C413 C412 1.391 . S
C414 H404 0.950 . S
C414 C415 1.386 . S
C414 C416 1.391 . S
C415 C414 1.386 . S
C415 C419 1.393 . S
C416 H405 0.950 . S
C416 C414 1.391 . S
C416 C417 1.400 . S
C417 C411 1.491 . S
C417 C416 1.400 . S
C417 C418 1.398 . S
C418 H406 0.950 . S
C418 C417 1.398 . S
C418 C419 1.391 . S
C419 H407 0.950 . S
C419 C415 1.393 . S
C419 C418 1.391 . S
H420 C428 0.950 . S
H421 C433 0.950 . S
H422 C430 0.950 . S
H423 C432 0.950 . S
H424 C434 0.950 . S
H425 C436 0.950 . S
H426 C438 0.950 . S
H427 C439 0.950 . S
C428 H420 0.950 . S
C428 C429 1.386 . S
C428 C430 1.391 . S
C429 C428 1.386 . S
C429 C433 1.393 . S
C430 H422 0.950 . S
C430 C428 1.391 . S
C430 C431 1.400 . S
C431 C430 1.400 . S
C431 C432 1.398 . S
C431 C437 1.491 . S
C432 H423 0.950 . S
C432 C431 1.398 . S
C432 C433 1.391 . S
C433 H421 0.950 . S
C433 C429 1.393 . S
C433 C432 1.391 . S
C434 H424 0.950 . S
C434 C435 1.386 . S
C434 C436 1.391 . S
C435 C434 1.386 . S
C435 C439 1.393 . S
C436 H425 0.950 . S
C436 C434 1.391 . S
C436 C437 1.400 . S
C437 C431 1.491 . S
C437 C436 1.400 . S
C437 C438 1.398 . S
C438 H426 0.950 . S
C438 C437 1.398 . S
C438 C439 1.391 . S
C439 H427 0.950 . S
C439 C435 1.393 . S
C439 C438 1.391 . S
H440 C448 0.950 . S
H441 C453 0.950 . S
H442 C450 0.950 . S
H443 C452 0.950 . S
H444 C454 0.950 . S
H445 C456 0.950 . S
H446 C458 0.950 . S
H447 C459 0.950 . S
C448 H440 0.950 . S
C448 C449 1.386 . S
C448 C450 1.391 . S
C449 C448 1.386 . S
C449 C453 1.393 . S
C450 H442 0.950 . S
C450 C448 1.391 . S
C450 C451 1.400 . S
C451 C450 1.400 . S
C451 C452 1.398 . S
C451 C457 1.491 . S
C452 H443 0.950 . S
C452 C451 1.398 . S
C452 C453 1.391 . S
C453 H441 0.950 . S
C453 C449 1.393 . S
C453 C452 1.391 . S
C454 H444 0.950 . S
C454 C455 1.386 . S
C454 C456 1.391 . S
C455 C454 1.386 . S
C455 C459 1.393 . S
C456 H445 0.950 . S
C456 C454 1.391 . S
C456 C457 1.400 . S
C457 C451 1.491 . S
C457 C456 1.400 . S
C457 C458 1.398 . S
C458 H446 0.950 . S
C458 C457 1.398 . S
C458 C459 1.391 . S
C459 H447 0.950 . S
C459 C455 1.393 . S
C459 C458 1.391 . S
H460 C468 0.950 . S
H461 C473 0.950 . S
H462 C470 0.950 . S
H463 C472 0.950 . S
H464 C474 0.950 . S
H465 C476 0.950 . S
H466 C478 0.950 . S
H467 C479 0.950 . S
C468 H460 0.950 . S
C468 C469 1.386 . S
C468 C470 1.391 . S
C469 C468 1.386 . S
C469 C473 1.393 . S
C470 H462 0.950 . S
C470 C468 1.391 . S
C470 C471 1.400 . S
C471 C470 1.400 . S
C471 C472 1.398 . S
C471 C477 1.491 . S
C472 H463 0.950 . S
C472 C471 1.398 . S
C472 C473 1.391 . S
C473 H461 0.950 . S
C473 C469 1.393 . S
C473 C472 1.391 . S
C474 H464 0.950 . S
C474 C475 1.386 . S
C474 C476 1.391 . S
C475 C474 1.386 . S
C475 C479 1.393 . S
C476 H465 0.950 . S
C476 C474 1.391 . S
C476 C477 1.400 . S
C477 C471 1.491 . S
C477 C476 1.400 . S
C477 C478 1.398 . S
C478 H466 0.950 . S
C478 C477 1.398 . S
C478 C479 1.391 . S
C479 H467 0.950 . S
C479 C475 1.393 . S
C479 C478 1.391 . S
H480 C488 0.950 . S
H481 C493 0.950 . S
H482 C490 0.950 . S
H483 C492 0.950 . S
H484 C494 0.950 . S
H485 C496 0.950 . S
H486 C498 0.950 . S
H487 C499 0.950 . S
C488 H480 0.950 . S
C488 C489 1.386 . S
C488 C490 1.391 . S
C489 C488 1.386 . S
C489 C493 1.393 . S
C490 H482 0.950 . S
C490 C488 1.391 . S
C490 C491 1.400 . S
C491 C490 1.400 . S
C491 C492 1.398 . S
C491 C497 1.491 . S
C492 H483 0.950 . S
C492 C491 1.398 . S
C492 C493 1.391 . S
C493 H481 0.950 . S
C493 C489 1.393 . S
C493 C492 1.391 . S
C494 H484 0.950 . S
C494 C495 1.386 . S
C494 C496 1.391 . S
C495 C494 1.386 . S
C495 C499 1.393 . S
C496 H485 0.950 . S
C496 C494 1.391 . S
C496 C497 1.400 . S
C497 C491 1.491 . S
C497 C496 1.400 . S
C497 C498 1.398 . S
C498 H486 0.950 . S
C498 C497 1.398 . S
C498 C499 1.391 . S
C499 H487 0.950 . S
C499 C495 1.393 . S
C499 C498 1.391 . S
H500 C508 0.950 . S
H501 C513 0.950 . S
H502 C510 0.950 . S
H503 C512 0.950 . S
H504 C514 0.950 . S
H505 C516 0.950 . S
H506 C518 0.950 . S
H507 C519 0.950 . S
C508 H500 0.950 . S
C508 C509 1.386 . S
C508 C510 1.391 . S
C509 C508 1.386 . S
C509 C513 1.393 . S
C510 H502 0.950 . S
C510 C508 1.391 . S
C510 C511 1.400 . S
C511 C510 1.400 . S
C511 C512 1.398 . S
C511 C517 1.491 . S
C512 H503 0.950 . S
C512 C511 1.398 . S
C512 C513 1.391 . S
C513 H501 0.950 . S
C513 C509 1.393 . S
C513 C512 1.391 . S
C514 H504 0.950 . S
C514 C515 1.386 . S
C514 C516 1.391 . S
C515 C514 1.386 . S
C515 C519 1.393 . S
C516 H505 0.950 . S
C516 C514 1.391 . S
C516 C517 1.400 . S
C517 C511 1.491 . S
C517 C516 1.400 . S
C517 C518 1.398 . S
C518 H506 0.950 . S
C518 C517 1.398 . S
C518 C519 1.391 . S
C519 H507 0.950 . S
C519 C515 1.393 . S
C519 C518 1.391 . S
H520 C528 0.950 . S
H521 C533 0.950 . S
H522 C530 0.950 . S
H523 C532 0.950 . S
H524 C534 0.950 . S
H525 C536 0.950 . S
H526 C538 0.950 . S
H527 C539 0.950 . S
C528 H520 0.950 . S
C528 C529 1.386 . S
C528 C530 1.391 . S
C529 C528 1.386 . S
C529 C533 1.393 . S
C530 H522 0.950 . S
C530 C528 1.391 . S
C530 C531 1.400 . S
C531 C530 1.400 . S
C531 C532 1.398 . S
C531 C537 1.491 . S
C532 H523 0.950 . S
C532 C531 1.398 . S
C532 C533 1.391 . S
C533 H521 0.950 . S
C533 C529 1.393 . S
C533 C532 1.391 . S
C534 H524 0.950 . S
C534 C535 1.386 . S
C534 C536 1.391 . S
C535 C534 1.386 . S
C535 C539 1.393 . S
C536 H525 0.950 . S
C536 C534 1.391 . S
C536 C537 1.400 . S
C537 C531 1.491 . S
C537 C536 1.400 . S
C537 C538 1.398 . S
C538 H526 0.950 . S
C538 C537 1.398 . S
C538 C539 1.391 . S
C539 H527 0.950 . S
C539 C535 1.393 . S
C539 C538 1.391 . S
H540 C548 0.950 . S
H541 C553 0.950 . S
H542 C550 0.950 . S
H543 C552 0.950 . S
H544 C554 0.950 . S
H545 C556 0.950 . S
H546 C558 0.950 . S
H547 C559 0.950 . S
C548 H540 0.950 . S
C548 C549 1.386 . S
C548 C550 1.391 . S
C549 C548 1.386 . S
C549 C553 1.393 . S
C550 H542 0.950 . S
C550 C548 1.391 . S
C550 C551 1.400 . S
C551 C550 1.400 . S
C551 C552 1.398 . S
C551 C557 1.491 . S
C552 H543 0.950 . S
C552 C551 1.398 . S
C552 C553 1.391 . S
C553 H541 0.950 . S
C553 C549 1.393 . S
C553 C552 1.391 . S
C554 H544 0.950 . S
C554 C555 1.386 . S
C554 C556 1.391 . S
C555 C554 1.386 . S
C555 C559 1.393 . S
C556 H545 0.950 . S
C556 C554 1.391 . S
C556 C557 1.400 . S
C557 C551 1.491 . S
C557 C556 1.400 . S
C557 C558 1.398 . S
C558 H546 0.950 . S
C558 C557 1.398 . S
C558 C559 1.391 . S
C559 H547 0.950 . S
C559 C555 1.393 . S
C559 C558 1.391 . S
H560 C568 0.950 . S
H561 C573 0.950 . S
H562 C570 0.950 . S
H563 C572 0.950 . S
H564 C574 0.950 . S
H565 C576 0.950 . S
H566 C578 0.950 . S
H567 C579 0.950 . S
C568 H560 0.950 . S
C568 C569 1.386 . S
C568 C570 1.391 . S
C569 C568 1.386 . S
C569 C573 1.393 . S
C570 H562 0.950 . S
C570 C568 1.391 . S
C570 C571 1.400 . S
C571 C570 1.400 . S
C571 C572 1.398 . S
C571 C577 1.491 . S
C572 H563 0.950 . S
C572 C571 1.398 . S
C572 C573 1.391 . S
C573 H561 0.950 . S
C573 C569 1.393 . S
C573 C572 1.391 . S
C574 H564 0.950 . S
C574 C575 1.386 . S
C574 C576 1.391 . S
C575 C574 1.386 . S
C575 C579 1.393 . S
C576 H565 0.950 . S
C576 C574 1.391 . S
C576 C577 1.400 . S
C577 C571 1.491 . S
C577 C576 1.400 . S
C577 C578 1.398 . S
C578 H566 0.950 . S
C578 C577 1.398 . S
C578 C579 1.391 . S
C579 H567 0.950 . S
C579 C575 1.393 . S
C579 C578 1.391 . S
H580 C588 0.950 . S
H581 C593 0.950 . S
H582 C590 0.950 . S
H583 C592 0.950 . S
H584 C594 0.950 . S
H585 C596 0.950 . S
H586 C598 0.950 . S
H587 C599 0.950 . S
C588 H580 0.950 . S
C588 C589 1.386 . S
C588 C590 1.391 . S
C589 C588 1.386 . S
C589 C593 1.393 . S
C590 H582 0.950 . S
C590 C588 1.391 . S
C590 C591 1.400 . S
C591 C590 1.400 . S
C591 C592 1.398 . S
C591 C597 1.491 . S
C592 H583 0.950 . S
C592 C591 1.398 . S
C592 C593 1.391 . S
C593 H581 0.950 . S
C593 C589 1.393 . S
C593 C592 1.391 . S
C594 H584 0.950 . S
C594 C595 1.386 . S
C594 C596 1.391 . S
C595 C594 1.386 . S
C595 C599 1.393 . S
C596 H585 0.950 . S
C596 C594 1.391 . S
C596 C597 1.400 . S
C597 C591 1.491 . S
C597 C596 1.400 . S
C597 C598 1.398 . S
C598 H586 0.950 . S
C598 C597 1.398 . S
C598 C599 1.391 . S
C599 H587 0.950 . S
C599 C595 1.393 . S
C599 C598 1.391 . S
C249 C218 1.320 . S
C255 C19 1.379 . S
C269 C18 1.301 . S
C275 C59 1.383 . S
C289 C58 1.307 . S
C295 C99 1.382 . S
C309 C98 1.317 . S
C315 C139 1.380 . S
C329 C179 1.384 . S
C335 C138 1.299 . S
C349 C219 1.378 . S
C355 C178 1.328 . S
C369 C15 1.388 . S
C375 C5 1.388 . S
C389 C55 1.402 1_556 S
C395 C45 1.402 . S
C409 C95 1.377 . S
C415 C85 1.366 1_554 S
C429 C135 1.395 . S
C435 C125 1.395 . S
C449 C165 1.403 . S
C455 C175 1.403 1_556 S
C469 C215 1.383 . S
C475 C205 1.373 1_554 S
C489 C9 1.726 . S
C495 C168 1.732 . S
C509 C49 1.719 . S
C515 C208 1.725 . S
C529 C8 1.733 . S
C535 C89 1.730 . S
C549 C48 1.732 . S
C555 C129 1.729 . S
C569 C169 1.728 . S
C575 C88 1.731 . S
C589 C128 1.728 . S
C595 C209 1.725 . S
