# Generated by pormake.
# Topology hjm, (4)-cn, num edge types: 1
# Building blocks:
#     Node 0, Type 0, BuildingBlock: GALJAG_clean_sbu_0, # of connection points: 4
#     Node 1, Type 0, BuildingBlock: GALJAG_clean_sbu_0, # of connection points: 4
#     Node 2, Type 0, BuildingBlock: GALJAG_clean_sbu_0, # of connection points: 4
#     Node 3, Type 0, BuildingBlock: GALJAG_clean_sbu_0, # of connection points: 4
#     Node 4, Type 0, BuildingBlock: GALJAG_clean_sbu_0, # of connection points: 4
#     Node 5, Type 0, BuildingBlock: GALJAG_clean_sbu_0, # of connection points: 4
#     Node 6, Type 0, BuildingBlock: GALJAG_clean_sbu_0, # of connection points: 4
#     Node 7, Type 0, BuildingBlock: GALJAG_clean_sbu_0, # of connection points: 4
#     Edge 8, Type (0, 0), BuildingBlock: TEMPAE_clean_linker_10, # of connection points: 2
#     Edge 9, Type (0, 0), BuildingBlock: TEMPAE_clean_linker_10, # of connection points: 2
#     Edge 10, Type (0, 0), BuildingBlock: TEMPAE_clean_linker_10, # of connection points: 2
#     Edge 11, Type (0, 0), BuildingBlock: TEMPAE_clean_linker_10, # of connection points: 2
#     Edge 12, Type (0, 0), BuildingBlock: TEMPAE_clean_linker_10, # of connection points: 2
#     Edge 13, Type (0, 0), BuildingBlock: TEMPAE_clean_linker_10, # of connection points: 2
#     Edge 14, Type (0, 0), BuildingBlock: TEMPAE_clean_linker_10, # of connection points: 2
#     Edge 15, Type (0, 0), BuildingBlock: TEMPAE_clean_linker_10, # of connection points: 2
#     Edge 16, Type (0, 0), BuildingBlock: TEMPAE_clean_linker_10, # of connection points: 2
#     Edge 17, Type (0, 0), BuildingBlock: TEMPAE_clean_linker_10, # of connection points: 2
#     Edge 18, Type (0, 0), BuildingBlock: TEMPAE_clean_linker_10, # of connection points: 2
#     Edge 19, Type (0, 0), BuildingBlock: TEMPAE_clean_linker_10, # of connection points: 2
#     Edge 20, Type (0, 0), BuildingBlock: TEMPAE_clean_linker_10, # of connection points: 2
#     Edge 21, Type (0, 0), BuildingBlock: TEMPAE_clean_linker_10, # of connection points: 2
#     Edge 22, Type (0, 0), BuildingBlock: TEMPAE_clean_linker_10, # of connection points: 2
#     Edge 23, Type (0, 0), BuildingBlock: TEMPAE_clean_linker_10, # of connection points: 2
# Relax obj value: 0.069
# Max RMSD: 0.136
# Mean RMSD: 0.136
data_MOF--net-hjm--node1-GALJAG_clean_sbu_0--edge1-TEMPAE_clean_linker_10
_symmetry_space_group_name_H-M    P1
_symmetry_Int_Tables_number       1
_symmetry_cell_setting            triclinic
loop_
_symmetry_equiv_pos_as_xyz
'x, y, z'
_cell_length_a     25.773012
_cell_length_b     21.398688
_cell_length_c     25.836255
_cell_angle_alpha  90.062165
_cell_angle_beta   69.638284
_cell_angle_gamma 90.01802
loop_
_atom_site_label
_atom_site_type_symbol
_atom_site_fract_x
_atom_site_fract_y
_atom_site_fract_z
_atom_type_partial_charge
In0 In 0.195 0.24874 0.31547 0.0
O1 O 0.14962 0.34245 0.33304 0.0
O2 O 0.16049 0.29363 0.40016 0.0
C3 C 0.20453 0.23007 0.20958 0.0
C4 C 0.13315 0.14994 0.36547 0.0
C5 C 0.30142 0.27417 0.30118 0.0
O6 O 0.17033 0.2685 0.2403 0.0
O7 O 0.23233 0.19989 0.23281 0.0
O8 O 0.27598 0.22857 0.32997 0.0
O9 O 0.27261 0.30781 0.28154 0.0
C10 C 0.14046 0.34047 0.3843 0.0
O11 O 0.1832 0.15562 0.36152 0.0
O12 O 0.11545 0.19266 0.34239 0.0
In13 In 0.82128 0.26256 0.17986 0.0
O14 O 0.90807 0.30275 0.14347 0.0
O15 O 0.84182 0.35766 0.13728 0.0
C16 C 0.80568 0.24852 0.28789 0.0
C17 C 0.87056 0.16503 0.1161 0.0
C18 C 0.71563 0.28105 0.18691 0.0
O19 O 0.83437 0.29237 0.25943 0.0
O20 O 0.78654 0.21104 0.26146 0.0
O21 O 0.74244 0.23248 0.16567 0.0
O22 O 0.7429 0.32129 0.20245 0.0
C23 C 0.89331 0.35222 0.12616 0.0
O24 O 0.84395 0.20597 0.10042 0.0
O25 O 0.87039 0.17216 0.16468 0.0
In26 In 0.81766 0.74791 0.68787 0.0
O27 O 0.89725 0.69189 0.66363 0.0
O28 O 0.8319 0.65632 0.63961 0.0
C29 C 0.80309 0.72533 0.7943 0.0
C30 C 0.87572 0.83978 0.62147 0.0
C31 C 0.71165 0.77275 0.69978 0.0
O32 O 0.78431 0.68985 0.76595 0.0
O33 O 0.83082 0.77137 0.76839 0.0
O34 O 0.73833 0.80405 0.72348 0.0
O35 O 0.73902 0.73006 0.66826 0.0
C36 C 0.88103 0.64994 0.63846 0.0
O37 O 0.85196 0.7967 0.60494 0.0
O38 O 0.86857 0.8381 0.67233 0.0
In39 In 0.19272 0.76062 0.80383 0.0
O40 O 0.17539 0.85587 0.84683 0.0
O41 O 0.10695 0.80225 0.84434 0.0
C42 C 0.29924 0.77502 0.79538 0.0
C43 C 0.14462 0.66289 0.86787 0.0
C44 C 0.20271 0.74887 0.69669 0.0
O45 O 0.27232 0.81742 0.78198 0.0
O46 O 0.27199 0.72605 0.81424 0.0
O47 O 0.22241 0.70982 0.72128 0.0
O48 O 0.17697 0.79359 0.72638 0.0
C49 C 0.12354 0.85146 0.86039 0.0
O50 O 0.14208 0.67124 0.82043 0.0
O51 O 0.17265 0.70315 0.88247 0.0
In52 In 0.67896 0.73416 0.31347 0.0
O53 O 0.6261 0.82264 0.3334 0.0
O54 O 0.64977 0.7824 0.39708 0.0
C55 C 0.69118 0.71472 0.20708 0.0
C56 C 0.61694 0.63495 0.36215 0.0
C57 C 0.78528 0.7618 0.29769 0.0
O58 O 0.66219 0.75896 0.23496 0.0
O59 O 0.71224 0.67938 0.23349 0.0
O60 O 0.76065 0.71627 0.32721 0.0
O61 O 0.75569 0.79425 0.27813 0.0
C62 C 0.6233 0.82483 0.38316 0.0
O63 O 0.66701 0.64017 0.35823 0.0
O64 O 0.59904 0.67884 0.34047 0.0
In65 In 0.3043 0.75916 0.17791 0.0
O66 O 0.39136 0.79865 0.14153 0.0
O67 O 0.32529 0.85472 0.13646 0.0
C68 C 0.2905 0.74598 0.28576 0.0
C69 C 0.35224 0.66182 0.11299 0.0
C70 C 0.19875 0.7782 0.18459 0.0
O71 O 0.31982 0.78871 0.25623 0.0
O72 O 0.2696 0.70891 0.26052 0.0
O73 O 0.22581 0.73009 0.16259 0.0
O74 O 0.22559 0.81769 0.20148 0.0
C75 C 0.37678 0.84882 0.12517 0.0
O76 O 0.32716 0.7045 0.09745 0.0
O77 O 0.35124 0.66714 0.16203 0.0
In78 In 0.30773 0.23483 0.69073 0.0
O79 O 0.38956 0.18278 0.66243 0.0
O80 O 0.32081 0.13786 0.65081 0.0
C81 C 0.29584 0.22493 0.79801 0.0
C82 C 0.36387 0.32416 0.61993 0.0
C83 C 0.20079 0.25665 0.70402 0.0
O84 O 0.28234 0.1815 0.77206 0.0
O85 O 0.3175 0.272 0.76914 0.0
O86 O 0.22774 0.28942 0.72634 0.0
O87 O 0.22822 0.21355 0.67308 0.0
C88 C 0.37181 0.13606 0.64385 0.0
O89 O 0.33614 0.28251 0.60673 0.0
O90 O 0.3618 0.32204 0.66941 0.0
In91 In 0.68171 0.25942 0.80924 0.0
O92 O 0.63178 0.16956 0.82525 0.0
O93 O 0.6572 0.20487 0.88977 0.0
C94 C 0.69678 0.24705 0.70103 0.0
C95 C 0.61021 0.35053 0.86093 0.0
C96 C 0.78768 0.27218 0.80343 0.0
O97 O 0.71324 0.20702 0.72752 0.0
O98 O 0.67128 0.2927 0.72943 0.0
O99 O 0.76183 0.3152 0.78938 0.0
O100 O 0.75937 0.22394 0.82239 0.0
C101 C 0.63113 0.16329 0.87408 0.0
O102 O 0.66151 0.35486 0.8517 0.0
O103 O 0.59549 0.30118 0.84328 0.0
C104 C 0.03912 0.10493 0.41095 0.0
C105 C 0.09643 0.10078 0.39887 0.0
C106 C 0.00283 0.06217 0.44666 0.0
C107 C 0.02445 0.01368 0.47037 0.0
C108 C 0.08241 0.00811 0.45706 0.0
C109 C 0.11776 0.05207 0.42168 0.0
C110 C 0.94128 0.06993 0.46016 0.0
C111 C 0.10698 0.95626 0.48077 0.0
C112 C 0.92991 0.93935 0.60322 0.0
C113 C 0.91232 0.88549 0.58321 0.0
C114 C 0.9663 0.98176 0.56689 0.0
C115 C 0.98623 0.96915 0.50945 0.0
C116 C 0.96887 0.91454 0.48919 0.0
C117 C 0.93166 0.87371 0.52627 0.0
C118 C 0.98328 0.04007 0.58991 0.0
C119 C 0.9897 0.89913 0.42836 0.0
H120 H 0.02237 0.14272 0.39365 0.0
H121 H 0.16205 0.04869 0.41237 0.0
H122 H 0.92311 0.02632 0.45064 0.0
H123 H 0.92105 0.07901 0.505 0.0
H124 H 0.9313 0.109 0.43693 0.0
H125 H 0.15296 0.95698 0.46452 0.0
H126 H 0.09259 0.96053 0.52638 0.0
H127 H 0.09274 0.9102 0.47111 0.0
H128 H 0.91501 0.94849 0.64725 0.0
H129 H 0.91853 0.83177 0.5107 0.0
H130 H 0.9716 0.08211 0.57135 0.0
H131 H 0.02888 0.04107 0.57892 0.0
H132 H 0.96373 0.04321 0.63554 0.0
H133 H 0.97636 0.93589 0.40545 0.0
H134 H 0.97422 0.85326 0.41967 0.0
H135 H 0.03562 0.89826 0.41207 0.0
C136 C 0.10318 0.95858 0.90085 0.0
C137 C 0.08496 0.89814 0.8952 0.0
C138 C 0.06702 0.00244 0.93553 0.0
C139 C 0.0119 0.98465 0.96619 0.0
C140 C 0.99345 0.92354 0.9607 0.0
C141 C 0.03003 0.88128 0.92461 0.0
C142 C 0.08795 0.06749 0.93984 0.0
C143 C 0.93541 0.90239 0.99374 0.0
C144 C 0.93715 0.07612 0.09666 0.0
C145 C 0.90356 0.11598 0.07891 0.0
C146 C 0.97238 0.03284 0.06044 0.0
C147 C 0.97389 0.02935 0.00522 0.0
C148 C 0.93924 0.06857 0.98738 0.0
C149 C 0.90449 0.11157 0.02446 0.0
C150 C 0.00883 0.99185 0.08094 0.0
C151 C 0.9398 0.06617 0.9288 0.0
H152 H 0.14567 0.97164 0.87801 0.0
H153 H 0.01602 0.83433 0.92061 0.0
H154 H 0.06026 0.10284 0.93167 0.0
H155 H 0.08765 0.07572 0.98233 0.0
H156 H 0.13069 0.0751 0.91043 0.0
H157 H 0.92875 0.85217 0.98712 0.0
H158 H 0.92679 0.91009 0.03845 0.0
H159 H 0.90497 0.93041 0.98209 0.0
H160 H 0.93679 0.07957 0.13865 0.0
H161 H 0.87876 0.14249 0.01051 0.0
H162 H 0.05276 0.00537 0.06028 0.0
H163 H 0.0049 0.94223 0.07039 0.0
H164 H 0.99861 0.99583 0.12629 0.0
H165 H 0.98126 0.08007 0.89997 0.0
H166 H 0.90825 0.09757 0.92243 0.0
H167 H 0.93198 0.01781 0.91786 0.0
C168 C 0.42059 0.42148 0.59776 0.0
C169 C 0.39911 0.36907 0.57967 0.0
C170 C 0.45621 0.46297 0.55981 0.0
C171 C 0.47144 0.45097 0.50251 0.0
C172 C 0.44971 0.39813 0.48408 0.0
C173 C 0.41348 0.35798 0.52293 0.0
C174 C 0.47747 0.51971 0.58104 0.0
C175 C 0.46541 0.38338 0.42343 0.0
C176 C 0.52307 0.5897 0.40748 0.0
C177 C 0.58053 0.58439 0.39351 0.0
C178 C 0.48714 0.54565 0.44181 0.0
C179 C 0.50927 0.49463 0.46208 0.0
C180 C 0.56737 0.48738 0.44605 0.0
C181 C 0.6024 0.53277 0.41227 0.0
C182 C 0.42547 0.55526 0.45827 0.0
C183 C 0.59245 0.43262 0.46575 0.0
H184 H 0.40943 0.43017 0.64164 0.0
H185 H 0.39737 0.31706 0.50884 0.0
H186 H 0.5233 0.51826 0.56724 0.0
H187 H 0.46597 0.56282 0.56375 0.0
H188 H 0.46077 0.52293 0.62682 0.0
H189 H 0.44084 0.34407 0.41578 0.0
H190 H 0.45937 0.42495 0.40058 0.0
H191 H 0.50992 0.37078 0.40626 0.0
H192 H 0.50594 0.62959 0.39314 0.0
H193 H 0.64685 0.52831 0.40119 0.0
H194 H 0.40777 0.56533 0.50316 0.0
H195 H 0.4052 0.51224 0.45066 0.0
H196 H 0.41507 0.5945 0.4355 0.0
H197 H 0.58156 0.43526 0.51119 0.0
H198 H 0.63826 0.43131 0.4463 0.0
H199 H 0.57532 0.38812 0.45651 0.0
C200 C 0.38523 0.60936 0.02078 0.0
C201 C 0.38472 0.61294 0.07516 0.0
C202 C 0.4199 0.56685 0.98301 0.0
C203 C 0.4548 0.52723 0.00014 0.0
C204 C 0.45365 0.52989 0.05527 0.0
C205 C 0.41848 0.57261 0.09218 0.0
C206 C 0.42022 0.56539 0.92448 0.0
C207 C 0.49083 0.48898 0.07488 0.0
C208 C 0.51468 0.37976 0.92039 0.0
C209 C 0.56984 0.39734 0.89297 0.0
C210 C 0.4764 0.42197 0.95466 0.0
C211 C 0.49347 0.48364 0.96038 0.0
C212 C 0.54855 0.50246 0.93074 0.0
C213 C 0.58643 0.45866 0.89805 0.0
C214 C 0.41837 0.39983 0.98635 0.0
C215 C 0.56784 0.56833 0.93468 0.0
H216 H 0.35928 0.64061 0.00741 0.0
H217 H 0.41853 0.57549 0.13406 0.0
H218 H 0.46248 0.57551 0.89527 0.0
H219 H 0.4089 0.51804 0.91447 0.0
H220 H 0.39101 0.59979 0.91758 0.0
H221 H 0.48072 0.492 0.12026 0.0
H222 H 0.48761 0.43953 0.06344 0.0
H223 H 0.53452 0.50351 0.05433 0.0
H224 H 0.50189 0.33219 0.91667 0.0
H225 H 0.62903 0.47237 0.87653 0.0
H226 H 0.38769 0.43068 0.97786 0.0
H227 H 0.41059 0.40236 0.03134 0.0
H228 H 0.41128 0.351 0.97576 0.0
H229 H 0.53773 0.60279 0.92978 0.0
H230 H 0.60895 0.57793 0.9029 0.0
H231 H 0.57069 0.57577 0.97609 0.0
C232 C 0.91811 0.45961 0.08838 0.0
C233 C 0.93356 0.39749 0.09175 0.0
C234 C 0.95551 0.50213 0.05347 0.0
C235 C 0.00869 0.48118 0.01973 0.0
C236 C 0.02443 0.41839 0.02306 0.0
C237 C 0.98697 0.37756 0.05995 0.0
C238 C 0.93776 0.56913 0.05188 0.0
C239 C 0.08032 0.39392 0.98708 0.0
C240 C 0.07744 0.57457 0.88929 0.0
C241 C 0.11359 0.6128 0.905 0.0
C242 C 0.04395 0.53046 0.92589 0.0
C243 C 0.04681 0.52452 0.97939 0.0
C244 C 0.08457 0.5615 0.99483 0.0
C245 C 0.11752 0.60539 0.95742 0.0
C246 C 0.00445 0.49145 0.9078 0.0
C247 C 0.08929 0.55555 0.05125 0.0
H248 H 0.87683 0.47498 0.11317 0.0
H249 H 0.99881 0.32932 0.06237 0.0
H250 H 0.96972 0.60161 0.05589 0.0
H251 H 0.93309 0.57861 0.01152 0.0
H252 H 0.89791 0.5796 0.08533 0.0
H253 H 0.11271 0.41281 0.00195 0.0
H254 H 0.08216 0.34208 0.98765 0.0
H255 H 0.09041 0.40929 0.94367 0.0
H256 H 0.07427 0.58012 0.84879 0.0
H257 H 0.14563 0.63468 0.9696 0.0
H258 H 0.96132 0.50635 0.93087 0.0
H259 H 0.00781 0.44144 0.91742 0.0
H260 H 0.01216 0.49604 0.8629 0.0
H261 H 0.04829 0.56332 0.08373 0.0
H262 H 0.1194 0.58922 0.0575 0.0
H263 H 0.10258 0.50751 0.05685 0.0
C264 C 0.09279 0.44392 0.40484 0.0
C265 C 0.1052 0.38635 0.42347 0.0
C266 C 0.05684 0.48626 0.44164 0.0
C267 C 0.0319 0.46981 0.49801 0.0
C268 C 0.04474 0.41194 0.51702 0.0
C269 C 0.08161 0.37107 0.47957 0.0
C270 C 0.04558 0.54861 0.42033 0.0
C271 C 0.01872 0.39264 0.57665 0.0
C272 C 0.97438 0.60083 0.60099 0.0
C273 C 0.91836 0.60047 0.6063 0.0
C274 C 0.01174 0.55808 0.56636 0.0
C275 C 0.99238 0.51334 0.53699 0.0
C276 C 0.93546 0.51123 0.54377 0.0
C277 C 0.89911 0.55514 0.57818 0.0
C278 C 0.07187 0.56109 0.56128 0.0
C279 C 0.91316 0.46335 0.51391 0.0
H280 H 0.11124 0.45589 0.3615 0.0
H281 H 0.09083 0.32631 0.49402 0.0
H282 H 0.00087 0.5529 0.42674 0.0
H283 H 0.0562 0.58702 0.4438 0.0
H284 H 0.06961 0.55505 0.37572 0.0
H285 H 0.03553 0.34766 0.58538 0.0
H286 H 0.02577 0.42915 0.60394 0.0
H287 H 0.97331 0.38781 0.58745 0.0
H288 H 0.98942 0.63556 0.62292 0.0
H289 H 0.85578 0.55455 0.58238 0.0
H290 H 0.09942 0.55536 0.51772 0.0
H291 H 0.081 0.52234 0.58528 0.0
H292 H 0.08215 0.60583 0.57735 0.0
H293 H 0.93195 0.47061 0.46867 0.0
H294 H 0.86742 0.46588 0.52587 0.0
H295 H 0.9246 0.41558 0.52275 0.0
C296 C 0.56559 0.07346 0.89357 0.0
C297 C 0.5991 0.11364 0.91114 0.0
C298 C 0.53156 0.02923 0.92954 0.0
C299 C 0.5312 0.02503 0.98436 0.0
C300 C 0.56608 0.06431 0.00191 0.0
C301 C 0.59954 0.1084 0.96508 0.0
C302 C 0.49457 0.9886 0.90936 0.0
C303 C 0.56681 0.06117 0.06002 0.0
C304 C 0.40064 0.95644 0.08786 0.0
C305 C 0.41716 0.89503 0.09234 0.0
C306 C 0.43807 -0.0001 0.05435 0.0
C307 C 0.49279 0.98091 0.02364 0.0
C308 C 0.50978 0.91895 0.02836 0.0
C309 C 0.4719 0.87693 0.06339 0.0
C310 C 0.41875 0.06575 0.05094 0.0
C311 C 0.56743 0.89662 0.99537 0.0
H312 H 0.56492 0.07751 0.85198 0.0
H313 H 0.62535 0.13946 0.97885 0.0
H314 H 0.49602 0.93932 0.92204 0.0
H315 H 0.45113 0.00474 0.92824 0.0
H316 H 0.50622 0.99038 0.86374 0.0
H317 H 0.60035 0.09021 0.06533 0.0
H318 H 0.52657 0.07787 0.08941 0.0
H319 H 0.57228 0.01223 0.07126 0.0
H320 H 0.35836 0.97048 0.1105 0.0
H321 H 0.48464 0.82924 0.06664 0.0
H322 H 0.42147 0.07599 0.008 0.0
H323 H 0.44601 0.09956 0.06175 0.0
H324 H 0.37544 0.07348 0.07894 0.0
H325 H 0.57709 0.90654 0.95084 0.0
H326 H 0.57254 0.84571 0.00038 0.0
H327 H 0.5981 0.92219 0.00867 0.0
C328 C 0.56525 0.92152 0.40492 0.0
C329 C 0.58907 0.87102 0.423 0.0
C330 C 0.53057 0.96395 0.4428 0.0
C331 C 0.51895 0.95508 0.50007 0.0
C332 C 0.5435 0.9046 0.51842 0.0
C333 C 0.57833 0.86322 0.47964 0.0
C334 C 0.50622 0.01814 0.42157 0.0
C335 C 0.53201 0.89319 0.57899 0.0
C336 C 0.46664 0.09533 0.59368 0.0
C337 C 0.40917 0.08654 0.61162 0.0
C338 C 0.50289 0.05236 0.55807 0.0
C339 C 0.48116 0.99885 0.54062 0.0
C340 C 0.42328 0.98832 0.56047 0.0
C341 C 0.38787 0.03265 0.59544 0.0
C342 C 0.56434 0.06518 0.53783 0.0
C343 C 0.39873 0.93091 0.54385 0.0
H344 H 0.5736 0.9278 0.36113 0.0
H345 H 0.59632 0.82395 0.49388 0.0
H346 H 0.46039 0.01501 0.4377 0.0
H347 H 0.51761 0.06287 0.43661 0.0
H348 H 0.52062 0.01945 0.37575 0.0
H349 H 0.56159 0.85928 0.58585 0.0
H350 H 0.53429 0.93734 0.60059 0.0
H351 H 0.48948 0.87435 0.59813 0.0
H352 H 0.48334 0.13699 0.60598 0.0
H353 H 0.34347 0.02555 0.60946 0.0
H354 H 0.57992 0.07061 0.49228 0.0
H355 H 0.58668 0.02513 0.54754 0.0
H356 H 0.57464 0.10808 0.55651 0.0
H357 H 0.40777 0.93118 0.4986 0.0
H358 H 0.35318 0.92806 0.56504 0.0
H359 H 0.41792 0.88818 0.55359 0.0
C360 C 0.30805 0.77889 0.37092 0.0
C361 C 0.27846 0.74217 0.3458 0.0
C362 C 0.29492 0.77808 0.42836 0.0
C363 C 0.25065 0.74029 0.46132 0.0
C364 C 0.22085 0.70289 0.43609 0.0
C365 C 0.2354 0.70393 0.37853 0.0
C366 C 0.32813 0.81796 0.45381 0.0
C367 C 0.17317 0.66241 0.46993 0.0
C368 C 0.24816 0.69903 0.60481 0.0
C369 C 0.21187 0.74422 0.63719 0.0
C370 C 0.26042 0.69653 0.54758 0.0
C371 C 0.23554 0.74007 0.52226 0.0
C372 C 0.19751 0.7846 0.55497 0.0
C373 C 0.18633 0.78636 0.61213 0.0
C374 C 0.30142 0.64864 0.51408 0.0
C375 C 0.16947 0.83111 0.52948 0.0
H376 H 0.34142 0.80845 0.34566 0.0
H377 H 0.21218 0.67579 0.35925 0.0
H378 H 0.30067 0.85245 0.48258 0.0
H379 H 0.34638 0.78833 0.4783 0.0
H380 H 0.36206 0.84361 0.42229 0.0
H381 H 0.15456 0.63571 0.44385 0.0
H382 H 0.18738 0.6289 0.49491 0.0
H383 H 0.14055 0.69186 0.49914 0.0
H384 H 0.2681 0.66643 0.62402 0.0
H385 H 0.15805 0.82119 0.63711 0.0
H386 H 0.33959 0.67272 0.48774 0.0
H387 H 0.28444 0.62287 0.48625 0.0
H388 H 0.31273 0.61434 0.54061 0.0
H389 H 0.20091 0.86239 0.50105 0.0
H390 H 0.13862 0.86027 0.56103 0.0
H391 H 0.14829 0.80644 0.50465 0.0
C392 C 0.75103 0.67105 0.88255 0.0
C393 C 0.78971 0.71645 0.85418 0.0
C394 C 0.73419 0.66566 0.94014 0.0
C395 C 0.7565 0.70675 0.96991 0.0
C396 C 0.79698 0.75122 0.94128 0.0
C397 C 0.81297 0.75569 0.88369 0.0
C398 C 0.69124 0.61734 0.96913 0.0
C399 C 0.82274 0.79475 0.97157 0.0
C400 C 0.67681 0.74547 0.11988 0.0
C401 C 0.70391 0.70818 0.14708 0.0
C402 C 0.69236 0.74389 0.0622 0.0
C403 C 0.73646 0.70464 0.03114 0.0
C404 C 0.76265 0.66527 0.05856 0.0
C405 C 0.746 0.66748 0.11628 0.0
C406 C 0.66247 0.78529 0.03442 0.0
C407 C 0.80974 0.62262 0.02706 0.0
H408 H 0.73279 0.64066 0.85993 0.0
H409 H 0.84309 0.79062 0.86185 0.0
H410 H 0.70249 0.59285 0.00155 0.0
H411 H 0.65094 0.64093 0.98967 0.0
H412 H 0.68595 0.58189 0.93994 0.0
H413 H 0.85449 0.82574 0.94302 0.0
H414 H 0.79028 0.82434 0.00081 0.0
H415 H 0.84234 0.76725 0.99621 0.0
H416 H 0.64405 0.77672 0.14362 0.0
H417 H 0.76725 0.63868 0.13711 0.0
H418 H 0.64658 0.7569 0.00718 0.0
H419 H 0.69163 0.82015 0.008 0.0
H420 H 0.62724 0.8106 0.06467 0.0
H421 H 0.81686 0.58568 0.05401 0.0
H422 H 0.84817 0.65064 0.00989 0.0
H423 H 0.80185 0.59975 0.99197 0.0
C424 C 0.81907 0.2814 0.37514 0.0
C425 C 0.79186 0.24392 0.3481 0.0
C426 C 0.80371 0.27996 0.43282 0.0
C427 C 0.7596 0.24078 0.46394 0.0
C428 C 0.73243 0.20238 0.43674 0.0
C429 C 0.74917 0.20411 0.37905 0.0
C430 C 0.83419 0.32084 0.46049 0.0
C431 C 0.68483 0.16058 0.4686 0.0
C432 C 0.74863 0.199 0.60985 0.0
C433 C 0.70991 0.24293 0.64087 0.0
C434 C 0.76493 0.19749 0.55217 0.0
C435 C 0.74144 0.24052 0.52506 0.0
C436 C 0.70114 0.28385 0.55628 0.0
C437 C 0.6861 0.28481 0.61393 0.0
C438 C 0.80835 0.151 0.52019 0.0
C439 C 0.67447 0.32969 0.52875 0.0
H440 H 0.85216 0.31213 0.35124 0.0
H441 H 0.72779 0.17537 0.35825 0.0
H442 H 0.80516 0.35497 0.48815 0.0
H443 H 0.85112 0.29191 0.48652 0.0
H444 H 0.86878 0.34697 0.43023 0.0
H445 H 0.66948 0.13201 0.44101 0.0
H446 H 0.69757 0.12871 0.49585 0.0
H447 H 0.65014 0.18945 0.49551 0.0
H448 H 0.76733 0.16675 0.63056 0.0
H449 H 0.65602 0.31869 0.63788 0.0
H450 H 0.84587 0.17635 0.49407 0.0
H451 H 0.79316 0.12307 0.49217 0.0
H452 H 0.82023 0.11854 0.54769 0.0
H453 H 0.70639 0.3612 0.50122 0.0
H454 H 0.6423 0.35869 0.55912 0.0
H455 H 0.65514 0.30436 0.50261 0.0
C456 C 0.26655 0.20329 0.1146 0.0
C457 C 0.21506 0.22483 0.14992 0.0
C458 C 0.27956 0.20309 0.05725 0.0
C459 C 0.23927 0.22241 0.0349 0.0
C460 C 0.18668 0.24287 0.07047 0.0
C461 C 0.17541 0.24457 0.12769 0.0
C462 C 0.33677 0.1831 0.02068 0.0
C463 C 0.14282 0.26396 0.04799 0.0
C464 C 0.29215 0.27628 0.88585 0.0
C465 C 0.28309 0.22321 0.85829 0.0
C466 C 0.27736 0.2769 0.94343 0.0
C467 C 0.25309 0.22305 0.97411 0.0
C468 C 0.24408 0.16919 0.94651 0.0
C469 C 0.25905 0.16997 0.88884 0.0
C470 C 0.2875 0.3353 0.97142 0.0
C471 C 0.21862 0.11083 0.97793 0.0
H472 H 0.29752 0.18861 0.13169 0.0
H473 H 0.1356 0.26132 0.15504 0.0
H474 H 0.33454 0.13566 0.00419 0.0
H475 H 0.35371 0.21505 0.98496 0.0
H476 H 0.36615 0.18222 0.0435 0.0
H477 H 0.10401 0.27856 0.08112 0.0
H478 H 0.15858 0.3038 0.01942 0.0
H479 H 0.13308 0.22563 0.02387 0.0
H480 H 0.31023 0.31776 0.86247 0.0
H481 H 0.25165 0.12898 0.86771 0.0
H482 H 0.30986 0.32378 -9e-05 0.0
H483 H 0.24729 0.35637 0.99657 0.0
H484 H 0.3118 0.37076 0.94132 0.0
H485 H 0.24464 0.09336 0.00119 0.0
H486 H 0.21412 0.07298 0.95033 0.0
H487 H 0.1772 0.12169 0.00852 0.0
C488 C 0.39096 0.31743 0.23889 0.0
C489 C 0.36151 0.28368 0.28655 0.0
C490 C 0.44885 0.32131 0.22059 0.0
C491 C 0.47776 0.29207 0.25148 0.0
C492 C 0.44797 0.2606 0.3012 0.0
C493 C 0.39014 0.25591 0.31772 0.0
C494 C 0.47911 0.3555 0.16762 0.0
C495 C 0.47731 0.23088 0.33634 0.0
C496 C 0.62655 0.23963 0.18292 0.0
C497 C 0.65561 0.28734 0.19818 0.0
C498 C 0.56871 0.24166 0.19875 0.0
C499 C 0.53925 0.29238 0.23098 0.0
C500 C 0.56861 0.34189 0.24476 0.0
C501 C 0.6265 0.33885 0.22791 0.0
C502 C 0.53906 0.1891 0.18152 0.0
C503 C 0.5398 0.39853 0.27697 0.0
H504 H 0.36889 0.33887 0.21464 0.0
H505 H 0.36737 0.23019 0.35482 0.0
H506 H 0.5015 0.3961 0.17646 0.0
H507 H 0.5104 0.32439 0.13868 0.0
H508 H 0.45056 0.37245 0.14694 0.0
H509 H 0.44796 0.21485 0.37684 0.0
H510 H 0.50164 0.19006 0.31431 0.0
H511 H 0.5068 0.26452 0.34372 0.0
H512 H 0.64892 0.19994 0.15954 0.0
H513 H 0.64878 0.37628 0.23935 0.0
H514 H 0.51377 0.20815 0.1581 0.0
H515 H 0.51038 0.16527 0.21855 0.0
H516 H 0.56817 0.15385 0.15547 0.0
H517 H 0.54121 0.43679 0.24755 0.0
H518 H 0.56145 0.41544 0.30474 0.0
H519 H 0.49586 0.38956 0.30195 0.0
C520 C 0.61948 0.80876 0.76264 0.0
C521 C 0.65176 0.78132 0.71247 0.0
C522 C 0.56168 0.81134 0.77839 0.0
C523 C 0.53584 0.78738 0.74241 0.0
C524 C 0.56851 0.76217 0.69055 0.0
C525 C 0.62613 0.75851 0.67657 0.0
C526 C 0.5282 0.83764 0.83426 0.0
C527 C 0.54255 0.73719 0.65055 0.0
C528 C 0.38752 0.72995 0.79791 0.0
C529 C 0.35892 0.78041 0.786 0.0
C530 C 0.44501 0.73228 0.78502 0.0
C531 C 0.47453 0.78642 0.75964 0.0
C532 C 0.44557 0.83837 0.74915 0.0
C533 C 0.38802 0.83473 0.7626 0.0
C534 C 0.47412 0.6767 0.7985 0.0
C535 C 0.47463 0.89824 0.7243 0.0
H536 H 0.63924 0.82598 0.79068 0.0
H537 H 0.6511 0.73742 0.63771 0.0
H538 H 0.50127 0.87597 0.82954 0.0
H539 H 0.50076 0.80081 0.85974 0.0
H540 H 0.55476 0.85581 0.85678 0.0
H541 H 0.57362 0.73031 0.60857 0.0
H542 H 0.52265 0.69153 0.66561 0.0
H543 H 0.50989 0.76932 0.64763 0.0
H544 H 0.3651 0.68808 0.81652 0.0
H545 H 0.36598 0.87421 0.75394 0.0
H546 H 0.49315 0.69051 0.8293 0.0
H547 H 0.50797 0.6604 0.76109 0.0
H548 H 0.44551 0.63698 0.81537 0.0
H549 H 0.47579 0.92964 0.75807 0.0
H550 H 0.45205 0.92309 0.70085 0.0
H551 H 0.51785 0.89006 0.69659 0.0
C552 C 0.1085 0.83294 0.22873 0.0
C553 C 0.13891 0.78462 0.19498 0.0
C554 C 0.05061 0.83493 0.24481 0.0
C555 C 0.0227 0.78791 0.22611 0.0
C556 C 0.05348 0.74093 0.18969 0.0
C557 C 0.11125 0.73964 0.1748 0.0
C558 C 0.0193 0.88664 0.28261 0.0
C559 C 0.02527 0.69069 0.168 0.0
C560 C 0.87526 0.74305 0.31144 0.0
C561 C 0.84524 0.77293 0.28271 0.0
C562 C 0.93298 0.74938 0.29448 0.0
C563 C 0.96125 0.78545 0.24705 0.0
C564 C 0.93093 0.81688 0.21866 0.0
C565 C 0.87319 0.81058 0.2371 0.0
C566 C 0.96385 0.71662 0.32672 0.0
C567 C 0.95955 0.85501 0.16754 0.0
H568 H 0.12975 0.86808 0.24415 0.0
H569 H 0.13463 0.70243 0.14839 0.0
H570 H 0.0011 0.9184 0.25962 0.0
H571 H 0.9846 0.86718 0.31764 0.0
H572 H 0.04633 0.91463 0.2992 0.0
H573 H 0.0554 0.66129 0.13611 0.0
H574 H 0.00073 0.6601 0.20248 0.0
H575 H 0.99617 0.71185 0.14991 0.0
H576 H 0.85369 0.71419 0.34689 0.0
H577 H 0.85012 0.83344 0.21451 0.0
H578 H 0.9893 0.75084 0.33975 0.0
H579 H 0.9925 0.68141 0.30014 0.0
H580 H 0.93554 0.69271 0.36403 0.0
H581 H 0.98969 0.88772 0.17478 0.0
H582 H 0.92979 0.88226 0.15411 0.0
H583 H 0.98308 0.82345 0.13333 0.0
C584 C 0.10927 0.29436 0.76676 0.0
C585 C 0.1408 0.26509 0.71721 0.0
C586 C 0.05155 0.29854 0.78263 0.0
C587 C 0.02502 0.27445 0.74729 0.0
C588 C 0.05694 0.24704 0.69613 0.0
C589 C 0.1145 0.24171 0.6821 0.0
C590 C 0.01894 0.32737 0.83774 0.0
C591 C 0.03018 0.2222 0.65673 0.0
C592 C 0.87477 0.22408 0.80623 0.0
C593 C 0.84764 0.27536 0.79342 0.0
C594 C 0.93245 0.22367 0.79207 0.0
C595 C 0.9637 0.27586 0.76457 0.0
C596 C 0.93638 0.32848 0.75279 0.0
C597 C 0.87857 0.32767 0.76759 0.0
C598 C 0.95992 0.16728 0.80648 0.0
C599 C 0.96774 0.38584 0.7247 0.0
H600 H 0.12957 0.31217 0.79413 0.0
H601 H 0.13892 0.21932 0.64368 0.0
H602 H 0.99673 0.36941 0.83141 0.0
H603 H 0.9873 0.2939 0.86287 0.0
H604 H 0.04573 0.34114 0.8615 0.0
H605 H 0.06115 0.21079 0.61562 0.0
H606 H 0.00652 0.17918 0.6741 0.0
H607 H 0.00048 0.25682 0.65121 0.0
H608 H 0.851 0.18364 0.82647 0.0
H609 H 0.85776 0.36761 0.75789 0.0
H610 H 0.97937 0.18086 0.837 0.0
H611 H 0.99326 0.14938 0.76939 0.0
H612 H 0.93014 0.12875 0.82405 0.0
H613 H 0.97468 0.41668 0.75622 0.0
H614 H 0.94413 0.4129 0.7036 0.0
H615 H 0.00878 0.37365 0.69411 0.0
loop_
_geom_bond_atom_site_label_1
_geom_bond_atom_site_label_2
_geom_bond_distance
_geom_bond_site_symmetry_2
_ccdc_geom_bond_type
In0 O1 2.294 . S
In0 O2 2.326 . S
In0 O6 2.266 . S
In0 O7 2.326 . S
In0 O8 2.266 . S
In0 O9 2.326 . S
In0 O11 2.294 . S
In0 O12 2.326 . S
O1 In0 2.294 . S
O1 C10 1.240 . S
O2 In0 2.326 . S
O2 C10 1.252 . S
C3 O6 1.252 . S
C3 O7 1.260 . S
C4 O11 1.240 . S
C4 O12 1.252 . S
C5 O8 1.252 . S
C5 O9 1.260 . S
O6 In0 2.266 . S
O6 C3 1.252 . S
O7 In0 2.326 . S
O7 C3 1.260 . S
O8 In0 2.266 . S
O8 C5 1.252 . S
O9 In0 2.326 . S
O9 C5 1.260 . S
C10 O1 1.240 . S
C10 O2 1.252 . S
O11 In0 2.294 . S
O11 C4 1.240 . S
O12 In0 2.326 . S
O12 C4 1.252 . S
In13 O14 2.294 . S
In13 O15 2.326 . S
In13 O19 2.266 . S
In13 O20 2.326 . S
In13 O21 2.266 . S
In13 O22 2.326 . S
In13 O24 2.294 . S
In13 O25 2.326 . S
O14 In13 2.294 . S
O14 C23 1.240 . S
O15 In13 2.326 . S
O15 C23 1.252 . S
C16 O19 1.252 . S
C16 O20 1.260 . S
C17 O24 1.240 . S
C17 O25 1.252 . S
C18 O21 1.252 . S
C18 O22 1.260 . S
O19 In13 2.266 . S
O19 C16 1.252 . S
O20 In13 2.326 . S
O20 C16 1.260 . S
O21 In13 2.266 . S
O21 C18 1.252 . S
O22 In13 2.326 . S
O22 C18 1.260 . S
C23 O14 1.240 . S
C23 O15 1.252 . S
O24 In13 2.294 . S
O24 C17 1.240 . S
O25 In13 2.326 . S
O25 C17 1.252 . S
In26 O27 2.294 . S
In26 O28 2.326 . S
In26 O32 2.266 . S
In26 O33 2.326 . S
In26 O34 2.266 . S
In26 O35 2.326 . S
In26 O37 2.294 . S
In26 O38 2.326 . S
O27 In26 2.294 . S
O27 C36 1.240 . S
O28 In26 2.326 . S
O28 C36 1.252 . S
C29 O32 1.252 . S
C29 O33 1.260 . S
C30 O37 1.240 . S
C30 O38 1.252 . S
C31 O34 1.252 . S
C31 O35 1.260 . S
O32 In26 2.266 . S
O32 C29 1.252 . S
O33 In26 2.326 . S
O33 C29 1.260 . S
O34 In26 2.266 . S
O34 C31 1.252 . S
O35 In26 2.326 . S
O35 C31 1.260 . S
C36 O27 1.240 . S
C36 O28 1.252 . S
O37 In26 2.294 . S
O37 C30 1.240 . S
O38 In26 2.326 . S
O38 C30 1.252 . S
In39 O40 2.294 . S
In39 O41 2.326 . S
In39 O45 2.266 . S
In39 O46 2.326 . S
In39 O47 2.266 . S
In39 O48 2.326 . S
In39 O50 2.294 . S
In39 O51 2.326 . S
O40 In39 2.294 . S
O40 C49 1.240 . S
O41 In39 2.326 . S
O41 C49 1.252 . S
C42 O45 1.252 . S
C42 O46 1.260 . S
C43 O50 1.240 . S
C43 O51 1.252 . S
C44 O47 1.252 . S
C44 O48 1.260 . S
O45 In39 2.266 . S
O45 C42 1.252 . S
O46 In39 2.326 . S
O46 C42 1.260 . S
O47 In39 2.266 . S
O47 C44 1.252 . S
O48 In39 2.326 . S
O48 C44 1.260 . S
C49 O40 1.240 . S
C49 O41 1.252 . S
O50 In39 2.294 . S
O50 C43 1.240 . S
O51 In39 2.326 . S
O51 C43 1.252 . S
In52 O53 2.294 . S
In52 O54 2.326 . S
In52 O58 2.266 . S
In52 O59 2.326 . S
In52 O60 2.266 . S
In52 O61 2.326 . S
In52 O63 2.294 . S
In52 O64 2.326 . S
O53 In52 2.294 . S
O53 C62 1.240 . S
O54 In52 2.326 . S
O54 C62 1.252 . S
C55 O58 1.252 . S
C55 O59 1.260 . S
C56 O63 1.240 . S
C56 O64 1.252 . S
C57 O60 1.252 . S
C57 O61 1.260 . S
O58 In52 2.266 . S
O58 C55 1.252 . S
O59 In52 2.326 . S
O59 C55 1.260 . S
O60 In52 2.266 . S
O60 C57 1.252 . S
O61 In52 2.326 . S
O61 C57 1.260 . S
C62 O53 1.240 . S
C62 O54 1.252 . S
O63 In52 2.294 . S
O63 C56 1.240 . S
O64 In52 2.326 . S
O64 C56 1.252 . S
In65 O66 2.294 . S
In65 O67 2.326 . S
In65 O71 2.266 . S
In65 O72 2.326 . S
In65 O73 2.266 . S
In65 O74 2.326 . S
In65 O76 2.294 . S
In65 O77 2.326 . S
O66 In65 2.294 . S
O66 C75 1.240 . S
O67 In65 2.326 . S
O67 C75 1.252 . S
C68 O71 1.252 . S
C68 O72 1.260 . S
C69 O76 1.240 . S
C69 O77 1.252 . S
C70 O73 1.252 . S
C70 O74 1.260 . S
O71 In65 2.266 . S
O71 C68 1.252 . S
O72 In65 2.326 . S
O72 C68 1.260 . S
O73 In65 2.266 . S
O73 C70 1.252 . S
O74 In65 2.326 . S
O74 C70 1.260 . S
C75 O66 1.240 . S
C75 O67 1.252 . S
O76 In65 2.294 . S
O76 C69 1.240 . S
O77 In65 2.326 . S
O77 C69 1.252 . S
In78 O79 2.294 . S
In78 O80 2.326 . S
In78 O84 2.266 . S
In78 O85 2.326 . S
In78 O86 2.266 . S
In78 O87 2.326 . S
In78 O89 2.294 . S
In78 O90 2.326 . S
O79 In78 2.294 . S
O79 C88 1.240 . S
O80 In78 2.326 . S
O80 C88 1.252 . S
C81 O84 1.252 . S
C81 O85 1.260 . S
C82 O89 1.240 . S
C82 O90 1.252 . S
C83 O86 1.252 . S
C83 O87 1.260 . S
O84 In78 2.266 . S
O84 C81 1.252 . S
O85 In78 2.326 . S
O85 C81 1.260 . S
O86 In78 2.266 . S
O86 C83 1.252 . S
O87 In78 2.326 . S
O87 C83 1.260 . S
C88 O79 1.240 . S
C88 O80 1.252 . S
O89 In78 2.294 . S
O89 C82 1.240 . S
O90 In78 2.326 . S
O90 C82 1.252 . S
In91 O92 2.294 . S
In91 O93 2.326 . S
In91 O97 2.266 . S
In91 O98 2.326 . S
In91 O99 2.266 . S
In91 O100 2.326 . S
In91 O102 2.294 . S
In91 O103 2.326 . S
O92 In91 2.294 . S
O92 C101 1.240 . S
O93 In91 2.326 . S
O93 C101 1.252 . S
C94 O97 1.252 . S
C94 O98 1.260 . S
C95 O102 1.240 . S
C95 O103 1.252 . S
C96 O99 1.252 . S
C96 O100 1.260 . S
O97 In91 2.266 . S
O97 C94 1.252 . S
O98 In91 2.326 . S
O98 C94 1.260 . S
O99 In91 2.266 . S
O99 C96 1.252 . S
O100 In91 2.326 . S
O100 C96 1.260 . S
C101 O92 1.240 . S
C101 O93 1.252 . S
O102 In91 2.294 . S
O102 C95 1.240 . S
O103 In91 2.326 . S
O103 C95 1.252 . S
C104 C105 1.391 . S
C104 C106 1.394 1_455 S
C104 H120 0.931 1_455 S
C105 C104 1.391 . S
C105 C109 1.376 . S
C106 C104 1.394 1_655 S
C106 C107 1.369 1_655 S
C106 C110 1.531 . S
C107 C106 1.369 1_455 S
C107 C108 1.410 . S
C107 C115 1.503 1_445 S
C108 C107 1.410 . S
C108 C109 1.392 . S
C108 C111 1.511 1_545 S
C109 C105 1.376 . S
C109 C108 1.392 . S
C109 H121 0.929 . S
C110 C106 1.531 . S
C110 H122 0.960 . S
C110 H123 0.962 . S
C110 H124 0.960 . S
C111 C108 1.511 1_565 S
C111 H125 0.961 1_565 S
C111 H126 0.961 . S
C111 H127 0.961 . S
C112 C113 1.370 . S
C112 C114 1.363 . S
C112 H128 0.931 . S
C113 C112 1.370 . S
C113 C117 1.408 . S
C114 C112 1.363 . S
C114 C115 1.370 . S
C114 C118 1.524 1_565 S
C115 C107 1.503 1_665 S
C115 C114 1.370 . S
C115 C116 1.403 . S
C116 C115 1.403 . S
C116 C117 1.404 . S
C116 C119 1.539 1_655 S
C117 C113 1.408 . S
C117 C116 1.404 . S
C117 H129 0.930 . S
C118 C114 1.524 1_545 S
C118 H130 0.956 . S
C118 H131 0.961 1_655 S
C118 H132 0.961 . S
C119 C116 1.539 1_455 S
C119 H133 0.958 1_455 S
C119 H134 0.961 . S
C119 H135 0.960 . S
H120 C104 0.931 1_655 S
H121 C109 0.929 . S
H122 C110 0.960 . S
H123 C110 0.962 . S
H124 C110 0.960 . S
H125 C111 0.961 1_545 S
H126 C111 0.961 . S
H127 C111 0.961 . S
H128 C112 0.931 . S
H129 C117 0.930 . S
H130 C118 0.956 . S
H131 C118 0.961 1_455 S
H132 C118 0.961 . S
H133 C119 0.958 1_655 S
H134 C119 0.961 . S
H135 C119 0.960 . S
C136 C137 1.391 . S
C136 C138 1.394 . S
C136 H152 0.931 . S
C137 C136 1.391 . S
C137 C141 1.376 . S
C138 C136 1.394 . S
C138 C139 1.369 . S
C138 C142 1.531 1_565 S
C139 C138 1.369 . S
C139 C140 1.405 1_556 S
C139 C147 1.503 1_466 S
C140 C139 1.405 1_554 S
C140 C141 1.388 1_554 S
C140 C143 1.520 1_455 S
C141 C137 1.376 . S
C141 C140 1.388 1_556 S
C141 H153 0.929 . S
C142 C138 1.531 1_545 S
C142 H154 0.960 1_455 S
C142 H155 0.962 . S
C142 H156 0.960 . S
C143 C140 1.520 1_655 S
C143 H157 0.961 . S
C143 H158 0.961 . S
C143 H159 0.961 . S
C144 C145 1.370 . S
C144 C146 1.363 1_655 S
C144 H160 0.931 1_655 S
C145 C144 1.370 . S
C145 C149 1.408 . S
C146 C144 1.363 1_455 S
C146 C147 1.370 1_455 S
C146 C150 1.524 . S
C147 C139 1.503 1_644 S
C147 C146 1.370 1_655 S
C147 C148 1.403 . S
C148 C147 1.403 . S
C148 C149 1.404 . S
C148 C151 1.539 1_545 S
C149 C145 1.408 . S
C149 C148 1.404 . S
C149 H161 0.930 . S
C150 C146 1.524 . S
C150 H162 0.956 1_554 S
C150 H163 0.956 1_545 S
C150 H164 0.961 . S
C151 C148 1.539 1_565 S
C151 H165 0.958 1_564 S
C151 H166 0.961 . S
C151 H167 0.960 1_554 S
H152 C136 0.931 . S
H153 C141 0.929 . S
H154 C142 0.960 1_655 S
H155 C142 0.962 . S
H156 C142 0.960 . S
H157 C143 0.961 . S
H158 C143 0.961 . S
H159 C143 0.961 . S
H160 C144 0.931 1_455 S
H161 C149 0.930 . S
H162 C150 0.956 1_556 S
H163 C150 0.956 1_565 S
H164 C150 0.961 . S
H165 C151 0.958 1_546 S
H166 C151 0.961 . S
H167 C151 0.960 1_556 S
C168 C169 1.391 . S
C168 C170 1.394 . S
C168 H184 0.931 . S
C169 C168 1.391 . S
C169 C173 1.376 . S
C170 C168 1.394 . S
C170 C171 1.369 . S
C170 C174 1.531 . S
C171 C170 1.369 . S
C171 C172 1.410 . S
C171 C179 1.503 . S
C172 C171 1.410 . S
C172 C173 1.392 . S
C172 C175 1.511 . S
C173 C169 1.376 . S
C173 C172 1.392 . S
C173 H185 0.929 . S
C174 C170 1.531 . S
C174 H186 0.960 . S
C174 H187 0.962 . S
C174 H188 0.960 . S
C175 C172 1.511 . S
C175 H189 0.961 . S
C175 H190 0.961 . S
C175 H191 0.961 . S
C176 C177 1.370 . S
C176 C178 1.363 . S
C176 H192 0.931 . S
C177 C176 1.370 . S
C177 C181 1.408 . S
C178 C176 1.363 . S
C178 C179 1.370 . S
C178 C182 1.524 . S
C179 C171 1.503 . S
C179 C178 1.370 . S
C179 C180 1.403 . S
C180 C179 1.403 . S
C180 C181 1.404 . S
C180 C183 1.539 . S
C181 C177 1.408 . S
C181 C180 1.404 . S
C181 H193 0.930 . S
C182 C178 1.524 . S
C182 H194 0.956 . S
C182 H195 0.961 . S
C182 H196 0.961 . S
C183 C180 1.539 . S
C183 H197 0.958 . S
C183 H198 0.961 . S
C183 H199 0.960 . S
H184 C168 0.931 . S
H185 C173 0.929 . S
H186 C174 0.960 . S
H187 C174 0.962 . S
H188 C174 0.960 . S
H189 C175 0.961 . S
H190 C175 0.961 . S
H191 C175 0.961 . S
H192 C176 0.931 . S
H193 C181 0.930 . S
H194 C182 0.956 . S
H195 C182 0.961 . S
H196 C182 0.961 . S
H197 C183 0.958 . S
H198 C183 0.961 . S
H199 C183 0.960 . S
C200 C201 1.391 . S
C200 C202 1.394 . S
C200 H216 0.931 . S
C201 C200 1.391 . S
C201 C205 1.376 . S
C202 C200 1.394 . S
C202 C203 1.369 . S
C202 C206 1.531 1_554 S
C203 C202 1.369 . S
C203 C204 1.410 . S
C203 C211 1.503 1_554 S
C204 C203 1.410 . S
C204 C205 1.392 . S
C204 C207 1.511 . S
C205 C201 1.376 . S
C205 C204 1.392 . S
C205 H217 0.929 . S
C206 C202 1.531 1_556 S
C206 H218 0.960 . S
C206 H219 0.962 . S
C206 H220 0.960 . S
C207 C204 1.511 . S
C207 H221 0.961 . S
C207 H222 0.961 . S
C207 H223 0.961 . S
C208 C209 1.370 . S
C208 C210 1.363 . S
C208 H224 0.931 . S
C209 C208 1.370 . S
C209 C213 1.408 . S
C210 C208 1.363 . S
C210 C211 1.370 . S
C210 C214 1.524 1_556 S
C211 C203 1.503 1_556 S
C211 C210 1.370 . S
C211 C212 1.403 . S
C212 C211 1.403 . S
C212 C213 1.404 . S
C212 C215 1.539 . S
C213 C209 1.408 . S
C213 C212 1.404 . S
C213 H225 0.930 . S
C214 C210 1.524 1_554 S
C214 H226 0.956 . S
C214 H227 0.961 . S
C214 H228 0.961 . S
C215 C212 1.539 . S
C215 H229 0.958 . S
C215 H230 0.961 . S
C215 H231 0.960 . S
H216 C200 0.931 . S
H217 C205 0.929 . S
H218 C206 0.960 . S
H219 C206 0.962 . S
H220 C206 0.960 . S
H221 C207 0.961 . S
H222 C207 0.961 . S
H223 C207 0.961 . S
H224 C208 0.931 . S
H225 C213 0.930 . S
H226 C214 0.956 . S
H227 C214 0.961 . S
H228 C214 0.961 . S
H229 C215 0.958 . S
H230 C215 0.961 . S
H231 C215 0.960 . S
C232 C233 1.391 . S
C232 C234 1.394 . S
C232 H248 0.931 . S
C233 C232 1.391 . S
C233 C237 1.376 . S
C234 C232 1.394 . S
C234 C235 1.369 . S
C234 C238 1.531 . S
C235 C234 1.369 . S
C235 C236 1.410 . S
C235 C243 1.503 1_654 S
C236 C235 1.410 . S
C236 C237 1.392 . S
C236 C239 1.511 1_655 S
C237 C233 1.376 . S
C237 C236 1.392 . S
C237 H249 0.929 . S
C238 C234 1.531 . S
C238 H250 0.960 . S
C238 H251 0.962 1_554 S
C238 H252 0.960 . S
C239 C236 1.511 1_455 S
C239 H253 0.961 . S
C239 H254 0.961 1_554 S
C239 H255 0.961 . S
C240 C241 1.370 . S
C240 C242 1.363 . S
C240 H256 0.931 . S
C241 C240 1.370 . S
C241 C245 1.408 . S
C242 C240 1.363 . S
C242 C243 1.370 . S
C242 C246 1.524 . S
C243 C235 1.503 1_456 S
C243 C242 1.370 . S
C243 C244 1.403 1_556 S
C244 C243 1.403 1_554 S
C244 C245 1.404 1_554 S
C244 C247 1.539 . S
C245 C241 1.408 . S
C245 C244 1.404 1_556 S
C245 H257 0.930 . S
C246 C242 1.524 . S
C246 H258 0.956 1_455 S
C246 H259 0.961 . S
C246 H260 0.961 . S
C247 C244 1.539 . S
C247 H261 0.967 . S
C247 H262 0.961 . S
C247 H263 0.960 . S
H248 C232 0.931 . S
H249 C237 0.929 . S
H250 C238 0.960 . S
H251 C238 0.962 1_556 S
H252 C238 0.960 . S
H253 C239 0.961 . S
H254 C239 0.961 1_556 S
H255 C239 0.961 . S
H256 C240 0.931 . S
H257 C245 0.930 . S
H258 C246 0.956 1_655 S
H259 C246 0.961 . S
H260 C246 0.961 . S
H261 C247 0.967 . S
H262 C247 0.961 . S
H263 C247 0.960 . S
C264 C265 1.391 . S
C264 C266 1.394 . S
C264 H280 0.931 . S
C265 C264 1.391 . S
C265 C269 1.376 . S
C266 C264 1.394 . S
C266 C267 1.369 . S
C266 C270 1.531 . S
C267 C266 1.369 . S
C267 C268 1.410 . S
C267 C275 1.503 1_455 S
C268 C267 1.410 . S
C268 C269 1.392 . S
C268 C271 1.511 1_455 S
C269 C265 1.376 . S
C269 C268 1.392 . S
C269 H281 0.929 . S
C270 C266 1.531 . S
C270 H282 0.960 . S
C270 H283 0.962 . S
C270 H284 0.960 . S
C271 C268 1.511 1_655 S
C271 H285 0.961 . S
C271 H286 0.961 . S
C271 H287 0.961 . S
C272 C273 1.370 . S
C272 C274 1.363 . S
C272 H288 0.931 . S
C273 C272 1.370 . S
C273 C277 1.408 . S
C274 C272 1.363 . S
C274 C275 1.370 . S
C274 C278 1.524 1_655 S
C275 C267 1.503 1_655 S
C275 C274 1.370 . S
C275 C276 1.403 . S
C276 C275 1.403 . S
C276 C277 1.404 . S
C276 C279 1.539 . S
C277 C273 1.408 . S
C277 C276 1.404 . S
C277 H289 0.930 . S
C278 C274 1.524 1_455 S
C278 H290 0.956 . S
C278 H291 0.961 . S
C278 H292 0.961 . S
C279 C276 1.539 . S
C279 H293 0.958 . S
C279 H294 0.961 . S
C279 H295 0.960 . S
H280 C264 0.931 . S
H281 C269 0.929 . S
H282 C270 0.960 . S
H283 C270 0.962 . S
H284 C270 0.960 . S
H285 C271 0.961 . S
H286 C271 0.961 . S
H287 C271 0.961 . S
H288 C272 0.931 . S
H289 C277 0.930 . S
H290 C278 0.956 . S
H291 C278 0.961 . S
H292 C278 0.961 . S
H293 C279 0.958 . S
H294 C279 0.961 . S
H295 C279 0.960 . S
C296 C297 1.391 . S
C296 C298 1.394 . S
C296 H312 0.931 . S
C297 C296 1.391 . S
C297 C301 1.376 . S
C298 C296 1.394 . S
C298 C299 1.369 . S
C298 C302 1.531 1_545 S
C299 C298 1.369 . S
C299 C300 1.410 1_556 S
C299 C307 1.503 1_546 S
C300 C299 1.410 1_554 S
C300 C301 1.392 1_554 S
C300 C303 1.511 . S
C301 C297 1.376 . S
C301 C300 1.392 1_556 S
C301 H313 0.929 . S
C302 C298 1.531 1_565 S
C302 H314 0.960 . S
C302 H315 0.968 . S
C302 H316 0.960 . S
C303 C300 1.511 . S
C303 H317 0.961 . S
C303 H318 0.961 . S
C303 H319 0.961 . S
C304 C305 1.370 . S
C304 C306 1.363 . S
C304 H320 0.931 . S
C305 C304 1.370 . S
C305 C309 1.408 . S
C306 C304 1.363 . S
C306 C307 1.370 . S
C306 C310 1.524 1_565 S
C307 C299 1.503 1_564 S
C307 C306 1.370 . S
C307 C308 1.403 . S
C308 C307 1.403 . S
C308 C309 1.404 . S
C308 C311 1.539 1_554 S
C309 C305 1.408 . S
C309 C308 1.404 . S
C309 H321 0.930 . S
C310 C306 1.524 1_545 S
C310 H322 0.956 1_554 S
C310 H323 0.961 . S
C310 H324 0.961 . S
C311 C308 1.539 1_556 S
C311 H325 0.958 . S
C311 H326 0.961 1_556 S
C311 H327 0.960 . S
H312 C296 0.931 . S
H313 C301 0.929 . S
H314 C302 0.960 . S
H315 C302 0.968 . S
H316 C302 0.960 . S
H317 C303 0.961 . S
H318 C303 0.961 . S
H319 C303 0.961 . S
H320 C304 0.931 . S
H321 C309 0.930 . S
H322 C310 0.956 1_556 S
H323 C310 0.961 . S
H324 C310 0.961 . S
H325 C311 0.958 . S
H326 C311 0.961 1_554 S
H327 C311 0.960 . S
C328 C329 1.391 . S
C328 C330 1.394 . S
C328 H344 0.931 . S
C329 C328 1.391 . S
C329 C333 1.376 . S
C330 C328 1.394 . S
C330 C331 1.369 . S
C330 C334 1.531 1_565 S
C331 C330 1.369 . S
C331 C332 1.410 . S
C331 C339 1.503 1_565 S
C332 C331 1.410 . S
C332 C333 1.392 . S
C332 C335 1.511 . S
C333 C329 1.376 . S
C333 C332 1.392 . S
C333 H345 0.929 . S
C334 C330 1.531 1_545 S
C334 H346 0.960 . S
C334 H347 0.962 . S
C334 H348 0.960 . S
C335 C332 1.511 . S
C335 H349 0.961 . S
C335 H350 0.961 . S
C335 H351 0.961 . S
C336 C337 1.370 . S
C336 C338 1.363 . S
C336 H352 0.931 . S
C337 C336 1.370 . S
C337 C341 1.408 . S
C338 C336 1.363 . S
C338 C339 1.370 . S
C338 C342 1.524 . S
C339 C331 1.503 1_545 S
C339 C338 1.370 . S
C339 C340 1.403 . S
C340 C339 1.403 . S
C340 C341 1.404 . S
C340 C343 1.539 1_545 S
C341 C337 1.408 . S
C341 C340 1.404 . S
C341 H353 0.930 . S
C342 C338 1.524 . S
C342 H354 0.956 . S
C342 H355 0.961 . S
C342 H356 0.961 . S
C343 C340 1.539 1_565 S
C343 H357 0.958 . S
C343 H358 0.961 . S
C343 H359 0.960 . S
H344 C328 0.931 . S
H345 C333 0.929 . S
H346 C334 0.960 . S
H347 C334 0.962 . S
H348 C334 0.960 . S
H349 C335 0.961 . S
H350 C335 0.961 . S
H351 C335 0.961 . S
H352 C336 0.931 . S
H353 C341 0.930 . S
H354 C342 0.956 . S
H355 C342 0.961 . S
H356 C342 0.961 . S
H357 C343 0.958 . S
H358 C343 0.961 . S
H359 C343 0.960 . S
C360 C361 1.391 . S
C360 C362 1.394 . S
C360 H376 0.931 . S
C361 C360 1.391 . S
C361 C365 1.376 . S
C362 C360 1.394 . S
C362 C363 1.369 . S
C362 C366 1.531 . S
C363 C362 1.369 . S
C363 C364 1.410 . S
C363 C371 1.503 . S
C364 C363 1.410 . S
C364 C365 1.392 . S
C364 C367 1.511 . S
C365 C361 1.376 . S
C365 C364 1.392 . S
C365 H377 0.929 . S
C366 C362 1.531 . S
C366 H378 0.960 . S
C366 H379 0.962 . S
C366 H380 0.960 . S
C367 C364 1.511 . S
C367 H381 0.961 . S
C367 H382 0.961 . S
C367 H383 0.961 . S
C368 C369 1.370 . S
C368 C370 1.363 . S
C368 H384 0.931 . S
C369 C368 1.370 . S
C369 C373 1.408 . S
C370 C368 1.363 . S
C370 C371 1.370 . S
C370 C374 1.524 . S
C371 C363 1.503 . S
C371 C370 1.370 . S
C371 C372 1.403 . S
C372 C371 1.403 . S
C372 C373 1.404 . S
C372 C375 1.539 . S
C373 C369 1.408 . S
C373 C372 1.404 . S
C373 H385 0.930 . S
C374 C370 1.524 . S
C374 H386 0.956 . S
C374 H387 0.961 . S
C374 H388 0.961 . S
C375 C372 1.539 . S
C375 H389 0.958 . S
C375 H390 0.961 . S
C375 H391 0.960 . S
H376 C360 0.931 . S
H377 C365 0.929 . S
H378 C366 0.960 . S
H379 C366 0.962 . S
H380 C366 0.960 . S
H381 C367 0.961 . S
H382 C367 0.961 . S
H383 C367 0.961 . S
H384 C368 0.931 . S
H385 C373 0.930 . S
H386 C374 0.956 . S
H387 C374 0.961 . S
H388 C374 0.961 . S
H389 C375 0.958 . S
H390 C375 0.961 . S
H391 C375 0.960 . S
C392 C393 1.391 . S
C392 C394 1.394 . S
C392 H408 0.931 . S
C393 C392 1.391 . S
C393 C397 1.376 . S
C394 C392 1.394 . S
C394 C395 1.369 . S
C394 C398 1.531 . S
C395 C394 1.369 . S
C395 C396 1.410 . S
C395 C403 1.503 1_556 S
C396 C395 1.410 . S
C396 C397 1.392 . S
C396 C399 1.511 . S
C397 C393 1.376 . S
C397 C396 1.392 . S
C397 H409 0.929 . S
C398 C394 1.531 . S
C398 H410 0.960 1_556 S
C398 H411 0.962 . S
C398 H412 0.960 . S
C399 C396 1.511 . S
C399 H413 0.961 . S
C399 H414 0.961 . S
C399 H415 0.961 . S
C400 C401 1.370 . S
C400 C402 1.363 . S
C400 H416 0.931 . S
C401 C400 1.370 . S
C401 C405 1.408 . S
C402 C400 1.363 . S
C402 C403 1.370 . S
C402 C406 1.524 . S
C403 C395 1.503 1_554 S
C403 C402 1.370 . S
C403 C404 1.403 . S
C404 C403 1.403 . S
C404 C405 1.404 . S
C404 C407 1.539 . S
C405 C401 1.408 . S
C405 C404 1.404 . S
C405 H417 0.930 . S
C406 C402 1.524 . S
C406 H418 0.956 . S
C406 H419 0.961 . S
C406 H420 0.961 . S
C407 C404 1.539 . S
C407 H421 0.958 . S
C407 H422 0.961 . S
C407 H423 0.960 1_554 S
H408 C392 0.931 . S
H409 C397 0.929 . S
H410 C398 0.960 1_554 S
H411 C398 0.962 . S
H412 C398 0.960 . S
H413 C399 0.961 . S
H414 C399 0.961 . S
H415 C399 0.961 . S
H416 C400 0.931 . S
H417 C405 0.930 . S
H418 C406 0.956 . S
H419 C406 0.961 . S
H420 C406 0.961 . S
H421 C407 0.958 . S
H422 C407 0.961 . S
H423 C407 0.960 1_556 S
C424 C425 1.391 . S
C424 C426 1.394 . S
C424 H440 0.931 . S
C425 C424 1.391 . S
C425 C429 1.376 . S
C426 C424 1.394 . S
C426 C427 1.369 . S
C426 C430 1.531 . S
C427 C426 1.369 . S
C427 C428 1.410 . S
C427 C435 1.503 . S
C428 C427 1.410 . S
C428 C429 1.392 . S
C428 C431 1.511 . S
C429 C425 1.376 . S
C429 C428 1.392 . S
C429 H441 0.929 . S
C430 C426 1.531 . S
C430 H442 0.960 . S
C430 H443 0.962 . S
C430 H444 0.960 . S
C431 C428 1.511 . S
C431 H445 0.961 . S
C431 H446 0.961 . S
C431 H447 0.961 . S
C432 C433 1.370 . S
C432 C434 1.363 . S
C432 H448 0.931 . S
C433 C432 1.370 . S
C433 C437 1.408 . S
C434 C432 1.363 . S
C434 C435 1.370 . S
C434 C438 1.524 . S
C435 C427 1.503 . S
C435 C434 1.370 . S
C435 C436 1.403 . S
C436 C435 1.403 . S
C436 C437 1.404 . S
C436 C439 1.539 . S
C437 C433 1.408 . S
C437 C436 1.404 . S
C437 H449 0.930 . S
C438 C434 1.524 . S
C438 H450 0.956 . S
C438 H451 0.961 . S
C438 H452 0.961 . S
C439 C436 1.539 . S
C439 H453 0.958 . S
C439 H454 0.961 . S
C439 H455 0.960 . S
H440 C424 0.931 . S
H441 C429 0.929 . S
H442 C430 0.960 . S
H443 C430 0.962 . S
H444 C430 0.960 . S
H445 C431 0.961 . S
H446 C431 0.961 . S
H447 C431 0.961 . S
H448 C432 0.931 . S
H449 C437 0.930 . S
H450 C438 0.956 . S
H451 C438 0.961 . S
H452 C438 0.961 . S
H453 C439 0.958 . S
H454 C439 0.961 . S
H455 C439 0.960 . S
C456 C457 1.391 . S
C456 C458 1.394 . S
C456 H472 0.931 . S
C457 C456 1.391 . S
C457 C461 1.376 . S
C458 C456 1.394 . S
C458 C459 1.369 . S
C458 C462 1.531 . S
C459 C458 1.369 . S
C459 C460 1.410 . S
C459 C467 1.503 1_554 S
C460 C459 1.410 . S
C460 C461 1.392 . S
C460 C463 1.511 . S
C461 C457 1.376 . S
C461 C460 1.392 . S
C461 H473 0.929 . S
C462 C458 1.531 . S
C462 H474 0.960 1_554 S
C462 H475 0.962 . S
C462 H476 0.960 . S
C463 C460 1.511 . S
C463 H477 0.961 . S
C463 H478 0.961 . S
C463 H479 0.961 . S
C464 C465 1.370 . S
C464 C466 1.363 . S
C464 H480 0.931 . S
C465 C464 1.370 . S
C465 C469 1.408 . S
C466 C464 1.363 . S
C466 C467 1.370 . S
C466 C470 1.524 . S
C467 C459 1.503 1_556 S
C467 C466 1.370 . S
C467 C468 1.403 . S
C468 C467 1.403 . S
C468 C469 1.404 . S
C468 C471 1.539 . S
C469 C465 1.408 . S
C469 C468 1.404 . S
C469 H481 0.930 . S
C470 C466 1.524 . S
C470 H482 0.956 . S
C470 H483 0.961 1_556 S
C470 H484 0.961 . S
C471 C468 1.539 . S
C471 H485 0.958 . S
C471 H486 0.961 . S
C471 H487 0.960 . S
H472 C456 0.931 . S
H473 C461 0.929 . S
H474 C462 0.960 1_556 S
H475 C462 0.962 . S
H476 C462 0.960 . S
H477 C463 0.961 . S
H478 C463 0.961 . S
H479 C463 0.961 . S
H480 C464 0.931 . S
H481 C469 0.930 . S
H482 C470 0.956 . S
H483 C470 0.961 1_554 S
H484 C470 0.961 . S
H485 C471 0.958 . S
H486 C471 0.961 . S
H487 C471 0.960 . S
C488 C489 1.391 . S
C488 C490 1.394 . S
C488 H504 0.931 . S
C489 C488 1.391 . S
C489 C493 1.376 . S
C490 C488 1.394 . S
C490 C491 1.369 . S
C490 C494 1.531 . S
C491 C490 1.369 . S
C491 C492 1.410 . S
C491 C499 1.503 . S
C492 C491 1.410 . S
C492 C493 1.392 . S
C492 C495 1.511 . S
C493 C489 1.376 . S
C493 C492 1.392 . S
C493 H505 0.929 . S
C494 C490 1.531 . S
C494 H506 0.960 . S
C494 H507 0.962 . S
C494 H508 0.960 . S
C495 C492 1.511 . S
C495 H509 0.961 . S
C495 H510 0.961 . S
C495 H511 0.961 . S
C496 C497 1.370 . S
C496 C498 1.363 . S
C496 H512 0.931 . S
C497 C496 1.370 . S
C497 C501 1.408 . S
C498 C496 1.363 . S
C498 C499 1.370 . S
C498 C502 1.524 . S
C499 C491 1.503 . S
C499 C498 1.370 . S
C499 C500 1.403 . S
C500 C499 1.403 . S
C500 C501 1.404 . S
C500 C503 1.539 . S
C501 C497 1.408 . S
C501 C500 1.404 . S
C501 H513 0.930 . S
C502 C498 1.524 . S
C502 H514 0.956 . S
C502 H515 0.961 . S
C502 H516 0.961 . S
C503 C500 1.539 . S
C503 H517 0.958 . S
C503 H518 0.961 . S
C503 H519 0.960 . S
H504 C488 0.931 . S
H505 C493 0.929 . S
H506 C494 0.960 . S
H507 C494 0.962 . S
H508 C494 0.960 . S
H509 C495 0.961 . S
H510 C495 0.961 . S
H511 C495 0.961 . S
H512 C496 0.931 . S
H513 C501 0.930 . S
H514 C502 0.956 . S
H515 C502 0.961 . S
H516 C502 0.961 . S
H517 C503 0.958 . S
H518 C503 0.961 . S
H519 C503 0.960 . S
C520 C521 1.391 . S
C520 C522 1.394 . S
C520 H536 0.931 . S
C521 C520 1.391 . S
C521 C525 1.376 . S
C522 C520 1.394 . S
C522 C523 1.369 . S
C522 C526 1.531 . S
C523 C522 1.369 . S
C523 C524 1.410 . S
C523 C531 1.503 . S
C524 C523 1.410 . S
C524 C525 1.392 . S
C524 C527 1.511 . S
C525 C521 1.376 . S
C525 C524 1.392 . S
C525 H537 0.929 . S
C526 C522 1.531 . S
C526 H538 0.960 . S
C526 H539 0.962 . S
C526 H540 0.960 . S
C527 C524 1.511 . S
C527 H541 0.961 . S
C527 H542 0.961 . S
C527 H543 0.961 . S
C528 C529 1.370 . S
C528 C530 1.363 . S
C528 H544 0.931 . S
C529 C528 1.370 . S
C529 C533 1.408 . S
C530 C528 1.363 . S
C530 C531 1.370 . S
C530 C534 1.524 . S
C531 C523 1.503 . S
C531 C530 1.370 . S
C531 C532 1.403 . S
C532 C531 1.403 . S
C532 C533 1.404 . S
C532 C535 1.539 . S
C533 C529 1.408 . S
C533 C532 1.404 . S
C533 H545 0.930 . S
C534 C530 1.524 . S
C534 H546 0.956 . S
C534 H547 0.961 . S
C534 H548 0.961 . S
C535 C532 1.539 . S
C535 H549 0.958 . S
C535 H550 0.961 . S
C535 H551 0.960 . S
H536 C520 0.931 . S
H537 C525 0.929 . S
H538 C526 0.960 . S
H539 C526 0.962 . S
H540 C526 0.960 . S
H541 C527 0.961 . S
H542 C527 0.961 . S
H543 C527 0.961 . S
H544 C528 0.931 . S
H545 C533 0.930 . S
H546 C534 0.956 . S
H547 C534 0.961 . S
H548 C534 0.961 . S
H549 C535 0.958 . S
H550 C535 0.961 . S
H551 C535 0.960 . S
C552 C553 1.391 . S
C552 C554 1.394 . S
C552 H568 0.931 . S
C553 C552 1.391 . S
C553 C557 1.376 . S
C554 C552 1.394 . S
C554 C555 1.369 . S
C554 C558 1.531 . S
C555 C554 1.369 . S
C555 C556 1.410 . S
C555 C563 1.503 1_455 S
C556 C555 1.410 . S
C556 C557 1.392 . S
C556 C559 1.511 . S
C557 C553 1.376 . S
C557 C556 1.392 . S
C557 H569 0.929 . S
C558 C554 1.531 . S
C558 H570 0.960 1_455 S
C558 H571 0.962 . S
C558 H572 0.960 . S
C559 C556 1.511 . S
C559 H573 0.961 . S
C559 H574 0.961 . S
C559 H575 0.961 . S
C560 C561 1.370 . S
C560 C562 1.363 . S
C560 H576 0.931 . S
C561 C560 1.370 . S
C561 C565 1.408 . S
C562 C560 1.363 . S
C562 C563 1.370 . S
C562 C566 1.524 . S
C563 C555 1.503 1_655 S
C563 C562 1.370 . S
C563 C564 1.403 . S
C564 C563 1.403 . S
C564 C565 1.404 . S
C564 C567 1.539 . S
C565 C561 1.408 . S
C565 C564 1.404 . S
C565 H577 0.930 . S
C566 C562 1.524 . S
C566 H578 0.956 . S
C566 H579 0.961 . S
C566 H580 0.961 . S
C567 C564 1.539 . S
C567 H581 0.958 . S
C567 H582 0.961 . S
C567 H583 0.960 1_655 S
H568 C552 0.931 . S
H569 C557 0.929 . S
H570 C558 0.960 1_655 S
H571 C558 0.962 . S
H572 C558 0.960 . S
H573 C559 0.961 . S
H574 C559 0.961 . S
H575 C559 0.961 . S
H576 C560 0.931 . S
H577 C565 0.930 . S
H578 C566 0.956 . S
H579 C566 0.961 . S
H580 C566 0.961 . S
H581 C567 0.958 . S
H582 C567 0.961 . S
H583 C567 0.960 1_455 S
C584 C585 1.391 . S
C584 C586 1.394 . S
C584 H600 0.931 . S
C585 C584 1.391 . S
C585 C589 1.376 . S
C586 C584 1.394 . S
C586 C587 1.369 . S
C586 C590 1.531 . S
C587 C586 1.369 . S
C587 C588 1.410 . S
C587 C595 1.503 1_455 S
C588 C587 1.410 . S
C588 C589 1.392 . S
C588 C591 1.511 . S
C589 C585 1.376 . S
C589 C588 1.392 . S
C589 H601 0.929 . S
C590 C586 1.531 . S
C590 H602 0.960 1_455 S
C590 H603 0.962 . S
C590 H604 0.960 . S
C591 C588 1.511 . S
C591 H605 0.961 . S
C591 H606 0.961 . S
C591 H607 0.961 . S
C592 C593 1.370 . S
C592 C594 1.363 . S
C592 H608 0.931 . S
C593 C592 1.370 . S
C593 C597 1.408 . S
C594 C592 1.363 . S
C594 C595 1.370 . S
C594 C598 1.524 . S
C595 C587 1.503 1_655 S
C595 C594 1.370 . S
C595 C596 1.403 . S
C596 C595 1.403 . S
C596 C597 1.404 . S
C596 C599 1.539 . S
C597 C593 1.408 . S
C597 C596 1.404 . S
C597 H609 0.930 . S
C598 C594 1.524 . S
C598 H610 0.956 . S
C598 H611 0.961 . S
C598 H612 0.961 . S
C599 C596 1.539 . S
C599 H613 0.958 . S
C599 H614 0.961 . S
C599 H615 0.960 1_655 S
H600 C584 0.931 . S
H601 C589 0.929 . S
H602 C590 0.960 1_655 S
H603 C590 0.962 . S
H604 C590 0.960 . S
H605 C591 0.961 . S
H606 C591 0.961 . S
H607 C591 0.961 . S
H608 C592 0.931 . S
H609 C597 0.930 . S
H610 C598 0.956 . S
H611 C598 0.961 . S
H612 C598 0.961 . S
H613 C599 0.958 . S
H614 C599 0.961 . S
H615 C599 0.960 1_455 S
C105 C4 1.853 . S
C113 C30 1.850 . S
C137 C49 1.857 . S
C145 C17 1.847 . S
C169 C82 1.858 . S
C177 C56 1.847 . S
C201 C69 1.845 . S
C209 C95 1.851 . S
C233 C23 1.222 . S
C241 C43 1.240 . S
C265 C10 1.212 . S
C273 C36 1.243 . S
C297 C101 1.246 . S
C305 C75 1.228 . S
C329 C62 1.212 . S
C337 C88 1.242 . S
C361 C68 1.517 . S
C369 C44 1.530 . S
C393 C29 1.518 . S
C401 C55 1.530 . S
C425 C16 1.517 . S
C433 C94 1.530 . S
C457 C3 1.532 . S
C465 C81 1.524 . S
C489 C5 1.554 . S
C497 C18 1.553 . S
C521 C31 1.539 . S
C529 C42 1.548 . S
C553 C70 1.554 . S
C561 C57 1.553 . S
C585 C83 1.541 . S
C593 C96 1.549 . S
