# Generated by pormake.
# Topology sin, (3)-cn, num edge types: 1
# Building blocks:
#     Node 0, Type 0, BuildingBlock: OLANEW_clean_sbu_2, # of connection points: 3
#     Node 1, Type 0, BuildingBlock: OLANEW_clean_sbu_2, # of connection points: 3
#     Node 2, Type 0, BuildingBlock: OLANEW_clean_sbu_2, # of connection points: 3
#     Node 3, Type 0, BuildingBlock: OLANEW_clean_sbu_2, # of connection points: 3
#     Node 4, Type 0, BuildingBlock: OLANEW_clean_sbu_2, # of connection points: 3
#     Node 5, Type 0, BuildingBlock: OLANEW_clean_sbu_2, # of connection points: 3
#     Node 6, Type 0, BuildingBlock: OLANEW_clean_sbu_2, # of connection points: 3
#     Node 7, Type 0, BuildingBlock: OLANEW_clean_sbu_2, # of connection points: 3
#     Node 8, Type 0, BuildingBlock: OLANEW_clean_sbu_2, # of connection points: 3
#     Node 9, Type 0, BuildingBlock: OLANEW_clean_sbu_2, # of connection points: 3
#     Node 10, Type 0, BuildingBlock: OLANEW_clean_sbu_2, # of connection points: 3
#     Node 11, Type 0, BuildingBlock: OLANEW_clean_sbu_2, # of connection points: 3
#     Node 12, Type 0, BuildingBlock: OLANEW_clean_sbu_2, # of connection points: 3
#     Node 13, Type 0, BuildingBlock: OLANEW_clean_sbu_2, # of connection points: 3
#     Node 14, Type 0, BuildingBlock: OLANEW_clean_sbu_2, # of connection points: 3
#     Node 15, Type 0, BuildingBlock: OLANEW_clean_sbu_2, # of connection points: 3
#     Node 16, Type 0, BuildingBlock: OLANEW_clean_sbu_2, # of connection points: 3
#     Node 17, Type 0, BuildingBlock: OLANEW_clean_sbu_2, # of connection points: 3
#     Node 18, Type 0, BuildingBlock: OLANEW_clean_sbu_2, # of connection points: 3
#     Node 19, Type 0, BuildingBlock: OLANEW_clean_sbu_2, # of connection points: 3
#     Node 20, Type 0, BuildingBlock: OLANEW_clean_sbu_2, # of connection points: 3
#     Node 21, Type 0, BuildingBlock: OLANEW_clean_sbu_2, # of connection points: 3
#     Node 22, Type 0, BuildingBlock: OLANEW_clean_sbu_2, # of connection points: 3
#     Node 23, Type 0, BuildingBlock: OLANEW_clean_sbu_2, # of connection points: 3
#     Node 24, Type 0, BuildingBlock: OLANEW_clean_sbu_2, # of connection points: 3
#     Node 25, Type 0, BuildingBlock: OLANEW_clean_sbu_2, # of connection points: 3
#     Node 26, Type 0, BuildingBlock: OLANEW_clean_sbu_2, # of connection points: 3
#     Node 27, Type 0, BuildingBlock: OLANEW_clean_sbu_2, # of connection points: 3
#     Node 28, Type 0, BuildingBlock: OLANEW_clean_sbu_2, # of connection points: 3
#     Node 29, Type 0, BuildingBlock: OLANEW_clean_sbu_2, # of connection points: 3
#     Node 30, Type 0, BuildingBlock: OLANEW_clean_sbu_2, # of connection points: 3
#     Node 31, Type 0, BuildingBlock: OLANEW_clean_sbu_2, # of connection points: 3
#     Node 32, Type 0, BuildingBlock: OLANEW_clean_sbu_2, # of connection points: 3
#     Node 33, Type 0, BuildingBlock: OLANEW_clean_sbu_2, # of connection points: 3
#     Node 34, Type 0, BuildingBlock: OLANEW_clean_sbu_2, # of connection points: 3
#     Node 35, Type 0, BuildingBlock: OLANEW_clean_sbu_2, # of connection points: 3
#     Node 36, Type 0, BuildingBlock: OLANEW_clean_sbu_2, # of connection points: 3
#     Node 37, Type 0, BuildingBlock: OLANEW_clean_sbu_2, # of connection points: 3
#     Node 38, Type 0, BuildingBlock: OLANEW_clean_sbu_2, # of connection points: 3
#     Node 39, Type 0, BuildingBlock: OLANEW_clean_sbu_2, # of connection points: 3
#     Node 40, Type 0, BuildingBlock: OLANEW_clean_sbu_2, # of connection points: 3
#     Node 41, Type 0, BuildingBlock: OLANEW_clean_sbu_2, # of connection points: 3
#     Node 42, Type 0, BuildingBlock: OLANEW_clean_sbu_2, # of connection points: 3
#     Node 43, Type 0, BuildingBlock: OLANEW_clean_sbu_2, # of connection points: 3
#     Node 44, Type 0, BuildingBlock: OLANEW_clean_sbu_2, # of connection points: 3
#     Node 45, Type 0, BuildingBlock: OLANEW_clean_sbu_2, # of connection points: 3
#     Node 46, Type 0, BuildingBlock: OLANEW_clean_sbu_2, # of connection points: 3
#     Node 47, Type 0, BuildingBlock: OLANEW_clean_sbu_2, # of connection points: 3
#     Edge 48, Type (0, 0), BuildingBlock: XUDNAN_clean_linker_2, # of connection points: 2
#     Edge 49, Type (0, 0), BuildingBlock: XUDNAN_clean_linker_2, # of connection points: 2
#     Edge 50, Type (0, 0), BuildingBlock: XUDNAN_clean_linker_2, # of connection points: 2
#     Edge 51, Type (0, 0), BuildingBlock: XUDNAN_clean_linker_2, # of connection points: 2
#     Edge 52, Type (0, 0), BuildingBlock: XUDNAN_clean_linker_2, # of connection points: 2
#     Edge 53, Type (0, 0), BuildingBlock: XUDNAN_clean_linker_2, # of connection points: 2
#     Edge 54, Type (0, 0), BuildingBlock: XUDNAN_clean_linker_2, # of connection points: 2
#     Edge 55, Type (0, 0), BuildingBlock: XUDNAN_clean_linker_2, # of connection points: 2
#     Edge 56, Type (0, 0), BuildingBlock: XUDNAN_clean_linker_2, # of connection points: 2
#     Edge 57, Type (0, 0), BuildingBlock: XUDNAN_clean_linker_2, # of connection points: 2
#     Edge 58, Type (0, 0), BuildingBlock: XUDNAN_clean_linker_2, # of connection points: 2
#     Edge 59, Type (0, 0), BuildingBlock: XUDNAN_clean_linker_2, # of connection points: 2
#     Edge 60, Type (0, 0), BuildingBlock: XUDNAN_clean_linker_2, # of connection points: 2
#     Edge 61, Type (0, 0), BuildingBlock: XUDNAN_clean_linker_2, # of connection points: 2
#     Edge 62, Type (0, 0), BuildingBlock: XUDNAN_clean_linker_2, # of connection points: 2
#     Edge 63, Type (0, 0), BuildingBlock: XUDNAN_clean_linker_2, # of connection points: 2
#     Edge 64, Type (0, 0), BuildingBlock: XUDNAN_clean_linker_2, # of connection points: 2
#     Edge 65, Type (0, 0), BuildingBlock: XUDNAN_clean_linker_2, # of connection points: 2
#     Edge 66, Type (0, 0), BuildingBlock: XUDNAN_clean_linker_2, # of connection points: 2
#     Edge 67, Type (0, 0), BuildingBlock: XUDNAN_clean_linker_2, # of connection points: 2
#     Edge 68, Type (0, 0), BuildingBlock: XUDNAN_clean_linker_2, # of connection points: 2
#     Edge 69, Type (0, 0), BuildingBlock: XUDNAN_clean_linker_2, # of connection points: 2
#     Edge 70, Type (0, 0), BuildingBlock: XUDNAN_clean_linker_2, # of connection points: 2
#     Edge 71, Type (0, 0), BuildingBlock: XUDNAN_clean_linker_2, # of connection points: 2
#     Edge 72, Type (0, 0), BuildingBlock: XUDNAN_clean_linker_2, # of connection points: 2
#     Edge 73, Type (0, 0), BuildingBlock: XUDNAN_clean_linker_2, # of connection points: 2
#     Edge 74, Type (0, 0), BuildingBlock: XUDNAN_clean_linker_2, # of connection points: 2
#     Edge 75, Type (0, 0), BuildingBlock: XUDNAN_clean_linker_2, # of connection points: 2
#     Edge 76, Type (0, 0), BuildingBlock: XUDNAN_clean_linker_2, # of connection points: 2
#     Edge 77, Type (0, 0), BuildingBlock: XUDNAN_clean_linker_2, # of connection points: 2
#     Edge 78, Type (0, 0), BuildingBlock: XUDNAN_clean_linker_2, # of connection points: 2
#     Edge 79, Type (0, 0), BuildingBlock: XUDNAN_clean_linker_2, # of connection points: 2
#     Edge 80, Type (0, 0), BuildingBlock: XUDNAN_clean_linker_2, # of connection points: 2
#     Edge 81, Type (0, 0), BuildingBlock: XUDNAN_clean_linker_2, # of connection points: 2
#     Edge 82, Type (0, 0), BuildingBlock: XUDNAN_clean_linker_2, # of connection points: 2
#     Edge 83, Type (0, 0), BuildingBlock: XUDNAN_clean_linker_2, # of connection points: 2
#     Edge 84, Type (0, 0), BuildingBlock: XUDNAN_clean_linker_2, # of connection points: 2
#     Edge 85, Type (0, 0), BuildingBlock: XUDNAN_clean_linker_2, # of connection points: 2
#     Edge 86, Type (0, 0), BuildingBlock: XUDNAN_clean_linker_2, # of connection points: 2
#     Edge 87, Type (0, 0), BuildingBlock: XUDNAN_clean_linker_2, # of connection points: 2
#     Edge 88, Type (0, 0), BuildingBlock: XUDNAN_clean_linker_2, # of connection points: 2
#     Edge 89, Type (0, 0), BuildingBlock: XUDNAN_clean_linker_2, # of connection points: 2
#     Edge 90, Type (0, 0), BuildingBlock: XUDNAN_clean_linker_2, # of connection points: 2
#     Edge 91, Type (0, 0), BuildingBlock: XUDNAN_clean_linker_2, # of connection points: 2
#     Edge 92, Type (0, 0), BuildingBlock: XUDNAN_clean_linker_2, # of connection points: 2
#     Edge 93, Type (0, 0), BuildingBlock: XUDNAN_clean_linker_2, # of connection points: 2
#     Edge 94, Type (0, 0), BuildingBlock: XUDNAN_clean_linker_2, # of connection points: 2
#     Edge 95, Type (0, 0), BuildingBlock: XUDNAN_clean_linker_2, # of connection points: 2
#     Edge 96, Type (0, 0), BuildingBlock: XUDNAN_clean_linker_2, # of connection points: 2
#     Edge 97, Type (0, 0), BuildingBlock: XUDNAN_clean_linker_2, # of connection points: 2
#     Edge 98, Type (0, 0), BuildingBlock: XUDNAN_clean_linker_2, # of connection points: 2
#     Edge 99, Type (0, 0), BuildingBlock: XUDNAN_clean_linker_2, # of connection points: 2
#     Edge 100, Type (0, 0), BuildingBlock: XUDNAN_clean_linker_2, # of connection points: 2
#     Edge 101, Type (0, 0), BuildingBlock: XUDNAN_clean_linker_2, # of connection points: 2
#     Edge 102, Type (0, 0), BuildingBlock: XUDNAN_clean_linker_2, # of connection points: 2
#     Edge 103, Type (0, 0), BuildingBlock: XUDNAN_clean_linker_2, # of connection points: 2
#     Edge 104, Type (0, 0), BuildingBlock: XUDNAN_clean_linker_2, # of connection points: 2
#     Edge 105, Type (0, 0), BuildingBlock: XUDNAN_clean_linker_2, # of connection points: 2
#     Edge 106, Type (0, 0), BuildingBlock: XUDNAN_clean_linker_2, # of connection points: 2
#     Edge 107, Type (0, 0), BuildingBlock: XUDNAN_clean_linker_2, # of connection points: 2
#     Edge 108, Type (0, 0), BuildingBlock: XUDNAN_clean_linker_2, # of connection points: 2
#     Edge 109, Type (0, 0), BuildingBlock: XUDNAN_clean_linker_2, # of connection points: 2
#     Edge 110, Type (0, 0), BuildingBlock: XUDNAN_clean_linker_2, # of connection points: 2
#     Edge 111, Type (0, 0), BuildingBlock: XUDNAN_clean_linker_2, # of connection points: 2
#     Edge 112, Type (0, 0), BuildingBlock: XUDNAN_clean_linker_2, # of connection points: 2
#     Edge 113, Type (0, 0), BuildingBlock: XUDNAN_clean_linker_2, # of connection points: 2
#     Edge 114, Type (0, 0), BuildingBlock: XUDNAN_clean_linker_2, # of connection points: 2
#     Edge 115, Type (0, 0), BuildingBlock: XUDNAN_clean_linker_2, # of connection points: 2
#     Edge 116, Type (0, 0), BuildingBlock: XUDNAN_clean_linker_2, # of connection points: 2
#     Edge 117, Type (0, 0), BuildingBlock: XUDNAN_clean_linker_2, # of connection points: 2
#     Edge 118, Type (0, 0), BuildingBlock: XUDNAN_clean_linker_2, # of connection points: 2
#     Edge 119, Type (0, 0), BuildingBlock: XUDNAN_clean_linker_2, # of connection points: 2
# Relax obj value: 0.034
# Max RMSD: 0.037
# Mean RMSD: 0.019
data_MOF--net-sin--node1-OLANEW_clean_sbu_2--edge1-XUDNAN_clean_linker_2
_symmetry_space_group_name_H-M    P1
_symmetry_Int_Tables_number       1
_symmetry_cell_setting            triclinic
loop_
_symmetry_equiv_pos_as_xyz
'x, y, z'
_cell_length_a     82.320203
_cell_length_b     82.319749
_cell_length_c     82.317858
_cell_angle_alpha  89.550994
_cell_angle_beta   89.550859
_cell_angle_gamma 89.550728
loop_
_atom_site_label
_atom_site_type_symbol
_atom_site_fract_x
_atom_site_fract_y
_atom_site_fract_z
_atom_type_partial_charge
O0 O 0.98588 0.40398 0.44747 0.0
Cd1 Cd 0.98561 0.42982 0.46199 0.0
O2 O 0.00652 0.40358 0.46062 0.0
Cd3 Cd 0.02312 0.41575 0.47685 0.0
O4 O 0.03244 0.43415 0.45996 0.0
C5 C 0.04518 0.42705 0.45498 0.0
O6 O 0.04947 0.4132 0.46179 0.0
C7 C 0.99887 0.39645 0.45114 0.0
C8 C 0.95683 0.44868 0.45877 0.0
O9 O 0.96005 0.43669 0.44955 0.0
O10 O 0.9673 0.4523 0.46952 0.0
O11 O 0.98167 0.91749 0.28347 0.0
Cd12 Cd 0.99156 0.9307 0.30806 0.0
O13 O 0.00496 0.91272 0.28723 0.0
Cd14 Cd 0.02884 0.91088 0.29775 0.0
O15 O 0.03798 0.93492 0.29116 0.0
C16 C 0.0397 0.93439 0.27587 0.0
O17 O 0.0326 0.92214 0.26855 0.0
C18 C 0.99433 0.90972 0.27916 0.0
C19 C 0.97336 0.94851 0.33134 0.0
O20 O 0.96598 0.94236 0.31922 0.0
O21 O 0.98883 0.9469 0.33148 0.0
O22 O 0.71293 0.78862 0.95116 0.0
Cd23 Cd 0.71396 0.76269 0.96603 0.0
O24 O 0.69022 0.78826 0.96453 0.0
Cd25 Cd 0.6739 0.77548 0.98085 0.0
O26 O 0.66417 0.75646 0.96543 0.0
C27 C 0.65191 0.76315 0.9589 0.0
O28 O 0.64771 0.77775 0.96375 0.0
C29 C 0.69977 0.79575 0.95497 0.0
C30 C 0.74339 0.74562 0.95972 0.0
O31 O 0.73814 0.75785 0.95169 0.0
O32 O 0.73446 0.74058 0.97146 0.0
O33 O 0.7051 0.2702 0.79407 0.0
Cd34 Cd 0.69135 0.25791 0.81911 0.0
O35 O 0.67938 0.27234 0.79656 0.0
Cd36 Cd 0.65501 0.2804 0.80225 0.0
O37 O 0.65024 0.255 0.79675 0.0
C38 C 0.64574 0.2548 0.78205 0.0
O39 O 0.65134 0.26658 0.77271 0.0
C40 C 0.6921 0.27666 0.78887 0.0
C41 C 0.70745 0.24155 0.84468 0.0
O42 O 0.71469 0.24517 0.83133 0.0
O43 O 0.69243 0.24546 0.84589 0.0
O44 O 0.98516 0.79124 0.23796 0.0
Cd45 Cd 0.98644 0.7654 0.22456 0.0
O46 O 0.00712 0.7935 0.22646 0.0
Cd47 Cd 0.02378 0.77951 0.21117 0.0
O48 O 0.03227 0.76008 0.22804 0.0
C49 C 0.04447 0.7673 0.23372 0.0
O50 O 0.04824 0.78142 0.22716 0.0
C51 C 0.99781 0.79952 0.23514 0.0
C52 C 0.95688 0.74877 0.22952 0.0
O53 O 0.96163 0.76066 0.23805 0.0
O54 O 0.9664 0.74391 0.21818 0.0
O55 O 0.69687 0.9124 0.90192 0.0
Cd56 Cd 0.68401 0.92415 0.87724 0.0
O57 O 0.67158 0.90736 0.89986 0.0
Cd58 Cd 0.6472 0.90245 0.89171 0.0
O59 O 0.63822 0.92637 0.89865 0.0
C60 C 0.63691 0.92594 0.914 0.0
O61 O 0.64324 0.91308 0.92127 0.0
C62 C 0.68479 0.90448 0.90726 0.0
C63 C 0.70028 0.94094 0.85225 0.0
O64 O 0.70793 0.937 0.86519 0.0
O65 O 0.68532 0.93711 0.85128 0.0
O66 O 0.7182 0.38949 0.73886 0.0
Cd67 Cd 0.719 0.41486 0.7239 0.0
O68 O 0.69493 0.39086 0.72609 0.0
Cd69 Cd 0.68073 0.40591 0.70949 0.0
O70 O 0.67032 0.42469 0.72665 0.0
C71 C 0.6572 0.41721 0.72949 0.0
O72 O 0.65448 0.40417 0.7208 0.0
C73 C 0.70454 0.38335 0.73561 0.0
C74 C 0.74754 0.43366 0.72546 0.0
O75 O 0.74516 0.422 0.73552 0.0
O76 O 0.7364 0.43655 0.71507 0.0
O77 O 0.98067 0.28279 0.39841 0.0
Cd78 Cd 0.99208 0.2669 0.37564 0.0
O79 O 0.00448 0.28494 0.39471 0.0
Cd80 Cd 0.0296 0.28556 0.3874 0.0
O81 O 0.03718 0.26087 0.39386 0.0
C82 C 0.03774 0.26088 0.40922 0.0
O83 O 0.03042 0.2732 0.41643 0.0
C84 C 0.99402 0.28883 0.40291 0.0
C85 C 0.97514 0.24976 0.35165 0.0
O86 O 0.96741 0.25546 0.36394 0.0
O87 O 0.99054 0.25169 0.3514 0.0
O88 O 0.44834 0.98962 0.4075 0.0
Cd89 Cd 0.46364 0.98605 0.43161 0.0
O90 O 0.46182 0.00989 0.39905 0.0
Cd91 Cd 0.47563 0.01758 0.42118 0.0
O92 O 0.45928 0.03205 0.43816 0.0
C93 C 0.45432 0.04208 0.42748 0.0
O94 O 0.4607 0.04043 0.41287 0.0
C95 C 0.45143 1.00025 0.39664 0.0
C96 C 0.45888 0.95661 0.44909 0.0
O97 O 0.45103 0.95962 0.43609 0.0
O98 O 0.46874 0.96739 0.45399 0.0
O99 O 0.27189 0.79602 0.70458 0.0
Cd100 Cd 0.25821 0.81924 0.6906 0.0
O101 O 0.27709 0.79906 0.67911 0.0
Cd102 Cd 0.28003 0.80627 0.6542 0.0
O103 O 0.25595 0.79975 0.64569 0.0
C104 C 0.25876 0.78522 0.64164 0.0
O105 O 0.27356 0.77956 0.64398 0.0
C106 C 0.27927 0.79092 0.69205 0.0
C107 C 0.24354 0.84497 0.70735 0.0
O108 O 0.24642 0.83142 0.71454 0.0
O109 O 0.24702 0.84605 0.69223 0.0
O110 O 0.24547 0.20937 0.8928 0.0
Cd111 Cd 0.231 0.21072 0.918 0.0
O112 O 0.2312 0.18695 0.89326 0.0
Cd113 Cd 0.21394 0.17379 0.90884 0.0
O114 O 0.22891 0.15987 0.92761 0.0
C115 C 0.23581 0.15011 0.91785 0.0
O116 O 0.23252 0.15261 0.90238 0.0
C117 C 0.24126 0.19626 0.88607 0.0
C118 C 0.23454 0.23982 0.93539 0.0
O119 O 0.24432 0.23607 0.92388 0.0
O120 O 0.22343 0.22959 0.939 0.0
O121 O 0.41811 0.38923 0.20197 0.0
Cd122 Cd 0.43134 0.36645 0.18892 0.0
O123 O 0.41191 0.38777 0.17658 0.0
Cd124 Cd 0.41208 0.37816 0.1525 0.0
O125 O 0.43658 0.38562 0.14688 0.0
C126 C 0.43393 0.40003 0.14219 0.0
O127 O 0.41876 0.40533 0.14253 0.0
C128 C 0.4102 0.39488 0.19006 0.0
C129 C 0.44559 0.3424 0.20818 0.0
O130 O 0.44148 0.35602 0.2144 0.0
O131 O 0.44333 0.3405 0.193 0.0
O132 O 0.44464 0.204 0.29618 0.0
Cd133 Cd 0.46164 0.20366 0.27186 0.0
O134 O 0.45833 0.18129 0.29852 0.0
Cd135 Cd 0.47607 0.16714 0.28484 0.0
O136 O 0.45981 0.15579 0.2663 0.0
C137 C 0.45715 0.14284 0.27426 0.0
O138 O 0.46525 0.14076 0.28785 0.0
C139 C 0.44782 0.19116 0.30416 0.0
C140 C 0.45757 0.23254 0.25368 0.0
O141 O 0.44802 0.22762 0.26491 0.0
O142 O 0.46952 0.22325 0.24991 0.0
O143 O 0.42012 0.79575 0.4949 0.0
Cd144 Cd 0.43214 0.81831 0.50781 0.0
O145 O 0.41345 0.79767 0.52034 0.0
Cd146 Cd 0.41062 0.80466 0.54553 0.0
O147 O 0.43502 0.79888 0.5541 0.0
C148 C 0.43605 0.78352 0.55502 0.0
O149 O 0.42426 0.77543 0.54803 0.0
C150 C 0.41171 0.79064 0.50677 0.0
C151 C 0.44703 0.84444 0.49208 0.0
O152 O 0.44303 0.83269 0.48285 0.0
O153 O 0.44505 0.84228 0.50733 0.0
O154 O 0.23883 0.98543 0.79151 0.0
Cd155 Cd 0.22497 0.98631 0.76532 0.0
O156 O 0.22692 0.00814 0.79275 0.0
Cd157 Cd 0.21115 0.02434 0.77899 0.0
O158 O 0.22881 0.03293 0.76096 0.0
C159 C 0.23564 0.04416 0.76875 0.0
O160 O 0.22929 0.04827 0.78285 0.0
C161 C 0.23625 0.99859 0.79906 0.0
C162 C 0.23044 0.95717 0.74768 0.0
O163 O 0.23885 0.96221 0.75953 0.0
O164 O 0.21891 0.96649 0.74285 0.0
O165 O 0.28204 0.39783 0.97936 0.0
Cd166 Cd 0.26723 0.37523 0.99155 0.0
O167 O 0.28548 0.39525 0.00416 0.0
Cd168 Cd 0.28634 0.38904 0.02958 0.0
O169 O 0.26097 0.39408 0.03637 0.0
C170 C 0.25862 0.40932 0.0373 0.0
O171 O 0.26652 0.41828 0.02654 0.0
C172 C 0.2892 0.40258 0.99201 0.0
C173 C 0.25214 0.35043 0.97451 0.0
O174 O 0.25638 0.36326 0.96671 0.0
O175 O 0.25491 0.34972 0.98972 0.0
O176 O 0.40712 0.44663 0.98737 0.0
Cd177 Cd 0.43128 0.46281 0.98605 0.0
O178 O 0.40172 0.46005 0.00885 0.0
Cd179 Cd 0.41596 0.47677 0.02361 0.0
O180 O 0.43453 0.45943 0.03229 0.0
C181 C 0.42634 0.45206 0.04311 0.0
O182 O 0.41156 0.45754 0.04618 0.0
C183 C 0.39753 0.44996 0.99909 0.0
C184 C 0.44817 0.45873 0.95619 0.0
O185 O 0.43627 0.45001 0.9609 0.0
O186 O 0.4528 0.46991 0.96577 0.0
O187 O 0.89324 0.2453 0.20963 0.0
Cd188 Cd 0.91863 0.23023 0.21107 0.0
O189 O 0.89411 0.23137 0.18736 0.0
Cd190 Cd 0.90705 0.2147 0.17177 0.0
O191 O 0.9264 0.2303 0.16081 0.0
C192 C 0.91875 0.23625 0.14885 0.0
O193 O 0.90364 0.23143 0.14703 0.0
C194 C 0.88649 0.24116 0.19652 0.0
C195 C 0.93598 0.23498 0.24007 0.0
O196 O 0.92465 0.24456 0.23542 0.0
O197 O 0.93964 0.22301 0.23093 0.0
O198 O 0.7955 0.70548 0.27102 0.0
Cd199 Cd 0.81986 0.69149 0.2576 0.0
O200 O 0.79968 0.67993 0.27387 0.0
Cd201 Cd 0.80548 0.65515 0.2804 0.0
O202 O 0.79844 0.64835 0.25648 0.0
C203 C 0.78415 0.64318 0.25855 0.0
O204 O 0.77747 0.64513 0.273 0.0
C205 C 0.79137 0.69233 0.27794 0.0
C206 C 0.84536 0.70726 0.24148 0.0
O207 O 0.83202 0.71459 0.24495 0.0
O208 O 0.84656 0.69227 0.24548 0.0
O209 O 0.78953 0.95139 0.71251 0.0
Cd210 Cd 0.7635 0.96462 0.71382 0.0
O211 O 0.7889 0.96462 0.6896 0.0
Cd212 Cd 0.77601 0.98089 0.67319 0.0
O213 O 0.7567 0.96548 0.66373 0.0
C214 C 0.76317 0.9591 0.65128 0.0
O215 O 0.77769 0.96406 0.64685 0.0
C216 C 0.79644 0.9551 0.69918 0.0
C217 C 0.74565 0.96012 0.74291 0.0
O218 O 0.75748 0.95059 0.73944 0.0
O219 O 0.7422 0.97128 0.73259 0.0
O220 O 0.39758 0.9801 0.28191 0.0
Cd221 Cd 0.37551 0.99203 0.26654 0.0
O222 O 0.39544 0.00463 0.28605 0.0
Cd223 Cd 0.38793 0.02983 0.2855 0.0
O224 O 0.39281 0.03891 0.26099 0.0
C225 C 0.40805 0.03757 0.25883 0.0
O226 O 0.41514 0.02529 0.26642 0.0
C227 C 0.40263 0.99248 0.28932 0.0
C228 C 0.35147 0.97379 0.25127 0.0
O229 O 0.36482 0.96668 0.25508 0.0
O230 O 0.35014 0.98894 0.25428 0.0
O231 O 0.29885 0.74179 0.48306 0.0
Cd232 Cd 0.27443 0.72683 0.48186 0.0
O233 O 0.30036 0.72898 0.50657 0.0
Cd234 Cd 0.28618 0.71204 0.52138 0.0
O235 O 0.26682 0.72863 0.53013 0.0
C236 C 0.27393 0.73563 0.54171 0.0
O237 O 0.28866 0.73047 0.54533 0.0
C238 C 0.30628 0.73888 0.49621 0.0
C239 C 0.25661 0.72942 0.4529 0.0
O240 O 0.26803 0.73942 0.45573 0.0
O241 O 0.25363 0.71859 0.46369 0.0
O242 O 0.79684 0.49524 0.41826 0.0
Cd243 Cd 0.81965 0.50824 0.43195 0.0
O244 O 0.79917 0.5209 0.41331 0.0
Cd245 Cd 0.80495 0.54624 0.41027 0.0
O246 O 0.799 0.55431 0.43479 0.0
C247 C 0.78363 0.55521 0.43556 0.0
O248 O 0.77581 0.54877 0.4234 0.0
C249 C 0.79153 0.50779 0.41096 0.0
C250 C 0.84506 0.49243 0.44883 0.0
O251 O 0.83298 0.48406 0.444 0.0
O252 O 0.84418 0.50779 0.44651 0.0
O253 O 0.9001 0.69689 0.91118 0.0
Cd254 Cd 0.87769 0.68256 0.92463 0.0
O255 O 0.8992 0.67171 0.90418 0.0
Cd256 Cd 0.89148 0.64682 0.90294 0.0
O257 O 0.89871 0.63719 0.92658 0.0
C258 C 0.91412 0.63653 0.92629 0.0
O259 O 0.92125 0.64391 0.9139 0.0
C260 C 0.90577 0.68551 0.90253 0.0
C261 C 0.85331 0.69999 0.9412 0.0
O262 O 0.86667 0.70674 0.93699 0.0
O263 O 0.85166 0.68497 0.93797 0.0
O264 O 0.47274 0.88274 0.95632 0.0
Cd265 Cd 0.47143 0.90894 0.97072 0.0
O266 O 0.49551 0.88349 0.96935 0.0
Cd267 Cd 0.51147 0.89624 0.98547 0.0
O268 O 0.52132 0.91519 0.96962 0.0
C269 C 0.5336 0.90847 0.96309 0.0
O270 O 0.53765 0.89378 0.96799 0.0
C271 C 0.48616 0.876 0.95989 0.0
C272 C 0.4422 0.92662 0.96451 0.0
O273 O 0.4474 0.91451 0.95637 0.0
O274 O 0.4512 0.93145 0.97609 0.0
O275 O 0.4961 0.42045 0.79592 0.0
Cd276 Cd 0.50967 0.43207 0.81985 0.0
O277 O 0.52112 0.41265 0.79828 0.0
Cd278 Cd 0.54652 0.40533 0.80292 0.0
O279 O 0.54909 0.43223 0.79522 0.0
C280 C 0.55657 0.44223 0.78566 0.0
O281 O 0.54907 0.43216 0.79526 0.0
C282 C 0.50771 0.41171 0.79067 0.0
C283 C 0.49237 0.44828 0.84493 0.0
O284 O 0.48551 0.44454 0.83158 0.0
O285 O 0.5074 0.44458 0.84627 0.0
O286 O 0.20564 0.29759 0.44558 0.0
Cd287 Cd 0.20452 0.27265 0.46074 0.0
O288 O 0.18265 0.29842 0.45877 0.0
Cd289 Cd 0.16558 0.287 0.4755 0.0
O290 O 0.15531 0.26714 0.46066 0.0
C291 C 0.14306 0.27432 0.45467 0.0
O292 O 0.13998 0.28918 0.45966 0.0
C293 C 0.19262 0.30511 0.44899 0.0
C294 C 0.23298 0.25395 0.45808 0.0
O295 O 0.22999 0.2652 0.44776 0.0
O296 O 0.22233 0.25127 0.46914 0.0
O297 O 0.20179 0.7699 0.29707 0.0
Cd298 Cd 0.1899 0.75872 0.32125 0.0
O299 O 0.17671 0.7781 0.29841 0.0
Cd300 Cd 0.15313 0.77699 0.31035 0.0
O301 O 0.145 0.75287 0.30286 0.0
C302 C 0.14509 0.75453 0.28756 0.0
O303 O 0.15215 0.76774 0.28177 0.0
C304 C 0.19046 0.77877 0.29144 0.0
C305 C 0.20831 0.743 0.34508 0.0
O306 O 0.21525 0.74739 0.33182 0.0
O307 O 0.19318 0.74605 0.34685 0.0
O308 O 0.48291 0.29949 0.74195 0.0
Cd309 Cd 0.48203 0.27443 0.72683 0.0
O310 O 0.50574 0.29898 0.72871 0.0
Cd311 Cd 0.52186 0.28663 0.71164 0.0
O312 O 0.53137 0.26747 0.7277 0.0
C313 C 0.54404 0.27425 0.73289 0.0
O314 O 0.54809 0.28847 0.72688 0.0
C315 C 0.49634 0.3062 0.73867 0.0
C316 C 0.45292 0.25677 0.72995 0.0
O317 O 0.45621 0.2682 0.73974 0.0
O318 O 0.46333 0.25359 0.7188 0.0
O319 O 0.20199 0.41879 0.39155 0.0
Cd320 Cd 0.18912 0.43131 0.36686 0.0
O321 O 0.17634 0.41677 0.38951 0.0
Cd322 Cd 0.15182 0.41144 0.38278 0.0
O323 O 0.15069 0.43744 0.38863 0.0
C324 C 0.14604 0.43892 0.40328 0.0
O325 O 0.151 0.42742 0.41336 0.0
C326 C 0.18908 0.4124 0.39697 0.0
C327 C 0.20783 0.44641 0.34266 0.0
O328 O 0.21397 0.44182 0.35617 0.0
O329 O 0.19264 0.44422 0.34063 0.0
O330 O 0.20996 0.89464 0.24279 0.0
Cd331 Cd 0.21028 0.91997 0.22967 0.0
O332 O 0.18607 0.89114 0.23143 0.0
Cd333 Cd 0.17102 0.90529 0.2147 0.0
O334 O 0.16039 0.92516 0.22962 0.0
C335 C 0.14779 0.91823 0.23516 0.0
O336 O 0.14491 0.90345 0.22999 0.0
C337 C 0.19735 0.88613 0.24071 0.0
C338 C 0.23939 0.93657 0.23616 0.0
O339 O 0.23448 0.92484 0.24509 0.0
O340 O 0.23055 0.94055 0.22406 0.0
O341 O 0.48654 0.76198 0.90545 0.0
Cd342 Cd 0.49972 0.7503 0.88004 0.0
O343 O 0.51213 0.76425 0.90231 0.0
Cd344 Cd 0.53618 0.77164 0.89459 0.0
O345 O 0.54504 0.74737 0.90022 0.0
C346 C 0.54746 0.74745 0.9154 0.0
O347 O 0.54246 0.76047 0.92322 0.0
C348 C 0.49953 0.76844 0.91031 0.0
C349 C 0.48215 0.73459 0.85569 0.0
O350 O 0.47584 0.73811 0.86948 0.0
O351 O 0.49709 0.73814 0.8534 0.0
O352 O 0.95694 0.47272 0.88248 0.0
Cd353 Cd 0.9706 0.47103 0.90884 0.0
O354 O 0.97032 0.49532 0.88373 0.0
Cd355 Cd 0.98641 0.51102 0.89675 0.0
O356 O 0.97034 0.52086 0.91561 0.0
C357 C 0.96413 0.53321 0.90875 0.0
O358 O 0.96929 0.53703 0.89407 0.0
C359 C 0.96085 0.48616 0.87598 0.0
C360 C 0.96549 0.44166 0.92653 0.0
O361 O 0.95711 0.44593 0.91423 0.0
O362 O 0.97663 0.45137 0.931 0.0
O363 O 0.77343 0.29795 0.20353 0.0
Cd364 Cd 0.75902 0.3206 0.19031 0.0
O365 O 0.77787 0.30049 0.17781 0.0
Cd366 Cd 0.77917 0.30865 0.15306 0.0
O367 O 0.75515 0.30042 0.14678 0.0
C368 C 0.75862 0.28589 0.14317 0.0
O369 O 0.77398 0.28139 0.14347 0.0
C370 C 0.78027 0.29259 0.19083 0.0
C371 C 0.74428 0.34459 0.20907 0.0
O372 O 0.74824 0.33087 0.21533 0.0
O373 O 0.74668 0.34664 0.19386 0.0
O374 O 0.73873 0.71772 0.38988 0.0
Cd375 Cd 0.72392 0.71825 0.41569 0.0
O376 O 0.72653 0.6944 0.39087 0.0
Cd377 Cd 0.71015 0.67799 0.40337 0.0
O378 O 0.72534 0.66881 0.42297 0.0
C379 C 0.7324 0.65677 0.41648 0.0
O380 O 0.72808 0.65266 0.40174 0.0
C381 C 0.73614 0.70402 0.38353 0.0
C382 C 0.72677 0.74707 0.43403 0.0
O383 O 0.73606 0.74396 0.42196 0.0
O384 O 0.71592 0.73659 0.43764 0.0
O385 O 0.91315 0.90225 0.69582 0.0
Cd386 Cd 0.92461 0.87745 0.68365 0.0
O387 O 0.90745 0.8999 0.67073 0.0
Cd388 Cd 0.90159 0.89171 0.64684 0.0
O389 O 0.92578 0.89959 0.64038 0.0
C390 C 0.92382 0.91386 0.63484 0.0
O391 O 0.90928 0.92041 0.63651 0.0
C392 C 0.90498 0.90748 0.68386 0.0
C393 C 0.94091 0.85228 0.70003 0.0
O394 O 0.93699 0.86505 0.708 0.0
O395 O 0.93735 0.85186 0.68498 0.0
O396 O 0.95002 0.71091 0.78757 0.0
Cd397 Cd 0.9649 0.71363 0.76277 0.0
O398 O 0.9647 0.68853 0.78788 0.0
Cd399 Cd 0.982 0.67537 0.77202 0.0
O400 O 0.96653 0.66336 0.75314 0.0
C401 C 0.95833 0.65413 0.76247 0.0
O402 O 0.96104 0.65584 0.77814 0.0
C403 C 0.95436 0.6979 0.79472 0.0
C404 C 0.96097 0.74315 0.74544 0.0
O405 O 0.95193 0.73985 0.75768 0.0
O406 O 0.97153 0.73246 0.74129 0.0
O407 O 0.91666 0.28577 0.97978 0.0
Cd408 Cd 0.93146 0.30846 0.99093 0.0
O409 O 0.91131 0.28935 0.00424 0.0
Cd410 Cd 0.9118 0.29938 0.02823 0.0
O411 O 0.93536 0.29116 0.03769 0.0
C412 C 0.93165 0.2768 0.04176 0.0
O413 O 0.91701 0.27185 0.03777 0.0
C414 C 0.90857 0.28169 0.99229 0.0
C415 C 0.9472 0.332 0.97172 0.0
O416 O 0.94354 0.31841 0.96527 0.0
O417 O 0.94374 0.33383 0.98675 0.0
O418 O 0.74096 0.48264 0.30024 0.0
Cd419 Cd 0.72572 0.48238 0.27444 0.0
O420 O 0.72805 0.50564 0.29914 0.0
Cd421 Cd 0.71192 0.5218 0.28614 0.0
O422 O 0.72924 0.53067 0.26773 0.0
C423 C 0.73592 0.54243 0.27487 0.0
O424 O 0.72977 0.54699 0.28888 0.0
C425 C 0.73753 0.49615 0.30679 0.0
C426 C 0.73056 0.45327 0.25685 0.0
O427 O 0.73922 0.4581 0.26861 0.0
O428 O 0.71899 0.46268 0.25229 0.0
O429 O 0.7639 0.90446 0.48513 0.0
Cd430 Cd 0.75048 0.8803 0.49809 0.0
O431 O 0.76614 0.89976 0.51073 0.0
Cd432 Cd 0.7714 0.89392 0.53584 0.0
O433 O 0.74728 0.89998 0.54476 0.0
C434 C 0.74698 0.91517 0.54711 0.0
O435 O 0.75963 0.92333 0.54162 0.0
C436 C 0.77044 0.90819 0.49846 0.0
C437 C 0.73549 0.85565 0.48145 0.0
O438 O 0.73785 0.86935 0.47438 0.0
O439 O 0.73984 0.85407 0.49626 0.0
O440 O 0.88299 0.95665 0.47217 0.0
Cd441 Cd 0.90894 0.9706 0.47028 0.0
O442 O 0.88438 0.9691 0.49532 0.0
Cd443 Cd 0.8974 0.98508 0.51137 0.0
O444 O 0.91563 0.96772 0.52058 0.0
C445 C 0.90871 0.96138 0.53286 0.0
O446 O 0.89488 0.96781 0.53774 0.0
C447 C 0.87674 0.95974 0.48593 0.0
C448 C 0.92688 0.96589 0.4411 0.0
O449 O 0.91489 0.95692 0.4451 0.0
O450 O 0.93094 0.97699 0.451 0.0
O451 O 0.39013 0.73812 0.71709 0.0
Cd452 Cd 0.41589 0.72249 0.7177 0.0
O453 O 0.39119 0.72562 0.69404 0.0
Cd454 Cd 0.40407 0.70945 0.67787 0.0
O455 O 0.42343 0.72523 0.6688 0.0
C456 C 0.41698 0.73217 0.65665 0.0
O457 O 0.40239 0.72751 0.65234 0.0
C458 C 0.38361 0.73511 0.70353 0.0
C459 C 0.43305 0.72583 0.74718 0.0
O460 O 0.42135 0.73492 0.74251 0.0
O461 O 0.43754 0.71449 0.73757 0.0
O462 O 0.29771 0.20431 0.77343 0.0
Cd463 Cd 0.32081 0.19136 0.75872 0.0
O464 O 0.30167 0.17866 0.77671 0.0
Cd465 Cd 0.30723 0.15344 0.78009 0.0
O466 O 0.29987 0.14906 0.75542 0.0
C467 C 0.28565 0.14366 0.75744 0.0
O468 O 0.27986 0.14337 0.77233 0.0
C469 C 0.29319 0.19114 0.78001 0.0
C470 C 0.34465 0.2091 0.74251 0.0
O471 O 0.3311 0.21586 0.74629 0.0
O472 O 0.3468 0.19419 0.7464 0.0
O473 O 0.2946 0.44484 0.20301 0.0
Cd474 Cd 0.2715 0.46263 0.20364 0.0
O475 O 0.29994 0.45867 0.18058 0.0
Cd476 Cd 0.28546 0.47598 0.16644 0.0
O477 O 0.26675 0.46008 0.1555 0.0
C478 C 0.27441 0.45698 0.14248 0.0
O479 O 0.28829 0.46447 0.13995 0.0
C480 C 0.3041 0.44822 0.19125 0.0
C481 C 0.25436 0.45812 0.23302 0.0
O482 O 0.26606 0.44924 0.22799 0.0
O483 O 0.2499 0.46989 0.22382 0.0
O484 O 0.90395 0.48641 0.76356 0.0
Cd485 Cd 0.8805 0.49933 0.75085 0.0
O486 O 0.90126 0.51194 0.76967 0.0
Cd487 Cd 0.88862 0.53487 0.76808 0.0
O488 O 0.899 0.5451 0.74512 0.0
C489 C 0.91136 0.55128 0.75163 0.0
O490 O 0.91243 0.55038 0.76757 0.0
C491 C 0.90911 0.49871 0.77104 0.0
C492 C 0.85559 0.4825 0.73575 0.0
O493 O 0.86889 0.47505 0.73906 0.0
O494 O 0.85434 0.4975 0.73935 0.0
O495 O 0.78916 0.24044 0.98718 0.0
Cd496 Cd 0.76499 0.22462 0.98625 0.0
O497 O 0.79415 0.22718 0.00894 0.0
Cd498 Cd 0.78024 0.2107 0.02463 0.0
O499 O 0.76167 0.22757 0.03354 0.0
C500 C 0.76928 0.23674 0.04313 0.0
O501 O 0.78486 0.23358 0.04502 0.0
C502 C 0.79867 0.2371 0.99884 0.0
C503 C 0.74906 0.22938 0.9562 0.0
O504 O 0.76109 0.2377 0.96097 0.0
O505 O 0.74384 0.21829 0.96581 0.0
O506 O 0.28439 0.97867 0.91464 0.0
Cd507 Cd 0.30805 0.98946 0.93105 0.0
O508 O 0.29129 0.00236 0.91365 0.0
Cd509 Cd 0.30215 0.02623 0.9144 0.0
O510 O 0.291 0.03762 0.9368 0.0
C511 C 0.27842 0.04273 0.92956 0.0
O512 O 0.27776 0.0401 0.91387 0.0
C513 C 0.28227 0.99266 0.90844 0.0
C514 C 0.33224 0.97155 0.94594 0.0
O515 O 0.31873 0.96491 0.94225 0.0
O516 O 0.33391 0.98673 0.94298 0.0
O517 O 0.39015 0.20258 0.41813 0.0
Cd518 Cd 0.36649 0.18965 0.43073 0.0
O519 O 0.38803 0.177 0.41247 0.0
Cd520 Cd 0.37597 0.15418 0.41516 0.0
O521 O 0.38716 0.14881 0.43881 0.0
C522 C 0.39676 0.13784 0.43389 0.0
O523 O 0.39501 0.13249 0.41896 0.0
C524 C 0.39545 0.1903 0.41053 0.0
C525 C 0.34218 0.20768 0.44617 0.0
O526 O 0.35535 0.21459 0.44171 0.0
O527 O 0.34058 0.19256 0.44336 0.0
H528 H 0.9289 0.44726 0.47749 0.0
H529 H 0.95027 0.47076 0.43517 0.0
H530 H 0.92376 0.48376 0.42903 0.0
H531 H 0.88902 0.43874 0.46376 0.0
H532 H 0.87911 0.44503 0.48233 0.0
H533 H 0.89991 0.43798 0.48272 0.0
H534 H 0.90787 0.46564 0.49648 0.0
H535 H 0.8867 0.47153 0.49566 0.0
H536 H 0.90199 0.48442 0.48663 0.0
H537 H 0.89561 0.49214 0.42602 0.0
H538 H 0.86665 0.49821 0.42656 0.0
H539 H 0.86125 0.47135 0.47204 0.0
C540 C 0.92792 0.45532 0.46706 0.0
C541 C 0.94154 0.45802 0.4567 0.0
C542 C 0.93997 0.46859 0.44319 0.0
C543 C 0.92495 0.47595 0.43961 0.0
C544 C 0.91162 0.47271 0.44975 0.0
C545 C 0.91292 0.46295 0.46338 0.0
C546 C 0.89668 0.46251 0.47263 0.0
C547 C 0.89085 0.44502 0.47552 0.0
C548 C 0.89841 0.47156 0.4888 0.0
C549 C 0.88556 0.47196 0.46097 0.0
C550 C 0.89487 0.47807 0.44822 0.0
C551 C 0.88819 0.48748 0.4359 0.0
C552 C 0.87163 0.4908 0.43632 0.0
C553 C 0.86165 0.48535 0.44923 0.0
C554 C 0.86856 0.47552 0.46184 0.0
H555 H 0.92621 0.98292 0.41189 0.0
H556 H 0.94829 0.94144 0.43624 0.0
H557 H 0.96166 0.93341 0.41049 0.0
H558 H 0.91833 0.96692 0.3726 0.0
H559 H 0.92534 0.9847 0.36173 0.0
H560 H 0.91774 0.98656 0.38225 0.0
H561 H 0.94555 1.00019 0.39004 0.0
H562 H 0.95195 0.99787 0.36916 0.0
H563 H 0.96424 0.98955 0.3853 0.0
H564 H 0.97059 0.92843 0.38285 0.0
H565 H 0.97746 0.92709 0.35409 0.0
H566 H 0.95203 0.97286 0.34535 0.0
C567 C 0.93401 0.97225 0.41171 0.0
C568 C 0.93619 0.96266 0.42599 0.0
C569 C 0.94648 0.94885 0.42544 0.0
C570 C 0.95406 0.94421 0.41086 0.0
C571 C 0.95137 0.95359 0.39689 0.0
C572 C 0.94191 0.9675 0.39713 0.0
C573 C 0.94211 0.97572 0.38033 0.0
C574 C 0.92484 0.97864 0.37386 0.0
C575 C 0.95152 0.99178 0.38126 0.0
C576 C 0.95155 0.96318 0.37021 0.0
C577 C 0.9571 0.95088 0.38041 0.0
C578 C 0.96635 0.93794 0.37473 0.0
C579 C 0.97008 0.93725 0.35828 0.0
C580 C 0.9653 0.9497 0.34743 0.0
C581 C 0.95564 0.96295 0.35332 0.0
H582 H 0.76346 0.72221 0.97604 0.0
H583 H 0.76002 0.75258 0.93259 0.0
H584 H 0.7876 0.74505 0.92487 0.0
H585 H 0.80569 0.72663 0.98606 0.0
H586 H 0.80938 0.7053 0.98986 0.0
H587 H 0.78919 0.71363 0.99244 0.0
H588 H 0.77871 0.69159 0.97183 0.0
H589 H 0.79937 0.68417 0.97027 0.0
H590 H 0.78852 0.69018 0.95221 0.0
H591 H 0.8158 0.73657 0.92194 0.0
H592 H 0.84311 0.72429 0.92252 0.0
H593 H 0.82993 0.69678 0.96583 0.0
C594 C 0.76854 0.72713 0.96488 0.0
C595 C 0.75951 0.73844 0.95517 0.0
C596 C 0.76656 0.74426 0.94051 0.0
C597 C 0.78235 0.74004 0.93591 0.0
C598 C 0.79113 0.72949 0.94578 0.0
C599 C 0.78451 0.72265 0.95973 0.0
C600 C 0.79674 0.71055 0.96707 0.0
C601 C 0.80046 0.71426 0.98492 0.0
C602 C 0.79047 0.69309 0.96524 0.0
C603 C 0.8116 0.71328 0.95614 0.0
C604 C 0.80777 0.72396 0.94369 0.0
C605 C 0.81901 0.72825 0.93167 0.0
C606 C 0.8346 0.72142 0.93226 0.0
C607 C 0.83871 0.70993 0.94438 0.0
C608 C 0.82717 0.7059 0.95667 0.0
H609 H 0.71044 0.21494 0.86662 0.0
H610 H 0.72531 0.26461 0.85678 0.0
H611 H 0.7361 0.26667 0.88436 0.0
H612 H 0.69971 0.2162 0.90832 0.0
H613 H 0.71031 0.19782 0.91417 0.0
H614 H 0.70352 0.20048 0.89354 0.0
H615 H 0.73375 0.19533 0.88375 0.0
H616 H 0.7393 0.19277 0.90479 0.0
H617 H 0.74966 0.20753 0.89225 0.0
H618 H 0.74309 0.26488 0.91296 0.0
H619 H 0.74967 0.25824 0.94118 0.0
H620 H 0.73325 0.20869 0.93418 0.0
C621 C 0.71637 0.22603 0.87028 0.0
C622 C 0.717 0.23976 0.85965 0.0
C623 C 0.72485 0.25401 0.86469 0.0
C624 C 0.73086 0.25535 0.8804 0.0
C625 C 0.72969 0.24202 0.89086 0.0
C626 C 0.72324 0.22738 0.88598 0.0
C627 C 0.72495 0.21477 0.89969 0.0
C628 C 0.70864 0.20686 0.90419 0.0
C629 C 0.73767 0.20183 0.89483 0.0
C630 C 0.73135 0.22525 0.9135 0.0
C631 C 0.73442 0.24078 0.90775 0.0
C632 C 0.74082 0.25275 0.91761 0.0
C633 C 0.74445 0.24884 0.93371 0.0
C634 C 0.74202 0.23299 0.93998 0.0
C635 C 0.73501 0.22101 0.92982 0.0
H636 H 0.86703 0.71089 0.2148 0.0
H637 H 0.8577 0.72426 0.26498 0.0
H638 H 0.88537 0.73487 0.26712 0.0
H639 H 0.90873 0.69997 0.21538 0.0
H640 H 0.91445 0.71109 0.19727 0.0
H641 H 0.8938 0.70428 0.19992 0.0
H642 H 0.88403 0.73464 0.19575 0.0
H643 H 0.90508 0.74022 0.19315 0.0
H644 H 0.89269 0.75015 0.20833 0.0
H645 H 0.91398 0.74185 0.26525 0.0
H646 H 0.94218 0.74853 0.25854 0.0
H647 H 0.93464 0.73361 0.2086 0.0
C648 C 0.87082 0.71645 0.22603 0.0
C649 C 0.86035 0.71674 0.23986 0.0
C650 C 0.86553 0.72409 0.2543 0.0
C651 C 0.88128 0.73 0.25568 0.0
C652 C 0.89161 0.72919 0.24222 0.0
C653 C 0.88657 0.72321 0.22744 0.0
C654 C 0.90016 0.72524 0.21476 0.0
C655 C 0.90453 0.70918 0.20634 0.0
C656 C 0.8952 0.73833 0.20226 0.0
C657 C 0.9141 0.73128 0.2253 0.0
C658 C 0.90851 0.7339 0.24096 0.0
C659 C 0.91851 0.73992 0.25302 0.0
C660 C 0.9346 0.7436 0.24907 0.0
C661 C 0.94072 0.74159 0.2331 0.0
C662 C 0.93041 0.735 0.22102 0.0
H663 H 0.71843 0.92449 0.83029 0.0
H664 H 0.69866 0.97216 0.841 0.0
H665 H 0.70714 0.9819 0.81357 0.0
H666 H 0.75275 0.9338 0.80531 0.0
H667 H 0.74858 0.91776 0.79115 0.0
H668 H 0.74181 0.91597 0.81194 0.0
H669 H 0.71194 0.91175 0.80131 0.0
H670 H 0.71988 0.91353 0.78089 0.0
H671 H 0.7035 0.92664 0.7875 0.0
H672 H 0.71768 0.98607 0.78474 0.0
H673 H 0.73005 0.98511 0.75745 0.0
H674 H 0.74233 0.93414 0.76475 0.0
C675 C 0.71648 0.93713 0.82701 0.0
C676 C 0.70852 0.94781 0.83786 0.0
C677 C 0.70525 0.96402 0.83297 0.0
C678 C 0.7098 0.96953 0.81735 0.0
C679 C 0.71735 0.95857 0.80671 0.0
C680 C 0.72052 0.94267 0.81131 0.0
C681 C 0.72746 0.93299 0.79716 0.0
C682 C 0.74361 0.92465 0.80167 0.0
C683 C 0.71495 0.92049 0.79138 0.0
C684 C 0.72966 0.94635 0.78448 0.0
C685 C 0.72305 0.96084 0.79002 0.0
C686 C 0.72291 0.9748 0.78033 0.0
C687 C 0.72994 0.9741 0.76477 0.0
C688 C 0.73727 0.95962 0.75896 0.0
C689 C 0.73699 0.94546 0.76892 0.0
H690 H 0.8375 0.46028 0.75215 0.0
H691 H 0.84039 0.48763 0.70706 0.0
H692 H 0.81246 0.47898 0.70011 0.0
H693 H 0.81328 0.42631 0.7411 0.0
H694 H 0.80118 0.42711 0.75946 0.0
H695 H 0.82165 0.43475 0.75938 0.0
H696 H 0.81013 0.46286 0.7698 0.0
H697 H 0.79009 0.45409 0.76965 0.0
H698 H 0.79403 0.47261 0.75851 0.0
H699 H 0.78411 0.46752 0.6984 0.0
H700 H 0.75786 0.4536 0.7012 0.0
H701 H 0.77252 0.43434 0.74822 0.0
C702 C 0.83243 0.46384 0.74052 0.0
C703 C 0.84119 0.47405 0.72978 0.0
C704 C 0.83396 0.47936 0.71513 0.0
C705 C 0.81805 0.47472 0.71125 0.0
C706 C 0.80946 0.46499 0.72231 0.0
C707 C 0.81635 0.45973 0.73671 0.0
C708 C 0.804 0.45059 0.74709 0.0
C709 C 0.81042 0.43369 0.75204 0.0
C710 C 0.79929 0.46064 0.76215 0.0
C711 C 0.78976 0.44971 0.73545 0.0
C712 C 0.79296 0.45874 0.72153 0.0
C713 C 0.78151 0.46042 0.70923 0.0
C714 C 0.76657 0.45245 0.71097 0.0
C715 C 0.76309 0.44276 0.72485 0.0
C716 C 0.77485 0.44152 0.73737 0.0
H717 H 0.93887 0.21511 0.26729 0.0
H718 H 0.95196 0.26229 0.24749 0.0
H719 H 0.96246 0.27036 0.27424 0.0
H720 H 0.92619 0.2254 0.30734 0.0
H721 H 0.93656 0.20854 0.31695 0.0
H722 H 0.93033 0.20708 0.29607 0.0
H723 H 0.96082 0.20019 0.28827 0.0
H724 H 0.96577 0.20183 0.30951 0.0
H725 H 0.97652 0.2139 0.29461 0.0
H726 H 0.96899 0.27449 0.30267 0.0
H727 H 0.9745 0.2742 0.33176 0.0
H728 H 0.95964 0.22368 0.33506 0.0
C729 C 0.9442 0.22702 0.26864 0.0
C730 C 0.94456 0.2382 0.25541 0.0
C731 C 0.95157 0.25365 0.2575 0.0
C732 C 0.95749 0.25833 0.27266 0.0
C733 C 0.95641 0.24737 0.28565 0.0
C734 C 0.95032 0.23191 0.28384 0.0
C735 C 0.95166 0.22239 0.29984 0.0
C736 C 0.9352 0.21545 0.30536 0.0
C737 C 0.96445 0.20877 0.29795 0.0
C738 C 0.95766 0.23557 0.31132 0.0
C739 C 0.9607 0.24967 0.30251 0.0
C740 C 0.96661 0.2636 0.30973 0.0
C741 C 0.9695 0.26335 0.32633 0.0
C742 C 0.96724 0.24913 0.33569 0.0
C743 C 0.96105 0.2349 0.32823 0.0
H744 H 0.45542 0.85839 0.46034 0.0
H745 H 0.44515 0.86998 0.51119 0.0
H746 H 0.44609 0.89826 0.50516 0.0
H747 H 0.48308 0.89274 0.45074 0.0
H748 H 0.47386 0.89758 0.43147 0.0
H749 H 0.47316 0.87707 0.4393 0.0
H750 H 0.44111 0.87836 0.43663 0.0
H751 H 0.44322 0.89882 0.42886 0.0
H752 H 0.43031 0.8949 0.44624 0.0
H753 H 0.44847 0.92583 0.49586 0.0
H754 H 0.45241 0.95204 0.48138 0.0
H755 H 0.46076 0.92603 0.43639 0.0
C756 C 0.45378 0.86693 0.47019 0.0
C757 C 0.45036 0.86143 0.48643 0.0
C758 C 0.44797 0.87322 0.4987 0.0
C759 C 0.44834 0.88969 0.49547 0.0
C760 C 0.4516 0.89486 0.47985 0.0
C761 C 0.45432 0.8841 0.4672 0.0
C762 C 0.45645 0.89397 0.45143 0.0
C763 C 0.47261 0.89011 0.44273 0.0
C764 C 0.44192 0.89136 0.44012 0.0
C765 C 0.45614 0.91137 0.45783 0.0
C766 C 0.45274 0.91149 0.47421 0.0
C767 C 0.45122 0.92595 0.48297 0.0
C768 C 0.45353 0.94077 0.47472 0.0
C769 C 0.45694 0.94098 0.45785 0.0
C770 C 0.45821 0.92612 0.44933 0.0
H771 H 0.22514 0.94094 0.71715 0.0
H772 H 0.24091 0.93378 0.76714 0.0
H773 H 0.24488 0.90503 0.76235 0.0
H774 H 0.20456 0.9029 0.71 0.0
H775 H 0.2137 0.89928 0.69036 0.0
H776 H 0.21139 0.91978 0.69764 0.0
H777 H 0.24313 0.92347 0.69315 0.0
H778 H 0.24389 0.9028 0.686 0.0
H779 H 0.25673 0.90891 0.70248 0.0
H780 H 0.24587 0.87648 0.75389 0.0
H781 H 0.24659 0.84996 0.74 0.0
H782 H 0.23172 0.87373 0.69515 0.0
C783 C 0.22934 0.93324 0.72702 0.0
C784 C 0.23256 0.93984 0.74269 0.0
C785 C 0.23839 0.92932 0.75506 0.0
C786 C 0.24068 0.91278 0.75253 0.0
C787 C 0.23737 0.90651 0.73737 0.0
C788 C 0.2322 0.91629 0.72457 0.0
C789 C 0.231 0.90593 0.70924 0.0
C790 C 0.21415 0.90704 0.70135 0.0
C791 C 0.24448 0.91055 0.69699 0.0
C792 C 0.23424 0.88898 0.71613 0.0
C793 C 0.23845 0.8897 0.73227 0.0
C794 C 0.24259 0.87575 0.7412 0.0
C795 C 0.24273 0.86068 0.73329 0.0
C796 C 0.23915 0.85977 0.71651 0.0
C797 C 0.23437 0.87404 0.70802 0.0
H798 H 0.25573 0.26516 0.92919 0.0
H799 H 0.21385 0.25151 0.95865 0.0
H800 H 0.21258 0.27919 0.96987 0.0
H801 H 0.27593 0.29281 0.95548 0.0
H802 H 0.2803 0.30716 0.93937 0.0
H803 H 0.27792 0.28595 0.93477 0.0
H804 H 0.25501 0.29429 0.91385 0.0
H805 H 0.25845 0.31519 0.91922 0.0
H806 H 0.23832 0.30678 0.92088 0.0
H807 H 0.21581 0.30838 0.97809 0.0
H808 H 0.22436 0.33639 0.98397 0.0
H809 H 0.26364 0.33206 0.94876 0.0
C810 C 0.24648 0.26792 0.93823 0.0
C811 C 0.23501 0.25602 0.94321 0.0
C812 C 0.22288 0.26028 0.95476 0.0
C813 C 0.22199 0.27604 0.96114 0.0
C814 C 0.23328 0.28755 0.95583 0.0
C815 C 0.24524 0.28376 0.94456 0.0
C816 C 0.25506 0.2988 0.94006 0.0
C817 C 0.27339 0.296 0.94259 0.0
C818 C 0.2515 0.30407 0.92246 0.0
C819 C 0.24793 0.31117 0.95182 0.0
C820 C 0.23495 0.30455 0.96033 0.0
C821 C 0.22596 0.31365 0.97151 0.0
C822 C 0.23077 0.32962 0.97461 0.0
C823 C 0.24454 0.33634 0.96678 0.0
C824 C 0.2529 0.32725 0.95475 0.0
H825 H 0.45918 0.31382 0.19802 0.0
H826 H 0.44259 0.33922 0.24123 0.0
H827 H 0.44422 0.31352 0.2569 0.0
H828 H 0.44026 0.27628 0.20231 0.0
H829 H 0.45791 0.26468 0.19606 0.0
H830 H 0.45543 0.28538 0.1892 0.0
H831 H 0.48415 0.29195 0.20147 0.0
H832 H 0.48569 0.27093 0.20773 0.0
H833 H 0.48791 0.28684 0.22247 0.0
H834 H 0.44517 0.28536 0.26693 0.0
H835 H 0.44783 0.25645 0.27271 0.0
H836 H 0.46509 0.24788 0.22334 0.0
C837 C 0.45613 0.31401 0.21085 0.0
C838 C 0.45042 0.32839 0.21836 0.0
C839 C 0.44691 0.32832 0.23523 0.0
C840 C 0.44764 0.31374 0.24416 0.0
C841 C 0.45242 0.29956 0.23613 0.0
C842 C 0.45707 0.29963 0.22001 0.0
C843 C 0.46278 0.28284 0.21468 0.0
C844 C 0.45353 0.27696 0.19967 0.0
C845 C 0.48122 0.28316 0.21139 0.0
C846 C 0.4589 0.27283 0.22986 0.0
C847 C 0.45338 0.28302 0.24212 0.0
C848 C 0.44938 0.27725 0.25747 0.0
C849 C 0.45085 0.26068 0.26055 0.0
C850 C 0.45637 0.24977 0.24847 0.0
C851 C 0.46066 0.2559 0.2328 0.0
H852 H 0.4873 0.47493 0.86624 0.0
H853 H 0.47595 0.42425 0.85769 0.0
H854 H 0.46494 0.42173 0.88533 0.0
H855 H 0.49741 0.47477 0.90806 0.0
H856 H 0.48548 0.49243 0.91347 0.0
H857 H 0.4928 0.49008 0.89291 0.0
H858 H 0.46247 0.49311 0.88298 0.0
H859 H 0.4564 0.49543 0.90396 0.0
H860 H 0.44729 0.4799 0.89176 0.0
H861 H 0.45733 0.42328 0.91388 0.0
H862 H 0.44979 0.42974 0.94193 0.0
H863 H 0.46302 0.48021 0.9337 0.0
C864 C 0.48208 0.4635 0.87018 0.0
C865 C 0.4825 0.44964 0.85989 0.0
C866 C 0.47559 0.43495 0.86532 0.0
C867 C 0.46946 0.43335 0.88109 0.0
C868 C 0.46957 0.44683 0.89121 0.0
C869 C 0.47509 0.46183 0.88595 0.0
C870 C 0.4723 0.47441 0.89937 0.0
C871 C 0.48794 0.48345 0.9037 0.0
C872 C 0.45882 0.48642 0.89421 0.0
C873 C 0.46639 0.46363 0.91344 0.0
C874 C 0.46447 0.44788 0.90808 0.0
C875 C 0.45871 0.43558 0.91823 0.0
C876 C 0.45453 0.43938 0.93423 0.0
C877 C 0.4558 0.45542 0.94011 0.0
C878 C 0.46217 0.46775 0.92966 0.0
H879 H 0.25538 0.96227 0.25167 0.0
H880 H 0.26246 0.91956 0.22177 0.0
H881 H 0.29213 0.9234 0.22235 0.0
H882 H 0.28812 0.98795 0.23714 0.0
H883 H 0.29412 0.99414 0.25718 0.0
H884 H 0.2734 0.98834 0.25354 0.0
H885 H 0.27649 0.96659 0.27738 0.0
H886 H 0.29708 0.97351 0.27982 0.0
H887 H 0.2932 0.95229 0.27634 0.0
H888 H 0.32183 0.93219 0.22554 0.0
H889 H 0.34815 0.94563 0.23221 0.0
H890 H 0.32141 0.98162 0.26015 0.0
C891 C 0.26326 0.95399 0.24504 0.0
C892 C 0.25675 0.94077 0.2363 0.0
C893 C 0.26731 0.92987 0.22824 0.0
C894 C 0.28418 0.93189 0.22857 0.0
C895 C 0.29045 0.9449 0.23713 0.0
C896 C 0.28037 0.95572 0.24543 0.0
C897 C 0.29056 0.96787 0.25468 0.0
C898 C 0.2863 0.98562 0.25036 0.0
C899 C 0.28925 0.96488 0.27314 0.0
C900 C 0.3074 0.9633 0.24873 0.0
C901 C 0.30737 0.94965 0.23916 0.0
C902 C 0.32193 0.94295 0.23304 0.0
C903 C 0.33681 0.95061 0.23684 0.0
C904 C 0.33674 0.96486 0.24647 0.0
C905 C 0.32185 0.97103 0.2524 0.0
H906 H 0.22112 0.76178 0.36796 0.0
H907 H 0.21409 0.71153 0.35468 0.0
H908 H 0.22475 0.70265 0.3816 0.0
H909 H 0.25665 0.75984 0.39187 0.0
H910 H 0.24859 0.77364 0.40689 0.0
H911 H 0.24141 0.77473 0.3863 0.0
H912 H 0.21149 0.77101 0.39749 0.0
H913 H 0.21977 0.77025 0.41771 0.0
H914 H 0.20725 0.7539 0.41063 0.0
H915 H 0.23629 0.69973 0.41005 0.0
H916 H 0.24816 0.70233 0.43728 0.0
H917 H 0.24698 0.75491 0.43249 0.0
C918 C 0.22239 0.7489 0.37058 0.0
C919 C 0.21754 0.73727 0.35918 0.0
C920 C 0.21838 0.72053 0.36316 0.0
C921 C 0.22417 0.71545 0.37847 0.0
C922 C 0.22872 0.72733 0.38963 0.0
C923 C 0.22769 0.7437 0.38589 0.0
C924 C 0.23203 0.75406 0.40039 0.0
C925 C 0.24547 0.76628 0.39609 0.0
C926 C 0.21673 0.76282 0.40693 0.0
C927 C 0.23769 0.74104 0.41229 0.0
C928 C 0.23495 0.72569 0.40608 0.0
C929 C 0.23848 0.71167 0.415 0.0
C930 C 0.24518 0.71329 0.43049 0.0
C931 C 0.24857 0.72877 0.43693 0.0
C932 C 0.24469 0.7429 0.42775 0.0
H933 H 0.42703 0.95819 0.96548 0.0
H934 H 0.41818 0.90673 0.95794 0.0
H935 H 0.3895 0.91238 0.95307 0.0
H936 H 0.38905 0.97067 0.98447 0.0
H937 H 0.38659 0.98885 0.97233 0.0
H938 H 0.40665 0.98074 0.97601 0.0
H939 H 0.4111 0.97996 0.94401 0.0
H940 H 0.3908 0.98817 0.94197 0.0
H941 H 0.39631 0.9695 0.93195 0.0
H942 H 0.36101 0.92258 0.95018 0.0
H943 H 0.33529 0.93819 0.94709 0.0
H944 H 0.36154 0.98292 0.95552 0.0
C945 C 0.41896 0.94818 0.96298 0.0
C946 C 0.42496 0.93187 0.96227 0.0
C947 C 0.41404 0.91926 0.95853 0.0
C948 C 0.3976 0.92231 0.95574 0.0
C949 C 0.39191 0.93819 0.95649 0.0
C950 C 0.40219 0.95108 0.95968 0.0
C951 C 0.39262 0.96704 0.95834 0.0
C952 C 0.3938 0.97743 0.97371 0.0
C953 C 0.39802 0.97674 0.94317 0.0
C954 C 0.37547 0.96076 0.95605 0.0
C955 C 0.37536 0.94413 0.95437 0.0
C956 C 0.36096 0.93567 0.95146 0.0
C957 C 0.34637 0.9446 0.94994 0.0
C958 C 0.34642 0.96177 0.9511 0.0
C959 C 0.36108 0.96979 0.95469 0.0
H960 H 0.25575 0.24927 0.43334 0.0
H961 H 0.24706 0.2418 0.48499 0.0
H962 H 0.27483 0.23102 0.48811 0.0
H963 H 0.28161 0.21493 0.4243 0.0
H964 H 0.2953 0.22663 0.41168 0.0
H965 H 0.27438 0.23294 0.41386 0.0
H966 H 0.28482 0.26159 0.4237 0.0
H967 H 0.30531 0.25404 0.421 0.0
H968 H 0.29895 0.26212 0.44035 0.0
H969 H 0.30366 0.22041 0.48578 0.0
H970 H 0.33088 0.20995 0.47737 0.0
H971 H 0.32146 0.22516 0.4278 0.0
C972 C 0.25965 0.24505 0.44521 0.0
C973 C 0.24912 0.24602 0.4589 0.0
C974 C 0.25476 0.24081 0.47429 0.0
C975 C 0.27059 0.2348 0.47623 0.0
C976 C 0.28075 0.23398 0.46264 0.0
C977 C 0.27558 0.23903 0.44741 0.0
C978 C 0.28943 0.23786 0.4351 0.0
C979 C 0.2849 0.22746 0.42037 0.0
C980 C 0.29495 0.25491 0.42973 0.0
C981 C 0.30246 0.22986 0.4454 0.0
C982 C 0.29747 0.22828 0.4614 0.0
C983 C 0.30769 0.22162 0.47328 0.0
C984 C 0.32314 0.21589 0.46848 0.0
C985 C 0.32813 0.21701 0.45204 0.0
C986 C 0.31788 0.22442 0.44049 0.0
H987 H 0.43456 0.24156 0.75426 0.0
H988 H 0.43369 0.25801 0.70407 0.0
H989 H 0.40525 0.24903 0.70167 0.0
H990 H 0.4094 0.20586 0.75216 0.0
H991 H 0.39853 0.21035 0.77073 0.0
H992 H 0.41896 0.2176 0.76782 0.0
H993 H 0.40779 0.24741 0.77336 0.0
H994 H 0.38785 0.23873 0.77605 0.0
H995 H 0.39097 0.25482 0.76138 0.0
H996 H 0.37659 0.23739 0.70438 0.0
H997 H 0.35069 0.22387 0.71269 0.0
H998 H 0.37018 0.21562 0.76082 0.0
C999 C 0.42838 0.24298 0.74275 0.0
C1000 C 0.43635 0.2501 0.72915 0.0
C1001 C 0.42786 0.25221 0.71444 0.0
C1002 C 0.41167 0.24726 0.713 0.0
C1003 C 0.40406 0.24011 0.72641 0.0
C1004 C 0.41207 0.23806 0.74109 0.0
C1005 C 0.4006 0.23103 0.75387 0.0
C1006 C 0.40727 0.21527 0.76158 0.0
C1007 C 0.39657 0.24375 0.76693 0.0
C1008 C 0.38574 0.22792 0.74366 0.0
C1009 C 0.38761 0.23379 0.728 0.0
C1010 C 0.37504 0.23274 0.71664 0.0
C1011 C 0.36039 0.22517 0.72142 0.0
C1012 C 0.35869 0.21874 0.73734 0.0
C1013 C 0.37137 0.22037 0.74854 0.0
H1014 H 0.20664 0.47085 0.31886 0.0
H1015 H 0.23229 0.42707 0.33419 0.0
H1016 H 0.24567 0.42542 0.30751 0.0
H1017 H 0.19991 0.46371 0.27745 0.0
H1018 H 0.20603 0.48357 0.27039 0.0
H1019 H 0.1985 0.48094 0.29085 0.0
H1020 H 0.22571 0.49388 0.3014 0.0
H1021 H 0.2321 0.49613 0.28048 0.0
H1022 H 0.24482 0.48527 0.2947 0.0
H1023 H 0.25414 0.42652 0.27943 0.0
H1024 H 0.26093 0.43186 0.25117 0.0
H1025 H 0.23265 0.47685 0.25242 0.0
C1026 C 0.21543 0.46124 0.31661 0.0
C1027 C 0.21844 0.44898 0.32847 0.0
C1028 C 0.23 0.43662 0.32532 0.0
C1029 C 0.2375 0.43547 0.31012 0.0
C1030 C 0.23394 0.44727 0.29844 0.0
C1031 C 0.22372 0.46029 0.30156 0.0
C1032 C 0.22331 0.47181 0.2869 0.0
C1033 C 0.20589 0.47519 0.28106 0.0
C1034 C 0.232 0.48771 0.29112 0.0
C1035 C 0.23323 0.46211 0.27449 0.0
C1036 C 0.23953 0.44827 0.28182 0.0
C1037 C 0.24939 0.43734 0.27354 0.0
C1038 C 0.25311 0.44054 0.25734 0.0
C1039 C 0.24745 0.45482 0.24942 0.0
C1040 C 0.23706 0.46573 0.25805 0.0
H1041 H 0.48242 0.71039 0.83157 0.0
H1042 H 0.45836 0.75465 0.84775 0.0
H1043 H 0.4444 0.75702 0.82164 0.0
H1044 H 0.48812 0.71785 0.78969 0.0
H1045 H 0.48118 0.69831 0.78293 0.0
H1046 H 0.48938 0.70038 0.80305 0.0
H1047 H 0.46213 0.68812 0.81482 0.0
H1048 H 0.45504 0.6864 0.79421 0.0
H1049 H 0.4431 0.69742 0.80898 0.0
H1050 H 0.43493 0.7565 0.79386 0.0
H1051 H 0.42719 0.7517 0.76588 0.0
H1052 H 0.45447 0.70611 0.76604 0.0
C1053 C 0.47388 0.72029 0.82962 0.0
C1054 C 0.47149 0.73248 0.84159 0.0
C1055 C 0.46022 0.74518 0.83881 0.0
C1056 C 0.45236 0.74673 0.82393 0.0
C1057 C 0.45523 0.735 0.81213 0.0
C1058 C 0.46518 0.72166 0.81488 0.0
C1059 C 0.46478 0.71034 0.8002 0.0
C1060 C 0.48189 0.7065 0.79358 0.0
C1061 C 0.45573 0.69464 0.80483 0.0
C1062 C 0.45478 0.72047 0.78817 0.0
C1063 C 0.44908 0.73438 0.79572 0.0
C1064 C 0.43925 0.74564 0.7878 0.0
C1065 C 0.43495 0.74275 0.77176 0.0
C1066 C 0.44013 0.72853 0.76356 0.0
C1067 C 0.45043 0.71722 0.77184 0.0
H1068 H 0.94822 0.36292 0.98195 0.0
H1069 H 0.96021 0.33326 0.94009 0.0
H1070 H 0.96716 0.35845 0.9245 0.0
H1071 H 0.92981 0.39658 0.96435 0.0
H1072 H 0.93966 0.4106 0.97778 0.0
H1073 H 0.93633 0.38994 0.98424 0.0
H1074 H 0.96773 0.38701 0.98973 0.0
H1075 H 0.96999 0.40788 0.98331 0.0
H1076 H 0.98185 0.39213 0.97364 0.0
H1077 H 0.9707 0.38745 0.91343 0.0
H1078 H 0.97216 0.41676 0.90752 0.0
H1079 H 0.9582 0.42757 0.95726 0.0
C1080 C 0.95234 0.36157 0.9695 0.0
C1081 C 0.95335 0.34612 0.96218 0.0
C1082 C 0.95913 0.34499 0.94592 0.0
C1083 C 0.96306 0.35925 0.93701 0.0
C1084 C 0.96122 0.37439 0.9446 0.0
C1085 C 0.95629 0.37549 0.96058 0.0
C1086 C 0.95618 0.39294 0.96646 0.0
C1087 C 0.9395 0.39778 0.97362 0.0
C1088 C 0.96973 0.39511 0.97902 0.0
C1089 C 0.96015 0.40199 0.95074 0.0
C1090 C 0.96355 0.39094 0.93845 0.0
C1091 C 0.96804 0.39612 0.92294 0.0
C1092 C 0.96882 0.41282 0.9197 0.0
C1093 C 0.96524 0.4244 0.93181 0.0
C1094 C 0.961 0.41897 0.94772 0.0
H1095 H 0.72269 0.4385 0.22651 0.0
H1096 H 0.74449 0.42953 0.27386 0.0
H1097 H 0.74922 0.40128 0.26693 0.0
H1098 H 0.70316 0.40007 0.21948 0.0
H1099 H 0.71007 0.39818 0.19872 0.0
H1100 H 0.70771 0.41803 0.20759 0.0
H1101 H 0.73851 0.42371 0.19975 0.0
H1102 H 0.73937 0.40361 0.19117 0.0
H1103 H 0.75378 0.40936 0.20645 0.0
H1104 H 0.75052 0.3735 0.25662 0.0
H1105 H 0.75074 0.34791 0.24122 0.0
H1106 H 0.7298 0.37328 0.19978 0.0
C1107 C 0.72837 0.43051 0.23536 0.0
C1108 C 0.73306 0.43638 0.2509 0.0
C1109 C 0.74079 0.42557 0.26192 0.0
C1110 C 0.74354 0.40934 0.25815 0.0
C1111 C 0.73879 0.4038 0.24309 0.0
C1112 C 0.73171 0.41397 0.23159 0.0
C1113 C 0.72918 0.40455 0.21588 0.0
C1114 C 0.71147 0.40525 0.21009 0.0
C1115 C 0.7409 0.41067 0.20252 0.0
C1116 C 0.73399 0.38745 0.22126 0.0
C1117 C 0.74003 0.38745 0.23683 0.0
C1118 C 0.74581 0.3733 0.24438 0.0
C1119 C 0.74564 0.35876 0.23563 0.0
C1120 C 0.74018 0.35861 0.21937 0.0
C1121 C 0.73386 0.37304 0.21228 0.0
H1122 H 0.74321 0.82487 0.4889 0.0
H1123 H 0.7163 0.85377 0.45377 0.0
H1124 H 0.71035 0.82854 0.43831 0.0
H1125 H 0.76227 0.79616 0.46463 0.0
H1126 H 0.75862 0.77985 0.47894 0.0
H1127 H 0.75982 0.80044 0.486 0.0
H1128 H 0.7308 0.79711 0.49934 0.0
H1129 H 0.73066 0.77651 0.49202 0.0
H1130 H 0.71429 0.79027 0.48688 0.0
H1131 H 0.70918 0.79996 0.42628 0.0
H1132 H 0.71147 0.77106 0.41873 0.0
H1133 H 0.73898 0.76091 0.46246 0.0
C1134 C 0.73598 0.82597 0.47799 0.0
C1135 C 0.73034 0.84121 0.47243 0.0
C1136 C 0.72084 0.84215 0.45814 0.0
C1137 C 0.71744 0.8279 0.44934 0.0
C1138 C 0.72366 0.81302 0.45507 0.0
C1139 C 0.73251 0.81205 0.46921 0.0
C1140 C 0.73708 0.79468 0.4735 0.0
C1141 C 0.75554 0.79269 0.4759 0.0
C1142 C 0.72765 0.78933 0.48884 0.0
C1143 C 0.73101 0.7859 0.45859 0.0
C1144 C 0.72279 0.79668 0.44841 0.0
C1145 C 0.71558 0.7915 0.43413 0.0
C1146 C 0.71695 0.77507 0.42995 0.0
C1147 C 0.7254 0.7639 0.43993 0.0
C1148 C 0.73248 0.76929 0.45457 0.0
H1149 H 0.94319 0.77072 0.7539 0.0
H1150 H 0.9771 0.75192 0.71778 0.0
H1151 H 0.97707 0.77853 0.70386 0.0
H1152 H 0.91894 0.79789 0.72997 0.0
H1153 H 0.91884 0.81374 0.745 0.0
H1154 H 0.92133 0.79284 0.75122 0.0
H1155 H 0.94866 0.80103 0.76565 0.0
H1156 H 0.94496 0.82165 0.75895 0.0
H1157 H 0.96389 0.81164 0.75388 0.0
H1158 H 0.97327 0.80694 0.69349 0.0
H1159 H 0.965 0.83493 0.68657 0.0
H1160 H 0.93405 0.83662 0.7295 0.0
C1161 C 0.95042 0.77216 0.74293 0.0
C1162 C 0.95997 0.75908 0.7368 0.0
C1163 C 0.96957 0.76162 0.72266 0.0
C1164 C 0.96969 0.77676 0.71467 0.0
C1165 C 0.96028 0.78942 0.72103 0.0
C1166 C 0.95095 0.7874 0.73493 0.0
C1167 C 0.94296 0.80347 0.73977 0.0
C1168 C 0.92441 0.80188 0.74158 0.0
C1169 C 0.95057 0.80982 0.75549 0.0
C1170 C 0.94779 0.81433 0.72548 0.0
C1171 C 0.95831 0.80606 0.71518 0.0
C1172 C 0.965 0.81348 0.70143 0.0
C1173 C 0.96034 0.82946 0.69769 0.0
C1174 C 0.94886 0.83788 0.70741 0.0
C1175 C 0.94295 0.83048 0.7219 0.0
H1176 H 0.98369 0.3812 0.42602 0.0
H1177 H 0.01945 0.37423 0.46201 0.0
H1178 H 0.02143 0.34511 0.45465 0.0
H1179 H 0.96218 0.34475 0.42855 0.0
H1180 H 0.96045 0.34245 0.40686 0.0
H1181 H 0.96259 0.3624 0.41537 0.0
H1182 H 0.9883 0.36653 0.39614 0.0
H1183 H 0.98488 0.34638 0.38847 0.0
H1184 H 0.00234 0.35151 0.39678 0.0
H1185 H 0.01716 0.31592 0.44501 0.0
H1186 H 0.01007 0.2905 0.43076 0.0
H1187 H 0.97781 0.31716 0.40089 0.0
C1188 C 0.99247 0.37358 0.43229 0.0
C1189 C 4e-05 0.37984 0.44495 0.0
C1190 C 0.01179 0.36962 0.45245 0.0
C1191 C 0.01294 0.35306 0.4484 0.0
C1192 C 0.00262 0.34706 0.43649 0.0
C1193 C 0.99401 0.35714 0.42816 0.0
C1194 C 0.98508 0.34792 0.41508 0.0
C1195 C 0.96648 0.34948 0.41658 0.0
C1196 C 0.99102 0.3534 0.39812 0.0
C1197 C 0.99079 0.33082 0.41877 0.0
C1198 C 0.0005 0.33056 0.43072 0.0
C1199 C 0.00807 0.31608 0.43556 0.0
C1200 C 0.00394 0.3017 0.42749 0.0
C1201 C 0.9946 0.30207 0.41468 0.0
C1202 C 0.98635 0.3166 0.41086 0.0
H1203 H 0.00434 0.83011 0.22279 0.0
H1204 H 0.99253 0.80391 0.26671 0.0
H1205 H 0.98804 0.82969 0.28081 0.0
H1206 H 0.02479 0.86499 0.23999 0.0
H1207 H 0.01532 0.87937 0.22629 0.0
H1208 H 0.01821 0.85854 0.22019 0.0
H1209 H 0.98865 0.85707 0.21458 0.0
H1210 H 0.98719 0.87804 0.22075 0.0
H1211 H 0.97477 0.86288 0.23062 0.0
H1212 H 0.9845 0.85669 0.29041 0.0
H1213 H 0.98405 0.88562 0.29664 0.0
H1214 H 1.00049 0.89707 0.24754 0.0
C1215 C 0.00104 0.82993 0.23557 0.0
C1216 C 0.99992 0.815 0.2438 0.0
C1217 C 0.99511 0.81518 0.26029 0.0
C1218 C 0.99232 0.82977 0.26834 0.0
C1219 C 0.99474 0.84423 0.25986 0.0
C1220 C 1.00003 0.84465 0.2439 0.0
C1221 C 1.00047 0.86226 0.23776 0.0
C1222 C 0.01519 0.86654 0.23064 0.0
C1223 C 0.98698 0.86523 0.22518 0.0
C1224 C 0.99658 0.87149 0.25341 0.0
C1225 C 0.99252 0.86056 0.26562 0.0
C1226 C 0.98768 0.86543 0.28104 0.0
C1227 C 0.98739 0.88189 0.28442 0.0
C1228 C 0.99234 0.89337 0.27271 0.0
C1229 C 0.99672 0.88836 0.25673 0.0
H1230 H 0.69657 0.82668 0.96739 0.0
H1231 H 0.69441 0.79874 0.92299 0.0
H1232 H 0.69192 0.82407 0.90699 0.0
H1233 H 0.66994 0.86019 0.95825 0.0
H1234 H 0.6833 0.8752 0.96665 0.0
H1235 H 0.68404 0.85453 0.97405 0.0
H1236 H 0.71543 0.85384 0.96696 0.0
H1237 H 0.71342 0.87463 0.96007 0.0
H1238 H 0.72178 0.85943 0.94667 0.0
H1239 H 0.68958 0.85081 0.89587 0.0
H1240 H 0.68639 0.87942 0.88875 0.0
H1241 H 0.69055 0.89269 0.93962 0.0
C1242 C 0.69499 0.82602 0.95435 0.0
C1243 C 0.69509 0.81081 0.94637 0.0
C1244 C 0.69389 0.81027 0.92927 0.0
C1245 C 0.69269 0.82459 0.9201 0.0
C1246 C 0.69288 0.83938 0.92823 0.0
C1247 C 0.69417 0.84036 0.94489 0.0
C1248 C 0.69529 0.85812 0.95009 0.0
C1249 C 0.68236 0.86225 0.96303 0.0
C1250 C 0.7125 0.86171 0.95632 0.0
C1251 C 0.69231 0.86686 0.93388 0.0
C1252 C 0.69176 0.85553 0.92153 0.0
C1253 C 0.68985 0.85985 0.90535 0.0
C1254 C 0.68799 0.87613 0.90145 0.0
C1255 C 0.68775 0.88805 0.91356 0.0
C1256 C 0.69034 0.88362 0.93015 0.0
H1257 H 0.70618 0.28749 0.75829 0.0
H1258 H 0.67877 0.30246 0.80124 0.0
H1259 H 0.67817 0.33021 0.79142 0.0
H1260 H 0.73073 0.32361 0.75122 0.0
H1261 H 0.72735 0.32517 0.72963 0.0
H1262 H 0.7263 0.30564 0.73965 0.0
H1263 H 0.69672 0.30238 0.72784 0.0
H1264 H 0.69908 0.32204 0.71824 0.0
H1265 H 0.68198 0.31829 0.73155 0.0
H1266 H 0.68087 0.3565 0.77947 0.0
H1267 H 0.6866 0.38132 0.7633 0.0
H1268 H 0.71126 0.35208 0.72691 0.0
C1269 C 0.70011 0.29673 0.76548 0.0
C1270 C 0.69237 0.29275 0.78068 0.0
C1271 C 0.68448 0.30505 0.78959 0.0
C1272 C 0.68415 0.32098 0.78417 0.0
C1273 C 0.69165 0.32478 0.76955 0.0
C1274 C 0.6993 0.3132 0.75995 0.0
C1275 C 0.70519 0.32141 0.74414 0.0
C1276 C 0.72349 0.3188 0.74098 0.0
C1277 C 0.69515 0.31569 0.72958 0.0
C1278 C 0.70117 0.33919 0.74762 0.0
C1279 C 0.69286 0.34063 0.76213 0.0
C1280 C 0.68728 0.35558 0.76796 0.0
C1281 C 0.69045 0.36958 0.7587 0.0
C1282 C 0.69923 0.36844 0.74391 0.0
C1283 C 0.70445 0.3531 0.73819 0.0
H1284 H 0.44203 0.02128 0.37191 0.0
H1285 H 0.44743 0.97112 0.38366 0.0
H1286 H 0.43758 0.96402 0.3568 0.0
H1287 H 0.40641 0.02059 0.34587 0.0
H1288 H 0.41479 0.03408 0.33064 0.0
H1289 H 0.42141 0.03543 0.3514 0.0
H1290 H 0.45168 0.03129 0.34067 0.0
H1291 H 0.44358 0.03013 0.3204 0.0
H1292 H 0.45615 0.01386 0.32821 0.0
H1293 H 0.4271 0.96142 0.32947 0.0
H1294 H 0.41442 0.96432 0.30258 0.0
H1295 H 0.41653 0.0156 0.30653 0.0
C1296 C 0.44089 0.00857 0.36876 0.0
C1297 C 0.44517 0.99733 0.38012 0.0
C1298 C 0.44398 0.9809 0.37543 0.0
C1299 C 0.4385 0.97668 0.36012 0.0
C1300 C 0.43446 0.98901 0.3493 0.0
C1301 C 0.43554 0.00403 0.35314 0.0
C1302 C 0.43134 0.01447 0.33829 0.0
C1303 C 0.41766 0.02687 0.34176 0.0
C1304 C 0.44659 0.02294 0.3315 0.0
C1305 C 0.42593 0.00148 0.32655 0.0
C1306 C 0.42857 0.98743 0.33297 0.0
C1307 C 0.42502 0.9734 0.32433 0.0
C1308 C 0.41798 0.97517 0.30899 0.0
C1309 C 0.41419 0.99084 0.30278 0.0
C1310 C 0.41896 0.00348 0.31122 0.0
H1311 H 0.29874 0.78151 0.71775 0.0
H1312 H 0.28724 0.77026 0.66788 0.0
H1313 H 0.3132 0.75548 0.66485 0.0
H1314 H 0.3405 0.78732 0.71603 0.0
H1315 H 0.34503 0.77568 0.73412 0.0
H1316 H 0.32527 0.78493 0.73178 0.0
H1317 H 0.31229 0.75593 0.73626 0.0
H1318 H 0.33261 0.74785 0.73854 0.0
H1319 H 0.31922 0.73941 0.72362 0.0
H1320 H 0.34183 0.74471 0.6663 0.0
H1321 H 0.36927 0.73462 0.67357 0.0
H1322 H 0.36187 0.75149 0.72298 0.0
C1323 C 0.30152 0.77552 0.70637 0.0
C1324 C 0.29146 0.7777 0.69265 0.0
C1325 C 0.29519 0.76933 0.67817 0.0
C1326 C 0.30993 0.76093 0.67637 0.0
C1327 C 0.32042 0.76027 0.68954 0.0
C1328 C 0.31614 0.76673 0.70449 0.0
C1329 C 0.32927 0.76322 0.71693 0.0
C1330 C 0.33537 0.77872 0.72519 0.0
C1331 C 0.32298 0.75087 0.72958 0.0
C1332 C 0.34226 0.75555 0.70619 0.0
C1333 C 0.3367 0.7535 0.69054 0.0
C1334 C 0.34629 0.74616 0.67856 0.0
C1335 C 0.36187 0.7405 0.68279 0.0
C1336 C 0.36769 0.74222 0.69887 0.0
C1337 C 0.35781 0.75009 0.71058 0.0
H1338 H 0.2823 0.21573 0.80031 0.0
H1339 H 0.27485 0.16546 0.78807 0.0
H1340 H 0.26166 0.16033 0.81437 0.0
H1341 H 0.28986 0.21369 0.84169 0.0
H1342 H 0.27673 0.23047 0.84716 0.0
H1343 H 0.28539 0.22952 0.82704 0.0
H1344 H 0.25555 0.23152 0.81533 0.0
H1345 H 0.24814 0.23249 0.83599 0.0
H1346 H 0.2406 0.21717 0.82251 0.0
H1347 H 0.25205 0.16003 0.84347 0.0
H1348 H 0.24229 0.16606 0.87146 0.0
H1349 H 0.25458 0.21686 0.86412 0.0
C1350 C 0.27743 0.2038 0.80301 0.0
C1351 C 0.28036 0.19052 0.79257 0.0
C1352 C 0.27337 0.17535 0.79624 0.0
C1353 C 0.26591 0.17238 0.81121 0.0
C1354 C 0.26458 0.18518 0.82202 0.0
C1355 C 0.26945 0.20078 0.81787 0.0
C1356 C 0.26536 0.21254 0.83139 0.0
C1357 C 0.28024 0.2221 0.83715 0.0
C1358 C 0.2516 0.22411 0.82599 0.0
C1359 C 0.25928 0.20078 0.84426 0.0
C1360 C 0.25843 0.18511 0.83851 0.0
C1361 C 0.25254 0.17231 0.8481 0.0
C1362 C 0.24706 0.17582 0.86394 0.0
C1363 C 0.24769 0.19197 0.86989 0.0
C1364 C 0.2541 0.20441 0.85996 0.0
H1365 H 0.32549 0.43637 0.1665 0.0
H1366 H 0.32147 0.4483 0.21781 0.0
H1367 H 0.3485 0.43706 0.22259 0.0
H1368 H 0.35013 0.39926 0.16854 0.0
H1369 H 0.36374 0.40497 0.1522 0.0
H1370 H 0.34324 0.41286 0.15265 0.0
H1371 H 0.35581 0.44256 0.15129 0.0
H1372 H 0.37569 0.43311 0.15094 0.0
H1373 H 0.37072 0.44794 0.16624 0.0
H1374 H 0.37543 0.42467 0.22313 0.0
H1375 H 0.40129 0.40994 0.21834 0.0
H1376 H 0.39018 0.40741 0.16687 0.0
C1377 C 0.33048 0.43666 0.17865 0.0
C1378 C 0.32117 0.44273 0.19205 0.0
C1379 C 0.32816 0.4433 0.20757 0.0
C1380 C 0.34355 0.43695 0.21045 0.0
C1381 C 0.35233 0.43064 0.19751 0.0
C1382 C 0.34636 0.4306 0.18178 0.0
C1383 C 0.35948 0.4241 0.17022 0.0
C1384 C 0.35381 0.40941 0.16033 0.0
C1385 C 0.3658 0.43773 0.15901 0.0
C1386 C 0.37261 0.41929 0.18222 0.0
C1387 C 0.36844 0.42367 0.19782 0.0
C1388 C 0.37881 0.421 0.21095 0.0
C1389 C 0.39353 0.4128 0.2081 0.0
C1390 C 0.39743 0.40719 0.19232 0.0
C1391 C 0.38729 0.41129 0.17912 0.0
H1392 H 0.427 0.17001 0.32165 0.0
H1393 H 0.45911 0.21144 0.32566 0.0
H1394 H 0.44996 0.21575 0.35376 0.0
H1395 H 0.39315 0.18266 0.34698 0.0
H1396 H 0.39113 0.16337 0.35733 0.0
H1397 H 0.3995 0.16414 0.33707 0.0
H1398 H 0.42555 0.14854 0.34855 0.0
H1399 H 0.41579 0.14867 0.36826 0.0
H1400 H 0.43584 0.15709 0.36574 0.0
H1401 H 0.43685 0.21673 0.38136 0.0
H1402 H 0.4198 0.21328 0.40633 0.0
H1403 H 0.39851 0.17016 0.38538 0.0
C1404 C 0.43225 0.17974 0.32865 0.0
C1405 C 0.44368 0.19062 0.32156 0.0
C1406 C 0.45034 0.20311 0.33096 0.0
C1407 C 0.44515 0.20574 0.34688 0.0
C1408 C 0.43368 0.19532 0.35358 0.0
C1409 C 0.42746 0.18231 0.34498 0.0
C1410 C 0.41619 0.17238 0.35588 0.0
C1411 C 0.39897 0.17055 0.3489 0.0
C1412 C 0.42379 0.15569 0.35984 0.0
C1413 C 0.41603 0.18275 0.37092 0.0
C1414 C 0.42648 0.19569 0.36967 0.0
C1415 C 0.4285 0.20665 0.38243 0.0
C1416 C 0.4189 0.20459 0.39655 0.0
C1417 C 0.40771 0.19162 0.39758 0.0
C1418 C 0.40685 0.1803 0.38489 0.0
H1419 H 0.38408 0.78851 0.52403 0.0
H1420 H 0.40951 0.76792 0.48256 0.0
H1421 H 0.38474 0.75241 0.47553 0.0
H1422 H 0.359 0.75705 0.53697 0.0
H1423 H 0.3419 0.77053 0.54025 0.0
H1424 H 0.36228 0.77822 0.54142 0.0
H1425 H 0.35484 0.80016 0.51921 0.0
H1426 H 0.33456 0.79199 0.5189 0.0
H1427 H 0.34624 0.79352 0.50032 0.0
H1428 H 0.35734 0.73949 0.47361 0.0
H1429 H 0.32941 0.72931 0.47615 0.0
H1430 H 0.32094 0.76008 0.51805 0.0
C1431 C 0.38459 0.78036 0.51375 0.0
C1432 C 0.39864 0.77906 0.50405 0.0
C1433 C 0.39878 0.76884 0.49025 0.0
C1434 C 0.38477 0.76019 0.48608 0.0
C1435 C 0.37082 0.76228 0.4957 0.0
C1436 C 0.37064 0.77226 0.50908 0.0
C1437 C 0.3539 0.77362 0.51663 0.0
C1438 C 0.35432 0.76961 0.5349 0.0
C1439 C 0.34699 0.79084 0.51358 0.0
C1440 C 0.34495 0.76096 0.50685 0.0
C1441 C 0.35487 0.75516 0.49441 0.0
C1442 C 0.3495 0.74381 0.48332 0.0
C1443 C 0.33371 0.73799 0.48497 0.0
C1444 C 0.32329 0.74371 0.49735 0.0
C1445 C 0.32891 0.75524 0.50868 0.0
H1446 H 0.23675 0.97684 0.8237 0.0
H1447 H 0.25157 0.02437 0.81064 0.0
H1448 H 0.26413 0.02728 0.83785 0.0
H1449 H 0.22679 0.98092 0.86512 0.0
H1450 H 0.23626 0.96189 0.87082 0.0
H1451 H 0.22881 0.9648 0.85047 0.0
H1452 H 0.2582 0.95744 0.8394 0.0
H1453 H 0.26438 0.95457 0.86021 0.0
H1454 H 0.27532 0.96846 0.84716 0.0
H1455 H 0.27212 0.02572 0.86613 0.0
H1456 H 0.27968 0.01986 0.8936 0.0
H1457 H 0.26247 0.9716 0.88941 0.0
C1458 C 0.24256 0.9882 0.82669 0.0
C1459 C 0.24284 -0.0002 0.81533 0.0
C1460 C 0.25076 0.01447 0.81939 0.0
C1461 C 0.25802 0.01613 0.8347 0.0
C1462 C 0.25705 0.00308 0.84567 0.0
C1463 C 0.24994 0.98999 0.84181 0.0
C1464 C 0.25153 0.97755 0.85554 0.0
C1465 C 0.23485 0.97091 0.86079 0.0
C1466 C 0.26304 0.96369 0.85026 0.0
C1467 C 0.2593 0.98789 0.86863 0.0
C1468 C 0.26257 0.00181 0.86219 0.0
C1469 C 0.26963 0.01383 0.87126 0.0
C1470 C 0.27357 0.01039 0.8872 0.0
C1471 C 0.27222 0.99592 0.89386 0.0
C1472 C 0.26405 0.98383 0.88471 0.0
H1473 H 0.37401 0.43783 0.02119 0.0
H1474 H 0.38136 0.45327 0.97196 0.0
H1475 H 0.35434 0.44379 0.96507 0.0
H1476 H 0.34809 0.40237 0.01572 0.0
H1477 H 0.33374 0.40768 0.03153 0.0
H1478 H 0.35448 0.41444 0.03272 0.0
H1479 H 0.3429 0.44466 0.03502 0.0
H1480 H 0.32273 0.43629 0.03366 0.0
H1481 H 0.32915 0.45186 0.01954 0.0
H1482 H 0.32694 0.4327 0.9623 0.0
H1483 H 0.3004 0.41893 0.96496 0.0
H1484 H 0.3084 0.41254 0.01573 0.0
C1485 C 0.36973 0.43931 0.00884 0.0
C1486 C 0.38013 0.44582 0.99734 0.0
C1487 C 0.37395 0.44792 0.98154 0.0
C1488 C 0.35857 0.44257 0.97745 0.0
C1489 C 0.34884 0.43581 0.98947 0.0
C1490 C 0.3538 0.43436 0.00449 0.0
C1491 C 0.33978 0.42777 0.0149 0.0
C1492 C 0.3443 0.41213 0.02426 0.0
C1493 C 0.33325 0.44092 0.02646 0.0
C1494 C 0.32721 0.42448 0.00196 0.0
C1495 C 0.33251 0.42968 0.98786 0.0
C1496 C 0.32278 0.42839 0.97408 0.0
C1497 C 0.30767 0.4207 0.97572 0.0
C1498 C 0.30266 0.41427 0.99099 0.0
C1499 C 0.3121 0.41703 0.00386 0.0
H1500 H 0.80409 0.28935 0.21315 0.0
H1501 H 0.78445 0.26744 0.16988 0.0
H1502 H 0.81014 0.25197 0.16587 0.0
H1503 H 0.84438 0.29526 0.20219 0.0
H1504 H 0.8524 0.28848 0.22145 0.0
H1505 H 0.83211 0.29675 0.22042 0.0
H1506 H 0.82143 0.26961 0.23406 0.0
H1507 H 0.84221 0.26247 0.23464 0.0
H1508 H 0.82691 0.25047 0.22489 0.0
H1509 H 0.83934 0.24166 0.16494 0.0
H1510 H 0.86807 0.23368 0.16976 0.0
H1511 H 0.86789 0.26234 0.21389 0.0
C1512 C 0.80509 0.28093 0.20312 0.0
C1513 C 0.7927 0.27982 0.19149 0.0
C1514 C 0.79414 0.26862 0.17861 0.0
C1515 C 0.80867 0.25991 0.17622 0.0
C1516 C 0.82133 0.26234 0.18709 0.0
C1517 C 0.81947 0.27216 0.20059 0.0
C1518 C 0.83459 0.27198 0.21091 0.0
C1519 C 0.84125 0.28915 0.2139 0.0
C1520 C 0.83108 0.26311 0.22707 0.0
C1521 C 0.84582 0.26202 0.2002 0.0
C1522 C 0.83785 0.25613 0.18677 0.0
C1523 C 0.84568 0.24613 0.17547 0.0
C1524 C 0.862 0.24175 0.17825 0.0
C1525 C 0.87015 0.2473 0.19228 0.0
C1526 C 0.86201 0.2579 0.20306 0.0
H1527 H 0.7379 0.72177 0.35561 0.0
H1528 H 0.75399 0.67651 0.37789 0.0
H1529 H 0.76917 0.66962 0.35271 0.0
H1530 H 0.73218 0.70996 0.31469 0.0
H1531 H 0.74134 0.72806 0.30631 0.0
H1532 H 0.73204 0.72854 0.3262 0.0
H1533 H 0.75987 0.73909 0.33784 0.0
H1534 H 0.76796 0.7384 0.31741 0.0
H1535 H 0.77816 0.72759 0.33357 0.0
H1536 H 0.77976 0.66649 0.3258 0.0
H1537 H 0.78932 0.66719 0.29837 0.0
H1538 H 0.76959 0.71605 0.2917 0.0
C1539 C 0.74447 0.71031 0.355 0.0
C1540 C 0.74446 0.6994 0.36836 0.0
C1541 C 0.75352 0.68474 0.36754 0.0
C1542 C 0.76225 0.68085 0.35338 0.0
C1543 C 0.76167 0.69174 0.34027 0.0
C1544 C 0.75331 0.70627 0.34094 0.0
C1545 C 0.75571 0.71609 0.32529 0.0
C1546 C 0.73933 0.72094 0.31768 0.0
C1547 C 0.76603 0.73118 0.32873 0.0
C1548 C 0.76521 0.70387 0.31496 0.0
C1549 C 0.76876 0.69026 0.32434 0.0
C1550 C 0.77732 0.67713 0.31836 0.0
C1551 C 0.78269 0.67769 0.30244 0.0
C1552 C 0.78085 0.69176 0.2927 0.0
C1553 C 0.77138 0.70505 0.29881 0.0
H1554 H 0.89201 0.93953 0.68021 0.0
H1555 H 0.88137 0.88964 0.6943 0.0
H1556 H 0.85266 0.89656 0.69758 0.0
H1557 H 0.86251 0.96118 0.70616 0.0
H1558 H 0.85601 0.97511 0.69042 0.0
H1559 H 0.87627 0.9666 0.68983 0.0
H1560 H 0.8702 0.95584 0.66038 0.0
H1561 H 0.85019 0.96486 0.66209 0.0
H1562 H 0.85239 0.94357 0.65745 0.0
H1563 H 0.82586 0.90736 0.69965 0.0
H1564 H 0.80044 0.92303 0.70173 0.0
H1565 H 0.82573 0.96678 0.6864 0.0
C1566 C 0.88355 0.93032 0.68435 0.0
C1567 C 0.88874 0.91399 0.68721 0.0
C1568 C 0.87753 0.90215 0.69225 0.0
C1569 C 0.86119 0.90593 0.69405 0.0
C1570 C 0.85616 0.92178 0.69103 0.0
C1571 C 0.86678 0.93396 0.68631 0.0
C1572 C 0.85719 0.94964 0.68289 0.0
C1573 C 0.86337 0.96398 0.69294 0.0
C1574 C 0.85752 0.95372 0.66462 0.0
C1575 C 0.84008 0.94455 0.68801 0.0
C1576 C 0.83991 0.92822 0.69202 0.0
C1577 C 0.82577 0.92018 0.69658 0.0
C1578 C 0.81138 0.92916 0.69763 0.0
C1579 C 0.81117 0.94604 0.69432 0.0
C1580 C 0.8256 0.95383 0.68893 0.0
H1581 H 0.78552 0.48283 0.39007 0.0
H1582 H 0.76799 0.53033 0.40432 0.0
H1583 H 0.75293 0.53315 0.3789 0.0
H1584 H 0.79128 0.48774 0.3486 0.0
H1585 H 0.7822 0.46865 0.34321 0.0
H1586 H 0.79102 0.47105 0.36298 0.0
H1587 H 0.76284 0.46246 0.37595 0.0
H1588 H 0.75513 0.46025 0.35563 0.0
H1589 H 0.74472 0.47333 0.36985 0.0
H1590 H 0.74235 0.53199 0.35031 0.0
H1591 H 0.73328 0.52508 0.32265 0.0
H1592 H 0.75656 0.47768 0.32721 0.0
C1593 C 0.77817 0.49363 0.38798 0.0
C1594 C 0.7786 0.50687 0.39876 0.0
C1595 C 0.7685 0.52052 0.3959 0.0
C1596 C 0.75986 0.52219 0.38143 0.0
C1597 C 0.76088 0.50964 0.37025 0.0
C1598 C 0.76924 0.49535 0.37361 0.0
C1599 C 0.76745 0.48334 0.35991 0.0
C1600 C 0.78398 0.47736 0.35329 0.0
C1601 C 0.75691 0.469 0.36568 0.0
C1602 C 0.7584 0.49377 0.34762 0.0
C1603 C 0.75428 0.50874 0.35403 0.0
C1604 C 0.74541 0.52026 0.34519 0.0
C1605 C 0.74037 0.51624 0.32947 0.0
C1606 C 0.74413 0.50078 0.32279 0.0
C1607 C 0.75354 0.48959 0.33193 0.0
H1608 H 0.93951 0.67214 0.81261 0.0
H1609 H 0.96047 0.72031 0.81625 0.0
H1610 H 0.9513 0.72217 0.84452 0.0
H1611 H 0.9043 0.67621 0.83933 0.0
H1612 H 0.90738 0.65694 0.84948 0.0
H1613 H 0.91461 0.65979 0.82896 0.0
H1614 H 0.94402 0.65098 0.8393 0.0
H1615 H 0.93525 0.64864 0.85934 0.0
H1616 H 0.95249 0.66174 0.85623 0.0
H1617 H 0.93969 0.71981 0.87242 0.0
H1618 H 0.92485 0.71263 0.89783 0.0
H1619 H 0.91346 0.66549 0.87767 0.0
C1620 C 0.94236 0.68288 0.81954 0.0
C1621 C 0.95064 0.69626 0.81223 0.0
C1622 C 0.95412 0.71004 0.82161 0.0
C1623 C 0.94889 0.71128 0.83767 0.0
C1624 C 0.9406 0.69833 0.84461 0.0
C1625 C 0.93749 0.6842 0.83606 0.0
C1626 C 0.92938 0.67179 0.8473 0.0
C1627 C 0.91294 0.66585 0.84088 0.0
C1628 C 0.94096 0.65745 0.85075 0.0
C1629 C 0.92721 0.68176 0.86255 0.0
C1630 C 0.93417 0.69687 0.86097 0.0
C1631 C 0.93403 0.70802 0.87373 0.0
C1632 C 0.92572 0.70381 0.88814 0.0
C1633 C 0.91771 0.68865 0.88948 0.0
C1634 C 0.91925 0.67726 0.87687 0.0
H1635 H 0.48797 0.77951 0.94165 0.0
H1636 H 0.5094 0.79429 0.8953 0.0
H1637 H 0.50936 0.82235 0.90386 0.0
H1638 H 0.46205 0.81478 0.9499 0.0
H1639 H 0.46767 0.81707 0.97089 0.0
H1640 H 0.46876 0.79734 0.96157 0.0
H1641 H 0.49962 0.79558 0.97016 0.0
H1642 H 0.4972 0.81538 0.9792 0.0
H1643 H 0.51295 0.81194 0.96424 0.0
H1644 H 0.50661 0.84868 0.91503 0.0
H1645 H 0.50104 0.87372 0.93059 0.0
H1646 H 0.48233 0.84473 0.97072 0.0
C1647 C 0.49259 0.78879 0.93345 0.0
C1648 C 0.49889 0.78472 0.91769 0.0
C1649 C 0.50483 0.79704 0.90739 0.0
C1650 C 0.5048 0.8131 0.9121 0.0
C1651 C 0.4988 0.81698 0.92732 0.0
C1652 C 0.49294 0.80541 0.93817 0.0
C1653 C 0.48833 0.81379 0.9542 0.0
C1654 C 0.47064 0.81055 0.95944 0.0
C1655 C 0.50022 0.80888 0.96775 0.0
C1656 C 0.49091 0.83159 0.9496 0.0
C1657 C 0.4975 0.83293 0.93421 0.0
C1658 C 0.50151 0.84787 0.92718 0.0
C1659 C 0.49842 0.862 0.93608 0.0
C1660 C 0.49137 0.861 0.95176 0.0
C1661 C 0.4878 0.84566 0.95873 0.0
H1662 H 0.51927 0.38185 0.79319 0.0
H1663 H 0.48824 0.41181 0.76277 0.0
H1664 H 0.48213 0.38754 0.74577 0.0
H1665 H 0.53665 0.35477 0.76639 0.0
H1666 H 0.53423 0.33789 0.78032 0.0
H1667 H 0.53573 0.35821 0.78802 0.0
H1668 H 0.50779 0.35414 0.80331 0.0
H1669 H 0.50729 0.33379 0.79538 0.0
H1670 H 0.49046 0.34752 0.79188 0.0
H1671 H 0.48049 0.35953 0.73243 0.0
H1672 H 0.4824 0.33101 0.72356 0.0
H1673 H 0.5132 0.31935 0.76464 0.0
C1674 C 0.51149 0.38344 0.78271 0.0
C1675 C 0.50472 0.39864 0.77893 0.0
C1676 C 0.49385 0.40018 0.76562 0.0
C1677 C 0.49022 0.38647 0.75606 0.0
C1678 C 0.49716 0.37146 0.76045 0.0
C1679 C 0.50728 0.36998 0.77367 0.0
C1680 C 0.5122 0.35259 0.77699 0.0
C1681 C 0.5308 0.35079 0.77798 0.0
C1682 C 0.50394 0.34667 0.79282 0.0
C1683 C 0.50514 0.34443 0.76218 0.0
C1684 C 0.49596 0.35548 0.75317 0.0
C1685 C 0.48777 0.35088 0.73924 0.0
C1686 C 0.48912 0.33474 0.73417 0.0
C1687 C 0.49843 0.3233 0.74301 0.0
C1688 C 0.50654 0.3281 0.7573 0.0
H1689 H 0.19501 0.33633 0.45983 0.0
H1690 H 0.18427 0.30719 0.41763 0.0
H1691 H 0.18397 0.3319 0.40044 0.0
H1692 H 0.17275 0.3728 0.45147 0.0
H1693 H 0.18897 0.38593 0.45778 0.0
H1694 H 0.18744 0.36568 0.46613 0.0
H1695 H 0.21755 0.36002 0.45617 0.0
H1696 H 0.21795 0.3806 0.44844 0.0
H1697 H 0.22259 0.36386 0.43513 0.0
H1698 H 0.18439 0.35825 0.38818 0.0
H1699 H 0.18484 0.38668 0.37982 0.0
H1700 H 0.19608 0.40111 0.42922 0.0
C1701 C 0.19195 0.33538 0.44709 0.0
C1702 C 0.1888 0.32009 0.44008 0.0
C1703 C 0.18596 0.31895 0.42322 0.0
C1704 C 0.18606 0.33285 0.41337 0.0
C1705 C 0.18925 0.34774 0.42059 0.0
C1706 C 0.19236 0.34921 0.43695 0.0
C1707 C 0.19662 0.36671 0.44107 0.0
C1708 C 0.18579 0.37316 0.45493 0.0
C1709 C 0.21475 0.36786 0.44547 0.0
C1710 C 0.19331 0.37515 0.42478 0.0
C1711 C 0.18984 0.36358 0.41318 0.0
C1712 C 0.18696 0.3675 0.39707 0.0
C1713 C 0.18717 0.38369 0.39247 0.0
C1714 C 0.18997 0.39596 0.40385 0.0
C1715 C 0.19353 0.39183 0.42033 0.0
H1716 H 0.1791 0.85792 0.23387 0.0
H1717 H 0.21196 0.87971 0.26867 0.0
H1718 H 0.2152 0.85374 0.28234 0.0
H1719 H 0.15846 0.82873 0.26083 0.0
H1720 H 0.15929 0.81237 0.24637 0.0
H1721 H 0.15897 0.83318 0.23931 0.0
H1722 H 0.18622 0.82702 0.22298 0.0
H1723 H 0.18524 0.80645 0.23069 0.0
H1724 H 0.20319 0.81841 0.2339 0.0
H1725 H 0.21612 0.82724 0.29262 0.0
H1726 H 0.2121 0.79929 0.30158 0.0
H1727 H 0.17774 0.79181 0.26244 0.0
C1728 C 0.18656 0.85719 0.24465 0.0
C1729 C 0.19564 0.87085 0.25003 0.0
C1730 C 0.20525 0.86944 0.26408 0.0
C1731 C 0.20725 0.85468 0.27196 0.0
C1732 C 0.19904 0.84135 0.26613 0.0
C1733 C 0.18872 0.84219 0.25297 0.0
C1734 C 0.18232 0.82518 0.24931 0.0
C1735 C 0.16364 0.82485 0.24894 0.0
C1736 C 0.18967 0.8189 0.23327 0.0
C1737 C 0.18922 0.8155 0.26364 0.0
C1738 C 0.19949 0.82515 0.2725 0.0
C1739 C 0.20811 0.81946 0.28585 0.0
C1740 C 0.20588 0.80351 0.29073 0.0
C1741 C 0.19475 0.79354 0.28268 0.0
C1742 C 0.1864 0.79935 0.26871 0.0
H1743 H 0.91583 0.47345 0.79163 0.0
H1744 H 0.93112 0.52197 0.77767 0.0
H1745 H 0.94585 0.52455 0.80359 0.0
H1746 H 0.90876 0.4776 0.83294 0.0
H1747 H 0.91844 0.45863 0.83849 0.0
H1748 H 0.90997 0.46119 0.81853 0.0
H1749 H 0.93876 0.45344 0.80621 0.0
H1750 H 0.94608 0.45107 0.8267 0.0
H1751 H 0.95631 0.46461 0.81274 0.0
H1752 H 0.95606 0.52295 0.83251 0.0
H1753 H 0.96471 0.51561 0.86039 0.0
H1754 H 0.94321 0.4679 0.85496 0.0
C1755 C 0.92275 0.48437 0.79384 0.0
C1756 C 0.92216 0.49767 0.78298 0.0
C1757 C 0.93137 0.51175 0.78607 0.0
C1758 C 0.93957 0.5134 0.80081 0.0
C1759 C 0.93883 0.50061 0.81198 0.0
C1760 C 0.93113 0.48616 0.80844 0.0
C1761 C 0.933 0.47395 0.82215 0.0
C1762 C 0.91655 0.46748 0.82839 0.0
C1763 C 0.9442 0.45995 0.81663 0.0
C1764 C 0.94134 0.48436 0.83463 0.0
C1765 C 0.94505 0.49955 0.82838 0.0
C1766 C 0.95329 0.51106 0.8375 0.0
C1767 C 0.95811 0.50679 0.85333 0.0
C1768 C 0.95469 0.49113 0.85981 0.0
C1769 C 0.94594 0.47997 0.85039 0.0
H1770 H 0.8879 0.27281 0.01579 0.0
H1771 H 0.89681 0.26723 0.96499 0.0
H1772 H 0.86932 0.25581 0.96197 0.0
H1773 H 0.86311 0.23895 0.02512 0.0
H1774 H 0.84963 0.25076 0.03787 0.0
H1775 H 0.87045 0.25691 0.03508 0.0
H1776 H 0.86 0.28552 0.02504 0.0
H1777 H 0.83947 0.27858 0.02833 0.0
H1778 H 0.84553 0.28643 0.0087 0.0
H1779 H 0.84172 0.24577 0.96448 0.0
H1780 H 0.81492 0.23548 0.97138 0.0
H1781 H 0.82141 0.24925 0.02088 0.0
C1782 C 0.88422 0.26874 0.00389 0.0
C1783 C 0.89443 0.27096 0.99111 0.0
C1784 C 0.88921 0.26564 0.9757 0.0
C1785 C 0.87354 0.25939 0.97384 0.0
C1786 C 0.86344 0.25845 0.98755 0.0
C1787 C 0.86848 0.26291 0.00174 0.0
C1788 C 0.85475 0.26185 0.01417 0.0
C1789 C 0.85981 0.2515 0.02893 0.0
C1790 C 0.84964 0.27912 0.01936 0.0
C1791 C 0.84157 0.25384 0.00405 0.0
C1792 C 0.84693 0.25283 0.98902 0.0
C1793 C 0.8374 0.24644 0.97692 0.0
C1794 C 0.82216 0.24056 0.98104 0.0
C1795 C 0.81598 0.24163 0.99701 0.0
C1796 C 0.82587 0.24811 0.00851 0.0
H1797 H 0.84903 0.95855 0.46835 0.0
H1798 H 0.87038 0.94295 0.51398 0.0
H1799 H 0.84481 0.92878 0.52127 0.0
H1800 H 0.80805 0.96592 0.47992 0.0
H1801 H 0.79982 0.95656 0.46205 0.0
H1802 H 0.81989 0.9652 0.46137 0.0
H1803 H 0.83122 0.93674 0.45157 0.0
H1804 H 0.81063 0.92934 0.45245 0.0
H1805 H 0.82646 0.91892 0.46354 0.0
H1806 H 0.81754 0.91923 0.5247 0.0
H1807 H 0.78975 0.91069 0.52415 0.0
H1808 H 0.78468 0.92917 0.47468 0.0
C1809 C 0.84814 0.95232 0.47997 0.0
C1810 C 0.86134 0.95217 0.49086 0.0
C1811 C 0.86015 0.94355 0.50576 0.0
C1812 C 0.84577 0.93537 0.50987 0.0
C1813 C 0.83286 0.93608 0.49895 0.0
C1814 C 0.83389 0.94404 0.48422 0.0
C1815 C 0.81838 0.94192 0.47443 0.0
C1816 C 0.81111 0.95839 0.46914 0.0
C1817 C 0.82188 0.93109 0.45962 0.0
C1818 C 0.80771 0.93311 0.48688 0.0
C1819 C 0.81677 0.92958 0.50061 0.0
C1820 C 0.81035 0.92163 0.51397 0.0
C1821 C 0.79429 0.91688 0.5135 0.0
C1822 C 0.78499 0.91861 0.49926 0.0
C1823 C 0.79151 0.92751 0.48579 0.0
H1824 H 0.12811 0.46213 0.42196 0.0
H1825 H 0.12492 0.42128 0.3887 0.0
H1826 H 0.09978 0.41313 0.401 0.0
H1827 H 0.10363 0.45041 0.45611 0.0
H1828 H 0.09071 0.46822 0.4567 0.0
H1829 H 0.11095 0.46959 0.44826 0.0
H1830 H 0.09824 0.48126 0.42126 0.0
H1831 H 0.0784 0.47954 0.43065 0.0
H1832 H 0.08249 0.46984 0.41148 0.0
H1833 H 0.07543 0.40912 0.41374 0.0
H1834 H 0.04976 0.40945 0.42874 0.0
H1835 H 0.06262 0.45541 0.45073 0.0
C1836 C 0.12154 0.45208 0.41677 0.0
C1837 C 0.12872 0.44182 0.40482 0.0
C1838 C 0.11979 0.42909 0.39798 0.0
C1839 C 0.1056 0.42408 0.40516 0.0
C1840 C 0.09881 0.43383 0.41694 0.0
C1841 C 0.10571 0.44815 0.42211 0.0
C1842 C 0.09347 0.45754 0.43253 0.0
C1843 C 0.1001 0.46167 0.44941 0.0
C1844 C 0.08782 0.47295 0.42345 0.0
C1845 C 0.07966 0.44529 0.43336 0.0
C1846 C 0.08319 0.43198 0.42388 0.0
C1847 C 0.07244 0.41937 0.42139 0.0
C1848 C 0.05771 0.41988 0.42958 0.0
C1849 C 0.05445 0.43234 0.44086 0.0
C1850 C 0.06494 0.44583 0.44204 0.0
H1851 H 0.12364 0.903 0.2501 0.0
H1852 H 0.14309 0.95151 0.24354 0.0
H1853 H 0.11663 0.96313 0.25366 0.0
H1854 H 0.08455 0.9078 0.23595 0.0
H1855 H 0.07641 0.89471 0.25163 0.0
H1856 H 0.09704 0.89203 0.24492 0.0
H1857 H 0.10588 0.89548 0.27593 0.0
H1858 H 0.08466 0.89805 0.28089 0.0
H1859 H 0.09904 0.91337 0.28661 0.0
H1860 H 0.08431 0.96831 0.26176 0.0
H1861 H 0.05494 0.96511 0.27023 0.0
H1862 H 0.06105 0.91285 0.2684 0.0
C1863 C 0.12255 0.91613 0.25066 0.0
C1864 C 0.13507 0.92632 0.24519 0.0
C1865 C 0.13338 0.94342 0.24727 0.0
C1866 C 0.11835 0.9501 0.2528 0.0
C1867 C 0.10554 0.93943 0.25631 0.0
C1868 C 0.10794 0.92274 0.25567 0.0
C1869 C 0.09319 0.9133 0.26056 0.0
C1870 C 0.08747 0.90129 0.24748 0.0
C1871 C 0.09585 0.90456 0.27696 0.0
C1872 C 0.08156 0.92703 0.26248 0.0
C1873 C 0.08845 0.94222 0.26071 0.0
C1874 C 0.07903 0.95636 0.26315 0.0
C1875 C 0.06243 0.95448 0.26785 0.0
C1876 C 0.05584 0.93861 0.26957 0.0
C1877 C 0.06559 0.9251 0.26663 0.0
H1878 H 0.57391 0.76088 0.90665 0.0
H1879 H 0.55524 0.72259 0.93774 0.0
H1880 H 0.58216 0.72106 0.9519 0.0
H1881 H 0.61322 0.75376 0.90161 0.0
H1882 H 0.61907 0.77452 0.90511 0.0
H1883 H 0.59906 0.77022 0.89783 0.0
H1884 H 0.58624 0.78562 0.92273 0.0
H1885 H 0.60666 0.79029 0.92889 0.0
H1886 H 0.59295 0.78037 0.94292 0.0
H1887 H 0.61215 0.72464 0.96131 0.0
H1888 H 0.64003 0.73375 0.9676 0.0
H1889 H 0.6353 0.77289 0.93233 0.0
C1890 C 0.5757 0.75171 0.91605 0.0
C1891 C 0.56313 0.74136 0.92067 0.0
C1892 C 0.56522 0.73017 0.93369 0.0
C1893 C 0.5802 0.72961 0.94202 0.0
C1894 C 0.59207 0.74103 0.93763 0.0
C1895 C 0.58947 0.75222 0.92534 0.0
C1896 C 0.60276 0.76448 0.9237 0.0
C1897 C 0.60886 0.76578 0.90602 0.0
C1898 C 0.59679 0.78117 0.92994 0.0
C1899 C 0.61497 0.75679 0.93502 0.0
C1900 C 0.60837 0.74372 0.94352 0.0
C1901 C 0.61738 0.73488 0.95484 0.0
C1902 C 0.63334 0.73982 0.95798 0.0
C1903 C 0.6397 0.75383 0.95029 0.0
C1904 C 0.63074 0.76191 0.9381 0.0
H1905 H 0.56401 0.24749 0.73129 0.0
H1906 H 0.54861 0.28788 0.76148 0.0
H1907 H 0.57436 0.28644 0.77621 0.0
H1908 H 0.58719 0.22334 0.76022 0.0
H1909 H 0.60334 0.21919 0.74586 0.0
H1910 H 0.583 0.22314 0.73872 0.0
H1911 H 0.59501 0.24683 0.7203 0.0
H1912 H 0.61481 0.24163 0.72818 0.0
H1913 H 0.60717 0.26214 0.72987 0.0
H1914 H 0.59905 0.28048 0.78838 0.0
H1915 H 0.62426 0.27029 0.79923 0.0
H1916 H 0.6288 0.23624 0.75908 0.0
C1917 C 0.56578 0.25528 0.74168 0.0
C1918 C 0.55427 0.26752 0.74566 0.0
C1919 C 0.55714 0.27814 0.7587 0.0
C1920 C 0.57191 0.27773 0.76675 0.0
C1921 C 0.5834 0.26627 0.76192 0.0
C1922 C 0.58071 0.25513 0.74983 0.0
C1923 C 0.5959 0.24476 0.74687 0.0
C1924 C 0.59212 0.22652 0.74799 0.0
C1925 C 0.60368 0.2491 0.73033 0.0
C1926 C 0.60644 0.25039 0.76088 0.0
C1927 C 0.59894 0.26325 0.76874 0.0
C1928 C 0.60518 0.27046 0.7824 0.0
C1929 C 0.61932 0.26417 0.78874 0.0
C1930 C 0.62844 0.25249 0.78006 0.0
C1931 C 0.62184 0.24499 0.76611 0.0
H1932 H 0.06877 0.78313 0.24655 0.0
H1933 H 0.04567 0.73588 0.2489 0.0
H1934 H 0.07003 0.7249 0.26376 0.0
H1935 H 0.10798 0.77295 0.23633 0.0
H1936 H 0.11547 0.78887 0.24915 0.0
H1937 H 0.09572 0.79076 0.24043 0.0
H1938 H 0.08463 0.79482 0.27081 0.0
H1939 H 0.10513 0.79194 0.27789 0.0
H1940 H 0.08905 0.77928 0.28575 0.0
H1941 H 0.10091 0.71974 0.27619 0.0
H1942 H 0.1293 0.72346 0.28695 0.0
H1943 H 0.12854 0.77282 0.268 0.0
C1944 C 0.06858 0.77036 0.2499 0.0
C1945 C 0.05577 0.76019 0.24576 0.0
C1946 C 0.05572 0.74383 0.25159 0.0
C1947 C 0.06951 0.73751 0.25989 0.0
C1948 C 0.08277 0.74782 0.26212 0.0
C1949 C 0.08198 0.76401 0.25735 0.0
C1950 C 0.09697 0.77331 0.26084 0.0
C1951 C 0.10446 0.78192 0.2458 0.0
C1952 C 0.09375 0.78553 0.27465 0.0
C1953 C 0.10721 0.75949 0.26639 0.0
C1954 C 0.09912 0.74495 0.26828 0.0
C1955 C 0.10712 0.73124 0.2748 0.0
C1956 C 0.12326 0.73331 0.28053 0.0
C1957 C 0.13104 0.74862 0.27846 0.0
C1958 C 0.12319 0.76097 0.26994 0.0
H1959 H 0.61191 0.9085 0.91062 0.0
H1960 H 0.62749 0.95292 0.93333 0.0
H1961 H 0.60052 0.95475 0.94794 0.0
H1962 H 0.57255 0.91191 0.90503 0.0
H1963 H 0.56813 0.89168 0.91234 0.0
H1964 H 0.58785 0.89608 0.90408 0.0
H1965 H 0.60142 0.88604 0.93121 0.0
H1966 H 0.58132 0.88101 0.93844 0.0
H1967 H 0.59408 0.89406 0.95026 0.0
H1968 H 0.57028 0.95043 0.95862 0.0
H1969 H 0.54317 0.94001 0.96698 0.0
H1970 H 0.55169 0.89652 0.93866 0.0
C1971 C 0.60951 0.91887 0.91839 0.0
C1972 C 0.62116 0.93081 0.92048 0.0
C1973 C 0.61823 0.94388 0.93129 0.0
C1974 C 0.60321 0.94475 0.93984 0.0
C1975 C 0.59219 0.93194 0.93792 0.0
C1976 C 0.59575 0.91903 0.92787 0.0
C1977 C 0.58343 0.90579 0.9286 0.0
C1978 C 0.57768 0.90114 0.9115 0.0
C1979 C 0.59048 0.89086 0.93767 0.0
C1980 C 0.57057 0.91434 0.93848 0.0
C1981 C 0.57598 0.92909 0.94443 0.0
C1982 C 0.56605 0.93887 0.95416 0.0
C1983 C 0.55052 0.9331 0.95847 0.0
C1984 C 0.54552 0.91753 0.95341 0.0
C1985 C 0.55526 0.90854 0.94255 0.0
H1986 H 0.64561 0.44772 0.74414 0.0
H1987 H 0.64057 0.39486 0.7443 0.0
H1988 H 0.61301 0.39728 0.7528 0.0
H1989 H 0.62106 0.45404 0.78344 0.0
H1990 H 0.61068 0.47195 0.77596 0.0
H1991 H 0.63088 0.46713 0.76869 0.0
H1992 H 0.61898 0.46805 0.73863 0.0
H1993 H 0.59948 0.4729 0.74766 0.0
H1994 H 0.60152 0.45571 0.73435 0.0
H1995 H 0.58725 0.40246 0.76058 0.0
H1996 H 0.56175 0.41201 0.77279 0.0
H1997 H 0.58094 0.46109 0.77449 0.0
C1998 C 0.63894 0.43673 0.74696 0.0
C1999 C 0.64503 0.42099 0.74237 0.0
C2000 C 0.636 0.40705 0.74657 0.0
C2001 C 0.62013 0.40822 0.75142 0.0
C2002 C 0.61397 0.42334 0.75488 0.0
C2003 C 0.62288 0.43752 0.75364 0.0
C2004 C 0.61181 0.45184 0.75863 0.0
C2005 C 0.61904 0.46183 0.77252 0.0
C2006 C 0.60771 0.46277 0.74395 0.0
C2007 C 0.59657 0.4427 0.76404 0.0
C2008 C 0.59812 0.42642 0.76083 0.0
C2009 C 0.58579 0.41519 0.76346 0.0
C2010 C 0.57134 0.42067 0.7703 0.0
C2011 C 0.56983 0.43705 0.77504 0.0
C2012 C 0.58217 0.44841 0.77119 0.0
H2013 H 0.12047 0.2901 0.43797 0.0
H2014 H 0.13832 0.24111 0.44689 0.0
H2015 H 0.11236 0.23013 0.43577 0.0
H2016 H 0.08038 0.28706 0.45018 0.0
H2017 H 0.07357 0.29996 0.43376 0.0
H2018 H 0.09376 0.30215 0.44147 0.0
H2019 H 0.10462 0.2975 0.41109 0.0
H2020 H 0.08373 0.29552 0.40509 0.0
H2021 H 0.09815 0.27955 0.40056 0.0
H2022 H 0.08066 0.22584 0.42623 0.0
H2023 H 0.05192 0.22981 0.41633 0.0
H2024 H 0.0591 0.28187 0.41658 0.0
C2025 C 0.11911 0.277 0.43769 0.0
C2026 C 0.13097 0.2665 0.4441 0.0
C2027 C 0.12908 0.24942 0.44241 0.0
C2028 C 0.11432 0.24312 0.43632 0.0
C2029 C 0.10203 0.25414 0.43187 0.0
C2030 C 0.10473 0.27076 0.43214 0.0
C2031 C 0.09056 0.28057 0.42624 0.0
C2032 C 0.0842 0.29314 0.43867 0.0
C2033 C 0.0945 0.28874 0.40978 0.0
C2034 C 0.07883 0.26718 0.42408 0.0
C2035 C 0.08525 0.25181 0.42669 0.0
C2036 C 0.07573 0.23792 0.42421 0.0
C2037 C 0.0595 0.24023 0.41868 0.0
C2038 C 0.05342 0.25627 0.41614 0.0
C2039 C 0.06327 0.26953 0.41899 0.0
H2040 H 0.4337 0.05411 0.45489 0.0
H2041 H 0.45305 0.06588 0.40633 0.0
H2042 H 0.44345 0.09232 0.4083 0.0
H2043 H 0.3957 0.0806 0.45171 0.0
H2044 H 0.39731 0.08921 0.47172 0.0
H2045 H 0.40526 0.0691 0.46784 0.0
H2046 H 0.43382 0.07898 0.47857 0.0
H2047 H 0.42456 0.09864 0.48208 0.0
H2048 H 0.44255 0.09698 0.46953 0.0
H2049 H 0.43704 0.11797 0.41402 0.0
H2050 H 0.42639 0.14382 0.42321 0.0
H2051 H 0.40182 0.11985 0.46338 0.0
C2052 C 0.43546 0.06224 0.44462 0.0
C2053 C 0.44481 0.05737 0.43052 0.0
C2054 C 0.44653 0.06853 0.41749 0.0
C2055 C 0.44104 0.08409 0.41834 0.0
C2056 C 0.43254 0.08875 0.43185 0.0
C2057 C 0.42917 0.07856 0.44486 0.0
C2058 C 0.42018 0.08874 0.45788 0.0
C2059 C 0.40361 0.08148 0.46256 0.0
C2060 C 0.43091 0.09096 0.47291 0.0
C2061 C 0.41846 0.10515 0.44904 0.0
C2062 C 0.42672 0.10466 0.43452 0.0
C2063 C 0.43003 0.11843 0.42519 0.0
C2064 C 0.42452 0.13325 0.43098 0.0
C2065 C 0.41162 0.13311 0.44238 0.0
C2066 C 0.41042 0.1197 0.45335 0.0
H2067 H 0.2618 0.75426 0.63284 0.0
H2068 H 0.23459 0.79821 0.62175 0.0
H2069 H 0.23453 0.79072 0.59252 0.0
H2070 H 0.2902 0.75547 0.60054 0.0
H2071 H 0.28979 0.73367 0.59863 0.0
H2072 H 0.28551 0.74283 0.61795 0.0
H2073 H 0.25753 0.72701 0.61833 0.0
H2074 H 0.2629 0.71866 0.59884 0.0
H2075 H 0.24396 0.72957 0.60136 0.0
H2076 H 0.2419 0.77905 0.56298 0.0
H2077 H 0.25252 0.76308 0.53914 0.0
H2078 H 0.27587 0.72947 0.5726 0.0
C2079 C 0.25542 0.76215 0.62435 0.0
C2080 C 0.24916 0.77725 0.62917 0.0
C2081 C 0.24 0.78676 0.61804 0.0
C2082 C 0.2404 0.7829 0.60138 0.0
C2083 C 0.24963 0.7694 0.59656 0.0
C2084 C 0.2568 0.75915 0.60793 0.0
C2085 C 0.26557 0.74508 0.60037 0.0
C2086 C 0.28385 0.74425 0.60463 0.0
C2087 C 0.25698 0.72916 0.60499 0.0
C2088 C 0.263 0.7493 0.5829 0.0
C2089 C 0.25359 0.76308 0.58053 0.0
C2090 C 0.24935 0.76828 0.56483 0.0
C2091 C 0.25522 0.75909 0.55141 0.0
C2092 C 0.26512 0.74507 0.55418 0.0
C2093 C 0.26864 0.74027 0.57007 0.0
H2094 H 0.25377 0.13588 0.94642 0.0
H2095 H 0.2322 0.12531 0.89905 0.0
H2096 H 0.23939 0.09816 0.90153 0.0
H2097 H 0.28808 0.1043 0.9446 0.0
H2098 H 0.28496 0.09638 0.96488 0.0
H2099 H 0.27975 0.11725 0.96025 0.0
H2100 H 0.24991 0.11113 0.97119 0.0
H2101 H 0.25661 0.09056 0.97531 0.0
H2102 H 0.23919 0.09424 0.9626 0.0
H2103 H 0.24296 0.07244 0.9078 0.0
H2104 H 0.24908 0.04571 0.91771 0.0
H2105 H 0.27799 0.06609 0.95652 0.0
C2106 C 0.25083 0.12773 0.93662 0.0
C2107 C 0.24225 0.13349 0.9223 0.0
C2108 C 0.23878 0.1222 0.91002 0.0
C2109 C 0.24273 0.10619 0.91128 0.0
C2110 C 0.25065 0.10079 0.92487 0.0
C2111 C 0.25504 0.11068 0.93754 0.0
C2112 C 0.26264 0.09951 0.95084 0.0
C2113 C 0.2799 0.10467 0.95541 0.0
C2114 C 0.25143 0.09883 0.96588 0.0
C2115 C 0.26267 0.0828 0.94247 0.0
C2116 C 0.25468 0.08434 0.92795 0.0
C2117 C 0.24991 0.07118 0.91884 0.0
C2118 C 0.25324 0.0559 0.92486 0.0
C2119 C 0.26591 0.054 0.93618 0.0
C2120 C 0.26938 0.06732 0.94669 0.0
H2121 H 0.42308 0.45768 0.07373 0.0
H2122 H 0.44521 0.42298 0.04078 0.0
H2123 H 0.45257 0.40529 0.06473 0.0
H2124 H 0.4462 0.45725 0.10678 0.0
H2125 H 0.42892 0.45745 0.12042 0.0
H2126 H 0.42697 0.46576 0.10035 0.0
H2127 H 0.40237 0.44571 0.09576 0.0
H2128 H 0.4053 0.43833 0.11621 0.0
H2129 H 0.40546 0.42428 0.09951 0.0
H2130 H 0.45799 0.39293 0.094 0.0
H2131 H 0.45821 0.38602 0.12341 0.0
H2132 H 0.43327 0.43129 0.13405 0.0
C2133 C 0.42958 0.4464 0.07141 0.0
C2134 C 0.43386 0.44183 0.05567 0.0
C2135 C 0.44219 0.42684 0.053 0.0
C2136 C 0.44604 0.41664 0.06642 0.0
C2137 C 0.441 0.42165 0.08191 0.0
C2138 C 0.43264 0.43609 0.08416 0.0
C2139 C 0.42767 0.43903 0.10139 0.0
C2140 C 0.43276 0.45585 0.10755 0.0
C2141 C 0.40911 0.43668 0.10333 0.0
C2142 C 0.43725 0.4256 0.10916 0.0
C2143 C 0.44392 0.41492 0.09792 0.0
C2144 C 0.45264 0.40114 0.1028 0.0
C2145 C 0.45338 0.39771 0.11953 0.0
C2146 C 0.44491 0.40785 0.13064 0.0
C2147 C 0.4394 0.42318 0.1256 0.0
H2148 H 0.44611 0.12829 0.24395 0.0
H2149 H 0.44005 0.12866 0.2967 0.0
H2150 H 0.433 0.10068 0.29661 0.0
H2151 H 0.40905 0.10177 0.2359 0.0
H2152 H 0.41915 0.09016 0.22024 0.0
H2153 H 0.42496 0.11094 0.22377 0.0
H2154 H 0.45524 0.1003 0.22782 0.0
H2155 H 0.44787 0.08008 0.22402 0.0
H2156 H 0.45873 0.08424 0.24245 0.0
H2157 H 0.42669 0.0749 0.29365 0.0
H2158 H 0.41558 0.04896 0.2869 0.0
H2159 H 0.41924 0.06075 0.23524 0.0
C2160 C 0.44224 0.12266 0.25525 0.0
C2161 C 0.44467 0.13049 0.27059 0.0
C2162 C 0.43922 0.12279 0.28496 0.0
C2163 C 0.43531 0.10668 0.28509 0.0
C2164 C 0.43409 0.09883 0.27045 0.0
C2165 C 0.43649 0.10631 0.25556 0.0
C2166 C 0.43367 0.09364 0.24213 0.0
C2167 C 0.42094 0.09948 0.22977 0.0
C2168 C 0.44983 0.08931 0.23359 0.0
C2169 C 0.42762 0.07905 0.25227 0.0
C2170 C 0.42914 0.08258 0.26852 0.0
C2171 C 0.42529 0.07189 0.28097 0.0
C2172 C 0.41903 0.05709 0.27701 0.0
C2173 C 0.41655 0.05292 0.26069 0.0
C2174 C 0.42104 0.06383 0.24787 0.0
H2175 H 0.4036 0.75493 0.63763 0.0
H2176 H 0.45028 0.73403 0.65083 0.0
H2177 H 0.46246 0.74528 0.62533 0.0
H2178 H 0.40305 0.74857 0.59602 0.0
H2179 H 0.39431 0.76825 0.59159 0.0
H2180 H 0.39048 0.75874 0.61094 0.0
H2181 H 0.40232 0.7854 0.62492 0.0
H2182 H 0.40524 0.79351 0.60474 0.0
H2183 H 0.42214 0.79236 0.61854 0.0
H2184 H 0.46792 0.75661 0.59493 0.0
H2185 H 0.46558 0.7695 0.56712 0.0
H2186 H 0.41595 0.78352 0.57848 0.0
C2187 C 0.41647 0.75296 0.63535 0.0
C2188 C 0.42591 0.74316 0.64571 0.0
C2189 C 0.44284 0.74137 0.64276 0.0
C2190 C 0.44976 0.74744 0.62821 0.0
C2191 C 0.4396 0.75566 0.61731 0.0
C2192 C 0.42342 0.7589 0.62117 0.0
C2193 C 0.41504 0.76885 0.60835 0.0
C2194 C 0.39985 0.76059 0.60131 0.0
C2195 C 0.41097 0.78603 0.61449 0.0
C2196 C 0.42848 0.76966 0.59623 0.0
C2197 C 0.44279 0.76232 0.60118 0.0
C2198 C 0.45668 0.76237 0.5911 0.0
C2199 C 0.45537 0.76981 0.57552 0.0
C2200 C 0.44043 0.77729 0.57097 0.0
C2201 C 0.42738 0.77764 0.58171 0.0
H2202 H 0.2267 0.07396 0.76302 0.0
H2203 H 0.26823 0.04149 0.75908 0.0
H2204 H 0.2861 0.06536 0.75314 0.0
H2205 H 0.23394 0.10403 0.7352 0.0
H2206 H 0.22767 0.11995 0.74888 0.0
H2207 H 0.21971 0.09982 0.75148 0.0
H2208 H 0.23045 0.1 0.78172 0.0
H2209 H 0.23776 0.12029 0.77791 0.0
H2210 H 0.25152 0.10475 0.78515 0.0
H2211 H 0.29819 0.09312 0.74645 0.0
H2212 H 0.30459 0.12191 0.74176 0.0
H2213 H 0.25452 0.13517 0.75264 0.0
C2214 C 0.23949 0.07182 0.76042 0.0
C2215 C 0.24605 0.0561 0.7608 0.0
C2216 C 0.26297 0.05358 0.75815 0.0
C2217 C 0.27318 0.06703 0.75525 0.0
C2218 C 0.26613 0.08256 0.7556 0.0
C2219 C 0.24972 0.08489 0.75846 0.0
C2220 C 0.245 0.10254 0.75933 0.0
C2221 C 0.23075 0.1068 0.74805 0.0
C2222 C 0.24096 0.10717 0.77708 0.0
C2223 C 0.26073 0.10987 0.75353 0.0
C2224 C 0.27303 0.0983 0.75235 0.0
C2225 C 0.28871 0.10228 0.74742 0.0
C2226 C 0.29204 0.11859 0.74408 0.0
C2227 C 0.28009 0.13062 0.74728 0.0
C2228 C 0.26381 0.1261 0.75005 0.0
H2229 H 0.24422 0.44918 0.12688 0.0
H2230 H 0.29566 0.43663 0.13079 0.0
H2231 H 0.29622 0.42831 0.10296 0.0
H2232 H 0.23242 0.41343 0.1009 0.0
H2233 H 0.21903 0.42544 0.08827 0.0
H2234 H 0.22237 0.43119 0.10909 0.0
H2235 H 0.23149 0.46018 0.0981 0.0
H2236 H 0.22759 0.45295 0.07785 0.0
H2237 H 0.24726 0.46101 0.08277 0.0
H2238 H 0.29341 0.42045 0.07745 0.0
H2239 H 0.28613 0.40888 0.05191 0.0
H2240 H 0.23553 0.42348 0.05935 0.0
C2241 C 0.25522 0.44364 0.12208 0.0
C2242 C 0.27019 0.44418 0.13083 0.0
C2243 C 0.28425 0.43681 0.12422 0.0
C2244 C 0.28479 0.43231 0.10821 0.0
C2245 C 0.27055 0.43296 0.09944 0.0
C2246 C 0.25574 0.43766 0.10592 0.0
C2247 C 0.2427 0.43658 0.09262 0.0
C2248 C 0.22827 0.42602 0.09805 0.0
C2249 C 0.23691 0.4537 0.08754 0.0
C2250 C 0.25258 0.42868 0.07883 0.0
C2251 C 0.26871 0.42776 0.08327 0.0
C2252 C 0.28084 0.42104 0.0737 0.0
C2253 C 0.27654 0.41433 0.05923 0.0
C2254 C 0.26042 0.41527 0.05375 0.0
C2255 C 0.24799 0.4226 0.06348 0.0
H2256 H 0.92085 0.25015 0.05641 0.0
H2257 H 0.96042 0.28454 0.05884 0.0
H2258 H 0.96342 0.27804 0.08846 0.0
H2259 H 0.8993 0.26201 0.09117 0.0
H2260 H 0.89343 0.24124 0.0949 0.0
H2261 H 0.89751 0.24803 0.07451 0.0
H2262 H 0.91907 0.22407 0.0721 0.0
H2263 H 0.91431 0.21835 0.09272 0.0
H2264 H 0.93505 0.22261 0.08695 0.0
H2265 H 0.9574 0.26958 0.12047 0.0
H2266 H 0.94649 0.25755 0.14658 0.0
H2267 H 0.90888 0.23373 0.11895 0.0
C2268 C 0.93021 0.25651 0.06298 0.0
C2269 C 0.93957 0.26866 0.05566 0.0
C2270 C 0.9526 0.27555 0.06449 0.0
C2271 C 0.95409 0.27225 0.08136 0.0
C2272 C 0.94231 0.26236 0.08881 0.0
C2273 C 0.93075 0.25461 0.07956 0.0
C2274 C 0.91945 0.24428 0.08931 0.0
C2275 C 0.90137 0.24922 0.08735 0.0
C2276 C 0.92214 0.22629 0.08503 0.0
C2277 C 0.9256 0.24802 0.10585 0.0
C2278 C 0.93906 0.25799 0.10581 0.0
C2279 C 0.94684 0.26179 0.12043 0.0
C2280 C 0.94061 0.25491 0.13518 0.0
C2281 C 0.92669 0.24464 0.13484 0.0
C2282 C 0.91928 0.24167 0.11995 0.0
H2283 H 0.72624 0.57141 0.26582 0.0
H2284 H 0.76892 0.54029 0.26737 0.0
H2285 H 0.78641 0.56424 0.26089 0.0
H2286 H 0.73513 0.59983 0.23598 0.0
H2287 H 0.72731 0.61653 0.24786 0.0
H2288 H 0.71965 0.59637 0.25128 0.0
H2289 H 0.72773 0.59917 0.28224 0.0
H2290 H 0.73484 0.61933 0.27747 0.0
H2291 H 0.74829 0.60479 0.287 0.0
H2292 H 0.79826 0.59163 0.25312 0.0
H2293 H 0.80444 0.62014 0.2469 0.0
H2294 H 0.75348 0.63299 0.25323 0.0
C2295 C 0.73923 0.56955 0.26419 0.0
C2296 C 0.74623 0.55411 0.2663 0.0
C2297 C 0.76335 0.55205 0.26505 0.0
C2298 C 0.77332 0.5656 0.26184 0.0
C2299 C 0.76584 0.58085 0.2604 0.0
C2300 C 0.7492 0.58284 0.26184 0.0
C2301 C 0.74404 0.60043 0.261 0.0
C2302 C 0.73076 0.60344 0.24827 0.0
C2303 C 0.73841 0.60628 0.27794 0.0
C2304 C 0.76003 0.60785 0.25602 0.0
C2305 C 0.77261 0.59654 0.25659 0.0
C2306 C 0.78856 0.6006 0.25271 0.0
C2307 C 0.79182 0.61672 0.24855 0.0
C2308 C 0.77942 0.62867 0.24998 0.0
C2309 C 0.7631 0.62398 0.25199 0.0
H2310 H 0.77505 0.93434 0.63342 0.0
H2311 H 0.73114 0.96238 0.64269 0.0
H2312 H 0.72024 0.95406 0.61597 0.0
H2313 H 0.78093 0.94043 0.59189 0.0
H2314 H 0.78627 0.91957 0.58778 0.0
H2315 H 0.78988 0.92783 0.60756 0.0
H2316 H 0.77194 0.90367 0.62 0.0
H2317 H 0.76959 0.89662 0.5995 0.0
H2318 H 0.75187 0.90066 0.6119 0.0
H2319 H 0.71612 0.94486 0.5854 0.0
H2320 H 0.71898 0.93289 0.55744 0.0
H2321 H 0.76354 0.90895 0.57239 0.0
C2322 C 0.76291 0.93828 0.63004 0.0
C2323 C 0.75402 0.94927 0.63976 0.0
C2324 C 0.73809 0.95396 0.63525 0.0
C2325 C 0.73197 0.94959 0.61998 0.0
C2326 C 0.74169 0.9399 0.60993 0.0
C2327 C 0.75656 0.93375 0.61515 0.0
C2328 C 0.7642 0.92257 0.60281 0.0
C2329 C 0.78132 0.92795 0.59717 0.0
C2330 C 0.7644 0.90485 0.6089 0.0
C2331 C 0.75206 0.92439 0.58958 0.0
C2332 C 0.73896 0.93421 0.59351 0.0
C2333 C 0.72637 0.93708 0.58236 0.0
C2334 C 0.72788 0.93009 0.56671 0.0
C2335 C 0.74151 0.92 0.56316 0.0
C2336 C 0.75304 0.91663 0.57497 0.0
H2337 H 0.78563 0.5796 0.41685 0.0
H2338 H 0.76539 0.56484 0.46329 0.0
H2339 H 0.7504 0.5916 0.46494 0.0
H2340 H 0.79066 0.61873 0.41787 0.0
H2341 H 0.78212 0.62252 0.39806 0.0
H2342 H 0.79087 0.60304 0.40264 0.0
H2343 H 0.76334 0.58889 0.39529 0.0
H2344 H 0.75561 0.60876 0.38993 0.0
H2345 H 0.7447 0.59628 0.40437 0.0
H2346 H 0.73917 0.62166 0.46006 0.0
H2347 H 0.72993 0.64833 0.44887 0.0
H2348 H 0.75642 0.63868 0.40416 0.0
C2349 C 0.77831 0.58215 0.42759 0.0
C2350 C 0.7771 0.57088 0.44019 0.0
C2351 C 0.7668 0.57389 0.45375 0.0
C2352 C 0.75802 0.58875 0.45454 0.0
C2353 C 0.75906 0.59937 0.44113 0.0
C2354 C 0.76848 0.59559 0.42771 0.0
C2355 C 0.7669 0.60745 0.41401 0.0
C2356 C 0.78363 0.61325 0.40783 0.0
C2357 C 0.75704 0.59989 0.40009 0.0
C2358 C 0.7574 0.62039 0.4227 0.0
C2359 C 0.75224 0.61539 0.43805 0.0
C2360 C 0.74296 0.62555 0.44803 0.0
C2361 C 0.73818 0.64082 0.44179 0.0
C2362 C 0.74245 0.64531 0.42568 0.0
C2363 C 0.75304 0.63546 0.41654 0.0
H2364 H 0.91594 0.61363 0.90591 0.0
H2365 H 0.92905 0.62477 0.95537 0.0
H2366 H 0.94284 0.59737 0.95772 0.0
H2367 H 0.90834 0.57457 0.90542 0.0
H2368 H 0.91915 0.57122 0.88657 0.0
H2369 H 0.91085 0.59091 0.89088 0.0
H2370 H 0.93987 0.60376 0.88705 0.0
H2371 H 0.94724 0.58375 0.88198 0.0
H2372 H 0.9568 0.59502 0.89795 0.0
H2373 H 0.95362 0.56673 0.95293 0.0
H2374 H 0.96311 0.54022 0.9417 0.0
H2375 H 0.94299 0.55353 0.89485 0.0
C2376 C 0.92159 0.61028 0.91736 0.0
C2377 C 0.92121 0.6208 0.93046 0.0
C2378 C 0.92904 0.61646 0.94522 0.0
C2379 C 0.93706 0.60114 0.94652 0.0
C2380 C 0.93745 0.59115 0.93273 0.0
C2381 C 0.93029 0.5961 0.91838 0.0
C2382 C 0.93298 0.5847 0.90463 0.0
C2383 C 0.91687 0.58011 0.89644 0.0
C2384 C 0.94494 0.59226 0.89219 0.0
C2385 C 0.94056 0.57088 0.91388 0.0
C2386 C 0.94381 0.57484 0.9299 0.0
C2387 C 0.95127 0.56368 0.9404 0.0
C2388 C 0.95625 0.54853 0.93406 0.0
C2389 C 0.95391 0.54508 0.91739 0.0
C2390 C 0.945 0.55594 0.90762 0.0
H2391 H 0.74628 0.29705 0.11532 0.0
H2392 H 0.75148 0.25428 0.14598 0.0
H2393 H 0.75698 0.23761 0.12184 0.0
H2394 H 0.72839 0.28128 0.08044 0.0
H2395 H 0.74116 0.29269 0.06663 0.0
H2396 H 0.73706 0.3003 0.08672 0.0
H2397 H 0.76854 0.30162 0.09191 0.0
H2398 H 0.77164 0.29441 0.07147 0.0
H2399 H 0.78075 0.28369 0.08832 0.0
H2400 H 0.76083 0.22596 0.09576 0.0
H2401 H 0.76282 0.21789 0.06743 0.0
H2402 H 0.75947 0.26852 0.05209 0.0
C2403 C 0.74737 0.28397 0.11676 0.0
C2404 C 0.74855 0.27681 0.13232 0.0
C2405 C 0.7503 0.25978 0.13401 0.0
C2406 C 0.75423 0.25044 0.12048 0.0
C2407 C 0.75509 0.25826 0.10544 0.0
C2408 C 0.75183 0.27459 0.10341 0.0
C2409 C 0.7544 0.27994 0.08589 0.0
C2410 C 0.73935 0.28909 0.07956 0.0
C2411 C 0.76975 0.29054 0.08431 0.0
C2412 C 0.757 0.26342 0.07796 0.0
C2413 C 0.7581 0.25141 0.08983 0.0
C2414 C 0.76009 0.23512 0.08628 0.0
C2415 C 0.76076 0.23065 0.07014 0.0
C2416 C 0.76097 0.24246 0.0577 0.0
C2417 C 0.75883 0.2592 0.06146 0.0
H2418 H 0.93109 0.94454 0.62367 0.0
H2419 H 0.93459 0.8932 0.61214 0.0
H2420 H 0.92975 0.89943 0.58347 0.0
H2421 H 0.90237 0.95898 0.59603 0.0
H2422 H 0.91358 0.97682 0.58998 0.0
H2423 H 0.91672 0.96795 0.60977 0.0
H2424 H 0.94809 0.96572 0.60261 0.0
H2425 H 0.94365 0.9747 0.58306 0.0
H2426 H 0.95414 0.95541 0.58424 0.0
H2427 H 0.92215 0.91104 0.55595 0.0
H2428 H 0.91501 0.92813 0.53177 0.0
H2429 H 0.92021 0.97146 0.56078 0.0
C2430 C 0.93187 0.93476 0.61493 0.0
C2431 C 0.93261 0.91835 0.62008 0.0
C2432 C 0.93386 0.90586 0.60844 0.0
C2433 C 0.9306 0.90921 0.59215 0.0
C2434 C 0.92816 0.92531 0.58749 0.0
C2435 C 0.92953 0.93798 0.59839 0.0
C2436 C 0.92802 0.95425 0.58981 0.0
C2437 C 0.91434 0.96512 0.59682 0.0
C2438 C 0.94444 0.96303 0.58993 0.0
C2439 C 0.92425 0.94865 0.57286 0.0
C2440 C 0.92462 0.93194 0.57158 0.0
C2441 C 0.9219 0.92417 0.5568 0.0
C2442 C 0.9182 0.93391 0.54309 0.0
C2443 C 0.91747 0.95108 0.54452 0.0
C2444 C 0.92099 0.95837 0.55941 0.0
H2445 H 0.93681 0.64246 0.73616 0.0
H2446 H 0.96704 0.6279 0.77742 0.0
H2447 H 0.95808 0.60087 0.77537 0.0
H2448 H 0.90289 0.61229 0.74132 0.0
H2449 H 0.90251 0.6058 0.72044 0.0
H2450 H 0.90913 0.62604 0.72528 0.0
H2451 H 0.93666 0.61962 0.70948 0.0
H2452 H 0.92869 0.59969 0.70534 0.0
H2453 H 0.94802 0.60169 0.71527 0.0
H2454 H 0.95178 0.57554 0.76877 0.0
H2455 H 0.94229 0.54987 0.75884 0.0
H2456 H 0.91 0.575 0.72536 0.0
C2457 C 0.94146 0.63343 0.74461 0.0
C2458 C 0.95248 0.63778 0.75745 0.0
C2459 C 0.9583 0.62549 0.76794 0.0
C2460 C 0.95334 0.60976 0.76685 0.0
C2461 C 0.94286 0.60567 0.75468 0.0
C2462 C 0.93684 0.61665 0.74341 0.0
C2463 C 0.92688 0.60694 0.73088 0.0
C2464 C 0.90929 0.61314 0.7294 0.0
C2465 C 0.93557 0.60699 0.71425 0.0
C2466 C 0.92766 0.58968 0.73816 0.0
C2467 C 0.9378 0.58963 0.75133 0.0
C2468 C 0.94331 0.57547 0.75879 0.0
C2469 C 0.93821 0.56084 0.7526 0.0
C2470 C 0.92404 0.5607 0.74308 0.0
C2471 C 0.91996 0.57495 0.7339 0.0
loop_
_geom_bond_atom_site_label_1
_geom_bond_atom_site_label_2
_geom_bond_distance
_geom_bond_site_symmetry_2
_ccdc_geom_bond_type
O0 Cd1 2.300 . S
O0 C7 1.275 . S
Cd1 O0 2.300 . S
Cd1 O9 2.381 . S
Cd1 O10 2.378 . S
O2 Cd3 2.385 . S
O2 C7 1.255 1_455 S
Cd3 O2 2.385 . S
Cd3 O4 2.317 . S
O4 Cd3 2.317 . S
O4 C5 1.232 . S
C5 O4 1.232 . S
C5 O6 1.218 . S
O6 C5 1.218 . S
C7 O0 1.275 . S
C7 O2 1.255 1_655 S
C8 O9 1.258 . S
C8 O10 1.256 . S
O9 Cd1 2.381 . S
O9 C8 1.258 . S
O10 Cd1 2.378 . S
O10 C8 1.256 . S
O11 Cd12 2.300 . S
O11 C18 1.275 . S
Cd12 O11 2.300 . S
Cd12 O20 2.381 . S
Cd12 O21 2.378 . S
O13 Cd14 2.385 . S
O13 C18 1.255 1_455 S
Cd14 O13 2.385 . S
Cd14 O15 2.317 . S
O15 Cd14 2.317 . S
O15 C16 1.232 . S
C16 O15 1.232 . S
C16 O17 1.218 . S
O17 C16 1.218 . S
C18 O11 1.275 . S
C18 O13 1.255 1_655 S
C19 O20 1.258 . S
C19 O21 1.256 . S
O20 Cd12 2.381 . S
O20 C19 1.258 . S
O21 Cd12 2.378 . S
O21 C19 1.256 . S
O22 Cd23 2.300 . S
O22 C29 1.275 . S
Cd23 O22 2.300 . S
Cd23 O31 2.381 . S
Cd23 O32 2.378 . S
O24 Cd25 2.385 . S
O24 C29 1.255 . S
Cd25 O24 2.385 . S
Cd25 O26 2.317 . S
O26 Cd25 2.317 . S
O26 C27 1.232 . S
C27 O26 1.232 . S
C27 O28 1.218 . S
O28 C27 1.218 . S
C29 O22 1.275 . S
C29 O24 1.255 . S
C30 O31 1.258 . S
C30 O32 1.256 . S
O31 Cd23 2.381 . S
O31 C30 1.258 . S
O32 Cd23 2.378 . S
O32 C30 1.256 . S
O33 Cd34 2.300 . S
O33 C40 1.275 . S
Cd34 O33 2.300 . S
Cd34 O42 2.381 . S
Cd34 O43 2.378 . S
O35 Cd36 2.385 . S
O35 C40 1.255 . S
Cd36 O35 2.385 . S
Cd36 O37 2.317 . S
O37 Cd36 2.317 . S
O37 C38 1.232 . S
C38 O37 1.232 . S
C38 O39 1.218 . S
O39 C38 1.218 . S
C40 O33 1.275 . S
C40 O35 1.255 . S
C41 O42 1.258 . S
C41 O43 1.256 . S
O42 Cd34 2.381 . S
O42 C41 1.258 . S
O43 Cd34 2.378 . S
O43 C41 1.256 . S
O44 Cd45 2.300 . S
O44 C51 1.275 . S
Cd45 O44 2.300 . S
Cd45 O53 2.381 . S
Cd45 O54 2.378 . S
O46 Cd47 2.385 . S
O46 C51 1.255 1_455 S
Cd47 O46 2.385 . S
Cd47 O48 2.317 . S
O48 Cd47 2.317 . S
O48 C49 1.232 . S
C49 O48 1.232 . S
C49 O50 1.218 . S
O50 C49 1.218 . S
C51 O44 1.275 . S
C51 O46 1.255 1_655 S
C52 O53 1.258 . S
C52 O54 1.256 . S
O53 Cd45 2.381 . S
O53 C52 1.258 . S
O54 Cd45 2.378 . S
O54 C52 1.256 . S
O55 Cd56 2.300 . S
O55 C62 1.275 . S
Cd56 O55 2.300 . S
Cd56 O64 2.381 . S
Cd56 O65 2.378 . S
O57 Cd58 2.385 . S
O57 C62 1.255 . S
Cd58 O57 2.385 . S
Cd58 O59 2.317 . S
O59 Cd58 2.317 . S
O59 C60 1.232 . S
C60 O59 1.232 . S
C60 O61 1.218 . S
O61 C60 1.218 . S
C62 O55 1.275 . S
C62 O57 1.255 . S
C63 O64 1.258 . S
C63 O65 1.256 . S
O64 Cd56 2.381 . S
O64 C63 1.258 . S
O65 Cd56 2.378 . S
O65 C63 1.256 . S
O66 Cd67 2.300 . S
O66 C73 1.275 . S
Cd67 O66 2.300 . S
Cd67 O75 2.381 . S
Cd67 O76 2.378 . S
O68 Cd69 2.385 . S
O68 C73 1.255 . S
Cd69 O68 2.385 . S
Cd69 O70 2.317 . S
O70 Cd69 2.317 . S
O70 C71 1.232 . S
C71 O70 1.232 . S
C71 O72 1.218 . S
O72 C71 1.218 . S
C73 O66 1.275 . S
C73 O68 1.255 . S
C74 O75 1.258 . S
C74 O76 1.256 . S
O75 Cd67 2.381 . S
O75 C74 1.258 . S
O76 Cd67 2.378 . S
O76 C74 1.256 . S
O77 Cd78 2.300 . S
O77 C84 1.275 . S
Cd78 O77 2.300 . S
Cd78 O86 2.381 . S
Cd78 O87 2.378 . S
O79 Cd80 2.385 . S
O79 C84 1.255 1_455 S
Cd80 O79 2.385 . S
Cd80 O81 2.317 . S
O81 Cd80 2.317 . S
O81 C82 1.232 . S
C82 O81 1.232 . S
C82 O83 1.218 . S
O83 C82 1.218 . S
C84 O77 1.275 . S
C84 O79 1.255 1_655 S
C85 O86 1.258 . S
C85 O87 1.256 . S
O86 Cd78 2.381 . S
O86 C85 1.258 . S
O87 Cd78 2.378 . S
O87 C85 1.256 . S
O88 Cd89 2.300 . S
O88 C95 1.275 . S
Cd89 O88 2.300 . S
Cd89 O97 2.381 . S
Cd89 O98 2.378 . S
O90 Cd91 2.385 . S
O90 C95 1.255 1_545 S
Cd91 O90 2.385 . S
Cd91 O92 2.317 . S
O92 Cd91 2.317 . S
O92 C93 1.232 . S
C93 O92 1.232 . S
C93 O94 1.218 . S
O94 C93 1.218 . S
C95 O88 1.275 . S
C95 O90 1.255 1_565 S
C96 O97 1.258 . S
C96 O98 1.256 . S
O97 Cd89 2.381 . S
O97 C96 1.258 . S
O98 Cd89 2.378 . S
O98 C96 1.256 . S
O99 Cd100 2.300 . S
O99 C106 1.275 . S
Cd100 O99 2.300 . S
Cd100 O108 2.381 . S
Cd100 O109 2.378 . S
O101 Cd102 2.385 . S
O101 C106 1.255 . S
Cd102 O101 2.385 . S
Cd102 O103 2.317 . S
O103 Cd102 2.317 . S
O103 C104 1.232 . S
C104 O103 1.232 . S
C104 O105 1.218 . S
O105 C104 1.218 . S
C106 O99 1.275 . S
C106 O101 1.255 . S
C107 O108 1.258 . S
C107 O109 1.256 . S
O108 Cd100 2.381 . S
O108 C107 1.258 . S
O109 Cd100 2.378 . S
O109 C107 1.256 . S
O110 Cd111 2.300 . S
O110 C117 1.275 . S
Cd111 O110 2.300 . S
Cd111 O119 2.381 . S
Cd111 O120 2.378 . S
O112 Cd113 2.385 . S
O112 C117 1.255 . S
Cd113 O112 2.385 . S
Cd113 O114 2.317 . S
O114 Cd113 2.317 . S
O114 C115 1.232 . S
C115 O114 1.232 . S
C115 O116 1.218 . S
O116 C115 1.218 . S
C117 O110 1.275 . S
C117 O112 1.255 . S
C118 O119 1.258 . S
C118 O120 1.256 . S
O119 Cd111 2.381 . S
O119 C118 1.258 . S
O120 Cd111 2.378 . S
O120 C118 1.256 . S
O121 Cd122 2.300 . S
O121 C128 1.275 . S
Cd122 O121 2.300 . S
Cd122 O130 2.381 . S
Cd122 O131 2.378 . S
O123 Cd124 2.385 . S
O123 C128 1.255 . S
Cd124 O123 2.385 . S
Cd124 O125 2.317 . S
O125 Cd124 2.317 . S
O125 C126 1.232 . S
C126 O125 1.232 . S
C126 O127 1.218 . S
O127 C126 1.218 . S
C128 O121 1.275 . S
C128 O123 1.255 . S
C129 O130 1.258 . S
C129 O131 1.256 . S
O130 Cd122 2.381 . S
O130 C129 1.258 . S
O131 Cd122 2.378 . S
O131 C129 1.256 . S
O132 Cd133 2.300 . S
O132 C139 1.275 . S
Cd133 O132 2.300 . S
Cd133 O141 2.381 . S
Cd133 O142 2.378 . S
O134 Cd135 2.385 . S
O134 C139 1.255 . S
Cd135 O134 2.385 . S
Cd135 O136 2.317 . S
O136 Cd135 2.317 . S
O136 C137 1.232 . S
C137 O136 1.232 . S
C137 O138 1.218 . S
O138 C137 1.218 . S
C139 O132 1.275 . S
C139 O134 1.255 . S
C140 O141 1.258 . S
C140 O142 1.256 . S
O141 Cd133 2.381 . S
O141 C140 1.258 . S
O142 Cd133 2.378 . S
O142 C140 1.256 . S
O143 Cd144 2.300 . S
O143 C150 1.275 . S
Cd144 O143 2.300 . S
Cd144 O152 2.381 . S
Cd144 O153 2.378 . S
O145 Cd146 2.385 . S
O145 C150 1.255 . S
Cd146 O145 2.385 . S
Cd146 O147 2.317 . S
O147 Cd146 2.317 . S
O147 C148 1.232 . S
C148 O147 1.232 . S
C148 O149 1.218 . S
O149 C148 1.218 . S
C150 O143 1.275 . S
C150 O145 1.255 . S
C151 O152 1.258 . S
C151 O153 1.256 . S
O152 Cd144 2.381 . S
O152 C151 1.258 . S
O153 Cd144 2.378 . S
O153 C151 1.256 . S
O154 Cd155 2.300 . S
O154 C161 1.275 . S
Cd155 O154 2.300 . S
Cd155 O163 2.381 . S
Cd155 O164 2.378 . S
O156 Cd157 2.385 . S
O156 C161 1.255 1_545 S
Cd157 O156 2.385 . S
Cd157 O158 2.317 . S
O158 Cd157 2.317 . S
O158 C159 1.232 . S
C159 O158 1.232 . S
C159 O160 1.218 . S
O160 C159 1.218 . S
C161 O154 1.275 . S
C161 O156 1.255 1_565 S
C162 O163 1.258 . S
C162 O164 1.256 . S
O163 Cd155 2.381 . S
O163 C162 1.258 . S
O164 Cd155 2.378 . S
O164 C162 1.256 . S
O165 Cd166 2.300 . S
O165 C172 1.275 . S
Cd166 O165 2.300 . S
Cd166 O174 2.381 . S
Cd166 O175 2.378 . S
O167 Cd168 2.385 . S
O167 C172 1.255 1_554 S
Cd168 O167 2.385 . S
Cd168 O169 2.317 . S
O169 Cd168 2.317 . S
O169 C170 1.232 . S
C170 O169 1.232 . S
C170 O171 1.218 . S
O171 C170 1.218 . S
C172 O165 1.275 . S
C172 O167 1.255 1_556 S
C173 O174 1.258 . S
C173 O175 1.256 . S
O174 Cd166 2.381 . S
O174 C173 1.258 . S
O175 Cd166 2.378 . S
O175 C173 1.256 . S
O176 Cd177 2.300 . S
O176 C183 1.275 . S
Cd177 O176 2.300 . S
Cd177 O185 2.381 . S
Cd177 O186 2.378 . S
O178 Cd179 2.385 . S
O178 C183 1.255 1_554 S
Cd179 O178 2.385 . S
Cd179 O180 2.317 . S
O180 Cd179 2.317 . S
O180 C181 1.232 . S
C181 O180 1.232 . S
C181 O182 1.218 . S
O182 C181 1.218 . S
C183 O176 1.275 . S
C183 O178 1.255 1_556 S
C184 O185 1.258 . S
C184 O186 1.256 . S
O185 Cd177 2.381 . S
O185 C184 1.258 . S
O186 Cd177 2.378 . S
O186 C184 1.256 . S
O187 Cd188 2.300 . S
O187 C194 1.275 . S
Cd188 O187 2.300 . S
Cd188 O196 2.381 . S
Cd188 O197 2.378 . S
O189 Cd190 2.385 . S
O189 C194 1.255 . S
Cd190 O189 2.385 . S
Cd190 O191 2.317 . S
O191 Cd190 2.317 . S
O191 C192 1.232 . S
C192 O191 1.232 . S
C192 O193 1.218 . S
O193 C192 1.218 . S
C194 O187 1.275 . S
C194 O189 1.255 . S
C195 O196 1.258 . S
C195 O197 1.256 . S
O196 Cd188 2.381 . S
O196 C195 1.258 . S
O197 Cd188 2.378 . S
O197 C195 1.256 . S
O198 Cd199 2.300 . S
O198 C205 1.275 . S
Cd199 O198 2.300 . S
Cd199 O207 2.381 . S
Cd199 O208 2.378 . S
O200 Cd201 2.385 . S
O200 C205 1.255 . S
Cd201 O200 2.385 . S
Cd201 O202 2.317 . S
O202 Cd201 2.317 . S
O202 C203 1.232 . S
C203 O202 1.232 . S
C203 O204 1.218 . S
O204 C203 1.218 . S
C205 O198 1.275 . S
C205 O200 1.255 . S
C206 O207 1.258 . S
C206 O208 1.256 . S
O207 Cd199 2.381 . S
O207 C206 1.258 . S
O208 Cd199 2.378 . S
O208 C206 1.256 . S
O209 Cd210 2.300 . S
O209 C216 1.275 . S
Cd210 O209 2.300 . S
Cd210 O218 2.381 . S
Cd210 O219 2.378 . S
O211 Cd212 2.385 . S
O211 C216 1.255 . S
Cd212 O211 2.385 . S
Cd212 O213 2.317 . S
O213 Cd212 2.317 . S
O213 C214 1.232 . S
C214 O213 1.232 . S
C214 O215 1.218 . S
O215 C214 1.218 . S
C216 O209 1.275 . S
C216 O211 1.255 . S
C217 O218 1.258 . S
C217 O219 1.256 . S
O218 Cd210 2.381 . S
O218 C217 1.258 . S
O219 Cd210 2.378 . S
O219 C217 1.256 . S
O220 Cd221 2.300 . S
O220 C227 1.275 . S
Cd221 O220 2.300 . S
Cd221 O229 2.381 . S
Cd221 O230 2.378 . S
O222 Cd223 2.385 . S
O222 C227 1.255 1_545 S
Cd223 O222 2.385 . S
Cd223 O224 2.317 . S
O224 Cd223 2.317 . S
O224 C225 1.232 . S
C225 O224 1.232 . S
C225 O226 1.218 . S
O226 C225 1.218 . S
C227 O220 1.275 . S
C227 O222 1.255 1_565 S
C228 O229 1.258 . S
C228 O230 1.256 . S
O229 Cd221 2.381 . S
O229 C228 1.258 . S
O230 Cd221 2.378 . S
O230 C228 1.256 . S
O231 Cd232 2.300 . S
O231 C238 1.275 . S
Cd232 O231 2.300 . S
Cd232 O240 2.381 . S
Cd232 O241 2.378 . S
O233 Cd234 2.385 . S
O233 C238 1.255 . S
Cd234 O233 2.385 . S
Cd234 O235 2.317 . S
O235 Cd234 2.317 . S
O235 C236 1.232 . S
C236 O235 1.232 . S
C236 O237 1.218 . S
O237 C236 1.218 . S
C238 O231 1.275 . S
C238 O233 1.255 . S
C239 O240 1.258 . S
C239 O241 1.256 . S
O240 Cd232 2.381 . S
O240 C239 1.258 . S
O241 Cd232 2.378 . S
O241 C239 1.256 . S
O242 Cd243 2.300 . S
O242 C249 1.275 . S
Cd243 O242 2.300 . S
Cd243 O251 2.381 . S
Cd243 O252 2.378 . S
O244 Cd245 2.385 . S
O244 C249 1.255 . S
Cd245 O244 2.385 . S
Cd245 O246 2.317 . S
O246 Cd245 2.317 . S
O246 C247 1.232 . S
C247 O246 1.232 . S
C247 O248 1.218 . S
O248 C247 1.218 . S
C249 O242 1.275 . S
C249 O244 1.255 . S
C250 O251 1.258 . S
C250 O252 1.256 . S
O251 Cd243 2.381 . S
O251 C250 1.258 . S
O252 Cd243 2.378 . S
O252 C250 1.256 . S
O253 Cd254 2.300 . S
O253 C260 1.275 . S
Cd254 O253 2.300 . S
Cd254 O262 2.381 . S
Cd254 O263 2.378 . S
O255 Cd256 2.385 . S
O255 C260 1.255 . S
Cd256 O255 2.385 . S
Cd256 O257 2.317 . S
O257 Cd256 2.317 . S
O257 C258 1.232 . S
C258 O257 1.232 . S
C258 O259 1.218 . S
O259 C258 1.218 . S
C260 O253 1.275 . S
C260 O255 1.255 . S
C261 O262 1.258 . S
C261 O263 1.256 . S
O262 Cd254 2.381 . S
O262 C261 1.258 . S
O263 Cd254 2.378 . S
O263 C261 1.256 . S
O264 Cd265 2.300 . S
O264 C271 1.275 . S
Cd265 O264 2.300 . S
Cd265 O273 2.381 . S
Cd265 O274 2.378 . S
O266 Cd267 2.385 . S
O266 C271 1.255 . S
Cd267 O266 2.385 . S
Cd267 O268 2.317 . S
O268 Cd267 2.317 . S
O268 C269 1.232 . S
C269 O268 1.232 . S
C269 O270 1.218 . S
O270 C269 1.218 . S
C271 O264 1.275 . S
C271 O266 1.255 . S
C272 O273 1.258 . S
C272 O274 1.256 . S
O273 Cd265 2.381 . S
O273 C272 1.258 . S
O274 Cd265 2.378 . S
O274 C272 1.256 . S
O275 Cd276 2.300 . S
O275 C282 1.275 . S
Cd276 O275 2.300 . S
Cd276 O284 2.381 . S
Cd276 O285 2.378 . S
O277 Cd278 2.385 . S
O277 C282 1.255 . S
Cd278 O277 2.385 . S
Cd278 O279 2.317 . S
O279 Cd278 2.317 . S
O279 C280 1.232 . S
C280 O279 1.232 . S
C280 O281 1.218 . S
O281 C280 1.218 . S
C282 O275 1.275 . S
C282 O277 1.255 . S
C283 O284 1.258 . S
C283 O285 1.256 . S
O284 Cd276 2.381 . S
O284 C283 1.258 . S
O285 Cd276 2.378 . S
O285 C283 1.256 . S
O286 Cd287 2.300 . S
O286 C293 1.275 . S
Cd287 O286 2.300 . S
Cd287 O295 2.381 . S
Cd287 O296 2.378 . S
O288 Cd289 2.385 . S
O288 C293 1.255 . S
Cd289 O288 2.385 . S
Cd289 O290 2.317 . S
O290 Cd289 2.317 . S
O290 C291 1.232 . S
C291 O290 1.232 . S
C291 O292 1.218 . S
O292 C291 1.218 . S
C293 O286 1.275 . S
C293 O288 1.255 . S
C294 O295 1.258 . S
C294 O296 1.256 . S
O295 Cd287 2.381 . S
O295 C294 1.258 . S
O296 Cd287 2.378 . S
O296 C294 1.256 . S
O297 Cd298 2.300 . S
O297 C304 1.275 . S
Cd298 O297 2.300 . S
Cd298 O306 2.381 . S
Cd298 O307 2.378 . S
O299 Cd300 2.385 . S
O299 C304 1.255 . S
Cd300 O299 2.385 . S
Cd300 O301 2.317 . S
O301 Cd300 2.317 . S
O301 C302 1.232 . S
C302 O301 1.232 . S
C302 O303 1.218 . S
O303 C302 1.218 . S
C304 O297 1.275 . S
C304 O299 1.255 . S
C305 O306 1.258 . S
C305 O307 1.256 . S
O306 Cd298 2.381 . S
O306 C305 1.258 . S
O307 Cd298 2.378 . S
O307 C305 1.256 . S
O308 Cd309 2.300 . S
O308 C315 1.275 . S
Cd309 O308 2.300 . S
Cd309 O317 2.381 . S
Cd309 O318 2.378 . S
O310 Cd311 2.385 . S
O310 C315 1.255 . S
Cd311 O310 2.385 . S
Cd311 O312 2.317 . S
O312 Cd311 2.317 . S
O312 C313 1.232 . S
C313 O312 1.232 . S
C313 O314 1.218 . S
O314 C313 1.218 . S
C315 O308 1.275 . S
C315 O310 1.255 . S
C316 O317 1.258 . S
C316 O318 1.256 . S
O317 Cd309 2.381 . S
O317 C316 1.258 . S
O318 Cd309 2.378 . S
O318 C316 1.256 . S
O319 Cd320 2.300 . S
O319 C326 1.275 . S
Cd320 O319 2.300 . S
Cd320 O328 2.381 . S
Cd320 O329 2.378 . S
O321 Cd322 2.385 . S
O321 C326 1.255 . S
Cd322 O321 2.385 . S
Cd322 O323 2.317 . S
O323 Cd322 2.317 . S
O323 C324 1.232 . S
C324 O323 1.232 . S
C324 O325 1.218 . S
O325 C324 1.218 . S
C326 O319 1.275 . S
C326 O321 1.255 . S
C327 O328 1.258 . S
C327 O329 1.256 . S
O328 Cd320 2.381 . S
O328 C327 1.258 . S
O329 Cd320 2.378 . S
O329 C327 1.256 . S
O330 Cd331 2.300 . S
O330 C337 1.275 . S
Cd331 O330 2.300 . S
Cd331 O339 2.381 . S
Cd331 O340 2.378 . S
O332 Cd333 2.385 . S
O332 C337 1.255 . S
Cd333 O332 2.385 . S
Cd333 O334 2.317 . S
O334 Cd333 2.317 . S
O334 C335 1.232 . S
C335 O334 1.232 . S
C335 O336 1.218 . S
O336 C335 1.218 . S
C337 O330 1.275 . S
C337 O332 1.255 . S
C338 O339 1.258 . S
C338 O340 1.256 . S
O339 Cd331 2.381 . S
O339 C338 1.258 . S
O340 Cd331 2.378 . S
O340 C338 1.256 . S
O341 Cd342 2.300 . S
O341 C348 1.275 . S
Cd342 O341 2.300 . S
Cd342 O350 2.381 . S
Cd342 O351 2.378 . S
O343 Cd344 2.385 . S
O343 C348 1.255 . S
Cd344 O343 2.385 . S
Cd344 O345 2.317 . S
O345 Cd344 2.317 . S
O345 C346 1.232 . S
C346 O345 1.232 . S
C346 O347 1.218 . S
O347 C346 1.218 . S
C348 O341 1.275 . S
C348 O343 1.255 . S
C349 O350 1.258 . S
C349 O351 1.256 . S
O350 Cd342 2.381 . S
O350 C349 1.258 . S
O351 Cd342 2.378 . S
O351 C349 1.256 . S
O352 Cd353 2.300 . S
O352 C359 1.275 . S
Cd353 O352 2.300 . S
Cd353 O361 2.381 . S
Cd353 O362 2.378 . S
O354 Cd355 2.385 . S
O354 C359 1.255 . S
Cd355 O354 2.385 . S
Cd355 O356 2.317 . S
O356 Cd355 2.317 . S
O356 C357 1.232 . S
C357 O356 1.232 . S
C357 O358 1.218 . S
O358 C357 1.218 . S
C359 O352 1.275 . S
C359 O354 1.255 . S
C360 O361 1.258 . S
C360 O362 1.256 . S
O361 Cd353 2.381 . S
O361 C360 1.258 . S
O362 Cd353 2.378 . S
O362 C360 1.256 . S
O363 Cd364 2.300 . S
O363 C370 1.275 . S
Cd364 O363 2.300 . S
Cd364 O372 2.381 . S
Cd364 O373 2.378 . S
O365 Cd366 2.385 . S
O365 C370 1.255 . S
Cd366 O365 2.385 . S
Cd366 O367 2.317 . S
O367 Cd366 2.317 . S
O367 C368 1.232 . S
C368 O367 1.232 . S
C368 O369 1.218 . S
O369 C368 1.218 . S
C370 O363 1.275 . S
C370 O365 1.255 . S
C371 O372 1.258 . S
C371 O373 1.256 . S
O372 Cd364 2.381 . S
O372 C371 1.258 . S
O373 Cd364 2.378 . S
O373 C371 1.256 . S
O374 Cd375 2.300 . S
O374 C381 1.275 . S
Cd375 O374 2.300 . S
Cd375 O383 2.381 . S
Cd375 O384 2.378 . S
O376 Cd377 2.385 . S
O376 C381 1.255 . S
Cd377 O376 2.385 . S
Cd377 O378 2.317 . S
O378 Cd377 2.317 . S
O378 C379 1.232 . S
C379 O378 1.232 . S
C379 O380 1.218 . S
O380 C379 1.218 . S
C381 O374 1.275 . S
C381 O376 1.255 . S
C382 O383 1.258 . S
C382 O384 1.256 . S
O383 Cd375 2.381 . S
O383 C382 1.258 . S
O384 Cd375 2.378 . S
O384 C382 1.256 . S
O385 Cd386 2.300 . S
O385 C392 1.275 . S
Cd386 O385 2.300 . S
Cd386 O394 2.381 . S
Cd386 O395 2.378 . S
O387 Cd388 2.385 . S
O387 C392 1.255 . S
Cd388 O387 2.385 . S
Cd388 O389 2.317 . S
O389 Cd388 2.317 . S
O389 C390 1.232 . S
C390 O389 1.232 . S
C390 O391 1.218 . S
O391 C390 1.218 . S
C392 O385 1.275 . S
C392 O387 1.255 . S
C393 O394 1.258 . S
C393 O395 1.256 . S
O394 Cd386 2.381 . S
O394 C393 1.258 . S
O395 Cd386 2.378 . S
O395 C393 1.256 . S
O396 Cd397 2.300 . S
O396 C403 1.275 . S
Cd397 O396 2.300 . S
Cd397 O405 2.381 . S
Cd397 O406 2.378 . S
O398 Cd399 2.385 . S
O398 C403 1.255 . S
Cd399 O398 2.385 . S
Cd399 O400 2.317 . S
O400 Cd399 2.317 . S
O400 C401 1.232 . S
C401 O400 1.232 . S
C401 O402 1.218 . S
O402 C401 1.218 . S
C403 O396 1.275 . S
C403 O398 1.255 . S
C404 O405 1.258 . S
C404 O406 1.256 . S
O405 Cd397 2.381 . S
O405 C404 1.258 . S
O406 Cd397 2.378 . S
O406 C404 1.256 . S
O407 Cd408 2.300 . S
O407 C414 1.275 . S
Cd408 O407 2.300 . S
Cd408 O416 2.381 . S
Cd408 O417 2.378 . S
O409 Cd410 2.385 . S
O409 C414 1.255 1_554 S
Cd410 O409 2.385 . S
Cd410 O411 2.317 . S
O411 Cd410 2.317 . S
O411 C412 1.232 . S
C412 O411 1.232 . S
C412 O413 1.218 . S
O413 C412 1.218 . S
C414 O407 1.275 . S
C414 O409 1.255 1_556 S
C415 O416 1.258 . S
C415 O417 1.256 . S
O416 Cd408 2.381 . S
O416 C415 1.258 . S
O417 Cd408 2.378 . S
O417 C415 1.256 . S
O418 Cd419 2.300 . S
O418 C425 1.275 . S
Cd419 O418 2.300 . S
Cd419 O427 2.381 . S
Cd419 O428 2.378 . S
O420 Cd421 2.385 . S
O420 C425 1.255 . S
Cd421 O420 2.385 . S
Cd421 O422 2.317 . S
O422 Cd421 2.317 . S
O422 C423 1.232 . S
C423 O422 1.232 . S
C423 O424 1.218 . S
O424 C423 1.218 . S
C425 O418 1.275 . S
C425 O420 1.255 . S
C426 O427 1.258 . S
C426 O428 1.256 . S
O427 Cd419 2.381 . S
O427 C426 1.258 . S
O428 Cd419 2.378 . S
O428 C426 1.256 . S
O429 Cd430 2.300 . S
O429 C436 1.275 . S
Cd430 O429 2.300 . S
Cd430 O438 2.381 . S
Cd430 O439 2.378 . S
O431 Cd432 2.385 . S
O431 C436 1.255 . S
Cd432 O431 2.385 . S
Cd432 O433 2.317 . S
O433 Cd432 2.317 . S
O433 C434 1.232 . S
C434 O433 1.232 . S
C434 O435 1.218 . S
O435 C434 1.218 . S
C436 O429 1.275 . S
C436 O431 1.255 . S
C437 O438 1.258 . S
C437 O439 1.256 . S
O438 Cd430 2.381 . S
O438 C437 1.258 . S
O439 Cd430 2.378 . S
O439 C437 1.256 . S
O440 Cd441 2.300 . S
O440 C447 1.275 . S
Cd441 O440 2.300 . S
Cd441 O449 2.381 . S
Cd441 O450 2.378 . S
O442 Cd443 2.385 . S
O442 C447 1.255 . S
Cd443 O442 2.385 . S
Cd443 O444 2.317 . S
O444 Cd443 2.317 . S
O444 C445 1.232 . S
C445 O444 1.232 . S
C445 O446 1.218 . S
O446 C445 1.218 . S
C447 O440 1.275 . S
C447 O442 1.255 . S
C448 O449 1.258 . S
C448 O450 1.256 . S
O449 Cd441 2.381 . S
O449 C448 1.258 . S
O450 Cd441 2.378 . S
O450 C448 1.256 . S
O451 Cd452 2.300 . S
O451 C458 1.275 . S
Cd452 O451 2.300 . S
Cd452 O460 2.381 . S
Cd452 O461 2.378 . S
O453 Cd454 2.385 . S
O453 C458 1.255 . S
Cd454 O453 2.385 . S
Cd454 O455 2.317 . S
O455 Cd454 2.317 . S
O455 C456 1.232 . S
C456 O455 1.232 . S
C456 O457 1.218 . S
O457 C456 1.218 . S
C458 O451 1.275 . S
C458 O453 1.255 . S
C459 O460 1.258 . S
C459 O461 1.256 . S
O460 Cd452 2.381 . S
O460 C459 1.258 . S
O461 Cd452 2.378 . S
O461 C459 1.256 . S
O462 Cd463 2.300 . S
O462 C469 1.275 . S
Cd463 O462 2.300 . S
Cd463 O471 2.381 . S
Cd463 O472 2.378 . S
O464 Cd465 2.385 . S
O464 C469 1.255 . S
Cd465 O464 2.385 . S
Cd465 O466 2.317 . S
O466 Cd465 2.317 . S
O466 C467 1.232 . S
C467 O466 1.232 . S
C467 O468 1.218 . S
O468 C467 1.218 . S
C469 O462 1.275 . S
C469 O464 1.255 . S
C470 O471 1.258 . S
C470 O472 1.256 . S
O471 Cd463 2.381 . S
O471 C470 1.258 . S
O472 Cd463 2.378 . S
O472 C470 1.256 . S
O473 Cd474 2.300 . S
O473 C480 1.275 . S
Cd474 O473 2.300 . S
Cd474 O482 2.381 . S
Cd474 O483 2.378 . S
O475 Cd476 2.385 . S
O475 C480 1.255 . S
Cd476 O475 2.385 . S
Cd476 O477 2.317 . S
O477 Cd476 2.317 . S
O477 C478 1.232 . S
C478 O477 1.232 . S
C478 O479 1.218 . S
O479 C478 1.218 . S
C480 O473 1.275 . S
C480 O475 1.255 . S
C481 O482 1.258 . S
C481 O483 1.256 . S
O482 Cd474 2.381 . S
O482 C481 1.258 . S
O483 Cd474 2.378 . S
O483 C481 1.256 . S
O484 Cd485 2.300 . S
O484 C491 1.275 . S
Cd485 O484 2.300 . S
Cd485 O493 2.381 . S
Cd485 O494 2.378 . S
O486 Cd487 2.385 . S
O486 C491 1.255 . S
Cd487 O486 2.385 . S
Cd487 O488 2.317 . S
O488 Cd487 2.317 . S
O488 C489 1.232 . S
C489 O488 1.232 . S
C489 O490 1.218 . S
O490 C489 1.218 . S
C491 O484 1.275 . S
C491 O486 1.255 . S
C492 O493 1.258 . S
C492 O494 1.256 . S
O493 Cd485 2.381 . S
O493 C492 1.258 . S
O494 Cd485 2.378 . S
O494 C492 1.256 . S
O495 Cd496 2.300 . S
O495 C502 1.275 . S
Cd496 O495 2.300 . S
Cd496 O504 2.381 . S
Cd496 O505 2.378 . S
O497 Cd498 2.385 . S
O497 C502 1.255 1_554 S
Cd498 O497 2.385 . S
Cd498 O499 2.317 . S
O499 Cd498 2.317 . S
O499 C500 1.232 . S
C500 O499 1.232 . S
C500 O501 1.218 . S
O501 C500 1.218 . S
C502 O495 1.275 . S
C502 O497 1.255 1_556 S
C503 O504 1.258 . S
C503 O505 1.256 . S
O504 Cd496 2.381 . S
O504 C503 1.258 . S
O505 Cd496 2.378 . S
O505 C503 1.256 . S
O506 Cd507 2.300 . S
O506 C513 1.275 . S
Cd507 O506 2.300 . S
Cd507 O515 2.381 . S
Cd507 O516 2.378 . S
O508 Cd509 2.385 . S
O508 C513 1.255 1_545 S
Cd509 O508 2.385 . S
Cd509 O510 2.317 . S
O510 Cd509 2.317 . S
O510 C511 1.232 . S
C511 O510 1.232 . S
C511 O512 1.218 . S
O512 C511 1.218 . S
C513 O506 1.275 . S
C513 O508 1.255 1_565 S
C514 O515 1.258 . S
C514 O516 1.256 . S
O515 Cd507 2.381 . S
O515 C514 1.258 . S
O516 Cd507 2.378 . S
O516 C514 1.256 . S
O517 Cd518 2.300 . S
O517 C524 1.275 . S
Cd518 O517 2.300 . S
Cd518 O526 2.381 . S
Cd518 O527 2.378 . S
O519 Cd520 2.385 . S
O519 C524 1.255 . S
Cd520 O519 2.385 . S
Cd520 O521 2.317 . S
O521 Cd520 2.317 . S
O521 C522 1.232 . S
C522 O521 1.232 . S
C522 O523 1.218 . S
O523 C522 1.218 . S
C524 O517 1.275 . S
C524 O519 1.255 . S
C525 O526 1.258 . S
C525 O527 1.256 . S
O526 Cd518 2.381 . S
O526 C525 1.258 . S
O527 Cd518 2.378 . S
O527 C525 1.256 . S
H528 C540 0.930 . S
H529 C542 0.930 . S
H530 C543 0.930 . S
H531 C547 0.959 . S
H532 C547 0.959 . S
H533 C547 0.961 . S
H534 C548 0.960 . S
H535 C548 0.961 . S
H536 C548 0.959 . S
H537 C551 0.929 . S
H538 C552 0.931 . S
H539 C554 0.930 . S
C540 H528 0.930 . S
C540 C541 1.399 . S
C540 C545 1.399 . S
C541 C540 1.399 . S
C541 C542 1.376 . S
C542 H529 0.930 . S
C542 C541 1.376 . S
C542 C543 1.388 . S
C543 H530 0.930 . S
C543 C542 1.388 . S
C543 C544 1.390 . S
C544 C543 1.390 . S
C544 C545 1.394 . S
C544 C550 1.465 . S
C545 C540 1.399 . S
C545 C544 1.394 . S
C545 C546 1.516 . S
C546 C545 1.516 . S
C546 C547 1.502 . S
C546 C548 1.561 . S
C546 C549 1.526 . S
C547 H531 0.959 . S
C547 H532 0.959 . S
C547 H533 0.961 . S
C547 C546 1.502 . S
C548 H534 0.960 . S
C548 H535 0.961 . S
C548 H536 0.959 . S
C548 C546 1.561 . S
C549 C546 1.526 . S
C549 C550 1.396 . S
C549 C554 1.390 . S
C550 C544 1.465 . S
C550 C549 1.396 . S
C550 C551 1.399 . S
C551 H537 0.929 . S
C551 C550 1.399 . S
C551 C552 1.385 . S
C552 H538 0.931 . S
C552 C551 1.385 . S
C552 C553 1.389 . S
C553 C552 1.389 . S
C553 C554 1.387 . S
C554 H539 0.930 . S
C554 C549 1.390 . S
C554 C553 1.387 . S
H555 C567 0.930 . S
H556 C569 0.930 . S
H557 C570 0.930 . S
H558 C574 0.959 . S
H559 C574 0.959 . S
H560 C574 0.961 . S
H561 C575 0.960 . S
H562 C575 0.961 . S
H563 C575 0.959 . S
H564 C578 0.929 . S
H565 C579 0.931 . S
H566 C581 0.930 . S
C567 H555 0.930 . S
C567 C568 1.399 . S
C567 C572 1.399 . S
C568 C567 1.399 . S
C568 C569 1.376 . S
C569 H556 0.930 . S
C569 C568 1.376 . S
C569 C570 1.388 . S
C570 H557 0.930 . S
C570 C569 1.388 . S
C570 C571 1.390 . S
C571 C570 1.390 . S
C571 C572 1.394 . S
C571 C577 1.465 . S
C572 C567 1.399 . S
C572 C571 1.394 . S
C572 C573 1.516 . S
C573 C572 1.516 . S
C573 C574 1.502 . S
C573 C575 1.561 . S
C573 C576 1.526 . S
C574 H558 0.959 . S
C574 H559 0.959 . S
C574 H560 0.961 . S
C574 C573 1.502 . S
C575 H561 0.960 . S
C575 H562 0.961 . S
C575 H563 0.959 . S
C575 C573 1.561 . S
C576 C573 1.526 . S
C576 C577 1.396 . S
C576 C581 1.390 . S
C577 C571 1.465 . S
C577 C576 1.396 . S
C577 C578 1.399 . S
C578 H564 0.929 . S
C578 C577 1.399 . S
C578 C579 1.385 . S
C579 H565 0.931 . S
C579 C578 1.385 . S
C579 C580 1.389 . S
C580 C579 1.389 . S
C580 C581 1.387 . S
C581 H566 0.930 . S
C581 C576 1.390 . S
C581 C580 1.387 . S
H582 C594 0.930 . S
H583 C596 0.930 . S
H584 C597 0.930 . S
H585 C601 0.959 . S
H586 C601 0.959 . S
H587 C601 0.961 . S
H588 C602 0.960 . S
H589 C602 0.961 . S
H590 C602 0.959 . S
H591 C605 0.929 . S
H592 C606 0.931 . S
H593 C608 0.930 . S
C594 H582 0.930 . S
C594 C595 1.399 . S
C594 C599 1.399 . S
C595 C594 1.399 . S
C595 C596 1.376 . S
C596 H583 0.930 . S
C596 C595 1.376 . S
C596 C597 1.388 . S
C597 H584 0.930 . S
C597 C596 1.388 . S
C597 C598 1.390 . S
C598 C597 1.390 . S
C598 C599 1.394 . S
C598 C604 1.465 . S
C599 C594 1.399 . S
C599 C598 1.394 . S
C599 C600 1.516 . S
C600 C599 1.516 . S
C600 C601 1.502 . S
C600 C602 1.561 . S
C600 C603 1.526 . S
C601 H585 0.959 . S
C601 H586 0.959 . S
C601 H587 0.961 . S
C601 C600 1.502 . S
C602 H588 0.960 . S
C602 H589 0.961 . S
C602 H590 0.959 . S
C602 C600 1.561 . S
C603 C600 1.526 . S
C603 C604 1.396 . S
C603 C608 1.390 . S
C604 C598 1.465 . S
C604 C603 1.396 . S
C604 C605 1.399 . S
C605 H591 0.929 . S
C605 C604 1.399 . S
C605 C606 1.385 . S
C606 H592 0.931 . S
C606 C605 1.385 . S
C606 C607 1.389 . S
C607 C606 1.389 . S
C607 C608 1.387 . S
C608 H593 0.930 . S
C608 C603 1.390 . S
C608 C607 1.387 . S
H609 C621 0.930 . S
H610 C623 0.930 . S
H611 C624 0.930 . S
H612 C628 0.959 . S
H613 C628 0.959 . S
H614 C628 0.961 . S
H615 C629 0.960 . S
H616 C629 0.961 . S
H617 C629 0.959 . S
H618 C632 0.929 . S
H619 C633 0.931 . S
H620 C635 0.930 . S
C621 H609 0.930 . S
C621 C622 1.399 . S
C621 C626 1.399 . S
C622 C621 1.399 . S
C622 C623 1.376 . S
C623 H610 0.930 . S
C623 C622 1.376 . S
C623 C624 1.388 . S
C624 H611 0.930 . S
C624 C623 1.388 . S
C624 C625 1.390 . S
C625 C624 1.390 . S
C625 C626 1.394 . S
C625 C631 1.465 . S
C626 C621 1.399 . S
C626 C625 1.394 . S
C626 C627 1.516 . S
C627 C626 1.516 . S
C627 C628 1.502 . S
C627 C629 1.561 . S
C627 C630 1.526 . S
C628 H612 0.959 . S
C628 H613 0.959 . S
C628 H614 0.961 . S
C628 C627 1.502 . S
C629 H615 0.960 . S
C629 H616 0.961 . S
C629 H617 0.959 . S
C629 C627 1.561 . S
C630 C627 1.526 . S
C630 C631 1.396 . S
C630 C635 1.390 . S
C631 C625 1.465 . S
C631 C630 1.396 . S
C631 C632 1.399 . S
C632 H618 0.929 . S
C632 C631 1.399 . S
C632 C633 1.385 . S
C633 H619 0.931 . S
C633 C632 1.385 . S
C633 C634 1.389 . S
C634 C633 1.389 . S
C634 C635 1.387 . S
C635 H620 0.930 . S
C635 C630 1.390 . S
C635 C634 1.387 . S
H636 C648 0.930 . S
H637 C650 0.930 . S
H638 C651 0.930 . S
H639 C655 0.959 . S
H640 C655 0.959 . S
H641 C655 0.961 . S
H642 C656 0.960 . S
H643 C656 0.961 . S
H644 C656 0.959 . S
H645 C659 0.929 . S
H646 C660 0.931 . S
H647 C662 0.930 . S
C648 H636 0.930 . S
C648 C649 1.399 . S
C648 C653 1.399 . S
C649 C648 1.399 . S
C649 C650 1.376 . S
C650 H637 0.930 . S
C650 C649 1.376 . S
C650 C651 1.388 . S
C651 H638 0.930 . S
C651 C650 1.388 . S
C651 C652 1.390 . S
C652 C651 1.390 . S
C652 C653 1.394 . S
C652 C658 1.465 . S
C653 C648 1.399 . S
C653 C652 1.394 . S
C653 C654 1.516 . S
C654 C653 1.516 . S
C654 C655 1.502 . S
C654 C656 1.561 . S
C654 C657 1.526 . S
C655 H639 0.959 . S
C655 H640 0.959 . S
C655 H641 0.961 . S
C655 C654 1.502 . S
C656 H642 0.960 . S
C656 H643 0.961 . S
C656 H644 0.959 . S
C656 C654 1.561 . S
C657 C654 1.526 . S
C657 C658 1.396 . S
C657 C662 1.390 . S
C658 C652 1.465 . S
C658 C657 1.396 . S
C658 C659 1.399 . S
C659 H645 0.929 . S
C659 C658 1.399 . S
C659 C660 1.385 . S
C660 H646 0.931 . S
C660 C659 1.385 . S
C660 C661 1.389 . S
C661 C660 1.389 . S
C661 C662 1.387 . S
C662 H647 0.930 . S
C662 C657 1.390 . S
C662 C661 1.387 . S
H663 C675 0.930 . S
H664 C677 0.930 . S
H665 C678 0.930 . S
H666 C682 0.959 . S
H667 C682 0.959 . S
H668 C682 0.961 . S
H669 C683 0.960 . S
H670 C683 0.961 . S
H671 C683 0.959 . S
H672 C686 0.929 . S
H673 C687 0.931 . S
H674 C689 0.930 . S
C675 H663 0.930 . S
C675 C676 1.399 . S
C675 C680 1.399 . S
C676 C675 1.399 . S
C676 C677 1.376 . S
C677 H664 0.930 . S
C677 C676 1.376 . S
C677 C678 1.388 . S
C678 H665 0.930 . S
C678 C677 1.388 . S
C678 C679 1.390 . S
C679 C678 1.390 . S
C679 C680 1.394 . S
C679 C685 1.465 . S
C680 C675 1.399 . S
C680 C679 1.394 . S
C680 C681 1.516 . S
C681 C680 1.516 . S
C681 C682 1.502 . S
C681 C683 1.561 . S
C681 C684 1.526 . S
C682 H666 0.959 . S
C682 H667 0.959 . S
C682 H668 0.961 . S
C682 C681 1.502 . S
C683 H669 0.960 . S
C683 H670 0.961 . S
C683 H671 0.959 . S
C683 C681 1.561 . S
C684 C681 1.526 . S
C684 C685 1.396 . S
C684 C689 1.390 . S
C685 C679 1.465 . S
C685 C684 1.396 . S
C685 C686 1.399 . S
C686 H672 0.929 . S
C686 C685 1.399 . S
C686 C687 1.385 . S
C687 H673 0.931 . S
C687 C686 1.385 . S
C687 C688 1.389 . S
C688 C687 1.389 . S
C688 C689 1.387 . S
C689 H674 0.930 . S
C689 C684 1.390 . S
C689 C688 1.387 . S
H690 C702 0.930 . S
H691 C704 0.930 . S
H692 C705 0.930 . S
H693 C709 0.959 . S
H694 C709 0.959 . S
H695 C709 0.961 . S
H696 C710 0.960 . S
H697 C710 0.961 . S
H698 C710 0.959 . S
H699 C713 0.929 . S
H700 C714 0.931 . S
H701 C716 0.930 . S
C702 H690 0.930 . S
C702 C703 1.399 . S
C702 C707 1.399 . S
C703 C702 1.399 . S
C703 C704 1.376 . S
C704 H691 0.930 . S
C704 C703 1.376 . S
C704 C705 1.388 . S
C705 H692 0.930 . S
C705 C704 1.388 . S
C705 C706 1.390 . S
C706 C705 1.390 . S
C706 C707 1.394 . S
C706 C712 1.465 . S
C707 C702 1.399 . S
C707 C706 1.394 . S
C707 C708 1.516 . S
C708 C707 1.516 . S
C708 C709 1.502 . S
C708 C710 1.561 . S
C708 C711 1.526 . S
C709 H693 0.959 . S
C709 H694 0.959 . S
C709 H695 0.961 . S
C709 C708 1.502 . S
C710 H696 0.960 . S
C710 H697 0.961 . S
C710 H698 0.959 . S
C710 C708 1.561 . S
C711 C708 1.526 . S
C711 C712 1.396 . S
C711 C716 1.390 . S
C712 C706 1.465 . S
C712 C711 1.396 . S
C712 C713 1.399 . S
C713 H699 0.929 . S
C713 C712 1.399 . S
C713 C714 1.385 . S
C714 H700 0.931 . S
C714 C713 1.385 . S
C714 C715 1.389 . S
C715 C714 1.389 . S
C715 C716 1.387 . S
C716 H701 0.930 . S
C716 C711 1.390 . S
C716 C715 1.387 . S
H717 C729 0.930 . S
H718 C731 0.930 . S
H719 C732 0.930 . S
H720 C736 0.959 . S
H721 C736 0.959 . S
H722 C736 0.961 . S
H723 C737 0.960 . S
H724 C737 0.961 . S
H725 C737 0.959 . S
H726 C740 0.929 . S
H727 C741 0.931 . S
H728 C743 0.930 . S
C729 H717 0.930 . S
C729 C730 1.399 . S
C729 C734 1.399 . S
C730 C729 1.399 . S
C730 C731 1.376 . S
C731 H718 0.930 . S
C731 C730 1.376 . S
C731 C732 1.388 . S
C732 H719 0.930 . S
C732 C731 1.388 . S
C732 C733 1.390 . S
C733 C732 1.390 . S
C733 C734 1.394 . S
C733 C739 1.465 . S
C734 C729 1.399 . S
C734 C733 1.394 . S
C734 C735 1.516 . S
C735 C734 1.516 . S
C735 C736 1.502 . S
C735 C737 1.561 . S
C735 C738 1.526 . S
C736 H720 0.959 . S
C736 H721 0.959 . S
C736 H722 0.961 . S
C736 C735 1.502 . S
C737 H723 0.960 . S
C737 H724 0.961 . S
C737 H725 0.959 . S
C737 C735 1.561 . S
C738 C735 1.526 . S
C738 C739 1.396 . S
C738 C743 1.390 . S
C739 C733 1.465 . S
C739 C738 1.396 . S
C739 C740 1.399 . S
C740 H726 0.929 . S
C740 C739 1.399 . S
C740 C741 1.385 . S
C741 H727 0.931 . S
C741 C740 1.385 . S
C741 C742 1.389 . S
C742 C741 1.389 . S
C742 C743 1.387 . S
C743 H728 0.930 . S
C743 C738 1.390 . S
C743 C742 1.387 . S
H744 C756 0.930 . S
H745 C758 0.930 . S
H746 C759 0.930 . S
H747 C763 0.959 . S
H748 C763 0.959 . S
H749 C763 0.961 . S
H750 C764 0.960 . S
H751 C764 0.961 . S
H752 C764 0.959 . S
H753 C767 0.929 . S
H754 C768 0.931 . S
H755 C770 0.930 . S
C756 H744 0.930 . S
C756 C757 1.399 . S
C756 C761 1.399 . S
C757 C756 1.399 . S
C757 C758 1.376 . S
C758 H745 0.930 . S
C758 C757 1.376 . S
C758 C759 1.388 . S
C759 H746 0.930 . S
C759 C758 1.388 . S
C759 C760 1.390 . S
C760 C759 1.390 . S
C760 C761 1.394 . S
C760 C766 1.465 . S
C761 C756 1.399 . S
C761 C760 1.394 . S
C761 C762 1.516 . S
C762 C761 1.516 . S
C762 C763 1.502 . S
C762 C764 1.561 . S
C762 C765 1.526 . S
C763 H747 0.959 . S
C763 H748 0.959 . S
C763 H749 0.961 . S
C763 C762 1.502 . S
C764 H750 0.960 . S
C764 H751 0.961 . S
C764 H752 0.959 . S
C764 C762 1.561 . S
C765 C762 1.526 . S
C765 C766 1.396 . S
C765 C770 1.390 . S
C766 C760 1.465 . S
C766 C765 1.396 . S
C766 C767 1.399 . S
C767 H753 0.929 . S
C767 C766 1.399 . S
C767 C768 1.385 . S
C768 H754 0.931 . S
C768 C767 1.385 . S
C768 C769 1.389 . S
C769 C768 1.389 . S
C769 C770 1.387 . S
C770 H755 0.930 . S
C770 C765 1.390 . S
C770 C769 1.387 . S
H771 C783 0.930 . S
H772 C785 0.930 . S
H773 C786 0.930 . S
H774 C790 0.959 . S
H775 C790 0.959 . S
H776 C790 0.961 . S
H777 C791 0.960 . S
H778 C791 0.961 . S
H779 C791 0.959 . S
H780 C794 0.929 . S
H781 C795 0.931 . S
H782 C797 0.930 . S
C783 H771 0.930 . S
C783 C784 1.399 . S
C783 C788 1.399 . S
C784 C783 1.399 . S
C784 C785 1.376 . S
C785 H772 0.930 . S
C785 C784 1.376 . S
C785 C786 1.388 . S
C786 H773 0.930 . S
C786 C785 1.388 . S
C786 C787 1.390 . S
C787 C786 1.390 . S
C787 C788 1.394 . S
C787 C793 1.465 . S
C788 C783 1.399 . S
C788 C787 1.394 . S
C788 C789 1.516 . S
C789 C788 1.516 . S
C789 C790 1.502 . S
C789 C791 1.561 . S
C789 C792 1.526 . S
C790 H774 0.959 . S
C790 H775 0.959 . S
C790 H776 0.961 . S
C790 C789 1.502 . S
C791 H777 0.960 . S
C791 H778 0.961 . S
C791 H779 0.959 . S
C791 C789 1.561 . S
C792 C789 1.526 . S
C792 C793 1.396 . S
C792 C797 1.390 . S
C793 C787 1.465 . S
C793 C792 1.396 . S
C793 C794 1.399 . S
C794 H780 0.929 . S
C794 C793 1.399 . S
C794 C795 1.385 . S
C795 H781 0.931 . S
C795 C794 1.385 . S
C795 C796 1.389 . S
C796 C795 1.389 . S
C796 C797 1.387 . S
C797 H782 0.930 . S
C797 C792 1.390 . S
C797 C796 1.387 . S
H798 C810 0.930 . S
H799 C812 0.930 . S
H800 C813 0.930 . S
H801 C817 0.959 . S
H802 C817 0.959 . S
H803 C817 0.961 . S
H804 C818 0.960 . S
H805 C818 0.961 . S
H806 C818 0.959 . S
H807 C821 0.929 . S
H808 C822 0.931 . S
H809 C824 0.930 . S
C810 H798 0.930 . S
C810 C811 1.399 . S
C810 C815 1.399 . S
C811 C810 1.399 . S
C811 C812 1.376 . S
C812 H799 0.930 . S
C812 C811 1.376 . S
C812 C813 1.388 . S
C813 H800 0.930 . S
C813 C812 1.388 . S
C813 C814 1.390 . S
C814 C813 1.390 . S
C814 C815 1.394 . S
C814 C820 1.465 . S
C815 C810 1.399 . S
C815 C814 1.394 . S
C815 C816 1.516 . S
C816 C815 1.516 . S
C816 C817 1.502 . S
C816 C818 1.561 . S
C816 C819 1.526 . S
C817 H801 0.959 . S
C817 H802 0.959 . S
C817 H803 0.961 . S
C817 C816 1.502 . S
C818 H804 0.960 . S
C818 H805 0.961 . S
C818 H806 0.959 . S
C818 C816 1.561 . S
C819 C816 1.526 . S
C819 C820 1.396 . S
C819 C824 1.390 . S
C820 C814 1.465 . S
C820 C819 1.396 . S
C820 C821 1.399 . S
C821 H807 0.929 . S
C821 C820 1.399 . S
C821 C822 1.385 . S
C822 H808 0.931 . S
C822 C821 1.385 . S
C822 C823 1.389 . S
C823 C822 1.389 . S
C823 C824 1.387 . S
C824 H809 0.930 . S
C824 C819 1.390 . S
C824 C823 1.387 . S
H825 C837 0.930 . S
H826 C839 0.930 . S
H827 C840 0.930 . S
H828 C844 0.959 . S
H829 C844 0.959 . S
H830 C844 0.961 . S
H831 C845 0.960 . S
H832 C845 0.961 . S
H833 C845 0.959 . S
H834 C848 0.929 . S
H835 C849 0.931 . S
H836 C851 0.930 . S
C837 H825 0.930 . S
C837 C838 1.399 . S
C837 C842 1.399 . S
C838 C837 1.399 . S
C838 C839 1.376 . S
C839 H826 0.930 . S
C839 C838 1.376 . S
C839 C840 1.388 . S
C840 H827 0.930 . S
C840 C839 1.388 . S
C840 C841 1.390 . S
C841 C840 1.390 . S
C841 C842 1.394 . S
C841 C847 1.465 . S
C842 C837 1.399 . S
C842 C841 1.394 . S
C842 C843 1.516 . S
C843 C842 1.516 . S
C843 C844 1.502 . S
C843 C845 1.561 . S
C843 C846 1.526 . S
C844 H828 0.959 . S
C844 H829 0.959 . S
C844 H830 0.961 . S
C844 C843 1.502 . S
C845 H831 0.960 . S
C845 H832 0.961 . S
C845 H833 0.959 . S
C845 C843 1.561 . S
C846 C843 1.526 . S
C846 C847 1.396 . S
C846 C851 1.390 . S
C847 C841 1.465 . S
C847 C846 1.396 . S
C847 C848 1.399 . S
C848 H834 0.929 . S
C848 C847 1.399 . S
C848 C849 1.385 . S
C849 H835 0.931 . S
C849 C848 1.385 . S
C849 C850 1.389 . S
C850 C849 1.389 . S
C850 C851 1.387 . S
C851 H836 0.930 . S
C851 C846 1.390 . S
C851 C850 1.387 . S
H852 C864 0.930 . S
H853 C866 0.930 . S
H854 C867 0.930 . S
H855 C871 0.959 . S
H856 C871 0.959 . S
H857 C871 0.961 . S
H858 C872 0.960 . S
H859 C872 0.961 . S
H860 C872 0.959 . S
H861 C875 0.929 . S
H862 C876 0.931 . S
H863 C878 0.930 . S
C864 H852 0.930 . S
C864 C865 1.399 . S
C864 C869 1.399 . S
C865 C864 1.399 . S
C865 C866 1.376 . S
C866 H853 0.930 . S
C866 C865 1.376 . S
C866 C867 1.388 . S
C867 H854 0.930 . S
C867 C866 1.388 . S
C867 C868 1.390 . S
C868 C867 1.390 . S
C868 C869 1.394 . S
C868 C874 1.465 . S
C869 C864 1.399 . S
C869 C868 1.394 . S
C869 C870 1.516 . S
C870 C869 1.516 . S
C870 C871 1.502 . S
C870 C872 1.561 . S
C870 C873 1.526 . S
C871 H855 0.959 . S
C871 H856 0.959 . S
C871 H857 0.961 . S
C871 C870 1.502 . S
C872 H858 0.960 . S
C872 H859 0.961 . S
C872 H860 0.959 . S
C872 C870 1.561 . S
C873 C870 1.526 . S
C873 C874 1.396 . S
C873 C878 1.390 . S
C874 C868 1.465 . S
C874 C873 1.396 . S
C874 C875 1.399 . S
C875 H861 0.929 . S
C875 C874 1.399 . S
C875 C876 1.385 . S
C876 H862 0.931 . S
C876 C875 1.385 . S
C876 C877 1.389 . S
C877 C876 1.389 . S
C877 C878 1.387 . S
C878 H863 0.930 . S
C878 C873 1.390 . S
C878 C877 1.387 . S
H879 C891 0.930 . S
H880 C893 0.930 . S
H881 C894 0.930 . S
H882 C898 0.959 . S
H883 C898 0.959 . S
H884 C898 0.961 . S
H885 C899 0.960 . S
H886 C899 0.961 . S
H887 C899 0.959 . S
H888 C902 0.929 . S
H889 C903 0.931 . S
H890 C905 0.930 . S
C891 H879 0.930 . S
C891 C892 1.399 . S
C891 C896 1.399 . S
C892 C891 1.399 . S
C892 C893 1.376 . S
C893 H880 0.930 . S
C893 C892 1.376 . S
C893 C894 1.388 . S
C894 H881 0.930 . S
C894 C893 1.388 . S
C894 C895 1.390 . S
C895 C894 1.390 . S
C895 C896 1.394 . S
C895 C901 1.465 . S
C896 C891 1.399 . S
C896 C895 1.394 . S
C896 C897 1.516 . S
C897 C896 1.516 . S
C897 C898 1.502 . S
C897 C899 1.561 . S
C897 C900 1.526 . S
C898 H882 0.959 . S
C898 H883 0.959 . S
C898 H884 0.961 . S
C898 C897 1.502 . S
C899 H885 0.960 . S
C899 H886 0.961 . S
C899 H887 0.959 . S
C899 C897 1.561 . S
C900 C897 1.526 . S
C900 C901 1.396 . S
C900 C905 1.390 . S
C901 C895 1.465 . S
C901 C900 1.396 . S
C901 C902 1.399 . S
C902 H888 0.929 . S
C902 C901 1.399 . S
C902 C903 1.385 . S
C903 H889 0.931 . S
C903 C902 1.385 . S
C903 C904 1.389 . S
C904 C903 1.389 . S
C904 C905 1.387 . S
C905 H890 0.930 . S
C905 C900 1.390 . S
C905 C904 1.387 . S
H906 C918 0.930 . S
H907 C920 0.930 . S
H908 C921 0.930 . S
H909 C925 0.959 . S
H910 C925 0.959 . S
H911 C925 0.961 . S
H912 C926 0.960 . S
H913 C926 0.961 . S
H914 C926 0.959 . S
H915 C929 0.929 . S
H916 C930 0.931 . S
H917 C932 0.930 . S
C918 H906 0.930 . S
C918 C919 1.399 . S
C918 C923 1.399 . S
C919 C918 1.399 . S
C919 C920 1.376 . S
C920 H907 0.930 . S
C920 C919 1.376 . S
C920 C921 1.388 . S
C921 H908 0.930 . S
C921 C920 1.388 . S
C921 C922 1.390 . S
C922 C921 1.390 . S
C922 C923 1.394 . S
C922 C928 1.465 . S
C923 C918 1.399 . S
C923 C922 1.394 . S
C923 C924 1.516 . S
C924 C923 1.516 . S
C924 C925 1.502 . S
C924 C926 1.561 . S
C924 C927 1.526 . S
C925 H909 0.959 . S
C925 H910 0.959 . S
C925 H911 0.961 . S
C925 C924 1.502 . S
C926 H912 0.960 . S
C926 H913 0.961 . S
C926 H914 0.959 . S
C926 C924 1.561 . S
C927 C924 1.526 . S
C927 C928 1.396 . S
C927 C932 1.390 . S
C928 C922 1.465 . S
C928 C927 1.396 . S
C928 C929 1.399 . S
C929 H915 0.929 . S
C929 C928 1.399 . S
C929 C930 1.385 . S
C930 H916 0.931 . S
C930 C929 1.385 . S
C930 C931 1.389 . S
C931 C930 1.389 . S
C931 C932 1.387 . S
C932 H917 0.930 . S
C932 C927 1.390 . S
C932 C931 1.387 . S
H933 C945 0.930 . S
H934 C947 0.930 . S
H935 C948 0.930 . S
H936 C952 0.959 . S
H937 C952 0.959 . S
H938 C952 0.961 . S
H939 C953 0.960 . S
H940 C953 0.961 . S
H941 C953 0.959 . S
H942 C956 0.929 . S
H943 C957 0.931 . S
H944 C959 0.930 . S
C945 H933 0.930 . S
C945 C946 1.399 . S
C945 C950 1.399 . S
C946 C945 1.399 . S
C946 C947 1.376 . S
C947 H934 0.930 . S
C947 C946 1.376 . S
C947 C948 1.388 . S
C948 H935 0.930 . S
C948 C947 1.388 . S
C948 C949 1.390 . S
C949 C948 1.390 . S
C949 C950 1.394 . S
C949 C955 1.465 . S
C950 C945 1.399 . S
C950 C949 1.394 . S
C950 C951 1.516 . S
C951 C950 1.516 . S
C951 C952 1.502 . S
C951 C953 1.561 . S
C951 C954 1.526 . S
C952 H936 0.959 . S
C952 H937 0.959 . S
C952 H938 0.961 . S
C952 C951 1.502 . S
C953 H939 0.960 . S
C953 H940 0.961 . S
C953 H941 0.959 . S
C953 C951 1.561 . S
C954 C951 1.526 . S
C954 C955 1.396 . S
C954 C959 1.390 . S
C955 C949 1.465 . S
C955 C954 1.396 . S
C955 C956 1.399 . S
C956 H942 0.929 . S
C956 C955 1.399 . S
C956 C957 1.385 . S
C957 H943 0.931 . S
C957 C956 1.385 . S
C957 C958 1.389 . S
C958 C957 1.389 . S
C958 C959 1.387 . S
C959 H944 0.930 . S
C959 C954 1.390 . S
C959 C958 1.387 . S
H960 C972 0.930 . S
H961 C974 0.930 . S
H962 C975 0.930 . S
H963 C979 0.959 . S
H964 C979 0.959 . S
H965 C979 0.961 . S
H966 C980 0.960 . S
H967 C980 0.961 . S
H968 C980 0.959 . S
H969 C983 0.929 . S
H970 C984 0.931 . S
H971 C986 0.930 . S
C972 H960 0.930 . S
C972 C973 1.399 . S
C972 C977 1.399 . S
C973 C972 1.399 . S
C973 C974 1.376 . S
C974 H961 0.930 . S
C974 C973 1.376 . S
C974 C975 1.388 . S
C975 H962 0.930 . S
C975 C974 1.388 . S
C975 C976 1.390 . S
C976 C975 1.390 . S
C976 C977 1.394 . S
C976 C982 1.465 . S
C977 C972 1.399 . S
C977 C976 1.394 . S
C977 C978 1.516 . S
C978 C977 1.516 . S
C978 C979 1.502 . S
C978 C980 1.561 . S
C978 C981 1.526 . S
C979 H963 0.959 . S
C979 H964 0.959 . S
C979 H965 0.961 . S
C979 C978 1.502 . S
C980 H966 0.960 . S
C980 H967 0.961 . S
C980 H968 0.959 . S
C980 C978 1.561 . S
C981 C978 1.526 . S
C981 C982 1.396 . S
C981 C986 1.390 . S
C982 C976 1.465 . S
C982 C981 1.396 . S
C982 C983 1.399 . S
C983 H969 0.929 . S
C983 C982 1.399 . S
C983 C984 1.385 . S
C984 H970 0.931 . S
C984 C983 1.385 . S
C984 C985 1.389 . S
C985 C984 1.389 . S
C985 C986 1.387 . S
C986 H971 0.930 . S
C986 C981 1.390 . S
C986 C985 1.387 . S
H987 C999 0.930 . S
H988 C1001 0.930 . S
H989 C1002 0.930 . S
H990 C1006 0.959 . S
H991 C1006 0.959 . S
H992 C1006 0.961 . S
H993 C1007 0.960 . S
H994 C1007 0.961 . S
H995 C1007 0.959 . S
H996 C1010 0.929 . S
H997 C1011 0.931 . S
H998 C1013 0.930 . S
C999 H987 0.930 . S
C999 C1000 1.399 . S
C999 C1004 1.399 . S
C1000 C999 1.399 . S
C1000 C1001 1.376 . S
C1001 H988 0.930 . S
C1001 C1000 1.376 . S
C1001 C1002 1.388 . S
C1002 H989 0.930 . S
C1002 C1001 1.388 . S
C1002 C1003 1.390 . S
C1003 C1002 1.390 . S
C1003 C1004 1.394 . S
C1003 C1009 1.465 . S
C1004 C999 1.399 . S
C1004 C1003 1.394 . S
C1004 C1005 1.516 . S
C1005 C1004 1.516 . S
C1005 C1006 1.502 . S
C1005 C1007 1.561 . S
C1005 C1008 1.526 . S
C1006 H990 0.959 . S
C1006 H991 0.959 . S
C1006 H992 0.961 . S
C1006 C1005 1.502 . S
C1007 H993 0.960 . S
C1007 H994 0.961 . S
C1007 H995 0.959 . S
C1007 C1005 1.561 . S
C1008 C1005 1.526 . S
C1008 C1009 1.396 . S
C1008 C1013 1.390 . S
C1009 C1003 1.465 . S
C1009 C1008 1.396 . S
C1009 C1010 1.399 . S
C1010 H996 0.929 . S
C1010 C1009 1.399 . S
C1010 C1011 1.385 . S
C1011 H997 0.931 . S
C1011 C1010 1.385 . S
C1011 C1012 1.389 . S
C1012 C1011 1.389 . S
C1012 C1013 1.387 . S
C1013 H998 0.930 . S
C1013 C1008 1.390 . S
C1013 C1012 1.387 . S
H1014 C1026 0.930 . S
H1015 C1028 0.930 . S
H1016 C1029 0.930 . S
H1017 C1033 0.959 . S
H1018 C1033 0.959 . S
H1019 C1033 0.961 . S
H1020 C1034 0.960 . S
H1021 C1034 0.961 . S
H1022 C1034 0.959 . S
H1023 C1037 0.929 . S
H1024 C1038 0.931 . S
H1025 C1040 0.930 . S
C1026 H1014 0.930 . S
C1026 C1027 1.399 . S
C1026 C1031 1.399 . S
C1027 C1026 1.399 . S
C1027 C1028 1.376 . S
C1028 H1015 0.930 . S
C1028 C1027 1.376 . S
C1028 C1029 1.388 . S
C1029 H1016 0.930 . S
C1029 C1028 1.388 . S
C1029 C1030 1.390 . S
C1030 C1029 1.390 . S
C1030 C1031 1.394 . S
C1030 C1036 1.465 . S
C1031 C1026 1.399 . S
C1031 C1030 1.394 . S
C1031 C1032 1.516 . S
C1032 C1031 1.516 . S
C1032 C1033 1.502 . S
C1032 C1034 1.561 . S
C1032 C1035 1.526 . S
C1033 H1017 0.959 . S
C1033 H1018 0.959 . S
C1033 H1019 0.961 . S
C1033 C1032 1.502 . S
C1034 H1020 0.960 . S
C1034 H1021 0.961 . S
C1034 H1022 0.959 . S
C1034 C1032 1.561 . S
C1035 C1032 1.526 . S
C1035 C1036 1.396 . S
C1035 C1040 1.390 . S
C1036 C1030 1.465 . S
C1036 C1035 1.396 . S
C1036 C1037 1.399 . S
C1037 H1023 0.929 . S
C1037 C1036 1.399 . S
C1037 C1038 1.385 . S
C1038 H1024 0.931 . S
C1038 C1037 1.385 . S
C1038 C1039 1.389 . S
C1039 C1038 1.389 . S
C1039 C1040 1.387 . S
C1040 H1025 0.930 . S
C1040 C1035 1.390 . S
C1040 C1039 1.387 . S
H1041 C1053 0.930 . S
H1042 C1055 0.930 . S
H1043 C1056 0.930 . S
H1044 C1060 0.959 . S
H1045 C1060 0.959 . S
H1046 C1060 0.961 . S
H1047 C1061 0.960 . S
H1048 C1061 0.961 . S
H1049 C1061 0.959 . S
H1050 C1064 0.929 . S
H1051 C1065 0.931 . S
H1052 C1067 0.930 . S
C1053 H1041 0.930 . S
C1053 C1054 1.399 . S
C1053 C1058 1.399 . S
C1054 C1053 1.399 . S
C1054 C1055 1.376 . S
C1055 H1042 0.930 . S
C1055 C1054 1.376 . S
C1055 C1056 1.388 . S
C1056 H1043 0.930 . S
C1056 C1055 1.388 . S
C1056 C1057 1.390 . S
C1057 C1056 1.390 . S
C1057 C1058 1.394 . S
C1057 C1063 1.465 . S
C1058 C1053 1.399 . S
C1058 C1057 1.394 . S
C1058 C1059 1.516 . S
C1059 C1058 1.516 . S
C1059 C1060 1.502 . S
C1059 C1061 1.561 . S
C1059 C1062 1.526 . S
C1060 H1044 0.959 . S
C1060 H1045 0.959 . S
C1060 H1046 0.961 . S
C1060 C1059 1.502 . S
C1061 H1047 0.960 . S
C1061 H1048 0.961 . S
C1061 H1049 0.959 . S
C1061 C1059 1.561 . S
C1062 C1059 1.526 . S
C1062 C1063 1.396 . S
C1062 C1067 1.390 . S
C1063 C1057 1.465 . S
C1063 C1062 1.396 . S
C1063 C1064 1.399 . S
C1064 H1050 0.929 . S
C1064 C1063 1.399 . S
C1064 C1065 1.385 . S
C1065 H1051 0.931 . S
C1065 C1064 1.385 . S
C1065 C1066 1.389 . S
C1066 C1065 1.389 . S
C1066 C1067 1.387 . S
C1067 H1052 0.930 . S
C1067 C1062 1.390 . S
C1067 C1066 1.387 . S
H1068 C1080 0.930 . S
H1069 C1082 0.930 . S
H1070 C1083 0.930 . S
H1071 C1087 0.959 . S
H1072 C1087 0.959 . S
H1073 C1087 0.961 . S
H1074 C1088 0.960 . S
H1075 C1088 0.961 . S
H1076 C1088 0.959 . S
H1077 C1091 0.929 . S
H1078 C1092 0.931 . S
H1079 C1094 0.930 . S
C1080 H1068 0.930 . S
C1080 C1081 1.399 . S
C1080 C1085 1.399 . S
C1081 C1080 1.399 . S
C1081 C1082 1.376 . S
C1082 H1069 0.930 . S
C1082 C1081 1.376 . S
C1082 C1083 1.388 . S
C1083 H1070 0.930 . S
C1083 C1082 1.388 . S
C1083 C1084 1.390 . S
C1084 C1083 1.390 . S
C1084 C1085 1.394 . S
C1084 C1090 1.465 . S
C1085 C1080 1.399 . S
C1085 C1084 1.394 . S
C1085 C1086 1.516 . S
C1086 C1085 1.516 . S
C1086 C1087 1.502 . S
C1086 C1088 1.561 . S
C1086 C1089 1.526 . S
C1087 H1071 0.959 . S
C1087 H1072 0.959 . S
C1087 H1073 0.961 . S
C1087 C1086 1.502 . S
C1088 H1074 0.960 . S
C1088 H1075 0.961 . S
C1088 H1076 0.959 . S
C1088 C1086 1.561 . S
C1089 C1086 1.526 . S
C1089 C1090 1.396 . S
C1089 C1094 1.390 . S
C1090 C1084 1.465 . S
C1090 C1089 1.396 . S
C1090 C1091 1.399 . S
C1091 H1077 0.929 . S
C1091 C1090 1.399 . S
C1091 C1092 1.385 . S
C1092 H1078 0.931 . S
C1092 C1091 1.385 . S
C1092 C1093 1.389 . S
C1093 C1092 1.389 . S
C1093 C1094 1.387 . S
C1094 H1079 0.930 . S
C1094 C1089 1.390 . S
C1094 C1093 1.387 . S
H1095 C1107 0.930 . S
H1096 C1109 0.930 . S
H1097 C1110 0.930 . S
H1098 C1114 0.959 . S
H1099 C1114 0.959 . S
H1100 C1114 0.961 . S
H1101 C1115 0.960 . S
H1102 C1115 0.961 . S
H1103 C1115 0.959 . S
H1104 C1118 0.929 . S
H1105 C1119 0.931 . S
H1106 C1121 0.930 . S
C1107 H1095 0.930 . S
C1107 C1108 1.399 . S
C1107 C1112 1.399 . S
C1108 C1107 1.399 . S
C1108 C1109 1.376 . S
C1109 H1096 0.930 . S
C1109 C1108 1.376 . S
C1109 C1110 1.388 . S
C1110 H1097 0.930 . S
C1110 C1109 1.388 . S
C1110 C1111 1.390 . S
C1111 C1110 1.390 . S
C1111 C1112 1.394 . S
C1111 C1117 1.465 . S
C1112 C1107 1.399 . S
C1112 C1111 1.394 . S
C1112 C1113 1.516 . S
C1113 C1112 1.516 . S
C1113 C1114 1.502 . S
C1113 C1115 1.561 . S
C1113 C1116 1.526 . S
C1114 H1098 0.959 . S
C1114 H1099 0.959 . S
C1114 H1100 0.961 . S
C1114 C1113 1.502 . S
C1115 H1101 0.960 . S
C1115 H1102 0.961 . S
C1115 H1103 0.959 . S
C1115 C1113 1.561 . S
C1116 C1113 1.526 . S
C1116 C1117 1.396 . S
C1116 C1121 1.390 . S
C1117 C1111 1.465 . S
C1117 C1116 1.396 . S
C1117 C1118 1.399 . S
C1118 H1104 0.929 . S
C1118 C1117 1.399 . S
C1118 C1119 1.385 . S
C1119 H1105 0.931 . S
C1119 C1118 1.385 . S
C1119 C1120 1.389 . S
C1120 C1119 1.389 . S
C1120 C1121 1.387 . S
C1121 H1106 0.930 . S
C1121 C1116 1.390 . S
C1121 C1120 1.387 . S
H1122 C1134 0.930 . S
H1123 C1136 0.930 . S
H1124 C1137 0.930 . S
H1125 C1141 0.959 . S
H1126 C1141 0.959 . S
H1127 C1141 0.961 . S
H1128 C1142 0.960 . S
H1129 C1142 0.961 . S
H1130 C1142 0.959 . S
H1131 C1145 0.929 . S
H1132 C1146 0.931 . S
H1133 C1148 0.930 . S
C1134 H1122 0.930 . S
C1134 C1135 1.399 . S
C1134 C1139 1.399 . S
C1135 C1134 1.399 . S
C1135 C1136 1.376 . S
C1136 H1123 0.930 . S
C1136 C1135 1.376 . S
C1136 C1137 1.388 . S
C1137 H1124 0.930 . S
C1137 C1136 1.388 . S
C1137 C1138 1.390 . S
C1138 C1137 1.390 . S
C1138 C1139 1.394 . S
C1138 C1144 1.465 . S
C1139 C1134 1.399 . S
C1139 C1138 1.394 . S
C1139 C1140 1.516 . S
C1140 C1139 1.516 . S
C1140 C1141 1.502 . S
C1140 C1142 1.561 . S
C1140 C1143 1.526 . S
C1141 H1125 0.959 . S
C1141 H1126 0.959 . S
C1141 H1127 0.961 . S
C1141 C1140 1.502 . S
C1142 H1128 0.960 . S
C1142 H1129 0.961 . S
C1142 H1130 0.959 . S
C1142 C1140 1.561 . S
C1143 C1140 1.526 . S
C1143 C1144 1.396 . S
C1143 C1148 1.390 . S
C1144 C1138 1.465 . S
C1144 C1143 1.396 . S
C1144 C1145 1.399 . S
C1145 H1131 0.929 . S
C1145 C1144 1.399 . S
C1145 C1146 1.385 . S
C1146 H1132 0.931 . S
C1146 C1145 1.385 . S
C1146 C1147 1.389 . S
C1147 C1146 1.389 . S
C1147 C1148 1.387 . S
C1148 H1133 0.930 . S
C1148 C1143 1.390 . S
C1148 C1147 1.387 . S
H1149 C1161 0.930 . S
H1150 C1163 0.930 . S
H1151 C1164 0.930 . S
H1152 C1168 0.959 . S
H1153 C1168 0.959 . S
H1154 C1168 0.961 . S
H1155 C1169 0.960 . S
H1156 C1169 0.961 . S
H1157 C1169 0.959 . S
H1158 C1172 0.929 . S
H1159 C1173 0.931 . S
H1160 C1175 0.930 . S
C1161 H1149 0.930 . S
C1161 C1162 1.399 . S
C1161 C1166 1.399 . S
C1162 C1161 1.399 . S
C1162 C1163 1.376 . S
C1163 H1150 0.930 . S
C1163 C1162 1.376 . S
C1163 C1164 1.388 . S
C1164 H1151 0.930 . S
C1164 C1163 1.388 . S
C1164 C1165 1.390 . S
C1165 C1164 1.390 . S
C1165 C1166 1.394 . S
C1165 C1171 1.465 . S
C1166 C1161 1.399 . S
C1166 C1165 1.394 . S
C1166 C1167 1.516 . S
C1167 C1166 1.516 . S
C1167 C1168 1.502 . S
C1167 C1169 1.561 . S
C1167 C1170 1.526 . S
C1168 H1152 0.959 . S
C1168 H1153 0.959 . S
C1168 H1154 0.961 . S
C1168 C1167 1.502 . S
C1169 H1155 0.960 . S
C1169 H1156 0.961 . S
C1169 H1157 0.959 . S
C1169 C1167 1.561 . S
C1170 C1167 1.526 . S
C1170 C1171 1.396 . S
C1170 C1175 1.390 . S
C1171 C1165 1.465 . S
C1171 C1170 1.396 . S
C1171 C1172 1.399 . S
C1172 H1158 0.929 . S
C1172 C1171 1.399 . S
C1172 C1173 1.385 . S
C1173 H1159 0.931 . S
C1173 C1172 1.385 . S
C1173 C1174 1.389 . S
C1174 C1173 1.389 . S
C1174 C1175 1.387 . S
C1175 H1160 0.930 . S
C1175 C1170 1.390 . S
C1175 C1174 1.387 . S
H1176 C1188 0.930 . S
H1177 C1190 0.930 . S
H1178 C1191 0.930 . S
H1179 C1195 0.959 . S
H1180 C1195 0.959 . S
H1181 C1195 0.961 . S
H1182 C1196 0.960 . S
H1183 C1196 0.961 . S
H1184 C1196 0.959 1_455 S
H1185 C1199 0.929 . S
H1186 C1200 0.931 . S
H1187 C1202 0.930 . S
C1188 H1176 0.930 . S
C1188 C1189 1.399 1_655 S
C1188 C1193 1.399 . S
C1189 C1188 1.399 1_455 S
C1189 C1190 1.376 . S
C1190 H1177 0.930 . S
C1190 C1189 1.376 . S
C1190 C1191 1.388 . S
C1191 H1178 0.930 . S
C1191 C1190 1.388 . S
C1191 C1192 1.390 . S
C1192 C1191 1.390 . S
C1192 C1193 1.394 1_455 S
C1192 C1198 1.465 . S
C1193 C1188 1.399 . S
C1193 C1192 1.394 1_655 S
C1193 C1194 1.516 . S
C1194 C1193 1.516 . S
C1194 C1195 1.502 . S
C1194 C1196 1.561 . S
C1194 C1197 1.526 . S
C1195 H1179 0.959 . S
C1195 H1180 0.959 . S
C1195 H1181 0.961 . S
C1195 C1194 1.502 . S
C1196 H1182 0.960 . S
C1196 H1183 0.961 . S
C1196 H1184 0.959 1_655 S
C1196 C1194 1.561 . S
C1197 C1194 1.526 . S
C1197 C1198 1.396 1_655 S
C1197 C1202 1.390 . S
C1198 C1192 1.465 . S
C1198 C1197 1.396 1_455 S
C1198 C1199 1.399 . S
C1199 H1185 0.929 . S
C1199 C1198 1.399 . S
C1199 C1200 1.385 . S
C1200 H1186 0.931 . S
C1200 C1199 1.385 . S
C1200 C1201 1.389 1_455 S
C1201 C1200 1.389 1_655 S
C1201 C1202 1.387 . S
C1202 H1187 0.930 . S
C1202 C1197 1.390 . S
C1202 C1201 1.387 . S
H1203 C1215 0.930 . S
H1204 C1217 0.930 . S
H1205 C1218 0.930 . S
H1206 C1222 0.959 . S
H1207 C1222 0.959 . S
H1208 C1222 0.961 . S
H1209 C1223 0.960 . S
H1210 C1223 0.961 . S
H1211 C1223 0.959 . S
H1212 C1226 0.929 . S
H1213 C1227 0.931 . S
H1214 C1229 0.930 . S
C1215 H1203 0.930 . S
C1215 C1216 1.399 1_455 S
C1215 C1220 1.399 1_455 S
C1216 C1215 1.399 1_655 S
C1216 C1217 1.376 . S
C1217 H1204 0.930 . S
C1217 C1216 1.376 . S
C1217 C1218 1.388 . S
C1218 H1205 0.930 . S
C1218 C1217 1.388 . S
C1218 C1219 1.390 . S
C1219 C1218 1.390 . S
C1219 C1220 1.394 . S
C1219 C1225 1.465 . S
C1220 C1215 1.399 1_655 S
C1220 C1219 1.394 . S
C1220 C1221 1.519 . S
C1221 C1220 1.519 . S
C1221 C1222 1.467 1_655 S
C1221 C1223 1.590 . S
C1221 C1224 1.534 . S
C1222 H1206 0.959 . S
C1222 H1207 0.959 . S
C1222 H1208 0.961 . S
C1222 C1221 1.467 1_455 S
C1223 H1209 0.960 . S
C1223 H1210 0.961 . S
C1223 H1211 0.959 . S
C1223 C1221 1.590 . S
C1224 C1221 1.534 . S
C1224 C1225 1.396 . S
C1224 C1229 1.390 . S
C1225 C1219 1.465 . S
C1225 C1224 1.396 . S
C1225 C1226 1.399 . S
C1226 H1212 0.929 . S
C1226 C1225 1.399 . S
C1226 C1227 1.385 . S
C1227 H1213 0.931 . S
C1227 C1226 1.385 . S
C1227 C1228 1.389 . S
C1228 C1227 1.389 . S
C1228 C1229 1.387 . S
C1229 H1214 0.930 . S
C1229 C1224 1.390 . S
C1229 C1228 1.387 . S
H1230 C1242 0.930 . S
H1231 C1244 0.930 . S
H1232 C1245 0.930 . S
H1233 C1249 0.959 . S
H1234 C1249 0.959 . S
H1235 C1249 0.961 . S
H1236 C1250 0.960 . S
H1237 C1250 0.961 . S
H1238 C1250 0.959 . S
H1239 C1253 0.929 . S
H1240 C1254 0.931 . S
H1241 C1256 0.930 . S
C1242 H1230 0.930 . S
C1242 C1243 1.399 . S
C1242 C1247 1.399 . S
C1243 C1242 1.399 . S
C1243 C1244 1.376 . S
C1244 H1231 0.930 . S
C1244 C1243 1.376 . S
C1244 C1245 1.388 . S
C1245 H1232 0.930 . S
C1245 C1244 1.388 . S
C1245 C1246 1.390 . S
C1246 C1245 1.390 . S
C1246 C1247 1.394 . S
C1246 C1252 1.465 . S
C1247 C1242 1.399 . S
C1247 C1246 1.394 . S
C1247 C1248 1.516 . S
C1248 C1247 1.516 . S
C1248 C1249 1.502 . S
C1248 C1250 1.561 . S
C1248 C1251 1.526 . S
C1249 H1233 0.959 . S
C1249 H1234 0.959 . S
C1249 H1235 0.961 . S
C1249 C1248 1.502 . S
C1250 H1236 0.960 . S
C1250 H1237 0.961 . S
C1250 H1238 0.959 . S
C1250 C1248 1.561 . S
C1251 C1248 1.526 . S
C1251 C1252 1.396 . S
C1251 C1256 1.390 . S
C1252 C1246 1.465 . S
C1252 C1251 1.396 . S
C1252 C1253 1.399 . S
C1253 H1239 0.929 . S
C1253 C1252 1.399 . S
C1253 C1254 1.385 . S
C1254 H1240 0.931 . S
C1254 C1253 1.385 . S
C1254 C1255 1.389 . S
C1255 C1254 1.389 . S
C1255 C1256 1.387 . S
C1256 H1241 0.930 . S
C1256 C1251 1.390 . S
C1256 C1255 1.387 . S
H1257 C1269 0.930 . S
H1258 C1271 0.930 . S
H1259 C1272 0.930 . S
H1260 C1276 0.959 . S
H1261 C1276 0.959 . S
H1262 C1276 0.961 . S
H1263 C1277 0.960 . S
H1264 C1277 0.961 . S
H1265 C1277 0.959 . S
H1266 C1280 0.929 . S
H1267 C1281 0.931 . S
H1268 C1283 0.930 . S
C1269 H1257 0.930 . S
C1269 C1270 1.399 . S
C1269 C1274 1.399 . S
C1270 C1269 1.399 . S
C1270 C1271 1.376 . S
C1271 H1258 0.930 . S
C1271 C1270 1.376 . S
C1271 C1272 1.388 . S
C1272 H1259 0.930 . S
C1272 C1271 1.388 . S
C1272 C1273 1.390 . S
C1273 C1272 1.390 . S
C1273 C1274 1.394 . S
C1273 C1279 1.465 . S
C1274 C1269 1.399 . S
C1274 C1273 1.394 . S
C1274 C1275 1.516 . S
C1275 C1274 1.516 . S
C1275 C1276 1.502 . S
C1275 C1277 1.561 . S
C1275 C1278 1.526 . S
C1276 H1260 0.959 . S
C1276 H1261 0.959 . S
C1276 H1262 0.961 . S
C1276 C1275 1.502 . S
C1277 H1263 0.960 . S
C1277 H1264 0.961 . S
C1277 H1265 0.959 . S
C1277 C1275 1.561 . S
C1278 C1275 1.526 . S
C1278 C1279 1.396 . S
C1278 C1283 1.390 . S
C1279 C1273 1.465 . S
C1279 C1278 1.396 . S
C1279 C1280 1.399 . S
C1280 H1266 0.929 . S
C1280 C1279 1.399 . S
C1280 C1281 1.385 . S
C1281 H1267 0.931 . S
C1281 C1280 1.385 . S
C1281 C1282 1.389 . S
C1282 C1281 1.389 . S
C1282 C1283 1.387 . S
C1283 H1268 0.930 . S
C1283 C1278 1.390 . S
C1283 C1282 1.387 . S
H1284 C1296 0.930 . S
H1285 C1298 0.930 . S
H1286 C1299 0.930 . S
H1287 C1303 0.959 . S
H1288 C1303 0.959 . S
H1289 C1303 0.961 . S
H1290 C1304 0.960 . S
H1291 C1304 0.961 . S
H1292 C1304 0.959 . S
H1293 C1307 0.929 . S
H1294 C1308 0.931 . S
H1295 C1310 0.930 . S
C1296 H1284 0.930 . S
C1296 C1297 1.399 1_545 S
C1296 C1301 1.399 . S
C1297 C1296 1.399 1_565 S
C1297 C1298 1.376 . S
C1298 H1285 0.930 . S
C1298 C1297 1.376 . S
C1298 C1299 1.388 . S
C1299 H1286 0.930 . S
C1299 C1298 1.388 . S
C1299 C1300 1.390 . S
C1300 C1299 1.390 . S
C1300 C1301 1.394 1_565 S
C1300 C1306 1.465 . S
C1301 C1296 1.399 . S
C1301 C1300 1.394 1_545 S
C1301 C1302 1.516 . S
C1302 C1301 1.516 . S
C1302 C1303 1.502 . S
C1302 C1304 1.561 . S
C1302 C1305 1.526 . S
C1303 H1287 0.959 . S
C1303 H1288 0.959 . S
C1303 H1289 0.961 . S
C1303 C1302 1.502 . S
C1304 H1290 0.960 . S
C1304 H1291 0.961 . S
C1304 H1292 0.959 . S
C1304 C1302 1.561 . S
C1305 C1302 1.526 . S
C1305 C1306 1.396 1_545 S
C1305 C1310 1.390 . S
C1306 C1300 1.465 . S
C1306 C1305 1.396 1_565 S
C1306 C1307 1.399 . S
C1307 H1293 0.929 . S
C1307 C1306 1.399 . S
C1307 C1308 1.385 . S
C1308 H1294 0.931 . S
C1308 C1307 1.385 . S
C1308 C1309 1.389 . S
C1309 C1308 1.389 . S
C1309 C1310 1.387 1_565 S
C1310 H1295 0.930 . S
C1310 C1305 1.390 . S
C1310 C1309 1.387 1_545 S
H1311 C1323 0.930 . S
H1312 C1325 0.930 . S
H1313 C1326 0.930 . S
H1314 C1330 0.959 . S
H1315 C1330 0.959 . S
H1316 C1330 0.961 . S
H1317 C1331 0.960 . S
H1318 C1331 0.961 . S
H1319 C1331 0.959 . S
H1320 C1334 0.929 . S
H1321 C1335 0.931 . S
H1322 C1337 0.930 . S
C1323 H1311 0.930 . S
C1323 C1324 1.399 . S
C1323 C1328 1.399 . S
C1324 C1323 1.399 . S
C1324 C1325 1.376 . S
C1325 H1312 0.930 . S
C1325 C1324 1.376 . S
C1325 C1326 1.388 . S
C1326 H1313 0.930 . S
C1326 C1325 1.388 . S
C1326 C1327 1.390 . S
C1327 C1326 1.390 . S
C1327 C1328 1.394 . S
C1327 C1333 1.465 . S
C1328 C1323 1.399 . S
C1328 C1327 1.394 . S
C1328 C1329 1.516 . S
C1329 C1328 1.516 . S
C1329 C1330 1.502 . S
C1329 C1331 1.561 . S
C1329 C1332 1.526 . S
C1330 H1314 0.959 . S
C1330 H1315 0.959 . S
C1330 H1316 0.961 . S
C1330 C1329 1.502 . S
C1331 H1317 0.960 . S
C1331 H1318 0.961 . S
C1331 H1319 0.959 . S
C1331 C1329 1.561 . S
C1332 C1329 1.526 . S
C1332 C1333 1.396 . S
C1332 C1337 1.390 . S
C1333 C1327 1.465 . S
C1333 C1332 1.396 . S
C1333 C1334 1.399 . S
C1334 H1320 0.929 . S
C1334 C1333 1.399 . S
C1334 C1335 1.385 . S
C1335 H1321 0.931 . S
C1335 C1334 1.385 . S
C1335 C1336 1.389 . S
C1336 C1335 1.389 . S
C1336 C1337 1.387 . S
C1337 H1322 0.930 . S
C1337 C1332 1.390 . S
C1337 C1336 1.387 . S
H1338 C1350 0.930 . S
H1339 C1352 0.930 . S
H1340 C1353 0.930 . S
H1341 C1357 0.959 . S
H1342 C1357 0.959 . S
H1343 C1357 0.961 . S
H1344 C1358 0.960 . S
H1345 C1358 0.961 . S
H1346 C1358 0.959 . S
H1347 C1361 0.929 . S
H1348 C1362 0.931 . S
H1349 C1364 0.930 . S
C1350 H1338 0.930 . S
C1350 C1351 1.399 . S
C1350 C1355 1.399 . S
C1351 C1350 1.399 . S
C1351 C1352 1.376 . S
C1352 H1339 0.930 . S
C1352 C1351 1.376 . S
C1352 C1353 1.388 . S
C1353 H1340 0.930 . S
C1353 C1352 1.388 . S
C1353 C1354 1.390 . S
C1354 C1353 1.390 . S
C1354 C1355 1.394 . S
C1354 C1360 1.465 . S
C1355 C1350 1.399 . S
C1355 C1354 1.394 . S
C1355 C1356 1.516 . S
C1356 C1355 1.516 . S
C1356 C1357 1.502 . S
C1356 C1358 1.561 . S
C1356 C1359 1.526 . S
C1357 H1341 0.959 . S
C1357 H1342 0.959 . S
C1357 H1343 0.961 . S
C1357 C1356 1.502 . S
C1358 H1344 0.960 . S
C1358 H1345 0.961 . S
C1358 H1346 0.959 . S
C1358 C1356 1.561 . S
C1359 C1356 1.526 . S
C1359 C1360 1.396 . S
C1359 C1364 1.390 . S
C1360 C1354 1.465 . S
C1360 C1359 1.396 . S
C1360 C1361 1.399 . S
C1361 H1347 0.929 . S
C1361 C1360 1.399 . S
C1361 C1362 1.385 . S
C1362 H1348 0.931 . S
C1362 C1361 1.385 . S
C1362 C1363 1.389 . S
C1363 C1362 1.389 . S
C1363 C1364 1.387 . S
C1364 H1349 0.930 . S
C1364 C1359 1.390 . S
C1364 C1363 1.387 . S
H1365 C1377 0.930 . S
H1366 C1379 0.930 . S
H1367 C1380 0.930 . S
H1368 C1384 0.959 . S
H1369 C1384 0.959 . S
H1370 C1384 0.961 . S
H1371 C1385 0.960 . S
H1372 C1385 0.961 . S
H1373 C1385 0.959 . S
H1374 C1388 0.929 . S
H1375 C1389 0.931 . S
H1376 C1391 0.930 . S
C1377 H1365 0.930 . S
C1377 C1378 1.399 . S
C1377 C1382 1.399 . S
C1378 C1377 1.399 . S
C1378 C1379 1.376 . S
C1379 H1366 0.930 . S
C1379 C1378 1.376 . S
C1379 C1380 1.388 . S
C1380 H1367 0.930 . S
C1380 C1379 1.388 . S
C1380 C1381 1.390 . S
C1381 C1380 1.390 . S
C1381 C1382 1.394 . S
C1381 C1387 1.465 . S
C1382 C1377 1.399 . S
C1382 C1381 1.394 . S
C1382 C1383 1.516 . S
C1383 C1382 1.516 . S
C1383 C1384 1.502 . S
C1383 C1385 1.561 . S
C1383 C1386 1.526 . S
C1384 H1368 0.959 . S
C1384 H1369 0.959 . S
C1384 H1370 0.961 . S
C1384 C1383 1.502 . S
C1385 H1371 0.960 . S
C1385 H1372 0.961 . S
C1385 H1373 0.959 . S
C1385 C1383 1.561 . S
C1386 C1383 1.526 . S
C1386 C1387 1.396 . S
C1386 C1391 1.390 . S
C1387 C1381 1.465 . S
C1387 C1386 1.396 . S
C1387 C1388 1.399 . S
C1388 H1374 0.929 . S
C1388 C1387 1.399 . S
C1388 C1389 1.385 . S
C1389 H1375 0.931 . S
C1389 C1388 1.385 . S
C1389 C1390 1.389 . S
C1390 C1389 1.389 . S
C1390 C1391 1.387 . S
C1391 H1376 0.930 . S
C1391 C1386 1.390 . S
C1391 C1390 1.387 . S
H1392 C1404 0.930 . S
H1393 C1406 0.930 . S
H1394 C1407 0.930 . S
H1395 C1411 0.959 . S
H1396 C1411 0.959 . S
H1397 C1411 0.961 . S
H1398 C1412 0.960 . S
H1399 C1412 0.961 . S
H1400 C1412 0.959 . S
H1401 C1415 0.929 . S
H1402 C1416 0.931 . S
H1403 C1418 0.930 . S
C1404 H1392 0.930 . S
C1404 C1405 1.399 . S
C1404 C1409 1.399 . S
C1405 C1404 1.399 . S
C1405 C1406 1.376 . S
C1406 H1393 0.930 . S
C1406 C1405 1.376 . S
C1406 C1407 1.388 . S
C1407 H1394 0.930 . S
C1407 C1406 1.388 . S
C1407 C1408 1.390 . S
C1408 C1407 1.390 . S
C1408 C1409 1.394 . S
C1408 C1414 1.465 . S
C1409 C1404 1.399 . S
C1409 C1408 1.394 . S
C1409 C1410 1.516 . S
C1410 C1409 1.516 . S
C1410 C1411 1.502 . S
C1410 C1412 1.561 . S
C1410 C1413 1.526 . S
C1411 H1395 0.959 . S
C1411 H1396 0.959 . S
C1411 H1397 0.961 . S
C1411 C1410 1.502 . S
C1412 H1398 0.960 . S
C1412 H1399 0.961 . S
C1412 H1400 0.959 . S
C1412 C1410 1.561 . S
C1413 C1410 1.526 . S
C1413 C1414 1.396 . S
C1413 C1418 1.390 . S
C1414 C1408 1.465 . S
C1414 C1413 1.396 . S
C1414 C1415 1.399 . S
C1415 H1401 0.929 . S
C1415 C1414 1.399 . S
C1415 C1416 1.385 . S
C1416 H1402 0.931 . S
C1416 C1415 1.385 . S
C1416 C1417 1.389 . S
C1417 C1416 1.389 . S
C1417 C1418 1.387 . S
C1418 H1403 0.930 . S
C1418 C1413 1.390 . S
C1418 C1417 1.387 . S
H1419 C1431 0.930 . S
H1420 C1433 0.930 . S
H1421 C1434 0.930 . S
H1422 C1438 0.959 . S
H1423 C1438 0.959 . S
H1424 C1438 0.961 . S
H1425 C1439 0.960 . S
H1426 C1439 0.961 . S
H1427 C1439 0.959 . S
H1428 C1442 0.929 . S
H1429 C1443 0.931 . S
H1430 C1445 0.930 . S
C1431 H1419 0.930 . S
C1431 C1432 1.399 . S
C1431 C1436 1.399 . S
C1432 C1431 1.399 . S
C1432 C1433 1.376 . S
C1433 H1420 0.930 . S
C1433 C1432 1.376 . S
C1433 C1434 1.388 . S
C1434 H1421 0.930 . S
C1434 C1433 1.388 . S
C1434 C1435 1.390 . S
C1435 C1434 1.390 . S
C1435 C1436 1.394 . S
C1435 C1441 1.465 . S
C1436 C1431 1.399 . S
C1436 C1435 1.394 . S
C1436 C1437 1.516 . S
C1437 C1436 1.516 . S
C1437 C1438 1.502 . S
C1437 C1439 1.561 . S
C1437 C1440 1.526 . S
C1438 H1422 0.959 . S
C1438 H1423 0.959 . S
C1438 H1424 0.961 . S
C1438 C1437 1.502 . S
C1439 H1425 0.960 . S
C1439 H1426 0.961 . S
C1439 H1427 0.959 . S
C1439 C1437 1.561 . S
C1440 C1437 1.526 . S
C1440 C1441 1.396 . S
C1440 C1445 1.390 . S
C1441 C1435 1.465 . S
C1441 C1440 1.396 . S
C1441 C1442 1.399 . S
C1442 H1428 0.929 . S
C1442 C1441 1.399 . S
C1442 C1443 1.385 . S
C1443 H1429 0.931 . S
C1443 C1442 1.385 . S
C1443 C1444 1.389 . S
C1444 C1443 1.389 . S
C1444 C1445 1.387 . S
C1445 H1430 0.930 . S
C1445 C1440 1.390 . S
C1445 C1444 1.387 . S
H1446 C1458 0.930 . S
H1447 C1460 0.930 . S
H1448 C1461 0.930 . S
H1449 C1465 0.959 . S
H1450 C1465 0.959 . S
H1451 C1465 0.961 . S
H1452 C1466 0.960 . S
H1453 C1466 0.961 . S
H1454 C1466 0.959 . S
H1455 C1469 0.929 . S
H1456 C1470 0.931 . S
H1457 C1472 0.930 . S
C1458 H1446 0.930 . S
C1458 C1459 1.399 1_565 S
C1458 C1463 1.399 . S
C1459 C1458 1.399 1_545 S
C1459 C1460 1.376 . S
C1460 H1447 0.930 . S
C1460 C1459 1.376 . S
C1460 C1461 1.388 . S
C1461 H1448 0.930 . S
C1461 C1460 1.388 . S
C1461 C1462 1.390 . S
C1462 C1461 1.390 . S
C1462 C1463 1.394 1_545 S
C1462 C1468 1.465 . S
C1463 C1458 1.399 . S
C1463 C1462 1.394 1_565 S
C1463 C1464 1.516 . S
C1464 C1463 1.516 . S
C1464 C1465 1.502 . S
C1464 C1466 1.561 . S
C1464 C1467 1.526 . S
C1465 H1449 0.959 . S
C1465 H1450 0.959 . S
C1465 H1451 0.961 . S
C1465 C1464 1.502 . S
C1466 H1452 0.960 . S
C1466 H1453 0.961 . S
C1466 H1454 0.959 . S
C1466 C1464 1.561 . S
C1467 C1464 1.526 . S
C1467 C1468 1.396 1_565 S
C1467 C1472 1.390 . S
C1468 C1462 1.465 . S
C1468 C1467 1.396 1_545 S
C1468 C1469 1.399 . S
C1469 H1455 0.929 . S
C1469 C1468 1.399 . S
C1469 C1470 1.385 . S
C1470 H1456 0.931 . S
C1470 C1469 1.385 . S
C1470 C1471 1.389 1_545 S
C1471 C1470 1.389 1_565 S
C1471 C1472 1.387 . S
C1472 H1457 0.930 . S
C1472 C1467 1.390 . S
C1472 C1471 1.387 . S
H1473 C1485 0.930 . S
H1474 C1487 0.930 . S
H1475 C1488 0.930 . S
H1476 C1492 0.959 . S
H1477 C1492 0.959 . S
H1478 C1492 0.961 . S
H1479 C1493 0.960 . S
H1480 C1493 0.961 . S
H1481 C1493 0.959 . S
H1482 C1496 0.929 . S
H1483 C1497 0.931 . S
H1484 C1499 0.930 . S
C1485 H1473 0.930 . S
C1485 C1486 1.399 1_554 S
C1485 C1490 1.399 . S
C1486 C1485 1.399 1_556 S
C1486 C1487 1.376 . S
C1487 H1474 0.930 . S
C1487 C1486 1.376 . S
C1487 C1488 1.388 . S
C1488 H1475 0.930 . S
C1488 C1487 1.388 . S
C1488 C1489 1.390 . S
C1489 C1488 1.390 . S
C1489 C1490 1.394 1_556 S
C1489 C1495 1.465 . S
C1490 C1485 1.399 . S
C1490 C1489 1.394 1_554 S
C1490 C1491 1.516 . S
C1491 C1490 1.516 . S
C1491 C1492 1.502 . S
C1491 C1493 1.561 . S
C1491 C1494 1.526 . S
C1492 H1476 0.959 . S
C1492 H1477 0.959 . S
C1492 H1478 0.961 . S
C1492 C1491 1.502 . S
C1493 H1479 0.960 . S
C1493 H1480 0.961 . S
C1493 H1481 0.959 . S
C1493 C1491 1.561 . S
C1494 C1491 1.526 . S
C1494 C1495 1.396 1_554 S
C1494 C1499 1.390 . S
C1495 C1489 1.465 . S
C1495 C1494 1.396 1_556 S
C1495 C1496 1.399 . S
C1496 H1482 0.929 . S
C1496 C1495 1.399 . S
C1496 C1497 1.385 . S
C1497 H1483 0.931 . S
C1497 C1496 1.385 . S
C1497 C1498 1.389 . S
C1498 C1497 1.389 . S
C1498 C1499 1.387 1_556 S
C1499 H1484 0.930 . S
C1499 C1494 1.390 . S
C1499 C1498 1.387 1_554 S
H1500 C1512 0.930 . S
H1501 C1514 0.930 . S
H1502 C1515 0.930 . S
H1503 C1519 0.959 . S
H1504 C1519 0.959 . S
H1505 C1519 0.961 . S
H1506 C1520 0.960 . S
H1507 C1520 0.961 . S
H1508 C1520 0.959 . S
H1509 C1523 0.929 . S
H1510 C1524 0.931 . S
H1511 C1526 0.930 . S
C1512 H1500 0.930 . S
C1512 C1513 1.399 . S
C1512 C1517 1.399 . S
C1513 C1512 1.399 . S
C1513 C1514 1.376 . S
C1514 H1501 0.930 . S
C1514 C1513 1.376 . S
C1514 C1515 1.388 . S
C1515 H1502 0.930 . S
C1515 C1514 1.388 . S
C1515 C1516 1.390 . S
C1516 C1515 1.390 . S
C1516 C1517 1.394 . S
C1516 C1522 1.465 . S
C1517 C1512 1.399 . S
C1517 C1516 1.394 . S
C1517 C1518 1.516 . S
C1518 C1517 1.516 . S
C1518 C1519 1.502 . S
C1518 C1520 1.561 . S
C1518 C1521 1.526 . S
C1519 H1503 0.959 . S
C1519 H1504 0.959 . S
C1519 H1505 0.961 . S
C1519 C1518 1.502 . S
C1520 H1506 0.960 . S
C1520 H1507 0.961 . S
C1520 H1508 0.959 . S
C1520 C1518 1.561 . S
C1521 C1518 1.526 . S
C1521 C1522 1.396 . S
C1521 C1526 1.390 . S
C1522 C1516 1.465 . S
C1522 C1521 1.396 . S
C1522 C1523 1.399 . S
C1523 H1509 0.929 . S
C1523 C1522 1.399 . S
C1523 C1524 1.385 . S
C1524 H1510 0.931 . S
C1524 C1523 1.385 . S
C1524 C1525 1.389 . S
C1525 C1524 1.389 . S
C1525 C1526 1.387 . S
C1526 H1511 0.930 . S
C1526 C1521 1.390 . S
C1526 C1525 1.387 . S
H1527 C1539 0.930 . S
H1528 C1541 0.930 . S
H1529 C1542 0.930 . S
H1530 C1546 0.959 . S
H1531 C1546 0.959 . S
H1532 C1546 0.961 . S
H1533 C1547 0.960 . S
H1534 C1547 0.961 . S
H1535 C1547 0.959 . S
H1536 C1550 0.929 . S
H1537 C1551 0.931 . S
H1538 C1553 0.930 . S
C1539 H1527 0.930 . S
C1539 C1540 1.399 . S
C1539 C1544 1.399 . S
C1540 C1539 1.399 . S
C1540 C1541 1.376 . S
C1541 H1528 0.930 . S
C1541 C1540 1.376 . S
C1541 C1542 1.388 . S
C1542 H1529 0.930 . S
C1542 C1541 1.388 . S
C1542 C1543 1.390 . S
C1543 C1542 1.390 . S
C1543 C1544 1.394 . S
C1543 C1549 1.465 . S
C1544 C1539 1.399 . S
C1544 C1543 1.394 . S
C1544 C1545 1.516 . S
C1545 C1544 1.516 . S
C1545 C1546 1.502 . S
C1545 C1547 1.561 . S
C1545 C1548 1.526 . S
C1546 H1530 0.959 . S
C1546 H1531 0.959 . S
C1546 H1532 0.961 . S
C1546 C1545 1.502 . S
C1547 H1533 0.960 . S
C1547 H1534 0.961 . S
C1547 H1535 0.959 . S
C1547 C1545 1.561 . S
C1548 C1545 1.526 . S
C1548 C1549 1.396 . S
C1548 C1553 1.390 . S
C1549 C1543 1.465 . S
C1549 C1548 1.396 . S
C1549 C1550 1.399 . S
C1550 H1536 0.929 . S
C1550 C1549 1.399 . S
C1550 C1551 1.385 . S
C1551 H1537 0.931 . S
C1551 C1550 1.385 . S
C1551 C1552 1.389 . S
C1552 C1551 1.389 . S
C1552 C1553 1.387 . S
C1553 H1538 0.930 . S
C1553 C1548 1.390 . S
C1553 C1552 1.387 . S
H1554 C1566 0.930 . S
H1555 C1568 0.930 . S
H1556 C1569 0.930 . S
H1557 C1573 0.959 . S
H1558 C1573 0.959 . S
H1559 C1573 0.961 . S
H1560 C1574 0.960 . S
H1561 C1574 0.961 . S
H1562 C1574 0.959 . S
H1563 C1577 0.929 . S
H1564 C1578 0.931 . S
H1565 C1580 0.930 . S
C1566 H1554 0.930 . S
C1566 C1567 1.399 . S
C1566 C1571 1.399 . S
C1567 C1566 1.399 . S
C1567 C1568 1.376 . S
C1568 H1555 0.930 . S
C1568 C1567 1.376 . S
C1568 C1569 1.388 . S
C1569 H1556 0.930 . S
C1569 C1568 1.388 . S
C1569 C1570 1.390 . S
C1570 C1569 1.390 . S
C1570 C1571 1.394 . S
C1570 C1576 1.465 . S
C1571 C1566 1.399 . S
C1571 C1570 1.394 . S
C1571 C1572 1.516 . S
C1572 C1571 1.516 . S
C1572 C1573 1.502 . S
C1572 C1574 1.561 . S
C1572 C1575 1.526 . S
C1573 H1557 0.959 . S
C1573 H1558 0.959 . S
C1573 H1559 0.961 . S
C1573 C1572 1.502 . S
C1574 H1560 0.960 . S
C1574 H1561 0.961 . S
C1574 H1562 0.959 . S
C1574 C1572 1.561 . S
C1575 C1572 1.526 . S
C1575 C1576 1.396 . S
C1575 C1580 1.390 . S
C1576 C1570 1.465 . S
C1576 C1575 1.396 . S
C1576 C1577 1.399 . S
C1577 H1563 0.929 . S
C1577 C1576 1.399 . S
C1577 C1578 1.385 . S
C1578 H1564 0.931 . S
C1578 C1577 1.385 . S
C1578 C1579 1.389 . S
C1579 C1578 1.389 . S
C1579 C1580 1.387 . S
C1580 H1565 0.930 . S
C1580 C1575 1.390 . S
C1580 C1579 1.387 . S
H1581 C1593 0.930 . S
H1582 C1595 0.930 . S
H1583 C1596 0.930 . S
H1584 C1600 0.959 . S
H1585 C1600 0.959 . S
H1586 C1600 0.961 . S
H1587 C1601 0.960 . S
H1588 C1601 0.961 . S
H1589 C1601 0.959 . S
H1590 C1604 0.929 . S
H1591 C1605 0.931 . S
H1592 C1607 0.930 . S
C1593 H1581 0.930 . S
C1593 C1594 1.399 . S
C1593 C1598 1.399 . S
C1594 C1593 1.399 . S
C1594 C1595 1.376 . S
C1595 H1582 0.930 . S
C1595 C1594 1.376 . S
C1595 C1596 1.388 . S
C1596 H1583 0.930 . S
C1596 C1595 1.388 . S
C1596 C1597 1.390 . S
C1597 C1596 1.390 . S
C1597 C1598 1.394 . S
C1597 C1603 1.465 . S
C1598 C1593 1.399 . S
C1598 C1597 1.394 . S
C1598 C1599 1.516 . S
C1599 C1598 1.516 . S
C1599 C1600 1.502 . S
C1599 C1601 1.561 . S
C1599 C1602 1.526 . S
C1600 H1584 0.959 . S
C1600 H1585 0.959 . S
C1600 H1586 0.961 . S
C1600 C1599 1.502 . S
C1601 H1587 0.960 . S
C1601 H1588 0.961 . S
C1601 H1589 0.959 . S
C1601 C1599 1.561 . S
C1602 C1599 1.526 . S
C1602 C1603 1.396 . S
C1602 C1607 1.390 . S
C1603 C1597 1.465 . S
C1603 C1602 1.396 . S
C1603 C1604 1.399 . S
C1604 H1590 0.929 . S
C1604 C1603 1.399 . S
C1604 C1605 1.385 . S
C1605 H1591 0.931 . S
C1605 C1604 1.385 . S
C1605 C1606 1.389 . S
C1606 C1605 1.389 . S
C1606 C1607 1.387 . S
C1607 H1592 0.930 . S
C1607 C1602 1.390 . S
C1607 C1606 1.387 . S
H1608 C1620 0.930 . S
H1609 C1622 0.930 . S
H1610 C1623 0.930 . S
H1611 C1627 0.959 . S
H1612 C1627 0.959 . S
H1613 C1627 0.961 . S
H1614 C1628 0.960 . S
H1615 C1628 0.961 . S
H1616 C1628 0.959 . S
H1617 C1631 0.929 . S
H1618 C1632 0.931 . S
H1619 C1634 0.930 . S
C1620 H1608 0.930 . S
C1620 C1621 1.399 . S
C1620 C1625 1.399 . S
C1621 C1620 1.399 . S
C1621 C1622 1.376 . S
C1622 H1609 0.930 . S
C1622 C1621 1.376 . S
C1622 C1623 1.388 . S
C1623 H1610 0.930 . S
C1623 C1622 1.388 . S
C1623 C1624 1.390 . S
C1624 C1623 1.390 . S
C1624 C1625 1.394 . S
C1624 C1630 1.465 . S
C1625 C1620 1.399 . S
C1625 C1624 1.394 . S
C1625 C1626 1.516 . S
C1626 C1625 1.516 . S
C1626 C1627 1.502 . S
C1626 C1628 1.561 . S
C1626 C1629 1.526 . S
C1627 H1611 0.959 . S
C1627 H1612 0.959 . S
C1627 H1613 0.961 . S
C1627 C1626 1.502 . S
C1628 H1614 0.960 . S
C1628 H1615 0.961 . S
C1628 H1616 0.959 . S
C1628 C1626 1.561 . S
C1629 C1626 1.526 . S
C1629 C1630 1.396 . S
C1629 C1634 1.390 . S
C1630 C1624 1.465 . S
C1630 C1629 1.396 . S
C1630 C1631 1.399 . S
C1631 H1617 0.929 . S
C1631 C1630 1.399 . S
C1631 C1632 1.385 . S
C1632 H1618 0.931 . S
C1632 C1631 1.385 . S
C1632 C1633 1.389 . S
C1633 C1632 1.389 . S
C1633 C1634 1.387 . S
C1634 H1619 0.930 . S
C1634 C1629 1.390 . S
C1634 C1633 1.387 . S
H1635 C1647 0.930 . S
H1636 C1649 0.930 . S
H1637 C1650 0.930 . S
H1638 C1654 0.959 . S
H1639 C1654 0.959 . S
H1640 C1654 0.961 . S
H1641 C1655 0.960 . S
H1642 C1655 0.961 . S
H1643 C1655 0.959 . S
H1644 C1658 0.929 . S
H1645 C1659 0.931 . S
H1646 C1661 0.930 . S
C1647 H1635 0.930 . S
C1647 C1648 1.399 . S
C1647 C1652 1.399 . S
C1648 C1647 1.399 . S
C1648 C1649 1.376 . S
C1649 H1636 0.930 . S
C1649 C1648 1.376 . S
C1649 C1650 1.388 . S
C1650 H1637 0.930 . S
C1650 C1649 1.388 . S
C1650 C1651 1.390 . S
C1651 C1650 1.390 . S
C1651 C1652 1.394 . S
C1651 C1657 1.465 . S
C1652 C1647 1.399 . S
C1652 C1651 1.394 . S
C1652 C1653 1.516 . S
C1653 C1652 1.516 . S
C1653 C1654 1.502 . S
C1653 C1655 1.561 . S
C1653 C1656 1.526 . S
C1654 H1638 0.959 . S
C1654 H1639 0.959 . S
C1654 H1640 0.961 . S
C1654 C1653 1.502 . S
C1655 H1641 0.960 . S
C1655 H1642 0.961 . S
C1655 H1643 0.959 . S
C1655 C1653 1.561 . S
C1656 C1653 1.526 . S
C1656 C1657 1.396 . S
C1656 C1661 1.390 . S
C1657 C1651 1.465 . S
C1657 C1656 1.396 . S
C1657 C1658 1.399 . S
C1658 H1644 0.929 . S
C1658 C1657 1.399 . S
C1658 C1659 1.385 . S
C1659 H1645 0.931 . S
C1659 C1658 1.385 . S
C1659 C1660 1.389 . S
C1660 C1659 1.389 . S
C1660 C1661 1.387 . S
C1661 H1646 0.930 . S
C1661 C1656 1.390 . S
C1661 C1660 1.387 . S
H1662 C1674 0.930 . S
H1663 C1676 0.930 . S
H1664 C1677 0.930 . S
H1665 C1681 0.959 . S
H1666 C1681 0.959 . S
H1667 C1681 0.961 . S
H1668 C1682 0.960 . S
H1669 C1682 0.961 . S
H1670 C1682 0.959 . S
H1671 C1685 0.929 . S
H1672 C1686 0.931 . S
H1673 C1688 0.930 . S
C1674 H1662 0.930 . S
C1674 C1675 1.399 . S
C1674 C1679 1.399 . S
C1675 C1674 1.399 . S
C1675 C1676 1.376 . S
C1676 H1663 0.930 . S
C1676 C1675 1.376 . S
C1676 C1677 1.388 . S
C1677 H1664 0.930 . S
C1677 C1676 1.388 . S
C1677 C1678 1.390 . S
C1678 C1677 1.390 . S
C1678 C1679 1.394 . S
C1678 C1684 1.465 . S
C1679 C1674 1.399 . S
C1679 C1678 1.394 . S
C1679 C1680 1.516 . S
C1680 C1679 1.516 . S
C1680 C1681 1.502 . S
C1680 C1682 1.561 . S
C1680 C1683 1.526 . S
C1681 H1665 0.959 . S
C1681 H1666 0.959 . S
C1681 H1667 0.961 . S
C1681 C1680 1.502 . S
C1682 H1668 0.960 . S
C1682 H1669 0.961 . S
C1682 H1670 0.959 . S
C1682 C1680 1.561 . S
C1683 C1680 1.526 . S
C1683 C1684 1.396 . S
C1683 C1688 1.390 . S
C1684 C1678 1.465 . S
C1684 C1683 1.396 . S
C1684 C1685 1.399 . S
C1685 H1671 0.929 . S
C1685 C1684 1.399 . S
C1685 C1686 1.385 . S
C1686 H1672 0.931 . S
C1686 C1685 1.385 . S
C1686 C1687 1.389 . S
C1687 C1686 1.389 . S
C1687 C1688 1.387 . S
C1688 H1673 0.930 . S
C1688 C1683 1.390 . S
C1688 C1687 1.387 . S
H1689 C1701 0.930 . S
H1690 C1703 0.930 . S
H1691 C1704 0.930 . S
H1692 C1708 0.959 . S
H1693 C1708 0.959 . S
H1694 C1708 0.961 . S
H1695 C1709 0.960 . S
H1696 C1709 0.961 . S
H1697 C1709 0.959 . S
H1698 C1712 0.929 . S
H1699 C1713 0.931 . S
H1700 C1715 0.930 . S
C1701 H1689 0.930 . S
C1701 C1702 1.399 . S
C1701 C1706 1.399 . S
C1702 C1701 1.399 . S
C1702 C1703 1.376 . S
C1703 H1690 0.930 . S
C1703 C1702 1.376 . S
C1703 C1704 1.388 . S
C1704 H1691 0.930 . S
C1704 C1703 1.388 . S
C1704 C1705 1.390 . S
C1705 C1704 1.390 . S
C1705 C1706 1.394 . S
C1705 C1711 1.465 . S
C1706 C1701 1.399 . S
C1706 C1705 1.394 . S
C1706 C1707 1.516 . S
C1707 C1706 1.516 . S
C1707 C1708 1.502 . S
C1707 C1709 1.561 . S
C1707 C1710 1.526 . S
C1708 H1692 0.959 . S
C1708 H1693 0.959 . S
C1708 H1694 0.961 . S
C1708 C1707 1.502 . S
C1709 H1695 0.960 . S
C1709 H1696 0.961 . S
C1709 H1697 0.959 . S
C1709 C1707 1.561 . S
C1710 C1707 1.526 . S
C1710 C1711 1.396 . S
C1710 C1715 1.390 . S
C1711 C1705 1.465 . S
C1711 C1710 1.396 . S
C1711 C1712 1.399 . S
C1712 H1698 0.929 . S
C1712 C1711 1.399 . S
C1712 C1713 1.385 . S
C1713 H1699 0.931 . S
C1713 C1712 1.385 . S
C1713 C1714 1.389 . S
C1714 C1713 1.389 . S
C1714 C1715 1.387 . S
C1715 H1700 0.930 . S
C1715 C1710 1.390 . S
C1715 C1714 1.387 . S
H1716 C1728 0.930 . S
H1717 C1730 0.930 . S
H1718 C1731 0.930 . S
H1719 C1735 0.959 . S
H1720 C1735 0.959 . S
H1721 C1735 0.961 . S
H1722 C1736 0.960 . S
H1723 C1736 0.961 . S
H1724 C1736 0.959 . S
H1725 C1739 0.929 . S
H1726 C1740 0.931 . S
H1727 C1742 0.930 . S
C1728 H1716 0.930 . S
C1728 C1729 1.399 . S
C1728 C1733 1.399 . S
C1729 C1728 1.399 . S
C1729 C1730 1.376 . S
C1730 H1717 0.930 . S
C1730 C1729 1.376 . S
C1730 C1731 1.388 . S
C1731 H1718 0.930 . S
C1731 C1730 1.388 . S
C1731 C1732 1.390 . S
C1732 C1731 1.390 . S
C1732 C1733 1.394 . S
C1732 C1738 1.465 . S
C1733 C1728 1.399 . S
C1733 C1732 1.394 . S
C1733 C1734 1.516 . S
C1734 C1733 1.516 . S
C1734 C1735 1.502 . S
C1734 C1736 1.561 . S
C1734 C1737 1.526 . S
C1735 H1719 0.959 . S
C1735 H1720 0.959 . S
C1735 H1721 0.961 . S
C1735 C1734 1.502 . S
C1736 H1722 0.960 . S
C1736 H1723 0.961 . S
C1736 H1724 0.959 . S
C1736 C1734 1.561 . S
C1737 C1734 1.526 . S
C1737 C1738 1.396 . S
C1737 C1742 1.390 . S
C1738 C1732 1.465 . S
C1738 C1737 1.396 . S
C1738 C1739 1.399 . S
C1739 H1725 0.929 . S
C1739 C1738 1.399 . S
C1739 C1740 1.385 . S
C1740 H1726 0.931 . S
C1740 C1739 1.385 . S
C1740 C1741 1.389 . S
C1741 C1740 1.389 . S
C1741 C1742 1.387 . S
C1742 H1727 0.930 . S
C1742 C1737 1.390 . S
C1742 C1741 1.387 . S
H1743 C1755 0.930 . S
H1744 C1757 0.930 . S
H1745 C1758 0.930 . S
H1746 C1762 0.959 . S
H1747 C1762 0.959 . S
H1748 C1762 0.961 . S
H1749 C1763 0.960 . S
H1750 C1763 0.961 . S
H1751 C1763 0.959 . S
H1752 C1766 0.929 . S
H1753 C1767 0.931 . S
H1754 C1769 0.930 . S
C1755 H1743 0.930 . S
C1755 C1756 1.399 . S
C1755 C1760 1.399 . S
C1756 C1755 1.399 . S
C1756 C1757 1.376 . S
C1757 H1744 0.930 . S
C1757 C1756 1.376 . S
C1757 C1758 1.388 . S
C1758 H1745 0.930 . S
C1758 C1757 1.388 . S
C1758 C1759 1.390 . S
C1759 C1758 1.390 . S
C1759 C1760 1.394 . S
C1759 C1765 1.465 . S
C1760 C1755 1.399 . S
C1760 C1759 1.394 . S
C1760 C1761 1.516 . S
C1761 C1760 1.516 . S
C1761 C1762 1.502 . S
C1761 C1763 1.561 . S
C1761 C1764 1.526 . S
C1762 H1746 0.959 . S
C1762 H1747 0.959 . S
C1762 H1748 0.961 . S
C1762 C1761 1.502 . S
C1763 H1749 0.960 . S
C1763 H1750 0.961 . S
C1763 H1751 0.959 . S
C1763 C1761 1.561 . S
C1764 C1761 1.526 . S
C1764 C1765 1.396 . S
C1764 C1769 1.390 . S
C1765 C1759 1.465 . S
C1765 C1764 1.396 . S
C1765 C1766 1.399 . S
C1766 H1752 0.929 . S
C1766 C1765 1.399 . S
C1766 C1767 1.385 . S
C1767 H1753 0.931 . S
C1767 C1766 1.385 . S
C1767 C1768 1.389 . S
C1768 C1767 1.389 . S
C1768 C1769 1.387 . S
C1769 H1754 0.930 . S
C1769 C1764 1.390 . S
C1769 C1768 1.387 . S
H1770 C1782 0.930 . S
H1771 C1784 0.930 . S
H1772 C1785 0.930 . S
H1773 C1789 0.959 . S
H1774 C1789 0.959 . S
H1775 C1789 0.961 . S
H1776 C1790 0.960 . S
H1777 C1790 0.961 . S
H1778 C1790 0.959 . S
H1779 C1793 0.929 . S
H1780 C1794 0.931 . S
H1781 C1796 0.930 . S
C1782 H1770 0.930 . S
C1782 C1783 1.399 1_554 S
C1782 C1787 1.399 . S
C1783 C1782 1.399 1_556 S
C1783 C1784 1.376 . S
C1784 H1771 0.930 . S
C1784 C1783 1.376 . S
C1784 C1785 1.388 . S
C1785 H1772 0.930 . S
C1785 C1784 1.388 . S
C1785 C1786 1.390 . S
C1786 C1785 1.390 . S
C1786 C1787 1.394 1_556 S
C1786 C1792 1.465 . S
C1787 C1782 1.399 . S
C1787 C1786 1.394 1_554 S
C1787 C1788 1.516 . S
C1788 C1787 1.516 . S
C1788 C1789 1.502 . S
C1788 C1790 1.561 . S
C1788 C1791 1.526 . S
C1789 H1773 0.959 . S
C1789 H1774 0.959 . S
C1789 H1775 0.961 . S
C1789 C1788 1.502 . S
C1790 H1776 0.960 . S
C1790 H1777 0.961 . S
C1790 H1778 0.959 . S
C1790 C1788 1.561 . S
C1791 C1788 1.526 . S
C1791 C1792 1.396 1_554 S
C1791 C1796 1.390 . S
C1792 C1786 1.465 . S
C1792 C1791 1.396 1_556 S
C1792 C1793 1.399 . S
C1793 H1779 0.929 . S
C1793 C1792 1.399 . S
C1793 C1794 1.385 . S
C1794 H1780 0.931 . S
C1794 C1793 1.385 . S
C1794 C1795 1.389 . S
C1795 C1794 1.389 . S
C1795 C1796 1.387 1_556 S
C1796 H1781 0.930 . S
C1796 C1791 1.390 . S
C1796 C1795 1.387 1_554 S
H1797 C1809 0.930 . S
H1798 C1811 0.930 . S
H1799 C1812 0.930 . S
H1800 C1816 0.959 . S
H1801 C1816 0.959 . S
H1802 C1816 0.961 . S
H1803 C1817 0.960 . S
H1804 C1817 0.961 . S
H1805 C1817 0.959 . S
H1806 C1820 0.929 . S
H1807 C1821 0.931 . S
H1808 C1823 0.930 . S
C1809 H1797 0.930 . S
C1809 C1810 1.399 . S
C1809 C1814 1.399 . S
C1810 C1809 1.399 . S
C1810 C1811 1.376 . S
C1811 H1798 0.930 . S
C1811 C1810 1.376 . S
C1811 C1812 1.388 . S
C1812 H1799 0.930 . S
C1812 C1811 1.388 . S
C1812 C1813 1.390 . S
C1813 C1812 1.390 . S
C1813 C1814 1.394 . S
C1813 C1819 1.465 . S
C1814 C1809 1.399 . S
C1814 C1813 1.394 . S
C1814 C1815 1.516 . S
C1815 C1814 1.516 . S
C1815 C1816 1.502 . S
C1815 C1817 1.561 . S
C1815 C1818 1.526 . S
C1816 H1800 0.959 . S
C1816 H1801 0.959 . S
C1816 H1802 0.961 . S
C1816 C1815 1.502 . S
C1817 H1803 0.960 . S
C1817 H1804 0.961 . S
C1817 H1805 0.959 . S
C1817 C1815 1.561 . S
C1818 C1815 1.526 . S
C1818 C1819 1.396 . S
C1818 C1823 1.390 . S
C1819 C1813 1.465 . S
C1819 C1818 1.396 . S
C1819 C1820 1.399 . S
C1820 H1806 0.929 . S
C1820 C1819 1.399 . S
C1820 C1821 1.385 . S
C1821 H1807 0.931 . S
C1821 C1820 1.385 . S
C1821 C1822 1.389 . S
C1822 C1821 1.389 . S
C1822 C1823 1.387 . S
C1823 H1808 0.930 . S
C1823 C1818 1.390 . S
C1823 C1822 1.387 . S
H1824 C1836 0.930 . S
H1825 C1838 0.930 . S
H1826 C1839 0.930 . S
H1827 C1843 0.959 . S
H1828 C1843 0.959 . S
H1829 C1843 0.961 . S
H1830 C1844 0.960 . S
H1831 C1844 0.961 . S
H1832 C1844 0.959 . S
H1833 C1847 0.929 . S
H1834 C1848 0.931 . S
H1835 C1850 0.930 . S
C1836 H1824 0.930 . S
C1836 C1837 1.399 . S
C1836 C1841 1.399 . S
C1837 C1836 1.399 . S
C1837 C1838 1.376 . S
C1838 H1825 0.930 . S
C1838 C1837 1.376 . S
C1838 C1839 1.388 . S
C1839 H1826 0.930 . S
C1839 C1838 1.388 . S
C1839 C1840 1.390 . S
C1840 C1839 1.390 . S
C1840 C1841 1.394 . S
C1840 C1846 1.465 . S
C1841 C1836 1.399 . S
C1841 C1840 1.394 . S
C1841 C1842 1.516 . S
C1842 C1841 1.516 . S
C1842 C1843 1.502 . S
C1842 C1844 1.561 . S
C1842 C1845 1.526 . S
C1843 H1827 0.959 . S
C1843 H1828 0.959 . S
C1843 H1829 0.961 . S
C1843 C1842 1.502 . S
C1844 H1830 0.960 . S
C1844 H1831 0.961 . S
C1844 H1832 0.959 . S
C1844 C1842 1.561 . S
C1845 C1842 1.526 . S
C1845 C1846 1.396 . S
C1845 C1850 1.390 . S
C1846 C1840 1.465 . S
C1846 C1845 1.396 . S
C1846 C1847 1.399 . S
C1847 H1833 0.929 . S
C1847 C1846 1.399 . S
C1847 C1848 1.385 . S
C1848 H1834 0.931 . S
C1848 C1847 1.385 . S
C1848 C1849 1.389 . S
C1849 C1848 1.389 . S
C1849 C1850 1.387 . S
C1850 H1835 0.930 . S
C1850 C1845 1.390 . S
C1850 C1849 1.387 . S
H1851 C1863 0.930 . S
H1852 C1865 0.930 . S
H1853 C1866 0.930 . S
H1854 C1870 0.959 . S
H1855 C1870 0.959 . S
H1856 C1870 0.961 . S
H1857 C1871 0.960 . S
H1858 C1871 0.961 . S
H1859 C1871 0.959 . S
H1860 C1874 0.929 . S
H1861 C1875 0.931 . S
H1862 C1877 0.930 . S
C1863 H1851 0.930 . S
C1863 C1864 1.399 . S
C1863 C1868 1.399 . S
C1864 C1863 1.399 . S
C1864 C1865 1.376 . S
C1865 H1852 0.930 . S
C1865 C1864 1.376 . S
C1865 C1866 1.388 . S
C1866 H1853 0.930 . S
C1866 C1865 1.388 . S
C1866 C1867 1.390 . S
C1867 C1866 1.390 . S
C1867 C1868 1.394 . S
C1867 C1873 1.465 . S
C1868 C1863 1.399 . S
C1868 C1867 1.394 . S
C1868 C1869 1.516 . S
C1869 C1868 1.516 . S
C1869 C1870 1.502 . S
C1869 C1871 1.561 . S
C1869 C1872 1.526 . S
C1870 H1854 0.959 . S
C1870 H1855 0.959 . S
C1870 H1856 0.961 . S
C1870 C1869 1.502 . S
C1871 H1857 0.960 . S
C1871 H1858 0.961 . S
C1871 H1859 0.959 . S
C1871 C1869 1.561 . S
C1872 C1869 1.526 . S
C1872 C1873 1.396 . S
C1872 C1877 1.390 . S
C1873 C1867 1.465 . S
C1873 C1872 1.396 . S
C1873 C1874 1.399 . S
C1874 H1860 0.929 . S
C1874 C1873 1.399 . S
C1874 C1875 1.385 . S
C1875 H1861 0.931 . S
C1875 C1874 1.385 . S
C1875 C1876 1.389 . S
C1876 C1875 1.389 . S
C1876 C1877 1.387 . S
C1877 H1862 0.930 . S
C1877 C1872 1.390 . S
C1877 C1876 1.387 . S
H1878 C1890 0.930 . S
H1879 C1892 0.930 . S
H1880 C1893 0.930 . S
H1881 C1897 0.959 . S
H1882 C1897 0.959 . S
H1883 C1897 0.961 . S
H1884 C1898 0.960 . S
H1885 C1898 0.961 . S
H1886 C1898 0.959 . S
H1887 C1901 0.929 . S
H1888 C1902 0.931 . S
H1889 C1904 0.930 . S
C1890 H1878 0.930 . S
C1890 C1891 1.399 . S
C1890 C1895 1.399 . S
C1891 C1890 1.399 . S
C1891 C1892 1.376 . S
C1892 H1879 0.930 . S
C1892 C1891 1.376 . S
C1892 C1893 1.388 . S
C1893 H1880 0.930 . S
C1893 C1892 1.388 . S
C1893 C1894 1.390 . S
C1894 C1893 1.390 . S
C1894 C1895 1.394 . S
C1894 C1900 1.465 . S
C1895 C1890 1.399 . S
C1895 C1894 1.394 . S
C1895 C1896 1.516 . S
C1896 C1895 1.516 . S
C1896 C1897 1.502 . S
C1896 C1898 1.561 . S
C1896 C1899 1.526 . S
C1897 H1881 0.959 . S
C1897 H1882 0.959 . S
C1897 H1883 0.961 . S
C1897 C1896 1.502 . S
C1898 H1884 0.960 . S
C1898 H1885 0.961 . S
C1898 H1886 0.959 . S
C1898 C1896 1.561 . S
C1899 C1896 1.526 . S
C1899 C1900 1.396 . S
C1899 C1904 1.390 . S
C1900 C1894 1.465 . S
C1900 C1899 1.396 . S
C1900 C1901 1.399 . S
C1901 H1887 0.929 . S
C1901 C1900 1.399 . S
C1901 C1902 1.385 . S
C1902 H1888 0.931 . S
C1902 C1901 1.385 . S
C1902 C1903 1.389 . S
C1903 C1902 1.389 . S
C1903 C1904 1.387 . S
C1904 H1889 0.930 . S
C1904 C1899 1.390 . S
C1904 C1903 1.387 . S
H1905 C1917 0.930 . S
H1906 C1919 0.930 . S
H1907 C1920 0.930 . S
H1908 C1924 0.959 . S
H1909 C1924 0.959 . S
H1910 C1924 0.961 . S
H1911 C1925 0.960 . S
H1912 C1925 0.961 . S
H1913 C1925 0.959 . S
H1914 C1928 0.929 . S
H1915 C1929 0.931 . S
H1916 C1931 0.930 . S
C1917 H1905 0.930 . S
C1917 C1918 1.399 . S
C1917 C1922 1.399 . S
C1918 C1917 1.399 . S
C1918 C1919 1.376 . S
C1919 H1906 0.930 . S
C1919 C1918 1.376 . S
C1919 C1920 1.388 . S
C1920 H1907 0.930 . S
C1920 C1919 1.388 . S
C1920 C1921 1.390 . S
C1921 C1920 1.390 . S
C1921 C1922 1.394 . S
C1921 C1927 1.465 . S
C1922 C1917 1.399 . S
C1922 C1921 1.394 . S
C1922 C1923 1.516 . S
C1923 C1922 1.516 . S
C1923 C1924 1.502 . S
C1923 C1925 1.561 . S
C1923 C1926 1.526 . S
C1924 H1908 0.959 . S
C1924 H1909 0.959 . S
C1924 H1910 0.961 . S
C1924 C1923 1.502 . S
C1925 H1911 0.960 . S
C1925 H1912 0.961 . S
C1925 H1913 0.959 . S
C1925 C1923 1.561 . S
C1926 C1923 1.526 . S
C1926 C1927 1.396 . S
C1926 C1931 1.390 . S
C1927 C1921 1.465 . S
C1927 C1926 1.396 . S
C1927 C1928 1.399 . S
C1928 H1914 0.929 . S
C1928 C1927 1.399 . S
C1928 C1929 1.385 . S
C1929 H1915 0.931 . S
C1929 C1928 1.385 . S
C1929 C1930 1.389 . S
C1930 C1929 1.389 . S
C1930 C1931 1.387 . S
C1931 H1916 0.930 . S
C1931 C1926 1.390 . S
C1931 C1930 1.387 . S
H1932 C1944 0.930 . S
H1933 C1946 0.930 . S
H1934 C1947 0.930 . S
H1935 C1951 0.959 . S
H1936 C1951 0.959 . S
H1937 C1951 0.961 . S
H1938 C1952 0.960 . S
H1939 C1952 0.961 . S
H1940 C1952 0.959 . S
H1941 C1955 0.929 . S
H1942 C1956 0.931 . S
H1943 C1958 0.930 . S
C1944 H1932 0.930 . S
C1944 C1945 1.399 . S
C1944 C1949 1.399 . S
C1945 C1944 1.399 . S
C1945 C1946 1.376 . S
C1946 H1933 0.930 . S
C1946 C1945 1.376 . S
C1946 C1947 1.388 . S
C1947 H1934 0.930 . S
C1947 C1946 1.388 . S
C1947 C1948 1.390 . S
C1948 C1947 1.390 . S
C1948 C1949 1.394 . S
C1948 C1954 1.465 . S
C1949 C1944 1.399 . S
C1949 C1948 1.394 . S
C1949 C1950 1.516 . S
C1950 C1949 1.516 . S
C1950 C1951 1.502 . S
C1950 C1952 1.561 . S
C1950 C1953 1.526 . S
C1951 H1935 0.959 . S
C1951 H1936 0.959 . S
C1951 H1937 0.961 . S
C1951 C1950 1.502 . S
C1952 H1938 0.960 . S
C1952 H1939 0.961 . S
C1952 H1940 0.959 . S
C1952 C1950 1.561 . S
C1953 C1950 1.526 . S
C1953 C1954 1.396 . S
C1953 C1958 1.390 . S
C1954 C1948 1.465 . S
C1954 C1953 1.396 . S
C1954 C1955 1.399 . S
C1955 H1941 0.929 . S
C1955 C1954 1.399 . S
C1955 C1956 1.385 . S
C1956 H1942 0.931 . S
C1956 C1955 1.385 . S
C1956 C1957 1.389 . S
C1957 C1956 1.389 . S
C1957 C1958 1.387 . S
C1958 H1943 0.930 . S
C1958 C1953 1.390 . S
C1958 C1957 1.387 . S
H1959 C1971 0.930 . S
H1960 C1973 0.930 . S
H1961 C1974 0.930 . S
H1962 C1978 0.959 . S
H1963 C1978 0.959 . S
H1964 C1978 0.961 . S
H1965 C1979 0.960 . S
H1966 C1979 0.961 . S
H1967 C1979 0.959 . S
H1968 C1982 0.929 . S
H1969 C1983 0.931 . S
H1970 C1985 0.930 . S
C1971 H1959 0.930 . S
C1971 C1972 1.399 . S
C1971 C1976 1.399 . S
C1972 C1971 1.399 . S
C1972 C1973 1.376 . S
C1973 H1960 0.930 . S
C1973 C1972 1.376 . S
C1973 C1974 1.388 . S
C1974 H1961 0.930 . S
C1974 C1973 1.388 . S
C1974 C1975 1.390 . S
C1975 C1974 1.390 . S
C1975 C1976 1.394 . S
C1975 C1981 1.465 . S
C1976 C1971 1.399 . S
C1976 C1975 1.394 . S
C1976 C1977 1.516 . S
C1977 C1976 1.516 . S
C1977 C1978 1.502 . S
C1977 C1979 1.561 . S
C1977 C1980 1.526 . S
C1978 H1962 0.959 . S
C1978 H1963 0.959 . S
C1978 H1964 0.961 . S
C1978 C1977 1.502 . S
C1979 H1965 0.960 . S
C1979 H1966 0.961 . S
C1979 H1967 0.959 . S
C1979 C1977 1.561 . S
C1980 C1977 1.526 . S
C1980 C1981 1.396 . S
C1980 C1985 1.390 . S
C1981 C1975 1.465 . S
C1981 C1980 1.396 . S
C1981 C1982 1.399 . S
C1982 H1968 0.929 . S
C1982 C1981 1.399 . S
C1982 C1983 1.385 . S
C1983 H1969 0.931 . S
C1983 C1982 1.385 . S
C1983 C1984 1.389 . S
C1984 C1983 1.389 . S
C1984 C1985 1.387 . S
C1985 H1970 0.930 . S
C1985 C1980 1.390 . S
C1985 C1984 1.387 . S
H1986 C1998 0.930 . S
H1987 C2000 0.930 . S
H1988 C2001 0.930 . S
H1989 C2005 0.959 . S
H1990 C2005 0.959 . S
H1991 C2005 0.961 . S
H1992 C2006 0.960 . S
H1993 C2006 0.961 . S
H1994 C2006 0.959 . S
H1995 C2009 0.929 . S
H1996 C2010 0.931 . S
H1997 C2012 0.930 . S
C1998 H1986 0.930 . S
C1998 C1999 1.399 . S
C1998 C2003 1.399 . S
C1999 C1998 1.399 . S
C1999 C2000 1.376 . S
C2000 H1987 0.930 . S
C2000 C1999 1.376 . S
C2000 C2001 1.388 . S
C2001 H1988 0.930 . S
C2001 C2000 1.388 . S
C2001 C2002 1.390 . S
C2002 C2001 1.390 . S
C2002 C2003 1.394 . S
C2002 C2008 1.465 . S
C2003 C1998 1.399 . S
C2003 C2002 1.394 . S
C2003 C2004 1.516 . S
C2004 C2003 1.516 . S
C2004 C2005 1.502 . S
C2004 C2006 1.561 . S
C2004 C2007 1.526 . S
C2005 H1989 0.959 . S
C2005 H1990 0.959 . S
C2005 H1991 0.961 . S
C2005 C2004 1.502 . S
C2006 H1992 0.960 . S
C2006 H1993 0.961 . S
C2006 H1994 0.959 . S
C2006 C2004 1.561 . S
C2007 C2004 1.526 . S
C2007 C2008 1.396 . S
C2007 C2012 1.390 . S
C2008 C2002 1.465 . S
C2008 C2007 1.396 . S
C2008 C2009 1.399 . S
C2009 H1995 0.929 . S
C2009 C2008 1.399 . S
C2009 C2010 1.385 . S
C2010 H1996 0.931 . S
C2010 C2009 1.385 . S
C2010 C2011 1.389 . S
C2011 C2010 1.389 . S
C2011 C2012 1.387 . S
C2012 H1997 0.930 . S
C2012 C2007 1.390 . S
C2012 C2011 1.387 . S
H2013 C2025 0.930 . S
H2014 C2027 0.930 . S
H2015 C2028 0.930 . S
H2016 C2032 0.959 . S
H2017 C2032 0.959 . S
H2018 C2032 0.961 . S
H2019 C2033 0.960 . S
H2020 C2033 0.961 . S
H2021 C2033 0.959 . S
H2022 C2036 0.929 . S
H2023 C2037 0.931 . S
H2024 C2039 0.930 . S
C2025 H2013 0.930 . S
C2025 C2026 1.399 . S
C2025 C2030 1.399 . S
C2026 C2025 1.399 . S
C2026 C2027 1.376 . S
C2027 H2014 0.930 . S
C2027 C2026 1.376 . S
C2027 C2028 1.388 . S
C2028 H2015 0.930 . S
C2028 C2027 1.388 . S
C2028 C2029 1.390 . S
C2029 C2028 1.390 . S
C2029 C2030 1.394 . S
C2029 C2035 1.465 . S
C2030 C2025 1.399 . S
C2030 C2029 1.394 . S
C2030 C2031 1.516 . S
C2031 C2030 1.516 . S
C2031 C2032 1.502 . S
C2031 C2033 1.561 . S
C2031 C2034 1.526 . S
C2032 H2016 0.959 . S
C2032 H2017 0.959 . S
C2032 H2018 0.961 . S
C2032 C2031 1.502 . S
C2033 H2019 0.960 . S
C2033 H2020 0.961 . S
C2033 H2021 0.959 . S
C2033 C2031 1.561 . S
C2034 C2031 1.526 . S
C2034 C2035 1.396 . S
C2034 C2039 1.390 . S
C2035 C2029 1.465 . S
C2035 C2034 1.396 . S
C2035 C2036 1.399 . S
C2036 H2022 0.929 . S
C2036 C2035 1.399 . S
C2036 C2037 1.385 . S
C2037 H2023 0.931 . S
C2037 C2036 1.385 . S
C2037 C2038 1.389 . S
C2038 C2037 1.389 . S
C2038 C2039 1.387 . S
C2039 H2024 0.930 . S
C2039 C2034 1.390 . S
C2039 C2038 1.387 . S
H2040 C2052 0.930 . S
H2041 C2054 0.930 . S
H2042 C2055 0.930 . S
H2043 C2059 0.959 . S
H2044 C2059 0.959 . S
H2045 C2059 0.961 . S
H2046 C2060 0.960 . S
H2047 C2060 0.961 . S
H2048 C2060 0.959 . S
H2049 C2063 0.929 . S
H2050 C2064 0.931 . S
H2051 C2066 0.930 . S
C2052 H2040 0.930 . S
C2052 C2053 1.399 . S
C2052 C2057 1.399 . S
C2053 C2052 1.399 . S
C2053 C2054 1.376 . S
C2054 H2041 0.930 . S
C2054 C2053 1.376 . S
C2054 C2055 1.388 . S
C2055 H2042 0.930 . S
C2055 C2054 1.388 . S
C2055 C2056 1.390 . S
C2056 C2055 1.390 . S
C2056 C2057 1.394 . S
C2056 C2062 1.465 . S
C2057 C2052 1.399 . S
C2057 C2056 1.394 . S
C2057 C2058 1.516 . S
C2058 C2057 1.516 . S
C2058 C2059 1.502 . S
C2058 C2060 1.561 . S
C2058 C2061 1.526 . S
C2059 H2043 0.959 . S
C2059 H2044 0.959 . S
C2059 H2045 0.961 . S
C2059 C2058 1.502 . S
C2060 H2046 0.960 . S
C2060 H2047 0.961 . S
C2060 H2048 0.959 . S
C2060 C2058 1.561 . S
C2061 C2058 1.526 . S
C2061 C2062 1.396 . S
C2061 C2066 1.390 . S
C2062 C2056 1.465 . S
C2062 C2061 1.396 . S
C2062 C2063 1.399 . S
C2063 H2049 0.929 . S
C2063 C2062 1.399 . S
C2063 C2064 1.385 . S
C2064 H2050 0.931 . S
C2064 C2063 1.385 . S
C2064 C2065 1.389 . S
C2065 C2064 1.389 . S
C2065 C2066 1.387 . S
C2066 H2051 0.930 . S
C2066 C2061 1.390 . S
C2066 C2065 1.387 . S
H2067 C2079 0.930 . S
H2068 C2081 0.930 . S
H2069 C2082 0.930 . S
H2070 C2086 0.959 . S
H2071 C2086 0.959 . S
H2072 C2086 0.961 . S
H2073 C2087 0.960 . S
H2074 C2087 0.961 . S
H2075 C2087 0.959 . S
H2076 C2090 0.929 . S
H2077 C2091 0.931 . S
H2078 C2093 0.930 . S
C2079 H2067 0.930 . S
C2079 C2080 1.399 . S
C2079 C2084 1.399 . S
C2080 C2079 1.399 . S
C2080 C2081 1.376 . S
C2081 H2068 0.930 . S
C2081 C2080 1.376 . S
C2081 C2082 1.388 . S
C2082 H2069 0.930 . S
C2082 C2081 1.388 . S
C2082 C2083 1.390 . S
C2083 C2082 1.390 . S
C2083 C2084 1.394 . S
C2083 C2089 1.465 . S
C2084 C2079 1.399 . S
C2084 C2083 1.394 . S
C2084 C2085 1.516 . S
C2085 C2084 1.516 . S
C2085 C2086 1.502 . S
C2085 C2087 1.561 . S
C2085 C2088 1.526 . S
C2086 H2070 0.959 . S
C2086 H2071 0.959 . S
C2086 H2072 0.961 . S
C2086 C2085 1.502 . S
C2087 H2073 0.960 . S
C2087 H2074 0.961 . S
C2087 H2075 0.959 . S
C2087 C2085 1.561 . S
C2088 C2085 1.526 . S
C2088 C2089 1.396 . S
C2088 C2093 1.390 . S
C2089 C2083 1.465 . S
C2089 C2088 1.396 . S
C2089 C2090 1.399 . S
C2090 H2076 0.929 . S
C2090 C2089 1.399 . S
C2090 C2091 1.385 . S
C2091 H2077 0.931 . S
C2091 C2090 1.385 . S
C2091 C2092 1.389 . S
C2092 C2091 1.389 . S
C2092 C2093 1.387 . S
C2093 H2078 0.930 . S
C2093 C2088 1.390 . S
C2093 C2092 1.387 . S
H2094 C2106 0.930 . S
H2095 C2108 0.930 . S
H2096 C2109 0.930 . S
H2097 C2113 0.959 . S
H2098 C2113 0.959 . S
H2099 C2113 0.961 . S
H2100 C2114 0.960 . S
H2101 C2114 0.961 . S
H2102 C2114 0.959 . S
H2103 C2117 0.929 . S
H2104 C2118 0.931 . S
H2105 C2120 0.930 . S
C2106 H2094 0.930 . S
C2106 C2107 1.399 . S
C2106 C2111 1.399 . S
C2107 C2106 1.399 . S
C2107 C2108 1.376 . S
C2108 H2095 0.930 . S
C2108 C2107 1.376 . S
C2108 C2109 1.388 . S
C2109 H2096 0.930 . S
C2109 C2108 1.388 . S
C2109 C2110 1.390 . S
C2110 C2109 1.390 . S
C2110 C2111 1.394 . S
C2110 C2116 1.465 . S
C2111 C2106 1.399 . S
C2111 C2110 1.394 . S
C2111 C2112 1.516 . S
C2112 C2111 1.516 . S
C2112 C2113 1.502 . S
C2112 C2114 1.561 . S
C2112 C2115 1.526 . S
C2113 H2097 0.959 . S
C2113 H2098 0.959 . S
C2113 H2099 0.961 . S
C2113 C2112 1.502 . S
C2114 H2100 0.960 . S
C2114 H2101 0.961 . S
C2114 H2102 0.959 . S
C2114 C2112 1.561 . S
C2115 C2112 1.526 . S
C2115 C2116 1.396 . S
C2115 C2120 1.390 . S
C2116 C2110 1.465 . S
C2116 C2115 1.396 . S
C2116 C2117 1.399 . S
C2117 H2103 0.929 . S
C2117 C2116 1.399 . S
C2117 C2118 1.385 . S
C2118 H2104 0.931 . S
C2118 C2117 1.385 . S
C2118 C2119 1.389 . S
C2119 C2118 1.389 . S
C2119 C2120 1.387 . S
C2120 H2105 0.930 . S
C2120 C2115 1.390 . S
C2120 C2119 1.387 . S
H2121 C2133 0.930 . S
H2122 C2135 0.930 . S
H2123 C2136 0.930 . S
H2124 C2140 0.959 . S
H2125 C2140 0.959 . S
H2126 C2140 0.961 . S
H2127 C2141 0.960 . S
H2128 C2141 0.961 . S
H2129 C2141 0.959 . S
H2130 C2144 0.929 . S
H2131 C2145 0.931 . S
H2132 C2147 0.930 . S
C2133 H2121 0.930 . S
C2133 C2134 1.399 . S
C2133 C2138 1.399 . S
C2134 C2133 1.399 . S
C2134 C2135 1.376 . S
C2135 H2122 0.930 . S
C2135 C2134 1.376 . S
C2135 C2136 1.388 . S
C2136 H2123 0.930 . S
C2136 C2135 1.388 . S
C2136 C2137 1.390 . S
C2137 C2136 1.390 . S
C2137 C2138 1.394 . S
C2137 C2143 1.465 . S
C2138 C2133 1.399 . S
C2138 C2137 1.394 . S
C2138 C2139 1.516 . S
C2139 C2138 1.516 . S
C2139 C2140 1.502 . S
C2139 C2141 1.561 . S
C2139 C2142 1.526 . S
C2140 H2124 0.959 . S
C2140 H2125 0.959 . S
C2140 H2126 0.961 . S
C2140 C2139 1.502 . S
C2141 H2127 0.960 . S
C2141 H2128 0.961 . S
C2141 H2129 0.959 . S
C2141 C2139 1.561 . S
C2142 C2139 1.526 . S
C2142 C2143 1.396 . S
C2142 C2147 1.390 . S
C2143 C2137 1.465 . S
C2143 C2142 1.396 . S
C2143 C2144 1.399 . S
C2144 H2130 0.929 . S
C2144 C2143 1.399 . S
C2144 C2145 1.385 . S
C2145 H2131 0.931 . S
C2145 C2144 1.385 . S
C2145 C2146 1.389 . S
C2146 C2145 1.389 . S
C2146 C2147 1.387 . S
C2147 H2132 0.930 . S
C2147 C2142 1.390 . S
C2147 C2146 1.387 . S
H2148 C2160 0.930 . S
H2149 C2162 0.930 . S
H2150 C2163 0.930 . S
H2151 C2167 0.959 . S
H2152 C2167 0.959 . S
H2153 C2167 0.961 . S
H2154 C2168 0.960 . S
H2155 C2168 0.961 . S
H2156 C2168 0.959 . S
H2157 C2171 0.929 . S
H2158 C2172 0.931 . S
H2159 C2174 0.930 . S
C2160 H2148 0.930 . S
C2160 C2161 1.399 . S
C2160 C2165 1.399 . S
C2161 C2160 1.399 . S
C2161 C2162 1.376 . S
C2162 H2149 0.930 . S
C2162 C2161 1.376 . S
C2162 C2163 1.388 . S
C2163 H2150 0.930 . S
C2163 C2162 1.388 . S
C2163 C2164 1.390 . S
C2164 C2163 1.390 . S
C2164 C2165 1.394 . S
C2164 C2170 1.465 . S
C2165 C2160 1.399 . S
C2165 C2164 1.394 . S
C2165 C2166 1.516 . S
C2166 C2165 1.516 . S
C2166 C2167 1.502 . S
C2166 C2168 1.561 . S
C2166 C2169 1.526 . S
C2167 H2151 0.959 . S
C2167 H2152 0.959 . S
C2167 H2153 0.961 . S
C2167 C2166 1.502 . S
C2168 H2154 0.960 . S
C2168 H2155 0.961 . S
C2168 H2156 0.959 . S
C2168 C2166 1.561 . S
C2169 C2166 1.526 . S
C2169 C2170 1.396 . S
C2169 C2174 1.390 . S
C2170 C2164 1.465 . S
C2170 C2169 1.396 . S
C2170 C2171 1.399 . S
C2171 H2157 0.929 . S
C2171 C2170 1.399 . S
C2171 C2172 1.385 . S
C2172 H2158 0.931 . S
C2172 C2171 1.385 . S
C2172 C2173 1.389 . S
C2173 C2172 1.389 . S
C2173 C2174 1.387 . S
C2174 H2159 0.930 . S
C2174 C2169 1.390 . S
C2174 C2173 1.387 . S
H2175 C2187 0.930 . S
H2176 C2189 0.930 . S
H2177 C2190 0.930 . S
H2178 C2194 0.959 . S
H2179 C2194 0.959 . S
H2180 C2194 0.961 . S
H2181 C2195 0.960 . S
H2182 C2195 0.961 . S
H2183 C2195 0.959 . S
H2184 C2198 0.929 . S
H2185 C2199 0.931 . S
H2186 C2201 0.930 . S
C2187 H2175 0.930 . S
C2187 C2188 1.399 . S
C2187 C2192 1.399 . S
C2188 C2187 1.399 . S
C2188 C2189 1.376 . S
C2189 H2176 0.930 . S
C2189 C2188 1.376 . S
C2189 C2190 1.388 . S
C2190 H2177 0.930 . S
C2190 C2189 1.388 . S
C2190 C2191 1.390 . S
C2191 C2190 1.390 . S
C2191 C2192 1.394 . S
C2191 C2197 1.465 . S
C2192 C2187 1.399 . S
C2192 C2191 1.394 . S
C2192 C2193 1.516 . S
C2193 C2192 1.516 . S
C2193 C2194 1.502 . S
C2193 C2195 1.561 . S
C2193 C2196 1.526 . S
C2194 H2178 0.959 . S
C2194 H2179 0.959 . S
C2194 H2180 0.961 . S
C2194 C2193 1.502 . S
C2195 H2181 0.960 . S
C2195 H2182 0.961 . S
C2195 H2183 0.959 . S
C2195 C2193 1.561 . S
C2196 C2193 1.526 . S
C2196 C2197 1.396 . S
C2196 C2201 1.390 . S
C2197 C2191 1.465 . S
C2197 C2196 1.396 . S
C2197 C2198 1.399 . S
C2198 H2184 0.929 . S
C2198 C2197 1.399 . S
C2198 C2199 1.385 . S
C2199 H2185 0.931 . S
C2199 C2198 1.385 . S
C2199 C2200 1.389 . S
C2200 C2199 1.389 . S
C2200 C2201 1.387 . S
C2201 H2186 0.930 . S
C2201 C2196 1.390 . S
C2201 C2200 1.387 . S
H2202 C2214 0.930 . S
H2203 C2216 0.930 . S
H2204 C2217 0.930 . S
H2205 C2221 0.959 . S
H2206 C2221 0.959 . S
H2207 C2221 0.961 . S
H2208 C2222 0.960 . S
H2209 C2222 0.961 . S
H2210 C2222 0.959 . S
H2211 C2225 0.929 . S
H2212 C2226 0.931 . S
H2213 C2228 0.930 . S
C2214 H2202 0.930 . S
C2214 C2215 1.399 . S
C2214 C2219 1.399 . S
C2215 C2214 1.399 . S
C2215 C2216 1.376 . S
C2216 H2203 0.930 . S
C2216 C2215 1.376 . S
C2216 C2217 1.388 . S
C2217 H2204 0.930 . S
C2217 C2216 1.388 . S
C2217 C2218 1.390 . S
C2218 C2217 1.390 . S
C2218 C2219 1.394 . S
C2218 C2224 1.465 . S
C2219 C2214 1.399 . S
C2219 C2218 1.394 . S
C2219 C2220 1.516 . S
C2220 C2219 1.516 . S
C2220 C2221 1.502 . S
C2220 C2222 1.561 . S
C2220 C2223 1.526 . S
C2221 H2205 0.959 . S
C2221 H2206 0.959 . S
C2221 H2207 0.961 . S
C2221 C2220 1.502 . S
C2222 H2208 0.960 . S
C2222 H2209 0.961 . S
C2222 H2210 0.959 . S
C2222 C2220 1.561 . S
C2223 C2220 1.526 . S
C2223 C2224 1.396 . S
C2223 C2228 1.390 . S
C2224 C2218 1.465 . S
C2224 C2223 1.396 . S
C2224 C2225 1.399 . S
C2225 H2211 0.929 . S
C2225 C2224 1.399 . S
C2225 C2226 1.385 . S
C2226 H2212 0.931 . S
C2226 C2225 1.385 . S
C2226 C2227 1.389 . S
C2227 C2226 1.389 . S
C2227 C2228 1.387 . S
C2228 H2213 0.930 . S
C2228 C2223 1.390 . S
C2228 C2227 1.387 . S
H2229 C2241 0.930 . S
H2230 C2243 0.930 . S
H2231 C2244 0.930 . S
H2232 C2248 0.959 . S
H2233 C2248 0.959 . S
H2234 C2248 0.961 . S
H2235 C2249 0.960 . S
H2236 C2249 0.961 . S
H2237 C2249 0.959 . S
H2238 C2252 0.929 . S
H2239 C2253 0.931 . S
H2240 C2255 0.930 . S
C2241 H2229 0.930 . S
C2241 C2242 1.399 . S
C2241 C2246 1.399 . S
C2242 C2241 1.399 . S
C2242 C2243 1.376 . S
C2243 H2230 0.930 . S
C2243 C2242 1.376 . S
C2243 C2244 1.388 . S
C2244 H2231 0.930 . S
C2244 C2243 1.388 . S
C2244 C2245 1.390 . S
C2245 C2244 1.390 . S
C2245 C2246 1.394 . S
C2245 C2251 1.465 . S
C2246 C2241 1.399 . S
C2246 C2245 1.394 . S
C2246 C2247 1.516 . S
C2247 C2246 1.516 . S
C2247 C2248 1.502 . S
C2247 C2249 1.561 . S
C2247 C2250 1.526 . S
C2248 H2232 0.959 . S
C2248 H2233 0.959 . S
C2248 H2234 0.961 . S
C2248 C2247 1.502 . S
C2249 H2235 0.960 . S
C2249 H2236 0.961 . S
C2249 H2237 0.959 . S
C2249 C2247 1.561 . S
C2250 C2247 1.526 . S
C2250 C2251 1.396 . S
C2250 C2255 1.390 . S
C2251 C2245 1.465 . S
C2251 C2250 1.396 . S
C2251 C2252 1.399 . S
C2252 H2238 0.929 . S
C2252 C2251 1.399 . S
C2252 C2253 1.385 . S
C2253 H2239 0.931 . S
C2253 C2252 1.385 . S
C2253 C2254 1.389 . S
C2254 C2253 1.389 . S
C2254 C2255 1.387 . S
C2255 H2240 0.930 . S
C2255 C2250 1.390 . S
C2255 C2254 1.387 . S
H2256 C2268 0.930 . S
H2257 C2270 0.930 . S
H2258 C2271 0.930 . S
H2259 C2275 0.959 . S
H2260 C2275 0.959 . S
H2261 C2275 0.961 . S
H2262 C2276 0.960 . S
H2263 C2276 0.961 . S
H2264 C2276 0.959 . S
H2265 C2279 0.929 . S
H2266 C2280 0.931 . S
H2267 C2282 0.930 . S
C2268 H2256 0.930 . S
C2268 C2269 1.399 . S
C2268 C2273 1.399 . S
C2269 C2268 1.399 . S
C2269 C2270 1.376 . S
C2270 H2257 0.930 . S
C2270 C2269 1.376 . S
C2270 C2271 1.388 . S
C2271 H2258 0.930 . S
C2271 C2270 1.388 . S
C2271 C2272 1.390 . S
C2272 C2271 1.390 . S
C2272 C2273 1.394 . S
C2272 C2278 1.465 . S
C2273 C2268 1.399 . S
C2273 C2272 1.394 . S
C2273 C2274 1.516 . S
C2274 C2273 1.516 . S
C2274 C2275 1.502 . S
C2274 C2276 1.561 . S
C2274 C2277 1.526 . S
C2275 H2259 0.959 . S
C2275 H2260 0.959 . S
C2275 H2261 0.961 . S
C2275 C2274 1.502 . S
C2276 H2262 0.960 . S
C2276 H2263 0.961 . S
C2276 H2264 0.959 . S
C2276 C2274 1.561 . S
C2277 C2274 1.526 . S
C2277 C2278 1.396 . S
C2277 C2282 1.390 . S
C2278 C2272 1.465 . S
C2278 C2277 1.396 . S
C2278 C2279 1.399 . S
C2279 H2265 0.929 . S
C2279 C2278 1.399 . S
C2279 C2280 1.385 . S
C2280 H2266 0.931 . S
C2280 C2279 1.385 . S
C2280 C2281 1.389 . S
C2281 C2280 1.389 . S
C2281 C2282 1.387 . S
C2282 H2267 0.930 . S
C2282 C2277 1.390 . S
C2282 C2281 1.387 . S
H2283 C2295 0.930 . S
H2284 C2297 0.930 . S
H2285 C2298 0.930 . S
H2286 C2302 0.959 . S
H2287 C2302 0.959 . S
H2288 C2302 0.961 . S
H2289 C2303 0.960 . S
H2290 C2303 0.961 . S
H2291 C2303 0.959 . S
H2292 C2306 0.929 . S
H2293 C2307 0.931 . S
H2294 C2309 0.930 . S
C2295 H2283 0.930 . S
C2295 C2296 1.399 . S
C2295 C2300 1.399 . S
C2296 C2295 1.399 . S
C2296 C2297 1.376 . S
C2297 H2284 0.930 . S
C2297 C2296 1.376 . S
C2297 C2298 1.388 . S
C2298 H2285 0.930 . S
C2298 C2297 1.388 . S
C2298 C2299 1.390 . S
C2299 C2298 1.390 . S
C2299 C2300 1.394 . S
C2299 C2305 1.465 . S
C2300 C2295 1.399 . S
C2300 C2299 1.394 . S
C2300 C2301 1.516 . S
C2301 C2300 1.516 . S
C2301 C2302 1.502 . S
C2301 C2303 1.561 . S
C2301 C2304 1.526 . S
C2302 H2286 0.959 . S
C2302 H2287 0.959 . S
C2302 H2288 0.961 . S
C2302 C2301 1.502 . S
C2303 H2289 0.960 . S
C2303 H2290 0.961 . S
C2303 H2291 0.959 . S
C2303 C2301 1.561 . S
C2304 C2301 1.526 . S
C2304 C2305 1.396 . S
C2304 C2309 1.390 . S
C2305 C2299 1.465 . S
C2305 C2304 1.396 . S
C2305 C2306 1.399 . S
C2306 H2292 0.929 . S
C2306 C2305 1.399 . S
C2306 C2307 1.385 . S
C2307 H2293 0.931 . S
C2307 C2306 1.385 . S
C2307 C2308 1.389 . S
C2308 C2307 1.389 . S
C2308 C2309 1.387 . S
C2309 H2294 0.930 . S
C2309 C2304 1.390 . S
C2309 C2308 1.387 . S
H2310 C2322 0.930 . S
H2311 C2324 0.930 . S
H2312 C2325 0.930 . S
H2313 C2329 0.959 . S
H2314 C2329 0.959 . S
H2315 C2329 0.961 . S
H2316 C2330 0.960 . S
H2317 C2330 0.961 . S
H2318 C2330 0.959 . S
H2319 C2333 0.929 . S
H2320 C2334 0.931 . S
H2321 C2336 0.930 . S
C2322 H2310 0.930 . S
C2322 C2323 1.399 . S
C2322 C2327 1.399 . S
C2323 C2322 1.399 . S
C2323 C2324 1.376 . S
C2324 H2311 0.930 . S
C2324 C2323 1.376 . S
C2324 C2325 1.388 . S
C2325 H2312 0.930 . S
C2325 C2324 1.388 . S
C2325 C2326 1.390 . S
C2326 C2325 1.390 . S
C2326 C2327 1.394 . S
C2326 C2332 1.465 . S
C2327 C2322 1.399 . S
C2327 C2326 1.394 . S
C2327 C2328 1.516 . S
C2328 C2327 1.516 . S
C2328 C2329 1.502 . S
C2328 C2330 1.561 . S
C2328 C2331 1.526 . S
C2329 H2313 0.959 . S
C2329 H2314 0.959 . S
C2329 H2315 0.961 . S
C2329 C2328 1.502 . S
C2330 H2316 0.960 . S
C2330 H2317 0.961 . S
C2330 H2318 0.959 . S
C2330 C2328 1.561 . S
C2331 C2328 1.526 . S
C2331 C2332 1.396 . S
C2331 C2336 1.390 . S
C2332 C2326 1.465 . S
C2332 C2331 1.396 . S
C2332 C2333 1.399 . S
C2333 H2319 0.929 . S
C2333 C2332 1.399 . S
C2333 C2334 1.385 . S
C2334 H2320 0.931 . S
C2334 C2333 1.385 . S
C2334 C2335 1.389 . S
C2335 C2334 1.389 . S
C2335 C2336 1.387 . S
C2336 H2321 0.930 . S
C2336 C2331 1.390 . S
C2336 C2335 1.387 . S
H2337 C2349 0.930 . S
H2338 C2351 0.930 . S
H2339 C2352 0.930 . S
H2340 C2356 0.959 . S
H2341 C2356 0.959 . S
H2342 C2356 0.961 . S
H2343 C2357 0.960 . S
H2344 C2357 0.961 . S
H2345 C2357 0.959 . S
H2346 C2360 0.929 . S
H2347 C2361 0.931 . S
H2348 C2363 0.930 . S
C2349 H2337 0.930 . S
C2349 C2350 1.399 . S
C2349 C2354 1.399 . S
C2350 C2349 1.399 . S
C2350 C2351 1.376 . S
C2351 H2338 0.930 . S
C2351 C2350 1.376 . S
C2351 C2352 1.388 . S
C2352 H2339 0.930 . S
C2352 C2351 1.388 . S
C2352 C2353 1.390 . S
C2353 C2352 1.390 . S
C2353 C2354 1.394 . S
C2353 C2359 1.465 . S
C2354 C2349 1.399 . S
C2354 C2353 1.394 . S
C2354 C2355 1.516 . S
C2355 C2354 1.516 . S
C2355 C2356 1.502 . S
C2355 C2357 1.561 . S
C2355 C2358 1.526 . S
C2356 H2340 0.959 . S
C2356 H2341 0.959 . S
C2356 H2342 0.961 . S
C2356 C2355 1.502 . S
C2357 H2343 0.960 . S
C2357 H2344 0.961 . S
C2357 H2345 0.959 . S
C2357 C2355 1.561 . S
C2358 C2355 1.526 . S
C2358 C2359 1.396 . S
C2358 C2363 1.390 . S
C2359 C2353 1.465 . S
C2359 C2358 1.396 . S
C2359 C2360 1.399 . S
C2360 H2346 0.929 . S
C2360 C2359 1.399 . S
C2360 C2361 1.385 . S
C2361 H2347 0.931 . S
C2361 C2360 1.385 . S
C2361 C2362 1.389 . S
C2362 C2361 1.389 . S
C2362 C2363 1.387 . S
C2363 H2348 0.930 . S
C2363 C2358 1.390 . S
C2363 C2362 1.387 . S
H2364 C2376 0.930 . S
H2365 C2378 0.930 . S
H2366 C2379 0.930 . S
H2367 C2383 0.959 . S
H2368 C2383 0.959 . S
H2369 C2383 0.961 . S
H2370 C2384 0.960 . S
H2371 C2384 0.961 . S
H2372 C2384 0.959 . S
H2373 C2387 0.929 . S
H2374 C2388 0.931 . S
H2375 C2390 0.930 . S
C2376 H2364 0.930 . S
C2376 C2377 1.399 . S
C2376 C2381 1.399 . S
C2377 C2376 1.399 . S
C2377 C2378 1.376 . S
C2378 H2365 0.930 . S
C2378 C2377 1.376 . S
C2378 C2379 1.388 . S
C2379 H2366 0.930 . S
C2379 C2378 1.388 . S
C2379 C2380 1.390 . S
C2380 C2379 1.390 . S
C2380 C2381 1.394 . S
C2380 C2386 1.465 . S
C2381 C2376 1.399 . S
C2381 C2380 1.394 . S
C2381 C2382 1.516 . S
C2382 C2381 1.516 . S
C2382 C2383 1.502 . S
C2382 C2384 1.561 . S
C2382 C2385 1.526 . S
C2383 H2367 0.959 . S
C2383 H2368 0.959 . S
C2383 H2369 0.961 . S
C2383 C2382 1.502 . S
C2384 H2370 0.960 . S
C2384 H2371 0.961 . S
C2384 H2372 0.959 . S
C2384 C2382 1.561 . S
C2385 C2382 1.526 . S
C2385 C2386 1.396 . S
C2385 C2390 1.390 . S
C2386 C2380 1.465 . S
C2386 C2385 1.396 . S
C2386 C2387 1.399 . S
C2387 H2373 0.929 . S
C2387 C2386 1.399 . S
C2387 C2388 1.385 . S
C2388 H2374 0.931 . S
C2388 C2387 1.385 . S
C2388 C2389 1.389 . S
C2389 C2388 1.389 . S
C2389 C2390 1.387 . S
C2390 H2375 0.930 . S
C2390 C2385 1.390 . S
C2390 C2389 1.387 . S
H2391 C2403 0.930 . S
H2392 C2405 0.930 . S
H2393 C2406 0.930 . S
H2394 C2410 0.959 . S
H2395 C2410 0.959 . S
H2396 C2410 0.961 . S
H2397 C2411 0.960 . S
H2398 C2411 0.961 . S
H2399 C2411 0.959 . S
H2400 C2414 0.929 . S
H2401 C2415 0.931 . S
H2402 C2417 0.930 . S
C2403 H2391 0.930 . S
C2403 C2404 1.399 . S
C2403 C2408 1.399 . S
C2404 C2403 1.399 . S
C2404 C2405 1.376 . S
C2405 H2392 0.930 . S
C2405 C2404 1.376 . S
C2405 C2406 1.388 . S
C2406 H2393 0.930 . S
C2406 C2405 1.388 . S
C2406 C2407 1.390 . S
C2407 C2406 1.390 . S
C2407 C2408 1.394 . S
C2407 C2413 1.465 . S
C2408 C2403 1.399 . S
C2408 C2407 1.394 . S
C2408 C2409 1.516 . S
C2409 C2408 1.516 . S
C2409 C2410 1.502 . S
C2409 C2411 1.561 . S
C2409 C2412 1.526 . S
C2410 H2394 0.959 . S
C2410 H2395 0.959 . S
C2410 H2396 0.961 . S
C2410 C2409 1.502 . S
C2411 H2397 0.960 . S
C2411 H2398 0.961 . S
C2411 H2399 0.959 . S
C2411 C2409 1.561 . S
C2412 C2409 1.526 . S
C2412 C2413 1.396 . S
C2412 C2417 1.390 . S
C2413 C2407 1.465 . S
C2413 C2412 1.396 . S
C2413 C2414 1.399 . S
C2414 H2400 0.929 . S
C2414 C2413 1.399 . S
C2414 C2415 1.385 . S
C2415 H2401 0.931 . S
C2415 C2414 1.385 . S
C2415 C2416 1.389 . S
C2416 C2415 1.389 . S
C2416 C2417 1.387 . S
C2417 H2402 0.930 . S
C2417 C2412 1.390 . S
C2417 C2416 1.387 . S
H2418 C2430 0.930 . S
H2419 C2432 0.930 . S
H2420 C2433 0.930 . S
H2421 C2437 0.959 . S
H2422 C2437 0.959 . S
H2423 C2437 0.961 . S
H2424 C2438 0.960 . S
H2425 C2438 0.961 . S
H2426 C2438 0.959 . S
H2427 C2441 0.929 . S
H2428 C2442 0.931 . S
H2429 C2444 0.930 . S
C2430 H2418 0.930 . S
C2430 C2431 1.399 . S
C2430 C2435 1.399 . S
C2431 C2430 1.399 . S
C2431 C2432 1.376 . S
C2432 H2419 0.930 . S
C2432 C2431 1.376 . S
C2432 C2433 1.388 . S
C2433 H2420 0.930 . S
C2433 C2432 1.388 . S
C2433 C2434 1.390 . S
C2434 C2433 1.390 . S
C2434 C2435 1.394 . S
C2434 C2440 1.465 . S
C2435 C2430 1.399 . S
C2435 C2434 1.394 . S
C2435 C2436 1.516 . S
C2436 C2435 1.516 . S
C2436 C2437 1.502 . S
C2436 C2438 1.561 . S
C2436 C2439 1.526 . S
C2437 H2421 0.959 . S
C2437 H2422 0.959 . S
C2437 H2423 0.961 . S
C2437 C2436 1.502 . S
C2438 H2424 0.960 . S
C2438 H2425 0.961 . S
C2438 H2426 0.959 . S
C2438 C2436 1.561 . S
C2439 C2436 1.526 . S
C2439 C2440 1.396 . S
C2439 C2444 1.390 . S
C2440 C2434 1.465 . S
C2440 C2439 1.396 . S
C2440 C2441 1.399 . S
C2441 H2427 0.929 . S
C2441 C2440 1.399 . S
C2441 C2442 1.385 . S
C2442 H2428 0.931 . S
C2442 C2441 1.385 . S
C2442 C2443 1.389 . S
C2443 C2442 1.389 . S
C2443 C2444 1.387 . S
C2444 H2429 0.930 . S
C2444 C2439 1.390 . S
C2444 C2443 1.387 . S
H2445 C2457 0.930 . S
H2446 C2459 0.930 . S
H2447 C2460 0.930 . S
H2448 C2464 0.959 . S
H2449 C2464 0.959 . S
H2450 C2464 0.961 . S
H2451 C2465 0.960 . S
H2452 C2465 0.961 . S
H2453 C2465 0.959 . S
H2454 C2468 0.929 . S
H2455 C2469 0.931 . S
H2456 C2471 0.930 . S
C2457 H2445 0.930 . S
C2457 C2458 1.399 . S
C2457 C2462 1.399 . S
C2458 C2457 1.399 . S
C2458 C2459 1.376 . S
C2459 H2446 0.930 . S
C2459 C2458 1.376 . S
C2459 C2460 1.388 . S
C2460 H2447 0.930 . S
C2460 C2459 1.388 . S
C2460 C2461 1.390 . S
C2461 C2460 1.390 . S
C2461 C2462 1.394 . S
C2461 C2467 1.465 . S
C2462 C2457 1.399 . S
C2462 C2461 1.394 . S
C2462 C2463 1.516 . S
C2463 C2462 1.516 . S
C2463 C2464 1.502 . S
C2463 C2465 1.561 . S
C2463 C2466 1.526 . S
C2464 H2448 0.959 . S
C2464 H2449 0.959 . S
C2464 H2450 0.961 . S
C2464 C2463 1.502 . S
C2465 H2451 0.960 . S
C2465 H2452 0.961 . S
C2465 H2453 0.959 . S
C2465 C2463 1.561 . S
C2466 C2463 1.526 . S
C2466 C2467 1.396 . S
C2466 C2471 1.390 . S
C2467 C2461 1.465 . S
C2467 C2466 1.396 . S
C2467 C2468 1.399 . S
C2468 H2454 0.929 . S
C2468 C2467 1.399 . S
C2468 C2469 1.385 . S
C2469 H2455 0.931 . S
C2469 C2468 1.385 . S
C2469 C2470 1.389 . S
C2470 C2469 1.389 . S
C2470 C2471 1.387 . S
C2471 H2456 0.930 . S
C2471 C2466 1.390 . S
C2471 C2470 1.387 . S
C541 C8 1.823 . S
C553 C250 1.727 . S
C568 C448 1.844 . S
C580 C19 1.731 . S
C595 C30 1.786 . S
C607 C261 1.717 . S
C622 C41 1.742 . S
C634 C503 1.806 . S
C649 C206 1.741 . S
C661 C52 1.806 . S
C676 C63 1.740 . S
C688 C217 1.794 . S
C703 C492 1.709 . S
C715 C74 1.775 . S
C730 C195 1.803 . S
C742 C85 1.692 . S
C757 C151 1.721 . S
C769 C96 1.832 . S
C784 C162 1.791 . S
C796 C107 1.764 . S
C811 C118 1.794 . S
C823 C173 1.734 . S
C838 C129 1.667 . S
C850 C140 1.676 . S
C865 C283 1.744 . S
C877 C184 1.811 . S
C892 C338 1.771 . S
C904 C228 1.760 . S
C919 C305 1.692 . S
C931 C239 1.735 . S
C946 C272 1.822 . S
C958 C514 1.780 . S
C973 C294 1.688 . S
C985 C525 1.666 . S
C1000 C316 1.725 . S
C1012 C470 1.709 . S
C1027 C327 1.645 . S
C1039 C481 1.682 . S
C1054 C349 1.704 . S
C1066 C459 1.762 . S
C1081 C415 1.802 . S
C1093 C360 1.820 . S
C1108 C426 1.724 . S
C1120 C371 1.680 . S
C1135 C437 1.740 . S
C1147 C382 1.760 . S
C1162 C404 1.795 . S
C1174 C393 1.737 . S
C1189 C7 1.655 1_455 S
C1201 C84 1.566 . S
C1216 C51 1.609 . S
C1228 C18 1.491 . S
C1243 C29 1.602 . S
C1255 C62 1.463 . S
C1270 C40 1.489 . S
C1282 C73 1.637 . S
C1297 C95 1.606 . S
C1309 C227 1.566 . S
C1324 C106 1.548 . S
C1336 C458 1.636 . S
C1351 C469 1.472 . S
C1363 C117 1.554 . S
C1378 C480 1.543 . S
C1390 C128 1.510 . S
C1405 C139 1.548 . S
C1417 C524 1.526 . S
C1432 C150 1.541 . S
C1444 C238 1.599 . S
C1459 C161 1.644 1_545 S
C1471 C513 1.499 . S
C1486 C183 1.607 . S
C1498 C172 1.575 . S
C1513 C370 1.488 . S
C1525 C194 1.548 . S
C1540 C381 1.637 . S
C1552 C205 1.491 . S
C1567 C392 1.460 . S
C1579 C216 1.606 . S
C1594 C249 1.551 . S
C1606 C425 1.630 . S
C1621 C403 1.586 . S
C1633 C260 1.542 . S
C1648 C348 1.447 . S
C1660 C271 1.601 . S
C1675 C282 1.553 . S
C1687 C315 1.601 . S
C1702 C293 1.569 . S
C1714 C326 1.437 . S
C1729 C337 1.514 . S
C1741 C304 1.427 . S
C1756 C491 1.518 . S
C1768 C359 1.602 . S
C1783 C414 1.531 . S
C1795 C502 1.594 . S
C1810 C447 1.603 . S
C1822 C436 1.454 . S
C1837 C324 1.068 . S
C1849 C5 1.396 . S
C1864 C335 1.729 . S
C1876 C16 1.476 . S
C1891 C346 1.399 . S
C1903 C27 1.593 . S
C1918 C313 1.539 . S
C1930 C38 1.197 . S
C1945 C49 1.522 . S
C1957 C302 1.270 . S
C1972 C60 1.419 . S
C1984 C269 1.612 . S
C1999 C71 1.513 . S
C2011 C280 1.222 . S
C2026 C291 1.655 . S
C2038 C82 1.409 . S
C2053 C93 1.339 . S
C2065 C522 1.104 . S
C2080 C104 1.328 . S
C2092 C236 1.600 . S
C2107 C115 1.639 . S
C2119 C511 1.383 . S
C2134 C181 1.447 . S
C2146 C126 1.145 . S
C2161 C137 1.570 . S
C2173 C225 1.279 . S
C2188 C456 1.591 . S
C2200 C148 1.365 . S
C2215 C159 1.512 . S
C2227 C467 1.176 . S
C2242 C478 1.575 . S
C2254 C170 1.272 . S
C2269 C412 1.467 . S
C2281 C192 1.737 . S
C2296 C423 1.583 . S
C2308 C203 1.242 . S
C2323 C214 1.629 . S
C2335 C434 1.415 . S
C2350 C247 1.362 . S
C2362 C379 1.560 . S
C2377 C258 1.424 . S
C2389 C357 1.622 . S
C2404 C368 1.212 . S
C2416 C500 1.415 . S
C2431 C390 1.343 . S
C2443 C445 1.661 . S
C2458 C401 1.557 . S
C2470 C489 1.308 . S
