# Generated by pormake.
# Topology bcg, (8)-cn, num edge types: 1
# Building blocks:
#     Node 0, Type 0, BuildingBlock: LIZSOE_clean_sbu_0, # of connection points: 8
#     Node 1, Type 0, BuildingBlock: LIZSOE_clean_sbu_0, # of connection points: 8
#     Node 2, Type 0, BuildingBlock: LIZSOE_clean_sbu_0, # of connection points: 8
#     Node 3, Type 0, BuildingBlock: LIZSOE_clean_sbu_0, # of connection points: 8
#     Edge 4, Type (0, 0), BuildingBlock: ZUJKAS_clean_linker_0, # of connection points: 2
#     Edge 5, Type (0, 0), BuildingBlock: ZUJKAS_clean_linker_0, # of connection points: 2
#     Edge 6, Type (0, 0), BuildingBlock: ZUJKAS_clean_linker_0, # of connection points: 2
#     Edge 7, Type (0, 0), BuildingBlock: ZUJKAS_clean_linker_0, # of connection points: 2
#     Edge 8, Type (0, 0), BuildingBlock: ZUJKAS_clean_linker_0, # of connection points: 2
#     Edge 9, Type (0, 0), BuildingBlock: ZUJKAS_clean_linker_0, # of connection points: 2
#     Edge 10, Type (0, 0), BuildingBlock: ZUJKAS_clean_linker_0, # of connection points: 2
#     Edge 11, Type (0, 0), BuildingBlock: ZUJKAS_clean_linker_0, # of connection points: 2
#     Edge 12, Type (0, 0), BuildingBlock: ZUJKAS_clean_linker_0, # of connection points: 2
#     Edge 13, Type (0, 0), BuildingBlock: ZUJKAS_clean_linker_0, # of connection points: 2
#     Edge 14, Type (0, 0), BuildingBlock: ZUJKAS_clean_linker_0, # of connection points: 2
#     Edge 15, Type (0, 0), BuildingBlock: ZUJKAS_clean_linker_0, # of connection points: 2
#     Edge 16, Type (0, 0), BuildingBlock: ZUJKAS_clean_linker_0, # of connection points: 2
#     Edge 17, Type (0, 0), BuildingBlock: ZUJKAS_clean_linker_0, # of connection points: 2
#     Edge 18, Type (0, 0), BuildingBlock: ZUJKAS_clean_linker_0, # of connection points: 2
#     Edge 19, Type (0, 0), BuildingBlock: ZUJKAS_clean_linker_0, # of connection points: 2
# Relax obj value: 0.199
# Max RMSD: 0.292
# Mean RMSD: 0.292
data_MOF--net-bcg--node1-LIZSOE_clean_sbu_0--edge1-ZUJKAS_clean_linker_0
_symmetry_space_group_name_H-M    P1
_symmetry_Int_Tables_number       1
_symmetry_cell_setting            triclinic
loop_
_symmetry_equiv_pos_as_xyz
'x, y, z'
_cell_length_a     26.196866
_cell_length_b     30.281249
_cell_length_c     28.874113
_cell_angle_alpha  90.185416
_cell_angle_beta   91.021229
_cell_angle_gamma 89.959723
loop_
_atom_site_label
_atom_site_type_symbol
_atom_site_fract_x
_atom_site_fract_y
_atom_site_fract_z
_atom_type_partial_charge
Co0 Co 0.135 0.29938 0.98759 0.0
N1 N 0.06435 0.29593 0.99501 0.0
C2 C 0.03705 0.31216 0.03043 0.0
N3 N 0.98151 0.28067 0.98242 0.0
C4 C 0.02936 0.2774 0.96601 0.0
C5 C 0.98624 0.30274 0.02283 0.0
Co6 Co 0.35759 0.24214 0.05855 0.0
N7 N 0.42833 0.2356 0.0539 0.0
N8 N 0.50817 0.21853 0.03389 0.0
C9 C 0.5103 0.25147 0.06522 0.0
C10 C 0.46142 0.26165 0.07762 0.0
C11 C 0.45811 0.20869 0.0282 0.0
Co12 Co 0.24702 0.27581 0.02132 0.0
C13 C 0.32592 0.21403 0.08006 0.0
H14 H 0.45059 0.28713 0.10188 0.0
O15 O 0.19987 0.30712 0.97657 0.0
O16 O 0.2807 0.2542 0.9639 0.0
O17 O 0.20189 0.22059 0.01828 0.0
O18 O 0.21301 0.29881 0.07795 0.0
O19 O 0.13807 0.28089 0.05051 0.0
O20 O 0.35736 0.247 0.99409 0.0
O21 O 0.29281 0.24527 0.06765 0.0
O22 O 0.36411 0.30393 0.06215 0.0
O23 O 0.13771 0.23987 0.96985 0.0
O24 O 0.14063 0.3549 1.00861 0.0
O25 O 0.29395 0.32945 0.02401 0.0
O26 O 0.34309 0.18435 0.05159 0.0
C27 C 0.16369 0.21053 0.99141 0.0
C28 C 0.43858 0.16891 1.00214 0.0
H29 H 0.40704 0.17809 0.97823 0.0
H30 H 0.46879 0.15202 0.98244 0.0
H31 H 0.42357 0.14477 0.02727 0.0
C32 C 0.3281 0.24887 0.95935 0.0
C33 C 0.16681 0.28965 0.0846 0.0
H34 H 0.0531 0.3297 0.05995 0.0
H35 H 0.01172 0.26808 0.89366 0.0
H36 H 0.04445 0.22272 0.92123 0.0
H37 H 0.07917 0.27156 0.90789 0.0
C38 C 0.04194 0.25915 0.91938 0.0
C39 C 0.16136 0.33578 0.97307 0.0
C40 C 0.33768 0.33539 0.04452 0.0
H41 H 0.95517 0.31108 0.04549 0.0
H42 H 0.54478 0.26799 0.07712 0.0
Co43 Co 0.63709 0.79885 0.98517 0.0
N44 N 0.56671 0.79898 0.991 0.0
C45 C 0.53971 0.83304 1.00845 0.0
N46 N 0.48318 0.78532 0.98203 0.0
C47 C 0.53077 0.77012 0.97509 0.0
C48 C 0.48836 0.82449 1.00345 0.0
Co49 Co 0.86127 0.74501 0.06195 0.0
N50 N 0.93232 0.74059 0.05993 0.0
N51 N 0.01294 0.72542 0.04101 0.0
C52 C 0.01337 0.76012 0.07022 0.0
C53 C 0.96394 0.76917 0.08197 0.0
C54 C 0.96351 0.71338 0.03602 0.0
Co55 Co 0.75141 0.77164 0.01805 0.0
C56 C 0.83006 0.71663 0.0836 0.0
H57 H 0.95166 0.79589 0.1041 0.0
O58 O 0.7031 0.79943 0.97159 0.0
O59 O 0.79027 0.75087 0.96239 0.0
O60 O 0.71315 0.71462 0.017 0.0
O61 O 0.70994 0.79347 0.07249 0.0
O62 O 0.64488 0.83064 0.04031 0.0
O63 O 0.86387 0.74748 0.99807 0.0
O64 O 0.79658 0.74633 0.06818 0.0
O65 O 0.86444 0.80729 0.06193 0.0
O66 O 0.63704 0.74527 0.01896 0.0
O67 O 0.63631 0.7678 0.93459 0.0
O68 O 0.79394 0.82803 0.02069 0.0
O69 O 0.84969 0.68629 0.05745 0.0
C70 C 0.6658 0.71216 0.0248 0.0
C71 C 0.94604 0.67203 1.01134 0.0
H72 H 0.91677 0.6797 0.98446 0.0
H73 H 0.97787 0.65396 0.99515 0.0
H74 H 0.92912 0.6492 0.03674 0.0
C75 C 0.8383 0.74793 0.96106 0.0
C76 C 0.67127 0.81933 0.07568 0.0
H77 H 0.55621 0.86308 0.02238 0.0
H78 H 0.54557 0.73292 0.91353 0.0
H79 H 0.50942 0.70337 0.95559 0.0
H80 H 0.57655 0.71095 0.96447 0.0
C81 C 0.54142 0.72688 0.95116 0.0
C82 C 0.68256 0.78266 0.93337 0.0
C83 C 0.83679 0.83674 0.04184 0.0
H84 H 0.45726 0.846 0.0131 0.0
H85 H 0.04688 0.77887 0.08055 0.0
Co86 Co 0.37297 0.79827 0.56185 0.0
N87 N 0.4444 0.79936 0.55687 0.0
C88 C 0.46942 0.82026 0.52283 0.0
N89 N 0.52838 0.78543 0.56397 0.0
C90 C 0.48175 0.77904 0.58216 0.0
C91 C 0.52067 0.81125 0.5267 0.0
Co92 Co 0.1537 0.72747 0.48761 0.0
N93 N 0.08429 0.71385 0.49172 0.0
N94 N 0.00533 0.6903 0.5073 0.0
C95 C 1.00162 0.72307 0.47616 0.0
C96 C 0.04991 0.73727 0.46661 0.0
C97 C 0.05583 0.6847 0.51581 0.0
Co98 Co 0.26181 0.76984 0.5245 0.0
C99 C 0.1872 0.7073 0.45933 0.0
H100 H 0.05939 0.76408 0.44369 0.0
O101 O 0.30741 0.80157 0.57082 0.0
O102 O 0.22828 0.74811 0.58182 0.0
O103 O 0.30894 0.71615 0.52646 0.0
O104 O 0.2958 0.79324 0.46801 0.0
O105 O 0.37237 0.78531 0.49782 0.0
O106 O 0.15776 0.72027 0.55201 0.0
O107 O 0.21707 0.73837 0.47786 0.0
O108 O 0.13959 0.78815 0.49751 0.0
O109 O 0.37397 0.73747 0.57297 0.0
O110 O 0.36412 0.8552 0.54623 0.0
O111 O 0.21234 0.82146 0.52254 0.0
O112 O 0.1744 0.67143 0.48109 0.0
C113 C 0.34891 0.7075 0.55145 0.0
C114 C 0.07696 0.64817 0.54539 0.0
H115 H 0.11854 0.64388 0.54162 0.0
H116 H 0.0686 0.655 0.5821 0.0
H117 H 0.05741 0.61677 0.53612 0.0
C118 C 0.18594 0.72882 0.58652 0.0
C119 C 0.34335 0.78902 0.46291 0.0
H120 H 0.45124 0.83947 0.49566 0.0
H121 H 0.49277 0.76538 0.65451 0.0
H122 H 0.48923 0.71741 0.61828 0.0
H123 H 0.43253 0.74797 0.63293 0.0
C124 C 0.47295 0.7508 0.62397 0.0
C125 C 0.34266 0.83251 0.57876 0.0
C126 C 0.16435 0.82228 0.51143 0.0
H127 H 0.54992 0.82161 0.50305 0.0
H128 H 0.96626 0.73718 0.463 0.0
Co129 Co 0.64937 0.24186 0.4789 0.0
N130 N 0.5782 0.23836 0.48022 0.0
C131 C 0.547 0.26688 0.45771 0.0
N132 N 0.49717 0.22324 0.4976 0.0
C133 C 0.54652 0.21126 0.50348 0.0
C134 C 0.49729 0.25783 0.4685 0.0
Co135 Co 0.87112 0.29029 0.56223 0.0
N136 N 0.9417 0.28774 0.5602 0.0
N137 N 0.02392 0.26911 0.56879 0.0
C138 C 0.02175 0.3086 0.5479 0.0
C139 C 0.97123 0.32024 0.54321 0.0
C140 C 0.97532 0.25684 0.5759 0.0
Co141 Co 0.75851 0.2663 0.52397 0.0
C142 C 0.8235 0.2785 0.61145 0.0
H143 H 0.95706 0.35092 0.5289 0.0
O144 O 0.71424 0.24197 0.47284 0.0
O145 O 0.79596 0.20866 0.52375 0.0
O146 O 0.71882 0.24427 0.57815 0.0
O147 O 0.71621 0.32298 0.52179 0.0
O148 O 0.64745 0.30412 0.47701 0.0
O149 O 0.87196 0.23845 0.52647 0.0
O150 O 0.80527 0.29369 0.57176 0.0
O151 O 0.86798 0.32333 0.50773 0.0
O152 O 0.64515 0.24677 0.54279 0.0
O153 O 0.66031 0.18317 0.48586 0.0
O154 O 0.8019 0.28981 0.47181 0.0
O155 O 0.86627 0.25705 0.61172 0.0
C156 C 0.67079 0.24495 0.57969 0.0
C157 C 0.96132 0.21429 0.59937 0.0
H158 H 0.92601 0.19974 0.58464 0.0
H159 H 0.99216 0.18937 0.59633 0.0
H160 H 0.95554 0.22091 0.63674 0.0
C161 C 0.84353 0.20591 0.51757 0.0
C162 C 0.6748 0.33284 0.49883 0.0
H163 H 0.55971 0.29336 0.43569 0.0
H164 H 0.57984 0.14664 0.50279 0.0
H165 H 0.53163 0.15227 0.54467 0.0
H166 H 0.59305 0.17753 0.55495 0.0
C167 C 0.5635 0.16992 0.52825 0.0
C168 C 0.68072 0.21182 0.45848 0.0
C169 C 0.84165 0.31477 0.47124 0.0
H170 H 0.46389 0.27634 0.4574 0.0
H171 H 0.05443 0.32789 0.53766 0.0
H172 H 0.51491 0.21042 0.94095 0.0
H173 H 0.59245 0.19398 0.89771 0.0
H174 H 0.67622 0.18035 0.02718 0.0
H175 H 0.59845 0.19398 0.06969 0.0
H176 H 0.66931 0.24258 0.89406 0.0
H177 H 0.74604 0.08702 0.95854 0.0
H178 H 0.67993 0.10157 0.96693 0.0
H179 H 0.72852 0.11677 1.00938 0.0
C180 C 0.54954 0.2017 0.95984 0.0
C181 C 0.5509 0.20239 1.00854 0.0
C182 C 0.59381 0.19261 0.93521 0.0
C183 C 0.64012 0.18468 0.95903 0.0
C184 C 0.6408 0.18433 1.00776 0.0
H185 H 0.89098 0.32232 0.97936 0.0
H186 H 0.80964 0.29202 0.95234 0.0
C187 C 0.59658 0.19281 0.0322 0.0
C188 C 0.68939 0.18504 0.93463 0.0
H189 H 0.81062 0.1497 0.95563 0.0
C190 C 0.70001 0.22118 0.90599 0.0
C191 C 0.72949 0.15609 0.94754 0.0
C192 C 0.71997 0.11292 0.97179 0.0
C193 C 0.75048 0.23317 0.89691 0.0
C194 C 0.79073 0.2096 0.91884 0.0
C195 C 0.77994 0.16925 0.94048 0.0
C196 C 0.84134 0.23004 0.92801 0.0
C197 C 0.75991 0.27253 0.86638 0.0
C198 C 0.88625 0.20499 0.925 0.0
C199 C 0.93239 0.22175 0.94237 0.0
C200 C 0.93475 0.26422 0.96207 0.0
C201 C 0.89017 0.28966 0.964 0.0
C202 C 0.84387 0.27262 0.94756 0.0
H203 H 0.73266 0.27245 0.83643 0.0
H204 H 0.75305 0.30334 0.88624 0.0
H205 H 0.79946 0.27289 0.85315 0.0
H206 H 0.88526 0.17173 0.91107 0.0
H207 H 0.96562 0.20068 0.94218 0.0
H208 H 0.10629 0.70712 0.07498 0.0
H209 H 0.1827 0.6923 0.03009 0.0
H210 H 0.09235 0.69571 0.90369 0.0
H211 H 0.01643 0.71251 0.94862 0.0
H212 H 0.21309 0.62879 0.96634 0.0
H213 H 0.19158 0.79386 0.88207 0.0
H214 H 0.15065 0.77848 0.92882 0.0
H215 H 0.14313 0.7526 0.87301 0.0
C216 C 0.10289 0.70394 0.03769 0.0
C217 C 0.05582 0.71046 0.01516 0.0
C218 C 0.14621 0.69515 0.01205 0.0
C219 C 0.14313 0.69291 0.96344 0.0
C220 C 0.09559 0.69736 0.94099 0.0
H221 H 0.45259 0.76888 0.89432 0.0
H222 H 0.3722 0.73281 0.86941 0.0
C223 C 0.05229 0.70663 0.96668 0.0
C224 C 0.19115 0.69174 0.93759 0.0
H225 H 0.27386 0.76656 0.89323 0.0
C226 C 0.22613 0.65809 0.94855 0.0
C227 C 0.20778 0.72939 0.91308 0.0
C228 C 0.17155 0.76576 0.89843 0.0
C229 C 0.27849 0.6646 0.94293 0.0
C230 C 0.29555 0.70552 0.92593 0.0
C231 C 0.26026 0.7356 0.90723 0.0
C232 C 0.34622 0.72267 0.9393 0.0
C233 C 0.31531 0.62991 0.96026 0.0
C234 C 0.35707 0.72979 0.98656 0.0
C235 C 0.40182 0.75107 1.00049 0.0
C236 C 0.43637 0.76514 0.96739 0.0
C237 C 0.4259 0.75796 0.9201 0.0
C238 C 0.38062 0.73717 0.90601 0.0
H239 H 0.29902 0.59629 0.95555 0.0
H240 H 0.35233 0.6318 0.94221 0.0
H241 H 0.32245 0.63509 0.99788 0.0
H242 H 0.33015 0.71994 0.01266 0.0
H243 H 0.40979 0.75638 0.03702 0.0
H244 H 0.57581 0.78085 0.64817 0.0
H245 H 0.65472 0.7411 0.66723 0.0
H246 H 0.66742 0.70225 0.52395 0.0
H247 H 0.58662 0.73946 0.50572 0.0
H248 H 0.69563 0.63496 0.58558 0.0
H249 H 0.78949 0.79491 0.63242 0.0
H250 H 0.73501 0.77868 0.66513 0.0
H251 H 0.72713 0.79313 0.60513 0.0
C252 C 0.5947 0.76282 0.62116 0.0
C253 C 0.57505 0.76281 0.5756 0.0
C254 C 0.64008 0.74058 0.63193 0.0
C255 C 0.66709 0.7191 0.59692 0.0
C256 C 0.647 0.71847 0.55154 0.0
H257 H 0.92075 0.65503 0.46959 0.0
H258 H 0.83961 0.64572 0.50844 0.0
C259 C 0.60137 0.74015 0.54099 0.0
C260 C 0.71859 0.70075 0.60565 0.0
H261 H 0.84175 0.73466 0.6191 0.0
C262 C 0.72766 0.6564 0.59402 0.0
C263 C 0.76015 0.72853 0.61771 0.0
C264 C 0.75283 0.7765 0.63063 0.0
C265 C 0.77753 0.64027 0.58975 0.0
C266 C 0.81903 0.66951 0.59659 0.0
C267 C 0.8099 0.7123 0.61346 0.0
C268 C 0.86995 0.66074 0.57708 0.0
C269 C 0.7851 0.5928 0.57553 0.0
C270 C 0.91441 0.67126 0.60268 0.0
C271 C 0.96058 0.67738 0.58014 0.0
C272 C 0.96297 0.67251 0.53183 0.0
C273 C 0.91966 0.65827 0.50693 0.0
C274 C 0.87347 0.65248 0.52931 0.0
H275 H 0.75585 0.57135 0.59142 0.0
H276 H 0.78025 0.58989 0.53738 0.0
H277 H 0.82364 0.58052 0.58566 0.0
H278 H 0.91244 0.67856 0.63938 0.0
H279 H 0.99296 0.68997 0.59984 0.0
H280 H 0.08961 0.23454 0.50941 0.0
H281 H 0.16988 0.19692 0.52878 0.0
H282 H 0.13985 0.21282 0.67449 0.0
H283 H 0.05875 0.25021 0.65454 0.0
H284 H 0.23024 0.25048 0.64493 0.0
H285 H 0.21946 0.0788 0.58285 0.0
H286 H 0.18893 0.11498 0.54185 0.0
H287 H 0.16361 0.11002 0.59924 0.0
C288 C 0.10008 0.22916 0.54541 0.0
C289 C 0.06918 0.24518 0.5806 0.0
C290 C 0.14516 0.2071 0.55656 0.0
C291 C 0.16005 0.20114 0.60311 0.0
C292 C 0.12834 0.21626 0.63846 0.0
H293 H 0.49094 0.21065 0.5897 0.0
H294 H 0.41483 0.1894 0.63214 0.0
C295 C 0.0827 0.23787 0.62718 0.0
C296 C 0.21308 0.18776 0.61315 0.0
H297 H 0.30075 0.11806 0.56738 0.0
C298 C 0.24613 0.22067 0.63 0.0
C299 C 0.23327 0.14856 0.59433 0.0
C300 C 0.19929 0.11091 0.57904 0.0
C301 C 0.29842 0.21884 0.62111 0.0
C302 C 0.31763 0.18234 0.59608 0.0
C303 C 0.28564 0.14631 0.58585 0.0
C304 C 0.36599 0.18588 0.57113 0.0
C305 C 0.33101 0.25859 0.633 0.0
C306 C 0.36408 0.18891 0.52259 0.0
C307 C 0.40769 0.19979 0.49825 0.0
C308 C 0.45374 0.20769 0.52212 0.0
C309 C 0.45596 0.20356 0.57058 0.0
C310 C 0.41254 0.1919 0.59486 0.0
H311 H 0.3087 0.28565 0.64904 0.0
H312 H 0.36184 0.24897 0.65775 0.0
H313 H 0.34913 0.27158 0.60136 0.0
H314 H 0.32826 0.18482 0.50369 0.0
H315 H 0.40534 0.20319 0.46094 0.0
H316 H 0.58754 0.69981 0.08283 0.0
H317 H 0.53306 0.63477 0.08846 0.0
H318 H 0.62891 0.56559 0.99215 0.0
H319 H 0.68487 0.63041 0.98803 0.0
H320 H 0.47704 0.60142 0.02119 0.0
H321 H 0.60805 0.47061 0.08553 0.0
H322 H 0.62533 0.52824 0.08643 0.0
H323 H 0.62985 0.49658 0.03378 0.0
C324 C 0.5979 0.67017 0.06406 0.0
C325 C 0.64072 0.66986 0.03544 0.0
C326 C 0.56649 0.63315 0.06694 0.0
C327 C 0.57676 0.59507 0.04086 0.0
C328 C 0.62068 0.59411 0.01345 0.0
H329 H 0.33899 0.39785 0.97591 0.0
H330 H 0.39501 0.46283 0.9732 0.0
C331 C 0.65278 0.6311 1.01117 0.0
C332 C 0.53927 0.55808 0.04011 0.0
H333 H 0.52628 0.44737 0.05837 0.0
C334 C 0.48783 0.56774 0.02956 0.0
C335 C 0.55312 0.51415 0.05118 0.0
C336 C 0.60698 0.50177 0.06531 0.0
C337 C 0.44988 0.53497 0.03034 0.0
C338 C 0.46389 0.49087 0.04041 0.0
C339 C 0.51544 0.48112 0.05043 0.0
C340 C 0.42584 0.45445 0.04279 0.0
C341 C 0.39503 0.54838 0.02192 0.0
C342 C 0.42407 0.42828 0.08275 0.0
C343 C 0.39274 0.3911 0.08404 0.0
C344 C 0.36194 0.3794 0.04559 0.0
C345 C 0.36158 0.40668 1.00634 0.0
C346 C 0.3937 0.44372 1.00478 0.0
H347 H 0.38922 0.58401 0.02939 0.0
H348 H 0.38468 0.54252 0.98498 0.0
H349 H 0.36869 0.52901 0.04366 0.0
H350 H 0.44816 0.43588 0.1126 0.0
H351 H 0.3939 0.37053 0.1147 0.0
H352 H 0.61663 0.37395 0.43344 0.0
H353 H 0.56466 0.44007 0.4431 0.0
H354 H 0.6281 0.45834 0.5807 0.0
H355 H 0.68127 0.39228 0.57077 0.0
H356 H 0.4913 0.44525 0.50767 0.0
H357 H 0.62756 0.58413 0.53191 0.0
H358 H 0.64663 0.53125 0.50885 0.0
H359 H 0.63879 0.53837 0.57014 0.0
C360 C 0.62063 0.39274 0.46531 0.0
C361 C 0.65308 0.37793 0.50137 0.0
C362 C 0.59072 0.43046 0.47084 0.0
C363 C 0.59234 0.45427 0.51259 0.0
C364 C 0.62676 0.441 0.54785 0.0
H365 H 0.40619 0.66797 0.61879 0.0
H366 H 0.46286 0.60448 0.61019 0.0
C367 C 0.65723 0.40326 0.54215 0.0
C368 C 0.55413 0.48981 0.52045 0.0
H369 H 0.5403 0.59924 0.54653 0.0
C370 C 0.50207 0.47898 0.51595 0.0
C371 C 0.56812 0.53374 0.53163 0.0
C372 C 0.62329 0.5478 0.53554 0.0
C373 C 0.46367 0.51067 0.52252 0.0
C374 C 0.4776 0.55465 0.53329 0.0
C375 C 0.52964 0.56548 0.53822 0.0
C376 C 0.43894 0.59003 0.53969 0.0
C377 C 0.40852 0.49656 0.51877 0.0
C378 C 0.40547 0.60237 0.50332 0.0
C379 C 0.37269 0.63867 0.50827 0.0
C380 C 0.37335 0.66346 0.54949 0.0
C381 C 0.40508 0.64966 0.58651 0.0
C382 C 0.43763 0.61347 0.58161 0.0
H383 H 0.4043 0.46026 0.52269 0.0
H384 H 0.38522 0.51325 0.5454 0.0
H385 H 0.39297 0.50576 0.48413 0.0
H386 H 0.40633 0.58521 0.47039 0.0
H387 H 0.34936 0.64897 0.47888 0.0
H388 H 0.11261 0.16816 0.92169 0.0
H389 H 0.05598 0.10444 0.92888 0.0
H390 H 0.10428 0.089 0.07144 0.0
H391 H 0.16093 0.15316 0.06449 0.0
H392 H 0.09248 0.00797 0.02102 0.0
H393 H 0.92213 0.11608 1.00076 0.0
H394 H 0.96629 0.11861 0.95403 0.0
H395 H 0.98553 0.13789 1.01066 0.0
C396 C 0.11176 0.15073 0.95437 0.0
C397 C 0.14079 0.16589 0.99266 0.0
C398 C 0.07914 0.11453 0.9585 0.0
C399 C 0.07481 0.09277 1.00105 0.0
C400 C 0.10665 0.10566 0.03841 0.0
H401 H 0.89466 0.87762 0.10772 0.0
H402 H 0.9494 0.94199 0.09785 0.0
C403 C 0.13941 0.14201 0.03428 0.0
C404 C 0.03575 0.05774 1.00697 0.0
H405 H 0.90691 0.03903 1.00485 0.0
C406 C 0.05192 0.01476 0.01765 0.0
C407 C 0.98277 0.06661 1.0022 0.0
C408 C 0.96296 0.11236 0.99169 0.0
C409 C 0.01668 0.98029 0.02316 0.0
C410 C 0.96364 0.98929 0.0192 0.0
C411 C 0.94747 0.0322 1.0081 0.0
C412 C 0.92467 0.95455 0.02722 0.0
C413 C 0.03673 0.93429 0.03218 0.0
C414 C 0.88965 0.94219 0.99201 0.0
C415 C 0.85728 0.90579 0.99798 0.0
C416 C 0.85974 0.88125 0.03919 0.0
C417 C 0.89217 0.89576 0.07547 0.0
C418 C 0.92391 0.93225 0.06969 0.0
H419 H 0.07677 0.93055 0.0207 0.0
H420 H 0.03611 0.92762 0.06993 0.0
H421 H 0.01284 0.90903 0.01418 0.0
H422 H 0.88919 0.95928 0.95911 0.0
H423 H 0.83304 0.89509 0.9693 0.0
H424 H 0.93419 0.1966 0.4754 0.0
H425 H 0.98702 0.13052 0.47141 0.0
H426 H 0.86631 0.05404 0.53138 0.0
H427 H 0.81271 0.12068 0.53555 0.0
H428 H 0.01676 0.08317 0.55165 0.0
H429 H 0.91622 0.97634 0.42247 0.0
H430 H 0.90512 0.03512 0.42627 0.0
H431 H 0.87741 0.99859 0.4677 0.0
C432 C 0.91827 0.16552 0.48675 0.0
C433 C 0.86924 0.16384 0.5059 0.0
C434 C 0.94869 0.12782 0.48461 0.0
C435 C 0.93075 0.08739 0.50116 0.0
C436 C 0.88071 0.08487 0.51794 0.0
H437 H 0.065 0.82926 0.53387 0.0
H438 H 0.01143 0.89493 0.53363 0.0
C439 C 0.85001 0.12286 0.52013 0.0
C440 C 0.96618 0.04913 0.50403 0.0
H441 H 0.98645 0.94498 0.46292 0.0
C442 C 0.01025 0.05289 0.53225 0.0
C443 C 0.95762 0.00985 0.47862 0.0
C444 C 0.91179 1.00459 0.44672 0.0
C445 C 0.04547 0.01802 0.53657 0.0
C446 C 0.03702 0.9786 0.51106 0.0
C447 C 0.99304 0.97511 0.48254 0.0
C448 C 0.07182 0.93974 0.51462 0.0
C449 C 0.09048 0.0234 0.56946 0.0
C450 C 0.12421 0.94288 0.50484 0.0
C451 C 0.15546 0.90514 0.50583 0.0
C452 C 0.13444 0.86358 0.51548 0.0
C453 C 0.0823 0.86079 0.52596 0.0
C454 C 0.05152 0.89835 0.52574 0.0
H455 H 0.08371 0.04978 0.59549 0.0
H456 H 0.09906 0.99214 0.58801 0.0
H457 H 0.12456 0.03286 0.54951 0.0
H458 H 0.14067 0.97421 0.49512 0.0
H459 H 0.19535 0.90814 0.49713 0.0
H460 H 0.63362 0.14323 0.41298 0.0
H461 H 0.57374 0.14921 0.34787 0.0
H462 H 0.61941 0.28417 0.32695 0.0
H463 H 0.67995 0.27856 0.39277 0.0
H464 H 0.49251 0.22312 0.35349 0.0
H465 H 0.60704 0.21872 0.19267 0.0
H466 H 0.62898 0.1917 0.2451 0.0
H467 H 0.62933 0.25075 0.24183 0.0
C468 C 0.63255 0.17382 0.39365 0.0
C469 C 0.66143 0.2106 0.40872 0.0
C470 C 0.59774 0.17727 0.35659 0.0
C471 C 0.59138 0.2173 0.33301 0.0
C472 C 0.62356 0.25294 0.34479 0.0
H473 H 0.32811 0.27944 0.14754 0.0
H474 H 0.38958 0.28415 0.21269 0.0
C475 C 0.65864 0.24952 0.38216 0.0
C476 C 0.54793 0.2222 0.29932 0.0
H477 H 0.51759 0.22119 0.18367 0.0
C478 C 0.49795 0.22329 0.31633 0.0
C479 C 0.55508 0.22224 0.25095 0.0
C480 C 0.60788 0.2207 0.23111 0.0
C481 C 0.45499 0.22339 0.2862 0.0
C482 C 0.46212 0.22224 0.23781 0.0
C483 C 0.51214 0.22216 0.22081 0.0
C484 C 0.41855 0.21775 0.20411 0.0
C485 C 0.40221 0.22301 0.30615 0.0
C486 C 0.41256 0.17829 0.17914 0.0
C487 C 0.37717 0.17532 0.14244 0.0
C488 C 0.34726 0.21205 0.12916 0.0
C489 C 0.35007 0.25039 0.15688 0.0
C490 C 0.38566 0.2533 0.19389 0.0
H491 H 0.4031 0.22009 0.34451 0.0
H492 H 0.38208 0.25403 0.29662 0.0
H493 H 0.37977 0.1951 0.29128 0.0
H494 H 0.43712 0.1503 0.1866 0.0
H495 H 0.37625 0.14518 0.12215 0.0
H496 H 0.60173 0.88289 0.09754 0.0
H497 H 0.54576 0.88354 0.16425 0.0
H498 H 0.62904 0.77392 0.22331 0.0
H499 H 0.68518 0.77282 0.15641 0.0
H500 H 0.4841 0.81042 0.18549 0.0
H501 H 0.60925 0.85708 0.33474 0.0
H502 H 0.62615 0.86785 0.27545 0.0
H503 H 0.63407 0.81347 0.29929 0.0
C504 C 0.60908 0.8596 0.12526 0.0
C505 C 0.64787 0.82762 0.12141 0.0
C506 C 0.57683 0.85994 0.16332 0.0
C507 C 0.58301 0.82872 0.19872 0.0
C508 C 0.62387 0.79868 0.19666 0.0
H509 H 0.42422 0.74064 0.43737 0.0
H510 H 0.47782 0.75123 0.37028 0.0
C511 C 0.65618 0.79823 0.15843 0.0
C512 C 0.54397 0.82495 0.23531 0.0
H513 H 0.52791 0.82728 0.35232 0.0
C514 C 0.49349 0.8145 0.22199 0.0
C515 C 0.55627 0.8303 0.28282 0.0
C516 C 0.60925 0.84319 0.29907 0.0
C517 C 0.45545 0.80762 0.25502 0.0
C518 C 0.46799 0.81214 0.30265 0.0
C519 C 0.51824 0.82366 0.31581 0.0
C520 C 0.43084 0.80264 0.33981 0.0
C521 C 0.40277 0.79389 0.23872 0.0
C522 C 0.38531 0.82696 0.34441 0.0
C523 C 0.35384 0.82041 0.38278 0.0
C524 C 0.36803 0.78993 0.41725 0.0
C525 C 0.4123 0.76438 0.4113 0.0
C526 C 0.44319 0.77058 0.37309 0.0
H527 H 0.40258 0.78192 0.2023 0.0
H528 H 0.38742 0.76742 0.26106 0.0
H529 H 0.3767 0.8227 0.24065 0.0
H530 H 0.37531 0.85238 0.31957 0.0
H531 H 0.32041 0.84101 0.38693 0.0
H532 H 0.3402 0.77944 0.65697 0.0
H533 H 0.40329 0.78166 0.72068 0.0
H534 H 0.45701 0.90769 0.6727 0.0
H535 H 0.39474 0.9056 0.60946 0.0
H536 H 0.53296 0.85065 0.67398 0.0
H537 H 0.43589 0.84046 0.84229 0.0
H538 H 0.41698 0.79697 0.80332 0.0
H539 H 0.40187 0.8534 0.78914 0.0
C540 C 0.36367 0.80863 0.66131 0.0
C541 C 0.36307 0.8417 0.62717 0.0
C542 C 0.40017 0.80983 0.69783 0.0
C543 C 0.43608 0.84444 0.70116 0.0
C544 C 0.43078 0.88008 0.67054 0.0
H545 H 0.6731 0.86964 0.91431 0.0
H546 H 0.61488 0.88987 0.8509 0.0
C547 C 0.39459 0.87893 0.63437 0.0
C548 C 0.48297 0.84124 0.73167 0.0
H549 H 0.52559 0.8247 0.84306 0.0
C550 C 0.53115 0.84522 0.71102 0.0
C551 C 0.48114 0.83435 0.78013 0.0
C552 C 0.43119 0.83146 0.80511 0.0
C553 C 0.57702 0.84156 0.73701 0.0
C554 C 0.57508 0.83395 0.78513 0.0
C555 C 0.52712 0.83065 0.80607 0.0
C556 C 0.6221 0.82779 0.81446 0.0
C557 C 0.62743 0.84614 0.71311 0.0
C558 C 0.64952 0.78795 0.81276 0.0
C559 C 0.68361 0.77657 0.84891 0.0
C560 C 0.68923 0.80419 0.88807 0.0
C561 C 0.6696 0.84744 0.88491 0.0
C562 C 0.63497 0.85864 0.84916 0.0
H563 H 0.62264 0.85682 0.67651 0.0
H564 H 0.65199 0.87039 0.73191 0.0
H565 H 0.64766 0.81394 0.71366 0.0
H566 H 0.64069 0.7637 0.78614 0.0
H567 H 0.69814 0.74307 0.8501 0.0
H568 H 0.37155 0.31497 0.91207 0.0
H569 H 0.43261 0.30725 0.84914 0.0
H570 H 0.40681 0.16654 0.84697 0.0
H571 H 0.34412 0.17473 0.90853 0.0
H572 H 0.52208 0.26035 0.85327 0.0
H573 H 0.39827 0.19346 0.71113 0.0
H574 H 0.37234 0.22041 0.76122 0.0
H575 H 0.396 0.16476 0.76507 0.0
C576 C 0.37724 0.28276 0.8965 0.0
C577 C 0.35194 0.24565 0.91378 0.0
C578 C 0.41279 0.2782 0.86122 0.0
C579 C 0.42417 0.23634 0.84294 0.0
C580 C 0.39787 0.19931 0.85952 0.0
H581 H 0.69752 0.20733 0.66444 0.0
H582 H 0.642 0.19997 0.73216 0.0
C583 C 0.36176 0.204 0.89444 0.0
C584 C 0.46491 0.23169 0.80789 0.0
H585 H 0.48571 0.20114 0.69591 0.0
C586 C 0.51425 0.24733 0.81883 0.0
C587 C 0.45483 0.21413 0.76324 0.0
C588 C 0.40248 0.19751 0.74915 0.0
C589 C 0.55314 0.24762 0.78577 0.0
C590 C 0.54259 0.23127 0.74061 0.0
C591 C 0.49385 0.21381 0.73044 0.0
C592 C 0.57875 0.23659 0.70164 0.0
C593 C 0.60434 0.2672 0.79897 0.0
C594 C 0.56198 0.25942 0.66205 0.0
C595 C 0.593 0.26298 0.62363 0.0
C596 C 0.6421 0.2441 0.62354 0.0
C597 C 0.66005 0.22247 0.66366 0.0
C598 C 0.62834 0.21836 0.70235 0.0
H599 H 0.60286 0.28635 0.8318 0.0
H600 H 0.63252 0.24016 0.80389 0.0
H601 H 0.61825 0.28919 0.77122 0.0
H602 H 0.52424 0.27409 0.66054 0.0
H603 H 0.578 0.28018 0.59346 0.0
H604 H 0.15057 0.6421 0.40181 0.0
H605 H 0.08872 0.65087 0.3387 0.0
H606 H 0.10775 0.79215 0.34527 0.0
H607 H 0.17117 0.78343 0.40809 0.0
H608 H 0.99884 0.69138 0.35226 0.0
H609 H 0.09665 0.77329 0.20669 0.0
H610 H 0.13133 0.74758 0.25401 0.0
H611 H 0.10318 0.80122 0.26144 0.0
C612 C 0.14328 0.67505 0.38878 0.0
C613 C 0.16567 0.7121 0.41064 0.0
C614 C 0.1073 0.68004 0.35281 0.0
C615 C 0.09269 0.72218 0.33735 0.0
C616 C 0.11842 0.75917 0.35607 0.0
H617 H 0.83547 0.78676 0.14542 0.0
H618 H 0.89534 0.79259 0.21166 0.0
C619 C 0.15503 0.75413 0.39203 0.0
C620 C 0.04717 0.72676 0.30547 0.0
H621 H 0.00717 0.7639 0.19888 0.0
C622 C 1.00083 0.70737 0.31877 0.0
C623 C 0.04913 0.74804 0.26189 0.0
C624 C 0.09779 0.76843 0.24482 0.0
C625 C 0.95727 0.70764 0.2895 0.0
C626 C 0.95964 0.72787 0.24556 0.0
C627 C 1.00524 0.74865 0.23275 0.0
C628 C 0.91717 0.72371 0.21061 0.0
C629 C 0.90903 0.68572 0.30545 0.0
C630 C 0.90778 0.68277 0.18928 0.0
C631 C 0.87407 0.67945 0.15127 0.0
C632 C 0.84867 0.717 0.13358 0.0
C633 C 0.85426 0.75716 0.15792 0.0
C634 C 0.88895 0.76066 0.19557 0.0
H635 H 0.90957 0.68032 0.3435 0.0
H636 H 0.87507 0.70593 0.29588 0.0
H637 H 0.90497 0.65314 0.28806 0.0
H638 H 0.92899 0.65378 0.20019 0.0
H639 H 0.87092 0.64796 0.13356 0.0
H640 H 0.91263 0.37858 0.45521 0.0
H641 H 0.96858 0.38333 0.3887 0.0
H642 H 0.88325 0.27942 0.32046 0.0
H643 H 0.82694 0.27449 0.38689 0.0
H644 H 0.02906 0.31319 0.36267 0.0
H645 H 0.90572 0.36657 0.21538 0.0
H646 H 0.88736 0.37338 0.27498 0.0
H647 H 0.87996 0.32076 0.24657 0.0
C648 C 0.90482 0.35754 0.42552 0.0
C649 C 0.86545 0.32593 0.42655 0.0
C650 C 0.93701 0.36023 0.38758 0.0
C651 C 0.93024 0.33171 0.34962 0.0
C652 C 0.8888 0.30222 0.34907 0.0
H653 H 0.08787 0.24057 0.11344 0.0
H654 H 0.03534 0.25318 0.18093 0.0
C655 C 0.85647 0.29952 0.38709 0.0
C656 C 0.9695 0.32948 0.31317 0.0
H657 H 0.98579 0.33373 0.1963 0.0
C658 C 0.01982 0.31828 0.32631 0.0
C659 C 0.95742 0.33618 0.26583 0.0
C660 C 0.9048 0.35032 0.2498 0.0
C661 C 0.05779 0.31165 0.29316 0.0
C662 C 0.04522 0.31691 0.24572 0.0
C663 C 0.99533 0.32952 0.23273 0.0
C664 C 0.08178 0.30644 0.20852 0.0
C665 C 0.11038 0.29719 0.30894 0.0
C666 C 0.12659 0.33122 0.20239 0.0
C667 C 0.15731 0.32372 0.16372 0.0
C668 C 0.14308 0.29171 0.13061 0.0
C669 C 0.09973 0.26556 0.13834 0.0
C670 C 0.06948 0.27286 0.17678 0.0
H671 H 0.11128 0.28687 0.34584 0.0
H672 H 0.12401 0.26931 0.28733 0.0
H673 H 0.13744 0.32504 0.30499 0.0
H674 H 0.13651 0.35764 0.22625 0.0
H675 H 0.19012 0.34469 0.15825 0.0
H676 H 0.07921 0.38901 0.95683 0.0
H677 H 0.02412 0.3901 0.89005 0.0
H678 H 0.13596 0.31728 0.81245 0.0
H679 H 0.18939 0.31068 0.88307 0.0
H680 H 0.01285 0.41729 0.81396 0.0
H681 H 0.03012 0.23664 0.77948 0.0
H682 H 0.06597 0.26166 0.82592 0.0
H683 H 0.08566 0.26868 0.76716 0.0
C684 C 0.093 0.3733 0.92572 0.0
C685 C 0.13852 0.34842 0.92634 0.0
C686 C 0.06091 0.37416 0.88677 0.0
C687 C 0.07392 0.35212 0.84573 0.0
C688 C 0.1229 0.33243 0.84404 0.0
H689 H 0.85218 0.36424 0.61362 0.0
H690 H 0.91382 0.38833 0.67233 0.0
C691 C 0.15436 0.32961 0.88428 0.0
C692 C 0.03396 0.3486 0.80742 0.0
H693 H 0.96667 0.2751 0.73951 0.0
C694 C 1.00286 0.38584 0.7982 0.0
C695 C 0.02081 0.30816 0.78488 0.0
C696 C 0.05212 0.26652 0.78997 0.0
C697 C 0.95776 0.38316 0.77095 0.0
C698 C 0.94376 0.34245 0.75033 0.0
C699 C 0.97638 0.30599 0.75665 0.0
C700 C 0.89644 0.33648 0.72101 0.0
C701 C 0.9246 0.4237 0.76614 0.0
C702 C 0.8629 0.30131 0.7298 0.0
C703 C 0.82719 0.28752 0.69598 0.0
C704 C 0.82519 0.30803 0.65231 0.0
C705 C 0.85224 0.34786 0.64694 0.0
C706 C 0.88854 0.36129 0.68044 0.0
H707 H 0.93157 0.44738 0.79505 0.0
H708 H 0.93372 0.44077 0.73337 0.0
H709 H 0.88345 0.41493 0.7652 0.0
H710 H 0.86748 0.28197 0.76111 0.0
H711 H 0.8072 0.25666 0.70122 0.0
H712 H 0.16673 0.79426 0.64784 0.0
H713 H 0.10531 0.79136 0.71101 0.0
H714 H 0.08661 0.65143 0.68844 0.0
H715 H 0.14927 0.65417 0.6263 0.0
H716 H 1.0003 0.76048 0.6939 0.0
H717 H 0.09998 0.66151 0.83073 0.0
H718 H 0.13501 0.69571 0.79117 0.0
H719 H 0.10587 0.64541 0.77124 0.0
C720 C 0.1512 0.7626 0.65783 0.0
C721 C 0.16285 0.72434 0.6325 0.0
C722 C 0.11551 0.76107 0.69336 0.0
C723 C 0.09119 0.72121 0.7044 0.0
C724 C 0.10518 0.68248 0.68094 0.0
H725 H 0.81006 0.71306 0.87491 0.0
H726 H 0.86653 0.70284 0.80795 0.0
C727 C 0.14093 0.68404 0.64546 0.0
C728 C 0.04887 0.72093 0.73813 0.0
H729 H 0.01717 0.68673 0.84645 0.0
C730 C 1.00377 0.74416 0.7272 0.0
C731 C 0.05328 0.69913 0.7812 0.0
C732 C 0.10107 0.67411 0.79472 0.0
C733 C 0.96364 0.74743 0.75887 0.0
C734 C 0.96872 0.72683 0.8026 0.0
C735 C 0.01321 0.70238 0.81284 0.0
C736 C 0.93194 0.7348 0.84055 0.0
C737 C 0.91705 0.77435 0.74612 0.0
C738 C 0.94952 0.7566 0.88055 0.0
C739 C 0.91786 0.7621 0.91832 0.0
C740 C 0.8674 0.74607 0.91738 0.0
C741 C 0.84864 0.72586 0.87659 0.0
C742 C 0.8809 0.72001 0.83843 0.0
H743 H 0.92216 0.79326 0.71362 0.0
H744 H 0.88386 0.75197 0.74113 0.0
H745 H 0.9079 0.79781 0.77442 0.0
H746 H 0.9884 0.76874 0.88293 0.0
H747 H 0.93352 0.77829 0.94895 0.0
loop_
_geom_bond_atom_site_label_1
_geom_bond_atom_site_label_2
_geom_bond_distance
_geom_bond_site_symmetry_2
_ccdc_geom_bond_type
Co0 N1 2.034 . S
Co0 O15 2.262 1_554 S
Co0 O19 1.958 . S
Co0 O23 1.950 . S
Co0 O24 2.057 1_554 S
N1 Co0 2.034 . S
N1 C2 1.366 . S
N1 C4 1.332 1_554 S
C2 N1 1.366 . S
C2 C5 1.377 1_455 S
C2 H34 0.931 . S
N3 C4 1.346 1_654 S
N3 C5 1.337 . S
C4 N1 1.332 1_556 S
C4 N3 1.346 1_456 S
C4 C38 1.361 . S
C5 C2 1.377 1_655 S
C5 N3 1.337 . S
C5 H41 0.930 . S
Co6 N7 2.033 1_554 S
Co6 O20 1.950 1_554 S
Co6 O21 2.262 . S
Co6 O22 1.958 . S
Co6 O26 2.057 . S
N7 Co6 2.033 1_556 S
N7 C10 1.366 1_556 S
N7 C11 1.332 . S
N8 C9 1.337 1_556 S
N8 C11 1.346 . S
C9 N8 1.337 1_554 S
C9 C10 1.378 . S
C9 H42 0.929 . S
C10 N7 1.366 1_554 S
C10 C9 1.378 . S
C10 H14 0.931 . S
C11 N7 1.332 . S
C11 N8 1.346 . S
C11 C28 1.361 . S
Co12 O15 2.097 1_554 S
Co12 O16 2.065 1_554 S
Co12 O17 2.065 . S
Co12 O18 2.042 . S
Co12 O21 2.097 . S
Co12 O25 2.042 . S
C13 O21 1.253 . S
C13 O26 1.263 . S
H14 C10 0.931 . S
O15 Co0 2.262 1_556 S
O15 Co12 2.097 1_556 S
O15 C39 1.253 . S
O16 Co12 2.065 1_556 S
O16 C32 1.221 . S
O17 Co12 2.065 . S
O17 C27 1.221 . S
O18 Co12 2.042 . S
O18 C33 1.237 . S
O19 Co0 1.958 . S
O19 C33 1.278 . S
O20 Co6 1.950 1_556 S
O20 C32 1.277 . S
O21 Co6 2.262 . S
O21 Co12 2.097 . S
O21 C13 1.253 . S
O22 Co6 1.958 . S
O22 C40 1.278 . S
O23 Co0 1.950 . S
O23 C27 1.277 . S
O24 Co0 2.057 1_556 S
O24 C39 1.263 . S
O25 Co12 2.042 . S
O25 C40 1.237 . S
O26 Co6 2.057 . S
O26 C13 1.263 . S
C27 O17 1.221 . S
C27 O23 1.277 . S
C28 C11 1.361 . S
C28 H29 0.960 . S
C28 H30 0.961 . S
C28 H31 0.961 1_556 S
H29 C28 0.960 . S
H30 C28 0.961 . S
H31 C28 0.961 1_554 S
C32 O16 1.221 . S
C32 O20 1.277 . S
C33 O18 1.237 . S
C33 O19 1.278 . S
H34 C2 0.931 . S
H35 C38 0.961 . S
H36 C38 0.961 . S
H37 C38 0.960 . S
C38 C4 1.361 . S
C38 H35 0.961 . S
C38 H36 0.961 . S
C38 H37 0.960 . S
C39 O15 1.253 . S
C39 O24 1.263 . S
C40 O22 1.278 . S
C40 O25 1.237 . S
H41 C5 0.930 . S
H42 C9 0.929 . S
Co43 N44 2.034 . S
Co43 O58 2.262 1_554 S
Co43 O62 1.958 . S
Co43 O66 1.950 . S
Co43 O67 2.057 1_554 S
N44 Co43 2.034 . S
N44 C45 1.366 . S
N44 C47 1.332 1_554 S
C45 N44 1.366 . S
C45 C48 1.377 . S
C45 H77 0.931 . S
N46 C47 1.346 1_554 S
N46 C48 1.337 . S
C47 N44 1.332 1_556 S
C47 N46 1.346 1_556 S
C47 C81 1.361 . S
C48 C45 1.377 . S
C48 N46 1.337 . S
C48 H84 0.930 . S
Co49 N50 2.033 1_554 S
Co49 O63 1.950 1_554 S
Co49 O64 2.262 . S
Co49 O65 1.958 . S
Co49 O69 2.057 . S
N50 Co49 2.033 1_556 S
N50 C53 1.366 1_556 S
N50 C54 1.332 . S
N51 C52 1.337 1_556 S
N51 C54 1.346 1_455 S
C52 N51 1.337 1_554 S
C52 C53 1.378 1_455 S
C52 H85 0.929 . S
C53 N50 1.366 1_554 S
C53 C52 1.378 1_655 S
C53 H57 0.931 . S
C54 N50 1.332 . S
C54 N51 1.346 1_655 S
C54 C71 1.361 . S
Co55 O58 2.097 1_554 S
Co55 O59 2.065 1_554 S
Co55 O60 2.065 . S
Co55 O61 2.042 . S
Co55 O64 2.097 . S
Co55 O68 2.042 . S
C56 O64 1.253 . S
C56 O69 1.263 . S
H57 C53 0.931 . S
O58 Co43 2.262 1_556 S
O58 Co55 2.097 1_556 S
O58 C82 1.253 . S
O59 Co55 2.065 1_556 S
O59 C75 1.221 . S
O60 Co55 2.065 . S
O60 C70 1.221 . S
O61 Co55 2.042 . S
O61 C76 1.237 . S
O62 Co43 1.958 . S
O62 C76 1.278 . S
O63 Co49 1.950 1_556 S
O63 C75 1.277 . S
O64 Co49 2.262 . S
O64 Co55 2.097 . S
O64 C56 1.253 . S
O65 Co49 1.958 . S
O65 C83 1.278 . S
O66 Co43 1.950 . S
O66 C70 1.277 . S
O67 Co43 2.057 1_556 S
O67 C82 1.263 . S
O68 Co55 2.042 . S
O68 C83 1.237 . S
O69 Co49 2.057 . S
O69 C56 1.263 . S
C70 O60 1.221 . S
C70 O66 1.277 . S
C71 C54 1.361 . S
C71 H72 0.960 . S
C71 H73 0.961 1_655 S
C71 H74 0.961 1_656 S
H72 C71 0.960 . S
H73 C71 0.961 1_455 S
H74 C71 0.961 1_454 S
C75 O59 1.221 . S
C75 O63 1.277 . S
C76 O61 1.237 . S
C76 O62 1.278 . S
H77 C45 0.931 . S
H78 C81 0.961 . S
H79 C81 0.961 . S
H80 C81 0.960 . S
C81 C47 1.361 . S
C81 H78 0.961 . S
C81 H79 0.961 . S
C81 H80 0.960 . S
C82 O58 1.253 . S
C82 O67 1.263 . S
C83 O65 1.278 . S
C83 O68 1.237 . S
H84 C48 0.930 . S
H85 C52 0.929 . S
Co86 N87 2.034 . S
Co86 O101 2.262 . S
Co86 O105 1.958 . S
Co86 O109 1.950 . S
Co86 O110 2.057 . S
N87 Co86 2.034 . S
N87 C88 1.366 . S
N87 C90 1.332 . S
C88 N87 1.366 . S
C88 C91 1.377 . S
C88 H120 0.931 . S
N89 C90 1.346 . S
N89 C91 1.337 . S
C90 N87 1.332 . S
C90 N89 1.346 . S
C90 C124 1.361 . S
C91 C88 1.377 . S
C91 N89 1.337 . S
C91 H127 0.930 . S
Co92 N93 2.034 . S
Co92 O106 1.950 . S
Co92 O107 2.262 . S
Co92 O108 1.958 . S
Co92 O112 2.057 . S
N93 Co92 2.034 . S
N93 C96 1.366 . S
N93 C97 1.332 . S
N94 C95 1.337 . S
N94 C97 1.346 1_655 S
C95 N94 1.337 . S
C95 C96 1.377 1_655 S
C95 H128 0.930 . S
C96 N93 1.366 . S
C96 C95 1.377 1_455 S
C96 H100 0.931 . S
C97 N93 1.332 . S
C97 N94 1.346 1_455 S
C97 C114 1.361 . S
Co98 O101 2.097 . S
Co98 O102 2.065 . S
Co98 O103 2.065 . S
Co98 O104 2.042 . S
Co98 O107 2.097 . S
Co98 O111 2.042 . S
C99 O107 1.253 . S
C99 O112 1.263 . S
H100 C96 0.931 . S
O101 Co86 2.262 . S
O101 Co98 2.097 . S
O101 C125 1.253 . S
O102 Co98 2.065 . S
O102 C118 1.221 . S
O103 Co98 2.065 . S
O103 C113 1.221 . S
O104 Co98 2.042 . S
O104 C119 1.237 . S
O105 Co86 1.958 . S
O105 C119 1.278 . S
O106 Co92 1.950 . S
O106 C118 1.277 . S
O107 Co92 2.262 . S
O107 Co98 2.097 . S
O107 C99 1.253 . S
O108 Co92 1.958 . S
O108 C126 1.278 . S
O109 Co86 1.950 . S
O109 C113 1.277 . S
O110 Co86 2.057 . S
O110 C125 1.263 . S
O111 Co98 2.042 . S
O111 C126 1.237 . S
O112 Co92 2.057 . S
O112 C99 1.263 . S
C113 O103 1.221 . S
C113 O109 1.277 . S
C114 C97 1.361 . S
C114 H115 0.960 . S
C114 H116 0.961 1_455 S
C114 H117 0.961 1_455 S
H115 C114 0.960 . S
H116 C114 0.961 1_655 S
H117 C114 0.961 1_655 S
C118 O102 1.221 . S
C118 O106 1.277 . S
C119 O104 1.237 . S
C119 O105 1.278 . S
H120 C88 0.931 . S
H121 C124 0.961 . S
H122 C124 0.961 . S
H123 C124 0.960 . S
C124 C90 1.361 . S
C124 H121 0.961 . S
C124 H122 0.961 . S
C124 H123 0.960 . S
C125 O101 1.253 . S
C125 O110 1.263 . S
C126 O108 1.278 . S
C126 O111 1.237 . S
H127 C91 0.930 . S
H128 C95 0.930 . S
Co129 N130 2.034 . S
Co129 O144 2.262 . S
Co129 O148 1.958 . S
Co129 O152 1.950 . S
Co129 O153 2.057 . S
N130 Co129 2.034 . S
N130 C131 1.366 . S
N130 C133 1.332 . S
C131 N130 1.366 . S
C131 C134 1.377 . S
C131 H163 0.931 . S
N132 C133 1.346 . S
N132 C134 1.337 . S
C133 N130 1.332 . S
C133 N132 1.346 . S
C133 C167 1.361 . S
C134 C131 1.377 . S
C134 N132 1.337 . S
C134 H170 0.930 . S
Co135 N136 2.034 . S
Co135 O149 1.950 . S
Co135 O150 2.262 . S
Co135 O151 1.958 . S
Co135 O155 2.057 . S
N136 Co135 2.034 . S
N136 C139 1.366 . S
N136 C140 1.332 . S
N137 C138 1.337 . S
N137 C140 1.346 1_455 S
C138 N137 1.337 . S
C138 C139 1.377 1_455 S
C138 H171 0.930 . S
C139 N136 1.366 . S
C139 C138 1.377 1_655 S
C139 H143 0.931 . S
C140 N136 1.332 . S
C140 N137 1.346 1_655 S
C140 C157 1.361 . S
Co141 O144 2.097 . S
Co141 O145 2.065 . S
Co141 O146 2.065 . S
Co141 O147 2.042 . S
Co141 O150 2.097 . S
Co141 O154 2.042 . S
C142 O150 1.253 . S
C142 O155 1.263 . S
H143 C139 0.931 . S
O144 Co129 2.262 . S
O144 Co141 2.097 . S
O144 C168 1.253 . S
O145 Co141 2.065 . S
O145 C161 1.221 . S
O146 Co141 2.065 . S
O146 C156 1.221 . S
O147 Co141 2.042 . S
O147 C162 1.237 . S
O148 Co129 1.958 . S
O148 C162 1.278 . S
O149 Co135 1.950 . S
O149 C161 1.277 . S
O150 Co135 2.262 . S
O150 Co141 2.097 . S
O150 C142 1.253 . S
O151 Co135 1.958 . S
O151 C169 1.278 . S
O152 Co129 1.950 . S
O152 C156 1.277 . S
O153 Co129 2.057 . S
O153 C168 1.263 . S
O154 Co141 2.042 . S
O154 C169 1.237 . S
O155 Co135 2.057 . S
O155 C142 1.263 . S
C156 O146 1.221 . S
C156 O152 1.277 . S
C157 C140 1.361 . S
C157 H158 0.960 . S
C157 H159 0.961 . S
C157 H160 0.961 . S
H158 C157 0.960 . S
H159 C157 0.961 . S
H160 C157 0.961 . S
C161 O145 1.221 . S
C161 O149 1.277 . S
C162 O147 1.237 . S
C162 O148 1.278 . S
H163 C131 0.931 . S
H164 C167 0.961 . S
H165 C167 0.961 . S
H166 C167 0.960 . S
C167 C133 1.361 . S
C167 H164 0.961 . S
C167 H165 0.961 . S
C167 H166 0.960 . S
C168 O144 1.253 . S
C168 O153 1.263 . S
C169 O151 1.278 . S
C169 O154 1.237 . S
H170 C134 0.930 . S
H171 C138 0.930 . S
H172 C180 0.929 . S
H173 C182 0.930 . S
H174 C184 0.930 . S
H175 C187 0.929 . S
H176 C190 0.930 . S
H177 C192 0.960 . S
H178 C192 0.960 . S
H179 C192 0.960 . S
C180 H172 0.929 . S
C180 C181 1.377 1_556 S
C180 C182 1.384 . S
C181 C180 1.377 1_554 S
C181 C187 1.390 . S
C182 H173 0.930 . S
C182 C180 1.384 . S
C182 C183 1.373 . S
C183 C182 1.373 . S
C183 C184 1.399 1_556 S
C183 C188 1.490 . S
C184 H174 0.930 . S
C184 C183 1.399 1_554 S
C184 C187 1.386 . S
H185 C201 0.930 . S
H186 C202 0.931 . S
C187 H175 0.929 . S
C187 C181 1.390 . S
C187 C184 1.386 . S
C188 C183 1.490 . S
C188 C190 1.395 . S
C188 C191 1.403 1_556 S
H189 C195 0.930 . S
C190 H176 0.930 . S
C190 C188 1.395 . S
C190 C193 1.403 . S
C191 C188 1.403 1_554 S
C191 C192 1.524 . S
C191 C195 1.400 . S
C192 H177 0.960 . S
C192 H178 0.960 . S
C192 H179 0.960 . S
C192 C191 1.524 . S
C193 C190 1.403 . S
C193 C194 1.392 . S
C193 C197 1.495 . S
C194 C193 1.392 . S
C194 C195 1.385 1_556 S
C194 C196 1.478 . S
C195 H189 0.930 . S
C195 C191 1.400 . S
C195 C194 1.385 1_554 S
C196 C194 1.478 . S
C196 C198 1.381 . S
C196 C202 1.383 1_556 S
C197 C193 1.495 . S
C197 H203 0.959 . S
C197 H204 0.961 . S
C197 H205 0.960 . S
C198 C196 1.381 . S
C198 C199 1.394 . S
C198 H206 0.930 . S
C199 C198 1.394 . S
C199 C200 1.383 . S
C199 H207 0.929 . S
C200 C199 1.383 . S
C200 C201 1.377 1_556 S
C201 H185 0.930 . S
C201 C200 1.377 1_554 S
C201 C202 1.379 . S
C202 H186 0.931 . S
C202 C196 1.383 1_554 S
C202 C201 1.379 . S
H203 C197 0.959 . S
H204 C197 0.961 . S
H205 C197 0.960 . S
H206 C198 0.930 . S
H207 C199 0.929 . S
H208 C216 0.929 . S
H209 C218 0.930 . S
H210 C220 0.930 . S
H211 C223 0.929 . S
H212 C226 0.930 . S
H213 C228 0.960 . S
H214 C228 0.960 . S
H215 C228 0.960 . S
C216 H208 0.929 . S
C216 C217 1.377 . S
C216 C218 1.384 . S
C217 C216 1.377 . S
C217 C223 1.390 1_554 S
C218 H209 0.930 . S
C218 C216 1.384 . S
C218 C219 1.372 . S
C219 C218 1.372 . S
C219 C220 1.400 1_554 S
C219 C224 1.490 . S
C220 H210 0.930 . S
C220 C219 1.400 1_556 S
C220 C223 1.386 . S
H221 C237 0.930 . S
H222 C238 0.931 . S
C223 H211 0.929 . S
C223 C217 1.390 1_556 S
C223 C220 1.386 . S
C224 C219 1.490 . S
C224 C226 1.395 1_554 S
C224 C227 1.403 . S
H225 C231 0.930 . S
C226 H212 0.930 . S
C226 C224 1.395 1_556 S
C226 C229 1.403 . S
C227 C224 1.403 . S
C227 C228 1.524 . S
C227 C231 1.400 . S
C228 H213 0.960 . S
C228 H214 0.960 . S
C228 H215 0.960 . S
C228 C227 1.524 . S
C229 C226 1.403 . S
C229 C230 1.392 . S
C229 C233 1.495 . S
C230 C229 1.392 . S
C230 C231 1.385 1_556 S
C230 C232 1.478 . S
C231 H225 0.930 . S
C231 C227 1.400 . S
C231 C230 1.385 1_554 S
C232 C230 1.478 . S
C232 C234 1.381 1_556 S
C232 C238 1.383 . S
C233 C229 1.495 . S
C233 H239 0.959 . S
C233 H240 0.961 . S
C233 H241 0.962 . S
C234 C232 1.381 1_554 S
C234 C235 1.394 . S
C234 H242 0.930 . S
C235 C234 1.394 . S
C235 C236 1.383 1_554 S
C235 H243 0.929 . S
C236 C235 1.383 1_556 S
C236 C237 1.377 . S
C237 H221 0.930 . S
C237 C236 1.377 . S
C237 C238 1.379 . S
C238 H222 0.931 . S
C238 C232 1.383 . S
C238 C237 1.379 . S
H239 C233 0.959 . S
H240 C233 0.961 . S
H241 C233 0.962 . S
H242 C234 0.930 . S
H243 C235 0.929 . S
H244 C252 0.929 . S
H245 C254 0.930 . S
H246 C256 0.930 . S
H247 C259 0.929 . S
H248 C262 0.930 . S
H249 C264 0.960 . S
H250 C264 0.960 . S
H251 C264 0.960 . S
C252 H244 0.929 . S
C252 C253 1.377 . S
C252 C254 1.384 . S
C253 C252 1.377 . S
C253 C259 1.390 . S
C254 H245 0.930 . S
C254 C252 1.384 . S
C254 C255 1.372 . S
C255 C254 1.372 . S
C255 C256 1.400 . S
C255 C260 1.490 . S
C256 H246 0.930 . S
C256 C255 1.400 . S
C256 C259 1.386 . S
H257 C273 0.930 . S
H258 C274 0.931 . S
C259 H247 0.929 . S
C259 C253 1.390 . S
C259 C256 1.386 . S
C260 C255 1.490 . S
C260 C262 1.395 . S
C260 C263 1.403 . S
H261 C267 0.930 . S
C262 H248 0.930 . S
C262 C260 1.395 . S
C262 C265 1.403 . S
C263 C260 1.403 . S
C263 C264 1.524 . S
C263 C267 1.400 . S
C264 H249 0.960 . S
C264 H250 0.960 . S
C264 H251 0.960 . S
C264 C263 1.524 . S
C265 C262 1.403 . S
C265 C266 1.392 . S
C265 C269 1.495 . S
C266 C265 1.392 . S
C266 C267 1.385 . S
C266 C268 1.478 . S
C267 H261 0.930 . S
C267 C263 1.400 . S
C267 C266 1.385 . S
C268 C266 1.478 . S
C268 C270 1.381 . S
C268 C274 1.383 . S
C269 C265 1.495 . S
C269 H275 0.959 . S
C269 H276 0.961 . S
C269 H277 0.960 . S
C270 C268 1.381 . S
C270 C271 1.394 . S
C270 H278 0.930 . S
C271 C270 1.394 . S
C271 C272 1.383 . S
C271 H279 0.929 . S
C272 C271 1.383 . S
C272 C273 1.377 . S
C273 H257 0.930 . S
C273 C272 1.377 . S
C273 C274 1.379 . S
C274 H258 0.931 . S
C274 C268 1.383 . S
C274 C273 1.379 . S
H275 C269 0.959 . S
H276 C269 0.961 . S
H277 C269 0.960 . S
H278 C270 0.930 . S
H279 C271 0.929 . S
H280 C288 0.929 . S
H281 C290 0.930 . S
H282 C292 0.930 . S
H283 C295 0.929 . S
H284 C298 0.930 . S
H285 C300 0.960 . S
H286 C300 0.960 . S
H287 C300 0.960 . S
C288 H280 0.929 . S
C288 C289 1.377 . S
C288 C290 1.384 . S
C289 C288 1.377 . S
C289 C295 1.390 . S
C290 H281 0.930 . S
C290 C288 1.384 . S
C290 C291 1.372 . S
C291 C290 1.372 . S
C291 C292 1.400 . S
C291 C296 1.490 . S
C292 H282 0.930 . S
C292 C291 1.400 . S
C292 C295 1.386 . S
H293 C309 0.930 . S
H294 C310 0.931 . S
C295 H283 0.929 . S
C295 C289 1.390 . S
C295 C292 1.386 . S
C296 C291 1.490 . S
C296 C298 1.395 . S
C296 C299 1.403 . S
H297 C303 0.930 . S
C298 H284 0.930 . S
C298 C296 1.395 . S
C298 C301 1.403 . S
C299 C296 1.403 . S
C299 C300 1.524 . S
C299 C303 1.400 . S
C300 H285 0.960 . S
C300 H286 0.960 . S
C300 H287 0.960 . S
C300 C299 1.524 . S
C301 C298 1.403 . S
C301 C302 1.392 . S
C301 C305 1.495 . S
C302 C301 1.392 . S
C302 C303 1.385 . S
C302 C304 1.478 . S
C303 H297 0.930 . S
C303 C299 1.400 . S
C303 C302 1.385 . S
C304 C302 1.478 . S
C304 C306 1.381 . S
C304 C310 1.383 . S
C305 C301 1.495 . S
C305 H311 0.959 . S
C305 H312 0.961 . S
C305 H313 0.960 . S
C306 C304 1.381 . S
C306 C307 1.394 . S
C306 H314 0.930 . S
C307 C306 1.394 . S
C307 C308 1.383 . S
C307 H315 0.929 . S
C308 C307 1.383 . S
C308 C309 1.377 . S
C309 H293 0.930 . S
C309 C308 1.377 . S
C309 C310 1.379 . S
C310 H294 0.931 . S
C310 C304 1.383 . S
C310 C309 1.379 . S
H311 C305 0.959 . S
H312 C305 0.961 . S
H313 C305 0.960 . S
H314 C306 0.930 . S
H315 C307 0.929 . S
H316 C324 0.929 . S
H317 C326 0.930 . S
H318 C328 0.930 . S
H319 C331 0.929 . S
H320 C334 0.930 . S
H321 C336 0.960 . S
H322 C336 0.960 . S
H323 C336 0.960 . S
C324 H316 0.929 . S
C324 C325 1.377 . S
C324 C326 1.384 . S
C325 C324 1.377 . S
C325 C331 1.390 1_554 S
C326 H317 0.930 . S
C326 C324 1.384 . S
C326 C327 1.372 . S
C327 C326 1.372 . S
C327 C328 1.400 1_554 S
C327 C332 1.490 . S
C328 H318 0.930 . S
C328 C327 1.400 1_556 S
C328 C331 1.386 . S
H329 C345 0.930 . S
H330 C346 0.931 . S
C331 H319 0.929 . S
C331 C325 1.390 1_556 S
C331 C328 1.386 . S
C332 C327 1.490 . S
C332 C334 1.395 1_554 S
C332 C335 1.403 . S
H333 C339 0.930 . S
C334 H320 0.930 . S
C334 C332 1.395 1_556 S
C334 C337 1.403 . S
C335 C332 1.403 . S
C335 C336 1.524 . S
C335 C339 1.400 . S
C336 H321 0.960 . S
C336 H322 0.960 . S
C336 H323 0.960 . S
C336 C335 1.524 . S
C337 C334 1.403 . S
C337 C338 1.392 1_556 S
C337 C341 1.495 . S
C338 C337 1.392 1_554 S
C338 C339 1.385 . S
C338 C340 1.478 . S
C339 H333 0.930 . S
C339 C335 1.400 . S
C339 C338 1.385 . S
C340 C338 1.478 . S
C340 C342 1.381 . S
C340 C346 1.383 1_554 S
C341 C337 1.495 . S
C341 H347 0.959 . S
C341 H348 0.961 . S
C341 H349 0.960 1_556 S
C342 C340 1.381 . S
C342 C343 1.394 . S
C342 H350 0.930 . S
C343 C342 1.394 . S
C343 C344 1.383 . S
C343 H351 0.929 . S
C344 C343 1.383 . S
C344 C345 1.377 1_554 S
C345 H329 0.930 . S
C345 C344 1.377 1_556 S
C345 C346 1.379 . S
C346 H330 0.931 . S
C346 C340 1.383 1_556 S
C346 C345 1.379 . S
H347 C341 0.959 . S
H348 C341 0.961 . S
H349 C341 0.960 1_554 S
H350 C342 0.930 . S
H351 C343 0.929 . S
H352 C360 0.929 . S
H353 C362 0.930 . S
H354 C364 0.930 . S
H355 C367 0.929 . S
H356 C370 0.930 . S
H357 C372 0.960 . S
H358 C372 0.960 . S
H359 C372 0.960 . S
C360 H352 0.929 . S
C360 C361 1.377 . S
C360 C362 1.384 . S
C361 C360 1.377 . S
C361 C367 1.390 . S
C362 H353 0.930 . S
C362 C360 1.384 . S
C362 C363 1.372 . S
C363 C362 1.372 . S
C363 C364 1.400 . S
C363 C368 1.490 . S
C364 H354 0.930 . S
C364 C363 1.400 . S
C364 C367 1.386 . S
H365 C381 0.930 . S
H366 C382 0.931 . S
C367 H355 0.929 . S
C367 C361 1.390 . S
C367 C364 1.386 . S
C368 C363 1.490 . S
C368 C370 1.395 . S
C368 C371 1.403 . S
H369 C375 0.930 . S
C370 H356 0.930 . S
C370 C368 1.395 . S
C370 C373 1.403 . S
C371 C368 1.403 . S
C371 C372 1.524 . S
C371 C375 1.400 . S
C372 H357 0.960 . S
C372 H358 0.960 . S
C372 H359 0.960 . S
C372 C371 1.524 . S
C373 C370 1.403 . S
C373 C374 1.392 . S
C373 C377 1.495 . S
C374 C373 1.392 . S
C374 C375 1.385 . S
C374 C376 1.478 . S
C375 H369 0.930 . S
C375 C371 1.400 . S
C375 C374 1.385 . S
C376 C374 1.478 . S
C376 C378 1.381 . S
C376 C382 1.383 . S
C377 C373 1.495 . S
C377 H383 0.959 . S
C377 H384 0.961 . S
C377 H385 0.960 . S
C378 C376 1.381 . S
C378 C379 1.394 . S
C378 H386 0.930 . S
C379 C378 1.394 . S
C379 C380 1.383 . S
C379 H387 0.929 . S
C380 C379 1.383 . S
C380 C381 1.377 . S
C381 H365 0.930 . S
C381 C380 1.377 . S
C381 C382 1.379 . S
C382 H366 0.931 . S
C382 C376 1.383 . S
C382 C381 1.379 . S
H383 C377 0.959 . S
H384 C377 0.961 . S
H385 C377 0.960 . S
H386 C378 0.930 . S
H387 C379 0.929 . S
H388 C396 0.929 . S
H389 C398 0.930 . S
H390 C400 0.930 . S
H391 C403 0.929 . S
H392 C406 0.930 . S
H393 C408 0.960 . S
H394 C408 0.960 1_455 S
H395 C408 0.960 . S
C396 H388 0.929 . S
C396 C397 1.377 1_556 S
C396 C398 1.384 . S
C397 C396 1.377 1_554 S
C397 C403 1.390 . S
C398 H389 0.930 . S
C398 C396 1.384 . S
C398 C399 1.372 1_556 S
C399 C398 1.372 1_554 S
C399 C400 1.400 . S
C399 C404 1.490 . S
C400 H390 0.930 . S
C400 C399 1.400 . S
C400 C403 1.386 . S
H401 C417 0.930 . S
H402 C418 0.931 . S
C403 H391 0.929 . S
C403 C397 1.390 . S
C403 C400 1.386 . S
C404 C399 1.490 . S
C404 C406 1.395 1_545 S
C404 C407 1.393 1_454 S
H405 C411 0.930 . S
C406 H392 0.930 . S
C406 C404 1.395 1_565 S
C406 C409 1.403 . S
C407 C404 1.393 1_656 S
C407 C408 1.524 . S
C407 C411 1.409 . S
C408 H393 0.960 . S
C408 H394 0.960 1_655 S
C408 H395 0.960 . S
C408 C407 1.524 . S
C409 C406 1.403 . S
C409 C410 1.392 1_455 S
C409 C413 1.495 . S
C410 C409 1.392 1_655 S
C410 C411 1.385 1_564 S
C410 C412 1.478 . S
C411 H405 0.930 . S
C411 C407 1.409 . S
C411 C410 1.385 1_546 S
C412 C410 1.478 . S
C412 C414 1.381 1_554 S
C412 C418 1.383 . S
C413 C409 1.495 . S
C413 H419 0.959 . S
C413 H420 0.961 1_455 S
C413 H421 0.960 . S
C414 C412 1.381 1_556 S
C414 C415 1.394 . S
C414 H422 0.930 . S
C415 C414 1.394 . S
C415 C416 1.383 1_556 S
C415 H423 0.929 . S
C416 C415 1.383 1_554 S
C416 C417 1.377 . S
C417 H401 0.930 . S
C417 C416 1.377 . S
C417 C418 1.379 . S
C418 H402 0.931 . S
C418 C412 1.383 . S
C418 C417 1.379 . S
H419 C413 0.959 . S
H420 C413 0.961 1_655 S
H421 C413 0.960 . S
H422 C414 0.930 . S
H423 C415 0.929 . S
H424 C432 0.929 . S
H425 C434 0.930 . S
H426 C436 0.930 . S
H427 C439 0.929 . S
H428 C442 0.930 . S
H429 C444 0.960 . S
H430 C444 0.960 . S
H431 C444 0.960 1_545 S
C432 H424 0.929 . S
C432 C433 1.377 . S
C432 C434 1.384 . S
C433 C432 1.377 . S
C433 C439 1.390 . S
C434 H425 0.930 . S
C434 C432 1.384 . S
C434 C435 1.372 . S
C435 C434 1.372 . S
C435 C436 1.400 . S
C435 C440 1.490 . S
C436 H426 0.930 . S
C436 C435 1.400 . S
C436 C439 1.386 . S
H437 C453 0.930 . S
H438 C454 0.931 . S
C439 H427 0.929 . S
C439 C433 1.390 . S
C439 C436 1.386 . S
C440 C435 1.490 . S
C440 C442 1.395 1_655 S
C440 C443 1.403 1_545 S
H441 C447 0.930 . S
C442 H428 0.930 . S
C442 C440 1.395 1_455 S
C442 C445 1.403 . S
C443 C440 1.403 1_565 S
C443 C444 1.524 . S
C443 C447 1.400 1_655 S
C444 H429 0.960 . S
C444 H430 0.960 . S
C444 H431 0.960 1_565 S
C444 C443 1.524 . S
C445 C442 1.403 . S
C445 C446 1.392 1_545 S
C445 C449 1.495 . S
C446 C445 1.392 1_565 S
C446 C447 1.385 . S
C446 C448 1.478 . S
C447 H441 0.930 . S
C447 C443 1.400 1_455 S
C447 C446 1.385 . S
C448 C446 1.478 . S
C448 C450 1.381 . S
C448 C454 1.383 . S
C449 C445 1.495 . S
C449 H455 0.959 . S
C449 H456 0.961 . S
C449 H457 0.960 . S
C450 C448 1.381 . S
C450 C451 1.394 . S
C450 H458 0.930 . S
C451 C450 1.394 . S
C451 C452 1.383 . S
C451 H459 0.929 . S
C452 C451 1.383 . S
C452 C453 1.377 . S
C453 H437 0.930 . S
C453 C452 1.377 . S
C453 C454 1.379 . S
C454 H438 0.931 . S
C454 C448 1.383 . S
C454 C453 1.379 . S
H455 C449 0.959 . S
H456 C449 0.961 . S
H457 C449 0.960 . S
H458 C450 0.930 . S
H459 C451 0.929 . S
H460 C468 0.929 . S
H461 C470 0.930 . S
H462 C472 0.930 . S
H463 C475 0.929 . S
H464 C478 0.930 . S
H465 C480 0.960 . S
H466 C480 0.960 . S
H467 C480 0.960 . S
C468 H460 0.929 . S
C468 C469 1.377 . S
C468 C470 1.384 . S
C469 C468 1.377 . S
C469 C475 1.390 . S
C470 H461 0.930 . S
C470 C468 1.384 . S
C470 C471 1.372 . S
C471 C470 1.372 . S
C471 C472 1.400 . S
C471 C476 1.490 . S
C472 H462 0.930 . S
C472 C471 1.400 . S
C472 C475 1.386 . S
H473 C489 0.930 . S
H474 C490 0.931 . S
C475 H463 0.929 . S
C475 C469 1.390 . S
C475 C472 1.386 . S
C476 C471 1.490 . S
C476 C478 1.395 . S
C476 C479 1.403 . S
H477 C483 0.930 . S
C478 H464 0.930 . S
C478 C476 1.395 . S
C478 C481 1.403 . S
C479 C476 1.403 . S
C479 C480 1.524 . S
C479 C483 1.400 . S
C480 H465 0.960 . S
C480 H466 0.960 . S
C480 H467 0.960 . S
C480 C479 1.524 . S
C481 C478 1.403 . S
C481 C482 1.392 . S
C481 C485 1.495 . S
C482 C481 1.392 . S
C482 C483 1.385 . S
C482 C484 1.478 . S
C483 H477 0.930 . S
C483 C479 1.400 . S
C483 C482 1.385 . S
C484 C482 1.478 . S
C484 C486 1.381 . S
C484 C490 1.383 . S
C485 C481 1.495 . S
C485 H491 0.959 . S
C485 H492 0.961 . S
C485 H493 0.960 . S
C486 C484 1.381 . S
C486 C487 1.394 . S
C486 H494 0.930 . S
C487 C486 1.394 . S
C487 C488 1.383 . S
C487 H495 0.929 . S
C488 C487 1.383 . S
C488 C489 1.377 . S
C489 H473 0.930 . S
C489 C488 1.377 . S
C489 C490 1.379 . S
C490 H474 0.931 . S
C490 C484 1.383 . S
C490 C489 1.379 . S
H491 C485 0.959 . S
H492 C485 0.961 . S
H493 C485 0.960 . S
H494 C486 0.930 . S
H495 C487 0.929 . S
H496 C504 0.929 . S
H497 C506 0.930 . S
H498 C508 0.930 . S
H499 C511 0.929 . S
H500 C514 0.930 . S
H501 C516 0.960 . S
H502 C516 0.960 . S
H503 C516 0.960 . S
C504 H496 0.929 . S
C504 C505 1.377 . S
C504 C506 1.384 . S
C505 C504 1.377 . S
C505 C511 1.390 . S
C506 H497 0.930 . S
C506 C504 1.384 . S
C506 C507 1.372 . S
C507 C506 1.372 . S
C507 C508 1.400 . S
C507 C512 1.490 . S
C508 H498 0.930 . S
C508 C507 1.400 . S
C508 C511 1.386 . S
H509 C525 0.930 . S
H510 C526 0.931 . S
C511 H499 0.929 . S
C511 C505 1.390 . S
C511 C508 1.386 . S
C512 C507 1.490 . S
C512 C514 1.395 . S
C512 C515 1.403 . S
H513 C519 0.930 . S
C514 H500 0.930 . S
C514 C512 1.395 . S
C514 C517 1.403 . S
C515 C512 1.403 . S
C515 C516 1.524 . S
C515 C519 1.400 . S
C516 H501 0.960 . S
C516 H502 0.960 . S
C516 H503 0.960 . S
C516 C515 1.524 . S
C517 C514 1.403 . S
C517 C518 1.392 . S
C517 C521 1.495 . S
C518 C517 1.392 . S
C518 C519 1.385 . S
C518 C520 1.478 . S
C519 H513 0.930 . S
C519 C515 1.400 . S
C519 C518 1.385 . S
C520 C518 1.478 . S
C520 C522 1.381 . S
C520 C526 1.383 . S
C521 C517 1.495 . S
C521 H527 0.959 . S
C521 H528 0.961 . S
C521 H529 0.960 . S
C522 C520 1.381 . S
C522 C523 1.394 . S
C522 H530 0.930 . S
C523 C522 1.394 . S
C523 C524 1.383 . S
C523 H531 0.929 . S
C524 C523 1.383 . S
C524 C525 1.377 . S
C525 H509 0.930 . S
C525 C524 1.377 . S
C525 C526 1.379 . S
C526 H510 0.931 . S
C526 C520 1.383 . S
C526 C525 1.379 . S
H527 C521 0.959 . S
H528 C521 0.961 . S
H529 C521 0.960 . S
H530 C522 0.930 . S
H531 C523 0.929 . S
H532 C540 0.929 . S
H533 C542 0.930 . S
H534 C544 0.930 . S
H535 C547 0.929 . S
H536 C550 0.930 . S
H537 C552 0.960 . S
H538 C552 0.960 . S
H539 C552 0.960 . S
C540 H532 0.929 . S
C540 C541 1.377 . S
C540 C542 1.384 . S
C541 C540 1.377 . S
C541 C547 1.390 . S
C542 H533 0.930 . S
C542 C540 1.384 . S
C542 C543 1.372 . S
C543 C542 1.372 . S
C543 C544 1.400 . S
C543 C548 1.490 . S
C544 H534 0.930 . S
C544 C543 1.400 . S
C544 C547 1.386 . S
H545 C561 0.930 . S
H546 C562 0.931 . S
C547 H535 0.929 . S
C547 C541 1.390 . S
C547 C544 1.386 . S
C548 C543 1.490 . S
C548 C550 1.395 . S
C548 C551 1.403 . S
H549 C555 0.930 . S
C550 H536 0.930 . S
C550 C548 1.395 . S
C550 C553 1.403 . S
C551 C548 1.403 . S
C551 C552 1.524 . S
C551 C555 1.400 . S
C552 H537 0.960 . S
C552 H538 0.960 . S
C552 H539 0.960 . S
C552 C551 1.524 . S
C553 C550 1.403 . S
C553 C554 1.392 . S
C553 C557 1.495 . S
C554 C553 1.392 . S
C554 C555 1.385 . S
C554 C556 1.478 . S
C555 H549 0.930 . S
C555 C551 1.400 . S
C555 C554 1.385 . S
C556 C554 1.478 . S
C556 C558 1.381 . S
C556 C562 1.383 . S
C557 C553 1.495 . S
C557 H563 0.959 . S
C557 H564 0.961 . S
C557 H565 0.960 . S
C558 C556 1.381 . S
C558 C559 1.394 . S
C558 H566 0.930 . S
C559 C558 1.394 . S
C559 C560 1.383 . S
C559 H567 0.929 . S
C560 C559 1.383 . S
C560 C561 1.377 . S
C561 H545 0.930 . S
C561 C560 1.377 . S
C561 C562 1.379 . S
C562 H546 0.931 . S
C562 C556 1.383 . S
C562 C561 1.379 . S
H563 C557 0.959 . S
H564 C557 0.961 . S
H565 C557 0.960 . S
H566 C558 0.930 . S
H567 C559 0.929 . S
H568 C576 0.929 . S
H569 C578 0.930 . S
H570 C580 0.930 . S
H571 C583 0.929 . S
H572 C586 0.930 . S
H573 C588 0.960 . S
H574 C588 0.960 . S
H575 C588 0.960 . S
C576 H568 0.929 . S
C576 C577 1.377 . S
C576 C578 1.384 . S
C577 C576 1.377 . S
C577 C583 1.390 . S
C578 H569 0.930 . S
C578 C576 1.384 . S
C578 C579 1.372 . S
C579 C578 1.372 . S
C579 C580 1.400 . S
C579 C584 1.490 . S
C580 H570 0.930 . S
C580 C579 1.400 . S
C580 C583 1.386 . S
H581 C597 0.930 . S
H582 C598 0.931 . S
C583 H571 0.929 . S
C583 C577 1.390 . S
C583 C580 1.386 . S
C584 C579 1.490 . S
C584 C586 1.395 . S
C584 C587 1.403 . S
H585 C591 0.930 . S
C586 H572 0.930 . S
C586 C584 1.395 . S
C586 C589 1.403 . S
C587 C584 1.403 . S
C587 C588 1.524 . S
C587 C591 1.400 . S
C588 H573 0.960 . S
C588 H574 0.960 . S
C588 H575 0.960 . S
C588 C587 1.524 . S
C589 C586 1.403 . S
C589 C590 1.392 . S
C589 C593 1.495 . S
C590 C589 1.392 . S
C590 C591 1.385 . S
C590 C592 1.478 . S
C591 H585 0.930 . S
C591 C587 1.400 . S
C591 C590 1.385 . S
C592 C590 1.478 . S
C592 C594 1.381 . S
C592 C598 1.383 . S
C593 C589 1.495 . S
C593 H599 0.959 . S
C593 H600 0.961 . S
C593 H601 0.960 . S
C594 C592 1.381 . S
C594 C595 1.394 . S
C594 H602 0.930 . S
C595 C594 1.394 . S
C595 C596 1.383 . S
C595 H603 0.929 . S
C596 C595 1.383 . S
C596 C597 1.377 . S
C597 H581 0.930 . S
C597 C596 1.377 . S
C597 C598 1.379 . S
C598 H582 0.931 . S
C598 C592 1.383 . S
C598 C597 1.379 . S
H599 C593 0.959 . S
H600 C593 0.961 . S
H601 C593 0.960 . S
H602 C594 0.930 . S
H603 C595 0.929 . S
H604 C612 0.929 . S
H605 C614 0.930 . S
H606 C616 0.930 . S
H607 C619 0.929 . S
H608 C622 0.930 . S
H609 C624 0.960 . S
H610 C624 0.960 . S
H611 C624 0.960 . S
C612 H604 0.929 . S
C612 C613 1.377 . S
C612 C614 1.384 . S
C613 C612 1.377 . S
C613 C619 1.390 . S
C614 H605 0.930 . S
C614 C612 1.384 . S
C614 C615 1.372 . S
C615 C614 1.372 . S
C615 C616 1.400 . S
C615 C620 1.490 . S
C616 H606 0.930 . S
C616 C615 1.400 . S
C616 C619 1.386 . S
H617 C633 0.930 . S
H618 C634 0.931 . S
C619 H607 0.929 . S
C619 C613 1.390 . S
C619 C616 1.386 . S
C620 C615 1.490 . S
C620 C622 1.395 1_455 S
C620 C623 1.403 . S
H621 C627 0.930 . S
C622 H608 0.930 . S
C622 C620 1.395 1_655 S
C622 C625 1.403 . S
C623 C620 1.403 . S
C623 C624 1.524 . S
C623 C627 1.400 . S
C624 H609 0.960 . S
C624 H610 0.960 . S
C624 H611 0.960 . S
C624 C623 1.524 . S
C625 C622 1.403 . S
C625 C626 1.392 . S
C625 C629 1.495 . S
C626 C625 1.392 . S
C626 C627 1.385 1_655 S
C626 C628 1.478 . S
C627 H621 0.930 . S
C627 C623 1.400 . S
C627 C626 1.385 1_455 S
C628 C626 1.478 . S
C628 C630 1.381 . S
C628 C634 1.383 . S
C629 C625 1.495 . S
C629 H635 0.959 . S
C629 H636 0.961 . S
C629 H637 0.960 . S
C630 C628 1.381 . S
C630 C631 1.394 . S
C630 H638 0.930 . S
C631 C630 1.394 . S
C631 C632 1.383 . S
C631 H639 0.929 . S
C632 C631 1.383 . S
C632 C633 1.377 . S
C633 H617 0.930 . S
C633 C632 1.377 . S
C633 C634 1.379 . S
C634 H618 0.931 . S
C634 C628 1.383 . S
C634 C633 1.379 . S
H635 C629 0.959 . S
H636 C629 0.961 . S
H637 C629 0.960 . S
H638 C630 0.930 . S
H639 C631 0.929 . S
H640 C648 0.929 . S
H641 C650 0.930 . S
H642 C652 0.930 . S
H643 C655 0.929 . S
H644 C658 0.930 . S
H645 C660 0.960 . S
H646 C660 0.960 . S
H647 C660 0.960 . S
C648 H640 0.929 . S
C648 C649 1.377 . S
C648 C650 1.384 . S
C649 C648 1.377 . S
C649 C655 1.390 . S
C650 H641 0.930 . S
C650 C648 1.384 . S
C650 C651 1.372 . S
C651 C650 1.372 . S
C651 C652 1.400 . S
C651 C656 1.490 . S
C652 H642 0.930 . S
C652 C651 1.400 . S
C652 C655 1.386 . S
H653 C669 0.930 . S
H654 C670 0.931 . S
C655 H643 0.929 . S
C655 C649 1.390 . S
C655 C652 1.386 . S
C656 C651 1.490 . S
C656 C658 1.395 1_655 S
C656 C659 1.403 . S
H657 C663 0.930 . S
C658 H644 0.930 . S
C658 C656 1.395 1_455 S
C658 C661 1.403 . S
C659 C656 1.403 . S
C659 C660 1.524 . S
C659 C663 1.400 . S
C660 H645 0.960 . S
C660 H646 0.960 . S
C660 H647 0.960 . S
C660 C659 1.524 . S
C661 C658 1.403 . S
C661 C662 1.392 . S
C661 C665 1.495 . S
C662 C661 1.392 . S
C662 C663 1.385 1_455 S
C662 C664 1.478 . S
C663 H657 0.930 . S
C663 C659 1.400 . S
C663 C662 1.385 1_655 S
C664 C662 1.478 . S
C664 C666 1.381 . S
C664 C670 1.383 . S
C665 C661 1.495 . S
C665 H671 0.959 . S
C665 H672 0.961 . S
C665 H673 0.960 . S
C666 C664 1.381 . S
C666 C667 1.394 . S
C666 H674 0.930 . S
C667 C666 1.394 . S
C667 C668 1.383 . S
C667 H675 0.929 . S
C668 C667 1.383 . S
C668 C669 1.377 . S
C669 H653 0.930 . S
C669 C668 1.377 . S
C669 C670 1.379 . S
C670 H654 0.931 . S
C670 C664 1.383 . S
C670 C669 1.379 . S
H671 C665 0.959 . S
H672 C665 0.961 . S
H673 C665 0.960 . S
H674 C666 0.930 . S
H675 C667 0.929 . S
H676 C684 0.929 . S
H677 C686 0.930 . S
H678 C688 0.930 . S
H679 C691 0.929 . S
H680 C694 0.930 . S
H681 C696 0.960 . S
H682 C696 0.960 . S
H683 C696 0.960 . S
C684 H676 0.929 . S
C684 C685 1.377 . S
C684 C686 1.384 . S
C685 C684 1.377 . S
C685 C691 1.390 . S
C686 H677 0.930 . S
C686 C684 1.384 . S
C686 C687 1.372 . S
C687 C686 1.372 . S
C687 C688 1.400 . S
C687 C692 1.490 . S
C688 H678 0.930 . S
C688 C687 1.400 . S
C688 C691 1.386 . S
H689 C705 0.930 . S
H690 C706 0.931 . S
C691 H679 0.929 . S
C691 C685 1.390 . S
C691 C688 1.386 . S
C692 C687 1.490 . S
C692 C694 1.395 1_455 S
C692 C695 1.403 . S
H693 C699 0.930 . S
C694 H680 0.930 . S
C694 C692 1.395 1_655 S
C694 C697 1.403 . S
C695 C692 1.403 . S
C695 C696 1.524 . S
C695 C699 1.400 . S
C696 H681 0.960 . S
C696 H682 0.960 . S
C696 H683 0.960 . S
C696 C695 1.524 . S
C697 C694 1.403 . S
C697 C698 1.392 . S
C697 C701 1.495 . S
C698 C697 1.392 . S
C698 C699 1.385 1_655 S
C698 C700 1.478 . S
C699 H693 0.930 . S
C699 C695 1.400 . S
C699 C698 1.385 1_455 S
C700 C698 1.478 . S
C700 C702 1.381 . S
C700 C706 1.383 . S
C701 C697 1.495 . S
C701 H707 0.959 . S
C701 H708 0.961 . S
C701 H709 0.960 . S
C702 C700 1.381 . S
C702 C703 1.394 . S
C702 H710 0.930 . S
C703 C702 1.394 . S
C703 C704 1.383 . S
C703 H711 0.929 . S
C704 C703 1.383 . S
C704 C705 1.377 . S
C705 H689 0.930 . S
C705 C704 1.377 . S
C705 C706 1.379 . S
C706 H690 0.931 . S
C706 C700 1.383 . S
C706 C705 1.379 . S
H707 C701 0.959 . S
H708 C701 0.961 . S
H709 C701 0.960 . S
H710 C702 0.930 . S
H711 C703 0.929 . S
H712 C720 0.929 . S
H713 C722 0.930 . S
H714 C724 0.930 . S
H715 C727 0.929 . S
H716 C730 0.930 . S
H717 C732 0.960 . S
H718 C732 0.960 . S
H719 C732 0.960 . S
C720 H712 0.929 . S
C720 C721 1.377 . S
C720 C722 1.384 . S
C721 C720 1.377 . S
C721 C727 1.390 . S
C722 H713 0.930 . S
C722 C720 1.384 . S
C722 C723 1.372 . S
C723 C722 1.372 . S
C723 C724 1.400 . S
C723 C728 1.490 . S
C724 H714 0.930 . S
C724 C723 1.400 . S
C724 C727 1.386 . S
H725 C741 0.930 . S
H726 C742 0.931 . S
C727 H715 0.929 . S
C727 C721 1.390 . S
C727 C724 1.386 . S
C728 C723 1.490 . S
C728 C730 1.395 . S
C728 C731 1.403 . S
H729 C735 0.930 . S
C730 H716 0.930 . S
C730 C728 1.395 . S
C730 C733 1.403 1_455 S
C731 C728 1.403 . S
C731 C732 1.524 . S
C731 C735 1.400 1_455 S
C732 H717 0.960 . S
C732 H718 0.960 . S
C732 H719 0.960 . S
C732 C731 1.524 . S
C733 C730 1.403 1_655 S
C733 C734 1.392 . S
C733 C737 1.495 . S
C734 C733 1.392 . S
C734 C735 1.385 . S
C734 C736 1.478 . S
C735 H729 0.930 . S
C735 C731 1.400 1_655 S
C735 C734 1.385 . S
C736 C734 1.478 . S
C736 C738 1.381 . S
C736 C742 1.383 . S
C737 C733 1.495 . S
C737 H743 0.959 . S
C737 H744 0.961 . S
C737 H745 0.960 . S
C738 C736 1.381 . S
C738 C739 1.394 . S
C738 H746 0.930 . S
C739 C738 1.394 . S
C739 C740 1.383 . S
C739 H747 0.929 . S
C740 C739 1.383 . S
C740 C741 1.377 . S
C741 H725 0.930 . S
C741 C740 1.377 . S
C741 C742 1.379 . S
C742 H726 0.931 . S
C742 C736 1.383 . S
C742 C741 1.379 . S
H743 C737 0.959 . S
H744 C737 0.961 . S
H745 C737 0.960 . S
H746 C738 0.930 . S
H747 C739 0.929 . S
C181 N8 0.252 1_554 S
C200 N3 0.491 1_556 S
C217 N51 0.267 1_554 S
C236 N46 0.529 1_556 S
C253 N89 0.449 . S
C272 N94 0.242 . S
C289 N137 0.445 . S
C308 N132 0.278 . S
C325 C70 1.540 . S
C344 C40 1.575 . S
C361 C162 1.546 . S
C380 C113 1.550 . S
C397 C27 1.544 . S
C416 C83 1.508 . S
C433 C161 1.548 . S
C452 C126 1.566 . S
C469 C168 1.501 . S
C488 C13 1.529 . S
C505 C76 1.218 . S
C524 C119 1.245 . S
C541 C125 1.293 . S
C560 C82 1.335 . S
C577 C32 1.298 . S
C596 C156 1.302 . S
C613 C99 1.502 . S
C632 C56 1.535 . S
C649 C169 1.215 . S
C668 C33 1.229 . S
C685 C39 1.287 . S
C704 C142 1.344 . S
C721 C118 1.304 . S
C740 C75 1.263 . S
