# Generated by pormake.
# Topology crs, (6)-cn, num edge types: 1
# Building blocks:
#     Node 0, Type 0, BuildingBlock: BETDEL_clean_sbu_0, # of connection points: 6
#     Node 1, Type 0, BuildingBlock: BETDEL_clean_sbu_0, # of connection points: 6
#     Node 2, Type 0, BuildingBlock: BETDEL_clean_sbu_0, # of connection points: 6
#     Node 3, Type 0, BuildingBlock: BETDEL_clean_sbu_0, # of connection points: 6
#     Node 4, Type 0, BuildingBlock: BETDEL_clean_sbu_0, # of connection points: 6
#     Node 5, Type 0, BuildingBlock: BETDEL_clean_sbu_0, # of connection points: 6
#     Node 6, Type 0, BuildingBlock: BETDEL_clean_sbu_0, # of connection points: 6
#     Node 7, Type 0, BuildingBlock: BETDEL_clean_sbu_0, # of connection points: 6
#     Node 8, Type 0, BuildingBlock: BETDEL_clean_sbu_0, # of connection points: 6
#     Node 9, Type 0, BuildingBlock: BETDEL_clean_sbu_0, # of connection points: 6
#     Node 10, Type 0, BuildingBlock: BETDEL_clean_sbu_0, # of connection points: 6
#     Node 11, Type 0, BuildingBlock: BETDEL_clean_sbu_0, # of connection points: 6
#     Node 12, Type 0, BuildingBlock: BETDEL_clean_sbu_0, # of connection points: 6
#     Node 13, Type 0, BuildingBlock: BETDEL_clean_sbu_0, # of connection points: 6
#     Node 14, Type 0, BuildingBlock: BETDEL_clean_sbu_0, # of connection points: 6
#     Node 15, Type 0, BuildingBlock: BETDEL_clean_sbu_0, # of connection points: 6
#     Edge 16, Type (0, 0), BuildingBlock: CIFDUS_clean_linker_0, # of connection points: 2
#     Edge 17, Type (0, 0), BuildingBlock: CIFDUS_clean_linker_0, # of connection points: 2
#     Edge 18, Type (0, 0), BuildingBlock: CIFDUS_clean_linker_0, # of connection points: 2
#     Edge 19, Type (0, 0), BuildingBlock: CIFDUS_clean_linker_0, # of connection points: 2
#     Edge 20, Type (0, 0), BuildingBlock: CIFDUS_clean_linker_0, # of connection points: 2
#     Edge 21, Type (0, 0), BuildingBlock: CIFDUS_clean_linker_0, # of connection points: 2
#     Edge 22, Type (0, 0), BuildingBlock: CIFDUS_clean_linker_0, # of connection points: 2
#     Edge 23, Type (0, 0), BuildingBlock: CIFDUS_clean_linker_0, # of connection points: 2
#     Edge 24, Type (0, 0), BuildingBlock: CIFDUS_clean_linker_0, # of connection points: 2
#     Edge 25, Type (0, 0), BuildingBlock: CIFDUS_clean_linker_0, # of connection points: 2
#     Edge 26, Type (0, 0), BuildingBlock: CIFDUS_clean_linker_0, # of connection points: 2
#     Edge 27, Type (0, 0), BuildingBlock: CIFDUS_clean_linker_0, # of connection points: 2
#     Edge 28, Type (0, 0), BuildingBlock: CIFDUS_clean_linker_0, # of connection points: 2
#     Edge 29, Type (0, 0), BuildingBlock: CIFDUS_clean_linker_0, # of connection points: 2
#     Edge 30, Type (0, 0), BuildingBlock: CIFDUS_clean_linker_0, # of connection points: 2
#     Edge 31, Type (0, 0), BuildingBlock: CIFDUS_clean_linker_0, # of connection points: 2
#     Edge 32, Type (0, 0), BuildingBlock: CIFDUS_clean_linker_0, # of connection points: 2
#     Edge 33, Type (0, 0), BuildingBlock: CIFDUS_clean_linker_0, # of connection points: 2
#     Edge 34, Type (0, 0), BuildingBlock: CIFDUS_clean_linker_0, # of connection points: 2
#     Edge 35, Type (0, 0), BuildingBlock: CIFDUS_clean_linker_0, # of connection points: 2
#     Edge 36, Type (0, 0), BuildingBlock: CIFDUS_clean_linker_0, # of connection points: 2
#     Edge 37, Type (0, 0), BuildingBlock: CIFDUS_clean_linker_0, # of connection points: 2
#     Edge 38, Type (0, 0), BuildingBlock: CIFDUS_clean_linker_0, # of connection points: 2
#     Edge 39, Type (0, 0), BuildingBlock: CIFDUS_clean_linker_0, # of connection points: 2
#     Edge 40, Type (0, 0), BuildingBlock: CIFDUS_clean_linker_0, # of connection points: 2
#     Edge 41, Type (0, 0), BuildingBlock: CIFDUS_clean_linker_0, # of connection points: 2
#     Edge 42, Type (0, 0), BuildingBlock: CIFDUS_clean_linker_0, # of connection points: 2
#     Edge 43, Type (0, 0), BuildingBlock: CIFDUS_clean_linker_0, # of connection points: 2
#     Edge 44, Type (0, 0), BuildingBlock: CIFDUS_clean_linker_0, # of connection points: 2
#     Edge 45, Type (0, 0), BuildingBlock: CIFDUS_clean_linker_0, # of connection points: 2
#     Edge 46, Type (0, 0), BuildingBlock: CIFDUS_clean_linker_0, # of connection points: 2
#     Edge 47, Type (0, 0), BuildingBlock: CIFDUS_clean_linker_0, # of connection points: 2
#     Edge 48, Type (0, 0), BuildingBlock: CIFDUS_clean_linker_0, # of connection points: 2
#     Edge 49, Type (0, 0), BuildingBlock: CIFDUS_clean_linker_0, # of connection points: 2
#     Edge 50, Type (0, 0), BuildingBlock: CIFDUS_clean_linker_0, # of connection points: 2
#     Edge 51, Type (0, 0), BuildingBlock: CIFDUS_clean_linker_0, # of connection points: 2
#     Edge 52, Type (0, 0), BuildingBlock: CIFDUS_clean_linker_0, # of connection points: 2
#     Edge 53, Type (0, 0), BuildingBlock: CIFDUS_clean_linker_0, # of connection points: 2
#     Edge 54, Type (0, 0), BuildingBlock: CIFDUS_clean_linker_0, # of connection points: 2
#     Edge 55, Type (0, 0), BuildingBlock: CIFDUS_clean_linker_0, # of connection points: 2
#     Edge 56, Type (0, 0), BuildingBlock: CIFDUS_clean_linker_0, # of connection points: 2
#     Edge 57, Type (0, 0), BuildingBlock: CIFDUS_clean_linker_0, # of connection points: 2
#     Edge 58, Type (0, 0), BuildingBlock: CIFDUS_clean_linker_0, # of connection points: 2
#     Edge 59, Type (0, 0), BuildingBlock: CIFDUS_clean_linker_0, # of connection points: 2
#     Edge 60, Type (0, 0), BuildingBlock: CIFDUS_clean_linker_0, # of connection points: 2
#     Edge 61, Type (0, 0), BuildingBlock: CIFDUS_clean_linker_0, # of connection points: 2
#     Edge 62, Type (0, 0), BuildingBlock: CIFDUS_clean_linker_0, # of connection points: 2
#     Edge 63, Type (0, 0), BuildingBlock: CIFDUS_clean_linker_0, # of connection points: 2
# Relax obj value: 0.355
# Max RMSD: 0.306
# Mean RMSD: 0.256
data_MOF--net-crs--node1-BETDEL_clean_sbu_0--edge1-CIFDUS_clean_linker_0
_symmetry_space_group_name_H-M    P1
_symmetry_Int_Tables_number       1
_symmetry_cell_setting            triclinic
loop_
_symmetry_equiv_pos_as_xyz
'x, y, z'
_cell_length_a     38.930348
_cell_length_b     39.077579
_cell_length_c     37.513032
_cell_angle_alpha  83.591738
_cell_angle_beta   85.411997
_cell_angle_gamma 78.172357
loop_
_atom_site_label
_atom_site_type_symbol
_atom_site_fract_x
_atom_site_fract_y
_atom_site_fract_z
_atom_type_partial_charge
Dy0 Dy 0.95541 0.97869 0.01125 0.0
C1 C 0.08262 0.02411 0.95548 0.0
C2 C 0.8891 0.96854 0.02976 0.0
Dy3 Dy 0.01894 0.00762 0.97549 0.0
O4 O 0.91698 0.95237 0.04598 0.0
O5 O 0.89747 0.99014 0.00321 0.0
O6 O -0.01016 0.94103 0.04956 0.0
O7 O 0.00303 0.98919 0.02973 0.0
C8 C 0.01355 0.96038 0.04782 0.0
C9 C 0.9604 0.02511 0.93926 0.0
O10 O 0.03169 0.95295 0.95879 0.0
O11 O 0.97772 0.93665 0.97525 0.0
O12 O 0.05365 0.0376 0.93994 0.0
O13 O 0.0769 0.00083 0.9816 0.0
O14 O 0.98299 0.04549 0.93871 0.0
O15 O 0.97167 -0.00376 0.95686 0.0
O16 O 0.94421 0.03325 0.02944 0.0
O17 O -0.00031 0.04607 0.01579 0.0
C18 C 0.00999 0.93073 0.95979 0.0
C19 C 0.96768 0.05311 0.03156 0.0
Dy20 Dy 0.00495 0.26136 0.27825 0.0
C21 C 0.97553 0.15564 0.20045 0.0
C22 C 0.0095 0.31119 0.322 0.0
Dy23 Dy 0.9791 0.20724 0.2423 0.0
O24 O 0.03566 0.29476 0.30289 0.0
O25 O 0.98076 0.30139 0.31612 0.0
O26 O 0.06047 0.23503 0.26932 0.0
O27 O 0.02153 0.20414 0.27794 0.0
C28 C 0.0536 0.20401 0.26906 0.0
C29 C 0.93202 0.26638 0.25081 0.0
O30 O 0.96315 0.18786 0.29776 0.0
O31 O 0.97251 0.23677 0.32235 0.0
O32 O 0.95189 0.18409 0.20301 0.0
O33 O 0.00059 0.15498 0.2215 0.0
O34 O 0.92369 0.23561 0.2535 0.0
O35 O 0.9641 0.26433 0.24152 0.0
O36 O 0.01523 0.28287 0.22157 0.0
O37 O 0.01237 0.2309 0.19868 0.0
C38 C 0.95984 0.20751 0.32479 0.0
C39 C 0.02091 0.26227 0.19506 0.0
Dy40 Dy 0.72488 0.22682 0.48325 0.0
C41 C 0.75249 0.35191 0.5272 0.0
C42 C 0.69892 0.17475 0.45972 0.0
Dy43 Dy 0.74505 0.28625 0.51789 0.0
O44 O 0.68782 0.20804 0.45147 0.0
O45 O 0.72403 0.16948 0.48181 0.0
O46 O 0.73395 0.25566 0.42924 0.0
O47 O 0.71391 0.28392 0.47309 0.0
C48 C 0.72381 0.28655 0.44031 0.0
C49 C 0.76729 0.22241 0.55222 0.0
O50 O 0.68959 0.29279 0.53978 0.0
O51 O 0.67665 0.24286 0.5196 0.0
O52 O 0.74754 0.32832 0.55348 0.0
O53 O 0.75452 0.3391 0.49655 0.0
O54 O 0.78318 0.24858 0.55282 0.0
O55 O 0.73881 0.23299 0.53687 0.0
O56 O 0.7833 0.21362 0.47418 0.0
O57 O 0.79118 0.26986 0.47986 0.0
C58 C 0.66807 0.2709 0.53799 0.0
C59 C 0.80302 0.2378 0.47017 0.0
Dy60 Dy 0.71281 -0.00887 0.71623 0.0
C61 C 0.81861 0.00778 0.80553 0.0
C62 C 0.65781 -0.00793 0.67555 0.0
Dy63 Dy 0.76883 0.00887 0.75856 0.0
O64 O 0.67763 0.96395 0.68989 0.0
O65 O 0.66754 0.0198 0.68402 0.0
O66 O 0.74321 0.93672 0.7111 0.0
O67 O 0.77061 0.97708 0.71433 0.0
C68 C 0.77341 0.94437 0.71506 0.0
C69 C 0.70963 0.05665 0.75703 0.0
O70 O 0.78115 0.03921 0.70599 0.0
O71 O 0.7322 0.03197 0.67811 0.0
O72 O 0.78596 0.00692 0.81422 0.0
O73 O 0.8246 0.00935 0.77083 0.0
O74 O 0.74018 0.06413 0.75981 0.0
O75 O 0.71162 0.02387 0.75955 0.0
O76 O 0.69653 0.9698 0.77101 0.0
O77 O 0.75267 0.96158 0.7902 0.0
C78 C 0.76002 0.04645 0.67881 0.0
C79 C 0.72043 0.955 0.79411 0.0
Dy80 Dy 0.49519 0.76065 0.26746 0.0
C81 C 0.46826 0.64089 0.21291 0.0
C82 C 0.50733 0.81701 0.29745 0.0
Dy83 Dy 0.46968 0.70029 0.24416 0.0
O84 O 0.52488 0.78515 0.30302 0.0
O85 O 0.48294 0.81823 0.2754 0.0
O86 O 0.55016 0.73072 0.25564 0.0
O87 O 0.51082 0.70376 0.27781 0.0
C88 C 0.54239 0.70039 0.26648 0.0
C89 C 0.41924 0.75726 0.24672 0.0
O90 O 0.45891 0.68947 0.30336 0.0
O91 O 0.46038 0.74624 0.31459 0.0
O92 O 0.44068 0.66357 0.2224 0.0
O93 O 0.49635 0.65014 0.2217 0.0
O94 O 0.41406 0.7253 0.25273 0.0
O95 O 0.45093 0.75762 0.23583 0.0
O96 O 0.50693 0.7734 0.20955 0.0
O97 O 0.49902 0.71999 0.19411 0.0
C98 C 0.45257 0.71508 0.32486 0.0
C99 C 0.5097 0.75021 0.18599 0.0
Dy100 Dy 0.21982 0.706 0.49651 0.0
C101 C 0.28511 0.81283 0.54799 0.0
C102 C 0.19768 0.64459 0.49844 0.0
Dy103 Dy 0.25401 0.76219 0.53026 0.0
O104 O 0.19892 0.66124 0.52621 0.0
O105 O 0.20765 0.662 0.46908 0.0
O106 O 0.20139 0.74109 0.44576 0.0
O107 O 0.22633 0.75863 0.48459 0.0
C108 C 0.21381 0.76747 0.45446 0.0
C109 C 0.24651 0.70415 0.57185 0.0
O110 O 0.19733 0.78273 0.54301 0.0
O111 O 0.17599 0.7333 0.53209 0.0
O112 O 0.29496 0.77957 0.55808 0.0
O113 O 0.25881 0.81839 0.52739 0.0
O114 O 0.24373 0.73429 0.58439 0.0
O115 O 0.25505 0.70616 0.53874 0.0
O116 O 0.27582 0.69048 0.477 0.0
O117 O 0.29596 0.7401 0.48967 0.0
C118 C 0.17222 0.76413 0.54539 0.0
C119 C 0.29997 0.71033 0.47421 0.0
Dy120 Dy 0.20549 0.47105 0.73843 0.0
C121 C 0.31202 0.50964 0.81505 0.0
C122 C 0.15453 0.46399 0.69532 0.0
Dy123 Dy 0.25819 0.49734 0.77903 0.0
O124 O 0.18809 0.45433 0.6886 0.0
O125 O 0.14854 0.47719 0.7261 0.0
O126 O 0.24071 0.41863 0.73672 0.0
O127 O 0.26323 0.46342 0.73598 0.0
C128 C 0.26938 0.43028 0.73845 0.0
C129 C 0.19344 0.53707 0.78087 0.0
O130 O 0.27125 0.51676 0.72229 0.0
O131 O 0.21517 0.51979 0.70506 0.0
O132 O 0.29404 0.53191 0.79196 0.0
O133 O 0.30096 0.4802 0.8183 0.0
O134 O 0.22155 0.54893 0.78425 0.0
O135 O 0.20073 0.50413 0.78222 0.0
O136 O 0.19778 0.44046 0.79156 0.0
O137 O 0.24547 0.45321 0.81795 0.0
C138 C 0.24591 0.52946 0.70017 0.0
C139 C 0.21946 0.43595 0.81807 0.0
Dy140 Dy 0.9426 0.48677 0.52664 0.0
C141 C 0.08044 0.50931 0.48209 0.0
C142 C 0.87746 0.47374 0.54599 0.0
Dy143 Dy 0.01468 0.49543 0.49544 0.0
O144 O 0.90515 0.46189 0.56403 0.0
O145 O 0.88544 0.49222 0.51666 0.0
O146 O 0.95798 0.49369 0.58092 0.0
O147 O -0.00383 0.46816 0.54456 0.0
C148 C -0.00915 0.47981 0.57509 0.0
C149 C 0.96744 0.50295 0.4463 0.0
O150 O 0.02015 0.43851 0.48935 0.0
O151 O 0.96028 0.43903 0.49714 0.0
O152 O 0.05554 0.51738 0.4599 0.0
O153 O 0.06945 0.49345 0.51177 0.0
O154 O 0.0007 0.49048 0.44041 0.0
O155 O 0.96129 0.51401 0.47716 0.0
O156 O 0.93509 0.54408 0.52943 0.0
O157 O -0.0054 0.54484 0.52216 0.0
C158 C -0.00737 0.42402 0.48669 0.0
C159 C 0.96183 0.55965 0.53153 0.0
Dy160 Dy 0.22442 0.21026 0.00465 0.0
C161 C 0.28288 0.32573 0.03764 0.0
C162 C 0.19705 0.15289 0.99987 0.0
Dy163 Dy 0.26029 0.26633 0.02765 0.0
O164 O 0.18468 0.18417 0.9849 0.0
O165 O 0.22385 0.15298 0.01831 0.0
O166 O 0.22867 0.23111 0.94713 0.0
O167 O 0.22283 0.26598 0.98704 0.0
C168 C 0.22809 0.26313 0.95366 0.0
C169 C 0.274 0.20296 0.06571 0.0
O170 O 0.20707 0.28259 0.05508 0.0
O171 O 0.18031 0.23875 0.03872 0.0
O172 O 0.28243 0.29931 0.06183 0.0
O173 O 0.271 0.31968 0.00813 0.0
O174 O 0.29725 0.22278 0.05916 0.0
O175 O 0.24541 0.21889 0.0535 0.0
O176 O 0.28053 0.191 0.98641 0.0
O177 O 0.29755 0.24462 0.9839 0.0
C178 C 0.17972 0.26697 0.05574 0.0
C179 C 0.30262 0.21205 0.97514 0.0
Dy180 Dy 0.2077 0.97272 0.22746 0.0
C181 C 0.31886 0.98941 0.31101 0.0
C182 C 0.15755 0.97642 0.17992 0.0
Dy183 Dy 0.26268 0.98835 0.2724 0.0
O184 O 0.18698 0.98692 0.17276 0.0
O185 O 0.15513 0.96373 0.21335 0.0
O186 O 0.24044 0.92078 0.21708 0.0
O187 O 0.26564 0.96199 0.22393 0.0
C188 C 0.27014 0.9295 0.22105 0.0
C189 C 0.19973 0.03075 0.28052 0.0
O190 O 0.27257 0.02027 0.22005 0.0
O191 O 0.21539 0.02592 0.20522 0.0
O192 O 0.31189 0.96138 0.29992 0.0
O193 O 0.29541 0.01657 0.30081 0.0
O194 O 0.22929 0.03985 0.28432 0.0
O195 O 0.20489 -0.0015 0.27641 0.0
O196 O 0.19549 0.93985 0.27753 0.0
O197 O 0.24596 0.94198 0.30574 0.0
C198 C 0.24574 0.03632 0.20075 0.0
C199 C 0.21751 0.92857 0.30348 0.0
Dy200 Dy 0.49154 0.26094 0.75707 0.0
C201 C 0.45247 0.14434 0.70428 0.0
C202 C 0.50963 0.30603 0.7988 0.0
Dy203 Dy 0.46066 0.20503 0.72827 0.0
O204 O 0.51618 0.27214 0.80466 0.0
O205 O 0.49333 0.31601 0.76919 0.0
O206 O 0.54527 0.23146 0.74284 0.0
O207 O 0.50515 0.20364 0.76005 0.0
C208 C 0.53671 0.2009 0.74826 0.0
C209 C 0.42616 0.27098 0.71141 0.0
O210 O 0.43765 0.19844 0.78468 0.0
O211 O 0.45674 0.24566 0.80367 0.0
O212 O 0.42719 0.17136 0.70841 0.0
O213 O 0.48154 0.15023 0.71467 0.0
O214 O 0.42895 0.24576 0.69093 0.0
O215 O 0.4396 0.25905 0.74086 0.0
O216 O 0.5012 0.27477 0.69828 0.0
O217 O 0.49896 0.21914 0.68409 0.0
C218 C 0.43975 0.21931 0.80966 0.0
C219 C 0.50759 0.25023 0.67557 0.0
Dy220 Dy -0.00241 0.75768 0.77404 0.0
C221 C 0.93992 0.66622 0.69893 0.0
C222 C 0.02184 0.80509 0.80818 0.0
Dy223 Dy 0.9604 0.71533 0.73376 0.0
O224 O 0.0244 0.7721 0.81899 0.0
O225 O 0.00646 0.81241 0.77797 0.0
O226 O 0.02787 0.70825 0.80175 0.0
O227 O 0.0141 0.7085 0.74919 0.0
C228 C 0.02768 0.6893 0.77561 0.0
C229 C 0.93228 0.7841 0.72954 0.0
O230 O 0.94326 0.69898 0.79044 0.0
O231 O 0.95377 0.74809 0.81328 0.0
O232 O 0.91947 0.69511 0.70756 0.0
O233 O 0.97074 0.66373 0.71091 0.0
O234 O 0.9329 0.76447 0.7037 0.0
O235 O 0.9442 0.76556 0.75721 0.0
O236 O 0.01861 0.77166 0.7177 0.0
O237 O -0.00202 0.73016 0.69021 0.0
C238 C 0.94021 0.7194 0.81686 0.0
C239 C 0.01616 0.75536 0.68905 0.0
Dy240 Dy 0.73491 0.47982 0.20817 0.0
C241 C 0.81173 0.51727 0.31655 0.0
C242 C 0.69304 0.46401 0.15999 0.0
Dy243 Dy 0.7669 0.50512 0.26928 0.0
O244 O 0.71364 0.44102 0.18034 0.0
O245 O 0.69493 0.49549 0.16627 0.0
O246 O 0.78896 0.4569 0.18611 0.0
O247 O 0.77889 0.45764 0.24153 0.0
C248 C 0.80259 0.44997 0.21725 0.0
C249 C 0.69923 0.53553 0.2602 0.0
O250 O 0.78458 0.54017 0.22203 0.0
O251 O 0.75272 0.52568 0.17805 0.0
O252 O 0.77769 0.5259 0.32007 0.0
O253 O 0.8212 0.5027 0.28688 0.0
O254 O 0.7131 0.52935 0.29125 0.0
O255 O 0.72287 0.52707 0.23615 0.0
O256 O 0.71032 0.45269 0.25678 0.0
O257 O 0.75117 0.45691 0.29697 0.0
C258 C 0.77339 0.54495 0.18889 0.0
C259 C 0.72491 0.44346 0.28807 0.0
Dy260 Dy 0.71692 0.73865 0.98648 0.0
C261 C 0.75552 0.84677 0.05588 0.0
C262 C 0.70355 0.68249 0.95707 0.0
Dy263 Dy 0.74219 0.78876 0.03009 0.0
O264 O 0.68835 0.71495 0.94922 0.0
O265 O 0.72634 0.68065 0.98099 0.0
O266 O 0.68989 0.78462 0.95039 0.0
O267 O 0.73605 0.78747 0.97335 0.0
C268 C 0.71168 0.80468 0.95477 0.0
C269 C 0.75172 0.72256 0.0598 0.0
O270 O 0.68372 0.80066 0.0437 0.0
O271 O 0.67031 0.75081 0.02466 0.0
O272 O 0.7629 0.81504 0.07159 0.0
O273 O 0.74046 0.84675 0.02624 0.0
O274 O 0.77244 0.74371 0.06433 0.0
O275 O 0.7255 0.73882 0.04295 0.0
O276 O 0.77504 0.72476 0.97407 0.0
O277 O 0.79082 0.77274 0.99502 0.0
C278 C 0.66135 0.77956 0.04162 0.0
C279 C 0.79865 0.744 0.97781 0.0
Dy280 Dy 0.46526 0.97236 0.5043 0.0
C281 C 0.58152 0.03687 0.45599 0.0
C282 C 0.40476 0.95015 0.52418 0.0
Dy283 Dy 0.51958 0.01555 0.47087 0.0
O284 O 0.43479 0.93689 0.53786 0.0
O285 O 0.40787 0.97519 0.49908 0.0
O286 O 0.50656 0.93747 0.53788 0.0
O287 O 0.50848 0.99039 0.52359 0.0
C288 C 0.5247 0.9619 0.53834 0.0
C289 C 0.46027 0.02518 0.43641 0.0
O290 O 0.53927 0.96399 0.44686 0.0
O291 O 0.49047 0.93821 0.46207 0.0
O292 O 0.55184 0.05283 0.44285 0.0
O293 O 0.57733 0.00918 0.47705 0.0
O294 O 0.47825 0.04991 0.43623 0.0
O295 O 0.47672 -0.00279 0.45172 0.0
O296 O 0.44388 0.02444 0.52579 0.0
O297 O 0.49411 0.04819 0.51479 0.0
C298 C 0.52169 0.93847 0.44527 0.0
C299 C 0.46207 0.04868 0.52999 0.0
Dy300 Dy 0.48162 0.4707 0.0052 0.0
C301 C 0.5766 0.55795 0.93473 0.0
C302 C 0.43055 0.43543 0.03198 0.0
Dy303 Dy 0.52871 0.51853 0.96069 0.0
O304 O 0.46373 0.42144 0.02828 0.0
O305 O 0.42507 0.46863 0.02077 0.0
O306 O 0.51964 0.45466 0.0483 0.0
O307 O 0.53789 0.46953 0.99557 0.0
C308 C 0.54614 0.46219 0.02788 0.0
C309 C 0.46445 0.52528 0.93736 0.0
O310 O 0.53948 0.47372 0.92696 0.0
O311 O 0.49475 0.44575 0.95359 0.0
O312 O 0.54289 0.5695 0.93805 0.0
O313 O 0.58438 0.5247 0.94579 0.0
O314 O 0.49092 0.53297 0.91704 0.0
O315 O 0.47262 0.51906 0.96975 0.0
O316 O 0.47287 0.51517 0.03955 0.0
O317 O 0.51918 0.54074 0.01381 0.0
C318 C 0.51961 0.44982 0.92802 0.0
C319 C 0.49471 0.53705 0.03979 0.0
H320 H 0.01479 0.05529 0.07838 0.0
H321 H 0.9084 0.10025 0.05118 0.0
H322 H 0.90066 0.13545 0.10277 0.0
H323 H 0.92522 0.15364 0.15499 0.0
H324 H 0.0305 0.1044 0.18332 0.0
H325 H 0.03752 0.06982 0.13202 0.0
C326 C -0.00997 0.07318 0.08344 0.0
C327 C 0.96248 0.07617 0.06064 0.0
C328 C 0.98553 0.09196 0.11357 0.0
C329 C 0.93009 0.09824 0.06817 0.0
C330 C 0.92568 0.11808 0.09768 0.0
C331 C 0.94948 0.13501 0.15007 0.0
C332 C 0.97739 0.13158 0.17265 0.0
C333 C 0.95328 0.11512 0.12056 0.0
C334 C 0.00868 0.10736 0.16628 0.0
C335 C 0.0128 0.08781 0.13685 0.0
H336 H 0.82982 0.18522 0.42753 0.0
H337 H 0.85569 0.27361 0.47161 0.0
H338 H 0.91041 0.2676 0.43452 0.0
H339 H 0.9465 0.24281 0.38414 0.0
H340 H 0.91935 0.15698 0.33656 0.0
H341 H 0.87026 0.15571 0.38123 0.0
C342 C 0.84777 0.20271 0.42951 0.0
C343 C 0.83841 0.23018 0.45187 0.0
C344 C 0.87896 0.19964 0.4074 0.0
C345 C 0.86197 0.2526 0.45419 0.0
C346 C 0.89334 0.24916 0.43302 0.0
C347 C 0.93034 0.2233 0.38384 0.0
C348 C 0.9363 0.20044 0.35658 0.0
C349 C 0.90145 0.2236 0.40866 0.0
C350 C 0.91528 0.17508 0.35705 0.0
C351 C 0.88698 0.17451 0.38244 0.0
H352 H 0.79917 0.09817 0.67566 0.0
H353 H 0.73099 0.05614 0.61421 0.0
H354 H 0.72864 0.10592 0.56905 0.0
H355 H 0.7409 0.1642 0.54962 0.0
H356 H 0.81048 0.20654 0.6084 0.0
H357 H 0.81741 0.15408 0.65169 0.0
C358 C 0.78447 0.09955 0.65202 0.0
C359 C 0.76494 0.07354 0.64878 0.0
C360 C 0.78303 0.12862 0.62578 0.0
C361 C 0.74595 0.07588 0.61786 0.0
C362 C 0.74447 0.10445 0.59189 0.0
C363 C 0.75798 0.16169 0.57159 0.0
C364 C 0.77486 0.18925 0.57599 0.0
C365 C 0.76206 0.13143 0.59606 0.0
C366 C 0.79709 0.18565 0.6045 0.0
C367 C 0.80099 0.15568 0.62932 0.0
H368 H 0.91437 0.98314 0.93592 0.0
H369 H 0.94906 0.0742 0.88124 0.0
H370 H 0.9099 0.07536 0.83291 0.0
H371 H 0.86599 0.04966 0.80609 0.0
H372 H 0.82763 0.96247 0.86478 0.0
H373 H 0.86811 0.96041 0.91192 0.0
C374 C 0.91286 0.00367 0.91382 0.0
C375 C 0.93427 0.02867 0.91219 0.0
C376 C 0.89002 0.00447 0.8867 0.0
C377 C 0.93253 0.05481 0.88312 0.0
C378 C 0.91036 0.05534 0.85542 0.0
C379 C 0.86696 0.03009 0.8291 0.0
C380 C 0.84466 0.00582 0.83201 0.0
C381 C 0.8892 0.03008 0.85679 0.0
C382 C 0.84506 0.98109 0.86214 0.0
C383 C 0.868 0.98 0.88904 0.0
H384 H 0.05995 0.00214 0.05062 0.0
H385 H 0.02653 0.91015 0.10464 0.0
H386 H 0.06713 0.90795 0.15189 0.0
H387 H 0.11145 0.93325 0.17825 0.0
H388 H 0.14685 0.02301 0.12134 0.0
H389 H 0.10581 0.02536 0.07476 0.0
C390 C 0.06192 0.98129 0.07242 0.0
C391 C 0.04046 0.9563 0.07417 0.0
C392 C 0.08528 0.98016 0.09914 0.0
C393 C 0.043 0.92959 0.10272 0.0
C394 C 0.06601 0.92846 0.1298 0.0
C395 C 0.10988 0.95336 0.15571 0.0
C396 C 0.13165 0.97814 0.15318 0.0
C397 C 0.08702 0.95385 0.12846 0.0
C398 C 0.1301 0.00378 0.12371 0.0
C399 C 0.10678 0.00508 0.09709 0.0
H400 H 0.04377 0.40508 0.43497 0.0
H401 H 0.94806 0.37886 0.48654 0.0
H402 H 0.94467 0.34188 0.43922 0.0
H403 H 0.96576 0.32152 0.38055 0.0
H404 H 0.06178 0.34645 0.32898 0.0
H405 H 0.06794 0.38008 0.37874 0.0
C406 C 0.02275 0.39046 0.43644 0.0
C407 C -0.00383 0.39475 0.46418 0.0
C408 C 0.02046 0.36994 0.40863 0.0
C409 C 0.96884 0.37598 0.46543 0.0
C410 C 0.96667 0.35513 0.43821 0.0
C411 C -0.01208 0.3345 0.38017 0.0
C412 C 0.01291 0.33232 0.35101 0.0
C413 C -0.00834 0.3529 0.40912 0.0
C414 C 0.04201 0.34834 0.35109 0.0
C415 C 0.04562 0.36731 0.37957 0.0
H416 H 0.61783 0.23088 0.5448 0.0
H417 H 0.64265 0.32368 0.58092 0.0
H418 H 0.59188 0.32828 0.6237 0.0
H419 H 0.54485 0.30193 0.65591 0.0
H420 H 0.52104 0.20832 0.6207 0.0
H421 H 0.56658 0.20853 0.57231 0.0
C422 C 0.61192 0.2524 0.56165 0.0
C423 C 0.63446 0.27647 0.56001 0.0
C424 C 0.58289 0.25472 0.5866 0.0
C425 C 0.62607 0.30444 0.58184 0.0
C426 C 0.597 0.30714 0.60641 0.0
C427 C 0.54909 0.282 0.63721 0.0
C428 C 0.52991 0.25488 0.64231 0.0
C429 C 0.57585 0.28182 0.60978 0.0
C430 C 0.53571 0.22932 0.61771 0.0
C431 C 0.56185 0.22931 0.59003 0.0
H432 H 0.75858 0.92762 0.85192 0.0
H433 H 0.66243 0.92483 0.8034 0.0
H434 H 0.64991 0.87975 0.85034 0.0
H435 H 0.66806 0.83847 0.9032 0.0
H436 H 0.7642 0.84152 0.95145 0.0
H437 H 0.77464 0.88937 0.90692 0.0
C438 C 0.73479 0.91729 0.85165 0.0
C439 C 0.71166 0.9294 0.82393 0.0
C440 C 0.72771 0.89138 0.87875 0.0
C441 C 0.68076 0.91596 0.82432 0.0
C442 C 0.67358 0.89011 0.85115 0.0
C443 C 0.69107 0.8499 0.90416 0.0
C444 C 0.71542 0.83633 0.93041 0.0
C445 C 0.6971 0.87726 0.87822 0.0
C446 C 0.74507 0.85146 0.93146 0.0
C447 C 0.75116 0.87874 0.90591 0.0
H448 H 0.11477 0.25282 0.05358 0.0
H449 H 0.17431 0.30819 0.11116 0.0
H450 H 0.12626 0.31774 0.15726 0.0
H451 H 0.07189 0.30128 0.18609 0.0
H452 H 0.01443 0.24337 0.12913 0.0
H453 H 0.05669 0.24448 0.07769 0.0
C454 C 0.11704 0.26749 0.0759 0.0
C455 C 0.14834 0.27908 0.07934 0.0
C456 C 0.08967 0.27227 0.10258 0.0
C457 C 0.15058 0.29869 0.10801 0.0
C458 C 0.12316 0.30404 0.13451 0.0
C459 C 0.06806 0.28998 0.16192 0.0
C460 C 0.04043 0.27192 0.16146 0.0
C461 C 0.09319 0.28969 0.13281 0.0
C462 C 0.03579 0.25712 0.13016 0.0
C463 C 0.06002 0.25757 0.10081 0.0
H464 H 0.70732 0.43874 0.35931 0.0
H465 H 0.72759 0.37902 0.26743 0.0
H466 H 0.72914 0.32438 0.30673 0.0
H467 H 0.73007 0.29358 0.36764 0.0
H468 H 0.70226 0.35352 0.45907 0.0
H469 H 0.69863 0.40823 0.41976 0.0
C470 C 0.71109 0.41376 0.34801 0.0
C471 C 0.71712 0.41261 0.31075 0.0
C472 C 0.71148 0.38261 0.37072 0.0
C473 C 0.72227 0.38033 0.2961 0.0
C474 C 0.72359 0.34914 0.31856 0.0
C475 C 0.72307 0.31863 0.37892 0.0
C476 C 0.71829 0.31957 0.41635 0.0
C477 C 0.71913 0.34993 0.35597 0.0
C478 C 0.70795 0.35215 0.43052 0.0
C479 C 0.70533 0.38344 0.40799 0.0
H480 H 0.55137 0.01627 0.55408 0.0
H481 H 0.55946 0.90451 0.57864 0.0
H482 H 0.60156 0.90404 0.62405 0.0
H483 H 0.63455 0.93606 0.65765 0.0
H484 H 0.62269 0.04847 0.63528 0.0
H485 H 0.58236 0.04832 0.58863 0.0
C486 C 0.56227 -0.00821 0.56939 0.0
C487 C 0.55229 0.96048 0.5633 0.0
C488 C 0.58522 -0.00798 0.59611 0.0
C489 C 0.56685 0.9289 0.583 0.0
C490 C 0.59068 0.9287 0.60903 0.0
C491 C 0.62292 0.96049 0.64266 0.0
C492 C 0.63141 -0.00777 0.64971 0.0
C493 C 0.59971 0.96019 0.61606 0.0
C494 C 0.61631 0.02378 0.63029 0.0
C495 C 0.59349 0.02367 0.60353 0.0
H496 H 0.02649 0.93603 0.88911 0.0
H497 H 0.01234 0.86154 0.98006 0.0
H498 H 0.02045 0.81432 0.94041 0.0
H499 H 0.02522 0.79611 0.87969 0.0
H500 H 0.03045 0.87229 0.78797 0.0
H501 H 0.0326 0.91731 0.82796 0.0
C502 C 0.026 0.90922 0.90012 0.0
C503 C 0.01942 0.90173 0.93719 0.0
C504 C 0.02878 0.88288 0.877 0.0
C505 C 0.01773 0.86743 0.9515 0.0
C506 C 0.02222 0.84064 0.92887 0.0
C507 C 0.02751 0.82242 0.86846 0.0
C508 C 0.02789 0.83107 0.8311 0.0
C509 C 0.02689 0.84829 0.89155 0.0
C510 C 0.03022 0.86525 0.81674 0.0
C511 C 0.03132 0.8909 0.83956 0.0
H512 H 0.13125 0.01916 0.00432 0.0
H513 H 0.09957 0.06977 0.90061 0.0
H514 H 0.13565 0.11333 0.90425 0.0
H515 H 0.16733 0.14249 0.94137 0.0
H516 H 0.19856 0.09333 0.04555 0.0
H517 H 0.17103 0.04368 0.0377 0.0
C518 C 0.13327 0.03902 0.98203 0.0
C519 C 0.11259 0.04176 0.95245 0.0
C520 C 0.15297 0.06472 0.98496 0.0
C521 C 0.11523 0.06748 0.9237 0.0
C522 C 0.13549 0.09256 0.92594 0.0
C523 C 0.16833 0.12068 0.96214 0.0
C524 C 0.18394 0.12157 0.99426 0.0
C525 C 0.1529 0.09243 0.95723 0.0
C526 C 0.18613 0.09305 0.02078 0.0
C527 C 0.17052 0.06477 0.01624 0.0
H528 H 0.64236 0.55489 0.30515 0.0
H529 H 0.68896 0.58138 0.2001 0.0
H530 H 0.64461 0.63531 0.19275 0.0
H531 H 0.5949 0.67723 0.21816 0.0
H532 H 0.54506 0.6484 0.32069 0.0
H533 H 0.58824 0.59325 0.32725 0.0
C534 C 0.64235 0.57226 0.28047 0.0
C535 C 0.66896 0.56445 0.25344 0.0
C536 C 0.61651 0.60304 0.27622 0.0
C537 C 0.66867 0.58687 0.22136 0.0
C538 C 0.64348 0.61786 0.21721 0.0
C539 C 0.59365 0.65873 0.24184 0.0
C540 C 0.56759 0.66685 0.26926 0.0
C541 C 0.61778 0.62662 0.24481 0.0
C542 C 0.56532 0.64257 0.29946 0.0
C543 C 0.5899 0.61111 0.30318 0.0
H544 H 0.27741 0.87893 0.51625 0.0
H545 H 0.33454 0.8063 0.5964 0.0
H546 H 0.37341 0.84711 0.60106 0.0
H547 H 0.39678 0.89811 0.57489 0.0
H548 H 0.34315 0.9683 0.4908 0.0
H549 H 0.29658 0.93416 0.49554 0.0
C550 C 0.29793 0.87249 0.53524 0.0
C551 C 0.30379 0.83969 0.55548 0.0
C552 C 0.32082 0.89544 0.53679 0.0
C553 C 0.33012 0.83138 0.58021 0.0
C554 C 0.35229 0.85461 0.58285 0.0
C555 C 0.37449 0.90629 0.55815 0.0
C556 C 0.37343 0.93499 0.53211 0.0
C557 C 0.3488 0.88592 0.56011 0.0
C558 C 0.34442 0.9459 0.51081 0.0
C559 C 0.31798 0.92634 0.51338 0.0
H560 H 0.0651 0.64955 0.82805 0.0
H561 H 0.04456 0.65318 0.71626 0.0
H562 H 0.09159 0.60176 0.7093 0.0
H563 H 0.14373 0.56094 0.73328 0.0
H564 H 0.16636 0.56079 0.8438 0.0
H565 H 0.11316 0.60536 0.85333 0.0
C566 C 0.07058 0.63872 0.80232 0.0
C567 C 0.0518 0.65525 0.77263 0.0
C568 C 0.09815 0.60986 0.79834 0.0
C569 C 0.05885 0.64089 0.73948 0.0
C570 C 0.08582 0.61162 0.73545 0.0
C571 C 0.13627 0.57012 0.75959 0.0
C572 C 0.15831 0.55778 0.78797 0.0
C573 C 0.10636 0.5966 0.76442 0.0
C574 C 0.14927 0.57001 0.82184 0.0
C575 C 0.11908 0.59555 0.82717 0.0
H576 H 0.77502 0.37284 0.58585 0.0
H577 H 0.74977 0.40663 0.47602 0.0
H578 H 0.7804 0.45529 0.47535 0.0
H579 H 0.82573 0.47843 0.50103 0.0
H580 H 0.85629 0.44018 0.60848 0.0
H581 H 0.81167 0.40381 0.6156 0.0
C582 C 0.77527 0.39164 0.56229 0.0
C583 C 0.76109 0.38601 0.53083 0.0
C584 C 0.79439 0.41842 0.56155 0.0
C585 C 0.76122 0.41037 0.50036 0.0
C586 C 0.77881 0.43806 0.4999 0.0
C587 C 0.82174 0.463 0.52637 0.0
C588 C 0.84454 0.4611 0.55387 0.0
C589 C 0.79732 0.44092 0.52957 0.0
C590 C 0.83921 0.44138 0.58674 0.0
C591 C 0.81387 0.4205 0.59077 0.0
H592 H 0.27415 0.86114 0.23758 0.0
H593 H 0.33901 0.93904 0.21697 0.0
H594 H 0.39219 0.89248 0.22329 0.0
H595 H 0.4197 0.82834 0.23283 0.0
H596 H 0.35119 0.75342 0.25579 0.0
H597 H 0.30006 0.80013 0.25028 0.0
C598 C 0.29991 0.86807 0.23435 0.0
C599 C 0.30283 0.90323 0.22625 0.0
C600 C 0.32974 0.84158 0.23834 0.0
C601 C 0.33628 0.91193 0.22296 0.0
C602 C 0.36657 0.88534 0.22651 0.0
C603 C 0.39354 0.82247 0.23665 0.0
C604 C 0.38935 0.78736 0.24424 0.0
C605 C 0.36362 0.84988 0.23387 0.0
C606 C 0.35531 0.78008 0.2496 0.0
C607 C 0.3259 0.80679 0.24649 0.0
H608 H 0.28901 0.38457 0.68929 0.0
H609 H 0.32699 0.42643 0.77652 0.0
H610 H 0.3815 0.38179 0.77416 0.0
H611 H 0.41487 0.32674 0.75118 0.0
H612 H 0.37696 0.28746 0.66184 0.0
H613 H 0.32606 0.33558 0.66059 0.0
C614 C 0.30958 0.38418 0.70732 0.0
C615 C 0.30425 0.40815 0.73328 0.0
C616 C 0.34062 0.35886 0.70549 0.0
C617 C 0.33088 0.40802 0.75634 0.0
C618 C 0.36182 0.38244 0.75509 0.0
C619 C 0.39571 0.32916 0.73112 0.0
C620 C 0.39919 0.30333 0.7071 0.0
C621 C 0.36651 0.3571 0.7304 0.0
C622 C 0.37461 0.30687 0.68084 0.0
C623 C 0.34544 0.3343 0.68016 0.0
H624 H 0.10988 0.74363 0.54626 0.0
H625 H 0.16359 0.80967 0.59712 0.0
H626 H 0.11689 0.8168 0.6447 0.0
H627 H 0.06586 0.79637 0.67665 0.0
H628 H 0.0132 0.72957 0.62525 0.0
H629 H 0.05425 0.73094 0.57322 0.0
C630 C 0.11102 0.76016 0.56736 0.0
C631 C 0.14041 0.7755 0.56852 0.0
C632 C 0.08451 0.76361 0.59495 0.0
C633 C 0.14127 0.79738 0.59566 0.0
C634 C 0.11471 0.80126 0.62309 0.0
C635 C 0.06297 0.78269 0.6538 0.0
C636 C 0.03708 0.76218 0.65536 0.0
C637 C 0.08697 0.78326 0.6238 0.0
C638 C 0.03337 0.745 0.62523 0.0
C639 C 0.05683 0.74573 0.59532 0.0
H640 H 0.25091 0.9033 0.36521 0.0
H641 H 0.16893 0.88736 0.30154 0.0
H642 H 0.16011 0.83669 0.3428 0.0
H643 H 0.17701 0.79531 0.39602 0.0
H644 H 0.25849 0.81148 0.45975 0.0
H645 H 0.266 0.86356 0.41975 0.0
C646 C 0.23096 0.88891 0.36042 0.0
C647 C 0.21071 0.89924 0.33015 0.0
C648 C 0.2259 0.85972 0.38437 0.0
C649 C 0.18488 0.88021 0.32459 0.0
C650 C 0.17985 0.85107 0.34815 0.0
C651 C 0.19621 0.81043 0.40119 0.0
C652 C 0.2169 0.79985 0.431 0.0
C653 C 0.2004 0.84037 0.37795 0.0
C654 C 0.24176 0.81956 0.43743 0.0
C655 C 0.24627 0.84918 0.41436 0.0
H656 H 0.98418 0.65847 0.64179 0.0
H657 H 0.88416 0.63738 0.68583 0.0
H658 H 0.87892 0.60703 0.63299 0.0
H659 H 0.90643 0.58163 0.57787 0.0
H660 H 0.00654 0.60416 0.53458 0.0
H661 H 0.00747 0.6404 0.58312 0.0
C662 C 0.96126 0.64713 0.63976 0.0
C663 C 0.93509 0.64882 0.66776 0.0
C664 C 0.95827 0.63069 0.60934 0.0
C665 C 0.90486 0.63545 0.66464 0.0
C666 C 0.90186 0.6184 0.63447 0.0
C667 C 0.92793 0.59534 0.57839 0.0
C668 C 0.95668 0.58979 0.55299 0.0
C669 C 0.9288 0.61529 0.607 0.0
C670 C 0.98429 0.60777 0.55401 0.0
C671 C 0.98502 0.62818 0.58194 0.0
H672 H 0.35763 0.74012 0.46505 0.0
H673 H 0.31352 0.65793 0.42926 0.0
H674 H 0.36076 0.64822 0.38257 0.0
H675 H 0.40955 0.66894 0.34659 0.0
H676 H 0.45183 0.75262 0.38158 0.0
H677 H 0.41068 0.75544 0.43406 0.0
C678 C 0.35855 0.71973 0.4474 0.0
C679 C 0.33166 0.70032 0.45025 0.0
C680 C 0.3854 0.71465 0.42022 0.0
C681 C 0.33367 0.67359 0.42749 0.0
C682 C 0.36065 0.66803 0.40065 0.0
C683 C 0.41033 0.68713 0.36621 0.0
C684 C 0.43326 0.71088 0.35996 0.0
C685 C 0.38595 0.68926 0.39597 0.0
C686 C 0.434 0.73438 0.38555 0.0
C687 C 0.41044 0.7361 0.41554 0.0
H688 H 0.30236 0.06867 0.17972 0.0
H689 H 0.19296 0.07374 0.16148 0.0
H690 H 0.19308 0.1242 0.11829 0.0
H691 H 0.2225 0.16803 0.08654 0.0
H692 H 0.3315 0.1658 0.10168 0.0
H693 H 0.33318 0.11346 0.14521 0.0
C694 C 0.27866 0.08084 0.16624 0.0
C695 C 0.24777 0.06714 0.17416 0.0
C696 C 0.27867 0.11049 0.14085 0.0
C697 C 0.21726 0.08336 0.15626 0.0
C698 C 0.21714 0.11243 0.13138 0.0
C699 C 0.24686 0.15593 0.09894 0.0
C700 C 0.27687 0.17057 0.09073 0.0
C701 C 0.24752 0.12625 0.12359 0.0
C702 C 0.30803 0.15485 0.10752 0.0
C703 C 0.30893 0.125 0.13241 0.0
H704 H 0.81971 0.69413 0.93133 0.0
H705 H 0.85386 0.77753 0.97675 0.0
H706 H 0.90405 0.77361 0.93315 0.0
H707 H 0.93294 0.7526 0.87732 0.0
H708 H 0.89694 0.67166 0.82963 0.0
H709 H 0.85293 0.66825 0.8794 0.0
C710 C 0.83843 0.71106 0.93219 0.0
C711 C 0.83262 0.73659 0.95683 0.0
C712 C 0.86665 0.70939 0.90638 0.0
C713 C 0.85742 0.75797 0.95779 0.0
C714 C 0.88609 0.75584 0.93276 0.0
C715 C 0.91575 0.7339 0.87794 0.0
C716 C 0.91767 0.71296 0.84942 0.0
C717 C 0.89008 0.73266 0.90611 0.0
C718 C 0.89573 0.68836 0.85104 0.0
C719 C 0.87048 0.68647 0.87945 0.0
H720 H 0.19786 0.58667 0.68007 0.0
H721 H 0.30487 0.53456 0.65723 0.0
H722 H 0.31321 0.58284 0.61174 0.0
H723 H 0.29089 0.64174 0.58139 0.0
H724 H 0.18675 0.69695 0.61095 0.0
H725 H 0.17595 0.64552 0.65064 0.0
C726 C 0.22284 0.58578 0.66475 0.0
C727 C 0.25068 0.55722 0.67153 0.0
C728 C 0.22781 0.6142 0.64 0.0
C729 C 0.28317 0.55646 0.65225 0.0
C730 C 0.28788 0.58397 0.62633 0.0
C731 C 0.26579 0.64212 0.59633 0.0
C732 C 0.23948 0.67253 0.5934 0.0
C733 C 0.26055 0.61321 0.62037 0.0
C734 C 0.20721 0.6735 0.61307 0.0
C735 C 0.2011 0.64423 0.63567 0.0
H736 H 0.34017 0.04698 0.32782 0.0
H737 H 0.36087 0.93384 0.34615 0.0
H738 H 0.40539 0.93552 0.38804 0.0
H739 H 0.437 0.96902 0.42011 0.0
H740 H 0.42024 0.08183 0.39918 0.0
H741 H 0.37463 0.08063 0.35795 0.0
C742 C 0.35458 0.02273 0.34093 0.0
C743 C 0.34729 0.99032 0.33419 0.0
C744 C 0.3803 0.02393 0.36466 0.0
C745 C 0.36616 0.95904 0.35099 0.0
C746 C 0.39142 0.96001 0.37502 0.0
C747 C 0.42351 -0.00659 0.40648 0.0
C748 C 0.43188 0.02552 0.41259 0.0
C749 C 0.39844 -0.0077 0.3822 0.0
C750 C 0.41412 0.05685 0.39484 0.0
C751 C 0.38821 0.05611 0.37126 0.0
H752 H 0.75568 0.90862 0.01596 0.0
H753 H 0.79207 0.8486 0.11411 0.0
H754 H 0.83364 0.88686 0.1182 0.0
H755 H 0.86763 0.92865 0.08697 0.0
H756 H 0.83391 0.98605 0.98672 0.0
H757 H 0.78297 0.95791 0.99044 0.0
C758 C 0.77194 0.90467 0.03883 0.0
C759 C 0.77153 0.87556 0.06429 0.0
C760 C 0.79668 0.92587 0.04019 0.0
C761 C 0.79237 0.87071 0.09398 0.0
C762 C 0.81629 0.89239 0.09618 0.0
C763 C 0.84859 0.93559 0.06645 0.0
C764 C 0.85464 0.95866 0.0363 0.0
C765 C 0.82001 0.91869 0.06834 0.0
C766 C 0.82976 0.96803 0.01004 0.0
C767 C 0.80077 0.95184 0.01207 0.0
H768 H 0.70383 0.10721 0.48862 0.0
H769 H 0.65684 0.18269 0.4046 0.0
H770 H 0.62 0.14281 0.39147 0.0
H771 H 0.59452 0.09129 0.4105 0.0
H772 H 0.63844 0.01685 0.49669 0.0
H773 H 0.68359 0.05101 0.50199 0.0
C774 C 0.68608 0.11441 0.46694 0.0
C775 C 0.68242 0.14783 0.44798 0.0
C776 C 0.66425 0.09171 0.46018 0.0
C777 C 0.65956 0.15714 0.41986 0.0
C778 C 0.63849 0.13442 0.41234 0.0
C779 C 0.61451 0.08218 0.42984 0.0
C780 C 0.61306 0.05215 0.45351 0.0
C781 C 0.63957 0.10236 0.43335 0.0
C782 C 0.63913 0.04015 0.47828 0.0
C783 C 0.66475 0.05977 0.48149 0.0
H784 H 0.80412 0.39265 0.2644 0.0
H785 H 0.86726 0.44156 0.18234 0.0
H786 H 0.91501 0.38971 0.18823 0.0
H787 H 0.93663 0.32883 0.21367 0.0
H788 H 0.86996 0.27772 0.29002 0.0
H789 H 0.82551 0.33211 0.28966 0.0
C790 C 0.82862 0.39213 0.24829 0.0
C791 C 0.83265 0.42083 0.22332 0.0
C792 C 0.85499 0.36174 0.25061 0.0
C793 C 0.86397 0.4197 0.2019 0.0
C794 C 0.89107 0.39009 0.20518 0.0
C795 C 0.91247 0.32983 0.23044 0.0
C796 C 0.90635 0.29958 0.25188 0.0
C797 C 0.88659 0.36071 0.22897 0.0
C798 C 0.87494 0.30081 0.27322 0.0
C799 C 0.84965 0.33183 0.27304 0.0
H800 H 0.11897 0.52001 0.53476 0.0
H801 H 0.11075 0.53474 0.41991 0.0
H802 H 0.15188 0.57492 0.41416 0.0
H803 H 0.18133 0.61348 0.44298 0.0
H804 H 0.18458 0.60275 0.55843 0.0
H805 H 0.1544 0.55334 0.56293 0.0
C806 C 0.12708 0.53122 0.50842 0.0
C807 C 0.11184 0.5249 0.47782 0.0
C808 C 0.1492 0.55561 0.50559 0.0
C809 C 0.1222 0.53957 0.44381 0.0
C810 C 0.14544 0.5627 0.44056 0.0
C811 C 0.17595 0.59984 0.469 0.0
C812 C 0.18444 0.61189 0.50033 0.0
C813 C 0.1577 0.5722 0.47143 0.0
C814 C 0.17767 0.59409 0.53397 0.0
C815 C 0.16049 0.56586 0.53657 0.0
H816 H 0.64025 0.05514 0.77243 0.0
H817 H 0.71124 0.11785 0.71755 0.0
H818 H 0.66239 0.16671 0.70561 0.0
H819 H 0.60134 0.19394 0.71711 0.0
H820 H 0.52952 0.13428 0.77527 0.0
H821 H 0.57655 0.08166 0.77924 0.0
C822 C 0.64468 0.0794 0.75745 0.0
C823 C 0.67906 0.08339 0.74641 0.0
C824 C 0.61648 0.1079 0.7516 0.0
C825 C 0.68489 0.11465 0.72688 0.0
C826 C 0.65705 0.14253 0.71997 0.0
C827 C 0.5959 0.16931 0.73037 0.0
C828 C 0.56247 0.16791 0.74646 0.0
C829 C 0.62302 0.13984 0.73329 0.0
C830 C 0.55536 0.13584 0.76296 0.0
C831 C 0.58222 0.10589 0.76534 0.0
H832 H 0.7372 0.57286 0.13072 0.0
H833 H 0.81994 0.58856 0.19351 0.0
H834 H 0.82226 0.64427 0.15697 0.0
H835 H 0.79767 0.69021 0.10977 0.0
H836 H 0.71118 0.67549 0.05188 0.0
H837 H 0.7136 0.61732 0.08393 0.0
C838 C 0.75624 0.58803 0.13626 0.0
C839 C 0.77854 0.5764 0.16478 0.0
C840 C 0.75651 0.62033 0.11613 0.0
C841 C 0.80256 0.59686 0.17168 0.0
C842 C 0.80378 0.62875 0.15089 0.0
C843 C 0.77957 0.67408 0.10405 0.0
C844 C 0.75443 0.68692 0.07833 0.0
C845 C 0.78039 0.64103 0.12348 0.0
C846 C 0.73093 0.66602 0.07131 0.0
C847 C 0.73222 0.63282 0.08972 0.0
H848 H 0.89671 0.53162 0.44928 0.0
H849 H 0.98084 0.47675 0.38229 0.0
H850 H 0.9405 0.47775 0.33593 0.0
H851 H 0.88156 0.49325 0.31424 0.0
H852 H 0.79596 0.5465 0.38034 0.0
H853 H 0.83644 0.54728 0.42702 0.0
C854 C 0.90603 0.51995 0.42451 0.0
C855 C 0.94169 0.50431 0.41917 0.0
C856 C 0.8825 0.52042 0.39771 0.0
C857 C 0.95354 0.48919 0.387 0.0
C858 C 0.93051 0.48968 0.3604 0.0
C859 C 0.8718 0.50527 0.33875 0.0
C860 C 0.836 0.51993 0.34386 0.0
C861 C 0.89501 0.5052 0.36543 0.0
C862 C 0.82358 0.53518 0.37582 0.0
C863 C 0.84667 0.53554 0.40252 0.0
H864 H 0.08491 0.49267 0.70037 0.0
H865 H 0.16458 0.43206 0.63353 0.0
H866 H 0.12115 0.43109 0.59021 0.0
H867 H 0.06024 0.4479 0.57108 0.0
H868 H 0.98133 0.51024 0.63733 0.0
H869 H 0.02448 0.50997 0.68102 0.0
C870 C 0.09264 0.47906 0.67644 0.0
C871 C 0.12775 0.4623 0.67021 0.0
C872 C 0.06763 0.47897 0.65145 0.0
C873 C 0.13759 0.44506 0.63894 0.0
C874 C 0.1128 0.44453 0.61413 0.0
C875 C 0.05264 0.46151 0.595 0.0
C876 C 0.01772 0.47903 0.60095 0.0
C877 C 0.07774 0.46151 0.62002 0.0
C878 C 0.00808 0.49639 0.6322 0.0
C879 C 0.03273 0.49632 0.65722 0.0
H880 H 0.5419 0.80499 0.1634 0.0
H881 H 0.52261 0.70838 0.13066 0.0
H882 H 0.56477 0.71207 0.07938 0.0
H883 H 0.6127 0.73802 0.0492 0.0
H884 H 0.63463 0.8326 0.08416 0.0
H885 H 0.58534 0.83462 0.1289 0.0
C886 C 0.54635 0.78504 0.14472 0.0
C887 C 0.52946 0.75616 0.15125 0.0
C888 C 0.57137 0.78677 0.11586 0.0
C889 C 0.53544 0.73075 0.12653 0.0
C890 C 0.55967 0.73275 0.09723 0.0
C891 C 0.60644 0.75945 0.06616 0.0
C892 C 0.62779 0.78477 0.06372 0.0
C893 C 0.57871 0.75992 0.09246 0.0
C894 C 0.61892 0.81253 0.08568 0.0
C895 C 0.59078 0.81365 0.11138 0.0
H896 H 0.66873 0.50424 0.10044 0.0
H897 H 0.66536 0.40541 0.1631 0.0
H898 H 0.62149 0.39442 0.12483 0.0
H899 H 0.5802 0.41582 0.07729 0.0
H900 H 0.58557 0.51301 0.01272 0.0
H901 H 0.63315 0.52161 0.04732 0.0
C902 C 0.65858 0.48016 0.10537 0.0
C903 C 0.66961 0.45586 0.13471 0.0
C904 C 0.63398 0.47375 0.08284 0.0
C905 C 0.65695 0.42448 0.14069 0.0
C906 C 0.6319 0.41825 0.11889 0.0
C907 C 0.59248 0.43841 0.07031 0.0
C908 C 0.57964 0.46372 0.04247 0.0
C909 C 0.61973 0.44304 0.09039 0.0
C910 C 0.59549 0.49291 0.03353 0.0
C911 C 0.62238 0.49803 0.05369 0.0
H912 H 0.36501 0.44866 0.00898 0.0
H913 H 0.43521 0.37723 0.07917 0.0
H914 H 0.39165 0.33974 0.09253 0.0
H915 H 0.33707 0.32378 0.07822 0.0
H916 H 0.27101 0.39054 0.00097 0.0
H917 H 0.30896 0.43388 0.99667 0.0
C918 C 0.37032 0.42522 0.02773 0.0
C919 C 0.40292 0.4155 0.04324 0.0
C920 C 0.34594 0.40303 0.03378 0.0
C921 C 0.41012 0.38492 0.06697 0.0
C922 C 0.3853 0.36357 0.07456 0.0
C923 C 0.3306 0.34825 0.06118 0.0
C924 C 0.30142 0.35433 0.0401 0.0
C925 C 0.35358 0.37185 0.05731 0.0
C926 C 0.29344 0.38563 0.01749 0.0
C927 C 0.31518 0.41022 0.0149 0.0
H928 H 0.05191 0.13371 0.28557 0.0
H929 H 0.118 0.20543 0.23914 0.0
H930 H 0.16815 0.15724 0.23567 0.0
H931 H 0.19485 0.09646 0.25139 0.0
H932 H 0.13147 0.02251 0.29731 0.0
H933 H 0.0785 0.06959 0.29514 0.0
C934 C 0.07723 0.13851 0.27433 0.0
C935 C 0.08151 0.17311 0.26336 0.0
C936 C 0.10642 0.11044 0.27264 0.0
C937 C 0.11425 0.1791 0.24844 0.0
C938 C 0.14298 0.15159 0.24637 0.0
C939 C 0.16936 0.09059 0.26073 0.0
C940 C 0.16687 0.05654 0.2752 0.0
C941 C 0.1396 0.11746 0.25939 0.0
C942 C 0.13379 0.04883 0.28632 0.0
C943 C 0.10366 0.07572 0.2852 0.0
H944 H 0.22517 0.3327 0.96007 0.0
H945 H 0.22143 0.25969 0.88297 0.0
H946 H 0.21426 0.30746 0.83488 0.0
H947 H 0.21176 0.36964 0.81393 0.0
H948 H 0.22266 0.44176 0.88917 0.0
H949 H 0.22439 0.395 0.93874 0.0
C950 C 0.2231 0.32729 0.93273 0.0
C951 C 0.22408 0.29271 0.92512 0.0
C952 C 0.22005 0.35483 0.90487 0.0
C953 C 0.2209 0.28609 0.88957 0.0
C954 C 0.21672 0.3134 0.862 0.0
C955 C 0.21385 0.37513 0.84131 0.0
C956 C 0.21645 0.409 0.84819 0.0
C957 C 0.21647 0.34782 0.86926 0.0
C958 C 0.22025 0.4158 0.8835 0.0
C959 C 0.22139 0.38908 0.91174 0.0
H960 H 0.3623 0.23687 0.96131 0.0
H961 H 0.30552 0.16378 0.92683 0.0
H962 H 0.34547 0.15661 0.87314 0.0
H963 H 0.39174 0.17755 0.83228 0.0
H964 H 0.44707 0.25153 0.86821 0.0
H965 H 0.41252 0.2518 0.92479 0.0
C966 C 0.35906 0.21886 0.94237 0.0
C967 C 0.33086 0.20125 0.94771 0.0
C968 C 0.38154 0.21545 0.91143 0.0
C969 C 0.32717 0.17762 0.92328 0.0
C970 C 0.34978 0.17378 0.8924 0.0
C971 C 0.39654 0.19331 0.8527 0.0
C972 C 0.42142 0.21507 0.8455 0.0
C973 C 0.37632 0.19357 0.88555 0.0
C974 C 0.42759 0.23504 0.8725 0.0
C975 C 0.40791 0.2352 0.90508 0.0
H976 H 0.43149 0.56401 0.88222 0.0
H977 H 0.42804 0.47238 0.95629 0.0
H978 H 0.37987 0.45959 0.92563 0.0
H979 H 0.34092 0.47282 0.87487 0.0
H980 H 0.34496 0.56463 0.80051 0.0
H981 H 0.39104 0.57875 0.83345 0.0
C982 C 0.41969 0.5416 0.89196 0.0
C983 C 0.43241 0.5198 0.9223 0.0
C984 C 0.39259 0.53411 0.87351 0.0
C985 C 0.41748 0.49052 0.93432 0.0
C986 C 0.39042 0.4828 0.91617 0.0
C987 C 0.35198 0.49587 0.86597 0.0
C988 C 0.33991 0.51751 0.83522 0.0
C989 C 0.37809 0.50416 0.88541 0.0
C990 C 0.35402 0.54753 0.82407 0.0
C991 C 0.38029 0.55566 0.84291 0.0
H992 H 0.65201 0.68486 0.9129 0.0
H993 H 0.72649 0.613 0.9784 0.0
H994 H 0.69644 0.5651 0.97146 0.0
H995 H 0.64325 0.54673 0.95534 0.0
H996 H 0.56596 0.62093 0.89523 0.0
H997 H 0.60302 0.66482 0.89089 0.0
C998 C 0.66211 0.65851 0.92495 0.0
C999 C 0.69099 0.65238 0.94647 0.0
C1000 C 0.64394 0.63168 0.92205 0.0
C1001 C 0.70409 0.61822 0.96184 0.0
C1002 C 0.68681 0.59094 0.95805 0.0
C1003 C 0.63511 0.57221 0.94048 0.0
C1004 C 0.60203 0.58093 0.92581 0.0
C1005 C 0.65585 0.59776 0.93949 0.0
C1006 C 0.59134 0.61396 0.90689 0.0
C1007 C 0.61242 0.63902 0.90451 0.0
H1008 H 0.8929 0.81923 0.67645 0.0
H1009 H 0.92043 0.8271 0.78391 0.0
H1010 H 0.87613 0.88143 0.78704 0.0
H1011 H 0.82483 0.92266 0.76144 0.0
H1012 H 0.7945 0.91015 0.65643 0.0
H1013 H 0.84487 0.86186 0.64971 0.0
C1014 C 0.88953 0.83307 0.70039 0.0
C1015 C 0.90948 0.81912 0.73005 0.0
C1016 C 0.8634 0.86338 0.70236 0.0
C1017 C 0.90507 0.83734 0.76084 0.0
C1018 C 0.87973 0.86829 0.76265 0.0
C1019 C 0.82992 0.90969 0.7369 0.0
C1020 C 0.80653 0.91967 0.70931 0.0
C1021 C 0.85806 0.881 0.73394 0.0
C1022 C 0.81254 0.90266 0.6778 0.0
C1023 C 0.84116 0.87508 0.67405 0.0
H1024 H 0.40613 0.14581 0.65356 0.0
H1025 H 0.49972 0.08376 0.69988 0.0
H1026 H 0.51022 0.04797 0.64934 0.0
H1027 H 0.49672 0.03904 0.58917 0.0
H1028 H 0.40397 0.10027 0.54135 0.0
H1029 H 0.38904 0.13228 0.59527 0.0
C1030 C 0.42813 0.12373 0.65306 0.0
C1031 C 0.45222 0.11732 0.68019 0.0
C1032 C 0.43463 0.10402 0.62328 0.0
C1033 C 0.48087 0.08898 0.67923 0.0
C1034 C 0.48709 0.06881 0.6502 0.0
C1035 C 0.47338 0.05958 0.59058 0.0
C1036 C 0.45202 0.06841 0.56132 0.0
C1037 C 0.46494 0.07705 0.62153 0.0
C1038 C 0.42106 0.09389 0.56355 0.0
C1039 C 0.41252 0.11188 0.59435 0.0
H1040 H 0.51458 0.37539 0.78881 0.0
H1041 H 0.51706 0.28677 0.869 0.0
H1042 H 0.52248 0.32312 0.9159 0.0
H1043 H 0.52299 0.38056 0.9349 0.0
H1044 H 0.52425 0.4693 0.85605 0.0
H1045 H 0.52147 0.43256 0.8077 0.0
C1046 C 0.51656 0.36422 0.81654 0.0
C1047 C 0.51515 0.32869 0.82559 0.0
C1048 C 0.52046 0.38519 0.84352 0.0
C1049 C 0.51812 0.31414 0.86145 0.0
C1050 C 0.52116 0.33486 0.88833 0.0
C1051 C 0.52319 0.39161 0.90703 0.0
C1052 C 0.52375 0.42725 0.89873 0.0
C1053 C 0.52192 0.37042 0.87974 0.0
C1054 C 0.52418 0.44162 0.86274 0.0
C1055 C 0.52227 0.42075 0.83524 0.0
H1056 H 0.55328 0.81482 0.34828 0.0
H1057 H 0.47046 0.88418 0.29074 0.0
H1058 H 0.47184 0.93036 0.32922 0.0
H1059 H 0.49187 0.94819 0.38315 0.0
H1060 H 0.57121 0.87786 0.44387 0.0
H1061 H 0.57686 0.83476 0.39961 0.0
C1062 C 0.53599 0.84027 0.34384 0.0
C1063 C 0.5116 0.84619 0.31705 0.0
C1064 C 0.53645 0.86629 0.36653 0.0
C1065 C 0.48932 0.87914 0.31136 0.0
C1066 C 0.49007 0.90545 0.33334 0.0
C1067 C 0.51083 0.92363 0.38616 0.0
C1068 C 0.53118 0.9158 0.41625 0.0
C1069 C 0.51283 0.89892 0.36155 0.0
C1070 C 0.55565 0.88419 0.42046 0.0
C1071 C 0.55858 0.85961 0.39542 0.0
H1072 H 0.4414 0.5529 0.09101 0.0
H1073 H 0.54913 0.56135 0.06154 0.0
H1074 H 0.55159 0.58972 0.1154 0.0
H1075 H 0.52275 0.61483 0.16912 0.0
H1076 H 0.41368 0.61214 0.19686 0.0
H1077 H 0.4123 0.57806 0.14602 0.0
C1078 C 0.46533 0.56101 0.09645 0.0
C1079 C 0.49485 0.55537 0.07208 0.0
C1080 C 0.46647 0.57797 0.12736 0.0
C1081 C 0.52578 0.56591 0.07948 0.0
C1082 C 0.52737 0.5819 0.11046 0.0
C1083 C 0.49885 0.60619 0.16445 0.0
C1084 C 0.46845 0.61557 0.18671 0.0
C1085 C 0.49784 0.5883 0.13439 0.0
C1086 C 0.43747 0.60486 0.18007 0.0
C1087 C 0.43662 0.58568 0.1509 0.0
loop_
_geom_bond_atom_site_label_1
_geom_bond_atom_site_label_2
_geom_bond_distance
_geom_bond_site_symmetry_2
_ccdc_geom_bond_type
Dy0 O4 2.398 . S
Dy0 O5 2.500 . S
Dy0 O6 2.403 1_655 S
Dy0 O7 2.664 1_655 S
Dy0 O11 2.326 1_654 S
Dy0 O15 2.310 1_564 S
Dy0 O16 2.351 1_565 S
C1 O12 1.185 . S
C1 O13 1.361 . S
C2 O4 1.185 . S
C2 O5 1.366 . S
Dy3 O7 2.310 1_546 S
Dy3 O10 2.351 1_545 S
Dy3 O12 2.398 . S
Dy3 O13 2.496 . S
Dy3 O14 2.403 1_455 S
Dy3 O15 2.664 1_455 S
Dy3 O17 2.326 1_456 S
O4 Dy0 2.398 . S
O4 C2 1.185 . S
O5 Dy0 2.500 . S
O5 C2 1.366 . S
O6 Dy0 2.403 1_455 S
O6 C8 1.254 . S
O7 Dy0 2.664 1_455 S
O7 Dy3 2.310 1_564 S
O7 C8 1.268 . S
C8 O6 1.254 . S
C8 O7 1.268 . S
C9 O14 1.254 . S
C9 O15 1.268 . S
O10 Dy3 2.351 1_565 S
O10 C18 1.249 . S
O11 Dy0 2.326 1_456 S
O11 C18 1.267 . S
O12 C1 1.185 . S
O12 Dy3 2.398 . S
O13 C1 1.361 . S
O13 Dy3 2.496 . S
O14 Dy3 2.403 1_655 S
O14 C9 1.254 . S
O15 Dy0 2.310 1_546 S
O15 Dy3 2.664 1_655 S
O15 C9 1.268 . S
O16 Dy0 2.351 1_545 S
O16 C19 1.249 . S
O17 Dy3 2.326 1_654 S
O17 C19 1.267 . S
C18 O10 1.249 . S
C18 O11 1.267 . S
C19 O16 1.249 . S
C19 O17 1.267 . S
Dy20 O24 2.398 . S
Dy20 O25 2.491 1_455 S
Dy20 O26 2.403 . S
Dy20 O27 2.664 . S
Dy20 O31 2.326 1_455 S
Dy20 O35 2.310 1_455 S
Dy20 O36 2.351 . S
C21 O32 1.185 . S
C21 O33 1.355 1_655 S
C22 O24 1.185 . S
C22 O25 1.355 1_455 S
Dy23 O27 2.310 1_655 S
Dy23 O30 2.351 . S
Dy23 O32 2.398 . S
Dy23 O33 2.491 1_655 S
Dy23 O34 2.403 . S
Dy23 O35 2.664 . S
Dy23 O37 2.326 1_655 S
O24 Dy20 2.398 . S
O24 C22 1.185 . S
O25 Dy20 2.491 1_655 S
O25 C22 1.355 1_655 S
O26 Dy20 2.403 . S
O26 C28 1.254 . S
O27 Dy20 2.664 . S
O27 Dy23 2.310 1_455 S
O27 C28 1.268 . S
C28 O26 1.254 . S
C28 O27 1.268 . S
C29 O34 1.254 . S
C29 O35 1.268 . S
O30 Dy23 2.351 . S
O30 C38 1.249 . S
O31 Dy20 2.326 1_655 S
O31 C38 1.267 . S
O32 C21 1.185 . S
O32 Dy23 2.398 . S
O33 C21 1.355 1_455 S
O33 Dy23 2.491 1_455 S
O34 Dy23 2.403 . S
O34 C29 1.254 . S
O35 Dy20 2.310 1_655 S
O35 Dy23 2.664 . S
O35 C29 1.268 . S
O36 Dy20 2.351 . S
O36 C39 1.249 . S
O37 Dy23 2.326 1_455 S
O37 C39 1.267 . S
C38 O30 1.249 . S
C38 O31 1.267 . S
C39 O36 1.249 . S
C39 O37 1.267 . S
Dy40 O44 2.398 . S
Dy40 O45 2.491 . S
Dy40 O46 2.403 . S
Dy40 O47 2.664 . S
Dy40 O51 2.326 . S
Dy40 O55 2.310 . S
Dy40 O56 2.351 . S
C41 O52 1.185 . S
C41 O53 1.355 . S
C42 O44 1.185 . S
C42 O45 1.355 . S
Dy43 O47 2.310 . S
Dy43 O50 2.351 . S
Dy43 O52 2.398 . S
Dy43 O53 2.491 . S
Dy43 O54 2.403 . S
Dy43 O55 2.664 . S
Dy43 O57 2.326 . S
O44 Dy40 2.398 . S
O44 C42 1.185 . S
O45 Dy40 2.491 . S
O45 C42 1.355 . S
O46 Dy40 2.403 . S
O46 C48 1.254 . S
O47 Dy40 2.664 . S
O47 Dy43 2.310 . S
O47 C48 1.268 . S
C48 O46 1.254 . S
C48 O47 1.268 . S
C49 O54 1.254 . S
C49 O55 1.268 . S
O50 Dy43 2.351 . S
O50 C58 1.249 . S
O51 Dy40 2.326 . S
O51 C58 1.267 . S
O52 C41 1.185 . S
O52 Dy43 2.398 . S
O53 C41 1.355 . S
O53 Dy43 2.491 . S
O54 Dy43 2.403 . S
O54 C49 1.254 . S
O55 Dy40 2.310 . S
O55 Dy43 2.664 . S
O55 C49 1.268 . S
O56 Dy40 2.351 . S
O56 C59 1.249 . S
O57 Dy43 2.326 . S
O57 C59 1.267 . S
C58 O50 1.249 . S
C58 O51 1.267 . S
C59 O56 1.249 . S
C59 O57 1.267 . S
Dy60 O64 2.398 . S
Dy60 O65 2.491 1_565 S
Dy60 O66 2.403 . S
Dy60 O67 2.664 . S
Dy60 O71 2.326 1_565 S
Dy60 O75 2.310 1_565 S
Dy60 O76 2.351 . S
C61 O72 1.185 . S
C61 O73 1.355 1_545 S
C62 O64 1.185 . S
C62 O65 1.355 1_565 S
Dy63 O67 2.310 1_545 S
Dy63 O70 2.351 . S
Dy63 O72 2.398 . S
Dy63 O73 2.491 1_545 S
Dy63 O74 2.403 . S
Dy63 O75 2.664 . S
Dy63 O77 2.326 1_545 S
O64 Dy60 2.398 . S
O64 C62 1.185 . S
O65 Dy60 2.491 1_545 S
O65 C62 1.355 1_545 S
O66 Dy60 2.403 . S
O66 C68 1.254 . S
O67 Dy60 2.664 . S
O67 Dy63 2.310 1_565 S
O67 C68 1.268 . S
C68 O66 1.254 . S
C68 O67 1.268 . S
C69 O74 1.254 . S
C69 O75 1.268 . S
O70 Dy63 2.351 . S
O70 C78 1.249 . S
O71 Dy60 2.326 1_545 S
O71 C78 1.267 . S
O72 C61 1.185 . S
O72 Dy63 2.398 . S
O73 C61 1.355 1_565 S
O73 Dy63 2.491 1_565 S
O74 Dy63 2.403 . S
O74 C69 1.254 . S
O75 Dy60 2.310 1_545 S
O75 Dy63 2.664 . S
O75 C69 1.268 . S
O76 Dy60 2.351 . S
O76 C79 1.249 . S
O77 Dy63 2.326 1_565 S
O77 C79 1.267 . S
C78 O70 1.249 . S
C78 O71 1.267 . S
C79 O76 1.249 . S
C79 O77 1.267 . S
Dy80 O84 2.398 . S
Dy80 O85 2.491 . S
Dy80 O86 2.403 . S
Dy80 O87 2.664 . S
Dy80 O91 2.326 . S
Dy80 O95 2.310 . S
Dy80 O96 2.351 . S
C81 O92 1.185 . S
C81 O93 1.355 . S
C82 O84 1.185 . S
C82 O85 1.355 . S
Dy83 O87 2.310 . S
Dy83 O90 2.351 . S
Dy83 O92 2.398 . S
Dy83 O93 2.491 . S
Dy83 O94 2.403 . S
Dy83 O95 2.664 . S
Dy83 O97 2.326 . S
O84 Dy80 2.398 . S
O84 C82 1.185 . S
O85 Dy80 2.491 . S
O85 C82 1.355 . S
O86 Dy80 2.403 . S
O86 C88 1.254 . S
O87 Dy80 2.664 . S
O87 Dy83 2.310 . S
O87 C88 1.268 . S
C88 O86 1.254 . S
C88 O87 1.268 . S
C89 O94 1.254 . S
C89 O95 1.268 . S
O90 Dy83 2.351 . S
O90 C98 1.249 . S
O91 Dy80 2.326 . S
O91 C98 1.267 . S
O92 C81 1.185 . S
O92 Dy83 2.398 . S
O93 C81 1.355 . S
O93 Dy83 2.491 . S
O94 Dy83 2.403 . S
O94 C89 1.254 . S
O95 Dy80 2.310 . S
O95 Dy83 2.664 . S
O95 C89 1.268 . S
O96 Dy80 2.351 . S
O96 C99 1.249 . S
O97 Dy83 2.326 . S
O97 C99 1.267 . S
C98 O90 1.249 . S
C98 O91 1.267 . S
C99 O96 1.249 . S
C99 O97 1.267 . S
Dy100 O104 2.398 . S
Dy100 O105 2.491 . S
Dy100 O106 2.403 . S
Dy100 O107 2.664 . S
Dy100 O111 2.326 . S
Dy100 O115 2.310 . S
Dy100 O116 2.351 . S
C101 O112 1.185 . S
C101 O113 1.355 . S
C102 O104 1.185 . S
C102 O105 1.355 . S
Dy103 O107 2.310 . S
Dy103 O110 2.351 . S
Dy103 O112 2.398 . S
Dy103 O113 2.491 . S
Dy103 O114 2.403 . S
Dy103 O115 2.664 . S
Dy103 O117 2.326 . S
O104 Dy100 2.398 . S
O104 C102 1.185 . S
O105 Dy100 2.491 . S
O105 C102 1.355 . S
O106 Dy100 2.403 . S
O106 C108 1.254 . S
O107 Dy100 2.664 . S
O107 Dy103 2.310 . S
O107 C108 1.268 . S
C108 O106 1.254 . S
C108 O107 1.268 . S
C109 O114 1.254 . S
C109 O115 1.268 . S
O110 Dy103 2.351 . S
O110 C118 1.249 . S
O111 Dy100 2.326 . S
O111 C118 1.267 . S
O112 C101 1.185 . S
O112 Dy103 2.398 . S
O113 C101 1.355 . S
O113 Dy103 2.491 . S
O114 Dy103 2.403 . S
O114 C109 1.254 . S
O115 Dy100 2.310 . S
O115 Dy103 2.664 . S
O115 C109 1.268 . S
O116 Dy100 2.351 . S
O116 C119 1.249 . S
O117 Dy103 2.326 . S
O117 C119 1.267 . S
C118 O110 1.249 . S
C118 O111 1.267 . S
C119 O116 1.249 . S
C119 O117 1.267 . S
Dy120 O124 2.398 . S
Dy120 O125 2.491 . S
Dy120 O126 2.403 . S
Dy120 O127 2.664 . S
Dy120 O131 2.326 . S
Dy120 O135 2.310 . S
Dy120 O136 2.351 . S
C121 O132 1.185 . S
C121 O133 1.355 . S
C122 O124 1.185 . S
C122 O125 1.355 . S
Dy123 O127 2.310 . S
Dy123 O130 2.351 . S
Dy123 O132 2.398 . S
Dy123 O133 2.491 . S
Dy123 O134 2.403 . S
Dy123 O135 2.664 . S
Dy123 O137 2.326 . S
O124 Dy120 2.398 . S
O124 C122 1.185 . S
O125 Dy120 2.491 . S
O125 C122 1.355 . S
O126 Dy120 2.403 . S
O126 C128 1.254 . S
O127 Dy120 2.664 . S
O127 Dy123 2.310 . S
O127 C128 1.268 . S
C128 O126 1.254 . S
C128 O127 1.268 . S
C129 O134 1.254 . S
C129 O135 1.268 . S
O130 Dy123 2.351 . S
O130 C138 1.249 . S
O131 Dy120 2.326 . S
O131 C138 1.267 . S
O132 C121 1.185 . S
O132 Dy123 2.398 . S
O133 C121 1.355 . S
O133 Dy123 2.491 . S
O134 Dy123 2.403 . S
O134 C129 1.254 . S
O135 Dy120 2.310 . S
O135 Dy123 2.664 . S
O135 C129 1.268 . S
O136 Dy120 2.351 . S
O136 C139 1.249 . S
O137 Dy123 2.326 . S
O137 C139 1.267 . S
C138 O130 1.249 . S
C138 O131 1.267 . S
C139 O136 1.249 . S
C139 O137 1.267 . S
Dy140 O144 2.398 . S
Dy140 O145 2.491 . S
Dy140 O146 2.403 1_655 S
Dy140 O147 2.664 1_655 S
Dy140 O151 2.326 1_655 S
Dy140 O155 2.310 . S
Dy140 O156 2.351 . S
C141 O152 1.185 . S
C141 O153 1.355 . S
C142 O144 1.185 . S
C142 O145 1.355 . S
Dy143 O147 2.310 . S
Dy143 O150 2.351 . S
Dy143 O152 2.398 . S
Dy143 O153 2.491 . S
Dy143 O154 2.403 1_455 S
Dy143 O155 2.664 1_455 S
Dy143 O157 2.326 1_455 S
O144 Dy140 2.398 . S
O144 C142 1.185 . S
O145 Dy140 2.491 . S
O145 C142 1.355 . S
O146 Dy140 2.403 1_455 S
O146 C148 1.254 . S
O147 Dy140 2.664 1_455 S
O147 Dy143 2.310 . S
O147 C148 1.268 . S
C148 O146 1.254 . S
C148 O147 1.268 . S
C149 O154 1.254 . S
C149 O155 1.268 . S
O150 Dy143 2.351 . S
O150 C158 1.249 . S
O151 Dy140 2.326 1_455 S
O151 C158 1.267 . S
O152 C141 1.185 . S
O152 Dy143 2.398 . S
O153 C141 1.355 . S
O153 Dy143 2.491 . S
O154 Dy143 2.403 1_655 S
O154 C149 1.254 . S
O155 Dy140 2.310 . S
O155 Dy143 2.664 1_655 S
O155 C149 1.268 . S
O156 Dy140 2.351 . S
O156 C159 1.249 . S
O157 Dy143 2.326 1_655 S
O157 C159 1.267 . S
C158 O150 1.249 . S
C158 O151 1.267 . S
C159 O156 1.249 . S
C159 O157 1.267 . S
Dy160 O164 2.398 . S
Dy160 O165 2.491 1_556 S
Dy160 O166 2.403 . S
Dy160 O167 2.664 . S
Dy160 O171 2.326 1_556 S
Dy160 O175 2.310 1_556 S
Dy160 O176 2.351 . S
C161 O172 1.185 . S
C161 O173 1.355 1_554 S
C162 O164 1.185 . S
C162 O165 1.355 1_556 S
Dy163 O167 2.310 1_554 S
Dy163 O170 2.351 . S
Dy163 O172 2.398 . S
Dy163 O173 2.491 1_554 S
Dy163 O174 2.403 . S
Dy163 O175 2.664 . S
Dy163 O177 2.326 1_554 S
O164 Dy160 2.398 . S
O164 C162 1.185 . S
O165 Dy160 2.491 1_554 S
O165 C162 1.355 1_554 S
O166 Dy160 2.403 . S
O166 C168 1.254 . S
O167 Dy160 2.664 . S
O167 Dy163 2.310 1_556 S
O167 C168 1.268 . S
C168 O166 1.254 . S
C168 O167 1.268 . S
C169 O174 1.254 . S
C169 O175 1.268 . S
O170 Dy163 2.351 . S
O170 C178 1.249 . S
O171 Dy160 2.326 1_554 S
O171 C178 1.267 . S
O172 C161 1.185 . S
O172 Dy163 2.398 . S
O173 C161 1.355 1_556 S
O173 Dy163 2.491 1_556 S
O174 Dy163 2.403 . S
O174 C169 1.254 . S
O175 Dy160 2.310 1_554 S
O175 Dy163 2.664 . S
O175 C169 1.268 . S
O176 Dy160 2.351 . S
O176 C179 1.249 . S
O177 Dy163 2.326 1_556 S
O177 C179 1.267 . S
C178 O170 1.249 . S
C178 O171 1.267 . S
C179 O176 1.249 . S
C179 O177 1.267 . S
Dy180 O184 2.398 . S
Dy180 O185 2.491 1_565 S
Dy180 O186 2.403 . S
Dy180 O187 2.664 . S
Dy180 O191 2.326 1_565 S
Dy180 O195 2.310 1_565 S
Dy180 O196 2.351 . S
C181 O192 1.185 . S
C181 O193 1.355 1_545 S
C182 O184 1.185 . S
C182 O185 1.355 1_565 S
Dy183 O187 2.310 1_545 S
Dy183 O190 2.351 . S
Dy183 O192 2.398 . S
Dy183 O193 2.491 1_545 S
Dy183 O194 2.403 . S
Dy183 O195 2.664 . S
Dy183 O197 2.326 1_545 S
O184 Dy180 2.398 . S
O184 C182 1.185 . S
O185 Dy180 2.491 1_545 S
O185 C182 1.355 1_545 S
O186 Dy180 2.403 . S
O186 C188 1.254 . S
O187 Dy180 2.664 . S
O187 Dy183 2.310 1_565 S
O187 C188 1.268 . S
C188 O186 1.254 . S
C188 O187 1.268 . S
C189 O194 1.254 . S
C189 O195 1.268 . S
O190 Dy183 2.351 . S
O190 C198 1.249 . S
O191 Dy180 2.326 1_545 S
O191 C198 1.267 . S
O192 C181 1.185 . S
O192 Dy183 2.398 . S
O193 C181 1.355 1_565 S
O193 Dy183 2.491 1_565 S
O194 Dy183 2.403 . S
O194 C189 1.254 . S
O195 Dy180 2.310 1_545 S
O195 Dy183 2.664 . S
O195 C189 1.268 . S
O196 Dy180 2.351 . S
O196 C199 1.249 . S
O197 Dy183 2.326 1_565 S
O197 C199 1.267 . S
C198 O190 1.249 . S
C198 O191 1.267 . S
C199 O196 1.249 . S
C199 O197 1.267 . S
Dy200 O204 2.398 . S
Dy200 O205 2.491 . S
Dy200 O206 2.403 . S
Dy200 O207 2.664 . S
Dy200 O211 2.326 . S
Dy200 O215 2.310 . S
Dy200 O216 2.351 . S
C201 O212 1.185 . S
C201 O213 1.355 . S
C202 O204 1.185 . S
C202 O205 1.355 . S
Dy203 O207 2.310 . S
Dy203 O210 2.351 . S
Dy203 O212 2.398 . S
Dy203 O213 2.491 . S
Dy203 O214 2.403 . S
Dy203 O215 2.664 . S
Dy203 O217 2.326 . S
O204 Dy200 2.398 . S
O204 C202 1.185 . S
O205 Dy200 2.491 . S
O205 C202 1.355 . S
O206 Dy200 2.403 . S
O206 C208 1.254 . S
O207 Dy200 2.664 . S
O207 Dy203 2.310 . S
O207 C208 1.268 . S
C208 O206 1.254 . S
C208 O207 1.268 . S
C209 O214 1.254 . S
C209 O215 1.268 . S
O210 Dy203 2.351 . S
O210 C218 1.249 . S
O211 Dy200 2.326 . S
O211 C218 1.267 . S
O212 C201 1.185 . S
O212 Dy203 2.398 . S
O213 C201 1.355 . S
O213 Dy203 2.491 . S
O214 Dy203 2.403 . S
O214 C209 1.254 . S
O215 Dy200 2.310 . S
O215 Dy203 2.664 . S
O215 C209 1.268 . S
O216 Dy200 2.351 . S
O216 C219 1.249 . S
O217 Dy203 2.326 . S
O217 C219 1.267 . S
C218 O210 1.249 . S
C218 O211 1.267 . S
C219 O216 1.249 . S
C219 O217 1.267 . S
Dy220 O224 2.398 . S
Dy220 O225 2.491 1_455 S
Dy220 O226 2.403 . S
Dy220 O227 2.664 . S
Dy220 O231 2.326 1_455 S
Dy220 O235 2.310 1_455 S
Dy220 O236 2.351 . S
C221 O232 1.185 . S
C221 O233 1.355 1_655 S
C222 O224 1.185 . S
C222 O225 1.355 1_455 S
Dy223 O227 2.310 1_655 S
Dy223 O230 2.351 . S
Dy223 O232 2.398 . S
Dy223 O233 2.491 1_655 S
Dy223 O234 2.403 . S
Dy223 O235 2.664 . S
Dy223 O237 2.326 1_655 S
O224 Dy220 2.398 . S
O224 C222 1.185 . S
O225 Dy220 2.491 1_655 S
O225 C222 1.355 1_655 S
O226 Dy220 2.403 . S
O226 C228 1.254 . S
O227 Dy220 2.664 . S
O227 Dy223 2.310 1_455 S
O227 C228 1.268 . S
C228 O226 1.254 . S
C228 O227 1.268 . S
C229 O234 1.254 . S
C229 O235 1.268 . S
O230 Dy223 2.351 . S
O230 C238 1.249 . S
O231 Dy220 2.326 1_655 S
O231 C238 1.267 . S
O232 C221 1.185 . S
O232 Dy223 2.398 . S
O233 C221 1.355 1_455 S
O233 Dy223 2.491 1_455 S
O234 Dy223 2.403 . S
O234 C229 1.254 . S
O235 Dy220 2.310 1_655 S
O235 Dy223 2.664 . S
O235 C229 1.268 . S
O236 Dy220 2.351 . S
O236 C239 1.249 . S
O237 Dy223 2.326 1_455 S
O237 C239 1.267 . S
C238 O230 1.249 . S
C238 O231 1.267 . S
C239 O236 1.249 . S
C239 O237 1.267 . S
Dy240 O244 2.398 . S
Dy240 O245 2.491 . S
Dy240 O246 2.403 . S
Dy240 O247 2.664 . S
Dy240 O251 2.326 . S
Dy240 O255 2.310 . S
Dy240 O256 2.351 . S
C241 O252 1.185 . S
C241 O253 1.355 . S
C242 O244 1.185 . S
C242 O245 1.355 . S
Dy243 O247 2.310 . S
Dy243 O250 2.351 . S
Dy243 O252 2.398 . S
Dy243 O253 2.491 . S
Dy243 O254 2.403 . S
Dy243 O255 2.664 . S
Dy243 O257 2.326 . S
O244 Dy240 2.398 . S
O244 C242 1.185 . S
O245 Dy240 2.491 . S
O245 C242 1.355 . S
O246 Dy240 2.403 . S
O246 C248 1.254 . S
O247 Dy240 2.664 . S
O247 Dy243 2.310 . S
O247 C248 1.268 . S
C248 O246 1.254 . S
C248 O247 1.268 . S
C249 O254 1.254 . S
C249 O255 1.268 . S
O250 Dy243 2.351 . S
O250 C258 1.249 . S
O251 Dy240 2.326 . S
O251 C258 1.267 . S
O252 C241 1.185 . S
O252 Dy243 2.398 . S
O253 C241 1.355 . S
O253 Dy243 2.491 . S
O254 Dy243 2.403 . S
O254 C249 1.254 . S
O255 Dy240 2.310 . S
O255 Dy243 2.664 . S
O255 C249 1.268 . S
O256 Dy240 2.351 . S
O256 C259 1.249 . S
O257 Dy243 2.326 . S
O257 C259 1.267 . S
C258 O250 1.249 . S
C258 O251 1.267 . S
C259 O256 1.249 . S
C259 O257 1.267 . S
Dy260 O264 2.398 . S
Dy260 O265 2.491 1_556 S
Dy260 O266 2.403 . S
Dy260 O267 2.664 . S
Dy260 O271 2.326 1_556 S
Dy260 O275 2.310 1_556 S
Dy260 O276 2.351 . S
C261 O272 1.185 . S
C261 O273 1.355 1_554 S
C262 O264 1.185 . S
C262 O265 1.355 1_556 S
Dy263 O267 2.310 1_554 S
Dy263 O270 2.351 . S
Dy263 O272 2.398 . S
Dy263 O273 2.491 1_554 S
Dy263 O274 2.403 . S
Dy263 O275 2.664 . S
Dy263 O277 2.326 1_554 S
O264 Dy260 2.398 . S
O264 C262 1.185 . S
O265 Dy260 2.491 1_554 S
O265 C262 1.355 1_554 S
O266 Dy260 2.403 . S
O266 C268 1.254 . S
O267 Dy260 2.664 . S
O267 Dy263 2.310 1_556 S
O267 C268 1.268 . S
C268 O266 1.254 . S
C268 O267 1.268 . S
C269 O274 1.254 . S
C269 O275 1.268 . S
O270 Dy263 2.351 . S
O270 C278 1.249 . S
O271 Dy260 2.326 1_554 S
O271 C278 1.267 . S
O272 C261 1.185 . S
O272 Dy263 2.398 . S
O273 C261 1.355 1_556 S
O273 Dy263 2.491 1_556 S
O274 Dy263 2.403 . S
O274 C269 1.254 . S
O275 Dy260 2.310 1_554 S
O275 Dy263 2.664 . S
O275 C269 1.268 . S
O276 Dy260 2.351 . S
O276 C279 1.249 . S
O277 Dy263 2.326 1_556 S
O277 C279 1.267 . S
C278 O270 1.249 . S
C278 O271 1.267 . S
C279 O276 1.249 . S
C279 O277 1.267 . S
Dy280 O284 2.398 . S
Dy280 O285 2.491 . S
Dy280 O286 2.403 . S
Dy280 O287 2.664 . S
Dy280 O291 2.326 . S
Dy280 O295 2.310 1_565 S
Dy280 O296 2.351 1_565 S
C281 O292 1.185 . S
C281 O293 1.355 . S
C282 O284 1.185 . S
C282 O285 1.355 . S
Dy283 O287 2.310 1_545 S
Dy283 O290 2.351 1_545 S
Dy283 O292 2.398 . S
Dy283 O293 2.491 . S
Dy283 O294 2.403 . S
Dy283 O295 2.664 . S
Dy283 O297 2.326 . S
O284 Dy280 2.398 . S
O284 C282 1.185 . S
O285 Dy280 2.491 . S
O285 C282 1.355 . S
O286 Dy280 2.403 . S
O286 C288 1.254 . S
O287 Dy280 2.664 . S
O287 Dy283 2.310 1_565 S
O287 C288 1.268 . S
C288 O286 1.254 . S
C288 O287 1.268 . S
C289 O294 1.254 . S
C289 O295 1.268 . S
O290 Dy283 2.351 1_565 S
O290 C298 1.249 . S
O291 Dy280 2.326 . S
O291 C298 1.267 . S
O292 C281 1.185 . S
O292 Dy283 2.398 . S
O293 C281 1.355 . S
O293 Dy283 2.491 . S
O294 Dy283 2.403 . S
O294 C289 1.254 . S
O295 Dy280 2.310 1_545 S
O295 Dy283 2.664 . S
O295 C289 1.268 . S
O296 Dy280 2.351 1_545 S
O296 C299 1.249 . S
O297 Dy283 2.326 . S
O297 C299 1.267 . S
C298 O290 1.249 . S
C298 O291 1.267 . S
C299 O296 1.249 . S
C299 O297 1.267 . S
Dy300 O304 2.398 . S
Dy300 O305 2.500 . S
Dy300 O306 2.403 . S
Dy300 O307 2.664 . S
Dy300 O311 2.326 1_554 S
Dy300 O315 2.310 1_554 S
Dy300 O316 2.351 . S
C301 O312 1.185 . S
C301 O313 1.361 . S
C302 O304 1.185 . S
C302 O305 1.366 . S
Dy303 O307 2.310 1_556 S
Dy303 O310 2.351 . S
Dy303 O312 2.398 . S
Dy303 O313 2.496 . S
Dy303 O314 2.403 . S
Dy303 O315 2.664 . S
Dy303 O317 2.326 1_556 S
O304 Dy300 2.398 . S
O304 C302 1.185 . S
O305 Dy300 2.500 . S
O305 C302 1.366 . S
O306 Dy300 2.403 . S
O306 C308 1.254 . S
O307 Dy300 2.664 . S
O307 Dy303 2.310 1_554 S
O307 C308 1.268 . S
C308 O306 1.254 . S
C308 O307 1.268 . S
C309 O314 1.254 . S
C309 O315 1.268 . S
O310 Dy303 2.351 . S
O310 C318 1.249 . S
O311 Dy300 2.326 1_556 S
O311 C318 1.267 . S
O312 C301 1.185 . S
O312 Dy303 2.398 . S
O313 C301 1.361 . S
O313 Dy303 2.496 . S
O314 Dy303 2.403 . S
O314 C309 1.254 . S
O315 Dy300 2.310 1_556 S
O315 Dy303 2.664 . S
O315 C309 1.268 . S
O316 Dy300 2.351 . S
O316 C319 1.249 . S
O317 Dy303 2.326 1_554 S
O317 C319 1.267 . S
C318 O310 1.249 . S
C318 O311 1.267 . S
C319 O316 1.249 . S
C319 O317 1.267 . S
H320 C326 0.930 . S
H321 C329 0.930 . S
H322 C330 0.930 . S
H323 C331 0.930 . S
H324 C334 0.930 . S
H325 C335 0.930 . S
C326 H320 0.930 . S
C326 C327 1.355 1_455 S
C326 C328 1.415 . S
C327 C326 1.355 1_655 S
C327 C329 1.419 . S
C328 C326 1.415 . S
C328 C333 1.425 1_455 S
C328 C335 1.409 . S
C329 H321 0.930 . S
C329 C327 1.419 . S
C329 C330 1.362 . S
C330 H322 0.930 . S
C330 C329 1.362 . S
C330 C333 1.409 . S
C331 H323 0.930 . S
C331 C332 1.355 . S
C331 C333 1.415 . S
C332 C331 1.355 . S
C332 C334 1.419 1_655 S
C333 C328 1.425 1_655 S
C333 C330 1.409 . S
C333 C331 1.415 . S
C334 H324 0.930 . S
C334 C332 1.419 1_455 S
C334 C335 1.362 . S
C335 H325 0.930 . S
C335 C328 1.409 . S
C335 C334 1.362 . S
H336 C342 0.930 . S
H337 C345 0.930 . S
H338 C346 0.930 . S
H339 C347 0.930 . S
H340 C350 0.930 . S
H341 C351 0.930 . S
C342 H336 0.930 . S
C342 C343 1.355 . S
C342 C344 1.415 . S
C343 C342 1.355 . S
C343 C345 1.419 . S
C344 C342 1.415 . S
C344 C349 1.425 . S
C344 C351 1.409 . S
C345 H337 0.930 . S
C345 C343 1.419 . S
C345 C346 1.362 . S
C346 H338 0.930 . S
C346 C345 1.362 . S
C346 C349 1.409 . S
C347 H339 0.930 . S
C347 C348 1.355 . S
C347 C349 1.415 . S
C348 C347 1.355 . S
C348 C350 1.419 . S
C349 C344 1.425 . S
C349 C346 1.409 . S
C349 C347 1.415 . S
C350 H340 0.930 . S
C350 C348 1.419 . S
C350 C351 1.362 . S
C351 H341 0.930 . S
C351 C344 1.409 . S
C351 C350 1.362 . S
H352 C358 0.930 . S
H353 C361 0.930 . S
H354 C362 0.930 . S
H355 C363 0.930 . S
H356 C366 0.930 . S
H357 C367 0.930 . S
C358 H352 0.930 . S
C358 C359 1.355 . S
C358 C360 1.415 . S
C359 C358 1.355 . S
C359 C361 1.419 . S
C360 C358 1.415 . S
C360 C365 1.425 . S
C360 C367 1.409 . S
C361 H353 0.930 . S
C361 C359 1.419 . S
C361 C362 1.362 . S
C362 H354 0.930 . S
C362 C361 1.362 . S
C362 C365 1.409 . S
C363 H355 0.930 . S
C363 C364 1.355 . S
C363 C365 1.415 . S
C364 C363 1.355 . S
C364 C366 1.419 . S
C365 C360 1.425 . S
C365 C362 1.409 . S
C365 C363 1.415 . S
C366 H356 0.930 . S
C366 C364 1.419 . S
C366 C367 1.362 . S
C367 H357 0.930 . S
C367 C360 1.409 . S
C367 C366 1.362 . S
H368 C374 0.930 . S
H369 C377 0.930 . S
H370 C378 0.930 . S
H371 C379 0.930 . S
H372 C382 0.930 . S
H373 C383 0.930 . S
C374 H368 0.930 . S
C374 C375 1.355 . S
C374 C376 1.415 . S
C375 C374 1.355 . S
C375 C377 1.419 . S
C376 C374 1.415 . S
C376 C381 1.425 . S
C376 C383 1.409 . S
C377 H369 0.930 . S
C377 C375 1.419 . S
C377 C378 1.362 . S
C378 H370 0.930 . S
C378 C377 1.362 . S
C378 C381 1.409 . S
C379 H371 0.930 . S
C379 C380 1.355 . S
C379 C381 1.415 . S
C380 C379 1.355 . S
C380 C382 1.419 . S
C381 C376 1.425 . S
C381 C378 1.409 . S
C381 C379 1.415 . S
C382 H372 0.930 . S
C382 C380 1.419 . S
C382 C383 1.362 . S
C383 H373 0.930 . S
C383 C376 1.409 . S
C383 C382 1.362 . S
H384 C390 0.930 . S
H385 C393 0.930 . S
H386 C394 0.930 . S
H387 C395 0.930 1_545 S
H388 C398 0.930 . S
H389 C399 0.930 . S
C390 H384 0.930 . S
C390 C391 1.355 . S
C390 C392 1.415 . S
C391 C390 1.355 . S
C391 C393 1.419 . S
C392 C390 1.415 . S
C392 C397 1.425 . S
C392 C399 1.409 . S
C393 H385 0.930 . S
C393 C391 1.419 . S
C393 C394 1.362 . S
C394 H386 0.930 . S
C394 C393 1.362 . S
C394 C397 1.409 . S
C395 H387 0.930 1_565 S
C395 C396 1.355 . S
C395 C397 1.415 . S
C396 C395 1.355 . S
C396 C398 1.419 . S
C397 C392 1.425 . S
C397 C394 1.409 . S
C397 C395 1.415 . S
C398 H388 0.930 . S
C398 C396 1.419 . S
C398 C399 1.362 . S
C399 H389 0.930 . S
C399 C392 1.409 . S
C399 C398 1.362 . S
H400 C406 0.930 . S
H401 C409 0.930 . S
H402 C410 0.930 . S
H403 C411 0.930 . S
H404 C414 0.930 . S
H405 C415 0.930 . S
C406 H400 0.930 . S
C406 C407 1.355 . S
C406 C408 1.415 . S
C407 C406 1.355 . S
C407 C409 1.419 1_455 S
C408 C406 1.415 . S
C408 C413 1.425 1_455 S
C408 C415 1.409 . S
C409 H401 0.930 . S
C409 C407 1.419 1_655 S
C409 C410 1.362 . S
C410 H402 0.930 . S
C410 C409 1.362 . S
C410 C413 1.409 . S
C411 H403 0.930 . S
C411 C412 1.355 1_655 S
C411 C413 1.415 . S
C412 C411 1.355 1_455 S
C412 C414 1.419 . S
C413 C408 1.425 1_655 S
C413 C410 1.409 . S
C413 C411 1.415 . S
C414 H404 0.930 . S
C414 C412 1.419 . S
C414 C415 1.362 . S
C415 H405 0.930 . S
C415 C408 1.409 . S
C415 C414 1.362 . S
H416 C422 0.930 . S
H417 C425 0.930 . S
H418 C426 0.930 . S
H419 C427 0.930 . S
H420 C430 0.930 . S
H421 C431 0.930 . S
C422 H416 0.930 . S
C422 C423 1.355 . S
C422 C424 1.415 . S
C423 C422 1.355 . S
C423 C425 1.419 . S
C424 C422 1.415 . S
C424 C429 1.425 . S
C424 C431 1.409 . S
C425 H417 0.930 . S
C425 C423 1.419 . S
C425 C426 1.362 . S
C426 H418 0.930 . S
C426 C425 1.362 . S
C426 C429 1.409 . S
C427 H419 0.930 . S
C427 C428 1.355 . S
C427 C429 1.415 . S
C428 C427 1.355 . S
C428 C430 1.419 . S
C429 C424 1.425 . S
C429 C426 1.409 . S
C429 C427 1.415 . S
C430 H420 0.930 . S
C430 C428 1.419 . S
C430 C431 1.362 . S
C431 H421 0.930 . S
C431 C424 1.409 . S
C431 C430 1.362 . S
H432 C438 0.930 . S
H433 C441 0.930 . S
H434 C442 0.930 . S
H435 C443 0.930 . S
H436 C446 0.930 . S
H437 C447 0.930 . S
C438 H432 0.930 . S
C438 C439 1.355 . S
C438 C440 1.415 . S
C439 C438 1.355 . S
C439 C441 1.419 . S
C440 C438 1.415 . S
C440 C445 1.425 . S
C440 C447 1.409 . S
C441 H433 0.930 . S
C441 C439 1.419 . S
C441 C442 1.362 . S
C442 H434 0.930 . S
C442 C441 1.362 . S
C442 C445 1.409 . S
C443 H435 0.930 . S
C443 C444 1.355 . S
C443 C445 1.415 . S
C444 C443 1.355 . S
C444 C446 1.419 . S
C445 C440 1.425 . S
C445 C442 1.409 . S
C445 C443 1.415 . S
C446 H436 0.930 . S
C446 C444 1.419 . S
C446 C447 1.362 . S
C447 H437 0.930 . S
C447 C440 1.409 . S
C447 C446 1.362 . S
H448 C454 0.930 . S
H449 C457 0.930 . S
H450 C458 0.930 . S
H451 C459 0.930 . S
H452 C462 0.930 . S
H453 C463 0.930 . S
C454 H448 0.930 . S
C454 C455 1.355 . S
C454 C456 1.415 . S
C455 C454 1.355 . S
C455 C457 1.419 . S
C456 C454 1.415 . S
C456 C461 1.425 . S
C456 C463 1.409 . S
C457 H449 0.930 . S
C457 C455 1.419 . S
C457 C458 1.362 . S
C458 H450 0.930 . S
C458 C457 1.362 . S
C458 C461 1.409 . S
C459 H451 0.930 . S
C459 C460 1.355 . S
C459 C461 1.415 . S
C460 C459 1.355 . S
C460 C462 1.419 . S
C461 C456 1.425 . S
C461 C458 1.409 . S
C461 C459 1.415 . S
C462 H452 0.930 . S
C462 C460 1.419 . S
C462 C463 1.362 . S
C463 H453 0.930 . S
C463 C456 1.409 . S
C463 C462 1.362 . S
H464 C470 0.930 . S
H465 C473 0.930 . S
H466 C474 0.930 . S
H467 C475 0.930 . S
H468 C478 0.930 . S
H469 C479 0.930 . S
C470 H464 0.930 . S
C470 C471 1.355 . S
C470 C472 1.415 . S
C471 C470 1.355 . S
C471 C473 1.419 . S
C472 C470 1.415 . S
C472 C477 1.425 . S
C472 C479 1.409 . S
C473 H465 0.930 . S
C473 C471 1.419 . S
C473 C474 1.362 . S
C474 H466 0.930 . S
C474 C473 1.362 . S
C474 C477 1.409 . S
C475 H467 0.930 . S
C475 C476 1.355 . S
C475 C477 1.415 . S
C476 C475 1.355 . S
C476 C478 1.419 . S
C477 C472 1.425 . S
C477 C474 1.409 . S
C477 C475 1.415 . S
C478 H468 0.930 . S
C478 C476 1.419 . S
C478 C479 1.362 . S
C479 H469 0.930 . S
C479 C472 1.409 . S
C479 C478 1.362 . S
H480 C486 0.930 1_545 S
H481 C489 0.930 . S
H482 C490 0.930 . S
H483 C491 0.930 . S
H484 C494 0.930 . S
H485 C495 0.930 . S
C486 H480 0.930 1_565 S
C486 C487 1.355 . S
C486 C488 1.415 . S
C487 C486 1.355 . S
C487 C489 1.419 . S
C488 C486 1.415 . S
C488 C493 1.425 . S
C488 C495 1.409 1_565 S
C489 H481 0.930 . S
C489 C487 1.419 . S
C489 C490 1.362 . S
C490 H482 0.930 . S
C490 C489 1.362 . S
C490 C493 1.409 . S
C491 H483 0.930 . S
C491 C492 1.355 . S
C491 C493 1.415 . S
C492 C491 1.355 . S
C492 C494 1.419 1_565 S
C493 C488 1.425 . S
C493 C490 1.409 . S
C493 C491 1.415 . S
C494 H484 0.930 . S
C494 C492 1.419 1_545 S
C494 C495 1.362 . S
C495 H485 0.930 . S
C495 C488 1.409 1_545 S
C495 C494 1.362 . S
H496 C502 0.930 . S
H497 C505 0.930 . S
H498 C506 0.930 . S
H499 C507 0.930 . S
H500 C510 0.930 . S
H501 C511 0.930 . S
C502 H496 0.930 . S
C502 C503 1.355 . S
C502 C504 1.415 . S
C503 C502 1.355 . S
C503 C505 1.419 . S
C504 C502 1.415 . S
C504 C509 1.425 . S
C504 C511 1.409 . S
C505 H497 0.930 . S
C505 C503 1.419 . S
C505 C506 1.362 . S
C506 H498 0.930 . S
C506 C505 1.362 . S
C506 C509 1.409 . S
C507 H499 0.930 . S
C507 C508 1.355 . S
C507 C509 1.415 . S
C508 C507 1.355 . S
C508 C510 1.419 . S
C509 C504 1.425 . S
C509 C506 1.409 . S
C509 C507 1.415 . S
C510 H500 0.930 . S
C510 C508 1.419 . S
C510 C511 1.362 . S
C511 H501 0.930 . S
C511 C504 1.409 . S
C511 C510 1.362 . S
H512 C518 0.930 . S
H513 C521 0.930 1_554 S
H514 C522 0.930 . S
H515 C523 0.930 1_554 S
H516 C526 0.930 . S
H517 C527 0.930 . S
C518 H512 0.930 . S
C518 C519 1.355 . S
C518 C520 1.415 . S
C519 C518 1.355 . S
C519 C521 1.419 . S
C520 C518 1.415 . S
C520 C525 1.425 . S
C520 C527 1.409 . S
C521 H513 0.930 1_556 S
C521 C519 1.419 . S
C521 C522 1.362 1_556 S
C522 H514 0.930 . S
C522 C521 1.362 1_554 S
C522 C525 1.409 1_554 S
C523 H515 0.930 1_556 S
C523 C524 1.355 . S
C523 C525 1.415 . S
C524 C523 1.355 . S
C524 C526 1.419 . S
C525 C520 1.425 . S
C525 C522 1.409 1_556 S
C525 C523 1.415 . S
C526 H516 0.930 . S
C526 C524 1.419 . S
C526 C527 1.362 . S
C527 H517 0.930 . S
C527 C520 1.409 . S
C527 C526 1.362 . S
H528 C534 0.930 . S
H529 C537 0.930 . S
H530 C538 0.930 . S
H531 C539 0.930 . S
H532 C542 0.930 . S
H533 C543 0.930 . S
C534 H528 0.930 . S
C534 C535 1.355 . S
C534 C536 1.415 . S
C535 C534 1.355 . S
C535 C537 1.419 . S
C536 C534 1.415 . S
C536 C541 1.425 . S
C536 C543 1.409 . S
C537 H529 0.930 . S
C537 C535 1.419 . S
C537 C538 1.362 . S
C538 H530 0.930 . S
C538 C537 1.362 . S
C538 C541 1.409 . S
C539 H531 0.930 . S
C539 C540 1.355 . S
C539 C541 1.415 . S
C540 C539 1.355 . S
C540 C542 1.419 . S
C541 C536 1.425 . S
C541 C538 1.409 . S
C541 C539 1.415 . S
C542 H532 0.930 . S
C542 C540 1.419 . S
C542 C543 1.362 . S
C543 H533 0.930 . S
C543 C536 1.409 . S
C543 C542 1.362 . S
H544 C550 0.930 . S
H545 C553 0.930 . S
H546 C554 0.930 . S
H547 C555 0.930 . S
H548 C558 0.930 . S
H549 C559 0.930 . S
C550 H544 0.930 . S
C550 C551 1.355 . S
C550 C552 1.415 . S
C551 C550 1.355 . S
C551 C553 1.419 . S
C552 C550 1.415 . S
C552 C557 1.425 . S
C552 C559 1.409 . S
C553 H545 0.930 . S
C553 C551 1.419 . S
C553 C554 1.362 . S
C554 H546 0.930 . S
C554 C553 1.362 . S
C554 C557 1.409 . S
C555 H547 0.930 . S
C555 C556 1.355 . S
C555 C557 1.415 . S
C556 C555 1.355 . S
C556 C558 1.419 . S
C557 C552 1.425 . S
C557 C554 1.409 . S
C557 C555 1.415 . S
C558 H548 0.930 . S
C558 C556 1.419 . S
C558 C559 1.362 . S
C559 H549 0.930 . S
C559 C552 1.409 . S
C559 C558 1.362 . S
H560 C566 0.930 . S
H561 C569 0.930 . S
H562 C570 0.930 . S
H563 C571 0.930 . S
H564 C574 0.930 . S
H565 C575 0.930 . S
C566 H560 0.930 . S
C566 C567 1.355 . S
C566 C568 1.415 . S
C567 C566 1.355 . S
C567 C569 1.419 . S
C568 C566 1.415 . S
C568 C573 1.425 . S
C568 C575 1.409 . S
C569 H561 0.930 . S
C569 C567 1.419 . S
C569 C570 1.362 . S
C570 H562 0.930 . S
C570 C569 1.362 . S
C570 C573 1.409 . S
C571 H563 0.930 . S
C571 C572 1.355 . S
C571 C573 1.415 . S
C572 C571 1.355 . S
C572 C574 1.419 . S
C573 C568 1.425 . S
C573 C570 1.409 . S
C573 C571 1.415 . S
C574 H564 0.930 . S
C574 C572 1.419 . S
C574 C575 1.362 . S
C575 H565 0.930 . S
C575 C568 1.409 . S
C575 C574 1.362 . S
H576 C582 0.930 . S
H577 C585 0.930 . S
H578 C586 0.930 . S
H579 C587 0.930 . S
H580 C590 0.930 . S
H581 C591 0.930 . S
C582 H576 0.930 . S
C582 C583 1.355 . S
C582 C584 1.415 . S
C583 C582 1.355 . S
C583 C585 1.419 . S
C584 C582 1.415 . S
C584 C589 1.425 . S
C584 C591 1.409 . S
C585 H577 0.930 . S
C585 C583 1.419 . S
C585 C586 1.362 . S
C586 H578 0.930 . S
C586 C585 1.362 . S
C586 C589 1.409 . S
C587 H579 0.930 . S
C587 C588 1.355 . S
C587 C589 1.415 . S
C588 C587 1.355 . S
C588 C590 1.419 . S
C589 C584 1.425 . S
C589 C586 1.409 . S
C589 C587 1.415 . S
C590 H580 0.930 . S
C590 C588 1.419 . S
C590 C591 1.362 . S
C591 H581 0.930 . S
C591 C584 1.409 . S
C591 C590 1.362 . S
H592 C598 0.930 . S
H593 C601 0.930 . S
H594 C602 0.930 . S
H595 C603 0.930 . S
H596 C606 0.930 . S
H597 C607 0.930 . S
C598 H592 0.930 . S
C598 C599 1.355 . S
C598 C600 1.415 . S
C599 C598 1.355 . S
C599 C601 1.419 . S
C600 C598 1.415 . S
C600 C605 1.425 . S
C600 C607 1.409 . S
C601 H593 0.930 . S
C601 C599 1.419 . S
C601 C602 1.362 . S
C602 H594 0.930 . S
C602 C601 1.362 . S
C602 C605 1.409 . S
C603 H595 0.930 . S
C603 C604 1.355 . S
C603 C605 1.415 . S
C604 C603 1.355 . S
C604 C606 1.419 . S
C605 C600 1.425 . S
C605 C602 1.409 . S
C605 C603 1.415 . S
C606 H596 0.930 . S
C606 C604 1.419 . S
C606 C607 1.362 . S
C607 H597 0.930 . S
C607 C600 1.409 . S
C607 C606 1.362 . S
H608 C614 0.930 . S
H609 C617 0.930 . S
H610 C618 0.930 . S
H611 C619 0.930 . S
H612 C622 0.930 . S
H613 C623 0.930 . S
C614 H608 0.930 . S
C614 C615 1.355 . S
C614 C616 1.415 . S
C615 C614 1.355 . S
C615 C617 1.419 . S
C616 C614 1.415 . S
C616 C621 1.425 . S
C616 C623 1.409 . S
C617 H609 0.930 . S
C617 C615 1.419 . S
C617 C618 1.362 . S
C618 H610 0.930 . S
C618 C617 1.362 . S
C618 C621 1.409 . S
C619 H611 0.930 . S
C619 C620 1.355 . S
C619 C621 1.415 . S
C620 C619 1.355 . S
C620 C622 1.419 . S
C621 C616 1.425 . S
C621 C618 1.409 . S
C621 C619 1.415 . S
C622 H612 0.930 . S
C622 C620 1.419 . S
C622 C623 1.362 . S
C623 H613 0.930 . S
C623 C616 1.409 . S
C623 C622 1.362 . S
H624 C630 0.930 . S
H625 C633 0.930 . S
H626 C634 0.930 . S
H627 C635 0.930 . S
H628 C638 0.930 . S
H629 C639 0.930 . S
C630 H624 0.930 . S
C630 C631 1.355 . S
C630 C632 1.415 . S
C631 C630 1.355 . S
C631 C633 1.419 . S
C632 C630 1.415 . S
C632 C637 1.425 . S
C632 C639 1.409 . S
C633 H625 0.930 . S
C633 C631 1.419 . S
C633 C634 1.362 . S
C634 H626 0.930 . S
C634 C633 1.362 . S
C634 C637 1.409 . S
C635 H627 0.930 . S
C635 C636 1.355 . S
C635 C637 1.415 . S
C636 C635 1.355 . S
C636 C638 1.419 . S
C637 C632 1.425 . S
C637 C634 1.409 . S
C637 C635 1.415 . S
C638 H628 0.930 . S
C638 C636 1.419 . S
C638 C639 1.362 . S
C639 H629 0.930 . S
C639 C632 1.409 . S
C639 C638 1.362 . S
H640 C646 0.930 . S
H641 C649 0.930 . S
H642 C650 0.930 . S
H643 C651 0.930 . S
H644 C654 0.930 . S
H645 C655 0.930 . S
C646 H640 0.930 . S
C646 C647 1.355 . S
C646 C648 1.415 . S
C647 C646 1.355 . S
C647 C649 1.419 . S
C648 C646 1.415 . S
C648 C653 1.425 . S
C648 C655 1.409 . S
C649 H641 0.930 . S
C649 C647 1.419 . S
C649 C650 1.362 . S
C650 H642 0.930 . S
C650 C649 1.362 . S
C650 C653 1.409 . S
C651 H643 0.930 . S
C651 C652 1.355 . S
C651 C653 1.415 . S
C652 C651 1.355 . S
C652 C654 1.419 . S
C653 C648 1.425 . S
C653 C650 1.409 . S
C653 C651 1.415 . S
C654 H644 0.930 . S
C654 C652 1.419 . S
C654 C655 1.362 . S
C655 H645 0.930 . S
C655 C648 1.409 . S
C655 C654 1.362 . S
H656 C662 0.930 . S
H657 C665 0.930 . S
H658 C666 0.930 . S
H659 C667 0.930 . S
H660 C670 0.930 . S
H661 C671 0.930 . S
C662 H656 0.930 . S
C662 C663 1.355 1_455 S
C662 C664 1.415 1_455 S
C663 C662 1.355 1_655 S
C663 C665 1.419 . S
C664 C662 1.415 1_655 S
C664 C669 1.425 . S
C664 C671 1.409 1_655 S
C665 H657 0.930 . S
C665 C663 1.419 . S
C665 C666 1.362 . S
C666 H658 0.930 . S
C666 C665 1.362 . S
C666 C669 1.409 . S
C667 H659 0.930 . S
C667 C668 1.355 . S
C667 C669 1.415 . S
C668 C667 1.355 . S
C668 C670 1.419 1_655 S
C669 C664 1.425 . S
C669 C666 1.409 . S
C669 C667 1.415 . S
C670 H660 0.930 . S
C670 C668 1.419 1_455 S
C670 C671 1.362 . S
C671 H661 0.930 . S
C671 C664 1.409 1_455 S
C671 C670 1.362 . S
H672 C678 0.930 . S
H673 C681 0.930 . S
H674 C682 0.930 . S
H675 C683 0.930 . S
H676 C686 0.930 . S
H677 C687 0.930 . S
C678 H672 0.930 . S
C678 C679 1.355 . S
C678 C680 1.415 . S
C679 C678 1.355 . S
C679 C681 1.419 . S
C680 C678 1.415 . S
C680 C685 1.425 . S
C680 C687 1.409 . S
C681 H673 0.930 . S
C681 C679 1.419 . S
C681 C682 1.362 . S
C682 H674 0.930 . S
C682 C681 1.362 . S
C682 C685 1.409 . S
C683 H675 0.930 . S
C683 C684 1.355 . S
C683 C685 1.415 . S
C684 C683 1.355 . S
C684 C686 1.419 . S
C685 C680 1.425 . S
C685 C682 1.409 . S
C685 C683 1.415 . S
C686 H676 0.930 . S
C686 C684 1.419 . S
C686 C687 1.362 . S
C687 H677 0.930 . S
C687 C680 1.409 . S
C687 C686 1.362 . S
H688 C694 0.930 . S
H689 C697 0.930 . S
H690 C698 0.930 . S
H691 C699 0.930 . S
H692 C702 0.930 . S
H693 C703 0.930 . S
C694 H688 0.930 . S
C694 C695 1.355 . S
C694 C696 1.415 . S
C695 C694 1.355 . S
C695 C697 1.419 . S
C696 C694 1.415 . S
C696 C701 1.425 . S
C696 C703 1.409 . S
C697 H689 0.930 . S
C697 C695 1.419 . S
C697 C698 1.362 . S
C698 H690 0.930 . S
C698 C697 1.362 . S
C698 C701 1.409 . S
C699 H691 0.930 . S
C699 C700 1.355 . S
C699 C701 1.415 . S
C700 C699 1.355 . S
C700 C702 1.419 . S
C701 C696 1.425 . S
C701 C698 1.409 . S
C701 C699 1.415 . S
C702 H692 0.930 . S
C702 C700 1.419 . S
C702 C703 1.362 . S
C703 H693 0.930 . S
C703 C696 1.409 . S
C703 C702 1.362 . S
H704 C710 0.930 . S
H705 C713 0.930 . S
H706 C714 0.930 . S
H707 C715 0.930 . S
H708 C718 0.930 . S
H709 C719 0.930 . S
C710 H704 0.930 . S
C710 C711 1.355 . S
C710 C712 1.415 . S
C711 C710 1.355 . S
C711 C713 1.419 . S
C712 C710 1.415 . S
C712 C717 1.425 . S
C712 C719 1.409 . S
C713 H705 0.930 . S
C713 C711 1.419 . S
C713 C714 1.362 . S
C714 H706 0.930 . S
C714 C713 1.362 . S
C714 C717 1.409 . S
C715 H707 0.930 . S
C715 C716 1.355 . S
C715 C717 1.415 . S
C716 C715 1.355 . S
C716 C718 1.419 . S
C717 C712 1.425 . S
C717 C714 1.409 . S
C717 C715 1.415 . S
C718 H708 0.930 . S
C718 C716 1.419 . S
C718 C719 1.362 . S
C719 H709 0.930 . S
C719 C712 1.409 . S
C719 C718 1.362 . S
H720 C726 0.930 . S
H721 C729 0.930 . S
H722 C730 0.930 . S
H723 C731 0.930 . S
H724 C734 0.930 . S
H725 C735 0.930 . S
C726 H720 0.930 . S
C726 C727 1.355 . S
C726 C728 1.415 . S
C727 C726 1.355 . S
C727 C729 1.419 . S
C728 C726 1.415 . S
C728 C733 1.425 . S
C728 C735 1.409 . S
C729 H721 0.930 . S
C729 C727 1.419 . S
C729 C730 1.362 . S
C730 H722 0.930 . S
C730 C729 1.362 . S
C730 C733 1.409 . S
C731 H723 0.930 . S
C731 C732 1.355 . S
C731 C733 1.415 . S
C732 C731 1.355 . S
C732 C734 1.419 . S
C733 C728 1.425 . S
C733 C730 1.409 . S
C733 C731 1.415 . S
C734 H724 0.930 . S
C734 C732 1.419 . S
C734 C735 1.362 . S
C735 H725 0.930 . S
C735 C728 1.409 . S
C735 C734 1.362 . S
H736 C742 0.930 . S
H737 C745 0.930 . S
H738 C746 0.930 . S
H739 C747 0.930 . S
H740 C750 0.930 . S
H741 C751 0.930 . S
C742 H736 0.930 . S
C742 C743 1.355 . S
C742 C744 1.415 . S
C743 C742 1.355 . S
C743 C745 1.419 . S
C744 C742 1.415 . S
C744 C749 1.425 . S
C744 C751 1.409 . S
C745 H737 0.930 . S
C745 C743 1.419 . S
C745 C746 1.362 . S
C746 H738 0.930 . S
C746 C745 1.362 . S
C746 C749 1.409 . S
C747 H739 0.930 . S
C747 C748 1.355 . S
C747 C749 1.415 . S
C748 C747 1.355 . S
C748 C750 1.419 . S
C749 C744 1.425 . S
C749 C746 1.409 . S
C749 C747 1.415 . S
C750 H740 0.930 . S
C750 C748 1.419 . S
C750 C751 1.362 . S
C751 H741 0.930 . S
C751 C744 1.409 . S
C751 C750 1.362 . S
H752 C758 0.930 . S
H753 C761 0.930 . S
H754 C762 0.930 . S
H755 C763 0.930 . S
H756 C766 0.930 . S
H757 C767 0.930 . S
C758 H752 0.930 . S
C758 C759 1.355 1_556 S
C758 C760 1.404 1_556 S
C759 C758 1.355 1_554 S
C759 C761 1.419 . S
C760 C758 1.404 1_554 S
C760 C765 1.458 . S
C760 C767 1.390 1_554 S
C761 H753 0.930 . S
C761 C759 1.419 . S
C761 C762 1.362 . S
C762 H754 0.930 . S
C762 C761 1.362 . S
C762 C765 1.409 . S
C763 H755 0.930 . S
C763 C764 1.355 . S
C763 C765 1.415 . S
C764 C763 1.355 . S
C764 C766 1.419 1_554 S
C765 C760 1.458 . S
C765 C762 1.409 . S
C765 C763 1.415 . S
C766 H756 0.930 . S
C766 C764 1.419 1_556 S
C766 C767 1.362 . S
C767 H757 0.930 . S
C767 C760 1.390 1_556 S
C767 C766 1.362 . S
H768 C774 0.930 . S
H769 C777 0.930 . S
H770 C778 0.930 . S
H771 C779 0.930 . S
H772 C782 0.930 . S
H773 C783 0.930 . S
C774 H768 0.930 . S
C774 C775 1.355 . S
C774 C776 1.415 . S
C775 C774 1.355 . S
C775 C777 1.419 . S
C776 C774 1.415 . S
C776 C781 1.425 . S
C776 C783 1.409 . S
C777 H769 0.930 . S
C777 C775 1.419 . S
C777 C778 1.362 . S
C778 H770 0.930 . S
C778 C777 1.362 . S
C778 C781 1.409 . S
C779 H771 0.930 . S
C779 C780 1.355 . S
C779 C781 1.415 . S
C780 C779 1.355 . S
C780 C782 1.419 . S
C781 C776 1.425 . S
C781 C778 1.409 . S
C781 C779 1.415 . S
C782 H772 0.930 . S
C782 C780 1.419 . S
C782 C783 1.362 . S
C783 H773 0.930 . S
C783 C776 1.409 . S
C783 C782 1.362 . S
H784 C790 0.930 . S
H785 C793 0.930 . S
H786 C794 0.930 . S
H787 C795 0.930 . S
H788 C798 0.930 . S
H789 C799 0.930 . S
C790 H784 0.930 . S
C790 C791 1.355 . S
C790 C792 1.415 . S
C791 C790 1.355 . S
C791 C793 1.419 . S
C792 C790 1.415 . S
C792 C797 1.425 . S
C792 C799 1.409 . S
C793 H785 0.930 . S
C793 C791 1.419 . S
C793 C794 1.362 . S
C794 H786 0.930 . S
C794 C793 1.362 . S
C794 C797 1.409 . S
C795 H787 0.930 . S
C795 C796 1.355 . S
C795 C797 1.415 . S
C796 C795 1.355 . S
C796 C798 1.419 . S
C797 C792 1.425 . S
C797 C794 1.409 . S
C797 C795 1.415 . S
C798 H788 0.930 . S
C798 C796 1.419 . S
C798 C799 1.362 . S
C799 H789 0.930 . S
C799 C792 1.409 . S
C799 C798 1.362 . S
H800 C806 0.930 . S
H801 C809 0.930 . S
H802 C810 0.930 . S
H803 C811 0.930 . S
H804 C814 0.930 . S
H805 C815 0.930 . S
C806 H800 0.930 . S
C806 C807 1.355 . S
C806 C808 1.415 . S
C807 C806 1.355 . S
C807 C809 1.419 . S
C808 C806 1.415 . S
C808 C813 1.425 . S
C808 C815 1.409 . S
C809 H801 0.930 . S
C809 C807 1.419 . S
C809 C810 1.362 . S
C810 H802 0.930 . S
C810 C809 1.362 . S
C810 C813 1.409 . S
C811 H803 0.930 . S
C811 C812 1.355 . S
C811 C813 1.415 . S
C812 C811 1.355 . S
C812 C814 1.419 . S
C813 C808 1.425 . S
C813 C810 1.409 . S
C813 C811 1.415 . S
C814 H804 0.930 . S
C814 C812 1.419 . S
C814 C815 1.362 . S
C815 H805 0.930 . S
C815 C808 1.409 . S
C815 C814 1.362 . S
H816 C822 0.930 . S
H817 C825 0.930 . S
H818 C826 0.930 . S
H819 C827 0.930 . S
H820 C830 0.930 . S
H821 C831 0.930 . S
C822 H816 0.930 . S
C822 C823 1.355 . S
C822 C824 1.415 . S
C823 C822 1.355 . S
C823 C825 1.419 . S
C824 C822 1.415 . S
C824 C829 1.425 . S
C824 C831 1.409 . S
C825 H817 0.930 . S
C825 C823 1.419 . S
C825 C826 1.362 . S
C826 H818 0.930 . S
C826 C825 1.362 . S
C826 C829 1.409 . S
C827 H819 0.930 . S
C827 C828 1.355 . S
C827 C829 1.415 . S
C828 C827 1.355 . S
C828 C830 1.419 . S
C829 C824 1.425 . S
C829 C826 1.409 . S
C829 C827 1.415 . S
C830 H820 0.930 . S
C830 C828 1.419 . S
C830 C831 1.362 . S
C831 H821 0.930 . S
C831 C824 1.409 . S
C831 C830 1.362 . S
H832 C838 0.930 . S
H833 C841 0.930 . S
H834 C842 0.930 . S
H835 C843 0.930 . S
H836 C846 0.930 . S
H837 C847 0.930 . S
C838 H832 0.930 . S
C838 C839 1.355 . S
C838 C840 1.415 . S
C839 C838 1.355 . S
C839 C841 1.419 . S
C840 C838 1.415 . S
C840 C845 1.425 . S
C840 C847 1.409 . S
C841 H833 0.930 . S
C841 C839 1.419 . S
C841 C842 1.362 . S
C842 H834 0.930 . S
C842 C841 1.362 . S
C842 C845 1.409 . S
C843 H835 0.930 . S
C843 C844 1.355 . S
C843 C845 1.415 . S
C844 C843 1.355 . S
C844 C846 1.419 . S
C845 C840 1.425 . S
C845 C842 1.409 . S
C845 C843 1.415 . S
C846 H836 0.930 . S
C846 C844 1.419 . S
C846 C847 1.362 . S
C847 H837 0.930 . S
C847 C840 1.409 . S
C847 C846 1.362 . S
H848 C854 0.930 . S
H849 C857 0.930 . S
H850 C858 0.930 . S
H851 C859 0.930 . S
H852 C862 0.930 . S
H853 C863 0.930 . S
C854 H848 0.930 . S
C854 C855 1.355 . S
C854 C856 1.415 . S
C855 C854 1.355 . S
C855 C857 1.419 . S
C856 C854 1.415 . S
C856 C861 1.425 . S
C856 C863 1.409 . S
C857 H849 0.930 . S
C857 C855 1.419 . S
C857 C858 1.362 . S
C858 H850 0.930 . S
C858 C857 1.362 . S
C858 C861 1.409 . S
C859 H851 0.930 . S
C859 C860 1.355 . S
C859 C861 1.415 . S
C860 C859 1.355 . S
C860 C862 1.419 . S
C861 C856 1.425 . S
C861 C858 1.409 . S
C861 C859 1.415 . S
C862 H852 0.930 . S
C862 C860 1.419 . S
C862 C863 1.362 . S
C863 H853 0.930 . S
C863 C856 1.409 . S
C863 C862 1.362 . S
H864 C870 0.930 . S
H865 C873 0.930 . S
H866 C874 0.930 . S
H867 C875 0.930 . S
H868 C878 0.930 . S
H869 C879 0.930 . S
C870 H864 0.930 . S
C870 C871 1.355 . S
C870 C872 1.415 . S
C871 C870 1.355 . S
C871 C873 1.419 . S
C872 C870 1.415 . S
C872 C877 1.425 . S
C872 C879 1.409 . S
C873 H865 0.930 . S
C873 C871 1.419 . S
C873 C874 1.362 . S
C874 H866 0.930 . S
C874 C873 1.362 . S
C874 C877 1.409 . S
C875 H867 0.930 . S
C875 C876 1.355 . S
C875 C877 1.415 . S
C876 C875 1.355 . S
C876 C878 1.419 . S
C877 C872 1.425 . S
C877 C874 1.409 . S
C877 C875 1.415 . S
C878 H868 0.930 . S
C878 C876 1.419 . S
C878 C879 1.362 . S
C879 H869 0.930 . S
C879 C872 1.409 . S
C879 C878 1.362 . S
H880 C886 0.930 . S
H881 C889 0.930 . S
H882 C890 0.930 . S
H883 C891 0.930 . S
H884 C894 0.930 . S
H885 C895 0.930 . S
C886 H880 0.930 . S
C886 C887 1.355 . S
C886 C888 1.415 . S
C887 C886 1.355 . S
C887 C889 1.419 . S
C888 C886 1.415 . S
C888 C893 1.425 . S
C888 C895 1.409 . S
C889 H881 0.930 . S
C889 C887 1.419 . S
C889 C890 1.362 . S
C890 H882 0.930 . S
C890 C889 1.362 . S
C890 C893 1.409 . S
C891 H883 0.930 . S
C891 C892 1.355 . S
C891 C893 1.415 . S
C892 C891 1.355 . S
C892 C894 1.419 . S
C893 C888 1.425 . S
C893 C890 1.409 . S
C893 C891 1.415 . S
C894 H884 0.930 . S
C894 C892 1.419 . S
C894 C895 1.362 . S
C895 H885 0.930 . S
C895 C888 1.409 . S
C895 C894 1.362 . S
H896 C902 0.930 . S
H897 C905 0.930 . S
H898 C906 0.930 . S
H899 C907 0.930 . S
H900 C910 0.930 . S
H901 C911 0.930 . S
C902 H896 0.930 . S
C902 C903 1.355 . S
C902 C904 1.415 . S
C903 C902 1.355 . S
C903 C905 1.419 . S
C904 C902 1.415 . S
C904 C909 1.425 . S
C904 C911 1.409 . S
C905 H897 0.930 . S
C905 C903 1.419 . S
C905 C906 1.362 . S
C906 H898 0.930 . S
C906 C905 1.362 . S
C906 C909 1.409 . S
C907 H899 0.930 . S
C907 C908 1.355 . S
C907 C909 1.415 . S
C908 C907 1.355 . S
C908 C910 1.419 . S
C909 C904 1.425 . S
C909 C906 1.409 . S
C909 C907 1.415 . S
C910 H900 0.930 . S
C910 C908 1.419 . S
C910 C911 1.362 . S
C911 H901 0.930 . S
C911 C904 1.409 . S
C911 C910 1.362 . S
H912 C918 0.930 . S
H913 C921 0.930 . S
H914 C922 0.930 . S
H915 C923 0.930 . S
H916 C926 0.930 . S
H917 C927 0.930 . S
C918 H912 0.930 . S
C918 C919 1.355 . S
C918 C920 1.415 . S
C919 C918 1.355 . S
C919 C921 1.419 . S
C920 C918 1.415 . S
C920 C925 1.425 . S
C920 C927 1.409 1_554 S
C921 H913 0.930 . S
C921 C919 1.419 . S
C921 C922 1.362 . S
C922 H914 0.930 . S
C922 C921 1.362 . S
C922 C925 1.409 . S
C923 H915 0.930 . S
C923 C924 1.355 . S
C923 C925 1.415 . S
C924 C923 1.355 . S
C924 C926 1.419 1_554 S
C925 C920 1.425 . S
C925 C922 1.409 . S
C925 C923 1.415 . S
C926 H916 0.930 . S
C926 C924 1.419 1_556 S
C926 C927 1.362 . S
C927 H917 0.930 . S
C927 C920 1.409 1_556 S
C927 C926 1.362 . S
H928 C934 0.930 . S
H929 C937 0.930 . S
H930 C938 0.930 . S
H931 C939 0.930 . S
H932 C942 0.930 . S
H933 C943 0.930 . S
C934 H928 0.930 . S
C934 C935 1.355 . S
C934 C936 1.415 . S
C935 C934 1.355 . S
C935 C937 1.419 . S
C936 C934 1.415 . S
C936 C941 1.425 . S
C936 C943 1.409 . S
C937 H929 0.930 . S
C937 C935 1.419 . S
C937 C938 1.362 . S
C938 H930 0.930 . S
C938 C937 1.362 . S
C938 C941 1.409 . S
C939 H931 0.930 . S
C939 C940 1.355 . S
C939 C941 1.415 . S
C940 C939 1.355 . S
C940 C942 1.419 . S
C941 C936 1.425 . S
C941 C938 1.409 . S
C941 C939 1.415 . S
C942 H932 0.930 . S
C942 C940 1.419 . S
C942 C943 1.362 . S
C943 H933 0.930 . S
C943 C936 1.409 . S
C943 C942 1.362 . S
H944 C950 0.930 . S
H945 C953 0.930 . S
H946 C954 0.930 . S
H947 C955 0.930 . S
H948 C958 0.930 . S
H949 C959 0.930 . S
C950 H944 0.930 . S
C950 C951 1.355 . S
C950 C952 1.415 . S
C951 C950 1.355 . S
C951 C953 1.419 . S
C952 C950 1.415 . S
C952 C957 1.425 . S
C952 C959 1.409 . S
C953 H945 0.930 . S
C953 C951 1.419 . S
C953 C954 1.362 . S
C954 H946 0.930 . S
C954 C953 1.362 . S
C954 C957 1.409 . S
C955 H947 0.930 . S
C955 C956 1.355 . S
C955 C957 1.415 . S
C956 C955 1.355 . S
C956 C958 1.419 . S
C957 C952 1.425 . S
C957 C954 1.409 . S
C957 C955 1.415 . S
C958 H948 0.930 . S
C958 C956 1.419 . S
C958 C959 1.362 . S
C959 H949 0.930 . S
C959 C952 1.409 . S
C959 C958 1.362 . S
H960 C966 0.930 . S
H961 C969 0.930 . S
H962 C970 0.930 . S
H963 C971 0.930 . S
H964 C974 0.930 . S
H965 C975 0.930 . S
C966 H960 0.930 . S
C966 C967 1.355 . S
C966 C968 1.415 . S
C967 C966 1.355 . S
C967 C969 1.419 . S
C968 C966 1.415 . S
C968 C973 1.425 . S
C968 C975 1.409 . S
C969 H961 0.930 . S
C969 C967 1.419 . S
C969 C970 1.362 . S
C970 H962 0.930 . S
C970 C969 1.362 . S
C970 C973 1.409 . S
C971 H963 0.930 . S
C971 C972 1.355 . S
C971 C973 1.415 . S
C972 C971 1.355 . S
C972 C974 1.419 . S
C973 C968 1.425 . S
C973 C970 1.409 . S
C973 C971 1.415 . S
C974 H964 0.930 . S
C974 C972 1.419 . S
C974 C975 1.362 . S
C975 H965 0.930 . S
C975 C968 1.409 . S
C975 C974 1.362 . S
H976 C982 0.930 . S
H977 C985 0.930 . S
H978 C986 0.930 . S
H979 C987 0.930 . S
H980 C990 0.930 . S
H981 C991 0.930 . S
C982 H976 0.930 . S
C982 C983 1.355 . S
C982 C984 1.415 . S
C983 C982 1.355 . S
C983 C985 1.419 . S
C984 C982 1.415 . S
C984 C989 1.425 . S
C984 C991 1.409 . S
C985 H977 0.930 . S
C985 C983 1.419 . S
C985 C986 1.362 . S
C986 H978 0.930 . S
C986 C985 1.362 . S
C986 C989 1.409 . S
C987 H979 0.930 . S
C987 C988 1.355 . S
C987 C989 1.415 . S
C988 C987 1.355 . S
C988 C990 1.419 . S
C989 C984 1.425 . S
C989 C986 1.409 . S
C989 C987 1.415 . S
C990 H980 0.930 . S
C990 C988 1.419 . S
C990 C991 1.362 . S
C991 H981 0.930 . S
C991 C984 1.409 . S
C991 C990 1.362 . S
H992 C998 0.930 . S
H993 C1001 0.930 1_554 S
H994 C1002 0.930 1_554 S
H995 C1003 0.930 . S
H996 C1006 0.930 . S
H997 C1007 0.930 . S
C998 H992 0.930 . S
C998 C999 1.355 . S
C998 C1000 1.415 . S
C999 C998 1.355 . S
C999 C1001 1.419 . S
C1000 C998 1.415 . S
C1000 C1005 1.425 . S
C1000 C1007 1.409 . S
C1001 H993 0.930 1_556 S
C1001 C999 1.419 . S
C1001 C1002 1.362 . S
C1002 H994 0.930 1_556 S
C1002 C1001 1.362 . S
C1002 C1005 1.409 . S
C1003 H995 0.930 . S
C1003 C1004 1.355 . S
C1003 C1005 1.415 . S
C1004 C1003 1.355 . S
C1004 C1006 1.419 . S
C1005 C1000 1.425 . S
C1005 C1002 1.409 . S
C1005 C1003 1.415 . S
C1006 H996 0.930 . S
C1006 C1004 1.419 . S
C1006 C1007 1.362 . S
C1007 H997 0.930 . S
C1007 C1000 1.409 . S
C1007 C1006 1.362 . S
H1008 C1014 0.930 . S
H1009 C1017 0.930 . S
H1010 C1018 0.930 . S
H1011 C1019 0.930 . S
H1012 C1022 0.930 . S
H1013 C1023 0.930 . S
C1014 H1008 0.930 . S
C1014 C1015 1.355 . S
C1014 C1016 1.415 . S
C1015 C1014 1.355 . S
C1015 C1017 1.419 . S
C1016 C1014 1.415 . S
C1016 C1021 1.425 . S
C1016 C1023 1.409 . S
C1017 H1009 0.930 . S
C1017 C1015 1.419 . S
C1017 C1018 1.362 . S
C1018 H1010 0.930 . S
C1018 C1017 1.362 . S
C1018 C1021 1.409 . S
C1019 H1011 0.930 . S
C1019 C1020 1.355 . S
C1019 C1021 1.415 . S
C1020 C1019 1.355 . S
C1020 C1022 1.419 . S
C1021 C1016 1.425 . S
C1021 C1018 1.409 . S
C1021 C1019 1.415 . S
C1022 H1012 0.930 . S
C1022 C1020 1.419 . S
C1022 C1023 1.362 . S
C1023 H1013 0.930 . S
C1023 C1016 1.409 . S
C1023 C1022 1.362 . S
H1024 C1030 0.930 . S
H1025 C1033 0.930 . S
H1026 C1034 0.930 . S
H1027 C1035 0.930 . S
H1028 C1038 0.930 . S
H1029 C1039 0.930 . S
C1030 H1024 0.930 . S
C1030 C1031 1.355 . S
C1030 C1032 1.415 . S
C1031 C1030 1.355 . S
C1031 C1033 1.419 . S
C1032 C1030 1.415 . S
C1032 C1037 1.425 . S
C1032 C1039 1.409 . S
C1033 H1025 0.930 . S
C1033 C1031 1.419 . S
C1033 C1034 1.362 . S
C1034 H1026 0.930 . S
C1034 C1033 1.362 . S
C1034 C1037 1.409 . S
C1035 H1027 0.930 . S
C1035 C1036 1.355 . S
C1035 C1037 1.415 . S
C1036 C1035 1.355 . S
C1036 C1038 1.419 . S
C1037 C1032 1.425 . S
C1037 C1034 1.409 . S
C1037 C1035 1.415 . S
C1038 H1028 0.930 . S
C1038 C1036 1.419 . S
C1038 C1039 1.362 . S
C1039 H1029 0.930 . S
C1039 C1032 1.409 . S
C1039 C1038 1.362 . S
H1040 C1046 0.930 . S
H1041 C1049 0.930 . S
H1042 C1050 0.930 . S
H1043 C1051 0.930 . S
H1044 C1054 0.930 . S
H1045 C1055 0.930 . S
C1046 H1040 0.930 . S
C1046 C1047 1.355 . S
C1046 C1048 1.415 . S
C1047 C1046 1.355 . S
C1047 C1049 1.419 . S
C1048 C1046 1.415 . S
C1048 C1053 1.425 . S
C1048 C1055 1.409 . S
C1049 H1041 0.930 . S
C1049 C1047 1.419 . S
C1049 C1050 1.362 . S
C1050 H1042 0.930 . S
C1050 C1049 1.362 . S
C1050 C1053 1.409 . S
C1051 H1043 0.930 . S
C1051 C1052 1.355 . S
C1051 C1053 1.415 . S
C1052 C1051 1.355 . S
C1052 C1054 1.419 . S
C1053 C1048 1.425 . S
C1053 C1050 1.409 . S
C1053 C1051 1.415 . S
C1054 H1044 0.930 . S
C1054 C1052 1.419 . S
C1054 C1055 1.362 . S
C1055 H1045 0.930 . S
C1055 C1048 1.409 . S
C1055 C1054 1.362 . S
H1056 C1062 0.930 . S
H1057 C1065 0.930 . S
H1058 C1066 0.930 . S
H1059 C1067 0.930 . S
H1060 C1070 0.930 . S
H1061 C1071 0.930 . S
C1062 H1056 0.930 . S
C1062 C1063 1.355 . S
C1062 C1064 1.415 . S
C1063 C1062 1.355 . S
C1063 C1065 1.419 . S
C1064 C1062 1.415 . S
C1064 C1069 1.425 . S
C1064 C1071 1.409 . S
C1065 H1057 0.930 . S
C1065 C1063 1.419 . S
C1065 C1066 1.362 . S
C1066 H1058 0.930 . S
C1066 C1065 1.362 . S
C1066 C1069 1.409 . S
C1067 H1059 0.930 . S
C1067 C1068 1.355 . S
C1067 C1069 1.415 . S
C1068 C1067 1.355 . S
C1068 C1070 1.419 . S
C1069 C1064 1.425 . S
C1069 C1066 1.409 . S
C1069 C1067 1.415 . S
C1070 H1060 0.930 . S
C1070 C1068 1.419 . S
C1070 C1071 1.362 . S
C1071 H1061 0.930 . S
C1071 C1064 1.409 . S
C1071 C1070 1.362 . S
H1072 C1078 0.930 . S
H1073 C1081 0.930 . S
H1074 C1082 0.930 . S
H1075 C1083 0.930 . S
H1076 C1086 0.930 . S
H1077 C1087 0.930 . S
C1078 H1072 0.930 . S
C1078 C1079 1.355 . S
C1078 C1080 1.415 . S
C1079 C1078 1.355 . S
C1079 C1081 1.419 . S
C1080 C1078 1.415 . S
C1080 C1085 1.425 . S
C1080 C1087 1.409 . S
C1081 H1073 0.930 . S
C1081 C1079 1.419 . S
C1081 C1082 1.362 . S
C1082 H1074 0.930 . S
C1082 C1081 1.362 . S
C1082 C1085 1.409 . S
C1083 H1075 0.930 . S
C1083 C1084 1.355 . S
C1083 C1085 1.415 . S
C1084 C1083 1.355 . S
C1084 C1086 1.419 . S
C1085 C1080 1.425 . S
C1085 C1082 1.409 . S
C1085 C1083 1.415 . S
C1086 H1076 0.930 . S
C1086 C1084 1.419 . S
C1086 C1087 1.362 . S
C1087 H1077 0.930 . S
C1087 C1080 1.409 . S
C1087 C1086 1.362 . S
C327 C19 1.035 . S
C332 C21 1.052 . S
C343 C59 1.331 . S
C348 C38 1.309 . S
C359 C78 1.486 . S
C364 C49 1.431 . S
C375 C9 1.109 . S
C380 C61 1.155 . S
C391 C8 1.119 . S
C396 C182 1.164 . S
C407 C158 1.023 . S
C412 C22 0.978 . S
C423 C58 1.320 . S
C428 C219 1.334 . S
C439 C79 1.463 . S
C444 C268 1.438 . S
C455 C178 1.320 . S
C460 C39 1.330 . S
C471 C259 1.482 . S
C476 C48 1.487 . S
C487 C288 1.180 . S
C492 C62 1.111 . S
C503 C18 1.028 . S
C508 C222 0.970 . S
C519 C1 0.553 . S
C524 C162 0.454 . S
C535 C249 1.188 . S
C540 C88 1.244 . S
C551 C101 0.567 . S
C556 C282 0.467 . S
C567 C228 1.182 . S
C572 C129 1.248 . S
C583 C41 0.460 . S
C588 C142 0.564 . S
C599 C188 1.249 . S
C604 C89 1.181 . S
C615 C128 1.250 . S
C620 C209 1.181 . S
C631 C118 1.323 . S
C636 C239 1.335 . S
C647 C199 1.459 . S
C652 C108 1.447 . S
C663 C221 0.967 . S
C668 C159 1.024 . S
C679 C119 1.328 . S
C684 C98 1.328 . S
C695 C198 1.477 . S
C700 C169 1.488 . S
C711 C279 1.327 . S
C716 C238 1.313 . S
C727 C138 1.477 . S
C732 C109 1.429 . S
C743 C181 1.168 . S
C748 C289 1.123 . S
C759 C261 0.511 . S
C764 C2 0.498 . S
C775 C42 0.470 . S
C780 C281 0.530 . S
C791 C248 1.208 . S
C796 C29 1.221 . S
C807 C141 0.560 . S
C812 C102 0.455 . S
C823 C69 1.195 . S
C828 C208 1.237 . S
C839 C258 1.457 . S
C844 C269 1.459 . S
C855 C149 1.111 . S
C860 C241 1.091 . S
C871 C122 1.080 . S
C876 C148 1.121 . S
C887 C99 1.320 . S
C892 C278 1.323 . S
C903 C242 1.092 . S
C908 C308 1.110 . S
C919 C302 0.546 . S
C924 C161 0.532 . S
C935 C28 1.239 . S
C940 C189 1.193 . S
C951 C168 1.470 . S
C956 C139 1.497 . S
C967 C179 1.326 . S
C972 C218 1.331 . S
C983 C309 1.107 . S
C988 C121 1.098 . S
C999 C262 0.512 . S
C1004 C301 0.555 . S
C1015 C229 1.182 . S
C1020 C68 1.248 . S
C1031 C201 1.041 . S
C1036 C299 1.037 . S
C1047 C202 1.003 . S
C1052 C318 1.024 . S
C1063 C82 1.014 . S
C1068 C298 1.036 . S
C1079 C319 1.031 . S
C1084 C81 0.978 . S
