# Generated by pormake.
# Topology fnt, (5)-cn, num edge types: 1
# Building blocks:
#     Node 0, Type 0, BuildingBlock: XOMCOT_clean_sbu_1, # of connection points: 5
#     Node 1, Type 0, BuildingBlock: XOMCOT_clean_sbu_1, # of connection points: 5
#     Node 2, Type 0, BuildingBlock: XOMCOT_clean_sbu_1, # of connection points: 5
#     Node 3, Type 0, BuildingBlock: XOMCOT_clean_sbu_1, # of connection points: 5
#     Node 4, Type 0, BuildingBlock: XOMCOT_clean_sbu_1, # of connection points: 5
#     Node 5, Type 0, BuildingBlock: XOMCOT_clean_sbu_1, # of connection points: 5
#     Edge 6, Type (0, 0), BuildingBlock: EZIPEK_clean_linker_0, # of connection points: 2
#     Edge 7, Type (0, 0), BuildingBlock: EZIPEK_clean_linker_0, # of connection points: 2
#     Edge 8, Type (0, 0), BuildingBlock: EZIPEK_clean_linker_0, # of connection points: 2
#     Edge 9, Type (0, 0), BuildingBlock: EZIPEK_clean_linker_0, # of connection points: 2
#     Edge 10, Type (0, 0), BuildingBlock: EZIPEK_clean_linker_0, # of connection points: 2
#     Edge 11, Type (0, 0), BuildingBlock: EZIPEK_clean_linker_0, # of connection points: 2
#     Edge 12, Type (0, 0), BuildingBlock: EZIPEK_clean_linker_0, # of connection points: 2
#     Edge 13, Type (0, 0), BuildingBlock: EZIPEK_clean_linker_0, # of connection points: 2
#     Edge 14, Type (0, 0), BuildingBlock: EZIPEK_clean_linker_0, # of connection points: 2
#     Edge 15, Type (0, 0), BuildingBlock: EZIPEK_clean_linker_0, # of connection points: 2
#     Edge 16, Type (0, 0), BuildingBlock: EZIPEK_clean_linker_0, # of connection points: 2
#     Edge 17, Type (0, 0), BuildingBlock: EZIPEK_clean_linker_0, # of connection points: 2
#     Edge 18, Type (0, 0), BuildingBlock: EZIPEK_clean_linker_0, # of connection points: 2
#     Edge 19, Type (0, 0), BuildingBlock: EZIPEK_clean_linker_0, # of connection points: 2
#     Edge 20, Type (0, 0), BuildingBlock: EZIPEK_clean_linker_0, # of connection points: 2
# Relax obj value: 0.136
# Max RMSD: 0.165
# Mean RMSD: 0.165
data_MOF--net-fnt--node1-XOMCOT_clean_sbu_1--edge1-EZIPEK_clean_linker_0
_symmetry_space_group_name_H-M    P1
_symmetry_Int_Tables_number       1
_symmetry_cell_setting            triclinic
loop_
_symmetry_equiv_pos_as_xyz
'x, y, z'
_cell_length_a     20.631439
_cell_length_b     20.64489
_cell_length_c     36.746788
_cell_angle_alpha  90.01575
_cell_angle_beta   89.630116
_cell_angle_gamma 120.22903
loop_
_atom_site_label
_atom_site_type_symbol
_atom_site_fract_x
_atom_site_fract_y
_atom_site_fract_z
_atom_type_partial_charge
C0 C 0.20336 0.40615 0.10757 0.0
C1 C 0.18808 0.4143 0.14326 0.0
N2 N 0.16533 0.34885 0.16046 0.0
N3 N 0.18837 0.33532 0.10201 0.0
C4 C 0.16911 0.30308 0.13536 0.0
H5 H 0.22088 0.44824 0.08645 0.0
Co6 Co 0.19235 0.29679 0.05585 0.0
C7 C 0.05895 0.14542 0.08908 0.0
O8 O 0.03472 0.17082 0.11548 0.0
N9 N 0.19618 0.25753 1.00985 0.0
C10 C 0.15816 0.18512 0.96054 0.0
C11 C 0.1365 0.19972 0.99345 0.0
C12 C 0.25333 0.27816 0.98578 0.0
N13 N 0.23151 0.23422 0.95592 0.0
O14 O 0.28003 0.29396 0.07144 0.0
H15 H 0.08004 0.17044 1.00439 0.0
H16 H 0.30899 0.32553 0.98938 0.0
O17 O 0.11627 0.19071 0.06965 0.0
C18 C 0.32869 0.36332 0.06495 0.0
O19 O 0.30607 0.4059 0.04966 0.0
N20 N 0.11967 0.31674 1.03861 0.0
C21 C 0.07102 0.41839 1.02964 0.0
C22 C 0.0293 0.35411 0.05125 0.0
C23 C 0.05561 0.30402 0.05591 0.0
C24 C 0.15395 0.37317 1.01365 0.0
C25 C 0.13124 0.42532 1.00914 0.0
H26 H 0.03003 0.26162 0.07651 0.0
H27 H 0.2058 0.38449 1.00076 0.0
H28 H 0.15638 0.24662 0.14122 0.0
H29 H 0.18861 0.46263 0.15505 0.0
H30 H 0.12282 0.1424 0.94122 0.0
H31 H 0.98227 0.34749 0.06746 0.0
H32 H 0.16452 0.47421 0.99219 0.0
C33 C 0.81378 0.23499 0.44747 0.0
C34 C 0.78927 0.21741 0.483 0.0
N35 N 0.81763 0.17675 0.49694 0.0
N36 N 0.85812 0.20626 0.43908 0.0
C37 C 0.85979 0.1715 0.47007 0.0
H38 H 0.79735 0.26396 0.42846 0.0
Co39 Co 0.8961 0.20604 0.39195 0.0
C40 C 0.9093 0.06736 0.40755 0.0
O41 O 0.84025 0.02163 0.39736 0.0
N42 N 0.93589 0.2043 0.34487 0.0
C43 C 0.95994 0.15834 0.2948 0.0
C44 C 0.92171 0.14084 0.32728 0.0
C45 C 0.98187 0.25988 0.32162 0.0
N46 N 0.99797 0.23312 0.2914 0.0
O47 O 0.98765 0.29699 0.40426 0.0
H48 H 0.88436 0.08465 0.33682 0.0
H49 H 1.00113 0.31831 0.3259 0.0
O50 O 0.93458 0.13847 0.40822 0.0
C51 C 0.96772 0.34497 0.39587 0.0
O52 O 0.90277 0.32077 0.37992 0.0
N53 N 0.79994 0.13022 0.37803 0.0
C54 C 0.65071 0.08996 0.3686 0.0
C55 C 0.67052 0.05605 0.396 0.0
C56 C 0.74606 0.07857 0.40094 0.0
C57 C 0.77925 0.15756 0.34918 0.0
C58 C 0.7054 0.13886 0.34424 0.0
H59 H 0.76118 0.06143 0.42568 0.0
H60 H 0.82065 0.20298 0.33271 0.0
H61 H 0.8874 0.13896 0.47242 0.0
H62 H 0.75022 0.22964 0.49685 0.0
H63 H 0.95911 0.11929 0.27487 0.0
H64 H 0.62917 0.01879 0.41568 0.0
H65 H 0.69212 0.16719 0.32328 0.0
C66 C 0.5793 0.81274 0.7842 0.0
C67 C 0.57769 0.78758 0.81907 0.0
N68 N 0.64793 0.80598 0.82805 0.0
N69 N 0.65047 0.8477 0.77122 0.0
C70 C 0.69101 0.84255 0.79883 0.0
H71 H 0.53072 0.80325 0.76897 0.0
Co72 Co 0.68147 0.88594 0.7235 0.0
C73 C 0.84621 0.93143 0.72617 0.0
O74 O 0.83649 0.88641 0.69901 0.0
N75 N 0.71468 0.92544 0.67458 0.0
C76 C 0.75615 0.93665 0.61711 0.0
C77 C 0.73606 0.89402 0.64804 0.0
C78 C 0.72396 0.98901 0.6584 0.0
N79 N 0.74859 0.99625 0.6235 0.0
O80 O 0.669 0.9709 0.73616 0.0
H81 H 0.73787 0.84287 0.65032 0.0
H82 H 0.71292 0.02924 0.67168 0.0
O83 O 0.79047 0.93681 0.73857 0.0
C84 C 0.59956 0.94414 0.72778 0.0
O85 O 0.56476 0.87856 0.7118 0.0
N86 N 0.67388 0.79509 0.71045 0.0
C87 C 0.62766 0.65097 0.68358 0.0
C88 C 0.68324 0.68404 0.71094 0.0
C89 C 0.70523 0.75601 0.72409 0.0
C90 C 0.61389 0.7604 0.68793 0.0
C91 C 0.59004 0.68952 0.67448 0.0
H92 H 0.74551 0.77908 0.74567 0.0
H93 H 0.58463 0.78871 0.6795 0.0
H94 H 0.75041 0.86228 0.79723 0.0
H95 H 0.5284 0.75516 0.83591 0.0
H96 H 0.77462 0.92471 0.59162 0.0
H97 H 0.70789 0.65483 0.72383 0.0
H98 H 0.54036 0.66536 0.65788 0.0
C99 C 0.74132 0.58795 0.12556 0.0
C100 C 0.7689 0.59405 0.16015 0.0
N101 N 0.83135 0.66144 0.16301 0.0
N102 N 0.78582 0.65153 0.10664 0.0
C103 C 0.84037 0.69543 0.13045 0.0
H104 H 0.69405 0.53825 0.11456 0.0
Co105 Co 0.78031 0.66535 0.05622 0.0
C106 C 0.8784 0.83187 1.04259 0.0
O107 O 0.89047 0.81744 1.00929 0.0
N108 N 0.77393 0.67794 1.0048 0.0
C109 C 0.78987 0.68007 0.94453 0.0
C110 C 0.80713 0.66109 0.97735 0.0
C111 C 0.73554 0.70627 0.98737 0.0
N112 N 0.7451 0.70863 0.95078 0.0
O113 O 0.67823 0.64653 0.06258 0.0
H114 H 0.84291 0.63743 0.98029 0.0
H115 H 0.70208 0.72575 1.0012 0.0
O116 O 0.83264 0.77753 0.06357 0.0
C117 C 0.64034 0.57585 0.05559 0.0
O118 O 0.67747 0.54312 1.04489 0.0
N119 N 0.87038 0.667 0.05059 0.0
C120 C 0.98152 0.63096 1.04207 0.0
C121 C 1.00086 0.70463 0.05071 0.0
C122 C 0.94334 0.72102 0.05614 0.0
C123 C 0.85201 0.59483 1.04429 0.0
C124 C 0.90639 0.57577 1.0395 0.0
H125 H 0.95731 0.77517 0.06642 0.0
H126 H 0.79444 0.55128 1.04228 0.0
H127 H 0.8881 0.74949 0.12359 0.0
H128 H 0.74733 0.5509 0.18094 0.0
H129 H 0.80857 0.67328 0.91794 0.0
H130 H 0.05888 0.74757 0.05458 0.0
H131 H 0.88978 0.51783 1.03405 0.0
C132 C 0.14407 0.75798 0.45662 0.0
C133 C 0.16094 0.78554 0.49141 0.0
N134 N 0.1561 0.84801 0.493 0.0
N135 N 0.12784 0.80244 0.43633 0.0
C136 C 0.13609 0.8573 0.45936 0.0
H137 H 0.14719 0.71049 0.44658 0.0
Co138 Co 0.1128 0.79567 0.38598 0.0
C139 C 0.04231 0.88797 0.37024 0.0
O140 O 0.08531 0.90963 0.34115 0.0
N141 N 0.09758 0.7876 0.33462 0.0
C142 C 0.11441 0.79648 0.2744 0.0
C143 C 0.14958 0.81383 0.30761 0.0
C144 C 0.03101 0.75294 0.31687 0.0
N145 N 0.03995 0.75838 0.28027 0.0
O146 O 0.0317 0.69211 0.39147 0.0
H147 H 0.20954 0.8442 0.31133 0.0
H148 H 0.97698 0.72541 0.33049 0.0
O149 O 0.04718 0.84103 0.3914 0.0
C150 C 0.06569 0.65534 0.38514 0.0
O151 O 0.13644 0.69347 0.37532 0.0
N152 N 0.20008 0.889 0.38137 0.0
C153 C 0.34875 1.00119 0.37621 0.0
C154 C 0.29286 0.02006 0.38093 0.0
C155 C 0.21806 0.9623 0.38473 0.0
C156 C 0.25525 0.87146 0.37883 0.0
C157 C 0.32946 0.92623 0.37609 0.0
H158 H 0.17635 0.97724 0.3913 0.0
H159 H 0.24178 0.81405 0.37873 0.0
H160 H 0.13082 0.90486 0.45137 0.0
H161 H 0.17883 0.76355 0.51347 0.0
H162 H 0.14133 0.81067 0.2479 0.0
H163 H 0.30705 0.07813 0.38239 0.0
H164 H 0.37178 0.91003 0.37349 0.0
C165 C 0.41953 0.23453 0.77067 0.0
C166 C 0.42402 0.26215 0.80524 0.0
N167 N 0.36256 0.21241 0.82377 0.0
N168 N 0.35488 0.16869 0.76716 0.0
C169 C 0.32285 0.15544 0.80059 0.0
H170 H 0.45961 0.2615 0.74911 0.0
Co171 Co 0.3173 0.10987 0.72467 0.0
C172 C 0.16678 0.09575 0.7549 0.0
O173 O 0.19515 0.15753 0.77408 0.0
N174 N 0.27404 0.0462 0.68336 0.0
C175 C 0.19324 0.93724 0.65725 0.0
C176 C 0.21976 0.97418 0.68951 0.0
C177 C 0.27726 0.05176 0.64637 0.0
N178 N 0.22963 0.98596 0.6302 0.0
O179 O 0.32454 0.02968 0.74869 0.0
H180 H 0.20017 0.94956 0.71616 0.0
H181 H 0.3123 0.10225 0.63102 0.0
O182 O 0.20982 0.07697 0.73816 0.0
C183 C 0.39506 0.05385 0.74317 0.0
O184 O 0.43599 0.11982 0.72787 0.0
N185 N 0.3326 0.1946 0.6986 0.0
C186 C 0.43135 0.34158 0.67682 0.0
C187 C 0.36922 0.32503 0.69902 0.0
C188 C 0.31972 0.25044 0.70952 0.0
C189 C 0.39083 0.21074 0.67536 0.0
C190 C 0.43857 0.28295 0.66283 0.0
H191 H 0.27817 0.24033 0.72979 0.0
H192 H 0.40663 0.16919 0.6698 0.0
H193 H 0.26982 0.10631 0.80755 0.0
H194 H 0.46698 0.31589 0.81546 0.0
H195 H 0.15015 0.87915 0.65379 0.0
H196 H 0.36232 0.36971 0.71027 0.0
H197 H 0.48623 0.29404 0.64583 0.0
C198 C 0.454 0.4019 1.04108 0.0
C199 C 0.41067 0.40015 0.07113 0.0
C200 C 0.51908 0.5179 0.09319 0.0
C201 C 0.55731 0.5254 0.05968 0.0
N202 N 0.55105 0.48097 0.99825 0.0
N203 N 0.39986 0.45751 0.12593 0.0
C204 C 0.52153 0.46908 1.03262 0.0
C205 C 0.44302 0.45838 0.09741 0.0
N206 N 0.42994 0.33915 1.0204 0.0
N207 N 0.55551 0.56539 0.12133 0.0
H208 H 0.34625 0.41196 0.13085 0.0
H209 H 0.41603 0.50246 0.1436 0.0
H210 H 0.60993 0.61067 0.11912 0.0
H211 H 0.5332 0.55719 0.14755 0.0
H212 H 0.46176 0.33515 0.99931 0.0
H213 H 0.38155 0.28887 1.02727 0.0
H214 H 0.52408 0.44442 0.97674 0.0
H215 H 0.59815 0.53145 0.99046 0.0
C216 C 0.0555 0.47033 0.3719 0.0
C217 C 0.01283 0.42723 0.40177 0.0
C218 C 0.00163 0.5349 0.42295 0.0
C219 C 0.03339 0.5726 0.38943 0.0
N220 N 0.07504 0.56635 0.32858 0.0
N221 N 0.94681 0.41784 0.45719 0.0
C222 C 0.0556 0.5371 0.3629 0.0
C223 C 0.98672 0.45976 0.42787 0.0
N224 N 0.09693 0.44763 0.35244 0.0
N225 N 0.98828 0.57117 0.45049 0.0
H226 H 0.94293 0.36656 0.46311 0.0
H227 H 0.91716 0.43303 0.47491 0.0
H228 H 0.99549 0.62455 0.44764 0.0
H229 H 0.97357 0.54983 0.47681 0.0
H230 H 0.13359 0.47945 0.33153 0.0
H231 H 0.10067 0.40113 0.36054 0.0
H232 H 0.08598 0.53941 0.30745 0.0
H233 H 0.07195 0.61312 0.32039 0.0
C234 C 0.44133 0.98007 0.71146 0.0
C235 C 0.43203 0.00776 0.74506 0.0
C236 C 0.53914 0.99907 0.76916 0.0
C237 C 0.5539 0.98121 0.73376 0.0
N238 N 0.52828 0.97356 0.66947 0.0
N239 N 0.47736 0.05167 0.80533 0.0
C240 C 0.50768 0.97761 0.70444 0.0
C241 C 0.48249 0.01939 0.77385 0.0
N242 N 0.38636 0.95627 0.68597 0.0
N243 N 0.57692 0.99417 0.7984 0.0
H244 H 0.43425 0.06331 0.80996 0.0
H245 H 0.51737 0.06967 0.82582 0.0
H246 H 0.6195 0.98124 0.79591 0.0
H247 H 0.56288 0.99855 0.8252 0.0
H248 H 0.38684 0.92977 0.66191 0.0
H249 H 0.33617 0.9549 0.69131 0.0
H250 H 0.50047 0.97767 0.64679 0.0
H251 H 0.57807 0.97451 0.66316 0.0
C252 C 0.54202 0.5423 0.64217 0.0
C253 C 0.59932 0.57285 0.66868 0.0
C254 C 0.56326 0.44708 0.68874 0.0
C255 C 0.493 0.41981 0.67086 0.0
N256 N 0.41993 0.43941 0.6257 0.0
N257 N 0.69307 0.54629 0.68974 0.0
C258 C 0.48395 0.46655 0.64565 0.0
C259 C 0.61928 0.52331 0.68442 0.0
N260 N 0.54794 0.58351 0.61204 0.0
N261 N 0.57648 0.40142 0.71038 0.0
H262 H 0.73529 0.59869 0.6805 0.0
H263 H 0.71201 0.5105 0.69812 0.0
H264 H 0.5404 0.344 0.71204 0.0
H265 H 0.62272 0.42165 0.72752 0.0
H266 H 0.51148 0.56214 0.59007 0.0
H267 H 0.59475 0.63669 0.60783 0.0
H268 H 0.40768 0.4737 0.60985 0.0
H269 H 0.37756 0.38323 0.62645 0.0
C270 C 0.05656 0.58107 0.06913 0.0
C271 C 0.03618 0.60576 1.03773 0.0
C272 C 0.04314 0.51168 1.00056 0.0
C273 C 0.06007 0.48392 1.03227 0.0
N274 N 0.10495 0.50633 0.09436 0.0
N275 N 0.03496 0.61413 0.97283 0.0
C276 C 0.07406 0.52329 0.06583 0.0
C277 C 0.03949 0.57823 1.00305 0.0
N278 N 0.05394 0.60921 0.10242 0.0
N279 N 0.0257 0.47198 0.96883 0.0
H280 H 0.03112 0.66258 0.97486 0.0
H281 H 0.04221 0.60045 0.94642 0.0
H282 H 0.02433 0.42098 0.96639 0.0
H283 H 0.0062 0.48608 0.94582 0.0
H284 H 0.05783 0.58622 0.12695 0.0
H285 H 0.04491 0.65426 0.10549 0.0
H286 H 0.12452 0.53877 0.11779 0.0
H287 H 0.11655 0.46304 0.09351 0.0
C288 C 0.45998 0.05321 0.33732 0.0
C289 C 0.42872 0.0564 0.37107 0.0
C290 C 0.5511 0.10652 0.39932 0.0
C291 C 0.57585 0.0833 0.36835 0.0
N292 N 0.55107 0.02974 0.30789 0.0
N293 N 0.44368 0.08823 0.43464 0.0
C294 C 0.53026 0.05683 0.3369 0.0
C295 C 0.47449 0.08548 0.40209 0.0
N296 N 0.41948 0.04135 0.30632 0.0
N297 N 0.60074 0.1494 0.42563 0.0
H298 H 0.38816 0.07571 0.4371 0.0
H299 H 0.4722 0.09954 0.45923 0.0
H300 H 0.65797 0.16841 0.42373 0.0
H301 H 0.58646 0.17258 0.44724 0.0
H302 H 0.441 0.04325 0.28036 0.0
H303 H 0.36681 0.03708 0.30685 0.0
H304 H 0.51621 0.00335 0.28582 0.0
H305 H 0.60019 0.02708 0.30733 0.0
C306 C 0.04733 0.02172 0.07088 0.0
C307 C 0.01248 0.06439 0.07835 0.0
C308 C 0.8889 0.9512 0.06788 0.0
C309 C 0.92451 0.91109 0.05621 0.0
N310 N 0.04172 0.91805 1.0381 0.0
N311 N 0.90003 0.07306 0.07431 0.0
C312 C 0.00483 0.94917 0.05509 0.0
C313 C 0.9331 0.02995 0.07454 0.0
N314 N 0.12069 0.04904 0.08004 0.0
N315 N 0.8126 0.91507 0.0715 0.0
H316 H 0.93011 0.13128 0.07606 0.0
H317 H 0.84382 0.05211 0.06795 0.0
H318 H 0.77748 0.8592 0.06431 0.0
H319 H 0.78459 0.93938 0.08402 0.0
H320 H 0.1466 0.01687 0.07883 0.0
H321 H 0.15326 0.10077 0.09265 0.0
H322 H 0.09937 0.9477 1.03317 0.0
H323 H 0.01536 0.86606 1.02554 0.0
C324 C 0.96008 0.91533 0.41436 0.0
C325 C 0.00448 0.9321 0.38181 0.0
C326 C 0.01303 0.05548 0.37982 0.0
C327 C 0.95987 0.03481 0.4081 0.0
N328 N 0.88406 0.94611 0.45409 0.0
N329 N 0.03882 0.0071 0.32615 0.0
C330 C 0.93487 0.96535 0.42629 0.0
C331 C 0.02181 0.99922 0.36244 0.0
N332 N 0.9382 0.85019 0.43292 0.0
N333 N 0.05336 0.12811 0.3683 0.0
H334 H 0.02983 0.96246 0.30969 0.0
H335 H 0.0477 0.05384 0.31117 0.0
H336 H 0.05121 0.17162 0.38153 0.0
H337 H 0.09595 0.14571 0.34879 0.0
H338 H 0.91843 0.84122 0.45964 0.0
H339 H 0.93705 0.80373 0.42122 0.0
H340 H 0.85547 0.89313 0.46599 0.0
H341 H 0.86916 0.98387 0.46461 0.0
C342 C 0.03707 0.98494 0.76741 0.0
C343 C 0.08364 0.0535 0.74886 0.0
C344 C 0.97085 0.05091 0.7247 0.0
C345 C 0.92479 0.9786 0.7399 0.0
N346 N 0.91339 0.87489 0.77499 0.0
N347 N 0.09577 0.14733 0.70595 0.0
C348 C 0.95785 0.94529 0.76119 0.0
C349 C 0.05065 0.08557 0.72667 0.0
N350 N 0.06842 0.95876 0.79173 0.0
N351 N 0.93804 0.08657 0.70836 0.0
H352 H 0.15407 0.17331 0.70606 0.0
H353 H 0.07576 0.16889 0.68622 0.0
H354 H 0.87999 0.06247 0.70638 0.0
H355 H 0.96753 0.14223 0.69981 0.0
H356 H 0.03739 0.91375 0.80924 0.0
H357 H 0.1261 0.98529 0.79616 0.0
H358 H 0.9339 0.84276 0.7865 0.0
H359 H 0.85514 0.84754 0.77384 0.0
C360 C 0.27489 0.27911 0.89361 0.0
C361 C 0.27525 0.23838 0.92444 0.0
C362 C 0.34359 0.18956 0.88991 0.0
C363 C 0.33665 0.2244 0.8582 0.0
N364 N 0.29247 0.29831 0.82826 0.0
N365 N 0.30708 0.1539 0.95314 0.0
C366 C 0.30209 0.26887 0.85969 0.0
C367 C 0.30958 0.19383 0.923 0.0
N368 N 0.24822 0.32743 0.89713 0.0
N369 N 0.38329 0.15304 0.88804 0.0
H370 H 0.28443 0.15828 0.97786 0.0
H371 H 0.32449 0.11457 0.95349 0.0
H372 H 0.40769 0.1489 0.86384 0.0
H373 H 0.39595 0.13084 0.91049 0.0
H374 H 0.25183 0.36416 0.87678 0.0
H375 H 0.227 0.33455 0.9217 0.0
H376 H 0.26121 0.32501 0.82653 0.0
H377 H 0.31214 0.29203 0.80308 0.0
C378 C 0.04771 0.30404 0.19561 0.0
C379 C 0.12492 0.32603 0.19457 0.0
C380 C 0.12022 0.29523 0.25936 0.0
C381 C 0.04327 0.27366 0.26036 0.0
N382 N 0.93589 0.26763 0.23235 0.0
N383 N 0.23789 0.35285 0.22516 0.0
C384 C 0.00784 0.28162 0.22928 0.0
C385 C 0.16222 0.32489 0.22652 0.0
N386 N 0.01215 0.30189 0.164 0.0
N387 N 0.15187 0.28474 0.28966 0.0
H388 H 0.26889 0.37362 0.20112 0.0
H389 H 0.27058 0.35956 0.24784 0.0
H390 H 0.12254 0.2656 0.31421 0.0
H391 H 0.20558 0.29213 0.2903 0.0
H392 H 0.95448 0.27939 0.16187 0.0
H393 H 0.03997 0.31873 0.13903 0.0
H394 H 0.90791 0.27821 0.21182 0.0
H395 H 0.90573 0.25025 0.25676 0.0
C396 C 0.85103 0.15948 0.55933 0.0
C397 C 0.7973 0.13676 0.53122 0.0
C398 C 0.70491 0.03477 0.57013 0.0
C399 C 0.76124 0.05187 0.59629 0.0
N400 N 0.88855 0.12681 0.61587 0.0
N401 N 0.67537 0.04879 0.50782 0.0
C402 C 0.8344 0.11393 0.59108 0.0
C403 C 0.72433 0.07385 0.53626 0.0
N404 N 0.91752 0.22514 0.55557 0.0
N405 N 0.63303 0.97993 0.57775 0.0
H406 H 0.68861 0.07482 0.4824 0.0
H407 H 0.62395 0.99906 0.50835 0.0
H408 H 0.61846 0.94974 0.60212 0.0
H409 H 0.5873 0.96851 0.56155 0.0
H410 H 0.95709 0.24874 0.57615 0.0
H411 H 0.93054 0.25898 0.53246 0.0
H412 H 0.94518 0.16585 0.61216 0.0
H413 H 0.87666 0.0952 0.63968 0.0
C414 C 0.7142 0.83443 0.88704 0.0
C415 C 0.6701 0.78169 0.86011 0.0
C416 C 0.6626 0.68003 0.89775 0.0
C417 C 0.71335 0.73333 0.9228 0.0
N418 N 0.79431 0.86203 0.93975 0.0
N419 N 0.61185 0.65612 0.8367 0.0
C420 C 0.74064 0.81089 0.91719 0.0
C421 C 0.64646 0.70478 0.86472 0.0
N422 N 0.72937 0.90666 0.88398 0.0
N423 N 0.62923 0.60551 0.90599 0.0
H424 H 0.60161 0.67313 0.81173 0.0
H425 H 0.59959 0.60064 0.83692 0.0
H426 H 0.63996 0.58629 0.93018 0.0
H427 H 0.58628 0.56361 0.89068 0.0
H428 H 0.75516 0.94666 0.90428 0.0
H429 H 0.71075 0.92495 0.86207 0.0
H430 H 0.82268 0.9196 0.935 0.0
H431 H 0.81399 0.84635 0.96214 0.0
C432 C 0.92995 0.65419 0.19754 0.0
C433 C 0.88375 0.68608 0.19272 0.0
C434 C 0.93965 0.76517 0.24638 0.0
C435 C 0.98302 0.73038 0.25241 0.0
N436 N 0.01123 0.63392 0.23773 0.0
N437 N 0.83599 0.76362 0.21439 0.0
C438 C 0.97564 0.67245 0.22905 0.0
C439 C 0.88618 0.7393 0.21774 0.0
N440 N 0.93156 0.60824 0.17124 0.0
N441 N 0.95198 0.82495 0.26719 0.0
H442 H 0.79724 0.74613 0.19328 0.0
H443 H 0.82919 0.79676 0.23366 0.0
H444 H 0.99022 0.84422 0.28839 0.0
H445 H 0.92836 0.85824 0.26207 0.0
H446 H 0.96812 0.58737 0.17147 0.0
H447 H 0.89993 0.59544 0.14754 0.0
H448 H 0.00328 0.58643 0.22395 0.0
H449 H 0.04426 0.64598 0.26088 0.0
C450 C 0.27223 0.96362 0.57078 0.0
C451 C 0.21734 0.96866 0.59198 0.0
C452 C 0.12405 0.9051 0.54416 0.0
C453 C 0.17854 0.89868 0.5234 0.0
N454 N 0.30812 0.94042 0.51124 0.0
N455 N 0.09863 0.96328 0.5956 0.0
C456 C 0.2541 0.93449 0.5349 0.0
C457 C 0.14566 0.94585 0.57736 0.0
N458 N 0.3397 0.98187 0.58576 0.0
N459 N 0.05108 0.86866 0.53314 0.0
H460 H 0.11435 0.9939 0.61977 0.0
H461 H 0.04767 0.95368 0.58529 0.0
H462 H 0.03389 0.8385 0.50892 0.0
H463 H 0.00703 0.86451 0.5489 0.0
H464 H 0.3788 0.97145 0.57307 0.0
H465 H 0.35458 0.00285 0.61205 0.0
H466 H 0.36532 0.97134 0.51671 0.0
H467 H 0.29566 0.92039 0.48462 0.0
loop_
_geom_bond_atom_site_label_1
_geom_bond_atom_site_label_2
_geom_bond_distance
_geom_bond_site_symmetry_2
_ccdc_geom_bond_type
C0 C1 1.351 . S
C0 N3 1.368 . S
C0 H5 0.931 . S
C1 C0 1.351 . S
C1 N2 1.373 . S
C1 H29 0.930 . S
N2 C1 1.373 . S
N2 C4 1.340 . S
N3 C0 1.368 . S
N3 C4 1.321 . S
N3 Co6 2.135 . S
C4 N2 1.340 . S
C4 N3 1.321 . S
C4 H28 0.930 . S
H5 C0 0.931 . S
Co6 N3 2.135 . S
Co6 N9 2.121 1_554 S
Co6 O14 2.055 . S
Co6 O17 2.039 . S
Co6 N20 2.140 . S
C7 O8 1.227 . S
C7 O17 1.265 . S
O8 C7 1.227 . S
N9 Co6 2.121 1_556 S
N9 C11 1.375 . S
N9 C12 1.313 . S
C10 C11 1.338 . S
C10 N13 1.377 . S
C10 H30 0.930 . S
C11 N9 1.375 . S
C11 C10 1.338 . S
C11 H15 0.931 . S
C12 N9 1.313 . S
C12 N13 1.344 . S
C12 H16 0.930 . S
N13 C10 1.377 . S
N13 C12 1.344 . S
O14 Co6 2.055 . S
O14 C18 1.253 . S
H15 C11 0.931 . S
H16 C12 0.930 . S
O17 Co6 2.039 . S
O17 C7 1.265 . S
C18 O14 1.253 . S
C18 O19 1.227 . S
O19 C18 1.227 . S
N20 Co6 2.140 . S
N20 C23 1.346 . S
N20 C24 1.345 1_554 S
C21 C22 1.387 1_556 S
C21 C25 1.391 . S
C22 C21 1.387 1_554 S
C22 C23 1.369 . S
C22 H31 0.929 1_455 S
C23 N20 1.346 . S
C23 C22 1.369 . S
C23 H26 0.928 . S
C24 N20 1.345 1_556 S
C24 C25 1.371 . S
C24 H27 0.931 . S
C25 C21 1.391 . S
C25 C24 1.371 . S
C25 H32 0.930 . S
H26 C23 0.928 . S
H27 C24 0.931 . S
H28 C4 0.930 . S
H29 C1 0.930 . S
H30 C10 0.930 . S
H31 C22 0.929 1_655 S
H32 C25 0.930 . S
C33 C34 1.351 . S
C33 N36 1.368 . S
C33 H38 0.931 . S
C34 C33 1.351 . S
C34 N35 1.373 . S
C34 H62 0.930 . S
N35 C34 1.373 . S
N35 C37 1.340 . S
N36 C33 1.368 . S
N36 C37 1.321 . S
N36 Co39 2.135 . S
C37 N35 1.340 . S
C37 N36 1.321 . S
C37 H61 0.930 . S
H38 C33 0.931 . S
Co39 N36 2.135 . S
Co39 N42 2.121 . S
Co39 O47 2.055 . S
Co39 O50 2.039 . S
Co39 N53 2.140 . S
C40 O41 1.227 . S
C40 O50 1.265 . S
O41 C40 1.227 . S
N42 Co39 2.121 . S
N42 C44 1.375 . S
N42 C45 1.313 . S
C43 C44 1.338 . S
C43 N46 1.377 . S
C43 H63 0.930 . S
C44 N42 1.375 . S
C44 C43 1.338 . S
C44 H48 0.931 . S
C45 N42 1.313 . S
C45 N46 1.344 . S
C45 H49 0.930 . S
N46 C43 1.377 . S
N46 C45 1.344 . S
O47 Co39 2.055 . S
O47 C51 1.253 . S
H48 C44 0.931 . S
H49 C45 0.930 . S
O50 Co39 2.039 . S
O50 C40 1.265 . S
C51 O47 1.253 . S
C51 O52 1.227 . S
O52 C51 1.227 . S
N53 Co39 2.140 . S
N53 C56 1.346 . S
N53 C57 1.345 . S
C54 C55 1.387 . S
C54 C58 1.391 . S
C55 C54 1.387 . S
C55 C56 1.369 . S
C55 H64 0.929 1_545 S
C56 N53 1.346 . S
C56 C55 1.369 . S
C56 H59 0.928 . S
C57 N53 1.345 . S
C57 C58 1.371 . S
C57 H60 0.931 . S
C58 C54 1.391 . S
C58 C57 1.371 . S
C58 H65 0.930 . S
H59 C56 0.928 . S
H60 C57 0.931 . S
H61 C37 0.930 . S
H62 C34 0.930 . S
H63 C43 0.930 . S
H64 C55 0.929 1_565 S
H65 C58 0.930 . S
C66 C67 1.351 . S
C66 N69 1.368 . S
C66 H71 0.931 . S
C67 C66 1.351 . S
C67 N68 1.373 . S
C67 H95 0.930 . S
N68 C67 1.373 . S
N68 C70 1.340 . S
N69 C66 1.368 . S
N69 C70 1.321 . S
N69 Co72 2.135 . S
C70 N68 1.340 . S
C70 N69 1.321 . S
C70 H94 0.930 . S
H71 C66 0.931 . S
Co72 N69 2.135 . S
Co72 N75 2.121 . S
Co72 O80 2.055 . S
Co72 O83 2.039 . S
Co72 N86 2.140 . S
C73 O74 1.227 . S
C73 O83 1.265 . S
O74 C73 1.227 . S
N75 Co72 2.121 . S
N75 C77 1.375 . S
N75 C78 1.313 . S
C76 C77 1.338 . S
C76 N79 1.377 . S
C76 H96 0.930 . S
C77 N75 1.375 . S
C77 C76 1.338 . S
C77 H81 0.931 . S
C78 N75 1.313 . S
C78 N79 1.344 . S
C78 H82 0.930 . S
N79 C76 1.377 . S
N79 C78 1.344 . S
O80 Co72 2.055 . S
O80 C84 1.253 . S
H81 C77 0.931 . S
H82 C78 0.930 . S
O83 Co72 2.039 . S
O83 C73 1.265 . S
C84 O80 1.253 . S
C84 O85 1.227 . S
O85 C84 1.227 . S
N86 Co72 2.140 . S
N86 C89 1.346 . S
N86 C90 1.345 . S
C87 C88 1.387 . S
C87 C91 1.391 . S
C88 C87 1.387 . S
C88 C89 1.369 . S
C88 H97 0.929 . S
C89 N86 1.346 . S
C89 C88 1.369 . S
C89 H92 0.928 . S
C90 N86 1.345 . S
C90 C91 1.371 . S
C90 H93 0.931 . S
C91 C87 1.391 . S
C91 C90 1.371 . S
C91 H98 0.930 . S
H92 C89 0.928 . S
H93 C90 0.931 . S
H94 C70 0.930 . S
H95 C67 0.930 . S
H96 C76 0.930 . S
H97 C88 0.929 . S
H98 C91 0.930 . S
C99 C100 1.351 . S
C99 N102 1.368 . S
C99 H104 0.931 . S
C100 C99 1.351 . S
C100 N101 1.373 . S
C100 H128 0.930 . S
N101 C100 1.373 . S
N101 C103 1.340 . S
N102 C99 1.368 . S
N102 C103 1.321 . S
N102 Co105 2.135 . S
C103 N101 1.340 . S
C103 N102 1.321 . S
C103 H127 0.930 . S
H104 C99 0.931 . S
Co105 N102 2.135 . S
Co105 N108 2.121 1_554 S
Co105 O113 2.055 . S
Co105 O116 2.039 . S
Co105 N119 2.140 . S
C106 O107 1.227 . S
C106 O116 1.265 . S
O107 C106 1.227 . S
N108 Co105 2.121 1_556 S
N108 C110 1.375 . S
N108 C111 1.313 . S
C109 C110 1.338 . S
C109 N112 1.377 . S
C109 H129 0.930 . S
C110 N108 1.375 . S
C110 C109 1.338 . S
C110 H114 0.931 . S
C111 N108 1.313 . S
C111 N112 1.344 . S
C111 H115 0.930 . S
N112 C109 1.377 . S
N112 C111 1.344 . S
O113 Co105 2.055 . S
O113 C117 1.253 . S
H114 C110 0.931 . S
H115 C111 0.930 . S
O116 Co105 2.039 . S
O116 C106 1.265 . S
C117 O113 1.253 . S
C117 O118 1.227 . S
O118 C117 1.227 . S
N119 Co105 2.140 . S
N119 C122 1.346 . S
N119 C123 1.345 1_554 S
C120 C121 1.387 1_556 S
C120 C124 1.391 . S
C121 C120 1.387 1_554 S
C121 C122 1.369 . S
C121 H130 0.929 1_655 S
C122 N119 1.346 . S
C122 C121 1.369 . S
C122 H125 0.928 . S
C123 N119 1.345 1_556 S
C123 C124 1.371 . S
C123 H126 0.931 . S
C124 C120 1.391 . S
C124 C123 1.371 . S
C124 H131 0.930 . S
H125 C122 0.928 . S
H126 C123 0.931 . S
H127 C103 0.930 . S
H128 C100 0.930 . S
H129 C109 0.930 . S
H130 C121 0.929 1_455 S
H131 C124 0.930 . S
C132 C133 1.351 . S
C132 N135 1.368 . S
C132 H137 0.931 . S
C133 C132 1.351 . S
C133 N134 1.373 . S
C133 H161 0.930 . S
N134 C133 1.373 . S
N134 C136 1.340 . S
N135 C132 1.368 . S
N135 C136 1.321 . S
N135 Co138 2.135 . S
C136 N134 1.340 . S
C136 N135 1.321 . S
C136 H160 0.930 . S
H137 C132 0.931 . S
Co138 N135 2.135 . S
Co138 N141 2.121 . S
Co138 O146 2.055 . S
Co138 O149 2.039 . S
Co138 N152 2.140 . S
C139 O140 1.227 . S
C139 O149 1.265 . S
O140 C139 1.227 . S
N141 Co138 2.121 . S
N141 C143 1.375 . S
N141 C144 1.313 . S
C142 C143 1.338 . S
C142 N145 1.377 . S
C142 H162 0.930 . S
C143 N141 1.375 . S
C143 C142 1.338 . S
C143 H147 0.931 . S
C144 N141 1.313 . S
C144 N145 1.344 . S
C144 H148 0.930 . S
N145 C142 1.377 . S
N145 C144 1.344 . S
O146 Co138 2.055 . S
O146 C150 1.253 . S
H147 C143 0.931 . S
H148 C144 0.930 . S
O149 Co138 2.039 . S
O149 C139 1.265 . S
C150 O146 1.253 . S
C150 O151 1.227 . S
O151 C150 1.227 . S
N152 Co138 2.140 . S
N152 C155 1.346 . S
N152 C156 1.345 . S
C153 C154 1.387 . S
C153 C157 1.391 . S
C154 C153 1.387 . S
C154 C155 1.369 . S
C154 H163 0.929 1_565 S
C155 N152 1.346 . S
C155 C154 1.369 . S
C155 H158 0.928 . S
C156 N152 1.345 . S
C156 C157 1.371 . S
C156 H159 0.931 . S
C157 C153 1.391 . S
C157 C156 1.371 . S
C157 H164 0.930 . S
H158 C155 0.928 . S
H159 C156 0.931 . S
H160 C136 0.930 . S
H161 C133 0.930 . S
H162 C142 0.930 . S
H163 C154 0.929 1_545 S
H164 C157 0.930 . S
C165 C166 1.351 . S
C165 N168 1.368 . S
C165 H170 0.931 . S
C166 C165 1.351 . S
C166 N167 1.373 . S
C166 H194 0.930 . S
N167 C166 1.373 . S
N167 C169 1.340 . S
N168 C165 1.368 . S
N168 C169 1.321 . S
N168 Co171 2.135 . S
C169 N167 1.340 . S
C169 N168 1.321 . S
C169 H193 0.930 . S
H170 C165 0.931 . S
Co171 N168 2.135 . S
Co171 N174 2.121 . S
Co171 O179 2.055 . S
Co171 O182 2.039 . S
Co171 N185 2.140 . S
C172 O173 1.227 . S
C172 O182 1.265 . S
O173 C172 1.227 . S
N174 Co171 2.121 . S
N174 C176 1.375 . S
N174 C177 1.313 . S
C175 C176 1.338 . S
C175 N178 1.377 . S
C175 H195 0.930 . S
C176 N174 1.375 . S
C176 C175 1.338 . S
C176 H180 0.931 . S
C177 N174 1.313 . S
C177 N178 1.344 . S
C177 H181 0.930 . S
N178 C175 1.377 . S
N178 C177 1.344 . S
O179 Co171 2.055 . S
O179 C183 1.253 . S
H180 C176 0.931 . S
H181 C177 0.930 . S
O182 Co171 2.039 . S
O182 C172 1.265 . S
C183 O179 1.253 . S
C183 O184 1.227 . S
O184 C183 1.227 . S
N185 Co171 2.140 . S
N185 C188 1.346 . S
N185 C189 1.345 . S
C186 C187 1.387 . S
C186 C190 1.391 . S
C187 C186 1.387 . S
C187 C188 1.369 . S
C187 H196 0.929 . S
C188 N185 1.346 . S
C188 C187 1.369 . S
C188 H191 0.928 . S
C189 N185 1.345 . S
C189 C190 1.371 . S
C189 H192 0.931 . S
C190 C186 1.391 . S
C190 C189 1.371 . S
C190 H197 0.930 . S
H191 C188 0.928 . S
H192 C189 0.931 . S
H193 C169 0.930 . S
H194 C166 0.930 . S
H195 C175 0.930 . S
H196 C187 0.929 . S
H197 C190 0.930 . S
C198 C199 1.363 1_556 S
C198 C204 1.379 . S
C198 N206 1.356 . S
C199 C198 1.363 1_554 S
C199 C205 1.363 . S
C200 C201 1.363 . S
C200 C205 1.379 . S
C200 N207 1.356 . S
C201 C200 1.363 . S
C201 C204 1.363 1_554 S
N202 C204 1.356 . S
N202 H214 0.984 . S
N202 H215 0.985 . S
N203 C205 1.356 . S
N203 H208 0.984 . S
N203 H209 0.985 . S
C204 C198 1.379 . S
C204 C201 1.363 1_556 S
C204 N202 1.356 . S
C205 C199 1.363 . S
C205 C200 1.379 . S
C205 N203 1.356 . S
N206 C198 1.356 . S
N206 H212 0.984 . S
N206 H213 0.984 . S
N207 C200 1.356 . S
N207 H210 0.984 . S
N207 H211 0.985 . S
H208 N203 0.984 . S
H209 N203 0.985 . S
H210 N207 0.984 . S
H211 N207 0.985 . S
H212 N206 0.984 . S
H213 N206 0.984 . S
H214 N202 0.984 . S
H215 N202 0.985 . S
C216 C217 1.363 1_455 S
C216 C222 1.379 . S
C216 N224 1.356 . S
C217 C216 1.363 1_655 S
C217 C223 1.363 . S
C218 C219 1.363 1_655 S
C218 C223 1.379 . S
C218 N225 1.356 . S
C219 C218 1.363 1_455 S
C219 C222 1.363 . S
N220 C222 1.356 . S
N220 H232 0.984 . S
N220 H233 0.985 . S
N221 C223 1.356 . S
N221 H226 0.984 . S
N221 H227 0.985 . S
C222 C216 1.379 . S
C222 C219 1.363 . S
C222 N220 1.356 . S
C223 C217 1.363 . S
C223 C218 1.379 . S
C223 N221 1.356 . S
N224 C216 1.356 . S
N224 H230 0.984 . S
N224 H231 0.984 . S
N225 C218 1.356 . S
N225 H228 0.984 . S
N225 H229 0.985 . S
H226 N221 0.984 . S
H227 N221 0.985 . S
H228 N225 0.984 . S
H229 N225 0.985 . S
H230 N224 0.984 . S
H231 N224 0.984 . S
H232 N220 0.984 . S
H233 N220 0.985 . S
C234 C235 1.363 1_565 S
C234 C240 1.379 . S
C234 N242 1.356 . S
C235 C234 1.363 1_545 S
C235 C241 1.363 . S
C236 C237 1.363 1_545 S
C236 C241 1.379 . S
C236 N243 1.356 . S
C237 C236 1.363 1_565 S
C237 C240 1.363 . S
N238 C240 1.356 . S
N238 H250 0.984 . S
N238 H251 0.985 . S
N239 C241 1.356 . S
N239 H244 0.984 . S
N239 H245 0.985 . S
C240 C234 1.379 . S
C240 C237 1.363 . S
C240 N238 1.356 . S
C241 C235 1.363 . S
C241 C236 1.379 . S
C241 N239 1.356 . S
N242 C234 1.356 . S
N242 H248 0.984 . S
N242 H249 0.984 . S
N243 C236 1.356 . S
N243 H246 0.984 . S
N243 H247 0.985 . S
H244 N239 0.984 . S
H245 N239 0.985 . S
H246 N243 0.984 . S
H247 N243 0.985 . S
H248 N242 0.984 . S
H249 N242 0.984 . S
H250 N238 0.984 . S
H251 N238 0.985 . S
C252 C253 1.363 . S
C252 C258 1.379 . S
C252 N260 1.356 . S
C253 C252 1.363 . S
C253 C259 1.363 . S
C254 C255 1.363 . S
C254 C259 1.379 . S
C254 N261 1.356 . S
C255 C254 1.363 . S
C255 C258 1.363 . S
N256 C258 1.356 . S
N256 H268 0.984 . S
N256 H269 0.985 . S
N257 C259 1.356 . S
N257 H262 0.984 . S
N257 H263 0.985 . S
C258 C252 1.379 . S
C258 C255 1.363 . S
C258 N256 1.356 . S
C259 C253 1.363 . S
C259 C254 1.379 . S
C259 N257 1.356 . S
N260 C252 1.356 . S
N260 H266 0.984 . S
N260 H267 0.984 . S
N261 C254 1.356 . S
N261 H264 0.984 . S
N261 H265 0.985 . S
H262 N257 0.984 . S
H263 N257 0.985 . S
H264 N261 0.984 . S
H265 N261 0.985 . S
H266 N260 0.984 . S
H267 N260 0.984 . S
H268 N256 0.984 . S
H269 N256 0.985 . S
C270 C271 1.363 1_454 S
C270 C276 1.379 . S
C270 N278 1.356 . S
C271 C270 1.363 1_656 S
C271 C277 1.363 . S
C272 C273 1.363 1_655 S
C272 C277 1.379 . S
C272 N279 1.356 . S
C273 C272 1.363 1_455 S
C273 C276 1.363 1_556 S
N274 C276 1.356 . S
N274 H286 0.984 . S
N274 H287 0.985 . S
N275 C277 1.356 . S
N275 H280 0.984 . S
N275 H281 0.985 . S
C276 C270 1.379 . S
C276 C273 1.363 1_554 S
C276 N274 1.356 . S
C277 C271 1.363 . S
C277 C272 1.379 . S
C277 N275 1.356 . S
N278 C270 1.356 . S
N278 H284 0.984 . S
N278 H285 0.984 . S
N279 C272 1.356 . S
N279 H282 0.984 . S
N279 H283 0.985 . S
H280 N275 0.984 . S
H281 N275 0.985 . S
H282 N279 0.984 . S
H283 N279 0.985 . S
H284 N278 0.984 . S
H285 N278 0.984 . S
H286 N274 0.984 . S
H287 N274 0.985 . S
C288 C289 1.363 . S
C288 C294 1.379 . S
C288 N296 1.356 . S
C289 C288 1.363 . S
C289 C295 1.363 1_565 S
C290 C291 1.363 . S
C290 C295 1.379 . S
C290 N297 1.356 . S
C291 C290 1.363 . S
C291 C294 1.363 1_545 S
N292 C294 1.356 . S
N292 H304 0.984 . S
N292 H305 0.985 . S
N293 C295 1.356 . S
N293 H298 0.984 . S
N293 H299 0.985 . S
C294 C288 1.379 . S
C294 C291 1.363 1_565 S
C294 N292 1.356 . S
C295 C289 1.363 1_545 S
C295 C290 1.379 . S
C295 N293 1.356 . S
N296 C288 1.356 . S
N296 H302 0.984 . S
N296 H303 0.984 . S
N297 C290 1.356 . S
N297 H300 0.984 . S
N297 H301 0.985 . S
H298 N293 0.984 . S
H299 N293 0.985 . S
H300 N297 0.984 . S
H301 N297 0.985 . S
H302 N296 0.984 . S
H303 N296 0.984 . S
H304 N292 0.984 . S
H305 N292 0.985 . S
C306 C307 1.363 . S
C306 C312 1.379 1_545 S
C306 N314 1.356 . S
C307 C306 1.363 . S
C307 C313 1.363 1_454 S
C308 C309 1.363 1_556 S
C308 C313 1.379 1_565 S
C308 N315 1.356 . S
C309 C308 1.363 1_554 S
C309 C312 1.363 1_655 S
N310 C312 1.356 . S
N310 H322 0.984 . S
N310 H323 0.985 1_455 S
N311 C313 1.356 . S
N311 H316 0.984 1_655 S
N311 H317 0.985 . S
C312 C306 1.379 1_565 S
C312 C309 1.363 1_455 S
C312 N310 1.356 . S
C313 C307 1.363 1_656 S
C313 C308 1.379 1_545 S
C313 N311 1.356 . S
N314 C306 1.356 . S
N314 H320 0.984 . S
N314 H321 0.984 . S
N315 C308 1.356 . S
N315 H318 0.984 . S
N315 H319 0.985 . S
H316 N311 0.984 1_455 S
H317 N311 0.985 . S
H318 N315 0.984 . S
H319 N315 0.985 . S
H320 N314 0.984 . S
H321 N314 0.984 . S
H322 N310 0.984 . S
H323 N310 0.985 1_655 S
C324 C325 1.363 1_655 S
C324 C330 1.379 . S
C324 N332 1.356 . S
C325 C324 1.363 1_455 S
C325 C331 1.363 1_565 S
C326 C327 1.363 1_455 S
C326 C331 1.379 . S
C326 N333 1.356 . S
C327 C326 1.363 1_655 S
C327 C330 1.363 1_545 S
N328 C330 1.356 . S
N328 H340 0.984 . S
N328 H341 0.985 1_565 S
N329 C331 1.356 . S
N329 H334 0.984 1_545 S
N329 H335 0.985 . S
C330 C324 1.379 . S
C330 C327 1.363 1_565 S
C330 N328 1.356 . S
C331 C325 1.363 1_545 S
C331 C326 1.379 . S
C331 N329 1.356 . S
N332 C324 1.356 . S
N332 H338 0.984 . S
N332 H339 0.984 1_655 S
N333 C326 1.356 . S
N333 H336 0.984 1_455 S
N333 H337 0.985 . S
H334 N329 0.984 1_565 S
H335 N329 0.985 . S
H336 N333 0.984 1_655 S
H337 N333 0.985 . S
H338 N332 0.984 . S
H339 N332 0.984 1_455 S
H340 N328 0.984 . S
H341 N328 0.985 1_545 S
C342 C343 1.363 1_565 S
C342 C348 1.379 1_455 S
C342 N350 1.356 . S
C343 C342 1.363 1_545 S
C343 C349 1.363 . S
C344 C345 1.363 1_545 S
C344 C349 1.379 1_655 S
C344 N351 1.356 . S
C345 C344 1.363 1_565 S
C345 C348 1.363 . S
N346 C348 1.356 . S
N346 H358 0.984 . S
N346 H359 0.985 . S
N347 C349 1.356 . S
N347 H352 0.984 . S
N347 H353 0.985 . S
C348 C342 1.379 1_655 S
C348 C345 1.363 . S
C348 N346 1.356 . S
C349 C343 1.363 . S
C349 C344 1.379 1_455 S
C349 N347 1.356 . S
N350 C342 1.356 . S
N350 H356 0.984 . S
N350 H357 0.984 1_565 S
N351 C344 1.356 . S
N351 H354 0.984 1_545 S
N351 H355 0.985 . S
H352 N347 0.984 . S
H353 N347 0.985 . S
H354 N351 0.984 1_565 S
H355 N351 0.985 . S
H356 N350 0.984 . S
H357 N350 0.984 1_545 S
H358 N346 0.984 . S
H359 N346 0.985 . S
C360 C361 1.363 . S
C360 C366 1.379 . S
C360 N368 1.356 . S
C361 C360 1.363 . S
C361 C367 1.363 . S
C362 C363 1.363 . S
C362 C367 1.379 . S
C362 N369 1.356 . S
C363 C362 1.363 . S
C363 C366 1.363 . S
N364 C366 1.356 . S
N364 H376 0.984 . S
N364 H377 0.985 . S
N365 C367 1.356 . S
N365 H370 0.984 . S
N365 H371 0.985 . S
C366 C360 1.379 . S
C366 C363 1.363 . S
C366 N364 1.356 . S
C367 C361 1.363 . S
C367 C362 1.379 . S
C367 N365 1.356 . S
N368 C360 1.356 . S
N368 H374 0.984 . S
N368 H375 0.984 . S
N369 C362 1.356 . S
N369 H372 0.984 . S
N369 H373 0.985 . S
H370 N365 0.984 . S
H371 N365 0.985 . S
H372 N369 0.984 . S
H373 N369 0.985 . S
H374 N368 0.984 . S
H375 N368 0.984 . S
H376 N364 0.984 . S
H377 N364 0.985 . S
C378 C379 1.363 . S
C378 C384 1.379 1_455 S
C378 N386 1.356 . S
C379 C378 1.363 . S
C379 C385 1.363 . S
C380 C381 1.363 1_455 S
C380 C385 1.379 . S
C380 N387 1.356 . S
C381 C380 1.363 1_655 S
C381 C384 1.363 . S
N382 C384 1.356 . S
N382 H394 0.984 . S
N382 H395 0.985 . S
N383 C385 1.356 . S
N383 H388 0.984 . S
N383 H389 0.985 . S
C384 C378 1.379 1_655 S
C384 C381 1.363 . S
C384 N382 1.356 . S
C385 C379 1.363 . S
C385 C380 1.379 . S
C385 N383 1.356 . S
N386 C378 1.356 . S
N386 H392 0.984 1_455 S
N386 H393 0.984 . S
N387 C380 1.356 . S
N387 H390 0.984 . S
N387 H391 0.985 . S
H388 N383 0.984 . S
H389 N383 0.985 . S
H390 N387 0.984 . S
H391 N387 0.985 . S
H392 N386 0.984 1_655 S
H393 N386 0.984 . S
H394 N382 0.984 . S
H395 N382 0.985 . S
C396 C397 1.363 . S
C396 C402 1.379 . S
C396 N404 1.356 . S
C397 C396 1.363 . S
C397 C403 1.363 . S
C398 C399 1.363 . S
C398 C403 1.379 1_565 S
C398 N405 1.356 . S
C399 C398 1.363 . S
C399 C402 1.363 1_565 S
N400 C402 1.356 . S
N400 H412 0.984 . S
N400 H413 0.985 . S
N401 C403 1.356 . S
N401 H406 0.984 . S
N401 H407 0.985 1_545 S
C402 C396 1.379 . S
C402 C399 1.363 1_545 S
C402 N400 1.356 . S
C403 C397 1.363 . S
C403 C398 1.379 1_545 S
C403 N401 1.356 . S
N404 C396 1.356 . S
N404 H410 0.984 . S
N404 H411 0.984 . S
N405 C398 1.356 . S
N405 H408 0.984 . S
N405 H409 0.985 . S
H406 N401 0.984 . S
H407 N401 0.985 1_565 S
H408 N405 0.984 . S
H409 N405 0.985 . S
H410 N404 0.984 . S
H411 N404 0.984 . S
H412 N400 0.984 . S
H413 N400 0.985 . S
C414 C415 1.363 . S
C414 C420 1.379 . S
C414 N422 1.356 . S
C415 C414 1.363 . S
C415 C421 1.363 . S
C416 C417 1.363 . S
C416 C421 1.379 . S
C416 N423 1.356 . S
C417 C416 1.363 . S
C417 C420 1.363 . S
N418 C420 1.356 . S
N418 H430 0.984 . S
N418 H431 0.985 . S
N419 C421 1.356 . S
N419 H424 0.984 . S
N419 H425 0.985 . S
C420 C414 1.379 . S
C420 C417 1.363 . S
C420 N418 1.356 . S
C421 C415 1.363 . S
C421 C416 1.379 . S
C421 N419 1.356 . S
N422 C414 1.356 . S
N422 H428 0.984 . S
N422 H429 0.984 . S
N423 C416 1.356 . S
N423 H426 0.984 . S
N423 H427 0.985 . S
H424 N419 0.984 . S
H425 N419 0.985 . S
H426 N423 0.984 . S
H427 N423 0.985 . S
H428 N422 0.984 . S
H429 N422 0.984 . S
H430 N418 0.984 . S
H431 N418 0.985 . S
C432 C433 1.363 . S
C432 C438 1.379 1_655 S
C432 N440 1.356 . S
C433 C432 1.363 . S
C433 C439 1.363 . S
C434 C435 1.363 1_655 S
C434 C439 1.379 . S
C434 N441 1.356 . S
C435 C434 1.363 1_455 S
C435 C438 1.363 . S
N436 C438 1.356 . S
N436 H448 0.984 . S
N436 H449 0.985 . S
N437 C439 1.356 . S
N437 H442 0.984 . S
N437 H443 0.985 . S
C438 C432 1.379 1_455 S
C438 C435 1.363 . S
C438 N436 1.356 . S
C439 C433 1.363 . S
C439 C434 1.379 . S
C439 N437 1.356 . S
N440 C432 1.356 . S
N440 H446 0.984 1_655 S
N440 H447 0.984 . S
N441 C434 1.356 . S
N441 H444 0.984 . S
N441 H445 0.985 . S
H442 N437 0.984 . S
H443 N437 0.985 . S
H444 N441 0.984 . S
H445 N441 0.985 . S
H446 N440 0.984 1_455 S
H447 N440 0.984 . S
H448 N436 0.984 . S
H449 N436 0.985 . S
C450 C451 1.363 1_565 S
C450 C456 1.379 . S
C450 N458 1.356 . S
C451 C450 1.363 1_545 S
C451 C457 1.363 . S
C452 C453 1.363 . S
C452 C457 1.379 1_565 S
C452 N459 1.356 . S
C453 C452 1.363 . S
C453 C456 1.363 . S
N454 C456 1.356 . S
N454 H466 0.984 . S
N454 H467 0.985 . S
N455 C457 1.356 . S
N455 H460 0.984 . S
N455 H461 0.985 . S
C456 C450 1.379 . S
C456 C453 1.363 . S
C456 N454 1.356 . S
C457 C451 1.363 . S
C457 C452 1.379 1_545 S
C457 N455 1.356 . S
N458 C450 1.356 . S
N458 H464 0.984 . S
N458 H465 0.984 1_565 S
N459 C452 1.356 . S
N459 H462 0.984 . S
N459 H463 0.985 . S
H460 N455 0.984 . S
H461 N455 0.985 . S
H462 N459 0.984 . S
H463 N459 0.985 . S
H464 N458 0.984 . S
H465 N458 0.984 1_545 S
H466 N454 0.984 . S
H467 N454 0.985 . S
C199 C18 1.707 . S
C201 C117 1.707 . S
C217 C51 1.708 . S
C219 C150 1.708 . S
C235 C183 1.708 . S
C237 C84 1.708 . S
C253 C87 1.051 . S
C255 C186 1.051 . S
C271 C120 1.051 . S
C273 C21 1.051 . S
C289 C153 1.050 . S
C291 C54 1.050 . S
C307 C7 0.968 . S
C309 C106 0.968 . S
C325 C139 0.968 . S
C327 C40 0.968 . S
C343 C172 0.968 . S
C345 C73 0.968 . S
C361 N13 1.648 . S
C363 N167 1.808 . S
C379 N2 1.808 . S
C381 N46 1.648 . S
C397 N35 1.808 . S
C399 N79 1.648 . S
C415 N68 1.808 . S
C417 N112 1.648 . S
C433 N101 1.808 . S
C435 N145 1.648 . S
C451 N178 1.648 . S
C453 N134 1.808 . S
