# Generated by pormake.
# Topology wfa, (4)-cn, num edge types: 1
# Building blocks:
#     Node 0, Type 0, BuildingBlock: MUDLON_clean_sbu_0, # of connection points: 4
#     Node 1, Type 0, BuildingBlock: MUDLON_clean_sbu_0, # of connection points: 4
#     Node 2, Type 0, BuildingBlock: MUDLON_clean_sbu_0, # of connection points: 4
#     Node 3, Type 0, BuildingBlock: MUDLON_clean_sbu_0, # of connection points: 4
#     Node 4, Type 0, BuildingBlock: MUDLON_clean_sbu_0, # of connection points: 4
#     Node 5, Type 0, BuildingBlock: MUDLON_clean_sbu_0, # of connection points: 4
#     Node 6, Type 0, BuildingBlock: MUDLON_clean_sbu_0, # of connection points: 4
#     Node 7, Type 0, BuildingBlock: MUDLON_clean_sbu_0, # of connection points: 4
#     Node 8, Type 0, BuildingBlock: MUDLON_clean_sbu_0, # of connection points: 4
#     Node 9, Type 0, BuildingBlock: MUDLON_clean_sbu_0, # of connection points: 4
#     Node 10, Type 0, BuildingBlock: MUDLON_clean_sbu_0, # of connection points: 4
#     Node 11, Type 0, BuildingBlock: MUDLON_clean_sbu_0, # of connection points: 4
#     Node 12, Type 0, BuildingBlock: MUDLON_clean_sbu_0, # of connection points: 4
#     Node 13, Type 0, BuildingBlock: MUDLON_clean_sbu_0, # of connection points: 4
#     Node 14, Type 0, BuildingBlock: MUDLON_clean_sbu_0, # of connection points: 4
#     Node 15, Type 0, BuildingBlock: MUDLON_clean_sbu_0, # of connection points: 4
#     Edge 16, Type (0, 0), BuildingBlock: CIFDUS_clean_linker_0, # of connection points: 2
#     Edge 17, Type (0, 0), BuildingBlock: CIFDUS_clean_linker_0, # of connection points: 2
#     Edge 18, Type (0, 0), BuildingBlock: CIFDUS_clean_linker_0, # of connection points: 2
#     Edge 19, Type (0, 0), BuildingBlock: CIFDUS_clean_linker_0, # of connection points: 2
#     Edge 20, Type (0, 0), BuildingBlock: CIFDUS_clean_linker_0, # of connection points: 2
#     Edge 21, Type (0, 0), BuildingBlock: CIFDUS_clean_linker_0, # of connection points: 2
#     Edge 22, Type (0, 0), BuildingBlock: CIFDUS_clean_linker_0, # of connection points: 2
#     Edge 23, Type (0, 0), BuildingBlock: CIFDUS_clean_linker_0, # of connection points: 2
#     Edge 24, Type (0, 0), BuildingBlock: CIFDUS_clean_linker_0, # of connection points: 2
#     Edge 25, Type (0, 0), BuildingBlock: CIFDUS_clean_linker_0, # of connection points: 2
#     Edge 26, Type (0, 0), BuildingBlock: CIFDUS_clean_linker_0, # of connection points: 2
#     Edge 27, Type (0, 0), BuildingBlock: CIFDUS_clean_linker_0, # of connection points: 2
#     Edge 28, Type (0, 0), BuildingBlock: CIFDUS_clean_linker_0, # of connection points: 2
#     Edge 29, Type (0, 0), BuildingBlock: CIFDUS_clean_linker_0, # of connection points: 2
#     Edge 30, Type (0, 0), BuildingBlock: CIFDUS_clean_linker_0, # of connection points: 2
#     Edge 31, Type (0, 0), BuildingBlock: CIFDUS_clean_linker_0, # of connection points: 2
#     Edge 32, Type (0, 0), BuildingBlock: CIFDUS_clean_linker_0, # of connection points: 2
#     Edge 33, Type (0, 0), BuildingBlock: CIFDUS_clean_linker_0, # of connection points: 2
#     Edge 34, Type (0, 0), BuildingBlock: CIFDUS_clean_linker_0, # of connection points: 2
#     Edge 35, Type (0, 0), BuildingBlock: CIFDUS_clean_linker_0, # of connection points: 2
#     Edge 36, Type (0, 0), BuildingBlock: CIFDUS_clean_linker_0, # of connection points: 2
#     Edge 37, Type (0, 0), BuildingBlock: CIFDUS_clean_linker_0, # of connection points: 2
#     Edge 38, Type (0, 0), BuildingBlock: CIFDUS_clean_linker_0, # of connection points: 2
#     Edge 39, Type (0, 0), BuildingBlock: CIFDUS_clean_linker_0, # of connection points: 2
#     Edge 40, Type (0, 0), BuildingBlock: CIFDUS_clean_linker_0, # of connection points: 2
#     Edge 41, Type (0, 0), BuildingBlock: CIFDUS_clean_linker_0, # of connection points: 2
#     Edge 42, Type (0, 0), BuildingBlock: CIFDUS_clean_linker_0, # of connection points: 2
#     Edge 43, Type (0, 0), BuildingBlock: CIFDUS_clean_linker_0, # of connection points: 2
#     Edge 44, Type (0, 0), BuildingBlock: CIFDUS_clean_linker_0, # of connection points: 2
#     Edge 45, Type (0, 0), BuildingBlock: CIFDUS_clean_linker_0, # of connection points: 2
#     Edge 46, Type (0, 0), BuildingBlock: CIFDUS_clean_linker_0, # of connection points: 2
#     Edge 47, Type (0, 0), BuildingBlock: CIFDUS_clean_linker_0, # of connection points: 2
# Relax obj value: 0.199
# Max RMSD: 0.234
# Mean RMSD: 0.228
data_MOF--net-wfa--node1-MUDLON_clean_sbu_0--edge1-CIFDUS_clean_linker_0
_symmetry_space_group_name_H-M    P1
_symmetry_Int_Tables_number       1
_symmetry_cell_setting            triclinic
loop_
_symmetry_equiv_pos_as_xyz
'x, y, z'
_cell_length_a     43.136703
_cell_length_b     43.212348
_cell_length_c     21.981515
_cell_angle_alpha  89.720782
_cell_angle_beta   89.655101
_cell_angle_gamma 89.724357
loop_
_atom_site_label
_atom_site_type_symbol
_atom_site_fract_x
_atom_site_fract_y
_atom_site_fract_z
_atom_type_partial_charge
Mg0 Mg 0.65285 0.01907 0.06539 0.0
C1 C 0.70322 1.00323 0.15795 0.0
O2 O 0.72149 0.01188 0.11305 0.0
C3 C 0.5845 1.00859 0.08546 0.0
O4 O 0.59141 0.02492 0.13376 0.0
C5 C 0.70122 0.99264 0.97609 0.0
O6 O 0.70408 0.97138 0.0186 0.0
O7 O 0.682 0.01479 0.98373 0.0
O8 O 0.67417 1.00131 0.14865 0.0
O9 O 0.64304 0.06668 0.09059 0.0
C10 C 0.65947 0.08086 0.12934 0.0
O11 O 0.68697 0.06979 0.1429 0.0
O12 O 0.60628 1.0008 0.0491 0.0
Mg13 Mg 0.49568 0.68058 0.0649 0.0
C14 C 0.4492 0.67057 0.15975 0.0
O15 O 0.47574 0.67076 0.18859 0.0
C16 C 0.51768 0.7092 0.94498 0.0
O17 O 0.54142 0.69063 0.95404 0.0
C18 C 0.49465 0.61299 0.03376 0.0
O19 O 0.46553 0.62091 0.02556 0.0
O20 O 0.51386 0.63378 0.04952 0.0
O21 O 0.4493 0.67414 0.10228 0.0
O22 O 0.5185 0.70625 0.13727 0.0
C23 C 0.51338 0.73524 0.14026 0.0
O24 O 0.4997 0.74908 0.09427 0.0
O25 O 0.49521 0.70897 0.98277 0.0
Mg26 Mg 0.85352 0.50425 0.05298 0.0
C27 C 0.82964 0.53127 0.17176 0.0
O28 O 0.85638 0.52053 0.19073 0.0
C29 C 0.9147 0.54277 0.05819 0.0
O30 O 0.89895 0.56071 0.0954 0.0
C31 C 0.79806 0.5004 0.96935 0.0
O32 O 0.78398 0.49886 0.02245 0.0
O33 O 0.82757 0.50132 0.96783 0.0
O34 O 0.82421 0.53146 0.11492 0.0
O35 O 0.85855 0.46059 0.10337 0.0
C36 C 0.88195 0.46 0.13835 0.0
O37 O 0.90167 0.483 0.13603 0.0
O38 O 0.90114 0.51992 0.03376 0.0
Mg39 Mg 0.06499 0.85353 0.0467 0.0
C40 C 0.13502 0.85562 0.09 0.0
O41 O 0.16467 0.8528 0.07699 0.0
C42 C 0.03621 0.80966 0.94841 0.0
O43 O 0.02466 0.79363 0.99407 0.0
C44 C 0.06517 0.92369 0.02928 0.0
O45 O 0.09338 0.91715 1.01033 0.0
O46 O 0.04787 0.90167 0.04782 0.0
O47 O 0.11564 0.85332 0.04666 0.0
O48 O 0.05072 0.82554 0.1256 0.0
C49 C 0.06685 0.80147 0.13729 0.0
O50 O 0.08916 0.79373 0.09928 0.0
O51 O 0.05216 0.83372 0.95913 0.0
Mg52 Mg 0.15106 0.96908 0.49077 0.0
C53 C 0.1781 0.98262 0.36778 0.0
O54 O 0.15633 0.96263 0.35485 0.0
C55 C 0.08818 1.00007 0.46099 0.0
O56 O 0.10272 1.00855 0.41096 0.0
C57 C 0.19412 0.98803 0.59544 0.0
O58 O 0.20297 1.00961 0.55686 0.0
O59 O 0.17357 0.9687 0.57937 0.0
O60 O 0.17985 0.99275 0.42205 0.0
O61 O 0.1496 0.9224 0.45428 0.0
C62 C 0.12491 0.91274 0.42958 0.0
O63 O 0.09902 0.92819 0.43875 0.0
O64 O 0.103 0.98504 0.50142 0.0
Mg65 Mg 0.51053 0.17371 0.46964 0.0
C66 C 0.53891 0.15644 0.35678 0.0
O67 O 0.50872 0.15505 0.34975 0.0
C68 C 0.50084 0.21133 0.58289 0.0
O69 O 0.47349 0.21393 0.55733 0.0
C70 C 0.50943 0.10695 0.49841 0.0
O71 O 0.53884 0.11432 0.50295 0.0
O72 O 0.48997 0.12825 0.48556 0.0
O73 O 0.54932 0.16393 0.40875 0.0
O74 O 0.48453 0.20591 0.41266 0.0
C75 C 0.50123 0.22872 0.39616 0.0
O76 O 0.52843 0.23202 0.42189 0.0
O77 O 0.52187 0.1957 0.55587 0.0
Mg78 Mg 0.34885 0.53091 0.4683 0.0
C79 C 0.33961 0.51243 0.33679 0.0
O80 O 0.36866 0.52132 0.33357 0.0
C81 C 0.41739 0.53073 0.4986 0.0
O82 O 0.41076 0.56034 0.50286 0.0
C83 C 0.31233 0.5099 0.5843 0.0
O84 O 0.33207 0.48667 0.58633 0.0
O85 O 0.31526 0.53047 0.54305 0.0
O86 O 0.32632 0.51142 0.38859 0.0
O87 O 0.357 0.57826 0.44047 0.0
C88 C 0.34167 0.59121 0.3981 0.0
O89 O 0.3172 0.57727 0.37616 0.0
O90 O 0.3955 0.51188 0.48689 0.0
Mg91 Mg 1.00913 0.35241 0.43871 0.0
C92 C 0.94712 0.34171 0.37394 0.0
O93 O 0.95795 0.31355 0.36585 0.0
C94 C 1.0025 0.33871 0.57392 0.0
O95 O 0.99068 0.36679 0.57299 0.0
C96 C 1.01088 0.42119 0.4611 0.0
O97 O 0.98105 0.41561 0.46565 0.0
O98 O 0.02926 0.3987 0.44964 0.0
O99 O 0.96195 0.36025 0.40779 0.0
O100 O 0.03062 0.32447 0.36715 0.0
C101 C 0.02263 0.32877 0.31207 0.0
O102 O 1.00494 0.35263 0.29855 0.0
O103 O 1.01161 0.3267 0.52422 0.0
Mg104 Mg 0.34318 0.97217 0.98453 0.0
C105 C 0.29305 0.98531 0.90171 0.0
O106 O 0.28442 0.96125 0.93433 0.0
C107 C 0.40023 0.9885 0.06039 0.0
O108 O 0.38117 0.98185 0.10537 0.0
C109 C 0.30444 0.98713 0.09909 0.0
O110 O 0.31695 0.01459 0.09217 0.0
O111 O 0.31215 0.96548 0.06275 0.0
O112 O 0.31833 0.99863 0.91551 0.0
O113 O 0.34973 0.93001 0.93297 0.0
C114 C 0.36942 0.90882 0.94389 0.0
O115 O 0.38552 0.90978 0.99439 0.0
O116 O 0.3902 0.98785 1.00607 0.0
Mg117 Mg 0.51779 0.36179 0.972 0.0
C118 C 0.51005 0.30758 0.89247 0.0
O119 O 0.53651 0.3022 0.92 0.0
C120 C 0.5183 0.42997 0.9933 0.0
O121 O 0.5472 0.422 1.004 0.0
C122 C 0.49942 0.32519 0.08546 0.0
O123 O 0.47389 0.3212 0.05422 0.0
O124 O 0.52141 0.34087 0.06201 0.0
O125 O 0.49411 0.33108 0.90871 0.0
O126 O 0.56302 0.36732 0.92945 0.0
C127 C 0.5618 0.37033 0.87193 0.0
O128 O 0.53456 0.37023 0.84553 0.0
O129 O 0.49913 0.40892 0.97875 0.0
Mg130 Mg 0.1666 0.52953 0.97308 0.0
C131 C 0.18498 0.50653 0.85004 0.0
O132 O 0.16132 0.52452 0.8366 0.0
C133 C 0.09901 0.54057 1.00303 0.0
O134 O 0.11109 0.56754 0.01636 0.0
C135 C 0.22063 0.52075 0.05919 0.0
O136 O 0.23478 0.51607 1.00693 0.0
O137 O 0.1918 0.52731 0.05916 0.0
O138 O 0.19056 0.50089 0.90581 0.0
O139 O 0.16891 0.57482 0.92986 0.0
C140 C 0.1922 0.58193 0.89684 0.0
O141 O 0.21734 0.56473 0.9 0.0
O142 O 0.117 0.51907 0.98429 0.0
Mg143 Mg 0.01407 0.16675 0.93134 0.0
C144 C 0.02018 0.22275 0.85605 0.0
O145 O 0.99919 0.23026 0.89702 0.0
C146 C 0.02461 0.10333 0.9799 0.0
O147 O 0.99507 0.10837 0.99121 0.0
C148 C 0.02368 0.20229 0.04753 0.0
O149 O 0.05108 0.18921 0.04172 0.0
O150 O 1.00263 0.19576 1.00937 0.0
O151 O 0.03381 0.19665 0.86104 0.0
O152 O 0.97518 0.14831 0.88191 0.0
C153 C 0.94979 0.16103 0.86642 0.0
O154 O 0.94213 0.18832 0.88796 0.0
O155 O 0.04047 0.12512 0.95603 0.0
Mg156 Mg 0.84123 0.01565 0.57591 0.0
C157 C 0.78376 1.00009 0.6491 0.0
O158 O 0.77135 1.00884 0.59743 0.0
C159 C 0.90589 0.0118 0.5324 0.0
O160 O 0.89348 0.03418 0.49984 0.0
C161 C 0.79672 0.02482 0.46659 0.0
O162 O 0.78419 0.04672 0.50001 0.0
O163 O 0.81984 1.0096 0.48671 0.0
O164 O 0.81316 0.9979 0.65224 0.0
O165 O 0.85047 0.0633 0.59956 0.0
C166 C 0.83494 0.07834 0.63905 0.0
O167 O 0.80789 0.06777 0.657 0.0
O168 O 0.88861 0.99733 0.57014 0.0
Mg169 Mg 0.49194 0.85534 0.56517 0.0
C170 C 0.53396 0.81002 0.6406 0.0
O171 O 0.54638 0.80129 0.58871 0.0
C172 C 0.4874 0.92407 0.54143 0.0
O173 O 0.45826 0.91606 0.535 0.0
C174 C 0.4949 0.80042 0.47776 0.0
O175 O 0.48801 0.785 0.52767 0.0
O176 O 0.49715 0.82974 0.48013 0.0
O177 O 0.51461 0.83228 0.64132 0.0
O178 O 0.44474 0.85813 0.60014 0.0
C179 C 0.43652 0.83858 0.64056 0.0
O180 O 0.45363 0.81373 0.64895 0.0
O181 O 0.50738 0.90317 0.55371 0.0
Mg182 Mg 0.66943 0.50103 0.55811 0.0
C183 C 0.72193 0.52058 0.63977 0.0
O184 O 0.73697 0.51731 0.58805 0.0
C185 C 0.60108 0.50259 0.52756 0.0
O186 O 0.60777 0.4732 0.51974 0.0
C187 C 0.70172 0.52122 0.4361 0.0
O188 O 0.67791 0.53985 0.42836 0.0
O189 O 0.70245 0.50336 0.48232 0.0
O190 O 0.6925 0.51804 0.64003 0.0
O191 O 0.65983 0.45337 0.58255 0.0
C192 C 0.67332 0.44021 0.62704 0.0
O193 O 0.69766 0.45341 0.65113 0.0
O194 O 0.62294 0.52106 0.54166 0.0
Mg195 Mg 0.04378 0.66935 0.55334 0.0
C196 C 0.02671 0.7208 0.63243 0.0
O197 O 0.04995 0.7313 0.59947 0.0
C198 C 0.04489 0.60076 0.52272 0.0
O199 O 0.0748 0.60614 0.52506 0.0
C200 C 0.06847 0.68832 0.42797 0.0
O201 O 0.08273 0.66152 0.43345 0.0
O202 O 0.05133 0.69766 0.47151 0.0
O203 O 0.01522 0.6947 0.61851 0.0
O204 O 0.08283 0.66379 0.61397 0.0
C205 C 0.1117 0.65798 0.61245 0.0
O206 O 0.12583 0.65326 0.56018 0.0
O207 O 0.02605 0.6231 0.53214 0.0
H208 H 0.60207 0.14821 0.35635 0.0
H209 H 0.52165 0.14626 0.24033 0.0
H210 H 0.55309 0.12715 0.15649 0.0
H211 H 0.60178 0.10549 0.11922 0.0
H212 H 0.68241 0.10544 0.23452 0.0
H213 H 0.65283 0.13157 0.3144 0.0
C214 C 0.59157 0.14396 0.3125 0.0
C215 C 0.55944 0.14814 0.30513 0.0
C216 C 0.60982 0.13262 0.26408 0.0
C217 C 0.54622 0.14278 0.24778 0.0
C218 C 0.5642 0.13191 0.19954 0.0
C219 C 0.61312 0.11173 0.16131 0.0
C220 C 0.64415 0.10311 0.17102 0.0
C221 C 0.5958 0.12594 0.20764 0.0
C222 C 0.65849 0.11167 0.22575 0.0
C223 C 0.64151 0.1264 0.27178 0.0
H224 H 0.33507 0.60464 0.27808 0.0
H225 H 0.38263 0.63339 0.44036 0.0
H226 H 0.41752 0.66535 0.37925 0.0
H227 H 0.43987 0.6774 0.27985 0.0
H228 H 0.39513 0.64591 0.11664 0.0
H229 H 0.35335 0.62312 0.17793 0.0
C230 C 0.35244 0.61868 0.30019 0.0
C231 C 0.35655 0.61646 0.36354 0.0
C232 C 0.37321 0.63602 0.26451 0.0
C233 C 0.37924 0.63459 0.39159 0.0
C234 C 0.39928 0.6527 0.35667 0.0
C235 C 0.42069 0.66599 0.2576 0.0
C236 C 0.42081 0.66272 0.19405 0.0
C237 C 0.39739 0.65235 0.29305 0.0
C238 C 0.39558 0.6485 0.16561 0.0
C239 C 0.37182 0.63534 0.20067 0.0
H240 H 0.88758 0.39689 0.13803 0.0
H241 H 0.8815 0.47617 0.25581 0.0
H242 H 0.89503 0.44432 0.34328 0.0
H243 H 0.91711 0.39651 0.38288 0.0
H244 H 0.9278 0.31747 0.26542 0.0
H245 H 0.90336 0.34609 0.18216 0.0
C246 C 0.88841 0.4068 0.18321 0.0
C247 C 0.88363 0.43874 0.19071 0.0
C248 C 0.8974 0.38843 0.23337 0.0
C249 C 0.8851 0.45161 0.24912 0.0
C250 C 0.89296 0.43344 0.29916 0.0
C251 C 0.9134 0.38525 0.33953 0.0
C252 C 0.92472 0.35512 0.33018 0.0
C253 C 0.90044 0.40216 0.29137 0.0
C254 C 0.9194 0.34072 0.27391 0.0
C255 C 0.90568 0.3572 0.22598 0.0
H256 H 0.16847 0.84532 0.19229 0.0
H257 H 0.08077 0.88159 0.13143 0.0
H258 H 0.06724 0.89638 0.23447 0.0
H259 H 0.0832 0.90547 0.33914 0.0
H260 H 0.17337 0.87462 0.3989 0.0
H261 H 0.18295 0.85098 0.29969 0.0
C262 C 0.14623 0.85616 0.20165 0.0
C263 C 0.12542 0.86195 0.15371 0.0
C264 C 0.13918 0.86578 0.26114 0.0
C265 C 0.09684 0.87606 0.16696 0.0
C266 C 0.08923 0.88487 0.22618 0.0
C267 C 0.10465 0.89291 0.33116 0.0
C268 C 0.12762 0.89202 0.37632 0.0
C269 C 0.11056 0.8806 0.2733 0.0
C270 C 0.15533 0.87574 0.36487 0.0
C271 C 0.16093 0.86243 0.30797 0.0
H272 H 0.35407 0.91292 0.82451 0.0
H273 H 0.40532 0.85655 0.95205 0.0
H274 H 0.42658 0.82604 0.86804 0.0
H275 H 0.43594 0.8201 0.7585 0.0
H276 H 0.38895 0.88023 0.63133 0.0
H277 H 0.36021 0.90424 0.71514 0.0
C278 C 0.36944 0.89359 0.83417 0.0
C279 C 0.37828 0.88718 0.89456 0.0
C280 C 0.38247 0.87696 0.78557 0.0
C281 C 0.39831 0.86211 0.90603 0.0
C282 C 0.41052 0.84471 0.85798 0.0
C283 C 0.41883 0.83792 0.74891 0.0
C284 C 0.41456 0.84841 0.68874 0.0
C285 C 0.40354 0.85258 0.79751 0.0
C286 C 0.39263 0.8718 0.67723 0.0
C287 C 0.37635 0.88563 0.72516 0.0
H288 H 0.68024 0.42494 0.74626 0.0
H289 H 0.6269 0.40321 0.58658 0.0
H290 H 0.58937 0.37537 0.64943 0.0
H291 H 0.56748 0.36511 0.75023 0.0
H292 H 0.61883 0.38948 0.91073 0.0
H293 H 0.66162 0.40815 0.84697 0.0
C294 C 0.6609 0.41336 0.72496 0.0
C295 C 0.65609 0.41652 0.66193 0.0
C296 C 0.63877 0.39842 0.76166 0.0
C297 C 0.63093 0.40136 0.63507 0.0
C298 C 0.60936 0.38562 0.67102 0.0
C299 C 0.58821 0.37414 0.77132 0.0
C300 C 0.58977 0.37658 0.83497 0.0
C301 C 0.6123 0.38533 0.7345 0.0
C302 C 0.617 0.38765 0.86175 0.0
C303 C 0.6414 0.39841 0.82532 0.0
H304 H 0.16907 0.63213 0.63312 0.0
H305 H 0.08992 0.67253 0.72491 0.0
H306 H 0.11041 0.6564 0.82272 0.0
H307 H 0.14669 0.62462 0.88106 0.0
H308 H 0.22609 0.58401 0.79122 0.0
H309 H 0.21004 0.60697 0.69465 0.0
C310 C 0.15664 0.63792 0.67458 0.0
C311 C 0.12763 0.65287 0.67131 0.0
C312 C 0.16848 0.62836 0.73131 0.0
C313 C 0.112 0.66047 0.72572 0.0
C314 C 0.12369 0.65129 0.78193 0.0
C315 C 0.16087 0.62139 0.84064 0.0
C316 C 0.1872 0.60221 0.84323 0.0
C317 C 0.15129 0.63426 0.7851 0.0
C318 C 0.20559 0.59857 0.79059 0.0
C319 C 0.19628 0.61149 0.73508 0.0
H320 H 0.88728 0.16472 0.84487 0.0
H321 H 0.9728 0.12589 0.77561 0.0
H322 H 0.94502 0.10102 0.69356 0.0
H323 H 0.89671 0.08694 0.64595 0.0
H324 H 0.80981 0.12041 0.7189 0.0
H325 H 0.83779 0.15126 0.79397 0.0
C326 C 0.8997 0.15092 0.81154 0.0
C327 C 0.93197 0.14687 0.81672 0.0
C328 C 0.88339 0.13586 0.76493 0.0
C329 C 0.94788 0.12894 0.77329 0.0
C330 C 0.93207 0.11485 0.72605 0.0
C331 C 0.88377 0.10142 0.6774 0.0
C332 C 0.8512 0.10142 0.67669 0.0
C333 C 0.89984 0.11773 0.722 0.0
C334 C 0.83492 0.12007 0.71842 0.0
C335 C 0.85091 0.13752 0.76162 0.0
H336 H 0.68653 0.01395 0.86345 0.0
H337 H 0.75857 0.96662 0.96275 0.0
H338 H 0.79057 0.96406 0.87051 0.0
H339 H 0.7985 0.97636 0.76142 0.0
H340 H 0.72448 0.02072 0.66184 0.0
H341 H 0.69294 0.02302 0.7538 0.0
C342 C 0.70926 1.00313 0.86486 0.0
C343 C 0.72029 0.99078 0.91991 0.0
C344 C 0.72719 1.00104 0.81137 0.0
C345 C 0.74957 0.97634 0.92086 0.0
C346 C 0.7679 0.97489 0.86815 0.0
C347 C 0.77538 0.98629 0.75982 0.0
C348 C 0.76403 0.99842 0.70465 0.0
C349 C 0.757 0.98725 0.81306 0.0
C350 C 0.7339 0.01108 0.70342 0.0
C351 C 0.7158 0.01258 0.75617 0.0
H352 H 0.49883 0.81187 0.74339 0.0
H353 H 0.57673 0.76412 0.66218 0.0
H354 H 0.57907 0.72909 0.74996 0.0
H355 H 0.55744 0.7107 0.84782 0.0
H356 H 0.47771 0.75725 0.92501 0.0
H357 H 0.47749 0.79385 0.84026 0.0
C358 C 0.51657 0.79402 0.74494 0.0
C359 C 0.53766 0.79073 0.69617 0.0
C360 C 0.5172 0.77348 0.79456 0.0
C361 C 0.56026 0.76724 0.69906 0.0
C362 C 0.56152 0.74712 0.74915 0.0
C363 C 0.54005 0.72888 0.84616 0.0
C364 C 0.51758 0.73111 0.89278 0.0
C365 C 0.53983 0.74976 0.7968 0.0
C366 C 0.49516 0.7548 0.88971 0.0
C367 C 0.49507 0.77585 0.84132 0.0
H368 H 0.81828 0.51598 0.85522 0.0
H369 H 0.73585 0.49147 0.95633 0.0
H370 H 0.70468 0.49748 0.8647 0.0
H371 H 0.70079 0.50879 0.75508 0.0
H372 H 0.78328 0.53317 0.65403 0.0
H373 H 0.81418 0.52859 0.74629 0.0
C374 C 0.79352 0.51183 0.8572 0.0
C375 C 0.77954 0.50311 0.9127 0.0
C376 C 0.77559 0.51563 0.80432 0.0
C377 C 0.74732 0.49814 0.91435 0.0
C378 C 0.7294 0.50165 0.86191 0.0
C379 C 0.72544 0.51356 0.75339 0.0
C380 C 0.73961 0.52143 0.69757 0.0
C381 C 0.74325 0.51042 0.80661 0.0
C382 C 0.7717 0.52712 0.69627 0.0
C383 C 0.78946 0.52437 0.74903 0.0
H384 H 1.00611 0.75803 0.90716 0.0
H385 H 0.05834 0.83738 0.84548 0.0
H386 H 0.0568 0.81845 0.74153 0.0
H387 H 0.0446 0.77761 0.6693 0.0
H388 H 0.99326 0.69752 0.72913 0.0
H389 H 0.98994 0.71881 0.83202 0.0
C390 C 0.01692 0.77132 0.87092 0.0
C391 C 0.03264 0.79895 0.88459 0.0
C392 C 0.01611 0.76019 0.81071 0.0
C393 C 0.0463 0.81593 0.83674 0.0
C394 C 0.04544 0.80513 0.77706 0.0
C395 C 0.03227 0.76495 0.70456 0.0
C396 C 0.01942 0.73588 0.69146 0.0
C397 C 0.03096 0.77704 0.76371 0.0
C398 C 1.00333 0.71997 0.73776 0.0
C399 C 1.00165 0.73204 0.79681 0.0
H400 H 0.24181 0.02212 0.64182 0.0
H401 H 0.17774 0.94901 0.68779 0.0
H402 H 0.20121 0.94375 0.78776 0.0
H403 H 0.24109 0.95793 0.86032 0.0
H404 H 0.30671 0.02968 0.81529 0.0
H405 H 0.28113 0.03774 0.71716 0.0
C406 C 0.23289 1.00513 0.6738 0.0
C407 C 0.2081 0.98587 0.65693 0.0
C408 C 0.24671 1.00202 0.73146 0.0
C409 C 0.19686 0.96403 0.69915 0.0
C410 C 0.21025 0.96101 0.7565 0.0
C411 C 0.24974 0.97557 0.82942 0.0
C412 C 0.2759 0.9931 0.84523 0.0
C413 C 0.23535 0.97963 0.77287 0.0
C414 C 0.28662 0.01587 0.80442 0.0
C415 C 0.27208 0.02037 0.74815 0.0
H416 H 0.46204 0.2491 0.64735 0.0
H417 H 0.553 0.20705 0.6527 0.0
H418 H 0.56286 0.23164 0.75043 0.0
H419 H 0.54636 0.266 0.83289 0.0
H420 H 0.45619 0.3096 0.82666 0.0
H421 H 0.44523 0.28316 0.73096 0.0
C422 C 0.48402 0.24523 0.66989 0.0
C423 C 0.50677 0.22624 0.64246 0.0
C424 C 0.48964 0.25962 0.72604 0.0
C425 C 0.5351 0.22158 0.67248 0.0
C426 C 0.54075 0.2356 0.7285 0.0
C427 C 0.52414 0.26954 0.81105 0.0
C428 C 0.50207 0.28972 0.8372 0.0
C429 C 0.51825 0.25475 0.75555 0.0
C430 C 0.47356 0.29417 0.80772 0.0
C431 C 0.46733 0.27913 0.75287 0.0
H432 H 0.30294 0.4759 0.68829 0.0
H433 H 0.26166 0.5476 0.57728 0.0
H434 H 0.21747 0.5505 0.64651 0.0
H435 H 0.19118 0.53413 0.73979 0.0
H436 H 0.23336 0.46514 0.85563 0.0
H437 H 0.27618 0.45932 0.78276 0.0
C438 C 0.28425 0.49211 0.6792 0.0
C439 C 0.28576 0.51153 0.62756 0.0
C440 C 0.2589 0.494 0.71983 0.0
C441 C 0.26132 0.53249 0.61673 0.0
C442 C 0.23591 0.53411 0.65622 0.0
C443 C 0.20949 0.51748 0.74888 0.0
C444 C 0.20892 0.49994 0.803 0.0
C445 C 0.23451 0.51509 0.70798 0.0
C446 C 0.23314 0.47882 0.81421 0.0
C447 C 0.25772 0.47562 0.7727 0.0
H448 H 0.03308 0.28414 0.59546 0.0
H449 H 0.97765 0.35445 0.68379 0.0
H450 H 0.98027 0.32583 0.77944 0.0
H451 H 0.99624 0.28002 0.83709 0.0
H452 H 0.05163 0.20931 0.75025 0.0
H453 H 0.05152 0.23919 0.65532 0.0
C454 C 0.02161 0.29322 0.63566 0.0
C455 C 1.00497 0.32134 0.63216 0.0
C456 C 0.02332 0.27667 0.69091 0.0
C457 C 0.99053 0.33287 0.68493 0.0
C458 C 0.99202 0.31652 0.73978 0.0
C459 C 1.00856 0.2712 0.79762 0.0
C460 C 0.0238 0.24235 0.80083 0.0
C461 C 1.00811 0.2883 0.74316 0.0
C462 C 0.03977 0.23145 0.74921 0.0
C463 C 0.03955 0.24845 0.69476 0.0
H464 H 0.19258 0.94828 0.26913 0.0
H465 H 0.2194 0.03097 0.36412 0.0
H466 H 0.26087 0.03984 0.28917 0.0
H467 H 0.28969 0.02362 0.19669 0.0
H468 H 0.26383 0.93912 0.10649 0.0
H469 H 0.22194 0.93137 0.17985 0.0
C470 C 0.20729 0.96844 0.27332 0.0
C471 C 0.20264 0.98916 0.32184 0.0
C472 C 0.23144 0.97291 0.2311 0.0
C473 C 0.22237 0.01477 0.32707 0.0
C474 C 0.24611 0.01979 0.28426 0.0
C475 C 0.27492 1.00349 0.19317 0.0
C476 C 0.27995 0.98201 0.14592 0.0
C477 C 0.25094 0.99894 0.23615 0.0
C478 C 0.26067 0.95595 0.14238 0.0
C479 C 0.23658 0.95155 0.18422 0.0
H480 H 0.53637 0.27336 0.3438 0.0
H481 H 0.44927 0.22575 0.32453 0.0
H482 H 0.44042 0.25239 0.22753 0.0
H483 H 0.45912 0.28683 0.14527 0.0
H484 H 0.54733 0.33253 0.16445 0.0
H485 H 0.55404 0.3088 0.26432 0.0
C486 C 0.51523 0.26898 0.31888 0.0
C487 C 0.49354 0.2475 0.34153 0.0
C488 C 0.51066 0.2838 0.26269 0.0
C489 C 0.46634 0.24219 0.30832 0.0
C490 C 0.46135 0.2573 0.25266 0.0
C491 C 0.47975 0.29172 0.17139 0.0
C492 C 0.50276 0.31135 0.14704 0.0
C493 C 0.48363 0.27775 0.22887 0.0
C494 C 0.52931 0.31741 0.18171 0.0
C495 C 0.53317 0.30389 0.23898 0.0
H496 H 0.27674 0.51546 0.32469 0.0
H497 H 0.36134 0.50377 0.22138 0.0
H498 H 0.33193 0.50455 0.12676 0.0
H499 H 0.28259 0.51093 0.07303 0.0
H500 H 0.1981 0.52467 0.17581 0.0
H501 H 0.22708 0.52082 0.27078 0.0
C502 C 0.28871 0.51261 0.28154 0.0
C503 C 0.32124 0.50938 0.28025 0.0
C504 C 0.2717 0.51381 0.22709 0.0
C505 C 0.33636 0.50621 0.22378 0.0
C506 C 0.31955 0.50677 0.16959 0.0
C507 C 0.27043 0.513 0.11615 0.0
C508 C 0.23815 0.51817 0.11707 0.0
C509 C 0.28728 0.51099 0.17063 0.0
C510 C 0.2229 0.52081 0.17356 0.0
C511 C 0.23947 0.51854 0.22798 0.0
H512 H 0.06008 0.21584 0.14469 0.0
H513 H 0.97581 0.2438 0.05436 0.0
H514 H 0.9691 0.28622 0.12632 0.0
H515 H 0.98728 0.31569 0.21425 0.0
H516 H 0.06984 0.28633 0.30844 0.0
H517 H 0.0773 0.24432 0.23522 0.0
C518 C 0.04018 0.23114 0.14085 0.0
C519 C 0.01852 0.22663 0.09401 0.0
C520 C 0.03633 0.25542 0.18271 0.0
C521 C 0.99277 0.2466 0.09003 0.0
C522 C 0.98899 0.27099 0.13099 0.0
C523 C 1.00711 0.3003 0.21838 0.0
C524 C 0.02826 0.30437 0.26617 0.0
C525 C 1.01072 0.27575 0.17722 0.0
C526 C 0.05339 0.28379 0.27178 0.0
C527 C 0.05759 0.25973 0.23005 0.0
H528 H 0.76262 0.99373 0.19463 0.0
H529 H 0.67082 0.01442 0.26257 0.0
H530 H 0.69168 0.02322 0.36398 0.0
H531 H 0.73649 0.02811 0.43224 0.0
H532 H 0.82784 1.00441 0.36628 0.0
H533 H 0.80678 0.99384 0.26534 0.0
C534 C 0.74715 0.99972 0.23188 0.0
C535 C 0.71523 1.00344 0.22096 0.0
C536 C 0.75929 1.0046 0.2903 0.0
C537 C 0.69544 0.0111 0.26975 0.0
C538 C 0.70739 0.01643 0.32772 0.0
C539 C 0.75173 0.02062 0.39568 0.0
C540 C 0.7837 0.01746 0.4063 0.0
C541 C 0.73934 0.01381 0.33827 0.0
C542 C 0.80315 1.00712 0.35903 0.0
C543 C 0.79113 1.00108 0.30136 0.0
H544 H 0.50517 0.82513 0.36485 0.0
H545 H 0.49767 0.73792 0.46031 0.0
H546 H 0.50626 0.71008 0.36533 0.0
H547 H 0.51334 0.71035 0.25435 0.0
H548 H 0.51775 0.7974 0.15791 0.0
H549 H 0.51368 0.82537 0.25407 0.0
C550 C 0.50554 0.80004 0.36498 0.0
C551 C 0.50061 0.78371 0.41979 0.0
C552 C 0.51021 0.78409 0.30997 0.0
C553 C 0.50119 0.75116 0.4189 0.0
C554 C 0.50622 0.73517 0.36455 0.0
C555 C 0.51396 0.73543 0.25442 0.0
C556 C 0.51598 0.75176 0.19897 0.0
C557 C 0.5105 0.75137 0.30972 0.0
C558 C 0.5163 0.78428 0.19994 0.0
C559 C 0.51379 0.80029 0.2549 0.0
H560 H 0.70533 0.54828 0.32311 0.0
H561 H 0.75896 0.49611 0.45379 0.0
H562 H 0.80372 0.49728 0.38589 0.0
H563 H 0.82733 0.5113 0.28856 0.0
H564 H 0.77371 0.56059 0.15399 0.0
H565 H 0.72951 0.56275 0.2245 0.0
C566 C 0.72683 0.53723 0.33674 0.0
C567 C 0.72863 0.52203 0.39354 0.0
C568 C 0.7526 0.53763 0.29692 0.0
C569 C 0.75671 0.50777 0.41029 0.0
C570 C 0.78245 0.50852 0.37155 0.0
C571 C 0.80617 0.52297 0.27479 0.0
C572 C 0.80398 0.53601 0.21615 0.0
C573 C 0.78063 0.52322 0.31471 0.0
C574 C 0.7761 0.55051 0.19894 0.0
C575 C 0.75077 0.55161 0.23917 0.0
H576 H 0.09685 0.74888 0.17142 0.0
H577 H 0.02728 0.81387 0.23275 0.0
H578 H 0.0219 0.78505 0.32843 0.0
H579 H 0.03728 0.7413 0.39506 0.0
H580 H 0.10685 0.67665 0.33184 0.0
H581 H 0.11192 0.70554 0.23691 0.0
C582 C 0.08039 0.75677 0.20553 0.0
C583 C 0.06241 0.7835 0.19459 0.0
C584 C 0.0775 0.74017 0.26041 0.0
C585 C 0.04129 0.7933 0.23962 0.0
C586 C 0.03828 0.77687 0.29451 0.0
C587 C 0.05361 0.73357 0.3606 0.0
C588 C 0.07167 0.70676 0.3709 0.0
C589 C 0.05633 0.75028 0.30551 0.0
C590 C 0.09261 0.69711 0.32543 0.0
C591 C 0.09554 0.71363 0.27094 0.0
H592 H 0.45005 0.98076 0.9843 0.0
H593 H 0.42503 1.00939 0.1659 0.0
H594 H 0.47958 0.01768 0.18972 0.0
H595 H 0.5344 0.01662 0.15953 0.0
H596 H 0.56015 0.98594 0.97959 0.0
H597 H 0.50547 0.97833 0.95489 0.0
C598 C 0.45655 0.98905 0.02891 0.0
C599 C 0.43341 0.9947 0.0731 0.0
C600 C 0.48815 0.99312 0.04283 0.0
C601 C 0.4423 1.00492 0.13102 0.0
C602 C 0.47353 1.00962 0.14473 0.0
C603 C 0.52813 1.00815 0.11492 0.0
C604 C 0.55147 1.00191 0.0715 0.0
C605 C 0.49666 1.00369 0.10112 0.0
C606 C 0.54277 0.99082 0.01404 0.0
C607 C 0.51145 0.9866 0.99976 0.0
H608 H 0.55479 0.47931 0.01958 0.0
H609 H 0.46038 0.45515 0.97721 0.0
H610 H 0.44502 0.50955 0.98513 0.0
H611 H 0.4583 0.56386 1.00484 0.0
H612 H 0.55272 0.58791 0.0474 0.0
H613 H 0.56814 0.5336 0.03842 0.0
C614 C 0.53081 0.48585 1.01205 0.0
C615 C 0.50876 0.46302 0.9979 0.0
C616 C 0.52215 0.51719 0.01664 0.0
C617 C 0.47785 0.47212 0.9882 0.0
C618 C 0.46905 0.50327 0.99271 0.0
C619 C 0.4823 0.55731 1.01203 0.0
C620 C 0.50431 0.58008 0.02681 0.0
C621 C 0.49099 0.52599 1.00698 0.0
C622 C 0.53527 0.57099 0.03598 0.0
C623 C 0.54411 0.5399 0.0309 0.0
H624 H 0.95701 0.50257 1.00859 0.0
H625 H 0.9489 0.59339 0.08821 0.0
H626 H 1.00479 0.60059 0.07792 0.0
H627 H 0.05611 0.58101 0.04794 0.0
H628 H 0.06489 0.48976 0.9706 0.0
H629 H 1.00873 0.48284 0.97863 0.0
C630 C 0.96742 0.52405 0.02329 0.0
C631 C 0.9486 0.54747 0.04895 0.0
C632 C 0.99978 0.5279 0.01801 0.0
C633 C 0.96267 0.57497 0.06831 0.0
C634 C 0.9947 0.57911 0.06249 0.0
C635 C 0.04582 0.55956 0.03277 0.0
C636 C 0.06487 0.53594 1.00867 0.0
C637 C 0.01351 0.55569 0.03775 0.0
C638 C 0.05094 0.50832 0.98946 0.0
C639 C 0.01875 0.50438 0.99393 0.0
H640 H 0.9954 0.0528 0.0267 0.0
H641 H 0.08381 0.08292 0.95565 0.0
H642 H 0.10431 0.03027 0.96633 0.0
H643 H 0.09649 0.97528 0.99216 0.0
H644 H 1.00775 0.94539 0.06215 0.0
H645 H 0.98811 0.9984 0.05553 0.0
C646 C 0.01924 0.04799 0.01382 0.0
C647 C 0.03798 0.07192 0.99019 0.0
C648 C 0.03079 0.01762 0.01962 0.0
C649 C 0.06882 0.06506 0.97393 0.0
C650 C 0.08054 0.0349 0.97989 0.0
C651 C 0.07286 0.98032 1.00619 0.0
C652 C 0.05361 0.9562 0.02738 0.0
C653 C 0.06163 0.01092 1.00207 0.0
C654 C 0.0231 0.96334 0.04552 0.0
C655 C 0.01182 0.9937 0.04173 0.0
H656 H 0.04818 0.97443 0.54402 0.0
H657 H 0.05194 0.03878 0.39333 0.0
H658 H 0.99618 0.04758 0.4019 0.0
H659 H 0.94637 0.03701 0.4514 0.0
H660 H 0.94164 0.97205 0.60087 0.0
H661 H 0.99769 0.96334 0.59321 0.0
C662 C 0.03683 0.99052 0.51328 0.0
C663 C 0.05437 1.00604 0.46822 0.0
C664 C 1.00454 0.99522 0.51796 0.0
C665 C 0.03914 0.02654 0.42842 0.0
C666 C 1.0072 0.03157 0.43324 0.0
C667 C 0.95749 0.02086 0.48236 0.0
C668 C 0.93969 1.00522 0.52672 0.0
C669 C 0.98966 0.01598 0.47766 0.0
C670 C 0.95467 0.98435 0.56619 0.0
C671 C 0.98677 0.97944 0.56194 0.0
H672 H 0.4498 0.97369 0.51895 0.0
H673 H 0.5455 0.94882 0.55001 0.0
H674 H 0.56042 1.00307 0.5402 0.0
H675 H 0.54647 0.0574 0.52248 0.0
H676 H 0.4509 0.08259 0.49115 0.0
H677 H 0.43579 0.02831 0.50162 0.0
C678 C 0.47395 0.98008 0.52356 0.0
C679 C 0.4965 0.95708 0.53516 0.0
C680 C 0.48239 0.01138 0.51793 0.0
C681 C 0.52765 0.96592 0.54106 0.0
C682 C 0.53621 0.99698 0.53548 0.0
C683 C 0.52228 0.05112 0.51804 0.0
C684 C 0.49985 0.07416 0.50606 0.0
C685 C 0.51379 0.01989 0.52392 0.0
C686 C 0.46866 0.06543 0.50041 0.0
C687 C 0.46001 0.03436 0.50633 0.0
H688 H 0.55001 0.46715 0.5083 0.0
H689 H 0.57787 0.56175 0.53706 0.0
H690 H 0.52366 0.57847 0.53163 0.0
H691 H 0.4684 0.56626 0.51872 0.0
H692 H 0.44062 0.4716 0.49031 0.0
H693 H 0.4948 0.45491 0.49598 0.0
C694 C 0.54434 0.49148 0.51323 0.0
C695 C 0.5682 0.51317 0.52292 0.0
C696 C 0.51307 0.50091 0.51039 0.0
C697 C 0.56016 0.54454 0.52946 0.0
C698 C 0.5291 0.55411 0.52644 0.0
C699 C 0.47409 0.54193 0.51393 0.0
C700 C 0.45025 0.52022 0.50414 0.0
C701 C 0.50536 0.5325 0.51702 0.0
C702 C 0.4583 0.48883 0.49797 0.0
C703 C 0.48935 0.47928 0.5011 0.0
H704 H 0.07939 0.54897 0.4995 0.0
H705 H 0.98479 0.5807 0.51874 0.0
H706 H 0.96621 0.52822 0.5009 0.0
H707 H 0.97668 0.4733 0.48107 0.0
H708 H 0.07117 0.44134 0.46153 0.0
H709 H 0.08986 0.49398 0.47819 0.0
C710 C 0.05468 0.54449 0.49972 0.0
C711 C 0.03355 0.5689 0.51059 0.0
C712 C 0.04412 0.51417 0.48943 0.0
C713 C 1.00162 0.56249 0.51055 0.0
C714 C 0.99096 0.53243 0.50038 0.0
C715 C 1.0014 0.47776 0.48038 0.0
C716 C 0.02247 0.45323 0.47014 0.0
C717 C 0.01198 0.50808 0.48997 0.0
C718 C 0.05439 0.45965 0.46928 0.0
C719 C 0.06511 0.48979 0.47886 0.0
loop_
_geom_bond_atom_site_label_1
_geom_bond_atom_site_label_2
_geom_bond_distance
_geom_bond_site_symmetry_2
_ccdc_geom_bond_type
Mg0 O7 2.141 . S
Mg0 O8 2.048 . S
Mg0 O9 2.048 . S
Mg0 O12 2.141 . S
C1 O2 1.330 . S
C1 O8 1.183 1_565 S
O2 C1 1.330 . S
C3 O4 1.245 . S
C3 O12 1.289 1_565 S
O4 C3 1.245 . S
C5 O6 1.245 . S
C5 O7 1.289 1_565 S
O6 C5 1.245 . S
O7 Mg0 2.141 . S
O7 C5 1.289 1_545 S
O8 Mg0 2.048 . S
O8 C1 1.183 1_545 S
O9 Mg0 2.048 . S
O9 C10 1.195 . S
C10 O9 1.195 . S
C10 O11 1.313 1_545 S
O11 C10 1.313 1_565 S
O12 Mg0 2.141 . S
O12 C3 1.289 1_545 S
Mg13 O20 2.141 . S
Mg13 O21 2.048 . S
Mg13 O22 2.048 . S
Mg13 O25 2.141 . S
C14 O15 1.313 . S
C14 O21 1.195 . S
O15 C14 1.313 . S
C16 O17 1.245 . S
C16 O25 1.289 . S
O17 C16 1.245 . S
C18 O19 1.245 . S
C18 O20 1.289 . S
O19 C18 1.245 . S
O20 Mg13 2.141 . S
O20 C18 1.289 . S
O21 Mg13 2.048 . S
O21 C14 1.195 . S
O22 Mg13 2.048 . S
O22 C23 1.195 . S
C23 O22 1.195 . S
C23 O24 1.313 . S
O24 C23 1.313 . S
O25 Mg13 2.141 . S
O25 C16 1.289 . S
Mg26 O33 2.141 . S
Mg26 O34 2.048 . S
Mg26 O35 2.048 . S
Mg26 O38 2.141 . S
C27 O28 1.313 . S
C27 O34 1.195 . S
O28 C27 1.313 . S
C29 O30 1.245 . S
C29 O38 1.289 . S
O30 C29 1.245 . S
C31 O32 1.245 . S
C31 O33 1.289 . S
O32 C31 1.245 . S
O33 Mg26 2.141 . S
O33 C31 1.289 . S
O34 Mg26 2.048 . S
O34 C27 1.195 . S
O35 Mg26 2.048 . S
O35 C36 1.195 . S
C36 O35 1.195 . S
C36 O37 1.313 . S
O37 C36 1.313 . S
O38 Mg26 2.141 . S
O38 C29 1.289 . S
Mg39 O46 2.141 . S
Mg39 O47 2.048 . S
Mg39 O48 2.048 . S
Mg39 O51 2.141 . S
C40 O41 1.313 . S
C40 O47 1.195 1_455 S
O41 C40 1.313 . S
C42 O43 1.245 1_655 S
C42 O51 1.284 1_556 S
O43 C42 1.245 1_455 S
C44 O45 1.245 . S
C44 O46 1.289 1_455 S
O45 C44 1.245 . S
O46 Mg39 2.141 . S
O46 C44 1.289 1_655 S
O47 Mg39 2.048 . S
O47 C40 1.195 1_655 S
O48 Mg39 2.048 . S
O48 C49 1.195 1_655 S
C49 O48 1.195 1_455 S
C49 O50 1.313 . S
O50 C49 1.313 . S
O51 Mg39 2.141 . S
O51 C42 1.284 1_554 S
Mg52 O59 2.141 . S
Mg52 O60 2.048 . S
Mg52 O61 2.048 . S
Mg52 O64 2.141 . S
C53 O54 1.339 . S
C53 O60 1.177 1_545 S
O54 C53 1.339 . S
C55 O56 1.245 . S
C55 O64 1.289 1_545 S
O56 C55 1.245 . S
C57 O58 1.245 . S
C57 O59 1.289 1_545 S
O58 C57 1.245 . S
O59 Mg52 2.141 . S
O59 C57 1.289 1_565 S
O60 Mg52 2.048 . S
O60 C53 1.177 1_565 S
O61 Mg52 2.048 . S
O61 C62 1.195 . S
C62 O61 1.195 . S
C62 O63 1.313 1_565 S
O63 C62 1.313 1_545 S
O64 Mg52 2.141 . S
O64 C55 1.289 1_565 S
Mg65 O72 2.141 . S
Mg65 O73 2.048 . S
Mg65 O74 2.048 . S
Mg65 O77 2.141 . S
C66 O67 1.313 . S
C66 O73 1.195 . S
O67 C66 1.313 . S
C68 O69 1.245 . S
C68 O77 1.289 . S
O69 C68 1.245 . S
C70 O71 1.245 . S
C70 O72 1.289 . S
O71 C70 1.245 . S
O72 Mg65 2.141 . S
O72 C70 1.289 . S
O73 Mg65 2.048 . S
O73 C66 1.195 . S
O74 Mg65 2.048 . S
O74 C75 1.195 . S
C75 O74 1.195 . S
C75 O76 1.313 . S
O76 C75 1.313 . S
O77 Mg65 2.141 . S
O77 C68 1.289 . S
Mg78 O85 2.141 . S
Mg78 O86 2.048 . S
Mg78 O87 2.048 . S
Mg78 O90 2.141 . S
C79 O80 1.313 . S
C79 O86 1.195 . S
O80 C79 1.313 . S
C81 O82 1.245 . S
C81 O90 1.289 . S
O82 C81 1.245 . S
C83 O84 1.245 . S
C83 O85 1.289 . S
O84 C83 1.245 . S
O85 Mg78 2.141 . S
O85 C83 1.289 . S
O86 Mg78 2.048 . S
O86 C79 1.195 . S
O87 Mg78 2.048 . S
O87 C88 1.195 . S
C88 O87 1.195 . S
C88 O89 1.313 . S
O89 C88 1.313 . S
O90 Mg78 2.141 . S
O90 C81 1.289 . S
Mg91 O98 2.141 . S
Mg91 O99 2.048 . S
Mg91 O100 2.048 . S
Mg91 O103 2.141 . S
C92 O93 1.313 . S
C92 O99 1.195 1_655 S
O93 C92 1.313 . S
C94 O95 1.245 1_455 S
C94 O103 1.289 . S
O95 C94 1.245 1_655 S
C96 O97 1.245 . S
C96 O98 1.289 1_655 S
O97 C96 1.245 . S
O98 Mg91 2.141 . S
O98 C96 1.289 1_455 S
O99 Mg91 2.048 . S
O99 C92 1.195 1_455 S
O100 Mg91 2.048 . S
O100 C101 1.195 1_455 S
C101 O100 1.195 1_655 S
C101 O102 1.313 . S
O102 C101 1.313 . S
O103 Mg91 2.141 . S
O103 C94 1.289 . S
Mg104 O111 2.141 . S
Mg104 O112 2.048 . S
Mg104 O113 2.048 . S
Mg104 O116 2.141 . S
C105 O106 1.313 . S
C105 O112 1.195 1_565 S
O106 C105 1.313 . S
C107 O108 1.245 . S
C107 O116 1.289 1_565 S
O108 C107 1.245 . S
C109 O110 1.245 1_545 S
C109 O111 1.289 . S
O110 C109 1.245 1_565 S
O111 Mg104 2.141 . S
O111 C109 1.289 . S
O112 Mg104 2.048 . S
O112 C105 1.195 1_545 S
O113 Mg104 2.048 . S
O113 C114 1.195 1_545 S
C114 O113 1.195 1_565 S
C114 O115 1.313 . S
O115 C114 1.313 . S
O116 Mg104 2.141 . S
O116 C107 1.289 1_545 S
Mg117 O124 2.141 . S
Mg117 O125 2.048 . S
Mg117 O126 2.048 . S
Mg117 O129 2.141 . S
C118 O119 1.313 . S
C118 O125 1.195 . S
O119 C118 1.313 . S
C120 O121 1.245 . S
C120 O129 1.289 . S
O121 C120 1.245 . S
C122 O123 1.245 . S
C122 O124 1.289 . S
O123 C122 1.245 . S
O124 Mg117 2.141 . S
O124 C122 1.289 . S
O125 Mg117 2.048 . S
O125 C118 1.195 . S
O126 Mg117 2.048 . S
O126 C127 1.195 . S
C127 O126 1.195 . S
C127 O128 1.313 . S
O128 C127 1.313 . S
O129 Mg117 2.141 . S
O129 C120 1.289 . S
Mg130 O137 2.141 . S
Mg130 O138 2.048 . S
Mg130 O139 2.048 . S
Mg130 O142 2.141 . S
C131 O132 1.313 . S
C131 O138 1.195 . S
O132 C131 1.313 . S
C133 O134 1.245 . S
C133 O142 1.289 . S
O134 C133 1.245 . S
C135 O136 1.245 . S
C135 O137 1.289 . S
O136 C135 1.245 . S
O137 Mg130 2.141 . S
O137 C135 1.289 . S
O138 Mg130 2.048 . S
O138 C131 1.195 . S
O139 Mg130 2.048 . S
O139 C140 1.195 . S
C140 O139 1.195 . S
C140 O141 1.313 . S
O141 C140 1.313 . S
O142 Mg130 2.141 . S
O142 C133 1.289 . S
Mg143 O150 2.141 . S
Mg143 O151 2.048 . S
Mg143 O152 2.048 . S
Mg143 O155 2.141 . S
C144 O145 1.313 . S
C144 O151 1.195 1_655 S
O145 C144 1.313 . S
C146 O147 1.245 . S
C146 O155 1.289 1_655 S
O147 C146 1.245 . S
C148 O149 1.245 1_455 S
C148 O150 1.284 1_554 S
O149 C148 1.245 1_655 S
O150 Mg143 2.141 . S
O150 C148 1.284 1_556 S
O151 Mg143 2.048 . S
O151 C144 1.195 1_455 S
O152 Mg143 2.048 . S
O152 C153 1.195 1_455 S
C153 O152 1.195 1_655 S
C153 O154 1.313 . S
O154 C153 1.313 . S
O155 Mg143 2.141 . S
O155 C146 1.289 1_455 S
Mg156 O163 2.141 . S
Mg156 O164 2.048 . S
Mg156 O165 2.048 . S
Mg156 O168 2.141 . S
C157 O158 1.313 . S
C157 O164 1.195 1_545 S
O158 C157 1.313 . S
C159 O160 1.245 . S
C159 O168 1.289 1_545 S
O160 C159 1.245 . S
C161 O162 1.245 1_565 S
C161 O163 1.289 . S
O162 C161 1.245 1_545 S
O163 Mg156 2.141 . S
O163 C161 1.289 . S
O164 Mg156 2.048 . S
O164 C157 1.195 1_565 S
O165 Mg156 2.048 . S
O165 C166 1.195 1_565 S
C166 O165 1.195 1_545 S
C166 O167 1.313 . S
O167 C166 1.313 . S
O168 Mg156 2.141 . S
O168 C159 1.289 1_565 S
Mg169 O176 2.141 . S
Mg169 O177 2.048 . S
Mg169 O178 2.048 . S
Mg169 O181 2.141 . S
C170 O171 1.313 . S
C170 O177 1.195 . S
O171 C170 1.313 . S
C172 O173 1.245 . S
C172 O181 1.289 . S
O173 C172 1.245 . S
C174 O175 1.245 . S
C174 O176 1.289 . S
O175 C174 1.245 . S
O176 Mg169 2.141 . S
O176 C174 1.289 . S
O177 Mg169 2.048 . S
O177 C170 1.195 . S
O178 Mg169 2.048 . S
O178 C179 1.195 . S
C179 O178 1.195 . S
C179 O180 1.313 . S
O180 C179 1.313 . S
O181 Mg169 2.141 . S
O181 C172 1.289 . S
Mg182 O189 2.141 . S
Mg182 O190 2.048 . S
Mg182 O191 2.048 . S
Mg182 O194 2.141 . S
C183 O184 1.313 . S
C183 O190 1.195 . S
O184 C183 1.313 . S
C185 O186 1.245 . S
C185 O194 1.289 . S
O186 C185 1.245 . S
C187 O188 1.245 . S
C187 O189 1.289 . S
O188 C187 1.245 . S
O189 Mg182 2.141 . S
O189 C187 1.289 . S
O190 Mg182 2.048 . S
O190 C183 1.195 . S
O191 Mg182 2.048 . S
O191 C192 1.195 . S
C192 O191 1.195 . S
C192 O193 1.313 . S
O193 C192 1.313 . S
O194 Mg182 2.141 . S
O194 C185 1.289 . S
Mg195 O202 2.141 . S
Mg195 O203 2.048 . S
Mg195 O204 2.048 . S
Mg195 O207 2.141 . S
C196 O197 1.313 . S
C196 O203 1.195 1_455 S
O197 C196 1.313 . S
C198 O199 1.245 . S
C198 O207 1.289 1_455 S
O199 C198 1.245 . S
C200 O201 1.245 1_655 S
C200 O202 1.289 . S
O201 C200 1.245 1_455 S
O202 Mg195 2.141 . S
O202 C200 1.289 . S
O203 Mg195 2.048 . S
O203 C196 1.195 1_655 S
O204 Mg195 2.048 . S
O204 C205 1.195 1_655 S
C205 O204 1.195 1_455 S
C205 O206 1.313 . S
O206 C205 1.313 . S
O207 Mg195 2.141 . S
O207 C198 1.289 1_655 S
H208 C214 0.930 . S
H209 C217 0.930 . S
H210 C218 0.930 . S
H211 C219 0.930 . S
H212 C222 0.930 . S
H213 C223 0.930 . S
C214 H208 0.930 . S
C214 C215 1.355 . S
C214 C216 1.415 . S
C215 C214 1.355 . S
C215 C217 1.419 . S
C216 C214 1.415 . S
C216 C221 1.425 . S
C216 C223 1.409 . S
C217 H209 0.930 . S
C217 C215 1.419 . S
C217 C218 1.362 . S
C218 H210 0.930 . S
C218 C217 1.362 . S
C218 C221 1.409 . S
C219 H211 0.930 . S
C219 C220 1.355 . S
C219 C221 1.415 . S
C220 C219 1.355 . S
C220 C222 1.419 . S
C221 C216 1.425 . S
C221 C218 1.409 . S
C221 C219 1.415 . S
C222 H212 0.930 . S
C222 C220 1.419 . S
C222 C223 1.362 . S
C223 H213 0.930 . S
C223 C216 1.409 . S
C223 C222 1.362 . S
H224 C230 0.930 . S
H225 C233 0.930 . S
H226 C234 0.930 . S
H227 C235 0.930 . S
H228 C238 0.930 . S
H229 C239 0.930 . S
C230 H224 0.930 . S
C230 C231 1.355 . S
C230 C232 1.415 . S
C231 C230 1.355 . S
C231 C233 1.419 . S
C232 C230 1.415 . S
C232 C237 1.425 . S
C232 C239 1.409 . S
C233 H225 0.930 . S
C233 C231 1.419 . S
C233 C234 1.362 . S
C234 H226 0.930 . S
C234 C233 1.362 . S
C234 C237 1.409 . S
C235 H227 0.930 . S
C235 C236 1.355 . S
C235 C237 1.415 . S
C236 C235 1.355 . S
C236 C238 1.419 . S
C237 C232 1.425 . S
C237 C234 1.409 . S
C237 C235 1.415 . S
C238 H228 0.930 . S
C238 C236 1.419 . S
C238 C239 1.362 . S
C239 H229 0.930 . S
C239 C232 1.409 . S
C239 C238 1.362 . S
H240 C246 0.930 . S
H241 C249 0.930 . S
H242 C250 0.930 . S
H243 C251 0.930 . S
H244 C254 0.930 . S
H245 C255 0.930 . S
C246 H240 0.930 . S
C246 C247 1.355 . S
C246 C248 1.415 . S
C247 C246 1.355 . S
C247 C249 1.419 . S
C248 C246 1.415 . S
C248 C253 1.425 . S
C248 C255 1.409 . S
C249 H241 0.930 . S
C249 C247 1.419 . S
C249 C250 1.362 . S
C250 H242 0.930 . S
C250 C249 1.362 . S
C250 C253 1.409 . S
C251 H243 0.930 . S
C251 C252 1.355 . S
C251 C253 1.415 . S
C252 C251 1.355 . S
C252 C254 1.419 . S
C253 C248 1.425 . S
C253 C250 1.409 . S
C253 C251 1.415 . S
C254 H244 0.930 . S
C254 C252 1.419 . S
C254 C255 1.362 . S
C255 H245 0.930 . S
C255 C248 1.409 . S
C255 C254 1.362 . S
H256 C262 0.930 . S
H257 C265 0.930 1_655 S
H258 C266 0.930 . S
H259 C267 0.930 . S
H260 C270 0.930 . S
H261 C271 0.930 . S
C262 H256 0.930 . S
C262 C263 1.355 . S
C262 C264 1.415 . S
C263 C262 1.355 . S
C263 C265 1.419 . S
C264 C262 1.415 . S
C264 C269 1.425 . S
C264 C271 1.409 . S
C265 H257 0.930 1_455 S
C265 C263 1.419 . S
C265 C266 1.362 . S
C266 H258 0.930 . S
C266 C265 1.362 . S
C266 C269 1.409 . S
C267 H259 0.930 . S
C267 C268 1.355 . S
C267 C269 1.415 . S
C268 C267 1.355 . S
C268 C270 1.419 . S
C269 C264 1.425 . S
C269 C266 1.409 . S
C269 C267 1.415 . S
C270 H260 0.930 . S
C270 C268 1.419 . S
C270 C271 1.362 . S
C271 H261 0.930 . S
C271 C264 1.409 . S
C271 C270 1.362 . S
H272 C278 0.930 . S
H273 C281 0.930 . S
H274 C282 0.930 . S
H275 C283 0.930 . S
H276 C286 0.930 . S
H277 C287 0.930 . S
C278 H272 0.930 . S
C278 C279 1.355 . S
C278 C280 1.415 . S
C279 C278 1.355 . S
C279 C281 1.419 . S
C280 C278 1.415 . S
C280 C285 1.425 . S
C280 C287 1.409 . S
C281 H273 0.930 . S
C281 C279 1.419 . S
C281 C282 1.362 . S
C282 H274 0.930 . S
C282 C281 1.362 . S
C282 C285 1.409 . S
C283 H275 0.930 . S
C283 C284 1.355 . S
C283 C285 1.415 . S
C284 C283 1.355 . S
C284 C286 1.419 . S
C285 C280 1.425 . S
C285 C282 1.409 . S
C285 C283 1.415 . S
C286 H276 0.930 . S
C286 C284 1.419 . S
C286 C287 1.362 . S
C287 H277 0.930 . S
C287 C280 1.409 . S
C287 C286 1.362 . S
H288 C294 0.930 . S
H289 C297 0.930 . S
H290 C298 0.930 . S
H291 C299 0.930 . S
H292 C302 0.930 . S
H293 C303 0.930 . S
C294 H288 0.930 . S
C294 C295 1.355 . S
C294 C296 1.415 . S
C295 C294 1.355 . S
C295 C297 1.419 . S
C296 C294 1.415 . S
C296 C301 1.425 . S
C296 C303 1.409 . S
C297 H289 0.930 . S
C297 C295 1.419 . S
C297 C298 1.362 . S
C298 H290 0.930 . S
C298 C297 1.362 . S
C298 C301 1.409 . S
C299 H291 0.930 . S
C299 C300 1.355 . S
C299 C301 1.415 . S
C300 C299 1.355 . S
C300 C302 1.419 . S
C301 C296 1.425 . S
C301 C298 1.409 . S
C301 C299 1.415 . S
C302 H292 0.930 . S
C302 C300 1.419 . S
C302 C303 1.362 . S
C303 H293 0.930 . S
C303 C296 1.409 . S
C303 C302 1.362 . S
H304 C310 0.930 . S
H305 C313 0.930 1_655 S
H306 C314 0.930 . S
H307 C315 0.930 . S
H308 C318 0.930 . S
H309 C319 0.930 . S
C310 H304 0.930 . S
C310 C311 1.355 . S
C310 C312 1.415 . S
C311 C310 1.355 . S
C311 C313 1.419 . S
C312 C310 1.415 . S
C312 C317 1.425 . S
C312 C319 1.409 . S
C313 H305 0.930 1_455 S
C313 C311 1.419 . S
C313 C314 1.362 . S
C314 H306 0.930 . S
C314 C313 1.362 . S
C314 C317 1.409 . S
C315 H307 0.930 . S
C315 C316 1.355 . S
C315 C317 1.415 . S
C316 C315 1.355 . S
C316 C318 1.419 . S
C317 C312 1.425 . S
C317 C314 1.409 . S
C317 C315 1.415 . S
C318 H308 0.930 . S
C318 C316 1.419 . S
C318 C319 1.362 . S
C319 H309 0.930 . S
C319 C312 1.409 . S
C319 C318 1.362 . S
H320 C326 0.930 . S
H321 C329 0.930 1_455 S
H322 C330 0.930 . S
H323 C331 0.930 . S
H324 C334 0.930 . S
H325 C335 0.930 . S
C326 H320 0.930 . S
C326 C327 1.355 . S
C326 C328 1.415 . S
C327 C326 1.355 . S
C327 C329 1.419 . S
C328 C326 1.415 . S
C328 C333 1.425 . S
C328 C335 1.409 . S
C329 H321 0.930 1_655 S
C329 C327 1.419 . S
C329 C330 1.362 . S
C330 H322 0.930 . S
C330 C329 1.362 . S
C330 C333 1.409 . S
C331 H323 0.930 . S
C331 C332 1.355 . S
C331 C333 1.415 . S
C332 C331 1.355 . S
C332 C334 1.419 . S
C333 C328 1.425 . S
C333 C330 1.409 . S
C333 C331 1.415 . S
C334 H324 0.930 . S
C334 C332 1.419 . S
C334 C335 1.362 . S
C335 H325 0.930 . S
C335 C328 1.409 . S
C335 C334 1.362 . S
H336 C342 0.930 . S
H337 C345 0.930 . S
H338 C346 0.930 . S
H339 C347 0.930 . S
H340 C350 0.930 . S
H341 C351 0.930 . S
C342 H336 0.930 . S
C342 C343 1.355 1_545 S
C342 C344 1.415 . S
C343 C342 1.355 1_565 S
C343 C345 1.419 . S
C344 C342 1.415 . S
C344 C349 1.425 1_545 S
C344 C351 1.409 . S
C345 H337 0.930 . S
C345 C343 1.419 . S
C345 C346 1.362 . S
C346 H338 0.930 . S
C346 C345 1.362 . S
C346 C349 1.409 . S
C347 H339 0.930 . S
C347 C348 1.333 1_565 S
C347 C349 1.415 . S
C348 C347 1.333 1_545 S
C348 C350 1.441 . S
C349 C344 1.425 1_565 S
C349 C346 1.409 . S
C349 C347 1.415 . S
C350 H340 0.930 . S
C350 C348 1.441 . S
C350 C351 1.362 . S
C351 H341 0.930 . S
C351 C344 1.409 . S
C351 C350 1.362 . S
H352 C358 0.930 . S
H353 C361 0.930 . S
H354 C362 0.930 . S
H355 C363 0.930 . S
H356 C366 0.930 . S
H357 C367 0.930 . S
C358 H352 0.930 . S
C358 C359 1.355 . S
C358 C360 1.415 . S
C359 C358 1.355 . S
C359 C361 1.419 . S
C360 C358 1.415 . S
C360 C365 1.425 . S
C360 C367 1.409 . S
C361 H353 0.930 . S
C361 C359 1.419 . S
C361 C362 1.362 . S
C362 H354 0.930 . S
C362 C361 1.362 . S
C362 C365 1.409 . S
C363 H355 0.930 . S
C363 C364 1.355 . S
C363 C365 1.415 . S
C364 C363 1.355 . S
C364 C366 1.419 . S
C365 C360 1.425 . S
C365 C362 1.409 . S
C365 C363 1.415 . S
C366 H356 0.930 . S
C366 C364 1.419 . S
C366 C367 1.362 . S
C367 H357 0.930 . S
C367 C360 1.409 . S
C367 C366 1.362 . S
H368 C374 0.930 . S
H369 C377 0.930 . S
H370 C378 0.930 . S
H371 C379 0.930 . S
H372 C382 0.930 . S
H373 C383 0.930 . S
C374 H368 0.930 . S
C374 C375 1.355 . S
C374 C376 1.415 . S
C375 C374 1.355 . S
C375 C377 1.419 . S
C376 C374 1.415 . S
C376 C381 1.425 . S
C376 C383 1.409 . S
C377 H369 0.930 . S
C377 C375 1.419 . S
C377 C378 1.362 . S
C378 H370 0.930 . S
C378 C377 1.362 . S
C378 C381 1.409 . S
C379 H371 0.930 . S
C379 C380 1.355 . S
C379 C381 1.415 . S
C380 C379 1.355 . S
C380 C382 1.419 . S
C381 C376 1.425 . S
C381 C378 1.409 . S
C381 C379 1.415 . S
C382 H372 0.930 . S
C382 C380 1.419 . S
C382 C383 1.362 . S
C383 H373 0.930 . S
C383 C376 1.409 . S
C383 C382 1.362 . S
H384 C390 0.923 1_455 S
H385 C393 0.930 . S
H386 C394 0.930 . S
H387 C395 0.930 . S
H388 C398 0.930 . S
H389 C399 0.930 . S
C390 H384 0.923 1_655 S
C390 C391 1.361 . S
C390 C392 1.415 1_655 S
C391 C390 1.361 . S
C391 C393 1.419 . S
C392 C390 1.415 1_455 S
C392 C397 1.428 1_455 S
C392 C399 1.407 . S
C393 H385 0.930 . S
C393 C391 1.419 . S
C393 C394 1.362 . S
C394 H386 0.930 . S
C394 C393 1.362 . S
C394 C397 1.409 . S
C395 H387 0.930 . S
C395 C396 1.368 . S
C395 C397 1.415 . S
C396 C395 1.368 . S
C396 C398 1.406 1_655 S
C397 C392 1.428 1_655 S
C397 C394 1.409 . S
C397 C395 1.415 . S
C398 H388 0.930 . S
C398 C396 1.406 1_455 S
C398 C399 1.362 . S
C399 H389 0.930 . S
C399 C392 1.407 . S
C399 C398 1.362 . S
H400 C406 0.930 . S
H401 C409 0.930 . S
H402 C410 0.930 1_565 S
H403 C411 0.930 . S
H404 C414 0.930 . S
H405 C415 0.930 . S
C406 H400 0.930 . S
C406 C407 1.355 . S
C406 C408 1.415 . S
C407 C406 1.355 . S
C407 C409 1.419 . S
C408 C406 1.415 . S
C408 C413 1.425 . S
C408 C415 1.409 . S
C409 H401 0.930 . S
C409 C407 1.419 . S
C409 C410 1.362 . S
C410 H402 0.930 1_545 S
C410 C409 1.362 . S
C410 C413 1.409 . S
C411 H403 0.930 . S
C411 C412 1.355 1_565 S
C411 C413 1.415 1_565 S
C412 C411 1.355 1_545 S
C412 C414 1.419 . S
C413 C408 1.425 . S
C413 C410 1.409 . S
C413 C411 1.415 1_545 S
C414 H404 0.930 . S
C414 C412 1.419 . S
C414 C415 1.362 . S
C415 H405 0.930 . S
C415 C408 1.409 . S
C415 C414 1.362 . S
H416 C422 0.930 . S
H417 C425 0.930 . S
H418 C426 0.930 . S
H419 C427 0.930 . S
H420 C430 0.930 . S
H421 C431 0.930 . S
C422 H416 0.930 . S
C422 C423 1.355 . S
C422 C424 1.415 . S
C423 C422 1.355 . S
C423 C425 1.419 . S
C424 C422 1.415 . S
C424 C429 1.425 . S
C424 C431 1.409 . S
C425 H417 0.930 . S
C425 C423 1.419 . S
C425 C426 1.362 . S
C426 H418 0.930 . S
C426 C425 1.362 . S
C426 C429 1.409 . S
C427 H419 0.930 . S
C427 C428 1.355 . S
C427 C429 1.415 . S
C428 C427 1.355 . S
C428 C430 1.419 . S
C429 C424 1.425 . S
C429 C426 1.409 . S
C429 C427 1.415 . S
C430 H420 0.930 . S
C430 C428 1.419 . S
C430 C431 1.362 . S
C431 H421 0.930 . S
C431 C424 1.409 . S
C431 C430 1.362 . S
H432 C438 0.930 . S
H433 C441 0.930 . S
H434 C442 0.930 . S
H435 C443 0.930 . S
H436 C446 0.930 . S
H437 C447 0.930 . S
C438 H432 0.930 . S
C438 C439 1.355 . S
C438 C440 1.415 . S
C439 C438 1.355 . S
C439 C441 1.419 . S
C440 C438 1.415 . S
C440 C445 1.425 . S
C440 C447 1.409 . S
C441 H433 0.930 . S
C441 C439 1.419 . S
C441 C442 1.362 . S
C442 H434 0.930 . S
C442 C441 1.362 . S
C442 C445 1.409 . S
C443 H435 0.930 . S
C443 C444 1.355 . S
C443 C445 1.415 . S
C444 C443 1.355 . S
C444 C446 1.419 . S
C445 C440 1.425 . S
C445 C442 1.409 . S
C445 C443 1.415 . S
C446 H436 0.930 . S
C446 C444 1.419 . S
C446 C447 1.362 . S
C447 H437 0.930 . S
C447 C440 1.409 . S
C447 C446 1.362 . S
H448 C454 0.930 . S
H449 C457 0.930 . S
H450 C458 0.930 . S
H451 C459 0.930 . S
H452 C462 0.930 . S
H453 C463 0.930 . S
C454 H448 0.930 . S
C454 C455 1.355 . S
C454 C456 1.415 . S
C455 C454 1.355 . S
C455 C457 1.419 1_455 S
C456 C454 1.415 . S
C456 C461 1.440 . S
C456 C463 1.409 . S
C457 H449 0.930 . S
C457 C455 1.419 1_655 S
C457 C458 1.362 . S
C458 H450 0.930 . S
C458 C457 1.362 . S
C458 C461 1.401 1_655 S
C459 H451 0.930 . S
C459 C460 1.355 1_655 S
C459 C461 1.409 1_655 S
C460 C459 1.355 1_455 S
C460 C462 1.419 . S
C461 C456 1.440 . S
C461 C458 1.401 1_455 S
C461 C459 1.409 1_455 S
C462 H452 0.930 . S
C462 C460 1.419 . S
C462 C463 1.362 . S
C463 H453 0.930 . S
C463 C456 1.409 . S
C463 C462 1.362 . S
H464 C470 0.930 . S
H465 C473 0.930 . S
H466 C474 0.930 . S
H467 C475 0.930 . S
H468 C478 0.930 . S
H469 C479 0.930 . S
C470 H464 0.930 . S
C470 C471 1.355 . S
C470 C472 1.415 . S
C471 C470 1.355 . S
C471 C473 1.419 . S
C472 C470 1.415 . S
C472 C477 1.425 . S
C472 C479 1.409 . S
C473 H465 0.930 . S
C473 C471 1.419 . S
C473 C474 1.362 . S
C474 H466 0.930 . S
C474 C473 1.362 . S
C474 C477 1.409 . S
C475 H467 0.930 . S
C475 C476 1.355 . S
C475 C477 1.415 . S
C476 C475 1.355 . S
C476 C478 1.419 . S
C477 C472 1.425 . S
C477 C474 1.409 . S
C477 C475 1.415 . S
C478 H468 0.930 . S
C478 C476 1.419 . S
C478 C479 1.362 . S
C479 H469 0.930 . S
C479 C472 1.409 . S
C479 C478 1.362 . S
H480 C486 0.930 . S
H481 C489 0.930 . S
H482 C490 0.930 . S
H483 C491 0.930 . S
H484 C494 0.930 . S
H485 C495 0.930 . S
C486 H480 0.930 . S
C486 C487 1.355 . S
C486 C488 1.415 . S
C487 C486 1.355 . S
C487 C489 1.419 . S
C488 C486 1.415 . S
C488 C493 1.425 . S
C488 C495 1.409 . S
C489 H481 0.930 . S
C489 C487 1.419 . S
C489 C490 1.362 . S
C490 H482 0.930 . S
C490 C489 1.362 . S
C490 C493 1.409 . S
C491 H483 0.930 . S
C491 C492 1.355 . S
C491 C493 1.415 . S
C492 C491 1.355 . S
C492 C494 1.419 . S
C493 C488 1.425 . S
C493 C490 1.409 . S
C493 C491 1.415 . S
C494 H484 0.930 . S
C494 C492 1.419 . S
C494 C495 1.362 . S
C495 H485 0.930 . S
C495 C488 1.409 . S
C495 C494 1.362 . S
H496 C502 0.930 . S
H497 C505 0.930 . S
H498 C506 0.930 . S
H499 C507 0.930 . S
H500 C510 0.930 . S
H501 C511 0.930 . S
C502 H496 0.930 . S
C502 C503 1.355 . S
C502 C504 1.415 . S
C503 C502 1.355 . S
C503 C505 1.419 . S
C504 C502 1.415 . S
C504 C509 1.425 . S
C504 C511 1.409 . S
C505 H497 0.930 . S
C505 C503 1.419 . S
C505 C506 1.362 . S
C506 H498 0.930 . S
C506 C505 1.362 . S
C506 C509 1.409 . S
C507 H499 0.930 . S
C507 C508 1.355 . S
C507 C509 1.415 . S
C508 C507 1.355 . S
C508 C510 1.419 . S
C509 C504 1.425 . S
C509 C506 1.409 . S
C509 C507 1.415 . S
C510 H500 0.930 . S
C510 C508 1.419 . S
C510 C511 1.362 . S
C511 H501 0.930 . S
C511 C504 1.409 . S
C511 C510 1.362 . S
H512 C518 0.930 . S
H513 C521 0.930 . S
H514 C522 0.930 . S
H515 C523 0.930 . S
H516 C526 0.930 . S
H517 C527 0.930 . S
C518 H512 0.930 . S
C518 C519 1.355 . S
C518 C520 1.415 . S
C519 C518 1.355 . S
C519 C521 1.419 1_455 S
C520 C518 1.415 . S
C520 C525 1.425 . S
C520 C527 1.409 . S
C521 H513 0.930 . S
C521 C519 1.419 1_655 S
C521 C522 1.362 . S
C522 H514 0.930 . S
C522 C521 1.362 . S
C522 C525 1.409 1_655 S
C523 H515 0.930 . S
C523 C524 1.355 1_655 S
C523 C525 1.415 1_655 S
C524 C523 1.355 1_455 S
C524 C526 1.419 . S
C525 C520 1.425 . S
C525 C522 1.409 1_455 S
C525 C523 1.415 1_455 S
C526 H516 0.930 . S
C526 C524 1.419 . S
C526 C527 1.362 . S
C527 H517 0.930 . S
C527 C520 1.409 . S
C527 C526 1.362 . S
H528 C534 0.930 . S
H529 C537 0.930 . S
H530 C538 0.930 . S
H531 C539 0.936 . S
H532 C542 0.930 . S
H533 C543 0.930 . S
C534 H528 0.930 . S
C534 C535 1.364 . S
C534 C536 1.415 . S
C535 C534 1.364 . S
C535 C537 1.410 1_565 S
C536 C534 1.415 . S
C536 C541 1.412 1_565 S
C536 C543 1.409 . S
C537 H529 0.930 . S
C537 C535 1.410 1_545 S
C537 C538 1.362 . S
C538 H530 0.930 . S
C538 C537 1.362 . S
C538 C541 1.421 . S
C539 H531 0.936 . S
C539 C540 1.348 1_545 S
C539 C541 1.415 . S
C540 C539 1.348 1_565 S
C540 C542 1.419 . S
C541 C536 1.412 1_545 S
C541 C538 1.421 . S
C541 C539 1.415 . S
C542 H532 0.930 . S
C542 C540 1.419 . S
C542 C543 1.362 . S
C543 H533 0.930 . S
C543 C536 1.409 . S
C543 C542 1.362 . S
H544 C550 0.930 . S
H545 C553 0.930 . S
H546 C554 0.930 . S
H547 C555 0.930 . S
H548 C558 0.930 . S
H549 C559 0.930 . S
C550 H544 0.930 . S
C550 C551 1.355 . S
C550 C552 1.415 . S
C551 C550 1.355 . S
C551 C553 1.419 . S
C552 C550 1.415 . S
C552 C557 1.425 . S
C552 C559 1.409 . S
C553 H545 0.930 . S
C553 C551 1.419 . S
C553 C554 1.362 . S
C554 H546 0.930 . S
C554 C553 1.362 . S
C554 C557 1.409 . S
C555 H547 0.930 . S
C555 C556 1.355 . S
C555 C557 1.415 . S
C556 C555 1.355 . S
C556 C558 1.419 . S
C557 C552 1.425 . S
C557 C554 1.409 . S
C557 C555 1.415 . S
C558 H548 0.930 . S
C558 C556 1.419 . S
C558 C559 1.362 . S
C559 H549 0.930 . S
C559 C552 1.409 . S
C559 C558 1.362 . S
H560 C566 0.930 . S
H561 C569 0.930 . S
H562 C570 0.930 . S
H563 C571 0.930 . S
H564 C574 0.930 . S
H565 C575 0.930 . S
C566 H560 0.930 . S
C566 C567 1.355 . S
C566 C568 1.415 . S
C567 C566 1.355 . S
C567 C569 1.419 . S
C568 C566 1.415 . S
C568 C573 1.425 . S
C568 C575 1.409 . S
C569 H561 0.930 . S
C569 C567 1.419 . S
C569 C570 1.362 . S
C570 H562 0.930 . S
C570 C569 1.362 . S
C570 C573 1.409 . S
C571 H563 0.930 . S
C571 C572 1.355 . S
C571 C573 1.415 . S
C572 C571 1.355 . S
C572 C574 1.419 . S
C573 C568 1.425 . S
C573 C570 1.409 . S
C573 C571 1.415 . S
C574 H564 0.930 . S
C574 C572 1.419 . S
C574 C575 1.362 . S
C575 H565 0.930 . S
C575 C568 1.409 . S
C575 C574 1.362 . S
H576 C582 0.930 . S
H577 C585 0.930 . S
H578 C586 0.930 . S
H579 C587 0.930 . S
H580 C590 0.933 . S
H581 C591 0.930 . S
C582 H576 0.930 . S
C582 C583 1.355 1_455 S
C582 C584 1.415 1_455 S
C583 C582 1.355 1_655 S
C583 C585 1.419 . S
C584 C582 1.415 1_655 S
C584 C589 1.425 . S
C584 C591 1.409 1_655 S
C585 H577 0.930 . S
C585 C583 1.419 . S
C585 C586 1.362 . S
C586 H578 0.930 . S
C586 C585 1.362 . S
C586 C589 1.409 . S
C587 H579 0.930 . S
C587 C588 1.355 . S
C587 C589 1.415 . S
C588 C587 1.355 . S
C588 C590 1.419 . S
C589 C584 1.425 . S
C589 C586 1.409 . S
C589 C587 1.415 . S
C590 H580 0.933 . S
C590 C588 1.419 . S
C590 C591 1.362 1_655 S
C591 H581 0.930 . S
C591 C584 1.409 1_455 S
C591 C590 1.362 1_455 S
H592 C598 0.930 . S
H593 C601 0.930 . S
H594 C602 0.930 . S
H595 C603 0.930 . S
H596 C606 0.930 . S
H597 C607 0.930 . S
C598 H592 0.930 . S
C598 C599 1.355 1_546 S
C598 C600 1.415 . S
C599 C598 1.355 1_564 S
C599 C601 1.419 . S
C600 C598 1.415 . S
C600 C605 1.425 1_546 S
C600 C607 1.409 . S
C601 H593 0.930 . S
C601 C599 1.419 . S
C601 C602 1.362 . S
C602 H594 0.930 . S
C602 C601 1.362 . S
C602 C605 1.409 . S
C603 H595 0.930 . S
C603 C604 1.355 1_564 S
C603 C605 1.415 . S
C604 C603 1.355 1_546 S
C604 C606 1.419 . S
C605 C600 1.425 1_564 S
C605 C602 1.409 . S
C605 C603 1.415 . S
C606 H596 0.930 . S
C606 C604 1.419 . S
C606 C607 1.362 . S
C607 H597 0.930 . S
C607 C600 1.409 . S
C607 C606 1.362 . S
H608 C614 0.930 . S
H609 C617 0.930 . S
H610 C618 0.930 . S
H611 C619 0.930 . S
H612 C622 0.930 . S
H613 C623 0.930 . S
C614 H608 0.930 . S
C614 C615 1.355 1_554 S
C614 C616 1.415 . S
C615 C614 1.355 1_556 S
C615 C617 1.419 . S
C616 C614 1.415 . S
C616 C621 1.425 1_554 S
C616 C623 1.409 . S
C617 H609 0.930 . S
C617 C615 1.419 . S
C617 C618 1.362 . S
C618 H610 0.930 . S
C618 C617 1.362 . S
C618 C621 1.409 . S
C619 H611 0.930 . S
C619 C620 1.355 1_556 S
C619 C621 1.415 . S
C620 C619 1.355 1_554 S
C620 C622 1.419 . S
C621 C616 1.425 1_556 S
C621 C618 1.409 . S
C621 C619 1.415 . S
C622 H612 0.930 . S
C622 C620 1.419 . S
C622 C623 1.362 . S
C623 H613 0.930 . S
C623 C616 1.409 . S
C623 C622 1.362 . S
H624 C630 0.930 . S
H625 C633 0.930 . S
H626 C634 0.930 1_455 S
H627 C635 0.930 . S
H628 C638 0.930 . S
H629 C639 0.930 1_655 S
C630 H624 0.930 . S
C630 C631 1.355 . S
C630 C632 1.415 . S
C631 C630 1.355 . S
C631 C633 1.419 1_554 S
C632 C630 1.415 . S
C632 C637 1.425 1_654 S
C632 C639 1.409 1_655 S
C633 H625 0.930 . S
C633 C631 1.419 1_556 S
C633 C634 1.362 . S
C634 H626 0.930 1_655 S
C634 C633 1.362 . S
C634 C637 1.409 1_655 S
C635 H627 0.930 . S
C635 C636 1.355 . S
C635 C637 1.415 . S
C636 C635 1.355 . S
C636 C638 1.419 1_556 S
C637 C632 1.425 1_456 S
C637 C634 1.409 1_455 S
C637 C635 1.415 . S
C638 H628 0.930 . S
C638 C636 1.419 1_554 S
C638 C639 1.362 . S
C639 H629 0.930 1_455 S
C639 C632 1.409 1_455 S
C639 C638 1.362 . S
H640 C646 0.930 . S
H641 C649 0.930 . S
H642 C650 0.930 . S
H643 C651 0.930 . S
H644 C654 0.930 . S
H645 C655 0.930 . S
C646 H640 0.930 . S
C646 C647 1.355 1_654 S
C646 C648 1.415 . S
C647 C646 1.355 1_456 S
C647 C649 1.419 . S
C648 C646 1.415 . S
C648 C653 1.425 1_644 S
C648 C655 1.409 1_545 S
C649 H641 0.930 . S
C649 C647 1.419 . S
C649 C650 1.362 . S
C650 H642 0.930 . S
C650 C649 1.362 . S
C650 C653 1.409 1_545 S
C651 H643 0.930 . S
C651 C652 1.355 1_456 S
C651 C653 1.415 . S
C652 C651 1.355 1_654 S
C652 C654 1.419 . S
C653 C648 1.425 1_466 S
C653 C650 1.409 1_565 S
C653 C651 1.415 . S
C654 H644 0.930 . S
C654 C652 1.419 . S
C654 C655 1.362 . S
C655 H645 0.930 . S
C655 C648 1.409 1_565 S
C655 C654 1.362 . S
H656 C662 0.930 . S
H657 C665 0.930 . S
H658 C666 0.930 . S
H659 C667 0.930 . S
H660 C670 0.930 . S
H661 C671 0.930 . S
C662 H656 0.930 . S
C662 C663 1.355 1_565 S
C662 C664 1.415 . S
C663 C662 1.355 1_545 S
C663 C665 1.419 . S
C664 C662 1.415 . S
C664 C669 1.425 1_465 S
C664 C671 1.409 1_455 S
C665 H657 0.930 . S
C665 C663 1.419 . S
C665 C666 1.362 . S
C666 H658 0.930 . S
C666 C665 1.362 . S
C666 C669 1.409 1_455 S
C667 H659 0.930 . S
C667 C668 1.355 1_545 S
C667 C669 1.415 . S
C668 C667 1.355 1_565 S
C668 C670 1.419 . S
C669 C664 1.425 1_645 S
C669 C666 1.409 1_655 S
C669 C667 1.415 . S
C670 H660 0.930 . S
C670 C668 1.419 . S
C670 C671 1.362 . S
C671 H661 0.930 . S
C671 C664 1.409 1_655 S
C671 C670 1.362 . S
H672 C678 0.930 . S
H673 C681 0.930 . S
H674 C682 0.930 1_545 S
H675 C683 0.930 . S
H676 C686 0.930 . S
H677 C687 0.930 1_565 S
C678 H672 0.930 . S
C678 C679 1.355 . S
C678 C680 1.415 . S
C679 C678 1.355 . S
C679 C681 1.419 . S
C680 C678 1.415 . S
C680 C685 1.425 1_565 S
C680 C687 1.409 1_565 S
C681 H673 0.930 . S
C681 C679 1.419 . S
C681 C682 1.362 . S
C682 H674 0.930 1_565 S
C682 C681 1.362 . S
C682 C685 1.409 1_565 S
C683 H675 0.930 . S
C683 C684 1.355 . S
C683 C685 1.415 . S
C684 C683 1.355 . S
C684 C686 1.419 . S
C685 C680 1.425 1_545 S
C685 C682 1.409 1_545 S
C685 C683 1.415 . S
C686 H676 0.930 . S
C686 C684 1.419 . S
C686 C687 1.362 . S
C687 H677 0.930 1_545 S
C687 C680 1.409 1_545 S
C687 C686 1.362 . S
H688 C694 0.930 . S
H689 C697 0.930 . S
H690 C698 0.930 . S
H691 C699 0.930 . S
H692 C702 0.930 . S
H693 C703 0.930 . S
C694 H688 0.930 . S
C694 C695 1.355 . S
C694 C696 1.415 . S
C695 C694 1.355 . S
C695 C697 1.419 . S
C696 C694 1.415 . S
C696 C701 1.425 . S
C696 C703 1.409 . S
C697 H689 0.930 . S
C697 C695 1.419 . S
C697 C698 1.362 . S
C698 H690 0.930 . S
C698 C697 1.362 . S
C698 C701 1.409 . S
C699 H691 0.930 . S
C699 C700 1.355 . S
C699 C701 1.415 . S
C700 C699 1.355 . S
C700 C702 1.419 . S
C701 C696 1.425 . S
C701 C698 1.409 . S
C701 C699 1.415 . S
C702 H692 0.930 . S
C702 C700 1.419 . S
C702 C703 1.362 . S
C703 H693 0.930 . S
C703 C696 1.409 . S
C703 C702 1.362 . S
H704 C710 0.930 . S
H705 C713 0.930 . S
H706 C714 0.930 . S
H707 C715 0.930 . S
H708 C718 0.930 . S
H709 C719 0.930 . S
C710 H704 0.930 . S
C710 C711 1.355 . S
C710 C712 1.415 . S
C711 C710 1.355 . S
C711 C713 1.419 1_655 S
C712 C710 1.415 . S
C712 C717 1.425 1_655 S
C712 C719 1.409 . S
C713 H705 0.930 . S
C713 C711 1.419 1_455 S
C713 C714 1.362 . S
C714 H706 0.930 . S
C714 C713 1.362 . S
C714 C717 1.409 . S
C715 H707 0.930 . S
C715 C716 1.355 . S
C715 C717 1.415 . S
C716 C715 1.355 . S
C716 C718 1.419 1_455 S
C717 C712 1.425 1_455 S
C717 C714 1.409 . S
C717 C715 1.415 . S
C718 H708 0.930 . S
C718 C716 1.419 1_655 S
C718 C719 1.362 . S
C719 H709 0.930 . S
C719 C712 1.409 . S
C719 C718 1.362 . S
C215 C66 0.964 . S
C220 C10 0.965 . S
C231 C88 1.026 . S
C236 C14 0.943 . S
C247 C36 0.968 . S
C252 C92 0.927 . S
C263 C40 0.808 . S
C268 C62 0.742 . S
C279 C114 0.863 . S
C284 C179 0.938 . S
C295 C192 1.017 . S
C300 C127 0.939 . S
C311 C205 0.931 . S
C316 C140 0.832 . S
C327 C153 0.812 . S
C332 C166 0.707 . S
C343 C5 2.017 1_556 S
C348 C157 1.996 . S
C359 C170 2.035 . S
C364 C16 1.973 1_556 S
C375 C31 2.117 1_556 S
C380 C183 2.109 . S
C391 C42 1.958 . S
C396 C196 2.019 1_655 S
C407 C57 2.049 . S
C412 C105 2.050 1_545 S
C423 C68 1.977 . S
C428 C118 2.094 . S
C439 C83 2.047 . S
C444 C131 2.045 . S
C455 C94 1.904 . S
C460 C144 2.011 1_455 S
C471 C53 1.976 . S
C476 C109 1.927 1_554 S
C487 C75 2.018 . S
C492 C122 1.971 1_554 S
C503 C79 2.048 . S
C508 C135 1.966 1_554 S
C519 C148 1.919 . S
C524 C101 2.043 1_455 S
C535 C1 1.982 . S
C540 C161 1.953 . S
C551 C174 1.977 . S
C556 C23 2.116 . S
C567 C187 1.963 . S
C572 C27 2.024 . S
C583 C49 2.012 1_655 S
C588 C200 1.913 . S
C599 C107 1.569 1_554 S
C604 C3 1.569 1_546 S
C615 C120 1.540 . S
C620 C18 1.540 . S
C631 C29 1.704 . S
C636 C133 1.732 . S
C647 C146 1.688 1_455 S
C652 C44 1.689 1_655 S
C663 C55 1.636 . S
C668 C159 1.697 1_565 S
C679 C172 1.747 . S
C684 C70 1.747 . S
C695 C185 1.615 . S
C700 C81 1.597 . S
C711 C198 1.539 1_655 S
C716 C96 1.541 1_455 S
