# Generated by pormake.
# Topology wjc, (7)-cn, num edge types: 1
# Building blocks:
#     Node 0, Type 0, BuildingBlock: NUHQUE_clean_sbu_2, # of connection points: 7
#     Node 1, Type 0, BuildingBlock: NUHQUE_clean_sbu_2, # of connection points: 7
#     Node 2, Type 0, BuildingBlock: NUHQUE_clean_sbu_2, # of connection points: 7
#     Node 3, Type 0, BuildingBlock: NUHQUE_clean_sbu_2, # of connection points: 7
#     Node 4, Type 0, BuildingBlock: NUHQUE_clean_sbu_2, # of connection points: 7
#     Node 5, Type 0, BuildingBlock: NUHQUE_clean_sbu_2, # of connection points: 7
#     Node 6, Type 0, BuildingBlock: NUHQUE_clean_sbu_2, # of connection points: 7
#     Node 7, Type 0, BuildingBlock: NUHQUE_clean_sbu_2, # of connection points: 7
#     Node 8, Type 0, BuildingBlock: NUHQUE_clean_sbu_2, # of connection points: 7
#     Node 9, Type 0, BuildingBlock: NUHQUE_clean_sbu_2, # of connection points: 7
#     Node 10, Type 0, BuildingBlock: NUHQUE_clean_sbu_2, # of connection points: 7
#     Node 11, Type 0, BuildingBlock: NUHQUE_clean_sbu_2, # of connection points: 7
#     Node 12, Type 0, BuildingBlock: NUHQUE_clean_sbu_2, # of connection points: 7
#     Node 13, Type 0, BuildingBlock: NUHQUE_clean_sbu_2, # of connection points: 7
#     Node 14, Type 0, BuildingBlock: NUHQUE_clean_sbu_2, # of connection points: 7
#     Node 15, Type 0, BuildingBlock: NUHQUE_clean_sbu_2, # of connection points: 7
#     Node 16, Type 0, BuildingBlock: NUHQUE_clean_sbu_2, # of connection points: 7
#     Node 17, Type 0, BuildingBlock: NUHQUE_clean_sbu_2, # of connection points: 7
#     Node 18, Type 0, BuildingBlock: NUHQUE_clean_sbu_2, # of connection points: 7
#     Node 19, Type 0, BuildingBlock: NUHQUE_clean_sbu_2, # of connection points: 7
#     Node 20, Type 0, BuildingBlock: NUHQUE_clean_sbu_2, # of connection points: 7
#     Node 21, Type 0, BuildingBlock: NUHQUE_clean_sbu_2, # of connection points: 7
#     Node 22, Type 0, BuildingBlock: NUHQUE_clean_sbu_2, # of connection points: 7
#     Node 23, Type 0, BuildingBlock: NUHQUE_clean_sbu_2, # of connection points: 7
#     Edge 24, Type (0, 0), BuildingBlock: KIFKEQ_clean_linker_1, # of connection points: 2
#     Edge 25, Type (0, 0), BuildingBlock: KIFKEQ_clean_linker_1, # of connection points: 2
#     Edge 26, Type (0, 0), BuildingBlock: KIFKEQ_clean_linker_1, # of connection points: 2
#     Edge 27, Type (0, 0), BuildingBlock: KIFKEQ_clean_linker_1, # of connection points: 2
#     Edge 28, Type (0, 0), BuildingBlock: KIFKEQ_clean_linker_1, # of connection points: 2
#     Edge 29, Type (0, 0), BuildingBlock: KIFKEQ_clean_linker_1, # of connection points: 2
#     Edge 30, Type (0, 0), BuildingBlock: KIFKEQ_clean_linker_1, # of connection points: 2
#     Edge 31, Type (0, 0), BuildingBlock: KIFKEQ_clean_linker_1, # of connection points: 2
#     Edge 32, Type (0, 0), BuildingBlock: KIFKEQ_clean_linker_1, # of connection points: 2
#     Edge 33, Type (0, 0), BuildingBlock: KIFKEQ_clean_linker_1, # of connection points: 2
#     Edge 34, Type (0, 0), BuildingBlock: KIFKEQ_clean_linker_1, # of connection points: 2
#     Edge 35, Type (0, 0), BuildingBlock: KIFKEQ_clean_linker_1, # of connection points: 2
#     Edge 36, Type (0, 0), BuildingBlock: KIFKEQ_clean_linker_1, # of connection points: 2
#     Edge 37, Type (0, 0), BuildingBlock: KIFKEQ_clean_linker_1, # of connection points: 2
#     Edge 38, Type (0, 0), BuildingBlock: KIFKEQ_clean_linker_1, # of connection points: 2
#     Edge 39, Type (0, 0), BuildingBlock: KIFKEQ_clean_linker_1, # of connection points: 2
#     Edge 40, Type (0, 0), BuildingBlock: KIFKEQ_clean_linker_1, # of connection points: 2
#     Edge 41, Type (0, 0), BuildingBlock: KIFKEQ_clean_linker_1, # of connection points: 2
#     Edge 42, Type (0, 0), BuildingBlock: KIFKEQ_clean_linker_1, # of connection points: 2
#     Edge 43, Type (0, 0), BuildingBlock: KIFKEQ_clean_linker_1, # of connection points: 2
#     Edge 44, Type (0, 0), BuildingBlock: KIFKEQ_clean_linker_1, # of connection points: 2
#     Edge 45, Type (0, 0), BuildingBlock: KIFKEQ_clean_linker_1, # of connection points: 2
#     Edge 46, Type (0, 0), BuildingBlock: KIFKEQ_clean_linker_1, # of connection points: 2
#     Edge 47, Type (0, 0), BuildingBlock: KIFKEQ_clean_linker_1, # of connection points: 2
#     Edge 48, Type (0, 0), BuildingBlock: KIFKEQ_clean_linker_1, # of connection points: 2
#     Edge 49, Type (0, 0), BuildingBlock: KIFKEQ_clean_linker_1, # of connection points: 2
#     Edge 50, Type (0, 0), BuildingBlock: KIFKEQ_clean_linker_1, # of connection points: 2
#     Edge 51, Type (0, 0), BuildingBlock: KIFKEQ_clean_linker_1, # of connection points: 2
#     Edge 52, Type (0, 0), BuildingBlock: KIFKEQ_clean_linker_1, # of connection points: 2
#     Edge 53, Type (0, 0), BuildingBlock: KIFKEQ_clean_linker_1, # of connection points: 2
#     Edge 54, Type (0, 0), BuildingBlock: KIFKEQ_clean_linker_1, # of connection points: 2
#     Edge 55, Type (0, 0), BuildingBlock: KIFKEQ_clean_linker_1, # of connection points: 2
#     Edge 56, Type (0, 0), BuildingBlock: KIFKEQ_clean_linker_1, # of connection points: 2
#     Edge 57, Type (0, 0), BuildingBlock: KIFKEQ_clean_linker_1, # of connection points: 2
#     Edge 58, Type (0, 0), BuildingBlock: KIFKEQ_clean_linker_1, # of connection points: 2
#     Edge 59, Type (0, 0), BuildingBlock: KIFKEQ_clean_linker_1, # of connection points: 2
#     Edge 60, Type (0, 0), BuildingBlock: KIFKEQ_clean_linker_1, # of connection points: 2
#     Edge 61, Type (0, 0), BuildingBlock: KIFKEQ_clean_linker_1, # of connection points: 2
#     Edge 62, Type (0, 0), BuildingBlock: KIFKEQ_clean_linker_1, # of connection points: 2
#     Edge 63, Type (0, 0), BuildingBlock: KIFKEQ_clean_linker_1, # of connection points: 2
#     Edge 64, Type (0, 0), BuildingBlock: KIFKEQ_clean_linker_1, # of connection points: 2
#     Edge 65, Type (0, 0), BuildingBlock: KIFKEQ_clean_linker_1, # of connection points: 2
#     Edge 66, Type (0, 0), BuildingBlock: KIFKEQ_clean_linker_1, # of connection points: 2
#     Edge 67, Type (0, 0), BuildingBlock: KIFKEQ_clean_linker_1, # of connection points: 2
#     Edge 68, Type (0, 0), BuildingBlock: KIFKEQ_clean_linker_1, # of connection points: 2
#     Edge 69, Type (0, 0), BuildingBlock: KIFKEQ_clean_linker_1, # of connection points: 2
#     Edge 70, Type (0, 0), BuildingBlock: KIFKEQ_clean_linker_1, # of connection points: 2
#     Edge 71, Type (0, 0), BuildingBlock: KIFKEQ_clean_linker_1, # of connection points: 2
#     Edge 72, Type (0, 0), BuildingBlock: KIFKEQ_clean_linker_1, # of connection points: 2
#     Edge 73, Type (0, 0), BuildingBlock: KIFKEQ_clean_linker_1, # of connection points: 2
#     Edge 74, Type (0, 0), BuildingBlock: KIFKEQ_clean_linker_1, # of connection points: 2
#     Edge 75, Type (0, 0), BuildingBlock: KIFKEQ_clean_linker_1, # of connection points: 2
#     Edge 76, Type (0, 0), BuildingBlock: KIFKEQ_clean_linker_1, # of connection points: 2
#     Edge 77, Type (0, 0), BuildingBlock: KIFKEQ_clean_linker_1, # of connection points: 2
#     Edge 78, Type (0, 0), BuildingBlock: KIFKEQ_clean_linker_1, # of connection points: 2
#     Edge 79, Type (0, 0), BuildingBlock: KIFKEQ_clean_linker_1, # of connection points: 2
#     Edge 80, Type (0, 0), BuildingBlock: KIFKEQ_clean_linker_1, # of connection points: 2
#     Edge 81, Type (0, 0), BuildingBlock: KIFKEQ_clean_linker_1, # of connection points: 2
#     Edge 82, Type (0, 0), BuildingBlock: KIFKEQ_clean_linker_1, # of connection points: 2
#     Edge 83, Type (0, 0), BuildingBlock: KIFKEQ_clean_linker_1, # of connection points: 2
#     Edge 84, Type (0, 0), BuildingBlock: KIFKEQ_clean_linker_1, # of connection points: 2
#     Edge 85, Type (0, 0), BuildingBlock: KIFKEQ_clean_linker_1, # of connection points: 2
#     Edge 86, Type (0, 0), BuildingBlock: KIFKEQ_clean_linker_1, # of connection points: 2
#     Edge 87, Type (0, 0), BuildingBlock: KIFKEQ_clean_linker_1, # of connection points: 2
#     Edge 88, Type (0, 0), BuildingBlock: KIFKEQ_clean_linker_1, # of connection points: 2
#     Edge 89, Type (0, 0), BuildingBlock: KIFKEQ_clean_linker_1, # of connection points: 2
#     Edge 90, Type (0, 0), BuildingBlock: KIFKEQ_clean_linker_1, # of connection points: 2
#     Edge 91, Type (0, 0), BuildingBlock: KIFKEQ_clean_linker_1, # of connection points: 2
#     Edge 92, Type (0, 0), BuildingBlock: KIFKEQ_clean_linker_1, # of connection points: 2
#     Edge 93, Type (0, 0), BuildingBlock: KIFKEQ_clean_linker_1, # of connection points: 2
#     Edge 94, Type (0, 0), BuildingBlock: KIFKEQ_clean_linker_1, # of connection points: 2
#     Edge 95, Type (0, 0), BuildingBlock: KIFKEQ_clean_linker_1, # of connection points: 2
#     Edge 96, Type (0, 0), BuildingBlock: KIFKEQ_clean_linker_1, # of connection points: 2
#     Edge 97, Type (0, 0), BuildingBlock: KIFKEQ_clean_linker_1, # of connection points: 2
#     Edge 98, Type (0, 0), BuildingBlock: KIFKEQ_clean_linker_1, # of connection points: 2
#     Edge 99, Type (0, 0), BuildingBlock: KIFKEQ_clean_linker_1, # of connection points: 2
#     Edge 100, Type (0, 0), BuildingBlock: KIFKEQ_clean_linker_1, # of connection points: 2
#     Edge 101, Type (0, 0), BuildingBlock: KIFKEQ_clean_linker_1, # of connection points: 2
#     Edge 102, Type (0, 0), BuildingBlock: KIFKEQ_clean_linker_1, # of connection points: 2
#     Edge 103, Type (0, 0), BuildingBlock: KIFKEQ_clean_linker_1, # of connection points: 2
#     Edge 104, Type (0, 0), BuildingBlock: KIFKEQ_clean_linker_1, # of connection points: 2
#     Edge 105, Type (0, 0), BuildingBlock: KIFKEQ_clean_linker_1, # of connection points: 2
#     Edge 106, Type (0, 0), BuildingBlock: KIFKEQ_clean_linker_1, # of connection points: 2
#     Edge 107, Type (0, 0), BuildingBlock: KIFKEQ_clean_linker_1, # of connection points: 2
# Relax obj value: 0.270
# Max RMSD: 0.232
# Mean RMSD: 0.232
data_MOF--net-wjc--node1-NUHQUE_clean_sbu_2--edge1-KIFKEQ_clean_linker_1
_symmetry_space_group_name_H-M    P1
_symmetry_Int_Tables_number       1
_symmetry_cell_setting            triclinic
loop_
_symmetry_equiv_pos_as_xyz
'x, y, z'
_cell_length_a     51.685766
_cell_length_b     51.609073
_cell_length_c     56.524541
_cell_angle_alpha  89.957594
_cell_angle_beta   90.044424
_cell_angle_gamma 120.01142
loop_
_atom_site_label
_atom_site_type_symbol
_atom_site_fract_x
_atom_site_fract_y
_atom_site_fract_z
_atom_type_partial_charge
O0 O 0.48086 0.23212 0.12043 0.0
Tb1 Tb 0.43455 0.19618 0.11843 0.0
Eu2 Eu 0.40265 0.12026 0.12858 0.0
C3 C 0.49092 0.24861 0.13967 0.0
O4 O 0.47359 0.24108 0.15837 0.0
C5 C 0.40584 0.16541 0.16629 0.0
O6 O 0.37356 0.06986 0.12626 0.0
C7 C 0.45765 0.13382 0.13623 0.0
C8 C 0.34532 0.05536 0.13283 0.0
O9 O 0.33317 0.07056 0.14117 0.0
C10 C 0.41394 0.14892 0.07704 0.0
C11 C 0.48236 0.13046 0.12658 0.0
C12 C 0.51126 0.1556 0.12632 0.0
C13 C 0.53559 0.15301 0.11852 0.0
C14 C 0.53103 0.12525 0.11085 0.0
C15 C 0.50256 0.09971 0.11176 0.0
C16 C 0.47815 0.10242 0.1195 0.0
O17 O 0.43125 0.18295 0.15547 0.0
O18 O 0.38667 0.1393 0.15715 0.0
O19 O 0.39167 0.19558 0.11705 0.0
O20 O 0.43202 0.23599 0.10991 0.0
C21 C 0.40323 0.22384 0.11168 0.0
O22 O 0.39404 0.12742 0.09061 0.0
O23 O 0.43607 0.17365 0.08611 0.0
O24 O 0.43443 0.10985 0.14492 0.0
O25 O 0.4505 0.1514 0.12465 0.0
H26 H 0.51497 0.17697 0.1328 0.0
H27 H 0.55014 0.12315 0.10578 0.0
H28 H 0.45617 0.08266 0.12047 0.0
O29 O 0.2068 0.45078 0.12149 0.0
Tb30 Tb 0.20998 0.41111 0.12791 0.0
Eu31 Eu 0.29542 0.40502 0.1162 0.0
C32 C 0.22778 0.47779 0.12763 0.0
O33 O 0.25185 0.48144 0.13851 0.0
C34 C 0.26027 0.40801 0.15756 0.0
O35 O 0.3183 0.37761 0.11415 0.0
C36 C 0.32713 0.46046 0.10291 0.0
C37 C 0.30307 0.34932 0.10775 0.0
O38 O 0.27476 0.33778 0.10206 0.0
C39 C 0.23858 0.39578 0.08753 0.0
C40 C 0.3576 0.48575 0.0997 0.0
C41 C 0.36355 0.51446 0.10641 0.0
C42 C 0.39272 0.53877 0.10545 0.0
C43 C 0.41576 0.53443 0.09714 0.0
C44 C 0.41019 0.50612 0.08976 0.0
C45 C 0.38089 0.48166 0.09124 0.0
O46 O 0.25352 0.41908 0.13927 0.0
O47 O 0.28183 0.40192 0.1544 0.0
O48 O 0.17642 0.39172 0.15589 0.0
O49 O 0.16992 0.36732 0.12403 0.0
C50 C 0.15826 0.36742 0.14443 0.0
O51 O 0.24717 0.38494 0.10492 0.0
O52 O 0.2185 0.40379 0.09171 0.0
O53 O 0.31877 0.45232 0.12488 0.0
O54 O 0.31738 0.43778 0.08811 0.0
H55 H 0.34571 0.51767 0.11315 0.0
H56 H 0.43837 0.55329 0.09705 0.0
H57 H 0.37623 0.45952 0.08607 0.0
O58 O 0.76496 0.23847 0.12058 0.0
Tb59 Tb 0.80192 0.23044 0.12609 0.0
Eu60 Eu 0.87748 0.27629 0.13683 0.0
C61 C 0.75229 0.2456 0.13756 0.0
O62 O 0.76381 0.25101 0.15893 0.0
C63 C 0.83166 0.23468 0.17405 0.0
O64 O 0.92617 0.28981 0.13772 0.0
C65 C 0.8687 0.32081 0.14519 0.0
C66 C 0.93881 0.28731 0.15713 0.0
O67 O 0.92288 0.27751 0.17657 0.0
C68 C 0.84989 0.26125 0.08554 0.0
C69 C 0.8711 0.34834 0.13488 0.0
C70 C 0.84472 0.34936 0.13091 0.0
C71 C 0.84615 0.37562 0.12265 0.0
C72 C 0.87397 0.40106 0.11865 0.0
C73 C 0.90058 0.40122 0.12376 0.0
C74 C 0.89907 0.3745 0.13138 0.0
O75 O 0.81328 0.24134 0.16312 0.0
O76 O 0.85694 0.24047 0.16422 0.0
O77 O 0.76327 0.1858 0.12287 0.0
O78 O 0.8065 0.19057 0.12091 0.0
C79 C 0.77782 0.17149 0.12043 0.0
O80 O 0.87188 0.26352 0.09865 0.0
O81 O 0.82447 0.25647 0.09472 0.0
O82 O 0.8935 0.32101 0.15084 0.0
O83 O 0.84799 0.29509 0.13647 0.0
H84 H 0.82311 0.33001 0.13476 0.0
H85 H 0.87479 0.42143 0.11262 0.0
H86 H 0.91952 0.3745 0.13561 0.0
O87 O 0.52518 0.76984 0.10947 0.0
Tb88 Tb 0.57172 0.80479 0.10685 0.0
Eu89 Eu 0.6067 0.88124 0.11437 0.0
C90 C 0.5155 0.75317 0.12862 0.0
O91 O 0.53371 0.75967 0.14669 0.0
C92 C 0.59861 0.83756 0.15429 0.0
O93 O 0.63868 0.93092 0.11058 0.0
C94 C 0.55315 0.87195 0.12244 0.0
C95 C 0.66348 0.94538 0.12298 0.0
O96 O 0.67048 0.93049 0.13807 0.0
C97 C 0.59237 0.85015 0.06414 0.0
C98 C 0.52861 0.87628 0.11372 0.0
C99 C 0.49961 0.85131 0.1129 0.0
C100 C 0.47523 0.85469 0.10667 0.0
C101 C 0.47983 0.88309 0.10104 0.0
C102 C 0.50839 0.90844 0.10258 0.0
C103 C 0.53285 0.90494 0.10879 0.0
O104 O 0.57351 0.82046 0.14291 0.0
O105 O 0.62027 0.86112 0.14373 0.0
O106 O 0.57321 0.76426 0.0988 0.0
O107 O 0.61367 0.80334 0.10818 0.0
C108 C 0.60161 0.77517 0.1023 0.0
O109 O 0.61362 0.87165 0.07677 0.0
O110 O 0.57014 0.82632 0.07408 0.0
O111 O 0.57755 0.89544 0.13028 0.0
O112 O 0.5583 0.85284 0.11104 0.0
H113 H 0.49583 0.8294 0.11795 0.0
H114 H 0.46068 0.88573 0.09726 0.0
H115 H 0.55486 0.92454 0.11041 0.0
O116 O 0.78683 0.53327 0.12122 0.0
Tb117 Tb 0.7893 0.57582 0.12759 0.0
Eu118 Eu 0.71459 0.59879 0.12468 0.0
C119 C 0.76611 0.50786 0.13035 0.0
O120 O 0.7456 0.50756 0.14424 0.0
C121 C 0.75218 0.59116 0.16205 0.0
O122 O 0.69591 0.63019 0.12315 0.0
C123 C 0.67803 0.54275 0.11565 0.0
C124 C 0.6877 0.63684 0.10305 0.0
O125 O 0.68959 0.62419 0.08346 0.0
C126 C 0.76196 0.59763 0.08963 0.0
C127 C 0.64743 0.51798 0.11195 0.0
C128 C 0.64059 0.48912 0.11903 0.0
C129 C 0.61148 0.46499 0.11667 0.0
C130 C 0.5894 0.46973 0.10677 0.0
C131 C 0.59595 0.49821 0.09892 0.0
C132 C 0.62517 0.52249 0.10177 0.0
O133 O 0.75121 0.5752 0.14373 0.0
O134 O 0.73559 0.60375 0.16071 0.0
O135 O 0.82532 0.59477 0.15373 0.0
O136 O 0.83155 0.61638 0.12039 0.0
C137 C 0.84405 0.61705 0.14056 0.0
O138 O 0.75911 0.61264 0.10734 0.0
O139 O 0.77708 0.58352 0.09266 0.0
O140 O 0.68536 0.55341 0.13724 0.0
O141 O 0.69035 0.56327 0.09904 0.0
H142 H 0.65774 0.48555 0.12684 0.0
H143 H 0.56678 0.45099 0.10553 0.0
H144 H 0.63062 0.54472 0.0961 0.0
O145 O 0.24337 0.76122 0.11629 0.0
Tb146 Tb 0.2069 0.76891 0.12495 0.0
Eu147 Eu 0.12906 0.72241 0.13275 0.0
C148 C 0.25845 0.756 0.13249 0.0
O149 O 0.24931 0.75197 0.15457 0.0
C150 C 0.17404 0.75784 0.17123 0.0
O151 O 0.07984 0.70648 0.13214 0.0
C152 C 0.13867 0.67776 0.13716 0.0
C153 C 0.06611 0.70704 0.15155 0.0
O154 O 0.0815 0.71677 0.17126 0.0
C155 C 0.16021 0.7469 0.08316 0.0
C156 C 0.13158 0.64857 0.12695 0.0
C157 C 0.15515 0.64299 0.12256 0.0
C158 C 0.14924 0.61495 0.11429 0.0
C159 C 0.11963 0.59241 0.11049 0.0
C160 C 0.09573 0.59707 0.11555 0.0
C161 C 0.10182 0.62538 0.12359 0.0
O162 O 0.19041 0.7494 0.15945 0.0
O163 O 0.15037 0.75611 0.16137 0.0
O164 O 0.20376 0.80991 0.12224 0.0
O165 O 0.24555 0.81332 0.13004 0.0
C166 C 0.23197 0.82845 0.12667 0.0
O167 O 0.1377 0.74259 0.09661 0.0
O168 O 0.18489 0.74896 0.09169 0.0
O169 O 0.11717 0.67937 0.14824 0.0
O170 O 0.1562 0.70189 0.12485 0.0
H171 H 0.17802 0.66021 0.12612 0.0
H172 H 0.11513 0.57031 0.10526 0.0
H173 H 0.08344 0.62907 0.12771 0.0
O174 O 0.76931 0.56064 0.33967 0.0
Tb175 Tb 0.80678 0.60402 0.34953 0.0
Eu176 Eu 0.88991 0.59314 0.35791 0.0
C177 C 0.76421 0.5358 0.35027 0.0
O178 O 0.78434 0.5365 0.36485 0.0
C179 C 0.85598 0.60536 0.31705 0.0
O180 O 0.94014 0.62299 0.3601 0.0
C181 C 0.86965 0.53772 0.37056 0.0
C182 C 0.95418 0.62884 0.38055 0.0
O183 O 0.93872 0.61591 0.39974 0.0
C184 C 0.84171 0.5968 0.39032 0.0
C185 C 0.8781 0.51526 0.3768 0.0
C186 C 0.85546 0.48557 0.38109 0.0
C187 C 0.86284 0.46375 0.38738 0.0
C188 C 0.89294 0.47174 0.38927 0.0
C189 C 0.91574 0.50099 0.38424 0.0
C190 C 0.90823 0.52282 0.37807 0.0
O191 O 0.85075 0.6182 0.33495 0.0
O192 O 0.87492 0.59564 0.32042 0.0
O193 O 0.79853 0.636 0.36869 0.0
O194 O 0.78983 0.63017 0.33175 0.0
C195 C 0.78888 0.64423 0.35052 0.0
O196 O 0.8644 0.61251 0.3761 0.0
O197 O 0.81522 0.5928 0.38468 0.0
O198 O 0.87336 0.54656 0.3484 0.0
O199 O 0.8768 0.55958 0.38569 0.0
H200 H 0.83217 0.47944 0.37945 0.0
H201 H 0.89859 0.45462 0.39338 0.0
H202 H 0.92569 0.54548 0.37414 0.0
O203 O 0.24962 0.76645 0.38403 0.0
Tb204 Tb 0.23695 0.80079 0.38309 0.0
Eu205 Eu 0.27695 0.87711 0.3711 0.0
C206 C 0.26106 0.75947 0.366 0.0
O207 O 0.26879 0.77598 0.34679 0.0
C208 C 0.23692 0.82981 0.33593 0.0
O209 O 0.29209 0.92634 0.37025 0.0
C210 C 0.32064 0.86731 0.36222 0.0
C211 C 0.28763 0.93871 0.3515 0.0
O212 O 0.27421 0.92197 0.33296 0.0
C213 C 0.26567 0.85121 0.42286 0.0
C214 C 0.34968 0.87332 0.37191 0.0
C215 C 0.35358 0.84897 0.37775 0.0
C216 C 0.38109 0.85376 0.38639 0.0
C217 C 0.40475 0.88318 0.38916 0.0
C218 C 0.40152 0.90767 0.38286 0.0
C219 C 0.37389 0.90268 0.37429 0.0
O220 O 0.2476 0.81449 0.34645 0.0
O221 O 0.23894 0.85349 0.34605 0.0
O222 O 0.19545 0.75951 0.39068 0.0
O223 O 0.19326 0.79873 0.38361 0.0
C224 C 0.17758 0.77021 0.38847 0.0
O225 O 0.26574 0.87199 0.40943 0.0
O226 O 0.26116 0.8254 0.41454 0.0
O227 O 0.31891 0.88991 0.35322 0.0
O228 O 0.29684 0.84872 0.37432 0.0
H229 H 0.33528 0.82629 0.37532 0.0
H230 H 0.42645 0.88706 0.39484 0.0
H231 H 0.37147 0.92163 0.36929 0.0
O232 O 0.4667 0.21925 0.36339 0.0
Tb233 Tb 0.42455 0.21828 0.35973 0.0
Eu234 Eu 0.41344 0.30143 0.3606 0.0
C235 C 0.49078 0.23703 0.35116 0.0
O236 O 0.48993 0.25529 0.33538 0.0
C237 C 0.41106 0.25736 0.32389 0.0
O238 O 0.38598 0.32415 0.36441 0.0
C239 C 0.47052 0.33762 0.36584 0.0
C240 C 0.35838 0.30939 0.37242 0.0
O241 O 0.34712 0.28122 0.37857 0.0
C242 C 0.41309 0.25448 0.39788 0.0
C243 C 0.49376 0.36925 0.36856 0.0
C244 C 0.52391 0.37696 0.36657 0.0
C245 C 0.54674 0.40667 0.36981 0.0
C246 C 0.53927 0.42863 0.37497 0.0
C247 C 0.50935 0.42154 0.37619 0.0
C248 C 0.48648 0.39171 0.37293 0.0
O249 O 0.42558 0.25611 0.34247 0.0
O250 O 0.4035 0.2781 0.32499 0.0
O251 O 0.4003 0.17913 0.3369 0.0
O252 O 0.38503 0.17764 0.37208 0.0
C253 C 0.38053 0.16242 0.35263 0.0
O254 O 0.39725 0.25802 0.38117 0.0
O255 O 0.4233 0.23587 0.39444 0.0
O256 O 0.45741 0.32951 0.34509 0.0
O257 O 0.4521 0.32491 0.3837 0.0
H258 H 0.52963 0.35986 0.36264 0.0
H259 H 0.55693 0.45172 0.37694 0.0
H260 H 0.46328 0.38602 0.37384 0.0
O261 O 0.24466 0.48997 0.35722 0.0
Tb262 Tb 0.20919 0.44393 0.36196 0.0
Eu263 Eu 0.13333 0.4108 0.34936 0.0
C264 C 0.2536 0.50922 0.37482 0.0
O265 O 0.23903 0.5011 0.39497 0.0
C266 C 0.17995 0.41066 0.31538 0.0
O267 O 0.08361 0.37848 0.3498 0.0
C268 C 0.14619 0.46502 0.33896 0.0
C269 C 0.07272 0.35436 0.36313 0.0
O270 O 0.09123 0.34912 0.37538 0.0
C271 C 0.15982 0.42638 0.40074 0.0
C272 C 0.14352 0.49019 0.34858 0.0
C273 C 0.16919 0.51874 0.34988 0.0
C274 C 0.16706 0.54326 0.358 0.0
C275 C 0.13932 0.53924 0.36497 0.0
C276 C 0.11346 0.5111 0.36343 0.0
C277 C 0.11566 0.48654 0.3553 0.0
O278 O 0.1976 0.43717 0.32465 0.0
O279 O 0.15361 0.39261 0.32443 0.0
O280 O 0.20771 0.40083 0.36604 0.0
O281 O 0.24784 0.44112 0.37394 0.0
C282 C 0.23543 0.41218 0.37282 0.0
O283 O 0.13927 0.40498 0.38775 0.0
O284 O 0.18448 0.44818 0.3915 0.0
O285 O 0.12157 0.44107 0.33194 0.0
O286 O 0.16486 0.45881 0.34984 0.0
H287 H 0.19063 0.52202 0.34408 0.0
H288 H 0.1377 0.5585 0.37053 0.0
H289 H 0.09564 0.46478 0.35401 0.0
O290 O 0.781 0.23144 0.39976 0.0
Tb291 Tb 0.79071 0.19677 0.38854 0.0
Eu292 Eu 0.7203 0.12294 0.3723 0.0
C293 C 0.76932 0.24318 0.3856 0.0
O294 O 0.75806 0.23038 0.36517 0.0
C295 C 0.77263 0.16722 0.34033 0.0
O296 O 0.7062 0.07393 0.37512 0.0
C297 C 0.67845 0.13053 0.35412 0.0
C298 C 0.68936 0.05728 0.39267 0.0
O299 O 0.68089 0.0696 0.40897 0.0
C300 C 0.74951 0.14588 0.42331 0.0
C301 C 0.65009 0.12893 0.36104 0.0
C302 C 0.64787 0.15502 0.36039 0.0
C303 C 0.62092 0.15372 0.36629 0.0
C304 C 0.5961 0.12636 0.37268 0.0
C305 C 0.59756 0.10002 0.37262 0.0
C306 C 0.62466 0.10139 0.36693 0.0
O307 O 0.77205 0.18799 0.35326 0.0
O308 O 0.75935 0.13944 0.3477 0.0
O309 O 0.83564 0.22878 0.40117 0.0
O310 O 0.83114 0.204 0.37007 0.0
C311 C 0.85011 0.22437 0.38436 0.0
O312 O 0.72461 0.13418 0.411 0.0
O313 O 0.77591 0.15947 0.41309 0.0
O314 O 0.67861 0.10517 0.35297 0.0
O315 O 0.70319 0.15262 0.36305 0.0
H316 H 0.66687 0.17617 0.355 0.0
H317 H 0.57503 0.12538 0.37642 0.0
H318 H 0.62569 0.08093 0.36685 0.0
O319 O 0.51801 0.76436 0.37261 0.0
Tb320 Tb 0.56423 0.77508 0.3748 0.0
Eu321 Eu 0.59835 0.73698 0.36013 0.0
C322 C 0.50115 0.75736 0.39161 0.0
O323 O 0.51178 0.75431 0.41189 0.0
C324 C 0.5922 0.77978 0.32522 0.0
O325 O 0.63261 0.72275 0.35503 0.0
C326 C 0.5451 0.69226 0.35162 0.0
C327 C 0.6592 0.73741 0.36483 0.0
O328 O 0.66609 0.76112 0.3778 0.0
C329 C 0.58478 0.74469 0.41263 0.0
C330 C 0.52145 0.66405 0.36227 0.0
C331 C 0.49304 0.66062 0.36639 0.0
C332 C 0.4697 0.63361 0.37536 0.0
C333 C 0.47498 0.61001 0.38023 0.0
C334 C 0.50277 0.6126 0.37553 0.0
C335 C 0.52605 0.63973 0.36663 0.0
O336 O 0.56694 0.77116 0.33657 0.0
O337 O 0.6125 0.77453 0.33425 0.0
O338 O 0.56773 0.81616 0.38853 0.0
O339 O 0.60742 0.81681 0.37771 0.0
C340 C 0.59649 0.83287 0.38615 0.0
O341 O 0.60633 0.74729 0.39884 0.0
O342 O 0.56185 0.74605 0.40394 0.0
O343 O 0.56978 0.69314 0.34467 0.0
O344 O 0.54984 0.71739 0.36129 0.0
H345 H 0.48891 0.67876 0.36222 0.0
H346 H 0.45669 0.58868 0.38617 0.0
H347 H 0.54746 0.6416 0.3628 0.0
O348 O 0.53927 0.74427 0.85589 0.0
Tb349 Tb 0.58319 0.78163 0.84841 0.0
Eu350 Eu 0.59796 0.87485 0.85973 0.0
C351 C 0.52086 0.72815 0.83896 0.0
O352 O 0.52951 0.73392 0.81682 0.0
C353 C 0.59725 0.83786 0.81792 0.0
O354 O 0.62869 0.92384 0.86673 0.0
C355 C 0.54157 0.85373 0.86858 0.0
C356 C 0.65507 0.93662 0.85648 0.0
O357 O 0.66212 0.92005 0.84336 0.0
C358 C 0.60097 0.82381 0.89001 0.0
C359 C 0.51987 0.8625 0.87613 0.0
C360 C 0.48948 0.84059 0.8781 0.0
C361 C 0.46841 0.84856 0.88543 0.0
C362 C 0.4781 0.87861 0.89062 0.0
C363 C 0.50819 0.90073 0.88812 0.0
C364 C 0.5291 0.89254 0.88095 0.0
O365 O 0.58055 0.81919 0.83443 0.0
O366 O 0.60635 0.86612 0.82204 0.0
O367 O 0.59611 0.75674 0.82451 0.0
O368 O 0.62694 0.78527 0.85066 0.0
C369 C 0.62252 0.76637 0.83374 0.0
O370 O 0.61335 0.84334 0.87271 0.0
O371 O 0.59066 0.7954 0.88509 0.0
O372 O 0.55342 0.86276 0.84746 0.0
O373 O 0.56095 0.85575 0.88463 0.0
H374 H 0.48227 0.81745 0.87393 0.0
H375 H 0.46178 0.8851 0.89527 0.0
H376 H 0.5524 0.90951 0.87886 0.0
O377 O 0.75811 0.51285 0.88101 0.0
Tb378 Tb 0.7707 0.55922 0.87538 0.0
Eu379 Eu 0.72442 0.58629 0.86316 0.0
C380 C 0.76091 0.49717 0.86394 0.0
O381 O 0.76916 0.50924 0.84286 0.0
C382 C 0.76311 0.57864 0.82594 0.0
O383 O 0.70553 0.61682 0.85792 0.0
C384 C 0.68188 0.53081 0.8593 0.0
C385 C 0.72254 0.64426 0.85009 0.0
O386 O 0.75106 0.65409 0.84637 0.0
C387 C 0.74419 0.58288 0.91556 0.0
C388 C 0.65328 0.50879 0.87042 0.0
C389 C 0.64699 0.47911 0.87366 0.0
C390 C 0.61936 0.45739 0.88303 0.0
C391 C 0.59812 0.46551 0.88908 0.0
C392 C 0.60342 0.49452 0.88509 0.0
C393 C 0.63119 0.51627 0.87595 0.0
O394 O 0.75634 0.55491 0.83875 0.0
O395 O 0.75932 0.59986 0.83493 0.0
O396 O 0.81407 0.5623 0.87978 0.0
O397 O 0.81291 0.60239 0.87418 0.0
C398 C 0.83034 0.59115 0.8775 0.0
O399 O 0.73869 0.59935 0.9009 0.0
O400 O 0.75002 0.56213 0.90809 0.0
O401 O 0.68221 0.55312 0.84782 0.0
O402 O 0.70651 0.53883 0.87132 0.0
H403 H 0.66323 0.47277 0.86839 0.0
H404 H 0.57623 0.44839 0.89511 0.0
H405 H 0.63522 0.53868 0.87262 0.0
O406 O 0.23898 0.77145 0.86268 0.0
Tb407 Tb 0.20156 0.77941 0.86583 0.0
Eu408 Eu 0.12264 0.72961 0.85803 0.0
C409 C 0.24934 0.76428 0.88134 0.0
O410 O 0.235 0.75921 0.90152 0.0
C411 C 0.16659 0.7686 0.8189 0.0
O412 O 0.07255 0.71063 0.85891 0.0
C413 C 0.13638 0.68778 0.8533 0.0
C414 C 0.0564 0.69256 0.87612 0.0
O415 O 0.06995 0.68578 0.89264 0.0
C416 C 0.15465 0.755 0.90692 0.0
C417 C 0.13366 0.66105 0.86522 0.0
C418 C 0.15906 0.65778 0.86697 0.0
C419 C 0.15692 0.63187 0.87703 0.0
C420 C 0.12918 0.60935 0.88542 0.0
C421 C 0.10351 0.61177 0.88309 0.0
C422 C 0.10583 0.6378 0.87316 0.0
O423 O 0.18608 0.76374 0.83012 0.0
O424 O 0.14172 0.76353 0.82911 0.0
O425 O 0.20063 0.82143 0.86159 0.0
O426 O 0.2384 0.82244 0.87738 0.0
C427 C 0.2269 0.83867 0.87094 0.0
O428 O 0.13101 0.74923 0.89434 0.0
O429 O 0.17824 0.7556 0.8976 0.0
O430 O 0.11194 0.68594 0.84454 0.0
O431 O 0.15434 0.71378 0.86304 0.0
H432 H 0.1803 0.67504 0.85999 0.0
H433 H 0.12706 0.58864 0.89204 0.0
H434 H 0.08589 0.63953 0.87112 0.0
O435 O 0.44617 0.24101 0.86257 0.0
Tb436 Tb 0.40279 0.20038 0.86278 0.0
Eu437 Eu 0.41895 0.12222 0.85581 0.0
C438 C 0.4675 0.24533 0.87751 0.0
O439 O 0.46253 0.22462 0.89326 0.0
C440 C 0.39888 0.15392 0.82345 0.0
O441 O 0.38535 0.07644 0.86978 0.0
C442 C 0.47053 0.12636 0.84812 0.0
C443 C 0.35676 0.06392 0.86444 0.0
O444 O 0.34726 0.07967 0.85288 0.0
C445 C 0.40488 0.15527 0.89945 0.0
C446 C 0.49538 0.12598 0.86089 0.0
C447 C 0.52307 0.15255 0.86358 0.0
C448 C 0.54732 0.15192 0.87429 0.0
C449 C 0.54378 0.12453 0.88208 0.0
C450 C 0.51686 0.09783 0.87861 0.0
C451 C 0.49261 0.0987 0.86835 0.0
O452 O 0.40457 0.16498 0.84482 0.0
O453 O 0.4015 0.13023 0.82154 0.0
O454 O 0.37279 0.20628 0.83891 0.0
O455 O 0.36815 0.20866 0.87622 0.0
C456 C 0.35788 0.21046 0.85561 0.0
O457 O 0.42554 0.15532 0.88558 0.0
O458 O 0.39456 0.17371 0.89488 0.0
O459 O 0.44497 0.10114 0.84683 0.0
O460 O 0.46721 0.1497 0.85131 0.0
H461 H 0.526 0.17355 0.85689 0.0
H462 H 0.56287 0.12367 0.88913 0.0
H463 H 0.47191 0.07789 0.86551 0.0
O464 O 0.25217 0.49222 0.87877 0.0
Tb465 Tb 0.24646 0.44766 0.8817 0.0
Eu466 Eu 0.27667 0.40346 0.87006 0.0
C467 C 0.23627 0.49713 0.86313 0.0
O468 O 0.21821 0.47513 0.84914 0.0
C469 C 0.24035 0.41747 0.83354 0.0
O470 O 0.27676 0.36004 0.86912 0.0
C471 C 0.32828 0.44808 0.85803 0.0
C472 C 0.27309 0.34503 0.84945 0.0
O473 O 0.2678 0.35482 0.8296 0.0
C474 C 0.27863 0.43119 0.91952 0.0
C475 C 0.35628 0.47186 0.86876 0.0
C476 C 0.35993 0.50055 0.87177 0.0
C477 C 0.38712 0.52446 0.87964 0.0
C478 C 0.41054 0.51924 0.88533 0.0
C479 C 0.40761 0.49098 0.88224 0.0
C480 C 0.38043 0.46728 0.87378 0.0
O481 O 0.25211 0.44358 0.84419 0.0
O482 O 0.24106 0.3948 0.84346 0.0
O483 O 0.20753 0.40241 0.88449 0.0
O484 O 0.20453 0.43943 0.89746 0.0
C485 C 0.18997 0.41064 0.89433 0.0
O486 O 0.26996 0.40559 0.90885 0.0
O487 O 0.2791 0.45377 0.90842 0.0
O488 O 0.32283 0.42035 0.85899 0.0
O489 O 0.30433 0.45035 0.86126 0.0
H490 H 0.34195 0.50466 0.86707 0.0
H491 H 0.43214 0.53787 0.89032 0.0
H492 H 0.3784 0.44562 0.87069 0.0
O493 O 0.76854 0.22584 0.86083 0.0
Tb494 Tb 0.80485 0.2178 0.86942 0.0
Eu495 Eu 0.90252 0.29352 0.87946 0.0
C496 C 0.76192 0.24223 0.8746 0.0
O497 O 0.779 0.25572 0.89296 0.0
C498 C 0.86387 0.25675 0.83944 0.0
O499 O 0.95212 0.31511 0.88569 0.0
C500 C 0.88133 0.32881 0.8873 0.0
C501 C 0.96504 0.29926 0.89035 0.0
O502 O 0.94856 0.27 0.89183 0.0
C503 C 0.84964 0.24657 0.91124 0.0
C504 C 0.88584 0.35864 0.89213 0.0
C505 C 0.86034 0.36141 0.89437 0.0
C506 C 0.86298 0.38935 0.8986 0.0
C507 C 0.89155 0.41449 0.90108 0.0
C508 C 0.9173 0.41212 0.89869 0.0
C509 C 0.91441 0.38401 0.89404 0.0
O510 O 0.84801 0.25317 0.85838 0.0
O511 O 0.89238 0.27591 0.84194 0.0
O512 O 0.79957 0.17858 0.8501 0.0
O513 O 0.7858 0.17427 0.88621 0.0
C514 C 0.78733 0.16 0.86778 0.0
O515 O 0.87038 0.24872 0.89641 0.0
O516 O 0.82114 0.23334 0.90498 0.0
O517 O 0.88768 0.32345 0.866 0.0
O518 O 0.88763 0.31548 0.90428 0.0
H519 H 0.83835 0.34177 0.8925 0.0
H520 H 0.89391 0.43642 0.90347 0.0
H521 H 0.93412 0.38192 0.89187 0.0
O522 O 0.24268 0.48896 0.61747 0.0
Tb523 Tb 0.20693 0.44274 0.6184 0.0
Eu524 Eu 0.13072 0.40905 0.62828 0.0
C525 C 0.26249 0.49966 0.63461 0.0
O526 O 0.25862 0.4828 0.65318 0.0
C527 C 0.17725 0.41777 0.66616 0.0
O528 O 0.08194 0.37404 0.63102 0.0
C529 C 0.13705 0.46173 0.63529 0.0
C530 C 0.06812 0.35302 0.61502 0.0
O531 O 0.08316 0.35155 0.59686 0.0
C532 C 0.15973 0.42254 0.57742 0.0
C533 C 0.13082 0.48394 0.62403 0.0
C534 C 0.15443 0.51348 0.62112 0.0
C535 C 0.14911 0.53543 0.61149 0.0
C536 C 0.12004 0.52779 0.60482 0.0
C537 C 0.096 0.49883 0.60844 0.0
C538 C 0.10151 0.47682 0.6179 0.0
O539 O 0.19386 0.44288 0.65472 0.0
O540 O 0.15299 0.39639 0.65631 0.0
O541 O 0.24609 0.43869 0.61098 0.0
O542 O 0.20506 0.39906 0.61812 0.0
C543 C 0.23331 0.40985 0.6132 0.0
O544 O 0.13785 0.4021 0.59024 0.0
O545 O 0.18395 0.4446 0.58694 0.0
O546 O 0.1141 0.4368 0.64299 0.0
O547 O 0.1579 0.45774 0.62565 0.0
H548 H 0.17681 0.51954 0.62678 0.0
H549 H 0.11579 0.54514 0.59841 0.0
H550 H 0.08292 0.45445 0.62086 0.0
O551 O 0.7715 0.23014 0.61366 0.0
Tb552 Tb 0.78492 0.20017 0.62947 0.0
Eu553 Eu 0.71208 0.13842 0.65109 0.0
C554 C 0.75806 0.24199 0.62555 0.0
O555 O 0.74821 0.2324 0.647 0.0
C556 C 0.76953 0.18144 0.6813 0.0
O557 O 0.69511 0.08882 0.65251 0.0
C558 C 0.67302 0.15263 0.66505 0.0
C559 C 0.71374 0.07912 0.64779 0.0
O560 O 0.74145 0.09868 0.64214 0.0
C561 C 0.74025 0.14642 0.60063 0.0
C562 C 0.64655 0.15303 0.65551 0.0
C563 C 0.64634 0.1802 0.65458 0.0
C564 C 0.62114 0.18075 0.64605 0.0
C565 C 0.59615 0.15422 0.63843 0.0
C566 C 0.59568 0.12691 0.63972 0.0
C567 C 0.62098 0.12642 0.64818 0.0
O568 O 0.77473 0.20281 0.6662 0.0
O569 O 0.75064 0.15329 0.67637 0.0
O570 O 0.82641 0.22876 0.61033 0.0
O571 O 0.82851 0.20934 0.64283 0.0
C572 C 0.84415 0.22657 0.62545 0.0
O573 O 0.71615 0.14242 0.61153 0.0
O574 O 0.76547 0.15692 0.61224 0.0
O575 O 0.67038 0.12626 0.66892 0.0
O576 O 0.69911 0.17224 0.65613 0.0
H577 H 0.66548 0.20072 0.66079 0.0
H578 H 0.57643 0.1547 0.63247 0.0
H579 H 0.62058 0.10524 0.64913 0.0
O580 O 0.54455 0.79751 0.63202 0.0
Tb581 Tb 0.58835 0.80141 0.62934 0.0
Eu582 Eu 0.60911 0.72402 0.61721 0.0
C583 C 0.52575 0.78785 0.61411 0.0
O584 O 0.5325 0.77776 0.59515 0.0
C585 C 0.60732 0.76121 0.65796 0.0
O586 O 0.63872 0.70473 0.60809 0.0
C587 C 0.55258 0.68627 0.61202 0.0
C588 C 0.66305 0.71184 0.62035 0.0
O589 O 0.67065 0.73129 0.63767 0.0
C590 C 0.60307 0.7732 0.58679 0.0
C591 C 0.52916 0.6555 0.60676 0.0
C592 C 0.49948 0.64934 0.60641 0.0
C593 C 0.476 0.62025 0.60218 0.0
C594 C 0.48255 0.59739 0.59795 0.0
C595 C 0.51206 0.60302 0.59862 0.0
C596 C 0.5355 0.63228 0.60314 0.0
O597 O 0.59168 0.7631 0.64052 0.0
O598 O 0.61791 0.74312 0.65438 0.0
O599 O 0.62346 0.84539 0.61792 0.0
O600 O 0.6145 0.83718 0.65475 0.0
C601 C 0.63055 0.85725 0.63892 0.0
O602 O 0.62019 0.76925 0.60205 0.0
O603 O 0.59128 0.78984 0.59283 0.0
O604 O 0.56661 0.69099 0.63235 0.0
O605 O 0.56987 0.7024 0.59449 0.0
H606 H 0.49462 0.66716 0.60977 0.0
H607 H 0.46438 0.57463 0.59556 0.0
H608 H 0.55837 0.6369 0.60402 0.0
O609 O 0.75202 0.51074 0.60052 0.0
Tb610 Tb 0.79008 0.55486 0.60691 0.0
Eu611 Eu 0.86524 0.58492 0.61725 0.0
C612 C 0.74376 0.48755 0.61452 0.0
O613 O 0.76001 0.48985 0.63313 0.0
C614 C 0.81872 0.57548 0.65555 0.0
O615 O 0.91391 0.62082 0.61831 0.0
C616 C 0.85823 0.53189 0.62388 0.0
C617 C 0.92608 0.63636 0.63769 0.0
O618 O 0.90955 0.63047 0.65677 0.0
C619 C 0.83739 0.57408 0.56559 0.0
C620 C 0.86377 0.50877 0.61345 0.0
C621 C 0.83946 0.47968 0.61008 0.0
C622 C 0.84408 0.45667 0.60179 0.0
C623 C 0.87318 0.46285 0.59688 0.0
C624 C 0.89783 0.49132 0.60106 0.0
C625 C 0.893 0.51435 0.60913 0.0
O626 O 0.80149 0.55129 0.64324 0.0
O627 O 0.84313 0.59704 0.64593 0.0
O628 O 0.75259 0.56288 0.60514 0.0
O629 O 0.79654 0.60042 0.60522 0.0
C630 C 0.76811 0.5919 0.60464 0.0
O631 O 0.85973 0.59296 0.57898 0.0
O632 O 0.81183 0.55324 0.57448 0.0
O633 O 0.88134 0.5566 0.63179 0.0
O634 O 0.83791 0.53637 0.6137 0.0
H635 H 0.81702 0.47471 0.61452 0.0
H636 H 0.8768 0.4447 0.59159 0.0
H637 H 0.91205 0.53629 0.61258 0.0
O638 O 0.20448 0.75663 0.61649 0.0
Tb639 Tb 0.20306 0.79705 0.62401 0.0
Eu640 Eu 0.28553 0.89605 0.62572 0.0
C641 C 0.22407 0.75047 0.62586 0.0
O642 O 0.24446 0.76961 0.64045 0.0
C643 C 0.2427 0.84792 0.66004 0.0
O644 O 0.3018 0.9455 0.62392 0.0
C645 C 0.32555 0.8807 0.618 0.0
C646 C 0.31396 0.96084 0.6045 0.0
O647 O 0.31693 0.94703 0.58608 0.0
C648 C 0.23713 0.84882 0.58979 0.0
C649 C 0.35744 0.8916 0.61401 0.0
C650 C 0.3669 0.87054 0.61131 0.0
C651 C 0.39716 0.87997 0.60751 0.0
C652 C 0.41785 0.91067 0.60638 0.0
C653 C 0.40887 0.93195 0.60975 0.0
C654 C 0.37852 0.92234 0.61358 0.0
O655 O 0.24231 0.8329 0.64124 0.0
O656 O 0.26218 0.87676 0.66038 0.0
O657 O 0.16542 0.77945 0.64871 0.0
O658 O 0.16084 0.79461 0.61482 0.0
C659 C 0.14707 0.78223 0.6345 0.0
O660 O 0.24085 0.86487 0.60881 0.0
O661 O 0.21804 0.81983 0.5903 0.0
O662 O 0.31782 0.88452 0.63932 0.0
O663 O 0.31085 0.88515 0.60096 0.0
H664 H 0.35074 0.84681 0.61226 0.0
H665 H 0.4414 0.91807 0.60423 0.0
H666 H 0.37139 0.93861 0.61636 0.0
O667 O 0.47985 0.25568 0.61678 0.0
Tb668 Tb 0.43303 0.24331 0.61703 0.0
Eu669 Eu 0.39797 0.28291 0.62556 0.0
C670 C 0.4989 0.27046 0.63386 0.0
O671 O 0.49043 0.28054 0.65184 0.0
C672 C 0.40366 0.24354 0.6653 0.0
O673 O 0.36318 0.29731 0.62649 0.0
C674 C 0.4515 0.32769 0.633 0.0
C675 C 0.36172 0.31309 0.60876 0.0
O676 O 0.38058 0.31985 0.59112 0.0
C677 C 0.41323 0.26896 0.57486 0.0
C678 C 0.47786 0.35284 0.6215 0.0
C679 C 0.50382 0.35081 0.61836 0.0
C680 C 0.52982 0.37498 0.60917 0.0
C681 C 0.53008 0.40142 0.60322 0.0
C682 C 0.50512 0.4047 0.60747 0.0
C683 C 0.47877 0.38001 0.61622 0.0
O684 O 0.42883 0.2502 0.65455 0.0
O685 O 0.38408 0.24936 0.65532 0.0
O686 O 0.4318 0.20149 0.60902 0.0
O687 O 0.39062 0.20101 0.61255 0.0
C688 C 0.40293 0.18469 0.60846 0.0
O689 O 0.39157 0.26854 0.58732 0.0
O690 O 0.43584 0.2687 0.58534 0.0
O691 O 0.42719 0.32952 0.63561 0.0
O692 O 0.4459 0.30059 0.62784 0.0
H693 H 0.50413 0.33079 0.62365 0.0
H694 H 0.55051 0.42009 0.59636 0.0
H695 H 0.45953 0.38241 0.61998 0.0
H696 H 0.2872 0.01781 0.14653 0.0
H697 H 0.3632 0.01748 0.11514 0.0
H698 H 0.25891 0.96319 0.14482 0.0
H699 H 0.3348 0.96313 0.11292 0.0
H700 H 0.28993 0.86668 0.13749 0.0
H701 H 0.31614 0.92102 0.13875 0.0
H702 H 0.23494 0.91999 0.11868 0.0
H703 H 0.20841 0.86506 0.11798 0.0
C704 C 0.29784 0.00614 0.13913 0.0
C705 C 0.3276 0.02213 0.13112 0.0
C706 C 0.28152 0.97477 0.138 0.0
C707 C 0.29454 0.95859 0.12886 0.0
C708 C 0.32414 0.9747 0.12049 0.0
C709 C 0.34044 0.00598 0.12164 0.0
C710 C 0.27761 0.87801 0.13336 0.0
C711 C 0.24711 0.86158 0.12757 0.0
C712 C 0.29273 0.90926 0.13391 0.0
C713 C 0.27783 0.92509 0.12859 0.0
C714 C 0.24712 0.9086 0.12304 0.0
C715 C 0.23192 0.87715 0.12252 0.0
H716 H 0.35993 0.36505 0.12121 0.0
H717 H 0.27832 0.29075 0.09409 0.0
H718 H 0.38291 0.33382 0.12176 0.0
H719 H 0.3016 0.25966 0.09406 0.0
H720 H 0.34427 0.20471 0.12116 0.0
H721 H 0.3195 0.23466 0.11998 0.0
H722 H 0.40159 0.31084 0.09551 0.0
H723 H 0.42624 0.28125 0.09736 0.0
C724 C 0.34694 0.3421 0.1152 0.0
C725 C 0.31729 0.33046 0.10758 0.0
C726 C 0.36018 0.32419 0.11539 0.0
C727 C 0.34418 0.29417 0.10786 0.0
C728 C 0.31449 0.28253 0.10024 0.0
C729 C 0.30121 0.30045 0.10011 0.0
C730 C 0.35684 0.2278 0.11541 0.0
C731 C 0.38716 0.24069 0.10943 0.0
C732 C 0.34268 0.24497 0.11465 0.0
C733 C 0.3586 0.27531 0.10784 0.0
C734 C 0.38876 0.28779 0.10133 0.0
C735 C 0.40286 0.27074 0.10219 0.0
H736 H 0.9764 0.3042 0.11919 0.0
H737 H 0.97315 0.2881 0.19447 0.0
H738 H 0.02879 0.31805 0.11862 0.0
H739 H 0.02578 0.30173 0.19381 0.0
H740 H 0.1286 0.371 0.18303 0.0
H741 H 0.07451 0.34752 0.18767 0.0
H742 H 0.06185 0.29717 0.12346 0.0
H743 H 0.11592 0.32104 0.11866 0.0
C744 C 0.9868 0.30343 0.13562 0.0
C745 C 0.97059 0.29515 0.15689 0.0
C746 C 0.01681 0.3111 0.13525 0.0
C747 C 0.03143 0.31077 0.15615 0.0
C748 C 0.01519 0.30231 0.17743 0.0
C749 C 0.98504 0.29447 0.17779 0.0
C750 C 0.11422 0.35433 0.17026 0.0
C751 C 0.12639 0.34807 0.15034 0.0
C752 C 0.08323 0.34086 0.17292 0.0
C753 C 0.06389 0.32091 0.15568 0.0
C754 C 0.07618 0.31294 0.13676 0.0
C755 C 0.10713 0.32638 0.13413 0.0
H756 H 0.80365 0.13596 0.12027 0.0
H757 H 0.71856 0.13251 0.11704 0.0
H758 H 0.77778 0.08099 0.11918 0.0
H759 H 0.69289 0.0782 0.11627 0.0
H760 H 0.65491 0.98263 0.09371 0.0
H761 H 0.68449 0.03691 0.09109 0.0
H762 H 0.74477 0.03757 0.14435 0.0
H763 H 0.71538 0.98301 0.14671 0.0
C764 C 0.7795 0.12347 0.1192 0.0
C765 C 0.76313 0.13849 0.11868 0.0
C766 C 0.76466 0.09204 0.11872 0.0
C767 C 0.73322 0.07512 0.11753 0.0
C768 C 0.71709 0.09039 0.11677 0.0
C769 C 0.73183 0.1216 0.11735 0.0
C770 C 0.67457 0.99426 0.10478 0.0
C771 C 0.68258 0.97839 0.12056 0.0
C772 C 0.69149 0.02546 0.10334 0.0
C773 C 0.7169 0.04171 0.11765 0.0
C774 C 0.72548 0.02579 0.13293 0.0
C775 C 0.70849 0.9945 0.13439 0.0
H776 H 0.66202 0.64971 0.06588 0.0
H777 H 0.68869 0.67342 0.13871 0.0
H778 H 0.64353 0.68492 0.06483 0.0
H779 H 0.67014 0.70872 0.1376 0.0
H780 H 0.65748 0.78946 0.11843 0.0
H781 H 0.67995 0.75722 0.11825 0.0
H782 H 0.60145 0.6878 0.08336 0.0
H783 H 0.57919 0.71972 0.08367 0.0
C784 C 0.66401 0.66246 0.08167 0.0
C785 C 0.67672 0.65857 0.10242 0.0
C786 C 0.65333 0.68261 0.08107 0.0
C787 C 0.65533 0.69964 0.10113 0.0
C788 C 0.66851 0.69617 0.12177 0.0
C789 C 0.67893 0.67575 0.12245 0.0
C790 C 0.64524 0.76741 0.11056 0.0
C791 C 0.61663 0.75713 0.10102 0.0
C792 C 0.65798 0.74888 0.11059 0.0
C793 C 0.6425 0.71992 0.10075 0.0
C794 C 0.61414 0.71004 0.09083 0.0
C795 C 0.60132 0.72832 0.09109 0.0
H796 H 0.02844 0.68701 0.11359 0.0
H797 H 0.03051 0.70379 0.18865 0.0
H798 H 0.97508 0.66918 0.11292 0.0
H799 H 0.97699 0.68631 0.18789 0.0
H800 H 0.8754 0.61446 0.1785 0.0
H801 H 0.92974 0.63916 0.18235 0.0
H802 H 0.93958 0.68684 0.11706 0.0
H803 H 0.88538 0.66171 0.11304 0.0
C804 C 0.01756 0.68708 0.12993 0.0
C805 C 0.03375 0.69677 0.15117 0.0
C806 C 0.98697 0.67708 0.12952 0.0
C807 C 0.97179 0.6765 0.15033 0.0
C808 C 0.98799 0.6863 0.17159 0.0
C809 C 0.01867 0.6964 0.17199 0.0
C810 C 0.88924 0.63067 0.16525 0.0
C811 C 0.87627 0.63598 0.14536 0.0
C812 C 0.92035 0.64486 0.16746 0.0
C813 C 0.93899 0.6646 0.1498 0.0
C814 C 0.92585 0.67126 0.13069 0.0
C815 C 0.89482 0.65707 0.12849 0.0
H816 H 0.13568 0.78424 0.37281 0.0
H817 H 0.14504 0.71364 0.40522 0.0
H818 H 0.08123 0.7509 0.37121 0.0
H819 H 0.09105 0.68059 0.40377 0.0
H820 H 0.99104 0.63951 0.4185 0.0
H821 H 0.04445 0.67523 0.42148 0.0
H822 H 0.04477 0.70325 0.34947 0.0
H823 H 0.99122 0.66739 0.3464 0.0
C824 C 0.12607 0.76177 0.37985 0.0
C825 C 0.14457 0.75157 0.38921 0.0
C826 C 0.09497 0.74261 0.37876 0.0
C827 C 0.08179 0.71306 0.38736 0.0
C828 C 0.10038 0.70326 0.39722 0.0
C829 C 0.13136 0.72219 0.39799 0.0
C830 C 1.00244 0.65325 0.40327 0.0
C831 C 0.98681 0.65044 0.38217 0.0
C832 C 0.0331 0.67371 0.40498 0.0
C833 C 0.0489 0.69214 0.38573 0.0
C834 C 0.03321 0.68961 0.3647 0.0
C835 C 1.00257 0.66887 0.36289 0.0
H836 H 0.37428 0.1269 0.31487 0.0
H837 H 0.34313 0.1241 0.38617 0.0
H838 H 0.34883 0.0723 0.31414 0.0
H839 H 0.31719 0.06949 0.38536 0.0
H840 H 0.31537 0.9793 0.38701 0.0
H841 H 0.33366 0.03287 0.38626 0.0
H842 H 0.30122 0.02541 0.31471 0.0
H843 H 0.28329 0.97174 0.31531 0.0
C844 C 0.36141 0.11456 0.33018 0.0
C845 C 0.36082 0.1297 0.35062 0.0
C846 C 0.34677 0.08326 0.32977 0.0
C847 C 0.33127 0.06649 0.34981 0.0
C848 C 0.3294 0.08172 0.36979 0.0
C849 C 0.34402 0.113 0.37018 0.0
C850 C 0.31201 0.98901 0.37113 0.0
C851 C 0.29795 0.9712 0.3512 0.0
C852 C 0.3223 0.01974 0.37076 0.0
C853 C 0.31882 0.03348 0.35044 0.0
C854 C 0.30449 0.01561 0.33057 0.0
C855 C 0.29413 0.98482 0.33096 0.0
H856 H 0.21558 0.35294 0.364 0.0
H857 H 0.29257 0.43453 0.38784 0.0
H858 H 0.24496 0.32763 0.36491 0.0
H859 H 0.32172 0.40929 0.3893 0.0
H860 H 0.3743 0.36681 0.36023 0.0
H861 H 0.34377 0.39052 0.3618 0.0
H862 H 0.27025 0.30915 0.39007 0.0
H863 H 0.30065 0.28519 0.38801 0.0
C864 C 0.23863 0.36529 0.3698 0.0
C865 C 0.25182 0.39569 0.37578 0.0
C866 C 0.25548 0.35082 0.37038 0.0
C867 C 0.28586 0.36648 0.37696 0.0
C868 C 0.29861 0.39666 0.38368 0.0
C869 C 0.28182 0.41108 0.38304 0.0
C870 C 0.35165 0.35396 0.36683 0.0
C871 C 0.33997 0.32407 0.37397 0.0
C872 C 0.33415 0.36763 0.36788 0.0
C873 C 0.30449 0.35181 0.37615 0.0
C874 C 0.29284 0.32192 0.38337 0.0
C875 C 0.31037 0.30823 0.38231 0.0
H876 H 0.0283 0.3503 0.3341 0.0
H877 H 0.0433 0.31254 0.39733 0.0
H878 H 0.97426 0.31729 0.33874 0.0
H879 H 0.98948 0.28005 0.40206 0.0
H880 H 0.89196 0.25966 0.41663 0.0
H881 H 0.946 0.29016 0.41084 0.0
H882 H 0.93587 0.25938 0.33863 0.0
H883 H 0.88174 0.22837 0.34457 0.0
C884 C 0.02009 0.33496 0.34894 0.0
C885 C 0.04006 0.33404 0.36535 0.0
C886 C 0.98922 0.316 0.35151 0.0
C887 C 0.97776 0.29619 0.37078 0.0
C888 C 0.99773 0.29523 0.38713 0.0
C889 C 0.02854 0.31376 0.38434 0.0
C890 C 0.90133 0.25924 0.3996 0.0
C891 C 0.88279 0.24161 0.38108 0.0
C892 C 0.9322 0.27662 0.3963 0.0
C893 C 0.94506 0.27713 0.37428 0.0
C894 C 0.92648 0.2595 0.35573 0.0
C895 C 0.89562 0.24165 0.35917 0.0
H896 H 0.65507 0.87312 0.37575 0.0
H897 H 0.57475 0.86653 0.40466 0.0
H898 H 0.68029 0.9278 0.37906 0.0
H899 H 0.59946 0.92074 0.40759 0.0
H900 H 0.65689 0.01741 0.42752 0.0
H901 H 0.63755 0.96362 0.42816 0.0
H902 H 0.67837 0.9694 0.36024 0.0
H903 H 0.69832 0.02341 0.35985 0.0
C904 C 0.64294 0.88336 0.38302 0.0
C905 C 0.61299 0.86561 0.38997 0.0
C906 C 0.65726 0.91465 0.38475 0.0
C907 C 0.64192 0.92876 0.39357 0.0
C908 C 0.61216 0.91076 0.40104 0.0
C909 C 0.5979 0.87962 0.39925 0.0
C910 C 0.66192 0.00728 0.41278 0.0
C911 C 0.67898 0.02475 0.39355 0.0
C912 C 0.65072 0.97636 0.4131 0.0
C913 C 0.65617 0.96205 0.39416 0.0
C914 C 0.67396 0.97966 0.37523 0.0
C915 C 0.68524 0.01064 0.37494 0.0
H916 H 0.71462 0.75972 0.38494 0.0
H917 H 0.65255 0.69081 0.33763 0.0
H918 H 0.74935 0.74091 0.38043 0.0
H919 H 0.68697 0.67188 0.33342 0.0
H920 H 0.76434 0.65924 0.31421 0.0
H921 H 0.7356 0.68496 0.31669 0.0
H922 H 0.75197 0.69625 0.39198 0.0
H923 H 0.7811 0.67089 0.38936 0.0
C924 C 0.70841 0.74064 0.37353 0.0
C925 C 0.68079 0.72674 0.36167 0.0
C926 C 0.72826 0.7298 0.37103 0.0
C927 C 0.72096 0.70495 0.35652 0.0
C928 C 0.6935 0.69134 0.34444 0.0
C929 C 0.67365 0.70208 0.34701 0.0
C930 C 0.76215 0.66762 0.33121 0.0
C931 C 0.77478 0.66297 0.35162 0.0
C932 C 0.74553 0.68216 0.33267 0.0
C933 C 0.74123 0.69237 0.35457 0.0
C934 C 0.75503 0.68885 0.37482 0.0
C935 C 0.77162 0.67425 0.37335 0.0
H936 H 0.762 0.12083 0.90393 0.0
H937 H 0.77878 0.12507 0.82882 0.0
H938 H 0.73168 0.06653 0.90167 0.0
H939 H 0.74795 0.07048 0.82643 0.0
H940 H 0.70979 0.9693 0.83566 0.0
H941 H 0.74435 0.02296 0.83875 0.0
H942 H 0.68263 0.0313 0.88525 0.0
H943 H 0.64818 0.97754 0.88243 0.0
C944 C 0.75945 0.11007 0.88695 0.0
C945 C 0.77263 0.12711 0.86652 0.0
C946 C 0.74186 0.07899 0.88563 0.0
C947 C 0.73705 0.06421 0.86383 0.0
C948 C 0.75134 0.08119 0.84351 0.0
C949 C 0.76898 0.11241 0.84485 0.0
C950 C 0.70361 0.98254 0.84663 0.0
C951 C 0.67621 0.96912 0.85883 0.0
C952 C 0.72338 0.01333 0.84827 0.0
C953 C 0.71629 0.0314 0.86226 0.0
C954 C 0.68896 0.01794 0.87458 0.0
C955 C 0.66913 0.98715 0.87287 0.0
H956 H 0.67728 0.78402 0.85252 0.0
H957 H 0.60928 0.71691 0.80753 0.0
H958 H 0.70328 0.75548 0.8535 0.0
H959 H 0.63537 0.68831 0.80842 0.0
H960 H 0.66355 0.62819 0.8496 0.0
H961 H 0.64198 0.65978 0.84128 0.0
H962 H 0.73032 0.7354 0.83015 0.0
H963 H 0.75203 0.70379 0.83857 0.0
C964 C 0.66832 0.76352 0.84235 0.0
C965 C 0.6412 0.75254 0.83008 0.0
C966 C 0.68322 0.74719 0.84289 0.0
C967 C 0.67115 0.71946 0.83129 0.0
C968 C 0.64494 0.7094 0.81782 0.0
C969 C 0.63017 0.72588 0.81713 0.0
C970 C 0.67841 0.65153 0.84533 0.0
C971 C 0.70952 0.6635 0.84487 0.0
C972 C 0.66602 0.66956 0.84033 0.0
C973 C 0.68445 0.70005 0.83492 0.0
C974 C 0.71557 0.71202 0.83434 0.0
C975 C 0.72797 0.69389 0.83914 0.0
H976 H 0.01718 0.65339 0.90858 0.0
H977 H 0.02074 0.70225 0.84544 0.0
H978 H 0.96309 0.63092 0.9096 0.0
H979 H 0.96628 0.67933 0.8463 0.0
H980 H 0.86899 0.65092 0.86876 0.0
H981 H 0.92389 0.67703 0.86883 0.0
H982 H 0.92083 0.59418 0.88682 0.0
H983 H 0.86651 0.56849 0.88697 0.0
C984 C 0.00645 0.65937 0.89488 0.0
C985 C 0.0234 0.67954 0.87685 0.0
C986 C 0.97534 0.64635 0.89541 0.0
C987 C 0.96021 0.65312 0.87794 0.0
C988 C 0.97718 0.67378 0.86014 0.0
C989 C 0.0084 0.68677 0.85957 0.0
C990 C 0.88017 0.63844 0.87283 0.0
C991 C 0.86347 0.60771 0.87795 0.0
C992 C 0.91157 0.65331 0.87273 0.0
C993 C 0.92685 0.63776 0.87794 0.0
C994 C 0.90993 0.60702 0.8831 0.0
C995 C 0.87872 0.59223 0.88306 0.0
H996 H 0.29557 0.0326 0.86192 0.0
H997 H 0.37158 0.02156 0.87602 0.0
H998 H 0.26234 0.97873 0.86587 0.0
H999 H 0.33882 0.9678 0.87879 0.0
H1000 H 0.2741 0.87358 0.89909 0.0
H1001 H 0.3034 0.92788 0.9004 0.0
H1002 H 0.24622 0.93293 0.84685 0.0
H1003 H 0.21591 0.8783 0.84671 0.0
C1004 C 0.30519 0.01866 0.86592 0.0
C1005 C 0.33626 0.03146 0.86872 0.0
C1006 C 0.28613 0.98765 0.86797 0.0
C1007 C 0.29767 0.96852 0.87257 0.0
C1008 C 0.3288 0.98156 0.87571 0.0
C1009 C 0.34775 0.01255 0.874 0.0
C1010 C 0.2676 0.88635 0.88781 0.0
C1011 C 0.24278 0.87173 0.87275 0.0
C1012 C 0.28461 0.91759 0.88836 0.0
C1013 C 0.27769 0.93517 0.87346 0.0
C1014 C 0.25223 0.92039 0.85881 0.0
C1015 C 0.23484 0.88902 0.8586 0.0
H1016 H 0.29071 0.32408 0.88661 0.0
H1017 H 0.26701 0.30765 0.81261 0.0
H1018 H 0.30454 0.28578 0.88636 0.0
H1019 H 0.27984 0.26802 0.81255 0.0
H1020 H 0.3507 0.23669 0.81625 0.0
H1021 H 0.3238 0.26424 0.81374 0.0
H1022 H 0.28943 0.23493 0.88441 0.0
H1023 H 0.31778 0.20894 0.88724 0.0
C1024 C 0.28786 0.31184 0.87035 0.0
C1025 C 0.27801 0.31914 0.84957 0.0
C1026 C 0.29556 0.28955 0.87025 0.0
C1027 C 0.2933 0.27363 0.84943 0.0
C1028 C 0.28224 0.28008 0.82882 0.0
C1029 C 0.27474 0.30268 0.82888 0.0
C1030 C 0.33687 0.23571 0.83101 0.0
C1031 C 0.33661 0.22119 0.85207 0.0
C1032 C 0.32132 0.25138 0.82957 0.0
C1033 C 0.30489 0.25238 0.84908 0.0
C1034 C 0.30258 0.23545 0.86932 0.0
C1035 C 0.31859 0.22033 0.87091 0.0
H1036 H 0.00527 0.35897 0.88682 0.0
H1037 H 0.99947 0.27378 0.90016 0.0
H1038 H 0.05932 0.38388 0.89011 0.0
H1039 H 0.05382 0.29892 0.90402 0.0
H1040 H 0.15352 0.35308 0.87933 0.0
H1041 H 0.09884 0.3249 0.88019 0.0
H1042 H 0.09863 0.39738 0.91827 0.0
H1043 H 0.15301 0.42566 0.91678 0.0
C1044 C 0.01549 0.34554 0.89067 0.0
C1045 C 0.99797 0.31435 0.8932 0.0
C1046 C 0.04657 0.35989 0.89273 0.0
C1047 C 0.06101 0.34346 0.89748 0.0
C1048 C 0.04348 0.31224 0.90015 0.0
C1049 C 0.0123 0.29785 0.89806 0.0
C1050 C 0.14171 0.3627 0.88819 0.0
C1051 C 0.15743 0.39159 0.89786 0.0
C1052 C 0.11039 0.34656 0.88873 0.0
C1053 C 0.09426 0.35902 0.89902 0.0
C1054 C 0.11025 0.38736 0.90973 0.0
C1055 C 0.14144 0.40348 0.90906 0.0
H1056 H 0.884 0.23044 0.65887 0.0
H1057 H 0.87824 0.25881 0.58815 0.0
H1058 H 0.93862 0.25907 0.65656 0.0
H1059 H 0.93273 0.28741 0.58581 0.0
H1060 H 0.03097 0.31255 0.58217 0.0
H1061 H 0.97689 0.2798 0.58475 0.0
H1062 H 0.97755 0.31347 0.65478 0.0
H1063 H 0.03158 0.34615 0.65231 0.0
C1064 C 0.89445 0.24264 0.6428 0.0
C1065 C 0.877 0.2425 0.6237 0.0
C1066 C 0.92565 0.25912 0.64152 0.0
C1067 C 0.93994 0.27549 0.62101 0.0
C1068 C 0.92238 0.27477 0.60174 0.0
C1069 C 0.89121 0.25855 0.60312 0.0
C1070 C 0.01962 0.31283 0.59818 0.0
C1071 C 0.03557 0.33204 0.617 0.0
C1072 C 0.98864 0.29418 0.5996 0.0
C1073 C 0.97299 0.29412 0.61994 0.0
C1074 C 0.98903 0.31281 0.63897 0.0
C1075 C 0.01996 0.33166 0.63748 0.0
H1076 H 0.6673 0.89998 0.60787 0.0
H1077 H 0.63321 0.88784 0.67914 0.0
H1078 H 0.68972 0.95406 0.61199 0.0
H1079 H 0.65565 0.94218 0.6833 0.0
H1080 H 0.66055 0.03313 0.6641 0.0
H1081 H 0.64418 0.97973 0.66447 0.0
H1082 H 0.72837 0.99862 0.63389 0.0
H1083 H 0.74475 0.0519 0.63346 0.0
C1084 C 0.66517 0.90897 0.6246 0.0
C1085 C 0.64852 0.88977 0.64317 0.0
C1086 C 0.67802 0.93994 0.62698 0.0
C1087 C 0.67423 0.95237 0.6479 0.0
C1088 C 0.65864 0.9332 0.66687 0.0
C1089 C 0.64606 0.90217 0.66458 0.0
C1090 C 0.67561 0.0259 0.65755 0.0
C1091 C 0.70388 0.04677 0.64864 0.0
C1092 C 0.66633 0.99534 0.65795 0.0
C1093 C 0.68501 0.98498 0.64924 0.0
C1094 C 0.71341 0.0059 0.64058 0.0
C1095 C 0.72279 0.03644 0.64039 0.0
H1096 H 0.71406 0.72102 0.6427 0.0
H1097 H 0.65209 0.66848 0.58749 0.0
H1098 H 0.74097 0.69387 0.63702 0.0
H1099 H 0.6793 0.6417 0.58154 0.0
H1100 H 0.70937 0.57436 0.60107 0.0
H1101 H 0.68582 0.60494 0.60312 0.0
H1102 H 0.77256 0.6843 0.61017 0.0
H1103 H 0.79623 0.65326 0.60842 0.0
C1104 C 0.70634 0.7039 0.62917 0.0
C1105 C 0.68073 0.69681 0.61568 0.0
C1106 C 0.72193 0.68844 0.6258 0.0
C1107 C 0.71227 0.66544 0.60891 0.0
C1108 C 0.68714 0.65896 0.59497 0.0
C1109 C 0.67159 0.67444 0.5983 0.0
C1110 C 0.72349 0.59836 0.6029 0.0
C1111 C 0.75467 0.61142 0.60459 0.0
C1112 C 0.70996 0.61596 0.60392 0.0
C1113 C 0.72723 0.64716 0.60672 0.0
C1114 C 0.75855 0.66032 0.60819 0.0
C1115 C 0.77215 0.64261 0.60705 0.0
H1116 H 0.9584 0.67171 0.67499 0.0
H1117 H 0.96614 0.6551 0.60115 0.0
H1118 H 0.01099 0.7106 0.67555 0.0
H1119 H 0.01873 0.69359 0.60182 0.0
H1120 H 0.10581 0.78026 0.60345 0.0
H1121 H 0.05171 0.7474 0.60502 0.0
H1122 H 0.06019 0.71494 0.67341 0.0
H1123 H 0.11429 0.74822 0.67194 0.0
C1124 C 0.97129 0.67633 0.65887 0.0
C1125 C 0.95801 0.66021 0.63802 0.0
C1126 C 1.00149 0.69858 0.65923 0.0
C1127 C 0.01913 0.70534 0.63873 0.0
C1128 C 0.00573 0.68935 0.61785 0.0
C1129 C 0.97559 0.66707 0.61751 0.0
C1130 C 0.09603 0.76656 0.61904 0.0
C1131 C 0.11426 0.7667 0.63753 0.0
C1132 C 0.06506 0.7475 0.61984 0.0
C1133 C 0.05159 0.72815 0.63917 0.0
C1134 C 0.06975 0.7296 0.6583 0.0
C1135 C 0.10077 0.74867 0.65747 0.0
H1136 H 0.34595 1.00034 0.56927 0.0
H1137 H 0.30579 0.99499 0.63744 0.0
H1138 H 0.36484 0.05415 0.56826 0.0
H1139 H 0.32482 0.04888 0.63641 0.0
H1140 H 0.34395 0.1437 0.61678 0.0
H1141 H 0.32007 0.08894 0.6144 0.0
H1142 H 0.40352 0.0975 0.59096 0.0
H1143 H 0.42714 0.15175 0.59338 0.0
C1144 C 0.34103 0.01059 0.584 0.0
C1145 C 0.32453 0.99336 0.60351 0.0
C1146 C 0.35192 0.04145 0.58344 0.0
C1147 C 0.34637 0.05578 0.60228 0.0
C1148 C 0.32922 0.03845 0.62152 0.0
C1149 C 0.31853 0.00761 0.62218 0.0
C1150 C 0.35698 0.13377 0.61088 0.0
C1151 C 0.38735 0.1519 0.60527 0.0
C1152 C 0.34341 0.10249 0.60966 0.0
C1153 C 0.35992 0.0889 0.60248 0.0
C1154 C 0.39009 0.10723 0.59628 0.0
C1155 C 0.40366 0.13832 0.59778 0.0
H1156 H 0.21346 0.35079 0.62428 0.0
H1157 H 0.29022 0.43138 0.59869 0.0
H1158 H 0.24248 0.32484 0.62281 0.0
H1159 H 0.31897 0.40588 0.59735 0.0
H1160 H 0.35421 0.34605 0.57458 0.0
H1161 H 0.32088 0.36652 0.57482 0.0
H1162 H 0.28672 0.32609 0.643 0.0
H1163 H 0.32009 0.30513 0.64269 0.0
C1164 C 0.2364 0.36284 0.61821 0.0
C1165 C 0.24954 0.39304 0.61149 0.0
C1166 C 0.25307 0.3481 0.61752 0.0
C1167 C 0.28303 0.36324 0.60984 0.0
C1168 C 0.29587 0.39337 0.60299 0.0
C1169 C 0.2794 0.40806 0.60387 0.0
C1170 C 0.33955 0.34134 0.58962 0.0
C1171 C 0.34008 0.32414 0.60872 0.0
C1172 C 0.32046 0.35319 0.58978 0.0
C1173 C 0.30129 0.34821 0.60902 0.0
C1174 C 0.30107 0.33021 0.62784 0.0
C1175 C 0.32033 0.31836 0.62772 0.0
H1176 H 0.36608 0.10894 0.05029 0.0
H1177 H 0.45756 0.18064 0.04439 0.0
H1178 H 0.3625 0.10519 0.00709 0.0
H1179 H 0.45397 0.17673 0.0014 0.0
H1180 H 0.44602 0.14753 0.92481 0.0
H1181 H 0.44748 0.14193 0.96769 0.0
H1182 H 0.36271 0.13866 0.97433 0.0
H1183 H 0.36128 0.1444 0.93154 0.0
C1184 C 0.3855 0.12369 0.03983 0.0
C1185 C 0.41206 0.14519 0.05086 0.0
C1186 C 0.3834 0.1216 0.01507 0.0
C1187 C 0.40796 0.14062 0.00078 0.0
C1188 C 0.43474 0.16151 0.01186 0.0
C1189 C 0.43671 0.1639 0.03654 0.0
C1190 C 0.4274 0.14502 0.93534 0.0
C1191 C 0.40361 0.14665 0.92473 0.0
C1192 C 0.42836 0.14205 0.95995 0.0
C1193 C 0.40535 0.14013 0.97447 0.0
C1194 C 0.38073 0.13994 0.96369 0.0
C1195 C 0.37997 0.14334 0.93916 0.0
H1196 H 0.26468 0.4515 0.06915 0.0
H1197 H 0.25121 0.36308 0.05737 0.0
H1198 H 0.28747 0.46714 0.03026 0.0
H1199 H 0.27093 0.37729 0.01749 0.0
H1200 H 0.30247 0.40352 0.94514 0.0
H1201 H 0.30493 0.4015 0.98815 0.0
H1202 H 0.26753 0.46 0.99362 0.0
H1203 H 0.26756 0.46371 0.95108 0.0
C1204 C 0.26668 0.43547 0.05805 0.0
C1205 C 0.25586 0.40603 0.06574 0.0
C1206 C 0.27952 0.44428 0.03574 0.0
C1207 C 0.28021 0.42329 0.02024 0.0
C1208 C 0.27109 0.39428 0.02878 0.0
C1209 C 0.25942 0.38589 0.05154 0.0
C1210 C 0.29553 0.41646 0.95575 0.0
C1211 C 0.28447 0.43345 0.945 0.0
C1212 C 0.29671 0.41518 0.98036 0.0
C1213 C 0.28587 0.43006 0.99458 0.0
C1214 C 0.27657 0.44854 0.98355 0.0
C1215 C 0.27627 0.4505 0.95902 0.0
H1216 H 0.90186 0.28266 0.06012 0.0
H1217 H 0.80698 0.24857 0.05255 0.0
H1218 H 0.90758 0.28758 0.01717 0.0
H1219 H 0.81244 0.25239 0.01004 0.0
H1220 H 0.82552 0.27426 0.93568 0.0
H1221 H 0.8309 0.28561 0.97778 0.0
H1222 H 0.89554 0.25593 0.98314 0.0
H1223 H 0.89131 0.24633 0.94058 0.0
C1224 C 0.88226 0.27624 0.04931 0.0
C1225 C 0.85396 0.2652 0.05971 0.0
C1226 C 0.88554 0.27902 0.02473 0.0
C1227 C 0.86054 0.27061 0.01013 0.0
C1228 C 0.83235 0.25986 0.02068 0.0
C1229 C 0.82914 0.25737 0.04514 0.0
C1230 C 0.84138 0.27088 0.94584 0.0
C1231 C 0.85761 0.25895 0.93519 0.0
C1232 C 0.84435 0.27717 0.96994 0.0
C1233 C 0.86294 0.27078 0.98397 0.0
C1234 C 0.88102 0.26113 0.97288 0.0
C1235 C 0.87856 0.25551 0.94855 0.0
H1236 H 0.6288 0.87972 0.91079 0.0
H1237 H 0.56501 0.78667 0.9242 0.0
H1238 H 0.62561 0.89123 0.95256 0.0
H1239 H 0.56231 0.79782 0.96527 0.0
H1240 H 0.64029 0.88295 0.03486 0.0
H1241 H 0.6408 0.88107 0.99156 0.0
H1242 H 0.5451 0.82212 0.9915 0.0
H1243 H 0.5448 0.82311 0.03446 0.0
C1244 C 0.61389 0.86187 0.92254 0.0
C1245 C 0.59728 0.83229 0.91425 0.0
C1246 C 0.6122 0.86839 0.94644 0.0
C1247 C 0.59365 0.84547 0.96228 0.0
C1248 C 0.57644 0.81617 0.9536 0.0
C1249 C 0.5782 0.8097 0.92998 0.0
C1250 C 0.61936 0.86992 0.02551 0.0
C1251 C 0.59261 0.85265 0.03805 0.0
C1252 C 0.61961 0.869 0.00071 0.0
C1253 C 0.59305 0.85102 0.98807 0.0
C1254 C 0.56607 0.83556 0.00068 0.0
C1255 C 0.56589 0.83615 0.02534 0.0
H1256 H 0.72782 0.5472 0.06497 0.0
H1257 H 0.76641 0.64299 0.0618 0.0
H1258 H 0.71675 0.54354 0.02284 0.0
H1259 H 0.75682 0.63969 0.01905 0.0
H1260 H 0.72758 0.61867 0.94015 0.0
H1261 H 0.72399 0.62193 0.98329 0.0
H1262 H 0.75341 0.55753 0.99221 0.0
H1263 H 0.75646 0.55389 0.94996 0.0
C1264 C 0.73327 0.56741 0.05525 0.0
C1265 C 0.74816 0.59536 0.06641 0.0
C1266 C 0.72721 0.5654 0.0311 0.0
C1267 C 0.73682 0.59142 0.01743 0.0
C1268 C 0.74922 0.61924 0.02905 0.0
C1269 C 0.7547 0.62116 0.05349 0.0
C1270 C 0.73312 0.60515 0.95141 0.0
C1271 C 0.74211 0.58586 0.94151 0.0
C1272 C 0.73108 0.60704 0.97608 0.0
C1273 C 0.73783 0.58955 0.99121 0.0
C1274 C 0.74711 0.57064 0.98117 0.0
C1275 C 0.74914 0.56877 0.95678 0.0
H1276 H 0.19482 0.74135 0.04978 0.0
H1277 H 0.11905 0.7546 0.05836 0.0
H1278 H 0.19157 0.74462 0.00725 0.0
H1279 H 0.11635 0.75872 0.01544 0.0
H1280 H 0.10535 0.73012 0.93557 0.0
H1281 H 0.10517 0.72878 0.97887 0.0
H1282 H 0.20148 0.78373 0.97911 0.0
H1283 H 0.20169 0.7842 0.93616 0.0
C1284 C 0.17756 0.74515 0.04258 0.0
C1285 C 0.15732 0.74794 0.05738 0.0
C1286 C 0.17581 0.74719 0.01821 0.0
C1287 C 0.15401 0.75241 0.00811 0.0
C1288 C 0.13332 0.7546 0.02282 0.0
C1289 C 0.13492 0.75232 0.04732 0.0
C1290 C 0.12637 0.74213 0.94499 0.0
C1291 C 0.15358 0.7568 0.9327 0.0
C1292 C 0.12627 0.74145 0.96969 0.0
C1293 C 0.15336 0.75569 0.98225 0.0
C1294 C 0.18034 0.77185 0.96984 0.0
C1295 C 0.18046 0.77221 0.9453 0.0
H1296 H 0.79319 0.55447 0.53298 0.0
H1297 H 0.88909 0.59683 0.53949 0.0
H1298 H 0.79752 0.55706 0.49039 0.0
H1299 H 0.89358 0.598 0.49637 0.0
H1300 H 0.8887 0.62925 0.41986 0.0
H1301 H 0.89005 0.62177 0.46235 0.0
H1302 H 0.80679 0.53782 0.45691 0.0
H1303 H 0.80459 0.54674 0.41487 0.0
C1304 C 0.81526 0.56391 0.52524 0.0
C1305 C 0.84079 0.57546 0.53959 0.0
C1306 C 0.81778 0.56512 0.50068 0.0
C1307 C 0.84591 0.57734 0.48968 0.0
C1308 C 0.87155 0.58867 0.50411 0.0
C1309 C 0.86902 0.58796 0.52883 0.0
C1310 C 0.87105 0.60896 0.42778 0.0
C1311 C 0.8463 0.58878 0.41431 0.0
C1312 C 0.8718 0.60457 0.45216 0.0
C1313 C 0.84809 0.57956 0.46335 0.0
C1314 C 0.82486 0.55796 0.44919 0.0
C1315 C 0.82371 0.56281 0.42503 0.0
H1316 H 0.24445 0.8944 0.56171 0.0
H1317 H 0.2729 0.82964 0.57202 0.0
H1318 H 0.26277 0.9023 0.52112 0.0
H1319 H 0.29382 0.83934 0.53226 0.0
H1320 H 0.25723 0.81099 0.45712 0.0
H1321 H 0.26321 0.81922 0.49916 0.0
H1322 H 0.29562 0.91362 0.4885 0.0
H1323 H 0.28839 0.90496 0.44592 0.0
C1324 C 0.25605 0.88307 0.55556 0.0
C1325 C 0.25682 0.86101 0.56942 0.0
C1326 C 0.26675 0.88767 0.53238 0.0
C1327 C 0.2788 0.87059 0.5232 0.0
C1328 C 0.28356 0.85192 0.53853 0.0
C1329 C 0.27183 0.84649 0.56128 0.0
C1330 C 0.26598 0.83359 0.46364 0.0
C1331 C 0.27187 0.85721 0.44826 0.0
C1332 C 0.26987 0.83847 0.48784 0.0
C1333 C 0.28012 0.86721 0.4973 0.0
C1334 C 0.28743 0.8912 0.48179 0.0
C1335 C 0.2832 0.88621 0.45745 0.0
H1336 H 0.44592 0.25635 0.54433 0.0
H1337 H 0.38036 0.28485 0.54584 0.0
H1338 H 0.44621 0.2577 0.50163 0.0
H1339 H 0.3816 0.28764 0.50253 0.0
H1340 H 0.36776 0.25281 0.42418 0.0
H1341 H 0.36784 0.25946 0.46708 0.0
H1342 H 0.46215 0.28847 0.46894 0.0
H1343 H 0.46124 0.2798 0.42658 0.0
C1344 C 0.43184 0.26339 0.53552 0.0
C1345 C 0.41321 0.27061 0.54859 0.0
C1346 C 0.4322 0.26446 0.51085 0.0
C1347 C 0.41432 0.2733 0.49833 0.0
C1348 C 0.39558 0.28056 0.51143 0.0
C1349 C 0.39492 0.27908 0.53629 0.0
C1350 C 0.38857 0.26123 0.43381 0.0
C1351 C 0.41445 0.26559 0.42219 0.0
C1352 C 0.38868 0.26505 0.45844 0.0
C1353 C 0.41484 0.27376 0.4718 0.0
C1354 C 0.44127 0.28062 0.45957 0.0
C1355 C 0.44093 0.2761 0.43519 0.0
H1356 H 0.20431 0.45234 0.5459 0.0
H1357 H 0.10894 0.39208 0.55048 0.0
H1358 H 0.20076 0.45336 0.50332 0.0
H1359 H 0.10523 0.39382 0.50737 0.0
H1360 H 0.12262 0.37892 0.42845 0.0
H1361 H 0.11964 0.37784 0.47156 0.0
H1362 H 0.18242 0.47294 0.47357 0.0
H1363 H 0.18629 0.47374 0.4307 0.0
C1364 C 0.18248 0.43952 0.5378 0.0
C1365 C 0.15686 0.42228 0.55152 0.0
C1366 C 0.18042 0.4403 0.51336 0.0
C1367 C 0.15264 0.42409 0.50201 0.0
C1368 C 0.12695 0.4065 0.51566 0.0
C1369 C 0.12906 0.40552 0.54028 0.0
C1370 C 0.13551 0.39961 0.43816 0.0
C1371 C 0.15513 0.4263 0.42636 0.0
C1372 C 0.13367 0.39903 0.4628 0.0
C1373 C 0.15117 0.42521 0.47594 0.0
C1374 C 0.16927 0.45224 0.46394 0.0
C1375 C 0.17144 0.45273 0.4394 0.0
H1376 H 0.79462 0.17397 0.45534 0.0
H1377 H 0.70031 0.10958 0.45002 0.0
H1378 H 0.7912 0.17059 0.4982 0.0
H1379 H 0.6971 0.10538 0.49297 0.0
H1380 H 0.69667 0.13775 0.56901 0.0
H1381 H 0.69846 0.13466 0.52612 0.0
H1382 H 0.78417 0.13937 0.53139 0.0
H1383 H 0.78285 0.14358 0.5742 0.0
C1384 C 0.77324 0.15872 0.46331 0.0
C1385 C 0.74773 0.14214 0.44927 0.0
C1386 C 0.7713 0.15663 0.48792 0.0
C1387 C 0.74385 0.1377 0.49907 0.0
C1388 C 0.71848 0.12052 0.48497 0.0
C1389 C 0.72037 0.12282 0.46034 0.0
C1390 C 0.71574 0.13781 0.56101 0.0
C1391 C 0.73975 0.1412 0.57494 0.0
C1392 C 0.71671 0.13588 0.53642 0.0
C1393 C 0.74159 0.13701 0.52527 0.0
C1394 C 0.76498 0.13908 0.53935 0.0
C1395 C 0.76414 0.14132 0.56391 0.0
H1396 H 0.53819 0.71961 0.44348 0.0
H1397 H 0.63411 0.75971 0.43983 0.0
H1398 H 0.54042 0.71798 0.48641 0.0
H1399 H 0.6366 0.75945 0.48298 0.0
H1400 H 0.63213 0.74858 0.56278 0.0
H1401 H 0.62595 0.73403 0.52089 0.0
H1402 H 0.55602 0.7564 0.51462 0.0
H1403 H 0.56155 0.76984 0.55586 0.0
C1404 C 0.55977 0.72795 0.45188 0.0
C1405 C 0.58602 0.74027 0.43835 0.0
C1406 C 0.56108 0.7271 0.47651 0.0
C1407 C 0.58876 0.73917 0.48824 0.0
C1408 C 0.61489 0.7498 0.47459 0.0
C1409 C 0.6135 0.75016 0.44985 0.0
C1410 C 0.6151 0.74978 0.55245 0.0
C1411 C 0.59754 0.76063 0.56258 0.0
C1412 C 0.61168 0.74165 0.52845 0.0
C1413 C 0.59051 0.74407 0.5143 0.0
C1414 C 0.57219 0.75369 0.52491 0.0
C1415 C 0.57561 0.76175 0.54865 0.0
H1416 H 0.3856 0.13221 0.20719 0.0
H1417 H 0.41567 0.22015 0.17834 0.0
H1418 H 0.38329 0.1508 0.2469 0.0
H1419 H 0.41241 0.23831 0.21755 0.0
H1420 H 0.37279 0.2493 0.28771 0.0
H1421 H 0.36743 0.22371 0.25005 0.0
H1422 H 0.43003 0.1971 0.27376 0.0
H1423 H 0.43667 0.22408 0.31098 0.0
C1424 C 0.39113 0.15528 0.20928 0.0
C1425 C 0.40084 0.17479 0.18977 0.0
C1426 C 0.38998 0.16592 0.23194 0.0
C1427 C 0.39762 0.19596 0.23522 0.0
C1428 C 0.40623 0.21504 0.2155 0.0
C1429 C 0.40818 0.20467 0.19311 0.0
C1430 C 0.38507 0.23761 0.28509 0.0
C1431 C 0.40469 0.23818 0.30262 0.0
C1432 C 0.38197 0.22296 0.26352 0.0
C1433 C 0.39807 0.20818 0.25912 0.0
C1434 C 0.41693 0.20785 0.27689 0.0
C1435 C 0.42056 0.22312 0.29826 0.0
H1436 H 0.25838 0.37155 0.19328 0.0
H1437 H 0.22803 0.43271 0.17314 0.0
H1438 H 0.2354 0.36568 0.23236 0.0
H1439 H 0.20373 0.42542 0.21154 0.0
H1440 H 0.14393 0.3804 0.27811 0.0
H1441 H 0.16017 0.37357 0.2389 0.0
H1442 H 0.25141 0.4165 0.2635 0.0
H1443 H 0.23548 0.42426 0.30231 0.0
C1444 C 0.24619 0.38311 0.19701 0.0
C1445 C 0.24428 0.40203 0.18009 0.0
C1446 C 0.233 0.37961 0.21919 0.0
C1447 C 0.21745 0.39466 0.22449 0.0
C1448 C 0.21505 0.41308 0.20747 0.0
C1449 C 0.22882 0.41713 0.18556 0.0
C1450 C 0.16734 0.38789 0.27517 0.0
C1451 C 0.1886 0.4031 0.29293 0.0
C1452 C 0.17653 0.38396 0.2529 0.0
C1453 C 0.20688 0.39439 0.24855 0.0
C1454 C 0.22785 0.40807 0.26671 0.0
C1455 C 0.21881 0.41269 0.28872 0.0
H1456 H 0.87053 0.23804 0.20821 0.0
H1457 H 0.77668 0.20324 0.19391 0.0
H1458 H 0.85835 0.21904 0.24881 0.0
H1459 H 0.76463 0.1838 0.23427 0.0
H1460 H 0.75561 0.13008 0.30206 0.0
H1461 H 0.77177 0.14421 0.26101 0.0
H1462 H 0.83253 0.23483 0.28329 0.0
H1463 H 0.816 0.22101 0.32419 0.0
C1464 C 0.84734 0.22607 0.21368 0.0
C1465 C 0.82452 0.22226 0.19809 0.0
C1466 C 0.84044 0.21527 0.23681 0.0
C1467 C 0.81062 0.19993 0.24441 0.0
C1468 C 0.78776 0.19534 0.22862 0.0
C1469 C 0.79468 0.20666 0.20569 0.0
C1470 C 0.7727 0.15289 0.2982 0.0
C1471 C 0.78444 0.17456 0.31615 0.0
C1472 C 0.78183 0.16092 0.2748 0.0
C1473 C 0.80329 0.19053 0.26921 0.0
C1474 C 0.81607 0.21183 0.28731 0.0
C1475 C 0.8065 0.20397 0.31059 0.0
H1476 H 0.5525 0.80019 0.18258 0.0
H1477 H 0.6475 0.86276 0.18405 0.0
H1478 H 0.55356 0.78946 0.22407 0.0
H1479 H 0.6484 0.85225 0.22637 0.0
H1480 H 0.63723 0.79237 0.29346 0.0
H1481 H 0.64105 0.80971 0.25263 0.0
H1482 H 0.56042 0.8141 0.26209 0.0
H1483 H 0.55625 0.79635 0.30251 0.0
C1484 C 0.57371 0.81175 0.19176 0.0
C1485 C 0.59998 0.83227 0.1799 0.0
C1486 C 0.57422 0.80579 0.2157 0.0
C1487 C 0.601 0.82017 0.22859 0.0
C1488 C 0.62743 0.84074 0.21685 0.0
C1489 C 0.62689 0.84687 0.1927 0.0
C1490 C 0.62044 0.79724 0.28685 0.0
C1491 C 0.59615 0.79249 0.30112 0.0
C1492 C 0.62276 0.80737 0.26352 0.0
C1493 C 0.60085 0.81294 0.25406 0.0
C1494 C 0.57735 0.80944 0.26871 0.0
C1495 C 0.57499 0.79929 0.29192 0.0
H1496 H 0.78098 0.64004 0.19069 0.0
H1497 H 0.7652 0.55053 0.18045 0.0
H1498 H 0.80903 0.64467 0.22664 0.0
H1499 H 0.79126 0.55397 0.21721 0.0
H1500 H 0.85595 0.57387 0.27782 0.0
H1501 H 0.83463 0.57254 0.23899 0.0
H1502 H 0.80243 0.63007 0.2652 0.0
H1503 H 0.82649 0.6337 0.30273 0.0
C1504 C 0.78353 0.62134 0.19623 0.0
C1505 C 0.77108 0.595 0.18282 0.0
C1506 C 0.79933 0.62377 0.21701 0.0
C1507 C 0.8022 0.59952 0.22529 0.0
C1508 C 0.79007 0.57334 0.21144 0.0
C1509 C 0.77493 0.57124 0.19037 0.0
C1510 C 0.84431 0.58621 0.27517 0.0
C1511 C 0.84198 0.60311 0.29366 0.0
C1512 C 0.83185 0.58531 0.25292 0.0
C1513 C 0.81647 0.60103 0.24871 0.0
C1514 C 0.81435 0.61794 0.26735 0.0
C1515 C 0.82736 0.61933 0.28929 0.0
H1516 H 0.16165 0.79687 0.19371 0.0
H1517 H 0.20587 0.7452 0.20235 0.0
H1518 H 0.1787 0.81862 0.2329 0.0
H1519 H 0.22134 0.76531 0.2419 0.0
H1520 H 0.26958 0.82364 0.30189 0.0
H1521 H 0.25524 0.80952 0.26089 0.0
H1522 H 0.17165 0.80751 0.27375 0.0
H1523 H 0.18738 0.82385 0.31448 0.0
C1524 C 0.17467 0.78991 0.2042 0.0
C1525 C 0.18265 0.76956 0.19518 0.0
C1526 C 0.18435 0.80225 0.22661 0.0
C1527 C 0.20164 0.79395 0.24041 0.0
C1528 C 0.20884 0.77291 0.23146 0.0
C1529 C 0.19975 0.76113 0.20892 0.0
C1530 C 0.24838 0.82059 0.2957 0.0
C1531 C 0.22933 0.82445 0.311 0.0
C1532 C 0.24001 0.81226 0.27237 0.0
C1533 C 0.21199 0.80669 0.26422 0.0
C1534 C 0.19346 0.81181 0.27943 0.0
C1535 C 0.20229 0.821 0.30269 0.0
H1536 H 0.57127 0.78028 0.67604 0.0
H1537 H 0.65102 0.7762 0.69143 0.0
H1538 H 0.57325 0.80051 0.7155 0.0
H1539 H 0.6531 0.79697 0.73106 0.0
H1540 H 0.6425 0.87056 0.78644 0.0
H1541 H 0.64944 0.85433 0.74716 0.0
H1542 H 0.57367 0.76664 0.75966 0.0
H1543 H 0.5669 0.78272 0.79868 0.0
C1544 C 0.58963 0.78438 0.68765 0.0
C1545 C 0.61118 0.77697 0.68061 0.0
C1546 C 0.59065 0.79582 0.71021 0.0
C1547 C 0.61336 0.80029 0.72608 0.0
C1548 C 0.63554 0.79386 0.71893 0.0
C1549 C 0.6343 0.78199 0.69637 0.0
C1550 C 0.62775 0.84766 0.78093 0.0
C1551 C 0.60428 0.82767 0.79568 0.0
C1552 C 0.63178 0.83844 0.75858 0.0
C1553 C 0.61209 0.8093 0.75062 0.0
C1554 C 0.5892 0.78917 0.76557 0.0
C1555 C 0.58546 0.79826 0.78792 0.0
H1556 H 0.76568 0.53482 0.80122 0.0
H1557 H 0.78119 0.62491 0.79423 0.0
H1558 H 0.78003 0.5357 0.76026 0.0
H1559 H 0.79532 0.62558 0.75275 0.0
H1560 H 0.84851 0.62202 0.68671 0.0
H1561 H 0.83554 0.62425 0.72803 0.0
H1562 H 0.7583 0.53592 0.72147 0.0
H1563 H 0.77123 0.53349 0.68055 0.0
C1564 C 0.77216 0.55486 0.79096 0.0
C1565 C 0.77216 0.57976 0.80099 0.0
C1566 C 0.78023 0.55527 0.7674 0.0
C1567 C 0.78858 0.58061 0.75325 0.0
C1568 C 0.78911 0.60579 0.7633 0.0
C1569 C 0.78086 0.60533 0.78697 0.0
C1570 C 0.82877 0.60311 0.69412 0.0
C1571 C 0.81104 0.57748 0.68041 0.0
C1572 C 0.82126 0.60448 0.71771 0.0
C1573 C 0.79603 0.58018 0.72799 0.0
C1574 C 0.77814 0.55481 0.71414 0.0
C1575 C 0.78553 0.55348 0.69064 0.0
H1576 H 0.22456 0.8732 0.69365 0.0
H1577 H 0.21711 0.78953 0.67188 0.0
H1578 H 0.19865 0.84985 0.73057 0.0
H1579 H 0.1906 0.76606 0.70832 0.0
H1580 H 0.20426 0.7624 0.78925 0.0
H1581 H 0.21504 0.77811 0.74831 0.0
H1582 H 0.15075 0.80832 0.75033 0.0
H1583 H 0.13977 0.79245 0.79179 0.0
C1584 C 0.21665 0.84965 0.69652 0.0
C1585 C 0.22275 0.83308 0.68006 0.0
C1586 C 0.20162 0.83626 0.71746 0.0
C1587 C 0.19285 0.80626 0.72221 0.0
C1588 C 0.19735 0.78929 0.70505 0.0
C1589 C 0.21239 0.80267 0.68422 0.0
C1590 C 0.19218 0.77214 0.78098 0.0
C1591 C 0.17132 0.77641 0.7937 0.0
C1592 C 0.19813 0.78083 0.75746 0.0
C1593 C 0.18352 0.79418 0.74622 0.0
C1594 C 0.16221 0.798 0.75871 0.0
C1595 C 0.15595 0.78891 0.78231 0.0
H1596 H 0.41875 0.21327 0.81439 0.0
H1597 H 0.36749 0.12489 0.78442 0.0
H1598 H 0.41487 0.23513 0.77681 0.0
H1599 H 0.36485 0.14675 0.74674 0.0
H1600 H 0.42296 0.20697 0.68167 0.0
H1601 H 0.41694 0.18553 0.72111 0.0
H1602 H 0.36792 0.22873 0.74311 0.0
H1603 H 0.37315 0.24975 0.70298 0.0
C1604 C 0.40571 0.19851 0.80011 0.0
C1605 C 0.39275 0.16734 0.80254 0.0
C1606 C 0.40371 0.21101 0.77858 0.0
C1607 C 0.3894 0.19256 0.75899 0.0
C1608 C 0.3758 0.16142 0.76164 0.0
C1609 C 0.37736 0.14896 0.78319 0.0
C1610 C 0.41074 0.21184 0.69483 0.0
C1611 C 0.39852 0.23004 0.68923 0.0
C1612 C 0.40725 0.19948 0.71737 0.0
C1613 C 0.39201 0.20552 0.73508 0.0
C1614 C 0.3798 0.22381 0.72969 0.0
C1615 C 0.38266 0.23566 0.70678 0.0
H1616 H 0.21885 0.36922 0.80351 0.0
H1617 H 0.23403 0.45936 0.80941 0.0
H1618 H 0.20149 0.36673 0.76277 0.0
H1619 H 0.21592 0.45639 0.76953 0.0
H1620 H 0.2249 0.45899 0.69106 0.0
H1621 H 0.23823 0.45586 0.73148 0.0
H1622 H 0.16064 0.36769 0.73797 0.0
H1623 H 0.1475 0.37039 0.69668 0.0
C1624 C 0.21817 0.3883 0.79626 0.0
C1625 C 0.22809 0.4146 0.80957 0.0
C1626 C 0.20807 0.38677 0.77306 0.0
C1627 C 0.20776 0.41151 0.76301 0.0
C1628 C 0.2165 0.43722 0.77671 0.0
C1629 C 0.22673 0.43883 0.79966 0.0
C1630 C 0.21068 0.43879 0.70091 0.0
C1631 C 0.18505 0.415 0.6907 0.0
C1632 C 0.21824 0.4371 0.72417 0.0
C1633 C 0.2002 0.41172 0.7379 0.0
C1634 C 0.1749 0.38749 0.72767 0.0
C1635 C 0.16733 0.38914 0.70417 0.0
H1636 H 0.8052 0.22713 0.82711 0.0
H1637 H 0.89317 0.25308 0.80056 0.0
H1638 H 0.78351 0.20495 0.78904 0.0
H1639 H 0.87144 0.23168 0.76195 0.0
H1640 H 0.82034 0.2329 0.69283 0.0
H1641 H 0.84449 0.24746 0.73145 0.0
H1642 H 0.77744 0.1629 0.76061 0.0
H1643 H 0.75325 0.14808 0.72184 0.0
C1644 C 0.81981 0.22735 0.81336 0.0
C1645 C 0.85077 0.2412 0.81699 0.0
C1646 C 0.8074 0.21479 0.79151 0.0
C1647 C 0.82582 0.21649 0.77267 0.0
C1648 C 0.8568 0.23009 0.77627 0.0
C1649 C 0.86918 0.24226 0.79831 0.0
C1650 C 0.81083 0.21733 0.70744 0.0
C1651 C 0.78475 0.18948 0.70442 0.0
C1652 C 0.82483 0.22556 0.72945 0.0
C1653 C 0.81279 0.20626 0.74891 0.0
C1654 C 0.78705 0.17817 0.74583 0.0
C1655 C 0.77328 0.16972 0.72369 0.0
H1656 H 0.47906 0.05173 0.14132 0.0
H1657 H 0.52111 0.08163 0.0731 0.0
H1658 H 0.48218 0.00611 0.13745 0.0
H1659 H 0.52379 0.03567 0.06905 0.0
H1660 H 0.48927 0.93051 0.06687 0.0
H1661 H 0.48659 0.97667 0.06732 0.0
H1662 H 0.5294 0.99895 0.13574 0.0
H1663 H 0.53251 0.95315 0.13512 0.0
C1664 C 0.48828 0.04816 0.12525 0.0
C1665 C 0.49971 0.07006 0.10745 0.0
C1666 C 0.4904 0.02229 0.12317 0.0
C1667 C 0.50353 0.01761 0.10307 0.0
C1668 C 0.5136 0.03879 0.08472 0.0
C1669 C 0.512 0.06496 0.08701 0.0
C1670 C 0.49865 0.94565 0.08174 0.0
C1671 C 0.51128 0.93844 0.10088 0.0
C1672 C 0.49705 0.97193 0.08202 0.0
C1673 C 0.50745 0.9911 0.1017 0.0
C1674 C 0.52092 0.98435 0.12049 0.0
C1675 C 0.52304 0.95838 0.12 0.0
H1676 H 0.58542 0.5446 0.10669 0.0
H1677 H 0.55062 0.46054 0.06937 0.0
H1678 H 0.54003 0.5459 0.09703 0.0
H1679 H 0.50467 0.46127 0.06092 0.0
H1680 H 0.45886 0.54431 0.06315 0.0
H1681 H 0.50572 0.54391 0.05931 0.0
H1682 H 0.46624 0.45882 0.09524 0.0
H1683 H 0.41989 0.4598 0.10037 0.0
C1684 C 0.56851 0.52681 0.09595 0.0
C1685 C 0.57141 0.50217 0.08923 0.0
C1686 C 0.5425 0.52752 0.0905 0.0
C1687 C 0.5189 0.50348 0.07851 0.0
C1688 C 0.52252 0.47987 0.0704 0.0
C1689 C 0.54872 0.47943 0.07542 0.0
C1690 C 0.46006 0.52539 0.07012 0.0
C1691 C 0.4358 0.5024 0.08257 0.0
C1692 C 0.4868 0.52515 0.06776 0.0
C1693 C 0.48947 0.50148 0.07714 0.0
C1694 C 0.46454 0.47724 0.08774 0.0
C1695 C 0.43796 0.47776 0.09057 0.0
H1696 H 0.91139 0.45555 0.13974 0.0
H1697 H 0.95485 0.41239 0.10605 0.0
H1698 H 0.95675 0.50368 0.13616 0.0
H1699 H 1.00111 0.46075 0.10346 0.0
H1700 H 0.06965 0.55518 0.08062 0.0
H1701 H 0.02244 0.50793 0.08258 0.0
H1702 H 0.00585 0.53197 0.15185 0.0
H1703 H 0.05278 0.57933 0.14963 0.0
C1704 C 0.9307 0.45634 0.13153 0.0
C1705 C 0.92934 0.43012 0.12284 0.0
C1706 C 0.95688 0.48398 0.12974 0.0
C1707 C 0.98263 0.48623 0.11942 0.0
C1708 C 0.98153 0.45992 0.11115 0.0
C1709 C 0.95517 0.43214 0.11289 0.0
C1710 C 0.05565 0.55048 0.0961 0.0
C1711 C 0.06488 0.57098 0.11495 0.0
C1712 C 0.02876 0.52328 0.09734 0.0
C1713 C 0.01048 0.51589 0.1175 0.0
C1714 C 0.01919 0.53697 0.13595 0.0
C1715 C 0.04604 0.56424 0.13465 0.0
H1716 H 0.09715 0.53063 0.40245 0.0
H1717 H 0.06406 0.48631 0.33534 0.0
H1718 H 0.05037 0.53091 0.40873 0.0
H1719 H 0.0174 0.48669 0.34155 0.0
H1720 H 0.95537 0.52588 0.34806 0.0
H1721 H 1.00381 0.52851 0.34404 0.0
H1722 H 0.99438 0.49204 0.41433 0.0
H1723 H 0.94587 0.48926 0.41828 0.0
C1724 C 0.07973 0.52073 0.38918 0.0
C1725 C 0.08409 0.50835 0.36846 0.0
C1726 C 0.05305 0.52089 0.39276 0.0
C1727 C 0.03049 0.50913 0.3755 0.0
C1728 C 0.03464 0.49626 0.35499 0.0
C1729 C 0.06112 0.4957 0.35157 0.0
C1730 C 0.96401 0.51907 0.36281 0.0
C1731 C 0.947 0.50739 0.38347 0.0
C1732 C 0.99148 0.52024 0.36042 0.0
C1733 C 1.0026 0.51015 0.37879 0.0
C1734 C 0.98631 0.49996 0.39993 0.0
C1735 C 0.95864 0.49837 0.40218 0.0
H1736 H 0.55756 0.08449 0.40884 0.0
H1737 H 0.5747 0.05074 0.34442 0.0
H1738 H 0.50881 0.03878 0.41238 0.0
H1739 H 0.52596 0.00516 0.34789 0.0
H1740 H 0.42349 0.94794 0.34679 0.0
H1741 H 0.47152 0.99468 0.34546 0.0
H1742 H 0.48801 0.98192 0.41825 0.0
H1743 H 0.44004 0.93505 0.41951 0.0
C1744 C 0.55099 0.06712 0.39561 0.0
C1745 C 0.56986 0.07101 0.37641 0.0
C1746 C 0.52318 0.04105 0.39764 0.0
C1747 C 0.51356 0.01866 0.38027 0.0
C1748 C 0.53272 0.02228 0.36135 0.0
C1749 C 0.56071 0.04813 0.35953 0.0
C1750 C 0.43714 0.95547 0.36261 0.0
C1751 C 0.42813 0.93802 0.38326 0.0
C1752 C 0.46471 0.98196 0.36178 0.0
C1753 C 0.48354 0.99166 0.38168 0.0
C1754 C 0.47389 0.97493 0.40268 0.0
C1755 C 0.44652 0.9482 0.4034 0.0
H1756 H 0.52734 0.46179 0.4122 0.0
H1757 H 0.47868 0.43785 0.34631 0.0
H1758 H 0.52571 0.50839 0.41331 0.0
H1759 H 0.47732 0.48468 0.34722 0.0
H1760 H 0.52171 0.58813 0.3419 0.0
H1761 H 0.52011 0.53992 0.34356 0.0
H1762 H 0.4881 0.5276 0.4155 0.0
H1763 H 0.48946 0.57573 0.41375 0.0
C1764 C 0.51571 0.46627 0.39825 0.0
C1765 C 0.50297 0.44627 0.37924 0.0
C1766 C 0.51485 0.4929 0.39885 0.0
C1767 C 0.50172 0.50027 0.3802 0.0
C1768 C 0.48789 0.47967 0.36167 0.0
C1769 C 0.48831 0.45276 0.36129 0.0
C1770 C 0.51484 0.57533 0.35817 0.0
C1771 C 0.50588 0.58567 0.37774 0.0
C1772 C 0.51352 0.54761 0.35902 0.0
C1773 C 0.50363 0.52991 0.37957 0.0
C1774 C 0.49575 0.54078 0.39945 0.0
C1775 C 0.4966 0.56828 0.39846 0.0
H1776 H 0.5343 0.07966 0.91803 0.0
H1777 H 0.49789 0.05159 0.84784 0.0
H1778 H 0.53694 0.03371 0.92264 0.0
H1779 H 0.50053 0.00599 0.85242 0.0
H1780 H 0.53945 0.94564 0.85676 0.0
H1781 H 0.5438 0.99502 0.85642 0.0
H1782 H 0.49885 0.9763 0.9239 0.0
H1783 H 0.49458 0.92685 0.92429 0.0
C1784 C 0.52666 0.06354 0.90373 0.0
C1785 C 0.51569 0.06897 0.88266 0.0
C1786 C 0.5282 0.0374 0.90635 0.0
C1787 C 0.51933 0.01665 0.88775 0.0
C1788 C 0.50796 0.02191 0.86687 0.0
C1789 C 0.50603 0.04775 0.86438 0.0
C1790 C 0.53132 0.95244 0.87183 0.0
C1791 C 0.51653 0.93248 0.89048 0.0
C1792 C 0.53352 0.9805 0.87153 0.0
C1793 C 0.52125 0.98915 0.88997 0.0
C1794 C 0.50847 0.9701 0.90948 0.0
C1795 C 0.50597 0.94188 0.90967 0.0
H1796 H 0.43145 0.46883 0.85062 0.0
H1797 H 0.44521 0.50808 0.92015 0.0
H1798 H 0.4805 0.47256 0.85268 0.0
H1799 H 0.49433 0.51203 0.9222 0.0
H1800 H 0.56663 0.48235 0.92311 0.0
H1801 H 0.51832 0.48028 0.92371 0.0
H1802 H 0.53366 0.51531 0.85251 0.0
H1803 H 0.5819 0.51716 0.85192 0.0
C1804 C 0.4447 0.47762 0.86654 0.0
C1805 C 0.43453 0.48805 0.88526 0.0
C1806 C 0.47295 0.48022 0.86758 0.0
C1807 C 0.49144 0.49304 0.88745 0.0
C1808 C 0.48062 0.5021 0.90665 0.0
C1809 C 0.45252 0.49978 0.90551 0.0
C1810 C 0.55992 0.49026 0.90783 0.0
C1811 C 0.57799 0.49999 0.88749 0.0
C1812 C 0.53227 0.48899 0.90813 0.0
C1813 C 0.522 0.49714 0.88801 0.0
C1814 C 0.54079 0.50837 0.86812 0.0
C1815 C 0.56859 0.50992 0.86791 0.0
H1816 H 0.05582 0.58434 0.8535 0.0
H1817 H 0.08591 0.57834 0.92347 0.0
H1818 H 0.01139 0.53503 0.8587 0.0
H1819 H 0.04138 0.52904 0.92874 0.0
H1820 H 0.93952 0.45471 0.93304 0.0
H1821 H 0.98408 0.50445 0.93074 0.0
H1822 H 0.00501 0.48225 0.86243 0.0
H1823 H 0.9605 0.43242 0.86484 0.0
C1824 C 0.0525 0.57279 0.87021 0.0
C1825 C 0.07414 0.58511 0.88814 0.0
C1826 C 0.02737 0.54444 0.87305 0.0
C1827 C 0.02326 0.52811 0.89398 0.0
C1828 C 0.04407 0.54115 0.91242 0.0
C1829 C 0.06942 0.56932 0.90945 0.0
C1830 C 0.95403 0.46035 0.91778 0.0
C1831 C 0.94676 0.43982 0.89915 0.0
C1832 C 0.97941 0.48875 0.91644 0.0
C1833 C 0.99768 0.49727 0.89627 0.0
C1834 C 0.991 0.47633 0.87803 0.0
C1835 C 0.96585 0.44776 0.87953 0.0
H1836 H 0.92229 0.47534 0.56501 0.0
H1837 H 0.94152 0.51506 0.6346 0.0
H1838 H 0.96949 0.47496 0.56551 0.0
H1839 H 0.98866 0.51472 0.6351 0.0
H1840 H 0.04975 0.47443 0.63975 0.0
H1841 H 1.00206 0.47349 0.63669 0.0
H1842 H 0.02563 0.51117 0.56648 0.0
H1843 H 0.07334 0.51209 0.56957 0.0
C1844 C 0.93685 0.48438 0.58024 0.0
C1845 C 0.92832 0.49534 0.59972 0.0
C1846 C 0.9638 0.48415 0.58053 0.0
C1847 C 0.98255 0.49444 0.60047 0.0
C1848 C 0.97443 0.50623 0.61964 0.0
C1849 C 0.94768 0.50683 0.61922 0.0
C1850 C 0.04441 0.48184 0.62347 0.0
C1851 C 0.06518 0.49326 0.60487 0.0
C1852 C 0.01734 0.4817 0.62184 0.0
C1853 C 0.01033 0.49264 0.60147 0.0
C1854 C 0.03043 0.50261 0.58239 0.0
C1855 C 0.05768 0.50312 0.58414 0.0
H1856 H 0.56175 0.11472 0.59979 0.0
H1857 H 0.56663 0.07638 0.66638 0.0
H1858 H 0.51389 0.06963 0.59119 0.0
H1859 H 0.51879 0.03145 0.65787 0.0
H1860 H 0.41912 0.96995 0.64643 0.0
H1861 H 0.46389 0.0188 0.65288 0.0
H1862 H 0.49652 0.01383 0.58371 0.0
H1863 H 0.4519 0.96493 0.5774 0.0
C1864 C 0.55259 0.09658 0.61251 0.0
C1865 C 0.56789 0.09888 0.63368 0.0
C1866 C 0.52529 0.07088 0.60761 0.0
C1867 C 0.51255 0.04727 0.62399 0.0
C1868 C 0.52794 0.04953 0.6451 0.0
C1869 C 0.55544 0.07501 0.64983 0.0
C1870 C 0.43549 0.97975 0.63239 0.0
C1871 C 0.43217 0.96383 0.61143 0.0
C1872 C 0.4612 0.00745 0.63617 0.0
C1873 C 0.48375 0.01985 0.61889 0.0
C1874 C 0.47945 0.0048 0.59729 0.0
C1875 C 0.45398 0.97691 0.59367 0.0
H1876 H 0.46336 0.4182 0.59035 0.0
H1877 H 0.55296 0.45931 0.61868 0.0
H1878 H 0.46804 0.46749 0.58675 0.0
H1879 H 0.55833 0.5084 0.61364 0.0
H1880 H 0.54253 0.58711 0.62919 0.0
H1881 H 0.54195 0.53957 0.63039 0.0
H1882 H 0.49191 0.51308 0.56495 0.0
H1883 H 0.49179 0.5603 0.56431 0.0
C1884 C 0.4841 0.43771 0.59566 0.0
C1885 C 0.50781 0.43468 0.60462 0.0
C1886 C 0.48698 0.46605 0.59329 0.0
C1887 C 0.51368 0.49207 0.59976 0.0
C1888 C 0.53736 0.48896 0.60866 0.0
C1889 C 0.5344 0.4607 0.61121 0.0
C1890 C 0.53208 0.57138 0.6148 0.0
C1891 C 0.51718 0.57731 0.59669 0.0
C1892 C 0.53163 0.54406 0.61548 0.0
C1893 C 0.5165 0.5222 0.59792 0.0
C1894 C 0.5031 0.529 0.57908 0.0
C1895 C 0.50333 0.55617 0.57854 0.0
H1896 H 0.71903 0.25953 0.16739 0.0
H1897 H 0.7181 0.22425 0.09792 0.0
H1898 H 0.66714 0.24696 0.16209 0.0
H1899 H 0.66635 0.21036 0.09308 0.0
H1900 H 0.57387 0.18785 0.08399 0.0
H1901 H 0.62793 0.22044 0.08775 0.0
H1902 H 0.6209 0.20298 0.16307 0.0
H1903 H 0.56691 0.17218 0.15917 0.0
C1904 C 0.70788 0.2494 0.1509 0.0
C1905 C 0.7226 0.24253 0.13323 0.0
C1906 C 0.67804 0.24199 0.1479 0.0
C1907 C 0.66218 0.22721 0.12727 0.0
C1908 C 0.67765 0.22206 0.10909 0.0
C1909 C 0.70747 0.22981 0.11196 0.0
C1910 C 0.584 0.19204 0.10138 0.0
C1911 C 0.56652 0.1778 0.12131 0.0
C1912 C 0.61496 0.21035 0.10358 0.0
C1913 C 0.62909 0.21396 0.12567 0.0
C1914 C 0.61106 0.20116 0.14581 0.0
C1915 C 0.58006 0.18338 0.14363 0.0
H1916 H 0.43097 0.5702 0.1406 0.0
H1917 H 0.37231 0.57506 0.08876 0.0
H1918 H 0.4523 0.62313 0.14911 0.0
H1919 H 0.39342 0.62854 0.09746 0.0
H1920 H 0.48094 0.72397 0.09018 0.0
H1921 H 0.44236 0.67148 0.08818 0.0
H1922 H 0.44732 0.66407 0.16399 0.0
H1923 H 0.48658 0.71638 0.16589 0.0
C1924 C 0.42208 0.58258 0.13155 0.0
C1925 C 0.40024 0.56879 0.11395 0.0
C1926 C 0.43412 0.6129 0.1365 0.0
C1927 C 0.42469 0.63021 0.12387 0.0
C1928 C 0.40134 0.61588 0.10733 0.0
C1929 C 0.3891 0.58531 0.10247 0.0
C1930 C 0.47325 0.71137 0.1065 0.0
C1931 C 0.4873 0.72411 0.12812 0.0
C1932 C 0.45095 0.68125 0.10538 0.0
C1933 C 0.44215 0.66338 0.12588 0.0
C1934 C 0.4541 0.67704 0.1478 0.0
C1935 C 0.47654 0.70705 0.14889 0.0
H1936 H 0.73509 0.45323 0.15264 0.0
H1937 H 0.80054 0.50033 0.098 0.0
H1938 H 0.74267 0.41028 0.14796 0.0
H1939 H 0.80852 0.45829 0.09372 0.0
H1940 H 0.82137 0.38412 0.08317 0.0
H1941 H 0.7906 0.40779 0.08214 0.0
H1942 H 0.78343 0.40189 0.15839 0.0
H1943 H 0.813 0.37703 0.15906 0.0
C1944 C 0.75073 0.45426 0.13942 0.0
C1945 C 0.76752 0.48034 0.12593 0.0
C1946 C 0.75511 0.4297 0.13677 0.0
C1947 C 0.77619 0.43075 0.12046 0.0
C1948 C 0.7917 0.45631 0.10616 0.0
C1949 C 0.78741 0.48071 0.10885 0.0
C1950 C 0.81185 0.38656 0.09952 0.0
C1951 C 0.81947 0.37892 0.12119 0.0
C1952 C 0.79458 0.40044 0.09902 0.0
C1953 C 0.7853 0.40757 0.12025 0.0
C1954 C 0.79011 0.39675 0.1417 0.0
C1955 C 0.80703 0.38244 0.14213 0.0
H1956 H 0.29441 0.7426 0.15945 0.0
H1957 H 0.29019 0.77983 0.09207 0.0
H1958 H 0.34642 0.75722 0.15179 0.0
H1959 H 0.34215 0.79593 0.085 0.0
H1960 H 0.43545 0.82212 0.07207 0.0
H1961 H 0.38167 0.78864 0.07684 0.0
H1962 H 0.3918 0.80151 0.15268 0.0
H1963 H 0.44549 0.83312 0.14765 0.0
C1964 C 0.30449 0.75363 0.14291 0.0
C1965 C 0.28826 0.76034 0.12651 0.0
C1966 C 0.33442 0.76226 0.13856 0.0
C1967 C 0.34891 0.77827 0.11791 0.0
C1968 C 0.33196 0.78334 0.10096 0.0
C1969 C 0.30201 0.77427 0.10512 0.0
C1970 C 0.42605 0.81678 0.08972 0.0
C1971 C 0.44432 0.82988 0.10951 0.0
C1972 C 0.39524 0.79795 0.09252 0.0
C1973 C 0.38203 0.79266 0.11515 0.0
C1974 C 0.40088 0.80455 0.135 0.0
C1975 C 0.43172 0.82282 0.13218 0.0
H1976 H 0.57066 0.43237 0.15005 0.0
H1977 H 0.63264 0.42903 0.10087 0.0
H1978 H 0.54922 0.37922 0.15818 0.0
H1979 H 0.61119 0.37533 0.10901 0.0
H1980 H 0.51892 0.28641 0.1766 0.0
H1981 H 0.55642 0.33931 0.17435 0.0
H1982 H 0.56168 0.33166 0.09865 0.0
H1983 H 0.52451 0.27857 0.10092 0.0
C1984 C 0.58018 0.42027 0.14148 0.0
C1985 C 0.60317 0.43459 0.12484 0.0
C1986 C 0.56804 0.38986 0.14619 0.0
C1987 C 0.57845 0.37298 0.13419 0.0
C1988 C 0.6026 0.38772 0.11842 0.0
C1989 C 0.61501 0.41839 0.11389 0.0
C1990 C 0.52859 0.29581 0.15953 0.0
C1991 C 0.5183 0.27842 0.13887 0.0
C1992 C 0.55004 0.32616 0.15825 0.0
C1993 C 0.56161 0.33981 0.13628 0.0
C1994 C 0.5533 0.32182 0.11587 0.0
C1995 C 0.53186 0.29138 0.11716 0.0
H1996 H 0.16387 0.59355 0.07576 0.0
H1997 H 0.18633 0.61667 0.14915 0.0
H1998 H 0.19109 0.56619 0.076 0.0
H1999 H 0.21278 0.58851 0.14977 0.0
H2000 H 0.26146 0.53594 0.14316 0.0
H2001 H 0.25147 0.57711 0.13666 0.0
H2002 H 0.1741 0.51836 0.09471 0.0
H2003 H 0.1842 0.47787 0.10083 0.0
C2004 C 0.17551 0.59354 0.09172 0.0
C2005 C 0.17292 0.60697 0.11246 0.0
C2006 C 0.19083 0.57767 0.09196 0.0
C2007 C 0.20343 0.57451 0.11307 0.0
C2008 C 0.20339 0.59052 0.1332 0.0
C2009 C 0.18829 0.60671 0.13287 0.0
C2010 C 0.24257 0.53203 0.13231 0.0
C2011 C 0.2235 0.50357 0.12266 0.0
C2012 C 0.23683 0.55558 0.12863 0.0
C2013 C 0.21211 0.55112 0.11504 0.0
C2014 C 0.19369 0.52286 0.10486 0.0
C2015 C 0.1993 0.49944 0.10862 0.0
H2016 H 0.84727 0.43032 0.42757 0.0
H2017 H 0.8282 0.42543 0.353 0.0
H2018 H 0.81699 0.37591 0.43058 0.0
H2019 H 0.79948 0.37101 0.35535 0.0
H2020 H 0.74415 0.27253 0.36343 0.0
H2021 H 0.75925 0.32536 0.36684 0.0
H2022 H 0.82325 0.33605 0.4208 0.0
H2023 H 0.80702 0.28328 0.41822 0.0
C2024 C 0.83605 0.41747 0.41192 0.0
C2025 C 0.8398 0.43188 0.39011 0.0
C2026 C 0.81903 0.38626 0.41351 0.0
C2027 C 0.80608 0.36869 0.39314 0.0
C2028 C 0.80864 0.38349 0.37153 0.0
C2029 C 0.82518 0.41476 0.37009 0.0
C2030 C 0.76095 0.2861 0.3764 0.0
C2031 C 0.77451 0.27369 0.39042 0.0
C2032 C 0.76986 0.31652 0.37821 0.0
C2033 C 0.79289 0.33541 0.39385 0.0
C2034 C 0.8052 0.32245 0.40876 0.0
C2035 C 0.79597 0.29201 0.4072 0.0
H2036 H 0.47601 0.76893 0.35348 0.0
H2037 H 0.46352 0.74984 0.42839 0.0
H2038 H 0.43748 0.78271 0.3541 0.0
H2039 H 0.42428 0.76298 0.42888 0.0
H2040 H 0.40878 0.84521 0.42413 0.0
H2041 H 0.42922 0.81188 0.42613 0.0
H2042 H 0.38658 0.77182 0.35967 0.0
H2043 H 0.36687 0.80606 0.35738 0.0
C2044 C 0.46447 0.76686 0.36997 0.0
C2045 C 0.47334 0.75895 0.39099 0.0
C2046 C 0.44212 0.77455 0.37029 0.0
C2047 C 0.42805 0.77439 0.39163 0.0
C2048 C 0.43508 0.76389 0.41224 0.0
C2049 C 0.45751 0.75626 0.41193 0.0
C2050 C 0.40324 0.82882 0.41021 0.0
C2051 C 0.38671 0.82859 0.39041 0.0
C2052 C 0.41472 0.80947 0.41144 0.0
C2053 C 0.4099 0.78941 0.39288 0.0
C2054 C 0.3911 0.78735 0.37407 0.0
C2055 C 0.37956 0.80675 0.37286 0.0
H2056 H 0.74049 0.48738 0.37987 0.0
H2057 H 0.71891 0.52432 0.3194 0.0
H2058 H 0.68798 0.44884 0.38351 0.0
H2059 H 0.66648 0.48561 0.32301 0.0
H2060 H 0.57435 0.40407 0.32961 0.0
H2061 H 0.62845 0.42927 0.32243 0.0
H2062 H 0.6446 0.45629 0.39574 0.0
H2063 H 0.59076 0.43156 0.40267 0.0
C2064 C 0.72472 0.48686 0.36698 0.0
C2065 C 0.73383 0.50915 0.3495 0.0
C2066 C 0.69463 0.46484 0.36916 0.0
C2067 C 0.67312 0.46436 0.35367 0.0
C2068 C 0.68257 0.48529 0.33512 0.0
C2069 C 0.7126 0.50757 0.33313 0.0
C2070 C 0.58959 0.41468 0.34426 0.0
C2071 C 0.5786 0.41586 0.36669 0.0
C2072 C 0.62044 0.42925 0.34014 0.0
C2073 C 0.64072 0.44478 0.35851 0.0
C2074 C 0.62956 0.44424 0.3813 0.0
C2075 C 0.5988 0.43015 0.38529 0.0
H2076 H 0.18288 0.58231 0.32186 0.0
H2077 H 0.20715 0.57328 0.39303 0.0
H2078 H 0.2156 0.63634 0.32393 0.0
H2079 H 0.24097 0.62751 0.39514 0.0
H2080 H 0.24294 0.7187 0.40187 0.0
H2081 H 0.22973 0.66669 0.39915 0.0
H2082 H 0.26293 0.6811 0.32738 0.0
H2083 H 0.27536 0.7333 0.32989 0.0
C2084 C 0.19631 0.59196 0.33759 0.0
C2085 C 0.19275 0.57393 0.35725 0.0
C2086 C 0.21516 0.62292 0.33883 0.0
C2087 C 0.23076 0.63644 0.35982 0.0
C2088 C 0.22892 0.61791 0.37884 0.0
C2089 C 0.20987 0.5869 0.37761 0.0
C2090 C 0.24803 0.71103 0.38564 0.0
C2091 C 0.25962 0.73005 0.36593 0.0
C2092 C 0.24066 0.6811 0.38413 0.0
C2093 C 0.24485 0.66946 0.36291 0.0
C2094 C 0.25884 0.68916 0.34384 0.0
C2095 C 0.26613 0.71915 0.34533 0.0
H2096 H 0.61177 0.1759 0.32583 0.0
H2097 H 0.61842 0.18806 0.40143 0.0
H2098 H 0.58754 0.20602 0.32285 0.0
H2099 H 0.59529 0.21928 0.39861 0.0
H2100 H 0.50204 0.20945 0.38724 0.0
H2101 H 0.54321 0.2001 0.39123 0.0
H2102 H 0.58312 0.25071 0.32744 0.0
H2103 H 0.54103 0.25971 0.32318 0.0
C2104 C 0.60939 0.18638 0.34164 0.0
C2105 C 0.61681 0.17982 0.36384 0.0
C2106 C 0.59551 0.20364 0.33999 0.0
C2107 C 0.5889 0.21454 0.36057 0.0
C2108 C 0.59948 0.21065 0.38249 0.0
C2109 C 0.61301 0.19311 0.38413 0.0
C2110 C 0.51972 0.21896 0.37417 0.0
C2111 C 0.51804 0.23495 0.3547 0.0
C2112 C 0.54365 0.21392 0.37664 0.0
C2113 C 0.56661 0.22472 0.35969 0.0
C2114 C 0.56569 0.24195 0.34073 0.0
C2115 C 0.54166 0.24715 0.33831 0.0
H2116 H 0.43185 0.61022 0.4128 0.0
H2117 H 0.43742 0.6432 0.34174 0.0
H2118 H 0.37785 0.58843 0.41213 0.0
H2119 H 0.38317 0.62188 0.34113 0.0
H2120 H 0.29263 0.52966 0.33764 0.0
H2121 H 0.34457 0.56935 0.33842 0.0
H2122 H 0.33302 0.59226 0.40962 0.0
H2123 H 0.28103 0.55204 0.40901 0.0
C2124 C 0.42153 0.61363 0.39732 0.0
C2125 C 0.43872 0.62805 0.37724 0.0
C2126 C 0.39057 0.6013 0.39695 0.0
C2127 C 0.37609 0.60305 0.37643 0.0
C2128 C 0.39362 0.61979 0.35708 0.0
C2129 C 0.4247 0.63227 0.3575 0.0
C2130 C 0.30092 0.54357 0.35328 0.0
C2131 C 0.28284 0.53724 0.37344 0.0
C2132 C 0.33073 0.56655 0.35367 0.0
C2133 C 0.34311 0.58376 0.37422 0.0
C2134 C 0.3243 0.57906 0.39367 0.0
C2135 C 0.29447 0.55605 0.39328 0.0
H2136 H 0.43371 0.80901 0.85104 0.0
H2137 H 0.4297 0.83947 0.92128 0.0
H2138 H 0.37898 0.78055 0.84951 0.0
H2139 H 0.37538 0.81175 0.91969 0.0
H2140 H 0.27753 0.75185 0.9168 0.0
H2141 H 0.32958 0.76407 0.91802 0.0
H2142 H 0.34135 0.79587 0.84594 0.0
H2143 H 0.28917 0.78311 0.84455 0.0
C2144 C 0.42112 0.80897 0.86637 0.0
C2145 C 0.4359 0.82656 0.88623 0.0
C2146 C 0.38981 0.79296 0.86541 0.0
C2147 C 0.37273 0.79406 0.88438 0.0
C2148 C 0.38769 0.8101 0.90483 0.0
C2149 C 0.41886 0.82617 0.90571 0.0
C2150 C 0.29105 0.76092 0.90105 0.0
C2151 C 0.27927 0.7669 0.88069 0.0
C2152 C 0.32095 0.76804 0.90179 0.0
C2153 C 0.33981 0.78135 0.88221 0.0
C2154 C 0.32747 0.78546 0.86131 0.0
C2155 C 0.29753 0.77829 0.86056 0.0
H2156 H 0.59779 0.41948 0.92057 0.0
H2157 H 0.61745 0.42259 0.84616 0.0
H2158 H 0.56654 0.36522 0.91848 0.0
H2159 H 0.58639 0.36807 0.84398 0.0
H2160 H 0.48664 0.29011 0.84482 0.0
H2161 H 0.53145 0.33914 0.84614 0.0
H2162 H 0.55865 0.31478 0.91078 0.0
H2163 H 0.51344 0.26554 0.90959 0.0
C2164 C 0.59641 0.40833 0.90399 0.0
C2165 C 0.60987 0.42515 0.88351 0.0
C2166 C 0.57849 0.37723 0.90276 0.0
C2167 C 0.57352 0.36236 0.88095 0.0
C2168 C 0.58941 0.37895 0.86095 0.0
C2169 C 0.60752 0.4101 0.86224 0.0
C2170 C 0.5023 0.29502 0.85919 0.0
C2171 C 0.49624 0.27402 0.87726 0.0
C2172 C 0.52822 0.32307 0.85981 0.0
C2173 C 0.5487 0.33091 0.87856 0.0
C2174 C 0.54323 0.30949 0.89617 0.0
C2175 C 0.51733 0.28128 0.89547 0.0
H2176 H 0.19088 0.63601 0.83873 0.0
H2177 H 0.17809 0.61194 0.91265 0.0
H2178 H 0.2205 0.61137 0.83413 0.0
H2179 H 0.20698 0.58677 0.90805 0.0
H2180 H 0.26063 0.54259 0.89574 0.0
H2181 H 0.25231 0.58515 0.89872 0.0
H2182 H 0.20124 0.55755 0.83387 0.0
H2183 H 0.20985 0.51555 0.83074 0.0
C2184 C 0.19535 0.62644 0.85418 0.0
C2185 C 0.18191 0.62555 0.87598 0.0
C2186 C 0.21201 0.61202 0.8515 0.0
C2187 C 0.21558 0.59655 0.8706 0.0
C2188 C 0.20477 0.59847 0.89297 0.0
C2189 C 0.18808 0.61279 0.89561 0.0
C2190 C 0.24818 0.54602 0.88187 0.0
C2191 C 0.23551 0.52545 0.86318 0.0
C2192 C 0.24335 0.57036 0.88362 0.0
C2193 C 0.22596 0.57469 0.86662 0.0
C2194 C 0.21503 0.55517 0.84714 0.0
C2195 C 0.21971 0.53084 0.84547 0.0
H2196 H 0.72178 0.21655 0.83861 0.0
H2197 H 0.73611 0.265 0.90412 0.0
H2198 H 0.6703 0.20557 0.8378 0.0
H2199 H 0.68446 0.25437 0.9031 0.0
H2200 H 0.58494 0.17451 0.91192 0.0
H2201 H 0.6389 0.20691 0.9102 0.0
H2202 H 0.6328 0.22099 0.83551 0.0
H2203 H 0.5786 0.18793 0.83728 0.0
C2204 C 0.71416 0.22551 0.85255 0.0
C2205 C 0.73288 0.2411 0.87168 0.0
C2206 C 0.68463 0.21945 0.85198 0.0
C2207 C 0.67311 0.22882 0.87054 0.0
C2208 C 0.69255 0.24648 0.88871 0.0
C2209 C 0.72217 0.25263 0.88925 0.0
C2210 C 0.59507 0.1854 0.89533 0.0
C2211 C 0.57772 0.1785 0.8747 0.0
C2212 C 0.62601 0.20409 0.89433 0.0
C2213 C 0.64026 0.21617 0.87261 0.0
C2214 C 0.62252 0.21165 0.85243 0.0
C2215 C 0.59147 0.193 0.85347 0.0
H2216 H 0.37029 0.54971 0.84469 0.0
H2217 H 0.41839 0.57012 0.9109 0.0
H2218 H 0.39287 0.60281 0.83627 0.0
H2219 H 0.44259 0.62302 0.90176 0.0
H2220 H 0.49127 0.7165 0.881 0.0
H2221 H 0.44747 0.66982 0.8931 0.0
H2222 H 0.44227 0.63381 0.82303 0.0
H2223 H 0.48499 0.68076 0.81081 0.0
C2224 C 0.38493 0.56551 0.85784 0.0
C2225 C 0.39325 0.55572 0.87818 0.0
C2226 C 0.39822 0.596 0.85283 0.0
C2227 C 0.42037 0.61718 0.86787 0.0
C2228 C 0.42578 0.60747 0.88963 0.0
C2229 C 0.41216 0.57702 0.89479 0.0
C2230 C 0.48031 0.69875 0.8681 0.0
C2231 C 0.49187 0.70194 0.84512 0.0
C2232 C 0.45523 0.67201 0.87502 0.0
C2233 C 0.44156 0.64782 0.85921 0.0
C2234 C 0.45189 0.65198 0.83569 0.0
C2235 C 0.47667 0.67885 0.82869 0.0
H2236 H 0.77335 0.46328 0.83419 0.0
H2237 H 0.75055 0.46894 0.90681 0.0
H2238 H 0.78761 0.42686 0.84551 0.0
H2239 H 0.76411 0.43167 0.91811 0.0
H2240 H 0.85008 0.42321 0.92811 0.0
H2241 H 0.81392 0.43935 0.92122 0.0
H2242 H 0.77901 0.37986 0.86112 0.0
H2243 H 0.81623 0.3647 0.86746 0.0
C2244 C 0.77047 0.45604 0.85246 0.0
C2245 C 0.76164 0.46962 0.86971 0.0
C2246 C 0.77842 0.43488 0.85897 0.0
C2247 C 0.77756 0.42676 0.88284 0.0
C2248 C 0.76565 0.43797 0.89966 0.0
C2249 C 0.75778 0.45926 0.89316 0.0
C2250 C 0.83431 0.41318 0.9137 0.0
C2251 C 0.83644 0.39325 0.89802 0.0
C2252 C 0.81327 0.42212 0.9099 0.0
C2253 C 0.79382 0.41122 0.89037 0.0
C2254 C 0.79402 0.38904 0.87607 0.0
C2255 C 0.81519 0.38016 0.87984 0.0
H2256 H 0.16894 0.57255 0.57341 0.0
H2257 H 0.18037 0.57018 0.64879 0.0
H2258 H 0.1962 0.62717 0.57437 0.0
H2259 H 0.20654 0.62476 0.6501 0.0
H2260 H 0.2548 0.72546 0.6464 0.0
H2261 H 0.24625 0.67476 0.64038 0.0
H2262 H 0.1782 0.65856 0.58859 0.0
H2263 H 0.18717 0.70882 0.59412 0.0
C2264 C 0.1781 0.58385 0.59007 0.0
C2265 C 0.1725 0.56734 0.61104 0.0
C2266 C 0.19343 0.61508 0.5907 0.0
C2267 C 0.20289 0.63038 0.6124 0.0
C2268 C 0.19969 0.61379 0.63307 0.0
C2269 C 0.1847 0.5825 0.63236 0.0
C2270 C 0.23838 0.71115 0.63346 0.0
C2271 C 0.22147 0.72108 0.62091 0.0
C2272 C 0.23342 0.68209 0.63007 0.0
C2273 C 0.21157 0.66252 0.61397 0.0
C2274 C 0.19561 0.67306 0.6008 0.0
C2275 C 0.20053 0.70191 0.60419 0.0
H2276 H 0.54022 0.28937 0.66981 0.0
H2277 H 0.52297 0.25253 0.59916 0.0
H2278 H 0.58193 0.27997 0.67343 0.0
H2279 H 0.56365 0.24237 0.60298 0.0
H2280 H 0.63345 0.22072 0.61052 0.0
H2281 H 0.61433 0.25545 0.60733 0.0
H2282 H 0.58119 0.2337 0.67906 0.0
H2283 H 0.60138 0.20015 0.68223 0.0
C2284 C 0.54568 0.27985 0.65488 0.0
C2285 C 0.52783 0.27104 0.63441 0.0
C2286 C 0.56951 0.27434 0.65699 0.0
C2287 C 0.57593 0.25993 0.63868 0.0
C2288 C 0.55968 0.25368 0.61744 0.0
C2289 C 0.536 0.25924 0.61532 0.0
C2290 C 0.62331 0.22461 0.62587 0.0
C2291 C 0.6189 0.20807 0.64663 0.0
C2292 C 0.61203 0.24416 0.62402 0.0
C2293 C 0.59563 0.24695 0.64276 0.0
C2294 C 0.59386 0.23243 0.6643 0.0
C2295 C 0.60538 0.21313 0.66619 0.0
H2296 H 0.42989 0.58625 0.57228 0.0
H2297 H 0.45082 0.63649 0.63739 0.0
H2298 H 0.37677 0.56517 0.58007 0.0
H2299 H 0.39751 0.61587 0.64501 0.0
H2300 H 0.30897 0.52688 0.66565 0.0
H2301 H 0.36018 0.56453 0.65646 0.0
H2302 H 0.33352 0.57223 0.58555 0.0
H2303 H 0.28217 0.53414 0.59463 0.0
C2304 C 0.42307 0.59334 0.58796 0.0
C2305 C 0.44441 0.61269 0.60436 0.0
C2306 C 0.39265 0.5815 0.59234 0.0
C2307 C 0.38292 0.58868 0.61328 0.0
C2308 C 0.40434 0.60971 0.62886 0.0
C2309 C 0.43484 0.62169 0.6244 0.0
C2310 C 0.31384 0.53709 0.64827 0.0
C2311 C 0.29162 0.52708 0.63074 0.0
C2312 C 0.34322 0.55887 0.64304 0.0
C2313 C 0.35098 0.57108 0.62016 0.0
C2314 C 0.32827 0.56287 0.60322 0.0
C2315 C 0.29884 0.54114 0.60848 0.0
H2316 H 0.79093 0.27667 0.58852 0.0
H2317 H 0.73 0.27107 0.64318 0.0
H2318 H 0.80308 0.32736 0.57981 0.0
H2319 H 0.741 0.32171 0.63364 0.0
H2320 H 0.81015 0.4238 0.63877 0.0
H2321 H 0.7809 0.36951 0.64104 0.0
H2322 H 0.79367 0.36393 0.56595 0.0
H2323 H 0.82452 0.41837 0.5643 0.0
C2324 C 0.77936 0.28594 0.5982 0.0
C2325 C 0.75991 0.26998 0.61685 0.0
C2326 C 0.78619 0.31516 0.59308 0.0
C2327 C 0.77339 0.3291 0.60621 0.0
C2328 C 0.75194 0.31211 0.62354 0.0
C2329 C 0.74543 0.28295 0.62891 0.0
C2330 C 0.80587 0.41091 0.62266 0.0
C2331 C 0.81966 0.42512 0.60141 0.0
C2332 C 0.78901 0.37968 0.62388 0.0
C2333 C 0.78528 0.36201 0.60375 0.0
C2334 C 0.79675 0.37662 0.58198 0.0
C2335 C 0.81411 0.40782 0.5809 0.0
H2336 H 0.48842 0.77981 0.57705 0.0
H2337 H 0.50466 0.80745 0.65028 0.0
H2338 H 0.45106 0.79542 0.57461 0.0
H2339 H 0.46728 0.82306 0.64775 0.0
H2340 H 0.3874 0.83611 0.63927 0.0
H2341 H 0.41289 0.80683 0.64099 0.0
H2342 H 0.45796 0.84705 0.57538 0.0
H2343 H 0.43258 0.87616 0.57375 0.0
C2344 C 0.48366 0.78871 0.59276 0.0
C2345 C 0.49981 0.79273 0.6138 0.0
C2346 C 0.46232 0.79774 0.59131 0.0
C2347 C 0.45642 0.8107 0.61092 0.0
C2348 C 0.47118 0.81296 0.63238 0.0
C2349 C 0.49273 0.80417 0.63379 0.0
C2350 C 0.40218 0.83802 0.62495 0.0
C2351 C 0.40812 0.85839 0.6064 0.0
C2352 C 0.41693 0.8215 0.62602 0.0
C2353 C 0.43752 0.82474 0.60838 0.0
C2354 C 0.44204 0.84383 0.58913 0.0
C2355 C 0.42763 0.8606 0.58823 0.0
H2356 H 0.56103 0.37414 0.57075 0.0
H2357 H 0.56336 0.37824 0.64688 0.0
H2358 H 0.6143 0.39052 0.56997 0.0
H2359 H 0.6168 0.39646 0.64637 0.0
H2360 H 0.71462 0.43738 0.64259 0.0
H2361 H 0.66235 0.39784 0.63947 0.0
H2362 H 0.65355 0.43888 0.5755 0.0
H2363 H 0.7054 0.47703 0.57809 0.0
C2364 C 0.57288 0.37766 0.58732 0.0
C2365 C 0.5584 0.37513 0.60885 0.0
C2366 C 0.60344 0.38743 0.58694 0.0
C2367 C 0.62021 0.39583 0.60806 0.0
C2368 C 0.60485 0.39022 0.62973 0.0
C2369 C 0.57415 0.37981 0.63009 0.0
C2370 C 0.70161 0.43742 0.62757 0.0
C2371 C 0.71403 0.46069 0.61084 0.0
C2372 C 0.67159 0.41484 0.62583 0.0
C2373 C 0.6534 0.4152 0.6074 0.0
C2374 C 0.66665 0.43736 0.58981 0.0
C2375 C 0.69653 0.45965 0.59145 0.0
loop_
_geom_bond_atom_site_label_1
_geom_bond_atom_site_label_2
_geom_bond_distance
_geom_bond_site_symmetry_2
_ccdc_geom_bond_type
O0 Tb1 2.292 . S
O0 C3 1.255 . S
Tb1 O0 2.292 . S
Tb1 O17 2.326 . S
Tb1 O19 2.500 . S
Tb1 O20 2.473 . S
Tb1 O23 2.324 . S
Eu2 O6 2.292 . S
Eu2 C7 2.852 . S
Eu2 O18 2.324 . S
Eu2 O22 2.326 . S
Eu2 O24 2.500 . S
Eu2 O25 2.473 . S
C3 O0 1.255 . S
C3 O4 1.247 . S
O4 C3 1.247 . S
C5 O17 1.242 . S
C5 O18 1.258 . S
O6 Eu2 2.292 . S
O6 C8 1.255 . S
C7 Eu2 2.852 . S
C7 C11 1.503 . S
C7 O24 1.273 . S
C7 O25 1.257 . S
C8 O6 1.255 . S
C8 O9 1.247 . S
O9 C8 1.247 . S
C10 O22 1.242 . S
C10 O23 1.258 . S
C11 C7 1.503 . S
C11 C12 1.379 . S
C11 C16 1.392 . S
C12 C11 1.379 . S
C12 C13 1.404 . S
C12 H26 0.929 . S
C13 C12 1.404 . S
C13 C14 1.389 . S
C14 C13 1.389 . S
C14 C15 1.399 . S
C14 H27 0.931 . S
C15 C14 1.399 . S
C15 C16 1.390 . S
C16 C11 1.392 . S
C16 C15 1.390 . S
C16 H28 0.929 . S
O17 Tb1 2.326 . S
O17 C5 1.242 . S
O18 Eu2 2.324 . S
O18 C5 1.258 . S
O19 Tb1 2.500 . S
O19 C21 1.273 . S
O20 Tb1 2.473 . S
O20 C21 1.257 . S
C21 O19 1.273 . S
C21 O20 1.257 . S
O22 Eu2 2.326 . S
O22 C10 1.242 . S
O23 Tb1 2.324 . S
O23 C10 1.258 . S
O24 Eu2 2.500 . S
O24 C7 1.273 . S
O25 Eu2 2.473 . S
O25 C7 1.257 . S
H26 C12 0.929 . S
H27 C14 0.931 . S
H28 C16 0.929 . S
O29 Tb30 2.292 . S
O29 C32 1.255 . S
Tb30 O29 2.292 . S
Tb30 O46 2.326 . S
Tb30 O48 2.500 . S
Tb30 O49 2.473 . S
Tb30 O52 2.324 . S
Eu31 O35 2.292 . S
Eu31 C36 2.852 . S
Eu31 O47 2.324 . S
Eu31 O51 2.326 . S
Eu31 O53 2.500 . S
Eu31 O54 2.473 . S
C32 O29 1.255 . S
C32 O33 1.247 . S
O33 C32 1.247 . S
C34 O46 1.242 . S
C34 O47 1.258 . S
O35 Eu31 2.292 . S
O35 C37 1.255 . S
C36 Eu31 2.852 . S
C36 C40 1.503 . S
C36 O53 1.273 . S
C36 O54 1.257 . S
C37 O35 1.255 . S
C37 O38 1.247 . S
O38 C37 1.247 . S
C39 O51 1.242 . S
C39 O52 1.258 . S
C40 C36 1.503 . S
C40 C41 1.379 . S
C40 C45 1.392 . S
C41 C40 1.379 . S
C41 C42 1.404 . S
C41 H55 0.929 . S
C42 C41 1.404 . S
C42 C43 1.389 . S
C43 C42 1.389 . S
C43 C44 1.399 . S
C43 H56 0.931 . S
C44 C43 1.399 . S
C44 C45 1.390 . S
C45 C40 1.392 . S
C45 C44 1.390 . S
C45 H57 0.929 . S
O46 Tb30 2.326 . S
O46 C34 1.242 . S
O47 Eu31 2.324 . S
O47 C34 1.258 . S
O48 Tb30 2.500 . S
O48 C50 1.273 . S
O49 Tb30 2.473 . S
O49 C50 1.257 . S
C50 O48 1.273 . S
C50 O49 1.257 . S
O51 Eu31 2.326 . S
O51 C39 1.242 . S
O52 Tb30 2.324 . S
O52 C39 1.258 . S
O53 Eu31 2.500 . S
O53 C36 1.273 . S
O54 Eu31 2.473 . S
O54 C36 1.257 . S
H55 C41 0.929 . S
H56 C43 0.931 . S
H57 C45 0.929 . S
O58 Tb59 2.292 . S
O58 C61 1.255 . S
Tb59 O58 2.292 . S
Tb59 O75 2.326 . S
Tb59 O77 2.500 . S
Tb59 O78 2.473 . S
Tb59 O81 2.324 . S
Eu60 O64 2.292 . S
Eu60 C65 2.852 . S
Eu60 O76 2.324 . S
Eu60 O80 2.326 . S
Eu60 O82 2.500 . S
Eu60 O83 2.473 . S
C61 O58 1.255 . S
C61 O62 1.247 . S
O62 C61 1.247 . S
C63 O75 1.242 . S
C63 O76 1.258 . S
O64 Eu60 2.292 . S
O64 C66 1.255 . S
C65 Eu60 2.852 . S
C65 C69 1.503 . S
C65 O82 1.273 . S
C65 O83 1.257 . S
C66 O64 1.255 . S
C66 O67 1.247 . S
O67 C66 1.247 . S
C68 O80 1.242 . S
C68 O81 1.258 . S
C69 C65 1.503 . S
C69 C70 1.379 . S
C69 C74 1.392 . S
C70 C69 1.379 . S
C70 C71 1.404 . S
C70 H84 0.929 . S
C71 C70 1.404 . S
C71 C72 1.389 . S
C72 C71 1.389 . S
C72 C73 1.399 . S
C72 H85 0.931 . S
C73 C72 1.399 . S
C73 C74 1.390 . S
C74 C69 1.392 . S
C74 C73 1.390 . S
C74 H86 0.929 . S
O75 Tb59 2.326 . S
O75 C63 1.242 . S
O76 Eu60 2.324 . S
O76 C63 1.258 . S
O77 Tb59 2.500 . S
O77 C79 1.273 . S
O78 Tb59 2.473 . S
O78 C79 1.257 . S
C79 O77 1.273 . S
C79 O78 1.257 . S
O80 Eu60 2.326 . S
O80 C68 1.242 . S
O81 Tb59 2.324 . S
O81 C68 1.258 . S
O82 Eu60 2.500 . S
O82 C65 1.273 . S
O83 Eu60 2.473 . S
O83 C65 1.257 . S
H84 C70 0.929 . S
H85 C72 0.931 . S
H86 C74 0.929 . S
O87 Tb88 2.292 . S
O87 C90 1.255 . S
Tb88 O87 2.292 . S
Tb88 O104 2.326 . S
Tb88 O106 2.500 . S
Tb88 O107 2.473 . S
Tb88 O110 2.324 . S
Eu89 O93 2.292 . S
Eu89 C94 2.852 . S
Eu89 O105 2.324 . S
Eu89 O109 2.326 . S
Eu89 O111 2.500 . S
Eu89 O112 2.473 . S
C90 O87 1.255 . S
C90 O91 1.247 . S
O91 C90 1.247 . S
C92 O104 1.242 . S
C92 O105 1.258 . S
O93 Eu89 2.292 . S
O93 C95 1.255 . S
C94 Eu89 2.852 . S
C94 C98 1.503 . S
C94 O111 1.273 . S
C94 O112 1.257 . S
C95 O93 1.255 . S
C95 O96 1.247 . S
O96 C95 1.247 . S
C97 O109 1.242 . S
C97 O110 1.258 . S
C98 C94 1.503 . S
C98 C99 1.379 . S
C98 C103 1.392 . S
C99 C98 1.379 . S
C99 C100 1.404 . S
C99 H113 0.929 . S
C100 C99 1.404 . S
C100 C101 1.389 . S
C101 C100 1.389 . S
C101 C102 1.399 . S
C101 H114 0.931 . S
C102 C101 1.399 . S
C102 C103 1.390 . S
C103 C98 1.392 . S
C103 C102 1.390 . S
C103 H115 0.929 . S
O104 Tb88 2.326 . S
O104 C92 1.242 . S
O105 Eu89 2.324 . S
O105 C92 1.258 . S
O106 Tb88 2.500 . S
O106 C108 1.273 . S
O107 Tb88 2.473 . S
O107 C108 1.257 . S
C108 O106 1.273 . S
C108 O107 1.257 . S
O109 Eu89 2.326 . S
O109 C97 1.242 . S
O110 Tb88 2.324 . S
O110 C97 1.258 . S
O111 Eu89 2.500 . S
O111 C94 1.273 . S
O112 Eu89 2.473 . S
O112 C94 1.257 . S
H113 C99 0.929 . S
H114 C101 0.931 . S
H115 C103 0.929 . S
O116 Tb117 2.292 . S
O116 C119 1.255 . S
Tb117 O116 2.292 . S
Tb117 O133 2.326 . S
Tb117 O135 2.500 . S
Tb117 O136 2.473 . S
Tb117 O139 2.324 . S
Eu118 O122 2.292 . S
Eu118 C123 2.852 . S
Eu118 O134 2.324 . S
Eu118 O138 2.326 . S
Eu118 O140 2.500 . S
Eu118 O141 2.473 . S
C119 O116 1.255 . S
C119 O120 1.247 . S
O120 C119 1.247 . S
C121 O133 1.242 . S
C121 O134 1.258 . S
O122 Eu118 2.292 . S
O122 C124 1.255 . S
C123 Eu118 2.852 . S
C123 C127 1.503 . S
C123 O140 1.273 . S
C123 O141 1.257 . S
C124 O122 1.255 . S
C124 O125 1.247 . S
O125 C124 1.247 . S
C126 O138 1.242 . S
C126 O139 1.258 . S
C127 C123 1.503 . S
C127 C128 1.379 . S
C127 C132 1.392 . S
C128 C127 1.379 . S
C128 C129 1.404 . S
C128 H142 0.929 . S
C129 C128 1.404 . S
C129 C130 1.389 . S
C130 C129 1.389 . S
C130 C131 1.399 . S
C130 H143 0.931 . S
C131 C130 1.399 . S
C131 C132 1.390 . S
C132 C127 1.392 . S
C132 C131 1.390 . S
C132 H144 0.929 . S
O133 Tb117 2.326 . S
O133 C121 1.242 . S
O134 Eu118 2.324 . S
O134 C121 1.258 . S
O135 Tb117 2.500 . S
O135 C137 1.273 . S
O136 Tb117 2.473 . S
O136 C137 1.257 . S
C137 O135 1.273 . S
C137 O136 1.257 . S
O138 Eu118 2.326 . S
O138 C126 1.242 . S
O139 Tb117 2.324 . S
O139 C126 1.258 . S
O140 Eu118 2.500 . S
O140 C123 1.273 . S
O141 Eu118 2.473 . S
O141 C123 1.257 . S
H142 C128 0.929 . S
H143 C130 0.931 . S
H144 C132 0.929 . S
O145 Tb146 2.292 . S
O145 C148 1.255 . S
Tb146 O145 2.292 . S
Tb146 O162 2.326 . S
Tb146 O164 2.500 . S
Tb146 O165 2.473 . S
Tb146 O168 2.324 . S
Eu147 O151 2.292 . S
Eu147 C152 2.852 . S
Eu147 O163 2.324 . S
Eu147 O167 2.326 . S
Eu147 O169 2.500 . S
Eu147 O170 2.473 . S
C148 O145 1.255 . S
C148 O149 1.247 . S
O149 C148 1.247 . S
C150 O162 1.242 . S
C150 O163 1.258 . S
O151 Eu147 2.292 . S
O151 C153 1.255 . S
C152 Eu147 2.852 . S
C152 C156 1.503 . S
C152 O169 1.273 . S
C152 O170 1.257 . S
C153 O151 1.255 . S
C153 O154 1.247 . S
O154 C153 1.247 . S
C155 O167 1.242 . S
C155 O168 1.258 . S
C156 C152 1.503 . S
C156 C157 1.379 . S
C156 C161 1.392 . S
C157 C156 1.379 . S
C157 C158 1.404 . S
C157 H171 0.929 . S
C158 C157 1.404 . S
C158 C159 1.389 . S
C159 C158 1.389 . S
C159 C160 1.399 . S
C159 H172 0.931 . S
C160 C159 1.399 . S
C160 C161 1.390 . S
C161 C156 1.392 . S
C161 C160 1.390 . S
C161 H173 0.929 . S
O162 Tb146 2.326 . S
O162 C150 1.242 . S
O163 Eu147 2.324 . S
O163 C150 1.258 . S
O164 Tb146 2.500 . S
O164 C166 1.273 . S
O165 Tb146 2.473 . S
O165 C166 1.257 . S
C166 O164 1.273 . S
C166 O165 1.257 . S
O167 Eu147 2.326 . S
O167 C155 1.242 . S
O168 Tb146 2.324 . S
O168 C155 1.258 . S
O169 Eu147 2.500 . S
O169 C152 1.273 . S
O170 Eu147 2.473 . S
O170 C152 1.257 . S
H171 C157 0.929 . S
H172 C159 0.931 . S
H173 C161 0.929 . S
O174 Tb175 2.292 . S
O174 C177 1.255 . S
Tb175 O174 2.292 . S
Tb175 O191 2.326 . S
Tb175 O193 2.500 . S
Tb175 O194 2.473 . S
Tb175 O197 2.324 . S
Eu176 O180 2.292 . S
Eu176 C181 2.852 . S
Eu176 O192 2.324 . S
Eu176 O196 2.326 . S
Eu176 O198 2.500 . S
Eu176 O199 2.473 . S
C177 O174 1.255 . S
C177 O178 1.247 . S
O178 C177 1.247 . S
C179 O191 1.242 . S
C179 O192 1.258 . S
O180 Eu176 2.292 . S
O180 C182 1.255 . S
C181 Eu176 2.852 . S
C181 C185 1.503 . S
C181 O198 1.273 . S
C181 O199 1.257 . S
C182 O180 1.255 . S
C182 O183 1.247 . S
O183 C182 1.247 . S
C184 O196 1.242 . S
C184 O197 1.258 . S
C185 C181 1.503 . S
C185 C186 1.379 . S
C185 C190 1.392 . S
C186 C185 1.379 . S
C186 C187 1.404 . S
C186 H200 0.929 . S
C187 C186 1.404 . S
C187 C188 1.389 . S
C188 C187 1.389 . S
C188 C189 1.399 . S
C188 H201 0.931 . S
C189 C188 1.399 . S
C189 C190 1.390 . S
C190 C185 1.392 . S
C190 C189 1.390 . S
C190 H202 0.929 . S
O191 Tb175 2.326 . S
O191 C179 1.242 . S
O192 Eu176 2.324 . S
O192 C179 1.258 . S
O193 Tb175 2.500 . S
O193 C195 1.273 . S
O194 Tb175 2.473 . S
O194 C195 1.257 . S
C195 O193 1.273 . S
C195 O194 1.257 . S
O196 Eu176 2.326 . S
O196 C184 1.242 . S
O197 Tb175 2.324 . S
O197 C184 1.258 . S
O198 Eu176 2.500 . S
O198 C181 1.273 . S
O199 Eu176 2.473 . S
O199 C181 1.257 . S
H200 C186 0.929 . S
H201 C188 0.931 . S
H202 C190 0.929 . S
O203 Tb204 2.292 . S
O203 C206 1.255 . S
Tb204 O203 2.292 . S
Tb204 O220 2.326 . S
Tb204 O222 2.500 . S
Tb204 O223 2.473 . S
Tb204 O226 2.324 . S
Eu205 O209 2.292 . S
Eu205 C210 2.852 . S
Eu205 O221 2.324 . S
Eu205 O225 2.326 . S
Eu205 O227 2.500 . S
Eu205 O228 2.473 . S
C206 O203 1.255 . S
C206 O207 1.247 . S
O207 C206 1.247 . S
C208 O220 1.242 . S
C208 O221 1.258 . S
O209 Eu205 2.292 . S
O209 C211 1.255 . S
C210 Eu205 2.852 . S
C210 C214 1.503 . S
C210 O227 1.273 . S
C210 O228 1.257 . S
C211 O209 1.255 . S
C211 O212 1.247 . S
O212 C211 1.247 . S
C213 O225 1.242 . S
C213 O226 1.258 . S
C214 C210 1.503 . S
C214 C215 1.379 . S
C214 C219 1.392 . S
C215 C214 1.379 . S
C215 C216 1.404 . S
C215 H229 0.929 . S
C216 C215 1.404 . S
C216 C217 1.389 . S
C217 C216 1.389 . S
C217 C218 1.399 . S
C217 H230 0.931 . S
C218 C217 1.399 . S
C218 C219 1.390 . S
C219 C214 1.392 . S
C219 C218 1.390 . S
C219 H231 0.929 . S
O220 Tb204 2.326 . S
O220 C208 1.242 . S
O221 Eu205 2.324 . S
O221 C208 1.258 . S
O222 Tb204 2.500 . S
O222 C224 1.273 . S
O223 Tb204 2.473 . S
O223 C224 1.257 . S
C224 O222 1.273 . S
C224 O223 1.257 . S
O225 Eu205 2.326 . S
O225 C213 1.242 . S
O226 Tb204 2.324 . S
O226 C213 1.258 . S
O227 Eu205 2.500 . S
O227 C210 1.273 . S
O228 Eu205 2.473 . S
O228 C210 1.257 . S
H229 C215 0.929 . S
H230 C217 0.931 . S
H231 C219 0.929 . S
O232 Tb233 2.292 . S
O232 C235 1.255 . S
Tb233 O232 2.292 . S
Tb233 O249 2.326 . S
Tb233 O251 2.500 . S
Tb233 O252 2.473 . S
Tb233 O255 2.324 . S
Eu234 O238 2.292 . S
Eu234 C239 2.852 . S
Eu234 O250 2.324 . S
Eu234 O254 2.326 . S
Eu234 O256 2.500 . S
Eu234 O257 2.473 . S
C235 O232 1.255 . S
C235 O236 1.247 . S
O236 C235 1.247 . S
C237 O249 1.242 . S
C237 O250 1.258 . S
O238 Eu234 2.292 . S
O238 C240 1.255 . S
C239 Eu234 2.852 . S
C239 C243 1.503 . S
C239 O256 1.273 . S
C239 O257 1.257 . S
C240 O238 1.255 . S
C240 O241 1.247 . S
O241 C240 1.247 . S
C242 O254 1.242 . S
C242 O255 1.258 . S
C243 C239 1.503 . S
C243 C244 1.379 . S
C243 C248 1.392 . S
C244 C243 1.379 . S
C244 C245 1.404 . S
C244 H258 0.929 . S
C245 C244 1.404 . S
C245 C246 1.389 . S
C246 C245 1.389 . S
C246 C247 1.399 . S
C246 H259 0.931 . S
C247 C246 1.399 . S
C247 C248 1.390 . S
C248 C243 1.392 . S
C248 C247 1.390 . S
C248 H260 0.929 . S
O249 Tb233 2.326 . S
O249 C237 1.242 . S
O250 Eu234 2.324 . S
O250 C237 1.258 . S
O251 Tb233 2.500 . S
O251 C253 1.273 . S
O252 Tb233 2.473 . S
O252 C253 1.257 . S
C253 O251 1.273 . S
C253 O252 1.257 . S
O254 Eu234 2.326 . S
O254 C242 1.242 . S
O255 Tb233 2.324 . S
O255 C242 1.258 . S
O256 Eu234 2.500 . S
O256 C239 1.273 . S
O257 Eu234 2.473 . S
O257 C239 1.257 . S
H258 C244 0.929 . S
H259 C246 0.931 . S
H260 C248 0.929 . S
O261 Tb262 2.292 . S
O261 C264 1.255 . S
Tb262 O261 2.292 . S
Tb262 O278 2.326 . S
Tb262 O280 2.500 . S
Tb262 O281 2.473 . S
Tb262 O284 2.324 . S
Eu263 O267 2.292 . S
Eu263 C268 2.852 . S
Eu263 O279 2.324 . S
Eu263 O283 2.326 . S
Eu263 O285 2.500 . S
Eu263 O286 2.473 . S
C264 O261 1.255 . S
C264 O265 1.247 . S
O265 C264 1.247 . S
C266 O278 1.242 . S
C266 O279 1.258 . S
O267 Eu263 2.292 . S
O267 C269 1.255 . S
C268 Eu263 2.852 . S
C268 C272 1.503 . S
C268 O285 1.273 . S
C268 O286 1.257 . S
C269 O267 1.255 . S
C269 O270 1.247 . S
O270 C269 1.247 . S
C271 O283 1.242 . S
C271 O284 1.258 . S
C272 C268 1.503 . S
C272 C273 1.379 . S
C272 C277 1.392 . S
C273 C272 1.379 . S
C273 C274 1.404 . S
C273 H287 0.929 . S
C274 C273 1.404 . S
C274 C275 1.389 . S
C275 C274 1.389 . S
C275 C276 1.399 . S
C275 H288 0.931 . S
C276 C275 1.399 . S
C276 C277 1.390 . S
C277 C272 1.392 . S
C277 C276 1.390 . S
C277 H289 0.929 . S
O278 Tb262 2.326 . S
O278 C266 1.242 . S
O279 Eu263 2.324 . S
O279 C266 1.258 . S
O280 Tb262 2.500 . S
O280 C282 1.273 . S
O281 Tb262 2.473 . S
O281 C282 1.257 . S
C282 O280 1.273 . S
C282 O281 1.257 . S
O283 Eu263 2.326 . S
O283 C271 1.242 . S
O284 Tb262 2.324 . S
O284 C271 1.258 . S
O285 Eu263 2.500 . S
O285 C268 1.273 . S
O286 Eu263 2.473 . S
O286 C268 1.257 . S
H287 C273 0.929 . S
H288 C275 0.931 . S
H289 C277 0.929 . S
O290 Tb291 2.292 . S
O290 C293 1.255 . S
Tb291 O290 2.292 . S
Tb291 O307 2.326 . S
Tb291 O309 2.500 . S
Tb291 O310 2.473 . S
Tb291 O313 2.324 . S
Eu292 O296 2.292 . S
Eu292 C297 2.852 . S
Eu292 O308 2.324 . S
Eu292 O312 2.326 . S
Eu292 O314 2.500 . S
Eu292 O315 2.473 . S
C293 O290 1.255 . S
C293 O294 1.247 . S
O294 C293 1.247 . S
C295 O307 1.242 . S
C295 O308 1.258 . S
O296 Eu292 2.292 . S
O296 C298 1.255 . S
C297 Eu292 2.852 . S
C297 C301 1.503 . S
C297 O314 1.273 . S
C297 O315 1.257 . S
C298 O296 1.255 . S
C298 O299 1.247 . S
O299 C298 1.247 . S
C300 O312 1.242 . S
C300 O313 1.258 . S
C301 C297 1.503 . S
C301 C302 1.379 . S
C301 C306 1.392 . S
C302 C301 1.379 . S
C302 C303 1.404 . S
C302 H316 0.929 . S
C303 C302 1.404 . S
C303 C304 1.389 . S
C304 C303 1.389 . S
C304 C305 1.399 . S
C304 H317 0.931 . S
C305 C304 1.399 . S
C305 C306 1.390 . S
C306 C301 1.392 . S
C306 C305 1.390 . S
C306 H318 0.929 . S
O307 Tb291 2.326 . S
O307 C295 1.242 . S
O308 Eu292 2.324 . S
O308 C295 1.258 . S
O309 Tb291 2.500 . S
O309 C311 1.273 . S
O310 Tb291 2.473 . S
O310 C311 1.257 . S
C311 O309 1.273 . S
C311 O310 1.257 . S
O312 Eu292 2.326 . S
O312 C300 1.242 . S
O313 Tb291 2.324 . S
O313 C300 1.258 . S
O314 Eu292 2.500 . S
O314 C297 1.273 . S
O315 Eu292 2.473 . S
O315 C297 1.257 . S
H316 C302 0.929 . S
H317 C304 0.931 . S
H318 C306 0.929 . S
O319 Tb320 2.292 . S
O319 C322 1.255 . S
Tb320 O319 2.292 . S
Tb320 O336 2.326 . S
Tb320 O338 2.500 . S
Tb320 O339 2.473 . S
Tb320 O342 2.324 . S
Eu321 O325 2.292 . S
Eu321 C326 2.852 . S
Eu321 O337 2.324 . S
Eu321 O341 2.326 . S
Eu321 O343 2.500 . S
Eu321 O344 2.473 . S
C322 O319 1.255 . S
C322 O323 1.247 . S
O323 C322 1.247 . S
C324 O336 1.242 . S
C324 O337 1.258 . S
O325 Eu321 2.292 . S
O325 C327 1.255 . S
C326 Eu321 2.852 . S
C326 C330 1.503 . S
C326 O343 1.273 . S
C326 O344 1.257 . S
C327 O325 1.255 . S
C327 O328 1.247 . S
O328 C327 1.247 . S
C329 O341 1.242 . S
C329 O342 1.258 . S
C330 C326 1.503 . S
C330 C331 1.379 . S
C330 C335 1.392 . S
C331 C330 1.379 . S
C331 C332 1.404 . S
C331 H345 0.929 . S
C332 C331 1.404 . S
C332 C333 1.389 . S
C333 C332 1.389 . S
C333 C334 1.399 . S
C333 H346 0.931 . S
C334 C333 1.399 . S
C334 C335 1.390 . S
C335 C330 1.392 . S
C335 C334 1.390 . S
C335 H347 0.929 . S
O336 Tb320 2.326 . S
O336 C324 1.242 . S
O337 Eu321 2.324 . S
O337 C324 1.258 . S
O338 Tb320 2.500 . S
O338 C340 1.273 . S
O339 Tb320 2.473 . S
O339 C340 1.257 . S
C340 O338 1.273 . S
C340 O339 1.257 . S
O341 Eu321 2.326 . S
O341 C329 1.242 . S
O342 Tb320 2.324 . S
O342 C329 1.258 . S
O343 Eu321 2.500 . S
O343 C326 1.273 . S
O344 Eu321 2.473 . S
O344 C326 1.257 . S
H345 C331 0.929 . S
H346 C333 0.931 . S
H347 C335 0.929 . S
O348 Tb349 2.292 . S
O348 C351 1.255 . S
Tb349 O348 2.292 . S
Tb349 O365 2.326 . S
Tb349 O367 2.500 . S
Tb349 O368 2.473 . S
Tb349 O371 2.324 . S
Eu350 O354 2.292 . S
Eu350 C355 2.852 . S
Eu350 O366 2.324 . S
Eu350 O370 2.326 . S
Eu350 O372 2.500 . S
Eu350 O373 2.473 . S
C351 O348 1.255 . S
C351 O352 1.247 . S
O352 C351 1.247 . S
C353 O365 1.242 . S
C353 O366 1.258 . S
O354 Eu350 2.292 . S
O354 C356 1.255 . S
C355 Eu350 2.852 . S
C355 C359 1.503 . S
C355 O372 1.273 . S
C355 O373 1.257 . S
C356 O354 1.255 . S
C356 O357 1.247 . S
O357 C356 1.247 . S
C358 O370 1.242 . S
C358 O371 1.258 . S
C359 C355 1.503 . S
C359 C360 1.379 . S
C359 C364 1.392 . S
C360 C359 1.379 . S
C360 C361 1.404 . S
C360 H374 0.929 . S
C361 C360 1.404 . S
C361 C362 1.389 . S
C362 C361 1.389 . S
C362 C363 1.399 . S
C362 H375 0.931 . S
C363 C362 1.399 . S
C363 C364 1.390 . S
C364 C359 1.392 . S
C364 C363 1.390 . S
C364 H376 0.929 . S
O365 Tb349 2.326 . S
O365 C353 1.242 . S
O366 Eu350 2.324 . S
O366 C353 1.258 . S
O367 Tb349 2.500 . S
O367 C369 1.273 . S
O368 Tb349 2.473 . S
O368 C369 1.257 . S
C369 O367 1.273 . S
C369 O368 1.257 . S
O370 Eu350 2.326 . S
O370 C358 1.242 . S
O371 Tb349 2.324 . S
O371 C358 1.258 . S
O372 Eu350 2.500 . S
O372 C355 1.273 . S
O373 Eu350 2.473 . S
O373 C355 1.257 . S
H374 C360 0.929 . S
H375 C362 0.931 . S
H376 C364 0.929 . S
O377 Tb378 2.292 . S
O377 C380 1.255 . S
Tb378 O377 2.292 . S
Tb378 O394 2.326 . S
Tb378 O396 2.500 . S
Tb378 O397 2.473 . S
Tb378 O400 2.324 . S
Eu379 O383 2.292 . S
Eu379 C384 2.852 . S
Eu379 O395 2.324 . S
Eu379 O399 2.326 . S
Eu379 O401 2.500 . S
Eu379 O402 2.473 . S
C380 O377 1.255 . S
C380 O381 1.247 . S
O381 C380 1.247 . S
C382 O394 1.242 . S
C382 O395 1.258 . S
O383 Eu379 2.292 . S
O383 C385 1.255 . S
C384 Eu379 2.852 . S
C384 C388 1.503 . S
C384 O401 1.273 . S
C384 O402 1.257 . S
C385 O383 1.255 . S
C385 O386 1.247 . S
O386 C385 1.247 . S
C387 O399 1.242 . S
C387 O400 1.258 . S
C388 C384 1.503 . S
C388 C389 1.379 . S
C388 C393 1.392 . S
C389 C388 1.379 . S
C389 C390 1.404 . S
C389 H403 0.929 . S
C390 C389 1.404 . S
C390 C391 1.389 . S
C391 C390 1.389 . S
C391 C392 1.399 . S
C391 H404 0.931 . S
C392 C391 1.399 . S
C392 C393 1.390 . S
C393 C388 1.392 . S
C393 C392 1.390 . S
C393 H405 0.929 . S
O394 Tb378 2.326 . S
O394 C382 1.242 . S
O395 Eu379 2.324 . S
O395 C382 1.258 . S
O396 Tb378 2.500 . S
O396 C398 1.273 . S
O397 Tb378 2.473 . S
O397 C398 1.257 . S
C398 O396 1.273 . S
C398 O397 1.257 . S
O399 Eu379 2.326 . S
O399 C387 1.242 . S
O400 Tb378 2.324 . S
O400 C387 1.258 . S
O401 Eu379 2.500 . S
O401 C384 1.273 . S
O402 Eu379 2.473 . S
O402 C384 1.257 . S
H403 C389 0.929 . S
H404 C391 0.931 . S
H405 C393 0.929 . S
O406 Tb407 2.292 . S
O406 C409 1.255 . S
Tb407 O406 2.292 . S
Tb407 O423 2.326 . S
Tb407 O425 2.500 . S
Tb407 O426 2.473 . S
Tb407 O429 2.324 . S
Eu408 O412 2.292 . S
Eu408 C413 2.852 . S
Eu408 O424 2.324 . S
Eu408 O428 2.326 . S
Eu408 O430 2.500 . S
Eu408 O431 2.473 . S
C409 O406 1.255 . S
C409 O410 1.247 . S
O410 C409 1.247 . S
C411 O423 1.242 . S
C411 O424 1.258 . S
O412 Eu408 2.292 . S
O412 C414 1.255 . S
C413 Eu408 2.852 . S
C413 C417 1.503 . S
C413 O430 1.273 . S
C413 O431 1.257 . S
C414 O412 1.255 . S
C414 O415 1.247 . S
O415 C414 1.247 . S
C416 O428 1.242 . S
C416 O429 1.258 . S
C417 C413 1.503 . S
C417 C418 1.379 . S
C417 C422 1.392 . S
C418 C417 1.379 . S
C418 C419 1.404 . S
C418 H432 0.929 . S
C419 C418 1.404 . S
C419 C420 1.389 . S
C420 C419 1.389 . S
C420 C421 1.399 . S
C420 H433 0.931 . S
C421 C420 1.399 . S
C421 C422 1.390 . S
C422 C417 1.392 . S
C422 C421 1.390 . S
C422 H434 0.929 . S
O423 Tb407 2.326 . S
O423 C411 1.242 . S
O424 Eu408 2.324 . S
O424 C411 1.258 . S
O425 Tb407 2.500 . S
O425 C427 1.273 . S
O426 Tb407 2.473 . S
O426 C427 1.257 . S
C427 O425 1.273 . S
C427 O426 1.257 . S
O428 Eu408 2.326 . S
O428 C416 1.242 . S
O429 Tb407 2.324 . S
O429 C416 1.258 . S
O430 Eu408 2.500 . S
O430 C413 1.273 . S
O431 Eu408 2.473 . S
O431 C413 1.257 . S
H432 C418 0.929 . S
H433 C420 0.931 . S
H434 C422 0.929 . S
O435 Tb436 2.292 . S
O435 C438 1.255 . S
Tb436 O435 2.292 . S
Tb436 O452 2.326 . S
Tb436 O454 2.500 . S
Tb436 O455 2.473 . S
Tb436 O458 2.324 . S
Eu437 O441 2.292 . S
Eu437 C442 2.852 . S
Eu437 O453 2.324 . S
Eu437 O457 2.326 . S
Eu437 O459 2.500 . S
Eu437 O460 2.473 . S
C438 O435 1.255 . S
C438 O439 1.247 . S
O439 C438 1.247 . S
C440 O452 1.242 . S
C440 O453 1.258 . S
O441 Eu437 2.292 . S
O441 C443 1.255 . S
C442 Eu437 2.852 . S
C442 C446 1.503 . S
C442 O459 1.273 . S
C442 O460 1.257 . S
C443 O441 1.255 . S
C443 O444 1.247 . S
O444 C443 1.247 . S
C445 O457 1.242 . S
C445 O458 1.258 . S
C446 C442 1.503 . S
C446 C447 1.379 . S
C446 C451 1.392 . S
C447 C446 1.379 . S
C447 C448 1.404 . S
C447 H461 0.929 . S
C448 C447 1.404 . S
C448 C449 1.389 . S
C449 C448 1.389 . S
C449 C450 1.399 . S
C449 H462 0.931 . S
C450 C449 1.399 . S
C450 C451 1.390 . S
C451 C446 1.392 . S
C451 C450 1.390 . S
C451 H463 0.929 . S
O452 Tb436 2.326 . S
O452 C440 1.242 . S
O453 Eu437 2.324 . S
O453 C440 1.258 . S
O454 Tb436 2.500 . S
O454 C456 1.273 . S
O455 Tb436 2.473 . S
O455 C456 1.257 . S
C456 O454 1.273 . S
C456 O455 1.257 . S
O457 Eu437 2.326 . S
O457 C445 1.242 . S
O458 Tb436 2.324 . S
O458 C445 1.258 . S
O459 Eu437 2.500 . S
O459 C442 1.273 . S
O460 Eu437 2.473 . S
O460 C442 1.257 . S
H461 C447 0.929 . S
H462 C449 0.931 . S
H463 C451 0.929 . S
O464 Tb465 2.292 . S
O464 C467 1.255 . S
Tb465 O464 2.292 . S
Tb465 O481 2.326 . S
Tb465 O483 2.500 . S
Tb465 O484 2.473 . S
Tb465 O487 2.324 . S
Eu466 O470 2.292 . S
Eu466 C471 2.852 . S
Eu466 O482 2.324 . S
Eu466 O486 2.326 . S
Eu466 O488 2.500 . S
Eu466 O489 2.473 . S
C467 O464 1.255 . S
C467 O468 1.247 . S
O468 C467 1.247 . S
C469 O481 1.242 . S
C469 O482 1.258 . S
O470 Eu466 2.292 . S
O470 C472 1.255 . S
C471 Eu466 2.852 . S
C471 C475 1.503 . S
C471 O488 1.273 . S
C471 O489 1.257 . S
C472 O470 1.255 . S
C472 O473 1.247 . S
O473 C472 1.247 . S
C474 O486 1.242 . S
C474 O487 1.258 . S
C475 C471 1.503 . S
C475 C476 1.379 . S
C475 C480 1.392 . S
C476 C475 1.379 . S
C476 C477 1.404 . S
C476 H490 0.929 . S
C477 C476 1.404 . S
C477 C478 1.389 . S
C478 C477 1.389 . S
C478 C479 1.399 . S
C478 H491 0.931 . S
C479 C478 1.399 . S
C479 C480 1.390 . S
C480 C475 1.392 . S
C480 C479 1.390 . S
C480 H492 0.929 . S
O481 Tb465 2.326 . S
O481 C469 1.242 . S
O482 Eu466 2.324 . S
O482 C469 1.258 . S
O483 Tb465 2.500 . S
O483 C485 1.273 . S
O484 Tb465 2.473 . S
O484 C485 1.257 . S
C485 O483 1.273 . S
C485 O484 1.257 . S
O486 Eu466 2.326 . S
O486 C474 1.242 . S
O487 Tb465 2.324 . S
O487 C474 1.258 . S
O488 Eu466 2.500 . S
O488 C471 1.273 . S
O489 Eu466 2.473 . S
O489 C471 1.257 . S
H490 C476 0.929 . S
H491 C478 0.931 . S
H492 C480 0.929 . S
O493 Tb494 2.292 . S
O493 C496 1.255 . S
Tb494 O493 2.292 . S
Tb494 O510 2.326 . S
Tb494 O512 2.500 . S
Tb494 O513 2.473 . S
Tb494 O516 2.324 . S
Eu495 O499 2.292 . S
Eu495 C500 2.852 . S
Eu495 O511 2.324 . S
Eu495 O515 2.326 . S
Eu495 O517 2.500 . S
Eu495 O518 2.473 . S
C496 O493 1.255 . S
C496 O497 1.247 . S
O497 C496 1.247 . S
C498 O510 1.242 . S
C498 O511 1.258 . S
O499 Eu495 2.292 . S
O499 C501 1.255 . S
C500 Eu495 2.852 . S
C500 C504 1.503 . S
C500 O517 1.273 . S
C500 O518 1.257 . S
C501 O499 1.255 . S
C501 O502 1.247 . S
O502 C501 1.247 . S
C503 O515 1.242 . S
C503 O516 1.258 . S
C504 C500 1.503 . S
C504 C505 1.379 . S
C504 C509 1.392 . S
C505 C504 1.379 . S
C505 C506 1.404 . S
C505 H519 0.929 . S
C506 C505 1.404 . S
C506 C507 1.389 . S
C507 C506 1.389 . S
C507 C508 1.399 . S
C507 H520 0.931 . S
C508 C507 1.399 . S
C508 C509 1.390 . S
C509 C504 1.392 . S
C509 C508 1.390 . S
C509 H521 0.929 . S
O510 Tb494 2.326 . S
O510 C498 1.242 . S
O511 Eu495 2.324 . S
O511 C498 1.258 . S
O512 Tb494 2.500 . S
O512 C514 1.273 . S
O513 Tb494 2.473 . S
O513 C514 1.257 . S
C514 O512 1.273 . S
C514 O513 1.257 . S
O515 Eu495 2.326 . S
O515 C503 1.242 . S
O516 Tb494 2.324 . S
O516 C503 1.258 . S
O517 Eu495 2.500 . S
O517 C500 1.273 . S
O518 Eu495 2.473 . S
O518 C500 1.257 . S
H519 C505 0.929 . S
H520 C507 0.931 . S
H521 C509 0.929 . S
O522 Tb523 2.292 . S
O522 C525 1.255 . S
Tb523 O522 2.292 . S
Tb523 O539 2.326 . S
Tb523 O541 2.500 . S
Tb523 O542 2.473 . S
Tb523 O545 2.324 . S
Eu524 O528 2.292 . S
Eu524 C529 2.852 . S
Eu524 O540 2.324 . S
Eu524 O544 2.326 . S
Eu524 O546 2.500 . S
Eu524 O547 2.473 . S
C525 O522 1.255 . S
C525 O526 1.247 . S
O526 C525 1.247 . S
C527 O539 1.242 . S
C527 O540 1.258 . S
O528 Eu524 2.292 . S
O528 C530 1.255 . S
C529 Eu524 2.852 . S
C529 C533 1.503 . S
C529 O546 1.273 . S
C529 O547 1.257 . S
C530 O528 1.255 . S
C530 O531 1.247 . S
O531 C530 1.247 . S
C532 O544 1.242 . S
C532 O545 1.258 . S
C533 C529 1.503 . S
C533 C534 1.379 . S
C533 C538 1.392 . S
C534 C533 1.379 . S
C534 C535 1.404 . S
C534 H548 0.929 . S
C535 C534 1.404 . S
C535 C536 1.389 . S
C536 C535 1.389 . S
C536 C537 1.399 . S
C536 H549 0.931 . S
C537 C536 1.399 . S
C537 C538 1.390 . S
C538 C533 1.392 . S
C538 C537 1.390 . S
C538 H550 0.929 . S
O539 Tb523 2.326 . S
O539 C527 1.242 . S
O540 Eu524 2.324 . S
O540 C527 1.258 . S
O541 Tb523 2.500 . S
O541 C543 1.273 . S
O542 Tb523 2.473 . S
O542 C543 1.257 . S
C543 O541 1.273 . S
C543 O542 1.257 . S
O544 Eu524 2.326 . S
O544 C532 1.242 . S
O545 Tb523 2.324 . S
O545 C532 1.258 . S
O546 Eu524 2.500 . S
O546 C529 1.273 . S
O547 Eu524 2.473 . S
O547 C529 1.257 . S
H548 C534 0.929 . S
H549 C536 0.931 . S
H550 C538 0.929 . S
O551 Tb552 2.292 . S
O551 C554 1.255 . S
Tb552 O551 2.292 . S
Tb552 O568 2.326 . S
Tb552 O570 2.500 . S
Tb552 O571 2.473 . S
Tb552 O574 2.324 . S
Eu553 O557 2.292 . S
Eu553 C558 2.852 . S
Eu553 O569 2.324 . S
Eu553 O573 2.326 . S
Eu553 O575 2.500 . S
Eu553 O576 2.473 . S
C554 O551 1.255 . S
C554 O555 1.247 . S
O555 C554 1.247 . S
C556 O568 1.242 . S
C556 O569 1.258 . S
O557 Eu553 2.292 . S
O557 C559 1.255 . S
C558 Eu553 2.852 . S
C558 C562 1.503 . S
C558 O575 1.273 . S
C558 O576 1.257 . S
C559 O557 1.255 . S
C559 O560 1.247 . S
O560 C559 1.247 . S
C561 O573 1.242 . S
C561 O574 1.258 . S
C562 C558 1.503 . S
C562 C563 1.379 . S
C562 C567 1.392 . S
C563 C562 1.379 . S
C563 C564 1.404 . S
C563 H577 0.929 . S
C564 C563 1.404 . S
C564 C565 1.389 . S
C565 C564 1.389 . S
C565 C566 1.399 . S
C565 H578 0.931 . S
C566 C565 1.399 . S
C566 C567 1.390 . S
C567 C562 1.392 . S
C567 C566 1.390 . S
C567 H579 0.929 . S
O568 Tb552 2.326 . S
O568 C556 1.242 . S
O569 Eu553 2.324 . S
O569 C556 1.258 . S
O570 Tb552 2.500 . S
O570 C572 1.273 . S
O571 Tb552 2.473 . S
O571 C572 1.257 . S
C572 O570 1.273 . S
C572 O571 1.257 . S
O573 Eu553 2.326 . S
O573 C561 1.242 . S
O574 Tb552 2.324 . S
O574 C561 1.258 . S
O575 Eu553 2.500 . S
O575 C558 1.273 . S
O576 Eu553 2.473 . S
O576 C558 1.257 . S
H577 C563 0.929 . S
H578 C565 0.931 . S
H579 C567 0.929 . S
O580 Tb581 2.292 . S
O580 C583 1.255 . S
Tb581 O580 2.292 . S
Tb581 O597 2.326 . S
Tb581 O599 2.500 . S
Tb581 O600 2.473 . S
Tb581 O603 2.324 . S
Eu582 O586 2.292 . S
Eu582 C587 2.852 . S
Eu582 O598 2.324 . S
Eu582 O602 2.326 . S
Eu582 O604 2.500 . S
Eu582 O605 2.473 . S
C583 O580 1.255 . S
C583 O584 1.247 . S
O584 C583 1.247 . S
C585 O597 1.242 . S
C585 O598 1.258 . S
O586 Eu582 2.292 . S
O586 C588 1.255 . S
C587 Eu582 2.852 . S
C587 C591 1.503 . S
C587 O604 1.273 . S
C587 O605 1.257 . S
C588 O586 1.255 . S
C588 O589 1.247 . S
O589 C588 1.247 . S
C590 O602 1.242 . S
C590 O603 1.258 . S
C591 C587 1.503 . S
C591 C592 1.379 . S
C591 C596 1.392 . S
C592 C591 1.379 . S
C592 C593 1.404 . S
C592 H606 0.929 . S
C593 C592 1.404 . S
C593 C594 1.389 . S
C594 C593 1.389 . S
C594 C595 1.399 . S
C594 H607 0.931 . S
C595 C594 1.399 . S
C595 C596 1.390 . S
C596 C591 1.392 . S
C596 C595 1.390 . S
C596 H608 0.929 . S
O597 Tb581 2.326 . S
O597 C585 1.242 . S
O598 Eu582 2.324 . S
O598 C585 1.258 . S
O599 Tb581 2.500 . S
O599 C601 1.273 . S
O600 Tb581 2.473 . S
O600 C601 1.257 . S
C601 O599 1.273 . S
C601 O600 1.257 . S
O602 Eu582 2.326 . S
O602 C590 1.242 . S
O603 Tb581 2.324 . S
O603 C590 1.258 . S
O604 Eu582 2.500 . S
O604 C587 1.273 . S
O605 Eu582 2.473 . S
O605 C587 1.257 . S
H606 C592 0.929 . S
H607 C594 0.931 . S
H608 C596 0.929 . S
O609 Tb610 2.292 . S
O609 C612 1.255 . S
Tb610 O609 2.292 . S
Tb610 O626 2.326 . S
Tb610 O628 2.500 . S
Tb610 O629 2.473 . S
Tb610 O632 2.324 . S
Eu611 O615 2.292 . S
Eu611 C616 2.852 . S
Eu611 O627 2.324 . S
Eu611 O631 2.326 . S
Eu611 O633 2.500 . S
Eu611 O634 2.473 . S
C612 O609 1.255 . S
C612 O613 1.247 . S
O613 C612 1.247 . S
C614 O626 1.242 . S
C614 O627 1.258 . S
O615 Eu611 2.292 . S
O615 C617 1.255 . S
C616 Eu611 2.852 . S
C616 C620 1.503 . S
C616 O633 1.273 . S
C616 O634 1.257 . S
C617 O615 1.255 . S
C617 O618 1.247 . S
O618 C617 1.247 . S
C619 O631 1.242 . S
C619 O632 1.258 . S
C620 C616 1.503 . S
C620 C621 1.379 . S
C620 C625 1.392 . S
C621 C620 1.379 . S
C621 C622 1.404 . S
C621 H635 0.929 . S
C622 C621 1.404 . S
C622 C623 1.389 . S
C623 C622 1.389 . S
C623 C624 1.399 . S
C623 H636 0.931 . S
C624 C623 1.399 . S
C624 C625 1.390 . S
C625 C620 1.392 . S
C625 C624 1.390 . S
C625 H637 0.929 . S
O626 Tb610 2.326 . S
O626 C614 1.242 . S
O627 Eu611 2.324 . S
O627 C614 1.258 . S
O628 Tb610 2.500 . S
O628 C630 1.273 . S
O629 Tb610 2.473 . S
O629 C630 1.257 . S
C630 O628 1.273 . S
C630 O629 1.257 . S
O631 Eu611 2.326 . S
O631 C619 1.242 . S
O632 Tb610 2.324 . S
O632 C619 1.258 . S
O633 Eu611 2.500 . S
O633 C616 1.273 . S
O634 Eu611 2.473 . S
O634 C616 1.257 . S
H635 C621 0.929 . S
H636 C623 0.931 . S
H637 C625 0.929 . S
O638 Tb639 2.292 . S
O638 C641 1.255 . S
Tb639 O638 2.292 . S
Tb639 O655 2.326 . S
Tb639 O657 2.500 . S
Tb639 O658 2.473 . S
Tb639 O661 2.324 . S
Eu640 O644 2.292 . S
Eu640 C645 2.852 . S
Eu640 O656 2.324 . S
Eu640 O660 2.326 . S
Eu640 O662 2.500 . S
Eu640 O663 2.473 . S
C641 O638 1.255 . S
C641 O642 1.247 . S
O642 C641 1.247 . S
C643 O655 1.242 . S
C643 O656 1.258 . S
O644 Eu640 2.292 . S
O644 C646 1.255 . S
C645 Eu640 2.852 . S
C645 C649 1.503 . S
C645 O662 1.273 . S
C645 O663 1.257 . S
C646 O644 1.255 . S
C646 O647 1.247 . S
O647 C646 1.247 . S
C648 O660 1.242 . S
C648 O661 1.258 . S
C649 C645 1.503 . S
C649 C650 1.379 . S
C649 C654 1.392 . S
C650 C649 1.379 . S
C650 C651 1.404 . S
C650 H664 0.929 . S
C651 C650 1.404 . S
C651 C652 1.389 . S
C652 C651 1.389 . S
C652 C653 1.399 . S
C652 H665 0.931 . S
C653 C652 1.399 . S
C653 C654 1.390 . S
C654 C649 1.392 . S
C654 C653 1.390 . S
C654 H666 0.929 . S
O655 Tb639 2.326 . S
O655 C643 1.242 . S
O656 Eu640 2.324 . S
O656 C643 1.258 . S
O657 Tb639 2.500 . S
O657 C659 1.273 . S
O658 Tb639 2.473 . S
O658 C659 1.257 . S
C659 O657 1.273 . S
C659 O658 1.257 . S
O660 Eu640 2.326 . S
O660 C648 1.242 . S
O661 Tb639 2.324 . S
O661 C648 1.258 . S
O662 Eu640 2.500 . S
O662 C645 1.273 . S
O663 Eu640 2.473 . S
O663 C645 1.257 . S
H664 C650 0.929 . S
H665 C652 0.931 . S
H666 C654 0.929 . S
O667 Tb668 2.292 . S
O667 C670 1.255 . S
Tb668 O667 2.292 . S
Tb668 O684 2.326 . S
Tb668 O686 2.500 . S
Tb668 O687 2.473 . S
Tb668 O690 2.324 . S
Eu669 O673 2.292 . S
Eu669 C674 2.852 . S
Eu669 O685 2.324 . S
Eu669 O689 2.326 . S
Eu669 O691 2.500 . S
Eu669 O692 2.473 . S
C670 O667 1.255 . S
C670 O671 1.247 . S
O671 C670 1.247 . S
C672 O684 1.242 . S
C672 O685 1.258 . S
O673 Eu669 2.292 . S
O673 C675 1.255 . S
C674 Eu669 2.852 . S
C674 C678 1.503 . S
C674 O691 1.273 . S
C674 O692 1.257 . S
C675 O673 1.255 . S
C675 O676 1.247 . S
O676 C675 1.247 . S
C677 O689 1.242 . S
C677 O690 1.258 . S
C678 C674 1.503 . S
C678 C679 1.379 . S
C678 C683 1.392 . S
C679 C678 1.379 . S
C679 C680 1.404 . S
C679 H693 0.929 . S
C680 C679 1.404 . S
C680 C681 1.389 . S
C681 C680 1.389 . S
C681 C682 1.399 . S
C681 H694 0.931 . S
C682 C681 1.399 . S
C682 C683 1.390 . S
C683 C678 1.392 . S
C683 C682 1.390 . S
C683 H695 0.929 . S
O684 Tb668 2.326 . S
O684 C672 1.242 . S
O685 Eu669 2.324 . S
O685 C672 1.258 . S
O686 Tb668 2.500 . S
O686 C688 1.273 . S
O687 Tb668 2.473 . S
O687 C688 1.257 . S
C688 O686 1.273 . S
C688 O687 1.257 . S
O689 Eu669 2.326 . S
O689 C677 1.242 . S
O690 Tb668 2.324 . S
O690 C677 1.258 . S
O691 Eu669 2.500 . S
O691 C674 1.273 . S
O692 Eu669 2.473 . S
O692 C674 1.257 . S
H693 C679 0.929 . S
H694 C681 0.931 . S
H695 C683 0.929 . S
H696 C704 0.950 . S
H697 C709 0.950 . S
H698 C706 0.950 . S
H699 C708 0.950 . S
H700 C710 0.950 . S
H701 C712 0.950 . S
H702 C714 0.950 . S
H703 C715 0.950 . S
C704 H696 0.950 . S
C704 C705 1.386 . S
C704 C706 1.391 1_545 S
C705 C704 1.386 . S
C705 C709 1.393 . S
C706 H698 0.950 . S
C706 C704 1.391 1_565 S
C706 C707 1.400 . S
C707 C706 1.400 . S
C707 C708 1.398 . S
C707 C713 1.491 . S
C708 H699 0.950 . S
C708 C707 1.398 . S
C708 C709 1.391 1_565 S
C709 H697 0.950 . S
C709 C705 1.393 . S
C709 C708 1.391 1_545 S
C710 H700 0.950 . S
C710 C711 1.386 . S
C710 C712 1.391 . S
C711 C710 1.386 . S
C711 C715 1.393 . S
C712 H701 0.950 . S
C712 C710 1.391 . S
C712 C713 1.400 . S
C713 C707 1.491 . S
C713 C712 1.400 . S
C713 C714 1.398 . S
C714 H702 0.950 . S
C714 C713 1.398 . S
C714 C715 1.391 . S
C715 H703 0.950 . S
C715 C711 1.393 . S
C715 C714 1.391 . S
H716 C724 0.950 . S
H717 C729 0.950 . S
H718 C726 0.950 . S
H719 C728 0.950 . S
H720 C730 0.950 . S
H721 C732 0.950 . S
H722 C734 0.950 . S
H723 C735 0.950 . S
C724 H716 0.950 . S
C724 C725 1.386 . S
C724 C726 1.391 . S
C725 C724 1.386 . S
C725 C729 1.393 . S
C726 H718 0.950 . S
C726 C724 1.391 . S
C726 C727 1.400 . S
C727 C726 1.400 . S
C727 C728 1.398 . S
C727 C733 1.491 . S
C728 H719 0.950 . S
C728 C727 1.398 . S
C728 C729 1.391 . S
C729 H717 0.950 . S
C729 C725 1.393 . S
C729 C728 1.391 . S
C730 H720 0.950 . S
C730 C731 1.386 . S
C730 C732 1.391 . S
C731 C730 1.386 . S
C731 C735 1.393 . S
C732 H721 0.950 . S
C732 C730 1.391 . S
C732 C733 1.400 . S
C733 C727 1.491 . S
C733 C732 1.400 . S
C733 C734 1.398 . S
C734 H722 0.950 . S
C734 C733 1.398 . S
C734 C735 1.391 . S
C735 H723 0.950 . S
C735 C731 1.393 . S
C735 C734 1.391 . S
H736 C744 0.950 . S
H737 C749 0.950 . S
H738 C746 0.950 . S
H739 C748 0.950 . S
H740 C750 0.950 . S
H741 C752 0.950 . S
H742 C754 0.950 . S
H743 C755 0.950 . S
C744 H736 0.950 . S
C744 C745 1.386 . S
C744 C746 1.391 1_655 S
C745 C744 1.386 . S
C745 C749 1.393 . S
C746 H738 0.950 . S
C746 C744 1.391 1_455 S
C746 C747 1.400 . S
C747 C746 1.400 . S
C747 C748 1.398 . S
C747 C753 1.491 . S
C748 H739 0.950 . S
C748 C747 1.398 . S
C748 C749 1.391 1_455 S
C749 H737 0.950 . S
C749 C745 1.393 . S
C749 C748 1.391 1_655 S
C750 H740 0.950 . S
C750 C751 1.386 . S
C750 C752 1.391 . S
C751 C750 1.386 . S
C751 C755 1.393 . S
C752 H741 0.950 . S
C752 C750 1.391 . S
C752 C753 1.400 . S
C753 C747 1.491 . S
C753 C752 1.400 . S
C753 C754 1.398 . S
C754 H742 0.950 . S
C754 C753 1.398 . S
C754 C755 1.391 . S
C755 H743 0.950 . S
C755 C751 1.393 . S
C755 C754 1.391 . S
H756 C764 0.950 . S
H757 C769 0.950 . S
H758 C766 0.950 . S
H759 C768 0.950 . S
H760 C770 0.950 . S
H761 C772 0.950 . S
H762 C774 0.950 . S
H763 C775 0.950 . S
C764 H756 0.950 . S
C764 C765 1.386 . S
C764 C766 1.391 . S
C765 C764 1.386 . S
C765 C769 1.393 . S
C766 H758 0.950 . S
C766 C764 1.391 . S
C766 C767 1.400 . S
C767 C766 1.400 . S
C767 C768 1.398 . S
C767 C773 1.491 . S
C768 H759 0.950 . S
C768 C767 1.398 . S
C768 C769 1.391 . S
C769 H757 0.950 . S
C769 C765 1.393 . S
C769 C768 1.391 . S
C770 H760 0.950 . S
C770 C771 1.386 . S
C770 C772 1.391 1_565 S
C771 C770 1.386 . S
C771 C775 1.393 . S
C772 H761 0.950 . S
C772 C770 1.391 1_545 S
C772 C773 1.400 . S
C773 C767 1.491 . S
C773 C772 1.400 . S
C773 C774 1.398 . S
C774 H762 0.950 . S
C774 C773 1.398 . S
C774 C775 1.391 1_545 S
C775 H763 0.950 . S
C775 C771 1.393 . S
C775 C774 1.391 1_565 S
H776 C784 0.950 . S
H777 C789 0.950 . S
H778 C786 0.950 . S
H779 C788 0.950 . S
H780 C790 0.950 . S
H781 C792 0.950 . S
H782 C794 0.950 . S
H783 C795 0.950 . S
C784 H776 0.950 . S
C784 C785 1.386 . S
C784 C786 1.391 . S
C785 C784 1.386 . S
C785 C789 1.393 . S
C786 H778 0.950 . S
C786 C784 1.391 . S
C786 C787 1.400 . S
C787 C786 1.400 . S
C787 C788 1.398 . S
C787 C793 1.491 . S
C788 H779 0.950 . S
C788 C787 1.398 . S
C788 C789 1.391 . S
C789 H777 0.950 . S
C789 C785 1.393 . S
C789 C788 1.391 . S
C790 H780 0.950 . S
C790 C791 1.386 . S
C790 C792 1.391 . S
C791 C790 1.386 . S
C791 C795 1.393 . S
C792 H781 0.950 . S
C792 C790 1.391 . S
C792 C793 1.400 . S
C793 C787 1.491 . S
C793 C792 1.400 . S
C793 C794 1.398 . S
C794 H782 0.950 . S
C794 C793 1.398 . S
C794 C795 1.391 . S
C795 H783 0.950 . S
C795 C791 1.393 . S
C795 C794 1.391 . S
H796 C804 0.950 . S
H797 C809 0.950 . S
H798 C806 0.950 . S
H799 C808 0.950 . S
H800 C810 0.950 . S
H801 C812 0.950 . S
H802 C814 0.950 . S
H803 C815 0.950 . S
C804 H796 0.950 . S
C804 C805 1.386 . S
C804 C806 1.391 1_455 S
C805 C804 1.386 . S
C805 C809 1.393 . S
C806 H798 0.950 . S
C806 C804 1.391 1_655 S
C806 C807 1.400 . S
C807 C806 1.400 . S
C807 C808 1.398 . S
C807 C813 1.491 . S
C808 H799 0.950 . S
C808 C807 1.398 . S
C808 C809 1.391 1_655 S
C809 H797 0.950 . S
C809 C805 1.393 . S
C809 C808 1.391 1_455 S
C810 H800 0.950 . S
C810 C811 1.386 . S
C810 C812 1.391 . S
C811 C810 1.386 . S
C811 C815 1.393 . S
C812 H801 0.950 . S
C812 C810 1.391 . S
C812 C813 1.400 . S
C813 C807 1.491 . S
C813 C812 1.400 . S
C813 C814 1.398 . S
C814 H802 0.950 . S
C814 C813 1.398 . S
C814 C815 1.391 . S
C815 H803 0.950 . S
C815 C811 1.393 . S
C815 C814 1.391 . S
H816 C824 0.950 . S
H817 C829 0.950 . S
H818 C826 0.950 . S
H819 C828 0.950 . S
H820 C830 0.950 . S
H821 C832 0.950 . S
H822 C834 0.950 . S
H823 C835 0.950 . S
C824 H816 0.950 . S
C824 C825 1.386 . S
C824 C826 1.391 . S
C825 C824 1.386 . S
C825 C829 1.393 . S
C826 H818 0.950 . S
C826 C824 1.391 . S
C826 C827 1.400 . S
C827 C826 1.400 . S
C827 C828 1.398 . S
C827 C833 1.491 . S
C828 H819 0.950 . S
C828 C827 1.398 . S
C828 C829 1.391 . S
C829 H817 0.950 . S
C829 C825 1.393 . S
C829 C828 1.391 . S
C830 H820 0.950 . S
C830 C831 1.386 . S
C830 C832 1.391 1_655 S
C831 C830 1.386 . S
C831 C835 1.393 . S
C832 H821 0.950 . S
C832 C830 1.391 1_455 S
C832 C833 1.400 . S
C833 C827 1.491 . S
C833 C832 1.400 . S
C833 C834 1.398 . S
C834 H822 0.950 . S
C834 C833 1.398 . S
C834 C835 1.391 1_455 S
C835 H823 0.950 . S
C835 C831 1.393 . S
C835 C834 1.391 1_655 S
H836 C844 0.950 . S
H837 C849 0.950 . S
H838 C846 0.950 . S
H839 C848 0.950 . S
H840 C850 0.950 . S
H841 C852 0.950 . S
H842 C854 0.950 . S
H843 C855 0.950 . S
C844 H836 0.950 . S
C844 C845 1.386 . S
C844 C846 1.391 . S
C845 C844 1.386 . S
C845 C849 1.393 . S
C846 H838 0.950 . S
C846 C844 1.391 . S
C846 C847 1.400 . S
C847 C846 1.400 . S
C847 C848 1.398 . S
C847 C853 1.491 . S
C848 H839 0.950 . S
C848 C847 1.398 . S
C848 C849 1.391 . S
C849 H837 0.950 . S
C849 C845 1.393 . S
C849 C848 1.391 . S
C850 H840 0.950 . S
C850 C851 1.386 . S
C850 C852 1.391 1_565 S
C851 C850 1.386 . S
C851 C855 1.393 . S
C852 H841 0.950 . S
C852 C850 1.391 1_545 S
C852 C853 1.400 . S
C853 C847 1.491 . S
C853 C852 1.400 . S
C853 C854 1.398 . S
C854 H842 0.950 . S
C854 C853 1.398 . S
C854 C855 1.391 1_545 S
C855 H843 0.950 . S
C855 C851 1.393 . S
C855 C854 1.391 1_565 S
H856 C864 0.950 . S
H857 C869 0.950 . S
H858 C866 0.950 . S
H859 C868 0.950 . S
H860 C870 0.950 . S
H861 C872 0.950 . S
H862 C874 0.950 . S
H863 C875 0.950 . S
C864 H856 0.950 . S
C864 C865 1.386 . S
C864 C866 1.391 . S
C865 C864 1.386 . S
C865 C869 1.393 . S
C866 H858 0.950 . S
C866 C864 1.391 . S
C866 C867 1.400 . S
C867 C866 1.400 . S
C867 C868 1.398 . S
C867 C873 1.491 . S
C868 H859 0.950 . S
C868 C867 1.398 . S
C868 C869 1.391 . S
C869 H857 0.950 . S
C869 C865 1.393 . S
C869 C868 1.391 . S
C870 H860 0.950 . S
C870 C871 1.386 . S
C870 C872 1.391 . S
C871 C870 1.386 . S
C871 C875 1.393 . S
C872 H861 0.950 . S
C872 C870 1.391 . S
C872 C873 1.400 . S
C873 C867 1.491 . S
C873 C872 1.400 . S
C873 C874 1.398 . S
C874 H862 0.950 . S
C874 C873 1.398 . S
C874 C875 1.391 . S
C875 H863 0.950 . S
C875 C871 1.393 . S
C875 C874 1.391 . S
H876 C884 0.950 . S
H877 C889 0.950 . S
H878 C886 0.950 . S
H879 C888 0.950 . S
H880 C890 0.950 . S
H881 C892 0.950 . S
H882 C894 0.950 . S
H883 C895 0.950 . S
C884 H876 0.950 . S
C884 C885 1.386 . S
C884 C886 1.391 1_455 S
C885 C884 1.386 . S
C885 C889 1.393 . S
C886 H878 0.950 . S
C886 C884 1.391 1_655 S
C886 C887 1.400 . S
C887 C886 1.400 . S
C887 C888 1.398 . S
C887 C893 1.491 . S
C888 H879 0.950 . S
C888 C887 1.398 . S
C888 C889 1.391 1_655 S
C889 H877 0.950 . S
C889 C885 1.393 . S
C889 C888 1.391 1_455 S
C890 H880 0.950 . S
C890 C891 1.386 . S
C890 C892 1.391 . S
C891 C890 1.386 . S
C891 C895 1.393 . S
C892 H881 0.950 . S
C892 C890 1.391 . S
C892 C893 1.400 . S
C893 C887 1.491 . S
C893 C892 1.400 . S
C893 C894 1.398 . S
C894 H882 0.950 . S
C894 C893 1.398 . S
C894 C895 1.391 . S
C895 H883 0.950 . S
C895 C891 1.393 . S
C895 C894 1.391 . S
H896 C904 0.950 . S
H897 C909 0.950 . S
H898 C906 0.950 . S
H899 C908 0.950 . S
H900 C910 0.950 . S
H901 C912 0.950 . S
H902 C914 0.950 . S
H903 C915 0.950 . S
C904 H896 0.950 . S
C904 C905 1.386 . S
C904 C906 1.391 . S
C905 C904 1.386 . S
C905 C909 1.393 . S
C906 H898 0.950 . S
C906 C904 1.391 . S
C906 C907 1.400 . S
C907 C906 1.400 . S
C907 C908 1.398 . S
C907 C913 1.491 . S
C908 H899 0.950 . S
C908 C907 1.398 . S
C908 C909 1.391 . S
C909 H897 0.950 . S
C909 C905 1.393 . S
C909 C908 1.391 . S
C910 H900 0.950 . S
C910 C911 1.386 . S
C910 C912 1.391 1_545 S
C911 C910 1.386 . S
C911 C915 1.393 . S
C912 H901 0.950 . S
C912 C910 1.391 1_565 S
C912 C913 1.400 . S
C913 C907 1.491 . S
C913 C912 1.400 . S
C913 C914 1.398 . S
C914 H902 0.950 . S
C914 C913 1.398 . S
C914 C915 1.391 1_565 S
C915 H903 0.950 . S
C915 C911 1.393 . S
C915 C914 1.391 1_545 S
H916 C924 0.950 . S
H917 C929 0.950 . S
H918 C926 0.950 . S
H919 C928 0.950 . S
H920 C930 0.950 . S
H921 C932 0.950 . S
H922 C934 0.950 . S
H923 C935 0.950 . S
C924 H916 0.950 . S
C924 C925 1.386 . S
C924 C926 1.391 . S
C925 C924 1.386 . S
C925 C929 1.393 . S
C926 H918 0.950 . S
C926 C924 1.391 . S
C926 C927 1.400 . S
C927 C926 1.400 . S
C927 C928 1.398 . S
C927 C933 1.491 . S
C928 H919 0.950 . S
C928 C927 1.398 . S
C928 C929 1.391 . S
C929 H917 0.950 . S
C929 C925 1.393 . S
C929 C928 1.391 . S
C930 H920 0.950 . S
C930 C931 1.386 . S
C930 C932 1.391 . S
C931 C930 1.386 . S
C931 C935 1.393 . S
C932 H921 0.950 . S
C932 C930 1.391 . S
C932 C933 1.400 . S
C933 C927 1.491 . S
C933 C932 1.400 . S
C933 C934 1.398 . S
C934 H922 0.950 . S
C934 C933 1.398 . S
C934 C935 1.391 . S
C935 H923 0.950 . S
C935 C931 1.393 . S
C935 C934 1.391 . S
H936 C944 0.950 . S
H937 C949 0.950 . S
H938 C946 0.950 . S
H939 C948 0.950 . S
H940 C950 0.950 . S
H941 C952 0.950 . S
H942 C954 0.950 . S
H943 C955 0.950 . S
C944 H936 0.950 . S
C944 C945 1.386 . S
C944 C946 1.391 . S
C945 C944 1.386 . S
C945 C949 1.393 . S
C946 H938 0.950 . S
C946 C944 1.391 . S
C946 C947 1.400 . S
C947 C946 1.400 . S
C947 C948 1.398 . S
C947 C953 1.491 . S
C948 H939 0.950 . S
C948 C947 1.398 . S
C948 C949 1.391 . S
C949 H937 0.950 . S
C949 C945 1.393 . S
C949 C948 1.391 . S
C950 H940 0.950 . S
C950 C951 1.386 . S
C950 C952 1.391 1_565 S
C951 C950 1.386 . S
C951 C955 1.393 . S
C952 H941 0.950 . S
C952 C950 1.391 1_545 S
C952 C953 1.400 . S
C953 C947 1.491 . S
C953 C952 1.400 . S
C953 C954 1.398 . S
C954 H942 0.950 . S
C954 C953 1.398 . S
C954 C955 1.391 1_545 S
C955 H943 0.950 . S
C955 C951 1.393 . S
C955 C954 1.391 1_565 S
H956 C964 0.950 . S
H957 C969 0.950 . S
H958 C966 0.950 . S
H959 C968 0.950 . S
H960 C970 0.950 . S
H961 C972 0.950 . S
H962 C974 0.950 . S
H963 C975 0.950 . S
C964 H956 0.950 . S
C964 C965 1.386 . S
C964 C966 1.391 . S
C965 C964 1.386 . S
C965 C969 1.393 . S
C966 H958 0.950 . S
C966 C964 1.391 . S
C966 C967 1.400 . S
C967 C966 1.400 . S
C967 C968 1.398 . S
C967 C973 1.491 . S
C968 H959 0.950 . S
C968 C967 1.398 . S
C968 C969 1.391 . S
C969 H957 0.950 . S
C969 C965 1.393 . S
C969 C968 1.391 . S
C970 H960 0.950 . S
C970 C971 1.386 . S
C970 C972 1.391 . S
C971 C970 1.386 . S
C971 C975 1.393 . S
C972 H961 0.950 . S
C972 C970 1.391 . S
C972 C973 1.400 . S
C973 C967 1.491 . S
C973 C972 1.400 . S
C973 C974 1.398 . S
C974 H962 0.950 . S
C974 C973 1.398 . S
C974 C975 1.391 . S
C975 H963 0.950 . S
C975 C971 1.393 . S
C975 C974 1.391 . S
H976 C984 0.950 . S
H977 C989 0.950 . S
H978 C986 0.950 . S
H979 C988 0.950 . S
H980 C990 0.950 . S
H981 C992 0.950 . S
H982 C994 0.950 . S
H983 C995 0.950 . S
C984 H976 0.950 . S
C984 C985 1.386 . S
C984 C986 1.391 1_455 S
C985 C984 1.386 . S
C985 C989 1.393 . S
C986 H978 0.950 . S
C986 C984 1.391 1_655 S
C986 C987 1.400 . S
C987 C986 1.400 . S
C987 C988 1.398 . S
C987 C993 1.491 . S
C988 H979 0.950 . S
C988 C987 1.398 . S
C988 C989 1.391 1_655 S
C989 H977 0.950 . S
C989 C985 1.393 . S
C989 C988 1.391 1_455 S
C990 H980 0.950 . S
C990 C991 1.386 . S
C990 C992 1.391 . S
C991 C990 1.386 . S
C991 C995 1.393 . S
C992 H981 0.950 . S
C992 C990 1.391 . S
C992 C993 1.400 . S
C993 C987 1.491 . S
C993 C992 1.400 . S
C993 C994 1.398 . S
C994 H982 0.950 . S
C994 C993 1.398 . S
C994 C995 1.391 . S
C995 H983 0.950 . S
C995 C991 1.393 . S
C995 C994 1.391 . S
H996 C1004 0.950 . S
H997 C1009 0.950 . S
H998 C1006 0.950 . S
H999 C1008 0.950 . S
H1000 C1010 0.950 . S
H1001 C1012 0.950 . S
H1002 C1014 0.950 . S
H1003 C1015 0.950 . S
C1004 H996 0.950 . S
C1004 C1005 1.386 . S
C1004 C1006 1.391 1_545 S
C1005 C1004 1.386 . S
C1005 C1009 1.393 . S
C1006 H998 0.950 . S
C1006 C1004 1.391 1_565 S
C1006 C1007 1.400 . S
C1007 C1006 1.400 . S
C1007 C1008 1.398 . S
C1007 C1013 1.491 . S
C1008 H999 0.950 . S
C1008 C1007 1.398 . S
C1008 C1009 1.391 1_565 S
C1009 H997 0.950 . S
C1009 C1005 1.393 . S
C1009 C1008 1.391 1_545 S
C1010 H1000 0.950 . S
C1010 C1011 1.386 . S
C1010 C1012 1.391 . S
C1011 C1010 1.386 . S
C1011 C1015 1.393 . S
C1012 H1001 0.950 . S
C1012 C1010 1.391 . S
C1012 C1013 1.400 . S
C1013 C1007 1.491 . S
C1013 C1012 1.400 . S
C1013 C1014 1.398 . S
C1014 H1002 0.950 . S
C1014 C1013 1.398 . S
C1014 C1015 1.391 . S
C1015 H1003 0.950 . S
C1015 C1011 1.393 . S
C1015 C1014 1.391 . S
H1016 C1024 0.950 . S
H1017 C1029 0.950 . S
H1018 C1026 0.950 . S
H1019 C1028 0.950 . S
H1020 C1030 0.950 . S
H1021 C1032 0.950 . S
H1022 C1034 0.950 . S
H1023 C1035 0.950 . S
C1024 H1016 0.950 . S
C1024 C1025 1.386 . S
C1024 C1026 1.391 . S
C1025 C1024 1.386 . S
C1025 C1029 1.393 . S
C1026 H1018 0.950 . S
C1026 C1024 1.391 . S
C1026 C1027 1.400 . S
C1027 C1026 1.400 . S
C1027 C1028 1.398 . S
C1027 C1033 1.491 . S
C1028 H1019 0.950 . S
C1028 C1027 1.398 . S
C1028 C1029 1.391 . S
C1029 H1017 0.950 . S
C1029 C1025 1.393 . S
C1029 C1028 1.391 . S
C1030 H1020 0.950 . S
C1030 C1031 1.386 . S
C1030 C1032 1.391 . S
C1031 C1030 1.386 . S
C1031 C1035 1.393 . S
C1032 H1021 0.950 . S
C1032 C1030 1.391 . S
C1032 C1033 1.400 . S
C1033 C1027 1.491 . S
C1033 C1032 1.400 . S
C1033 C1034 1.398 . S
C1034 H1022 0.950 . S
C1034 C1033 1.398 . S
C1034 C1035 1.391 . S
C1035 H1023 0.950 . S
C1035 C1031 1.393 . S
C1035 C1034 1.391 . S
H1036 C1044 0.950 . S
H1037 C1049 0.950 . S
H1038 C1046 0.950 . S
H1039 C1048 0.950 . S
H1040 C1050 0.950 . S
H1041 C1052 0.950 . S
H1042 C1054 0.950 . S
H1043 C1055 0.950 . S
C1044 H1036 0.950 . S
C1044 C1045 1.386 . S
C1044 C1046 1.391 1_655 S
C1045 C1044 1.386 . S
C1045 C1049 1.393 . S
C1046 H1038 0.950 . S
C1046 C1044 1.391 1_455 S
C1046 C1047 1.400 . S
C1047 C1046 1.400 . S
C1047 C1048 1.398 . S
C1047 C1053 1.491 . S
C1048 H1039 0.950 . S
C1048 C1047 1.398 . S
C1048 C1049 1.391 1_455 S
C1049 H1037 0.950 . S
C1049 C1045 1.393 . S
C1049 C1048 1.391 1_655 S
C1050 H1040 0.950 . S
C1050 C1051 1.386 . S
C1050 C1052 1.391 . S
C1051 C1050 1.386 . S
C1051 C1055 1.393 . S
C1052 H1041 0.950 . S
C1052 C1050 1.391 . S
C1052 C1053 1.400 . S
C1053 C1047 1.491 . S
C1053 C1052 1.400 . S
C1053 C1054 1.398 . S
C1054 H1042 0.950 . S
C1054 C1053 1.398 . S
C1054 C1055 1.391 . S
C1055 H1043 0.950 . S
C1055 C1051 1.393 . S
C1055 C1054 1.391 . S
H1056 C1064 0.950 . S
H1057 C1069 0.950 . S
H1058 C1066 0.950 . S
H1059 C1068 0.950 . S
H1060 C1070 0.950 . S
H1061 C1072 0.950 . S
H1062 C1074 0.950 . S
H1063 C1075 0.950 . S
C1064 H1056 0.950 . S
C1064 C1065 1.386 . S
C1064 C1066 1.391 . S
C1065 C1064 1.386 . S
C1065 C1069 1.393 . S
C1066 H1058 0.950 . S
C1066 C1064 1.391 . S
C1066 C1067 1.400 . S
C1067 C1066 1.400 . S
C1067 C1068 1.398 . S
C1067 C1073 1.491 . S
C1068 H1059 0.950 . S
C1068 C1067 1.398 . S
C1068 C1069 1.391 . S
C1069 H1057 0.950 . S
C1069 C1065 1.393 . S
C1069 C1068 1.391 . S
C1070 H1060 0.950 . S
C1070 C1071 1.386 . S
C1070 C1072 1.391 1_455 S
C1071 C1070 1.386 . S
C1071 C1075 1.393 . S
C1072 H1061 0.950 . S
C1072 C1070 1.391 1_655 S
C1072 C1073 1.400 . S
C1073 C1067 1.491 . S
C1073 C1072 1.400 . S
C1073 C1074 1.398 . S
C1074 H1062 0.950 . S
C1074 C1073 1.398 . S
C1074 C1075 1.391 1_655 S
C1075 H1063 0.950 . S
C1075 C1071 1.393 . S
C1075 C1074 1.391 1_455 S
H1076 C1084 0.950 . S
H1077 C1089 0.950 . S
H1078 C1086 0.950 . S
H1079 C1088 0.950 . S
H1080 C1090 0.950 . S
H1081 C1092 0.950 . S
H1082 C1094 0.950 . S
H1083 C1095 0.950 . S
C1084 H1076 0.950 . S
C1084 C1085 1.386 . S
C1084 C1086 1.391 . S
C1085 C1084 1.386 . S
C1085 C1089 1.393 . S
C1086 H1078 0.950 . S
C1086 C1084 1.391 . S
C1086 C1087 1.400 . S
C1087 C1086 1.400 . S
C1087 C1088 1.398 . S
C1087 C1093 1.491 . S
C1088 H1079 0.950 . S
C1088 C1087 1.398 . S
C1088 C1089 1.391 . S
C1089 H1077 0.950 . S
C1089 C1085 1.393 . S
C1089 C1088 1.391 . S
C1090 H1080 0.950 . S
C1090 C1091 1.386 . S
C1090 C1092 1.391 1_545 S
C1091 C1090 1.386 . S
C1091 C1095 1.393 . S
C1092 H1081 0.950 . S
C1092 C1090 1.391 1_565 S
C1092 C1093 1.400 . S
C1093 C1087 1.491 . S
C1093 C1092 1.400 . S
C1093 C1094 1.398 . S
C1094 H1082 0.950 . S
C1094 C1093 1.398 . S
C1094 C1095 1.391 1_565 S
C1095 H1083 0.950 . S
C1095 C1091 1.393 . S
C1095 C1094 1.391 1_545 S
H1096 C1104 0.950 . S
H1097 C1109 0.950 . S
H1098 C1106 0.950 . S
H1099 C1108 0.950 . S
H1100 C1110 0.950 . S
H1101 C1112 0.950 . S
H1102 C1114 0.950 . S
H1103 C1115 0.950 . S
C1104 H1096 0.950 . S
C1104 C1105 1.386 . S
C1104 C1106 1.391 . S
C1105 C1104 1.386 . S
C1105 C1109 1.393 . S
C1106 H1098 0.950 . S
C1106 C1104 1.391 . S
C1106 C1107 1.400 . S
C1107 C1106 1.400 . S
C1107 C1108 1.398 . S
C1107 C1113 1.491 . S
C1108 H1099 0.950 . S
C1108 C1107 1.398 . S
C1108 C1109 1.391 . S
C1109 H1097 0.950 . S
C1109 C1105 1.393 . S
C1109 C1108 1.391 . S
C1110 H1100 0.950 . S
C1110 C1111 1.386 . S
C1110 C1112 1.391 . S
C1111 C1110 1.386 . S
C1111 C1115 1.393 . S
C1112 H1101 0.950 . S
C1112 C1110 1.391 . S
C1112 C1113 1.400 . S
C1113 C1107 1.491 . S
C1113 C1112 1.400 . S
C1113 C1114 1.398 . S
C1114 H1102 0.950 . S
C1114 C1113 1.398 . S
C1114 C1115 1.391 . S
C1115 H1103 0.950 . S
C1115 C1111 1.393 . S
C1115 C1114 1.391 . S
H1116 C1124 0.950 . S
H1117 C1129 0.950 . S
H1118 C1126 0.950 . S
H1119 C1128 0.950 . S
H1120 C1130 0.950 . S
H1121 C1132 0.950 . S
H1122 C1134 0.950 . S
H1123 C1135 0.950 . S
C1124 H1116 0.950 . S
C1124 C1125 1.386 . S
C1124 C1126 1.391 1_655 S
C1125 C1124 1.386 . S
C1125 C1129 1.393 . S
C1126 H1118 0.950 . S
C1126 C1124 1.391 1_455 S
C1126 C1127 1.400 . S
C1127 C1126 1.400 . S
C1127 C1128 1.398 . S
C1127 C1133 1.491 . S
C1128 H1119 0.950 . S
C1128 C1127 1.398 . S
C1128 C1129 1.391 1_455 S
C1129 H1117 0.950 . S
C1129 C1125 1.393 . S
C1129 C1128 1.391 1_655 S
C1130 H1120 0.950 . S
C1130 C1131 1.386 . S
C1130 C1132 1.391 . S
C1131 C1130 1.386 . S
C1131 C1135 1.393 . S
C1132 H1121 0.950 . S
C1132 C1130 1.391 . S
C1132 C1133 1.400 . S
C1133 C1127 1.491 . S
C1133 C1132 1.400 . S
C1133 C1134 1.398 . S
C1134 H1122 0.950 . S
C1134 C1133 1.398 . S
C1134 C1135 1.391 . S
C1135 H1123 0.950 . S
C1135 C1131 1.393 . S
C1135 C1134 1.391 . S
H1136 C1144 0.950 . S
H1137 C1149 0.950 . S
H1138 C1146 0.950 . S
H1139 C1148 0.950 . S
H1140 C1150 0.950 . S
H1141 C1152 0.950 . S
H1142 C1154 0.950 . S
H1143 C1155 0.950 . S
C1144 H1136 0.950 . S
C1144 C1145 1.386 . S
C1144 C1146 1.391 1_565 S
C1145 C1144 1.386 . S
C1145 C1149 1.393 . S
C1146 H1138 0.950 . S
C1146 C1144 1.391 1_545 S
C1146 C1147 1.400 . S
C1147 C1146 1.400 . S
C1147 C1148 1.398 . S
C1147 C1153 1.491 . S
C1148 H1139 0.950 . S
C1148 C1147 1.398 . S
C1148 C1149 1.391 1_545 S
C1149 H1137 0.950 . S
C1149 C1145 1.393 . S
C1149 C1148 1.391 1_565 S
C1150 H1140 0.950 . S
C1150 C1151 1.386 . S
C1150 C1152 1.391 . S
C1151 C1150 1.386 . S
C1151 C1155 1.393 . S
C1152 H1141 0.950 . S
C1152 C1150 1.391 . S
C1152 C1153 1.400 . S
C1153 C1147 1.491 . S
C1153 C1152 1.400 . S
C1153 C1154 1.398 . S
C1154 H1142 0.950 . S
C1154 C1153 1.398 . S
C1154 C1155 1.391 . S
C1155 H1143 0.950 . S
C1155 C1151 1.393 . S
C1155 C1154 1.391 . S
H1156 C1164 0.950 . S
H1157 C1169 0.950 . S
H1158 C1166 0.950 . S
H1159 C1168 0.950 . S
H1160 C1170 0.950 . S
H1161 C1172 0.950 . S
H1162 C1174 0.950 . S
H1163 C1175 0.950 . S
C1164 H1156 0.950 . S
C1164 C1165 1.386 . S
C1164 C1166 1.391 . S
C1165 C1164 1.386 . S
C1165 C1169 1.393 . S
C1166 H1158 0.950 . S
C1166 C1164 1.391 . S
C1166 C1167 1.400 . S
C1167 C1166 1.400 . S
C1167 C1168 1.398 . S
C1167 C1173 1.491 . S
C1168 H1159 0.950 . S
C1168 C1167 1.398 . S
C1168 C1169 1.391 . S
C1169 H1157 0.950 . S
C1169 C1165 1.393 . S
C1169 C1168 1.391 . S
C1170 H1160 0.950 . S
C1170 C1171 1.386 . S
C1170 C1172 1.391 . S
C1171 C1170 1.386 . S
C1171 C1175 1.393 . S
C1172 H1161 0.950 . S
C1172 C1170 1.391 . S
C1172 C1173 1.400 . S
C1173 C1167 1.491 . S
C1173 C1172 1.400 . S
C1173 C1174 1.398 . S
C1174 H1162 0.950 . S
C1174 C1173 1.398 . S
C1174 C1175 1.391 . S
C1175 H1163 0.950 . S
C1175 C1171 1.393 . S
C1175 C1174 1.391 . S
H1176 C1184 0.950 . S
H1177 C1189 0.950 . S
H1178 C1186 0.950 . S
H1179 C1188 0.950 . S
H1180 C1190 0.950 . S
H1181 C1192 0.950 . S
H1182 C1194 0.950 . S
H1183 C1195 0.950 . S
C1184 H1176 0.950 . S
C1184 C1185 1.386 . S
C1184 C1186 1.391 . S
C1185 C1184 1.386 . S
C1185 C1189 1.393 . S
C1186 H1178 0.950 . S
C1186 C1184 1.391 . S
C1186 C1187 1.400 . S
C1187 C1186 1.400 . S
C1187 C1188 1.398 . S
C1187 C1193 1.491 1_554 S
C1188 H1179 0.950 . S
C1188 C1187 1.398 . S
C1188 C1189 1.391 . S
C1189 H1177 0.950 . S
C1189 C1185 1.393 . S
C1189 C1188 1.391 . S
C1190 H1180 0.950 . S
C1190 C1191 1.386 . S
C1190 C1192 1.391 . S
C1191 C1190 1.386 . S
C1191 C1195 1.393 . S
C1192 H1181 0.950 . S
C1192 C1190 1.391 . S
C1192 C1193 1.400 . S
C1193 C1187 1.491 1_556 S
C1193 C1192 1.400 . S
C1193 C1194 1.398 . S
C1194 H1182 0.950 . S
C1194 C1193 1.398 . S
C1194 C1195 1.391 . S
C1195 H1183 0.950 . S
C1195 C1191 1.393 . S
C1195 C1194 1.391 . S
H1196 C1204 0.950 . S
H1197 C1209 0.950 . S
H1198 C1206 0.950 . S
H1199 C1208 0.950 . S
H1200 C1210 0.950 . S
H1201 C1212 0.950 . S
H1202 C1214 0.950 . S
H1203 C1215 0.950 . S
C1204 H1196 0.950 . S
C1204 C1205 1.386 . S
C1204 C1206 1.391 . S
C1205 C1204 1.386 . S
C1205 C1209 1.393 . S
C1206 H1198 0.950 . S
C1206 C1204 1.391 . S
C1206 C1207 1.400 . S
C1207 C1206 1.400 . S
C1207 C1208 1.398 . S
C1207 C1213 1.491 1_554 S
C1208 H1199 0.950 . S
C1208 C1207 1.398 . S
C1208 C1209 1.391 . S
C1209 H1197 0.950 . S
C1209 C1205 1.393 . S
C1209 C1208 1.391 . S
C1210 H1200 0.950 . S
C1210 C1211 1.386 . S
C1210 C1212 1.391 . S
C1211 C1210 1.386 . S
C1211 C1215 1.393 . S
C1212 H1201 0.950 . S
C1212 C1210 1.391 . S
C1212 C1213 1.400 . S
C1213 C1207 1.491 1_556 S
C1213 C1212 1.400 . S
C1213 C1214 1.398 . S
C1214 H1202 0.950 . S
C1214 C1213 1.398 . S
C1214 C1215 1.391 . S
C1215 H1203 0.950 . S
C1215 C1211 1.393 . S
C1215 C1214 1.391 . S
H1216 C1224 0.950 . S
H1217 C1229 0.950 . S
H1218 C1226 0.950 . S
H1219 C1228 0.950 . S
H1220 C1230 0.950 . S
H1221 C1232 0.950 . S
H1222 C1234 0.950 . S
H1223 C1235 0.950 . S
C1224 H1216 0.950 . S
C1224 C1225 1.386 . S
C1224 C1226 1.391 . S
C1225 C1224 1.386 . S
C1225 C1229 1.393 . S
C1226 H1218 0.950 . S
C1226 C1224 1.391 . S
C1226 C1227 1.400 . S
C1227 C1226 1.400 . S
C1227 C1228 1.398 . S
C1227 C1233 1.491 1_554 S
C1228 H1219 0.950 . S
C1228 C1227 1.398 . S
C1228 C1229 1.391 . S
C1229 H1217 0.950 . S
C1229 C1225 1.393 . S
C1229 C1228 1.391 . S
C1230 H1220 0.950 . S
C1230 C1231 1.386 . S
C1230 C1232 1.391 . S
C1231 C1230 1.386 . S
C1231 C1235 1.393 . S
C1232 H1221 0.950 . S
C1232 C1230 1.391 . S
C1232 C1233 1.400 . S
C1233 C1227 1.491 1_556 S
C1233 C1232 1.400 . S
C1233 C1234 1.398 . S
C1234 H1222 0.950 . S
C1234 C1233 1.398 . S
C1234 C1235 1.391 . S
C1235 H1223 0.950 . S
C1235 C1231 1.393 . S
C1235 C1234 1.391 . S
H1236 C1244 0.950 . S
H1237 C1249 0.950 . S
H1238 C1246 0.950 . S
H1239 C1248 0.950 . S
H1240 C1250 0.950 . S
H1241 C1252 0.950 . S
H1242 C1254 0.950 . S
H1243 C1255 0.950 . S
C1244 H1236 0.950 . S
C1244 C1245 1.386 . S
C1244 C1246 1.391 . S
C1245 C1244 1.386 . S
C1245 C1249 1.393 . S
C1246 H1238 0.950 . S
C1246 C1244 1.391 . S
C1246 C1247 1.400 . S
C1247 C1246 1.400 . S
C1247 C1248 1.398 . S
C1247 C1253 1.491 1_556 S
C1248 H1239 0.950 . S
C1248 C1247 1.398 . S
C1248 C1249 1.391 . S
C1249 H1237 0.950 . S
C1249 C1245 1.393 . S
C1249 C1248 1.391 . S
C1250 H1240 0.950 . S
C1250 C1251 1.386 . S
C1250 C1252 1.391 . S
C1251 C1250 1.386 . S
C1251 C1255 1.393 . S
C1252 H1241 0.950 . S
C1252 C1250 1.391 . S
C1252 C1253 1.400 . S
C1253 C1247 1.491 1_554 S
C1253 C1252 1.400 . S
C1253 C1254 1.398 . S
C1254 H1242 0.950 . S
C1254 C1253 1.398 . S
C1254 C1255 1.391 . S
C1255 H1243 0.950 . S
C1255 C1251 1.393 . S
C1255 C1254 1.391 . S
H1256 C1264 0.950 . S
H1257 C1269 0.950 . S
H1258 C1266 0.950 . S
H1259 C1268 0.950 . S
H1260 C1270 0.950 . S
H1261 C1272 0.950 . S
H1262 C1274 0.950 . S
H1263 C1275 0.950 . S
C1264 H1256 0.950 . S
C1264 C1265 1.386 . S
C1264 C1266 1.391 . S
C1265 C1264 1.386 . S
C1265 C1269 1.393 . S
C1266 H1258 0.950 . S
C1266 C1264 1.391 . S
C1266 C1267 1.400 . S
C1267 C1266 1.400 . S
C1267 C1268 1.398 . S
C1267 C1273 1.491 1_554 S
C1268 H1259 0.950 . S
C1268 C1267 1.398 . S
C1268 C1269 1.391 . S
C1269 H1257 0.950 . S
C1269 C1265 1.393 . S
C1269 C1268 1.391 . S
C1270 H1260 0.950 . S
C1270 C1271 1.386 . S
C1270 C1272 1.391 . S
C1271 C1270 1.386 . S
C1271 C1275 1.393 . S
C1272 H1261 0.950 . S
C1272 C1270 1.391 . S
C1272 C1273 1.400 . S
C1273 C1267 1.491 1_556 S
C1273 C1272 1.400 . S
C1273 C1274 1.398 . S
C1274 H1262 0.950 . S
C1274 C1273 1.398 . S
C1274 C1275 1.391 . S
C1275 H1263 0.950 . S
C1275 C1271 1.393 . S
C1275 C1274 1.391 . S
H1276 C1284 0.950 . S
H1277 C1289 0.950 . S
H1278 C1286 0.950 . S
H1279 C1288 0.950 . S
H1280 C1290 0.950 . S
H1281 C1292 0.950 . S
H1282 C1294 0.950 . S
H1283 C1295 0.950 . S
C1284 H1276 0.950 . S
C1284 C1285 1.386 . S
C1284 C1286 1.391 . S
C1285 C1284 1.386 . S
C1285 C1289 1.393 . S
C1286 H1278 0.950 . S
C1286 C1284 1.391 . S
C1286 C1287 1.400 . S
C1287 C1286 1.400 . S
C1287 C1288 1.398 . S
C1287 C1293 1.491 1_554 S
C1288 H1279 0.950 . S
C1288 C1287 1.398 . S
C1288 C1289 1.391 . S
C1289 H1277 0.950 . S
C1289 C1285 1.393 . S
C1289 C1288 1.391 . S
C1290 H1280 0.950 . S
C1290 C1291 1.386 . S
C1290 C1292 1.391 . S
C1291 C1290 1.386 . S
C1291 C1295 1.393 . S
C1292 H1281 0.950 . S
C1292 C1290 1.391 . S
C1292 C1293 1.400 . S
C1293 C1287 1.491 1_556 S
C1293 C1292 1.400 . S
C1293 C1294 1.398 . S
C1294 H1282 0.950 . S
C1294 C1293 1.398 . S
C1294 C1295 1.391 . S
C1295 H1283 0.950 . S
C1295 C1291 1.393 . S
C1295 C1294 1.391 . S
H1296 C1304 0.950 . S
H1297 C1309 0.950 . S
H1298 C1306 0.950 . S
H1299 C1308 0.950 . S
H1300 C1310 0.950 . S
H1301 C1312 0.950 . S
H1302 C1314 0.950 . S
H1303 C1315 0.950 . S
C1304 H1296 0.950 . S
C1304 C1305 1.386 . S
C1304 C1306 1.391 . S
C1305 C1304 1.386 . S
C1305 C1309 1.393 . S
C1306 H1298 0.950 . S
C1306 C1304 1.391 . S
C1306 C1307 1.400 . S
C1307 C1306 1.400 . S
C1307 C1308 1.398 . S
C1307 C1313 1.491 . S
C1308 H1299 0.950 . S
C1308 C1307 1.398 . S
C1308 C1309 1.391 . S
C1309 H1297 0.950 . S
C1309 C1305 1.393 . S
C1309 C1308 1.391 . S
C1310 H1300 0.950 . S
C1310 C1311 1.386 . S
C1310 C1312 1.391 . S
C1311 C1310 1.386 . S
C1311 C1315 1.393 . S
C1312 H1301 0.950 . S
C1312 C1310 1.391 . S
C1312 C1313 1.400 . S
C1313 C1307 1.491 . S
C1313 C1312 1.400 . S
C1313 C1314 1.398 . S
C1314 H1302 0.950 . S
C1314 C1313 1.398 . S
C1314 C1315 1.391 . S
C1315 H1303 0.950 . S
C1315 C1311 1.393 . S
C1315 C1314 1.391 . S
H1316 C1324 0.950 . S
H1317 C1329 0.950 . S
H1318 C1326 0.950 . S
H1319 C1328 0.950 . S
H1320 C1330 0.950 . S
H1321 C1332 0.950 . S
H1322 C1334 0.950 . S
H1323 C1335 0.950 . S
C1324 H1316 0.950 . S
C1324 C1325 1.386 . S
C1324 C1326 1.391 . S
C1325 C1324 1.386 . S
C1325 C1329 1.393 . S
C1326 H1318 0.950 . S
C1326 C1324 1.391 . S
C1326 C1327 1.400 . S
C1327 C1326 1.400 . S
C1327 C1328 1.398 . S
C1327 C1333 1.491 . S
C1328 H1319 0.950 . S
C1328 C1327 1.398 . S
C1328 C1329 1.391 . S
C1329 H1317 0.950 . S
C1329 C1325 1.393 . S
C1329 C1328 1.391 . S
C1330 H1320 0.950 . S
C1330 C1331 1.386 . S
C1330 C1332 1.391 . S
C1331 C1330 1.386 . S
C1331 C1335 1.393 . S
C1332 H1321 0.950 . S
C1332 C1330 1.391 . S
C1332 C1333 1.400 . S
C1333 C1327 1.491 . S
C1333 C1332 1.400 . S
C1333 C1334 1.398 . S
C1334 H1322 0.950 . S
C1334 C1333 1.398 . S
C1334 C1335 1.391 . S
C1335 H1323 0.950 . S
C1335 C1331 1.393 . S
C1335 C1334 1.391 . S
H1336 C1344 0.950 . S
H1337 C1349 0.950 . S
H1338 C1346 0.950 . S
H1339 C1348 0.950 . S
H1340 C1350 0.950 . S
H1341 C1352 0.950 . S
H1342 C1354 0.950 . S
H1343 C1355 0.950 . S
C1344 H1336 0.950 . S
C1344 C1345 1.386 . S
C1344 C1346 1.391 . S
C1345 C1344 1.386 . S
C1345 C1349 1.393 . S
C1346 H1338 0.950 . S
C1346 C1344 1.391 . S
C1346 C1347 1.400 . S
C1347 C1346 1.400 . S
C1347 C1348 1.398 . S
C1347 C1353 1.491 . S
C1348 H1339 0.950 . S
C1348 C1347 1.398 . S
C1348 C1349 1.391 . S
C1349 H1337 0.950 . S
C1349 C1345 1.393 . S
C1349 C1348 1.391 . S
C1350 H1340 0.950 . S
C1350 C1351 1.386 . S
C1350 C1352 1.391 . S
C1351 C1350 1.386 . S
C1351 C1355 1.393 . S
C1352 H1341 0.950 . S
C1352 C1350 1.391 . S
C1352 C1353 1.400 . S
C1353 C1347 1.491 . S
C1353 C1352 1.400 . S
C1353 C1354 1.398 . S
C1354 H1342 0.950 . S
C1354 C1353 1.398 . S
C1354 C1355 1.391 . S
C1355 H1343 0.950 . S
C1355 C1351 1.393 . S
C1355 C1354 1.391 . S
H1356 C1364 0.950 . S
H1357 C1369 0.950 . S
H1358 C1366 0.950 . S
H1359 C1368 0.950 . S
H1360 C1370 0.950 . S
H1361 C1372 0.950 . S
H1362 C1374 0.950 . S
H1363 C1375 0.950 . S
C1364 H1356 0.950 . S
C1364 C1365 1.386 . S
C1364 C1366 1.391 . S
C1365 C1364 1.386 . S
C1365 C1369 1.393 . S
C1366 H1358 0.950 . S
C1366 C1364 1.391 . S
C1366 C1367 1.400 . S
C1367 C1366 1.400 . S
C1367 C1368 1.398 . S
C1367 C1373 1.491 . S
C1368 H1359 0.950 . S
C1368 C1367 1.398 . S
C1368 C1369 1.391 . S
C1369 H1357 0.950 . S
C1369 C1365 1.393 . S
C1369 C1368 1.391 . S
C1370 H1360 0.950 . S
C1370 C1371 1.386 . S
C1370 C1372 1.391 . S
C1371 C1370 1.386 . S
C1371 C1375 1.393 . S
C1372 H1361 0.950 . S
C1372 C1370 1.391 . S
C1372 C1373 1.400 . S
C1373 C1367 1.491 . S
C1373 C1372 1.400 . S
C1373 C1374 1.398 . S
C1374 H1362 0.950 . S
C1374 C1373 1.398 . S
C1374 C1375 1.391 . S
C1375 H1363 0.950 . S
C1375 C1371 1.393 . S
C1375 C1374 1.391 . S
H1376 C1384 0.950 . S
H1377 C1389 0.950 . S
H1378 C1386 0.950 . S
H1379 C1388 0.950 . S
H1380 C1390 0.950 . S
H1381 C1392 0.950 . S
H1382 C1394 0.950 . S
H1383 C1395 0.950 . S
C1384 H1376 0.950 . S
C1384 C1385 1.386 . S
C1384 C1386 1.391 . S
C1385 C1384 1.386 . S
C1385 C1389 1.393 . S
C1386 H1378 0.950 . S
C1386 C1384 1.391 . S
C1386 C1387 1.400 . S
C1387 C1386 1.400 . S
C1387 C1388 1.398 . S
C1387 C1393 1.491 . S
C1388 H1379 0.950 . S
C1388 C1387 1.398 . S
C1388 C1389 1.391 . S
C1389 H1377 0.950 . S
C1389 C1385 1.393 . S
C1389 C1388 1.391 . S
C1390 H1380 0.950 . S
C1390 C1391 1.386 . S
C1390 C1392 1.391 . S
C1391 C1390 1.386 . S
C1391 C1395 1.393 . S
C1392 H1381 0.950 . S
C1392 C1390 1.391 . S
C1392 C1393 1.400 . S
C1393 C1387 1.491 . S
C1393 C1392 1.400 . S
C1393 C1394 1.398 . S
C1394 H1382 0.950 . S
C1394 C1393 1.398 . S
C1394 C1395 1.391 . S
C1395 H1383 0.950 . S
C1395 C1391 1.393 . S
C1395 C1394 1.391 . S
H1396 C1404 0.950 . S
H1397 C1409 0.950 . S
H1398 C1406 0.950 . S
H1399 C1408 0.950 . S
H1400 C1410 0.950 . S
H1401 C1412 0.950 . S
H1402 C1414 0.950 . S
H1403 C1415 0.950 . S
C1404 H1396 0.950 . S
C1404 C1405 1.386 . S
C1404 C1406 1.391 . S
C1405 C1404 1.386 . S
C1405 C1409 1.393 . S
C1406 H1398 0.950 . S
C1406 C1404 1.391 . S
C1406 C1407 1.400 . S
C1407 C1406 1.400 . S
C1407 C1408 1.398 . S
C1407 C1413 1.491 . S
C1408 H1399 0.950 . S
C1408 C1407 1.398 . S
C1408 C1409 1.391 . S
C1409 H1397 0.950 . S
C1409 C1405 1.393 . S
C1409 C1408 1.391 . S
C1410 H1400 0.950 . S
C1410 C1411 1.386 . S
C1410 C1412 1.391 . S
C1411 C1410 1.386 . S
C1411 C1415 1.393 . S
C1412 H1401 0.950 . S
C1412 C1410 1.391 . S
C1412 C1413 1.400 . S
C1413 C1407 1.491 . S
C1413 C1412 1.400 . S
C1413 C1414 1.398 . S
C1414 H1402 0.950 . S
C1414 C1413 1.398 . S
C1414 C1415 1.391 . S
C1415 H1403 0.950 . S
C1415 C1411 1.393 . S
C1415 C1414 1.391 . S
H1416 C1424 0.950 . S
H1417 C1429 0.950 . S
H1418 C1426 0.950 . S
H1419 C1428 0.950 . S
H1420 C1430 0.950 . S
H1421 C1432 0.950 . S
H1422 C1434 0.950 . S
H1423 C1435 0.950 . S
C1424 H1416 0.950 . S
C1424 C1425 1.386 . S
C1424 C1426 1.391 . S
C1425 C1424 1.386 . S
C1425 C1429 1.393 . S
C1426 H1418 0.950 . S
C1426 C1424 1.391 . S
C1426 C1427 1.400 . S
C1427 C1426 1.400 . S
C1427 C1428 1.398 . S
C1427 C1433 1.491 . S
C1428 H1419 0.950 . S
C1428 C1427 1.398 . S
C1428 C1429 1.391 . S
C1429 H1417 0.950 . S
C1429 C1425 1.393 . S
C1429 C1428 1.391 . S
C1430 H1420 0.950 . S
C1430 C1431 1.386 . S
C1430 C1432 1.391 . S
C1431 C1430 1.386 . S
C1431 C1435 1.393 . S
C1432 H1421 0.950 . S
C1432 C1430 1.391 . S
C1432 C1433 1.400 . S
C1433 C1427 1.491 . S
C1433 C1432 1.400 . S
C1433 C1434 1.398 . S
C1434 H1422 0.950 . S
C1434 C1433 1.398 . S
C1434 C1435 1.391 . S
C1435 H1423 0.950 . S
C1435 C1431 1.393 . S
C1435 C1434 1.391 . S
H1436 C1444 0.950 . S
H1437 C1449 0.950 . S
H1438 C1446 0.950 . S
H1439 C1448 0.950 . S
H1440 C1450 0.950 . S
H1441 C1452 0.950 . S
H1442 C1454 0.950 . S
H1443 C1455 0.950 . S
C1444 H1436 0.950 . S
C1444 C1445 1.386 . S
C1444 C1446 1.391 . S
C1445 C1444 1.386 . S
C1445 C1449 1.393 . S
C1446 H1438 0.950 . S
C1446 C1444 1.391 . S
C1446 C1447 1.400 . S
C1447 C1446 1.400 . S
C1447 C1448 1.398 . S
C1447 C1453 1.491 . S
C1448 H1439 0.950 . S
C1448 C1447 1.398 . S
C1448 C1449 1.391 . S
C1449 H1437 0.950 . S
C1449 C1445 1.393 . S
C1449 C1448 1.391 . S
C1450 H1440 0.950 . S
C1450 C1451 1.386 . S
C1450 C1452 1.391 . S
C1451 C1450 1.386 . S
C1451 C1455 1.393 . S
C1452 H1441 0.950 . S
C1452 C1450 1.391 . S
C1452 C1453 1.400 . S
C1453 C1447 1.491 . S
C1453 C1452 1.400 . S
C1453 C1454 1.398 . S
C1454 H1442 0.950 . S
C1454 C1453 1.398 . S
C1454 C1455 1.391 . S
C1455 H1443 0.950 . S
C1455 C1451 1.393 . S
C1455 C1454 1.391 . S
H1456 C1464 0.950 . S
H1457 C1469 0.950 . S
H1458 C1466 0.950 . S
H1459 C1468 0.950 . S
H1460 C1470 0.950 . S
H1461 C1472 0.950 . S
H1462 C1474 0.950 . S
H1463 C1475 0.950 . S
C1464 H1456 0.950 . S
C1464 C1465 1.386 . S
C1464 C1466 1.391 . S
C1465 C1464 1.386 . S
C1465 C1469 1.393 . S
C1466 H1458 0.950 . S
C1466 C1464 1.391 . S
C1466 C1467 1.400 . S
C1467 C1466 1.400 . S
C1467 C1468 1.398 . S
C1467 C1473 1.491 . S
C1468 H1459 0.950 . S
C1468 C1467 1.398 . S
C1468 C1469 1.391 . S
C1469 H1457 0.950 . S
C1469 C1465 1.393 . S
C1469 C1468 1.391 . S
C1470 H1460 0.950 . S
C1470 C1471 1.386 . S
C1470 C1472 1.391 . S
C1471 C1470 1.386 . S
C1471 C1475 1.393 . S
C1472 H1461 0.950 . S
C1472 C1470 1.391 . S
C1472 C1473 1.400 . S
C1473 C1467 1.491 . S
C1473 C1472 1.400 . S
C1473 C1474 1.398 . S
C1474 H1462 0.950 . S
C1474 C1473 1.398 . S
C1474 C1475 1.391 . S
C1475 H1463 0.950 . S
C1475 C1471 1.393 . S
C1475 C1474 1.391 . S
H1476 C1484 0.950 . S
H1477 C1489 0.950 . S
H1478 C1486 0.950 . S
H1479 C1488 0.950 . S
H1480 C1490 0.950 . S
H1481 C1492 0.950 . S
H1482 C1494 0.950 . S
H1483 C1495 0.950 . S
C1484 H1476 0.950 . S
C1484 C1485 1.386 . S
C1484 C1486 1.391 . S
C1485 C1484 1.386 . S
C1485 C1489 1.393 . S
C1486 H1478 0.950 . S
C1486 C1484 1.391 . S
C1486 C1487 1.400 . S
C1487 C1486 1.400 . S
C1487 C1488 1.398 . S
C1487 C1493 1.491 . S
C1488 H1479 0.950 . S
C1488 C1487 1.398 . S
C1488 C1489 1.391 . S
C1489 H1477 0.950 . S
C1489 C1485 1.393 . S
C1489 C1488 1.391 . S
C1490 H1480 0.950 . S
C1490 C1491 1.386 . S
C1490 C1492 1.391 . S
C1491 C1490 1.386 . S
C1491 C1495 1.393 . S
C1492 H1481 0.950 . S
C1492 C1490 1.391 . S
C1492 C1493 1.400 . S
C1493 C1487 1.491 . S
C1493 C1492 1.400 . S
C1493 C1494 1.398 . S
C1494 H1482 0.950 . S
C1494 C1493 1.398 . S
C1494 C1495 1.391 . S
C1495 H1483 0.950 . S
C1495 C1491 1.393 . S
C1495 C1494 1.391 . S
H1496 C1504 0.950 . S
H1497 C1509 0.950 . S
H1498 C1506 0.950 . S
H1499 C1508 0.950 . S
H1500 C1510 0.950 . S
H1501 C1512 0.950 . S
H1502 C1514 0.950 . S
H1503 C1515 0.950 . S
C1504 H1496 0.950 . S
C1504 C1505 1.386 . S
C1504 C1506 1.391 . S
C1505 C1504 1.386 . S
C1505 C1509 1.393 . S
C1506 H1498 0.950 . S
C1506 C1504 1.391 . S
C1506 C1507 1.400 . S
C1507 C1506 1.400 . S
C1507 C1508 1.398 . S
C1507 C1513 1.491 . S
C1508 H1499 0.950 . S
C1508 C1507 1.398 . S
C1508 C1509 1.391 . S
C1509 H1497 0.950 . S
C1509 C1505 1.393 . S
C1509 C1508 1.391 . S
C1510 H1500 0.950 . S
C1510 C1511 1.386 . S
C1510 C1512 1.391 . S
C1511 C1510 1.386 . S
C1511 C1515 1.393 . S
C1512 H1501 0.950 . S
C1512 C1510 1.391 . S
C1512 C1513 1.400 . S
C1513 C1507 1.491 . S
C1513 C1512 1.400 . S
C1513 C1514 1.398 . S
C1514 H1502 0.950 . S
C1514 C1513 1.398 . S
C1514 C1515 1.391 . S
C1515 H1503 0.950 . S
C1515 C1511 1.393 . S
C1515 C1514 1.391 . S
H1516 C1524 0.950 . S
H1517 C1529 0.950 . S
H1518 C1526 0.950 . S
H1519 C1528 0.950 . S
H1520 C1530 0.950 . S
H1521 C1532 0.950 . S
H1522 C1534 0.950 . S
H1523 C1535 0.950 . S
C1524 H1516 0.950 . S
C1524 C1525 1.386 . S
C1524 C1526 1.391 . S
C1525 C1524 1.386 . S
C1525 C1529 1.393 . S
C1526 H1518 0.950 . S
C1526 C1524 1.391 . S
C1526 C1527 1.400 . S
C1527 C1526 1.400 . S
C1527 C1528 1.398 . S
C1527 C1533 1.491 . S
C1528 H1519 0.950 . S
C1528 C1527 1.398 . S
C1528 C1529 1.391 . S
C1529 H1517 0.950 . S
C1529 C1525 1.393 . S
C1529 C1528 1.391 . S
C1530 H1520 0.950 . S
C1530 C1531 1.386 . S
C1530 C1532 1.391 . S
C1531 C1530 1.386 . S
C1531 C1535 1.393 . S
C1532 H1521 0.950 . S
C1532 C1530 1.391 . S
C1532 C1533 1.400 . S
C1533 C1527 1.491 . S
C1533 C1532 1.400 . S
C1533 C1534 1.398 . S
C1534 H1522 0.950 . S
C1534 C1533 1.398 . S
C1534 C1535 1.391 . S
C1535 H1523 0.950 . S
C1535 C1531 1.393 . S
C1535 C1534 1.391 . S
H1536 C1544 0.950 . S
H1537 C1549 0.950 . S
H1538 C1546 0.950 . S
H1539 C1548 0.950 . S
H1540 C1550 0.950 . S
H1541 C1552 0.950 . S
H1542 C1554 0.950 . S
H1543 C1555 0.950 . S
C1544 H1536 0.950 . S
C1544 C1545 1.386 . S
C1544 C1546 1.391 . S
C1545 C1544 1.386 . S
C1545 C1549 1.393 . S
C1546 H1538 0.950 . S
C1546 C1544 1.391 . S
C1546 C1547 1.400 . S
C1547 C1546 1.400 . S
C1547 C1548 1.398 . S
C1547 C1553 1.491 . S
C1548 H1539 0.950 . S
C1548 C1547 1.398 . S
C1548 C1549 1.391 . S
C1549 H1537 0.950 . S
C1549 C1545 1.393 . S
C1549 C1548 1.391 . S
C1550 H1540 0.950 . S
C1550 C1551 1.386 . S
C1550 C1552 1.391 . S
C1551 C1550 1.386 . S
C1551 C1555 1.393 . S
C1552 H1541 0.950 . S
C1552 C1550 1.391 . S
C1552 C1553 1.400 . S
C1553 C1547 1.491 . S
C1553 C1552 1.400 . S
C1553 C1554 1.398 . S
C1554 H1542 0.950 . S
C1554 C1553 1.398 . S
C1554 C1555 1.391 . S
C1555 H1543 0.950 . S
C1555 C1551 1.393 . S
C1555 C1554 1.391 . S
H1556 C1564 0.950 . S
H1557 C1569 0.950 . S
H1558 C1566 0.950 . S
H1559 C1568 0.950 . S
H1560 C1570 0.950 . S
H1561 C1572 0.950 . S
H1562 C1574 0.950 . S
H1563 C1575 0.950 . S
C1564 H1556 0.950 . S
C1564 C1565 1.386 . S
C1564 C1566 1.391 . S
C1565 C1564 1.386 . S
C1565 C1569 1.393 . S
C1566 H1558 0.950 . S
C1566 C1564 1.391 . S
C1566 C1567 1.400 . S
C1567 C1566 1.400 . S
C1567 C1568 1.398 . S
C1567 C1573 1.491 . S
C1568 H1559 0.950 . S
C1568 C1567 1.398 . S
C1568 C1569 1.391 . S
C1569 H1557 0.950 . S
C1569 C1565 1.393 . S
C1569 C1568 1.391 . S
C1570 H1560 0.950 . S
C1570 C1571 1.386 . S
C1570 C1572 1.391 . S
C1571 C1570 1.386 . S
C1571 C1575 1.393 . S
C1572 H1561 0.950 . S
C1572 C1570 1.391 . S
C1572 C1573 1.400 . S
C1573 C1567 1.491 . S
C1573 C1572 1.400 . S
C1573 C1574 1.398 . S
C1574 H1562 0.950 . S
C1574 C1573 1.398 . S
C1574 C1575 1.391 . S
C1575 H1563 0.950 . S
C1575 C1571 1.393 . S
C1575 C1574 1.391 . S
H1576 C1584 0.950 . S
H1577 C1589 0.950 . S
H1578 C1586 0.950 . S
H1579 C1588 0.950 . S
H1580 C1590 0.950 . S
H1581 C1592 0.950 . S
H1582 C1594 0.950 . S
H1583 C1595 0.950 . S
C1584 H1576 0.950 . S
C1584 C1585 1.386 . S
C1584 C1586 1.391 . S
C1585 C1584 1.386 . S
C1585 C1589 1.393 . S
C1586 H1578 0.950 . S
C1586 C1584 1.391 . S
C1586 C1587 1.400 . S
C1587 C1586 1.400 . S
C1587 C1588 1.398 . S
C1587 C1593 1.491 . S
C1588 H1579 0.950 . S
C1588 C1587 1.398 . S
C1588 C1589 1.391 . S
C1589 H1577 0.950 . S
C1589 C1585 1.393 . S
C1589 C1588 1.391 . S
C1590 H1580 0.950 . S
C1590 C1591 1.386 . S
C1590 C1592 1.391 . S
C1591 C1590 1.386 . S
C1591 C1595 1.393 . S
C1592 H1581 0.950 . S
C1592 C1590 1.391 . S
C1592 C1593 1.400 . S
C1593 C1587 1.491 . S
C1593 C1592 1.400 . S
C1593 C1594 1.398 . S
C1594 H1582 0.950 . S
C1594 C1593 1.398 . S
C1594 C1595 1.391 . S
C1595 H1583 0.950 . S
C1595 C1591 1.393 . S
C1595 C1594 1.391 . S
H1596 C1604 0.950 . S
H1597 C1609 0.950 . S
H1598 C1606 0.950 . S
H1599 C1608 0.950 . S
H1600 C1610 0.950 . S
H1601 C1612 0.950 . S
H1602 C1614 0.950 . S
H1603 C1615 0.950 . S
C1604 H1596 0.950 . S
C1604 C1605 1.386 . S
C1604 C1606 1.391 . S
C1605 C1604 1.386 . S
C1605 C1609 1.393 . S
C1606 H1598 0.950 . S
C1606 C1604 1.391 . S
C1606 C1607 1.400 . S
C1607 C1606 1.400 . S
C1607 C1608 1.398 . S
C1607 C1613 1.491 . S
C1608 H1599 0.950 . S
C1608 C1607 1.398 . S
C1608 C1609 1.391 . S
C1609 H1597 0.950 . S
C1609 C1605 1.393 . S
C1609 C1608 1.391 . S
C1610 H1600 0.950 . S
C1610 C1611 1.386 . S
C1610 C1612 1.391 . S
C1611 C1610 1.386 . S
C1611 C1615 1.393 . S
C1612 H1601 0.950 . S
C1612 C1610 1.391 . S
C1612 C1613 1.400 . S
C1613 C1607 1.491 . S
C1613 C1612 1.400 . S
C1613 C1614 1.398 . S
C1614 H1602 0.950 . S
C1614 C1613 1.398 . S
C1614 C1615 1.391 . S
C1615 H1603 0.950 . S
C1615 C1611 1.393 . S
C1615 C1614 1.391 . S
H1616 C1624 0.950 . S
H1617 C1629 0.950 . S
H1618 C1626 0.950 . S
H1619 C1628 0.950 . S
H1620 C1630 0.950 . S
H1621 C1632 0.950 . S
H1622 C1634 0.950 . S
H1623 C1635 0.950 . S
C1624 H1616 0.950 . S
C1624 C1625 1.386 . S
C1624 C1626 1.391 . S
C1625 C1624 1.386 . S
C1625 C1629 1.393 . S
C1626 H1618 0.950 . S
C1626 C1624 1.391 . S
C1626 C1627 1.400 . S
C1627 C1626 1.400 . S
C1627 C1628 1.398 . S
C1627 C1633 1.491 . S
C1628 H1619 0.950 . S
C1628 C1627 1.398 . S
C1628 C1629 1.391 . S
C1629 H1617 0.950 . S
C1629 C1625 1.393 . S
C1629 C1628 1.391 . S
C1630 H1620 0.950 . S
C1630 C1631 1.386 . S
C1630 C1632 1.391 . S
C1631 C1630 1.386 . S
C1631 C1635 1.393 . S
C1632 H1621 0.950 . S
C1632 C1630 1.391 . S
C1632 C1633 1.400 . S
C1633 C1627 1.491 . S
C1633 C1632 1.400 . S
C1633 C1634 1.398 . S
C1634 H1622 0.950 . S
C1634 C1633 1.398 . S
C1634 C1635 1.391 . S
C1635 H1623 0.950 . S
C1635 C1631 1.393 . S
C1635 C1634 1.391 . S
H1636 C1644 0.950 . S
H1637 C1649 0.950 . S
H1638 C1646 0.950 . S
H1639 C1648 0.950 . S
H1640 C1650 0.950 . S
H1641 C1652 0.950 . S
H1642 C1654 0.950 . S
H1643 C1655 0.950 . S
C1644 H1636 0.950 . S
C1644 C1645 1.386 . S
C1644 C1646 1.391 . S
C1645 C1644 1.386 . S
C1645 C1649 1.393 . S
C1646 H1638 0.950 . S
C1646 C1644 1.391 . S
C1646 C1647 1.400 . S
C1647 C1646 1.400 . S
C1647 C1648 1.398 . S
C1647 C1653 1.491 . S
C1648 H1639 0.950 . S
C1648 C1647 1.398 . S
C1648 C1649 1.391 . S
C1649 H1637 0.950 . S
C1649 C1645 1.393 . S
C1649 C1648 1.391 . S
C1650 H1640 0.950 . S
C1650 C1651 1.386 . S
C1650 C1652 1.391 . S
C1651 C1650 1.386 . S
C1651 C1655 1.393 . S
C1652 H1641 0.950 . S
C1652 C1650 1.391 . S
C1652 C1653 1.400 . S
C1653 C1647 1.491 . S
C1653 C1652 1.400 . S
C1653 C1654 1.398 . S
C1654 H1642 0.950 . S
C1654 C1653 1.398 . S
C1654 C1655 1.391 . S
C1655 H1643 0.950 . S
C1655 C1651 1.393 . S
C1655 C1654 1.391 . S
H1656 C1664 0.950 . S
H1657 C1669 0.950 . S
H1658 C1666 0.950 1_565 S
H1659 C1668 0.950 . S
H1660 C1670 0.950 . S
H1661 C1672 0.950 1_545 S
H1662 C1674 0.950 . S
H1663 C1675 0.950 . S
C1664 H1656 0.950 . S
C1664 C1665 1.386 . S
C1664 C1666 1.391 . S
C1665 C1664 1.386 . S
C1665 C1669 1.393 . S
C1666 H1658 0.950 1_545 S
C1666 C1664 1.391 . S
C1666 C1667 1.400 . S
C1667 C1666 1.400 . S
C1667 C1668 1.398 . S
C1667 C1673 1.491 1_545 S
C1668 H1659 0.950 . S
C1668 C1667 1.398 . S
C1668 C1669 1.391 . S
C1669 H1657 0.950 . S
C1669 C1665 1.393 . S
C1669 C1668 1.391 . S
C1670 H1660 0.950 . S
C1670 C1671 1.386 . S
C1670 C1672 1.391 . S
C1671 C1670 1.386 . S
C1671 C1675 1.393 . S
C1672 H1661 0.950 1_565 S
C1672 C1670 1.391 . S
C1672 C1673 1.400 . S
C1673 C1667 1.491 1_565 S
C1673 C1672 1.400 . S
C1673 C1674 1.398 . S
C1674 H1662 0.950 . S
C1674 C1673 1.398 . S
C1674 C1675 1.391 . S
C1675 H1663 0.950 . S
C1675 C1671 1.393 . S
C1675 C1674 1.391 . S
H1676 C1684 0.950 . S
H1677 C1689 0.950 . S
H1678 C1686 0.950 . S
H1679 C1688 0.950 . S
H1680 C1690 0.950 . S
H1681 C1692 0.950 . S
H1682 C1694 0.950 . S
H1683 C1695 0.950 . S
C1684 H1676 0.950 . S
C1684 C1685 1.386 . S
C1684 C1686 1.391 . S
C1685 C1684 1.386 . S
C1685 C1689 1.393 . S
C1686 H1678 0.950 . S
C1686 C1684 1.391 . S
C1686 C1687 1.400 . S
C1687 C1686 1.400 . S
C1687 C1688 1.398 . S
C1687 C1693 1.491 . S
C1688 H1679 0.950 . S
C1688 C1687 1.398 . S
C1688 C1689 1.391 . S
C1689 H1677 0.950 . S
C1689 C1685 1.393 . S
C1689 C1688 1.391 . S
C1690 H1680 0.950 . S
C1690 C1691 1.386 . S
C1690 C1692 1.391 . S
C1691 C1690 1.386 . S
C1691 C1695 1.393 . S
C1692 H1681 0.950 . S
C1692 C1690 1.391 . S
C1692 C1693 1.400 . S
C1693 C1687 1.491 . S
C1693 C1692 1.400 . S
C1693 C1694 1.398 . S
C1694 H1682 0.950 . S
C1694 C1693 1.398 . S
C1694 C1695 1.391 . S
C1695 H1683 0.950 . S
C1695 C1691 1.393 . S
C1695 C1694 1.391 . S
H1696 C1704 0.950 . S
H1697 C1709 0.950 . S
H1698 C1706 0.950 . S
H1699 C1708 0.950 1_455 S
H1700 C1710 0.950 . S
H1701 C1712 0.950 . S
H1702 C1714 0.950 1_655 S
H1703 C1715 0.950 . S
C1704 H1696 0.950 . S
C1704 C1705 1.386 . S
C1704 C1706 1.391 . S
C1705 C1704 1.386 . S
C1705 C1709 1.393 . S
C1706 H1698 0.950 . S
C1706 C1704 1.391 . S
C1706 C1707 1.400 . S
C1707 C1706 1.400 . S
C1707 C1708 1.398 . S
C1707 C1713 1.491 1_655 S
C1708 H1699 0.950 1_655 S
C1708 C1707 1.398 . S
C1708 C1709 1.391 . S
C1709 H1697 0.950 . S
C1709 C1705 1.393 . S
C1709 C1708 1.391 . S
C1710 H1700 0.950 . S
C1710 C1711 1.386 . S
C1710 C1712 1.391 . S
C1711 C1710 1.386 . S
C1711 C1715 1.393 . S
C1712 H1701 0.950 . S
C1712 C1710 1.391 . S
C1712 C1713 1.400 . S
C1713 C1707 1.491 1_455 S
C1713 C1712 1.400 . S
C1713 C1714 1.398 . S
C1714 H1702 0.950 1_455 S
C1714 C1713 1.398 . S
C1714 C1715 1.391 . S
C1715 H1703 0.950 . S
C1715 C1711 1.393 . S
C1715 C1714 1.391 . S
H1716 C1724 0.950 . S
H1717 C1729 0.950 . S
H1718 C1726 0.950 1_655 S
H1719 C1728 0.950 . S
H1720 C1730 0.950 . S
H1721 C1732 0.950 1_455 S
H1722 C1734 0.950 . S
H1723 C1735 0.950 . S
C1724 H1716 0.950 . S
C1724 C1725 1.386 . S
C1724 C1726 1.391 . S
C1725 C1724 1.386 . S
C1725 C1729 1.393 . S
C1726 H1718 0.950 1_455 S
C1726 C1724 1.391 . S
C1726 C1727 1.400 . S
C1727 C1726 1.400 . S
C1727 C1728 1.398 . S
C1727 C1733 1.491 1_455 S
C1728 H1719 0.950 . S
C1728 C1727 1.398 . S
C1728 C1729 1.391 . S
C1729 H1717 0.950 . S
C1729 C1725 1.393 . S
C1729 C1728 1.391 . S
C1730 H1720 0.950 . S
C1730 C1731 1.386 . S
C1730 C1732 1.391 . S
C1731 C1730 1.386 . S
C1731 C1735 1.393 . S
C1732 H1721 0.950 1_655 S
C1732 C1730 1.391 . S
C1732 C1733 1.400 . S
C1733 C1727 1.491 1_655 S
C1733 C1732 1.400 . S
C1733 C1734 1.398 . S
C1734 H1722 0.950 . S
C1734 C1733 1.398 . S
C1734 C1735 1.391 . S
C1735 H1723 0.950 . S
C1735 C1731 1.393 . S
C1735 C1734 1.391 . S
H1736 C1744 0.950 . S
H1737 C1749 0.950 . S
H1738 C1746 0.950 . S
H1739 C1748 0.950 1_565 S
H1740 C1750 0.950 . S
H1741 C1752 0.950 . S
H1742 C1754 0.950 1_545 S
H1743 C1755 0.950 . S
C1744 H1736 0.950 . S
C1744 C1745 1.386 . S
C1744 C1746 1.391 . S
C1745 C1744 1.386 . S
C1745 C1749 1.393 . S
C1746 H1738 0.950 . S
C1746 C1744 1.391 . S
C1746 C1747 1.400 . S
C1747 C1746 1.400 . S
C1747 C1748 1.398 . S
C1747 C1753 1.491 1_545 S
C1748 H1739 0.950 1_545 S
C1748 C1747 1.398 . S
C1748 C1749 1.391 . S
C1749 H1737 0.950 . S
C1749 C1745 1.393 . S
C1749 C1748 1.391 . S
C1750 H1740 0.950 . S
C1750 C1751 1.386 . S
C1750 C1752 1.391 . S
C1751 C1750 1.386 . S
C1751 C1755 1.393 . S
C1752 H1741 0.950 . S
C1752 C1750 1.391 . S
C1752 C1753 1.400 . S
C1753 C1747 1.491 1_565 S
C1753 C1752 1.400 . S
C1753 C1754 1.398 . S
C1754 H1742 0.950 1_565 S
C1754 C1753 1.398 . S
C1754 C1755 1.391 . S
C1755 H1743 0.950 . S
C1755 C1751 1.393 . S
C1755 C1754 1.391 . S
H1756 C1764 0.950 . S
H1757 C1769 0.950 . S
H1758 C1766 0.950 . S
H1759 C1768 0.950 . S
H1760 C1770 0.950 . S
H1761 C1772 0.950 . S
H1762 C1774 0.950 . S
H1763 C1775 0.950 . S
C1764 H1756 0.950 . S
C1764 C1765 1.386 . S
C1764 C1766 1.391 . S
C1765 C1764 1.386 . S
C1765 C1769 1.393 . S
C1766 H1758 0.950 . S
C1766 C1764 1.391 . S
C1766 C1767 1.400 . S
C1767 C1766 1.400 . S
C1767 C1768 1.398 . S
C1767 C1773 1.491 . S
C1768 H1759 0.950 . S
C1768 C1767 1.398 . S
C1768 C1769 1.391 . S
C1769 H1757 0.950 . S
C1769 C1765 1.393 . S
C1769 C1768 1.391 . S
C1770 H1760 0.950 . S
C1770 C1771 1.386 . S
C1770 C1772 1.391 . S
C1771 C1770 1.386 . S
C1771 C1775 1.393 . S
C1772 H1761 0.950 . S
C1772 C1770 1.391 . S
C1772 C1773 1.400 . S
C1773 C1767 1.491 . S
C1773 C1772 1.400 . S
C1773 C1774 1.398 . S
C1774 H1762 0.950 . S
C1774 C1773 1.398 . S
C1774 C1775 1.391 . S
C1775 H1763 0.950 . S
C1775 C1771 1.393 . S
C1775 C1774 1.391 . S
H1776 C1784 0.950 . S
H1777 C1789 0.950 . S
H1778 C1786 0.950 . S
H1779 C1788 0.950 . S
H1780 C1790 0.950 . S
H1781 C1792 0.950 . S
H1782 C1794 0.950 . S
H1783 C1795 0.950 . S
C1784 H1776 0.950 . S
C1784 C1785 1.386 . S
C1784 C1786 1.391 . S
C1785 C1784 1.386 . S
C1785 C1789 1.393 . S
C1786 H1778 0.950 . S
C1786 C1784 1.391 . S
C1786 C1787 1.400 . S
C1787 C1786 1.400 . S
C1787 C1788 1.398 . S
C1787 C1793 1.491 1_545 S
C1788 H1779 0.950 . S
C1788 C1787 1.398 . S
C1788 C1789 1.391 . S
C1789 H1777 0.950 . S
C1789 C1785 1.393 . S
C1789 C1788 1.391 . S
C1790 H1780 0.950 . S
C1790 C1791 1.386 . S
C1790 C1792 1.391 . S
C1791 C1790 1.386 . S
C1791 C1795 1.393 . S
C1792 H1781 0.950 . S
C1792 C1790 1.391 . S
C1792 C1793 1.400 . S
C1793 C1787 1.491 1_565 S
C1793 C1792 1.400 . S
C1793 C1794 1.398 . S
C1794 H1782 0.950 . S
C1794 C1793 1.398 . S
C1794 C1795 1.391 . S
C1795 H1783 0.950 . S
C1795 C1791 1.393 . S
C1795 C1794 1.391 . S
H1796 C1804 0.950 . S
H1797 C1809 0.950 . S
H1798 C1806 0.950 . S
H1799 C1808 0.950 . S
H1800 C1810 0.950 . S
H1801 C1812 0.950 . S
H1802 C1814 0.950 . S
H1803 C1815 0.950 . S
C1804 H1796 0.950 . S
C1804 C1805 1.386 . S
C1804 C1806 1.391 . S
C1805 C1804 1.386 . S
C1805 C1809 1.393 . S
C1806 H1798 0.950 . S
C1806 C1804 1.391 . S
C1806 C1807 1.400 . S
C1807 C1806 1.400 . S
C1807 C1808 1.398 . S
C1807 C1813 1.491 . S
C1808 H1799 0.950 . S
C1808 C1807 1.398 . S
C1808 C1809 1.391 . S
C1809 H1797 0.950 . S
C1809 C1805 1.393 . S
C1809 C1808 1.391 . S
C1810 H1800 0.950 . S
C1810 C1811 1.386 . S
C1810 C1812 1.391 . S
C1811 C1810 1.386 . S
C1811 C1815 1.393 . S
C1812 H1801 0.950 . S
C1812 C1810 1.391 . S
C1812 C1813 1.400 . S
C1813 C1807 1.491 . S
C1813 C1812 1.400 . S
C1813 C1814 1.398 . S
C1814 H1802 0.950 . S
C1814 C1813 1.398 . S
C1814 C1815 1.391 . S
C1815 H1803 0.950 . S
C1815 C1811 1.393 . S
C1815 C1814 1.391 . S
H1816 C1824 0.950 . S
H1817 C1829 0.950 . S
H1818 C1826 0.950 1_655 S
H1819 C1828 0.950 . S
H1820 C1830 0.950 . S
H1821 C1832 0.950 1_455 S
H1822 C1834 0.950 . S
H1823 C1835 0.950 . S
C1824 H1816 0.950 . S
C1824 C1825 1.386 . S
C1824 C1826 1.391 . S
C1825 C1824 1.386 . S
C1825 C1829 1.393 . S
C1826 H1818 0.950 1_455 S
C1826 C1824 1.391 . S
C1826 C1827 1.400 . S
C1827 C1826 1.400 . S
C1827 C1828 1.398 . S
C1827 C1833 1.491 1_455 S
C1828 H1819 0.950 . S
C1828 C1827 1.398 . S
C1828 C1829 1.391 . S
C1829 H1817 0.950 . S
C1829 C1825 1.393 . S
C1829 C1828 1.391 . S
C1830 H1820 0.950 . S
C1830 C1831 1.386 . S
C1830 C1832 1.391 . S
C1831 C1830 1.386 . S
C1831 C1835 1.393 . S
C1832 H1821 0.950 1_655 S
C1832 C1830 1.391 . S
C1832 C1833 1.400 . S
C1833 C1827 1.491 1_655 S
C1833 C1832 1.400 . S
C1833 C1834 1.398 . S
C1834 H1822 0.950 . S
C1834 C1833 1.398 . S
C1834 C1835 1.391 . S
C1835 H1823 0.950 . S
C1835 C1831 1.393 . S
C1835 C1834 1.391 . S
H1836 C1844 0.950 . S
H1837 C1849 0.950 . S
H1838 C1846 0.950 1_455 S
H1839 C1848 0.950 . S
H1840 C1850 0.950 . S
H1841 C1852 0.950 1_655 S
H1842 C1854 0.950 . S
H1843 C1855 0.950 . S
C1844 H1836 0.950 . S
C1844 C1845 1.386 . S
C1844 C1846 1.391 . S
C1845 C1844 1.386 . S
C1845 C1849 1.393 . S
C1846 H1838 0.950 1_655 S
C1846 C1844 1.391 . S
C1846 C1847 1.400 . S
C1847 C1846 1.400 . S
C1847 C1848 1.398 . S
C1847 C1853 1.491 1_655 S
C1848 H1839 0.950 . S
C1848 C1847 1.398 . S
C1848 C1849 1.391 . S
C1849 H1837 0.950 . S
C1849 C1845 1.393 . S
C1849 C1848 1.391 . S
C1850 H1840 0.950 . S
C1850 C1851 1.386 . S
C1850 C1852 1.391 . S
C1851 C1850 1.386 . S
C1851 C1855 1.393 . S
C1852 H1841 0.950 1_455 S
C1852 C1850 1.391 . S
C1852 C1853 1.400 . S
C1853 C1847 1.491 1_455 S
C1853 C1852 1.400 . S
C1853 C1854 1.398 . S
C1854 H1842 0.950 . S
C1854 C1853 1.398 . S
C1854 C1855 1.391 . S
C1855 H1843 0.950 . S
C1855 C1851 1.393 . S
C1855 C1854 1.391 . S
H1856 C1864 0.950 . S
H1857 C1869 0.950 . S
H1858 C1866 0.950 1_565 S
H1859 C1868 0.950 . S
H1860 C1870 0.950 . S
H1861 C1872 0.950 1_545 S
H1862 C1874 0.950 . S
H1863 C1875 0.950 . S
C1864 H1856 0.950 . S
C1864 C1865 1.386 . S
C1864 C1866 1.391 . S
C1865 C1864 1.386 . S
C1865 C1869 1.393 . S
C1866 H1858 0.950 1_545 S
C1866 C1864 1.391 . S
C1866 C1867 1.400 . S
C1867 C1866 1.400 . S
C1867 C1868 1.398 . S
C1867 C1873 1.491 1_545 S
C1868 H1859 0.950 . S
C1868 C1867 1.398 . S
C1868 C1869 1.391 . S
C1869 H1857 0.950 . S
C1869 C1865 1.393 . S
C1869 C1868 1.391 . S
C1870 H1860 0.950 . S
C1870 C1871 1.386 . S
C1870 C1872 1.391 . S
C1871 C1870 1.386 . S
C1871 C1875 1.393 . S
C1872 H1861 0.950 1_565 S
C1872 C1870 1.391 . S
C1872 C1873 1.400 . S
C1873 C1867 1.491 1_565 S
C1873 C1872 1.400 . S
C1873 C1874 1.398 . S
C1874 H1862 0.950 . S
C1874 C1873 1.398 . S
C1874 C1875 1.391 . S
C1875 H1863 0.950 . S
C1875 C1871 1.393 . S
C1875 C1874 1.391 . S
H1876 C1884 0.950 . S
H1877 C1889 0.950 . S
H1878 C1886 0.950 . S
H1879 C1888 0.950 . S
H1880 C1890 0.950 . S
H1881 C1892 0.950 . S
H1882 C1894 0.950 . S
H1883 C1895 0.950 . S
C1884 H1876 0.950 . S
C1884 C1885 1.386 . S
C1884 C1886 1.391 . S
C1885 C1884 1.386 . S
C1885 C1889 1.393 . S
C1886 H1878 0.950 . S
C1886 C1884 1.391 . S
C1886 C1887 1.400 . S
C1887 C1886 1.400 . S
C1887 C1888 1.398 . S
C1887 C1893 1.491 . S
C1888 H1879 0.950 . S
C1888 C1887 1.398 . S
C1888 C1889 1.391 . S
C1889 H1877 0.950 . S
C1889 C1885 1.393 . S
C1889 C1888 1.391 . S
C1890 H1880 0.950 . S
C1890 C1891 1.386 . S
C1890 C1892 1.391 . S
C1891 C1890 1.386 . S
C1891 C1895 1.393 . S
C1892 H1881 0.950 . S
C1892 C1890 1.391 . S
C1892 C1893 1.400 . S
C1893 C1887 1.491 . S
C1893 C1892 1.400 . S
C1893 C1894 1.398 . S
C1894 H1882 0.950 . S
C1894 C1893 1.398 . S
C1894 C1895 1.391 . S
C1895 H1883 0.950 . S
C1895 C1891 1.393 . S
C1895 C1894 1.391 . S
H1896 C1904 0.950 . S
H1897 C1909 0.950 . S
H1898 C1906 0.950 . S
H1899 C1908 0.950 . S
H1900 C1910 0.950 . S
H1901 C1912 0.950 . S
H1902 C1914 0.950 . S
H1903 C1915 0.950 . S
C1904 H1896 0.950 . S
C1904 C1905 1.386 . S
C1904 C1906 1.391 . S
C1905 C1904 1.386 . S
C1905 C1909 1.393 . S
C1906 H1898 0.950 . S
C1906 C1904 1.391 . S
C1906 C1907 1.400 . S
C1907 C1906 1.400 . S
C1907 C1908 1.398 . S
C1907 C1913 1.491 . S
C1908 H1899 0.950 . S
C1908 C1907 1.398 . S
C1908 C1909 1.391 . S
C1909 H1897 0.950 . S
C1909 C1905 1.393 . S
C1909 C1908 1.391 . S
C1910 H1900 0.950 . S
C1910 C1911 1.386 . S
C1910 C1912 1.391 . S
C1911 C1910 1.386 . S
C1911 C1915 1.393 . S
C1912 H1901 0.950 . S
C1912 C1910 1.391 . S
C1912 C1913 1.400 . S
C1913 C1907 1.491 . S
C1913 C1912 1.400 . S
C1913 C1914 1.398 . S
C1914 H1902 0.950 . S
C1914 C1913 1.398 . S
C1914 C1915 1.391 . S
C1915 H1903 0.950 . S
C1915 C1911 1.393 . S
C1915 C1914 1.391 . S
H1916 C1924 0.950 . S
H1917 C1929 0.950 . S
H1918 C1926 0.950 . S
H1919 C1928 0.950 . S
H1920 C1930 0.950 . S
H1921 C1932 0.950 . S
H1922 C1934 0.950 . S
H1923 C1935 0.950 . S
C1924 H1916 0.950 . S
C1924 C1925 1.386 . S
C1924 C1926 1.391 . S
C1925 C1924 1.386 . S
C1925 C1929 1.393 . S
C1926 H1918 0.950 . S
C1926 C1924 1.391 . S
C1926 C1927 1.400 . S
C1927 C1926 1.400 . S
C1927 C1928 1.398 . S
C1927 C1933 1.491 . S
C1928 H1919 0.950 . S
C1928 C1927 1.398 . S
C1928 C1929 1.391 . S
C1929 H1917 0.950 . S
C1929 C1925 1.393 . S
C1929 C1928 1.391 . S
C1930 H1920 0.950 . S
C1930 C1931 1.386 . S
C1930 C1932 1.391 . S
C1931 C1930 1.386 . S
C1931 C1935 1.393 . S
C1932 H1921 0.950 . S
C1932 C1930 1.391 . S
C1932 C1933 1.400 . S
C1933 C1927 1.491 . S
C1933 C1932 1.400 . S
C1933 C1934 1.398 . S
C1934 H1922 0.950 . S
C1934 C1933 1.398 . S
C1934 C1935 1.391 . S
C1935 H1923 0.950 . S
C1935 C1931 1.393 . S
C1935 C1934 1.391 . S
H1936 C1944 0.950 . S
H1937 C1949 0.950 . S
H1938 C1946 0.950 . S
H1939 C1948 0.950 . S
H1940 C1950 0.950 . S
H1941 C1952 0.950 . S
H1942 C1954 0.950 . S
H1943 C1955 0.950 . S
C1944 H1936 0.950 . S
C1944 C1945 1.386 . S
C1944 C1946 1.391 . S
C1945 C1944 1.386 . S
C1945 C1949 1.393 . S
C1946 H1938 0.950 . S
C1946 C1944 1.391 . S
C1946 C1947 1.400 . S
C1947 C1946 1.400 . S
C1947 C1948 1.398 . S
C1947 C1953 1.491 . S
C1948 H1939 0.950 . S
C1948 C1947 1.398 . S
C1948 C1949 1.391 . S
C1949 H1937 0.950 . S
C1949 C1945 1.393 . S
C1949 C1948 1.391 . S
C1950 H1940 0.950 . S
C1950 C1951 1.386 . S
C1950 C1952 1.391 . S
C1951 C1950 1.386 . S
C1951 C1955 1.393 . S
C1952 H1941 0.950 . S
C1952 C1950 1.391 . S
C1952 C1953 1.400 . S
C1953 C1947 1.491 . S
C1953 C1952 1.400 . S
C1953 C1954 1.398 . S
C1954 H1942 0.950 . S
C1954 C1953 1.398 . S
C1954 C1955 1.391 . S
C1955 H1943 0.950 . S
C1955 C1951 1.393 . S
C1955 C1954 1.391 . S
H1956 C1964 0.950 . S
H1957 C1969 0.950 . S
H1958 C1966 0.950 . S
H1959 C1968 0.950 . S
H1960 C1970 0.950 . S
H1961 C1972 0.950 . S
H1962 C1974 0.950 . S
H1963 C1975 0.950 . S
C1964 H1956 0.950 . S
C1964 C1965 1.386 . S
C1964 C1966 1.391 . S
C1965 C1964 1.386 . S
C1965 C1969 1.393 . S
C1966 H1958 0.950 . S
C1966 C1964 1.391 . S
C1966 C1967 1.400 . S
C1967 C1966 1.400 . S
C1967 C1968 1.398 . S
C1967 C1973 1.491 . S
C1968 H1959 0.950 . S
C1968 C1967 1.398 . S
C1968 C1969 1.391 . S
C1969 H1957 0.950 . S
C1969 C1965 1.393 . S
C1969 C1968 1.391 . S
C1970 H1960 0.950 . S
C1970 C1971 1.386 . S
C1970 C1972 1.391 . S
C1971 C1970 1.386 . S
C1971 C1975 1.393 . S
C1972 H1961 0.950 . S
C1972 C1970 1.391 . S
C1972 C1973 1.400 . S
C1973 C1967 1.491 . S
C1973 C1972 1.400 . S
C1973 C1974 1.398 . S
C1974 H1962 0.950 . S
C1974 C1973 1.398 . S
C1974 C1975 1.391 . S
C1975 H1963 0.950 . S
C1975 C1971 1.393 . S
C1975 C1974 1.391 . S
H1976 C1984 0.950 . S
H1977 C1989 0.950 . S
H1978 C1986 0.950 . S
H1979 C1988 0.950 . S
H1980 C1990 0.950 . S
H1981 C1992 0.950 . S
H1982 C1994 0.950 . S
H1983 C1995 0.950 . S
C1984 H1976 0.950 . S
C1984 C1985 1.386 . S
C1984 C1986 1.391 . S
C1985 C1984 1.386 . S
C1985 C1989 1.393 . S
C1986 H1978 0.950 . S
C1986 C1984 1.391 . S
C1986 C1987 1.400 . S
C1987 C1986 1.400 . S
C1987 C1988 1.398 . S
C1987 C1993 1.491 . S
C1988 H1979 0.950 . S
C1988 C1987 1.398 . S
C1988 C1989 1.391 . S
C1989 H1977 0.950 . S
C1989 C1985 1.393 . S
C1989 C1988 1.391 . S
C1990 H1980 0.950 . S
C1990 C1991 1.386 . S
C1990 C1992 1.391 . S
C1991 C1990 1.386 . S
C1991 C1995 1.393 . S
C1992 H1981 0.950 . S
C1992 C1990 1.391 . S
C1992 C1993 1.400 . S
C1993 C1987 1.491 . S
C1993 C1992 1.400 . S
C1993 C1994 1.398 . S
C1994 H1982 0.950 . S
C1994 C1993 1.398 . S
C1994 C1995 1.391 . S
C1995 H1983 0.950 . S
C1995 C1991 1.393 . S
C1995 C1994 1.391 . S
H1996 C2004 0.950 . S
H1997 C2009 0.950 . S
H1998 C2006 0.950 . S
H1999 C2008 0.950 . S
H2000 C2010 0.950 . S
H2001 C2012 0.950 . S
H2002 C2014 0.950 . S
H2003 C2015 0.950 . S
C2004 H1996 0.950 . S
C2004 C2005 1.386 . S
C2004 C2006 1.391 . S
C2005 C2004 1.386 . S
C2005 C2009 1.393 . S
C2006 H1998 0.950 . S
C2006 C2004 1.391 . S
C2006 C2007 1.400 . S
C2007 C2006 1.400 . S
C2007 C2008 1.398 . S
C2007 C2013 1.491 . S
C2008 H1999 0.950 . S
C2008 C2007 1.398 . S
C2008 C2009 1.391 . S
C2009 H1997 0.950 . S
C2009 C2005 1.393 . S
C2009 C2008 1.391 . S
C2010 H2000 0.950 . S
C2010 C2011 1.386 . S
C2010 C2012 1.391 . S
C2011 C2010 1.386 . S
C2011 C2015 1.393 . S
C2012 H2001 0.950 . S
C2012 C2010 1.391 . S
C2012 C2013 1.400 . S
C2013 C2007 1.491 . S
C2013 C2012 1.400 . S
C2013 C2014 1.398 . S
C2014 H2002 0.950 . S
C2014 C2013 1.398 . S
C2014 C2015 1.391 . S
C2015 H2003 0.950 . S
C2015 C2011 1.393 . S
C2015 C2014 1.391 . S
H2016 C2024 0.950 . S
H2017 C2029 0.950 . S
H2018 C2026 0.950 . S
H2019 C2028 0.950 . S
H2020 C2030 0.950 . S
H2021 C2032 0.950 . S
H2022 C2034 0.950 . S
H2023 C2035 0.950 . S
C2024 H2016 0.950 . S
C2024 C2025 1.386 . S
C2024 C2026 1.391 . S
C2025 C2024 1.386 . S
C2025 C2029 1.393 . S
C2026 H2018 0.950 . S
C2026 C2024 1.391 . S
C2026 C2027 1.400 . S
C2027 C2026 1.400 . S
C2027 C2028 1.398 . S
C2027 C2033 1.491 . S
C2028 H2019 0.950 . S
C2028 C2027 1.398 . S
C2028 C2029 1.391 . S
C2029 H2017 0.950 . S
C2029 C2025 1.393 . S
C2029 C2028 1.391 . S
C2030 H2020 0.950 . S
C2030 C2031 1.386 . S
C2030 C2032 1.391 . S
C2031 C2030 1.386 . S
C2031 C2035 1.393 . S
C2032 H2021 0.950 . S
C2032 C2030 1.391 . S
C2032 C2033 1.400 . S
C2033 C2027 1.491 . S
C2033 C2032 1.400 . S
C2033 C2034 1.398 . S
C2034 H2022 0.950 . S
C2034 C2033 1.398 . S
C2034 C2035 1.391 . S
C2035 H2023 0.950 . S
C2035 C2031 1.393 . S
C2035 C2034 1.391 . S
H2036 C2044 0.950 . S
H2037 C2049 0.950 . S
H2038 C2046 0.950 . S
H2039 C2048 0.950 . S
H2040 C2050 0.950 . S
H2041 C2052 0.950 . S
H2042 C2054 0.950 . S
H2043 C2055 0.950 . S
C2044 H2036 0.950 . S
C2044 C2045 1.386 . S
C2044 C2046 1.391 . S
C2045 C2044 1.386 . S
C2045 C2049 1.393 . S
C2046 H2038 0.950 . S
C2046 C2044 1.391 . S
C2046 C2047 1.400 . S
C2047 C2046 1.400 . S
C2047 C2048 1.398 . S
C2047 C2053 1.491 . S
C2048 H2039 0.950 . S
C2048 C2047 1.398 . S
C2048 C2049 1.391 . S
C2049 H2037 0.950 . S
C2049 C2045 1.393 . S
C2049 C2048 1.391 . S
C2050 H2040 0.950 . S
C2050 C2051 1.386 . S
C2050 C2052 1.391 . S
C2051 C2050 1.386 . S
C2051 C2055 1.393 . S
C2052 H2041 0.950 . S
C2052 C2050 1.391 . S
C2052 C2053 1.400 . S
C2053 C2047 1.491 . S
C2053 C2052 1.400 . S
C2053 C2054 1.398 . S
C2054 H2042 0.950 . S
C2054 C2053 1.398 . S
C2054 C2055 1.391 . S
C2055 H2043 0.950 . S
C2055 C2051 1.393 . S
C2055 C2054 1.391 . S
H2056 C2064 0.950 . S
H2057 C2069 0.950 . S
H2058 C2066 0.950 . S
H2059 C2068 0.950 . S
H2060 C2070 0.950 . S
H2061 C2072 0.950 . S
H2062 C2074 0.950 . S
H2063 C2075 0.950 . S
C2064 H2056 0.950 . S
C2064 C2065 1.386 . S
C2064 C2066 1.391 . S
C2065 C2064 1.386 . S
C2065 C2069 1.393 . S
C2066 H2058 0.950 . S
C2066 C2064 1.391 . S
C2066 C2067 1.400 . S
C2067 C2066 1.400 . S
C2067 C2068 1.398 . S
C2067 C2073 1.491 . S
C2068 H2059 0.950 . S
C2068 C2067 1.398 . S
C2068 C2069 1.391 . S
C2069 H2057 0.950 . S
C2069 C2065 1.393 . S
C2069 C2068 1.391 . S
C2070 H2060 0.950 . S
C2070 C2071 1.386 . S
C2070 C2072 1.391 . S
C2071 C2070 1.386 . S
C2071 C2075 1.393 . S
C2072 H2061 0.950 . S
C2072 C2070 1.391 . S
C2072 C2073 1.400 . S
C2073 C2067 1.491 . S
C2073 C2072 1.400 . S
C2073 C2074 1.398 . S
C2074 H2062 0.950 . S
C2074 C2073 1.398 . S
C2074 C2075 1.391 . S
C2075 H2063 0.950 . S
C2075 C2071 1.393 . S
C2075 C2074 1.391 . S
H2076 C2084 0.950 . S
H2077 C2089 0.950 . S
H2078 C2086 0.950 . S
H2079 C2088 0.950 . S
H2080 C2090 0.950 . S
H2081 C2092 0.950 . S
H2082 C2094 0.950 . S
H2083 C2095 0.950 . S
C2084 H2076 0.950 . S
C2084 C2085 1.386 . S
C2084 C2086 1.391 . S
C2085 C2084 1.386 . S
C2085 C2089 1.393 . S
C2086 H2078 0.950 . S
C2086 C2084 1.391 . S
C2086 C2087 1.400 . S
C2087 C2086 1.400 . S
C2087 C2088 1.398 . S
C2087 C2093 1.491 . S
C2088 H2079 0.950 . S
C2088 C2087 1.398 . S
C2088 C2089 1.391 . S
C2089 H2077 0.950 . S
C2089 C2085 1.393 . S
C2089 C2088 1.391 . S
C2090 H2080 0.950 . S
C2090 C2091 1.386 . S
C2090 C2092 1.391 . S
C2091 C2090 1.386 . S
C2091 C2095 1.393 . S
C2092 H2081 0.950 . S
C2092 C2090 1.391 . S
C2092 C2093 1.400 . S
C2093 C2087 1.491 . S
C2093 C2092 1.400 . S
C2093 C2094 1.398 . S
C2094 H2082 0.950 . S
C2094 C2093 1.398 . S
C2094 C2095 1.391 . S
C2095 H2083 0.950 . S
C2095 C2091 1.393 . S
C2095 C2094 1.391 . S
H2096 C2104 0.950 . S
H2097 C2109 0.950 . S
H2098 C2106 0.950 . S
H2099 C2108 0.950 . S
H2100 C2110 0.950 . S
H2101 C2112 0.950 . S
H2102 C2114 0.950 . S
H2103 C2115 0.950 . S
C2104 H2096 0.950 . S
C2104 C2105 1.386 . S
C2104 C2106 1.391 . S
C2105 C2104 1.386 . S
C2105 C2109 1.393 . S
C2106 H2098 0.950 . S
C2106 C2104 1.391 . S
C2106 C2107 1.400 . S
C2107 C2106 1.400 . S
C2107 C2108 1.398 . S
C2107 C2113 1.491 . S
C2108 H2099 0.950 . S
C2108 C2107 1.398 . S
C2108 C2109 1.391 . S
C2109 H2097 0.950 . S
C2109 C2105 1.393 . S
C2109 C2108 1.391 . S
C2110 H2100 0.950 . S
C2110 C2111 1.386 . S
C2110 C2112 1.391 . S
C2111 C2110 1.386 . S
C2111 C2115 1.393 . S
C2112 H2101 0.950 . S
C2112 C2110 1.391 . S
C2112 C2113 1.400 . S
C2113 C2107 1.491 . S
C2113 C2112 1.400 . S
C2113 C2114 1.398 . S
C2114 H2102 0.950 . S
C2114 C2113 1.398 . S
C2114 C2115 1.391 . S
C2115 H2103 0.950 . S
C2115 C2111 1.393 . S
C2115 C2114 1.391 . S
H2116 C2124 0.950 . S
H2117 C2129 0.950 . S
H2118 C2126 0.950 . S
H2119 C2128 0.950 . S
H2120 C2130 0.950 . S
H2121 C2132 0.950 . S
H2122 C2134 0.950 . S
H2123 C2135 0.950 . S
C2124 H2116 0.950 . S
C2124 C2125 1.386 . S
C2124 C2126 1.391 . S
C2125 C2124 1.386 . S
C2125 C2129 1.393 . S
C2126 H2118 0.950 . S
C2126 C2124 1.391 . S
C2126 C2127 1.400 . S
C2127 C2126 1.400 . S
C2127 C2128 1.398 . S
C2127 C2133 1.491 . S
C2128 H2119 0.950 . S
C2128 C2127 1.398 . S
C2128 C2129 1.391 . S
C2129 H2117 0.950 . S
C2129 C2125 1.393 . S
C2129 C2128 1.391 . S
C2130 H2120 0.950 . S
C2130 C2131 1.386 . S
C2130 C2132 1.391 . S
C2131 C2130 1.386 . S
C2131 C2135 1.393 . S
C2132 H2121 0.950 . S
C2132 C2130 1.391 . S
C2132 C2133 1.400 . S
C2133 C2127 1.491 . S
C2133 C2132 1.400 . S
C2133 C2134 1.398 . S
C2134 H2122 0.950 . S
C2134 C2133 1.398 . S
C2134 C2135 1.391 . S
C2135 H2123 0.950 . S
C2135 C2131 1.393 . S
C2135 C2134 1.391 . S
H2136 C2144 0.950 . S
H2137 C2149 0.950 . S
H2138 C2146 0.950 . S
H2139 C2148 0.950 . S
H2140 C2150 0.950 . S
H2141 C2152 0.950 . S
H2142 C2154 0.950 . S
H2143 C2155 0.950 . S
C2144 H2136 0.950 . S
C2144 C2145 1.386 . S
C2144 C2146 1.391 . S
C2145 C2144 1.386 . S
C2145 C2149 1.393 . S
C2146 H2138 0.950 . S
C2146 C2144 1.391 . S
C2146 C2147 1.400 . S
C2147 C2146 1.400 . S
C2147 C2148 1.398 . S
C2147 C2153 1.491 . S
C2148 H2139 0.950 . S
C2148 C2147 1.398 . S
C2148 C2149 1.391 . S
C2149 H2137 0.950 . S
C2149 C2145 1.393 . S
C2149 C2148 1.391 . S
C2150 H2140 0.950 . S
C2150 C2151 1.386 . S
C2150 C2152 1.391 . S
C2151 C2150 1.386 . S
C2151 C2155 1.393 . S
C2152 H2141 0.950 . S
C2152 C2150 1.391 . S
C2152 C2153 1.400 . S
C2153 C2147 1.491 . S
C2153 C2152 1.400 . S
C2153 C2154 1.398 . S
C2154 H2142 0.950 . S
C2154 C2153 1.398 . S
C2154 C2155 1.391 . S
C2155 H2143 0.950 . S
C2155 C2151 1.393 . S
C2155 C2154 1.391 . S
H2156 C2164 0.950 . S
H2157 C2169 0.950 . S
H2158 C2166 0.950 . S
H2159 C2168 0.950 . S
H2160 C2170 0.950 . S
H2161 C2172 0.950 . S
H2162 C2174 0.950 . S
H2163 C2175 0.950 . S
C2164 H2156 0.950 . S
C2164 C2165 1.386 . S
C2164 C2166 1.391 . S
C2165 C2164 1.386 . S
C2165 C2169 1.393 . S
C2166 H2158 0.950 . S
C2166 C2164 1.391 . S
C2166 C2167 1.400 . S
C2167 C2166 1.400 . S
C2167 C2168 1.398 . S
C2167 C2173 1.491 . S
C2168 H2159 0.950 . S
C2168 C2167 1.398 . S
C2168 C2169 1.391 . S
C2169 H2157 0.950 . S
C2169 C2165 1.393 . S
C2169 C2168 1.391 . S
C2170 H2160 0.950 . S
C2170 C2171 1.386 . S
C2170 C2172 1.391 . S
C2171 C2170 1.386 . S
C2171 C2175 1.393 . S
C2172 H2161 0.950 . S
C2172 C2170 1.391 . S
C2172 C2173 1.400 . S
C2173 C2167 1.491 . S
C2173 C2172 1.400 . S
C2173 C2174 1.398 . S
C2174 H2162 0.950 . S
C2174 C2173 1.398 . S
C2174 C2175 1.391 . S
C2175 H2163 0.950 . S
C2175 C2171 1.393 . S
C2175 C2174 1.391 . S
H2176 C2184 0.950 . S
H2177 C2189 0.950 . S
H2178 C2186 0.950 . S
H2179 C2188 0.950 . S
H2180 C2190 0.950 . S
H2181 C2192 0.950 . S
H2182 C2194 0.950 . S
H2183 C2195 0.950 . S
C2184 H2176 0.950 . S
C2184 C2185 1.386 . S
C2184 C2186 1.391 . S
C2185 C2184 1.386 . S
C2185 C2189 1.393 . S
C2186 H2178 0.950 . S
C2186 C2184 1.391 . S
C2186 C2187 1.400 . S
C2187 C2186 1.400 . S
C2187 C2188 1.398 . S
C2187 C2193 1.491 . S
C2188 H2179 0.950 . S
C2188 C2187 1.398 . S
C2188 C2189 1.391 . S
C2189 H2177 0.950 . S
C2189 C2185 1.393 . S
C2189 C2188 1.391 . S
C2190 H2180 0.950 . S
C2190 C2191 1.386 . S
C2190 C2192 1.391 . S
C2191 C2190 1.386 . S
C2191 C2195 1.393 . S
C2192 H2181 0.950 . S
C2192 C2190 1.391 . S
C2192 C2193 1.400 . S
C2193 C2187 1.491 . S
C2193 C2192 1.400 . S
C2193 C2194 1.398 . S
C2194 H2182 0.950 . S
C2194 C2193 1.398 . S
C2194 C2195 1.391 . S
C2195 H2183 0.950 . S
C2195 C2191 1.393 . S
C2195 C2194 1.391 . S
H2196 C2204 0.950 . S
H2197 C2209 0.950 . S
H2198 C2206 0.950 . S
H2199 C2208 0.950 . S
H2200 C2210 0.950 . S
H2201 C2212 0.950 . S
H2202 C2214 0.950 . S
H2203 C2215 0.950 . S
C2204 H2196 0.950 . S
C2204 C2205 1.386 . S
C2204 C2206 1.391 . S
C2205 C2204 1.386 . S
C2205 C2209 1.393 . S
C2206 H2198 0.950 . S
C2206 C2204 1.391 . S
C2206 C2207 1.400 . S
C2207 C2206 1.400 . S
C2207 C2208 1.398 . S
C2207 C2213 1.491 . S
C2208 H2199 0.950 . S
C2208 C2207 1.398 . S
C2208 C2209 1.391 . S
C2209 H2197 0.950 . S
C2209 C2205 1.393 . S
C2209 C2208 1.391 . S
C2210 H2200 0.950 . S
C2210 C2211 1.386 . S
C2210 C2212 1.391 . S
C2211 C2210 1.386 . S
C2211 C2215 1.393 . S
C2212 H2201 0.950 . S
C2212 C2210 1.391 . S
C2212 C2213 1.400 . S
C2213 C2207 1.491 . S
C2213 C2212 1.400 . S
C2213 C2214 1.398 . S
C2214 H2202 0.950 . S
C2214 C2213 1.398 . S
C2214 C2215 1.391 . S
C2215 H2203 0.950 . S
C2215 C2211 1.393 . S
C2215 C2214 1.391 . S
H2216 C2224 0.950 . S
H2217 C2229 0.950 . S
H2218 C2226 0.950 . S
H2219 C2228 0.950 . S
H2220 C2230 0.950 . S
H2221 C2232 0.950 . S
H2222 C2234 0.950 . S
H2223 C2235 0.950 . S
C2224 H2216 0.950 . S
C2224 C2225 1.386 . S
C2224 C2226 1.391 . S
C2225 C2224 1.386 . S
C2225 C2229 1.393 . S
C2226 H2218 0.950 . S
C2226 C2224 1.391 . S
C2226 C2227 1.400 . S
C2227 C2226 1.400 . S
C2227 C2228 1.398 . S
C2227 C2233 1.491 . S
C2228 H2219 0.950 . S
C2228 C2227 1.398 . S
C2228 C2229 1.391 . S
C2229 H2217 0.950 . S
C2229 C2225 1.393 . S
C2229 C2228 1.391 . S
C2230 H2220 0.950 . S
C2230 C2231 1.386 . S
C2230 C2232 1.391 . S
C2231 C2230 1.386 . S
C2231 C2235 1.393 . S
C2232 H2221 0.950 . S
C2232 C2230 1.391 . S
C2232 C2233 1.400 . S
C2233 C2227 1.491 . S
C2233 C2232 1.400 . S
C2233 C2234 1.398 . S
C2234 H2222 0.950 . S
C2234 C2233 1.398 . S
C2234 C2235 1.391 . S
C2235 H2223 0.950 . S
C2235 C2231 1.393 . S
C2235 C2234 1.391 . S
H2236 C2244 0.950 . S
H2237 C2249 0.950 . S
H2238 C2246 0.950 . S
H2239 C2248 0.950 . S
H2240 C2250 0.950 . S
H2241 C2252 0.950 . S
H2242 C2254 0.950 . S
H2243 C2255 0.950 . S
C2244 H2236 0.950 . S
C2244 C2245 1.386 . S
C2244 C2246 1.391 . S
C2245 C2244 1.386 . S
C2245 C2249 1.393 . S
C2246 H2238 0.950 . S
C2246 C2244 1.391 . S
C2246 C2247 1.400 . S
C2247 C2246 1.400 . S
C2247 C2248 1.398 . S
C2247 C2253 1.491 . S
C2248 H2239 0.950 . S
C2248 C2247 1.398 . S
C2248 C2249 1.391 . S
C2249 H2237 0.950 . S
C2249 C2245 1.393 . S
C2249 C2248 1.391 . S
C2250 H2240 0.950 . S
C2250 C2251 1.386 . S
C2250 C2252 1.391 . S
C2251 C2250 1.386 . S
C2251 C2255 1.393 . S
C2252 H2241 0.950 . S
C2252 C2250 1.391 . S
C2252 C2253 1.400 . S
C2253 C2247 1.491 . S
C2253 C2252 1.400 . S
C2253 C2254 1.398 . S
C2254 H2242 0.950 . S
C2254 C2253 1.398 . S
C2254 C2255 1.391 . S
C2255 H2243 0.950 . S
C2255 C2251 1.393 . S
C2255 C2254 1.391 . S
H2256 C2264 0.950 . S
H2257 C2269 0.950 . S
H2258 C2266 0.950 . S
H2259 C2268 0.950 . S
H2260 C2270 0.950 . S
H2261 C2272 0.950 . S
H2262 C2274 0.950 . S
H2263 C2275 0.950 . S
C2264 H2256 0.950 . S
C2264 C2265 1.386 . S
C2264 C2266 1.391 . S
C2265 C2264 1.386 . S
C2265 C2269 1.393 . S
C2266 H2258 0.950 . S
C2266 C2264 1.391 . S
C2266 C2267 1.400 . S
C2267 C2266 1.400 . S
C2267 C2268 1.398 . S
C2267 C2273 1.491 . S
C2268 H2259 0.950 . S
C2268 C2267 1.398 . S
C2268 C2269 1.391 . S
C2269 H2257 0.950 . S
C2269 C2265 1.393 . S
C2269 C2268 1.391 . S
C2270 H2260 0.950 . S
C2270 C2271 1.386 . S
C2270 C2272 1.391 . S
C2271 C2270 1.386 . S
C2271 C2275 1.393 . S
C2272 H2261 0.950 . S
C2272 C2270 1.391 . S
C2272 C2273 1.400 . S
C2273 C2267 1.491 . S
C2273 C2272 1.400 . S
C2273 C2274 1.398 . S
C2274 H2262 0.950 . S
C2274 C2273 1.398 . S
C2274 C2275 1.391 . S
C2275 H2263 0.950 . S
C2275 C2271 1.393 . S
C2275 C2274 1.391 . S
H2276 C2284 0.950 . S
H2277 C2289 0.950 . S
H2278 C2286 0.950 . S
H2279 C2288 0.950 . S
H2280 C2290 0.950 . S
H2281 C2292 0.950 . S
H2282 C2294 0.950 . S
H2283 C2295 0.950 . S
C2284 H2276 0.950 . S
C2284 C2285 1.386 . S
C2284 C2286 1.391 . S
C2285 C2284 1.386 . S
C2285 C2289 1.393 . S
C2286 H2278 0.950 . S
C2286 C2284 1.391 . S
C2286 C2287 1.400 . S
C2287 C2286 1.400 . S
C2287 C2288 1.398 . S
C2287 C2293 1.491 . S
C2288 H2279 0.950 . S
C2288 C2287 1.398 . S
C2288 C2289 1.391 . S
C2289 H2277 0.950 . S
C2289 C2285 1.393 . S
C2289 C2288 1.391 . S
C2290 H2280 0.950 . S
C2290 C2291 1.386 . S
C2290 C2292 1.391 . S
C2291 C2290 1.386 . S
C2291 C2295 1.393 . S
C2292 H2281 0.950 . S
C2292 C2290 1.391 . S
C2292 C2293 1.400 . S
C2293 C2287 1.491 . S
C2293 C2292 1.400 . S
C2293 C2294 1.398 . S
C2294 H2282 0.950 . S
C2294 C2293 1.398 . S
C2294 C2295 1.391 . S
C2295 H2283 0.950 . S
C2295 C2291 1.393 . S
C2295 C2294 1.391 . S
H2296 C2304 0.950 . S
H2297 C2309 0.950 . S
H2298 C2306 0.950 . S
H2299 C2308 0.950 . S
H2300 C2310 0.950 . S
H2301 C2312 0.950 . S
H2302 C2314 0.950 . S
H2303 C2315 0.950 . S
C2304 H2296 0.950 . S
C2304 C2305 1.386 . S
C2304 C2306 1.391 . S
C2305 C2304 1.386 . S
C2305 C2309 1.393 . S
C2306 H2298 0.950 . S
C2306 C2304 1.391 . S
C2306 C2307 1.400 . S
C2307 C2306 1.400 . S
C2307 C2308 1.398 . S
C2307 C2313 1.491 . S
C2308 H2299 0.950 . S
C2308 C2307 1.398 . S
C2308 C2309 1.391 . S
C2309 H2297 0.950 . S
C2309 C2305 1.393 . S
C2309 C2308 1.391 . S
C2310 H2300 0.950 . S
C2310 C2311 1.386 . S
C2310 C2312 1.391 . S
C2311 C2310 1.386 . S
C2311 C2315 1.393 . S
C2312 H2301 0.950 . S
C2312 C2310 1.391 . S
C2312 C2313 1.400 . S
C2313 C2307 1.491 . S
C2313 C2312 1.400 . S
C2313 C2314 1.398 . S
C2314 H2302 0.950 . S
C2314 C2313 1.398 . S
C2314 C2315 1.391 . S
C2315 H2303 0.950 . S
C2315 C2311 1.393 . S
C2315 C2314 1.391 . S
H2316 C2324 0.950 . S
H2317 C2329 0.950 . S
H2318 C2326 0.950 . S
H2319 C2328 0.950 . S
H2320 C2330 0.950 . S
H2321 C2332 0.950 . S
H2322 C2334 0.950 . S
H2323 C2335 0.950 . S
C2324 H2316 0.950 . S
C2324 C2325 1.386 . S
C2324 C2326 1.391 . S
C2325 C2324 1.386 . S
C2325 C2329 1.393 . S
C2326 H2318 0.950 . S
C2326 C2324 1.391 . S
C2326 C2327 1.400 . S
C2327 C2326 1.400 . S
C2327 C2328 1.398 . S
C2327 C2333 1.491 . S
C2328 H2319 0.950 . S
C2328 C2327 1.398 . S
C2328 C2329 1.391 . S
C2329 H2317 0.950 . S
C2329 C2325 1.393 . S
C2329 C2328 1.391 . S
C2330 H2320 0.950 . S
C2330 C2331 1.386 . S
C2330 C2332 1.391 . S
C2331 C2330 1.386 . S
C2331 C2335 1.393 . S
C2332 H2321 0.950 . S
C2332 C2330 1.391 . S
C2332 C2333 1.400 . S
C2333 C2327 1.491 . S
C2333 C2332 1.400 . S
C2333 C2334 1.398 . S
C2334 H2322 0.950 . S
C2334 C2333 1.398 . S
C2334 C2335 1.391 . S
C2335 H2323 0.950 . S
C2335 C2331 1.393 . S
C2335 C2334 1.391 . S
H2336 C2344 0.950 . S
H2337 C2349 0.950 . S
H2338 C2346 0.950 . S
H2339 C2348 0.950 . S
H2340 C2350 0.950 . S
H2341 C2352 0.950 . S
H2342 C2354 0.950 . S
H2343 C2355 0.950 . S
C2344 H2336 0.950 . S
C2344 C2345 1.386 . S
C2344 C2346 1.391 . S
C2345 C2344 1.386 . S
C2345 C2349 1.393 . S
C2346 H2338 0.950 . S
C2346 C2344 1.391 . S
C2346 C2347 1.400 . S
C2347 C2346 1.400 . S
C2347 C2348 1.398 . S
C2347 C2353 1.491 . S
C2348 H2339 0.950 . S
C2348 C2347 1.398 . S
C2348 C2349 1.391 . S
C2349 H2337 0.950 . S
C2349 C2345 1.393 . S
C2349 C2348 1.391 . S
C2350 H2340 0.950 . S
C2350 C2351 1.386 . S
C2350 C2352 1.391 . S
C2351 C2350 1.386 . S
C2351 C2355 1.393 . S
C2352 H2341 0.950 . S
C2352 C2350 1.391 . S
C2352 C2353 1.400 . S
C2353 C2347 1.491 . S
C2353 C2352 1.400 . S
C2353 C2354 1.398 . S
C2354 H2342 0.950 . S
C2354 C2353 1.398 . S
C2354 C2355 1.391 . S
C2355 H2343 0.950 . S
C2355 C2351 1.393 . S
C2355 C2354 1.391 . S
H2356 C2364 0.950 . S
H2357 C2369 0.950 . S
H2358 C2366 0.950 . S
H2359 C2368 0.950 . S
H2360 C2370 0.950 . S
H2361 C2372 0.950 . S
H2362 C2374 0.950 . S
H2363 C2375 0.950 . S
C2364 H2356 0.950 . S
C2364 C2365 1.386 . S
C2364 C2366 1.391 . S
C2365 C2364 1.386 . S
C2365 C2369 1.393 . S
C2366 H2358 0.950 . S
C2366 C2364 1.391 . S
C2366 C2367 1.400 . S
C2367 C2366 1.400 . S
C2367 C2368 1.398 . S
C2367 C2373 1.491 . S
C2368 H2359 0.950 . S
C2368 C2367 1.398 . S
C2368 C2369 1.391 . S
C2369 H2357 0.950 . S
C2369 C2365 1.393 . S
C2369 C2368 1.391 . S
C2370 H2360 0.950 . S
C2370 C2371 1.386 . S
C2370 C2372 1.391 . S
C2371 C2370 1.386 . S
C2371 C2375 1.393 . S
C2372 H2361 0.950 . S
C2372 C2370 1.391 . S
C2372 C2373 1.400 . S
C2373 C2367 1.491 . S
C2373 C2372 1.400 . S
C2373 C2374 1.398 . S
C2374 H2362 0.950 . S
C2374 C2373 1.398 . S
C2374 C2375 1.391 . S
C2375 H2363 0.950 . S
C2375 C2371 1.393 . S
C2375 C2374 1.391 . S
C705 C8 1.179 . S
C711 C166 1.129 . S
C725 C37 1.161 . S
C731 C21 1.114 . S
C745 C66 1.159 . S
C751 C50 1.111 . S
C765 C79 1.120 . S
C771 C95 1.178 . S
C785 C124 1.179 . S
C791 C108 1.130 . S
C805 C153 1.158 . S
C811 C137 1.108 . S
C825 C224 1.089 . S
C831 C182 1.153 . S
C845 C253 1.105 . S
C851 C211 1.172 . S
C865 C282 1.097 . S
C871 C240 1.167 . S
C885 C269 1.153 . S
C891 C311 1.088 . S
C905 C340 1.090 . S
C911 C298 1.161 . S
C925 C327 1.178 . S
C931 C195 1.132 . S
C945 C514 1.106 . S
C951 C356 1.172 . S
C965 C369 1.093 . S
C971 C385 1.153 . S
C985 C414 1.154 . S
C991 C398 1.086 . S
C1005 C443 1.156 . S
C1011 C427 1.104 . S
C1025 C472 1.166 . S
C1031 C456 1.095 . S
C1045 C501 1.174 . S
C1051 C485 1.109 . S
C1065 C572 1.130 . S
C1071 C530 1.179 . S
C1085 C601 1.087 . S
C1091 C559 1.153 . S
C1105 C588 1.153 . S
C1111 C630 1.086 . S
C1125 C617 1.158 . S
C1131 C659 1.108 . S
C1145 C646 1.153 . S
C1151 C688 1.090 . S
C1165 C543 1.132 . S
C1171 C675 1.178 . S
C1185 C10 1.408 . S
C1191 C445 1.438 . S
C1205 C39 1.421 . S
C1211 C474 1.425 . S
C1225 C68 1.410 . S
C1231 C503 1.437 . S
C1245 C358 1.413 . S
C1251 C97 1.433 . S
C1265 C126 1.427 . S
C1271 C387 1.419 . S
C1285 C155 1.434 . S
C1291 C416 1.412 . S
C1305 C619 1.416 . S
C1311 C184 1.430 . S
C1325 C648 1.434 . S
C1331 C213 1.412 . S
C1345 C677 1.416 . S
C1351 C242 1.431 . S
C1365 C532 1.432 . S
C1371 C271 1.414 . S
C1385 C300 1.408 . S
C1391 C561 1.438 . S
C1405 C329 1.436 . S
C1411 C590 1.409 . S
C1425 C5 1.439 . S
C1431 C237 1.429 . S
C1445 C34 1.427 . S
C1451 C266 1.419 . S
C1465 C63 1.434 . S
C1471 C295 1.424 . S
C1485 C92 1.437 . S
C1491 C324 1.427 . S
C1505 C121 1.427 . S
C1511 C179 1.419 . S
C1525 C150 1.418 . S
C1531 C208 1.421 . S
C1545 C585 1.422 . S
C1551 C353 1.418 . S
C1565 C382 1.426 . S
C1571 C614 1.419 . S
C1585 C643 1.439 . S
C1591 C411 1.440 . S
C1605 C440 1.427 . S
C1611 C672 1.419 . S
C1625 C469 1.435 . S
C1631 C527 1.424 . S
C1645 C498 1.425 . S
C1651 C556 1.418 . S
C1665 C15 1.175 . S
C1671 C102 1.152 . S
C1685 C131 1.157 . S
C1691 C44 1.175 . S
C1705 C73 1.149 . S
C1711 C160 1.174 . S
C1725 C276 1.159 . S
C1731 C189 1.145 . S
C1745 C305 1.143 . S
C1751 C218 1.166 . S
C1765 C247 1.143 . S
C1771 C334 1.166 . S
C1785 C450 1.170 . S
C1791 C363 1.166 . S
C1805 C479 1.145 . S
C1811 C392 1.159 . S
C1825 C421 1.144 . S
C1831 C508 1.162 . S
C1845 C624 1.155 . S
C1851 C537 1.175 . S
C1865 C566 1.156 . S
C1871 C653 1.175 . S
C1885 C682 1.146 . S
C1891 C595 1.172 . S
C1905 C61 2.228 . S
C1911 C13 2.149 . S
C1925 C42 2.151 . S
C1931 C90 2.228 . S
C1945 C119 2.235 . S
C1951 C71 2.149 . S
C1965 C148 2.228 . S
C1971 C100 2.149 . S
C1985 C129 2.167 . S
C1991 C3 2.244 . S
C2005 C158 2.167 . S
C2011 C32 2.244 . S
C2025 C187 2.167 . S
C2031 C293 2.234 . S
C2045 C322 2.241 . S
C2051 C216 2.157 . S
C2065 C177 2.233 . S
C2071 C245 2.165 . S
C2085 C274 2.152 . S
C2091 C206 2.237 . S
C2105 C303 2.150 . S
C2111 C235 2.236 . S
C2125 C332 2.152 . S
C2131 C264 2.228 . S
C2145 C361 2.165 . S
C2151 C409 2.233 . S
C2165 C390 2.159 . S
C2171 C438 2.242 . S
C2185 C419 2.169 . S
C2191 C467 2.236 . S
C2205 C496 2.232 . S
C2211 C448 2.164 . S
C2225 C477 2.166 . S
C2231 C351 2.233 . S
C2245 C380 2.233 . S
C2251 C506 2.165 . S
C2265 C535 2.153 . S
C2271 C641 2.228 . S
C2285 C670 2.242 . S
C2291 C564 2.171 . S
C2305 C593 2.152 . S
C2311 C525 2.237 . S
C2325 C554 2.235 . S
C2331 C622 2.150 . S
C2345 C583 2.242 . S
C2351 C651 2.161 . S
C2365 C680 2.151 . S
C2371 C612 2.228 . S
