# Generated by pormake.
# Topology smc, (6)-cn, num edge types: 1
# Building blocks:
#     Node 0, Type 0, BuildingBlock: JUFBIX_clean_sbu_0, # of connection points: 6
#     Node 1, Type 0, BuildingBlock: JUFBIX_clean_sbu_0, # of connection points: 6
#     Node 2, Type 0, BuildingBlock: JUFBIX_clean_sbu_0, # of connection points: 6
#     Node 3, Type 0, BuildingBlock: JUFBIX_clean_sbu_0, # of connection points: 6
#     Node 4, Type 0, BuildingBlock: JUFBIX_clean_sbu_0, # of connection points: 6
#     Node 5, Type 0, BuildingBlock: JUFBIX_clean_sbu_0, # of connection points: 6
#     Node 6, Type 0, BuildingBlock: JUFBIX_clean_sbu_0, # of connection points: 6
#     Node 7, Type 0, BuildingBlock: JUFBIX_clean_sbu_0, # of connection points: 6
#     Node 8, Type 0, BuildingBlock: JUFBIX_clean_sbu_0, # of connection points: 6
#     Edge 9, Type (0, 0), BuildingBlock: XIVTED_clean_linker_0, # of connection points: 2
#     Edge 10, Type (0, 0), BuildingBlock: XIVTED_clean_linker_0, # of connection points: 2
#     Edge 11, Type (0, 0), BuildingBlock: XIVTED_clean_linker_0, # of connection points: 2
#     Edge 12, Type (0, 0), BuildingBlock: XIVTED_clean_linker_0, # of connection points: 2
#     Edge 13, Type (0, 0), BuildingBlock: XIVTED_clean_linker_0, # of connection points: 2
#     Edge 14, Type (0, 0), BuildingBlock: XIVTED_clean_linker_0, # of connection points: 2
#     Edge 15, Type (0, 0), BuildingBlock: XIVTED_clean_linker_0, # of connection points: 2
#     Edge 16, Type (0, 0), BuildingBlock: XIVTED_clean_linker_0, # of connection points: 2
#     Edge 17, Type (0, 0), BuildingBlock: XIVTED_clean_linker_0, # of connection points: 2
#     Edge 18, Type (0, 0), BuildingBlock: XIVTED_clean_linker_0, # of connection points: 2
#     Edge 19, Type (0, 0), BuildingBlock: XIVTED_clean_linker_0, # of connection points: 2
#     Edge 20, Type (0, 0), BuildingBlock: XIVTED_clean_linker_0, # of connection points: 2
#     Edge 21, Type (0, 0), BuildingBlock: XIVTED_clean_linker_0, # of connection points: 2
#     Edge 22, Type (0, 0), BuildingBlock: XIVTED_clean_linker_0, # of connection points: 2
#     Edge 23, Type (0, 0), BuildingBlock: XIVTED_clean_linker_0, # of connection points: 2
#     Edge 24, Type (0, 0), BuildingBlock: XIVTED_clean_linker_0, # of connection points: 2
#     Edge 25, Type (0, 0), BuildingBlock: XIVTED_clean_linker_0, # of connection points: 2
#     Edge 26, Type (0, 0), BuildingBlock: XIVTED_clean_linker_0, # of connection points: 2
#     Edge 27, Type (0, 0), BuildingBlock: XIVTED_clean_linker_0, # of connection points: 2
#     Edge 28, Type (0, 0), BuildingBlock: XIVTED_clean_linker_0, # of connection points: 2
#     Edge 29, Type (0, 0), BuildingBlock: XIVTED_clean_linker_0, # of connection points: 2
#     Edge 30, Type (0, 0), BuildingBlock: XIVTED_clean_linker_0, # of connection points: 2
#     Edge 31, Type (0, 0), BuildingBlock: XIVTED_clean_linker_0, # of connection points: 2
#     Edge 32, Type (0, 0), BuildingBlock: XIVTED_clean_linker_0, # of connection points: 2
#     Edge 33, Type (0, 0), BuildingBlock: XIVTED_clean_linker_0, # of connection points: 2
#     Edge 34, Type (0, 0), BuildingBlock: XIVTED_clean_linker_0, # of connection points: 2
#     Edge 35, Type (0, 0), BuildingBlock: XIVTED_clean_linker_0, # of connection points: 2
# Relax obj value: 0.471
# Max RMSD: 0.315
# Mean RMSD: 0.306
data_MOF--net-smc--node1-JUFBIX_clean_sbu_0--edge1-XIVTED_clean_linker_0
_symmetry_space_group_name_H-M    P1
_symmetry_Int_Tables_number       1
_symmetry_cell_setting            triclinic
loop_
_symmetry_equiv_pos_as_xyz
'x, y, z'
_cell_length_a     29.365914
_cell_length_b     34.014492
_cell_length_c     40.984264
_cell_angle_alpha  89.647738
_cell_angle_beta   89.961712
_cell_angle_gamma 120.17594
loop_
_atom_site_label
_atom_site_type_symbol
_atom_site_fract_x
_atom_site_fract_y
_atom_site_fract_z
_atom_type_partial_charge
Co0 Co 0.07743 0.49935 1.01948 0.0
C1 C 0.02585 0.43429 0.97113 0.0
Co2 Co 0.02642 0.4306 0.03919 0.0
C3 C 0.12249 0.59639 1.00948 0.0
C4 C 0.15543 0.56711 0.97791 0.0
N5 N 0.12151 0.55709 1.003 0.0
N6 N 0.1551 0.63025 0.98905 0.0
C7 C 0.1762 0.61196 0.96937 0.0
H8 H 0.09795 0.59953 0.0278 0.0
H9 H 0.16318 0.54289 0.9658 0.0
C10 C 0.07835 0.49009 0.0883 0.0
N11 N 0.97893 0.372 0.05416 0.0
C12 C 0.92741 0.34874 0.04586 0.0
C13 C 0.98367 0.34657 0.07779 0.0
N14 N 0.89932 0.31039 0.06369 0.0
C15 C 0.93484 0.3086 0.08362 0.0
C16 C 0.13203 0.45348 0.02823 0.0
O17 O 0.10025 0.51901 0.06495 0.0
O18 O 0.04185 0.45034 0.08183 0.0
O19 O 0.0886 0.42074 0.03985 0.0
O20 O 0.13189 0.48753 1.01604 0.0
O21 O 1.01031 0.40891 0.9962 0.0
H22 H 1.01959 0.3561 0.091 0.0
H23 H 0.91051 0.36051 0.02748 0.0
O24 O 0.05505 0.47711 0.97505 0.0
O25 O 1.02341 0.51343 1.02283 0.0
O26 O 0.96847 0.4444 0.03932 0.0
C27 C 0.9774 0.48412 0.03174 0.0
H28 H 0.20433 0.6296 0.94993 0.0
H29 H 0.92587 0.28295 0.1022 0.0
Co30 Co 0.59964 0.54059 0.05646 0.0
C31 C 0.62146 0.60778 0.10267 0.0
Co32 Co 0.63143 0.60804 0.03501 0.0
C33 C 0.526 0.44706 0.06258 0.0
C34 C 0.58025 0.4696 0.10239 0.0
N35 N 0.56981 0.48333 0.07387 0.0
N36 N 0.50759 0.41132 0.08316 0.0
C37 C 0.54194 0.42512 0.10817 0.0
H38 H 0.50656 0.44785 0.0404 0.0
H39 H 0.6123 0.49108 0.11849 0.0
C40 C 0.61417 0.54505 0.98821 0.0
N41 N 0.66041 0.66617 1.01811 0.0
C42 C 0.64437 0.69608 1.02471 0.0
C43 C 0.69999 0.68761 0.99634 0.0
N44 N 0.67195 0.73535 1.00782 0.0
C45 C 0.70706 0.73016 0.98986 0.0
C46 C 0.7066 0.58194 0.05241 0.0
O47 O 0.60188 0.51793 1.01263 0.0
O48 O 0.62516 0.58557 0.9929 0.0
O49 O 0.70236 0.61354 0.03801 0.0
O50 O 0.66564 0.5486 0.06436 0.0
O51 O 0.63902 0.63233 0.07727 0.0
H52 H 0.72165 0.67297 0.98551 0.0
H53 H 0.61179 0.68849 0.0409 0.0
O54 O 0.59949 0.56476 0.09961 0.0
O55 O 0.53164 0.5303 0.04863 0.0
O56 O 0.55904 0.59938 0.0316 0.0
C57 C 0.52077 0.55949 0.03811 0.0
H58 H 0.5394 0.40485 0.12929 0.0
H59 H 0.73553 0.7551 0.97307 0.0
Co60 Co 0.45034 1.00487 1.00657 0.0
C61 C 0.43924 0.06441 0.9628 0.0
Co62 Co 0.40824 0.03732 1.02669 0.0
C63 C 0.51718 0.96464 1.00291 0.0
C64 C 0.48701 0.96955 0.95648 0.0
N65 N 0.48696 0.97915 0.98836 0.0
N66 N 0.53616 0.94651 0.98128 0.0
C67 C 0.51725 0.94968 0.95206 0.0
H68 H 0.52479 0.96704 0.02887 0.0
H69 H 0.46534 0.97556 0.93769 0.0
C70 C 0.41658 0.97872 0.0708 0.0
N71 N 0.36847 0.05977 0.04453 0.0
C72 C 0.37056 0.09958 0.03883 0.0
C73 C 0.32685 0.0367 0.06485 0.0
N74 N 0.33208 0.10224 0.05486 0.0
C75 C 0.30479 0.06303 0.07157 0.0
C76 C 0.3444 0.95426 0.99633 0.0
O77 O 0.43823 0.96971 0.04722 0.0
O78 O 0.40332 1.0084 0.06667 0.0
O79 O 0.3436 0.98506 1.01318 0.0
O80 O 0.38812 0.95744 0.9895 0.0
O81 O 0.41261 0.06684 0.9863 0.0
H82 H 0.31306 1.00264 0.07402 0.0
H83 H 0.40034 0.12645 1.02371 0.0
O84 O 0.46103 0.04035 0.96662 0.0
O85 O 0.51291 0.05195 1.02362 0.0
O86 O 0.47481 0.08973 0.04054 0.0
C87 C 0.51632 0.08674 0.03721 0.0
H88 H 0.52309 0.93689 0.92926 0.0
H89 H 0.27156 0.05424 0.08751 0.0
Co90 Co 0.76447 0.82877 0.36673 0.0
C91 C 0.69641 0.76852 0.3193 0.0
Co92 Co 0.69926 0.76459 0.38701 0.0
C93 C 0.82198 0.92698 0.36128 0.0
C94 C 0.84401 0.8971 0.32314 0.0
N95 N 0.81462 0.88651 0.35051 0.0
N96 N 0.85375 0.96226 0.34144 0.0
C97 C 0.86799 0.94341 0.31752 0.0
H98 H 0.80168 0.93005 0.3823 0.0
H99 H 0.84586 0.8725 0.30742 0.0
C100 C 0.76696 0.82071 0.43454 0.0
N101 N 0.64992 0.70963 0.40426 0.0
C102 C 0.59854 0.68464 0.39686 0.0
C103 C 0.65867 0.68447 0.42625 0.0
N104 N 0.57495 0.64471 0.41319 0.0
C105 C 0.61255 0.64434 0.4317 0.0
C106 C 0.78985 0.7632 0.3683 0.0
O107 O 0.79257 0.84697 0.41074 0.0
O108 O 0.72486 0.78388 0.42902 0.0
O109 O 0.74486 0.74125 0.38163 0.0
O110 O 0.80854 0.80463 0.35996 0.0
O111 O 0.67345 0.74449 0.3444 0.0
H112 H 0.69642 0.69441 0.4372 0.0
H113 H 0.57927 0.69494 0.37905 0.0
O114 O 0.73609 0.80839 0.32319 0.0
O115 O 0.71931 0.85147 0.37293 0.0
O116 O 0.65337 0.78817 0.39222 0.0
C117 C 0.67278 0.82955 0.3839 0.0
H118 H 0.89296 0.96152 0.29689 0.0
H119 H 0.60707 0.61704 0.44792 0.0
Co120 Co 0.22525 0.90115 0.35327 0.0
C121 C 0.29598 0.91401 0.30151 0.0
Co122 Co 0.30656 0.93007 0.3673 0.0
C123 C 0.11902 0.83022 0.35078 0.0
C124 C 0.13932 0.87597 0.31017 0.0
N125 N 0.15681 0.87091 0.33942 0.0
N126 N 0.07992 0.80855 0.32914 0.0
C127 C 0.09189 0.83764 0.3038 0.0
H128 H 0.12214 0.81538 0.37346 0.0
H129 H 0.16158 0.90398 0.29344 0.0
C130 C 0.24157 0.92213 0.41922 0.0
N131 N 0.37474 0.9595 0.38138 0.0
C132 C 0.41216 0.9495 0.37378 0.0
C133 C 0.39631 0.99189 0.40453 0.0
N134 N 0.45582 0.9737 0.39162 0.0
C135 C 0.44622 1.00015 0.4113 0.0
C136 C 0.27224 0.99306 0.34952 0.0
O137 O 0.20503 0.90902 0.39791 0.0
O138 O 0.28575 0.92814 0.41028 0.0
O139 O 0.31049 0.99005 0.36173 0.0
O140 O 0.23093 0.95685 0.34159 0.0
O141 O 0.32976 0.93297 0.32385 0.0
H142 H 0.37594 1.00658 0.41698 0.0
H143 H 0.40618 0.92261 0.35723 0.0
O144 O 0.24737 0.8957 0.30912 0.0
O145 O 0.21749 0.84368 0.365 0.0
O146 O 0.30057 0.86885 0.37333 0.0
C147 C 0.25351 0.83505 0.3719 0.0
H148 H 0.06867 0.83137 0.28193 0.0
H149 H 0.47237 0.02207 0.43011 0.0
Co150 Co 0.12297 0.32538 0.35449 0.0
C151 C 0.11904 0.38246 0.30615 0.0
Co152 Co 0.09511 0.37165 0.37312 0.0
C153 C 0.16829 0.26332 0.35172 0.0
C154 C 0.12453 0.26207 0.30966 0.0
N155 N 0.1407 0.28218 0.33891 0.0
N156 N 0.17011 0.23264 0.33129 0.0
C157 C 0.14219 0.23205 0.30497 0.0
H158 H 0.18681 0.2721 0.37544 0.0
H159 H 0.10056 0.2684 0.2928 0.0
C160 C 0.09442 0.31474 0.42171 0.0
N161 N 0.08263 0.41942 0.38644 0.0
C162 C 0.11386 0.46435 0.37825 0.0
C163 C 0.04634 0.41907 0.40671 0.0
N164 N 0.09892 0.49206 0.3926 0.0
C165 C 0.05605 0.46315 0.41044 0.0
C166 C 1.0136 0.28921 0.35258 0.0
O167 O 0.10882 0.29846 0.39832 0.0
O168 O 0.08961 0.34949 0.4165 0.0
O169 O 1.02076 0.32562 0.36658 0.0
O170 O 0.05295 0.28564 0.34429 0.0
O171 O 0.09986 0.39269 0.33012 0.0
H172 H 1.01548 0.38891 0.4186 0.0
H173 H 0.14738 0.47655 0.36199 0.0
O174 O 0.13463 0.35382 0.31074 0.0
O175 O 0.19351 0.36549 0.36518 0.0
O176 O 0.16745 0.41311 0.37948 0.0
C177 C 0.2042 0.40425 0.37555 0.0
H178 H 0.13384 0.21059 0.28385 0.0
H179 H 0.0337 0.47303 0.42592 0.0
Co180 Co 0.39921 0.16614 0.67187 0.0
C181 C 0.34028 0.0995 0.62532 0.0
Co182 Co 0.34995 0.09771 0.6929 0.0
C183 C 0.44289 0.26252 0.66545 0.0
C184 C 0.46924 0.23581 0.62737 0.0
N185 N 0.43953 0.22379 0.65467 0.0
N186 N 0.47326 0.29836 0.64584 0.0
C187 C 0.49012 0.28164 0.62191 0.0
H188 H 0.42233 0.264 0.68691 0.0
H189 H 0.4749 0.21264 0.61225 0.0
C190 C 0.40671 0.15963 0.74027 0.0
N191 N 0.30683 0.03957 0.7101 0.0
C192 C 0.25376 0.01468 0.70755 0.0
C193 C 0.31954 0.01555 0.73066 0.0
N194 N 0.23257 0.97644 0.72603 0.0
C195 C 0.27408 0.97674 0.74041 0.0
C196 C 0.45512 0.12127 0.67592 0.0
O197 O 0.42568 0.18793 0.71641 0.0
O198 O 0.37156 0.11906 0.73479 0.0
O199 O 0.41273 0.0888 0.68885 0.0
O200 O 0.45475 0.15618 0.66574 0.0
O201 O 0.32663 0.07446 0.6506 0.0
H202 H 0.35902 0.02646 0.73907 0.0
H203 H 0.23096 0.02492 0.69275 0.0
O204 O 0.3726 0.14207 0.6283 0.0
O205 O 0.34429 0.17825 0.67756 0.0
O206 O 0.29156 0.11042 0.69717 0.0
C207 C 0.29955 0.14959 0.68871 0.0
H208 H 0.5162 0.3011 0.60204 0.0
H209 H 0.27177 0.95175 0.75782 0.0
Co210 Co 0.92141 0.20598 0.70781 0.0
C211 C 0.94399 0.27297 0.75426 0.0
Co212 Co 0.95459 0.27365 0.6865 0.0
C213 C 0.84594 0.11172 0.71696 0.0
C214 C 0.90521 0.1375 0.75402 0.0
N215 N 0.89145 0.14877 0.72557 0.0
N216 N 0.83013 0.07821 0.73934 0.0
C217 C 0.86748 0.09403 0.76256 0.0
H218 H 0.82338 0.11025 0.69565 0.0
H219 H 0.93918 0.16022 0.76838 0.0
C220 C 0.93817 0.21158 0.63931 0.0
N221 N 0.98537 0.33197 0.67019 0.0
C222 C 0.9762 0.3647 0.68079 0.0
C223 C 1.02385 0.35244 0.64757 0.0
N224 N 1.00762 0.40498 0.66604 0.0
C225 C 0.03739 0.39746 0.64479 0.0
C226 C 0.02855 0.24687 0.70462 0.0
O227 O 0.92381 0.18363 0.66345 0.0
O228 O 0.94949 0.25204 0.64447 0.0
O229 O 0.02514 0.27885 0.6903 0.0
O230 O 0.987 0.21323 0.71553 0.0
O231 O 0.96143 0.29744 0.72889 0.0
H232 H 0.04141 0.33589 0.63439 0.0
H233 H 0.94675 0.35894 0.69903 0.0
O234 O 0.92186 0.23001 0.75114 0.0
O235 O 0.85369 0.1967 0.70065 0.0
O236 O 0.88246 0.26564 0.68243 0.0
C237 C 0.8436 0.22651 0.69029 0.0
H238 H 0.86724 0.07566 0.78428 0.0
H239 H 0.06727 0.42276 0.62882 0.0
Co240 Co 0.7832 0.66199 0.70323 0.0
C241 C 0.77923 0.72454 0.65917 0.0
Co242 Co 0.74255 0.6966 0.72166 0.0
C243 C 0.85473 0.62675 0.69629 0.0
C244 C 0.81134 0.62167 0.65298 0.0
N245 N 0.81717 0.63465 0.68447 0.0
N246 N 0.87291 0.60998 0.67313 0.0
C247 C 0.84552 0.60659 0.64594 0.0
H248 H 0.86922 0.63409 0.72107 0.0
H249 H 0.78436 0.62367 0.63601 0.0
C250 C 0.74394 0.63355 0.76565 0.0
N251 N 0.70603 0.72275 0.73898 0.0
C252 C 0.70781 0.76136 0.72931 0.0
C253 C 0.6666 0.70413 0.76126 0.0
N254 N 0.67103 0.76735 0.74442 0.0
C255 C 0.64544 0.73188 0.76497 0.0
C256 C 0.67701 0.61638 0.68994 0.0
O257 O 0.76719 0.62494 0.74284 0.0
O258 O 0.7333 0.66501 0.76141 0.0
O259 O 0.67667 0.64733 0.70685 0.0
O260 O 0.72002 0.61734 0.6849 0.0
O261 O 0.75125 0.7278 0.68137 0.0
H262 H 0.65291 0.67178 0.7734 0.0
H263 H 0.73557 0.78478 0.71149 0.0
O264 O 0.79831 0.69878 0.66419 0.0
O265 O 0.84652 0.70665 0.72128 0.0
O266 O 0.81016 0.74655 0.73634 0.0
C267 C 0.85102 0.74249 0.73372 0.0
H268 H 0.84933 0.59339 0.62276 0.0
H269 H 0.61327 0.72612 0.78096 0.0
H270 H 0.44198 0.4745 1.02318 0.0
H271 H 0.20944 0.52624 0.05768 0.0
H272 H 0.46808 0.60839 0.04376 0.0
H273 H 0.17968 0.4019 1.01185 0.0
H274 H 0.30307 0.55235 0.05854 0.0
H275 H 0.34701 0.44499 1.02256 0.0
C276 C 0.42781 0.49795 1.02732 0.0
C277 C 0.4636 0.54428 0.03356 0.0
C278 C 0.27638 0.51911 0.04863 0.0
C279 C 0.35358 0.5099 0.03344 0.0
C280 C 0.22248 0.50365 0.04857 0.0
C281 C 0.18591 0.46117 0.0353 0.0
C282 C 0.29518 0.49225 0.03516 0.0
C283 C 0.20588 0.43428 1.02306 0.0
C284 C 0.37332 0.48084 1.02697 0.0
C285 C 0.44241 0.57268 0.03861 0.0
N286 N 0.25919 0.45033 1.02323 0.0
N287 N 0.38894 0.55495 0.03877 0.0
H288 H 0.60442 0.93962 0.94056 0.0
H289 H 0.62886 0.76105 0.0559 0.0
H290 H 0.53571 0.90218 0.03683 0.0
H291 H 0.6922 0.79534 0.95815 0.0
H292 H 0.60357 0.81919 0.05202 0.0
H293 H 0.64619 0.89397 0.94929 0.0
C294 C 0.59832 0.92194 0.96361 0.0
C295 C 0.56592 0.92422 0.98782 0.0
C296 C 0.62339 0.81426 0.03151 0.0
C297 C 0.61375 0.87187 0.99807 0.0
C298 C 0.6376 0.78087 0.03364 0.0
C299 C 0.66203 0.77278 1.00712 0.0
C300 C 0.63352 0.83973 1.00261 0.0
C301 C 0.67356 0.80036 0.97921 0.0
C302 C 0.62235 0.896 0.96865 0.0
C303 C 0.56039 0.90144 1.01752 0.0
N304 N 0.65873 0.83227 0.97757 0.0
N305 N 0.58358 0.87579 1.02168 0.0
H306 H 0.32105 0.90596 0.94053 0.0
H307 H 0.14942 0.68021 0.03877 0.0
H308 H 0.2607 0.90447 0.03667 0.0
H309 H 0.18173 0.68483 0.9357 0.0
H310 H 0.17702 0.76114 0.03662 0.0
H311 H 0.25676 0.82532 0.93523 0.0
C312 C 0.29294 0.88876 0.9601 0.0
C313 C 0.29614 0.91145 0.98911 0.0
C314 C 0.1772 0.74423 1.01436 0.0
C315 C 0.22419 0.81884 0.98402 0.0
C316 C 0.16149 0.69805 1.0156 0.0
C317 C 0.16471 0.67609 0.98756 0.0
C318 C 0.19644 0.76848 0.9849 0.0
C319 C 0.18041 0.70077 0.95815 0.0
C320 C 0.25643 0.84266 0.95722 0.0
C321 C 0.2592 0.88791 1.01389 0.0
N322 N 0.19638 0.74572 0.95769 0.0
N323 N 0.22554 0.84239 1.01116 0.0
H324 H 0.30815 0.13356 0.10878 0.0
H325 H 0.45559 0.37475 1.02655 0.0
H326 H 0.34508 0.16085 1.00644 0.0
H327 H 0.45057 0.34896 0.13024 0.0
H328 H 0.38307 0.29804 1.01902 0.0
H329 H 0.32596 0.21141 0.11566 0.0
C330 C 0.31824 0.15556 0.08757 0.0
C331 C 0.32712 0.1418 0.05723 0.0
C332 C 0.39722 0.30944 0.04351 0.0
C333 C 0.34802 0.23022 0.0649 0.0
C334 C 0.43882 0.35339 0.0479 0.0
C335 C 0.46061 0.36799 0.07903 0.0
C336 C 0.3779 0.27958 0.07027 0.0
C337 C 0.43658 0.33855 0.10565 0.0
C338 C 0.32858 0.19993 0.09151 0.0
C339 C 0.33968 0.1711 0.03041 0.0
N340 N 0.39713 0.29532 0.10058 0.0
N341 N 0.35092 0.21443 0.03499 0.0
H342 H 0.59099 0.07248 0.06348 0.0
H343 H 0.82383 0.33009 0.04463 0.0
H344 H 0.56278 0.18075 0.03555 0.0
H345 H 0.84456 0.2213 0.08208 0.0
H346 H 0.72868 0.27781 0.04285 0.0
H347 H 0.68305 0.12806 0.07337 0.0
C348 C 0.60414 0.10823 0.05989 0.0
C349 C 0.56913 0.122 0.04863 0.0
C350 C 0.75402 0.26544 0.05159 0.0
C351 C 0.67558 0.18628 0.05926 0.0
C352 C 0.80858 0.29519 0.05233 0.0
C353 C 0.84274 0.28008 0.0632 0.0
C354 C 0.73313 0.22003 0.06163 0.0
C355 C 0.82009 0.23465 0.07362 0.0
C356 C 0.6569 0.14002 0.06545 0.0
C357 C 0.58837 0.16874 0.04444 0.0
N358 N 0.76697 0.20631 0.07237 0.0
N359 N 0.64056 0.19924 0.04934 0.0
H360 H 0.88234 0.44244 0.06516 0.0
H361 H 0.79147 0.61924 1.00907 0.0
H362 H 0.97998 0.55844 1.0038 0.0
H363 H 0.73035 0.5328 0.09421 0.0
H364 H 0.8583 0.59589 1.0035 0.0
H365 H 0.82074 0.47096 0.07154 0.0
C366 C 0.89062 0.4736 0.0528 0.0
C367 C 0.93659 0.49801 0.03401 0.0
C368 C 0.83058 0.58259 1.02363 0.0
C369 C 0.86619 0.53107 0.04119 0.0
C370 C 0.7929 0.59642 1.02704 0.0
C371 C 0.75518 0.57818 0.0522 0.0
C372 C 0.83001 0.54986 0.04524 0.0
C373 C 0.75838 0.54777 0.07434 0.0
C374 C 0.85566 0.49013 0.05662 0.0
C375 C 0.94521 0.53847 1.01867 0.0
N376 N 0.79439 0.53426 0.07012 0.0
N377 N 0.91045 0.55358 1.02249 0.0
H378 H 0.79701 0.69808 0.40356 0.0
H379 H 0.03699 0.76233 0.38584 0.0
H380 H 0.84022 0.77061 0.31179 0.0
H381 H 1.01827 0.75102 0.28137 0.0
H382 H 0.94537 0.70581 0.39244 0.0
H383 H 0.85274 0.66536 0.39005 0.0
C384 C 0.81788 0.7066 0.38045 0.0
C385 C 0.81731 0.7391 0.35953 0.0
C386 C 0.96132 0.71395 0.36791 0.0
C387 C 0.87896 0.70147 0.34373 0.0
C388 C 1.01406 0.747 0.36414 0.0
C389 C 0.03382 0.7645 0.33296 0.0
C390 C 0.92841 0.70094 0.34044 0.0
C391 C 1.00298 0.74138 0.30593 0.0
C392 C 0.84893 0.68758 0.37262 0.0
C393 C 0.84248 0.74767 0.32931 0.0
N394 N 0.95094 0.71151 0.31023 0.0
N395 N 0.8729 0.7294 0.32248 0.0
H396 H 0.19612 0.20532 0.38833 0.0
H397 H 0.24665 0.02443 0.29576 0.0
H398 H 0.20189 0.19625 0.28363 0.0
H399 H 0.29285 0.05868 0.39593 0.0
H400 H 0.22893 0.08722 0.29209 0.0
H401 H 0.23042 0.15248 0.3934 0.0
C402 C 0.2049 0.19272 0.36643 0.0
C403 C 0.1949 0.20497 0.33547 0.0
C404 C 0.24378 0.08175 0.31481 0.0
C405 C 0.23379 0.14396 0.34115 0.0
C406 C 0.25428 0.04597 0.31681 0.0
C407 C 0.27241 0.03683 0.34594 0.0
C408 C 0.24979 0.10827 0.34246 0.0
C409 C 0.2802 0.06524 0.37274 0.0
C410 C 0.2244 0.1624 0.36936 0.0
C411 C 0.20721 0.18717 0.30806 0.0
N412 N 0.26821 0.09928 0.37052 0.0
N413 N 0.22531 0.15757 0.31158 0.0
H414 H 0.96368 0.24353 0.29805 0.0
H415 H 0.85471 1.00857 0.39599 0.0
H416 H 0.95403 0.2347 0.40279 0.0
H417 H 0.87948 0.02385 0.29186 0.0
H418 H 0.87635 0.08818 0.39893 0.0
H419 H 0.91421 0.16059 0.29523 0.0
C420 C 0.94851 0.22412 0.32046 0.0
C421 C 0.96249 0.24631 0.35068 0.0
C422 C 0.8767 0.07399 0.37542 0.0
C423 C 0.90845 0.15064 0.34782 0.0
C424 C 0.8643 0.02841 0.3737 0.0
C425 C 0.86571 1.00918 0.34365 0.0
C426 C 0.8903 0.10078 0.34686 0.0
C427 C 0.87877 0.03704 0.31567 0.0
C428 C 0.92137 0.17657 0.31889 0.0
C429 C 0.94337 0.21913 0.37896 0.0
N430 N 0.89061 0.08115 0.318 0.0
N431 N 0.91845 0.17281 0.37691 0.0
H432 H 0.31142 0.78937 0.3665 0.0
H433 H 0.05438 0.54414 0.4058 0.0
H434 H 0.15697 0.7664 0.39053 0.0
H435 H 0.20044 0.55551 0.37371 0.0
H436 H 0.09519 0.62653 0.40266 0.0
H437 H 0.27639 0.70622 0.37164 0.0
C438 C 0.27053 0.76725 0.3732 0.0
C439 C 0.23737 0.78564 0.37794 0.0
C440 C 0.11865 0.61129 0.39628 0.0
C441 C 0.19666 0.6899 0.3837 0.0
C442 C 0.09517 0.56372 0.39823 0.0
C443 C 0.12349 0.54179 0.39013 0.0
C444 C 0.17154 0.63844 0.38622 0.0
C445 C 0.17642 0.5702 0.38 0.0
C446 C 0.25036 0.71959 0.37591 0.0
C447 C 0.18443 0.75455 0.38629 0.0
N448 N 0.19858 0.61669 0.37841 0.0
N449 N 0.16614 0.70901 0.38881 0.0
H450 H 0.24044 0.4932 0.38945 0.0
H451 H 0.53736 0.55412 0.41745 0.0
H452 H 0.29162 0.39509 0.37806 0.0
H453 H 0.49072 0.65443 0.40175 0.0
H454 H 0.44576 0.49392 0.40996 0.0
H455 H 0.33083 0.55153 0.40072 0.0
C456 C 0.27072 0.4839 0.38938 0.0
C457 C 0.25866 0.4393 0.3827 0.0
C458 C 0.45566 0.52913 0.4082 0.0
C459 C 0.36206 0.5059 0.39565 0.0
C460 C 0.50768 0.56337 0.4127 0.0
C461 C 0.52131 0.60912 0.41009 0.0
C462 C 0.41723 0.54095 0.4014 0.0
C463 C 0.48174 0.6195 0.40353 0.0
C464 C 0.32231 0.51726 0.39575 0.0
C465 C 0.29941 0.42917 0.38294 0.0
N466 N 0.43136 0.58562 0.39944 0.0
N467 N 0.3495 0.46233 0.38937 0.0
H468 H 0.48433 0.94573 0.4452 0.0
H469 H 0.68878 0.90241 0.34841 0.0
H470 H 0.51799 0.97657 0.34299 0.0
H471 H 0.59069 0.81151 0.42514 0.0
H472 H 0.64308 0.94511 0.35348 0.0
H473 H 0.54202 0.91253 0.44574 0.0
C474 C 0.50537 0.94669 0.42323 0.0
C475 C 0.49739 0.96391 0.39404 0.0
C476 C 0.63165 0.91587 0.36922 0.0
C477 C 0.56178 0.92622 0.39431 0.0
C478 C 0.65751 0.89145 0.36636 0.0
C479 C 0.643 0.85326 0.3863 0.0
C480 C 0.59155 0.9024 0.39245 0.0
C481 C 0.6024 0.84051 0.40913 0.0
C482 C 0.5374 0.92736 0.42341 0.0
C483 C 0.52397 0.96374 0.36586 0.0
N484 N 0.57796 0.86529 0.41173 0.0
N485 N 0.55514 0.94502 0.36663 0.0
H486 H 0.79342 0.25983 0.65002 0.0
H487 H 0.50164 0.09128 0.72155 0.0
H488 H 0.76241 0.16113 0.72601 0.0
H489 H 0.53114 0.16283 0.62983 0.0
H490 H 0.59666 0.11756 0.72529 0.0
H491 H 0.69753 0.22893 0.64502 0.0
C492 C 0.76673 0.23221 0.66591 0.0
C493 C 0.78647 0.21324 0.68842 0.0
C494 C 0.58211 0.12687 0.70408 0.0
C495 C 0.67626 0.17725 0.68276 0.0
C496 C 0.52758 0.11111 0.7017 0.0
C497 C 0.50784 0.12421 0.67513 0.0
C498 C 0.61736 0.15651 0.67998 0.0
C499 C 0.54422 0.15151 0.6507 0.0
C500 C 0.71185 0.21418 0.66287 0.0
C501 C 0.7494 0.17692 0.70814 0.0
N502 N 0.59675 0.16703 0.65388 0.0
N503 N 0.69663 0.16035 0.70492 0.0
H504 H 0.98469 0.43268 0.72231 0.0
H505 H 0.94199 0.61519 0.62746 0.0
H506 H 0.02901 0.47173 0.62185 0.0
H507 H 0.88981 0.57126 0.72621 0.0
H508 H 0.99306 0.57662 0.62938 0.0
H509 H 0.96863 0.49602 0.72837 0.0
C510 C 0.99145 0.45488 0.70159 0.0
C511 C 1.0068 0.44632 0.67126 0.0
C512 C 0.97117 0.57596 0.65086 0.0
C513 C 0.98876 0.51888 0.67803 0.0
C514 C 0.94193 0.59784 0.64971 0.0
C515 C 0.91076 0.59535 0.67645 0.0
C516 C 0.96866 0.55095 0.67883 0.0
C517 C 0.91304 0.57359 0.70501 0.0
C518 C 0.98261 0.49119 0.70512 0.0
C519 C 1.01672 0.47693 0.64554 0.0
N520 N 0.94068 0.55139 0.70525 0.0
N521 N 1.00661 0.51145 0.64934 0.0
H522 H 0.65709 0.58092 0.62946 0.0
H523 H 0.47015 0.33927 0.70208 0.0
H524 H 0.58939 0.56072 0.72567 0.0
H525 H 0.50586 0.36432 0.59923 0.0
H526 H 0.50214 0.41999 0.70958 0.0
H527 H 0.59046 0.50341 0.61542 0.0
C528 C 0.62688 0.56041 0.64723 0.0
C529 C 0.62844 0.57675 0.67869 0.0
C530 C 0.50215 0.40771 0.68527 0.0
C531 C 0.55375 0.48754 0.66352 0.0
C532 C 0.48387 0.36148 0.68094 0.0
C533 C 0.48643 0.34495 0.65006 0.0
C534 C 0.52367 0.43771 0.65862 0.0
C535 C 0.50472 0.37562 0.62366 0.0
C536 C 0.58903 0.51609 0.63934 0.0
C537 C 0.58902 0.5491 0.70107 0.0
N538 N 0.52337 0.42057 0.62863 0.0
N539 N 0.55391 0.50523 0.69333 0.0
H540 H 0.67661 0.81165 0.68854 0.0
H541 H 0.77168 0.0289 0.79099 0.0
H542 H 0.65004 0.81058 0.79199 0.0
H543 H 0.78133 0.02835 0.68607 0.0
H544 H 0.70323 0.94891 0.79013 0.0
H545 H 0.68878 0.88794 0.68477 0.0
C546 C 0.67228 0.82735 0.71034 0.0
C547 C 0.66426 0.80592 0.74078 0.0
C548 C 0.7194 0.96642 0.76719 0.0
C549 C 0.67918 0.89311 0.73698 0.0
C550 C 0.7588 0.01191 0.76775 0.0
C551 C 0.78334 0.03444 0.73865 0.0
C552 C 0.7056 0.94322 0.73736 0.0
C553 C 0.76401 0.01175 0.70907 0.0
C554 C 0.67898 0.87075 0.70823 0.0
C555 C 0.65725 0.82663 0.7682 0.0
N556 N 0.72712 0.96693 0.70921 0.0
N557 N 0.66642 0.86981 0.76584 0.0
H558 H 0.89041 0.83531 0.73215 0.0
H559 H 0.18894 0.88819 0.74553 0.0
H560 H 0.93503 0.73437 0.75109 0.0
H561 H 0.14889 0.9898 0.71823 0.0
H562 H 0.09559 0.83353 0.75356 0.0
H563 H 0.98411 0.89466 0.73371 0.0
C564 C 0.91972 0.82577 0.73746 0.0
C565 C 0.9049 0.77983 0.74142 0.0
C566 C 0.10714 0.86782 0.74588 0.0
C567 C 1.01192 0.84719 0.74267 0.0
C568 C 0.16065 0.89918 0.74138 0.0
C569 C 0.17719 0.94378 0.73095 0.0
C570 C 0.0694 0.88089 0.74 0.0
C571 C 0.13822 0.95568 0.7257 0.0
C572 C 0.97321 0.85955 0.73799 0.0
C573 C 0.94463 0.76933 0.74773 0.0
N574 N 0.08626 0.92446 0.7302 0.0
N575 N 0.99608 0.80257 0.74793 0.0
H576 H 0.20639 0.10987 0.72444 0.0
H577 H 0.11625 0.28555 0.66363 0.0
H578 H 0.30097 0.2224 0.65953 0.0
H579 H 0.04987 0.19749 0.7476 0.0
H580 H 0.18345 0.2625 0.66006 0.0
H581 H 0.14489 0.13866 0.73039 0.0
C582 C 0.21406 0.14033 0.7113 0.0
C583 C 0.25905 0.16366 0.69155 0.0
C584 C 0.15449 0.24874 0.67951 0.0
C585 C 0.18896 0.197 0.69821 0.0
C586 C 0.11656 0.26238 0.68176 0.0
C587 C 0.07719 0.24344 0.70588 0.0
C588 C 0.15264 0.21568 0.70134 0.0
C589 C 0.07915 0.21284 0.72841 0.0
C590 C 0.17919 0.15701 0.71484 0.0
C591 C 0.26699 0.20326 0.67518 0.0
N592 N 0.11554 0.19959 0.72536 0.0
N593 N 0.2324 0.2185 0.67878 0.0
H594 H 0.16423 0.37839 0.24713 0.0
H595 H 0.04039 0.50313 0.14556 0.0
H596 H 0.07881 0.4371 0.29133 0.0
H597 H 0.16137 0.48121 0.10597 0.0
H598 H 0.05633 0.48135 0.19968 0.0
H599 H 0.16446 0.41543 0.19506 0.0
C600 C 0.14568 0.39898 0.246 0.0
C601 C 0.12133 0.40426 0.27383 0.0
C602 C 0.08066 0.48263 0.17937 0.0
C603 C 0.12133 0.44674 0.21434 0.0
C604 C 0.07218 0.49597 0.14857 0.0
C605 C 0.10117 0.496 0.12136 0.0
C606 C 0.11718 0.46755 0.18292 0.0
C607 C 0.13982 0.48374 0.12644 0.0
C608 C 0.14602 0.42033 0.21632 0.0
C609 C 0.09804 0.43166 0.27073 0.0
N610 N 0.14615 0.46935 0.15636 0.0
N611 N 0.09833 0.45139 0.24173 0.0
H612 H 0.73752 0.80641 0.25887 0.0
H613 H 0.58448 0.56879 0.16369 0.0
H614 H 0.62039 0.68133 0.3046 0.0
H615 H 0.6752 0.69883 0.11535 0.0
H616 H 0.59937 0.60861 0.21597 0.0
H617 H 0.71691 0.76723 0.20622 0.0
C618 C 0.70706 0.77094 0.25784 0.0
C619 C 0.68065 0.74736 0.28636 0.0
C620 C 0.61582 0.62836 0.19385 0.0
C621 C 0.65748 0.70184 0.22609 0.0
C622 C 0.60738 0.60559 0.164 0.0
C623 C 0.62854 0.63031 0.13494 0.0
C624 C 0.64609 0.67622 0.19476 0.0
C625 C 0.65798 0.67811 0.13699 0.0
C626 C 0.69542 0.74846 0.22776 0.0
C627 C 0.6418 0.70114 0.28338 0.0
N628 N 0.66602 0.69932 0.16622 0.0
N629 N 0.63175 0.67993 0.25398 0.0
H630 H 0.3185 0.91598 0.09007 0.0
H631 H 0.39705 0.94821 0.27924 0.0
H632 H 0.47864 0.98928 0.12384 0.0
H633 H 0.23653 0.88272 0.24524 0.0
H634 H 0.42739 0.95462 0.22293 0.0
H635 H 0.28815 0.89328 0.14638 0.0
C636 C 0.34744 0.92575 0.10931 0.0
C637 C 0.40128 0.95349 0.10218 0.0
C638 C 0.38551 0.93856 0.22771 0.0
C639 C 0.36668 0.92947 0.16715 0.0
C640 C 0.368 0.93488 0.25997 0.0
C641 C 0.31397 0.91511 0.2672 0.0
C642 C 0.34891 0.92244 0.20211 0.0
C643 C 0.2785 0.89834 0.24098 0.0
C644 C 0.33004 0.91337 0.14155 0.0
C645 C 0.43695 0.96679 0.12817 0.0
N646 N 0.29658 0.90262 0.20969 0.0
N647 N 0.41902 0.95501 0.15949 0.0
H648 H 0.39022 0.1122 0.94633 0.0
H649 H 0.49617 0.16308 0.76144 0.0
H650 H 0.49658 0.07151 0.90713 0.0
H651 H 0.36136 0.16969 0.79503 0.0
H652 H 0.51125 0.14634 0.81753 0.0
H653 H 0.39234 0.14794 0.89405 0.0
C654 C 0.41436 0.11095 0.92682 0.0
C655 C 0.44297 0.08832 0.93128 0.0
C656 C 0.47932 0.15284 0.81285 0.0
C657 C 0.44579 0.12989 0.87092 0.0
C658 C 0.47141 0.1634 0.78094 0.0
C659 C 0.42841 0.16923 0.77371 0.0
C660 C 0.44386 0.14795 0.83779 0.0
C661 C 0.39588 0.16681 0.79968 0.0
C662 C 0.41552 0.13148 0.89688 0.0
C663 C 0.47363 0.08824 0.9049 0.0
N664 N 0.40403 0.15611 0.83042 0.0
N665 N 0.47409 0.10851 0.8759 0.0
H666 H 0.05526 0.47408 0.9096 0.0
H667 H 0.91512 0.23405 0.81589 0.0
H668 H 0.96294 0.3441 0.95777 0.0
H669 H 0.99175 0.36413 0.76639 0.0
H670 H 0.93286 0.27388 0.86824 0.0
H671 H 0.033 0.4348 0.85679 0.0
C672 C 0.03014 0.43746 0.90913 0.0
C673 C 1.01114 0.41256 0.93832 0.0
C674 C 0.94562 0.29368 0.84588 0.0
C675 C 0.98577 0.36718 0.87795 0.0
C676 C 0.93542 0.27087 0.81597 0.0
C677 C 0.95191 0.29557 0.78657 0.0
C678 C 0.97278 0.34163 0.84651 0.0
C679 C 0.97824 0.34343 0.78833 0.0
C680 C 1.01748 0.41497 0.87897 0.0
C681 C 0.97878 0.36496 0.93605 0.0
N682 N 0.98797 0.36474 0.81764 0.0
N683 N 0.96741 0.34399 0.90659 0.0
H684 H 0.64269 0.59165 0.78459 0.0
H685 H 0.6972 0.53801 0.96597 0.0
H686 H 0.79297 0.61004 0.81386 0.0
H687 H 0.55493 0.53357 0.93453 0.0
H688 H 0.7273 0.54853 0.90883 0.0
H689 H 0.60512 0.55507 0.83682 0.0
C690 C 0.66763 0.58726 0.80197 0.0
C691 C 0.72105 0.60402 0.79491 0.0
C692 C 0.68877 0.5438 0.91428 0.0
C693 C 0.67838 0.56279 0.85561 0.0
C694 C 0.67116 0.53698 0.94684 0.0
C695 C 0.62281 0.53367 0.95487 0.0
C696 C 0.65788 0.54762 0.88962 0.0
C697 C 0.5918 0.53481 0.92933 0.0
C698 C 0.64615 0.56643 0.83191 0.0
C699 C 0.75151 0.59734 0.81829 0.0
N700 N 0.60997 0.54201 0.89804 0.0
N701 N 0.72993 0.57782 0.84785 0.0
H702 H 0.72215 0.83692 0.48649 0.0
H703 H 0.84125 0.72889 0.60738 0.0
H704 H 0.85018 0.81628 0.45942 0.0
H705 H 0.73713 0.7765 0.63878 0.0
H706 H 0.85028 0.7657 0.55431 0.0
H707 H 0.73367 0.8225 0.54359 0.0
C708 C 0.75421 0.83124 0.49287 0.0
C709 C 0.7861 0.82885 0.46841 0.0
C710 C 0.82592 0.76852 0.57293 0.0
C711 C 0.79766 0.80956 0.53348 0.0
C712 C 0.82056 0.74733 0.60323 0.0
C713 C 0.78798 0.74918 0.62758 0.0
C714 C 0.79809 0.79142 0.56668 0.0
C715 C 0.7624 0.77383 0.62076 0.0
C716 C 0.76036 0.82236 0.52541 0.0
C717 C 0.82574 0.81961 0.47772 0.0
N718 N 0.76757 0.79351 0.59092 0.0
N719 N 0.82983 0.8095 0.50945 0.0
H720 H 0.17917 0.95614 0.44331 0.0
H721 H 0.39123 0.11744 0.56597 0.0
H722 H 0.30372 0.93021 0.47041 0.0
H723 H 0.24103 0.03043 0.61206 0.0
H724 H 0.35808 0.07135 0.51607 0.0
H725 H 0.19781 1.00262 0.49325 0.0
C726 C 0.20917 0.95898 0.46006 0.0
C727 C 0.23971 0.93895 0.45254 0.0
C728 C 0.33215 0.06322 0.53695 0.0
C729 C 0.26291 0.9938 0.50825 0.0
C730 C 0.35093 0.08954 0.5653 0.0
C731 C 0.3189 0.07773 0.5932 0.0
C732 C 0.28059 0.02572 0.5362 0.0
C733 C 0.26707 0.0406 0.59109 0.0
C734 C 0.22029 0.98603 0.4882 0.0
C735 C 0.27911 0.94495 0.47495 0.0
N736 N 0.24949 0.01585 0.56315 0.0
N737 N 0.2902 0.97241 0.50122 0.0
H738 H 0.88345 0.182 0.58156 0.0
H739 H 0.12335 0.3516 0.48246 0.0
H740 H 0.03646 0.23162 0.62418 0.0
H741 H 1.02368 0.22471 0.43402 0.0
H742 H 0.08505 0.31445 0.53514 0.0
H743 H 0.92483 0.20008 0.52686 0.0
C744 C 0.9253 0.19453 0.57934 0.0
C745 C 0.95631 0.20381 0.60747 0.0
C746 C 0.07209 0.29463 0.51299 0.0
C747 C 1.00419 0.22776 0.54535 0.0
C748 C 0.09399 0.31575 0.48299 0.0
C749 C 0.07731 0.29105 0.45388 0.0
C750 C 0.03149 0.24893 0.51389 0.0
C751 C 0.03825 0.24478 0.45596 0.0
C752 C 0.94898 0.20547 0.54819 0.0
C753 C 1.01091 0.22257 0.60314 0.0
N754 N 1.01583 0.22541 0.48535 0.0
N755 N 0.03319 0.23499 0.5729 0.0
loop_
_geom_bond_atom_site_label_1
_geom_bond_atom_site_label_2
_geom_bond_distance
_geom_bond_site_symmetry_2
_ccdc_geom_bond_type
Co0 N5 2.057 1_554 S
Co0 O17 2.021 . S
Co0 O20 2.062 . S
Co0 O24 2.117 1_554 S
Co0 O25 2.020 1_455 S
C1 O21 1.259 . S
C1 O24 1.258 1_655 S
Co2 N11 2.057 . S
Co2 O18 2.117 . S
Co2 O19 2.020 1_655 S
Co2 O21 2.021 1_554 S
Co2 O26 2.062 . S
C3 N5 1.316 1_554 S
C3 N6 1.347 1_554 S
C3 H8 0.931 . S
C4 N5 1.375 . S
C4 C7 1.350 . S
C4 H9 0.930 . S
N5 Co0 2.057 1_556 S
N5 C3 1.316 1_556 S
N5 C4 1.375 . S
N6 C3 1.347 1_556 S
N6 C7 1.373 . S
C7 C4 1.350 . S
C7 N6 1.373 . S
C7 H28 0.931 . S
H8 C3 0.931 . S
H9 C4 0.930 . S
C10 O17 1.259 . S
C10 O18 1.258 1_455 S
N11 Co2 2.057 . S
N11 C12 1.313 1_554 S
N11 C13 1.375 . S
C12 N11 1.313 1_556 S
C12 N14 1.344 1_556 S
C12 H23 0.936 . S
C13 N11 1.375 . S
C13 C15 1.350 . S
C13 H22 0.930 . S
N14 C12 1.344 1_554 S
N14 C15 1.373 . S
C15 C13 1.350 . S
C15 N14 1.373 . S
C15 H29 0.931 . S
C16 O19 1.256 . S
C16 O20 1.255 . S
O17 Co0 2.021 . S
O17 C10 1.259 . S
O18 Co2 2.117 . S
O18 C10 1.258 1_655 S
O19 Co2 2.020 1_455 S
O19 C16 1.256 . S
O20 Co0 2.062 . S
O20 C16 1.255 . S
O21 C1 1.259 . S
O21 Co2 2.021 1_556 S
H22 C13 0.930 . S
H23 C12 0.936 . S
O24 Co0 2.117 1_556 S
O24 C1 1.258 1_455 S
O25 Co0 2.020 1_655 S
O25 C27 1.256 . S
O26 Co2 2.062 . S
O26 C27 1.255 . S
C27 O25 1.256 . S
C27 O26 1.255 . S
H28 C7 0.931 . S
H29 C15 0.931 . S
Co30 N35 2.057 . S
Co30 O47 2.021 1_554 S
Co30 O50 2.062 . S
Co30 O54 2.117 . S
Co30 O55 2.020 . S
C31 O51 1.259 . S
C31 O54 1.258 . S
Co32 N41 2.057 1_554 S
Co32 O48 2.117 1_554 S
Co32 O49 2.020 . S
Co32 O51 2.021 . S
Co32 O56 2.062 . S
C33 N35 1.316 . S
C33 N36 1.347 . S
C33 H38 0.931 1_554 S
C34 N35 1.375 . S
C34 C37 1.350 . S
C34 H39 0.930 . S
N35 Co30 2.057 . S
N35 C33 1.316 . S
N35 C34 1.375 . S
N36 C33 1.347 . S
N36 C37 1.373 . S
C37 C34 1.350 . S
C37 N36 1.373 . S
C37 H58 0.931 . S
H38 C33 0.931 1_556 S
H39 C34 0.930 . S
C40 O47 1.259 . S
C40 O48 1.258 . S
N41 Co32 2.057 1_556 S
N41 C42 1.316 1_556 S
N41 C43 1.375 . S
C42 N41 1.316 1_554 S
C42 N44 1.347 1_554 S
C42 H53 0.931 . S
C43 N41 1.375 . S
C43 C45 1.350 . S
C43 H52 0.930 . S
N44 C42 1.347 1_556 S
N44 C45 1.373 . S
C45 C43 1.350 . S
C45 N44 1.373 . S
C45 H59 0.931 . S
C46 O49 1.256 . S
C46 O50 1.255 . S
O47 Co30 2.021 1_556 S
O47 C40 1.259 . S
O48 Co32 2.117 1_556 S
O48 C40 1.258 . S
O49 Co32 2.020 . S
O49 C46 1.256 . S
O50 Co30 2.062 . S
O50 C46 1.255 . S
O51 C31 1.259 . S
O51 Co32 2.021 . S
H52 C43 0.930 . S
H53 C42 0.931 . S
O54 Co30 2.117 . S
O54 C31 1.258 . S
O55 Co30 2.020 . S
O55 C57 1.256 . S
O56 Co32 2.062 . S
O56 C57 1.255 . S
C57 O55 1.256 . S
C57 O56 1.255 . S
H58 C37 0.931 . S
H59 C45 0.931 . S
Co60 N65 2.057 1_554 S
Co60 O77 2.021 . S
Co60 O80 2.062 . S
Co60 O84 2.117 1_554 S
Co60 O85 2.020 1_565 S
C61 O81 1.259 . S
C61 O84 1.258 1_545 S
Co62 N71 2.057 . S
Co62 O78 2.117 . S
Co62 O79 2.020 1_545 S
Co62 O81 2.021 1_554 S
Co62 O86 2.062 . S
C63 N65 1.316 1_554 S
C63 N66 1.347 1_554 S
C63 H68 0.931 . S
C64 N65 1.375 . S
C64 C67 1.350 . S
C64 H69 0.930 . S
N65 Co60 2.057 1_556 S
N65 C63 1.316 1_556 S
N65 C64 1.375 . S
N66 C63 1.347 1_556 S
N66 C67 1.373 . S
C67 C64 1.350 . S
C67 N66 1.373 . S
C67 H88 0.931 . S
H68 C63 0.931 . S
H69 C64 0.930 . S
C70 O77 1.259 . S
C70 O78 1.258 1_565 S
N71 Co62 2.057 . S
N71 C72 1.315 1_554 S
N71 C73 1.375 . S
C72 N71 1.315 1_556 S
C72 N74 1.345 1_556 S
C72 H83 0.933 . S
C73 N71 1.375 . S
C73 C75 1.350 . S
C73 H82 0.930 . S
N74 C72 1.345 1_554 S
N74 C75 1.373 . S
C75 C73 1.350 . S
C75 N74 1.373 . S
C75 H89 0.931 . S
C76 O79 1.256 . S
C76 O80 1.255 . S
O77 Co60 2.021 . S
O77 C70 1.259 . S
O78 Co62 2.117 . S
O78 C70 1.258 1_545 S
O79 Co62 2.020 1_565 S
O79 C76 1.256 . S
O80 Co60 2.062 . S
O80 C76 1.255 . S
O81 C61 1.259 . S
O81 Co62 2.021 1_556 S
H82 C73 0.930 . S
H83 C72 0.933 . S
O84 Co60 2.117 1_556 S
O84 C61 1.258 1_565 S
O85 Co60 2.020 1_545 S
O85 C87 1.256 . S
O86 Co62 2.062 . S
O86 C87 1.255 . S
C87 O85 1.256 . S
C87 O86 1.255 . S
H88 C67 0.931 . S
H89 C75 0.931 . S
Co90 N95 2.057 . S
Co90 O107 2.021 . S
Co90 O110 2.062 . S
Co90 O114 2.117 . S
Co90 O115 2.020 . S
C91 O111 1.259 . S
C91 O114 1.258 . S
Co92 N101 2.057 . S
Co92 O108 2.117 . S
Co92 O109 2.020 . S
Co92 O111 2.021 . S
Co92 O116 2.062 . S
C93 N95 1.316 . S
C93 N96 1.347 . S
C93 H98 0.931 . S
C94 N95 1.375 . S
C94 C97 1.350 . S
C94 H99 0.930 . S
N95 Co90 2.057 . S
N95 C93 1.316 . S
N95 C94 1.375 . S
N96 C93 1.347 . S
N96 C97 1.373 . S
C97 C94 1.350 . S
C97 N96 1.373 . S
C97 H118 0.931 . S
H98 C93 0.931 . S
H99 C94 0.930 . S
C100 O107 1.259 . S
C100 O108 1.258 . S
N101 Co92 2.057 . S
N101 C102 1.316 . S
N101 C103 1.375 . S
C102 N101 1.316 . S
C102 N104 1.347 . S
C102 H113 0.931 . S
C103 N101 1.375 . S
C103 C105 1.350 . S
C103 H112 0.930 . S
N104 C102 1.347 . S
N104 C105 1.373 . S
C105 C103 1.350 . S
C105 N104 1.373 . S
C105 H119 0.931 . S
C106 O109 1.256 . S
C106 O110 1.255 . S
O107 Co90 2.021 . S
O107 C100 1.259 . S
O108 Co92 2.117 . S
O108 C100 1.258 . S
O109 Co92 2.020 . S
O109 C106 1.256 . S
O110 Co90 2.062 . S
O110 C106 1.255 . S
O111 C91 1.259 . S
O111 Co92 2.021 . S
H112 C103 0.930 . S
H113 C102 0.931 . S
O114 Co90 2.117 . S
O114 C91 1.258 . S
O115 Co90 2.020 . S
O115 C117 1.256 . S
O116 Co92 2.062 . S
O116 C117 1.255 . S
C117 O115 1.256 . S
C117 O116 1.255 . S
H118 C97 0.931 . S
H119 C105 0.931 . S
Co120 N125 2.057 . S
Co120 O137 2.021 . S
Co120 O140 2.062 . S
Co120 O144 2.117 . S
Co120 O145 2.020 . S
C121 O141 1.259 . S
C121 O144 1.258 . S
Co122 N131 2.057 . S
Co122 O138 2.117 . S
Co122 O139 2.020 . S
Co122 O141 2.021 . S
Co122 O146 2.062 . S
C123 N125 1.316 . S
C123 N126 1.347 . S
C123 H128 0.931 . S
C124 N125 1.375 . S
C124 C127 1.350 . S
C124 H129 0.930 . S
N125 Co120 2.057 . S
N125 C123 1.316 . S
N125 C124 1.375 . S
N126 C123 1.347 . S
N126 C127 1.373 . S
C127 C124 1.350 . S
C127 N126 1.373 . S
C127 H148 0.931 . S
H128 C123 0.931 . S
H129 C124 0.930 . S
C130 O137 1.259 . S
C130 O138 1.258 . S
N131 Co122 2.057 . S
N131 C132 1.316 . S
N131 C133 1.375 . S
C132 N131 1.316 . S
C132 N134 1.347 . S
C132 H143 0.931 . S
C133 N131 1.375 . S
C133 C135 1.350 . S
C133 H142 0.930 . S
N134 C132 1.347 . S
N134 C135 1.373 . S
C135 C133 1.350 . S
C135 N134 1.373 . S
C135 H149 0.931 . S
C136 O139 1.256 . S
C136 O140 1.255 . S
O137 Co120 2.021 . S
O137 C130 1.259 . S
O138 Co122 2.117 . S
O138 C130 1.258 . S
O139 Co122 2.020 . S
O139 C136 1.256 . S
O140 Co120 2.062 . S
O140 C136 1.255 . S
O141 C121 1.259 . S
O141 Co122 2.021 . S
H142 C133 0.930 . S
H143 C132 0.931 . S
O144 Co120 2.117 . S
O144 C121 1.258 . S
O145 Co120 2.020 . S
O145 C147 1.256 . S
O146 Co122 2.062 . S
O146 C147 1.255 . S
C147 O145 1.256 . S
C147 O146 1.255 . S
H148 C127 0.931 . S
H149 C135 0.931 . S
Co150 N155 2.057 . S
Co150 O167 2.021 . S
Co150 O170 2.062 . S
Co150 O174 2.117 . S
Co150 O175 2.020 . S
C151 O171 1.259 . S
C151 O174 1.258 . S
Co152 N161 2.057 . S
Co152 O168 2.117 . S
Co152 O169 2.020 . S
Co152 O171 2.021 . S
Co152 O176 2.062 . S
C153 N155 1.316 . S
C153 N156 1.347 . S
C153 H158 0.931 . S
C154 N155 1.375 . S
C154 C157 1.350 . S
C154 H159 0.930 . S
N155 Co150 2.057 . S
N155 C153 1.316 . S
N155 C154 1.375 . S
N156 C153 1.347 . S
N156 C157 1.373 . S
C157 C154 1.350 . S
C157 N156 1.373 . S
C157 H178 0.931 . S
H158 C153 0.931 . S
H159 C154 0.930 . S
C160 O167 1.259 . S
C160 O168 1.258 . S
N161 Co152 2.057 . S
N161 C162 1.316 . S
N161 C163 1.375 . S
C162 N161 1.316 . S
C162 N164 1.347 . S
C162 H173 0.931 . S
C163 N161 1.375 . S
C163 C165 1.350 . S
C163 H172 0.930 . S
N164 C162 1.347 . S
N164 C165 1.373 . S
C165 C163 1.350 . S
C165 N164 1.373 . S
C165 H179 0.931 . S
C166 O169 1.256 . S
C166 O170 1.255 . S
O167 Co150 2.021 . S
O167 C160 1.259 . S
O168 Co152 2.117 . S
O168 C160 1.258 . S
O169 Co152 2.020 . S
O169 C166 1.256 . S
O170 Co150 2.062 . S
O170 C166 1.255 . S
O171 C151 1.259 . S
O171 Co152 2.021 . S
H172 C163 0.930 . S
H173 C162 0.931 . S
O174 Co150 2.117 . S
O174 C151 1.258 . S
O175 Co150 2.020 . S
O175 C177 1.256 . S
O176 Co152 2.062 . S
O176 C177 1.255 . S
C177 O175 1.256 . S
C177 O176 1.255 . S
H178 C157 0.931 . S
H179 C165 0.931 . S
Co180 N185 2.057 . S
Co180 O197 2.021 . S
Co180 O200 2.062 . S
Co180 O204 2.117 . S
Co180 O205 2.020 . S
C181 O201 1.259 . S
C181 O204 1.258 . S
Co182 N191 2.057 . S
Co182 O198 2.117 . S
Co182 O199 2.020 . S
Co182 O201 2.021 . S
Co182 O206 2.062 . S
C183 N185 1.316 . S
C183 N186 1.347 . S
C183 H188 0.931 . S
C184 N185 1.375 . S
C184 C187 1.350 . S
C184 H189 0.930 . S
N185 Co180 2.057 . S
N185 C183 1.316 . S
N185 C184 1.375 . S
N186 C183 1.347 . S
N186 C187 1.373 . S
C187 C184 1.350 . S
C187 N186 1.373 . S
C187 H208 0.931 . S
H188 C183 0.931 . S
H189 C184 0.930 . S
C190 O197 1.259 . S
C190 O198 1.258 . S
N191 Co182 2.057 . S
N191 C192 1.316 1_545 S
N191 C193 1.375 1_545 S
C192 N191 1.316 1_565 S
C192 N194 1.347 . S
C192 H203 0.931 . S
C193 N191 1.375 1_565 S
C193 C195 1.350 . S
C193 H202 0.930 1_565 S
N194 C192 1.347 . S
N194 C195 1.373 . S
C195 C193 1.350 . S
C195 N194 1.373 . S
C195 H209 0.931 . S
C196 O199 1.256 . S
C196 O200 1.255 . S
O197 Co180 2.021 . S
O197 C190 1.259 . S
O198 Co182 2.117 . S
O198 C190 1.258 . S
O199 Co182 2.020 . S
O199 C196 1.256 . S
O200 Co180 2.062 . S
O200 C196 1.255 . S
O201 C181 1.259 . S
O201 Co182 2.021 . S
H202 C193 0.930 1_545 S
H203 C192 0.931 . S
O204 Co180 2.117 . S
O204 C181 1.258 . S
O205 Co180 2.020 . S
O205 C207 1.256 . S
O206 Co182 2.062 . S
O206 C207 1.255 . S
C207 O205 1.256 . S
C207 O206 1.255 . S
H208 C187 0.931 . S
H209 C195 0.931 . S
Co210 N215 2.057 . S
Co210 O227 2.021 . S
Co210 O230 2.062 . S
Co210 O234 2.117 . S
Co210 O235 2.020 . S
C211 O231 1.259 . S
C211 O234 1.258 . S
Co212 N221 2.057 . S
Co212 O228 2.117 . S
Co212 O229 2.020 . S
Co212 O231 2.021 . S
Co212 O236 2.062 . S
C213 N215 1.316 . S
C213 N216 1.347 . S
C213 H218 0.931 . S
C214 N215 1.375 . S
C214 C217 1.350 . S
C214 H219 0.930 . S
N215 Co210 2.057 . S
N215 C213 1.316 . S
N215 C214 1.375 . S
N216 C213 1.347 . S
N216 C217 1.373 . S
C217 C214 1.350 . S
C217 N216 1.373 . S
C217 H238 0.931 . S
H218 C213 0.931 . S
H219 C214 0.930 . S
C220 O227 1.259 . S
C220 O228 1.258 . S
N221 Co212 2.057 . S
N221 C222 1.316 . S
N221 C223 1.375 . S
C222 N221 1.316 . S
C222 N224 1.347 . S
C222 H233 0.931 . S
C223 N221 1.375 . S
C223 C225 1.350 . S
C223 H232 0.930 . S
N224 C222 1.347 . S
N224 C225 1.373 . S
C225 C223 1.350 . S
C225 N224 1.373 . S
C225 H239 0.931 . S
C226 O229 1.256 . S
C226 O230 1.255 . S
O227 Co210 2.021 . S
O227 C220 1.259 . S
O228 Co212 2.117 . S
O228 C220 1.258 . S
O229 Co212 2.020 . S
O229 C226 1.256 . S
O230 Co210 2.062 . S
O230 C226 1.255 . S
O231 C211 1.259 . S
O231 Co212 2.021 . S
H232 C223 0.930 . S
H233 C222 0.931 . S
O234 Co210 2.117 . S
O234 C211 1.258 . S
O235 Co210 2.020 . S
O235 C237 1.256 . S
O236 Co212 2.062 . S
O236 C237 1.255 . S
C237 O235 1.256 . S
C237 O236 1.255 . S
H238 C217 0.931 . S
H239 C225 0.931 . S
Co240 N245 2.057 . S
Co240 O257 2.021 . S
Co240 O260 2.062 . S
Co240 O264 2.117 . S
Co240 O265 2.020 . S
C241 O261 1.259 . S
C241 O264 1.258 . S
Co242 N251 2.057 . S
Co242 O258 2.117 . S
Co242 O259 2.020 . S
Co242 O261 2.021 . S
Co242 O266 2.062 . S
C243 N245 1.316 . S
C243 N246 1.347 . S
C243 H248 0.931 . S
C244 N245 1.375 . S
C244 C247 1.350 . S
C244 H249 0.930 . S
N245 Co240 2.057 . S
N245 C243 1.316 . S
N245 C244 1.375 . S
N246 C243 1.347 . S
N246 C247 1.373 . S
C247 C244 1.350 . S
C247 N246 1.373 . S
C247 H268 0.931 . S
H248 C243 0.931 . S
H249 C244 0.930 . S
C250 O257 1.259 . S
C250 O258 1.258 . S
N251 Co242 2.057 . S
N251 C252 1.316 . S
N251 C253 1.375 . S
C252 N251 1.316 . S
C252 N254 1.347 . S
C252 H263 0.931 . S
C253 N251 1.375 . S
C253 C255 1.350 . S
C253 H262 0.930 . S
N254 C252 1.347 . S
N254 C255 1.373 . S
C255 C253 1.350 . S
C255 N254 1.373 . S
C255 H269 0.931 . S
C256 O259 1.256 . S
C256 O260 1.255 . S
O257 Co240 2.021 . S
O257 C250 1.259 . S
O258 Co242 2.117 . S
O258 C250 1.258 . S
O259 Co242 2.020 . S
O259 C256 1.256 . S
O260 Co240 2.062 . S
O260 C256 1.255 . S
O261 C241 1.259 . S
O261 Co242 2.021 . S
H262 C253 0.930 . S
H263 C252 0.931 . S
O264 Co240 2.117 . S
O264 C241 1.258 . S
O265 Co240 2.020 . S
O265 C267 1.256 . S
O266 Co242 2.062 . S
O266 C267 1.255 . S
C267 O265 1.256 . S
C267 O266 1.255 . S
H268 C247 0.931 . S
H269 C255 0.931 . S
H270 C276 0.930 . S
H271 C280 0.930 . S
H272 C285 0.929 . S
H273 C283 0.929 . S
H274 C278 0.929 . S
H275 C284 0.929 . S
C276 H270 0.930 . S
C276 C277 1.367 1_556 S
C276 C284 1.378 . S
C277 C276 1.367 1_554 S
C277 C285 1.433 . S
C278 H274 0.929 . S
C278 C280 1.378 . S
C278 C282 1.350 . S
C279 C282 1.463 . S
C279 C284 1.350 1_554 S
C279 N287 1.427 . S
C280 H271 0.930 . S
C280 C278 1.378 . S
C280 C281 1.367 . S
C281 C280 1.367 . S
C281 C283 1.433 1_554 S
C282 C278 1.350 . S
C282 C279 1.463 . S
C282 N286 1.427 1_554 S
C283 H273 0.929 . S
C283 C281 1.433 1_556 S
C283 N286 1.384 . S
C284 H275 0.929 . S
C284 C276 1.378 . S
C284 C279 1.350 1_556 S
C285 H272 0.929 . S
C285 C277 1.433 . S
C285 N287 1.384 . S
N286 C282 1.427 1_556 S
N286 C283 1.384 . S
N287 C279 1.427 . S
N287 C285 1.384 . S
H288 C294 0.932 . S
H289 C298 0.930 . S
H290 C303 0.929 . S
H291 C301 0.930 . S
H292 C296 0.929 . S
H293 C302 0.928 1_554 S
C294 H288 0.932 . S
C294 C295 1.367 . S
C294 C302 1.378 . S
C295 C294 1.367 . S
C295 C303 1.433 . S
C296 H292 0.929 . S
C296 C298 1.378 . S
C296 C300 1.350 . S
C297 C300 1.463 . S
C297 C302 1.350 . S
C297 N305 1.427 . S
C298 H289 0.930 . S
C298 C296 1.378 . S
C298 C299 1.367 . S
C299 C298 1.367 . S
C299 C301 1.432 1_556 S
C300 C296 1.350 . S
C300 C297 1.463 . S
C300 N304 1.428 . S
C301 H291 0.930 . S
C301 C299 1.432 1_554 S
C301 N304 1.383 1_554 S
C302 H293 0.928 1_556 S
C302 C294 1.378 . S
C302 C297 1.350 . S
C303 H290 0.929 . S
C303 C295 1.433 . S
C303 N305 1.384 . S
N304 C300 1.428 . S
N304 C301 1.383 1_556 S
N305 C297 1.427 . S
N305 C303 1.384 . S
H306 C312 0.930 . S
H307 C316 0.930 . S
H308 C321 0.929 . S
H309 C319 0.929 . S
H310 C314 0.929 . S
H311 C320 0.929 . S
C312 H306 0.930 . S
C312 C313 1.381 . S
C312 C320 1.378 . S
C313 C312 1.381 . S
C313 C321 1.419 1_556 S
C314 H310 0.929 . S
C314 C316 1.378 . S
C314 C318 1.324 1_554 S
C315 C318 1.464 . S
C315 C320 1.350 . S
C315 N323 1.427 1_556 S
C316 H307 0.930 . S
C316 C314 1.378 . S
C316 C317 1.367 1_554 S
C317 C316 1.367 1_556 S
C317 C319 1.433 . S
C318 C314 1.324 1_556 S
C318 C315 1.464 . S
C318 N322 1.455 . S
C319 H309 0.929 . S
C319 C317 1.433 . S
C319 N322 1.384 . S
C320 H311 0.929 . S
C320 C312 1.378 . S
C320 C315 1.350 . S
C321 H308 0.929 . S
C321 C313 1.419 1_554 S
C321 N323 1.384 . S
N322 C318 1.455 . S
N322 C319 1.384 . S
N323 C315 1.427 1_554 S
N323 C321 1.384 . S
H324 C330 0.930 . S
H325 C334 0.930 . S
H326 C339 0.929 . S
H327 C337 0.929 . S
H328 C332 0.929 . S
H329 C338 0.929 . S
C330 H324 0.930 . S
C330 C331 1.367 . S
C330 C338 1.378 . S
C331 C330 1.367 . S
C331 C339 1.433 1_554 S
C332 H328 0.929 . S
C332 C334 1.378 . S
C332 C336 1.350 1_556 S
C333 C336 1.463 . S
C333 C338 1.350 . S
C333 N341 1.427 1_554 S
C334 H325 0.930 . S
C334 C332 1.378 . S
C334 C335 1.367 1_556 S
C335 C334 1.367 1_554 S
C335 C337 1.433 . S
C336 C332 1.350 1_554 S
C336 C333 1.463 . S
C336 N340 1.427 . S
C337 H327 0.929 . S
C337 C335 1.433 . S
C337 N340 1.384 . S
C338 H329 0.929 . S
C338 C330 1.378 . S
C338 C333 1.350 . S
C339 H326 0.929 . S
C339 C331 1.433 1_556 S
C339 N341 1.384 . S
N340 C336 1.427 . S
N340 C337 1.384 . S
N341 C333 1.427 1_556 S
N341 C339 1.384 . S
H342 C348 0.930 . S
H343 C352 0.930 . S
H344 C357 0.929 . S
H345 C355 0.929 . S
H346 C350 0.929 . S
H347 C356 0.929 . S
C348 H342 0.930 . S
C348 C349 1.367 1_556 S
C348 C356 1.378 . S
C349 C348 1.367 1_554 S
C349 C357 1.433 . S
C350 H346 0.929 . S
C350 C352 1.378 . S
C350 C354 1.350 . S
C351 C354 1.463 . S
C351 C356 1.350 1_554 S
C351 N359 1.427 . S
C352 H343 0.930 . S
C352 C350 1.378 . S
C352 C353 1.367 . S
C353 C352 1.367 . S
C353 C355 1.433 1_554 S
C354 C350 1.350 . S
C354 C351 1.463 . S
C354 N358 1.427 1_554 S
C355 H345 0.929 . S
C355 C353 1.433 1_556 S
C355 N358 1.384 . S
C356 H347 0.929 . S
C356 C348 1.378 . S
C356 C351 1.350 1_556 S
C357 H344 0.929 . S
C357 C349 1.433 . S
C357 N359 1.384 . S
N358 C354 1.427 1_556 S
N358 C355 1.384 . S
N359 C351 1.427 . S
N359 C357 1.384 . S
H360 C366 0.930 . S
H361 C370 0.930 . S
H362 C375 0.929 . S
H363 C373 0.929 . S
H364 C368 0.929 . S
H365 C374 0.929 . S
C366 H360 0.930 . S
C366 C367 1.367 1_556 S
C366 C374 1.378 . S
C367 C366 1.367 1_554 S
C367 C375 1.433 . S
C368 H364 0.929 . S
C368 C370 1.378 . S
C368 C372 1.350 . S
C369 C372 1.463 . S
C369 C374 1.350 1_554 S
C369 N377 1.427 . S
C370 H361 0.930 . S
C370 C368 1.378 . S
C370 C371 1.367 . S
C371 C370 1.367 . S
C371 C373 1.433 1_554 S
C372 C368 1.350 . S
C372 C369 1.463 . S
C372 N376 1.427 1_554 S
C373 H363 0.929 . S
C373 C371 1.433 1_556 S
C373 N376 1.384 . S
C374 H365 0.929 . S
C374 C366 1.378 . S
C374 C369 1.350 1_556 S
C375 H362 0.929 . S
C375 C367 1.433 . S
C375 N377 1.384 . S
N376 C372 1.427 1_556 S
N376 C373 1.384 . S
N377 C369 1.427 . S
N377 C375 1.384 . S
H378 C384 0.930 . S
H379 C388 0.930 1_455 S
H380 C393 0.929 . S
H381 C391 0.929 1_455 S
H382 C386 0.929 . S
H383 C392 0.929 . S
C384 H378 0.930 . S
C384 C385 1.367 . S
C384 C392 1.378 . S
C385 C384 1.367 . S
C385 C393 1.433 . S
C386 H382 0.929 . S
C386 C388 1.378 . S
C386 C390 1.350 . S
C387 C390 1.463 . S
C387 C392 1.350 . S
C387 N395 1.427 . S
C388 H379 0.930 1_655 S
C388 C386 1.378 . S
C388 C389 1.367 1_655 S
C389 C388 1.367 1_455 S
C389 C391 1.433 1_455 S
C390 C386 1.350 . S
C390 C387 1.463 . S
C390 N394 1.427 . S
C391 H381 0.929 1_655 S
C391 C389 1.433 1_655 S
C391 N394 1.384 . S
C392 H383 0.929 . S
C392 C384 1.378 . S
C392 C387 1.350 . S
C393 H380 0.929 . S
C393 C385 1.433 . S
C393 N395 1.384 . S
N394 C390 1.427 . S
N394 C391 1.384 . S
N395 C387 1.427 . S
N395 C393 1.384 . S
H396 C402 0.930 . S
H397 C406 0.930 . S
H398 C411 0.929 . S
H399 C409 0.929 . S
H400 C404 0.929 . S
H401 C410 0.929 . S
C402 H396 0.930 . S
C402 C403 1.367 . S
C402 C410 1.378 . S
C403 C402 1.367 . S
C403 C411 1.433 . S
C404 H400 0.929 . S
C404 C406 1.378 . S
C404 C408 1.350 . S
C405 C408 1.463 . S
C405 C410 1.350 . S
C405 N413 1.427 . S
C406 H397 0.930 . S
C406 C404 1.378 . S
C406 C407 1.367 . S
C407 C406 1.367 . S
C407 C409 1.433 . S
C408 C404 1.350 . S
C408 C405 1.463 . S
C408 N412 1.427 . S
C409 H399 0.929 . S
C409 C407 1.433 . S
C409 N412 1.384 . S
C410 H401 0.929 . S
C410 C402 1.378 . S
C410 C405 1.350 . S
C411 H398 0.929 . S
C411 C403 1.433 . S
C411 N413 1.384 . S
N412 C408 1.427 . S
N412 C409 1.384 . S
N413 C405 1.427 . S
N413 C411 1.384 . S
H414 C420 0.930 1_455 S
H415 C424 0.930 . S
H416 C429 0.929 . S
H417 C427 0.929 . S
H418 C422 0.929 . S
H419 C428 0.929 . S
C420 H414 0.930 1_655 S
C420 C421 1.367 . S
C420 C428 1.378 . S
C421 C420 1.367 . S
C421 C429 1.433 . S
C422 H418 0.929 . S
C422 C424 1.378 . S
C422 C426 1.350 . S
C423 C426 1.463 . S
C423 C428 1.350 . S
C423 N431 1.427 . S
C424 H415 0.930 . S
C424 C422 1.378 . S
C424 C425 1.367 . S
C425 C424 1.367 . S
C425 C427 1.433 . S
C426 C422 1.350 . S
C426 C423 1.463 . S
C426 N430 1.427 . S
C427 H417 0.929 . S
C427 C425 1.433 . S
C427 N430 1.384 . S
C428 H419 0.929 . S
C428 C420 1.378 . S
C428 C423 1.350 . S
C429 H416 0.929 . S
C429 C421 1.433 . S
C429 N431 1.384 . S
N430 C426 1.427 . S
N430 C427 1.384 . S
N431 C423 1.427 . S
N431 C429 1.384 . S
H432 C438 0.930 . S
H433 C442 0.930 . S
H434 C447 0.929 . S
H435 C445 0.929 . S
H436 C440 0.929 . S
H437 C446 0.929 . S
C438 H432 0.930 . S
C438 C439 1.367 . S
C438 C446 1.378 . S
C439 C438 1.367 . S
C439 C447 1.433 . S
C440 H436 0.929 . S
C440 C442 1.378 . S
C440 C444 1.350 . S
C441 C444 1.463 . S
C441 C446 1.350 . S
C441 N449 1.427 . S
C442 H433 0.930 . S
C442 C440 1.378 . S
C442 C443 1.367 . S
C443 C442 1.367 . S
C443 C445 1.433 . S
C444 C440 1.350 . S
C444 C441 1.463 . S
C444 N448 1.427 . S
C445 H435 0.929 . S
C445 C443 1.433 . S
C445 N448 1.384 . S
C446 H437 0.929 . S
C446 C438 1.378 . S
C446 C441 1.350 . S
C447 H434 0.929 . S
C447 C439 1.433 . S
C447 N449 1.384 . S
N448 C444 1.427 . S
N448 C445 1.384 . S
N449 C441 1.427 . S
N449 C447 1.384 . S
H450 C456 0.930 . S
H451 C460 0.930 . S
H452 C465 0.929 . S
H453 C463 0.929 . S
H454 C458 0.929 . S
H455 C464 0.929 . S
C456 H450 0.930 . S
C456 C457 1.367 . S
C456 C464 1.378 . S
C457 C456 1.367 . S
C457 C465 1.433 . S
C458 H454 0.929 . S
C458 C460 1.378 . S
C458 C462 1.350 . S
C459 C462 1.463 . S
C459 C464 1.350 . S
C459 N467 1.427 . S
C460 H451 0.930 . S
C460 C458 1.378 . S
C460 C461 1.367 . S
C461 C460 1.367 . S
C461 C463 1.433 . S
C462 C458 1.350 . S
C462 C459 1.463 . S
C462 N466 1.427 . S
C463 H453 0.929 . S
C463 C461 1.433 . S
C463 N466 1.384 . S
C464 H455 0.929 . S
C464 C456 1.378 . S
C464 C459 1.350 . S
C465 H452 0.929 . S
C465 C457 1.433 . S
C465 N467 1.384 . S
N466 C462 1.427 . S
N466 C463 1.384 . S
N467 C459 1.427 . S
N467 C465 1.384 . S
H468 C474 0.930 . S
H469 C478 0.930 . S
H470 C483 0.929 . S
H471 C481 0.929 . S
H472 C476 0.929 . S
H473 C482 0.929 . S
C474 H468 0.930 . S
C474 C475 1.367 . S
C474 C482 1.378 . S
C475 C474 1.367 . S
C475 C483 1.433 . S
C476 H472 0.929 . S
C476 C478 1.378 . S
C476 C480 1.350 . S
C477 C480 1.463 . S
C477 C482 1.350 . S
C477 N485 1.427 . S
C478 H469 0.930 . S
C478 C476 1.378 . S
C478 C479 1.367 . S
C479 C478 1.367 . S
C479 C481 1.433 . S
C480 C476 1.350 . S
C480 C477 1.463 . S
C480 N484 1.427 . S
C481 H471 0.929 . S
C481 C479 1.433 . S
C481 N484 1.384 . S
C482 H473 0.929 . S
C482 C474 1.378 . S
C482 C477 1.350 . S
C483 H470 0.929 . S
C483 C475 1.433 . S
C483 N485 1.384 . S
N484 C480 1.427 . S
N484 C481 1.384 . S
N485 C477 1.427 . S
N485 C483 1.384 . S
H486 C492 0.930 . S
H487 C496 0.930 . S
H488 C501 0.929 . S
H489 C499 0.929 . S
H490 C494 0.929 . S
H491 C500 0.929 . S
C492 H486 0.930 . S
C492 C493 1.367 . S
C492 C500 1.378 . S
C493 C492 1.367 . S
C493 C501 1.433 . S
C494 H490 0.929 . S
C494 C496 1.378 . S
C494 C498 1.350 . S
C495 C498 1.463 . S
C495 C500 1.350 . S
C495 N503 1.427 . S
C496 H487 0.930 . S
C496 C494 1.378 . S
C496 C497 1.367 . S
C497 C496 1.367 . S
C497 C499 1.433 . S
C498 C494 1.350 . S
C498 C495 1.463 . S
C498 N502 1.427 . S
C499 H489 0.929 . S
C499 C497 1.433 . S
C499 N502 1.384 . S
C500 H491 0.929 . S
C500 C492 1.378 . S
C500 C495 1.350 . S
C501 H488 0.929 . S
C501 C493 1.433 . S
C501 N503 1.384 . S
N502 C498 1.427 . S
N502 C499 1.384 . S
N503 C495 1.427 . S
N503 C501 1.384 . S
H504 C510 0.930 . S
H505 C514 0.930 . S
H506 C519 0.929 . S
H507 C517 0.929 . S
H508 C512 0.929 . S
H509 C518 0.929 . S
C510 H504 0.930 . S
C510 C511 1.367 . S
C510 C518 1.378 . S
C511 C510 1.367 . S
C511 C519 1.433 . S
C512 H508 0.929 . S
C512 C514 1.378 . S
C512 C516 1.350 . S
C513 C516 1.463 . S
C513 C518 1.350 . S
C513 N521 1.427 . S
C514 H505 0.930 . S
C514 C512 1.378 . S
C514 C515 1.367 . S
C515 C514 1.367 . S
C515 C517 1.433 . S
C516 C512 1.350 . S
C516 C513 1.463 . S
C516 N520 1.427 . S
C517 H507 0.929 . S
C517 C515 1.433 . S
C517 N520 1.384 . S
C518 H509 0.929 . S
C518 C510 1.378 . S
C518 C513 1.350 . S
C519 H506 0.929 . S
C519 C511 1.433 . S
C519 N521 1.384 . S
N520 C516 1.427 . S
N520 C517 1.384 . S
N521 C513 1.427 . S
N521 C519 1.384 . S
H522 C528 0.930 . S
H523 C532 0.930 . S
H524 C537 0.929 . S
H525 C535 0.929 . S
H526 C530 0.929 . S
H527 C536 0.929 . S
C528 H522 0.930 . S
C528 C529 1.367 . S
C528 C536 1.378 . S
C529 C528 1.367 . S
C529 C537 1.433 . S
C530 H526 0.929 . S
C530 C532 1.378 . S
C530 C534 1.350 . S
C531 C534 1.463 . S
C531 C536 1.350 . S
C531 N539 1.427 . S
C532 H523 0.930 . S
C532 C530 1.378 . S
C532 C533 1.367 . S
C533 C532 1.367 . S
C533 C535 1.433 . S
C534 C530 1.350 . S
C534 C531 1.463 . S
C534 N538 1.427 . S
C535 H525 0.929 . S
C535 C533 1.433 . S
C535 N538 1.384 . S
C536 H527 0.929 . S
C536 C528 1.378 . S
C536 C531 1.350 . S
C537 H524 0.929 . S
C537 C529 1.433 . S
C537 N539 1.384 . S
N538 C534 1.427 . S
N538 C535 1.384 . S
N539 C531 1.427 . S
N539 C537 1.384 . S
H540 C546 0.930 . S
H541 C550 0.930 . S
H542 C555 0.929 . S
H543 C553 0.929 . S
H544 C548 0.929 . S
H545 C554 0.929 . S
C546 H540 0.930 . S
C546 C547 1.367 . S
C546 C554 1.378 . S
C547 C546 1.367 . S
C547 C555 1.433 . S
C548 H544 0.929 . S
C548 C550 1.378 1_565 S
C548 C552 1.350 . S
C549 C552 1.463 . S
C549 C554 1.350 . S
C549 N557 1.427 . S
C550 H541 0.930 . S
C550 C548 1.378 1_545 S
C550 C551 1.367 . S
C551 C550 1.367 . S
C551 C553 1.433 . S
C552 C548 1.350 . S
C552 C549 1.463 . S
C552 N556 1.427 . S
C553 H543 0.929 . S
C553 C551 1.433 . S
C553 N556 1.384 1_545 S
C554 H545 0.929 . S
C554 C546 1.378 . S
C554 C549 1.350 . S
C555 H542 0.929 . S
C555 C547 1.433 . S
C555 N557 1.384 . S
N556 C552 1.427 . S
N556 C553 1.384 1_565 S
N557 C549 1.427 . S
N557 C555 1.384 . S
H558 C564 0.930 . S
H559 C568 0.930 . S
H560 C573 0.929 . S
H561 C571 0.929 . S
H562 C566 0.929 . S
H563 C572 0.929 . S
C564 H558 0.930 . S
C564 C565 1.367 . S
C564 C572 1.378 . S
C565 C564 1.367 . S
C565 C573 1.433 . S
C566 H562 0.929 . S
C566 C568 1.378 . S
C566 C570 1.350 . S
C567 C570 1.468 . S
C567 C572 1.344 1_455 S
C567 N575 1.429 1_455 S
C568 H559 0.930 . S
C568 C566 1.378 . S
C568 C569 1.367 . S
C569 C568 1.367 . S
C569 C571 1.433 . S
C570 C566 1.350 . S
C570 C567 1.468 . S
C570 N574 1.427 . S
C571 H561 0.929 . S
C571 C569 1.433 . S
C571 N574 1.384 . S
C572 H563 0.929 . S
C572 C564 1.378 . S
C572 C567 1.344 1_655 S
C573 H560 0.929 . S
C573 C565 1.433 . S
C573 N575 1.384 . S
N574 C570 1.427 . S
N574 C571 1.384 . S
N575 C567 1.429 1_655 S
N575 C573 1.384 . S
H576 C582 0.930 . S
H577 C586 0.930 . S
H578 C591 0.929 . S
H579 C589 0.929 . S
H580 C584 0.929 . S
H581 C590 0.929 . S
C582 H576 0.930 . S
C582 C583 1.367 . S
C582 C590 1.378 . S
C583 C582 1.367 . S
C583 C591 1.433 . S
C584 H580 0.929 . S
C584 C586 1.378 . S
C584 C588 1.350 . S
C585 C588 1.463 . S
C585 C590 1.350 . S
C585 N593 1.427 . S
C586 H577 0.930 . S
C586 C584 1.378 . S
C586 C587 1.367 . S
C587 C586 1.367 . S
C587 C589 1.433 . S
C588 C584 1.350 . S
C588 C585 1.463 . S
C588 N592 1.427 . S
C589 H579 0.929 . S
C589 C587 1.433 . S
C589 N592 1.384 . S
C590 H581 0.929 . S
C590 C582 1.378 . S
C590 C585 1.350 . S
C591 H578 0.929 . S
C591 C583 1.433 . S
C591 N593 1.384 . S
N592 C588 1.427 . S
N592 C589 1.384 . S
N593 C585 1.427 . S
N593 C591 1.384 . S
H594 C600 0.930 . S
H595 C604 0.930 . S
H596 C609 0.929 . S
H597 C607 0.929 . S
H598 C602 0.929 1_655 S
H599 C608 0.929 . S
C600 H594 0.930 . S
C600 C601 1.367 . S
C600 C608 1.378 . S
C601 C600 1.367 . S
C601 C609 1.433 . S
C602 H598 0.929 1_455 S
C602 C604 1.378 1_455 S
C602 C606 1.350 . S
C603 C606 1.463 . S
C603 C608 1.350 . S
C603 N611 1.427 . S
C604 H595 0.930 . S
C604 C602 1.378 1_655 S
C604 C605 1.367 1_655 S
C605 C604 1.367 1_455 S
C605 C607 1.433 . S
C606 C602 1.350 . S
C606 C603 1.463 . S
C606 N610 1.427 . S
C607 H597 0.929 . S
C607 C605 1.433 . S
C607 N610 1.384 . S
C608 H599 0.929 . S
C608 C600 1.378 . S
C608 C603 1.350 . S
C609 H596 0.929 . S
C609 C601 1.433 . S
C609 N611 1.384 . S
N610 C606 1.427 . S
N610 C607 1.384 . S
N611 C603 1.427 . S
N611 C609 1.384 . S
H612 C618 0.930 . S
H613 C622 0.930 . S
H614 C627 0.929 . S
H615 C625 0.929 . S
H616 C620 0.929 . S
H617 C626 0.929 . S
C618 H612 0.930 . S
C618 C619 1.367 . S
C618 C626 1.378 . S
C619 C618 1.367 . S
C619 C627 1.433 . S
C620 H616 0.929 . S
C620 C622 1.378 . S
C620 C624 1.350 . S
C621 C624 1.463 . S
C621 C626 1.350 . S
C621 N629 1.427 . S
C622 H613 0.930 . S
C622 C620 1.378 . S
C622 C623 1.367 . S
C623 C622 1.367 . S
C623 C625 1.433 . S
C624 C620 1.350 . S
C624 C621 1.463 . S
C624 N628 1.427 . S
C625 H615 0.929 . S
C625 C623 1.433 . S
C625 N628 1.384 . S
C626 H617 0.929 . S
C626 C618 1.378 . S
C626 C621 1.350 . S
C627 H614 0.929 . S
C627 C619 1.433 . S
C627 N629 1.384 . S
N628 C624 1.427 . S
N628 C625 1.384 . S
N629 C621 1.427 . S
N629 C627 1.384 . S
H630 C636 0.930 . S
H631 C640 0.930 . S
H632 C645 0.929 . S
H633 C643 0.929 . S
H634 C638 0.929 . S
H635 C644 0.929 . S
C636 H630 0.930 . S
C636 C637 1.367 . S
C636 C644 1.378 . S
C637 C636 1.367 . S
C637 C645 1.433 . S
C638 H634 0.929 . S
C638 C640 1.378 . S
C638 C642 1.350 . S
C639 C642 1.463 . S
C639 C644 1.350 . S
C639 N647 1.427 . S
C640 H631 0.930 . S
C640 C638 1.378 . S
C640 C641 1.367 . S
C641 C640 1.367 . S
C641 C643 1.433 . S
C642 C638 1.350 . S
C642 C639 1.463 . S
C642 N646 1.427 . S
C643 H633 0.929 . S
C643 C641 1.433 . S
C643 N646 1.384 . S
C644 H635 0.929 . S
C644 C636 1.378 . S
C644 C639 1.350 . S
C645 H632 0.929 . S
C645 C637 1.433 . S
C645 N647 1.384 . S
N646 C642 1.427 . S
N646 C643 1.384 . S
N647 C639 1.427 . S
N647 C645 1.384 . S
H648 C654 0.930 . S
H649 C658 0.930 . S
H650 C663 0.929 . S
H651 C661 0.929 . S
H652 C656 0.929 . S
H653 C662 0.929 . S
C654 H648 0.930 . S
C654 C655 1.367 . S
C654 C662 1.378 . S
C655 C654 1.367 . S
C655 C663 1.433 . S
C656 H652 0.929 . S
C656 C658 1.378 . S
C656 C660 1.350 . S
C657 C660 1.463 . S
C657 C662 1.350 . S
C657 N665 1.427 . S
C658 H649 0.930 . S
C658 C656 1.378 . S
C658 C659 1.367 . S
C659 C658 1.367 . S
C659 C661 1.433 . S
C660 C656 1.350 . S
C660 C657 1.463 . S
C660 N664 1.427 . S
C661 H651 0.929 . S
C661 C659 1.433 . S
C661 N664 1.384 . S
C662 H653 0.929 . S
C662 C654 1.378 . S
C662 C657 1.350 . S
C663 H650 0.929 . S
C663 C655 1.433 . S
C663 N665 1.384 . S
N664 C660 1.427 . S
N664 C661 1.384 . S
N665 C657 1.427 . S
N665 C663 1.384 . S
H666 C672 0.930 . S
H667 C676 0.930 . S
H668 C681 0.929 . S
H669 C679 0.929 . S
H670 C674 0.929 . S
H671 C680 0.929 . S
C672 H666 0.930 . S
C672 C673 1.367 . S
C672 C680 1.378 . S
C673 C672 1.367 . S
C673 C681 1.433 . S
C674 H670 0.929 . S
C674 C676 1.378 . S
C674 C678 1.350 . S
C675 C678 1.463 . S
C675 C680 1.350 . S
C675 N683 1.427 . S
C676 H667 0.930 . S
C676 C674 1.378 . S
C676 C677 1.367 . S
C677 C676 1.367 . S
C677 C679 1.433 . S
C678 C674 1.350 . S
C678 C675 1.463 . S
C678 N682 1.427 . S
C679 H669 0.929 . S
C679 C677 1.433 . S
C679 N682 1.384 . S
C680 H671 0.929 . S
C680 C672 1.378 . S
C680 C675 1.350 . S
C681 H668 0.929 . S
C681 C673 1.433 . S
C681 N683 1.384 . S
N682 C678 1.427 . S
N682 C679 1.384 . S
N683 C675 1.427 . S
N683 C681 1.384 . S
H684 C690 0.930 . S
H685 C694 0.930 . S
H686 C699 0.929 . S
H687 C697 0.929 . S
H688 C692 0.929 . S
H689 C698 0.929 . S
C690 H684 0.930 . S
C690 C691 1.367 . S
C690 C698 1.378 . S
C691 C690 1.367 . S
C691 C699 1.433 . S
C692 H688 0.929 . S
C692 C694 1.378 . S
C692 C696 1.350 . S
C693 C696 1.463 . S
C693 C698 1.350 . S
C693 N701 1.427 . S
C694 H685 0.930 . S
C694 C692 1.378 . S
C694 C695 1.367 . S
C695 C694 1.367 . S
C695 C697 1.433 . S
C696 C692 1.350 . S
C696 C693 1.463 . S
C696 N700 1.427 . S
C697 H687 0.929 . S
C697 C695 1.433 . S
C697 N700 1.384 . S
C698 H689 0.929 . S
C698 C690 1.378 . S
C698 C693 1.350 . S
C699 H686 0.929 . S
C699 C691 1.433 . S
C699 N701 1.384 . S
N700 C696 1.427 . S
N700 C697 1.384 . S
N701 C693 1.427 . S
N701 C699 1.384 . S
H702 C708 0.930 . S
H703 C712 0.930 . S
H704 C717 0.929 . S
H705 C715 0.929 . S
H706 C710 0.929 . S
H707 C716 0.929 . S
C708 H702 0.930 . S
C708 C709 1.367 . S
C708 C716 1.378 . S
C709 C708 1.367 . S
C709 C717 1.433 . S
C710 H706 0.929 . S
C710 C712 1.378 . S
C710 C714 1.350 . S
C711 C714 1.463 . S
C711 C716 1.350 . S
C711 N719 1.427 . S
C712 H703 0.930 . S
C712 C710 1.378 . S
C712 C713 1.367 . S
C713 C712 1.367 . S
C713 C715 1.433 . S
C714 C710 1.350 . S
C714 C711 1.463 . S
C714 N718 1.427 . S
C715 H705 0.929 . S
C715 C713 1.433 . S
C715 N718 1.384 . S
C716 H707 0.929 . S
C716 C708 1.378 . S
C716 C711 1.350 . S
C717 H704 0.929 . S
C717 C709 1.433 . S
C717 N719 1.384 . S
N718 C714 1.427 . S
N718 C715 1.384 . S
N719 C711 1.427 . S
N719 C717 1.384 . S
H720 C726 0.930 . S
H721 C730 0.930 . S
H722 C735 0.929 . S
H723 C733 0.929 . S
H724 C728 0.929 . S
H725 C734 0.929 . S
C726 H720 0.930 . S
C726 C727 1.367 . S
C726 C734 1.378 . S
C727 C726 1.367 . S
C727 C735 1.433 . S
C728 H724 0.929 . S
C728 C730 1.378 . S
C728 C732 1.350 . S
C729 C732 1.463 1_565 S
C729 C734 1.350 . S
C729 N737 1.427 . S
C730 H721 0.930 . S
C730 C728 1.378 . S
C730 C731 1.367 . S
C731 C730 1.367 . S
C731 C733 1.433 . S
C732 C728 1.350 . S
C732 C729 1.463 1_545 S
C732 N736 1.427 . S
C733 H723 0.929 . S
C733 C731 1.433 . S
C733 N736 1.384 . S
C734 H725 0.929 . S
C734 C726 1.378 . S
C734 C729 1.350 . S
C735 H722 0.929 . S
C735 C727 1.433 . S
C735 N737 1.384 . S
N736 C732 1.427 . S
N736 C733 1.384 . S
N737 C729 1.427 . S
N737 C735 1.384 . S
H738 C744 0.930 . S
H739 C748 0.930 . S
H740 C753 0.929 . S
H741 C751 0.929 . S
H742 C746 0.929 . S
H743 C752 0.929 . S
C744 H738 0.930 . S
C744 C745 1.367 . S
C744 C752 1.378 . S
C745 C744 1.367 . S
C745 C753 1.433 . S
C746 H742 0.929 . S
C746 C748 1.378 . S
C746 C750 1.350 . S
C747 C750 1.463 1_655 S
C747 C752 1.350 . S
C747 N755 1.427 1_655 S
C748 H739 0.930 . S
C748 C746 1.378 . S
C748 C749 1.367 . S
C749 C748 1.367 . S
C749 C751 1.433 . S
C750 C746 1.350 . S
C750 C747 1.463 1_455 S
C750 N754 1.427 1_455 S
C751 H741 0.929 . S
C751 C749 1.433 . S
C751 N754 1.384 1_455 S
C752 H743 0.929 . S
C752 C744 1.378 . S
C752 C747 1.350 . S
C753 H740 0.929 . S
C753 C745 1.433 . S
C753 N755 1.384 1_655 S
N754 C750 1.427 1_655 S
N754 C751 1.384 1_655 S
N755 C747 1.427 1_455 S
N755 C753 1.384 1_455 S
C277 C57 1.779 . S
C281 C16 1.735 . S
C295 N66 0.406 . S
C299 N44 0.387 . S
C313 C76 1.141 1_556 S
C317 N6 1.156 . S
C331 N74 0.549 . S
C335 N36 0.578 . S
C349 C87 0.952 . S
C353 N14 0.937 . S
C367 C27 2.006 . S
C371 C46 1.952 . S
C385 C106 0.449 . S
C389 N126 0.448 . S
C403 N156 1.381 . S
C407 C136 1.370 1_545 S
C421 C166 1.207 1_655 S
C425 N96 1.221 1_545 S
C439 C147 1.863 . S
C443 N164 1.820 . S
C457 C177 0.850 . S
C461 N104 0.839 . S
C475 N134 0.897 . S
C479 C117 0.911 . S
C493 C237 1.804 . S
C497 C196 1.767 . S
C511 N224 0.435 . S
C515 N246 0.434 . S
C529 C256 1.130 . S
C533 N186 1.143 . S
C547 N254 0.593 . S
C551 N216 0.581 . S
C565 C267 0.948 . S
C569 N194 0.939 . S
C583 C207 1.989 . S
C587 C226 1.931 1_455 S
C601 C151 2.070 . S
C605 C10 2.135 . S
C619 C91 2.169 . S
C623 C31 2.179 . S
C637 C70 1.954 . S
C641 C121 1.881 . S
C655 C61 2.045 . S
C659 C190 2.114 . S
C673 C1 2.193 . S
C677 C211 2.200 . S
C691 C250 1.940 . S
C695 C40 1.939 . S
C709 C100 2.106 . S
C713 C241 2.043 . S
C727 C130 2.267 . S
C731 C181 2.180 . S
C745 C220 1.972 . S
C749 C160 1.973 . S
