# Generated by pormake.
# Topology smc, (6)-cn, num edge types: 1
# Building blocks:
#     Node 0, Type 0, BuildingBlock: MIDCAF_clean_sbu_0, # of connection points: 6
#     Node 1, Type 0, BuildingBlock: MIDCAF_clean_sbu_0, # of connection points: 6
#     Node 2, Type 0, BuildingBlock: MIDCAF_clean_sbu_0, # of connection points: 6
#     Node 3, Type 0, BuildingBlock: MIDCAF_clean_sbu_0, # of connection points: 6
#     Node 4, Type 0, BuildingBlock: MIDCAF_clean_sbu_0, # of connection points: 6
#     Node 5, Type 0, BuildingBlock: MIDCAF_clean_sbu_0, # of connection points: 6
#     Node 6, Type 0, BuildingBlock: MIDCAF_clean_sbu_0, # of connection points: 6
#     Node 7, Type 0, BuildingBlock: MIDCAF_clean_sbu_0, # of connection points: 6
#     Node 8, Type 0, BuildingBlock: MIDCAF_clean_sbu_0, # of connection points: 6
#     Edge 9, Type (0, 0), BuildingBlock: KIFKEQ_clean_linker_1, # of connection points: 2
#     Edge 10, Type (0, 0), BuildingBlock: KIFKEQ_clean_linker_1, # of connection points: 2
#     Edge 11, Type (0, 0), BuildingBlock: KIFKEQ_clean_linker_1, # of connection points: 2
#     Edge 12, Type (0, 0), BuildingBlock: KIFKEQ_clean_linker_1, # of connection points: 2
#     Edge 13, Type (0, 0), BuildingBlock: KIFKEQ_clean_linker_1, # of connection points: 2
#     Edge 14, Type (0, 0), BuildingBlock: KIFKEQ_clean_linker_1, # of connection points: 2
#     Edge 15, Type (0, 0), BuildingBlock: KIFKEQ_clean_linker_1, # of connection points: 2
#     Edge 16, Type (0, 0), BuildingBlock: KIFKEQ_clean_linker_1, # of connection points: 2
#     Edge 17, Type (0, 0), BuildingBlock: KIFKEQ_clean_linker_1, # of connection points: 2
#     Edge 18, Type (0, 0), BuildingBlock: KIFKEQ_clean_linker_1, # of connection points: 2
#     Edge 19, Type (0, 0), BuildingBlock: KIFKEQ_clean_linker_1, # of connection points: 2
#     Edge 20, Type (0, 0), BuildingBlock: KIFKEQ_clean_linker_1, # of connection points: 2
#     Edge 21, Type (0, 0), BuildingBlock: KIFKEQ_clean_linker_1, # of connection points: 2
#     Edge 22, Type (0, 0), BuildingBlock: KIFKEQ_clean_linker_1, # of connection points: 2
#     Edge 23, Type (0, 0), BuildingBlock: KIFKEQ_clean_linker_1, # of connection points: 2
#     Edge 24, Type (0, 0), BuildingBlock: KIFKEQ_clean_linker_1, # of connection points: 2
#     Edge 25, Type (0, 0), BuildingBlock: KIFKEQ_clean_linker_1, # of connection points: 2
#     Edge 26, Type (0, 0), BuildingBlock: KIFKEQ_clean_linker_1, # of connection points: 2
#     Edge 27, Type (0, 0), BuildingBlock: KIFKEQ_clean_linker_1, # of connection points: 2
#     Edge 28, Type (0, 0), BuildingBlock: KIFKEQ_clean_linker_1, # of connection points: 2
#     Edge 29, Type (0, 0), BuildingBlock: KIFKEQ_clean_linker_1, # of connection points: 2
#     Edge 30, Type (0, 0), BuildingBlock: KIFKEQ_clean_linker_1, # of connection points: 2
#     Edge 31, Type (0, 0), BuildingBlock: KIFKEQ_clean_linker_1, # of connection points: 2
#     Edge 32, Type (0, 0), BuildingBlock: KIFKEQ_clean_linker_1, # of connection points: 2
#     Edge 33, Type (0, 0), BuildingBlock: KIFKEQ_clean_linker_1, # of connection points: 2
#     Edge 34, Type (0, 0), BuildingBlock: KIFKEQ_clean_linker_1, # of connection points: 2
#     Edge 35, Type (0, 0), BuildingBlock: KIFKEQ_clean_linker_1, # of connection points: 2
# Relax obj value: 0.332
# Max RMSD: 0.258
# Mean RMSD: 0.258
data_MOF--net-smc--node1-MIDCAF_clean_sbu_0--edge1-KIFKEQ_clean_linker_1
_symmetry_space_group_name_H-M    P1
_symmetry_Int_Tables_number       1
_symmetry_cell_setting            triclinic
loop_
_symmetry_equiv_pos_as_xyz
'x, y, z'
_cell_length_a     28.505383
_cell_length_b     28.847291
_cell_length_c     44.933535
_cell_angle_alpha  90.501012
_cell_angle_beta   89.58481
_cell_angle_gamma 120.06062
loop_
_atom_site_label
_atom_site_type_symbol
_atom_site_fract_x
_atom_site_fract_y
_atom_site_fract_z
_atom_type_partial_charge
Zn0 Zn 0.06669 0.42267 0.9752 0.0
Zn1 Zn 0.92708 0.36409 0.03986 0.0
Zn2 Zn -0.00151 0.39015 1.00868 0.0
C3 C 0.9067 0.27441 1.0108 0.0
C4 C 0.01325 0.40298 0.0763 0.0
O5 O 0.02384 0.47558 1.00595 0.0
O6 O 0.10658 0.49592 0.99383 0.0
C7 C 0.98324 0.35937 0.94137 0.0
O8 O 0.93473 0.31194 0.9922 0.0
O9 O 0.90595 0.28658 0.03779 0.0
O10 O 0.97198 0.40819 0.07404 0.0
O11 O 0.02816 0.38584 0.05358 0.0
O12 O 0.02226 0.40674 0.93868 0.0
O13 O 0.97014 0.33902 0.96766 0.0
O14 O 0.06623 0.38816 0.03035 0.0
O15 O 0.08968 0.37039 0.98712 0.0
C16 C 0.09419 0.3726 0.01511 0.0
O17 O 0.97068 0.44824 1.00188 0.0
O18 O 0.88703 0.38944 0.01406 0.0
C19 C 0.07484 0.51013 1.00486 0.0
C20 C 0.91971 0.43251 1.00112 0.0
Zn21 Zn 0.55912 0.61554 0.96255 0.0
Zn22 Zn 0.64423 0.55332 0.02315 0.0
Zn23 Zn 0.59972 0.58353 0.99457 0.0
C24 C 0.71705 0.60223 0.98297 0.0
C25 C 0.61632 0.6057 0.06242 0.0
O26 O 0.51228 0.52363 0.99574 0.0
O27 O 0.48696 0.58133 0.98309 0.0
C28 C 0.61419 0.58968 0.92461 0.0
O29 O 0.67099 0.58836 0.97083 0.0
O30 O 0.7202 0.60454 1.01097 0.0
O31 O 0.6188 0.56329 0.06218 0.0
O32 O 0.61852 0.62857 0.03749 0.0
O33 O 0.56827 0.58625 0.9242 0.0
O34 O 0.63829 0.59617 0.94977 0.0
O35 O 0.61232 0.65842 0.0148 0.0
O36 O 0.61124 0.69252 0.97143 0.0
C37 C 0.62148 0.699 0.99892 0.0
O38 O 0.54165 0.49909 1.00208 0.0
O39 O 0.60662 0.47927 1.00565 0.0
C40 C 0.47528 0.53664 0.99403 0.0
C41 C 0.55708 0.46416 1.00212 0.0
Zn42 Zn 0.46097 0.04912 0.06958 0.0
Zn43 Zn 0.38064 0.91766 0.98637 0.0
Zn44 Zn 0.41256 0.98292 0.02893 0.0
C45 C 0.29984 0.87919 0.03086 0.0
C46 C 0.39339 0.00915 0.96197 0.0
O47 O 0.49997 0.00734 0.03018 0.0
O48 O 0.53859 0.07737 0.06028 0.0
C49 C 0.38576 0.95869 0.09846 0.0
O50 O 0.33939 0.91402 0.04672 0.0
O51 O 0.30568 0.87706 1.00306 0.0
O52 O 0.39458 0.96789 0.95375 0.0
O53 O 0.39363 0.01975 0.99001 0.0
O54 O 0.43131 -0.00043 0.1032 0.0
O55 O 0.36685 0.94729 0.07169 0.0
O56 O 0.40732 0.05274 0.01592 0.0
O57 O 0.42792 0.09365 0.0596 0.0
C58 C 0.41136 0.09029 0.03322 0.0
O59 O 0.47152 0.95699 0.01861 0.0
O60 O 0.42931 0.887 0.98866 0.0
C61 C 0.5429 0.04654 0.04181 0.0
C62 C 0.46989 0.91723 1.00443 0.0
Zn63 Zn 0.73445 0.78931 0.30882 0.0
Zn64 Zn 0.5924 0.69726 0.37135 0.0
Zn65 Zn 0.66102 0.74271 0.33766 0.0
C66 C 0.57183 0.6276 0.32757 0.0
C67 C 0.68314 0.73465 0.40441 0.0
O68 O 0.68212 0.82595 0.34519 0.0
O69 O 0.76764 0.85069 0.33789 0.0
C70 C 0.65443 0.74292 0.26981 0.0
O71 O 0.59672 0.67331 0.31468 0.0
O72 O 0.5775 0.62584 0.35533 0.0
O73 O 0.63617 0.72783 0.40812 0.0
O74 O 0.69869 0.73121 0.37784 0.0
O75 O 0.69329 0.79013 0.27353 0.0
O76 O 0.63788 0.71091 0.29215 0.0
O77 O 0.72392 0.7256 0.35353 0.0
O78 O 0.75851 0.73502 0.30883 0.0
C79 C 0.75403 0.71779 0.335 0.0
O80 O 0.628 0.79597 0.34423 0.0
O81 O 0.54796 0.72826 0.35571 0.0
C82 C 0.73256 0.86049 0.34884 0.0
C83 C 0.57644 0.77596 0.34683 0.0
Zn84 Zn 0.2892 0.88984 0.40775 0.0
Zn85 Zn 0.18918 0.93607 0.34359 0.0
Zn86 Zn 0.23958 0.91318 0.37398 0.0
C87 C 0.25585 0.0268 0.3741 0.0
C88 C 0.24369 0.90907 0.30435 0.0
O89 O 0.18589 0.82818 0.38282 0.0
O90 O 0.25174 0.81283 0.39452 0.0
C91 C 0.26237 0.95069 0.44197 0.0
O92 O 0.25167 -0.01013 0.39159 0.0
O93 O 0.238 0.01469 0.34791 0.0
O94 O 0.19646 0.9023 0.3063 0.0
O95 O 0.27347 0.92259 0.3279 0.0
O96 O 0.26767 0.91031 0.446 0.0
O97 O 0.25948 0.96475 0.41514 0.0
O98 O 0.30909 0.91991 0.3496 0.0
O99 O 0.36155 0.93854 0.38874 0.0
C100 C 0.35603 0.93515 0.36077 0.0
O101 O 0.1538 0.8486 0.37474 0.0
O102 O 0.11832 0.89941 0.36555 0.0
C103 C 0.20332 0.79527 0.38653 0.0
C104 C 0.11237 0.85512 0.3739 0.0
Zn105 Zn 0.10707 0.38509 0.39298 0.0
Zn106 Zn 0.04625 0.25662 0.31459 0.0
Zn107 Zn 0.07335 0.32626 0.35246 0.0
C108 C 0.95916 0.22282 0.35221 0.0
C109 C 0.07255 0.35073 0.28516 0.0
O110 O 0.16079 0.35528 0.35555 0.0
O111 O 0.18322 0.43102 0.37848 0.0
C112 C 0.041 0.29647 0.42037 0.0
O113 O -0.00201 0.25811 0.36822 0.0
O114 O 0.96703 0.21888 0.32483 0.0
O115 O 0.07421 0.30819 0.28135 0.0
O116 O 0.06334 0.36308 0.31134 0.0
O117 O 0.08868 0.3331 0.4262 0.0
O118 O 0.02318 0.29085 0.39347 0.0
O119 O 0.06714 0.39449 0.33771 0.0
O120 O 0.05522 0.411 0.3841 0.0
C121 C 0.05312 0.41898 0.35664 0.0
O122 O 0.13544 0.30251 0.35091 0.0
O123 O 0.09106 0.22481 0.32745 0.0
C124 C 0.19695 0.40337 0.36269 0.0
C125 C 0.13133 0.25777 0.34264 0.0
Zn126 Zn 0.40327 0.22311 0.67397 0.0
Zn127 Zn 0.22769 0.12473 0.73771 0.0
Zn128 Zn 0.31506 0.17408 0.70597 0.0
C129 C 0.21234 0.06561 0.68542 0.0
C130 C 0.30724 0.13218 0.77441 0.0
O131 O 0.33952 0.26041 0.70506 0.0
O132 O 0.42036 0.29631 0.68365 0.0
C133 C 0.32721 0.15209 0.63496 0.0
O134 O 0.25634 0.10838 0.67822 0.0
O135 O 0.19337 0.05984 0.71149 0.0
O136 O 0.25906 0.12263 0.77616 0.0
O137 O 0.33307 0.1468 0.74935 0.0
O138 O 0.37339 0.19365 0.63385 0.0
O139 O 0.30149 0.13719 0.66001 0.0
O140 O 0.37409 0.15893 0.72872 0.0
O141 O 0.44192 0.19303 0.69629 0.0
C142 C 0.42094 0.16763 0.72 0.0
O143 O 0.28585 0.23169 0.71417 0.0
O144 O 0.20564 0.17928 0.73461 0.0
C145 C 0.38401 0.3017 0.69662 0.0
C146 C 0.24039 0.22447 0.72457 0.0
Zn147 Zn 0.87562 0.12267 0.68914 0.0
Zn148 Zn 0.77303 0.19201 0.65113 0.0
Zn149 Zn 0.82482 0.16217 0.67943 0.0
C150 C 0.84524 0.27336 0.69415 0.0
C151 C 0.83413 0.16996 0.60998 0.0
O152 O 0.77034 0.08206 0.69591 0.0
O153 O 0.81761 0.05583 0.6693 0.0
C154 C 0.87345 0.17698 0.74115 0.0
O155 O 0.86135 0.24009 0.69996 0.0
O156 O 0.80927 0.26229 0.67456 0.0
O157 O 0.79988 0.18562 0.61054 0.0
O158 O 0.84876 0.1584 0.63427 0.0
O159 O 0.87078 0.13264 0.73521 0.0
O160 O 0.8706 0.20425 0.71932 0.0
O161 O 0.90725 0.22753 0.69199 0.0
O162 O 0.93873 0.18331 0.66694 0.0
C163 C 0.94675 0.22725 0.67796 0.0
O164 O 0.74179 0.11664 0.69721 0.0
O165 O 0.69861 0.13787 0.66444 0.0
C166 C 0.7739 0.04466 0.68247 0.0
C167 C 0.69764 0.11257 0.68746 0.0
Zn168 Zn 0.87763 0.71693 0.69047 0.0
Zn169 Zn 0.7826 0.58627 0.623 0.0
Zn170 Zn 0.81565 0.6599 0.65775 0.0
C171 C 0.69434 0.58907 0.65726 0.0
C172 C 0.82143 0.6759 0.58737 0.0
O173 O 0.87759 0.72999 0.63456 0.0
O174 O 0.93773 0.72544 0.66261 0.0
C175 C 0.79322 0.64594 0.7246 0.0
O176 O 0.73228 0.63094 0.67015 0.0
O177 O 0.70631 0.56393 0.63812 0.0
O178 O 0.8044 0.62635 0.58457 0.0
O179 O 0.82867 0.69675 0.61353 0.0
O180 O 0.84403 0.66448 0.72489 0.0
O181 O 0.77082 0.64888 0.70032 0.0
O182 O 0.7675 0.68939 0.6799 0.0
O183 O 0.84454 0.76554 0.68238 0.0
C184 C 0.7932 0.74093 0.68112 0.0
O185 O 0.85525 0.62001 0.67404 0.0
O186 O 0.82854 0.55731 0.63979 0.0
C187 C 0.92691 0.74252 0.63925 0.0
C188 C 0.85624 0.58005 0.66278 0.0
H189 H 0.41329 0.42744 0.99189 0.0
H190 H 0.41279 0.56907 0.02237 0.0
H191 H 0.32181 0.37164 0.01159 0.0
H192 H 0.31991 0.51504 0.03896 0.0
H193 H 0.15504 0.42638 0.06394 0.0
H194 H 0.25091 0.45502 0.06918 0.0
H195 H 0.23714 0.34933 0.99658 0.0
H196 H 0.14168 0.31855 0.9931 0.0
C197 C 0.39403 0.44635 1.00361 0.0
C198 C 0.42046 0.50219 1.00631 0.0
C199 C 0.34107 0.41464 0.01434 0.0
C200 C 0.31268 0.43843 0.027 0.0
C201 C 0.34015 0.49459 0.03016 0.0
C202 C 0.3933 0.52592 0.02005 0.0
C203 C 0.17202 0.40719 0.05032 0.0
C204 C 0.14144 0.37153 0.02748 0.0
C205 C 0.22735 0.42439 0.05284 0.0
C206 C 0.25284 0.40679 0.03224 0.0
C207 C 0.21988 0.36471 0.01268 0.0
C208 C 0.16468 0.34694 1.01057 0.0
H209 H 0.50993 0.87971 0.96175 0.0
H210 H 0.52916 0.92852 0.05404 0.0
H211 H 0.57336 0.84733 0.96846 0.0
H212 H 0.59164 0.89417 0.06107 0.0
H213 H 0.5696 0.71116 0.04637 0.0
H214 H 0.55587 0.78711 0.05404 0.0
H215 H 0.6741 0.87453 0.98573 0.0
H216 H 0.68946 0.79905 0.97887 0.0
C217 C 0.52866 0.88441 0.9833 0.0
C218 C 0.51439 0.90586 1.00745 0.0
C219 C 0.56539 0.86651 0.9871 0.0
C220 C 0.58748 0.8686 0.01527 0.0
C221 C 0.57545 0.89268 0.03912 0.0
C222 C 0.5397 0.91202 0.0351 0.0
C223 C 0.59585 0.7481 0.03474 0.0
C224 C 0.63096 0.74957 0.01226 0.0
C225 C 0.58762 0.79152 0.03893 0.0
C226 C 0.61351 0.83621 0.02018 0.0
C227 C 0.65375 0.84041 1.00041 0.0
C228 C 0.66252 0.7973 0.99653 0.0
H229 H 0.19688 0.8373 0.01139 0.0
H230 H 0.29346 0.81909 0.0787 0.0
H231 H 0.12797 0.74338 0.0164 0.0
H232 H 0.22451 0.72453 0.08358 0.0
H233 H 0.18038 0.57993 0.01643 0.0
H234 H 0.22049 0.66941 0.03699 0.0
H235 H 0.06222 0.65406 0.04437 0.0
H236 H 0.02101 0.56219 0.02459 0.0
C237 C 0.20181 0.81383 0.02849 0.0
C238 C 0.25079 0.83482 0.0442 0.0
C239 C 0.16228 0.75999 0.03139 0.0
C240 C 0.17171 0.72646 0.04976 0.0
C241 C 0.21673 0.74958 0.06896 0.0
C242 C 0.25603 0.80375 0.06632 0.0
C243 C 0.15374 0.59512 0.02259 0.0
C244 C 0.09753 0.56438 0.01799 0.0
C245 C 0.17678 0.64623 0.03491 0.0
C246 C 0.14443 0.66851 0.04264 0.0
C247 C 0.08797 0.63757 0.03879 0.0
C248 C 0.06456 0.58543 0.02704 0.0
H249 H 0.38623 0.15477 0.0654 0.0
H250 H 0.4251 0.1276 0.97641 0.0
H251 H 0.40441 0.24288 0.05128 0.0
H252 H 0.43791 0.21368 0.96108 0.0
H253 H 0.57063 0.39226 0.97014 0.0
H254 H 0.51428 0.29563 0.97104 0.0
H255 H 0.39844 0.3103 0.02744 0.0
H256 H 0.45847 0.40727 0.02864 0.0
C257 C 0.39613 0.16668 0.04236 0.0
C258 C 0.40471 0.13446 0.02202 0.0
C259 C 0.40601 0.2172 0.03408 0.0
C260 C 0.42408 0.23624 1.00513 0.0
C261 C 0.42556 0.20094 0.9838 0.0
C262 C 0.41691 0.15084 0.99234 0.0
C263 C 0.53263 0.37463 0.9823 0.0
C264 C 0.51819 0.40685 0.99894 0.0
C265 C 0.49969 0.31916 0.98248 0.0
C266 C 0.45141 0.29471 0.99929 0.0
C267 C 0.43548 0.32756 0.01446 0.0
C268 C 0.46919 0.38313 0.01473 0.0
H269 H 0.63227 0.08647 0.07627 0.0
H270 H 0.57595 0.03221 0.98688 0.0
H271 H 0.72517 0.12067 0.05999 0.0
H272 H 0.67006 0.06767 0.97018 0.0
H273 H 0.88511 0.18135 0.0364 0.0
H274 H 0.79515 0.10199 0.03783 0.0
H275 H 0.7436 0.16748 0.9676 0.0
H276 H 0.83417 0.24622 0.96573 0.0
C277 C 0.63985 0.08078 0.05323 0.0
C278 C 0.59723 0.05735 0.03278 0.0
C279 C 0.69305 0.09986 0.04389 0.0
C280 C 0.70498 0.09681 0.01374 0.0
C281 C 0.66199 0.07042 0.99352 0.0
C282 C 0.60831 0.05016 1.00308 0.0
C283 C 0.85546 0.17718 0.02005 0.0
C284 C 0.86597 0.22006 1.00134 0.0
C285 C 0.80387 0.13194 0.02099 0.0
C286 C 0.76198 0.12948 1.00354 0.0
C287 C 0.77502 0.16837 0.98142 0.0
C288 C 0.82701 0.21351 0.98026 0.0
H289 H 0.97682 0.53438 0.97765 0.0
H290 H 0.81464 0.40073 0.98964 0.0
H291 H 0.93893 0.58801 0.95833 0.0
H292 H 0.77741 0.45311 0.96994 0.0
H293 H 0.70639 0.53655 0.93649 0.0
H294 H 0.76763 0.50193 0.92743 0.0
H295 H 0.88567 0.62313 0.98596 0.0
H296 H 0.82499 0.65834 0.99442 0.0
C297 C 0.93329 0.51634 0.97597 0.0
C298 C 0.8987 0.46394 0.98616 0.0
C299 C 0.91167 0.54681 0.96459 0.0
C300 C 0.8552 0.52478 0.96246 0.0
C301 C 0.8211 0.47118 0.97076 0.0
C302 C 0.84251 0.4413 0.98254 0.0
C303 C 0.74674 0.5579 0.9459 0.0
C304 C 0.76059 0.5994 0.96664 0.0
C305 C 0.78164 0.53768 0.94097 0.0
C306 C 0.83059 0.55865 0.95683 0.0
C307 C 0.84811 0.6058 0.97357 0.0
C308 C 0.81325 0.626 0.97847 0.0
H309 H 0.76678 0.68646 0.39089 0.0
H310 H 0.82668 0.7063 0.30079 0.0
H311 H 0.85271 0.69725 0.40907 0.0
H312 H 0.90978 0.71359 0.31827 0.0
H313 H 0.06683 0.75836 0.34673 0.0
H314 H 0.97033 0.69195 0.3447 0.0
H315 H 0.93706 0.78791 0.40632 0.0
H316 H 0.03372 0.85277 0.40912 0.0
C317 C 0.79787 0.69225 0.37502 0.0
C318 C 0.79228 0.70048 0.34483 0.0
C319 C 0.84651 0.69737 0.38532 0.0
C320 C 0.88881 0.70827 0.36518 0.0
C321 C 0.87849 0.70594 0.33452 0.0
C322 C 0.83071 0.7022 0.32444 0.0
C323 C 0.03901 0.7635 0.36105 0.0
C324 C 0.05732 0.81003 0.37834 0.0
C325 C 0.98381 0.72575 0.35977 0.0
C326 C 0.94599 0.73486 0.37513 0.0
C327 C 0.96506 0.77922 0.39451 0.0
C328 C 0.02031 0.81676 0.39588 0.0
H329 H 0.18469 0.27947 0.39559 0.0
H330 H 0.16906 0.2043 0.30992 0.0
H331 H 0.24125 0.2429 0.41299 0.0
H332 H 0.2265 0.16968 0.32672 0.0
H333 H 0.33181 0.11865 0.34914 0.0
H334 H 0.32391 0.19885 0.34748 0.0
H335 H 0.20557 0.13631 0.41833 0.0
H336 H 0.21424 0.05626 0.42024 0.0
C337 C 0.19476 0.25651 0.38028 0.0
C338 C 0.17236 0.24407 0.35155 0.0
C339 C 0.22703 0.23581 0.39021 0.0
C340 C 0.23863 0.20406 0.37111 0.0
C341 C 0.21902 0.19486 0.34176 0.0
C342 C 0.18573 0.21417 0.33219 0.0
C343 C 0.3069 0.12376 0.3657 0.0
C344 C 0.27281 0.08124 0.38441 0.0
C345 C 0.30221 0.16952 0.36466 0.0
C346 C 0.263 0.1728 0.38215 0.0
C347 C 0.236 0.13457 0.40454 0.0
C348 C 0.24101 0.08877 0.40571 0.0
H349 H 0.85857 0.17143 0.328 0.0
H350 H 0.94797 0.17683 0.40624 0.0
H351 H 0.78619 0.08275 0.34189 0.0
H352 H 0.87467 0.08911 0.42091 0.0
H353 H 0.83021 0.92297 0.37421 0.0
H354 H 0.86926 0.01542 0.38954 0.0
H355 H 0.71616 0.00806 0.37421 0.0
H356 H 0.67628 0.91371 0.35969 0.0
C357 C 0.86137 0.1548 0.349 0.0
C358 C 0.909 0.18063 0.36592 0.0
C359 C 0.81962 0.10419 0.35717 0.0
C360 C 0.82536 0.07857 0.38218 0.0
C361 C 0.86949 0.10781 0.40136 0.0
C362 C 0.91133 0.15839 0.39312 0.0
C363 C 0.80436 0.94054 0.37478 0.0
C364 C 0.75089 0.91199 0.36432 0.0
C365 C 0.82654 -0.00654 0.38405 0.0
C366 C 0.79595 0.01932 0.38269 0.0
C367 C 0.74076 0.98919 0.37517 0.0
C368 C 0.71813 0.93547 0.36649 0.0
H369 H 0.09437 0.72853 0.39377 0.0
H370 H 0.23867 0.73526 0.35863 0.0
H371 H 0.03968 0.6369 0.37473 0.0
H372 H 0.18581 0.64312 0.34182 0.0
H373 H 0.0971 0.48501 0.3086 0.0
H374 H 0.12163 0.57914 0.30868 0.0
H375 H 0.02534 0.55284 0.38823 0.0
H376 H -0.00092 0.45916 0.38712 0.0
C377 C 0.11405 0.71048 0.38157 0.0
C378 C 0.17026 0.73895 0.37719 0.0
C379 C 0.08304 0.65791 0.37095 0.0
C380 C 0.10807 0.63252 0.3563 0.0
C381 C 0.16461 0.6615 0.3521 0.0
C382 C 0.19525 0.71403 0.36238 0.0
C383 C 0.07897 0.49888 0.32511 0.0
C384 C 0.04775 0.46544 0.34845 0.0
C385 C 0.09368 0.55302 0.32549 0.0
C386 C 0.0776 0.57418 0.34931 0.0
C387 C 0.03922 0.5385 0.36974 0.0
C388 C 0.02416 0.48451 0.36917 0.0
H389 H 0.27055 0.50922 0.36023 0.0
H390 H 0.24816 0.35408 0.33603 0.0
H391 H 0.36005 0.55223 0.33793 0.0
H392 H 0.33932 0.39781 0.31394 0.0
H393 H 0.53174 0.52199 0.33903 0.0
H394 H 0.43524 0.45621 0.3382 0.0
H395 H 0.40573 0.56454 0.28669 0.0
H396 H 0.50196 0.63061 0.28793 0.0
C397 C 0.28478 0.48418 0.35022 0.0
C398 C 0.25239 0.42815 0.35023 0.0
C399 C 0.33578 0.50893 0.33695 0.0
C400 C 0.35613 0.47836 0.32362 0.0
C401 C 0.32417 0.42224 0.32372 0.0
C402 C 0.27231 0.3973 0.33659 0.0
C403 C 0.50504 0.53046 0.32604 0.0
C404 C 0.52409 0.58171 0.31403 0.0
C405 C 0.44972 0.49277 0.32561 0.0
C406 C 0.41307 0.50613 0.31317 0.0
C407 C 0.4333 0.55377 0.29684 0.0
C408 C 0.48861 0.59139 0.29722 0.0
H409 H 0.34255 0.87235 0.31257 0.0
H410 H 0.46498 -0.00892 0.37032 0.0
H411 H 0.4048 0.84146 0.29797 0.0
H412 H 0.52731 0.96004 0.35556 0.0
H413 H 0.62053 0.8748 0.32002 0.0
H414 H 0.5757 0.9275 0.31168 0.0
H415 H 0.42589 0.7967 0.34529 0.0
H416 H 0.47074 0.74602 0.35549 0.0
C417 C 0.38378 0.89408 0.32074 0.0
C418 C 0.39877 0.93362 0.3429 0.0
C419 C 0.4193 0.87611 0.3125 0.0
C420 C 0.4703 0.89787 0.32608 0.0
C421 C 0.48818 0.94275 0.34477 0.0
C422 C 0.45245 0.96038 0.35327 0.0
C423 C 0.57839 0.85795 0.32623 0.0
C424 C 0.54983 0.80721 0.33961 0.0
C425 C 0.55261 0.8876 0.32085 0.0
C426 C 0.49738 0.86577 0.32756 0.0
C427 C 0.46835 0.81406 0.33947 0.0
C428 C 0.49428 0.78527 0.34559 0.0
H429 H 0.59515 0.05098 0.66722 0.0
H430 H 0.68758 0.1213 0.74708 0.0
H431 H 0.51546 0.04499 0.69086 0.0
H432 H 0.60767 0.11627 0.77088 0.0
H433 H 0.38554 0.06176 0.72456 0.0
H434 H 0.4443 0.02306 0.7301 0.0
H435 H 0.57834 0.17989 0.75161 0.0
H436 H 0.51971 0.21802 0.74577 0.0
C437 C 0.5975 0.06245 0.69043 0.0
C438 C 0.64745 0.08725 0.70521 0.0
C439 C 0.55176 0.05898 0.70409 0.0
C440 C 0.5556 0.08128 0.73256 0.0
C441 C 0.60372 0.09924 0.74882 0.0
C442 C 0.64935 0.10177 0.73528 0.0
C443 C 0.42685 0.08721 0.73205 0.0
C444 C 0.44839 0.14271 0.73482 0.0
C445 C 0.46051 0.06516 0.73509 0.0
C446 C 0.51609 0.09846 0.74094 0.0
C447 C 0.53567 0.15296 0.74737 0.0
C448 C 0.50221 0.17499 0.74396 0.0
H449 H 0.7957 0.31489 0.72687 0.0
H450 H 0.951 0.35087 0.69114 0.0
H451 H 0.82767 0.40989 0.73261 0.0
H452 H 0.98324 0.44686 0.69618 0.0
H453 H 0.91087 0.53687 0.63621 0.0
H454 H 0.93635 0.47672 0.65897 0.0
H455 H 0.89084 0.50875 0.74537 0.0
H456 H 0.86639 0.57046 0.72235 0.0
C457 C 0.83765 0.3434 0.72168 0.0
C458 C 0.87075 0.32632 0.7081 0.0
C459 C 0.85627 0.39787 0.72517 0.0
C460 C 0.90762 0.43578 0.71421 0.0
C461 C 0.94339 0.41837 0.70462 0.0
C462 C 0.92499 0.36361 0.70168 0.0
C463 C 0.90845 0.53271 0.66021 0.0
C464 C 0.88555 0.55697 0.67751 0.0
C465 C 0.92374 0.49883 0.67337 0.0
C466 C 0.91496 0.48756 0.70395 0.0
C467 C 0.89795 0.51678 0.72176 0.0
C468 C 0.88373 0.55177 0.7086 0.0
H469 H 0.65003 0.60383 0.70855 0.0
H470 H 0.60768 0.52548 0.62292 0.0
H471 H 0.55513 0.55181 0.72437 0.0
H472 H 0.51409 0.47392 0.63816 0.0
H473 H 0.36179 0.36381 0.66128 0.0
H474 H 0.4275 0.45854 0.65475 0.0
H475 H 0.50632 0.45723 0.73626 0.0
H476 H 0.43921 0.36368 0.74316 0.0
C477 C 0.62034 0.57657 0.69294 0.0
C478 C 0.63655 0.56748 0.66497 0.0
C479 C 0.56592 0.54685 0.70189 0.0
C480 C 0.52676 0.50813 0.68272 0.0
C481 C 0.54255 0.50353 0.65359 0.0
C482 C 0.59669 0.53262 0.64491 0.0
C483 C 0.39062 0.38498 0.67891 0.0
C484 C 0.39616 0.3566 0.70247 0.0
C485 C 0.42892 0.43911 0.67497 0.0
C486 C 0.47379 0.46472 0.69417 0.0
C487 C 0.47287 0.43883 0.72075 0.0
C488 C 0.43408 0.38498 0.72486 0.0
H489 H 0.70192 0.72371 0.71171 0.0
H490 H 0.82113 0.82672 0.64741 0.0
H491 H 0.66362 0.78386 0.7129 0.0
H492 H 0.7822 0.8847 0.64755 0.0
H493 H 0.71585 0.97832 0.6378 0.0
H494 H 0.69052 0.88413 0.63661 0.0
H495 H 0.71997 0.88998 0.73097 0.0
H496 H 0.74419 0.98407 0.73217 0.0
C497 C 0.71895 0.75843 0.69742 0.0
C498 C 0.76484 0.77146 0.67983 0.0
C499 C 0.69698 0.79245 0.69797 0.0
C500 C 0.71947 0.83834 0.68001 0.0
C501 C 0.76331 0.84906 0.6612 0.0
C502 C 0.78607 0.81632 0.66136 0.0
C503 C 0.71306 0.95836 0.65861 0.0
C504 C 0.73248 0.98811 0.68499 0.0
C505 C 0.69872 0.90452 0.65793 0.0
C506 C 0.70479 0.88046 0.68354 0.0
C507 C 0.71498 0.90766 0.71093 0.0
C508 C 0.72881 0.96156 0.71165 0.0
H509 H 0.93388 0.8337 0.61819 0.0
H510 H 0.02233 0.74897 0.6243 0.0
H511 H 0.01889 0.91805 0.61388 0.0
H512 H 0.10746 0.833 0.61848 0.0
H513 H 0.18919 0.96466 0.69395 0.0
H514 H 0.13019 0.8866 0.6643 0.0
H515 H 0.11374 0.98777 0.59966 0.0
H516 H 0.17445 0.06692 0.62984 0.0
C517 C 0.97138 0.83279 0.61669 0.0
C518 C 0.97207 0.78547 0.62261 0.0
C519 C 0.02025 0.88119 0.61411 0.0
C520 C 0.06989 0.88224 0.61708 0.0
C521 C 0.06975 0.83344 0.61702 0.0
C522 C 0.02108 0.78533 0.62029 0.0
C523 C 0.17418 0.97025 0.67297 0.0
C524 C 0.18538 0.02117 0.66423 0.0
C525 C 0.14089 0.92564 0.65569 0.0
C526 C 0.11714 0.93089 0.62952 0.0
C527 C 0.13145 0.98255 0.61969 0.0
C528 C 0.16587 0.02762 0.6369 0.0
H529 H 0.26462 0.29832 0.68039 0.0
H530 H 0.17864 0.24233 0.76355 0.0
H531 H 0.21054 0.34002 0.66866 0.0
H532 H 0.12356 0.28132 0.75176 0.0
H533 H -0.00609 0.29663 0.72482 0.0
H534 H 0.08942 0.33616 0.73808 0.0
H535 H 0.12183 0.29091 0.65161 0.0
H536 H 0.02792 0.25412 0.63836 0.0
C537 C 0.23582 0.29693 0.69672 0.0
C538 C 0.22458 0.26585 0.72245 0.0
C539 C 0.20431 0.32031 0.68991 0.0
C540 C 0.16084 0.31227 0.7086 0.0
C541 C 0.15595 0.28833 0.73649 0.0
C542 C 0.18739 0.26531 0.74325 0.0
C543 C 0.02224 0.29797 0.70816 0.0
C544 C 0.00347 0.27071 0.68097 0.0
C545 C 0.07697 0.32006 0.71584 0.0
C546 C 0.11312 0.31431 0.69657 0.0
C547 C 0.09568 0.29563 0.66742 0.0
C548 C 0.04135 0.27404 0.65974 0.0
H549 H 0.15234 0.38229 0.24455 0.0
H550 H 0.0071 0.38772 0.26465 0.0
H551 H 0.15059 0.40892 0.19346 0.0
H552 H 0.00384 0.4127 0.2131 0.0
H553 H 0.01331 0.46836 0.12002 0.0
H554 H 0.03942 0.47215 0.17179 0.0
H555 H 0.09555 0.3611 0.15191 0.0
H556 H 0.07052 0.35855 0.09976 0.0
C557 C 0.12087 0.39084 0.23815 0.0
C558 C 0.07984 0.38305 0.25846 0.0
C559 C 0.1194 0.40531 0.20875 0.0
C560 C 0.07639 0.41169 0.19881 0.0
C561 C 0.03778 0.40834 0.2199 0.0
C562 C 0.03963 0.39431 0.24954 0.0
C563 C 0.03223 0.44552 0.12659 0.0
C564 C 0.03938 0.41267 0.10586 0.0
C565 C 0.04685 0.44745 0.15637 0.0
C566 C 0.06877 0.41631 0.16631 0.0
C567 C 0.07916 0.38604 0.14512 0.0
C568 C 0.06482 0.38444 0.11515 0.0
H569 H 0.6935 0.8001 0.21897 0.0
H570 H 0.57164 0.64484 0.25099 0.0
H571 H 0.67454 0.76784 0.16848 0.0
H572 H 0.54858 0.61331 0.19982 0.0
H573 H 0.58661 0.5521 0.11455 0.0
H574 H 0.5849 0.58583 0.16343 0.0
H575 H 0.62668 0.73939 0.12555 0.0
H576 H 0.63441 0.70643 0.07663 0.0
C577 C 0.66132 0.75928 0.2152 0.0
C578 C 0.63459 0.72475 0.23917 0.0
C579 C 0.6499 0.74081 0.18594 0.0
C580 C 0.61043 0.6875 0.17967 0.0
C581 C 0.5805 0.65417 0.20364 0.0
C582 C 0.59306 0.67236 0.23309 0.0
C583 C 0.59545 0.59316 0.11655 0.0
C584 C 0.61039 0.62664 0.09153 0.0
C585 C 0.59347 0.61238 0.14476 0.0
C586 C 0.60539 0.66553 0.14888 0.0
C587 C 0.61797 0.69842 0.12355 0.0
C588 C 0.6213 0.67937 0.09527 0.0
H589 H 0.42466 0.92625 0.14317 0.0
H590 H 0.28066 0.92591 0.11423 0.0
H591 H 0.38794 0.90302 0.1934 0.0
H592 H 0.24407 0.90426 0.1649 0.0
H593 H 0.18236 0.84906 0.25788 0.0
H594 H 0.21117 0.84617 0.2071 0.0
H595 H 0.37748 0.95414 0.23228 0.0
H596 H 0.3484 0.95624 0.28332 0.0
C597 C 0.38427 0.91956 0.14746 0.0
C598 C 0.35543 0.92784 0.12487 0.0
C599 C 0.36358 0.90709 0.17637 0.0
C600 C 0.31369 0.90319 0.18354 0.0
C601 C 0.28265 0.90688 0.16027 0.0
C602 C 0.30331 0.91893 0.13113 0.0
C603 C 0.22523 0.8717 0.25265 0.0
C604 C 0.26319 0.9029 0.27467 0.0
C605 C 0.24167 0.87022 0.22344 0.0
C606 C 0.29659 0.90012 0.21535 0.0
C607 C 0.33485 0.92987 0.23768 0.0
C608 C 0.31832 0.93119 0.26702 0.0
H609 H 0.3186 0.04078 0.95399 0.0
H610 H 0.46287 0.05153 0.91593 0.0
H611 H 0.30529 0.07921 0.90873 0.0
H612 H 0.45157 0.09215 0.87122 0.0
H613 H 0.36683 0.08255 0.78208 0.0
H614 H 0.39526 0.06307 0.82922 0.0
H615 H 0.33151 0.15125 0.87621 0.0
H616 H 0.30185 0.16881 0.82906 0.0
C617 C 0.34842 0.05318 0.93629 0.0
C618 C 0.39181 0.04354 0.93838 0.0
C619 C 0.34099 0.07523 0.91028 0.0
C620 C 0.37702 0.0883 0.88593 0.0
C621 C 0.42224 0.08149 0.88905 0.0
C622 C 0.42918 0.05888 0.91482 0.0
C623 C 0.36049 0.09896 0.80241 0.0
C624 C 0.33264 0.12745 0.80191 0.0
C625 C 0.37652 0.08773 0.82958 0.0
C626 C 0.36537 0.10521 0.85681 0.0
C627 C 0.33979 0.13604 0.85593 0.0
C628 C 0.32322 0.14656 0.82886 0.0
H629 H 0.98831 0.39963 0.88656 0.0
H630 H 0.91995 0.24968 0.93373 0.0
H631 H 0.95704 0.35196 0.8399 0.0
H632 H 0.88659 0.20106 0.88635 0.0
H633 H 0.90437 0.14325 0.7906 0.0
H634 H 0.92291 0.18319 0.84053 0.0
H635 H 0.87884 0.29845 0.81107 0.0
H636 H 0.86221 0.25994 0.76143 0.0
C637 C 0.9657 0.35625 0.88704 0.0
C638 C 0.95677 0.3285 0.91395 0.0
C639 C 0.94733 0.32878 0.86015 0.0
C640 C 0.91911 0.27254 0.85922 0.0
C641 C 0.90864 0.24443 0.88624 0.0
C642 C 0.92716 0.2722 0.9134 0.0
C643 C 0.89863 0.17708 0.79489 0.0
C644 C 0.8828 0.19903 0.77187 0.0
C645 C 0.90876 0.19967 0.82357 0.0
C646 C 0.9029 0.24443 0.82984 0.0
C647 C 0.88502 0.26483 0.80698 0.0
C648 C 0.87545 0.24268 0.77841 0.0
H649 H 0.81293 0.59934 0.77163 0.0
H650 H 0.70915 0.65884 0.7426 0.0
H651 H 0.76912 0.57964 0.82066 0.0
H652 H 0.6639 0.63731 0.79092 0.0
H653 H 0.72215 0.6287 0.91245 0.0
H654 H 0.76369 0.63502 0.86366 0.0
H655 H 0.60531 0.55783 0.82309 0.0
H656 H 0.56389 0.55055 0.87166 0.0
C657 C 0.77992 0.6071 0.77554 0.0
C658 C 0.76298 0.62884 0.75296 0.0
C659 C 0.75511 0.59608 0.80359 0.0
C660 C 0.71276 0.60644 0.80952 0.0
C661 C 0.69554 0.62766 0.78679 0.0
C662 C 0.72078 0.63922 0.75892 0.0
C663 C 0.6962 0.61168 0.89326 0.0
C664 C 0.63978 0.58883 0.89598 0.0
C665 C 0.71995 0.61555 0.86529 0.0
C666 C 0.6877 0.59724 0.83955 0.0
C667 C 0.63122 0.57291 0.84247 0.0
C668 C 0.60756 0.56866 0.87033 0.0
H669 H 0.79367 0.77496 0.4071 0.0
H670 H 0.6505 0.71787 0.46209 0.0
H671 H 0.8461 0.77825 0.45115 0.0
H672 H 0.70324 0.72507 0.50578 0.0
H673 H 0.80832 0.76294 0.58308 0.0
H674 H 0.78933 0.79583 0.53726 0.0
H675 H 0.82713 0.69217 0.48535 0.0
H676 H 0.84488 0.65837 0.53101 0.0
C677 C 0.77346 0.76308 0.42847 0.0
C678 C 0.71744 0.74361 0.43087 0.0
C679 C 0.80363 0.76602 0.45366 0.0
C680 C 0.77863 0.7521 0.48179 0.0
C681 C 0.72366 0.73663 0.48441 0.0
C682 C 0.69337 0.73212 0.45927 0.0
C683 C 0.8146 0.74874 0.56185 0.0
C684 C 0.82702 0.70741 0.56054 0.0
C685 C 0.80369 0.76751 0.53568 0.0
C686 C 0.80634 0.74609 0.50791 0.0
C687 C 0.82507 0.70949 0.50648 0.0
C688 C 0.83487 0.68993 0.53262 0.0
H689 H 0.31385 0.05946 0.45029 0.0
H690 H 0.20762 0.90959 0.49339 0.0
H691 H 0.32258 0.10714 0.49684 0.0
H692 H 0.21201 0.9567 0.53929 0.0
H693 H 0.2865 0.04496 0.62643 0.0
H694 H 0.26444 -0.00327 0.57924 0.0
H695 H 0.29391 0.14072 0.53376 0.0
H696 H 0.31977 0.18914 0.58095 0.0
C697 C 0.29109 0.03695 0.46958 0.0
C698 C 0.26053 0.9809 0.46835 0.0
C699 C 0.29575 0.06422 0.49644 0.0
C700 C 0.26867 0.03613 0.52253 0.0
C701 C 0.23522 0.98009 0.52038 0.0
C702 C 0.23201 0.9529 0.49385 0.0
C703 C 0.28735 0.06582 0.60632 0.0
C704 C 0.30467 0.12062 0.60729 0.0
C705 C 0.27449 0.03818 0.57905 0.0
C706 C 0.27764 0.06449 0.55205 0.0
C707 C 0.29237 0.11896 0.55358 0.0
C708 C 0.30653 0.14677 0.58074 0.0
H709 H 0.78802 0.14227 0.55519 0.0
H710 H 0.94067 0.20307 0.60052 0.0
H711 H 0.83412 0.15919 0.50731 0.0
H712 H 0.98784 0.22431 0.55298 0.0
H713 H 0.06713 0.25033 0.46476 0.0
H714 H 0.0136 0.20528 0.50873 0.0
H715 H 0.88434 0.22895 0.47645 0.0
H716 H 0.93671 0.26997 0.43161 0.0
C717 C 0.83156 0.15886 0.55479 0.0
C718 C 0.86085 0.17135 0.58147 0.0
C719 C 0.85824 0.16934 0.52733 0.0
C720 C 0.91519 0.19435 0.52585 0.0
C721 C 0.94404 0.20441 0.55279 0.0
C722 C 0.91707 0.19239 0.58024 0.0
C723 C 0.02672 0.2447 0.46697 0.0
C724 C 0.00589 0.2635 0.44494 0.0
C725 C -0.00388 0.2194 0.49234 0.0
C726 C 0.94458 0.21392 0.49679 0.0
C727 C 0.92325 0.23131 0.47398 0.0
C728 C 0.95338 0.25531 0.44823 0.0
loop_
_geom_bond_atom_site_label_1
_geom_bond_atom_site_label_2
_geom_bond_distance
_geom_bond_site_symmetry_2
_ccdc_geom_bond_type
Zn0 O6 1.920 . S
Zn0 O12 1.898 . S
Zn0 O15 1.905 . S
Zn1 O9 1.905 . S
Zn1 O10 1.898 . S
Zn1 O18 1.920 . S
Zn2 O5 2.080 . S
Zn2 O8 2.114 1_455 S
Zn2 O11 2.120 . S
Zn2 O13 2.120 1_454 S
Zn2 O14 2.114 . S
Zn2 O17 2.080 1_455 S
C3 O8 1.166 . S
C3 O9 1.182 . S
C4 O10 1.167 . S
C4 O11 1.299 1_655 S
O5 Zn2 2.080 . S
O5 C19 1.305 1_554 S
O6 Zn0 1.920 . S
O6 C19 1.234 . S
C7 O12 1.167 . S
C7 O13 1.299 1_455 S
O8 Zn2 2.114 1_655 S
O8 C3 1.166 . S
O9 Zn1 1.905 . S
O9 C3 1.182 . S
O10 Zn1 1.898 . S
O10 C4 1.167 . S
O11 Zn2 2.120 . S
O11 C4 1.299 1_455 S
O12 Zn0 1.898 . S
O12 C7 1.167 . S
O13 Zn2 2.120 1_656 S
O13 C7 1.299 1_655 S
O14 Zn2 2.114 . S
O14 C16 1.168 . S
O15 Zn0 1.905 . S
O15 C16 1.168 1_556 S
C16 O14 1.168 . S
C16 O15 1.168 1_554 S
O17 Zn2 2.080 1_655 S
O17 C20 1.305 . S
O18 Zn1 1.920 . S
O18 C20 1.234 . S
C19 O5 1.305 1_556 S
C19 O6 1.234 . S
C20 O17 1.305 . S
C20 O18 1.234 . S
Zn21 O27 1.920 . S
Zn21 O33 1.898 . S
Zn21 O36 1.905 . S
Zn22 O30 1.905 . S
Zn22 O31 1.898 . S
Zn22 O39 1.920 . S
Zn23 O26 2.080 . S
Zn23 O29 2.114 . S
Zn23 O32 2.120 . S
Zn23 O34 2.120 1_554 S
Zn23 O35 2.114 . S
Zn23 O38 2.080 . S
C24 O29 1.166 . S
C24 O30 1.182 . S
C25 O31 1.167 . S
C25 O32 1.299 . S
O26 Zn23 2.080 . S
O26 C40 1.305 1_554 S
O27 Zn21 1.920 . S
O27 C40 1.234 . S
C28 O33 1.167 . S
C28 O34 1.299 . S
O29 Zn23 2.114 . S
O29 C24 1.166 . S
O30 Zn22 1.905 . S
O30 C24 1.182 . S
O31 Zn22 1.898 . S
O31 C25 1.167 . S
O32 Zn23 2.120 . S
O32 C25 1.299 . S
O33 Zn21 1.898 . S
O33 C28 1.167 . S
O34 Zn23 2.120 1_556 S
O34 C28 1.299 . S
O35 Zn23 2.114 . S
O35 C37 1.168 . S
O36 Zn21 1.905 . S
O36 C37 1.167 1_556 S
C37 O35 1.168 . S
C37 O36 1.167 1_554 S
O38 Zn23 2.080 . S
O38 C41 1.305 . S
O39 Zn22 1.920 . S
O39 C41 1.234 . S
C40 O26 1.305 1_556 S
C40 O27 1.234 . S
C41 O38 1.305 . S
C41 O39 1.234 . S
Zn42 O48 1.920 . S
Zn42 O54 1.898 . S
Zn42 O57 1.905 . S
Zn43 O51 1.905 . S
Zn43 O52 1.898 . S
Zn43 O60 1.920 . S
Zn44 O47 2.080 . S
Zn44 O50 2.114 1_545 S
Zn44 O53 2.120 1_554 S
Zn44 O55 2.120 1_545 S
Zn44 O56 2.114 . S
Zn44 O59 2.080 1_545 S
C45 O50 1.168 . S
C45 O51 1.167 1_554 S
C46 O52 1.167 . S
C46 O53 1.299 1_565 S
O47 Zn44 2.080 . S
O47 C61 1.305 . S
O48 Zn42 1.920 . S
O48 C61 1.234 . S
C49 O54 1.167 . S
C49 O55 1.299 1_545 S
O50 Zn44 2.114 1_565 S
O50 C45 1.168 . S
O51 Zn43 1.905 . S
O51 C45 1.167 1_556 S
O52 Zn43 1.898 . S
O52 C46 1.167 . S
O53 Zn44 2.120 1_556 S
O53 C46 1.299 1_545 S
O54 Zn42 1.898 . S
O54 C49 1.167 . S
O55 Zn44 2.120 1_565 S
O55 C49 1.299 1_565 S
O56 Zn44 2.114 . S
O56 C58 1.166 . S
O57 Zn42 1.905 . S
O57 C58 1.182 . S
C58 O56 1.166 . S
C58 O57 1.182 . S
O59 Zn44 2.080 1_565 S
O59 C62 1.305 1_554 S
O60 Zn43 1.920 . S
O60 C62 1.234 . S
C61 O47 1.305 . S
C61 O48 1.234 . S
C62 O59 1.305 1_556 S
C62 O60 1.234 . S
Zn63 O69 1.920 . S
Zn63 O75 1.898 . S
Zn63 O78 1.905 . S
Zn64 O72 1.905 . S
Zn64 O73 1.898 . S
Zn64 O81 1.920 . S
Zn65 O68 2.080 . S
Zn65 O71 2.114 . S
Zn65 O74 2.120 . S
Zn65 O76 2.120 . S
Zn65 O77 2.114 . S
Zn65 O80 2.080 . S
C66 O71 1.166 . S
C66 O72 1.182 . S
C67 O73 1.167 . S
C67 O74 1.299 . S
O68 Zn65 2.080 . S
O68 C82 1.305 . S
O69 Zn63 1.920 . S
O69 C82 1.234 . S
C70 O75 1.167 . S
C70 O76 1.299 . S
O71 Zn65 2.114 . S
O71 C66 1.166 . S
O72 Zn64 1.905 . S
O72 C66 1.182 . S
O73 Zn64 1.898 . S
O73 C67 1.167 . S
O74 Zn65 2.120 . S
O74 C67 1.299 . S
O75 Zn63 1.898 . S
O75 C70 1.167 . S
O76 Zn65 2.120 . S
O76 C70 1.299 . S
O77 Zn65 2.114 . S
O77 C79 1.166 . S
O78 Zn63 1.905 . S
O78 C79 1.182 . S
C79 O77 1.166 . S
C79 O78 1.182 . S
O80 Zn65 2.080 . S
O80 C83 1.305 . S
O81 Zn64 1.920 . S
O81 C83 1.234 . S
C82 O68 1.305 . S
C82 O69 1.234 . S
C83 O80 1.305 . S
C83 O81 1.234 . S
Zn84 O90 1.920 . S
Zn84 O96 1.898 . S
Zn84 O99 1.905 . S
Zn85 O93 1.905 1_565 S
Zn85 O94 1.898 . S
Zn85 O102 1.920 . S
Zn86 O89 2.080 . S
Zn86 O92 2.114 . S
Zn86 O95 2.120 . S
Zn86 O97 2.120 . S
Zn86 O98 2.114 . S
Zn86 O101 2.080 . S
C87 O92 1.166 1_545 S
C87 O93 1.182 . S
C88 O94 1.167 . S
C88 O95 1.299 . S
O89 Zn86 2.080 . S
O89 C103 1.305 . S
O90 Zn84 1.920 . S
O90 C103 1.234 . S
C91 O96 1.167 . S
C91 O97 1.299 . S
O92 Zn86 2.114 . S
O92 C87 1.166 1_565 S
O93 Zn85 1.905 1_545 S
O93 C87 1.182 . S
O94 Zn85 1.898 . S
O94 C88 1.167 . S
O95 Zn86 2.120 . S
O95 C88 1.299 . S
O96 Zn84 1.898 . S
O96 C91 1.167 . S
O97 Zn86 2.120 . S
O97 C91 1.299 . S
O98 Zn86 2.114 . S
O98 C100 1.166 . S
O99 Zn84 1.905 . S
O99 C100 1.182 . S
C100 O98 1.166 . S
C100 O99 1.182 . S
O101 Zn86 2.080 . S
O101 C104 1.305 . S
O102 Zn85 1.920 . S
O102 C104 1.234 . S
C103 O89 1.305 . S
C103 O90 1.234 . S
C104 O101 1.305 . S
C104 O102 1.234 . S
Zn105 O111 1.920 . S
Zn105 O117 1.898 . S
Zn105 O120 1.905 . S
Zn106 O114 1.905 1_455 S
Zn106 O115 1.898 . S
Zn106 O123 1.920 . S
Zn107 O110 2.080 . S
Zn107 O113 2.114 . S
Zn107 O116 2.120 . S
Zn107 O118 2.120 . S
Zn107 O119 2.114 . S
Zn107 O122 2.080 . S
C108 O113 1.166 1_655 S
C108 O114 1.182 . S
C109 O115 1.167 . S
C109 O116 1.299 . S
O110 Zn107 2.080 . S
O110 C124 1.305 . S
O111 Zn105 1.920 . S
O111 C124 1.234 . S
C112 O117 1.167 . S
C112 O118 1.299 . S
O113 Zn107 2.114 . S
O113 C108 1.166 1_455 S
O114 Zn106 1.905 1_655 S
O114 C108 1.182 . S
O115 Zn106 1.898 . S
O115 C109 1.167 . S
O116 Zn107 2.120 . S
O116 C109 1.299 . S
O117 Zn105 1.898 . S
O117 C112 1.167 . S
O118 Zn107 2.120 . S
O118 C112 1.299 . S
O119 Zn107 2.114 . S
O119 C121 1.166 . S
O120 Zn105 1.905 . S
O120 C121 1.182 . S
C121 O119 1.166 . S
C121 O120 1.182 . S
O122 Zn107 2.080 . S
O122 C125 1.305 . S
O123 Zn106 1.920 . S
O123 C125 1.234 . S
C124 O110 1.305 . S
C124 O111 1.234 . S
C125 O122 1.305 . S
C125 O123 1.234 . S
Zn126 O132 1.920 . S
Zn126 O138 1.898 . S
Zn126 O141 1.905 . S
Zn127 O135 1.905 1_545 S
Zn127 O136 1.898 . S
Zn127 O144 1.920 . S
Zn128 O131 2.080 . S
Zn128 O134 2.114 . S
Zn128 O137 2.120 . S
Zn128 O139 2.120 . S
Zn128 O140 2.114 . S
Zn128 O143 2.080 . S
C129 O134 1.166 1_565 S
C129 O135 1.182 . S
C130 O136 1.167 . S
C130 O137 1.299 . S
O131 Zn128 2.080 . S
O131 C145 1.305 . S
O132 Zn126 1.920 . S
O132 C145 1.234 . S
C133 O138 1.167 . S
C133 O139 1.299 . S
O134 Zn128 2.114 . S
O134 C129 1.166 1_545 S
O135 Zn127 1.905 1_565 S
O135 C129 1.182 . S
O136 Zn127 1.898 . S
O136 C130 1.167 . S
O137 Zn128 2.120 . S
O137 C130 1.299 . S
O138 Zn126 1.898 . S
O138 C133 1.167 . S
O139 Zn128 2.120 . S
O139 C133 1.299 . S
O140 Zn128 2.114 . S
O140 C142 1.166 . S
O141 Zn126 1.905 . S
O141 C142 1.182 . S
C142 O140 1.166 . S
C142 O141 1.182 . S
O143 Zn128 2.080 . S
O143 C146 1.305 . S
O144 Zn127 1.920 . S
O144 C146 1.234 . S
C145 O131 1.305 . S
C145 O132 1.234 . S
C146 O143 1.305 . S
C146 O144 1.234 . S
Zn147 O153 1.920 . S
Zn147 O159 1.898 . S
Zn147 O162 1.905 1_655 S
Zn148 O156 1.905 . S
Zn148 O157 1.898 . S
Zn148 O165 1.920 . S
Zn149 O152 2.080 . S
Zn149 O155 2.114 . S
Zn149 O158 2.120 . S
Zn149 O160 2.120 . S
Zn149 O161 2.114 . S
Zn149 O164 2.080 . S
C150 O155 1.166 . S
C150 O156 1.182 . S
C151 O157 1.167 . S
C151 O158 1.299 . S
O152 Zn149 2.080 . S
O152 C166 1.305 . S
O153 Zn147 1.920 . S
O153 C166 1.234 . S
C154 O159 1.167 . S
C154 O160 1.299 . S
O155 Zn149 2.114 . S
O155 C150 1.166 . S
O156 Zn148 1.905 . S
O156 C150 1.182 . S
O157 Zn148 1.898 . S
O157 C151 1.167 . S
O158 Zn149 2.120 . S
O158 C151 1.299 . S
O159 Zn147 1.898 . S
O159 C154 1.167 . S
O160 Zn149 2.120 . S
O160 C154 1.299 . S
O161 Zn149 2.114 . S
O161 C163 1.166 1_655 S
O162 Zn147 1.905 1_455 S
O162 C163 1.182 . S
C163 O161 1.166 1_455 S
C163 O162 1.182 . S
O164 Zn149 2.080 . S
O164 C167 1.305 . S
O165 Zn148 1.920 . S
O165 C167 1.234 . S
C166 O152 1.305 . S
C166 O153 1.234 . S
C167 O164 1.305 . S
C167 O165 1.234 . S
Zn168 O174 1.920 . S
Zn168 O180 1.898 . S
Zn168 O183 1.905 . S
Zn169 O177 1.905 . S
Zn169 O178 1.898 . S
Zn169 O186 1.920 . S
Zn170 O173 2.080 . S
Zn170 O176 2.114 . S
Zn170 O179 2.120 . S
Zn170 O181 2.120 . S
Zn170 O182 2.114 . S
Zn170 O185 2.080 . S
C171 O176 1.166 . S
C171 O177 1.182 . S
C172 O178 1.167 . S
C172 O179 1.299 . S
O173 Zn170 2.080 . S
O173 C187 1.305 . S
O174 Zn168 1.920 . S
O174 C187 1.234 . S
C175 O180 1.167 . S
C175 O181 1.299 . S
O176 Zn170 2.114 . S
O176 C171 1.166 . S
O177 Zn169 1.905 . S
O177 C171 1.182 . S
O178 Zn169 1.898 . S
O178 C172 1.167 . S
O179 Zn170 2.120 . S
O179 C172 1.299 . S
O180 Zn168 1.898 . S
O180 C175 1.167 . S
O181 Zn170 2.120 . S
O181 C175 1.299 . S
O182 Zn170 2.114 . S
O182 C184 1.166 . S
O183 Zn168 1.905 . S
O183 C184 1.182 . S
C184 O182 1.166 . S
C184 O183 1.182 . S
O185 Zn170 2.080 . S
O185 C188 1.305 . S
O186 Zn169 1.920 . S
O186 C188 1.234 . S
C187 O173 1.305 . S
C187 O174 1.234 . S
C188 O185 1.305 . S
C188 O186 1.234 . S
H189 C197 0.950 . S
H190 C202 0.950 . S
H191 C199 0.950 . S
H192 C201 0.950 . S
H193 C203 0.950 . S
H194 C205 0.950 . S
H195 C207 0.950 . S
H196 C208 0.950 1_556 S
C197 H189 0.950 . S
C197 C198 1.386 . S
C197 C199 1.391 . S
C198 C197 1.386 . S
C198 C202 1.393 1_556 S
C199 H191 0.950 . S
C199 C197 1.391 . S
C199 C200 1.393 1_556 S
C200 C199 1.393 1_554 S
C200 C201 1.404 . S
C200 C206 1.493 . S
C201 H192 0.950 . S
C201 C200 1.404 . S
C201 C202 1.391 . S
C202 H190 0.950 . S
C202 C198 1.393 1_554 S
C202 C201 1.391 . S
C203 H193 0.950 . S
C203 C204 1.386 . S
C203 C205 1.391 . S
C204 C203 1.386 . S
C204 C208 1.393 . S
C205 H194 0.950 . S
C205 C203 1.391 . S
C205 C206 1.400 . S
C206 C200 1.493 . S
C206 C205 1.400 . S
C206 C207 1.398 1_554 S
C207 H195 0.950 . S
C207 C206 1.398 1_556 S
C207 C208 1.391 1_556 S
C208 H196 0.950 1_554 S
C208 C204 1.393 . S
C208 C207 1.391 1_554 S
H209 C217 0.950 . S
H210 C222 0.950 . S
H211 C219 0.950 . S
H212 C221 0.950 . S
H213 C223 0.950 . S
H214 C225 0.950 . S
H215 C227 0.950 . S
H216 C228 0.950 . S
C217 H209 0.950 . S
C217 C218 1.386 . S
C217 C219 1.391 . S
C218 C217 1.386 . S
C218 C222 1.393 1_556 S
C219 H211 0.950 . S
C219 C217 1.391 . S
C219 C220 1.385 1_556 S
C220 C219 1.385 1_554 S
C220 C221 1.412 . S
C220 C226 1.493 . S
C221 H212 0.950 . S
C221 C220 1.412 . S
C221 C222 1.391 . S
C222 H210 0.950 . S
C222 C218 1.393 1_554 S
C222 C221 1.391 . S
C223 H213 0.950 . S
C223 C224 1.386 . S
C223 C225 1.391 . S
C224 C223 1.386 . S
C224 C228 1.393 1_554 S
C225 H214 0.950 . S
C225 C223 1.391 . S
C225 C226 1.400 . S
C226 C220 1.493 . S
C226 C225 1.400 . S
C226 C227 1.398 1_554 S
C227 H215 0.950 . S
C227 C226 1.398 1_556 S
C227 C228 1.391 . S
C228 H216 0.950 . S
C228 C224 1.393 1_556 S
C228 C227 1.391 . S
H229 C237 0.950 . S
H230 C242 0.950 . S
H231 C239 0.950 . S
H232 C241 0.950 . S
H233 C243 0.950 . S
H234 C245 0.950 . S
H235 C247 0.950 . S
H236 C248 0.950 . S
C237 H229 0.950 . S
C237 C238 1.386 . S
C237 C239 1.391 . S
C238 C237 1.386 . S
C238 C242 1.393 1_554 S
C239 H231 0.950 . S
C239 C237 1.391 . S
C239 C240 1.400 . S
C240 C239 1.400 . S
C240 C241 1.398 1_554 S
C240 C246 1.493 . S
C241 H232 0.950 . S
C241 C240 1.398 1_556 S
C241 C242 1.391 . S
C242 H230 0.950 . S
C242 C238 1.393 1_556 S
C242 C241 1.391 . S
C243 H233 0.950 . S
C243 C244 1.386 . S
C243 C245 1.391 . S
C244 C243 1.386 . S
C244 C248 1.393 1_556 S
C245 H234 0.950 . S
C245 C243 1.391 . S
C245 C246 1.388 1_556 S
C246 C240 1.493 . S
C246 C245 1.388 1_554 S
C246 C247 1.409 . S
C247 H235 0.950 . S
C247 C246 1.409 . S
C247 C248 1.391 . S
C248 H236 0.950 . S
C248 C244 1.393 1_554 S
C248 C247 1.391 . S
H249 C257 0.950 . S
H250 C262 0.950 . S
H251 C259 0.950 . S
H252 C261 0.950 . S
H253 C263 0.950 . S
H254 C265 0.950 . S
H255 C267 0.950 . S
H256 C268 0.950 . S
C257 H249 0.950 . S
C257 C258 1.400 . S
C257 C259 1.391 . S
C258 C257 1.400 . S
C258 C262 1.381 1_554 S
C259 H251 0.950 . S
C259 C257 1.391 . S
C259 C260 1.400 . S
C260 C259 1.400 . S
C260 C261 1.398 1_554 S
C260 C266 1.491 . S
C261 H252 0.950 . S
C261 C260 1.398 1_556 S
C261 C262 1.391 . S
C262 H250 0.950 . S
C262 C258 1.381 1_556 S
C262 C261 1.391 . S
C263 H253 0.950 . S
C263 C264 1.386 1_556 S
C263 C265 1.391 . S
C264 C263 1.386 1_554 S
C264 C268 1.393 . S
C265 H254 0.950 . S
C265 C263 1.391 . S
C265 C266 1.400 1_556 S
C266 C260 1.491 . S
C266 C265 1.400 1_554 S
C266 C267 1.398 . S
C267 H255 0.950 . S
C267 C266 1.398 . S
C267 C268 1.391 . S
C268 H256 0.950 . S
C268 C264 1.393 . S
C268 C267 1.391 . S
H269 C277 0.950 . S
H270 C282 0.950 . S
H271 C279 0.950 . S
H272 C281 0.950 . S
H273 C283 0.950 . S
H274 C285 0.950 . S
H275 C287 0.950 . S
H276 C288 0.950 . S
C277 H269 0.950 . S
C277 C278 1.386 . S
C277 C279 1.391 . S
C278 C277 1.386 . S
C278 C282 1.393 . S
C279 H271 0.950 . S
C279 C277 1.391 . S
C279 C280 1.400 . S
C280 C279 1.400 . S
C280 C281 1.398 . S
C280 C286 1.491 . S
C281 H272 0.950 . S
C281 C280 1.398 . S
C281 C282 1.391 . S
C282 H270 0.950 . S
C282 C278 1.393 . S
C282 C281 1.391 . S
C283 H273 0.950 . S
C283 C284 1.392 . S
C283 C285 1.391 . S
C284 C283 1.392 . S
C284 C288 1.384 1_556 S
C285 H274 0.950 . S
C285 C283 1.391 . S
C285 C286 1.400 1_556 S
C286 C280 1.491 . S
C286 C285 1.400 1_554 S
C286 C287 1.398 . S
C287 H275 0.950 . S
C287 C286 1.398 . S
C287 C288 1.391 . S
C288 H276 0.950 . S
C288 C284 1.384 1_554 S
C288 C287 1.391 . S
H289 C297 0.950 . S
H290 C302 0.950 . S
H291 C299 0.950 . S
H292 C301 0.950 . S
H293 C303 0.950 . S
H294 C305 0.950 . S
H295 C307 0.950 . S
H296 C308 0.950 . S
C297 H289 0.950 . S
C297 C298 1.386 1_556 S
C297 C299 1.391 . S
C298 C297 1.386 1_554 S
C298 C302 1.393 . S
C299 H291 0.950 . S
C299 C297 1.391 . S
C299 C300 1.400 1_556 S
C300 C299 1.400 1_554 S
C300 C301 1.398 . S
C300 C306 1.491 . S
C301 H292 0.950 . S
C301 C300 1.398 . S
C301 C302 1.391 . S
C302 H290 0.950 . S
C302 C298 1.393 . S
C302 C301 1.391 . S
C303 H293 0.950 . S
C303 C304 1.403 . S
C303 C305 1.391 . S
C304 C303 1.403 . S
C304 C308 1.379 1_554 S
C305 H294 0.950 . S
C305 C303 1.391 . S
C305 C306 1.400 . S
C306 C300 1.491 . S
C306 C305 1.400 . S
C306 C307 1.398 1_554 S
C307 H295 0.950 . S
C307 C306 1.398 1_556 S
C307 C308 1.391 . S
C308 H296 0.950 . S
C308 C304 1.379 1_556 S
C308 C307 1.391 . S
H309 C317 0.950 . S
H310 C322 0.950 . S
H311 C319 0.950 . S
H312 C321 0.950 . S
H313 C323 0.950 . S
H314 C325 0.950 . S
H315 C327 0.950 1_655 S
H316 C328 0.950 . S
C317 H309 0.950 . S
C317 C318 1.386 . S
C317 C319 1.391 . S
C318 C317 1.386 . S
C318 C322 1.393 . S
C319 H311 0.950 . S
C319 C317 1.391 . S
C319 C320 1.400 . S
C320 C319 1.400 . S
C320 C321 1.398 . S
C320 C326 1.491 . S
C321 H312 0.950 . S
C321 C320 1.398 . S
C321 C322 1.391 . S
C322 H310 0.950 . S
C322 C318 1.393 . S
C322 C321 1.391 . S
C323 H313 0.950 . S
C323 C324 1.386 . S
C323 C325 1.391 1_455 S
C324 C323 1.386 . S
C324 C328 1.393 . S
C325 H314 0.950 . S
C325 C323 1.391 1_655 S
C325 C326 1.400 . S
C326 C320 1.491 . S
C326 C325 1.400 . S
C326 C327 1.398 1_655 S
C327 H315 0.950 1_455 S
C327 C326 1.398 1_455 S
C327 C328 1.391 . S
C328 H316 0.950 . S
C328 C324 1.393 . S
C328 C327 1.391 . S
H329 C337 0.950 . S
H330 C342 0.950 . S
H331 C339 0.950 . S
H332 C341 0.950 . S
H333 C343 0.950 . S
H334 C345 0.950 . S
H335 C347 0.950 . S
H336 C348 0.950 . S
C337 H329 0.950 . S
C337 C338 1.386 . S
C337 C339 1.391 . S
C338 C337 1.386 . S
C338 C342 1.393 . S
C339 H331 0.950 . S
C339 C337 1.391 . S
C339 C340 1.400 . S
C340 C339 1.400 . S
C340 C341 1.398 . S
C340 C346 1.491 . S
C341 H332 0.950 . S
C341 C340 1.398 . S
C341 C342 1.391 . S
C342 H330 0.950 . S
C342 C338 1.393 . S
C342 C341 1.391 . S
C343 H333 0.950 . S
C343 C344 1.386 . S
C343 C345 1.391 . S
C344 C343 1.386 . S
C344 C348 1.393 . S
C345 H334 0.950 . S
C345 C343 1.391 . S
C345 C346 1.400 . S
C346 C340 1.491 . S
C346 C345 1.400 . S
C346 C347 1.398 . S
C347 H335 0.950 . S
C347 C346 1.398 . S
C347 C348 1.391 . S
C348 H336 0.950 . S
C348 C344 1.393 . S
C348 C347 1.391 . S
H349 C357 0.950 . S
H350 C362 0.950 1_455 S
H351 C359 0.950 . S
H352 C361 0.950 . S
H353 C363 0.950 . S
H354 C365 0.950 1_545 S
H355 C367 0.950 . S
H356 C368 0.950 . S
C357 H349 0.950 . S
C357 C358 1.386 . S
C357 C359 1.391 . S
C358 C357 1.386 . S
C358 C362 1.393 . S
C359 H351 0.950 . S
C359 C357 1.391 . S
C359 C360 1.400 . S
C360 C359 1.400 . S
C360 C361 1.398 . S
C360 C366 1.491 . S
C361 H352 0.950 . S
C361 C360 1.398 . S
C361 C362 1.391 . S
C362 H350 0.950 1_655 S
C362 C358 1.393 . S
C362 C361 1.391 . S
C363 H353 0.950 . S
C363 C364 1.386 . S
C363 C365 1.391 . S
C364 C363 1.386 . S
C364 C368 1.393 . S
C365 H354 0.950 1_565 S
C365 C363 1.391 . S
C365 C366 1.400 1_565 S
C366 C360 1.491 . S
C366 C365 1.400 1_545 S
C366 C367 1.398 . S
C367 H355 0.950 . S
C367 C366 1.398 . S
C367 C368 1.391 1_545 S
C368 H356 0.950 . S
C368 C364 1.393 . S
C368 C367 1.391 1_565 S
H369 C377 0.950 . S
H370 C382 0.950 . S
H371 C379 0.950 . S
H372 C381 0.950 . S
H373 C383 0.950 . S
H374 C385 0.950 . S
H375 C387 0.950 . S
H376 C388 0.950 . S
C377 H369 0.950 . S
C377 C378 1.386 . S
C377 C379 1.391 . S
C378 C377 1.386 . S
C378 C382 1.393 . S
C379 H371 0.950 . S
C379 C377 1.391 . S
C379 C380 1.400 . S
C380 C379 1.400 . S
C380 C381 1.398 . S
C380 C386 1.491 . S
C381 H372 0.950 . S
C381 C380 1.398 . S
C381 C382 1.391 . S
C382 H370 0.950 . S
C382 C378 1.393 . S
C382 C381 1.391 . S
C383 H373 0.950 . S
C383 C384 1.386 . S
C383 C385 1.391 . S
C384 C383 1.386 . S
C384 C388 1.393 . S
C385 H374 0.950 . S
C385 C383 1.391 . S
C385 C386 1.400 . S
C386 C380 1.491 . S
C386 C385 1.400 . S
C386 C387 1.398 . S
C387 H375 0.950 . S
C387 C386 1.398 . S
C387 C388 1.391 . S
C388 H376 0.950 . S
C388 C384 1.393 . S
C388 C387 1.391 . S
H389 C397 0.950 . S
H390 C402 0.950 . S
H391 C399 0.950 . S
H392 C401 0.950 . S
H393 C403 0.950 . S
H394 C405 0.950 . S
H395 C407 0.950 . S
H396 C408 0.950 . S
C397 H389 0.950 . S
C397 C398 1.386 . S
C397 C399 1.391 . S
C398 C397 1.386 . S
C398 C402 1.393 . S
C399 H391 0.950 . S
C399 C397 1.391 . S
C399 C400 1.400 . S
C400 C399 1.400 . S
C400 C401 1.398 . S
C400 C406 1.491 . S
C401 H392 0.950 . S
C401 C400 1.398 . S
C401 C402 1.391 . S
C402 H390 0.950 . S
C402 C398 1.393 . S
C402 C401 1.391 . S
C403 H393 0.950 . S
C403 C404 1.386 . S
C403 C405 1.391 . S
C404 C403 1.386 . S
C404 C408 1.393 . S
C405 H394 0.950 . S
C405 C403 1.391 . S
C405 C406 1.400 . S
C406 C400 1.491 . S
C406 C405 1.400 . S
C406 C407 1.398 . S
C407 H395 0.950 . S
C407 C406 1.398 . S
C407 C408 1.391 . S
C408 H396 0.950 . S
C408 C404 1.393 . S
C408 C407 1.391 . S
H409 C417 0.950 . S
H410 C422 0.950 . S
H411 C419 0.950 . S
H412 C421 0.950 . S
H413 C423 0.950 . S
H414 C425 0.950 . S
H415 C427 0.950 . S
H416 C428 0.950 . S
C417 H409 0.950 . S
C417 C418 1.386 . S
C417 C419 1.391 . S
C418 C417 1.386 . S
C418 C422 1.393 . S
C419 H411 0.950 . S
C419 C417 1.391 . S
C419 C420 1.400 . S
C420 C419 1.400 . S
C420 C421 1.398 . S
C420 C426 1.491 . S
C421 H412 0.950 . S
C421 C420 1.398 . S
C421 C422 1.391 . S
C422 H410 0.950 . S
C422 C418 1.393 . S
C422 C421 1.391 . S
C423 H413 0.950 . S
C423 C424 1.386 . S
C423 C425 1.391 . S
C424 C423 1.386 . S
C424 C428 1.393 . S
C425 H414 0.950 . S
C425 C423 1.391 . S
C425 C426 1.400 . S
C426 C420 1.491 . S
C426 C425 1.400 . S
C426 C427 1.398 . S
C427 H415 0.950 . S
C427 C426 1.398 . S
C427 C428 1.391 . S
C428 H416 0.950 . S
C428 C424 1.393 . S
C428 C427 1.391 . S
H429 C437 0.950 . S
H430 C442 0.950 . S
H431 C439 0.950 . S
H432 C441 0.950 . S
H433 C443 0.950 . S
H434 C445 0.950 . S
H435 C447 0.950 . S
H436 C448 0.950 . S
C437 H429 0.950 . S
C437 C438 1.386 . S
C437 C439 1.391 . S
C438 C437 1.386 . S
C438 C442 1.393 . S
C439 H431 0.950 . S
C439 C437 1.391 . S
C439 C440 1.400 . S
C440 C439 1.400 . S
C440 C441 1.398 . S
C440 C446 1.491 . S
C441 H432 0.950 . S
C441 C440 1.398 . S
C441 C442 1.391 . S
C442 H430 0.950 . S
C442 C438 1.393 . S
C442 C441 1.391 . S
C443 H433 0.950 . S
C443 C444 1.386 . S
C443 C445 1.391 . S
C444 C443 1.386 . S
C444 C448 1.393 . S
C445 H434 0.950 . S
C445 C443 1.391 . S
C445 C446 1.400 . S
C446 C440 1.491 . S
C446 C445 1.400 . S
C446 C447 1.398 . S
C447 H435 0.950 . S
C447 C446 1.398 . S
C447 C448 1.391 . S
C448 H436 0.950 . S
C448 C444 1.393 . S
C448 C447 1.391 . S
H449 C457 0.950 . S
H450 C462 0.950 . S
H451 C459 0.950 . S
H452 C461 0.950 . S
H453 C463 0.950 . S
H454 C465 0.950 . S
H455 C467 0.950 . S
H456 C468 0.950 . S
C457 H449 0.950 . S
C457 C458 1.386 . S
C457 C459 1.391 . S
C458 C457 1.386 . S
C458 C462 1.393 . S
C459 H451 0.950 . S
C459 C457 1.391 . S
C459 C460 1.400 . S
C460 C459 1.400 . S
C460 C461 1.398 . S
C460 C466 1.491 . S
C461 H452 0.950 . S
C461 C460 1.398 . S
C461 C462 1.391 . S
C462 H450 0.950 . S
C462 C458 1.393 . S
C462 C461 1.391 . S
C463 H453 0.950 . S
C463 C464 1.386 . S
C463 C465 1.391 . S
C464 C463 1.386 . S
C464 C468 1.393 . S
C465 H454 0.950 . S
C465 C463 1.391 . S
C465 C466 1.400 . S
C466 C460 1.491 . S
C466 C465 1.400 . S
C466 C467 1.398 . S
C467 H455 0.950 . S
C467 C466 1.398 . S
C467 C468 1.391 . S
C468 H456 0.950 . S
C468 C464 1.393 . S
C468 C467 1.391 . S
H469 C477 0.950 . S
H470 C482 0.950 . S
H471 C479 0.950 . S
H472 C481 0.950 . S
H473 C483 0.950 . S
H474 C485 0.950 . S
H475 C487 0.950 . S
H476 C488 0.950 . S
C477 H469 0.950 . S
C477 C478 1.386 . S
C477 C479 1.391 . S
C478 C477 1.386 . S
C478 C482 1.393 . S
C479 H471 0.950 . S
C479 C477 1.391 . S
C479 C480 1.400 . S
C480 C479 1.400 . S
C480 C481 1.398 . S
C480 C486 1.491 . S
C481 H472 0.950 . S
C481 C480 1.398 . S
C481 C482 1.391 . S
C482 H470 0.950 . S
C482 C478 1.393 . S
C482 C481 1.391 . S
C483 H473 0.950 . S
C483 C484 1.386 . S
C483 C485 1.391 . S
C484 C483 1.386 . S
C484 C488 1.393 . S
C485 H474 0.950 . S
C485 C483 1.391 . S
C485 C486 1.400 . S
C486 C480 1.491 . S
C486 C485 1.400 . S
C486 C487 1.398 . S
C487 H475 0.950 . S
C487 C486 1.398 . S
C487 C488 1.391 . S
C488 H476 0.950 . S
C488 C484 1.393 . S
C488 C487 1.391 . S
H489 C497 0.950 . S
H490 C502 0.950 . S
H491 C499 0.950 . S
H492 C501 0.950 . S
H493 C503 0.950 . S
H494 C505 0.951 . S
H495 C507 0.950 . S
H496 C508 0.950 . S
C497 H489 0.950 . S
C497 C498 1.386 . S
C497 C499 1.391 . S
C498 C497 1.386 . S
C498 C502 1.393 . S
C499 H491 0.950 . S
C499 C497 1.391 . S
C499 C500 1.400 . S
C500 C499 1.400 . S
C500 C501 1.398 . S
C500 C506 1.491 . S
C501 H492 0.950 . S
C501 C500 1.398 . S
C501 C502 1.391 . S
C502 H490 0.950 . S
C502 C498 1.393 . S
C502 C501 1.391 . S
C503 H493 0.950 . S
C503 C504 1.386 . S
C503 C505 1.391 . S
C504 C503 1.386 . S
C504 C508 1.393 . S
C505 H494 0.951 . S
C505 C503 1.391 . S
C505 C506 1.400 1_545 S
C506 C500 1.491 . S
C506 C505 1.400 1_565 S
C506 C507 1.398 . S
C507 H495 0.950 . S
C507 C506 1.398 . S
C507 C508 1.391 1_565 S
C508 H496 0.950 . S
C508 C504 1.393 . S
C508 C507 1.391 1_545 S
H509 C517 0.950 . S
H510 C522 0.950 . S
H511 C519 0.950 . S
H512 C521 0.950 . S
H513 C523 0.950 . S
H514 C525 0.950 . S
H515 C527 0.950 . S
H516 C528 0.950 1_545 S
C517 H509 0.950 . S
C517 C518 1.386 . S
C517 C519 1.391 1_655 S
C518 C517 1.386 . S
C518 C522 1.393 . S
C519 H511 0.950 . S
C519 C517 1.391 1_455 S
C519 C520 1.400 . S
C520 C519 1.400 . S
C520 C521 1.398 . S
C520 C526 1.491 . S
C521 H512 0.950 . S
C521 C520 1.398 . S
C521 C522 1.391 1_455 S
C522 H510 0.950 . S
C522 C518 1.393 . S
C522 C521 1.391 1_655 S
C523 H513 0.950 . S
C523 C524 1.386 . S
C523 C525 1.391 . S
C524 C523 1.386 . S
C524 C528 1.393 . S
C525 H514 0.950 . S
C525 C523 1.391 . S
C525 C526 1.400 . S
C526 C520 1.491 . S
C526 C525 1.400 . S
C526 C527 1.398 . S
C527 H515 0.950 . S
C527 C526 1.398 . S
C527 C528 1.391 . S
C528 H516 0.950 1_565 S
C528 C524 1.393 . S
C528 C527 1.391 . S
H529 C537 0.950 . S
H530 C542 0.950 . S
H531 C539 0.950 . S
H532 C541 0.950 . S
H533 C543 0.950 . S
H534 C545 0.950 . S
H535 C547 0.950 . S
H536 C548 0.950 . S
C537 H529 0.950 . S
C537 C538 1.386 . S
C537 C539 1.391 . S
C538 C537 1.386 . S
C538 C542 1.393 . S
C539 H531 0.950 . S
C539 C537 1.391 . S
C539 C540 1.400 . S
C540 C539 1.400 . S
C540 C541 1.398 . S
C540 C546 1.491 . S
C541 H532 0.950 . S
C541 C540 1.398 . S
C541 C542 1.391 . S
C542 H530 0.950 . S
C542 C538 1.393 . S
C542 C541 1.391 . S
C543 H533 0.950 . S
C543 C544 1.386 . S
C543 C545 1.391 . S
C544 C543 1.386 . S
C544 C548 1.393 . S
C545 H534 0.950 . S
C545 C543 1.391 . S
C545 C546 1.400 . S
C546 C540 1.491 . S
C546 C545 1.400 . S
C546 C547 1.398 . S
C547 H535 0.950 . S
C547 C546 1.398 . S
C547 C548 1.391 . S
C548 H536 0.950 . S
C548 C544 1.393 . S
C548 C547 1.391 . S
H549 C557 0.950 . S
H550 C562 0.950 . S
H551 C559 0.950 . S
H552 C561 0.950 . S
H553 C563 0.950 . S
H554 C565 0.950 . S
H555 C567 0.950 . S
H556 C568 0.950 . S
C557 H549 0.950 . S
C557 C558 1.386 . S
C557 C559 1.391 . S
C558 C557 1.386 . S
C558 C562 1.393 . S
C559 H551 0.950 . S
C559 C557 1.391 . S
C559 C560 1.400 . S
C560 C559 1.400 . S
C560 C561 1.398 . S
C560 C566 1.491 . S
C561 H552 0.950 . S
C561 C560 1.398 . S
C561 C562 1.391 . S
C562 H550 0.950 . S
C562 C558 1.393 . S
C562 C561 1.391 . S
C563 H553 0.950 . S
C563 C564 1.386 . S
C563 C565 1.391 . S
C564 C563 1.386 . S
C564 C568 1.393 . S
C565 H554 0.950 . S
C565 C563 1.391 . S
C565 C566 1.400 . S
C566 C560 1.491 . S
C566 C565 1.400 . S
C566 C567 1.398 . S
C567 H555 0.950 . S
C567 C566 1.398 . S
C567 C568 1.391 . S
C568 H556 0.950 . S
C568 C564 1.393 . S
C568 C567 1.391 . S
H569 C577 0.950 . S
H570 C582 0.950 . S
H571 C579 0.950 . S
H572 C581 0.950 . S
H573 C583 0.950 . S
H574 C585 0.950 . S
H575 C587 0.950 . S
H576 C588 0.950 . S
C577 H569 0.950 . S
C577 C578 1.386 . S
C577 C579 1.391 . S
C578 C577 1.386 . S
C578 C582 1.393 . S
C579 H571 0.950 . S
C579 C577 1.391 . S
C579 C580 1.400 . S
C580 C579 1.400 . S
C580 C581 1.398 . S
C580 C586 1.491 . S
C581 H572 0.950 . S
C581 C580 1.398 . S
C581 C582 1.391 . S
C582 H570 0.950 . S
C582 C578 1.393 . S
C582 C581 1.391 . S
C583 H573 0.950 . S
C583 C584 1.386 . S
C583 C585 1.391 . S
C584 C583 1.386 . S
C584 C588 1.393 . S
C585 H574 0.950 . S
C585 C583 1.391 . S
C585 C586 1.400 . S
C586 C580 1.491 . S
C586 C585 1.400 . S
C586 C587 1.398 . S
C587 H575 0.950 . S
C587 C586 1.398 . S
C587 C588 1.391 . S
C588 H576 0.950 . S
C588 C584 1.393 . S
C588 C587 1.391 . S
H589 C597 0.950 . S
H590 C602 0.950 . S
H591 C599 0.950 . S
H592 C601 0.950 . S
H593 C603 0.950 . S
H594 C605 0.950 . S
H595 C607 0.950 1_545 S
H596 C608 0.950 . S
C597 H589 0.950 . S
C597 C598 1.386 1_545 S
C597 C599 1.391 . S
C598 C597 1.386 1_565 S
C598 C602 1.393 . S
C599 H591 0.950 . S
C599 C597 1.391 . S
C599 C600 1.400 1_545 S
C600 C599 1.400 1_565 S
C600 C601 1.398 . S
C600 C606 1.491 . S
C601 H592 0.950 . S
C601 C600 1.398 . S
C601 C602 1.391 . S
C602 H590 0.950 . S
C602 C598 1.393 . S
C602 C601 1.391 . S
C603 H593 0.950 . S
C603 C604 1.386 . S
C603 C605 1.391 . S
C604 C603 1.386 . S
C604 C608 1.393 . S
C605 H594 0.950 . S
C605 C603 1.391 . S
C605 C606 1.400 . S
C606 C600 1.491 . S
C606 C605 1.400 . S
C606 C607 1.398 . S
C607 H595 0.950 1_565 S
C607 C606 1.398 . S
C607 C608 1.391 . S
C608 H596 0.950 . S
C608 C604 1.393 . S
C608 C607 1.391 . S
H609 C617 0.950 . S
H610 C622 0.950 . S
H611 C619 0.950 . S
H612 C621 0.950 1_565 S
H613 C623 0.950 . S
H614 C625 0.950 1_565 S
H615 C627 0.950 . S
H616 C628 0.950 . S
C617 H609 0.950 . S
C617 C618 1.386 . S
C617 C619 1.391 . S
C618 C617 1.386 . S
C618 C622 1.393 1_545 S
C619 H611 0.950 . S
C619 C617 1.391 . S
C619 C620 1.400 . S
C620 C619 1.400 . S
C620 C621 1.398 . S
C620 C626 1.491 . S
C621 H612 0.950 1_545 S
C621 C620 1.398 . S
C621 C622 1.391 1_545 S
C622 H610 0.950 . S
C622 C618 1.393 1_565 S
C622 C621 1.391 1_565 S
C623 H613 0.950 . S
C623 C624 1.386 . S
C623 C625 1.391 . S
C624 C623 1.386 . S
C624 C628 1.393 . S
C625 H614 0.950 1_545 S
C625 C623 1.391 . S
C625 C626 1.400 . S
C626 C620 1.491 . S
C626 C625 1.400 . S
C626 C627 1.398 . S
C627 H615 0.950 . S
C627 C626 1.398 . S
C627 C628 1.391 . S
C628 H616 0.950 . S
C628 C624 1.393 . S
C628 C627 1.391 . S
H629 C637 0.950 . S
H630 C642 0.950 . S
H631 C639 0.950 . S
H632 C641 0.950 . S
H633 C643 0.950 1_455 S
H634 C645 0.950 1_455 S
H635 C647 0.950 . S
H636 C648 0.950 . S
C637 H629 0.950 . S
C637 C638 1.386 . S
C637 C639 1.391 . S
C638 C637 1.386 . S
C638 C642 1.393 1_655 S
C639 H631 0.950 . S
C639 C637 1.391 . S
C639 C640 1.400 . S
C640 C639 1.400 . S
C640 C641 1.398 1_655 S
C640 C646 1.491 . S
C641 H632 0.950 . S
C641 C640 1.398 1_455 S
C641 C642 1.391 . S
C642 H630 0.950 . S
C642 C638 1.393 1_455 S
C642 C641 1.391 . S
C643 H633 0.950 1_655 S
C643 C644 1.386 . S
C643 C645 1.391 . S
C644 C643 1.386 . S
C644 C648 1.393 . S
C645 H634 0.950 1_655 S
C645 C643 1.391 . S
C645 C646 1.400 . S
C646 C640 1.491 . S
C646 C645 1.400 . S
C646 C647 1.398 . S
C647 H635 0.950 . S
C647 C646 1.398 . S
C647 C648 1.391 . S
C648 H636 0.950 . S
C648 C644 1.393 . S
C648 C647 1.391 . S
H649 C657 0.950 . S
H650 C662 0.950 . S
H651 C659 0.950 . S
H652 C661 0.950 . S
H653 C663 0.950 . S
H654 C665 0.950 . S
H655 C667 0.950 . S
H656 C668 0.950 . S
C657 H649 0.950 . S
C657 C658 1.386 . S
C657 C659 1.391 . S
C658 C657 1.386 . S
C658 C662 1.393 . S
C659 H651 0.950 . S
C659 C657 1.391 . S
C659 C660 1.400 . S
C660 C659 1.400 . S
C660 C661 1.398 . S
C660 C666 1.491 . S
C661 H652 0.950 . S
C661 C660 1.398 . S
C661 C662 1.391 . S
C662 H650 0.950 . S
C662 C658 1.393 . S
C662 C661 1.391 . S
C663 H653 0.950 . S
C663 C664 1.386 . S
C663 C665 1.391 . S
C664 C663 1.386 . S
C664 C668 1.393 . S
C665 H654 0.950 . S
C665 C663 1.391 . S
C665 C666 1.400 . S
C666 C660 1.491 . S
C666 C665 1.400 . S
C666 C667 1.398 . S
C667 H655 0.950 . S
C667 C666 1.398 . S
C667 C668 1.391 . S
C668 H656 0.950 . S
C668 C664 1.393 . S
C668 C667 1.391 . S
H669 C677 0.950 . S
H670 C682 0.950 . S
H671 C679 0.950 . S
H672 C681 0.950 . S
H673 C683 0.950 . S
H674 C685 0.950 . S
H675 C687 0.950 . S
H676 C688 0.950 . S
C677 H669 0.950 . S
C677 C678 1.386 . S
C677 C679 1.391 . S
C678 C677 1.386 . S
C678 C682 1.393 . S
C679 H671 0.950 . S
C679 C677 1.391 . S
C679 C680 1.400 . S
C680 C679 1.400 . S
C680 C681 1.398 . S
C680 C686 1.491 . S
C681 H672 0.950 . S
C681 C680 1.398 . S
C681 C682 1.391 . S
C682 H670 0.950 . S
C682 C678 1.393 . S
C682 C681 1.391 . S
C683 H673 0.950 . S
C683 C684 1.386 . S
C683 C685 1.391 . S
C684 C683 1.386 . S
C684 C688 1.393 . S
C685 H674 0.950 . S
C685 C683 1.391 . S
C685 C686 1.400 . S
C686 C680 1.491 . S
C686 C685 1.400 . S
C686 C687 1.398 . S
C687 H675 0.950 . S
C687 C686 1.398 . S
C687 C688 1.391 . S
C688 H676 0.950 . S
C688 C684 1.393 . S
C688 C687 1.391 . S
H689 C697 0.950 . S
H690 C702 0.950 . S
H691 C699 0.950 . S
H692 C701 0.950 . S
H693 C703 0.950 . S
H694 C705 0.950 . S
H695 C707 0.950 . S
H696 C708 0.950 . S
C697 H689 0.950 . S
C697 C698 1.386 1_545 S
C697 C699 1.391 . S
C698 C697 1.386 1_565 S
C698 C702 1.393 . S
C699 H691 0.950 . S
C699 C697 1.391 . S
C699 C700 1.400 1_545 S
C700 C699 1.400 1_565 S
C700 C701 1.398 . S
C700 C706 1.491 1_565 S
C701 H692 0.950 . S
C701 C700 1.398 . S
C701 C702 1.391 . S
C702 H690 0.950 . S
C702 C698 1.393 . S
C702 C701 1.391 . S
C703 H693 0.950 . S
C703 C704 1.386 1_565 S
C703 C705 1.391 . S
C704 C703 1.386 1_545 S
C704 C708 1.393 . S
C705 H694 0.950 . S
C705 C703 1.391 . S
C705 C706 1.400 1_565 S
C706 C700 1.491 1_545 S
C706 C705 1.400 1_545 S
C706 C707 1.398 . S
C707 H695 0.950 . S
C707 C706 1.398 . S
C707 C708 1.391 . S
C708 H696 0.950 . S
C708 C704 1.393 . S
C708 C707 1.391 . S
H709 C717 0.950 . S
H710 C722 0.950 . S
H711 C719 0.950 . S
H712 C721 0.950 . S
H713 C723 0.950 . S
H714 C725 0.950 . S
H715 C727 0.950 . S
H716 C728 0.967 . S
C717 H709 0.950 . S
C717 C718 1.386 . S
C717 C719 1.391 . S
C718 C717 1.386 . S
C718 C722 1.393 1_655 S
C719 H711 0.950 . S
C719 C717 1.391 . S
C719 C720 1.400 . S
C720 C719 1.400 . S
C720 C721 1.398 1_655 S
C720 C726 1.491 1_655 S
C721 H712 0.950 . S
C721 C720 1.398 1_455 S
C721 C722 1.391 . S
C722 H710 0.950 . S
C722 C718 1.393 1_455 S
C722 C721 1.391 . S
C723 H713 0.950 . S
C723 C724 1.386 . S
C723 C725 1.391 . S
C724 C723 1.386 . S
C724 C728 1.369 1_455 S
C725 H714 0.950 . S
C725 C723 1.391 . S
C725 C726 1.400 . S
C726 C720 1.491 1_455 S
C726 C725 1.400 . S
C726 C727 1.398 1_455 S
C727 H715 0.950 . S
C727 C726 1.398 1_655 S
C727 C728 1.398 . S
C728 H716 0.967 . S
C728 C724 1.369 1_655 S
C728 C727 1.398 . S
C198 C40 1.049 . S
C204 C16 0.904 . S
C218 C62 1.059 . S
C224 C37 0.899 . S
C238 C45 0.918 . S
C244 C19 1.038 . S
C258 C58 0.899 . S
C264 C41 1.061 . S
C278 C61 1.036 . S
C284 C3 0.922 1_556 S
C298 C20 1.026 . S
C304 C24 0.938 . S
C318 C79 0.958 . S
C324 C104 1.024 . S
C338 C125 1.013 . S
C344 C87 0.957 . S
C358 C108 0.887 . S
C364 C82 1.056 . S
C378 C103 1.046 . S
C384 C121 0.896 . S
C398 C124 1.039 . S
C404 C66 0.941 . S
C418 C100 0.945 . S
C424 C83 1.036 . S
C438 C167 1.041 . S
C444 C142 0.937 . S
C458 C150 0.950 . S
C464 C188 1.014 . S
C478 C171 0.959 . S
C484 C145 1.012 . S
C498 C184 0.890 . S
C504 C166 1.061 . S
C518 C187 1.046 . S
C524 C129 0.929 . S
C538 C146 1.022 . S
C544 C163 0.931 . S
C558 C109 1.435 . S
C564 C4 1.458 1_455 S
C578 C70 1.449 . S
C584 C25 1.453 . S
C598 C49 1.430 1_565 S
C604 C88 1.456 . S
C618 C46 1.448 1_545 S
C624 C130 1.422 . S
C638 C7 1.427 1_655 S
C644 C154 1.431 . S
C658 C175 1.430 . S
C664 C28 1.427 . S
C678 C67 1.436 . S
C684 C172 1.424 . S
C698 C91 1.450 . S
C704 C133 1.424 . S
C718 C151 1.433 . S
C724 C112 1.457 . S
