# Generated by pormake.
# Topology uki, (4)-cn, num edge types: 1
# Building blocks:
#     Node 0, Type 0, BuildingBlock: ESEHIV_clean_sbu_0, # of connection points: 4
#     Node 1, Type 0, BuildingBlock: ESEHIV_clean_sbu_0, # of connection points: 4
#     Node 2, Type 0, BuildingBlock: ESEHIV_clean_sbu_0, # of connection points: 4
#     Node 3, Type 0, BuildingBlock: ESEHIV_clean_sbu_0, # of connection points: 4
#     Node 4, Type 0, BuildingBlock: ESEHIV_clean_sbu_0, # of connection points: 4
#     Node 5, Type 0, BuildingBlock: ESEHIV_clean_sbu_0, # of connection points: 4
#     Node 6, Type 0, BuildingBlock: ESEHIV_clean_sbu_0, # of connection points: 4
#     Node 7, Type 0, BuildingBlock: ESEHIV_clean_sbu_0, # of connection points: 4
#     Node 8, Type 0, BuildingBlock: ESEHIV_clean_sbu_0, # of connection points: 4
#     Node 9, Type 0, BuildingBlock: ESEHIV_clean_sbu_0, # of connection points: 4
#     Node 10, Type 0, BuildingBlock: ESEHIV_clean_sbu_0, # of connection points: 4
#     Node 11, Type 0, BuildingBlock: ESEHIV_clean_sbu_0, # of connection points: 4
#     Node 12, Type 0, BuildingBlock: ESEHIV_clean_sbu_0, # of connection points: 4
#     Node 13, Type 0, BuildingBlock: ESEHIV_clean_sbu_0, # of connection points: 4
#     Node 14, Type 0, BuildingBlock: ESEHIV_clean_sbu_0, # of connection points: 4
#     Node 15, Type 0, BuildingBlock: ESEHIV_clean_sbu_0, # of connection points: 4
#     Edge 16, Type (0, 0), BuildingBlock: XUDNAN_clean_linker_2, # of connection points: 2
#     Edge 17, Type (0, 0), BuildingBlock: XUDNAN_clean_linker_2, # of connection points: 2
#     Edge 18, Type (0, 0), BuildingBlock: XUDNAN_clean_linker_2, # of connection points: 2
#     Edge 19, Type (0, 0), BuildingBlock: XUDNAN_clean_linker_2, # of connection points: 2
#     Edge 20, Type (0, 0), BuildingBlock: XUDNAN_clean_linker_2, # of connection points: 2
#     Edge 21, Type (0, 0), BuildingBlock: XUDNAN_clean_linker_2, # of connection points: 2
#     Edge 22, Type (0, 0), BuildingBlock: XUDNAN_clean_linker_2, # of connection points: 2
#     Edge 23, Type (0, 0), BuildingBlock: XUDNAN_clean_linker_2, # of connection points: 2
#     Edge 24, Type (0, 0), BuildingBlock: XUDNAN_clean_linker_2, # of connection points: 2
#     Edge 25, Type (0, 0), BuildingBlock: XUDNAN_clean_linker_2, # of connection points: 2
#     Edge 26, Type (0, 0), BuildingBlock: XUDNAN_clean_linker_2, # of connection points: 2
#     Edge 27, Type (0, 0), BuildingBlock: XUDNAN_clean_linker_2, # of connection points: 2
#     Edge 28, Type (0, 0), BuildingBlock: XUDNAN_clean_linker_2, # of connection points: 2
#     Edge 29, Type (0, 0), BuildingBlock: XUDNAN_clean_linker_2, # of connection points: 2
#     Edge 30, Type (0, 0), BuildingBlock: XUDNAN_clean_linker_2, # of connection points: 2
#     Edge 31, Type (0, 0), BuildingBlock: XUDNAN_clean_linker_2, # of connection points: 2
#     Edge 32, Type (0, 0), BuildingBlock: XUDNAN_clean_linker_2, # of connection points: 2
#     Edge 33, Type (0, 0), BuildingBlock: XUDNAN_clean_linker_2, # of connection points: 2
#     Edge 34, Type (0, 0), BuildingBlock: XUDNAN_clean_linker_2, # of connection points: 2
#     Edge 35, Type (0, 0), BuildingBlock: XUDNAN_clean_linker_2, # of connection points: 2
#     Edge 36, Type (0, 0), BuildingBlock: XUDNAN_clean_linker_2, # of connection points: 2
#     Edge 37, Type (0, 0), BuildingBlock: XUDNAN_clean_linker_2, # of connection points: 2
#     Edge 38, Type (0, 0), BuildingBlock: XUDNAN_clean_linker_2, # of connection points: 2
#     Edge 39, Type (0, 0), BuildingBlock: XUDNAN_clean_linker_2, # of connection points: 2
#     Edge 40, Type (0, 0), BuildingBlock: XUDNAN_clean_linker_2, # of connection points: 2
#     Edge 41, Type (0, 0), BuildingBlock: XUDNAN_clean_linker_2, # of connection points: 2
#     Edge 42, Type (0, 0), BuildingBlock: XUDNAN_clean_linker_2, # of connection points: 2
#     Edge 43, Type (0, 0), BuildingBlock: XUDNAN_clean_linker_2, # of connection points: 2
#     Edge 44, Type (0, 0), BuildingBlock: XUDNAN_clean_linker_2, # of connection points: 2
#     Edge 45, Type (0, 0), BuildingBlock: XUDNAN_clean_linker_2, # of connection points: 2
#     Edge 46, Type (0, 0), BuildingBlock: XUDNAN_clean_linker_2, # of connection points: 2
#     Edge 47, Type (0, 0), BuildingBlock: XUDNAN_clean_linker_2, # of connection points: 2
# Relax obj value: 0.104
# Max RMSD: 0.190
# Mean RMSD: 0.171
data_MOF--net-uki--node1-ESEHIV_clean_sbu_0--edge1-XUDNAN_clean_linker_2
_symmetry_space_group_name_H-M    P1
_symmetry_Int_Tables_number       1
_symmetry_cell_setting            triclinic
loop_
_symmetry_equiv_pos_as_xyz
'x, y, z'
_cell_length_a     35.718787
_cell_length_b     29.243626
_cell_length_c     85.211608
_cell_angle_alpha  89.83106
_cell_angle_beta   90.074793
_cell_angle_gamma 90.01564
loop_
_atom_site_label
_atom_site_type_symbol
_atom_site_fract_x
_atom_site_fract_y
_atom_site_fract_z
_atom_type_partial_charge
Cu0 Cu 0.12107 0.26265 0.30464 0.0
N1 N 0.08313 0.30442 0.2993 0.0
N2 N 0.04371 0.34079 0.28296 0.0
C3 C 0.05884 0.30016 0.28724 0.0
C4 C 0.05832 0.37151 0.29305 0.0
C5 C 0.08276 0.34913 0.30297 0.0
O6 O 0.16239 0.27945 0.29072 0.0
C7 C 0.08539 0.17889 0.31245 0.0
O8 O 0.08181 0.19892 0.32614 0.0
H9 H 0.0549 0.26852 0.28091 0.0
H10 H 0.10172 0.36517 0.31119 0.0
N11 N 0.13666 0.27155 0.32561 0.0
N12 N 0.17065 0.27166 0.34779 0.0
C13 C 0.16797 0.25613 0.33286 0.0
C14 C 0.11891 0.29704 0.33643 0.0
C15 C 0.13982 0.29741 0.35002 0.0
C16 C 0.15646 0.28548 0.2761 0.0
O17 O 0.12475 0.27138 0.27 0.0
H18 H 0.18872 0.23483 0.32722 0.0
H19 H 0.09251 0.31431 0.33457 0.0
O20 O 0.10233 0.20012 0.30143 0.0
H21 H 0.05448 0.40817 0.29237 0.0
H22 H 0.13269 0.31489 0.36079 0.0
Cu23 Cu 0.24152 0.89799 0.72655 0.0
N24 N 0.19168 0.9094 0.73209 0.0
N25 N 0.1329 0.93564 0.73125 0.0
C26 C 0.16536 0.93044 0.72331 0.0
C27 C 0.13904 0.91698 0.74552 0.0
C28 C 0.17522 0.90072 0.74599 0.0
O29 O 0.24087 0.87464 0.70508 0.0
C30 C 0.26993 0.96716 0.74459 0.0
O31 O 0.25166 0.94238 0.75493 0.0
H32 H 0.17027 0.94277 0.7115 0.0
H33 H 0.18879 0.88435 0.75587 0.0
N34 N 0.26099 0.85271 0.7398 0.0
N35 N 0.29768 0.81702 0.75737 0.0
C36 C 0.29376 0.85351 0.74767 0.0
C37 C 0.2437 0.81422 0.74441 0.0
C38 C 0.26607 0.79223 0.75522 0.0
C39 C 0.26608 0.84944 0.69899 0.0
O40 O 0.29761 0.84271 0.7066 0.0
H41 H 0.3138 0.88097 0.74646 0.0
H42 H 0.2162 0.80363 0.74052 0.0
O43 O 0.26962 0.9545 0.73026 0.0
H44 H 0.11879 0.91509 0.75494 0.0
H45 H 0.25875 0.76097 0.76127 0.0
Cu46 Cu 0.93729 0.78629 0.31742 0.0
N47 N 0.98151 0.7524 0.31544 0.0
N48 N 0.0374 0.73112 0.30614 0.0
C49 C 1.0132 0.7661 0.30826 0.0
C50 C 0.0203 0.69404 0.31228 0.0
C51 C 0.98585 0.70728 0.31801 0.0
O52 O 0.89962 0.75588 0.30447 0.0
C53 C 0.96657 0.87507 0.32059 0.0
O54 O 0.97453 0.85928 0.33466 0.0
H55 H 1.01738 0.80038 0.30376 0.0
H56 H 0.96464 0.68517 0.32298 0.0
N57 N 0.9197 0.78389 0.33816 0.0
N58 N 0.88061 0.78593 0.35868 0.0
C59 C 0.88616 0.79823 0.34354 0.0
C60 C 0.93592 0.76213 0.35033 0.0
C61 C 0.91189 0.76323 0.36297 0.0
C62 C 0.9082 0.73711 0.29149 0.0
O63 O 0.94184 0.74379 0.28571 0.0
H64 H 0.86555 0.81539 0.3363 0.0
H65 H 0.96287 0.74533 0.34988 0.0
O66 O 0.94867 0.84936 0.3111 0.0
H67 H 0.03148 0.65964 0.31228 0.0
H68 H 0.9168 0.74795 0.37438 0.0
Cu69 Cu 0.78356 0.10861 0.7079 0.0
N70 N 0.834 0.11191 0.71375 0.0
N71 N 0.8942 0.09298 0.71684 0.0
C72 C 0.86186 0.08379 0.70923 0.0
C73 C 0.88638 0.12833 0.72644 0.0
C74 C 0.84928 0.14001 0.72447 0.0
O75 O 0.78045 0.12687 0.68573 0.0
C76 C 0.77338 0.03284 0.72684 0.0
O77 O 0.79453 0.05885 0.73574 0.0
H78 H 0.85805 0.05598 0.70103 0.0
H79 H 0.83419 0.16627 0.73075 0.0
N80 N 0.75588 0.14953 0.72021 0.0
N81 N 0.71601 0.17549 0.73834 0.0
C82 C 0.73179 0.1383 0.73175 0.0
C83 C 0.75527 0.19553 0.71945 0.0
C84 C 0.73051 0.21166 0.73059 0.0
C85 C 0.75275 0.14893 0.68005 0.0
O86 O 0.72276 0.15456 0.68873 0.0
H87 H 0.72546 0.1035 0.73514 0.0
H88 H 0.77165 0.21584 0.71135 0.0
O89 O 0.76526 0.04702 0.71305 0.0
H90 H 0.906 0.14435 0.73441 0.0
H91 H 0.72421 0.24716 0.73299 0.0
Cu92 Cu 0.09802 0.28686 0.98243 0.0
N93 N 0.05326 0.25599 0.9874 0.0
N94 N 1.01067 0.21325 0.99997 0.0
C95 C 0.04339 0.23625 1.00118 0.0
C96 C 0.99943 0.21901 0.98499 0.0
C97 C 0.02548 0.24569 0.97733 0.0
O98 O 0.13746 0.26435 0.99641 0.0
C99 C 0.07008 0.37458 0.99325 0.0
O100 O 0.05822 0.35242 1.00573 0.0
H101 H 0.06063 0.23691 1.01163 0.0
H102 H 0.02483 0.25573 0.96511 0.0
N103 N 0.11396 0.27186 0.962 0.0
N104 N 0.1488 0.26969 0.94008 0.0
C105 C 0.14106 0.29262 0.95349 0.0
C106 C 0.10424 0.2347 0.95365 0.0
C107 C 0.12553 0.2333 0.94018 0.0
C108 C 0.14228 0.22105 0.99668 0.0
O109 O 0.11991 0.19523 0.98825 0.0
H110 H 0.15599 0.32271 0.95741 0.0
H111 H 0.08407 0.20934 0.95737 0.0
O112 O 0.08887 0.35313 0.98287 0.0
H113 H 0.97442 0.20425 0.97989 0.0
H114 H 0.12433 0.20707 0.93126 0.0
Cu115 Cu 0.29554 0.95691 0.08055 0.0
N116 N 0.32805 0.98946 0.09395 0.0
N117 N 0.38163 1.0114 0.10548 0.0
C118 C 0.36576 0.98544 0.09419 0.0
C119 C 0.35267 0.03251 0.11264 0.0
C120 C 0.31972 1.01901 0.10549 0.0
O121 O 0.30751 0.89145 0.08261 0.0
C122 C 0.3123 1.02342 0.05699 0.0
O123 O 0.33752 0.03791 0.06701 0.0
H124 H 0.3811 0.96303 0.08642 0.0
H125 H 0.29167 0.02951 0.1086 0.0
N126 N 0.24481 0.95997 0.08609 0.0
N127 N 0.18437 0.95249 0.0794 0.0
C128 C 0.21787 0.97077 0.0756 0.0
C129 C 0.22739 0.93452 0.09709 0.0
C130 C 0.19015 0.92971 0.09296 0.0
C131 C 0.3157 0.87806 0.0965 0.0
O132 O 0.31775 0.90831 0.10781 0.0
H133 H 0.22367 0.98648 0.06435 0.0
H134 H 0.24148 0.91619 0.10642 0.0
O135 O 0.2962 0.98508 0.05952 0.0
H136 H 0.35508 0.05619 0.12233 0.0
H137 H 0.16974 0.90815 0.09875 0.0
Cu138 Cu 0.9336 0.7739 0.97881 0.0
N139 N 0.97339 0.81389 0.98349 0.0
N140 N 1.01286 0.85869 0.99698 0.0
C141 C 0.98828 0.82351 0.99772 0.0
C142 C 1.0136 0.87133 0.98174 0.0
C143 C 0.98933 0.84382 0.97351 0.0
O144 O 0.89162 0.7913 0.99224 0.0
C145 C 0.96147 0.68638 0.99204 0.0
O146 O 0.95846 0.70324 1.00625 0.0
H147 H 0.9798 0.80675 1.00849 0.0
H148 H 0.98259 0.84695 0.96119 0.0
N149 N 0.91858 0.78134 0.95777 0.0
N150 N 0.8838 0.78278 0.93579 0.0
C151 C 0.88358 0.78337 0.9517 0.0
C152 C 0.94151 0.77926 0.94529 0.0
C153 C 0.92032 0.78046 0.9318 0.0
C154 C 0.88235 0.8335 0.99179 0.0
O155 O 0.90079 0.86104 0.98235 0.0
H156 H 0.85849 0.78307 0.95881 0.0
H157 H 0.9716 0.77554 0.94598 0.0
O158 O 0.95132 0.7104 0.98025 0.0
H159 H 0.02995 0.89922 0.97694 0.0
H160 H 0.9311 0.77898 0.91995 0.0
Cu161 Cu 0.74285 0.08221 0.08607 0.0
N162 N 0.71019 0.054 0.10049 0.0
N163 N 0.65546 0.03297 0.11128 0.0
C164 C 0.67317 0.04731 0.09814 0.0
C165 C 0.68278 0.02968 0.12224 0.0
C166 C 0.7164 0.04269 0.11557 0.0
O167 O 0.7379 0.14853 0.0887 0.0
C168 C 0.7348 1.00998 0.06584 0.0
O169 O 0.73296 0.98974 0.07959 0.0
H170 H 0.65917 0.05605 0.08727 0.0
H171 H 0.74311 0.04566 0.12147 0.0
N172 N 0.79401 0.0739 0.09001 0.0
N173 N 0.85301 0.08321 0.08148 0.0
C174 C 0.81844 0.06715 0.07817 0.0
C175 C 0.81412 0.09444 0.10137 0.0
C176 C 0.8505 0.10023 0.09614 0.0
C177 C 0.71303 0.16702 0.09737 0.0
O178 O 0.6813 0.14552 0.09975 0.0
H179 H 0.80984 0.05683 0.06653 0.0
H180 H 0.80218 0.10952 0.1118 0.0
O181 O 0.73624 0.05367 0.06539 0.0
H182 H 0.67873 1.01986 0.13437 0.0
H183 H 0.87241 0.11899 0.1021 0.0
Cu184 Cu 0.62794 0.73491 0.81469 0.0
N185 N 0.58756 0.77148 0.82067 0.0
N186 N 0.52821 0.79517 0.8184 0.0
C187 C 0.55188 0.75936 0.81775 0.0
C188 C 0.54981 0.83156 0.82198 0.0
C189 C 0.58649 0.8168 0.8234 0.0
O190 O 0.64996 0.76337 0.79603 0.0
C191 C 0.59342 0.65169 0.82142 0.0
O192 O 0.59783 0.66752 0.83572 0.0
H193 H 0.54399 0.72587 0.81351 0.0
H194 H 0.61088 0.83825 0.82492 0.0
N195 N 0.66487 0.72639 0.83023 0.0
N196 N 0.7054 0.73206 0.85031 0.0
C197 C 0.67557 0.75122 0.84287 0.0
C198 C 0.68838 0.69054 0.82985 0.0
C199 C 0.71316 0.69382 0.84211 0.0
C200 C 0.67091 0.79831 0.79771 0.0
O201 O 0.67864 0.81235 0.81198 0.0
H202 H 0.66248 0.78304 0.84629 0.0
H203 H 0.68758 0.66385 0.82109 0.0
O204 O 0.60609 0.67514 0.80994 0.0
H205 H 0.54018 0.8666 0.82258 0.0
H206 H 0.73512 0.66955 0.84482 0.0
Cu207 Cu 0.77349 0.46229 0.19895 0.0
N208 N 0.73922 0.49986 0.18841 0.0
N209 N 0.68345 0.53112 0.18346 0.0
C210 C 0.70411 0.50652 0.19362 0.0
C211 C 0.70628 0.54056 0.17129 0.0
C212 C 0.74098 0.52133 0.17442 0.0
O213 O 0.76489 0.39873 0.19252 0.0
C214 C 0.77938 0.52279 0.22244 0.0
O215 O 0.78257 0.54736 0.20958 0.0
H216 H 0.69324 0.4912 0.20427 0.0
H217 H 0.76511 0.52122 0.16677 0.0
N218 N 0.82383 0.47153 0.19389 0.0
N219 N 0.88433 0.45734 0.19897 0.0
C220 C 0.8505 0.46742 0.20501 0.0
C221 C 0.84148 0.46423 0.18019 0.0
C222 C 0.87889 0.45553 0.18329 0.0
C223 C 0.73649 0.38524 0.18468 0.0
O224 O 0.70611 0.41045 0.18444 0.0
H225 H 0.84419 0.46533 0.21741 0.0
H226 H 0.8275 0.46014 0.16901 0.0
O227 O 0.77199 0.48018 0.2211 0.0
H228 H 0.6979 0.55783 0.1606 0.0
H229 H 0.8996 0.44476 0.17481 0.0
Cu230 Cu 0.41859 0.28044 0.82401 0.0
N231 N 0.4667 0.25513 0.82483 0.0
N232 N 0.52183 0.2276 0.81686 0.0
C233 C 0.48823 0.24438 0.8124 0.0
C234 C 0.52151 0.2281 0.83268 0.0
C235 C 0.48763 0.2455 0.83757 0.0
O236 O 0.39243 0.24969 0.80684 0.0
C237 C 0.44532 0.36867 0.82961 0.0
O238 O 0.45442 0.34974 0.84309 0.0
H239 H 0.47932 0.2485 0.80033 0.0
H240 H 0.47911 0.25134 0.84956 0.0
N241 N 0.39296 0.26901 0.84305 0.0
N242 N 0.35088 0.26835 0.86264 0.0
C243 C 0.36339 0.29066 0.84967 0.0
C244 C 0.3992 0.23229 0.85225 0.0
C245 C 0.37357 0.23181 0.86425 0.0
C246 C 0.3898 0.20629 0.80777 0.0
O247 O 0.404 0.18554 0.82009 0.0
H248 H 0.35049 0.32101 0.84477 0.0
H249 H 0.42035 0.20663 0.85015 0.0
O250 O 0.42641 0.34532 0.81979 0.0
H251 H 0.54447 0.21758 0.84017 0.0
H252 H 0.37163 0.20624 0.87342 0.0
Cu253 Cu 0.31196 0.6152 0.20707 0.0
N254 N 0.36337 0.61739 0.21138 0.0
N255 N 0.4249 0.60503 0.20893 0.0
C256 C 0.39019 0.59281 0.20418 0.0
C257 C 0.41959 0.63843 0.2196 0.0
C258 C 0.38162 0.6459 0.22111 0.0
O259 O 0.30483 0.62858 0.18456 0.0
C260 C 0.26194 0.54017 0.21502 0.0
O261 O 0.23431 0.56546 0.20967 0.0
H262 H 0.38433 0.5677 0.1952 0.0
H263 H 0.36827 0.67105 0.22852 0.0
N264 N 0.28748 0.66083 0.21857 0.0
N265 N 0.25099 0.69841 0.23559 0.0
C266 C 0.26282 0.65699 0.23053 0.0
C267 C 0.29117 0.70598 0.216 0.0
C268 C 0.26885 0.72915 0.22642 0.0
C269 C 0.32667 0.65818 0.17837 0.0
O270 O 0.35271 0.67681 0.18716 0.0
H271 H 0.254 0.62463 0.23548 0.0
H272 H 0.30872 0.72109 0.20707 0.0
O273 O 0.2954 0.55492 0.21406 0.0
H274 H 0.44154 0.65624 0.22587 0.0
H275 H 0.26549 0.76589 0.22694 0.0
Cu276 Cu 0.59384 0.78101 0.46536 0.0
N277 N 0.54707 0.75199 0.46525 0.0
N278 N 0.49308 0.72105 0.47323 0.0
C279 C 0.52442 0.7436 0.47759 0.0
C280 C 0.49604 0.71538 0.45758 0.0
C281 C 0.5292 0.73474 0.45269 0.0
O282 O 0.62441 0.7561 0.48249 0.0
C283 C 0.56748 0.86701 0.47738 0.0
O284 O 0.56044 0.84386 0.49027 0.0
H285 H 0.53117 0.75289 0.48955 0.0
H286 H 0.53959 0.73608 0.44078 0.0
N287 N 0.62 0.76622 0.44693 0.0
N288 N 0.66319 0.76594 0.42787 0.0
C289 C 0.64577 0.79108 0.43901 0.0
C290 C 0.62125 0.72425 0.44051 0.0
C291 C 0.64771 0.72397 0.42879 0.0
C292 C 0.62417 0.71289 0.48487 0.0
O293 O 0.6009 0.68737 0.47678 0.0
H294 H 0.65303 0.82599 0.44192 0.0
H295 H 0.60508 0.69522 0.44451 0.0
O296 O 0.58399 0.84699 0.46603 0.0
H297 H 0.47551 0.6988 0.45017 0.0
H298 H 0.65552 0.69487 0.42169 0.0
Cu299 Cu 0.7602 0.46229 0.58046 0.0
N300 N 0.79313 0.49571 0.59317 0.0
N301 N 0.84775 0.52657 0.60058 0.0
C302 C 0.82949 0.50201 0.58958 0.0
C303 C 0.82176 0.53579 0.61164 0.0
C304 C 0.78802 0.51674 0.60702 0.0
O305 O 0.76679 0.39775 0.58641 0.0
C306 C 0.76859 0.52582 0.55726 0.0
O307 O 0.76923 0.55102 0.56998 0.0
H308 H 0.84231 0.4882 0.57912 0.0
H309 H 0.76175 0.51805 0.61331 0.0
N310 N 0.70931 0.47498 0.58251 0.0
N311 N 0.65138 0.47157 0.57256 0.0
C312 C 0.68482 0.45065 0.57396 0.0
C313 C 0.69072 0.51284 0.58693 0.0
C314 C 0.65464 0.51053 0.58093 0.0
C315 C 0.75192 0.38794 0.59965 0.0
O316 O 0.73419 0.42044 0.60723 0.0
H317 H 0.69261 0.41978 0.56779 0.0
H318 H 0.70335 0.5418 0.59277 0.0
O319 O 0.76777 0.48226 0.55872 0.0
H320 H 0.8266 0.55529 0.62223 0.0
H321 H 0.63366 0.53718 0.58153 0.0
Cu322 Cu 0.40823 0.25452 0.47486 0.0
N323 N 0.45086 0.28918 0.47949 0.0
N324 N 0.49121 0.33283 0.49291 0.0
C325 C 0.45757 0.31164 0.49301 0.0
C326 C 0.5062 0.32313 0.47876 0.0
C327 C 0.48125 0.29625 0.47052 0.0
O328 O 0.37257 0.269 0.4917 0.0
C329 C 0.44115 0.1675 0.48367 0.0
O330 O 0.44666 0.18581 0.49754 0.0
H331 H 0.43846 0.31152 0.50284 0.0
H332 H 0.485 0.28267 0.45883 0.0
N333 N 0.38851 0.27291 0.45525 0.0
N334 N 0.35419 0.27655 0.43319 0.0
C335 C 0.36314 0.2514 0.44605 0.0
C336 C 0.39614 0.31247 0.44779 0.0
C337 C 0.3749 0.31497 0.4343 0.0
C338 C 0.35842 0.30911 0.49127 0.0
O339 O 0.36626 0.3356 0.47926 0.0
H340 H 0.35084 0.21858 0.44889 0.0
H341 H 0.41536 0.33822 0.45204 0.0
O342 O 0.42367 0.19032 0.47318 0.0
H343 H 0.53316 0.33481 0.47458 0.0
H344 H 0.37481 0.34281 0.4259 0.0
Cu345 Cu 0.22261 0.60417 0.57901 0.0
N346 N 0.17127 0.60717 0.57445 0.0
N347 N 0.1091 0.60063 0.57717 0.0
C348 C 0.14303 0.59296 0.58376 0.0
C349 C 0.11643 0.62053 0.56319 0.0
C350 C 0.15471 0.62473 0.56159 0.0
O351 O 0.22738 0.62489 0.60072 0.0
C352 C 0.23383 0.52791 0.56059 0.0
O353 O 0.21302 0.55366 0.55142 0.0
H354 H 0.14739 0.57708 0.5951 0.0
H355 H 0.16949 0.63975 0.55177 0.0
N356 N 0.24917 0.64428 0.56593 0.0
N357 N 0.29046 0.66925 0.54813 0.0
C358 C 0.27572 0.63249 0.55548 0.0
C359 C 0.24714 0.6902 0.56524 0.0
C360 C 0.27269 0.70575 0.55429 0.0
C361 C 0.25478 0.64749 0.60638 0.0
O362 O 0.28548 0.65231 0.59807 0.0
H363 H 0.28466 0.59766 0.55351 0.0
H364 H 0.22853 0.71087 0.57228 0.0
O365 O 0.24101 0.54226 0.57441 0.0
H366 H 0.09561 0.63213 0.55484 0.0
H367 H 0.27744 0.74102 0.55096 0.0
H368 H 0.13495 0.34271 0.25245 0.0
H369 H 0.23193 0.30083 0.27958 0.0
H370 H 0.27059 0.35802 0.2654 0.0
H371 H 0.18237 0.36882 0.21551 0.0
H372 H 0.15376 0.41839 0.21168 0.0
H373 H 0.13498 0.37103 0.22273 0.0
H374 H 0.11857 0.4257 0.24555 0.0
H375 H 0.13733 0.47321 0.23463 0.0
H376 H 0.15481 0.46079 0.25403 0.0
H377 H 0.29795 0.4215 0.24873 0.0
H378 H 0.31125 0.48955 0.23252 0.0
H379 H 0.19505 0.49334 0.21755 0.0
C380 C 0.16455 0.34476 0.25515 0.0
C381 C 0.18072 0.31664 0.26688 0.0
C382 C 0.21918 0.32163 0.27049 0.0
C383 C 0.24128 0.35396 0.26249 0.0
C384 C 0.22433 0.38151 0.2511 0.0
C385 C 0.18674 0.37748 0.24754 0.0
C386 C 0.17453 0.41369 0.23582 0.0
C387 C 0.1606 0.39165 0.22053 0.0
C388 C 0.14455 0.44521 0.24294 0.0
C389 C 0.21114 0.4389 0.23331 0.0
C390 C 0.23961 0.41941 0.24208 0.0
C391 C 0.27587 0.43694 0.24181 0.0
C392 C 0.28314 0.47564 0.23251 0.0
C393 C 0.25423 0.49696 0.22371 0.0
C394 C 0.21781 0.47792 0.22408 0.0
H395 H 0.49217 0.86084 0.8013 0.0
H396 H 0.47822 0.72725 0.82269 0.0
H397 H 0.41598 0.7201 0.81029 0.0
H398 H 0.39203 0.89672 0.80369 0.0
H399 H 0.39398 0.92501 0.78489 0.0
H400 H 0.43531 0.92176 0.79698 0.0
H401 H 0.4709 0.88438 0.77383 0.0
H402 H 0.42934 0.88683 0.76189 0.0
H403 H 0.4526 0.83291 0.7651 0.0
H404 H 0.35865 0.72394 0.79367 0.0
H405 H 0.30798 0.73974 0.77509 0.0
H406 H 0.35791 0.87214 0.7646 0.0
C407 C 0.47548 0.83079 0.80376 0.0
C408 C 0.48989 0.79465 0.81305 0.0
C409 C 0.46766 0.75523 0.81561 0.0
C410 C 0.43229 0.75092 0.80864 0.0
C411 C 0.41938 0.78645 0.79916 0.0
C412 C 0.44003 0.82588 0.79682 0.0
C413 C 0.4205 0.85762 0.7853 0.0
C414 C 0.40982 0.90296 0.7932 0.0
C415 C 0.44479 0.86589 0.77066 0.0
C416 C 0.38603 0.8295 0.78137 0.0
C417 C 0.38597 0.7887 0.78954 0.0
C418 C 0.35804 0.75615 0.78739 0.0
C419 C 0.32916 0.76564 0.77672 0.0
C420 C 0.32807 0.80755 0.76825 0.0
C421 C 0.35722 0.83978 0.77073 0.0
H422 H 0.84716 0.56043 0.22555 0.0
H423 H 0.74502 0.53385 0.25127 0.0
H424 H 0.76747 0.5846 0.27277 0.0
H425 H 0.91072 0.56879 0.25952 0.0
H426 H 0.93751 0.61385 0.25041 0.0
H427 H 0.91484 0.57132 0.23845 0.0
H428 H 0.88081 0.63495 0.22298 0.0
H429 H 0.9026 0.678 0.23494 0.0
H430 H 0.8523 0.67569 0.23337 0.0
H431 H 0.79959 0.6464 0.28994 0.0
H432 H 0.83949 0.70622 0.30196 0.0
H433 H 0.91932 0.6912 0.26399 0.0
C434 C 0.83002 0.56417 0.23595 0.0
C435 C 0.79468 0.54286 0.23695 0.0
C436 C 0.77257 0.54914 0.25052 0.0
C437 C 0.78501 0.57824 0.26266 0.0
C438 C 0.81957 0.60035 0.26098 0.0
C439 C 0.84192 0.59287 0.24801 0.0
C440 C 0.87677 0.62219 0.24831 0.0
C441 C 0.91205 0.59226 0.24924 0.0
C442 C 0.87817 0.65462 0.23406 0.0
C443 C 0.87055 0.64823 0.26335 0.0
C444 C 0.83752 0.63534 0.27058 0.0
C445 C 0.82564 0.65625 0.28442 0.0
C446 C 0.84839 0.69046 0.29111 0.0
C447 C 0.88261 0.70357 0.28394 0.0
C448 C 0.89344 0.68211 0.26983 0.0
H449 H 0.54318 0.26451 0.78893 0.0
H450 H 0.56885 0.15698 0.82236 0.0
H451 H 0.62123 0.13135 0.80561 0.0
H452 H 0.56479 0.2011 0.75365 0.0
H453 H 0.5856 0.24938 0.74376 0.0
H454 H 0.5494 0.2583 0.75813 0.0
H455 H 0.59334 0.3124 0.77361 0.0
H456 H 0.6297 0.30357 0.75932 0.0
H457 H 0.63872 0.29215 0.77977 0.0
H458 H 0.67003 0.11671 0.78508 0.0
H459 H 0.71431 0.11652 0.76285 0.0
H460 H 0.65888 0.23547 0.74313 0.0
C461 C 0.55965 0.23532 0.79261 0.0
C462 C 0.55193 0.21252 0.8069 0.0
C463 C 0.57449 0.175 0.8115 0.0
C464 C 0.60415 0.16012 0.80204 0.0
C465 C 0.61115 0.18345 0.78806 0.0
C466 C 0.58976 0.22045 0.7834 0.0
C467 C 0.60408 0.24045 0.76809 0.0
C468 C 0.57419 0.23709 0.75514 0.0
C469 C 0.61725 0.29008 0.77034 0.0
C470 C 0.63679 0.20881 0.76487 0.0
C471 C 0.64013 0.17594 0.77647 0.0
C472 C 0.66775 0.14235 0.77595 0.0
C473 C 0.69265 0.14237 0.76324 0.0
C474 C 0.69007 0.17601 0.75129 0.0
C475 C 0.66177 0.2097 0.75219 0.0
H476 H 0.25129 1.01292 0.03716 0.0
H477 H 0.33606 0.11079 0.0515 0.0
H478 H 0.30301 0.17157 0.03707 0.0
H479 H 0.23601 0.06445 0.99728 0.0
H480 H 0.1866 0.05196 0.9978 0.0
H481 H 0.21921 1.01513 1.00789 0.0
H482 H 0.1821 1.0263 0.03349 0.0
H483 H 0.14972 0.06399 0.02373 0.0
H484 H 0.17442 0.08318 0.04096 0.0
H485 H 0.25649 0.22419 0.0239 0.0
H486 H 0.20386 0.26218 1.01009 0.0
H487 H 0.15074 0.13011 1.00349 0.0
C488 C 0.26349 0.04681 0.03692 0.0
C489 C 0.29632 0.05684 0.04557 0.0
C490 C 0.31101 0.10194 0.04501 0.0
C491 C 0.29236 0.13692 0.03686 0.0
C492 C 0.25927 0.12636 0.02904 0.0
C493 C 0.24542 0.08219 0.02866 0.0
C494 C 0.20877 0.08034 1.01967 0.0
C495 C 0.21291 0.05125 1.00477 0.0
C496 C 0.17686 0.06244 0.0301 0.0
C497 C 0.20351 0.13051 1.01565 0.0
C498 C 0.233 0.15653 1.0211 0.0
C499 C 0.23351 0.20404 1.01936 0.0
C500 C 0.20339 0.2254 1.0116 0.0
C501 C 0.17324 0.19923 1.00564 0.0
C502 C 0.17348 0.15117 1.00778 0.0
H503 H 0.14561 0.87527 0.07202 0.0
H504 H 0.15329 1.02044 0.06252 0.0
H505 H 0.10501 1.01295 0.04178 0.0
H506 H 0.139 0.84063 0.03306 0.0
H507 H 0.10626 0.79466 0.03631 0.0
H508 H 0.13724 0.81214 0.05184 0.0
H509 H 0.08051 0.82577 0.07012 0.0
H510 H 0.04928 0.80796 0.05466 0.0
H511 H 0.04318 0.86299 0.06378 0.0
H512 H 0.06213 0.98852 1.02023 0.0
H513 H 0.02531 0.9494 0.99977 0.0
H514 H 0.04462 0.81925 0.02285 0.0
C515 C 0.1362 0.9056 0.06587 0.0
C516 C 0.15277 0.94867 0.06893 0.0
C517 C 0.14072 0.98737 0.06033 0.0
C518 C 0.11336 0.98336 0.04858 0.0
C519 C 0.09838 0.94026 0.0455 0.0
C520 C 0.10909 0.90205 0.05397 0.0
C521 C 0.09056 0.85923 0.0475 0.0
C522 C 0.12003 0.82464 0.04184 0.0
C523 C 0.06432 0.83773 0.05975 0.0
C524 C 0.06859 0.87918 0.03383 0.0
C525 C 0.07335 0.92607 0.033 0.0
C526 C 0.05783 0.95193 1.02088 0.0
C527 C 0.03716 0.92936 1.00924 0.0
C528 C 0.03206 0.88131 1.00971 0.0
C529 C 0.04756 0.85607 0.02234 0.0
H530 H 0.86807 0.92368 0.99788 0.0
H531 H 0.82895 0.78669 1.0087 0.0
H532 H 0.77982 0.81946 0.02578 0.0
H533 H 0.85904 0.96758 0.03574 0.0
H534 H 0.8442 1.02376 0.02953 0.0
H535 H 0.873 0.98965 1.01685 0.0
H536 H 0.82337 0.998 0.99484 0.0
H537 H 0.79431 0.03169 1.00766 0.0
H538 H 0.77568 0.98097 0.99856 0.0
H539 H 0.73814 0.86659 0.043 0.0
H540 H 0.71177 0.92288 0.06137 0.0
H541 H 0.77885 0.02976 0.03999 0.0
C542 C 0.84879 0.90049 1.00363 0.0
C543 C 0.85218 0.85249 1.00184 0.0
C544 C 0.82685 0.82347 1.00984 0.0
C545 C 0.79869 0.84185 1.01948 0.0
C546 C 0.79622 0.88932 1.02099 0.0
C547 C 0.82078 0.91824 1.01337 0.0
C548 C 0.81435 0.96769 1.01806 0.0
C549 C 0.84976 0.98833 0.0255 0.0
C550 C 0.80113 0.99627 1.00394 0.0
C551 C 0.78325 0.96202 0.03002 0.0
C552 C 0.77262 0.9166 0.0312 0.0
C553 C 0.746 0.90223 0.04205 0.0
C554 C 0.73108 0.93457 0.05242 0.0
C555 C 0.74296 0.98082 0.05204 0.0
C556 C 0.76847 0.99497 0.04031 0.0
H557 H 0.89757 0.15876 0.07829 0.0
H558 H 0.87348 1.02587 0.05835 0.0
H559 H 0.91646 0.04253 0.0363 0.0
H560 H 0.89834 0.21945 0.04318 0.0
H561 H 0.93631 0.25738 0.04813 0.0
H562 H 0.90777 0.2331 0.06342 0.0
H563 H 0.9668 0.19969 0.07688 0.0
H564 H 0.99564 0.22423 0.06168 0.0
H565 H 0.99809 0.16381 0.0658 0.0
H566 H 0.95421 0.07735 1.01471 0.0
H567 H 0.9888 0.12615 0.99589 0.0
H568 H 0.9913 0.23585 0.02986 0.0
C569 C 0.90226 0.13266 0.06953 0.0
C570 C 0.88229 0.09078 0.07005 0.0
C571 C 0.88841 0.05807 0.05812 0.0
C572 C 0.91276 0.06725 0.04559 0.0
C573 C 0.93098 0.10938 0.04512 0.0
C574 C 0.92649 0.14139 0.05686 0.0
C575 C 0.94772 0.18508 0.05299 0.0
C576 C 0.92093 0.22616 0.05186 0.0
C577 C 0.97892 0.1937 0.06505 0.0
C578 C 0.96389 0.17308 0.03703 0.0
C579 C 0.95391 0.12913 0.03277 0.0
C580 C 0.96284 0.11144 1.01806 0.0
C581 C 0.98231 0.13936 1.00743 0.0
C582 C 0.99304 0.18434 1.01153 0.0
C583 C 0.98413 0.20117 0.02662 0.0
H584 H 0.71944 0.87038 0.79814 0.0
H585 H 0.65307 0.78782 0.76632 0.0
H586 H 0.67344 0.8368 0.74409 0.0
H587 H 0.69966 0.97732 0.78059 0.0
H588 H 0.74584 1.00014 0.78395 0.0
H589 H 0.72723 0.9572 0.79694 0.0
H590 H 0.78509 0.90588 0.79175 0.0
H591 H 0.80392 0.94875 0.77876 0.0
H592 H 0.79715 0.89113 0.77186 0.0
H593 H 0.69935 0.89953 0.7254 0.0
H594 H 0.72916 0.96676 0.71257 0.0
H595 H 0.77851 1.00479 0.75722 0.0
C596 C 0.70935 0.86215 0.78649 0.0
C597 C 0.68464 0.82512 0.78401 0.0
C598 C 0.67214 0.81586 0.76853 0.0
C599 C 0.68353 0.84358 0.75583 0.0
C600 C 0.70759 0.88025 0.75878 0.0
C601 C 0.72046 0.88921 0.77377 0.0
C602 C 0.74539 0.93097 0.77409 0.0
C603 C 0.72851 0.96861 0.78451 0.0
C604 C 0.78525 0.91841 0.77943 0.0
C605 C 0.74454 0.94447 0.75696 0.0
C606 C 0.7226 0.91511 0.74822 0.0
C607 C 0.71685 0.92239 0.73216 0.0
C608 C 0.73386 0.96065 0.72496 0.0
C609 C 0.75645 0.99097 0.73381 0.0
C610 C 0.76182 0.98221 0.74999 0.0
H611 H 0.99723 0.41315 0.27777 0.0
H612 H 0.04447 0.29305 0.2555 0.0
H613 H 1.01236 0.3133 0.23083 0.0
H614 H 0.90769 0.4107 0.25931 0.0
H615 H 0.9047 0.47194 0.2571 0.0
H616 H 0.93176 0.44769 0.27289 0.0
H617 H 0.98916 0.49377 0.26346 0.0
H618 H 0.96342 0.51683 0.24707 0.0
H619 H 1.00631 0.48624 0.24375 0.0
H620 H 0.97443 0.34651 0.20845 0.0
H621 H 0.92947 0.38624 0.19106 0.0
H622 H 0.90779 0.48535 0.22766 0.0
C623 C 1.00088 0.3911 0.26772 0.0
C624 C 0.02326 0.35125 0.26872 0.0
C625 C 0.02703 0.32325 0.25523 0.0
C626 C 1.0092 0.33478 0.24106 0.0
C627 C 0.9877 0.37451 0.24047 0.0
C628 C 0.98328 0.40208 0.25348 0.0
C629 C 0.95839 0.44269 0.24979 0.0
C630 C 0.92357 0.44325 0.2604 0.0
C631 C 0.98064 0.48753 0.25111 0.0
C632 C 0.94821 0.43266 0.23286 0.0
C633 C 0.96605 0.39371 0.22759 0.0
C634 C 0.96047 0.37719 0.21243 0.0
C635 C 0.9351 0.40022 0.20257 0.0
C636 C 0.91523 0.43904 0.20796 0.0
C637 C 0.92265 0.45585 0.22321 0.0
H638 H 0.29605 0.98121 0.77397 0.0
H639 H 0.29079 0.04481 0.728 0.0
H640 H 0.32092 0.11461 0.73892 0.0
H641 H 0.27487 0.07922 0.79637 0.0
H642 H 0.30643 0.06453 0.81212 0.0
H643 H 0.28567 1.02012 0.8004 0.0
H644 H 0.35138 0.98889 0.79383 0.0
H645 H 0.37282 0.03314 0.8054 0.0
H646 H 0.38584 1.02617 0.78511 0.0
H647 H 0.34847 0.17994 0.75614 0.0
H648 H 0.37556 0.2298 0.77683 0.0
H649 H 0.36344 0.11961 0.81061 0.0
C650 C 0.30132 1.00969 0.76612 0.0
C651 C 0.29086 1.00777 0.75016 0.0
C652 C 0.2987 0.04558 0.74027 0.0
C653 C 0.31561 0.08537 0.7464 0.0
C654 C 0.32485 0.08637 0.76236 0.0
C655 C 0.31835 0.04905 0.77197 0.0
C656 C 0.33077 0.05782 0.78864 0.0
C657 C 0.29745 0.05529 0.80005 0.0
C658 C 0.36209 1.02456 0.79352 0.0
C659 C 0.34519 0.10615 0.78707 0.0
C660 C 0.34136 0.12249 0.77191 0.0
C661 C 0.35184 0.16716 0.76799 0.0
C662 C 0.367 0.19534 0.77982 0.0
C663 C 0.37183 0.17852 0.79531 0.0
C664 C 0.36052 0.13342 0.79886 0.0
H665 H 0.06758 0.66433 0.2878 0.0
H666 H 0.0863 0.80165 0.3052 0.0
H667 H 0.14515 0.80609 0.29005 0.0
H668 H 0.16576 0.62792 0.28739 0.0
H669 H 0.16077 0.59613 0.26942 0.0
H670 H 0.12134 0.60247 0.28241 0.0
H671 H 0.08219 0.63665 0.25962 0.0
H672 H 0.12147 0.63041 0.24659 0.0
H673 H 0.09979 0.68559 0.24904 0.0
H674 H 0.20065 0.79667 0.27259 0.0
H675 H 0.24826 0.77564 0.25307 0.0
H676 H 0.19327 0.64486 0.24613 0.0
C677 C 0.08442 0.69498 0.28863 0.0
C678 C 0.07249 0.73262 0.29777 0.0
C679 C 0.09484 0.77258 0.29823 0.0
C680 C 0.12839 0.77527 0.28974 0.0
C681 C 0.13919 0.73776 0.28076 0.0
C682 C 0.11788 0.6984 0.28009 0.0
C683 C 0.13494 0.664 0.26884 0.0
C684 C 0.14639 0.62003 0.27754 0.0
C685 C 0.10799 0.65357 0.25522 0.0
C686 C 0.16902 0.69037 0.26322 0.0
C687 C 0.17099 0.73267 0.27037 0.0
C688 C 0.19938 0.76367 0.26691 0.0
C689 C 0.2262 0.75147 0.2557 0.0
C690 C 0.22451 0.70871 0.24791 0.0
C691 C 0.19567 0.67757 0.25194 0.0
H692 H 0.711 0.50988 0.53666 0.0
H693 H 0.80499 0.59943 0.54594 0.0
H694 H 0.77965 0.65609 0.52724 0.0
H695 H 0.6985 0.5445 0.4934 0.0
H696 H 0.6484 0.53934 0.49531 0.0
H697 H 0.6789 0.50311 0.50675 0.0
H698 H 0.64444 0.53104 0.53175 0.0
H699 H 0.6158 0.56941 0.52039 0.0
H700 H 0.64401 0.59126 0.53624 0.0
H701 H 0.73897 0.70849 0.51142 0.0
H702 H 0.68995 0.74867 0.49619 0.0
H703 H 0.62217 0.62545 0.4967 0.0
C704 C 0.72727 0.54021 0.53401 0.0
C705 C 0.76053 0.54981 0.54238 0.0
C706 C 0.78001 0.59103 0.53931 0.0
C707 C 0.76562 0.6236 0.52882 0.0
C708 C 0.73167 0.61446 0.52142 0.0
C709 C 0.71314 0.5733 0.52353 0.0
C710 C 0.67571 0.5737 0.51505 0.0
C711 C 0.67535 0.53806 0.50184 0.0
C712 C 0.64309 0.56591 0.52655 0.0
C713 C 0.67551 0.62205 0.50846 0.0
C714 C 0.70813 0.64488 0.51222 0.0
C715 C 0.7136 0.69068 0.50814 0.0
C716 C 0.68544 0.7134 0.49962 0.0
C717 C 0.65226 0.6903 0.49519 0.0
C718 C 0.64733 0.64405 0.4998 0.0
H719 H 0.65869 0.42764 0.5447 0.0
H720 H 0.57671 0.48614 0.57627 0.0
H721 H 0.52577 0.45969 0.55862 0.0
H722 H 0.61074 0.45434 0.50864 0.0
H723 H 0.62411 0.40179 0.49915 0.0
H724 H 0.65401 0.42645 0.5139 0.0
H725 H 0.65262 0.35165 0.53 0.0
H726 H 0.62334 0.32581 0.51528 0.0
H727 H 0.60823 0.32699 0.53545 0.0
H728 H 0.48389 0.42186 0.53799 0.0
H729 H 0.45507 0.37936 0.51605 0.0
H730 H 0.56557 0.34557 0.49849 0.0
C731 C 0.63005 0.4347 0.54802 0.0
C732 C 0.62161 0.45842 0.56202 0.0
C733 C 0.58375 0.46807 0.56561 0.0
C734 C 0.55472 0.45305 0.55567 0.0
C735 C 0.56411 0.42889 0.54212 0.0
C736 C 0.60096 0.42014 0.53826 0.0
C737 C 0.60393 0.39294 0.52323 0.0
C738 C 0.62439 0.42055 0.51047 0.0
C739 C 0.62316 0.3466 0.52617 0.0
C740 C 0.56293 0.38691 0.51928 0.0
C741 C 0.54032 0.40793 0.53027 0.0
C742 C 0.5014 0.40554 0.5293 0.0
C743 C 0.48527 0.38099 0.51684 0.0
C744 C 0.50797 0.35904 0.50547 0.0
C745 C 0.54734 0.36247 0.50677 0.0
H746 H 0.23837 0.50599 0.52973 0.0
H747 H 0.27155 0.45734 0.57581 0.0
H748 H 0.30304 0.39076 0.56338 0.0
H749 H 0.2216 0.39669 0.51145 0.0
H750 H 0.24083 0.41499 0.49292 0.0
H751 H 0.21895 0.45598 0.5057 0.0
H752 H 0.27934 0.50528 0.50547 0.0
H753 H 0.30129 0.46466 0.49263 0.0
H754 H 0.3233 0.47951 0.51096 0.0
H755 H 0.33285 0.32966 0.54487 0.0
H756 H 0.36128 0.28624 0.52283 0.0
H757 H 0.30877 0.37892 0.4897 0.0
C758 C 0.25171 0.4811 0.53733 0.0
C759 C 0.25202 0.48666 0.5538 0.0
C760 C 0.27069 0.45366 0.56318 0.0
C761 C 0.28855 0.41569 0.5562 0.0
C762 C 0.28768 0.41146 0.53985 0.0
C763 C 0.26986 0.44372 0.5306 0.0
C764 C 0.27473 0.43394 0.51332 0.0
C765 C 0.23676 0.42485 0.50539 0.0
C766 C 0.29593 0.47316 0.50512 0.0
C767 C 0.29815 0.39101 0.51413 0.0
C768 C 0.30519 0.37797 0.52947 0.0
C769 C 0.32724 0.33962 0.53285 0.0
C770 C 0.34306 0.31491 0.52027 0.0
C771 C 0.33709 0.32904 0.50455 0.0
C772 C 0.31377 0.36708 0.50158 0.0
H773 H 0.46443 0.76339 0.49897 0.0
H774 H 0.45341 0.64304 0.46975 0.0
H775 H 0.40065 0.61625 0.48608 0.0
H776 H 0.44176 0.70867 0.53612 0.0
H777 H 0.4156 0.75686 0.54337 0.0
H778 H 0.45343 0.76574 0.52973 0.0
H779 H 0.4084 0.80892 0.51101 0.0
H780 H 0.3704 0.80003 0.52455 0.0
H781 H 0.36604 0.78126 0.5045 0.0
H782 H 0.3494 0.60232 0.50554 0.0
H783 H 0.30119 0.60363 0.52625 0.0
H784 H 0.34369 0.73411 0.54256 0.0
C785 C 0.45111 0.73119 0.49615 0.0
C786 C 0.46301 0.70519 0.48311 0.0
C787 C 0.44451 0.66361 0.4796 0.0
C788 C 0.41467 0.64803 0.48885 0.0
C789 C 0.40339 0.67462 0.50153 0.0
C790 C 0.42087 0.71542 0.50517 0.0
C791 C 0.40232 0.73813 0.51913 0.0
C792 C 0.42993 0.7426 0.5329 0.0
C793 C 0.38581 0.78485 0.51452 0.0
C794 C 0.37171 0.70372 0.52275 0.0
C795 C 0.37308 0.66717 0.51253 0.0
C796 C 0.34804 0.63077 0.51361 0.0
C797 C 0.32087 0.6317 0.52546 0.0
C798 C 0.31865 0.66895 0.53603 0.0
C799 C 0.34444 0.70545 0.53457 0.0
H800 H 0.30642 0.33509 0.41869 0.0
H801 H 0.34252 0.19378 0.41965 0.0
H802 H 0.30025 0.17671 0.39725 0.0
H803 H 0.20912 0.31093 0.40994 0.0
H804 H 0.20358 0.36082 0.39768 0.0
H805 H 0.23695 0.36127 0.41354 0.0
H806 H 0.28954 0.38324 0.394 0.0
H807 H 0.25638 0.38256 0.37806 0.0
H808 H 0.29791 0.34767 0.37712 0.0
H809 H 0.25584 0.17696 0.37345 0.0
H810 H 0.20841 0.19225 0.35275 0.0
H811 H 0.19915 0.33226 0.36868 0.0
C812 C 0.30541 0.30056 0.41416 0.0
C813 C 0.32793 0.26576 0.42082 0.0
C814 C 0.32539 0.22082 0.41476 0.0
C815 C 0.30163 0.21096 0.40199 0.0
C816 C 0.28011 0.24628 0.39556 0.0
C817 C 0.28138 0.29002 0.40165 0.0
C818 C 0.25464 0.32164 0.39306 0.0
C819 C 0.22427 0.33972 0.40422 0.0
C820 C 0.2759 0.3611 0.38509 0.0
C821 C 0.2383 0.28911 0.38105 0.0
C822 C 0.2536 0.24588 0.38252 0.0
C823 C 0.2435 0.2106 0.37233 0.0
C824 C 0.21675 0.2196 0.36054 0.0
C825 C 0.19994 0.26329 0.35918 0.0
C826 C 0.21116 0.29837 0.36957 0.0
H827 H 0.30893 0.68713 0.62516 0.0
H828 H 0.18869 0.67002 0.62051 0.0
H829 H 0.1789 0.7215 0.64299 0.0
H830 H 0.30938 0.68856 0.66811 0.0
H831 H 0.34644 0.73028 0.66924 0.0
H832 H 0.34405 0.69187 0.65278 0.0
H833 H 0.34389 0.76121 0.63381 0.0
H834 H 0.34582 0.79985 0.65021 0.0
H835 H 0.3087 0.80492 0.63596 0.0
H836 H 0.18173 0.77902 0.66477 0.0
H837 H 0.19706 0.83012 0.68684 0.0
H838 H 0.31552 0.80658 0.67888 0.0
C839 C 0.28056 0.69388 0.62898 0.0
C840 C 0.24958 0.67446 0.62101 0.0
C841 C 0.21291 0.68413 0.62643 0.0
C842 C 0.20703 0.71364 0.63914 0.0
C843 C 0.23807 0.73284 0.64654 0.0
C844 C 0.27416 0.7227 0.64188 0.0
C845 C 0.30259 0.74704 0.65218 0.0
C846 C 0.32705 0.71237 0.66111 0.0
C847 C 0.32667 0.78022 0.64246 0.0
C848 C 0.27681 0.77273 0.66325 0.0
C849 C 0.23972 0.76449 0.65962 0.0
C850 C 0.21068 0.78537 0.66783 0.0
C851 C 0.21971 0.81463 0.6803 0.0
C852 C 0.25749 0.82237 0.68467 0.0
C853 C 0.28637 0.80126 0.6759 0.0
H854 H 0.72309 0.71425 0.41985 0.0
H855 H 0.67268 0.84754 0.41312 0.0
H856 H 0.72343 0.86821 0.3945 0.0
H857 H 0.81952 0.75349 0.4188 0.0
H858 H 0.83599 0.70304 0.40886 0.0
H859 H 0.79591 0.6996 0.42162 0.0
H860 H 0.75658 0.66548 0.39892 0.0
H861 H 0.79647 0.66897 0.38607 0.0
H862 H 0.7531 0.69621 0.3806 0.0
H863 H 0.77821 0.8715 0.37508 0.0
H864 H 0.83495 0.86011 0.35877 0.0
H865 H 0.85057 0.72612 0.37956 0.0
C866 C 0.72275 0.74779 0.41445 0.0
C867 C 0.69381 0.77925 0.4178 0.0
C868 C 0.69467 0.82309 0.41073 0.0
C869 C 0.72327 0.83495 0.4001 0.0
C870 C 0.75114 0.80281 0.39689 0.0
C871 C 0.75134 0.76036 0.40407 0.0
C872 C 0.78467 0.73215 0.3989 0.0
C873 C 0.81055 0.72146 0.41288 0.0
C874 C 0.77193 0.68811 0.39063 0.0
C875 C 0.80303 0.76499 0.3875 0.0
C876 C 0.78319 0.80546 0.38637 0.0
C877 C 0.79411 0.84012 0.37604 0.0
C878 C 0.82622 0.83332 0.36676 0.0
C879 C 0.84733 0.79248 0.36802 0.0
C880 C 0.83541 0.75803 0.37855 0.0
H881 H 0.70516 0.21353 0.66808 0.0
H882 H 0.80888 0.14263 0.65786 0.0
H883 H 0.81715 0.19066 0.6341 0.0
H884 H 0.67445 0.23241 0.62726 0.0
H885 H 0.65625 0.28837 0.63171 0.0
H886 H 0.65646 0.24442 0.64657 0.0
H887 H 0.69375 0.2978 0.66514 0.0
H888 H 0.69367 0.34179 0.65036 0.0
H889 H 0.73738 0.32208 0.65852 0.0
H890 H 0.81592 0.25214 0.61216 0.0
H891 H 0.80685 0.32189 0.59581 0.0
H892 H 0.70515 0.35201 0.62146 0.0
C893 C 0.72921 0.2072 0.66068 0.0
C894 C 0.75615 0.17383 0.66481 0.0
C895 C 0.78765 0.16766 0.65491 0.0
C896 C 0.79255 0.1948 0.64136 0.0
C897 C 0.76575 0.22807 0.63782 0.0
C898 C 0.73468 0.23418 0.64726 0.0
C899 C 0.71147 0.27453 0.64184 0.0
C900 C 0.67234 0.25899 0.63653 0.0
C901 C 0.70895 0.3112 0.65473 0.0
C902 C 0.73461 0.29094 0.62806 0.0
C903 C 0.76555 0.26348 0.62568 0.0
C904 C 0.79156 0.27353 0.61388 0.0
C905 C 0.78615 0.31308 0.60459 0.0
C906 C 0.7553 0.34238 0.60733 0.0
C907 C 0.72902 0.33033 0.61903 0.0
H908 H 0.18806 0.20841 0.92267 0.0
H909 H 0.17523 0.35345 0.93144 0.0
H910 H 0.22401 0.37007 0.91153 0.0
H911 H 0.28718 0.20985 0.91813 0.0
H912 H 0.28747 0.16691 0.903 0.0
H913 H 0.25072 0.16725 0.91743 0.0
H914 H 0.20105 0.17086 0.89526 0.0
H915 H 0.23768 0.17065 0.88075 0.0
H916 H 0.20349 0.21596 0.88083 0.0
H917 H 0.27487 0.37001 0.89 0.0
H918 H 0.32555 0.35278 0.87096 0.0
H919 H 0.3048 0.20789 0.87714 0.0
C920 C 0.19512 0.24373 0.9203 0.0
C921 C 0.17749 0.27967 0.92856 0.0
C922 C 0.18839 0.32535 0.92532 0.0
C923 C 0.21592 0.3351 0.91395 0.0
C924 C 0.23259 0.29876 0.90597 0.0
C925 C 0.2227 0.25396 0.90914 0.0
C926 C 0.24565 0.22081 0.8995 0.0
C927 C 0.26915 0.18937 0.91015 0.0
C928 C 0.22046 0.19294 0.88843 0.0
C929 C 0.27019 0.25379 0.89041 0.0
C930 C 0.2621 0.29868 0.89412 0.0
C931 C 0.28137 0.33492 0.88707 0.0
C932 C 0.30997 0.32491 0.87619 0.0
C933 C 0.31936 0.27905 0.87263 0.0
C934 C 0.29869 0.2433 0.87975 0.0
H935 H 0.37581 0.7105 0.16205 0.0
H936 H 0.26692 0.64619 0.15789 0.0
H937 H 0.25751 0.6853 0.13227 0.0
H938 H 0.34897 0.81572 0.14984 0.0
H939 H 0.39185 0.82934 0.13972 0.0
H940 H 0.39241 0.78918 0.15566 0.0
H941 H 0.42256 0.72852 0.13747 0.0
H942 H 0.42174 0.76866 0.12137 0.0
H943 H 0.39979 0.71349 0.11931 0.0
H944 H 0.25658 0.74194 0.10908 0.0
H945 H 0.26232 0.81181 0.09264 0.0
H946 H 0.37131 0.83827 0.11276 0.0
C947 C 0.3503 0.70355 0.15561 0.0
C948 C 0.32213 0.67511 0.16199 0.0
C949 C 0.28907 0.66745 0.15319 0.0
C950 C 0.28356 0.68951 0.1386 0.0
C951 C 0.3116 0.71859 0.1329 0.0
C952 C 0.34444 0.72524 0.14119 0.0
C953 C 0.36845 0.76207 0.13381 0.0
C954 C 0.3758 0.80138 0.14544 0.0
C955 C 0.40532 0.74197 0.12762 0.0
C956 C 0.34333 0.777 0.12046 0.0
C957 C 0.31103 0.75089 0.11978 0.0
C958 C 0.28218 0.76171 0.10928 0.0
C959 C 0.2858 0.80117 0.09984 0.0
C960 C 0.31775 0.82951 0.10115 0.0
C961 C 0.34724 0.81619 0.11116 0.0
H962 H 0.88165 0.74411 0.9068 0.0
H963 H 0.81371 0.81741 0.94052 0.0
H964 H 0.76016 0.81522 0.92196 0.0
H965 H 0.8457 0.79904 0.87203 0.0
H966 H 0.84762 0.74752 0.8605 0.0
H967 H 0.88013 0.75577 0.87641 0.0
H968 H 0.85895 0.67905 0.88887 0.0
H969 H 0.82643 0.67054 0.87299 0.0
H970 H 0.81002 0.66987 0.89298 0.0
H971 H 0.71357 0.80457 0.89888 0.0
H972 H 0.67878 0.78273 0.87478 0.0
H973 H 0.77887 0.7176 0.8568 0.0
C974 C 0.85574 0.76029 0.91028 0.0
C975 C 0.85214 0.78131 0.92514 0.0
C976 C 0.81721 0.80092 0.92927 0.0
C977 C 0.78669 0.80006 0.91874 0.0
C978 C 0.79142 0.77928 0.90413 0.0
C979 C 0.82516 0.75958 0.9 0.0
C980 C 0.82318 0.73825 0.88386 0.0
C981 C 0.85079 0.76155 0.87253 0.0
C982 C 0.83004 0.68636 0.88474 0.0
C983 C 0.78304 0.74885 0.87948 0.0
C984 C 0.76503 0.77275 0.89122 0.0
C985 C 0.72755 0.78586 0.88965 0.0
C986 C 0.70802 0.77356 0.87588 0.0
C987 C 0.72588 0.7481 0.8639 0.0
C988 C 0.76406 0.73637 0.86578 0.0
H989 H 0.66699 0.21798 0.11637 0.0
H990 H 0.78373 0.19903 0.10387 0.0
H991 H 0.80246 0.24991 0.12558 0.0
H992 H 0.67572 0.33907 0.12729 0.0
H993 H 0.64238 0.33379 0.14305 0.0
H994 H 0.6385 0.29757 0.12607 0.0
H995 H 0.63999 0.2263 0.14419 0.0
H996 H 0.64472 0.26225 0.1612 0.0
H997 H 0.67886 0.21827 0.15743 0.0
H998 H 0.80872 0.29783 0.15024 0.0
H999 H 0.80166 0.34904 0.17306 0.0
H1000 H 0.6808 0.33943 0.16885 0.0
C1001 C 0.69647 0.22523 0.11798 0.0
C1002 C 0.72383 0.20439 0.10834 0.0
C1003 C 0.76214 0.21473 0.11096 0.0
C1004 C 0.77311 0.24333 0.12338 0.0
C1005 C 0.74548 0.26191 0.133 0.0
C1006 C 0.7079 0.25413 0.13021 0.0
C1007 C 0.68375 0.27857 0.14219 0.0
C1008 C 0.65861 0.31438 0.13417 0.0
C1009 C 0.66046 0.24429 0.15182 0.0
C1010 C 0.7136 0.30103 0.15224 0.0
C1011 C 0.74904 0.29053 0.14687 0.0
C1012 C 0.78107 0.30657 0.15446 0.0
C1013 C 0.77676 0.33531 0.16753 0.0
C1014 C 0.74067 0.34828 0.17282 0.0
C1015 C 0.70878 0.33015 0.16515 0.0
H1016 H 0.99204 0.94348 0.33965 0.0
H1017 H 0.97474 0.90978 0.29064 0.0
H1018 H 1.00393 0.98344 0.28292 0.0
H1019 H 0.97189 0.06453 0.33589 0.0
H1020 H 1.00668 0.08061 0.35019 0.0
H1021 H 0.984 1.02574 0.35158 0.0
H1022 H 0.04879 0.98588 0.35141 0.0
H1023 H 0.07166 0.04058 0.34988 0.0
H1024 H 0.08078 0.99694 0.33549 0.0
H1025 H 0.03868 0.06047 0.28077 0.0
H1026 H 0.07011 0.13533 0.28446 0.0
H1027 H 0.062 0.11831 0.33493 0.0
C1028 C 0.99413 0.95161 0.32727 0.0
C1029 C 0.98109 0.92071 0.31575 0.0
C1030 C 0.98429 0.93294 0.2997 0.0
C1031 C 1.00103 0.97464 0.29521 0.0
C1032 C 1.0141 1.00401 0.3069 0.0
C1033 C 1.01032 0.99314 0.32262 0.0
C1034 C 0.02616 0.03049 0.33298 0.0
C1035 C 0.99534 0.05159 0.34326 0.0
C1036 C 0.05878 1.01238 0.34303 0.0
C1037 C 0.03976 0.06408 0.32068 0.0
C1038 C 0.03288 0.04822 0.30569 0.0
C1039 C 0.0439 0.07323 0.29248 0.0
C1040 C 0.06191 0.11565 0.29468 0.0
C1041 C 0.06844 0.13291 0.30997 0.0
C1042 C 0.05725 0.10639 0.32307 0.0
H1043 H 0.94406 0.07688 0.74029 0.0
H1044 H 0.92326 0.0532 0.69085 0.0
H1045 H 0.98326 1.01113 0.6889 0.0
H1046 H 0.044 0.09327 0.73764 0.0
H1047 H 0.05357 0.06383 0.75582 0.0
H1048 H 1.0096 0.09296 0.7531 0.0
H1049 H 0.97397 1.01799 0.75951 0.0
H1050 H 1.01781 0.98862 0.76223 0.0
H1051 H 0.98395 0.96707 0.74839 0.0
H1052 H 0.0465 0.97262 0.69243 0.0
H1053 H 0.10553 0.93678 0.70151 0.0
H1054 H 0.08346 0.98404 0.74878 0.0
C1055 C 0.95232 0.06326 0.72902 0.0
C1056 C 0.92915 0.06855 0.71568 0.0
C1057 C 0.94054 0.04933 0.70121 0.0
C1058 C 0.97463 1.02561 0.69999 0.0
C1059 C 0.99683 1.02104 0.71338 0.0
C1060 C 0.98596 0.03906 0.72765 0.0
C1061 C 1.01418 0.02815 0.7404 0.0
C1062 C 0.03136 0.07218 0.74713 0.0
C1063 C 0.99641 0.9987 0.75339 0.0
C1064 C 0.0427 1.00123 0.7311 0.0
C1065 C 0.03241 0.99781 0.71551 0.0
C1066 C 0.05474 0.97501 0.70463 0.0
C1067 C 0.08829 0.95496 0.70986 0.0
C1068 C 0.09899 0.9574 0.72585 0.0
C1069 C 0.07579 0.98102 0.73653 0.0
H1070 H 0.03958 0.43587 1.0144 0.0
H1071 H 0.073 0.42269 0.96566 0.0
H1072 H 0.04893 0.50022 0.96024 0.0
H1073 H 0.95488 0.49749 1.00788 0.0
H1074 H 0.96018 0.53466 0.02457 0.0
H1075 H 0.98075 0.47844 0.02486 0.0
H1076 H 0.04579 0.51365 0.03071 0.0
H1077 H 0.02537 0.56999 0.03055 0.0
H1078 H 0.06424 0.55716 1.01783 0.0
H1079 H 1.01777 0.57731 0.95963 0.0
H1080 H 0.98691 0.65136 0.96431 0.0
H1081 H 0.976 0.61753 1.01375 0.0
C1082 C 0.04211 0.44942 1.00261 0.0
C1083 C 0.05824 0.42289 0.99045 0.0
C1084 C 0.06102 0.44216 0.9752 0.0
C1085 C 0.04724 0.48621 0.97199 0.0
C1086 C 0.03111 0.51113 0.98416 0.0
C1087 C 0.02896 0.49376 0.99922 0.0
C1088 C 1.01066 0.52809 1.01019 0.0
C1089 C 0.97447 0.50849 1.01729 0.0
C1090 C 0.03816 0.54311 0.02308 0.0
C1091 C 1.00231 0.56711 0.99888 0.0
C1092 C 1.0142 0.55638 0.98391 0.0
C1093 C 1.00867 0.58622 0.97134 0.0
C1094 C 0.99091 0.62825 0.97413 0.0
C1095 C 0.979 0.64064 0.98941 0.0
C1096 C 0.98489 0.60938 1.00194 0.0
H1097 H 0.44128 1.00275 0.08565 0.0
H1098 H 0.41162 0.02781 0.1342 0.0
H1099 H 0.47863 0.03401 0.14103 0.0
H1100 H 0.5244 0.9349 0.09335 0.0
H1101 H 0.55043 0.95883 0.07718 0.0
H1102 H 0.50013 0.95532 0.07614 0.0
H1103 H 0.49654 0.04241 0.07073 0.0
H1104 H 0.54681 0.04618 0.07175 0.0
H1105 H 0.51834 0.08158 0.08425 0.0
H1106 H 0.54901 0.03766 0.14263 0.0
H1107 H 0.61722 0.04186 0.13875 0.0
H1108 H 0.60199 1.01463 0.08909 0.0
C1109 C 0.44889 1.00912 0.09774 0.0
C1110 C 0.42101 1.01475 0.1094 0.0
C1111 C 0.43228 1.02383 0.12504 0.0
C1112 C 0.47035 0.02713 0.12905 0.0
C1113 C 0.49705 1.02152 0.11729 0.0
C1114 C 0.48685 1.01291 0.10193 0.0
C1115 C 0.52116 1.0096 0.09147 0.0
C1116 C 0.5242 0.96182 0.0841 0.0
C1117 C 0.52067 0.04719 0.0788 0.0
C1118 C 0.55221 1.01767 0.10334 0.0
C1119 C 0.53765 1.02419 0.11818 0.0
C1120 C 0.56071 0.03244 0.13106 0.0
C1121 C 0.59961 0.03444 0.12874 0.0
C1122 C 0.61539 0.02843 0.11361 0.0
C1123 C 0.59106 1.01971 0.10079 0.0
H1124 H 0.48232 0.42874 0.84871 0.0
H1125 H 0.44691 0.40964 0.80045 0.0
H1126 H 0.48108 0.47994 0.79281 0.0
H1127 H 0.47593 0.55323 0.84879 0.0
H1128 H 0.51644 0.55947 0.86124 0.0
H1129 H 0.48765 0.50908 0.86277 0.0
H1130 H 0.54605 0.45841 0.85801 0.0
H1131 H 0.57492 0.50863 0.85626 0.0
H1132 H 0.57381 0.46731 0.84061 0.0
H1133 H 0.5231 0.55079 0.79034 0.0
H1134 H 0.56434 0.61828 0.79371 0.0
H1135 H 0.57082 0.59013 0.84366 0.0
C1136 C 0.48128 0.43956 0.83655 0.0
C1137 C 0.46182 0.41359 0.82519 0.0
C1138 C 0.46136 0.42906 0.8094 0.0
C1139 C 0.48088 0.46886 0.80494 0.0
C1140 C 0.5005 0.49304 0.81641 0.0
C1141 C 0.50038 0.47918 0.83193 0.0
C1142 C 0.52382 0.51069 0.84202 0.0
C1143 C 0.4995 0.53453 0.85443 0.0
C1144 C 0.55659 0.4847 0.84967 0.0
C1145 C 0.53758 0.54425 0.82976 0.0
C1146 C 0.524 0.53358 0.81503 0.0
C1147 C 0.53366 0.55953 0.80185 0.0
C1148 C 0.55728 0.59767 0.80386 0.0
C1149 C 0.57085 0.6096 0.81894 0.0
C1150 C 0.5609 0.58214 0.83197 0.0
H1151 H 0.64436 0.60701 0.19118 0.0
H1152 H 0.63338 0.46489 0.1781 0.0
H1153 H 0.56468 0.46925 0.18205 0.0
H1154 H 0.57829 0.60431 0.22187 0.0
H1155 H 0.55949 0.66058 0.21828 0.0
H1156 H 0.60704 0.64776 0.21288 0.0
H1157 H 0.59344 0.6728 0.18424 0.0
H1158 H 0.54588 0.68611 0.18959 0.0
H1159 H 0.55504 0.64702 0.17374 0.0
H1160 H 0.49813 0.488 0.18882 0.0
H1161 H 0.43798 0.51943 0.19808 0.0
H1162 H 0.49194 0.64954 0.20733 0.0
C1163 C 0.62712 0.57736 0.18881 0.0
C1164 C 0.64354 0.53581 0.18406 0.0
C1165 C 0.62076 0.49704 0.18149 0.0
C1166 C 0.58193 0.49927 0.18374 0.0
C1167 C 0.56642 0.54056 0.18864 0.0
C1168 C 0.58823 0.579 0.19112 0.0
C1169 C 0.56475 0.61834 0.19721 0.0
C1170 C 0.5782 0.63362 0.21353 0.0
C1171 C 0.56478 0.65844 0.1855 0.0
C1172 C 0.52656 0.59577 0.19804 0.0
C1173 C 0.5281 0.55107 0.19289 0.0
C1174 C 0.49652 0.52309 0.19276 0.0
C1175 C 0.46242 0.54129 0.198 0.0
C1176 C 0.46012 0.58695 0.20343 0.0
C1177 C 0.49278 0.61441 0.2034 0.0
H1178 H 0.46683 0.10025 0.50386 0.0
H1179 H 0.45579 0.13353 0.45441 0.0
H1180 H 0.48892 0.06225 0.44756 0.0
H1181 H 0.55812 0.04932 0.50209 0.0
H1182 H 0.54778 1.0045 0.51599 0.0
H1183 H 0.52349 0.05836 0.51714 0.0
H1184 H 0.45976 1.0164 0.51537 0.0
H1185 H 0.48386 0.96239 0.51436 0.0
H1186 H 0.451 0.97815 0.49922 0.0
H1187 H 0.52598 0.98876 0.44607 0.0
H1188 H 0.5574 0.91433 0.44987 0.0
H1189 H 0.54138 0.92583 0.50019 0.0
C1190 C 0.47124 0.09245 0.49159 0.0
C1191 C 0.45871 0.12274 0.47968 0.0
C1192 C 0.4649 0.11096 0.46376 0.0
C1193 C 0.48393 0.07059 0.45975 0.0
C1194 C 0.49628 0.0418 0.47176 0.0
C1195 C 0.48967 0.05179 0.48735 0.0
C1196 C 0.50479 1.01416 0.49795 0.0
C1197 C 0.53536 0.03271 0.50894 0.0
C1198 C 0.47295 0.99143 0.50727 0.0
C1199 C 0.52111 0.98164 0.48588 0.0
C1200 C 0.51631 0.99855 0.47086 0.0
C1201 C 0.52966 0.97508 0.45778 0.0
C1202 C 0.5477 0.93285 0.46008 0.0
C1203 C 0.55191 0.91398 0.47532 0.0
C1204 C 0.53859 0.93913 0.48837 0.0
H1205 H 0.89183 0.54002 0.5749 0.0
H1206 H 0.89269 0.54261 0.6258 0.0
H1207 H 0.96 0.56246 0.62542 0.0
H1208 H 0.98227 0.48907 0.56998 0.0
H1209 H 0.99372 0.52246 0.55284 0.0
H1210 H 0.94557 0.50934 0.55719 0.0
H1211 H 0.9294 0.5957 0.55666 0.0
H1212 H 0.9775 0.6091 0.5523 0.0
H1213 H 0.95506 0.6345 0.56908 0.0
H1214 H 0.02822 0.57974 0.61933 0.0
H1215 H 0.09055 0.59628 0.60811 0.0
H1216 H 0.04471 0.58212 0.5612 0.0
C1217 C 0.90613 0.54447 0.58599 0.0
C1218 C 0.88684 0.53952 0.60041 0.0
C1219 C 0.90666 0.54656 0.61462 0.0
C1220 C 0.94498 0.55761 0.61451 0.0
C1221 C 0.96314 0.5618 0.60009 0.0
C1222 C 0.94427 0.55569 0.58609 0.0
C1223 C 0.97012 0.5623 0.57217 0.0
C1224 C 0.97309 0.51816 0.56248 0.0
C1225 C 0.95725 0.60281 0.56195 0.0
C1226 C 1.0066 0.57286 0.5805 0.0
C1227 C 1.00206 0.57227 0.59661 0.0
C1228 C 0.03202 0.58036 0.60674 0.0
C1229 C 0.06742 0.58944 0.60025 0.0
C1230 C 0.07268 0.59059 0.58376 0.0
C1231 C 0.04165 0.58212 0.57383 0.0
loop_
_geom_bond_atom_site_label_1
_geom_bond_atom_site_label_2
_geom_bond_distance
_geom_bond_site_symmetry_2
_ccdc_geom_bond_type
Cu0 N1 1.999 . S
Cu0 O6 1.974 . S
Cu0 N11 1.985 . S
Cu0 O20 1.959 . S
N1 Cu0 1.999 . S
N1 C3 1.263 . S
N1 C5 1.389 . S
N2 C3 1.358 . S
N2 C4 1.400 1_455 S
C3 N1 1.263 . S
C3 N2 1.358 . S
C3 H9 0.930 . S
C4 N2 1.400 1_655 S
C4 C5 1.351 1_655 S
C4 H21 0.930 . S
C5 N1 1.389 . S
C5 C4 1.351 1_455 S
C5 H10 0.930 1_455 S
O6 Cu0 1.974 . S
O6 C16 1.282 . S
C7 O8 1.261 . S
C7 O20 1.251 . S
O8 C7 1.261 . S
H9 C3 0.930 . S
H10 C5 0.930 1_655 S
N11 Cu0 1.985 . S
N11 C13 1.335 . S
N11 C14 1.390 . S
N12 C13 1.345 . S
N12 C15 1.336 . S
C13 N11 1.335 . S
C13 N12 1.345 . S
C13 H18 0.930 . S
C14 N11 1.390 . S
C14 C15 1.346 . S
C14 H19 0.930 . S
C15 N12 1.336 . S
C15 C14 1.346 . S
C15 H22 0.929 . S
C16 O6 1.282 . S
C16 O17 1.216 . S
O17 C16 1.216 . S
H18 C13 0.930 . S
H19 C14 0.930 . S
O20 Cu0 1.959 . S
O20 C7 1.251 . S
H21 C4 0.930 . S
H22 C15 0.929 . S
Cu23 N24 1.999 . S
Cu23 O29 1.974 . S
Cu23 N34 1.985 . S
Cu23 O43 1.959 . S
N24 Cu23 1.999 . S
N24 C26 1.263 . S
N24 C28 1.389 . S
N25 C26 1.358 . S
N25 C27 1.400 . S
C26 N24 1.263 . S
C26 N25 1.358 . S
C26 H32 0.930 . S
C27 N25 1.400 . S
C27 C28 1.351 . S
C27 H44 0.930 1_565 S
C28 N24 1.389 . S
C28 C27 1.351 . S
C28 H33 0.930 . S
O29 Cu23 1.974 . S
O29 C39 1.282 . S
C30 O31 1.261 . S
C30 O43 1.251 1_545 S
O31 C30 1.261 . S
H32 C26 0.930 . S
H33 C28 0.930 . S
N34 Cu23 1.985 . S
N34 C36 1.335 . S
N34 C37 1.390 . S
N35 C36 1.345 . S
N35 C38 1.336 . S
C36 N34 1.335 . S
C36 N35 1.345 . S
C36 H41 0.930 . S
C37 N34 1.390 . S
C37 C38 1.346 . S
C37 H42 0.930 . S
C38 N35 1.336 . S
C38 C37 1.346 . S
C38 H45 0.929 . S
C39 O29 1.282 . S
C39 O40 1.216 . S
O40 C39 1.216 . S
H41 C36 0.930 . S
H42 C37 0.930 . S
O43 Cu23 1.959 . S
O43 C30 1.251 1_565 S
H44 C27 0.930 1_545 S
H45 C38 0.929 . S
Cu46 N47 1.999 . S
Cu46 O52 1.974 . S
Cu46 N57 1.985 . S
Cu46 O66 1.959 . S
N47 Cu46 1.999 . S
N47 C49 1.263 . S
N47 C51 1.389 . S
N48 C49 1.358 . S
N48 C50 1.400 1_655 S
C49 N47 1.263 . S
C49 N48 1.358 . S
C49 H55 0.930 . S
C50 N48 1.400 1_455 S
C50 C51 1.351 1_455 S
C50 H67 0.930 . S
C51 N47 1.389 . S
C51 C50 1.351 1_655 S
C51 H56 0.930 1_655 S
O52 Cu46 1.974 . S
O52 C62 1.282 . S
C53 O54 1.261 . S
C53 O66 1.251 . S
O54 C53 1.261 . S
H55 C49 0.930 . S
H56 C51 0.930 1_455 S
N57 Cu46 1.985 . S
N57 C59 1.335 . S
N57 C60 1.390 . S
N58 C59 1.345 . S
N58 C61 1.336 . S
C59 N57 1.335 . S
C59 N58 1.345 . S
C59 H64 0.930 . S
C60 N57 1.390 . S
C60 C61 1.346 . S
C60 H65 0.930 . S
C61 N58 1.336 . S
C61 C60 1.346 . S
C61 H68 0.929 . S
C62 O52 1.282 . S
C62 O63 1.216 . S
O63 C62 1.216 . S
H64 C59 0.930 . S
H65 C60 0.930 . S
O66 Cu46 1.959 . S
O66 C53 1.251 . S
H67 C50 0.930 . S
H68 C61 0.929 . S
Cu69 N70 1.999 . S
Cu69 O75 1.974 . S
Cu69 N80 1.985 . S
Cu69 O89 1.959 . S
N70 Cu69 1.999 . S
N70 C72 1.263 . S
N70 C74 1.389 . S
N71 C72 1.358 . S
N71 C73 1.400 . S
C72 N70 1.263 . S
C72 N71 1.358 . S
C72 H78 0.930 . S
C73 N71 1.400 . S
C73 C74 1.351 . S
C73 H90 0.930 1_545 S
C74 N70 1.389 . S
C74 C73 1.351 . S
C74 H79 0.930 . S
O75 Cu69 1.974 . S
O75 C85 1.282 . S
C76 O77 1.261 . S
C76 O89 1.251 1_565 S
O77 C76 1.261 . S
H78 C72 0.930 . S
H79 C74 0.930 . S
N80 Cu69 1.985 . S
N80 C82 1.335 . S
N80 C83 1.390 . S
N81 C82 1.345 . S
N81 C84 1.336 . S
C82 N80 1.335 . S
C82 N81 1.345 . S
C82 H87 0.930 . S
C83 N80 1.390 . S
C83 C84 1.346 . S
C83 H88 0.930 . S
C84 N81 1.336 . S
C84 C83 1.346 . S
C84 H91 0.929 . S
C85 O75 1.282 . S
C85 O86 1.216 . S
O86 C85 1.216 . S
H87 C82 0.930 . S
H88 C83 0.930 . S
O89 Cu69 1.959 . S
O89 C76 1.251 1_545 S
H90 C73 0.930 1_565 S
H91 C84 0.929 . S
Cu92 N93 1.999 . S
Cu92 O98 1.974 . S
Cu92 N103 1.985 . S
Cu92 O112 1.959 . S
N93 Cu92 1.999 . S
N93 C95 1.263 . S
N93 C97 1.389 . S
N94 C95 1.358 . S
N94 C96 1.400 1_455 S
C95 N93 1.263 . S
C95 N94 1.358 . S
C95 H101 0.930 . S
C96 N94 1.400 1_655 S
C96 C97 1.351 1_655 S
C96 H113 0.930 . S
C97 N93 1.389 . S
C97 C96 1.351 1_455 S
C97 H102 0.930 1_455 S
O98 Cu92 1.974 . S
O98 C108 1.282 . S
C99 O100 1.261 . S
C99 O112 1.251 . S
O100 C99 1.261 . S
H101 C95 0.930 . S
H102 C97 0.930 1_655 S
N103 Cu92 1.985 . S
N103 C105 1.335 . S
N103 C106 1.390 . S
N104 C105 1.345 . S
N104 C107 1.336 . S
C105 N103 1.335 . S
C105 N104 1.345 . S
C105 H110 0.930 . S
C106 N103 1.390 . S
C106 C107 1.346 . S
C106 H111 0.930 . S
C107 N104 1.336 . S
C107 C106 1.346 . S
C107 H114 0.929 . S
C108 O98 1.282 . S
C108 O109 1.216 . S
O109 C108 1.216 . S
H110 C105 0.930 . S
H111 C106 0.930 . S
O112 Cu92 1.959 . S
O112 C99 1.251 . S
H113 C96 0.930 . S
H114 C107 0.929 . S
Cu115 N116 1.999 . S
Cu115 O121 1.974 . S
Cu115 N126 1.985 . S
Cu115 O135 1.959 . S
N116 Cu115 1.999 . S
N116 C118 1.263 . S
N116 C120 1.389 . S
N117 C118 1.358 . S
N117 C119 1.400 . S
C118 N116 1.263 . S
C118 N117 1.358 . S
C118 H124 0.930 . S
C119 N117 1.400 . S
C119 C120 1.351 . S
C119 H136 0.930 1_565 S
C120 N116 1.389 . S
C120 C119 1.351 . S
C120 H125 0.930 . S
O121 Cu115 1.974 . S
O121 C131 1.282 . S
C122 O123 1.261 . S
C122 O135 1.251 1_545 S
O123 C122 1.261 . S
H124 C118 0.930 . S
H125 C120 0.930 . S
N126 Cu115 1.985 . S
N126 C128 1.335 . S
N126 C129 1.390 . S
N127 C128 1.345 . S
N127 C130 1.336 . S
C128 N126 1.335 . S
C128 N127 1.345 . S
C128 H133 0.930 . S
C129 N126 1.390 . S
C129 C130 1.346 . S
C129 H134 0.930 . S
C130 N127 1.336 . S
C130 C129 1.346 . S
C130 H137 0.929 . S
C131 O121 1.282 . S
C131 O132 1.216 . S
O132 C131 1.216 . S
H133 C128 0.930 . S
H134 C129 0.930 . S
O135 Cu115 1.959 . S
O135 C122 1.251 1_565 S
H136 C119 0.930 1_545 S
H137 C130 0.929 . S
Cu138 N139 1.999 . S
Cu138 O144 1.974 . S
Cu138 N149 1.985 . S
Cu138 O158 1.959 . S
N139 Cu138 1.999 . S
N139 C141 1.263 . S
N139 C143 1.389 . S
N140 C141 1.358 . S
N140 C142 1.400 1_655 S
C141 N139 1.263 . S
C141 N140 1.358 . S
C141 H147 0.930 . S
C142 N140 1.400 1_455 S
C142 C143 1.351 1_455 S
C142 H159 0.930 . S
C143 N139 1.389 . S
C143 C142 1.351 1_655 S
C143 H148 0.930 1_655 S
O144 Cu138 1.974 . S
O144 C154 1.282 . S
C145 O146 1.261 . S
C145 O158 1.251 . S
O146 C145 1.261 . S
H147 C141 0.930 . S
H148 C143 0.930 1_455 S
N149 Cu138 1.985 . S
N149 C151 1.335 . S
N149 C152 1.390 . S
N150 C151 1.345 . S
N150 C153 1.336 . S
C151 N149 1.335 . S
C151 N150 1.345 . S
C151 H156 0.930 . S
C152 N149 1.390 . S
C152 C153 1.346 . S
C152 H157 0.930 . S
C153 N150 1.336 . S
C153 C152 1.346 . S
C153 H160 0.929 . S
C154 O144 1.282 . S
C154 O155 1.216 . S
O155 C154 1.216 . S
H156 C151 0.930 . S
H157 C152 0.930 . S
O158 Cu138 1.959 . S
O158 C145 1.251 . S
H159 C142 0.930 . S
H160 C153 0.929 . S
Cu161 N162 1.999 . S
Cu161 O167 1.974 . S
Cu161 N172 1.985 . S
Cu161 O181 1.959 . S
N162 Cu161 1.999 . S
N162 C164 1.263 . S
N162 C166 1.389 . S
N163 C164 1.358 . S
N163 C165 1.400 . S
C164 N162 1.263 . S
C164 N163 1.358 . S
C164 H170 0.930 . S
C165 N163 1.400 . S
C165 C166 1.351 . S
C165 H182 0.930 1_545 S
C166 N162 1.389 . S
C166 C165 1.351 . S
C166 H171 0.930 . S
O167 Cu161 1.974 . S
O167 C177 1.282 . S
C168 O169 1.261 . S
C168 O181 1.251 1_565 S
O169 C168 1.261 . S
H170 C164 0.930 . S
H171 C166 0.930 . S
N172 Cu161 1.985 . S
N172 C174 1.335 . S
N172 C175 1.390 . S
N173 C174 1.345 . S
N173 C176 1.336 . S
C174 N172 1.335 . S
C174 N173 1.345 . S
C174 H179 0.930 . S
C175 N172 1.390 . S
C175 C176 1.346 . S
C175 H180 0.930 . S
C176 N173 1.336 . S
C176 C175 1.346 . S
C176 H183 0.929 . S
C177 O167 1.282 . S
C177 O178 1.216 . S
O178 C177 1.216 . S
H179 C174 0.930 . S
H180 C175 0.930 . S
O181 Cu161 1.959 . S
O181 C168 1.251 1_545 S
H182 C165 0.930 1_565 S
H183 C176 0.929 . S
Cu184 N185 1.999 . S
Cu184 O190 1.974 . S
Cu184 N195 1.985 . S
Cu184 O204 1.959 . S
N185 Cu184 1.999 . S
N185 C187 1.263 . S
N185 C189 1.389 . S
N186 C187 1.358 . S
N186 C188 1.400 . S
C187 N185 1.263 . S
C187 N186 1.358 . S
C187 H193 0.930 . S
C188 N186 1.400 . S
C188 C189 1.351 . S
C188 H205 0.930 . S
C189 N185 1.389 . S
C189 C188 1.351 . S
C189 H194 0.930 . S
O190 Cu184 1.974 . S
O190 C200 1.282 . S
C191 O192 1.261 . S
C191 O204 1.251 . S
O192 C191 1.261 . S
H193 C187 0.930 . S
H194 C189 0.930 . S
N195 Cu184 1.985 . S
N195 C197 1.335 . S
N195 C198 1.390 . S
N196 C197 1.345 . S
N196 C199 1.336 . S
C197 N195 1.335 . S
C197 N196 1.345 . S
C197 H202 0.930 . S
C198 N195 1.390 . S
C198 C199 1.346 . S
C198 H203 0.930 . S
C199 N196 1.336 . S
C199 C198 1.346 . S
C199 H206 0.929 . S
C200 O190 1.282 . S
C200 O201 1.216 . S
O201 C200 1.216 . S
H202 C197 0.930 . S
H203 C198 0.930 . S
O204 Cu184 1.959 . S
O204 C191 1.251 . S
H205 C188 0.930 . S
H206 C199 0.929 . S
Cu207 N208 1.999 . S
Cu207 O213 1.974 . S
Cu207 N218 1.985 . S
Cu207 O227 1.959 . S
N208 Cu207 1.999 . S
N208 C210 1.263 . S
N208 C212 1.389 . S
N209 C210 1.358 . S
N209 C211 1.400 . S
C210 N208 1.263 . S
C210 N209 1.358 . S
C210 H216 0.930 . S
C211 N209 1.400 . S
C211 C212 1.351 . S
C211 H228 0.930 . S
C212 N208 1.389 . S
C212 C211 1.351 . S
C212 H217 0.930 . S
O213 Cu207 1.974 . S
O213 C223 1.282 . S
C214 O215 1.261 . S
C214 O227 1.251 . S
O215 C214 1.261 . S
H216 C210 0.930 . S
H217 C212 0.930 . S
N218 Cu207 1.985 . S
N218 C220 1.335 . S
N218 C221 1.390 . S
N219 C220 1.345 . S
N219 C222 1.336 . S
C220 N218 1.335 . S
C220 N219 1.345 . S
C220 H225 0.930 . S
C221 N218 1.390 . S
C221 C222 1.346 . S
C221 H226 0.930 . S
C222 N219 1.336 . S
C222 C221 1.346 . S
C222 H229 0.929 . S
C223 O213 1.282 . S
C223 O224 1.216 . S
O224 C223 1.216 . S
H225 C220 0.930 . S
H226 C221 0.930 . S
O227 Cu207 1.959 . S
O227 C214 1.251 . S
H228 C211 0.930 . S
H229 C222 0.929 . S
Cu230 N231 1.999 . S
Cu230 O236 1.974 . S
Cu230 N241 1.985 . S
Cu230 O250 1.959 . S
N231 Cu230 1.999 . S
N231 C233 1.263 . S
N231 C235 1.389 . S
N232 C233 1.358 . S
N232 C234 1.400 . S
C233 N231 1.263 . S
C233 N232 1.358 . S
C233 H239 0.930 . S
C234 N232 1.400 . S
C234 C235 1.351 . S
C234 H251 0.930 . S
C235 N231 1.389 . S
C235 C234 1.351 . S
C235 H240 0.930 . S
O236 Cu230 1.974 . S
O236 C246 1.282 . S
C237 O238 1.261 . S
C237 O250 1.251 . S
O238 C237 1.261 . S
H239 C233 0.930 . S
H240 C235 0.930 . S
N241 Cu230 1.985 . S
N241 C243 1.335 . S
N241 C244 1.390 . S
N242 C243 1.345 . S
N242 C245 1.336 . S
C243 N241 1.335 . S
C243 N242 1.345 . S
C243 H248 0.930 . S
C244 N241 1.390 . S
C244 C245 1.346 . S
C244 H249 0.930 . S
C245 N242 1.336 . S
C245 C244 1.346 . S
C245 H252 0.929 . S
C246 O236 1.282 . S
C246 O247 1.216 . S
O247 C246 1.216 . S
H248 C243 0.930 . S
H249 C244 0.930 . S
O250 Cu230 1.959 . S
O250 C237 1.251 . S
H251 C234 0.930 . S
H252 C245 0.929 . S
Cu253 N254 1.999 . S
Cu253 O259 1.974 . S
Cu253 N264 1.985 . S
Cu253 O273 1.959 . S
N254 Cu253 1.999 . S
N254 C256 1.263 . S
N254 C258 1.389 . S
N255 C256 1.358 . S
N255 C257 1.400 . S
C256 N254 1.263 . S
C256 N255 1.358 . S
C256 H262 0.930 . S
C257 N255 1.400 . S
C257 C258 1.351 . S
C257 H274 0.930 . S
C258 N254 1.389 . S
C258 C257 1.351 . S
C258 H263 0.930 . S
O259 Cu253 1.974 . S
O259 C269 1.282 . S
C260 O261 1.261 . S
C260 O273 1.251 . S
O261 C260 1.261 . S
H262 C256 0.930 . S
H263 C258 0.930 . S
N264 Cu253 1.985 . S
N264 C266 1.335 . S
N264 C267 1.390 . S
N265 C266 1.345 . S
N265 C268 1.336 . S
C266 N264 1.335 . S
C266 N265 1.345 . S
C266 H271 0.930 . S
C267 N264 1.390 . S
C267 C268 1.346 . S
C267 H272 0.930 . S
C268 N265 1.336 . S
C268 C267 1.346 . S
C268 H275 0.929 . S
C269 O259 1.282 . S
C269 O270 1.216 . S
O270 C269 1.216 . S
H271 C266 0.930 . S
H272 C267 0.930 . S
O273 Cu253 1.959 . S
O273 C260 1.251 . S
H274 C257 0.930 . S
H275 C268 0.929 . S
Cu276 N277 1.999 . S
Cu276 O282 1.974 . S
Cu276 N287 1.985 . S
Cu276 O296 1.959 . S
N277 Cu276 1.999 . S
N277 C279 1.263 . S
N277 C281 1.389 . S
N278 C279 1.358 . S
N278 C280 1.400 . S
C279 N277 1.263 . S
C279 N278 1.358 . S
C279 H285 0.930 . S
C280 N278 1.400 . S
C280 C281 1.351 . S
C280 H297 0.930 . S
C281 N277 1.389 . S
C281 C280 1.351 . S
C281 H286 0.930 . S
O282 Cu276 1.974 . S
O282 C292 1.282 . S
C283 O284 1.261 . S
C283 O296 1.251 . S
O284 C283 1.261 . S
H285 C279 0.930 . S
H286 C281 0.930 . S
N287 Cu276 1.985 . S
N287 C289 1.335 . S
N287 C290 1.390 . S
N288 C289 1.345 . S
N288 C291 1.336 . S
C289 N287 1.335 . S
C289 N288 1.345 . S
C289 H294 0.930 . S
C290 N287 1.390 . S
C290 C291 1.346 . S
C290 H295 0.930 . S
C291 N288 1.336 . S
C291 C290 1.346 . S
C291 H298 0.929 . S
C292 O282 1.282 . S
C292 O293 1.216 . S
O293 C292 1.216 . S
H294 C289 0.930 . S
H295 C290 0.930 . S
O296 Cu276 1.959 . S
O296 C283 1.251 . S
H297 C280 0.930 . S
H298 C291 0.929 . S
Cu299 N300 1.999 . S
Cu299 O305 1.974 . S
Cu299 N310 1.985 . S
Cu299 O319 1.959 . S
N300 Cu299 1.999 . S
N300 C302 1.263 . S
N300 C304 1.389 . S
N301 C302 1.358 . S
N301 C303 1.400 . S
C302 N300 1.263 . S
C302 N301 1.358 . S
C302 H308 0.930 . S
C303 N301 1.400 . S
C303 C304 1.351 . S
C303 H320 0.930 . S
C304 N300 1.389 . S
C304 C303 1.351 . S
C304 H309 0.930 . S
O305 Cu299 1.974 . S
O305 C315 1.282 . S
C306 O307 1.261 . S
C306 O319 1.251 . S
O307 C306 1.261 . S
H308 C302 0.930 . S
H309 C304 0.930 . S
N310 Cu299 1.985 . S
N310 C312 1.335 . S
N310 C313 1.390 . S
N311 C312 1.345 . S
N311 C314 1.336 . S
C312 N310 1.335 . S
C312 N311 1.345 . S
C312 H317 0.930 . S
C313 N310 1.390 . S
C313 C314 1.346 . S
C313 H318 0.930 . S
C314 N311 1.336 . S
C314 C313 1.346 . S
C314 H321 0.929 . S
C315 O305 1.282 . S
C315 O316 1.216 . S
O316 C315 1.216 . S
H317 C312 0.930 . S
H318 C313 0.930 . S
O319 Cu299 1.959 . S
O319 C306 1.251 . S
H320 C303 0.930 . S
H321 C314 0.929 . S
Cu322 N323 1.999 . S
Cu322 O328 1.974 . S
Cu322 N333 1.985 . S
Cu322 O342 1.959 . S
N323 Cu322 1.999 . S
N323 C325 1.263 . S
N323 C327 1.389 . S
N324 C325 1.358 . S
N324 C326 1.400 . S
C325 N323 1.263 . S
C325 N324 1.358 . S
C325 H331 0.930 . S
C326 N324 1.400 . S
C326 C327 1.351 . S
C326 H343 0.930 . S
C327 N323 1.389 . S
C327 C326 1.351 . S
C327 H332 0.930 . S
O328 Cu322 1.974 . S
O328 C338 1.282 . S
C329 O330 1.261 . S
C329 O342 1.251 . S
O330 C329 1.261 . S
H331 C325 0.930 . S
H332 C327 0.930 . S
N333 Cu322 1.985 . S
N333 C335 1.335 . S
N333 C336 1.390 . S
N334 C335 1.345 . S
N334 C337 1.336 . S
C335 N333 1.335 . S
C335 N334 1.345 . S
C335 H340 0.930 . S
C336 N333 1.390 . S
C336 C337 1.346 . S
C336 H341 0.930 . S
C337 N334 1.336 . S
C337 C336 1.346 . S
C337 H344 0.929 . S
C338 O328 1.282 . S
C338 O339 1.216 . S
O339 C338 1.216 . S
H340 C335 0.930 . S
H341 C336 0.930 . S
O342 Cu322 1.959 . S
O342 C329 1.251 . S
H343 C326 0.930 . S
H344 C337 0.929 . S
Cu345 N346 1.999 . S
Cu345 O351 1.974 . S
Cu345 N356 1.985 . S
Cu345 O365 1.959 . S
N346 Cu345 1.999 . S
N346 C348 1.263 . S
N346 C350 1.389 . S
N347 C348 1.358 . S
N347 C349 1.400 . S
C348 N346 1.263 . S
C348 N347 1.358 . S
C348 H354 0.930 . S
C349 N347 1.400 . S
C349 C350 1.351 . S
C349 H366 0.930 . S
C350 N346 1.389 . S
C350 C349 1.351 . S
C350 H355 0.930 . S
O351 Cu345 1.974 . S
O351 C361 1.282 . S
C352 O353 1.261 . S
C352 O365 1.251 . S
O353 C352 1.261 . S
H354 C348 0.930 . S
H355 C350 0.930 . S
N356 Cu345 1.985 . S
N356 C358 1.335 . S
N356 C359 1.390 . S
N357 C358 1.345 . S
N357 C360 1.336 . S
C358 N356 1.335 . S
C358 N357 1.345 . S
C358 H363 0.930 . S
C359 N356 1.390 . S
C359 C360 1.346 . S
C359 H364 0.930 . S
C360 N357 1.336 . S
C360 C359 1.346 . S
C360 H367 0.929 . S
C361 O351 1.282 . S
C361 O362 1.216 . S
O362 C361 1.216 . S
H363 C358 0.930 . S
H364 C359 0.930 . S
O365 Cu345 1.959 . S
O365 C352 1.251 . S
H366 C349 0.930 . S
H367 C360 0.929 . S
H368 C380 0.930 . S
H369 C382 0.930 . S
H370 C383 0.930 . S
H371 C387 0.959 . S
H372 C387 0.959 . S
H373 C387 0.961 . S
H374 C388 0.960 . S
H375 C388 0.961 . S
H376 C388 0.959 . S
H377 C391 0.929 . S
H378 C392 0.931 . S
H379 C394 0.930 . S
C380 H368 0.930 . S
C380 C381 1.399 . S
C380 C385 1.399 . S
C381 C380 1.399 . S
C381 C382 1.376 . S
C382 H369 0.930 . S
C382 C381 1.376 . S
C382 C383 1.388 . S
C383 H370 0.930 . S
C383 C382 1.388 . S
C383 C384 1.390 . S
C384 C383 1.390 . S
C384 C385 1.394 . S
C384 C390 1.465 . S
C385 C380 1.399 . S
C385 C384 1.394 . S
C385 C386 1.516 . S
C386 C385 1.516 . S
C386 C387 1.502 . S
C386 C388 1.561 . S
C386 C389 1.526 . S
C387 H371 0.959 . S
C387 H372 0.959 . S
C387 H373 0.961 . S
C387 C386 1.502 . S
C388 H374 0.960 . S
C388 H375 0.961 . S
C388 H376 0.959 . S
C388 C386 1.561 . S
C389 C386 1.526 . S
C389 C390 1.396 . S
C389 C394 1.390 . S
C390 C384 1.465 . S
C390 C389 1.396 . S
C390 C391 1.399 . S
C391 H377 0.929 . S
C391 C390 1.399 . S
C391 C392 1.385 . S
C392 H378 0.931 . S
C392 C391 1.385 . S
C392 C393 1.389 . S
C393 C392 1.389 . S
C393 C394 1.387 . S
C394 H379 0.930 . S
C394 C389 1.390 . S
C394 C393 1.387 . S
H395 C407 0.930 . S
H396 C409 0.930 . S
H397 C410 0.930 . S
H398 C414 0.959 . S
H399 C414 0.959 . S
H400 C414 0.961 . S
H401 C415 0.960 . S
H402 C415 0.961 . S
H403 C415 0.959 . S
H404 C418 0.929 . S
H405 C419 0.931 . S
H406 C421 0.930 . S
C407 H395 0.930 . S
C407 C408 1.399 . S
C407 C412 1.399 . S
C408 C407 1.399 . S
C408 C409 1.376 . S
C409 H396 0.930 . S
C409 C408 1.376 . S
C409 C410 1.388 . S
C410 H397 0.930 . S
C410 C409 1.388 . S
C410 C411 1.390 . S
C411 C410 1.390 . S
C411 C412 1.394 . S
C411 C417 1.465 . S
C412 C407 1.399 . S
C412 C411 1.394 . S
C412 C413 1.516 . S
C413 C412 1.516 . S
C413 C414 1.502 . S
C413 C415 1.561 . S
C413 C416 1.526 . S
C414 H398 0.959 . S
C414 H399 0.959 . S
C414 H400 0.961 . S
C414 C413 1.502 . S
C415 H401 0.960 . S
C415 H402 0.961 . S
C415 H403 0.959 . S
C415 C413 1.561 . S
C416 C413 1.526 . S
C416 C417 1.396 . S
C416 C421 1.390 . S
C417 C411 1.465 . S
C417 C416 1.396 . S
C417 C418 1.399 . S
C418 H404 0.929 . S
C418 C417 1.399 . S
C418 C419 1.385 . S
C419 H405 0.931 . S
C419 C418 1.385 . S
C419 C420 1.389 . S
C420 C419 1.389 . S
C420 C421 1.387 . S
C421 H406 0.930 . S
C421 C416 1.390 . S
C421 C420 1.387 . S
H422 C434 0.930 . S
H423 C436 0.930 . S
H424 C437 0.930 . S
H425 C441 0.959 . S
H426 C441 0.959 . S
H427 C441 0.961 . S
H428 C442 0.960 . S
H429 C442 0.961 . S
H430 C442 0.959 . S
H431 C445 0.929 . S
H432 C446 0.931 . S
H433 C448 0.930 . S
C434 H422 0.930 . S
C434 C435 1.399 . S
C434 C439 1.399 . S
C435 C434 1.399 . S
C435 C436 1.376 . S
C436 H423 0.930 . S
C436 C435 1.376 . S
C436 C437 1.388 . S
C437 H424 0.930 . S
C437 C436 1.388 . S
C437 C438 1.390 . S
C438 C437 1.390 . S
C438 C439 1.394 . S
C438 C444 1.465 . S
C439 C434 1.399 . S
C439 C438 1.394 . S
C439 C440 1.516 . S
C440 C439 1.516 . S
C440 C441 1.502 . S
C440 C442 1.561 . S
C440 C443 1.526 . S
C441 H425 0.959 . S
C441 H426 0.959 . S
C441 H427 0.961 . S
C441 C440 1.502 . S
C442 H428 0.960 . S
C442 H429 0.961 . S
C442 H430 0.959 . S
C442 C440 1.561 . S
C443 C440 1.526 . S
C443 C444 1.396 . S
C443 C448 1.390 . S
C444 C438 1.465 . S
C444 C443 1.396 . S
C444 C445 1.399 . S
C445 H431 0.929 . S
C445 C444 1.399 . S
C445 C446 1.385 . S
C446 H432 0.931 . S
C446 C445 1.385 . S
C446 C447 1.389 . S
C447 C446 1.389 . S
C447 C448 1.387 . S
C448 H433 0.930 . S
C448 C443 1.390 . S
C448 C447 1.387 . S
H449 C461 0.930 . S
H450 C463 0.930 . S
H451 C464 0.930 . S
H452 C468 0.959 . S
H453 C468 0.959 . S
H454 C468 0.961 . S
H455 C469 0.960 . S
H456 C469 0.961 . S
H457 C469 0.959 . S
H458 C472 0.929 . S
H459 C473 0.931 . S
H460 C475 0.930 . S
C461 H449 0.930 . S
C461 C462 1.399 . S
C461 C466 1.399 . S
C462 C461 1.399 . S
C462 C463 1.376 . S
C463 H450 0.930 . S
C463 C462 1.376 . S
C463 C464 1.388 . S
C464 H451 0.930 . S
C464 C463 1.388 . S
C464 C465 1.390 . S
C465 C464 1.390 . S
C465 C466 1.394 . S
C465 C471 1.465 . S
C466 C461 1.399 . S
C466 C465 1.394 . S
C466 C467 1.516 . S
C467 C466 1.516 . S
C467 C468 1.502 . S
C467 C469 1.561 . S
C467 C470 1.526 . S
C468 H452 0.959 . S
C468 H453 0.959 . S
C468 H454 0.961 . S
C468 C467 1.502 . S
C469 H455 0.960 . S
C469 H456 0.961 . S
C469 H457 0.959 . S
C469 C467 1.561 . S
C470 C467 1.526 . S
C470 C471 1.396 . S
C470 C475 1.390 . S
C471 C465 1.465 . S
C471 C470 1.396 . S
C471 C472 1.399 . S
C472 H458 0.929 . S
C472 C471 1.399 . S
C472 C473 1.385 . S
C473 H459 0.931 . S
C473 C472 1.385 . S
C473 C474 1.389 . S
C474 C473 1.389 . S
C474 C475 1.387 . S
C475 H460 0.930 . S
C475 C470 1.390 . S
C475 C474 1.387 . S
H476 C488 0.930 . S
H477 C490 0.930 . S
H478 C491 0.930 . S
H479 C495 0.959 . S
H480 C495 0.959 . S
H481 C495 0.958 . S
H482 C496 0.960 . S
H483 C496 0.961 . S
H484 C496 0.959 . S
H485 C499 0.929 . S
H486 C500 0.931 . S
H487 C502 0.930 . S
C488 H476 0.930 . S
C488 C489 1.399 . S
C488 C493 1.399 . S
C489 C488 1.399 . S
C489 C490 1.376 . S
C490 H477 0.930 . S
C490 C489 1.376 . S
C490 C491 1.388 . S
C491 H478 0.930 . S
C491 C490 1.388 . S
C491 C492 1.390 . S
C492 C491 1.390 . S
C492 C493 1.394 . S
C492 C498 1.465 . S
C493 C488 1.399 . S
C493 C492 1.394 . S
C493 C494 1.516 . S
C494 C493 1.516 . S
C494 C495 1.502 1_554 S
C494 C496 1.561 . S
C494 C497 1.501 1_554 S
C495 H479 0.959 . S
C495 H480 0.959 . S
C495 H481 0.958 . S
C495 C494 1.502 1_556 S
C496 H482 0.960 . S
C496 H483 0.961 . S
C496 H484 0.959 . S
C496 C494 1.561 . S
C497 C494 1.501 1_556 S
C497 C498 1.368 1_556 S
C497 C502 1.438 . S
C498 C492 1.465 . S
C498 C497 1.368 1_554 S
C498 C499 1.399 . S
C499 H485 0.929 . S
C499 C498 1.399 . S
C499 C500 1.385 1_554 S
C500 H486 0.931 . S
C500 C499 1.385 1_556 S
C500 C501 1.389 . S
C501 C500 1.389 . S
C501 C502 1.387 . S
C502 H487 0.930 . S
C502 C497 1.438 . S
C502 C501 1.387 . S
H503 C515 0.930 . S
H504 C517 0.930 . S
H505 C518 0.930 . S
H506 C522 0.959 . S
H507 C522 0.959 . S
H508 C522 0.961 . S
H509 C523 0.960 . S
H510 C523 0.961 . S
H511 C523 0.959 . S
H512 C526 0.929 . S
H513 C527 0.931 . S
H514 C529 0.930 . S
C515 H503 0.930 . S
C515 C516 1.399 . S
C515 C520 1.399 . S
C516 C515 1.399 . S
C516 C517 1.376 . S
C517 H504 0.930 . S
C517 C516 1.376 . S
C517 C518 1.388 . S
C518 H505 0.930 . S
C518 C517 1.388 . S
C518 C519 1.390 . S
C519 C518 1.390 . S
C519 C520 1.394 . S
C519 C525 1.465 . S
C520 C515 1.399 . S
C520 C519 1.394 . S
C520 C521 1.516 . S
C521 C520 1.516 . S
C521 C522 1.502 . S
C521 C523 1.561 . S
C521 C524 1.526 . S
C522 H506 0.959 . S
C522 H507 0.959 . S
C522 H508 0.961 . S
C522 C521 1.502 . S
C523 H509 0.960 . S
C523 H510 0.961 . S
C523 H511 0.959 . S
C523 C521 1.561 . S
C524 C521 1.526 . S
C524 C525 1.396 . S
C524 C529 1.390 . S
C525 C519 1.465 . S
C525 C524 1.396 . S
C525 C526 1.399 1_554 S
C526 H512 0.929 . S
C526 C525 1.399 1_556 S
C526 C527 1.385 . S
C527 H513 0.931 . S
C527 C526 1.385 . S
C527 C528 1.389 . S
C528 C527 1.389 . S
C528 C529 1.387 1_556 S
C529 H514 0.930 . S
C529 C524 1.390 . S
C529 C528 1.387 1_554 S
H530 C542 0.930 . S
H531 C544 0.930 . S
H532 C545 0.930 . S
H533 C549 0.959 . S
H534 C549 0.959 . S
H535 C549 0.961 . S
H536 C550 0.960 . S
H537 C550 0.961 . S
H538 C550 0.959 . S
H539 C553 0.929 . S
H540 C554 0.931 . S
H541 C556 0.930 . S
C542 H530 0.930 . S
C542 C543 1.399 . S
C542 C547 1.399 . S
C543 C542 1.399 . S
C543 C544 1.376 . S
C544 H531 0.930 . S
C544 C543 1.376 . S
C544 C545 1.388 1_556 S
C545 H532 0.930 . S
C545 C544 1.388 1_554 S
C545 C546 1.390 . S
C546 C545 1.390 . S
C546 C547 1.394 1_554 S
C546 C552 1.465 . S
C547 C542 1.399 . S
C547 C546 1.394 1_556 S
C547 C548 1.516 . S
C548 C547 1.516 . S
C548 C549 1.502 . S
C548 C550 1.561 . S
C548 C551 1.526 1_556 S
C549 H533 0.959 . S
C549 H534 0.959 . S
C549 H535 0.961 . S
C549 C548 1.502 . S
C550 H536 0.960 . S
C550 H537 0.961 . S
C550 H538 0.959 . S
C550 C548 1.561 . S
C551 C548 1.526 1_554 S
C551 C552 1.396 . S
C551 C556 1.390 . S
C552 C546 1.465 . S
C552 C551 1.396 . S
C552 C553 1.399 . S
C553 H539 0.929 . S
C553 C552 1.399 . S
C553 C554 1.385 . S
C554 H540 0.931 . S
C554 C553 1.385 . S
C554 C555 1.389 . S
C555 C554 1.389 . S
C555 C556 1.387 . S
C556 H541 0.930 . S
C556 C551 1.390 . S
C556 C555 1.387 . S
H557 C569 0.930 . S
H558 C571 0.930 . S
H559 C572 0.930 . S
H560 C576 0.959 . S
H561 C576 0.959 . S
H562 C576 0.961 . S
H563 C577 0.960 . S
H564 C577 0.961 . S
H565 C577 0.959 . S
H566 C580 0.929 . S
H567 C581 0.931 . S
H568 C583 0.930 . S
C569 H557 0.930 . S
C569 C570 1.399 . S
C569 C574 1.399 . S
C570 C569 1.399 . S
C570 C571 1.376 . S
C571 H558 0.930 . S
C571 C570 1.376 . S
C571 C572 1.388 . S
C572 H559 0.930 . S
C572 C571 1.388 . S
C572 C573 1.390 . S
C573 C572 1.390 . S
C573 C574 1.394 . S
C573 C579 1.465 . S
C574 C569 1.399 . S
C574 C573 1.394 . S
C574 C575 1.516 . S
C575 C574 1.516 . S
C575 C576 1.502 . S
C575 C577 1.561 . S
C575 C578 1.526 . S
C576 H560 0.959 . S
C576 H561 0.959 . S
C576 H562 0.961 . S
C576 C575 1.502 . S
C577 H563 0.960 . S
C577 H564 0.961 . S
C577 H565 0.959 . S
C577 C575 1.561 . S
C578 C575 1.526 . S
C578 C579 1.396 . S
C578 C583 1.390 . S
C579 C573 1.465 . S
C579 C578 1.396 . S
C579 C580 1.399 1_554 S
C580 H566 0.929 . S
C580 C579 1.399 1_556 S
C580 C581 1.385 . S
C581 H567 0.931 . S
C581 C580 1.385 . S
C581 C582 1.389 . S
C582 C581 1.389 . S
C582 C583 1.387 1_556 S
C583 H568 0.930 . S
C583 C578 1.390 . S
C583 C582 1.387 1_554 S
H584 C596 0.930 . S
H585 C598 0.930 . S
H586 C599 0.930 . S
H587 C603 0.959 . S
H588 C603 0.959 . S
H589 C603 0.961 . S
H590 C604 0.960 . S
H591 C604 0.961 . S
H592 C604 0.959 . S
H593 C607 0.929 . S
H594 C608 0.931 1_545 S
H595 C610 0.930 . S
C596 H584 0.930 . S
C596 C597 1.399 . S
C596 C601 1.399 . S
C597 C596 1.399 . S
C597 C598 1.376 . S
C598 H585 0.930 . S
C598 C597 1.376 . S
C598 C599 1.388 . S
C599 H586 0.930 . S
C599 C598 1.388 . S
C599 C600 1.390 . S
C600 C599 1.390 . S
C600 C601 1.394 . S
C600 C606 1.465 . S
C601 C596 1.399 . S
C601 C600 1.394 . S
C601 C602 1.516 . S
C602 C601 1.516 . S
C602 C603 1.502 . S
C602 C604 1.561 . S
C602 C605 1.526 . S
C603 H587 0.959 . S
C603 H588 0.959 . S
C603 H589 0.961 . S
C603 C602 1.502 . S
C604 H590 0.960 . S
C604 H591 0.961 . S
C604 H592 0.959 . S
C604 C602 1.561 . S
C605 C602 1.526 . S
C605 C606 1.396 . S
C605 C610 1.390 . S
C606 C600 1.465 . S
C606 C605 1.396 . S
C606 C607 1.399 . S
C607 H593 0.929 . S
C607 C606 1.399 . S
C607 C608 1.385 . S
C608 H594 0.931 1_565 S
C608 C607 1.385 . S
C608 C609 1.389 . S
C609 C608 1.389 . S
C609 C610 1.387 . S
C610 H595 0.930 . S
C610 C605 1.390 . S
C610 C609 1.387 . S
H611 C623 0.930 . S
H612 C625 0.930 . S
H613 C626 0.930 . S
H614 C630 0.959 . S
H615 C630 0.959 . S
H616 C630 0.961 . S
H617 C631 0.960 . S
H618 C631 0.961 . S
H619 C631 0.959 . S
H620 C634 0.929 . S
H621 C635 0.931 . S
H622 C637 0.930 . S
C623 H611 0.930 . S
C623 C624 1.399 . S
C623 C628 1.399 . S
C624 C623 1.399 . S
C624 C625 1.376 . S
C625 H612 0.930 . S
C625 C624 1.376 . S
C625 C626 1.388 . S
C626 H613 0.930 . S
C626 C625 1.388 . S
C626 C627 1.390 . S
C627 C626 1.390 . S
C627 C628 1.394 . S
C627 C633 1.465 . S
C628 C623 1.399 . S
C628 C627 1.394 . S
C628 C629 1.516 . S
C629 C628 1.516 . S
C629 C630 1.502 . S
C629 C631 1.561 . S
C629 C632 1.526 . S
C630 H614 0.959 . S
C630 H615 0.959 . S
C630 H616 0.961 . S
C630 C629 1.502 . S
C631 H617 0.960 . S
C631 H618 0.961 . S
C631 H619 0.959 . S
C631 C629 1.561 . S
C632 C629 1.526 . S
C632 C633 1.396 . S
C632 C637 1.390 . S
C633 C627 1.465 . S
C633 C632 1.396 . S
C633 C634 1.399 . S
C634 H620 0.929 . S
C634 C633 1.399 . S
C634 C635 1.385 . S
C635 H621 0.931 . S
C635 C634 1.385 . S
C635 C636 1.389 . S
C636 C635 1.389 . S
C636 C637 1.387 . S
C637 H622 0.930 . S
C637 C632 1.390 . S
C637 C636 1.387 . S
H638 C650 0.930 . S
H639 C652 0.930 1_565 S
H640 C653 0.930 . S
H641 C657 0.959 . S
H642 C657 0.959 . S
H643 C657 0.961 . S
H644 C658 0.960 . S
H645 C658 0.961 . S
H646 C658 0.959 . S
H647 C661 0.929 . S
H648 C662 0.931 . S
H649 C664 0.930 . S
C650 H638 0.930 . S
C650 C651 1.399 . S
C650 C655 1.399 . S
C651 C650 1.399 . S
C651 C652 1.376 . S
C652 H639 0.930 1_545 S
C652 C651 1.376 . S
C652 C653 1.388 . S
C653 H640 0.930 . S
C653 C652 1.388 . S
C653 C654 1.390 . S
C654 C653 1.390 . S
C654 C655 1.394 . S
C654 C660 1.465 . S
C655 C650 1.399 . S
C655 C654 1.394 . S
C655 C656 1.516 . S
C656 C655 1.516 . S
C656 C657 1.502 . S
C656 C658 1.561 . S
C656 C659 1.526 . S
C657 H641 0.959 . S
C657 H642 0.959 . S
C657 H643 0.961 . S
C657 C656 1.502 . S
C658 H644 0.960 . S
C658 H645 0.961 . S
C658 H646 0.959 . S
C658 C656 1.561 . S
C659 C656 1.526 . S
C659 C660 1.396 . S
C659 C664 1.390 . S
C660 C654 1.465 . S
C660 C659 1.396 . S
C660 C661 1.399 . S
C661 H647 0.929 . S
C661 C660 1.399 . S
C661 C662 1.385 . S
C662 H648 0.931 . S
C662 C661 1.385 . S
C662 C663 1.389 . S
C663 C662 1.389 . S
C663 C664 1.387 . S
C664 H649 0.930 . S
C664 C659 1.390 . S
C664 C663 1.387 . S
H665 C677 0.930 . S
H666 C679 0.930 . S
H667 C680 0.930 . S
H668 C684 0.959 . S
H669 C684 0.959 . S
H670 C684 0.961 . S
H671 C685 0.975 . S
H672 C685 0.961 . S
H673 C685 0.959 . S
H674 C688 0.929 . S
H675 C689 0.931 . S
H676 C691 0.930 . S
C677 H665 0.930 . S
C677 C678 1.399 . S
C677 C682 1.399 . S
C678 C677 1.399 . S
C678 C679 1.376 . S
C679 H666 0.930 . S
C679 C678 1.376 . S
C679 C680 1.388 . S
C680 H667 0.930 . S
C680 C679 1.388 . S
C680 C681 1.390 . S
C681 C680 1.390 . S
C681 C682 1.394 . S
C681 C687 1.465 . S
C682 C677 1.399 . S
C682 C681 1.394 . S
C682 C683 1.516 . S
C683 C682 1.516 . S
C683 C684 1.502 . S
C683 C685 1.561 . S
C683 C686 1.526 . S
C684 H668 0.959 . S
C684 H669 0.959 . S
C684 H670 0.961 . S
C684 C683 1.502 . S
C685 H671 0.975 . S
C685 H672 0.961 . S
C685 H673 0.959 . S
C685 C683 1.561 . S
C686 C683 1.526 . S
C686 C687 1.396 . S
C686 C691 1.390 . S
C687 C681 1.465 . S
C687 C686 1.396 . S
C687 C688 1.399 . S
C688 H674 0.929 . S
C688 C687 1.399 . S
C688 C689 1.385 . S
C689 H675 0.931 . S
C689 C688 1.385 . S
C689 C690 1.389 . S
C690 C689 1.389 . S
C690 C691 1.387 . S
C691 H676 0.930 . S
C691 C686 1.390 . S
C691 C690 1.387 . S
H692 C704 0.930 . S
H693 C706 0.930 . S
H694 C707 0.930 . S
H695 C711 0.959 . S
H696 C711 0.959 . S
H697 C711 0.961 . S
H698 C712 0.960 . S
H699 C712 0.961 . S
H700 C712 0.959 . S
H701 C715 0.929 . S
H702 C716 0.931 . S
H703 C718 0.930 . S
C704 H692 0.930 . S
C704 C705 1.399 . S
C704 C709 1.399 . S
C705 C704 1.399 . S
C705 C706 1.376 . S
C706 H693 0.930 . S
C706 C705 1.376 . S
C706 C707 1.388 . S
C707 H694 0.930 . S
C707 C706 1.388 . S
C707 C708 1.390 . S
C708 C707 1.390 . S
C708 C709 1.394 . S
C708 C714 1.465 . S
C709 C704 1.399 . S
C709 C708 1.394 . S
C709 C710 1.516 . S
C710 C709 1.516 . S
C710 C711 1.502 . S
C710 C712 1.561 . S
C710 C713 1.526 . S
C711 H695 0.959 . S
C711 H696 0.959 . S
C711 H697 0.961 . S
C711 C710 1.502 . S
C712 H698 0.960 . S
C712 H699 0.961 . S
C712 H700 0.959 . S
C712 C710 1.561 . S
C713 C710 1.526 . S
C713 C714 1.396 . S
C713 C718 1.390 . S
C714 C708 1.465 . S
C714 C713 1.396 . S
C714 C715 1.399 . S
C715 H701 0.929 . S
C715 C714 1.399 . S
C715 C716 1.385 . S
C716 H702 0.931 . S
C716 C715 1.385 . S
C716 C717 1.389 . S
C717 C716 1.389 . S
C717 C718 1.387 . S
C718 H703 0.930 . S
C718 C713 1.390 . S
C718 C717 1.387 . S
H719 C731 0.930 . S
H720 C733 0.930 . S
H721 C734 0.930 . S
H722 C738 0.959 . S
H723 C738 0.959 . S
H724 C738 0.961 . S
H725 C739 0.960 . S
H726 C739 0.961 . S
H727 C739 0.959 . S
H728 C742 0.929 . S
H729 C743 0.931 . S
H730 C745 0.930 . S
C731 H719 0.930 . S
C731 C732 1.399 . S
C731 C736 1.399 . S
C732 C731 1.399 . S
C732 C733 1.376 . S
C733 H720 0.930 . S
C733 C732 1.376 . S
C733 C734 1.388 . S
C734 H721 0.930 . S
C734 C733 1.388 . S
C734 C735 1.390 . S
C735 C734 1.390 . S
C735 C736 1.394 . S
C735 C741 1.465 . S
C736 C731 1.399 . S
C736 C735 1.394 . S
C736 C737 1.516 . S
C737 C736 1.516 . S
C737 C738 1.502 . S
C737 C739 1.561 . S
C737 C740 1.526 . S
C738 H722 0.959 . S
C738 H723 0.959 . S
C738 H724 0.961 . S
C738 C737 1.502 . S
C739 H725 0.960 . S
C739 H726 0.961 . S
C739 H727 0.959 . S
C739 C737 1.561 . S
C740 C737 1.526 . S
C740 C741 1.396 . S
C740 C745 1.390 . S
C741 C735 1.465 . S
C741 C740 1.396 . S
C741 C742 1.399 . S
C742 H728 0.929 . S
C742 C741 1.399 . S
C742 C743 1.385 . S
C743 H729 0.931 . S
C743 C742 1.385 . S
C743 C744 1.389 . S
C744 C743 1.389 . S
C744 C745 1.387 . S
C745 H730 0.930 . S
C745 C740 1.390 . S
C745 C744 1.387 . S
H746 C758 0.930 . S
H747 C760 0.930 . S
H748 C761 0.930 . S
H749 C765 0.959 . S
H750 C765 0.959 . S
H751 C765 0.961 . S
H752 C766 0.960 . S
H753 C766 0.961 . S
H754 C766 0.959 . S
H755 C769 0.929 . S
H756 C770 0.931 . S
H757 C772 0.930 . S
C758 H746 0.930 . S
C758 C759 1.399 . S
C758 C763 1.399 . S
C759 C758 1.399 . S
C759 C760 1.376 . S
C760 H747 0.930 . S
C760 C759 1.376 . S
C760 C761 1.388 . S
C761 H748 0.930 . S
C761 C760 1.388 . S
C761 C762 1.390 . S
C762 C761 1.390 . S
C762 C763 1.394 . S
C762 C768 1.465 . S
C763 C758 1.399 . S
C763 C762 1.394 . S
C763 C764 1.516 . S
C764 C763 1.516 . S
C764 C765 1.502 . S
C764 C766 1.561 . S
C764 C767 1.526 . S
C765 H749 0.959 . S
C765 H750 0.959 . S
C765 H751 0.961 . S
C765 C764 1.502 . S
C766 H752 0.960 . S
C766 H753 0.961 . S
C766 H754 0.959 . S
C766 C764 1.561 . S
C767 C764 1.526 . S
C767 C768 1.396 . S
C767 C772 1.390 . S
C768 C762 1.465 . S
C768 C767 1.396 . S
C768 C769 1.399 . S
C769 H755 0.929 . S
C769 C768 1.399 . S
C769 C770 1.385 . S
C770 H756 0.931 . S
C770 C769 1.385 . S
C770 C771 1.389 . S
C771 C770 1.389 . S
C771 C772 1.387 . S
C772 H757 0.930 . S
C772 C767 1.390 . S
C772 C771 1.387 . S
H773 C785 0.930 . S
H774 C787 0.930 . S
H775 C788 0.930 . S
H776 C792 0.959 . S
H777 C792 0.959 . S
H778 C792 0.961 . S
H779 C793 0.960 . S
H780 C793 0.961 . S
H781 C793 0.959 . S
H782 C796 0.929 . S
H783 C797 0.931 . S
H784 C799 0.930 . S
C785 H773 0.930 . S
C785 C786 1.399 . S
C785 C790 1.399 . S
C786 C785 1.399 . S
C786 C787 1.376 . S
C787 H774 0.930 . S
C787 C786 1.376 . S
C787 C788 1.388 . S
C788 H775 0.930 . S
C788 C787 1.388 . S
C788 C789 1.390 . S
C789 C788 1.390 . S
C789 C790 1.394 . S
C789 C795 1.465 . S
C790 C785 1.399 . S
C790 C789 1.394 . S
C790 C791 1.516 . S
C791 C790 1.516 . S
C791 C792 1.502 . S
C791 C793 1.561 . S
C791 C794 1.526 . S
C792 H776 0.959 . S
C792 H777 0.959 . S
C792 H778 0.961 . S
C792 C791 1.502 . S
C793 H779 0.960 . S
C793 H780 0.961 . S
C793 H781 0.959 . S
C793 C791 1.561 . S
C794 C791 1.526 . S
C794 C795 1.396 . S
C794 C799 1.390 . S
C795 C789 1.465 . S
C795 C794 1.396 . S
C795 C796 1.399 . S
C796 H782 0.929 . S
C796 C795 1.399 . S
C796 C797 1.385 . S
C797 H783 0.931 . S
C797 C796 1.385 . S
C797 C798 1.389 . S
C798 C797 1.389 . S
C798 C799 1.387 . S
C799 H784 0.930 . S
C799 C794 1.390 . S
C799 C798 1.387 . S
H800 C812 0.930 . S
H801 C814 0.930 . S
H802 C815 0.930 . S
H803 C819 0.959 . S
H804 C819 0.959 . S
H805 C819 0.961 . S
H806 C820 0.960 . S
H807 C820 0.961 . S
H808 C820 0.959 . S
H809 C823 0.929 . S
H810 C824 0.931 . S
H811 C826 0.930 . S
C812 H800 0.930 . S
C812 C813 1.399 . S
C812 C817 1.399 . S
C813 C812 1.399 . S
C813 C814 1.376 . S
C814 H801 0.930 . S
C814 C813 1.376 . S
C814 C815 1.388 . S
C815 H802 0.930 . S
C815 C814 1.388 . S
C815 C816 1.390 . S
C816 C815 1.390 . S
C816 C817 1.394 . S
C816 C822 1.465 . S
C817 C812 1.399 . S
C817 C816 1.394 . S
C817 C818 1.516 . S
C818 C817 1.516 . S
C818 C819 1.502 . S
C818 C820 1.561 . S
C818 C821 1.526 . S
C819 H803 0.959 . S
C819 H804 0.959 . S
C819 H805 0.961 . S
C819 C818 1.502 . S
C820 H806 0.960 . S
C820 H807 0.961 . S
C820 H808 0.959 . S
C820 C818 1.561 . S
C821 C818 1.526 . S
C821 C822 1.396 . S
C821 C826 1.390 . S
C822 C816 1.465 . S
C822 C821 1.396 . S
C822 C823 1.399 . S
C823 H809 0.929 . S
C823 C822 1.399 . S
C823 C824 1.385 . S
C824 H810 0.931 . S
C824 C823 1.385 . S
C824 C825 1.389 . S
C825 C824 1.389 . S
C825 C826 1.387 . S
C826 H811 0.930 . S
C826 C821 1.390 . S
C826 C825 1.387 . S
H827 C839 0.930 . S
H828 C841 0.930 . S
H829 C842 0.930 . S
H830 C846 0.959 . S
H831 C846 0.959 . S
H832 C846 0.961 . S
H833 C847 0.960 . S
H834 C847 0.961 . S
H835 C847 0.959 . S
H836 C850 0.929 . S
H837 C851 0.931 . S
H838 C853 0.930 . S
C839 H827 0.930 . S
C839 C840 1.399 . S
C839 C844 1.399 . S
C840 C839 1.399 . S
C840 C841 1.376 . S
C841 H828 0.930 . S
C841 C840 1.376 . S
C841 C842 1.388 . S
C842 H829 0.930 . S
C842 C841 1.388 . S
C842 C843 1.390 . S
C843 C842 1.390 . S
C843 C844 1.394 . S
C843 C849 1.465 . S
C844 C839 1.399 . S
C844 C843 1.394 . S
C844 C845 1.516 . S
C845 C844 1.516 . S
C845 C846 1.502 . S
C845 C847 1.561 . S
C845 C848 1.526 . S
C846 H830 0.959 . S
C846 H831 0.959 . S
C846 H832 0.961 . S
C846 C845 1.502 . S
C847 H833 0.960 . S
C847 H834 0.961 . S
C847 H835 0.959 . S
C847 C845 1.561 . S
C848 C845 1.526 . S
C848 C849 1.396 . S
C848 C853 1.390 . S
C849 C843 1.465 . S
C849 C848 1.396 . S
C849 C850 1.399 . S
C850 H836 0.929 . S
C850 C849 1.399 . S
C850 C851 1.385 . S
C851 H837 0.931 . S
C851 C850 1.385 . S
C851 C852 1.389 . S
C852 C851 1.389 . S
C852 C853 1.387 . S
C853 H838 0.930 . S
C853 C848 1.390 . S
C853 C852 1.387 . S
H854 C866 0.930 . S
H855 C868 0.930 . S
H856 C869 0.930 . S
H857 C873 0.959 . S
H858 C873 0.959 . S
H859 C873 0.961 . S
H860 C874 0.960 . S
H861 C874 0.961 . S
H862 C874 0.959 . S
H863 C877 0.929 . S
H864 C878 0.931 . S
H865 C880 0.930 . S
C866 H854 0.930 . S
C866 C867 1.399 . S
C866 C871 1.399 . S
C867 C866 1.399 . S
C867 C868 1.376 . S
C868 H855 0.930 . S
C868 C867 1.376 . S
C868 C869 1.388 . S
C869 H856 0.930 . S
C869 C868 1.388 . S
C869 C870 1.390 . S
C870 C869 1.390 . S
C870 C871 1.394 . S
C870 C876 1.465 . S
C871 C866 1.399 . S
C871 C870 1.394 . S
C871 C872 1.516 . S
C872 C871 1.516 . S
C872 C873 1.502 . S
C872 C874 1.561 . S
C872 C875 1.526 . S
C873 H857 0.959 . S
C873 H858 0.959 . S
C873 H859 0.961 . S
C873 C872 1.502 . S
C874 H860 0.960 . S
C874 H861 0.961 . S
C874 H862 0.959 . S
C874 C872 1.561 . S
C875 C872 1.526 . S
C875 C876 1.396 . S
C875 C880 1.390 . S
C876 C870 1.465 . S
C876 C875 1.396 . S
C876 C877 1.399 . S
C877 H863 0.929 . S
C877 C876 1.399 . S
C877 C878 1.385 . S
C878 H864 0.931 . S
C878 C877 1.385 . S
C878 C879 1.389 . S
C879 C878 1.389 . S
C879 C880 1.387 . S
C880 H865 0.930 . S
C880 C875 1.390 . S
C880 C879 1.387 . S
H881 C893 0.930 . S
H882 C895 0.930 . S
H883 C896 0.930 . S
H884 C900 0.959 . S
H885 C900 0.959 . S
H886 C900 0.961 . S
H887 C901 0.960 . S
H888 C901 0.961 . S
H889 C901 0.959 . S
H890 C904 0.929 . S
H891 C905 0.931 . S
H892 C907 0.930 . S
C893 H881 0.930 . S
C893 C894 1.399 . S
C893 C898 1.399 . S
C894 C893 1.399 . S
C894 C895 1.376 . S
C895 H882 0.930 . S
C895 C894 1.376 . S
C895 C896 1.388 . S
C896 H883 0.930 . S
C896 C895 1.388 . S
C896 C897 1.390 . S
C897 C896 1.390 . S
C897 C898 1.394 . S
C897 C903 1.465 . S
C898 C893 1.399 . S
C898 C897 1.394 . S
C898 C899 1.516 . S
C899 C898 1.516 . S
C899 C900 1.502 . S
C899 C901 1.561 . S
C899 C902 1.526 . S
C900 H884 0.959 . S
C900 H885 0.959 . S
C900 H886 0.961 . S
C900 C899 1.502 . S
C901 H887 0.960 . S
C901 H888 0.961 . S
C901 H889 0.959 . S
C901 C899 1.561 . S
C902 C899 1.526 . S
C902 C903 1.396 . S
C902 C907 1.390 . S
C903 C897 1.465 . S
C903 C902 1.396 . S
C903 C904 1.399 . S
C904 H890 0.929 . S
C904 C903 1.399 . S
C904 C905 1.385 . S
C905 H891 0.931 . S
C905 C904 1.385 . S
C905 C906 1.389 . S
C906 C905 1.389 . S
C906 C907 1.387 . S
C907 H892 0.930 . S
C907 C902 1.390 . S
C907 C906 1.387 . S
H908 C920 0.930 . S
H909 C922 0.930 . S
H910 C923 0.930 . S
H911 C927 0.959 . S
H912 C927 0.959 . S
H913 C927 0.961 . S
H914 C928 0.960 . S
H915 C928 0.961 . S
H916 C928 0.959 . S
H917 C931 0.929 . S
H918 C932 0.931 . S
H919 C934 0.930 . S
C920 H908 0.930 . S
C920 C921 1.399 . S
C920 C925 1.399 . S
C921 C920 1.399 . S
C921 C922 1.376 . S
C922 H909 0.930 . S
C922 C921 1.376 . S
C922 C923 1.388 . S
C923 H910 0.930 . S
C923 C922 1.388 . S
C923 C924 1.390 . S
C924 C923 1.390 . S
C924 C925 1.394 . S
C924 C930 1.465 . S
C925 C920 1.399 . S
C925 C924 1.394 . S
C925 C926 1.516 . S
C926 C925 1.516 . S
C926 C927 1.502 . S
C926 C928 1.561 . S
C926 C929 1.526 . S
C927 H911 0.959 . S
C927 H912 0.959 . S
C927 H913 0.961 . S
C927 C926 1.502 . S
C928 H914 0.960 . S
C928 H915 0.961 . S
C928 H916 0.959 . S
C928 C926 1.561 . S
C929 C926 1.526 . S
C929 C930 1.396 . S
C929 C934 1.390 . S
C930 C924 1.465 . S
C930 C929 1.396 . S
C930 C931 1.399 . S
C931 H917 0.929 . S
C931 C930 1.399 . S
C931 C932 1.385 . S
C932 H918 0.931 . S
C932 C931 1.385 . S
C932 C933 1.389 . S
C933 C932 1.389 . S
C933 C934 1.387 . S
C934 H919 0.930 . S
C934 C929 1.390 . S
C934 C933 1.387 . S
H935 C947 0.930 . S
H936 C949 0.930 . S
H937 C950 0.930 . S
H938 C954 0.959 . S
H939 C954 0.959 . S
H940 C954 0.961 . S
H941 C955 0.960 . S
H942 C955 0.961 . S
H943 C955 0.959 . S
H944 C958 0.929 . S
H945 C959 0.931 . S
H946 C961 0.930 . S
C947 H935 0.930 . S
C947 C948 1.399 . S
C947 C952 1.399 . S
C948 C947 1.399 . S
C948 C949 1.376 . S
C949 H936 0.930 . S
C949 C948 1.376 . S
C949 C950 1.388 . S
C950 H937 0.930 . S
C950 C949 1.388 . S
C950 C951 1.390 . S
C951 C950 1.390 . S
C951 C952 1.394 . S
C951 C957 1.465 . S
C952 C947 1.399 . S
C952 C951 1.394 . S
C952 C953 1.516 . S
C953 C952 1.516 . S
C953 C954 1.502 . S
C953 C955 1.561 . S
C953 C956 1.526 . S
C954 H938 0.959 . S
C954 H939 0.959 . S
C954 H940 0.961 . S
C954 C953 1.502 . S
C955 H941 0.960 . S
C955 H942 0.961 . S
C955 H943 0.959 . S
C955 C953 1.561 . S
C956 C953 1.526 . S
C956 C957 1.396 . S
C956 C961 1.390 . S
C957 C951 1.465 . S
C957 C956 1.396 . S
C957 C958 1.399 . S
C958 H944 0.929 . S
C958 C957 1.399 . S
C958 C959 1.385 . S
C959 H945 0.931 . S
C959 C958 1.385 . S
C959 C960 1.389 . S
C960 C959 1.389 . S
C960 C961 1.387 . S
C961 H946 0.930 . S
C961 C956 1.390 . S
C961 C960 1.387 . S
H962 C974 0.930 . S
H963 C976 0.930 . S
H964 C977 0.930 . S
H965 C981 0.959 . S
H966 C981 0.959 . S
H967 C981 0.961 . S
H968 C982 0.960 . S
H969 C982 0.961 . S
H970 C982 0.959 . S
H971 C985 0.929 . S
H972 C986 0.931 . S
H973 C988 0.930 . S
C974 H962 0.930 . S
C974 C975 1.399 . S
C974 C979 1.399 . S
C975 C974 1.399 . S
C975 C976 1.376 . S
C976 H963 0.930 . S
C976 C975 1.376 . S
C976 C977 1.388 . S
C977 H964 0.930 . S
C977 C976 1.388 . S
C977 C978 1.390 . S
C978 C977 1.390 . S
C978 C979 1.394 . S
C978 C984 1.465 . S
C979 C974 1.399 . S
C979 C978 1.394 . S
C979 C980 1.516 . S
C980 C979 1.516 . S
C980 C981 1.502 . S
C980 C982 1.561 . S
C980 C983 1.526 . S
C981 H965 0.959 . S
C981 H966 0.959 . S
C981 H967 0.961 . S
C981 C980 1.502 . S
C982 H968 0.960 . S
C982 H969 0.961 . S
C982 H970 0.959 . S
C982 C980 1.561 . S
C983 C980 1.526 . S
C983 C984 1.396 . S
C983 C988 1.390 . S
C984 C978 1.465 . S
C984 C983 1.396 . S
C984 C985 1.399 . S
C985 H971 0.929 . S
C985 C984 1.399 . S
C985 C986 1.385 . S
C986 H972 0.931 . S
C986 C985 1.385 . S
C986 C987 1.389 . S
C987 C986 1.389 . S
C987 C988 1.387 . S
C988 H973 0.930 . S
C988 C983 1.390 . S
C988 C987 1.387 . S
H989 C1001 0.930 . S
H990 C1003 0.930 . S
H991 C1004 0.930 . S
H992 C1008 0.959 . S
H993 C1008 0.959 . S
H994 C1008 0.961 . S
H995 C1009 0.960 . S
H996 C1009 0.961 . S
H997 C1009 0.959 . S
H998 C1012 0.929 . S
H999 C1013 0.931 . S
H1000 C1015 0.930 . S
C1001 H989 0.930 . S
C1001 C1002 1.399 . S
C1001 C1006 1.399 . S
C1002 C1001 1.399 . S
C1002 C1003 1.376 . S
C1003 H990 0.930 . S
C1003 C1002 1.376 . S
C1003 C1004 1.388 . S
C1004 H991 0.930 . S
C1004 C1003 1.388 . S
C1004 C1005 1.390 . S
C1005 C1004 1.390 . S
C1005 C1006 1.394 . S
C1005 C1011 1.465 . S
C1006 C1001 1.399 . S
C1006 C1005 1.394 . S
C1006 C1007 1.516 . S
C1007 C1006 1.516 . S
C1007 C1008 1.502 . S
C1007 C1009 1.561 . S
C1007 C1010 1.526 . S
C1008 H992 0.959 . S
C1008 H993 0.959 . S
C1008 H994 0.961 . S
C1008 C1007 1.502 . S
C1009 H995 0.960 . S
C1009 H996 0.961 . S
C1009 H997 0.959 . S
C1009 C1007 1.561 . S
C1010 C1007 1.526 . S
C1010 C1011 1.396 . S
C1010 C1015 1.390 . S
C1011 C1005 1.465 . S
C1011 C1010 1.396 . S
C1011 C1012 1.399 . S
C1012 H998 0.929 . S
C1012 C1011 1.399 . S
C1012 C1013 1.385 . S
C1013 H999 0.931 . S
C1013 C1012 1.385 . S
C1013 C1014 1.389 . S
C1014 C1013 1.389 . S
C1014 C1015 1.387 . S
C1015 H1000 0.930 . S
C1015 C1010 1.390 . S
C1015 C1014 1.387 . S
H1016 C1028 0.930 1_455 S
H1017 C1030 0.930 . S
H1018 C1031 0.930 1_545 S
H1019 C1035 0.959 . S
H1020 C1035 0.959 . S
H1021 C1035 0.961 . S
H1022 C1036 0.960 . S
H1023 C1036 0.961 . S
H1024 C1036 0.959 . S
H1025 C1039 0.929 . S
H1026 C1040 0.931 1_655 S
H1027 C1042 0.930 . S
C1028 H1016 0.930 1_655 S
C1028 C1029 1.399 . S
C1028 C1033 1.398 1_655 S
C1029 C1028 1.399 . S
C1029 C1030 1.376 . S
C1030 H1017 0.930 . S
C1030 C1029 1.376 . S
C1030 C1031 1.388 . S
C1031 H1018 0.930 1_565 S
C1031 C1030 1.388 . S
C1031 C1032 1.390 . S
C1032 C1031 1.390 . S
C1032 C1033 1.391 1_655 S
C1032 C1038 1.465 1_565 S
C1033 C1028 1.398 1_455 S
C1033 C1032 1.391 1_455 S
C1033 C1034 1.520 . S
C1034 C1033 1.520 . S
C1034 C1035 1.502 . S
C1034 C1036 1.561 . S
C1034 C1037 1.526 1_565 S
C1035 H1019 0.959 . S
C1035 H1020 0.959 . S
C1035 H1021 0.961 . S
C1035 C1034 1.502 . S
C1036 H1022 0.960 . S
C1036 H1023 0.961 . S
C1036 H1024 0.959 . S
C1036 C1034 1.561 . S
C1037 C1034 1.526 1_545 S
C1037 C1038 1.396 1_455 S
C1037 C1042 1.390 . S
C1038 C1032 1.465 1_545 S
C1038 C1037 1.396 1_655 S
C1038 C1039 1.399 . S
C1039 H1025 0.929 . S
C1039 C1038 1.399 . S
C1039 C1040 1.385 1_655 S
C1040 H1026 0.931 1_455 S
C1040 C1039 1.385 1_455 S
C1040 C1041 1.389 . S
C1041 C1040 1.389 . S
C1041 C1042 1.387 . S
C1042 H1027 0.930 . S
C1042 C1037 1.390 . S
C1042 C1041 1.387 . S
H1043 C1055 0.930 . S
H1044 C1057 0.930 . S
H1045 C1058 0.930 . S
H1046 C1062 0.959 . S
H1047 C1062 0.959 . S
H1048 C1062 0.961 1_655 S
H1049 C1063 0.967 1_545 S
H1050 C1063 0.952 1_445 S
H1051 C1063 0.959 . S
H1052 C1066 0.929 . S
H1053 C1067 0.931 . S
H1054 C1069 0.930 . S
C1055 H1043 0.930 . S
C1055 C1056 1.399 . S
C1055 C1060 1.399 . S
C1056 C1055 1.399 . S
C1056 C1057 1.376 1_545 S
C1057 H1044 0.930 . S
C1057 C1056 1.376 1_565 S
C1057 C1058 1.388 . S
C1058 H1045 0.930 . S
C1058 C1057 1.388 . S
C1058 C1059 1.390 . S
C1059 C1058 1.390 . S
C1059 C1060 1.394 1_565 S
C1059 C1065 1.465 1_655 S
C1060 C1055 1.399 . S
C1060 C1059 1.394 1_545 S
C1060 C1061 1.516 1_655 S
C1061 C1060 1.516 1_455 S
C1061 C1062 1.502 . S
C1061 C1063 1.561 1_445 S
C1061 C1064 1.526 . S
C1062 H1046 0.959 . S
C1062 H1047 0.959 . S
C1062 H1048 0.961 1_455 S
C1062 C1061 1.502 . S
C1063 H1049 0.967 1_565 S
C1063 H1050 0.952 1_665 S
C1063 H1051 0.959 . S
C1063 C1061 1.561 1_665 S
C1064 C1061 1.526 . S
C1064 C1065 1.396 1_545 S
C1064 C1069 1.390 . S
C1065 C1059 1.465 1_455 S
C1065 C1064 1.396 1_565 S
C1065 C1066 1.399 . S
C1066 H1052 0.929 . S
C1066 C1065 1.399 . S
C1066 C1067 1.385 . S
C1067 H1053 0.931 . S
C1067 C1066 1.385 . S
C1067 C1068 1.389 . S
C1068 C1067 1.389 . S
C1068 C1069 1.387 1_565 S
C1069 H1054 0.930 . S
C1069 C1064 1.390 . S
C1069 C1068 1.387 1_545 S
H1070 C1082 0.930 . S
H1071 C1084 0.930 . S
H1072 C1085 0.930 . S
H1073 C1089 0.959 . S
H1074 C1089 0.959 . S
H1075 C1089 0.961 . S
H1076 C1090 0.960 . S
H1077 C1090 0.961 . S
H1078 C1090 0.959 . S
H1079 C1093 0.929 1_455 S
H1080 C1094 0.931 . S
H1081 C1096 0.930 . S
C1082 H1070 0.930 . S
C1082 C1083 1.399 . S
C1082 C1087 1.399 . S
C1083 C1082 1.399 . S
C1083 C1084 1.376 . S
C1084 H1071 0.930 . S
C1084 C1083 1.376 . S
C1084 C1085 1.388 . S
C1085 H1072 0.930 . S
C1085 C1084 1.388 . S
C1085 C1086 1.390 . S
C1086 C1085 1.390 . S
C1086 C1087 1.394 . S
C1086 C1092 1.465 1_455 S
C1087 C1082 1.399 . S
C1087 C1086 1.394 . S
C1087 C1088 1.516 1_455 S
C1088 C1087 1.516 1_655 S
C1088 C1089 1.502 . S
C1088 C1090 1.561 1_655 S
C1088 C1091 1.526 . S
C1089 H1073 0.959 . S
C1089 H1074 0.959 . S
C1089 H1075 0.961 . S
C1089 C1088 1.502 . S
C1090 H1076 0.960 . S
C1090 H1077 0.961 . S
C1090 H1078 0.959 . S
C1090 C1088 1.561 1_455 S
C1091 C1088 1.526 . S
C1091 C1092 1.396 . S
C1091 C1096 1.390 . S
C1092 C1086 1.465 1_655 S
C1092 C1091 1.396 . S
C1092 C1093 1.399 . S
C1093 H1079 0.929 1_655 S
C1093 C1092 1.399 . S
C1093 C1094 1.385 . S
C1094 H1080 0.931 . S
C1094 C1093 1.385 . S
C1094 C1095 1.389 . S
C1095 C1094 1.389 . S
C1095 C1096 1.387 . S
C1096 H1081 0.930 . S
C1096 C1091 1.390 . S
C1096 C1095 1.387 . S
H1097 C1109 0.930 . S
H1098 C1111 0.930 . S
H1099 C1112 0.930 . S
H1100 C1116 0.959 . S
H1101 C1116 0.959 . S
H1102 C1116 0.961 . S
H1103 C1117 0.960 . S
H1104 C1117 0.961 . S
H1105 C1117 0.959 . S
H1106 C1120 0.929 . S
H1107 C1121 0.931 . S
H1108 C1123 0.930 1_565 S
C1109 H1097 0.930 . S
C1109 C1110 1.399 . S
C1109 C1114 1.399 . S
C1110 C1109 1.399 . S
C1110 C1111 1.376 1_565 S
C1111 H1098 0.930 . S
C1111 C1110 1.376 1_545 S
C1111 C1112 1.388 . S
C1112 H1099 0.930 . S
C1112 C1111 1.388 . S
C1112 C1113 1.390 . S
C1113 C1112 1.390 . S
C1113 C1114 1.394 1_545 S
C1113 C1119 1.465 . S
C1114 C1109 1.399 . S
C1114 C1113 1.394 1_565 S
C1114 C1115 1.516 . S
C1115 C1114 1.516 . S
C1115 C1116 1.502 . S
C1115 C1117 1.561 1_565 S
C1115 C1118 1.526 1_565 S
C1116 H1100 0.959 . S
C1116 H1101 0.959 . S
C1116 H1102 0.961 . S
C1116 C1115 1.502 . S
C1117 H1103 0.960 . S
C1117 H1104 0.961 . S
C1117 H1105 0.959 . S
C1117 C1115 1.561 1_545 S
C1118 C1115 1.526 1_545 S
C1118 C1119 1.396 . S
C1118 C1123 1.390 . S
C1119 C1113 1.465 . S
C1119 C1118 1.396 . S
C1119 C1120 1.399 . S
C1120 H1106 0.929 . S
C1120 C1119 1.399 . S
C1120 C1121 1.385 . S
C1121 H1107 0.931 . S
C1121 C1120 1.385 . S
C1121 C1122 1.389 . S
C1122 C1121 1.389 . S
C1122 C1123 1.387 . S
C1123 H1108 0.930 1_545 S
C1123 C1118 1.390 . S
C1123 C1122 1.387 . S
H1124 C1136 0.930 . S
H1125 C1138 0.930 . S
H1126 C1139 0.930 . S
H1127 C1143 0.959 . S
H1128 C1143 0.959 . S
H1129 C1143 0.961 . S
H1130 C1144 0.960 . S
H1131 C1144 0.961 . S
H1132 C1144 0.959 . S
H1133 C1147 0.929 . S
H1134 C1148 0.931 . S
H1135 C1150 0.930 . S
C1136 H1124 0.930 . S
C1136 C1137 1.399 . S
C1136 C1141 1.399 . S
C1137 C1136 1.399 . S
C1137 C1138 1.376 . S
C1138 H1125 0.930 . S
C1138 C1137 1.376 . S
C1138 C1139 1.388 . S
C1139 H1126 0.930 . S
C1139 C1138 1.388 . S
C1139 C1140 1.390 . S
C1140 C1139 1.390 . S
C1140 C1141 1.394 . S
C1140 C1146 1.465 . S
C1141 C1136 1.399 . S
C1141 C1140 1.394 . S
C1141 C1142 1.516 . S
C1142 C1141 1.516 . S
C1142 C1143 1.502 . S
C1142 C1144 1.561 . S
C1142 C1145 1.526 . S
C1143 H1127 0.959 . S
C1143 H1128 0.959 . S
C1143 H1129 0.961 . S
C1143 C1142 1.502 . S
C1144 H1130 0.960 . S
C1144 H1131 0.961 . S
C1144 H1132 0.959 . S
C1144 C1142 1.561 . S
C1145 C1142 1.526 . S
C1145 C1146 1.396 . S
C1145 C1150 1.390 . S
C1146 C1140 1.465 . S
C1146 C1145 1.396 . S
C1146 C1147 1.399 . S
C1147 H1133 0.929 . S
C1147 C1146 1.399 . S
C1147 C1148 1.385 . S
C1148 H1134 0.931 . S
C1148 C1147 1.385 . S
C1148 C1149 1.389 . S
C1149 C1148 1.389 . S
C1149 C1150 1.387 . S
C1150 H1135 0.930 . S
C1150 C1145 1.390 . S
C1150 C1149 1.387 . S
H1151 C1163 0.930 . S
H1152 C1165 0.930 . S
H1153 C1166 0.930 . S
H1154 C1170 0.959 . S
H1155 C1170 0.959 . S
H1156 C1170 0.961 . S
H1157 C1171 0.960 . S
H1158 C1171 0.961 . S
H1159 C1171 0.959 . S
H1160 C1174 0.929 . S
H1161 C1175 0.931 . S
H1162 C1177 0.930 . S
C1163 H1151 0.930 . S
C1163 C1164 1.399 . S
C1163 C1168 1.399 . S
C1164 C1163 1.399 . S
C1164 C1165 1.376 . S
C1165 H1152 0.930 . S
C1165 C1164 1.376 . S
C1165 C1166 1.388 . S
C1166 H1153 0.930 . S
C1166 C1165 1.388 . S
C1166 C1167 1.390 . S
C1167 C1166 1.390 . S
C1167 C1168 1.394 . S
C1167 C1173 1.465 . S
C1168 C1163 1.399 . S
C1168 C1167 1.394 . S
C1168 C1169 1.516 . S
C1169 C1168 1.516 . S
C1169 C1170 1.502 . S
C1169 C1171 1.561 . S
C1169 C1172 1.526 . S
C1170 H1154 0.959 . S
C1170 H1155 0.959 . S
C1170 H1156 0.961 . S
C1170 C1169 1.502 . S
C1171 H1157 0.960 . S
C1171 H1158 0.961 . S
C1171 H1159 0.959 . S
C1171 C1169 1.561 . S
C1172 C1169 1.526 . S
C1172 C1173 1.396 . S
C1172 C1177 1.390 . S
C1173 C1167 1.465 . S
C1173 C1172 1.396 . S
C1173 C1174 1.399 . S
C1174 H1160 0.929 . S
C1174 C1173 1.399 . S
C1174 C1175 1.385 . S
C1175 H1161 0.931 . S
C1175 C1174 1.385 . S
C1175 C1176 1.389 . S
C1176 C1175 1.389 . S
C1176 C1177 1.387 . S
C1177 H1162 0.930 . S
C1177 C1172 1.390 . S
C1177 C1176 1.387 . S
H1178 C1190 0.930 . S
H1179 C1192 0.930 . S
H1180 C1193 0.930 . S
H1181 C1197 0.959 . S
H1182 C1197 0.959 . S
H1183 C1197 0.961 . S
H1184 C1198 0.960 1_545 S
H1185 C1198 0.961 . S
H1186 C1198 0.959 . S
H1187 C1201 0.929 . S
H1188 C1202 0.931 . S
H1189 C1204 0.930 . S
C1190 H1178 0.930 . S
C1190 C1191 1.399 . S
C1190 C1195 1.399 . S
C1191 C1190 1.399 . S
C1191 C1192 1.376 . S
C1192 H1179 0.930 . S
C1192 C1191 1.376 . S
C1192 C1193 1.388 . S
C1193 H1180 0.930 . S
C1193 C1192 1.388 . S
C1193 C1194 1.390 . S
C1194 C1193 1.390 . S
C1194 C1195 1.394 . S
C1194 C1200 1.465 1_545 S
C1195 C1190 1.399 . S
C1195 C1194 1.394 . S
C1195 C1196 1.516 . S
C1196 C1195 1.516 . S
C1196 C1197 1.502 . S
C1196 C1198 1.561 1_545 S
C1196 C1199 1.526 1_545 S
C1197 H1181 0.959 . S
C1197 H1182 0.959 . S
C1197 H1183 0.961 . S
C1197 C1196 1.502 . S
C1198 H1184 0.960 1_565 S
C1198 H1185 0.961 . S
C1198 H1186 0.959 . S
C1198 C1196 1.561 1_565 S
C1199 C1196 1.526 1_565 S
C1199 C1200 1.396 . S
C1199 C1204 1.390 . S
C1200 C1194 1.465 1_565 S
C1200 C1199 1.396 . S
C1200 C1201 1.399 . S
C1201 H1187 0.929 . S
C1201 C1200 1.399 . S
C1201 C1202 1.385 . S
C1202 H1188 0.931 . S
C1202 C1201 1.385 . S
C1202 C1203 1.389 . S
C1203 C1202 1.389 . S
C1203 C1204 1.387 . S
C1204 H1189 0.930 . S
C1204 C1199 1.390 . S
C1204 C1203 1.387 . S
H1205 C1217 0.930 . S
H1206 C1219 0.930 . S
H1207 C1220 0.930 . S
H1208 C1224 0.959 . S
H1209 C1224 0.959 . S
H1210 C1224 0.961 1_655 S
H1211 C1225 0.960 . S
H1212 C1225 0.961 1_455 S
H1213 C1225 0.959 . S
H1214 C1228 0.929 . S
H1215 C1229 0.931 . S
H1216 C1231 0.930 . S
C1217 H1205 0.930 . S
C1217 C1218 1.399 . S
C1217 C1222 1.399 . S
C1218 C1217 1.399 . S
C1218 C1219 1.376 . S
C1219 H1206 0.930 . S
C1219 C1218 1.376 . S
C1219 C1220 1.388 . S
C1220 H1207 0.930 . S
C1220 C1219 1.388 . S
C1220 C1221 1.390 . S
C1221 C1220 1.390 . S
C1221 C1222 1.394 . S
C1221 C1227 1.465 1_655 S
C1222 C1217 1.399 . S
C1222 C1221 1.394 . S
C1222 C1223 1.516 1_655 S
C1223 C1222 1.516 1_455 S
C1223 C1224 1.502 . S
C1223 C1225 1.561 1_455 S
C1223 C1226 1.526 . S
C1224 H1208 0.959 . S
C1224 H1209 0.959 . S
C1224 H1210 0.961 1_455 S
C1224 C1223 1.502 . S
C1225 H1211 0.960 . S
C1225 H1212 0.961 1_655 S
C1225 H1213 0.959 . S
C1225 C1223 1.561 1_655 S
C1226 C1223 1.526 . S
C1226 C1227 1.396 . S
C1226 C1231 1.390 . S
C1227 C1221 1.465 1_455 S
C1227 C1226 1.396 . S
C1227 C1228 1.399 . S
C1228 H1214 0.929 . S
C1228 C1227 1.399 . S
C1228 C1229 1.385 . S
C1229 H1215 0.931 . S
C1229 C1228 1.385 . S
C1229 C1230 1.389 . S
C1230 C1229 1.389 . S
C1230 C1231 1.387 . S
C1231 H1216 0.930 . S
C1231 C1226 1.390 . S
C1231 C1230 1.387 . S
C381 C16 1.699 . S
C393 C260 1.795 . S
C408 N186 1.361 . S
C420 N35 1.306 . S
C435 C214 1.795 . S
C447 C62 1.711 . S
C462 N232 1.284 . S
C474 N81 1.337 . S
C489 C122 1.793 . S
C501 C108 1.694 . S
C516 N127 1.365 . S
C528 N140 1.307 1_455 S
C543 C154 1.695 . S
C555 C168 1.788 . S
C570 N173 1.359 . S
C582 N94 1.290 1_655 S
C597 C200 1.757 . S
C609 C76 1.778 . S
C624 N2 1.356 1_655 S
C636 N219 1.298 . S
C651 C30 1.782 . S
C663 C246 1.757 . S
C678 N48 1.342 1_455 S
C690 N265 1.292 . S
C705 C306 1.788 . S
C717 C292 1.695 . S
C732 N311 1.345 . S
C744 N324 1.349 . S
C759 C352 1.779 . S
C771 C338 1.758 . S
C786 N278 1.290 . S
C798 N357 1.323 . S
C813 N334 1.739 . S
C825 N12 1.729 . S
C840 C361 1.935 . S
C852 C39 1.930 . S
C867 N288 1.798 . S
C879 N58 1.790 . S
C894 C85 1.908 . S
C906 C315 1.914 . S
C921 N104 1.798 . S
C933 N242 1.788 . S
C948 C269 1.900 . S
C960 C131 1.904 . S
C975 N150 1.727 . S
C987 N196 1.737 . S
C1002 C177 1.898 . S
C1014 C223 1.898 . S
C1029 C53 1.731 . S
C1041 C7 1.725 . S
C1056 N71 1.701 . S
C1068 N25 1.702 . S
C1083 C99 1.762 . S
C1095 C145 1.758 . S
C1110 N117 1.708 . S
C1122 N163 1.709 . S
C1137 C237 1.710 . S
C1149 C191 1.715 . S
C1164 N209 1.640 . S
C1176 N255 1.639 . S
C1191 C329 1.759 . S
C1203 C283 1.755 . S
C1218 N301 1.704 . S
C1230 N347 1.705 . S
