# Generated by pormake.
# Topology crb, (4)-cn, num edge types: 1
# Building blocks:
#     Node 0, Type 0, BuildingBlock: GALJAG_clean_sbu_0, # of connection points: 4
#     Node 1, Type 0, BuildingBlock: GALJAG_clean_sbu_0, # of connection points: 4
#     Node 2, Type 0, BuildingBlock: GALJAG_clean_sbu_0, # of connection points: 4
#     Node 3, Type 0, BuildingBlock: GALJAG_clean_sbu_0, # of connection points: 4
#     Node 4, Type 0, BuildingBlock: GALJAG_clean_sbu_0, # of connection points: 4
#     Node 5, Type 0, BuildingBlock: GALJAG_clean_sbu_0, # of connection points: 4
#     Node 6, Type 0, BuildingBlock: GALJAG_clean_sbu_0, # of connection points: 4
#     Node 7, Type 0, BuildingBlock: GALJAG_clean_sbu_0, # of connection points: 4
#     Edge 8, Type (0, 0), BuildingBlock: CIFDUS_clean_linker_0, # of connection points: 2
#     Edge 9, Type (0, 0), BuildingBlock: CIFDUS_clean_linker_0, # of connection points: 2
#     Edge 10, Type (0, 0), BuildingBlock: CIFDUS_clean_linker_0, # of connection points: 2
#     Edge 11, Type (0, 0), BuildingBlock: CIFDUS_clean_linker_0, # of connection points: 2
#     Edge 12, Type (0, 0), BuildingBlock: CIFDUS_clean_linker_0, # of connection points: 2
#     Edge 13, Type (0, 0), BuildingBlock: CIFDUS_clean_linker_0, # of connection points: 2
#     Edge 14, Type (0, 0), BuildingBlock: CIFDUS_clean_linker_0, # of connection points: 2
#     Edge 15, Type (0, 0), BuildingBlock: CIFDUS_clean_linker_0, # of connection points: 2
#     Edge 16, Type (0, 0), BuildingBlock: CIFDUS_clean_linker_0, # of connection points: 2
#     Edge 17, Type (0, 0), BuildingBlock: CIFDUS_clean_linker_0, # of connection points: 2
#     Edge 18, Type (0, 0), BuildingBlock: CIFDUS_clean_linker_0, # of connection points: 2
#     Edge 19, Type (0, 0), BuildingBlock: CIFDUS_clean_linker_0, # of connection points: 2
#     Edge 20, Type (0, 0), BuildingBlock: CIFDUS_clean_linker_0, # of connection points: 2
#     Edge 21, Type (0, 0), BuildingBlock: CIFDUS_clean_linker_0, # of connection points: 2
#     Edge 22, Type (0, 0), BuildingBlock: CIFDUS_clean_linker_0, # of connection points: 2
#     Edge 23, Type (0, 0), BuildingBlock: CIFDUS_clean_linker_0, # of connection points: 2
# Relax obj value: 0.077
# Max RMSD: 0.151
# Mean RMSD: 0.151
data_MOF--net-crb--node1-GALJAG_clean_sbu_0--edge1-CIFDUS_clean_linker_0
_symmetry_space_group_name_H-M    P1
_symmetry_Int_Tables_number       1
_symmetry_cell_setting            triclinic
loop_
_symmetry_equiv_pos_as_xyz
'x, y, z'
_cell_length_a     39.966999
_cell_length_b     39.980742
_cell_length_c     18.854698
_cell_angle_alpha  89.810952
_cell_angle_beta   89.43447
_cell_angle_gamma 89.845314
loop_
_atom_site_label
_atom_site_type_symbol
_atom_site_fract_x
_atom_site_fract_y
_atom_site_fract_z
_atom_type_partial_charge
In0 In 0.33919 0.33175 0.97995 0.0
O1 O 0.29719 0.32231 0.90149 0.0
O2 O 0.33679 0.28685 0.90569 0.0
C3 C 0.33086 0.39898 0.9731 0.0
C4 C 0.31067 0.30006 0.09207 0.0
C5 C 0.40668 0.32958 0.97248 0.0
O6 O 0.33152 0.38057 0.91895 0.0
O7 O 0.33402 0.38348 0.03105 0.0
O8 O 0.39086 0.33274 0.03034 0.0
O9 O 0.38845 0.32753 0.91841 0.0
C10 C 0.30933 0.29526 0.87834 0.0
O11 O 0.33997 0.29379 0.07054 0.0
O12 O 0.29598 0.32295 0.05821 0.0
In13 In 0.67234 0.3418 0.001 0.0
O14 O 0.70975 0.34299 0.09148 0.0
O15 O 0.6829 0.29793 0.07517 0.0
C16 C 0.67374 0.40883 0.98474 0.0
C17 C 0.70822 0.31212 0.89673 0.0
C18 C 0.60525 0.33408 0.01153 0.0
O19 O 0.67771 0.3947 0.04402 0.0
O20 O 0.66926 0.38913 0.93359 0.0
O21 O 0.62098 0.33201 0.9534 0.0
O22 O 0.62341 0.33947 0.06457 0.0
C23 C 0.70477 0.31311 0.11043 0.0
O24 O 0.68066 0.30068 0.91904 0.0
O25 O 0.71737 0.33881 0.92615 0.0
In26 In 0.66898 0.67509 -0.00808 0.0
O27 O 0.67418 0.72233 0.05791 0.0
O28 O 0.70851 0.6826 0.07639 0.0
C29 C 0.6016 0.67983 0.00146 0.0
C30 C 0.70399 0.70014 0.88039 0.0
C31 C 0.674 0.60808 0.00398 0.0
O32 O 0.62041 0.68052 0.05468 0.0
O33 O 0.61678 0.67722 0.94266 0.0
O34 O 0.66734 0.6224 0.94601 0.0
O35 O 0.67829 0.62758 0.05555 0.0
C36 C 0.69905 0.7118 0.09217 0.0
O37 O 0.71236 0.67379 0.91252 0.0
O38 O 0.67719 0.71331 0.90275 0.0
In39 In 0.33531 0.66528 -0.00485 0.0
O40 O 0.32933 0.70212 0.08698 0.0
O41 O 0.28781 0.6715 0.06179 0.0
C42 C 0.33012 0.59804 0.00705 0.0
C43 C 0.3091 0.70196 0.88893 0.0
C44 C 0.40248 0.6696 0.9812 0.0
O45 O 0.33709 0.61664 0.05875 0.0
O46 O 0.32535 0.61338 0.94938 0.0
O47 O 0.38355 0.66281 0.93013 0.0
O48 O 0.38754 0.6742 0.03973 0.0
C49 C 0.29926 0.69452 0.10006 0.0
O50 O 0.33256 0.71222 0.92732 0.0
O51 O 0.29914 0.67271 0.90308 0.0
In52 In 0.84038 0.83583 0.48662 0.0
O53 O 0.80149 0.82854 0.40075 0.0
O54 O 0.83605 0.78901 0.41882 0.0
C55 C 0.83475 0.90291 0.47907 0.0
C56 C 0.80478 0.81012 0.59664 0.0
C57 C 0.90781 0.83164 0.47765 0.0
O58 O 0.82998 0.8841 0.42655 0.0
O59 O 0.8423 0.88786 0.53572 0.0
O60 O 0.89231 0.8312 0.53634 0.0
O61 O 0.8893 0.83379 0.4241 0.0
C62 C 0.81128 0.79955 0.38427 0.0
O63 O 0.83157 0.79694 0.57425 0.0
O64 O 0.79669 0.83676 0.56525 0.0
In65 In 0.17433 0.83777 0.49735 0.0
O66 O 0.21251 0.82772 0.58406 0.0
O67 O 0.17742 0.78948 0.56146 0.0
C68 C 0.18023 0.90509 0.50414 0.0
C69 C 0.20884 0.81113 0.38697 0.0
C70 C 0.10696 0.83374 0.50725 0.0
O71 O 0.18356 0.88626 0.55746 0.0
O72 O 0.17429 0.88994 0.44701 0.0
O73 O 0.12561 0.83495 0.56072 0.0
O74 O 0.12228 0.83446 0.44836 0.0
C75 C 0.20215 0.79857 0.59758 0.0
O76 O 0.17959 0.80201 0.40346 0.0
O77 O 0.22015 0.83451 0.42441 0.0
In78 In 0.16637 0.17138 0.48453 0.0
O79 O 0.16912 0.21533 0.56071 0.0
O80 O 0.20705 0.17819 0.56771 0.0
C81 C 0.09919 0.17402 0.50049 0.0
C82 C 0.19569 0.20555 0.37684 0.0
C83 C 0.17405 0.10426 0.47198 0.0
O84 O 0.1187 0.16995 0.55202 0.0
O85 O 0.11356 0.17667 0.44085 0.0
O86 O 0.16865 0.12317 0.41966 0.0
O87 O 0.17605 0.11922 0.53056 0.0
C88 C 0.19553 0.20559 0.59051 0.0
O89 O 0.21079 0.18323 0.41163 0.0
O90 O 0.16562 0.2101 0.39532 0.0
In91 In 0.83294 0.16897 0.49871 0.0
O92 O 0.78887 0.17143 0.576 0.0
O93 O 0.82584 0.20931 0.58303 0.0
C94 C 0.83205 0.10176 0.51109 0.0
C95 C 0.79877 0.19826 0.39254 0.0
C96 C 0.89981 0.17697 0.48341 0.0
O97 O 0.83683 0.12081 0.5632 0.0
O98 O 0.82743 0.11663 0.45285 0.0
O99 O 0.88047 0.17412 0.43137 0.0
O100 O 0.88538 0.17645 0.54316 0.0
C101 C 0.79845 0.19778 0.60613 0.0
O102 O 0.82073 0.21346 0.42753 0.0
O103 O 0.79449 0.16809 0.41023 0.0
H104 H 0.33463 0.44388 0.08079 0.0
H105 H 0.32047 0.43675 0.85478 0.0
H106 H 0.31775 0.49765 0.84563 0.0
H107 H 0.32115 0.55304 0.90121 0.0
H108 H 0.33656 0.56026 0.12681 0.0
H109 H 0.33692 0.49931 0.13676 0.0
C110 C 0.33077 0.45566 0.02962 0.0
C111 C 0.3278 0.43582 0.96857 0.0
C112 C 0.32953 0.49074 0.02463 0.0
C113 C 0.32288 0.45145 0.90259 0.0
C114 C 0.32134 0.48629 0.89729 0.0
C115 C 0.3244 0.54127 0.9526 0.0
C116 C 0.32885 0.56115 0.01314 0.0
C117 C 0.32489 0.50619 0.95785 0.0
C118 C 0.33312 0.54552 0.07934 0.0
C119 C 0.33336 0.51066 0.08509 0.0
H120 H 0.45049 0.33375 0.08131 0.0
H121 H 0.44571 0.32316 0.85394 0.0
H122 H 0.50676 0.32252 0.8462 0.0
H123 H 0.56149 0.32621 0.9037 0.0
H124 H 0.56633 0.33734 0.13093 0.0
H125 H 0.50528 0.33636 0.13908 0.0
C126 C 0.46282 0.33123 0.03009 0.0
C127 C 0.44362 0.32859 0.96828 0.0
C128 C 0.49793 0.33096 0.02601 0.0
C129 C 0.45994 0.3253 0.90231 0.0
C130 C 0.49484 0.32492 0.89783 0.0
C131 C 0.54918 0.32825 0.95503 0.0
C132 C 0.56839 0.33187 0.0166 0.0
C133 C 0.51409 0.32789 0.95928 0.0
C134 C 0.5521 0.33453 0.08273 0.0
C135 C 0.51719 0.33403 0.08743 0.0
H136 H 0.68412 0.45542 0.08636 0.0
H137 H 0.66331 0.44455 0.86349 0.0
H138 H 0.662 0.50532 0.84946 0.0
H139 H 0.6659 0.56155 0.90098 0.0
H140 H 0.68673 0.57228 0.12389 0.0
H141 H 0.68897 0.51156 0.13739 0.0
C142 C 0.67937 0.46636 0.0347 0.0
C143 C 0.67376 0.44555 0.9761 0.0
C144 C 0.67863 0.50128 0.02704 0.0
C145 C 0.66769 0.46006 0.90946 0.0
C146 C 0.66692 0.4948 0.90139 0.0
C147 C 0.671 0.55058 0.95245 0.0
C148 C 0.67608 0.57135 0.01135 0.0
C149 C 0.67222 0.51564 0.95987 0.0
C150 C 0.68271 0.55681 0.07771 0.0
C151 C 0.68397 0.5221 0.08551 0.0
H152 H 0.4482 0.68137 0.08379 0.0
H153 H 0.43919 0.66266 0.85955 0.0
H154 H 0.49994 0.66531 0.84534 0.0
H155 H 0.55581 0.67177 0.89709 0.0
H156 H 0.56472 0.68952 0.12173 0.0
H157 H 0.50393 0.68858 0.13519 0.0
C158 C 0.45954 0.67795 0.03181 0.0
C159 C 0.43923 0.67177 0.97289 0.0
C160 C 0.4945 0.67935 0.02405 0.0
C161 C 0.45428 0.66738 0.90584 0.0
C162 C 0.48903 0.66891 0.89762 0.0
C163 C 0.54441 0.67561 0.94888 0.0
C164 C 0.56473 0.6807 0.00828 0.0
C165 C 0.5094 0.67474 0.9564 0.0
C166 C 0.54963 0.68552 0.07513 0.0
C167 C 0.51485 0.68496 0.08293 0.0
H168 H 0.84322 0.94809 0.58465 0.0
H169 H 0.82025 0.94018 0.36216 0.0
H170 H 0.81683 1.00101 0.35273 0.0
H171 H 0.82125 0.05646 0.40712 0.0
H172 H 0.84416 0.06454 0.62957 0.0
H173 H 0.84664 0.00363 0.63962 0.0
C174 C 0.8374 0.9597 0.53416 0.0
C175 C 0.83208 0.93969 0.47418 0.0
C176 C 0.83548 0.9947 0.52909 0.0
C177 C 0.82451 0.95505 0.40912 0.0
C178 C 0.82255 0.98983 0.40365 0.0
C179 C 0.8267 0.04488 0.45783 0.0
C180 C 0.83257 0.06494 0.51746 0.0
C181 C 0.82812 0.00989 0.46319 0.0
C182 C 0.83955 0.04961 0.58285 0.0
C183 C 0.84101 0.0148 0.58864 0.0
H184 H 0.06182 0.83295 0.40039 0.0
H185 H 0.0694 0.83077 0.62849 0.0
H186 H 0.00849 0.82912 0.63968 0.0
H187 H 0.95293 0.82937 0.5847 0.0
H188 H 0.94547 0.83201 0.35658 0.0
H189 H 0.00636 0.83233 0.34543 0.0
C190 C 0.05013 0.83202 0.45252 0.0
C191 C 0.07009 0.83204 0.51347 0.0
C192 C 0.01508 0.83119 0.4586 0.0
C193 C 0.05459 0.83084 0.58068 0.0
C194 C 0.01975 0.8299 0.58717 0.0
C195 C 0.96466 0.82988 0.53259 0.0
C196 C 0.94471 0.83068 0.47162 0.0
C197 C 0.99973 0.83021 0.52651 0.0
C198 C 0.96025 0.83139 0.40441 0.0
C199 C 0.99509 0.8316 0.39794 0.0
H200 H 0.18506 0.05901 0.57716 0.0
H201 H 0.16833 0.0669 0.35198 0.0
H202 H 0.16968 0.006 0.34159 0.0
H203 H 0.17388 0.95039 0.39709 0.0
H204 H 0.19042 0.94259 0.62236 0.0
H205 H 0.19097 1.00349 0.63201 0.0
C206 C 0.18187 0.0474 0.52576 0.0
C207 C 0.17651 0.06745 0.46549 0.0
C208 C 0.18256 0.01236 0.5202 0.0
C209 C 0.17246 0.05203 0.39924 0.0
C210 C 0.17319 0.0172 0.39325 0.0
C211 C 0.17775 0.96203 0.44822 0.0
C212 C 0.18201 0.94198 0.50893 0.0
C213 C 0.17795 0.9971 0.45345 0.0
C214 C 0.18705 0.95744 0.5748 0.0
C215 C 0.18734 0.99228 0.5804 0.0
H216 H 0.94629 0.17538 0.58741 0.0
H217 H 0.93572 0.18263 0.36034 0.0
H218 H 0.99653 0.18306 0.34563 0.0
H219 H 0.0527 0.17984 0.39707 0.0
H220 H 0.06324 0.17139 0.62398 0.0
H221 H 1.00247 0.17294 0.63896 0.0
C222 C 0.95731 0.17727 0.53475 0.0
C223 C 0.93656 0.17899 0.47507 0.0
C224 C 0.99228 0.17712 0.52664 0.0
C225 C 0.95118 0.18127 0.40714 0.0
C226 C 0.98594 0.18147 0.39867 0.0
C227 C 0.04168 0.17841 0.4498 0.0
C228 C 0.06242 0.17544 0.5093 0.0
C229 C 0.00673 0.17914 0.45799 0.0
C230 C 0.04781 0.17361 0.57729 0.0
C231 C 0.01306 0.17452 0.58592 0.0
H232 H 0.26096 0.20323 0.33586 0.0
H233 H 0.16755 0.25332 0.29273 0.0
H234 H 0.19509 0.28775 0.20225 0.0
H235 H 0.24569 0.30345 0.135 0.0
H236 H 0.33899 0.25306 0.17766 0.0
H237 H 0.31158 0.21913 0.2691 0.0
C238 C 0.24662 0.22161 0.3065 0.0
C239 C 0.21226 0.22566 0.32081 0.0
C240 C 0.26263 0.2414 0.25477 0.0
C241 C 0.19403 0.24968 0.28259 0.0
C242 C 0.20977 0.26942 0.23094 0.0
C243 C 0.26004 0.28518 0.16462 0.0
C244 C 0.29431 0.28082 0.14971 0.0
C245 C 0.24406 0.26553 0.21666 0.0
C246 C 0.31257 0.25691 0.1882 0.0
C247 C 0.29691 0.23744 0.24039 0.0
H248 H 0.70225 0.248 0.15112 0.0
H249 H 0.751 0.34158 0.19655 0.0
H250 H 0.78467 0.31419 0.28743 0.0
H251 H 0.80062 0.26357 0.35315 0.0
H252 H 0.75198 0.16995 0.3075 0.0
H253 H 0.71802 0.19742 0.21722 0.0
C254 C 0.72013 0.26242 0.18115 0.0
C255 C 0.7241 0.29675 0.16725 0.0
C256 C 0.73955 0.24648 0.23295 0.0
C257 C 0.74747 0.3151 0.20633 0.0
C258 C 0.76677 0.29946 0.2582 0.0
C259 C 0.78265 0.24917 0.32329 0.0
C260 C 0.77887 0.21478 0.33683 0.0
C261 C 0.76313 0.26514 0.27172 0.0
C262 C 0.7554 0.19646 0.29797 0.0
C263 C 0.73593 0.21215 0.24643 0.0
H264 H 0.75631 0.81622 0.30887 0.0
H265 H 0.82858 0.73716 0.33882 0.0
H266 H 0.80003 0.70288 0.25121 0.0
H267 H 0.75436 0.69529 0.16674 0.0
H268 H 0.68209 0.77437 0.1369 0.0
H269 H 0.71078 0.80872 0.22414 0.0
C270 C 0.76585 0.79152 0.29607 0.0
C271 C 0.79449 0.77923 0.33014 0.0
C272 C 0.74926 0.77194 0.24593 0.0
C273 C 0.80656 0.74717 0.31321 0.0
C274 C 0.79024 0.72755 0.26322 0.0
C275 C 0.74488 0.72002 0.17944 0.0
C276 C 0.71616 0.73228 0.14559 0.0
C277 C 0.76153 0.73965 0.22942 0.0
C278 C 0.70416 0.76438 0.16236 0.0
C279 C 0.72056 0.78404 0.21215 0.0
H280 H 0.19201 0.75651 0.30994 0.0
H281 H 0.2718 0.82722 0.3418 0.0
H282 H 0.30712 0.79699 0.25698 0.0
H283 H 0.31567 0.74995 0.17502 0.0
H284 H 0.2358 0.67935 0.14304 0.0
H285 H 0.20032 0.70987 0.22702 0.0
C286 C 0.21704 0.76543 0.29793 0.0
C287 C 0.22923 0.7941 0.33199 0.0
C288 C 0.23732 0.74777 0.24956 0.0
C289 C 0.26178 0.80526 0.31615 0.0
C290 C 0.28205 0.78792 0.26784 0.0
C291 C 0.29056 0.74117 0.18673 0.0
C292 C 0.27845 0.71234 0.15315 0.0
C293 C 0.27017 0.75901 0.23462 0.0
C294 C 0.24576 0.70141 0.16839 0.0
C295 C 0.22541 0.7189 0.21626 0.0
H296 H 0.25719 0.81169 0.67558 0.0
H297 H 0.18329 0.73562 0.63666 0.0
H298 H 0.21039 0.69851 0.72196 0.0
H299 H 0.2549 0.68786 0.80842 0.0
H300 H 0.32856 0.7642 0.84732 0.0
H301 H 0.30187 0.80089 0.76092 0.0
C302 C 0.24699 0.78701 0.68589 0.0
C303 C 0.21825 0.77645 0.65009 0.0
C304 C 0.26273 0.76579 0.73478 0.0
C305 C 0.20537 0.74436 0.66373 0.0
C306 C 0.22087 0.72311 0.71239 0.0
C307 C 0.26518 0.71246 0.79766 0.0
C308 C 0.29365 0.72329 0.83413 0.0
C309 C 0.24957 0.73356 0.74824 0.0
C310 C 0.30666 0.75527 0.8199 0.0
C311 C 0.29139 0.77631 0.7706 0.0
H312 H 0.24966 0.3077 0.81611 0.0
H313 H 0.33093 0.23648 0.82056 0.0
H314 H 0.30256 0.20198 0.73299 0.0
H315 H 0.25475 0.19223 0.65458 0.0
H316 H 0.17371 0.26373 0.65001 0.0
H317 H 0.20182 0.29783 0.73842 0.0
C318 C 0.26118 0.28465 0.79782 0.0
C319 C 0.29236 0.2747 0.82463 0.0
C320 C 0.24472 0.26493 0.74761 0.0
C321 C 0.30695 0.24473 0.80061 0.0
C322 C 0.29073 0.22497 0.75061 0.0
C323 C 0.24321 0.21521 0.67318 0.0
C324 C 0.2122 0.22542 0.64586 0.0
C325 C 0.25961 0.23482 0.72375 0.0
C326 C 0.19757 0.25531 0.67025 0.0
C327 C 0.21365 0.27485 0.72073 0.0
H328 H 0.69546 0.25279 0.83317 0.0
H329 H 0.76717 0.33322 0.83836 0.0
H330 H 0.80185 0.30459 0.74993 0.0
H331 H 0.81172 0.25675 0.67092 0.0
H332 H 0.73993 0.17639 0.66573 0.0
H333 H 0.70547 0.20485 0.75468 0.0
C334 C 0.71864 0.26408 0.81479 0.0
C335 C 0.7287 0.29509 0.84208 0.0
C336 C 0.73851 0.24743 0.7642 0.0
C337 C 0.75885 0.30937 0.81803 0.0
C338 C 0.77872 0.29301 0.76756 0.0
C339 C 0.7886 0.24542 0.68951 0.0
C340 C 0.77841 0.21451 0.6619 0.0
C341 C 0.76881 0.26201 0.74036 0.0
C342 C 0.74834 0.20017 0.68625 0.0
C343 C 0.72858 0.21645 0.73701 0.0
H344 H 0.69627 0.76118 0.81889 0.0
H345 H 0.76 0.6739 0.81846 0.0
H346 H 0.79739 0.70056 0.73215 0.0
H347 H 0.81229 0.7489 0.65751 0.0
H348 H 0.7486 0.83621 0.65811 0.0
H349 H 0.71111 0.80947 0.74412 0.0
C350 C 0.71821 0.74792 0.79949 0.0
C351 C 0.72528 0.71558 0.8248 0.0
C352 C 0.7398 0.76353 0.75042 0.0
C353 C 0.75395 0.6988 0.79963 0.0
C354 C 0.77542 0.71406 0.75046 0.0
C355 C 0.79032 0.76214 0.67684 0.0
C356 C 0.78331 0.79452 0.65171 0.0
C357 C 0.7687 0.7465 0.72581 0.0
C358 C 0.75461 0.81128 0.6768 0.0
C359 C 0.73309 0.79598 0.72581 0.0
loop_
_geom_bond_atom_site_label_1
_geom_bond_atom_site_label_2
_geom_bond_distance
_geom_bond_site_symmetry_2
_ccdc_geom_bond_type
In0 O1 2.294 1_554 S
In0 O2 2.326 1_554 S
In0 O6 2.266 1_554 S
In0 O7 2.326 . S
In0 O8 2.266 . S
In0 O9 2.326 1_554 S
In0 O11 2.294 . S
In0 O12 2.326 . S
O1 In0 2.294 1_556 S
O1 C10 1.240 . S
O2 In0 2.326 1_556 S
O2 C10 1.252 . S
C3 O6 1.252 1_554 S
C3 O7 1.260 . S
C4 O11 1.240 . S
C4 O12 1.252 . S
C5 O8 1.252 1_556 S
C5 O9 1.260 . S
O6 In0 2.266 1_556 S
O6 C3 1.252 1_556 S
O7 In0 2.326 . S
O7 C3 1.260 . S
O8 In0 2.266 . S
O8 C5 1.252 1_554 S
O9 In0 2.326 1_556 S
O9 C5 1.260 . S
C10 O1 1.240 . S
C10 O2 1.252 . S
O11 In0 2.294 . S
O11 C4 1.240 . S
O12 In0 2.326 . S
O12 C4 1.252 . S
In13 O14 2.294 . S
In13 O15 2.326 . S
In13 O19 2.266 . S
In13 O20 2.326 1_554 S
In13 O21 2.266 1_554 S
In13 O22 2.326 . S
In13 O24 2.294 1_554 S
In13 O25 2.326 1_554 S
O14 In13 2.294 . S
O14 C23 1.240 . S
O15 In13 2.326 . S
O15 C23 1.252 . S
C16 O19 1.252 1_556 S
C16 O20 1.260 . S
C17 O24 1.240 . S
C17 O25 1.252 . S
C18 O21 1.252 1_554 S
C18 O22 1.260 . S
O19 In13 2.266 . S
O19 C16 1.252 1_554 S
O20 In13 2.326 1_556 S
O20 C16 1.260 . S
O21 In13 2.266 1_556 S
O21 C18 1.252 1_556 S
O22 In13 2.326 . S
O22 C18 1.260 . S
C23 O14 1.240 . S
C23 O15 1.252 . S
O24 In13 2.294 1_556 S
O24 C17 1.240 . S
O25 In13 2.326 1_556 S
O25 C17 1.252 . S
In26 O27 2.294 . S
In26 O28 2.326 . S
In26 O32 2.266 . S
In26 O33 2.326 1_554 S
In26 O34 2.266 1_554 S
In26 O35 2.326 . S
In26 O37 2.294 1_554 S
In26 O38 2.326 1_554 S
O27 In26 2.294 . S
O27 C36 1.240 . S
O28 In26 2.326 . S
O28 C36 1.252 . S
C29 O32 1.252 1_556 S
C29 O33 1.260 . S
C30 O37 1.240 . S
C30 O38 1.252 . S
C31 O34 1.252 1_554 S
C31 O35 1.260 . S
O32 In26 2.266 . S
O32 C29 1.252 1_554 S
O33 In26 2.326 1_556 S
O33 C29 1.260 . S
O34 In26 2.266 1_556 S
O34 C31 1.252 1_556 S
O35 In26 2.326 . S
O35 C31 1.260 . S
C36 O27 1.240 . S
C36 O28 1.252 . S
O37 In26 2.294 1_556 S
O37 C30 1.240 . S
O38 In26 2.326 1_556 S
O38 C30 1.252 . S
In39 O40 2.294 . S
In39 O41 2.326 . S
In39 O45 2.266 . S
In39 O46 2.326 1_554 S
In39 O47 2.266 1_554 S
In39 O48 2.326 . S
In39 O50 2.294 1_554 S
In39 O51 2.326 1_554 S
O40 In39 2.294 . S
O40 C49 1.240 . S
O41 In39 2.326 . S
O41 C49 1.252 . S
C42 O45 1.252 1_556 S
C42 O46 1.260 . S
C43 O50 1.240 . S
C43 O51 1.252 . S
C44 O47 1.252 1_554 S
C44 O48 1.260 . S
O45 In39 2.266 . S
O45 C42 1.252 1_554 S
O46 In39 2.326 1_556 S
O46 C42 1.260 . S
O47 In39 2.266 1_556 S
O47 C44 1.252 1_556 S
O48 In39 2.326 . S
O48 C44 1.260 . S
C49 O40 1.240 . S
C49 O41 1.252 . S
O50 In39 2.294 1_556 S
O50 C43 1.240 . S
O51 In39 2.326 1_556 S
O51 C43 1.252 . S
In52 O53 2.294 . S
In52 O54 2.326 . S
In52 O58 2.266 . S
In52 O59 2.326 . S
In52 O60 2.266 . S
In52 O61 2.326 . S
In52 O63 2.294 . S
In52 O64 2.326 . S
O53 In52 2.294 . S
O53 C62 1.240 . S
O54 In52 2.326 . S
O54 C62 1.252 . S
C55 O58 1.252 . S
C55 O59 1.260 . S
C56 O63 1.240 . S
C56 O64 1.252 . S
C57 O60 1.252 . S
C57 O61 1.260 . S
O58 In52 2.266 . S
O58 C55 1.252 . S
O59 In52 2.326 . S
O59 C55 1.260 . S
O60 In52 2.266 . S
O60 C57 1.252 . S
O61 In52 2.326 . S
O61 C57 1.260 . S
C62 O53 1.240 . S
C62 O54 1.252 . S
O63 In52 2.294 . S
O63 C56 1.240 . S
O64 In52 2.326 . S
O64 C56 1.252 . S
In65 O66 2.294 . S
In65 O67 2.326 . S
In65 O71 2.266 . S
In65 O72 2.326 . S
In65 O73 2.266 . S
In65 O74 2.326 . S
In65 O76 2.294 . S
In65 O77 2.326 . S
O66 In65 2.294 . S
O66 C75 1.240 . S
O67 In65 2.326 . S
O67 C75 1.252 . S
C68 O71 1.252 . S
C68 O72 1.260 . S
C69 O76 1.240 . S
C69 O77 1.252 . S
C70 O73 1.252 . S
C70 O74 1.260 . S
O71 In65 2.266 . S
O71 C68 1.252 . S
O72 In65 2.326 . S
O72 C68 1.260 . S
O73 In65 2.266 . S
O73 C70 1.252 . S
O74 In65 2.326 . S
O74 C70 1.260 . S
C75 O66 1.240 . S
C75 O67 1.252 . S
O76 In65 2.294 . S
O76 C69 1.240 . S
O77 In65 2.326 . S
O77 C69 1.252 . S
In78 O79 2.294 . S
In78 O80 2.326 . S
In78 O84 2.266 . S
In78 O85 2.326 . S
In78 O86 2.266 . S
In78 O87 2.326 . S
In78 O89 2.294 . S
In78 O90 2.326 . S
O79 In78 2.294 . S
O79 C88 1.240 . S
O80 In78 2.326 . S
O80 C88 1.252 . S
C81 O84 1.252 . S
C81 O85 1.260 . S
C82 O89 1.240 . S
C82 O90 1.252 . S
C83 O86 1.252 . S
C83 O87 1.260 . S
O84 In78 2.266 . S
O84 C81 1.252 . S
O85 In78 2.326 . S
O85 C81 1.260 . S
O86 In78 2.266 . S
O86 C83 1.252 . S
O87 In78 2.326 . S
O87 C83 1.260 . S
C88 O79 1.240 . S
C88 O80 1.252 . S
O89 In78 2.294 . S
O89 C82 1.240 . S
O90 In78 2.326 . S
O90 C82 1.252 . S
In91 O92 2.294 . S
In91 O93 2.326 . S
In91 O97 2.266 . S
In91 O98 2.326 . S
In91 O99 2.266 . S
In91 O100 2.326 . S
In91 O102 2.294 . S
In91 O103 2.326 . S
O92 In91 2.294 . S
O92 C101 1.240 . S
O93 In91 2.326 . S
O93 C101 1.252 . S
C94 O97 1.252 . S
C94 O98 1.260 . S
C95 O102 1.240 . S
C95 O103 1.252 . S
C96 O99 1.252 . S
C96 O100 1.260 . S
O97 In91 2.266 . S
O97 C94 1.252 . S
O98 In91 2.326 . S
O98 C94 1.260 . S
O99 In91 2.266 . S
O99 C96 1.252 . S
O100 In91 2.326 . S
O100 C96 1.260 . S
C101 O92 1.240 . S
C101 O93 1.252 . S
O102 In91 2.294 . S
O102 C95 1.240 . S
O103 In91 2.326 . S
O103 C95 1.252 . S
H104 C110 0.930 . S
H105 C113 0.930 . S
H106 C114 0.930 . S
H107 C115 0.930 . S
H108 C118 0.930 . S
H109 C119 0.930 . S
C110 H104 0.930 . S
C110 C111 1.355 . S
C110 C112 1.415 . S
C111 C110 1.355 . S
C111 C113 1.419 1_554 S
C112 C110 1.415 . S
C112 C117 1.425 1_554 S
C112 C119 1.409 . S
C113 H105 0.930 . S
C113 C111 1.419 1_556 S
C113 C114 1.362 . S
C114 H106 0.930 . S
C114 C113 1.362 . S
C114 C117 1.409 . S
C115 H107 0.930 . S
C115 C116 1.355 . S
C115 C117 1.415 . S
C116 C115 1.355 . S
C116 C118 1.419 1_556 S
C117 C112 1.425 1_556 S
C117 C114 1.409 . S
C117 C115 1.415 . S
C118 H108 0.930 . S
C118 C116 1.419 1_554 S
C118 C119 1.362 . S
C119 H109 0.930 . S
C119 C112 1.409 . S
C119 C118 1.362 . S
H120 C126 0.930 . S
H121 C129 0.930 . S
H122 C130 0.930 . S
H123 C131 0.930 . S
H124 C134 0.930 . S
H125 C135 0.930 . S
C126 H120 0.930 . S
C126 C127 1.355 1_554 S
C126 C128 1.415 . S
C127 C126 1.355 1_556 S
C127 C129 1.419 . S
C128 C126 1.415 . S
C128 C133 1.425 1_554 S
C128 C135 1.409 . S
C129 H121 0.930 . S
C129 C127 1.419 . S
C129 C130 1.362 . S
C130 H122 0.930 . S
C130 C129 1.362 . S
C130 C133 1.409 . S
C131 H123 0.930 . S
C131 C132 1.355 1_556 S
C131 C133 1.415 . S
C132 C131 1.355 1_554 S
C132 C134 1.419 . S
C133 C128 1.425 1_556 S
C133 C130 1.409 . S
C133 C131 1.415 . S
C134 H124 0.930 . S
C134 C132 1.419 . S
C134 C135 1.362 . S
C135 H125 0.930 . S
C135 C128 1.409 . S
C135 C134 1.362 . S
H136 C142 0.930 . S
H137 C145 0.930 . S
H138 C146 0.930 . S
H139 C147 0.930 . S
H140 C150 0.930 . S
H141 C151 0.930 . S
C142 H136 0.930 . S
C142 C143 1.355 1_554 S
C142 C144 1.415 . S
C143 C142 1.355 1_556 S
C143 C145 1.419 . S
C144 C142 1.415 . S
C144 C149 1.425 1_554 S
C144 C151 1.409 . S
C145 H137 0.930 . S
C145 C143 1.419 . S
C145 C146 1.362 . S
C146 H138 0.930 . S
C146 C145 1.362 . S
C146 C149 1.409 . S
C147 H139 0.930 . S
C147 C148 1.355 1_556 S
C147 C149 1.415 . S
C148 C147 1.355 1_554 S
C148 C150 1.419 . S
C149 C144 1.425 1_556 S
C149 C146 1.409 . S
C149 C147 1.415 . S
C150 H140 0.930 . S
C150 C148 1.419 . S
C150 C151 1.362 . S
C151 H141 0.930 . S
C151 C144 1.409 . S
C151 C150 1.362 . S
H152 C158 0.930 . S
H153 C161 0.930 . S
H154 C162 0.930 . S
H155 C163 0.930 . S
H156 C166 0.930 . S
H157 C167 0.930 . S
C158 H152 0.930 . S
C158 C159 1.355 . S
C158 C160 1.415 . S
C159 C158 1.355 . S
C159 C161 1.419 1_554 S
C160 C158 1.415 . S
C160 C165 1.425 1_554 S
C160 C167 1.409 . S
C161 H153 0.930 . S
C161 C159 1.419 1_556 S
C161 C162 1.362 . S
C162 H154 0.930 . S
C162 C161 1.362 . S
C162 C165 1.409 . S
C163 H155 0.930 . S
C163 C164 1.355 . S
C163 C165 1.415 . S
C164 C163 1.355 . S
C164 C166 1.419 1_556 S
C165 C160 1.425 1_556 S
C165 C162 1.409 . S
C165 C163 1.415 . S
C166 H156 0.930 . S
C166 C164 1.419 1_554 S
C166 C167 1.362 . S
C167 H157 0.930 . S
C167 C160 1.409 . S
C167 C166 1.362 . S
H168 C174 0.930 . S
H169 C177 0.930 . S
H170 C178 0.930 . S
H171 C179 0.930 . S
H172 C182 0.930 . S
H173 C183 0.930 . S
C174 H168 0.930 . S
C174 C175 1.355 . S
C174 C176 1.415 . S
C175 C174 1.355 . S
C175 C177 1.419 . S
C176 C174 1.415 . S
C176 C181 1.425 1_565 S
C176 C183 1.409 1_565 S
C177 H169 0.930 . S
C177 C175 1.419 . S
C177 C178 1.362 . S
C178 H170 0.930 . S
C178 C177 1.362 . S
C178 C181 1.409 1_565 S
C179 H171 0.930 . S
C179 C180 1.355 . S
C179 C181 1.415 . S
C180 C179 1.355 . S
C180 C182 1.419 . S
C181 C176 1.425 1_545 S
C181 C178 1.409 1_545 S
C181 C179 1.415 . S
C182 H172 0.930 . S
C182 C180 1.419 . S
C182 C183 1.362 . S
C183 H173 0.930 . S
C183 C176 1.409 1_545 S
C183 C182 1.362 . S
H184 C190 0.930 . S
H185 C193 0.930 . S
H186 C194 0.930 . S
H187 C195 0.930 . S
H188 C198 0.930 . S
H189 C199 0.930 . S
C190 H184 0.930 . S
C190 C191 1.355 . S
C190 C192 1.415 . S
C191 C190 1.355 . S
C191 C193 1.419 . S
C192 C190 1.415 . S
C192 C197 1.425 1_455 S
C192 C199 1.409 1_455 S
C193 H185 0.930 . S
C193 C191 1.419 . S
C193 C194 1.362 . S
C194 H186 0.930 . S
C194 C193 1.362 . S
C194 C197 1.409 1_455 S
C195 H187 0.930 . S
C195 C196 1.355 . S
C195 C197 1.415 . S
C196 C195 1.355 . S
C196 C198 1.419 . S
C197 C192 1.425 1_655 S
C197 C194 1.409 1_655 S
C197 C195 1.415 . S
C198 H188 0.930 . S
C198 C196 1.419 . S
C198 C199 1.362 . S
C199 H189 0.930 . S
C199 C192 1.409 1_655 S
C199 C198 1.362 . S
H200 C206 0.930 . S
H201 C209 0.930 . S
H202 C210 0.930 . S
H203 C211 0.930 . S
H204 C214 0.930 . S
H205 C215 0.930 . S
C206 H200 0.930 . S
C206 C207 1.355 . S
C206 C208 1.415 . S
C207 C206 1.355 . S
C207 C209 1.419 . S
C208 C206 1.415 . S
C208 C213 1.425 1_545 S
C208 C215 1.409 1_545 S
C209 H201 0.930 . S
C209 C207 1.419 . S
C209 C210 1.362 . S
C210 H202 0.930 . S
C210 C209 1.362 . S
C210 C213 1.409 1_545 S
C211 H203 0.930 . S
C211 C212 1.355 . S
C211 C213 1.415 . S
C212 C211 1.355 . S
C212 C214 1.419 . S
C213 C208 1.425 1_565 S
C213 C210 1.409 1_565 S
C213 C211 1.415 . S
C214 H204 0.930 . S
C214 C212 1.419 . S
C214 C215 1.362 . S
C215 H205 0.930 . S
C215 C208 1.409 1_565 S
C215 C214 1.362 . S
H216 C222 0.930 . S
H217 C225 0.930 . S
H218 C226 0.930 . S
H219 C227 0.930 . S
H220 C230 0.930 . S
H221 C231 0.930 . S
C222 H216 0.930 . S
C222 C223 1.355 . S
C222 C224 1.415 . S
C223 C222 1.355 . S
C223 C225 1.419 . S
C224 C222 1.415 . S
C224 C229 1.425 1_655 S
C224 C231 1.409 1_655 S
C225 H217 0.930 . S
C225 C223 1.419 . S
C225 C226 1.362 . S
C226 H218 0.930 . S
C226 C225 1.362 . S
C226 C229 1.409 1_655 S
C227 H219 0.930 . S
C227 C228 1.355 . S
C227 C229 1.415 . S
C228 C227 1.355 . S
C228 C230 1.419 . S
C229 C224 1.425 1_455 S
C229 C226 1.409 1_455 S
C229 C227 1.415 . S
C230 H220 0.930 . S
C230 C228 1.419 . S
C230 C231 1.362 . S
C231 H221 0.930 . S
C231 C224 1.409 1_455 S
C231 C230 1.362 . S
H232 C238 0.930 . S
H233 C241 0.930 . S
H234 C242 0.930 . S
H235 C243 0.930 . S
H236 C246 0.930 . S
H237 C247 0.930 . S
C238 H232 0.930 . S
C238 C239 1.355 . S
C238 C240 1.415 . S
C239 C238 1.355 . S
C239 C241 1.419 . S
C240 C238 1.415 . S
C240 C245 1.425 . S
C240 C247 1.409 . S
C241 H233 0.930 . S
C241 C239 1.419 . S
C241 C242 1.362 . S
C242 H234 0.930 . S
C242 C241 1.362 . S
C242 C245 1.409 . S
C243 H235 0.930 . S
C243 C244 1.355 . S
C243 C245 1.415 . S
C244 C243 1.355 . S
C244 C246 1.419 . S
C245 C240 1.425 . S
C245 C242 1.409 . S
C245 C243 1.415 . S
C246 H236 0.930 . S
C246 C244 1.419 . S
C246 C247 1.362 . S
C247 H237 0.930 . S
C247 C240 1.409 . S
C247 C246 1.362 . S
H248 C254 0.930 . S
H249 C257 0.930 . S
H250 C258 0.930 . S
H251 C259 0.930 . S
H252 C262 0.930 . S
H253 C263 0.930 . S
C254 H248 0.930 . S
C254 C255 1.355 . S
C254 C256 1.415 . S
C255 C254 1.355 . S
C255 C257 1.419 . S
C256 C254 1.415 . S
C256 C261 1.425 . S
C256 C263 1.409 . S
C257 H249 0.930 . S
C257 C255 1.419 . S
C257 C258 1.362 . S
C258 H250 0.930 . S
C258 C257 1.362 . S
C258 C261 1.409 . S
C259 H251 0.930 . S
C259 C260 1.355 . S
C259 C261 1.415 . S
C260 C259 1.355 . S
C260 C262 1.419 . S
C261 C256 1.425 . S
C261 C258 1.409 . S
C261 C259 1.415 . S
C262 H252 0.930 . S
C262 C260 1.419 . S
C262 C263 1.362 . S
C263 H253 0.930 . S
C263 C256 1.409 . S
C263 C262 1.362 . S
H264 C270 0.930 . S
H265 C273 0.930 . S
H266 C274 0.930 . S
H267 C275 0.930 . S
H268 C278 0.930 . S
H269 C279 0.930 . S
C270 H264 0.930 . S
C270 C271 1.355 . S
C270 C272 1.415 . S
C271 C270 1.355 . S
C271 C273 1.419 . S
C272 C270 1.415 . S
C272 C277 1.425 . S
C272 C279 1.409 . S
C273 H265 0.930 . S
C273 C271 1.419 . S
C273 C274 1.362 . S
C274 H266 0.930 . S
C274 C273 1.362 . S
C274 C277 1.409 . S
C275 H267 0.930 . S
C275 C276 1.355 . S
C275 C277 1.415 . S
C276 C275 1.355 . S
C276 C278 1.419 . S
C277 C272 1.425 . S
C277 C274 1.409 . S
C277 C275 1.415 . S
C278 H268 0.930 . S
C278 C276 1.419 . S
C278 C279 1.362 . S
C279 H269 0.930 . S
C279 C272 1.409 . S
C279 C278 1.362 . S
H280 C286 0.930 . S
H281 C289 0.930 . S
H282 C290 0.930 . S
H283 C291 0.930 . S
H284 C294 0.930 . S
H285 C295 0.930 . S
C286 H280 0.930 . S
C286 C287 1.355 . S
C286 C288 1.415 . S
C287 C286 1.355 . S
C287 C289 1.419 . S
C288 C286 1.415 . S
C288 C293 1.425 . S
C288 C295 1.409 . S
C289 H281 0.930 . S
C289 C287 1.419 . S
C289 C290 1.362 . S
C290 H282 0.930 . S
C290 C289 1.362 . S
C290 C293 1.409 . S
C291 H283 0.930 . S
C291 C292 1.355 . S
C291 C293 1.415 . S
C292 C291 1.355 . S
C292 C294 1.419 . S
C293 C288 1.425 . S
C293 C290 1.409 . S
C293 C291 1.415 . S
C294 H284 0.930 . S
C294 C292 1.419 . S
C294 C295 1.362 . S
C295 H285 0.930 . S
C295 C288 1.409 . S
C295 C294 1.362 . S
H296 C302 0.930 . S
H297 C305 0.930 . S
H298 C306 0.930 . S
H299 C307 0.930 . S
H300 C310 0.930 . S
H301 C311 0.930 . S
C302 H296 0.930 . S
C302 C303 1.355 . S
C302 C304 1.415 . S
C303 C302 1.355 . S
C303 C305 1.419 . S
C304 C302 1.415 . S
C304 C309 1.425 . S
C304 C311 1.409 . S
C305 H297 0.930 . S
C305 C303 1.419 . S
C305 C306 1.362 . S
C306 H298 0.930 . S
C306 C305 1.362 . S
C306 C309 1.409 . S
C307 H299 0.930 . S
C307 C308 1.355 . S
C307 C309 1.415 . S
C308 C307 1.355 . S
C308 C310 1.419 . S
C309 C304 1.425 . S
C309 C306 1.409 . S
C309 C307 1.415 . S
C310 H300 0.930 . S
C310 C308 1.419 . S
C310 C311 1.362 . S
C311 H301 0.930 . S
C311 C304 1.409 . S
C311 C310 1.362 . S
H312 C318 0.930 . S
H313 C321 0.930 . S
H314 C322 0.930 . S
H315 C323 0.930 . S
H316 C326 0.930 . S
H317 C327 0.930 . S
C318 H312 0.930 . S
C318 C319 1.355 . S
C318 C320 1.415 . S
C319 C318 1.355 . S
C319 C321 1.419 . S
C320 C318 1.415 . S
C320 C325 1.425 . S
C320 C327 1.409 . S
C321 H313 0.930 . S
C321 C319 1.419 . S
C321 C322 1.362 . S
C322 H314 0.930 . S
C322 C321 1.362 . S
C322 C325 1.409 . S
C323 H315 0.930 . S
C323 C324 1.355 . S
C323 C325 1.415 . S
C324 C323 1.355 . S
C324 C326 1.419 . S
C325 C320 1.425 . S
C325 C322 1.409 . S
C325 C323 1.415 . S
C326 H316 0.930 . S
C326 C324 1.419 . S
C326 C327 1.362 . S
C327 H317 0.930 . S
C327 C320 1.409 . S
C327 C326 1.362 . S
H328 C334 0.930 . S
H329 C337 0.930 . S
H330 C338 0.930 . S
H331 C339 0.930 . S
H332 C342 0.930 . S
H333 C343 0.930 . S
C334 H328 0.930 . S
C334 C335 1.355 . S
C334 C336 1.415 . S
C335 C334 1.355 . S
C335 C337 1.419 . S
C336 C334 1.415 . S
C336 C341 1.425 . S
C336 C343 1.409 . S
C337 H329 0.930 . S
C337 C335 1.419 . S
C337 C338 1.362 . S
C338 H330 0.930 . S
C338 C337 1.362 . S
C338 C341 1.409 . S
C339 H331 0.930 . S
C339 C340 1.355 . S
C339 C341 1.415 . S
C340 C339 1.355 . S
C340 C342 1.419 . S
C341 C336 1.425 . S
C341 C338 1.409 . S
C341 C339 1.415 . S
C342 H332 0.930 . S
C342 C340 1.419 . S
C342 C343 1.362 . S
C343 H333 0.930 . S
C343 C336 1.409 . S
C343 C342 1.362 . S
H344 C350 0.930 . S
H345 C353 0.930 . S
H346 C354 0.930 . S
H347 C355 0.930 . S
H348 C358 0.930 . S
H349 C359 0.930 . S
C350 H344 0.930 . S
C350 C351 1.355 . S
C350 C352 1.415 . S
C351 C350 1.355 . S
C351 C353 1.419 . S
C352 C350 1.415 . S
C352 C357 1.425 . S
C352 C359 1.409 . S
C353 H345 0.930 . S
C353 C351 1.419 . S
C353 C354 1.362 . S
C354 H346 0.930 . S
C354 C353 1.362 . S
C354 C357 1.409 . S
C355 H347 0.930 . S
C355 C356 1.355 . S
C355 C357 1.415 . S
C356 C355 1.355 . S
C356 C358 1.419 . S
C357 C352 1.425 . S
C357 C354 1.409 . S
C357 C355 1.415 . S
C358 H348 0.930 . S
C358 C356 1.419 . S
C358 C359 1.362 . S
C359 H349 0.930 . S
C359 C352 1.409 . S
C359 C358 1.362 . S
C111 C3 1.557 . S
C116 C42 1.557 . S
C127 C5 1.585 . S
C132 C18 1.585 . S
C143 C16 1.579 . S
C148 C31 1.579 . S
C159 C44 1.551 . S
C164 C29 1.551 . S
C175 C55 1.552 . S
C180 C94 1.552 . S
C191 C70 1.578 . S
C196 C57 1.577 . S
C207 C83 1.555 . S
C212 C68 1.555 . S
C223 C96 1.556 . S
C228 C81 1.555 . S
C239 C82 1.548 . S
C244 C4 1.532 . S
C255 C23 1.531 . S
C260 C95 1.548 . S
C271 C62 1.550 . S
C276 C36 1.527 . S
C287 C69 1.534 . S
C292 C49 1.537 . S
C303 C75 1.542 . S
C308 C43 1.532 . S
C319 C10 1.550 . S
C324 C88 1.531 . S
C335 C17 1.539 . S
C340 C101 1.535 . S
C351 C30 1.528 . S
C356 C56 1.547 . S
