# Generated by pormake.
# Topology mok, (4)-cn, num edge types: 1
# Building blocks:
#     Node 0, Type 0, BuildingBlock: UXUYUI_clean_sbu_0, # of connection points: 4
#     Node 1, Type 0, BuildingBlock: UXUYUI_clean_sbu_0, # of connection points: 4
#     Node 2, Type 0, BuildingBlock: UXUYUI_clean_sbu_0, # of connection points: 4
#     Node 3, Type 0, BuildingBlock: UXUYUI_clean_sbu_0, # of connection points: 4
#     Node 4, Type 0, BuildingBlock: UXUYUI_clean_sbu_0, # of connection points: 4
#     Node 5, Type 0, BuildingBlock: UXUYUI_clean_sbu_0, # of connection points: 4
#     Node 6, Type 0, BuildingBlock: UXUYUI_clean_sbu_0, # of connection points: 4
#     Node 7, Type 0, BuildingBlock: UXUYUI_clean_sbu_0, # of connection points: 4
#     Edge 8, Type (0, 0), BuildingBlock: XUDNAN_clean_linker_2, # of connection points: 2
#     Edge 9, Type (0, 0), BuildingBlock: XUDNAN_clean_linker_2, # of connection points: 2
#     Edge 10, Type (0, 0), BuildingBlock: XUDNAN_clean_linker_2, # of connection points: 2
#     Edge 11, Type (0, 0), BuildingBlock: XUDNAN_clean_linker_2, # of connection points: 2
#     Edge 12, Type (0, 0), BuildingBlock: XUDNAN_clean_linker_2, # of connection points: 2
#     Edge 13, Type (0, 0), BuildingBlock: XUDNAN_clean_linker_2, # of connection points: 2
#     Edge 14, Type (0, 0), BuildingBlock: XUDNAN_clean_linker_2, # of connection points: 2
#     Edge 15, Type (0, 0), BuildingBlock: XUDNAN_clean_linker_2, # of connection points: 2
#     Edge 16, Type (0, 0), BuildingBlock: XUDNAN_clean_linker_2, # of connection points: 2
#     Edge 17, Type (0, 0), BuildingBlock: XUDNAN_clean_linker_2, # of connection points: 2
#     Edge 18, Type (0, 0), BuildingBlock: XUDNAN_clean_linker_2, # of connection points: 2
#     Edge 19, Type (0, 0), BuildingBlock: XUDNAN_clean_linker_2, # of connection points: 2
#     Edge 20, Type (0, 0), BuildingBlock: XUDNAN_clean_linker_2, # of connection points: 2
#     Edge 21, Type (0, 0), BuildingBlock: XUDNAN_clean_linker_2, # of connection points: 2
#     Edge 22, Type (0, 0), BuildingBlock: XUDNAN_clean_linker_2, # of connection points: 2
#     Edge 23, Type (0, 0), BuildingBlock: XUDNAN_clean_linker_2, # of connection points: 2
# Relax obj value: 0.076
# Max RMSD: 0.067
# Mean RMSD: 0.067
data_MOF--net-mok--node1-UXUYUI_clean_sbu_0--edge1-XUDNAN_clean_linker_2
_symmetry_space_group_name_H-M    P1
_symmetry_Int_Tables_number       1
_symmetry_cell_setting            triclinic
loop_
_symmetry_equiv_pos_as_xyz
'x, y, z'
_cell_length_a     67.141891
_cell_length_b     30.665792
_cell_length_c     37.459935
_cell_angle_alpha  89.908089
_cell_angle_beta   90.043819
_cell_angle_gamma 89.977675
loop_
_atom_site_label
_atom_site_type_symbol
_atom_site_fract_x
_atom_site_fract_y
_atom_site_fract_z
_atom_type_partial_charge
Li0 Li 0.58839 0.34711 0.03777 0.0
Li1 Li 0.61201 0.30367 1.00596 0.0
Li2 Li 0.58719 0.3434 0.97265 0.0
Li3 Li 0.57808 0.27513 0.00784 0.0
C4 C 0.61239 0.40921 0.01356 0.0
N5 N 0.61944 0.49342 0.03654 0.0
C6 C 0.62968 0.41897 0.03279 0.0
C7 C 0.59876 0.44236 1.0059 0.0
C8 C 0.63296 0.46171 0.04421 0.0
C9 C 0.60257 0.4847 0.01777 0.0
C10 C 0.60947 0.26418 0.06999 0.0
C11 C 0.62102 0.19761 0.09746 0.0
N12 N 0.63643 0.21984 0.11241 0.0
C13 C 0.6254 0.28637 0.08568 0.0
C14 C 0.60723 0.21943 0.07591 0.0
C15 C 0.63889 0.26337 0.10699 0.0
C16 C 0.56409 0.3913 0.08808 0.0
N17 N 0.58328 0.38199 0.07936 0.0
C18 C 0.59496 0.41806 0.13199 0.0
C19 C 0.59861 0.39485 0.10065 0.0
C20 C 0.57529 0.42765 0.14195 0.0
C21 C 0.55973 0.41421 0.11938 0.0
H22 H 0.55211 0.38019 0.07109 0.0
H23 H 0.61371 0.38646 0.09379 0.0
C24 C 0.65364 0.31579 0.99777 0.0
N25 N 0.63945 0.28536 1.00487 0.0
C26 C 0.67383 0.30511 1.00018 0.0
C27 C 0.66446 0.23115 0.01472 0.0
C28 C 0.64449 0.24331 0.01212 0.0
C29 C 0.67947 0.26249 0.00961 0.0
H30 H 0.64928 0.34864 0.99085 0.0
H31 H 0.633 0.21932 0.01665 0.0
C32 C 0.54777 0.35006 0.99195 0.0
N33 N 0.51374 0.38238 0.95988 0.0
C34 C 0.53464 0.32187 0.97451 0.0
C35 C 0.54342 0.39458 0.99362 0.0
C36 C 0.51756 0.33887 0.9583 0.0
C37 C 0.52619 0.41032 0.9771 0.0
C38 C 0.6088 0.25808 0.94679 0.0
C39 C 0.62178 0.27925 0.92335 0.0
C40 C 0.6102 0.21299 0.95158 0.0
C41 C 0.63616 0.25487 0.90528 0.0
C42 C 0.62477 0.18977 0.93298 0.0
N43 N 0.63735 0.21102 0.91044 0.0
C44 C 0.59472 0.40568 0.9179 0.0
C45 C 0.56724 0.3592 0.90706 0.0
C46 C 0.59229 0.42554 0.88455 0.0
N47 N 0.5822 0.37333 0.92858 0.0
C48 C 0.56419 0.37826 0.87362 0.0
C49 C 0.57695 0.41159 0.86171 0.0
H50 H 0.60702 0.41522 0.93479 0.0
H51 H 0.55799 0.33227 0.91539 0.0
C52 C 0.55435 0.2143 0.04425 0.0
N53 N 0.56118 0.22523 0.01132 0.0
C54 C 0.54206 0.178 0.04878 0.0
C55 C 0.54372 0.16507 0.98525 0.0
C56 C 0.55617 0.20151 0.982 0.0
C57 C 0.53641 0.15287 0.01903 0.0
H58 H 0.5586 0.23372 0.06711 0.0
H59 H 0.56172 0.21112 0.95605 0.0
O60 O 0.60877 0.36741 1.00253 0.0
O61 O 0.59618 0.28603 0.04882 0.0
O62 O 0.56463 0.33401 0.00774 0.0
O63 O 0.59497 0.2815 0.96536 0.0
H64 H 0.64028 0.39368 0.03952 0.0
H65 H 0.5854 0.43549 0.99085 0.0
H66 H 0.6462 0.46963 0.05934 0.0
H67 H 0.59211 0.51063 0.01204 0.0
H68 H 0.6195 0.16296 0.10218 0.0
H69 H 0.62765 0.32068 0.08065 0.0
H70 H 0.59512 0.20161 0.06372 0.0
H71 H 0.65138 0.28008 0.11902 0.0
H72 H 0.6074 0.42711 0.14886 0.0
H73 H 0.54435 0.4211 0.12595 0.0
H74 H 0.68485 0.33035 0.99591 0.0
H75 H 0.6681 0.19763 0.0211 0.0
H76 H 0.53771 0.2873 0.97312 0.0
H77 H 0.55315 0.41674 0.00771 0.0
H78 H 0.50737 0.31747 0.94442 0.0
H79 H 0.52268 0.44473 0.97806 0.0
H80 H 0.62087 0.3142 0.91949 0.0
H81 H 0.60035 0.19622 0.96987 0.0
H82 H 0.6464 0.27081 0.88721 0.0
H83 H 0.62614 0.15489 0.9366 0.0
H84 H 0.60278 0.45037 0.87626 0.0
H85 H 0.5521 0.36651 0.85708 0.0
H86 H 0.53719 0.16957 0.07545 0.0
H87 H 0.53961 0.14718 0.96147 0.0
Li88 Li 0.39407 0.71342 1.00322 0.0
Li89 Li 0.41693 0.6706 0.03681 0.0
Li90 Li 0.42684 0.74382 0.00735 0.0
Li91 Li 0.41908 0.67611 0.97073 0.0
C92 C 0.39392 0.74808 0.06843 0.0
N93 N 0.3638 0.78271 0.10979 0.0
C94 C 0.38004 0.72058 0.08475 0.0
C95 C 0.39263 0.79314 0.07342 0.0
C96 C 0.36487 0.73874 0.10546 0.0
C97 C 0.37726 0.81003 0.09439 0.0
C98 C 0.39953 0.60496 0.99783 0.0
C99 C 0.42016 0.5405 0.99634 0.0
N100 N 0.40358 0.51538 0.99311 0.0
C101 C 0.3827 0.57844 0.99439 0.0
C102 C 0.41842 0.58578 0.99873 0.0
C103 C 0.38505 0.53327 0.99209 0.0
C104 C 0.35237 0.69872 1.00313 0.0
N105 N 0.36646 0.73053 1.00324 0.0
C106 C 0.34138 0.78545 0.00882 0.0
C107 C 0.36133 0.77331 1.0057 0.0
C108 C 0.3265 0.75325 0.0097 0.0
C109 C 0.3322 0.70937 1.00629 0.0
H110 H 0.35681 0.66497 1.00157 0.0
H111 H 0.37277 0.79806 1.00618 0.0
C112 C 0.43724 0.63592 0.09811 0.0
N113 N 0.42045 0.63406 0.07779 0.0
C114 C 0.43952 0.60805 0.12752 0.0
C115 C 0.40715 0.57742 0.11459 0.0
C116 C 0.40537 0.60622 0.08596 0.0
C117 C 0.42445 0.57785 0.13559 0.0
H118 H 0.44891 0.65879 0.09131 0.0
H119 H 0.39192 0.60619 0.07012 0.0
C120 C 0.39689 0.76012 0.94431 0.0
N121 N 0.36825 0.80575 0.90667 0.0
C122 C 0.38298 0.73781 0.92345 0.0
C123 C 0.39637 0.80565 0.94579 0.0
C124 C 0.36857 0.76146 0.90471 0.0
C125 C 0.38175 0.82812 0.92661 0.0
C126 C 0.46043 0.67921 1.0001 0.0
C127 C 0.47054 0.70839 0.97789 0.0
C128 C 0.47071 0.64412 0.01529 0.0
C129 C 0.49074 0.70172 0.9709 0.0
C130 C 0.49091 0.63856 0.00765 0.0
N131 N 0.50043 0.66723 0.9858 0.0
C132 C 0.44693 0.80985 0.04539 0.0
C133 C 0.44816 0.8185 0.98256 0.0
C134 C 0.45673 0.84959 0.05023 0.0
N135 N 0.44259 0.79547 0.01199 0.0
C136 C 0.45814 0.85831 0.98616 0.0
C137 C 0.46222 0.87474 0.02039 0.0
H138 H 0.4423 0.79091 0.06832 0.0
H139 H 0.44441 0.80646 0.95627 0.0
C140 C 0.40924 0.62424 0.91147 0.0
N141 N 0.42493 0.64378 0.92797 0.0
C142 C 0.41217 0.59854 0.88116 0.0
C143 C 0.44738 0.61387 0.88489 0.0
C144 C 0.44375 0.63929 0.91511 0.0
C145 C 0.43149 0.59276 0.86763 0.0
H146 H 0.39441 0.62794 0.92226 0.0
H147 H 0.45603 0.65503 0.92828 0.0
O148 O 0.40863 0.73097 0.0475 0.0
O149 O 0.39736 0.64935 1.00005 0.0
O150 O 0.41094 0.73751 0.96323 0.0
O151 O 0.44069 0.68546 0.00763 0.0
H152 H 0.38079 0.68566 0.08098 0.0
H153 H 0.40322 0.81486 0.06085 0.0
H154 H 0.35392 0.71789 0.11799 0.0
H155 H 0.37598 0.84486 0.0983 0.0
H156 H 0.43471 0.52534 0.99702 0.0
H157 H 0.36794 0.59252 0.9935 0.0
H158 H 0.43162 0.60549 1.00114 0.0
H159 H 0.37214 0.51242 0.98947 0.0
H160 H 0.3377 0.81973 0.01089 0.0
H161 H 0.32129 0.6834 0.00729 0.0
H162 H 0.45307 0.60929 0.1432 0.0
H163 H 0.39507 0.55508 0.12035 0.0
H164 H 0.38312 0.70261 0.92217 0.0
H165 H 0.40691 0.82343 0.96203 0.0
H166 H 0.35761 0.74461 0.88868 0.0
H167 H 0.38107 0.86333 0.92771 0.0
H168 H 0.46277 0.73535 0.96558 0.0
H169 H 0.46317 0.62137 0.03277 0.0
H170 H 0.49871 0.72387 0.95353 0.0
H171 H 0.49904 0.61149 0.01914 0.0
H172 H 0.45979 0.86076 0.07709 0.0
H173 H 0.46194 0.87677 0.96246 0.0
H174 H 0.3995 0.58248 0.86904 0.0
H175 H 0.46249 0.61087 0.87512 0.0
Li176 Li 0.57932 0.74031 0.50869 0.0
Li177 Li 0.58803 0.66825 0.53667 0.0
Li178 Li 0.61341 0.71089 0.50564 0.0
Li179 Li 0.58793 0.67284 0.47205 0.0
C180 C 0.61116 0.74689 0.57025 0.0
N181 N 0.64018 0.78505 0.6121 0.0
C182 C 0.61931 0.72402 0.59906 0.0
C183 C 0.61761 0.78928 0.56289 0.0
C184 C 0.634 0.74387 0.61987 0.0
C185 C 0.63234 0.80796 0.58431 0.0
C186 C 0.55004 0.66345 0.52381 0.0
C187 C 0.53216 0.59899 0.54199 0.0
N188 N 0.52112 0.62357 0.56481 0.0
C189 C 0.53848 0.68813 0.54729 0.0
C190 C 0.54683 0.61856 0.52097 0.0
C191 C 0.52394 0.66734 0.56783 0.0
C192 C 0.55184 0.80577 0.48508 0.0
N193 N 0.56327 0.79152 0.51274 0.0
C194 C 0.55242 0.85093 0.54906 0.0
C195 C 0.56376 0.81325 0.54429 0.0
C196 C 0.54021 0.86637 0.52123 0.0
C197 C 0.54013 0.84334 0.48876 0.0
H198 H 0.55175 0.78783 0.46024 0.0
H199 H 0.57297 0.80124 0.56585 0.0
C200 C 0.59113 0.59034 0.57609 0.0
N201 N 0.58353 0.63136 0.57723 0.0
C202 C 0.58868 0.56199 0.60487 0.0
C203 C 0.57107 0.6189 0.63629 0.0
C204 C 0.57379 0.6462 0.60666 0.0
C205 C 0.57845 0.576 0.63545 0.0
H206 H 0.59932 0.57966 0.55298 0.0
H207 H 0.56818 0.67927 0.60716 0.0
C208 C 0.60592 0.76581 0.44613 0.0
N209 N 0.62425 0.82952 0.40559 0.0
C210 C 0.61587 0.75463 0.41468 0.0
C211 C 0.60514 0.80944 0.45681 0.0
C212 C 0.62509 0.7873 0.39461 0.0
C213 C 0.61454 0.84115 0.43598 0.0
C214 C 0.61619 0.61336 0.48479 0.0
C215 C 0.63523 0.61581 0.46982 0.0
C216 C 0.60473 0.57577 0.47983 0.0
C217 C 0.64247 0.5806 0.45008 0.0
C218 C 0.6125 0.5413 0.45986 0.0
N219 N 0.63105 0.54441 0.44553 0.0
C220 C 0.65114 0.6993 0.53347 0.0
C221 C 0.65109 0.75555 0.49007 0.0
C222 C 0.67137 0.70571 0.54003 0.0
N223 N 0.64135 0.72431 0.50911 0.0
C224 C 0.67147 0.76251 0.49529 0.0
C225 C 0.68177 0.73766 0.5208 0.0
H226 H 0.64312 0.67438 0.54801 0.0
H227 H 0.64322 0.77542 0.47105 0.0
C228 C 0.56345 0.62948 0.42128 0.0
N229 N 0.58238 0.64247 0.42845 0.0
C230 C 0.5593 0.60527 0.39055 0.0
C231 C 0.59418 0.60833 0.37511 0.0
C232 C 0.59756 0.63324 0.40567 0.0
C233 C 0.57484 0.59365 0.36715 0.0
H234 H 0.55158 0.63772 0.43955 0.0
H235 H 0.61246 0.64421 0.41171 0.0
O236 O 0.59713 0.72764 0.54903 0.0
O237 O 0.56471 0.68299 0.50423 0.0
O238 O 0.59666 0.73433 0.46592 0.0
O239 O 0.6088 0.64758 0.50412 0.0
H240 H 0.61452 0.69112 0.60501 0.0
H241 H 0.61145 0.80737 0.54067 0.0
H242 H 0.64055 0.72648 0.64212 0.0
H243 H 0.63758 0.84064 0.57879 0.0
H244 H 0.52957 0.56424 0.54023 0.0
H245 H 0.54086 0.72289 0.54989 0.0
H246 H 0.55569 0.59903 0.50294 0.0
H247 H 0.51494 0.68597 0.58627 0.0
H248 H 0.55332 0.86789 0.57434 0.0
H249 H 0.53085 0.85368 0.46666 0.0
H250 H 0.59502 0.52956 0.60336 0.0
H251 H 0.56309 0.63099 0.65934 0.0
H252 H 0.61654 0.72111 0.40594 0.0
H253 H 0.59746 0.81875 0.48096 0.0
H254 H 0.63291 0.77909 0.3703 0.0
H255 H 0.61412 0.87502 0.44399 0.0
H256 H 0.64426 0.6447 0.47304 0.0
H257 H 0.58988 0.57347 0.49085 0.0
H258 H 0.65714 0.58212 0.43825 0.0
H259 H 0.60374 0.51215 0.45565 0.0
H260 H 0.67886 0.68564 0.55972 0.0
H261 H 0.679 0.7877 0.48014 0.0
H262 H 0.54405 0.59585 0.38531 0.0
H263 H 0.60678 0.59987 0.3585 0.0
Li264 Li 0.4237 0.34496 0.53773 0.0
Li265 Li 0.43042 0.27572 0.50698 0.0
Li266 Li 0.42361 0.34487 0.47124 0.0
Li267 Li 0.39693 0.3056 0.50382 0.0
C268 C 0.46329 0.35435 0.50696 0.0
N269 N 0.49806 0.40197 0.51272 0.0
C270 C 0.48034 0.33532 0.52169 0.0
C271 C 0.46401 0.39735 0.49462 0.0
C272 C 0.49775 0.36001 0.52453 0.0
C273 C 0.48171 0.42095 0.4979 0.0
C274 C 0.41496 0.25406 0.57082 0.0
C275 C 0.41158 0.17878 0.58845 0.0
N276 N 0.42284 0.18683 0.61792 0.0
C277 C 0.42636 0.26171 0.60141 0.0
C278 C 0.40736 0.21239 0.56439 0.0
C279 C 0.43021 0.22725 0.62486 0.0
C280 C 0.41216 0.38933 0.59986 0.0
N281 N 0.42839 0.37859 0.58003 0.0
C282 C 0.44995 0.41223 0.62269 0.0
C283 C 0.44705 0.3897 0.59077 0.0
C284 C 0.43352 0.42304 0.64419 0.0
C285 C 0.41437 0.41168 0.63215 0.0
H286 H 0.39748 0.37981 0.59084 0.0
H287 H 0.45978 0.38062 0.57502 0.0
C288 C 0.44429 0.19178 0.48412 0.0
N289 N 0.44591 0.22312 0.50964 0.0
C290 C 0.45448 0.15215 0.48779 0.0
C291 C 0.46822 0.17832 0.54338 0.0
C292 C 0.45799 0.2175 0.53842 0.0
C293 C 0.4663 0.14473 0.51816 0.0
H294 H 0.43482 0.1972 0.46119 0.0
H295 H 0.45936 0.24317 0.55799 0.0
C296 C 0.39746 0.41099 0.50682 0.0
N297 N 0.38557 0.49703 0.51198 0.0
C298 C 0.37772 0.42257 0.49971 0.0
C299 C 0.41111 0.44313 0.51684 0.0
C300 C 0.37201 0.46626 0.50235 0.0
C301 C 0.40482 0.48644 0.51926 0.0
C302 C 0.4006 0.26255 0.44228 0.0
C303 C 0.39423 0.28146 0.41028 0.0
C304 C 0.39304 0.22202 0.45266 0.0
C305 C 0.38021 0.25963 0.38932 0.0
C306 C 0.37902 0.20125 0.43099 0.0
N307 N 0.37294 0.22033 0.40004 0.0
C308 C 0.43937 0.35402 0.40239 0.0
C309 C 0.42073 0.41546 0.42112 0.0
C310 C 0.44142 0.37174 0.3682 0.0
N311 N 0.42884 0.3756 0.4278 0.0
C312 C 0.42255 0.43455 0.38739 0.0
C313 C 0.4326 0.41216 0.36014 0.0
H314 H 0.44551 0.3222 0.40833 0.0
H315 H 0.41222 0.43189 0.44144 0.0
C316 C 0.35968 0.26946 0.5266 0.0
N317 N 0.36916 0.29333 0.50113 0.0
C318 C 0.33941 0.25976 0.52299 0.0
C319 C 0.33915 0.29965 0.46726 0.0
C320 C 0.35925 0.30912 0.47222 0.0
C321 C 0.32902 0.2744 0.49269 0.0
H322 H 0.36788 0.25768 0.54952 0.0
H323 H 0.36707 0.32879 0.45279 0.0
O324 O 0.44609 0.33071 0.50426 0.0
O325 O 0.41127 0.28723 0.5473 0.0
O326 O 0.40328 0.36836 0.50417 0.0
O327 O 0.41403 0.28379 0.4635 0.0
H328 H 0.4801 0.30197 0.53111 0.0
H329 H 0.45109 0.41235 0.48254 0.0
H330 H 0.51102 0.34581 0.53613 0.0
H331 H 0.48245 0.45432 0.48861 0.0
H332 H 0.40592 0.14629 0.58368 0.0
H333 H 0.43234 0.29378 0.60682 0.0
H334 H 0.39841 0.20601 0.54097 0.0
H335 H 0.43912 0.23261 0.64852 0.0
H336 H 0.46496 0.42087 0.6305 0.0
H337 H 0.40127 0.41882 0.64794 0.0
H338 H 0.45259 0.12708 0.46774 0.0
H339 H 0.47744 0.17421 0.56689 0.0
H340 H 0.36691 0.39814 0.49212 0.0
H341 H 0.42638 0.43478 0.52283 0.0
H342 H 0.3568 0.47571 0.49676 0.0
H343 H 0.41524 0.51162 0.52696 0.0
H344 H 0.39985 0.31292 0.40191 0.0
H345 H 0.39783 0.20692 0.4773 0.0
H346 H 0.37505 0.27399 0.3646 0.0
H347 H 0.37296 0.16998 0.4388 0.0
H348 H 0.44946 0.35355 0.34807 0.0
H349 H 0.41532 0.46552 0.38224 0.0
H350 H 0.33206 0.24016 0.54313 0.0
H351 H 0.33156 0.31207 0.44382 0.0
Li352 Li 0.08325 0.84923 0.04121 0.0
Li353 Li 0.11173 0.80892 0.01156 0.0
Li354 Li 0.08642 0.8463 0.97616 0.0
Li355 Li 0.07769 0.77848 1.00559 0.0
C356 C 0.11128 0.90803 0.99296 0.0
N357 N 0.12256 0.9789 0.95211 0.0
C358 C 0.12962 0.90796 0.97536 0.0
C359 C 0.09869 0.94417 0.98988 0.0
C360 C 0.13505 0.94411 0.95482 0.0
C361 C 0.10466 0.97967 0.96908 0.0
C362 C 0.1029 0.75976 0.07219 0.0
C363 C 0.11777 0.6894 0.08302 0.0
N364 N 0.12279 0.70238 0.11655 0.0
C365 C 0.10808 0.77233 0.10682 0.0
C366 C 0.10767 0.71793 0.06023 0.0
C367 C 0.11819 0.74287 0.12881 0.0
C368 C 0.06752 0.85855 0.11057 0.0
N369 N 0.0765 0.88054 0.0835 0.0
C370 C 0.07821 0.94518 0.11906 0.0
C371 C 0.08189 0.92302 0.08715 0.0
C372 C 0.06919 0.92324 0.14784 0.0
C373 C 0.0638 0.87924 0.14312 0.0
H374 H 0.0637 0.82454 0.10714 0.0
H375 H 0.08933 0.93961 0.06552 0.0
C376 C 0.1505 0.7878 0.98648 0.0
N377 N 0.13952 0.7973 0.01595 0.0
C378 C 0.17124 0.78438 0.98886 0.0
C379 C 0.16887 0.79961 0.05197 0.0
C380 C 0.14826 0.80324 0.04828 0.0
C381 C 0.18075 0.79094 0.0219 0.0
H382 H 0.14324 0.78459 0.96084 0.0
H383 H 0.13931 0.81222 0.07103 0.0
C384 C 0.04647 0.85594 0.99126 0.0
N385 N 0.01439 0.89973 0.96211 0.0
C386 C 0.03648 0.83865 0.96177 0.0
C387 C 0.04008 0.8953 1.00613 0.0
C388 C 0.02032 0.86137 0.94735 0.0
C389 C 0.02384 0.91699 0.99096 0.0
C390 C 0.09962 0.75431 0.94521 0.0
C391 C 0.08959 0.75577 0.91251 0.0
C392 C 0.11134 0.71808 0.9537 0.0
C393 C 0.09117 0.72054 0.8891 0.0
C394 C 0.11257 0.68353 0.92955 0.0
N395 N 0.10252 0.68543 0.89804 0.0
C396 C 0.09911 0.86767 0.90822 0.0
C397 C 0.07025 0.90811 0.92296 0.0
C398 C 0.09962 0.88635 0.87431 0.0
N399 N 0.08433 0.87787 0.93154 0.0
C400 C 0.07012 0.92754 0.8891 0.0
C401 C 0.08476 0.91608 0.86399 0.0
H402 H 0.11055 0.8447 0.91599 0.0
H403 H 0.05912 0.9174 0.94219 0.0
C404 C 0.058 0.70191 0.03267 0.0
N405 N 0.06176 0.72631 1.00303 0.0
C406 C 0.04574 0.66499 0.03059 0.0
C407 C 0.04156 0.67889 0.96759 0.0
C408 C 0.05366 0.71561 0.97098 0.0
C409 C 0.03718 0.65316 0.99769 0.0
H410 H 0.0642 0.71153 0.05811 0.0
H411 H 0.0563 0.73598 0.94801 0.0
O412 O 0.10544 0.87241 0.0123 0.0
O413 O 0.09313 0.78826 0.05021 0.0
O414 O 0.06217 0.83406 1.00601 0.0
O415 O 0.09835 0.78868 0.96836 0.0
H416 H 0.13949 0.88018 0.97731 0.0
H417 H 0.08425 0.94436 1.00268 0.0
H418 H 0.14917 0.94445 0.94093 0.0
H419 H 0.095 0.0077 0.96621 0.0
H420 H 0.12157 0.65693 0.07409 0.0
H421 H 0.1045 0.80464 0.11647 0.0
H422 H 0.10348 0.7075 0.03372 0.0
H423 H 0.12239 0.75222 0.15561 0.0
H424 H 0.08242 0.97916 0.12106 0.0
H425 H 0.05721 0.86052 0.16458 0.0
H426 H 0.17975 0.77843 0.96481 0.0
H427 H 0.17543 0.80437 0.07809 0.0
H428 H 0.04126 0.80824 0.94997 0.0
H429 H 0.04763 0.90899 0.02906 0.0
H430 H 0.01251 0.84852 0.92439 0.0
H431 H 0.01876 0.94756 1.00208 0.0
H432 H 0.08041 0.78352 0.90552 0.0
H433 H 0.11953 0.71678 0.97853 0.0
H434 H 0.08335 0.72108 0.86384 0.0
H435 H 0.12156 0.65525 0.93581 0.0
H436 H 0.11157 0.87749 0.85634 0.0
H437 H 0.05844 0.95052 0.88244 0.0
H438 H 0.04258 0.6467 0.05467 0.0
H439 H 0.03563 0.67096 0.94152 0.0
Li440 Li 0.89448 0.21015 0.01011 0.0
Li441 Li 0.92207 0.17098 0.03838 0.0
Li442 Li 0.92875 0.24156 1.00595 0.0
Li443 Li 0.92151 0.17309 0.97325 0.0
C444 C 0.90442 0.26468 0.06851 0.0
N445 N 0.88865 0.33345 0.10675 0.0
C446 C 0.90074 0.26022 0.10506 0.0
C447 C 0.90026 0.30421 0.05151 0.0
C448 C 0.8927 0.29533 0.1239 0.0
C449 C 0.89226 0.33858 0.07127 0.0
C450 C 0.89637 0.10812 0.0202 0.0
C451 C 0.90293 0.03159 0.02916 0.0
N452 N 0.88693 0.02909 0.05131 0.0
C453 C 0.87985 0.10472 0.0427 0.0
C454 C 0.9079 0.07123 0.01305 0.0
C455 C 0.87537 0.0645 0.05831 0.0
C456 C 0.85522 0.22162 0.98332 0.0
N457 N 0.86658 0.22096 0.01339 0.0
C458 C 0.83762 0.22773 0.04997 0.0
C459 C 0.85822 0.22405 0.0463 0.0
C460 C 0.82539 0.22751 0.0195 0.0
C461 C 0.83448 0.22508 0.98575 0.0
H462 H 0.86223 0.21818 0.95748 0.0
H463 H 0.86747 0.22215 0.06983 0.0
C464 C 0.94506 0.11457 0.08354 0.0
N465 N 0.92753 0.13623 0.07966 0.0
C466 C 0.94813 0.0872 0.11293 0.0
C467 C 0.91521 0.10559 0.13412 0.0
C468 C 0.91285 0.13282 0.10448 0.0
C469 C 0.93298 0.08192 0.13854 0.0
H470 H 0.95662 0.11828 0.06374 0.0
H471 H 0.89908 0.15056 0.1008 0.0
C472 C 0.9049 0.26229 0.94215 0.0
N473 N 0.8965 0.32448 0.8908 0.0
C474 C 0.91417 0.26051 0.90879 0.0
C475 C 0.89107 0.29528 0.94914 0.0
C476 C 0.90983 0.29238 0.88327 0.0
C477 C 0.8871 0.32652 0.9229 0.0
C478 C 0.96131 0.16989 0.99055 0.0
C479 C 0.97583 0.19811 0.97706 0.0
C480 C 0.96409 0.12483 0.98811 0.0
C481 C 0.9928 0.18069 0.96091 0.0
C482 C 0.98127 0.10869 0.97177 0.0
N483 N 0.99514 0.13672 0.95859 0.0
C484 C 0.94892 0.31675 0.03428 0.0
C485 C 0.94866 0.31084 0.97126 0.0
C486 C 0.95855 0.35723 0.03217 0.0
N487 N 0.94377 0.29498 1.00399 0.0
C488 C 0.95806 0.35121 0.9679 0.0
C489 C 0.9628 0.37536 0.99856 0.0
H490 H 0.94517 0.30318 0.06008 0.0
H491 H 0.94516 0.29229 0.94766 0.0
C492 C 0.91186 0.1141 0.91771 0.0
N493 N 0.92593 0.14273 0.9292 0.0
C494 C 0.91365 0.09417 0.88426 0.0
C495 C 0.94466 0.13255 0.87559 0.0
C496 C 0.94211 0.15219 0.90884 0.0
C497 C 0.93014 0.10368 0.86242 0.0
H498 H 0.89894 0.10766 0.93411 0.0
H499 H 0.95281 0.17599 0.91786 0.0
O500 O 0.91212 0.23045 0.04965 0.0
O501 O 0.90124 0.14739 1.00527 0.0
O502 O 0.90888 0.23109 0.96735 0.0
O503 O 0.94454 0.18641 1.0062 0.0
H504 H 0.90399 0.2299 0.11869 0.0
H505 H 0.9034 0.30846 0.02346 0.0
H506 H 0.88968 0.29228 0.15216 0.0
H507 H 0.88898 0.36937 0.05842 0.0
H508 H 0.91179 1.00281 0.02404 0.0
H509 H 0.87073 0.13294 0.04839 0.0
H510 H 0.92054 0.0732 0.99526 0.0
H511 H 0.86274 0.06147 0.07604 0.0
H512 H 0.83133 0.23002 0.07652 0.0
H513 H 0.82565 0.22418 0.96156 0.0
H514 H 0.96224 0.07039 0.11552 0.0
H515 H 0.903 0.10231 0.15279 0.0
H516 H 0.92479 0.23508 0.90278 0.0
H517 H 0.8833 0.29656 0.97437 0.0
H518 H 0.91704 0.29158 0.85747 0.0
H519 H 0.87647 0.35228 0.928 0.0
H520 H 0.97396 0.23307 0.9789 0.0
H521 H 0.95306 0.10256 0.99854 0.0
H522 H 0.00411 0.20213 0.95019 0.0
H523 H 0.98356 0.07389 0.96954 0.0
H524 H 0.96198 0.37482 0.05646 0.0
H525 H 0.96146 0.36359 0.9415 0.0
H526 H 0.90188 0.07274 0.87521 0.0
H527 H 0.95782 0.14048 0.86021 0.0
Li528 Li 0.08093 0.24289 0.50981 0.0
Li529 Li 0.08831 0.17546 0.53907 0.0
Li530 Li 0.11508 0.21348 0.50436 0.0
Li531 Li 0.08586 0.17656 0.47393 0.0
C532 C 0.09657 0.24725 0.58162 0.0
N533 N 0.08757 0.27454 0.64996 0.0
C534 C 0.07674 0.2517 0.59221 0.0
C535 C 0.11185 0.25665 0.60574 0.0
C536 C 0.07248 0.26552 0.62688 0.0
C537 C 0.10699 0.27043 0.64019 0.0
C538 C 0.0489 0.16566 0.5218 0.0
C539 C 0.03214 0.09676 0.5295 0.0
N540 N 0.01766 0.11707 0.54866 0.0
C541 C 0.03373 0.18596 0.54117 0.0
C542 C 0.048 0.12081 0.51555 0.0
C543 C 0.01811 0.16079 0.55467 0.0
C544 C 0.04771 0.30126 0.50129 0.0
N545 N 0.06685 0.29728 0.51275 0.0
C546 C 0.06744 0.37212 0.53038 0.0
C547 C 0.07681 0.33175 0.52685 0.0
C548 C 0.0475 0.37723 0.51961 0.0
C549 C 0.03768 0.34117 0.50448 0.0
H550 H 0.04016 0.27334 0.48998 0.0
H551 H 0.09209 0.32782 0.53541 0.0
C552 C 0.10133 0.11266 0.58704 0.0
N553 N 0.08564 0.13968 0.58093 0.0
C554 C 0.10119 0.084 0.61593 0.0
C555 C 0.06918 0.11294 0.63333 0.0
C556 C 0.06986 0.14092 0.60374 0.0
C557 C 0.08487 0.08347 0.63929 0.0
H558 H 0.11402 0.11327 0.56933 0.0
H559 H 0.05778 0.16346 0.59906 0.0
C560 C 0.09482 0.27459 0.44954 0.0
N561 N 0.08795 0.35547 0.41949 0.0
C562 C 0.0792 0.28028 0.42533 0.0
C563 C 0.10698 0.30991 0.45844 0.0
C564 C 0.07596 0.32148 0.41042 0.0
C565 C 0.10326 0.35057 0.44296 0.0
C566 C 0.11438 0.11229 0.49262 0.0
C567 C 0.13253 0.11034 0.47442 0.0
C568 C 0.10371 0.07395 0.499 0.0
C569 C 0.13949 0.0701 0.46223 0.0
C570 C 0.11118 0.03434 0.48641 0.0
N571 N 0.12875 0.03326 0.46839 0.0
C572 C 0.15507 0.21422 0.52831 0.0
C573 C 0.1501 0.23718 0.4685 0.0
C574 C 0.17572 0.21795 0.52444 0.0
N575 N 0.14281 0.22357 0.50043 0.0
C576 C 0.17058 0.2416 0.46352 0.0
C577 C 0.18375 0.2313 0.49152 0.0
H578 H 0.14881 0.20279 0.55323 0.0
H579 H 0.14 0.24378 0.44666 0.0
C580 C 0.06026 0.13559 0.42282 0.0
N581 N 0.07946 0.14435 0.43172 0.0
C582 C 0.05593 0.11068 0.39252 0.0
C583 C 0.0912 0.10468 0.38096 0.0
C584 C 0.09479 0.1304 0.411 0.0
C585 C 0.07152 0.09416 0.37128 0.0
H586 H 0.04828 0.14791 0.43925 0.0
H587 H 0.1099 0.13897 0.41796 0.0
O588 O 0.10109 0.23353 0.54788 0.0
O589 O 0.06438 0.18973 0.50855 0.0
O590 O 0.0979 0.23487 0.46514 0.0
O591 O 0.10735 0.15144 0.50475 0.0
H592 H 0.06477 0.24441 0.57389 0.0
H593 H 0.12729 0.25332 0.59791 0.0
H594 H 0.05718 0.26903 0.63544 0.0
H595 H 0.11866 0.27786 0.65915 0.0
H596 H 0.03131 0.06197 0.52499 0.0
H597 H 0.03403 0.22076 0.54586 0.0
H598 H 0.05936 0.10481 0.49992 0.0
H599 H 0.00634 0.17601 0.56993 0.0
H600 H 0.07579 0.39909 0.54146 0.0
H601 H 0.02229 0.34342 0.49601 0.0
H602 H 0.11379 0.0625 0.62001 0.0
H603 H 0.05636 0.11364 0.65085 0.0
H604 H 0.0696 0.25322 0.41837 0.0
H605 H 0.11897 0.30611 0.47753 0.0
H606 H 0.06389 0.32646 0.39172 0.0
H607 H 0.11247 0.37827 0.44976 0.0
H608 H 0.14106 0.13964 0.46945 0.0
H609 H 0.08992 0.07465 0.51383 0.0
H610 H 0.15343 0.06817 0.44786 0.0
H611 H 0.10304 1.00443 0.49109 0.0
H612 H 0.18527 0.20913 0.54661 0.0
H613 H 0.17603 0.25266 0.43786 0.0
H614 H 0.04049 0.10471 0.38582 0.0
H615 H 0.10381 0.09263 0.36596 0.0
Li616 Li 0.92041 0.84586 0.53783 0.0
Li617 Li 0.92854 0.77481 0.50843 0.0
Li618 Li 0.91992 0.84196 0.47216 0.0
Li619 Li 0.89532 0.80562 0.50746 0.0
C620 C 0.96149 0.83189 0.5202 0.0
N621 N 0.99851 0.83227 0.55236 0.0
C622 C 0.96426 0.81128 0.55313 0.0
C623 C 0.9775 0.85286 0.50369 0.0
C624 C 0.98311 0.81174 0.56892 0.0
C625 C 0.99612 0.85269 0.52038 0.0
C626 C 0.89784 0.75677 0.56361 0.0
C627 C 0.88086 0.6876 0.55991 0.0
N628 N 0.86994 0.69833 0.58918 0.0
C629 C 0.88653 0.76701 0.59376 0.0
C630 C 0.89503 0.7167 0.54658 0.0
C631 C 0.87247 0.73707 0.60623 0.0
C632 C 0.90994 0.88765 0.60154 0.0
N633 N 0.92519 0.88322 0.57797 0.0
C634 C 0.94497 0.93366 0.61132 0.0
C635 C 0.94244 0.90588 0.58213 0.0
C636 C 0.92953 0.93856 0.63634 0.0
C637 C 0.91183 0.91497 0.63118 0.0
H638 H 0.89611 0.8706 0.59689 0.0
H639 H 0.95417 0.90308 0.56257 0.0
C640 C 0.95405 0.70638 0.48237 0.0
N641 N 0.94468 0.72328 0.51143 0.0
C642 C 0.9661 0.66922 0.48578 0.0
C643 C 0.95831 0.66736 0.54869 0.0
C644 C 0.94651 0.70438 0.54411 0.0
C645 C 0.96854 0.64947 0.51944 0.0
H646 H 0.95233 0.72202 0.45665 0.0
H647 H 0.93887 0.71828 0.56679 0.0
C648 C 0.90174 0.91334 0.50291 0.0
N649 N 0.90512 1.00307 0.50001 0.0
C650 C 0.88473 0.9395 0.50457 0.0
C651 C 0.92049 0.93282 0.49978 0.0
C652 C 0.88674 0.9848 0.50304 0.0
C653 C 0.92188 0.97823 0.49837 0.0
C654 C 0.89842 0.76299 0.44205 0.0
C655 C 0.88489 0.78921 0.42349 0.0
C656 C 0.89919 0.71824 0.43523 0.0
C657 C 0.87223 0.77009 0.39839 0.0
C658 C 0.88628 0.70036 0.40992 0.0
N659 N 0.87318 0.72644 0.39219 0.0
C660 C 0.94274 0.86694 0.4118 0.0
C661 C 0.9102 0.89674 0.41353 0.0
C662 C 0.94635 0.88705 0.3789 0.0
N663 N 0.92486 0.87189 0.42824 0.0
C664 C 0.91314 0.91732 0.38065 0.0
C665 C 0.93136 0.91232 0.36266 0.0
H666 H 0.95412 0.84694 0.42407 0.0
H667 H 0.89606 0.90002 0.42705 0.0
C668 C 0.85717 0.82305 0.5308 0.0
N669 N 0.86734 0.79349 0.51087 0.0
C670 C 0.83681 0.81797 0.53681 0.0
C671 C 0.83754 0.75236 0.50119 0.0
C672 C 0.85801 0.75832 0.49634 0.0
C673 C 0.82676 0.78231 0.52187 0.0
H674 H 0.865 0.85034 0.54249 0.0
H675 H 0.86641 0.73439 0.4816 0.0
O676 O 0.94314 0.83245 0.50441 0.0
O677 O 0.9112 0.78617 0.55012 0.0
O678 O 0.89989 0.86894 0.50462 0.0
O679 O 0.91083 0.78088 0.46692 0.0
H680 H 0.95192 0.79566 0.56657 0.0
H681 H 0.97553 0.86933 0.47835 0.0
H682 H 0.98548 0.79596 0.59442 0.0
H683 H 0.00864 0.86886 0.50795 0.0
H684 H 0.87844 0.65663 0.54684 0.0
H685 H 0.8885 0.79773 0.60737 0.0
H686 H 0.90343 0.70848 0.52289 0.0
H687 H 0.86354 0.74466 0.62943 0.0
H688 H 0.95889 0.95113 0.61424 0.0
H689 H 0.89938 0.91849 0.64929 0.0
H690 H 0.97379 0.65678 0.46252 0.0
H691 H 0.95938 0.65289 0.57501 0.0
H692 H 0.87011 0.92492 0.507 0.0
H693 H 0.93385 0.91326 0.49842 0.0
H694 H 0.8737 1.00545 0.50428 0.0
H695 H 0.93629 0.99373 0.49596 0.0
H696 H 0.88395 0.82378 0.42885 0.0
H697 H 0.90958 0.69756 0.44949 0.0
H698 H 0.8616 0.78992 0.38394 0.0
H699 H 0.88665 0.66576 0.40442 0.0
H700 H 0.96073 0.88275 0.36633 0.0
H701 H 0.90104 0.93594 0.36905 0.0
H702 H 0.82898 0.8418 0.55287 0.0
H703 H 0.83032 0.72408 0.48971 0.0
H704 H 0.79753 0.27051 0.97797 0.0
H705 H 0.80319 0.1836 0.06911 0.0
H706 H 0.76674 0.18333 0.07614 0.0
H707 H 0.75682 0.33399 0.01171 0.0
H708 H 0.74452 0.33911 0.96912 0.0
H709 H 0.77117 0.33282 0.97105 0.0
H710 H 0.76891 0.26541 0.92965 0.0
H711 H 0.74225 0.27156 0.92752 0.0
H712 H 0.75295 0.22056 0.94191 0.0
H713 H 0.72992 0.19254 0.07391 0.0
H714 H 0.69476 0.21072 0.06245 0.0
H715 H 0.71246 0.28945 0.97134 0.0
C716 C 0.7911 0.25118 0.99926 0.0
C717 C 0.80332 0.22742 0.02321 0.0
C718 C 0.79425 0.20284 0.05087 0.0
C719 C 0.77353 0.20217 0.05494 0.0
C720 C 0.76198 0.22606 0.03104 0.0
C721 C 0.77038 0.25005 1.00369 0.0
C722 C 0.75447 0.27282 0.98173 0.0
C723 C 0.75689 0.32264 0.98353 0.0
C724 C 0.75466 0.2566 0.9429 0.0
C725 C 0.73586 0.25795 1.00116 0.0
C726 C 0.74057 0.23096 0.02947 0.0
C727 C 0.726 0.21338 0.05164 0.0
C728 C 0.70604 0.22365 0.04472 0.0
C729 C 0.70076 0.25119 0.01579 0.0
C730 C 0.71597 0.2685 0.99378 0.0
H731 H 0.20798 0.7385 0.98683 0.0
H732 H 0.20384 0.84495 0.0629 0.0
H733 H 0.24033 0.84596 0.0683 0.0
H734 H 0.24926 0.68309 0.02738 0.0
H735 H 0.26084 0.66867 0.98563 0.0
H736 H 0.23423 0.67546 0.98798 0.0
H737 H 0.23571 0.73272 0.93712 0.0
H738 H 0.26233 0.726 0.93454 0.0
H739 H 0.25183 0.77939 0.94165 0.0
H740 H 0.27711 0.83574 0.06593 0.0
H741 H 0.31209 0.81535 0.05526 0.0
H742 H 0.29288 0.718 0.9785 0.0
C743 C 0.21472 0.76222 1.00446 0.0
C744 C 0.20289 0.79127 0.02478 0.0
C745 C 0.21242 0.82158 0.0477 0.0
C746 C 0.2332 0.8227 0.05075 0.0
C747 C 0.24435 0.79358 0.03051 0.0
C748 C 0.2355 0.76401 0.00769 0.0
C749 C 0.25105 0.73668 0.98867 0.0
C750 C 0.2487 0.6881 0.99799 0.0
C751 C 0.25017 0.74416 0.94809 0.0
C752 C 0.26997 0.75542 1.00457 0.0
C753 C 0.26572 0.78821 0.02862 0.0
C754 C 0.28066 0.81033 0.04695 0.0
C755 C 0.3005 0.79871 0.04049 0.0
C756 C 0.30531 0.76535 0.01579 0.0
C757 C 0.28974 0.74345 0.9977 0.0
H758 H 0.7972 0.7659 0.47304 0.0
H759 H 0.80787 0.78475 0.58618 0.0
H760 H 0.77193 0.77522 0.59815 0.0
H761 H 0.75083 0.82475 0.46994 0.0
H762 H 0.73945 0.78871 0.43792 0.0
H763 H 0.76608 0.79577 0.43826 0.0
H764 H 0.7708 0.71232 0.44516 0.0
H765 H 0.74419 0.70499 0.44475 0.0
H766 H 0.75874 0.6842 0.48149 0.0
H767 H 0.73514 0.76229 0.59803 0.0
H768 H 0.69941 0.74999 0.58549 0.0
H769 H 0.71226 0.74248 0.47221 0.0
C770 C 0.79193 0.76769 0.50033 0.0
C771 C 0.80524 0.77594 0.52876 0.0
C772 C 0.79785 0.7787 0.56407 0.0
C773 C 0.77751 0.77319 0.57111 0.0
C774 C 0.76475 0.76533 0.54251 0.0
C775 C 0.77161 0.76284 0.50779 0.0
C776 C 0.75463 0.75517 0.48185 0.0
C777 C 0.75263 0.79338 0.45544 0.0
C778 C 0.75725 0.71157 0.46216 0.0
C779 C 0.73718 0.75357 0.50744 0.0
C780 C 0.74339 0.75918 0.54232 0.0
C781 C 0.73008 0.75801 0.57082 0.0
C782 C 0.70987 0.75087 0.56349 0.0
C783 C 0.70316 0.74544 0.52794 0.0
C784 C 0.71701 0.74701 0.4996 0.0
H785 H 0.21287 0.25889 0.5385 0.0
H786 H 0.20438 0.20711 0.43168 0.0
H787 H 0.2405 0.21154 0.4211 0.0
H788 H 0.25162 0.33385 0.51703 0.0
H789 H 0.26548 0.32476 0.55758 0.0
H790 H 0.23889 0.31723 0.55717 0.0
H791 H 0.24334 0.23831 0.58063 0.0
H792 H 0.26996 0.24561 0.58116 0.0
H793 H 0.25915 0.20098 0.55661 0.0
H794 H 0.27719 0.22362 0.42103 0.0
H795 H 0.31256 0.24096 0.43225 0.0
H796 H 0.29782 0.282 0.53982 0.0
C797 C 0.21861 0.24801 0.51303 0.0
C798 C 0.20568 0.23306 0.48581 0.0
C799 C 0.21386 0.2196 0.45271 0.0
C800 C 0.2344 0.22162 0.44651 0.0
C801 C 0.24666 0.23682 0.47375 0.0
C802 C 0.23914 0.24956 0.50643 0.0
C803 C 0.25565 0.26492 0.53103 0.0
C804 C 0.25273 0.31305 0.54129 0.0
C805 C 0.25711 0.2357 0.56433 0.0
C806 C 0.27359 0.25907 0.50693 0.0
C807 C 0.26801 0.2429 0.47399 0.0
C808 C 0.28177 0.23605 0.44678 0.0
C809 C 0.30178 0.24614 0.45333 0.0
C810 C 0.30786 0.26269 0.48687 0.0
C811 C 0.29358 0.26887 0.51409 0.0
H812 H 0.59494 0.49749 0.17169 0.0
H813 H 0.54639 0.40696 0.1906 0.0
H814 H 0.54038 0.4408 0.24939 0.0
H815 H 0.61379 0.49783 0.26081 0.0
H816 H 0.62002 0.55499 0.2607 0.0
H817 H 0.62007 0.52478 0.21952 0.0
H818 H 0.59526 0.58005 0.19184 0.0
H819 H 0.5952 0.61056 0.23289 0.0
H820 H 0.57207 0.59116 0.21432 0.0
H821 H 0.54106 0.48129 0.30761 0.0
H822 H 0.54716 0.52783 0.35989 0.0
H823 H 0.59412 0.5949 0.30176 0.0
C824 C 0.58302 0.48483 0.18818 0.0
C825 C 0.57109 0.44962 0.17648 0.0
C826 C 0.55554 0.43427 0.19875 0.0
C827 C 0.55209 0.45309 0.23229 0.0
C828 C 0.56424 0.48744 0.24312 0.0
C829 C 0.57929 0.50341 0.22164 0.0
C830 C 0.59029 0.54046 0.23973 0.0
C831 C 0.61235 0.5288 0.24553 0.0
C832 C 0.58806 0.58308 0.21842 0.0
C833 C 0.57914 0.54259 0.27485 0.0
C834 C 0.56425 0.5116 0.27632 0.0
C835 C 0.55247 0.50617 0.30656 0.0
C836 C 0.55597 0.53316 0.3361 0.0
C837 C 0.57101 0.56569 0.3352 0.0
C838 C 0.58262 0.57031 0.30384 0.0
H839 H 0.43441 0.59363 0.20569 0.0
H840 H 0.41921 0.49014 0.13176 0.0
H841 H 0.42122 0.43633 0.18075 0.0
H842 H 0.46898 0.53061 0.26116 0.0
H843 H 0.4608 0.55545 0.30218 0.0
H844 H 0.45949 0.58561 0.26092 0.0
H845 H 0.42182 0.59895 0.27119 0.0
H846 H 0.423 0.56873 0.31238 0.0
H847 H 0.40552 0.55301 0.2782 0.0
H848 H 0.42387 0.39419 0.23738 0.0
H849 H 0.42579 0.36622 0.29902 0.0
H850 H 0.43864 0.49678 0.3373 0.0
C851 C 0.43182 0.55953 0.19986 0.0
C852 C 0.42675 0.54586 0.16499 0.0
C853 C 0.42306 0.50116 0.15835 0.0
C854 C 0.42424 0.47039 0.18594 0.0
C855 C 0.42903 0.48488 0.22009 0.0
C856 C 0.4327 0.52835 0.22726 0.0
C857 C 0.43654 0.53536 0.26677 0.0
C858 C 0.45771 0.55279 0.27312 0.0
C859 C 0.42078 0.56581 0.28309 0.0
C860 C 0.43433 0.48909 0.2806 0.0
C861 C 0.43018 0.46051 0.25311 0.0
C862 C 0.42726 0.41616 0.25913 0.0
C863 C 0.42851 0.40054 0.29422 0.0
C864 C 0.43254 0.42919 0.32297 0.0
C865 C 0.43552 0.47408 0.3159 0.0
H866 H 0.40911 0.58513 0.80614 0.0
H867 H 0.46208 0.53477 0.85855 0.0
H868 H 0.46834 0.4867 0.80708 0.0
H869 H 0.39339 0.48289 0.76774 0.0
H870 H 0.38459 0.50721 0.72682 0.0
H871 H 0.38431 0.53822 0.76762 0.0
H872 H 0.40528 0.59879 0.73739 0.0
H873 H 0.40562 0.56798 0.6965 0.0
H874 H 0.4287 0.58488 0.71682 0.0
H875 H 0.46866 0.44327 0.75078 0.0
H876 H 0.4633 0.40771 0.6927 0.0
H877 H 0.41034 0.48664 0.67597 0.0
C878 C 0.42196 0.5638 0.80691 0.0
C879 C 0.43516 0.56395 0.83639 0.0
C880 C 0.45193 0.53583 0.83608 0.0
C881 C 0.45555 0.50817 0.80707 0.0
C882 C 0.44227 0.50889 0.7785 0.0
C883 C 0.42582 0.53596 0.77811 0.0
C884 C 0.41394 0.53034 0.74397 0.0
C885 C 0.39281 0.51367 0.75203 0.0
C886 C 0.41336 0.57304 0.7224 0.0
C887 C 0.42629 0.49586 0.72529 0.0
C888 C 0.44254 0.48395 0.74575 0.0
C889 C 0.45607 0.45252 0.73438 0.0
C890 C 0.45296 0.43274 0.70116 0.0
C891 C 0.4365 0.44455 0.67943 0.0
C892 C 0.42299 0.47656 0.69191 0.0
H893 H 0.582 0.49692 0.83941 0.0
H894 H 0.56797 0.36717 0.80043 0.0
H895 H 0.56524 0.39612 0.73931 0.0
H896 H 0.54956 0.55659 0.77912 0.0
H897 H 0.56686 0.60086 0.77283 0.0
H898 H 0.56685 0.57059 0.8141 0.0
H899 H 0.60435 0.55338 0.80602 0.0
H900 H 0.6045 0.5837 0.76482 0.0
H901 H 0.61272 0.52774 0.76543 0.0
H902 H 0.56504 0.43791 0.68232 0.0
H903 H 0.56781 0.49018 0.63251 0.0
H904 H 0.58285 0.59295 0.7074 0.0
C905 C 0.57837 0.47457 0.81804 0.0
C906 C 0.57498 0.42975 0.82495 0.0
C907 C 0.57018 0.40175 0.79611 0.0
C908 C 0.56872 0.41783 0.76119 0.0
C909 C 0.57213 0.46203 0.75537 0.0
C910 C 0.57688 0.49008 0.7829 0.0
C911 C 0.58033 0.536 0.76905 0.0
C912 C 0.56498 0.56788 0.78471 0.0
C913 C 0.60175 0.55107 0.77679 0.0
C914 C 0.57696 0.52918 0.7294 0.0
C915 C 0.57217 0.48626 0.7222 0.0
C916 C 0.56876 0.47162 0.68758 0.0
C917 C 0.57047 0.50152 0.65946 0.0
C918 C 0.57561 0.54561 0.666 0.0
C919 C 0.57868 0.5596 0.70157 0.0
H920 H 0.09257 0.98585 0.18052 0.0
H921 H 0.03784 0.91212 0.19433 0.0
H922 H 0.03266 0.94726 0.25267 0.0
H923 H 0.10849 0.98429 0.27111 0.0
H924 H 0.11778 0.03943 0.27075 0.0
H925 H 0.11745 0.00812 0.23012 0.0
H926 H 0.0967 0.06847 0.19902 0.0
H927 H 0.09709 0.10011 0.23949 0.0
H928 H 0.07365 0.08626 0.21892 0.0
H929 H 0.03402 0.98849 0.31059 0.0
H930 H 0.04087 0.03529 0.36243 0.0
H931 H 0.09292 0.08753 0.30819 0.0
C932 C 0.07932 0.97741 0.19543 0.0
C933 C 0.0657 0.94575 0.18263 0.0
C934 C 0.04876 0.93543 0.20363 0.0
C935 C 0.04558 0.9555 0.23678 0.0
C936 C 0.05934 0.98626 0.24854 0.0
C937 C 0.07577 0.99751 0.22837 0.0
C938 C 0.08816 0.03202 0.24698 0.0
C939 C 0.10921 0.01492 0.25523 0.0
C940 C 0.08893 0.07421 0.22478 0.0
C941 C 0.07616 0.03821 0.28086 0.0
C942 C 0.05968 0.01132 0.28132 0.0
C943 C 0.04673 0.01018 0.31031 0.0
C944 C 0.05068 0.03731 0.33959 0.0
C945 C 0.06735 0.0658 0.33966 0.0
C946 C 0.08015 0.06607 0.30957 0.0
H947 H 0.91873 0.99271 0.3381 0.0
H948 H 0.95063 0.87622 0.30532 0.0
H949 H 0.95518 0.90769 0.2453 0.0
H950 H 0.8924 0.00832 0.25554 0.0
H951 H 0.89389 0.06698 0.25697 0.0
H952 H 0.89369 0.03604 0.29788 0.0
H953 H 0.92675 0.07262 0.31719 0.0
H954 H 0.92704 0.10371 0.27635 0.0
H955 H 0.94807 0.07 0.28803 0.0
H956 H 0.9554 0.95052 0.18827 0.0
H957 H 0.95153 1.00212 0.13826 0.0
H958 H 0.91976 0.09127 0.208 0.0
C959 C 0.92661 0.97369 0.31831 0.0
C960 C 0.93443 0.93199 0.32666 0.0
C961 C 0.94482 0.90851 0.29993 0.0
C962 C 0.94737 0.92598 0.26562 0.0
C963 C 0.93942 0.96699 0.25831 0.0
C964 C 0.92927 0.9906 0.28387 0.0
C965 C 0.92201 0.03376 0.26889 0.0
C966 C 0.89914 0.03641 0.26988 0.0
C967 C 0.93155 0.07229 0.2888 0.0
C968 C 0.92964 0.03061 0.2309 0.0
C969 C 0.93963 0.99183 0.22539 0.0
C970 C 0.94775 0.98118 0.19233 0.0
C971 C 0.9456 0.01093 0.16412 0.0
C972 C 0.93547 0.05108 0.16906 0.0
C973 C 0.92744 0.06083 0.20309 0.0
H974 H 0.91765 0.92671 0.70619 0.0
H975 H 0.94589 0.02026 0.63535 0.0
H976 H 0.9492 0.07191 0.68539 0.0
H977 H 0.88951 1.00522 0.75725 0.0
H978 H 0.89269 0.97686 0.79905 0.0
H979 H 0.89262 0.94682 0.75776 0.0
H980 H 0.92709 0.91397 0.77342 0.0
H981 H 0.92725 0.94385 0.81478 0.0
H982 H 0.94755 0.94989 0.78369 0.0
H983 H 0.94859 0.11422 0.74219 0.0
H984 H 0.94522 0.14396 0.80274 0.0
H985 H 0.91844 0.02224 0.83798 0.0
C986 C 0.92443 0.95815 0.70117 0.0
C987 C 0.93159 0.96933 0.6668 0.0
C988 C 0.94057 0.01065 0.66149 0.0
C989 C 0.94239 0.04035 0.6897 0.0
C990 C 0.9352 0.02831 0.72314 0.0
C991 C 0.92645 0.9882 0.72911 0.0
C992 C 0.92008 0.98343 0.76778 0.0
C993 C 0.89738 0.97776 0.77061 0.0
C994 C 0.93116 0.94554 0.78599 0.0
C995 C 0.92665 0.02714 0.78257 0.0
C996 C 0.93522 0.05253 0.75627 0.0
C997 C 0.94211 0.09447 0.76313 0.0
C998 C 0.94028 0.11092 0.79784 0.0
C999 C 0.93183 0.08538 0.8256 0.0
C1000 C 0.92488 0.04287 0.81756 0.0
H1001 H 0.07564 0.99989 0.84158 0.0
H1002 H 0.09295 0.87216 0.80232 0.0
H1003 H 0.09387 0.90097 0.74103 0.0
H1004 H 0.04345 0.02748 0.76583 0.0
H1005 H 0.0505 0.08419 0.76582 0.0
H1006 H 0.05074 0.05355 0.80692 0.0
H1007 H 0.0877 0.07442 0.81684 0.0
H1008 H 0.0876 0.10505 0.77579 0.0
H1009 H 0.10573 0.06247 0.78258 0.0
H1010 H 0.09422 0.94324 0.6846 0.0
H1011 H 0.09346 0.99689 0.63555 0.0
H1012 H 0.07502 0.09746 0.70994 0.0
C1013 C 0.07937 0.97785 0.82005 0.0
C1014 C 0.08442 0.93377 0.82695 0.0
C1015 C 0.08942 0.90621 0.79794 0.0
C1016 C 0.08983 0.92217 0.76293 0.0
C1017 C 0.08501 0.96573 0.75714 0.0
C1018 C 0.07976 0.99323 0.78475 0.0
C1019 C 0.07557 0.03893 0.77098 0.0
C1020 C 0.05377 0.05178 0.77779 0.0
C1021 C 0.09002 0.07217 0.78753 0.0
C1022 C 0.07955 0.0328 0.73142 0.0
C1023 C 0.08493 0.99023 0.72415 0.0
C1024 C 0.08993 0.97663 0.68988 0.0
C1025 C 0.08955 0.00738 0.66224 0.0
C1026 C 0.08421 0.0513 0.66893 0.0
C1027 C 0.07894 0.064 0.70398 0.0
H1028 H 0.49358 0.912 0.98356 0.0
H1029 H 0.45066 0.93755 0.06759 0.0
H1030 H 0.46471 0.01115 0.0756 0.0
H1031 H 0.53467 0.96865 0.02443 0.0
H1032 H 0.54421 0.98997 0.98295 0.0
H1033 H 0.53068 0.93927 0.98339 0.0
H1034 H 0.50608 0.97009 0.9364 0.0
H1035 H 0.5195 0.02095 0.9359 0.0
H1036 H 0.49318 0.02048 0.94533 0.0
H1037 H 0.48277 0.08213 0.07399 0.0
H1038 H 0.50464 0.14544 0.06468 0.0
H1039 H 0.53692 0.07391 0.98304 0.0
C1040 C 0.4871 0.93319 1.00352 0.0
C1041 C 0.47106 0.91887 0.0251 0.0
C1042 C 0.46312 0.94748 0.05114 0.0
C1043 C 0.47091 0.98948 0.05572 0.0
C1044 C 0.4867 1.00253 0.03412 0.0
C1045 C 0.4948 0.97527 0.00864 0.0
C1046 C 0.51196 0.99734 0.98941 0.0
C1047 C 0.53154 0.97231 0.99542 0.0
C1048 C 0.5074 1.00252 0.94939 0.0
C1049 C 0.51222 0.04119 0.00815 0.0
C1050 C 0.49743 0.04347 0.03367 0.0
C1051 C 0.49453 0.08063 0.05429 0.0
C1052 C 0.50718 0.11638 0.04896 0.0
C1053 C 0.52275 0.11479 0.02341 0.0
C1054 C 0.52513 0.07655 1.00261 0.0
H1055 H 0.53131 0.93218 0.47294 0.0
H1056 H 0.51989 0.88959 0.58169 0.0
H1057 H 0.49993 0.95562 0.59214 0.0
H1058 H 0.53548 0.04595 0.49131 0.0
H1059 H 0.52282 0.06331 0.45128 0.0
H1060 H 0.5362 0.01241 0.45185 0.0
H1061 H 0.50434 0.97161 0.43183 0.0
H1062 H 0.49086 0.02242 0.43109 0.0
H1063 H 0.48178 0.97742 0.45746 0.0
H1064 H 0.48207 0.02677 0.59186 0.0
H1065 H 0.46622 0.09792 0.58001 0.0
H1066 H 0.48782 0.09419 0.47089 0.0
C1067 C 0.52442 0.93642 0.49882 0.0
C1068 C 0.52743 0.90567 0.52661 0.0
C1069 C 0.51826 0.91294 0.56018 0.0
C1070 C 0.50673 0.95025 0.56634 0.0
C1071 C 0.50428 0.98002 0.5386 0.0
C1072 C 0.51272 0.97348 0.50541 0.0
C1073 C 0.5077 0.01083 0.48028 0.0
C1074 C 0.52668 0.03452 0.46797 0.0
C1075 C 0.49544 0.99459 0.44827 0.0
C1076 C 0.49526 0.03942 0.50468 0.0
C1077 C 0.49356 0.02097 0.53822 0.0
C1078 C 0.48323 0.04151 0.56568 0.0
C1079 C 0.47438 0.08203 0.55875 0.0
C1080 C 0.47583 0.10166 0.52459 0.0
C1081 C 0.48633 0.07981 0.49717 0.0
H1082 H 0.03862 0.57344 0.03292 0.0
H1083 H 0.0037 0.64731 0.95601 0.0
H1084 H 0.98131 0.58468 0.94846 0.0
H1085 H 0.03457 0.46966 0.99068 0.0
H1086 H 0.03196 0.4392 0.0316 0.0
H1087 H 0.0455 0.48989 0.03138 0.0
H1088 H 0.02259 0.51983 0.08125 0.0
H1089 H 0.00901 0.46915 0.08169 0.0
H1090 H 0.99598 0.51987 0.07475 0.0
H1091 H 0.96324 0.51408 0.94729 0.0
H1092 H 0.94961 0.43998 0.95472 0.0
H1093 H 0.99476 0.4117 0.03443 0.0
C1094 C 0.02615 0.5767 0.01479 0.0
C1095 C 0.02322 0.6154 0.99467 0.0
C1096 C 0.00671 0.61787 0.97106 0.0
C1097 C 0.99374 0.58252 0.96678 0.0
C1098 C 0.99721 0.54488 0.98659 0.0
C1099 C 0.01287 0.54173 0.01039 0.0
C1100 C 0.01308 0.49732 0.02845 0.0
C1101 C 0.03243 0.47256 0.02001 0.0
C1102 C 0.00998 0.50183 0.06894 0.0
C1103 C 0.99521 0.476 0.01074 0.0
C1104 C 0.98636 0.50412 0.98663 0.0
C1105 C 0.96997 0.4918 0.96621 0.0
C1106 C 0.96241 0.44957 0.97047 0.0
C1107 C 0.97113 0.42007 0.99507 0.0
C1108 C 0.98768 0.43369 0.01565 0.0
H1109 H 0.02023 0.41894 0.47549 0.0
H1110 H 0.05069 0.43124 0.57735 0.0
H1111 H 0.03442 0.50206 0.58713 0.0
H1112 H 0.02237 0.53213 0.45069 0.0
H1113 H 0.99782 0.53333 0.43119 0.0
H1114 H 0.01191 0.48332 0.43156 0.0
H1115 H 0.98296 0.44405 0.464 0.0
H1116 H 0.96873 0.49387 0.46355 0.0
H1117 H 0.97348 0.4662 0.50518 0.0
H1118 H 0.01547 0.57152 0.58612 0.0
H1119 H 0.99389 0.63502 0.57535 0.0
H1120 H 0.97418 0.57789 0.47533 0.0
C1121 C 0.02336 0.43635 0.49998 0.0
C1122 C 0.037 0.41953 0.52544 0.0
C1123 C 0.04072 0.44367 0.55701 0.0
C1124 C 0.03143 0.4839 0.56297 0.0
C1125 C 0.0183 0.49968 0.53725 0.0
C1126 C 0.01413 0.4767 0.50647 0.0
C1127 C 0.99924 0.50123 0.48339 0.0
C1128 C 0.00839 0.51321 0.44706 0.0
C1129 C 0.97996 0.47476 0.47877 0.0
C1130 C 0.99576 0.54154 0.50607 0.0
C1131 C 0.00698 0.53984 0.53697 0.0
C1132 C 0.00648 0.57311 0.56217 0.0
C1133 C 0.99405 0.60897 0.55587 0.0
C1134 C 0.9821 0.61142 0.52469 0.0
C1135 C 0.98317 0.57723 0.49934 0.0
loop_
_geom_bond_atom_site_label_1
_geom_bond_atom_site_label_2
_geom_bond_distance
_geom_bond_site_symmetry_2
_ccdc_geom_bond_type
Li0 N17 1.990 . S
Li0 O60 1.935 1_554 S
Li0 O61 1.970 . S
Li0 O62 1.961 . S
Li1 N25 1.990 . S
Li1 O60 1.969 1_554 S
Li1 O61 1.956 . S
Li1 O63 1.961 1_554 S
Li2 N47 1.990 . S
Li2 O60 1.981 . S
Li2 O62 1.956 1_556 S
Li2 O63 1.970 . S
Li3 N53 1.991 . S
Li3 O61 1.938 1_556 S
Li3 O62 1.969 1_556 S
Li3 O63 1.978 . S
C4 C6 1.349 1_556 S
C4 C7 1.355 . S
C4 O60 1.324 . S
N5 C8 1.314 . S
N5 C9 1.279 1_554 S
C6 C4 1.349 1_554 S
C6 C8 1.353 . S
C6 H64 0.929 . S
C7 C4 1.355 . S
C7 C9 1.358 . S
C7 H65 0.930 . S
C8 N5 1.314 . S
C8 C6 1.353 . S
C8 H66 0.930 . S
C9 N5 1.279 1_556 S
C9 C7 1.358 . S
C9 H67 0.930 . S
C10 C13 1.348 . S
C10 C14 1.356 . S
C10 O61 1.325 . S
C11 N12 1.279 . S
C11 C14 1.358 . S
C11 H68 0.930 . S
N12 C11 1.279 . S
N12 C15 1.314 . S
C13 C10 1.348 . S
C13 C15 1.353 . S
C13 H69 0.929 . S
C14 C10 1.356 . S
C14 C11 1.358 . S
C14 H70 0.930 . S
C15 N12 1.314 . S
C15 C13 1.353 . S
C15 H71 0.930 . S
C16 N17 1.314 . S
C16 C21 1.353 . S
C16 H22 0.930 . S
N17 Li0 1.990 . S
N17 C16 1.314 . S
N17 C19 1.279 . S
C18 C19 1.358 . S
C18 C20 1.356 . S
C18 H72 0.930 . S
C19 N17 1.279 . S
C19 C18 1.358 . S
C19 H23 0.930 . S
C20 C18 1.356 . S
C20 C21 1.348 . S
C21 C16 1.353 . S
C21 C20 1.348 . S
C21 H73 0.929 . S
H22 C16 0.930 . S
H23 C19 0.930 . S
C24 N25 1.314 1_556 S
C24 C26 1.353 . S
C24 H30 0.930 . S
N25 Li1 1.990 . S
N25 C24 1.314 1_554 S
N25 C28 1.279 . S
C26 C24 1.353 . S
C26 C29 1.345 1_556 S
C26 H74 0.929 . S
C27 C28 1.358 . S
C27 C29 1.359 . S
C27 H75 0.930 . S
C28 N25 1.279 . S
C28 C27 1.358 . S
C28 H31 0.930 . S
C29 C26 1.345 1_554 S
C29 C27 1.359 . S
H30 C24 0.930 . S
H31 C28 0.930 . S
C32 C34 1.346 1_554 S
C32 C35 1.357 . S
C32 O62 1.325 . S
N33 C36 1.314 . S
N33 C37 1.279 1_556 S
C34 C32 1.346 1_556 S
C34 C36 1.353 . S
C34 H76 0.929 . S
C35 C32 1.357 . S
C35 C37 1.358 . S
C35 H77 0.930 . S
C36 N33 1.314 . S
C36 C34 1.353 . S
C36 H78 0.930 . S
C37 N33 1.279 1_554 S
C37 C35 1.358 . S
C37 H79 0.930 . S
C38 C39 1.348 . S
C38 C40 1.356 . S
C38 O63 1.325 . S
C39 C38 1.348 . S
C39 C41 1.353 . S
C39 H80 0.929 . S
C40 C38 1.356 . S
C40 C42 1.358 . S
C40 H81 0.930 . S
C41 C39 1.353 . S
C41 N43 1.314 . S
C41 H82 0.930 . S
C42 C40 1.358 . S
C42 N43 1.279 . S
C42 H83 0.930 . S
N43 C41 1.314 . S
N43 C42 1.279 . S
C44 C46 1.353 . S
C44 N47 1.314 . S
C44 H50 0.930 . S
C45 N47 1.279 . S
C45 C48 1.358 . S
C45 H51 0.930 . S
C46 C44 1.353 . S
C46 C49 1.348 . S
C46 H84 0.929 . S
N47 Li2 1.990 . S
N47 C44 1.314 . S
N47 C45 1.279 . S
C48 C45 1.358 . S
C48 C49 1.356 . S
C48 H85 0.930 . S
C49 C46 1.348 . S
C49 C48 1.356 . S
H50 C44 0.930 . S
H51 C45 0.930 . S
C52 N53 1.314 1_554 S
C52 C54 1.353 . S
C52 H58 0.930 . S
N53 Li3 1.991 . S
N53 C52 1.314 1_556 S
N53 C56 1.279 . S
C54 C52 1.353 . S
C54 C57 1.345 . S
C54 H86 0.929 . S
C55 C56 1.358 . S
C55 C57 1.359 1_556 S
C55 H87 0.930 . S
C56 N53 1.279 . S
C56 C55 1.358 . S
C56 H59 0.930 . S
C57 C54 1.345 . S
C57 C55 1.359 1_554 S
H58 C52 0.930 . S
H59 C56 0.930 . S
O60 Li0 1.935 1_556 S
O60 Li1 1.969 1_556 S
O60 Li2 1.981 . S
O60 C4 1.324 . S
O61 Li0 1.970 . S
O61 Li1 1.956 . S
O61 Li3 1.938 1_554 S
O61 C10 1.325 . S
O62 Li0 1.961 . S
O62 Li2 1.956 1_554 S
O62 Li3 1.969 1_554 S
O62 C32 1.325 . S
O63 Li1 1.961 1_556 S
O63 Li2 1.970 . S
O63 Li3 1.978 . S
O63 C38 1.325 . S
H64 C6 0.929 . S
H65 C7 0.930 . S
H66 C8 0.930 . S
H67 C9 0.930 . S
H68 C11 0.930 . S
H69 C13 0.929 . S
H70 C14 0.930 . S
H71 C15 0.930 . S
H72 C18 0.930 . S
H73 C21 0.929 . S
H74 C26 0.929 . S
H75 C27 0.930 . S
H76 C34 0.929 . S
H77 C35 0.930 . S
H78 C36 0.930 . S
H79 C37 0.930 . S
H80 C39 0.929 . S
H81 C40 0.930 . S
H82 C41 0.930 . S
H83 C42 0.930 . S
H84 C46 0.929 . S
H85 C48 0.930 . S
H86 C54 0.929 . S
H87 C55 0.930 . S
Li88 N105 1.990 . S
Li88 O148 1.956 . S
Li88 O149 1.969 1_554 S
Li88 O150 1.961 1_554 S
Li89 N113 1.990 . S
Li89 O148 1.970 . S
Li89 O149 1.935 1_554 S
Li89 O151 1.961 . S
Li90 N135 1.991 . S
Li90 O148 1.938 1_556 S
Li90 O150 1.978 . S
Li90 O151 1.969 1_556 S
Li91 N141 1.990 . S
Li91 O149 1.981 . S
Li91 O150 1.970 . S
Li91 O151 1.956 1_556 S
C92 C94 1.348 . S
C92 C95 1.356 . S
C92 O148 1.325 . S
N93 C96 1.314 . S
N93 C97 1.279 . S
C94 C92 1.348 . S
C94 C96 1.353 . S
C94 H152 0.929 . S
C95 C92 1.356 . S
C95 C97 1.358 . S
C95 H153 0.930 . S
C96 N93 1.314 . S
C96 C94 1.353 . S
C96 H154 0.930 . S
C97 N93 1.279 . S
C97 C95 1.358 . S
C97 H155 0.930 . S
C98 C101 1.349 1_556 S
C98 C102 1.355 . S
C98 O149 1.324 . S
C99 N100 1.279 1_556 S
C99 C102 1.358 . S
C99 H156 0.930 . S
N100 C99 1.279 1_554 S
N100 C103 1.314 . S
C101 C98 1.349 1_554 S
C101 C103 1.353 . S
C101 H157 0.929 . S
C102 C98 1.355 . S
C102 C99 1.358 . S
C102 H158 0.930 . S
C103 N100 1.314 . S
C103 C101 1.353 . S
C103 H159 0.930 . S
C104 N105 1.314 1_556 S
C104 C109 1.353 . S
C104 H110 0.930 . S
N105 Li88 1.990 . S
N105 C104 1.314 1_554 S
N105 C107 1.279 . S
C106 C107 1.358 . S
C106 C108 1.359 . S
C106 H160 0.930 . S
C107 N105 1.279 . S
C107 C106 1.358 . S
C107 H111 0.930 . S
C108 C106 1.359 . S
C108 C109 1.345 1_554 S
C109 C104 1.353 . S
C109 C108 1.345 1_556 S
C109 H161 0.929 . S
H110 C104 0.930 . S
H111 C107 0.930 . S
C112 N113 1.314 . S
C112 C114 1.353 . S
C112 H118 0.930 . S
N113 Li89 1.990 . S
N113 C112 1.314 . S
N113 C116 1.279 . S
C114 C112 1.353 . S
C114 C117 1.348 . S
C114 H162 0.929 . S
C115 C116 1.358 . S
C115 C117 1.356 . S
C115 H163 0.930 . S
C116 N113 1.279 . S
C116 C115 1.358 . S
C116 H119 0.930 . S
C117 C114 1.348 . S
C117 C115 1.356 . S
H118 C112 0.930 . S
H119 C116 0.930 . S
C120 C122 1.348 . S
C120 C123 1.356 . S
C120 O150 1.325 . S
N121 C124 1.314 . S
N121 C125 1.279 . S
C122 C120 1.348 . S
C122 C124 1.353 . S
C122 H164 0.929 . S
C123 C120 1.356 . S
C123 C125 1.358 . S
C123 H165 0.930 . S
C124 N121 1.314 . S
C124 C122 1.353 . S
C124 H166 0.930 . S
C125 N121 1.279 . S
C125 C123 1.358 . S
C125 H167 0.930 . S
C126 C127 1.346 1_554 S
C126 C128 1.357 . S
C126 O151 1.325 . S
C127 C126 1.346 1_556 S
C127 C129 1.353 . S
C127 H168 0.929 . S
C128 C126 1.357 . S
C128 C130 1.358 . S
C128 H169 0.930 . S
C129 C127 1.353 . S
C129 N131 1.314 . S
C129 H170 0.930 . S
C130 C128 1.358 . S
C130 N131 1.279 1_554 S
C130 H171 0.930 . S
N131 C129 1.314 . S
N131 C130 1.279 1_556 S
C132 C134 1.353 . S
C132 N135 1.314 1_554 S
C132 H138 0.930 . S
C133 N135 1.279 . S
C133 C136 1.358 . S
C133 H139 0.930 . S
C134 C132 1.353 . S
C134 C137 1.345 . S
C134 H172 0.929 . S
N135 Li90 1.991 . S
N135 C132 1.314 1_556 S
N135 C133 1.279 . S
C136 C133 1.358 . S
C136 C137 1.359 1_556 S
C136 H173 0.930 . S
C137 C134 1.345 . S
C137 C136 1.359 1_554 S
H138 C132 0.930 . S
H139 C133 0.930 . S
C140 N141 1.314 . S
C140 C142 1.353 . S
C140 H146 0.930 . S
N141 Li91 1.990 . S
N141 C140 1.314 . S
N141 C144 1.279 . S
C142 C140 1.353 . S
C142 C145 1.348 . S
C142 H174 0.929 . S
C143 C144 1.358 . S
C143 C145 1.356 . S
C143 H175 0.930 . S
C144 N141 1.279 . S
C144 C143 1.358 . S
C144 H147 0.930 . S
C145 C142 1.348 . S
C145 C143 1.356 . S
H146 C140 0.930 . S
H147 C144 0.930 . S
O148 Li88 1.956 . S
O148 Li89 1.970 . S
O148 Li90 1.938 1_554 S
O148 C92 1.325 . S
O149 Li88 1.969 1_556 S
O149 Li89 1.935 1_556 S
O149 Li91 1.981 . S
O149 C98 1.324 . S
O150 Li88 1.961 1_556 S
O150 Li90 1.978 . S
O150 Li91 1.970 . S
O150 C120 1.325 . S
O151 Li89 1.961 . S
O151 Li90 1.969 1_554 S
O151 Li91 1.956 1_554 S
O151 C126 1.325 . S
H152 C94 0.929 . S
H153 C95 0.930 . S
H154 C96 0.930 . S
H155 C97 0.930 . S
H156 C99 0.930 . S
H157 C101 0.929 . S
H158 C102 0.930 . S
H159 C103 0.930 . S
H160 C106 0.930 . S
H161 C109 0.929 . S
H162 C114 0.929 . S
H163 C115 0.930 . S
H164 C122 0.929 . S
H165 C123 0.930 . S
H166 C124 0.930 . S
H167 C125 0.930 . S
H168 C127 0.929 . S
H169 C128 0.930 . S
H170 C129 0.930 . S
H171 C130 0.930 . S
H172 C134 0.929 . S
H173 C136 0.930 . S
H174 C142 0.929 . S
H175 C143 0.930 . S
Li176 N193 1.990 . S
Li176 O236 1.956 . S
Li176 O237 1.970 . S
Li176 O238 1.961 . S
Li177 N201 1.990 . S
Li177 O236 1.970 . S
Li177 O237 1.956 . S
Li177 O239 1.961 . S
Li178 N223 1.990 . S
Li178 O236 1.961 . S
Li178 O238 1.956 . S
Li178 O239 1.970 . S
Li179 N229 1.990 . S
Li179 O237 1.961 . S
Li179 O238 1.970 . S
Li179 O239 1.956 . S
C180 C182 1.348 . S
C180 C183 1.356 . S
C180 O236 1.325 . S
N181 C184 1.314 . S
N181 C185 1.279 . S
C182 C180 1.348 . S
C182 C184 1.353 . S
C182 H240 0.929 . S
C183 C180 1.356 . S
C183 C185 1.358 . S
C183 H241 0.930 . S
C184 N181 1.314 . S
C184 C182 1.353 . S
C184 H242 0.930 . S
C185 N181 1.279 . S
C185 C183 1.358 . S
C185 H243 0.930 . S
C186 C189 1.348 . S
C186 C190 1.356 . S
C186 O237 1.325 . S
C187 N188 1.279 . S
C187 C190 1.358 . S
C187 H244 0.930 . S
N188 C187 1.279 . S
N188 C191 1.314 . S
C189 C186 1.348 . S
C189 C191 1.353 . S
C189 H245 0.929 . S
C190 C186 1.356 . S
C190 C187 1.358 . S
C190 H246 0.930 . S
C191 N188 1.314 . S
C191 C189 1.353 . S
C191 H247 0.930 . S
C192 N193 1.314 . S
C192 C197 1.353 . S
C192 H198 0.930 . S
N193 Li176 1.990 . S
N193 C192 1.314 . S
N193 C195 1.279 . S
C194 C195 1.358 . S
C194 C196 1.356 . S
C194 H248 0.930 . S
C195 N193 1.279 . S
C195 C194 1.358 . S
C195 H199 0.930 . S
C196 C194 1.356 . S
C196 C197 1.348 . S
C197 C192 1.353 . S
C197 C196 1.348 . S
C197 H249 0.929 . S
H198 C192 0.930 . S
H199 C195 0.930 . S
C200 N201 1.314 . S
C200 C202 1.353 . S
C200 H206 0.930 . S
N201 Li177 1.990 . S
N201 C200 1.314 . S
N201 C204 1.279 . S
C202 C200 1.353 . S
C202 C205 1.348 . S
C202 H250 0.929 . S
C203 C204 1.358 . S
C203 C205 1.356 . S
C203 H251 0.930 . S
C204 N201 1.279 . S
C204 C203 1.358 . S
C204 H207 0.930 . S
C205 C202 1.348 . S
C205 C203 1.356 . S
H206 C200 0.930 . S
H207 C204 0.930 . S
C208 C210 1.348 . S
C208 C211 1.356 . S
C208 O238 1.325 . S
N209 C212 1.314 . S
N209 C213 1.279 . S
C210 C208 1.348 . S
C210 C212 1.353 . S
C210 H252 0.929 . S
C211 C208 1.356 . S
C211 C213 1.358 . S
C211 H253 0.930 . S
C212 N209 1.314 . S
C212 C210 1.353 . S
C212 H254 0.930 . S
C213 N209 1.279 . S
C213 C211 1.358 . S
C213 H255 0.930 . S
C214 C215 1.348 . S
C214 C216 1.356 . S
C214 O239 1.325 . S
C215 C214 1.348 . S
C215 C217 1.353 . S
C215 H256 0.929 . S
C216 C214 1.356 . S
C216 C218 1.358 . S
C216 H257 0.930 . S
C217 C215 1.353 . S
C217 N219 1.314 . S
C217 H258 0.930 . S
C218 C216 1.358 . S
C218 N219 1.279 . S
C218 H259 0.930 . S
N219 C217 1.314 . S
N219 C218 1.279 . S
C220 C222 1.353 . S
C220 N223 1.314 . S
C220 H226 0.930 . S
C221 N223 1.279 . S
C221 C224 1.358 . S
C221 H227 0.930 . S
C222 C220 1.353 . S
C222 C225 1.348 . S
C222 H260 0.929 . S
N223 Li178 1.990 . S
N223 C220 1.314 . S
N223 C221 1.279 . S
C224 C221 1.358 . S
C224 C225 1.356 . S
C224 H261 0.930 . S
C225 C222 1.348 . S
C225 C224 1.356 . S
H226 C220 0.930 . S
H227 C221 0.930 . S
C228 N229 1.314 . S
C228 C230 1.353 . S
C228 H234 0.930 . S
N229 Li179 1.990 . S
N229 C228 1.314 . S
N229 C232 1.279 . S
C230 C228 1.353 . S
C230 C233 1.348 . S
C230 H262 0.929 . S
C231 C232 1.358 . S
C231 C233 1.356 . S
C231 H263 0.930 . S
C232 N229 1.279 . S
C232 C231 1.358 . S
C232 H235 0.930 . S
C233 C230 1.348 . S
C233 C231 1.356 . S
H234 C228 0.930 . S
H235 C232 0.930 . S
O236 Li176 1.956 . S
O236 Li177 1.970 . S
O236 Li178 1.961 . S
O236 C180 1.325 . S
O237 Li176 1.970 . S
O237 Li177 1.956 . S
O237 Li179 1.961 . S
O237 C186 1.325 . S
O238 Li176 1.961 . S
O238 Li178 1.956 . S
O238 Li179 1.970 . S
O238 C208 1.325 . S
O239 Li177 1.961 . S
O239 Li178 1.970 . S
O239 Li179 1.956 . S
O239 C214 1.325 . S
H240 C182 0.929 . S
H241 C183 0.930 . S
H242 C184 0.930 . S
H243 C185 0.930 . S
H244 C187 0.930 . S
H245 C189 0.929 . S
H246 C190 0.930 . S
H247 C191 0.930 . S
H248 C194 0.930 . S
H249 C197 0.929 . S
H250 C202 0.929 . S
H251 C203 0.930 . S
H252 C210 0.929 . S
H253 C211 0.930 . S
H254 C212 0.930 . S
H255 C213 0.930 . S
H256 C215 0.929 . S
H257 C216 0.930 . S
H258 C217 0.930 . S
H259 C218 0.930 . S
H260 C222 0.929 . S
H261 C224 0.930 . S
H262 C230 0.929 . S
H263 C231 0.930 . S
Li264 N281 1.990 . S
Li264 O324 1.956 . S
Li264 O325 1.970 . S
Li264 O326 1.961 . S
Li265 N289 1.990 . S
Li265 O324 1.970 . S
Li265 O325 1.956 . S
Li265 O327 1.961 . S
Li266 N311 1.990 . S
Li266 O324 1.961 . S
Li266 O326 1.956 . S
Li266 O327 1.970 . S
Li267 N317 1.990 . S
Li267 O325 1.961 . S
Li267 O326 1.970 . S
Li267 O327 1.956 . S
C268 C270 1.348 . S
C268 C271 1.356 . S
C268 O324 1.325 . S
N269 C272 1.314 . S
N269 C273 1.279 . S
C270 C268 1.348 . S
C270 C272 1.353 . S
C270 H328 0.929 . S
C271 C268 1.356 . S
C271 C273 1.358 . S
C271 H329 0.930 . S
C272 N269 1.314 . S
C272 C270 1.353 . S
C272 H330 0.930 . S
C273 N269 1.279 . S
C273 C271 1.358 . S
C273 H331 0.930 . S
C274 C277 1.348 . S
C274 C278 1.356 . S
C274 O325 1.325 . S
C275 N276 1.279 . S
C275 C278 1.358 . S
C275 H332 0.930 . S
N276 C275 1.279 . S
N276 C279 1.314 . S
C277 C274 1.348 . S
C277 C279 1.353 . S
C277 H333 0.929 . S
C278 C274 1.356 . S
C278 C275 1.358 . S
C278 H334 0.930 . S
C279 N276 1.314 . S
C279 C277 1.353 . S
C279 H335 0.930 . S
C280 N281 1.314 . S
C280 C285 1.353 . S
C280 H286 0.930 . S
N281 Li264 1.990 . S
N281 C280 1.314 . S
N281 C283 1.279 . S
C282 C283 1.358 . S
C282 C284 1.356 . S
C282 H336 0.930 . S
C283 N281 1.279 . S
C283 C282 1.358 . S
C283 H287 0.930 . S
C284 C282 1.356 . S
C284 C285 1.348 . S
C285 C280 1.353 . S
C285 C284 1.348 . S
C285 H337 0.929 . S
H286 C280 0.930 . S
H287 C283 0.930 . S
C288 N289 1.314 . S
C288 C290 1.353 . S
C288 H294 0.930 . S
N289 Li265 1.990 . S
N289 C288 1.314 . S
N289 C292 1.279 . S
C290 C288 1.353 . S
C290 C293 1.348 . S
C290 H338 0.929 . S
C291 C292 1.358 . S
C291 C293 1.356 . S
C291 H339 0.930 . S
C292 N289 1.279 . S
C292 C291 1.358 . S
C292 H295 0.930 . S
C293 C290 1.348 . S
C293 C291 1.356 . S
H294 C288 0.930 . S
H295 C292 0.930 . S
C296 C298 1.348 . S
C296 C299 1.356 . S
C296 O326 1.325 . S
N297 C300 1.314 . S
N297 C301 1.279 . S
C298 C296 1.348 . S
C298 C300 1.353 . S
C298 H340 0.929 . S
C299 C296 1.356 . S
C299 C301 1.358 . S
C299 H341 0.930 . S
C300 N297 1.314 . S
C300 C298 1.353 . S
C300 H342 0.930 . S
C301 N297 1.279 . S
C301 C299 1.358 . S
C301 H343 0.930 . S
C302 C303 1.348 . S
C302 C304 1.356 . S
C302 O327 1.325 . S
C303 C302 1.348 . S
C303 C305 1.353 . S
C303 H344 0.929 . S
C304 C302 1.356 . S
C304 C306 1.358 . S
C304 H345 0.930 . S
C305 C303 1.353 . S
C305 N307 1.314 . S
C305 H346 0.930 . S
C306 C304 1.358 . S
C306 N307 1.279 . S
C306 H347 0.930 . S
N307 C305 1.314 . S
N307 C306 1.279 . S
C308 C310 1.353 . S
C308 N311 1.314 . S
C308 H314 0.930 . S
C309 N311 1.279 . S
C309 C312 1.358 . S
C309 H315 0.930 . S
C310 C308 1.353 . S
C310 C313 1.348 . S
C310 H348 0.929 . S
N311 Li266 1.990 . S
N311 C308 1.314 . S
N311 C309 1.279 . S
C312 C309 1.358 . S
C312 C313 1.356 . S
C312 H349 0.930 . S
C313 C310 1.348 . S
C313 C312 1.356 . S
H314 C308 0.930 . S
H315 C309 0.930 . S
C316 N317 1.314 . S
C316 C318 1.353 . S
C316 H322 0.930 . S
N317 Li267 1.990 . S
N317 C316 1.314 . S
N317 C320 1.279 . S
C318 C316 1.353 . S
C318 C321 1.348 . S
C318 H350 0.929 . S
C319 C320 1.358 . S
C319 C321 1.356 . S
C319 H351 0.930 . S
C320 N317 1.279 . S
C320 C319 1.358 . S
C320 H323 0.930 . S
C321 C318 1.348 . S
C321 C319 1.356 . S
H322 C316 0.930 . S
H323 C320 0.930 . S
O324 Li264 1.956 . S
O324 Li265 1.970 . S
O324 Li266 1.961 . S
O324 C268 1.325 . S
O325 Li264 1.970 . S
O325 Li265 1.956 . S
O325 Li267 1.961 . S
O325 C274 1.325 . S
O326 Li264 1.961 . S
O326 Li266 1.956 . S
O326 Li267 1.970 . S
O326 C296 1.325 . S
O327 Li265 1.961 . S
O327 Li266 1.970 . S
O327 Li267 1.956 . S
O327 C302 1.325 . S
H328 C270 0.929 . S
H329 C271 0.930 . S
H330 C272 0.930 . S
H331 C273 0.930 . S
H332 C275 0.930 . S
H333 C277 0.929 . S
H334 C278 0.930 . S
H335 C279 0.930 . S
H336 C282 0.930 . S
H337 C285 0.929 . S
H338 C290 0.929 . S
H339 C291 0.930 . S
H340 C298 0.929 . S
H341 C299 0.930 . S
H342 C300 0.930 . S
H343 C301 0.930 . S
H344 C303 0.929 . S
H345 C304 0.930 . S
H346 C305 0.930 . S
H347 C306 0.930 . S
H348 C310 0.929 . S
H349 C312 0.930 . S
H350 C318 0.929 . S
H351 C319 0.930 . S
Li352 N369 1.990 . S
Li352 O412 1.935 1_554 S
Li352 O413 1.970 . S
Li352 O414 1.961 . S
Li353 N377 1.990 . S
Li353 O412 1.969 1_554 S
Li353 O413 1.956 . S
Li353 O415 1.961 1_554 S
Li354 N399 1.990 . S
Li354 O412 1.981 . S
Li354 O414 1.956 1_556 S
Li354 O415 1.970 . S
Li355 N405 1.991 . S
Li355 O413 1.938 1_556 S
Li355 O414 1.969 1_556 S
Li355 O415 1.978 . S
C356 C358 1.349 1_556 S
C356 C359 1.355 . S
C356 O412 1.324 . S
N357 C360 1.314 . S
N357 C361 1.279 1_554 S
C358 C356 1.349 1_554 S
C358 C360 1.353 . S
C358 H416 0.929 . S
C359 C356 1.355 . S
C359 C361 1.358 . S
C359 H417 0.930 . S
C360 N357 1.314 . S
C360 C358 1.353 . S
C360 H418 0.930 . S
C361 N357 1.279 1_556 S
C361 C359 1.358 . S
C361 H419 0.950 . S
C362 C365 1.348 . S
C362 C366 1.356 . S
C362 O413 1.325 . S
C363 N364 1.279 . S
C363 C366 1.358 . S
C363 H420 0.930 . S
N364 C363 1.279 . S
N364 C367 1.314 . S
C365 C362 1.348 . S
C365 C367 1.353 . S
C365 H421 0.929 . S
C366 C362 1.356 . S
C366 C363 1.358 . S
C366 H422 0.930 . S
C367 N364 1.314 . S
C367 C365 1.353 . S
C367 H423 0.930 . S
C368 N369 1.314 . S
C368 C373 1.353 . S
C368 H374 0.930 . S
N369 Li352 1.990 . S
N369 C368 1.314 . S
N369 C371 1.279 . S
C370 C371 1.358 . S
C370 C372 1.356 . S
C370 H424 0.930 . S
C371 N369 1.279 . S
C371 C370 1.358 . S
C371 H375 0.930 . S
C372 C370 1.356 . S
C372 C373 1.348 . S
C373 C368 1.353 . S
C373 C372 1.348 . S
C373 H425 0.929 . S
H374 C368 0.930 . S
H375 C371 0.930 . S
C376 N377 1.314 1_556 S
C376 C378 1.353 . S
C376 H382 0.930 . S
N377 Li353 1.990 . S
N377 C376 1.314 1_554 S
N377 C380 1.279 . S
C378 C376 1.353 . S
C378 C381 1.345 1_556 S
C378 H426 0.929 . S
C379 C380 1.358 . S
C379 C381 1.359 . S
C379 H427 0.930 . S
C380 N377 1.279 . S
C380 C379 1.358 . S
C380 H383 0.930 . S
C381 C378 1.345 1_554 S
C381 C379 1.359 . S
H382 C376 0.930 . S
H383 C380 0.930 . S
C384 C386 1.346 1_554 S
C384 C387 1.357 . S
C384 O414 1.325 . S
N385 C388 1.314 . S
N385 C389 1.279 1_556 S
C386 C384 1.346 1_556 S
C386 C388 1.353 . S
C386 H428 0.929 . S
C387 C384 1.357 . S
C387 C389 1.358 . S
C387 H429 0.930 . S
C388 N385 1.314 . S
C388 C386 1.353 . S
C388 H430 0.930 1_455 S
C389 N385 1.279 1_554 S
C389 C387 1.358 . S
C389 H431 0.930 . S
C390 C391 1.348 . S
C390 C392 1.356 . S
C390 O415 1.325 . S
C391 C390 1.348 . S
C391 C393 1.353 . S
C391 H432 0.929 . S
C392 C390 1.356 . S
C392 C394 1.358 . S
C392 H433 0.930 . S
C393 C391 1.353 . S
C393 N395 1.314 . S
C393 H434 0.930 . S
C394 C392 1.358 . S
C394 N395 1.279 . S
C394 H435 0.930 . S
N395 C393 1.314 . S
N395 C394 1.279 . S
C396 C398 1.353 . S
C396 N399 1.314 . S
C396 H402 0.930 . S
C397 N399 1.279 . S
C397 C400 1.358 . S
C397 H403 0.930 . S
C398 C396 1.353 . S
C398 C401 1.348 . S
C398 H436 0.929 . S
N399 Li354 1.990 . S
N399 C396 1.314 . S
N399 C397 1.279 . S
C400 C397 1.358 . S
C400 C401 1.356 . S
C400 H437 0.930 . S
C401 C398 1.348 . S
C401 C400 1.356 . S
H402 C396 0.930 . S
H403 C397 0.930 . S
C404 N405 1.314 1_554 S
C404 C406 1.353 . S
C404 H410 0.930 . S
N405 Li355 1.991 . S
N405 C404 1.314 1_556 S
N405 C408 1.279 . S
C406 C404 1.353 . S
C406 C409 1.345 . S
C406 H438 0.929 . S
C407 C408 1.358 . S
C407 C409 1.359 1_556 S
C407 H439 0.930 . S
C408 N405 1.279 . S
C408 C407 1.358 . S
C408 H411 0.930 . S
C409 C406 1.345 . S
C409 C407 1.359 1_554 S
H410 C404 0.930 . S
H411 C408 0.930 . S
O412 Li352 1.935 1_556 S
O412 Li353 1.969 1_556 S
O412 Li354 1.981 . S
O412 C356 1.324 . S
O413 Li352 1.970 . S
O413 Li353 1.956 . S
O413 Li355 1.938 1_554 S
O413 C362 1.325 . S
O414 Li352 1.961 . S
O414 Li354 1.956 1_554 S
O414 Li355 1.969 1_554 S
O414 C384 1.325 . S
O415 Li353 1.961 1_556 S
O415 Li354 1.970 . S
O415 Li355 1.978 . S
O415 C390 1.325 . S
H416 C358 0.929 . S
H417 C359 0.930 . S
H418 C360 0.930 . S
H419 C361 0.950 . S
H420 C363 0.930 . S
H421 C365 0.929 . S
H422 C366 0.930 . S
H423 C367 0.930 . S
H424 C370 0.930 . S
H425 C373 0.929 . S
H426 C378 0.929 . S
H427 C379 0.930 . S
H428 C386 0.929 . S
H429 C387 0.930 . S
H430 C388 0.930 1_655 S
H431 C389 0.930 . S
H432 C391 0.929 . S
H433 C392 0.930 . S
H434 C393 0.930 . S
H435 C394 0.930 . S
H436 C398 0.929 . S
H437 C400 0.930 . S
H438 C406 0.929 . S
H439 C407 0.930 . S
Li440 N457 1.990 . S
Li440 O500 1.956 . S
Li440 O501 1.969 1_554 S
Li440 O502 1.961 1_554 S
Li441 N465 1.990 . S
Li441 O500 1.970 . S
Li441 O501 1.935 1_554 S
Li441 O503 1.961 . S
Li442 N487 1.991 . S
Li442 O500 1.938 1_556 S
Li442 O502 1.978 . S
Li442 O503 1.969 1_556 S
Li443 N493 1.990 . S
Li443 O501 1.981 . S
Li443 O502 1.970 . S
Li443 O503 1.956 1_556 S
C444 C446 1.348 . S
C444 C447 1.356 . S
C444 O500 1.325 . S
N445 C448 1.314 . S
N445 C449 1.279 . S
C446 C444 1.348 . S
C446 C448 1.353 . S
C446 H504 0.929 . S
C447 C444 1.356 . S
C447 C449 1.358 . S
C447 H505 0.930 . S
C448 N445 1.314 . S
C448 C446 1.353 . S
C448 H506 0.930 . S
C449 N445 1.279 . S
C449 C447 1.358 . S
C449 H507 0.930 . S
C450 C453 1.349 1_556 S
C450 C454 1.355 . S
C450 O501 1.324 . S
C451 N452 1.279 1_556 S
C451 C454 1.358 . S
C451 H508 0.950 . S
N452 C451 1.279 1_554 S
N452 C455 1.314 . S
C453 C450 1.349 1_554 S
C453 C455 1.353 . S
C453 H509 0.929 . S
C454 C450 1.355 . S
C454 C451 1.358 . S
C454 H510 0.930 . S
C455 N452 1.314 . S
C455 C453 1.353 . S
C455 H511 0.930 . S
C456 N457 1.314 1_556 S
C456 C461 1.353 . S
C456 H462 0.930 . S
N457 Li440 1.990 . S
N457 C456 1.314 1_554 S
N457 C459 1.279 . S
C458 C459 1.358 . S
C458 C460 1.359 . S
C458 H512 0.930 . S
C459 N457 1.279 . S
C459 C458 1.358 . S
C459 H463 0.930 . S
C460 C458 1.359 . S
C460 C461 1.345 1_554 S
C461 C456 1.353 . S
C461 C460 1.345 1_556 S
C461 H513 0.929 . S
H462 C456 0.930 . S
H463 C459 0.930 . S
C464 N465 1.314 . S
C464 C466 1.353 . S
C464 H470 0.930 . S
N465 Li441 1.990 . S
N465 C464 1.314 . S
N465 C468 1.279 . S
C466 C464 1.353 . S
C466 C469 1.348 . S
C466 H514 0.929 . S
C467 C468 1.358 . S
C467 C469 1.356 . S
C467 H515 0.930 . S
C468 N465 1.279 . S
C468 C467 1.358 . S
C468 H471 0.930 . S
C469 C466 1.348 . S
C469 C467 1.356 . S
H470 C464 0.930 . S
H471 C468 0.930 . S
C472 C474 1.348 . S
C472 C475 1.356 . S
C472 O502 1.325 . S
N473 C476 1.314 . S
N473 C477 1.279 . S
C474 C472 1.348 . S
C474 C476 1.353 . S
C474 H516 0.929 . S
C475 C472 1.356 . S
C475 C477 1.358 . S
C475 H517 0.930 . S
C476 N473 1.314 . S
C476 C474 1.353 . S
C476 H518 0.930 . S
C477 N473 1.279 . S
C477 C475 1.358 . S
C477 H519 0.930 . S
C478 C479 1.346 1_554 S
C478 C480 1.357 . S
C478 O503 1.325 . S
C479 C478 1.346 1_556 S
C479 C481 1.353 . S
C479 H520 0.929 . S
C480 C478 1.357 . S
C480 C482 1.358 . S
C480 H521 0.930 . S
C481 C479 1.353 . S
C481 N483 1.314 . S
C481 H522 0.930 1_655 S
C482 C480 1.358 . S
C482 N483 1.279 1_554 S
C482 H523 0.930 . S
N483 C481 1.314 . S
N483 C482 1.279 1_556 S
C484 C486 1.353 . S
C484 N487 1.314 1_554 S
C484 H490 0.930 . S
C485 N487 1.279 . S
C485 C488 1.358 . S
C485 H491 0.930 . S
C486 C484 1.353 . S
C486 C489 1.345 . S
C486 H524 0.929 . S
N487 Li442 1.991 . S
N487 C484 1.314 1_556 S
N487 C485 1.279 . S
C488 C485 1.358 . S
C488 C489 1.359 1_556 S
C488 H525 0.930 . S
C489 C486 1.345 . S
C489 C488 1.359 1_554 S
H490 C484 0.930 . S
H491 C485 0.930 . S
C492 N493 1.314 . S
C492 C494 1.353 . S
C492 H498 0.930 . S
N493 Li443 1.990 . S
N493 C492 1.314 . S
N493 C496 1.279 . S
C494 C492 1.353 . S
C494 C497 1.348 . S
C494 H526 0.929 . S
C495 C496 1.358 . S
C495 C497 1.356 . S
C495 H527 0.930 . S
C496 N493 1.279 . S
C496 C495 1.358 . S
C496 H499 0.930 . S
C497 C494 1.348 . S
C497 C495 1.356 . S
H498 C492 0.930 . S
H499 C496 0.930 . S
O500 Li440 1.956 . S
O500 Li441 1.970 . S
O500 Li442 1.938 1_554 S
O500 C444 1.325 . S
O501 Li440 1.969 1_556 S
O501 Li441 1.935 1_556 S
O501 Li443 1.981 . S
O501 C450 1.324 . S
O502 Li440 1.961 1_556 S
O502 Li442 1.978 . S
O502 Li443 1.970 . S
O502 C472 1.325 . S
O503 Li441 1.961 . S
O503 Li442 1.969 1_554 S
O503 Li443 1.956 1_554 S
O503 C478 1.325 . S
H504 C446 0.929 . S
H505 C447 0.930 . S
H506 C448 0.930 . S
H507 C449 0.930 . S
H508 C451 0.950 . S
H509 C453 0.929 . S
H510 C454 0.930 . S
H511 C455 0.930 . S
H512 C458 0.930 . S
H513 C461 0.929 . S
H514 C466 0.929 . S
H515 C467 0.930 . S
H516 C474 0.929 . S
H517 C475 0.930 . S
H518 C476 0.930 . S
H519 C477 0.930 . S
H520 C479 0.929 . S
H521 C480 0.930 . S
H522 C481 0.930 1_455 S
H523 C482 0.930 . S
H524 C486 0.929 . S
H525 C488 0.930 . S
H526 C494 0.929 . S
H527 C495 0.930 . S
Li528 N545 1.990 . S
Li528 O588 1.956 . S
Li528 O589 1.970 . S
Li528 O590 1.961 . S
Li529 N553 1.990 . S
Li529 O588 1.970 . S
Li529 O589 1.956 . S
Li529 O591 1.961 . S
Li530 N575 1.990 . S
Li530 O588 1.961 . S
Li530 O590 1.956 . S
Li530 O591 1.970 . S
Li531 N581 1.990 . S
Li531 O589 1.961 . S
Li531 O590 1.970 . S
Li531 O591 1.956 . S
C532 C534 1.348 . S
C532 C535 1.356 . S
C532 O588 1.325 . S
N533 C536 1.314 . S
N533 C537 1.279 . S
C534 C532 1.348 . S
C534 C536 1.353 . S
C534 H592 0.929 . S
C535 C532 1.356 . S
C535 C537 1.358 . S
C535 H593 0.930 . S
C536 N533 1.314 . S
C536 C534 1.353 . S
C536 H594 0.930 . S
C537 N533 1.279 . S
C537 C535 1.358 . S
C537 H595 0.930 . S
C538 C541 1.348 . S
C538 C542 1.356 . S
C538 O589 1.325 . S
C539 N540 1.279 . S
C539 C542 1.358 . S
C539 H596 0.930 . S
N540 C539 1.279 . S
N540 C543 1.314 . S
C541 C538 1.348 . S
C541 C543 1.353 . S
C541 H597 0.929 . S
C542 C538 1.356 . S
C542 C539 1.358 . S
C542 H598 0.930 . S
C543 N540 1.314 . S
C543 C541 1.353 . S
C543 H599 0.930 1_455 S
C544 N545 1.314 . S
C544 C549 1.353 . S
C544 H550 0.930 . S
N545 Li528 1.990 . S
N545 C544 1.314 . S
N545 C547 1.279 . S
C546 C547 1.358 . S
C546 C548 1.356 . S
C546 H600 0.930 . S
C547 N545 1.279 . S
C547 C546 1.358 . S
C547 H551 0.930 . S
C548 C546 1.356 . S
C548 C549 1.348 . S
C549 C544 1.353 . S
C549 C548 1.348 . S
C549 H601 0.929 . S
H550 C544 0.930 . S
H551 C547 0.930 . S
C552 N553 1.314 . S
C552 C554 1.353 . S
C552 H558 0.930 . S
N553 Li529 1.990 . S
N553 C552 1.314 . S
N553 C556 1.279 . S
C554 C552 1.353 . S
C554 C557 1.348 . S
C554 H602 0.929 . S
C555 C556 1.358 . S
C555 C557 1.356 . S
C555 H603 0.930 . S
C556 N553 1.279 . S
C556 C555 1.358 . S
C556 H559 0.930 . S
C557 C554 1.348 . S
C557 C555 1.356 . S
H558 C552 0.930 . S
H559 C556 0.930 . S
C560 C562 1.348 . S
C560 C563 1.356 . S
C560 O590 1.325 . S
N561 C564 1.314 . S
N561 C565 1.279 . S
C562 C560 1.348 . S
C562 C564 1.353 . S
C562 H604 0.929 . S
C563 C560 1.356 . S
C563 C565 1.358 . S
C563 H605 0.930 . S
C564 N561 1.314 . S
C564 C562 1.353 . S
C564 H606 0.930 . S
C565 N561 1.279 . S
C565 C563 1.358 . S
C565 H607 0.930 . S
C566 C567 1.348 . S
C566 C568 1.356 . S
C566 O591 1.325 . S
C567 C566 1.348 . S
C567 C569 1.353 . S
C567 H608 0.929 . S
C568 C566 1.356 . S
C568 C570 1.358 . S
C568 H609 0.930 . S
C569 C567 1.353 . S
C569 N571 1.314 . S
C569 H610 0.930 . S
C570 C568 1.358 . S
C570 N571 1.279 . S
C570 H611 0.950 . S
N571 C569 1.314 . S
N571 C570 1.279 . S
C572 C574 1.353 . S
C572 N575 1.314 . S
C572 H578 0.930 . S
C573 N575 1.279 . S
C573 C576 1.358 . S
C573 H579 0.930 . S
C574 C572 1.353 . S
C574 C577 1.348 . S
C574 H612 0.929 . S
N575 Li530 1.990 . S
N575 C572 1.314 . S
N575 C573 1.279 . S
C576 C573 1.358 . S
C576 C577 1.356 . S
C576 H613 0.930 . S
C577 C574 1.348 . S
C577 C576 1.356 . S
H578 C572 0.930 . S
H579 C573 0.930 . S
C580 N581 1.314 . S
C580 C582 1.353 . S
C580 H586 0.930 . S
N581 Li531 1.990 . S
N581 C580 1.314 . S
N581 C584 1.279 . S
C582 C580 1.353 . S
C582 C585 1.348 . S
C582 H614 0.929 . S
C583 C584 1.358 . S
C583 C585 1.356 . S
C583 H615 0.930 . S
C584 N581 1.279 . S
C584 C583 1.358 . S
C584 H587 0.930 . S
C585 C582 1.348 . S
C585 C583 1.356 . S
H586 C580 0.930 . S
H587 C584 0.930 . S
O588 Li528 1.956 . S
O588 Li529 1.970 . S
O588 Li530 1.961 . S
O588 C532 1.325 . S
O589 Li528 1.970 . S
O589 Li529 1.956 . S
O589 Li531 1.961 . S
O589 C538 1.325 . S
O590 Li528 1.961 . S
O590 Li530 1.956 . S
O590 Li531 1.970 . S
O590 C560 1.325 . S
O591 Li529 1.961 . S
O591 Li530 1.970 . S
O591 Li531 1.956 . S
O591 C566 1.325 . S
H592 C534 0.929 . S
H593 C535 0.930 . S
H594 C536 0.930 . S
H595 C537 0.930 . S
H596 C539 0.930 . S
H597 C541 0.929 . S
H598 C542 0.930 . S
H599 C543 0.930 1_655 S
H600 C546 0.930 . S
H601 C549 0.929 . S
H602 C554 0.929 . S
H603 C555 0.930 . S
H604 C562 0.929 . S
H605 C563 0.930 . S
H606 C564 0.930 . S
H607 C565 0.930 . S
H608 C567 0.929 . S
H609 C568 0.930 . S
H610 C569 0.930 . S
H611 C570 0.950 . S
H612 C574 0.929 . S
H613 C576 0.930 . S
H614 C582 0.929 . S
H615 C583 0.930 . S
Li616 N633 1.990 . S
Li616 O676 1.956 . S
Li616 O677 1.970 . S
Li616 O678 1.961 . S
Li617 N641 1.990 . S
Li617 O676 1.970 . S
Li617 O677 1.956 . S
Li617 O679 1.961 . S
Li618 N663 1.990 . S
Li618 O676 1.961 . S
Li618 O678 1.956 . S
Li618 O679 1.970 . S
Li619 N669 1.990 . S
Li619 O677 1.961 . S
Li619 O678 1.970 . S
Li619 O679 1.956 . S
C620 C622 1.348 . S
C620 C623 1.356 . S
C620 O676 1.325 . S
N621 C624 1.314 . S
N621 C625 1.279 . S
C622 C620 1.348 . S
C622 C624 1.353 . S
C622 H680 0.929 . S
C623 C620 1.356 . S
C623 C625 1.358 . S
C623 H681 0.930 . S
C624 N621 1.314 . S
C624 C622 1.353 . S
C624 H682 0.930 1_655 S
C625 N621 1.279 . S
C625 C623 1.358 . S
C625 H683 0.930 . S
C626 C629 1.348 . S
C626 C630 1.356 . S
C626 O677 1.325 . S
C627 N628 1.279 . S
C627 C630 1.358 . S
C627 H684 0.930 . S
N628 C627 1.279 . S
N628 C631 1.314 . S
C629 C626 1.348 . S
C629 C631 1.353 . S
C629 H685 0.929 . S
C630 C626 1.356 . S
C630 C627 1.358 . S
C630 H686 0.930 . S
C631 N628 1.314 . S
C631 C629 1.353 . S
C631 H687 0.930 . S
C632 N633 1.314 . S
C632 C637 1.353 . S
C632 H638 0.930 . S
N633 Li616 1.990 . S
N633 C632 1.314 . S
N633 C635 1.279 . S
C634 C635 1.358 . S
C634 C636 1.356 . S
C634 H688 0.930 . S
C635 N633 1.279 . S
C635 C634 1.358 . S
C635 H639 0.930 . S
C636 C634 1.356 . S
C636 C637 1.348 . S
C637 C632 1.353 . S
C637 C636 1.348 . S
C637 H689 0.929 . S
H638 C632 0.930 . S
H639 C635 0.930 . S
C640 N641 1.314 . S
C640 C642 1.353 . S
C640 H646 0.930 . S
N641 Li617 1.990 . S
N641 C640 1.314 . S
N641 C644 1.279 . S
C642 C640 1.353 . S
C642 C645 1.348 . S
C642 H690 0.929 . S
C643 C644 1.358 . S
C643 C645 1.356 . S
C643 H691 0.930 . S
C644 N641 1.279 . S
C644 C643 1.358 . S
C644 H647 0.930 . S
C645 C642 1.348 . S
C645 C643 1.356 . S
H646 C640 0.930 . S
H647 C644 0.930 . S
C648 C650 1.348 . S
C648 C651 1.356 . S
C648 O678 1.325 . S
N649 C652 1.314 . S
N649 C653 1.279 . S
C650 C648 1.348 . S
C650 C652 1.353 . S
C650 H692 0.929 . S
C651 C648 1.356 . S
C651 C653 1.358 . S
C651 H693 0.930 . S
C652 N649 1.314 . S
C652 C650 1.353 . S
C652 H694 0.930 . S
C653 N649 1.279 . S
C653 C651 1.358 . S
C653 H695 0.950 . S
C654 C655 1.348 . S
C654 C656 1.356 . S
C654 O679 1.325 . S
C655 C654 1.348 . S
C655 C657 1.353 . S
C655 H696 0.929 . S
C656 C654 1.356 . S
C656 C658 1.358 . S
C656 H697 0.930 . S
C657 C655 1.353 . S
C657 N659 1.314 . S
C657 H698 0.930 . S
C658 C656 1.358 . S
C658 N659 1.279 . S
C658 H699 0.930 . S
N659 C657 1.314 . S
N659 C658 1.279 . S
C660 C662 1.353 . S
C660 N663 1.314 . S
C660 H666 0.930 . S
C661 N663 1.279 . S
C661 C664 1.358 . S
C661 H667 0.930 . S
C662 C660 1.353 . S
C662 C665 1.348 . S
C662 H700 0.929 . S
N663 Li618 1.990 . S
N663 C660 1.314 . S
N663 C661 1.279 . S
C664 C661 1.358 . S
C664 C665 1.356 . S
C664 H701 0.930 . S
C665 C662 1.348 . S
C665 C664 1.356 . S
H666 C660 0.930 . S
H667 C661 0.930 . S
C668 N669 1.314 . S
C668 C670 1.353 . S
C668 H674 0.930 . S
N669 Li619 1.990 . S
N669 C668 1.314 . S
N669 C672 1.279 . S
C670 C668 1.353 . S
C670 C673 1.348 . S
C670 H702 0.929 . S
C671 C672 1.358 . S
C671 C673 1.356 . S
C671 H703 0.930 . S
C672 N669 1.279 . S
C672 C671 1.358 . S
C672 H675 0.930 . S
C673 C670 1.348 . S
C673 C671 1.356 . S
H674 C668 0.930 . S
H675 C672 0.930 . S
O676 Li616 1.956 . S
O676 Li617 1.970 . S
O676 Li618 1.961 . S
O676 C620 1.325 . S
O677 Li616 1.970 . S
O677 Li617 1.956 . S
O677 Li619 1.961 . S
O677 C626 1.325 . S
O678 Li616 1.961 . S
O678 Li618 1.956 . S
O678 Li619 1.970 . S
O678 C648 1.325 . S
O679 Li617 1.961 . S
O679 Li618 1.970 . S
O679 Li619 1.956 . S
O679 C654 1.325 . S
H680 C622 0.929 . S
H681 C623 0.930 . S
H682 C624 0.930 1_455 S
H683 C625 0.930 . S
H684 C627 0.930 . S
H685 C629 0.929 . S
H686 C630 0.930 . S
H687 C631 0.930 . S
H688 C634 0.930 . S
H689 C637 0.929 . S
H690 C642 0.929 . S
H691 C643 0.930 . S
H692 C650 0.929 . S
H693 C651 0.930 . S
H694 C652 0.930 . S
H695 C653 0.950 . S
H696 C655 0.929 . S
H697 C656 0.930 . S
H698 C657 0.930 . S
H699 C658 0.930 . S
H700 C662 0.929 . S
H701 C664 0.930 . S
H702 C670 0.929 . S
H703 C671 0.930 . S
H704 C716 0.930 . S
H705 C718 0.930 . S
H706 C719 0.930 . S
H707 C723 0.959 . S
H708 C723 0.959 . S
H709 C723 0.961 . S
H710 C724 0.960 . S
H711 C724 0.961 . S
H712 C724 0.959 . S
H713 C727 0.929 . S
H714 C728 0.931 . S
H715 C730 0.930 . S
C716 H704 0.930 . S
C716 C717 1.399 1_556 S
C716 C721 1.399 . S
C717 C716 1.399 1_554 S
C717 C718 1.376 . S
C718 H705 0.930 . S
C718 C717 1.376 . S
C718 C719 1.388 . S
C719 H706 0.930 . S
C719 C718 1.388 . S
C719 C720 1.390 . S
C720 C719 1.390 . S
C720 C721 1.394 1_554 S
C720 C726 1.465 . S
C721 C716 1.399 . S
C721 C720 1.394 1_556 S
C721 C722 1.516 . S
C722 C721 1.516 . S
C722 C723 1.502 . S
C722 C724 1.561 . S
C722 C725 1.526 . S
C723 H707 0.959 . S
C723 H708 0.959 . S
C723 H709 0.961 . S
C723 C722 1.502 . S
C724 H710 0.960 . S
C724 H711 0.961 . S
C724 H712 0.959 . S
C724 C722 1.561 . S
C725 C722 1.526 . S
C725 C726 1.396 1_556 S
C725 C730 1.390 . S
C726 C720 1.465 . S
C726 C725 1.396 1_554 S
C726 C727 1.399 . S
C727 H713 0.929 . S
C727 C726 1.399 . S
C727 C728 1.385 . S
C728 H714 0.931 . S
C728 C727 1.385 . S
C728 C729 1.389 . S
C729 C728 1.389 . S
C729 C730 1.387 1_554 S
C730 H715 0.930 . S
C730 C725 1.390 . S
C730 C729 1.387 1_556 S
H731 C743 0.930 . S
H732 C745 0.930 . S
H733 C746 0.930 . S
H734 C750 0.959 . S
H735 C750 0.959 . S
H736 C750 0.961 . S
H737 C751 0.960 . S
H738 C751 0.961 . S
H739 C751 0.959 . S
H740 C754 0.929 . S
H741 C755 0.931 . S
H742 C757 0.930 . S
C743 H731 0.930 . S
C743 C744 1.399 1_556 S
C743 C748 1.399 . S
C744 C743 1.399 1_554 S
C744 C745 1.376 . S
C745 H732 0.930 . S
C745 C744 1.376 . S
C745 C746 1.388 . S
C746 H733 0.930 . S
C746 C745 1.388 . S
C746 C747 1.390 . S
C747 C746 1.390 . S
C747 C748 1.394 1_554 S
C747 C753 1.465 . S
C748 C743 1.399 . S
C748 C747 1.394 1_556 S
C748 C749 1.516 . S
C749 C748 1.516 . S
C749 C750 1.502 . S
C749 C751 1.561 . S
C749 C752 1.526 . S
C750 H734 0.959 . S
C750 H735 0.959 . S
C750 H736 0.961 . S
C750 C749 1.502 . S
C751 H737 0.960 . S
C751 H738 0.961 . S
C751 H739 0.959 . S
C751 C749 1.561 . S
C752 C749 1.526 . S
C752 C753 1.396 1_556 S
C752 C757 1.390 . S
C753 C747 1.465 . S
C753 C752 1.396 1_554 S
C753 C754 1.399 . S
C754 H740 0.929 . S
C754 C753 1.399 . S
C754 C755 1.385 . S
C755 H741 0.931 . S
C755 C754 1.385 . S
C755 C756 1.389 . S
C756 C755 1.389 . S
C756 C757 1.387 1_554 S
C757 H742 0.930 . S
C757 C752 1.390 . S
C757 C756 1.387 1_556 S
H758 C770 0.930 . S
H759 C772 0.930 . S
H760 C773 0.930 . S
H761 C777 0.959 . S
H762 C777 0.959 . S
H763 C777 0.961 . S
H764 C778 0.960 . S
H765 C778 0.961 . S
H766 C778 0.959 . S
H767 C781 0.929 . S
H768 C782 0.931 . S
H769 C784 0.930 . S
C770 H758 0.930 . S
C770 C771 1.399 . S
C770 C775 1.399 . S
C771 C770 1.399 . S
C771 C772 1.376 . S
C772 H759 0.930 . S
C772 C771 1.376 . S
C772 C773 1.388 . S
C773 H760 0.930 . S
C773 C772 1.388 . S
C773 C774 1.390 . S
C774 C773 1.390 . S
C774 C775 1.394 . S
C774 C780 1.465 . S
C775 C770 1.399 . S
C775 C774 1.394 . S
C775 C776 1.516 . S
C776 C775 1.516 . S
C776 C777 1.502 . S
C776 C778 1.561 . S
C776 C779 1.526 . S
C777 H761 0.959 . S
C777 H762 0.959 . S
C777 H763 0.961 . S
C777 C776 1.502 . S
C778 H764 0.960 . S
C778 H765 0.961 . S
C778 H766 0.959 . S
C778 C776 1.561 . S
C779 C776 1.526 . S
C779 C780 1.396 . S
C779 C784 1.390 . S
C780 C774 1.465 . S
C780 C779 1.396 . S
C780 C781 1.399 . S
C781 H767 0.929 . S
C781 C780 1.399 . S
C781 C782 1.385 . S
C782 H768 0.931 . S
C782 C781 1.385 . S
C782 C783 1.389 . S
C783 C782 1.389 . S
C783 C784 1.387 . S
C784 H769 0.930 . S
C784 C779 1.390 . S
C784 C783 1.387 . S
H785 C797 0.930 . S
H786 C799 0.930 . S
H787 C800 0.930 . S
H788 C804 0.959 . S
H789 C804 0.959 . S
H790 C804 0.961 . S
H791 C805 0.960 . S
H792 C805 0.961 . S
H793 C805 0.959 . S
H794 C808 0.929 . S
H795 C809 0.931 . S
H796 C811 0.930 . S
C797 H785 0.930 . S
C797 C798 1.399 . S
C797 C802 1.399 . S
C798 C797 1.399 . S
C798 C799 1.376 . S
C799 H786 0.930 . S
C799 C798 1.376 . S
C799 C800 1.388 . S
C800 H787 0.930 . S
C800 C799 1.388 . S
C800 C801 1.390 . S
C801 C800 1.390 . S
C801 C802 1.394 . S
C801 C807 1.465 . S
C802 C797 1.399 . S
C802 C801 1.394 . S
C802 C803 1.516 . S
C803 C802 1.516 . S
C803 C804 1.502 . S
C803 C805 1.561 . S
C803 C806 1.526 . S
C804 H788 0.959 . S
C804 H789 0.959 . S
C804 H790 0.961 . S
C804 C803 1.502 . S
C805 H791 0.960 . S
C805 H792 0.961 . S
C805 H793 0.959 . S
C805 C803 1.561 . S
C806 C803 1.526 . S
C806 C807 1.396 . S
C806 C811 1.390 . S
C807 C801 1.465 . S
C807 C806 1.396 . S
C807 C808 1.399 . S
C808 H794 0.929 . S
C808 C807 1.399 . S
C808 C809 1.385 . S
C809 H795 0.931 . S
C809 C808 1.385 . S
C809 C810 1.389 . S
C810 C809 1.389 . S
C810 C811 1.387 . S
C811 H796 0.930 . S
C811 C806 1.390 . S
C811 C810 1.387 . S
H812 C824 0.930 . S
H813 C826 0.930 . S
H814 C827 0.930 . S
H815 C831 0.959 . S
H816 C831 0.959 . S
H817 C831 0.961 . S
H818 C832 0.960 . S
H819 C832 0.961 . S
H820 C832 0.959 . S
H821 C835 0.929 . S
H822 C836 0.931 . S
H823 C838 0.930 . S
C824 H812 0.930 . S
C824 C825 1.399 . S
C824 C829 1.399 . S
C825 C824 1.399 . S
C825 C826 1.376 . S
C826 H813 0.930 . S
C826 C825 1.376 . S
C826 C827 1.388 . S
C827 H814 0.930 . S
C827 C826 1.388 . S
C827 C828 1.390 . S
C828 C827 1.390 . S
C828 C829 1.394 . S
C828 C834 1.465 . S
C829 C824 1.399 . S
C829 C828 1.394 . S
C829 C830 1.516 . S
C830 C829 1.516 . S
C830 C831 1.502 . S
C830 C832 1.561 . S
C830 C833 1.526 . S
C831 H815 0.959 . S
C831 H816 0.959 . S
C831 H817 0.961 . S
C831 C830 1.502 . S
C832 H818 0.960 . S
C832 H819 0.961 . S
C832 H820 0.959 . S
C832 C830 1.561 . S
C833 C830 1.526 . S
C833 C834 1.396 . S
C833 C838 1.390 . S
C834 C828 1.465 . S
C834 C833 1.396 . S
C834 C835 1.399 . S
C835 H821 0.929 . S
C835 C834 1.399 . S
C835 C836 1.385 . S
C836 H822 0.931 . S
C836 C835 1.385 . S
C836 C837 1.389 . S
C837 C836 1.389 . S
C837 C838 1.387 . S
C838 H823 0.930 . S
C838 C833 1.390 . S
C838 C837 1.387 . S
H839 C851 0.930 . S
H840 C853 0.930 . S
H841 C854 0.930 . S
H842 C858 0.959 . S
H843 C858 0.959 . S
H844 C858 0.961 . S
H845 C859 0.960 . S
H846 C859 0.961 . S
H847 C859 0.959 . S
H848 C862 0.929 . S
H849 C863 0.931 . S
H850 C865 0.930 . S
C851 H839 0.930 . S
C851 C852 1.399 . S
C851 C856 1.399 . S
C852 C851 1.399 . S
C852 C853 1.376 . S
C853 H840 0.930 . S
C853 C852 1.376 . S
C853 C854 1.388 . S
C854 H841 0.930 . S
C854 C853 1.388 . S
C854 C855 1.390 . S
C855 C854 1.390 . S
C855 C856 1.394 . S
C855 C861 1.465 . S
C856 C851 1.399 . S
C856 C855 1.394 . S
C856 C857 1.516 . S
C857 C856 1.516 . S
C857 C858 1.502 . S
C857 C859 1.561 . S
C857 C860 1.526 . S
C858 H842 0.959 . S
C858 H843 0.959 . S
C858 H844 0.961 . S
C858 C857 1.502 . S
C859 H845 0.960 . S
C859 H846 0.961 . S
C859 H847 0.959 . S
C859 C857 1.561 . S
C860 C857 1.526 . S
C860 C861 1.396 . S
C860 C865 1.390 . S
C861 C855 1.465 . S
C861 C860 1.396 . S
C861 C862 1.399 . S
C862 H848 0.929 . S
C862 C861 1.399 . S
C862 C863 1.385 . S
C863 H849 0.931 . S
C863 C862 1.385 . S
C863 C864 1.389 . S
C864 C863 1.389 . S
C864 C865 1.387 . S
C865 H850 0.930 . S
C865 C860 1.390 . S
C865 C864 1.387 . S
H866 C878 0.930 . S
H867 C880 0.930 . S
H868 C881 0.930 . S
H869 C885 0.959 . S
H870 C885 0.959 . S
H871 C885 0.961 . S
H872 C886 0.960 . S
H873 C886 0.961 . S
H874 C886 0.959 . S
H875 C889 0.929 . S
H876 C890 0.931 . S
H877 C892 0.930 . S
C878 H866 0.930 . S
C878 C879 1.399 . S
C878 C883 1.399 . S
C879 C878 1.399 . S
C879 C880 1.376 . S
C880 H867 0.930 . S
C880 C879 1.376 . S
C880 C881 1.388 . S
C881 H868 0.930 . S
C881 C880 1.388 . S
C881 C882 1.390 . S
C882 C881 1.390 . S
C882 C883 1.394 . S
C882 C888 1.465 . S
C883 C878 1.399 . S
C883 C882 1.394 . S
C883 C884 1.516 . S
C884 C883 1.516 . S
C884 C885 1.502 . S
C884 C886 1.561 . S
C884 C887 1.526 . S
C885 H869 0.959 . S
C885 H870 0.959 . S
C885 H871 0.961 . S
C885 C884 1.502 . S
C886 H872 0.960 . S
C886 H873 0.961 . S
C886 H874 0.959 . S
C886 C884 1.561 . S
C887 C884 1.526 . S
C887 C888 1.396 . S
C887 C892 1.390 . S
C888 C882 1.465 . S
C888 C887 1.396 . S
C888 C889 1.399 . S
C889 H875 0.929 . S
C889 C888 1.399 . S
C889 C890 1.385 . S
C890 H876 0.931 . S
C890 C889 1.385 . S
C890 C891 1.389 . S
C891 C890 1.389 . S
C891 C892 1.387 . S
C892 H877 0.930 . S
C892 C887 1.390 . S
C892 C891 1.387 . S
H893 C905 0.930 . S
H894 C907 0.930 . S
H895 C908 0.930 . S
H896 C912 0.959 . S
H897 C912 0.959 . S
H898 C912 0.961 . S
H899 C913 0.960 . S
H900 C913 0.961 . S
H901 C913 0.959 . S
H902 C916 0.929 . S
H903 C917 0.931 . S
H904 C919 0.930 . S
C905 H893 0.930 . S
C905 C906 1.399 . S
C905 C910 1.399 . S
C906 C905 1.399 . S
C906 C907 1.376 . S
C907 H894 0.930 . S
C907 C906 1.376 . S
C907 C908 1.388 . S
C908 H895 0.930 . S
C908 C907 1.388 . S
C908 C909 1.390 . S
C909 C908 1.390 . S
C909 C910 1.394 . S
C909 C915 1.465 . S
C910 C905 1.399 . S
C910 C909 1.394 . S
C910 C911 1.516 . S
C911 C910 1.516 . S
C911 C912 1.502 . S
C911 C913 1.561 . S
C911 C914 1.526 . S
C912 H896 0.959 . S
C912 H897 0.959 . S
C912 H898 0.961 . S
C912 C911 1.502 . S
C913 H899 0.960 . S
C913 H900 0.961 . S
C913 H901 0.959 . S
C913 C911 1.561 . S
C914 C911 1.526 . S
C914 C915 1.396 . S
C914 C919 1.390 . S
C915 C909 1.465 . S
C915 C914 1.396 . S
C915 C916 1.399 . S
C916 H902 0.929 . S
C916 C915 1.399 . S
C916 C917 1.385 . S
C917 H903 0.931 . S
C917 C916 1.385 . S
C917 C918 1.389 . S
C918 C917 1.389 . S
C918 C919 1.387 . S
C919 H904 0.930 . S
C919 C914 1.390 . S
C919 C918 1.387 . S
H920 C932 0.930 . S
H921 C934 0.930 . S
H922 C935 0.930 . S
H923 C939 0.959 1_565 S
H924 C939 0.959 . S
H925 C939 0.961 . S
H926 C940 0.960 . S
H927 C940 0.961 . S
H928 C940 0.959 . S
H929 C943 0.919 1_565 S
H930 C944 0.931 . S
H931 C946 0.930 . S
C932 H920 0.930 . S
C932 C933 1.399 . S
C932 C937 1.399 . S
C933 C932 1.399 . S
C933 C934 1.376 . S
C934 H921 0.930 . S
C934 C933 1.376 . S
C934 C935 1.388 . S
C935 H922 0.930 . S
C935 C934 1.388 . S
C935 C936 1.390 . S
C936 C935 1.390 . S
C936 C937 1.394 . S
C936 C942 1.465 1_565 S
C937 C932 1.399 . S
C937 C936 1.394 . S
C937 C938 1.516 1_565 S
C938 C937 1.516 1_545 S
C938 C939 1.502 . S
C938 C940 1.561 . S
C938 C941 1.526 . S
C939 H923 0.959 1_545 S
C939 H924 0.959 . S
C939 H925 0.961 . S
C939 C938 1.502 . S
C940 H926 0.960 . S
C940 H927 0.961 . S
C940 H928 0.959 . S
C940 C938 1.561 . S
C941 C938 1.526 . S
C941 C942 1.396 . S
C941 C946 1.390 . S
C942 C936 1.465 1_545 S
C942 C941 1.396 . S
C942 C943 1.400 . S
C943 H929 0.919 1_545 S
C943 C942 1.400 . S
C943 C944 1.394 . S
C944 H930 0.931 . S
C944 C943 1.394 . S
C944 C945 1.389 . S
C945 C944 1.389 . S
C945 C946 1.387 . S
C946 H931 0.930 . S
C946 C941 1.390 . S
C946 C945 1.387 . S
H947 C959 0.930 1_545 S
H948 C961 0.930 . S
H949 C962 0.930 . S
H950 C966 0.959 . S
H951 C966 0.959 . S
H952 C966 0.961 . S
H953 C967 0.960 . S
H954 C967 0.961 . S
H955 C967 0.959 . S
H956 C970 0.929 . S
H957 C971 0.931 1_565 S
H958 C973 0.930 . S
C959 H947 0.930 1_565 S
C959 C960 1.399 . S
C959 C964 1.399 1_565 S
C960 C959 1.399 . S
C960 C961 1.376 . S
C961 H948 0.930 . S
C961 C960 1.376 . S
C961 C962 1.388 . S
C962 H949 0.930 . S
C962 C961 1.388 . S
C962 C963 1.390 . S
C963 C962 1.390 . S
C963 C964 1.394 1_565 S
C963 C969 1.465 . S
C964 C959 1.399 1_545 S
C964 C963 1.394 1_545 S
C964 C965 1.516 . S
C965 C964 1.516 . S
C965 C966 1.502 . S
C965 C967 1.561 . S
C965 C968 1.526 . S
C966 H950 0.959 . S
C966 H951 0.959 . S
C966 H952 0.961 . S
C966 C965 1.502 . S
C967 H953 0.960 . S
C967 H954 0.961 . S
C967 H955 0.959 . S
C967 C965 1.561 . S
C968 C965 1.526 . S
C968 C969 1.396 1_545 S
C968 C973 1.390 . S
C969 C963 1.465 . S
C969 C968 1.396 1_565 S
C969 C970 1.399 . S
C970 H956 0.929 . S
C970 C969 1.399 . S
C970 C971 1.385 1_565 S
C971 H957 0.931 1_545 S
C971 C970 1.385 1_545 S
C971 C972 1.389 . S
C972 C971 1.389 . S
C972 C973 1.387 . S
C973 H958 0.930 . S
C973 C968 1.390 . S
C973 C972 1.387 . S
H974 C986 0.930 . S
H975 C988 0.930 1_545 S
H976 C989 0.930 . S
H977 C993 0.959 . S
H978 C993 0.959 . S
H979 C993 0.961 . S
H980 C994 0.960 . S
H981 C994 0.961 . S
H982 C994 0.959 . S
H983 C997 0.929 . S
H984 C998 0.931 . S
H985 C1000 0.930 1_565 S
C986 H974 0.930 . S
C986 C987 1.399 . S
C986 C991 1.399 . S
C987 C986 1.399 . S
C987 C988 1.376 . S
C988 H975 0.930 1_565 S
C988 C987 1.376 . S
C988 C989 1.388 1_565 S
C989 H976 0.930 . S
C989 C988 1.388 1_545 S
C989 C990 1.390 . S
C990 C989 1.390 . S
C990 C991 1.394 1_545 S
C990 C996 1.465 . S
C991 C986 1.399 . S
C991 C990 1.394 1_565 S
C991 C992 1.516 . S
C992 C991 1.516 . S
C992 C993 1.502 . S
C992 C994 1.561 . S
C992 C995 1.526 . S
C993 H977 0.959 . S
C993 H978 0.959 . S
C993 H979 0.961 . S
C993 C992 1.502 . S
C994 H980 0.960 . S
C994 H981 0.961 . S
C994 H982 0.959 . S
C994 C992 1.561 . S
C995 C992 1.526 . S
C995 C996 1.396 1_565 S
C995 C1000 1.390 1_565 S
C996 C990 1.465 . S
C996 C995 1.396 1_545 S
C996 C997 1.399 . S
C997 H983 0.929 . S
C997 C996 1.399 . S
C997 C998 1.385 . S
C998 H984 0.931 . S
C998 C997 1.385 . S
C998 C999 1.389 . S
C999 C998 1.389 . S
C999 C1000 1.387 . S
C1000 H985 0.930 1_545 S
C1000 C995 1.390 1_545 S
C1000 C999 1.387 . S
H1001 C1013 0.930 1_545 S
H1002 C1015 0.930 . S
H1003 C1016 0.930 . S
H1004 C1020 0.959 . S
H1005 C1020 0.959 . S
H1006 C1020 0.961 . S
H1007 C1021 0.960 . S
H1008 C1021 0.961 . S
H1009 C1021 0.959 . S
H1010 C1024 0.929 . S
H1011 C1025 0.931 1_565 S
H1012 C1027 0.930 . S
C1013 H1001 0.930 1_565 S
C1013 C1014 1.399 . S
C1013 C1018 1.392 1_565 S
C1014 C1013 1.399 . S
C1014 C1015 1.376 . S
C1015 H1002 0.930 . S
C1015 C1014 1.376 . S
C1015 C1016 1.388 . S
C1016 H1003 0.930 . S
C1016 C1015 1.388 . S
C1016 C1017 1.390 . S
C1017 C1016 1.390 . S
C1017 C1018 1.380 1_565 S
C1017 C1023 1.465 . S
C1018 C1013 1.392 1_545 S
C1018 C1017 1.380 1_545 S
C1018 C1019 1.537 . S
C1019 C1018 1.537 . S
C1019 C1020 1.502 . S
C1019 C1021 1.561 . S
C1019 C1022 1.526 . S
C1020 H1004 0.959 . S
C1020 H1005 0.959 . S
C1020 H1006 0.961 . S
C1020 C1019 1.502 . S
C1021 H1007 0.960 . S
C1021 H1008 0.961 . S
C1021 H1009 0.959 . S
C1021 C1019 1.561 . S
C1022 C1019 1.526 . S
C1022 C1023 1.396 1_545 S
C1022 C1027 1.390 . S
C1023 C1017 1.465 . S
C1023 C1022 1.396 1_565 S
C1023 C1024 1.399 . S
C1024 H1010 0.929 . S
C1024 C1023 1.399 . S
C1024 C1025 1.385 1_565 S
C1025 H1011 0.931 1_545 S
C1025 C1024 1.385 1_545 S
C1025 C1026 1.389 . S
C1026 C1025 1.389 . S
C1026 C1027 1.387 . S
C1027 H1012 0.930 . S
C1027 C1022 1.390 . S
C1027 C1026 1.387 . S
H1028 C1040 0.930 . S
H1029 C1042 0.930 . S
H1030 C1043 0.930 . S
H1031 C1047 0.959 . S
H1032 C1047 0.959 . S
H1033 C1047 0.961 . S
H1034 C1048 0.960 . S
H1035 C1048 0.961 1_545 S
H1036 C1048 0.959 1_545 S
H1037 C1051 0.929 . S
H1038 C1052 0.931 . S
H1039 C1054 0.930 . S
C1040 H1028 0.930 . S
C1040 C1041 1.399 1_556 S
C1040 C1045 1.399 . S
C1041 C1040 1.399 1_554 S
C1041 C1042 1.376 . S
C1042 H1029 0.930 . S
C1042 C1041 1.376 . S
C1042 C1043 1.388 . S
C1043 H1030 0.930 . S
C1043 C1042 1.388 . S
C1043 C1044 1.390 . S
C1044 C1043 1.390 . S
C1044 C1045 1.394 1_554 S
C1044 C1050 1.465 1_565 S
C1045 C1040 1.399 . S
C1045 C1044 1.394 1_556 S
C1045 C1046 1.516 . S
C1046 C1045 1.516 . S
C1046 C1047 1.502 . S
C1046 C1048 1.561 . S
C1046 C1049 1.526 1_565 S
C1047 H1031 0.959 . S
C1047 H1032 0.959 . S
C1047 H1033 0.961 . S
C1047 C1046 1.502 . S
C1048 H1034 0.960 . S
C1048 H1035 0.961 1_565 S
C1048 H1036 0.959 1_565 S
C1048 C1046 1.561 . S
C1049 C1046 1.526 1_545 S
C1049 C1050 1.396 1_556 S
C1049 C1054 1.390 . S
C1050 C1044 1.465 1_545 S
C1050 C1049 1.396 1_554 S
C1050 C1051 1.399 . S
C1051 H1037 0.929 . S
C1051 C1050 1.399 . S
C1051 C1052 1.385 . S
C1052 H1038 0.931 . S
C1052 C1051 1.385 . S
C1052 C1053 1.389 . S
C1053 C1052 1.389 . S
C1053 C1054 1.387 1_554 S
C1054 H1039 0.930 . S
C1054 C1049 1.390 . S
C1054 C1053 1.387 1_556 S
H1055 C1067 0.930 . S
H1056 C1069 0.930 . S
H1057 C1070 0.930 . S
H1058 C1074 0.959 . S
H1059 C1074 0.959 . S
H1060 C1074 0.961 . S
H1061 C1075 0.960 . S
H1062 C1075 0.961 1_545 S
H1063 C1075 0.959 . S
H1064 C1078 0.929 . S
H1065 C1079 0.931 . S
H1066 C1081 0.930 . S
C1067 H1055 0.930 . S
C1067 C1068 1.399 . S
C1067 C1072 1.399 . S
C1068 C1067 1.399 . S
C1068 C1069 1.376 . S
C1069 H1056 0.930 . S
C1069 C1068 1.376 . S
C1069 C1070 1.388 . S
C1070 H1057 0.930 . S
C1070 C1069 1.388 . S
C1070 C1071 1.390 . S
C1071 C1070 1.390 . S
C1071 C1072 1.394 . S
C1071 C1077 1.465 1_565 S
C1072 C1067 1.399 . S
C1072 C1071 1.394 . S
C1072 C1073 1.516 1_565 S
C1073 C1072 1.516 1_545 S
C1073 C1074 1.502 . S
C1073 C1075 1.561 1_545 S
C1073 C1076 1.526 . S
C1074 H1058 0.959 . S
C1074 H1059 0.959 . S
C1074 H1060 0.961 . S
C1074 C1073 1.502 . S
C1075 H1061 0.960 . S
C1075 H1062 0.961 1_565 S
C1075 H1063 0.959 . S
C1075 C1073 1.561 1_565 S
C1076 C1073 1.526 . S
C1076 C1077 1.396 . S
C1076 C1081 1.390 . S
C1077 C1071 1.465 1_545 S
C1077 C1076 1.396 . S
C1077 C1078 1.399 . S
C1078 H1064 0.929 . S
C1078 C1077 1.399 . S
C1078 C1079 1.385 . S
C1079 H1065 0.931 . S
C1079 C1078 1.385 . S
C1079 C1080 1.389 . S
C1080 C1079 1.389 . S
C1080 C1081 1.387 . S
C1081 H1066 0.930 . S
C1081 C1076 1.390 . S
C1081 C1080 1.387 . S
H1082 C1094 0.930 . S
H1083 C1096 0.930 . S
H1084 C1097 0.930 . S
H1085 C1101 0.944 1_556 S
H1086 C1101 0.964 . S
H1087 C1101 0.964 . S
H1088 C1102 0.960 . S
H1089 C1102 0.961 . S
H1090 C1102 0.959 . S
H1091 C1105 0.929 . S
H1092 C1106 0.931 . S
H1093 C1108 0.930 1_455 S
C1094 H1082 0.930 . S
C1094 C1095 1.405 . S
C1094 C1099 1.399 . S
C1095 C1094 1.405 . S
C1095 C1096 1.371 1_454 S
C1096 H1083 0.930 . S
C1096 C1095 1.371 1_656 S
C1096 C1097 1.388 . S
C1097 H1084 0.930 . S
C1097 C1096 1.388 . S
C1097 C1098 1.390 . S
C1098 C1097 1.390 . S
C1098 C1099 1.394 1_656 S
C1098 C1104 1.465 . S
C1099 C1094 1.399 . S
C1099 C1098 1.394 1_454 S
C1099 C1100 1.516 . S
C1100 C1099 1.516 . S
C1100 C1101 1.509 . S
C1100 C1102 1.561 . S
C1100 C1103 1.526 . S
C1101 H1085 0.944 1_554 S
C1101 H1086 0.964 . S
C1101 H1087 0.964 . S
C1101 C1100 1.509 . S
C1102 H1088 0.960 . S
C1102 H1089 0.961 . S
C1102 H1090 0.959 . S
C1102 C1100 1.561 . S
C1103 C1100 1.526 . S
C1103 C1104 1.396 1_454 S
C1103 C1108 1.390 1_455 S
C1104 C1098 1.465 . S
C1104 C1103 1.396 1_656 S
C1104 C1105 1.399 . S
C1105 H1091 0.929 . S
C1105 C1104 1.399 . S
C1105 C1106 1.385 . S
C1106 H1092 0.931 . S
C1106 C1105 1.385 . S
C1106 C1107 1.393 . S
C1107 C1106 1.393 . S
C1107 C1108 1.383 1_556 S
C1108 H1093 0.930 1_655 S
C1108 C1103 1.390 1_655 S
C1108 C1107 1.383 1_554 S
H1109 C1121 0.930 . S
H1110 C1123 0.930 . S
H1111 C1124 0.930 . S
H1112 C1128 0.959 . S
H1113 C1128 0.959 . S
H1114 C1128 0.961 . S
H1115 C1129 0.960 . S
H1116 C1129 0.961 . S
H1117 C1129 0.959 . S
H1118 C1132 0.929 . S
H1119 C1133 0.931 . S
H1120 C1135 0.930 . S
C1121 H1109 0.930 . S
C1121 C1122 1.399 . S
C1121 C1126 1.399 . S
C1122 C1121 1.399 . S
C1122 C1123 1.376 . S
C1123 H1110 0.930 . S
C1123 C1122 1.376 . S
C1123 C1124 1.388 . S
C1124 H1111 0.930 . S
C1124 C1123 1.388 . S
C1124 C1125 1.390 . S
C1125 C1124 1.390 . S
C1125 C1126 1.394 . S
C1125 C1131 1.465 1_455 S
C1126 C1121 1.399 . S
C1126 C1125 1.394 . S
C1126 C1127 1.516 1_455 S
C1127 C1126 1.516 1_655 S
C1127 C1128 1.502 1_655 S
C1127 C1129 1.561 . S
C1127 C1130 1.526 . S
C1128 H1112 0.959 . S
C1128 H1113 0.959 . S
C1128 H1114 0.961 . S
C1128 C1127 1.502 1_455 S
C1129 H1115 0.960 . S
C1129 H1116 0.961 . S
C1129 H1117 0.959 . S
C1129 C1127 1.561 . S
C1130 C1127 1.526 . S
C1130 C1131 1.396 . S
C1130 C1135 1.390 . S
C1131 C1125 1.465 1_655 S
C1131 C1130 1.396 . S
C1131 C1132 1.399 . S
C1132 H1118 0.929 . S
C1132 C1131 1.399 . S
C1132 C1133 1.385 . S
C1133 H1119 0.931 . S
C1133 C1132 1.385 . S
C1133 C1134 1.389 . S
C1134 C1133 1.389 . S
C1134 C1135 1.387 . S
C1135 H1120 0.930 . S
C1135 C1130 1.390 . S
C1135 C1134 1.387 . S
C717 C460 1.557 . S
C729 C29 1.571 . S
C744 C381 1.558 . S
C756 C108 1.571 . S
C771 C673 1.575 . S
C783 C225 1.564 . S
C798 C577 1.553 . S
C810 C321 1.577 . S
C825 C20 1.349 . S
C837 C233 1.349 . S
C852 C117 1.327 . S
C864 C313 1.318 . S
C879 C145 1.346 . S
C891 C284 1.351 . S
C906 C49 1.320 . S
C918 C205 1.339 . S
C933 C372 1.350 . S
C945 C585 1.349 . S
C960 C665 1.341 . S
C972 C469 1.345 . S
C987 C636 1.349 . S
C999 C497 1.335 . S
C1014 C401 1.318 . S
C1026 C557 1.335 . S
C1041 C137 1.577 . S
C1053 C57 1.610 . S
C1068 C196 1.609 . S
C1080 C293 1.584 . S
C1095 C409 1.614 . S
C1107 C489 1.576 1_556 S
C1122 C548 1.600 . S
C1134 C645 1.594 . S
