# Generated by pormake.
# Topology uoz, (4)-cn, num edge types: 1
# Building blocks:
#     Node 0, Type 0, BuildingBlock: QUQFOY_clean_sbu_1, # of connection points: 4
#     Node 1, Type 0, BuildingBlock: QUQFOY_clean_sbu_1, # of connection points: 4
#     Node 2, Type 0, BuildingBlock: QUQFOY_clean_sbu_1, # of connection points: 4
#     Node 3, Type 0, BuildingBlock: QUQFOY_clean_sbu_1, # of connection points: 4
#     Node 4, Type 0, BuildingBlock: QUQFOY_clean_sbu_1, # of connection points: 4
#     Node 5, Type 0, BuildingBlock: QUQFOY_clean_sbu_1, # of connection points: 4
#     Node 6, Type 0, BuildingBlock: QUQFOY_clean_sbu_1, # of connection points: 4
#     Node 7, Type 0, BuildingBlock: QUQFOY_clean_sbu_1, # of connection points: 4
#     Node 8, Type 0, BuildingBlock: QUQFOY_clean_sbu_1, # of connection points: 4
#     Node 9, Type 0, BuildingBlock: QUQFOY_clean_sbu_1, # of connection points: 4
#     Node 10, Type 0, BuildingBlock: QUQFOY_clean_sbu_1, # of connection points: 4
#     Node 11, Type 0, BuildingBlock: QUQFOY_clean_sbu_1, # of connection points: 4
#     Node 12, Type 0, BuildingBlock: QUQFOY_clean_sbu_1, # of connection points: 4
#     Node 13, Type 0, BuildingBlock: QUQFOY_clean_sbu_1, # of connection points: 4
#     Node 14, Type 0, BuildingBlock: QUQFOY_clean_sbu_1, # of connection points: 4
#     Node 15, Type 0, BuildingBlock: QUQFOY_clean_sbu_1, # of connection points: 4
#     Edge 16, Type (0, 0), BuildingBlock: XUDNAN_clean_linker_2, # of connection points: 2
#     Edge 17, Type (0, 0), BuildingBlock: XUDNAN_clean_linker_2, # of connection points: 2
#     Edge 18, Type (0, 0), BuildingBlock: XUDNAN_clean_linker_2, # of connection points: 2
#     Edge 19, Type (0, 0), BuildingBlock: XUDNAN_clean_linker_2, # of connection points: 2
#     Edge 20, Type (0, 0), BuildingBlock: XUDNAN_clean_linker_2, # of connection points: 2
#     Edge 21, Type (0, 0), BuildingBlock: XUDNAN_clean_linker_2, # of connection points: 2
#     Edge 22, Type (0, 0), BuildingBlock: XUDNAN_clean_linker_2, # of connection points: 2
#     Edge 23, Type (0, 0), BuildingBlock: XUDNAN_clean_linker_2, # of connection points: 2
#     Edge 24, Type (0, 0), BuildingBlock: XUDNAN_clean_linker_2, # of connection points: 2
#     Edge 25, Type (0, 0), BuildingBlock: XUDNAN_clean_linker_2, # of connection points: 2
#     Edge 26, Type (0, 0), BuildingBlock: XUDNAN_clean_linker_2, # of connection points: 2
#     Edge 27, Type (0, 0), BuildingBlock: XUDNAN_clean_linker_2, # of connection points: 2
#     Edge 28, Type (0, 0), BuildingBlock: XUDNAN_clean_linker_2, # of connection points: 2
#     Edge 29, Type (0, 0), BuildingBlock: XUDNAN_clean_linker_2, # of connection points: 2
#     Edge 30, Type (0, 0), BuildingBlock: XUDNAN_clean_linker_2, # of connection points: 2
#     Edge 31, Type (0, 0), BuildingBlock: XUDNAN_clean_linker_2, # of connection points: 2
#     Edge 32, Type (0, 0), BuildingBlock: XUDNAN_clean_linker_2, # of connection points: 2
#     Edge 33, Type (0, 0), BuildingBlock: XUDNAN_clean_linker_2, # of connection points: 2
#     Edge 34, Type (0, 0), BuildingBlock: XUDNAN_clean_linker_2, # of connection points: 2
#     Edge 35, Type (0, 0), BuildingBlock: XUDNAN_clean_linker_2, # of connection points: 2
#     Edge 36, Type (0, 0), BuildingBlock: XUDNAN_clean_linker_2, # of connection points: 2
#     Edge 37, Type (0, 0), BuildingBlock: XUDNAN_clean_linker_2, # of connection points: 2
#     Edge 38, Type (0, 0), BuildingBlock: XUDNAN_clean_linker_2, # of connection points: 2
#     Edge 39, Type (0, 0), BuildingBlock: XUDNAN_clean_linker_2, # of connection points: 2
#     Edge 40, Type (0, 0), BuildingBlock: XUDNAN_clean_linker_2, # of connection points: 2
#     Edge 41, Type (0, 0), BuildingBlock: XUDNAN_clean_linker_2, # of connection points: 2
#     Edge 42, Type (0, 0), BuildingBlock: XUDNAN_clean_linker_2, # of connection points: 2
#     Edge 43, Type (0, 0), BuildingBlock: XUDNAN_clean_linker_2, # of connection points: 2
#     Edge 44, Type (0, 0), BuildingBlock: XUDNAN_clean_linker_2, # of connection points: 2
#     Edge 45, Type (0, 0), BuildingBlock: XUDNAN_clean_linker_2, # of connection points: 2
#     Edge 46, Type (0, 0), BuildingBlock: XUDNAN_clean_linker_2, # of connection points: 2
#     Edge 47, Type (0, 0), BuildingBlock: XUDNAN_clean_linker_2, # of connection points: 2
# Relax obj value: 0.169
# Max RMSD: 0.208
# Mean RMSD: 0.208
data_MOF--net-uoz--node1-QUQFOY_clean_sbu_1--edge1-XUDNAN_clean_linker_2
_symmetry_space_group_name_H-M    P1
_symmetry_Int_Tables_number       1
_symmetry_cell_setting            triclinic
loop_
_symmetry_equiv_pos_as_xyz
'x, y, z'
_cell_length_a     64.000453
_cell_length_b     63.997709
_cell_length_c     22.407272
_cell_angle_alpha  89.960755
_cell_angle_beta   90.010964
_cell_angle_gamma 90.015705
loop_
_atom_site_label
_atom_site_type_symbol
_atom_site_fract_x
_atom_site_fract_y
_atom_site_fract_z
_atom_type_partial_charge
O0 O 0.09488 0.55641 0.25591 0.0
Cd1 Cd 0.09456 0.57401 0.3323 0.0
Cd2 Cd 0.05772 0.58628 0.27414 0.0
O3 O 0.06106 0.55703 0.2379 0.0
O4 O 0.11503 0.55916 0.3844 0.0
O5 O 0.08131 0.56065 0.40504 0.0
C6 C 0.09961 0.55325 0.41739 0.0
C7 C 0.02445 0.60168 0.26632 0.0
C8 C 0.07911 0.54969 0.22749 0.0
C9 C 0.09733 0.61388 0.27359 0.0
O10 O 0.08027 0.60769 0.25067 0.0
O11 O 0.10511 0.60425 0.31809 0.0
O12 O 0.03548 0.59722 0.22028 0.0
O13 O 0.0318 0.59646 0.31782 0.0
O14 O 0.76299 0.76961 0.4849 0.0
Cd15 Cd 0.74724 0.77306 0.56431 0.0
Cd16 Cd 0.7201 0.74252 0.49731 0.0
O17 O 0.75039 0.73802 0.47065 0.0
O18 O 0.76769 0.78588 0.62131 0.0
O19 O 0.75571 0.75359 0.63051 0.0
C20 C 0.76816 0.76816 0.64884 0.0
C21 C 0.69933 0.71494 0.46089 0.0
C22 C 0.76364 0.7521 0.45852 0.0
C23 C 0.70624 0.78805 0.52196 0.0
O24 O 0.7055 0.77137 0.49118 0.0
O25 O 0.72024 0.79068 0.56162 0.0
O26 O 0.70297 0.71664 0.51732 0.0
O27 O 0.70697 0.72903 0.42646 0.0
O28 O 0.53601 0.44004 0.75511 0.0
Cd29 Cd 0.54028 0.42383 0.83337 0.0
Cd30 Cd 0.5723 0.40764 0.75186 0.0
O31 O 0.56845 0.43784 0.72335 0.0
O32 O 0.5192 0.43799 0.8851 0.0
O33 O 0.553 0.43992 0.90283 0.0
C34 C 0.53426 0.4458 0.91595 0.0
C35 C 0.6038 0.39212 0.72073 0.0
C36 C 0.5505 0.44615 0.72071 0.0
C37 C 0.53359 0.38216 0.78382 0.0
O38 O 0.54718 0.38739 0.74525 0.0
O39 O 0.53103 0.39288 0.83107 0.0
O40 O 0.58949 0.39743 0.68356 0.0
O41 O 0.6005 0.39578 0.77655 0.0
O42 O 0.87318 0.21977 0.01491 0.0
Cd43 Cd 0.89438 0.22457 0.08205 0.0
Cd44 Cd 0.90283 0.25785 0.01411 0.0
O45 O 0.87261 0.25272 0.98673 0.0
O46 O 0.88135 0.21258 0.15534 0.0
O47 O 0.88613 0.24655 0.14116 0.0
C48 C 0.87809 0.23158 0.17259 0.0
C49 C 0.91654 0.29181 0.00931 0.0
C50 C 0.86492 0.23443 0.98498 0.0
C51 C 0.93197 0.22 0.01321 0.0
O52 O 0.92437 0.23592 0.98722 0.0
O53 O 0.92415 0.21371 0.0623 0.0
O54 O 0.9117 0.28153 0.96204 0.0
O55 O 0.9126 0.28323 0.06024 0.0
O56 O 0.0894 0.44347 0.86679 0.0
Cd57 Cd 0.08849 0.4215 0.80058 0.0
Cd58 Cd 0.05345 0.41066 0.87957 0.0
O59 O 0.05654 0.44209 0.89573 0.0
O60 O 0.10997 0.43313 0.745 0.0
O61 O 0.07652 0.43171 0.72174 0.0
C62 C 0.09515 0.438 0.7087 0.0
C63 C 0.02134 0.39614 0.91087 0.0
C64 C 0.07418 0.45115 0.89558 0.0
C65 C 0.09462 0.38528 0.87758 0.0
O66 O 0.07833 0.39194 0.90386 0.0
O67 O 0.09995 0.3926 0.82694 0.0
O68 O 0.03451 0.40392 0.94782 0.0
O69 O 0.02603 0.39689 0.85494 0.0
O70 O 0.87089 0.77155 0.11971 0.0
Cd71 Cd 0.89222 0.77482 0.05193 0.0
Cd72 Cd 0.90806 0.73976 0.11709 0.0
O73 O 0.87601 0.73768 0.11868 0.0
O74 O 0.87707 0.78804 0.98368 0.0
O75 O 0.88786 0.75509 0.98379 0.0
C76 C 0.87731 0.76989 0.95833 0.0
C77 C 0.92415 0.70913 0.15307 0.0
C78 C 0.86486 0.75326 0.13291 0.0
C79 C 0.92802 0.78376 0.12479 0.0
O80 O 0.92331 0.76623 0.14799 0.0
O81 O 0.91976 0.78947 0.07577 0.0
O82 O 0.9255 0.7141 0.09739 0.0
O83 O 0.91367 0.72135 0.18717 0.0
O84 O 0.53238 0.55589 0.36822 0.0
Cd85 Cd 0.5339 0.57732 0.30011 0.0
Cd86 Cd 0.5681 0.58696 0.36572 0.0
O87 O 0.56577 0.55632 0.39149 0.0
O88 O 0.51396 0.5655 0.24078 0.0
O89 O 0.54799 0.56709 0.2247 0.0
C90 C 0.52976 0.5607 0.20783 0.0
C91 C 0.60061 0.60365 0.36398 0.0
C92 C 0.54782 0.54799 0.39569 0.0
C93 C 0.5294 0.61411 0.37337 0.0
O94 O 0.5454 0.60648 0.39875 0.0
O95 O 0.52337 0.60692 0.3233 0.0
O96 O 0.59238 0.59718 0.41296 0.0
O97 O 0.59096 0.59945 0.31481 0.0
O98 O 0.75868 0.21931 0.62337 0.0
Cd99 Cd 0.74178 0.22448 0.54666 0.0
Cd100 Cd 0.72374 0.25327 0.62144 0.0
O101 O 0.75185 0.24991 0.66385 0.0
O102 O 0.75958 0.21263 0.48156 0.0
O103 O 0.75296 0.2464 0.49058 0.0
C104 C 0.76296 0.23153 0.46389 0.0
C105 C 0.70757 0.28608 0.62727 0.0
C106 C 0.76221 0.23302 0.66301 0.0
C107 C 0.70006 0.21379 0.58979 0.0
O108 O 0.70338 0.22836 0.6271 0.0
O109 O 0.71222 0.21122 0.54543 0.0
O110 O 0.70941 0.27416 0.67317 0.0
O111 O 0.71536 0.27958 0.57747 0.0
O112 O 0.37637 0.27837 0.61654 0.0
Cd113 Cd 0.39792 0.2757 0.54931 0.0
Cd114 Cd 0.40667 0.24057 0.6197 0.0
O115 O 0.37651 0.24567 0.64741 0.0
O116 O 0.38727 0.29655 0.49047 0.0
O117 O 0.38713 0.26262 0.4728 0.0
C118 C 0.38179 0.28124 0.45657 0.0
C119 C 0.41996 0.20643 0.62464 0.0
C120 C 0.36842 0.26379 0.64747 0.0
C121 C 0.43578 0.27861 0.62131 0.0
O122 O 0.42837 0.26242 0.64643 0.0
O123 O 0.42773 0.2854 0.57309 0.0
O124 O 0.41544 0.21687 0.67188 0.0
O125 O 0.41606 0.21502 0.5737 0.0
O126 O 0.25549 0.72199 0.11873 0.0
Cd127 Cd 0.23598 0.72524 0.04627 0.0
Cd128 Cd 0.22051 0.75483 0.12692 0.0
O129 O 0.25047 0.75306 0.15842 0.0
O130 O 0.24936 0.70548 0.98915 0.0
O131 O 0.24851 0.73947 0.97337 0.0
C132 C 0.25493 0.72121 0.95711 0.0
C133 C 0.20341 0.78712 0.12928 0.0
C134 C 0.26083 0.73622 0.1551 0.0
C135 C 0.19609 0.71556 0.10495 0.0
O136 O 0.20134 0.72946 0.14248 0.0
O137 O 0.20597 0.71362 0.05601 0.0
O138 O 0.2074 0.77686 0.17737 0.0
O139 O 0.20971 0.7793 0.07928 0.0
O140 O 0.26035 0.28367 0.00133 0.0
Cd141 Cd 0.24449 0.28172 0.08102 0.0
Cd142 Cd 0.22495 0.2503 0.00931 0.0
O143 O 0.25296 0.25244 0.96559 0.0
O144 O 0.26116 0.30157 0.13073 0.0
O145 O 0.25968 0.26788 0.1505 0.0
C146 C 0.26752 0.28601 0.16229 0.0
C147 C 0.2081 0.21775 0.0067 0.0
C148 C 0.26347 0.26923 0.96362 0.0
C149 C 0.20197 0.29064 0.03739 0.0
O150 O 0.20492 0.27546 0.00187 0.0
O151 O 0.21453 0.29402 0.08039 0.0
O152 O 0.21004 0.22914 0.95977 0.0
O153 O 0.21616 0.22462 0.05573 0.0
O154 O 0.3738 0.72554 0.49975 0.0
Cd155 Cd 0.39052 0.72888 0.57755 0.0
Cd156 Cd 0.40908 0.75894 0.49751 0.0
O157 O 0.3805 0.75592 0.45727 0.0
O158 O 0.37534 0.70826 0.62839 0.0
O159 O 0.37537 0.74192 0.64841 0.0
C160 C 0.3686 0.72341 0.66072 0.0
C161 C 0.42603 0.7913 0.48882 0.0
C162 C 0.37009 0.73908 0.45975 0.0
C163 C 0.43237 0.71928 0.5307 0.0
O164 O 0.42886 0.73352 0.49248 0.0
O165 O 0.42055 0.71705 0.57589 0.0
O166 O 0.42367 0.77909 0.44378 0.0
O167 O 0.41829 0.78538 0.5393 0.0
O168 O 0.5946 0.058 0.74836 0.0
Cd169 Cd 0.59234 0.07781 0.81957 0.0
Cd170 Cd 0.55642 0.08773 0.74682 0.0
O171 O 0.56116 0.05684 0.72594 0.0
O172 O 0.61366 0.06566 0.87468 0.0
O173 O 0.57992 0.0653 0.89493 0.0
C174 C 0.59863 0.05939 0.90852 0.0
C175 C 0.52344 0.10097 0.71856 0.0
C176 C 0.57953 0.04964 0.72049 0.0
C177 C 0.59602 0.11552 0.74928 0.0
O178 O 0.57996 0.10822 0.72318 0.0
O179 O 0.60211 0.10783 0.79876 0.0
O180 O 0.53672 0.09426 0.68026 0.0
O181 O 0.5285 0.09976 0.77416 0.0
O182 O 0.03359 0.94487 0.2647 0.0
Cd183 Cd 0.03973 0.9264 0.33756 0.0
Cd184 Cd 0.06719 0.90899 0.2525 0.0
O185 O 0.06435 0.93933 0.2238 0.0
O186 O 0.02891 0.94302 0.40638 0.0
O187 O 0.06248 0.93629 0.39295 0.0
C188 C 0.04805 0.94592 0.42253 0.0
C189 C 0.09771 0.89211 0.21925 0.0
C190 C 0.04751 0.94972 0.22692 0.0
C191 C 0.02717 0.88618 0.28859 0.0
O192 O 0.041 0.89003 0.24936 0.0
O193 O 0.02598 0.89721 0.33571 0.0
O194 O 0.08313 0.89766 0.18321 0.0
O195 O 0.0952 0.89623 0.27515 0.0
O196 O 0.59796 0.94499 0.35712 0.0
Cd197 Cd 0.59705 0.92467 0.28674 0.0
Cd198 Cd 0.56273 0.91224 0.36216 0.0
O199 O 0.56464 0.94361 0.38051 0.0
O200 O 0.61758 0.93812 0.23162 0.0
O201 O 0.58396 0.93607 0.2108 0.0
C202 C 0.60224 0.94324 0.1974 0.0
C203 C 0.53096 0.89644 0.39099 0.0
C204 C 0.58237 0.95232 0.38496 0.0
C205 C 0.60449 0.88817 0.35934 0.0
O206 O 0.58829 0.89449 0.38678 0.0
O207 O 0.60917 0.89558 0.3083 0.0
O208 O 0.54358 0.90449 0.42902 0.0
O209 O 0.53604 0.89754 0.3354 0.0
O210 O 0.03788 0.06109 0.87422 0.0
Cd211 Cd 0.04518 0.07966 0.8024 0.0
Cd212 Cd 0.07273 0.09499 0.88924 0.0
O213 O 0.06879 0.06457 0.91601 0.0
O214 O 0.03319 0.06416 0.73298 0.0
O215 O 0.06715 0.06865 0.74616 0.0
C216 C 0.05207 0.06012 0.7164 0.0
C217 C 0.10395 0.11095 0.92054 0.0
C218 C 0.0514 0.05516 0.91195 0.0
C219 C 0.03414 0.11982 0.85419 0.0
O220 O 0.04719 0.11471 0.89438 0.0
O221 O 0.03311 0.10959 0.80557 0.0
O222 O 0.08971 0.10544 0.95772 0.0
O223 O 0.10076 0.10714 0.86473 0.0
H224 H 0.18737 0.69872 0.21405 0.0
H225 H 0.16679 0.69935 0.02962 0.0
H226 H 0.13805 0.67505 0.05538 0.0
H227 H 0.17864 0.64391 0.23589 0.0
H228 H 0.17043 0.64653 0.31247 0.0
H229 H 0.18832 0.6652 0.28072 0.0
H230 H 0.16331 0.69533 0.30985 0.0
H231 H 0.14529 0.67674 0.34152 0.0
H232 H 0.13655 0.6947 0.28476 0.0
H233 H 0.11152 0.65167 0.10102 0.0
H234 H 0.09098 0.62672 0.15971 0.0
H235 H 0.13043 0.63829 0.31411 0.0
C236 C 0.17664 0.69388 0.17932 0.0
C237 C 0.179 0.70106 0.11998 0.0
C238 C 0.1651 0.69404 0.07529 0.0
C239 C 0.14873 0.68036 0.08961 0.0
C240 C 0.1468 0.67358 0.14854 0.0
C241 C 0.16056 0.67979 0.19254 0.0
C242 C 0.15587 0.66894 0.25135 0.0
C243 C 0.17442 0.65533 0.27126 0.0
C244 C 0.1499 0.68488 0.29972 0.0
C245 C 0.13727 0.65566 0.23353 0.0
C246 C 0.13215 0.65895 0.17427 0.0
C247 C 0.11543 0.64887 0.14733 0.0
C248 C 0.10379 0.63476 0.18139 0.0
C249 C 0.10907 0.63047 0.24174 0.0
C250 C 0.12603 0.64119 0.26818 0.0
H251 H 0.62995 0.85646 0.31653 0.0
H252 H 0.61236 0.88975 0.47753 0.0
H253 H 0.63699 0.86847 0.53606 0.0
H254 H 0.63353 0.80589 0.38811 0.0
H255 H 0.65542 0.79726 0.34396 0.0
H256 H 0.63715 0.81582 0.3135 0.0
H257 H 0.66752 0.84154 0.29212 0.0
H258 H 0.68588 0.82305 0.32259 0.0
H259 H 0.68465 0.84921 0.35213 0.0
H260 H 0.66436 0.84465 0.57712 0.0
H261 H 0.69035 0.81705 0.59945 0.0
H262 H 0.68814 0.79701 0.41459 0.0
C263 C 0.6314 0.85925 0.36401 0.0
C264 C 0.6193 0.87477 0.39248 0.0
C265 C 0.6214 0.87784 0.45486 0.0
C266 C 0.63542 0.86592 0.48852 0.0
C267 C 0.64707 0.8507 0.45944 0.0
C268 C 0.64504 0.84707 0.39881 0.0
C269 C 0.65871 0.82896 0.37953 0.0
C270 C 0.6454 0.81091 0.35483 0.0
C271 C 0.67516 0.83613 0.33389 0.0
C272 C 0.66873 0.82314 0.43865 0.0
C273 C 0.66203 0.83609 0.48398 0.0
C274 C 0.66962 0.83425 0.54214 0.0
C275 C 0.68438 0.8186 0.55443 0.0
C276 C 0.69102 0.8048 0.509 0.0
C277 C 0.68307 0.80716 0.45044 0.0
H278 H 0.51828 0.37073 0.67535 0.0
H279 H 0.51734 0.35378 0.86275 0.0
H280 H 0.49417 0.32383 0.83941 0.0
H281 H 0.46422 0.36018 0.65009 0.0
H282 H 0.46798 0.35069 0.57513 0.0
H283 H 0.48581 0.36959 0.60592 0.0
H284 H 0.51686 0.34485 0.5834 0.0
H285 H 0.4991 0.32581 0.55278 0.0
H286 H 0.51657 0.31857 0.61242 0.0
H287 H 0.47165 0.29578 0.7954 0.0
H288 H 0.44755 0.27393 0.73727 0.0
H289 H 0.46062 0.31086 0.57884 0.0
C290 C 0.51338 0.36053 0.71134 0.0
C291 C 0.51979 0.36427 0.77077 0.0
C292 C 0.51265 0.35104 0.81698 0.0
C293 C 0.4996 0.33398 0.80404 0.0
C294 C 0.4936 0.3307 0.74488 0.0
C295 C 0.49997 0.3438 0.69941 0.0
C296 C 0.48997 0.33781 0.64045 0.0
C297 C 0.47617 0.35563 0.61652 0.0
C298 C 0.50662 0.33138 0.59456 0.0
C299 C 0.47693 0.31924 0.6598 0.0
C300 C 0.47959 0.31523 0.72 0.0
C301 C 0.46939 0.29882 0.74832 0.0
C302 C 0.45576 0.28644 0.71465 0.0
C303 C 0.45211 0.29067 0.65331 0.0
C304 C 0.46305 0.30722 0.62553 0.0
H305 H 0.95827 0.18905 0.05718 0.0
H306 H 0.94215 0.22317 0.8959 0.0
H307 H 0.96674 0.20178 0.8384 0.0
H308 H 0.014 0.18401 0.02091 0.0
H309 H 0.01606 0.15819 0.05255 0.0
H310 H 0.99733 0.17647 0.08209 0.0
H311 H 0.96765 0.14965 0.06399 0.0
H312 H 0.98628 0.13135 0.03416 0.0
H313 H 0.96394 0.13899 0.99029 0.0
H314 H 0.99074 0.1749 0.79587 0.0
H315 H 0.01576 0.14639 0.7739 0.0
H316 H 0.01861 0.13136 0.96257 0.0
C317 C 0.96008 0.19212 0.00993 0.0
C318 C 0.94821 0.20782 0.98128 0.0
C319 C 0.95109 0.21135 0.91923 0.0
C320 C 0.96499 0.19921 0.88589 0.0
C321 C 0.97625 0.18375 0.91515 0.0
C322 C 0.97427 0.18035 0.97588 0.0
C323 C 0.98852 0.1628 0.99609 0.0
C324 C 0.00495 0.17085 0.04054 0.0
C325 C 0.97583 0.14462 0.02269 0.0
C326 C 0.99845 0.15673 0.9371 0.0
C327 C 0.991 0.16889 0.89088 0.0
C328 C 0.99697 0.16546 0.83178 0.0
C329 C 0.01109 0.14923 0.81964 0.0
C330 C 0.01929 0.13693 0.86654 0.0
C331 C 0.01289 0.14082 0.92594 0.0
H332 H 0.12414 0.35753 0.83351 0.0
H333 H 0.09682 0.38092 0.99779 0.0
H334 H 0.12101 0.35925 0.05634 0.0
H335 H 0.1312 0.30408 0.8881 0.0
H336 H 0.15548 0.30034 0.84879 0.0
H337 H 0.13598 0.31778 0.81911 0.0
H338 H 0.16321 0.34775 0.81668 0.0
H339 H 0.18276 0.33041 0.84655 0.0
H340 H 0.17695 0.35462 0.88413 0.0
H341 H 0.14985 0.33721 0.0978 0.0
H342 H 0.17911 0.31293 0.11877 0.0
H343 H 0.18585 0.30139 0.92899 0.0
C344 C 0.1232 0.35796 0.88175 0.0
C345 C 0.10857 0.37094 0.91095 0.0
C346 C 0.10777 0.371 0.97425 0.0
C347 C 0.12152 0.35881 0.00808 0.0
C348 C 0.13583 0.34631 0.97813 0.0
C349 C 0.13657 0.34547 0.91646 0.0
C350 C 0.15319 0.33024 0.89576 0.0
C351 C 0.14337 0.31203 0.86089 0.0
C352 C 0.17002 0.34143 0.85859 0.0
C353 C 0.1618 0.32298 0.95537 0.0
C354 C 0.15172 0.33262 0.00231 0.0
C355 C 0.15768 0.32928 0.06149 0.0
C356 C 0.17432 0.31556 0.07302 0.0
C357 C 0.18447 0.30511 0.02565 0.0
C358 C 0.17805 0.30887 0.96617 0.0
H359 H 0.01422 0.87229 0.17964 0.0
H360 H 0.00461 0.86321 0.36961 0.0
H361 H 0.97838 0.83578 0.34768 0.0
H362 H 0.96019 0.86679 0.13862 0.0
H363 H 0.96576 0.85373 0.06917 0.0
H364 H 0.98433 0.87195 0.09984 0.0
H365 H 0.01306 0.84347 0.097 0.0
H366 H 0.99461 0.82515 0.06625 0.0
H367 H 0.00857 0.8188 0.13374 0.0
H368 H 0.95436 0.80866 0.30489 0.0
H369 H 0.93193 0.78544 0.2451 0.0
H370 H 0.95513 0.814 0.08235 0.0
C371 C 0.00672 0.86441 0.21669 0.0
C372 C 0.0116 0.86965 0.27644 0.0
C373 C 0.00114 0.85934 0.32361 0.0
C374 C 0.98628 0.84375 0.31153 0.0
C375 C 0.98185 0.83898 0.25208 0.0
C376 C 0.99158 0.84916 0.20543 0.0
C377 C 0.9834 0.84169 0.14557 0.0
C378 C 0.97279 0.85961 0.1113 0.0
C379 C 0.00096 0.83168 0.10847 0.0
C380 C 0.96762 0.82552 0.16576 0.0
C381 C 0.96718 0.82408 0.22738 0.0
C382 C 0.95446 0.80976 0.2567 0.0
C383 C 0.94184 0.79659 0.22225 0.0
C384 C 0.94174 0.79798 0.15907 0.0
C385 C 0.95473 0.81275 0.13054 0.0
H386 H 0.44637 0.70606 0.4223 0.0
H387 H 0.45557 0.6976 0.61262 0.0
H388 H 0.48264 0.67091 0.59199 0.0
H389 H 0.45 0.65215 0.3858 0.0
H390 H 0.46301 0.65633 0.31546 0.0
H391 H 0.44581 0.67605 0.34489 0.0
H392 H 0.47558 0.7034 0.3386 0.0
H393 H 0.49289 0.68378 0.30896 0.0
H394 H 0.50017 0.69816 0.3749 0.0
H395 H 0.50838 0.64543 0.55081 0.0
H396 H 0.52934 0.62044 0.493 0.0
H397 H 0.50151 0.64331 0.32868 0.0
C398 C 0.45435 0.69883 0.45962 0.0
C399 C 0.44919 0.70407 0.51912 0.0
C400 C 0.45946 0.69387 0.56681 0.0
C401 C 0.47484 0.67877 0.55547 0.0
C402 C 0.47945 0.67386 0.49625 0.0
C403 C 0.46937 0.68341 0.44909 0.0
C404 C 0.47619 0.67423 0.38979 0.0
C405 C 0.45765 0.66409 0.35708 0.0
C406 C 0.48684 0.69089 0.35077 0.0
C407 C 0.4917 0.65796 0.41094 0.0
C408 C 0.49353 0.65829 0.47247 0.0
C409 C 0.50705 0.645 0.50268 0.0
C410 C 0.51894 0.63089 0.46927 0.0
C411 C 0.51705 0.6299 0.40623 0.0
C412 C 0.5032 0.64364 0.37675 0.0
H413 H 0.68607 0.20068 0.69818 0.0
H414 H 0.6756 0.19328 0.50812 0.0
H415 H 0.64653 0.16876 0.52942 0.0
H416 H 0.67779 0.14681 0.7347 0.0
H417 H 0.66557 0.15223 0.80548 0.0
H418 H 0.68448 0.17019 0.77527 0.0
H419 H 0.6575 0.20025 0.78279 0.0
H420 H 0.63846 0.18236 0.81282 0.0
H421 H 0.63239 0.19747 0.74714 0.0
H422 H 0.6183 0.14601 0.57165 0.0
H423 H 0.5954 0.12296 0.62999 0.0
H424 H 0.62614 0.14268 0.7934 0.0
C425 C 0.6775 0.19404 0.66106 0.0
C426 C 0.6828 0.19905 0.60143 0.0
C427 C 0.67166 0.18968 0.554 0.0
C428 C 0.65512 0.17585 0.56575 0.0
C429 C 0.65026 0.17131 0.62512 0.0
C430 C 0.66133 0.17985 0.67198 0.0
C431 C 0.65387 0.17133 0.73151 0.0
C432 C 0.67147 0.15943 0.76361 0.0
C433 C 0.64503 0.1889 0.77088 0.0
C434 C 0.63677 0.15665 0.71089 0.0
C435 C 0.63476 0.1572 0.64941 0.0
C436 C 0.61981 0.14537 0.61973 0.0
C437 C 0.60679 0.13239 0.65351 0.0
C438 C 0.60895 0.13096 0.71646 0.0
C439 C 0.62413 0.14337 0.74545 0.0
H440 H 0.99463 0.37011 0.84967 0.0
H441 H 0.00549 0.39784 0.02362 0.0
H442 H 0.97661 0.37705 0.06557 0.0
H443 H 0.93653 0.36521 0.86397 0.0
H444 H 0.93632 0.34042 0.82583 0.0
H445 H 0.95578 0.35974 0.80735 0.0
H446 H 0.98504 0.33277 0.82877 0.0
H447 H 0.96573 0.31344 0.84745 0.0
H448 H 0.98591 0.31995 0.90041 0.0
H449 H 0.94987 0.35002 0.09182 0.0
H450 H 0.9269 0.31903 0.09933 0.0
H451 H 0.93295 0.30926 0.90846 0.0
C452 C 0.99053 0.37224 0.89615 0.0
C453 C 0.00225 0.38567 0.93325 0.0
C454 C 0.9967 0.38768 0.99424 0.0
C455 C 0.98026 0.37598 0.01852 0.0
C456 C 0.96938 0.36243 0.98122 0.0
C457 C 0.97415 0.36061 0.92121 0.0
C458 C 0.96124 0.3436 0.8921 0.0
C459 C 0.9466 0.3528 0.8445 0.0
C460 C 0.97532 0.32643 0.86566 0.0
C461 C 0.94906 0.33567 0.94551 0.0
C462 C 0.95378 0.34689 0.99638 0.0
C463 C 0.94572 0.34137 0.05207 0.0
C464 C 0.93272 0.32373 0.05597 0.0
C465 C 0.92796 0.31185 0.00449 0.0
C466 C 0.93596 0.31823 0.94852 0.0
H467 H 0.49741 0.12704 0.78156 0.0
H468 H 0.50605 0.09839 0.6079 0.0
H469 H 0.47693 0.11926 0.56769 0.0
H470 H 0.43898 0.13305 0.77162 0.0
H471 H 0.43978 0.158 0.80881 0.0
H472 H 0.45887 0.13824 0.82664 0.0
H473 H 0.48862 0.16435 0.80223 0.0
H474 H 0.4697 0.18409 0.78402 0.0
H475 H 0.48924 0.17678 0.73001 0.0
H476 H 0.45074 0.14683 0.54234 0.0
H477 H 0.42877 0.17852 0.53504 0.0
H478 H 0.43668 0.18898 0.72505 0.0
C479 C 0.4927 0.12467 0.73565 0.0
C480 C 0.50391 0.11101 0.69799 0.0
C481 C 0.49764 0.10873 0.63767 0.0
C482 C 0.48106 0.12047 0.6144 0.0
C483 C 0.47077 0.13435 0.65207 0.0
C484 C 0.47619 0.13636 0.7116 0.0
C485 C 0.46401 0.15386 0.74093 0.0
C486 C 0.44955 0.14527 0.7899 0.0
C487 C 0.47877 0.17076 0.76572 0.0
C488 C 0.45158 0.16186 0.68809 0.0
C489 C 0.45548 0.15024 0.6374 0.0
C490 C 0.44718 0.15578 0.582 0.0
C491 C 0.43478 0.17384 0.5782 0.0
C492 C 0.43085 0.18611 0.62949 0.0
C493 C 0.43906 0.17972 0.6852 0.0
H494 H 0.62107 0.6181 0.46268 0.0
H495 H 0.62145 0.62105 0.26911 0.0
H496 H 0.6489 0.64819 0.27331 0.0
H497 H 0.6249 0.67125 0.487 0.0
H498 H 0.64154 0.66959 0.55173 0.0
H499 H 0.62423 0.64834 0.53387 0.0
H500 H 0.65546 0.6226 0.53227 0.0
H501 H 0.67289 0.64373 0.55095 0.0
H502 H 0.67769 0.62812 0.48545 0.0
H503 H 0.67312 0.67755 0.2988 0.0
H504 H 0.6937 0.70611 0.34305 0.0
H505 H 0.67739 0.68428 0.52057 0.0
C506 C 0.6273 0.62402 0.42103 0.0
C507 C 0.61921 0.61736 0.36546 0.0
C508 C 0.62752 0.6258 0.31212 0.0
C509 C 0.64309 0.64123 0.31411 0.0
C510 C 0.65021 0.64794 0.36974 0.0
C511 C 0.64274 0.63946 0.42225 0.0
C512 C 0.65187 0.65042 0.47626 0.0
C513 C 0.6346 0.66049 0.51443 0.0
C514 C 0.66528 0.63531 0.51342 0.0
C515 C 0.66522 0.6668 0.44595 0.0
C516 C 0.66416 0.66497 0.38451 0.0
C517 C 0.6743 0.67895 0.34681 0.0
C518 C 0.68586 0.69521 0.37248 0.0
C519 C 0.68719 0.69742 0.43534 0.0
C520 C 0.67681 0.68291 0.47243 0.0
H521 H 0.1868 0.80575 0.22834 0.0
H522 H 0.19111 0.81197 0.0358 0.0
H523 H 0.16713 0.8422 0.0397 0.0
H524 H 0.1337 0.81553 0.23942 0.0
H525 H 0.13508 0.82994 0.3084 0.0
H526 H 0.15461 0.81064 0.29152 0.0
H527 H 0.18374 0.83837 0.30495 0.0
H528 H 0.16427 0.8578 0.32216 0.0
H529 H 0.18265 0.8623 0.2626 0.0
H530 H 0.13978 0.86889 0.06319 0.0
H531 H 0.11139 0.89057 0.10434 0.0
H532 H 0.12513 0.86737 0.28208 0.0
C533 C 0.18308 0.81373 0.18706 0.0
C534 C 0.1909 0.80654 0.13171 0.0
C535 C 0.1854 0.81725 0.0787 0.0
C536 C 0.17181 0.83446 0.08052 0.0
C537 C 0.16402 0.84083 0.13572 0.0
C538 C 0.16957 0.83089 0.1881 0.0
C539 C 0.15788 0.83985 0.24107 0.0
C540 C 0.14453 0.82299 0.27188 0.0
C541 C 0.17304 0.8502 0.2853 0.0
C542 C 0.14438 0.85596 0.21008 0.0
C543 C 0.14832 0.8564 0.14939 0.0
C544 C 0.1368 0.86893 0.11073 0.0
C545 C 0.12065 0.88113 0.13454 0.0
C546 C 0.11616 0.88075 0.19646 0.0
C547 C 0.12846 0.86826 0.23476 0.0
H548 H 0.00913 0.61878 0.16386 0.0
H549 H 0.9966 0.6134 0.35361 0.0
H550 H 0.96687 0.63783 0.34264 0.0
H551 H 0.00115 0.67199 0.15428 0.0
H552 H 0.98927 0.67167 0.08134 0.0
H553 H 0.00736 0.65145 0.10219 0.0
H554 H 0.97955 0.62321 0.07846 0.0
H555 H 0.96136 0.64337 0.05704 0.0
H556 H 0.95423 0.6246 0.1135 0.0
H557 H 0.94111 0.66553 0.31273 0.0
H558 H 0.92135 0.69445 0.26713 0.0
H559 H 0.95133 0.68223 0.09692 0.0
C560 C 0.99983 0.62229 0.20296 0.0
C561 C 0.00507 0.61405 0.2596 0.0
C562 C 0.99276 0.6194 0.30976 0.0
C563 C 0.97584 0.63324 0.30389 0.0
C564 C 0.97148 0.6415 0.24758 0.0
C565 C 0.98307 0.63614 0.19794 0.0
C566 C 0.97641 0.64853 0.14352 0.0
C567 C 0.99463 0.66168 0.11893 0.0
C568 C 0.96735 0.63406 0.09528 0.0
C569 C 0.95962 0.66218 0.17059 0.0
C570 C 0.95683 0.65768 0.23046 0.0
C571 C 0.94298 0.66899 0.26575 0.0
C572 C 0.93187 0.68545 0.23939 0.0
C573 C 0.93476 0.69058 0.17835 0.0
C574 C 0.94862 0.67856 0.14346 0.0
H575 H 0.12981 0.13688 0.85669 0.0
H576 H 0.11966 0.11116 0.03348 0.0
H577 H 0.14815 0.13312 0.07306 0.0
H578 H 0.18753 0.14369 0.86901 0.0
H579 H 0.18694 0.16809 0.82878 0.0
H580 H 0.16793 0.14808 0.81258 0.0
H581 H 0.13806 0.17449 0.83267 0.0
H582 H 0.15692 0.1945 0.84918 0.0
H583 H 0.13711 0.18798 0.90324 0.0
H584 H 0.17517 0.1604 0.09562 0.0
H585 H 0.19821 0.19141 0.09933 0.0
H586 H 0.19022 0.19984 0.90843 0.0
C587 C 0.13401 0.13545 0.90333 0.0
C588 C 0.12268 0.12219 0.94192 0.0
C589 C 0.12822 0.12117 0.00308 0.0
C590 C 0.14443 0.13352 0.02596 0.0
C591 C 0.15495 0.14686 0.98713 0.0
C592 C 0.15003 0.14787 0.92706 0.0
C593 C 0.16236 0.16492 0.89612 0.0
C594 C 0.17707 0.15563 0.84883 0.0
C595 C 0.14774 0.18144 0.86872 0.0
C596 C 0.17452 0.17368 0.94844 0.0
C597 C 0.17028 0.16287 0.00039 0.0
C598 C 0.17884 0.16883 0.05507 0.0
C599 C 0.19188 0.18646 0.05679 0.0
C600 C 0.19607 0.19801 0.00423 0.0
C601 C 0.18747 0.19127 0.94937 0.0
H602 H 0.68966 0.30293 0.72696 0.0
H603 H 0.69844 0.3138 0.53737 0.0
H604 H 0.67578 0.345 0.54375 0.0
H605 H 0.63702 0.31486 0.7313 0.0
H606 H 0.63751 0.32739 0.80332 0.0
H607 H 0.65656 0.30771 0.78557 0.0
H608 H 0.68643 0.3337 0.80977 0.0
H609 H 0.66743 0.3535 0.8278 0.0
H610 H 0.68724 0.35867 0.77255 0.0
H611 H 0.64889 0.37208 0.56817 0.0
H612 H 0.62016 0.39348 0.60877 0.0
H613 H 0.6294 0.36551 0.78317 0.0
C614 C 0.6872 0.31211 0.68695 0.0
C615 C 0.69588 0.30597 0.63163 0.0
C616 C 0.69205 0.31826 0.58025 0.0
C617 C 0.67923 0.33603 0.5835 0.0
C618 C 0.67056 0.34137 0.63854 0.0
C619 C 0.67452 0.32986 0.68946 0.0
C620 C 0.66209 0.33796 0.74217 0.0
C621 C 0.64743 0.32097 0.767 0.0
C622 C 0.67667 0.34647 0.79095 0.0
C623 C 0.64995 0.35541 0.71253 0.0
C624 C 0.65522 0.35723 0.65286 0.0
C625 C 0.64491 0.37107 0.61502 0.0
C626 C 0.62858 0.3831 0.63847 0.0
C627 C 0.62272 0.38127 0.69922 0.0
C628 C 0.63386 0.36756 0.73692 0.0
H629 H 0.44625 0.80566 0.38939 0.0
H630 H 0.4338 0.82086 0.57478 0.0
H631 H 0.45662 0.85188 0.56608 0.0
H632 H 0.49917 0.81787 0.39154 0.0
H633 H 0.50003 0.82861 0.3172 0.0
H634 H 0.48079 0.80919 0.33582 0.0
H635 H 0.45128 0.83418 0.30155 0.0
H636 H 0.47047 0.85372 0.28268 0.0
H637 H 0.44954 0.85997 0.33346 0.0
H638 H 0.48342 0.87893 0.54022 0.0
H639 H 0.51235 0.90004 0.49972 0.0
H640 H 0.50728 0.86745 0.33059 0.0
C641 C 0.44797 0.81573 0.42791 0.0
C642 C 0.43815 0.81089 0.48277 0.0
C643 C 0.44108 0.8243 0.53228 0.0
C644 C 0.45397 0.84199 0.52768 0.0
C645 C 0.4637 0.84608 0.4732 0.0
C646 C 0.46078 0.83338 0.4241 0.0
C647 C 0.47419 0.84034 0.37197 0.0
C648 C 0.48945 0.82297 0.35307 0.0
C649 C 0.46055 0.84748 0.3193 0.0
C650 C 0.4856 0.85861 0.39992 0.0
C651 C 0.47915 0.86177 0.45815 0.0
C652 C 0.48837 0.8768 0.49446 0.0
C653 C 0.50484 0.88868 0.47104 0.0
C654 C 0.51196 0.88548 0.41186 0.0
C655 C 0.50191 0.8705 0.37557 0.0
H656 H 0.04958 0.52605 0.16976 0.0
H657 H 0.11574 0.54129 0.17065 0.0
H658 H 0.1208 0.52006 0.08024 0.0
H659 H 0.05634 0.47259 0.1241 0.0
H660 H 0.03308 0.47226 0.07873 0.0
H661 H 0.03458 0.48927 0.14252 0.0
H662 H 0.02611 0.52096 0.07454 0.0
H663 H 0.02492 0.50406 0.01035 0.0
H664 H 0.04234 0.5262 0.01049 0.0
H665 H 0.11878 0.49803 0.98971 0.0
H666 H 0.11084 0.47221 0.91169 0.0
H667 H 0.04621 0.47012 0.97106 0.0
C668 C 0.06513 0.52485 0.15099 0.0
C669 C 0.08225 0.53534 0.17703 0.0
C670 C 0.10241 0.53329 0.15158 0.0
C671 C 0.10542 0.52144 0.09993 0.0
C672 C 0.08817 0.51163 0.07472 0.0
C673 C 0.06849 0.51287 0.09983 0.0
C674 C 0.05285 0.49984 0.06545 0.0
C675 C 0.04369 0.48246 0.10506 0.0
C676 C 0.03554 0.5136 0.03862 0.0
C677 C 0.0669 0.49103 0.01735 0.0
C678 C 0.08711 0.49831 0.02307 0.0
C679 C 0.10303 0.49215 0.98471 0.0
C680 C 0.09832 0.47751 0.94043 0.0
C681 C 0.07792 0.46906 0.93546 0.0
C682 C 0.06193 0.47634 0.97356 0.0
H683 H 0.84569 0.78197 0.20489 0.0
H684 H 0.84378 0.71683 0.15088 0.0
H685 H 0.81722 0.70976 0.2279 0.0
H686 H 0.84279 0.77279 0.35799 0.0
H687 H 0.82644 0.79491 0.37516 0.0
H688 H 0.8435 0.79575 0.31135 0.0
H689 H 0.8121 0.80388 0.24207 0.0
H690 H 0.79497 0.8035 0.30586 0.0
H691 H 0.78964 0.78688 0.24276 0.0
H692 H 0.79348 0.70899 0.31488 0.0
H693 H 0.77143 0.71503 0.40306 0.0
H694 H 0.78907 0.78063 0.4024 0.0
C695 C 0.83926 0.76636 0.20821 0.0
C696 C 0.84668 0.74995 0.17188 0.0
C697 C 0.83824 0.72962 0.1783 0.0
C698 C 0.82319 0.72544 0.2219 0.0
C699 C 0.8168 0.74177 0.25852 0.0
C700 C 0.82433 0.76187 0.25183 0.0
C701 C 0.81561 0.77631 0.29916 0.0
C702 C 0.83313 0.78547 0.33821 0.0
C703 C 0.80228 0.79367 0.27076 0.0
C704 C 0.80226 0.76107 0.33398 0.0
C705 C 0.80316 0.74128 0.30956 0.0
C706 C 0.79246 0.72445 0.33418 0.0
C707 C 0.78006 0.72805 0.38443 0.0
C708 C 0.77852 0.74832 0.40958 0.0
C709 C 0.79001 0.76496 0.38436 0.0
H710 H 0.57717 0.52644 0.46032 0.0
H711 H 0.51038 0.53082 0.42755 0.0
H712 H 0.50391 0.50517 0.50735 0.0
H713 H 0.57767 0.47028 0.49367 0.0
H714 H 0.5974 0.47307 0.55052 0.0
H715 H 0.5968 0.49087 0.48824 0.0
H716 H 0.59508 0.52209 0.56174 0.0
H717 H 0.59533 0.50439 0.62421 0.0
H718 H 0.57445 0.52308 0.61645 0.0
H719 H 0.50439 0.48167 0.5959 0.0
H720 H 0.51209 0.45828 0.68062 0.0
H721 H 0.57856 0.46832 0.6537 0.0
C722 C 0.56121 0.52176 0.46925 0.0
C723 C 0.54429 0.53068 0.43785 0.0
C724 C 0.52361 0.52418 0.45096 0.0
C725 C 0.51975 0.50968 0.49635 0.0
C726 C 0.53673 0.50168 0.52763 0.0
C727 C 0.55706 0.50719 0.51408 0.0
C728 C 0.57247 0.49645 0.55509 0.0
C729 C 0.58693 0.48179 0.51976 0.0
C730 C 0.58507 0.51246 0.59152 0.0
C731 C 0.55756 0.48431 0.59432 0.0
C732 C 0.53702 0.48765 0.57794 0.0
C733 C 0.52041 0.47871 0.60882 0.0
C734 C 0.52494 0.46559 0.65709 0.0
C735 C 0.54591 0.46146 0.67349 0.0
C736 C 0.56238 0.47109 0.64189 0.0
H737 H 0.83978 0.26235 0.92676 0.0
H738 H 0.8517 0.19595 0.94809 0.0
H739 H 0.82609 0.18826 0.86883 0.0
H740 H 0.78348 0.25725 0.89664 0.0
H741 H 0.78368 0.27836 0.84334 0.0
H742 H 0.80187 0.27841 0.9047 0.0
H743 H 0.83258 0.28176 0.82983 0.0
H744 H 0.81453 0.28142 0.76825 0.0
H745 H 0.83545 0.2626 0.77146 0.0
H746 H 0.80205 0.18806 0.78077 0.0
H747 H 0.77793 0.19513 0.69709 0.0
H748 H 0.78087 0.26152 0.73624 0.0
C749 C 0.83677 0.24617 0.91543 0.0
C750 C 0.84774 0.22975 0.94337 0.0
C751 C 0.84338 0.20878 0.92737 0.0
C752 C 0.82894 0.20425 0.88229 0.0
C753 C 0.81883 0.22085 0.85443 0.0
C754 C 0.82226 0.24136 0.87106 0.0
C755 C 0.80963 0.25634 0.83338 0.0
C756 C 0.79372 0.26829 0.87181 0.0
C757 C 0.82391 0.27141 0.79868 0.0
C758 C 0.79893 0.24106 0.79208 0.0
C759 C 0.8045 0.22068 0.80477 0.0
C760 C 0.79733 0.20392 0.77086 0.0
C761 C 0.78379 0.2081 0.72323 0.0
C762 C 0.7775 0.22885 0.71053 0.0
C763 C 0.78526 0.24548 0.74533 0.0
H764 H 0.28342 0.2394 0.89734 0.0
H765 H 0.27757 0.30649 0.92074 0.0
H766 H 0.30195 0.31223 0.83706 0.0
H767 H 0.33817 0.23993 0.8668 0.0
H768 H 0.33697 0.21906 0.81293 0.0
H769 H 0.31808 0.22027 0.87234 0.0
H770 H 0.28809 0.21975 0.79453 0.0
H771 H 0.30692 0.21871 0.73482 0.0
H772 H 0.28757 0.23917 0.73622 0.0
H773 H 0.3266 0.31076 0.75154 0.0
H774 H 0.3532 0.30232 0.67598 0.0
H775 H 0.34436 0.23612 0.71109 0.0
C776 C 0.28721 0.25528 0.88459 0.0
C777 C 0.27858 0.27251 0.91512 0.0
C778 C 0.28409 0.29308 0.89791 0.0
C779 C 0.29778 0.2965 0.85024 0.0
C780 C 0.30592 0.27918 0.82082 0.0
C781 C 0.30109 0.25898 0.83771 0.0
C782 C 0.31299 0.24314 0.80093 0.0
C783 C 0.32741 0.22982 0.84062 0.0
C784 C 0.29799 0.22938 0.76446 0.0
C785 C 0.32538 0.25763 0.761 0.0
C786 C 0.32079 0.27833 0.77264 0.0
C787 C 0.33035 0.29462 0.74195 0.0
C788 C 0.34539 0.28964 0.699 0.0
C789 C 0.35089 0.26855 0.6878 0.0
C790 C 0.34049 0.25237 0.71869 0.0
H791 H 0.34755 0.76718 0.39399 0.0
H792 H 0.35707 0.70076 0.42264 0.0
H793 H 0.33131 0.69289 0.34384 0.0
H794 H 0.2922 0.76366 0.3726 0.0
H795 H 0.29134 0.78392 0.31674 0.0
H796 H 0.31134 0.78433 0.37322 0.0
H797 H 0.33982 0.78538 0.29097 0.0
H798 H 0.31989 0.78487 0.2342 0.0
H799 H 0.3402 0.76537 0.23439 0.0
H800 H 0.30522 0.6922 0.26139 0.0
H801 H 0.27752 0.69865 0.18704 0.0
H802 H 0.28346 0.76547 0.2163 0.0
C803 C 0.34426 0.751 0.3834 0.0
C804 C 0.3543 0.73456 0.41395 0.0
C805 C 0.34944 0.71356 0.39971 0.0
C806 C 0.33495 0.70894 0.35487 0.0
C807 C 0.32536 0.7255 0.3254 0.0
C808 C 0.32957 0.74609 0.33952 0.0
C809 C 0.31624 0.76092 0.30325 0.0
C810 C 0.30193 0.77397 0.34389 0.0
C811 C 0.32986 0.77496 0.26333 0.0
C812 C 0.30387 0.74541 0.26663 0.0
C813 C 0.3096 0.72508 0.27949 0.0
C814 C 0.30052 0.70804 0.251 0.0
C815 C 0.28488 0.71186 0.20875 0.0
C816 C 0.27834 0.73255 0.19625 0.0
C817 C 0.28809 0.7495 0.2253 0.0
H818 H 0.55281 0.97209 0.45348 0.0
H819 H 0.61957 0.96951 0.4185 0.0
H820 H 0.62593 0.99309 0.50322 0.0
H821 H 0.55179 0.02721 0.49704 0.0
H822 H 0.5322 0.02297 0.55357 0.0
H823 H 0.53288 0.00654 0.48837 0.0
H824 H 0.53509 0.97388 0.55658 0.0
H825 H 0.53485 0.99023 0.62196 0.0
H826 H 0.55589 0.97193 0.61059 0.0
H827 H 0.62546 0.01439 0.5954 0.0
H828 H 0.61785 0.03696 0.68151 0.0
H829 H 0.55132 0.02679 0.65517 0.0
C830 C 0.56874 0.97674 0.46302 0.0
C831 C 0.58569 0.96889 0.42955 0.0
C832 C 0.60631 0.97534 0.44347 0.0
C833 C 0.61012 0.98862 0.49173 0.0
C834 C 0.59314 0.99546 0.52508 0.0
C835 C 0.57283 0.99014 0.51075 0.0
C836 C 0.55742 0.99984 0.55381 0.0
C837 C 0.54271 0.01505 0.52125 0.0
C838 C 0.54509 0.98296 0.58773 0.0
C839 C 0.57231 0.01128 0.59477 0.0
C840 C 0.59284 0.00833 0.57769 0.0
C841 C 0.60946 0.01702 0.60901 0.0
C842 C 0.60495 0.02969 0.6581 0.0
C843 C 0.58398 0.03371 0.67487 0.0
C844 C 0.5675 0.02404 0.64336 0.0
H845 H 0.07882 0.03176 0.97671 0.0
H846 H 0.01262 0.0413 0.94443 0.0
H847 H 0.00425 0.01583 0.02393 0.0
H848 H 0.07519 0.97601 0.00475 0.0
H849 H 0.09526 0.97652 0.06118 0.0
H850 H 0.09577 0.99521 0.0011 0.0
H851 H 0.09654 0.0254 0.07823 0.0
H852 H 0.09574 0.00681 0.13854 0.0
H853 H 0.07624 0.02707 0.1338 0.0
H854 H 0.00328 0.99112 0.1113 0.0
H855 H 0.00973 0.96548 0.19183 0.0
H856 H 0.07655 0.97131 0.16288 0.0
C857 C 0.06256 0.02838 0.98605 0.0
C858 C 0.04635 0.0385 0.95477 0.0
C859 C 0.02527 0.03359 0.96784 0.0
C860 C 0.02036 0.01928 0.01307 0.0
C861 C 0.03675 0.0099 0.04399 0.0
C862 C 0.05741 0.01398 0.03034 0.0
C863 C 0.07212 0.00157 0.0694 0.0
C864 C 0.08536 0.98643 0.03186 0.0
C865 C 0.08597 0.01609 0.10723 0.0
C866 C 0.05649 0.99002 0.10762 0.0
C867 C 0.03618 0.99518 0.09278 0.0
C868 C 0.01911 0.98681 0.12303 0.0
C869 C 0.02292 0.9724 0.16888 0.0
C870 C 0.04362 0.96641 0.18322 0.0
C871 C 0.06056 0.97552 0.15253 0.0
H872 H 0.06687 0.46157 0.64415 0.0
H873 H 0.13307 0.44814 0.6617 0.0
H874 H 0.14112 0.47637 0.59051 0.0
H875 H 0.06823 0.47535 0.48383 0.0
H876 H 0.0492 0.4959 0.49225 0.0
H877 H 0.04851 0.47352 0.54104 0.0
H878 H 0.05035 0.49816 0.63251 0.0
H879 H 0.05145 0.52059 0.58403 0.0
H880 H 0.07168 0.51645 0.63875 0.0
H881 H 0.14241 0.50738 0.52337 0.0
H882 H 0.13671 0.53739 0.4565 0.0
H883 H 0.06967 0.53143 0.48131 0.0
C884 C 0.08301 0.46422 0.63182 0.0
C885 C 0.09934 0.4525 0.65831 0.0
C886 C 0.12028 0.4568 0.64189 0.0
C887 C 0.12503 0.47288 0.60162 0.0
C888 C 0.10868 0.4846 0.57793 0.0
C889 C 0.08806 0.48035 0.59166 0.0
C890 C 0.07356 0.49578 0.56091 0.0
C891 C 0.05902 0.48446 0.51688 0.0
C892 C 0.06102 0.50849 0.6068 0.0
C893 C 0.08928 0.50945 0.52835 0.0
C894 C 0.10944 0.50268 0.539 0.0
C895 C 0.12669 0.51276 0.51438 0.0
C896 C 0.12327 0.52989 0.47662 0.0
C897 C 0.10275 0.53689 0.46364 0.0
C898 C 0.08556 0.52662 0.49067 0.0
H899 H 0.85595 0.79816 0.8886 0.0
H900 H 0.86702 0.73173 0.9117 0.0
H901 H 0.84006 0.72407 0.83598 0.0
H902 H 0.80137 0.79557 0.87177 0.0
H903 H 0.79968 0.81551 0.81512 0.0
H904 H 0.82073 0.816 0.86843 0.0
H905 H 0.84787 0.81601 0.78267 0.0
H906 H 0.8269 0.81588 0.72903 0.0
H907 H 0.84673 0.7959 0.72645 0.0
H908 H 0.80954 0.72357 0.76446 0.0
H909 H 0.78109 0.73035 0.69237 0.0
H910 H 0.7909 0.79708 0.71236 0.0
C911 C 0.853 0.782 0.87693 0.0
C912 C 0.86368 0.76554 0.90611 0.0
C913 C 0.85922 0.74463 0.88972 0.0
C914 C 0.8438 0.74011 0.847 0.0
C915 C 0.83313 0.75667 0.82044 0.0
C916 C 0.83782 0.77722 0.83387 0.0
C917 C 0.82402 0.79212 0.79896 0.0
C918 C 0.81066 0.80559 0.8411 0.0
C919 C 0.83716 0.80578 0.75676 0.0
C920 C 0.81062 0.77675 0.76447 0.0
C921 C 0.81601 0.75638 0.7779 0.0
C922 C 0.80535 0.73947 0.75312 0.0
C923 C 0.7891 0.74347 0.71254 0.0
C924 C 0.78377 0.76422 0.69658 0.0
C925 C 0.79464 0.78103 0.72342 0.0
H926 H 0.56001 0.53837 0.14714 0.0
H927 H 0.49313 0.54943 0.15501 0.0
H928 H 0.48739 0.52123 0.08212 0.0
H929 H 0.56196 0.52524 0.98631 0.0
H930 H 0.58154 0.50533 0.99692 0.0
H931 H 0.5806 0.52752 0.0463 0.0
H932 H 0.57804 0.50247 0.13681 0.0
H933 H 0.57859 0.48022 0.0877 0.0
H934 H 0.5573 0.48342 0.13953 0.0
H935 H 0.48835 0.49033 0.01529 0.0
H936 H 0.49615 0.46055 0.94969 0.0
H937 H 0.56251 0.46897 0.9826 0.0
C938 C 0.54422 0.5352 0.13236 0.0
C939 C 0.52701 0.54623 0.15668 0.0
C940 C 0.50656 0.5413 0.13699 0.0
C941 C 0.50312 0.52523 0.0957 0.0
C942 C 0.52029 0.51421 0.0742 0.0
C943 C 0.54047 0.51911 0.09102 0.0
C944 C 0.55604 0.50433 0.06201 0.0
C945 C 0.57091 0.51632 0.0204 0.0
C946 C 0.56821 0.49188 0.10935 0.0
C947 C 0.54139 0.49025 0.02691 0.0
C948 C 0.52085 0.49626 0.0349 0.0
C949 C 0.50439 0.48557 0.00823 0.0
C950 C 0.509 0.46857 0.97122 0.0
C951 C 0.52995 0.46234 0.96082 0.0
C952 C 0.54634 0.47325 0.98974 0.0
H953 H 0.85602 0.20336 0.24017 0.0
H954 H 0.86576 0.2699 0.21499 0.0
H955 H 0.83716 0.27726 0.28607 0.0
H956 H 0.80113 0.20497 0.24566 0.0
H957 H 0.7985 0.18507 0.30214 0.0
H958 H 0.82076 0.18493 0.25303 0.0
H959 H 0.84582 0.1856 0.34385 0.0
H960 H 0.82363 0.18536 0.3933 0.0
H961 H 0.84295 0.20575 0.39943 0.0
H962 H 0.80573 0.27725 0.35542 0.0
H963 H 0.77621 0.26986 0.42348 0.0
H964 H 0.78709 0.20334 0.40242 0.0
C965 C 0.85247 0.2195 0.25046 0.0
C966 C 0.86329 0.23605 0.22212 0.0
C967 C 0.85786 0.25694 0.23639 0.0
C968 C 0.84154 0.26128 0.27651 0.0
C969 C 0.83079 0.24458 0.30221 0.0
C970 C 0.83623 0.2241 0.2903 0.0
C971 C 0.82193 0.20897 0.32263 0.0
C972 C 0.80987 0.19518 0.2782 0.0
C973 C 0.83432 0.19564 0.36747 0.0
C974 C 0.80747 0.2241 0.3542 0.0
C975 C 0.81279 0.24458 0.34183 0.0
C976 C 0.80152 0.26126 0.36561 0.0
C977 C 0.78467 0.25691 0.40398 0.0
C978 C 0.77923 0.23603 0.41829 0.0
C979 C 0.79074 0.21948 0.39233 0.0
H980 H 0.35714 0.25288 0.39573 0.0
H981 H 0.3739 0.31857 0.40277 0.0
H982 H 0.34661 0.32653 0.32867 0.0
H983 H 0.34434 0.2516 0.23446 0.0
H984 H 0.32275 0.23389 0.24498 0.0
H985 H 0.34481 0.23301 0.29493 0.0
H986 H 0.31985 0.23803 0.38473 0.0
H987 H 0.29776 0.23927 0.33505 0.0
H988 H 0.30269 0.26036 0.38645 0.0
H989 H 0.31605 0.32806 0.26053 0.0
H990 H 0.28578 0.32273 0.19465 0.0
H991 H 0.28813 0.256 0.22969 0.0
C992 C 0.35541 0.26884 0.38048 0.0
C993 C 0.36779 0.28509 0.40488 0.0
C994 C 0.36471 0.30585 0.38466 0.0
C995 C 0.34919 0.31055 0.34266 0.0
C996 C 0.33681 0.29434 0.32105 0.0
C997 C 0.33986 0.27385 0.3385 0.0
C998 C 0.32383 0.25956 0.30946 0.0
C999 C 0.33458 0.24357 0.26852 0.0
C1000 C 0.31023 0.24867 0.35676 0.0
C1001 C 0.31119 0.27527 0.27364 0.0
C1002 C 0.31901 0.29523 0.28121 0.0
C1003 C 0.30989 0.31249 0.25382 0.0
C1004 C 0.29259 0.30928 0.21663 0.0
C1005 C 0.28449 0.28895 0.20684 0.0
C1006 C 0.29386 0.27175 0.23636 0.0
H1007 H 0.34658 0.7522 0.72858 0.0
H1008 H 0.35348 0.68565 0.69596 0.0
H1009 H 0.32423 0.67846 0.764 0.0
H1010 H 0.33344 0.7474 0.88652 0.0
H1011 H 0.31478 0.76849 0.88492 0.0
H1012 H 0.33659 0.76856 0.83411 0.0
H1013 H 0.31097 0.77181 0.74508 0.0
H1014 H 0.28907 0.77146 0.7956 0.0
H1015 H 0.29057 0.75265 0.73591 0.0
H1016 H 0.29394 0.67808 0.83255 0.0
H1017 H 0.26601 0.68436 0.90577 0.0
H1018 H 0.27805 0.75108 0.89669 0.0
C1019 C 0.34208 0.73612 0.73635 0.0
C1020 C 0.35239 0.71949 0.70679 0.0
C1021 C 0.3459 0.69867 0.71793 0.0
C1022 C 0.32921 0.6944 0.75639 0.0
C1023 C 0.3191 0.71108 0.78371 0.0
C1024 C 0.32537 0.73152 0.77493 0.0
C1025 C 0.31178 0.74643 0.81071 0.0
C1026 C 0.32494 0.75842 0.85681 0.0
C1027 C 0.2999 0.76148 0.76934 0.0
C1028 C 0.29698 0.73113 0.8408 0.0
C1029 C 0.30148 0.71085 0.8241 0.0
C1030 C 0.29027 0.69389 0.84612 0.0
C1031 C 0.27437 0.69764 0.88762 0.0
C1032 C 0.26975 0.7182 0.90695 0.0
C1033 C 0.28102 0.7352 0.88232 0.0
H1034 H 0.57238 0.96516 0.1335 0.0
H1035 H 0.63941 0.95743 0.15403 0.0
H1036 H 0.64539 0.98698 0.08574 0.0
H1037 H 0.5737 0.97995 0.97484 0.0
H1038 H 0.55284 0.99868 0.98253 0.0
H1039 H 0.5538 0.97616 0.03075 0.0
H1040 H 0.55277 0.00055 0.12288 0.0
H1041 H 0.55221 0.02316 0.07495 0.0
H1042 H 0.57232 0.02065 0.13083 0.0
H1043 H 0.64442 0.01835 0.02 0.0
H1044 H 0.63661 0.04752 0.95187 0.0
H1045 H 0.5702 0.03554 0.97212 0.0
C1046 C 0.58831 0.96941 0.12262 0.0
C1047 C 0.60543 0.95885 0.14908 0.0
C1048 C 0.62603 0.96516 0.13432 0.0
C1049 C 0.62961 0.98203 0.09573 0.0
C1050 C 0.61245 0.9925 0.07196 0.0
C1051 C 0.5922 0.98631 0.08403 0.0
C1052 C 0.57661 0.0005 0.05268 0.0
C1053 C 0.56347 0.98808 0.00751 0.0
C1054 C 0.56266 0.01189 0.09806 0.0
C1055 C 0.5913 0.01563 0.02144 0.0
C1056 C 0.61189 0.01073 0.03357 0.0
C1057 C 0.62836 0.02229 0.00994 0.0
C1058 C 0.62374 0.03893 0.97145 0.0
C1059 C 0.6028 0.04394 0.95666 0.0
C1060 C 0.58636 0.03229 0.98298 0.0
H1061 H 0.02325 0.03821 0.65104 0.0
H1062 H 0.09006 0.04606 0.67542 0.0
H1063 H 0.0965 0.01712 0.60457 0.0
H1064 H 0.0233 0.98293 0.64499 0.0
H1065 H 0.00319 0.9812 0.58889 0.0
H1066 H 0.00385 0.00319 0.63892 0.0
H1067 H 0.00499 0.02867 0.549 0.0
H1068 H 0.004 0.00676 0.49869 0.0
H1069 H 0.02492 0.02551 0.49289 0.0
H1070 H 0.09541 0.9861 0.53326 0.0
H1071 H 0.08694 0.95751 0.46298 0.0
H1072 H 0.02084 0.97006 0.48715 0.0
C1073 C 0.03927 0.03409 0.64093 0.0
C1074 C 0.05616 0.04452 0.6687 0.0
C1075 C 0.07686 0.03843 0.65448 0.0
C1076 C 0.08067 0.02193 0.61449 0.0
C1077 C 0.06362 0.01166 0.58902 0.0
C1078 C 0.04334 0.01767 0.60131 0.0
C1079 C 0.02772 0.00401 0.56878 0.0
C1080 C 0.01369 0.99213 0.61305 0.0
C1081 C 0.01464 0.01701 0.52472 0.0
C1082 C 0.04234 0.98929 0.53636 0.0
C1083 C 0.063 0.99389 0.5486 0.0
C1084 C 0.07928 0.98241 0.52336 0.0
C1085 C 0.07431 0.96611 0.4837 0.0
C1086 C 0.05323 0.96142 0.46964 0.0
C1087 C 0.03712 0.97309 0.49713 0.0
loop_
_geom_bond_atom_site_label_1
_geom_bond_atom_site_label_2
_geom_bond_distance
_geom_bond_site_symmetry_2
_ccdc_geom_bond_type
O0 Cd1 2.223 . S
O0 C8 1.315 . S
Cd1 O0 2.223 . S
Cd1 O4 2.297 . S
Cd1 O5 2.439 . S
Cd1 O11 2.240 . S
Cd2 O3 2.240 . S
Cd2 O10 2.223 . S
Cd2 O12 2.297 . S
Cd2 O13 2.439 . S
O3 Cd2 2.240 . S
O3 C8 1.279 . S
O4 Cd1 2.297 . S
O4 C6 1.247 . S
O5 Cd1 2.439 . S
O5 C6 1.208 . S
C6 O4 1.247 . S
C6 O5 1.208 . S
C7 O12 1.247 . S
C7 O13 1.208 . S
C8 O0 1.315 . S
C8 O3 1.279 . S
C9 O10 1.315 . S
C9 O11 1.279 . S
O10 Cd2 2.223 . S
O10 C9 1.315 . S
O11 Cd1 2.240 . S
O11 C9 1.279 . S
O12 Cd2 2.297 . S
O12 C7 1.247 . S
O13 Cd2 2.439 . S
O13 C7 1.208 . S
O14 Cd15 2.223 . S
O14 C22 1.315 . S
Cd15 O14 2.223 . S
Cd15 O18 2.297 . S
Cd15 O19 2.439 . S
Cd15 O25 2.240 . S
Cd16 O17 2.240 . S
Cd16 O24 2.223 . S
Cd16 O26 2.297 . S
Cd16 O27 2.439 . S
O17 Cd16 2.240 . S
O17 C22 1.279 . S
O18 Cd15 2.297 . S
O18 C20 1.247 . S
O19 Cd15 2.439 . S
O19 C20 1.208 . S
C20 O18 1.247 . S
C20 O19 1.208 . S
C21 O26 1.247 . S
C21 O27 1.208 . S
C22 O14 1.315 . S
C22 O17 1.279 . S
C23 O24 1.315 . S
C23 O25 1.279 . S
O24 Cd16 2.223 . S
O24 C23 1.315 . S
O25 Cd15 2.240 . S
O25 C23 1.279 . S
O26 Cd16 2.297 . S
O26 C21 1.247 . S
O27 Cd16 2.439 . S
O27 C21 1.208 . S
O28 Cd29 2.223 . S
O28 C36 1.315 . S
Cd29 O28 2.223 . S
Cd29 O32 2.297 . S
Cd29 O33 2.439 . S
Cd29 O39 2.240 . S
Cd30 O31 2.240 . S
Cd30 O38 2.223 . S
Cd30 O40 2.297 . S
Cd30 O41 2.439 . S
O31 Cd30 2.240 . S
O31 C36 1.279 . S
O32 Cd29 2.297 . S
O32 C34 1.247 . S
O33 Cd29 2.439 . S
O33 C34 1.208 . S
C34 O32 1.247 . S
C34 O33 1.208 . S
C35 O40 1.247 . S
C35 O41 1.208 . S
C36 O28 1.315 . S
C36 O31 1.279 . S
C37 O38 1.315 . S
C37 O39 1.279 . S
O38 Cd30 2.223 . S
O38 C37 1.315 . S
O39 Cd29 2.240 . S
O39 C37 1.279 . S
O40 Cd30 2.297 . S
O40 C35 1.247 . S
O41 Cd30 2.439 . S
O41 C35 1.208 . S
O42 Cd43 2.223 1_556 S
O42 C50 1.315 . S
Cd43 O42 2.223 1_554 S
Cd43 O46 2.297 . S
Cd43 O47 2.439 . S
Cd43 O53 2.240 . S
Cd44 O45 2.240 . S
Cd44 O52 2.223 . S
Cd44 O54 2.297 . S
Cd44 O55 2.439 1_556 S
O45 Cd44 2.240 . S
O45 C50 1.279 . S
O46 Cd43 2.297 . S
O46 C48 1.247 . S
O47 Cd43 2.439 . S
O47 C48 1.208 . S
C48 O46 1.247 . S
C48 O47 1.208 . S
C49 O54 1.247 1_554 S
C49 O55 1.208 . S
C50 O42 1.315 . S
C50 O45 1.279 . S
C51 O52 1.315 . S
C51 O53 1.279 1_556 S
O52 Cd44 2.223 . S
O52 C51 1.315 . S
O53 Cd43 2.240 . S
O53 C51 1.279 1_554 S
O54 Cd44 2.297 . S
O54 C49 1.247 1_556 S
O55 Cd44 2.439 1_554 S
O55 C49 1.208 . S
O56 Cd57 2.223 . S
O56 C64 1.315 . S
Cd57 O56 2.223 . S
Cd57 O60 2.297 . S
Cd57 O61 2.439 . S
Cd57 O67 2.240 . S
Cd58 O59 2.240 . S
Cd58 O66 2.223 . S
Cd58 O68 2.297 . S
Cd58 O69 2.439 . S
O59 Cd58 2.240 . S
O59 C64 1.279 . S
O60 Cd57 2.297 . S
O60 C62 1.247 . S
O61 Cd57 2.439 . S
O61 C62 1.208 . S
C62 O60 1.247 . S
C62 O61 1.208 . S
C63 O68 1.247 . S
C63 O69 1.208 . S
C64 O56 1.315 . S
C64 O59 1.279 . S
C65 O66 1.315 . S
C65 O67 1.279 . S
O66 Cd58 2.223 . S
O66 C65 1.315 . S
O67 Cd57 2.240 . S
O67 C65 1.279 . S
O68 Cd58 2.297 . S
O68 C63 1.247 . S
O69 Cd58 2.439 . S
O69 C63 1.208 . S
O70 Cd71 2.223 . S
O70 C78 1.315 . S
Cd71 O70 2.223 . S
Cd71 O74 2.297 1_554 S
Cd71 O75 2.439 . S
Cd71 O81 2.240 . S
Cd72 O73 2.240 . S
Cd72 O80 2.223 . S
Cd72 O82 2.297 . S
Cd72 O83 2.439 . S
O73 Cd72 2.240 . S
O73 C78 1.279 . S
O74 Cd71 2.297 1_556 S
O74 C76 1.247 . S
O75 Cd71 2.439 . S
O75 C76 1.208 1_554 S
C76 O74 1.247 . S
C76 O75 1.208 1_556 S
C77 O82 1.247 . S
C77 O83 1.208 . S
C78 O70 1.315 . S
C78 O73 1.279 . S
C79 O80 1.315 . S
C79 O81 1.279 . S
O80 Cd72 2.223 . S
O80 C79 1.315 . S
O81 Cd71 2.240 . S
O81 C79 1.279 . S
O82 Cd72 2.297 . S
O82 C77 1.247 . S
O83 Cd72 2.439 . S
O83 C77 1.208 . S
O84 Cd85 2.223 . S
O84 C92 1.315 . S
Cd85 O84 2.223 . S
Cd85 O88 2.297 . S
Cd85 O89 2.439 . S
Cd85 O95 2.240 . S
Cd86 O87 2.240 . S
Cd86 O94 2.223 . S
Cd86 O96 2.297 . S
Cd86 O97 2.439 . S
O87 Cd86 2.240 . S
O87 C92 1.279 . S
O88 Cd85 2.297 . S
O88 C90 1.247 . S
O89 Cd85 2.439 . S
O89 C90 1.208 . S
C90 O88 1.247 . S
C90 O89 1.208 . S
C91 O96 1.247 . S
C91 O97 1.208 . S
C92 O84 1.315 . S
C92 O87 1.279 . S
C93 O94 1.315 . S
C93 O95 1.279 . S
O94 Cd86 2.223 . S
O94 C93 1.315 . S
O95 Cd85 2.240 . S
O95 C93 1.279 . S
O96 Cd86 2.297 . S
O96 C91 1.247 . S
O97 Cd86 2.439 . S
O97 C91 1.208 . S
O98 Cd99 2.223 . S
O98 C106 1.315 . S
Cd99 O98 2.223 . S
Cd99 O102 2.297 . S
Cd99 O103 2.439 . S
Cd99 O109 2.240 . S
Cd100 O101 2.240 . S
Cd100 O108 2.223 . S
Cd100 O110 2.297 . S
Cd100 O111 2.439 . S
O101 Cd100 2.240 . S
O101 C106 1.279 . S
O102 Cd99 2.297 . S
O102 C104 1.247 . S
O103 Cd99 2.439 . S
O103 C104 1.208 . S
C104 O102 1.247 . S
C104 O103 1.208 . S
C105 O110 1.247 . S
C105 O111 1.208 . S
C106 O98 1.315 . S
C106 O101 1.279 . S
C107 O108 1.315 . S
C107 O109 1.279 . S
O108 Cd100 2.223 . S
O108 C107 1.315 . S
O109 Cd99 2.240 . S
O109 C107 1.279 . S
O110 Cd100 2.297 . S
O110 C105 1.247 . S
O111 Cd100 2.439 . S
O111 C105 1.208 . S
O112 Cd113 2.223 . S
O112 C120 1.315 . S
Cd113 O112 2.223 . S
Cd113 O116 2.297 . S
Cd113 O117 2.439 . S
Cd113 O123 2.240 . S
Cd114 O115 2.240 . S
Cd114 O122 2.223 . S
Cd114 O124 2.297 . S
Cd114 O125 2.439 . S
O115 Cd114 2.240 . S
O115 C120 1.279 . S
O116 Cd113 2.297 . S
O116 C118 1.247 . S
O117 Cd113 2.439 . S
O117 C118 1.208 . S
C118 O116 1.247 . S
C118 O117 1.208 . S
C119 O124 1.247 . S
C119 O125 1.208 . S
C120 O112 1.315 . S
C120 O115 1.279 . S
C121 O122 1.315 . S
C121 O123 1.279 . S
O122 Cd114 2.223 . S
O122 C121 1.315 . S
O123 Cd113 2.240 . S
O123 C121 1.279 . S
O124 Cd114 2.297 . S
O124 C119 1.247 . S
O125 Cd114 2.439 . S
O125 C119 1.208 . S
O126 Cd127 2.223 . S
O126 C134 1.315 . S
Cd127 O126 2.223 . S
Cd127 O130 2.297 1_554 S
Cd127 O131 2.439 . S
Cd127 O137 2.240 . S
Cd128 O129 2.240 . S
Cd128 O136 2.223 . S
Cd128 O138 2.297 . S
Cd128 O139 2.439 . S
O129 Cd128 2.240 . S
O129 C134 1.279 . S
O130 Cd127 2.297 1_556 S
O130 C132 1.247 . S
O131 Cd127 2.439 . S
O131 C132 1.208 1_554 S
C132 O130 1.247 . S
C132 O131 1.208 1_556 S
C133 O138 1.247 . S
C133 O139 1.208 . S
C134 O126 1.315 . S
C134 O129 1.279 . S
C135 O136 1.315 . S
C135 O137 1.279 . S
O136 Cd128 2.223 . S
O136 C135 1.315 . S
O137 Cd127 2.240 . S
O137 C135 1.279 . S
O138 Cd128 2.297 . S
O138 C133 1.247 . S
O139 Cd128 2.439 . S
O139 C133 1.208 . S
O140 Cd141 2.223 1_556 S
O140 C148 1.315 . S
Cd141 O140 2.223 1_554 S
Cd141 O144 2.297 . S
Cd141 O145 2.439 . S
Cd141 O151 2.240 . S
Cd142 O143 2.240 . S
Cd142 O150 2.223 . S
Cd142 O152 2.297 . S
Cd142 O153 2.439 1_556 S
O143 Cd142 2.240 . S
O143 C148 1.279 . S
O144 Cd141 2.297 . S
O144 C146 1.247 . S
O145 Cd141 2.439 . S
O145 C146 1.208 . S
C146 O144 1.247 . S
C146 O145 1.208 . S
C147 O152 1.247 1_554 S
C147 O153 1.208 . S
C148 O140 1.315 . S
C148 O143 1.279 . S
C149 O150 1.315 . S
C149 O151 1.279 1_556 S
O150 Cd142 2.223 . S
O150 C149 1.315 . S
O151 Cd141 2.240 . S
O151 C149 1.279 1_554 S
O152 Cd142 2.297 . S
O152 C147 1.247 1_556 S
O153 Cd142 2.439 1_554 S
O153 C147 1.208 . S
O154 Cd155 2.223 . S
O154 C162 1.315 . S
Cd155 O154 2.223 . S
Cd155 O158 2.297 . S
Cd155 O159 2.439 . S
Cd155 O165 2.240 . S
Cd156 O157 2.240 . S
Cd156 O164 2.223 . S
Cd156 O166 2.297 . S
Cd156 O167 2.439 . S
O157 Cd156 2.240 . S
O157 C162 1.279 . S
O158 Cd155 2.297 . S
O158 C160 1.247 . S
O159 Cd155 2.439 . S
O159 C160 1.208 . S
C160 O158 1.247 . S
C160 O159 1.208 . S
C161 O166 1.247 . S
C161 O167 1.208 . S
C162 O154 1.315 . S
C162 O157 1.279 . S
C163 O164 1.315 . S
C163 O165 1.279 . S
O164 Cd156 2.223 . S
O164 C163 1.315 . S
O165 Cd155 2.240 . S
O165 C163 1.279 . S
O166 Cd156 2.297 . S
O166 C161 1.247 . S
O167 Cd156 2.439 . S
O167 C161 1.208 . S
O168 Cd169 2.223 . S
O168 C176 1.315 . S
Cd169 O168 2.223 . S
Cd169 O172 2.297 . S
Cd169 O173 2.439 . S
Cd169 O179 2.240 . S
Cd170 O171 2.240 . S
Cd170 O178 2.223 . S
Cd170 O180 2.297 . S
Cd170 O181 2.439 . S
O171 Cd170 2.240 . S
O171 C176 1.279 . S
O172 Cd169 2.297 . S
O172 C174 1.247 . S
O173 Cd169 2.439 . S
O173 C174 1.208 . S
C174 O172 1.247 . S
C174 O173 1.208 . S
C175 O180 1.247 . S
C175 O181 1.208 . S
C176 O168 1.315 . S
C176 O171 1.279 . S
C177 O178 1.315 . S
C177 O179 1.279 . S
O178 Cd170 2.223 . S
O178 C177 1.315 . S
O179 Cd169 2.240 . S
O179 C177 1.279 . S
O180 Cd170 2.297 . S
O180 C175 1.247 . S
O181 Cd170 2.439 . S
O181 C175 1.208 . S
O182 Cd183 2.223 . S
O182 C190 1.315 . S
Cd183 O182 2.223 . S
Cd183 O186 2.297 . S
Cd183 O187 2.439 . S
Cd183 O193 2.240 . S
Cd184 O185 2.240 . S
Cd184 O192 2.223 . S
Cd184 O194 2.297 . S
Cd184 O195 2.439 . S
O185 Cd184 2.240 . S
O185 C190 1.279 . S
O186 Cd183 2.297 . S
O186 C188 1.247 . S
O187 Cd183 2.439 . S
O187 C188 1.208 . S
C188 O186 1.247 . S
C188 O187 1.208 . S
C189 O194 1.247 . S
C189 O195 1.208 . S
C190 O182 1.315 . S
C190 O185 1.279 . S
C191 O192 1.315 . S
C191 O193 1.279 . S
O192 Cd184 2.223 . S
O192 C191 1.315 . S
O193 Cd183 2.240 . S
O193 C191 1.279 . S
O194 Cd184 2.297 . S
O194 C189 1.247 . S
O195 Cd184 2.439 . S
O195 C189 1.208 . S
O196 Cd197 2.223 . S
O196 C204 1.315 . S
Cd197 O196 2.223 . S
Cd197 O200 2.297 . S
Cd197 O201 2.439 . S
Cd197 O207 2.240 . S
Cd198 O199 2.240 . S
Cd198 O206 2.223 . S
Cd198 O208 2.297 . S
Cd198 O209 2.439 . S
O199 Cd198 2.240 . S
O199 C204 1.279 . S
O200 Cd197 2.297 . S
O200 C202 1.247 . S
O201 Cd197 2.439 . S
O201 C202 1.208 . S
C202 O200 1.247 . S
C202 O201 1.208 . S
C203 O208 1.247 . S
C203 O209 1.208 . S
C204 O196 1.315 . S
C204 O199 1.279 . S
C205 O206 1.315 . S
C205 O207 1.279 . S
O206 Cd198 2.223 . S
O206 C205 1.315 . S
O207 Cd197 2.240 . S
O207 C205 1.279 . S
O208 Cd198 2.297 . S
O208 C203 1.247 . S
O209 Cd198 2.439 . S
O209 C203 1.208 . S
O210 Cd211 2.223 . S
O210 C218 1.315 . S
Cd211 O210 2.223 . S
Cd211 O214 2.297 . S
Cd211 O215 2.439 . S
Cd211 O221 2.240 . S
Cd212 O213 2.240 . S
Cd212 O220 2.223 . S
Cd212 O222 2.297 . S
Cd212 O223 2.439 . S
O213 Cd212 2.240 . S
O213 C218 1.279 . S
O214 Cd211 2.297 . S
O214 C216 1.247 . S
O215 Cd211 2.439 . S
O215 C216 1.208 . S
C216 O214 1.247 . S
C216 O215 1.208 . S
C217 O222 1.247 . S
C217 O223 1.208 . S
C218 O210 1.315 . S
C218 O213 1.279 . S
C219 O220 1.315 . S
C219 O221 1.279 . S
O220 Cd212 2.223 . S
O220 C219 1.315 . S
O221 Cd211 2.240 . S
O221 C219 1.279 . S
O222 Cd212 2.297 . S
O222 C217 1.247 . S
O223 Cd212 2.439 . S
O223 C217 1.208 . S
H224 C236 0.930 . S
H225 C238 0.930 . S
H226 C239 0.930 . S
H227 C243 0.959 . S
H228 C243 0.959 . S
H229 C243 0.961 . S
H230 C244 0.960 . S
H231 C244 0.961 . S
H232 C244 0.959 . S
H233 C247 0.929 . S
H234 C248 0.931 . S
H235 C250 0.930 . S
C236 H224 0.930 . S
C236 C237 1.399 . S
C236 C241 1.399 . S
C237 C236 1.399 . S
C237 C238 1.376 . S
C238 H225 0.930 . S
C238 C237 1.376 . S
C238 C239 1.388 . S
C239 H226 0.930 . S
C239 C238 1.388 . S
C239 C240 1.390 . S
C240 C239 1.390 . S
C240 C241 1.394 . S
C240 C246 1.465 . S
C241 C236 1.399 . S
C241 C240 1.394 . S
C241 C242 1.516 . S
C242 C241 1.516 . S
C242 C243 1.502 . S
C242 C244 1.561 . S
C242 C245 1.526 . S
C243 H227 0.959 . S
C243 H228 0.959 . S
C243 H229 0.961 . S
C243 C242 1.502 . S
C244 H230 0.960 . S
C244 H231 0.961 . S
C244 H232 0.959 . S
C244 C242 1.561 . S
C245 C242 1.526 . S
C245 C246 1.396 . S
C245 C250 1.390 . S
C246 C240 1.465 . S
C246 C245 1.396 . S
C246 C247 1.399 . S
C247 H233 0.929 . S
C247 C246 1.399 . S
C247 C248 1.385 . S
C248 H234 0.931 . S
C248 C247 1.385 . S
C248 C249 1.389 . S
C249 C248 1.389 . S
C249 C250 1.387 . S
C250 H235 0.930 . S
C250 C245 1.390 . S
C250 C249 1.387 . S
H251 C263 0.930 . S
H252 C265 0.930 . S
H253 C266 0.930 . S
H254 C270 0.959 . S
H255 C270 0.959 . S
H256 C270 0.961 . S
H257 C271 0.960 . S
H258 C271 0.961 . S
H259 C271 0.959 . S
H260 C274 0.929 . S
H261 C275 0.931 . S
H262 C277 0.930 . S
C263 H251 0.930 . S
C263 C264 1.399 . S
C263 C268 1.399 . S
C264 C263 1.399 . S
C264 C265 1.376 . S
C265 H252 0.930 . S
C265 C264 1.376 . S
C265 C266 1.388 . S
C266 H253 0.930 . S
C266 C265 1.388 . S
C266 C267 1.390 . S
C267 C266 1.390 . S
C267 C268 1.394 . S
C267 C273 1.465 . S
C268 C263 1.399 . S
C268 C267 1.394 . S
C268 C269 1.516 . S
C269 C268 1.516 . S
C269 C270 1.502 . S
C269 C271 1.561 . S
C269 C272 1.526 . S
C270 H254 0.959 . S
C270 H255 0.959 . S
C270 H256 0.961 . S
C270 C269 1.502 . S
C271 H257 0.960 . S
C271 H258 0.961 . S
C271 H259 0.959 . S
C271 C269 1.561 . S
C272 C269 1.526 . S
C272 C273 1.396 . S
C272 C277 1.390 . S
C273 C267 1.465 . S
C273 C272 1.396 . S
C273 C274 1.399 . S
C274 H260 0.929 . S
C274 C273 1.399 . S
C274 C275 1.385 . S
C275 H261 0.931 . S
C275 C274 1.385 . S
C275 C276 1.389 . S
C276 C275 1.389 . S
C276 C277 1.387 . S
C277 H262 0.930 . S
C277 C272 1.390 . S
C277 C276 1.387 . S
H278 C290 0.930 . S
H279 C292 0.930 . S
H280 C293 0.930 . S
H281 C297 0.959 . S
H282 C297 0.959 . S
H283 C297 0.961 . S
H284 C298 0.960 . S
H285 C298 0.961 . S
H286 C298 0.959 . S
H287 C301 0.929 . S
H288 C302 0.931 . S
H289 C304 0.930 . S
C290 H278 0.930 . S
C290 C291 1.399 . S
C290 C295 1.399 . S
C291 C290 1.399 . S
C291 C292 1.376 . S
C292 H279 0.930 . S
C292 C291 1.376 . S
C292 C293 1.388 . S
C293 H280 0.930 . S
C293 C292 1.388 . S
C293 C294 1.390 . S
C294 C293 1.390 . S
C294 C295 1.394 . S
C294 C300 1.465 . S
C295 C290 1.399 . S
C295 C294 1.394 . S
C295 C296 1.516 . S
C296 C295 1.516 . S
C296 C297 1.502 . S
C296 C298 1.561 . S
C296 C299 1.526 . S
C297 H281 0.959 . S
C297 H282 0.959 . S
C297 H283 0.961 . S
C297 C296 1.502 . S
C298 H284 0.960 . S
C298 H285 0.961 . S
C298 H286 0.959 . S
C298 C296 1.561 . S
C299 C296 1.526 . S
C299 C300 1.396 . S
C299 C304 1.390 . S
C300 C294 1.465 . S
C300 C299 1.396 . S
C300 C301 1.399 . S
C301 H287 0.929 . S
C301 C300 1.399 . S
C301 C302 1.385 . S
C302 H288 0.931 . S
C302 C301 1.385 . S
C302 C303 1.389 . S
C303 C302 1.389 . S
C303 C304 1.387 . S
C304 H289 0.930 . S
C304 C299 1.390 . S
C304 C303 1.387 . S
H305 C317 0.930 1_554 S
H306 C319 0.930 . S
H307 C320 0.930 . S
H308 C324 0.959 . S
H309 C324 0.933 1_455 S
H310 C324 0.961 . S
H311 C325 0.960 . S
H312 C325 0.961 . S
H313 C325 0.959 . S
H314 C328 0.929 . S
H315 C329 0.927 1_455 S
H316 C331 0.930 . S
C317 H305 0.930 1_556 S
C317 C318 1.399 . S
C317 C322 1.399 . S
C318 C317 1.399 . S
C318 C319 1.376 . S
C319 H306 0.930 . S
C319 C318 1.376 . S
C319 C320 1.388 . S
C320 H307 0.930 . S
C320 C319 1.388 . S
C320 C321 1.390 . S
C321 C320 1.390 . S
C321 C322 1.394 . S
C321 C327 1.465 . S
C322 C317 1.399 . S
C322 C321 1.394 . S
C322 C323 1.516 1_556 S
C323 C322 1.516 1_554 S
C323 C324 1.502 . S
C323 C325 1.561 . S
C323 C326 1.526 1_554 S
C324 H308 0.959 . S
C324 H309 0.933 1_655 S
C324 H310 0.961 . S
C324 C323 1.502 . S
C325 H311 0.960 . S
C325 H312 0.961 . S
C325 H313 0.959 . S
C325 C323 1.561 . S
C326 C323 1.526 1_556 S
C326 C327 1.396 . S
C326 C331 1.390 1_655 S
C327 C321 1.465 . S
C327 C326 1.396 . S
C327 C328 1.399 . S
C328 H314 0.929 . S
C328 C327 1.399 . S
C328 C329 1.385 . S
C329 H315 0.927 1_655 S
C329 C328 1.385 . S
C329 C330 1.389 1_655 S
C330 C329 1.389 1_455 S
C330 C331 1.387 . S
C331 H316 0.930 . S
C331 C326 1.390 1_455 S
C331 C330 1.387 . S
H332 C344 0.930 . S
H333 C346 0.930 1_554 S
H334 C347 0.930 1_554 S
H335 C351 0.959 . S
H336 C351 0.959 . S
H337 C351 0.961 . S
H338 C352 0.960 . S
H339 C352 0.961 . S
H340 C352 0.959 . S
H341 C355 0.929 . S
H342 C356 0.931 . S
H343 C358 0.930 . S
C344 H332 0.930 . S
C344 C345 1.399 . S
C344 C349 1.399 . S
C345 C344 1.399 . S
C345 C346 1.376 . S
C346 H333 0.930 1_556 S
C346 C345 1.376 . S
C346 C347 1.388 . S
C347 H334 0.930 1_556 S
C347 C346 1.388 . S
C347 C348 1.390 . S
C348 C347 1.390 . S
C348 C349 1.394 . S
C348 C354 1.465 . S
C349 C344 1.399 . S
C349 C348 1.394 . S
C349 C350 1.516 . S
C350 C349 1.516 . S
C350 C351 1.502 . S
C350 C352 1.561 . S
C350 C353 1.526 . S
C351 H335 0.959 . S
C351 H336 0.959 . S
C351 H337 0.961 . S
C351 C350 1.502 . S
C352 H338 0.960 . S
C352 H339 0.961 . S
C352 H340 0.959 . S
C352 C350 1.561 . S
C353 C350 1.526 . S
C353 C354 1.396 . S
C353 C358 1.390 . S
C354 C348 1.465 . S
C354 C353 1.396 . S
C354 C355 1.399 1_556 S
C355 H341 0.929 . S
C355 C354 1.399 1_554 S
C355 C356 1.385 . S
C356 H342 0.931 . S
C356 C355 1.385 . S
C356 C357 1.389 1_554 S
C357 C356 1.389 1_556 S
C357 C358 1.387 . S
C358 H343 0.930 . S
C358 C353 1.390 . S
C358 C357 1.387 . S
H359 C371 0.930 . S
H360 C373 0.930 1_455 S
H361 C374 0.930 . S
H362 C378 0.959 . S
H363 C378 0.959 . S
H364 C378 0.961 . S
H365 C379 0.960 1_455 S
H366 C379 0.961 . S
H367 C379 0.961 . S
H368 C382 0.929 . S
H369 C383 0.931 . S
H370 C385 0.930 . S
C371 H359 0.930 . S
C371 C372 1.399 . S
C371 C376 1.399 1_455 S
C372 C371 1.399 . S
C372 C373 1.376 1_455 S
C373 H360 0.930 1_655 S
C373 C372 1.376 1_655 S
C373 C374 1.388 . S
C374 H361 0.930 . S
C374 C373 1.388 . S
C374 C375 1.390 . S
C375 C374 1.390 . S
C375 C376 1.394 . S
C375 C381 1.465 . S
C376 C371 1.399 1_655 S
C376 C375 1.394 . S
C376 C377 1.516 . S
C377 C376 1.516 . S
C377 C378 1.502 . S
C377 C379 1.561 . S
C377 C380 1.526 . S
C378 H362 0.959 . S
C378 H363 0.959 . S
C378 H364 0.961 . S
C378 C377 1.502 . S
C379 H365 0.960 1_655 S
C379 H366 0.961 . S
C379 H367 0.961 . S
C379 C377 1.561 . S
C380 C377 1.526 . S
C380 C381 1.396 . S
C380 C385 1.390 . S
C381 C375 1.465 . S
C381 C380 1.396 . S
C381 C382 1.399 . S
C382 H368 0.929 . S
C382 C381 1.399 . S
C382 C383 1.385 . S
C383 H369 0.931 . S
C383 C382 1.385 . S
C383 C384 1.389 . S
C384 C383 1.389 . S
C384 C385 1.387 . S
C385 H370 0.930 . S
C385 C380 1.390 . S
C385 C384 1.387 . S
H386 C398 0.930 . S
H387 C400 0.930 . S
H388 C401 0.930 . S
H389 C405 0.959 . S
H390 C405 0.959 . S
H391 C405 0.961 . S
H392 C406 0.960 . S
H393 C406 0.961 . S
H394 C406 0.959 . S
H395 C409 0.929 . S
H396 C410 0.931 . S
H397 C412 0.930 . S
C398 H386 0.930 . S
C398 C399 1.399 . S
C398 C403 1.399 . S
C399 C398 1.399 . S
C399 C400 1.376 . S
C400 H387 0.930 . S
C400 C399 1.376 . S
C400 C401 1.388 . S
C401 H388 0.930 . S
C401 C400 1.388 . S
C401 C402 1.390 . S
C402 C401 1.390 . S
C402 C403 1.394 . S
C402 C408 1.465 . S
C403 C398 1.399 . S
C403 C402 1.394 . S
C403 C404 1.516 . S
C404 C403 1.516 . S
C404 C405 1.502 . S
C404 C406 1.561 . S
C404 C407 1.526 . S
C405 H389 0.959 . S
C405 H390 0.959 . S
C405 H391 0.961 . S
C405 C404 1.502 . S
C406 H392 0.960 . S
C406 H393 0.961 . S
C406 H394 0.959 . S
C406 C404 1.561 . S
C407 C404 1.526 . S
C407 C408 1.396 . S
C407 C412 1.390 . S
C408 C402 1.465 . S
C408 C407 1.396 . S
C408 C409 1.399 . S
C409 H395 0.929 . S
C409 C408 1.399 . S
C409 C410 1.385 . S
C410 H396 0.931 . S
C410 C409 1.385 . S
C410 C411 1.389 . S
C411 C410 1.389 . S
C411 C412 1.387 . S
C412 H397 0.930 . S
C412 C407 1.390 . S
C412 C411 1.387 . S
H413 C425 0.930 . S
H414 C427 0.930 . S
H415 C428 0.930 . S
H416 C432 0.959 . S
H417 C432 0.959 . S
H418 C432 0.961 . S
H419 C433 0.960 . S
H420 C433 0.961 . S
H421 C433 0.959 . S
H422 C436 0.929 . S
H423 C437 0.931 . S
H424 C439 0.930 . S
C425 H413 0.930 . S
C425 C426 1.399 . S
C425 C430 1.399 . S
C426 C425 1.399 . S
C426 C427 1.376 . S
C427 H414 0.930 . S
C427 C426 1.376 . S
C427 C428 1.388 . S
C428 H415 0.930 . S
C428 C427 1.388 . S
C428 C429 1.390 . S
C429 C428 1.390 . S
C429 C430 1.394 . S
C429 C435 1.465 . S
C430 C425 1.399 . S
C430 C429 1.394 . S
C430 C431 1.516 . S
C431 C430 1.516 . S
C431 C432 1.502 . S
C431 C433 1.561 . S
C431 C434 1.526 . S
C432 H416 0.959 . S
C432 H417 0.959 . S
C432 H418 0.961 . S
C432 C431 1.502 . S
C433 H419 0.960 . S
C433 H420 0.961 . S
C433 H421 0.959 . S
C433 C431 1.561 . S
C434 C431 1.526 . S
C434 C435 1.396 . S
C434 C439 1.390 . S
C435 C429 1.465 . S
C435 C434 1.396 . S
C435 C436 1.399 . S
C436 H422 0.929 . S
C436 C435 1.399 . S
C436 C437 1.385 . S
C437 H423 0.931 . S
C437 C436 1.385 . S
C437 C438 1.389 . S
C438 C437 1.389 . S
C438 C439 1.387 . S
C439 H424 0.930 . S
C439 C434 1.390 . S
C439 C438 1.387 . S
H440 C452 0.930 . S
H441 C454 0.930 . S
H442 C455 0.917 1_554 S
H443 C459 0.959 . S
H444 C459 0.959 . S
H445 C459 0.961 . S
H446 C460 0.960 . S
H447 C460 0.961 . S
H448 C460 0.959 . S
H449 C463 0.929 1_455 S
H450 C464 0.931 . S
H451 C466 0.930 . S
C452 H440 0.930 . S
C452 C453 1.399 . S
C452 C457 1.399 1_455 S
C453 C452 1.399 . S
C453 C454 1.376 . S
C454 H441 0.930 . S
C454 C453 1.376 . S
C454 C455 1.388 . S
C455 H442 0.917 1_556 S
C455 C454 1.388 . S
C455 C456 1.390 . S
C456 C455 1.390 . S
C456 C457 1.394 1_455 S
C456 C462 1.465 1_455 S
C457 C452 1.399 1_655 S
C457 C456 1.394 1_655 S
C457 C458 1.516 . S
C458 C457 1.516 . S
C458 C459 1.502 . S
C458 C460 1.561 . S
C458 C461 1.526 . S
C459 H443 0.959 . S
C459 H444 0.959 . S
C459 H445 0.961 . S
C459 C458 1.502 . S
C460 H446 0.960 . S
C460 H447 0.961 . S
C460 H448 0.959 . S
C460 C458 1.561 . S
C461 C458 1.526 . S
C461 C462 1.396 . S
C461 C466 1.390 . S
C462 C456 1.465 1_655 S
C462 C461 1.396 . S
C462 C463 1.399 1_556 S
C463 H449 0.929 1_655 S
C463 C462 1.399 1_554 S
C463 C464 1.385 . S
C464 H450 0.931 . S
C464 C463 1.385 . S
C464 C465 1.389 . S
C465 C464 1.389 . S
C465 C466 1.387 1_554 S
C466 H451 0.930 . S
C466 C461 1.390 . S
C466 C465 1.387 1_556 S
H467 C479 0.930 . S
H468 C481 0.930 . S
H469 C482 0.930 . S
H470 C486 0.959 . S
H471 C486 0.959 . S
H472 C486 0.961 . S
H473 C487 0.960 . S
H474 C487 0.961 . S
H475 C487 0.959 . S
H476 C490 0.929 . S
H477 C491 0.931 . S
H478 C493 0.930 . S
C479 H467 0.930 . S
C479 C480 1.399 . S
C479 C484 1.399 . S
C480 C479 1.399 . S
C480 C481 1.376 . S
C481 H468 0.930 . S
C481 C480 1.376 . S
C481 C482 1.388 . S
C482 H469 0.930 . S
C482 C481 1.388 . S
C482 C483 1.390 . S
C483 C482 1.390 . S
C483 C484 1.394 . S
C483 C489 1.465 . S
C484 C479 1.399 . S
C484 C483 1.394 . S
C484 C485 1.516 . S
C485 C484 1.516 . S
C485 C486 1.502 . S
C485 C487 1.561 . S
C485 C488 1.526 . S
C486 H470 0.959 . S
C486 H471 0.959 . S
C486 H472 0.961 . S
C486 C485 1.502 . S
C487 H473 0.960 . S
C487 H474 0.961 . S
C487 H475 0.959 . S
C487 C485 1.561 . S
C488 C485 1.526 . S
C488 C489 1.396 . S
C488 C493 1.390 . S
C489 C483 1.465 . S
C489 C488 1.396 . S
C489 C490 1.399 . S
C490 H476 0.929 . S
C490 C489 1.399 . S
C490 C491 1.385 . S
C491 H477 0.931 . S
C491 C490 1.385 . S
C491 C492 1.389 . S
C492 C491 1.389 . S
C492 C493 1.387 . S
C493 H478 0.930 . S
C493 C488 1.390 . S
C493 C492 1.387 . S
H494 C506 0.930 . S
H495 C508 0.930 . S
H496 C509 0.930 . S
H497 C513 0.959 . S
H498 C513 0.959 . S
H499 C513 0.961 . S
H500 C514 0.960 . S
H501 C514 0.961 . S
H502 C514 0.959 . S
H503 C517 0.929 . S
H504 C518 0.931 . S
H505 C520 0.930 . S
C506 H494 0.930 . S
C506 C507 1.399 . S
C506 C511 1.399 . S
C507 C506 1.399 . S
C507 C508 1.376 . S
C508 H495 0.930 . S
C508 C507 1.376 . S
C508 C509 1.388 . S
C509 H496 0.930 . S
C509 C508 1.388 . S
C509 C510 1.390 . S
C510 C509 1.390 . S
C510 C511 1.394 . S
C510 C516 1.465 . S
C511 C506 1.399 . S
C511 C510 1.394 . S
C511 C512 1.516 . S
C512 C511 1.516 . S
C512 C513 1.502 . S
C512 C514 1.561 . S
C512 C515 1.526 . S
C513 H497 0.959 . S
C513 H498 0.959 . S
C513 H499 0.961 . S
C513 C512 1.502 . S
C514 H500 0.960 . S
C514 H501 0.961 . S
C514 H502 0.959 . S
C514 C512 1.561 . S
C515 C512 1.526 . S
C515 C516 1.396 . S
C515 C520 1.390 . S
C516 C510 1.465 . S
C516 C515 1.396 . S
C516 C517 1.399 . S
C517 H503 0.929 . S
C517 C516 1.399 . S
C517 C518 1.385 . S
C518 H504 0.931 . S
C518 C517 1.385 . S
C518 C519 1.389 . S
C519 C518 1.389 . S
C519 C520 1.387 . S
C520 H505 0.930 . S
C520 C515 1.390 . S
C520 C519 1.387 . S
H521 C533 0.930 . S
H522 C535 0.930 . S
H523 C536 0.930 . S
H524 C540 0.959 . S
H525 C540 0.959 . S
H526 C540 0.961 . S
H527 C541 0.960 . S
H528 C541 0.961 . S
H529 C541 0.959 . S
H530 C544 0.929 . S
H531 C545 0.931 . S
H532 C547 0.930 . S
C533 H521 0.930 . S
C533 C534 1.399 . S
C533 C538 1.399 . S
C534 C533 1.399 . S
C534 C535 1.376 . S
C535 H522 0.930 . S
C535 C534 1.376 . S
C535 C536 1.388 . S
C536 H523 0.930 . S
C536 C535 1.388 . S
C536 C537 1.390 . S
C537 C536 1.390 . S
C537 C538 1.394 . S
C537 C543 1.465 . S
C538 C533 1.399 . S
C538 C537 1.394 . S
C538 C539 1.516 . S
C539 C538 1.516 . S
C539 C540 1.502 . S
C539 C541 1.561 . S
C539 C542 1.526 . S
C540 H524 0.959 . S
C540 H525 0.959 . S
C540 H526 0.961 . S
C540 C539 1.502 . S
C541 H527 0.960 . S
C541 H528 0.961 . S
C541 H529 0.959 . S
C541 C539 1.561 . S
C542 C539 1.526 . S
C542 C543 1.396 . S
C542 C547 1.390 . S
C543 C537 1.465 . S
C543 C542 1.396 . S
C543 C544 1.399 . S
C544 H530 0.929 . S
C544 C543 1.399 . S
C544 C545 1.385 . S
C545 H531 0.931 . S
C545 C544 1.385 . S
C545 C546 1.389 . S
C546 C545 1.389 . S
C546 C547 1.387 . S
C547 H532 0.930 . S
C547 C542 1.390 . S
C547 C546 1.387 . S
H548 C560 0.930 . S
H549 C562 0.930 . S
H550 C563 0.930 1_655 S
H551 C567 0.959 . S
H552 C567 0.982 . S
H553 C567 0.961 . S
H554 C568 0.960 . S
H555 C568 0.961 . S
H556 C568 0.959 . S
H557 C571 0.929 . S
H558 C572 0.931 . S
H559 C574 0.930 . S
C560 H548 0.930 . S
C560 C561 1.399 . S
C560 C565 1.399 . S
C561 C560 1.399 . S
C561 C562 1.376 . S
C562 H549 0.930 . S
C562 C561 1.376 . S
C562 C563 1.388 . S
C563 H550 0.930 1_455 S
C563 C562 1.388 . S
C563 C564 1.390 1_455 S
C564 C563 1.390 1_655 S
C564 C565 1.394 1_655 S
C564 C570 1.465 . S
C565 C560 1.399 . S
C565 C564 1.394 1_455 S
C565 C566 1.516 1_455 S
C566 C565 1.516 1_655 S
C566 C567 1.502 1_655 S
C566 C568 1.561 . S
C566 C569 1.526 . S
C567 H551 0.959 . S
C567 H552 0.982 . S
C567 H553 0.961 . S
C567 C566 1.502 1_455 S
C568 H554 0.960 . S
C568 H555 0.961 . S
C568 H556 0.959 . S
C568 C566 1.561 . S
C569 C566 1.526 . S
C569 C570 1.396 . S
C569 C574 1.390 . S
C570 C564 1.465 . S
C570 C569 1.396 . S
C570 C571 1.399 . S
C571 H557 0.929 . S
C571 C570 1.399 . S
C571 C572 1.385 . S
C572 H558 0.931 . S
C572 C571 1.385 . S
C572 C573 1.389 . S
C573 C572 1.389 . S
C573 C574 1.387 . S
C574 H559 0.930 . S
C574 C569 1.390 . S
C574 C573 1.387 . S
H575 C587 0.930 . S
H576 C589 0.930 . S
H577 C590 0.930 1_554 S
H578 C594 0.959 . S
H579 C594 0.959 . S
H580 C594 0.961 . S
H581 C595 0.960 . S
H582 C595 0.961 . S
H583 C595 0.959 . S
H584 C598 0.929 . S
H585 C599 0.931 . S
H586 C601 0.930 . S
C587 H575 0.930 . S
C587 C588 1.399 . S
C587 C592 1.399 . S
C588 C587 1.399 . S
C588 C589 1.376 . S
C589 H576 0.930 . S
C589 C588 1.376 . S
C589 C590 1.388 . S
C590 H577 0.930 1_556 S
C590 C589 1.388 . S
C590 C591 1.390 . S
C591 C590 1.390 . S
C591 C592 1.394 . S
C591 C597 1.465 . S
C592 C587 1.399 . S
C592 C591 1.394 . S
C592 C593 1.516 . S
C593 C592 1.516 . S
C593 C594 1.502 . S
C593 C595 1.561 . S
C593 C596 1.526 . S
C594 H578 0.959 . S
C594 H579 0.959 . S
C594 H580 0.961 . S
C594 C593 1.502 . S
C595 H581 0.960 . S
C595 H582 0.961 . S
C595 H583 0.959 . S
C595 C593 1.561 . S
C596 C593 1.526 . S
C596 C597 1.396 . S
C596 C601 1.390 . S
C597 C591 1.465 . S
C597 C596 1.396 . S
C597 C598 1.399 1_556 S
C598 H584 0.929 . S
C598 C597 1.399 1_554 S
C598 C599 1.385 . S
C599 H585 0.931 . S
C599 C598 1.385 . S
C599 C600 1.389 . S
C600 C599 1.389 . S
C600 C601 1.387 1_554 S
C601 H586 0.930 . S
C601 C596 1.390 . S
C601 C600 1.387 1_556 S
H602 C614 0.930 . S
H603 C616 0.930 . S
H604 C617 0.930 . S
H605 C621 0.959 . S
H606 C621 0.959 . S
H607 C621 0.961 . S
H608 C622 0.960 . S
H609 C622 0.961 . S
H610 C622 0.959 . S
H611 C625 0.929 . S
H612 C626 0.931 . S
H613 C628 0.930 . S
C614 H602 0.930 . S
C614 C615 1.399 . S
C614 C619 1.399 . S
C615 C614 1.399 . S
C615 C616 1.376 . S
C616 H603 0.930 . S
C616 C615 1.376 . S
C616 C617 1.388 . S
C617 H604 0.930 . S
C617 C616 1.388 . S
C617 C618 1.390 . S
C618 C617 1.390 . S
C618 C619 1.394 . S
C618 C624 1.465 . S
C619 C614 1.399 . S
C619 C618 1.394 . S
C619 C620 1.516 . S
C620 C619 1.516 . S
C620 C621 1.502 . S
C620 C622 1.561 . S
C620 C623 1.526 . S
C621 H605 0.959 . S
C621 H606 0.959 . S
C621 H607 0.961 . S
C621 C620 1.502 . S
C622 H608 0.960 . S
C622 H609 0.961 . S
C622 H610 0.959 . S
C622 C620 1.561 . S
C623 C620 1.526 . S
C623 C624 1.396 . S
C623 C628 1.390 . S
C624 C618 1.465 . S
C624 C623 1.396 . S
C624 C625 1.399 . S
C625 H611 0.929 . S
C625 C624 1.399 . S
C625 C626 1.385 . S
C626 H612 0.931 . S
C626 C625 1.385 . S
C626 C627 1.389 . S
C627 C626 1.389 . S
C627 C628 1.387 . S
C628 H613 0.930 . S
C628 C623 1.390 . S
C628 C627 1.387 . S
H629 C641 0.930 . S
H630 C643 0.930 . S
H631 C644 0.930 . S
H632 C648 0.959 . S
H633 C648 0.959 . S
H634 C648 0.961 . S
H635 C649 0.960 . S
H636 C649 0.961 . S
H637 C649 0.959 . S
H638 C652 0.929 . S
H639 C653 0.931 . S
H640 C655 0.930 . S
C641 H629 0.930 . S
C641 C642 1.399 . S
C641 C646 1.399 . S
C642 C641 1.399 . S
C642 C643 1.376 . S
C643 H630 0.930 . S
C643 C642 1.376 . S
C643 C644 1.388 . S
C644 H631 0.930 . S
C644 C643 1.388 . S
C644 C645 1.390 . S
C645 C644 1.390 . S
C645 C646 1.394 . S
C645 C651 1.465 . S
C646 C641 1.399 . S
C646 C645 1.394 . S
C646 C647 1.516 . S
C647 C646 1.516 . S
C647 C648 1.502 . S
C647 C649 1.561 . S
C647 C650 1.526 . S
C648 H632 0.959 . S
C648 H633 0.959 . S
C648 H634 0.961 . S
C648 C647 1.502 . S
C649 H635 0.960 . S
C649 H636 0.961 . S
C649 H637 0.959 . S
C649 C647 1.561 . S
C650 C647 1.526 . S
C650 C651 1.396 . S
C650 C655 1.390 . S
C651 C645 1.465 . S
C651 C650 1.396 . S
C651 C652 1.399 . S
C652 H638 0.929 . S
C652 C651 1.399 . S
C652 C653 1.385 . S
C653 H639 0.931 . S
C653 C652 1.385 . S
C653 C654 1.389 . S
C654 C653 1.389 . S
C654 C655 1.387 . S
C655 H640 0.930 . S
C655 C650 1.390 . S
C655 C654 1.387 . S
H656 C668 0.930 . S
H657 C670 0.930 . S
H658 C671 0.930 . S
H659 C675 0.959 . S
H660 C675 0.959 . S
H661 C675 0.961 . S
H662 C676 0.960 . S
H663 C676 0.961 . S
H664 C676 0.959 . S
H665 C679 0.929 . S
H666 C680 0.931 . S
H667 C682 0.930 . S
C668 H656 0.930 . S
C668 C669 1.399 . S
C668 C673 1.399 . S
C669 C668 1.399 . S
C669 C670 1.376 . S
C670 H657 0.930 . S
C670 C669 1.376 . S
C670 C671 1.388 . S
C671 H658 0.930 . S
C671 C670 1.388 . S
C671 C672 1.390 . S
C672 C671 1.390 . S
C672 C673 1.394 . S
C672 C678 1.465 . S
C673 C668 1.399 . S
C673 C672 1.394 . S
C673 C674 1.516 . S
C674 C673 1.516 . S
C674 C675 1.502 . S
C674 C676 1.561 . S
C674 C677 1.526 . S
C675 H659 0.959 . S
C675 H660 0.959 . S
C675 H661 0.961 . S
C675 C674 1.502 . S
C676 H662 0.960 . S
C676 H663 0.961 . S
C676 H664 0.959 . S
C676 C674 1.561 . S
C677 C674 1.526 . S
C677 C678 1.396 . S
C677 C682 1.390 . S
C678 C672 1.465 . S
C678 C677 1.396 . S
C678 C679 1.399 1_554 S
C679 H665 0.929 . S
C679 C678 1.399 1_556 S
C679 C680 1.385 . S
C680 H666 0.931 . S
C680 C679 1.385 . S
C680 C681 1.389 . S
C681 C680 1.389 . S
C681 C682 1.387 1_556 S
C682 H667 0.930 . S
C682 C677 1.390 . S
C682 C681 1.387 1_554 S
H683 C695 0.930 . S
H684 C697 0.930 . S
H685 C698 0.930 . S
H686 C702 0.959 . S
H687 C702 0.959 . S
H688 C702 0.961 . S
H689 C703 0.960 . S
H690 C703 0.961 . S
H691 C703 0.959 . S
H692 C706 0.929 . S
H693 C707 0.931 . S
H694 C709 0.930 . S
C695 H683 0.930 . S
C695 C696 1.399 . S
C695 C700 1.399 . S
C696 C695 1.399 . S
C696 C697 1.376 . S
C697 H684 0.930 . S
C697 C696 1.376 . S
C697 C698 1.388 . S
C698 H685 0.930 . S
C698 C697 1.388 . S
C698 C699 1.390 . S
C699 C698 1.390 . S
C699 C700 1.394 . S
C699 C705 1.465 . S
C700 C695 1.399 . S
C700 C699 1.394 . S
C700 C701 1.516 . S
C701 C700 1.516 . S
C701 C702 1.502 . S
C701 C703 1.561 . S
C701 C704 1.526 . S
C702 H686 0.959 . S
C702 H687 0.959 . S
C702 H688 0.961 . S
C702 C701 1.502 . S
C703 H689 0.960 . S
C703 H690 0.961 . S
C703 H691 0.959 . S
C703 C701 1.561 . S
C704 C701 1.526 . S
C704 C705 1.396 . S
C704 C709 1.390 . S
C705 C699 1.465 . S
C705 C704 1.396 . S
C705 C706 1.399 . S
C706 H692 0.929 . S
C706 C705 1.399 . S
C706 C707 1.385 . S
C707 H693 0.931 . S
C707 C706 1.385 . S
C707 C708 1.389 . S
C708 C707 1.389 . S
C708 C709 1.387 . S
C709 H694 0.930 . S
C709 C704 1.390 . S
C709 C708 1.387 . S
H710 C722 0.930 . S
H711 C724 0.930 . S
H712 C725 0.930 . S
H713 C729 0.959 . S
H714 C729 0.959 . S
H715 C729 0.961 . S
H716 C730 0.960 . S
H717 C730 0.961 . S
H718 C730 0.959 . S
H719 C733 0.929 . S
H720 C734 0.931 . S
H721 C736 0.930 . S
C722 H710 0.930 . S
C722 C723 1.399 . S
C722 C727 1.399 . S
C723 C722 1.399 . S
C723 C724 1.376 . S
C724 H711 0.930 . S
C724 C723 1.376 . S
C724 C725 1.388 . S
C725 H712 0.930 . S
C725 C724 1.388 . S
C725 C726 1.390 . S
C726 C725 1.390 . S
C726 C727 1.394 . S
C726 C732 1.465 . S
C727 C722 1.399 . S
C727 C726 1.394 . S
C727 C728 1.516 . S
C728 C727 1.516 . S
C728 C729 1.502 . S
C728 C730 1.561 . S
C728 C731 1.526 . S
C729 H713 0.959 . S
C729 H714 0.959 . S
C729 H715 0.961 . S
C729 C728 1.502 . S
C730 H716 0.960 . S
C730 H717 0.961 . S
C730 H718 0.959 . S
C730 C728 1.561 . S
C731 C728 1.526 . S
C731 C732 1.396 . S
C731 C736 1.390 . S
C732 C726 1.465 . S
C732 C731 1.396 . S
C732 C733 1.399 . S
C733 H719 0.929 . S
C733 C732 1.399 . S
C733 C734 1.385 . S
C734 H720 0.931 . S
C734 C733 1.385 . S
C734 C735 1.389 . S
C735 C734 1.389 . S
C735 C736 1.387 . S
C736 H721 0.930 . S
C736 C731 1.390 . S
C736 C735 1.387 . S
H737 C749 0.930 . S
H738 C751 0.930 . S
H739 C752 0.930 . S
H740 C756 0.959 . S
H741 C756 0.959 . S
H742 C756 0.961 . S
H743 C757 0.960 . S
H744 C757 0.961 . S
H745 C757 0.959 . S
H746 C760 0.929 . S
H747 C761 0.931 . S
H748 C763 0.930 . S
C749 H737 0.930 . S
C749 C750 1.399 . S
C749 C754 1.399 . S
C750 C749 1.399 . S
C750 C751 1.376 . S
C751 H738 0.930 . S
C751 C750 1.376 . S
C751 C752 1.388 . S
C752 H739 0.930 . S
C752 C751 1.388 . S
C752 C753 1.390 . S
C753 C752 1.390 . S
C753 C754 1.394 . S
C753 C759 1.465 . S
C754 C749 1.399 . S
C754 C753 1.394 . S
C754 C755 1.516 . S
C755 C754 1.516 . S
C755 C756 1.502 . S
C755 C757 1.561 . S
C755 C758 1.526 . S
C756 H740 0.959 . S
C756 H741 0.959 . S
C756 H742 0.961 . S
C756 C755 1.502 . S
C757 H743 0.960 . S
C757 H744 0.961 . S
C757 H745 0.959 . S
C757 C755 1.561 . S
C758 C755 1.526 . S
C758 C759 1.396 . S
C758 C763 1.390 . S
C759 C753 1.465 . S
C759 C758 1.396 . S
C759 C760 1.399 . S
C760 H746 0.929 . S
C760 C759 1.399 . S
C760 C761 1.385 . S
C761 H747 0.931 . S
C761 C760 1.385 . S
C761 C762 1.389 . S
C762 C761 1.389 . S
C762 C763 1.387 . S
C763 H748 0.930 . S
C763 C758 1.390 . S
C763 C762 1.387 . S
H764 C776 0.930 . S
H765 C778 0.930 . S
H766 C779 0.930 . S
H767 C783 0.959 . S
H768 C783 0.959 . S
H769 C783 0.961 . S
H770 C784 0.960 . S
H771 C784 0.961 . S
H772 C784 0.959 . S
H773 C787 0.929 . S
H774 C788 0.931 . S
H775 C790 0.930 . S
C776 H764 0.930 . S
C776 C777 1.399 . S
C776 C781 1.399 . S
C777 C776 1.399 . S
C777 C778 1.376 . S
C778 H765 0.930 . S
C778 C777 1.376 . S
C778 C779 1.388 . S
C779 H766 0.930 . S
C779 C778 1.388 . S
C779 C780 1.390 . S
C780 C779 1.390 . S
C780 C781 1.394 . S
C780 C786 1.465 . S
C781 C776 1.399 . S
C781 C780 1.394 . S
C781 C782 1.516 . S
C782 C781 1.516 . S
C782 C783 1.502 . S
C782 C784 1.561 . S
C782 C785 1.526 . S
C783 H767 0.959 . S
C783 H768 0.959 . S
C783 H769 0.961 . S
C783 C782 1.502 . S
C784 H770 0.960 . S
C784 H771 0.961 . S
C784 H772 0.959 . S
C784 C782 1.561 . S
C785 C782 1.526 . S
C785 C786 1.396 . S
C785 C790 1.390 . S
C786 C780 1.465 . S
C786 C785 1.396 . S
C786 C787 1.399 . S
C787 H773 0.929 . S
C787 C786 1.399 . S
C787 C788 1.385 . S
C788 H774 0.931 . S
C788 C787 1.385 . S
C788 C789 1.389 . S
C789 C788 1.389 . S
C789 C790 1.387 . S
C790 H775 0.930 . S
C790 C785 1.390 . S
C790 C789 1.387 . S
H791 C803 0.930 . S
H792 C805 0.930 . S
H793 C806 0.930 . S
H794 C810 0.959 . S
H795 C810 0.959 . S
H796 C810 0.961 . S
H797 C811 0.960 . S
H798 C811 0.961 . S
H799 C811 0.959 . S
H800 C814 0.929 . S
H801 C815 0.931 . S
H802 C817 0.930 . S
C803 H791 0.930 . S
C803 C804 1.399 . S
C803 C808 1.399 . S
C804 C803 1.399 . S
C804 C805 1.376 . S
C805 H792 0.930 . S
C805 C804 1.376 . S
C805 C806 1.388 . S
C806 H793 0.930 . S
C806 C805 1.388 . S
C806 C807 1.390 . S
C807 C806 1.390 . S
C807 C808 1.394 . S
C807 C813 1.465 . S
C808 C803 1.399 . S
C808 C807 1.394 . S
C808 C809 1.516 . S
C809 C808 1.516 . S
C809 C810 1.502 . S
C809 C811 1.561 . S
C809 C812 1.526 . S
C810 H794 0.959 . S
C810 H795 0.959 . S
C810 H796 0.961 . S
C810 C809 1.502 . S
C811 H797 0.960 . S
C811 H798 0.961 . S
C811 H799 0.959 . S
C811 C809 1.561 . S
C812 C809 1.526 . S
C812 C813 1.396 . S
C812 C817 1.390 . S
C813 C807 1.465 . S
C813 C812 1.396 . S
C813 C814 1.399 . S
C814 H800 0.929 . S
C814 C813 1.399 . S
C814 C815 1.385 . S
C815 H801 0.931 . S
C815 C814 1.385 . S
C815 C816 1.389 . S
C816 C815 1.389 . S
C816 C817 1.387 . S
C817 H802 0.930 . S
C817 C812 1.390 . S
C817 C816 1.387 . S
H818 C830 0.930 . S
H819 C832 0.930 . S
H820 C833 0.930 . S
H821 C837 0.959 1_545 S
H822 C837 0.959 . S
H823 C837 0.961 . S
H824 C838 0.960 . S
H825 C838 0.961 . S
H826 C838 0.959 . S
H827 C841 0.929 . S
H828 C842 0.931 . S
H829 C844 0.930 . S
C830 H818 0.930 . S
C830 C831 1.399 . S
C830 C835 1.399 . S
C831 C830 1.399 . S
C831 C832 1.376 . S
C832 H819 0.930 . S
C832 C831 1.376 . S
C832 C833 1.388 . S
C833 H820 0.930 . S
C833 C832 1.388 . S
C833 C834 1.390 . S
C834 C833 1.390 . S
C834 C835 1.394 . S
C834 C840 1.465 1_565 S
C835 C830 1.399 . S
C835 C834 1.394 . S
C835 C836 1.516 . S
C836 C835 1.516 . S
C836 C837 1.502 . S
C836 C838 1.561 . S
C836 C839 1.526 1_565 S
C837 H821 0.959 1_565 S
C837 H822 0.959 . S
C837 H823 0.961 . S
C837 C836 1.502 . S
C838 H824 0.960 . S
C838 H825 0.961 . S
C838 H826 0.959 . S
C838 C836 1.561 . S
C839 C836 1.526 1_545 S
C839 C840 1.396 . S
C839 C844 1.390 . S
C840 C834 1.465 1_545 S
C840 C839 1.396 . S
C840 C841 1.399 . S
C841 H827 0.929 . S
C841 C840 1.399 . S
C841 C842 1.385 . S
C842 H828 0.931 . S
C842 C841 1.385 . S
C842 C843 1.389 . S
C843 C842 1.389 . S
C843 C844 1.387 . S
C844 H829 0.930 . S
C844 C839 1.390 . S
C844 C843 1.387 . S
H845 C857 0.930 . S
H846 C859 0.930 . S
H847 C860 0.930 1_655 S
H848 C864 0.956 1_565 S
H849 C864 0.957 1_565 S
H850 C864 0.964 . S
H851 C865 0.960 . S
H852 C865 0.961 . S
H853 C865 0.959 . S
H854 C868 0.929 1_655 S
H855 C869 0.931 . S
H856 C871 0.930 . S
C857 H845 0.930 . S
C857 C858 1.399 . S
C857 C862 1.399 1_556 S
C858 C857 1.399 . S
C858 C859 1.376 . S
C859 H846 0.930 . S
C859 C858 1.376 . S
C859 C860 1.388 . S
C860 H847 0.930 1_455 S
C860 C859 1.388 . S
C860 C861 1.390 1_556 S
C861 C860 1.390 1_554 S
C861 C862 1.394 . S
C861 C867 1.465 1_545 S
C862 C857 1.399 1_554 S
C862 C861 1.394 . S
C862 C863 1.516 . S
C863 C862 1.516 . S
C863 C864 1.503 . S
C863 C865 1.561 . S
C863 C866 1.526 1_545 S
C864 H848 0.956 1_545 S
C864 H849 0.957 1_545 S
C864 H850 0.964 . S
C864 C863 1.503 . S
C865 H851 0.960 . S
C865 H852 0.961 . S
C865 H853 0.959 . S
C865 C863 1.561 . S
C866 C863 1.526 1_565 S
C866 C867 1.396 . S
C866 C871 1.390 . S
C867 C861 1.465 1_565 S
C867 C866 1.396 . S
C867 C868 1.399 . S
C868 H854 0.929 1_455 S
C868 C867 1.399 . S
C868 C869 1.385 . S
C869 H855 0.931 . S
C869 C868 1.385 . S
C869 C870 1.389 . S
C870 C869 1.389 . S
C870 C871 1.387 . S
C871 H856 0.930 . S
C871 C866 1.390 . S
C871 C870 1.387 . S
H872 C884 0.930 . S
H873 C886 0.930 . S
H874 C887 0.930 . S
H875 C891 0.959 . S
H876 C891 0.959 . S
H877 C891 0.961 . S
H878 C892 0.960 . S
H879 C892 0.961 . S
H880 C892 0.959 . S
H881 C895 0.929 . S
H882 C896 0.931 . S
H883 C898 0.930 . S
C884 H872 0.930 . S
C884 C885 1.399 . S
C884 C889 1.399 . S
C885 C884 1.399 . S
C885 C886 1.376 . S
C886 H873 0.930 . S
C886 C885 1.376 . S
C886 C887 1.388 . S
C887 H874 0.930 . S
C887 C886 1.388 . S
C887 C888 1.390 . S
C888 C887 1.390 . S
C888 C889 1.394 . S
C888 C894 1.465 . S
C889 C884 1.399 . S
C889 C888 1.394 . S
C889 C890 1.516 . S
C890 C889 1.516 . S
C890 C891 1.502 . S
C890 C892 1.561 . S
C890 C893 1.526 . S
C891 H875 0.959 . S
C891 H876 0.959 . S
C891 H877 0.961 . S
C891 C890 1.502 . S
C892 H878 0.960 . S
C892 H879 0.961 . S
C892 H880 0.959 . S
C892 C890 1.561 . S
C893 C890 1.526 . S
C893 C894 1.396 . S
C893 C898 1.390 . S
C894 C888 1.465 . S
C894 C893 1.396 . S
C894 C895 1.399 . S
C895 H881 0.929 . S
C895 C894 1.399 . S
C895 C896 1.385 . S
C896 H882 0.931 . S
C896 C895 1.385 . S
C896 C897 1.389 . S
C897 C896 1.389 . S
C897 C898 1.387 . S
C898 H883 0.930 . S
C898 C893 1.390 . S
C898 C897 1.387 . S
H899 C911 0.930 . S
H900 C913 0.930 . S
H901 C914 0.930 . S
H902 C918 0.959 . S
H903 C918 0.959 . S
H904 C918 0.961 . S
H905 C919 0.960 . S
H906 C919 0.961 . S
H907 C919 0.959 . S
H908 C922 0.929 . S
H909 C923 0.931 . S
H910 C925 0.930 . S
C911 H899 0.930 . S
C911 C912 1.399 . S
C911 C916 1.399 . S
C912 C911 1.399 . S
C912 C913 1.376 . S
C913 H900 0.930 . S
C913 C912 1.376 . S
C913 C914 1.388 . S
C914 H901 0.930 . S
C914 C913 1.388 . S
C914 C915 1.390 . S
C915 C914 1.390 . S
C915 C916 1.394 . S
C915 C921 1.465 . S
C916 C911 1.399 . S
C916 C915 1.394 . S
C916 C917 1.516 . S
C917 C916 1.516 . S
C917 C918 1.502 . S
C917 C919 1.561 . S
C917 C920 1.526 . S
C918 H902 0.959 . S
C918 H903 0.959 . S
C918 H904 0.961 . S
C918 C917 1.502 . S
C919 H905 0.960 . S
C919 H906 0.961 . S
C919 H907 0.959 . S
C919 C917 1.561 . S
C920 C917 1.526 . S
C920 C921 1.396 . S
C920 C925 1.390 . S
C921 C915 1.465 . S
C921 C920 1.396 . S
C921 C922 1.399 . S
C922 H908 0.929 . S
C922 C921 1.399 . S
C922 C923 1.385 . S
C923 H909 0.931 . S
C923 C922 1.385 . S
C923 C924 1.389 . S
C924 C923 1.389 . S
C924 C925 1.387 . S
C925 H910 0.930 . S
C925 C920 1.390 . S
C925 C924 1.387 . S
H926 C938 0.930 . S
H927 C940 0.930 . S
H928 C941 0.930 . S
H929 C945 0.959 . S
H930 C945 0.959 . S
H931 C945 0.961 . S
H932 C946 0.960 . S
H933 C946 0.961 . S
H934 C946 0.959 . S
H935 C949 0.929 . S
H936 C950 0.931 . S
H937 C952 0.930 . S
C938 H926 0.930 . S
C938 C939 1.399 . S
C938 C943 1.399 . S
C939 C938 1.399 . S
C939 C940 1.376 . S
C940 H927 0.930 . S
C940 C939 1.376 . S
C940 C941 1.388 . S
C941 H928 0.930 . S
C941 C940 1.388 . S
C941 C942 1.390 . S
C942 C941 1.390 . S
C942 C943 1.394 . S
C942 C948 1.465 . S
C943 C938 1.399 . S
C943 C942 1.394 . S
C943 C944 1.516 . S
C944 C943 1.516 . S
C944 C945 1.502 . S
C944 C946 1.561 . S
C944 C947 1.526 . S
C945 H929 0.959 . S
C945 H930 0.959 . S
C945 H931 0.961 . S
C945 C944 1.502 . S
C946 H932 0.960 . S
C946 H933 0.961 . S
C946 H934 0.959 . S
C946 C944 1.561 . S
C947 C944 1.526 . S
C947 C948 1.396 . S
C947 C952 1.390 1_554 S
C948 C942 1.465 . S
C948 C947 1.396 . S
C948 C949 1.399 1_554 S
C949 H935 0.929 . S
C949 C948 1.399 1_556 S
C949 C950 1.385 . S
C950 H936 0.931 . S
C950 C949 1.385 . S
C950 C951 1.389 . S
C951 C950 1.389 . S
C951 C952 1.387 . S
C952 H937 0.930 . S
C952 C947 1.390 1_556 S
C952 C951 1.387 . S
H953 C965 0.930 . S
H954 C967 0.930 . S
H955 C968 0.930 . S
H956 C972 0.959 . S
H957 C972 0.959 . S
H958 C972 0.961 . S
H959 C973 0.960 . S
H960 C973 0.961 . S
H961 C973 0.959 . S
H962 C976 0.929 . S
H963 C977 0.931 . S
H964 C979 0.930 . S
C965 H953 0.930 . S
C965 C966 1.399 . S
C965 C970 1.399 . S
C966 C965 1.399 . S
C966 C967 1.376 . S
C967 H954 0.930 . S
C967 C966 1.376 . S
C967 C968 1.388 . S
C968 H955 0.930 . S
C968 C967 1.388 . S
C968 C969 1.390 . S
C969 C968 1.390 . S
C969 C970 1.394 . S
C969 C975 1.465 . S
C970 C965 1.399 . S
C970 C969 1.394 . S
C970 C971 1.516 . S
C971 C970 1.516 . S
C971 C972 1.502 . S
C971 C973 1.561 . S
C971 C974 1.526 . S
C972 H956 0.959 . S
C972 H957 0.959 . S
C972 H958 0.961 . S
C972 C971 1.502 . S
C973 H959 0.960 . S
C973 H960 0.961 . S
C973 H961 0.959 . S
C973 C971 1.561 . S
C974 C971 1.526 . S
C974 C975 1.396 . S
C974 C979 1.390 . S
C975 C969 1.465 . S
C975 C974 1.396 . S
C975 C976 1.399 . S
C976 H962 0.929 . S
C976 C975 1.399 . S
C976 C977 1.385 . S
C977 H963 0.931 . S
C977 C976 1.385 . S
C977 C978 1.389 . S
C978 C977 1.389 . S
C978 C979 1.387 . S
C979 H964 0.930 . S
C979 C974 1.390 . S
C979 C978 1.387 . S
H980 C992 0.930 . S
H981 C994 0.930 . S
H982 C995 0.930 . S
H983 C999 0.959 . S
H984 C999 0.959 . S
H985 C999 0.961 . S
H986 C1000 0.960 . S
H987 C1000 0.961 . S
H988 C1000 0.959 . S
H989 C1003 0.929 . S
H990 C1004 0.931 . S
H991 C1006 0.930 . S
C992 H980 0.930 . S
C992 C993 1.399 . S
C992 C997 1.399 . S
C993 C992 1.399 . S
C993 C994 1.376 . S
C994 H981 0.930 . S
C994 C993 1.376 . S
C994 C995 1.388 . S
C995 H982 0.930 . S
C995 C994 1.388 . S
C995 C996 1.390 . S
C996 C995 1.390 . S
C996 C997 1.394 . S
C996 C1002 1.465 . S
C997 C992 1.399 . S
C997 C996 1.394 . S
C997 C998 1.516 . S
C998 C997 1.516 . S
C998 C999 1.502 . S
C998 C1000 1.561 . S
C998 C1001 1.526 . S
C999 H983 0.959 . S
C999 H984 0.959 . S
C999 H985 0.961 . S
C999 C998 1.502 . S
C1000 H986 0.960 . S
C1000 H987 0.961 . S
C1000 H988 0.959 . S
C1000 C998 1.561 . S
C1001 C998 1.526 . S
C1001 C1002 1.396 . S
C1001 C1006 1.390 . S
C1002 C996 1.465 . S
C1002 C1001 1.396 . S
C1002 C1003 1.399 . S
C1003 H989 0.929 . S
C1003 C1002 1.399 . S
C1003 C1004 1.385 . S
C1004 H990 0.931 . S
C1004 C1003 1.385 . S
C1004 C1005 1.389 . S
C1005 C1004 1.389 . S
C1005 C1006 1.387 . S
C1006 H991 0.930 . S
C1006 C1001 1.390 . S
C1006 C1005 1.387 . S
H1007 C1019 0.930 . S
H1008 C1021 0.930 . S
H1009 C1022 0.930 . S
H1010 C1026 0.959 . S
H1011 C1026 0.959 . S
H1012 C1026 0.961 . S
H1013 C1027 0.960 . S
H1014 C1027 0.961 . S
H1015 C1027 0.959 . S
H1016 C1030 0.929 . S
H1017 C1031 0.931 . S
H1018 C1033 0.930 . S
C1019 H1007 0.930 . S
C1019 C1020 1.399 . S
C1019 C1024 1.399 . S
C1020 C1019 1.399 . S
C1020 C1021 1.376 . S
C1021 H1008 0.930 . S
C1021 C1020 1.376 . S
C1021 C1022 1.388 . S
C1022 H1009 0.930 . S
C1022 C1021 1.388 . S
C1022 C1023 1.390 . S
C1023 C1022 1.390 . S
C1023 C1024 1.394 . S
C1023 C1029 1.465 . S
C1024 C1019 1.399 . S
C1024 C1023 1.394 . S
C1024 C1025 1.516 . S
C1025 C1024 1.516 . S
C1025 C1026 1.502 . S
C1025 C1027 1.561 . S
C1025 C1028 1.526 . S
C1026 H1010 0.959 . S
C1026 H1011 0.959 . S
C1026 H1012 0.961 . S
C1026 C1025 1.502 . S
C1027 H1013 0.960 . S
C1027 H1014 0.961 . S
C1027 H1015 0.959 . S
C1027 C1025 1.561 . S
C1028 C1025 1.526 . S
C1028 C1029 1.396 . S
C1028 C1033 1.390 . S
C1029 C1023 1.465 . S
C1029 C1028 1.396 . S
C1029 C1030 1.399 . S
C1030 H1016 0.929 . S
C1030 C1029 1.399 . S
C1030 C1031 1.385 . S
C1031 H1017 0.931 . S
C1031 C1030 1.385 . S
C1031 C1032 1.389 . S
C1032 C1031 1.389 . S
C1032 C1033 1.387 . S
C1033 H1018 0.930 . S
C1033 C1028 1.390 . S
C1033 C1032 1.387 . S
H1034 C1046 0.930 . S
H1035 C1048 0.930 . S
H1036 C1049 0.930 . S
H1037 C1053 0.959 1_556 S
H1038 C1053 0.959 1_556 S
H1039 C1053 0.961 . S
H1040 C1054 0.960 . S
H1041 C1054 0.961 . S
H1042 C1054 0.959 . S
H1043 C1057 0.929 . S
H1044 C1058 0.931 . S
H1045 C1060 0.930 . S
C1046 H1034 0.930 . S
C1046 C1047 1.399 . S
C1046 C1051 1.399 . S
C1047 C1046 1.399 . S
C1047 C1048 1.376 . S
C1048 H1035 0.930 . S
C1048 C1047 1.376 . S
C1048 C1049 1.388 . S
C1049 H1036 0.930 . S
C1049 C1048 1.388 . S
C1049 C1050 1.390 . S
C1050 C1049 1.390 . S
C1050 C1051 1.394 . S
C1050 C1056 1.465 1_565 S
C1051 C1046 1.399 . S
C1051 C1050 1.394 . S
C1051 C1052 1.516 . S
C1052 C1051 1.516 . S
C1052 C1053 1.502 . S
C1052 C1054 1.561 1_565 S
C1052 C1055 1.526 1_565 S
C1053 H1037 0.959 1_554 S
C1053 H1038 0.959 1_554 S
C1053 H1039 0.961 . S
C1053 C1052 1.502 . S
C1054 H1040 0.960 . S
C1054 H1041 0.961 . S
C1054 H1042 0.959 . S
C1054 C1052 1.561 1_545 S
C1055 C1052 1.526 1_545 S
C1055 C1056 1.396 . S
C1055 C1060 1.390 1_554 S
C1056 C1050 1.465 1_545 S
C1056 C1055 1.396 . S
C1056 C1057 1.399 . S
C1057 H1043 0.929 . S
C1057 C1056 1.399 . S
C1057 C1058 1.385 1_554 S
C1058 H1044 0.931 . S
C1058 C1057 1.385 1_556 S
C1058 C1059 1.389 . S
C1059 C1058 1.389 . S
C1059 C1060 1.387 . S
C1060 H1045 0.930 . S
C1060 C1055 1.390 1_556 S
C1060 C1059 1.387 . S
H1061 C1073 0.930 . S
H1062 C1075 0.930 . S
H1063 C1076 0.902 1_565 S
H1064 C1080 0.959 . S
H1065 C1080 0.959 . S
H1066 C1080 0.961 . S
H1067 C1081 0.960 . S
H1068 C1081 0.961 . S
H1069 C1081 0.959 . S
H1070 C1084 0.929 . S
H1071 C1085 0.931 . S
H1072 C1087 0.930 . S
C1073 H1061 0.930 . S
C1073 C1074 1.399 . S
C1073 C1078 1.399 . S
C1074 C1073 1.399 . S
C1074 C1075 1.376 . S
C1075 H1062 0.930 . S
C1075 C1074 1.376 . S
C1075 C1076 1.415 . S
C1076 H1063 0.902 1_545 S
C1076 C1075 1.415 . S
C1076 C1077 1.392 . S
C1077 C1076 1.392 . S
C1077 C1078 1.394 . S
C1077 C1083 1.465 1_545 S
C1078 C1073 1.399 . S
C1078 C1077 1.394 . S
C1078 C1079 1.516 . S
C1079 C1078 1.516 . S
C1079 C1080 1.502 . S
C1079 C1081 1.561 . S
C1079 C1082 1.526 1_545 S
C1080 H1064 0.959 . S
C1080 H1065 0.959 . S
C1080 H1066 0.961 . S
C1080 C1079 1.502 . S
C1081 H1067 0.960 . S
C1081 H1068 0.961 . S
C1081 H1069 0.959 . S
C1081 C1079 1.561 . S
C1082 C1079 1.526 1_565 S
C1082 C1083 1.396 . S
C1082 C1087 1.390 . S
C1083 C1077 1.465 1_565 S
C1083 C1082 1.396 . S
C1083 C1084 1.399 . S
C1084 H1070 0.929 . S
C1084 C1083 1.399 . S
C1084 C1085 1.385 . S
C1085 H1071 0.931 . S
C1085 C1084 1.385 . S
C1085 C1086 1.389 . S
C1086 C1085 1.389 . S
C1086 C1087 1.387 . S
C1087 H1072 0.930 . S
C1087 C1082 1.390 . S
C1087 C1086 1.387 . S
C237 C135 1.309 . S
C249 C9 1.322 . S
C264 C205 1.351 . S
C276 C23 1.339 . S
C291 C37 1.299 . S
C303 C121 1.305 . S
C318 C51 1.352 . S
C330 C219 1.340 . S
C345 C65 1.354 . S
C357 C149 1.343 . S
C372 C191 1.323 . S
C384 C79 1.337 . S
C399 C163 1.311 . S
C411 C93 1.324 . S
C426 C107 1.308 . S
C438 C177 1.320 . S
C453 C63 1.608 . S
C465 C49 1.672 . S
C480 C175 1.586 . S
C492 C119 1.678 . S
C507 C91 1.667 . S
C519 C21 1.586 . S
C534 C133 1.668 . S
C546 C189 1.586 . S
C561 C7 1.676 . S
C573 C77 1.585 . S
C588 C217 1.584 . S
C600 C147 1.676 . S
C615 C105 1.620 . S
C627 C35 1.618 . S
C642 C161 1.660 . S
C654 C203 1.589 . S
C669 C8 1.244 . S
C681 C64 1.201 . S
C696 C78 1.203 . S
C708 C22 1.230 . S
C723 C92 1.215 . S
C735 C36 1.243 . S
C750 C50 1.244 . S
C762 C106 1.215 . S
C777 C148 1.246 . S
C789 C120 1.209 . S
C804 C162 1.244 . S
C816 C134 1.211 . S
C831 C204 1.224 . S
C843 C176 1.236 . S
C858 C218 1.229 . S
C870 C190 1.232 . S
C885 C62 1.530 . S
C897 C6 1.527 . S
C912 C76 1.563 . S
C924 C20 1.566 . S
C939 C90 1.511 . S
C951 C34 1.513 . S
C966 C48 1.548 . S
C978 C104 1.544 . S
C993 C118 1.518 . S
C1005 C146 1.516 . S
C1020 C160 1.521 . S
C1032 C132 1.519 . S
C1047 C202 1.514 . S
C1059 C174 1.513 . S
C1074 C216 1.571 . S
C1086 C188 1.568 . S
