# Generated by pormake.
# Topology wnd, (6)-cn, num edge types: 1
# Building blocks:
#     Node 0, Type 0, BuildingBlock: JUFBIX_clean_sbu_0, # of connection points: 6
#     Node 1, Type 0, BuildingBlock: JUFBIX_clean_sbu_0, # of connection points: 6
#     Node 2, Type 0, BuildingBlock: JUFBIX_clean_sbu_0, # of connection points: 6
#     Node 3, Type 0, BuildingBlock: JUFBIX_clean_sbu_0, # of connection points: 6
#     Node 4, Type 0, BuildingBlock: JUFBIX_clean_sbu_0, # of connection points: 6
#     Node 5, Type 0, BuildingBlock: JUFBIX_clean_sbu_0, # of connection points: 6
#     Node 6, Type 0, BuildingBlock: JUFBIX_clean_sbu_0, # of connection points: 6
#     Node 7, Type 0, BuildingBlock: JUFBIX_clean_sbu_0, # of connection points: 6
#     Node 8, Type 0, BuildingBlock: JUFBIX_clean_sbu_0, # of connection points: 6
#     Node 9, Type 0, BuildingBlock: JUFBIX_clean_sbu_0, # of connection points: 6
#     Node 10, Type 0, BuildingBlock: JUFBIX_clean_sbu_0, # of connection points: 6
#     Node 11, Type 0, BuildingBlock: JUFBIX_clean_sbu_0, # of connection points: 6
#     Node 12, Type 0, BuildingBlock: JUFBIX_clean_sbu_0, # of connection points: 6
#     Node 13, Type 0, BuildingBlock: JUFBIX_clean_sbu_0, # of connection points: 6
#     Node 14, Type 0, BuildingBlock: JUFBIX_clean_sbu_0, # of connection points: 6
#     Node 15, Type 0, BuildingBlock: JUFBIX_clean_sbu_0, # of connection points: 6
#     Node 16, Type 0, BuildingBlock: JUFBIX_clean_sbu_0, # of connection points: 6
#     Node 17, Type 0, BuildingBlock: JUFBIX_clean_sbu_0, # of connection points: 6
#     Node 18, Type 0, BuildingBlock: JUFBIX_clean_sbu_0, # of connection points: 6
#     Node 19, Type 0, BuildingBlock: JUFBIX_clean_sbu_0, # of connection points: 6
#     Node 20, Type 0, BuildingBlock: JUFBIX_clean_sbu_0, # of connection points: 6
#     Node 21, Type 0, BuildingBlock: JUFBIX_clean_sbu_0, # of connection points: 6
#     Node 22, Type 0, BuildingBlock: JUFBIX_clean_sbu_0, # of connection points: 6
#     Node 23, Type 0, BuildingBlock: JUFBIX_clean_sbu_0, # of connection points: 6
#     Node 24, Type 0, BuildingBlock: JUFBIX_clean_sbu_0, # of connection points: 6
#     Node 25, Type 0, BuildingBlock: JUFBIX_clean_sbu_0, # of connection points: 6
#     Node 26, Type 0, BuildingBlock: JUFBIX_clean_sbu_0, # of connection points: 6
#     Node 27, Type 0, BuildingBlock: JUFBIX_clean_sbu_0, # of connection points: 6
#     Node 28, Type 0, BuildingBlock: JUFBIX_clean_sbu_0, # of connection points: 6
#     Node 29, Type 0, BuildingBlock: JUFBIX_clean_sbu_0, # of connection points: 6
#     Node 30, Type 0, BuildingBlock: JUFBIX_clean_sbu_0, # of connection points: 6
#     Node 31, Type 0, BuildingBlock: JUFBIX_clean_sbu_0, # of connection points: 6
#     Node 32, Type 0, BuildingBlock: JUFBIX_clean_sbu_0, # of connection points: 6
#     Node 33, Type 0, BuildingBlock: JUFBIX_clean_sbu_0, # of connection points: 6
#     Node 34, Type 0, BuildingBlock: JUFBIX_clean_sbu_0, # of connection points: 6
#     Node 35, Type 0, BuildingBlock: JUFBIX_clean_sbu_0, # of connection points: 6
#     Edge 36, Type (0, 0), None
#     Edge 37, Type (0, 0), None
#     Edge 38, Type (0, 0), None
#     Edge 39, Type (0, 0), None
#     Edge 40, Type (0, 0), None
#     Edge 41, Type (0, 0), None
#     Edge 42, Type (0, 0), None
#     Edge 43, Type (0, 0), None
#     Edge 44, Type (0, 0), None
#     Edge 45, Type (0, 0), None
#     Edge 46, Type (0, 0), None
#     Edge 47, Type (0, 0), None
#     Edge 48, Type (0, 0), None
#     Edge 49, Type (0, 0), None
#     Edge 50, Type (0, 0), None
#     Edge 51, Type (0, 0), None
#     Edge 52, Type (0, 0), None
#     Edge 53, Type (0, 0), None
#     Edge 54, Type (0, 0), None
#     Edge 55, Type (0, 0), None
#     Edge 56, Type (0, 0), None
#     Edge 57, Type (0, 0), None
#     Edge 58, Type (0, 0), None
#     Edge 59, Type (0, 0), None
#     Edge 60, Type (0, 0), None
#     Edge 61, Type (0, 0), None
#     Edge 62, Type (0, 0), None
#     Edge 63, Type (0, 0), None
#     Edge 64, Type (0, 0), None
#     Edge 65, Type (0, 0), None
#     Edge 66, Type (0, 0), None
#     Edge 67, Type (0, 0), None
#     Edge 68, Type (0, 0), None
#     Edge 69, Type (0, 0), None
#     Edge 70, Type (0, 0), None
#     Edge 71, Type (0, 0), None
#     Edge 72, Type (0, 0), None
#     Edge 73, Type (0, 0), None
#     Edge 74, Type (0, 0), None
#     Edge 75, Type (0, 0), None
#     Edge 76, Type (0, 0), None
#     Edge 77, Type (0, 0), None
#     Edge 78, Type (0, 0), None
#     Edge 79, Type (0, 0), None
#     Edge 80, Type (0, 0), None
#     Edge 81, Type (0, 0), None
#     Edge 82, Type (0, 0), None
#     Edge 83, Type (0, 0), None
#     Edge 84, Type (0, 0), None
#     Edge 85, Type (0, 0), None
#     Edge 86, Type (0, 0), None
#     Edge 87, Type (0, 0), None
#     Edge 88, Type (0, 0), None
#     Edge 89, Type (0, 0), None
#     Edge 90, Type (0, 0), None
#     Edge 91, Type (0, 0), None
#     Edge 92, Type (0, 0), None
#     Edge 93, Type (0, 0), None
#     Edge 94, Type (0, 0), None
#     Edge 95, Type (0, 0), None
#     Edge 96, Type (0, 0), None
#     Edge 97, Type (0, 0), None
#     Edge 98, Type (0, 0), None
#     Edge 99, Type (0, 0), None
#     Edge 100, Type (0, 0), None
#     Edge 101, Type (0, 0), None
#     Edge 102, Type (0, 0), None
#     Edge 103, Type (0, 0), None
#     Edge 104, Type (0, 0), None
#     Edge 105, Type (0, 0), None
#     Edge 106, Type (0, 0), None
#     Edge 107, Type (0, 0), None
#     Edge 108, Type (0, 0), None
#     Edge 109, Type (0, 0), None
#     Edge 110, Type (0, 0), None
#     Edge 111, Type (0, 0), None
#     Edge 112, Type (0, 0), None
#     Edge 113, Type (0, 0), None
#     Edge 114, Type (0, 0), None
#     Edge 115, Type (0, 0), None
#     Edge 116, Type (0, 0), None
#     Edge 117, Type (0, 0), None
#     Edge 118, Type (0, 0), None
#     Edge 119, Type (0, 0), None
#     Edge 120, Type (0, 0), None
#     Edge 121, Type (0, 0), None
#     Edge 122, Type (0, 0), None
#     Edge 123, Type (0, 0), None
#     Edge 124, Type (0, 0), None
#     Edge 125, Type (0, 0), None
#     Edge 126, Type (0, 0), None
#     Edge 127, Type (0, 0), None
#     Edge 128, Type (0, 0), None
#     Edge 129, Type (0, 0), None
#     Edge 130, Type (0, 0), None
#     Edge 131, Type (0, 0), None
#     Edge 132, Type (0, 0), None
#     Edge 133, Type (0, 0), None
#     Edge 134, Type (0, 0), None
#     Edge 135, Type (0, 0), None
#     Edge 136, Type (0, 0), None
#     Edge 137, Type (0, 0), None
#     Edge 138, Type (0, 0), None
#     Edge 139, Type (0, 0), None
#     Edge 140, Type (0, 0), None
#     Edge 141, Type (0, 0), None
#     Edge 142, Type (0, 0), None
#     Edge 143, Type (0, 0), None
# Relax obj value: 0.361
# Max RMSD: 0.255
# Mean RMSD: 0.255
data_MOF--net-wnd--node1-JUFBIX_clean_sbu_0--edge1-none
_symmetry_space_group_name_H-M    P1
_symmetry_Int_Tables_number       1
_symmetry_cell_setting            triclinic
loop_
_symmetry_equiv_pos_as_xyz
'x, y, z'
_cell_length_a     16.72089
_cell_length_b     16.720017
_cell_length_c     71.344927
_cell_angle_alpha  89.999253
_cell_angle_beta   89.997784
_cell_angle_gamma 119.999
loop_
_atom_site_label
_atom_site_type_symbol
_atom_site_fract_x
_atom_site_fract_y
_atom_site_fract_z
_atom_type_partial_charge
Co0 Co 0.50253 0.11671 0.05001 0.0
C1 C 0.55868 0.05393 0.02267 0.0
Co2 Co 0.56131 0.03832 0.06242 0.0
C3 C 0.49226 0.28003 0.05151 0.0
C4 C 0.51413 0.24652 0.02406 0.0
N5 N 0.47225 0.20567 0.04048 0.0
N6 N 0.55941 0.36015 0.04425 0.0
C7 C 0.57137 0.33988 0.02667 0.0
H8 H 0.4673 0.27481 0.06572 0.0
H9 H 0.51681 0.21047 1.01173 0.0
C10 C 0.50437 0.12566 0.08888 0.0
N11 N 0.61762 0.96293 0.06903 0.0
C12 C 0.59212 0.87533 0.06313 0.0
C13 C 0.70822 0.99776 0.07335 0.0
N14 N 0.66314 0.8566 0.06305 0.0
C15 C 0.73617 0.93428 0.06944 0.0
C16 C 0.6976 0.20491 0.05243 0.0
O17 O 0.50709 0.16358 0.07368 0.0
O18 O 0.52463 0.05984 0.08875 0.0
O19 O 0.67934 0.14469 0.06487 0.0
O20 O 0.6308 0.20873 0.04492 0.0
O21 O 0.59251 1.02969 0.03617 0.0
H22 H 0.75421 0.06734 0.07813 0.0
H23 H 0.52432 0.82832 0.05751 0.0
O24 O 0.49631 0.0728 0.02609 0.0
O25 O 0.37454 1.01267 0.05546 0.0
O26 O 0.44274 0.92998 0.05994 0.0
C27 C 0.36854 0.93351 0.05893 0.0
H28 H 0.61908 0.38859 0.01652 0.0
H29 H 0.80473 0.94424 0.07152 0.0
Co30 Co 1.02594 0.43396 0.05001 0.0
C31 C 0.08873 0.5529 0.02267 0.0
Co32 Co 0.10432 0.57113 0.06242 0.0
C33 C 0.86262 0.26035 0.05151 0.0
C34 C 0.89615 0.31574 0.02406 0.0
N35 N 0.93698 0.31471 0.04049 0.0
N36 N 0.78249 0.24732 0.04425 0.0
C37 C 0.80278 0.2796 0.02666 0.0
H38 H 0.86783 0.24064 0.06572 0.0
H39 H 0.9322 0.3545 1.01173 0.0
C40 C 1.01697 0.42683 0.08888 0.0
N41 N 0.17969 0.70283 0.06903 0.0
C42 C 0.26731 0.76493 0.06314 0.0
C43 C 0.14486 0.75861 0.07333 0.0
N44 N 0.28605 0.85469 0.06306 0.0
C45 C 0.20835 0.85005 0.06943 0.0
C46 C 0.93774 0.54083 0.05243 0.0
O47 O 0.97906 0.39164 0.07368 0.0
O48 O 0.08279 0.51292 0.08875 0.0
O49 O 0.99794 0.58278 0.06487 0.0
O50 O 0.93392 0.4702 0.04492 0.0
O51 O 0.11296 0.61096 0.03617 0.0
H52 H 0.07525 0.73503 0.07811 0.0
H53 H 0.31433 0.74414 0.05752 0.0
O54 O 0.06985 0.47165 0.02609 0.0
O55 O 0.12998 0.41 0.05546 0.0
O56 O 0.21266 0.5609 0.05994 0.0
C57 C 0.20913 0.48317 0.05893 0.0
H58 H 0.75408 0.27861 0.01652 0.0
H59 H 0.19837 0.90865 0.0715 0.0
Co60 Co 0.70869 0.64011 0.05001 0.0
C61 C 0.58977 0.58397 0.02267 0.0
Co62 Co 0.57151 0.58132 0.06242 0.0
C63 C 0.88229 0.6504 0.05151 0.0
C64 C 0.82692 0.62855 0.02406 0.0
N65 N 0.82794 0.67041 0.04049 0.0
N66 N 0.89533 0.58331 0.04425 0.0
C67 C 0.86307 0.57133 0.02666 0.0
H68 H 0.90199 0.67532 0.06572 0.0
H69 H 0.78818 0.62586 1.01173 0.0
C70 C 0.71579 0.63825 0.08889 0.0
N71 N 0.4398 0.52499 0.06903 0.0
C72 C 0.37771 0.55052 0.06314 0.0
C73 C 0.38402 0.43437 0.07333 0.0
N74 N 0.28795 0.4795 0.06306 0.0
C75 C 0.2926 0.40643 0.06943 0.0
C76 C 0.60183 0.44505 0.05243 0.0
O77 O 0.751 0.63556 0.07368 0.0
O78 O 0.6297 0.61798 0.08875 0.0
O79 O 0.55986 0.46329 0.06486 0.0
O80 O 0.67247 0.51185 0.04493 0.0
O81 O 0.53169 0.55013 0.03617 0.0
H82 H 0.40761 0.38835 0.0781 0.0
H83 H 0.3985 0.61833 0.05752 0.0
O84 O 0.67101 0.64634 0.02609 0.0
O85 O 0.73264 0.76811 0.05546 0.0
O86 O 0.58174 0.6999 0.05994 0.0
C87 C 0.65947 0.7741 0.05893 0.0
H88 H 0.86407 0.52363 0.01652 0.0
H89 H 0.234 0.33786 0.0715 0.0
Co90 Co 1.03303 0.45661 0.47194 0.0
C91 C 0.13718 0.49179 0.43858 0.0
Co92 Co 0.13086 0.59626 0.46692 0.0
C93 C 0.84594 0.30666 0.47153 0.0
C94 C 0.94238 0.26934 0.46077 0.0
N95 N 0.93747 0.33395 0.47122 0.0
N96 N 0.79507 0.23109 0.46088 0.0
C97 C 0.85596 0.20772 0.45413 0.0
H98 H 0.81744 0.34403 0.47864 0.0
H99 H 1.006 0.27286 0.45638 0.0
C100 C 0.06586 0.55119 0.50337 0.0
N101 N 0.20154 0.72284 0.46744 0.0
C102 C 0.28934 0.77752 0.47267 0.0
C103 C 0.16266 0.77683 0.46983 0.0
N104 N 0.30539 0.86236 0.47756 0.0
C105 C 0.22631 0.86259 0.4756 0.0
C106 C 0.96276 0.56948 0.45942 0.0
O107 O 1.02164 0.46755 0.49808 0.0
O108 O 0.09277 0.61398 0.49107 0.0
O109 O 1.0441 0.61474 0.45364 0.0
O110 O 0.93967 0.49366 0.46747 0.0
O111 O 0.17971 0.57677 0.44362 0.0
H112 H 0.09046 0.75366 0.46993 0.0
H113 H 0.34008 0.7554 0.47314 0.0
O114 O 0.05653 0.4411 0.44549 0.0
O115 O 0.12535 0.42884 0.47731 0.0
O116 O 0.21724 0.58033 0.47891 0.0
C117 C 0.2056 0.49955 0.4796 0.0
H118 H 0.83935 0.15013 0.4449 0.0
H119 H 0.21531 0.91999 0.47849 0.0
Co120 Co 0.68602 0.62456 0.47194 0.0
C121 C 0.65083 0.69353 0.43858 0.0
Co122 Co 0.5464 0.58275 0.46692 0.0
C123 C 0.83599 0.58747 0.47154 0.0
C124 C 0.87325 0.72119 0.46076 0.0
N125 N 0.80867 0.65169 0.47122 0.0
N126 N 0.91161 0.61222 0.4609 0.0
C127 C 0.93491 0.69643 0.45413 0.0
H128 H 0.79862 0.52159 0.47865 0.0
H129 H 0.86969 0.78127 0.45636 0.0
C130 C 0.59147 0.56282 0.50337 0.0
N131 N 0.41984 0.52681 0.46745 0.0
C132 C 0.36509 0.55994 0.47262 0.0
C133 C 0.3659 0.43395 0.46987 0.0
N134 N 0.28024 0.49113 0.4775 0.0
C135 C 0.28008 0.41183 0.4756 0.0
C136 C 0.57317 0.44142 0.45942 0.0
O137 O 0.67511 0.60225 0.49808 0.0
O138 O 0.5287 0.52694 0.49108 0.0
O139 O 0.52792 0.47751 0.45364 0.0
O140 O 0.64899 0.49415 0.46747 0.0
O141 O 0.56586 0.6511 0.44362 0.0
H142 H 0.38915 0.38498 0.47002 0.0
H143 H 0.38716 0.63279 0.47307 0.0
O144 O 0.70151 0.66355 0.44549 0.0
O145 O 0.71377 0.74463 0.47731 0.0
O146 O 0.56229 0.68504 0.47892 0.0
C147 C 0.64306 0.75418 0.4796 0.0
H148 H 0.99245 0.73737 0.44489 0.0
H149 H 0.22271 0.34344 0.47852 0.0
Co150 Co 0.51804 0.10959 0.47194 0.0
C151 C 0.44906 1.00542 0.43859 0.0
Co152 Co 0.55987 1.01177 0.46692 0.0
C153 C 0.55514 0.29665 0.47155 0.0
C154 C 0.42141 0.20021 0.46078 0.0
N155 N 0.49091 0.20512 0.47123 0.0
N156 N 0.5304 0.34753 0.46091 0.0
C157 C 0.44618 0.28664 0.45414 0.0
H158 H 0.62102 0.32515 0.47865 0.0
H159 H 0.36132 0.13658 0.45638 0.0
C160 C 0.57983 0.0768 0.50337 0.0
N161 N 0.61581 0.94115 0.46744 0.0
C162 C 0.58269 0.85329 0.47263 0.0
C163 C 0.70867 0.98007 0.46986 0.0
N164 N 0.65149 0.83724 0.47751 0.0
C165 C 0.73078 0.91637 0.47559 0.0
C166 C 0.70118 0.17989 0.45942 0.0
O167 O 0.5404 0.12101 0.49808 0.0
O168 O 0.61569 0.04988 0.49108 0.0
O169 O 0.66511 0.09854 0.45364 0.0
O170 O 0.64845 0.20299 0.46747 0.0
O171 O 0.49151 0.96289 0.44363 0.0
H172 H 0.75765 0.05229 0.47 0.0
H173 H 0.50983 0.80252 0.47308 0.0
O174 O 0.47902 0.08608 0.44549 0.0
O175 O 0.39798 1.01726 0.47732 0.0
O176 O 0.45759 0.92537 0.47893 0.0
C177 C 0.38847 0.93701 0.47963 0.0
H178 H 0.40523 0.30325 0.44491 0.0
H179 H 0.79917 0.92738 0.47851 0.0
Co180 Co 0.59682 0.08889 0.9641 0.0
C181 C 0.65377 1.00155 0.93764 0.0
Co182 Co 0.6556 1.0105 0.97651 0.0
C183 C 0.56601 0.25188 0.96339 0.0
C184 C 0.44991 0.12945 0.95317 0.0
N185 N 0.54051 0.16428 0.95749 0.0
N186 N 0.49499 0.2706 0.96347 0.0
C187 C 0.42196 0.19293 0.95708 0.0
H188 H 0.63381 0.29889 0.96901 0.0
H189 H 0.40392 0.05986 0.94839 0.0
C190 C 0.59944 0.07328 1.00385 0.0
N191 N 0.68588 0.92153 0.98604 0.0
C192 C 0.66586 0.84717 0.97501 0.0
C193 C 0.644 0.88069 1.00246 0.0
N194 N 0.59872 0.76705 0.98227 0.0
C195 C 0.58675 0.78733 0.99985 0.0
C196 C 0.78958 0.1937 0.9676 0.0
O197 O 0.56561 0.09752 0.99035 0.0
O198 O 0.66182 0.0544 1.00043 0.0
O199 O 0.78359 0.11453 0.97106 0.0
O200 O 0.71539 0.19723 0.96658 0.0
O201 O 0.65104 0.96363 0.95284 0.0
H202 H 0.64131 0.91674 0.01479 0.0
H203 H 0.69083 0.8524 0.96081 0.0
O204 O 0.6335 0.06737 0.93777 0.0
O205 O 0.4788 0.98252 0.96166 0.0
O206 O 0.52733 0.91847 0.9816 0.0
C207 C 0.46053 0.9223 0.9741 0.0
H208 H 0.3534 0.18297 0.955 0.0
H209 H 0.53904 0.73862 1.01 0.0
Co210 Co 0.05381 0.55608 0.9641 0.0
C211 C 0.14116 0.70037 0.93764 0.0
Co212 Co 0.13219 0.69325 0.97651 0.0
C213 C 0.89082 0.36228 0.96338 0.0
C214 C 1.01327 0.36859 0.95319 0.0
N215 N 0.97843 0.42437 0.95749 0.0
N216 N 0.87208 0.27252 0.96346 0.0
C217 C 0.94978 0.27716 0.95709 0.0
H218 H 0.8438 0.38307 0.969 0.0
H219 H 0.08287 0.39218 0.94841 0.0
C220 C 0.0694 0.57431 1.00385 0.0
N221 N 0.22115 0.8125 0.98603 0.0
C222 C 0.29551 0.86686 0.97501 0.0
C223 C 0.26198 0.81146 1.00246 0.0
N224 N 0.37564 0.87989 0.98227 0.0
C225 C 0.35535 0.84761 0.99986 0.0
C226 C 0.949 0.64404 0.96759 0.0
O227 O 1.04517 0.51624 0.99035 0.0
O228 O 0.08828 0.65556 1.00043 0.0
O229 O 1.02815 0.71721 0.97106 0.0
O230 O 0.94547 0.56631 0.96658 0.0
O231 O 0.17907 0.73557 0.95284 0.0
H232 H 0.22593 0.77271 0.01479 0.0
H233 H 0.2903 0.88656 0.9608 0.0
O234 O 0.07534 0.61429 0.93777 0.0
O235 O 0.16018 0.54443 0.96165 0.0
O236 O 0.22421 0.65701 0.98159 0.0
C237 C 0.22039 0.58638 0.97409 0.0
H238 H 0.95976 0.21856 0.95502 0.0
H239 H 0.40404 0.8486 1.01 0.0
Co240 Co 0.58662 0.54589 0.9641 0.0
C241 C 0.44234 0.48895 0.93763 0.0
Co242 Co 0.44944 0.48709 0.97651 0.0
C243 C 0.78042 0.57669 0.96338 0.0
C244 C 0.7741 0.69284 0.95319 0.0
N245 N 0.71833 0.60222 0.95749 0.0
N246 N 0.87017 0.64771 0.96346 0.0
C247 C 0.86553 0.72078 0.95709 0.0
H248 H 0.75963 0.50888 0.969 0.0
H249 H 0.75052 0.73886 0.94842 0.0
C250 C 0.56836 0.54324 1.00385 0.0
N251 N 0.33019 0.4568 0.98603 0.0
C252 C 0.27584 0.4768 0.97501 0.0
C253 C 0.33121 0.49865 1.00246 0.0
N254 N 0.26279 0.54389 0.98227 0.0
C255 C 0.29506 0.55587 0.99986 0.0
C256 C 0.49866 0.35311 0.9676 0.0
O257 O 0.62644 0.57708 0.99035 0.0
O258 O 0.48711 0.48087 1.00043 0.0
O259 O 0.42549 0.3591 0.97106 0.0
O260 O 0.57639 0.42731 0.96658 0.0
O261 O 0.40713 0.49165 0.95284 0.0
H262 H 0.36995 0.50135 0.01479 0.0
H263 H 0.25614 0.45188 0.9608 0.0
O264 O 0.52843 0.50922 0.93777 0.0
O265 O 0.59827 0.66392 0.96166 0.0
O266 O 0.48565 0.61535 0.98159 0.0
C267 C 0.55629 0.68215 0.97409 0.0
H268 H 0.92413 0.78935 0.95502 0.0
H269 H 0.29406 0.60358 1.01 0.0
Co270 Co 1.02725 0.53095 0.5596 0.0
C271 C 0.09225 0.57602 0.52315 0.0
Co272 Co 0.12509 0.6706 0.55458 0.0
C273 C 0.86878 0.34969 0.55385 0.0
C274 C 0.99547 0.35039 0.55669 0.0
N275 N 0.95659 0.40437 0.55908 0.0
N276 N 0.85273 0.26485 0.54896 0.0
C277 C 0.93181 0.26462 0.55092 0.0
H278 H 0.81803 0.37181 0.55339 0.0
H279 H 0.06766 0.37355 0.55659 0.0
C280 C 1.02094 0.63541 0.58794 0.0
N281 N 0.22065 0.79326 0.55529 0.0
C282 C 0.31218 0.82055 0.55499 0.0
C283 C 0.21574 0.85786 0.56575 0.0
N284 N 0.36305 0.89612 0.56564 0.0
C285 C 0.30216 0.91949 0.57239 0.0
C286 C 0.95251 0.62766 0.54692 0.0
O287 O 0.9784 0.55044 0.5829 0.0
O288 O 0.10159 0.6861 0.58103 0.0
O289 O 1.03277 0.69837 0.54921 0.0
O290 O 0.94088 0.54688 0.54761 0.0
O291 O 0.13647 0.65966 0.52844 0.0
H292 H 0.15211 0.85435 0.57014 0.0
H293 H 0.34068 0.78318 0.54788 0.0
O294 O 0.06534 0.51323 0.53544 0.0
O295 O 0.11402 0.51247 0.57288 0.0
O296 O 0.21845 0.63355 0.55905 0.0
C297 C 0.19536 0.55773 0.5671 0.0
H298 H 0.94281 0.20722 0.54803 0.0
H299 H 0.31877 0.97707 0.58162 0.0
Co300 Co 0.61172 0.54445 0.5596 0.0
C301 C 0.56664 0.56438 0.52315 0.0
Co302 Co 0.4721 0.50264 0.55458 0.0
C303 C 0.79303 0.56727 0.5539 0.0
C304 C 0.79222 0.69325 0.55665 0.0
N305 N 0.73828 0.6004 0.55907 0.0
N306 N 0.87788 0.63608 0.54902 0.0
C307 C 0.87804 0.71538 0.55092 0.0
H308 H 0.77096 0.49442 0.55345 0.0
H309 H 0.76897 0.74223 0.5565 0.0
C310 C 0.5073 0.43368 0.58794 0.0
N311 N 0.34945 0.47552 0.5553 0.0
C312 C 0.32213 0.53973 0.55498 0.0
C313 C 0.28487 0.40601 0.56576 0.0
N314 N 0.24651 0.51499 0.56562 0.0
C315 C 0.22321 0.43078 0.57239 0.0
C316 C 0.51506 0.37302 0.54692 0.0
O317 O 0.59226 0.47611 0.5829 0.0
O318 O 0.45661 0.46366 0.58103 0.0
O319 O 0.44435 0.38257 0.54921 0.0
O320 O 0.59583 0.44217 0.5476 0.0
O321 O 0.48301 0.52496 0.52844 0.0
H322 H 0.28843 0.34594 0.57016 0.0
H323 H 0.3595 0.60561 0.54787 0.0
O324 O 0.62942 0.60027 0.53544 0.0
O325 O 0.6302 0.6497 0.57288 0.0
O326 O 0.50913 0.63306 0.55905 0.0
C327 C 0.58495 0.68579 0.5671 0.0
H328 H 0.93541 0.78376 0.548 0.0
H329 H 0.16567 0.38983 0.58163 0.0
Co330 Co 0.59825 0.11544 0.5596 0.0
C331 C 0.57829 0.05042 0.52315 0.0
Co332 Co 0.64007 1.01762 0.55458 0.0
C333 C 0.57543 0.27392 0.55389 0.0
C334 C 0.44945 0.14714 0.55666 0.0
N335 N 0.54231 0.18606 0.55908 0.0
N336 N 0.50663 0.28997 0.54902 0.0
C337 C 0.42734 0.21084 0.55093 0.0
H338 H 0.64829 0.32469 0.55344 0.0
H339 H 0.40047 0.07492 0.55652 0.0
C340 C 0.70905 0.12179 0.58794 0.0
N341 N 0.66721 0.92209 0.55529 0.0
C342 C 0.60298 0.83056 0.55497 0.0
C343 C 0.73671 0.927 0.56574 0.0
N344 N 0.62772 0.77968 0.56561 0.0
C345 C 0.71194 0.84057 0.57238 0.0
C346 C 0.76965 0.1902 0.54689 0.0
O347 O 0.66661 0.16431 0.58289 0.0
O348 O 0.6791 0.04113 0.58103 0.0
O349 O 0.76013 0.10995 0.5492 0.0
O350 O 0.70052 0.20184 0.54759 0.0
O351 O 0.61772 1.00621 0.52844 0.0
H352 H 0.7968 0.99063 0.57014 0.0
H353 H 0.5371 0.80206 0.54787 0.0
O354 O 0.54242 0.07733 0.53545 0.0
O355 O 0.49301 1.02867 0.57288 0.0
O356 O 0.50967 0.92422 0.55905 0.0
C357 C 0.45694 0.94732 0.5671 0.0
H358 H 0.35895 0.19983 0.54801 0.0
H359 H 0.75289 0.82396 0.58161 0.0
Co360 Co 0.1692 0.45004 0.38334 0.0
C361 C 0.22536 0.38727 0.356 0.0
Co362 Co 0.22798 0.37165 0.39575 0.0
C363 C 0.15893 0.61337 0.38484 0.0
C364 C 0.18081 0.57986 0.35739 0.0
N365 N 0.13892 0.53901 0.37382 0.0
N366 N 0.22608 0.69349 0.37759 0.0
C367 C 0.23805 0.67322 0.36 0.0
H368 H 0.13397 0.60814 0.39905 0.0
H369 H 0.18349 0.54381 0.34506 0.0
C370 C 0.17101 0.45898 0.42222 0.0
N371 N 0.28428 0.29626 0.40237 0.0
C372 C 0.25878 0.20866 0.39646 0.0
C373 C 0.37488 0.33109 0.40668 0.0
N374 N 0.3298 0.18993 0.39638 0.0
C375 C 0.40283 0.26761 0.40277 0.0
C376 C 0.36427 0.53825 0.38576 0.0
O377 O 0.17374 0.4969 0.40701 0.0
O378 O 0.19129 0.39317 0.42208 0.0
O379 O 0.346 0.47802 0.3982 0.0
O380 O 0.29747 0.54207 0.37826 0.0
O381 O 0.25919 0.36303 0.36951 0.0
H382 H 0.42087 0.40067 0.41147 0.0
H383 H 0.19098 0.16165 0.39084 0.0
O384 O 0.163 0.40615 0.35942 0.0
O385 O 1.0412 0.34601 0.38879 0.0
O386 O 0.10941 0.26331 0.39327 0.0
C387 C 1.03521 0.26685 0.39226 0.0
H388 H 0.28577 0.72193 0.34985 0.0
H389 H 0.47139 0.27757 0.40485 0.0
Co390 Co 0.6926 0.76729 0.38334 0.0
C391 C 0.7554 0.88623 0.356 0.0
Co392 Co 0.77098 0.90446 0.39575 0.0
C393 C 0.52928 0.59369 0.38484 0.0
C394 C 0.56281 0.64908 0.35739 0.0
N395 N 0.60364 0.64805 0.37382 0.0
N396 N 0.44915 0.58065 0.37758 0.0
C397 C 0.46944 0.61293 0.36 0.0
H398 H 0.5345 0.57398 0.39905 0.0
H399 H 0.59886 0.68783 0.34506 0.0
C400 C 0.68365 0.76018 0.42222 0.0
N401 N 0.84636 0.03617 0.40236 0.0
C402 C 0.93398 0.09826 0.39647 0.0
C403 C 0.81152 0.09195 0.40667 0.0
N404 N 0.95272 0.18802 0.39639 0.0
C405 C 0.87501 0.18338 0.40276 0.0
C406 C 0.6044 0.87417 0.38576 0.0
O407 O 0.64573 0.72498 0.40701 0.0
O408 O 0.74945 0.84627 0.42208 0.0
O409 O 0.66461 0.91612 0.3982 0.0
O410 O 0.60058 0.80354 0.37826 0.0
O411 O 0.77962 0.9443 0.36951 0.0
H412 H 0.74192 0.06837 0.41144 0.0
H413 H 0.981 0.07747 0.39086 0.0
O414 O 0.73651 0.80498 0.35942 0.0
O415 O 0.79664 0.74333 0.38879 0.0
O416 O 0.87932 0.89423 0.39327 0.0
C417 C 0.87579 0.8165 0.39226 0.0
H418 H 0.42075 0.61195 0.34985 0.0
H419 H 0.86504 0.24199 0.40483 0.0
Co420 Co 0.37536 0.97345 0.38335 0.0
C421 C 0.25644 0.9173 0.356 0.0
Co422 Co 0.23817 0.91465 0.39575 0.0
C423 C 0.54896 0.98374 0.38485 0.0
C424 C 0.4936 0.9619 0.35739 0.0
N425 N 0.49461 1.00375 0.37382 0.0
N426 N 0.562 0.91665 0.37758 0.0
C427 C 0.52974 0.90468 0.36 0.0
H428 H 0.56865 1.00865 0.39906 0.0
H429 H 0.45486 0.95921 0.34506 0.0
C430 C 0.38244 0.9716 0.42222 0.0
N431 N 0.10646 0.85832 0.40236 0.0
C432 C 1.04437 0.88385 0.39647 0.0
C433 C 0.05069 0.7677 0.40666 0.0
N434 N 0.95462 0.81283 0.39639 0.0
C435 C 0.95926 0.73976 0.40276 0.0
C436 C 0.2685 0.77839 0.38576 0.0
O437 O 0.41766 0.9689 0.40702 0.0
O438 O 0.29635 0.95131 0.42208 0.0
O439 O 0.22652 0.79662 0.3982 0.0
O440 O 0.33915 0.84519 0.37826 0.0
O441 O 0.19836 0.88346 0.36951 0.0
H442 H 0.07427 0.72168 0.41143 0.0
H443 H 0.06516 0.95166 0.39086 0.0
O444 O 0.33769 0.97967 0.35942 0.0
O445 O 0.3993 0.10144 0.38879 0.0
O446 O 0.2484 0.03323 0.39327 0.0
C447 C 0.32614 0.10743 0.39226 0.0
H448 H 0.53074 0.85698 0.34985 0.0
H449 H 0.90066 0.67119 0.40483 0.0
Co450 Co 0.6997 0.78994 0.80527 0.0
C451 C 0.80385 0.82513 0.77191 0.0
Co452 Co 0.79753 0.92959 0.80025 0.0
C453 C 0.51261 0.63999 0.80486 0.0
C454 C 0.60905 0.60268 0.7941 0.0
N455 N 0.60414 0.66728 0.80456 0.0
N456 N 0.46174 0.56442 0.79421 0.0
C457 C 0.52263 0.54105 0.78746 0.0
H458 H 0.48411 0.67736 0.81198 0.0
H459 H 0.67268 0.6062 0.78971 0.0
C460 C 0.73254 0.88453 0.8367 0.0
N461 N 0.86821 0.05617 0.80077 0.0
C462 C 0.95601 0.11085 0.806 0.0
C463 C 0.82933 0.11016 0.80317 0.0
N464 N 0.97206 0.19569 0.81089 0.0
C465 C 0.89299 0.19592 0.80893 0.0
C466 C 0.62943 0.90281 0.79275 0.0
O467 O 0.68832 0.80089 0.83141 0.0
O468 O 0.75945 0.94731 0.82441 0.0
O469 O 0.71077 0.94808 0.78697 0.0
O470 O 0.60634 0.82699 0.8008 0.0
O471 O 0.84639 0.9101 0.77695 0.0
H472 H 0.75713 0.08699 0.80327 0.0
H473 H 1.00676 0.08873 0.80647 0.0
O474 O 0.7232 0.77444 0.77882 0.0
O475 O 0.79202 0.76217 0.81064 0.0
O476 O 0.88391 0.91366 0.81225 0.0
C477 C 0.87228 0.83289 0.81293 0.0
H478 H 0.50603 0.48347 0.77823 0.0
H479 H 0.88199 0.25333 0.81182 0.0
Co480 Co 0.35269 0.95789 0.80527 0.0
C481 C 0.31749 1.02686 0.77191 0.0
Co482 Co 0.21306 0.91608 0.80025 0.0
C483 C 0.50266 0.9208 0.80487 0.0
C484 C 0.53992 0.05453 0.79409 0.0
N485 N 0.47534 0.98502 0.80456 0.0
N486 N 0.57828 0.94555 0.79424 0.0
C487 C 0.60158 1.02976 0.78746 0.0
H488 H 0.46529 0.85492 0.81198 0.0
H489 H 0.53636 0.1146 0.7897 0.0
C490 C 0.25814 0.89615 0.8367 0.0
N491 N 0.08651 0.86014 0.80078 0.0
C492 C 1.03176 0.89327 0.80596 0.0
C493 C 1.03257 0.76729 0.8032 0.0
N494 N 0.94691 0.82446 0.81084 0.0
C495 C 0.94675 0.74517 0.80893 0.0
C496 C 0.23984 0.77475 0.79276 0.0
O497 O 0.34177 0.93558 0.83141 0.0
O498 O 0.19536 0.86027 0.82441 0.0
O499 O 0.19458 0.81084 0.78697 0.0
O500 O 0.31566 0.82748 0.8008 0.0
O501 O 0.23253 0.98443 0.77696 0.0
H502 H 0.05582 0.71831 0.80336 0.0
H503 H 0.05383 0.96612 0.8064 0.0
O504 O 0.36818 0.99688 0.77882 0.0
O505 O 0.38044 0.07796 0.81064 0.0
O506 O 0.22896 1.01837 0.81226 0.0
C507 C 0.30973 0.08751 0.81294 0.0
H508 H 0.65912 0.07071 0.77822 0.0
H509 H 0.88938 0.67678 0.81185 0.0
Co510 Co 0.18472 0.44292 0.80527 0.0
C511 C 0.11574 0.33875 0.77192 0.0
Co512 Co 0.22654 0.3451 0.80025 0.0
C513 C 0.22181 0.62998 0.80488 0.0
C514 C 0.08808 0.53354 0.79411 0.0
N515 N 0.15758 0.53845 0.80457 0.0
N516 N 0.19707 0.68086 0.79424 0.0
C517 C 0.11285 0.61997 0.78748 0.0
H518 H 0.28769 0.65848 0.81199 0.0
H519 H 1.02799 0.46991 0.78971 0.0
C520 C 0.2465 0.41013 0.8367 0.0
N521 N 0.28248 0.27448 0.80077 0.0
C522 C 0.24936 0.18662 0.80596 0.0
C523 C 0.37534 0.3134 0.80319 0.0
N524 N 0.31816 0.17057 0.81084 0.0
C525 C 0.39745 0.2497 0.80893 0.0
C526 C 0.36785 0.51322 0.79275 0.0
O527 O 0.20707 0.45434 0.83141 0.0
O528 O 0.28237 0.38321 0.82441 0.0
O529 O 0.33178 0.43187 0.78697 0.0
O530 O 0.31512 0.53632 0.8008 0.0
O531 O 0.15818 0.29623 0.77696 0.0
H532 H 0.42432 0.38562 0.80333 0.0
H533 H 0.1765 0.13585 0.80641 0.0
O534 O 0.14569 0.41941 0.77883 0.0
O535 O 0.06466 0.35059 0.81066 0.0
O536 O 0.12427 0.2587 0.81226 0.0
C537 C 0.05514 0.27034 0.81296 0.0
H538 H 0.0719 0.63658 0.77824 0.0
H539 H 0.46584 0.26071 0.81184 0.0
Co540 Co 0.26352 0.42223 0.29744 0.0
C541 C 0.32047 0.33488 0.27097 0.0
Co542 Co 0.32229 0.34383 0.30985 0.0
C543 C 0.23271 0.58521 0.29673 0.0
C544 C 0.11661 0.46279 0.2865 0.0
N545 N 0.20721 0.49762 0.29082 0.0
N546 N 0.16168 0.60394 0.2968 0.0
C547 C 0.08866 0.52627 0.29041 0.0
H548 H 0.3005 0.63222 0.30235 0.0
H549 H 0.07062 0.39321 0.28172 0.0
C550 C 0.26613 0.40662 0.33718 0.0
N551 N 0.35256 0.25487 0.31937 0.0
C552 C 0.33256 0.18051 0.30835 0.0
C553 C 0.31068 0.21402 0.3358 0.0
N554 N 0.26541 0.10039 0.3156 0.0
C555 C 0.25343 0.12066 0.33319 0.0
C556 C 0.45628 0.52703 0.30093 0.0
O557 O 0.2323 0.43086 0.32368 0.0
O558 O 0.3285 0.38774 0.33377 0.0
O559 O 0.45029 0.44787 0.3044 0.0
O560 O 0.38208 0.53057 0.29991 0.0
O561 O 0.31774 0.29697 0.28618 0.0
H562 H 0.30799 0.25007 0.34813 0.0
H563 H 0.35752 0.18574 0.29414 0.0
O564 O 0.3002 0.4007 0.27111 0.0
O565 O 0.14549 0.31585 0.29499 0.0
O566 O 0.19402 0.25181 0.31493 0.0
C567 C 0.12722 0.25564 0.30743 0.0
H568 H 1.0201 0.51631 0.28833 0.0
H569 H 0.20572 0.07195 0.34333 0.0
Co570 Co 0.7205 0.88941 0.29743 0.0
C571 C 0.80786 0.03371 0.27097 0.0
Co572 Co 0.79889 1.02658 0.30984 0.0
C573 C 0.55751 0.69561 0.29672 0.0
C574 C 0.67997 0.70192 0.28652 0.0
N575 N 0.64513 0.75771 0.29082 0.0
N576 N 0.53877 0.60585 0.2968 0.0
C577 C 0.61648 0.61049 0.29042 0.0
H578 H 0.51049 0.71641 0.30233 0.0
H579 H 0.74957 0.72551 0.28175 0.0
C580 C 0.73608 0.90765 0.33718 0.0
N581 N 0.88785 0.14583 0.31937 0.0
C582 C 0.96221 0.20019 0.30834 0.0
C583 C 0.92867 0.1448 0.3358 0.0
N584 N 1.04233 0.21323 0.31561 0.0
C585 C 1.02204 0.18095 0.33319 0.0
C586 C 0.61569 0.97738 0.30093 0.0
O587 O 0.71186 0.84958 0.32368 0.0
O588 O 0.75497 0.9889 0.33376 0.0
O589 O 0.69485 0.05055 0.30439 0.0
O590 O 0.61216 0.89964 0.29991 0.0
O591 O 0.84577 0.0689 0.28617 0.0
H592 H 0.89262 0.10604 0.34812 0.0
H593 H 0.95699 0.2199 0.29413 0.0
O594 O 0.74204 0.94762 0.2711 0.0
O595 O 0.82688 0.87776 0.29499 0.0
O596 O 0.8909 0.99034 0.31493 0.0
C597 C 0.88708 0.91971 0.30743 0.0
H598 H 0.62645 0.55189 0.28836 0.0
H599 H 0.07074 0.18193 0.34334 0.0
Co600 Co 0.25331 0.87922 0.29743 0.0
C601 C 0.10904 0.82229 0.27097 0.0
Co602 Co 0.11613 0.82042 0.30984 0.0
C603 C 0.44712 0.91003 0.29672 0.0
C604 C 0.4408 1.02618 0.28652 0.0
N605 N 0.38502 0.93555 0.29082 0.0
N606 N 0.53687 0.98105 0.29679 0.0
C607 C 0.53223 0.05412 0.29042 0.0
H608 H 0.42633 0.84221 0.30233 0.0
H609 H 0.41721 0.0722 0.28175 0.0
C610 C 0.23505 0.87657 0.33718 0.0
N611 N 0.99688 0.79013 0.31937 0.0
C612 C 0.94253 0.81014 0.30834 0.0
C613 C 0.99789 0.83198 0.3358 0.0
N614 N 0.92949 0.87722 0.31561 0.0
C615 C 0.96175 0.8892 0.33319 0.0
C616 C 0.16535 0.68645 0.30093 0.0
O617 O 0.29313 0.91041 0.32368 0.0
O618 O 0.1538 0.8142 0.33376 0.0
O619 O 0.09218 0.69243 0.30439 0.0
O620 O 0.24308 0.76065 0.29991 0.0
O621 O 0.07383 0.82498 0.28617 0.0
H622 H 1.03663 0.83467 0.34812 0.0
H623 H 0.92284 0.78522 0.29413 0.0
O624 O 0.19513 0.84256 0.2711 0.0
O625 O 0.26496 0.99725 0.29499 0.0
O626 O 0.15234 0.94868 0.31493 0.0
C627 C 0.22298 1.01549 0.30743 0.0
H628 H 0.59082 0.12269 0.28836 0.0
H629 H 0.96075 0.9369 0.34334 0.0
Co630 Co 0.69392 0.86428 0.89294 0.0
C631 C 0.75892 0.90935 0.85649 0.0
Co632 Co 0.79175 1.00394 0.88792 0.0
C633 C 0.53544 0.68302 0.88719 0.0
C634 C 0.66214 0.68372 0.89002 0.0
N635 N 0.62325 0.73771 0.89241 0.0
N636 N 0.5194 0.59818 0.88229 0.0
C637 C 0.59847 0.59796 0.88425 0.0
H638 H 0.4847 0.70514 0.88672 0.0
H639 H 0.73433 0.70689 0.88992 0.0
C640 C 0.68762 0.96873 0.92128 0.0
N641 N 0.88732 0.1266 0.88863 0.0
C642 C 0.97885 0.15388 0.88832 0.0
C643 C 0.88241 0.1912 0.89909 0.0
N644 N 1.02972 0.22946 0.89897 0.0
C645 C 0.96883 0.25283 0.90572 0.0
C646 C 0.61918 0.96099 0.88026 0.0
O647 O 0.64507 0.88376 0.91623 0.0
O648 O 0.76826 1.01945 0.91437 0.0
O649 O 0.69944 0.0317 0.88255 0.0
O650 O 0.60755 0.88021 0.88094 0.0
O651 O 0.80314 0.99299 0.86177 0.0
H652 H 0.81879 0.18769 0.90347 0.0
H653 H 1.00735 0.11651 0.88121 0.0
O654 O 0.73202 0.84657 0.86878 0.0
O655 O 0.78068 0.8458 0.90622 0.0
O656 O 0.88512 0.96689 0.89238 0.0
C657 C 0.86203 0.89106 0.90043 0.0
H658 H 0.60948 0.54055 0.88136 0.0
H659 H 0.98544 0.31041 0.91495 0.0
Co660 Co 0.27839 0.87779 0.89293 0.0
C661 C 0.23331 0.89771 0.85649 0.0
Co662 Co 0.13876 0.83597 0.88792 0.0
C663 C 0.4597 0.90061 0.88723 0.0
C664 C 0.45888 1.02659 0.88998 0.0
N665 N 0.40495 0.93373 0.89241 0.0
N666 N 0.54455 0.96941 0.88235 0.0
C667 C 0.54471 0.04871 0.88425 0.0
H668 H 0.43763 0.82775 0.88679 0.0
H669 H 0.43563 0.07556 0.88983 0.0
C670 C 0.17398 0.76705 0.92128 0.0
N671 N 1.01611 0.80885 0.88863 0.0
C672 C 0.98879 0.87307 0.88832 0.0
C673 C 0.95153 0.73934 0.89909 0.0
N674 N 0.91317 0.84832 0.89895 0.0
C675 C 0.88987 0.76411 0.90572 0.0
C676 C 0.18172 0.70636 0.88025 0.0
O677 O 0.25894 0.80945 0.91623 0.0
O678 O 0.12327 0.79698 0.91437 0.0
O679 O 0.11101 0.7159 0.88255 0.0
O680 O 0.26249 0.7755 0.88093 0.0
O681 O 0.14968 0.85829 0.86178 0.0
H682 H 0.95509 0.67927 0.90349 0.0
H683 H 1.02616 0.93895 0.88121 0.0
O684 O 0.29609 0.9336 0.86878 0.0
O685 O 0.29687 0.98303 0.90621 0.0
O686 O 0.1758 0.96639 0.89238 0.0
C687 C 0.25162 1.01912 0.90043 0.0
H688 H 0.60207 0.1171 0.88133 0.0
H689 H 0.83233 0.72316 0.91496 0.0
Co690 Co 0.26492 0.44877 0.89293 0.0
C691 C 0.24496 0.38375 0.85649 0.0
Co692 Co 0.30675 0.35095 0.88791 0.0
C693 C 0.2421 0.60725 0.88723 0.0
C694 C 0.11612 0.48047 0.88999 0.0
N695 N 0.20898 0.51939 0.89241 0.0
N696 N 0.1733 0.6233 0.88235 0.0
C697 C 0.094 0.54417 0.88426 0.0
H698 H 0.31495 0.65802 0.88678 0.0
H699 H 0.06714 0.40825 0.88985 0.0
C700 C 0.37569 0.4551 0.92127 0.0
N701 N 0.33388 0.25542 0.88862 0.0
C702 C 0.26965 0.16389 0.88831 0.0
C703 C 0.40338 0.26033 0.89908 0.0
N704 N 0.29438 0.11301 0.89895 0.0
C705 C 0.37861 0.1739 0.90571 0.0
C706 C 0.43632 0.52353 0.88023 0.0
O707 O 0.33327 0.49765 0.91623 0.0
O708 O 0.34578 0.37447 0.91436 0.0
O709 O 0.4268 0.44328 0.88253 0.0
O710 O 0.36719 0.53517 0.88093 0.0
O711 O 0.28439 0.33953 0.86177 0.0
H712 H 0.46347 0.32396 0.90347 0.0
H713 H 0.20377 0.13539 0.8812 0.0
O714 O 0.20909 0.41066 0.86878 0.0
O715 O 0.15968 0.362 0.90622 0.0
O716 O 0.17634 0.25755 0.89239 0.0
C717 C 0.12361 0.28066 0.90043 0.0
H718 H 1.02562 0.53316 0.88134 0.0
H719 H 0.41956 0.15728 0.91494 0.0
Co720 Co 0.83586 0.78338 0.71668 0.0
C721 C 0.89202 0.7206 0.68934 0.0
Co722 Co 0.89464 0.70498 0.72908 0.0
C723 C 0.82559 0.9467 0.71818 0.0
C724 C 0.84746 0.91319 0.69072 0.0
N725 N 0.80558 0.87234 0.70715 0.0
N726 N 0.89274 1.02682 0.71092 0.0
C727 C 0.90471 1.00655 0.69334 0.0
H728 H 0.80063 0.94147 0.73238 0.0
H729 H 0.85014 0.87714 0.67839 0.0
C730 C 0.83768 0.79231 0.75555 0.0
N731 N 0.95095 0.62959 0.7357 0.0
C732 C 0.92545 0.542 0.72979 0.0
C733 C 1.04155 0.66442 0.74001 0.0
N734 N 0.99647 0.52327 0.72971 0.0
C735 C 0.0695 0.60094 0.73611 0.0
C736 C 1.03093 0.87158 0.71909 0.0
O737 O 0.84041 0.83024 0.74034 0.0
O738 O 0.85796 0.7265 0.75541 0.0
O739 O 1.01266 0.81135 0.73153 0.0
O740 O 0.96413 0.8754 0.71159 0.0
O741 O 0.92585 0.69636 0.70284 0.0
H742 H 0.08754 0.73401 0.7448 0.0
H743 H 0.85765 0.49498 0.72417 0.0
O744 O 0.82965 0.73948 0.69276 0.0
O745 O 0.70787 0.67934 0.72212 0.0
O746 O 0.77607 0.59664 0.72661 0.0
C747 C 0.70187 0.60018 0.72559 0.0
H748 H 0.95242 0.05525 0.68319 0.0
H749 H 0.13806 0.6109 0.73818 0.0
Co750 Co 0.35927 0.10062 0.71668 0.0
C751 C 0.42206 0.21956 0.68934 0.0
Co752 Co 0.43765 0.2378 0.72909 0.0
C753 C 0.19595 0.92702 0.71818 0.0
C754 C 0.22947 0.98241 0.69072 0.0
N755 N 0.2703 0.98138 0.70715 0.0
N756 N 0.11582 0.91398 0.71091 0.0
C757 C 0.13611 0.94626 0.69333 0.0
H758 H 0.20116 0.90731 0.73239 0.0
H759 H 0.26553 1.02116 0.6784 0.0
C760 C 0.35031 0.09351 0.75555 0.0
N761 N 0.51303 0.3695 0.7357 0.0
C762 C 0.60064 0.43159 0.7298 0.0
C763 C 0.47819 0.42529 0.74 0.0
N764 N 0.61938 0.52135 0.72972 0.0
C765 C 0.54168 0.51672 0.7361 0.0
C766 C 0.27106 0.2075 0.71909 0.0
O767 O 0.31239 0.05831 0.74035 0.0
O768 O 0.41612 0.1796 0.75541 0.0
O769 O 0.33128 0.24945 0.73153 0.0
O770 O 0.26724 0.13687 0.71159 0.0
O771 O 0.44628 0.27763 0.70284 0.0
H772 H 0.40859 0.4017 0.74477 0.0
H773 H 0.64766 0.4108 0.72419 0.0
O774 O 0.40317 0.13831 0.69276 0.0
O775 O 0.4633 0.07666 0.72213 0.0
O776 O 0.54599 0.22757 0.72661 0.0
C777 C 0.54246 0.14983 0.72559 0.0
H778 H 0.08741 0.94528 0.68318 0.0
H779 H 0.53171 0.57532 0.73816 0.0
Co780 Co 1.04202 0.30678 0.71668 0.0
C781 C 0.9231 0.25064 0.68934 0.0
Co782 Co 0.90483 0.24798 0.72909 0.0
C783 C 0.21562 0.31707 0.71818 0.0
C784 C 0.16025 0.29522 0.69072 0.0
N785 N 0.16127 0.33708 0.70715 0.0
N786 N 0.22866 0.24998 0.71091 0.0
C787 C 0.1964 0.238 0.69333 0.0
H788 H 0.23531 0.34199 0.73239 0.0
H789 H 0.12151 0.29253 0.6784 0.0
C790 C 0.04911 0.30493 0.75555 0.0
N791 N 0.77313 0.19166 0.7357 0.0
C792 C 0.71104 0.21718 0.7298 0.0
C793 C 0.71735 0.10103 0.74 0.0
N794 N 0.62128 0.14616 0.72972 0.0
C795 C 0.62592 0.0731 0.7361 0.0
C796 C 0.93516 0.11172 0.71909 0.0
O797 O 0.08433 0.30223 0.74035 0.0
O798 O 0.96302 0.28464 0.75542 0.0
O799 O 0.89318 0.12996 0.73153 0.0
O800 O 1.0058 0.17852 0.7116 0.0
O801 O 0.86502 0.2168 0.70284 0.0
H802 H 0.74093 0.05501 0.74477 0.0
H803 H 0.73183 0.285 0.72419 0.0
O804 O 1.00434 0.313 0.69276 0.0
O805 O 0.06597 0.43478 0.72213 0.0
O806 O 0.91507 0.36656 0.72661 0.0
C807 C 0.9928 0.44076 0.72559 0.0
H808 H 0.1974 0.19029 0.68318 0.0
H809 H 0.56733 1.00452 0.73816 0.0
Co810 Co 0.36638 0.12327 0.1386 0.0
C811 C 0.47051 0.15848 0.10524 0.0
Co812 Co 0.46422 0.26292 0.13359 0.0
C813 C 0.17929 0.97332 0.1382 0.0
C814 C 0.27572 0.936 0.12744 0.0
N815 N 0.27082 1.0006 0.13789 0.0
N816 N 0.12842 0.89775 0.12755 0.0
C817 C 0.18931 0.87438 0.1208 0.0
H818 H 0.15078 1.01069 0.14531 0.0
H819 H 0.33935 0.93952 0.12305 0.0
C820 C 0.39922 0.21785 0.17004 0.0
N821 N 0.53488 0.3895 0.13411 0.0
C822 C 0.62269 0.44418 0.13934 0.0
C823 C 0.496 0.44348 0.13651 0.0
N824 N 0.63874 0.52902 0.14423 0.0
C825 C 0.55966 0.52925 0.14227 0.0
C826 C 0.29611 0.23614 0.12609 0.0
O827 O 0.35499 0.13421 0.16475 0.0
O828 O 0.42612 0.28063 0.15774 0.0
O829 O 0.37746 0.28141 0.12031 0.0
O830 O 0.27302 0.16032 0.13414 0.0
O831 O 0.51307 0.24344 0.11029 0.0
H832 H 0.4238 0.42032 0.13661 0.0
H833 H 0.67344 0.42207 0.1398 0.0
O834 O 0.38988 0.10776 0.11215 0.0
O835 O 0.45869 0.0955 0.14398 0.0
O836 O 0.55058 0.24699 0.14558 0.0
C837 C 0.53895 0.16621 0.14627 0.0
H838 H 0.1727 0.8168 0.11157 0.0
H839 H 0.54866 0.58665 0.14516 0.0
Co840 Co 1.01937 0.29123 0.1386 0.0
C841 C 0.98415 0.36016 0.10524 0.0
Co842 Co 0.87974 0.24941 0.13359 0.0
C843 C 0.16934 0.25414 0.1382 0.0
C844 C 0.20661 0.38786 0.12743 0.0
N845 N 0.14202 0.31835 0.13789 0.0
N846 N 0.24496 0.27889 0.12757 0.0
C847 C 0.26827 0.3631 0.1208 0.0
H848 H 0.13197 0.18826 0.14531 0.0
H849 H 0.20305 0.44794 0.12303 0.0
C850 C 0.92482 0.22948 0.17003 0.0
N851 N 0.75318 0.19347 0.13411 0.0
C852 C 0.69843 0.22659 0.13929 0.0
C853 C 0.69925 0.10061 0.13654 0.0
N854 N 0.61358 0.15779 0.14417 0.0
C855 C 0.61343 0.07849 0.14227 0.0
C856 C 0.90652 0.10808 0.12609 0.0
O857 O 1.00845 0.26891 0.16474 0.0
O858 O 0.86204 0.1936 0.15774 0.0
O859 O 0.86126 0.14417 0.12031 0.0
O860 O 0.98234 0.16081 0.13413 0.0
O861 O 0.89919 0.31775 0.11029 0.0
H862 H 0.7225 0.05164 0.13669 0.0
H863 H 0.72051 0.29945 0.13973 0.0
O864 O 1.03487 0.33023 0.11215 0.0
O865 O 0.04712 0.4113 0.14397 0.0
O866 O 0.89564 0.3517 0.14559 0.0
C867 C 0.97641 0.42084 0.14627 0.0
H868 H 0.32582 0.40405 0.11156 0.0
H869 H 0.55606 1.0101 0.14519 0.0
Co870 Co 0.85139 0.77625 0.13861 0.0
C871 C 0.78244 0.6721 0.10525 0.0
Co872 Co 0.89322 0.67843 0.13359 0.0
C873 C 0.88849 0.96332 0.13821 0.0
C874 C 0.75475 0.86687 0.12744 0.0
N875 N 0.82426 0.87178 0.1379 0.0
N876 N 0.86375 1.01419 0.12757 0.0
C877 C 0.77953 0.9533 0.12081 0.0
H878 H 0.95437 0.99182 0.14532 0.0
H879 H 0.69466 0.80324 0.12305 0.0
C880 C 0.91319 0.74346 0.17003 0.0
N881 N 0.94916 0.60781 0.13411 0.0
C882 C 0.91603 0.51995 0.13929 0.0
C883 C 1.04201 0.64673 0.13652 0.0
N884 N 0.98483 0.5039 0.14417 0.0
C885 C 0.06413 0.58303 0.14226 0.0
C886 C 1.03452 0.84655 0.12609 0.0
O887 O 0.87376 0.78767 0.16475 0.0
O888 O 0.94905 0.71655 0.15774 0.0
O889 O 0.99846 0.7652 0.1203 0.0
O890 O 0.98179 0.86965 0.13413 0.0
O891 O 0.82486 0.62955 0.11029 0.0
H892 H 0.091 0.71895 0.13667 0.0
H893 H 0.84318 0.46918 0.13974 0.0
O894 O 0.81235 0.75274 0.11216 0.0
O895 O 0.73133 0.68392 0.14399 0.0
O896 O 0.79095 0.59203 0.14559 0.0
C897 C 0.72182 0.60368 0.14629 0.0
H898 H 0.73857 0.96991 0.11158 0.0
H899 H 0.13252 0.59404 0.14517 0.0
Co900 Co 0.93015 0.75556 0.63077 0.0
C901 C 0.98711 0.66823 0.6043 0.0
Co902 Co 0.98893 0.67716 0.64318 0.0
C903 C 0.89934 0.91854 0.63006 0.0
C904 C 0.78325 0.79612 0.61984 0.0
N905 N 0.87384 0.83095 0.62416 0.0
N906 N 0.82832 0.93727 0.63014 0.0
C907 C 0.75529 0.8596 0.62375 0.0
H908 H 0.96714 0.96556 0.63568 0.0
H909 H 0.73725 0.72653 0.61506 0.0
C910 C 0.93277 0.73994 0.67052 0.0
N911 N 1.01921 0.5882 0.6527 0.0
C912 C 0.9992 0.51384 0.64168 0.0
C913 C 0.97733 0.54735 0.66913 0.0
N914 N 0.93205 0.43372 0.64893 0.0
C915 C 0.92008 0.45399 0.66652 0.0
C916 C 0.12292 0.86036 0.63426 0.0
O917 O 0.89894 0.76418 0.65701 0.0
O918 O 0.99514 0.72106 0.6671 0.0
O919 O 0.11693 0.7812 0.63773 0.0
O920 O 0.04872 0.8639 0.63325 0.0
O921 O 0.98439 0.6303 0.61951 0.0
H922 H 0.97465 0.5834 0.68146 0.0
H923 H 1.02416 0.51907 0.62747 0.0
O924 O 0.96683 0.73404 0.60444 0.0
O925 O 0.81213 0.64919 0.62832 0.0
O926 O 0.86066 0.58514 0.64826 0.0
C927 C 0.79386 0.58896 0.64076 0.0
H928 H 0.68673 0.84964 0.62167 0.0
H929 H 0.87237 0.40528 0.67667 0.0
Co930 Co 0.38714 0.22274 0.63077 0.0
C931 C 0.47448 0.36703 0.6043 0.0
Co932 Co 0.46553 0.35992 0.64318 0.0
C933 C 0.22415 1.02895 0.63005 0.0
C934 C 0.3466 0.03526 0.61985 0.0
N935 N 0.31177 0.09104 0.62416 0.0
N936 N 0.20541 0.93919 0.63013 0.0
C937 C 0.28311 0.94382 0.62376 0.0
H938 H 0.17713 0.04974 0.63566 0.0
H939 H 0.41621 0.05884 0.61508 0.0
C940 C 0.40274 0.24098 0.67052 0.0
N941 N 0.55449 0.47916 0.6527 0.0
C942 C 0.62885 0.53352 0.64168 0.0
C943 C 0.59532 0.47813 0.66913 0.0
N944 N 0.70897 0.54656 0.64894 0.0
C945 C 0.68868 0.51428 0.66652 0.0
C946 C 0.28233 0.31071 0.63426 0.0
O947 O 0.37851 0.18291 0.65701 0.0
O948 O 0.42162 0.32223 0.6671 0.0
O949 O 0.36149 0.38388 0.63773 0.0
O950 O 0.2788 0.23297 0.63325 0.0
O951 O 0.5124 0.40224 0.61951 0.0
H952 H 0.55927 0.43938 0.68146 0.0
H953 H 0.62363 0.55323 0.62747 0.0
O954 O 0.40867 0.28094 0.60444 0.0
O955 O 0.49351 0.21109 0.62832 0.0
O956 O 0.55755 0.32367 0.64826 0.0
C957 C 0.55373 0.25305 0.64076 0.0
H958 H 0.29309 0.88522 0.62169 0.0
H959 H 0.73738 0.51527 0.67667 0.0
Co960 Co 0.91996 0.21256 0.63077 0.0
C961 C 0.77568 0.15561 0.6043 0.0
Co962 Co 0.78277 0.15376 0.64318 0.0
C963 C 0.11375 0.24336 0.63005 0.0
C964 C 0.10744 0.35951 0.61985 0.0
N965 N 0.05166 0.26888 0.62416 0.0
N966 N 0.20351 0.31438 0.63013 0.0
C967 C 0.19887 0.38744 0.62376 0.0
H968 H 0.09297 0.17554 0.63566 0.0
H969 H 0.08386 0.40553 0.61508 0.0
C970 C 0.90169 0.20991 0.67051 0.0
N971 N 0.66352 0.12346 0.6527 0.0
C972 C 0.60917 0.14347 0.64167 0.0
C973 C 0.66454 0.16532 0.66913 0.0
N974 N 0.59613 0.21056 0.64894 0.0
C975 C 0.62839 0.22254 0.66652 0.0
C976 C 0.83199 1.01978 0.63426 0.0
O977 O 0.95977 0.24374 0.65701 0.0
O978 O 0.82045 0.14754 0.6671 0.0
O979 O 0.75882 1.02576 0.63773 0.0
O980 O 0.90972 0.09398 0.63325 0.0
O981 O 0.74046 0.1583 0.6195 0.0
H982 H 0.70328 0.16801 0.68146 0.0
H983 H 0.58947 0.11855 0.62747 0.0
O984 O 0.86177 0.1759 0.60444 0.0
O985 O 0.93161 0.33058 0.62832 0.0
O986 O 0.81899 0.28202 0.64826 0.0
C987 C 0.88963 0.34882 0.64076 0.0
H988 H 0.25746 0.45602 0.62169 0.0
H989 H 0.62739 0.27025 0.67667 0.0
Co990 Co 0.36062 0.19761 0.22627 0.0
C991 C 0.4256 0.24268 0.18982 0.0
Co992 Co 0.45845 0.33727 0.22125 0.0
C993 C 0.20214 1.01635 0.22052 0.0
C994 C 0.32883 1.01704 0.22336 0.0
N995 N 0.28995 0.07103 0.22575 0.0
N996 N 0.18609 0.93151 0.21563 0.0
C997 C 0.26517 0.93128 0.21759 0.0
H998 H 0.1514 0.03847 0.22005 0.0
H999 H 0.40102 0.04021 0.22326 0.0
C1000 C 0.35432 0.30206 0.25462 0.0
N1001 N 0.55401 0.45993 0.22196 0.0
C1002 C 0.64554 0.48721 0.22166 0.0
C1003 C 0.54911 0.52453 0.23242 0.0
N1004 N 0.69642 0.56279 0.23231 0.0
C1005 C 0.63552 0.58616 0.23906 0.0
C1006 C 0.28588 0.29432 0.21359 0.0
O1007 O 0.31177 0.2171 0.24957 0.0
O1008 O 0.43496 0.35278 0.2477 0.0
O1009 O 0.36614 0.36503 0.21588 0.0
O1010 O 0.27425 0.21354 0.21427 0.0
O1011 O 0.46983 0.32632 0.19511 0.0
H1012 H 0.48548 0.52102 0.23681 0.0
H1013 H 0.67405 0.44984 0.21455 0.0
O1014 O 0.3987 0.17989 0.20211 0.0
O1015 O 0.44738 0.17913 0.23955 0.0
O1016 O 0.55181 0.30022 0.22572 0.0
C1017 C 0.52873 0.2244 0.23377 0.0
H1018 H 0.27617 0.87388 0.2147 0.0
H1019 H 0.65213 0.64374 0.24829 0.0
Co1020 Co 0.94509 0.21112 0.22626 0.0
C1021 C 0.9 0.23104 0.18982 0.0
Co1022 Co 0.80546 0.16931 0.22125 0.0
C1023 C 0.1264 0.23394 0.22056 0.0
C1024 C 0.12557 0.35992 0.22331 0.0
N1025 N 0.07164 0.26706 0.22574 0.0
N1026 N 0.21125 0.30274 0.21568 0.0
C1027 C 0.2114 0.38204 0.21758 0.0
H1028 H 0.10433 0.16108 0.22012 0.0
H1029 H 0.10232 0.40889 0.22315 0.0
C1030 C 0.84068 0.10038 0.25461 0.0
N1031 N 0.68281 0.14218 0.22196 0.0
C1032 C 0.65549 0.2064 0.22165 0.0
C1033 C 0.61823 0.07268 0.23243 0.0
N1034 N 0.57987 0.18165 0.23229 0.0
C1035 C 0.55657 0.09744 0.23906 0.0
C1036 C 0.84842 0.03969 0.21358 0.0
O1037 O 0.92564 0.14278 0.24956 0.0
O1038 O 0.78997 0.13031 0.2477 0.0
O1039 O 0.77771 0.04924 0.21588 0.0
O1040 O 0.92919 0.10883 0.21426 0.0
O1041 O 0.81636 0.19162 0.19511 0.0
H1042 H 0.62179 1.0126 0.23682 0.0
H1043 H 0.69286 0.27228 0.21454 0.0
O1044 O 0.96278 0.26693 0.20211 0.0
O1045 O 0.96357 0.31636 0.23954 0.0
O1046 O 0.84249 0.29972 0.22572 0.0
C1047 C 0.91832 0.35245 0.23376 0.0
H1048 H 0.26877 0.45043 0.21466 0.0
H1049 H 0.49903 0.0565 0.2483 0.0
Co1050 Co 0.93161 0.78211 0.22626 0.0
C1051 C 0.91165 0.71709 0.18982 0.0
Co1052 Co 0.97344 0.68428 0.22125 0.0
C1053 C 0.90879 0.94059 0.22056 0.0
C1054 C 0.78282 0.81381 0.22333 0.0
N1055 N 0.87567 0.85272 0.22575 0.0
N1056 N 0.83999 0.95663 0.21568 0.0
C1057 C 0.7607 0.8775 0.2176 0.0
H1058 H 0.98165 0.99136 0.22011 0.0
H1059 H 0.73383 0.74159 0.22319 0.0
C1060 C 1.04239 0.78844 0.25461 0.0
N1061 N 1.00057 0.58876 0.22195 0.0
C1062 C 0.93635 0.49722 0.22164 0.0
C1063 C 0.07008 0.59366 0.23241 0.0
N1064 N 0.96108 0.44634 0.23228 0.0
C1065 C 1.04531 0.50724 0.23904 0.0
C1066 C 0.10302 0.85686 0.21356 0.0
O1067 O 0.99997 0.83098 0.24956 0.0
O1068 O 1.01248 0.7078 0.24769 0.0
O1069 O 0.0935 0.77662 0.21586 0.0
O1070 O 1.03389 0.86851 0.21426 0.0
O1071 O 0.95108 0.67287 0.19511 0.0
H1072 H 0.13017 0.65729 0.2368 0.0
H1073 H 0.87046 0.46872 0.21453 0.0
O1074 O 0.87579 0.74399 0.20211 0.0
O1075 O 0.82638 0.69534 0.23955 0.0
O1076 O 0.84304 0.59089 0.22572 0.0
C1077 C 0.79031 0.61399 0.23377 0.0
H1078 H 0.69231 0.86649 0.21468 0.0
H1079 H 0.08627 0.49062 0.24827 0.0
loop_
_geom_bond_atom_site_label_1
_geom_bond_atom_site_label_2
_geom_bond_distance
_geom_bond_site_symmetry_2
_ccdc_geom_bond_type
Co0 N5 2.057 . S
Co0 O17 2.021 . S
Co0 O20 2.062 . S
Co0 O24 2.117 . S
Co0 O25 2.020 1_545 S
C1 O21 1.259 1_545 S
C1 O24 1.258 . S
Co2 N11 2.057 . S
Co2 O18 2.117 1_565 S
Co2 O19 2.020 1_565 S
Co2 O21 2.021 . S
Co2 O26 2.062 . S
C3 N5 1.316 . S
C3 N6 1.347 . S
C3 H8 0.931 . S
C4 N5 1.375 . S
C4 C7 1.350 . S
C4 H9 0.930 . S
N5 Co0 2.057 . S
N5 C3 1.316 . S
N5 C4 1.375 . S
N6 C3 1.347 . S
N6 C7 1.373 . S
C7 C4 1.350 . S
C7 N6 1.373 . S
C7 H28 0.978 . S
H8 C3 0.931 . S
H9 C4 0.930 . S
C10 O17 1.259 . S
C10 O18 1.258 . S
N11 Co2 2.057 . S
N11 C12 1.316 . S
N11 C13 1.375 . S
C12 N11 1.316 . S
C12 N14 1.347 . S
C12 H23 0.931 . S
C13 N11 1.375 . S
C13 C15 1.350 . S
C13 H22 0.930 . S
N14 C12 1.347 . S
N14 C15 1.373 . S
C15 C13 1.350 . S
C15 N14 1.373 . S
C15 H29 0.931 . S
C16 O19 1.256 . S
C16 O20 1.255 . S
O17 Co0 2.021 . S
O17 C10 1.259 . S
O18 Co2 2.117 1_545 S
O18 C10 1.258 . S
O19 Co2 2.020 1_545 S
O19 C16 1.256 . S
O20 Co0 2.062 . S
O20 C16 1.255 . S
O21 C1 1.259 1_565 S
O21 Co2 2.021 . S
H22 C13 0.930 . S
H23 C12 0.931 . S
O24 Co0 2.117 . S
O24 C1 1.258 . S
O25 Co0 2.020 1_565 S
O25 C27 1.256 . S
O26 Co2 2.062 . S
O26 C27 1.255 . S
C27 O25 1.256 . S
C27 O26 1.255 . S
H28 C7 0.978 . S
H29 C15 0.931 . S
Co30 N35 2.057 . S
Co30 O47 2.021 . S
Co30 O50 2.062 . S
Co30 O54 2.117 . S
Co30 O55 2.020 1_655 S
C31 O51 1.259 . S
C31 O54 1.258 1_455 S
Co32 N41 2.057 . S
Co32 O48 2.117 . S
Co32 O49 2.020 1_455 S
Co32 O51 2.021 . S
Co32 O56 2.062 . S
C33 N35 1.316 . S
C33 N36 1.347 . S
C33 H38 0.931 . S
C34 N35 1.375 . S
C34 C37 1.350 . S
C34 H39 0.930 . S
N35 Co30 2.057 . S
N35 C33 1.316 . S
N35 C34 1.375 . S
N36 C33 1.347 . S
N36 C37 1.373 . S
C37 C34 1.350 . S
C37 N36 1.373 . S
C37 H58 0.978 . S
H38 C33 0.931 . S
H39 C34 0.930 . S
C40 O47 1.259 1_455 S
C40 O48 1.258 . S
N41 Co32 2.057 . S
N41 C42 1.316 . S
N41 C43 1.375 . S
C42 N41 1.316 . S
C42 N44 1.347 . S
C42 H53 0.931 . S
C43 N41 1.375 . S
C43 C45 1.350 . S
C43 H52 0.930 . S
N44 C42 1.347 . S
N44 C45 1.373 . S
C45 C43 1.350 . S
C45 N44 1.373 . S
C45 H59 0.931 . S
C46 O49 1.256 . S
C46 O50 1.255 . S
O47 Co30 2.021 . S
O47 C40 1.259 1_655 S
O48 Co32 2.117 . S
O48 C40 1.258 . S
O49 Co32 2.020 1_655 S
O49 C46 1.256 . S
O50 Co30 2.062 . S
O50 C46 1.255 . S
O51 C31 1.259 . S
O51 Co32 2.021 . S
H52 C43 0.930 . S
H53 C42 0.931 . S
O54 Co30 2.117 . S
O54 C31 1.258 1_655 S
O55 Co30 2.020 1_455 S
O55 C57 1.256 . S
O56 Co32 2.062 . S
O56 C57 1.255 . S
C57 O55 1.256 . S
C57 O56 1.255 . S
H58 C37 0.978 . S
H59 C45 0.931 . S
Co60 N65 2.057 . S
Co60 O77 2.021 . S
Co60 O80 2.062 . S
Co60 O84 2.117 . S
Co60 O85 2.020 . S
C61 O81 1.259 . S
C61 O84 1.258 . S
Co62 N71 2.057 . S
Co62 O78 2.117 . S
Co62 O79 2.020 . S
Co62 O81 2.021 . S
Co62 O86 2.062 . S
C63 N65 1.316 . S
C63 N66 1.347 . S
C63 H68 0.931 . S
C64 N65 1.375 . S
C64 C67 1.350 . S
C64 H69 0.930 . S
N65 Co60 2.057 . S
N65 C63 1.316 . S
N65 C64 1.375 . S
N66 C63 1.347 . S
N66 C67 1.373 . S
C67 C64 1.350 . S
C67 N66 1.373 . S
C67 H88 0.978 . S
H68 C63 0.931 . S
H69 C64 0.930 . S
C70 O77 1.259 . S
C70 O78 1.258 . S
N71 Co62 2.057 . S
N71 C72 1.316 . S
N71 C73 1.375 . S
C72 N71 1.316 . S
C72 N74 1.347 . S
C72 H83 0.931 . S
C73 N71 1.375 . S
C73 C75 1.350 . S
C73 H82 0.930 . S
N74 C72 1.347 . S
N74 C75 1.373 . S
C75 C73 1.350 . S
C75 N74 1.373 . S
C75 H89 0.931 . S
C76 O79 1.256 . S
C76 O80 1.255 . S
O77 Co60 2.021 . S
O77 C70 1.259 . S
O78 Co62 2.117 . S
O78 C70 1.258 . S
O79 Co62 2.020 . S
O79 C76 1.256 . S
O80 Co60 2.062 . S
O80 C76 1.255 . S
O81 C61 1.259 . S
O81 Co62 2.021 . S
H82 C73 0.930 . S
H83 C72 0.931 . S
O84 Co60 2.117 . S
O84 C61 1.258 . S
O85 Co60 2.020 . S
O85 C87 1.256 . S
O86 Co62 2.062 . S
O86 C87 1.255 . S
C87 O85 1.256 . S
C87 O86 1.255 . S
H88 C67 0.978 . S
H89 C75 0.931 . S
Co90 N95 2.057 . S
Co90 O107 2.021 . S
Co90 O110 2.062 . S
Co90 O114 2.117 1_655 S
Co90 O115 2.020 1_655 S
C91 O111 1.259 . S
C91 O114 1.258 . S
Co92 N101 2.057 . S
Co92 O108 2.117 . S
Co92 O109 2.020 1_455 S
Co92 O111 2.021 . S
Co92 O116 2.062 . S
C93 N95 1.316 . S
C93 N96 1.347 . S
C93 H98 0.931 . S
C94 N95 1.375 . S
C94 C97 1.350 . S
C94 H99 0.930 . S
N95 Co90 2.057 . S
N95 C93 1.316 . S
N95 C94 1.375 . S
N96 C93 1.347 . S
N96 C97 1.373 . S
C97 C94 1.350 . S
C97 N96 1.373 . S
C97 H118 0.931 . S
H98 C93 0.931 . S
H99 C94 0.930 . S
C100 O107 1.259 1_455 S
C100 O108 1.258 . S
N101 Co92 2.057 . S
N101 C102 1.316 . S
N101 C103 1.375 . S
C102 N101 1.316 . S
C102 N104 1.347 . S
C102 H113 0.931 . S
C103 N101 1.375 . S
C103 C105 1.350 . S
C103 H112 0.930 . S
N104 C102 1.347 . S
N104 C105 1.373 . S
C105 C103 1.350 . S
C105 N104 1.373 . S
C105 H119 0.931 . S
C106 O109 1.256 . S
C106 O110 1.255 . S
O107 Co90 2.021 . S
O107 C100 1.259 1_655 S
O108 Co92 2.117 . S
O108 C100 1.258 . S
O109 Co92 2.020 1_655 S
O109 C106 1.256 . S
O110 Co90 2.062 . S
O110 C106 1.255 . S
O111 C91 1.259 . S
O111 Co92 2.021 . S
H112 C103 0.930 . S
H113 C102 0.931 . S
O114 Co90 2.117 1_455 S
O114 C91 1.258 . S
O115 Co90 2.020 1_455 S
O115 C117 1.256 . S
O116 Co92 2.062 . S
O116 C117 1.255 . S
C117 O115 1.256 . S
C117 O116 1.255 . S
H118 C97 0.931 . S
H119 C105 0.931 . S
Co120 N125 2.057 . S
Co120 O137 2.021 . S
Co120 O140 2.062 . S
Co120 O144 2.117 . S
Co120 O145 2.020 . S
C121 O141 1.259 . S
C121 O144 1.258 . S
Co122 N131 2.057 . S
Co122 O138 2.117 . S
Co122 O139 2.020 . S
Co122 O141 2.021 . S
Co122 O146 2.062 . S
C123 N125 1.316 . S
C123 N126 1.347 . S
C123 H128 0.931 . S
C124 N125 1.375 . S
C124 C127 1.350 . S
C124 H129 0.930 . S
N125 Co120 2.057 . S
N125 C123 1.316 . S
N125 C124 1.375 . S
N126 C123 1.347 . S
N126 C127 1.373 . S
C127 C124 1.350 . S
C127 N126 1.373 . S
C127 H148 0.931 . S
H128 C123 0.931 . S
H129 C124 0.930 . S
C130 O137 1.259 . S
C130 O138 1.258 . S
N131 Co122 2.057 . S
N131 C132 1.316 . S
N131 C133 1.375 . S
C132 N131 1.316 . S
C132 N134 1.347 . S
C132 H143 0.931 . S
C133 N131 1.375 . S
C133 C135 1.350 . S
C133 H142 0.930 . S
N134 C132 1.347 . S
N134 C135 1.373 . S
C135 C133 1.350 . S
C135 N134 1.373 . S
C135 H149 0.931 . S
C136 O139 1.256 . S
C136 O140 1.255 . S
O137 Co120 2.021 . S
O137 C130 1.259 . S
O138 Co122 2.117 . S
O138 C130 1.258 . S
O139 Co122 2.020 . S
O139 C136 1.256 . S
O140 Co120 2.062 . S
O140 C136 1.255 . S
O141 C121 1.259 . S
O141 Co122 2.021 . S
H142 C133 0.930 . S
H143 C132 0.931 . S
O144 Co120 2.117 . S
O144 C121 1.258 . S
O145 Co120 2.020 . S
O145 C147 1.256 . S
O146 Co122 2.062 . S
O146 C147 1.255 . S
C147 O145 1.256 . S
C147 O146 1.255 . S
H148 C127 0.931 . S
H149 C135 0.931 . S
Co150 N155 2.057 . S
Co150 O167 2.021 . S
Co150 O170 2.062 . S
Co150 O174 2.117 . S
Co150 O175 2.020 1_545 S
C151 O171 1.259 1_545 S
C151 O174 1.258 . S
Co152 N161 2.057 . S
Co152 O168 2.117 . S
Co152 O169 2.020 1_565 S
Co152 O171 2.021 . S
Co152 O176 2.062 . S
C153 N155 1.316 . S
C153 N156 1.347 . S
C153 H158 0.931 . S
C154 N155 1.375 . S
C154 C157 1.350 . S
C154 H159 0.930 . S
N155 Co150 2.057 . S
N155 C153 1.316 . S
N155 C154 1.375 . S
N156 C153 1.347 . S
N156 C157 1.373 . S
C157 C154 1.350 . S
C157 N156 1.373 . S
C157 H178 0.931 . S
H158 C153 0.931 . S
H159 C154 0.930 . S
C160 O167 1.259 . S
C160 O168 1.258 1_545 S
N161 Co152 2.057 . S
N161 C162 1.316 . S
N161 C163 1.375 . S
C162 N161 1.316 . S
C162 N164 1.347 . S
C162 H173 0.931 . S
C163 N161 1.375 . S
C163 C165 1.350 . S
C163 H172 0.930 . S
N164 C162 1.347 . S
N164 C165 1.373 . S
C165 C163 1.350 . S
C165 N164 1.373 . S
C165 H179 0.931 . S
C166 O169 1.256 . S
C166 O170 1.255 . S
O167 Co150 2.021 . S
O167 C160 1.259 . S
O168 Co152 2.117 . S
O168 C160 1.258 1_565 S
O169 Co152 2.020 1_545 S
O169 C166 1.256 . S
O170 Co150 2.062 . S
O170 C166 1.255 . S
O171 C151 1.259 1_565 S
O171 Co152 2.021 . S
H172 C163 0.930 . S
H173 C162 0.931 . S
O174 Co150 2.117 . S
O174 C151 1.258 . S
O175 Co150 2.020 1_565 S
O175 C177 1.256 . S
O176 Co152 2.062 . S
O176 C177 1.255 . S
C177 O175 1.256 . S
C177 O176 1.255 . S
H178 C157 0.931 . S
H179 C165 0.931 . S
Co180 N185 2.057 . S
Co180 O197 2.021 . S
Co180 O200 2.062 . S
Co180 O204 2.117 . S
Co180 O205 2.020 1_545 S
C181 O201 1.259 1_545 S
C181 O204 1.258 . S
Co182 N191 2.057 . S
Co182 O198 2.117 . S
Co182 O199 2.020 1_565 S
Co182 O201 2.021 . S
Co182 O206 2.062 . S
C183 N185 1.316 . S
C183 N186 1.347 . S
C183 H188 0.931 . S
C184 N185 1.375 . S
C184 C187 1.350 . S
C184 H189 0.930 . S
N185 Co180 2.057 . S
N185 C183 1.316 . S
N185 C184 1.375 . S
N186 C183 1.347 . S
N186 C187 1.373 . S
C187 C184 1.350 . S
C187 N186 1.373 . S
C187 H208 0.931 . S
H188 C183 0.931 . S
H189 C184 0.930 . S
C190 O197 1.259 . S
C190 O198 1.258 1_545 S
N191 Co182 2.057 . S
N191 C192 1.316 . S
N191 C193 1.375 . S
C192 N191 1.316 . S
C192 N194 1.347 . S
C192 H203 0.931 . S
C193 N191 1.375 . S
C193 C195 1.350 . S
C193 H202 0.930 . S
N194 C192 1.347 . S
N194 C195 1.373 . S
C195 C193 1.350 . S
C195 N194 1.373 . S
C195 H209 0.978 . S
C196 O199 1.256 . S
C196 O200 1.255 . S
O197 Co180 2.021 . S
O197 C190 1.259 . S
O198 Co182 2.117 . S
O198 C190 1.258 1_565 S
O199 Co182 2.020 1_545 S
O199 C196 1.256 . S
O200 Co180 2.062 . S
O200 C196 1.255 . S
O201 C181 1.259 1_565 S
O201 Co182 2.021 . S
H202 C193 0.930 . S
H203 C192 0.931 . S
O204 Co180 2.117 . S
O204 C181 1.258 . S
O205 Co180 2.020 1_565 S
O205 C207 1.256 . S
O206 Co182 2.062 . S
O206 C207 1.255 . S
C207 O205 1.256 . S
C207 O206 1.255 . S
H208 C187 0.931 . S
H209 C195 0.978 . S
Co210 N215 2.057 . S
Co210 O227 2.021 . S
Co210 O230 2.062 . S
Co210 O234 2.117 1_655 S
Co210 O235 2.020 1_655 S
C211 O231 1.259 . S
C211 O234 1.258 . S
Co212 N221 2.057 . S
Co212 O228 2.117 . S
Co212 O229 2.020 1_455 S
Co212 O231 2.021 . S
Co212 O236 2.062 . S
C213 N215 1.316 . S
C213 N216 1.347 . S
C213 H218 0.931 . S
C214 N215 1.375 . S
C214 C217 1.350 . S
C214 H219 0.930 . S
N215 Co210 2.057 . S
N215 C213 1.316 . S
N215 C214 1.375 . S
N216 C213 1.347 . S
N216 C217 1.373 . S
C217 C214 1.350 . S
C217 N216 1.373 . S
C217 H238 0.931 . S
H218 C213 0.931 . S
H219 C214 0.930 . S
C220 O227 1.259 1_455 S
C220 O228 1.258 . S
N221 Co212 2.057 . S
N221 C222 1.316 . S
N221 C223 1.375 . S
C222 N221 1.316 . S
C222 N224 1.347 . S
C222 H233 0.931 . S
C223 N221 1.375 . S
C223 C225 1.350 . S
C223 H232 0.930 . S
N224 C222 1.347 . S
N224 C225 1.373 . S
C225 C223 1.350 . S
C225 N224 1.373 . S
C225 H239 0.978 . S
C226 O229 1.256 . S
C226 O230 1.255 . S
O227 Co210 2.021 . S
O227 C220 1.259 1_655 S
O228 Co212 2.117 . S
O228 C220 1.258 . S
O229 Co212 2.020 1_655 S
O229 C226 1.256 . S
O230 Co210 2.062 . S
O230 C226 1.255 . S
O231 C211 1.259 . S
O231 Co212 2.021 . S
H232 C223 0.930 . S
H233 C222 0.931 . S
O234 Co210 2.117 1_455 S
O234 C211 1.258 . S
O235 Co210 2.020 1_455 S
O235 C237 1.256 . S
O236 Co212 2.062 . S
O236 C237 1.255 . S
C237 O235 1.256 . S
C237 O236 1.255 . S
H238 C217 0.931 . S
H239 C225 0.978 . S
Co240 N245 2.057 . S
Co240 O257 2.021 . S
Co240 O260 2.062 . S
Co240 O264 2.117 . S
Co240 O265 2.020 . S
C241 O261 1.259 . S
C241 O264 1.258 . S
Co242 N251 2.057 . S
Co242 O258 2.117 . S
Co242 O259 2.020 . S
Co242 O261 2.021 . S
Co242 O266 2.062 . S
C243 N245 1.316 . S
C243 N246 1.347 . S
C243 H248 0.931 . S
C244 N245 1.375 . S
C244 C247 1.350 . S
C244 H249 0.930 . S
N245 Co240 2.057 . S
N245 C243 1.316 . S
N245 C244 1.375 . S
N246 C243 1.347 . S
N246 C247 1.373 . S
C247 C244 1.350 . S
C247 N246 1.373 . S
C247 H268 0.931 . S
H248 C243 0.931 . S
H249 C244 0.930 . S
C250 O257 1.259 . S
C250 O258 1.258 . S
N251 Co242 2.057 . S
N251 C252 1.316 . S
N251 C253 1.375 . S
C252 N251 1.316 . S
C252 N254 1.347 . S
C252 H263 0.931 . S
C253 N251 1.375 . S
C253 C255 1.350 . S
C253 H262 0.930 . S
N254 C252 1.347 . S
N254 C255 1.373 . S
C255 C253 1.350 . S
C255 N254 1.373 . S
C255 H269 0.978 . S
C256 O259 1.256 . S
C256 O260 1.255 . S
O257 Co240 2.021 . S
O257 C250 1.259 . S
O258 Co242 2.117 . S
O258 C250 1.258 . S
O259 Co242 2.020 . S
O259 C256 1.256 . S
O260 Co240 2.062 . S
O260 C256 1.255 . S
O261 C241 1.259 . S
O261 Co242 2.021 . S
H262 C253 0.930 . S
H263 C252 0.931 . S
O264 Co240 2.117 . S
O264 C241 1.258 . S
O265 Co240 2.020 . S
O265 C267 1.256 . S
O266 Co242 2.062 . S
O266 C267 1.255 . S
C267 O265 1.256 . S
C267 O266 1.255 . S
H268 C247 0.931 . S
H269 C255 0.978 . S
Co270 N275 2.057 . S
Co270 O287 2.021 . S
Co270 O290 2.062 . S
Co270 O294 2.117 . S
Co270 O295 2.020 1_655 S
C271 O291 1.259 . S
C271 O294 1.258 1_455 S
Co272 N281 2.057 . S
Co272 O288 2.117 . S
Co272 O289 2.020 1_455 S
Co272 O291 2.021 . S
Co272 O296 2.062 . S
C273 N275 1.316 . S
C273 N276 1.347 . S
C273 H278 0.931 . S
C274 N275 1.375 . S
C274 C277 1.350 . S
C274 H279 0.930 . S
N275 Co270 2.057 . S
N275 C273 1.316 . S
N275 C274 1.375 . S
N276 C273 1.347 . S
N276 C277 1.373 . S
C277 C274 1.350 . S
C277 N276 1.373 . S
C277 H298 0.931 . S
H278 C273 0.931 . S
H279 C274 0.930 . S
C280 O287 1.259 1_455 S
C280 O288 1.258 . S
N281 Co272 2.057 . S
N281 C282 1.316 . S
N281 C283 1.375 . S
C282 N281 1.316 . S
C282 N284 1.347 . S
C282 H293 0.931 . S
C283 N281 1.375 . S
C283 C285 1.350 . S
C283 H292 0.930 . S
N284 C282 1.347 . S
N284 C285 1.373 . S
C285 C283 1.350 . S
C285 N284 1.373 . S
C285 H299 0.931 . S
C286 O289 1.256 . S
C286 O290 1.255 . S
O287 Co270 2.021 . S
O287 C280 1.259 1_655 S
O288 Co272 2.117 . S
O288 C280 1.258 . S
O289 Co272 2.020 1_655 S
O289 C286 1.256 . S
O290 Co270 2.062 . S
O290 C286 1.255 . S
O291 C271 1.259 . S
O291 Co272 2.021 . S
H292 C283 0.930 . S
H293 C282 0.931 . S
O294 Co270 2.117 . S
O294 C271 1.258 1_655 S
O295 Co270 2.020 1_455 S
O295 C297 1.256 . S
O296 Co272 2.062 . S
O296 C297 1.255 . S
C297 O295 1.256 . S
C297 O296 1.255 . S
H298 C277 0.931 . S
H299 C285 0.931 . S
Co300 N305 2.057 . S
Co300 O317 2.021 . S
Co300 O320 2.062 . S
Co300 O324 2.117 . S
Co300 O325 2.020 . S
C301 O321 1.259 . S
C301 O324 1.258 . S
Co302 N311 2.057 . S
Co302 O318 2.117 . S
Co302 O319 2.020 . S
Co302 O321 2.021 . S
Co302 O326 2.062 . S
C303 N305 1.316 . S
C303 N306 1.347 . S
C303 H308 0.931 . S
C304 N305 1.375 . S
C304 C307 1.350 . S
C304 H309 0.930 . S
N305 Co300 2.057 . S
N305 C303 1.316 . S
N305 C304 1.375 . S
N306 C303 1.347 . S
N306 C307 1.373 . S
C307 C304 1.350 . S
C307 N306 1.373 . S
C307 H328 0.931 . S
H308 C303 0.931 . S
H309 C304 0.930 . S
C310 O317 1.259 . S
C310 O318 1.258 . S
N311 Co302 2.057 . S
N311 C312 1.316 . S
N311 C313 1.375 . S
C312 N311 1.316 . S
C312 N314 1.347 . S
C312 H323 0.931 . S
C313 N311 1.375 . S
C313 C315 1.350 . S
C313 H322 0.930 . S
N314 C312 1.347 . S
N314 C315 1.373 . S
C315 C313 1.350 . S
C315 N314 1.373 . S
C315 H329 0.931 . S
C316 O319 1.256 . S
C316 O320 1.255 . S
O317 Co300 2.021 . S
O317 C310 1.259 . S
O318 Co302 2.117 . S
O318 C310 1.258 . S
O319 Co302 2.020 . S
O319 C316 1.256 . S
O320 Co300 2.062 . S
O320 C316 1.255 . S
O321 C301 1.259 . S
O321 Co302 2.021 . S
H322 C313 0.930 . S
H323 C312 0.931 . S
O324 Co300 2.117 . S
O324 C301 1.258 . S
O325 Co300 2.020 . S
O325 C327 1.256 . S
O326 Co302 2.062 . S
O326 C327 1.255 . S
C327 O325 1.256 . S
C327 O326 1.255 . S
H328 C307 0.931 . S
H329 C315 0.931 . S
Co330 N335 2.057 . S
Co330 O347 2.021 . S
Co330 O350 2.062 . S
Co330 O354 2.117 . S
Co330 O355 2.020 1_545 S
C331 O351 1.259 1_545 S
C331 O354 1.258 . S
Co332 N341 2.057 . S
Co332 O348 2.117 1_565 S
Co332 O349 2.020 1_565 S
Co332 O351 2.021 . S
Co332 O356 2.062 . S
C333 N335 1.316 . S
C333 N336 1.347 . S
C333 H338 0.931 . S
C334 N335 1.375 . S
C334 C337 1.350 . S
C334 H339 0.930 . S
N335 Co330 2.057 . S
N335 C333 1.316 . S
N335 C334 1.375 . S
N336 C333 1.347 . S
N336 C337 1.373 . S
C337 C334 1.350 . S
C337 N336 1.373 . S
C337 H358 0.931 . S
H338 C333 0.931 . S
H339 C334 0.930 . S
C340 O347 1.259 . S
C340 O348 1.258 . S
N341 Co332 2.057 . S
N341 C342 1.316 . S
N341 C343 1.375 . S
C342 N341 1.316 . S
C342 N344 1.347 . S
C342 H353 0.931 . S
C343 N341 1.375 . S
C343 C345 1.350 . S
C343 H352 0.930 . S
N344 C342 1.347 . S
N344 C345 1.373 . S
C345 C343 1.350 . S
C345 N344 1.373 . S
C345 H359 0.931 . S
C346 O349 1.256 . S
C346 O350 1.255 . S
O347 Co330 2.021 . S
O347 C340 1.259 . S
O348 Co332 2.117 1_545 S
O348 C340 1.258 . S
O349 Co332 2.020 1_545 S
O349 C346 1.256 . S
O350 Co330 2.062 . S
O350 C346 1.255 . S
O351 C331 1.259 1_565 S
O351 Co332 2.021 . S
H352 C343 0.930 . S
H353 C342 0.931 . S
O354 Co330 2.117 . S
O354 C331 1.258 . S
O355 Co330 2.020 1_565 S
O355 C357 1.256 . S
O356 Co332 2.062 . S
O356 C357 1.255 . S
C357 O355 1.256 . S
C357 O356 1.255 . S
H358 C337 0.931 . S
H359 C345 0.931 . S
Co360 N365 2.057 . S
Co360 O377 2.021 . S
Co360 O380 2.062 . S
Co360 O384 2.117 . S
Co360 O385 2.020 . S
C361 O381 1.259 . S
C361 O384 1.258 . S
Co362 N371 2.057 . S
Co362 O378 2.117 . S
Co362 O379 2.020 . S
Co362 O381 2.021 . S
Co362 O386 2.062 . S
C363 N365 1.316 . S
C363 N366 1.347 . S
C363 H368 0.931 . S
C364 N365 1.375 . S
C364 C367 1.350 . S
C364 H369 0.930 . S
N365 Co360 2.057 . S
N365 C363 1.316 . S
N365 C364 1.375 . S
N366 C363 1.347 . S
N366 C367 1.373 . S
C367 C364 1.350 . S
C367 N366 1.373 . S
C367 H388 0.931 . S
H368 C363 0.931 . S
H369 C364 0.930 . S
C370 O377 1.259 . S
C370 O378 1.258 . S
N371 Co362 2.057 . S
N371 C372 1.316 . S
N371 C373 1.375 . S
C372 N371 1.316 . S
C372 N374 1.347 . S
C372 H383 0.931 . S
C373 N371 1.375 . S
C373 C375 1.350 . S
C373 H382 0.930 . S
N374 C372 1.347 . S
N374 C375 1.373 . S
C375 C373 1.350 . S
C375 N374 1.373 . S
C375 H389 0.931 . S
C376 O379 1.256 . S
C376 O380 1.255 . S
O377 Co360 2.021 . S
O377 C370 1.259 . S
O378 Co362 2.117 . S
O378 C370 1.258 . S
O379 Co362 2.020 . S
O379 C376 1.256 . S
O380 Co360 2.062 . S
O380 C376 1.255 . S
O381 C361 1.259 . S
O381 Co362 2.021 . S
H382 C373 0.930 . S
H383 C372 0.931 . S
O384 Co360 2.117 . S
O384 C361 1.258 . S
O385 Co360 2.020 . S
O385 C387 1.256 . S
O386 Co362 2.062 . S
O386 C387 1.255 . S
C387 O385 1.256 . S
C387 O386 1.255 . S
H388 C367 0.931 . S
H389 C375 0.931 . S
Co390 N395 2.057 . S
Co390 O407 2.021 . S
Co390 O410 2.062 . S
Co390 O414 2.117 . S
Co390 O415 2.020 . S
C391 O411 1.259 . S
C391 O414 1.258 . S
Co392 N401 2.057 1_565 S
Co392 O408 2.117 . S
Co392 O409 2.020 . S
Co392 O411 2.021 . S
Co392 O416 2.062 . S
C393 N395 1.316 . S
C393 N396 1.347 . S
C393 H398 0.931 . S
C394 N395 1.375 . S
C394 C397 1.350 . S
C394 H399 0.930 . S
N395 Co390 2.057 . S
N395 C393 1.316 . S
N395 C394 1.375 . S
N396 C393 1.347 . S
N396 C397 1.373 . S
C397 C394 1.350 . S
C397 N396 1.373 . S
C397 H418 0.931 . S
H398 C393 0.931 . S
H399 C394 0.930 . S
C400 O407 1.259 . S
C400 O408 1.258 . S
N401 Co392 2.057 1_545 S
N401 C402 1.316 . S
N401 C403 1.375 . S
C402 N401 1.316 . S
C402 N404 1.347 . S
C402 H413 0.931 . S
C403 N401 1.375 . S
C403 C405 1.350 . S
C403 H412 0.930 . S
N404 C402 1.347 . S
N404 C405 1.373 . S
C405 C403 1.350 . S
C405 N404 1.373 . S
C405 H419 0.931 . S
C406 O409 1.256 . S
C406 O410 1.255 . S
O407 Co390 2.021 . S
O407 C400 1.259 . S
O408 Co392 2.117 . S
O408 C400 1.258 . S
O409 Co392 2.020 . S
O409 C406 1.256 . S
O410 Co390 2.062 . S
O410 C406 1.255 . S
O411 C391 1.259 . S
O411 Co392 2.021 . S
H412 C403 0.930 . S
H413 C402 0.931 . S
O414 Co390 2.117 . S
O414 C391 1.258 . S
O415 Co390 2.020 . S
O415 C417 1.256 . S
O416 Co392 2.062 . S
O416 C417 1.255 . S
C417 O415 1.256 . S
C417 O416 1.255 . S
H418 C397 0.931 . S
H419 C405 0.931 . S
Co420 N425 2.057 . S
Co420 O437 2.021 . S
Co420 O440 2.062 . S
Co420 O444 2.117 . S
Co420 O445 2.020 1_565 S
C421 O441 1.259 . S
C421 O444 1.258 . S
Co422 N431 2.057 . S
Co422 O438 2.117 . S
Co422 O439 2.020 . S
Co422 O441 2.021 . S
Co422 O446 2.062 . S
C423 N425 1.316 . S
C423 N426 1.347 . S
C423 H428 0.931 . S
C424 N425 1.375 . S
C424 C427 1.350 . S
C424 H429 0.930 . S
N425 Co420 2.057 . S
N425 C423 1.316 . S
N425 C424 1.375 . S
N426 C423 1.347 . S
N426 C427 1.373 . S
C427 C424 1.350 . S
C427 N426 1.373 . S
C427 H448 0.931 . S
H428 C423 0.931 . S
H429 C424 0.930 . S
C430 O437 1.259 . S
C430 O438 1.258 . S
N431 Co422 2.057 . S
N431 C432 1.316 1_455 S
N431 C433 1.375 . S
C432 N431 1.316 1_655 S
C432 N434 1.347 . S
C432 H443 0.931 . S
C433 N431 1.375 . S
C433 C435 1.350 1_455 S
C433 H442 0.930 . S
N434 C432 1.347 . S
N434 C435 1.373 . S
C435 C433 1.350 1_655 S
C435 N434 1.373 . S
C435 H449 0.931 . S
C436 O439 1.256 . S
C436 O440 1.255 . S
O437 Co420 2.021 . S
O437 C430 1.259 . S
O438 Co422 2.117 . S
O438 C430 1.258 . S
O439 Co422 2.020 . S
O439 C436 1.256 . S
O440 Co420 2.062 . S
O440 C436 1.255 . S
O441 C421 1.259 . S
O441 Co422 2.021 . S
H442 C433 0.930 . S
H443 C432 0.931 . S
O444 Co420 2.117 . S
O444 C421 1.258 . S
O445 Co420 2.020 1_545 S
O445 C447 1.256 . S
O446 Co422 2.062 . S
O446 C447 1.255 1_565 S
C447 O445 1.256 . S
C447 O446 1.255 1_545 S
H448 C427 0.931 . S
H449 C435 0.931 . S
Co450 N455 2.057 . S
Co450 O467 2.021 . S
Co450 O470 2.062 . S
Co450 O474 2.117 . S
Co450 O475 2.020 . S
C451 O471 1.259 . S
C451 O474 1.258 . S
Co452 N461 2.057 1_565 S
Co452 O468 2.117 . S
Co452 O469 2.020 . S
Co452 O471 2.021 . S
Co452 O476 2.062 . S
C453 N455 1.316 . S
C453 N456 1.347 . S
C453 H458 0.931 . S
C454 N455 1.375 . S
C454 C457 1.350 . S
C454 H459 0.930 . S
N455 Co450 2.057 . S
N455 C453 1.316 . S
N455 C454 1.375 . S
N456 C453 1.347 . S
N456 C457 1.373 . S
C457 C454 1.350 . S
C457 N456 1.373 . S
C457 H478 0.931 . S
H458 C453 0.931 . S
H459 C454 0.930 . S
C460 O467 1.259 . S
C460 O468 1.258 . S
N461 Co452 2.057 1_545 S
N461 C462 1.316 . S
N461 C463 1.375 . S
C462 N461 1.316 . S
C462 N464 1.347 . S
C462 H473 0.931 . S
C463 N461 1.375 . S
C463 C465 1.350 . S
C463 H472 0.930 . S
N464 C462 1.347 . S
N464 C465 1.373 . S
C465 C463 1.350 . S
C465 N464 1.373 . S
C465 H479 0.931 . S
C466 O469 1.256 . S
C466 O470 1.255 . S
O467 Co450 2.021 . S
O467 C460 1.259 . S
O468 Co452 2.117 . S
O468 C460 1.258 . S
O469 Co452 2.020 . S
O469 C466 1.256 . S
O470 Co450 2.062 . S
O470 C466 1.255 . S
O471 C451 1.259 . S
O471 Co452 2.021 . S
H472 C463 0.930 . S
H473 C462 0.931 . S
O474 Co450 2.117 . S
O474 C451 1.258 . S
O475 Co450 2.020 . S
O475 C477 1.256 . S
O476 Co452 2.062 . S
O476 C477 1.255 . S
C477 O475 1.256 . S
C477 O476 1.255 . S
H478 C457 0.931 . S
H479 C465 0.931 . S
Co480 N485 2.057 . S
Co480 O497 2.021 . S
Co480 O500 2.062 . S
Co480 O504 2.117 . S
Co480 O505 2.020 1_565 S
C481 O501 1.259 . S
C481 O504 1.258 . S
Co482 N491 2.057 . S
Co482 O498 2.117 . S
Co482 O499 2.020 . S
Co482 O501 2.021 . S
Co482 O506 2.062 . S
C483 N485 1.316 . S
C483 N486 1.347 . S
C483 H488 0.931 . S
C484 N485 1.375 . S
C484 C487 1.350 1_565 S
C484 H489 0.930 1_565 S
N485 Co480 2.057 . S
N485 C483 1.316 . S
N485 C484 1.375 . S
N486 C483 1.347 . S
N486 C487 1.373 1_565 S
C487 C484 1.350 1_545 S
C487 N486 1.373 1_545 S
C487 H508 0.931 . S
H488 C483 0.931 . S
H489 C484 0.930 1_545 S
C490 O497 1.259 . S
C490 O498 1.258 . S
N491 Co482 2.057 . S
N491 C492 1.316 1_455 S
N491 C493 1.375 1_455 S
C492 N491 1.316 1_655 S
C492 N494 1.347 . S
C492 H503 0.931 . S
C493 N491 1.375 1_655 S
C493 C495 1.350 . S
C493 H502 0.930 . S
N494 C492 1.347 . S
N494 C495 1.373 . S
C495 C493 1.350 . S
C495 N494 1.373 . S
C495 H509 0.931 . S
C496 O499 1.256 . S
C496 O500 1.255 . S
O497 Co480 2.021 . S
O497 C490 1.259 . S
O498 Co482 2.117 . S
O498 C490 1.258 . S
O499 Co482 2.020 . S
O499 C496 1.256 . S
O500 Co480 2.062 . S
O500 C496 1.255 . S
O501 C481 1.259 . S
O501 Co482 2.021 . S
H502 C493 0.930 . S
H503 C492 0.931 . S
O504 Co480 2.117 . S
O504 C481 1.258 . S
O505 Co480 2.020 1_545 S
O505 C507 1.256 . S
O506 Co482 2.062 . S
O506 C507 1.255 1_565 S
C507 O505 1.256 . S
C507 O506 1.255 1_545 S
H508 C487 0.931 . S
H509 C495 0.931 . S
Co510 N515 2.057 . S
Co510 O527 2.021 . S
Co510 O530 2.062 . S
Co510 O534 2.117 . S
Co510 O535 2.020 . S
C511 O531 1.259 . S
C511 O534 1.258 . S
Co512 N521 2.057 . S
Co512 O528 2.117 . S
Co512 O529 2.020 . S
Co512 O531 2.021 . S
Co512 O536 2.062 . S
C513 N515 1.316 . S
C513 N516 1.347 . S
C513 H518 0.931 . S
C514 N515 1.375 . S
C514 C517 1.350 . S
C514 H519 0.930 . S
N515 Co510 2.057 . S
N515 C513 1.316 . S
N515 C514 1.375 . S
N516 C513 1.347 . S
N516 C517 1.373 . S
C517 C514 1.350 . S
C517 N516 1.373 . S
C517 H538 0.931 . S
H518 C513 0.931 . S
H519 C514 0.930 . S
C520 O527 1.259 . S
C520 O528 1.258 . S
N521 Co512 2.057 . S
N521 C522 1.316 . S
N521 C523 1.375 . S
C522 N521 1.316 . S
C522 N524 1.347 . S
C522 H533 0.931 . S
C523 N521 1.375 . S
C523 C525 1.350 . S
C523 H532 0.930 . S
N524 C522 1.347 . S
N524 C525 1.373 . S
C525 C523 1.350 . S
C525 N524 1.373 . S
C525 H539 0.931 . S
C526 O529 1.256 . S
C526 O530 1.255 . S
O527 Co510 2.021 . S
O527 C520 1.259 . S
O528 Co512 2.117 . S
O528 C520 1.258 . S
O529 Co512 2.020 . S
O529 C526 1.256 . S
O530 Co510 2.062 . S
O530 C526 1.255 . S
O531 C511 1.259 . S
O531 Co512 2.021 . S
H532 C523 0.930 . S
H533 C522 0.931 . S
O534 Co510 2.117 . S
O534 C511 1.258 . S
O535 Co510 2.020 . S
O535 C537 1.256 . S
O536 Co512 2.062 . S
O536 C537 1.255 . S
C537 O535 1.256 . S
C537 O536 1.255 . S
H538 C517 0.931 . S
H539 C525 0.931 . S
Co540 N545 2.057 . S
Co540 O557 2.021 . S
Co540 O560 2.062 . S
Co540 O564 2.117 . S
Co540 O565 2.020 . S
C541 O561 1.259 . S
C541 O564 1.258 . S
Co542 N551 2.057 . S
Co542 O558 2.117 . S
Co542 O559 2.020 . S
Co542 O561 2.021 . S
Co542 O566 2.062 . S
C543 N545 1.316 . S
C543 N546 1.347 . S
C543 H548 0.931 . S
C544 N545 1.375 . S
C544 C547 1.350 . S
C544 H549 0.930 . S
N545 Co540 2.057 . S
N545 C543 1.316 . S
N545 C544 1.375 . S
N546 C543 1.347 . S
N546 C547 1.373 . S
C547 C544 1.350 . S
C547 N546 1.373 . S
C547 H568 0.931 . S
H548 C543 0.931 . S
H549 C544 0.930 . S
C550 O557 1.259 . S
C550 O558 1.258 . S
N551 Co542 2.057 . S
N551 C552 1.316 . S
N551 C553 1.375 . S
C552 N551 1.316 . S
C552 N554 1.347 . S
C552 H563 0.931 . S
C553 N551 1.375 . S
C553 C555 1.350 . S
C553 H562 0.930 . S
N554 C552 1.347 . S
N554 C555 1.373 . S
C555 C553 1.350 . S
C555 N554 1.373 . S
C555 H569 0.931 . S
C556 O559 1.256 . S
C556 O560 1.255 . S
O557 Co540 2.021 . S
O557 C550 1.259 . S
O558 Co542 2.117 . S
O558 C550 1.258 . S
O559 Co542 2.020 . S
O559 C556 1.256 . S
O560 Co540 2.062 . S
O560 C556 1.255 . S
O561 C541 1.259 . S
O561 Co542 2.021 . S
H562 C553 0.930 . S
H563 C552 0.931 . S
O564 Co540 2.117 . S
O564 C541 1.258 . S
O565 Co540 2.020 . S
O565 C567 1.256 . S
O566 Co542 2.062 . S
O566 C567 1.255 . S
C567 O565 1.256 . S
C567 O566 1.255 . S
H568 C547 0.931 . S
H569 C555 0.931 . S
Co570 N575 2.057 . S
Co570 O587 2.021 . S
Co570 O590 2.062 . S
Co570 O594 2.117 . S
Co570 O595 2.020 . S
C571 O591 1.259 1_565 S
C571 O594 1.258 . S
Co572 N581 2.057 1_565 S
Co572 O588 2.117 . S
Co572 O589 2.020 . S
Co572 O591 2.021 1_565 S
Co572 O596 2.062 . S
C573 N575 1.316 . S
C573 N576 1.347 . S
C573 H578 0.931 . S
C574 N575 1.375 . S
C574 C577 1.350 . S
C574 H579 0.930 . S
N575 Co570 2.057 . S
N575 C573 1.316 . S
N575 C574 1.375 . S
N576 C573 1.347 . S
N576 C577 1.373 . S
C577 C574 1.350 . S
C577 N576 1.373 . S
C577 H598 0.931 . S
H578 C573 0.931 . S
H579 C574 0.930 . S
C580 O587 1.259 . S
C580 O588 1.258 . S
N581 Co572 2.057 1_545 S
N581 C582 1.316 . S
N581 C583 1.375 . S
C582 N581 1.316 . S
C582 N584 1.347 . S
C582 H593 0.931 . S
C583 N581 1.375 . S
C583 C585 1.350 . S
C583 H592 0.930 . S
N584 C582 1.347 . S
N584 C585 1.373 . S
C585 C583 1.350 . S
C585 N584 1.373 . S
C585 H599 0.931 . S
C586 O589 1.256 . S
C586 O590 1.255 . S
O587 Co570 2.021 . S
O587 C580 1.259 . S
O588 Co572 2.117 . S
O588 C580 1.258 . S
O589 Co572 2.020 . S
O589 C586 1.256 . S
O590 Co570 2.062 . S
O590 C586 1.255 . S
O591 C571 1.259 1_545 S
O591 Co572 2.021 1_545 S
H592 C583 0.930 . S
H593 C582 0.931 . S
O594 Co570 2.117 . S
O594 C571 1.258 . S
O595 Co570 2.020 . S
O595 C597 1.256 . S
O596 Co572 2.062 . S
O596 C597 1.255 . S
C597 O595 1.256 . S
C597 O596 1.255 . S
H598 C577 0.931 . S
H599 C585 0.931 . S
Co600 N605 2.057 . S
Co600 O617 2.021 . S
Co600 O620 2.062 . S
Co600 O624 2.117 . S
Co600 O625 2.020 . S
C601 O621 1.259 . S
C601 O624 1.258 . S
Co602 N611 2.057 1_455 S
Co602 O618 2.117 . S
Co602 O619 2.020 . S
Co602 O621 2.021 . S
Co602 O626 2.062 . S
C603 N605 1.316 . S
C603 N606 1.347 . S
C603 H608 0.931 . S
C604 N605 1.375 . S
C604 C607 1.350 . S
C604 H609 0.930 . S
N605 Co600 2.057 . S
N605 C603 1.316 . S
N605 C604 1.375 . S
N606 C603 1.347 . S
N606 C607 1.373 . S
C607 C604 1.350 . S
C607 N606 1.373 . S
C607 H628 0.931 . S
H608 C603 0.931 . S
H609 C604 0.930 . S
C610 O617 1.259 . S
C610 O618 1.258 . S
N611 Co602 2.057 1_655 S
N611 C612 1.316 . S
N611 C613 1.375 . S
C612 N611 1.316 . S
C612 N614 1.347 . S
C612 H623 0.931 . S
C613 N611 1.375 . S
C613 C615 1.350 . S
C613 H622 0.930 . S
N614 C612 1.347 . S
N614 C615 1.373 . S
C615 C613 1.350 . S
C615 N614 1.373 . S
C615 H629 0.931 . S
C616 O619 1.256 . S
C616 O620 1.255 . S
O617 Co600 2.021 . S
O617 C610 1.259 . S
O618 Co602 2.117 . S
O618 C610 1.258 . S
O619 Co602 2.020 . S
O619 C616 1.256 . S
O620 Co600 2.062 . S
O620 C616 1.255 . S
O621 C601 1.259 . S
O621 Co602 2.021 . S
H622 C613 0.930 . S
H623 C612 0.931 . S
O624 Co600 2.117 . S
O624 C601 1.258 . S
O625 Co600 2.020 . S
O625 C627 1.249 1_565 S
O626 Co602 2.062 . S
O626 C627 1.252 1_565 S
C627 O625 1.249 1_545 S
C627 O626 1.252 1_545 S
H628 C607 0.931 . S
H629 C615 0.931 . S
Co630 N635 2.057 . S
Co630 O647 2.021 . S
Co630 O650 2.062 . S
Co630 O654 2.117 . S
Co630 O655 2.020 . S
C631 O651 1.259 . S
C631 O654 1.258 . S
Co632 N641 2.057 1_565 S
Co632 O648 2.117 . S
Co632 O649 2.020 . S
Co632 O651 2.021 . S
Co632 O656 2.062 . S
C633 N635 1.316 . S
C633 N636 1.347 . S
C633 H638 0.931 . S
C634 N635 1.375 . S
C634 C637 1.350 . S
C634 H639 0.930 . S
N635 Co630 2.057 . S
N635 C633 1.316 . S
N635 C634 1.375 . S
N636 C633 1.347 . S
N636 C637 1.373 . S
C637 C634 1.350 . S
C637 N636 1.373 . S
C637 H658 0.931 . S
H638 C633 0.931 . S
H639 C634 0.930 . S
C640 O647 1.259 . S
C640 O648 1.258 . S
N641 Co632 2.057 1_545 S
N641 C642 1.316 . S
N641 C643 1.375 . S
C642 N641 1.316 . S
C642 N644 1.347 . S
C642 H653 0.931 . S
C643 N641 1.375 . S
C643 C645 1.350 . S
C643 H652 0.930 . S
N644 C642 1.347 . S
N644 C645 1.373 . S
C645 C643 1.350 . S
C645 N644 1.373 . S
C645 H659 0.931 . S
C646 O649 1.256 . S
C646 O650 1.255 . S
O647 Co630 2.021 . S
O647 C640 1.259 . S
O648 Co632 2.117 . S
O648 C640 1.258 . S
O649 Co632 2.020 . S
O649 C646 1.256 . S
O650 Co630 2.062 . S
O650 C646 1.255 . S
O651 C631 1.259 . S
O651 Co632 2.021 . S
H652 C643 0.930 . S
H653 C642 0.931 . S
O654 Co630 2.117 . S
O654 C631 1.258 . S
O655 Co630 2.020 . S
O655 C657 1.256 . S
O656 Co632 2.062 . S
O656 C657 1.255 . S
C657 O655 1.256 . S
C657 O656 1.255 . S
H658 C637 0.931 . S
H659 C645 0.931 . S
Co660 N665 2.057 . S
Co660 O677 2.021 . S
Co660 O680 2.062 . S
Co660 O684 2.117 . S
Co660 O685 2.020 . S
C661 O681 1.259 . S
C661 O684 1.258 . S
Co662 N671 2.057 1_455 S
Co662 O678 2.117 . S
Co662 O679 2.020 . S
Co662 O681 2.021 . S
Co662 O686 2.062 . S
C663 N665 1.316 . S
C663 N666 1.347 . S
C663 H668 0.931 . S
C664 N665 1.375 . S
C664 C667 1.350 . S
C664 H669 0.930 . S
N665 Co660 2.057 . S
N665 C663 1.316 . S
N665 C664 1.375 . S
N666 C663 1.347 . S
N666 C667 1.373 . S
C667 C664 1.350 . S
C667 N666 1.373 . S
C667 H688 0.931 . S
H668 C663 0.931 . S
H669 C664 0.930 . S
C670 O677 1.259 . S
C670 O678 1.258 . S
N671 Co662 2.057 1_655 S
N671 C672 1.316 . S
N671 C673 1.375 . S
C672 N671 1.316 . S
C672 N674 1.347 . S
C672 H683 0.931 . S
C673 N671 1.375 . S
C673 C675 1.350 . S
C673 H682 0.930 . S
N674 C672 1.347 . S
N674 C675 1.373 . S
C675 C673 1.350 . S
C675 N674 1.373 . S
C675 H689 0.931 . S
C676 O679 1.256 . S
C676 O680 1.255 . S
O677 Co660 2.021 . S
O677 C670 1.259 . S
O678 Co662 2.117 . S
O678 C670 1.258 . S
O679 Co662 2.020 . S
O679 C676 1.256 . S
O680 Co660 2.062 . S
O680 C676 1.255 . S
O681 C661 1.259 . S
O681 Co662 2.021 . S
H682 C673 0.930 . S
H683 C672 0.931 . S
O684 Co660 2.117 . S
O684 C661 1.258 . S
O685 Co660 2.020 . S
O685 C687 1.256 . S
O686 Co662 2.062 . S
O686 C687 1.255 . S
C687 O685 1.256 . S
C687 O686 1.255 . S
H688 C667 0.931 . S
H689 C675 0.931 . S
Co690 N695 2.057 . S
Co690 O707 2.021 . S
Co690 O710 2.062 . S
Co690 O714 2.117 . S
Co690 O715 2.020 . S
C691 O711 1.259 . S
C691 O714 1.258 . S
Co692 N701 2.057 . S
Co692 O708 2.117 . S
Co692 O709 2.020 . S
Co692 O711 2.021 . S
Co692 O716 2.062 . S
C693 N695 1.316 . S
C693 N696 1.347 . S
C693 H698 0.931 . S
C694 N695 1.375 . S
C694 C697 1.350 . S
C694 H699 0.930 . S
N695 Co690 2.057 . S
N695 C693 1.316 . S
N695 C694 1.375 . S
N696 C693 1.347 . S
N696 C697 1.373 . S
C697 C694 1.350 . S
C697 N696 1.373 . S
C697 H718 0.931 . S
H698 C693 0.931 . S
H699 C694 0.930 . S
C700 O707 1.259 . S
C700 O708 1.258 . S
N701 Co692 2.057 . S
N701 C702 1.316 . S
N701 C703 1.375 . S
C702 N701 1.316 . S
C702 N704 1.347 . S
C702 H713 0.931 . S
C703 N701 1.375 . S
C703 C705 1.350 . S
C703 H712 0.930 . S
N704 C702 1.347 . S
N704 C705 1.373 . S
C705 C703 1.350 . S
C705 N704 1.373 . S
C705 H719 0.931 . S
C706 O709 1.256 . S
C706 O710 1.255 . S
O707 Co690 2.021 . S
O707 C700 1.259 . S
O708 Co692 2.117 . S
O708 C700 1.258 . S
O709 Co692 2.020 . S
O709 C706 1.256 . S
O710 Co690 2.062 . S
O710 C706 1.255 . S
O711 C691 1.259 . S
O711 Co692 2.021 . S
H712 C703 0.930 . S
H713 C702 0.931 . S
O714 Co690 2.117 . S
O714 C691 1.258 . S
O715 Co690 2.020 . S
O715 C717 1.256 . S
O716 Co692 2.062 . S
O716 C717 1.255 . S
C717 O715 1.256 . S
C717 O716 1.255 . S
H718 C697 0.931 . S
H719 C705 0.931 . S
Co720 N725 2.057 . S
Co720 O737 2.021 . S
Co720 O740 2.062 . S
Co720 O744 2.117 . S
Co720 O745 2.020 . S
C721 O741 1.259 . S
C721 O744 1.258 . S
Co722 N731 2.057 . S
Co722 O738 2.117 . S
Co722 O739 2.020 . S
Co722 O741 2.021 . S
Co722 O746 2.062 . S
C723 N725 1.316 . S
C723 N726 1.347 . S
C723 H728 0.931 . S
C724 N725 1.375 . S
C724 C727 1.350 . S
C724 H729 0.930 . S
N725 Co720 2.057 . S
N725 C723 1.316 . S
N725 C724 1.375 . S
N726 C723 1.347 . S
N726 C727 1.373 . S
C727 C724 1.350 . S
C727 N726 1.373 . S
C727 H748 0.931 . S
H728 C723 0.931 . S
H729 C724 0.930 . S
C730 O737 1.259 . S
C730 O738 1.258 . S
N731 Co722 2.057 . S
N731 C732 1.316 . S
N731 C733 1.375 . S
C732 N731 1.316 . S
C732 N734 1.347 . S
C732 H743 0.931 . S
C733 N731 1.375 . S
C733 C735 1.350 . S
C733 H742 0.930 . S
N734 C732 1.347 . S
N734 C735 1.373 . S
C735 C733 1.350 . S
C735 N734 1.373 . S
C735 H749 0.931 . S
C736 O739 1.260 1_455 S
C736 O740 1.244 1_455 S
O737 Co720 2.021 . S
O737 C730 1.259 . S
O738 Co722 2.117 . S
O738 C730 1.258 . S
O739 Co722 2.020 . S
O739 C736 1.260 1_655 S
O740 Co720 2.062 . S
O740 C736 1.244 1_655 S
O741 C721 1.259 . S
O741 Co722 2.021 . S
H742 C733 0.930 . S
H743 C732 0.931 . S
O744 Co720 2.117 . S
O744 C721 1.258 . S
O745 Co720 2.020 . S
O745 C747 1.256 . S
O746 Co722 2.062 . S
O746 C747 1.255 . S
C747 O745 1.256 . S
C747 O746 1.255 . S
H748 C727 0.931 . S
H749 C735 0.931 . S
Co750 N755 2.057 1_545 S
Co750 O767 2.021 . S
Co750 O770 2.062 . S
Co750 O774 2.117 . S
Co750 O775 2.020 . S
C751 O771 1.259 . S
C751 O774 1.258 . S
Co752 N761 2.057 . S
Co752 O768 2.117 . S
Co752 O769 2.020 . S
Co752 O771 2.021 . S
Co752 O776 2.062 . S
C753 N755 1.316 . S
C753 N756 1.347 . S
C753 H758 0.931 . S
C754 N755 1.375 . S
C754 C757 1.350 . S
C754 H759 0.930 . S
N755 Co750 2.057 1_565 S
N755 C753 1.316 . S
N755 C754 1.375 . S
N756 C753 1.347 . S
N756 C757 1.373 . S
C757 C754 1.350 . S
C757 N756 1.373 . S
C757 H778 0.931 . S
H758 C753 0.931 . S
H759 C754 0.930 . S
C760 O767 1.259 . S
C760 O768 1.258 . S
N761 Co752 2.057 . S
N761 C762 1.316 . S
N761 C763 1.375 . S
C762 N761 1.316 . S
C762 N764 1.347 . S
C762 H773 0.931 . S
C763 N761 1.375 . S
C763 C765 1.350 . S
C763 H772 0.930 . S
N764 C762 1.347 . S
N764 C765 1.373 . S
C765 C763 1.350 . S
C765 N764 1.373 . S
C765 H779 0.931 . S
C766 O769 1.256 . S
C766 O770 1.255 . S
O767 Co750 2.021 . S
O767 C760 1.259 . S
O768 Co752 2.117 . S
O768 C760 1.258 . S
O769 Co752 2.020 . S
O769 C766 1.256 . S
O770 Co750 2.062 . S
O770 C766 1.255 . S
O771 C751 1.259 . S
O771 Co752 2.021 . S
H772 C763 0.930 . S
H773 C762 0.931 . S
O774 Co750 2.117 . S
O774 C751 1.258 . S
O775 Co750 2.020 . S
O775 C777 1.256 . S
O776 Co752 2.062 . S
O776 C777 1.255 . S
C777 O775 1.256 . S
C777 O776 1.255 . S
H778 C757 0.931 . S
H779 C765 0.931 . S
Co780 N785 2.057 1_655 S
Co780 O797 2.021 1_655 S
Co780 O800 2.062 . S
Co780 O804 2.117 . S
Co780 O805 2.020 . S
C781 O801 1.259 . S
C781 O804 1.258 . S
Co782 N791 2.057 . S
Co782 O798 2.117 . S
Co782 O799 2.020 . S
Co782 O801 2.021 . S
Co782 O806 2.062 . S
C783 N785 1.316 . S
C783 N786 1.347 . S
C783 H788 0.931 . S
C784 N785 1.375 . S
C784 C787 1.350 . S
C784 H789 0.930 . S
N785 Co780 2.057 1_455 S
N785 C783 1.316 . S
N785 C784 1.375 . S
N786 C783 1.347 . S
N786 C787 1.373 . S
C787 C784 1.350 . S
C787 N786 1.373 . S
C787 H808 0.931 . S
H788 C783 0.931 . S
H789 C784 0.930 . S
C790 O797 1.259 1_655 S
C790 O798 1.258 . S
N791 Co782 2.057 . S
N791 C792 1.316 . S
N791 C793 1.375 . S
C792 N791 1.316 . S
C792 N794 1.347 . S
C792 H803 0.931 . S
C793 N791 1.375 . S
C793 C795 1.350 . S
C793 H802 0.930 . S
N794 C792 1.347 . S
N794 C795 1.373 . S
C795 C793 1.350 . S
C795 N794 1.373 . S
C795 H809 0.931 . S
C796 O799 1.256 . S
C796 O800 1.255 . S
O797 Co780 2.021 1_455 S
O797 C790 1.259 1_455 S
O798 Co782 2.117 . S
O798 C790 1.258 . S
O799 Co782 2.020 . S
O799 C796 1.256 . S
O800 Co780 2.062 . S
O800 C796 1.255 . S
O801 C781 1.259 . S
O801 Co782 2.021 . S
H802 C793 0.930 . S
H803 C792 0.931 . S
O804 Co780 2.117 . S
O804 C781 1.258 . S
O805 Co780 2.020 . S
O805 C807 1.256 . S
O806 Co782 2.062 . S
O806 C807 1.255 . S
C807 O805 1.256 . S
C807 O806 1.255 . S
H808 C787 0.931 . S
H809 C795 0.931 . S
Co810 N815 2.057 1_545 S
Co810 O827 2.021 . S
Co810 O830 2.062 . S
Co810 O834 2.117 . S
Co810 O835 2.020 . S
C811 O831 1.259 . S
C811 O834 1.258 . S
Co812 N821 2.057 . S
Co812 O828 2.117 . S
Co812 O829 2.020 . S
Co812 O831 2.021 . S
Co812 O836 2.062 . S
C813 N815 1.316 . S
C813 N816 1.347 . S
C813 H818 0.931 . S
C814 N815 1.375 . S
C814 C817 1.350 . S
C814 H819 0.930 . S
N815 Co810 2.057 1_565 S
N815 C813 1.316 . S
N815 C814 1.375 . S
N816 C813 1.347 . S
N816 C817 1.373 . S
C817 C814 1.350 . S
C817 N816 1.373 . S
C817 H838 0.931 . S
H818 C813 0.931 . S
H819 C814 0.930 . S
C820 O827 1.259 . S
C820 O828 1.258 . S
N821 Co812 2.057 . S
N821 C822 1.316 . S
N821 C823 1.375 . S
C822 N821 1.316 . S
C822 N824 1.347 . S
C822 H833 0.931 . S
C823 N821 1.375 . S
C823 C825 1.350 . S
C823 H832 0.930 . S
N824 C822 1.347 . S
N824 C825 1.373 . S
C825 C823 1.350 . S
C825 N824 1.373 . S
C825 H839 0.931 . S
C826 O829 1.256 . S
C826 O830 1.255 . S
O827 Co810 2.021 . S
O827 C820 1.259 . S
O828 Co812 2.117 . S
O828 C820 1.258 . S
O829 Co812 2.020 . S
O829 C826 1.256 . S
O830 Co810 2.062 . S
O830 C826 1.255 . S
O831 C811 1.259 . S
O831 Co812 2.021 . S
H832 C823 0.930 . S
H833 C822 0.931 . S
O834 Co810 2.117 . S
O834 C811 1.258 . S
O835 Co810 2.020 . S
O835 C837 1.256 . S
O836 Co812 2.062 . S
O836 C837 1.255 . S
C837 O835 1.256 . S
C837 O836 1.255 . S
H838 C817 0.931 . S
H839 C825 0.931 . S
Co840 N845 2.057 1_655 S
Co840 O857 2.021 . S
Co840 O860 2.062 . S
Co840 O864 2.117 . S
Co840 O865 2.020 . S
C841 O861 1.259 . S
C841 O864 1.258 . S
Co842 N851 2.057 . S
Co842 O858 2.117 . S
Co842 O859 2.020 . S
Co842 O861 2.021 . S
Co842 O866 2.062 . S
C843 N845 1.316 . S
C843 N846 1.347 . S
C843 H848 0.931 . S
C844 N845 1.375 . S
C844 C847 1.350 . S
C844 H849 0.930 . S
N845 Co840 2.057 1_455 S
N845 C843 1.316 . S
N845 C844 1.375 . S
N846 C843 1.347 . S
N846 C847 1.373 . S
C847 C844 1.350 . S
C847 N846 1.373 . S
C847 H868 0.931 . S
H848 C843 0.931 . S
H849 C844 0.930 . S
C850 O857 1.259 . S
C850 O858 1.258 . S
N851 Co842 2.057 . S
N851 C852 1.316 . S
N851 C853 1.375 . S
C852 N851 1.316 . S
C852 N854 1.347 . S
C852 H863 0.931 . S
C853 N851 1.375 . S
C853 C855 1.350 . S
C853 H862 0.930 . S
N854 C852 1.347 . S
N854 C855 1.373 . S
C855 C853 1.350 . S
C855 N854 1.373 . S
C855 H869 0.931 . S
C856 O859 1.256 . S
C856 O860 1.255 . S
O857 Co840 2.021 . S
O857 C850 1.259 . S
O858 Co842 2.117 . S
O858 C850 1.258 . S
O859 Co842 2.020 . S
O859 C856 1.256 . S
O860 Co840 2.062 . S
O860 C856 1.255 . S
O861 C841 1.259 . S
O861 Co842 2.021 . S
H862 C853 0.930 . S
H863 C852 0.931 . S
O864 Co840 2.117 . S
O864 C841 1.258 . S
O865 Co840 2.020 . S
O865 C867 1.256 . S
O866 Co842 2.062 . S
O866 C867 1.255 . S
C867 O865 1.256 . S
C867 O866 1.255 . S
H868 C847 0.931 . S
H869 C855 0.931 . S
Co870 N875 2.057 . S
Co870 O887 2.021 . S
Co870 O890 2.062 . S
Co870 O894 2.117 . S
Co870 O895 2.020 . S
C871 O891 1.259 . S
C871 O894 1.258 . S
Co872 N881 2.057 . S
Co872 O888 2.117 . S
Co872 O889 2.020 . S
Co872 O891 2.021 . S
Co872 O896 2.062 . S
C873 N875 1.316 . S
C873 N876 1.347 . S
C873 H878 0.931 . S
C874 N875 1.375 . S
C874 C877 1.350 . S
C874 H879 0.930 . S
N875 Co870 2.057 . S
N875 C873 1.316 . S
N875 C874 1.375 . S
N876 C873 1.347 . S
N876 C877 1.373 . S
C877 C874 1.350 . S
C877 N876 1.373 . S
C877 H898 0.931 . S
H878 C873 0.931 . S
H879 C874 0.930 . S
C880 O887 1.259 . S
C880 O888 1.258 . S
N881 Co872 2.057 . S
N881 C882 1.316 . S
N881 C883 1.375 . S
C882 N881 1.316 . S
C882 N884 1.347 . S
C882 H893 0.931 . S
C883 N881 1.375 . S
C883 C885 1.350 . S
C883 H892 0.930 . S
N884 C882 1.347 . S
N884 C885 1.373 . S
C885 C883 1.350 . S
C885 N884 1.373 . S
C885 H899 0.931 . S
C886 O889 1.256 . S
C886 O890 1.255 . S
O887 Co870 2.021 . S
O887 C880 1.259 . S
O888 Co872 2.117 . S
O888 C880 1.258 . S
O889 Co872 2.020 . S
O889 C886 1.256 . S
O890 Co870 2.062 . S
O890 C886 1.255 . S
O891 C871 1.259 . S
O891 Co872 2.021 . S
H892 C883 0.930 . S
H893 C882 0.931 . S
O894 Co870 2.117 . S
O894 C871 1.258 . S
O895 Co870 2.020 . S
O895 C897 1.256 . S
O896 Co872 2.062 . S
O896 C897 1.255 . S
C897 O895 1.256 . S
C897 O896 1.255 . S
H898 C877 0.931 . S
H899 C885 0.931 . S
Co900 N905 2.057 . S
Co900 O917 2.021 . S
Co900 O920 2.062 . S
Co900 O924 2.117 . S
Co900 O925 2.020 . S
C901 O921 1.259 . S
C901 O924 1.258 . S
Co902 N911 2.057 . S
Co902 O918 2.117 . S
Co902 O919 2.020 1_655 S
Co902 O921 2.021 . S
Co902 O926 2.062 . S
C903 N905 1.316 . S
C903 N906 1.347 . S
C903 H908 0.931 . S
C904 N905 1.375 . S
C904 C907 1.350 . S
C904 H909 0.930 . S
N905 Co900 2.057 . S
N905 C903 1.316 . S
N905 C904 1.375 . S
N906 C903 1.347 . S
N906 C907 1.373 . S
C907 C904 1.350 . S
C907 N906 1.373 . S
C907 H928 0.931 . S
H908 C903 0.931 . S
H909 C904 0.930 . S
C910 O917 1.259 . S
C910 O918 1.258 . S
N911 Co902 2.057 . S
N911 C912 1.316 . S
N911 C913 1.375 . S
C912 N911 1.316 . S
C912 N914 1.347 . S
C912 H923 0.931 . S
C913 N911 1.375 . S
C913 C915 1.350 . S
C913 H922 0.930 . S
N914 C912 1.347 . S
N914 C915 1.373 . S
C915 C913 1.350 . S
C915 N914 1.373 . S
C915 H929 0.931 . S
C916 O919 1.256 . S
C916 O920 1.255 1_455 S
O917 Co900 2.021 . S
O917 C910 1.259 . S
O918 Co902 2.117 . S
O918 C910 1.258 . S
O919 Co902 2.020 1_455 S
O919 C916 1.256 . S
O920 Co900 2.062 . S
O920 C916 1.255 1_655 S
O921 C901 1.259 . S
O921 Co902 2.021 . S
H922 C913 0.930 . S
H923 C912 0.931 . S
O924 Co900 2.117 . S
O924 C901 1.258 . S
O925 Co900 2.020 . S
O925 C927 1.256 . S
O926 Co902 2.062 . S
O926 C927 1.255 . S
C927 O925 1.256 . S
C927 O926 1.255 . S
H928 C907 0.931 . S
H929 C915 0.931 . S
Co930 N935 2.057 . S
Co930 O947 2.021 . S
Co930 O950 2.062 . S
Co930 O954 2.117 . S
Co930 O955 2.020 . S
C931 O951 1.259 . S
C931 O954 1.258 . S
Co932 N941 2.057 . S
Co932 O948 2.117 . S
Co932 O949 2.020 . S
Co932 O951 2.021 . S
Co932 O956 2.062 . S
C933 N935 1.316 1_565 S
C933 N936 1.347 . S
C933 H938 0.931 . S
C934 N935 1.375 . S
C934 C937 1.350 1_545 S
C934 H939 0.930 . S
N935 Co930 2.057 . S
N935 C933 1.316 1_545 S
N935 C934 1.375 . S
N936 C933 1.347 . S
N936 C937 1.373 . S
C937 C934 1.350 1_565 S
C937 N936 1.373 . S
C937 H958 0.931 . S
H938 C933 0.931 . S
H939 C934 0.930 . S
C940 O947 1.259 . S
C940 O948 1.258 . S
N941 Co932 2.057 . S
N941 C942 1.316 . S
N941 C943 1.375 . S
C942 N941 1.316 . S
C942 N944 1.347 . S
C942 H953 0.931 . S
C943 N941 1.375 . S
C943 C945 1.350 . S
C943 H952 0.930 . S
N944 C942 1.347 . S
N944 C945 1.373 . S
C945 C943 1.350 . S
C945 N944 1.373 . S
C945 H959 0.931 . S
C946 O949 1.256 . S
C946 O950 1.255 . S
O947 Co930 2.021 . S
O947 C940 1.259 . S
O948 Co932 2.117 . S
O948 C940 1.258 . S
O949 Co932 2.020 . S
O949 C946 1.256 . S
O950 Co930 2.062 . S
O950 C946 1.255 . S
O951 C931 1.259 . S
O951 Co932 2.021 . S
H952 C943 0.930 . S
H953 C942 0.931 . S
O954 Co930 2.117 . S
O954 C931 1.258 . S
O955 Co930 2.020 . S
O955 C957 1.256 . S
O956 Co932 2.062 . S
O956 C957 1.255 . S
C957 O955 1.256 . S
C957 O956 1.255 . S
H958 C937 0.931 . S
H959 C945 0.931 . S
Co960 N965 2.057 1_655 S
Co960 O977 2.021 . S
Co960 O980 2.062 . S
Co960 O984 2.117 . S
Co960 O985 2.020 . S
C961 O981 1.259 . S
C961 O984 1.258 . S
Co962 N971 2.057 . S
Co962 O978 2.117 . S
Co962 O979 2.020 . S
Co962 O981 2.021 . S
Co962 O986 2.062 . S
C963 N965 1.316 . S
C963 N966 1.347 . S
C963 H968 0.931 . S
C964 N965 1.375 . S
C964 C967 1.350 . S
C964 H969 0.930 . S
N965 Co960 2.057 1_455 S
N965 C963 1.316 . S
N965 C964 1.375 . S
N966 C963 1.347 . S
N966 C967 1.373 . S
C967 C964 1.350 . S
C967 N966 1.373 . S
C967 H988 0.931 . S
H968 C963 0.931 . S
H969 C964 0.930 . S
C970 O977 1.259 . S
C970 O978 1.258 . S
N971 Co962 2.057 . S
N971 C972 1.316 . S
N971 C973 1.375 . S
C972 N971 1.316 . S
C972 N974 1.347 . S
C972 H983 0.931 . S
C973 N971 1.375 . S
C973 C975 1.350 . S
C973 H982 0.930 . S
N974 C972 1.347 . S
N974 C975 1.373 . S
C975 C973 1.350 . S
C975 N974 1.373 . S
C975 H989 0.931 . S
C976 O979 1.256 . S
C976 O980 1.255 . S
O977 Co960 2.021 . S
O977 C970 1.259 . S
O978 Co962 2.117 . S
O978 C970 1.258 . S
O979 Co962 2.020 . S
O979 C976 1.256 . S
O980 Co960 2.062 . S
O980 C976 1.255 . S
O981 C961 1.259 . S
O981 Co962 2.021 . S
H982 C973 0.930 . S
H983 C972 0.931 . S
O984 Co960 2.117 . S
O984 C961 1.258 . S
O985 Co960 2.020 . S
O985 C987 1.256 . S
O986 Co962 2.062 . S
O986 C987 1.255 . S
C987 O985 1.256 . S
C987 O986 1.255 . S
H988 C967 0.931 . S
H989 C975 0.931 . S
Co990 N995 2.057 . S
Co990 O1007 2.021 . S
Co990 O1010 2.062 . S
Co990 O1014 2.117 . S
Co990 O1015 2.020 . S
C991 O1011 1.259 . S
C991 O1014 1.258 . S
Co992 N1001 2.057 . S
Co992 O1008 2.117 . S
Co992 O1009 2.020 . S
Co992 O1011 2.021 . S
Co992 O1016 2.062 . S
C993 N995 1.316 1_565 S
C993 N996 1.347 . S
C993 H998 0.931 . S
C994 N995 1.375 1_565 S
C994 C997 1.350 . S
C994 H999 0.930 . S
N995 Co990 2.057 . S
N995 C993 1.316 1_545 S
N995 C994 1.375 1_545 S
N996 C993 1.347 . S
N996 C997 1.373 . S
C997 C994 1.350 . S
C997 N996 1.373 . S
C997 H1018 0.931 . S
H998 C993 0.931 . S
H999 C994 0.930 . S
C1000 O1007 1.259 . S
C1000 O1008 1.258 . S
N1001 Co992 2.057 . S
N1001 C1002 1.316 . S
N1001 C1003 1.375 . S
C1002 N1001 1.316 . S
C1002 N1004 1.347 . S
C1002 H1013 0.931 . S
C1003 N1001 1.375 . S
C1003 C1005 1.350 . S
C1003 H1012 0.930 . S
N1004 C1002 1.347 . S
N1004 C1005 1.373 . S
C1005 C1003 1.350 . S
C1005 N1004 1.373 . S
C1005 H1019 0.931 . S
C1006 O1009 1.256 . S
C1006 O1010 1.255 . S
O1007 Co990 2.021 . S
O1007 C1000 1.259 . S
O1008 Co992 2.117 . S
O1008 C1000 1.258 . S
O1009 Co992 2.020 . S
O1009 C1006 1.256 . S
O1010 Co990 2.062 . S
O1010 C1006 1.255 . S
O1011 C991 1.259 . S
O1011 Co992 2.021 . S
H1012 C1003 0.930 . S
H1013 C1002 0.931 . S
O1014 Co990 2.117 . S
O1014 C991 1.258 . S
O1015 Co990 2.020 . S
O1015 C1017 1.256 . S
O1016 Co992 2.062 . S
O1016 C1017 1.255 . S
C1017 O1015 1.256 . S
C1017 O1016 1.255 . S
H1018 C997 0.931 . S
H1019 C1005 0.931 . S
Co1020 N1025 2.057 1_655 S
Co1020 O1037 2.021 . S
Co1020 O1040 2.062 . S
Co1020 O1044 2.117 . S
Co1020 O1045 2.020 . S
C1021 O1041 1.259 . S
C1021 O1044 1.258 . S
Co1022 N1031 2.057 . S
Co1022 O1038 2.117 . S
Co1022 O1039 2.020 . S
Co1022 O1041 2.021 . S
Co1022 O1046 2.062 . S
C1023 N1025 1.316 . S
C1023 N1026 1.347 . S
C1023 H1028 0.931 . S
C1024 N1025 1.375 . S
C1024 C1027 1.350 . S
C1024 H1029 0.930 . S
N1025 Co1020 2.057 1_455 S
N1025 C1023 1.316 . S
N1025 C1024 1.375 . S
N1026 C1023 1.347 . S
N1026 C1027 1.373 . S
C1027 C1024 1.350 . S
C1027 N1026 1.373 . S
C1027 H1048 0.931 . S
H1028 C1023 0.931 . S
H1029 C1024 0.930 . S
C1030 O1037 1.259 . S
C1030 O1038 1.258 . S
N1031 Co1022 2.057 . S
N1031 C1032 1.316 . S
N1031 C1033 1.375 . S
C1032 N1031 1.316 . S
C1032 N1034 1.347 . S
C1032 H1043 0.931 . S
C1033 N1031 1.375 . S
C1033 C1035 1.350 . S
C1033 H1042 0.930 . S
N1034 C1032 1.347 . S
N1034 C1035 1.373 . S
C1035 C1033 1.350 . S
C1035 N1034 1.373 . S
C1035 H1049 0.931 . S
C1036 O1039 1.256 . S
C1036 O1040 1.255 . S
O1037 Co1020 2.021 . S
O1037 C1030 1.259 . S
O1038 Co1022 2.117 . S
O1038 C1030 1.258 . S
O1039 Co1022 2.020 . S
O1039 C1036 1.256 . S
O1040 Co1020 2.062 . S
O1040 C1036 1.255 . S
O1041 C1021 1.259 . S
O1041 Co1022 2.021 . S
H1042 C1033 0.930 . S
H1043 C1032 0.931 . S
O1044 Co1020 2.117 . S
O1044 C1021 1.258 . S
O1045 Co1020 2.020 . S
O1045 C1047 1.256 . S
O1046 Co1022 2.062 . S
O1046 C1047 1.255 . S
C1047 O1045 1.256 . S
C1047 O1046 1.255 . S
H1048 C1027 0.931 . S
H1049 C1035 0.931 . S
Co1050 N1055 2.057 . S
Co1050 O1067 2.021 . S
Co1050 O1070 2.062 . S
Co1050 O1074 2.117 . S
Co1050 O1075 2.020 . S
C1051 O1071 1.259 . S
C1051 O1074 1.258 . S
Co1052 N1061 2.057 . S
Co1052 O1068 2.117 . S
Co1052 O1069 2.020 1_655 S
Co1052 O1071 2.021 . S
Co1052 O1076 2.062 . S
C1053 N1055 1.316 . S
C1053 N1056 1.347 . S
C1053 H1058 0.931 . S
C1054 N1055 1.375 . S
C1054 C1057 1.350 . S
C1054 H1059 0.930 . S
N1055 Co1050 2.057 . S
N1055 C1053 1.316 . S
N1055 C1054 1.375 . S
N1056 C1053 1.347 . S
N1056 C1057 1.373 . S
C1057 C1054 1.350 . S
C1057 N1056 1.373 . S
C1057 H1078 0.931 . S
H1058 C1053 0.931 . S
H1059 C1054 0.930 . S
C1060 O1067 1.259 . S
C1060 O1068 1.258 . S
N1061 Co1052 2.057 . S
N1061 C1062 1.316 . S
N1061 C1063 1.375 . S
C1062 N1061 1.316 . S
C1062 N1064 1.347 . S
C1062 H1073 0.931 . S
C1063 N1061 1.375 . S
C1063 C1065 1.350 1_655 S
C1063 H1072 0.930 1_655 S
N1064 C1062 1.347 . S
N1064 C1065 1.373 1_655 S
C1065 C1063 1.350 1_455 S
C1065 N1064 1.373 1_455 S
C1065 H1079 0.931 . S
C1066 O1069 1.256 . S
C1066 O1070 1.255 1_455 S
O1067 Co1050 2.021 . S
O1067 C1060 1.259 . S
O1068 Co1052 2.117 . S
O1068 C1060 1.258 . S
O1069 Co1052 2.020 1_455 S
O1069 C1066 1.256 . S
O1070 Co1050 2.062 . S
O1070 C1066 1.255 1_655 S
O1071 C1051 1.259 . S
O1071 Co1052 2.021 . S
H1072 C1063 0.930 1_455 S
H1073 C1062 0.931 . S
O1074 Co1050 2.117 . S
O1074 C1051 1.258 . S
O1075 Co1050 2.020 . S
O1075 C1077 1.256 . S
O1076 Co1052 2.062 . S
O1076 C1077 1.255 . S
C1077 O1075 1.256 . S
C1077 O1076 1.255 . S
H1078 C1057 0.931 . S
H1079 C1065 0.931 . S
C811 C10 2.942 . S
C841 C40 2.941 1_655 S
C70 C871 2.942 . S
C91 C370 2.942 . S
C121 C400 2.942 . S
C430 C151 2.941 1_565 S
C181 C640 2.942 1_545 S
C670 C211 2.942 . S
C241 C700 2.942 . S
C901 C280 2.942 1_655 S
C310 C931 2.942 . S
C961 C340 2.942 . S
C730 C451 2.942 . S
C481 C760 2.942 1_565 S
C790 C511 2.942 1_655 S
C541 C1000 2.942 . S
C571 C1030 2.942 1_565 S
C1060 C601 2.942 1_655 S
C1 C190 1.807 1_554 S
C220 C31 1.807 1_556 S
C61 C250 1.807 1_554 S
C271 C100 1.695 . S
C130 C301 1.695 . S
C331 C160 1.695 . S
C550 C361 1.807 . S
C391 C580 1.807 . S
C610 C421 1.807 . S
C460 C631 1.695 . S
C661 C490 1.695 . S
C520 C691 1.695 . S
C721 C910 1.807 . S
C940 C751 1.807 . S
C970 C781 1.807 . S
C991 C820 1.695 . S
C850 C1021 1.695 . S
C880 C1051 1.695 . S
N14 C87 1.950 . S
N44 C27 1.951 . S
C57 N74 1.951 . S
C106 N126 2.071 . S
N156 C136 2.071 . S
N96 C166 2.071 . S
C256 N186 1.951 . S
N216 C196 1.951 . S
N246 C226 1.951 . S
N314 C297 2.071 . S
C327 N344 2.071 . S
C357 N284 2.071 . S
C447 N374 1.950 . S
C387 N404 1.951 1_455 S
C417 N434 1.951 . S
N486 C466 2.071 . S
C496 N516 2.071 . S
N456 C526 2.071 . S
N546 C616 1.950 . S
C556 N576 1.951 . S
N606 C586 1.951 . S
N674 C657 2.071 . S
N704 C687 2.071 1_545 S
N644 C717 2.071 1_655 S
C807 N734 1.950 . S
N764 C747 1.951 . S
C777 N794 1.951 . S
C826 N846 2.071 . S
C856 N876 2.071 1_545 S
N816 C886 2.071 1_455 S
N906 C976 1.951 1_565 S
N936 C916 1.951 . S
C946 N966 1.951 . S
C1017 N1034 2.071 . S
N1064 C1047 2.071 . S
N1004 C1077 2.071 . S
C76 N6 2.227 . S
N36 C16 2.227 . S
C46 N66 2.227 . S
N134 C117 1.010 . S
C147 N164 1.010 . S
C177 N104 1.010 . S
C267 N194 2.227 . S
N224 C207 2.227 . S
C237 N254 2.227 . S
N306 C286 1.010 . S
N336 C316 1.010 . S
N276 C346 1.010 . S
N366 C436 2.227 . S
N396 C376 2.227 . S
N426 C406 2.227 . S
N494 C477 1.010 . S
C507 N524 1.010 . S
C537 N464 1.010 1_455 S
C627 N554 2.231 . S
C567 N584 2.227 1_455 S
N614 C597 2.227 . S
N666 C646 1.010 . S
C676 N696 1.010 . S
C706 N636 1.010 . S
N726 C796 2.227 1_565 S
C736 N756 2.235 . S
C766 N786 2.227 . S
N854 C837 1.010 . S
C867 N884 1.010 . S
C897 N824 1.010 . S
C987 N914 2.227 . S
C927 N944 2.227 . S
N974 C957 2.227 . S
N1026 C1006 1.010 . S
C1036 N1056 1.010 1_545 S
C1066 N996 1.010 . S
