# Generated by pormake.
# Topology fcg, (5)-cn, num edge types: 1
# Building blocks:
#     Node 0, Type 0, BuildingBlock: XOMCOT_clean_sbu_0, # of connection points: 5
#     Node 1, Type 0, BuildingBlock: XOMCOT_clean_sbu_0, # of connection points: 5
#     Node 2, Type 0, BuildingBlock: XOMCOT_clean_sbu_0, # of connection points: 5
#     Node 3, Type 0, BuildingBlock: XOMCOT_clean_sbu_0, # of connection points: 5
#     Node 4, Type 0, BuildingBlock: XOMCOT_clean_sbu_0, # of connection points: 5
#     Node 5, Type 0, BuildingBlock: XOMCOT_clean_sbu_0, # of connection points: 5
#     Node 6, Type 0, BuildingBlock: XOMCOT_clean_sbu_0, # of connection points: 5
#     Node 7, Type 0, BuildingBlock: XOMCOT_clean_sbu_0, # of connection points: 5
#     Node 8, Type 0, BuildingBlock: XOMCOT_clean_sbu_0, # of connection points: 5
#     Node 9, Type 0, BuildingBlock: XOMCOT_clean_sbu_0, # of connection points: 5
#     Node 10, Type 0, BuildingBlock: XOMCOT_clean_sbu_0, # of connection points: 5
#     Node 11, Type 0, BuildingBlock: XOMCOT_clean_sbu_0, # of connection points: 5
#     Node 12, Type 0, BuildingBlock: XOMCOT_clean_sbu_0, # of connection points: 5
#     Node 13, Type 0, BuildingBlock: XOMCOT_clean_sbu_0, # of connection points: 5
#     Node 14, Type 0, BuildingBlock: XOMCOT_clean_sbu_0, # of connection points: 5
#     Node 15, Type 0, BuildingBlock: XOMCOT_clean_sbu_0, # of connection points: 5
#     Node 16, Type 0, BuildingBlock: XOMCOT_clean_sbu_0, # of connection points: 5
#     Node 17, Type 0, BuildingBlock: XOMCOT_clean_sbu_0, # of connection points: 5
#     Node 18, Type 0, BuildingBlock: XOMCOT_clean_sbu_0, # of connection points: 5
#     Node 19, Type 0, BuildingBlock: XOMCOT_clean_sbu_0, # of connection points: 5
#     Node 20, Type 0, BuildingBlock: XOMCOT_clean_sbu_0, # of connection points: 5
#     Node 21, Type 0, BuildingBlock: XOMCOT_clean_sbu_0, # of connection points: 5
#     Node 22, Type 0, BuildingBlock: XOMCOT_clean_sbu_0, # of connection points: 5
#     Node 23, Type 0, BuildingBlock: XOMCOT_clean_sbu_0, # of connection points: 5
#     Node 24, Type 0, BuildingBlock: XOMCOT_clean_sbu_0, # of connection points: 5
#     Node 25, Type 0, BuildingBlock: XOMCOT_clean_sbu_0, # of connection points: 5
#     Node 26, Type 0, BuildingBlock: XOMCOT_clean_sbu_0, # of connection points: 5
#     Node 27, Type 0, BuildingBlock: XOMCOT_clean_sbu_0, # of connection points: 5
#     Node 28, Type 0, BuildingBlock: XOMCOT_clean_sbu_0, # of connection points: 5
#     Node 29, Type 0, BuildingBlock: XOMCOT_clean_sbu_0, # of connection points: 5
#     Node 30, Type 0, BuildingBlock: XOMCOT_clean_sbu_0, # of connection points: 5
#     Node 31, Type 0, BuildingBlock: XOMCOT_clean_sbu_0, # of connection points: 5
#     Node 32, Type 0, BuildingBlock: XOMCOT_clean_sbu_0, # of connection points: 5
#     Node 33, Type 0, BuildingBlock: XOMCOT_clean_sbu_0, # of connection points: 5
#     Node 34, Type 0, BuildingBlock: XOMCOT_clean_sbu_0, # of connection points: 5
#     Node 35, Type 0, BuildingBlock: XOMCOT_clean_sbu_0, # of connection points: 5
#     Node 36, Type 0, BuildingBlock: XOMCOT_clean_sbu_0, # of connection points: 5
#     Node 37, Type 0, BuildingBlock: XOMCOT_clean_sbu_0, # of connection points: 5
#     Node 38, Type 0, BuildingBlock: XOMCOT_clean_sbu_0, # of connection points: 5
#     Node 39, Type 0, BuildingBlock: XOMCOT_clean_sbu_0, # of connection points: 5
#     Node 40, Type 0, BuildingBlock: XOMCOT_clean_sbu_0, # of connection points: 5
#     Node 41, Type 0, BuildingBlock: XOMCOT_clean_sbu_0, # of connection points: 5
#     Node 42, Type 0, BuildingBlock: XOMCOT_clean_sbu_0, # of connection points: 5
#     Node 43, Type 0, BuildingBlock: XOMCOT_clean_sbu_0, # of connection points: 5
#     Node 44, Type 0, BuildingBlock: XOMCOT_clean_sbu_0, # of connection points: 5
#     Node 45, Type 0, BuildingBlock: XOMCOT_clean_sbu_0, # of connection points: 5
#     Node 46, Type 0, BuildingBlock: XOMCOT_clean_sbu_0, # of connection points: 5
#     Node 47, Type 0, BuildingBlock: XOMCOT_clean_sbu_0, # of connection points: 5
#     Edge 48, Type (0, 0), BuildingBlock: OJICUG_clean_linker_0, # of connection points: 2
#     Edge 49, Type (0, 0), BuildingBlock: OJICUG_clean_linker_0, # of connection points: 2
#     Edge 50, Type (0, 0), BuildingBlock: OJICUG_clean_linker_0, # of connection points: 2
#     Edge 51, Type (0, 0), BuildingBlock: OJICUG_clean_linker_0, # of connection points: 2
#     Edge 52, Type (0, 0), BuildingBlock: OJICUG_clean_linker_0, # of connection points: 2
#     Edge 53, Type (0, 0), BuildingBlock: OJICUG_clean_linker_0, # of connection points: 2
#     Edge 54, Type (0, 0), BuildingBlock: OJICUG_clean_linker_0, # of connection points: 2
#     Edge 55, Type (0, 0), BuildingBlock: OJICUG_clean_linker_0, # of connection points: 2
#     Edge 56, Type (0, 0), BuildingBlock: OJICUG_clean_linker_0, # of connection points: 2
#     Edge 57, Type (0, 0), BuildingBlock: OJICUG_clean_linker_0, # of connection points: 2
#     Edge 58, Type (0, 0), BuildingBlock: OJICUG_clean_linker_0, # of connection points: 2
#     Edge 59, Type (0, 0), BuildingBlock: OJICUG_clean_linker_0, # of connection points: 2
#     Edge 60, Type (0, 0), BuildingBlock: OJICUG_clean_linker_0, # of connection points: 2
#     Edge 61, Type (0, 0), BuildingBlock: OJICUG_clean_linker_0, # of connection points: 2
#     Edge 62, Type (0, 0), BuildingBlock: OJICUG_clean_linker_0, # of connection points: 2
#     Edge 63, Type (0, 0), BuildingBlock: OJICUG_clean_linker_0, # of connection points: 2
#     Edge 64, Type (0, 0), BuildingBlock: OJICUG_clean_linker_0, # of connection points: 2
#     Edge 65, Type (0, 0), BuildingBlock: OJICUG_clean_linker_0, # of connection points: 2
#     Edge 66, Type (0, 0), BuildingBlock: OJICUG_clean_linker_0, # of connection points: 2
#     Edge 67, Type (0, 0), BuildingBlock: OJICUG_clean_linker_0, # of connection points: 2
#     Edge 68, Type (0, 0), BuildingBlock: OJICUG_clean_linker_0, # of connection points: 2
#     Edge 69, Type (0, 0), BuildingBlock: OJICUG_clean_linker_0, # of connection points: 2
#     Edge 70, Type (0, 0), BuildingBlock: OJICUG_clean_linker_0, # of connection points: 2
#     Edge 71, Type (0, 0), BuildingBlock: OJICUG_clean_linker_0, # of connection points: 2
#     Edge 72, Type (0, 0), BuildingBlock: OJICUG_clean_linker_0, # of connection points: 2
#     Edge 73, Type (0, 0), BuildingBlock: OJICUG_clean_linker_0, # of connection points: 2
#     Edge 74, Type (0, 0), BuildingBlock: OJICUG_clean_linker_0, # of connection points: 2
#     Edge 75, Type (0, 0), BuildingBlock: OJICUG_clean_linker_0, # of connection points: 2
#     Edge 76, Type (0, 0), BuildingBlock: OJICUG_clean_linker_0, # of connection points: 2
#     Edge 77, Type (0, 0), BuildingBlock: OJICUG_clean_linker_0, # of connection points: 2
#     Edge 78, Type (0, 0), BuildingBlock: OJICUG_clean_linker_0, # of connection points: 2
#     Edge 79, Type (0, 0), BuildingBlock: OJICUG_clean_linker_0, # of connection points: 2
#     Edge 80, Type (0, 0), BuildingBlock: OJICUG_clean_linker_0, # of connection points: 2
#     Edge 81, Type (0, 0), BuildingBlock: OJICUG_clean_linker_0, # of connection points: 2
#     Edge 82, Type (0, 0), BuildingBlock: OJICUG_clean_linker_0, # of connection points: 2
#     Edge 83, Type (0, 0), BuildingBlock: OJICUG_clean_linker_0, # of connection points: 2
#     Edge 84, Type (0, 0), BuildingBlock: OJICUG_clean_linker_0, # of connection points: 2
#     Edge 85, Type (0, 0), BuildingBlock: OJICUG_clean_linker_0, # of connection points: 2
#     Edge 86, Type (0, 0), BuildingBlock: OJICUG_clean_linker_0, # of connection points: 2
#     Edge 87, Type (0, 0), BuildingBlock: OJICUG_clean_linker_0, # of connection points: 2
#     Edge 88, Type (0, 0), BuildingBlock: OJICUG_clean_linker_0, # of connection points: 2
#     Edge 89, Type (0, 0), BuildingBlock: OJICUG_clean_linker_0, # of connection points: 2
#     Edge 90, Type (0, 0), BuildingBlock: OJICUG_clean_linker_0, # of connection points: 2
#     Edge 91, Type (0, 0), BuildingBlock: OJICUG_clean_linker_0, # of connection points: 2
#     Edge 92, Type (0, 0), BuildingBlock: OJICUG_clean_linker_0, # of connection points: 2
#     Edge 93, Type (0, 0), BuildingBlock: OJICUG_clean_linker_0, # of connection points: 2
#     Edge 94, Type (0, 0), BuildingBlock: OJICUG_clean_linker_0, # of connection points: 2
#     Edge 95, Type (0, 0), BuildingBlock: OJICUG_clean_linker_0, # of connection points: 2
#     Edge 96, Type (0, 0), BuildingBlock: OJICUG_clean_linker_0, # of connection points: 2
#     Edge 97, Type (0, 0), BuildingBlock: OJICUG_clean_linker_0, # of connection points: 2
#     Edge 98, Type (0, 0), BuildingBlock: OJICUG_clean_linker_0, # of connection points: 2
#     Edge 99, Type (0, 0), BuildingBlock: OJICUG_clean_linker_0, # of connection points: 2
#     Edge 100, Type (0, 0), BuildingBlock: OJICUG_clean_linker_0, # of connection points: 2
#     Edge 101, Type (0, 0), BuildingBlock: OJICUG_clean_linker_0, # of connection points: 2
#     Edge 102, Type (0, 0), BuildingBlock: OJICUG_clean_linker_0, # of connection points: 2
#     Edge 103, Type (0, 0), BuildingBlock: OJICUG_clean_linker_0, # of connection points: 2
#     Edge 104, Type (0, 0), BuildingBlock: OJICUG_clean_linker_0, # of connection points: 2
#     Edge 105, Type (0, 0), BuildingBlock: OJICUG_clean_linker_0, # of connection points: 2
#     Edge 106, Type (0, 0), BuildingBlock: OJICUG_clean_linker_0, # of connection points: 2
#     Edge 107, Type (0, 0), BuildingBlock: OJICUG_clean_linker_0, # of connection points: 2
#     Edge 108, Type (0, 0), BuildingBlock: OJICUG_clean_linker_0, # of connection points: 2
#     Edge 109, Type (0, 0), BuildingBlock: OJICUG_clean_linker_0, # of connection points: 2
#     Edge 110, Type (0, 0), BuildingBlock: OJICUG_clean_linker_0, # of connection points: 2
#     Edge 111, Type (0, 0), BuildingBlock: OJICUG_clean_linker_0, # of connection points: 2
#     Edge 112, Type (0, 0), BuildingBlock: OJICUG_clean_linker_0, # of connection points: 2
#     Edge 113, Type (0, 0), BuildingBlock: OJICUG_clean_linker_0, # of connection points: 2
#     Edge 114, Type (0, 0), BuildingBlock: OJICUG_clean_linker_0, # of connection points: 2
#     Edge 115, Type (0, 0), BuildingBlock: OJICUG_clean_linker_0, # of connection points: 2
#     Edge 116, Type (0, 0), BuildingBlock: OJICUG_clean_linker_0, # of connection points: 2
#     Edge 117, Type (0, 0), BuildingBlock: OJICUG_clean_linker_0, # of connection points: 2
#     Edge 118, Type (0, 0), BuildingBlock: OJICUG_clean_linker_0, # of connection points: 2
#     Edge 119, Type (0, 0), BuildingBlock: OJICUG_clean_linker_0, # of connection points: 2
#     Edge 120, Type (0, 0), BuildingBlock: OJICUG_clean_linker_0, # of connection points: 2
#     Edge 121, Type (0, 0), BuildingBlock: OJICUG_clean_linker_0, # of connection points: 2
#     Edge 122, Type (0, 0), BuildingBlock: OJICUG_clean_linker_0, # of connection points: 2
#     Edge 123, Type (0, 0), BuildingBlock: OJICUG_clean_linker_0, # of connection points: 2
#     Edge 124, Type (0, 0), BuildingBlock: OJICUG_clean_linker_0, # of connection points: 2
#     Edge 125, Type (0, 0), BuildingBlock: OJICUG_clean_linker_0, # of connection points: 2
#     Edge 126, Type (0, 0), BuildingBlock: OJICUG_clean_linker_0, # of connection points: 2
#     Edge 127, Type (0, 0), BuildingBlock: OJICUG_clean_linker_0, # of connection points: 2
#     Edge 128, Type (0, 0), BuildingBlock: OJICUG_clean_linker_0, # of connection points: 2
#     Edge 129, Type (0, 0), BuildingBlock: OJICUG_clean_linker_0, # of connection points: 2
#     Edge 130, Type (0, 0), BuildingBlock: OJICUG_clean_linker_0, # of connection points: 2
#     Edge 131, Type (0, 0), BuildingBlock: OJICUG_clean_linker_0, # of connection points: 2
#     Edge 132, Type (0, 0), BuildingBlock: OJICUG_clean_linker_0, # of connection points: 2
#     Edge 133, Type (0, 0), BuildingBlock: OJICUG_clean_linker_0, # of connection points: 2
#     Edge 134, Type (0, 0), BuildingBlock: OJICUG_clean_linker_0, # of connection points: 2
#     Edge 135, Type (0, 0), BuildingBlock: OJICUG_clean_linker_0, # of connection points: 2
#     Edge 136, Type (0, 0), BuildingBlock: OJICUG_clean_linker_0, # of connection points: 2
#     Edge 137, Type (0, 0), BuildingBlock: OJICUG_clean_linker_0, # of connection points: 2
#     Edge 138, Type (0, 0), BuildingBlock: OJICUG_clean_linker_0, # of connection points: 2
#     Edge 139, Type (0, 0), BuildingBlock: OJICUG_clean_linker_0, # of connection points: 2
#     Edge 140, Type (0, 0), BuildingBlock: OJICUG_clean_linker_0, # of connection points: 2
#     Edge 141, Type (0, 0), BuildingBlock: OJICUG_clean_linker_0, # of connection points: 2
#     Edge 142, Type (0, 0), BuildingBlock: OJICUG_clean_linker_0, # of connection points: 2
#     Edge 143, Type (0, 0), BuildingBlock: OJICUG_clean_linker_0, # of connection points: 2
#     Edge 144, Type (0, 0), BuildingBlock: OJICUG_clean_linker_0, # of connection points: 2
#     Edge 145, Type (0, 0), BuildingBlock: OJICUG_clean_linker_0, # of connection points: 2
#     Edge 146, Type (0, 0), BuildingBlock: OJICUG_clean_linker_0, # of connection points: 2
#     Edge 147, Type (0, 0), BuildingBlock: OJICUG_clean_linker_0, # of connection points: 2
#     Edge 148, Type (0, 0), BuildingBlock: OJICUG_clean_linker_0, # of connection points: 2
#     Edge 149, Type (0, 0), BuildingBlock: OJICUG_clean_linker_0, # of connection points: 2
#     Edge 150, Type (0, 0), BuildingBlock: OJICUG_clean_linker_0, # of connection points: 2
#     Edge 151, Type (0, 0), BuildingBlock: OJICUG_clean_linker_0, # of connection points: 2
#     Edge 152, Type (0, 0), BuildingBlock: OJICUG_clean_linker_0, # of connection points: 2
#     Edge 153, Type (0, 0), BuildingBlock: OJICUG_clean_linker_0, # of connection points: 2
#     Edge 154, Type (0, 0), BuildingBlock: OJICUG_clean_linker_0, # of connection points: 2
#     Edge 155, Type (0, 0), BuildingBlock: OJICUG_clean_linker_0, # of connection points: 2
#     Edge 156, Type (0, 0), BuildingBlock: OJICUG_clean_linker_0, # of connection points: 2
#     Edge 157, Type (0, 0), BuildingBlock: OJICUG_clean_linker_0, # of connection points: 2
#     Edge 158, Type (0, 0), BuildingBlock: OJICUG_clean_linker_0, # of connection points: 2
#     Edge 159, Type (0, 0), BuildingBlock: OJICUG_clean_linker_0, # of connection points: 2
#     Edge 160, Type (0, 0), BuildingBlock: OJICUG_clean_linker_0, # of connection points: 2
#     Edge 161, Type (0, 0), BuildingBlock: OJICUG_clean_linker_0, # of connection points: 2
#     Edge 162, Type (0, 0), BuildingBlock: OJICUG_clean_linker_0, # of connection points: 2
#     Edge 163, Type (0, 0), BuildingBlock: OJICUG_clean_linker_0, # of connection points: 2
#     Edge 164, Type (0, 0), BuildingBlock: OJICUG_clean_linker_0, # of connection points: 2
#     Edge 165, Type (0, 0), BuildingBlock: OJICUG_clean_linker_0, # of connection points: 2
#     Edge 166, Type (0, 0), BuildingBlock: OJICUG_clean_linker_0, # of connection points: 2
#     Edge 167, Type (0, 0), BuildingBlock: OJICUG_clean_linker_0, # of connection points: 2
# Relax obj value: 0.409
# Max RMSD: 0.291
# Mean RMSD: 0.268
data_MOF--net-fcg--node1-XOMCOT_clean_sbu_0--edge1-OJICUG_clean_linker_0
_symmetry_space_group_name_H-M    P1
_symmetry_Int_Tables_number       1
_symmetry_cell_setting            triclinic
loop_
_symmetry_equiv_pos_as_xyz
'x, y, z'
_cell_length_a     49.990756
_cell_length_b     49.646212
_cell_length_c     49.925411
_cell_angle_alpha  88.088794
_cell_angle_beta   88.619969
_cell_angle_gamma 88.160858
loop_
_atom_site_label
_atom_site_type_symbol
_atom_site_fract_x
_atom_site_fract_y
_atom_site_fract_z
_atom_type_partial_charge
Co0 Co 0.09586 0.28161 0.14213 0.0
C1 C 0.10565 0.23882 0.18401 0.0
C2 C 0.06392 0.24956 0.18156 0.0
C3 C 0.06679 0.22749 0.19883 0.0
N4 N 0.0883 0.25657 0.17199 0.0
N5 N 0.09304 0.22068 0.20015 0.0
H6 H 0.12698 0.23802 0.1799 0.0
H7 H 0.04507 0.25894 0.17571 0.0
C8 C 0.04341 0.31018 0.13092 0.0
O9 O 0.05637 0.33276 0.12894 0.0
N10 N 0.10307 0.30596 0.11138 0.0
C11 C 0.11158 0.33162 0.11001 0.0
C12 C 0.11723 0.33882 0.08368 0.0
C13 C 0.10273 0.29859 0.0856 0.0
N14 N 0.11169 0.31795 0.0685 0.0
C15 C 0.12339 0.32028 0.17016 0.0
C16 C 0.08191 0.33921 0.20259 0.0
C17 C 0.1072 0.35058 0.20398 0.0
C18 C 0.12805 0.34044 0.18778 0.0
C19 C 0.07793 0.31896 0.1841 0.0
N20 N 0.0984 0.31057 0.16735 0.0
H21 H 0.14001 0.31342 0.15776 0.0
H22 H 0.05859 0.30994 0.18352 0.0
H23 H 0.1137 0.34469 0.12654 0.0
H24 H 0.09753 0.27883 0.07936 0.0
O25 O 0.13303 0.27055 0.14209 0.0
O26 O 0.10269 0.25065 0.11904 0.0
O27 O 0.05603 0.28798 0.13672 0.0
C28 C 0.12774 0.25217 0.12547 0.0
H29 H 0.05075 0.21689 0.20908 0.0
H30 H 0.12551 0.35763 0.07633 0.0
H31 H 0.06549 0.34591 0.21553 0.0
H32 H 0.14815 0.34783 0.18892 0.0
Co33 Co 0.70832 0.10049 0.15535 0.0
C34 C 0.7509 0.10175 0.19585 0.0
C35 C 0.75085 0.06385 0.17688 0.0
C36 C 0.77277 0.06403 0.19301 0.0
N37 N 0.73646 0.0872 0.17929 0.0
N38 N 0.77274 0.08795 0.20492 0.0
H39 H 0.74719 0.12293 0.1992 0.0
H40 H 0.74694 0.04834 0.16295 0.0
C41 C 0.69347 0.04375 0.16592 0.0
O42 O 0.69579 0.04909 0.19136 0.0
N43 N 0.6818 0.11365 0.13046 0.0
C44 C 0.66586 0.13589 0.13277 0.0
C45 C 0.65603 0.14296 0.1079 0.0
C46 C 0.68133 0.10735 0.10448 0.0
N47 N 0.66591 0.12504 0.0902 0.0
C48 C 0.68621 0.1168 0.20601 0.0
C49 C 0.63582 0.0965 0.20003 0.0
C50 C 0.64118 0.11071 0.22286 0.0
C51 C 0.66665 0.1208 0.22583 0.0
C52 C 0.65626 0.09248 0.18078 0.0
N53 N 0.68128 0.10224 0.1841 0.0
H54 H 0.7048 0.12663 0.20781 0.0
H55 H 0.65174 0.08217 0.16278 0.0
H56 H 0.66361 0.14755 0.15066 0.0
H57 H 0.69459 0.09223 0.09567 0.0
O58 O 0.72088 0.13663 0.1574 0.0
O59 O 0.7361 0.10713 0.128 0.0
O60 O 0.69867 0.06198 0.14787 0.0
C61 C 0.73699 0.13134 0.13738 0.0
H62 H 0.78808 0.04822 0.19489 0.0
H63 H 0.64454 0.16118 0.10276 0.0
H64 H 0.61606 0.089 0.19695 0.0
H65 H 0.67108 0.13267 0.24292 0.0
Co66 Co 0.8851 0.71883 0.15458 0.0
C67 C 0.88047 0.69873 0.10074 0.0
C68 C 0.8498 0.68327 0.12708 0.0
C69 C 0.8428 0.67928 0.10113 0.0
N70 N 0.87371 0.69512 0.12708 0.0
N71 N 0.86167 0.68977 0.08441 0.0
H72 H 0.89661 0.7114 0.09381 0.0
H73 H 0.8368 0.68061 0.14454 0.0
C74 C 0.87843 0.66458 0.18529 0.0
O75 O 0.87668 0.65133 0.16315 0.0
N76 N 0.89647 0.74412 0.18087 0.0
C77 C 0.91223 0.73865 0.20202 0.0
C78 C 0.91634 0.76233 0.21492 0.0
C79 C 0.89156 0.77112 0.18111 0.0
N80 N 0.90326 0.78278 0.20174 0.0
C81 C 0.93829 0.73086 0.13671 0.0
C82 C 0.96021 0.67933 0.14412 0.0
C83 C 0.97685 0.70011 0.13554 0.0
C84 C 0.96561 0.72611 0.13135 0.0
C85 C 0.933 0.68483 0.14868 0.0
N86 N 0.92243 0.71042 0.14566 0.0
H87 H 0.92985 0.75108 0.13414 0.0
H88 H 0.92075 0.66834 0.15464 0.0
H89 H 0.92029 0.71885 0.20766 0.0
H90 H 0.87995 0.7823 0.1663 0.0
O91 O 0.87793 0.74842 0.12912 0.0
O92 O 0.8487 0.73175 0.15896 0.0
O93 O 0.88373 0.68974 0.18457 0.0
C94 C 0.8535 0.74848 0.13899 0.0
H95 H 0.82387 0.67169 0.09516 0.0
H96 H 0.9276 0.76415 0.23298 0.0
H97 H 0.96815 0.65891 0.14709 0.0
H98 H 0.97795 0.74268 0.12467 0.0
Co99 Co 0.28465 0.91183 0.13661 0.0
C100 C 0.23745 0.90952 0.17411 0.0
C101 C 0.24196 0.94921 0.15738 0.0
C102 C 0.21799 0.94856 0.17159 0.0
N103 N 0.25486 0.92488 0.15963 0.0
N104 N 0.21513 0.92348 0.18209 0.0
H105 H 0.23986 0.88792 0.17686 0.0
H106 H 0.24824 0.96592 0.14461 0.0
C107 C 0.30108 0.96763 0.14533 0.0
O108 O 0.29789 0.96144 0.17098 0.0
N109 N 0.31229 0.89878 0.11171 0.0
C110 C 0.32866 0.87699 0.11568 0.0
C111 C 0.33611 0.86678 0.09115 0.0
C112 C 0.3103 0.90153 0.08472 0.0
N113 N 0.324 0.88182 0.07161 0.0
C114 C 0.3009 0.89485 0.18946 0.0
C115 C 0.35348 0.91019 0.18536 0.0
C116 C 0.34446 0.89702 0.20907 0.0
C117 C 0.31775 0.88964 0.21095 0.0
C118 C 0.33553 0.91585 0.16442 0.0
N119 N 0.30943 0.90824 0.16666 0.0
H120 H 0.28127 0.88685 0.19097 0.0
H121 H 0.34278 0.9257 0.14613 0.0
H122 H 0.33234 0.8672 0.13498 0.0
H123 H 0.29606 0.91539 0.07517 0.0
O124 O 0.27194 0.87607 0.13984 0.0
O125 O 0.25828 0.9064 0.10914 0.0
O126 O 0.29562 0.95031 0.12792 0.0
C127 C 0.25732 0.88179 0.11923 0.0
H128 H 0.20339 0.96504 0.1731 0.0
H129 H 0.34763 0.84824 0.08826 0.0
H130 H 0.37418 0.91575 0.18293 0.0
H131 H 0.31023 0.87856 0.22847 0.0
Co132 Co 0.08851 0.73348 0.87246 0.0
C133 C 0.0935 0.77869 0.83257 0.0
C134 C 0.05592 0.78094 0.85365 0.0
C135 C 0.05869 0.80438 0.83837 0.0
N136 N 0.07744 0.76427 0.84941 0.0
N137 N 0.08254 0.80298 0.82535 0.0
H138 H 0.11379 0.77259 0.82732 0.0
H139 H 0.04023 0.77751 0.86851 0.0
C140 C 0.03119 0.72414 0.86613 0.0
O141 O 0.03629 0.72855 0.84043 0.0
N142 N 0.10005 0.70444 0.89673 0.0
C143 C 0.11903 0.68532 0.89146 0.0
C144 C 0.12924 0.67544 0.91532 0.0
C145 C 0.09893 0.70579 0.92367 0.0
N146 N 0.11699 0.68877 0.93555 0.0
C147 C 0.10041 0.71318 0.82005 0.0
C148 C 0.07692 0.66383 0.82842 0.0
C149 C 0.09046 0.66935 0.80411 0.0
C150 C 0.1019 0.69449 0.79989 0.0
C151 C 0.0752 0.68351 0.84788 0.0
N152 N 0.08691 0.70793 0.84359 0.0
H153 H 0.11149 0.73116 0.81707 0.0
H154 H 0.06541 0.67869 0.8669 0.0
H155 H 0.12708 0.68101 0.87171 0.0
H156 H 0.08785 0.72154 0.93403 0.0
O157 O 0.1253 0.74276 0.86741 0.0
O158 O 0.09812 0.75929 0.89894 0.0
O159 O 0.0498 0.72663 0.88303 0.0
C160 C 0.122 0.75823 0.88774 0.0
H161 H 0.04519 0.82187 0.83852 0.0
H162 H 0.14616 0.66143 0.91734 0.0
H163 H 0.06846 0.64428 0.83262 0.0
H164 H 0.11352 0.69903 0.78178 0.0
Co165 Co 0.28762 0.09316 0.8564 0.0
C166 C 0.24858 0.10096 0.81259 0.0
C167 C 0.25465 0.05924 0.82381 0.0
C168 C 0.23398 0.06153 0.8061 0.0
N169 N 0.26386 0.08398 0.82796 0.0
N170 N 0.22996 0.08782 0.79926 0.0
H171 H 0.2498 0.12267 0.81257 0.0
H172 H 0.26132 0.04077 0.83397 0.0
C173 C 0.2968 0.03966 0.8823 0.0
O174 O 0.28626 0.05049 0.90392 0.0
N175 N 0.31059 0.10154 0.88609 0.0
C176 C 0.3374 0.09787 0.88796 0.0
C177 C 0.34497 0.10475 0.91329 0.0
C178 C 0.30233 0.10969 0.91065 0.0
N179 N 0.32274 0.11187 0.92742 0.0
C180 C 0.32774 0.12426 0.83055 0.0
C181 C 0.33474 0.09341 0.78572 0.0
C182 C 0.3451 0.11949 0.78518 0.0
C183 C 0.34262 0.1342 0.80867 0.0
C184 C 0.3205 0.08381 0.80854 0.0
N185 N 0.31624 0.09973 0.83012 0.0
H186 H 0.32405 0.13713 0.84738 0.0
H187 H 0.3112 0.06448 0.80803 0.0
H188 H 0.35055 0.09022 0.87227 0.0
H189 H 0.28174 0.11365 0.91671 0.0
O190 O 0.27338 0.12923 0.85556 0.0
O191 O 0.25598 0.09614 0.88037 0.0
O192 O 0.29915 0.05406 0.86079 0.0
C193 C 0.25496 0.12158 0.87246 0.0
H194 H 0.22225 0.04515 0.79953 0.0
H195 H 0.36505 0.10376 0.92098 0.0
H196 H 0.33609 0.08118 0.76816 0.0
H197 H 0.35095 0.15398 0.80979 0.0
Co198 Co 0.91405 0.28304 0.86571 0.0
C199 C 0.91745 0.23887 0.82644 0.0
C200 C 0.95507 0.24441 0.84437 0.0
C201 C 0.95734 0.22195 0.82896 0.0
N202 N 0.93025 0.25585 0.84212 0.0
N203 N 0.93359 0.21851 0.81766 0.0
H204 H 0.89615 0.23989 0.82324 0.0
H205 H 0.97014 0.25045 0.85787 0.0
C206 C 0.96883 0.30345 0.8577 0.0
O207 O 0.9639 0.30277 0.832 0.0
N208 N 0.89848 0.30794 0.89126 0.0
C209 C 0.87577 0.32316 0.88914 0.0
C210 C 0.86693 0.32994 0.91459 0.0
C211 C 0.90295 0.30554 0.91783 0.0
N212 N 0.88384 0.31841 0.93262 0.0
C213 C 0.8996 0.30252 0.81335 0.0
C214 C 0.91073 0.35614 0.8187 0.0
C215 C 0.90001 0.34789 0.79467 0.0
C216 C 0.89471 0.3207 0.79218 0.0
C217 C 0.91625 0.33686 0.83936 0.0
N218 N 0.91084 0.31023 0.83641 0.0
H219 H 0.89293 0.28246 0.81141 0.0
H220 H 0.92427 0.34338 0.85791 0.0
H221 H 0.86504 0.32691 0.87076 0.0
H222 H 0.91864 0.29257 0.92625 0.0
O223 O 0.87961 0.26854 0.86137 0.0
O224 O 0.90805 0.25397 0.89249 0.0
O225 O 0.95114 0.29534 0.87494 0.0
C226 C 0.88472 0.25224 0.88145 0.0
H227 H 0.97481 0.20864 0.82713 0.0
H228 H 0.84822 0.34041 0.91952 0.0
H229 H 0.91446 0.3772 0.82159 0.0
H230 H 0.88536 0.31371 0.77443 0.0
Co231 Co 0.72659 0.92349 0.84263 0.0
C232 C 0.77561 0.91751 0.80822 0.0
C233 C 0.77179 0.95683 0.82413 0.0
C234 C 0.79669 0.95409 0.81195 0.0
N235 N 0.75804 0.93413 0.82119 0.0
N236 N 0.79912 0.92924 0.80204 0.0
H237 H 0.77238 0.89636 0.80562 0.0
H238 H 0.76535 0.97354 0.83626 0.0
C239 C 0.71283 0.98084 0.82962 0.0
O240 O 0.71762 0.97484 0.80448 0.0
N241 N 0.69684 0.91283 0.86553 0.0
C242 C 0.68145 0.8914 0.86245 0.0
C243 C 0.66921 0.88495 0.88673 0.0
C244 C 0.69366 0.9192 0.89146 0.0
N245 N 0.67714 0.90231 0.90497 0.0
C246 C 0.71186 0.90722 0.79031 0.0
C247 C 0.65926 0.92608 0.79377 0.0
C248 C 0.66728 0.90982 0.77247 0.0
C249 C 0.69413 0.90113 0.77038 0.0
C250 C 0.67787 0.93237 0.81293 0.0
N251 N 0.70371 0.92236 0.81148 0.0
H252 H 0.73157 0.89805 0.7895 0.0
H253 H 0.67101 0.94382 0.82995 0.0
H254 H 0.68125 0.87965 0.8446 0.0
H255 H 0.70584 0.93361 0.90097 0.0
O256 O 0.73909 0.88652 0.84297 0.0
O257 O 0.75029 0.91626 0.87258 0.0
O258 O 0.71609 0.96268 0.8482 0.0
C259 C 0.75205 0.89154 0.86437 0.0
H260 H 0.81218 0.96884 0.81157 0.0
H261 H 0.65733 0.86743 0.89116 0.0
H262 H 0.63857 0.93292 0.79619 0.0
H263 H 0.70092 0.88797 0.75456 0.0
Co264 Co 0.15671 0.09633 0.2846 0.0
C265 C 0.19549 0.09836 0.23871 0.0
C266 C 0.18158 0.05847 0.24569 0.0
C267 C 0.19623 0.05913 0.22198 0.0
N268 N 0.18142 0.08303 0.25665 0.0
N269 N 0.20485 0.08433 0.21754 0.0
H270 H 0.1972 0.11991 0.24003 0.0
H271 H 0.17008 0.0416 0.25284 0.0
C272 C 0.16032 0.03859 0.30462 0.0
O273 O 0.18611 0.04099 0.30796 0.0
N274 N 0.13068 0.10922 0.31066 0.0
C275 C 0.13169 0.13079 0.32619 0.0
C276 C 0.10609 0.13703 0.33548 0.0
C277 C 0.10476 0.10281 0.31056 0.0
N278 N 0.08904 0.11961 0.32527 0.0
C279 C 0.20848 0.10742 0.30425 0.0
C280 C 0.1972 0.09518 0.35768 0.0
C281 C 0.22125 0.10762 0.35062 0.0
C282 C 0.22715 0.1129 0.32346 0.0
C283 C 0.17931 0.08926 0.33766 0.0
N284 N 0.18473 0.09604 0.3113 0.0
H285 H 0.21256 0.11415 0.28395 0.0
H286 H 0.16044 0.08051 0.34351 0.0
H287 H 0.14936 0.14233 0.32892 0.0
H288 H 0.09746 0.08786 0.29753 0.0
O289 O 0.16068 0.13285 0.27146 0.0
O290 O 0.13074 0.10499 0.25704 0.0
O291 O 0.1462 0.05828 0.29474 0.0
C292 C 0.14067 0.12902 0.25605 0.0
H293 H 0.19919 0.04262 0.2085 0.0
H294 H 0.10047 0.15417 0.34743 0.0
H295 H 0.19185 0.091 0.37853 0.0
H296 H 0.24521 0.12312 0.31724 0.0
Co297 Co 0.88329 0.1485 0.2972 0.0
C298 C 0.88081 0.09441 0.3204 0.0
C299 C 0.84974 0.11974 0.33716 0.0
C300 C 0.84351 0.09322 0.34224 0.0
N301 N 0.87328 0.12064 0.3235 0.0
N302 N 0.86262 0.07713 0.33087 0.0
H303 H 0.89698 0.08833 0.30688 0.0
H304 H 0.83622 0.1369 0.34003 0.0
C305 C 0.87507 0.18195 0.34847 0.0
O306 O 0.87356 0.16069 0.36471 0.0
N307 N 0.89365 0.17509 0.26964 0.0
C308 C 0.90935 0.19629 0.27272 0.0
C309 C 0.91321 0.2093 0.24811 0.0
C310 C 0.88844 0.17541 0.24316 0.0
N311 N 0.89998 0.19611 0.22955 0.0
C312 C 0.9374 0.13292 0.28419 0.0
C313 C 0.95776 0.13991 0.33447 0.0
C314 C 0.97517 0.13191 0.31369 0.0
C315 C 0.96471 0.12802 0.28834 0.0
C316 C 0.93057 0.14409 0.32958 0.0
N317 N 0.9208 0.14122 0.30459 0.0
H318 H 0.92952 0.13037 0.26449 0.0
H319 H 0.91758 0.14944 0.34604 0.0
H320 H 0.91762 0.20183 0.29151 0.0
H321 H 0.8768 0.16063 0.2337 0.0
O322 O 0.87789 0.12226 0.26996 0.0
O323 O 0.84689 0.151 0.2856 0.0
O324 O 0.88009 0.17934 0.32335 0.0
C325 C 0.85302 0.13109 0.27011 0.0
H326 H 0.82482 0.0866 0.35117 0.0
H327 H 0.92437 0.22741 0.24434 0.0
H328 H 0.96506 0.14261 0.35443 0.0
H329 H 0.97762 0.12184 0.27177 0.0
Co330 Co 0.86176 0.91344 0.27738 0.0
C331 C 0.82011 0.91081 0.23547 0.0
C332 C 0.83549 0.95024 0.2375 0.0
C333 C 0.81864 0.95002 0.21613 0.0
N334 N 0.83573 0.9259 0.25051 0.0
N335 N 0.80893 0.92514 0.21487 0.0
H336 H 0.81861 0.88922 0.23801 0.0
H337 H 0.84802 0.96676 0.24194 0.0
C338 C 0.84818 0.96876 0.29519 0.0
O339 O 0.82329 0.96127 0.29372 0.0
N340 N 0.88948 0.90167 0.30191 0.0
C341 C 0.89096 0.87863 0.31688 0.0
C342 C 0.91747 0.87312 0.3229 0.0
C343 C 0.91492 0.90983 0.29915 0.0
N344 N 0.93261 0.89262 0.31138 0.0
C345 C 0.81224 0.89455 0.29984 0.0
C346 C 0.81794 0.91143 0.35148 0.0
C347 C 0.79483 0.89789 0.3451 0.0
C348 C 0.79219 0.8895 0.31894 0.0
C349 C 0.83739 0.91684 0.33131 0.0
N350 N 0.83413 0.90882 0.30561 0.0
H351 H 0.81044 0.88582 0.2807 0.0
H352 H 0.85522 0.92713 0.33641 0.0
H353 H 0.87442 0.86546 0.32094 0.0
H354 H 0.92059 0.92628 0.28564 0.0
O355 O 0.86072 0.87752 0.26465 0.0
O356 O 0.88798 0.90846 0.24784 0.0
O357 O 0.86726 0.95239 0.28796 0.0
C358 C 0.87953 0.88379 0.24761 0.0
H359 H 0.81458 0.96669 0.20215 0.0
H360 H 0.92509 0.85516 0.33338 0.0
H361 H 0.82097 0.91757 0.37176 0.0
H362 H 0.7752 0.87795 0.31354 0.0
Co363 Co 0.09916 0.86428 0.27868 0.0
C364 C 0.10675 0.8235 0.23658 0.0
C365 C 0.06523 0.83212 0.24517 0.0
C366 C 0.06721 0.81604 0.22327 0.0
N367 N 0.09005 0.83695 0.25357 0.0
N368 N 0.09333 0.81088 0.21768 0.0
H369 H 0.12832 0.82439 0.23684 0.0
H370 H 0.04679 0.84069 0.25334 0.0
C371 C 0.04617 0.89087 0.2868 0.0
O372 O 0.05725 0.91268 0.27661 0.0
N373 N 0.10742 0.89264 0.30314 0.0
C374 C 0.10277 0.89327 0.32992 0.0
C375 C 0.1102 0.91794 0.33895 0.0
C376 C 0.1167 0.91727 0.29631 0.0
N377 N 0.11868 0.93287 0.31761 0.0
C378 C 0.1285 0.83622 0.31909 0.0
C379 C 0.09584 0.79252 0.32578 0.0
C380 C 0.1213 0.79119 0.33731 0.0
C381 C 0.13697 0.81411 0.33488 0.0
C382 C 0.0877 0.81562 0.31063 0.0
N383 N 0.10447 0.83666 0.30672 0.0
H384 H 0.14196 0.85267 0.31576 0.0
H385 H 0.06873 0.81584 0.30068 0.0
H386 H 0.09409 0.87718 0.34203 0.0
H387 H 0.12161 0.92426 0.27613 0.0
O388 O 0.13533 0.86347 0.26546 0.0
O389 O 0.10334 0.88975 0.24791 0.0
O390 O 0.06023 0.86907 0.28926 0.0
C391 C 0.12847 0.8814 0.24735 0.0
H392 H 0.05065 0.80941 0.21186 0.0
H393 H 0.10866 0.9247 0.35933 0.0
H394 H 0.08297 0.77538 0.32706 0.0
H395 H 0.15633 0.81461 0.34407 0.0
Co396 Co 0.15548 0.89841 0.71824 0.0
C397 C 0.10405 0.88971 0.69293 0.0
C398 C 0.13214 0.85712 0.68604 0.0
C399 C 0.10694 0.84902 0.67976 0.0
N400 N 0.13041 0.88276 0.69437 0.0
N401 N 0.08947 0.86967 0.68403 0.0
H402 H 0.0949 0.90746 0.70148 0.0
H403 H 0.14989 0.84415 0.68745 0.0
C404 C 0.18941 0.88455 0.66929 0.0
O405 O 0.16996 0.89362 0.65386 0.0
N406 N 0.17945 0.91375 0.7435 0.0
C407 C 0.17793 0.93923 0.75224 0.0
C408 C 0.19119 0.94028 0.77599 0.0
C409 C 0.19379 0.89976 0.76224 0.0
N410 N 0.20077 0.91533 0.7826 0.0
C411 C 0.12936 0.94921 0.70395 0.0
C412 C 0.17173 0.97076 0.67487 0.0
C413 C 0.14846 0.98682 0.6787 0.0
C414 C 0.12706 0.97558 0.69343 0.0
C415 C 0.17332 0.9446 0.68603 0.0
N416 N 0.152 0.93367 0.6997 0.0
H417 H 0.11355 0.94208 0.7171 0.0
H418 H 0.19237 0.93394 0.68482 0.0
H419 H 0.16593 0.95558 0.74357 0.0
H420 H 0.19729 0.87817 0.76191 0.0
O421 O 0.12658 0.90123 0.74508 0.0
O422 O 0.15438 0.86594 0.74001 0.0
O423 O 0.18716 0.8864 0.69481 0.0
C424 C 0.13419 0.87689 0.75282 0.0
H425 H 0.10154 0.82891 0.67467 0.0
H426 H 0.19158 0.95761 0.78854 0.0
H427 H 0.189 0.97855 0.66405 0.0
H428 H 0.10915 0.9875 0.69816 0.0
Co429 Co 0.11266 0.15837 0.71239 0.0
C430 C 0.11021 0.18967 0.76223 0.0
C431 C 0.07316 0.17101 0.75581 0.0
C432 C 0.07143 0.18321 0.78017 0.0
N433 N 0.09721 0.17589 0.74391 0.0
N434 N 0.09479 0.19502 0.78408 0.0
H435 H 0.13127 0.19383 0.76082 0.0
H436 H 0.05832 0.15801 0.74839 0.0
C437 C 0.05587 0.16634 0.69615 0.0
O438 O 0.05848 0.19214 0.70019 0.0
N439 N 0.12749 0.13925 0.6823 0.0
C440 C 0.15095 0.14337 0.6692 0.0
C441 C 0.15892 0.11983 0.65688 0.0
C442 C 0.12132 0.11372 0.67746 0.0
N443 N 0.14028 0.1012 0.66232 0.0
C444 C 0.12705 0.21273 0.70137 0.0
C445 C 0.11052 0.21726 0.64897 0.0
C446 C 0.12481 0.23815 0.65953 0.0
C447 C 0.13266 0.23584 0.68612 0.0
C448 C 0.10526 0.19417 0.66513 0.0
N449 N 0.11337 0.1922 0.69117 0.0
H450 H 0.13558 0.2108 0.7208 0.0
H451 H 0.09564 0.17746 0.6564 0.0
H452 H 0.1628 0.16105 0.67095 0.0
H453 H 0.10526 0.10339 0.688 0.0
O454 O 0.14792 0.16031 0.7264 0.0
O455 O 0.12076 0.12666 0.73532 0.0
O456 O 0.07558 0.14978 0.70035 0.0
C457 C 0.14404 0.13722 0.73849 0.0
H458 H 0.05459 0.18272 0.79419 0.0
H459 H 0.17805 0.11597 0.64688 0.0
H460 H 0.10467 0.2182 0.62821 0.0
H461 H 0.14427 0.25132 0.69472 0.0
Co462 Co 0.88653 0.10056 0.72558 0.0
C463 C 0.84628 0.10297 0.77027 0.0
C464 C 0.86719 0.06484 0.77034 0.0
C465 C 0.85123 0.06597 0.79321 0.0
N466 N 0.86346 0.08776 0.7553 0.0
N467 N 0.83821 0.09013 0.7932 0.0
H468 H 0.84119 0.12381 0.76553 0.0
H469 H 0.88196 0.04908 0.7662 0.0
C470 C 0.88113 0.04338 0.71279 0.0
O471 O 0.85525 0.04809 0.71598 0.0
N472 N 0.9107 0.11374 0.69755 0.0
C473 C 0.90517 0.1335 0.67915 0.0
C474 C 0.92887 0.14343 0.66904 0.0
C475 C 0.93769 0.11203 0.6984 0.0
N476 N 0.94933 0.13023 0.68148 0.0
C477 C 0.83424 0.11437 0.70585 0.0
C478 C 0.84124 0.09258 0.65583 0.0
C479 C 0.81694 0.1058 0.66242 0.0
C480 C 0.81353 0.11658 0.68778 0.0
C481 C 0.86134 0.09009 0.67497 0.0
N482 N 0.85757 0.10067 0.69986 0.0
H483 H 0.83178 0.12498 0.72408 0.0
H484 H 0.88026 0.08037 0.6695 0.0
H485 H 0.88539 0.14194 0.67522 0.0
H486 H 0.9484 0.09999 0.71337 0.0
O487 O 0.88121 0.13692 0.73681 0.0
O488 O 0.91288 0.10856 0.75209 0.0
O489 O 0.89754 0.06204 0.71695 0.0
C490 C 0.9014 0.13257 0.75238 0.0
H491 H 0.8507 0.05093 0.80939 0.0
H492 H 0.93075 0.16051 0.65516 0.0
H493 H 0.8448 0.08472 0.63604 0.0
H494 H 0.79544 0.128 0.6931 0.0
Co495 Co 0.922 0.86018 0.72104 0.0
C496 C 0.91054 0.8219 0.7668 0.0
C497 C 0.95143 0.81823 0.75342 0.0
C498 C 0.94838 0.80323 0.77701 0.0
N499 N 0.92771 0.83025 0.74701 0.0
N500 N 0.92268 0.80578 0.78552 0.0
H501 H 0.88987 0.82876 0.76857 0.0
H502 H 0.97013 0.82107 0.74261 0.0
C503 C 0.97469 0.86871 0.69334 0.0
O504 O 0.96119 0.87257 0.67124 0.0
N505 N 0.91659 0.8914 0.69643 0.0
C506 C 0.90563 0.8937 0.6719 0.0
C507 C 0.90181 0.92062 0.66501 0.0
C508 C 0.91998 0.91716 0.70343 0.0
N509 N 0.91064 0.93531 0.685 0.0
C510 C 0.89443 0.83192 0.68205 0.0
C511 C 0.93521 0.79665 0.66654 0.0
C512 C 0.90994 0.79482 0.65504 0.0
C513 C 0.88954 0.81287 0.66316 0.0
C514 C 0.93941 0.81649 0.68538 0.0
N515 N 0.91925 0.83438 0.69243 0.0
H516 H 0.87793 0.84509 0.68796 0.0
H517 H 0.95864 0.81686 0.6947 0.0
H518 H 0.90016 0.87747 0.65962 0.0
H519 H 0.92743 0.92269 0.72258 0.0
O520 O 0.88468 0.86211 0.73044 0.0
O521 O 0.91517 0.88434 0.7511 0.0
O522 O 0.96229 0.86318 0.71553 0.0
C523 C 0.88993 0.87914 0.74843 0.0
H524 H 0.96407 0.79195 0.78742 0.0
H525 H 0.89222 0.92875 0.64714 0.0
H526 H 0.95143 0.78265 0.66139 0.0
H527 H 0.86942 0.81169 0.6558 0.0
Co528 Co 0.28707 0.14551 0.09141 0.0
C529 C 0.23978 0.18317 0.09475 0.0
C530 C 0.24653 0.17051 0.05466 0.0
C531 C 0.22237 0.1847 0.05592 0.0
N532 N 0.25792 0.1699 0.07898 0.0
N533 N 0.21813 0.19258 0.08124 0.0
H534 H 0.24151 0.18452 0.1162 0.0
H535 H 0.25387 0.15976 0.03743 0.0
C536 C 0.30595 0.15023 0.03389 0.0
O537 O 0.30882 0.17614 0.03692 0.0
N538 N 0.31412 0.11944 0.10364 0.0
C539 C 0.33002 0.12127 0.12486 0.0
C540 C 0.33802 0.0956 0.13333 0.0
C541 C 0.31276 0.09277 0.09953 0.0
N542 N 0.32665 0.0776 0.11772 0.0
C543 C 0.3046 0.19848 0.10197 0.0
C544 C 0.35843 0.18951 0.09063 0.0
C545 C 0.34999 0.21382 0.10222 0.0
C546 C 0.32263 0.2184 0.10713 0.0
C547 C 0.33946 0.17031 0.08483 0.0
N548 N 0.31284 0.17464 0.09108 0.0
H549 H 0.28422 0.20185 0.10849 0.0
H550 H 0.34634 0.15144 0.07647 0.0
H551 H 0.33323 0.13964 0.13522 0.0
H552 H 0.29885 0.08464 0.08586 0.0
O553 O 0.27519 0.14919 0.12789 0.0
O554 O 0.26023 0.11887 0.10081 0.0
O555 O 0.2965 0.13545 0.05317 0.0
C556 C 0.26001 0.1289 0.12469 0.0
H557 H 0.20863 0.18808 0.03964 0.0
H558 H 0.3494 0.09066 0.15107 0.0
H559 H 0.37951 0.18512 0.08676 0.0
H560 H 0.31534 0.23658 0.1167 0.0
Co561 Co 0.28034 0.85812 0.90871 0.0
C562 C 0.23376 0.82193 0.9094 0.0
C563 C 0.24039 0.83672 0.94822 0.0
C564 C 0.21693 0.82292 0.94925 0.0
N565 N 0.25162 0.83552 0.92335 0.0
N566 N 0.21275 0.81365 0.92473 0.0
H567 H 0.23476 0.82003 0.88791 0.0
H568 H 0.24728 0.8486 0.96423 0.0
C569 C 0.29958 0.84902 0.96491 0.0
O570 O 0.29867 0.82306 0.9608 0.0
N571 N 0.30706 0.88256 0.89496 0.0
C572 C 0.32 0.88256 0.87099 0.0
C573 C 0.32754 0.90862 0.8645 0.0
C574 C 0.30717 0.90832 0.90272 0.0
N575 N 0.31907 0.92489 0.88439 0.0
C576 C 0.29656 0.80616 0.89105 0.0
C577 C 0.3494 0.80543 0.90588 0.0
C578 C 0.34009 0.78394 0.89141 0.0
C579 C 0.31336 0.78453 0.8842 0.0
C580 C 0.33168 0.82715 0.91229 0.0
N581 N 0.30535 0.82705 0.90526 0.0
H582 H 0.27672 0.80652 0.88345 0.0
H583 H 0.33921 0.84419 0.92239 0.0
H584 H 0.32128 0.86561 0.8579 0.0
H585 H 0.29541 0.9153 0.91975 0.0
O586 O 0.26641 0.85613 0.87351 0.0
O587 O 0.25339 0.88713 0.90237 0.0
O588 O 0.29215 0.866 0.94643 0.0
C589 C 0.25148 0.87713 0.8786 0.0
H590 H 0.20348 0.8209 0.96646 0.0
H591 H 0.33665 0.91528 0.84565 0.0
H592 H 0.37017 0.80578 0.91148 0.0
H593 H 0.30556 0.76855 0.87264 0.0
Co594 Co 0.14409 0.27807 0.90686 0.0
C595 C 0.18243 0.23119 0.90334 0.0
C596 C 0.16451 0.23345 0.94241 0.0
C597 C 0.17873 0.20933 0.94092 0.0
N598 N 0.16735 0.24777 0.91904 0.0
N599 N 0.18989 0.2078 0.91619 0.0
H600 H 0.18596 0.23513 0.88217 0.0
H601 H 0.15116 0.23872 0.95885 0.0
C602 C 0.14899 0.29139 0.96361 0.0
O603 O 0.17506 0.28947 0.95965 0.0
N604 N 0.11904 0.30628 0.89512 0.0
C605 C 0.1221 0.32454 0.87484 0.0
C606 C 0.0971 0.3344 0.86755 0.0
C607 C 0.09238 0.3053 0.89984 0.0
N608 N 0.07832 0.32189 0.88299 0.0
C609 C 0.19706 0.29684 0.89545 0.0
C610 C 0.18913 0.34833 0.91417 0.0
C611 C 0.21404 0.34108 0.90252 0.0
C612 C 0.21786 0.31487 0.89336 0.0
C613 C 0.1689 0.32935 0.91644 0.0
N614 N 0.17302 0.30382 0.90721 0.0
H615 H 0.20013 0.27759 0.88652 0.0
H616 H 0.14971 0.33533 0.92519 0.0
H617 H 0.14087 0.32862 0.8645 0.0
H618 H 0.08345 0.29031 0.91318 0.0
O619 O 0.14924 0.26811 0.8705 0.0
O620 O 0.11785 0.25175 0.89811 0.0
O621 O 0.13319 0.28586 0.94496 0.0
C622 C 0.12902 0.25259 0.87417 0.0
H623 H 0.17963 0.19368 0.9565 0.0
H624 H 0.09314 0.34823 0.85081 0.0
H625 H 0.18521 0.36854 0.9211 0.0
H626 H 0.2364 0.30871 0.88331 0.0
Co627 Co 0.72653 0.15365 0.8907 0.0
C628 C 0.70287 0.10327 0.87495 0.0
C629 C 0.69083 0.13625 0.84886 0.0
C630 C 0.68348 0.11258 0.83782 0.0
N631 N 0.70272 0.13047 0.87244 0.0
N632 N 0.69136 0.09181 0.85418 0.0
H633 H 0.71436 0.0918 0.88959 0.0
H634 H 0.68989 0.15597 0.83901 0.0
C635 C 0.67698 0.18866 0.88202 0.0
O636 O 0.66249 0.16823 0.89026 0.0
N637 N 0.75156 0.17577 0.90869 0.0
C638 C 0.76065 0.17103 0.93373 0.0
C639 C 0.78407 0.18433 0.93652 0.0
C640 C 0.76978 0.19194 0.89666 0.0
N641 N 0.79011 0.19709 0.91304 0.0
C642 C 0.71099 0.12212 0.93785 0.0
C643 C 0.68477 0.1639 0.96387 0.0
C644 C 0.68756 0.13881 0.97741 0.0
C645 C 0.70079 0.11768 0.9639 0.0
C646 C 0.69603 0.16768 0.93833 0.0
N647 N 0.70818 0.14677 0.9251 0.0
H648 H 0.72283 0.10622 0.92883 0.0
H649 H 0.69613 0.18796 0.92999 0.0
H650 H 0.75251 0.15678 0.94831 0.0
H651 H 0.7692 0.19806 0.87568 0.0
O652 O 0.75366 0.1245 0.8909 0.0
O653 O 0.74819 0.15578 0.85854 0.0
O654 O 0.70262 0.18646 0.88206 0.0
C655 C 0.76131 0.13456 0.86759 0.0
H656 H 0.67494 0.11079 0.81828 0.0
H657 H 0.79687 0.18257 0.9537 0.0
H658 H 0.67481 0.18097 0.9732 0.0
H659 H 0.70458 0.09824 0.97375 0.0
Co660 Co 0.85702 0.73524 0.91658 0.0
C661 C 0.81785 0.78115 0.90841 0.0
C662 C 0.83428 0.78053 0.94748 0.0
C663 C 0.81946 0.80412 0.94392 0.0
N664 N 0.83267 0.76546 0.92554 0.0
N665 N 0.80922 0.80459 0.91922 0.0
H666 H 0.81556 0.77684 0.88754 0.0
H667 H 0.84714 0.77601 0.96422 0.0
C668 C 0.84486 0.72314 0.97385 0.0
O669 O 0.81981 0.72656 0.9667 0.0
N670 N 0.8829 0.70707 0.90767 0.0
C671 C 0.88136 0.68952 0.88781 0.0
C672 C 0.90692 0.68095 0.8806 0.0
C673 C 0.90922 0.70869 0.9124 0.0
N674 N 0.92448 0.69354 0.89568 0.0
C675 C 0.80624 0.71512 0.90199 0.0
C676 C 0.81448 0.66329 0.92281 0.0
C677 C 0.79209 0.66913 0.90706 0.0
C678 C 0.78767 0.69557 0.89731 0.0
C679 C 0.83222 0.68375 0.92778 0.0
N680 N 0.82836 0.70923 0.91685 0.0
H681 H 0.80354 0.73445 0.89205 0.0
H682 H 0.84997 0.67869 0.93908 0.0
H683 H 0.86334 0.68569 0.87718 0.0
H684 H 0.91713 0.72378 0.92495 0.0
O685 O 0.85537 0.74551 0.87923 0.0
O686 O 0.8843 0.76166 0.90696 0.0
O687 O 0.86365 0.72705 0.95629 0.0
C688 C 0.87535 0.76091 0.8826 0.0
H689 H 0.81758 0.82022 0.95799 0.0
H690 H 0.9122 0.66863 0.86367 0.0
H691 H 0.8187 0.64294 0.9304 0.0
H692 H 0.77095 0.70068 0.88448 0.0
Co693 Co 0.7062 0.86948 0.11026 0.0
C694 C 0.6811 0.92204 0.12129 0.0
C695 C 0.66465 0.89128 0.14715 0.0
C696 C 0.65685 0.91611 0.15679 0.0
N697 N 0.67978 0.89497 0.12469 0.0
N698 N 0.66759 0.93548 0.14066 0.0
H699 H 0.69482 0.93174 0.10739 0.0
H700 H 0.66193 0.87206 0.15753 0.0
C701 C 0.65638 0.83525 0.11564 0.0
O702 O 0.64039 0.85571 0.10878 0.0
N703 N 0.7334 0.84495 0.09612 0.0
C704 C 0.74668 0.84748 0.07236 0.0
C705 C 0.76827 0.82964 0.07227 0.0
C706 C 0.74714 0.82565 0.11013 0.0
N707 N 0.76873 0.81617 0.09615 0.0
C708 C 0.70156 0.90106 0.06105 0.0
C709 C 0.67526 0.86339 0.0329 0.0
C710 C 0.68276 0.88732 0.01943 0.0
C711 C 0.69596 0.90638 0.03404 0.0
C712 C 0.68183 0.8586 0.05966 0.0
N713 N 0.69424 0.87755 0.07377 0.0
H714 H 0.71339 0.91519 0.07114 0.0
H715 H 0.67813 0.83889 0.06824 0.0
H716 H 0.7422 0.86234 0.05671 0.0
H717 H 0.74264 0.82024 0.13088 0.0
O718 O 0.73366 0.89625 0.11379 0.0
O719 O 0.72177 0.86606 0.14504 0.0
O720 O 0.68171 0.83804 0.11597 0.0
C721 C 0.7368 0.88597 0.13796 0.0
H722 H 0.64613 0.91948 0.17553 0.0
H723 H 0.78311 0.82767 0.05626 0.0
H724 H 0.66508 0.84791 0.02272 0.0
H725 H 0.70318 0.92472 0.02446 0.0
Co726 Co 0.15449 0.72766 0.09485 0.0
C727 C 0.19119 0.77352 0.09321 0.0
C728 C 0.17234 0.76993 0.05568 0.0
C729 C 0.18636 0.79339 0.05474 0.0
N730 N 0.17599 0.75685 0.0796 0.0
N731 N 0.19821 0.79555 0.07843 0.0
H732 H 0.19529 0.77084 0.1143 0.0
H733 H 0.15875 0.76425 0.04053 0.0
C734 C 0.15881 0.71115 0.03823 0.0
O735 O 0.1849 0.71226 0.04036 0.0
N736 N 0.13118 0.70045 0.1094 0.0
C737 C 0.13378 0.68459 0.13162 0.0
C738 C 0.10883 0.67514 0.13891 0.0
C739 C 0.1051 0.70044 0.10352 0.0
N740 N 0.09069 0.68552 0.12136 0.0
C741 C 0.20833 0.70879 0.10449 0.0
C742 C 0.20222 0.65591 0.09076 0.0
C743 C 0.22663 0.66344 0.10104 0.0
C744 C 0.22964 0.69033 0.10746 0.0
C745 C 0.18149 0.67539 0.08725 0.0
N746 N 0.18465 0.70154 0.09425 0.0
H747 H 0.21065 0.72854 0.11193 0.0
H748 H 0.16259 0.66926 0.07976 0.0
H749 H 0.15191 0.68194 0.14293 0.0
H750 H 0.09659 0.7138 0.08821 0.0
O751 O 0.15938 0.73993 0.13041 0.0
O752 O 0.12681 0.75461 0.10378 0.0
O753 O 0.14338 0.71787 0.05785 0.0
C754 C 0.1381 0.7552 0.12708 0.0
H755 H 0.18684 0.80818 0.03833 0.0
H756 H 0.10433 0.66312 0.15681 0.0
H757 H 0.199 0.63514 0.08608 0.0
H758 H 0.24783 0.69671 0.11642 0.0
Co759 Co 0.85883 0.27496 0.09874 0.0
C760 C 0.81611 0.23445 0.10599 0.0
C761 C 0.82932 0.23907 0.06498 0.0
C762 C 0.81201 0.2181 0.06704 0.0
N763 N 0.83199 0.24942 0.08938 0.0
N764 N 0.80389 0.21495 0.09287 0.0
H765 H 0.81473 0.23673 0.12745 0.0
H766 H 0.8401 0.24533 0.04694 0.0
C767 C 0.86373 0.30747 0.04693 0.0
O768 O 0.85692 0.32905 0.06026 0.0
N769 N 0.8874 0.29954 0.10734 0.0
C770 C 0.88678 0.32656 0.11017 0.0
C771 C 0.9122 0.33485 0.11515 0.0
C772 C 0.91362 0.29221 0.11001 0.0
N773 N 0.92912 0.31316 0.11512 0.0
C774 C 0.82887 0.31382 0.12815 0.0
C775 C 0.78575 0.31979 0.09469 0.0
C776 C 0.78371 0.33089 0.12028 0.0
C777 C 0.80627 0.32866 0.13645 0.0
C778 C 0.80933 0.30561 0.08674 0.0
N779 N 0.8305 0.30256 0.10357 0.0
H780 H 0.84488 0.31049 0.14214 0.0
H781 H 0.80995 0.29578 0.06773 0.0
H782 H 0.86939 0.33987 0.10828 0.0
H783 H 0.9216 0.27201 0.1074 0.0
O784 O 0.85755 0.26165 0.13519 0.0
O785 O 0.88415 0.24429 0.10361 0.0
O786 O 0.86528 0.28439 0.05918 0.0
C787 C 0.87571 0.24385 0.1286 0.0
H788 H 0.80641 0.20569 0.0508 0.0
H789 H 0.91766 0.35535 0.11851 0.0
H790 H 0.76885 0.32066 0.08151 0.0
H791 H 0.80622 0.33733 0.15606 0.0
Co792 Co 0.59923 0.77623 0.64345 0.0
C793 C 0.60395 0.73157 0.68434 0.0
C794 C 0.56514 0.73359 0.66735 0.0
C795 C 0.56727 0.71048 0.68324 0.0
N796 N 0.58793 0.74742 0.66851 0.0
N797 N 0.5918 0.70915 0.69382 0.0
H798 H 0.62492 0.73507 0.68707 0.0
H799 H 0.54876 0.73841 0.65416 0.0
C800 C 0.54128 0.79106 0.64909 0.0
O801 O 0.54519 0.79132 0.67501 0.0
N802 N 0.61049 0.80315 0.61717 0.0
C803 C 0.6303 0.82068 0.61924 0.0
C804 C 0.63769 0.82977 0.59386 0.0
C805 C 0.60618 0.80179 0.59074 0.0
N806 N 0.62281 0.81749 0.5759 0.0
C807 C 0.61009 0.79788 0.69448 0.0
C808 C 0.59302 0.85027 0.68217 0.0
C809 C 0.60695 0.84477 0.70583 0.0
C810 C 0.61463 0.8181 0.71236 0.0
C811 C 0.58802 0.82918 0.66517 0.0
N812 N 0.59732 0.80342 0.67099 0.0
H813 H 0.61871 0.77823 0.69886 0.0
H814 H 0.57825 0.83389 0.64643 0.0
H815 H 0.6403 0.82466 0.6376 0.0
H816 H 0.59349 0.78703 0.58249 0.0
O817 O 0.63611 0.76547 0.64814 0.0
O818 O 0.61007 0.74863 0.61799 0.0
O819 O 0.5606 0.78428 0.63309 0.0
C820 C 0.63371 0.7493 0.62855 0.0
H821 H 0.55233 0.69524 0.68566 0.0
H822 H 0.65425 0.84272 0.58899 0.0
H823 H 0.58704 0.87076 0.67638 0.0
H824 H 0.62599 0.8132 0.73018 0.0
Co825 Co 0.21377 0.59969 0.65994 0.0
C826 C 0.25612 0.60169 0.70042 0.0
C827 C 0.25581 0.5631 0.68288 0.0
C828 C 0.27787 0.56385 0.69879 0.0
N829 N 0.2415 0.58659 0.68451 0.0
N830 N 0.278 0.58822 0.70978 0.0
H831 H 0.25249 0.62302 0.70304 0.0
H832 H 0.25189 0.54714 0.66946 0.0
C833 C 0.19866 0.543 0.67006 0.0
O834 O 0.20015 0.54832 0.69559 0.0
N835 N 0.18789 0.61277 0.63421 0.0
C836 C 0.17183 0.63498 0.63609 0.0
C837 C 0.16349 0.64268 0.61079 0.0
C838 C 0.18898 0.60717 0.60797 0.0
N839 N 0.17451 0.62529 0.59315 0.0
C840 C 0.19129 0.61438 0.71105 0.0
C841 C 0.14038 0.59626 0.70334 0.0
C842 C 0.14578 0.60927 0.72695 0.0
C843 C 0.17162 0.61805 0.73083 0.0
C844 C 0.16102 0.5922 0.68427 0.0
N845 N 0.18621 0.6012 0.68829 0.0
H846 H 0.21011 0.62352 0.71363 0.0
H847 H 0.15655 0.58262 0.66585 0.0
H848 H 0.16853 0.64624 0.65412 0.0
H849 H 0.20268 0.59219 0.59957 0.0
O850 O 0.22591 0.63585 0.66247 0.0
O851 O 0.24208 0.60653 0.63323 0.0
O852 O 0.2045 0.56119 0.65219 0.0
C853 C 0.2425 0.63069 0.64281 0.0
H854 H 0.29325 0.54814 0.70101 0.0
H855 H 0.152 0.66086 0.60553 0.0
H856 H 0.12037 0.58989 0.69943 0.0
H857 H 0.17618 0.62921 0.74836 0.0
Co858 Co 0.39528 0.22384 0.65489 0.0
C859 C 0.3839 0.20386 0.60186 0.0
C860 C 0.35672 0.1879 0.63158 0.0
C861 C 0.34701 0.18337 0.60653 0.0
N862 N 0.38009 0.20067 0.62875 0.0
N863 N 0.36397 0.19383 0.58779 0.0
H864 H 0.39871 0.21673 0.59271 0.0
H865 H 0.34587 0.18483 0.65037 0.0
C866 C 0.38636 0.17195 0.68718 0.0
O867 O 0.39535 0.1578 0.66688 0.0
N868 N 0.41046 0.2487 0.67964 0.0
C869 C 0.43602 0.25686 0.67923 0.0
C870 C 0.43741 0.28018 0.69312 0.0
C871 C 0.39674 0.26759 0.69384 0.0
N872 N 0.4126 0.28731 0.70196 0.0
C873 C 0.44496 0.21244 0.62591 0.0
C874 C 0.46903 0.18268 0.66703 0.0
C875 C 0.48382 0.18763 0.64332 0.0
C876 C 0.47137 0.20266 0.62249 0.0
C877 C 0.44307 0.1933 0.66981 0.0
N878 N 0.43087 0.2073 0.64917 0.0
H879 H 0.43658 0.22556 0.61047 0.0
H880 H 0.43362 0.19153 0.68936 0.0
H881 H 0.45248 0.24806 0.66782 0.0
H882 H 0.3752 0.26808 0.69619 0.0
O883 O 0.39462 0.25308 0.62765 0.0
O884 O 0.36178 0.24315 0.65672 0.0
O885 O 0.38637 0.19776 0.68569 0.0
C886 C 0.37038 0.25822 0.63692 0.0
H887 H 0.32779 0.17506 0.60262 0.0
H888 H 0.45523 0.29163 0.69524 0.0
H889 H 0.47767 0.17144 0.68382 0.0
H890 H 0.48228 0.20804 0.6042 0.0
Co891 Co 0.78095 0.40613 0.63675 0.0
C892 C 0.73578 0.40597 0.67646 0.0
C893 C 0.73934 0.44477 0.65737 0.0
C894 C 0.71592 0.44473 0.67259 0.0
N895 N 0.75242 0.42061 0.66037 0.0
N896 N 0.71371 0.42019 0.68456 0.0
H897 H 0.73831 0.38451 0.68017 0.0
H898 H 0.74509 0.4608 0.64345 0.0
C899 C 0.79871 0.46174 0.64283 0.0
O900 O 0.79602 0.45698 0.6688 0.0
N901 N 0.80746 0.39164 0.61163 0.0
C902 C 0.82336 0.36952 0.61564 0.0
C903 C 0.83076 0.35933 0.59108 0.0
C904 C 0.80562 0.39463 0.58471 0.0
N905 N 0.81914 0.37485 0.57159 0.0
C906 C 0.79933 0.39045 0.68936 0.0
C907 C 0.8511 0.40788 0.68295 0.0
C908 C 0.84307 0.3961 0.70767 0.0
C909 C 0.81683 0.38733 0.71062 0.0
C910 C 0.83261 0.41124 0.66224 0.0
N911 N 0.80679 0.40307 0.66579 0.0
H912 H 0.78005 0.38178 0.6918 0.0
H913 H 0.83909 0.42023 0.64325 0.0
H914 H 0.82694 0.35975 0.63497 0.0
H915 H 0.79177 0.40891 0.57516 0.0
O916 O 0.76683 0.37091 0.64139 0.0
O917 O 0.7538 0.40129 0.61023 0.0
O918 O 0.79252 0.4438 0.62643 0.0
C919 C 0.75166 0.37723 0.62128 0.0
H920 H 0.70119 0.46112 0.67374 0.0
H921 H 0.84201 0.34065 0.58805 0.0
H922 H 0.87144 0.41432 0.67965 0.0
H923 H 0.81015 0.377 0.72892 0.0
Co924 Co 0.58782 0.22321 0.3792 0.0
C925 C 0.59263 0.26158 0.33321 0.0
C926 C 0.55428 0.2657 0.35307 0.0
C927 C 0.55653 0.28624 0.33397 0.0
N928 N 0.57697 0.25032 0.3526 0.0
N929 N 0.58078 0.28375 0.32167 0.0
H930 H 0.61303 0.25481 0.32898 0.0
H931 H 0.53782 0.26322 0.36729 0.0
C932 C 0.53772 0.19491 0.39392 0.0
O933 O 0.55167 0.17216 0.3921 0.0
N934 N 0.59866 0.19661 0.40708 0.0
C935 C 0.60771 0.17067 0.40555 0.0
C936 C 0.61661 0.16172 0.43027 0.0
C937 C 0.60129 0.20239 0.43312 0.0
N938 N 0.61254 0.18178 0.44745 0.0
C939 C 0.61221 0.18494 0.34472 0.0
C940 C 0.56771 0.17424 0.31549 0.0
C941 C 0.59213 0.16076 0.30973 0.0
C942 C 0.61456 0.16657 0.32443 0.0
C943 C 0.56611 0.19227 0.33656 0.0
N944 N 0.588 0.19642 0.35168 0.0
H945 H 0.62995 0.18936 0.35544 0.0
H946 H 0.54749 0.20329 0.34028 0.0
H947 H 0.60803 0.15852 0.38809 0.0
H948 H 0.59649 0.22186 0.44137 0.0
O949 O 0.62443 0.2333 0.3744 0.0
O950 O 0.59576 0.25225 0.40301 0.0
O951 O 0.54904 0.21741 0.38942 0.0
C952 C 0.61996 0.25093 0.39263 0.0
H953 H 0.54182 0.30229 0.33019 0.0
H954 H 0.6259 0.14222 0.43511 0.0
H955 H 0.55024 0.17107 0.30372 0.0
H956 H 0.63407 0.15755 0.31976 0.0
Co957 Co 0.78518 0.59458 0.35996 0.0
C958 C 0.74362 0.60297 0.31857 0.0
C959 C 0.75139 0.56102 0.3276 0.0
C960 C 0.72989 0.56347 0.3109 0.0
N961 N 0.76005 0.58581 0.33254 0.0
N962 N 0.72481 0.58987 0.30544 0.0
H963 H 0.7443 0.62467 0.31932 0.0
H964 H 0.75914 0.5423 0.33643 0.0
C965 C 0.79401 0.54073 0.38573 0.0
O966 O 0.78462 0.55163 0.4078 0.0
N967 N 0.80982 0.60263 0.38822 0.0
C968 C 0.83647 0.5976 0.38852 0.0
C969 C 0.84574 0.60323 0.41348 0.0
C970 C 0.80334 0.61084 0.41322 0.0
N971 N 0.82481 0.61148 0.42911 0.0
C972 C 0.82324 0.62533 0.33057 0.0
C973 C 0.83395 0.58945 0.29033 0.0
C974 C 0.84314 0.61596 0.28696 0.0
C975 C 0.83817 0.63362 0.30802 0.0
C976 C 0.81863 0.58207 0.3132 0.0
N977 N 0.81288 0.60024 0.33258 0.0
H978 H 0.81871 0.63974 0.34592 0.0
H979 H 0.81026 0.56225 0.31463 0.0
H980 H 0.84829 0.58947 0.37208 0.0
H981 H 0.78311 0.61482 0.42029 0.0
O982 O 0.77161 0.63094 0.35961 0.0
O983 O 0.75466 0.59829 0.3853 0.0
O984 O 0.79593 0.55524 0.36425 0.0
C985 C 0.75379 0.62371 0.37735 0.0
H986 H 0.71845 0.54703 0.30395 0.0
H987 H 0.86629 0.6008 0.41965 0.0
H988 H 0.83768 0.57474 0.27506 0.0
H989 H 0.84425 0.65434 0.30663 0.0
Co990 Co 0.41262 0.77617 0.36687 0.0
C991 C 0.41476 0.73226 0.32739 0.0
C992 C 0.453 0.73722 0.34426 0.0
C993 C 0.45455 0.71498 0.32838 0.0
N994 N 0.42819 0.74884 0.34298 0.0
N995 N 0.43041 0.71196 0.3177 0.0
H996 H 0.39336 0.73351 0.32482 0.0
H997 H 0.46862 0.74318 0.35719 0.0
C998 C 0.46746 0.7968 0.35762 0.0
O999 O 0.46245 0.79571 0.33196 0.0
N1000 N 0.39714 0.80141 0.39222 0.0
C1001 C 0.37262 0.81345 0.39069 0.0
C1002 C 0.36393 0.82021 0.41613 0.0
C1003 C 0.4031 0.80134 0.41854 0.0
N1004 N 0.38312 0.81255 0.43356 0.0
C1005 C 0.396 0.79562 0.31476 0.0
C1006 C 0.40872 0.84893 0.31938 0.0
C1007 C 0.39713 0.84094 0.29568 0.0
C1008 C 0.39091 0.81389 0.29359 0.0
C1009 C 0.4143 0.82961 0.33998 0.0
N1010 N 0.40831 0.80309 0.33735 0.0
H1011 H 0.38876 0.77572 0.31318 0.0
H1012 H 0.42301 0.83604 0.35824 0.0
H1013 H 0.3607 0.81455 0.37287 0.0
H1014 H 0.42019 0.79039 0.4269 0.0
O1015 O 0.37828 0.76066 0.36419 0.0
O1016 O 0.40836 0.74769 0.39444 0.0
O1017 O 0.44978 0.78907 0.37502 0.0
C1018 C 0.38469 0.74507 0.38449 0.0
H1019 H 0.47188 0.70164 0.32562 0.0
H1020 H 0.34427 0.82829 0.42166 0.0
H1021 H 0.41323 0.86986 0.32201 0.0
H1022 H 0.38089 0.8071 0.27615 0.0
Co1023 Co 0.22255 0.42518 0.34572 0.0
C1024 C 0.27016 0.42006 0.3093 0.0
C1025 C 0.26679 0.4591 0.32591 0.0
C1026 C 0.29115 0.45676 0.31262 0.0
N1027 N 0.25309 0.43632 0.32328 0.0
N1028 N 0.29329 0.43209 0.30226 0.0
H1029 H 0.267 0.39891 0.30658 0.0
H1030 H 0.26074 0.47557 0.33853 0.0
C1031 C 0.20784 0.48256 0.33402 0.0
O1032 O 0.21177 0.477 0.30865 0.0
N1033 N 0.19364 0.4141 0.36928 0.0
C1034 C 0.17835 0.39253 0.36664 0.0
C1035 C 0.16657 0.38626 0.39116 0.0
C1036 C 0.19084 0.4208 0.3951 0.0
N1037 N 0.17467 0.40394 0.40901 0.0
C1038 C 0.20581 0.40906 0.29408 0.0
C1039 C 0.15333 0.42802 0.29954 0.0
C1040 C 0.16064 0.41207 0.27786 0.0
C1041 C 0.18733 0.40319 0.27481 0.0
C1042 C 0.17268 0.43414 0.31802 0.0
N1043 N 0.1985 0.4242 0.3155 0.0
H1044 H 0.22547 0.39986 0.29252 0.0
H1045 H 0.16647 0.44547 0.33533 0.0
H1046 H 0.178 0.38057 0.34894 0.0
H1047 H 0.20322 0.43528 0.40424 0.0
O1048 O 0.23547 0.38826 0.3454 0.0
O1049 O 0.24726 0.41792 0.3748 0.0
O1050 O 0.21197 0.46417 0.35217 0.0
C1051 C 0.24904 0.39328 0.36643 0.0
H1052 H 0.30656 0.4716 0.31182 0.0
H1053 H 0.15523 0.36849 0.39611 0.0
H1054 H 0.13276 0.43497 0.3026 0.0
H1055 H 0.19351 0.39032 0.25852 0.0
Co1056 Co 0.65932 0.59031 0.78385 0.0
C1057 C 0.69742 0.5927 0.73746 0.0
C1058 C 0.68002 0.55408 0.74173 0.0
C1059 C 0.69416 0.55529 0.71771 0.0
N1060 N 0.68259 0.57734 0.75466 0.0
N1061 N 0.70503 0.5797 0.71504 0.0
H1062 H 0.70048 0.61391 0.73993 0.0
H1063 H 0.6669 0.53806 0.74792 0.0
C1064 C 0.66649 0.53252 0.8011 0.0
O1065 O 0.69245 0.53547 0.79841 0.0
N1066 N 0.63467 0.60304 0.81121 0.0
C1067 C 0.63685 0.62427 0.82699 0.0
C1068 C 0.61178 0.63093 0.83739 0.0
C1069 C 0.60862 0.59715 0.81213 0.0
N1070 N 0.5939 0.61408 0.82763 0.0
C1071 C 0.71106 0.60433 0.80178 0.0
C1072 C 0.70297 0.58841 0.85488 0.0
C1073 C 0.72559 0.60316 0.84761 0.0
C1074 C 0.72998 0.61029 0.82057 0.0
C1075 C 0.68488 0.58203 0.83519 0.0
N1076 N 0.68862 0.59069 0.80907 0.0
H1077 H 0.71371 0.61254 0.7818 0.0
H1078 H 0.66687 0.57178 0.84131 0.0
H1079 H 0.65489 0.63542 0.82908 0.0
H1080 H 0.60038 0.58264 0.79918 0.0
O1081 O 0.66177 0.62676 0.77001 0.0
O1082 O 0.63179 0.59793 0.7576 0.0
O1083 O 0.65033 0.55222 0.79532 0.0
C1084 C 0.64117 0.62217 0.75565 0.0
H1085 H 0.69524 0.53988 0.70287 0.0
H1086 H 0.60702 0.64803 0.84968 0.0
H1087 H 0.69877 0.58285 0.87568 0.0
H1088 H 0.74688 0.6223 0.81429 0.0
Co1089 Co 0.38956 0.65129 0.79887 0.0
C1090 C 0.3859 0.59734 0.82253 0.0
C1091 C 0.35497 0.62335 0.83853 0.0
C1092 C 0.34861 0.59705 0.84447 0.0
N1093 N 0.37858 0.62369 0.82498 0.0
N1094 N 0.36765 0.58047 0.83363 0.0
H1095 H 0.40212 0.59082 0.8093 0.0
H1096 H 0.34166 0.64074 0.84106 0.0
C1097 C 0.38196 0.68406 0.85046 0.0
O1098 O 0.38012 0.66246 0.86619 0.0
N1099 N 0.40088 0.67777 0.77161 0.0
C1100 C 0.41952 0.69635 0.77455 0.0
C1101 C 0.42375 0.70978 0.7503 0.0
C1102 C 0.39403 0.68025 0.74555 0.0
N1103 N 0.4077 0.69967 0.73193 0.0
C1104 C 0.44315 0.63352 0.78649 0.0
C1105 C 0.46358 0.64022 0.83678 0.0
C1106 C 0.48068 0.63106 0.81626 0.0
C1107 C 0.4702 0.62735 0.79091 0.0
C1108 C 0.43664 0.64564 0.83164 0.0
N1109 N 0.42682 0.64286 0.80665 0.0
H1110 H 0.43528 0.63111 0.76677 0.0
H1111 H 0.42392 0.65185 0.84795 0.0
H1112 H 0.42976 0.69955 0.79296 0.0
H1113 H 0.37928 0.6682 0.73667 0.0
O1114 O 0.38399 0.62529 0.77152 0.0
O1115 O 0.3533 0.65457 0.78681 0.0
O1116 O 0.38688 0.682 0.82524 0.0
C1117 C 0.35925 0.63443 0.77152 0.0
H1118 H 0.32995 0.59089 0.85379 0.0
H1119 H 0.43783 0.72565 0.74669 0.0
H1120 H 0.47092 0.64287 0.85674 0.0
H1121 H 0.48291 0.62033 0.77454 0.0
Co1122 Co 0.36345 0.41535 0.78522 0.0
C1123 C 0.32326 0.41342 0.74193 0.0
C1124 C 0.33889 0.45265 0.74455 0.0
C1125 C 0.32321 0.45248 0.7223 0.0
N1126 N 0.33821 0.42841 0.75774 0.0
N1127 N 0.31338 0.42771 0.72064 0.0
H1128 H 0.32134 0.39188 0.74464 0.0
H1129 H 0.3515 0.46899 0.7493 0.0
C1130 C 0.35215 0.4711 0.80197 0.0
O1131 O 0.32704 0.46427 0.80072 0.0
N1132 N 0.3908 0.40304 0.81 0.0
C1133 C 0.39188 0.37994 0.82492 0.0
C1134 C 0.41839 0.37357 0.83039 0.0
C1135 C 0.4165 0.41034 0.80675 0.0
N1136 N 0.43394 0.39255 0.81856 0.0
C1137 C 0.31238 0.40086 0.80707 0.0
C1138 C 0.32025 0.41355 0.85965 0.0
C1139 C 0.29627 0.40176 0.85288 0.0
C1140 C 0.29243 0.39581 0.82619 0.0
C1141 C 0.3396 0.41924 0.83943 0.0
N1142 N 0.3355 0.41283 0.81338 0.0
H1143 H 0.3095 0.39368 0.78744 0.0
H1144 H 0.35814 0.42808 0.8448 0.0
H1145 H 0.37503 0.36723 0.82919 0.0
H1146 H 0.4224 0.42652 0.79301 0.0
O1147 O 0.3601 0.37934 0.77427 0.0
O1148 O 0.38922 0.40733 0.75575 0.0
O1149 O 0.37077 0.45423 0.79464 0.0
C1150 C 0.37902 0.3833 0.75672 0.0
H1151 H 0.32022 0.46904 0.70794 0.0
H1152 H 0.42564 0.35533 0.84064 0.0
H1153 H 0.32412 0.41789 0.88029 0.0
H1154 H 0.27465 0.38575 0.82034 0.0
Co1155 Co 0.60021 0.36081 0.78397 0.0
C1156 C 0.60749 0.31847 0.74329 0.0
C1157 C 0.56613 0.32957 0.7498 0.0
C1158 C 0.56811 0.3124 0.72877 0.0
N1159 N 0.59083 0.33348 0.75899 0.0
N1160 N 0.59415 0.30565 0.72444 0.0
H1161 H 0.62906 0.31826 0.74447 0.0
H1162 H 0.54784 0.33941 0.75688 0.0
C1163 C 0.54711 0.38731 0.79135 0.0
O1164 O 0.55826 0.40862 0.78016 0.0
N1165 N 0.60887 0.38906 0.8084 0.0
C1166 C 0.59583 0.39499 0.83158 0.0
C1167 C 0.60431 0.41944 0.8401 0.0
C1168 C 0.62561 0.40965 0.80371 0.0
N1169 N 0.62309 0.42842 0.8225 0.0
C1170 C 0.62941 0.33423 0.82537 0.0
C1171 C 0.59999 0.28803 0.82915 0.0
C1172 C 0.6252 0.2879 0.84118 0.0
C1173 C 0.63912 0.312 0.84031 0.0
C1174 C 0.59059 0.31115 0.81482 0.0
N1175 N 0.60593 0.33339 0.81209 0.0
H1176 H 0.64184 0.35159 0.82296 0.0
H1177 H 0.57195 0.31047 0.80438 0.0
H1178 H 0.58015 0.38314 0.84087 0.0
H1179 H 0.63829 0.41214 0.78609 0.0
O1180 O 0.63612 0.35985 0.77006 0.0
O1181 O 0.60389 0.38639 0.75328 0.0
O1182 O 0.56119 0.36561 0.79482 0.0
C1183 C 0.62888 0.3777 0.75197 0.0
H1184 H 0.55163 0.30606 0.71707 0.0
H1185 H 0.5966 0.43023 0.85727 0.0
H1186 H 0.58837 0.27 0.82929 0.0
H1187 H 0.65818 0.31336 0.84995 0.0
Co1188 Co 0.65334 0.38661 0.2186 0.0
C1189 C 0.6009 0.38586 0.19399 0.0
C1190 C 0.62526 0.35144 0.18339 0.0
C1191 C 0.599 0.34653 0.17772 0.0
N1192 N 0.62647 0.37611 0.19384 0.0
N1193 N 0.58379 0.36821 0.18456 0.0
H1194 H 0.59422 0.40379 0.20412 0.0
H1195 H 0.64174 0.33679 0.18287 0.0
C1196 C 0.68495 0.37689 0.16654 0.0
O1197 O 0.66469 0.38505 0.15174 0.0
N1198 N 0.67953 0.39716 0.24417 0.0
C1199 C 0.70389 0.40706 0.23847 0.0
C1200 C 0.7162 0.41209 0.26212 0.0
C1201 C 0.67736 0.39655 0.27125 0.0
N1202 N 0.69952 0.40538 0.28274 0.0
C1203 C 0.6291 0.43969 0.21871 0.0
C1204 C 0.66459 0.46458 0.18338 0.0
C1205 C 0.64385 0.48022 0.19499 0.0
C1206 C 0.62581 0.46724 0.21268 0.0
C1207 C 0.66701 0.43694 0.18975 0.0
N1208 N 0.64914 0.42458 0.20694 0.0
H1209 H 0.61554 0.43064 0.23324 0.0
H1210 H 0.68409 0.42616 0.18155 0.0
H1211 H 0.71246 0.41003 0.21856 0.0
H1212 H 0.66008 0.38959 0.28254 0.0
O1213 O 0.62591 0.3844 0.24697 0.0
O1214 O 0.65313 0.35082 0.23461 0.0
O1215 O 0.68349 0.3784 0.19207 0.0
C1216 C 0.6332 0.35902 0.24967 0.0
H1217 H 0.59143 0.32775 0.17108 0.0
H1218 H 0.73638 0.41898 0.26394 0.0
H1219 H 0.67953 0.47375 0.17025 0.0
H1220 H 0.60931 0.47827 0.22212 0.0
Co1221 Co 0.60601 0.65811 0.21905 0.0
C1222 C 0.60394 0.69171 0.26732 0.0
C1223 C 0.56639 0.67397 0.26118 0.0
C1224 C 0.56495 0.68661 0.28531 0.0
N1225 N 0.59063 0.67787 0.24927 0.0
N1226 N 0.58865 0.69778 0.28909 0.0
H1227 H 0.62513 0.69528 0.26587 0.0
H1228 H 0.55126 0.66108 0.25413 0.0
C1229 C 0.54941 0.66551 0.20162 0.0
O1230 O 0.55202 0.69155 0.20418 0.0
N1231 N 0.62051 0.6364 0.19053 0.0
C1232 C 0.64459 0.63802 0.17794 0.0
C1233 C 0.65233 0.6126 0.16941 0.0
C1234 C 0.61382 0.61047 0.18902 0.0
N1235 N 0.63308 0.59529 0.17696 0.0
C1236 C 0.62069 0.71185 0.20519 0.0
C1237 C 0.60406 0.71423 0.15279 0.0
C1238 C 0.61766 0.73601 0.16263 0.0
C1239 C 0.62575 0.73463 0.18917 0.0
C1240 C 0.5994 0.69145 0.16969 0.0
N1241 N 0.60735 0.69066 0.1958 0.0
H1242 H 0.62903 0.71085 0.22475 0.0
H1243 H 0.59006 0.67423 0.16163 0.0
H1244 H 0.65714 0.65536 0.17813 0.0
H1245 H 0.59703 0.60211 0.2002 0.0
O1246 O 0.64127 0.66054 0.23294 0.0
O1247 O 0.61367 0.62783 0.24408 0.0
O1248 O 0.56889 0.64916 0.20733 0.0
C1249 C 0.63712 0.6383 0.24647 0.0
H1250 H 0.54814 0.68665 0.29938 0.0
H1251 H 0.67194 0.60673 0.16153 0.0
H1252 H 0.59806 0.71438 0.13209 0.0
H1253 H 0.63689 0.75075 0.19726 0.0
Co1254 Co 0.37897 0.59917 0.22099 0.0
C1255 C 0.3364 0.60323 0.26344 0.0
C1256 C 0.35583 0.56432 0.26451 0.0
C1257 C 0.33815 0.56578 0.28607 0.0
N1258 N 0.35406 0.58751 0.24958 0.0
N1259 N 0.3259 0.59033 0.28527 0.0
H1260 H 0.3331 0.62453 0.25938 0.0
H1261 H 0.37009 0.54792 0.26104 0.0
C1262 C 0.36982 0.54244 0.20741 0.0
O1263 O 0.34426 0.54911 0.21008 0.0
N1264 N 0.40492 0.61126 0.19402 0.0
C1265 C 0.40068 0.63085 0.1751 0.0
C1266 C 0.42493 0.64079 0.16661 0.0
C1267 C 0.43178 0.60965 0.19672 0.0
N1268 N 0.44449 0.62783 0.18061 0.0
C1269 C 0.32877 0.61821 0.19965 0.0
C1270 C 0.33374 0.59445 0.15043 0.0
C1271 C 0.31055 0.60985 0.15654 0.0
C1272 C 0.30826 0.62178 0.18144 0.0
C1273 C 0.35363 0.59071 0.16973 0.0
N1274 N 0.35069 0.60201 0.19437 0.0
H1275 H 0.32737 0.62963 0.21745 0.0
H1276 H 0.3717 0.57928 0.16463 0.0
H1277 H 0.38129 0.63946 0.16984 0.0
H1278 H 0.44149 0.59782 0.21252 0.0
O1279 O 0.37587 0.63549 0.23307 0.0
O1280 O 0.40498 0.60476 0.24879 0.0
O1281 O 0.38744 0.55997 0.2118 0.0
C1282 C 0.39515 0.62944 0.24933 0.0
H1283 H 0.33526 0.55031 0.30156 0.0
H1284 H 0.42766 0.65785 0.15287 0.0
H1285 H 0.33655 0.5857 0.13095 0.0
H1286 H 0.29123 0.63492 0.18632 0.0
Co1287 Co 0.41588 0.36094 0.22282 0.0
C1288 C 0.40823 0.32751 0.27285 0.0
C1289 C 0.44783 0.32144 0.25647 0.0
C1290 C 0.44587 0.30723 0.28072 0.0
N1291 N 0.42418 0.33436 0.25155 0.0
N1292 N 0.4209 0.31115 0.29094 0.0
H1293 H 0.38778 0.33474 0.27557 0.0
H1294 H 0.4655 0.32246 0.24365 0.0
C1295 C 0.46936 0.37782 0.1975 0.0
O1296 O 0.45708 0.39277 0.17919 0.0
N1297 N 0.407 0.38881 0.19585 0.0
C1298 C 0.3882 0.38815 0.17699 0.0
C1299 C 0.38079 0.41432 0.1694 0.0
C1300 C 0.41039 0.41539 0.19956 0.0
N1301 N 0.39467 0.43144 0.18382 0.0
C1302 C 0.39954 0.31045 0.20496 0.0
C1303 C 0.41963 0.314 0.15298 0.0
C1304 C 0.40437 0.29174 0.16096 0.0
C1305 C 0.39476 0.28994 0.18746 0.0
C1306 C 0.42475 0.33383 0.17154 0.0
N1307 N 0.41435 0.33212 0.19713 0.0
H1308 H 0.39034 0.30934 0.22472 0.0
H1309 H 0.43584 0.35109 0.16481 0.0
H1310 H 0.37855 0.37014 0.17115 0.0
H1311 H 0.4223 0.42278 0.21541 0.0
O1312 O 0.37873 0.36146 0.23293 0.0
O1313 O 0.40843 0.38777 0.25011 0.0
O1314 O 0.45611 0.36469 0.21572 0.0
C1315 C 0.38348 0.38087 0.2487 0.0
H1316 H 0.46154 0.29488 0.28999 0.0
H1317 H 0.36497 0.42018 0.15577 0.0
H1318 H 0.4271 0.31627 0.13252 0.0
H1319 H 0.38237 0.27343 0.19427 0.0
Co1320 Co 0.79381 0.64302 0.59437 0.0
C1321 C 0.74855 0.6827 0.6021 0.0
C1322 C 0.76382 0.68411 0.56167 0.0
C1323 C 0.7407 0.69997 0.56298 0.0
N1324 N 0.76872 0.67299 0.58619 0.0
N1325 N 0.73103 0.69887 0.58839 0.0
H1326 H 0.74565 0.67688 0.62299 0.0
H1327 H 0.77538 0.68015 0.5436 0.0
C1328 C 0.82236 0.63103 0.54264 0.0
O1329 O 0.84449 0.62811 0.55621 0.0
N1330 N 0.81781 0.61193 0.60211 0.0
C1331 C 0.84209 0.61002 0.61358 0.0
C1332 C 0.84865 0.58324 0.61887 0.0
C1333 C 0.81067 0.58608 0.59981 0.0
N1334 N 0.82874 0.5683 0.61034 0.0
C1335 C 0.83184 0.6721 0.62215 0.0
C1336 C 0.85006 0.7049 0.58039 0.0
C1337 C 0.86037 0.70776 0.60609 0.0
C1338 C 0.85086 0.69098 0.62697 0.0
C1339 C 0.83107 0.68517 0.57627 0.0
N1340 N 0.82265 0.66854 0.597 0.0
H1341 H 0.82495 0.65984 0.63899 0.0
H1342 H 0.82277 0.68386 0.55662 0.0
H1343 H 0.85443 0.62645 0.61839 0.0
H1344 H 0.7917 0.58029 0.5922 0.0
O1345 O 0.7828 0.64287 0.63142 0.0
O1346 O 0.76327 0.61958 0.60092 0.0
O1347 O 0.80034 0.6377 0.55465 0.0
C1348 C 0.76487 0.62578 0.62602 0.0
H1349 H 0.7314 0.7109 0.54636 0.0
H1350 H 0.86624 0.57544 0.62913 0.0
H1351 H 0.85633 0.71797 0.56377 0.0
H1352 H 0.85733 0.69302 0.64734 0.0
Co1353 Co 0.77468 0.35819 0.40877 0.0
C1354 C 0.72917 0.32056 0.41001 0.0
C1355 C 0.7351 0.33715 0.44823 0.0
C1356 C 0.712 0.32283 0.44971 0.0
N1357 N 0.74655 0.33514 0.42353 0.0
N1358 N 0.70823 0.31246 0.42559 0.0
H1359 H 0.73017 0.31808 0.38863 0.0
H1360 H 0.74171 0.34988 0.46372 0.0
C1361 C 0.79471 0.34564 0.46413 0.0
O1362 O 0.79205 0.32 0.45935 0.0
N1363 N 0.80105 0.38302 0.39499 0.0
C1364 C 0.8135 0.38347 0.37078 0.0
C1365 C 0.8212 0.40956 0.36475 0.0
C1366 C 0.80159 0.40856 0.40336 0.0
N1367 N 0.81331 0.42544 0.38516 0.0
C1368 C 0.79049 0.30858 0.38508 0.0
C1369 C 0.84174 0.30264 0.40416 0.0
C1370 C 0.83245 0.28328 0.38699 0.0
C1371 C 0.80658 0.28668 0.37739 0.0
C1372 C 0.82492 0.32491 0.41103 0.0
N1373 N 0.79914 0.32713 0.40225 0.0
H1374 H 0.77126 0.31094 0.37614 0.0
H1375 H 0.83268 0.34037 0.42317 0.0
H1376 H 0.81439 0.36683 0.35731 0.0
H1377 H 0.79037 0.41521 0.42086 0.0
O1378 O 0.75856 0.35887 0.37437 0.0
O1379 O 0.74779 0.38774 0.40612 0.0
O1380 O 0.78843 0.36359 0.44615 0.0
C1381 C 0.74427 0.37951 0.38192 0.0
H1382 H 0.6985 0.32117 0.46691 0.0
H1383 H 0.83008 0.41654 0.3459 0.0
H1384 H 0.86192 0.30096 0.41159 0.0
H1385 H 0.79878 0.27247 0.36376 0.0
Co1386 Co 0.64183 0.77991 0.41083 0.0
C1387 C 0.68023 0.73288 0.40741 0.0
C1388 C 0.66262 0.73563 0.44656 0.0
C1389 C 0.67704 0.7116 0.44536 0.0
N1390 N 0.66526 0.74967 0.42299 0.0
N1391 N 0.68807 0.70982 0.42061 0.0
H1392 H 0.68341 0.73631 0.38611 0.0
H1393 H 0.64936 0.74111 0.46301 0.0
C1394 C 0.6501 0.79403 0.46678 0.0
O1395 O 0.67575 0.79096 0.46081 0.0
N1396 N 0.61642 0.8079 0.39902 0.0
C1397 C 0.61922 0.82519 0.37786 0.0
C1398 C 0.5941 0.83351 0.36943 0.0
C1399 C 0.58969 0.80612 0.40319 0.0
N1400 N 0.57545 0.82101 0.38502 0.0
C1401 C 0.69441 0.79787 0.39644 0.0
C1402 C 0.68789 0.85017 0.41328 0.0
C1403 C 0.71212 0.8422 0.40067 0.0
C1404 C 0.71526 0.8156 0.39254 0.0
C1405 C 0.66762 0.83138 0.41756 0.0
N1406 N 0.67103 0.80547 0.40915 0.0
H1407 H 0.69686 0.77837 0.388 0.0
H1408 H 0.64892 0.83785 0.42702 0.0
H1409 H 0.63797 0.82919 0.36745 0.0
H1410 H 0.58099 0.79133 0.41692 0.0
O1411 O 0.64585 0.76904 0.37474 0.0
O1412 O 0.61513 0.75332 0.40341 0.0
O1413 O 0.63272 0.789 0.44931 0.0
C1414 C 0.62565 0.75372 0.37916 0.0
H1415 H 0.67827 0.6962 0.46117 0.0
H1416 H 0.59007 0.846 0.35173 0.0
H1417 H 0.68452 0.87075 0.4194 0.0
H1418 H 0.73325 0.8089 0.38183 0.0
Co1419 Co 0.22015 0.65747 0.38839 0.0
C1420 C 0.19618 0.60547 0.37889 0.0
C1421 C 0.18 0.63683 0.35305 0.0
C1422 C 0.17242 0.61242 0.34401 0.0
N1423 N 0.19475 0.63257 0.37515 0.0
N1424 N 0.18304 0.59262 0.36 0.0
H1425 H 0.20956 0.59518 0.39277 0.0
H1426 H 0.17741 0.65602 0.34241 0.0
C1427 C 0.16877 0.69188 0.38288 0.0
O1428 O 0.15401 0.67225 0.39261 0.0
N1429 N 0.24622 0.68206 0.40131 0.0
C1430 C 0.24122 0.70666 0.41135 0.0
C1431 C 0.26516 0.71813 0.41674 0.0
C1432 C 0.27323 0.67901 0.40084 0.0
N1433 N 0.28527 0.70076 0.40995 0.0
C1434 C 0.21611 0.62757 0.43852 0.0
C1435 C 0.18518 0.66516 0.46587 0.0
C1436 C 0.19346 0.64137 0.47963 0.0
C1437 C 0.20917 0.62242 0.46548 0.0
C1438 C 0.19299 0.66972 0.43914 0.0
N1439 N 0.20772 0.6508 0.42541 0.0
H1440 H 0.229 0.61309 0.42849 0.0
H1441 H 0.18763 0.689 0.43014 0.0
H1442 H 0.22166 0.71628 0.41367 0.0
H1443 H 0.28416 0.66161 0.39333 0.0
O1444 O 0.24793 0.62922 0.38527 0.0
O1445 O 0.23672 0.65907 0.35323 0.0
O1446 O 0.19431 0.68908 0.38177 0.0
C1447 C 0.25131 0.63814 0.3606 0.0
H1448 H 0.16194 0.60949 0.32566 0.0
H1449 H 0.2676 0.73838 0.42349 0.0
H1450 H 0.17299 0.68049 0.47569 0.0
H1451 H 0.21687 0.60411 0.4753 0.0
Co1452 Co 0.35509 0.2374 0.42007 0.0
C1453 C 0.31626 0.28337 0.4106 0.0
C1454 C 0.3303 0.28212 0.45066 0.0
C1455 C 0.31544 0.30565 0.44667 0.0
N1456 N 0.33024 0.2675 0.4283 0.0
N1457 N 0.30669 0.30651 0.42135 0.0
H1458 H 0.31504 0.27931 0.38955 0.0
H1459 H 0.34208 0.27737 0.46813 0.0
C1460 C 0.34225 0.22448 0.47749 0.0
O1461 O 0.31707 0.22705 0.47057 0.0
N1462 N 0.38138 0.20938 0.412 0.0
C1463 C 0.3813 0.19161 0.39217 0.0
C1464 C 0.40707 0.1814 0.38826 0.0
C1465 C 0.40697 0.20989 0.41969 0.0
N1466 N 0.42318 0.19331 0.40534 0.0
C1467 C 0.3046 0.21752 0.40456 0.0
C1468 C 0.31207 0.1656 0.42541 0.0
C1469 C 0.28969 0.17181 0.40974 0.0
C1470 C 0.28574 0.19828 0.39988 0.0
C1471 C 0.33013 0.18579 0.43038 0.0
N1472 N 0.32654 0.21136 0.41959 0.0
H1473 H 0.30218 0.23687 0.39461 0.0
H1474 H 0.34775 0.18052 0.44181 0.0
H1475 H 0.3643 0.18813 0.37988 0.0
H1476 H 0.41393 0.22398 0.43387 0.0
O1477 O 0.35451 0.24761 0.38272 0.0
O1478 O 0.38257 0.26384 0.41134 0.0
O1479 O 0.36083 0.22929 0.45991 0.0
C1480 C 0.37426 0.26313 0.38674 0.0
H1481 H 0.31244 0.32141 0.46098 0.0
H1482 H 0.41383 0.16827 0.37242 0.0
H1483 H 0.31594 0.14521 0.43306 0.0
H1484 H 0.2691 0.20366 0.38704 0.0
Co1485 Co 0.21712 0.37036 0.61136 0.0
C1486 C 0.19033 0.42181 0.62372 0.0
C1487 C 0.17492 0.38997 0.64888 0.0
C1488 C 0.16618 0.41432 0.659 0.0
N1489 N 0.18996 0.39465 0.62652 0.0
N1490 N 0.17624 0.43438 0.64327 0.0
H1491 H 0.20383 0.43229 0.6102 0.0
H1492 H 0.17282 0.37044 0.65883 0.0
C1493 C 0.16795 0.3361 0.615 0.0
O1494 O 0.15269 0.35688 0.60744 0.0
N1495 N 0.24531 0.34725 0.59637 0.0
C1496 C 0.25812 0.3513 0.5725 0.0
C1497 C 0.28154 0.33605 0.57207 0.0
C1498 C 0.26128 0.3296 0.61011 0.0
N1499 N 0.28375 0.32276 0.5959 0.0
C1500 C 0.20928 0.40281 0.56279 0.0
C1501 C 0.18545 0.3632 0.53492 0.0
C1502 C 0.18975 0.38815 0.52189 0.0
C1503 C 0.2019 0.40815 0.53622 0.0
C1504 C 0.19388 0.35848 0.561 0.0
N1505 N 0.20458 0.37843 0.57518 0.0
H1506 H 0.22027 0.41772 0.57271 0.0
H1507 H 0.19289 0.33816 0.56905 0.0
H1508 H 0.25228 0.36605 0.55719 0.0
H1509 H 0.25739 0.32335 0.63076 0.0
O1510 O 0.24363 0.39801 0.61554 0.0
O1511 O 0.23263 0.36658 0.64595 0.0
O1512 O 0.1933 0.33837 0.61648 0.0
C1513 C 0.24685 0.38726 0.63955 0.0
H1514 H 0.15527 0.41695 0.67776 0.0
H1515 H 0.29682 0.33659 0.55635 0.0
H1516 H 0.17633 0.34695 0.5249 0.0
H1517 H 0.2068 0.42734 0.52673 0.0
Co1518 Co 0.65614 0.21761 0.60494 0.0
C1519 C 0.6895 0.26582 0.60115 0.0
C1520 C 0.66947 0.26034 0.56457 0.0
C1521 C 0.68124 0.28504 0.56301 0.0
N1522 N 0.67516 0.24781 0.58833 0.0
N1523 N 0.6936 0.28855 0.5862 0.0
H1524 H 0.69538 0.26314 0.62176 0.0
H1525 H 0.6556 0.25352 0.55021 0.0
C1526 C 0.65851 0.20037 0.54841 0.0
O1527 O 0.68468 0.20189 0.54897 0.0
N1528 N 0.63549 0.18903 0.62096 0.0
C1529 C 0.6395 0.17535 0.64435 0.0
C1530 C 0.61578 0.16369 0.65238 0.0
C1531 C 0.60985 0.1853 0.61494 0.0
N1532 N 0.5972 0.17016 0.63384 0.0
C1533 C 0.71137 0.20182 0.61192 0.0
C1534 C 0.7068 0.14841 0.59916 0.0
C1535 C 0.73129 0.15711 0.60818 0.0
C1536 C 0.73354 0.18427 0.61406 0.0
C1537 C 0.68519 0.16689 0.59659 0.0
N1538 N 0.68756 0.19328 0.60314 0.0
H1539 H 0.7132 0.22186 0.61881 0.0
H1540 H 0.66625 0.15978 0.59014 0.0
H1541 H 0.65747 0.17598 0.65592 0.0
H1542 H 0.59976 0.19641 0.59889 0.0
O1543 O 0.66152 0.23107 0.6401 0.0
O1544 O 0.62724 0.24283 0.61439 0.0
O1545 O 0.64402 0.2068 0.56877 0.0
C1546 C 0.63922 0.24491 0.63714 0.0
H1547 H 0.67897 0.30007 0.54695 0.0
H1548 H 0.61189 0.1533 0.67141 0.0
H1549 H 0.7042 0.12742 0.59487 0.0
H1550 H 0.75183 0.19156 0.62204 0.0
Co1551 Co 0.36063 0.77736 0.60156 0.0
C1552 C 0.32013 0.73495 0.61186 0.0
C1553 C 0.32336 0.74649 0.57022 0.0
C1554 C 0.30663 0.7251 0.57294 0.0
N1555 N 0.33204 0.75275 0.5946 0.0
N1556 N 0.30477 0.71769 0.59908 0.0
H1557 H 0.3236 0.73365 0.63317 0.0
H1558 H 0.32925 0.75604 0.55138 0.0
C1559 C 0.37108 0.80699 0.54866 0.0
O1560 O 0.37478 0.82903 0.56165 0.0
N1561 N 0.39061 0.80095 0.60807 0.0
C1562 C 0.39075 0.82682 0.61585 0.0
C1563 C 0.4166 0.83344 0.62124 0.0
C1564 C 0.4168 0.79284 0.608 0.0
N1565 N 0.4329 0.81198 0.6164 0.0
C1566 C 0.33147 0.81591 0.63214 0.0
C1567 C 0.29015 0.82648 0.59732 0.0
C1568 C 0.28737 0.83554 0.62376 0.0
C1569 C 0.30917 0.83108 0.64062 0.0
C1570 C 0.31353 0.81193 0.58922 0.0
N1571 N 0.33366 0.8063 0.60683 0.0
H1572 H 0.34687 0.81124 0.64651 0.0
H1573 H 0.31459 0.80372 0.56944 0.0
H1574 H 0.37361 0.84044 0.6174 0.0
H1575 H 0.42408 0.77281 0.6032 0.0
O1576 O 0.36139 0.76522 0.63844 0.0
O1577 O 0.38517 0.74594 0.60594 0.0
O1578 O 0.36489 0.78516 0.56138 0.0
C1579 C 0.37884 0.7469 0.63143 0.0
H1580 H 0.29689 0.7155 0.55682 0.0
H1581 H 0.42286 0.85248 0.62856 0.0
H1582 H 0.27392 0.82926 0.58343 0.0
H1583 H 0.30878 0.83836 0.66083 0.0
C1584 C 0.11265 0.29254 0.99886 0.0
C1585 C 0.13823 0.29997 0.98974 0.0
H1586 H 0.08408 0.2926 0.03164 0.0
C1587 C 0.15387 0.31542 0.00602 0.0
H1588 H 0.10018 0.28071 0.98661 0.0
C1589 C 0.14444 0.32267 0.03135 0.0
C1590 C 0.11942 0.31418 0.04101 0.0
H1591 H 0.17356 0.32167 0.99931 0.0
H1592 H 0.15723 0.3338 0.04389 0.0
C1593 C 0.10344 0.29934 0.02448 0.0
C1594 C 0.67469 0.15428 0.05065 0.0
C1595 C 0.66778 0.12906 0.06165 0.0
H1596 H 0.68749 0.17689 0.0161 0.0
C1597 C 0.66586 0.10725 0.04474 0.0
H1598 H 0.67698 0.1712 0.06345 0.0
C1599 C 0.67116 0.11056 0.0172 0.0
C1600 C 0.67918 0.13562 0.00619 0.0
H1601 H 0.66069 0.0876 0.05298 0.0
H1602 H 0.66938 0.09336 0.00467 0.0
C1603 C 0.68062 0.15747 0.02336 0.0
C1604 C 0.83229 0.70166 0.04639 0.0
C1605 C 0.85818 0.69736 0.05638 0.0
H1606 H 0.80801 0.71312 0.01328 0.0
C1607 C 0.88022 0.70194 0.03882 0.0
H1608 H 0.81474 0.69919 0.05921 0.0
C1609 C 0.87629 0.71034 0.0119 0.0
C1610 C 0.85024 0.71454 1.00214 0.0
H1611 H 0.90043 0.6989 0.04588 0.0
H1612 H 0.89357 0.71356 0.99882 0.0
C1613 C 0.82841 0.71005 0.01984 0.0
C1614 C 0.31625 0.83911 0.01136 0.0
C1615 C 0.30742 0.85814 0.99175 0.0
H1616 H 0.3283 0.83141 0.05165 0.0
C1617 C 0.30563 0.88548 0.99844 0.0
H1618 H 0.31798 0.81788 0.00704 0.0
C1619 C 0.31181 0.89338 0.02433 0.0
C1620 C 0.32006 0.87419 0.04415 0.0
H1621 H 0.29903 0.90073 0.98384 0.0
H1622 H 0.30987 0.91452 0.0289 0.0
C1623 C 0.32248 0.84698 0.03708 0.0
C1624 C 0.11983 0.70573 0.00815 0.0
C1625 C 0.14749 0.70336 0.01257 0.0
H1626 H 0.08835 0.7025 0.98008 0.0
C1627 C 0.16455 0.69392 0.99193 0.0
H1628 H 0.10611 0.71276 0.02373 0.0
C1629 C 0.15437 0.68791 0.96712 0.0
C1630 C 0.12685 0.69127 0.96226 0.0
H1631 H 0.18594 0.69167 0.99469 0.0
H1632 H 0.16833 0.68179 0.95142 0.0
C1633 C 0.10964 0.69984 0.9832 0.0
C1634 C 0.33614 0.14012 0.96429 0.0
C1635 C 0.32041 0.11968 0.95492 0.0
H1636 H 0.34348 0.16619 0.99659 0.0
C1637 C 0.30086 0.10835 0.97217 0.0
H1638 H 0.35115 0.14926 0.95125 0.0
C1639 C 0.29683 0.11752 0.99823 0.0
C1640 C 0.31176 0.13878 0.00725 0.0
H1641 H 0.28852 0.09254 0.9653 0.0
H1642 H 0.28137 0.10866 0.01094 0.0
C1643 C 0.33159 0.14986 0.9901 0.0
C1644 C 0.86228 0.33429 0.00327 0.0
C1645 C 0.86912 0.31013 0.01747 0.0
H1646 H 0.86156 0.35578 0.96522 0.0
C1647 C 0.88118 0.28883 1.0032 0.0
H1648 H 0.8529 0.35113 0.01353 0.0
C1649 C 0.88641 0.2917 0.97552 0.0
C1650 C 0.87941 0.31581 0.96134 0.0
H1651 H 0.88667 0.26995 0.01342 0.0
H1652 H 0.89542 0.27478 0.96513 0.0
C1653 C 0.86717 0.337 0.97556 0.0
C1654 C 0.68071 0.86902 0.97311 0.0
C1655 C 0.67893 0.89125 0.98995 0.0
H1656 H 0.6812 0.85515 0.93301 0.0
C1657 C 0.67481 0.91719 0.97813 0.0
H1658 H 0.68464 0.84879 0.98112 0.0
C1659 C 0.67346 0.92079 0.95025 0.0
C1660 C 0.67561 0.89853 0.93364 0.0
H1661 H 0.67291 0.93479 0.99035 0.0
H1662 H 0.67102 0.94097 0.94156 0.0
C1663 C 0.67882 0.87261 0.94538 0.0
C1664 C 0.04616 0.14527 0.33309 0.0
C1665 C 0.06007 0.12168 0.32497 0.0
H1666 H 0.00843 0.16692 0.33582 0.0
C1667 C 0.04522 0.10084 0.31464 0.0
H1668 H 0.05657 0.16185 0.34108 0.0
C1669 C 0.01768 0.10412 0.31107 0.0
C1670 C 0.00415 0.128 0.3184 0.0
H1671 H 0.05479 0.08202 0.30887 0.0
H1672 H 0.00691 0.08797 0.30259 0.0
C1673 C 0.0185 0.1483 0.32998 0.0
C1674 C 0.8787 0.00689 0.306 0.0
C1675 C 0.85303 0.99615 0.30522 0.0
H1676 H 0.90203 0.04092 0.31521 0.0
C1677 C 0.83105 0.01206 0.31429 0.0
H1678 H 0.89611 0.99517 0.29934 0.0
C1679 C 0.83437 0.03799 0.32334 0.0
C1680 C 0.85985 0.04919 0.32373 0.0
H1681 H 0.81092 1.00463 0.31417 0.0
H1682 H 0.81658 0.04946 0.32922 0.0
C1683 C 0.88207 0.03314 0.31511 0.0
C1684 C 1.00216 0.91585 0.29418 0.0
C1685 C 0.01727 0.89146 0.29481 0.0
H1686 H 0.96375 0.93546 0.29966 0.0
C1687 C 0.0043 0.86762 0.30264 0.0
H1688 H 0.01148 0.93466 0.28852 0.0
C1689 C 0.97678 0.86805 0.30888 0.0
C1690 C 0.96148 0.89237 0.30755 0.0
H1691 H 0.01528 0.84845 0.30338 0.0
H1692 H 0.96743 0.84914 0.31388 0.0
C1693 C 0.9747 0.9163 0.30053 0.0
C1694 C 0.14844 0.96782 0.33238 0.0
C1695 C 0.12721 0.96021 0.31672 0.0
H1696 H 0.176 0.99867 0.34043 0.0
C1697 C 0.11599 0.97896 0.2982 0.0
H1698 H 0.15748 0.9535 0.34657 0.0
C1699 C 0.1261 0.0048 0.29501 0.0
C1700 C 0.14816 0.01211 0.30977 0.0
H1701 H 0.09962 0.97336 0.28591 0.0
H1702 H 0.11731 0.01869 0.28025 0.0
C1703 C 0.15908 0.99348 0.32869 0.0
C1704 C 0.01704 0.8827 0.66978 0.0
C1705 C 0.00438 0.86917 0.69161 0.0
H1706 H 0.05431 0.89354 0.65053 0.0
C1707 C 0.02039 0.8555 0.71081 0.0
H1708 H 0.00533 0.89358 0.65471 0.0
C1709 C 0.0484 0.85504 0.70794 0.0
C1710 C 0.06082 0.86858 0.68608 0.0
H1711 H 0.01132 0.84486 0.72781 0.0
H1712 H 0.06046 0.84447 0.72291 0.0
C1713 C 0.04498 0.88265 0.66723 0.0
C1714 C 0.12123 0.05651 0.65783 0.0
C1715 C 0.1436 0.07238 0.66099 0.0
H1716 H 0.10532 0.01698 0.66 0.0
C1717 C 0.16829 0.0596 0.66703 0.0
H1718 H 0.102 0.06594 0.65311 0.0
C1719 C 0.17014 0.03168 0.6716 0.0
C1720 C 0.14739 0.01585 0.66995 0.0
H1721 H 0.18575 0.07137 0.67009 0.0
H1722 H 0.1891 0.02284 0.678 0.0
C1723 C 0.12312 0.02854 0.66205 0.0
C1724 C 0.00859 0.17473 0.68209 0.0
C1725 C 0.0292 0.15637 0.68974 0.0
H1726 H 0.96723 0.18092 0.67343 0.0
C1727 C 0.02353 0.12884 0.69263 0.0
H1728 H 0.01227 0.19606 0.67958 0.0
C1729 C 0.9975 0.12009 0.68907 0.0
C1730 C 0.9767 0.13863 0.68226 0.0
H1731 H 0.03897 0.11415 0.69847 0.0
H1732 H 0.99351 0.09889 0.69209 0.0
C1733 C 0.98273 0.16598 0.67831 0.0
C1734 C 0.91549 0.00526 0.71075 0.0
C1735 C 0.8905 0.01665 0.70356 0.0
H1736 H 0.94151 0.96993 0.71045 0.0
C1737 C 0.87343 1.00168 0.68826 0.0
H1738 H 0.92901 0.01639 0.72253 0.0
C1739 C 0.88073 0.97554 0.681 0.0
C1740 C 0.90509 0.96353 0.68924 0.0
H1741 H 0.85413 0.01005 0.68221 0.0
H1742 H 0.86668 0.96426 0.67001 0.0
C1743 C 0.92259 0.97875 0.7039 0.0
C1744 C 0.32458 0.03905 0.15042 0.0
C1745 C 0.32312 0.04919 0.12385 0.0
H1746 H 0.31883 0.00576 0.17785 0.0
C1747 C 0.31576 0.03159 0.10388 0.0
H1748 H 0.32976 0.05186 0.16648 0.0
C1749 C 0.30919 0.00485 0.11051 0.0
C1750 C 0.30971 0.99518 0.13729 0.0
H1751 H 0.31464 0.03864 0.08318 0.0
H1752 H 0.3031 0.99199 0.0948 0.0
C1753 C 0.31796 0.0125 0.15702 0.0
C1754 C 0.30642 0.99577 0.90719 0.0
C1755 C 0.30495 0.01055 0.88274 0.0
H1756 H 0.31304 0.95733 0.92693 0.0
C1757 C 0.31051 0.997 0.85882 0.0
H1758 H 0.30263 0.00557 0.92602 0.0
C1759 C 0.31622 0.96912 0.85932 0.0
C1760 C 0.31669 0.95411 0.88377 0.0
H1761 H 0.3096 0.00777 0.83962 0.0
H1762 H 0.31919 0.95926 0.84044 0.0
C1763 C 0.31235 0.96801 0.9077 0.0
C1764 C 0.04011 0.32698 0.85231 0.0
C1765 C 0.04995 0.32062 0.87797 0.0
H1766 H 0.00712 0.32674 0.82602 0.0
C1767 C 0.03195 0.31064 0.89784 0.0
H1768 H 0.05313 0.33448 0.83633 0.0
C1769 C 0.00523 0.30593 0.89178 0.0
C1770 C 0.99596 0.31104 0.8657 0.0
H1771 H 0.03865 0.30588 0.91794 0.0
H1772 H 0.99214 0.29746 0.90725 0.0
C1773 C 0.01358 0.32226 0.84629 0.0
C1774 C 0.70151 0.0167 0.86284 0.0
C1775 C 0.70514 0.009 0.83614 0.0
H1776 H 0.69363 0.04912 0.88947 0.0
C1777 C 0.70202 0.0287 0.81546 0.0
H1778 H 0.70352 1.002 0.87924 0.0
C1779 C 0.69639 0.05564 0.82131 0.0
C1780 C 0.69375 0.0636 0.84801 0.0
H1781 H 0.70453 0.02348 0.79464 0.0
H1782 H 0.69522 0.07033 0.80486 0.0
C1783 C 0.69587 0.04371 0.8687 0.0
C1784 C 0.99601 0.71339 0.90165 0.0
C1785 C 0.00438 0.71472 0.87458 0.0
H1786 H 0.96376 0.70517 0.92966 0.0
C1787 C 0.98673 0.70686 0.85499 0.0
H1788 H 0.00922 0.71914 0.91721 0.0
C1789 C 0.96108 0.69863 0.86209 0.0
C1790 C 0.95223 0.69815 0.889 0.0
H1791 H 0.99255 0.70738 0.83394 0.0
H1792 H 0.94782 0.69379 0.84626 0.0
C1793 C 0.97007 0.70533 0.90877 0.0
C1794 C 0.6771 0.98258 0.12605 0.0
C1795 C 0.67112 0.96344 0.14665 0.0
H1796 H 0.68886 0.02294 0.1158 0.0
C1797 C 0.67126 0.97154 0.17333 0.0
H1798 H 0.67693 0.97708 0.10526 0.0
C1799 C 0.67813 0.99767 0.17933 0.0
C1800 C 0.685 0.01653 0.15884 0.0
H1801 H 0.66716 0.95741 0.18977 0.0
H1802 H 0.67852 1.00287 0.20021 0.0
C1803 C 0.68394 0.00885 0.13207 0.0
C1804 C 0.04892 0.67892 0.14857 0.0
C1805 C 0.06176 0.68631 0.12412 0.0
H1806 H 0.01195 0.67755 0.17126 0.0
C1807 C 0.04584 0.69671 0.10297 0.0
H1808 H 0.06019 0.6709 0.1654 0.0
C1809 C 0.01831 0.70121 0.10669 0.0
C1810 C 0.00585 0.69465 0.13135 0.0
H1811 H 0.05459 0.70188 0.08355 0.0
H1812 H 0.00671 0.70979 0.09026 0.0
C1813 C 0.02124 0.68288 0.15206 0.0
C1814 C 0.99911 0.28736 0.13072 0.0
C1815 C 0.01397 0.3108 0.12703 0.0
H1816 H 0.96072 0.26972 0.1303 0.0
C1817 C 1.0004 0.33502 0.11943 0.0
H1818 H 0.00884 0.26835 0.13666 0.0
C1819 C 0.97273 0.3358 0.11556 0.0
C1820 C 0.95777 0.31237 0.11921 0.0
H1821 H 0.01117 0.35349 0.11629 0.0
H1822 H 0.9632 0.35477 0.10934 0.0
C1823 C 0.9714 0.28814 0.12691 0.0
C1824 C 0.60884 0.8071 0.53017 0.0
C1825 C 0.62867 0.81491 0.54765 0.0
H1826 H 0.5999 0.79442 0.49074 0.0
C1827 C 0.655 0.81742 0.53764 0.0
H1828 H 0.58832 0.80519 0.53724 0.0
C1829 C 0.66159 0.81119 0.51124 0.0
C1830 C 0.64205 0.80235 0.49406 0.0
H1831 H 0.6709 0.82299 0.55047 0.0
H1832 H 0.68226 0.81278 0.50451 0.0
C1833 C 0.61544 0.80096 0.50357 0.0
C1834 C 0.18295 0.61114 0.52004 0.0
C1835 C 0.18696 0.63715 0.5088 0.0
H1836 H 0.17572 0.58706 0.55589 0.0
C1837 C 0.18544 0.6592 0.52588 0.0
H1838 H 0.18352 0.5937 0.50758 0.0
C1839 C 0.18026 0.65537 0.55331 0.0
C1840 C 0.17692 0.62937 0.56453 0.0
H1841 H 0.1891 0.67946 0.5183 0.0
H1842 H 0.18002 0.67268 0.56594 0.0
C1843 C 0.17823 0.60729 0.54765 0.0
C1844 C 0.37485 0.21276 0.51447 0.0
C1845 C 0.3484 0.21595 0.50564 0.0
H1846 H 0.40056 0.20268 0.54739 0.0
C1847 C 0.32733 0.21057 0.52407 0.0
H1848 H 0.39157 0.21651 0.5008 0.0
C1849 C 0.33244 0.20262 0.55064 0.0
C1850 C 0.35882 0.19981 0.55971 0.0
H1851 H 0.30667 0.21271 0.5181 0.0
H1852 H 0.31557 0.19946 0.56422 0.0
C1853 C 0.37998 0.20482 0.54119 0.0
C1854 C 0.80881 0.38784 0.52434 0.0
C1855 C 0.81556 0.36789 0.54396 0.0
H1856 H 0.79715 0.39665 0.4838 0.0
C1857 C 0.81668 0.34077 0.53652 0.0
H1858 H 0.80794 0.40892 0.52927 0.0
C1859 C 0.81047 0.33374 0.51053 0.0
C1860 C 0.80301 0.35359 0.49114 0.0
H1861 H 0.82137 0.32474 0.551 0.0
H1862 H 0.81103 0.31258 0.50583 0.0
C1863 C 0.80268 0.3808 0.49824 0.0
C1864 C 0.61919 0.20178 0.51839 0.0
C1865 C 0.64574 0.1933 0.52341 0.0
H1866 H 0.58779 0.20468 0.48981 0.0
C1867 C 0.66032 0.1789 0.50388 0.0
H1868 H 0.60748 0.2129 0.53311 0.0
C1869 C 0.64883 0.17375 0.47943 0.0
C1870 C 0.62277 0.18337 0.47393 0.0
H1871 H 0.68075 0.17196 0.50734 0.0
H1872 H 0.66074 0.1634 0.46432 0.0
C1873 C 0.60792 0.19711 0.49372 0.0
C1874 C 0.80225 0.63039 0.4697 0.0
C1875 C 0.82464 0.61741 0.4574 0.0
H1876 H 0.78381 0.64463 0.50599 0.0
C1877 C 0.8465 0.6097 0.47353 0.0
H1878 H 0.78519 0.63725 0.45815 0.0
C1879 C 0.84581 0.61444 0.50104 0.0
C1880 C 0.82319 0.6268 0.5133 0.0
H1881 H 0.86403 0.59951 0.46515 0.0
H1882 H 0.86292 0.60793 0.51278 0.0
C1883 C 0.80146 0.63482 0.49727 0.0
C1884 C 0.39593 0.82131 0.50657 0.0
C1885 C 0.37446 0.80768 0.51901 0.0
H1886 H 0.41587 0.83282 0.46941 0.0
C1887 C 0.356 0.79551 0.50281 0.0
H1888 H 0.41047 0.83083 0.51858 0.0
C1889 C 0.35864 0.79747 0.47476 0.0
C1890 C 0.38027 0.81086 0.46238 0.0
H1891 H 0.33914 0.78513 0.51179 0.0
H1892 H 0.34394 0.78832 0.46266 0.0
C1893 C 0.39907 0.82245 0.47855 0.0
C1894 C 0.1867 0.37044 0.4756 0.0
C1895 C 0.18371 0.39219 0.49295 0.0
H1896 H 0.18556 0.35716 0.4354 0.0
C1897 C 0.17586 0.41772 0.48214 0.0
H1898 H 0.19357 0.35067 0.48277 0.0
C1899 C 0.17191 0.42146 0.45459 0.0
C1900 C 0.17511 0.39966 0.43752 0.0
H1901 H 0.17305 0.43487 0.49486 0.0
H1902 H 0.16675 0.4414 0.44648 0.0
C1903 C 0.18215 0.37409 0.44832 0.0
C1904 C 0.52179 0.60116 0.81472 0.0
C1905 C 0.50941 0.62586 0.82125 0.0
H1906 H 0.55797 0.57738 0.81311 0.0
C1907 C 0.52469 0.64579 0.83224 0.0
H1908 H 0.51025 0.58529 0.80672 0.0
C1909 C 0.55223 0.6416 0.83539 0.0
C1910 C 0.56502 0.61721 0.82791 0.0
H1911 H 0.51549 0.66502 0.83748 0.0
H1912 H 0.56344 0.65795 0.84275 0.0
C1913 C 0.5492 0.59674 0.81835 0.0
C1914 C 0.33969 0.54042 0.82998 0.0
C1915 C 0.36492 0.55217 0.82786 0.0
H1916 H 0.31616 0.50639 0.8237 0.0
C1917 C 0.38674 0.5362 0.81812 0.0
H1918 H 0.32217 0.5516 0.83701 0.0
C1919 C 0.38312 0.50964 0.81002 0.0
C1920 C 0.35759 0.49851 0.81145 0.0
H1921 H 0.40658 0.54427 0.81643 0.0
H1922 H 0.40015 0.49805 0.80225 0.0
C1923 C 0.33613 0.51419 0.82195 0.0
C1924 C 0.50384 0.41344 0.79922 0.0
C1925 C 0.51834 0.38868 0.79998 0.0
H1926 H 0.46614 0.43422 0.80527 0.0
C1927 C 0.50489 0.36536 0.80861 0.0
H1928 H 0.51354 0.43189 0.79298 0.0
C1929 C 0.47748 0.36667 0.8155 0.0
C1930 C 0.46277 0.39137 0.81404 0.0
H1931 H 0.5154 0.34594 0.80948 0.0
H1932 H 0.46773 0.34812 0.82112 0.0
C1933 C 0.47653 0.41478 0.80623 0.0
C1934 C 0.66146 0.45697 0.8116 0.0
C1935 C 0.63479 0.45454 0.82059 0.0
H1936 H 0.69249 0.48349 0.79871 0.0
C1937 C 0.61901 0.47802 0.82468 0.0
H1938 H 0.67396 0.43912 0.80827 0.0
C1939 C 0.62939 0.50345 0.8187 0.0
C1940 C 0.6559 0.50583 0.809 0.0
H1941 H 0.59829 0.47663 0.83127 0.0
H1942 H 0.61655 0.52121 0.8213 0.0
C1943 C 0.672 0.48235 0.80612 0.0
C1944 C 0.54048 0.34841 0.19829 0.0
C1945 C 0.55505 0.37015 0.18746 0.0
H1946 H 0.5019 0.33395 0.21067 0.0
C1947 C 0.54135 0.39449 0.18097 0.0
H1948 H 0.55068 0.32956 0.20389 0.0
C1949 C 0.51359 0.39694 0.18464 0.0
C1950 C 0.49894 0.37531 0.19554 0.0
H1951 H 0.55219 0.41154 0.17278 0.0
H1952 H 0.50354 0.41588 0.179 0.0
C1953 C 0.51268 0.35105 0.20256 0.0
C1954 C 0.63362 0.52693 0.2109 0.0
C1955 C 0.64175 0.51003 0.18998 0.0
H1956 H 0.62477 0.56712 0.22312 0.0
C1957 C 0.64793 0.52194 0.16461 0.0
H1958 H 0.62956 0.51876 0.23091 0.0
C1959 C 0.6455 0.55001 0.16027 0.0
C1960 C 0.63653 0.56656 0.18109 0.0
H1961 H 0.65419 0.50958 0.148 0.0
H1962 H 0.65006 0.55876 0.1406 0.0
C1963 C 0.63094 0.55474 0.20648 0.0
C1964 C 0.492 0.61848 0.19207 0.0
C1965 C 0.47153 0.63665 0.18353 0.0
H1966 H 0.53278 0.61319 0.20422 0.0
C1967 C 0.47742 0.66406 0.17979 0.0
H1968 H 0.48812 0.59725 0.19502 0.0
C1969 C 0.50281 0.6732 0.18518 0.0
C1970 C 0.5231 0.6552 0.19432 0.0
H1971 H 0.46214 0.67877 0.17368 0.0
H1972 H 0.50637 0.69455 0.18259 0.0
C1973 C 0.51757 0.62762 0.19726 0.0
C1974 C 0.4035 0.50372 0.2021 0.0
C1975 C 0.37736 0.51456 0.19939 0.0
H1976 H 0.42958 0.46867 0.19899 0.0
C1977 C 0.35764 0.49809 0.18955 0.0
H1978 H 0.41917 0.51586 0.2095 0.0
C1979 C 0.36359 0.47127 0.1834 0.0
C1980 C 0.38942 0.46001 0.18707 0.0
H1981 H 0.33731 0.50577 0.18697 0.0
H1982 H 0.3476 0.45909 0.1768 0.0
C1983 C 0.40942 0.47668 0.19614 0.0
C1984 C 0.82355 0.50347 0.65005 0.0
C1985 C 0.80857 0.48808 0.63306 0.0
H1986 H 0.84213 0.54095 0.65587 0.0
C1987 C 0.80239 0.4986 0.60741 0.0
H1988 H 0.82884 0.49576 0.66984 0.0
C1989 C 0.8099 0.52466 0.59949 0.0
C1990 C 0.82417 0.54035 0.61685 0.0
H1991 H 0.79091 0.48714 0.5939 0.0
H1992 H 0.80412 0.53281 0.58001 0.0
C1993 C 0.83145 0.52923 0.64195 0.0
C1994 C 0.8076 0.46811 0.40953 0.0
C1995 C 0.81145 0.45468 0.38526 0.0
H1996 H 0.79906 0.50546 0.42876 0.0
C1997 C 0.8112 0.47027 0.36114 0.0
H1998 H 0.80813 0.45699 0.42853 0.0
C1999 C 0.80626 0.49825 0.36131 0.0
C2000 C 0.80127 0.5114 0.38556 0.0
H2001 H 0.8138 0.46082 0.34201 0.0
H2002 H 0.80555 0.50946 0.34233 0.0
C2003 C 0.80245 0.49601 0.40968 0.0
C2004 C 0.5291 0.8086 0.39889 0.0
C2005 C 0.5475 0.81775 0.37901 0.0
H2006 H 0.4894 0.79491 0.40796 0.0
C2007 C 0.53857 0.82143 0.35259 0.0
H2008 H 0.53512 0.80577 0.41949 0.0
C2009 C 0.51249 0.81523 0.34604 0.0
C2010 C 0.4944 0.80519 0.36566 0.0
H2011 H 0.55198 0.82806 0.33656 0.0
H2012 H 0.50674 0.8178 0.32531 0.0
C2013 C 0.50284 0.80244 0.39231 0.0
C2014 C 0.19356 0.52975 0.32093 0.0
C2015 C 0.19963 0.51038 0.34123 0.0
H2016 H 0.18359 0.57083 0.31084 0.0
C2017 C 0.19829 0.51814 0.36807 0.0
H2018 H 0.19425 0.52449 0.30004 0.0
C2019 C 0.19192 0.54493 0.37433 0.0
C2020 C 0.18661 0.56447 0.35391 0.0
H2021 H 0.20269 0.50366 0.3842 0.0
H2022 H 0.1915 0.55047 0.39513 0.0
C2023 C 0.18711 0.5564 0.32717 0.0
C2024 C 0.4948 0.17005 0.39584 0.0
C2025 C 0.50834 0.19424 0.39829 0.0
H2026 H 0.45687 0.1509 0.39607 0.0
C2027 C 0.49342 0.2179 0.40398 0.0
H2028 H 0.50569 0.15147 0.39134 0.0
C2029 C 0.46556 0.21741 0.40693 0.0
C2030 C 0.45199 0.19334 0.40398 0.0
H2031 H 0.50322 0.23686 0.40591 0.0
H2032 H 0.45458 0.2361 0.41071 0.0
C2033 C 0.46688 0.16967 0.39843 0.0
C2034 C 0.18437 0.4964 0.68287 0.0
C2035 C 0.19087 0.51568 0.66264 0.0
H2036 H 0.17458 0.45566 0.69271 0.0
C2037 C 0.19016 0.50833 0.63576 0.0
H2038 H 0.1845 0.50136 0.70382 0.0
C2039 C 0.1841 0.48196 0.62936 0.0
C2040 C 0.17864 0.46237 0.64968 0.0
H2041 H 0.19476 0.52275 0.61968 0.0
H2042 H 0.1842 0.47673 0.60848 0.0
C2043 C 0.17833 0.47013 0.67649 0.0
C2044 C 0.55245 0.16744 0.61477 0.0
C2045 C 0.56859 0.16959 0.63719 0.0
H2046 H 0.51292 0.17072 0.59916 0.0
C2047 C 0.55647 0.17538 0.66203 0.0
H2048 H 0.56144 0.16301 0.5954 0.0
C2049 C 0.52891 0.18047 0.66412 0.0
C2050 C 0.51272 0.17948 0.64146 0.0
H2051 H 0.56849 0.17777 0.67949 0.0
H2052 H 0.52061 0.18657 0.68328 0.0
C2053 C 0.52476 0.17217 0.6169 0.0
C2054 C 0.50496 0.78734 0.61533 0.0
C2055 C 0.51411 0.79786 0.63912 0.0
H2056 H 0.47156 0.78345 0.58953 0.0
C2057 C 0.49654 0.81429 0.65434 0.0
H2058 H 0.51803 0.77458 0.60323 0.0
C2059 C 0.47028 0.8197 0.64629 0.0
C2060 C 0.46075 0.80843 0.62308 0.0
H2061 H 0.50302 0.82282 0.6727 0.0
H2062 H 0.45711 0.83191 0.65881 0.0
C2063 C 0.4784 0.79231 0.60756 0.0
C2064 C 0.14293 0.40819 0.23213 0.0
C2065 C 0.14058 0.40217 0.25967 0.0
H2066 H 0.13282 0.39713 0.19271 0.0
C2067 C 0.12247 0.38268 0.26895 0.0
H2068 H 0.1568 0.42313 0.2246 0.0
C2069 C 0.10899 0.36744 0.25069 0.0
C2070 C 0.11346 0.37168 0.22301 0.0
H2071 H 0.12059 0.37762 0.29018 0.0
H2072 H 0.09711 0.35082 0.25817 0.0
C2073 C 0.12924 0.39329 0.21397 0.0
C2074 C 0.61029 0.11813 0.29075 0.0
C2075 C 0.59587 0.14267 0.28696 0.0
H2076 H 0.636 0.08825 0.27258 0.0
C2077 C 0.59098 0.15251 0.26079 0.0
H2078 H 0.61421 0.11015 0.31079 0.0
C2079 C 0.60329 0.1398 0.23892 0.0
C2080 C 0.62042 0.11718 0.24315 0.0
H2081 H 0.58011 0.17151 0.25742 0.0
H2082 H 0.60169 0.14923 0.21911 0.0
C2083 C 0.62264 0.10555 0.26897 0.0
C2084 C 0.88104 0.66008 0.23556 0.0
C2085 C 0.87225 0.65046 0.21127 0.0
H2086 H 0.88032 0.65585 0.2783 0.0
C2087 C 0.85596 0.62788 0.21198 0.0
H2088 H 0.89388 0.67724 0.23567 0.0
C2089 C 0.84741 0.61608 0.23641 0.0
C2090 C 0.85534 0.62617 0.26092 0.0
H2091 H 0.84869 0.62003 0.19361 0.0
H2092 H 0.83352 0.59984 0.23589 0.0
C2093 C 0.87302 0.64785 0.26005 0.0
C2094 C 0.39674 0.8558 0.24716 0.0
C2095 C 0.38881 0.8604 0.27391 0.0
H2096 H 0.38934 0.86456 0.20552 0.0
C2097 C 0.36911 0.88048 0.27903 0.0
H2098 H 0.41173 0.84025 0.24269 0.0
C2099 C 0.35601 0.89405 0.25777 0.0
C2100 C 0.36272 0.88816 0.231 0.0
H2101 H 0.36237 0.88417 0.2994 0.0
H2102 H 0.33953 0.90802 0.26223 0.0
C2103 C 0.384 0.86975 0.22591 0.0
C2104 C 0.1128 0.62574 0.79263 0.0
C2105 C 0.09673 0.64816 0.7847 0.0
H2106 H 0.14123 0.59527 0.77989 0.0
C2107 C 0.09222 0.65328 0.75731 0.0
H2108 H 0.11678 0.62161 0.81364 0.0
C2109 C 0.10584 0.63794 0.73806 0.0
C2110 C 0.12442 0.61764 0.74603 0.0
H2111 H 0.07999 0.67058 0.75081 0.0
H2112 H 0.10399 0.64381 0.71707 0.0
C2113 C 0.12678 0.61071 0.77338 0.0
C2114 C 0.38075 0.13028 0.71704 0.0
C2115 C 0.37634 0.15816 0.71217 0.0
H2116 H 0.375 0.09623 0.74399 0.0
C2117 C 0.36172 0.17295 0.73136 0.0
H2118 H 0.39195 0.11827 0.70266 0.0
C2119 C 0.35166 0.16032 0.75472 0.0
C2120 C 0.35627 0.1325 0.75997 0.0
H2121 H 0.35758 0.19436 0.72817 0.0
H2122 H 0.33979 0.17247 0.76845 0.0
C2123 C 0.37091 0.11761 0.74071 0.0
C2124 C 0.88561 0.37473 0.72495 0.0
C2125 C 0.86208 0.39021 0.72971 0.0
H2126 H 0.91651 0.34921 0.74228 0.0
C2127 C 0.85462 0.39604 0.75631 0.0
H2128 H 0.8917 0.36973 0.7047 0.0
C2129 C 0.86908 0.38468 0.7778 0.0
C2130 C 0.89102 0.36701 0.77304 0.0
H2131 H 0.83657 0.40797 0.76051 0.0
H2132 H 0.86165 0.38774 0.79807 0.0
C2133 C 0.89982 0.36303 0.74644 0.0
C2134 C 0.65158 0.89947 0.72677 0.0
C2135 C 0.64748 0.89849 0.75471 0.0
H2136 H 0.64099 0.88363 0.68913 0.0
C2137 C 0.62681 0.88289 0.76589 0.0
H2138 H 0.6675 0.91125 0.71773 0.0
C2139 C 0.61201 0.86678 0.74964 0.0
C2140 C 0.61722 0.86653 0.72189 0.0
H2141 H 0.6235 0.88154 0.78742 0.0
H2142 H 0.59755 0.85336 0.75889 0.0
C2143 C 0.63635 0.88382 0.71044 0.0
C2144 C 0.26636 0.11447 0.36969 0.0
C2145 C 0.23844 0.11882 0.37102 0.0
H2146 H 0.3046 0.12756 0.38179 0.0
C2147 C 0.22749 0.13777 0.38882 0.0
H2148 H 0.27526 0.10005 0.35601 0.0
C2149 C 0.24425 0.15376 0.4032 0.0
C2150 C 0.2722 0.15067 0.40044 0.0
H2151 H 0.20607 0.14174 0.38998 0.0
H2152 H 0.23542 0.16963 0.41525 0.0
C2153 C 0.2831 0.13009 0.38449 0.0
C2154 C 0.85494 0.23801 0.39616 0.0
C2155 C 0.84894 0.25956 0.37815 0.0
H2156 H 0.86788 0.19652 0.40099 0.0
C2157 C 0.85434 0.25624 0.35067 0.0
H2158 H 0.85059 0.2399 0.41739 0.0
C2159 C 0.8643 0.23153 0.34121 0.0
C2160 C 0.86869 0.2093 0.35898 0.0
H2161 H 0.84962 0.27246 0.33633 0.0
H2162 H 0.86722 0.22949 0.3198 0.0
C2163 C 0.86462 0.2131 0.38668 0.0
C2164 C 0.72691 0.88377 0.37561 0.0
C2165 C 0.73314 0.86161 0.3928 0.0
H2166 H 0.74203 0.91297 0.3469 0.0
C2167 C 0.76019 0.85521 0.39802 0.0
H2168 H 0.70627 0.88892 0.37099 0.0
C2169 C 0.78063 0.86927 0.38459 0.0
C2170 C 0.77434 0.88967 0.36544 0.0
H2171 H 0.7655 0.83813 0.41111 0.0
H2172 H 0.80125 0.8626 0.3874 0.0
C2173 C 0.74735 0.89751 0.36184 0.0
C2174 C 0.17176 0.73564 0.35709 0.0
C2175 C 0.15611 0.71734 0.37211 0.0
H2176 H 0.17309 0.7722 0.33375 0.0
C2177 C 0.12857 0.72337 0.37573 0.0
H2178 H 0.19294 0.73156 0.3535 0.0
C2179 C 0.11707 0.74733 0.36467 0.0
C2180 C 0.13286 0.76565 0.34965 0.0
H2181 H 0.11593 0.70964 0.38714 0.0
H2182 H 0.09591 0.75158 0.36808 0.0
C2183 C 0.16031 0.75922 0.34588 0.0
C2184 C 0.24464 0.86455 0.61881 0.0
C2185 C 0.26174 0.84799 0.63476 0.0
H2186 H 0.20845 0.88912 0.61708 0.0
C2187 C 0.25423 0.84332 0.66192 0.0
H2188 H 0.24961 0.86877 0.5979 0.0
C2189 C 0.23109 0.85545 0.67299 0.0
C2190 C 0.21421 0.87217 0.65719 0.0
H2191 H 0.26609 0.82996 0.67483 0.0
H2192 H 0.22621 0.85132 0.69396 0.0
C2193 C 0.22108 0.87637 0.62986 0.0
C2194 C 0.16224 0.2632 0.63831 0.0
C2195 C 0.13458 0.26116 0.64293 0.0
H2196 H 0.19439 0.28825 0.62569 0.0
C2197 C 0.11749 0.28308 0.63586 0.0
H2198 H 0.17579 0.24656 0.64384 0.0
C2199 C 0.12814 0.30725 0.6256 0.0
C2200 C 0.15604 0.30979 0.62243 0.0
H2201 H 0.09612 0.28202 0.63966 0.0
H2202 H 0.11464 0.32426 0.62134 0.0
C2203 C 0.17286 0.28718 0.62812 0.0
C2204 C 0.76964 0.10437 0.64827 0.0
C2205 C 0.79607 0.11182 0.64252 0.0
H2206 H 0.72808 0.11264 0.64105 0.0
C2207 C 0.80116 0.13035 0.62132 0.0
H2208 H 0.76532 0.09029 0.66474 0.0
C2209 C 0.77987 0.14344 0.60805 0.0
C2210 C 0.75329 0.13786 0.61558 0.0
H2211 H 0.82138 0.13662 0.61681 0.0
H2212 H 0.7841 0.15939 0.59336 0.0
C2213 C 0.74838 0.11712 0.6347 0.0
C2214 C 0.89901 0.72462 0.63134 0.0
C2215 C 0.87867 0.72961 0.61258 0.0
H2216 H 0.92497 0.74134 0.6595 0.0
C2217 C 0.873 0.75634 0.60396 0.0
H2218 H 0.9042 0.70417 0.63802 0.0
C2219 C 0.88523 0.77767 0.61604 0.0
C2220 C 0.90326 0.77272 0.63707 0.0
H2221 H 0.85753 0.76092 0.58954 0.0
H2222 H 0.87917 0.79813 0.61019 0.0
C2223 C 0.91114 0.74593 0.64351 0.0
C2224 C 0.37989 0.27988 0.11998 0.0
C2225 C 0.39588 0.27163 0.1417 0.0
H2226 H 0.35268 0.26781 0.09029 0.0
C2227 C 0.39984 0.24387 0.14743 0.0
H2228 H 0.37621 0.30113 0.11536 0.0
C2229 C 0.38682 0.2248 0.13276 0.0
C2230 C 0.36912 0.23316 0.11246 0.0
H2231 H 0.41193 0.23701 0.1642 0.0
H2232 H 0.38899 0.20366 0.13865 0.0
C2233 C 0.36639 0.26084 0.10569 0.0
C2234 C 0.36175 0.73843 0.89974 0.0
C2235 C 0.3574 0.76095 0.8825 0.0
H2236 H 0.3731 0.69649 0.90323 0.0
C2237 C 0.36407 0.75882 0.85512 0.0
H2238 H 0.3562 0.73941 0.9208 0.0
C2239 C 0.37362 0.73427 0.84492 0.0
C2240 C 0.37632 0.71114 0.86184 0.0
H2241 H 0.36035 0.77578 0.84135 0.0
H2242 H 0.37742 0.73309 0.82354 0.0
C2243 C 0.37116 0.71379 0.88954 0.0
C2244 C 0.28258 0.36965 0.88965 0.0
C2245 C 0.2762 0.39216 0.87301 0.0
H2246 H 0.2676 0.3357 0.91237 0.0
C2247 C 0.24921 0.40051 0.87053 0.0
H2248 H 0.3032 0.36257 0.89152 0.0
C2249 C 0.22883 0.38523 0.88251 0.0
C2250 C 0.23512 0.36109 0.89679 0.0
H2251 H 0.24382 0.41759 0.85747 0.0
H2252 H 0.20819 0.39099 0.8785 0.0
C2253 C 0.2622 0.35415 0.90133 0.0
C2254 C 0.62321 0.24251 0.86591 0.0
C2255 C 0.63819 0.26257 0.85251 0.0
H2256 H 0.62362 0.20354 0.88585 0.0
C2257 C 0.66605 0.25799 0.84923 0.0
H2258 H 0.6018 0.2453 0.86901 0.0
C2259 C 0.67857 0.23431 0.8592 0.0
C2260 C 0.66362 0.21423 0.87244 0.0
H2261 H 0.6783 0.27248 0.83838 0.0
H2262 H 0.69999 0.23154 0.85604 0.0
C2263 C 0.63577 0.21859 0.8757 0.0
C2264 C 0.74729 0.64959 0.9005 0.0
C2265 C 0.77528 0.64761 0.89743 0.0
H2266 H 0.7095 0.63616 0.88755 0.0
C2267 C 0.78679 0.62774 0.88099 0.0
H2268 H 0.738 0.66494 0.9129 0.0
C2269 C 0.77054 0.61166 0.86611 0.0
C2270 C 0.74253 0.61481 0.86793 0.0
H2271 H 0.80832 0.6261 0.87802 0.0
H2272 H 0.77982 0.59785 0.85206 0.0
C2273 C 0.73104 0.6331 0.88609 0.0
C2274 C 0.61777 0.80517 0.12813 0.0
C2275 C 0.64543 0.80858 0.12377 0.0
H2276 H 0.58705 0.77903 0.14364 0.0
C2277 C 0.66307 0.78645 0.12899 0.0
H2278 H 0.60362 0.82176 0.12432 0.0
C2279 C 0.65355 0.76217 0.13977 0.0
C2280 C 0.62617 0.75925 0.14546 0.0
H2281 H 0.68446 0.78814 0.12571 0.0
H2282 H 0.66779 0.746 0.1449 0.0
C2283 C 0.60822 0.7807 0.13898 0.0
C2284 C 0.29549 0.6342 0.11494 0.0
C2285 C 0.28974 0.61649 0.13665 0.0
H2286 H 0.2795 0.66309 0.08619 0.0
C2287 C 0.26297 0.61038 0.14269 0.0
H2288 H 0.31596 0.63948 0.11021 0.0
C2289 C 0.24215 0.62356 0.12874 0.0
C2290 C 0.24784 0.64341 0.10892 0.0
H2291 H 0.25812 0.597 0.15958 0.0
H2292 H 0.22166 0.62012 0.13521 0.0
C2293 C 0.27466 0.64773 0.1013 0.0
C2294 C 0.73968 0.35768 0.11521 0.0
C2295 C 0.75797 0.34277 0.13138 0.0
H2296 H 0.70224 0.38027 0.1135 0.0
C2297 C 0.75148 0.33902 0.15885 0.0
H2298 H 0.74391 0.36108 0.09402 0.0
C2299 C 0.72808 0.3504 0.16999 0.0
C2300 C 0.70994 0.36549 0.15401 0.0
H2301 H 0.76434 0.3269 0.17194 0.0
H2302 H 0.72403 0.34694 0.19122 0.0
C2303 C 0.71585 0.36882 0.1264 0.0
C2304 C 0.14304 0.17557 0.23602 0.0
C2305 C 0.12887 0.15171 0.23999 0.0
H2306 H 0.14262 0.21625 0.22046 0.0
C2307 C 0.1028 0.1507 0.2303 0.0
H2308 H 0.16315 0.17698 0.24333 0.0
C2309 C 0.09094 0.17336 0.21738 0.0
C2310 C 0.10505 0.19735 0.21366 0.0
H2311 H 0.09135 0.13264 0.23326 0.0
H2312 H 0.07082 0.17204 0.21012 0.0
C2313 C 0.13131 0.19807 0.22289 0.0
C2314 C 0.80598 0.1293 0.25516 0.0
C2315 C 0.8326 0.11951 0.25344 0.0
H2316 H 0.76605 0.12656 0.24151 0.0
C2317 C 0.83925 0.09865 0.23594 0.0
H2318 H 0.80015 0.14521 0.26865 0.0
C2319 C 0.81962 0.08803 0.22017 0.0
C2320 C 0.79299 0.09808 0.22167 0.0
H2321 H 0.85962 0.09068 0.23426 0.0
H2322 H 0.82544 0.07234 0.20649 0.0
C2323 C 0.78641 0.11869 0.2395 0.0
C2324 C 0.91855 0.82211 0.22646 0.0
C2325 C 0.90026 0.8107 0.20934 0.0
H2326 H 0.92675 0.85525 0.25144 0.0
C2327 C 0.87782 0.82657 0.20126 0.0
H2328 H 0.93621 0.81073 0.23287 0.0
C2329 C 0.87278 0.85215 0.21153 0.0
C2330 C 0.89016 0.86275 0.22982 0.0
H2331 H 0.86307 0.81863 0.18841 0.0
H2332 H 0.85421 0.86287 0.20664 0.0
C2333 C 0.9135 0.84787 0.23665 0.0
C2334 C 0.19602 0.8893 0.21333 0.0
C2335 C 0.1926 0.91293 0.19742 0.0
H2336 H 0.17861 0.86084 0.24071 0.0
C2337 C 0.16701 0.92588 0.19706 0.0
H2338 H 0.21531 0.87892 0.21463 0.0
C2339 C 0.14558 0.9155 0.21259 0.0
C2340 C 0.14942 0.89204 0.22871 0.0
H2341 H 0.16348 0.94399 0.18486 0.0
H2342 H 0.12629 0.92606 0.21238 0.0
C2343 C 0.17481 0.87899 0.22856 0.0
C2344 C 0.1233 0.82466 0.80754 0.0
C2345 C 0.09523 0.82395 0.80941 0.0
H2346 H 0.15744 0.84222 0.78824 0.0
C2347 C 0.07996 0.84334 0.79466 0.0
H2348 H 0.1358 0.81079 0.81926 0.0
C2349 C 0.09258 0.86204 0.77729 0.0
C2350 C 0.12057 0.86134 0.77434 0.0
H2351 H 0.05831 0.84332 0.79566 0.0
H2352 H 0.08047 0.87592 0.76511 0.0
C2353 C 0.13578 0.84294 0.79002 0.0
C2354 C 0.16296 0.09844 0.76668 0.0
C2355 C 0.16573 0.12402 0.75432 0.0
H2356 H 0.18116 0.06686 0.79089 0.0
C2357 C 0.19002 0.13721 0.75668 0.0
H2358 H 0.14452 0.08778 0.76518 0.0
C2359 C 0.21104 0.12523 0.77111 0.0
C2360 C 0.20839 0.09971 0.78364 0.0
H2361 H 0.19293 0.15692 0.74728 0.0
H2362 H 0.22948 0.13592 0.77224 0.0
C2363 C 0.18409 0.08639 0.78121 0.0
C2364 C 0.93195 0.15042 0.78656 0.0
C2365 C 0.91033 0.15429 0.76927 0.0
H2366 H 0.95625 0.16779 0.81583 0.0
C2367 C 0.89685 0.17957 0.768 0.0
H2368 H 0.94271 0.13115 0.78795 0.0
C2369 C 0.90465 0.20049 0.7837 0.0
C2370 C 0.92609 0.19674 0.80121 0.0
H2371 H 0.88018 0.18333 0.75479 0.0
H2372 H 0.89397 0.21974 0.78187 0.0
C2373 C 0.93979 0.17148 0.80239 0.0
C2374 C 0.84845 0.92608 0.79306 0.0
C2375 C 0.82245 0.91668 0.78943 0.0
H2376 H 0.89052 0.92147 0.78315 0.0
C2377 C 0.81948 0.89456 0.77315 0.0
H2378 H 0.85159 0.94291 0.80571 0.0
C2379 C 0.84161 0.88222 0.76072 0.0
C2380 C 0.86751 0.8917 0.76395 0.0
H2381 H 0.7999 0.88697 0.76948 0.0
H2382 H 0.83821 0.86536 0.74814 0.0
C2383 C 0.87082 0.91366 0.78041 0.0
C2384 C 0.24613 0.12962 0.17283 0.0
C2385 C 0.24483 0.1174 0.14791 0.0
H2386 H 0.2352 0.12839 0.21437 0.0
C2387 C 0.23024 0.09386 0.14615 0.0
H2388 H 0.25737 0.14768 0.17499 0.0
C2389 C 0.21722 0.0828 0.16898 0.0
C2390 C 0.2186 0.0951 0.19396 0.0
H2391 H 0.22902 0.08392 0.12726 0.0
H2392 H 0.20585 0.06484 0.16694 0.0
C2393 C 0.23329 0.1186 0.1955 0.0
C2394 C 0.86803 0.20787 0.16276 0.0
C2395 C 0.88601 0.22523 0.14964 0.0
H2396 H 0.85822 0.18509 0.19841 0.0
C2397 C 0.91018 0.23048 0.16189 0.0
H2398 H 0.8489 0.2042 0.15402 0.0
C2399 C 0.91547 0.21986 0.18767 0.0
C2400 C 0.89663 0.20383 0.20161 0.0
H2401 H 0.92396 0.24449 0.1525 0.0
H2402 H 0.93375 0.22514 0.19712 0.0
C2403 C 0.87334 0.1971 0.18835 0.0
C2404 C 0.77149 0.91869 0.15075 0.0
C2405 C 0.75594 0.89619 0.15708 0.0
H2406 H 0.80083 0.94545 0.16406 0.0
C2407 C 0.75835 0.88337 0.18248 0.0
H2408 H 0.77005 0.92898 0.13135 0.0
C2409 C 0.77573 0.89282 0.20121 0.0
C2410 C 0.79129 0.91535 0.1951 0.0
H2411 H 0.74662 0.86602 0.18809 0.0
H2412 H 0.77658 0.88266 0.2207 0.0
C2413 C 0.78899 0.9282 0.1696 0.0
C2414 C 0.09029 0.79649 0.17071 0.0
C2415 C 0.10461 0.79739 0.19464 0.0
H2416 H 0.08972 0.78277 0.13039 0.0
C2417 C 0.13031 0.78521 0.19556 0.0
H2418 H 0.07063 0.80606 0.1691 0.0
C2419 C 0.14127 0.77211 0.17335 0.0
C2420 C 0.12686 0.77092 0.14958 0.0
H2421 H 0.1418 0.78533 0.21365 0.0
H2422 H 0.16101 0.76262 0.17496 0.0
C2423 C 0.10133 0.78343 0.14839 0.0
C2424 C 0.20995 0.87944 0.81709 0.0
C2425 C 0.21167 0.90648 0.80814 0.0
H2426 H 0.22064 0.84934 0.84686 0.0
C2427 C 0.22384 0.92473 0.82485 0.0
H2428 H 0.20014 0.86487 0.80542 0.0
C2429 C 0.23501 0.91581 0.84926 0.0
C2430 C 0.2343 0.88851 0.85725 0.0
H2431 H 0.22561 0.94569 0.81865 0.0
H2432 H 0.24557 0.92986 0.86099 0.0
C2433 C 0.22128 0.87058 0.84119 0.0
C2434 C 0.09056 0.20498 0.83251 0.0
C2435 C 0.10259 0.2095 0.80701 0.0
H2436 H 0.08953 0.21504 0.87411 0.0
C2437 C 0.12274 0.22846 0.80407 0.0
H2438 H 0.07505 0.19039 0.83548 0.0
C2439 C 0.1311 0.24217 0.826 0.0
C2440 C 0.11942 0.23753 0.85153 0.0
H2441 H 0.13198 0.23295 0.78468 0.0
H2442 H 0.14675 0.25661 0.82278 0.0
C2443 C 0.09891 0.21894 0.85465 0.0
C2444 C 0.80665 0.08396 0.83204 0.0
C2445 C 0.82085 0.10103 0.81402 0.0
H2446 H 0.77667 0.08125 0.86362 0.0
C2447 C 0.81699 0.1291 0.81601 0.0
H2448 H 0.80905 0.06228 0.83108 0.0
C2449 C 0.79832 0.13976 0.83422 0.0
C2450 C 0.78339 0.12274 0.85135 0.0
H2451 H 0.82811 0.14303 0.8033 0.0
H2452 H 0.79523 0.16146 0.83459 0.0
C2453 C 0.78815 0.09476 0.8507 0.0
C2454 C 0.88348 0.79052 0.81235 0.0
C2455 C 0.91094 0.79559 0.81049 0.0
H2456 H 0.85086 0.77604 0.83662 0.0
C2457 C 0.92651 0.7908 0.83348 0.0
H2458 H 0.87092 0.79377 0.79511 0.0
C2459 C 0.91488 0.78078 0.85757 0.0
C2460 C 0.88754 0.77509 0.85899 0.0
H2461 H 0.94767 0.79481 0.83288 0.0
H2462 H 0.92741 0.7766 0.87471 0.0
C2463 C 0.87199 0.78031 0.83619 0.0
C2464 C 0.17507 0.23547 0.12641 0.0
C2465 C 0.14991 0.23503 0.11448 0.0
H2466 H 0.21626 0.22305 0.12504 0.0
C2467 C 0.14724 0.21986 0.0915 0.0
H2468 H 0.17791 0.24697 0.14414 0.0
C2469 C 0.16956 0.20585 0.08047 0.0
C2470 C 0.19486 0.20668 0.09234 0.0
H2471 H 0.12814 0.21929 0.08178 0.0
H2472 H 0.16696 0.19433 0.06275 0.0
C2473 C 0.19717 0.22158 0.11552 0.0
C2474 C 0.19189 0.784 0.89306 0.0
C2475 C 0.18973 0.79982 0.91585 0.0
H2476 H 0.17235 0.75879 0.86639 0.0
C2477 C 0.16477 0.802 0.92949 0.0
H2478 H 0.2108 0.78146 0.8823 0.0
C2479 C 0.14252 0.78872 0.9204 0.0
C2480 C 0.14486 0.77302 0.89754 0.0
H2481 H 0.16226 0.81421 0.94697 0.0
H2482 H 0.12359 0.79071 0.93127 0.0
C2483 C 0.16978 0.77085 0.88401 0.0
C2484 C 0.22014 0.13784 0.90633 0.0
C2485 C 0.23583 0.1422 0.88302 0.0
H2486 H 0.19293 0.15523 0.93521 0.0
C2487 C 0.23525 0.16796 0.87043 0.0
H2488 H 0.2203 0.11823 0.91651 0.0
C2489 C 0.22023 0.18915 0.88127 0.0
C2490 C 0.20488 0.18529 0.9049 0.0
H2491 H 0.24706 0.17211 0.85237 0.0
H2492 H 0.22133 0.20876 0.8713 0.0
C2493 C 0.20474 0.15921 0.91718 0.0
C2494 C 0.8316 0.21972 0.92526 0.0
C2495 C 0.81533 0.20907 0.90571 0.0
H2496 H 0.86712 0.24137 0.93298 0.0
C2497 C 0.8244 0.20985 0.87885 0.0
H2498 H 0.82524 0.21948 0.94613 0.0
C2499 C 0.84822 0.22222 0.87151 0.0
C2500 C 0.8638 0.23382 0.89081 0.0
H2501 H 0.81304 0.20118 0.86332 0.0
H2502 H 0.85403 0.22353 0.85047 0.0
C2503 C 0.85572 0.23196 0.91786 0.0
C2504 C 0.78235 0.87455 0.90115 0.0
C2505 C 0.76705 0.8696 0.87874 0.0
H2506 H 0.80811 0.85789 0.93145 0.0
C2507 C 0.76563 0.84303 0.87014 0.0
H2508 H 0.78379 0.89482 0.90825 0.0
C2509 C 0.77919 0.82184 0.88356 0.0
C2510 C 0.79475 0.82663 0.90586 0.0
H2511 H 0.7538 0.83844 0.85307 0.0
H2512 H 0.77723 0.80163 0.87654 0.0
C2513 C 0.79612 0.85329 0.91455 0.0
C2514 C 0.83705 0.78434 0.1065 0.0
C2515 C 0.83192 0.76604 0.12786 0.0
H2516 H 0.82103 0.81486 0.07977 0.0
C2517 C 0.80563 0.764 0.13817 0.0
H2518 H 0.85711 0.78627 0.09811 0.0
C2519 C 0.78489 0.78009 0.12747 0.0
C2520 C 0.78996 0.79864 0.10626 0.0
H2521 H 0.80099 0.74986 0.15449 0.0
H2522 H 0.76484 0.7779 0.13575 0.0
C2523 C 0.81628 0.80052 0.09582 0.0
C2524 C 0.20994 0.84395 0.07662 0.0
C2525 C 0.21346 0.81751 0.08746 0.0
H2526 H 0.22102 0.88542 0.07823 0.0
C2527 C 0.23179 0.81274 0.10801 0.0
H2528 H 0.19585 0.84831 0.06082 0.0
C2529 C 0.24571 0.83378 0.11806 0.0
C2530 C 0.24195 0.86027 0.10772 0.0
H2531 H 0.23551 0.79261 0.11636 0.0
H2532 H 0.25959 0.82909 0.13401 0.0
C2533 C 0.22415 0.86522 0.08667 0.0
C2534 C 0.75651 0.17707 0.13882 0.0
C2535 C 0.7549 0.15232 0.12606 0.0
H2536 H 0.77309 0.21633 0.13828 0.0
C2537 C 0.76999 0.14835 0.10238 0.0
H2538 H 0.74515 0.18082 0.15715 0.0
C2539 C 0.78607 0.16883 0.09155 0.0
C2540 C 0.78751 0.19372 0.10421 0.0
H2541 H 0.76923 0.12954 0.0921 0.0
H2542 H 0.79757 0.16499 0.07337 0.0
C2543 C 0.77265 0.19746 0.12809 0.0
C2544 C 0.59412 0.66085 0.70867 0.0
C2545 C 0.60388 0.68713 0.70938 0.0
H2546 H 0.59832 0.61959 0.7226 0.0
C2547 C 0.62605 0.69153 0.72526 0.0
H2548 H 0.57731 0.65656 0.69645 0.0
C2549 C 0.63826 0.6703 0.73987 0.0
C2550 C 0.62853 0.6441 0.73918 0.0
H2551 H 0.63386 0.71149 0.72669 0.0
H2552 H 0.65522 0.67456 0.75198 0.0
C2553 C 0.6063 0.63956 0.72347 0.0
C2554 C 0.31201 0.63215 0.75722 0.0
C2555 C 0.33864 0.62241 0.75541 0.0
H2556 H 0.27182 0.62848 0.74467 0.0
C2557 C 0.34505 0.60077 0.73876 0.0
H2558 H 0.30637 0.64862 0.7701 0.0
C2559 C 0.32516 0.58926 0.72399 0.0
C2560 C 0.29851 0.59919 0.72563 0.0
H2561 H 0.36541 0.59277 0.73708 0.0
H2562 H 0.33079 0.57294 0.71096 0.0
C2563 C 0.29219 0.62065 0.74256 0.0
C2564 C 0.42121 0.33458 0.71471 0.0
C2565 C 0.40424 0.31228 0.71443 0.0
H2566 H 0.42664 0.3749 0.72805 0.0
C2567 C 0.37868 0.31492 0.72641 0.0
H2568 H 0.44092 0.33371 0.70535 0.0
C2569 C 0.37049 0.33861 0.73873 0.0
C2570 C 0.38763 0.36047 0.73987 0.0
H2571 H 0.36497 0.29851 0.72693 0.0
H2572 H 0.35068 0.33946 0.74804 0.0
C2573 C 0.41297 0.35847 0.72736 0.0
C2574 C 0.69617 0.38732 0.71802 0.0
C2575 C 0.69178 0.40995 0.70093 0.0
H2576 H 0.67995 0.35936 0.74663 0.0
C2577 C 0.66577 0.42188 0.7001 0.0
H2578 H 0.71586 0.37783 0.71975 0.0
C2579 C 0.64478 0.41131 0.71611 0.0
C2580 C 0.64951 0.38865 0.73315 0.0
H2581 H 0.66156 0.43923 0.68702 0.0
H2582 H 0.62508 0.421 0.71541 0.0
C2583 C 0.67541 0.37677 0.73368 0.0
C2584 C 0.58491 0.33009 0.30202 0.0
C2585 C 0.59309 0.30265 0.30295 0.0
H2586 H 0.59128 0.36955 0.28461 0.0
C2587 C 0.61433 0.29413 0.28602 0.0
H2588 H 0.56885 0.33747 0.31499 0.0
C2589 C 0.62732 0.31254 0.26892 0.0
C2590 C 0.61937 0.33996 0.26822 0.0
H2591 H 0.62091 0.27316 0.28589 0.0
H2592 H 0.64362 0.30519 0.25617 0.0
C2593 C 0.59792 0.34856 0.2848 0.0
C2594 C 0.70416 0.62785 0.2793 0.0
C2595 C 0.70253 0.60178 0.29083 0.0
H2596 H 0.68487 0.6597 0.25665 0.0
C2597 C 0.67865 0.58779 0.28816 0.0
H2598 H 0.72222 0.63911 0.28063 0.0
C2599 C 0.65702 0.59964 0.27419 0.0
C2600 C 0.65889 0.62566 0.26259 0.0
H2601 H 0.67649 0.56781 0.29708 0.0
H2602 H 0.63901 0.58836 0.27226 0.0
C2603 C 0.68267 0.63961 0.26541 0.0
C2604 C 0.43527 0.66537 0.30062 0.0
C2605 C 0.42218 0.69096 0.30056 0.0
H2606 H 0.43697 0.6256 0.28461 0.0
C2607 C 0.40056 0.69584 0.28344 0.0
H2608 H 0.45189 0.66084 0.31368 0.0
C2609 C 0.39204 0.67578 0.26703 0.0
C2610 C 0.40487 0.65015 0.26717 0.0
H2611 H 0.39031 0.71536 0.28244 0.0
H2612 H 0.37527 0.68048 0.25416 0.0
C2613 C 0.42664 0.64512 0.28411 0.0
C2614 C 0.3424 0.42881 0.29251 0.0
C2615 C 0.31629 0.41976 0.28891 0.0
H2616 H 0.38438 0.42353 0.28276 0.0
C2617 C 0.31291 0.39799 0.27225 0.0
H2618 H 0.34581 0.44538 0.3054 0.0
C2619 C 0.33487 0.38541 0.25971 0.0
C2620 C 0.36093 0.39429 0.26327 0.0
H2621 H 0.29318 0.39077 0.26859 0.0
H2622 H 0.33125 0.36874 0.24696 0.0
C2623 C 0.36455 0.41617 0.27976 0.0
C2624 C 0.73686 0.61223 0.69575 0.0
C2625 C 0.71964 0.59095 0.69224 0.0
H2626 H 0.76406 0.63992 0.67778 0.0
C2627 C 0.71682 0.5813 0.66622 0.0
H2628 H 0.73991 0.61991 0.71544 0.0
C2629 C 0.73102 0.59278 0.64429 0.0
C2630 C 0.74824 0.61404 0.64808 0.0
H2631 H 0.70351 0.56508 0.66273 0.0
H2632 H 0.72873 0.58489 0.62454 0.0
C2633 C 0.75086 0.62364 0.67403 0.0
C2634 C 0.3886 0.69477 0.68659 0.0
C2635 C 0.40451 0.7088 0.70418 0.0
H2636 H 0.36832 0.69571 0.64902 0.0
C2637 C 0.4158 0.73301 0.69453 0.0
H2638 H 0.3799 0.67583 0.69269 0.0
C2639 C 0.40965 0.74386 0.66915 0.0
C2640 C 0.39229 0.73077 0.65262 0.0
H2641 H 0.42816 0.74461 0.70701 0.0
H2642 H 0.41698 0.76355 0.66322 0.0
C2643 C 0.38235 0.7058 0.66118 0.0
C2644 C 0.28184 0.39486 0.70485 0.0
C2645 C 0.2971 0.41778 0.69979 0.0
H2646 H 0.25448 0.36735 0.68994 0.0
C2647 C 0.29598 0.43072 0.67421 0.0
H2648 H 0.2817 0.38463 0.72432 0.0
C2649 C 0.2799 0.42087 0.65428 0.0
C2650 C 0.26474 0.39791 0.65957 0.0
H2651 H 0.30763 0.44829 0.66945 0.0
H2652 H 0.27928 0.43123 0.63486 0.0
C2653 C 0.26601 0.38503 0.68504 0.0
C2654 C 0.60266 0.27435 0.65695 0.0
C2655 C 0.62782 0.26124 0.65916 0.0
H2656 H 0.57231 0.29893 0.67579 0.0
C2657 C 0.64181 0.26308 0.68312 0.0
H2658 H 0.5914 0.27331 0.63877 0.0
C2659 C 0.63079 0.27756 0.70448 0.0
C2660 C 0.60549 0.29053 0.70243 0.0
H2661 H 0.66125 0.25314 0.6855 0.0
H2662 H 0.64194 0.27825 0.72273 0.0
C2663 C 0.59161 0.28882 0.67834 0.0
C2664 C 0.73592 0.41447 0.34656 0.0
C2665 C 0.7264 0.39281 0.3624 0.0
H2666 H 0.73449 0.43574 0.30852 0.0
C2667 C 0.70504 0.37822 0.35334 0.0
H2668 H 0.75295 0.42547 0.35284 0.0
C2669 C 0.69471 0.38376 0.32792 0.0
C2670 C 0.70592 0.40375 0.31085 0.0
H2671 H 0.69797 0.3609 0.36493 0.0
H2672 H 0.67961 0.37076 0.32086 0.0
C2673 C 0.72573 0.41993 0.32097 0.0
C2674 C 0.61783 0.73004 0.30911 0.0
C2675 C 0.59702 0.71186 0.31208 0.0
H2676 H 0.64305 0.75706 0.32771 0.0
C2677 C 0.58504 0.7076 0.33767 0.0
H2678 H 0.62708 0.73433 0.28968 0.0
C2679 C 0.59411 0.72106 0.35987 0.0
C2680 C 0.61529 0.73887 0.35669 0.0
H2681 H 0.56901 0.6936 0.34066 0.0
H2682 H 0.58473 0.71744 0.37938 0.0
C2683 C 0.62689 0.74322 0.33105 0.0
C2684 C 0.27163 0.63481 0.31478 0.0
C2685 C 0.27053 0.62537 0.34159 0.0
H2686 H 0.2895 0.63069 0.27587 0.0
C2687 C 0.28759 0.60372 0.34964 0.0
H2688 H 0.25856 0.65127 0.30783 0.0
C2689 C 0.30565 0.59195 0.3312 0.0
C2690 C 0.30693 0.60165 0.30438 0.0
H2691 H 0.28712 0.59598 0.37019 0.0
H2692 H 0.31888 0.57563 0.33807 0.0
C2693 C 0.28951 0.62306 0.29643 0.0
C2694 C 0.42536 0.2944 0.33832 0.0
C2695 C 0.40951 0.30021 0.31573 0.0
H2696 H 0.42654 0.27864 0.37907 0.0
C2697 C 0.38203 0.29525 0.31767 0.0
H2698 H 0.44656 0.29822 0.33753 0.0
C2699 C 0.37073 0.28425 0.3412 0.0
C2700 C 0.38648 0.27805 0.36363 0.0
H2701 H 0.36926 0.29915 0.30068 0.0
H2702 H 0.34956 0.28012 0.34165 0.0
C2703 C 0.41388 0.28357 0.36219 0.0
C2704 C 0.6838 0.71447 0.5818 0.0
C2705 C 0.70606 0.7105 0.59847 0.0
H2706 H 0.64308 0.72934 0.57837 0.0
C2707 C 0.70349 0.71789 0.62532 0.0
H2708 H 0.685 0.70863 0.56111 0.0
C2709 C 0.67961 0.72964 0.63511 0.0
C2710 C 0.65753 0.73401 0.61841 0.0
H2711 H 0.72021 0.71524 0.63863 0.0
H2712 H 0.67858 0.73567 0.65578 0.0
C2713 C 0.65968 0.72596 0.59174 0.0
C2714 C 0.63892 0.28497 0.42269 0.0
C2715 C 0.64197 0.2677 0.40108 0.0
H2716 H 0.65759 0.31304 0.44741 0.0
C2717 C 0.66695 0.26571 0.3876 0.0
H2718 H 0.61992 0.28689 0.43346 0.0
C2719 C 0.68847 0.2804 0.39563 0.0
C2720 C 0.68566 0.29757 0.41735 0.0
H2721 H 0.67006 0.25254 0.37086 0.0
H2722 H 0.70749 0.2779 0.38505 0.0
C2723 C 0.66059 0.29976 0.43079 0.0
C2724 C 0.71882 0.64003 0.41111 0.0
C2725 C 0.73512 0.64458 0.38824 0.0
H2726 H 0.69075 0.6572 0.43938 0.0
C2727 C 0.73504 0.67052 0.37603 0.0
H2728 H 0.71856 0.62028 0.42098 0.0
C2729 C 0.71966 0.6916 0.38663 0.0
C2730 C 0.70354 0.68746 0.40969 0.0
H2731 H 0.74733 0.67486 0.35834 0.0
H2732 H 0.72099 0.71134 0.37695 0.0
C2733 C 0.70313 0.66131 0.42175 0.0
C2734 C 0.35396 0.7078 0.37978 0.0
C2735 C 0.36442 0.72717 0.39608 0.0
H2736 H 0.32053 0.68387 0.37163 0.0
C2737 C 0.35017 0.73471 0.41931 0.0
H2738 H 0.36437 0.70227 0.36138 0.0
C2739 C 0.3247 0.72466 0.42493 0.0
C2740 C 0.31329 0.70676 0.4075 0.0
H2741 H 0.35763 0.75017 0.43173 0.0
H2742 H 0.31331 0.73203 0.44205 0.0
C2743 C 0.32877 0.69742 0.3856 0.0
C2744 C 0.27892 0.37622 0.40355 0.0
C2745 C 0.26457 0.37142 0.38046 0.0
H2746 H 0.30385 0.35952 0.43454 0.0
C2747 C 0.26436 0.34504 0.37108 0.0
H2748 H 0.27943 0.39632 0.41128 0.0
C2749 C 0.27804 0.3239 0.38453 0.0
C2750 C 0.29244 0.32853 0.40767 0.0
H2751 H 0.25335 0.34057 0.35343 0.0
H2752 H 0.27696 0.30382 0.37693 0.0
C2753 C 0.29274 0.35501 0.41701 0.0
C2754 C 0.34767 0.28061 0.59777 0.0
C2755 C 0.35199 0.2788 0.62541 0.0
H2756 H 0.32176 0.29556 0.56667 0.0
C2757 C 0.3347 0.29291 0.6429 0.0
H2758 H 0.36043 0.2693 0.58403 0.0
C2759 C 0.31269 0.30769 0.63316 0.0
C2760 C 0.30728 0.30845 0.60568 0.0
H2761 H 0.33766 0.29167 0.66435 0.0
H2762 H 0.29977 0.31823 0.6473 0.0
C2763 C 0.32539 0.29533 0.58796 0.0
C2764 C 0.72157 0.33954 0.63048 0.0
C2765 C 0.73353 0.35725 0.61171 0.0
H2766 H 0.69867 0.30454 0.63723 0.0
C2767 C 0.73058 0.35342 0.58426 0.0
H2768 H 0.72343 0.34232 0.65179 0.0
C2769 C 0.71696 0.33112 0.57576 0.0
C2770 C 0.70593 0.31261 0.59464 0.0
H2771 H 0.74 0.36674 0.56949 0.0
H2772 H 0.71599 0.32782 0.5545 0.0
C2773 C 0.70768 0.31765 0.62207 0.0
C2774 C 0.26445 0.67473 0.64716 0.0
C2775 C 0.26027 0.6519 0.63199 0.0
H2776 H 0.28193 0.71348 0.6486 0.0
C2777 C 0.27193 0.65053 0.60622 0.0
H2778 H 0.25581 0.67633 0.66717 0.0
C2779 C 0.28676 0.67199 0.59552 0.0
C2780 C 0.29047 0.6951 0.61051 0.0
H2781 H 0.26901 0.63323 0.59407 0.0
H2782 H 0.29531 0.6705 0.57549 0.0
C2783 C 0.27952 0.69599 0.63661 0.0
loop_
_geom_bond_atom_site_label_1
_geom_bond_atom_site_label_2
_geom_bond_distance
_geom_bond_site_symmetry_2
_ccdc_geom_bond_type
Co0 N4 2.148 . S
Co0 N10 2.128 . S
Co0 N20 2.194 . S
Co0 O25 2.351 . S
Co0 O26 2.155 . S
Co0 O27 2.096 . S
C1 N4 1.301 . S
C1 N5 1.328 . S
C1 H6 0.930 . S
C2 C3 1.333 . S
C2 N4 1.317 . S
C2 H7 0.930 . S
C3 C2 1.333 . S
C3 N5 1.350 . S
C3 H29 0.931 . S
N4 Co0 2.148 . S
N4 C1 1.301 . S
N4 C2 1.317 . S
N5 C1 1.328 . S
N5 C3 1.350 . S
H6 C1 0.930 . S
H7 C2 0.930 . S
C8 O9 1.224 . S
C8 O27 1.247 . S
O9 C8 1.224 . S
N10 Co0 2.128 . S
N10 C11 1.355 . S
N10 C13 1.311 . S
C11 N10 1.355 . S
C11 C12 1.363 . S
C11 H23 0.929 . S
C12 C11 1.363 . S
C12 N14 1.375 . S
C12 H30 0.931 . S
C13 N10 1.311 . S
C13 N14 1.347 . S
C13 H24 0.929 . S
N14 C12 1.375 . S
N14 C13 1.347 . S
C15 C18 1.365 . S
C15 N20 1.328 . S
C15 H21 0.929 . S
C16 C17 1.362 . S
C16 C19 1.378 . S
C16 H31 0.929 . S
C17 C16 1.362 . S
C17 C18 1.366 . S
C18 C15 1.365 . S
C18 C17 1.366 . S
C18 H32 0.930 . S
C19 C16 1.378 . S
C19 N20 1.315 . S
C19 H22 0.930 . S
N20 Co0 2.194 . S
N20 C15 1.328 . S
N20 C19 1.315 . S
H21 C15 0.929 . S
H22 C19 0.930 . S
H23 C11 0.929 . S
H24 C13 0.929 . S
O25 Co0 2.351 . S
O25 C28 1.244 . S
O26 Co0 2.155 . S
O26 C28 1.240 . S
O27 Co0 2.096 . S
O27 C8 1.247 . S
C28 O25 1.244 . S
C28 O26 1.240 . S
H29 C3 0.931 . S
H30 C12 0.931 . S
H31 C16 0.929 . S
H32 C18 0.930 . S
Co33 N37 2.148 . S
Co33 N43 2.128 . S
Co33 N53 2.194 . S
Co33 O58 2.351 . S
Co33 O59 2.155 . S
Co33 O60 2.096 . S
C34 N37 1.301 . S
C34 N38 1.328 . S
C34 H39 0.930 . S
C35 C36 1.333 . S
C35 N37 1.317 . S
C35 H40 0.930 . S
C36 C35 1.333 . S
C36 N38 1.350 . S
C36 H62 0.931 . S
N37 Co33 2.148 . S
N37 C34 1.301 . S
N37 C35 1.317 . S
N38 C34 1.328 . S
N38 C36 1.350 . S
H39 C34 0.930 . S
H40 C35 0.930 . S
C41 O42 1.224 . S
C41 O60 1.247 . S
O42 C41 1.224 . S
N43 Co33 2.128 . S
N43 C44 1.355 . S
N43 C46 1.311 . S
C44 N43 1.355 . S
C44 C45 1.363 . S
C44 H56 0.929 . S
C45 C44 1.363 . S
C45 N47 1.375 . S
C45 H63 0.931 . S
C46 N43 1.311 . S
C46 N47 1.347 . S
C46 H57 0.929 . S
N47 C45 1.375 . S
N47 C46 1.347 . S
C48 C51 1.365 . S
C48 N53 1.328 . S
C48 H54 0.929 . S
C49 C50 1.362 . S
C49 C52 1.378 . S
C49 H64 0.929 . S
C50 C49 1.362 . S
C50 C51 1.366 . S
C51 C48 1.365 . S
C51 C50 1.366 . S
C51 H65 0.930 . S
C52 C49 1.378 . S
C52 N53 1.315 . S
C52 H55 0.930 . S
N53 Co33 2.194 . S
N53 C48 1.328 . S
N53 C52 1.315 . S
H54 C48 0.929 . S
H55 C52 0.930 . S
H56 C44 0.929 . S
H57 C46 0.929 . S
O58 Co33 2.351 . S
O58 C61 1.244 . S
O59 Co33 2.155 . S
O59 C61 1.240 . S
O60 Co33 2.096 . S
O60 C41 1.247 . S
C61 O58 1.244 . S
C61 O59 1.240 . S
H62 C36 0.931 . S
H63 C45 0.931 . S
H64 C49 0.929 . S
H65 C51 0.930 . S
Co66 N70 2.148 . S
Co66 N76 2.128 . S
Co66 N86 2.194 . S
Co66 O91 2.351 . S
Co66 O92 2.155 . S
Co66 O93 2.096 . S
C67 N70 1.301 . S
C67 N71 1.328 . S
C67 H72 0.930 . S
C68 C69 1.333 . S
C68 N70 1.317 . S
C68 H73 0.930 . S
C69 C68 1.333 . S
C69 N71 1.350 . S
C69 H95 0.931 . S
N70 Co66 2.148 . S
N70 C67 1.301 . S
N70 C68 1.317 . S
N71 C67 1.328 . S
N71 C69 1.350 . S
H72 C67 0.930 . S
H73 C68 0.930 . S
C74 O75 1.224 . S
C74 O93 1.247 . S
O75 C74 1.224 . S
N76 Co66 2.128 . S
N76 C77 1.355 . S
N76 C79 1.311 . S
C77 N76 1.355 . S
C77 C78 1.363 . S
C77 H89 0.929 . S
C78 C77 1.363 . S
C78 N80 1.375 . S
C78 H96 0.931 . S
C79 N76 1.311 . S
C79 N80 1.347 . S
C79 H90 0.929 . S
N80 C78 1.375 . S
N80 C79 1.347 . S
C81 C84 1.365 . S
C81 N86 1.328 . S
C81 H87 0.929 . S
C82 C83 1.362 . S
C82 C85 1.378 . S
C82 H97 0.929 . S
C83 C82 1.362 . S
C83 C84 1.366 . S
C84 C81 1.365 . S
C84 C83 1.366 . S
C84 H98 0.930 . S
C85 C82 1.378 . S
C85 N86 1.315 . S
C85 H88 0.930 . S
N86 Co66 2.194 . S
N86 C81 1.328 . S
N86 C85 1.315 . S
H87 C81 0.929 . S
H88 C85 0.930 . S
H89 C77 0.929 . S
H90 C79 0.929 . S
O91 Co66 2.351 . S
O91 C94 1.244 . S
O92 Co66 2.155 . S
O92 C94 1.240 . S
O93 Co66 2.096 . S
O93 C74 1.247 . S
C94 O91 1.244 . S
C94 O92 1.240 . S
H95 C69 0.931 . S
H96 C78 0.931 . S
H97 C82 0.929 . S
H98 C84 0.930 . S
Co99 N103 2.148 . S
Co99 N109 2.128 . S
Co99 N119 2.194 . S
Co99 O124 2.351 . S
Co99 O125 2.155 . S
Co99 O126 2.096 . S
C100 N103 1.301 . S
C100 N104 1.328 . S
C100 H105 0.930 . S
C101 C102 1.333 . S
C101 N103 1.317 . S
C101 H106 0.930 . S
C102 C101 1.333 . S
C102 N104 1.350 . S
C102 H128 0.931 . S
N103 Co99 2.148 . S
N103 C100 1.301 . S
N103 C101 1.317 . S
N104 C100 1.328 . S
N104 C102 1.350 . S
H105 C100 0.930 . S
H106 C101 0.930 . S
C107 O108 1.224 . S
C107 O126 1.247 . S
O108 C107 1.224 . S
N109 Co99 2.128 . S
N109 C110 1.355 . S
N109 C112 1.311 . S
C110 N109 1.355 . S
C110 C111 1.363 . S
C110 H122 0.929 . S
C111 C110 1.363 . S
C111 N113 1.375 . S
C111 H129 0.931 . S
C112 N109 1.311 . S
C112 N113 1.347 . S
C112 H123 0.929 . S
N113 C111 1.375 . S
N113 C112 1.347 . S
C114 C117 1.365 . S
C114 N119 1.328 . S
C114 H120 0.929 . S
C115 C116 1.362 . S
C115 C118 1.378 . S
C115 H130 0.929 . S
C116 C115 1.362 . S
C116 C117 1.366 . S
C117 C114 1.365 . S
C117 C116 1.366 . S
C117 H131 0.930 . S
C118 C115 1.378 . S
C118 N119 1.315 . S
C118 H121 0.930 . S
N119 Co99 2.194 . S
N119 C114 1.328 . S
N119 C118 1.315 . S
H120 C114 0.929 . S
H121 C118 0.930 . S
H122 C110 0.929 . S
H123 C112 0.929 . S
O124 Co99 2.351 . S
O124 C127 1.244 . S
O125 Co99 2.155 . S
O125 C127 1.240 . S
O126 Co99 2.096 . S
O126 C107 1.247 . S
C127 O124 1.244 . S
C127 O125 1.240 . S
H128 C102 0.931 . S
H129 C111 0.931 . S
H130 C115 0.929 . S
H131 C117 0.930 . S
Co132 N136 2.148 . S
Co132 N142 2.128 . S
Co132 N152 2.194 . S
Co132 O157 2.351 . S
Co132 O158 2.155 . S
Co132 O159 2.096 . S
C133 N136 1.301 . S
C133 N137 1.328 . S
C133 H138 0.930 . S
C134 C135 1.333 . S
C134 N136 1.317 . S
C134 H139 0.930 . S
C135 C134 1.333 . S
C135 N137 1.350 . S
C135 H161 0.931 . S
N136 Co132 2.148 . S
N136 C133 1.301 . S
N136 C134 1.317 . S
N137 C133 1.328 . S
N137 C135 1.350 . S
H138 C133 0.930 . S
H139 C134 0.930 . S
C140 O141 1.224 . S
C140 O159 1.247 . S
O141 C140 1.224 . S
N142 Co132 2.128 . S
N142 C143 1.355 . S
N142 C145 1.311 . S
C143 N142 1.355 . S
C143 C144 1.363 . S
C143 H155 0.929 . S
C144 C143 1.363 . S
C144 N146 1.375 . S
C144 H162 0.931 . S
C145 N142 1.311 . S
C145 N146 1.347 . S
C145 H156 0.929 . S
N146 C144 1.375 . S
N146 C145 1.347 . S
C147 C150 1.365 . S
C147 N152 1.328 . S
C147 H153 0.929 . S
C148 C149 1.362 . S
C148 C151 1.378 . S
C148 H163 0.929 . S
C149 C148 1.362 . S
C149 C150 1.366 . S
C150 C147 1.365 . S
C150 C149 1.366 . S
C150 H164 0.930 . S
C151 C148 1.378 . S
C151 N152 1.315 . S
C151 H154 0.930 . S
N152 Co132 2.194 . S
N152 C147 1.328 . S
N152 C151 1.315 . S
H153 C147 0.929 . S
H154 C151 0.930 . S
H155 C143 0.929 . S
H156 C145 0.929 . S
O157 Co132 2.351 . S
O157 C160 1.244 . S
O158 Co132 2.155 . S
O158 C160 1.240 . S
O159 Co132 2.096 . S
O159 C140 1.247 . S
C160 O157 1.244 . S
C160 O158 1.240 . S
H161 C135 0.931 . S
H162 C144 0.931 . S
H163 C148 0.929 . S
H164 C150 0.930 . S
Co165 N169 2.148 . S
Co165 N175 2.128 . S
Co165 N185 2.194 . S
Co165 O190 2.351 . S
Co165 O191 2.155 . S
Co165 O192 2.096 . S
C166 N169 1.301 . S
C166 N170 1.328 . S
C166 H171 0.930 . S
C167 C168 1.333 . S
C167 N169 1.317 . S
C167 H172 0.930 . S
C168 C167 1.333 . S
C168 N170 1.350 . S
C168 H194 0.931 . S
N169 Co165 2.148 . S
N169 C166 1.301 . S
N169 C167 1.317 . S
N170 C166 1.328 . S
N170 C168 1.350 . S
H171 C166 0.930 . S
H172 C167 0.930 . S
C173 O174 1.224 . S
C173 O192 1.247 . S
O174 C173 1.224 . S
N175 Co165 2.128 . S
N175 C176 1.355 . S
N175 C178 1.311 . S
C176 N175 1.355 . S
C176 C177 1.363 . S
C176 H188 0.929 . S
C177 C176 1.363 . S
C177 N179 1.375 . S
C177 H195 0.931 . S
C178 N175 1.311 . S
C178 N179 1.347 . S
C178 H189 0.929 . S
N179 C177 1.375 . S
N179 C178 1.347 . S
C180 C183 1.365 . S
C180 N185 1.328 . S
C180 H186 0.929 . S
C181 C182 1.362 . S
C181 C184 1.378 . S
C181 H196 0.929 . S
C182 C181 1.362 . S
C182 C183 1.366 . S
C183 C180 1.365 . S
C183 C182 1.366 . S
C183 H197 0.930 . S
C184 C181 1.378 . S
C184 N185 1.315 . S
C184 H187 0.930 . S
N185 Co165 2.194 . S
N185 C180 1.328 . S
N185 C184 1.315 . S
H186 C180 0.929 . S
H187 C184 0.930 . S
H188 C176 0.929 . S
H189 C178 0.929 . S
O190 Co165 2.351 . S
O190 C193 1.244 . S
O191 Co165 2.155 . S
O191 C193 1.240 . S
O192 Co165 2.096 . S
O192 C173 1.247 . S
C193 O190 1.244 . S
C193 O191 1.240 . S
H194 C168 0.931 . S
H195 C177 0.931 . S
H196 C181 0.929 . S
H197 C183 0.930 . S
Co198 N202 2.148 . S
Co198 N208 2.128 . S
Co198 N218 2.194 . S
Co198 O223 2.351 . S
Co198 O224 2.155 . S
Co198 O225 2.096 . S
C199 N202 1.301 . S
C199 N203 1.328 . S
C199 H204 0.930 . S
C200 C201 1.333 . S
C200 N202 1.317 . S
C200 H205 0.930 . S
C201 C200 1.333 . S
C201 N203 1.350 . S
C201 H227 0.931 . S
N202 Co198 2.148 . S
N202 C199 1.301 . S
N202 C200 1.317 . S
N203 C199 1.328 . S
N203 C201 1.350 . S
H204 C199 0.930 . S
H205 C200 0.930 . S
C206 O207 1.224 . S
C206 O225 1.247 . S
O207 C206 1.224 . S
N208 Co198 2.128 . S
N208 C209 1.355 . S
N208 C211 1.311 . S
C209 N208 1.355 . S
C209 C210 1.363 . S
C209 H221 0.929 . S
C210 C209 1.363 . S
C210 N212 1.375 . S
C210 H228 0.931 . S
C211 N208 1.311 . S
C211 N212 1.347 . S
C211 H222 0.929 . S
N212 C210 1.375 . S
N212 C211 1.347 . S
C213 C216 1.365 . S
C213 N218 1.328 . S
C213 H219 0.929 . S
C214 C215 1.362 . S
C214 C217 1.378 . S
C214 H229 0.929 . S
C215 C214 1.362 . S
C215 C216 1.366 . S
C216 C213 1.365 . S
C216 C215 1.366 . S
C216 H230 0.930 . S
C217 C214 1.378 . S
C217 N218 1.315 . S
C217 H220 0.930 . S
N218 Co198 2.194 . S
N218 C213 1.328 . S
N218 C217 1.315 . S
H219 C213 0.929 . S
H220 C217 0.930 . S
H221 C209 0.929 . S
H222 C211 0.929 . S
O223 Co198 2.351 . S
O223 C226 1.244 . S
O224 Co198 2.155 . S
O224 C226 1.240 . S
O225 Co198 2.096 . S
O225 C206 1.247 . S
C226 O223 1.244 . S
C226 O224 1.240 . S
H227 C201 0.931 . S
H228 C210 0.931 . S
H229 C214 0.929 . S
H230 C216 0.930 . S
Co231 N235 2.148 . S
Co231 N241 2.128 . S
Co231 N251 2.194 . S
Co231 O256 2.351 . S
Co231 O257 2.155 . S
Co231 O258 2.096 . S
C232 N235 1.301 . S
C232 N236 1.328 . S
C232 H237 0.930 . S
C233 C234 1.333 . S
C233 N235 1.317 . S
C233 H238 0.930 . S
C234 C233 1.333 . S
C234 N236 1.350 . S
C234 H260 0.931 . S
N235 Co231 2.148 . S
N235 C232 1.301 . S
N235 C233 1.317 . S
N236 C232 1.328 . S
N236 C234 1.350 . S
H237 C232 0.930 . S
H238 C233 0.930 . S
C239 O240 1.224 . S
C239 O258 1.247 . S
O240 C239 1.224 . S
N241 Co231 2.128 . S
N241 C242 1.355 . S
N241 C244 1.311 . S
C242 N241 1.355 . S
C242 C243 1.363 . S
C242 H254 0.929 . S
C243 C242 1.363 . S
C243 N245 1.375 . S
C243 H261 0.931 . S
C244 N241 1.311 . S
C244 N245 1.347 . S
C244 H255 0.929 . S
N245 C243 1.375 . S
N245 C244 1.347 . S
C246 C249 1.365 . S
C246 N251 1.328 . S
C246 H252 0.929 . S
C247 C248 1.362 . S
C247 C250 1.378 . S
C247 H262 0.929 . S
C248 C247 1.362 . S
C248 C249 1.366 . S
C249 C246 1.365 . S
C249 C248 1.366 . S
C249 H263 0.930 . S
C250 C247 1.378 . S
C250 N251 1.315 . S
C250 H253 0.930 . S
N251 Co231 2.194 . S
N251 C246 1.328 . S
N251 C250 1.315 . S
H252 C246 0.929 . S
H253 C250 0.930 . S
H254 C242 0.929 . S
H255 C244 0.929 . S
O256 Co231 2.351 . S
O256 C259 1.244 . S
O257 Co231 2.155 . S
O257 C259 1.240 . S
O258 Co231 2.096 . S
O258 C239 1.247 . S
C259 O256 1.244 . S
C259 O257 1.240 . S
H260 C234 0.931 . S
H261 C243 0.931 . S
H262 C247 0.929 . S
H263 C249 0.930 . S
Co264 N268 2.148 . S
Co264 N274 2.128 . S
Co264 N284 2.194 . S
Co264 O289 2.351 . S
Co264 O290 2.155 . S
Co264 O291 2.096 . S
C265 N268 1.301 . S
C265 N269 1.328 . S
C265 H270 0.930 . S
C266 C267 1.333 . S
C266 N268 1.317 . S
C266 H271 0.930 . S
C267 C266 1.333 . S
C267 N269 1.350 . S
C267 H293 0.931 . S
N268 Co264 2.148 . S
N268 C265 1.301 . S
N268 C266 1.317 . S
N269 C265 1.328 . S
N269 C267 1.350 . S
H270 C265 0.930 . S
H271 C266 0.930 . S
C272 O273 1.224 . S
C272 O291 1.247 . S
O273 C272 1.224 . S
N274 Co264 2.128 . S
N274 C275 1.355 . S
N274 C277 1.311 . S
C275 N274 1.355 . S
C275 C276 1.363 . S
C275 H287 0.929 . S
C276 C275 1.363 . S
C276 N278 1.375 . S
C276 H294 0.931 . S
C277 N274 1.311 . S
C277 N278 1.347 . S
C277 H288 0.929 . S
N278 C276 1.375 . S
N278 C277 1.347 . S
C279 C282 1.365 . S
C279 N284 1.328 . S
C279 H285 0.929 . S
C280 C281 1.362 . S
C280 C283 1.378 . S
C280 H295 0.929 . S
C281 C280 1.362 . S
C281 C282 1.366 . S
C282 C279 1.365 . S
C282 C281 1.366 . S
C282 H296 0.930 . S
C283 C280 1.378 . S
C283 N284 1.315 . S
C283 H286 0.930 . S
N284 Co264 2.194 . S
N284 C279 1.328 . S
N284 C283 1.315 . S
H285 C279 0.929 . S
H286 C283 0.930 . S
H287 C275 0.929 . S
H288 C277 0.929 . S
O289 Co264 2.351 . S
O289 C292 1.244 . S
O290 Co264 2.155 . S
O290 C292 1.240 . S
O291 Co264 2.096 . S
O291 C272 1.247 . S
C292 O289 1.244 . S
C292 O290 1.240 . S
H293 C267 0.931 . S
H294 C276 0.931 . S
H295 C280 0.929 . S
H296 C282 0.930 . S
Co297 N301 2.148 . S
Co297 N307 2.128 . S
Co297 N317 2.194 . S
Co297 O322 2.351 . S
Co297 O323 2.155 . S
Co297 O324 2.096 . S
C298 N301 1.301 . S
C298 N302 1.328 . S
C298 H303 0.930 . S
C299 C300 1.333 . S
C299 N301 1.317 . S
C299 H304 0.930 . S
C300 C299 1.333 . S
C300 N302 1.350 . S
C300 H326 0.931 . S
N301 Co297 2.148 . S
N301 C298 1.301 . S
N301 C299 1.317 . S
N302 C298 1.328 . S
N302 C300 1.350 . S
H303 C298 0.930 . S
H304 C299 0.930 . S
C305 O306 1.224 . S
C305 O324 1.247 . S
O306 C305 1.224 . S
N307 Co297 2.128 . S
N307 C308 1.355 . S
N307 C310 1.311 . S
C308 N307 1.355 . S
C308 C309 1.363 . S
C308 H320 0.929 . S
C309 C308 1.363 . S
C309 N311 1.375 . S
C309 H327 0.931 . S
C310 N307 1.311 . S
C310 N311 1.347 . S
C310 H321 0.929 . S
N311 C309 1.375 . S
N311 C310 1.347 . S
C312 C315 1.365 . S
C312 N317 1.328 . S
C312 H318 0.929 . S
C313 C314 1.362 . S
C313 C316 1.378 . S
C313 H328 0.929 . S
C314 C313 1.362 . S
C314 C315 1.366 . S
C315 C312 1.365 . S
C315 C314 1.366 . S
C315 H329 0.930 . S
C316 C313 1.378 . S
C316 N317 1.315 . S
C316 H319 0.930 . S
N317 Co297 2.194 . S
N317 C312 1.328 . S
N317 C316 1.315 . S
H318 C312 0.929 . S
H319 C316 0.930 . S
H320 C308 0.929 . S
H321 C310 0.929 . S
O322 Co297 2.351 . S
O322 C325 1.244 . S
O323 Co297 2.155 . S
O323 C325 1.240 . S
O324 Co297 2.096 . S
O324 C305 1.247 . S
C325 O322 1.244 . S
C325 O323 1.240 . S
H326 C300 0.931 . S
H327 C309 0.931 . S
H328 C313 0.929 . S
H329 C315 0.930 . S
Co330 N334 2.148 . S
Co330 N340 2.128 . S
Co330 N350 2.194 . S
Co330 O355 2.351 . S
Co330 O356 2.155 . S
Co330 O357 2.096 . S
C331 N334 1.301 . S
C331 N335 1.328 . S
C331 H336 0.930 . S
C332 C333 1.333 . S
C332 N334 1.317 . S
C332 H337 0.930 . S
C333 C332 1.333 . S
C333 N335 1.350 . S
C333 H359 0.931 . S
N334 Co330 2.148 . S
N334 C331 1.301 . S
N334 C332 1.317 . S
N335 C331 1.328 . S
N335 C333 1.350 . S
H336 C331 0.930 . S
H337 C332 0.930 . S
C338 O339 1.224 . S
C338 O357 1.247 . S
O339 C338 1.224 . S
N340 Co330 2.128 . S
N340 C341 1.355 . S
N340 C343 1.311 . S
C341 N340 1.355 . S
C341 C342 1.363 . S
C341 H353 0.929 . S
C342 C341 1.363 . S
C342 N344 1.375 . S
C342 H360 0.931 . S
C343 N340 1.311 . S
C343 N344 1.347 . S
C343 H354 0.929 . S
N344 C342 1.375 . S
N344 C343 1.347 . S
C345 C348 1.365 . S
C345 N350 1.328 . S
C345 H351 0.929 . S
C346 C347 1.362 . S
C346 C349 1.378 . S
C346 H361 0.929 . S
C347 C346 1.362 . S
C347 C348 1.366 . S
C348 C345 1.365 . S
C348 C347 1.366 . S
C348 H362 0.930 . S
C349 C346 1.378 . S
C349 N350 1.315 . S
C349 H352 0.930 . S
N350 Co330 2.194 . S
N350 C345 1.328 . S
N350 C349 1.315 . S
H351 C345 0.929 . S
H352 C349 0.930 . S
H353 C341 0.929 . S
H354 C343 0.929 . S
O355 Co330 2.351 . S
O355 C358 1.244 . S
O356 Co330 2.155 . S
O356 C358 1.240 . S
O357 Co330 2.096 . S
O357 C338 1.247 . S
C358 O355 1.244 . S
C358 O356 1.240 . S
H359 C333 0.931 . S
H360 C342 0.931 . S
H361 C346 0.929 . S
H362 C348 0.930 . S
Co363 N367 2.148 . S
Co363 N373 2.128 . S
Co363 N383 2.194 . S
Co363 O388 2.351 . S
Co363 O389 2.155 . S
Co363 O390 2.096 . S
C364 N367 1.301 . S
C364 N368 1.328 . S
C364 H369 0.930 . S
C365 C366 1.333 . S
C365 N367 1.317 . S
C365 H370 0.930 . S
C366 C365 1.333 . S
C366 N368 1.350 . S
C366 H392 0.931 . S
N367 Co363 2.148 . S
N367 C364 1.301 . S
N367 C365 1.317 . S
N368 C364 1.328 . S
N368 C366 1.350 . S
H369 C364 0.930 . S
H370 C365 0.930 . S
C371 O372 1.224 . S
C371 O390 1.247 . S
O372 C371 1.224 . S
N373 Co363 2.128 . S
N373 C374 1.355 . S
N373 C376 1.311 . S
C374 N373 1.355 . S
C374 C375 1.363 . S
C374 H386 0.929 . S
C375 C374 1.363 . S
C375 N377 1.375 . S
C375 H393 0.931 . S
C376 N373 1.311 . S
C376 N377 1.347 . S
C376 H387 0.929 . S
N377 C375 1.375 . S
N377 C376 1.347 . S
C378 C381 1.365 . S
C378 N383 1.328 . S
C378 H384 0.929 . S
C379 C380 1.362 . S
C379 C382 1.378 . S
C379 H394 0.929 . S
C380 C379 1.362 . S
C380 C381 1.366 . S
C381 C378 1.365 . S
C381 C380 1.366 . S
C381 H395 0.930 . S
C382 C379 1.378 . S
C382 N383 1.315 . S
C382 H385 0.930 . S
N383 Co363 2.194 . S
N383 C378 1.328 . S
N383 C382 1.315 . S
H384 C378 0.929 . S
H385 C382 0.930 . S
H386 C374 0.929 . S
H387 C376 0.929 . S
O388 Co363 2.351 . S
O388 C391 1.244 . S
O389 Co363 2.155 . S
O389 C391 1.240 . S
O390 Co363 2.096 . S
O390 C371 1.247 . S
C391 O388 1.244 . S
C391 O389 1.240 . S
H392 C366 0.931 . S
H393 C375 0.931 . S
H394 C379 0.929 . S
H395 C381 0.930 . S
Co396 N400 2.148 . S
Co396 N406 2.128 . S
Co396 N416 2.194 . S
Co396 O421 2.351 . S
Co396 O422 2.155 . S
Co396 O423 2.096 . S
C397 N400 1.301 . S
C397 N401 1.328 . S
C397 H402 0.930 . S
C398 C399 1.333 . S
C398 N400 1.317 . S
C398 H403 0.930 . S
C399 C398 1.333 . S
C399 N401 1.350 . S
C399 H425 0.931 . S
N400 Co396 2.148 . S
N400 C397 1.301 . S
N400 C398 1.317 . S
N401 C397 1.328 . S
N401 C399 1.350 . S
H402 C397 0.930 . S
H403 C398 0.930 . S
C404 O405 1.224 . S
C404 O423 1.247 . S
O405 C404 1.224 . S
N406 Co396 2.128 . S
N406 C407 1.355 . S
N406 C409 1.311 . S
C407 N406 1.355 . S
C407 C408 1.363 . S
C407 H419 0.929 . S
C408 C407 1.363 . S
C408 N410 1.375 . S
C408 H426 0.931 . S
C409 N406 1.311 . S
C409 N410 1.347 . S
C409 H420 0.929 . S
N410 C408 1.375 . S
N410 C409 1.347 . S
C411 C414 1.365 . S
C411 N416 1.328 . S
C411 H417 0.929 . S
C412 C413 1.362 . S
C412 C415 1.378 . S
C412 H427 0.929 . S
C413 C412 1.362 . S
C413 C414 1.366 . S
C414 C411 1.365 . S
C414 C413 1.366 . S
C414 H428 0.930 . S
C415 C412 1.378 . S
C415 N416 1.315 . S
C415 H418 0.930 . S
N416 Co396 2.194 . S
N416 C411 1.328 . S
N416 C415 1.315 . S
H417 C411 0.929 . S
H418 C415 0.930 . S
H419 C407 0.929 . S
H420 C409 0.929 . S
O421 Co396 2.351 . S
O421 C424 1.244 . S
O422 Co396 2.155 . S
O422 C424 1.240 . S
O423 Co396 2.096 . S
O423 C404 1.247 . S
C424 O421 1.244 . S
C424 O422 1.240 . S
H425 C399 0.931 . S
H426 C408 0.931 . S
H427 C412 0.929 . S
H428 C414 0.930 . S
Co429 N433 2.148 . S
Co429 N439 2.128 . S
Co429 N449 2.194 . S
Co429 O454 2.351 . S
Co429 O455 2.155 . S
Co429 O456 2.096 . S
C430 N433 1.301 . S
C430 N434 1.328 . S
C430 H435 0.930 . S
C431 C432 1.333 . S
C431 N433 1.317 . S
C431 H436 0.930 . S
C432 C431 1.333 . S
C432 N434 1.350 . S
C432 H458 0.931 . S
N433 Co429 2.148 . S
N433 C430 1.301 . S
N433 C431 1.317 . S
N434 C430 1.328 . S
N434 C432 1.350 . S
H435 C430 0.930 . S
H436 C431 0.930 . S
C437 O438 1.224 . S
C437 O456 1.247 . S
O438 C437 1.224 . S
N439 Co429 2.128 . S
N439 C440 1.355 . S
N439 C442 1.311 . S
C440 N439 1.355 . S
C440 C441 1.363 . S
C440 H452 0.929 . S
C441 C440 1.363 . S
C441 N443 1.375 . S
C441 H459 0.931 . S
C442 N439 1.311 . S
C442 N443 1.347 . S
C442 H453 0.929 . S
N443 C441 1.375 . S
N443 C442 1.347 . S
C444 C447 1.365 . S
C444 N449 1.328 . S
C444 H450 0.929 . S
C445 C446 1.362 . S
C445 C448 1.378 . S
C445 H460 0.929 . S
C446 C445 1.362 . S
C446 C447 1.366 . S
C447 C444 1.365 . S
C447 C446 1.366 . S
C447 H461 0.930 . S
C448 C445 1.378 . S
C448 N449 1.315 . S
C448 H451 0.930 . S
N449 Co429 2.194 . S
N449 C444 1.328 . S
N449 C448 1.315 . S
H450 C444 0.929 . S
H451 C448 0.930 . S
H452 C440 0.929 . S
H453 C442 0.929 . S
O454 Co429 2.351 . S
O454 C457 1.244 . S
O455 Co429 2.155 . S
O455 C457 1.240 . S
O456 Co429 2.096 . S
O456 C437 1.247 . S
C457 O454 1.244 . S
C457 O455 1.240 . S
H458 C432 0.931 . S
H459 C441 0.931 . S
H460 C445 0.929 . S
H461 C447 0.930 . S
Co462 N466 2.148 . S
Co462 N472 2.128 . S
Co462 N482 2.194 . S
Co462 O487 2.351 . S
Co462 O488 2.155 . S
Co462 O489 2.096 . S
C463 N466 1.301 . S
C463 N467 1.328 . S
C463 H468 0.930 . S
C464 C465 1.333 . S
C464 N466 1.317 . S
C464 H469 0.930 . S
C465 C464 1.333 . S
C465 N467 1.350 . S
C465 H491 0.931 . S
N466 Co462 2.148 . S
N466 C463 1.301 . S
N466 C464 1.317 . S
N467 C463 1.328 . S
N467 C465 1.350 . S
H468 C463 0.930 . S
H469 C464 0.930 . S
C470 O471 1.224 . S
C470 O489 1.247 . S
O471 C470 1.224 . S
N472 Co462 2.128 . S
N472 C473 1.355 . S
N472 C475 1.311 . S
C473 N472 1.355 . S
C473 C474 1.363 . S
C473 H485 0.929 . S
C474 C473 1.363 . S
C474 N476 1.375 . S
C474 H492 0.931 . S
C475 N472 1.311 . S
C475 N476 1.347 . S
C475 H486 0.929 . S
N476 C474 1.375 . S
N476 C475 1.347 . S
C477 C480 1.365 . S
C477 N482 1.328 . S
C477 H483 0.929 . S
C478 C479 1.362 . S
C478 C481 1.378 . S
C478 H493 0.929 . S
C479 C478 1.362 . S
C479 C480 1.366 . S
C480 C477 1.365 . S
C480 C479 1.366 . S
C480 H494 0.930 . S
C481 C478 1.378 . S
C481 N482 1.315 . S
C481 H484 0.930 . S
N482 Co462 2.194 . S
N482 C477 1.328 . S
N482 C481 1.315 . S
H483 C477 0.929 . S
H484 C481 0.930 . S
H485 C473 0.929 . S
H486 C475 0.929 . S
O487 Co462 2.351 . S
O487 C490 1.244 . S
O488 Co462 2.155 . S
O488 C490 1.240 . S
O489 Co462 2.096 . S
O489 C470 1.247 . S
C490 O487 1.244 . S
C490 O488 1.240 . S
H491 C465 0.931 . S
H492 C474 0.931 . S
H493 C478 0.929 . S
H494 C480 0.930 . S
Co495 N499 2.148 . S
Co495 N505 2.128 . S
Co495 N515 2.194 . S
Co495 O520 2.351 . S
Co495 O521 2.155 . S
Co495 O522 2.096 . S
C496 N499 1.301 . S
C496 N500 1.328 . S
C496 H501 0.930 . S
C497 C498 1.333 . S
C497 N499 1.317 . S
C497 H502 0.930 . S
C498 C497 1.333 . S
C498 N500 1.350 . S
C498 H524 0.931 . S
N499 Co495 2.148 . S
N499 C496 1.301 . S
N499 C497 1.317 . S
N500 C496 1.328 . S
N500 C498 1.350 . S
H501 C496 0.930 . S
H502 C497 0.930 . S
C503 O504 1.224 . S
C503 O522 1.247 . S
O504 C503 1.224 . S
N505 Co495 2.128 . S
N505 C506 1.355 . S
N505 C508 1.311 . S
C506 N505 1.355 . S
C506 C507 1.363 . S
C506 H518 0.929 . S
C507 C506 1.363 . S
C507 N509 1.375 . S
C507 H525 0.931 . S
C508 N505 1.311 . S
C508 N509 1.347 . S
C508 H519 0.929 . S
N509 C507 1.375 . S
N509 C508 1.347 . S
C510 C513 1.365 . S
C510 N515 1.328 . S
C510 H516 0.929 . S
C511 C512 1.362 . S
C511 C514 1.378 . S
C511 H526 0.929 . S
C512 C511 1.362 . S
C512 C513 1.366 . S
C513 C510 1.365 . S
C513 C512 1.366 . S
C513 H527 0.930 . S
C514 C511 1.378 . S
C514 N515 1.315 . S
C514 H517 0.930 . S
N515 Co495 2.194 . S
N515 C510 1.328 . S
N515 C514 1.315 . S
H516 C510 0.929 . S
H517 C514 0.930 . S
H518 C506 0.929 . S
H519 C508 0.929 . S
O520 Co495 2.351 . S
O520 C523 1.244 . S
O521 Co495 2.155 . S
O521 C523 1.240 . S
O522 Co495 2.096 . S
O522 C503 1.247 . S
C523 O520 1.244 . S
C523 O521 1.240 . S
H524 C498 0.931 . S
H525 C507 0.931 . S
H526 C511 0.929 . S
H527 C513 0.930 . S
Co528 N532 2.148 . S
Co528 N538 2.128 . S
Co528 N548 2.194 . S
Co528 O553 2.351 . S
Co528 O554 2.155 . S
Co528 O555 2.096 . S
C529 N532 1.301 . S
C529 N533 1.328 . S
C529 H534 0.930 . S
C530 C531 1.333 . S
C530 N532 1.317 . S
C530 H535 0.930 . S
C531 C530 1.333 . S
C531 N533 1.350 . S
C531 H557 0.931 . S
N532 Co528 2.148 . S
N532 C529 1.301 . S
N532 C530 1.317 . S
N533 C529 1.328 . S
N533 C531 1.350 . S
H534 C529 0.930 . S
H535 C530 0.930 . S
C536 O537 1.224 . S
C536 O555 1.247 . S
O537 C536 1.224 . S
N538 Co528 2.128 . S
N538 C539 1.355 . S
N538 C541 1.311 . S
C539 N538 1.355 . S
C539 C540 1.363 . S
C539 H551 0.929 . S
C540 C539 1.363 . S
C540 N542 1.375 . S
C540 H558 0.931 . S
C541 N538 1.311 . S
C541 N542 1.347 . S
C541 H552 0.929 . S
N542 C540 1.375 . S
N542 C541 1.347 . S
C543 C546 1.365 . S
C543 N548 1.328 . S
C543 H549 0.929 . S
C544 C545 1.362 . S
C544 C547 1.378 . S
C544 H559 0.929 . S
C545 C544 1.362 . S
C545 C546 1.366 . S
C546 C543 1.365 . S
C546 C545 1.366 . S
C546 H560 0.930 . S
C547 C544 1.378 . S
C547 N548 1.315 . S
C547 H550 0.930 . S
N548 Co528 2.194 . S
N548 C543 1.328 . S
N548 C547 1.315 . S
H549 C543 0.929 . S
H550 C547 0.930 . S
H551 C539 0.929 . S
H552 C541 0.929 . S
O553 Co528 2.351 . S
O553 C556 1.244 . S
O554 Co528 2.155 . S
O554 C556 1.240 . S
O555 Co528 2.096 . S
O555 C536 1.247 . S
C556 O553 1.244 . S
C556 O554 1.240 . S
H557 C531 0.931 . S
H558 C540 0.931 . S
H559 C544 0.929 . S
H560 C546 0.930 . S
Co561 N565 2.148 . S
Co561 N571 2.128 . S
Co561 N581 2.194 . S
Co561 O586 2.351 . S
Co561 O587 2.155 . S
Co561 O588 2.096 . S
C562 N565 1.301 . S
C562 N566 1.328 . S
C562 H567 0.930 . S
C563 C564 1.333 . S
C563 N565 1.317 . S
C563 H568 0.930 . S
C564 C563 1.333 . S
C564 N566 1.350 . S
C564 H590 0.931 . S
N565 Co561 2.148 . S
N565 C562 1.301 . S
N565 C563 1.317 . S
N566 C562 1.328 . S
N566 C564 1.350 . S
H567 C562 0.930 . S
H568 C563 0.930 . S
C569 O570 1.224 . S
C569 O588 1.247 . S
O570 C569 1.224 . S
N571 Co561 2.128 . S
N571 C572 1.355 . S
N571 C574 1.311 . S
C572 N571 1.355 . S
C572 C573 1.363 . S
C572 H584 0.929 . S
C573 C572 1.363 . S
C573 N575 1.375 . S
C573 H591 0.931 . S
C574 N571 1.311 . S
C574 N575 1.347 . S
C574 H585 0.929 . S
N575 C573 1.375 . S
N575 C574 1.347 . S
C576 C579 1.365 . S
C576 N581 1.328 . S
C576 H582 0.929 . S
C577 C578 1.362 . S
C577 C580 1.378 . S
C577 H592 0.929 . S
C578 C577 1.362 . S
C578 C579 1.366 . S
C579 C576 1.365 . S
C579 C578 1.366 . S
C579 H593 0.930 . S
C580 C577 1.378 . S
C580 N581 1.315 . S
C580 H583 0.930 . S
N581 Co561 2.194 . S
N581 C576 1.328 . S
N581 C580 1.315 . S
H582 C576 0.929 . S
H583 C580 0.930 . S
H584 C572 0.929 . S
H585 C574 0.929 . S
O586 Co561 2.351 . S
O586 C589 1.244 . S
O587 Co561 2.155 . S
O587 C589 1.240 . S
O588 Co561 2.096 . S
O588 C569 1.247 . S
C589 O586 1.244 . S
C589 O587 1.240 . S
H590 C564 0.931 . S
H591 C573 0.931 . S
H592 C577 0.929 . S
H593 C579 0.930 . S
Co594 N598 2.148 . S
Co594 N604 2.128 . S
Co594 N614 2.194 . S
Co594 O619 2.351 . S
Co594 O620 2.155 . S
Co594 O621 2.096 . S
C595 N598 1.301 . S
C595 N599 1.328 . S
C595 H600 0.930 . S
C596 C597 1.333 . S
C596 N598 1.317 . S
C596 H601 0.930 . S
C597 C596 1.333 . S
C597 N599 1.350 . S
C597 H623 0.931 . S
N598 Co594 2.148 . S
N598 C595 1.301 . S
N598 C596 1.317 . S
N599 C595 1.328 . S
N599 C597 1.350 . S
H600 C595 0.930 . S
H601 C596 0.930 . S
C602 O603 1.224 . S
C602 O621 1.247 . S
O603 C602 1.224 . S
N604 Co594 2.128 . S
N604 C605 1.355 . S
N604 C607 1.311 . S
C605 N604 1.355 . S
C605 C606 1.363 . S
C605 H617 0.929 . S
C606 C605 1.363 . S
C606 N608 1.375 . S
C606 H624 0.931 . S
C607 N604 1.311 . S
C607 N608 1.347 . S
C607 H618 0.929 . S
N608 C606 1.375 . S
N608 C607 1.347 . S
C609 C612 1.365 . S
C609 N614 1.328 . S
C609 H615 0.929 . S
C610 C611 1.362 . S
C610 C613 1.378 . S
C610 H625 0.929 . S
C611 C610 1.362 . S
C611 C612 1.366 . S
C612 C609 1.365 . S
C612 C611 1.366 . S
C612 H626 0.930 . S
C613 C610 1.378 . S
C613 N614 1.315 . S
C613 H616 0.930 . S
N614 Co594 2.194 . S
N614 C609 1.328 . S
N614 C613 1.315 . S
H615 C609 0.929 . S
H616 C613 0.930 . S
H617 C605 0.929 . S
H618 C607 0.929 . S
O619 Co594 2.351 . S
O619 C622 1.244 . S
O620 Co594 2.155 . S
O620 C622 1.240 . S
O621 Co594 2.096 . S
O621 C602 1.247 . S
C622 O619 1.244 . S
C622 O620 1.240 . S
H623 C597 0.931 . S
H624 C606 0.931 . S
H625 C610 0.929 . S
H626 C612 0.930 . S
Co627 N631 2.148 . S
Co627 N637 2.128 . S
Co627 N647 2.194 . S
Co627 O652 2.351 . S
Co627 O653 2.155 . S
Co627 O654 2.096 . S
C628 N631 1.301 . S
C628 N632 1.328 . S
C628 H633 0.930 . S
C629 C630 1.333 . S
C629 N631 1.317 . S
C629 H634 0.930 . S
C630 C629 1.333 . S
C630 N632 1.350 . S
C630 H656 0.931 . S
N631 Co627 2.148 . S
N631 C628 1.301 . S
N631 C629 1.317 . S
N632 C628 1.328 . S
N632 C630 1.350 . S
H633 C628 0.930 . S
H634 C629 0.930 . S
C635 O636 1.224 . S
C635 O654 1.247 . S
O636 C635 1.224 . S
N637 Co627 2.128 . S
N637 C638 1.355 . S
N637 C640 1.311 . S
C638 N637 1.355 . S
C638 C639 1.363 . S
C638 H650 0.929 . S
C639 C638 1.363 . S
C639 N641 1.375 . S
C639 H657 0.931 . S
C640 N637 1.311 . S
C640 N641 1.347 . S
C640 H651 0.929 . S
N641 C639 1.375 . S
N641 C640 1.347 . S
C642 C645 1.365 . S
C642 N647 1.328 . S
C642 H648 0.929 . S
C643 C644 1.362 . S
C643 C646 1.378 . S
C643 H658 0.929 . S
C644 C643 1.362 . S
C644 C645 1.366 . S
C645 C642 1.365 . S
C645 C644 1.366 . S
C645 H659 0.930 . S
C646 C643 1.378 . S
C646 N647 1.315 . S
C646 H649 0.930 . S
N647 Co627 2.194 . S
N647 C642 1.328 . S
N647 C646 1.315 . S
H648 C642 0.929 . S
H649 C646 0.930 . S
H650 C638 0.929 . S
H651 C640 0.929 . S
O652 Co627 2.351 . S
O652 C655 1.244 . S
O653 Co627 2.155 . S
O653 C655 1.240 . S
O654 Co627 2.096 . S
O654 C635 1.247 . S
C655 O652 1.244 . S
C655 O653 1.240 . S
H656 C630 0.931 . S
H657 C639 0.931 . S
H658 C643 0.929 . S
H659 C645 0.930 . S
Co660 N664 2.148 . S
Co660 N670 2.128 . S
Co660 N680 2.194 . S
Co660 O685 2.351 . S
Co660 O686 2.155 . S
Co660 O687 2.096 . S
C661 N664 1.301 . S
C661 N665 1.328 . S
C661 H666 0.930 . S
C662 C663 1.333 . S
C662 N664 1.317 . S
C662 H667 0.930 . S
C663 C662 1.333 . S
C663 N665 1.350 . S
C663 H689 0.931 . S
N664 Co660 2.148 . S
N664 C661 1.301 . S
N664 C662 1.317 . S
N665 C661 1.328 . S
N665 C663 1.350 . S
H666 C661 0.930 . S
H667 C662 0.930 . S
C668 O669 1.224 . S
C668 O687 1.247 . S
O669 C668 1.224 . S
N670 Co660 2.128 . S
N670 C671 1.355 . S
N670 C673 1.311 . S
C671 N670 1.355 . S
C671 C672 1.363 . S
C671 H683 0.929 . S
C672 C671 1.363 . S
C672 N674 1.375 . S
C672 H690 0.931 . S
C673 N670 1.311 . S
C673 N674 1.347 . S
C673 H684 0.929 . S
N674 C672 1.375 . S
N674 C673 1.347 . S
C675 C678 1.365 . S
C675 N680 1.328 . S
C675 H681 0.929 . S
C676 C677 1.362 . S
C676 C679 1.378 . S
C676 H691 0.929 . S
C677 C676 1.362 . S
C677 C678 1.366 . S
C678 C675 1.365 . S
C678 C677 1.366 . S
C678 H692 0.930 . S
C679 C676 1.378 . S
C679 N680 1.315 . S
C679 H682 0.930 . S
N680 Co660 2.194 . S
N680 C675 1.328 . S
N680 C679 1.315 . S
H681 C675 0.929 . S
H682 C679 0.930 . S
H683 C671 0.929 . S
H684 C673 0.929 . S
O685 Co660 2.351 . S
O685 C688 1.244 . S
O686 Co660 2.155 . S
O686 C688 1.240 . S
O687 Co660 2.096 . S
O687 C668 1.247 . S
C688 O685 1.244 . S
C688 O686 1.240 . S
H689 C663 0.931 . S
H690 C672 0.931 . S
H691 C676 0.929 . S
H692 C678 0.930 . S
Co693 N697 2.148 . S
Co693 N703 2.128 . S
Co693 N713 2.194 . S
Co693 O718 2.351 . S
Co693 O719 2.155 . S
Co693 O720 2.096 . S
C694 N697 1.301 . S
C694 N698 1.328 . S
C694 H699 0.930 . S
C695 C696 1.333 . S
C695 N697 1.317 . S
C695 H700 0.930 . S
C696 C695 1.333 . S
C696 N698 1.350 . S
C696 H722 0.931 . S
N697 Co693 2.148 . S
N697 C694 1.301 . S
N697 C695 1.317 . S
N698 C694 1.328 . S
N698 C696 1.350 . S
H699 C694 0.930 . S
H700 C695 0.930 . S
C701 O702 1.224 . S
C701 O720 1.247 . S
O702 C701 1.224 . S
N703 Co693 2.128 . S
N703 C704 1.355 . S
N703 C706 1.311 . S
C704 N703 1.355 . S
C704 C705 1.363 . S
C704 H716 0.929 . S
C705 C704 1.363 . S
C705 N707 1.375 . S
C705 H723 0.931 . S
C706 N703 1.311 . S
C706 N707 1.347 . S
C706 H717 0.929 . S
N707 C705 1.375 . S
N707 C706 1.347 . S
C708 C711 1.365 . S
C708 N713 1.328 . S
C708 H714 0.929 . S
C709 C710 1.362 . S
C709 C712 1.378 . S
C709 H724 0.929 . S
C710 C709 1.362 . S
C710 C711 1.366 . S
C711 C708 1.365 . S
C711 C710 1.366 . S
C711 H725 0.930 . S
C712 C709 1.378 . S
C712 N713 1.315 . S
C712 H715 0.930 . S
N713 Co693 2.194 . S
N713 C708 1.328 . S
N713 C712 1.315 . S
H714 C708 0.929 . S
H715 C712 0.930 . S
H716 C704 0.929 . S
H717 C706 0.929 . S
O718 Co693 2.351 . S
O718 C721 1.244 . S
O719 Co693 2.155 . S
O719 C721 1.240 . S
O720 Co693 2.096 . S
O720 C701 1.247 . S
C721 O718 1.244 . S
C721 O719 1.240 . S
H722 C696 0.931 . S
H723 C705 0.931 . S
H724 C709 0.929 . S
H725 C711 0.930 . S
Co726 N730 2.148 . S
Co726 N736 2.128 . S
Co726 N746 2.194 . S
Co726 O751 2.351 . S
Co726 O752 2.155 . S
Co726 O753 2.096 . S
C727 N730 1.301 . S
C727 N731 1.328 . S
C727 H732 0.930 . S
C728 C729 1.333 . S
C728 N730 1.317 . S
C728 H733 0.930 . S
C729 C728 1.333 . S
C729 N731 1.350 . S
C729 H755 0.931 . S
N730 Co726 2.148 . S
N730 C727 1.301 . S
N730 C728 1.317 . S
N731 C727 1.328 . S
N731 C729 1.350 . S
H732 C727 0.930 . S
H733 C728 0.930 . S
C734 O735 1.224 . S
C734 O753 1.247 . S
O735 C734 1.224 . S
N736 Co726 2.128 . S
N736 C737 1.355 . S
N736 C739 1.311 . S
C737 N736 1.355 . S
C737 C738 1.363 . S
C737 H749 0.929 . S
C738 C737 1.363 . S
C738 N740 1.375 . S
C738 H756 0.931 . S
C739 N736 1.311 . S
C739 N740 1.347 . S
C739 H750 0.929 . S
N740 C738 1.375 . S
N740 C739 1.347 . S
C741 C744 1.365 . S
C741 N746 1.328 . S
C741 H747 0.929 . S
C742 C743 1.362 . S
C742 C745 1.378 . S
C742 H757 0.929 . S
C743 C742 1.362 . S
C743 C744 1.366 . S
C744 C741 1.365 . S
C744 C743 1.366 . S
C744 H758 0.930 . S
C745 C742 1.378 . S
C745 N746 1.315 . S
C745 H748 0.930 . S
N746 Co726 2.194 . S
N746 C741 1.328 . S
N746 C745 1.315 . S
H747 C741 0.929 . S
H748 C745 0.930 . S
H749 C737 0.929 . S
H750 C739 0.929 . S
O751 Co726 2.351 . S
O751 C754 1.244 . S
O752 Co726 2.155 . S
O752 C754 1.240 . S
O753 Co726 2.096 . S
O753 C734 1.247 . S
C754 O751 1.244 . S
C754 O752 1.240 . S
H755 C729 0.931 . S
H756 C738 0.931 . S
H757 C742 0.929 . S
H758 C744 0.930 . S
Co759 N763 2.148 . S
Co759 N769 2.128 . S
Co759 N779 2.194 . S
Co759 O784 2.351 . S
Co759 O785 2.155 . S
Co759 O786 2.096 . S
C760 N763 1.301 . S
C760 N764 1.328 . S
C760 H765 0.930 . S
C761 C762 1.333 . S
C761 N763 1.317 . S
C761 H766 0.930 . S
C762 C761 1.333 . S
C762 N764 1.350 . S
C762 H788 0.931 . S
N763 Co759 2.148 . S
N763 C760 1.301 . S
N763 C761 1.317 . S
N764 C760 1.328 . S
N764 C762 1.350 . S
H765 C760 0.930 . S
H766 C761 0.930 . S
C767 O768 1.224 . S
C767 O786 1.247 . S
O768 C767 1.224 . S
N769 Co759 2.128 . S
N769 C770 1.355 . S
N769 C772 1.311 . S
C770 N769 1.355 . S
C770 C771 1.363 . S
C770 H782 0.929 . S
C771 C770 1.363 . S
C771 N773 1.375 . S
C771 H789 0.931 . S
C772 N769 1.311 . S
C772 N773 1.347 . S
C772 H783 0.929 . S
N773 C771 1.375 . S
N773 C772 1.347 . S
C774 C777 1.365 . S
C774 N779 1.328 . S
C774 H780 0.929 . S
C775 C776 1.362 . S
C775 C778 1.378 . S
C775 H790 0.929 . S
C776 C775 1.362 . S
C776 C777 1.366 . S
C777 C774 1.365 . S
C777 C776 1.366 . S
C777 H791 0.930 . S
C778 C775 1.378 . S
C778 N779 1.315 . S
C778 H781 0.930 . S
N779 Co759 2.194 . S
N779 C774 1.328 . S
N779 C778 1.315 . S
H780 C774 0.929 . S
H781 C778 0.930 . S
H782 C770 0.929 . S
H783 C772 0.929 . S
O784 Co759 2.351 . S
O784 C787 1.244 . S
O785 Co759 2.155 . S
O785 C787 1.240 . S
O786 Co759 2.096 . S
O786 C767 1.247 . S
C787 O784 1.244 . S
C787 O785 1.240 . S
H788 C762 0.931 . S
H789 C771 0.931 . S
H790 C775 0.929 . S
H791 C777 0.930 . S
Co792 N796 2.148 . S
Co792 N802 2.128 . S
Co792 N812 2.194 . S
Co792 O817 2.351 . S
Co792 O818 2.155 . S
Co792 O819 2.096 . S
C793 N796 1.301 . S
C793 N797 1.328 . S
C793 H798 0.930 . S
C794 C795 1.333 . S
C794 N796 1.317 . S
C794 H799 0.930 . S
C795 C794 1.333 . S
C795 N797 1.350 . S
C795 H821 0.931 . S
N796 Co792 2.148 . S
N796 C793 1.301 . S
N796 C794 1.317 . S
N797 C793 1.328 . S
N797 C795 1.350 . S
H798 C793 0.930 . S
H799 C794 0.930 . S
C800 O801 1.224 . S
C800 O819 1.247 . S
O801 C800 1.224 . S
N802 Co792 2.128 . S
N802 C803 1.355 . S
N802 C805 1.311 . S
C803 N802 1.355 . S
C803 C804 1.363 . S
C803 H815 0.929 . S
C804 C803 1.363 . S
C804 N806 1.375 . S
C804 H822 0.931 . S
C805 N802 1.311 . S
C805 N806 1.347 . S
C805 H816 0.929 . S
N806 C804 1.375 . S
N806 C805 1.347 . S
C807 C810 1.365 . S
C807 N812 1.328 . S
C807 H813 0.929 . S
C808 C809 1.362 . S
C808 C811 1.378 . S
C808 H823 0.929 . S
C809 C808 1.362 . S
C809 C810 1.366 . S
C810 C807 1.365 . S
C810 C809 1.366 . S
C810 H824 0.930 . S
C811 C808 1.378 . S
C811 N812 1.315 . S
C811 H814 0.930 . S
N812 Co792 2.194 . S
N812 C807 1.328 . S
N812 C811 1.315 . S
H813 C807 0.929 . S
H814 C811 0.930 . S
H815 C803 0.929 . S
H816 C805 0.929 . S
O817 Co792 2.351 . S
O817 C820 1.244 . S
O818 Co792 2.155 . S
O818 C820 1.240 . S
O819 Co792 2.096 . S
O819 C800 1.247 . S
C820 O817 1.244 . S
C820 O818 1.240 . S
H821 C795 0.931 . S
H822 C804 0.931 . S
H823 C808 0.929 . S
H824 C810 0.930 . S
Co825 N829 2.148 . S
Co825 N835 2.128 . S
Co825 N845 2.194 . S
Co825 O850 2.351 . S
Co825 O851 2.155 . S
Co825 O852 2.096 . S
C826 N829 1.301 . S
C826 N830 1.328 . S
C826 H831 0.930 . S
C827 C828 1.333 . S
C827 N829 1.317 . S
C827 H832 0.930 . S
C828 C827 1.333 . S
C828 N830 1.350 . S
C828 H854 0.931 . S
N829 Co825 2.148 . S
N829 C826 1.301 . S
N829 C827 1.317 . S
N830 C826 1.328 . S
N830 C828 1.350 . S
H831 C826 0.930 . S
H832 C827 0.930 . S
C833 O834 1.224 . S
C833 O852 1.247 . S
O834 C833 1.224 . S
N835 Co825 2.128 . S
N835 C836 1.355 . S
N835 C838 1.311 . S
C836 N835 1.355 . S
C836 C837 1.363 . S
C836 H848 0.929 . S
C837 C836 1.363 . S
C837 N839 1.375 . S
C837 H855 0.931 . S
C838 N835 1.311 . S
C838 N839 1.347 . S
C838 H849 0.929 . S
N839 C837 1.375 . S
N839 C838 1.347 . S
C840 C843 1.365 . S
C840 N845 1.328 . S
C840 H846 0.929 . S
C841 C842 1.362 . S
C841 C844 1.378 . S
C841 H856 0.929 . S
C842 C841 1.362 . S
C842 C843 1.366 . S
C843 C840 1.365 . S
C843 C842 1.366 . S
C843 H857 0.930 . S
C844 C841 1.378 . S
C844 N845 1.315 . S
C844 H847 0.930 . S
N845 Co825 2.194 . S
N845 C840 1.328 . S
N845 C844 1.315 . S
H846 C840 0.929 . S
H847 C844 0.930 . S
H848 C836 0.929 . S
H849 C838 0.929 . S
O850 Co825 2.351 . S
O850 C853 1.244 . S
O851 Co825 2.155 . S
O851 C853 1.240 . S
O852 Co825 2.096 . S
O852 C833 1.247 . S
C853 O850 1.244 . S
C853 O851 1.240 . S
H854 C828 0.931 . S
H855 C837 0.931 . S
H856 C841 0.929 . S
H857 C843 0.930 . S
Co858 N862 2.148 . S
Co858 N868 2.128 . S
Co858 N878 2.194 . S
Co858 O883 2.351 . S
Co858 O884 2.155 . S
Co858 O885 2.096 . S
C859 N862 1.301 . S
C859 N863 1.328 . S
C859 H864 0.930 . S
C860 C861 1.333 . S
C860 N862 1.317 . S
C860 H865 0.930 . S
C861 C860 1.333 . S
C861 N863 1.350 . S
C861 H887 0.931 . S
N862 Co858 2.148 . S
N862 C859 1.301 . S
N862 C860 1.317 . S
N863 C859 1.328 . S
N863 C861 1.350 . S
H864 C859 0.930 . S
H865 C860 0.930 . S
C866 O867 1.224 . S
C866 O885 1.247 . S
O867 C866 1.224 . S
N868 Co858 2.128 . S
N868 C869 1.355 . S
N868 C871 1.311 . S
C869 N868 1.355 . S
C869 C870 1.363 . S
C869 H881 0.929 . S
C870 C869 1.363 . S
C870 N872 1.375 . S
C870 H888 0.931 . S
C871 N868 1.311 . S
C871 N872 1.347 . S
C871 H882 0.929 . S
N872 C870 1.375 . S
N872 C871 1.347 . S
C873 C876 1.365 . S
C873 N878 1.328 . S
C873 H879 0.929 . S
C874 C875 1.362 . S
C874 C877 1.378 . S
C874 H889 0.929 . S
C875 C874 1.362 . S
C875 C876 1.366 . S
C876 C873 1.365 . S
C876 C875 1.366 . S
C876 H890 0.930 . S
C877 C874 1.378 . S
C877 N878 1.315 . S
C877 H880 0.930 . S
N878 Co858 2.194 . S
N878 C873 1.328 . S
N878 C877 1.315 . S
H879 C873 0.929 . S
H880 C877 0.930 . S
H881 C869 0.929 . S
H882 C871 0.929 . S
O883 Co858 2.351 . S
O883 C886 1.244 . S
O884 Co858 2.155 . S
O884 C886 1.240 . S
O885 Co858 2.096 . S
O885 C866 1.247 . S
C886 O883 1.244 . S
C886 O884 1.240 . S
H887 C861 0.931 . S
H888 C870 0.931 . S
H889 C874 0.929 . S
H890 C876 0.930 . S
Co891 N895 2.148 . S
Co891 N901 2.128 . S
Co891 N911 2.194 . S
Co891 O916 2.351 . S
Co891 O917 2.155 . S
Co891 O918 2.096 . S
C892 N895 1.301 . S
C892 N896 1.328 . S
C892 H897 0.930 . S
C893 C894 1.333 . S
C893 N895 1.317 . S
C893 H898 0.930 . S
C894 C893 1.333 . S
C894 N896 1.350 . S
C894 H920 0.931 . S
N895 Co891 2.148 . S
N895 C892 1.301 . S
N895 C893 1.317 . S
N896 C892 1.328 . S
N896 C894 1.350 . S
H897 C892 0.930 . S
H898 C893 0.930 . S
C899 O900 1.224 . S
C899 O918 1.247 . S
O900 C899 1.224 . S
N901 Co891 2.128 . S
N901 C902 1.355 . S
N901 C904 1.311 . S
C902 N901 1.355 . S
C902 C903 1.363 . S
C902 H914 0.929 . S
C903 C902 1.363 . S
C903 N905 1.375 . S
C903 H921 0.931 . S
C904 N901 1.311 . S
C904 N905 1.347 . S
C904 H915 0.929 . S
N905 C903 1.375 . S
N905 C904 1.347 . S
C906 C909 1.365 . S
C906 N911 1.328 . S
C906 H912 0.929 . S
C907 C908 1.362 . S
C907 C910 1.378 . S
C907 H922 0.929 . S
C908 C907 1.362 . S
C908 C909 1.366 . S
C909 C906 1.365 . S
C909 C908 1.366 . S
C909 H923 0.930 . S
C910 C907 1.378 . S
C910 N911 1.315 . S
C910 H913 0.930 . S
N911 Co891 2.194 . S
N911 C906 1.328 . S
N911 C910 1.315 . S
H912 C906 0.929 . S
H913 C910 0.930 . S
H914 C902 0.929 . S
H915 C904 0.929 . S
O916 Co891 2.351 . S
O916 C919 1.244 . S
O917 Co891 2.155 . S
O917 C919 1.240 . S
O918 Co891 2.096 . S
O918 C899 1.247 . S
C919 O916 1.244 . S
C919 O917 1.240 . S
H920 C894 0.931 . S
H921 C903 0.931 . S
H922 C907 0.929 . S
H923 C909 0.930 . S
Co924 N928 2.148 . S
Co924 N934 2.128 . S
Co924 N944 2.194 . S
Co924 O949 2.351 . S
Co924 O950 2.155 . S
Co924 O951 2.096 . S
C925 N928 1.301 . S
C925 N929 1.328 . S
C925 H930 0.930 . S
C926 C927 1.333 . S
C926 N928 1.317 . S
C926 H931 0.930 . S
C927 C926 1.333 . S
C927 N929 1.350 . S
C927 H953 0.931 . S
N928 Co924 2.148 . S
N928 C925 1.301 . S
N928 C926 1.317 . S
N929 C925 1.328 . S
N929 C927 1.350 . S
H930 C925 0.930 . S
H931 C926 0.930 . S
C932 O933 1.224 . S
C932 O951 1.247 . S
O933 C932 1.224 . S
N934 Co924 2.128 . S
N934 C935 1.355 . S
N934 C937 1.311 . S
C935 N934 1.355 . S
C935 C936 1.363 . S
C935 H947 0.929 . S
C936 C935 1.363 . S
C936 N938 1.375 . S
C936 H954 0.931 . S
C937 N934 1.311 . S
C937 N938 1.347 . S
C937 H948 0.929 . S
N938 C936 1.375 . S
N938 C937 1.347 . S
C939 C942 1.365 . S
C939 N944 1.328 . S
C939 H945 0.929 . S
C940 C941 1.362 . S
C940 C943 1.378 . S
C940 H955 0.929 . S
C941 C940 1.362 . S
C941 C942 1.366 . S
C942 C939 1.365 . S
C942 C941 1.366 . S
C942 H956 0.930 . S
C943 C940 1.378 . S
C943 N944 1.315 . S
C943 H946 0.930 . S
N944 Co924 2.194 . S
N944 C939 1.328 . S
N944 C943 1.315 . S
H945 C939 0.929 . S
H946 C943 0.930 . S
H947 C935 0.929 . S
H948 C937 0.929 . S
O949 Co924 2.351 . S
O949 C952 1.244 . S
O950 Co924 2.155 . S
O950 C952 1.240 . S
O951 Co924 2.096 . S
O951 C932 1.247 . S
C952 O949 1.244 . S
C952 O950 1.240 . S
H953 C927 0.931 . S
H954 C936 0.931 . S
H955 C940 0.929 . S
H956 C942 0.930 . S
Co957 N961 2.148 . S
Co957 N967 2.128 . S
Co957 N977 2.194 . S
Co957 O982 2.351 . S
Co957 O983 2.155 . S
Co957 O984 2.096 . S
C958 N961 1.301 . S
C958 N962 1.328 . S
C958 H963 0.930 . S
C959 C960 1.333 . S
C959 N961 1.317 . S
C959 H964 0.930 . S
C960 C959 1.333 . S
C960 N962 1.350 . S
C960 H986 0.931 . S
N961 Co957 2.148 . S
N961 C958 1.301 . S
N961 C959 1.317 . S
N962 C958 1.328 . S
N962 C960 1.350 . S
H963 C958 0.930 . S
H964 C959 0.930 . S
C965 O966 1.224 . S
C965 O984 1.247 . S
O966 C965 1.224 . S
N967 Co957 2.128 . S
N967 C968 1.355 . S
N967 C970 1.311 . S
C968 N967 1.355 . S
C968 C969 1.363 . S
C968 H980 0.929 . S
C969 C968 1.363 . S
C969 N971 1.375 . S
C969 H987 0.931 . S
C970 N967 1.311 . S
C970 N971 1.347 . S
C970 H981 0.929 . S
N971 C969 1.375 . S
N971 C970 1.347 . S
C972 C975 1.365 . S
C972 N977 1.328 . S
C972 H978 0.929 . S
C973 C974 1.362 . S
C973 C976 1.378 . S
C973 H988 0.929 . S
C974 C973 1.362 . S
C974 C975 1.366 . S
C975 C972 1.365 . S
C975 C974 1.366 . S
C975 H989 0.930 . S
C976 C973 1.378 . S
C976 N977 1.315 . S
C976 H979 0.930 . S
N977 Co957 2.194 . S
N977 C972 1.328 . S
N977 C976 1.315 . S
H978 C972 0.929 . S
H979 C976 0.930 . S
H980 C968 0.929 . S
H981 C970 0.929 . S
O982 Co957 2.351 . S
O982 C985 1.244 . S
O983 Co957 2.155 . S
O983 C985 1.240 . S
O984 Co957 2.096 . S
O984 C965 1.247 . S
C985 O982 1.244 . S
C985 O983 1.240 . S
H986 C960 0.931 . S
H987 C969 0.931 . S
H988 C973 0.929 . S
H989 C975 0.930 . S
Co990 N994 2.148 . S
Co990 N1000 2.128 . S
Co990 N1010 2.194 . S
Co990 O1015 2.351 . S
Co990 O1016 2.155 . S
Co990 O1017 2.096 . S
C991 N994 1.301 . S
C991 N995 1.328 . S
C991 H996 0.930 . S
C992 C993 1.333 . S
C992 N994 1.317 . S
C992 H997 0.930 . S
C993 C992 1.333 . S
C993 N995 1.350 . S
C993 H1019 0.931 . S
N994 Co990 2.148 . S
N994 C991 1.301 . S
N994 C992 1.317 . S
N995 C991 1.328 . S
N995 C993 1.350 . S
H996 C991 0.930 . S
H997 C992 0.930 . S
C998 O999 1.224 . S
C998 O1017 1.247 . S
O999 C998 1.224 . S
N1000 Co990 2.128 . S
N1000 C1001 1.355 . S
N1000 C1003 1.311 . S
C1001 N1000 1.355 . S
C1001 C1002 1.363 . S
C1001 H1013 0.929 . S
C1002 C1001 1.363 . S
C1002 N1004 1.375 . S
C1002 H1020 0.931 . S
C1003 N1000 1.311 . S
C1003 N1004 1.347 . S
C1003 H1014 0.929 . S
N1004 C1002 1.375 . S
N1004 C1003 1.347 . S
C1005 C1008 1.365 . S
C1005 N1010 1.328 . S
C1005 H1011 0.929 . S
C1006 C1007 1.362 . S
C1006 C1009 1.378 . S
C1006 H1021 0.929 . S
C1007 C1006 1.362 . S
C1007 C1008 1.366 . S
C1008 C1005 1.365 . S
C1008 C1007 1.366 . S
C1008 H1022 0.930 . S
C1009 C1006 1.378 . S
C1009 N1010 1.315 . S
C1009 H1012 0.930 . S
N1010 Co990 2.194 . S
N1010 C1005 1.328 . S
N1010 C1009 1.315 . S
H1011 C1005 0.929 . S
H1012 C1009 0.930 . S
H1013 C1001 0.929 . S
H1014 C1003 0.929 . S
O1015 Co990 2.351 . S
O1015 C1018 1.244 . S
O1016 Co990 2.155 . S
O1016 C1018 1.240 . S
O1017 Co990 2.096 . S
O1017 C998 1.247 . S
C1018 O1015 1.244 . S
C1018 O1016 1.240 . S
H1019 C993 0.931 . S
H1020 C1002 0.931 . S
H1021 C1006 0.929 . S
H1022 C1008 0.930 . S
Co1023 N1027 2.148 . S
Co1023 N1033 2.128 . S
Co1023 N1043 2.194 . S
Co1023 O1048 2.351 . S
Co1023 O1049 2.155 . S
Co1023 O1050 2.096 . S
C1024 N1027 1.301 . S
C1024 N1028 1.328 . S
C1024 H1029 0.930 . S
C1025 C1026 1.333 . S
C1025 N1027 1.317 . S
C1025 H1030 0.930 . S
C1026 C1025 1.333 . S
C1026 N1028 1.350 . S
C1026 H1052 0.931 . S
N1027 Co1023 2.148 . S
N1027 C1024 1.301 . S
N1027 C1025 1.317 . S
N1028 C1024 1.328 . S
N1028 C1026 1.350 . S
H1029 C1024 0.930 . S
H1030 C1025 0.930 . S
C1031 O1032 1.224 . S
C1031 O1050 1.247 . S
O1032 C1031 1.224 . S
N1033 Co1023 2.128 . S
N1033 C1034 1.355 . S
N1033 C1036 1.311 . S
C1034 N1033 1.355 . S
C1034 C1035 1.363 . S
C1034 H1046 0.929 . S
C1035 C1034 1.363 . S
C1035 N1037 1.375 . S
C1035 H1053 0.931 . S
C1036 N1033 1.311 . S
C1036 N1037 1.347 . S
C1036 H1047 0.929 . S
N1037 C1035 1.375 . S
N1037 C1036 1.347 . S
C1038 C1041 1.365 . S
C1038 N1043 1.328 . S
C1038 H1044 0.929 . S
C1039 C1040 1.362 . S
C1039 C1042 1.378 . S
C1039 H1054 0.929 . S
C1040 C1039 1.362 . S
C1040 C1041 1.366 . S
C1041 C1038 1.365 . S
C1041 C1040 1.366 . S
C1041 H1055 0.930 . S
C1042 C1039 1.378 . S
C1042 N1043 1.315 . S
C1042 H1045 0.930 . S
N1043 Co1023 2.194 . S
N1043 C1038 1.328 . S
N1043 C1042 1.315 . S
H1044 C1038 0.929 . S
H1045 C1042 0.930 . S
H1046 C1034 0.929 . S
H1047 C1036 0.929 . S
O1048 Co1023 2.351 . S
O1048 C1051 1.244 . S
O1049 Co1023 2.155 . S
O1049 C1051 1.240 . S
O1050 Co1023 2.096 . S
O1050 C1031 1.247 . S
C1051 O1048 1.244 . S
C1051 O1049 1.240 . S
H1052 C1026 0.931 . S
H1053 C1035 0.931 . S
H1054 C1039 0.929 . S
H1055 C1041 0.930 . S
Co1056 N1060 2.148 . S
Co1056 N1066 2.128 . S
Co1056 N1076 2.194 . S
Co1056 O1081 2.351 . S
Co1056 O1082 2.155 . S
Co1056 O1083 2.096 . S
C1057 N1060 1.301 . S
C1057 N1061 1.328 . S
C1057 H1062 0.930 . S
C1058 C1059 1.333 . S
C1058 N1060 1.317 . S
C1058 H1063 0.930 . S
C1059 C1058 1.333 . S
C1059 N1061 1.350 . S
C1059 H1085 0.931 . S
N1060 Co1056 2.148 . S
N1060 C1057 1.301 . S
N1060 C1058 1.317 . S
N1061 C1057 1.328 . S
N1061 C1059 1.350 . S
H1062 C1057 0.930 . S
H1063 C1058 0.930 . S
C1064 O1065 1.224 . S
C1064 O1083 1.247 . S
O1065 C1064 1.224 . S
N1066 Co1056 2.128 . S
N1066 C1067 1.355 . S
N1066 C1069 1.311 . S
C1067 N1066 1.355 . S
C1067 C1068 1.363 . S
C1067 H1079 0.929 . S
C1068 C1067 1.363 . S
C1068 N1070 1.375 . S
C1068 H1086 0.931 . S
C1069 N1066 1.311 . S
C1069 N1070 1.347 . S
C1069 H1080 0.929 . S
N1070 C1068 1.375 . S
N1070 C1069 1.347 . S
C1071 C1074 1.365 . S
C1071 N1076 1.328 . S
C1071 H1077 0.929 . S
C1072 C1073 1.362 . S
C1072 C1075 1.378 . S
C1072 H1087 0.929 . S
C1073 C1072 1.362 . S
C1073 C1074 1.366 . S
C1074 C1071 1.365 . S
C1074 C1073 1.366 . S
C1074 H1088 0.930 . S
C1075 C1072 1.378 . S
C1075 N1076 1.315 . S
C1075 H1078 0.930 . S
N1076 Co1056 2.194 . S
N1076 C1071 1.328 . S
N1076 C1075 1.315 . S
H1077 C1071 0.929 . S
H1078 C1075 0.930 . S
H1079 C1067 0.929 . S
H1080 C1069 0.929 . S
O1081 Co1056 2.351 . S
O1081 C1084 1.244 . S
O1082 Co1056 2.155 . S
O1082 C1084 1.240 . S
O1083 Co1056 2.096 . S
O1083 C1064 1.247 . S
C1084 O1081 1.244 . S
C1084 O1082 1.240 . S
H1085 C1059 0.931 . S
H1086 C1068 0.931 . S
H1087 C1072 0.929 . S
H1088 C1074 0.930 . S
Co1089 N1093 2.148 . S
Co1089 N1099 2.128 . S
Co1089 N1109 2.194 . S
Co1089 O1114 2.351 . S
Co1089 O1115 2.155 . S
Co1089 O1116 2.096 . S
C1090 N1093 1.301 . S
C1090 N1094 1.328 . S
C1090 H1095 0.930 . S
C1091 C1092 1.333 . S
C1091 N1093 1.317 . S
C1091 H1096 0.930 . S
C1092 C1091 1.333 . S
C1092 N1094 1.350 . S
C1092 H1118 0.931 . S
N1093 Co1089 2.148 . S
N1093 C1090 1.301 . S
N1093 C1091 1.317 . S
N1094 C1090 1.328 . S
N1094 C1092 1.350 . S
H1095 C1090 0.930 . S
H1096 C1091 0.930 . S
C1097 O1098 1.224 . S
C1097 O1116 1.247 . S
O1098 C1097 1.224 . S
N1099 Co1089 2.128 . S
N1099 C1100 1.355 . S
N1099 C1102 1.311 . S
C1100 N1099 1.355 . S
C1100 C1101 1.363 . S
C1100 H1112 0.929 . S
C1101 C1100 1.363 . S
C1101 N1103 1.375 . S
C1101 H1119 0.931 . S
C1102 N1099 1.311 . S
C1102 N1103 1.347 . S
C1102 H1113 0.929 . S
N1103 C1101 1.375 . S
N1103 C1102 1.347 . S
C1104 C1107 1.365 . S
C1104 N1109 1.328 . S
C1104 H1110 0.929 . S
C1105 C1106 1.362 . S
C1105 C1108 1.378 . S
C1105 H1120 0.929 . S
C1106 C1105 1.362 . S
C1106 C1107 1.366 . S
C1107 C1104 1.365 . S
C1107 C1106 1.366 . S
C1107 H1121 0.930 . S
C1108 C1105 1.378 . S
C1108 N1109 1.315 . S
C1108 H1111 0.930 . S
N1109 Co1089 2.194 . S
N1109 C1104 1.328 . S
N1109 C1108 1.315 . S
H1110 C1104 0.929 . S
H1111 C1108 0.930 . S
H1112 C1100 0.929 . S
H1113 C1102 0.929 . S
O1114 Co1089 2.351 . S
O1114 C1117 1.244 . S
O1115 Co1089 2.155 . S
O1115 C1117 1.240 . S
O1116 Co1089 2.096 . S
O1116 C1097 1.247 . S
C1117 O1114 1.244 . S
C1117 O1115 1.240 . S
H1118 C1092 0.931 . S
H1119 C1101 0.931 . S
H1120 C1105 0.929 . S
H1121 C1107 0.930 . S
Co1122 N1126 2.148 . S
Co1122 N1132 2.128 . S
Co1122 N1142 2.194 . S
Co1122 O1147 2.351 . S
Co1122 O1148 2.155 . S
Co1122 O1149 2.096 . S
C1123 N1126 1.301 . S
C1123 N1127 1.328 . S
C1123 H1128 0.930 . S
C1124 C1125 1.333 . S
C1124 N1126 1.317 . S
C1124 H1129 0.930 . S
C1125 C1124 1.333 . S
C1125 N1127 1.350 . S
C1125 H1151 0.931 . S
N1126 Co1122 2.148 . S
N1126 C1123 1.301 . S
N1126 C1124 1.317 . S
N1127 C1123 1.328 . S
N1127 C1125 1.350 . S
H1128 C1123 0.930 . S
H1129 C1124 0.930 . S
C1130 O1131 1.224 . S
C1130 O1149 1.247 . S
O1131 C1130 1.224 . S
N1132 Co1122 2.128 . S
N1132 C1133 1.355 . S
N1132 C1135 1.311 . S
C1133 N1132 1.355 . S
C1133 C1134 1.363 . S
C1133 H1145 0.929 . S
C1134 C1133 1.363 . S
C1134 N1136 1.375 . S
C1134 H1152 0.931 . S
C1135 N1132 1.311 . S
C1135 N1136 1.347 . S
C1135 H1146 0.929 . S
N1136 C1134 1.375 . S
N1136 C1135 1.347 . S
C1137 C1140 1.365 . S
C1137 N1142 1.328 . S
C1137 H1143 0.929 . S
C1138 C1139 1.362 . S
C1138 C1141 1.378 . S
C1138 H1153 0.929 . S
C1139 C1138 1.362 . S
C1139 C1140 1.366 . S
C1140 C1137 1.365 . S
C1140 C1139 1.366 . S
C1140 H1154 0.930 . S
C1141 C1138 1.378 . S
C1141 N1142 1.315 . S
C1141 H1144 0.930 . S
N1142 Co1122 2.194 . S
N1142 C1137 1.328 . S
N1142 C1141 1.315 . S
H1143 C1137 0.929 . S
H1144 C1141 0.930 . S
H1145 C1133 0.929 . S
H1146 C1135 0.929 . S
O1147 Co1122 2.351 . S
O1147 C1150 1.244 . S
O1148 Co1122 2.155 . S
O1148 C1150 1.240 . S
O1149 Co1122 2.096 . S
O1149 C1130 1.247 . S
C1150 O1147 1.244 . S
C1150 O1148 1.240 . S
H1151 C1125 0.931 . S
H1152 C1134 0.931 . S
H1153 C1138 0.929 . S
H1154 C1140 0.930 . S
Co1155 N1159 2.148 . S
Co1155 N1165 2.128 . S
Co1155 N1175 2.194 . S
Co1155 O1180 2.351 . S
Co1155 O1181 2.155 . S
Co1155 O1182 2.096 . S
C1156 N1159 1.301 . S
C1156 N1160 1.328 . S
C1156 H1161 0.930 . S
C1157 C1158 1.333 . S
C1157 N1159 1.317 . S
C1157 H1162 0.930 . S
C1158 C1157 1.333 . S
C1158 N1160 1.350 . S
C1158 H1184 0.931 . S
N1159 Co1155 2.148 . S
N1159 C1156 1.301 . S
N1159 C1157 1.317 . S
N1160 C1156 1.328 . S
N1160 C1158 1.350 . S
H1161 C1156 0.930 . S
H1162 C1157 0.930 . S
C1163 O1164 1.224 . S
C1163 O1182 1.247 . S
O1164 C1163 1.224 . S
N1165 Co1155 2.128 . S
N1165 C1166 1.355 . S
N1165 C1168 1.311 . S
C1166 N1165 1.355 . S
C1166 C1167 1.363 . S
C1166 H1178 0.929 . S
C1167 C1166 1.363 . S
C1167 N1169 1.375 . S
C1167 H1185 0.931 . S
C1168 N1165 1.311 . S
C1168 N1169 1.347 . S
C1168 H1179 0.929 . S
N1169 C1167 1.375 . S
N1169 C1168 1.347 . S
C1170 C1173 1.365 . S
C1170 N1175 1.328 . S
C1170 H1176 0.929 . S
C1171 C1172 1.362 . S
C1171 C1174 1.378 . S
C1171 H1186 0.929 . S
C1172 C1171 1.362 . S
C1172 C1173 1.366 . S
C1173 C1170 1.365 . S
C1173 C1172 1.366 . S
C1173 H1187 0.930 . S
C1174 C1171 1.378 . S
C1174 N1175 1.315 . S
C1174 H1177 0.930 . S
N1175 Co1155 2.194 . S
N1175 C1170 1.328 . S
N1175 C1174 1.315 . S
H1176 C1170 0.929 . S
H1177 C1174 0.930 . S
H1178 C1166 0.929 . S
H1179 C1168 0.929 . S
O1180 Co1155 2.351 . S
O1180 C1183 1.244 . S
O1181 Co1155 2.155 . S
O1181 C1183 1.240 . S
O1182 Co1155 2.096 . S
O1182 C1163 1.247 . S
C1183 O1180 1.244 . S
C1183 O1181 1.240 . S
H1184 C1158 0.931 . S
H1185 C1167 0.931 . S
H1186 C1171 0.929 . S
H1187 C1173 0.930 . S
Co1188 N1192 2.148 . S
Co1188 N1198 2.128 . S
Co1188 N1208 2.194 . S
Co1188 O1213 2.351 . S
Co1188 O1214 2.155 . S
Co1188 O1215 2.096 . S
C1189 N1192 1.301 . S
C1189 N1193 1.328 . S
C1189 H1194 0.930 . S
C1190 C1191 1.333 . S
C1190 N1192 1.317 . S
C1190 H1195 0.930 . S
C1191 C1190 1.333 . S
C1191 N1193 1.350 . S
C1191 H1217 0.931 . S
N1192 Co1188 2.148 . S
N1192 C1189 1.301 . S
N1192 C1190 1.317 . S
N1193 C1189 1.328 . S
N1193 C1191 1.350 . S
H1194 C1189 0.930 . S
H1195 C1190 0.930 . S
C1196 O1197 1.224 . S
C1196 O1215 1.247 . S
O1197 C1196 1.224 . S
N1198 Co1188 2.128 . S
N1198 C1199 1.355 . S
N1198 C1201 1.311 . S
C1199 N1198 1.355 . S
C1199 C1200 1.363 . S
C1199 H1211 0.929 . S
C1200 C1199 1.363 . S
C1200 N1202 1.375 . S
C1200 H1218 0.931 . S
C1201 N1198 1.311 . S
C1201 N1202 1.347 . S
C1201 H1212 0.929 . S
N1202 C1200 1.375 . S
N1202 C1201 1.347 . S
C1203 C1206 1.365 . S
C1203 N1208 1.328 . S
C1203 H1209 0.929 . S
C1204 C1205 1.362 . S
C1204 C1207 1.378 . S
C1204 H1219 0.929 . S
C1205 C1204 1.362 . S
C1205 C1206 1.366 . S
C1206 C1203 1.365 . S
C1206 C1205 1.366 . S
C1206 H1220 0.930 . S
C1207 C1204 1.378 . S
C1207 N1208 1.315 . S
C1207 H1210 0.930 . S
N1208 Co1188 2.194 . S
N1208 C1203 1.328 . S
N1208 C1207 1.315 . S
H1209 C1203 0.929 . S
H1210 C1207 0.930 . S
H1211 C1199 0.929 . S
H1212 C1201 0.929 . S
O1213 Co1188 2.351 . S
O1213 C1216 1.244 . S
O1214 Co1188 2.155 . S
O1214 C1216 1.240 . S
O1215 Co1188 2.096 . S
O1215 C1196 1.247 . S
C1216 O1213 1.244 . S
C1216 O1214 1.240 . S
H1217 C1191 0.931 . S
H1218 C1200 0.931 . S
H1219 C1204 0.929 . S
H1220 C1206 0.930 . S
Co1221 N1225 2.148 . S
Co1221 N1231 2.128 . S
Co1221 N1241 2.194 . S
Co1221 O1246 2.351 . S
Co1221 O1247 2.155 . S
Co1221 O1248 2.096 . S
C1222 N1225 1.301 . S
C1222 N1226 1.328 . S
C1222 H1227 0.930 . S
C1223 C1224 1.333 . S
C1223 N1225 1.317 . S
C1223 H1228 0.930 . S
C1224 C1223 1.333 . S
C1224 N1226 1.350 . S
C1224 H1250 0.931 . S
N1225 Co1221 2.148 . S
N1225 C1222 1.301 . S
N1225 C1223 1.317 . S
N1226 C1222 1.328 . S
N1226 C1224 1.350 . S
H1227 C1222 0.930 . S
H1228 C1223 0.930 . S
C1229 O1230 1.224 . S
C1229 O1248 1.247 . S
O1230 C1229 1.224 . S
N1231 Co1221 2.128 . S
N1231 C1232 1.355 . S
N1231 C1234 1.311 . S
C1232 N1231 1.355 . S
C1232 C1233 1.363 . S
C1232 H1244 0.929 . S
C1233 C1232 1.363 . S
C1233 N1235 1.375 . S
C1233 H1251 0.931 . S
C1234 N1231 1.311 . S
C1234 N1235 1.347 . S
C1234 H1245 0.929 . S
N1235 C1233 1.375 . S
N1235 C1234 1.347 . S
C1236 C1239 1.365 . S
C1236 N1241 1.328 . S
C1236 H1242 0.929 . S
C1237 C1238 1.362 . S
C1237 C1240 1.378 . S
C1237 H1252 0.929 . S
C1238 C1237 1.362 . S
C1238 C1239 1.366 . S
C1239 C1236 1.365 . S
C1239 C1238 1.366 . S
C1239 H1253 0.930 . S
C1240 C1237 1.378 . S
C1240 N1241 1.315 . S
C1240 H1243 0.930 . S
N1241 Co1221 2.194 . S
N1241 C1236 1.328 . S
N1241 C1240 1.315 . S
H1242 C1236 0.929 . S
H1243 C1240 0.930 . S
H1244 C1232 0.929 . S
H1245 C1234 0.929 . S
O1246 Co1221 2.351 . S
O1246 C1249 1.244 . S
O1247 Co1221 2.155 . S
O1247 C1249 1.240 . S
O1248 Co1221 2.096 . S
O1248 C1229 1.247 . S
C1249 O1246 1.244 . S
C1249 O1247 1.240 . S
H1250 C1224 0.931 . S
H1251 C1233 0.931 . S
H1252 C1237 0.929 . S
H1253 C1239 0.930 . S
Co1254 N1258 2.148 . S
Co1254 N1264 2.128 . S
Co1254 N1274 2.194 . S
Co1254 O1279 2.351 . S
Co1254 O1280 2.155 . S
Co1254 O1281 2.096 . S
C1255 N1258 1.301 . S
C1255 N1259 1.328 . S
C1255 H1260 0.930 . S
C1256 C1257 1.333 . S
C1256 N1258 1.317 . S
C1256 H1261 0.930 . S
C1257 C1256 1.333 . S
C1257 N1259 1.350 . S
C1257 H1283 0.931 . S
N1258 Co1254 2.148 . S
N1258 C1255 1.301 . S
N1258 C1256 1.317 . S
N1259 C1255 1.328 . S
N1259 C1257 1.350 . S
H1260 C1255 0.930 . S
H1261 C1256 0.930 . S
C1262 O1263 1.224 . S
C1262 O1281 1.247 . S
O1263 C1262 1.224 . S
N1264 Co1254 2.128 . S
N1264 C1265 1.355 . S
N1264 C1267 1.311 . S
C1265 N1264 1.355 . S
C1265 C1266 1.363 . S
C1265 H1277 0.929 . S
C1266 C1265 1.363 . S
C1266 N1268 1.375 . S
C1266 H1284 0.931 . S
C1267 N1264 1.311 . S
C1267 N1268 1.347 . S
C1267 H1278 0.929 . S
N1268 C1266 1.375 . S
N1268 C1267 1.347 . S
C1269 C1272 1.365 . S
C1269 N1274 1.328 . S
C1269 H1275 0.929 . S
C1270 C1271 1.362 . S
C1270 C1273 1.378 . S
C1270 H1285 0.929 . S
C1271 C1270 1.362 . S
C1271 C1272 1.366 . S
C1272 C1269 1.365 . S
C1272 C1271 1.366 . S
C1272 H1286 0.930 . S
C1273 C1270 1.378 . S
C1273 N1274 1.315 . S
C1273 H1276 0.930 . S
N1274 Co1254 2.194 . S
N1274 C1269 1.328 . S
N1274 C1273 1.315 . S
H1275 C1269 0.929 . S
H1276 C1273 0.930 . S
H1277 C1265 0.929 . S
H1278 C1267 0.929 . S
O1279 Co1254 2.351 . S
O1279 C1282 1.244 . S
O1280 Co1254 2.155 . S
O1280 C1282 1.240 . S
O1281 Co1254 2.096 . S
O1281 C1262 1.247 . S
C1282 O1279 1.244 . S
C1282 O1280 1.240 . S
H1283 C1257 0.931 . S
H1284 C1266 0.931 . S
H1285 C1270 0.929 . S
H1286 C1272 0.930 . S
Co1287 N1291 2.148 . S
Co1287 N1297 2.128 . S
Co1287 N1307 2.194 . S
Co1287 O1312 2.351 . S
Co1287 O1313 2.155 . S
Co1287 O1314 2.096 . S
C1288 N1291 1.301 . S
C1288 N1292 1.328 . S
C1288 H1293 0.930 . S
C1289 C1290 1.333 . S
C1289 N1291 1.317 . S
C1289 H1294 0.930 . S
C1290 C1289 1.333 . S
C1290 N1292 1.350 . S
C1290 H1316 0.931 . S
N1291 Co1287 2.148 . S
N1291 C1288 1.301 . S
N1291 C1289 1.317 . S
N1292 C1288 1.328 . S
N1292 C1290 1.350 . S
H1293 C1288 0.930 . S
H1294 C1289 0.930 . S
C1295 O1296 1.224 . S
C1295 O1314 1.247 . S
O1296 C1295 1.224 . S
N1297 Co1287 2.128 . S
N1297 C1298 1.355 . S
N1297 C1300 1.311 . S
C1298 N1297 1.355 . S
C1298 C1299 1.363 . S
C1298 H1310 0.929 . S
C1299 C1298 1.363 . S
C1299 N1301 1.375 . S
C1299 H1317 0.931 . S
C1300 N1297 1.311 . S
C1300 N1301 1.347 . S
C1300 H1311 0.929 . S
N1301 C1299 1.375 . S
N1301 C1300 1.347 . S
C1302 C1305 1.365 . S
C1302 N1307 1.328 . S
C1302 H1308 0.929 . S
C1303 C1304 1.362 . S
C1303 C1306 1.378 . S
C1303 H1318 0.929 . S
C1304 C1303 1.362 . S
C1304 C1305 1.366 . S
C1305 C1302 1.365 . S
C1305 C1304 1.366 . S
C1305 H1319 0.930 . S
C1306 C1303 1.378 . S
C1306 N1307 1.315 . S
C1306 H1309 0.930 . S
N1307 Co1287 2.194 . S
N1307 C1302 1.328 . S
N1307 C1306 1.315 . S
H1308 C1302 0.929 . S
H1309 C1306 0.930 . S
H1310 C1298 0.929 . S
H1311 C1300 0.929 . S
O1312 Co1287 2.351 . S
O1312 C1315 1.244 . S
O1313 Co1287 2.155 . S
O1313 C1315 1.240 . S
O1314 Co1287 2.096 . S
O1314 C1295 1.247 . S
C1315 O1312 1.244 . S
C1315 O1313 1.240 . S
H1316 C1290 0.931 . S
H1317 C1299 0.931 . S
H1318 C1303 0.929 . S
H1319 C1305 0.930 . S
Co1320 N1324 2.148 . S
Co1320 N1330 2.128 . S
Co1320 N1340 2.194 . S
Co1320 O1345 2.351 . S
Co1320 O1346 2.155 . S
Co1320 O1347 2.096 . S
C1321 N1324 1.301 . S
C1321 N1325 1.328 . S
C1321 H1326 0.930 . S
C1322 C1323 1.333 . S
C1322 N1324 1.317 . S
C1322 H1327 0.930 . S
C1323 C1322 1.333 . S
C1323 N1325 1.350 . S
C1323 H1349 0.931 . S
N1324 Co1320 2.148 . S
N1324 C1321 1.301 . S
N1324 C1322 1.317 . S
N1325 C1321 1.328 . S
N1325 C1323 1.350 . S
H1326 C1321 0.930 . S
H1327 C1322 0.930 . S
C1328 O1329 1.224 . S
C1328 O1347 1.247 . S
O1329 C1328 1.224 . S
N1330 Co1320 2.128 . S
N1330 C1331 1.355 . S
N1330 C1333 1.311 . S
C1331 N1330 1.355 . S
C1331 C1332 1.363 . S
C1331 H1343 0.929 . S
C1332 C1331 1.363 . S
C1332 N1334 1.375 . S
C1332 H1350 0.931 . S
C1333 N1330 1.311 . S
C1333 N1334 1.347 . S
C1333 H1344 0.929 . S
N1334 C1332 1.375 . S
N1334 C1333 1.347 . S
C1335 C1338 1.365 . S
C1335 N1340 1.328 . S
C1335 H1341 0.929 . S
C1336 C1337 1.362 . S
C1336 C1339 1.378 . S
C1336 H1351 0.929 . S
C1337 C1336 1.362 . S
C1337 C1338 1.366 . S
C1338 C1335 1.365 . S
C1338 C1337 1.366 . S
C1338 H1352 0.930 . S
C1339 C1336 1.378 . S
C1339 N1340 1.315 . S
C1339 H1342 0.930 . S
N1340 Co1320 2.194 . S
N1340 C1335 1.328 . S
N1340 C1339 1.315 . S
H1341 C1335 0.929 . S
H1342 C1339 0.930 . S
H1343 C1331 0.929 . S
H1344 C1333 0.929 . S
O1345 Co1320 2.351 . S
O1345 C1348 1.244 . S
O1346 Co1320 2.155 . S
O1346 C1348 1.240 . S
O1347 Co1320 2.096 . S
O1347 C1328 1.247 . S
C1348 O1345 1.244 . S
C1348 O1346 1.240 . S
H1349 C1323 0.931 . S
H1350 C1332 0.931 . S
H1351 C1336 0.929 . S
H1352 C1338 0.930 . S
Co1353 N1357 2.148 . S
Co1353 N1363 2.128 . S
Co1353 N1373 2.194 . S
Co1353 O1378 2.351 . S
Co1353 O1379 2.155 . S
Co1353 O1380 2.096 . S
C1354 N1357 1.301 . S
C1354 N1358 1.328 . S
C1354 H1359 0.930 . S
C1355 C1356 1.333 . S
C1355 N1357 1.317 . S
C1355 H1360 0.930 . S
C1356 C1355 1.333 . S
C1356 N1358 1.350 . S
C1356 H1382 0.931 . S
N1357 Co1353 2.148 . S
N1357 C1354 1.301 . S
N1357 C1355 1.317 . S
N1358 C1354 1.328 . S
N1358 C1356 1.350 . S
H1359 C1354 0.930 . S
H1360 C1355 0.930 . S
C1361 O1362 1.224 . S
C1361 O1380 1.247 . S
O1362 C1361 1.224 . S
N1363 Co1353 2.128 . S
N1363 C1364 1.355 . S
N1363 C1366 1.311 . S
C1364 N1363 1.355 . S
C1364 C1365 1.363 . S
C1364 H1376 0.929 . S
C1365 C1364 1.363 . S
C1365 N1367 1.375 . S
C1365 H1383 0.931 . S
C1366 N1363 1.311 . S
C1366 N1367 1.347 . S
C1366 H1377 0.929 . S
N1367 C1365 1.375 . S
N1367 C1366 1.347 . S
C1368 C1371 1.365 . S
C1368 N1373 1.328 . S
C1368 H1374 0.929 . S
C1369 C1370 1.362 . S
C1369 C1372 1.378 . S
C1369 H1384 0.929 . S
C1370 C1369 1.362 . S
C1370 C1371 1.366 . S
C1371 C1368 1.365 . S
C1371 C1370 1.366 . S
C1371 H1385 0.930 . S
C1372 C1369 1.378 . S
C1372 N1373 1.315 . S
C1372 H1375 0.930 . S
N1373 Co1353 2.194 . S
N1373 C1368 1.328 . S
N1373 C1372 1.315 . S
H1374 C1368 0.929 . S
H1375 C1372 0.930 . S
H1376 C1364 0.929 . S
H1377 C1366 0.929 . S
O1378 Co1353 2.351 . S
O1378 C1381 1.244 . S
O1379 Co1353 2.155 . S
O1379 C1381 1.240 . S
O1380 Co1353 2.096 . S
O1380 C1361 1.247 . S
C1381 O1378 1.244 . S
C1381 O1379 1.240 . S
H1382 C1356 0.931 . S
H1383 C1365 0.931 . S
H1384 C1369 0.929 . S
H1385 C1371 0.930 . S
Co1386 N1390 2.148 . S
Co1386 N1396 2.128 . S
Co1386 N1406 2.194 . S
Co1386 O1411 2.351 . S
Co1386 O1412 2.155 . S
Co1386 O1413 2.096 . S
C1387 N1390 1.301 . S
C1387 N1391 1.328 . S
C1387 H1392 0.930 . S
C1388 C1389 1.333 . S
C1388 N1390 1.317 . S
C1388 H1393 0.930 . S
C1389 C1388 1.333 . S
C1389 N1391 1.350 . S
C1389 H1415 0.931 . S
N1390 Co1386 2.148 . S
N1390 C1387 1.301 . S
N1390 C1388 1.317 . S
N1391 C1387 1.328 . S
N1391 C1389 1.350 . S
H1392 C1387 0.930 . S
H1393 C1388 0.930 . S
C1394 O1395 1.224 . S
C1394 O1413 1.247 . S
O1395 C1394 1.224 . S
N1396 Co1386 2.128 . S
N1396 C1397 1.355 . S
N1396 C1399 1.311 . S
C1397 N1396 1.355 . S
C1397 C1398 1.363 . S
C1397 H1409 0.929 . S
C1398 C1397 1.363 . S
C1398 N1400 1.375 . S
C1398 H1416 0.931 . S
C1399 N1396 1.311 . S
C1399 N1400 1.347 . S
C1399 H1410 0.929 . S
N1400 C1398 1.375 . S
N1400 C1399 1.347 . S
C1401 C1404 1.365 . S
C1401 N1406 1.328 . S
C1401 H1407 0.929 . S
C1402 C1403 1.362 . S
C1402 C1405 1.378 . S
C1402 H1417 0.929 . S
C1403 C1402 1.362 . S
C1403 C1404 1.366 . S
C1404 C1401 1.365 . S
C1404 C1403 1.366 . S
C1404 H1418 0.930 . S
C1405 C1402 1.378 . S
C1405 N1406 1.315 . S
C1405 H1408 0.930 . S
N1406 Co1386 2.194 . S
N1406 C1401 1.328 . S
N1406 C1405 1.315 . S
H1407 C1401 0.929 . S
H1408 C1405 0.930 . S
H1409 C1397 0.929 . S
H1410 C1399 0.929 . S
O1411 Co1386 2.351 . S
O1411 C1414 1.244 . S
O1412 Co1386 2.155 . S
O1412 C1414 1.240 . S
O1413 Co1386 2.096 . S
O1413 C1394 1.247 . S
C1414 O1411 1.244 . S
C1414 O1412 1.240 . S
H1415 C1389 0.931 . S
H1416 C1398 0.931 . S
H1417 C1402 0.929 . S
H1418 C1404 0.930 . S
Co1419 N1423 2.148 . S
Co1419 N1429 2.128 . S
Co1419 N1439 2.194 . S
Co1419 O1444 2.351 . S
Co1419 O1445 2.155 . S
Co1419 O1446 2.096 . S
C1420 N1423 1.301 . S
C1420 N1424 1.328 . S
C1420 H1425 0.930 . S
C1421 C1422 1.333 . S
C1421 N1423 1.317 . S
C1421 H1426 0.930 . S
C1422 C1421 1.333 . S
C1422 N1424 1.350 . S
C1422 H1448 0.931 . S
N1423 Co1419 2.148 . S
N1423 C1420 1.301 . S
N1423 C1421 1.317 . S
N1424 C1420 1.328 . S
N1424 C1422 1.350 . S
H1425 C1420 0.930 . S
H1426 C1421 0.930 . S
C1427 O1428 1.224 . S
C1427 O1446 1.247 . S
O1428 C1427 1.224 . S
N1429 Co1419 2.128 . S
N1429 C1430 1.355 . S
N1429 C1432 1.311 . S
C1430 N1429 1.355 . S
C1430 C1431 1.363 . S
C1430 H1442 0.929 . S
C1431 C1430 1.363 . S
C1431 N1433 1.375 . S
C1431 H1449 0.931 . S
C1432 N1429 1.311 . S
C1432 N1433 1.347 . S
C1432 H1443 0.929 . S
N1433 C1431 1.375 . S
N1433 C1432 1.347 . S
C1434 C1437 1.365 . S
C1434 N1439 1.328 . S
C1434 H1440 0.929 . S
C1435 C1436 1.362 . S
C1435 C1438 1.378 . S
C1435 H1450 0.929 . S
C1436 C1435 1.362 . S
C1436 C1437 1.366 . S
C1437 C1434 1.365 . S
C1437 C1436 1.366 . S
C1437 H1451 0.930 . S
C1438 C1435 1.378 . S
C1438 N1439 1.315 . S
C1438 H1441 0.930 . S
N1439 Co1419 2.194 . S
N1439 C1434 1.328 . S
N1439 C1438 1.315 . S
H1440 C1434 0.929 . S
H1441 C1438 0.930 . S
H1442 C1430 0.929 . S
H1443 C1432 0.929 . S
O1444 Co1419 2.351 . S
O1444 C1447 1.244 . S
O1445 Co1419 2.155 . S
O1445 C1447 1.240 . S
O1446 Co1419 2.096 . S
O1446 C1427 1.247 . S
C1447 O1444 1.244 . S
C1447 O1445 1.240 . S
H1448 C1422 0.931 . S
H1449 C1431 0.931 . S
H1450 C1435 0.929 . S
H1451 C1437 0.930 . S
Co1452 N1456 2.148 . S
Co1452 N1462 2.128 . S
Co1452 N1472 2.194 . S
Co1452 O1477 2.351 . S
Co1452 O1478 2.155 . S
Co1452 O1479 2.096 . S
C1453 N1456 1.301 . S
C1453 N1457 1.328 . S
C1453 H1458 0.930 . S
C1454 C1455 1.333 . S
C1454 N1456 1.317 . S
C1454 H1459 0.930 . S
C1455 C1454 1.333 . S
C1455 N1457 1.350 . S
C1455 H1481 0.931 . S
N1456 Co1452 2.148 . S
N1456 C1453 1.301 . S
N1456 C1454 1.317 . S
N1457 C1453 1.328 . S
N1457 C1455 1.350 . S
H1458 C1453 0.930 . S
H1459 C1454 0.930 . S
C1460 O1461 1.224 . S
C1460 O1479 1.247 . S
O1461 C1460 1.224 . S
N1462 Co1452 2.128 . S
N1462 C1463 1.355 . S
N1462 C1465 1.311 . S
C1463 N1462 1.355 . S
C1463 C1464 1.363 . S
C1463 H1475 0.929 . S
C1464 C1463 1.363 . S
C1464 N1466 1.375 . S
C1464 H1482 0.931 . S
C1465 N1462 1.311 . S
C1465 N1466 1.347 . S
C1465 H1476 0.929 . S
N1466 C1464 1.375 . S
N1466 C1465 1.347 . S
C1467 C1470 1.365 . S
C1467 N1472 1.328 . S
C1467 H1473 0.929 . S
C1468 C1469 1.362 . S
C1468 C1471 1.378 . S
C1468 H1483 0.929 . S
C1469 C1468 1.362 . S
C1469 C1470 1.366 . S
C1470 C1467 1.365 . S
C1470 C1469 1.366 . S
C1470 H1484 0.930 . S
C1471 C1468 1.378 . S
C1471 N1472 1.315 . S
C1471 H1474 0.930 . S
N1472 Co1452 2.194 . S
N1472 C1467 1.328 . S
N1472 C1471 1.315 . S
H1473 C1467 0.929 . S
H1474 C1471 0.930 . S
H1475 C1463 0.929 . S
H1476 C1465 0.929 . S
O1477 Co1452 2.351 . S
O1477 C1480 1.244 . S
O1478 Co1452 2.155 . S
O1478 C1480 1.240 . S
O1479 Co1452 2.096 . S
O1479 C1460 1.247 . S
C1480 O1477 1.244 . S
C1480 O1478 1.240 . S
H1481 C1455 0.931 . S
H1482 C1464 0.931 . S
H1483 C1468 0.929 . S
H1484 C1470 0.930 . S
Co1485 N1489 2.148 . S
Co1485 N1495 2.128 . S
Co1485 N1505 2.194 . S
Co1485 O1510 2.351 . S
Co1485 O1511 2.155 . S
Co1485 O1512 2.096 . S
C1486 N1489 1.301 . S
C1486 N1490 1.328 . S
C1486 H1491 0.930 . S
C1487 C1488 1.333 . S
C1487 N1489 1.317 . S
C1487 H1492 0.930 . S
C1488 C1487 1.333 . S
C1488 N1490 1.350 . S
C1488 H1514 0.931 . S
N1489 Co1485 2.148 . S
N1489 C1486 1.301 . S
N1489 C1487 1.317 . S
N1490 C1486 1.328 . S
N1490 C1488 1.350 . S
H1491 C1486 0.930 . S
H1492 C1487 0.930 . S
C1493 O1494 1.224 . S
C1493 O1512 1.247 . S
O1494 C1493 1.224 . S
N1495 Co1485 2.128 . S
N1495 C1496 1.355 . S
N1495 C1498 1.311 . S
C1496 N1495 1.355 . S
C1496 C1497 1.363 . S
C1496 H1508 0.929 . S
C1497 C1496 1.363 . S
C1497 N1499 1.375 . S
C1497 H1515 0.931 . S
C1498 N1495 1.311 . S
C1498 N1499 1.347 . S
C1498 H1509 0.929 . S
N1499 C1497 1.375 . S
N1499 C1498 1.347 . S
C1500 C1503 1.365 . S
C1500 N1505 1.328 . S
C1500 H1506 0.929 . S
C1501 C1502 1.362 . S
C1501 C1504 1.378 . S
C1501 H1516 0.929 . S
C1502 C1501 1.362 . S
C1502 C1503 1.366 . S
C1503 C1500 1.365 . S
C1503 C1502 1.366 . S
C1503 H1517 0.930 . S
C1504 C1501 1.378 . S
C1504 N1505 1.315 . S
C1504 H1507 0.930 . S
N1505 Co1485 2.194 . S
N1505 C1500 1.328 . S
N1505 C1504 1.315 . S
H1506 C1500 0.929 . S
H1507 C1504 0.930 . S
H1508 C1496 0.929 . S
H1509 C1498 0.929 . S
O1510 Co1485 2.351 . S
O1510 C1513 1.244 . S
O1511 Co1485 2.155 . S
O1511 C1513 1.240 . S
O1512 Co1485 2.096 . S
O1512 C1493 1.247 . S
C1513 O1510 1.244 . S
C1513 O1511 1.240 . S
H1514 C1488 0.931 . S
H1515 C1497 0.931 . S
H1516 C1501 0.929 . S
H1517 C1503 0.930 . S
Co1518 N1522 2.148 . S
Co1518 N1528 2.128 . S
Co1518 N1538 2.194 . S
Co1518 O1543 2.351 . S
Co1518 O1544 2.155 . S
Co1518 O1545 2.096 . S
C1519 N1522 1.301 . S
C1519 N1523 1.328 . S
C1519 H1524 0.930 . S
C1520 C1521 1.333 . S
C1520 N1522 1.317 . S
C1520 H1525 0.930 . S
C1521 C1520 1.333 . S
C1521 N1523 1.350 . S
C1521 H1547 0.931 . S
N1522 Co1518 2.148 . S
N1522 C1519 1.301 . S
N1522 C1520 1.317 . S
N1523 C1519 1.328 . S
N1523 C1521 1.350 . S
H1524 C1519 0.930 . S
H1525 C1520 0.930 . S
C1526 O1527 1.224 . S
C1526 O1545 1.247 . S
O1527 C1526 1.224 . S
N1528 Co1518 2.128 . S
N1528 C1529 1.355 . S
N1528 C1531 1.311 . S
C1529 N1528 1.355 . S
C1529 C1530 1.363 . S
C1529 H1541 0.929 . S
C1530 C1529 1.363 . S
C1530 N1532 1.375 . S
C1530 H1548 0.931 . S
C1531 N1528 1.311 . S
C1531 N1532 1.347 . S
C1531 H1542 0.929 . S
N1532 C1530 1.375 . S
N1532 C1531 1.347 . S
C1533 C1536 1.365 . S
C1533 N1538 1.328 . S
C1533 H1539 0.929 . S
C1534 C1535 1.362 . S
C1534 C1537 1.378 . S
C1534 H1549 0.929 . S
C1535 C1534 1.362 . S
C1535 C1536 1.366 . S
C1536 C1533 1.365 . S
C1536 C1535 1.366 . S
C1536 H1550 0.930 . S
C1537 C1534 1.378 . S
C1537 N1538 1.315 . S
C1537 H1540 0.930 . S
N1538 Co1518 2.194 . S
N1538 C1533 1.328 . S
N1538 C1537 1.315 . S
H1539 C1533 0.929 . S
H1540 C1537 0.930 . S
H1541 C1529 0.929 . S
H1542 C1531 0.929 . S
O1543 Co1518 2.351 . S
O1543 C1546 1.244 . S
O1544 Co1518 2.155 . S
O1544 C1546 1.240 . S
O1545 Co1518 2.096 . S
O1545 C1526 1.247 . S
C1546 O1543 1.244 . S
C1546 O1544 1.240 . S
H1547 C1521 0.931 . S
H1548 C1530 0.931 . S
H1549 C1534 0.929 . S
H1550 C1536 0.930 . S
Co1551 N1555 2.148 . S
Co1551 N1561 2.128 . S
Co1551 N1571 2.194 . S
Co1551 O1576 2.351 . S
Co1551 O1577 2.155 . S
Co1551 O1578 2.096 . S
C1552 N1555 1.301 . S
C1552 N1556 1.328 . S
C1552 H1557 0.930 . S
C1553 C1554 1.333 . S
C1553 N1555 1.317 . S
C1553 H1558 0.930 . S
C1554 C1553 1.333 . S
C1554 N1556 1.350 . S
C1554 H1580 0.931 . S
N1555 Co1551 2.148 . S
N1555 C1552 1.301 . S
N1555 C1553 1.317 . S
N1556 C1552 1.328 . S
N1556 C1554 1.350 . S
H1557 C1552 0.930 . S
H1558 C1553 0.930 . S
C1559 O1560 1.224 . S
C1559 O1578 1.247 . S
O1560 C1559 1.224 . S
N1561 Co1551 2.128 . S
N1561 C1562 1.355 . S
N1561 C1564 1.311 . S
C1562 N1561 1.355 . S
C1562 C1563 1.363 . S
C1562 H1574 0.929 . S
C1563 C1562 1.363 . S
C1563 N1565 1.375 . S
C1563 H1581 0.931 . S
C1564 N1561 1.311 . S
C1564 N1565 1.347 . S
C1564 H1575 0.929 . S
N1565 C1563 1.375 . S
N1565 C1564 1.347 . S
C1566 C1569 1.365 . S
C1566 N1571 1.328 . S
C1566 H1572 0.929 . S
C1567 C1568 1.362 . S
C1567 C1570 1.378 . S
C1567 H1582 0.929 . S
C1568 C1567 1.362 . S
C1568 C1569 1.366 . S
C1569 C1566 1.365 . S
C1569 C1568 1.366 . S
C1569 H1583 0.930 . S
C1570 C1567 1.378 . S
C1570 N1571 1.315 . S
C1570 H1573 0.930 . S
N1571 Co1551 2.194 . S
N1571 C1566 1.328 . S
N1571 C1570 1.315 . S
H1572 C1566 0.929 . S
H1573 C1570 0.930 . S
H1574 C1562 0.929 . S
H1575 C1564 0.929 . S
O1576 Co1551 2.351 . S
O1576 C1579 1.244 . S
O1577 Co1551 2.155 . S
O1577 C1579 1.240 . S
O1578 Co1551 2.096 . S
O1578 C1559 1.247 . S
C1579 O1576 1.244 . S
C1579 O1577 1.240 . S
H1580 C1554 0.931 . S
H1581 C1563 0.931 . S
H1582 C1567 0.929 . S
H1583 C1569 0.930 . S
C1584 C1585 1.387 . S
C1584 H1588 0.950 . S
C1584 C1593 1.390 1_556 S
C1585 C1584 1.387 . S
C1585 C1587 1.387 1_556 S
H1586 C1593 0.950 . S
C1587 C1585 1.387 1_554 S
C1587 C1589 1.390 . S
C1587 H1591 0.950 . S
H1588 C1584 0.950 . S
C1589 C1587 1.390 . S
C1589 C1590 1.387 . S
C1589 H1592 0.950 . S
C1590 C1589 1.387 . S
C1590 C1593 1.387 . S
H1591 C1587 0.950 . S
H1592 C1589 0.950 . S
C1593 C1584 1.390 1_554 S
C1593 H1586 0.950 . S
C1593 C1590 1.387 . S
C1594 C1595 1.387 . S
C1594 H1598 0.950 . S
C1594 C1603 1.390 . S
C1595 C1594 1.387 . S
C1595 C1597 1.387 . S
H1596 C1603 0.950 . S
C1597 C1595 1.387 . S
C1597 C1599 1.390 . S
C1597 H1601 0.950 . S
H1598 C1594 0.950 . S
C1599 C1597 1.390 . S
C1599 C1600 1.387 . S
C1599 H1602 0.950 . S
C1600 C1599 1.387 . S
C1600 C1603 1.387 . S
H1601 C1597 0.950 . S
H1602 C1599 0.950 . S
C1603 C1594 1.390 . S
C1603 H1596 0.950 . S
C1603 C1600 1.387 . S
C1604 C1605 1.387 . S
C1604 H1608 0.950 . S
C1604 C1613 1.390 . S
C1605 C1604 1.387 . S
C1605 C1607 1.387 . S
H1606 C1613 0.950 . S
C1607 C1605 1.387 . S
C1607 C1609 1.390 1_554 S
C1607 H1611 0.950 . S
H1608 C1604 0.950 . S
C1609 C1607 1.390 1_556 S
C1609 C1610 1.387 . S
C1609 H1612 0.950 . S
C1610 C1609 1.387 . S
C1610 C1613 1.387 1_556 S
H1611 C1607 0.950 . S
H1612 C1609 0.950 . S
C1613 C1604 1.390 . S
C1613 H1606 0.950 . S
C1613 C1610 1.387 1_554 S
C1614 C1615 1.387 . S
C1614 H1618 0.950 . S
C1614 C1623 1.390 1_556 S
C1615 C1614 1.387 . S
C1615 C1617 1.387 . S
H1616 C1623 0.950 . S
C1617 C1615 1.387 . S
C1617 C1619 1.390 1_556 S
C1617 H1621 0.950 . S
H1618 C1614 0.950 . S
C1619 C1617 1.390 1_554 S
C1619 C1620 1.387 . S
C1619 H1622 0.950 . S
C1620 C1619 1.387 . S
C1620 C1623 1.387 . S
H1621 C1617 0.950 . S
H1622 C1619 0.950 . S
C1623 C1614 1.390 1_554 S
C1623 H1616 0.950 . S
C1623 C1620 1.387 . S
C1624 C1625 1.387 . S
C1624 H1628 0.950 . S
C1624 C1633 1.390 1_554 S
C1625 C1624 1.387 . S
C1625 C1627 1.387 1_554 S
H1626 C1633 0.950 . S
C1627 C1625 1.387 1_556 S
C1627 C1629 1.390 . S
C1627 H1631 0.950 . S
H1628 C1624 0.950 . S
C1629 C1627 1.390 . S
C1629 C1630 1.387 . S
C1629 H1632 0.950 . S
C1630 C1629 1.387 . S
C1630 C1633 1.387 . S
H1631 C1627 0.950 . S
H1632 C1629 0.950 . S
C1633 C1624 1.390 1_556 S
C1633 H1626 0.950 . S
C1633 C1630 1.387 . S
C1634 C1635 1.387 . S
C1634 H1638 0.950 . S
C1634 C1643 1.390 . S
C1635 C1634 1.387 . S
C1635 C1637 1.387 . S
H1636 C1643 0.950 . S
C1637 C1635 1.387 . S
C1637 C1639 1.390 . S
C1637 H1641 0.950 . S
H1638 C1634 0.950 . S
C1639 C1637 1.390 . S
C1639 C1640 1.387 1_556 S
C1639 H1642 0.950 1_556 S
C1640 C1639 1.387 1_554 S
C1640 C1643 1.387 1_554 S
H1641 C1637 0.950 . S
H1642 C1639 0.950 1_554 S
C1643 C1634 1.390 . S
C1643 H1636 0.950 . S
C1643 C1640 1.387 1_556 S
C1644 C1645 1.387 . S
C1644 H1648 0.950 . S
C1644 C1653 1.390 1_554 S
C1645 C1644 1.387 . S
C1645 C1647 1.387 . S
H1646 C1653 0.950 . S
C1647 C1645 1.387 . S
C1647 C1649 1.390 1_554 S
C1647 H1651 0.950 . S
H1648 C1644 0.950 . S
C1649 C1647 1.390 1_556 S
C1649 C1650 1.387 . S
C1649 H1652 0.950 . S
C1650 C1649 1.387 . S
C1650 C1653 1.387 . S
H1651 C1647 0.950 . S
H1652 C1649 0.950 . S
C1653 C1644 1.390 1_556 S
C1653 H1646 0.950 . S
C1653 C1650 1.387 . S
C1654 C1655 1.387 . S
C1654 H1658 0.950 . S
C1654 C1663 1.390 . S
C1655 C1654 1.387 . S
C1655 C1657 1.387 . S
H1656 C1663 0.950 . S
C1657 C1655 1.387 . S
C1657 C1659 1.390 . S
C1657 H1661 0.950 . S
H1658 C1654 0.950 . S
C1659 C1657 1.390 . S
C1659 C1660 1.387 . S
C1659 H1662 0.950 . S
C1660 C1659 1.387 . S
C1660 C1663 1.387 . S
H1661 C1657 0.950 . S
H1662 C1659 0.950 . S
C1663 C1654 1.390 . S
C1663 H1656 0.950 . S
C1663 C1660 1.387 . S
C1664 C1665 1.387 . S
C1664 H1668 0.950 . S
C1664 C1673 1.390 . S
C1665 C1664 1.387 . S
C1665 C1667 1.387 . S
H1666 C1673 0.950 . S
C1667 C1665 1.387 . S
C1667 C1669 1.390 . S
C1667 H1671 0.950 . S
H1668 C1664 0.950 . S
C1669 C1667 1.390 . S
C1669 C1670 1.387 . S
C1669 H1672 0.950 . S
C1670 C1669 1.387 . S
C1670 C1673 1.387 . S
H1671 C1667 0.950 . S
H1672 C1669 0.950 . S
C1673 C1664 1.390 . S
C1673 H1666 0.950 . S
C1673 C1670 1.387 . S
C1674 C1675 1.387 . S
C1674 H1678 0.950 . S
C1674 C1683 1.390 1_565 S
C1675 C1674 1.387 . S
C1675 C1677 1.387 1_565 S
H1676 C1683 0.950 . S
C1677 C1675 1.387 1_545 S
C1677 C1679 1.390 . S
C1677 H1681 0.950 . S
H1678 C1674 0.950 . S
C1679 C1677 1.390 . S
C1679 C1680 1.387 . S
C1679 H1682 0.950 . S
C1680 C1679 1.387 . S
C1680 C1683 1.387 . S
H1681 C1677 0.950 . S
H1682 C1679 0.950 . S
C1683 C1674 1.390 1_545 S
C1683 H1676 0.950 . S
C1683 C1680 1.387 . S
C1684 C1685 1.388 . S
C1684 H1688 0.950 . S
C1684 C1693 1.390 1_455 S
C1685 C1684 1.388 . S
C1685 C1687 1.387 1_455 S
H1686 C1693 0.950 . S
C1687 C1685 1.387 1_655 S
C1687 C1689 1.390 . S
C1687 H1691 0.950 . S
H1688 C1684 0.950 . S
C1689 C1687 1.390 . S
C1689 C1690 1.387 . S
C1689 H1692 0.950 . S
C1690 C1689 1.387 . S
C1690 C1693 1.387 . S
H1691 C1687 0.950 . S
H1692 C1689 0.950 . S
C1693 C1684 1.390 1_655 S
C1693 H1686 0.950 . S
C1693 C1690 1.387 . S
C1694 C1695 1.387 . S
C1694 H1698 0.950 . S
C1694 C1703 1.390 1_565 S
C1695 C1694 1.387 . S
C1695 C1697 1.387 . S
H1696 C1703 0.950 . S
C1697 C1695 1.387 . S
C1697 C1699 1.390 . S
C1697 H1701 0.950 . S
H1698 C1694 0.950 . S
C1699 C1697 1.390 . S
C1699 C1700 1.387 1_565 S
C1699 H1702 0.950 . S
C1700 C1699 1.387 1_545 S
C1700 C1703 1.387 . S
H1701 C1697 0.950 . S
H1702 C1699 0.950 . S
C1703 C1694 1.390 1_545 S
C1703 H1696 0.950 . S
C1703 C1700 1.387 . S
C1704 C1705 1.387 1_455 S
C1704 H1708 0.933 1_455 S
C1704 C1713 1.390 . S
C1705 C1704 1.387 1_655 S
C1705 C1707 1.387 1_655 S
H1706 C1713 0.950 . S
C1707 C1705 1.387 1_455 S
C1707 C1709 1.390 . S
C1707 H1711 0.950 . S
H1708 C1704 0.933 1_655 S
C1709 C1707 1.390 . S
C1709 C1710 1.387 . S
C1709 H1712 0.950 . S
C1710 C1709 1.387 . S
C1710 C1713 1.387 . S
H1711 C1707 0.950 . S
H1712 C1709 0.950 . S
C1713 C1704 1.390 . S
C1713 H1706 0.950 . S
C1713 C1710 1.387 . S
C1714 C1715 1.387 . S
C1714 H1718 0.950 . S
C1714 C1723 1.390 . S
C1715 C1714 1.387 . S
C1715 C1717 1.387 . S
H1716 C1723 0.950 . S
C1717 C1715 1.387 . S
C1717 C1719 1.390 . S
C1717 H1721 0.950 . S
H1718 C1714 0.950 . S
C1719 C1717 1.390 . S
C1719 C1720 1.387 . S
C1719 H1722 0.950 . S
C1720 C1719 1.387 . S
C1720 C1723 1.387 . S
H1721 C1717 0.950 . S
H1722 C1719 0.950 . S
C1723 C1714 1.390 . S
C1723 H1716 0.950 . S
C1723 C1720 1.387 . S
C1724 C1725 1.387 1_655 S
C1724 H1728 0.950 . S
C1724 C1733 1.390 . S
C1725 C1724 1.387 1_455 S
C1725 C1727 1.387 . S
H1726 C1733 0.950 . S
C1727 C1725 1.387 . S
C1727 C1729 1.390 1_455 S
C1727 H1731 0.950 . S
H1728 C1724 0.950 . S
C1729 C1727 1.390 1_655 S
C1729 C1730 1.387 . S
C1729 H1732 0.950 . S
C1730 C1729 1.387 . S
C1730 C1733 1.387 . S
H1731 C1727 0.950 . S
H1732 C1729 0.950 . S
C1733 C1724 1.390 . S
C1733 H1726 0.950 . S
C1733 C1730 1.387 . S
C1734 C1735 1.387 . S
C1734 H1738 0.950 . S
C1734 C1743 1.390 1_545 S
C1735 C1734 1.387 . S
C1735 C1737 1.387 1_545 S
H1736 C1743 0.950 . S
C1737 C1735 1.387 1_565 S
C1737 C1739 1.390 . S
C1737 H1741 0.950 . S
H1738 C1734 0.950 . S
C1739 C1737 1.390 . S
C1739 C1740 1.387 . S
C1739 H1742 0.950 . S
C1740 C1739 1.387 . S
C1740 C1743 1.387 . S
H1741 C1737 0.950 . S
H1742 C1739 0.950 . S
C1743 C1734 1.390 1_565 S
C1743 H1736 0.950 . S
C1743 C1740 1.387 . S
C1744 C1745 1.387 . S
C1744 H1748 0.950 . S
C1744 C1753 1.390 . S
C1745 C1744 1.387 . S
C1745 C1747 1.387 . S
H1746 C1753 0.950 . S
C1747 C1745 1.387 . S
C1747 C1749 1.390 1_545 S
C1747 H1751 0.950 . S
H1748 C1744 0.950 . S
C1749 C1747 1.390 1_565 S
C1749 C1750 1.387 . S
C1749 H1752 0.950 . S
C1750 C1749 1.387 . S
C1750 C1753 1.387 1_565 S
H1751 C1747 0.950 . S
H1752 C1749 0.950 . S
C1753 C1744 1.390 . S
C1753 H1746 0.950 . S
C1753 C1750 1.387 1_545 S
C1754 C1755 1.387 . S
C1754 H1758 0.950 . S
C1754 C1763 1.390 1_545 S
C1755 C1754 1.387 . S
C1755 C1757 1.387 1_545 S
H1756 C1763 0.950 . S
C1757 C1755 1.387 1_565 S
C1757 C1759 1.390 . S
C1757 H1761 0.950 1_565 S
H1758 C1754 0.950 . S
C1759 C1757 1.390 . S
C1759 C1760 1.387 . S
C1759 H1762 0.950 . S
C1760 C1759 1.387 . S
C1760 C1763 1.387 . S
H1761 C1757 0.950 1_545 S
H1762 C1759 0.950 . S
C1763 C1754 1.390 1_565 S
C1763 H1756 0.950 . S
C1763 C1760 1.387 . S
C1764 C1765 1.387 . S
C1764 H1768 0.950 . S
C1764 C1773 1.390 1_455 S
C1765 C1764 1.387 . S
C1765 C1767 1.387 . S
H1766 C1773 0.950 . S
C1767 C1765 1.387 . S
C1767 C1769 1.390 1_455 S
C1767 H1771 0.950 . S
H1768 C1764 0.950 . S
C1769 C1767 1.390 1_655 S
C1769 C1770 1.387 . S
C1769 H1772 0.950 . S
C1770 C1769 1.387 . S
C1770 C1773 1.387 . S
H1771 C1767 0.950 . S
H1772 C1769 0.950 . S
C1773 C1764 1.390 1_655 S
C1773 H1766 0.950 . S
C1773 C1770 1.387 . S
C1774 C1775 1.387 . S
C1774 H1778 0.950 . S
C1774 C1783 1.390 1_565 S
C1775 C1774 1.387 . S
C1775 C1777 1.387 1_565 S
H1776 C1783 0.950 . S
C1777 C1775 1.387 1_545 S
C1777 C1779 1.390 . S
C1777 H1781 0.950 . S
H1778 C1774 0.950 . S
C1779 C1777 1.390 . S
C1779 C1780 1.387 . S
C1779 H1782 0.950 . S
C1780 C1779 1.387 . S
C1780 C1783 1.387 . S
H1781 C1777 0.950 . S
H1782 C1779 0.950 . S
C1783 C1774 1.390 1_545 S
C1783 H1776 0.950 . S
C1783 C1780 1.387 . S
C1784 C1785 1.387 1_655 S
C1784 H1788 0.950 . S
C1784 C1793 1.390 . S
C1785 C1784 1.387 1_455 S
C1785 C1787 1.387 . S
H1786 C1793 0.950 . S
C1787 C1785 1.387 . S
C1787 C1789 1.390 1_455 S
C1787 H1791 0.950 . S
H1788 C1784 0.950 . S
C1789 C1787 1.390 1_655 S
C1789 C1790 1.387 . S
C1789 H1792 0.950 . S
C1790 C1789 1.387 . S
C1790 C1793 1.387 . S
H1791 C1787 0.950 . S
H1792 C1789 0.950 . S
C1793 C1784 1.390 . S
C1793 H1786 0.950 . S
C1793 C1790 1.387 . S
C1794 C1795 1.387 . S
C1794 H1798 0.950 . S
C1794 C1803 1.390 1_565 S
C1795 C1794 1.387 . S
C1795 C1797 1.387 . S
H1796 C1803 0.950 . S
C1797 C1795 1.387 . S
C1797 C1799 1.390 . S
C1797 H1801 0.950 . S
H1798 C1794 0.950 . S
C1799 C1797 1.390 . S
C1799 C1800 1.387 1_565 S
C1799 H1802 0.950 . S
C1800 C1799 1.387 1_545 S
C1800 C1803 1.387 . S
H1801 C1797 0.950 . S
H1802 C1799 0.950 . S
C1803 C1794 1.390 1_545 S
C1803 H1796 0.950 . S
C1803 C1800 1.387 . S
C1804 C1805 1.387 . S
C1804 H1808 0.950 . S
C1804 C1813 1.390 . S
C1805 C1804 1.387 . S
C1805 C1807 1.387 . S
H1806 C1813 0.950 . S
C1807 C1805 1.387 . S
C1807 C1809 1.390 . S
C1807 H1811 0.950 . S
H1808 C1804 0.950 . S
C1809 C1807 1.390 . S
C1809 C1810 1.387 . S
C1809 H1812 0.950 . S
C1810 C1809 1.387 . S
C1810 C1813 1.387 . S
H1811 C1807 0.950 . S
H1812 C1809 0.950 . S
C1813 C1804 1.390 . S
C1813 H1806 0.950 . S
C1813 C1810 1.387 . S
C1814 C1815 1.387 1_655 S
C1814 H1818 0.950 1_655 S
C1814 C1823 1.390 . S
C1815 C1814 1.387 1_455 S
C1815 C1817 1.387 1_455 S
H1816 C1823 0.950 . S
C1817 C1815 1.387 1_655 S
C1817 C1819 1.390 . S
C1817 H1821 0.950 1_655 S
H1818 C1814 0.950 1_455 S
C1819 C1817 1.390 . S
C1819 C1820 1.387 . S
C1819 H1822 0.950 . S
C1820 C1819 1.387 . S
C1820 C1823 1.387 . S
H1821 C1817 0.950 1_455 S
H1822 C1819 0.950 . S
C1823 C1814 1.390 . S
C1823 H1816 0.950 . S
C1823 C1820 1.387 . S
C1824 C1825 1.387 . S
C1824 H1828 0.950 . S
C1824 C1833 1.390 . S
C1825 C1824 1.387 . S
C1825 C1827 1.387 . S
H1826 C1833 0.950 . S
C1827 C1825 1.387 . S
C1827 C1829 1.390 . S
C1827 H1831 0.950 . S
H1828 C1824 0.950 . S
C1829 C1827 1.390 . S
C1829 C1830 1.387 . S
C1829 H1832 0.950 . S
C1830 C1829 1.387 . S
C1830 C1833 1.387 . S
H1831 C1827 0.950 . S
H1832 C1829 0.950 . S
C1833 C1824 1.390 . S
C1833 H1826 0.950 . S
C1833 C1830 1.387 . S
C1834 C1835 1.387 . S
C1834 H1838 0.950 . S
C1834 C1843 1.390 . S
C1835 C1834 1.387 . S
C1835 C1837 1.387 . S
H1836 C1843 0.950 . S
C1837 C1835 1.387 . S
C1837 C1839 1.390 . S
C1837 H1841 0.950 . S
H1838 C1834 0.950 . S
C1839 C1837 1.390 . S
C1839 C1840 1.387 . S
C1839 H1842 0.950 . S
C1840 C1839 1.387 . S
C1840 C1843 1.387 . S
H1841 C1837 0.950 . S
H1842 C1839 0.950 . S
C1843 C1834 1.390 . S
C1843 H1836 0.950 . S
C1843 C1840 1.387 . S
C1844 C1845 1.387 . S
C1844 H1848 0.950 . S
C1844 C1853 1.390 . S
C1845 C1844 1.387 . S
C1845 C1847 1.387 . S
H1846 C1853 0.950 . S
C1847 C1845 1.387 . S
C1847 C1849 1.390 . S
C1847 H1851 0.950 . S
H1848 C1844 0.950 . S
C1849 C1847 1.390 . S
C1849 C1850 1.387 . S
C1849 H1852 0.950 . S
C1850 C1849 1.387 . S
C1850 C1853 1.387 . S
H1851 C1847 0.950 . S
H1852 C1849 0.950 . S
C1853 C1844 1.390 . S
C1853 H1846 0.950 . S
C1853 C1850 1.387 . S
C1854 C1855 1.387 . S
C1854 H1858 0.950 . S
C1854 C1863 1.390 . S
C1855 C1854 1.387 . S
C1855 C1857 1.387 . S
H1856 C1863 0.950 . S
C1857 C1855 1.387 . S
C1857 C1859 1.390 . S
C1857 H1861 0.950 . S
H1858 C1854 0.950 . S
C1859 C1857 1.390 . S
C1859 C1860 1.387 . S
C1859 H1862 0.950 . S
C1860 C1859 1.387 . S
C1860 C1863 1.387 . S
H1861 C1857 0.950 . S
H1862 C1859 0.950 . S
C1863 C1854 1.390 . S
C1863 H1856 0.950 . S
C1863 C1860 1.387 . S
C1864 C1865 1.387 . S
C1864 H1868 0.950 . S
C1864 C1873 1.390 . S
C1865 C1864 1.387 . S
C1865 C1867 1.387 . S
H1866 C1873 0.950 . S
C1867 C1865 1.387 . S
C1867 C1869 1.390 . S
C1867 H1871 0.950 . S
H1868 C1864 0.950 . S
C1869 C1867 1.390 . S
C1869 C1870 1.387 . S
C1869 H1872 0.950 . S
C1870 C1869 1.387 . S
C1870 C1873 1.387 . S
H1871 C1867 0.950 . S
H1872 C1869 0.950 . S
C1873 C1864 1.390 . S
C1873 H1866 0.950 . S
C1873 C1870 1.387 . S
C1874 C1875 1.387 . S
C1874 H1878 0.950 . S
C1874 C1883 1.390 . S
C1875 C1874 1.387 . S
C1875 C1877 1.387 . S
H1876 C1883 0.950 . S
C1877 C1875 1.387 . S
C1877 C1879 1.390 . S
C1877 H1881 0.950 . S
H1878 C1874 0.950 . S
C1879 C1877 1.390 . S
C1879 C1880 1.387 . S
C1879 H1882 0.950 . S
C1880 C1879 1.387 . S
C1880 C1883 1.387 . S
H1881 C1877 0.950 . S
H1882 C1879 0.950 . S
C1883 C1874 1.390 . S
C1883 H1876 0.950 . S
C1883 C1880 1.387 . S
C1884 C1885 1.387 . S
C1884 H1888 0.950 . S
C1884 C1893 1.390 . S
C1885 C1884 1.387 . S
C1885 C1887 1.387 . S
H1886 C1893 0.950 . S
C1887 C1885 1.387 . S
C1887 C1889 1.390 . S
C1887 H1891 0.950 . S
H1888 C1884 0.950 . S
C1889 C1887 1.390 . S
C1889 C1890 1.387 . S
C1889 H1892 0.950 . S
C1890 C1889 1.387 . S
C1890 C1893 1.387 . S
H1891 C1887 0.950 . S
H1892 C1889 0.950 . S
C1893 C1884 1.390 . S
C1893 H1886 0.950 . S
C1893 C1890 1.387 . S
C1894 C1895 1.387 . S
C1894 H1898 0.950 . S
C1894 C1903 1.390 . S
C1895 C1894 1.387 . S
C1895 C1897 1.387 . S
H1896 C1903 0.950 . S
C1897 C1895 1.387 . S
C1897 C1899 1.390 . S
C1897 H1901 0.950 . S
H1898 C1894 0.950 . S
C1899 C1897 1.390 . S
C1899 C1900 1.387 . S
C1899 H1902 0.950 . S
C1900 C1899 1.387 . S
C1900 C1903 1.387 . S
H1901 C1897 0.950 . S
H1902 C1899 0.950 . S
C1903 C1894 1.390 . S
C1903 H1896 0.950 . S
C1903 C1900 1.387 . S
C1904 C1905 1.387 . S
C1904 H1908 0.950 . S
C1904 C1913 1.390 . S
C1905 C1904 1.387 . S
C1905 C1907 1.387 . S
H1906 C1913 0.950 . S
C1907 C1905 1.387 . S
C1907 C1909 1.390 . S
C1907 H1911 0.950 . S
H1908 C1904 0.950 . S
C1909 C1907 1.390 . S
C1909 C1910 1.387 . S
C1909 H1912 0.950 . S
C1910 C1909 1.387 . S
C1910 C1913 1.387 . S
H1911 C1907 0.950 . S
H1912 C1909 0.950 . S
C1913 C1904 1.390 . S
C1913 H1906 0.950 . S
C1913 C1910 1.387 . S
C1914 C1915 1.387 . S
C1914 H1918 0.950 . S
C1914 C1923 1.390 . S
C1915 C1914 1.387 . S
C1915 C1917 1.387 . S
H1916 C1923 0.950 . S
C1917 C1915 1.387 . S
C1917 C1919 1.390 . S
C1917 H1921 0.950 . S
H1918 C1914 0.950 . S
C1919 C1917 1.390 . S
C1919 C1920 1.387 . S
C1919 H1922 0.950 . S
C1920 C1919 1.387 . S
C1920 C1923 1.387 . S
H1921 C1917 0.950 . S
H1922 C1919 0.950 . S
C1923 C1914 1.390 . S
C1923 H1916 0.950 . S
C1923 C1920 1.387 . S
C1924 C1925 1.387 . S
C1924 H1928 0.950 . S
C1924 C1933 1.390 . S
C1925 C1924 1.387 . S
C1925 C1927 1.387 . S
H1926 C1933 0.950 . S
C1927 C1925 1.387 . S
C1927 C1929 1.390 . S
C1927 H1931 0.950 . S
H1928 C1924 0.950 . S
C1929 C1927 1.390 . S
C1929 C1930 1.387 . S
C1929 H1932 0.950 . S
C1930 C1929 1.387 . S
C1930 C1933 1.387 . S
H1931 C1927 0.950 . S
H1932 C1929 0.950 . S
C1933 C1924 1.390 . S
C1933 H1926 0.950 . S
C1933 C1930 1.387 . S
C1934 C1935 1.387 . S
C1934 H1938 0.950 . S
C1934 C1943 1.390 . S
C1935 C1934 1.387 . S
C1935 C1937 1.387 . S
H1936 C1943 0.950 . S
C1937 C1935 1.387 . S
C1937 C1939 1.390 . S
C1937 H1941 0.950 . S
H1938 C1934 0.950 . S
C1939 C1937 1.390 . S
C1939 C1940 1.387 . S
C1939 H1942 0.950 . S
C1940 C1939 1.387 . S
C1940 C1943 1.387 . S
H1941 C1937 0.950 . S
H1942 C1939 0.950 . S
C1943 C1934 1.390 . S
C1943 H1936 0.950 . S
C1943 C1940 1.387 . S
C1944 C1945 1.387 . S
C1944 H1948 0.950 . S
C1944 C1953 1.390 . S
C1945 C1944 1.387 . S
C1945 C1947 1.387 . S
H1946 C1953 0.950 . S
C1947 C1945 1.387 . S
C1947 C1949 1.390 . S
C1947 H1951 0.950 . S
H1948 C1944 0.950 . S
C1949 C1947 1.390 . S
C1949 C1950 1.387 . S
C1949 H1952 0.950 . S
C1950 C1949 1.387 . S
C1950 C1953 1.387 . S
H1951 C1947 0.950 . S
H1952 C1949 0.950 . S
C1953 C1944 1.390 . S
C1953 H1946 0.950 . S
C1953 C1950 1.387 . S
C1954 C1955 1.387 . S
C1954 H1958 0.950 . S
C1954 C1963 1.390 . S
C1955 C1954 1.387 . S
C1955 C1957 1.387 . S
H1956 C1963 0.950 . S
C1957 C1955 1.387 . S
C1957 C1959 1.390 . S
C1957 H1961 0.950 . S
H1958 C1954 0.950 . S
C1959 C1957 1.390 . S
C1959 C1960 1.387 . S
C1959 H1962 0.950 . S
C1960 C1959 1.387 . S
C1960 C1963 1.387 . S
H1961 C1957 0.950 . S
H1962 C1959 0.950 . S
C1963 C1954 1.390 . S
C1963 H1956 0.950 . S
C1963 C1960 1.387 . S
C1964 C1965 1.387 . S
C1964 H1968 0.950 . S
C1964 C1973 1.390 . S
C1965 C1964 1.387 . S
C1965 C1967 1.387 . S
H1966 C1973 0.950 . S
C1967 C1965 1.387 . S
C1967 C1969 1.390 . S
C1967 H1971 0.950 . S
H1968 C1964 0.950 . S
C1969 C1967 1.390 . S
C1969 C1970 1.387 . S
C1969 H1972 0.950 . S
C1970 C1969 1.387 . S
C1970 C1973 1.387 . S
H1971 C1967 0.950 . S
H1972 C1969 0.950 . S
C1973 C1964 1.390 . S
C1973 H1966 0.950 . S
C1973 C1970 1.387 . S
C1974 C1975 1.387 . S
C1974 H1978 0.950 . S
C1974 C1983 1.390 . S
C1975 C1974 1.387 . S
C1975 C1977 1.387 . S
H1976 C1983 0.950 . S
C1977 C1975 1.387 . S
C1977 C1979 1.390 . S
C1977 H1981 0.950 . S
H1978 C1974 0.950 . S
C1979 C1977 1.390 . S
C1979 C1980 1.387 . S
C1979 H1982 0.950 . S
C1980 C1979 1.387 . S
C1980 C1983 1.387 . S
H1981 C1977 0.950 . S
H1982 C1979 0.950 . S
C1983 C1974 1.390 . S
C1983 H1976 0.950 . S
C1983 C1980 1.387 . S
C1984 C1985 1.387 . S
C1984 H1988 0.950 . S
C1984 C1993 1.390 . S
C1985 C1984 1.387 . S
C1985 C1987 1.387 . S
H1986 C1993 0.950 . S
C1987 C1985 1.387 . S
C1987 C1989 1.390 . S
C1987 H1991 0.950 . S
H1988 C1984 0.950 . S
C1989 C1987 1.390 . S
C1989 C1990 1.387 . S
C1989 H1992 0.950 . S
C1990 C1989 1.387 . S
C1990 C1993 1.387 . S
H1991 C1987 0.950 . S
H1992 C1989 0.950 . S
C1993 C1984 1.390 . S
C1993 H1986 0.950 . S
C1993 C1990 1.387 . S
C1994 C1995 1.387 . S
C1994 H1998 0.950 . S
C1994 C2003 1.390 . S
C1995 C1994 1.387 . S
C1995 C1997 1.387 . S
H1996 C2003 0.950 . S
C1997 C1995 1.387 . S
C1997 C1999 1.390 . S
C1997 H2001 0.950 . S
H1998 C1994 0.950 . S
C1999 C1997 1.390 . S
C1999 C2000 1.387 . S
C1999 H2002 0.950 . S
C2000 C1999 1.387 . S
C2000 C2003 1.387 . S
H2001 C1997 0.950 . S
H2002 C1999 0.950 . S
C2003 C1994 1.390 . S
C2003 H1996 0.950 . S
C2003 C2000 1.387 . S
C2004 C2005 1.387 . S
C2004 H2008 0.950 . S
C2004 C2013 1.390 . S
C2005 C2004 1.387 . S
C2005 C2007 1.387 . S
H2006 C2013 0.950 . S
C2007 C2005 1.387 . S
C2007 C2009 1.390 . S
C2007 H2011 0.950 . S
H2008 C2004 0.950 . S
C2009 C2007 1.390 . S
C2009 C2010 1.387 . S
C2009 H2012 0.950 . S
C2010 C2009 1.387 . S
C2010 C2013 1.387 . S
H2011 C2007 0.950 . S
H2012 C2009 0.950 . S
C2013 C2004 1.390 . S
C2013 H2006 0.950 . S
C2013 C2010 1.387 . S
C2014 C2015 1.387 . S
C2014 H2018 0.950 . S
C2014 C2023 1.390 . S
C2015 C2014 1.387 . S
C2015 C2017 1.387 . S
H2016 C2023 0.950 . S
C2017 C2015 1.387 . S
C2017 C2019 1.390 . S
C2017 H2021 0.950 . S
H2018 C2014 0.950 . S
C2019 C2017 1.390 . S
C2019 C2020 1.387 . S
C2019 H2022 0.950 . S
C2020 C2019 1.387 . S
C2020 C2023 1.387 . S
H2021 C2017 0.950 . S
H2022 C2019 0.950 . S
C2023 C2014 1.390 . S
C2023 H2016 0.950 . S
C2023 C2020 1.387 . S
C2024 C2025 1.387 . S
C2024 H2028 0.950 . S
C2024 C2033 1.390 . S
C2025 C2024 1.387 . S
C2025 C2027 1.387 . S
H2026 C2033 0.950 . S
C2027 C2025 1.387 . S
C2027 C2029 1.390 . S
C2027 H2031 0.950 . S
H2028 C2024 0.950 . S
C2029 C2027 1.390 . S
C2029 C2030 1.387 . S
C2029 H2032 0.950 . S
C2030 C2029 1.387 . S
C2030 C2033 1.387 . S
H2031 C2027 0.950 . S
H2032 C2029 0.950 . S
C2033 C2024 1.390 . S
C2033 H2026 0.950 . S
C2033 C2030 1.387 . S
C2034 C2035 1.387 . S
C2034 H2038 0.950 . S
C2034 C2043 1.390 . S
C2035 C2034 1.387 . S
C2035 C2037 1.387 . S
H2036 C2043 0.950 . S
C2037 C2035 1.387 . S
C2037 C2039 1.390 . S
C2037 H2041 0.950 . S
H2038 C2034 0.950 . S
C2039 C2037 1.390 . S
C2039 C2040 1.387 . S
C2039 H2042 0.950 . S
C2040 C2039 1.387 . S
C2040 C2043 1.387 . S
H2041 C2037 0.950 . S
H2042 C2039 0.950 . S
C2043 C2034 1.390 . S
C2043 H2036 0.950 . S
C2043 C2040 1.387 . S
C2044 C2045 1.387 . S
C2044 H2048 0.950 . S
C2044 C2053 1.390 . S
C2045 C2044 1.387 . S
C2045 C2047 1.387 . S
H2046 C2053 0.950 . S
C2047 C2045 1.387 . S
C2047 C2049 1.390 . S
C2047 H2051 0.950 . S
H2048 C2044 0.950 . S
C2049 C2047 1.390 . S
C2049 C2050 1.387 . S
C2049 H2052 0.950 . S
C2050 C2049 1.387 . S
C2050 C2053 1.387 . S
H2051 C2047 0.950 . S
H2052 C2049 0.950 . S
C2053 C2044 1.390 . S
C2053 H2046 0.950 . S
C2053 C2050 1.387 . S
C2054 C2055 1.387 . S
C2054 H2058 0.950 . S
C2054 C2063 1.390 . S
C2055 C2054 1.387 . S
C2055 C2057 1.387 . S
H2056 C2063 0.950 . S
C2057 C2055 1.387 . S
C2057 C2059 1.390 . S
C2057 H2061 0.950 . S
H2058 C2054 0.950 . S
C2059 C2057 1.390 . S
C2059 C2060 1.387 . S
C2059 H2062 0.950 . S
C2060 C2059 1.387 . S
C2060 C2063 1.387 . S
H2061 C2057 0.950 . S
H2062 C2059 0.950 . S
C2063 C2054 1.390 . S
C2063 H2056 0.950 . S
C2063 C2060 1.387 . S
C2064 C2065 1.387 . S
C2064 H2068 0.950 . S
C2064 C2073 1.390 . S
C2065 C2064 1.387 . S
C2065 C2067 1.387 . S
H2066 C2073 0.950 . S
C2067 C2065 1.387 . S
C2067 C2069 1.390 . S
C2067 H2071 0.950 . S
H2068 C2064 0.950 . S
C2069 C2067 1.390 . S
C2069 C2070 1.387 . S
C2069 H2072 0.950 . S
C2070 C2069 1.387 . S
C2070 C2073 1.387 . S
H2071 C2067 0.950 . S
H2072 C2069 0.950 . S
C2073 C2064 1.390 . S
C2073 H2066 0.950 . S
C2073 C2070 1.387 . S
C2074 C2075 1.387 . S
C2074 H2078 0.950 . S
C2074 C2083 1.390 . S
C2075 C2074 1.387 . S
C2075 C2077 1.387 . S
H2076 C2083 0.950 . S
C2077 C2075 1.387 . S
C2077 C2079 1.390 . S
C2077 H2081 0.950 . S
H2078 C2074 0.950 . S
C2079 C2077 1.390 . S
C2079 C2080 1.387 . S
C2079 H2082 0.950 . S
C2080 C2079 1.387 . S
C2080 C2083 1.387 . S
H2081 C2077 0.950 . S
H2082 C2079 0.950 . S
C2083 C2074 1.390 . S
C2083 H2076 0.950 . S
C2083 C2080 1.387 . S
C2084 C2085 1.387 . S
C2084 H2088 0.950 . S
C2084 C2093 1.390 . S
C2085 C2084 1.387 . S
C2085 C2087 1.387 . S
H2086 C2093 0.950 . S
C2087 C2085 1.387 . S
C2087 C2089 1.390 . S
C2087 H2091 0.950 . S
H2088 C2084 0.950 . S
C2089 C2087 1.390 . S
C2089 C2090 1.387 . S
C2089 H2092 0.950 . S
C2090 C2089 1.387 . S
C2090 C2093 1.387 . S
H2091 C2087 0.950 . S
H2092 C2089 0.950 . S
C2093 C2084 1.390 . S
C2093 H2086 0.950 . S
C2093 C2090 1.387 . S
C2094 C2095 1.387 . S
C2094 H2098 0.950 . S
C2094 C2103 1.390 . S
C2095 C2094 1.387 . S
C2095 C2097 1.387 . S
H2096 C2103 0.950 . S
C2097 C2095 1.387 . S
C2097 C2099 1.390 . S
C2097 H2101 0.950 . S
H2098 C2094 0.950 . S
C2099 C2097 1.390 . S
C2099 C2100 1.387 . S
C2099 H2102 0.950 . S
C2100 C2099 1.387 . S
C2100 C2103 1.387 . S
H2101 C2097 0.950 . S
H2102 C2099 0.950 . S
C2103 C2094 1.390 . S
C2103 H2096 0.950 . S
C2103 C2100 1.387 . S
C2104 C2105 1.387 . S
C2104 H2108 0.950 . S
C2104 C2113 1.390 . S
C2105 C2104 1.387 . S
C2105 C2107 1.387 . S
H2106 C2113 0.950 . S
C2107 C2105 1.387 . S
C2107 C2109 1.390 . S
C2107 H2111 0.950 . S
H2108 C2104 0.950 . S
C2109 C2107 1.390 . S
C2109 C2110 1.387 . S
C2109 H2112 0.950 . S
C2110 C2109 1.387 . S
C2110 C2113 1.387 . S
H2111 C2107 0.950 . S
H2112 C2109 0.950 . S
C2113 C2104 1.390 . S
C2113 H2106 0.950 . S
C2113 C2110 1.387 . S
C2114 C2115 1.387 . S
C2114 H2118 0.950 . S
C2114 C2123 1.390 . S
C2115 C2114 1.387 . S
C2115 C2117 1.387 . S
H2116 C2123 0.950 . S
C2117 C2115 1.387 . S
C2117 C2119 1.390 . S
C2117 H2121 0.950 . S
H2118 C2114 0.950 . S
C2119 C2117 1.390 . S
C2119 C2120 1.387 . S
C2119 H2122 0.950 . S
C2120 C2119 1.387 . S
C2120 C2123 1.387 . S
H2121 C2117 0.950 . S
H2122 C2119 0.950 . S
C2123 C2114 1.390 . S
C2123 H2116 0.950 . S
C2123 C2120 1.387 . S
C2124 C2125 1.387 . S
C2124 H2128 0.950 . S
C2124 C2133 1.390 . S
C2125 C2124 1.387 . S
C2125 C2127 1.387 . S
H2126 C2133 0.950 . S
C2127 C2125 1.387 . S
C2127 C2129 1.390 . S
C2127 H2131 0.950 . S
H2128 C2124 0.950 . S
C2129 C2127 1.390 . S
C2129 C2130 1.387 . S
C2129 H2132 0.950 . S
C2130 C2129 1.387 . S
C2130 C2133 1.387 . S
H2131 C2127 0.950 . S
H2132 C2129 0.950 . S
C2133 C2124 1.390 . S
C2133 H2126 0.950 . S
C2133 C2130 1.387 . S
C2134 C2135 1.387 . S
C2134 H2138 0.950 . S
C2134 C2143 1.390 . S
C2135 C2134 1.387 . S
C2135 C2137 1.387 . S
H2136 C2143 0.950 . S
C2137 C2135 1.387 . S
C2137 C2139 1.390 . S
C2137 H2141 0.950 . S
H2138 C2134 0.950 . S
C2139 C2137 1.390 . S
C2139 C2140 1.387 . S
C2139 H2142 0.950 . S
C2140 C2139 1.387 . S
C2140 C2143 1.387 . S
H2141 C2137 0.950 . S
H2142 C2139 0.950 . S
C2143 C2134 1.390 . S
C2143 H2136 0.950 . S
C2143 C2140 1.387 . S
C2144 C2145 1.387 . S
C2144 H2148 0.950 . S
C2144 C2153 1.390 . S
C2145 C2144 1.387 . S
C2145 C2147 1.387 . S
H2146 C2153 0.950 . S
C2147 C2145 1.387 . S
C2147 C2149 1.390 . S
C2147 H2151 0.950 . S
H2148 C2144 0.950 . S
C2149 C2147 1.390 . S
C2149 C2150 1.387 . S
C2149 H2152 0.950 . S
C2150 C2149 1.387 . S
C2150 C2153 1.387 . S
H2151 C2147 0.950 . S
H2152 C2149 0.950 . S
C2153 C2144 1.390 . S
C2153 H2146 0.950 . S
C2153 C2150 1.387 . S
C2154 C2155 1.387 . S
C2154 H2158 0.950 . S
C2154 C2163 1.390 . S
C2155 C2154 1.387 . S
C2155 C2157 1.387 . S
H2156 C2163 0.950 . S
C2157 C2155 1.387 . S
C2157 C2159 1.390 . S
C2157 H2161 0.950 . S
H2158 C2154 0.950 . S
C2159 C2157 1.390 . S
C2159 C2160 1.387 . S
C2159 H2162 0.950 . S
C2160 C2159 1.387 . S
C2160 C2163 1.387 . S
H2161 C2157 0.950 . S
H2162 C2159 0.950 . S
C2163 C2154 1.390 . S
C2163 H2156 0.950 . S
C2163 C2160 1.387 . S
C2164 C2165 1.387 . S
C2164 H2168 0.950 . S
C2164 C2173 1.390 . S
C2165 C2164 1.387 . S
C2165 C2167 1.387 . S
H2166 C2173 0.950 . S
C2167 C2165 1.387 . S
C2167 C2169 1.390 . S
C2167 H2171 0.950 . S
H2168 C2164 0.950 . S
C2169 C2167 1.390 . S
C2169 C2170 1.387 . S
C2169 H2172 0.950 . S
C2170 C2169 1.387 . S
C2170 C2173 1.387 . S
H2171 C2167 0.950 . S
H2172 C2169 0.950 . S
C2173 C2164 1.390 . S
C2173 H2166 0.950 . S
C2173 C2170 1.387 . S
C2174 C2175 1.387 . S
C2174 H2178 0.950 . S
C2174 C2183 1.390 . S
C2175 C2174 1.387 . S
C2175 C2177 1.387 . S
H2176 C2183 0.950 . S
C2177 C2175 1.387 . S
C2177 C2179 1.390 . S
C2177 H2181 0.950 . S
H2178 C2174 0.950 . S
C2179 C2177 1.390 . S
C2179 C2180 1.387 . S
C2179 H2182 0.950 . S
C2180 C2179 1.387 . S
C2180 C2183 1.387 . S
H2181 C2177 0.950 . S
H2182 C2179 0.950 . S
C2183 C2174 1.390 . S
C2183 H2176 0.950 . S
C2183 C2180 1.387 . S
C2184 C2185 1.387 . S
C2184 H2188 0.950 . S
C2184 C2193 1.390 . S
C2185 C2184 1.387 . S
C2185 C2187 1.387 . S
H2186 C2193 0.950 . S
C2187 C2185 1.387 . S
C2187 C2189 1.390 . S
C2187 H2191 0.950 . S
H2188 C2184 0.950 . S
C2189 C2187 1.390 . S
C2189 C2190 1.387 . S
C2189 H2192 0.950 . S
C2190 C2189 1.387 . S
C2190 C2193 1.387 . S
H2191 C2187 0.950 . S
H2192 C2189 0.950 . S
C2193 C2184 1.390 . S
C2193 H2186 0.950 . S
C2193 C2190 1.387 . S
C2194 C2195 1.387 . S
C2194 H2198 0.950 . S
C2194 C2203 1.390 . S
C2195 C2194 1.387 . S
C2195 C2197 1.387 . S
H2196 C2203 0.950 . S
C2197 C2195 1.387 . S
C2197 C2199 1.390 . S
C2197 H2201 0.950 . S
H2198 C2194 0.950 . S
C2199 C2197 1.390 . S
C2199 C2200 1.387 . S
C2199 H2202 0.950 . S
C2200 C2199 1.387 . S
C2200 C2203 1.387 . S
H2201 C2197 0.950 . S
H2202 C2199 0.950 . S
C2203 C2194 1.390 . S
C2203 H2196 0.950 . S
C2203 C2200 1.387 . S
C2204 C2205 1.387 . S
C2204 H2208 0.950 . S
C2204 C2213 1.390 . S
C2205 C2204 1.387 . S
C2205 C2207 1.387 . S
H2206 C2213 0.950 . S
C2207 C2205 1.387 . S
C2207 C2209 1.390 . S
C2207 H2211 0.950 . S
H2208 C2204 0.950 . S
C2209 C2207 1.390 . S
C2209 C2210 1.387 . S
C2209 H2212 0.950 . S
C2210 C2209 1.387 . S
C2210 C2213 1.387 . S
H2211 C2207 0.950 . S
H2212 C2209 0.950 . S
C2213 C2204 1.390 . S
C2213 H2206 0.950 . S
C2213 C2210 1.387 . S
C2214 C2215 1.387 . S
C2214 H2218 0.950 . S
C2214 C2223 1.390 . S
C2215 C2214 1.387 . S
C2215 C2217 1.387 . S
H2216 C2223 0.950 . S
C2217 C2215 1.387 . S
C2217 C2219 1.390 . S
C2217 H2221 0.950 . S
H2218 C2214 0.950 . S
C2219 C2217 1.390 . S
C2219 C2220 1.387 . S
C2219 H2222 0.950 . S
C2220 C2219 1.387 . S
C2220 C2223 1.387 . S
H2221 C2217 0.950 . S
H2222 C2219 0.950 . S
C2223 C2214 1.390 . S
C2223 H2216 0.950 . S
C2223 C2220 1.387 . S
C2224 C2225 1.387 . S
C2224 H2228 0.950 . S
C2224 C2233 1.390 . S
C2225 C2224 1.387 . S
C2225 C2227 1.387 . S
H2226 C2233 0.950 . S
C2227 C2225 1.387 . S
C2227 C2229 1.390 . S
C2227 H2231 0.950 . S
H2228 C2224 0.950 . S
C2229 C2227 1.390 . S
C2229 C2230 1.387 . S
C2229 H2232 0.950 . S
C2230 C2229 1.387 . S
C2230 C2233 1.387 . S
H2231 C2227 0.950 . S
H2232 C2229 0.950 . S
C2233 C2224 1.390 . S
C2233 H2226 0.950 . S
C2233 C2230 1.387 . S
C2234 C2235 1.387 . S
C2234 H2238 0.950 . S
C2234 C2243 1.390 . S
C2235 C2234 1.387 . S
C2235 C2237 1.387 . S
H2236 C2243 0.950 . S
C2237 C2235 1.387 . S
C2237 C2239 1.390 . S
C2237 H2241 0.950 . S
H2238 C2234 0.950 . S
C2239 C2237 1.390 . S
C2239 C2240 1.387 . S
C2239 H2242 0.950 . S
C2240 C2239 1.387 . S
C2240 C2243 1.387 . S
H2241 C2237 0.950 . S
H2242 C2239 0.950 . S
C2243 C2234 1.390 . S
C2243 H2236 0.950 . S
C2243 C2240 1.387 . S
C2244 C2245 1.387 . S
C2244 H2248 0.950 . S
C2244 C2253 1.390 . S
C2245 C2244 1.387 . S
C2245 C2247 1.387 . S
H2246 C2253 0.950 . S
C2247 C2245 1.387 . S
C2247 C2249 1.390 . S
C2247 H2251 0.950 . S
H2248 C2244 0.950 . S
C2249 C2247 1.390 . S
C2249 C2250 1.387 . S
C2249 H2252 0.950 . S
C2250 C2249 1.387 . S
C2250 C2253 1.387 . S
H2251 C2247 0.950 . S
H2252 C2249 0.950 . S
C2253 C2244 1.390 . S
C2253 H2246 0.950 . S
C2253 C2250 1.387 . S
C2254 C2255 1.387 . S
C2254 H2258 0.950 . S
C2254 C2263 1.390 . S
C2255 C2254 1.387 . S
C2255 C2257 1.387 . S
H2256 C2263 0.950 . S
C2257 C2255 1.387 . S
C2257 C2259 1.390 . S
C2257 H2261 0.950 . S
H2258 C2254 0.950 . S
C2259 C2257 1.390 . S
C2259 C2260 1.387 . S
C2259 H2262 0.950 . S
C2260 C2259 1.387 . S
C2260 C2263 1.387 . S
H2261 C2257 0.950 . S
H2262 C2259 0.950 . S
C2263 C2254 1.390 . S
C2263 H2256 0.950 . S
C2263 C2260 1.387 . S
C2264 C2265 1.387 . S
C2264 H2268 0.950 . S
C2264 C2273 1.390 . S
C2265 C2264 1.387 . S
C2265 C2267 1.387 . S
H2266 C2273 0.950 . S
C2267 C2265 1.387 . S
C2267 C2269 1.390 . S
C2267 H2271 0.950 . S
H2268 C2264 0.950 . S
C2269 C2267 1.390 . S
C2269 C2270 1.387 . S
C2269 H2272 0.950 . S
C2270 C2269 1.387 . S
C2270 C2273 1.387 . S
H2271 C2267 0.950 . S
H2272 C2269 0.950 . S
C2273 C2264 1.390 . S
C2273 H2266 0.950 . S
C2273 C2270 1.387 . S
C2274 C2275 1.387 . S
C2274 H2278 0.950 . S
C2274 C2283 1.390 . S
C2275 C2274 1.387 . S
C2275 C2277 1.387 . S
H2276 C2283 0.950 . S
C2277 C2275 1.387 . S
C2277 C2279 1.390 . S
C2277 H2281 0.950 . S
H2278 C2274 0.950 . S
C2279 C2277 1.390 . S
C2279 C2280 1.387 . S
C2279 H2282 0.950 . S
C2280 C2279 1.387 . S
C2280 C2283 1.387 . S
H2281 C2277 0.950 . S
H2282 C2279 0.950 . S
C2283 C2274 1.390 . S
C2283 H2276 0.950 . S
C2283 C2280 1.387 . S
C2284 C2285 1.387 . S
C2284 H2288 0.950 . S
C2284 C2293 1.390 . S
C2285 C2284 1.387 . S
C2285 C2287 1.387 . S
H2286 C2293 0.950 . S
C2287 C2285 1.387 . S
C2287 C2289 1.390 . S
C2287 H2291 0.950 . S
H2288 C2284 0.950 . S
C2289 C2287 1.390 . S
C2289 C2290 1.387 . S
C2289 H2292 0.950 . S
C2290 C2289 1.387 . S
C2290 C2293 1.387 . S
H2291 C2287 0.950 . S
H2292 C2289 0.950 . S
C2293 C2284 1.390 . S
C2293 H2286 0.950 . S
C2293 C2290 1.387 . S
C2294 C2295 1.387 . S
C2294 H2298 0.950 . S
C2294 C2303 1.390 . S
C2295 C2294 1.387 . S
C2295 C2297 1.387 . S
H2296 C2303 0.950 . S
C2297 C2295 1.387 . S
C2297 C2299 1.390 . S
C2297 H2301 0.950 . S
H2298 C2294 0.950 . S
C2299 C2297 1.390 . S
C2299 C2300 1.387 . S
C2299 H2302 0.950 . S
C2300 C2299 1.387 . S
C2300 C2303 1.387 . S
H2301 C2297 0.950 . S
H2302 C2299 0.950 . S
C2303 C2294 1.390 . S
C2303 H2296 0.950 . S
C2303 C2300 1.387 . S
C2304 C2305 1.387 . S
C2304 H2308 0.950 . S
C2304 C2313 1.390 . S
C2305 C2304 1.387 . S
C2305 C2307 1.387 . S
H2306 C2313 0.950 . S
C2307 C2305 1.387 . S
C2307 C2309 1.390 . S
C2307 H2311 0.950 . S
H2308 C2304 0.950 . S
C2309 C2307 1.390 . S
C2309 C2310 1.387 . S
C2309 H2312 0.950 . S
C2310 C2309 1.387 . S
C2310 C2313 1.387 . S
H2311 C2307 0.950 . S
H2312 C2309 0.950 . S
C2313 C2304 1.390 . S
C2313 H2306 0.950 . S
C2313 C2310 1.387 . S
C2314 C2315 1.387 . S
C2314 H2318 0.950 . S
C2314 C2323 1.390 . S
C2315 C2314 1.387 . S
C2315 C2317 1.387 . S
H2316 C2323 0.950 . S
C2317 C2315 1.387 . S
C2317 C2319 1.390 . S
C2317 H2321 0.950 . S
H2318 C2314 0.950 . S
C2319 C2317 1.390 . S
C2319 C2320 1.387 . S
C2319 H2322 0.950 . S
C2320 C2319 1.387 . S
C2320 C2323 1.387 . S
H2321 C2317 0.950 . S
H2322 C2319 0.950 . S
C2323 C2314 1.390 . S
C2323 H2316 0.950 . S
C2323 C2320 1.387 . S
C2324 C2325 1.387 . S
C2324 H2328 0.950 . S
C2324 C2333 1.390 . S
C2325 C2324 1.387 . S
C2325 C2327 1.387 . S
H2326 C2333 0.950 . S
C2327 C2325 1.387 . S
C2327 C2329 1.390 . S
C2327 H2331 0.950 . S
H2328 C2324 0.950 . S
C2329 C2327 1.390 . S
C2329 C2330 1.387 . S
C2329 H2332 0.950 . S
C2330 C2329 1.387 . S
C2330 C2333 1.387 . S
H2331 C2327 0.950 . S
H2332 C2329 0.950 . S
C2333 C2324 1.390 . S
C2333 H2326 0.950 . S
C2333 C2330 1.387 . S
C2334 C2335 1.387 . S
C2334 H2338 0.950 . S
C2334 C2343 1.390 . S
C2335 C2334 1.387 . S
C2335 C2337 1.387 . S
H2336 C2343 0.950 . S
C2337 C2335 1.387 . S
C2337 C2339 1.390 . S
C2337 H2341 0.950 . S
H2338 C2334 0.950 . S
C2339 C2337 1.390 . S
C2339 C2340 1.387 . S
C2339 H2342 0.950 . S
C2340 C2339 1.387 . S
C2340 C2343 1.387 . S
H2341 C2337 0.950 . S
H2342 C2339 0.950 . S
C2343 C2334 1.390 . S
C2343 H2336 0.950 . S
C2343 C2340 1.387 . S
C2344 C2345 1.387 . S
C2344 H2348 0.950 . S
C2344 C2353 1.390 . S
C2345 C2344 1.387 . S
C2345 C2347 1.387 . S
H2346 C2353 0.950 . S
C2347 C2345 1.387 . S
C2347 C2349 1.390 . S
C2347 H2351 0.950 . S
H2348 C2344 0.950 . S
C2349 C2347 1.390 . S
C2349 C2350 1.387 . S
C2349 H2352 0.950 . S
C2350 C2349 1.387 . S
C2350 C2353 1.387 . S
H2351 C2347 0.950 . S
H2352 C2349 0.950 . S
C2353 C2344 1.390 . S
C2353 H2346 0.950 . S
C2353 C2350 1.387 . S
C2354 C2355 1.387 . S
C2354 H2358 0.950 . S
C2354 C2363 1.390 . S
C2355 C2354 1.387 . S
C2355 C2357 1.387 . S
H2356 C2363 0.950 . S
C2357 C2355 1.387 . S
C2357 C2359 1.390 . S
C2357 H2361 0.950 . S
H2358 C2354 0.950 . S
C2359 C2357 1.390 . S
C2359 C2360 1.387 . S
C2359 H2362 0.950 . S
C2360 C2359 1.387 . S
C2360 C2363 1.387 . S
H2361 C2357 0.950 . S
H2362 C2359 0.950 . S
C2363 C2354 1.390 . S
C2363 H2356 0.950 . S
C2363 C2360 1.387 . S
C2364 C2365 1.387 . S
C2364 H2368 0.950 . S
C2364 C2373 1.390 . S
C2365 C2364 1.387 . S
C2365 C2367 1.387 . S
H2366 C2373 0.950 . S
C2367 C2365 1.387 . S
C2367 C2369 1.390 . S
C2367 H2371 0.950 . S
H2368 C2364 0.950 . S
C2369 C2367 1.390 . S
C2369 C2370 1.387 . S
C2369 H2372 0.950 . S
C2370 C2369 1.387 . S
C2370 C2373 1.387 . S
H2371 C2367 0.950 . S
H2372 C2369 0.950 . S
C2373 C2364 1.390 . S
C2373 H2366 0.950 . S
C2373 C2370 1.387 . S
C2374 C2375 1.387 . S
C2374 H2378 0.950 . S
C2374 C2383 1.390 . S
C2375 C2374 1.387 . S
C2375 C2377 1.387 . S
H2376 C2383 0.950 . S
C2377 C2375 1.387 . S
C2377 C2379 1.390 . S
C2377 H2381 0.950 . S
H2378 C2374 0.950 . S
C2379 C2377 1.390 . S
C2379 C2380 1.387 . S
C2379 H2382 0.950 . S
C2380 C2379 1.387 . S
C2380 C2383 1.387 . S
H2381 C2377 0.950 . S
H2382 C2379 0.950 . S
C2383 C2374 1.390 . S
C2383 H2376 0.950 . S
C2383 C2380 1.387 . S
C2384 C2385 1.387 . S
C2384 H2388 0.950 . S
C2384 C2393 1.390 . S
C2385 C2384 1.387 . S
C2385 C2387 1.387 . S
H2386 C2393 0.950 . S
C2387 C2385 1.387 . S
C2387 C2389 1.390 . S
C2387 H2391 0.950 . S
H2388 C2384 0.950 . S
C2389 C2387 1.390 . S
C2389 C2390 1.387 . S
C2389 H2392 0.950 . S
C2390 C2389 1.387 . S
C2390 C2393 1.387 . S
H2391 C2387 0.950 . S
H2392 C2389 0.950 . S
C2393 C2384 1.390 . S
C2393 H2386 0.950 . S
C2393 C2390 1.387 . S
C2394 C2395 1.387 . S
C2394 H2398 0.950 . S
C2394 C2403 1.390 . S
C2395 C2394 1.387 . S
C2395 C2397 1.387 . S
H2396 C2403 0.950 . S
C2397 C2395 1.387 . S
C2397 C2399 1.390 . S
C2397 H2401 0.950 . S
H2398 C2394 0.950 . S
C2399 C2397 1.390 . S
C2399 C2400 1.387 . S
C2399 H2402 0.950 . S
C2400 C2399 1.387 . S
C2400 C2403 1.387 . S
H2401 C2397 0.950 . S
H2402 C2399 0.950 . S
C2403 C2394 1.390 . S
C2403 H2396 0.950 . S
C2403 C2400 1.387 . S
C2404 C2405 1.387 . S
C2404 H2408 0.950 . S
C2404 C2413 1.390 . S
C2405 C2404 1.387 . S
C2405 C2407 1.387 . S
H2406 C2413 0.950 . S
C2407 C2405 1.387 . S
C2407 C2409 1.390 . S
C2407 H2411 0.950 . S
H2408 C2404 0.950 . S
C2409 C2407 1.390 . S
C2409 C2410 1.387 . S
C2409 H2412 0.950 . S
C2410 C2409 1.387 . S
C2410 C2413 1.387 . S
H2411 C2407 0.950 . S
H2412 C2409 0.950 . S
C2413 C2404 1.390 . S
C2413 H2406 0.950 . S
C2413 C2410 1.387 . S
C2414 C2415 1.387 . S
C2414 H2418 0.950 . S
C2414 C2423 1.390 . S
C2415 C2414 1.387 . S
C2415 C2417 1.387 . S
H2416 C2423 0.950 . S
C2417 C2415 1.387 . S
C2417 C2419 1.390 . S
C2417 H2421 0.950 . S
H2418 C2414 0.950 . S
C2419 C2417 1.390 . S
C2419 C2420 1.387 . S
C2419 H2422 0.950 . S
C2420 C2419 1.387 . S
C2420 C2423 1.387 . S
H2421 C2417 0.950 . S
H2422 C2419 0.950 . S
C2423 C2414 1.390 . S
C2423 H2416 0.950 . S
C2423 C2420 1.387 . S
C2424 C2425 1.387 . S
C2424 H2428 0.950 . S
C2424 C2433 1.390 . S
C2425 C2424 1.387 . S
C2425 C2427 1.387 . S
H2426 C2433 0.950 . S
C2427 C2425 1.387 . S
C2427 C2429 1.390 . S
C2427 H2431 0.950 . S
H2428 C2424 0.950 . S
C2429 C2427 1.390 . S
C2429 C2430 1.387 . S
C2429 H2432 0.950 . S
C2430 C2429 1.387 . S
C2430 C2433 1.387 . S
H2431 C2427 0.950 . S
H2432 C2429 0.950 . S
C2433 C2424 1.390 . S
C2433 H2426 0.950 . S
C2433 C2430 1.387 . S
C2434 C2435 1.387 . S
C2434 H2438 0.950 . S
C2434 C2443 1.390 . S
C2435 C2434 1.387 . S
C2435 C2437 1.387 . S
H2436 C2443 0.950 . S
C2437 C2435 1.387 . S
C2437 C2439 1.390 . S
C2437 H2441 0.950 . S
H2438 C2434 0.950 . S
C2439 C2437 1.390 . S
C2439 C2440 1.387 . S
C2439 H2442 0.950 . S
C2440 C2439 1.387 . S
C2440 C2443 1.387 . S
H2441 C2437 0.950 . S
H2442 C2439 0.950 . S
C2443 C2434 1.390 . S
C2443 H2436 0.950 . S
C2443 C2440 1.387 . S
C2444 C2445 1.387 . S
C2444 H2448 0.950 . S
C2444 C2453 1.390 . S
C2445 C2444 1.387 . S
C2445 C2447 1.387 . S
H2446 C2453 0.950 . S
C2447 C2445 1.387 . S
C2447 C2449 1.390 . S
C2447 H2451 0.950 . S
H2448 C2444 0.950 . S
C2449 C2447 1.390 . S
C2449 C2450 1.387 . S
C2449 H2452 0.950 . S
C2450 C2449 1.387 . S
C2450 C2453 1.387 . S
H2451 C2447 0.950 . S
H2452 C2449 0.950 . S
C2453 C2444 1.390 . S
C2453 H2446 0.950 . S
C2453 C2450 1.387 . S
C2454 C2455 1.387 . S
C2454 H2458 0.950 . S
C2454 C2463 1.390 . S
C2455 C2454 1.387 . S
C2455 C2457 1.387 . S
H2456 C2463 0.950 . S
C2457 C2455 1.387 . S
C2457 C2459 1.390 . S
C2457 H2461 0.950 . S
H2458 C2454 0.950 . S
C2459 C2457 1.390 . S
C2459 C2460 1.387 . S
C2459 H2462 0.950 . S
C2460 C2459 1.387 . S
C2460 C2463 1.387 . S
H2461 C2457 0.950 . S
H2462 C2459 0.950 . S
C2463 C2454 1.390 . S
C2463 H2456 0.950 . S
C2463 C2460 1.387 . S
C2464 C2465 1.387 . S
C2464 H2468 0.950 . S
C2464 C2473 1.390 . S
C2465 C2464 1.387 . S
C2465 C2467 1.387 . S
H2466 C2473 0.950 . S
C2467 C2465 1.387 . S
C2467 C2469 1.390 . S
C2467 H2471 0.950 . S
H2468 C2464 0.950 . S
C2469 C2467 1.390 . S
C2469 C2470 1.387 . S
C2469 H2472 0.950 . S
C2470 C2469 1.387 . S
C2470 C2473 1.387 . S
H2471 C2467 0.950 . S
H2472 C2469 0.950 . S
C2473 C2464 1.390 . S
C2473 H2466 0.950 . S
C2473 C2470 1.387 . S
C2474 C2475 1.387 . S
C2474 H2478 0.950 . S
C2474 C2483 1.390 . S
C2475 C2474 1.387 . S
C2475 C2477 1.387 . S
H2476 C2483 0.950 . S
C2477 C2475 1.387 . S
C2477 C2479 1.390 . S
C2477 H2481 0.950 . S
H2478 C2474 0.950 . S
C2479 C2477 1.390 . S
C2479 C2480 1.387 . S
C2479 H2482 0.950 . S
C2480 C2479 1.387 . S
C2480 C2483 1.387 . S
H2481 C2477 0.950 . S
H2482 C2479 0.950 . S
C2483 C2474 1.390 . S
C2483 H2476 0.950 . S
C2483 C2480 1.387 . S
C2484 C2485 1.387 . S
C2484 H2488 0.950 . S
C2484 C2493 1.390 . S
C2485 C2484 1.387 . S
C2485 C2487 1.387 . S
H2486 C2493 0.950 . S
C2487 C2485 1.387 . S
C2487 C2489 1.390 . S
C2487 H2491 0.950 . S
H2488 C2484 0.950 . S
C2489 C2487 1.390 . S
C2489 C2490 1.387 . S
C2489 H2492 0.950 . S
C2490 C2489 1.387 . S
C2490 C2493 1.387 . S
H2491 C2487 0.950 . S
H2492 C2489 0.950 . S
C2493 C2484 1.390 . S
C2493 H2486 0.950 . S
C2493 C2490 1.387 . S
C2494 C2495 1.387 . S
C2494 H2498 0.950 . S
C2494 C2503 1.390 . S
C2495 C2494 1.387 . S
C2495 C2497 1.387 . S
H2496 C2503 0.950 . S
C2497 C2495 1.387 . S
C2497 C2499 1.390 . S
C2497 H2501 0.950 . S
H2498 C2494 0.950 . S
C2499 C2497 1.390 . S
C2499 C2500 1.387 . S
C2499 H2502 0.950 . S
C2500 C2499 1.387 . S
C2500 C2503 1.387 . S
H2501 C2497 0.950 . S
H2502 C2499 0.950 . S
C2503 C2494 1.390 . S
C2503 H2496 0.950 . S
C2503 C2500 1.387 . S
C2504 C2505 1.387 . S
C2504 H2508 0.950 . S
C2504 C2513 1.390 . S
C2505 C2504 1.387 . S
C2505 C2507 1.387 . S
H2506 C2513 0.950 . S
C2507 C2505 1.387 . S
C2507 C2509 1.390 . S
C2507 H2511 0.950 . S
H2508 C2504 0.950 . S
C2509 C2507 1.390 . S
C2509 C2510 1.387 . S
C2509 H2512 0.950 . S
C2510 C2509 1.387 . S
C2510 C2513 1.387 . S
H2511 C2507 0.950 . S
H2512 C2509 0.950 . S
C2513 C2504 1.390 . S
C2513 H2506 0.950 . S
C2513 C2510 1.387 . S
C2514 C2515 1.387 . S
C2514 H2518 0.950 . S
C2514 C2523 1.390 . S
C2515 C2514 1.387 . S
C2515 C2517 1.387 . S
H2516 C2523 0.950 . S
C2517 C2515 1.387 . S
C2517 C2519 1.390 . S
C2517 H2521 0.950 . S
H2518 C2514 0.950 . S
C2519 C2517 1.390 . S
C2519 C2520 1.387 . S
C2519 H2522 0.950 . S
C2520 C2519 1.387 . S
C2520 C2523 1.387 . S
H2521 C2517 0.950 . S
H2522 C2519 0.950 . S
C2523 C2514 1.390 . S
C2523 H2516 0.950 . S
C2523 C2520 1.387 . S
C2524 C2525 1.387 . S
C2524 H2528 0.950 . S
C2524 C2533 1.390 . S
C2525 C2524 1.387 . S
C2525 C2527 1.387 . S
H2526 C2533 0.950 . S
C2527 C2525 1.387 . S
C2527 C2529 1.390 . S
C2527 H2531 0.950 . S
H2528 C2524 0.950 . S
C2529 C2527 1.390 . S
C2529 C2530 1.387 . S
C2529 H2532 0.950 . S
C2530 C2529 1.387 . S
C2530 C2533 1.387 . S
H2531 C2527 0.950 . S
H2532 C2529 0.950 . S
C2533 C2524 1.390 . S
C2533 H2526 0.950 . S
C2533 C2530 1.387 . S
C2534 C2535 1.387 . S
C2534 H2538 0.950 . S
C2534 C2543 1.390 . S
C2535 C2534 1.387 . S
C2535 C2537 1.387 . S
H2536 C2543 0.950 . S
C2537 C2535 1.387 . S
C2537 C2539 1.390 . S
C2537 H2541 0.950 . S
H2538 C2534 0.950 . S
C2539 C2537 1.390 . S
C2539 C2540 1.387 . S
C2539 H2542 0.950 . S
C2540 C2539 1.387 . S
C2540 C2543 1.387 . S
H2541 C2537 0.950 . S
H2542 C2539 0.950 . S
C2543 C2534 1.390 . S
C2543 H2536 0.950 . S
C2543 C2540 1.387 . S
C2544 C2545 1.387 . S
C2544 H2548 0.950 . S
C2544 C2553 1.390 . S
C2545 C2544 1.387 . S
C2545 C2547 1.387 . S
H2546 C2553 0.950 . S
C2547 C2545 1.387 . S
C2547 C2549 1.390 . S
C2547 H2551 0.950 . S
H2548 C2544 0.950 . S
C2549 C2547 1.390 . S
C2549 C2550 1.387 . S
C2549 H2552 0.950 . S
C2550 C2549 1.387 . S
C2550 C2553 1.387 . S
H2551 C2547 0.950 . S
H2552 C2549 0.950 . S
C2553 C2544 1.390 . S
C2553 H2546 0.950 . S
C2553 C2550 1.387 . S
C2554 C2555 1.387 . S
C2554 H2558 0.950 . S
C2554 C2563 1.390 . S
C2555 C2554 1.387 . S
C2555 C2557 1.387 . S
H2556 C2563 0.950 . S
C2557 C2555 1.387 . S
C2557 C2559 1.390 . S
C2557 H2561 0.950 . S
H2558 C2554 0.950 . S
C2559 C2557 1.390 . S
C2559 C2560 1.387 . S
C2559 H2562 0.950 . S
C2560 C2559 1.387 . S
C2560 C2563 1.387 . S
H2561 C2557 0.950 . S
H2562 C2559 0.950 . S
C2563 C2554 1.390 . S
C2563 H2556 0.950 . S
C2563 C2560 1.387 . S
C2564 C2565 1.387 . S
C2564 H2568 0.950 . S
C2564 C2573 1.390 . S
C2565 C2564 1.387 . S
C2565 C2567 1.387 . S
H2566 C2573 0.950 . S
C2567 C2565 1.387 . S
C2567 C2569 1.390 . S
C2567 H2571 0.950 . S
H2568 C2564 0.950 . S
C2569 C2567 1.390 . S
C2569 C2570 1.387 . S
C2569 H2572 0.950 . S
C2570 C2569 1.387 . S
C2570 C2573 1.387 . S
H2571 C2567 0.950 . S
H2572 C2569 0.950 . S
C2573 C2564 1.390 . S
C2573 H2566 0.950 . S
C2573 C2570 1.387 . S
C2574 C2575 1.387 . S
C2574 H2578 0.950 . S
C2574 C2583 1.390 . S
C2575 C2574 1.387 . S
C2575 C2577 1.387 . S
H2576 C2583 0.950 . S
C2577 C2575 1.387 . S
C2577 C2579 1.390 . S
C2577 H2581 0.950 . S
H2578 C2574 0.950 . S
C2579 C2577 1.390 . S
C2579 C2580 1.387 . S
C2579 H2582 0.950 . S
C2580 C2579 1.387 . S
C2580 C2583 1.387 . S
H2581 C2577 0.950 . S
H2582 C2579 0.950 . S
C2583 C2574 1.390 . S
C2583 H2576 0.950 . S
C2583 C2580 1.387 . S
C2584 C2585 1.387 . S
C2584 H2588 0.950 . S
C2584 C2593 1.390 . S
C2585 C2584 1.387 . S
C2585 C2587 1.387 . S
H2586 C2593 0.950 . S
C2587 C2585 1.387 . S
C2587 C2589 1.390 . S
C2587 H2591 0.950 . S
H2588 C2584 0.950 . S
C2589 C2587 1.390 . S
C2589 C2590 1.387 . S
C2589 H2592 0.950 . S
C2590 C2589 1.387 . S
C2590 C2593 1.387 . S
H2591 C2587 0.950 . S
H2592 C2589 0.950 . S
C2593 C2584 1.390 . S
C2593 H2586 0.950 . S
C2593 C2590 1.387 . S
C2594 C2595 1.387 . S
C2594 H2598 0.950 . S
C2594 C2603 1.390 . S
C2595 C2594 1.387 . S
C2595 C2597 1.387 . S
H2596 C2603 0.950 . S
C2597 C2595 1.387 . S
C2597 C2599 1.390 . S
C2597 H2601 0.950 . S
H2598 C2594 0.950 . S
C2599 C2597 1.390 . S
C2599 C2600 1.387 . S
C2599 H2602 0.950 . S
C2600 C2599 1.387 . S
C2600 C2603 1.387 . S
H2601 C2597 0.950 . S
H2602 C2599 0.950 . S
C2603 C2594 1.390 . S
C2603 H2596 0.950 . S
C2603 C2600 1.387 . S
C2604 C2605 1.387 . S
C2604 H2608 0.950 . S
C2604 C2613 1.390 . S
C2605 C2604 1.387 . S
C2605 C2607 1.387 . S
H2606 C2613 0.950 . S
C2607 C2605 1.387 . S
C2607 C2609 1.390 . S
C2607 H2611 0.950 . S
H2608 C2604 0.950 . S
C2609 C2607 1.390 . S
C2609 C2610 1.387 . S
C2609 H2612 0.950 . S
C2610 C2609 1.387 . S
C2610 C2613 1.387 . S
H2611 C2607 0.950 . S
H2612 C2609 0.950 . S
C2613 C2604 1.390 . S
C2613 H2606 0.950 . S
C2613 C2610 1.387 . S
C2614 C2615 1.387 . S
C2614 H2618 0.950 . S
C2614 C2623 1.390 . S
C2615 C2614 1.387 . S
C2615 C2617 1.387 . S
H2616 C2623 0.950 . S
C2617 C2615 1.387 . S
C2617 C2619 1.390 . S
C2617 H2621 0.950 . S
H2618 C2614 0.950 . S
C2619 C2617 1.390 . S
C2619 C2620 1.387 . S
C2619 H2622 0.950 . S
C2620 C2619 1.387 . S
C2620 C2623 1.387 . S
H2621 C2617 0.950 . S
H2622 C2619 0.950 . S
C2623 C2614 1.390 . S
C2623 H2616 0.950 . S
C2623 C2620 1.387 . S
C2624 C2625 1.387 . S
C2624 H2628 0.950 . S
C2624 C2633 1.390 . S
C2625 C2624 1.387 . S
C2625 C2627 1.387 . S
H2626 C2633 0.950 . S
C2627 C2625 1.387 . S
C2627 C2629 1.390 . S
C2627 H2631 0.950 . S
H2628 C2624 0.950 . S
C2629 C2627 1.390 . S
C2629 C2630 1.387 . S
C2629 H2632 0.950 . S
C2630 C2629 1.387 . S
C2630 C2633 1.387 . S
H2631 C2627 0.950 . S
H2632 C2629 0.950 . S
C2633 C2624 1.390 . S
C2633 H2626 0.950 . S
C2633 C2630 1.387 . S
C2634 C2635 1.387 . S
C2634 H2638 0.950 . S
C2634 C2643 1.390 . S
C2635 C2634 1.387 . S
C2635 C2637 1.387 . S
H2636 C2643 0.950 . S
C2637 C2635 1.387 . S
C2637 C2639 1.390 . S
C2637 H2641 0.950 . S
H2638 C2634 0.950 . S
C2639 C2637 1.390 . S
C2639 C2640 1.387 . S
C2639 H2642 0.950 . S
C2640 C2639 1.387 . S
C2640 C2643 1.387 . S
H2641 C2637 0.950 . S
H2642 C2639 0.950 . S
C2643 C2634 1.390 . S
C2643 H2636 0.950 . S
C2643 C2640 1.387 . S
C2644 C2645 1.387 . S
C2644 H2648 0.950 . S
C2644 C2653 1.390 . S
C2645 C2644 1.387 . S
C2645 C2647 1.387 . S
H2646 C2653 0.950 . S
C2647 C2645 1.387 . S
C2647 C2649 1.390 . S
C2647 H2651 0.950 . S
H2648 C2644 0.950 . S
C2649 C2647 1.390 . S
C2649 C2650 1.387 . S
C2649 H2652 0.950 . S
C2650 C2649 1.387 . S
C2650 C2653 1.387 . S
H2651 C2647 0.950 . S
H2652 C2649 0.950 . S
C2653 C2644 1.390 . S
C2653 H2646 0.950 . S
C2653 C2650 1.387 . S
C2654 C2655 1.387 . S
C2654 H2658 0.950 . S
C2654 C2663 1.390 . S
C2655 C2654 1.387 . S
C2655 C2657 1.387 . S
H2656 C2663 0.950 . S
C2657 C2655 1.387 . S
C2657 C2659 1.390 . S
C2657 H2661 0.950 . S
H2658 C2654 0.950 . S
C2659 C2657 1.390 . S
C2659 C2660 1.387 . S
C2659 H2662 0.950 . S
C2660 C2659 1.387 . S
C2660 C2663 1.387 . S
H2661 C2657 0.950 . S
H2662 C2659 0.950 . S
C2663 C2654 1.390 . S
C2663 H2656 0.950 . S
C2663 C2660 1.387 . S
C2664 C2665 1.387 . S
C2664 H2668 0.950 . S
C2664 C2673 1.390 . S
C2665 C2664 1.387 . S
C2665 C2667 1.387 . S
H2666 C2673 0.950 . S
C2667 C2665 1.387 . S
C2667 C2669 1.390 . S
C2667 H2671 0.950 . S
H2668 C2664 0.950 . S
C2669 C2667 1.390 . S
C2669 C2670 1.387 . S
C2669 H2672 0.950 . S
C2670 C2669 1.387 . S
C2670 C2673 1.387 . S
H2671 C2667 0.950 . S
H2672 C2669 0.950 . S
C2673 C2664 1.390 . S
C2673 H2666 0.950 . S
C2673 C2670 1.387 . S
C2674 C2675 1.387 . S
C2674 H2678 0.950 . S
C2674 C2683 1.390 . S
C2675 C2674 1.387 . S
C2675 C2677 1.387 . S
H2676 C2683 0.950 . S
C2677 C2675 1.387 . S
C2677 C2679 1.390 . S
C2677 H2681 0.950 . S
H2678 C2674 0.950 . S
C2679 C2677 1.390 . S
C2679 C2680 1.387 . S
C2679 H2682 0.950 . S
C2680 C2679 1.387 . S
C2680 C2683 1.387 . S
H2681 C2677 0.950 . S
H2682 C2679 0.950 . S
C2683 C2674 1.390 . S
C2683 H2676 0.950 . S
C2683 C2680 1.387 . S
C2684 C2685 1.387 . S
C2684 H2688 0.950 . S
C2684 C2693 1.390 . S
C2685 C2684 1.387 . S
C2685 C2687 1.387 . S
H2686 C2693 0.950 . S
C2687 C2685 1.387 . S
C2687 C2689 1.390 . S
C2687 H2691 0.950 . S
H2688 C2684 0.950 . S
C2689 C2687 1.390 . S
C2689 C2690 1.387 . S
C2689 H2692 0.950 . S
C2690 C2689 1.387 . S
C2690 C2693 1.387 . S
H2691 C2687 0.950 . S
H2692 C2689 0.950 . S
C2693 C2684 1.390 . S
C2693 H2686 0.950 . S
C2693 C2690 1.387 . S
C2694 C2695 1.387 . S
C2694 H2698 0.950 . S
C2694 C2703 1.390 . S
C2695 C2694 1.387 . S
C2695 C2697 1.387 . S
H2696 C2703 0.950 . S
C2697 C2695 1.387 . S
C2697 C2699 1.390 . S
C2697 H2701 0.950 . S
H2698 C2694 0.950 . S
C2699 C2697 1.390 . S
C2699 C2700 1.387 . S
C2699 H2702 0.950 . S
C2700 C2699 1.387 . S
C2700 C2703 1.387 . S
H2701 C2697 0.950 . S
H2702 C2699 0.950 . S
C2703 C2694 1.390 . S
C2703 H2696 0.950 . S
C2703 C2700 1.387 . S
C2704 C2705 1.387 . S
C2704 H2708 0.950 . S
C2704 C2713 1.390 . S
C2705 C2704 1.387 . S
C2705 C2707 1.387 . S
H2706 C2713 0.950 . S
C2707 C2705 1.387 . S
C2707 C2709 1.390 . S
C2707 H2711 0.950 . S
H2708 C2704 0.950 . S
C2709 C2707 1.390 . S
C2709 C2710 1.387 . S
C2709 H2712 0.950 . S
C2710 C2709 1.387 . S
C2710 C2713 1.387 . S
H2711 C2707 0.950 . S
H2712 C2709 0.950 . S
C2713 C2704 1.390 . S
C2713 H2706 0.950 . S
C2713 C2710 1.387 . S
C2714 C2715 1.387 . S
C2714 H2718 0.950 . S
C2714 C2723 1.390 . S
C2715 C2714 1.387 . S
C2715 C2717 1.387 . S
H2716 C2723 0.950 . S
C2717 C2715 1.387 . S
C2717 C2719 1.390 . S
C2717 H2721 0.950 . S
H2718 C2714 0.950 . S
C2719 C2717 1.390 . S
C2719 C2720 1.387 . S
C2719 H2722 0.950 . S
C2720 C2719 1.387 . S
C2720 C2723 1.387 . S
H2721 C2717 0.950 . S
H2722 C2719 0.950 . S
C2723 C2714 1.390 . S
C2723 H2716 0.950 . S
C2723 C2720 1.387 . S
C2724 C2725 1.387 . S
C2724 H2728 0.950 . S
C2724 C2733 1.390 . S
C2725 C2724 1.387 . S
C2725 C2727 1.387 . S
H2726 C2733 0.950 . S
C2727 C2725 1.387 . S
C2727 C2729 1.390 . S
C2727 H2731 0.950 . S
H2728 C2724 0.950 . S
C2729 C2727 1.390 . S
C2729 C2730 1.387 . S
C2729 H2732 0.950 . S
C2730 C2729 1.387 . S
C2730 C2733 1.387 . S
H2731 C2727 0.950 . S
H2732 C2729 0.950 . S
C2733 C2724 1.390 . S
C2733 H2726 0.950 . S
C2733 C2730 1.387 . S
C2734 C2735 1.387 . S
C2734 H2738 0.950 . S
C2734 C2743 1.390 . S
C2735 C2734 1.387 . S
C2735 C2737 1.387 . S
H2736 C2743 0.950 . S
C2737 C2735 1.387 . S
C2737 C2739 1.390 . S
C2737 H2741 0.950 . S
H2738 C2734 0.950 . S
C2739 C2737 1.390 . S
C2739 C2740 1.387 . S
C2739 H2742 0.950 . S
C2740 C2739 1.387 . S
C2740 C2743 1.387 . S
H2741 C2737 0.950 . S
H2742 C2739 0.950 . S
C2743 C2734 1.390 . S
C2743 H2736 0.950 . S
C2743 C2740 1.387 . S
C2744 C2745 1.387 . S
C2744 H2748 0.950 . S
C2744 C2753 1.390 . S
C2745 C2744 1.387 . S
C2745 C2747 1.387 . S
H2746 C2753 0.950 . S
C2747 C2745 1.387 . S
C2747 C2749 1.390 . S
C2747 H2751 0.950 . S
H2748 C2744 0.950 . S
C2749 C2747 1.390 . S
C2749 C2750 1.387 . S
C2749 H2752 0.950 . S
C2750 C2749 1.387 . S
C2750 C2753 1.387 . S
H2751 C2747 0.950 . S
H2752 C2749 0.950 . S
C2753 C2744 1.390 . S
C2753 H2746 0.950 . S
C2753 C2750 1.387 . S
C2754 C2755 1.387 . S
C2754 H2758 0.950 . S
C2754 C2763 1.390 . S
C2755 C2754 1.387 . S
C2755 C2757 1.387 . S
H2756 C2763 0.950 . S
C2757 C2755 1.387 . S
C2757 C2759 1.390 . S
C2757 H2761 0.950 . S
H2758 C2754 0.950 . S
C2759 C2757 1.390 . S
C2759 C2760 1.387 . S
C2759 H2762 0.950 . S
C2760 C2759 1.387 . S
C2760 C2763 1.387 . S
H2761 C2757 0.950 . S
H2762 C2759 0.950 . S
C2763 C2754 1.390 . S
C2763 H2756 0.950 . S
C2763 C2760 1.387 . S
C2764 C2765 1.387 . S
C2764 H2768 0.950 . S
C2764 C2773 1.390 . S
C2765 C2764 1.387 . S
C2765 C2767 1.387 . S
H2766 C2773 0.950 . S
C2767 C2765 1.387 . S
C2767 C2769 1.390 . S
C2767 H2771 0.950 . S
H2768 C2764 0.950 . S
C2769 C2767 1.390 . S
C2769 C2770 1.387 . S
C2769 H2772 0.950 . S
C2770 C2769 1.387 . S
C2770 C2773 1.387 . S
H2771 C2767 0.950 . S
H2772 C2769 0.950 . S
C2773 C2764 1.390 . S
C2773 H2766 0.950 . S
C2773 C2770 1.387 . S
C2774 C2775 1.387 . S
C2774 H2778 0.950 . S
C2774 C2783 1.390 . S
C2775 C2774 1.387 . S
C2775 C2777 1.387 . S
H2776 C2783 0.950 . S
C2777 C2775 1.387 . S
C2777 C2779 1.390 . S
C2777 H2781 0.950 . S
H2778 C2774 0.950 . S
C2779 C2777 1.390 . S
C2779 C2780 1.387 . S
C2779 H2782 0.950 . S
C2780 C2779 1.387 . S
C2780 C2783 1.387 . S
H2781 C2777 0.950 . S
H2782 C2779 0.950 . S
C2783 C2774 1.390 . S
C2783 H2776 0.950 . S
C2783 C2780 1.387 . S
C1585 C602 1.754 . S
C1590 N14 1.524 . S
C1595 N47 1.508 . S
C1600 C644 1.712 1_554 S
C1605 N71 1.873 . S
C1610 C668 1.864 . S
C1615 C569 2.189 . S
C1620 N113 1.935 . S
C1625 C734 1.950 . S
C1630 N146 1.672 . S
C1635 N179 1.614 . S
C1640 C536 1.848 . S
C1645 C767 2.113 . S
C1650 N212 1.912 . S
C1655 C710 1.640 1_556 S
C1660 N245 1.414 . S
C1665 N278 1.269 . S
C1670 C314 1.468 1_455 S
C1675 C338 2.151 . S
C1680 N302 2.120 . S
C1685 C371 2.218 . S
C1690 N344 2.007 . S
C1695 N377 1.672 . S
C1700 C272 1.962 . S
C1705 C503 1.785 . S
C1710 N401 1.781 . S
C1715 N443 1.337 . S
C1720 C413 1.541 1_545 S
C1725 C437 2.112 . S
C1730 N476 1.827 . S
C1735 C470 2.124 . S
C1740 N509 1.836 . S
C1745 N542 1.670 . S
C1750 C107 1.938 . S
C1755 C173 2.057 . S
C1760 N575 1.843 . S
C1765 N608 1.799 . S
C1770 C206 2.045 . S
C1775 C239 1.827 . S
C1780 N632 1.798 . S
C1785 C140 1.939 . S
C1790 N674 1.685 . S
C1795 N698 1.935 . S
C1800 C41 1.972 . S
C1805 N740 1.401 . S
C1810 C83 1.599 1_455 S
C1815 C8 1.896 . S
C1820 N773 1.690 . S
C1825 N806 1.523 . S
C1830 C1394 1.755 . S
C1835 C1436 1.709 . S
C1840 N839 1.503 . S
C1845 C1460 1.862 . S
C1850 N863 1.871 . S
C1855 N905 1.931 . S
C1860 C1361 2.186 . S
C1865 C1526 1.951 . S
C1870 N938 1.671 . S
C1875 N971 1.614 . S
C1880 C1328 1.848 . S
C1885 C1559 2.111 . S
C1890 N1004 1.908 . S
C1895 C1502 1.640 . S
C1900 N1037 1.414 . S
C1905 C1106 1.465 . S
C1910 N1070 1.262 . S
C1915 N1094 2.123 . S
C1920 C1130 2.154 . S
C1925 C1163 2.219 . S
C1930 N1136 2.006 . S
C1935 N1169 1.671 . S
C1940 C1064 1.963 . S
C1945 N1193 1.785 . S
C1950 C1295 1.788 . S
C1955 C1205 1.542 . S
C1960 N1235 1.336 . S
C1965 N1268 1.823 . S
C1970 C1229 2.110 . S
C1975 C1262 2.125 . S
C1980 N1301 1.834 . S
C1985 C899 1.938 . S
C1990 N1334 1.670 . S
C1995 N1367 1.843 . S
C2000 C965 2.057 . S
C2005 N1400 1.794 . S
C2010 C998 2.043 . S
C2015 C1031 1.830 . S
C2020 N1424 1.801 . S
C2025 C932 1.937 . S
C2030 N1466 1.684 . S
C2035 C833 1.975 . S
C2040 N1490 1.938 . S
C2045 N1532 1.395 . S
C2050 C875 1.595 . S
C2055 C800 1.896 . S
C2060 N1565 1.687 . S
C2065 C1040 1.438 . S
C2070 C17 1.431 . S
C2075 C941 1.226 . S
C2080 C50 1.231 . S
C2085 C74 1.770 . S
C2090 C974 1.663 . S
C2095 C1007 1.740 . S
C2100 C116 1.718 . S
C2105 C149 1.227 . S
C2110 C842 1.232 . S
C2115 C866 1.772 . S
C2120 C182 1.665 . S
C2125 C908 1.717 . S
C2130 C215 1.740 . S
C2135 C248 1.438 . S
C2140 C809 1.432 . S
C2145 C281 1.430 . S
C2150 C1469 1.426 . S
C2155 C1370 1.819 . S
C2160 C305 1.897 . S
C2165 C1403 1.476 . S
C2170 C347 1.510 . S
C2175 C1427 1.939 . S
C2180 C380 1.839 . S
C2185 C1568 1.663 . S
C2190 C404 1.755 . S
C2195 C446 1.574 . S
C2200 C1493 1.672 . S
C2205 C479 1.489 . S
C2210 C1535 1.483 . S
C2215 C1337 1.648 . S
C2220 C512 1.648 . S
C2225 C1304 1.644 . S
C2230 C545 1.647 . S
C2235 C578 1.823 . S
C2240 C1097 1.900 . S
C2245 C1139 1.506 . S
C2250 C611 1.474 . S
C2255 C1172 1.841 . S
C2260 C635 1.941 . S
C2265 C677 1.430 . S
C2270 C1073 1.431 . S
C2275 C701 1.669 . S
C2280 C1238 1.574 . S
C2285 C1271 1.489 . S
C2290 C743 1.483 . S
C2295 C776 1.664 . S
C2300 C1196 1.755 . S
C2305 C292 1.352 . S
C2310 N5 1.318 . S
C2315 C325 1.199 . S
C2320 N38 1.171 . S
C2325 N80 1.523 . S
C2330 C358 1.792 . S
C2335 N104 1.281 . S
C2340 C391 1.311 . S
C2345 N137 1.312 . S
C2350 C424 1.333 . S
C2355 C457 1.227 . S
C2360 N170 1.199 . S
C2365 C490 1.463 . S
C2370 N203 1.430 . S
C2375 N236 1.257 . S
C2380 C523 1.300 . S
C2385 C556 1.351 . S
C2390 N269 1.308 . S
C2395 C787 1.601 . S
C2400 N311 1.344 . S
C2405 C721 1.370 . S
C2410 N335 1.351 . S
C2415 N368 1.283 . S
C2420 C754 1.319 . S
C2425 N410 1.287 . S
C2430 C589 1.523 . S
C2435 N434 1.273 . S
C2440 C622 1.326 . S
C2445 N467 1.306 . S
C2450 C655 1.321 . S
C2455 N500 1.296 . S
C2460 C688 1.344 . S
C2465 C28 1.417 . S
C2470 N533 1.369 . S
C2475 N566 1.447 . S
C2480 C160 1.494 . S
C2485 C193 1.323 . S
C2490 N599 1.286 . S
C2495 N641 1.362 . S
C2500 C226 1.618 . S
C2505 C259 1.303 . S
C2510 N665 1.273 . S
C2515 C94 1.588 . S
C2520 N707 1.380 . S
C2525 N731 1.248 . S
C2530 C127 1.285 . S
C2535 C61 1.492 . S
C2540 N764 1.452 . S
C2545 N797 1.321 . S
C2550 C1084 1.354 . S
C2555 C1117 1.197 . S
C2560 N830 1.168 . S
C2565 N872 1.521 . S
C2570 C1150 1.790 . S
C2575 N896 1.281 . S
C2580 C1183 1.311 . S
C2585 N929 1.315 . S
C2590 C1216 1.334 . S
C2595 N962 1.196 . S
C2600 C1249 1.225 . S
C2605 N995 1.430 . S
C2610 C1282 1.464 . S
C2615 N1028 1.259 . S
C2620 C1315 1.302 . S
C2625 N1061 1.308 . S
C2630 C1348 1.350 . S
C2635 N1103 1.343 . S
C2640 C1579 1.601 . S
C2645 N1127 1.348 . S
C2650 C1513 1.367 . S
C2655 C1546 1.321 . S
C2660 N1160 1.284 . S
C2665 C1381 1.526 . S
C2670 N1202 1.294 . S
C2675 N1226 1.274 . S
C2680 C1414 1.326 . S
C2685 C1447 1.320 . S
C2690 N1259 1.303 . S
C2695 N1292 1.300 . S
C2700 C1480 1.345 . S
C2705 N1325 1.371 . S
C2710 C820 1.417 . S
C2715 C952 1.497 . S
C2720 N1358 1.451 . S
C2725 C985 1.323 . S
C2730 N1391 1.286 . S
C2735 C1018 1.617 . S
C2740 N1433 1.361 . S
C2745 C1051 1.303 . S
C2750 N1457 1.273 . S
C2755 C886 1.588 . S
C2760 N1499 1.380 . S
C2765 C919 1.283 . S
C2770 N1523 1.244 . S
C2775 C853 1.492 . S
C2780 N1556 1.450 . S
