# Generated by pormake.
# Topology sxb, (6)-cn, num edge types: 1
# Building blocks:
#     Node 0, Type 0, BuildingBlock: LEVNOQ01_clean_sbu_1, # of connection points: 6
#     Node 1, Type 0, BuildingBlock: LEVNOQ01_clean_sbu_1, # of connection points: 6
#     Node 2, Type 0, BuildingBlock: LEVNOQ01_clean_sbu_1, # of connection points: 6
#     Node 3, Type 0, BuildingBlock: LEVNOQ01_clean_sbu_1, # of connection points: 6
#     Edge 4, Type (0, 0), BuildingBlock: FUNLAD_clean_linker_1, # of connection points: 2
#     Edge 5, Type (0, 0), BuildingBlock: FUNLAD_clean_linker_1, # of connection points: 2
#     Edge 6, Type (0, 0), BuildingBlock: FUNLAD_clean_linker_1, # of connection points: 2
#     Edge 7, Type (0, 0), BuildingBlock: FUNLAD_clean_linker_1, # of connection points: 2
#     Edge 8, Type (0, 0), BuildingBlock: FUNLAD_clean_linker_1, # of connection points: 2
#     Edge 9, Type (0, 0), BuildingBlock: FUNLAD_clean_linker_1, # of connection points: 2
#     Edge 10, Type (0, 0), BuildingBlock: FUNLAD_clean_linker_1, # of connection points: 2
#     Edge 11, Type (0, 0), BuildingBlock: FUNLAD_clean_linker_1, # of connection points: 2
#     Edge 12, Type (0, 0), BuildingBlock: FUNLAD_clean_linker_1, # of connection points: 2
#     Edge 13, Type (0, 0), BuildingBlock: FUNLAD_clean_linker_1, # of connection points: 2
#     Edge 14, Type (0, 0), BuildingBlock: FUNLAD_clean_linker_1, # of connection points: 2
#     Edge 15, Type (0, 0), BuildingBlock: FUNLAD_clean_linker_1, # of connection points: 2
# Relax obj value: 0.085
# Max RMSD: 0.127
# Mean RMSD: 0.127
data_MOF--net-sxb--node1-LEVNOQ01_clean_sbu_1--edge1-FUNLAD_clean_linker_1
_symmetry_space_group_name_H-M    P1
_symmetry_Int_Tables_number       1
_symmetry_cell_setting            triclinic
loop_
_symmetry_equiv_pos_as_xyz
'x, y, z'
_cell_length_a     15.771018
_cell_length_b     29.144356
_cell_length_c     32.71778
_cell_angle_alpha  90.213355
_cell_angle_beta   104.46536
_cell_angle_gamma 91.040105
loop_
_atom_site_label
_atom_site_type_symbol
_atom_site_fract_x
_atom_site_fract_y
_atom_site_fract_z
_atom_type_partial_charge
O0 O 0.79296 0.02093 0.96593 0.0
Mg1 Mg 0.90681 0.04252 0.94857 0.0
O2 O 0.87066 0.97217 0.00992 0.0
Mg3 Mg 0.00075 0.00918 0.01187 0.0
O4 O -0.00652 0.99618 0.93825 0.0
O5 O 0.88226 0.02486 0.88818 0.0
O6 O 0.13322 0.04347 0.01657 0.0
O7 O 0.06594 0.93606 0.00723 0.0
Mg8 Mg 0.07854 0.96988 0.0749 0.0
O9 O 0.00686 0.02321 0.08522 0.0
O10 O 0.19818 0.99133 0.0617 0.0
O11 O 0.02673 0.90265 0.05892 0.0
O12 O 0.08884 0.97934 0.13632 0.0
C13 C 0.93404 0.11821 0.99064 0.0
C14 C 0.79691 0.98732 0.99055 0.0
C15 C 0.94996 0.99936 0.89892 0.0
C16 C 0.20258 0.02535 0.03816 0.0
C17 C 0.05536 0.89938 0.02649 0.0
C18 C 0.037 0.01316 0.12487 0.0
O19 O 0.94482 0.11197 0.95429 0.0
O20 O 0.93818 0.08377 0.01505 0.0
O21 O 0.88068 0.90724 0.43125 0.0
Mg22 Mg 0.84129 0.97517 0.43412 0.0
O23 O 0.93779 0.92635 0.49733 0.0
Mg24 Mg -0.01378 0.00364 0.50047 0.0
O25 O 0.93206 0.02367 0.42923 0.0
O26 O 0.80934 0.00708 0.37847 0.0
O27 O 0.04532 0.07765 0.50978 0.0
O28 O 0.10709 0.98392 0.476 0.0
Mg29 Mg 0.15793 0.9906 0.55823 0.0
O30 O 0.0396 0.98795 0.57161 0.0
O31 O 0.18197 0.05968 0.54277 0.0
O32 O 0.18087 0.93562 0.52077 0.0
O33 O 0.16644 0.97692 0.61963 0.0
C34 C 0.78306 0.01482 0.50661 0.0
C35 C 0.9096 0.89566 0.46911 0.0
C36 C 0.8836 0.02859 0.39097 0.0
C37 C 0.12579 0.08896 0.52538 0.0
C38 C 0.16881 0.9555 0.48572 0.0
C39 C 0.0821 0.97938 0.61008 0.0
O40 O 0.75871 0.99146 0.47294 0.0
O41 O 0.86317 0.0261 0.52178 0.0
O42 O 0.31191 0.45098 0.98277 0.0
Mg43 Mg 0.36442 0.51164 0.96374 0.0
O44 O 0.37577 0.49139 0.038 0.0
Mg45 Mg 0.51113 0.51196 0.022 0.0
O46 O 0.47821 0.50403 0.9469 0.0
O47 O 0.34529 0.50909 0.90131 0.0
O48 O 0.64789 0.53301 0.01057 0.0
O49 O 0.55006 0.43457 0.02472 0.0
Mg50 Mg 0.67411 0.49978 0.09845 0.0
O51 O 0.55127 0.52189 0.09366 0.0
O52 O 0.74028 0.54945 0.07189 0.0
O53 O 0.67289 0.43131 0.0758 0.0
O54 O 0.65035 0.51565 0.15534 0.0
C55 C 0.39873 0.60479 0.00433 0.0
C56 C 0.3157 0.46283 0.02004 0.0
C57 C 0.42866 0.50353 0.90849 0.0
C58 C 0.72083 0.54988 0.03207 0.0
C59 C 0.61569 0.41245 0.04581 0.0
C60 C 0.57361 0.5276 0.13421 0.0
O61 O 0.33793 0.57906 0.98292 0.0
O62 O 0.47433 0.58862 0.0196 0.0
O63 O 0.41948 0.38664 0.44996 0.0
Mg64 Mg 0.35993 0.44416 0.41517 0.0
O65 O 0.42507 0.42976 0.50521 0.0
Mg66 Mg 0.46383 0.50496 0.49735 0.0
O67 O 0.42464 0.50595 0.42642 0.0
O68 O 0.42687 0.4658 0.37047 0.0
O69 O 0.50248 0.58227 0.49612 0.0
O70 O 0.59597 0.48809 0.48429 0.0
Mg71 Mg 0.61374 0.50841 0.55729 0.0
O72 O 0.49583 0.50296 0.57227 0.0
O73 O 0.63781 0.57465 0.53527 0.0
O74 O 0.67217 0.45038 0.53721 0.0
O75 O 0.62777 0.50693 0.61933 0.0
C76 C 0.25393 0.50072 0.46948 0.0
C77 C 0.41762 0.39037 0.48814 0.0
C78 C 0.45539 0.50091 0.39401 0.0
C79 C 0.57902 0.59906 0.51222 0.0
C80 C 0.66207 0.4643 0.49997 0.0
C81 C 0.54354 0.50286 0.61106 0.0
O82 O 0.25834 0.47273 0.43987 0.0
O83 O 0.32128 0.51894 0.49522 0.0
H84 H 0.43354 0.6743 0.03191 0.0
C85 C 0.38154 0.65338 0.01197 0.0
H86 H 0.25157 0.65166 0.97417 0.0
H87 H 0.20075 0.82782 0.08901 0.0
H88 H 0.21803 0.77379 0.14658 0.0
H89 H 0.26275 0.6943 0.13827 0.0
H90 H 0.29268 0.66879 0.07271 0.0
C91 C 0.30315 0.67187 -0.0049 0.0
C92 C 0.28399 0.72064 0.00214 0.0
C93 C 0.2636 0.73435 0.04012 0.0
C94 C 0.23324 0.77943 0.04412 0.0
C95 C 0.21898 0.79321 0.08338 0.0
C96 C 0.22965 0.76268 0.11687 0.0
C97 C 0.25514 0.71799 0.11224 0.0
C98 C 0.27211 0.70379 0.07441 0.0
H99 H 0.05996 0.82402 0.02292 0.0
C100 C 0.09283 0.8557 0.01755 0.0
H101 H 0.20792 0.88591 0.0068 0.0
H102 H 0.33166 0.70763 0.92833 0.0
H103 H 0.32087 0.76284 0.87191 0.0
H104 H 0.2625 0.83995 0.87753 0.0
H105 H 0.21498 0.86246 0.9396 0.0
C106 C 0.17336 0.8542 0.01056 0.0
C107 C 0.21852 0.80978 0.00923 0.0
C108 C 0.24598 0.79732 0.97268 0.0
C109 C 0.27878 0.75269 0.96919 0.0
C110 C 0.30539 0.74094 0.93232 0.0
C111 C 0.29979 0.77232 0.89979 0.0
C112 C 0.26703 0.81576 0.90299 0.0
C113 C 0.23998 0.82825 0.93883 0.0
H114 H 0.57319 0.3419 0.02195 0.0
C115 C 0.62933 0.36455 0.03422 0.0
H116 H 0.76626 0.37324 0.0505 0.0
H117 H 0.90959 0.18204 0.10009 0.0
H118 H 0.95003 0.22336 0.16677 0.0
H119 H 0.88649 0.29851 0.17492 0.0
H120 H 0.78578 0.33393 0.11586 0.0
C121 C 0.71148 0.34953 0.03895 0.0
C122 C 0.73439 0.30066 0.03468 0.0
C123 C 0.78896 0.27902 0.07027 0.0
C124 C 0.82303 0.2349 0.0661 0.0
C125 C 0.88088 0.21525 0.10164 0.0
C126 C 0.90427 0.23845 0.14021 0.0
C127 C 0.86901 0.2809 0.14471 0.0
C128 C 0.81165 0.30098 0.11038 0.0
H129 H 0.92243 0.19321 0.98563 0.0
C130 C 0.90287 0.16306 0.00078 0.0
H131 H 0.81835 0.13684 0.03644 0.0
H132 H 0.63754 0.33324 0.95902 0.0
H133 H 0.59892 0.2922 0.89221 0.0
H134 H 0.64927 0.21336 0.88637 0.0
H135 H 0.7399 0.17542 0.94724 0.0
C136 C 0.84095 0.16679 0.02218 0.0
C137 C 0.80124 0.21194 0.02661 0.0
C138 C 0.74436 0.23276 0.99123 0.0
C139 C 0.71225 0.27757 -0.00497 0.0
C140 C 0.66087 0.29868 0.95847 0.0
C141 C 0.63866 0.27559 0.91977 0.0
C142 C 0.66725 0.23126 0.91644 0.0
C143 C 0.71961 0.20997 0.9516 0.0
H144 H 0.2275 0.14247 0.53877 0.0
C145 C 0.15855 0.13617 0.52352 0.0
H146 H 0.04421 0.1652 0.48495 0.0
H147 H 0.36971 0.31423 0.57669 0.0
H148 H 0.31172 0.30603 0.63826 0.0
H149 H 0.18146 0.25686 0.63589 0.0
H150 H 0.11017 0.21449 0.5718 0.0
C151 C 0.11198 0.17048 0.50237 0.0
C152 C 0.15977 0.21395 0.49807 0.0
C153 C 0.19717 0.24081 0.53443 0.0
C154 C 0.26831 0.27161 0.5347 0.0
C155 C 0.31102 0.2934 0.57335 0.0
C156 C 0.27926 0.28833 0.60926 0.0
C157 C 0.20623 0.26046 0.60802 0.0
C158 C 0.16616 0.23634 0.57126 0.0
H159 H 0.32231 0.36698 0.52206 0.0
C160 C 0.37011 0.35489 0.50586 0.0
H161 H 0.4183 0.29932 0.47866 0.0
H162 H 0.09153 0.1728 0.42157 0.0
H163 H 0.13455 0.18774 0.35655 0.0
H164 H 0.24824 0.24625 0.35435 0.0
H165 H 0.32058 0.2894 0.41688 0.0
C166 C 0.37079 0.31045 0.49545 0.0
C167 C 0.29635 0.27853 0.49699 0.0
C168 C 0.25127 0.25532 0.45919 0.0
C169 C 0.18381 0.22256 0.45998 0.0
C170 C 0.14293 0.19818 0.4225 0.0
C171 C 0.16662 0.20657 0.38495 0.0
C172 C 0.23071 0.23946 0.38373 0.0
C173 C 0.27235 0.26379 0.42016 0.0
H174 H 0.89719 0.82064 0.46168 0.0
C175 C 0.88698 0.84947 0.48096 0.0
H176 H 0.82045 0.87365 0.52508 0.0
H177 H 0.62495 0.67898 0.43473 0.0
H178 H 0.59098 0.72224 0.36994 0.0
H179 H 0.63982 0.80306 0.36898 0.0
H180 H 0.72586 0.84027 0.4326 0.0
C181 C 0.83427 0.84435 0.50726 0.0
C182 C 0.78708 0.80019 0.50995 0.0
C183 C 0.73035 0.78028 0.47322 0.0
C184 C 0.6959 0.73505 0.47457 0.0
C185 C 0.64806 0.71419 0.43635 0.0
C186 C 0.62864 0.73856 0.39872 0.0
C187 C 0.65655 0.78394 0.39811 0.0
C188 C 0.70683 0.80472 0.4348 0.0
H189 H 0.54774 0.6708 0.49222 0.0
C190 C 0.60043 0.64748 0.50528 0.0
H191 H 0.73642 0.63918 0.52923 0.0
H192 H 0.8814 0.83165 0.58727 0.0
H193 H 0.89807 0.79301 0.65427 0.0
H194 H 0.82766 0.71736 0.65792 0.0
H195 H 0.74108 0.67966 0.59456 0.0
C196 C 0.68435 0.6627 0.51563 0.0
C197 C 0.71129 0.71165 0.51361 0.0
C198 C 0.75985 0.73381 0.55117 0.0
C199 C 0.79873 0.77788 0.54925 0.0
C200 C 0.84946 0.79844 0.587 0.0
C201 C 0.8596 0.77664 0.62569 0.0
C202 C 0.82009 0.73402 0.62774 0.0
C203 C 0.77091 0.71266 0.59106 0.0
H204 H 0.28775 0.05224 -8e-05 0.0
C205 C 0.28718 0.03827 0.03063 0.0
H206 H 0.36004 0.01001 0.08747 0.0
H207 H 0.59273 0.90046 0.99273 0.0
H208 H 0.51709 0.83981 0.02109 0.0
H209 H 0.40319 0.85809 0.05801 0.0
H210 H 0.36478 0.9367 0.06706 0.0
C211 C 0.36129 0.02403 0.05687 0.0
C212 C 0.43733 0.01413 0.0399 0.0
C213 C 0.45954 0.96763 0.03565 0.0
C214 C 0.52487 0.95699 0.0144 0.0
C215 C 0.54453 0.91039 0.00935 0.0
C216 C 0.50125 0.87524 0.02522 0.0
C217 C 0.43714 0.88552 0.04599 0.0
C218 C 0.41595 0.93102 0.05107 0.0
H219 H 0.72369 0.95865 0.03363 0.0
C220 C 0.71742 0.97159 0.0019 0.0
H221 H 0.6336 0.9961 0.94611 0.0
H222 H 0.4156 0.10663 0.04694 0.0
H223 H 0.48984 0.16723 0.01777 0.0
H224 H 0.6011 0.1488 0.9794 0.0
H225 H 0.6392 0.07018 0.97008 0.0
C226 C 0.63905 0.98292 0.97771 0.0
C227 C 0.56749 0.99284 -0.00222 0.0
C228 C 0.54598 0.03935 0.00246 0.0
C229 C 0.48132 0.05001 0.02405 0.0
C230 C 0.46263 0.09666 0.02966 0.0
C231 C 0.50524 0.13178 0.01341 0.0
C232 C 0.56799 0.12142 0.99186 0.0
C233 C 0.58889 0.07592 0.9866 0.0
H234 H 0.24165 0.99566 0.4494 0.0
C235 C 0.24555 0.96538 0.46908 0.0
H236 H 0.32833 0.91896 0.50807 0.0
H237 H 0.58374 0.06584 0.42904 0.0
H238 H 0.4983 0.04531 0.35939 0.0
H239 H 0.37284 0.99108 0.34941 0.0
H240 H 0.33176 0.95782 0.40947 0.0
C241 C 0.32449 0.9487 0.4878 0.0
C242 C 0.40468 0.97826 0.49301 0.0
C243 C 0.43142 0.99511 0.45747 0.0
C244 C 0.50651 0.0246 0.46336 0.0
C245 C 0.52922 0.04238 0.42711 0.0
C246 C 0.48034 0.03096 0.3866 0.0
C247 C 0.40955 1.00061 0.38097 0.0
C248 C 0.38592 0.98226 0.41583 0.0
H249 H 0.70438 0.99643 0.54901 0.0
C250 C 0.71653 0.02443 0.52925 0.0
H251 H 0.66418 0.07859 0.49042 0.0
H252 H 0.36416 0.95854 0.5685 0.0
H253 H 0.44675 0.98196 0.63818 0.0
H254 H 0.57951 0.031 0.64785 0.0
H255 H 0.62988 0.05699 0.58732 0.0
C256 C 0.65036 0.05158 0.51066 0.0
C257 C 0.55836 0.03435 0.50484 0.0
C258 C 0.52807 0.02033 0.54017 0.0
C259 C 0.45143 0.99217 0.53439 0.0
C260 C 0.42291 0.97901 0.57059 0.0
C261 C 0.46941 0.99256 0.61098 0.0
C262 C 0.54412 0.02015 0.61644 0.0
C263 C 0.57286 0.03437 0.58153 0.0
H264 H 0.84141 0.58347 0.02626 0.0
C265 C 0.7945 0.55618 0.01297 0.0
H266 H 0.7788 0.48968 0.98679 0.0
H267 H 0.18936 0.55263 0.98702 0.0
H268 H 0.12528 0.60387 0.92992 0.0
H269 H 0.96522 0.61322 0.90747 0.0
H270 H 0.86869 0.57071 0.94169 0.0
C271 C 0.82284 0.51912 -0.00367 0.0
C272 C 0.91829 0.51067 0.00684 0.0
C273 C 0.97355 0.53597 0.98687 0.0
C274 C 0.06569 0.53092 0.00022 0.0
C275 C 0.11923 0.55584 0.97887 0.0
C276 C 0.08314 0.58525 0.94589 0.0
C277 C -0.00694 0.59045 0.9332 0.0
C278 C 0.93849 0.56604 0.95323 0.0
H279 H 0.19147 0.42886 0.02086 0.0
C280 C 0.23412 0.45799 0.03362 0.0
H281 H 0.23914 0.52608 0.05571 0.0
H282 H 0.83014 0.45646 0.05185 0.0
H283 H 0.89451 0.40499 0.10863 0.0
H284 H 0.05463 0.39668 0.13196 0.0
H285 H 0.1515 0.44035 0.09883 0.0
C286 C 0.19892 0.49523 0.04653 0.0
C287 C 0.10236 0.50072 0.03378 0.0
C288 C 0.04689 0.47484 0.05332 0.0
C289 C 0.9546 0.47966 0.03974 0.0
C290 C 0.90066 0.45397 0.06043 0.0
C291 C 0.93675 0.42428 0.09319 0.0
C292 C 0.02692 0.41963 0.10635 0.0
C293 C 0.08172 0.4447 0.08692 0.0
H294 H 0.11468 0.48785 0.4535 0.0
C295 C 0.16622 0.50853 0.47421 0.0
H296 H 0.19663 0.55518 0.52583 0.0
H297 H 0.80131 0.47667 0.41786 0.0
H298 H 0.81887 0.52736 0.36171 0.0
H299 H 0.94147 0.58389 0.37367 0.0
H300 H 0.05016 0.58759 0.44169 0.0
C301 C 0.14627 0.53574 0.50342 0.0
C302 C 0.05541 0.53169 0.50818 0.0
C303 C -0.01357 0.53491 0.47134 0.0
C304 C 0.91188 0.50568 0.46604 0.0
C305 C 0.85438 0.50176 0.42519 0.0
C306 C 0.86467 0.5301 0.39242 0.0
C307 C 0.93382 0.56177 0.39907 0.0
C308 C -0.00487 0.56376 0.43793 0.0
H309 H 0.73742 0.50839 0.46931 0.0
C310 C 0.73928 0.47539 0.48488 0.0
H311 H 0.81644 0.42179 0.51483 0.0
H312 H 0.16735 0.52826 0.58626 0.0
H313 H 0.14169 0.48831 0.64732 0.0
H314 H 0.0018 0.44696 0.64302 0.0
H315 H 0.8885 0.44396 0.57792 0.0
C316 C 0.81536 0.45421 0.49846 0.0
C317 C 0.8987 0.48019 0.50108 0.0
C318 C 0.96181 0.48369 0.54069 0.0
C319 C 0.04122 0.50881 0.54384 0.0
C320 C 0.10598 0.50957 0.58255 0.0
C321 C 0.09176 0.48716 0.61782 0.0
C322 C 0.01303 0.46386 0.61537 0.0
C323 C 0.94849 0.46218 0.57748 0.0
H324 H 0.8668 0.05928 0.32942 0.0
C325 C 0.91548 0.05347 0.35891 0.0
H326 H 0.04962 0.04712 0.38788 0.0
H327 H 0.06855 0.9508 0.21715 0.0
H328 H 0.13622 0.89628 0.27029 0.0
H329 H 0.15482 0.91328 0.34596 0.0
H330 H 0.10639 0.9851 0.36875 0.0
C331 C 0.00072 0.05557 0.35929 0.0
C332 C 0.02289 0.0538 0.3177 0.0
C333 C 0.05466 0.01225 0.30513 0.0
C334 C 0.04262 1.00221 0.26152 0.0
C335 C 0.0738 0.96003 0.24973 0.0
C336 C 0.11338 0.92838 0.27997 0.0
C337 C 0.12384 0.93794 0.32254 0.0
C338 C 0.09514 0.97932 0.33518 0.0
H339 H 0.04922 0.0737 0.1659 0.0
C340 C 0.01561 0.04074 0.15816 0.0
H341 H 0.94788 0.9859 0.17736 0.0
H342 H -0.01903 0.14104 0.33273 0.0
H343 H 0.90784 0.19586 0.27997 0.0
H344 H 0.86974 0.17531 0.20428 0.0
H345 H 0.91038 0.10189 0.18041 0.0
C346 C 0.9778 0.01974 0.18555 0.0
C347 C -0.0016 0.03368 0.23071 0.0
C348 C 0.97349 0.07686 0.24352 0.0
C349 C -0.01052 0.08752 0.2872 0.0
C350 C 0.96705 0.13118 0.29973 0.0
C351 C 0.92555 0.16275 0.26988 0.0
C352 C 0.90492 0.15135 0.22721 0.0
C353 C 0.92877 0.10905 0.21394 0.0
H354 H 0.05086 0.97102 0.8704 0.0
C355 C -0.01871 0.97732 0.86526 0.0
H356 H 0.85741 0.9789 0.82183 0.0
H357 H 0.02395 0.05664 0.68027 0.0
H358 H 0.95404 0.12388 0.69943 0.0
H359 H 0.88567 0.12214 0.75949 0.0
H360 H 0.88761 0.05334 0.80085 0.0
C361 C 0.92687 0.9723 0.8267 0.0
C362 C 0.96145 0.97115 0.78882 0.0
C363 C 0.95694 0.01141 0.76418 0.0
C364 C -0.0051 0.01219 0.72922 0.0
C365 C -0.00612 0.05358 0.70644 0.0
C366 C 0.95442 0.09263 0.71727 0.0
C367 C 0.91603 0.09168 0.75109 0.0
C368 C 0.91744 0.05178 0.7745 0.0
H369 H 0.96421 0.97734 0.63504 0.0
C370 C 0.03528 0.97579 0.64343 0.0
H371 H 0.15075 0.97122 0.69273 0.0
H372 H 0.97523 0.88804 0.82831 0.0
H373 H 0.04374 0.82016 0.80868 0.0
H374 H 0.10801 0.82105 0.7472 0.0
H375 H 0.10464 0.88975 0.70518 0.0
C376 C 0.07978 0.97341 0.68401 0.0
C377 C 0.03504 0.97227 0.71857 0.0
C378 C 0.03764 0.93178 0.74263 0.0
C379 C 0.0007 0.93122 0.77794 0.0
C380 C 0.00338 0.89035 0.80141 0.0
C381 C 0.04212 0.85114 0.79038 0.0
C382 C 0.07834 0.85164 0.75578 0.0
C383 C 0.07619 0.89135 0.73201 0.0
H384 H 0.43005 0.56263 0.35985 0.0
C385 C 0.4845 0.54071 0.37373 0.0
H386 H 0.6037 0.51541 0.36938 0.0
H387 H 0.49228 0.43898 0.18694 0.0
H388 H 0.55029 0.37365 0.22864 0.0
H389 H 0.59123 0.37826 0.3063 0.0
H390 H 0.57653 0.4484 0.34243 0.0
C391 C 0.54686 0.53448 0.35308 0.0
C392 C 0.52119 0.53197 0.30593 0.0
C393 C 0.52602 0.48924 0.28532 0.0
C394 C 0.49895 0.48594 0.24051 0.0
C395 C 0.50969 0.44371 0.22075 0.0
C396 C 0.54305 0.40556 0.24436 0.0
C397 C 0.56627 0.4082 0.28803 0.0
C398 C 0.55783 0.44923 0.30841 0.0
H399 H 0.5502 0.57807 0.17729 0.0
C400 C 0.51739 0.54997 0.15715 0.0
H401 H 0.42725 0.49548 0.15104 0.0
H402 H 0.51261 0.62031 0.33377 0.0
H403 H 0.44179 0.68403 0.292 0.0
H404 H 0.37498 0.67449 0.21564 0.0
H405 H 0.38203 0.60143 0.1804 0.0
C406 C 0.45769 0.52469 0.17019 0.0
C407 C 0.46385 0.52473 0.21642 0.0
C408 C 0.45276 0.5661 0.23718 0.0
C409 C 0.48555 0.57053 0.28163 0.0
C410 C 0.48336 0.61412 0.30058 0.0
C411 C 0.44378 0.65111 0.27687 0.0
C412 C 0.40655 0.64582 0.23385 0.0
C413 C 0.41126 0.60392 0.21402 0.0
H414 H 0.43237 0.50376 0.64106 0.0
C415 C 0.50214 0.49795 0.64631 0.0
H416 H 0.62024 0.48088 0.69039 0.0
H417 H 0.45586 0.57861 0.82885 0.0
H418 H 0.51121 0.64764 0.80251 0.0
H419 H 0.57036 0.64484 0.73951 0.0
H420 H 0.57339 0.57308 0.70222 0.0
C421 C 0.5508 0.48768 0.68491 0.0
C422 C 0.5144 0.48902 0.72218 0.0
C423 C 0.51513 0.53112 0.74401 0.0
C424 C 0.48302 0.53251 0.78075 0.0
C425 C 0.48142 0.5753 0.80126 0.0
C426 C 0.5127 0.61528 0.78638 0.0
C427 C 0.54588 0.61372 0.75089 0.0
C428 C 0.54718 0.57226 0.72978 0.0
H429 H 0.53836 0.49912 0.87777 0.0
C430 C 0.46751 0.49794 0.87247 0.0
H431 H 0.34517 0.49041 0.82761 0.0
H432 H 0.50519 0.40304 0.68721 0.0
H433 H 0.45126 0.33353 0.7139 0.0
H434 H 0.39767 0.3356 0.7786 0.0
H435 H 0.39739 0.40716 0.81691 0.0
C436 C 0.41597 0.49312 0.83322 0.0
C437 C 0.45241 0.49152 0.7959 0.0
C438 C 0.4519 0.44943 0.77408 0.0
C439 C 0.48312 0.44817 0.73704 0.0
C440 C 0.48229 0.40576 0.71566 0.0
C441 C 0.45153 0.36568 0.73062 0.0
C442 C 0.42127 0.36685 0.76703 0.0
C443 C 0.42131 0.40814 0.78866 0.0
loop_
_geom_bond_atom_site_label_1
_geom_bond_atom_site_label_2
_geom_bond_distance
_geom_bond_site_symmetry_2
_ccdc_geom_bond_type
O0 Mg1 1.990 . S
O0 C14 1.253 1_546 S
Mg1 O0 1.990 . S
Mg1 O4 2.180 . S
Mg1 O5 2.117 . S
Mg1 O19 2.030 . S
O2 Mg3 2.072 1_665 S
O2 C14 1.260 . S
Mg3 O2 2.072 1_445 S
Mg3 O4 2.099 1_454 S
Mg3 O6 2.079 . S
Mg3 O7 2.072 1_545 S
Mg3 O9 2.099 . S
Mg3 O20 2.079 . S
O4 Mg1 2.180 . S
O4 Mg3 2.099 1_656 S
O4 C15 1.279 . S
O5 Mg1 2.117 . S
O5 C15 1.250 . S
O6 Mg3 2.079 . S
O6 C16 1.264 . S
O7 Mg3 2.072 1_565 S
O7 C17 1.260 . S
Mg8 O9 2.180 1_565 S
Mg8 O10 2.030 . S
Mg8 O11 1.990 . S
Mg8 O12 2.117 . S
O9 Mg3 2.099 . S
O9 Mg8 2.180 1_545 S
O9 C18 1.279 1_545 S
O10 Mg8 2.030 . S
O10 C16 1.248 1_565 S
O11 Mg8 1.990 . S
O11 C17 1.253 . S
O12 Mg8 2.117 . S
O12 C18 1.250 . S
C13 O19 1.248 1_554 S
C13 O20 1.264 1_655 S
C14 O0 1.253 1_564 S
C14 O2 1.260 . S
C15 O4 1.279 . S
C15 O5 1.250 . S
C16 O6 1.264 . S
C16 O10 1.248 1_545 S
C17 O7 1.260 . S
C17 O11 1.253 . S
C18 O9 1.279 1_565 S
C18 O12 1.250 . S
O19 Mg1 2.030 . S
O19 C13 1.248 1_556 S
O20 Mg3 2.079 . S
O20 C13 1.264 1_455 S
O21 Mg22 1.990 . S
O21 C35 1.253 . S
Mg22 O21 1.990 . S
Mg22 O25 2.180 1_565 S
Mg22 O26 2.117 . S
Mg22 O40 2.030 . S
O23 Mg24 2.072 1_565 S
O23 C35 1.260 . S
Mg24 O23 2.072 1_545 S
Mg24 O25 2.099 . S
Mg24 O27 2.079 1_655 S
Mg24 O28 2.072 1_645 S
Mg24 O30 2.099 1_655 S
Mg24 O41 2.079 . S
O25 Mg22 2.180 1_545 S
O25 Mg24 2.099 . S
O25 C36 1.279 1_545 S
O26 Mg22 2.117 . S
O26 C36 1.250 . S
O27 Mg24 2.079 1_455 S
O27 C37 1.264 . S
O28 Mg24 2.072 1_465 S
O28 C38 1.260 . S
Mg29 O30 2.180 . S
Mg29 O31 2.030 . S
Mg29 O32 1.990 . S
Mg29 O33 2.117 . S
O30 Mg24 2.099 1_455 S
O30 Mg29 2.180 . S
O30 C39 1.279 . S
O31 Mg29 2.030 . S
O31 C37 1.248 . S
O32 Mg29 1.990 . S
O32 C38 1.253 1_545 S
O33 Mg29 2.117 . S
O33 C39 1.250 . S
C34 O40 1.248 1_545 S
C34 O41 1.264 . S
C35 O21 1.253 . S
C35 O23 1.260 . S
C36 O25 1.279 1_565 S
C36 O26 1.250 . S
C37 O27 1.264 . S
C37 O31 1.248 . S
C38 O28 1.260 . S
C38 O32 1.253 1_565 S
C39 O30 1.279 . S
C39 O33 1.250 . S
O40 Mg22 2.030 . S
O40 C34 1.248 1_565 S
O41 Mg24 2.079 . S
O41 C34 1.264 . S
O42 Mg43 1.990 . S
O42 C56 1.253 1_556 S
Mg43 O42 1.990 . S
Mg43 O46 2.180 . S
Mg43 O47 2.117 . S
Mg43 O61 2.030 . S
O44 Mg45 2.072 . S
O44 C56 1.260 . S
Mg45 O44 2.072 . S
Mg45 O46 2.099 1_554 S
Mg45 O48 2.079 . S
Mg45 O49 2.072 . S
Mg45 O51 2.099 . S
Mg45 O62 2.079 . S
O46 Mg43 2.180 . S
O46 Mg45 2.099 1_556 S
O46 C57 1.279 . S
O47 Mg43 2.117 . S
O47 C57 1.250 . S
O48 Mg45 2.079 . S
O48 C58 1.264 . S
O49 Mg45 2.072 . S
O49 C59 1.260 . S
Mg50 O51 2.180 . S
Mg50 O52 2.030 . S
Mg50 O53 1.990 . S
Mg50 O54 2.117 . S
O51 Mg45 2.099 . S
O51 Mg50 2.180 . S
O51 C60 1.279 . S
O52 Mg50 2.030 . S
O52 C58 1.248 . S
O53 Mg50 1.990 . S
O53 C59 1.253 . S
O54 Mg50 2.117 . S
O54 C60 1.250 . S
C55 O61 1.248 1_554 S
C55 O62 1.264 . S
C56 O42 1.253 1_554 S
C56 O44 1.260 . S
C57 O46 1.279 . S
C57 O47 1.250 . S
C58 O48 1.264 . S
C58 O52 1.248 . S
C59 O49 1.260 . S
C59 O53 1.253 . S
C60 O51 1.279 . S
C60 O54 1.250 . S
O61 Mg43 2.030 . S
O61 C55 1.248 1_556 S
O62 Mg45 2.079 . S
O62 C55 1.264 . S
O63 Mg64 1.990 . S
O63 C77 1.253 . S
Mg64 O63 1.990 . S
Mg64 O67 2.180 . S
Mg64 O68 2.117 . S
Mg64 O82 2.030 . S
O65 Mg66 2.072 . S
O65 C77 1.260 . S
Mg66 O65 2.072 . S
Mg66 O67 2.099 . S
Mg66 O69 2.079 . S
Mg66 O70 2.072 . S
Mg66 O72 2.099 . S
Mg66 O83 2.079 . S
O67 Mg64 2.180 . S
O67 Mg66 2.099 . S
O67 C78 1.279 . S
O68 Mg64 2.117 . S
O68 C78 1.250 . S
O69 Mg66 2.079 . S
O69 C79 1.264 . S
O70 Mg66 2.072 . S
O70 C80 1.260 . S
Mg71 O72 2.180 . S
Mg71 O73 2.030 . S
Mg71 O74 1.990 . S
Mg71 O75 2.117 . S
O72 Mg66 2.099 . S
O72 Mg71 2.180 . S
O72 C81 1.279 . S
O73 Mg71 2.030 . S
O73 C79 1.248 . S
O74 Mg71 1.990 . S
O74 C80 1.253 . S
O75 Mg71 2.117 . S
O75 C81 1.250 . S
C76 O82 1.248 . S
C76 O83 1.264 . S
C77 O63 1.253 . S
C77 O65 1.260 . S
C78 O67 1.279 . S
C78 O68 1.250 . S
C79 O69 1.264 . S
C79 O73 1.248 . S
C80 O70 1.260 . S
C80 O74 1.253 . S
C81 O72 1.279 . S
C81 O75 1.250 . S
O82 Mg64 2.030 . S
O82 C76 1.248 . S
O83 Mg66 2.079 . S
O83 C76 1.264 . S
H84 C85 0.951 . S
C85 H84 0.951 . S
C85 C91 1.265 . S
H86 C91 0.950 . S
H87 C95 0.949 . S
H88 C96 0.950 . S
H89 C97 0.951 . S
H90 C98 0.951 . S
C91 C85 1.265 . S
C91 H86 0.950 . S
C91 C92 1.478 . S
C92 C91 1.478 . S
C92 C93 1.397 . S
C92 C109 1.394 1_554 S
C93 C92 1.397 . S
C93 C94 1.438 . S
C93 C98 1.429 . S
C94 C93 1.438 . S
C94 C95 1.428 . S
C94 C107 1.394 . S
C95 H87 0.949 . S
C95 C94 1.428 . S
C95 C96 1.345 . S
C96 H88 0.950 . S
C96 C95 1.345 . S
C96 C97 1.424 . S
C97 H89 0.951 . S
C97 C96 1.424 . S
C97 C98 1.347 . S
C98 H90 0.951 . S
C98 C93 1.429 . S
C98 C97 1.347 . S
H99 C100 0.951 . S
C100 H99 0.951 . S
C100 C106 1.265 . S
H101 C106 0.950 . S
H102 C110 0.949 . S
H103 C111 0.950 . S
H104 C112 0.951 . S
H105 C113 0.951 . S
C106 C100 1.265 . S
C106 H101 0.950 . S
C106 C107 1.478 . S
C107 C94 1.394 . S
C107 C106 1.478 . S
C107 C108 1.397 1_554 S
C108 C107 1.397 1_556 S
C108 C109 1.438 . S
C108 C113 1.429 . S
C109 C92 1.394 1_556 S
C109 C108 1.438 . S
C109 C110 1.428 . S
C110 H102 0.949 . S
C110 C109 1.428 . S
C110 C111 1.345 . S
C111 H103 0.950 . S
C111 C110 1.345 . S
C111 C112 1.424 . S
C112 H104 0.951 . S
C112 C111 1.424 . S
C112 C113 1.347 . S
C113 H105 0.951 . S
C113 C108 1.429 . S
C113 C112 1.347 . S
H114 C115 0.951 . S
C115 H114 0.951 . S
C115 C121 1.265 . S
H116 C121 0.950 . S
H117 C125 0.949 . S
H118 C126 0.950 . S
H119 C127 0.951 . S
H120 C128 0.951 . S
C121 C115 1.265 . S
C121 H116 0.950 . S
C121 C122 1.478 . S
C122 C121 1.478 . S
C122 C123 1.397 . S
C122 C139 1.394 1_554 S
C123 C122 1.397 . S
C123 C124 1.438 . S
C123 C128 1.429 . S
C124 C123 1.438 . S
C124 C125 1.428 . S
C124 C137 1.394 . S
C125 H117 0.949 . S
C125 C124 1.428 . S
C125 C126 1.345 . S
C126 H118 0.950 . S
C126 C125 1.345 . S
C126 C127 1.424 . S
C127 H119 0.951 . S
C127 C126 1.424 . S
C127 C128 1.347 . S
C128 H120 0.951 . S
C128 C123 1.429 . S
C128 C127 1.347 . S
H129 C130 0.951 . S
C130 H129 0.951 . S
C130 C136 1.265 . S
H131 C136 0.950 . S
H132 C140 0.949 . S
H133 C141 0.950 . S
H134 C142 0.951 . S
H135 C143 0.951 . S
C136 C130 1.265 . S
C136 H131 0.950 . S
C136 C137 1.478 . S
C137 C124 1.394 . S
C137 C136 1.478 . S
C137 C138 1.397 1_554 S
C138 C137 1.397 1_556 S
C138 C139 1.438 . S
C138 C143 1.429 . S
C139 C122 1.394 1_556 S
C139 C138 1.438 . S
C139 C140 1.428 . S
C140 H132 0.949 . S
C140 C139 1.428 . S
C140 C141 1.345 . S
C141 H133 0.950 . S
C141 C140 1.345 . S
C141 C142 1.424 . S
C142 H134 0.951 . S
C142 C141 1.424 . S
C142 C143 1.347 . S
C143 H135 0.951 . S
C143 C138 1.429 . S
C143 C142 1.347 . S
H144 C145 0.951 . S
C145 H144 0.951 . S
C145 C151 1.265 . S
H146 C151 0.950 . S
H147 C155 0.949 . S
H148 C156 0.950 . S
H149 C157 0.951 . S
H150 C158 0.951 . S
C151 C145 1.265 . S
C151 H146 0.950 . S
C151 C152 1.478 . S
C152 C151 1.478 . S
C152 C153 1.397 . S
C152 C169 1.394 . S
C153 C152 1.397 . S
C153 C154 1.438 . S
C153 C158 1.429 . S
C154 C153 1.438 . S
C154 C155 1.428 . S
C154 C167 1.394 . S
C155 H147 0.949 . S
C155 C154 1.428 . S
C155 C156 1.345 . S
C156 H148 0.950 . S
C156 C155 1.345 . S
C156 C157 1.424 . S
C157 H149 0.951 . S
C157 C156 1.424 . S
C157 C158 1.347 . S
C158 H150 0.951 . S
C158 C153 1.429 . S
C158 C157 1.347 . S
H159 C160 0.951 . S
C160 H159 0.951 . S
C160 C166 1.265 . S
H161 C166 0.950 . S
H162 C170 0.949 . S
H163 C171 0.950 . S
H164 C172 0.951 . S
H165 C173 0.951 . S
C166 C160 1.265 . S
C166 H161 0.950 . S
C166 C167 1.478 . S
C167 C154 1.394 . S
C167 C166 1.478 . S
C167 C168 1.397 . S
C168 C167 1.397 . S
C168 C169 1.438 . S
C168 C173 1.429 . S
C169 C152 1.394 . S
C169 C168 1.438 . S
C169 C170 1.428 . S
C170 H162 0.949 . S
C170 C169 1.428 . S
C170 C171 1.345 . S
C171 H163 0.950 . S
C171 C170 1.345 . S
C171 C172 1.424 . S
C172 H164 0.951 . S
C172 C171 1.424 . S
C172 C173 1.347 . S
C173 H165 0.951 . S
C173 C168 1.429 . S
C173 C172 1.347 . S
H174 C175 0.951 . S
C175 H174 0.951 . S
C175 C181 1.265 . S
H176 C181 0.950 . S
H177 C185 0.949 . S
H178 C186 0.950 . S
H179 C187 0.951 . S
H180 C188 0.951 . S
C181 C175 1.265 . S
C181 H176 0.950 . S
C181 C182 1.478 . S
C182 C181 1.478 . S
C182 C183 1.397 . S
C182 C199 1.394 . S
C183 C182 1.397 . S
C183 C184 1.438 . S
C183 C188 1.429 . S
C184 C183 1.438 . S
C184 C185 1.428 . S
C184 C197 1.394 . S
C185 H177 0.949 . S
C185 C184 1.428 . S
C185 C186 1.345 . S
C186 H178 0.950 . S
C186 C185 1.345 . S
C186 C187 1.424 . S
C187 H179 0.951 . S
C187 C186 1.424 . S
C187 C188 1.347 . S
C188 H180 0.951 . S
C188 C183 1.429 . S
C188 C187 1.347 . S
H189 C190 0.951 . S
C190 H189 0.951 . S
C190 C196 1.265 . S
H191 C196 0.950 . S
H192 C200 0.949 . S
H193 C201 0.950 . S
H194 C202 0.951 . S
H195 C203 0.951 . S
C196 C190 1.265 . S
C196 H191 0.950 . S
C196 C197 1.478 . S
C197 C184 1.394 . S
C197 C196 1.478 . S
C197 C198 1.397 . S
C198 C197 1.397 . S
C198 C199 1.438 . S
C198 C203 1.429 . S
C199 C182 1.394 . S
C199 C198 1.438 . S
C199 C200 1.428 . S
C200 H192 0.949 . S
C200 C199 1.428 . S
C200 C201 1.345 . S
C201 H193 0.950 . S
C201 C200 1.345 . S
C201 C202 1.424 . S
C202 H194 0.951 . S
C202 C201 1.424 . S
C202 C203 1.347 . S
C203 H195 0.951 . S
C203 C198 1.429 . S
C203 C202 1.347 . S
H204 C205 0.951 1_556 S
C205 H204 0.951 1_554 S
C205 C211 1.265 . S
H206 C211 0.950 . S
H207 C215 0.949 . S
H208 C216 0.950 . S
H209 C217 0.951 . S
H210 C218 0.951 . S
C211 C205 1.265 . S
C211 H206 0.950 . S
C211 C212 1.478 . S
C212 C211 1.478 . S
C212 C213 1.397 1_545 S
C212 C229 1.394 . S
C213 C212 1.397 1_565 S
C213 C214 1.438 . S
C213 C218 1.429 . S
C214 C213 1.438 . S
C214 C215 1.428 . S
C214 C227 1.394 1_565 S
C215 H207 0.949 . S
C215 C214 1.428 . S
C215 C216 1.345 . S
C216 H208 0.950 . S
C216 C215 1.345 . S
C216 C217 1.424 . S
C217 H209 0.951 . S
C217 C216 1.424 . S
C217 C218 1.347 . S
C218 H210 0.951 . S
C218 C213 1.429 . S
C218 C217 1.347 . S
H219 C220 0.951 . S
C220 H219 0.951 . S
C220 C226 1.265 1_554 S
H221 C226 0.950 . S
H222 C230 0.949 . S
H223 C231 0.950 . S
H224 C232 0.951 . S
H225 C233 0.951 . S
C226 C220 1.265 1_556 S
C226 H221 0.950 . S
C226 C227 1.478 1_566 S
C227 C214 1.394 1_545 S
C227 C226 1.478 1_544 S
C227 C228 1.396 1_554 S
C228 C227 1.396 1_556 S
C228 C229 1.436 1_556 S
C228 C233 1.431 . S
C229 C212 1.394 . S
C229 C228 1.436 1_554 S
C229 C230 1.428 . S
C230 H222 0.949 . S
C230 C229 1.428 . S
C230 C231 1.345 1_554 S
C231 H223 0.950 . S
C231 C230 1.345 1_556 S
C231 C232 1.424 . S
C232 H224 0.951 . S
C232 C231 1.424 . S
C232 C233 1.347 . S
C233 H225 0.951 . S
C233 C228 1.431 . S
C233 C232 1.347 . S
H234 C235 0.951 1_545 S
C235 H234 0.951 1_565 S
C235 C241 1.265 . S
H236 C241 0.950 . S
H237 C245 0.949 . S
H238 C246 0.950 . S
H239 C247 0.951 . S
H240 C248 0.948 1_565 S
C241 C235 1.265 . S
C241 H236 0.950 . S
C241 C242 1.478 . S
C242 C241 1.478 . S
C242 C243 1.397 1_565 S
C242 C259 1.394 . S
C243 C242 1.397 1_545 S
C243 C244 1.438 . S
C243 C248 1.429 . S
C244 C243 1.438 . S
C244 C245 1.428 . S
C244 C257 1.394 . S
C245 H237 0.949 . S
C245 C244 1.428 . S
C245 C246 1.345 . S
C246 H238 0.950 . S
C246 C245 1.345 . S
C246 C247 1.424 . S
C247 H239 0.951 . S
C247 C246 1.424 . S
C247 C248 1.347 . S
C248 H240 0.948 1_545 S
C248 C243 1.429 . S
C248 C247 1.347 . S
H249 C250 0.951 1_565 S
C250 H249 0.951 1_545 S
C250 C256 1.265 . S
H251 C256 0.950 . S
H252 C260 0.949 . S
H253 C261 0.950 . S
H254 C262 0.951 . S
H255 C263 0.951 . S
C256 C250 1.265 . S
C256 H251 0.950 . S
C256 C257 1.478 . S
C257 C244 1.394 . S
C257 C256 1.478 . S
C257 C258 1.397 . S
C258 C257 1.397 . S
C258 C259 1.438 1_545 S
C258 C263 1.429 . S
C259 C242 1.394 . S
C259 C258 1.438 1_565 S
C259 C260 1.428 . S
C260 H252 0.949 . S
C260 C259 1.428 . S
C260 C261 1.345 . S
C261 H253 0.950 . S
C261 C260 1.345 . S
C261 C262 1.424 . S
C262 H254 0.951 . S
C262 C261 1.424 . S
C262 C263 1.347 1_565 S
C263 H255 0.951 . S
C263 C258 1.429 . S
C263 C262 1.347 1_545 S
H264 C265 0.951 . S
C265 H264 0.951 . S
C265 C271 1.265 . S
H266 C271 0.950 1_556 S
H267 C275 0.949 . S
H268 C276 0.950 . S
H269 C277 0.951 . S
H270 C278 0.951 . S
C271 C265 1.265 . S
C271 H266 0.950 1_554 S
C271 C272 1.478 . S
C272 C271 1.478 . S
C272 C273 1.397 1_554 S
C272 C289 1.394 . S
C273 C272 1.397 1_556 S
C273 C274 1.438 1_655 S
C273 C278 1.429 . S
C274 C273 1.438 1_455 S
C274 C275 1.428 . S
C274 C287 1.394 1_556 S
C275 H267 0.949 . S
C275 C274 1.428 . S
C275 C276 1.345 . S
C276 H268 0.950 . S
C276 C275 1.345 . S
C276 C277 1.424 1_455 S
C277 H269 0.951 . S
C277 C276 1.424 1_655 S
C277 C278 1.347 . S
C278 H270 0.951 . S
C278 C273 1.429 . S
C278 C277 1.347 . S
H279 C280 0.951 1_556 S
C280 H279 0.951 1_554 S
C280 C286 1.265 . S
H281 C286 0.950 . S
H282 C290 0.949 . S
H283 C291 0.950 . S
H284 C292 0.951 . S
H285 C293 0.951 . S
C286 C280 1.265 . S
C286 H281 0.950 . S
C286 C287 1.478 . S
C287 C274 1.394 1_554 S
C287 C286 1.478 . S
C287 C288 1.397 . S
C288 C287 1.397 . S
C288 C289 1.438 1_455 S
C288 C293 1.429 . S
C289 C272 1.394 . S
C289 C288 1.438 1_655 S
C289 C290 1.428 . S
C290 H282 0.949 . S
C290 C289 1.428 . S
C290 C291 1.345 . S
C291 H283 0.950 . S
C291 C290 1.345 . S
C291 C292 1.424 1_655 S
C292 H284 0.951 . S
C292 C291 1.424 1_455 S
C292 C293 1.347 . S
C293 H285 0.951 . S
C293 C288 1.429 . S
C293 C292 1.347 . S
H294 C295 0.951 . S
C295 H294 0.951 . S
C295 C301 1.265 . S
H296 C301 0.950 . S
H297 C305 0.949 . S
H298 C306 0.950 . S
H299 C307 0.951 . S
H300 C308 0.951 . S
C301 C295 1.265 . S
C301 H296 0.950 . S
C301 C302 1.478 . S
C302 C301 1.478 . S
C302 C303 1.397 . S
C302 C319 1.394 . S
C303 C302 1.397 . S
C303 C304 1.438 1_455 S
C303 C308 1.429 . S
C304 C303 1.438 1_655 S
C304 C305 1.428 . S
C304 C317 1.394 . S
C305 H297 0.949 . S
C305 C304 1.428 . S
C305 C306 1.345 . S
C306 H298 0.950 . S
C306 C305 1.345 . S
C306 C307 1.424 . S
C307 H299 0.951 . S
C307 C306 1.424 . S
C307 C308 1.347 1_655 S
C308 H300 0.951 . S
C308 C303 1.429 . S
C308 C307 1.347 1_455 S
H309 C310 0.951 . S
C310 H309 0.951 . S
C310 C316 1.265 . S
H311 C316 0.950 . S
H312 C320 0.949 . S
H313 C321 0.950 . S
H314 C322 0.951 . S
H315 C323 0.951 . S
C316 C310 1.265 . S
C316 H311 0.950 . S
C316 C317 1.478 . S
C317 C304 1.394 . S
C317 C316 1.478 . S
C317 C318 1.397 . S
C318 C317 1.397 . S
C318 C319 1.438 1_655 S
C318 C323 1.429 . S
C319 C302 1.394 . S
C319 C318 1.438 1_455 S
C319 C320 1.428 . S
C320 H312 0.949 . S
C320 C319 1.428 . S
C320 C321 1.345 . S
C321 H313 0.950 . S
C321 C320 1.345 . S
C321 C322 1.424 . S
C322 H314 0.951 . S
C322 C321 1.424 . S
C322 C323 1.347 1_455 S
C323 H315 0.951 . S
C323 C318 1.429 . S
C323 C322 1.347 1_655 S
H324 C325 0.959 1_565 S
C325 H324 0.959 1_545 S
C325 C331 1.257 1_655 S
H326 C331 0.950 . S
H327 C335 0.949 . S
H328 C336 0.950 . S
H329 C337 0.951 . S
H330 C338 0.951 . S
C331 C325 1.257 1_455 S
C331 H326 0.950 . S
C331 C332 1.478 . S
C332 C331 1.478 . S
C332 C333 1.383 1_545 S
C332 C349 1.407 1_455 S
C333 C332 1.383 1_565 S
C333 C334 1.438 . S
C333 C338 1.429 . S
C334 C333 1.438 . S
C334 C335 1.428 . S
C334 C347 1.383 1_465 S
C335 H327 0.949 . S
C335 C334 1.428 . S
C335 C336 1.345 . S
C336 H328 0.950 . S
C336 C335 1.345 . S
C336 C337 1.424 . S
C337 H329 0.951 . S
C337 C336 1.424 . S
C337 C338 1.347 . S
C338 H330 0.951 . S
C338 C333 1.429 . S
C338 C337 1.347 . S
H339 C340 0.951 . S
C340 H339 0.951 . S
C340 C346 1.265 1_455 S
H341 C346 0.950 . S
H342 C350 0.949 . S
H343 C351 0.950 . S
H344 C352 0.951 . S
H345 C353 0.951 . S
C346 C340 1.265 1_655 S
C346 H341 0.950 . S
C346 C347 1.478 . S
C347 C334 1.383 1_645 S
C347 C346 1.478 . S
C347 C348 1.408 . S
C348 C347 1.408 . S
C348 C349 1.438 . S
C348 C353 1.429 . S
C349 C332 1.407 1_655 S
C349 C348 1.438 . S
C349 C350 1.428 . S
C350 H342 0.949 . S
C350 C349 1.428 . S
C350 C351 1.345 . S
C351 H343 0.950 . S
C351 C350 1.345 . S
C351 C352 1.424 . S
C352 H344 0.951 . S
C352 C351 1.424 . S
C352 C353 1.347 . S
C353 H345 0.951 . S
C353 C348 1.429 . S
C353 C352 1.347 . S
H354 C355 0.951 . S
C355 H354 0.951 . S
C355 C361 1.265 1_455 S
H356 C361 0.950 1_545 S
H357 C365 0.949 1_455 S
H358 C366 0.950 . S
H359 C367 0.951 . S
H360 C368 0.951 . S
C361 C355 1.265 1_655 S
C361 H356 0.950 1_565 S
C361 C362 1.478 . S
C362 C361 1.478 . S
C362 C363 1.397 1_565 S
C362 C379 1.394 1_655 S
C363 C362 1.397 1_545 S
C363 C364 1.438 1_655 S
C363 C368 1.429 . S
C364 C363 1.438 1_455 S
C364 C365 1.428 1_455 S
C364 C377 1.394 1_545 S
C365 H357 0.949 1_655 S
C365 C364 1.428 1_655 S
C365 C366 1.345 . S
C366 H358 0.950 . S
C366 C365 1.345 . S
C366 C367 1.424 . S
C367 H359 0.951 . S
C367 C366 1.424 . S
C367 C368 1.347 . S
C368 H360 0.951 . S
C368 C363 1.429 . S
C368 C367 1.347 . S
H369 C370 0.951 1_655 S
C370 H369 0.951 1_455 S
C370 C376 1.265 . S
H371 C376 0.950 . S
H372 C380 0.949 . S
H373 C381 0.950 . S
H374 C382 0.951 . S
H375 C383 0.951 . S
C376 C370 1.265 . S
C376 H371 0.950 . S
C376 C377 1.478 . S
C377 C364 1.394 1_565 S
C377 C376 1.478 . S
C377 C378 1.397 . S
C378 C377 1.397 . S
C378 C379 1.438 . S
C378 C383 1.429 . S
C379 C362 1.394 1_455 S
C379 C378 1.438 . S
C379 C380 1.428 . S
C380 H372 0.949 . S
C380 C379 1.428 . S
C380 C381 1.345 . S
C381 H373 0.950 . S
C381 C380 1.345 . S
C381 C382 1.424 . S
C382 H374 0.951 . S
C382 C381 1.424 . S
C382 C383 1.347 . S
C383 H375 0.951 . S
C383 C378 1.429 . S
C383 C382 1.347 . S
H384 C385 0.951 . S
C385 H384 0.951 . S
C385 C391 1.265 . S
H386 C391 0.950 . S
H387 C395 0.949 . S
H388 C396 0.950 . S
H389 C397 0.951 . S
H390 C398 0.951 . S
C391 C385 1.265 . S
C391 H386 0.950 . S
C391 C392 1.478 . S
C392 C391 1.478 . S
C392 C393 1.397 . S
C392 C409 1.394 . S
C393 C392 1.397 . S
C393 C394 1.438 . S
C393 C398 1.429 . S
C394 C393 1.438 . S
C394 C395 1.428 . S
C394 C407 1.394 . S
C395 H387 0.949 . S
C395 C394 1.428 . S
C395 C396 1.345 . S
C396 H388 0.950 . S
C396 C395 1.345 . S
C396 C397 1.424 . S
C397 H389 0.951 . S
C397 C396 1.424 . S
C397 C398 1.347 . S
C398 H390 0.951 . S
C398 C393 1.429 . S
C398 C397 1.347 . S
H399 C400 0.951 . S
C400 H399 0.951 . S
C400 C406 1.265 . S
H401 C406 0.950 . S
H402 C410 0.949 . S
H403 C411 0.950 . S
H404 C412 0.951 . S
H405 C413 0.951 . S
C406 C400 1.265 . S
C406 H401 0.950 . S
C406 C407 1.478 . S
C407 C394 1.394 . S
C407 C406 1.478 . S
C407 C408 1.397 . S
C408 C407 1.397 . S
C408 C409 1.438 . S
C408 C413 1.429 . S
C409 C392 1.394 . S
C409 C408 1.438 . S
C409 C410 1.428 . S
C410 H402 0.949 . S
C410 C409 1.428 . S
C410 C411 1.345 . S
C411 H403 0.950 . S
C411 C410 1.345 . S
C411 C412 1.424 . S
C412 H404 0.951 . S
C412 C411 1.424 . S
C412 C413 1.347 . S
C413 H405 0.951 . S
C413 C408 1.429 . S
C413 C412 1.347 . S
H414 C415 0.951 . S
C415 H414 0.951 . S
C415 C421 1.265 . S
H416 C421 0.950 . S
H417 C425 0.949 . S
H418 C426 0.950 . S
H419 C427 0.951 . S
H420 C428 0.951 . S
C421 C415 1.265 . S
C421 H416 0.950 . S
C421 C422 1.478 . S
C422 C421 1.478 . S
C422 C423 1.397 . S
C422 C439 1.394 . S
C423 C422 1.397 . S
C423 C424 1.438 . S
C423 C428 1.429 . S
C424 C423 1.438 . S
C424 C425 1.428 . S
C424 C437 1.394 . S
C425 H417 0.949 . S
C425 C424 1.428 . S
C425 C426 1.345 . S
C426 H418 0.950 . S
C426 C425 1.345 . S
C426 C427 1.424 . S
C427 H419 0.951 . S
C427 C426 1.424 . S
C427 C428 1.347 . S
C428 H420 0.951 . S
C428 C423 1.429 . S
C428 C427 1.347 . S
H429 C430 0.951 . S
C430 H429 0.951 . S
C430 C436 1.265 . S
H431 C436 0.950 . S
H432 C440 0.949 . S
H433 C441 0.950 . S
H434 C442 0.951 . S
H435 C443 0.951 . S
C436 C430 1.265 . S
C436 H431 0.950 . S
C436 C437 1.478 . S
C437 C424 1.394 . S
C437 C436 1.478 . S
C437 C438 1.397 . S
C438 C437 1.397 . S
C438 C439 1.438 . S
C438 C443 1.429 . S
C439 C422 1.394 . S
C439 C438 1.438 . S
C439 C440 1.428 . S
C440 H432 0.949 . S
C440 C439 1.428 . S
C440 C441 1.345 . S
C441 H433 0.950 . S
C441 C440 1.345 . S
C441 C442 1.424 . S
C442 H434 0.951 . S
C442 C441 1.424 . S
C442 C443 1.347 . S
C443 H435 0.951 . S
C443 C438 1.429 . S
C443 C442 1.347 . S
C85 C55 1.496 . S
C100 C17 1.488 . S
C115 C59 1.496 . S
C130 C13 1.502 . S
C145 C37 1.410 . S
C160 C77 1.435 . S
C175 C35 1.497 . S
C190 C79 1.503 . S
C205 C16 0.962 . S
C220 C14 0.981 . S
C235 C38 0.835 . S
C250 C34 0.816 . S
C265 C58 0.903 . S
C280 C56 0.883 . S
C295 C76 0.827 . S
C310 C80 0.858 . S
C325 C36 1.208 1_545 S
C340 C18 1.213 1_545 S
C355 C15 1.379 1_465 S
C370 C39 1.367 1_565 S
C385 C78 1.211 . S
C400 C60 1.206 . S
C415 C81 1.381 . S
C430 C57 1.363 . S
