# Generated by pormake.
# Topology npo, (4)-cn, num edge types: 1
# Building blocks:
#     Node 0, Type 0, BuildingBlock: GALJAG_clean_sbu_0, # of connection points: 4
#     Node 1, Type 0, BuildingBlock: GALJAG_clean_sbu_0, # of connection points: 4
#     Node 2, Type 0, BuildingBlock: GALJAG_clean_sbu_0, # of connection points: 4
#     Node 3, Type 0, BuildingBlock: GALJAG_clean_sbu_0, # of connection points: 4
#     Node 4, Type 0, BuildingBlock: GALJAG_clean_sbu_0, # of connection points: 4
#     Node 5, Type 0, BuildingBlock: GALJAG_clean_sbu_0, # of connection points: 4
#     Edge 6, Type (0, 0), BuildingBlock: MIFKUJ_clean_linker_0, # of connection points: 2
#     Edge 7, Type (0, 0), BuildingBlock: MIFKUJ_clean_linker_0, # of connection points: 2
#     Edge 8, Type (0, 0), BuildingBlock: MIFKUJ_clean_linker_0, # of connection points: 2
#     Edge 9, Type (0, 0), BuildingBlock: MIFKUJ_clean_linker_0, # of connection points: 2
#     Edge 10, Type (0, 0), BuildingBlock: MIFKUJ_clean_linker_0, # of connection points: 2
#     Edge 11, Type (0, 0), BuildingBlock: MIFKUJ_clean_linker_0, # of connection points: 2
#     Edge 12, Type (0, 0), BuildingBlock: MIFKUJ_clean_linker_0, # of connection points: 2
#     Edge 13, Type (0, 0), BuildingBlock: MIFKUJ_clean_linker_0, # of connection points: 2
#     Edge 14, Type (0, 0), BuildingBlock: MIFKUJ_clean_linker_0, # of connection points: 2
#     Edge 15, Type (0, 0), BuildingBlock: MIFKUJ_clean_linker_0, # of connection points: 2
#     Edge 16, Type (0, 0), BuildingBlock: MIFKUJ_clean_linker_0, # of connection points: 2
#     Edge 17, Type (0, 0), BuildingBlock: MIFKUJ_clean_linker_0, # of connection points: 2
# Relax obj value: 0.168
# Max RMSD: 0.202
# Mean RMSD: 0.202
data_MOF--net-npo--node1-GALJAG_clean_sbu_0--edge1-MIFKUJ_clean_linker_0
_symmetry_space_group_name_H-M    P1
_symmetry_Int_Tables_number       1
_symmetry_cell_setting            triclinic
loop_
_symmetry_equiv_pos_as_xyz
'x, y, z'
_cell_length_a     61.017676
_cell_length_b     60.83728
_cell_length_c     28.037912
_cell_angle_alpha  90.174346
_cell_angle_beta   89.828763
_cell_angle_gamma 120.02901
loop_
_atom_site_label
_atom_site_type_symbol
_atom_site_fract_x
_atom_site_fract_y
_atom_site_fract_z
_atom_type_partial_charge
In0 In 0.54853 0.12398 0.24994 0.0
O1 O 0.55097 0.11143 0.17458 0.0
O2 O 0.51701 0.08904 0.21362 0.0
C3 C 0.52931 0.15524 0.25918 0.0
C4 C 0.53872 0.09196 0.32314 0.0
C5 C 0.59868 0.15515 0.24032 0.0
O6 O 0.51951 0.13607 0.23227 0.0
O7 O 0.54851 0.15843 0.28167 0.0
O8 O 0.5889 0.14232 0.2776 0.0
O9 O 0.58316 0.15204 0.20773 0.0
C10 C 0.5292 0.09201 0.17554 0.0
O11 O 0.55261 0.09347 0.28846 0.0
O12 O 0.5302 0.10705 0.32143 0.0
In13 In 0.4291 0.56343 0.7368 0.0
O14 O 0.44138 0.535 0.71595 0.0
O15 O 0.45136 0.56598 0.66939 0.0
C16 C 0.38101 0.54597 0.70874 0.0
C17 C 0.43095 0.54717 0.82487 0.0
C18 C 0.45204 0.61443 0.74144 0.0
O19 O 0.39885 0.55235 0.67924 0.0
O20 O 0.3875 0.54844 0.75196 0.0
O21 O 0.46409 0.6027 0.7455 0.0
O22 O 0.42851 0.60045 0.73547 0.0
C23 C 0.45241 0.54624 0.67818 0.0
O24 O 0.44546 0.56973 0.81157 0.0
O25 O 0.41516 0.53298 0.79401 0.0
In26 In 0.86342 0.43985 0.25105 0.0
O27 O 0.88933 0.43213 0.20425 0.0
O28 O 0.89588 0.46985 0.20663 0.0
C29 C 0.82686 0.3908 0.24622 0.0
C30 C 0.8898 0.45111 0.33268 0.0
C31 C 0.8342 0.46095 0.23843 0.0
O32 O 0.8371 0.40389 0.20943 0.0
O33 O 0.835 0.40249 0.28515 0.0
O34 O 0.83915 0.45578 0.27912 0.0
O35 O 0.84432 0.45582 0.20414 0.0
C36 C 0.90259 0.45477 0.19042 0.0
O37 O 0.88466 0.46655 0.31268 0.0
O38 O 0.88152 0.43011 0.31159 0.0
In39 In 0.4401 0.86522 0.74803 0.0
O40 O 0.4355 0.87714 0.82276 0.0
O41 O 0.4688 0.90189 0.78394 0.0
C42 C 0.39113 0.82972 0.73537 0.0
C43 C 0.44807 0.89385 0.67004 0.0
C44 C 0.46612 0.8411 0.76493 0.0
O45 O 0.39791 0.84955 0.75965 0.0
O46 O 0.40904 0.82782 0.71721 0.0
O47 O 0.47206 0.85721 0.73202 0.0
O48 O 0.44716 0.8373 0.78941 0.0
C49 C 0.45613 0.89791 0.8217 0.0
O50 O 0.45616 0.87846 0.6734 0.0
O51 O 0.43557 0.89431 0.7055 0.0
In52 In 0.54981 0.43198 0.23153 0.0
O53 O 0.55027 0.45953 0.17671 0.0
O54 O 0.51534 0.42559 0.18861 0.0
C55 C 0.59988 0.44964 0.22257 0.0
C56 C 0.54446 0.45202 0.31334 0.0
C57 C 0.52803 0.38107 0.22673 0.0
O58 O 0.5855 0.44466 0.18707 0.0
O59 O 0.58898 0.44561 0.26249 0.0
O60 O 0.52032 0.392 0.25479 0.0
O61 O 0.54646 0.39581 0.20071 0.0
C62 C 0.52711 0.44636 0.16654 0.0
O63 O 0.54336 0.43076 0.31185 0.0
O64 O 0.54841 0.46313 0.27373 0.0
In65 In 0.11933 0.55355 0.75171 0.0
O66 O 0.10228 0.52636 0.81445 0.0
O67 O 0.10009 0.56012 0.81518 0.0
C68 C 0.15091 0.53793 0.71966 0.0
C69 C 0.07925 0.5349 0.69287 0.0
C70 C 0.15394 0.60314 0.75751 0.0
O71 O 0.14282 0.53444 0.76203 0.0
O72 O 0.14268 0.5489 0.69315 0.0
O73 O 0.13695 0.59437 0.72591 0.0
O74 O 0.15316 0.58693 0.78649 0.0
C75 C 0.09487 0.53972 0.83591 0.0
O76 O 0.09139 0.55796 0.70495 0.0
O77 O 0.08748 0.52132 0.71012 0.0
H78 H 0.55333 0.20226 0.2989 0.0
H79 H 0.54029 0.23406 0.29716 0.0
H80 H 0.4712 0.1811 0.22513 0.0
H81 H 0.48479 0.1494 0.22503 0.0
H82 H 0.49038 0.22349 0.18213 0.0
H83 H 0.47107 0.20091 0.3435 0.0
H84 H 0.47694 0.19021 0.42545 0.0
H85 H 0.54089 0.26505 0.44366 0.0
H86 H 0.53566 0.27611 0.36162 0.0
H87 H 0.48931 0.34556 0.28119 0.0
H88 H 0.47554 0.3003 0.28734 0.0
H89 H 0.53034 0.30932 0.18012 0.0
H90 H 0.54369 0.35418 0.1731 0.0
H91 H 0.50211 0.28087 0.3178 0.0
H92 H 0.51374 0.257 0.1196 0.0
H93 H 0.50377 0.26556 0.03904 0.0
H94 H 0.44652 0.27926 0.09726 0.0
H95 H 0.45585 0.27041 0.17811 0.0
C96 C 0.5352 0.19725 0.28327 0.0
C97 C 0.52007 0.17341 0.26205 0.0
C98 C 0.52764 0.21539 0.28263 0.0
C99 C 0.50452 0.20986 0.26176 0.0
C100 C 0.48905 0.18577 0.24159 0.0
C101 C 0.49681 0.16769 0.24159 0.0
C102 C 0.49789 0.23014 0.25743 0.0
C103 C 0.4926 0.23585 0.21191 0.0
C104 C 0.49982 0.24575 0.2966 0.0
C105 C 0.50298 0.23932 0.34626 0.0
C106 C 0.48646 0.21506 0.36488 0.0
C107 C 0.48968 0.20893 0.41138 0.0
C108 C 0.50928 0.22694 0.43973 0.0
C109 C 0.52569 0.25113 0.42168 0.0
C110 C 0.52257 0.25736 0.3752 0.0
C111 C 0.49803 0.33772 0.2583 0.0
C112 C 0.51764 0.35337 0.2268 0.0
C113 C 0.49017 0.3119 0.26189 0.0
C114 C 0.50173 0.30135 0.23391 0.0
C115 C 0.52073 0.31686 0.20134 0.0
C116 C 0.5285 0.34258 0.19761 0.0
C117 C 0.49618 0.27499 0.24203 0.0
C118 C 0.49917 0.26813 0.28827 0.0
C119 C 0.49144 0.25798 0.20376 0.0
C120 C 0.48559 0.26312 0.15504 0.0
C121 C 0.4989 0.26166 0.11524 0.0
C122 C 0.49339 0.26662 0.0695 0.0
C123 C 0.47456 0.27299 0.06304 0.0
C124 C 0.46116 0.27439 0.10231 0.0
C125 C 0.46658 0.26944 0.14812 0.0
H126 H 0.47033 0.27683 0.02761 0.0
H127 H 0.51175 0.22215 0.47571 0.0
H128 H 0.33896 0.52285 0.76414 0.0
H129 H 0.29632 0.51354 0.74383 0.0
H130 H 0.32118 0.54157 0.60122 0.0
H131 H 0.36412 0.55079 0.62133 0.0
H132 H 0.29798 0.56459 0.64781 0.0
H133 H 0.27901 0.48073 0.61308 0.0
H134 H 0.27843 0.44034 0.62535 0.0
H135 H 0.23457 0.42687 0.75312 0.0
H136 H 0.23519 0.46736 0.74207 0.0
H137 H 0.17409 0.54723 0.63257 0.0
H138 H 0.20969 0.54144 0.60994 0.0
H139 H 0.20702 0.5093 0.74831 0.0
H140 H 0.17134 0.51469 0.77083 0.0
H141 H 0.2175 0.48484 0.67978 0.0
H142 H 0.24612 0.57214 0.7257 0.0
H143 H 0.25013 0.61448 0.72028 0.0
H144 H 0.27792 0.62242 0.57684 0.0
H145 H 0.27371 0.57994 0.58118 0.0
C146 C 0.33526 0.52661 0.72819 0.0
C147 C 0.35482 0.53768 0.69437 0.0
C148 C 0.31085 0.5211 0.71652 0.0
C149 C 0.30558 0.52667 0.6709 0.0
C150 C 0.32489 0.53697 0.63649 0.0
C151 C 0.34933 0.54222 0.64802 0.0
C152 C 0.28074 0.52455 0.66185 0.0
C153 C 0.28028 0.547 0.65324 0.0
C154 C 0.2578 0.50167 0.66998 0.0
C155 C 0.25723 0.47718 0.67678 0.0
C156 C 0.26938 0.46925 0.64398 0.0
C157 C 0.26902 0.44631 0.65069 0.0
C158 C 0.25649 0.43106 0.69 0.0
C159 C 0.24425 0.4387 0.72265 0.0
C160 C 0.24456 0.46163 0.71612 0.0
C161 C 0.18084 0.53853 0.65782 0.0
C162 C 0.17014 0.53163 0.70363 0.0
C163 C 0.20119 0.53529 0.64488 0.0
C164 C 0.21116 0.52523 0.67767 0.0
C165 C 0.19959 0.51708 0.72245 0.0
C166 C 0.17928 0.52029 0.73536 0.0
C167 C 0.2349 0.52507 0.66751 0.0
C168 C 0.23512 0.50224 0.67263 0.0
C169 C 0.25773 0.54768 0.65676 0.0
C170 C 0.25926 0.57274 0.65352 0.0
C171 C 0.25275 0.58277 0.69279 0.0
C172 C 0.25514 0.60682 0.68997 0.0
C173 C 0.26429 0.62111 0.64825 0.0
C174 C 0.27083 0.61131 0.60911 0.0
C175 C 0.26842 0.58725 0.61171 0.0
H176 H 0.26648 0.63986 0.64635 0.0
H177 H 0.25624 0.41331 0.69514 0.0
H178 H 0.63446 0.16891 0.30956 0.0
H179 H 0.67755 0.20519 0.30817 0.0
H180 H 0.66718 0.22069 0.16252 0.0
H181 H 0.62401 0.1844 0.16356 0.0
H182 H 0.71752 0.23016 0.18418 0.0
H183 H 0.65417 0.24962 0.24212 0.0
H184 H 0.61861 0.24265 0.29419 0.0
H185 H 0.66482 0.25539 0.41792 0.0
H186 H 0.70054 0.262 0.36652 0.0
H187 H 0.80114 0.36357 0.1677 0.0
H188 H 0.7659 0.31981 0.16552 0.0
H189 H 0.77219 0.31384 0.31767 0.0
H190 H 0.80692 0.35774 0.32021 0.0
H191 H 0.72523 0.29765 0.29449 0.0
H192 H 0.7903 0.28256 0.23691 0.0
H193 H 0.82577 0.28877 0.18541 0.0
H194 H 0.77754 0.26768 0.06251 0.0
H195 H 0.74185 0.26169 0.11319 0.0
C196 C 0.64154 0.17971 0.2769 0.0
C197 C 0.6258 0.17414 0.2369 0.0
C198 C 0.66614 0.20036 0.27615 0.0
C199 C 0.67533 0.21568 0.23542 0.0
C200 C 0.66036 0.20902 0.19424 0.0
C201 C 0.63569 0.18842 0.19501 0.0
C202 C 0.69896 0.24041 0.23789 0.0
C203 C 0.71929 0.24504 0.20801 0.0
C204 C 0.70121 0.25953 0.26964 0.0
C205 C 0.67992 0.25604 0.30052 0.0
C206 C 0.65668 0.25075 0.28044 0.0
C207 C 0.63651 0.24689 0.30982 0.0
C208 C 0.63944 0.24851 0.35934 0.0
C209 C 0.66258 0.25409 0.37956 0.0
C210 C 0.68279 0.25791 0.35033 0.0
C211 C 0.79512 0.35282 0.20057 0.0
C212 C 0.80665 0.36403 0.24415 0.0
C213 C 0.77511 0.32779 0.19925 0.0
C214 C 0.76659 0.31348 0.24138 0.0
C215 C 0.77847 0.32454 0.28475 0.0
C216 C 0.79829 0.3496 0.28615 0.0
C217 C 0.74415 0.28763 0.24087 0.0
C218 C 0.72382 0.28279 0.27098 0.0
C219 C 0.74204 0.26839 0.20944 0.0
C220 C 0.76345 0.27189 0.17883 0.0
C221 C 0.7873 0.27944 0.19885 0.0
C222 C 0.80744 0.28289 0.16981 0.0
C223 C 0.80393 0.27868 0.1207 0.0
C224 C 0.78024 0.27095 0.10055 0.0
C225 C 0.76004 0.2675 0.12943 0.0
H226 H 0.81955 0.28137 0.09828 0.0
H227 H 0.6238 0.2455 0.38204 0.0
H228 H 0.45238 0.80134 0.82508 0.0
H229 H 0.46815 0.77173 0.82533 0.0
H230 H 0.5244 0.81718 0.71995 0.0
H231 H 0.508 0.84658 0.71846 0.0
H232 H 0.49972 0.77199 0.68968 0.0
H233 H 0.54201 0.80593 0.83306 0.0
H234 H 0.54991 0.82394 0.91422 0.0
H235 H 0.48992 0.75344 0.9688 0.0
H236 H 0.48134 0.73509 0.88792 0.0
H237 H 0.50031 0.64841 0.77004 0.0
H238 H 0.51991 0.69486 0.77468 0.0
H239 H 0.45101 0.6893 0.72163 0.0
H240 H 0.43138 0.64325 0.71735 0.0
H241 H 0.50343 0.72317 0.82775 0.0
H242 H 0.46555 0.73564 0.64388 0.0
H243 H 0.46051 0.71877 0.56214 0.0
H244 H 0.51849 0.6999 0.58765 0.0
H245 H 0.52419 0.71701 0.66931 0.0
C246 C 0.46849 0.80537 0.80277 0.0
C247 C 0.47874 0.82604 0.77127 0.0
C248 C 0.47772 0.78855 0.80331 0.0
C249 C 0.49765 0.79228 0.77293 0.0
C250 C 0.50904 0.81392 0.74374 0.0
C251 C 0.49963 0.83066 0.74286 0.0
C252 C 0.50326 0.7714 0.76614 0.0
C253 C 0.50107 0.76163 0.71986 0.0
C254 C 0.506 0.75829 0.80523 0.0
C255 C 0.51104 0.76912 0.85424 0.0
C256 C 0.5304 0.79429 0.8623 0.0
C257 C 0.53501 0.80456 0.90829 0.0
C258 C 0.52043 0.78984 0.94664 0.0
C259 C 0.50123 0.76481 0.93907 0.0
C260 C 0.49653 0.75443 0.89314 0.0
C261 C 0.48946 0.6572 0.75917 0.0
C262 C 0.46433 0.6423 0.74338 0.0
C263 C 0.50066 0.68364 0.76187 0.0
C264 C 0.48698 0.69543 0.74793 0.0
C265 C 0.46199 0.68054 0.73185 0.0
C266 C 0.45075 0.65424 0.7297 0.0
C267 C 0.49781 0.72317 0.75204 0.0
C268 C 0.50308 0.73413 0.79763 0.0
C269 C 0.49845 0.73767 0.71227 0.0
C270 C 0.49526 0.72759 0.66287 0.0
C271 C 0.47738 0.72809 0.63199 0.0
C272 C 0.47437 0.71842 0.58566 0.0
C273 C 0.48915 0.70825 0.56973 0.0
C274 C 0.50701 0.70773 0.60007 0.0
C275 C 0.51011 0.71738 0.64641 0.0
H276 H 0.48678 0.70077 0.53386 0.0
H277 H 0.52403 0.79784 0.98222 0.0
H278 H 0.63434 0.46272 0.29401 0.0
H279 H 0.67872 0.4743 0.28679 0.0
H280 H 0.67141 0.46836 0.13358 0.0
H281 H 0.6268 0.45651 0.14061 0.0
H282 H 0.69167 0.44148 0.16815 0.0
H283 H 0.70748 0.5259 0.18525 0.0
H284 H 0.70359 0.56094 0.22059 0.0
H285 H 0.73483 0.553 0.35208 0.0
H286 H 0.73857 0.51764 0.31779 0.0
H287 H 0.81824 0.47025 0.15402 0.0
H288 H 0.78319 0.47834 0.14218 0.0
H289 H 0.77377 0.47934 0.29458 0.0
H290 H 0.80894 0.47153 0.30672 0.0
H291 H 0.76456 0.5141 0.24793 0.0
H292 H 0.74071 0.4253 0.23603 0.0
H293 H 0.74394 0.38939 0.20305 0.0
H294 H 0.72683 0.40527 0.06325 0.0
H295 H 0.72389 0.44154 0.09536 0.0
C296 C 0.64226 0.46417 0.25875 0.0
C297 C 0.62712 0.45858 0.21788 0.0
C298 C 0.66767 0.47099 0.25465 0.0
C299 C 0.67841 0.47244 0.20961 0.0
C300 C 0.66348 0.46745 0.16864 0.0
C301 C 0.63804 0.46068 0.17271 0.0
C302 C 0.70446 0.47673 0.20594 0.0
C303 C 0.70775 0.45772 0.18448 0.0
C304 C 0.72528 0.49764 0.22819 0.0
C305 C 0.72316 0.51898 0.24899 0.0
C306 C 0.71335 0.53149 0.22182 0.0
C307 C 0.7112 0.55144 0.24165 0.0
C308 C 0.71892 0.55917 0.28857 0.0
C309 C 0.72886 0.54699 0.31573 0.0
C310 C 0.73104 0.52701 0.29609 0.0
C311 C 0.80905 0.47273 0.18499 0.0
C312 C 0.81602 0.46988 0.23129 0.0
C313 C 0.78906 0.47737 0.17816 0.0
C314 C 0.77572 0.47906 0.21751 0.0
C315 C 0.78385 0.47808 0.26377 0.0
C316 C 0.80384 0.47346 0.27064 0.0
C317 C 0.75151 0.47869 0.21081 0.0
C318 C 0.74857 0.49827 0.23053 0.0
C319 C 0.73089 0.45825 0.1872 0.0
C320 C 0.73239 0.4363 0.16796 0.0
C321 C 0.73782 0.42124 0.1982 0.0
C322 C 0.73958 0.40081 0.17968 0.0
C323 C 0.73567 0.3951 0.13106 0.0
C324 C 0.72991 0.40975 0.10088 0.0
C325 C 0.7282 0.43025 0.11922 0.0
H326 H 0.73704 0.37928 0.11678 0.0
H327 H 0.71724 0.57462 0.30386 0.0
H328 H 0.34924 0.83224 0.76062 0.0
H329 H 0.30519 0.79767 0.75967 0.0
H330 H 0.32901 0.74725 0.70107 0.0
H331 H 0.37287 0.78192 0.70039 0.0
H332 H 0.28601 0.73741 0.66217 0.0
H333 H 0.31926 0.75041 0.82303 0.0
H334 H 0.33865 0.77546 0.89589 0.0
H335 H 0.27674 0.78963 0.91105 0.0
H336 H 0.25714 0.7649 0.83791 0.0
H337 H 0.19557 0.62429 0.81426 0.0
H338 H 0.23218 0.66692 0.80847 0.0
H339 H 0.19508 0.68516 0.6974 0.0
H340 H 0.15854 0.64212 0.70213 0.0
H341 H 0.24185 0.71419 0.81853 0.0
H342 H 0.2414 0.72259 0.61417 0.0
H343 H 0.22354 0.695 0.54353 0.0
H344 H 0.22274 0.63331 0.61901 0.0
H345 H 0.24126 0.66073 0.68962 0.0
C346 C 0.345 0.81385 0.747 0.0
C347 C 0.36444 0.80964 0.731 0.0
C348 C 0.31986 0.79412 0.74658 0.0
C349 C 0.31387 0.76978 0.73106 0.0
C350 C 0.33319 0.76588 0.7132 0.0
C351 C 0.35825 0.78567 0.71302 0.0
C352 C 0.28788 0.7479 0.73616 0.0
C353 C 0.27624 0.73246 0.69625 0.0
C354 C 0.2752 0.74134 0.7807 0.0
C355 C 0.2869 0.75607 0.82477 0.0
C356 C 0.30988 0.75901 0.84175 0.0
C357 C 0.32089 0.77313 0.88311 0.0
C358 C 0.30898 0.7842 0.908 0.0
C359 C 0.28598 0.78109 0.89167 0.0
C360 C 0.2749 0.76702 0.8503 0.0
C361 C 0.19506 0.63748 0.78903 0.0
C362 C 0.17439 0.62984 0.75822 0.0
C363 C 0.21594 0.66187 0.7859 0.0
C364 C 0.21647 0.67908 0.75207 0.0
C365 C 0.19518 0.67202 0.72325 0.0
C366 C 0.17434 0.64748 0.72604 0.0
C367 C 0.24018 0.70349 0.74475 0.0
C368 C 0.25137 0.71943 0.78422 0.0
C369 C 0.25272 0.71014 0.70007 0.0
C370 C 0.24239 0.69364 0.65737 0.0
C371 C 0.23756 0.70319 0.61557 0.0
C372 C 0.22736 0.68759 0.57552 0.0
C373 C 0.22197 0.6624 0.57683 0.0
C374 C 0.22693 0.65282 0.61807 0.0
C375 C 0.23731 0.66839 0.65809 0.0
H376 H 0.21398 0.65033 0.54587 0.0
H377 H 0.31754 0.79512 0.94 0.0
H378 H 0.43243 0.89348 0.90677 0.0
H379 H 0.44427 0.92628 0.96795 0.0
H380 H 0.50905 0.97797 0.88379 0.0
H381 H 0.49764 0.94516 0.82306 0.0
H382 H 0.52107 0.98059 0.97608 0.0
H383 H 0.45482 0.98133 0.88399 0.0
H384 H 0.41239 0.96237 0.84783 0.0
H385 H 0.37821 0.94137 0.98662 0.0
H386 H 0.42046 0.95991 0.02357 0.0
H387 H 0.55084 0.09554 0.08868 0.0
H388 H 0.53714 0.06235 0.0279 0.0
H389 H 0.47287 0.0125 0.11502 0.0
H390 H 0.48613 0.04582 0.17543 0.0
H391 H 0.46004 0.00827 0.02263 0.0
H392 H 0.52604 0.00771 0.11489 0.0
H393 H 0.56837 0.02653 0.15142 0.0
H394 H 0.60288 0.04683 0.01282 0.0
H395 H 0.56074 0.02843 0.97548 0.0
C396 C 0.44931 0.91178 0.90156 0.0
C397 C 0.46407 0.91686 0.86016 0.0
C398 C 0.45596 0.93051 0.93635 0.0
C399 C 0.4773 0.95464 0.92995 0.0
C400 C 0.49247 0.95947 0.88929 0.0
C401 C 0.48591 0.94074 0.85465 0.0
C402 C 0.48371 0.97507 0.96518 0.0
C403 C 0.50784 0.98685 0.98587 0.0
C404 C 0.46619 0.98278 0.97864 0.0
C405 C 0.44079 0.97179 0.95649 0.0
C406 C 0.43825 0.97251 0.90677 0.0
C407 C 0.41424 0.96186 0.88614 0.0
C408 C 0.39262 0.95061 0.9149 0.0
C409 C 0.39497 0.95006 0.96438 0.0
C410 C 0.41895 0.96065 0.98518 0.0
C411 C 0.53363 0.07761 0.09458 0.0
C412 C 0.51963 0.07313 0.13685 0.0
C413 C 0.5259 0.05865 0.05999 0.0
C414 C 0.50429 0.03484 0.06749 0.0
C415 C 0.48967 0.03073 0.10872 0.0
C416 C 0.49728 0.04975 0.14317 0.0
C417 C 0.49747 0.01391 0.03324 0.0
C418 C 0.47325 0.00199 0.01284 0.0
C419 C 0.51489 0.00603 0.02008 0.0
C420 C 0.54024 0.0169 0.04244 0.0
C421 C 0.54266 0.01634 0.09223 0.0
C422 C 0.56662 0.02691 0.11307 0.0
C423 C 0.5883 0.03792 0.08447 0.0
C424 C 0.58607 0.03832 0.03493 0.0
C425 C 0.56215 0.0278 0.01391 0.0
H426 H 0.60684 0.0461 0.10068 0.0
H427 H 0.37404 0.94238 0.89886 0.0
H428 H 0.53398 0.43098 0.4023 0.0
H429 H 0.52361 0.44725 0.47375 0.0
H430 H 0.53481 0.5129 0.39487 0.0
H431 H 0.54551 0.49697 0.3237 0.0
H432 H 0.55376 0.52547 0.48488 0.0
H433 H 0.47626 0.46232 0.40837 0.0
H434 H 0.44678 0.41977 0.37623 0.0
H435 H 0.44224 0.38685 0.51376 0.0
H436 H 0.47197 0.42921 0.54655 0.0
H437 H 0.47643 0.56667 0.59413 0.0
H438 H 0.49729 0.55066 0.54147 0.0
H439 H 0.47928 0.48931 0.63947 0.0
H440 H 0.45809 0.50507 0.6921 0.0
H441 H 0.46695 0.47251 0.5496 0.0
H442 H 0.53967 0.53722 0.62883 0.0
H443 H 0.56846 0.58008 0.66036 0.0
H444 H 0.58185 0.6105 0.51845 0.0
H445 H 0.55284 0.56787 0.48608 0.0
C446 C 0.53451 0.44902 0.40042 0.0
C447 C 0.5403 0.46262 0.35743 0.0
C448 C 0.52857 0.45825 0.44117 0.0
C449 C 0.52819 0.48111 0.43933 0.0
C450 C 0.53503 0.49522 0.39697 0.0
C451 C 0.541 0.48604 0.35632 0.0
C452 C 0.51903 0.48963 0.48027 0.0
C453 C 0.53476 0.51398 0.49903 0.0
C454 C 0.49448 0.4743 0.4994 0.0
C455 C 0.47656 0.44886 0.47975 0.0
C456 C 0.46912 0.44598 0.43165 0.0
C457 C 0.45235 0.42191 0.41334 0.0
C458 C 0.44271 0.40061 0.4429 0.0
C459 C 0.44976 0.40335 0.49088 0.0
C460 C 0.46657 0.42738 0.50935 0.0
C461 C 0.47703 0.54986 0.60455 0.0
C462 C 0.46557 0.53703 0.64702 0.0
C463 C 0.48911 0.54084 0.57464 0.0
C464 C 0.49007 0.51898 0.58691 0.0
C465 C 0.47879 0.50626 0.62951 0.0
C466 C 0.46669 0.51526 0.65943 0.0
C467 C 0.50148 0.50861 0.55368 0.0
C468 C 0.48613 0.48389 0.53625 0.0
C469 C 0.52636 0.52365 0.53578 0.0
C470 C 0.54392 0.54934 0.55506 0.0
C471 C 0.5486 0.55307 0.60436 0.0
C472 C 0.56499 0.57732 0.62238 0.0
C473 C 0.57694 0.598 0.59143 0.0
C474 C 0.57257 0.59446 0.54238 0.0
C475 C 0.55618 0.57025 0.52417 0.0
H476 H 0.58963 0.61677 0.60546 0.0
H477 H 0.42972 0.38199 0.42866 0.0
H478 H 0.07757 0.56572 0.888 0.0
H479 H 0.04882 0.55026 0.95619 0.0
H480 H 0.04912 0.4795 0.9516 0.0
H481 H 0.07777 0.4948 0.88285 0.0
H482 H 0.00176 0.47222 0.95307 0.0
H483 H 0.07742 0.52044 0.04304 0.0
H484 H 0.11811 0.55803 0.06464 0.0
H485 H 0.08037 0.6004 0.09156 0.0
H486 H 0.03948 0.56317 0.06947 0.0
H487 H 0.92277 0.42652 0.1575 0.0
H488 H 0.95901 0.44019 0.10401 0.0
H489 H 0.96772 0.51502 0.09705 0.0
H490 H 0.93184 0.50162 0.15138 0.0
H491 H 0.01277 0.51771 0.10615 0.0
H492 H 0.93863 0.47182 0.00757 0.0
H493 H 0.89774 0.435 0.98412 0.0
H494 H 0.93273 0.38909 0.97172 0.0
H495 H 0.97379 0.42558 -0.00429 0.0
C496 C 0.0718 0.54701 0.90193 0.0
C497 C 0.07978 0.5314 0.88007 0.0
C498 C 0.0555 0.53825 0.94105 0.0
C499 C 0.04701 0.51381 0.95911 0.0
C500 C 0.05553 0.49845 0.93819 0.0
C501 C 0.07189 0.50722 0.89905 0.0
C502 C 0.02759 0.50363 -0.0029 0.0
C503 C 0.00435 0.48184 0.987 0.0
C504 C 0.03083 0.5166 0.04077 0.0
C505 C 0.05539 0.53904 0.05426 0.0
C506 C 0.07781 0.53783 0.05322 0.0
C507 C 0.10091 0.55906 0.06562 0.0
C508 C 0.10183 0.5816 0.07938 0.0
C509 C 0.07963 0.58293 0.08088 0.0
C510 C 0.05648 0.56175 0.06848 0.0
C511 C 0.93244 0.44589 0.14458 0.0
C512 C 0.92443 0.46298 0.15827 0.0
C513 C 0.9531 0.45365 0.11402 0.0
C514 C 0.96586 0.47853 0.09621 0.0
C515 C 0.95813 0.49574 0.11046 0.0
C516 C 0.93757 0.48803 0.14126 0.0
C517 C 0.98689 0.48652 0.06176 0.0
C518 C 0.01036 0.5079 0.0725 0.0
C519 C 0.98385 0.47327 0.01851 0.0
C520 C 0.9592 0.45134 0.00395 0.0
C521 C 0.93756 0.45381 0.00021 0.0
C522 C 0.91436 0.43302 0.98676 0.0
C523 C 0.91262 0.40969 0.97658 0.0
C524 C 0.9341 0.40715 0.9797 0.0
C525 C 0.95734 0.42788 0.99319 0.0
H526 H 0.89465 0.39361 0.96617 0.0
H527 H 0.11974 0.59802 0.08896 0.0
H528 H 0.5083 0.08442 0.39996 0.0
H529 H 0.4935 0.05023 0.45858 0.0
H530 H 0.53785 0.02192 0.38982 0.0
H531 H 0.55253 0.05592 0.33074 0.0
H532 H 0.48971 0.98447 0.40624 0.0
H533 H 0.55638 0.05185 0.49542 0.0
H534 H 0.58059 0.09468 0.53049 0.0
H535 H 0.51565 0.08136 0.61289 0.0
H536 H 0.49093 0.03856 0.57779 0.0
H537 H 0.47738 0.8988 0.59255 0.0
H538 H 0.4922 0.93177 0.53126 0.0
H539 H 0.44864 0.96204 0.59618 0.0
H540 H 0.43396 0.92934 0.65773 0.0
H541 H 0.49731 -0.00165 0.58127 0.0
H542 H 0.43053 0.93101 0.4912 0.0
H543 H 0.4065 0.88816 0.45615 0.0
H544 H 0.47194 0.90133 0.37561 0.0
H545 H 0.49648 0.94416 0.41071 0.0
C546 C 0.5151 0.07107 0.39766 0.0
C547 C 0.53154 0.07279 0.36086 0.0
C548 C 0.50668 0.0516 0.43119 0.0
C549 C 0.5147 0.03366 0.42858 0.0
C550 C 0.53145 0.03559 0.39233 0.0
C551 C 0.53989 0.05506 0.3588 0.0
C552 C 0.50479 0.01231 0.46261 0.0
C553 C 0.49169 0.98746 0.44452 0.0
C554 C 0.50692 0.01633 0.51247 0.0
C555 C 0.52173 0.04208 0.53361 0.0
C556 C 0.54719 0.05813 0.5207 0.0
C557 C 0.56102 0.08239 0.54065 0.0
C558 C 0.54965 0.09076 0.5738 0.0
C559 C 0.52443 0.07487 0.58716 0.0
C560 C 0.5105 0.05059 0.56728 0.0
C561 C 0.47069 0.91226 0.5933 0.0
C562 C 0.45462 0.91162 0.62993 0.0
C563 C 0.47911 0.93103 0.55826 0.0
C564 C 0.47147 0.94928 0.55927 0.0
C565 C 0.45479 0.94815 0.59495 0.0
C566 C 0.44637 0.92942 0.62994 0.0
C567 C 0.48206 0.97051 0.52493 0.0
C568 C 0.49534 0.99535 0.54298 0.0
C569 C 0.48013 0.96646 0.47508 0.0
C570 C 0.46542 0.9407 0.45398 0.0
C571 C 0.43987 0.92469 0.46635 0.0
C572 C 0.42614 0.90042 0.4464 0.0
C573 C 0.43771 0.892 0.41378 0.0
C574 C 0.46301 0.90786 0.40094 0.0
C575 C 0.47683 0.93214 0.42082 0.0
H576 H 0.42704 0.87321 0.39835 0.0
H577 H 0.56039 0.10954 0.58923 0.0
H578 H 0.46836 0.57235 0.88995 0.0
H579 H 0.47966 0.55349 0.95534 0.0
H580 H 0.41343 0.48088 0.92733 0.0
H581 H 0.40201 0.49955 0.86141 0.0
H582 H 0.42888 0.49407 0.03028 0.0
H583 H 0.45954 0.48696 0.87491 0.0
H584 H 0.48028 0.50423 0.7975 0.0
H585 H 0.54876 0.55712 0.8695 0.0
H586 H 0.52822 0.54047 0.94741 0.0
H587 H 0.47818 0.42063 0.1351 0.0
H588 H 0.45756 0.43632 0.08113 0.0
H589 H 0.52721 0.50805 0.07032 0.0
H590 H 0.548 0.49231 0.12306 0.0
H591 H 0.50693 0.49254 0.98563 0.0
H592 H 0.47716 0.5002 0.14081 0.0
H593 H 0.45651 0.48476 0.21896 0.0
H594 H 0.38706 0.43221 0.14937 0.0
H595 H 0.4074 0.44711 0.07076 0.0
C596 C 0.45582 0.55254 0.89849 0.0
C597 C 0.43455 0.53728 0.87019 0.0
C598 C 0.46227 0.54183 0.93586 0.0
C599 C 0.44748 0.51581 0.94554 0.0
C600 C 0.425 0.50102 0.92022 0.0
C601 C 0.41861 0.51168 0.88251 0.0
C602 C 0.45757 0.50356 0.97676 0.0
C603 C 0.44574 0.49338 0.0205 0.0
C604 C 0.47969 0.50301 0.96378 0.0
C605 C 0.49227 0.51264 0.91697 0.0
C606 C 0.47896 0.5024 0.87423 0.0
C607 C 0.49068 0.51206 0.83027 0.0
C608 C 0.51581 0.5318 0.82859 0.0
C609 C 0.52928 0.54185 0.87087 0.0
C610 C 0.51762 0.53231 0.91493 0.0
C611 C 0.48906 0.4397 0.12102 0.0
C612 C 0.51467 0.45527 0.13317 0.0
C613 C 0.47724 0.44868 0.09049 0.0
C614 C 0.4908 0.47345 0.07222 0.0
C615 C 0.51642 0.48888 0.08405 0.0
C616 C 0.52826 0.47987 0.11419 0.0
C617 C 0.4786 0.48337 0.04007 0.0
C618 C 0.49 0.49305 -0.0043 0.0
C619 C 0.45616 0.48349 0.0527 0.0
C620 C 0.44388 0.47458 0.09992 0.0
C621 C 0.45754 0.48521 0.14218 0.0
C622 C 0.44588 0.47658 0.18655 0.0
C623 C 0.42051 0.45746 0.18913 0.0
C624 C 0.40672 0.44699 0.14732 0.0
C625 C 0.4183 0.45553 0.10285 0.0
H626 H 0.41152 0.45081 0.22352 0.0
H627 H 0.52485 0.53927 0.79452 0.0
H628 H 0.05095 0.48624 0.66101 0.0
H629 H 0.01527 0.46957 0.60562 0.0
H630 H 0.02232 0.54364 0.59688 0.0
H631 H 0.05788 0.56041 0.65265 0.0
H632 H 0.97262 0.50525 0.60382 0.0
H633 H 0.04686 0.52476 0.51099 0.0
H634 H 0.08506 0.52258 0.49052 0.0
H635 H 0.03988 0.44178 0.47284 0.0
H636 H 0.00143 0.44344 0.49388 0.0
H637 H 0.91145 0.49564 0.38258 0.0
H638 H 0.94001 0.50703 0.45086 0.0
H639 H 0.93154 0.43223 0.44899 0.0
H640 H 0.90323 0.42082 0.38047 0.0
H641 H 0.98029 0.46858 0.4506 0.0
H642 H 0.90546 0.44923 0.53772 0.0
H643 H 0.86719 0.45132 0.55796 0.0
H644 H 0.91281 0.53118 0.58622 0.0
H645 H 0.95135 0.52966 0.56547 0.0
C646 C 0.04482 0.49894 0.64744 0.0
C647 C 0.05727 0.52465 0.66075 0.0
C648 C 0.02448 0.4894 0.61584 0.0
C649 C 0.01638 0.50547 0.59692 0.0
C650 C 0.02833 0.53098 0.61118 0.0
C651 C 0.04869 0.54054 0.64277 0.0
C652 C -0.00386 0.49593 0.56073 0.0
C653 C 0.97432 0.49743 0.57009 0.0
C654 C -0.00177 0.48521 0.51736 0.0
C655 C 0.02132 0.48419 0.50452 0.0
C656 C 0.0451 0.5065 0.50312 0.0
C657 C 0.06679 0.50536 0.49135 0.0
C658 C 0.06491 0.48204 0.48052 0.0
C659 C 0.04132 0.45982 0.48132 0.0
C660 C 0.01957 0.46085 0.49314 0.0
C661 C 0.91546 0.48155 0.3971 0.0
C662 C 0.90526 0.45741 0.37616 0.0
C663 C 0.93166 0.48803 0.43621 0.0
C664 C 0.93774 0.4704 0.45507 0.0
C665 C 0.92705 0.44607 0.43491 0.0
C666 C 0.91089 0.4396 0.39584 0.0
C667 C 0.95671 0.47794 0.49347 0.0
C668 C 0.97838 0.47616 0.48447 0.0
C669 C 0.95442 0.48836 0.5371 0.0
C670 C 0.93129 0.48937 0.5496 0.0
C671 C 0.90732 0.46729 0.54784 0.0
C672 C 0.88558 0.46836 0.55949 0.0
C673 C 0.88756 0.49138 0.57325 0.0
C674 C 0.9113 0.51337 0.5755 0.0
C675 C 0.93311 0.51241 0.56385 0.0
H676 H 0.87071 0.49216 0.58227 0.0
H677 H 0.08172 0.4812 0.47141 0.0
loop_
_geom_bond_atom_site_label_1
_geom_bond_atom_site_label_2
_geom_bond_distance
_geom_bond_site_symmetry_2
_ccdc_geom_bond_type
In0 O1 2.294 . S
In0 O2 2.326 . S
In0 O6 2.266 . S
In0 O7 2.326 . S
In0 O8 2.266 . S
In0 O9 2.326 . S
In0 O11 2.294 . S
In0 O12 2.326 . S
O1 In0 2.294 . S
O1 C10 1.240 . S
O2 In0 2.326 . S
O2 C10 1.252 . S
C3 O6 1.252 . S
C3 O7 1.260 . S
C4 O11 1.240 . S
C4 O12 1.252 . S
C5 O8 1.252 . S
C5 O9 1.260 . S
O6 In0 2.266 . S
O6 C3 1.252 . S
O7 In0 2.326 . S
O7 C3 1.260 . S
O8 In0 2.266 . S
O8 C5 1.252 . S
O9 In0 2.326 . S
O9 C5 1.260 . S
C10 O1 1.240 . S
C10 O2 1.252 . S
O11 In0 2.294 . S
O11 C4 1.240 . S
O12 In0 2.326 . S
O12 C4 1.252 . S
In13 O14 2.294 . S
In13 O15 2.326 . S
In13 O19 2.266 . S
In13 O20 2.326 . S
In13 O21 2.266 . S
In13 O22 2.326 . S
In13 O24 2.294 . S
In13 O25 2.326 . S
O14 In13 2.294 . S
O14 C23 1.240 . S
O15 In13 2.326 . S
O15 C23 1.252 . S
C16 O19 1.252 . S
C16 O20 1.260 . S
C17 O24 1.240 . S
C17 O25 1.252 . S
C18 O21 1.252 . S
C18 O22 1.260 . S
O19 In13 2.266 . S
O19 C16 1.252 . S
O20 In13 2.326 . S
O20 C16 1.260 . S
O21 In13 2.266 . S
O21 C18 1.252 . S
O22 In13 2.326 . S
O22 C18 1.260 . S
C23 O14 1.240 . S
C23 O15 1.252 . S
O24 In13 2.294 . S
O24 C17 1.240 . S
O25 In13 2.326 . S
O25 C17 1.252 . S
In26 O27 2.294 . S
In26 O28 2.326 . S
In26 O32 2.266 . S
In26 O33 2.326 . S
In26 O34 2.266 . S
In26 O35 2.326 . S
In26 O37 2.294 . S
In26 O38 2.326 . S
O27 In26 2.294 . S
O27 C36 1.240 . S
O28 In26 2.326 . S
O28 C36 1.252 . S
C29 O32 1.252 . S
C29 O33 1.260 . S
C30 O37 1.240 . S
C30 O38 1.252 . S
C31 O34 1.252 . S
C31 O35 1.260 . S
O32 In26 2.266 . S
O32 C29 1.252 . S
O33 In26 2.326 . S
O33 C29 1.260 . S
O34 In26 2.266 . S
O34 C31 1.252 . S
O35 In26 2.326 . S
O35 C31 1.260 . S
C36 O27 1.240 . S
C36 O28 1.252 . S
O37 In26 2.294 . S
O37 C30 1.240 . S
O38 In26 2.326 . S
O38 C30 1.252 . S
In39 O40 2.294 . S
In39 O41 2.326 . S
In39 O45 2.266 . S
In39 O46 2.326 . S
In39 O47 2.266 . S
In39 O48 2.326 . S
In39 O50 2.294 . S
In39 O51 2.326 . S
O40 In39 2.294 . S
O40 C49 1.240 . S
O41 In39 2.326 . S
O41 C49 1.252 . S
C42 O45 1.252 . S
C42 O46 1.260 . S
C43 O50 1.240 . S
C43 O51 1.252 . S
C44 O47 1.252 . S
C44 O48 1.260 . S
O45 In39 2.266 . S
O45 C42 1.252 . S
O46 In39 2.326 . S
O46 C42 1.260 . S
O47 In39 2.266 . S
O47 C44 1.252 . S
O48 In39 2.326 . S
O48 C44 1.260 . S
C49 O40 1.240 . S
C49 O41 1.252 . S
O50 In39 2.294 . S
O50 C43 1.240 . S
O51 In39 2.326 . S
O51 C43 1.252 . S
In52 O53 2.294 . S
In52 O54 2.326 . S
In52 O58 2.266 . S
In52 O59 2.326 . S
In52 O60 2.266 . S
In52 O61 2.326 . S
In52 O63 2.294 . S
In52 O64 2.326 . S
O53 In52 2.294 . S
O53 C62 1.240 . S
O54 In52 2.326 . S
O54 C62 1.252 . S
C55 O58 1.252 . S
C55 O59 1.260 . S
C56 O63 1.240 . S
C56 O64 1.252 . S
C57 O60 1.252 . S
C57 O61 1.260 . S
O58 In52 2.266 . S
O58 C55 1.252 . S
O59 In52 2.326 . S
O59 C55 1.260 . S
O60 In52 2.266 . S
O60 C57 1.252 . S
O61 In52 2.326 . S
O61 C57 1.260 . S
C62 O53 1.240 . S
C62 O54 1.252 . S
O63 In52 2.294 . S
O63 C56 1.240 . S
O64 In52 2.326 . S
O64 C56 1.252 . S
In65 O66 2.294 . S
In65 O67 2.326 . S
In65 O71 2.266 . S
In65 O72 2.326 . S
In65 O73 2.266 . S
In65 O74 2.326 . S
In65 O76 2.294 . S
In65 O77 2.326 . S
O66 In65 2.294 . S
O66 C75 1.240 . S
O67 In65 2.326 . S
O67 C75 1.252 . S
C68 O71 1.252 . S
C68 O72 1.260 . S
C69 O76 1.240 . S
C69 O77 1.252 . S
C70 O73 1.252 . S
C70 O74 1.260 . S
O71 In65 2.266 . S
O71 C68 1.252 . S
O72 In65 2.326 . S
O72 C68 1.260 . S
O73 In65 2.266 . S
O73 C70 1.252 . S
O74 In65 2.326 . S
O74 C70 1.260 . S
C75 O66 1.240 . S
C75 O67 1.252 . S
O76 In65 2.294 . S
O76 C69 1.240 . S
O77 In65 2.326 . S
O77 C69 1.252 . S
H78 C96 0.951 . S
H79 C98 0.951 . S
H80 C100 0.950 . S
H81 C101 0.950 . S
H82 C103 0.950 . S
H83 C106 0.950 . S
H84 C107 0.950 . S
H85 C109 0.950 . S
H86 C110 0.950 . S
H87 C111 0.951 . S
H88 C113 0.951 . S
H89 C115 0.950 . S
H90 C116 0.950 . S
H91 C118 0.950 . S
H92 C121 0.950 . S
H93 C122 0.950 . S
H94 C124 0.950 . S
H95 C125 0.950 . S
C96 H78 0.951 . S
C96 C97 1.366 . S
C96 C98 1.388 . S
C97 C96 1.366 . S
C97 C101 1.385 . S
C98 H79 0.951 . S
C98 C96 1.388 . S
C98 C99 1.366 . S
C99 C98 1.366 . S
C99 C100 1.414 . S
C99 C102 1.499 . S
C100 H80 0.950 . S
C100 C99 1.414 . S
C100 C101 1.374 . S
C101 H81 0.950 . S
C101 C97 1.385 . S
C101 C100 1.374 . S
C102 C99 1.499 . S
C102 C103 1.373 . S
C102 C104 1.389 . S
C103 H82 0.950 . S
C103 C102 1.373 . S
C103 C119 1.377 . S
C104 C102 1.389 . S
C104 C105 1.524 . S
C104 C118 1.377 . S
C105 C104 1.524 . S
C105 C106 1.397 . S
C105 C110 1.363 . S
C106 H83 0.950 . S
C106 C105 1.397 . S
C106 C107 1.334 . S
C107 H84 0.950 . S
C107 C106 1.334 . S
C107 C108 1.287 . S
C108 C107 1.287 . S
C108 C109 1.524 . S
C108 H127 0.913 . S
C109 H85 0.950 . S
C109 C108 1.524 . S
C109 C110 1.415 . S
C110 H86 0.950 . S
C110 C105 1.363 . S
C110 C109 1.415 . S
C111 H87 0.951 . S
C111 C112 1.366 . S
C111 C113 1.388 . S
C112 C111 1.366 . S
C112 C116 1.385 . S
C113 H88 0.951 . S
C113 C111 1.388 . S
C113 C114 1.366 . S
C114 C113 1.366 . S
C114 C115 1.414 . S
C114 C117 1.499 . S
C115 H89 0.950 . S
C115 C114 1.414 . S
C115 C116 1.374 . S
C116 H90 0.950 . S
C116 C112 1.385 . S
C116 C115 1.374 . S
C117 C114 1.499 . S
C117 C118 1.373 . S
C117 C119 1.389 . S
C118 H91 0.950 . S
C118 C104 1.377 . S
C118 C117 1.373 . S
C119 C103 1.377 . S
C119 C117 1.389 . S
C119 C120 1.524 . S
C120 C119 1.524 . S
C120 C121 1.397 . S
C120 C125 1.363 . S
C121 H92 0.950 . S
C121 C120 1.397 . S
C121 C122 1.334 . S
C122 H93 0.950 . S
C122 C121 1.334 . S
C122 C123 1.287 . S
C123 C122 1.287 . S
C123 C124 1.524 . S
C123 H126 0.999 . S
C124 H94 0.950 . S
C124 C123 1.524 . S
C124 C125 1.415 . S
C125 H95 0.950 . S
C125 C120 1.363 . S
C125 C124 1.415 . S
H126 C123 0.999 . S
H127 C108 0.913 . S
H128 C146 0.951 . S
H129 C148 0.951 . S
H130 C150 0.950 . S
H131 C151 0.950 . S
H132 C153 0.950 . S
H133 C156 0.950 . S
H134 C157 0.950 . S
H135 C159 0.950 . S
H136 C160 0.950 . S
H137 C161 0.951 . S
H138 C163 0.951 . S
H139 C165 0.950 . S
H140 C166 0.950 . S
H141 C168 0.950 . S
H142 C171 0.950 . S
H143 C172 0.950 . S
H144 C174 0.950 . S
H145 C175 0.950 . S
C146 H128 0.951 . S
C146 C147 1.366 . S
C146 C148 1.388 . S
C147 C146 1.366 . S
C147 C151 1.385 . S
C148 H129 0.951 . S
C148 C146 1.388 . S
C148 C149 1.366 . S
C149 C148 1.366 . S
C149 C150 1.414 . S
C149 C152 1.499 . S
C150 H130 0.950 . S
C150 C149 1.414 . S
C150 C151 1.374 . S
C151 H131 0.950 . S
C151 C147 1.385 . S
C151 C150 1.374 . S
C152 C149 1.499 . S
C152 C153 1.373 . S
C152 C154 1.389 . S
C153 H132 0.950 . S
C153 C152 1.373 . S
C153 C169 1.377 . S
C154 C152 1.389 . S
C154 C155 1.524 . S
C154 C168 1.377 . S
C155 C154 1.524 . S
C155 C156 1.397 . S
C155 C160 1.363 . S
C156 H133 0.950 . S
C156 C155 1.397 . S
C156 C157 1.334 . S
C157 H134 0.950 . S
C157 C156 1.334 . S
C157 C158 1.287 . S
C158 C157 1.287 . S
C158 C159 1.524 . S
C158 H177 0.913 . S
C159 H135 0.950 . S
C159 C158 1.524 . S
C159 C160 1.415 . S
C160 H136 0.950 . S
C160 C155 1.363 . S
C160 C159 1.415 . S
C161 H137 0.951 . S
C161 C162 1.366 . S
C161 C163 1.388 . S
C162 C161 1.366 . S
C162 C166 1.385 . S
C163 H138 0.951 . S
C163 C161 1.388 . S
C163 C164 1.366 . S
C164 C163 1.366 . S
C164 C165 1.414 . S
C164 C167 1.499 . S
C165 H139 0.950 . S
C165 C164 1.414 . S
C165 C166 1.374 . S
C166 H140 0.950 . S
C166 C162 1.385 . S
C166 C165 1.374 . S
C167 C164 1.499 . S
C167 C168 1.373 . S
C167 C169 1.389 . S
C168 H141 0.950 . S
C168 C154 1.377 . S
C168 C167 1.373 . S
C169 C153 1.377 . S
C169 C167 1.389 . S
C169 C170 1.524 . S
C170 C169 1.524 . S
C170 C171 1.397 . S
C170 C175 1.363 . S
C171 H142 0.950 . S
C171 C170 1.397 . S
C171 C172 1.334 . S
C172 H143 0.950 . S
C172 C171 1.334 . S
C172 C173 1.287 . S
C173 C172 1.287 . S
C173 C174 1.524 . S
C173 H176 0.999 . S
C174 H144 0.950 . S
C174 C173 1.524 . S
C174 C175 1.415 . S
C175 H145 0.950 . S
C175 C170 1.363 . S
C175 C174 1.415 . S
H176 C173 0.999 . S
H177 C158 0.913 . S
H178 C196 0.951 . S
H179 C198 0.951 . S
H180 C200 0.950 . S
H181 C201 0.950 . S
H182 C203 0.950 . S
H183 C206 0.950 . S
H184 C207 0.950 . S
H185 C209 0.950 . S
H186 C210 0.950 . S
H187 C211 0.951 . S
H188 C213 0.951 . S
H189 C215 0.950 . S
H190 C216 0.950 . S
H191 C218 0.950 . S
H192 C221 0.950 . S
H193 C222 0.950 . S
H194 C224 0.950 . S
H195 C225 0.950 . S
C196 H178 0.951 . S
C196 C197 1.366 . S
C196 C198 1.388 . S
C197 C196 1.366 . S
C197 C201 1.385 . S
C198 H179 0.951 . S
C198 C196 1.388 . S
C198 C199 1.366 . S
C199 C198 1.366 . S
C199 C200 1.414 . S
C199 C202 1.499 . S
C200 H180 0.950 . S
C200 C199 1.414 . S
C200 C201 1.374 . S
C201 H181 0.950 . S
C201 C197 1.385 . S
C201 C200 1.374 . S
C202 C199 1.499 . S
C202 C203 1.373 . S
C202 C204 1.389 . S
C203 H182 0.950 . S
C203 C202 1.373 . S
C203 C219 1.377 . S
C204 C202 1.389 . S
C204 C205 1.524 . S
C204 C218 1.377 . S
C205 C204 1.524 . S
C205 C206 1.397 . S
C205 C210 1.363 . S
C206 H183 0.950 . S
C206 C205 1.397 . S
C206 C207 1.334 . S
C207 H184 0.950 . S
C207 C206 1.334 . S
C207 C208 1.287 . S
C208 C207 1.287 . S
C208 C209 1.524 . S
C208 H227 0.913 . S
C209 H185 0.950 . S
C209 C208 1.524 . S
C209 C210 1.415 . S
C210 H186 0.950 . S
C210 C205 1.363 . S
C210 C209 1.415 . S
C211 H187 0.951 . S
C211 C212 1.366 . S
C211 C213 1.388 . S
C212 C211 1.366 . S
C212 C216 1.385 . S
C213 H188 0.951 . S
C213 C211 1.388 . S
C213 C214 1.366 . S
C214 C213 1.366 . S
C214 C215 1.414 . S
C214 C217 1.499 . S
C215 H189 0.950 . S
C215 C214 1.414 . S
C215 C216 1.374 . S
C216 H190 0.950 . S
C216 C212 1.385 . S
C216 C215 1.374 . S
C217 C214 1.499 . S
C217 C218 1.373 . S
C217 C219 1.389 . S
C218 H191 0.950 . S
C218 C204 1.377 . S
C218 C217 1.373 . S
C219 C203 1.377 . S
C219 C217 1.389 . S
C219 C220 1.524 . S
C220 C219 1.524 . S
C220 C221 1.397 . S
C220 C225 1.363 . S
C221 H192 0.950 . S
C221 C220 1.397 . S
C221 C222 1.334 . S
C222 H193 0.950 . S
C222 C221 1.334 . S
C222 C223 1.287 . S
C223 C222 1.287 . S
C223 C224 1.524 . S
C223 H226 0.999 . S
C224 H194 0.950 . S
C224 C223 1.524 . S
C224 C225 1.415 . S
C225 H195 0.950 . S
C225 C220 1.363 . S
C225 C224 1.415 . S
H226 C223 0.999 . S
H227 C208 0.913 . S
H228 C246 0.951 . S
H229 C248 0.951 . S
H230 C250 0.950 . S
H231 C251 0.950 . S
H232 C253 0.950 . S
H233 C256 0.950 . S
H234 C257 0.950 . S
H235 C259 0.950 . S
H236 C260 0.950 . S
H237 C261 0.951 . S
H238 C263 0.951 . S
H239 C265 0.950 . S
H240 C266 0.950 . S
H241 C268 0.950 . S
H242 C271 0.950 . S
H243 C272 0.950 . S
H244 C274 0.950 . S
H245 C275 0.950 . S
C246 H228 0.951 . S
C246 C247 1.366 . S
C246 C248 1.388 . S
C247 C246 1.366 . S
C247 C251 1.385 . S
C248 H229 0.951 . S
C248 C246 1.388 . S
C248 C249 1.366 . S
C249 C248 1.366 . S
C249 C250 1.414 . S
C249 C252 1.499 . S
C250 H230 0.950 . S
C250 C249 1.414 . S
C250 C251 1.374 . S
C251 H231 0.950 . S
C251 C247 1.385 . S
C251 C250 1.374 . S
C252 C249 1.499 . S
C252 C253 1.373 . S
C252 C254 1.389 . S
C253 H232 0.950 . S
C253 C252 1.373 . S
C253 C269 1.377 . S
C254 C252 1.389 . S
C254 C255 1.524 . S
C254 C268 1.377 . S
C255 C254 1.524 . S
C255 C256 1.397 . S
C255 C260 1.363 . S
C256 H233 0.950 . S
C256 C255 1.397 . S
C256 C257 1.334 . S
C257 H234 0.950 . S
C257 C256 1.334 . S
C257 C258 1.287 . S
C258 C257 1.287 . S
C258 C259 1.524 . S
C258 H277 0.913 . S
C259 H235 0.950 . S
C259 C258 1.524 . S
C259 C260 1.415 . S
C260 H236 0.950 . S
C260 C255 1.363 . S
C260 C259 1.415 . S
C261 H237 0.951 . S
C261 C262 1.366 . S
C261 C263 1.388 . S
C262 C261 1.366 . S
C262 C266 1.385 . S
C263 H238 0.951 . S
C263 C261 1.388 . S
C263 C264 1.366 . S
C264 C263 1.366 . S
C264 C265 1.414 . S
C264 C267 1.499 . S
C265 H239 0.950 . S
C265 C264 1.414 . S
C265 C266 1.374 . S
C266 H240 0.950 . S
C266 C262 1.385 . S
C266 C265 1.374 . S
C267 C264 1.499 . S
C267 C268 1.373 . S
C267 C269 1.389 . S
C268 H241 0.950 . S
C268 C254 1.377 . S
C268 C267 1.373 . S
C269 C253 1.377 . S
C269 C267 1.389 . S
C269 C270 1.524 . S
C270 C269 1.524 . S
C270 C271 1.397 . S
C270 C275 1.363 . S
C271 H242 0.950 . S
C271 C270 1.397 . S
C271 C272 1.334 . S
C272 H243 0.950 . S
C272 C271 1.334 . S
C272 C273 1.287 . S
C273 C272 1.287 . S
C273 C274 1.524 . S
C273 H276 0.999 . S
C274 H244 0.950 . S
C274 C273 1.524 . S
C274 C275 1.415 . S
C275 H245 0.950 . S
C275 C270 1.363 . S
C275 C274 1.415 . S
H276 C273 0.999 . S
H277 C258 0.913 . S
H278 C296 0.951 . S
H279 C298 0.951 . S
H280 C300 0.950 . S
H281 C301 0.950 . S
H282 C303 0.950 . S
H283 C306 0.950 . S
H284 C307 0.950 . S
H285 C309 0.950 . S
H286 C310 0.950 . S
H287 C311 0.951 . S
H288 C313 0.951 . S
H289 C315 0.950 . S
H290 C316 0.950 . S
H291 C318 0.950 . S
H292 C321 0.950 . S
H293 C322 0.950 . S
H294 C324 0.950 . S
H295 C325 0.950 . S
C296 H278 0.951 . S
C296 C297 1.366 . S
C296 C298 1.388 . S
C297 C296 1.366 . S
C297 C301 1.385 . S
C298 H279 0.951 . S
C298 C296 1.388 . S
C298 C299 1.366 . S
C299 C298 1.366 . S
C299 C300 1.414 . S
C299 C302 1.499 . S
C300 H280 0.950 . S
C300 C299 1.414 . S
C300 C301 1.374 . S
C301 H281 0.950 . S
C301 C297 1.385 . S
C301 C300 1.374 . S
C302 C299 1.499 . S
C302 C303 1.373 . S
C302 C304 1.389 . S
C303 H282 0.950 . S
C303 C302 1.373 . S
C303 C319 1.377 . S
C304 C302 1.389 . S
C304 C305 1.524 . S
C304 C318 1.377 . S
C305 C304 1.524 . S
C305 C306 1.397 . S
C305 C310 1.363 . S
C306 H283 0.950 . S
C306 C305 1.397 . S
C306 C307 1.334 . S
C307 H284 0.950 . S
C307 C306 1.334 . S
C307 C308 1.287 . S
C308 C307 1.287 . S
C308 C309 1.524 . S
C308 H327 0.913 . S
C309 H285 0.950 . S
C309 C308 1.524 . S
C309 C310 1.415 . S
C310 H286 0.950 . S
C310 C305 1.363 . S
C310 C309 1.415 . S
C311 H287 0.951 . S
C311 C312 1.366 . S
C311 C313 1.388 . S
C312 C311 1.366 . S
C312 C316 1.385 . S
C313 H288 0.951 . S
C313 C311 1.388 . S
C313 C314 1.366 . S
C314 C313 1.366 . S
C314 C315 1.414 . S
C314 C317 1.499 . S
C315 H289 0.950 . S
C315 C314 1.414 . S
C315 C316 1.374 . S
C316 H290 0.950 . S
C316 C312 1.385 . S
C316 C315 1.374 . S
C317 C314 1.499 . S
C317 C318 1.373 . S
C317 C319 1.389 . S
C318 H291 0.950 . S
C318 C304 1.377 . S
C318 C317 1.373 . S
C319 C303 1.377 . S
C319 C317 1.389 . S
C319 C320 1.524 . S
C320 C319 1.524 . S
C320 C321 1.397 . S
C320 C325 1.363 . S
C321 H292 0.950 . S
C321 C320 1.397 . S
C321 C322 1.334 . S
C322 H293 0.950 . S
C322 C321 1.334 . S
C322 C323 1.287 . S
C323 C322 1.287 . S
C323 C324 1.524 . S
C323 H326 0.999 . S
C324 H294 0.950 . S
C324 C323 1.524 . S
C324 C325 1.415 . S
C325 H295 0.950 . S
C325 C320 1.363 . S
C325 C324 1.415 . S
H326 C323 0.999 . S
H327 C308 0.913 . S
H328 C346 0.951 . S
H329 C348 0.951 . S
H330 C350 0.950 . S
H331 C351 0.950 . S
H332 C353 0.950 . S
H333 C356 0.950 . S
H334 C357 0.950 . S
H335 C359 0.950 . S
H336 C360 0.950 . S
H337 C361 0.951 . S
H338 C363 0.951 . S
H339 C365 0.950 . S
H340 C366 0.950 . S
H341 C368 0.950 . S
H342 C371 0.950 . S
H343 C372 0.950 . S
H344 C374 0.950 . S
H345 C375 0.950 . S
C346 H328 0.951 . S
C346 C347 1.366 . S
C346 C348 1.388 . S
C347 C346 1.366 . S
C347 C351 1.385 . S
C348 H329 0.951 . S
C348 C346 1.388 . S
C348 C349 1.366 . S
C349 C348 1.366 . S
C349 C350 1.414 . S
C349 C352 1.499 . S
C350 H330 0.950 . S
C350 C349 1.414 . S
C350 C351 1.374 . S
C351 H331 0.950 . S
C351 C347 1.385 . S
C351 C350 1.374 . S
C352 C349 1.499 . S
C352 C353 1.373 . S
C352 C354 1.389 . S
C353 H332 0.950 . S
C353 C352 1.373 . S
C353 C369 1.377 . S
C354 C352 1.389 . S
C354 C355 1.524 . S
C354 C368 1.377 . S
C355 C354 1.524 . S
C355 C356 1.397 . S
C355 C360 1.363 . S
C356 H333 0.950 . S
C356 C355 1.397 . S
C356 C357 1.334 . S
C357 H334 0.950 . S
C357 C356 1.334 . S
C357 C358 1.287 . S
C358 C357 1.287 . S
C358 C359 1.524 . S
C358 H377 0.913 . S
C359 H335 0.950 . S
C359 C358 1.524 . S
C359 C360 1.415 . S
C360 H336 0.950 . S
C360 C355 1.363 . S
C360 C359 1.415 . S
C361 H337 0.951 . S
C361 C362 1.366 . S
C361 C363 1.388 . S
C362 C361 1.366 . S
C362 C366 1.385 . S
C363 H338 0.951 . S
C363 C361 1.388 . S
C363 C364 1.366 . S
C364 C363 1.366 . S
C364 C365 1.414 . S
C364 C367 1.499 . S
C365 H339 0.950 . S
C365 C364 1.414 . S
C365 C366 1.374 . S
C366 H340 0.950 . S
C366 C362 1.385 . S
C366 C365 1.374 . S
C367 C364 1.499 . S
C367 C368 1.373 . S
C367 C369 1.389 . S
C368 H341 0.950 . S
C368 C354 1.377 . S
C368 C367 1.373 . S
C369 C353 1.377 . S
C369 C367 1.389 . S
C369 C370 1.524 . S
C370 C369 1.524 . S
C370 C371 1.397 . S
C370 C375 1.363 . S
C371 H342 0.950 . S
C371 C370 1.397 . S
C371 C372 1.334 . S
C372 H343 0.950 . S
C372 C371 1.334 . S
C372 C373 1.287 . S
C373 C372 1.287 . S
C373 C374 1.524 . S
C373 H376 0.999 . S
C374 H344 0.950 . S
C374 C373 1.524 . S
C374 C375 1.415 . S
C375 H345 0.950 . S
C375 C370 1.363 . S
C375 C374 1.415 . S
H376 C373 0.999 . S
H377 C358 0.913 . S
H378 C396 0.951 . S
H379 C398 0.951 . S
H380 C400 0.950 . S
H381 C401 0.950 . S
H382 C403 0.951 . S
H383 C406 0.950 . S
H384 C407 0.950 . S
H385 C409 0.950 . S
H386 C410 0.950 . S
H387 C411 0.951 . S
H388 C413 0.951 . S
H389 C415 0.950 . S
H390 C416 0.950 . S
H391 C418 0.951 . S
H392 C421 0.950 . S
H393 C422 0.950 . S
H394 C424 0.950 . S
H395 C425 0.950 . S
C396 H378 0.951 . S
C396 C397 1.366 . S
C396 C398 1.388 . S
C397 C396 1.366 . S
C397 C401 1.385 . S
C398 H379 0.951 . S
C398 C396 1.388 . S
C398 C399 1.366 . S
C399 C398 1.366 . S
C399 C400 1.414 . S
C399 C402 1.499 . S
C400 H380 0.950 . S
C400 C399 1.414 . S
C400 C401 1.374 . S
C401 H381 0.950 . S
C401 C397 1.385 . S
C401 C400 1.374 . S
C402 C399 1.499 . S
C402 C403 1.377 . S
C402 C404 1.389 . S
C403 H382 0.951 . S
C403 C402 1.377 . S
C403 C419 1.367 1_566 S
C404 C402 1.389 . S
C404 C405 1.524 . S
C404 C418 1.367 1_566 S
C405 C404 1.524 . S
C405 C406 1.397 . S
C405 C410 1.363 1_556 S
C406 H383 0.950 . S
C406 C405 1.397 . S
C406 C407 1.334 . S
C407 H384 0.950 . S
C407 C406 1.334 . S
C407 C408 1.287 . S
C408 C407 1.287 . S
C408 C409 1.524 1_556 S
C408 H427 0.913 . S
C409 H385 0.950 . S
C409 C408 1.524 1_554 S
C409 C410 1.415 . S
C410 H386 0.950 . S
C410 C405 1.363 1_554 S
C410 C409 1.415 . S
C411 H387 0.951 . S
C411 C412 1.366 . S
C411 C413 1.388 . S
C412 C411 1.366 . S
C412 C416 1.385 . S
C413 H388 0.951 . S
C413 C411 1.388 . S
C413 C414 1.366 . S
C414 C413 1.366 . S
C414 C415 1.414 . S
C414 C417 1.499 . S
C415 H389 0.950 . S
C415 C414 1.414 . S
C415 C416 1.374 . S
C416 H390 0.950 . S
C416 C412 1.385 . S
C416 C415 1.374 . S
C417 C414 1.499 . S
C417 C418 1.377 . S
C417 C419 1.389 . S
C418 H391 0.951 . S
C418 C404 1.367 1_544 S
C418 C417 1.377 . S
C419 C403 1.367 1_544 S
C419 C417 1.389 . S
C419 C420 1.524 . S
C420 C419 1.524 . S
C420 C421 1.397 . S
C420 C425 1.363 1_554 S
C421 H392 0.950 . S
C421 C420 1.397 . S
C421 C422 1.334 . S
C422 H393 0.950 . S
C422 C421 1.334 . S
C422 C423 1.287 . S
C423 C422 1.287 . S
C423 C424 1.524 1_554 S
C423 H426 0.999 . S
C424 H394 0.950 . S
C424 C423 1.524 1_556 S
C424 C425 1.415 . S
C425 H395 0.950 . S
C425 C420 1.363 1_556 S
C425 C424 1.415 . S
H426 C423 0.999 . S
H427 C408 0.913 . S
H428 C446 0.951 . S
H429 C448 0.951 . S
H430 C450 0.950 . S
H431 C451 0.950 . S
H432 C453 0.950 . S
H433 C456 0.950 . S
H434 C457 0.950 . S
H435 C459 0.950 . S
H436 C460 0.950 . S
H437 C461 0.951 . S
H438 C463 0.951 . S
H439 C465 0.950 . S
H440 C466 0.950 . S
H441 C468 0.950 . S
H442 C471 0.950 . S
H443 C472 0.950 . S
H444 C474 0.950 . S
H445 C475 0.950 . S
C446 H428 0.951 . S
C446 C447 1.366 . S
C446 C448 1.388 . S
C447 C446 1.366 . S
C447 C451 1.385 . S
C448 H429 0.951 . S
C448 C446 1.388 . S
C448 C449 1.366 . S
C449 C448 1.366 . S
C449 C450 1.414 . S
C449 C452 1.499 . S
C450 H430 0.950 . S
C450 C449 1.414 . S
C450 C451 1.374 . S
C451 H431 0.950 . S
C451 C447 1.385 . S
C451 C450 1.374 . S
C452 C449 1.499 . S
C452 C453 1.373 . S
C452 C454 1.389 . S
C453 H432 0.950 . S
C453 C452 1.373 . S
C453 C469 1.377 . S
C454 C452 1.389 . S
C454 C455 1.524 . S
C454 C468 1.377 . S
C455 C454 1.524 . S
C455 C456 1.397 . S
C455 C460 1.363 . S
C456 H433 0.950 . S
C456 C455 1.397 . S
C456 C457 1.334 . S
C457 H434 0.950 . S
C457 C456 1.334 . S
C457 C458 1.287 . S
C458 C457 1.287 . S
C458 C459 1.524 . S
C458 H477 0.913 . S
C459 H435 0.950 . S
C459 C458 1.524 . S
C459 C460 1.415 . S
C460 H436 0.950 . S
C460 C455 1.363 . S
C460 C459 1.415 . S
C461 H437 0.951 . S
C461 C462 1.366 . S
C461 C463 1.388 . S
C462 C461 1.366 . S
C462 C466 1.385 . S
C463 H438 0.951 . S
C463 C461 1.388 . S
C463 C464 1.366 . S
C464 C463 1.366 . S
C464 C465 1.414 . S
C464 C467 1.499 . S
C465 H439 0.950 . S
C465 C464 1.414 . S
C465 C466 1.374 . S
C466 H440 0.950 . S
C466 C462 1.385 . S
C466 C465 1.374 . S
C467 C464 1.499 . S
C467 C468 1.373 . S
C467 C469 1.389 . S
C468 H441 0.950 . S
C468 C454 1.377 . S
C468 C467 1.373 . S
C469 C453 1.377 . S
C469 C467 1.389 . S
C469 C470 1.524 . S
C470 C469 1.524 . S
C470 C471 1.397 . S
C470 C475 1.363 . S
C471 H442 0.950 . S
C471 C470 1.397 . S
C471 C472 1.334 . S
C472 H443 0.950 . S
C472 C471 1.334 . S
C472 C473 1.287 . S
C473 C472 1.287 . S
C473 C474 1.524 . S
C473 H476 0.999 . S
C474 H444 0.950 . S
C474 C473 1.524 . S
C474 C475 1.415 . S
C475 H445 0.950 . S
C475 C470 1.363 . S
C475 C474 1.415 . S
H476 C473 0.999 . S
H477 C458 0.913 . S
H478 C496 0.951 . S
H479 C498 0.951 . S
H480 C500 0.950 . S
H481 C501 0.950 . S
H482 C503 0.960 . S
H483 C506 0.950 . S
H484 C507 0.950 . S
H485 C509 0.950 . S
H486 C510 0.950 . S
H487 C511 0.951 . S
H488 C513 0.951 . S
H489 C515 0.950 . S
H490 C516 0.950 . S
H491 C518 0.960 . S
H492 C521 0.950 . S
H493 C522 0.950 . S
H494 C524 0.950 . S
H495 C525 0.950 . S
C496 H478 0.951 . S
C496 C497 1.366 . S
C496 C498 1.388 . S
C497 C496 1.366 . S
C497 C501 1.385 . S
C498 H479 0.951 . S
C498 C496 1.388 . S
C498 C499 1.366 . S
C499 C498 1.366 . S
C499 C500 1.414 . S
C499 C502 1.499 . S
C500 H480 0.950 . S
C500 C499 1.414 . S
C500 C501 1.374 . S
C501 H481 0.950 . S
C501 C497 1.385 . S
C501 C500 1.374 . S
C502 C499 1.499 . S
C502 C503 1.366 1_455 S
C502 C504 1.389 1_556 S
C503 H482 0.960 . S
C503 C502 1.366 1_655 S
C503 C519 1.390 . S
C504 C502 1.389 1_554 S
C504 C505 1.524 . S
C504 C518 1.390 . S
C505 C504 1.524 . S
C505 C506 1.397 . S
C505 C510 1.363 . S
C506 H483 0.950 . S
C506 C505 1.397 . S
C506 C507 1.334 . S
C507 H484 0.950 . S
C507 C506 1.334 . S
C507 C508 1.287 . S
C508 C507 1.287 . S
C508 C509 1.524 . S
C508 H527 0.913 . S
C509 H485 0.950 . S
C509 C508 1.524 . S
C509 C510 1.415 . S
C510 H486 0.950 . S
C510 C505 1.363 . S
C510 C509 1.415 . S
C511 H487 0.951 . S
C511 C512 1.366 . S
C511 C513 1.388 . S
C512 C511 1.366 . S
C512 C516 1.385 . S
C513 H488 0.951 . S
C513 C511 1.388 . S
C513 C514 1.366 . S
C514 C513 1.366 . S
C514 C515 1.414 . S
C514 C517 1.499 . S
C515 H489 0.950 . S
C515 C514 1.414 . S
C515 C516 1.374 . S
C516 H490 0.950 . S
C516 C512 1.385 . S
C516 C515 1.374 . S
C517 C514 1.499 . S
C517 C518 1.366 1_655 S
C517 C519 1.389 1_554 S
C518 H491 0.960 . S
C518 C504 1.390 . S
C518 C517 1.366 1_455 S
C519 C503 1.390 . S
C519 C517 1.389 1_556 S
C519 C520 1.524 . S
C520 C519 1.524 . S
C520 C521 1.397 . S
C520 C525 1.363 . S
C521 H492 0.950 . S
C521 C520 1.397 . S
C521 C522 1.334 . S
C522 H493 0.950 . S
C522 C521 1.334 . S
C522 C523 1.287 . S
C523 C522 1.287 . S
C523 C524 1.524 . S
C523 H526 0.999 . S
C524 H494 0.950 . S
C524 C523 1.524 . S
C524 C525 1.415 . S
C525 H495 0.950 . S
C525 C520 1.363 . S
C525 C524 1.415 . S
H526 C523 0.999 . S
H527 C508 0.913 . S
H528 C546 0.951 . S
H529 C548 0.951 . S
H530 C550 0.950 . S
H531 C551 0.950 . S
H532 C553 0.950 . S
H533 C556 0.950 . S
H534 C557 0.950 . S
H535 C559 0.950 . S
H536 C560 0.950 . S
H537 C561 0.951 . S
H538 C563 0.951 . S
H539 C565 0.950 . S
H540 C566 0.950 . S
H541 C568 0.950 . S
H542 C571 0.950 . S
H543 C572 0.950 . S
H544 C574 0.950 . S
H545 C575 0.950 . S
C546 H528 0.951 . S
C546 C547 1.366 . S
C546 C548 1.388 . S
C547 C546 1.366 . S
C547 C551 1.385 . S
C548 H529 0.951 . S
C548 C546 1.388 . S
C548 C549 1.366 . S
C549 C548 1.366 . S
C549 C550 1.414 . S
C549 C552 1.499 . S
C550 H530 0.950 . S
C550 C549 1.414 . S
C550 C551 1.374 . S
C551 H531 0.950 . S
C551 C547 1.385 . S
C551 C550 1.374 . S
C552 C549 1.499 . S
C552 C553 1.373 1_545 S
C552 C554 1.389 . S
C553 H532 0.950 . S
C553 C552 1.373 1_565 S
C553 C569 1.377 . S
C554 C552 1.389 . S
C554 C555 1.524 . S
C554 C568 1.377 . S
C555 C554 1.524 . S
C555 C556 1.397 . S
C555 C560 1.363 . S
C556 H533 0.950 . S
C556 C555 1.397 . S
C556 C557 1.334 . S
C557 H534 0.950 . S
C557 C556 1.334 . S
C557 C558 1.287 . S
C558 C557 1.287 . S
C558 C559 1.524 . S
C558 H577 0.913 . S
C559 H535 0.950 . S
C559 C558 1.524 . S
C559 C560 1.415 . S
C560 H536 0.950 . S
C560 C555 1.363 . S
C560 C559 1.415 . S
C561 H537 0.951 . S
C561 C562 1.366 . S
C561 C563 1.388 . S
C562 C561 1.366 . S
C562 C566 1.385 . S
C563 H538 0.951 . S
C563 C561 1.388 . S
C563 C564 1.366 . S
C564 C563 1.366 . S
C564 C565 1.414 . S
C564 C567 1.499 . S
C565 H539 0.950 . S
C565 C564 1.414 . S
C565 C566 1.374 . S
C566 H540 0.950 . S
C566 C562 1.385 . S
C566 C565 1.374 . S
C567 C564 1.499 . S
C567 C568 1.373 1_565 S
C567 C569 1.389 . S
C568 H541 0.950 . S
C568 C554 1.377 . S
C568 C567 1.373 1_545 S
C569 C553 1.377 . S
C569 C567 1.389 . S
C569 C570 1.524 . S
C570 C569 1.524 . S
C570 C571 1.397 . S
C570 C575 1.363 . S
C571 H542 0.950 . S
C571 C570 1.397 . S
C571 C572 1.334 . S
C572 H543 0.950 . S
C572 C571 1.334 . S
C572 C573 1.287 . S
C573 C572 1.287 . S
C573 C574 1.524 . S
C573 H576 0.999 . S
C574 H544 0.950 . S
C574 C573 1.524 . S
C574 C575 1.415 . S
C575 H545 0.950 . S
C575 C570 1.363 . S
C575 C574 1.415 . S
H576 C573 0.999 . S
H577 C558 0.913 . S
H578 C596 0.951 . S
H579 C598 0.951 . S
H580 C600 0.950 . S
H581 C601 0.950 . S
H582 C603 0.950 . S
H583 C606 0.950 . S
H584 C607 0.950 . S
H585 C609 0.950 . S
H586 C610 0.950 . S
H587 C611 0.951 . S
H588 C613 0.951 . S
H589 C615 0.950 . S
H590 C616 0.950 . S
H591 C618 0.950 . S
H592 C621 0.950 . S
H593 C622 0.950 . S
H594 C624 0.950 . S
H595 C625 0.950 . S
C596 H578 0.951 . S
C596 C597 1.366 . S
C596 C598 1.388 . S
C597 C596 1.366 . S
C597 C601 1.385 . S
C598 H579 0.951 . S
C598 C596 1.388 . S
C598 C599 1.366 . S
C599 C598 1.366 . S
C599 C600 1.414 . S
C599 C602 1.499 . S
C600 H580 0.950 . S
C600 C599 1.414 . S
C600 C601 1.374 . S
C601 H581 0.950 . S
C601 C597 1.385 . S
C601 C600 1.374 . S
C602 C599 1.499 . S
C602 C603 1.373 . S
C602 C604 1.389 . S
C603 H582 0.950 . S
C603 C602 1.373 . S
C603 C619 1.377 1_556 S
C604 C602 1.389 . S
C604 C605 1.524 . S
C604 C618 1.377 1_556 S
C605 C604 1.524 . S
C605 C606 1.397 . S
C605 C610 1.363 . S
C606 H583 0.950 . S
C606 C605 1.397 . S
C606 C607 1.334 . S
C607 H584 0.950 . S
C607 C606 1.334 . S
C607 C608 1.287 . S
C608 C607 1.287 . S
C608 C609 1.524 . S
C608 H627 0.913 . S
C609 H585 0.950 . S
C609 C608 1.524 . S
C609 C610 1.415 . S
C610 H586 0.950 . S
C610 C605 1.363 . S
C610 C609 1.415 . S
C611 H587 0.951 . S
C611 C612 1.366 . S
C611 C613 1.388 . S
C612 C611 1.366 . S
C612 C616 1.385 . S
C613 H588 0.951 . S
C613 C611 1.388 . S
C613 C614 1.366 . S
C614 C613 1.366 . S
C614 C615 1.414 . S
C614 C617 1.499 . S
C615 H589 0.950 . S
C615 C614 1.414 . S
C615 C616 1.374 . S
C616 H590 0.950 . S
C616 C612 1.385 . S
C616 C615 1.374 . S
C617 C614 1.499 . S
C617 C618 1.373 . S
C617 C619 1.389 . S
C618 H591 0.950 . S
C618 C604 1.377 1_554 S
C618 C617 1.373 . S
C619 C603 1.377 1_554 S
C619 C617 1.389 . S
C619 C620 1.524 . S
C620 C619 1.524 . S
C620 C621 1.397 . S
C620 C625 1.363 . S
C621 H592 0.950 . S
C621 C620 1.397 . S
C621 C622 1.334 . S
C622 H593 0.950 . S
C622 C621 1.334 . S
C622 C623 1.287 . S
C623 C622 1.287 . S
C623 C624 1.524 . S
C623 H626 0.999 . S
C624 H594 0.950 . S
C624 C623 1.524 . S
C624 C625 1.415 . S
C625 H595 0.950 . S
C625 C620 1.363 . S
C625 C624 1.415 . S
H626 C623 0.999 . S
H627 C608 0.913 . S
H628 C646 0.951 . S
H629 C648 0.951 . S
H630 C650 0.950 . S
H631 C651 0.950 . S
H632 C653 0.950 . S
H633 C656 0.950 . S
H634 C657 0.950 . S
H635 C659 0.950 . S
H636 C660 0.950 . S
H637 C661 0.951 . S
H638 C663 0.951 . S
H639 C665 0.950 . S
H640 C666 0.950 . S
H641 C668 0.950 . S
H642 C671 0.950 . S
H643 C672 0.950 . S
H644 C674 0.950 . S
H645 C675 0.950 . S
C646 H628 0.951 . S
C646 C647 1.366 . S
C646 C648 1.388 . S
C647 C646 1.366 . S
C647 C651 1.385 . S
C648 H629 0.951 . S
C648 C646 1.388 . S
C648 C649 1.366 . S
C649 C648 1.366 . S
C649 C650 1.414 . S
C649 C652 1.499 . S
C650 H630 0.950 . S
C650 C649 1.414 . S
C650 C651 1.374 . S
C651 H631 0.950 . S
C651 C647 1.385 . S
C651 C650 1.374 . S
C652 C649 1.499 . S
C652 C653 1.373 1_455 S
C652 C654 1.389 . S
C653 H632 0.950 . S
C653 C652 1.373 1_655 S
C653 C669 1.377 . S
C654 C652 1.389 . S
C654 C655 1.524 . S
C654 C668 1.377 . S
C655 C654 1.524 . S
C655 C656 1.397 . S
C655 C660 1.363 . S
C656 H633 0.950 . S
C656 C655 1.397 . S
C656 C657 1.334 . S
C657 H634 0.950 . S
C657 C656 1.334 . S
C657 C658 1.287 . S
C658 C657 1.287 . S
C658 C659 1.524 . S
C658 H677 0.913 . S
C659 H635 0.950 . S
C659 C658 1.524 . S
C659 C660 1.415 . S
C660 H636 0.950 . S
C660 C655 1.363 . S
C660 C659 1.415 . S
C661 H637 0.951 . S
C661 C662 1.366 . S
C661 C663 1.388 . S
C662 C661 1.366 . S
C662 C666 1.385 . S
C663 H638 0.951 . S
C663 C661 1.388 . S
C663 C664 1.366 . S
C664 C663 1.366 . S
C664 C665 1.414 . S
C664 C667 1.499 . S
C665 H639 0.950 . S
C665 C664 1.414 . S
C665 C666 1.374 . S
C666 H640 0.950 . S
C666 C662 1.385 . S
C666 C665 1.374 . S
C667 C664 1.499 . S
C667 C668 1.373 1_655 S
C667 C669 1.389 . S
C668 H641 0.950 . S
C668 C654 1.377 . S
C668 C667 1.373 1_455 S
C669 C653 1.377 . S
C669 C667 1.389 . S
C669 C670 1.524 . S
C670 C669 1.524 . S
C670 C671 1.397 . S
C670 C675 1.363 . S
C671 H642 0.950 . S
C671 C670 1.397 . S
C671 C672 1.334 . S
C672 H643 0.950 . S
C672 C671 1.334 . S
C672 C673 1.287 . S
C673 C672 1.287 . S
C673 C674 1.524 . S
C673 H676 0.999 . S
C674 H644 0.950 . S
C674 C673 1.524 . S
C674 C675 1.415 . S
C675 H645 0.950 . S
C675 C670 1.363 . S
C675 C674 1.415 . S
H676 C673 0.999 . S
H677 C658 0.913 . S
C97 C3 1.010 . S
C112 C57 1.010 . S
C147 C16 1.010 . S
C162 C68 1.011 . S
C197 C5 1.011 . S
C212 C29 1.010 . S
C247 C44 1.010 . S
C262 C18 1.010 . S
C297 C55 1.010 . S
C312 C31 1.011 . S
C347 C42 1.010 . S
C362 C70 1.011 . S
C397 C49 1.407 . S
C412 C10 1.407 . S
C447 C56 1.407 . S
C462 C23 1.407 . S
C497 C75 1.407 . S
C512 C36 1.407 . S
C547 C4 1.407 . S
C562 C43 1.407 . S
C597 C17 1.407 . S
C612 C62 1.407 . S
C647 C69 1.407 . S
C662 C30 1.407 . S
