# Generated by pormake.
# Topology qtz-e, (6)-cn, num edge types: 1
# Building blocks:
#     Node 0, Type 0, BuildingBlock: KUMBOL_clean_sbu_1, # of connection points: 6
#     Node 1, Type 0, BuildingBlock: KUMBOL_clean_sbu_1, # of connection points: 6
#     Node 2, Type 0, BuildingBlock: KUMBOL_clean_sbu_1, # of connection points: 6
#     Node 3, Type 0, BuildingBlock: KUMBOL_clean_sbu_1, # of connection points: 6
#     Node 4, Type 0, BuildingBlock: KUMBOL_clean_sbu_1, # of connection points: 6
#     Node 5, Type 0, BuildingBlock: KUMBOL_clean_sbu_1, # of connection points: 6
#     Edge 6, Type (0, 0), BuildingBlock: XUDNAN_clean_linker_2, # of connection points: 2
#     Edge 7, Type (0, 0), BuildingBlock: XUDNAN_clean_linker_2, # of connection points: 2
#     Edge 8, Type (0, 0), BuildingBlock: XUDNAN_clean_linker_2, # of connection points: 2
#     Edge 9, Type (0, 0), BuildingBlock: XUDNAN_clean_linker_2, # of connection points: 2
#     Edge 10, Type (0, 0), BuildingBlock: XUDNAN_clean_linker_2, # of connection points: 2
#     Edge 11, Type (0, 0), BuildingBlock: XUDNAN_clean_linker_2, # of connection points: 2
#     Edge 12, Type (0, 0), BuildingBlock: XUDNAN_clean_linker_2, # of connection points: 2
#     Edge 13, Type (0, 0), BuildingBlock: XUDNAN_clean_linker_2, # of connection points: 2
#     Edge 14, Type (0, 0), BuildingBlock: XUDNAN_clean_linker_2, # of connection points: 2
#     Edge 15, Type (0, 0), BuildingBlock: XUDNAN_clean_linker_2, # of connection points: 2
#     Edge 16, Type (0, 0), BuildingBlock: XUDNAN_clean_linker_2, # of connection points: 2
#     Edge 17, Type (0, 0), BuildingBlock: XUDNAN_clean_linker_2, # of connection points: 2
#     Edge 18, Type (0, 0), BuildingBlock: XUDNAN_clean_linker_2, # of connection points: 2
#     Edge 19, Type (0, 0), BuildingBlock: XUDNAN_clean_linker_2, # of connection points: 2
#     Edge 20, Type (0, 0), BuildingBlock: XUDNAN_clean_linker_2, # of connection points: 2
#     Edge 21, Type (0, 0), BuildingBlock: XUDNAN_clean_linker_2, # of connection points: 2
#     Edge 22, Type (0, 0), BuildingBlock: XUDNAN_clean_linker_2, # of connection points: 2
#     Edge 23, Type (0, 0), BuildingBlock: XUDNAN_clean_linker_2, # of connection points: 2
# Relax obj value: 0.147
# Max RMSD: 0.210
# Mean RMSD: 0.210
data_MOF--net-qtz-e--node1-KUMBOL_clean_sbu_1--edge1-XUDNAN_clean_linker_2
_symmetry_space_group_name_H-M    P1
_symmetry_Int_Tables_number       1
_symmetry_cell_setting            triclinic
loop_
_symmetry_equiv_pos_as_xyz
'x, y, z'
_cell_length_a     28.059641
_cell_length_b     28.105989
_cell_length_c     48.833282
_cell_angle_alpha  90.072501
_cell_angle_beta   89.800968
_cell_angle_gamma 119.89453
loop_
_atom_site_label
_atom_site_type_symbol
_atom_site_fract_x
_atom_site_fract_y
_atom_site_fract_z
_atom_type_partial_charge
C0 C 0.35622 0.616 0.02646 0.0
C1 C 0.31838 0.67172 0.00988 0.0
C2 C 0.31104 0.62229 0.02108 0.0
C3 C 0.37164 0.71437 0.00375 0.0
C4 C 0.4098 0.6593 0.02099 0.0
C5 C 0.41722 0.70816 0.00926 0.0
N6 N 0.34778 0.5683 0.038 0.0
C7 C 0.39104 0.5634 0.04688 0.0
C8 C 0.4544 0.65271 0.02813 0.0
C9 C 0.44498 0.60494 0.04152 0.0
Gd10 Gd 0.17646 0.34503 -0.00132 0.0
Gd11 Gd 0.25598 0.50133 0.04604 0.0
N12 N 0.25989 0.57989 0.02686 0.0
C13 C 0.27199 0.67704 0.00548 0.0
C14 C 0.21483 0.58581 0.02371 0.0
C15 C 0.22006 0.63408 0.0127 0.0
H16 H 0.17486 0.55407 0.03016 0.0
H17 H 0.18406 0.63833 0.01006 0.0
H18 H 0.27495 0.31195 0.01455 0.0
H19 H 0.38379 0.52815 0.05877 0.0
H20 H 0.28152 0.24092 0.04038 0.0
H21 H 0.27591 0.71445 0.99702 0.0
H22 H 0.37807 0.75258 0.99505 0.0
H23 H 0.04372 0.30381 0.995 0.0
H24 H 0.49624 0.68495 0.02423 0.0
H25 H 0.47939 0.60065 0.04802 0.0
H26 H 0.09605 0.11484 0.06759 0.0
H27 H 0.4581 0.74176 0.00481 0.0
H28 H 0.95441 0.15136 0.03825 0.0
H29 H 0.95523 0.22636 0.01135 0.0
N30 N 0.09161 0.27281 0.01291 0.0
C31 C 0.09213 0.23146 0.02695 0.0
C32 C 0.04341 0.27107 0.00674 0.0
C33 C 0.99316 0.18508 0.03108 0.0
C34 C 0.99344 0.22738 0.01593 0.0
C35 C 0.04285 0.18663 0.03669 0.0
H36 H 0.00736 0.11021 0.05934 0.0
N37 N 0.18899 0.2784 0.02183 0.0
C38 C 0.14232 0.23462 0.03179 0.0
C39 C 0.19509 0.19523 0.0498 0.0
C40 C 0.1442 0.19216 0.04625 0.0
C41 C 0.23831 0.28004 0.02411 0.0
C42 C 0.2422 0.23903 0.03841 0.0
O43 O 0.27578 0.52059 0.00062 0.0
O44 O 0.22644 0.43371 0.00215 0.0
O45 O 0.19124 0.30366 0.96402 0.0
O46 O 0.13853 0.33989 0.95935 0.0
O47 O 0.16611 0.46466 0.03326 0.0
O48 O 0.13566 0.39821 0.99726 0.0
O49 O 0.13746 0.34105 0.03942 0.0
O50 O 0.21727 0.41039 0.05457 0.0
O51 O 0.21616 0.52139 0.07883 0.0
O52 O 0.29493 0.52681 0.08564 0.0
O53 O 0.27044 0.39128 0.00526 0.0
O54 O 0.28811 0.44025 0.0462 0.0
C55 C 0.25353 0.47611 0.98642 0.0
C56 C 0.13159 0.43451 0.01342 0.0
C57 C 0.14849 0.29498 0.91907 0.0
C58 C 0.17708 0.276 0.87466 0.0
C59 C 0.08707 0.26833 0.88011 0.0
C60 C 0.09844 0.28411 0.90744 0.0
C61 C 0.12581 0.2642 0.86386 0.0
C62 C 0.18747 0.29025 0.90271 0.0
C63 C 0.16011 0.31326 0.94791 0.0
C64 C 0.09529 0.14765 0.05633 0.0
C65 C 0.04475 0.14493 0.05158 0.0
H66 H 0.19828 0.16342 0.06075 0.0
C67 C 0.16469 0.3765 0.05873 0.0
C68 C 0.30458 0.42262 0.02491 0.0
C69 C 0.2806 0.59463 0.10596 0.0
C70 C 0.27072 0.65864 0.13586 0.0
C71 C 0.35068 0.69111 0.10621 0.0
C72 C 0.33099 0.63799 0.09649 0.0
C73 C 0.32078 0.70153 0.12574 0.0
C74 C 0.25073 0.6051 0.12582 0.0
C75 C 0.25866 0.53887 0.09489 0.0
H76 H 0.048 0.25932 0.87143 0.0
H77 H 0.06782 0.28744 0.91956 0.0
H78 H 0.115 0.25098 0.84285 0.0
H79 H 0.22632 0.29933 0.91168 0.0
H80 H 0.38952 0.7242 0.09878 0.0
H81 H 0.35553 0.631 0.08173 0.0
H82 H 0.33758 0.74296 0.13347 0.0
H83 H 0.21201 0.57177 0.13333 0.0
C84 C 0.75077 0.35356 0.34939 0.0
C85 C 0.66101 0.30919 0.32802 0.0
C86 C 0.70174 0.30612 0.34354 0.0
C87 C 0.67193 0.35973 0.3169 0.0
C88 C 0.76126 0.40469 0.33901 0.0
C89 C 0.72199 0.40736 0.32234 0.0
N90 N 0.78866 0.34946 0.36498 0.0
C91 C 0.83597 0.39523 0.37259 0.0
C92 C 0.8111 0.45155 0.3456 0.0
C93 C 0.84839 0.44684 0.36266 0.0
Gd94 Gd 0.82594 0.18003 0.33 0.0
Gd95 Gd 0.76707 0.26077 0.37864 0.0
N96 N 0.69255 0.25768 0.35446 0.0
C97 C 0.60965 0.26185 0.32515 0.0
C98 C 0.64035 0.21382 0.35474 0.0
C99 C 0.59879 0.21435 0.33927 0.0
H100 H 0.62973 0.17907 0.3677 0.0
H101 H 0.55803 0.17862 0.33888 0.0
H102 H 0.96021 0.26298 0.34938 0.0
H103 H 0.86372 0.39171 0.38652 0.0
H104 H 0.02747 0.25645 0.37844 0.0
H105 H 0.57722 0.26246 0.31346 0.0
H106 H 0.64138 0.36267 0.30465 0.0
H107 H 0.72153 0.05273 0.32393 0.0
H108 H 0.82087 0.49156 0.3379 0.0
H109 H 0.88656 0.483 0.36814 0.0
H110 H 0.93961 0.06713 0.4046 0.0
H111 H 0.72955 0.44619 0.31394 0.0
H112 H 0.75965 0.94565 0.36939 0.0
H113 H 0.69538 0.95951 0.34042 0.0
N114 N 0.79968 0.09033 0.34315 0.0
C115 C 0.83603 0.08368 0.35869 0.0
C116 C 0.74989 0.04669 0.33635 0.0
C117 C 0.77147 0.98642 0.36202 0.0
C118 C 0.73502 0.99406 0.34568 0.0
C119 C 0.82263 0.03148 0.36876 0.0
H120 H 0.8506 0.98625 0.39349 0.0
N121 N 0.89698 0.17991 0.35585 0.0
C122 C 0.88578 0.1298 0.36545 0.0
C123 C 0.97494 0.17055 0.38704 0.0
C124 C 0.92407 0.12406 0.38174 0.0
C125 C 0.94818 0.22448 0.35935 0.0
C126 C 0.98736 0.22072 0.37539 0.0
O127 O 0.80106 0.29697 0.33697 0.0
O128 O 0.77773 0.21801 0.31417 0.0
O129 O 0.8858 0.21091 0.2964 0.0
O130 O 0.81238 0.12972 0.29387 0.0
O131 O 0.71031 0.17028 0.36859 0.0
O132 O 0.73577 0.15398 0.32568 0.0
O133 O 0.78852 0.14424 0.37086 0.0
O134 O 0.81223 0.22036 0.39709 0.0
O135 O 0.70413 0.23459 0.41006 0.0
O136 O 0.78118 0.31005 0.41521 0.0
O137 O 0.88218 0.26986 0.33906 0.0
O138 O 0.8578 0.28774 0.38151 0.0
C139 C 0.79605 0.27069 0.31405 0.0
C140 C 0.69902 0.14274 0.34529 0.0
C141 C 0.87372 0.15824 0.25446 0.0
C142 C 0.92546 0.19416 0.21177 0.0
C143 C 0.8603 0.09659 0.21667 0.0
C144 C 0.84764 0.10526 0.24316 0.0
C145 C 0.89871 0.14058 0.20104 0.0
C146 C 0.91317 0.20269 0.23875 0.0
C147 C 0.85684 0.16685 0.28188 0.0
C148 C 0.91082 0.07212 0.39189 0.0
C149 C 0.86022 0.026 0.38547 0.0
H150 H 0.00549 0.16782 0.3994 0.0
C151 C 0.79595 0.16795 0.39475 0.0
C152 C 0.8916 0.30226 0.36036 0.0
C153 C 0.73451 0.26092 0.45511 0.0
C154 C 0.68746 0.23641 0.49936 0.0
C155 C 0.77809 0.2456 0.49419 0.0
C156 C 0.779 0.2584 0.46652 0.0
C157 C 0.73279 0.23468 0.51055 0.0
C158 C 0.68881 0.2494 0.47146 0.0
C159 C 0.73431 0.27528 0.42626 0.0
H160 H 0.84005 0.05557 0.20816 0.0
H161 H 0.81714 0.07043 0.25474 0.0
H162 H 0.90796 0.13255 0.18057 0.0
H163 H 0.93294 0.24388 0.24711 0.0
H164 H 0.81296 0.24492 0.5031 0.0
H165 H 0.81445 0.26671 0.45414 0.0
H166 H 0.7339 0.22613 0.53208 0.0
H167 H 0.65419 0.25043 0.4623 0.0
C168 C 0.39019 0.75327 0.72572 0.0
C169 C 0.31555 0.6841 0.69848 0.0
C170 C 0.37019 0.70896 0.70792 0.0
C171 C 0.28231 0.70632 0.70604 0.0
C172 C 0.35599 0.77384 0.73451 0.0
C173 C 0.30252 0.75116 0.72397 0.0
N174 N 0.44159 0.77357 0.73603 0.0
C175 C 0.45944 0.81047 0.75696 0.0
C176 C 0.37576 0.81498 0.75452 0.0
C177 C 0.42723 0.83247 0.76624 0.0
Gd178 Gd 0.63774 0.82766 0.66486 0.0
Gd179 Gd 0.49349 0.73636 0.71848 0.0
N180 N 0.40333 0.6884 0.70098 0.0
C181 C 0.29541 0.63665 0.68243 0.0
C182 C 0.38288 0.64019 0.68668 0.0
C183 C 0.329 0.6142 0.67682 0.0
H184 H 0.40938 0.62377 0.6816 0.0
H185 H 0.31353 0.57707 0.66479 0.0
H186 H 0.66363 0.95641 0.68114 0.0
H187 H 0.49866 0.82289 0.76645 0.0
H188 H 0.73369 0.03688 0.7057 0.0
H189 H 0.25364 0.61634 0.6748 0.0
H190 H 0.24041 0.68817 0.69874 0.0
H191 H 0.69209 0.74862 0.65332 0.0
H192 H 0.35079 0.83189 0.76183 0.0
H193 H 0.44202 0.86271 0.78246 0.0
H194 H 0.87526 0.99344 0.72477 0.0
H195 H 0.27585 0.76681 0.73026 0.0
H196 H 0.85196 0.82347 0.68988 0.0
H197 H 0.77733 0.74676 0.66409 0.0
N198 N 0.71852 0.82516 0.67298 0.0
C199 C 0.75935 0.86819 0.68653 0.0
C200 C 0.72462 0.78222 0.66453 0.0
C201 C 0.81475 0.82446 0.68517 0.0
C202 C 0.77273 0.78108 0.6706 0.0
C203 C 0.80853 0.86892 0.6932 0.0
H204 H 0.8879 0.91529 0.71285 0.0
N205 N 0.70435 0.90987 0.68588 0.0
C206 C 0.75184 0.91173 0.69341 0.0
C207 C 0.78652 0.00276 0.71201 0.0
C208 C 0.79397 0.95793 0.70691 0.0
C209 C 0.69858 0.95504 0.68925 0.0
C210 C 0.73897 0.0016 0.70275 0.0
O211 O 0.46528 0.73657 0.67491 0.0
O212 O 0.55168 0.78577 0.67371 0.0
O213 O 0.65107 0.88386 0.63152 0.0
O214 O 0.64648 0.80631 0.62304 0.0
O215 O 0.52233 0.68843 0.69249 0.0
O216 O 0.59456 0.73424 0.65979 0.0
O217 O 0.65087 0.79129 0.70328 0.0
O218 O 0.58344 0.79442 0.72758 0.0
O219 O 0.5041 0.67256 0.73729 0.0
O220 O 0.45828 0.70409 0.75867 0.0
O221 O 0.58749 0.8676 0.67926 0.0
O222 O 0.55306 0.82942 0.72217 0.0
C223 C 0.50712 0.76515 0.65956 0.0
C224 C 0.55609 0.68991 0.67291 0.0
C225 C 0.7058 0.88266 0.59561 0.0
C226 C 0.74913 0.9402 0.5555 0.0
C227 C 0.80247 0.91689 0.58627 0.0
C228 C 0.75608 0.88665 0.60268 0.0
C229 C 0.79917 0.94358 0.56284 0.0
C230 C 0.70255 0.90952 0.57213 0.0
C231 C 0.65712 0.85366 0.61325 0.0
C232 C 0.84263 0.95846 0.71424 0.0
C233 C 0.8499 0.91404 0.7074 0.0
H234 H 0.8179 0.03905 0.72229 0.0
C235 C 0.62142 0.78017 0.72579 0.0
C236 C 0.56382 0.86708 0.70304 0.0
C237 C 0.4258 0.60945 0.76201 0.0
C238 C 0.35926 0.53909 0.79255 0.0
C239 C 0.35854 0.52041 0.74394 0.0
C240 C 0.4034 0.57279 0.73996 0.0
C241 C 0.33648 0.50354 0.77007 0.0
C242 C 0.40359 0.59244 0.78829 0.0
C243 C 0.47125 0.66573 0.75764 0.0
H244 H 0.84116 0.91976 0.59178 0.0
H245 H 0.75961 0.86685 0.62092 0.0
H246 H 0.83559 0.96631 0.5503 0.0
H247 H 0.66388 0.90738 0.56718 0.0
H248 H 0.34126 0.49259 0.72679 0.0
H249 H 0.42101 0.58427 0.7197 0.0
H250 H 0.30182 0.46256 0.77273 0.0
H251 H 0.42168 0.62027 0.80543 0.0
C252 C 0.6865 0.4096 0.00365 0.0
C253 C 0.74827 0.37441 0.99482 0.0
C254 C 0.73728 0.41328 0.0073 0.0
C255 C 0.70989 0.33554 0.97664 0.0
C256 C 0.64653 0.36853 0.98669 0.0
C257 C 0.65914 0.33265 0.97257 0.0
N258 N 0.67521 0.44458 0.01777 0.0
C259 C 0.62317 0.43718 0.01793 0.0
C260 C 0.59451 0.36371 0.98505 0.0
C261 C 0.58251 0.39759 0.00109 0.0
Gd262 Gd 0.832 0.65871 -0.00119 0.0
Gd263 Gd 0.74931 0.51472 0.04228 0.0
N264 N 0.77347 0.45099 0.02521 0.0
C265 C 0.79592 0.37357 0.00228 0.0
C266 C 0.81564 0.4451 0.03526 0.0
C267 C 0.82874 0.40783 0.02326 0.0
H268 H 0.83993 0.46983 0.05228 0.0
H269 H 0.86369 0.40506 0.03038 0.0
H270 H 0.752 0.70561 0.02773 0.0
H271 H 0.61401 0.4633 0.03029 0.0
H272 H 0.76363 0.77847 0.05914 0.0
H273 H 0.80584 0.34435 0.99321 0.0
H274 H 0.7181 0.30601 0.96654 0.0
H275 H 0.95773 0.67863 0.98763 0.0
H276 H 0.56284 0.3329 0.97211 0.0
H277 H 0.542 0.39324 0.00041 0.0
H278 H 0.95748 0.8806 0.07602 0.0
H279 H 0.62918 0.30124 0.95921 0.0
H280 H 0.07219 0.82154 0.03223 0.0
H281 H 0.05324 0.74375 0.0017 0.0
N282 N 0.92363 0.71956 0.00992 0.0
C283 C 0.933 0.76218 0.02655 0.0
C284 C 0.96579 0.71256 0.00094 0.0
C285 C 0.03034 0.79334 0.02599 0.0
C286 C 0.0198 0.74938 0.00881 0.0
C287 C 0.98672 0.80006 0.03519 0.0
H288 H 0.03608 0.87212 0.05997 0.0
N289 N 0.83656 0.72759 0.02816 0.0
C290 C 0.88825 0.76621 0.036 0.0
C291 C 0.8512 0.81305 0.06251 0.0
C292 C 0.89676 0.80933 0.05379 0.0
C293 C 0.79238 0.73277 0.03558 0.0
C294 C 0.79893 0.77499 0.0531 0.0
O295 O 0.71826 0.51961 0.00041 0.0
O296 O 0.79909 0.57632 0.97893 0.0
O297 O 0.79965 0.69287 0.969 0.0
O298 O 0.88015 0.70249 0.96305 0.0
O299 O 0.84158 0.55257 0.03497 0.0
O300 O 0.85969 0.59609 0.99275 0.0
O301 O 0.86344 0.65544 0.04092 0.0
O302 O 0.78291 0.59765 0.06256 0.0
O303 O 0.76736 0.49194 0.08147 0.0
O304 O 0.68298 0.46526 0.07061 0.0
O305 O 0.74038 0.62417 0.00635 0.0
O306 O 0.71904 0.57513 0.04678 0.0
C307 C 0.74691 0.54021 0.97809 0.0
C308 C 0.86982 0.5691 0.01189 0.0
C309 C 0.825 0.68583 0.92374 0.0
C310 C 0.78696 0.6881 0.87891 0.0
C311 C 0.81365 0.61961 0.88871 0.0
C312 C 0.8298 0.64075 0.91501 0.0
C313 C 0.79255 0.64301 0.87076 0.0
C314 C 0.80335 0.70923 0.90566 0.0
C315 C 0.84034 0.70682 0.95201 0.0
C316 C 0.95029 0.8474 0.06227 0.0
C317 C 0.9951 0.84271 0.05305 0.0
H318 H 0.85603 0.84564 0.07611 0.0
C319 C 0.83527 0.63436 0.06345 0.0
C320 C 0.70605 0.59758 0.02668 0.0
C321 C 0.70021 0.40736 0.09927 0.0
C322 C 0.7126 0.35618 0.13608 0.0
C323 C 0.64302 0.3084 0.10112 0.0
C324 C 0.65776 0.35836 0.08832 0.0
C325 C 0.66975 0.30719 0.12505 0.0
C326 C 0.72826 0.40568 0.12243 0.0
C327 C 0.71582 0.46152 0.08803 0.0
H328 H 0.81761 0.58494 0.88218 0.0
H329 H 0.84568 0.62153 0.92859 0.0
H330 H 0.7814 0.62612 0.85033 0.0
H331 H 0.79858 0.74325 0.91261 0.0
H332 H 0.61 0.27061 0.09281 0.0
H333 H 0.63587 0.35868 0.07015 0.0
H334 H 0.65587 0.26819 0.13515 0.0
H335 H 0.7622 0.44377 0.13002 0.0
C336 C 0.28823 0.67686 0.33697 0.0
C337 C 0.37936 0.73519 0.31832 0.0
C338 C 0.33477 0.7282 0.33467 0.0
C339 C 0.37516 0.6905 0.30335 0.0
C340 C 0.28435 0.6315 0.32268 0.0
C341 C 0.32777 0.63878 0.30554 0.0
N342 N 0.24655 0.67136 0.35336 0.0
C343 C 0.20199 0.62108 0.35822 0.0
C344 C 0.2371 0.58014 0.32628 0.0
C345 C 0.19601 0.57481 0.3444 0.0
Gd346 Gd 0.16901 0.83038 0.33778 0.0
Gd347 Gd 0.25757 0.75121 0.37434 0.0
N348 N 0.33756 0.77051 0.34952 0.0
C349 C 0.42747 0.78642 0.31819 0.0
C350 C 0.3861 0.81883 0.35134 0.0
C351 C 0.4312 0.82809 0.3352 0.0
H352 H 0.39103 0.84986 0.36578 0.0
H353 H 0.46912 0.86701 0.33628 0.0
H354 H 0.04329 0.73565 0.36166 0.0
H355 H 0.17133 0.61697 0.37279 0.0
H356 H 0.96745 0.73462 0.38744 0.0
H357 H 0.46267 0.79349 0.30592 0.0
H358 H 0.4088 0.69525 0.29048 0.0
H359 H 0.26896 0.96272 0.33486 0.0
H360 H 0.23244 0.54427 0.3156 0.0
H361 H 0.15994 0.53509 0.34781 0.0
H362 H 0.02959 0.92434 0.40577 0.0
H363 H 0.32542 0.60452 0.29419 0.0
H364 H 0.20979 0.05839 0.37531 0.0
H365 H 0.28342 0.05257 0.35021 0.0
N366 N 0.18859 0.91785 0.35193 0.0
C367 C 0.14699 0.92011 0.36526 0.0
C368 C 0.23691 0.96451 0.34628 0.0
C369 C 0.20323 0.01872 0.36875 0.0
C370 C 0.24502 0.01559 0.35469 0.0
C371 C 0.15351 0.9707 0.37423 0.0
H372 H 0.11496 0.0103 0.39569 0.0
N373 N 0.09459 0.82254 0.36351 0.0
C374 C 0.09859 0.8712 0.37109 0.0
C375 C 0.00839 0.82249 0.39184 0.0
C376 C 0.05587 0.87228 0.38584 0.0
C377 C 0.04787 0.774 0.36877 0.0
C378 C 0.00432 0.77324 0.38317 0.0
O379 O 0.22312 0.72122 0.33212 0.0
O380 O 0.22724 0.80153 0.32401 0.0
O381 O 0.11067 0.79309 0.30391 0.0
O382 O 0.16703 0.8804 0.30484 0.0
O383 O 0.30397 0.84487 0.36873 0.0
O384 O 0.26373 0.87317 0.33412 0.0
O385 O 0.17837 0.84777 0.38317 0.0
O386 O 0.21836 0.80107 0.37789 0.0
O387 O 0.31673 0.76738 0.40663 0.0
O388 O 0.233 0.70104 0.41113 0.0
O389 O 0.1242 0.7377 0.34476 0.0
O390 O 0.16577 0.71785 0.38121 0.0
C391 C 0.21348 0.75209 0.31562 0.0
C392 C 0.30536 0.8809 0.35046 0.0
C393 C 0.1347 0.84146 0.26093 0.0
C394 C 0.09333 0.80962 0.21553 0.0
C395 C 0.18585 0.88806 0.21988 0.0
C396 C 0.18234 0.88327 0.24829 0.0
C397 C 0.14177 0.85201 0.20363 0.0
C398 C 0.09057 0.80444 0.2444 0.0
C399 C 0.12868 0.83972 0.29117 0.0
C400 C 0.06203 0.92277 0.39442 0.0
C401 C 0.11068 0.97177 0.38867 0.0
H402 H 0.97461 0.82163 0.40309 0.0
C403 C 0.20663 0.82923 0.39499 0.0
C404 C 0.12732 0.70296 0.36218 0.0
C405 C 0.28291 0.74335 0.45164 0.0
C406 C 0.33101 0.76338 0.49528 0.0
C407 C 0.24767 0.76899 0.49101 0.0
C408 C 0.2426 0.75235 0.46368 0.0
C409 C 0.29183 0.77486 0.50674 0.0
C410 C 0.32657 0.74824 0.46761 0.0
C411 C 0.28103 0.72901 0.42255 0.0
H412 H 0.22262 0.92057 0.2104 0.0
H413 H 0.21691 0.91266 0.26033 0.0
H414 H 0.14537 0.85871 0.18173 0.0
H415 H 0.0539 0.77231 0.25416 0.0
H416 H 0.21707 0.77696 0.50008 0.0
H417 H 0.20789 0.74758 0.45187 0.0
H418 H 0.29425 0.78635 0.52809 0.0
H419 H 0.35698 0.73988 0.45854 0.0
C420 C 0.58953 0.21488 0.7298 0.0
C421 C 0.66904 0.27526 0.70215 0.0
C422 C 0.61438 0.25649 0.7105 0.0
C423 C 0.69741 0.24979 0.71252 0.0
C424 C 0.61875 0.19099 0.74123 0.0
C425 C 0.67229 0.2077 0.73198 0.0
N426 N 0.53818 0.20033 0.73872 0.0
C427 C 0.51525 0.1657 0.76037 0.0
C428 C 0.59398 0.15251 0.76232 0.0
C429 C 0.54245 0.14064 0.77229 0.0
Gd430 Gd 0.35053 0.16586 0.6632 0.0
Gd431 Gd 0.4951 0.24242 0.71691 0.0
N432 N 0.58594 0.28039 0.7009 0.0
C433 C 0.69406 0.3201 0.68424 0.0
C434 C 0.61109 0.32611 0.68466 0.0
C435 C 0.66518 0.34607 0.67576 0.0
H436 H 0.58844 0.34561 0.67771 0.0
H437 H 0.68451 0.38135 0.66231 0.0
H438 H 0.30957 0.03098 0.67462 0.0
H439 H 0.4759 0.15757 0.76836 0.0
H440 H 0.23444 0.95223 0.69815 0.0
H441 H 0.73602 0.33577 0.67736 0.0
H442 H 0.73927 0.26328 0.70614 0.0
H443 H 0.30745 0.25487 0.6536 0.0
H444 H 0.61504 0.13319 0.77165 0.0
H445 H 0.52372 0.11229 0.78917 0.0
H446 H 0.10853 0.01389 0.72294 0.0
H447 H 0.69522 0.18946 0.74033 0.0
H448 H 0.15023 0.19288 0.69246 0.0
H449 H 0.22823 0.26625 0.66655 0.0
N450 N 0.27425 0.17631 0.6721 0.0
C451 C 0.23132 0.13501 0.68558 0.0
C452 C 0.27321 0.22257 0.66468 0.0
C453 C 0.18469 0.18766 0.68671 0.0
C454 C 0.22861 0.22915 0.67206 0.0
C455 C 0.18541 0.1396 0.69344 0.0
H456 H 0.10615 0.09884 0.71384 0.0
N457 N 0.27771 0.08473 0.68237 0.0
C458 C 0.23325 0.08779 0.69105 0.0
C459 C 0.18977 0.99423 0.70732 0.0
C460 C 0.18841 0.04296 0.70406 0.0
C461 C 0.2773 0.03592 0.68378 0.0
C462 C 0.23398 0.99043 0.6967 0.0
O463 O 0.52224 0.23043 0.67482 0.0
O464 O 0.4365 0.20017 0.67185 0.0
O465 O 0.33006 0.11111 0.62788 0.0
O466 O 0.34974 0.19612 0.6224 0.0
O467 O 0.48107 0.29907 0.68914 0.0
O468 O 0.4019 0.25964 0.6603 0.0
O469 O 0.34172 0.20604 0.70169 0.0
O470 O 0.40373 0.19233 0.72417 0.0
O471 O 0.48787 0.31005 0.73302 0.0
O472 O 0.52848 0.27602 0.75706 0.0
O473 O 0.39064 0.11566 0.67761 0.0
O474 O 0.42667 0.15218 0.72041 0.0
C475 C 0.48051 0.20956 0.65879 0.0
C476 C 0.44706 0.30157 0.67106 0.0
C477 C 0.32873 0.14107 0.58105 0.0
C478 C 0.31191 0.08447 0.54035 0.0
C479 C 0.32041 0.17447 0.53645 0.0
C480 C 0.32894 0.18218 0.56461 0.0
C481 C 0.31157 0.12577 0.52437 0.0
C482 C 0.32083 0.09228 0.56871 0.0
C483 C 0.3366 0.14949 0.6109 0.0
C484 C 0.1431 0.0477 0.71268 0.0
C485 C 0.14166 0.096 0.70743 0.0
H486 H 0.15613 0.95881 0.71716 0.0
C487 C 0.37119 0.21333 0.72376 0.0
C488 C 0.41275 0.11364 0.70138 0.0
C489 C 0.56316 0.3712 0.75937 0.0
C490 C 0.61788 0.44359 0.7915 0.0
C491 C 0.6358 0.45933 0.74285 0.0
C492 C 0.5933 0.40606 0.7376 0.0
C493 C 0.64768 0.47843 0.76974 0.0
C494 C 0.57601 0.38992 0.78626 0.0
C495 C 0.5176 0.31571 0.75445 0.0
H496 H 0.32034 0.20624 0.52397 0.0
H497 H 0.33528 0.22021 0.57352 0.0
H498 H 0.30466 0.12034 0.50249 0.0
H499 H 0.32082 0.06025 0.58105 0.0
H500 H 0.65884 0.4861 0.72603 0.0
H501 H 0.58331 0.39262 0.71662 0.0
H502 H 0.68026 0.52004 0.77359 0.0
H503 H 0.55269 0.36315 0.80311 0.0
H504 H 0.19298 0.65627 0.29064 0.0
H505 H 0.2172 0.81826 0.27457 0.0
H506 H 0.21111 0.80019 0.22506 0.0
H507 H 0.28362 0.66589 0.24341 0.0
H508 H 0.24906 0.59554 0.23195 0.0
H509 H 0.23654 0.61165 0.2658 0.0
H510 H 0.13245 0.56432 0.25689 0.0
H511 H 0.14351 0.54623 0.22294 0.0
H512 H 0.10727 0.58361 0.22747 0.0
H513 H 0.21779 0.77288 0.17854 0.0
H514 H 0.24882 0.74279 0.13819 0.0
H515 H 0.22947 0.60168 0.18359 0.0
C516 C 0.19459 0.68694 0.27667 0.0
C517 C 0.20281 0.73784 0.2864 0.0
C518 C 0.20759 0.778 0.26755 0.0
C519 C 0.20442 0.76814 0.23939 0.0
C520 C 0.19717 0.71805 0.23033 0.0
C521 C 0.19283 0.67815 0.24838 0.0
C522 C 0.19644 0.63279 0.23339 0.0
C523 C 0.24432 0.62618 0.24426 0.0
C524 C 0.14164 0.57851 0.23528 0.0
C525 C 0.20711 0.65536 0.20446 0.0
C526 C 0.20518 0.70349 0.20305 0.0
C527 C 0.2186 0.7348 0.17922 0.0
C528 C 0.23649 0.71762 0.15648 0.0
C529 C 0.24152 0.67004 0.15788 0.0
C530 C 0.22482 0.63756 0.18185 0.0
H531 H 0.51534 0.14465 0.63598 0.0
H532 H 0.46172 0.26061 0.61662 0.0
H533 H 0.49506 0.26737 0.56921 0.0
H534 H 0.63355 0.20389 0.60615 0.0
H535 H 0.63476 0.1458 0.59121 0.0
H536 H 0.59222 0.13624 0.62053 0.0
H537 H 0.50415 0.06443 0.59393 0.0
H538 H 0.5488 0.07221 0.56561 0.0
H539 H 0.49074 0.08218 0.56068 0.0
H540 H 0.55495 0.27984 0.52906 0.0
H541 H 0.62831 0.29024 0.49763 0.0
H542 H 0.64019 0.16232 0.54153 0.0
C543 C 0.50806 0.16899 0.62118 0.0
C544 C 0.48487 0.20108 0.62949 0.0
C545 C 0.47771 0.2344 0.61026 0.0
C546 C 0.4968 0.23861 0.58331 0.0
C547 C 0.52201 0.2084 0.57595 0.0
C548 C 0.52597 0.17268 0.59407 0.0
C549 C 0.56027 0.14974 0.58208 0.0
C550 C 0.60801 0.15956 0.60112 0.0
C551 C 0.52389 0.08854 0.57519 0.0
C552 C 0.58056 0.18328 0.55608 0.0
C553 C 0.55648 0.21535 0.5524 0.0
C554 C 0.57259 0.25348 0.5312 0.0
C555 C 0.61441 0.25906 0.5134 0.0
C556 C 0.64 0.22687 0.51693 0.0
C557 C 0.62176 0.18775 0.53829 0.0
H558 H 0.27373 0.55526 0.94788 0.0
H559 H 0.26379 0.39778 0.95832 0.0
H560 H 0.28435 0.39584 0.91017 0.0
H561 H 0.2173 0.5332 0.87839 0.0
H562 H 0.26593 0.60152 0.8669 0.0
H563 H 0.24567 0.58937 0.90242 0.0
H564 H 0.34783 0.63289 0.91663 0.0
H565 H 0.36841 0.64503 0.88118 0.0
H566 H 0.38923 0.60626 0.90244 0.0
H567 H 0.30346 0.40756 0.86135 0.0
H568 H 0.3349 0.4407 0.81454 0.0
H569 H 0.3382 0.59328 0.83382 0.0
C570 C 0.27429 0.51966 0.93975 0.0
C571 C 0.26338 0.47465 0.95679 0.0
C572 C 0.26729 0.43035 0.94569 0.0
C573 C 0.27968 0.42913 0.91818 0.0
C574 C 0.28825 0.47278 0.90177 0.0
C575 C 0.28671 0.5178 0.91202 0.0
C576 C 0.30267 0.5613 0.89004 0.0
C577 C 0.25504 0.57196 0.88408 0.0
C578 C 0.35516 0.61452 0.89806 0.0
C579 C 0.31308 0.53313 0.86606 0.0
C580 C 0.30393 0.48186 0.87342 0.0
C581 C 0.31083 0.44766 0.8552 0.0
C582 C 0.32828 0.46666 0.82861 0.0
C583 C 0.33868 0.51935 0.82053 0.0
C584 C 0.3308 0.55293 0.83952 0.0
H585 H 0.781 0.22645 0.26285 0.0
H586 H 0.82904 0.37898 0.30584 0.0
H587 H 0.82434 0.4215 0.26271 0.0
H588 H 0.85681 0.29586 0.19651 0.0
H589 H 0.80371 0.24186 0.17633 0.0
H590 H 0.82063 0.22672 0.20958 0.0
H591 H 0.71867 0.18403 0.22422 0.0
H592 H 0.70132 0.19984 0.1914 0.0
H593 H 0.68546 0.22476 0.22217 0.0
H594 H 0.79288 0.4388 0.21919 0.0
H595 H 0.74983 0.43636 0.17549 0.0
H596 H 0.73309 0.27704 0.15761 0.0
C597 C 0.79191 0.26923 0.26306 0.0
C598 C 0.80321 0.29893 0.2878 0.0
C599 C 0.81806 0.35492 0.28726 0.0
C600 C 0.81638 0.37966 0.26279 0.0
C601 C 0.80188 0.34829 0.23898 0.0
C602 C 0.79157 0.29484 0.23868 0.0
C603 C 0.7728 0.26896 0.21071 0.0
C604 C 0.81607 0.25771 0.1975 0.0
C605 C 0.71621 0.21632 0.21224 0.0
C606 C 0.76962 0.3147 0.19605 0.0
C607 C 0.78741 0.36026 0.21269 0.0
C608 C 0.78133 0.40463 0.20538 0.0
C609 C 0.75682 0.40277 0.18032 0.0
C610 C 0.7394 0.35719 0.16244 0.0
C611 C 0.74641 0.31279 0.1705 0.0
H612 H 0.5164 0.84706 0.62657 0.0
H613 H 0.48281 0.67935 0.62665 0.0
H614 H 0.454 0.6692 0.57839 0.0
H615 H 0.40477 0.82479 0.59756 0.0
H616 H 0.42849 0.88336 0.57515 0.0
H617 H 0.46771 0.88774 0.60484 0.0
H618 H 0.55445 0.91479 0.57694 0.0
H619 H 0.5179 0.91395 0.54645 0.0
H620 H 0.5518 0.87385 0.54795 0.0
H621 H 0.41042 0.66974 0.5351 0.0
H622 H 0.35086 0.67891 0.50102 0.0
H623 H 0.40443 0.84396 0.52958 0.0
C624 C 0.50591 0.80949 0.61573 0.0
C625 C 0.50366 0.76457 0.62967 0.0
C626 C 0.4867 0.71467 0.61577 0.0
C627 C 0.47028 0.70864 0.58838 0.0
C628 C 0.47053 0.75284 0.57531 0.0
C629 C 0.48842 0.80265 0.5884 0.0
C630 C 0.475 0.83985 0.5716 0.0
C631 C 0.44183 0.85994 0.58829 0.0
C632 C 0.52792 0.88848 0.56004 0.0
C633 C 0.44112 0.80086 0.54892 0.0
C634 C 0.44183 0.7521 0.55061 0.0
C635 C 0.41056 0.70817 0.53317 0.0
C636 C 0.37675 0.71365 0.51393 0.0
C637 C 0.37332 0.76213 0.51277 0.0
C638 C 0.40677 0.80666 0.53008 0.0
H639 H 0.726 0.45786 0.94288 0.0
H640 H 0.70727 0.60027 0.9547 0.0
H641 H 0.66429 0.58616 0.90919 0.0
H642 H 0.76565 0.48314 0.87426 0.0
H643 H 0.72976 0.41226 0.86381 0.0
H644 H 0.75252 0.42982 0.89865 0.0
H645 H 0.65302 0.36577 0.91555 0.0
H646 H 0.62951 0.3485 0.88075 0.0
H647 H 0.59811 0.37581 0.90337 0.0
H648 H 0.62833 0.5595 0.862 0.0
H649 H 0.60827 0.52637 0.81394 0.0
H650 H 0.65224 0.40257 0.83234 0.0
C651 C 0.71161 0.4851 0.93594 0.0
C652 C 0.71853 0.52945 0.95208 0.0
C653 C 0.70078 0.56541 0.9426 0.0
C654 C 0.67643 0.55767 0.91686 0.0
C655 C 0.67039 0.5137 0.90113 0.0
C656 C 0.68746 0.478 0.91024 0.0
C657 C 0.6801 0.43667 0.88846 0.0
C658 C 0.7353 0.44078 0.88086 0.0
C659 C 0.63763 0.37822 0.89758 0.0
C660 C 0.65831 0.45612 0.86538 0.0
C661 C 0.65207 0.49994 0.87329 0.0
C662 C 0.63369 0.52573 0.85534 0.0
C663 C 0.62274 0.5071 0.82827 0.0
C664 C 0.62979 0.463 0.8198 0.0
C665 C 0.64691 0.43664 0.83859 0.0
H666 H 0.38371 0.42688 0.05966 0.0
H667 H 0.35936 0.47602 0.97922 0.0
H668 H 0.45942 0.53103 0.97255 0.0
H669 H 0.50128 0.55352 0.07966 0.0
H670 H 0.53551 0.52151 0.09585 0.0
H671 H 0.46159 0.4856 0.0938 0.0
H672 H 0.46528 0.40472 0.07083 0.0
H673 H 0.53932 0.4415 0.07167 0.0
H674 H 0.50381 0.41597 0.03965 0.0
H675 H 0.56089 0.58631 0.97582 0.0
H676 H 0.65953 0.62561 0.98504 0.0
H677 H 0.62059 0.5396 0.06295 0.0
C678 C 0.39977 0.44851 0.04051 0.0
C679 C 0.36402 0.44744 0.0199 0.0
C680 C 0.38603 0.47602 0.99509 0.0
C681 C 0.44286 0.50788 0.99125 0.0
C682 C 0.47714 0.51003 0.01231 0.0
C683 C 0.45672 0.48028 0.03624 0.0
C684 C 0.50315 0.48885 0.05518 0.0
C685 C 0.50013 0.51387 0.08271 0.0
C686 C 0.50293 0.43457 0.05958 0.0
C687 C 0.55254 0.52917 0.03837 0.0
C688 C 0.53638 0.54093 0.01383 0.0
C689 C 0.57421 0.57675 0.99476 0.0
C690 C 0.63027 0.59891 0.00022 0.0
C691 C 0.64803 0.58444 0.02431 0.0
C692 C 0.6085 0.55116 0.04419 0.0
H693 H 0.08602 0.61917 0.40042 0.0
H694 H 0.08358 0.65355 0.3139 0.0
H695 H 0.02785 0.55474 0.30455 0.0
H696 H 0.09716 0.49719 0.39026 0.0
H697 H 0.05399 0.46084 0.41905 0.0
H698 H 0.09353 0.53477 0.41935 0.0
H699 H 0.00491 0.5384 0.42846 0.0
H700 H 0.96433 0.46461 0.42761 0.0
H701 H 0.94801 0.50528 0.4052 0.0
H702 H 0.97637 0.45443 0.30371 0.0
H703 H 0.92105 0.35559 0.31183 0.0
H704 H 0.95327 0.38186 0.39911 0.0
C705 C 0.07299 0.60569 0.37961 0.0
C706 C 0.08895 0.64394 0.35787 0.0
C707 C 0.07146 0.62502 0.33088 0.0
C708 C 0.04023 0.56895 0.32531 0.0
C709 C 0.02647 0.53225 0.34697 0.0
C710 C 0.04157 0.5495 0.37363 0.0
C711 C 0.02093 0.50072 0.39294 0.0
C712 C 0.06929 0.49826 0.40618 0.0
C713 C 0.98221 0.50233 0.41482 0.0
C714 C 0.99049 0.45363 0.37296 0.0
C715 C 0.99548 0.47318 0.34653 0.0
C716 C 0.97187 0.43849 0.32429 0.0
C717 C 0.94071 0.38221 0.32917 0.0
C718 C 0.93232 0.36094 0.35617 0.0
C719 C 0.95887 0.39706 0.3783 0.0
H720 H 0.43587 0.05543 0.66364 0.0
H721 H 0.415 0.06979 0.75064 0.0
H722 H 0.45743 0.013 0.76057 0.0
H723 H 0.39651 0.91033 0.67057 0.0
H724 H 0.44147 0.91107 0.6442 0.0
H725 H 0.41269 0.95566 0.64159 0.0
H726 H 0.50798 0.04401 0.63901 0.0
H727 H 0.53767 9e-05 0.63764 0.0
H728 H 0.56044 0.05368 0.66304 0.0
H729 H 0.51721 0.96961 0.76061 0.0
H730 H 0.56175 0.91425 0.75147 0.0
H731 H 0.52792 0.91312 0.66485 0.0
C732 C 0.43956 0.04594 0.68474 0.0
C733 C 0.4255 0.06962 0.70653 0.0
C734 C 0.42894 0.05474 0.7338 0.0
C735 C 0.45256 0.02228 0.73962 0.0
C736 C 0.47007 0.00304 0.71778 0.0
C737 C 0.46137 0.01199 0.69091 0.0
C738 C 0.47946 0.98221 0.67136 0.0
C739 C 0.42958 0.93722 0.65599 0.0
C740 C 0.52409 0.02236 0.65158 0.0
C741 C 0.50244 0.95775 0.69135 0.0
C742 C 0.49737 0.97106 0.71801 0.0
C743 C 0.51943 0.95695 0.73993 0.0
C744 C 0.54452 0.92554 0.73457 0.0
C745 C 0.54576 0.90739 0.70771 0.0
C746 C 0.52625 0.92536 0.6857 0.0
H747 H 0.53715 0.60844 0.70784 0.0
H748 H 0.55533 0.64842 0.62138 0.0
H749 H 0.52705 0.55136 0.61031 0.0
H750 H 0.58849 0.51212 0.70524 0.0
H751 H 0.54067 0.47078 0.73177 0.0
H752 H 0.56605 0.54341 0.73064 0.0
H753 H 0.46495 0.51984 0.73115 0.0
H754 H 0.43913 0.44723 0.72916 0.0
H755 H 0.41975 0.48046 0.70351 0.0
H756 H 0.4877 0.4454 0.60972 0.0
H757 H 0.45541 0.34702 0.6198 0.0
H758 H 0.46889 0.38266 0.70666 0.0
C759 C 0.53576 0.59699 0.68654 0.0
C760 C 0.54792 0.63552 0.66541 0.0
C761 C 0.54628 0.61929 0.63783 0.0
C762 C 0.52988 0.56428 0.63141 0.0
C763 C 0.51632 0.52674 0.65289 0.0
C764 C 0.52032 0.54306 0.67991 0.0
C765 C 0.50425 0.49599 0.69949 0.0
C766 C 0.55285 0.50621 0.71783 0.0
C767 C 0.45396 0.48524 0.71681 0.0
C768 C 0.49016 0.45012 0.67941 0.0
C769 C 0.49647 0.46795 0.65257 0.0
C770 C 0.48338 0.43136 0.63069 0.0
C771 C 0.46474 0.37563 0.63653 0.0
C772 C 0.46039 0.35778 0.66396 0.0
C773 C 0.47269 0.39549 0.68548 0.0
H774 H 0.08481 0.47349 0.04964 0.0
H775 H 0.07647 0.42174 0.96516 0.0
H776 H 0.0093 0.45215 0.95525 0.0
H777 H 0.94378 0.43553 0.05772 0.0
H778 H 0.95689 0.49468 0.0778 0.0
H779 H 0.00359 0.46824 0.07918 0.0
H780 H 0.08546 0.56156 0.06533 0.0
H781 H 0.04077 0.5904 0.06472 0.0
H782 H 0.08129 0.59561 0.03495 0.0
H783 H 0.94774 0.49423 0.95405 0.0
H784 H 0.88912 0.53553 0.9628 0.0
H785 H 0.93942 0.56053 0.04789 0.0
C786 C 0.06855 0.46808 0.02907 0.0
C787 C 0.08612 0.44555 0.0081 0.0
C788 C 0.06341 0.43867 0.98157 0.0
C789 C 0.02561 0.45623 0.97571 0.0
C790 C 0.01088 0.48028 0.99665 0.0
C791 C 0.03127 0.48566 0.02287 0.0
C792 C 0.00989 0.51374 0.04166 0.0
C793 C 0.97651 0.4758 0.06548 0.0
C794 C 0.05717 0.56857 0.05228 0.0
C795 C 0.97376 0.52298 0.02197 0.0
C796 C 0.97529 0.50393 0.99603 0.0
C797 C 0.94603 0.50902 0.9743 0.0
C798 C 0.91333 0.53297 0.97937 0.0
C799 C 0.90984 0.55094 0.00599 0.0
C800 C 0.94126 0.54678 0.02738 0.0
H801 H 0.38851 0.93704 0.38661 0.0
H802 H 0.34655 0.92798 0.30064 0.0
H803 H 0.44388 0.99359 0.28955 0.0
H804 H 0.49555 0.08295 0.38727 0.0
H805 H 0.5375 0.07084 0.41095 0.0
H806 H 0.46382 0.02795 0.41189 0.0
H807 H 0.47477 0.94201 0.40621 0.0
H808 H 0.54839 0.98486 0.40461 0.0
H809 H 0.51225 0.9376 0.37719 0.0
H810 H 0.54735 0.05407 0.28765 0.0
H811 H 0.64709 0.11348 0.29575 0.0
H812 H 0.62033 0.0803 0.38286 0.0
C813 C 0.39969 0.94989 0.36553 0.0
C814 C 0.36032 0.92762 0.34446 0.0
C815 C 0.37618 0.94506 0.3171 0.0
C816 C 0.43138 0.98183 0.31059 0.0
C817 C 0.46977 0.00092 0.33174 0.0
C818 C 0.45443 0.98625 0.35871 0.0
C819 C 0.50363 0.01104 0.37755 0.0
C820 C 0.49989 0.05055 0.39813 0.0
C821 C 0.51011 0.96619 0.39225 0.0
C822 C 0.5492 0.04157 0.35695 0.0
C823 C 0.52898 0.03521 0.33062 0.0
C824 C 0.5636 0.05959 0.30819 0.0
C825 C 0.62017 0.09276 0.31295 0.0
C826 C 0.64122 0.10137 0.33992 0.0
C827 C 0.60531 0.07433 0.36203 0.0
H828 H 0.30481 0.25863 0.73101 0.0
H829 H 0.40245 0.20401 0.7756 0.0
H830 H 0.36948 0.22141 0.81928 0.0
H831 H 0.32575 0.3679 0.78048 0.0
H832 H 0.25691 0.35608 0.7761 0.0
H833 H 0.29145 0.34386 0.74808 0.0
H834 H 0.21118 0.24433 0.74368 0.0
H835 H 0.1757 0.25553 0.77149 0.0
H836 H 0.18992 0.19972 0.77313 0.0
H837 H 0.31666 0.2334 0.85796 0.0
H838 H 0.25285 0.24449 0.88851 0.0
H839 H 0.19564 0.29924 0.81925 0.0
C840 C 0.31998 0.25121 0.74997 0.0
C841 C 0.35599 0.22963 0.74983 0.0
C842 C 0.37482 0.22046 0.77511 0.0
C843 C 0.35635 0.23027 0.80008 0.0
C844 C 0.31979 0.25023 0.79953 0.0
C845 C 0.30255 0.26152 0.77513 0.0
C846 C 0.26175 0.28106 0.7802 0.0
C847 C 0.28538 0.34078 0.77065 0.0
C848 C 0.20637 0.24287 0.76631 0.0
C849 C 0.25697 0.2767 0.81117 0.0
C850 C 0.29099 0.25915 0.82194 0.0
C851 C 0.29071 0.24833 0.84983 0.0
C852 C 0.25436 0.25508 0.86711 0.0
C853 C 0.21871 0.27279 0.85658 0.0
C854 C 0.22135 0.2848 0.82819 0.0
H855 H 0.91442 0.21503 0.1583 0.0
H856 H 0.02923 0.27554 0.22592 0.0
H857 H 0.10178 0.34182 0.19471 0.0
H858 H 0.00215 0.21234 0.11076 0.0
H859 H 0.97652 0.23331 0.08216 0.0
H860 H 0.93227 0.19903 0.11076 0.0
H861 H 0.91413 0.28066 0.11641 0.0
H862 H 0.959 0.31504 0.08778 0.0
H863 H 0.97142 0.34924 0.12039 0.0
H864 H 0.16545 0.39047 0.15423 0.0
H865 H 0.21258 0.41552 0.10912 0.0
H866 H 0.05509 0.3226 0.06869 0.0
C867 C 0.95452 0.24313 0.16666 0.0
C868 C 0.96629 0.24015 0.1945 0.0
C869 C 0.01918 0.27757 0.20472 0.0
C870 C 0.06063 0.31528 0.18711 0.0
C871 C 0.04822 0.31561 0.15945 0.0
C872 C 0.99606 0.28086 0.14942 0.0
C873 C 0.99417 0.28506 0.1186 0.0
C874 C 0.9752 0.22912 0.10479 0.0
C875 C 0.95751 0.30893 0.11031 0.0
C876 C 0.054 0.32517 0.11261 0.0
C877 C 0.08455 0.34344 0.13637 0.0
C878 C 0.14167 0.37726 0.13555 0.0
C879 C 0.16815 0.39143 0.10986 0.0
C880 C 0.13748 0.37116 0.08546 0.0
C881 C 0.07964 0.33906 0.08701 0.0
H882 H 0.8238 0.04333 0.53641 0.0
H883 H 0.66575 0.9004 0.51806 0.0
H884 H 0.65835 0.94661 0.47677 0.0
H885 H 0.79167 0.14606 0.51355 0.0
H886 H 0.85884 0.18962 0.49883 0.0
H887 H 0.85104 0.14595 0.52746 0.0
H888 H 0.89809 0.10217 0.49943 0.0
H889 H 0.90586 0.14596 0.47086 0.0
H890 H 0.87082 0.07259 0.46638 0.0
H891 H 0.67061 0.00445 0.43615 0.0
H892 H 0.7009 0.07216 0.39872 0.0
H893 H 0.84898 0.1804 0.44371 0.0
C894 C 0.78773 0.02167 0.52365 0.0
C895 C 0.74519 0.96828 0.53057 0.0
C896 C 0.69845 0.94158 0.51344 0.0
C897 C 0.69397 0.96739 0.48988 0.0
C898 C 0.73648 0.01997 0.48373 0.0
C899 C 0.7825 0.0469 0.50004 0.0
C900 C 0.82279 0.10283 0.48833 0.0
C901 C 0.83155 0.14885 0.50823 0.0
C902 C 0.87762 0.10604 0.48081 0.0
C903 C 0.79206 0.10318 0.46293 0.0
C904 C 0.74257 0.05463 0.46064 0.0
C905 C 0.7087 0.04303 0.43795 0.0
C906 C 0.72616 0.08173 0.41686 0.0
C907 C 0.77647 0.13179 0.41879 0.0
C908 C 0.80954 0.14309 0.44226 0.0
H909 H 0.60944 0.68843 0.75101 0.0
H910 H 0.69453 0.86576 0.75645 0.0
H911 H 0.74376 0.86214 0.79782 0.0
H912 H 0.59288 0.6645 0.8243 0.0
H913 H 0.60347 0.60654 0.82389 0.0
H914 H 0.57368 0.62072 0.79458 0.0
H915 H 0.64797 0.62446 0.76257 0.0
H916 H 0.67983 0.60931 0.79056 0.0
H917 H 0.71956 0.6699 0.77018 0.0
H918 H 0.78629 0.83854 0.83756 0.0
H919 H 0.81958 0.79752 0.8719 0.0
H920 H 0.70518 0.6355 0.8406 0.0
C921 C 0.63796 0.72628 0.76121 0.0
C922 C 0.64803 0.77733 0.75105 0.0
C923 C 0.68608 0.82631 0.76441 0.0
C924 C 0.71415 0.8246 0.7878 0.0
C925 C 0.70337 0.7735 0.79751 0.0
C926 C 0.66606 0.72525 0.78466 0.0
C927 C 0.66247 0.67581 0.79893 0.0
C928 C 0.60471 0.63973 0.81112 0.0
C929 C 0.67838 0.64293 0.7794 0.0
C930 C 0.70496 0.70377 0.82123 0.0
C931 C 0.72761 0.76005 0.82032 0.0
C932 C 0.76844 0.79443 0.83861 0.0
C933 C 0.7869 0.77068 0.85819 0.0
C934 C 0.76482 0.71302 0.85927 0.0
C935 C 0.72301 0.67952 0.84052 0.0
H936 H 0.09399 0.77423 0.16266 0.0
H937 H 0.98272 0.76437 0.22744 0.0
H938 H 0.90415 0.71238 0.19666 0.0
H939 H 0.02579 0.80324 0.11004 0.0
H940 H 0.03898 0.7653 0.08424 0.0
H941 H 0.08554 0.79524 0.11252 0.0
H942 H 0.07282 0.69941 0.12427 0.0
H943 H 0.02583 0.66963 0.09605 0.0
H944 H 0.00459 0.6425 0.13012 0.0
H945 H 0.83726 0.6652 0.15772 0.0
H946 H 0.78903 0.63073 0.11352 0.0
H947 H 0.94519 0.68055 0.07344 0.0
C948 C 0.05326 0.76136 0.17057 0.0
C949 C 0.04515 0.77365 0.19777 0.0
C950 C 0.99058 0.75474 0.20705 0.0
C951 C 0.94546 0.72544 0.18959 0.0
C952 C 0.95532 0.71563 0.16275 0.0
C953 C 0.00795 0.73324 0.15327 0.0
C954 C 0.00797 0.72121 0.123 0.0
C955 C 0.04156 0.77444 0.1065 0.0
C956 C 0.02904 0.68078 0.11809 0.0
C957 C 0.94722 0.69493 0.11683 0.0
C958 C 0.91732 0.69112 0.1401 0.0
C959 C 0.86031 0.668 0.13939 0.0
C960 C 0.83326 0.64854 0.11423 0.0
C961 C 0.8634 0.65332 0.09009 0.0
C962 C 0.92108 0.67676 0.09154 0.0
H963 H 0.2163 0.00684 0.51818 0.0
H964 H 0.38555 0.04956 0.53084 0.0
H965 H 0.37219 0.97323 0.50026 0.0
H966 H 0.15841 0.85285 0.51166 0.0
H967 H 0.11059 0.84834 0.48583 0.0
H968 H 0.13093 0.89874 0.51273 0.0
H969 H 0.16195 0.97582 0.4762 0.0
H970 H 0.14168 0.92569 0.44943 0.0
H971 H 0.21104 0.9826 0.45036 0.0
H972 H 0.34529 0.90633 0.46063 0.0
H973 H 0.30655 0.85319 0.41835 0.0
H974 H 0.15276 0.8493 0.43433 0.0
C975 C 0.24976 0.99855 0.51528 0.0
C976 C 0.30164 0.03315 0.52694 0.0
C977 C 0.34526 0.02258 0.52232 0.0
C978 C 0.33797 0.97942 0.50501 0.0
C979 C 0.28652 0.94682 0.49303 0.0
C980 C 0.24285 0.95533 0.49843 0.0
C981 C 0.19347 0.9187 0.48104 0.0
C982 C 0.14551 0.87719 0.49889 0.0
C983 C 0.17609 0.95274 0.46321 0.0
C984 C 0.21696 0.89047 0.46386 0.0
C985 C 0.27048 0.90661 0.47114 0.0
C986 C 0.30283 0.89199 0.45537 0.0
C987 C 0.28035 0.86148 0.43127 0.0
C988 C 0.22603 0.84577 0.42332 0.0
C989 C 0.19376 0.85904 0.44043 0.0
loop_
_geom_bond_atom_site_label_1
_geom_bond_atom_site_label_2
_geom_bond_distance
_geom_bond_site_symmetry_2
_ccdc_geom_bond_type
C0 C2 1.422 . S
C0 C4 1.415 . S
C0 N6 1.369 . S
C1 C2 1.421 . S
C1 C3 1.417 . S
C1 C13 1.420 1_554 S
C2 C0 1.422 . S
C2 C1 1.421 . S
C2 N12 1.359 . S
C3 C1 1.417 . S
C3 C5 1.329 . S
C3 H22 0.930 1_554 S
C4 C0 1.415 . S
C4 C5 1.437 . S
C4 C8 1.413 . S
C5 C3 1.329 . S
C5 C4 1.437 . S
C5 H27 0.929 . S
N6 C0 1.369 . S
N6 C7 1.338 . S
N6 Gd11 2.622 . S
C7 N6 1.338 . S
C7 C9 1.378 . S
C7 H19 0.929 . S
C8 C4 1.413 . S
C8 C9 1.348 . S
C8 H24 0.931 . S
C9 C7 1.378 . S
C9 C8 1.348 . S
C9 H25 0.930 . S
Gd10 N30 2.622 . S
Gd10 N37 2.570 1_556 S
Gd10 O44 2.353 . S
Gd10 O45 2.468 . S
Gd10 O46 2.427 . S
Gd10 O48 2.388 . S
Gd10 O49 2.386 1_556 S
Gd10 O53 2.307 1_556 S
Gd10 C63 2.805 . S
Gd11 N6 2.622 . S
Gd11 N12 2.570 . S
Gd11 O43 2.386 1_554 S
Gd11 O47 2.307 . S
Gd11 O50 2.353 . S
Gd11 O51 2.468 . S
Gd11 O52 2.427 . S
Gd11 O54 2.388 . S
Gd11 C75 2.805 . S
N12 C2 1.359 . S
N12 Gd11 2.570 . S
N12 C14 1.343 . S
C13 C1 1.420 1_556 S
C13 C15 1.320 1_556 S
C13 H21 0.934 . S
C14 N12 1.343 . S
C14 C15 1.390 . S
C14 H16 0.931 . S
C15 C13 1.320 1_554 S
C15 C14 1.390 . S
C15 H17 0.925 1_554 S
H16 C14 0.931 . S
H17 C15 0.925 1_556 S
H18 C41 0.931 . S
H19 C7 0.929 . S
H20 C42 0.930 . S
H21 C13 0.934 . S
H22 C3 0.930 1_556 S
H23 C32 0.929 . S
H24 C8 0.931 . S
H25 C9 0.930 . S
H26 C64 0.930 . S
H27 C5 0.929 . S
H28 C33 0.931 . S
H29 C34 0.930 . S
N30 Gd10 2.622 . S
N30 C31 1.368 1_556 S
N30 C32 1.338 . S
C31 N30 1.368 1_554 S
C31 C35 1.415 . S
C31 C38 1.422 . S
C32 H23 0.929 . S
C32 N30 1.338 . S
C32 C34 1.378 1_455 S
C33 H28 0.931 . S
C33 C34 1.348 1_554 S
C33 C35 1.413 1_655 S
C34 H29 0.930 . S
C34 C32 1.378 1_655 S
C34 C33 1.348 1_556 S
C35 C31 1.415 . S
C35 C33 1.413 1_455 S
C35 C65 1.437 1_455 S
H36 C65 0.929 . S
N37 Gd10 2.570 1_554 S
N37 C38 1.359 . S
N37 C41 1.343 . S
C38 C31 1.422 . S
C38 N37 1.359 . S
C38 C40 1.421 . S
C39 C40 1.422 . S
C39 C42 1.321 . S
C39 H66 0.931 . S
C40 C38 1.421 . S
C40 C39 1.422 . S
C40 C64 1.417 . S
C41 H18 0.931 . S
C41 N37 1.343 . S
C41 C42 1.390 . S
C42 H20 0.930 . S
C42 C39 1.321 . S
C42 C41 1.390 . S
O43 Gd11 2.386 1_556 S
O43 C55 1.265 . S
O44 Gd10 2.353 . S
O44 C55 1.242 . S
O45 Gd10 2.468 . S
O45 C63 1.263 . S
O46 Gd10 2.427 . S
O46 C63 1.252 . S
O47 Gd11 2.307 . S
O47 C56 1.261 . S
O48 Gd10 2.388 . S
O48 C56 1.252 1_556 S
O49 Gd10 2.386 1_554 S
O49 C67 1.265 . S
O50 Gd11 2.353 . S
O50 C67 1.242 . S
O51 Gd11 2.468 . S
O51 C75 1.263 . S
O52 Gd11 2.427 . S
O52 C75 1.252 . S
O53 Gd10 2.307 1_554 S
O53 C68 1.261 . S
O54 Gd11 2.388 . S
O54 C68 1.252 . S
C55 O43 1.265 . S
C55 O44 1.242 . S
C56 O47 1.261 . S
C56 O48 1.252 1_554 S
C57 C60 1.394 . S
C57 C62 1.370 . S
C57 C63 1.500 . S
C58 C61 1.383 . S
C58 C62 1.395 . S
C59 C60 1.396 . S
C59 C61 1.365 . S
C59 H76 0.929 . S
C60 C57 1.394 . S
C60 C59 1.396 . S
C60 H77 0.930 . S
C61 C58 1.383 . S
C61 C59 1.365 . S
C61 H78 0.931 . S
C62 C57 1.370 . S
C62 C58 1.395 . S
C62 H79 0.930 . S
C63 Gd10 2.805 . S
C63 O45 1.263 . S
C63 O46 1.252 . S
C63 C57 1.500 . S
C64 H26 0.930 . S
C64 C40 1.417 . S
C64 C65 1.329 1_455 S
C65 C35 1.437 1_655 S
C65 H36 0.929 . S
C65 C64 1.329 1_655 S
H66 C39 0.931 . S
C67 O49 1.265 . S
C67 O50 1.242 . S
C68 O53 1.261 . S
C68 O54 1.252 . S
C69 C72 1.394 . S
C69 C74 1.370 . S
C69 C75 1.500 . S
C70 C73 1.383 . S
C70 C74 1.395 . S
C71 C72 1.396 . S
C71 C73 1.365 . S
C71 H80 0.929 . S
C72 C69 1.394 . S
C72 C71 1.396 . S
C72 H81 0.930 . S
C73 C70 1.383 . S
C73 C71 1.365 . S
C73 H82 0.931 . S
C74 C69 1.370 . S
C74 C70 1.395 . S
C74 H83 0.930 . S
C75 Gd11 2.805 . S
C75 O51 1.263 . S
C75 O52 1.252 . S
C75 C69 1.500 . S
H76 C59 0.929 . S
H77 C60 0.930 . S
H78 C61 0.931 . S
H79 C62 0.930 . S
H80 C71 0.929 . S
H81 C72 0.930 . S
H82 C73 0.931 . S
H83 C74 0.930 . S
C84 C86 1.422 . S
C84 C88 1.415 . S
C84 N90 1.369 . S
C85 C86 1.421 . S
C85 C87 1.417 . S
C85 C97 1.422 . S
C86 C84 1.422 . S
C86 C85 1.421 . S
C86 N96 1.359 . S
C87 C85 1.417 . S
C87 C89 1.329 . S
C87 H106 0.930 . S
C88 C84 1.415 . S
C88 C89 1.437 . S
C88 C92 1.413 . S
C89 C87 1.329 . S
C89 C88 1.437 . S
C89 H111 0.929 . S
N90 C84 1.369 . S
N90 C91 1.338 . S
N90 Gd95 2.622 . S
C91 N90 1.338 . S
C91 C93 1.378 . S
C91 H103 0.929 . S
C92 C88 1.413 . S
C92 C93 1.348 . S
C92 H108 0.931 . S
C93 C91 1.378 . S
C93 C92 1.348 . S
C93 H109 0.930 . S
Gd94 N114 2.622 . S
Gd94 N121 2.570 . S
Gd94 O128 2.353 . S
Gd94 O129 2.468 . S
Gd94 O130 2.427 . S
Gd94 O132 2.388 . S
Gd94 O133 2.386 . S
Gd94 O137 2.307 . S
Gd94 C147 2.805 . S
Gd95 N90 2.622 . S
Gd95 N96 2.570 . S
Gd95 O127 2.386 . S
Gd95 O131 2.307 . S
Gd95 O134 2.353 . S
Gd95 O135 2.468 . S
Gd95 O136 2.427 . S
Gd95 O138 2.388 . S
Gd95 C159 2.805 . S
N96 C86 1.359 . S
N96 Gd95 2.570 . S
N96 C98 1.343 . S
C97 C85 1.422 . S
C97 C99 1.321 . S
C97 H105 0.931 . S
C98 N96 1.343 . S
C98 C99 1.390 . S
C98 H100 0.931 . S
C99 C97 1.321 . S
C99 C98 1.390 . S
C99 H101 0.930 . S
H100 C98 0.931 . S
H101 C99 0.930 . S
H102 C125 0.931 . S
H103 C91 0.929 . S
H104 C126 0.930 1_455 S
H105 C97 0.931 . S
H106 C87 0.930 . S
H107 C116 0.929 . S
H108 C92 0.931 . S
H109 C93 0.930 . S
H110 C148 0.930 . S
H111 C89 0.929 . S
H112 C117 0.931 . S
H113 C118 0.930 . S
N114 Gd94 2.622 . S
N114 C115 1.369 . S
N114 C116 1.338 . S
C115 N114 1.369 . S
C115 C119 1.415 . S
C115 C122 1.422 . S
C116 H107 0.929 . S
C116 N114 1.338 . S
C116 C118 1.378 1_545 S
C117 H112 0.931 . S
C117 C118 1.348 . S
C117 C119 1.413 1_565 S
C118 H113 0.930 . S
C118 C116 1.378 1_565 S
C118 C117 1.348 . S
C119 C115 1.415 . S
C119 C117 1.413 1_545 S
C119 C149 1.437 1_545 S
H120 C149 0.929 . S
N121 Gd94 2.570 . S
N121 C122 1.359 . S
N121 C125 1.343 . S
C122 C115 1.422 . S
C122 N121 1.359 . S
C122 C124 1.421 . S
C123 C124 1.422 . S
C123 C126 1.321 . S
C123 H150 0.931 1_655 S
C124 C122 1.421 . S
C124 C123 1.422 . S
C124 C148 1.417 . S
C125 H102 0.931 . S
C125 N121 1.343 . S
C125 C126 1.390 . S
C126 H104 0.930 1_655 S
C126 C123 1.321 . S
C126 C125 1.390 . S
O127 Gd95 2.386 . S
O127 C139 1.265 . S
O128 Gd94 2.353 . S
O128 C139 1.242 . S
O129 Gd94 2.468 . S
O129 C147 1.263 . S
O130 Gd94 2.427 . S
O130 C147 1.252 . S
O131 Gd95 2.307 . S
O131 C140 1.261 . S
O132 Gd94 2.388 . S
O132 C140 1.252 . S
O133 Gd94 2.386 . S
O133 C151 1.265 . S
O134 Gd95 2.353 . S
O134 C151 1.242 . S
O135 Gd95 2.468 . S
O135 C159 1.263 . S
O136 Gd95 2.427 . S
O136 C159 1.252 . S
O137 Gd94 2.307 . S
O137 C152 1.261 . S
O138 Gd95 2.388 . S
O138 C152 1.252 . S
C139 O127 1.265 . S
C139 O128 1.242 . S
C140 O131 1.261 . S
C140 O132 1.252 . S
C141 C144 1.394 . S
C141 C146 1.370 . S
C141 C147 1.500 . S
C142 C145 1.383 . S
C142 C146 1.395 . S
C143 C144 1.396 . S
C143 C145 1.365 . S
C143 H160 0.929 . S
C144 C141 1.394 . S
C144 C143 1.396 . S
C144 H161 0.930 . S
C145 C142 1.383 . S
C145 C143 1.365 . S
C145 H162 0.931 . S
C146 C141 1.370 . S
C146 C142 1.395 . S
C146 H163 0.930 . S
C147 Gd94 2.805 . S
C147 O129 1.263 . S
C147 O130 1.252 . S
C147 C141 1.500 . S
C148 H110 0.930 . S
C148 C124 1.417 . S
C148 C149 1.329 1_545 S
C149 C119 1.437 1_565 S
C149 H120 0.929 . S
C149 C148 1.329 1_565 S
H150 C123 0.931 1_455 S
C151 O133 1.265 . S
C151 O134 1.242 . S
C152 O137 1.261 . S
C152 O138 1.252 . S
C153 C156 1.394 . S
C153 C158 1.370 . S
C153 C159 1.500 . S
C154 C157 1.383 . S
C154 C158 1.395 . S
C155 C156 1.396 . S
C155 C157 1.365 . S
C155 H164 0.929 . S
C156 C153 1.394 . S
C156 C155 1.396 . S
C156 H165 0.930 . S
C157 C154 1.383 . S
C157 C155 1.365 . S
C157 H166 0.931 . S
C158 C153 1.370 . S
C158 C154 1.395 . S
C158 H167 0.930 . S
C159 Gd95 2.805 . S
C159 O135 1.263 . S
C159 O136 1.252 . S
C159 C153 1.500 . S
H160 C143 0.929 . S
H161 C144 0.930 . S
H162 C145 0.931 . S
H163 C146 0.930 . S
H164 C155 0.929 . S
H165 C156 0.930 . S
H166 C157 0.931 . S
H167 C158 0.930 . S
C168 C170 1.422 . S
C168 C172 1.415 . S
C168 N174 1.369 . S
C169 C170 1.421 . S
C169 C171 1.417 . S
C169 C181 1.422 . S
C170 C168 1.422 . S
C170 C169 1.421 . S
C170 N180 1.359 . S
C171 C169 1.417 . S
C171 C173 1.329 . S
C171 H190 0.930 . S
C172 C168 1.415 . S
C172 C173 1.437 . S
C172 C176 1.413 . S
C173 C171 1.329 . S
C173 C172 1.437 . S
C173 H195 0.929 . S
N174 C168 1.369 . S
N174 C175 1.338 . S
N174 Gd179 2.622 . S
C175 N174 1.338 . S
C175 C177 1.378 . S
C175 H187 0.929 . S
C176 C172 1.413 . S
C176 C177 1.348 . S
C176 H192 0.931 . S
C177 C175 1.378 . S
C177 C176 1.348 . S
C177 H193 0.930 . S
Gd178 N198 2.622 . S
Gd178 N205 2.570 . S
Gd178 O212 2.353 . S
Gd178 O213 2.468 . S
Gd178 O214 2.427 . S
Gd178 O216 2.388 . S
Gd178 O217 2.386 . S
Gd178 O221 2.307 . S
Gd178 C231 2.805 . S
Gd179 N174 2.622 . S
Gd179 N180 2.570 . S
Gd179 O211 2.386 . S
Gd179 O215 2.307 . S
Gd179 O218 2.353 . S
Gd179 O219 2.468 . S
Gd179 O220 2.427 . S
Gd179 O222 2.388 . S
Gd179 C243 2.805 . S
N180 C170 1.359 . S
N180 Gd179 2.570 . S
N180 C182 1.343 . S
C181 C169 1.422 . S
C181 C183 1.321 . S
C181 H189 0.931 . S
C182 N180 1.343 . S
C182 C183 1.390 . S
C182 H184 0.931 . S
C183 C181 1.321 . S
C183 C182 1.390 . S
C183 H185 0.930 . S
H184 C182 0.931 . S
H185 C183 0.930 . S
H186 C209 0.931 . S
H187 C175 0.929 . S
H188 C210 0.930 1_545 S
H189 C181 0.931 . S
H190 C171 0.930 . S
H191 C200 0.929 . S
H192 C176 0.931 . S
H193 C177 0.930 . S
H194 C232 0.930 . S
H195 C173 0.929 . S
H196 C201 0.931 . S
H197 C202 0.930 . S
N198 Gd178 2.622 . S
N198 C199 1.369 . S
N198 C200 1.338 . S
C199 N198 1.369 . S
C199 C203 1.415 . S
C199 C206 1.422 . S
C200 H191 0.929 . S
C200 N198 1.338 . S
C200 C202 1.378 . S
C201 H196 0.931 . S
C201 C202 1.348 . S
C201 C203 1.413 . S
C202 H197 0.930 . S
C202 C200 1.378 . S
C202 C201 1.348 . S
C203 C199 1.415 . S
C203 C201 1.413 . S
C203 C233 1.437 . S
H204 C233 0.929 . S
N205 Gd178 2.570 . S
N205 C206 1.359 . S
N205 C209 1.343 . S
C206 C199 1.422 . S
C206 N205 1.359 . S
C206 C208 1.421 . S
C207 C208 1.422 . S
C207 C210 1.321 . S
C207 H234 0.931 1_565 S
C208 C206 1.421 . S
C208 C207 1.422 . S
C208 C232 1.417 . S
C209 H186 0.931 . S
C209 N205 1.343 . S
C209 C210 1.390 . S
C210 H188 0.930 1_565 S
C210 C207 1.321 . S
C210 C209 1.390 . S
O211 Gd179 2.386 . S
O211 C223 1.265 . S
O212 Gd178 2.353 . S
O212 C223 1.242 . S
O213 Gd178 2.468 . S
O213 C231 1.263 . S
O214 Gd178 2.427 . S
O214 C231 1.252 . S
O215 Gd179 2.307 . S
O215 C224 1.261 . S
O216 Gd178 2.388 . S
O216 C224 1.252 . S
O217 Gd178 2.386 . S
O217 C235 1.265 . S
O218 Gd179 2.353 . S
O218 C235 1.242 . S
O219 Gd179 2.468 . S
O219 C243 1.263 . S
O220 Gd179 2.427 . S
O220 C243 1.252 . S
O221 Gd178 2.307 . S
O221 C236 1.261 . S
O222 Gd179 2.388 . S
O222 C236 1.252 . S
C223 O211 1.265 . S
C223 O212 1.242 . S
C224 O215 1.261 . S
C224 O216 1.252 . S
C225 C228 1.394 . S
C225 C230 1.370 . S
C225 C231 1.500 . S
C226 C229 1.383 . S
C226 C230 1.395 . S
C227 C228 1.396 . S
C227 C229 1.365 . S
C227 H244 0.929 . S
C228 C225 1.394 . S
C228 C227 1.396 . S
C228 H245 0.930 . S
C229 C226 1.383 . S
C229 C227 1.365 . S
C229 H246 0.931 . S
C230 C225 1.370 . S
C230 C226 1.395 . S
C230 H247 0.930 . S
C231 Gd178 2.805 . S
C231 O213 1.263 . S
C231 O214 1.252 . S
C231 C225 1.500 . S
C232 H194 0.930 . S
C232 C208 1.417 . S
C232 C233 1.329 . S
C233 C203 1.437 . S
C233 H204 0.929 . S
C233 C232 1.329 . S
H234 C207 0.931 1_545 S
C235 O217 1.265 . S
C235 O218 1.242 . S
C236 O221 1.261 . S
C236 O222 1.252 . S
C237 C240 1.394 . S
C237 C242 1.370 . S
C237 C243 1.500 . S
C238 C241 1.383 . S
C238 C242 1.395 . S
C239 C240 1.396 . S
C239 C241 1.365 . S
C239 H248 0.929 . S
C240 C237 1.394 . S
C240 C239 1.396 . S
C240 H249 0.930 . S
C241 C238 1.383 . S
C241 C239 1.365 . S
C241 H250 0.931 . S
C242 C237 1.370 . S
C242 C238 1.395 . S
C242 H251 0.930 . S
C243 Gd179 2.805 . S
C243 O219 1.263 . S
C243 O220 1.252 . S
C243 C237 1.500 . S
H244 C227 0.929 . S
H245 C228 0.930 . S
H246 C229 0.931 . S
H247 C230 0.930 . S
H248 C239 0.929 . S
H249 C240 0.930 . S
H250 C241 0.931 . S
H251 C242 0.930 . S
C252 C254 1.422 . S
C252 C256 1.415 . S
C252 N258 1.369 . S
C253 C254 1.421 . S
C253 C255 1.417 . S
C253 C265 1.420 1_554 S
C254 C252 1.422 . S
C254 C253 1.421 . S
C254 N264 1.359 . S
C255 C253 1.417 . S
C255 C257 1.329 . S
C255 H274 0.930 1_554 S
C256 C252 1.415 . S
C256 C257 1.437 . S
C256 C260 1.413 . S
C257 C255 1.329 . S
C257 C256 1.437 . S
C257 H279 0.929 . S
N258 C252 1.369 . S
N258 C259 1.338 . S
N258 Gd263 2.622 . S
C259 N258 1.338 . S
C259 C261 1.378 . S
C259 H271 0.929 . S
C260 C256 1.413 . S
C260 C261 1.348 . S
C260 H276 0.931 . S
C261 C259 1.378 . S
C261 C260 1.348 . S
C261 H277 0.930 . S
Gd262 N282 2.622 . S
Gd262 N289 2.570 1_556 S
Gd262 O296 2.353 . S
Gd262 O297 2.468 . S
Gd262 O298 2.427 . S
Gd262 O300 2.388 . S
Gd262 O301 2.386 1_556 S
Gd262 O305 2.307 1_556 S
Gd262 C315 2.805 . S
Gd263 N258 2.622 . S
Gd263 N264 2.570 . S
Gd263 O295 2.386 1_554 S
Gd263 O299 2.307 . S
Gd263 O302 2.353 . S
Gd263 O303 2.468 . S
Gd263 O304 2.427 . S
Gd263 O306 2.388 . S
Gd263 C327 2.805 . S
N264 C254 1.359 . S
N264 Gd263 2.570 . S
N264 C266 1.343 . S
C265 C253 1.420 1_556 S
C265 C267 1.320 1_556 S
C265 H273 0.934 . S
C266 N264 1.343 . S
C266 C267 1.390 . S
C266 H268 0.931 . S
C267 C265 1.320 1_554 S
C267 C266 1.390 . S
C267 H269 0.925 1_554 S
H268 C266 0.931 . S
H269 C267 0.925 1_556 S
H270 C293 0.931 . S
H271 C259 0.929 . S
H272 C294 0.930 . S
H273 C265 0.934 . S
H274 C255 0.930 1_556 S
H275 C284 0.929 . S
H276 C260 0.931 . S
H277 C261 0.930 . S
H278 C316 0.930 . S
H279 C257 0.929 . S
H280 C285 0.931 . S
H281 C286 0.930 . S
N282 Gd262 2.622 . S
N282 C283 1.368 1_556 S
N282 C284 1.338 . S
C283 N282 1.368 1_554 S
C283 C287 1.415 . S
C283 C290 1.422 . S
C284 H275 0.929 . S
C284 N282 1.338 . S
C284 C286 1.378 1_655 S
C285 H280 0.931 . S
C285 C286 1.348 1_554 S
C285 C287 1.413 1_455 S
C286 H281 0.930 . S
C286 C284 1.378 1_455 S
C286 C285 1.348 1_556 S
C287 C283 1.415 . S
C287 C285 1.413 1_655 S
C287 C317 1.437 1_655 S
H288 C317 0.929 . S
N289 Gd262 2.570 1_554 S
N289 C290 1.359 . S
N289 C293 1.343 . S
C290 C283 1.422 . S
C290 N289 1.359 . S
C290 C292 1.421 . S
C291 C292 1.422 . S
C291 C294 1.321 . S
C291 H318 0.931 . S
C292 C290 1.421 . S
C292 C291 1.422 . S
C292 C316 1.417 . S
C293 H270 0.931 . S
C293 N289 1.343 . S
C293 C294 1.390 . S
C294 H272 0.930 . S
C294 C291 1.321 . S
C294 C293 1.390 . S
O295 Gd263 2.386 1_556 S
O295 C307 1.265 . S
O296 Gd262 2.353 . S
O296 C307 1.242 . S
O297 Gd262 2.468 . S
O297 C315 1.263 . S
O298 Gd262 2.427 . S
O298 C315 1.252 . S
O299 Gd263 2.307 . S
O299 C308 1.261 . S
O300 Gd262 2.388 . S
O300 C308 1.252 1_556 S
O301 Gd262 2.386 1_554 S
O301 C319 1.265 . S
O302 Gd263 2.353 . S
O302 C319 1.242 . S
O303 Gd263 2.468 . S
O303 C327 1.263 . S
O304 Gd263 2.427 . S
O304 C327 1.252 . S
O305 Gd262 2.307 1_554 S
O305 C320 1.261 . S
O306 Gd263 2.388 . S
O306 C320 1.252 . S
C307 O295 1.265 . S
C307 O296 1.242 . S
C308 O299 1.261 . S
C308 O300 1.252 1_554 S
C309 C312 1.394 . S
C309 C314 1.370 . S
C309 C315 1.500 . S
C310 C313 1.383 . S
C310 C314 1.395 . S
C311 C312 1.396 . S
C311 C313 1.365 . S
C311 H328 0.929 . S
C312 C309 1.394 . S
C312 C311 1.396 . S
C312 H329 0.930 . S
C313 C310 1.383 . S
C313 C311 1.365 . S
C313 H330 0.931 . S
C314 C309 1.370 . S
C314 C310 1.395 . S
C314 H331 0.930 . S
C315 Gd262 2.805 . S
C315 O297 1.263 . S
C315 O298 1.252 . S
C315 C309 1.500 . S
C316 H278 0.930 . S
C316 C292 1.417 . S
C316 C317 1.329 1_655 S
C317 C287 1.437 1_455 S
C317 H288 0.929 . S
C317 C316 1.329 1_455 S
H318 C291 0.931 . S
C319 O301 1.265 . S
C319 O302 1.242 . S
C320 O305 1.261 . S
C320 O306 1.252 . S
C321 C324 1.394 . S
C321 C326 1.370 . S
C321 C327 1.500 . S
C322 C325 1.383 . S
C322 C326 1.395 . S
C323 C324 1.396 . S
C323 C325 1.365 . S
C323 H332 0.929 . S
C324 C321 1.394 . S
C324 C323 1.396 . S
C324 H333 0.930 . S
C325 C322 1.383 . S
C325 C323 1.365 . S
C325 H334 0.931 . S
C326 C321 1.370 . S
C326 C322 1.395 . S
C326 H335 0.930 . S
C327 Gd263 2.805 . S
C327 O303 1.263 . S
C327 O304 1.252 . S
C327 C321 1.500 . S
H328 C311 0.929 . S
H329 C312 0.930 . S
H330 C313 0.931 . S
H331 C314 0.930 . S
H332 C323 0.929 . S
H333 C324 0.930 . S
H334 C325 0.931 . S
H335 C326 0.930 . S
C336 C338 1.422 . S
C336 C340 1.415 . S
C336 N342 1.369 . S
C337 C338 1.421 . S
C337 C339 1.417 . S
C337 C349 1.422 . S
C338 C336 1.422 . S
C338 C337 1.421 . S
C338 N348 1.359 . S
C339 C337 1.417 . S
C339 C341 1.329 . S
C339 H358 0.930 . S
C340 C336 1.415 . S
C340 C341 1.437 . S
C340 C344 1.413 . S
C341 C339 1.329 . S
C341 C340 1.437 . S
C341 H363 0.929 . S
N342 C336 1.369 . S
N342 C343 1.338 . S
N342 Gd347 2.622 . S
C343 N342 1.338 . S
C343 C345 1.378 . S
C343 H355 0.929 . S
C344 C340 1.413 . S
C344 C345 1.348 . S
C344 H360 0.931 . S
C345 C343 1.378 . S
C345 C344 1.348 . S
C345 H361 0.930 . S
Gd346 N366 2.622 . S
Gd346 N373 2.570 . S
Gd346 O380 2.353 . S
Gd346 O381 2.468 . S
Gd346 O382 2.427 . S
Gd346 O384 2.388 . S
Gd346 O385 2.386 . S
Gd346 O389 2.307 . S
Gd346 C399 2.805 . S
Gd347 N342 2.622 . S
Gd347 N348 2.570 . S
Gd347 O379 2.386 . S
Gd347 O383 2.307 . S
Gd347 O386 2.353 . S
Gd347 O387 2.468 . S
Gd347 O388 2.427 . S
Gd347 O390 2.388 . S
Gd347 C411 2.805 . S
N348 C338 1.359 . S
N348 Gd347 2.570 . S
N348 C350 1.343 . S
C349 C337 1.422 . S
C349 C351 1.321 . S
C349 H357 0.931 . S
C350 N348 1.343 . S
C350 C351 1.390 . S
C350 H352 0.931 . S
C351 C349 1.321 . S
C351 C350 1.390 . S
C351 H353 0.930 . S
H352 C350 0.931 . S
H353 C351 0.930 . S
H354 C377 0.931 . S
H355 C343 0.929 . S
H356 C378 0.930 1_655 S
H357 C349 0.931 . S
H358 C339 0.930 . S
H359 C368 0.929 . S
H360 C344 0.931 . S
H361 C345 0.930 . S
H362 C400 0.930 . S
H363 C341 0.929 . S
H364 C369 0.931 . S
H365 C370 0.930 . S
N366 Gd346 2.622 . S
N366 C367 1.369 . S
N366 C368 1.338 . S
C367 N366 1.369 . S
C367 C371 1.415 . S
C367 C374 1.422 . S
C368 H359 0.929 . S
C368 N366 1.338 . S
C368 C370 1.378 1_565 S
C369 H364 0.931 . S
C369 C370 1.348 . S
C369 C371 1.413 1_545 S
C370 H365 0.930 . S
C370 C368 1.378 1_545 S
C370 C369 1.348 . S
C371 C367 1.415 . S
C371 C369 1.413 1_565 S
C371 C401 1.437 1_565 S
H372 C401 0.929 . S
N373 Gd346 2.570 . S
N373 C374 1.359 . S
N373 C377 1.343 . S
C374 C367 1.422 . S
C374 N373 1.359 . S
C374 C376 1.421 . S
C375 C376 1.422 . S
C375 C378 1.321 . S
C375 H402 0.931 1_455 S
C376 C374 1.421 . S
C376 C375 1.422 . S
C376 C400 1.417 . S
C377 H354 0.931 . S
C377 N373 1.343 . S
C377 C378 1.390 . S
C378 H356 0.930 1_455 S
C378 C375 1.321 . S
C378 C377 1.390 . S
O379 Gd347 2.386 . S
O379 C391 1.265 . S
O380 Gd346 2.353 . S
O380 C391 1.242 . S
O381 Gd346 2.468 . S
O381 C399 1.263 . S
O382 Gd346 2.427 . S
O382 C399 1.252 . S
O383 Gd347 2.307 . S
O383 C392 1.261 . S
O384 Gd346 2.388 . S
O384 C392 1.252 . S
O385 Gd346 2.386 . S
O385 C403 1.265 . S
O386 Gd347 2.353 . S
O386 C403 1.242 . S
O387 Gd347 2.468 . S
O387 C411 1.263 . S
O388 Gd347 2.427 . S
O388 C411 1.252 . S
O389 Gd346 2.307 . S
O389 C404 1.261 . S
O390 Gd347 2.388 . S
O390 C404 1.252 . S
C391 O379 1.265 . S
C391 O380 1.242 . S
C392 O383 1.261 . S
C392 O384 1.252 . S
C393 C396 1.394 . S
C393 C398 1.370 . S
C393 C399 1.500 . S
C394 C397 1.383 . S
C394 C398 1.395 . S
C395 C396 1.396 . S
C395 C397 1.365 . S
C395 H412 0.929 . S
C396 C393 1.394 . S
C396 C395 1.396 . S
C396 H413 0.930 . S
C397 C394 1.383 . S
C397 C395 1.365 . S
C397 H414 0.931 . S
C398 C393 1.370 . S
C398 C394 1.395 . S
C398 H415 0.930 . S
C399 Gd346 2.805 . S
C399 O381 1.263 . S
C399 O382 1.252 . S
C399 C393 1.500 . S
C400 H362 0.930 . S
C400 C376 1.417 . S
C400 C401 1.329 1_565 S
C401 C371 1.437 1_545 S
C401 H372 0.929 . S
C401 C400 1.329 1_545 S
H402 C375 0.931 1_655 S
C403 O385 1.265 . S
C403 O386 1.242 . S
C404 O389 1.261 . S
C404 O390 1.252 . S
C405 C408 1.394 . S
C405 C410 1.370 . S
C405 C411 1.500 . S
C406 C409 1.383 . S
C406 C410 1.395 . S
C407 C408 1.396 . S
C407 C409 1.365 . S
C407 H416 0.929 . S
C408 C405 1.394 . S
C408 C407 1.396 . S
C408 H417 0.930 . S
C409 C406 1.383 . S
C409 C407 1.365 . S
C409 H418 0.931 . S
C410 C405 1.370 . S
C410 C406 1.395 . S
C410 H419 0.930 . S
C411 Gd347 2.805 . S
C411 O387 1.263 . S
C411 O388 1.252 . S
C411 C405 1.500 . S
H412 C395 0.929 . S
H413 C396 0.930 . S
H414 C397 0.931 . S
H415 C398 0.930 . S
H416 C407 0.929 . S
H417 C408 0.930 . S
H418 C409 0.931 . S
H419 C410 0.930 . S
C420 C422 1.422 . S
C420 C424 1.415 . S
C420 N426 1.369 . S
C421 C422 1.421 . S
C421 C423 1.417 . S
C421 C433 1.422 . S
C422 C420 1.422 . S
C422 C421 1.421 . S
C422 N432 1.359 . S
C423 C421 1.417 . S
C423 C425 1.329 . S
C423 H442 0.930 . S
C424 C420 1.415 . S
C424 C425 1.437 . S
C424 C428 1.413 . S
C425 C423 1.329 . S
C425 C424 1.437 . S
C425 H447 0.929 . S
N426 C420 1.369 . S
N426 C427 1.338 . S
N426 Gd431 2.622 . S
C427 N426 1.338 . S
C427 C429 1.378 . S
C427 H439 0.929 . S
C428 C424 1.413 . S
C428 C429 1.348 . S
C428 H444 0.931 . S
C429 C427 1.378 . S
C429 C428 1.348 . S
C429 H445 0.930 . S
Gd430 N450 2.622 . S
Gd430 N457 2.570 . S
Gd430 O464 2.353 . S
Gd430 O465 2.468 . S
Gd430 O466 2.427 . S
Gd430 O468 2.388 . S
Gd430 O469 2.386 . S
Gd430 O473 2.307 . S
Gd430 C483 2.805 . S
Gd431 N426 2.622 . S
Gd431 N432 2.570 . S
Gd431 O463 2.386 . S
Gd431 O467 2.307 . S
Gd431 O470 2.353 . S
Gd431 O471 2.468 . S
Gd431 O472 2.427 . S
Gd431 O474 2.388 . S
Gd431 C495 2.805 . S
N432 C422 1.359 . S
N432 Gd431 2.570 . S
N432 C434 1.343 . S
C433 C421 1.422 . S
C433 C435 1.321 . S
C433 H441 0.931 . S
C434 N432 1.343 . S
C434 C435 1.390 . S
C434 H436 0.931 . S
C435 C433 1.321 . S
C435 C434 1.390 . S
C435 H437 0.930 . S
H436 C434 0.931 . S
H437 C435 0.930 . S
H438 C461 0.931 . S
H439 C427 0.929 . S
H440 C462 0.930 1_565 S
H441 C433 0.931 . S
H442 C423 0.930 . S
H443 C452 0.929 . S
H444 C428 0.931 . S
H445 C429 0.930 . S
H446 C484 0.930 . S
H447 C425 0.929 . S
H448 C453 0.931 . S
H449 C454 0.930 . S
N450 Gd430 2.622 . S
N450 C451 1.369 . S
N450 C452 1.338 . S
C451 N450 1.369 . S
C451 C455 1.415 . S
C451 C458 1.422 . S
C452 H443 0.929 . S
C452 N450 1.338 . S
C452 C454 1.378 . S
C453 H448 0.931 . S
C453 C454 1.348 . S
C453 C455 1.413 . S
C454 H449 0.930 . S
C454 C452 1.378 . S
C454 C453 1.348 . S
C455 C451 1.415 . S
C455 C453 1.413 . S
C455 C485 1.437 . S
H456 C485 0.929 . S
N457 Gd430 2.570 . S
N457 C458 1.359 . S
N457 C461 1.343 . S
C458 C451 1.422 . S
C458 N457 1.359 . S
C458 C460 1.421 . S
C459 C460 1.422 . S
C459 C462 1.321 . S
C459 H486 0.931 1_545 S
C460 C458 1.421 . S
C460 C459 1.422 . S
C460 C484 1.417 . S
C461 H438 0.931 . S
C461 N457 1.343 . S
C461 C462 1.390 . S
C462 H440 0.930 1_545 S
C462 C459 1.321 . S
C462 C461 1.390 . S
O463 Gd431 2.386 . S
O463 C475 1.265 . S
O464 Gd430 2.353 . S
O464 C475 1.242 . S
O465 Gd430 2.468 . S
O465 C483 1.263 . S
O466 Gd430 2.427 . S
O466 C483 1.252 . S
O467 Gd431 2.307 . S
O467 C476 1.261 . S
O468 Gd430 2.388 . S
O468 C476 1.252 . S
O469 Gd430 2.386 . S
O469 C487 1.265 . S
O470 Gd431 2.353 . S
O470 C487 1.242 . S
O471 Gd431 2.468 . S
O471 C495 1.263 . S
O472 Gd431 2.427 . S
O472 C495 1.252 . S
O473 Gd430 2.307 . S
O473 C488 1.261 . S
O474 Gd431 2.388 . S
O474 C488 1.252 . S
C475 O463 1.265 . S
C475 O464 1.242 . S
C476 O467 1.261 . S
C476 O468 1.252 . S
C477 C480 1.394 . S
C477 C482 1.370 . S
C477 C483 1.500 . S
C478 C481 1.383 . S
C478 C482 1.395 . S
C479 C480 1.396 . S
C479 C481 1.365 . S
C479 H496 0.929 . S
C480 C477 1.394 . S
C480 C479 1.396 . S
C480 H497 0.930 . S
C481 C478 1.383 . S
C481 C479 1.365 . S
C481 H498 0.931 . S
C482 C477 1.370 . S
C482 C478 1.395 . S
C482 H499 0.930 . S
C483 Gd430 2.805 . S
C483 O465 1.263 . S
C483 O466 1.252 . S
C483 C477 1.500 . S
C484 H446 0.930 . S
C484 C460 1.417 . S
C484 C485 1.329 . S
C485 C455 1.437 . S
C485 H456 0.929 . S
C485 C484 1.329 . S
H486 C459 0.931 1_565 S
C487 O469 1.265 . S
C487 O470 1.242 . S
C488 O473 1.261 . S
C488 O474 1.252 . S
C489 C492 1.394 . S
C489 C494 1.370 . S
C489 C495 1.500 . S
C490 C493 1.383 . S
C490 C494 1.395 . S
C491 C492 1.396 . S
C491 C493 1.365 . S
C491 H500 0.929 . S
C492 C489 1.394 . S
C492 C491 1.396 . S
C492 H501 0.930 . S
C493 C490 1.383 . S
C493 C491 1.365 . S
C493 H502 0.931 . S
C494 C489 1.370 . S
C494 C490 1.395 . S
C494 H503 0.930 . S
C495 Gd431 2.805 . S
C495 O471 1.263 . S
C495 O472 1.252 . S
C495 C489 1.500 . S
H496 C479 0.929 . S
H497 C480 0.930 . S
H498 C481 0.931 . S
H499 C482 0.930 . S
H500 C491 0.929 . S
H501 C492 0.930 . S
H502 C493 0.931 . S
H503 C494 0.930 . S
H504 C516 0.930 . S
H505 C518 0.930 . S
H506 C519 0.930 . S
H507 C523 0.959 . S
H508 C523 0.959 . S
H509 C523 0.961 . S
H510 C524 0.960 . S
H511 C524 0.961 . S
H512 C524 0.959 . S
H513 C527 0.929 . S
H514 C528 0.931 . S
H515 C530 0.930 . S
C516 H504 0.930 . S
C516 C517 1.399 . S
C516 C521 1.399 . S
C517 C516 1.399 . S
C517 C518 1.376 . S
C518 H505 0.930 . S
C518 C517 1.376 . S
C518 C519 1.388 . S
C519 H506 0.930 . S
C519 C518 1.388 . S
C519 C520 1.390 . S
C520 C519 1.390 . S
C520 C521 1.394 . S
C520 C526 1.465 . S
C521 C516 1.399 . S
C521 C520 1.394 . S
C521 C522 1.516 . S
C522 C521 1.516 . S
C522 C523 1.502 . S
C522 C524 1.561 . S
C522 C525 1.526 . S
C523 H507 0.959 . S
C523 H508 0.959 . S
C523 H509 0.961 . S
C523 C522 1.502 . S
C524 H510 0.960 . S
C524 H511 0.961 . S
C524 H512 0.959 . S
C524 C522 1.561 . S
C525 C522 1.526 . S
C525 C526 1.396 . S
C525 C530 1.390 . S
C526 C520 1.465 . S
C526 C525 1.396 . S
C526 C527 1.399 . S
C527 H513 0.929 . S
C527 C526 1.399 . S
C527 C528 1.385 . S
C528 H514 0.931 . S
C528 C527 1.385 . S
C528 C529 1.389 . S
C529 C528 1.389 . S
C529 C530 1.387 . S
C530 H515 0.930 . S
C530 C525 1.390 . S
C530 C529 1.387 . S
H531 C543 0.930 . S
H532 C545 0.930 . S
H533 C546 0.930 . S
H534 C550 0.959 . S
H535 C550 0.959 . S
H536 C550 0.961 . S
H537 C551 0.960 . S
H538 C551 0.961 . S
H539 C551 0.959 . S
H540 C554 0.929 . S
H541 C555 0.931 . S
H542 C557 0.930 . S
C543 H531 0.930 . S
C543 C544 1.399 . S
C543 C548 1.399 . S
C544 C543 1.399 . S
C544 C545 1.376 . S
C545 H532 0.930 . S
C545 C544 1.376 . S
C545 C546 1.388 . S
C546 H533 0.930 . S
C546 C545 1.388 . S
C546 C547 1.390 . S
C547 C546 1.390 . S
C547 C548 1.394 . S
C547 C553 1.465 . S
C548 C543 1.399 . S
C548 C547 1.394 . S
C548 C549 1.516 . S
C549 C548 1.516 . S
C549 C550 1.502 . S
C549 C551 1.561 . S
C549 C552 1.526 . S
C550 H534 0.959 . S
C550 H535 0.959 . S
C550 H536 0.961 . S
C550 C549 1.502 . S
C551 H537 0.960 . S
C551 H538 0.961 . S
C551 H539 0.959 . S
C551 C549 1.561 . S
C552 C549 1.526 . S
C552 C553 1.396 . S
C552 C557 1.390 . S
C553 C547 1.465 . S
C553 C552 1.396 . S
C553 C554 1.399 . S
C554 H540 0.929 . S
C554 C553 1.399 . S
C554 C555 1.385 . S
C555 H541 0.931 . S
C555 C554 1.385 . S
C555 C556 1.389 . S
C556 C555 1.389 . S
C556 C557 1.387 . S
C557 H542 0.930 . S
C557 C552 1.390 . S
C557 C556 1.387 . S
H558 C570 0.930 . S
H559 C572 0.930 . S
H560 C573 0.930 . S
H561 C577 0.959 . S
H562 C577 0.959 . S
H563 C577 0.961 . S
H564 C578 0.960 . S
H565 C578 0.961 . S
H566 C578 0.959 . S
H567 C581 0.929 . S
H568 C582 0.931 . S
H569 C584 0.930 . S
C570 H558 0.930 . S
C570 C571 1.399 . S
C570 C575 1.399 . S
C571 C570 1.399 . S
C571 C572 1.376 . S
C572 H559 0.930 . S
C572 C571 1.376 . S
C572 C573 1.388 . S
C573 H560 0.930 . S
C573 C572 1.388 . S
C573 C574 1.390 . S
C574 C573 1.390 . S
C574 C575 1.394 . S
C574 C580 1.465 . S
C575 C570 1.399 . S
C575 C574 1.394 . S
C575 C576 1.516 . S
C576 C575 1.516 . S
C576 C577 1.502 . S
C576 C578 1.561 . S
C576 C579 1.526 . S
C577 H561 0.959 . S
C577 H562 0.959 . S
C577 H563 0.961 . S
C577 C576 1.502 . S
C578 H564 0.960 . S
C578 H565 0.961 . S
C578 H566 0.959 . S
C578 C576 1.561 . S
C579 C576 1.526 . S
C579 C580 1.396 . S
C579 C584 1.390 . S
C580 C574 1.465 . S
C580 C579 1.396 . S
C580 C581 1.399 . S
C581 H567 0.929 . S
C581 C580 1.399 . S
C581 C582 1.385 . S
C582 H568 0.931 . S
C582 C581 1.385 . S
C582 C583 1.389 . S
C583 C582 1.389 . S
C583 C584 1.387 . S
C584 H569 0.930 . S
C584 C579 1.390 . S
C584 C583 1.387 . S
H585 C597 0.930 . S
H586 C599 0.930 . S
H587 C600 0.930 . S
H588 C604 0.959 . S
H589 C604 0.959 . S
H590 C604 0.961 . S
H591 C605 0.960 . S
H592 C605 0.961 . S
H593 C605 0.959 . S
H594 C608 0.929 . S
H595 C609 0.931 . S
H596 C611 0.930 . S
C597 H585 0.930 . S
C597 C598 1.399 . S
C597 C602 1.399 . S
C598 C597 1.399 . S
C598 C599 1.376 . S
C599 H586 0.930 . S
C599 C598 1.376 . S
C599 C600 1.388 . S
C600 H587 0.930 . S
C600 C599 1.388 . S
C600 C601 1.390 . S
C601 C600 1.390 . S
C601 C602 1.394 . S
C601 C607 1.465 . S
C602 C597 1.399 . S
C602 C601 1.394 . S
C602 C603 1.516 . S
C603 C602 1.516 . S
C603 C604 1.502 . S
C603 C605 1.561 . S
C603 C606 1.526 . S
C604 H588 0.959 . S
C604 H589 0.959 . S
C604 H590 0.961 . S
C604 C603 1.502 . S
C605 H591 0.960 . S
C605 H592 0.961 . S
C605 H593 0.959 . S
C605 C603 1.561 . S
C606 C603 1.526 . S
C606 C607 1.396 . S
C606 C611 1.390 . S
C607 C601 1.465 . S
C607 C606 1.396 . S
C607 C608 1.399 . S
C608 H594 0.929 . S
C608 C607 1.399 . S
C608 C609 1.385 . S
C609 H595 0.931 . S
C609 C608 1.385 . S
C609 C610 1.389 . S
C610 C609 1.389 . S
C610 C611 1.387 . S
C611 H596 0.930 . S
C611 C606 1.390 . S
C611 C610 1.387 . S
H612 C624 0.930 . S
H613 C626 0.930 . S
H614 C627 0.930 . S
H615 C631 0.959 . S
H616 C631 0.959 . S
H617 C631 0.961 . S
H618 C632 0.960 . S
H619 C632 0.961 . S
H620 C632 0.959 . S
H621 C635 0.929 . S
H622 C636 0.931 . S
H623 C638 0.930 . S
C624 H612 0.930 . S
C624 C625 1.399 . S
C624 C629 1.399 . S
C625 C624 1.399 . S
C625 C626 1.376 . S
C626 H613 0.930 . S
C626 C625 1.376 . S
C626 C627 1.388 . S
C627 H614 0.930 . S
C627 C626 1.388 . S
C627 C628 1.390 . S
C628 C627 1.390 . S
C628 C629 1.394 . S
C628 C634 1.465 . S
C629 C624 1.399 . S
C629 C628 1.394 . S
C629 C630 1.516 . S
C630 C629 1.516 . S
C630 C631 1.502 . S
C630 C632 1.561 . S
C630 C633 1.526 . S
C631 H615 0.959 . S
C631 H616 0.959 . S
C631 H617 0.961 . S
C631 C630 1.502 . S
C632 H618 0.960 . S
C632 H619 0.961 . S
C632 H620 0.959 . S
C632 C630 1.561 . S
C633 C630 1.526 . S
C633 C634 1.396 . S
C633 C638 1.390 . S
C634 C628 1.465 . S
C634 C633 1.396 . S
C634 C635 1.399 . S
C635 H621 0.929 . S
C635 C634 1.399 . S
C635 C636 1.385 . S
C636 H622 0.931 . S
C636 C635 1.385 . S
C636 C637 1.389 . S
C637 C636 1.389 . S
C637 C638 1.387 . S
C638 H623 0.930 . S
C638 C633 1.390 . S
C638 C637 1.387 . S
H639 C651 0.930 . S
H640 C653 0.930 . S
H641 C654 0.930 . S
H642 C658 0.959 . S
H643 C658 0.959 . S
H644 C658 0.961 . S
H645 C659 0.960 . S
H646 C659 0.961 . S
H647 C659 0.959 . S
H648 C662 0.929 . S
H649 C663 0.931 . S
H650 C665 0.930 . S
C651 H639 0.930 . S
C651 C652 1.399 . S
C651 C656 1.399 . S
C652 C651 1.399 . S
C652 C653 1.376 . S
C653 H640 0.930 . S
C653 C652 1.376 . S
C653 C654 1.388 . S
C654 H641 0.930 . S
C654 C653 1.388 . S
C654 C655 1.390 . S
C655 C654 1.390 . S
C655 C656 1.394 . S
C655 C661 1.465 . S
C656 C651 1.399 . S
C656 C655 1.394 . S
C656 C657 1.516 . S
C657 C656 1.516 . S
C657 C658 1.502 . S
C657 C659 1.561 . S
C657 C660 1.526 . S
C658 H642 0.959 . S
C658 H643 0.959 . S
C658 H644 0.961 . S
C658 C657 1.502 . S
C659 H645 0.960 . S
C659 H646 0.961 . S
C659 H647 0.959 . S
C659 C657 1.561 . S
C660 C657 1.526 . S
C660 C661 1.396 . S
C660 C665 1.390 . S
C661 C655 1.465 . S
C661 C660 1.396 . S
C661 C662 1.399 . S
C662 H648 0.929 . S
C662 C661 1.399 . S
C662 C663 1.385 . S
C663 H649 0.931 . S
C663 C662 1.385 . S
C663 C664 1.389 . S
C664 C663 1.389 . S
C664 C665 1.387 . S
C665 H650 0.930 . S
C665 C660 1.390 . S
C665 C664 1.387 . S
H666 C678 0.930 . S
H667 C680 0.912 1_556 S
H668 C681 0.930 . S
H669 C685 0.959 . S
H670 C685 0.959 . S
H671 C685 0.961 . S
H672 C686 0.960 . S
H673 C686 0.961 . S
H674 C686 0.959 . S
H675 C689 0.929 . S
H676 C690 0.940 . S
H677 C692 0.930 . S
C678 H666 0.930 . S
C678 C679 1.399 . S
C678 C683 1.399 . S
C679 C678 1.399 . S
C679 C680 1.399 . S
C680 H667 0.912 1_554 S
C680 C679 1.399 . S
C680 C681 1.384 1_554 S
C681 H668 0.930 . S
C681 C680 1.384 1_556 S
C681 C682 1.390 1_556 S
C682 C681 1.390 1_554 S
C682 C683 1.394 . S
C682 C688 1.465 . S
C683 C678 1.399 . S
C683 C682 1.394 . S
C683 C684 1.516 . S
C684 C683 1.516 . S
C684 C685 1.502 . S
C684 C686 1.561 . S
C684 C687 1.526 . S
C685 H669 0.959 . S
C685 H670 0.959 . S
C685 H671 0.961 . S
C685 C684 1.502 . S
C686 H672 0.960 . S
C686 H673 0.961 . S
C686 H674 0.959 . S
C686 C684 1.561 . S
C687 C684 1.526 . S
C687 C688 1.396 . S
C687 C692 1.390 . S
C688 C682 1.465 . S
C688 C687 1.396 . S
C688 C689 1.399 1_554 S
C689 H675 0.929 . S
C689 C688 1.399 1_556 S
C689 C690 1.388 . S
C690 H676 0.940 . S
C690 C689 1.388 . S
C690 C691 1.378 1_556 S
C691 C690 1.378 1_554 S
C691 C692 1.387 . S
C692 H677 0.930 . S
C692 C687 1.390 . S
C692 C691 1.387 . S
H693 C705 0.930 . S
H694 C707 0.930 . S
H695 C708 0.930 . S
H696 C712 0.959 . S
H697 C712 0.959 . S
H698 C712 0.961 . S
H699 C713 0.960 1_455 S
H700 C713 0.961 . S
H701 C713 0.959 . S
H702 C716 0.929 . S
H703 C717 0.931 . S
H704 C719 0.930 . S
C705 H693 0.930 . S
C705 C706 1.399 . S
C705 C710 1.399 . S
C706 C705 1.399 . S
C706 C707 1.376 . S
C707 H694 0.930 . S
C707 C706 1.376 . S
C707 C708 1.388 1_455 S
C708 H695 0.930 . S
C708 C707 1.388 1_655 S
C708 C709 1.390 . S
C709 C708 1.390 . S
C709 C710 1.394 1_655 S
C709 C715 1.465 . S
C710 C705 1.399 . S
C710 C709 1.394 1_455 S
C710 C711 1.516 . S
C711 C710 1.516 . S
C711 C712 1.502 . S
C711 C713 1.561 1_455 S
C711 C714 1.526 1_455 S
C712 H696 0.959 . S
C712 H697 0.959 . S
C712 H698 0.961 . S
C712 C711 1.502 . S
C713 H699 0.960 1_655 S
C713 H700 0.961 . S
C713 H701 0.959 . S
C713 C711 1.561 1_655 S
C714 C711 1.526 1_655 S
C714 C715 1.396 . S
C714 C719 1.390 . S
C715 C709 1.465 . S
C715 C714 1.396 . S
C715 C716 1.399 . S
C716 H702 0.929 . S
C716 C715 1.399 . S
C716 C717 1.385 . S
C717 H703 0.931 . S
C717 C716 1.385 . S
C717 C718 1.389 . S
C718 C717 1.389 . S
C718 C719 1.387 . S
C719 H704 0.930 . S
C719 C714 1.390 . S
C719 C718 1.387 . S
H720 C732 0.930 . S
H721 C734 0.930 . S
H722 C735 0.930 . S
H723 C739 0.959 . S
H724 C739 0.959 . S
H725 C739 0.961 . S
H726 C740 0.960 . S
H727 C740 0.961 1_565 S
H728 C740 0.959 . S
H729 C743 0.929 . S
H730 C744 0.931 . S
H731 C746 0.930 . S
C732 H720 0.930 . S
C732 C733 1.399 . S
C732 C737 1.399 . S
C733 C732 1.399 . S
C733 C734 1.376 . S
C734 H721 0.930 . S
C734 C733 1.376 . S
C734 C735 1.388 . S
C735 H722 0.930 . S
C735 C734 1.388 . S
C735 C736 1.390 . S
C736 C735 1.390 . S
C736 C737 1.394 . S
C736 C742 1.465 . S
C737 C732 1.399 . S
C737 C736 1.394 . S
C737 C738 1.516 1_545 S
C738 C737 1.516 1_565 S
C738 C739 1.502 . S
C738 C740 1.561 1_565 S
C738 C741 1.526 . S
C739 H723 0.959 . S
C739 H724 0.959 . S
C739 H725 0.961 . S
C739 C738 1.502 . S
C740 H726 0.960 . S
C740 H727 0.961 1_545 S
C740 H728 0.959 . S
C740 C738 1.561 1_545 S
C741 C738 1.526 . S
C741 C742 1.396 1_565 S
C741 C746 1.390 . S
C742 C736 1.465 . S
C742 C741 1.396 1_545 S
C742 C743 1.399 . S
C743 H729 0.929 . S
C743 C742 1.399 . S
C743 C744 1.385 1_545 S
C744 H730 0.931 . S
C744 C743 1.385 1_565 S
C744 C745 1.389 . S
C745 C744 1.389 . S
C745 C746 1.387 . S
C746 H731 0.930 . S
C746 C741 1.390 . S
C746 C745 1.387 . S
H747 C759 0.930 . S
H748 C761 0.930 . S
H749 C762 0.930 . S
H750 C766 0.959 . S
H751 C766 0.959 . S
H752 C766 0.961 . S
H753 C767 0.960 . S
H754 C767 0.961 . S
H755 C767 0.959 . S
H756 C770 0.929 . S
H757 C771 0.931 . S
H758 C773 0.930 . S
C759 H747 0.930 . S
C759 C760 1.399 . S
C759 C764 1.399 . S
C760 C759 1.399 . S
C760 C761 1.376 . S
C761 H748 0.930 . S
C761 C760 1.376 . S
C761 C762 1.388 . S
C762 H749 0.930 . S
C762 C761 1.388 . S
C762 C763 1.390 . S
C763 C762 1.390 . S
C763 C764 1.394 . S
C763 C769 1.465 . S
C764 C759 1.399 . S
C764 C763 1.394 . S
C764 C765 1.516 . S
C765 C764 1.516 . S
C765 C766 1.502 . S
C765 C767 1.561 . S
C765 C768 1.526 . S
C766 H750 0.959 . S
C766 H751 0.959 . S
C766 H752 0.961 . S
C766 C765 1.502 . S
C767 H753 0.960 . S
C767 H754 0.961 . S
C767 H755 0.959 . S
C767 C765 1.561 . S
C768 C765 1.526 . S
C768 C769 1.396 . S
C768 C773 1.390 . S
C769 C763 1.465 . S
C769 C768 1.396 . S
C769 C770 1.399 . S
C770 H756 0.929 . S
C770 C769 1.399 . S
C770 C771 1.385 . S
C771 H757 0.931 . S
C771 C770 1.385 . S
C771 C772 1.389 . S
C772 C771 1.389 . S
C772 C773 1.387 . S
C773 H758 0.930 . S
C773 C768 1.390 . S
C773 C772 1.387 . S
H774 C786 0.930 . S
H775 C788 0.930 . S
H776 C789 0.930 . S
H777 C793 0.959 . S
H778 C793 0.959 . S
H779 C793 0.961 1_455 S
H780 C794 0.960 . S
H781 C794 0.961 . S
H782 C794 0.959 . S
H783 C797 0.929 . S
H784 C798 0.931 . S
H785 C800 0.930 . S
C786 H774 0.930 . S
C786 C787 1.399 . S
C786 C791 1.399 . S
C787 C786 1.399 . S
C787 C788 1.376 1_554 S
C788 H775 0.930 . S
C788 C787 1.376 1_556 S
C788 C789 1.388 . S
C789 H776 0.930 . S
C789 C788 1.388 . S
C789 C790 1.390 1_556 S
C790 C789 1.390 1_554 S
C790 C791 1.394 . S
C790 C796 1.465 1_455 S
C791 C786 1.399 . S
C791 C790 1.394 . S
C791 C792 1.516 . S
C792 C791 1.516 . S
C792 C793 1.502 1_455 S
C792 C794 1.561 . S
C792 C795 1.526 1_455 S
C793 H777 0.959 . S
C793 H778 0.959 . S
C793 H779 0.961 1_655 S
C793 C792 1.502 1_655 S
C794 H780 0.960 . S
C794 H781 0.961 . S
C794 H782 0.959 . S
C794 C792 1.561 . S
C795 C792 1.526 1_655 S
C795 C796 1.396 . S
C795 C800 1.390 . S
C796 C790 1.465 1_655 S
C796 C795 1.396 . S
C796 C797 1.399 1_554 S
C797 H783 0.929 . S
C797 C796 1.399 1_556 S
C797 C798 1.385 . S
C798 H784 0.931 . S
C798 C797 1.385 . S
C798 C799 1.389 1_556 S
C799 C798 1.389 1_554 S
C799 C800 1.387 . S
C800 H785 0.930 . S
C800 C795 1.390 . S
C800 C799 1.387 . S
H801 C813 0.930 . S
H802 C815 0.930 . S
H803 C816 0.930 . S
H804 C820 0.959 . S
H805 C820 0.959 . S
H806 C820 0.961 . S
H807 C821 0.960 . S
H808 C821 0.961 . S
H809 C821 0.959 . S
H810 C824 0.929 . S
H811 C825 0.931 . S
H812 C827 0.930 . S
C813 H801 0.930 . S
C813 C814 1.399 . S
C813 C818 1.399 . S
C814 C813 1.399 . S
C814 C815 1.376 . S
C815 H802 0.930 . S
C815 C814 1.376 . S
C815 C816 1.388 . S
C816 H803 0.930 . S
C816 C815 1.388 . S
C816 C817 1.390 . S
C817 C816 1.390 . S
C817 C818 1.394 . S
C817 C823 1.465 1_565 S
C818 C813 1.399 . S
C818 C817 1.394 . S
C818 C819 1.516 1_565 S
C819 C818 1.516 1_545 S
C819 C820 1.502 . S
C819 C821 1.561 1_545 S
C819 C822 1.526 . S
C820 H804 0.959 . S
C820 H805 0.959 . S
C820 H806 0.961 . S
C820 C819 1.502 . S
C821 H807 0.960 . S
C821 H808 0.961 . S
C821 H809 0.959 . S
C821 C819 1.561 1_565 S
C822 C819 1.526 . S
C822 C823 1.396 . S
C822 C827 1.390 . S
C823 C817 1.465 1_545 S
C823 C822 1.396 . S
C823 C824 1.399 . S
C824 H810 0.929 . S
C824 C823 1.399 . S
C824 C825 1.385 . S
C825 H811 0.931 . S
C825 C824 1.385 . S
C825 C826 1.389 . S
C826 C825 1.389 . S
C826 C827 1.387 . S
C827 H812 0.930 . S
C827 C822 1.390 . S
C827 C826 1.387 . S
H828 C840 0.930 . S
H829 C842 0.930 . S
H830 C843 0.930 . S
H831 C847 0.959 . S
H832 C847 0.959 . S
H833 C847 0.961 . S
H834 C848 0.960 . S
H835 C848 0.961 . S
H836 C848 0.959 . S
H837 C851 0.929 . S
H838 C852 0.931 . S
H839 C854 0.930 . S
C840 H828 0.930 . S
C840 C841 1.399 . S
C840 C845 1.399 . S
C841 C840 1.399 . S
C841 C842 1.376 . S
C842 H829 0.930 . S
C842 C841 1.376 . S
C842 C843 1.388 . S
C843 H830 0.930 . S
C843 C842 1.388 . S
C843 C844 1.390 . S
C844 C843 1.390 . S
C844 C845 1.394 . S
C844 C850 1.465 . S
C845 C840 1.399 . S
C845 C844 1.394 . S
C845 C846 1.516 . S
C846 C845 1.516 . S
C846 C847 1.502 . S
C846 C848 1.561 . S
C846 C849 1.526 . S
C847 H831 0.959 . S
C847 H832 0.959 . S
C847 H833 0.961 . S
C847 C846 1.502 . S
C848 H834 0.960 . S
C848 H835 0.961 . S
C848 H836 0.959 . S
C848 C846 1.561 . S
C849 C846 1.526 . S
C849 C850 1.396 . S
C849 C854 1.390 . S
C850 C844 1.465 . S
C850 C849 1.396 . S
C850 C851 1.399 . S
C851 H837 0.929 . S
C851 C850 1.399 . S
C851 C852 1.385 . S
C852 H838 0.931 . S
C852 C851 1.385 . S
C852 C853 1.389 . S
C853 C852 1.389 . S
C853 C854 1.387 . S
C854 H839 0.930 . S
C854 C849 1.390 . S
C854 C853 1.387 . S
H855 C867 0.930 . S
H856 C869 0.930 . S
H857 C870 0.930 . S
H858 C874 0.959 . S
H859 C874 0.959 . S
H860 C874 0.961 . S
H861 C875 0.960 . S
H862 C875 0.961 . S
H863 C875 0.959 . S
H864 C878 0.929 . S
H865 C879 0.931 . S
H866 C881 0.930 . S
C867 H855 0.930 . S
C867 C868 1.399 . S
C867 C872 1.399 . S
C868 C867 1.399 . S
C868 C869 1.376 . S
C869 H856 0.930 . S
C869 C868 1.376 . S
C869 C870 1.388 . S
C870 H857 0.930 . S
C870 C869 1.388 . S
C870 C871 1.390 . S
C871 C870 1.390 . S
C871 C872 1.394 . S
C871 C877 1.465 . S
C872 C867 1.399 . S
C872 C871 1.394 . S
C872 C873 1.516 . S
C873 C872 1.516 . S
C873 C874 1.502 . S
C873 C875 1.561 . S
C873 C876 1.526 . S
C874 H858 0.959 . S
C874 H859 0.959 . S
C874 H860 0.961 . S
C874 C873 1.502 . S
C875 H861 0.960 . S
C875 H862 0.961 . S
C875 H863 0.959 . S
C875 C873 1.561 . S
C876 C873 1.526 . S
C876 C877 1.396 . S
C876 C881 1.390 . S
C877 C871 1.465 . S
C877 C876 1.396 . S
C877 C878 1.399 . S
C878 H864 0.929 . S
C878 C877 1.399 . S
C878 C879 1.385 . S
C879 H865 0.931 . S
C879 C878 1.385 . S
C879 C880 1.389 . S
C880 C879 1.389 . S
C880 C881 1.387 . S
C881 H866 0.930 . S
C881 C876 1.390 . S
C881 C880 1.387 . S
H882 C894 0.930 . S
H883 C896 0.930 . S
H884 C897 0.930 . S
H885 C901 0.959 . S
H886 C901 0.959 . S
H887 C901 0.961 . S
H888 C902 0.960 . S
H889 C902 0.961 . S
H890 C902 0.959 . S
H891 C905 0.929 . S
H892 C906 0.931 . S
H893 C908 0.930 . S
C894 H882 0.930 . S
C894 C895 1.399 . S
C894 C899 1.399 . S
C895 C894 1.399 . S
C895 C896 1.376 1_545 S
C896 H883 0.930 . S
C896 C895 1.376 1_565 S
C896 C897 1.388 . S
C897 H884 0.930 . S
C897 C896 1.388 . S
C897 C898 1.390 1_565 S
C898 C897 1.390 1_545 S
C898 C899 1.394 . S
C898 C904 1.465 . S
C899 C894 1.399 . S
C899 C898 1.394 . S
C899 C900 1.516 . S
C900 C899 1.516 . S
C900 C901 1.502 . S
C900 C902 1.561 . S
C900 C903 1.526 . S
C901 H885 0.959 . S
C901 H886 0.959 . S
C901 H887 0.961 . S
C901 C900 1.502 . S
C902 H888 0.960 . S
C902 H889 0.961 . S
C902 H890 0.959 . S
C902 C900 1.561 . S
C903 C900 1.526 . S
C903 C904 1.396 . S
C903 C908 1.390 . S
C904 C898 1.465 . S
C904 C903 1.396 . S
C904 C905 1.399 . S
C905 H891 0.929 . S
C905 C904 1.399 . S
C905 C906 1.385 . S
C906 H892 0.931 . S
C906 C905 1.385 . S
C906 C907 1.389 . S
C907 C906 1.389 . S
C907 C908 1.387 . S
C908 H893 0.930 . S
C908 C903 1.390 . S
C908 C907 1.387 . S
H909 C921 0.930 . S
H910 C923 0.930 . S
H911 C924 0.930 . S
H912 C928 0.959 . S
H913 C928 0.959 . S
H914 C928 0.961 . S
H915 C929 0.960 . S
H916 C929 0.961 . S
H917 C929 0.959 . S
H918 C932 0.929 . S
H919 C933 0.931 . S
H920 C935 0.930 . S
C921 H909 0.930 . S
C921 C922 1.399 . S
C921 C926 1.399 . S
C922 C921 1.399 . S
C922 C923 1.376 . S
C923 H910 0.930 . S
C923 C922 1.376 . S
C923 C924 1.388 . S
C924 H911 0.930 . S
C924 C923 1.388 . S
C924 C925 1.390 . S
C925 C924 1.390 . S
C925 C926 1.394 . S
C925 C931 1.465 . S
C926 C921 1.399 . S
C926 C925 1.394 . S
C926 C927 1.516 . S
C927 C926 1.516 . S
C927 C928 1.502 . S
C927 C929 1.561 . S
C927 C930 1.526 . S
C928 H912 0.959 . S
C928 H913 0.959 . S
C928 H914 0.961 . S
C928 C927 1.502 . S
C929 H915 0.960 . S
C929 H916 0.961 . S
C929 H917 0.959 . S
C929 C927 1.561 . S
C930 C927 1.526 . S
C930 C931 1.396 . S
C930 C935 1.390 . S
C931 C925 1.465 . S
C931 C930 1.396 . S
C931 C932 1.399 . S
C932 H918 0.929 . S
C932 C931 1.399 . S
C932 C933 1.385 . S
C933 H919 0.931 . S
C933 C932 1.385 . S
C933 C934 1.389 . S
C934 C933 1.389 . S
C934 C935 1.387 . S
C935 H920 0.930 . S
C935 C930 1.390 . S
C935 C934 1.387 . S
H936 C948 0.930 . S
H937 C950 0.930 1_455 S
H938 C951 0.930 . S
H939 C955 0.959 . S
H940 C955 0.959 . S
H941 C955 0.961 . S
H942 C956 0.960 . S
H943 C956 0.961 . S
H944 C956 0.959 . S
H945 C959 0.929 . S
H946 C960 0.931 . S
H947 C962 0.930 . S
C948 H936 0.930 . S
C948 C949 1.399 . S
C948 C953 1.399 . S
C949 C948 1.399 . S
C949 C950 1.376 . S
C950 H937 0.930 1_655 S
C950 C949 1.376 . S
C950 C951 1.388 . S
C951 H938 0.930 . S
C951 C950 1.388 . S
C951 C952 1.390 . S
C952 C951 1.390 . S
C952 C953 1.394 . S
C952 C958 1.465 . S
C953 C948 1.399 . S
C953 C952 1.394 . S
C953 C954 1.516 . S
C954 C953 1.516 . S
C954 C955 1.502 . S
C954 C956 1.561 . S
C954 C957 1.526 . S
C955 H939 0.959 . S
C955 H940 0.959 . S
C955 H941 0.961 . S
C955 C954 1.502 . S
C956 H942 0.960 . S
C956 H943 0.961 . S
C956 H944 0.959 . S
C956 C954 1.561 . S
C957 C954 1.526 . S
C957 C958 1.396 . S
C957 C962 1.390 . S
C958 C952 1.465 . S
C958 C957 1.396 . S
C958 C959 1.399 . S
C959 H945 0.929 . S
C959 C958 1.399 . S
C959 C960 1.385 . S
C960 H946 0.931 . S
C960 C959 1.385 . S
C960 C961 1.389 . S
C961 C960 1.389 . S
C961 C962 1.387 . S
C962 H947 0.930 . S
C962 C957 1.390 . S
C962 C961 1.387 . S
H963 C975 0.930 . S
H964 C977 0.930 . S
H965 C978 0.930 . S
H966 C982 0.959 . S
H967 C982 0.959 . S
H968 C982 0.961 . S
H969 C983 0.960 . S
H970 C983 0.961 . S
H971 C983 0.959 . S
H972 C986 0.929 . S
H973 C987 0.931 . S
H974 C989 0.930 . S
C975 H963 0.930 . S
C975 C976 1.399 . S
C975 C980 1.399 . S
C976 C975 1.399 . S
C976 C977 1.376 . S
C977 H964 0.930 . S
C977 C976 1.376 . S
C977 C978 1.388 . S
C978 H965 0.930 . S
C978 C977 1.388 . S
C978 C979 1.390 . S
C979 C978 1.390 . S
C979 C980 1.394 . S
C979 C985 1.465 . S
C980 C975 1.399 . S
C980 C979 1.394 . S
C980 C981 1.516 . S
C981 C980 1.516 . S
C981 C982 1.502 . S
C981 C983 1.561 1_565 S
C981 C984 1.526 . S
C982 H966 0.959 . S
C982 H967 0.959 . S
C982 H968 0.961 . S
C982 C981 1.502 . S
C983 H969 0.960 . S
C983 H970 0.961 . S
C983 H971 0.959 . S
C983 C981 1.561 1_545 S
C984 C981 1.526 . S
C984 C985 1.396 . S
C984 C989 1.390 . S
C985 C979 1.465 . S
C985 C984 1.396 . S
C985 C986 1.399 . S
C986 H972 0.929 . S
C986 C985 1.399 . S
C986 C987 1.385 . S
C987 H973 0.931 . S
C987 C986 1.385 . S
C987 C988 1.389 . S
C988 C987 1.389 . S
C988 C989 1.387 . S
C989 H974 0.930 . S
C989 C984 1.390 . S
C989 C988 1.387 . S
C517 C391 1.116 . S
C529 C70 1.067 . S
C544 C475 1.177 . S
C556 C154 0.907 . S
C571 C55 1.109 . S
C583 C238 1.078 . S
C598 C139 1.171 . S
C610 C322 0.912 . S
C625 C223 1.171 . S
C637 C406 0.926 . S
C652 C307 1.111 . S
C664 C490 1.076 . S
C679 C68 1.521 . S
C691 C320 1.463 . S
C706 C404 1.522 . S
C718 C152 1.459 . S
C733 C488 1.419 . S
C745 C236 1.484 . S
C760 C224 1.643 . S
C772 C476 1.666 . S
C787 C56 1.646 . S
C799 C308 1.648 . S
C814 C392 1.642 . S
C826 C140 1.656 . S
C841 C487 1.124 . S
C853 C58 0.976 . S
C868 C142 1.008 1_455 S
C880 C67 1.129 . S
C895 C226 0.919 1_545 S
C907 C151 1.077 . S
C922 C235 1.114 . S
C934 C310 0.949 . S
C949 C394 0.959 1_655 S
C961 C319 1.118 . S
C976 C478 1.060 1_565 S
C988 C403 1.050 . S
