# Generated by pormake.
# Topology umx, (4)-cn, num edge types: 1
# Building blocks:
#     Node 0, Type 0, BuildingBlock: ICAMEG_clean_sbu_1, # of connection points: 4
#     Node 1, Type 0, BuildingBlock: ICAMEG_clean_sbu_1, # of connection points: 4
#     Node 2, Type 0, BuildingBlock: ICAMEG_clean_sbu_1, # of connection points: 4
#     Node 3, Type 0, BuildingBlock: ICAMEG_clean_sbu_1, # of connection points: 4
#     Node 4, Type 0, BuildingBlock: ICAMEG_clean_sbu_1, # of connection points: 4
#     Node 5, Type 0, BuildingBlock: ICAMEG_clean_sbu_1, # of connection points: 4
#     Node 6, Type 0, BuildingBlock: ICAMEG_clean_sbu_1, # of connection points: 4
#     Node 7, Type 0, BuildingBlock: ICAMEG_clean_sbu_1, # of connection points: 4
#     Edge 8, Type (0, 0), BuildingBlock: TEMPAE_clean_linker_10, # of connection points: 2
#     Edge 9, Type (0, 0), BuildingBlock: TEMPAE_clean_linker_10, # of connection points: 2
#     Edge 10, Type (0, 0), BuildingBlock: TEMPAE_clean_linker_10, # of connection points: 2
#     Edge 11, Type (0, 0), BuildingBlock: TEMPAE_clean_linker_10, # of connection points: 2
#     Edge 12, Type (0, 0), BuildingBlock: TEMPAE_clean_linker_10, # of connection points: 2
#     Edge 13, Type (0, 0), BuildingBlock: TEMPAE_clean_linker_10, # of connection points: 2
#     Edge 14, Type (0, 0), BuildingBlock: TEMPAE_clean_linker_10, # of connection points: 2
#     Edge 15, Type (0, 0), BuildingBlock: TEMPAE_clean_linker_10, # of connection points: 2
#     Edge 16, Type (0, 0), BuildingBlock: TEMPAE_clean_linker_10, # of connection points: 2
#     Edge 17, Type (0, 0), BuildingBlock: TEMPAE_clean_linker_10, # of connection points: 2
#     Edge 18, Type (0, 0), BuildingBlock: TEMPAE_clean_linker_10, # of connection points: 2
#     Edge 19, Type (0, 0), BuildingBlock: TEMPAE_clean_linker_10, # of connection points: 2
#     Edge 20, Type (0, 0), BuildingBlock: TEMPAE_clean_linker_10, # of connection points: 2
#     Edge 21, Type (0, 0), BuildingBlock: TEMPAE_clean_linker_10, # of connection points: 2
#     Edge 22, Type (0, 0), BuildingBlock: TEMPAE_clean_linker_10, # of connection points: 2
#     Edge 23, Type (0, 0), BuildingBlock: TEMPAE_clean_linker_10, # of connection points: 2
# Relax obj value: 0.033
# Max RMSD: 0.111
# Mean RMSD: 0.111
data_MOF--net-umx--node1-ICAMEG_clean_sbu_1--edge1-TEMPAE_clean_linker_10
_symmetry_space_group_name_H-M    P1
_symmetry_Int_Tables_number       1
_symmetry_cell_setting            triclinic
loop_
_symmetry_equiv_pos_as_xyz
'x, y, z'
_cell_length_a     42.183056
_cell_length_b     42.185005
_cell_length_c     30.824749
_cell_angle_alpha  90.002238
_cell_angle_beta   90.00076
_cell_angle_gamma 89.992108
loop_
_atom_site_label
_atom_site_type_symbol
_atom_site_fract_x
_atom_site_fract_y
_atom_site_fract_z
_atom_type_partial_charge
Co0 Co 0.1842 0.49174 0.0235 0.0
Co1 Co 0.16176 0.41583 0.0519 0.0
O2 O 0.18495 0.44596 0.01609 0.0
C3 C 0.1624 0.48171 0.9338 0.0
O4 O 0.14284 0.46062 0.95001 0.0
C5 C 0.22849 0.39429 0.05799 0.0
O6 O 0.23596 0.42279 0.07168 0.0
O7 O 0.1772 0.43635 0.10633 0.0
O8 O 0.18735 0.48712 0.08805 0.0
H9 H 0.08995 0.38165 0.1733 0.0
H10 H 0.23063 0.46163 0.96421 0.0
O11 O 0.18105 0.49689 0.95886 0.0
H12 H 0.29471 0.51982 0.07174 0.0
H13 H 0.2131 0.60377 0.98361 0.0
H14 H 0.15257 0.53603 0.08431 0.0
H15 H 0.23629 0.52142 0.07474 0.0
H16 H 0.21411 0.54554 0.97605 0.0
O17 O 0.19968 0.38717 0.05027 0.0
H18 H 0.11862 0.42018 0.12771 0.0
H19 H 0.15691 0.34535 0.0519 0.0
H20 H 0.15112 0.59414 0.09331 0.0
H21 H 0.28899 0.45957 0.95975 0.0
H22 H 0.18154 0.62841 0.04271 0.0
H23 H 0.32143 0.48872 0.01388 0.0
O24 O 0.13702 0.49196 0.02753 0.0
H25 H 0.17202 0.3716 0.90109 0.0
H26 H 0.09808 0.39523 0.02074 0.0
H27 H 0.07753 0.37211 0.95285 0.0
H28 H 0.11461 0.36014 0.89243 0.0
H29 H 0.19153 0.39498 0.96935 0.0
H30 H 0.12881 0.30595 0.09684 0.0
H31 H 0.09496 0.32405 0.15795 0.0
O32 O 0.1236 0.44387 0.05314 0.0
C33 C 0.18488 0.46482 0.11591 0.0
C34 C 0.1046 0.37346 0.14673 0.0
C35 C 0.12644 0.33098 0.10385 0.0
N36 N 0.13936 0.38504 0.08716 0.0
C37 C 0.12086 0.39518 0.12078 0.0
C38 C 0.14238 0.35339 0.07861 0.0
C39 C 0.10744 0.34115 0.13812 0.0
C40 C 0.2446 0.47457 0.98769 0.0
N41 N 0.23009 0.49164 0.0197 0.0
C42 C 0.27763 0.47323 0.98508 0.0
C43 C 0.29581 0.48957 0.01549 0.0
C44 C 0.28084 0.507 0.04799 0.0
C45 C 0.24776 0.50774 0.04962 0.0
C46 C 0.1998 0.58909 0.00591 0.0
C47 C 0.16603 0.5508 0.06236 0.0
C48 C 0.20022 0.55612 0.00173 0.0
N49 N 0.18362 0.53744 0.02994 0.0
C50 C 0.16504 0.58368 0.06752 0.0
C51 C 0.18209 0.60289 0.03909 0.0
C52 C 0.11664 0.47204 0.04148 0.0
C53 C 0.15564 0.3766 0.92724 0.0
C54 C 0.11438 0.39006 0.99462 0.0
C55 C 0.10261 0.37695 0.95626 0.0
C56 C 0.12342 0.37022 0.92238 0.0
N57 N 0.14602 0.39623 0.99916 0.0
C58 C 0.16658 0.38968 0.96608 0.0
Co59 Co 0.50705 0.1849 0.52099 0.0
Co60 Co 0.58205 0.16589 0.55537 0.0
O61 O 0.55297 0.18716 0.51602 0.0
C62 C 0.52016 0.16462 0.43197 0.0
O63 O 0.54086 0.14502 0.44903 0.0
C64 C 0.60439 0.23253 0.55614 0.0
O65 O 0.57593 0.24096 0.56893 0.0
O66 O 0.56048 0.18514 0.60646 0.0
O67 O 0.50931 0.18634 0.58566 0.0
H68 H 0.61232 0.10273 0.68717 0.0
H69 H 0.53653 0.23364 0.46467 0.0
O70 O 0.50407 0.18294 0.45634 0.0
H71 H 0.47467 0.29326 0.57317 0.0
H72 H 0.39556 0.21176 0.47596 0.0
H73 H 0.46182 0.14965 0.57669 0.0
H74 H 0.47515 0.23479 0.57388 0.0
H75 H 0.45392 0.21477 0.47221 0.0
O76 O 0.61114 0.20335 0.55064 0.0
H77 H 0.5753 0.12878 0.63651 0.0
H78 H 0.65241 0.15988 0.55882 0.0
H79 H 0.40357 0.14613 0.58188 0.0
H80 H 0.53655 0.2921 0.46259 0.0
H81 H 0.37003 0.17735 0.53124 0.0
H82 H 0.5055 0.3223 0.51719 0.0
O83 O 0.50852 0.13794 0.5234 0.0
H84 H 0.63036 0.16647 0.4063 0.0
H85 H 0.60271 0.1003 0.53264 0.0
H86 H 0.62743 0.0755 0.46859 0.0
H87 H 0.64146 0.10866 0.40484 0.0
H88 H 0.60529 0.19026 0.4708 0.0
H89 H 0.69031 0.13438 0.60884 0.0
H90 H 0.67029 0.10544 0.67345 0.0
O91 O 0.55357 0.12779 0.55978 0.0
C92 C 0.53098 0.18852 0.61439 0.0
C93 C 0.62133 0.11518 0.65905 0.0
C94 C 0.66511 0.13298 0.61511 0.0
N95 N 0.61169 0.14558 0.59458 0.0
C96 C 0.60048 0.1299 0.63019 0.0
C97 C 0.64355 0.14743 0.58697 0.0
C98 C 0.65386 0.11674 0.65136 0.0
C99 C 0.52273 0.24662 0.48828 0.0
N100 N 0.5057 0.23083 0.51918 0.0
C101 C 0.52293 0.27971 0.48705 0.0
C102 C 0.50554 0.29664 0.51774 0.0
C103 C 0.48825 0.28037 0.54917 0.0
C104 C 0.48865 0.24726 0.54945 0.0
C105 C 0.40992 0.19813 0.49831 0.0
C106 C 0.44737 0.16352 0.55483 0.0
C107 C 0.44296 0.19971 0.4963 0.0
N108 N 0.46122 0.18271 0.52458 0.0
C109 C 0.41441 0.16133 0.55779 0.0
C110 C 0.39561 0.17882 0.52934 0.0
C111 C 0.52723 0.11906 0.54311 0.0
C112 C 0.62447 0.15179 0.43394 0.0
C113 C 0.6087 0.1149 0.50502 0.0
C114 C 0.62275 0.10072 0.46886 0.0
C115 C 0.63064 0.11934 0.43311 0.0
N116 N 0.60274 0.14675 0.5056 0.0
C117 C 0.61043 0.16516 0.47067 0.0
Co118 Co 0.81738 0.51003 0.02116 0.0
Co119 Co 0.83833 0.58584 0.05191 0.0
O120 O 0.81583 0.5559 0.01497 0.0
C121 C 0.83872 0.52176 0.93161 0.0
O122 O 0.85782 0.54312 0.94819 0.0
C123 C 0.77125 0.60635 0.05714 0.0
O124 O 0.76403 0.5775 0.06972 0.0
O125 O 0.82267 0.5644 0.10549 0.0
O126 O 0.81428 0.51361 0.08587 0.0
H127 H 0.9084 0.61918 0.17562 0.0
H128 H 0.77033 0.54017 0.96285 0.0
O129 O 0.82051 0.50583 0.95642 0.0
H130 H 0.70745 0.47922 0.0688 0.0
H131 H 0.79048 0.39809 0.97825 0.0
H132 H 0.84996 0.46544 0.08061 0.0
H133 H 0.76588 0.47864 0.07166 0.0
H134 H 0.78833 0.45639 0.97237 0.0
O135 O 0.80005 0.61402 0.05042 0.0
H136 H 0.88073 0.58095 0.12842 0.0
H137 H 0.84229 0.65637 0.05384 0.0
H138 H 0.85255 0.40725 0.08793 0.0
H139 H 0.71195 0.54124 0.95853 0.0
H140 H 0.82267 0.37317 0.03648 0.0
H141 H 0.6801 0.51069 0.01188 0.0
O142 O 0.86454 0.51064 0.02503 0.0
H143 H 0.82871 0.63227 0.90227 0.0
H144 H 0.90199 0.60771 0.02233 0.0
H145 H 0.92277 0.63218 0.95547 0.0
H146 H 0.88602 0.64463 0.89485 0.0
H147 H 0.80897 0.60753 0.9695 0.0
H148 H 0.86939 0.69547 0.10041 0.0
H149 H 0.9028 0.67693 0.16173 0.0
O150 O 0.87689 0.5583 0.05303 0.0
C151 C 0.8159 0.53558 0.11436 0.0
C152 C 0.89395 0.62757 0.14896 0.0
C153 C 0.87202 0.67038 0.10679 0.0
N154 N 0.86 0.61641 0.08836 0.0
C155 C 0.87827 0.60602 0.12208 0.0
C156 C 0.85666 0.64813 0.08061 0.0
C157 C 0.89078 0.65996 0.14117 0.0
C158 C 0.75663 0.52663 0.98597 0.0
N159 N 0.77148 0.50936 0.01749 0.0
C160 C 0.72358 0.52741 0.98345 0.0
C161 C 0.70573 0.51029 0.01343 0.0
C162 C 0.72106 0.49266 0.0454 0.0
C163 C 0.75414 0.4925 0.04697 0.0
C164 C 0.80355 0.41269 0.00091 0.0
C165 C 0.83672 0.45075 0.0583 0.0
C166 C 0.80248 0.4457 0.99768 0.0
N167 N 0.8188 0.46426 0.02635 0.0
C168 C 0.83836 0.41783 0.06252 0.0
C169 C 0.82161 0.39872 0.03361 0.0
C170 C 0.88445 0.53057 0.04012 0.0
C171 C 0.84494 0.62707 0.92852 0.0
C172 C 0.88583 0.61306 0.9961 0.0
C173 C 0.89774 0.62695 0.95834 0.0
C174 C 0.8771 0.63395 0.92435 0.0
N175 N 0.85424 0.6064 -3e-05 0.0
C176 C 0.83387 0.61321 0.96677 0.0
Co177 Co 0.49283 0.82047 0.52397 0.0
Co178 Co 0.41683 0.83868 0.55502 0.0
O179 O 0.44707 0.81749 0.51726 0.0
C180 C 0.48122 0.83999 0.43429 0.0
O181 O 0.45993 0.85941 0.45039 0.0
C182 C 0.39566 0.77167 0.55624 0.0
O183 O 0.42405 0.76388 0.57009 0.0
O184 O 0.43763 0.82034 0.60735 0.0
O185 O 0.48922 0.8194 0.58851 0.0
H186 H 0.3827 0.90285 0.68413 0.0
H187 H 0.46527 0.77093 0.46712 0.0
O188 O 0.49711 0.82206 0.45943 0.0
H189 H 0.52567 0.71296 0.57879 0.0
H190 H 0.60561 0.79511 0.4836 0.0
H191 H 0.53633 0.85659 0.5812 0.0
H192 H 0.52433 0.77142 0.57872 0.0
H193 H 0.54741 0.7912 0.47756 0.0
O194 O 0.38849 0.80066 0.54998 0.0
H195 H 0.42123 0.87683 0.63556 0.0
H196 H 0.34633 0.84348 0.55559 0.0
H197 H 0.59438 0.86101 0.58865 0.0
H198 H 0.46615 0.71246 0.46581 0.0
H199 H 0.62944 0.83012 0.5396 0.0
H200 H 0.49646 0.68309 0.522 0.0
O201 O 0.49064 0.8674 0.52573 0.0
H202 H 0.37173 0.8356 0.40413 0.0
H203 H 0.39555 0.90364 0.53008 0.0
H204 H 0.37182 0.9273 0.46454 0.0
H205 H 0.35972 0.89319 0.40097 0.0
H206 H 0.39578 0.81296 0.47012 0.0
H207 H 0.30696 0.86891 0.60349 0.0
H208 H 0.3251 0.89897 0.66818 0.0
O209 O 0.44455 0.87732 0.55971 0.0
C210 C 0.46699 0.81725 0.61639 0.0
C211 C 0.37451 0.88991 0.65596 0.0
C212 C 0.33199 0.87082 0.61073 0.0
N213 N 0.38603 0.8589 0.59261 0.0
C214 C 0.39621 0.87521 0.62828 0.0
C215 C 0.35438 0.85642 0.58378 0.0
C216 C 0.34219 0.8877 0.64702 0.0
C217 C 0.47875 0.75831 0.49144 0.0
N218 N 0.49489 0.77455 0.52279 0.0
C219 C 0.47906 0.72521 0.49063 0.0
C220 C 0.49603 0.70875 0.52221 0.0
C221 C 0.51242 0.72549 0.5541 0.0
C222 C 0.51153 0.75858 0.55393 0.0
C223 C 0.59059 0.80861 0.50525 0.0
C224 C 0.55143 0.84287 0.56 0.0
C225 C 0.55763 0.80652 0.50194 0.0
N226 N 0.53853 0.82337 0.52934 0.0
C227 C 0.58428 0.84557 0.56425 0.0
C228 C 0.60394 0.82825 0.53668 0.0
C229 C 0.47119 0.88624 0.54412 0.0
C230 C 0.37678 0.85068 0.43168 0.0
C231 C 0.3904 0.88864 0.50255 0.0
C232 C 0.3769 0.90216 0.46554 0.0
C233 C 0.3701 0.88301 0.4299 0.0
N234 N 0.39687 0.8569 0.50405 0.0
C235 C 0.39024 0.83797 0.46924 0.0
Co236 Co 0.18438 0.51046 0.52101 0.0
Co237 Co 0.16277 0.58607 0.49024 0.0
O238 O 0.18549 0.55634 0.52723 0.0
C239 C 0.16282 0.52189 0.61054 0.0
O240 O 0.14336 0.54291 0.59393 0.0
C241 C 0.22962 0.60733 0.48503 0.0
O242 O 0.23716 0.57866 0.47208 0.0
O243 O 0.17878 0.56481 0.4367 0.0
O244 O 0.18745 0.51407 0.4563 0.0
H245 H 0.09269 0.61879 0.36624 0.0
H246 H 0.23113 0.54103 0.57936 0.0
O247 O 0.1813 0.50625 0.58576 0.0
H248 H 0.29462 0.4807 0.47339 0.0
H249 H 0.21239 0.39879 0.5639 0.0
H250 H 0.15226 0.46556 0.46154 0.0
H251 H 0.23619 0.47958 0.4705 0.0
H252 H 0.21394 0.4571 0.56981 0.0
O253 O 0.20075 0.61463 0.49197 0.0
H254 H 0.12064 0.5808 0.41351 0.0
H255 H 0.15806 0.65655 0.48841 0.0
H256 H 0.15026 0.40735 0.45417 0.0
H257 H 0.2895 0.54265 0.5837 0.0
H258 H 0.18048 0.37356 0.50562 0.0
H259 H 0.32165 0.5124 0.53035 0.0
O260 O 0.13722 0.51063 0.5171 0.0
H261 H 0.17151 0.63239 0.64005 0.0
H262 H 0.09882 0.6073 0.51954 0.0
H263 H 0.07761 0.63149 0.58634 0.0
H264 H 0.11406 0.64421 0.64718 0.0
H265 H 0.19169 0.60792 0.57287 0.0
H266 H 0.13067 0.69541 0.44178 0.0
H267 H 0.09762 0.67657 0.38026 0.0
O268 O 0.12451 0.55815 0.48891 0.0
C269 C 0.18573 0.53603 0.42783 0.0
C270 C 0.10697 0.6273 0.39299 0.0
C271 C 0.12833 0.6703 0.43535 0.0
N272 N 0.14087 0.61644 0.45374 0.0
C273 C 0.12281 0.60589 0.4199 0.0
C274 C 0.14386 0.64819 0.46156 0.0
C275 C 0.10977 0.65971 0.40085 0.0
C276 C 0.24496 0.52763 0.55623 0.0
N277 N 0.23029 0.51023 0.5247 0.0
C278 C 0.278 0.52871 0.55876 0.0
C279 C 0.29603 0.51177 0.52879 0.0
C280 C 0.28088 0.494 0.4968 0.0
C281 C 0.24779 0.49353 0.49521 0.0
C282 C 0.19917 0.41326 0.54123 0.0
C283 C 0.16564 0.451 0.48384 0.0
C284 C 0.1999 0.44627 0.54448 0.0
N285 N 0.18341 0.46468 0.51582 0.0
C286 C 0.16434 0.41806 0.47961 0.0
C287 C 0.18127 0.39912 0.50852 0.0
C288 C 0.11716 0.53037 0.50185 0.0
C289 C 0.15541 0.62707 0.6137 0.0
C290 C 0.11485 0.61277 0.54586 0.0
C291 C 0.1027 0.6265 0.58359 0.0
C292 C 0.12317 0.63365 0.61771 0.0
N293 N 0.14651 0.60642 0.54215 0.0
C294 C 0.16672 0.61337 0.57547 0.0
Co295 Co 0.49333 0.18312 0.02008 0.0
Co296 Co 0.41758 0.16407 0.98872 0.0
O297 O 0.44751 0.18553 0.02665 0.0
C298 C 0.48172 0.16318 0.10958 0.0
O299 O 0.4606 0.14369 0.09326 0.0
C300 C 0.39572 0.23084 0.98767 0.0
O301 O 0.42413 0.23893 0.97425 0.0
O302 O 0.43828 0.18268 0.93651 0.0
O303 O 0.48981 0.1844 0.95554 0.0
H304 H 0.38448 0.09961 0.85939 0.0
H305 H 0.46507 0.23208 0.07722 0.0
O306 O 0.49754 0.18132 0.08462 0.0
H307 H 0.52486 0.29126 0.96613 0.0
H308 H 0.60571 0.20976 0.06098 0.0
H309 H 0.53739 0.14776 0.96274 0.0
H310 H 0.52427 0.23278 0.96578 0.0
H311 H 0.54745 0.2129 0.06687 0.0
O312 O 0.38879 0.20176 0.99367 0.0
H313 H 0.42259 0.12603 0.90814 0.0
H314 H 0.34715 0.15847 0.98786 0.0
H315 H 0.59551 0.14411 0.95545 0.0
H316 H 0.46518 0.29055 0.07896 0.0
H317 H 0.63008 0.17527 0.00482 0.0
H318 H 0.49517 0.32052 0.02306 0.0
O319 O 0.49175 0.13616 0.01796 0.0
H320 H 0.37209 0.16654 0.13941 0.0
H321 H 0.39703 0.09884 0.0135 0.0
H322 H 0.37346 0.07486 0.07894 0.0
H323 H 0.36081 0.10879 0.14249 0.0
H324 H 0.39599 0.18949 0.07353 0.0
H325 H 0.30818 0.13262 0.93977 0.0
H326 H 0.32681 0.10281 0.87511 0.0
O327 O 0.44575 0.12574 0.98408 0.0
C328 C 0.4676 0.18625 0.92758 0.0
C329 C 0.37607 0.11244 0.88754 0.0
C330 C 0.33324 0.131 0.93262 0.0
N331 N 0.3871 0.14353 0.95097 0.0
C332 C 0.39755 0.12737 0.91532 0.0
C333 C 0.35541 0.14565 0.95967 0.0
C334 C 0.34372 0.11427 0.89635 0.0
C335 C 0.47842 0.24497 0.05304 0.0
N336 N 0.49481 0.22905 0.02161 0.0
C337 C 0.47829 0.27806 0.05408 0.0
C338 C 0.49509 0.29487 0.02267 0.0
C339 C 0.51174 0.27846 0.9907 0.0
C340 C 0.51128 0.24536 0.99063 0.0
C341 C 0.5909 0.19615 0.03919 0.0
C342 C 0.55228 0.16159 0.98408 0.0
C343 C 0.55791 0.1978 0.04241 0.0
N344 N 0.53907 0.18081 0.01484 0.0
C345 C 0.58517 0.15933 0.97992 0.0
C346 C 0.60456 0.17679 0.00767 0.0
C347 C 0.47252 0.11712 -0.00044 0.0
C348 C 0.37739 0.15152 0.11187 0.0
C349 C 0.39163 0.11377 0.04103 0.0
C350 C 0.37823 0.10006 0.07797 0.0
C351 C 0.37112 0.11912 0.1136 0.0
N352 N 0.39772 0.14558 0.03957 0.0
C353 C 0.39077 0.16442 0.07437 0.0
Co354 Co 0.8176 0.4913 0.51872 0.0
Co355 Co 0.83984 0.41534 0.49027 0.0
O356 O 0.81679 0.44553 0.52616 0.0
C357 C 0.83955 0.48137 0.60841 0.0
O358 O 0.85922 0.46037 0.5922 0.0
C359 C 0.77302 0.39415 0.48449 0.0
O360 O 0.7657 0.42272 0.47092 0.0
O361 O 0.82438 0.4359 0.43588 0.0
O362 O 0.81439 0.48669 0.45418 0.0
H363 H 0.91137 0.38094 0.36867 0.0
H364 H 0.77118 0.46129 0.5781 0.0
O365 O 0.8208 0.49644 0.58335 0.0
H366 H 0.70709 0.51956 0.47066 0.0
H367 H 0.78892 0.60338 0.55865 0.0
H368 H 0.84927 0.53552 0.45788 0.0
H369 H 0.76551 0.52108 0.46758 0.0
H370 H 0.78782 0.54516 0.56622 0.0
O371 O 0.80181 0.38682 0.492 0.0
H372 H 0.88289 0.41956 0.41436 0.0
H373 H 0.84446 0.34485 0.49021 0.0
H374 H 0.85081 0.59363 0.44887 0.0
H375 H 0.71282 0.45931 0.58265 0.0
H376 H 0.82047 0.62796 0.49951 0.0
H377 H 0.68038 0.48851 0.52856 0.0
O378 O 0.86478 0.4914 0.5146 0.0
H379 H 0.82968 0.37107 0.64107 0.0
H380 H 0.9035 0.39452 0.52123 0.0
H381 H 0.92408 0.37128 0.58901 0.0
H382 H 0.88706 0.35939 0.64952 0.0
H383 H 0.81014 0.39459 0.57291 0.0
H384 H 0.87236 0.30536 0.44517 0.0
H385 H 0.90619 0.32336 0.38398 0.0
O386 O 0.87807 0.44327 0.48894 0.0
C387 C 0.81678 0.46439 0.4263 0.0
C388 C 0.89673 0.3728 0.39527 0.0
C389 C 0.8748 0.33038 0.43817 0.0
N390 N 0.86209 0.38448 0.45494 0.0
C391 C 0.88058 0.39457 0.42128 0.0
C392 C 0.85898 0.35284 0.46347 0.0
C393 C 0.8938 0.3405 0.40386 0.0
C394 C 0.75721 0.47425 0.55465 0.0
N395 N 0.77171 0.49129 0.5226 0.0
C396 C 0.72418 0.47296 0.5573 0.0
C397 C 0.70599 0.48932 0.52691 0.0
C398 C 0.72096 0.50672 0.4944 0.0
C399 C 0.75404 0.50741 0.49271 0.0
C400 C 0.80218 0.58867 0.53634 0.0
C401 C 0.83584 0.55032 0.47985 0.0
C402 C 0.80171 0.55571 0.54052 0.0
N403 N 0.81826 0.537 0.51229 0.0
C404 C 0.83688 0.5832 0.47468 0.0
C405 C 0.81988 0.60245 0.50313 0.0
C406 C 0.8851 0.47143 0.50061 0.0
C407 C 0.84603 0.37603 0.61487 0.0
C408 C 0.88722 0.3894 0.54739 0.0
C409 C 0.89902 0.37621 0.58569 0.0
C410 C 0.87823 0.36953 0.61962 0.0
N411 N 0.8556 0.39569 0.54296 0.0
C412 C 0.83507 0.3892 0.5761 0.0
Co413 Co 0.50703 0.81869 0.02292 0.0
Co414 Co 0.58236 0.83644 0.98873 0.0
O415 O 0.55289 0.81554 0.02788 0.0
C416 C 0.5205 0.83826 0.11212 0.0
O417 O 0.54161 0.85751 0.09525 0.0
C418 C 0.60364 0.76941 0.9872 0.0
O419 O 0.57518 0.76149 0.97379 0.0
O420 O 0.56048 0.81779 0.93748 0.0
O421 O 0.50929 0.81749 0.95823 0.0
H422 H 0.61391 0.89946 0.85737 0.0
H423 H 0.5356 0.76912 0.07876 0.0
O424 O 0.50405 0.8204 0.08757 0.0
H425 H 0.47254 0.71124 0.96979 0.0
H426 H 0.39502 0.79382 0.06763 0.0
H427 H 0.46252 0.8551 0.96753 0.0
H428 H 0.47417 0.76969 0.96959 0.0
H429 H 0.4533 0.78961 0.07138 0.0
O430 O 0.61077 0.79843 0.9933 0.0
H431 H 0.57637 0.87395 0.90782 0.0
H432 H 0.65282 0.84116 0.98544 0.0
H433 H 0.40435 0.85981 0.96235 0.0
H434 H 0.53448 0.71066 0.08032 0.0
H435 H 0.37019 0.82902 0.01267 0.0
H436 H 0.50283 0.68133 0.02549 0.0
O437 O 0.5094 0.86561 0.02095 0.0
H438 H 0.6305 0.83446 0.1379 0.0
H439 H 0.60423 0.90155 0.0119 0.0
H440 H 0.62938 0.92567 0.07612 0.0
H441 H 0.64272 0.89204 0.13971 0.0
H442 H 0.60501 0.81138 0.07323 0.0
H443 H 0.69123 0.86609 0.93563 0.0
H444 H 0.67181 0.89561 0.87116 0.0
O445 O 0.55457 0.87509 0.98452 0.0
C446 C 0.53092 0.815 0.9295 0.0
C447 C 0.62267 0.88676 0.88543 0.0
C448 C 0.66606 0.86799 0.92932 0.0
N449 N 0.6124 0.85634 0.94971 0.0
C450 C 0.60152 0.87235 0.91417 0.0
C451 C 0.64422 0.85387 0.95735 0.0
C452 C 0.65515 0.88456 0.89316 0.0
C453 C 0.52154 0.75652 0.05504 0.0
N454 N 0.50481 0.77278 0.02431 0.0
C455 C 0.5211 0.72342 0.05598 0.0
C456 C 0.50337 0.70698 0.02517 0.0
C457 C 0.48638 0.72375 0.99389 0.0
C458 C 0.48743 0.75684 0.9939 0.0
C459 C 0.40964 0.80727 0.04542 0.0
C460 C 0.4478 0.84141 0.98924 0.0
C461 C 0.44265 0.80501 0.04742 0.0
N462 N 0.46125 0.82179 0.01932 0.0
C463 C 0.41488 0.84427 0.98629 0.0
C464 C 0.39573 0.82702 0.01458 0.0
C465 C 0.52841 0.88423 0.00134 0.0
C466 C 0.62492 0.84934 0.11033 0.0
C467 C 0.60992 0.88675 0.03945 0.0
C468 C 0.62421 0.90054 0.0757 0.0
C469 C 0.63171 0.88166 0.11135 0.0
N470 N 0.60335 0.85503 0.03867 0.0
C471 C 0.61065 0.83636 0.07351 0.0
C472 C 0.21134 0.49641 0.17436 0.0
C473 C 0.18935 0.47312 0.16217 0.0
C474 C 0.21389 0.50641 0.21771 0.0
C475 C 0.19316 0.49362 0.24934 0.0
C476 C 0.1712 0.46979 0.23727 0.0
C477 C 0.16995 0.45945 0.19398 0.0
C478 C 0.23839 0.53103 0.2295 0.0
C479 C 0.14809 0.4561 0.26968 0.0
C480 C 0.20889 0.50078 0.37052 0.0
C481 C 0.19016 0.52703 0.38171 0.0
C482 C 0.21116 0.49043 0.3273 0.0
C483 C 0.19343 0.50604 0.29466 0.0
C484 C 0.17483 0.53283 0.30567 0.0
C485 C 0.17385 0.5433 0.34891 0.0
C486 C 0.23208 0.46244 0.31671 0.0
C487 C 0.15494 0.5497 0.2721 0.0
H488 H 0.22656 0.50686 0.14995 0.0
H489 H 0.15276 0.44164 0.18469 0.0
H490 H 0.22645 0.5533 0.23942 0.0
H491 H 0.2527 0.52279 0.25753 0.0
H492 H 0.2546 0.53638 0.20206 0.0
H493 H 0.13267 0.43758 0.25515 0.0
H494 H 0.16106 0.44559 0.29746 0.0
H495 H 0.13282 0.47528 0.28277 0.0
H496 H 0.22174 0.48821 0.39561 0.0
H497 H 0.15919 0.56347 0.35728 0.0
H498 H 0.24819 0.46839 0.28944 0.0
H499 H 0.21728 0.44212 0.30617 0.0
H500 H 0.24658 0.45485 0.34495 0.0
H501 H 0.17012 0.55822 0.24515 0.0
H502 H 0.14193 0.57027 0.28589 0.0
H503 H 0.13747 0.53294 0.25801 0.0
C504 C 0.53757 0.21194 0.68833 0.0
C505 C 0.52082 0.19238 0.65972 0.0
C506 C 0.52824 0.2146 0.73194 0.0
C507 C 0.50244 0.19626 0.74734 0.0
C508 C 0.48543 0.17659 0.71833 0.0
C509 C 0.49453 0.17532 0.6747 0.0
C510 C 0.54626 0.2366 0.76166 0.0
C511 C 0.45854 0.15577 0.73371 0.0
C512 C 0.50194 0.17203 0.86555 0.0
C513 C 0.47692 0.19021 0.882 0.0
C514 C 0.51065 0.17401 0.82183 0.0
C515 C 0.49463 0.19557 0.7943 0.0
C516 C 0.47 0.21483 0.81117 0.0
C517 C 0.46096 0.21144 0.85481 0.0
C518 C 0.53622 0.15222 0.80481 0.0
C519 C 0.45312 0.23879 0.78308 0.0
H520 H 0.55778 0.22528 0.67651 0.0
H521 H 0.48183 0.15989 0.65259 0.0
H522 H 0.52953 0.25208 0.77965 0.0
H523 H 0.55959 0.22259 0.78602 0.0
H524 H 0.56331 0.25176 0.74366 0.0
H525 H 0.4474 0.14228 0.70675 0.0
H526 H 0.46748 0.13865 0.75816 0.0
H527 H 0.44002 0.1703 0.74971 0.0
H528 H 0.51401 0.15537 0.88666 0.0
H529 H 0.44177 0.22564 0.86784 0.0
H530 H 0.55572 0.16624 0.79022 0.0
H531 H 0.52636 0.13686 0.77887 0.0
H532 H 0.54631 0.13683 0.8306 0.0
H533 H 0.47064 0.25423 0.76649 0.0
H534 H 0.43664 0.25393 0.8021 0.0
H535 H 0.43937 0.22643 0.75752 0.0
C536 C 0.83141 0.45872 0.34815 0.0
C537 C 0.81229 0.4727 0.38004 0.0
C538 C 0.83018 0.46902 0.30484 0.0
C539 C 0.8085 0.49314 0.29283 0.0
C540 C 0.78804 0.50625 0.32454 0.0
C541 C 0.79058 0.49627 0.36791 0.0
C542 C 0.853 0.45498 0.27234 0.0
C543 C 0.76385 0.53119 0.31283 0.0
C544 C 0.82817 0.54258 0.19318 0.0
C545 C 0.81155 0.52655 0.16046 0.0
C546 C 0.82721 0.53208 0.23641 0.0
C547 C 0.8083 0.50554 0.24751 0.0
C548 C 0.79028 0.49017 0.21495 0.0
C549 C 0.79254 0.50052 0.17172 0.0
C550 C 0.84742 0.54867 0.26988 0.0
C551 C 0.76901 0.46247 0.22563 0.0
H552 H 0.84839 0.44069 0.35738 0.0
H553 H 0.77556 0.50696 0.39237 0.0
H554 H 0.83983 0.44465 0.24462 0.0
H555 H 0.86852 0.47393 0.25917 0.0
H556 H 0.8682 0.43625 0.28682 0.0
H557 H 0.74776 0.53676 0.34033 0.0
H558 H 0.77605 0.5533 0.30286 0.0
H559 H 0.74937 0.52314 0.28485 0.0
H560 H 0.84306 0.56256 0.18474 0.0
H561 H 0.77944 0.48816 0.14669 0.0
H562 H 0.86468 0.53166 0.28391 0.0
H563 H 0.83244 0.55743 0.29689 0.0
H564 H 0.86071 0.56904 0.25602 0.0
H565 H 0.78356 0.44197 0.23616 0.0
H566 H 0.75437 0.45505 0.19745 0.0
H567 H 0.75303 0.46865 0.25295 0.0
C568 C 0.49419 0.82811 0.86941 0.0
C569 C 0.5207 0.81127 0.88415 0.0
C570 C 0.48498 0.8269 0.82582 0.0
C571 C 0.50213 0.80753 0.79658 0.0
C572 C 0.52819 0.78943 0.81171 0.0
C573 C 0.53759 0.79201 0.8553 0.0
C574 C 0.45779 0.84745 0.81073 0.0
C575 C 0.54639 0.76778 0.78172 0.0
C576 C 0.46065 0.79202 0.68919 0.0
C577 C 0.4763 0.81348 0.66201 0.0
C578 C 0.46977 0.78872 0.73281 0.0
C579 C 0.49416 0.80828 0.74967 0.0
C580 C 0.50983 0.8301 0.72217 0.0
C581 C 0.50106 0.83201 0.67846 0.0
C582 C 0.45326 0.7645 0.76087 0.0
C583 C 0.53513 0.8522 0.73918 0.0
H584 H 0.48136 0.84331 0.89168 0.0
H585 H 0.55797 0.77883 0.8669 0.0
H586 H 0.46645 0.86479 0.78638 0.0
H587 H 0.43941 0.83277 0.79469 0.0
H588 H 0.44656 0.86069 0.83784 0.0
H589 H 0.56373 0.7528 0.7995 0.0
H590 H 0.52981 0.75212 0.76377 0.0
H591 H 0.55942 0.78205 0.75734 0.0
H592 H 0.44166 0.77756 0.67615 0.0
H593 H 0.51289 0.84885 0.65737 0.0
H594 H 0.43951 0.77662 0.78666 0.0
H595 H 0.47102 0.74917 0.77719 0.0
H596 H 0.43684 0.74927 0.74191 0.0
H597 H 0.52514 0.86733 0.76527 0.0
H598 H 0.54493 0.86781 0.71343 0.0
H599 H 0.55488 0.83841 0.75357 0.0
C600 C 0.86055 0.47184 0.68326 0.0
C601 C 0.8391 0.48744 0.65578 0.0
C602 C 0.86052 0.47742 0.72816 0.0
C603 C 0.83842 0.49901 0.7461 0.0
C604 C 0.81662 0.51475 0.71859 0.0
C605 C 0.81725 0.50882 0.67376 0.0
C606 C 0.8842 0.46023 0.75641 0.0
C607 C 0.79262 0.53785 0.73653 0.0
C608 C 0.81952 0.49201 0.86633 0.0
C609 C 0.83835 0.51615 0.88413 0.0
C610 C 0.81922 0.48626 0.82146 0.0
C611 C 0.83815 0.50514 0.79368 0.0
C612 C 0.85704 0.52967 0.8114 0.0
C613 C 0.85693 0.53488 0.8564 0.0
C614 C 0.79875 0.45988 0.80378 0.0
C615 C 0.8775 0.55034 0.78284 0.0
H616 H 0.8775 0.45526 0.6697 0.0
H617 H 0.80054 0.52093 0.65282 0.0
H618 H 0.89927 0.47763 0.77381 0.0
H619 H 0.87159 0.44605 0.78133 0.0
H620 H 0.89978 0.44416 0.73742 0.0
H621 H 0.77725 0.54806 0.71081 0.0
H622 H 0.77736 0.52583 0.76079 0.0
H623 H 0.80494 0.55751 0.75347 0.0
H624 H 0.80508 0.47742 0.88748 0.0
H625 H 0.87145 0.55367 0.86981 0.0
H626 H 0.81374 0.4422 0.78678 0.0
H627 H 0.78179 0.4695 0.77963 0.0
H628 H 0.78516 0.44758 0.82966 0.0
H629 H 0.89498 0.5355 0.76522 0.0
H630 H 0.89051 0.56867 0.80163 0.0
H631 H 0.86265 0.56236 0.7581 0.0
C632 C 0.49243 0.8176 0.17761 0.0
C633 C 0.51538 0.8377 0.1595 0.0
C634 C 0.48683 0.81731 0.22242 0.0
C635 C 0.5046 0.83761 0.24968 0.0
C636 C 0.52799 0.85773 0.2317 0.0
C637 C 0.53314 0.85751 0.18677 0.0
C638 C 0.46176 0.79545 0.24055 0.0
C639 C 0.54739 0.87969 0.25986 0.0
C640 C 0.47004 0.85928 0.35924 0.0
C641 C 0.48697 0.83914 0.38705 0.0
C642 C 0.47556 0.85901 0.31441 0.0
C643 C 0.49846 0.83804 0.29704 0.0
C644 C 0.51548 0.81751 0.32487 0.0
C645 C 0.50955 0.81832 0.36959 0.0
C646 C 0.45697 0.88126 0.28564 0.0
C647 C 0.54 0.79474 0.3074 0.0
H648 H 0.47865 0.80217 0.15676 0.0
H649 H 0.55098 0.87304 0.17303 0.0
H650 H 0.47237 0.77944 0.26514 0.0
H651 H 0.44313 0.80951 0.25714 0.0
H652 H 0.45038 0.78077 0.215 0.0
H653 H 0.56497 0.89352 0.24084 0.0
H654 H 0.53152 0.89649 0.27704 0.0
H655 H 0.56019 0.86586 0.28497 0.0
H656 H 0.45251 0.87539 0.37248 0.0
H657 H 0.52269 0.80263 0.39087 0.0
H658 H 0.44363 0.86754 0.26096 0.0
H659 H 0.47343 0.89719 0.26795 0.0
H660 H 0.43994 0.89603 0.30428 0.0
H661 H 0.52895 0.77858 0.28335 0.0
H662 H 0.55104 0.78022 0.33339 0.0
H663 H 0.55894 0.80804 0.29032 0.0
C664 C 0.18352 0.51034 0.86866 0.0
C665 C 0.16285 0.48773 0.88642 0.0
C666 C 0.18409 0.51628 0.82383 0.0
C667 C 0.16348 0.49923 0.79608 0.0
C668 C 0.14262 0.47634 0.81378 0.0
C669 C 0.14258 0.47085 0.8587 0.0
C670 C 0.20672 0.54082 0.80616 0.0
C671 C 0.12027 0.45769 0.78526 0.0
C672 C 0.14346 0.5339 0.68557 0.0
C673 C 0.16328 0.51632 0.65803 0.0
C674 C 0.14339 0.52869 0.73056 0.0
C675 C 0.16366 0.50536 0.7485 0.0
C676 C 0.18387 0.48768 0.72094 0.0
C677 C 0.18344 0.49337 0.67605 0.0
C678 C 0.1215 0.54803 0.75888 0.0
C679 C 0.20586 0.46265 0.73885 0.0
H680 H 0.19931 0.52347 0.88979 0.0
H681 H 0.12657 0.45327 0.87206 0.0
H682 H 0.22282 0.52978 0.78206 0.0
H683 H 0.1933 0.5597 0.7891 0.0
H684 H 0.22128 0.55194 0.83205 0.0
H685 H 0.10563 0.44065 0.80406 0.0
H686 H 0.10423 0.47409 0.76767 0.0
H687 H 0.13391 0.44434 0.76049 0.0
H688 H 0.12787 0.55176 0.67199 0.0
H689 H 0.19888 0.4797 0.65507 0.0
H690 H 0.13542 0.56094 0.7838 0.0
H691 H 0.10487 0.53213 0.77629 0.0
H692 H 0.10749 0.56552 0.73994 0.0
H693 H 0.22205 0.47331 0.76318 0.0
H694 H 0.22035 0.45122 0.71313 0.0
H695 H 0.19193 0.44406 0.75571 0.0
C696 C 0.53215 0.1445 0.35755 0.0
C697 C 0.51511 0.16511 0.38457 0.0
C698 C 0.52709 0.14425 0.3126 0.0
C699 C 0.50452 0.16518 0.29434 0.0
C700 C 0.48747 0.18626 0.32135 0.0
C701 C 0.49295 0.18596 0.36619 0.0
C702 C 0.54569 0.12144 0.28471 0.0
C703 C 0.4633 0.20899 0.30292 0.0
C704 C 0.51061 0.18395 0.17437 0.0
C705 C 0.48735 0.16392 0.15685 0.0
C706 C 0.51642 0.18464 0.21913 0.0
C707 C 0.49854 0.16484 0.24694 0.0
C708 C 0.47495 0.14468 0.22951 0.0
C709 C 0.46961 0.14447 0.18463 0.0
C710 C 0.54173 0.20649 0.23665 0.0
C711 C 0.45541 0.12325 0.25826 0.0
H712 H 0.54937 0.12837 0.3715 0.0
H713 H 0.47974 0.20202 0.38685 0.0
H714 H 0.52923 0.10522 0.26752 0.0
H715 H 0.55912 0.13466 0.25961 0.0
H716 H 0.56264 0.10698 0.30394 0.0
H717 H 0.45236 0.22414 0.32832 0.0
H718 H 0.4746 0.22454 0.27836 0.0
H719 H 0.44424 0.19559 0.28623 0.0
H720 H 0.52439 0.19907 0.15311 0.0
H721 H 0.45154 0.129 0.17134 0.0
H722 H 0.56008 0.19252 0.25395 0.0
H723 H 0.53122 0.22314 0.26053 0.0
H724 H 0.55342 0.22049 0.21066 0.0
H725 H 0.47118 0.10675 0.27616 0.0
H726 H 0.4379 0.1091 0.23958 0.0
H727 H 0.44251 0.13756 0.28276 0.0
C728 C 0.93018 0.49769 0.01439 0.0
C729 C 0.91838 0.52158 0.04161 0.0
C730 C 0.96255 0.4899 0.01428 0.0
C731 C 0.98351 0.50594 0.04269 0.0
C732 C 0.97165 0.52972 0.07074 0.0
C733 C 0.93931 0.53747 0.06955 0.0
C734 C 0.9744 0.46478 0.98337 0.0
C735 C 0.99311 0.54692 0.1021 0.0
C736 C 0.06135 0.46502 0.06927 0.0
C737 C 0.08284 0.48155 0.04287 0.0
C738 C 0.02908 0.47304 0.07003 0.0
C739 C 0.01785 0.4978 0.04312 0.0
C740 C 0.03939 0.51461 0.0164 0.0
C741 C 0.07168 0.50648 0.0169 0.0
C742 C 0.00698 0.45496 0.09959 0.0
C743 C 0.02823 0.54082 0.98674 0.0
H744 H 0.91422 0.48552 0.99243 0.0
H745 H 0.93036 0.55585 0.09085 0.0
H746 H 0.99292 0.4749 0.96188 0.0
H747 H 0.9855 0.4451 0.00178 0.0
H748 H 0.95513 0.45489 0.96287 0.0
H749 H 0.98002 0.56429 0.12244 0.0
H750 H 0.00505 0.52962 0.12374 0.0
H751 H 0.01193 0.5597 0.08405 0.0
H752 H 0.06979 0.44584 0.08961 0.0
H753 H 0.08808 0.51919 0.99614 0.0
H754 H 0.98861 0.44267 0.0801 0.0
H755 H 0.99451 0.47163 0.12161 0.0
H756 H 0.01966 0.43707 0.11955 0.0
H757 H 0.01028 0.53146 0.96374 0.0
H758 H 0.04796 0.55146 0.96783 0.0
H759 H 0.01662 0.55979 0.00594 0.0
C760 C 0.50434 0.93243 0.52087 0.0
C761 C 0.47965 0.92033 0.54651 0.0
C762 C 0.51204 0.96478 0.52158 0.0
C763 C 0.49494 0.98555 0.54904 0.0
C764 C 0.47037 0.97345 0.57558 0.0
C765 C 0.46285 0.94103 0.57378 0.0
C766 C 0.53813 0.97683 0.49234 0.0
C767 C 0.45189 0.99478 0.60571 0.0
C768 C 0.53397 0.06464 0.57464 0.0
C769 C 0.51825 0.08512 0.54591 0.0
C770 C 0.52612 0.03231 0.57675 0.0
C771 C 0.50233 0.02007 0.54902 0.0
C772 C 0.48625 0.04063 0.52015 0.0
C773 C 0.49424 0.07291 0.51916 0.0
C774 C 0.54349 0.01121 0.60838 0.0
C775 C 0.46104 0.02841 0.48964 0.0
H776 H 0.51737 0.91671 0.49951 0.0
H777 H 0.44385 0.9319 0.59388 0.0
H778 H 0.52845 0.99476 0.46957 0.0
H779 H 0.55674 0.9887 0.5119 0.0
H780 H 0.54932 0.95755 0.47316 0.0
H781 H 0.43433 0.98147 0.62545 0.0
H782 H 0.46833 0.00738 0.6279 0.0
H783 H 0.43914 0.01309 0.58665 0.0
H784 H 0.55241 0.07386 0.59562 0.0
H785 H 0.48205 0.08848 0.49669 0.0
H786 H 0.55693 0.99279 0.59044 0.0
H787 H 0.52629 0.99875 0.62961 0.0
H788 H 0.56031 0.02468 0.62911 0.0
H789 H 0.4714 0.01038 0.46759 0.0
H790 H 0.45041 0.04758 0.46967 0.0
H791 H 0.44188 0.01662 0.50826 0.0
C792 C 0.06226 0.53702 0.47248 0.0
C793 C 0.0833 0.52112 0.50025 0.0
C794 C 0.02996 0.52912 0.4713 0.0
C795 C 0.01826 0.50517 0.49917 0.0
C796 C 0.03933 0.48906 0.52736 0.0
C797 C 0.07167 0.49702 0.52726 0.0
C798 C 0.00837 0.54641 0.4402 0.0
C799 C 0.02765 0.46374 0.55806 0.0
C800 C 0.93016 0.50561 0.52541 0.0
C801 C 0.91892 0.48085 0.49922 0.0
C802 C 0.96247 0.51368 0.52588 0.0
C803 C 0.98393 0.49699 0.4989 0.0
C804 C 0.97262 0.47238 0.4718 0.0
C805 C 0.94033 0.46441 0.4726 0.0
C806 C 0.97371 0.53973 0.55575 0.0
C807 C 0.99463 0.45444 0.44196 0.0
H808 H 0.07108 0.55555 0.45134 0.0
H809 H 0.08772 0.48482 0.54907 0.0
H810 H 0.99635 0.52917 0.41855 0.0
H811 H 0.98962 0.55912 0.45847 0.0
H812 H 0.02136 0.56384 0.41986 0.0
H813 H 0.04703 0.45373 0.57827 0.0
H814 H 0.00923 0.47371 0.57984 0.0
H815 H 0.01647 0.44417 0.53951 0.0
H816 H 0.91382 0.51824 0.54635 0.0
H817 H 0.93182 0.44535 0.4521 0.0
H818 H 0.98521 0.55882 0.53667 0.0
H819 H 0.99178 0.53026 0.57849 0.0
H820 H 0.95405 0.55023 0.57494 0.0
H821 H 0.00698 0.47121 0.41997 0.0
H822 H 0.98191 0.4366 0.42197 0.0
H823 H 0.0131 0.4421 0.46123 0.0
C824 C 0.4968 0.93096 0.02646 0.0
C825 C 0.51995 0.91829 0.99872 0.0
C826 C 0.4891 0.96331 0.02537 0.0
C827 C 0.50455 0.98347 0.99536 0.0
C828 C 0.52755 0.97078 0.96675 0.0
C829 C 0.53517 0.93839 0.96901 0.0
C830 C 0.46478 0.97602 0.05687 0.0
C831 C 0.54421 0.99144 0.93389 0.0
C832 C 0.46411 0.06206 0.97087 0.0
C833 C 0.48138 0.08312 0.99706 0.0
C834 C 0.47183 0.02968 0.96922 0.0
C835 C 0.49715 0.01798 0.9948 0.0
C836 C 0.51481 0.03912 0.02102 0.0
C837 C 0.50685 0.07142 0.02163 0.0
C838 C 0.45271 0.00794 0.94044 0.0
C839 C 0.54173 0.02752 0.04917 0.0
H840 H 0.48504 0.91569 0.04971 0.0
H841 H 0.55295 0.9288 0.94728 0.0
H842 H 0.47573 0.99443 0.07776 0.0
H843 H 0.44507 0.98746 0.03894 0.0
H844 H 0.45479 0.95717 0.07799 0.0
H845 H 0.56063 0.9777 0.9129 0.0
H846 H 0.52652 0.00352 0.91299 0.0
H847 H 0.55794 0.01017 0.95075 0.0
H848 H 0.44451 0.07085 0.95158 0.0
H849 H 0.52029 0.08741 0.04211 0.0
H850 H 0.44034 0.98996 0.96051 0.0
H851 H 0.46864 0.99498 0.91795 0.0
H852 H 0.43475 0.02099 0.92104 0.0
H853 H 0.5327 0.00998 0.07299 0.0
H854 H 0.55347 0.04709 0.06714 0.0
H855 H 0.55975 0.0153 0.029 0.0
C856 C 0.28294 0.37212 0.06976 0.0
C857 C 0.25365 0.37087 0.04837 0.0
C858 C 0.30682 0.34981 0.06072 0.0
C859 C 0.30159 0.32637 0.02857 0.0
C860 C 0.27226 0.32547 0.00628 0.0
C861 C 0.2485 0.34741 0.01691 0.0
C862 C 0.33744 0.35101 0.08603 0.0
C863 C 0.266 0.30141 0.97102 0.0
C864 C 0.37302 0.28526 0.97803 0.0
C865 C 0.37198 0.2555 0.99817 0.0
C866 C 0.35022 0.30858 0.9875 0.0
C867 C 0.32644 0.30226 0.01881 0.0
C868 C 0.3258 0.27248 0.03997 0.0
C869 C 0.34828 0.24932 0.02893 0.0
C870 C 0.35118 0.33972 0.96339 0.0
C871 C 0.30137 0.26506 0.07431 0.0
H872 H 0.28695 0.39018 0.09418 0.0
H873 H 0.22601 0.34655 -8e-05 0.0
H874 H 0.34119 0.32816 0.10314 0.0
H875 H 0.35774 0.35434 0.06364 0.0
H876 H 0.33765 0.37046 0.11031 0.0
H877 H 0.24259 0.30496 0.95524 0.0
H878 H 0.28475 0.30285 0.94584 0.0
H879 H 0.26676 0.27712 0.98475 0.0
H880 H 0.39126 0.29008 0.95413 0.0
H881 H 0.34759 0.22645 0.04497 0.0
H882 H 0.35353 0.35964 0.98663 0.0
H883 H 0.32861 0.34324 0.94551 0.0
H884 H 0.37112 0.34088 0.9399 0.0
H885 H 0.30193 0.28343 0.10008 0.0
H886 H 0.30527 0.24149 0.08949 0.0
H887 H 0.27729 0.26543 0.05986 0.0
C888 C 0.71828 0.37258 0.47336 0.0
C889 C 0.74772 0.37094 0.4943 0.0
C890 C 0.69421 0.35054 0.48267 0.0
C891 C 0.69943 0.32695 0.51463 0.0
C892 C 0.72894 0.32564 0.53646 0.0
C893 C 0.75286 0.34733 0.52557 0.0
C894 C 0.66341 0.35216 0.45784 0.0
C895 C 0.7352 0.30143 0.57152 0.0
C896 C 0.62783 0.28662 0.56585 0.0
C897 C 0.62838 0.2569 0.54556 0.0
C898 C 0.65089 0.30966 0.55627 0.0
C899 C 0.67439 0.30312 0.52464 0.0
C900 C 0.67453 0.27338 0.50334 0.0
C901 C 0.65184 0.25048 0.51454 0.0
C902 C 0.65049 0.34072 0.58057 0.0
C903 C 0.69862 0.26576 0.46863 0.0
H904 H 0.71426 0.39075 0.4491 0.0
H905 H 0.77547 0.34618 0.54223 0.0
H906 H 0.65923 0.32939 0.44072 0.0
H907 H 0.64333 0.35571 0.48055 0.0
H908 H 0.66324 0.37166 0.43362 0.0
H909 H 0.75877 0.30467 0.58697 0.0
H910 H 0.71667 0.30303 0.59698 0.0
H911 H 0.73405 0.27719 0.55769 0.0
H912 H 0.60978 0.2916 0.58996 0.0
H913 H 0.65215 0.22764 0.4984 0.0
H914 H 0.64816 0.36075 0.55749 0.0
H915 H 0.67324 0.34393 0.5981 0.0
H916 H 0.63076 0.34204 0.60439 0.0
H917 H 0.69808 0.28419 0.44295 0.0
H918 H 0.69433 0.24228 0.45339 0.0
H919 H 0.7228 0.26581 0.48274 0.0
C920 C 0.71599 0.62701 0.06709 0.0
C921 C 0.74588 0.62955 0.04753 0.0
C922 C 0.69191 0.6491 0.05802 0.0
C923 C 0.69761 0.67371 0.0277 0.0
C924 C 0.72756 0.67593 0.0072 0.0
C925 C 0.75145 0.65412 0.01782 0.0
C926 C 0.66058 0.64645 0.0814 0.0
C927 C 0.73439 0.70129 0.97389 0.0
C928 C 0.6271 0.71551 0.97579 0.0
C929 C 0.6272 0.74461 0.9977 0.0
C930 C 0.64992 0.69217 0.98512 0.0
C931 C 0.67264 0.69773 0.01814 0.0
C932 C 0.67222 0.72678 0.04114 0.0
C933 C 0.64985 0.75006 0.03014 0.0
C934 C 0.65017 0.6619 0.959 0.0
C935 C 0.69543 0.73332 0.07735 0.0
H936 H 0.71163 0.60809 0.09013 0.0
H937 H 0.7744 0.65599 0.0022 0.0
H938 H 0.65589 0.66857 0.09983 0.0
H939 H 0.64104 0.64363 0.05765 0.0
H940 H 0.66 0.62611 0.10427 0.0
H941 H 0.75828 0.69865 0.95915 0.0
H942 H 0.71638 0.70045 0.94767 0.0
H943 H 0.73283 0.72505 0.98915 0.0
H944 H 0.60967 0.71132 0.95059 0.0
H945 H 0.64979 0.77241 0.0475 0.0
H946 H 0.64758 0.64114 0.98078 0.0
H947 H 0.67327 0.6594 0.94209 0.0
H948 H 0.6309 0.66123 0.93445 0.0
H949 H 0.69446 0.714 0.10175 0.0
H950 H 0.6906 0.75621 0.09392 0.0
H951 H 0.71992 0.73393 0.06431 0.0
C952 C 0.37305 0.71728 0.56644 0.0
C953 C 0.37226 0.74676 0.54552 0.0
C954 C 0.35046 0.69378 0.55685 0.0
C955 C 0.32722 0.6996 0.52461 0.0
C956 C 0.32691 0.72907 0.50262 0.0
C957 C 0.34911 0.75245 0.51381 0.0
C958 C 0.35103 0.66302 0.58186 0.0
C959 C 0.30308 0.73595 0.46727 0.0
C960 C 0.28436 0.62908 0.47435 0.0
C961 C 0.25473 0.63077 0.49477 0.0
C962 C 0.30818 0.65144 0.48352 0.0
C963 C 0.3025 0.67539 0.51482 0.0
C964 C 0.27282 0.67672 0.53617 0.0
C965 C 0.24916 0.65471 0.52542 0.0
C966 C 0.3392 0.64976 0.45921 0.0
C967 C 0.26606 0.70133 0.57054 0.0
H968 H 0.39086 0.71287 0.59107 0.0
H969 H 0.34864 0.7751 0.49719 0.0
H970 H 0.32821 0.65981 0.59923 0.0
H971 H 0.35367 0.64273 0.55926 0.0
H972 H 0.37064 0.66218 0.60589 0.0
H973 H 0.3073 0.75923 0.45145 0.0
H974 H 0.30403 0.71713 0.44214 0.0
H975 H 0.27877 0.73589 0.48097 0.0
H976 H 0.28871 0.61066 0.45057 0.0
H977 H 0.2264 0.65591 0.54169 0.0
H978 H 0.35913 0.6468 0.48231 0.0
H979 H 0.34326 0.6723 0.44148 0.0
H980 H 0.33978 0.62989 0.43557 0.0
H981 H 0.28443 0.70028 0.59627 0.0
H982 H 0.24241 0.69805 0.58577 0.0
H983 H 0.26704 0.72539 0.5561 0.0
loop_
_geom_bond_atom_site_label_1
_geom_bond_atom_site_label_2
_geom_bond_distance
_geom_bond_site_symmetry_2
_ccdc_geom_bond_type
Co0 O2 2.143 . S
Co0 O8 2.074 . S
Co0 O11 2.093 1_554 S
Co0 O24 2.097 . S
Co0 N41 2.151 . S
Co0 N49 2.214 . S
Co1 O2 2.160 . S
Co1 O7 2.058 . S
Co1 O17 2.057 . S
Co1 O32 2.037 . S
Co1 N36 2.145 . S
Co1 N57 2.272 . S
O2 Co0 2.143 . S
O2 Co1 2.160 . S
C3 O4 1.278 . S
C3 O11 1.224 . S
O4 C3 1.278 . S
C5 O6 1.245 . S
C5 O17 1.232 . S
O6 C5 1.245 . S
O7 Co1 2.058 . S
O7 C33 1.269 . S
O8 Co0 2.074 . S
O8 C33 1.257 . S
H9 C34 0.930 . S
H10 C40 0.930 . S
O11 Co0 2.093 1_556 S
O11 C3 1.224 . S
H12 C44 0.929 . S
H13 C46 0.937 . S
H14 C47 0.930 . S
H15 C45 0.929 . S
H16 C48 0.928 1_556 S
O17 Co1 2.057 . S
O17 C5 1.232 . S
H18 C37 0.929 . S
H19 C38 0.929 . S
H20 C50 0.931 . S
H21 C42 0.929 . S
H22 C51 0.930 . S
H23 C43 0.931 . S
O24 Co0 2.097 . S
O24 C52 1.214 . S
H25 C53 0.929 . S
H26 C54 0.913 1_554 S
H27 C55 0.930 . S
H28 C56 0.929 . S
H29 C58 0.930 . S
H30 C35 0.930 . S
H31 C39 0.930 . S
O32 Co1 2.037 . S
O32 C52 1.234 . S
C33 O7 1.269 . S
C33 O8 1.257 . S
C34 H9 0.930 . S
C34 C37 1.388 . S
C34 C39 1.418 . S
C35 H30 0.930 . S
C35 C38 1.404 . S
C35 C39 1.353 . S
N36 Co1 2.145 . S
N36 C37 1.397 . S
N36 C38 1.334 . S
C37 H18 0.929 . S
C37 C34 1.388 . S
C37 N36 1.397 . S
C38 H19 0.929 . S
C38 C35 1.404 . S
C38 N36 1.334 . S
C39 H31 0.930 . S
C39 C34 1.418 . S
C39 C35 1.353 . S
C40 H10 0.930 . S
C40 N41 1.330 1_556 S
C40 C42 1.446 . S
N41 Co0 2.151 . S
N41 C40 1.330 1_554 S
N41 C45 1.418 . S
C42 H21 0.929 . S
C42 C40 1.446 . S
C42 C43 1.332 1_556 S
C43 H23 0.931 . S
C43 C42 1.332 1_554 S
C43 C44 1.267 . S
C44 H12 0.929 . S
C44 C43 1.267 . S
C44 C45 1.251 . S
C45 H15 0.929 . S
C45 N41 1.418 . S
C45 C44 1.251 . S
C46 H13 0.937 . S
C46 C48 1.406 . S
C46 C51 1.261 . S
C47 H14 0.930 . S
C47 N49 1.325 . S
C47 C50 1.357 . S
C48 H16 0.928 1_554 S
C48 C46 1.406 . S
C48 N49 1.261 . S
N49 Co0 2.214 . S
N49 C47 1.325 . S
N49 C48 1.261 . S
C50 H20 0.931 . S
C50 C47 1.357 . S
C50 C51 1.312 . S
C51 H22 0.930 . S
C51 C46 1.261 . S
C51 C50 1.312 . S
C52 O24 1.214 . S
C52 O32 1.234 . S
C53 H25 0.929 . S
C53 C56 1.391 . S
C53 C58 1.391 . S
C54 H26 0.913 1_556 S
C54 C55 1.407 . S
C54 N57 1.390 1_556 S
C55 H27 0.930 . S
C55 C54 1.407 . S
C55 C56 1.392 . S
C56 H28 0.929 . S
C56 C53 1.391 . S
C56 C55 1.392 . S
N57 Co1 2.272 . S
N57 C54 1.390 1_554 S
N57 C58 1.374 1_554 S
C58 H29 0.930 . S
C58 C53 1.391 . S
C58 N57 1.374 1_556 S
Co59 O61 2.143 . S
Co59 O67 2.074 . S
Co59 O70 2.093 . S
Co59 O83 2.097 . S
Co59 N100 2.151 . S
Co59 N108 2.214 . S
Co60 O61 2.160 . S
Co60 O66 2.058 . S
Co60 O76 2.057 . S
Co60 O91 2.037 . S
Co60 N95 2.145 . S
Co60 N116 2.257 . S
O61 Co59 2.143 . S
O61 Co60 2.160 . S
C62 O63 1.278 . S
C62 O70 1.224 . S
O63 C62 1.278 . S
C64 O65 1.245 . S
C64 O76 1.232 . S
O65 C64 1.245 . S
O66 Co60 2.058 . S
O66 C92 1.269 . S
O67 Co59 2.074 . S
O67 C92 1.257 . S
H68 C93 0.930 . S
H69 C99 0.930 . S
O70 Co59 2.093 . S
O70 C62 1.224 . S
H71 C103 0.929 . S
H72 C105 0.930 . S
H73 C106 0.930 . S
H74 C104 0.929 . S
H75 C107 0.928 . S
O76 Co60 2.057 . S
O76 C64 1.232 . S
H77 C96 0.929 . S
H78 C97 0.929 . S
H79 C109 0.931 . S
H80 C101 0.929 . S
H81 C110 0.930 . S
H82 C102 0.931 . S
O83 Co59 2.097 . S
O83 C111 1.214 . S
H84 C112 0.929 . S
H85 C113 0.929 . S
H86 C114 0.930 . S
H87 C115 0.929 . S
H88 C117 0.930 . S
H89 C94 0.930 . S
H90 C98 0.930 . S
O91 Co60 2.037 . S
O91 C111 1.234 . S
C92 O66 1.269 . S
C92 O67 1.257 . S
C93 H68 0.930 . S
C93 C96 1.388 . S
C93 C98 1.418 . S
C94 H89 0.930 . S
C94 C97 1.404 . S
C94 C98 1.353 . S
N95 Co60 2.145 . S
N95 C96 1.397 . S
N95 C97 1.334 . S
C96 H77 0.929 . S
C96 C93 1.388 . S
C96 N95 1.397 . S
C97 H78 0.929 . S
C97 C94 1.404 . S
C97 N95 1.334 . S
C98 H90 0.930 . S
C98 C93 1.418 . S
C98 C94 1.353 . S
C99 H69 0.930 . S
C99 N100 1.330 . S
C99 C101 1.446 . S
N100 Co59 2.151 . S
N100 C99 1.330 . S
N100 C104 1.418 . S
C101 H80 0.929 . S
C101 C99 1.446 . S
C101 C102 1.332 . S
C102 H82 0.931 . S
C102 C101 1.332 . S
C102 C103 1.267 . S
C103 H71 0.929 . S
C103 C102 1.267 . S
C103 C104 1.251 . S
C104 H74 0.929 . S
C104 N100 1.418 . S
C104 C103 1.251 . S
C105 H72 0.930 . S
C105 C107 1.406 . S
C105 C110 1.261 . S
C106 H73 0.930 . S
C106 N108 1.325 . S
C106 C109 1.357 . S
C107 H75 0.928 . S
C107 C105 1.406 . S
C107 N108 1.261 . S
N108 Co59 2.214 . S
N108 C106 1.325 . S
N108 C107 1.261 . S
C109 H79 0.931 . S
C109 C106 1.357 . S
C109 C110 1.312 . S
C110 H81 0.930 . S
C110 C105 1.261 . S
C110 C109 1.312 . S
C111 O83 1.214 . S
C111 O91 1.234 . S
C112 H84 0.929 . S
C112 C115 1.391 . S
C112 C117 1.391 . S
C113 H85 0.929 . S
C113 C114 1.390 . S
C113 N116 1.391 . S
C114 H86 0.930 . S
C114 C113 1.390 . S
C114 C115 1.392 . S
C115 H87 0.929 . S
C115 C112 1.391 . S
C115 C114 1.392 . S
N116 Co60 2.257 . S
N116 C113 1.391 . S
N116 C117 1.388 . S
C117 H88 0.930 . S
C117 C112 1.391 . S
C117 N116 1.388 . S
Co118 O120 2.143 . S
Co118 O126 2.074 . S
Co118 O129 2.093 1_554 S
Co118 O142 2.097 . S
Co118 N159 2.151 . S
Co118 N167 2.214 . S
Co119 O120 2.160 . S
Co119 O125 2.058 . S
Co119 O135 2.057 . S
Co119 O150 2.037 . S
Co119 N154 2.145 . S
Co119 N175 2.272 . S
O120 Co118 2.143 . S
O120 Co119 2.160 . S
C121 O122 1.278 . S
C121 O129 1.224 . S
O122 C121 1.278 . S
C123 O124 1.245 . S
C123 O135 1.232 . S
O124 C123 1.245 . S
O125 Co119 2.058 . S
O125 C151 1.269 . S
O126 Co118 2.074 . S
O126 C151 1.257 . S
H127 C152 0.930 . S
H128 C158 0.930 . S
O129 Co118 2.093 1_556 S
O129 C121 1.224 . S
H130 C162 0.929 . S
H131 C164 0.937 . S
H132 C165 0.930 . S
H133 C163 0.929 . S
H134 C166 0.928 1_556 S
O135 Co119 2.057 . S
O135 C123 1.232 . S
H136 C155 0.929 . S
H137 C156 0.929 . S
H138 C168 0.931 . S
H139 C160 0.929 . S
H140 C169 0.930 . S
H141 C161 0.931 . S
O142 Co118 2.097 . S
O142 C170 1.214 . S
H143 C171 0.929 . S
H144 C172 0.913 1_554 S
H145 C173 0.930 . S
H146 C174 0.929 . S
H147 C176 0.930 . S
H148 C153 0.930 . S
H149 C157 0.930 . S
O150 Co119 2.037 . S
O150 C170 1.234 . S
C151 O125 1.269 . S
C151 O126 1.257 . S
C152 H127 0.930 . S
C152 C155 1.388 . S
C152 C157 1.418 . S
C153 H148 0.930 . S
C153 C156 1.404 . S
C153 C157 1.353 . S
N154 Co119 2.145 . S
N154 C155 1.397 . S
N154 C156 1.334 . S
C155 H136 0.929 . S
C155 C152 1.388 . S
C155 N154 1.397 . S
C156 H137 0.929 . S
C156 C153 1.404 . S
C156 N154 1.334 . S
C157 H149 0.930 . S
C157 C152 1.418 . S
C157 C153 1.353 . S
C158 H128 0.930 . S
C158 N159 1.330 1_556 S
C158 C160 1.446 . S
N159 Co118 2.151 . S
N159 C158 1.330 1_554 S
N159 C163 1.418 . S
C160 H139 0.929 . S
C160 C158 1.446 . S
C160 C161 1.332 1_556 S
C161 H141 0.931 . S
C161 C160 1.332 1_554 S
C161 C162 1.267 . S
C162 H130 0.929 . S
C162 C161 1.267 . S
C162 C163 1.251 . S
C163 H133 0.929 . S
C163 N159 1.418 . S
C163 C162 1.251 . S
C164 H131 0.937 . S
C164 C166 1.406 . S
C164 C169 1.261 . S
C165 H132 0.930 . S
C165 N167 1.325 . S
C165 C168 1.357 . S
C166 H134 0.928 1_554 S
C166 C164 1.406 . S
C166 N167 1.261 . S
N167 Co118 2.214 . S
N167 C165 1.325 . S
N167 C166 1.261 . S
C168 H138 0.931 . S
C168 C165 1.357 . S
C168 C169 1.312 . S
C169 H140 0.930 . S
C169 C164 1.261 . S
C169 C168 1.312 . S
C170 O142 1.214 . S
C170 O150 1.234 . S
C171 H143 0.929 . S
C171 C174 1.391 . S
C171 C176 1.391 . S
C172 H144 0.913 1_556 S
C172 C173 1.407 . S
C172 N175 1.390 1_556 S
C173 H145 0.930 . S
C173 C172 1.407 . S
C173 C174 1.392 . S
C174 H146 0.929 . S
C174 C171 1.391 . S
C174 C173 1.392 . S
N175 Co119 2.272 . S
N175 C172 1.390 1_554 S
N175 C176 1.374 1_554 S
C176 H147 0.930 . S
C176 C171 1.391 . S
C176 N175 1.374 1_556 S
Co177 O179 2.143 . S
Co177 O185 2.074 . S
Co177 O188 2.093 . S
Co177 O201 2.097 . S
Co177 N218 2.151 . S
Co177 N226 2.214 . S
Co178 O179 2.160 . S
Co178 O184 2.058 . S
Co178 O194 2.057 . S
Co178 O209 2.037 . S
Co178 N213 2.145 . S
Co178 N234 2.257 . S
O179 Co177 2.143 . S
O179 Co178 2.160 . S
C180 O181 1.278 . S
C180 O188 1.224 . S
O181 C180 1.278 . S
C182 O183 1.245 . S
C182 O194 1.232 . S
O183 C182 1.245 . S
O184 Co178 2.058 . S
O184 C210 1.269 . S
O185 Co177 2.074 . S
O185 C210 1.257 . S
H186 C211 0.930 . S
H187 C217 0.930 . S
O188 Co177 2.093 . S
O188 C180 1.224 . S
H189 C221 0.929 . S
H190 C223 0.930 . S
H191 C224 0.930 . S
H192 C222 0.929 . S
H193 C225 0.928 . S
O194 Co178 2.057 . S
O194 C182 1.232 . S
H195 C214 0.929 . S
H196 C215 0.929 . S
H197 C227 0.931 . S
H198 C219 0.929 . S
H199 C228 0.930 . S
H200 C220 0.931 . S
O201 Co177 2.097 . S
O201 C229 1.214 . S
H202 C230 0.929 . S
H203 C231 0.929 . S
H204 C232 0.930 . S
H205 C233 0.929 . S
H206 C235 0.930 . S
H207 C212 0.930 . S
H208 C216 0.930 . S
O209 Co178 2.037 . S
O209 C229 1.234 . S
C210 O184 1.269 . S
C210 O185 1.257 . S
C211 H186 0.930 . S
C211 C214 1.388 . S
C211 C216 1.418 . S
C212 H207 0.930 . S
C212 C215 1.404 . S
C212 C216 1.353 . S
N213 Co178 2.145 . S
N213 C214 1.397 . S
N213 C215 1.334 . S
C214 H195 0.929 . S
C214 C211 1.388 . S
C214 N213 1.397 . S
C215 H196 0.929 . S
C215 C212 1.404 . S
C215 N213 1.334 . S
C216 H208 0.930 . S
C216 C211 1.418 . S
C216 C212 1.353 . S
C217 H187 0.930 . S
C217 N218 1.330 . S
C217 C219 1.446 . S
N218 Co177 2.151 . S
N218 C217 1.330 . S
N218 C222 1.418 . S
C219 H198 0.929 . S
C219 C217 1.446 . S
C219 C220 1.332 . S
C220 H200 0.931 . S
C220 C219 1.332 . S
C220 C221 1.267 . S
C221 H189 0.929 . S
C221 C220 1.267 . S
C221 C222 1.251 . S
C222 H192 0.929 . S
C222 N218 1.418 . S
C222 C221 1.251 . S
C223 H190 0.930 . S
C223 C225 1.406 . S
C223 C228 1.261 . S
C224 H191 0.930 . S
C224 N226 1.325 . S
C224 C227 1.357 . S
C225 H193 0.928 . S
C225 C223 1.406 . S
C225 N226 1.261 . S
N226 Co177 2.214 . S
N226 C224 1.325 . S
N226 C225 1.261 . S
C227 H197 0.931 . S
C227 C224 1.357 . S
C227 C228 1.312 . S
C228 H199 0.930 . S
C228 C223 1.261 . S
C228 C227 1.312 . S
C229 O201 1.214 . S
C229 O209 1.234 . S
C230 H202 0.929 . S
C230 C233 1.391 . S
C230 C235 1.391 . S
C231 H203 0.929 . S
C231 C232 1.390 . S
C231 N234 1.391 . S
C232 H204 0.930 . S
C232 C231 1.390 . S
C232 C233 1.392 . S
C233 H205 0.929 . S
C233 C230 1.391 . S
C233 C232 1.392 . S
N234 Co178 2.257 . S
N234 C231 1.391 . S
N234 C235 1.388 . S
C235 H206 0.930 . S
C235 C230 1.391 . S
C235 N234 1.388 . S
Co236 O238 2.143 . S
Co236 O244 2.074 . S
Co236 O247 2.093 . S
Co236 O260 2.097 . S
Co236 N277 2.151 . S
Co236 N285 2.214 . S
Co237 O238 2.160 . S
Co237 O243 2.058 . S
Co237 O253 2.057 . S
Co237 O268 2.037 . S
Co237 N272 2.145 . S
Co237 N293 2.257 . S
O238 Co236 2.143 . S
O238 Co237 2.160 . S
C239 O240 1.278 . S
C239 O247 1.224 . S
O240 C239 1.278 . S
C241 O242 1.245 . S
C241 O253 1.232 . S
O242 C241 1.245 . S
O243 Co237 2.058 . S
O243 C269 1.269 . S
O244 Co236 2.074 . S
O244 C269 1.257 . S
H245 C270 0.930 . S
H246 C276 0.930 . S
O247 Co236 2.093 . S
O247 C239 1.224 . S
H248 C280 0.929 . S
H249 C282 0.930 . S
H250 C283 0.930 . S
H251 C281 0.929 . S
H252 C284 0.928 . S
O253 Co237 2.057 . S
O253 C241 1.232 . S
H254 C273 0.929 . S
H255 C274 0.929 . S
H256 C286 0.931 . S
H257 C278 0.929 . S
H258 C287 0.930 . S
H259 C279 0.931 . S
O260 Co236 2.097 . S
O260 C288 1.214 . S
H261 C289 0.929 . S
H262 C290 0.929 . S
H263 C291 0.930 . S
H264 C292 0.929 . S
H265 C294 0.930 . S
H266 C271 0.930 . S
H267 C275 0.930 . S
O268 Co237 2.037 . S
O268 C288 1.234 . S
C269 O243 1.269 . S
C269 O244 1.257 . S
C270 H245 0.930 . S
C270 C273 1.388 . S
C270 C275 1.418 . S
C271 H266 0.930 . S
C271 C274 1.404 . S
C271 C275 1.353 . S
N272 Co237 2.145 . S
N272 C273 1.397 . S
N272 C274 1.334 . S
C273 H254 0.929 . S
C273 C270 1.388 . S
C273 N272 1.397 . S
C274 H255 0.929 . S
C274 C271 1.404 . S
C274 N272 1.334 . S
C275 H267 0.930 . S
C275 C270 1.418 . S
C275 C271 1.353 . S
C276 H246 0.930 . S
C276 N277 1.330 . S
C276 C278 1.446 . S
N277 Co236 2.151 . S
N277 C276 1.330 . S
N277 C281 1.418 . S
C278 H257 0.929 . S
C278 C276 1.446 . S
C278 C279 1.332 . S
C279 H259 0.931 . S
C279 C278 1.332 . S
C279 C280 1.267 . S
C280 H248 0.929 . S
C280 C279 1.267 . S
C280 C281 1.251 . S
C281 H251 0.929 . S
C281 N277 1.418 . S
C281 C280 1.251 . S
C282 H249 0.930 . S
C282 C284 1.406 . S
C282 C287 1.261 . S
C283 H250 0.930 . S
C283 N285 1.325 . S
C283 C286 1.357 . S
C284 H252 0.928 . S
C284 C282 1.406 . S
C284 N285 1.261 . S
N285 Co236 2.214 . S
N285 C283 1.325 . S
N285 C284 1.261 . S
C286 H256 0.931 . S
C286 C283 1.357 . S
C286 C287 1.312 . S
C287 H258 0.930 . S
C287 C282 1.261 . S
C287 C286 1.312 . S
C288 O260 1.214 . S
C288 O268 1.234 . S
C289 H261 0.929 . S
C289 C292 1.391 . S
C289 C294 1.391 . S
C290 H262 0.929 . S
C290 C291 1.390 . S
C290 N293 1.391 . S
C291 H263 0.930 . S
C291 C290 1.390 . S
C291 C292 1.392 . S
C292 H264 0.929 . S
C292 C289 1.391 . S
C292 C291 1.392 . S
N293 Co237 2.257 . S
N293 C290 1.391 . S
N293 C294 1.388 . S
C294 H265 0.930 . S
C294 C289 1.391 . S
C294 N293 1.388 . S
Co295 O297 2.143 . S
Co295 O303 2.074 1_554 S
Co295 O306 2.093 . S
Co295 O319 2.097 . S
Co295 N336 2.151 . S
Co295 N344 2.214 . S
Co296 O297 2.160 1_556 S
Co296 O302 2.058 . S
Co296 O312 2.057 . S
Co296 O327 2.037 . S
Co296 N331 2.145 . S
Co296 N352 2.257 1_556 S
O297 Co295 2.143 . S
O297 Co296 2.160 1_554 S
C298 O299 1.278 . S
C298 O306 1.224 . S
O299 C298 1.278 . S
C300 O301 1.245 . S
C300 O312 1.232 1_554 S
O301 C300 1.245 . S
O302 Co296 2.058 . S
O302 C328 1.269 . S
O303 Co295 2.074 1_556 S
O303 C328 1.257 . S
H304 C329 0.930 . S
H305 C335 0.930 . S
O306 Co295 2.093 . S
O306 C298 1.224 . S
H307 C339 0.929 . S
H308 C341 0.930 . S
H309 C342 0.930 . S
H310 C340 0.929 . S
H311 C343 0.928 . S
O312 Co296 2.057 . S
O312 C300 1.232 1_556 S
H313 C332 0.929 . S
H314 C333 0.929 . S
H315 C345 0.931 . S
H316 C337 0.929 . S
H317 C346 0.930 1_556 S
H318 C338 0.931 . S
O319 Co295 2.097 . S
O319 C347 1.214 . S
H320 C348 0.929 . S
H321 C349 0.929 . S
H322 C350 0.930 . S
H323 C351 0.929 . S
H324 C353 0.930 . S
H325 C330 0.930 . S
H326 C334 0.930 . S
O327 Co296 2.037 . S
O327 C347 1.234 1_556 S
C328 O302 1.269 . S
C328 O303 1.257 . S
C329 H304 0.930 . S
C329 C332 1.388 . S
C329 C334 1.418 . S
C330 H325 0.930 . S
C330 C333 1.404 . S
C330 C334 1.353 . S
N331 Co296 2.145 . S
N331 C332 1.397 . S
N331 C333 1.334 . S
C332 H313 0.929 . S
C332 C329 1.388 . S
C332 N331 1.397 . S
C333 H314 0.929 . S
C333 C330 1.404 . S
C333 N331 1.334 . S
C334 H326 0.930 . S
C334 C329 1.418 . S
C334 C330 1.353 . S
C335 H305 0.930 . S
C335 N336 1.330 . S
C335 C337 1.446 . S
N336 Co295 2.151 . S
N336 C335 1.330 . S
N336 C340 1.418 1_554 S
C337 H316 0.929 . S
C337 C335 1.446 . S
C337 C338 1.332 . S
C338 H318 0.931 . S
C338 C337 1.332 . S
C338 C339 1.267 1_554 S
C339 H307 0.929 . S
C339 C338 1.267 1_556 S
C339 C340 1.251 . S
C340 H310 0.929 . S
C340 N336 1.418 1_556 S
C340 C339 1.251 . S
C341 H308 0.930 . S
C341 C343 1.406 . S
C341 C346 1.261 . S
C342 H309 0.930 . S
C342 N344 1.325 1_556 S
C342 C345 1.357 . S
C343 H311 0.928 . S
C343 C341 1.406 . S
C343 N344 1.261 . S
N344 Co295 2.214 . S
N344 C342 1.325 1_554 S
N344 C343 1.261 . S
C345 H315 0.931 . S
C345 C342 1.357 . S
C345 C346 1.312 1_556 S
C346 H317 0.930 1_554 S
C346 C341 1.261 . S
C346 C345 1.312 1_554 S
C347 O319 1.214 . S
C347 O327 1.234 1_554 S
C348 H320 0.929 . S
C348 C351 1.391 . S
C348 C353 1.391 . S
C349 H321 0.929 . S
C349 C350 1.390 . S
C349 N352 1.391 . S
C350 H322 0.930 . S
C350 C349 1.390 . S
C350 C351 1.392 . S
C351 H323 0.929 . S
C351 C348 1.391 . S
C351 C350 1.392 . S
N352 Co296 2.257 1_554 S
N352 C349 1.391 . S
N352 C353 1.388 . S
C353 H324 0.930 . S
C353 C348 1.391 . S
C353 N352 1.388 . S
Co354 O356 2.143 . S
Co354 O362 2.074 . S
Co354 O365 2.093 . S
Co354 O378 2.097 . S
Co354 N395 2.151 . S
Co354 N403 2.214 . S
Co355 O356 2.160 . S
Co355 O361 2.058 . S
Co355 O371 2.057 . S
Co355 O386 2.037 . S
Co355 N390 2.145 . S
Co355 N411 2.257 . S
O356 Co354 2.143 . S
O356 Co355 2.160 . S
C357 O358 1.278 . S
C357 O365 1.224 . S
O358 C357 1.278 . S
C359 O360 1.245 . S
C359 O371 1.232 . S
O360 C359 1.245 . S
O361 Co355 2.058 . S
O361 C387 1.269 . S
O362 Co354 2.074 . S
O362 C387 1.257 . S
H363 C388 0.930 . S
H364 C394 0.930 . S
O365 Co354 2.093 . S
O365 C357 1.224 . S
H366 C398 0.929 . S
H367 C400 0.930 . S
H368 C401 0.930 . S
H369 C399 0.929 . S
H370 C402 0.928 . S
O371 Co355 2.057 . S
O371 C359 1.232 . S
H372 C391 0.929 . S
H373 C392 0.929 . S
H374 C404 0.931 . S
H375 C396 0.929 . S
H376 C405 0.930 . S
H377 C397 0.931 . S
O378 Co354 2.097 . S
O378 C406 1.214 . S
H379 C407 0.929 . S
H380 C408 0.929 . S
H381 C409 0.930 . S
H382 C410 0.929 . S
H383 C412 0.930 . S
H384 C389 0.930 . S
H385 C393 0.930 . S
O386 Co355 2.037 . S
O386 C406 1.234 . S
C387 O361 1.269 . S
C387 O362 1.257 . S
C388 H363 0.930 . S
C388 C391 1.388 . S
C388 C393 1.418 . S
C389 H384 0.930 . S
C389 C392 1.404 . S
C389 C393 1.353 . S
N390 Co355 2.145 . S
N390 C391 1.397 . S
N390 C392 1.334 . S
C391 H372 0.929 . S
C391 C388 1.388 . S
C391 N390 1.397 . S
C392 H373 0.929 . S
C392 C389 1.404 . S
C392 N390 1.334 . S
C393 H385 0.930 . S
C393 C388 1.418 . S
C393 C389 1.353 . S
C394 H364 0.930 . S
C394 N395 1.330 . S
C394 C396 1.446 . S
N395 Co354 2.151 . S
N395 C394 1.330 . S
N395 C399 1.418 . S
C396 H375 0.929 . S
C396 C394 1.446 . S
C396 C397 1.332 . S
C397 H377 0.931 . S
C397 C396 1.332 . S
C397 C398 1.267 . S
C398 H366 0.929 . S
C398 C397 1.267 . S
C398 C399 1.251 . S
C399 H369 0.929 . S
C399 N395 1.418 . S
C399 C398 1.251 . S
C400 H367 0.930 . S
C400 C402 1.406 . S
C400 C405 1.261 . S
C401 H368 0.930 . S
C401 N403 1.325 . S
C401 C404 1.357 . S
C402 H370 0.928 . S
C402 C400 1.406 . S
C402 N403 1.261 . S
N403 Co354 2.214 . S
N403 C401 1.325 . S
N403 C402 1.261 . S
C404 H374 0.931 . S
C404 C401 1.357 . S
C404 C405 1.312 . S
C405 H376 0.930 . S
C405 C400 1.261 . S
C405 C404 1.312 . S
C406 O378 1.214 . S
C406 O386 1.234 . S
C407 H379 0.929 . S
C407 C410 1.391 . S
C407 C412 1.391 . S
C408 H380 0.929 . S
C408 C409 1.390 . S
C408 N411 1.391 . S
C409 H381 0.930 . S
C409 C408 1.390 . S
C409 C410 1.392 . S
C410 H382 0.929 . S
C410 C407 1.391 . S
C410 C409 1.392 . S
N411 Co355 2.257 . S
N411 C408 1.391 . S
N411 C412 1.388 . S
C412 H383 0.930 . S
C412 C407 1.391 . S
C412 N411 1.388 . S
Co413 O415 2.143 . S
Co413 O421 2.074 1_554 S
Co413 O424 2.093 . S
Co413 O437 2.097 . S
Co413 N454 2.151 . S
Co413 N462 2.214 . S
Co414 O415 2.160 1_556 S
Co414 O420 2.058 . S
Co414 O430 2.057 . S
Co414 O445 2.037 . S
Co414 N449 2.145 . S
Co414 N470 2.257 1_556 S
O415 Co413 2.143 . S
O415 Co414 2.160 1_554 S
C416 O417 1.278 . S
C416 O424 1.224 . S
O417 C416 1.278 . S
C418 O419 1.245 . S
C418 O430 1.232 1_554 S
O419 C418 1.245 . S
O420 Co414 2.058 . S
O420 C446 1.269 . S
O421 Co413 2.074 1_556 S
O421 C446 1.257 . S
H422 C447 0.930 . S
H423 C453 0.930 . S
O424 Co413 2.093 . S
O424 C416 1.224 . S
H425 C457 0.929 . S
H426 C459 0.930 . S
H427 C460 0.930 . S
H428 C458 0.929 . S
H429 C461 0.928 . S
O430 Co414 2.057 . S
O430 C418 1.232 1_556 S
H431 C450 0.929 . S
H432 C451 0.929 . S
H433 C463 0.931 . S
H434 C455 0.929 . S
H435 C464 0.930 1_556 S
H436 C456 0.931 . S
O437 Co413 2.097 . S
O437 C465 1.214 . S
H438 C466 0.929 . S
H439 C467 0.929 . S
H440 C468 0.930 . S
H441 C469 0.929 . S
H442 C471 0.930 . S
H443 C448 0.930 . S
H444 C452 0.930 . S
O445 Co414 2.037 . S
O445 C465 1.234 1_556 S
C446 O420 1.269 . S
C446 O421 1.257 . S
C447 H422 0.930 . S
C447 C450 1.388 . S
C447 C452 1.418 . S
C448 H443 0.930 . S
C448 C451 1.404 . S
C448 C452 1.353 . S
N449 Co414 2.145 . S
N449 C450 1.397 . S
N449 C451 1.334 . S
C450 H431 0.929 . S
C450 C447 1.388 . S
C450 N449 1.397 . S
C451 H432 0.929 . S
C451 C448 1.404 . S
C451 N449 1.334 . S
C452 H444 0.930 . S
C452 C447 1.418 . S
C452 C448 1.353 . S
C453 H423 0.930 . S
C453 N454 1.330 . S
C453 C455 1.446 . S
N454 Co413 2.151 . S
N454 C453 1.330 . S
N454 C458 1.418 1_554 S
C455 H434 0.929 . S
C455 C453 1.446 . S
C455 C456 1.332 . S
C456 H436 0.931 . S
C456 C455 1.332 . S
C456 C457 1.267 1_554 S
C457 H425 0.929 . S
C457 C456 1.267 1_556 S
C457 C458 1.251 . S
C458 H428 0.929 . S
C458 N454 1.418 1_556 S
C458 C457 1.251 . S
C459 H426 0.930 . S
C459 C461 1.406 . S
C459 C464 1.261 . S
C460 H427 0.930 . S
C460 N462 1.325 1_556 S
C460 C463 1.357 . S
C461 H429 0.928 . S
C461 C459 1.406 . S
C461 N462 1.261 . S
N462 Co413 2.214 . S
N462 C460 1.325 1_554 S
N462 C461 1.261 . S
C463 H433 0.931 . S
C463 C460 1.357 . S
C463 C464 1.312 1_556 S
C464 H435 0.930 1_554 S
C464 C459 1.261 . S
C464 C463 1.312 1_554 S
C465 O437 1.214 . S
C465 O445 1.234 1_554 S
C466 H438 0.929 . S
C466 C469 1.391 . S
C466 C471 1.391 . S
C467 H439 0.929 . S
C467 C468 1.390 . S
C467 N470 1.391 . S
C468 H440 0.930 . S
C468 C467 1.390 . S
C468 C469 1.392 . S
C469 H441 0.929 . S
C469 C466 1.391 . S
C469 C468 1.392 . S
N470 Co414 2.257 1_554 S
N470 C467 1.391 . S
N470 C471 1.388 . S
C471 H442 0.930 . S
C471 C466 1.391 . S
C471 N470 1.388 . S
C472 C473 1.391 . S
C472 C474 1.394 . S
C472 H488 0.931 . S
C473 C472 1.391 . S
C473 C477 1.376 . S
C474 C472 1.394 . S
C474 C475 1.369 . S
C474 C478 1.531 . S
C475 C474 1.369 . S
C475 C476 1.410 . S
C475 C483 1.503 . S
C476 C475 1.410 . S
C476 C477 1.392 . S
C476 C479 1.511 . S
C477 C473 1.376 . S
C477 C476 1.392 . S
C477 H489 0.929 . S
C478 C474 1.531 . S
C478 H490 0.960 . S
C478 H491 0.962 . S
C478 H492 0.960 . S
C479 C476 1.511 . S
C479 H493 0.961 . S
C479 H494 0.961 . S
C479 H495 0.961 . S
C480 C481 1.370 . S
C480 C482 1.363 . S
C480 H496 0.931 . S
C481 C480 1.370 . S
C481 C485 1.408 . S
C482 C480 1.363 . S
C482 C483 1.370 . S
C482 C486 1.524 . S
C483 C475 1.503 . S
C483 C482 1.370 . S
C483 C484 1.403 . S
C484 C483 1.403 . S
C484 C485 1.404 . S
C484 C487 1.539 . S
C485 C481 1.408 . S
C485 C484 1.404 . S
C485 H497 0.930 . S
C486 C482 1.524 . S
C486 H498 0.956 . S
C486 H499 0.961 . S
C486 H500 0.961 . S
C487 C484 1.539 . S
C487 H501 0.958 . S
C487 H502 0.961 . S
C487 H503 0.960 . S
H488 C472 0.931 . S
H489 C477 0.929 . S
H490 C478 0.960 . S
H491 C478 0.962 . S
H492 C478 0.960 . S
H493 C479 0.961 . S
H494 C479 0.961 . S
H495 C479 0.961 . S
H496 C480 0.931 . S
H497 C485 0.930 . S
H498 C486 0.956 . S
H499 C486 0.961 . S
H500 C486 0.961 . S
H501 C487 0.958 . S
H502 C487 0.961 . S
H503 C487 0.960 . S
C504 C505 1.391 . S
C504 C506 1.394 . S
C504 H520 0.931 . S
C505 C504 1.391 . S
C505 C509 1.376 . S
C506 C504 1.394 . S
C506 C507 1.369 . S
C506 C510 1.531 . S
C507 C506 1.369 . S
C507 C508 1.410 . S
C507 C515 1.503 . S
C508 C507 1.410 . S
C508 C509 1.392 . S
C508 C511 1.511 . S
C509 C505 1.376 . S
C509 C508 1.392 . S
C509 H521 0.929 . S
C510 C506 1.531 . S
C510 H522 0.960 . S
C510 H523 0.962 . S
C510 H524 0.960 . S
C511 C508 1.511 . S
C511 H525 0.961 . S
C511 H526 0.961 . S
C511 H527 0.961 . S
C512 C513 1.370 . S
C512 C514 1.363 . S
C512 H528 0.931 . S
C513 C512 1.370 . S
C513 C517 1.408 . S
C514 C512 1.363 . S
C514 C515 1.370 . S
C514 C518 1.524 . S
C515 C507 1.503 . S
C515 C514 1.370 . S
C515 C516 1.403 . S
C516 C515 1.403 . S
C516 C517 1.404 . S
C516 C519 1.539 . S
C517 C513 1.408 . S
C517 C516 1.404 . S
C517 H529 0.930 . S
C518 C514 1.524 . S
C518 H530 0.956 . S
C518 H531 0.961 . S
C518 H532 0.961 . S
C519 C516 1.539 . S
C519 H533 0.958 . S
C519 H534 0.961 . S
C519 H535 0.960 . S
H520 C504 0.931 . S
H521 C509 0.929 . S
H522 C510 0.960 . S
H523 C510 0.962 . S
H524 C510 0.960 . S
H525 C511 0.961 . S
H526 C511 0.961 . S
H527 C511 0.961 . S
H528 C512 0.931 . S
H529 C517 0.930 . S
H530 C518 0.956 . S
H531 C518 0.961 . S
H532 C518 0.961 . S
H533 C519 0.958 . S
H534 C519 0.961 . S
H535 C519 0.960 . S
C536 C537 1.391 . S
C536 C538 1.394 . S
C536 H552 0.931 . S
C537 C536 1.391 . S
C537 C541 1.376 . S
C538 C536 1.394 . S
C538 C539 1.369 . S
C538 C542 1.531 . S
C539 C538 1.369 . S
C539 C540 1.410 . S
C539 C547 1.503 . S
C540 C539 1.410 . S
C540 C541 1.392 . S
C540 C543 1.511 . S
C541 C537 1.376 . S
C541 C540 1.392 . S
C541 H553 0.929 . S
C542 C538 1.531 . S
C542 H554 0.960 . S
C542 H555 0.962 . S
C542 H556 0.960 . S
C543 C540 1.511 . S
C543 H557 0.961 . S
C543 H558 0.961 . S
C543 H559 0.961 . S
C544 C545 1.370 . S
C544 C546 1.363 . S
C544 H560 0.931 . S
C545 C544 1.370 . S
C545 C549 1.408 . S
C546 C544 1.363 . S
C546 C547 1.370 . S
C546 C550 1.524 . S
C547 C539 1.503 . S
C547 C546 1.370 . S
C547 C548 1.403 . S
C548 C547 1.403 . S
C548 C549 1.404 . S
C548 C551 1.539 . S
C549 C545 1.408 . S
C549 C548 1.404 . S
C549 H561 0.930 . S
C550 C546 1.524 . S
C550 H562 0.956 . S
C550 H563 0.961 . S
C550 H564 0.961 . S
C551 C548 1.539 . S
C551 H565 0.958 . S
C551 H566 0.961 . S
C551 H567 0.960 . S
H552 C536 0.931 . S
H553 C541 0.929 . S
H554 C542 0.960 . S
H555 C542 0.962 . S
H556 C542 0.960 . S
H557 C543 0.961 . S
H558 C543 0.961 . S
H559 C543 0.961 . S
H560 C544 0.931 . S
H561 C549 0.930 . S
H562 C550 0.956 . S
H563 C550 0.961 . S
H564 C550 0.961 . S
H565 C551 0.958 . S
H566 C551 0.961 . S
H567 C551 0.960 . S
C568 C569 1.391 . S
C568 C570 1.394 . S
C568 H584 0.931 . S
C569 C568 1.391 . S
C569 C573 1.376 . S
C570 C568 1.394 . S
C570 C571 1.369 . S
C570 C574 1.531 . S
C571 C570 1.369 . S
C571 C572 1.410 . S
C571 C579 1.503 . S
C572 C571 1.410 . S
C572 C573 1.392 . S
C572 C575 1.511 . S
C573 C569 1.376 . S
C573 C572 1.392 . S
C573 H585 0.929 . S
C574 C570 1.531 . S
C574 H586 0.960 . S
C574 H587 0.962 . S
C574 H588 0.960 . S
C575 C572 1.511 . S
C575 H589 0.961 . S
C575 H590 0.961 . S
C575 H591 0.961 . S
C576 C577 1.370 . S
C576 C578 1.363 . S
C576 H592 0.931 . S
C577 C576 1.370 . S
C577 C581 1.408 . S
C578 C576 1.363 . S
C578 C579 1.370 . S
C578 C582 1.524 . S
C579 C571 1.503 . S
C579 C578 1.370 . S
C579 C580 1.403 . S
C580 C579 1.403 . S
C580 C581 1.404 . S
C580 C583 1.539 . S
C581 C577 1.408 . S
C581 C580 1.404 . S
C581 H593 0.930 . S
C582 C578 1.524 . S
C582 H594 0.956 . S
C582 H595 0.961 . S
C582 H596 0.961 . S
C583 C580 1.539 . S
C583 H597 0.958 . S
C583 H598 0.961 . S
C583 H599 0.960 . S
H584 C568 0.931 . S
H585 C573 0.929 . S
H586 C574 0.960 . S
H587 C574 0.962 . S
H588 C574 0.960 . S
H589 C575 0.961 . S
H590 C575 0.961 . S
H591 C575 0.961 . S
H592 C576 0.931 . S
H593 C581 0.930 . S
H594 C582 0.956 . S
H595 C582 0.961 . S
H596 C582 0.961 . S
H597 C583 0.958 . S
H598 C583 0.961 . S
H599 C583 0.960 . S
C600 C601 1.391 . S
C600 C602 1.394 . S
C600 H616 0.931 . S
C601 C600 1.391 . S
C601 C605 1.376 . S
C602 C600 1.394 . S
C602 C603 1.369 . S
C602 C606 1.531 . S
C603 C602 1.369 . S
C603 C604 1.410 . S
C603 C611 1.503 . S
C604 C603 1.410 . S
C604 C605 1.392 . S
C604 C607 1.511 . S
C605 C601 1.376 . S
C605 C604 1.392 . S
C605 H617 0.929 . S
C606 C602 1.531 . S
C606 H618 0.960 . S
C606 H619 0.962 . S
C606 H620 0.960 . S
C607 C604 1.511 . S
C607 H621 0.961 . S
C607 H622 0.961 . S
C607 H623 0.961 . S
C608 C609 1.370 . S
C608 C610 1.363 . S
C608 H624 0.931 . S
C609 C608 1.370 . S
C609 C613 1.408 . S
C610 C608 1.363 . S
C610 C611 1.370 . S
C610 C614 1.524 . S
C611 C603 1.503 . S
C611 C610 1.370 . S
C611 C612 1.403 . S
C612 C611 1.403 . S
C612 C613 1.404 . S
C612 C615 1.539 . S
C613 C609 1.408 . S
C613 C612 1.404 . S
C613 H625 0.930 . S
C614 C610 1.524 . S
C614 H626 0.956 . S
C614 H627 0.961 . S
C614 H628 0.961 . S
C615 C612 1.539 . S
C615 H629 0.958 . S
C615 H630 0.961 . S
C615 H631 0.960 . S
H616 C600 0.931 . S
H617 C605 0.929 . S
H618 C606 0.960 . S
H619 C606 0.962 . S
H620 C606 0.960 . S
H621 C607 0.961 . S
H622 C607 0.961 . S
H623 C607 0.961 . S
H624 C608 0.931 . S
H625 C613 0.930 . S
H626 C614 0.956 . S
H627 C614 0.961 . S
H628 C614 0.961 . S
H629 C615 0.958 . S
H630 C615 0.961 . S
H631 C615 0.960 . S
C632 C633 1.391 . S
C632 C634 1.394 . S
C632 H648 0.931 . S
C633 C632 1.391 . S
C633 C637 1.376 . S
C634 C632 1.394 . S
C634 C635 1.369 . S
C634 C638 1.531 . S
C635 C634 1.369 . S
C635 C636 1.410 . S
C635 C643 1.503 . S
C636 C635 1.410 . S
C636 C637 1.392 . S
C636 C639 1.511 . S
C637 C633 1.376 . S
C637 C636 1.392 . S
C637 H649 0.929 . S
C638 C634 1.531 . S
C638 H650 0.960 . S
C638 H651 0.962 . S
C638 H652 0.960 . S
C639 C636 1.511 . S
C639 H653 0.961 . S
C639 H654 0.961 . S
C639 H655 0.961 . S
C640 C641 1.370 . S
C640 C642 1.363 . S
C640 H656 0.931 . S
C641 C640 1.370 . S
C641 C645 1.408 . S
C642 C640 1.363 . S
C642 C643 1.370 . S
C642 C646 1.524 . S
C643 C635 1.503 . S
C643 C642 1.370 . S
C643 C644 1.403 . S
C644 C643 1.403 . S
C644 C645 1.404 . S
C644 C647 1.539 . S
C645 C641 1.408 . S
C645 C644 1.404 . S
C645 H657 0.930 . S
C646 C642 1.524 . S
C646 H658 0.956 . S
C646 H659 0.961 . S
C646 H660 0.961 . S
C647 C644 1.539 . S
C647 H661 0.958 . S
C647 H662 0.961 . S
C647 H663 0.960 . S
H648 C632 0.931 . S
H649 C637 0.929 . S
H650 C638 0.960 . S
H651 C638 0.962 . S
H652 C638 0.960 . S
H653 C639 0.961 . S
H654 C639 0.961 . S
H655 C639 0.961 . S
H656 C640 0.931 . S
H657 C645 0.930 . S
H658 C646 0.956 . S
H659 C646 0.961 . S
H660 C646 0.961 . S
H661 C647 0.958 . S
H662 C647 0.961 . S
H663 C647 0.960 . S
C664 C665 1.391 . S
C664 C666 1.394 . S
C664 H680 0.931 . S
C665 C664 1.391 . S
C665 C669 1.376 . S
C666 C664 1.394 . S
C666 C667 1.369 . S
C666 C670 1.531 . S
C667 C666 1.369 . S
C667 C668 1.410 . S
C667 C675 1.503 . S
C668 C667 1.410 . S
C668 C669 1.392 . S
C668 C671 1.511 . S
C669 C665 1.376 . S
C669 C668 1.392 . S
C669 H681 0.929 . S
C670 C666 1.531 . S
C670 H682 0.960 . S
C670 H683 0.962 . S
C670 H684 0.960 . S
C671 C668 1.511 . S
C671 H685 0.961 . S
C671 H686 0.961 . S
C671 H687 0.961 . S
C672 C673 1.370 . S
C672 C674 1.363 . S
C672 H688 0.931 . S
C673 C672 1.370 . S
C673 C677 1.408 . S
C674 C672 1.363 . S
C674 C675 1.370 . S
C674 C678 1.524 . S
C675 C667 1.503 . S
C675 C674 1.370 . S
C675 C676 1.403 . S
C676 C675 1.403 . S
C676 C677 1.404 . S
C676 C679 1.539 . S
C677 C673 1.408 . S
C677 C676 1.404 . S
C677 H689 0.930 . S
C678 C674 1.524 . S
C678 H690 0.956 . S
C678 H691 0.961 . S
C678 H692 0.961 . S
C679 C676 1.539 . S
C679 H693 0.958 . S
C679 H694 0.961 . S
C679 H695 0.960 . S
H680 C664 0.931 . S
H681 C669 0.929 . S
H682 C670 0.960 . S
H683 C670 0.962 . S
H684 C670 0.960 . S
H685 C671 0.961 . S
H686 C671 0.961 . S
H687 C671 0.961 . S
H688 C672 0.931 . S
H689 C677 0.930 . S
H690 C678 0.956 . S
H691 C678 0.961 . S
H692 C678 0.961 . S
H693 C679 0.958 . S
H694 C679 0.961 . S
H695 C679 0.960 . S
C696 C697 1.391 . S
C696 C698 1.394 . S
C696 H712 0.931 . S
C697 C696 1.391 . S
C697 C701 1.376 . S
C698 C696 1.394 . S
C698 C699 1.369 . S
C698 C702 1.531 . S
C699 C698 1.369 . S
C699 C700 1.410 . S
C699 C707 1.503 . S
C700 C699 1.410 . S
C700 C701 1.392 . S
C700 C703 1.511 . S
C701 C697 1.376 . S
C701 C700 1.392 . S
C701 H713 0.929 . S
C702 C698 1.531 . S
C702 H714 0.960 . S
C702 H715 0.962 . S
C702 H716 0.960 . S
C703 C700 1.511 . S
C703 H717 0.961 . S
C703 H718 0.961 . S
C703 H719 0.961 . S
C704 C705 1.370 . S
C704 C706 1.363 . S
C704 H720 0.931 . S
C705 C704 1.370 . S
C705 C709 1.408 . S
C706 C704 1.363 . S
C706 C707 1.370 . S
C706 C710 1.524 . S
C707 C699 1.503 . S
C707 C706 1.370 . S
C707 C708 1.403 . S
C708 C707 1.403 . S
C708 C709 1.404 . S
C708 C711 1.539 . S
C709 C705 1.408 . S
C709 C708 1.404 . S
C709 H721 0.930 . S
C710 C706 1.524 . S
C710 H722 0.956 . S
C710 H723 0.961 . S
C710 H724 0.961 . S
C711 C708 1.539 . S
C711 H725 0.958 . S
C711 H726 0.961 . S
C711 H727 0.960 . S
H712 C696 0.931 . S
H713 C701 0.929 . S
H714 C702 0.960 . S
H715 C702 0.962 . S
H716 C702 0.960 . S
H717 C703 0.961 . S
H718 C703 0.961 . S
H719 C703 0.961 . S
H720 C704 0.931 . S
H721 C709 0.930 . S
H722 C710 0.956 . S
H723 C710 0.961 . S
H724 C710 0.961 . S
H725 C711 0.958 . S
H726 C711 0.961 . S
H727 C711 0.960 . S
C728 C729 1.391 . S
C728 C730 1.394 . S
C728 H744 0.931 1_554 S
C729 C728 1.391 . S
C729 C733 1.376 . S
C730 C728 1.394 . S
C730 C731 1.390 . S
C730 C734 1.509 1_554 S
C731 C730 1.390 . S
C731 C732 1.410 . S
C731 C739 1.503 1_655 S
C732 C731 1.410 . S
C732 C733 1.392 . S
C732 C735 1.511 . S
C733 C729 1.376 . S
C733 C732 1.392 . S
C733 H745 0.929 . S
C734 C730 1.509 1_556 S
C734 H746 0.960 1_655 S
C734 H747 0.962 . S
C734 H748 0.960 . S
C735 C732 1.511 . S
C735 H749 0.961 . S
C735 H750 0.961 1_655 S
C735 H751 0.961 1_655 S
C736 C737 1.370 . S
C736 C738 1.363 . S
C736 H752 0.931 . S
C737 C736 1.370 . S
C737 C741 1.408 . S
C738 C736 1.363 . S
C738 C739 1.370 . S
C738 C742 1.524 1_455 S
C739 C731 1.503 1_455 S
C739 C738 1.370 . S
C739 C740 1.403 . S
C740 C739 1.403 . S
C740 C741 1.404 . S
C740 C743 1.539 . S
C741 C737 1.408 . S
C741 C740 1.404 . S
C741 H753 0.930 . S
C742 C738 1.524 1_655 S
C742 H754 0.956 . S
C742 H755 0.961 . S
C742 H756 0.961 1_655 S
C743 C740 1.539 . S
C743 H757 0.958 1_554 S
C743 H758 0.961 . S
C743 H759 0.960 . S
H744 C728 0.931 1_556 S
H745 C733 0.929 . S
H746 C734 0.960 1_455 S
H747 C734 0.962 . S
H748 C734 0.960 . S
H749 C735 0.961 . S
H750 C735 0.961 1_455 S
H751 C735 0.961 1_455 S
H752 C736 0.931 . S
H753 C741 0.930 . S
H754 C742 0.956 . S
H755 C742 0.961 . S
H756 C742 0.961 1_455 S
H757 C743 0.958 1_556 S
H758 C743 0.961 . S
H759 C743 0.960 . S
C760 C761 1.391 . S
C760 C762 1.394 . S
C760 H776 0.931 . S
C761 C760 1.391 . S
C761 C765 1.376 . S
C762 C760 1.394 . S
C762 C763 1.369 . S
C762 C766 1.531 . S
C763 C762 1.369 . S
C763 C764 1.410 . S
C763 C771 1.503 1_565 S
C764 C763 1.410 . S
C764 C765 1.392 . S
C764 C767 1.490 1_565 S
C765 C761 1.376 . S
C765 C764 1.392 . S
C765 H777 0.929 . S
C766 C762 1.531 . S
C766 H778 0.960 . S
C766 H779 0.962 . S
C766 H780 0.960 . S
C767 C764 1.490 1_545 S
C767 H781 0.948 1_545 S
C767 H782 0.984 . S
C767 H783 0.972 . S
C768 C769 1.370 . S
C768 C770 1.363 . S
C768 H784 0.931 . S
C769 C768 1.370 . S
C769 C773 1.408 . S
C770 C768 1.363 . S
C770 C771 1.370 . S
C770 C774 1.524 . S
C771 C763 1.503 1_545 S
C771 C770 1.370 . S
C771 C772 1.403 . S
C772 C771 1.403 . S
C772 C773 1.404 . S
C772 C775 1.539 . S
C773 C769 1.408 . S
C773 C772 1.404 . S
C773 H785 0.930 . S
C774 C770 1.524 . S
C774 H786 0.956 1_545 S
C774 H787 0.961 1_545 S
C774 H788 0.961 . S
C775 C772 1.539 . S
C775 H789 0.958 . S
C775 H790 0.961 . S
C775 H791 0.960 . S
H776 C760 0.931 . S
H777 C765 0.929 . S
H778 C766 0.960 . S
H779 C766 0.962 . S
H780 C766 0.960 . S
H781 C767 0.948 1_565 S
H782 C767 0.984 . S
H783 C767 0.972 . S
H784 C768 0.931 . S
H785 C773 0.930 . S
H786 C774 0.956 1_565 S
H787 C774 0.961 1_565 S
H788 C774 0.961 . S
H789 C775 0.958 . S
H790 C775 0.961 . S
H791 C775 0.960 . S
C792 C793 1.391 . S
C792 C794 1.394 . S
C792 H808 0.931 . S
C793 C792 1.391 . S
C793 C797 1.376 . S
C794 C792 1.394 . S
C794 C795 1.369 . S
C794 C798 1.531 1_455 S
C795 C794 1.369 . S
C795 C796 1.410 . S
C795 C803 1.503 1_455 S
C796 C795 1.410 . S
C796 C797 1.392 . S
C796 C799 1.511 . S
C797 C793 1.376 . S
C797 C796 1.392 . S
C797 H809 0.929 . S
C798 C794 1.531 1_655 S
C798 H810 0.960 . S
C798 H811 0.962 . S
C798 H812 0.960 1_655 S
C799 C796 1.511 . S
C799 H813 0.961 . S
C799 H814 0.961 . S
C799 H815 0.961 . S
C800 C801 1.370 . S
C800 C802 1.363 . S
C800 H816 0.931 . S
C801 C800 1.370 . S
C801 C805 1.408 . S
C802 C800 1.363 . S
C802 C803 1.370 . S
C802 C806 1.524 . S
C803 C795 1.503 1_655 S
C803 C802 1.370 . S
C803 C804 1.403 . S
C804 C803 1.403 . S
C804 C805 1.404 . S
C804 C807 1.539 . S
C805 C801 1.408 . S
C805 C804 1.404 . S
C805 H817 0.930 . S
C806 C802 1.524 . S
C806 H818 0.956 . S
C806 H819 0.938 1_655 S
C806 H820 0.961 . S
C807 C804 1.539 . S
C807 H821 0.958 . S
C807 H822 0.961 . S
C807 H823 0.960 1_655 S
H808 C792 0.931 . S
H809 C797 0.929 . S
H810 C798 0.960 . S
H811 C798 0.962 . S
H812 C798 0.960 1_455 S
H813 C799 0.961 . S
H814 C799 0.961 . S
H815 C799 0.961 . S
H816 C800 0.931 . S
H817 C805 0.930 . S
H818 C806 0.956 . S
H819 C806 0.938 1_455 S
H820 C806 0.961 . S
H821 C807 0.958 . S
H822 C807 0.961 . S
H823 C807 0.960 1_455 S
C824 C825 1.391 . S
C824 C826 1.394 . S
C824 H840 0.931 . S
C825 C824 1.391 . S
C825 C829 1.376 1_554 S
C826 C824 1.394 . S
C826 C827 1.369 . S
C826 C830 1.531 . S
C827 C826 1.369 . S
C827 C828 1.409 1_554 S
C827 C835 1.503 1_565 S
C828 C827 1.409 1_556 S
C828 C829 1.392 . S
C828 C831 1.511 . S
C829 C825 1.376 1_556 S
C829 C828 1.392 . S
C829 H841 0.929 . S
C830 C826 1.531 . S
C830 H842 0.960 1_565 S
C830 H843 0.962 . S
C830 H844 0.960 . S
C831 C828 1.511 . S
C831 H845 0.961 . S
C831 H846 0.961 . S
C831 H847 0.961 . S
C832 C833 1.370 . S
C832 C834 1.363 . S
C832 H848 0.931 . S
C833 C832 1.370 . S
C833 C837 1.408 1_554 S
C834 C832 1.363 . S
C834 C835 1.370 . S
C834 C838 1.524 1_545 S
C835 C827 1.503 1_545 S
C835 C834 1.370 . S
C835 C836 1.403 1_554 S
C836 C835 1.403 1_556 S
C836 C837 1.404 . S
C836 C839 1.539 . S
C837 C833 1.408 1_556 S
C837 C836 1.404 . S
C837 H849 0.930 . S
C838 C834 1.524 1_565 S
C838 H850 0.956 . S
C838 H851 0.961 . S
C838 H852 0.961 1_565 S
C839 C836 1.539 . S
C839 H853 0.958 . S
C839 H854 0.961 . S
C839 H855 0.960 . S
H840 C824 0.931 . S
H841 C829 0.929 . S
H842 C830 0.960 1_545 S
H843 C830 0.962 . S
H844 C830 0.960 . S
H845 C831 0.961 . S
H846 C831 0.961 . S
H847 C831 0.961 . S
H848 C832 0.931 . S
H849 C837 0.930 . S
H850 C838 0.956 . S
H851 C838 0.961 . S
H852 C838 0.961 1_545 S
H853 C839 0.958 . S
H854 C839 0.961 . S
H855 C839 0.960 . S
C856 C857 1.391 . S
C856 C858 1.394 . S
C856 H872 0.931 . S
C857 C856 1.391 . S
C857 C861 1.376 1_554 S
C858 C856 1.394 . S
C858 C859 1.369 . S
C858 C862 1.531 . S
C859 C858 1.369 . S
C859 C860 1.410 1_554 S
C859 C867 1.503 . S
C860 C859 1.410 1_556 S
C860 C861 1.392 . S
C860 C863 1.511 . S
C861 C857 1.376 1_556 S
C861 C860 1.392 . S
C861 H873 0.929 . S
C862 C858 1.531 . S
C862 H874 0.960 . S
C862 H875 0.962 . S
C862 H876 0.960 . S
C863 C860 1.511 . S
C863 H877 0.961 . S
C863 H878 0.961 . S
C863 H879 0.961 . S
C864 C865 1.370 . S
C864 C866 1.363 . S
C864 H880 0.931 . S
C865 C864 1.370 . S
C865 C869 1.408 . S
C866 C864 1.363 . S
C866 C867 1.370 . S
C866 C870 1.524 . S
C867 C859 1.503 . S
C867 C866 1.370 . S
C867 C868 1.403 . S
C868 C867 1.403 . S
C868 C869 1.404 . S
C868 C871 1.539 . S
C869 C865 1.408 . S
C869 C868 1.404 . S
C869 H881 0.930 . S
C870 C866 1.524 . S
C870 H882 0.956 . S
C870 H883 0.961 1_554 S
C870 H884 0.955 1_554 S
C871 C868 1.539 . S
C871 H885 0.958 . S
C871 H886 0.961 . S
C871 H887 0.960 . S
H872 C856 0.931 . S
H873 C861 0.929 . S
H874 C862 0.960 . S
H875 C862 0.962 . S
H876 C862 0.960 . S
H877 C863 0.961 . S
H878 C863 0.961 . S
H879 C863 0.961 . S
H880 C864 0.931 . S
H881 C869 0.930 . S
H882 C870 0.956 . S
H883 C870 0.961 1_556 S
H884 C870 0.955 1_556 S
H885 C871 0.958 . S
H886 C871 0.961 . S
H887 C871 0.960 . S
C888 C889 1.391 . S
C888 C890 1.394 . S
C888 H904 0.931 . S
C889 C888 1.391 . S
C889 C893 1.376 . S
C890 C888 1.394 . S
C890 C891 1.369 . S
C890 C894 1.531 . S
C891 C890 1.369 . S
C891 C892 1.410 . S
C891 C899 1.503 . S
C892 C891 1.410 . S
C892 C893 1.392 . S
C892 C895 1.511 . S
C893 C889 1.376 . S
C893 C892 1.392 . S
C893 H905 0.929 . S
C894 C890 1.531 . S
C894 H906 0.960 . S
C894 H907 0.962 . S
C894 H908 0.960 . S
C895 C892 1.511 . S
C895 H909 0.961 . S
C895 H910 0.961 . S
C895 H911 0.961 . S
C896 C897 1.370 . S
C896 C898 1.363 . S
C896 H912 0.931 . S
C897 C896 1.370 . S
C897 C901 1.408 . S
C898 C896 1.363 . S
C898 C899 1.370 . S
C898 C902 1.524 . S
C899 C891 1.503 . S
C899 C898 1.370 . S
C899 C900 1.403 . S
C900 C899 1.403 . S
C900 C901 1.404 . S
C900 C903 1.539 . S
C901 C897 1.408 . S
C901 C900 1.404 . S
C901 H913 0.930 . S
C902 C898 1.524 . S
C902 H914 0.956 . S
C902 H915 0.961 . S
C902 H916 0.961 . S
C903 C900 1.539 . S
C903 H917 0.958 . S
C903 H918 0.961 . S
C903 H919 0.960 . S
H904 C888 0.931 . S
H905 C893 0.929 . S
H906 C894 0.960 . S
H907 C894 0.962 . S
H908 C894 0.960 . S
H909 C895 0.961 . S
H910 C895 0.961 . S
H911 C895 0.961 . S
H912 C896 0.931 . S
H913 C901 0.930 . S
H914 C902 0.956 . S
H915 C902 0.961 . S
H916 C902 0.961 . S
H917 C903 0.958 . S
H918 C903 0.961 . S
H919 C903 0.960 . S
C920 C921 1.391 . S
C920 C922 1.394 . S
C920 H936 0.931 . S
C921 C920 1.391 . S
C921 C925 1.376 . S
C922 C920 1.394 . S
C922 C923 1.369 . S
C922 C926 1.531 . S
C923 C922 1.369 . S
C923 C924 1.410 . S
C923 C931 1.503 . S
C924 C923 1.410 . S
C924 C925 1.392 . S
C924 C927 1.511 . S
C925 C921 1.376 . S
C925 C924 1.392 . S
C925 H937 0.929 . S
C926 C922 1.531 . S
C926 H938 0.960 . S
C926 H939 0.962 1_554 S
C926 H940 0.960 . S
C927 C924 1.511 . S
C927 H941 0.961 . S
C927 H942 0.961 . S
C927 H943 0.961 . S
C928 C929 1.370 1_556 S
C928 C930 1.363 . S
C928 H944 0.931 . S
C929 C928 1.370 1_554 S
C929 C933 1.408 . S
C930 C928 1.363 . S
C930 C931 1.370 1_556 S
C930 C934 1.524 . S
C931 C923 1.503 . S
C931 C930 1.370 1_554 S
C931 C932 1.403 . S
C932 C931 1.403 . S
C932 C933 1.404 . S
C932 C935 1.539 . S
C933 C929 1.408 . S
C933 C932 1.404 . S
C933 H945 0.930 . S
C934 C930 1.524 . S
C934 H946 0.956 . S
C934 H947 0.961 . S
C934 H948 0.961 . S
C935 C932 1.539 . S
C935 H949 0.958 . S
C935 H950 0.961 . S
C935 H951 0.960 . S
H936 C920 0.931 . S
H937 C925 0.929 . S
H938 C926 0.960 . S
H939 C926 0.962 1_556 S
H940 C926 0.960 . S
H941 C927 0.961 . S
H942 C927 0.961 . S
H943 C927 0.961 . S
H944 C928 0.931 . S
H945 C933 0.930 . S
H946 C934 0.956 . S
H947 C934 0.961 . S
H948 C934 0.961 . S
H949 C935 0.958 . S
H950 C935 0.961 . S
H951 C935 0.960 . S
C952 C953 1.391 . S
C952 C954 1.394 . S
C952 H968 0.931 . S
C953 C952 1.391 . S
C953 C957 1.376 . S
C954 C952 1.394 . S
C954 C955 1.369 . S
C954 C958 1.531 . S
C955 C954 1.369 . S
C955 C956 1.410 . S
C955 C963 1.503 . S
C956 C955 1.410 . S
C956 C957 1.392 . S
C956 C959 1.511 . S
C957 C953 1.376 . S
C957 C956 1.392 . S
C957 H969 0.929 . S
C958 C954 1.531 . S
C958 H970 0.960 . S
C958 H971 0.962 . S
C958 H972 0.960 . S
C959 C956 1.511 . S
C959 H973 0.961 . S
C959 H974 0.961 . S
C959 H975 0.961 . S
C960 C961 1.370 . S
C960 C962 1.363 . S
C960 H976 0.931 . S
C961 C960 1.370 . S
C961 C965 1.408 . S
C962 C960 1.363 . S
C962 C963 1.370 . S
C962 C966 1.524 . S
C963 C955 1.503 . S
C963 C962 1.370 . S
C963 C964 1.403 . S
C964 C963 1.403 . S
C964 C965 1.404 . S
C964 C967 1.539 . S
C965 C961 1.408 . S
C965 C964 1.404 . S
C965 H977 0.930 . S
C966 C962 1.524 . S
C966 H978 0.956 . S
C966 H979 0.961 . S
C966 H980 0.961 . S
C967 C964 1.539 . S
C967 H981 0.958 . S
C967 H982 0.961 . S
C967 H983 0.960 . S
H968 C952 0.931 . S
H969 C957 0.929 . S
H970 C958 0.960 . S
H971 C958 0.962 . S
H972 C958 0.960 . S
H973 C959 0.961 . S
H974 C959 0.961 . S
H975 C959 0.961 . S
H976 C960 0.931 . S
H977 C965 0.930 . S
H978 C966 0.956 . S
H979 C966 0.961 . S
H980 C966 0.961 . S
H981 C967 0.958 . S
H982 C967 0.961 . S
H983 C967 0.960 . S
C473 C33 1.510 . S
C481 C269 1.498 . S
C505 C92 1.512 . S
C513 C328 1.502 . S
C537 C387 1.493 . S
C545 C151 1.508 . S
C569 C446 1.488 . S
C577 C210 1.503 . S
C601 C357 1.261 . S
C609 C121 1.247 . S
C633 C416 1.260 . S
C641 C180 1.252 . S
C665 C3 1.231 . S
C673 C239 1.244 . S
C697 C62 1.256 . S
C705 C298 1.244 . S
C729 C170 1.418 . S
C737 C52 1.410 . S
C761 C229 1.409 . S
C769 C111 1.408 . S
C793 C288 1.416 . S
C801 C406 1.420 . S
C825 C465 1.424 . S
C833 C347 1.414 . S
C857 C5 1.444 . S
C865 C300 1.443 . S
C889 C359 1.442 . S
C897 C64 1.440 . S
C921 C123 1.441 . S
C929 C418 1.439 . S
C953 C182 1.444 . S
C961 C241 1.442 . S
