# Generated by pormake.
# Topology wgl, (5)-cn, num edge types: 1
# Building blocks:
#     Node 0, Type 0, BuildingBlock: XOMCOT_clean_sbu_0, # of connection points: 5
#     Node 1, Type 0, BuildingBlock: XOMCOT_clean_sbu_0, # of connection points: 5
#     Node 2, Type 0, BuildingBlock: XOMCOT_clean_sbu_0, # of connection points: 5
#     Node 3, Type 0, BuildingBlock: XOMCOT_clean_sbu_0, # of connection points: 5
#     Node 4, Type 0, BuildingBlock: XOMCOT_clean_sbu_0, # of connection points: 5
#     Node 5, Type 0, BuildingBlock: XOMCOT_clean_sbu_0, # of connection points: 5
#     Node 6, Type 0, BuildingBlock: XOMCOT_clean_sbu_0, # of connection points: 5
#     Node 7, Type 0, BuildingBlock: XOMCOT_clean_sbu_0, # of connection points: 5
#     Node 8, Type 0, BuildingBlock: XOMCOT_clean_sbu_0, # of connection points: 5
#     Node 9, Type 0, BuildingBlock: XOMCOT_clean_sbu_0, # of connection points: 5
#     Node 10, Type 0, BuildingBlock: XOMCOT_clean_sbu_0, # of connection points: 5
#     Node 11, Type 0, BuildingBlock: XOMCOT_clean_sbu_0, # of connection points: 5
#     Node 12, Type 0, BuildingBlock: XOMCOT_clean_sbu_0, # of connection points: 5
#     Node 13, Type 0, BuildingBlock: XOMCOT_clean_sbu_0, # of connection points: 5
#     Node 14, Type 0, BuildingBlock: XOMCOT_clean_sbu_0, # of connection points: 5
#     Node 15, Type 0, BuildingBlock: XOMCOT_clean_sbu_0, # of connection points: 5
#     Node 16, Type 0, BuildingBlock: XOMCOT_clean_sbu_0, # of connection points: 5
#     Node 17, Type 0, BuildingBlock: XOMCOT_clean_sbu_0, # of connection points: 5
#     Node 18, Type 0, BuildingBlock: XOMCOT_clean_sbu_0, # of connection points: 5
#     Node 19, Type 0, BuildingBlock: XOMCOT_clean_sbu_0, # of connection points: 5
#     Node 20, Type 0, BuildingBlock: XOMCOT_clean_sbu_0, # of connection points: 5
#     Node 21, Type 0, BuildingBlock: XOMCOT_clean_sbu_0, # of connection points: 5
#     Node 22, Type 0, BuildingBlock: XOMCOT_clean_sbu_0, # of connection points: 5
#     Node 23, Type 0, BuildingBlock: XOMCOT_clean_sbu_0, # of connection points: 5
#     Node 24, Type 0, BuildingBlock: XOMCOT_clean_sbu_0, # of connection points: 5
#     Node 25, Type 0, BuildingBlock: XOMCOT_clean_sbu_0, # of connection points: 5
#     Node 26, Type 0, BuildingBlock: XOMCOT_clean_sbu_0, # of connection points: 5
#     Node 27, Type 0, BuildingBlock: XOMCOT_clean_sbu_0, # of connection points: 5
#     Node 28, Type 0, BuildingBlock: XOMCOT_clean_sbu_0, # of connection points: 5
#     Node 29, Type 0, BuildingBlock: XOMCOT_clean_sbu_0, # of connection points: 5
#     Node 30, Type 0, BuildingBlock: XOMCOT_clean_sbu_0, # of connection points: 5
#     Node 31, Type 0, BuildingBlock: XOMCOT_clean_sbu_0, # of connection points: 5
#     Edge 32, Type (0, 0), BuildingBlock: ZUJKAS_clean_linker_0, # of connection points: 2
#     Edge 33, Type (0, 0), BuildingBlock: ZUJKAS_clean_linker_0, # of connection points: 2
#     Edge 34, Type (0, 0), BuildingBlock: ZUJKAS_clean_linker_0, # of connection points: 2
#     Edge 35, Type (0, 0), BuildingBlock: ZUJKAS_clean_linker_0, # of connection points: 2
#     Edge 36, Type (0, 0), BuildingBlock: ZUJKAS_clean_linker_0, # of connection points: 2
#     Edge 37, Type (0, 0), BuildingBlock: ZUJKAS_clean_linker_0, # of connection points: 2
#     Edge 38, Type (0, 0), BuildingBlock: ZUJKAS_clean_linker_0, # of connection points: 2
#     Edge 39, Type (0, 0), BuildingBlock: ZUJKAS_clean_linker_0, # of connection points: 2
#     Edge 40, Type (0, 0), BuildingBlock: ZUJKAS_clean_linker_0, # of connection points: 2
#     Edge 41, Type (0, 0), BuildingBlock: ZUJKAS_clean_linker_0, # of connection points: 2
#     Edge 42, Type (0, 0), BuildingBlock: ZUJKAS_clean_linker_0, # of connection points: 2
#     Edge 43, Type (0, 0), BuildingBlock: ZUJKAS_clean_linker_0, # of connection points: 2
#     Edge 44, Type (0, 0), BuildingBlock: ZUJKAS_clean_linker_0, # of connection points: 2
#     Edge 45, Type (0, 0), BuildingBlock: ZUJKAS_clean_linker_0, # of connection points: 2
#     Edge 46, Type (0, 0), BuildingBlock: ZUJKAS_clean_linker_0, # of connection points: 2
#     Edge 47, Type (0, 0), BuildingBlock: ZUJKAS_clean_linker_0, # of connection points: 2
#     Edge 48, Type (0, 0), BuildingBlock: ZUJKAS_clean_linker_0, # of connection points: 2
#     Edge 49, Type (0, 0), BuildingBlock: ZUJKAS_clean_linker_0, # of connection points: 2
#     Edge 50, Type (0, 0), BuildingBlock: ZUJKAS_clean_linker_0, # of connection points: 2
#     Edge 51, Type (0, 0), BuildingBlock: ZUJKAS_clean_linker_0, # of connection points: 2
#     Edge 52, Type (0, 0), BuildingBlock: ZUJKAS_clean_linker_0, # of connection points: 2
#     Edge 53, Type (0, 0), BuildingBlock: ZUJKAS_clean_linker_0, # of connection points: 2
#     Edge 54, Type (0, 0), BuildingBlock: ZUJKAS_clean_linker_0, # of connection points: 2
#     Edge 55, Type (0, 0), BuildingBlock: ZUJKAS_clean_linker_0, # of connection points: 2
#     Edge 56, Type (0, 0), BuildingBlock: ZUJKAS_clean_linker_0, # of connection points: 2
#     Edge 57, Type (0, 0), BuildingBlock: ZUJKAS_clean_linker_0, # of connection points: 2
#     Edge 58, Type (0, 0), BuildingBlock: ZUJKAS_clean_linker_0, # of connection points: 2
#     Edge 59, Type (0, 0), BuildingBlock: ZUJKAS_clean_linker_0, # of connection points: 2
#     Edge 60, Type (0, 0), BuildingBlock: ZUJKAS_clean_linker_0, # of connection points: 2
#     Edge 61, Type (0, 0), BuildingBlock: ZUJKAS_clean_linker_0, # of connection points: 2
#     Edge 62, Type (0, 0), BuildingBlock: ZUJKAS_clean_linker_0, # of connection points: 2
#     Edge 63, Type (0, 0), BuildingBlock: ZUJKAS_clean_linker_0, # of connection points: 2
#     Edge 64, Type (0, 0), BuildingBlock: ZUJKAS_clean_linker_0, # of connection points: 2
#     Edge 65, Type (0, 0), BuildingBlock: ZUJKAS_clean_linker_0, # of connection points: 2
#     Edge 66, Type (0, 0), BuildingBlock: ZUJKAS_clean_linker_0, # of connection points: 2
#     Edge 67, Type (0, 0), BuildingBlock: ZUJKAS_clean_linker_0, # of connection points: 2
#     Edge 68, Type (0, 0), BuildingBlock: ZUJKAS_clean_linker_0, # of connection points: 2
#     Edge 69, Type (0, 0), BuildingBlock: ZUJKAS_clean_linker_0, # of connection points: 2
#     Edge 70, Type (0, 0), BuildingBlock: ZUJKAS_clean_linker_0, # of connection points: 2
#     Edge 71, Type (0, 0), BuildingBlock: ZUJKAS_clean_linker_0, # of connection points: 2
#     Edge 72, Type (0, 0), BuildingBlock: ZUJKAS_clean_linker_0, # of connection points: 2
#     Edge 73, Type (0, 0), BuildingBlock: ZUJKAS_clean_linker_0, # of connection points: 2
#     Edge 74, Type (0, 0), BuildingBlock: ZUJKAS_clean_linker_0, # of connection points: 2
#     Edge 75, Type (0, 0), BuildingBlock: ZUJKAS_clean_linker_0, # of connection points: 2
#     Edge 76, Type (0, 0), BuildingBlock: ZUJKAS_clean_linker_0, # of connection points: 2
#     Edge 77, Type (0, 0), BuildingBlock: ZUJKAS_clean_linker_0, # of connection points: 2
#     Edge 78, Type (0, 0), BuildingBlock: ZUJKAS_clean_linker_0, # of connection points: 2
#     Edge 79, Type (0, 0), BuildingBlock: ZUJKAS_clean_linker_0, # of connection points: 2
#     Edge 80, Type (0, 0), BuildingBlock: ZUJKAS_clean_linker_0, # of connection points: 2
#     Edge 81, Type (0, 0), BuildingBlock: ZUJKAS_clean_linker_0, # of connection points: 2
#     Edge 82, Type (0, 0), BuildingBlock: ZUJKAS_clean_linker_0, # of connection points: 2
#     Edge 83, Type (0, 0), BuildingBlock: ZUJKAS_clean_linker_0, # of connection points: 2
#     Edge 84, Type (0, 0), BuildingBlock: ZUJKAS_clean_linker_0, # of connection points: 2
#     Edge 85, Type (0, 0), BuildingBlock: ZUJKAS_clean_linker_0, # of connection points: 2
#     Edge 86, Type (0, 0), BuildingBlock: ZUJKAS_clean_linker_0, # of connection points: 2
#     Edge 87, Type (0, 0), BuildingBlock: ZUJKAS_clean_linker_0, # of connection points: 2
#     Edge 88, Type (0, 0), BuildingBlock: ZUJKAS_clean_linker_0, # of connection points: 2
#     Edge 89, Type (0, 0), BuildingBlock: ZUJKAS_clean_linker_0, # of connection points: 2
#     Edge 90, Type (0, 0), BuildingBlock: ZUJKAS_clean_linker_0, # of connection points: 2
#     Edge 91, Type (0, 0), BuildingBlock: ZUJKAS_clean_linker_0, # of connection points: 2
#     Edge 92, Type (0, 0), BuildingBlock: ZUJKAS_clean_linker_0, # of connection points: 2
#     Edge 93, Type (0, 0), BuildingBlock: ZUJKAS_clean_linker_0, # of connection points: 2
#     Edge 94, Type (0, 0), BuildingBlock: ZUJKAS_clean_linker_0, # of connection points: 2
#     Edge 95, Type (0, 0), BuildingBlock: ZUJKAS_clean_linker_0, # of connection points: 2
#     Edge 96, Type (0, 0), BuildingBlock: ZUJKAS_clean_linker_0, # of connection points: 2
#     Edge 97, Type (0, 0), BuildingBlock: ZUJKAS_clean_linker_0, # of connection points: 2
#     Edge 98, Type (0, 0), BuildingBlock: ZUJKAS_clean_linker_0, # of connection points: 2
#     Edge 99, Type (0, 0), BuildingBlock: ZUJKAS_clean_linker_0, # of connection points: 2
#     Edge 100, Type (0, 0), BuildingBlock: ZUJKAS_clean_linker_0, # of connection points: 2
#     Edge 101, Type (0, 0), BuildingBlock: ZUJKAS_clean_linker_0, # of connection points: 2
#     Edge 102, Type (0, 0), BuildingBlock: ZUJKAS_clean_linker_0, # of connection points: 2
#     Edge 103, Type (0, 0), BuildingBlock: ZUJKAS_clean_linker_0, # of connection points: 2
#     Edge 104, Type (0, 0), BuildingBlock: ZUJKAS_clean_linker_0, # of connection points: 2
#     Edge 105, Type (0, 0), BuildingBlock: ZUJKAS_clean_linker_0, # of connection points: 2
#     Edge 106, Type (0, 0), BuildingBlock: ZUJKAS_clean_linker_0, # of connection points: 2
#     Edge 107, Type (0, 0), BuildingBlock: ZUJKAS_clean_linker_0, # of connection points: 2
#     Edge 108, Type (0, 0), BuildingBlock: ZUJKAS_clean_linker_0, # of connection points: 2
#     Edge 109, Type (0, 0), BuildingBlock: ZUJKAS_clean_linker_0, # of connection points: 2
#     Edge 110, Type (0, 0), BuildingBlock: ZUJKAS_clean_linker_0, # of connection points: 2
#     Edge 111, Type (0, 0), BuildingBlock: ZUJKAS_clean_linker_0, # of connection points: 2
# Relax obj value: 0.052
# Max RMSD: 0.100
# Mean RMSD: 0.100
data_MOF--net-wgl--node1-XOMCOT_clean_sbu_0--edge1-ZUJKAS_clean_linker_0
_symmetry_space_group_name_H-M    P1
_symmetry_Int_Tables_number       1
_symmetry_cell_setting            triclinic
loop_
_symmetry_equiv_pos_as_xyz
'x, y, z'
_cell_length_a     72.0643
_cell_length_b     72.01165
_cell_length_c     67.071831
_cell_angle_alpha  89.998945
_cell_angle_beta   90.014673
_cell_angle_gamma 90.015008
loop_
_atom_site_label
_atom_site_type_symbol
_atom_site_fract_x
_atom_site_fract_y
_atom_site_fract_z
_atom_type_partial_charge
Co0 Co 0.29966 0.33663 0.14364 0.0
C1 C 0.32205 0.30177 0.14162 0.0
C2 C 0.29827 0.30157 0.12227 0.0
C3 C 0.30663 0.28449 0.1213 0.0
N4 N 0.30788 0.3124 0.13495 0.0
N5 N 0.32151 0.28456 0.1335 0.0
H6 H 0.33197 0.30622 0.15276 0.0
H7 H 0.28559 0.30559 0.11479 0.0
C8 C 0.29295 0.35578 0.10488 0.0
O9 O 0.30236 0.36995 0.11199 0.0
N10 N 0.28995 0.36074 0.15226 0.0
C11 C 0.2942 0.37088 0.16858 0.0
C12 C 0.28253 0.38604 0.16957 0.0
C13 C 0.27492 0.3694 0.14441 0.0
N14 N 0.27043 0.38515 0.15426 0.0
C15 C 0.33426 0.35548 0.15129 0.0
C16 C 0.34972 0.34975 0.11409 0.0
C17 C 0.35979 0.35991 0.12828 0.0
C18 C 0.35191 0.36249 0.14717 0.0
C19 C 0.332 0.34309 0.11881 0.0
N20 N 0.32407 0.34674 0.13694 0.0
H21 H 0.32914 0.35656 0.16626 0.0
H22 H 0.32466 0.33493 0.10783 0.0
H23 H 0.30424 0.36716 0.1798 0.0
H24 H 0.26718 0.36411 0.13185 0.0
O25 O 0.30465 0.32977 0.17086 0.0
O26 O 0.27795 0.3249 0.15529 0.0
O27 O 0.29018 0.34143 0.11574 0.0
C28 C 0.28797 0.32293 0.17137 0.0
H29 H 0.30196 0.27278 0.11251 0.0
H30 H 0.28252 0.39649 0.18116 0.0
H31 H 0.35539 0.3471 0.09941 0.0
H32 H 0.35954 0.36948 0.1589 0.0
Co33 Co 0.9409 0.05173 0.3925 0.0
C34 C 0.97526 0.07598 0.39109 0.0
C35 C 0.9743 0.05539 0.3681 0.0
C36 C 0.99059 0.06503 0.36623 0.0
N37 N 0.96417 0.06266 0.38314 0.0
N38 N 0.9912 0.07797 0.38066 0.0
H39 H 0.97233 0.08356 0.40459 0.0
H40 H 0.97047 0.04332 0.35944 0.0
C41 C 0.93551 0.05392 0.34862 0.0
O42 O 0.94051 0.07144 0.3499 0.0
N43 N 0.91828 0.03982 0.4014 0.0
C44 C 0.90739 0.04468 0.41685 0.0
C45 C 0.89238 0.03276 0.41747 0.0
C46 C 0.90982 0.02508 0.39287 0.0
N47 N 0.89389 0.02049 0.40232 0.0
C48 C 0.9326 0.0902 0.39969 0.0
C49 C 0.90215 0.09255 0.37478 0.0
C50 C 0.90867 0.10873 0.38407 0.0
C51 C 0.92378 0.10728 0.39711 0.0
C52 C 0.91129 0.07567 0.37801 0.0
N53 N 0.92716 0.07492 0.38919 0.0
H54 H 0.94361 0.08927 0.41044 0.0
H55 H 0.90579 0.06325 0.37116 0.0
H56 H 0.91003 0.05623 0.42675 0.0
H57 H 0.91527 0.0178 0.38003 0.0
O58 O 0.94863 0.05522 0.41967 0.0
O59 O 0.95518 0.03041 0.40144 0.0
O60 O 0.93507 0.04372 0.36424 0.0
C61 C 0.95693 0.03927 0.41831 0.0
H62 H 1.00157 0.06219 0.35564 0.0
H63 H 0.881 0.03341 0.42797 0.0
H64 H 0.89003 0.09291 0.36524 0.0
H65 H 0.92896 0.11929 0.40508 0.0
Co66 Co 0.22555 0.68811 0.64201 0.0
C67 C 0.20216 0.72234 0.63867 0.0
C68 C 0.2255 0.72215 0.61872 0.0
C69 C 0.21588 0.73834 0.61589 0.0
N70 N 0.21682 0.71199 0.63276 0.0
N71 N 0.20123 0.73849 0.62838 0.0
H72 H 0.19244 0.71816 0.65013 0.0
H73 H 0.23823 0.71824 0.6113 0.0
C74 C 0.2333 0.6687 0.60338 0.0
O75 O 0.22497 0.65383 0.61038 0.0
N76 N 0.2357 0.66434 0.6511 0.0
C77 C 0.23137 0.65423 0.66741 0.0
C78 C 0.24326 0.63927 0.66869 0.0
C79 C 0.25097 0.6559 0.64357 0.0
N80 N 0.25556 0.64027 0.65358 0.0
C81 C 0.19116 0.66908 0.6499 0.0
C82 C 0.17592 0.67369 0.61242 0.0
C83 C 0.16553 0.66435 0.627 0.0
C84 C 0.17344 0.66214 0.64597 0.0
C85 C 0.1937 0.68028 0.61696 0.0
N86 N 0.20144 0.67734 0.63532 0.0
H87 H 0.19621 0.66841 0.66493 0.0
H88 H 0.20105 0.68816 0.60576 0.0
H89 H 0.22108 0.65781 0.67841 0.0
H90 H 0.25876 0.66124 0.63107 0.0
O91 O 0.22034 0.69528 0.66908 0.0
O92 O 0.24697 0.70044 0.6535 0.0
O93 O 0.23517 0.68317 0.61425 0.0
C94 C 0.23691 0.70239 0.66954 0.0
H95 H 0.21969 0.74946 0.60582 0.0
H96 H 0.24325 0.62886 0.68033 0.0
H97 H 0.17021 0.67639 0.59777 0.0
H98 H 0.16598 0.65524 0.65786 0.0
Co99 Co 0.58625 0.97491 0.89509 0.0
C100 C 0.55079 0.95185 0.89253 0.0
C101 C 0.54888 0.97919 0.88004 0.0
C102 C 0.53208 0.97059 0.87766 0.0
N103 N 0.56084 0.96744 0.889 0.0
N104 N 0.53326 0.95341 0.88545 0.0
H105 H 0.55589 0.93958 0.89986 0.0
H106 H 0.55226 0.99318 0.8754 0.0
C107 C 0.58323 0.9752 0.85105 0.0
O108 O 0.57484 0.95907 0.85271 0.0
N109 N 0.61107 0.9836 0.90085 0.0
C110 C 0.62415 0.97535 0.9121 0.0
C111 C 0.6401 0.98597 0.91134 0.0
C112 C 0.61907 0.99915 0.89359 0.0
N113 N 0.63687 1.00094 0.89969 0.0
C114 C 0.59238 0.93594 0.90128 0.0
C115 C 0.61721 0.93064 0.87043 0.0
C116 C 0.61235 0.91541 0.88237 0.0
C117 C 0.59986 0.91831 0.89808 0.0
C118 C 0.60941 0.94809 0.87421 0.0
N119 N 0.59641 0.95041 0.88887 0.0
H120 H 0.58355 0.93799 0.91407 0.0
H121 H 0.61426 0.9598 0.86562 0.0
H122 H 0.62231 0.96243 0.92008 0.0
H123 H 0.61211 1.00872 0.88365 0.0
O124 O 0.58155 0.97122 0.92311 0.0
O125 O 0.57608 0.99739 0.90683 0.0
O126 O 0.58925 0.98357 0.86659 0.0
C127 C 0.5751 0.98805 0.92345 0.0
H128 H 0.5198 0.97661 0.87097 0.0
H129 H 0.65303 0.98293 0.91886 0.0
H130 H 0.62742 0.92925 0.85868 0.0
H131 H 0.59593 0.90708 0.90795 0.0
Co132 Co 0.29888 0.68808 0.35864 0.0
C133 C 0.31998 0.72462 0.35973 0.0
C134 C 0.29539 0.72396 0.37766 0.0
C135 C 0.30254 0.74157 0.37836 0.0
N136 N 0.30641 0.7131 0.36632 0.0
N137 N 0.31796 0.74202 0.36707 0.0
H138 H 0.33042 0.72098 0.34893 0.0
H139 H 0.28252 0.71952 0.38444 0.0
C140 C 0.29934 0.68743 0.40273 0.0
O141 O 0.31591 0.69497 0.40142 0.0
N142 N 0.29009 0.66365 0.35137 0.0
C143 C 0.29782 0.65142 0.33869 0.0
C144 C 0.28728 0.6354 0.33877 0.0
C145 C 0.27498 0.65505 0.35886 0.0
N146 N 0.27291 0.63767 0.35152 0.0
C147 C 0.33817 0.68293 0.35337 0.0
C148 C 0.34264 0.65538 0.38164 0.0
C149 C 0.35832 0.66194 0.37146 0.0
C150 C 0.35583 0.67566 0.35689 0.0
C151 C 0.32518 0.66296 0.37751 0.0
N152 N 0.32326 0.67741 0.36441 0.0
H153 H 0.33647 0.69262 0.34131 0.0
H154 H 0.31318 0.65709 0.38482 0.0
H155 H 0.31041 0.65385 0.33031 0.0
H156 H 0.2657 0.66149 0.36948 0.0
O157 O 0.30288 0.69409 0.33102 0.0
O158 O 0.2766 0.69904 0.34729 0.0
O159 O 0.29013 0.68365 0.38692 0.0
C160 C 0.2861 0.70065 0.33082 0.0
H161 H 0.29665 0.75324 0.38631 0.0
H162 H 0.29031 0.6229 0.33043 0.0
H163 H 0.34377 0.6442 0.39237 0.0
H164 H 0.36744 0.68079 0.34824 0.0
Co165 Co 0.58467 0.05208 0.61002 0.0
C166 C 0.54918 0.07509 0.61226 0.0
C167 C 0.54748 0.04815 0.62573 0.0
C168 C 0.53064 0.05673 0.6279 0.0
N169 N 0.55935 0.05969 0.61633 0.0
N170 N 0.5317 0.07366 0.61948 0.0
H171 H 0.55412 0.08709 0.60431 0.0
H172 H 0.55092 0.03429 0.63074 0.0
C173 C 0.58212 0.05172 0.65409 0.0
O174 O 0.57387 0.06793 0.65257 0.0
N175 N 0.60937 0.04323 0.60406 0.0
C176 C 0.62219 0.05098 0.59208 0.0
C177 C 0.63798 0.04012 0.59257 0.0
C178 C 0.6174 0.02781 0.61156 0.0
N179 N 0.63497 0.02554 0.60487 0.0
C180 C 0.59071 0.09117 0.60438 0.0
C181 C 0.61582 0.096 0.63507 0.0
C182 C 0.61024 0.11155 0.62398 0.0
C183 C 0.59775 0.10888 0.60824 0.0
C184 C 0.6083 0.07854 0.63077 0.0
N185 N 0.59506 0.07646 0.61632 0.0
H186 H 0.58197 0.08928 0.59149 0.0
H187 H 0.61335 0.06666 0.63897 0.0
H188 H 0.62027 0.06371 0.58378 0.0
H189 H 0.61039 0.01839 0.62161 0.0
O190 O 0.57983 0.05597 0.58208 0.0
O191 O 0.57425 0.02974 0.59824 0.0
O192 O 0.58782 0.04329 0.63846 0.0
C193 C 0.57325 0.03919 0.58168 0.0
H194 H 0.51841 0.05082 0.6348 0.0
H195 H 0.65078 0.043 0.58474 0.0
H196 H 0.62585 0.0973 0.64702 0.0
H197 H 0.59378 0.1203 0.59863 0.0
Co198 Co 0.22499 0.33689 0.86227 0.0
C199 C 0.20369 0.30127 0.86471 0.0
C200 C 0.22761 0.30213 0.88386 0.0
C201 C 0.21997 0.28474 0.88499 0.0
N202 N 0.21747 0.31251 0.87121 0.0
N203 N 0.20502 0.28415 0.87293 0.0
H204 H 0.19354 0.30522 0.8536 0.0
H205 H 0.24022 0.30665 0.89114 0.0
C206 C 0.23117 0.35615 0.90113 0.0
O207 O 0.22127 0.37006 0.8942 0.0
N208 N 0.2341 0.36117 0.85345 0.0
C209 C 0.23034 0.37058 0.83649 0.0
C210 C 0.24182 0.3859 0.83531 0.0
C211 C 0.24861 0.37045 0.86158 0.0
N212 N 0.25322 0.38586 0.85124 0.0
C213 C 0.19031 0.35562 0.8549 0.0
C214 C 0.17459 0.34876 0.89176 0.0
C215 C 0.16455 0.35917 0.87778 0.0
C216 C 0.17256 0.36236 0.85905 0.0
C217 C 0.19241 0.34239 0.88702 0.0
N218 N 0.20041 0.34652 0.86905 0.0
H219 H 0.19561 0.35728 0.84006 0.0
H220 H 0.19981 0.33414 0.89788 0.0
H221 H 0.22077 0.36623 0.82503 0.0
H222 H 0.25639 0.36554 0.8743 0.0
O223 O 0.21996 0.32977 0.83516 0.0
O224 O 0.24688 0.32561 0.85053 0.0
O225 O 0.23445 0.34203 0.89011 0.0
C226 C 0.23679 0.32334 0.83454 0.0
H227 H 0.22521 0.27324 0.89373 0.0
H228 H 0.24193 0.39608 0.82344 0.0
H229 H 0.16883 0.34571 0.90631 0.0
H230 H 0.165 0.36963 0.84749 0.0
Co231 Co 0.9406 0.97484 0.11162 0.0
C232 C 0.97588 0.95303 0.11328 0.0
C233 C 0.97392 0.97374 0.1362 0.0
C234 C 0.99099 0.96548 0.1375 0.0
N235 N 0.96435 0.96592 0.12115 0.0
N236 N 0.99239 0.95259 0.12298 0.0
H237 H 0.97262 0.94485 0.1002 0.0
H238 H 0.96923 0.98531 0.14511 0.0
C239 C 0.92014 0.98318 0.14953 0.0
O240 O 0.90532 0.97518 0.14198 0.0
N241 N 0.91699 0.98505 0.1023 0.0
C242 C 0.90568 0.97937 0.08747 0.0
C243 C 0.89081 0.99137 0.08618 0.0
C244 C 0.90924 1.00102 0.10897 0.0
N245 N 0.89296 1.00494 0.09986 0.0
C246 C 0.9235 0.9398 0.1024 0.0
C247 C 0.92416 0.92539 0.14056 0.0
C248 C 0.9165 0.91463 0.12518 0.0
C249 C 0.91644 0.92203 0.10584 0.0
C250 C 0.93112 0.94312 0.13641 0.0
N251 N 0.92983 0.95057 0.11769 0.0
H252 H 0.92447 0.94453 0.08723 0.0
H253 H 0.93793 0.95065 0.14825 0.0
H254 H 0.90807 0.96778 0.07768 0.0
H255 H 0.91531 1.00948 0.12058 0.0
O256 O 0.94814 0.97003 0.08459 0.0
O257 O 0.95313 0.99644 0.10067 0.0
O258 O 0.93509 0.98434 0.13933 0.0
C259 C 0.95531 0.98657 0.08452 0.0
H260 H 1.0017 0.96904 0.14814 0.0
H261 H 0.87947 0.9903 0.07567 0.0
H262 H 0.92524 0.91997 0.15557 0.0
H263 H 0.91104 0.91416 0.09337 0.0
Co264 Co 0.72593 0.68874 0.86096 0.0
C265 C 0.70315 0.72336 0.86466 0.0
C266 C 0.72592 0.72218 0.88533 0.0
C267 C 0.71655 0.73849 0.88834 0.0
N268 N 0.71745 0.71257 0.8707 0.0
N269 N 0.70225 0.73927 0.8754 0.0
H270 H 0.69366 0.71967 0.8528 0.0
H271 H 0.73832 0.71781 0.89309 0.0
C272 C 0.73312 0.66881 0.89935 0.0
O273 O 0.72363 0.65464 0.89236 0.0
N274 N 0.73584 0.66501 0.85144 0.0
C275 C 0.73173 0.65538 0.83474 0.0
C276 C 0.74352 0.64033 0.83326 0.0
C277 C 0.75086 0.65619 0.85907 0.0
N278 N 0.75553 0.64082 0.84866 0.0
C279 C 0.69156 0.66971 0.85292 0.0
C280 C 0.67614 0.67425 0.89032 0.0
C281 C 0.66603 0.66458 0.87578 0.0
C282 C 0.67391 0.66258 0.85679 0.0
C283 C 0.69383 0.68112 0.88581 0.0
N284 N 0.70172 0.67809 0.86753 0.0
H285 H 0.69667 0.66908 0.83791 0.0
H286 H 0.70114 0.68898 0.89706 0.0
H287 H 0.72169 0.65938 0.82362 0.0
H288 H 0.75851 0.66113 0.87186 0.0
O289 O 0.72057 0.69634 0.83406 0.0
O290 O 0.74737 0.70108 0.84946 0.0
O291 O 0.73578 0.68319 0.88853 0.0
C292 C 0.7372 0.7033 0.83353 0.0
H293 H 0.7203 0.74925 0.89886 0.0
H294 H 0.74367 0.63026 0.82128 0.0
H295 H 0.6705 0.67645 0.9051 0.0
H296 H 0.66628 0.65601 0.8448 0.0
Co297 Co 0.0868 0.97429 0.60892 0.0
C298 C 0.04989 0.95344 0.60936 0.0
C299 C 0.04952 0.98027 0.62321 0.0
C300 C 0.03189 0.97323 0.62364 0.0
N301 N 0.061 0.9679 0.61449 0.0
N302 N 0.03205 0.95641 0.61488 0.0
H303 H 0.0543 0.94136 0.60119 0.0
H304 H 0.05373 0.99376 0.62867 0.0
C305 C 0.08317 0.97479 0.65287 0.0
O306 O 0.07419 0.959 0.65106 0.0
N307 N 0.11202 0.98204 0.60363 0.0
C308 C 0.12426 0.97458 0.59077 0.0
C309 C 0.14035 0.98502 0.59129 0.0
C310 C 0.12072 0.99681 0.61178 0.0
N311 N 0.13811 0.99896 0.60455 0.0
C312 C 0.09134 0.93503 0.60338 0.0
C313 C 0.11619 0.92931 0.63415 0.0
C314 C 0.11085 0.91412 0.62238 0.0
C315 C 0.09832 0.91722 0.60675 0.0
C316 C 0.1089 0.94694 0.6302 0.0
N317 N 0.09594 0.94951 0.61554 0.0
H318 H 0.08266 0.93724 0.59051 0.0
H319 H 0.11412 0.95859 0.63864 0.0
H320 H 0.12164 0.9625 0.58161 0.0
H321 H 0.11429 1.00606 0.62244 0.0
O322 O 0.08252 0.97051 0.58087 0.0
O323 O 0.0777 0.99704 0.59674 0.0
O324 O 0.08962 0.98297 0.63742 0.0
C325 C 0.07673 0.98757 0.58019 0.0
H326 H 0.01985 0.98002 0.62995 0.0
H327 H 0.15279 0.98242 0.58269 0.0
H328 H 0.12644 0.92773 0.64584 0.0
H329 H 0.09405 0.90602 0.597 0.0
Co330 Co 0.79803 0.33657 0.35983 0.0
C331 C 0.8208 0.3011 0.36293 0.0
C332 C 0.79645 0.30166 0.38126 0.0
C333 C 0.80509 0.28493 0.38401 0.0
N334 N 0.80653 0.31219 0.3686 0.0
N335 N 0.82037 0.28458 0.37253 0.0
H336 H 0.83104 0.30456 0.35186 0.0
H337 H 0.78339 0.30577 0.38785 0.0
C338 C 0.79866 0.33902 0.4039 0.0
O339 O 0.81567 0.33249 0.40281 0.0
N340 N 0.78833 0.36037 0.35155 0.0
C341 C 0.79516 0.37196 0.33763 0.0
C342 C 0.78433 0.38778 0.33728 0.0
C343 C 0.77346 0.36914 0.35935 0.0
N344 N 0.77069 0.38601 0.351 0.0
C345 C 0.83703 0.34297 0.35403 0.0
C346 C 0.84071 0.37172 0.38101 0.0
C347 C 0.85655 0.36528 0.37105 0.0
C348 C 0.85445 0.35094 0.3571 0.0
C349 C 0.82348 0.36342 0.37733 0.0
N350 N 0.822 0.34838 0.36495 0.0
H351 H 0.8356 0.33276 0.34243 0.0
H352 H 0.81132 0.36913 0.38447 0.0
H353 H 0.80728 0.36921 0.32859 0.0
H354 H 0.76513 0.36342 0.37127 0.0
O355 O 0.8022 0.32972 0.33249 0.0
O356 O 0.77614 0.32435 0.34901 0.0
O357 O 0.78921 0.34167 0.38799 0.0
C358 C 0.78566 0.3226 0.33256 0.0
H359 H 0.80021 0.27361 0.39325 0.0
H360 H 0.7864 0.39963 0.32762 0.0
H361 H 0.84155 0.38332 0.39126 0.0
H362 H 0.86618 0.34585 0.34862 0.0
Co363 Co 0.43946 0.05141 0.11166 0.0
C364 C 0.47501 0.07272 0.11344 0.0
C365 C 0.47259 0.0523 0.13662 0.0
C366 C 0.48974 0.06041 0.13801 0.0
N367 N 0.46329 0.06001 0.12131 0.0
N368 N 0.49139 0.07313 0.12335 0.0
H369 H 0.47194 0.08084 0.10026 0.0
H370 H 0.46761 0.04101 0.14578 0.0
C371 C 0.41872 0.04357 0.14948 0.0
O372 O 0.40428 0.05222 0.14192 0.0
N373 N 0.41573 0.04155 0.10229 0.0
C374 C 0.40433 0.04753 0.08767 0.0
C375 C 0.38936 0.03565 0.08633 0.0
C376 C 0.40787 0.02559 0.10884 0.0
N377 N 0.39151 0.02189 0.09979 0.0
C378 C 0.42311 0.08674 0.1022 0.0
C379 C 0.42348 0.10116 0.14036 0.0
C380 C 0.416 0.11196 0.1249 0.0
C381 C 0.41624 0.1046 0.10554 0.0
C382 C 0.43032 0.08337 0.13629 0.0
N383 N 0.42907 0.07588 0.11759 0.0
H384 H 0.42428 0.08201 0.08704 0.0
H385 H 0.43687 0.07575 0.14824 0.0
H386 H 0.40671 0.05927 0.07808 0.0
H387 H 0.41395 0.01698 0.12031 0.0
O388 O 0.4472 0.05603 0.08463 0.0
O389 O 0.4517 0.0296 0.10081 0.0
O390 O 0.43365 0.04196 0.13931 0.0
C391 C 0.45409 0.03937 0.08463 0.0
H392 H 0.50032 0.05694 0.14884 0.0
H393 H 0.37795 0.03692 0.07593 0.0
H394 H 0.42404 0.10634 0.1555 0.0
H395 H 0.41164 0.11275 0.09291 0.0
Co396 Co 0.72522 0.3369 0.64413 0.0
C397 C 0.70306 0.30185 0.64238 0.0
C398 C 0.72708 0.30161 0.62339 0.0
C399 C 0.71893 0.28443 0.62261 0.0
N400 N 0.71719 0.31254 0.63572 0.0
N401 N 0.70391 0.28453 0.63459 0.0
H402 H 0.69298 0.30634 0.65334 0.0
H403 H 0.73984 0.30563 0.61608 0.0
C404 C 0.73259 0.35557 0.60504 0.0
O405 O 0.7242 0.3705 0.6118 0.0
N406 N 0.73469 0.36117 0.65245 0.0
C407 C 0.72982 0.37173 0.66824 0.0
C408 C 0.74148 0.38688 0.6693 0.0
C409 C 0.75 0.36961 0.645 0.0
N410 N 0.75415 0.38561 0.65456 0.0
C411 C 0.69023 0.35479 0.65179 0.0
C412 C 0.67553 0.35036 0.61403 0.0
C413 C 0.66508 0.35983 0.62844 0.0
C414 C 0.67256 0.36171 0.64762 0.0
C415 C 0.69322 0.3437 0.61885 0.0
N416 N 0.70079 0.3468 0.63727 0.0
H417 H 0.69505 0.35528 0.66693 0.0
H418 H 0.70074 0.33588 0.60774 0.0
H419 H 0.71931 0.36837 0.67908 0.0
H420 H 0.75809 0.36399 0.63287 0.0
O421 O 0.72033 0.33031 0.67145 0.0
O422 O 0.74703 0.3255 0.6559 0.0
O423 O 0.7346 0.3413 0.61618 0.0
C424 C 0.73707 0.32364 0.67202 0.0
H425 H 0.72386 0.2726 0.61418 0.0
H426 H 0.74105 0.39761 0.68059 0.0
H427 H 0.67015 0.34818 0.59914 0.0
H428 H 0.66463 0.36806 0.65952 0.0
Co429 Co 0.43977 0.97398 0.39232 0.0
C430 C 0.47532 0.95145 0.38908 0.0
C431 C 0.47498 0.97628 0.3715 0.0
C432 C 0.49187 0.96787 0.36903 0.0
N433 N 0.46426 0.9658 0.38356 0.0
N434 N 0.49209 0.95225 0.38004 0.0
H435 H 0.47165 0.9409 0.39974 0.0
H436 H 0.4709 0.98949 0.36521 0.0
C437 C 0.43775 0.97419 0.34814 0.0
O438 O 0.44505 0.95747 0.34885 0.0
N439 N 0.41587 0.98333 0.40066 0.0
C440 C 0.40421 0.9761 0.41427 0.0
C441 C 0.38835 0.98685 0.41478 0.0
C442 C 0.40709 0.99836 0.3932 0.0
N443 N 0.39016 1.00085 0.40148 0.0
C444 C 0.43373 0.93479 0.39762 0.0
C445 C 0.40538 0.93116 0.37018 0.0
C446 C 0.41201 0.9152 0.37983 0.0
C447 C 0.42612 0.91728 0.39403 0.0
C448 C 0.41347 0.94842 0.3742 0.0
N449 N 0.42829 0.94991 0.38684 0.0
H450 H 0.44364 0.93623 0.40953 0.0
H451 H 0.40773 0.9606 0.3671 0.0
H452 H 0.40696 0.96377 0.423 0.0
H453 H 0.41287 1.00702 0.38159 0.0
O454 O 0.44672 0.9697 0.41964 0.0
O455 O 0.45168 0.99594 0.40324 0.0
O456 O 0.43451 0.98304 0.36432 0.0
C457 C 0.45367 0.98635 0.4196 0.0
H458 H 0.50337 0.97319 0.36036 0.0
H459 H 0.37645 0.98451 0.42429 0.0
H460 H 0.39415 0.93033 0.35949 0.0
H461 H 0.43096 0.90554 0.40268 0.0
Co462 Co 0.79851 0.68906 0.14383 0.0
C463 C 0.82087 0.72498 0.14059 0.0
C464 C 0.7937 0.7259 0.12761 0.0
C465 C 0.80183 0.74291 0.12507 0.0
N466 N 0.80564 0.71441 0.13699 0.0
N467 N 0.81891 0.74236 0.13316 0.0
H468 H 0.83311 0.72038 0.14835 0.0
H469 H 0.77985 0.72208 0.12294 0.0
C470 C 0.79796 0.69078 0.09968 0.0
O471 O 0.81406 0.69926 0.10102 0.0
N472 N 0.79008 0.66429 0.15027 0.0
C473 C 0.79721 0.65233 0.16367 0.0
C474 C 0.78662 0.63632 0.16349 0.0
C475 C 0.77534 0.6555 0.14218 0.0
N476 N 0.77291 0.63834 0.14991 0.0
C477 C 0.83759 0.68359 0.14958 0.0
C478 C 0.84272 0.6577 0.11969 0.0
C479 C 0.85806 0.66318 0.13114 0.0
C480 C 0.85524 0.6762 0.14638 0.0
C481 C 0.82524 0.66542 0.12347 0.0
N482 N 0.823 0.67894 0.13761 0.0
H483 H 0.83562 0.69279 0.16208 0.0
H484 H 0.81346 0.66015 0.11529 0.0
H485 H 0.80925 0.65503 0.17285 0.0
H486 H 0.76638 0.6617 0.13107 0.0
O487 O 0.80252 0.69435 0.17164 0.0
O488 O 0.77609 0.69931 0.15569 0.0
O489 O 0.78962 0.68537 0.11549 0.0
C490 C 0.78564 0.70061 0.17215 0.0
H491 H 0.79548 0.75492 0.11817 0.0
H492 H 0.789 0.62406 0.17246 0.0
H493 H 0.84407 0.64709 0.10834 0.0
H494 H 0.86656 0.6806 0.15589 0.0
Co495 Co 0.0869 0.0499 0.89444 0.0
C496 C 0.05084 0.07213 0.89176 0.0
C497 C 0.04961 0.04457 0.87975 0.0
C498 C 0.0325 0.05256 0.87762 0.0
N499 N 0.06132 0.0568 0.88833 0.0
N500 N 0.03322 0.06991 0.88508 0.0
H501 H 0.05567 0.08464 0.89883 0.0
H502 H 0.05333 0.03062 0.87534 0.0
C503 C 0.08386 0.04951 0.85045 0.0
O504 O 0.07526 0.06552 0.85214 0.0
N505 N 0.11187 0.04171 0.90021 0.0
C506 C 0.12398 0.04889 0.91341 0.0
C507 C 0.14001 0.03837 0.91298 0.0
C508 C 0.1206 0.027 0.89197 0.0
N509 N 0.13786 0.02464 0.89945 0.0
C510 C 0.09205 0.08913 0.9 0.0
C511 C 0.11734 0.09431 0.86955 0.0
C512 C 0.11171 0.10973 0.8808 0.0
C513 C 0.09904 0.10689 0.89636 0.0
C514 C 0.10988 0.07678 0.87363 0.0
N515 N 0.09664 0.0745 0.88803 0.0
H516 H 0.08321 0.08709 0.91278 0.0
H517 H 0.11505 0.065 0.86537 0.0
H518 H 0.12133 0.06089 0.92268 0.0
H519 H 0.11428 0.01799 0.88099 0.0
O520 O 0.08217 0.05371 0.92241 0.0
O521 O 0.07719 0.02731 0.90636 0.0
O522 O 0.08997 0.04119 0.86597 0.0
C523 C 0.07607 0.03675 0.92291 0.0
H524 H 0.02032 0.04591 0.87144 0.0
H525 H 0.15235 0.0408 0.9218 0.0
H526 H 0.12746 0.09574 0.85772 0.0
H527 H 0.09499 0.11821 0.90606 0.0
Co528 Co 0.79858 0.83798 0.64294 0.0
C529 C 0.81724 0.80084 0.64156 0.0
C530 C 0.80283 0.80724 0.61443 0.0
C531 C 0.81007 0.78973 0.61282 0.0
N532 N 0.80724 0.81432 0.63244 0.0
N533 N 0.81898 0.78557 0.6299 0.0
H534 H 0.82254 0.80186 0.65661 0.0
H535 H 0.7946 0.814 0.60316 0.0
C536 C 0.78921 0.85986 0.60623 0.0
O537 O 0.79771 0.87424 0.61413 0.0
N538 N 0.78889 0.86149 0.65311 0.0
C539 C 0.79621 0.87377 0.66613 0.0
C540 C 0.78441 0.88877 0.66779 0.0
C541 C 0.77239 0.86896 0.64777 0.0
N542 N 0.76949 0.88585 0.65604 0.0
C543 C 0.8344 0.8532 0.65214 0.0
C544 C 0.84773 0.85491 0.61359 0.0
C545 C 0.85926 0.86076 0.62922 0.0
C546 C 0.85238 0.85967 0.64872 0.0
C547 C 0.8298 0.84847 0.6177 0.0
N548 N 0.82291 0.84857 0.63672 0.0
H549 H 0.82999 0.8514 0.66735 0.0
H550 H 0.82172 0.84291 0.60554 0.0
H551 H 0.80914 0.8723 0.67397 0.0
H552 H 0.76283 0.86225 0.63763 0.0
O553 O 0.80372 0.8298 0.66971 0.0
O554 O 0.77703 0.82542 0.65407 0.0
O555 O 0.78833 0.8445 0.61576 0.0
C556 C 0.78707 0.82292 0.67003 0.0
H557 H 0.80873 0.78068 0.60001 0.0
H558 H 0.78699 0.90114 0.67652 0.0
H559 H 0.8527 0.85477 0.59835 0.0
H560 H 0.86083 0.8637 0.66136 0.0
Co561 Co 0.44019 0.55089 0.89108 0.0
C562 C 0.47452 0.574 0.88838 0.0
C563 C 0.47409 0.55152 0.86731 0.0
C564 C 0.49038 0.56113 0.86496 0.0
N565 N 0.46405 0.55967 0.8818 0.0
N566 N 0.49067 0.57525 0.87816 0.0
H567 H 0.47039 0.58328 0.90028 0.0
H568 H 0.47002 0.53919 0.85921 0.0
C569 C 0.42095 0.54459 0.85213 0.0
O570 O 0.40705 0.55462 0.85883 0.0
N571 N 0.41642 0.54077 0.90027 0.0
C572 C 0.40763 0.54365 0.9178 0.0
C573 C 0.39247 0.532 0.91903 0.0
C574 C 0.40693 0.52658 0.89176 0.0
N575 N 0.39199 0.52134 0.90253 0.0
C576 C 0.41966 0.58453 0.89886 0.0
C577 C 0.42628 0.60124 0.86245 0.0
C578 C 0.4153 0.61058 0.87648 0.0
C579 C 0.41221 0.60206 0.89497 0.0
C580 C 0.43336 0.58363 0.86691 0.0
N581 N 0.42942 0.57511 0.88467 0.0
H582 H 0.41798 0.57885 0.91354 0.0
H583 H 0.44195 0.57675 0.85596 0.0
H584 H 0.41228 0.55286 0.92949 0.0
H585 H 0.41138 0.5194 0.87846 0.0
O586 O 0.44753 0.55604 0.91813 0.0
O587 O 0.45254 0.5294 0.90247 0.0
O588 O 0.43497 0.54125 0.86328 0.0
C589 C 0.45458 0.53944 0.91853 0.0
H590 H 0.50144 0.55765 0.8547 0.0
H591 H 0.38274 0.53128 0.93129 0.0
H592 H 0.42923 0.60739 0.84805 0.0
H593 H 0.40444 0.60908 0.90656 0.0
Co594 Co 0.72557 0.18885 0.14067 0.0
C595 C 0.70211 0.22297 0.13748 0.0
C596 C 0.72337 0.22162 0.11505 0.0
C597 C 0.71344 0.23766 0.1123 0.0
N598 N 0.71617 0.21226 0.13064 0.0
N599 N 0.70012 0.23854 0.12637 0.0
H600 H 0.69357 0.21946 0.1502 0.0
H601 H 0.73526 0.21729 0.10641 0.0
C602 C 0.73348 0.16834 0.10296 0.0
O603 O 0.72453 0.15412 0.11063 0.0
N604 N 0.73631 0.16561 0.15058 0.0
C605 C 0.73233 0.15594 0.16729 0.0
C606 C 0.74454 0.14126 0.16898 0.0
C607 C 0.7517 0.15725 0.14321 0.0
N608 N 0.7567 0.14204 0.15372 0.0
C609 C 0.69174 0.16872 0.14869 0.0
C610 C 0.67635 0.1729 0.1112 0.0
C611 C 0.6664 0.16307 0.12572 0.0
C612 C 0.67426 0.16117 0.14472 0.0
C613 C 0.69387 0.1801 0.11577 0.0
N614 N 0.70175 0.17733 0.13411 0.0
H615 H 0.69678 0.16825 0.16373 0.0
H616 H 0.70106 0.18805 0.1045 0.0
H617 H 0.72203 0.15965 0.17824 0.0
H618 H 0.75929 0.16234 0.13046 0.0
O619 O 0.71987 0.19652 0.16744 0.0
O620 O 0.74653 0.20209 0.15207 0.0
O621 O 0.73565 0.1832 0.11318 0.0
C622 C 0.73623 0.20408 0.16794 0.0
H623 H 0.71616 0.2482 0.10117 0.0
H624 H 0.74481 0.13119 0.18096 0.0
H625 H 0.67069 0.17497 0.09641 0.0
H626 H 0.66672 0.1544 0.15665 0.0
Co627 Co 0.08532 0.47453 0.39308 0.0
C628 C 0.04941 0.45252 0.39001 0.0
C629 C 0.05102 0.47588 0.37032 0.0
C630 C 0.03413 0.46755 0.36767 0.0
N631 N 0.06104 0.46616 0.38376 0.0
N632 N 0.03311 0.45287 0.38 0.0
H633 H 0.05229 0.44291 0.40191 0.0
H634 H 0.05552 0.48859 0.36323 0.0
C635 C 0.08905 0.47403 0.34908 0.0
O636 O 0.08246 0.45702 0.34986 0.0
N637 N 0.10901 0.48409 0.40192 0.0
C638 C 0.12062 0.47682 0.41554 0.0
C639 C 0.13646 0.48761 0.4162 0.0
C640 C 0.11777 0.49919 0.3946 0.0
N641 N 0.13469 0.50167 0.40295 0.0
C642 C 0.09102 0.43522 0.39815 0.0
C643 C 0.12107 0.43201 0.37283 0.0
C644 C 0.114 0.41592 0.38188 0.0
C645 C 0.09896 0.41779 0.39497 0.0
C646 C 0.11264 0.44919 0.37642 0.0
N647 N 0.09707 0.45049 0.38802 0.0
H648 H 0.08043 0.43648 0.40935 0.0
H649 H 0.11867 0.46146 0.36981 0.0
H650 H 0.11796 0.46432 0.42402 0.0
H651 H 0.11183 0.50812 0.38332 0.0
O652 O 0.07797 0.47025 0.42027 0.0
O653 O 0.07307 0.49644 0.40375 0.0
O654 O 0.0911 0.48347 0.36511 0.0
C655 C 0.07103 0.48689 0.42014 0.0
H656 H 0.02312 0.47233 0.35794 0.0
H657 H 0.14854 0.48493 0.42533 0.0
H658 H 0.13296 0.43136 0.36299 0.0
H659 H 0.0937 0.40596 0.40319 0.0
Co660 Co 0.80035 0.18848 0.86088 0.0
C661 C 0.82133 0.22415 0.86315 0.0
C662 C 0.79984 0.22204 0.88522 0.0
C663 C 0.80786 0.23926 0.88673 0.0
N664 N 0.80827 0.21253 0.87051 0.0
N665 N 0.82127 0.24069 0.87278 0.0
H666 H 0.83009 0.22087 0.85052 0.0
H667 H 0.78819 0.21709 0.89386 0.0
C668 C 0.79239 0.16739 0.89835 0.0
O669 O 0.8012 0.15313 0.8906 0.0
N670 N 0.79124 0.16445 0.85148 0.0
C671 C 0.7986 0.15235 0.83831 0.0
C672 C 0.78725 0.13697 0.83704 0.0
C673 C 0.77505 0.15652 0.85723 0.0
N674 N 0.7725 0.13954 0.84908 0.0
C675 C 0.83632 0.17351 0.85175 0.0
C676 C 0.84989 0.17283 0.89025 0.0
C677 C 0.86096 0.16569 0.87485 0.0
C678 C 0.85409 0.16657 0.85532 0.0
C679 C 0.83215 0.17968 0.88597 0.0
N680 N 0.82503 0.17875 0.86708 0.0
H681 H 0.83188 0.17507 0.83652 0.0
H682 H 0.82425 0.18586 0.89792 0.0
H683 H 0.81113 0.1543 0.82986 0.0
H684 H 0.76562 0.16282 0.86781 0.0
O685 O 0.80497 0.19628 0.83388 0.0
O686 O 0.77832 0.20011 0.84979 0.0
O687 O 0.79078 0.18248 0.88845 0.0
C688 C 0.78815 0.20273 0.83371 0.0
H689 H 0.80389 0.25 0.89717 0.0
H690 H 0.78967 0.12486 0.82784 0.0
H691 H 0.85478 0.17299 0.90552 0.0
H692 H 0.86252 0.16225 0.84278 0.0
Co693 Co 0.08542 0.55118 0.11115 0.0
C694 C 0.05098 0.57429 0.11447 0.0
C695 C 0.05169 0.5513 0.1349 0.0
C696 C 0.03543 0.56078 0.13775 0.0
N697 N 0.06158 0.55985 0.12055 0.0
N698 N 0.03494 0.5752 0.12496 0.0
H699 H 0.05487 0.58384 0.10273 0.0
H700 H 0.05582 0.53873 0.14251 0.0
C701 C 0.10529 0.54376 0.14964 0.0
O702 O 0.12005 0.5521 0.1424 0.0
N703 N 0.10917 0.5411 0.10197 0.0
C704 C 0.11941 0.54567 0.08585 0.0
C705 C 0.13447 0.53389 0.08464 0.0
C706 C 0.11765 0.52583 0.10948 0.0
N707 N 0.13342 0.52145 0.09962 0.0
C708 C 0.10361 0.58583 0.10236 0.0
C709 C 0.10017 0.60124 0.1399 0.0
C710 C 0.10885 0.61166 0.12488 0.0
C711 C 0.11043 0.60368 0.10588 0.0
C712 C 0.09362 0.58334 0.13574 0.0
N713 N 0.09605 0.57549 0.11734 0.0
H714 H 0.10377 0.58071 0.08734 0.0
H715 H 0.08616 0.576 0.14727 0.0
H716 H 0.11593 0.5561 0.07496 0.0
H717 H 0.11231 0.51796 0.12193 0.0
O718 O 0.07796 0.556 0.08407 0.0
O719 O 0.07314 0.5295 0.10006 0.0
O720 O 0.0907 0.54185 0.13898 0.0
C721 C 0.071 0.53935 0.08389 0.0
H722 H 0.02448 0.557 0.14803 0.0
H723 H 0.14503 0.53414 0.07317 0.0
H724 H 0.09795 0.60702 0.15461 0.0
H725 H 0.11677 0.61119 0.09366 0.0
Co726 Co 0.72652 0.83559 0.3628 0.0
C727 C 0.70231 0.80205 0.36552 0.0
C728 C 0.72369 0.80247 0.38786 0.0
C729 C 0.7135 0.78651 0.39016 0.0
N730 N 0.71658 0.81233 0.3726 0.0
N731 N 0.70009 0.7862 0.37613 0.0
H732 H 0.69382 0.80603 0.35292 0.0
H733 H 0.73575 0.80637 0.39647 0.0
C734 C 0.73378 0.85621 0.40059 0.0
O735 O 0.72535 0.87053 0.39248 0.0
N736 N 0.73772 0.85868 0.353 0.0
C737 C 0.73456 0.86782 0.33574 0.0
C738 C 0.74681 0.88249 0.33419 0.0
C739 C 0.75268 0.86738 0.36095 0.0
N740 N 0.75809 0.88229 0.35021 0.0
C741 C 0.69324 0.85627 0.35383 0.0
C742 C 0.67681 0.85203 0.39079 0.0
C743 C 0.6673 0.86193 0.37599 0.0
C744 C 0.67572 0.8639 0.35727 0.0
C745 C 0.69438 0.84471 0.38675 0.0
N746 N 0.70273 0.84743 0.36865 0.0
H747 H 0.69875 0.85687 0.33898 0.0
H748 H 0.70119 0.83665 0.39819 0.0
H749 H 0.72471 0.86378 0.32442 0.0
H750 H 0.76001 0.86254 0.37401 0.0
O751 O 0.72135 0.82787 0.33592 0.0
O752 O 0.74757 0.82205 0.35204 0.0
O753 O 0.73594 0.84121 0.39061 0.0
C754 C 0.73761 0.82009 0.33591 0.0
H755 H 0.71616 0.77561 0.4009 0.0
H756 H 0.74738 0.89246 0.32213 0.0
H757 H 0.67075 0.84993 0.40539 0.0
H758 H 0.66855 0.87076 0.34513 0.0
Co759 Co 0.44019 0.47435 0.61019 0.0
C760 C 0.4745 0.45135 0.61304 0.0
C761 C 0.47406 0.47396 0.63395 0.0
C762 C 0.49032 0.46432 0.63644 0.0
N763 N 0.46407 0.46576 0.61946 0.0
N764 N 0.49061 0.45012 0.62333 0.0
H765 H 0.47036 0.44199 0.60122 0.0
H766 H 0.46996 0.48631 0.64199 0.0
C767 C 0.42024 0.48086 0.64865 0.0
O768 O 0.40617 0.47138 0.64143 0.0
N769 N 0.41633 0.4842 0.60114 0.0
C770 C 0.40603 0.47958 0.58506 0.0
C771 C 0.39094 0.49133 0.58391 0.0
C772 C 0.40779 0.49938 0.60875 0.0
N773 N 0.39201 0.50376 0.59891 0.0
C774 C 0.42282 0.43944 0.60083 0.0
C775 C 0.42591 0.42376 0.63829 0.0
C776 C 0.41775 0.41335 0.62297 0.0
C777 C 0.41644 0.42137 0.60399 0.0
C778 C 0.43233 0.44176 0.6344 0.0
N779 N 0.42989 0.4498 0.61608 0.0
H780 H 0.42275 0.44472 0.58586 0.0
H781 H 0.43955 0.4491 0.64611 0.0
H782 H 0.40949 0.46914 0.57418 0.0
H783 H 0.41315 0.50723 0.62121 0.0
O784 O 0.44767 0.46978 0.58307 0.0
O785 O 0.45225 0.49623 0.5992 0.0
O786 O 0.43473 0.48362 0.63805 0.0
C787 C 0.45446 0.48648 0.58297 0.0
H788 H 0.50134 0.46781 0.64675 0.0
H789 H 0.38037 0.4911 0.57245 0.0
H790 H 0.42782 0.41786 0.65301 0.0
H791 H 0.4106 0.41371 0.59158 0.0
Co792 Co 0.2271 0.18861 0.36183 0.0
C793 C 0.2067 0.22471 0.36456 0.0
C794 C 0.23015 0.22292 0.38427 0.0
C795 C 0.22283 0.24043 0.38568 0.0
N796 N 0.22008 0.21304 0.37111 0.0
N797 N 0.20818 0.24162 0.37325 0.0
H798 H 0.19669 0.22119 0.35313 0.0
H799 H 0.24247 0.21797 0.3918 0.0
C800 C 0.23266 0.1691 0.40067 0.0
O801 O 0.22203 0.15565 0.39396 0.0
N802 N 0.2357 0.16425 0.35268 0.0
C803 C 0.23193 0.1553 0.33544 0.0
C804 C 0.24309 0.13979 0.334 0.0
C805 C 0.24995 0.15452 0.36073 0.0
N806 N 0.25443 0.13928 0.34999 0.0
C807 C 0.19217 0.17039 0.35438 0.0
C808 C 0.17629 0.17777 0.39102 0.0
C809 C 0.166 0.16768 0.37692 0.0
C810 C 0.17422 0.16412 0.35836 0.0
C811 C 0.1943 0.18371 0.38643 0.0
N812 N 0.20234 0.17939 0.36854 0.0
H813 H 0.19759 0.16841 0.33964 0.0
H814 H 0.20178 0.19186 0.39732 0.0
H815 H 0.22268 0.16018 0.32392 0.0
H816 H 0.25739 0.15883 0.37389 0.0
O817 O 0.22211 0.19612 0.33483 0.0
O818 O 0.24917 0.19962 0.35012 0.0
O819 O 0.2366 0.18297 0.38954 0.0
C820 C 0.23906 0.20225 0.33421 0.0
H821 H 0.22807 0.25157 0.39494 0.0
H822 H 0.24343 0.13017 0.32161 0.0
H823 H 0.17038 0.1814 0.40534 0.0
H824 H 0.16689 0.15653 0.34686 0.0
Co825 Co 0.58504 0.47429 0.11131 0.0
C826 C 0.54972 0.45259 0.11318 0.0
C827 C 0.55144 0.4739 0.13551 0.0
C828 C 0.53431 0.4657 0.13677 0.0
N829 N 0.56115 0.4657 0.1208 0.0
N830 N 0.53312 0.4524 0.12267 0.0
H831 H 0.55314 0.44402 0.10044 0.0
H832 H 0.55617 0.48556 0.14429 0.0
C833 C 0.60519 0.48015 0.1498 0.0
O834 O 0.61907 0.47055 0.14235 0.0
N835 N 0.6088 0.48425 0.10188 0.0
C836 C 0.61743 0.4813 0.08427 0.0
C837 C 0.63257 0.49297 0.0828 0.0
C838 C 0.61837 0.49848 0.11023 0.0
N839 N 0.63321 0.50366 0.09926 0.0
C840 C 0.60437 0.44029 0.10233 0.0
C841 C 0.59871 0.42333 0.13879 0.0
C842 C 0.60851 0.41365 0.124 0.0
C843 C 0.61122 0.42241 0.10555 0.0
C844 C 0.59211 0.44126 0.13494 0.0
N845 N 0.59553 0.44983 0.11709 0.0
H846 H 0.60572 0.44615 0.08769 0.0
H847 H 0.58409 0.44821 0.14631 0.0
H848 H 0.61264 0.47212 0.07263 0.0
H849 H 0.61408 0.5057 0.12356 0.0
O850 O 0.5773 0.46968 0.08429 0.0
O851 O 0.57281 0.49613 0.10047 0.0
O852 O 0.59078 0.48335 0.13921 0.0
C853 C 0.57046 0.48637 0.08426 0.0
H854 H 0.52342 0.46949 0.14711 0.0
H855 H 0.64217 0.49368 0.07043 0.0
H856 H 0.59578 0.41697 0.15308 0.0
H857 H 0.61857 0.41553 0.09356 0.0
Co858 Co 0.30038 0.83615 0.85968 0.0
C859 C 0.32147 0.80045 0.86189 0.0
C860 C 0.29965 0.80236 0.88362 0.0
C861 C 0.30772 0.78519 0.88518 0.0
N862 N 0.30827 0.81199 0.86912 0.0
N863 N 0.32135 0.78387 0.87145 0.0
H864 H 0.33043 0.80386 0.84947 0.0
H865 H 0.2879 0.80726 0.89215 0.0
C866 C 0.29514 0.85584 0.89849 0.0
O867 O 0.30565 0.86933 0.89165 0.0
N868 N 0.29109 0.86022 0.85029 0.0
C869 C 0.29389 0.86848 0.83245 0.0
C870 C 0.28261 0.8839 0.83094 0.0
C871 C 0.27735 0.87034 0.85881 0.0
N872 N 0.27229 0.8851 0.84763 0.0
C873 C 0.33453 0.85567 0.85163 0.0
C874 C 0.35135 0.84827 0.88782 0.0
C875 C 0.36089 0.85907 0.87377 0.0
C876 C 0.35231 0.86256 0.85539 0.0
C877 C 0.3335 0.84176 0.8835 0.0
N878 N 0.32498 0.84607 0.86584 0.0
H879 H 0.32875 0.85769 0.83705 0.0
H880 H 0.32645 0.83336 0.89448 0.0
H881 H 0.30273 0.86326 0.82072 0.0
H882 H 0.27026 0.86646 0.87236 0.0
O883 O 0.30513 0.82844 0.8327 0.0
O884 O 0.27841 0.82449 0.84854 0.0
O885 O 0.29113 0.84192 0.88744 0.0
C886 C 0.28831 0.82194 0.83247 0.0
H887 H 0.30369 0.77441 0.89555 0.0
H888 H 0.28185 0.89328 0.81837 0.0
H889 H 0.35752 0.84506 0.90214 0.0
H890 H 0.35945 0.8702 0.84379 0.0
Co891 Co 0.93839 0.55231 0.6109 0.0
C892 C 0.97339 0.57555 0.61245 0.0
C893 C 0.97215 0.55454 0.63498 0.0
C894 C 0.98871 0.56372 0.63686 0.0
N895 N 0.96203 0.56239 0.62026 0.0
N896 N 0.98948 0.57692 0.62273 0.0
H897 H 0.97054 0.58342 0.59912 0.0
H898 H 0.96815 0.54238 0.64338 0.0
C899 C 0.93368 0.55309 0.65491 0.0
O900 O 0.93891 0.57057 0.65411 0.0
N901 N 0.91541 0.54122 0.60191 0.0
C902 C 0.9041 0.54722 0.5873 0.0
C903 C 0.88879 0.53572 0.58655 0.0
C904 C 0.90697 0.52615 0.60972 0.0
N905 N 0.89057 0.52247 0.60071 0.0
C906 C 0.93085 0.59132 0.60592 0.0
C907 C 0.90013 0.59286 0.63049 0.0
C908 C 0.9068 0.60939 0.62204 0.0
C909 C 0.92214 0.60836 0.60924 0.0
C910 C 0.90924 0.57608 0.62666 0.0
N911 N 0.92515 0.57564 0.61552 0.0
H912 H 0.94193 0.59077 0.59524 0.0
H913 H 0.90362 0.56344 0.6329 0.0
H914 H 0.90668 0.55927 0.57807 0.0
H915 H 0.91254 0.51833 0.62213 0.0
O916 O 0.94573 0.55668 0.58372 0.0
O917 O 0.95204 0.53106 0.60073 0.0
O918 O 0.93284 0.54337 0.63894 0.0
C919 C 0.95365 0.54048 0.5842 0.0
H920 H 0.99973 0.5604 0.64724 0.0
H921 H 0.87727 0.53707 0.57631 0.0
H922 H 0.88785 0.59285 0.6398 0.0
H923 H 0.92754 0.62063 0.60194 0.0
Co924 Co 0.22591 0.83586 0.14058 0.0
C925 C 0.20263 0.80166 0.13807 0.0
C926 C 0.22409 0.80244 0.11585 0.0
C927 C 0.21424 0.78626 0.11357 0.0
N928 N 0.21671 0.8122 0.13104 0.0
N929 N 0.20079 0.78575 0.12752 0.0
H930 H 0.19394 0.80555 0.15056 0.0
H931 H 0.23604 0.80661 0.10719 0.0
C932 C 0.23293 0.8557 0.10227 0.0
O933 O 0.22348 0.86979 0.10947 0.0
N934 N 0.23639 0.85939 0.15006 0.0
C935 C 0.23279 0.86874 0.16708 0.0
C936 C 0.24475 0.88364 0.16856 0.0
C937 C 0.25131 0.86821 0.14221 0.0
N938 N 0.25638 0.88336 0.15282 0.0
C939 C 0.1921 0.85614 0.14846 0.0
C940 C 0.17627 0.85088 0.11134 0.0
C941 C 0.16656 0.86127 0.12559 0.0
C942 C 0.17463 0.86366 0.14444 0.0
C943 C 0.19377 0.84366 0.11597 0.0
N944 N 0.20189 0.847 0.13408 0.0
H945 H 0.19738 0.85716 0.16338 0.0
H946 H 0.20082 0.83538 0.10489 0.0
H947 H 0.22297 0.8646 0.17838 0.0
H948 H 0.25864 0.86344 0.12915 0.0
O949 O 0.22055 0.82841 0.16753 0.0
O950 O 0.24713 0.82305 0.15191 0.0
O951 O 0.23573 0.84123 0.11293 0.0
C952 C 0.237 0.82104 0.1679 0.0
H953 H 0.21711 0.77541 0.10283 0.0
H954 H 0.24528 0.89347 0.18075 0.0
H955 H 0.1705 0.84844 0.09666 0.0
H956 H 0.16729 0.87088 0.1562 0.0
Co957 Co 0.93956 0.47363 0.89261 0.0
C958 C 0.97465 0.4515 0.89162 0.0
C959 C 0.97406 0.4736 0.87011 0.0
C960 C 0.99114 0.46528 0.86932 0.0
N961 N 0.96367 0.46498 0.88399 0.0
N962 N 0.99162 0.45149 0.88292 0.0
H963 H 0.97064 0.44254 0.90384 0.0
H964 H 0.96982 0.48566 0.86168 0.0
C965 C 0.92036 0.48096 0.8538 0.0
O966 O 0.90558 0.47253 0.86087 0.0
N967 N 0.91557 0.48365 0.90111 0.0
C968 C 0.90486 0.47891 0.91682 0.0
C969 C 0.88983 0.49073 0.91774 0.0
C970 C 0.90735 0.49905 0.89355 0.0
N971 N 0.89133 0.50336 0.90298 0.0
C972 C 0.92123 0.43893 0.90098 0.0
C973 C 0.92491 0.42381 0.86333 0.0
C974 C 0.91542 0.41366 0.87796 0.0
C975 C 0.91391 0.42134 0.89709 0.0
C976 C 0.93192 0.44145 0.86785 0.0
N977 N 0.92917 0.44926 0.88622 0.0
H978 H 0.92106 0.44388 0.91608 0.0
H979 H 0.93969 0.44877 0.85654 0.0
H980 H 0.908 0.46833 0.92766 0.0
H981 H 0.91306 0.50704 0.88138 0.0
O982 O 0.94637 0.46898 0.91994 0.0
O983 O 0.95149 0.4954 0.90391 0.0
O984 O 0.93486 0.48286 0.86461 0.0
C985 C 0.9533 0.48565 0.92019 0.0
H986 H 1.0025 0.46934 0.85971 0.0
H987 H 0.87899 0.49039 0.92889 0.0
H988 H 0.92681 0.41826 0.84846 0.0
H989 H 0.90753 0.41362 0.90913 0.0
Co990 Co 0.29855 0.18957 0.64403 0.0
C991 C 0.32 0.22504 0.64106 0.0
C992 C 0.29588 0.22431 0.6222 0.0
C993 C 0.30385 0.24155 0.62066 0.0
N994 N 0.30596 0.21395 0.63492 0.0
N995 N 0.31895 0.24206 0.63254 0.0
H996 H 0.33028 0.221 0.65199 0.0
H997 H 0.28322 0.21982 0.615 0.0
C998 C 0.29342 0.17022 0.60508 0.0
O999 O 0.30388 0.15673 0.61199 0.0
N1000 N 0.28965 0.16526 0.65314 0.0
C1001 C 0.2927 0.15685 0.67087 0.0
C1002 C 0.28162 0.14128 0.67229 0.0
C1003 C 0.27596 0.15505 0.64463 0.0
N1004 N 0.27117 0.14011 0.65568 0.0
C1005 C 0.333 0.1705 0.65165 0.0
C1006 C 0.34948 0.17826 0.61538 0.0
C1007 C 0.35918 0.16743 0.62926 0.0
C1008 C 0.35079 0.16378 0.64769 0.0
C1009 C 0.33161 0.1846 0.61991 0.0
N1010 N 0.32325 0.18009 0.63759 0.0
H1011 H 0.32735 0.16835 0.66627 0.0
H1012 H 0.32441 0.19306 0.60907 0.0
H1013 H 0.30155 0.16208 0.68259 0.0
H1014 H 0.26873 0.15898 0.63118 0.0
O1015 O 0.30339 0.19704 0.67106 0.0
O1016 O 0.27649 0.20078 0.65551 0.0
O1017 O 0.28929 0.18407 0.61617 0.0
C1018 C 0.2865 0.20333 0.67152 0.0
H1019 H 0.29883 0.25292 0.6116 0.0
H1020 H 0.28107 0.13177 0.68477 0.0
H1021 H 0.35552 0.18162 0.60104 0.0
H1022 H 0.35807 0.15612 0.65918 0.0
Co1023 Co 0.58556 0.55147 0.39062 0.0
C1024 C 0.54961 0.57205 0.3884 0.0
C1025 C 0.55291 0.55214 0.36483 0.0
C1026 C 0.5356 0.55986 0.36328 0.0
N1027 N 0.56178 0.55978 0.3805 0.0
N1028 N 0.53339 0.57224 0.37818 0.0
H1029 H 0.55223 0.57997 0.40182 0.0
H1030 H 0.55829 0.54116 0.35552 0.0
C1031 C 0.60637 0.54428 0.35275 0.0
O1032 O 0.62031 0.55383 0.36015 0.0
N1033 N 0.60919 0.54179 0.40061 0.0
C1034 C 0.61856 0.54612 0.41742 0.0
C1035 C 0.63368 0.5345 0.41923 0.0
C1036 C 0.61822 0.52679 0.39326 0.0
N1037 N 0.63351 0.52236 0.40392 0.0
C1038 C 0.60405 0.58607 0.39909 0.0
C1039 C 0.60055 0.60127 0.36145 0.0
C1040 C 0.60994 0.61142 0.37619 0.0
C1041 C 0.61138 0.60367 0.39529 0.0
C1042 C 0.5935 0.58362 0.36589 0.0
N1043 N 0.59608 0.57581 0.38429 0.0
H1044 H 0.60425 0.58106 0.41416 0.0
H1045 H 0.58594 0.57624 0.35446 0.0
H1046 H 0.61434 0.55622 0.42838 0.0
H1047 H 0.61352 0.51901 0.38046 0.0
O1048 O 0.57754 0.55664 0.41744 0.0
O1049 O 0.57326 0.52985 0.40186 0.0
O1050 O 0.59171 0.54167 0.36313 0.0
C1051 C 0.57076 0.53993 0.4178 0.0
H1052 H 0.52529 0.55633 0.35216 0.0
H1053 H 0.64362 0.53457 0.43133 0.0
H1054 H 0.59877 0.60684 0.34657 0.0
H1055 H 0.61769 0.61135 0.40741 0.0
H1056 H 0.30593 0.3182 0.20673 0.0
H1057 H 0.2975 0.29754 0.23413 0.0
H1058 H 0.24747 0.28199 0.20306 0.0
H1059 H 0.25595 0.30255 0.17532 0.0
H1060 H 0.26635 0.29639 0.25882 0.0
H1061 H 0.27273 0.23189 0.21391 0.0
H1062 H 0.28152 0.254 0.20543 0.0
H1063 H 0.25714 0.24894 0.20383 0.0
C1064 C 0.29305 0.3105 0.20574 0.0
C1065 C 0.28165 0.31195 0.18878 0.0
C1066 C 0.28826 0.29868 0.22144 0.0
C1067 C 0.27204 0.28796 0.2205 0.0
C1068 C 0.26026 0.28986 0.20392 0.0
H1069 H 0.22128 0.20733 0.29884 0.0
H1070 H 0.23009 0.22788 0.27149 0.0
C1071 C 0.26503 0.30173 0.18816 0.0
C1072 C 0.26771 0.27468 0.23682 0.0
H1073 H 0.26158 0.22856 0.24693 0.0
C1074 C 0.26536 0.28155 0.25624 0.0
C1075 C 0.26651 0.25531 0.23344 0.0
C1076 C 0.26976 0.24701 0.21308 0.0
C1077 C 0.26146 0.26963 0.27231 0.0
C1078 C 0.26022 0.25027 0.26892 0.0
C1079 C 0.2626 0.24339 0.2495 0.0
C1080 C 0.25569 0.23701 0.28519 0.0
C1081 C 0.25823 0.27791 0.29268 0.0
C1082 C 0.26741 0.2349 0.30179 0.0
C1083 C 0.26242 0.22306 0.31751 0.0
C1084 C 0.24563 0.21314 0.31685 0.0
C1085 C 0.23428 0.21481 0.29987 0.0
C1086 C 0.23929 0.22656 0.28419 0.0
H1087 H 0.25549 0.29308 0.2919 0.0
H1088 H 0.24632 0.27107 0.30021 0.0
H1089 H 0.27076 0.27574 0.30201 0.0
H1090 H 0.28031 0.24257 0.3027 0.0
H1091 H 0.27146 0.22207 0.33038 0.0
H1092 H 0.07539 0.97137 0.54357 0.0
H1093 H 0.05658 0.98066 0.51497 0.0
H1094 H 0.0374 0.02867 0.5474 0.0
H1095 H 0.05645 0.01957 0.57607 0.0
H1096 H 0.01859 0.98368 0.51514 0.0
H1097 H 0.05054 0.05073 0.49324 0.0
H1098 H 0.06202 0.0344 0.50952 0.0
H1099 H 0.04423 0.04946 0.51909 0.0
C1100 C 0.06745 0.98411 0.5445 0.0
C1101 C 0.06744 0.99477 0.56208 0.0
C1102 C 0.05666 0.98936 0.52815 0.0
C1103 C 0.04567 1.00541 0.52896 0.0
C1104 C 0.04604 0.01641 0.54627 0.0
H1105 H 0.96154 0.05506 0.4548 0.0
H1106 H 0.98295 0.04585 0.48116 0.0
C1107 C 0.05691 1.01119 0.56267 0.0
C1108 C 0.03286 1.00982 0.51224 0.0
H1109 H 0.0215 0.04332 0.47832 0.0
C1110 C 0.01932 0.99666 0.50697 0.0
C1111 C 0.03381 0.02677 0.50162 0.0
C1112 C 0.04853 0.0411 0.50599 0.0
C1113 C 1.0064 1.00017 0.49173 0.0
C1114 C 1.00724 0.01718 0.48125 0.0
C1115 C 0.02088 0.03028 0.48639 0.0
C1116 C 0.9937 0.022 0.46536 0.0
C1117 C 0.99164 0.98587 0.48737 0.0
C1118 C 0.99252 1.01156 0.44769 0.0
C1119 C 0.98017 0.01676 0.43252 0.0
C1120 C 0.96889 0.03255 0.43476 0.0
C1121 C 0.96998 0.04279 0.45258 0.0
C1122 C 0.98227 0.0376 0.46767 0.0
H1123 H 0.99026 0.97561 0.49966 0.0
H1124 H 0.97797 0.99261 0.48492 0.0
H1125 H 0.99538 0.97821 0.47359 0.0
H1126 H 1.00143 0.99963 0.44545 0.0
H1127 H 0.97977 1.00869 0.4189 0.0
H1128 H 0.30588 0.81651 0.79705 0.0
H1129 H 0.29647 0.79635 0.76961 0.0
H1130 H 0.24658 0.78178 0.80147 0.0
H1131 H 0.25583 0.8022 0.82904 0.0
H1132 H 0.29062 0.75838 0.77159 0.0
H1133 H 0.22699 0.79474 0.74592 0.0
H1134 H 0.24382 0.80558 0.76212 0.0
H1135 H 0.22736 0.78927 0.77205 0.0
C1136 C 0.29277 0.80921 0.79816 0.0
C1137 C 0.28156 0.811 0.81522 0.0
C1138 C 0.28744 0.79765 0.78245 0.0
C1139 C 0.27076 0.78766 0.78338 0.0
C1140 C 0.25936 0.78961 0.80026 0.0
H1141 H 0.21864 0.70751 0.70465 0.0
H1142 H 0.22753 0.72746 0.7325 0.0
C1143 C 0.26468 0.80125 0.81602 0.0
C1144 C 0.26586 0.77459 0.76705 0.0
H1145 H 0.23332 0.76545 0.73135 0.0
C1146 C 0.27811 0.75995 0.76274 0.0
C1147 C 0.24954 0.77664 0.75555 0.0
C1148 C 0.23622 0.79249 0.75897 0.0
C1149 C 0.27437 0.74718 0.74742 0.0
C1150 C 0.25809 0.74927 0.73586 0.0
C1151 C 0.2458 0.76386 0.74022 0.0
C1152 C 0.2534 0.7364 0.71928 0.0
C1153 C 0.28769 0.73132 0.74403 0.0
C1154 C 0.26505 0.7347 0.70256 0.0
C1155 C 0.26004 0.7232 0.68658 0.0
C1156 C 0.24321 0.71332 0.68699 0.0
C1157 C 0.23172 0.71489 0.70386 0.0
C1158 C 0.23675 0.72634 0.71979 0.0
H1159 H 0.29672 0.72891 0.75721 0.0
H1160 H 0.28012 0.71828 0.74058 0.0
H1161 H 0.29677 0.73467 0.73116 0.0
H1162 H 0.27781 0.7426 0.70167 0.0
H1163 H 0.2691 0.72241 0.67373 0.0
H1164 H 0.45921 0.05665 0.04898 0.0
H1165 H 0.48003 0.04769 0.02199 0.0
H1166 H 0.49584 0.99857 0.05459 0.0
H1167 H 0.47503 1.00758 0.08195 0.0
H1168 H 0.52614 0.01945 0.03974 0.0
H1169 H 0.47408 1.00653 0.98041 0.0
H1170 H 0.47166 0.02867 0.99242 0.0
H1171 H 0.46797 1.00773 0.00648 0.0
C1172 C 0.46691 0.0438 0.05035 0.0
C1173 C 0.46539 0.03277 0.06759 0.0
C1174 C 0.47877 0.03866 0.03484 0.0
C1175 C 0.48933 0.02235 0.03614 0.0
C1176 C 0.48773 1.01117 0.05323 0.0
H1177 H 0.57221 0.97152 0.95985 0.0
H1178 H 0.55238 0.98068 0.98764 0.0
C1179 C 0.47578 0.01629 0.0688 0.0
C1180 C 0.50264 0.01754 0.02003 0.0
H1181 H 0.5056 1.00846 0.97014 0.0
C1182 C 0.52166 0.0169 0.02455 0.0
C1183 C 0.49678 0.01438 1.00018 0.0
C1184 C 0.4765 0.01418 0.99456 0.0
C1185 C 0.53499 0.01353 0.00968 0.0
C1186 C 0.52912 1.0104 0.98982 0.0
C1187 C 0.5101 1.011 0.98533 0.0
C1188 C 0.54238 1.00579 0.97358 0.0
C1189 C 0.55527 0.01375 0.01529 0.0
C1190 C 0.54336 0.01683 0.95633 0.0
C1191 C 0.55471 1.0116 0.94032 0.0
C1192 C 0.56513 0.99512 0.94122 0.0
C1193 C 0.56446 0.98436 0.95871 0.0
C1194 C 0.55317 0.98961 0.97468 0.0
H1195 H 0.55768 0.02144 0.02942 0.0
H1196 H 0.56011 0.99926 0.01749 0.0
H1197 H 0.56379 0.02016 0.00335 0.0
H1198 H 0.53507 0.02933 0.95512 0.0
H1199 H 0.5548 0.0201 0.927 0.0
H1200 H 0.21877 0.81616 0.20306 0.0
H1201 H 0.22719 0.79574 0.23067 0.0
H1202 H 0.27682 0.77933 0.19939 0.0
H1203 H 0.2686 0.80002 0.17171 0.0
H1204 H 0.2317 0.75776 0.22946 0.0
H1205 H 0.29658 0.79199 0.25473 0.0
H1206 H 0.28028 0.8032 0.23821 0.0
H1207 H 0.29629 0.78623 0.22869 0.0
C1208 C 0.23162 0.8084 0.20213 0.0
C1209 C 0.24307 0.80978 0.18521 0.0
C1210 C 0.23637 0.79668 0.21792 0.0
C1211 C 0.2527 0.78612 0.21722 0.0
C1212 C 0.26431 0.78761 0.20044 0.0
H1213 H 0.30295 0.70434 0.29475 0.0
H1214 H 0.29381 0.72434 0.26707 0.0
C1215 C 0.25958 0.7994 0.1846 0.0
C1216 C 0.2571 0.77303 0.2337 0.0
H1217 H 0.28958 0.76272 0.2691 0.0
C1218 C 0.24432 0.75888 0.23819 0.0
C1219 C 0.27355 0.77452 0.2451 0.0
C1220 C 0.2874 0.78989 0.24161 0.0
C1221 C 0.2477 0.74599 0.2535 0.0
C1222 C 0.26419 0.74743 0.26483 0.0
C1223 C 0.27695 0.7616 0.26038 0.0
C1224 C 0.26872 0.73426 0.28118 0.0
C1225 C 0.23382 0.73067 0.25712 0.0
C1226 C 0.25752 0.73299 0.29829 0.0
C1227 C 0.26269 0.72145 0.3142 0.0
C1228 C 0.2792 0.7111 0.31329 0.0
C1229 C 0.29012 0.7121 0.29594 0.0
C1230 C 0.28495 0.72358 0.2801 0.0
H1231 H 0.22432 0.7288 0.24423 0.0
H1232 H 0.24095 0.71729 0.26014 0.0
H1233 H 0.22529 0.7342 0.27036 0.0
H1234 H 0.24509 0.74134 0.2996 0.0
H1235 H 0.25409 0.72113 0.32744 0.0
H1236 H 0.47426 0.01834 0.42245 0.0
H1237 H 0.49528 0.02724 0.44966 0.0
H1238 H 0.47934 0.97827 0.48243 0.0
H1239 H 0.45854 0.96922 0.4554 0.0
H1240 H 0.48853 0.03354 0.49078 0.0
H1241 H 0.53604 0.97383 0.47938 0.0
H1242 H 0.51892 0.98063 0.46113 0.0
H1243 H 0.51216 0.96741 0.48267 0.0
C1244 C 0.47511 1.00958 0.43554 0.0
C1245 C 0.46482 0.99303 0.43671 0.0
C1246 C 0.48716 0.01464 0.45104 0.0
C1247 C 0.48917 1.0032 0.46787 0.0
C1248 C 0.47835 0.98707 0.46938 0.0
H1249 H 0.55308 1.00705 0.57785 0.0
H1250 H 0.53309 0.99813 0.54979 0.0
C1251 C 0.46635 0.98201 0.45395 0.0
C1252 C 0.50259 1.00799 0.48387 0.0
H1253 H 0.54089 0.99194 0.50855 0.0
C1254 C 0.50005 0.02452 0.49458 0.0
C1255 C 0.5176 0.99616 0.48885 0.0
C1256 C 0.5215 0.97859 0.4773 0.0
C1257 C 0.51186 0.02935 0.51043 0.0
C1258 C 0.52682 0.01749 0.51546 0.0
C1259 C 0.5294 1.00098 0.50471 0.0
C1260 C 0.53997 0.02209 0.53178 0.0
C1261 C 0.50796 0.04691 0.52199 0.0
C1262 C 0.55095 0.03814 0.53064 0.0
C1263 C 0.56238 0.04322 0.54656 0.0
C1264 C 0.56315 0.03228 0.56393 0.0
C1265 C 0.55281 0.01574 0.56468 0.0
C1266 C 0.54134 1.01067 0.54869 0.0
H1267 H 0.49354 0.0519 0.51961 0.0
H1268 H 0.51018 0.04473 0.53821 0.0
H1269 H 0.51758 0.05798 0.51694 0.0
H1270 H 0.55043 0.04693 0.51755 0.0
H1271 H 0.57024 0.056 0.54545 0.0
H1272 H 0.25413 0.22321 0.67518 0.0
H1273 H 0.24515 0.24364 0.70286 0.0
H1274 H 0.2952 0.22885 0.73432 0.0
H1275 H 0.30412 0.20834 0.70698 0.0
H1276 H 0.26374 0.22945 0.7587 0.0
H1277 H 0.26979 0.29412 0.71397 0.0
H1278 H 0.25453 0.27682 0.70377 0.0
H1279 H 0.27897 0.27215 0.70557 0.0
C1280 C 0.2631 0.22417 0.6881 0.0
C1281 C 0.27987 0.21422 0.68884 0.0
C1282 C 0.25804 0.23597 0.70382 0.0
C1283 C 0.26969 0.23803 0.72049 0.0
C1284 C 0.28607 0.22757 0.72156 0.0
H1285 H 0.26902 0.30333 0.83052 0.0
H1286 H 0.27769 0.28293 0.80271 0.0
C1287 C 0.29113 0.21584 0.70589 0.0
C1288 C 0.26509 0.25123 0.73678 0.0
H1289 H 0.25881 0.2973 0.74703 0.0
C1290 C 0.26269 0.24428 0.75617 0.0
C1291 C 0.26381 0.2706 0.73346 0.0
C1292 C 0.26706 0.27895 0.71312 0.0
C1293 C 0.25873 0.25614 0.77227 0.0
C1294 C 0.25749 0.27551 0.76895 0.0
C1295 C 0.25985 0.28245 0.74956 0.0
C1296 C 0.25306 0.28872 0.78529 0.0
C1297 C 0.25548 0.24778 0.79261 0.0
C1298 C 0.23674 0.29928 0.78439 0.0
C1299 C 0.23184 0.31099 0.80013 0.0
C1300 C 0.24323 0.31249 0.8171 0.0
C1301 C 0.25995 0.30246 0.81767 0.0
C1302 C 0.26483 0.29068 0.80188 0.0
H1303 H 0.25263 0.23264 0.79173 0.0
H1304 H 0.26805 0.2498 0.80191 0.0
H1305 H 0.24365 0.25466 0.80021 0.0
H1306 H 0.22751 0.29808 0.7717 0.0
H1307 H 0.21889 0.31856 0.79918 0.0
H1308 H 0.07339 0.05327 0.95931 0.0
H1309 H 0.05378 0.04402 0.98725 0.0
H1310 H 0.0366 0.99519 0.95494 0.0
H1311 H 0.05611 1.00451 0.92667 0.0
H1312 H 1.00711 0.01613 0.96986 0.0
H1313 H 0.05919 1.00335 0.02918 0.0
H1314 H 0.06166 0.02547 0.01713 0.0
H1315 H 0.06529 1.00451 0.0031 0.0
C1316 C 0.06572 0.04037 0.95825 0.0
C1317 C 0.06634 0.02959 0.94077 0.0
C1318 C 0.05457 0.03506 0.97431 0.0
C1319 C 0.04387 0.01882 0.9733 0.0
C1320 C 0.04483 1.00774 0.95608 0.0
H1321 H 0.96036 0.96891 0.04909 0.0
H1322 H 0.98133 0.97742 0.02207 0.0
C1323 C 0.05605 0.01303 0.93998 0.0
C1324 C 0.03063 0.01424 0.98955 0.0
H1325 H 0.02765 1.00553 0.03954 0.0
C1326 C 1.01161 0.01367 0.98507 0.0
C1327 C 0.0365 1.01122 0.00943 0.0
C1328 C 0.05678 1.01099 0.01502 0.0
C1329 C 0.99828 1.01043 0.99995 0.0
C1330 C 1.00415 1.00739 0.01982 0.0
C1331 C 0.02317 1.00798 0.02432 0.0
C1332 C 0.99082 1.00281 0.03597 0.0
C1333 C 0.978 1.01067 0.99433 0.0
C1334 C 0.98929 0.01416 0.05294 0.0
C1335 C 0.97727 1.0093 0.06853 0.0
C1336 C 0.96672 0.99291 0.06746 0.0
C1337 C 0.96818 0.9817 0.05035 0.0
C1338 C 0.98013 0.98658 0.03482 0.0
H1339 H 0.97561 0.01822 0.98012 0.0
H1340 H 0.97309 0.99618 0.99233 0.0
H1341 H 0.96951 0.01724 0.0062 0.0
H1342 H 0.99751 0.02671 0.05417 0.0
H1343 H 0.97657 0.01813 0.08157 0.0
H1344 H 0.71889 0.70827 0.79844 0.0
H1345 H 0.72757 0.72823 0.77058 0.0
H1346 H 0.77807 0.74337 0.801 0.0
H1347 H 0.76934 0.72346 0.82922 0.0
H1348 H 0.75791 0.77384 0.78622 0.0
H1349 H 0.76688 0.72033 0.72753 0.0
H1350 H 0.74506 0.71897 0.74036 0.0
H1351 H 0.76625 0.71469 0.75375 0.0
C1352 C 0.73197 0.71565 0.79915 0.0
C1353 C 0.74347 0.71421 0.81604 0.0
C1354 C 0.73695 0.727 0.78313 0.0
C1355 C 0.75359 0.7371 0.78355 0.0
C1356 C 0.76522 0.73559 0.80031 0.0
H1357 H 0.80529 0.81731 0.70503 0.0
H1358 H 0.79644 0.7971 0.73259 0.0
C1359 C 0.76025 0.72417 0.81639 0.0
C1360 C 0.75827 0.74995 0.76694 0.0
H1361 H 0.76592 0.75177 0.71668 0.0
C1362 C 0.75979 0.76901 0.77104 0.0
C1363 C 0.76056 0.74364 0.7471 0.0
C1364 C 0.75978 0.72328 0.74189 0.0
C1365 C 0.76325 0.78196 0.75581 0.0
C1366 C 0.76557 0.77565 0.73597 0.0
C1367 C 0.76402 0.7566 0.73186 0.0
C1368 C 0.77041 0.78851 0.71943 0.0
C1369 C 0.76405 0.80232 0.76103 0.0
C1370 C 0.75884 0.79024 0.70265 0.0
C1371 C 0.7639 0.80183 0.68673 0.0
C1372 C 0.78072 0.81172 0.68728 0.0
C1373 C 0.79218 0.81 0.70416 0.0
C1374 C 0.78711 0.7985 0.72001 0.0
H1375 H 0.75689 0.80528 0.77536 0.0
H1376 H 0.77877 0.8066 0.76264 0.0
H1377 H 0.75764 0.81093 0.74914 0.0
H1378 H 0.74594 0.78255 0.70183 0.0
H1379 H 0.75485 0.80275 0.67388 0.0
H1380 H 0.75384 0.30167 0.32924 0.0
H1381 H 0.74503 0.28133 0.30134 0.0
H1382 H 0.79375 0.29863 0.269 0.0
H1383 H 0.80266 0.31875 0.29662 0.0
H1384 H 0.73898 0.28952 0.25982 0.0
H1385 H 0.79842 0.24161 0.27086 0.0
H1386 H 0.79121 0.25809 0.2896 0.0
H1387 H 0.8048 0.26563 0.26864 0.0
C1388 C 0.76256 0.30125 0.3161 0.0
C1389 C 0.779 0.31174 0.31521 0.0
C1390 C 0.75754 0.2896 0.30021 0.0
C1391 C 0.76895 0.28819 0.28328 0.0
C1392 C 0.78496 0.29919 0.28209 0.0
H1393 H 0.76784 0.22506 0.1724 0.0
H1394 H 0.77572 0.24553 0.20047 0.0
C1395 C 0.78996 0.31078 0.29788 0.0
C1396 C 0.76433 0.27517 0.26684 0.0
H1397 H 0.78077 0.23755 0.24127 0.0
C1398 C 0.74803 0.27808 0.25584 0.0
C1399 C 0.77622 0.2603 0.26161 0.0
C1400 C 0.79357 0.25606 0.27338 0.0
C1401 C 0.7435 0.26675 0.23946 0.0
C1402 C 0.75543 0.2519 0.2342 0.0
C1403 C 0.77169 0.24897 0.24526 0.0
C1404 C 0.75105 0.23906 0.21751 0.0
C1405 C 0.72622 0.27108 0.22764 0.0
C1406 C 0.73486 0.22826 0.21803 0.0
C1407 C 0.73037 0.21661 0.2021 0.0
C1408 C 0.74204 0.21536 0.18534 0.0
C1409 C 0.75857 0.22572 0.18509 0.0
C1410 C 0.76306 0.23744 0.20109 0.0
H1411 H 0.72146 0.28557 0.23011 0.0
H1412 H 0.72858 0.269 0.21143 0.0
H1413 H 0.7149 0.26161 0.2324 0.0
H1414 H 0.72562 0.22893 0.23074 0.0
H1415 H 0.71758 0.20873 0.20285 0.0
H1416 H 0.71915 0.31898 0.7074 0.0
H1417 H 0.72806 0.299 0.73521 0.0
H1418 H 0.77808 0.28356 0.70408 0.0
H1419 H 0.76933 0.30375 0.67617 0.0
H1420 H 0.73342 0.26094 0.73356 0.0
H1421 H 0.79725 0.29654 0.75976 0.0
H1422 H 0.78072 0.30753 0.74332 0.0
H1423 H 0.79717 0.29108 0.73364 0.0
C1424 C 0.73219 0.31155 0.70655 0.0
C1425 C 0.74358 0.31301 0.68958 0.0
C1426 C 0.73723 0.30009 0.72246 0.0
C1427 C 0.75379 0.28989 0.72182 0.0
C1428 C 0.76539 0.29155 0.70506 0.0
H1429 H 0.80564 0.20841 0.79829 0.0
H1430 H 0.79634 0.22899 0.77118 0.0
C1431 C 0.76036 0.30307 0.6891 0.0
C1432 C 0.75836 0.27682 0.73825 0.0
H1433 H 0.79086 0.26695 0.77377 0.0
C1434 C 0.74593 0.2623 0.74243 0.0
C1435 C 0.77469 0.27862 0.7498 0.0
C1436 C 0.78817 0.29437 0.74658 0.0
C1437 C 0.74957 0.24929 0.75756 0.0
C1438 C 0.76593 0.25104 0.76905 0.0
C1439 C 0.77832 0.26562 0.76493 0.0
C1440 C 0.77074 0.23771 0.78516 0.0
C1441 C 0.7361 0.23353 0.76077 0.0
C1442 C 0.75935 0.23561 0.80202 0.0
C1443 C 0.7646 0.22372 0.81759 0.0
C1444 C 0.78141 0.21385 0.8166 0.0
C1445 C 0.79259 0.21577 0.79953 0.0
C1446 C 0.78733 0.22759 0.78402 0.0
H1447 H 0.72682 0.23153 0.74771 0.0
H1448 H 0.74357 0.22032 0.76371 0.0
H1449 H 0.72729 0.23666 0.77391 0.0
H1450 H 0.74664 0.24353 0.80339 0.0
H1451 H 0.75578 0.22268 0.83062 0.0
H1452 H 0.76861 0.79803 0.3327 0.0
H1453 H 0.77679 0.77737 0.30489 0.0
H1454 H 0.72794 0.79512 0.27302 0.0
H1455 H 0.71982 0.81579 0.30045 0.0
H1456 H 0.75511 0.74791 0.28942 0.0
H1457 H 0.76892 0.80096 0.23132 0.0
H1458 H 0.768 0.80654 0.25755 0.0
H1459 H 0.74692 0.80365 0.24353 0.0
C1460 C 0.75978 0.7977 0.31964 0.0
C1461 C 0.74363 0.80862 0.31875 0.0
C1462 C 0.76442 0.78585 0.30381 0.0
C1463 C 0.75309 0.78488 0.28677 0.0
C1464 C 0.73708 0.7959 0.28582 0.0
H1465 H 0.75387 0.72134 0.17599 0.0
H1466 H 0.74486 0.74074 0.2045 0.0
C1467 C 0.73243 0.80766 0.30159 0.0
C1468 C 0.75746 0.7718 0.27029 0.0
H1469 H 0.76623 0.76971 0.22027 0.0
C1470 C 0.75768 0.75266 0.27432 0.0
C1471 C 0.76064 0.77802 0.25057 0.0
C1472 C 0.76129 0.79842 0.24546 0.0
C1473 C 0.76068 0.73958 0.2591 0.0
C1474 C 0.76385 0.74581 0.23938 0.0
C1475 C 0.76364 0.76494 0.23536 0.0
C1476 C 0.76828 0.73281 0.22284 0.0
C1477 C 0.76006 0.71918 0.26421 0.0
C1478 C 0.78432 0.72181 0.22373 0.0
C1479 C 0.78944 0.71074 0.20754 0.0
C1480 C 0.77869 0.71048 0.19003 0.0
C1481 C 0.76235 0.72112 0.18932 0.0
C1482 C 0.75725 0.73227 0.20555 0.0
H1483 H 0.75232 0.71662 0.27827 0.0
H1484 H 0.75349 0.71103 0.25205 0.0
H1485 H 0.77443 0.714 0.26628 0.0
H1486 H 0.79324 0.72226 0.23671 0.0
H1487 H 0.80217 0.7028 0.20855 0.0
H1488 H 0.45949 0.55751 0.95382 0.0
H1489 H 0.47925 0.5485 0.98177 0.0
H1490 H 0.49406 0.49802 0.95109 0.0
H1491 H 0.47439 0.50707 0.92282 0.0
H1492 H 0.47848 0.51714 0.00634 0.0
H1493 H 0.5446 0.52152 0.96406 0.0
H1494 H 0.52314 0.53115 0.9548 0.0
H1495 H 0.52737 0.5066 0.95318 0.0
C1496 C 0.46687 0.54443 0.95301 0.0
C1497 C 0.46543 0.53304 0.93603 0.0
C1498 C 0.47817 0.53931 0.96903 0.0
C1499 C 0.48838 0.52275 0.96841 0.0
C1500 C 0.48659 0.51105 0.95173 0.0
H1501 H 0.56526 0.46892 0.04871 0.0
H1502 H 0.54543 0.47845 0.02106 0.0
C1503 C 0.47523 0.51616 0.93565 0.0
C1504 C 0.50095 0.51789 0.98522 0.0
H1505 H 0.5464 0.50999 0.99707 0.0
C1506 C 0.49334 0.51563 0.00434 0.0
C1507 C 0.52035 0.51601 0.9826 0.0
C1508 C 0.52943 0.5191 0.9626 0.0
C1509 C 0.50454 0.51115 0.02083 0.0
C1510 C 0.52394 0.50922 0.0182 0.0
C1511 C 0.53154 0.51153 0.99908 0.0
C1512 C 0.53648 0.50404 0.03492 0.0
C1513 C 0.49546 0.50803 0.04082 0.0
C1514 C 0.53841 0.51547 0.0518 0.0
C1515 C 0.54982 0.51004 0.06773 0.0
C1516 C 0.55953 0.49313 0.06698 0.0
C1517 C 0.55795 0.48201 0.04981 0.0
C1518 C 0.5466 0.48744 0.03395 0.0
H1519 H 0.48026 0.50576 0.03938 0.0
H1520 H 0.50165 0.49587 0.04853 0.0
H1521 H 0.49766 0.52044 0.05033 0.0
H1522 H 0.53101 0.52853 0.05271 0.0
H1523 H 0.55077 0.51892 0.08072 0.0
H1524 H 0.95821 0.55763 0.54838 0.0
H1525 H 0.97812 0.54827 0.52073 0.0
H1526 H 0.99501 0.49965 0.55358 0.0
H1527 H 0.97485 0.50885 0.58137 0.0
H1528 H 0.01629 0.54342 0.52134 0.0
H1529 H 0.98062 0.47824 0.49918 0.0
H1530 H 0.96995 0.49528 0.51524 0.0
H1531 H 0.98692 0.47945 0.52506 0.0
C1532 C 0.966 0.54483 0.54969 0.0
C1533 C 0.96487 0.53393 0.56706 0.0
C1534 C 0.97742 0.53953 0.53386 0.0
C1535 C 0.98794 0.52318 0.53497 0.0
C1536 C 0.98677 0.51216 0.55223 0.0
H1537 H 0.06675 0.47 0.45612 0.0
H1538 H 0.04723 0.47969 0.48394 0.0
C1539 C 0.97528 0.51745 0.56813 0.0
C1540 C 1.00056 0.51814 0.51829 0.0
H1541 H 1.0093 0.48473 0.48339 0.0
C1542 C 0.01473 0.53061 0.51299 0.0
C1543 C 0.99851 0.50145 0.5074 0.0
C1544 C 0.98309 0.48788 0.51184 0.0
C1545 C 0.0271 0.52669 0.49734 0.0
C1546 C 0.02505 0.50999 0.48645 0.0
C1547 C 1.01086 0.49753 0.49175 0.0
C1548 C 0.03766 0.50491 0.46977 0.0
C1549 C 0.04252 0.54025 0.4929 0.0
C1550 C 0.0389 0.51593 0.45251 0.0
C1551 C 0.05018 0.51045 0.43652 0.0
C1552 C 0.06029 0.49378 0.43747 0.0
C1553 C 0.05918 0.48294 0.45488 0.0
C1554 C 0.04797 0.48843 0.47082 0.0
H1555 H 0.04502 0.54985 0.50559 0.0
H1556 H 0.05564 0.53285 0.48944 0.0
H1557 H 0.03866 0.54873 0.47973 0.0
H1558 H 0.03081 0.52854 0.45121 0.0
H1559 H 0.05061 0.51901 0.42325 0.0
H1560 H 0.05107 0.507 0.08026 0.0
H1561 H 0.03127 0.49757 0.05221 0.0
H1562 H 0.04601 0.54764 0.02073 0.0
H1563 H 0.06586 0.55702 0.04842 0.0
H1564 H 1.00064 0.51715 0.03679 0.0
H1565 H 0.05454 0.50745 0.9787 0.0
H1566 H 0.06002 0.50866 0.00493 0.0
H1567 H 0.05563 0.52955 0.99102 0.0
C1568 C 0.05029 0.51585 0.06723 0.0
C1569 C 0.06011 0.53271 0.06654 0.0
C1570 C 0.03893 0.51048 0.05126 0.0
C1571 C 0.03734 0.52179 0.03425 0.0
C1572 C 0.04729 0.53851 0.03349 0.0
H1573 H 0.97316 0.51801 0.92397 0.0
H1574 H 0.99276 0.52747 0.95215 0.0
C1575 C 0.05859 0.54389 0.04941 0.0
C1576 C 0.02463 0.51662 0.01769 0.0
H1577 H 0.0232 0.5079 0.96762 0.0
C1578 C 1.00558 0.51499 0.02169 0.0
C1579 C 0.03107 0.51396 0.99796 0.0
C1580 C 0.05145 0.51482 0.99287 0.0
C1581 C 0.99276 0.51109 0.00645 0.0
C1582 C 0.9992 0.50844 0.98672 0.0
C1583 C 0.01826 0.51005 0.98272 0.0
C1584 C 0.9865 0.50331 0.97013 0.0
C1585 C 0.97238 0.51025 0.01154 0.0
C1586 C 0.97647 0.48662 0.97087 0.0
C1587 C 0.96528 0.48123 0.95487 0.0
C1588 C 0.96393 0.49237 0.93769 0.0
C1589 C 0.9738 0.5092 0.93703 0.0
C1590 C 0.98505 0.51458 0.95309 0.0
H1591 H 0.96929 0.51764 0.02569 0.0
H1592 H 0.96381 0.51639 0.99946 0.0
H1593 H 0.9682 0.49552 0.01341 0.0
H1594 H 0.97765 0.47752 0.98366 0.0
H1595 H 0.95797 0.46812 0.95582 0.0
H1596 H 0.5512 0.50737 0.42187 0.0
H1597 H 0.53131 0.49816 0.44992 0.0
H1598 H 0.54527 0.54887 0.48064 0.0
H1599 H 0.56522 0.55804 0.45292 0.0
H1600 H 0.5463 0.51753 0.50523 0.0
H1601 H 0.48037 0.5211 0.46245 0.0
H1602 H 0.49788 0.5064 0.45175 0.0
H1603 H 0.50177 0.531 0.45335 0.0
C1604 C 0.55011 0.51648 0.43467 0.0
C1605 C 0.55973 0.53346 0.43513 0.0
C1606 C 0.53864 0.51128 0.45061 0.0
C1607 C 0.53655 0.52299 0.46724 0.0
C1608 C 0.54657 0.53967 0.46793 0.0
H1609 H 0.47388 0.51918 0.57921 0.0
H1610 H 0.49356 0.52878 0.55116 0.0
C1611 C 0.55798 0.54488 0.45204 0.0
C1612 C 0.52394 0.51801 0.48395 0.0
H1613 H 0.47849 0.50981 0.49554 0.0
C1614 C 0.53146 0.51588 0.50313 0.0
C1615 C 0.50458 0.51595 0.48121 0.0
C1616 C 0.49558 0.51888 0.46113 0.0
C1617 C 0.52021 0.51138 0.51957 0.0
C1618 C 0.50085 0.50931 0.51682 0.0
C1619 C 0.49332 0.51146 0.49764 0.0
C1620 C 0.48825 0.50417 0.53351 0.0
C1621 C 0.52923 0.50842 0.53963 0.0
C1622 C 0.47823 0.4875 0.53262 0.0
C1623 C 0.46692 0.48208 0.54851 0.0
C1624 C 0.46528 0.49326 0.56562 0.0
C1625 C 0.47487 0.51025 0.56626 0.0
C1626 C 0.48624 0.51567 0.55032 0.0
H1627 H 0.54443 0.5062 0.53828 0.0
H1628 H 0.52695 0.52088 0.54904 0.0
H1629 H 0.52304 0.49628 0.54739 0.0
H1630 H 0.47947 0.47846 0.51978 0.0
H1631 H 0.45969 0.46892 0.54748 0.0
H1632 H 0.35874 0.28485 0.13963 0.0
H1633 H 0.37907 0.25744 0.14253 0.0
H1634 H 0.3312 0.22165 0.13909 0.0
H1635 H 0.31103 0.24877 0.13628 0.0
H1636 H 0.3595 0.21179 0.16938 0.0
H1637 H 0.38691 0.22232 0.09247 0.0
H1638 H 0.38776 0.24157 0.1096 0.0
H1639 H 0.36576 0.23324 0.10087 0.0
C1640 C 0.35262 0.27112 0.13983 0.0
C1641 C 0.33337 0.2689 0.13748 0.0
C1642 C 0.3642 0.25551 0.14137 0.0
C1643 C 0.35662 0.23753 0.14082 0.0
C1644 C 0.33733 0.23539 0.13948 0.0
H1645 H 0.3857 0.1282 0.10751 0.0
H1646 H 0.37357 0.15946 0.1128 0.0
C1647 C 0.32585 0.25088 0.13774 0.0
C1648 C 0.36853 0.22075 0.14036 0.0
H1649 H 0.39522 0.19476 0.10886 0.0
C1650 C 0.36762 0.20818 0.15633 0.0
C1651 C 0.37889 0.21604 0.12318 0.0
C1652 C 0.37992 0.22888 0.10545 0.0
C1653 C 0.37641 0.19078 0.15535 0.0
C1654 C 0.38631 0.18587 0.13794 0.0
C1655 C 0.38767 0.19864 0.12221 0.0
C1656 C 0.39396 0.16695 0.13503 0.0
C1657 C 0.37435 0.17737 0.17248 0.0
C1658 C 0.40951 0.16083 0.14576 0.0
C1659 C 0.41666 0.14296 0.14262 0.0
C1660 C 0.40834 0.1309 0.12868 0.0
C1661 C 0.39267 0.13715 0.11809 0.0
C1662 C 0.38564 0.155 0.12117 0.0
H1663 H 0.36458 0.18255 0.18402 0.0
H1664 H 0.36934 0.16372 0.16697 0.0
H1665 H 0.38809 0.17512 0.17956 0.0
H1666 H 0.41624 0.16994 0.15639 0.0
H1667 H 0.42889 0.13877 0.15082 0.0
H1668 H 1.00585 0.08801 0.41639 0.0
H1669 H 0.03411 0.1067 0.42168 0.0
H1670 H 0.03919 0.11445 0.35817 0.0
H1671 H 1.01125 0.0958 0.35289 0.0
H1672 H 0.07055 0.09692 0.40195 0.0
H1673 H 0.04528 0.16773 0.38386 0.0
H1674 H 0.03005 0.14936 0.39224 0.0
H1675 H 0.03802 0.14982 0.36688 0.0
C1676 C 0.01285 0.09403 0.40366 0.0
C1677 C 1.00644 0.09048 0.38423 0.0
C1678 C 0.02899 0.1046 0.40666 0.0
C1679 C 0.03862 0.11206 0.39031 0.0
C1680 C 0.03185 0.10899 0.37099 0.0
H1681 H 0.13619 0.16639 0.3515 0.0
H1682 H 0.1055 0.15349 0.35777 0.0
C1683 C 0.01597 0.09827 0.36799 0.0
C1684 C 0.05654 0.12189 0.39292 0.0
H1685 H 0.07806 0.16309 0.38304 0.0
C1686 C 0.07223 0.11149 0.39823 0.0
C1687 C 0.0586 0.14082 0.38788 0.0
C1688 C 0.04209 0.15268 0.38254 0.0
C1689 C 0.09013 0.11924 0.39749 0.0
C1690 C 0.0923 0.13807 0.39179 0.0
C1691 C 0.07644 0.14867 0.38738 0.0
C1692 C 0.11089 0.14658 0.38863 0.0
C1693 C 0.10658 0.10686 0.40163 0.0
C1694 C 0.12413 0.14735 0.40399 0.0
C1695 C 0.14193 0.15443 0.40033 0.0
C1696 C 0.14678 0.16109 0.38128 0.0
C1697 C 0.13319 0.16096 0.3662 0.0
C1698 C 0.11551 0.15376 0.36982 0.0
H1699 H 0.10279 0.09191 0.40118 0.0
H1700 H 0.11785 0.10934 0.39066 0.0
H1701 H 0.11207 0.10995 0.41673 0.0
H1702 H 0.12078 0.14231 0.41876 0.0
H1703 H 0.152 0.15426 0.41231 0.0
H1704 H 0.11729 0.89624 0.65791 0.0
H1705 H 0.13144 0.86555 0.66293 0.0
H1706 H 0.13675 0.85896 0.59932 0.0
H1707 H 0.12304 0.88959 0.59417 0.0
H1708 H 0.11985 0.82926 0.64671 0.0
H1709 H 0.18998 0.85107 0.62193 0.0
H1710 H 0.17235 0.86748 0.62942 0.0
H1711 H 0.17171 0.85727 0.60496 0.0
C1712 C 0.12157 0.88828 0.64501 0.0
C1713 C 0.11905 0.89538 0.62563 0.0
C1714 C 0.12952 0.87072 0.64791 0.0
C1715 C 0.13527 0.86008 0.6315 0.0
C1716 C 0.13256 0.86703 0.61218 0.0
H1717 H 0.18741 0.75941 0.59877 0.0
H1718 H 0.16992 0.78827 0.6021 0.0
C1719 C 0.12457 0.88449 0.60927 0.0
C1720 C 0.14439 0.84181 0.63433 0.0
H1721 H 0.18444 0.81852 0.62393 0.0
C1722 C 0.13405 0.8269 0.642 0.0
C1723 C 0.16295 0.83885 0.62831 0.0
C1724 C 0.17499 0.85454 0.62086 0.0
C1725 C 0.14152 0.80884 0.64278 0.0
C1726 C 0.15981 0.80577 0.63591 0.0
C1727 C 0.17036 0.82087 0.62905 0.0
C1728 C 0.16804 0.78694 0.63426 0.0
C1729 C 0.12957 0.79304 0.65007 0.0
C1730 C 0.17235 0.7763 0.65122 0.0
C1731 C 0.18233 0.75965 0.6493 0.0
C1732 C 0.1883 0.75361 0.63042 0.0
C1733 C 0.18316 0.76387 0.61349 0.0
C1734 C 0.17316 0.78033 0.61538 0.0
H1735 H 0.11482 0.79722 0.65182 0.0
H1736 H 0.13033 0.78113 0.63958 0.0
H1737 H 0.13479 0.78824 0.66475 0.0
H1738 H 0.16874 0.78127 0.66595 0.0
H1739 H 0.18629 0.75207 0.66258 0.0
H1740 H 0.5076 0.94764 0.85697 0.0
H1741 H 0.48048 0.92736 0.85888 0.0
H1742 H 0.49805 0.90834 0.91684 0.0
H1743 H 0.5254 0.92883 0.91499 0.0
H1744 H 0.47828 0.88657 0.86658 0.0
H1745 H 0.44396 0.9314 0.92344 0.0
H1746 H 0.46263 0.93989 0.90797 0.0
H1747 H 0.46748 0.92397 0.92785 0.0
C1748 C 0.50575 0.93908 0.87009 0.0
C1749 C 0.51849 0.93994 0.88593 0.0
C1750 C 0.49032 0.92742 0.87111 0.0
C1751 C 0.48719 0.9165 0.88806 0.0
C1752 C 0.5002 0.91678 0.90367 0.0
H1753 H 0.39036 0.84116 0.89121 0.0
H1754 H 0.42172 0.85342 0.89696 0.0
C1755 C 0.51582 0.92837 0.90256 0.0
C1756 C 0.46976 0.90567 0.88948 0.0
H1757 H 0.42633 0.90708 0.90983 0.0
C1758 C 0.46701 0.89078 0.8763 0.0
C1759 C 0.45506 0.9114 0.90201 0.0
C1760 C 0.45724 0.92758 0.91611 0.0
C1761 C 0.44974 0.88179 0.87493 0.0
C1762 C 0.4349 0.88788 0.88706 0.0
C1763 C 0.4378 0.90241 0.90064 0.0
C1764 C 0.41584 0.88049 0.88451 0.0
C1765 C 0.44718 0.86646 0.85986 0.0
C1766 C 0.40213 0.89177 0.87593 0.0
C1767 C 0.38429 0.88483 0.87262 0.0
C1768 C 0.37974 0.86651 0.87799 0.0
C1769 C 0.39341 0.85536 0.88702 0.0
C1770 C 0.41134 0.86229 0.8902 0.0
H1771 H 0.45946 0.86484 0.84999 0.0
H1772 H 0.44483 0.85313 0.86776 0.0
H1773 H 0.43479 0.86923 0.85048 0.0
H1774 H 0.40534 0.90588 0.8715 0.0
H1775 H 0.37402 0.89385 0.86589 0.0
H1776 H 0.37541 0.90595 0.37447 0.0
H1777 H 0.36233 0.87507 0.36856 0.0
H1778 H 0.41729 0.85143 0.36963 0.0
H1779 H 0.43049 0.88225 0.37557 0.0
H1780 H 0.36859 0.84955 0.33787 0.0
H1781 H 0.38984 0.82052 0.41123 0.0
H1782 H 0.39043 0.84508 0.40594 0.0
H1783 H 0.40836 0.83009 0.39657 0.0
C1784 C 0.38474 0.89421 0.37329 0.0
C1785 C 0.40399 0.89655 0.37563 0.0
C1786 C 0.37724 0.87656 0.36997 0.0
C1787 C 0.38881 0.8609 0.36897 0.0
C1788 C 0.40806 0.86324 0.37081 0.0
H1789 H 0.35531 0.74335 0.36241 0.0
H1790 H 0.3745 0.77156 0.35989 0.0
C1791 C 0.41558 0.88087 0.3742 0.0
C1792 C 0.38062 0.84216 0.36617 0.0
H1793 H 0.37468 0.80018 0.38905 0.0
C1794 C 0.37 0.83872 0.349 0.0
C1795 C 0.38258 0.82799 0.38066 0.0
C1796 C 0.39328 0.83107 0.39973 0.0
C1797 C 0.36104 0.82161 0.3461 0.0
C1798 C 0.36253 0.80767 0.36087 0.0
C1799 C 0.37365 0.81087 0.3777 0.0
C1800 C 0.35118 0.79049 0.3602 0.0
C1801 C 0.34991 0.81865 0.32731 0.0
C1802 C 0.33179 0.79181 0.36108 0.0
C1803 C 0.32093 0.77585 0.36258 0.0
C1804 C 0.3292 0.75818 0.36329 0.0
C1805 C 0.3486 0.75679 0.36173 0.0
C1806 C 0.35953 0.77286 0.36039 0.0
H1807 H 0.35471 0.8279 0.3151 0.0
H1808 H 0.35081 0.80401 0.32219 0.0
H1809 H 0.33512 0.8219 0.33033 0.0
H1810 H 0.32506 0.80526 0.36129 0.0
H1811 H 0.30601 0.77734 0.36355 0.0
H1812 H 0.37242 0.13264 0.63677 0.0
H1813 H 0.40377 0.12078 0.63107 0.0
H1814 H 0.41991 0.17342 0.60586 0.0
H1815 H 0.38851 0.18552 0.61171 0.0
H1816 H 0.42484 0.11953 0.59315 0.0
H1817 H 0.45761 0.16242 0.65272 0.0
H1818 H 0.43293 0.15805 0.65207 0.0
H1819 H 0.44313 0.17398 0.63469 0.0
C1820 C 0.38264 0.14173 0.63006 0.0
C1821 C 0.37802 0.16007 0.62483 0.0
C1822 C 0.4005 0.13489 0.6267 0.0
C1823 C 0.41416 0.14627 0.61819 0.0
C1824 C 0.40957 0.16447 0.61258 0.0
H1825 H 0.52384 0.09742 0.58916 0.0
H1826 H 0.49652 0.11785 0.58663 0.0
C1827 C 0.39162 0.17131 0.61581 0.0
C1828 C 0.43327 0.13899 0.61574 0.0
H1829 H 0.47653 0.14059 0.63649 0.0
C1830 C 0.43626 0.12433 0.60235 0.0
C1831 C 0.44805 0.14524 0.62788 0.0
C1832 C 0.4454 0.16073 0.64277 0.0
C1833 C 0.45353 0.11533 0.60122 0.0
C1834 C 0.46815 0.12121 0.6138 0.0
C1835 C 0.46533 0.13626 0.62675 0.0
C1836 C 0.48555 0.11037 0.61557 0.0
C1837 C 0.45578 0.09898 0.58738 0.0
C1838 C 0.48861 0.09985 0.63283 0.0
C1839 C 0.50404 0.08824 0.63425 0.0
C1840 C 0.51685 0.08701 0.6185 0.0
C1841 C 0.51422 0.09817 0.60153 0.0
C1842 C 0.4986 0.10971 0.60002 0.0
H1843 H 0.44252 0.09503 0.58006 0.0
H1844 H 0.46603 0.10248 0.57561 0.0
H1845 H 0.46119 0.08679 0.5957 0.0
H1846 H 0.47874 0.10021 0.64501 0.0
H1847 H 0.50586 0.08001 0.64761 0.0
H1848 H 0.16757 0.28227 0.86919 0.0
H1849 H 0.14882 0.2536 0.86811 0.0
H1850 H 0.19896 0.22094 0.86691 0.0
H1851 H 0.21751 0.24929 0.86826 0.0
H1852 H 0.14757 0.22175 0.84188 0.0
H1853 H 0.17221 0.20324 0.91759 0.0
H1854 H 0.17507 0.22618 0.90719 0.0
H1855 H 0.1908 0.20781 0.90049 0.0
C1856 C 0.17448 0.26894 0.86835 0.0
C1857 C 0.19393 0.26791 0.86916 0.0
C1858 C 0.16381 0.25262 0.8678 0.0
C1859 C 0.17253 0.23515 0.86795 0.0
C1860 C 0.19195 0.23425 0.86732 0.0
H1861 H 0.14791 0.11884 0.87324 0.0
H1862 H 0.16115 0.14988 0.86891 0.0
C1863 C 0.20253 0.25043 0.86806 0.0
C1864 C 0.16166 0.21774 0.86985 0.0
H1865 H 0.15731 0.17917 0.89913 0.0
C1866 C 0.14949 0.21252 0.85449 0.0
C1867 C 0.16411 0.20578 0.88641 0.0
C1868 C 0.17611 0.21109 0.90396 0.0
C1869 C 0.14035 0.19523 0.85486 0.0
C1870 C 0.14343 0.18302 0.87104 0.0
C1871 C 0.15515 0.18849 0.88664 0.0
C1872 C 0.13498 0.16427 0.87202 0.0
C1873 C 0.12796 0.18984 0.83769 0.0
C1874 C 0.11586 0.16211 0.87519 0.0
C1875 C 0.10825 0.14438 0.87772 0.0
C1876 C 0.11962 0.1285 0.87708 0.0
C1877 C 0.13873 0.13074 0.87355 0.0
C1878 C 0.14633 0.14847 0.87116 0.0
H1879 H 0.12932 0.19954 0.82489 0.0
H1880 H 0.13125 0.17556 0.83256 0.0
H1881 H 0.11329 0.18995 0.84272 0.0
H1882 H 0.1069 0.17415 0.87616 0.0
H1883 H 0.09346 0.1431 0.88027 0.0
H1884 H 0.13752 0.84506 0.10553 0.0
H1885 H 0.10677 0.85834 0.09888 0.0
H1886 H 0.1228 0.90865 0.12919 0.0
H1887 H 0.15355 0.89566 0.13557 0.0
H1888 H 0.08076 0.87124 0.12782 0.0
H1889 H 0.10134 0.9273 0.07581 0.0
H1890 H 0.11617 0.90773 0.08132 0.0
H1891 H 0.11479 0.92699 0.09835 0.0
C1892 C 0.13457 0.85905 0.11052 0.0
C1893 C 0.14801 0.86932 0.12106 0.0
C1894 C 0.11698 0.86657 0.1068 0.0
C1895 C 0.1126 0.88457 0.11329 0.0
C1896 C 0.12599 0.89485 0.12374 0.0
H1897 H 0.02799 0.96227 0.13053 0.0
H1898 H 0.05564 0.94374 0.12523 0.0
C1899 C 0.1435 0.88733 0.12756 0.0
C1900 C 0.0938 0.89244 0.11009 0.0
H1901 H 0.07151 0.93041 0.09129 0.0
C1902 C 0.0786 0.884 0.11954 0.0
C1903 C 0.09105 0.909 0.09916 0.0
C1904 C 0.10667 0.91821 0.08791 0.0
C1905 C 0.06097 0.89238 0.11953 0.0
C1906 C 0.05844 0.90948 0.10946 0.0
C1907 C 0.07344 0.91734 0.09906 0.0
C1908 C 0.0412 0.92064 0.11163 0.0
C1909 C 0.04553 0.88346 0.13133 0.0
C1910 C 0.02377 0.914 0.10544 0.0
C1911 C 1.00768 0.92457 0.10877 0.0
C1912 C 1.00882 0.94196 0.11828 0.0
C1913 C 0.02643 0.94876 0.1237 0.0
C1914 C 0.04236 0.93823 0.12046 0.0
H1915 H 0.05067 0.87212 0.14111 0.0
H1916 H 0.03834 0.89392 0.14072 0.0
H1917 H 0.03519 0.87746 0.1209 0.0
H1918 H 0.02258 0.90061 0.0982 0.0
H1919 H 0.99437 0.91898 0.10434 0.0
H1920 H 0.68851 0.76012 0.90515 0.0
H1921 H 0.67143 0.78924 0.90203 0.0
H1922 H 0.67071 0.78301 0.83808 0.0
H1923 H 0.68789 0.75358 0.84122 0.0
H1924 H 0.68628 0.81973 0.88069 0.0
H1925 H 0.61674 0.79901 0.85204 0.0
H1926 H 0.63209 0.78274 0.86422 0.0
H1927 H 0.63674 0.79007 0.83916 0.0
C1928 C 0.68449 0.76482 0.89044 0.0
C1929 C 0.68965 0.75469 0.87342 0.0
C1930 C 0.67471 0.78143 0.88867 0.0
C1931 C 0.66981 0.78832 0.86984 0.0
C1932 C 0.67415 0.77783 0.85278 0.0
H1933 H 0.6188 0.89757 0.84683 0.0
H1934 H 0.63314 0.867 0.84173 0.0
C1935 C 0.68393 0.76104 0.85457 0.0
C1936 C 0.66167 0.80721 0.86837 0.0
H1937 H 0.62187 0.83097 0.85754 0.0
C1938 C 0.67223 0.82219 0.87549 0.0
C1939 C 0.64343 0.81042 0.86141 0.0
C1940 C 0.63146 0.79475 0.85386 0.0
C1941 C 0.6649 0.84021 0.87636 0.0
C1942 C 0.64639 0.84331 0.87024 0.0
C1943 C 0.63603 0.82851 0.86233 0.0
C1944 C 0.63732 0.86161 0.87313 0.0
C1945 C 0.67699 0.85577 0.88402 0.0
C1946 C 0.63474 0.86859 0.89246 0.0
C1947 C 0.62664 0.886 0.89542 0.0
C1948 C 0.62086 0.8968 0.87909 0.0
C1949 C 0.62329 0.88969 0.85971 0.0
C1950 C 0.63135 0.87219 0.85677 0.0
H1951 H 0.69197 0.85227 0.88285 0.0
H1952 H 0.67437 0.86883 0.87568 0.0
H1953 H 0.67378 0.85828 0.89997 0.0
H1954 H 0.63906 0.86057 0.90531 0.0
H1955 H 0.62518 0.8911 0.91053 0.0
H1956 H 0.03108 0.91864 0.61473 0.0
H1957 H 1.00308 0.89904 0.61438 0.0
H1958 H 0.969 0.94797 0.60886 0.0
H1959 H 0.99668 0.96742 0.60898 0.0
H1960 H 0.96038 0.92373 0.64193 0.0
H1961 H 0.96417 0.88675 0.56914 0.0
H1962 H 0.98476 0.88713 0.58437 0.0
H1963 H 0.97629 0.90831 0.57367 0.0
C1964 C 0.01763 0.92513 0.613 0.0
C1965 C 0.01608 0.94458 0.61215 0.0
C1966 C 1.00166 0.91395 0.61282 0.0
C1967 C 0.98397 0.92208 0.61162 0.0
C1968 C 0.9825 0.94142 0.60989 0.0
H1969 H 0.87119 0.88363 0.5991 0.0
H1970 H 0.90228 0.89673 0.59442 0.0
C1971 C 0.99835 0.95252 0.61008 0.0
C1972 C 0.96681 0.91088 0.61381 0.0
H1973 H 0.93882 0.87954 0.59012 0.0
C1974 C 0.95572 0.91396 0.63068 0.0
C1975 C 0.96073 0.8983 0.59901 0.0
C1976 C 0.97198 0.89491 0.58042 0.0
C1977 C 0.93861 0.90495 0.63309 0.0
C1978 C 0.93249 0.89233 0.61832 0.0
C1979 C 0.94362 0.88914 0.60146 0.0
C1980 C 0.91425 0.88287 0.61997 0.0
C1981 C 0.92694 0.90943 0.65115 0.0
C1982 C 0.91081 0.87038 0.63559 0.0
C1983 C 0.8931 0.86287 0.63829 0.0
C1984 C 0.87844 0.86765 0.62539 0.0
C1985 C 0.88215 0.87959 0.60926 0.0
C1986 C 0.8999 0.88711 0.60657 0.0
H1987 H 0.93177 0.92223 0.65882 0.0
H1988 H 0.91215 0.91127 0.64692 0.0
H1989 H 0.92778 0.89776 0.66191 0.0
H1990 H 0.92178 0.86669 0.6459 0.0
H1991 H 0.89086 0.85338 0.65059 0.0
H1992 H 0.89937 0.13534 0.41134 0.0
H1993 H 0.88647 0.16616 0.40494 0.0
H1994 H 0.88575 0.15462 0.34183 0.0
H1995 H 0.89843 0.1236 0.3482 0.0
H1996 H 0.90129 0.1945 0.38324 0.0
H1997 H 0.83348 0.17328 0.35085 0.0
H1998 H 0.84846 0.15716 0.3637 0.0
H1999 H 0.85347 0.16389 0.33846 0.0
C2000 C 0.8964 0.13935 0.3961 0.0
C2001 C 0.89987 0.12704 0.38027 0.0
C2002 C 0.88902 0.15695 0.39246 0.0
C2003 C 0.88497 0.16266 0.37292 0.0
C2004 C 0.88838 0.1504 0.35706 0.0
H2005 H 0.83576 0.27067 0.33878 0.0
H2006 H 0.85401 0.2418 0.33608 0.0
C2007 C 0.89563 0.13268 0.36072 0.0
C2008 C 0.87759 0.18163 0.36934 0.0
H2009 H 0.83972 0.20539 0.35228 0.0
C2010 C 0.88789 0.19687 0.37633 0.0
C2011 C 0.86014 0.18474 0.3602 0.0
C2012 C 0.84814 0.16892 0.35301 0.0
C2013 C 0.88098 0.21505 0.37497 0.0
C2014 C 0.86332 0.21806 0.36645 0.0
C2015 C 0.85334 0.20298 0.35868 0.0
C2016 C 0.85397 0.23632 0.3678 0.0
C2017 C 0.89242 0.23089 0.38305 0.0
C2018 C 0.84809 0.24275 0.38648 0.0
C2019 C 0.83763 0.25896 0.38798 0.0
C2020 C 0.83294 0.26916 0.37086 0.0
C2021 C 0.83939 0.26312 0.35218 0.0
C2022 C 0.84969 0.24665 0.35064 0.0
H2023 H 0.9073 0.22707 0.38443 0.0
H2024 H 0.89121 0.24332 0.37333 0.0
H2025 H 0.88723 0.23467 0.39809 0.0
H2026 H 0.85108 0.23487 0.39986 0.0
H2027 H 0.83287 0.2634 0.40253 0.0
H2028 H 0.52686 0.06288 0.13045 0.0
H2029 H 0.55474 0.08125 0.1254 0.0
H2030 H 0.52198 0.12535 0.09983 0.0
H2031 H 0.49361 0.10708 0.10558 0.0
H2032 H 0.57034 0.09552 0.09126 0.0
H2033 H 0.55083 0.15205 0.14393 0.0
H2034 H 0.53847 0.13028 0.14299 0.0
H2035 H 0.53489 0.14741 0.12393 0.0
C2036 C 0.52546 0.07656 0.12395 0.0
C2037 C 0.50791 0.08366 0.11879 0.0
C2038 C 0.54148 0.08699 0.12088 0.0
C2039 C 0.54046 0.1048 0.11253 0.0
C2040 C 0.52306 0.11177 0.10665 0.0
H2041 H 0.63748 0.1795 0.10575 0.0
H2042 H 0.60647 0.16659 0.09955 0.0
C2043 C 0.5069 0.10126 0.10976 0.0
C2044 C 0.55777 0.11586 0.11055 0.0
H2045 H 0.58069 0.15328 0.13 0.0
C2046 C 0.57251 0.10829 0.09951 0.0
C2047 C 0.56061 0.13254 0.1213 0.0
C2048 C 0.54545 0.14106 0.13384 0.0
C2049 C 0.59016 0.11653 0.09956 0.0
C2050 C 0.59321 0.13269 0.11106 0.0
C2051 C 0.57828 0.14084 0.12124 0.0
C2052 C 0.6121 0.14037 0.11407 0.0
C2053 C 0.60555 0.10767 0.08765 0.0
C2054 C 0.62545 0.12996 0.12441 0.0
C2055 C 0.64308 0.13729 0.12803 0.0
C2056 C 0.64776 0.1552 0.12135 0.0
C2057 C 0.63438 0.16558 0.11088 0.0
C2058 C 0.61665 0.15828 0.10741 0.0
H2059 H 0.6 0.09861 0.07564 0.0
H2060 H 0.61467 0.11838 0.08087 0.0
H2061 H 0.61414 0.09896 0.0977 0.0
H2062 H 0.62214 0.11621 0.12992 0.0
H2063 H 0.65311 0.1289 0.13602 0.0
H2064 H 0.66651 0.28409 0.63896 0.0
H2065 H 0.64674 0.25626 0.64197 0.0
H2066 H 0.69559 0.22168 0.64226 0.0
H2067 H 0.71515 0.24921 0.63931 0.0
H2068 H 0.64743 0.22637 0.61297 0.0
H2069 H 0.66411 0.20118 0.68894 0.0
H2070 H 0.66799 0.22491 0.6812 0.0
H2071 H 0.68419 0.20702 0.67437 0.0
C2072 C 0.67293 0.27055 0.6401 0.0
C2073 C 0.6923 0.26874 0.63879 0.0
C2074 C 0.66169 0.2547 0.64173 0.0
C2075 C 0.66973 0.23693 0.64253 0.0
C2076 C 0.6891 0.23524 0.64197 0.0
H2077 H 0.64618 0.12118 0.63251 0.0
H2078 H 0.65869 0.15234 0.63814 0.0
C2079 C 0.70025 0.25097 0.64011 0.0
C2080 C 0.65815 0.2199 0.64208 0.0
H2081 H 0.65086 0.17892 0.66648 0.0
C2082 C 0.64784 0.21612 0.62481 0.0
C2083 C 0.6589 0.20652 0.65748 0.0
C2084 C 0.66925 0.21014 0.67664 0.0
C2085 C 0.63905 0.19888 0.62206 0.0
C2086 C 0.64025 0.18525 0.63723 0.0
C2087 C 0.65 0.18934 0.65483 0.0
C2088 C 0.63231 0.16634 0.6347 0.0
C2089 C 0.62942 0.1951 0.60248 0.0
C2090 C 0.61326 0.1638 0.63127 0.0
C2091 C 0.6061 0.14601 0.62796 0.0
C2092 C 0.6178 0.13036 0.62827 0.0
C2093 C 0.63678 0.1329 0.63231 0.0
C2094 C 0.64395 0.15071 0.63548 0.0
H2095 H 0.63363 0.20514 0.59075 0.0
H2096 H 0.63246 0.18084 0.59711 0.0
H2097 H 0.6142 0.19635 0.60458 0.0
H2098 H 0.60393 0.17558 0.63109 0.0
H2099 H 0.59136 0.14447 0.62524 0.0
H2100 H 0.63814 0.84548 0.39551 0.0
H2101 H 0.60681 0.85797 0.40043 0.0
H2102 H 0.62251 0.9081 0.36959 0.0
H2103 H 0.65388 0.89587 0.36488 0.0
H2104 H 0.60186 0.91321 0.40674 0.0
H2105 H 0.56847 0.86379 0.35384 0.0
H2106 H 0.58292 0.85407 0.37308 0.0
H2107 H 0.59317 0.86803 0.35386 0.0
C2108 C 0.63498 0.85925 0.38997 0.0
C2109 C 0.64848 0.86966 0.37972 0.0
C2110 C 0.61704 0.86629 0.39267 0.0
C2111 C 0.61233 0.88387 0.3852 0.0
C2112 C 0.62587 0.89446 0.3754 0.0
H2113 H 0.51655 0.94311 0.35138 0.0
H2114 H 0.54467 0.9245 0.35509 0.0
C2115 C 0.64374 0.88741 0.3726 0.0
C2116 C 0.5932 0.89121 0.38713 0.0
H2117 H 0.5493 0.88631 0.36865 0.0
C2118 C 0.59028 0.90721 0.39866 0.0
C2119 C 0.5782 0.88336 0.37645 0.0
C2120 C 0.58073 0.86643 0.36348 0.0
C2121 C 0.57282 0.91587 0.39938 0.0
C2122 C 0.55793 0.90826 0.38835 0.0
C2123 C 0.56073 0.89198 0.37724 0.0
C2124 C 0.54005 0.91823 0.38622 0.0
C2125 C 0.57063 0.93359 0.41114 0.0
C2126 C 0.5279 0.92052 0.40242 0.0
C2127 C 0.51172 0.93117 0.40031 0.0
C2128 C 0.5076 0.93977 0.38201 0.0
C2129 C 0.51952 0.93688 0.36572 0.0
C2130 C 0.53552 0.92617 0.36778 0.0
H2131 H 0.58411 0.9389 0.41682 0.0
H2132 H 0.56409 0.9445 0.40178 0.0
H2133 H 0.56138 0.93103 0.42408 0.0
H2134 H 0.53109 0.91434 0.41674 0.0
H2135 H 0.50282 0.93324 0.41311 0.0
H2136 H 0.92018 0.88335 0.1022 0.0
H2137 H 0.90558 0.85308 0.10723 0.0
H2138 H 0.88167 0.87242 0.16237 0.0
H2139 H 0.89571 0.90301 0.15711 0.0
H2140 H 0.90773 0.82684 0.1382 0.0
H2141 H 0.83647 0.85548 0.13004 0.0
H2142 H 0.85691 0.86859 0.12347 0.0
H2143 H 0.85034 0.86608 0.14917 0.0
C2144 C 0.91173 0.88124 0.11535 0.0
C2145 C 0.90889 0.89574 0.12909 0.0
C2146 C 0.90355 0.86385 0.1183 0.0
C2147 C 0.89233 0.86057 0.13502 0.0
C2148 C 0.89005 0.87474 0.1492 0.0
H2149 H 0.8435 0.75081 0.16258 0.0
H2150 H 0.86278 0.77896 0.16473 0.0
C2151 C 0.89822 0.89217 0.14625 0.0
C2152 C 0.88237 0.8426 0.137 0.0
H2153 H 0.83901 0.8235 0.13653 0.0
C2154 C 0.8927 0.82607 0.13799 0.0
C2155 C 0.86276 0.84166 0.13652 0.0
C2156 C 0.85092 0.85885 0.13457 0.0
C2157 C 0.88393 0.80861 0.13824 0.0
C2158 C 0.86434 0.8077 0.13768 0.0
C2159 C 0.85404 0.82424 0.13706 0.0
C2160 C 0.85412 0.78985 0.13611 0.0
C2161 C 0.89567 0.79128 0.13832 0.0
C2162 C 0.84298 0.78659 0.11933 0.0
C2163 C 0.832 0.77069 0.11815 0.0
C2164 C 0.83183 0.75765 0.13374 0.0
C2165 C 0.84349 0.76054 0.15028 0.0
C2166 C 0.85448 0.7766 0.15151 0.0
H2167 H 0.91046 0.79431 0.13492 0.0
H2168 H 0.89499 0.78474 0.15328 0.0
H2169 H 0.89038 0.78108 0.12728 0.0
H2170 H 0.84255 0.79655 0.10722 0.0
H2171 H 0.8234 0.7687 0.10508 0.0
H2172 H 1.00463 0.07211 0.85918 0.0
H2173 H 0.977 0.09142 0.86206 0.0
H2174 H 0.99916 0.11673 0.9152 0.0
H2175 H 0.02697 0.09702 0.91264 0.0
H2176 H 0.95377 0.09135 0.90056 0.0
H2177 H 0.98006 0.16029 0.87531 0.0
H2178 H 0.99077 0.13896 0.86699 0.0
H2179 H 0.99366 0.1464 0.89228 0.0
C2180 C 1.00369 0.08174 0.87152 0.0
C2181 C 0.01792 0.08283 0.88584 0.0
C2182 C 0.98793 0.09285 0.87306 0.0
C2183 C 0.98605 0.10544 0.88883 0.0
C2184 C 1.00044 0.10714 0.90284 0.0
H2185 H 0.88789 0.17785 0.90096 0.0
H2186 H 0.91838 0.16384 0.9073 0.0
C2187 C 0.01632 0.09593 0.90132 0.0
C2188 C 0.96842 0.11581 0.89097 0.0
H2189 H 0.94785 0.15739 0.88046 0.0
C2190 C 0.95249 0.10587 0.89646 0.0
C2191 C 0.96687 0.13474 0.88574 0.0
C2192 C 0.98368 0.14586 0.87969 0.0
C2193 C 0.93489 0.1142 0.89618 0.0
C2194 C 0.93315 0.13284 0.88979 0.0
C2195 C 0.94921 0.14307 0.88525 0.0
C2196 C 0.91469 0.14139 0.88624 0.0
C2197 C 0.91829 0.10284 0.90247 0.0
C2198 C 0.90262 0.13355 0.87214 0.0
C2199 C 0.88523 0.14142 0.86858 0.0
C2200 C 0.87953 0.15743 0.87891 0.0
C2201 C 0.89173 0.16538 0.89294 0.0
C2202 C 0.9092 0.15747 0.89649 0.0
H2203 H 0.92236 0.09141 0.9127 0.0
H2204 H 0.90773 0.1116 0.91 0.0
H2205 H 0.91184 0.0965 0.88908 0.0
H2206 H 0.90669 0.12134 0.86379 0.0
H2207 H 0.87616 0.13482 0.85782 0.0
H2208 H 0.89933 0.63762 0.59588 0.0
H2209 H 0.88569 0.6679 0.60315 0.0
H2210 H 0.88007 0.65271 0.66504 0.0
H2211 H 0.89379 0.62228 0.65789 0.0
H2212 H 0.84872 0.66923 0.65035 0.0
H2213 H 0.9102 0.71156 0.63118 0.0
H2214 H 0.90381 0.69615 0.61132 0.0
H2215 H 0.91144 0.68675 0.63481 0.0
C2216 C 0.89539 0.64076 0.61109 0.0
C2217 C 0.89781 0.62757 0.62634 0.0
C2218 C 0.88763 0.65812 0.61524 0.0
C2219 C 0.88226 0.66275 0.63473 0.0
C2220 C 0.88427 0.64949 0.64992 0.0
H2221 H 0.84832 0.77916 0.65453 0.0
H2222 H 0.8639 0.74921 0.66017 0.0
C2223 C 0.89201 0.63207 0.64578 0.0
C2224 C 0.87397 0.68122 0.63896 0.0
H2225 H 0.88094 0.72768 0.63201 0.0
C2226 C 0.85587 0.68203 0.64663 0.0
C2227 C 0.88343 0.69796 0.63457 0.0
C2228 C 0.90337 0.69811 0.62772 0.0
C2229 C 0.84657 0.69905 0.64883 0.0
C2230 C 0.85549 0.71566 0.64285 0.0
C2231 C 0.874 0.71495 0.63639 0.0
C2232 C 0.84532 0.73354 0.64118 0.0
C2233 C 0.82716 0.69901 0.65725 0.0
C2234 C 0.82976 0.73467 0.6287 0.0
C2235 C 0.82089 0.75161 0.62555 0.0
C2236 C 0.82748 0.76796 0.6346 0.0
C2237 C 0.84286 0.76681 0.64746 0.0
C2238 C 0.8518 0.74974 0.65061 0.0
H2239 H 0.825 0.68703 0.66742 0.0
H2240 H 0.82417 0.71203 0.66552 0.0
H2241 H 0.81705 0.69771 0.64485 0.0
H2242 H 0.82473 0.72249 0.62091 0.0
H2243 H 0.80893 0.7519 0.61582 0.0
H2244 H 0.65178 0.6311 0.86428 0.0
H2245 H 0.62035 0.61928 0.86941 0.0
H2246 H 0.60627 0.66871 0.90235 0.0
H2247 H 0.63765 0.68089 0.89687 0.0
H2248 H 0.60057 0.61253 0.90543 0.0
H2249 H 0.56644 0.66595 0.85792 0.0
H2250 H 0.59114 0.66185 0.85727 0.0
H2251 H 0.58104 0.67434 0.87772 0.0
C2252 C 0.64199 0.63952 0.87253 0.0
C2253 C 0.6472 0.65702 0.88 0.0
C2254 C 0.62407 0.63268 0.87558 0.0
C2255 C 0.61092 0.6432 0.88607 0.0
C2256 C 0.61614 0.66047 0.894 0.0
H2257 H 0.50242 0.59079 0.9129 0.0
H2258 H 0.53053 0.60971 0.91762 0.0
C2259 C 0.63413 0.66732 0.89101 0.0
C2260 C 0.59168 0.63608 0.88817 0.0
H2261 H 0.54731 0.64285 0.87171 0.0
C2262 C 0.58885 0.61927 0.89832 0.0
C2263 C 0.57646 0.64488 0.87874 0.0
C2264 C 0.57882 0.66269 0.86716 0.0
C2265 C 0.57132 0.6107 0.89878 0.0
C2266 C 0.55619 0.6193 0.88899 0.0
C2267 C 0.5589 0.6364 0.87937 0.0
C2268 C 0.53816 0.60963 0.88641 0.0
C2269 C 0.56933 0.59206 0.90883 0.0
C2270 C 0.53279 0.60394 0.86727 0.0
C2271 C 0.51684 0.59326 0.86457 0.0
C2272 C 0.50579 0.58811 0.88094 0.0
C2273 C 0.51064 0.59459 0.90002 0.0
C2274 C 0.52675 0.60524 0.90275 0.0
H2275 H 0.58297 0.58604 0.91308 0.0
H2276 H 0.56089 0.59365 0.92256 0.0
H2277 H 0.56206 0.58212 0.89888 0.0
H2278 H 0.54132 0.60724 0.85444 0.0
H2279 H 0.51329 0.58873 0.84966 0.0
H2280 H 0.60894 0.38437 0.09787 0.0
H2281 H 0.62284 0.35376 0.10266 0.0
H2282 H 0.63767 0.36836 0.16288 0.0
H2283 H 0.62425 0.39936 0.1581 0.0
H2284 H 0.66428 0.35063 0.11822 0.0
H2285 H 0.60972 0.3138 0.16191 0.0
H2286 H 0.60382 0.33215 0.14465 0.0
H2287 H 0.61539 0.33766 0.16753 0.0
C2288 C 0.61521 0.38117 0.11214 0.0
C2289 C 0.61564 0.39447 0.12752 0.0
C2290 C 0.62299 0.36359 0.11489 0.0
C2291 C 0.63118 0.35881 0.13313 0.0
C2292 C 0.63123 0.37176 0.14875 0.0
H2293 H 0.68902 0.25407 0.16128 0.0
H2294 H 0.67162 0.28334 0.165 0.0
C2295 C 0.62351 0.38944 0.14599 0.0
C2296 C 0.6409 0.34079 0.1351 0.0
H2297 H 0.63592 0.29634 0.15216 0.0
C2298 C 0.65817 0.33879 0.12576 0.0
C2299 C 0.63295 0.3255 0.14516 0.0
C2300 C 0.61442 0.32719 0.15542 0.0
C2301 C 0.66756 0.32174 0.12582 0.0
C2302 C 0.65922 0.30611 0.13501 0.0
C2303 C 0.64222 0.30828 0.145 0.0
C2304 C 0.66761 0.28734 0.13331 0.0
C2305 C 0.68637 0.32062 0.11598 0.0
C2306 C 0.67038 0.27952 0.11439 0.0
C2307 C 0.68031 0.26302 0.11228 0.0
C2308 C 0.68746 0.2538 0.12906 0.0
C2309 C 0.68359 0.26089 0.14814 0.0
C2310 C 0.67374 0.27761 0.15025 0.0
H2311 H 0.69312 0.33448 0.11515 0.0
H2312 H 0.69571 0.31099 0.12412 0.0
H2313 H 0.68468 0.3154 0.10051 0.0
H2314 H 0.66536 0.28653 0.10115 0.0
H2315 H 0.68285 0.25767 0.09744 0.0
H2316 H 0.01906 0.43825 0.41414 0.0
H2317 H 0.9901 0.42024 0.41733 0.0
H2318 H 0.98263 0.4226 0.35359 0.0
H2319 H 1.01129 0.44048 0.3504 0.0
H2320 H 0.95359 0.43384 0.40201 0.0
H2321 H 0.97518 0.36662 0.36899 0.0
H2322 H 0.99153 0.38297 0.37949 0.0
H2323 H 0.98216 0.38672 0.35499 0.0
C2324 C 1.01136 0.43459 0.40084 0.0
C2325 C 0.01734 0.44076 0.38202 0.0
C2326 C 0.99483 0.42442 0.40267 0.0
C2327 C 0.98434 0.41999 0.38566 0.0
C2328 C 0.99063 0.42569 0.36686 0.0
H2329 H 0.8828 0.37499 0.34354 0.0
H2330 H 0.91372 0.38771 0.34964 0.0
C2331 C 1.00692 0.43599 0.36507 0.0
C2332 C 0.96616 0.41049 0.38728 0.0
H2333 H 0.94258 0.37245 0.37061 0.0
C2334 C 0.95117 0.42026 0.39552 0.0
C2335 C 0.96311 0.39285 0.37867 0.0
C2336 C 0.97886 0.38157 0.37017 0.0
C2337 C 0.93297 0.41329 0.39436 0.0
C2338 C 0.92981 0.39591 0.38508 0.0
C2339 C 0.94498 0.38581 0.37763 0.0
C2340 C 0.91084 0.38844 0.38175 0.0
C2341 C 0.9172 0.42506 0.40208 0.0
C2342 C 0.8989 0.38459 0.39777 0.0
C2343 C 0.88113 0.37739 0.39431 0.0
C2344 C 0.87509 0.37365 0.37476 0.0
C2345 C 0.8871 0.37751 0.35878 0.0
C2346 C 0.90477 0.38481 0.36224 0.0
H2347 H 0.9215 0.4397 0.40452 0.0
H2348 H 0.90531 0.42488 0.39155 0.0
H2349 H 0.91239 0.41938 0.41656 0.0
H2350 H 0.90341 0.38691 0.41297 0.0
H2351 H 0.87229 0.37432 0.40694 0.0
H2352 H 0.88155 0.40036 0.8892 0.0
H2353 H 0.8685 0.36953 0.88306 0.0
H2354 H 0.91772 0.35405 0.85057 0.0
H2355 H 0.93102 0.38492 0.85681 0.0
H2356 H 0.86334 0.35118 0.84324 0.0
H2357 H 0.91003 0.31319 0.89549 0.0
H2358 H 0.90613 0.33789 0.89762 0.0
H2359 H 0.92021 0.329 0.87778 0.0
C2360 C 0.88966 0.39038 0.88083 0.0
C2361 C 0.90737 0.39507 0.87359 0.0
C2362 C 0.88213 0.37282 0.87724 0.0
C2363 C 0.89221 0.35949 0.86651 0.0
C2364 C 0.9098 0.36412 0.85902 0.0
H2365 H 0.85615 0.2424 0.85729 0.0
H2366 H 0.87487 0.27058 0.85201 0.0
C2367 C 0.9173 0.38179 0.86248 0.0
C2368 C 0.88413 0.34078 0.86338 0.0
H2369 H 0.88599 0.29615 0.88051 0.0
C2370 C 0.86842 0.33908 0.85117 0.0
C2371 C 0.89092 0.32499 0.87357 0.0
C2372 C 0.9077 0.3262 0.88695 0.0
C2373 C 0.85892 0.32212 0.84941 0.0
C2374 C 0.86502 0.30659 0.86058 0.0
C2375 C 0.8813 0.30806 0.872 0.0
C2376 C 0.8536 0.28948 0.86237 0.0
C2377 C 0.84227 0.32111 0.83582 0.0
C2378 C 0.83553 0.29073 0.86999 0.0
C2379 C 0.8249 0.27478 0.87293 0.0
C2380 C 0.83211 0.2571 0.86855 0.0
C2381 C 0.85016 0.25581 0.86067 0.0
C2382 C 0.86087 0.27188 0.85774 0.0
H2383 H 0.84337 0.33135 0.82348 0.0
H2384 H 0.84062 0.30702 0.82932 0.0
H2385 H 0.82958 0.32448 0.84446 0.0
H2386 H 0.82973 0.30407 0.87408 0.0
H2387 H 0.81098 0.27636 0.87874 0.0
H2388 H 0.8755 0.65582 0.09559 0.0
H2389 H 0.90624 0.64182 0.09057 0.0
H2390 H 0.91354 0.63801 0.15423 0.0
H2391 H 0.88287 0.65157 0.15938 0.0
H2392 H 0.94232 0.65433 0.10575 0.0
H2393 H 0.92239 0.58449 0.13326 0.0
H2394 H 0.90551 0.6016 0.12561 0.0
H2395 H 0.91614 0.60307 0.14981 0.0
C2396 C 0.88362 0.65186 0.10851 0.0
C2397 C 0.87671 0.6548 0.12789 0.0
C2398 C 0.90121 0.644 0.1056 0.0
C2399 C 0.91208 0.63875 0.12202 0.0
C2400 C 0.90529 0.6418 0.14135 0.0
H2401 H 0.0143 0.58943 0.15454 0.0
H2402 H 0.98506 0.60628 0.15125 0.0
C2403 C 0.88781 0.64971 0.14426 0.0
C2404 C 0.93048 0.6299 0.11921 0.0
H2405 H 0.95478 0.59065 0.13057 0.0
C2406 C 0.94505 0.64032 0.1109 0.0
C2407 C 0.93394 0.61159 0.12582 0.0
C2408 C 0.91864 0.59944 0.13395 0.0
C2409 C 0.96324 0.6332 0.11006 0.0
C2410 C 0.96681 0.61518 0.1175 0.0
C2411 C 0.95205 0.60453 0.12501 0.0
C2412 C 0.98582 0.60736 0.11903 0.0
C2413 C 0.97865 0.64526 0.10207 0.0
C2414 C 0.99627 0.60284 0.10201 0.0
C2415 C 0.01314 0.59323 0.1039 0.0
C2416 C 0.0196 0.58785 0.12282 0.0
C2417 C 1.00952 0.59323 0.13979 0.0
C2418 C 0.99284 0.60286 0.13792 0.0
H2419 H 0.97415 0.65988 0.09997 0.0
H2420 H 0.99076 0.64501 0.11231 0.0
H2421 H 0.98327 0.63975 0.08744 0.0
H2422 H 0.99099 0.60596 0.08727 0.0
H2423 H 0.02057 0.58907 0.0906 0.0
H2424 H 0.68715 0.7734 0.34067 0.0
H2425 H 0.66806 0.74547 0.33541 0.0
H2426 H 0.66534 0.73703 0.399 0.0
H2427 H 0.68412 0.76483 0.40426 0.0
H2428 H 0.67827 0.70933 0.34803 0.0
H2429 H 0.61118 0.73017 0.38136 0.0
H2430 H 0.62856 0.74684 0.37379 0.0
H2431 H 0.63059 0.735 0.39732 0.0
C2432 C 0.68209 0.76579 0.35349 0.0
C2433 C 0.68714 0.77125 0.37288 0.0
C2434 C 0.67129 0.74981 0.35048 0.0
C2435 C 0.66511 0.73927 0.36683 0.0
C2436 C 0.66967 0.74509 0.38618 0.0
H2437 H 0.64339 0.62525 0.38832 0.0
H2438 H 0.65586 0.65641 0.38304 0.0
C2439 C 0.68055 0.76089 0.38916 0.0
C2440 C 0.65526 0.72135 0.36393 0.0
H2441 H 0.61675 0.69731 0.37862 0.0
C2442 C 0.66467 0.70678 0.3544 0.0
C2443 C 0.63744 0.71806 0.37205 0.0
C2444 C 0.62626 0.7334 0.38153 0.0
C2445 C 0.6572 0.68875 0.3538 0.0
C2446 C 0.63997 0.68519 0.36316 0.0
C2447 C 0.63006 0.69999 0.37165 0.0
C2448 C 0.63258 0.66604 0.36548 0.0
C2449 C 0.66798 0.67361 0.34346 0.0
C2450 C 0.61519 0.66114 0.35763 0.0
C2451 C 0.60795 0.6433 0.36073 0.0
C2452 C 0.61787 0.63012 0.37198 0.0
C2453 C 0.63532 0.6351 0.37973 0.0
C2454 C 0.64257 0.65285 0.37654 0.0
H2455 H 0.67769 0.67941 0.33219 0.0
H2456 H 0.67633 0.66593 0.35465 0.0
H2457 H 0.65854 0.6636 0.33599 0.0
H2458 H 0.60718 0.67116 0.3492 0.0
H2459 H 0.59438 0.64 0.35475 0.0
H2460 H 0.65064 0.39324 0.63978 0.0
H2461 H 0.61934 0.40509 0.63396 0.0
H2462 H 0.60583 0.35577 0.60052 0.0
H2463 H 0.6371 0.34357 0.60666 0.0
H2464 H 0.60029 0.41183 0.59726 0.0
H2465 H 0.56522 0.35864 0.64432 0.0
H2466 H 0.5899 0.36278 0.64558 0.0
H2467 H 0.58025 0.35026 0.6249 0.0
C2468 C 0.641 0.38485 0.63126 0.0
C2469 C 0.64633 0.36738 0.62384 0.0
C2470 C 0.62316 0.39171 0.62783 0.0
C2471 C 0.61021 0.38123 0.617 0.0
C2472 C 0.61556 0.36398 0.60913 0.0
H2473 H 0.50231 0.43421 0.5888 0.0
H2474 H 0.53024 0.41499 0.58436 0.0
C2475 C 0.63348 0.35711 0.6125 0.0
C2476 C 0.59104 0.38839 0.61449 0.0
H2477 H 0.54647 0.38198 0.63042 0.0
C2478 C 0.58845 0.40518 0.60423 0.0
C2479 C 0.57567 0.37971 0.62373 0.0
C2480 C 0.57778 0.36191 0.63539 0.0
C2481 C 0.571 0.41386 0.60353 0.0
C2482 C 0.55572 0.40542 0.61319 0.0
C2483 C 0.55819 0.38831 0.62288 0.0
C2484 C 0.53778 0.41527 0.6156 0.0
C2485 C 0.56924 0.43249 0.59338 0.0
C2486 C 0.53244 0.42119 0.63466 0.0
C2487 C 0.51659 0.43204 0.6372 0.0
C2488 C 0.50565 0.43715 0.62074 0.0
C2489 C 0.51047 0.43045 0.60174 0.0
C2490 C 0.52647 0.41962 0.59918 0.0
H2491 H 0.58295 0.43834 0.58913 0.0
H2492 H 0.56078 0.43094 0.57965 0.0
H2493 H 0.56207 0.44255 0.60328 0.0
H2494 H 0.54091 0.41792 0.64755 0.0
H2495 H 0.51306 0.43674 0.65205 0.0
H2496 H 0.09651 0.38247 0.37668 0.0
H2497 H 0.11077 0.35178 0.37296 0.0
H2498 H 0.16509 0.37678 0.37506 0.0
H2499 H 0.15102 0.40743 0.37925 0.0
H2500 H 0.13682 0.3379 0.34356 0.0
H2501 H 0.16536 0.3377 0.42044 0.0
H2502 H 0.14745 0.35362 0.41256 0.0
H2503 H 0.17127 0.3579 0.40608 0.0
C2504 C 0.1115 0.38143 0.37643 0.0
C2505 C 0.12262 0.39741 0.37843 0.0
C2506 C 0.11961 0.3639 0.37415 0.0
C2507 C 0.13897 0.362 0.37397 0.0
C2508 C 0.15011 0.37794 0.3754 0.0
H2509 H 0.22096 0.2767 0.37212 0.0
H2510 H 0.20263 0.30513 0.37056 0.0
C2511 C 0.14203 0.39547 0.37762 0.0
C2512 C 0.1476 0.34333 0.37292 0.0
H2513 H 0.17581 0.31387 0.39878 0.0
C2514 C 0.14524 0.33254 0.35566 0.0
C2515 C 0.15842 0.33633 0.38882 0.0
C2516 C 0.16068 0.34688 0.40811 0.0
C2517 C 0.15412 0.31523 0.35355 0.0
C2518 C 0.16538 0.30851 0.36924 0.0
C2519 C 0.16726 0.3191 0.3867 0.0
C2520 C 0.17624 0.29105 0.36769 0.0
C2521 C 0.15194 0.30459 0.33432 0.0
C2522 C 0.16754 0.27362 0.36614 0.0
C2523 C 0.17808 0.25725 0.36698 0.0
C2524 C 0.19741 0.25813 0.36966 0.0
C2525 C 0.20606 0.2756 0.3704 0.0
C2526 C 0.19561 0.29186 0.36943 0.0
H2527 H 0.14588 0.3133 0.3223 0.0
H2528 H 0.16553 0.29912 0.32921 0.0
H2529 H 0.14258 0.29258 0.33684 0.0
H2530 H 0.15257 0.27267 0.36507 0.0
H2531 H 0.17109 0.24394 0.36651 0.0
H2532 H 0.53172 0.41722 0.10791 0.0
H2533 H 0.50362 0.39838 0.1025 0.0
H2534 H 0.46979 0.44417 0.12233 0.0
H2535 H 0.49744 0.46298 0.12721 0.0
H2536 H 0.47742 0.38829 0.13113 0.0
H2537 H 0.44355 0.42884 0.07147 0.0
H2538 H 0.46779 0.43162 0.07767 0.0
H2539 H 0.45019 0.44339 0.09196 0.0
C2540 C 0.51825 0.42331 0.11076 0.0
C2541 C 0.51682 0.44154 0.11812 0.0
C2542 C 0.50223 0.41253 0.10775 0.0
C2543 C 0.48457 0.41996 0.11174 0.0
C2544 C 0.48319 0.43824 0.11876 0.0
H2545 H 0.37324 0.39424 0.13761 0.0
H2546 H 0.40426 0.40668 0.13122 0.0
C2547 C 0.49908 0.44892 0.12181 0.0
C2548 C 0.46749 0.40849 0.11001 0.0
H2549 H 0.42325 0.40978 0.09172 0.0
C2550 C 0.46571 0.3927 0.12215 0.0
C2551 C 0.45221 0.41423 0.09826 0.0
C2552 C 0.45359 0.43034 0.08395 0.0
C2553 C 0.44868 0.38327 0.12386 0.0
C2554 C 0.43313 0.38976 0.11305 0.0
C2555 C 0.43517 0.40493 0.10012 0.0
C2556 C 0.41429 0.38204 0.11628 0.0
C2557 C 0.44711 0.36709 0.13803 0.0
C2558 C 0.40959 0.36411 0.10978 0.0
C2559 C 0.39181 0.35695 0.11339 0.0
C2560 C 0.37849 0.36758 0.12368 0.0
C2561 C 0.38324 0.38561 0.1299 0.0
C2562 C 0.40092 0.39278 0.12616 0.0
H2563 H 0.45994 0.36505 0.14695 0.0
H2564 H 0.43526 0.36921 0.14837 0.0
H2565 H 0.44438 0.3542 0.12944 0.0
H2566 H 0.41968 0.35566 0.10199 0.0
H2567 H 0.38862 0.34298 0.10851 0.0
H2568 H 0.3114 0.7481 0.87741 0.0
H2569 H 0.3306 0.7206 0.87336 0.0
H2570 H 0.37552 0.75455 0.85155 0.0
H2571 H 0.35639 0.7825 0.85627 0.0
H2572 H 0.34731 0.70575 0.84004 0.0
H2573 H 0.39995 0.72553 0.89704 0.0
H2574 H 0.37804 0.73746 0.89473 0.0
H2575 H 0.39626 0.74176 0.87706 0.0
C2576 C 0.32542 0.74983 0.87194 0.0
C2577 C 0.33246 0.76759 0.86751 0.0
C2578 C 0.33634 0.73403 0.86945 0.0
C2579 C 0.3546 0.7355 0.86246 0.0
C2580 C 0.36157 0.75311 0.85733 0.0
H2581 H 0.43216 0.64054 0.85872 0.0
H2582 H 0.41879 0.67139 0.85252 0.0
C2583 C 0.35058 0.76905 0.85984 0.0
C2584 C 0.36611 0.71842 0.86099 0.0
H2585 H 0.40289 0.69604 0.88242 0.0
C2586 C 0.35961 0.70372 0.84912 0.0
C2587 C 0.38218 0.71577 0.87281 0.0
C2588 C 0.38953 0.73087 0.88626 0.0
C2589 C 0.36832 0.68628 0.84929 0.0
C2590 C 0.38384 0.68339 0.86179 0.0
C2591 C 0.39094 0.69831 0.87289 0.0
C2592 C 0.39188 0.66463 0.86481 0.0
C2593 C 0.36062 0.67096 0.83638 0.0
C2594 C 0.38123 0.65069 0.87391 0.0
C2595 C 0.38881 0.63316 0.87752 0.0
C2596 C 0.40723 0.62916 0.8721 0.0
C2597 C 0.41787 0.64312 0.86287 0.0
C2598 C 0.41029 0.66076 0.8594 0.0
H2599 H 0.35221 0.67656 0.82386 0.0
H2600 H 0.37195 0.66224 0.83017 0.0
H2601 H 0.35151 0.66192 0.84554 0.0
H2602 H 0.36707 0.65347 0.87845 0.0
H2603 H 0.38021 0.62268 0.88452 0.0
H2604 H 0.13534 0.6643 0.65193 0.0
H2605 H 0.10463 0.65142 0.64571 0.0
H2606 H 0.12089 0.63713 0.58577 0.0
H2607 H 0.15212 0.649 0.59226 0.0
H2608 H 0.07793 0.66034 0.61942 0.0
H2609 H 0.10157 0.588 0.60541 0.0
H2610 H 0.11679 0.60561 0.61533 0.0
H2611 H 0.11151 0.6051 0.58913 0.0
C2612 C 0.13256 0.65814 0.63751 0.0
C2613 C 0.14641 0.65742 0.62273 0.0
C2614 C 0.11487 0.65097 0.63389 0.0
C2615 C 0.11051 0.64299 0.61539 0.0
C2616 C 0.12404 0.64282 0.60033 0.0
H2617 H 1.00426 0.58688 0.58707 0.0
H2618 H 0.03298 0.60489 0.5819 0.0
C2619 C 0.14185 0.64985 0.60399 0.0
C2620 C 0.09182 0.63471 0.61221 0.0
H2621 H 0.06947 0.59364 0.6033 0.0
C2622 C 0.0761 0.6458 0.6157 0.0
C2623 C 0.0894 0.61571 0.60733 0.0
C2624 C 0.10568 0.60284 0.60425 0.0
C2625 C 0.05813 0.63828 0.61506 0.0
C2626 C 0.0558 0.61923 0.61078 0.0
C2627 C 0.07137 0.6083 0.60641 0.0
C2628 C 0.03765 0.6099 0.61331 0.0
C2629 C 0.04173 0.6506 0.61952 0.0
C2630 C 0.03083 0.60689 0.6326 0.0
C2631 C 0.01471 0.59654 0.63554 0.0
C2632 C 1.00498 0.5891 0.61924 0.0
C2633 C 1.01143 0.59264 0.59983 0.0
C2634 C 0.02781 0.60281 0.59689 0.0
H2635 H 0.04534 0.66556 0.61825 0.0
H2636 H 0.03005 0.64749 0.60924 0.0
H2637 H 0.0369 0.64792 0.63496 0.0
H2638 H 0.03831 0.6121 0.64545 0.0
H2639 H 1.00994 0.59407 0.65062 0.0
H2640 H 0.12595 0.62519 0.15856 0.0
H2641 H 0.13799 0.65653 0.16428 0.0
H2642 H 0.12031 0.67268 0.10534 0.0
H2643 H 0.10742 0.64184 0.09991 0.0
H2644 H 0.16512 0.67408 0.14497 0.0
H2645 H 0.10117 0.71566 0.13707 0.0
H2646 H 0.10068 0.69073 0.13983 0.0
H2647 H 0.10466 0.70109 0.11574 0.0
C2648 C 0.12426 0.63552 0.14697 0.0
C2649 C 0.11571 0.6309 0.12874 0.0
C2650 C 0.13126 0.65342 0.15022 0.0
C2651 C 0.12979 0.66711 0.13539 0.0
C2652 C 0.12122 0.66255 0.11724 0.0
H2653 H 0.18489 0.76455 0.09921 0.0
H2654 H 0.16623 0.73655 0.10426 0.0
C2655 C 0.11413 0.64474 0.11402 0.0
C2656 C 0.13832 0.68576 0.1382 0.0
H2657 H 0.13009 0.73222 0.13239 0.0
C2658 C 0.15736 0.68679 0.14264 0.0
C2659 C 0.12821 0.70242 0.13529 0.0
C2660 C 0.10751 0.70243 0.13193 0.0
C2661 C 0.1667 0.70391 0.14311 0.0
C2662 C 0.15679 0.7204 0.13903 0.0
C2663 C 0.13765 0.71951 0.13543 0.0
C2664 C 0.16652 0.73834 0.13642 0.0
C2665 C 0.18732 0.70429 0.14701 0.0
C2666 C 0.17248 0.74883 0.15288 0.0
C2667 C 0.18308 0.76496 0.15001 0.0
C2668 C 0.18802 0.77063 0.13066 0.0
C2669 C 0.18146 0.76038 0.11427 0.0
C2670 C 0.17075 0.74445 0.11712 0.0
H2671 H 0.19311 0.69019 0.14952 0.0
H2672 H 0.1946 0.71074 0.13416 0.0
H2673 H 0.19022 0.71295 0.16034 0.0
H2674 H 0.16932 0.74429 0.16789 0.0
H2675 H 0.18808 0.77253 0.16288 0.0
H2676 H 0.99223 0.41566 0.89578 0.0
H2677 H 0.02 0.39638 0.90139 0.0
H2678 H 0.05481 0.44294 0.88598 0.0
H2679 H 0.02747 0.46213 0.88093 0.0
H2680 H 0.04712 0.38765 0.87339 0.0
H2681 H 0.0792 0.4247 0.93668 0.0
H2682 H 0.05522 0.42804 0.92971 0.0
H2683 H 0.0734 0.44041 0.91692 0.0
C2684 C 1.00584 0.42179 0.89398 0.0
C2685 C 1.00765 0.44036 0.88778 0.0
C2686 C 0.02167 0.41078 0.89709 0.0
C2687 C 0.03951 0.4183 0.89438 0.0
C2688 C 0.04125 0.43692 0.88858 0.0
H2689 H 0.15102 0.3937 0.86955 0.0
H2690 H 0.11984 0.40573 0.87594 0.0
C2691 C 0.02555 0.44782 0.88542 0.0
C2692 C 0.05646 0.40664 0.89607 0.0
H2693 H 0.10015 0.40683 0.91587 0.0
C2694 C 0.05857 0.39152 0.88303 0.0
C2695 C 0.07139 0.41168 0.90869 0.0
C2696 C 0.06962 0.42698 0.92393 0.0
C2697 C 0.07562 0.38216 0.88132 0.0
C2698 C 0.09086 0.38803 0.89301 0.0
C2699 C 0.08847 0.40246 0.90681 0.0
C2700 C 0.10979 0.38055 0.8898 0.0
C2701 C 0.07761 0.36676 0.86622 0.0
C2702 C 0.11451 0.36246 0.8957 0.0
C2703 C 0.13239 0.35554 0.8921 0.0
C2704 C 0.14576 0.36658 0.88242 0.0
C2705 C 0.14097 0.38477 0.87679 0.0
C2706 C 0.12321 0.3917 0.88053 0.0
H2707 H 0.06489 0.36496 0.85705 0.0
H2708 H 0.08951 0.36965 0.85617 0.0
H2709 H 0.08051 0.3535 0.87405 0.0
H2710 H 0.10436 0.35369 0.90299 0.0
H2711 H 0.13561 0.34143 0.89651 0.0
H2712 H 0.39681 0.40055 0.65414 0.0
H2713 H 0.38342 0.36952 0.65828 0.0
H2714 H 0.41006 0.35168 0.60397 0.0
H2715 H 0.4232 0.38272 0.59961 0.0
H2716 H 0.37445 0.34304 0.60362 0.0
H2717 H 0.4041 0.32012 0.67565 0.0
H2718 H 0.39263 0.34216 0.67752 0.0
H2719 H 0.41298 0.33991 0.66214 0.0
C2720 C 0.40007 0.3899 0.64329 0.0
C2721 C 0.41096 0.39411 0.62649 0.0
C2722 C 0.39249 0.37212 0.64572 0.0
C2723 C 0.39591 0.35813 0.63158 0.0
C2724 C 0.40723 0.3622 0.6151 0.0
H2725 H 0.35627 0.24237 0.63832 0.0
H2726 H 0.37643 0.27003 0.63903 0.0
C2727 C 0.41466 0.37998 0.61257 0.0
C2728 C 0.38636 0.33983 0.63289 0.0
H2729 H 0.37781 0.30287 0.66362 0.0
C2730 C 0.37538 0.3342 0.61668 0.0
C2731 C 0.3877 0.32812 0.6498 0.0
C2732 C 0.40015 0.33277 0.66718 0.0
C2733 C 0.36528 0.31756 0.61715 0.0
C2734 C 0.36578 0.30637 0.63448 0.0
C2735 C 0.37725 0.31159 0.65044 0.0
C2736 C 0.35382 0.28966 0.63638 0.0
C2737 C 0.35411 0.31213 0.59901 0.0
C2738 C 0.33449 0.29158 0.63544 0.0
C2739 C 0.32309 0.27594 0.63493 0.0
C2740 C 0.33073 0.25799 0.63558 0.0
C2741 C 0.35004 0.25604 0.63779 0.0
C2742 C 0.36153 0.2718 0.63815 0.0
H2743 H 0.35933 0.31909 0.58533 0.0
H2744 H 0.35444 0.29687 0.59662 0.0
H2745 H 0.33946 0.3164 0.60119 0.0
H2746 H 0.32821 0.30523 0.63456 0.0
H2747 H 0.30823 0.27787 0.6337 0.0
H2748 H 0.37403 0.65413 0.40772 0.0
H2749 H 0.40511 0.64174 0.41432 0.0
H2750 H 0.41579 0.63943 0.35109 0.0
H2751 H 0.38493 0.65196 0.34444 0.0
H2752 H 0.42044 0.60935 0.40421 0.0
H2753 H 0.46167 0.66576 0.37035 0.0
H2754 H 0.43718 0.6681 0.37542 0.0
H2755 H 0.44502 0.65677 0.353 0.0
C2756 C 0.38302 0.65098 0.39524 0.0
C2757 C 0.37707 0.65418 0.37556 0.0
C2758 C 0.40081 0.64399 0.39903 0.0
C2759 C 0.41298 0.64007 0.38323 0.0
C2760 C 0.40691 0.64294 0.36357 0.0
H2761 H 0.49829 0.56142 0.36988 0.0
H2762 H 0.46997 0.57908 0.37468 0.0
C2763 C 0.38922 0.65003 0.35977 0.0
C2764 C 0.43166 0.63206 0.3871 0.0
H2765 H 0.47732 0.63629 0.37421 0.0
C2766 C 0.43291 0.61542 0.39792 0.0
C2767 C 0.44806 0.64016 0.37938 0.0
C2768 C 0.44796 0.6588 0.36909 0.0
C2769 C 0.44989 0.60606 0.40008 0.0
C2770 C 0.46597 0.61331 0.39077 0.0
C2771 C 0.46496 0.63057 0.3811 0.0
C2772 C 0.48339 0.60237 0.38912 0.0
C2773 C 0.45034 0.58834 0.41207 0.0
C2774 C 0.50056 0.6097 0.39524 0.0
C2775 C 0.51701 0.59966 0.39216 0.0
C2776 C 0.51654 0.58225 0.38268 0.0
C2777 C 0.49926 0.5749 0.37691 0.0
C2778 C 0.48295 0.58488 0.37996 0.0
H2779 H 0.43948 0.58839 0.42383 0.0
H2780 H 0.4475 0.5764 0.40207 0.0
H2781 H 0.46407 0.5862 0.41924 0.0
H2782 H 0.50125 0.62327 0.40218 0.0
H2783 H 0.5301 0.60574 0.39665 0.0
H2784 H 0.29762 0.38337 0.07738 0.0
H2785 H 0.28675 0.3839 0.04286 0.0
H2786 H 0.26183 0.32996 0.05076 0.0
H2787 H 0.27255 0.32931 0.08538 0.0
H2788 H 0.29534 0.35778 0.01242 0.0
H2789 H 0.21959 0.36218 0.02717 0.0
H2790 H 0.23681 0.36742 0.04591 0.0
H2791 H 0.23143 0.34371 0.03993 0.0
C2792 C 0.28973 0.37165 0.07185 0.0
C2793 C 0.2859 0.35632 0.08417 0.0
C2794 C 0.28356 0.37198 0.0521 0.0
C2795 C 0.27334 0.35707 0.04436 0.0
C2796 C 0.26946 0.34174 0.05658 0.0
H2797 H 0.25222 0.33004 0.92033 0.0
H2798 H 0.26288 0.33059 0.95495 0.0
C2799 C 0.27566 0.34137 0.07633 0.0
C2800 C 0.26723 0.35734 0.02329 0.0
H2801 H 0.22875 0.35729 0.99361 0.0
C2802 C 0.28079 0.35771 0.00828 0.0
C2803 C 0.24824 0.35744 0.018 0.0
C2804 C 0.23313 0.35783 0.03356 0.0
C2805 C 0.27584 0.35791 0.98804 0.0
C2806 C 0.25686 0.35752 0.98274 0.0
C2807 C 0.2433 0.35744 0.99775 0.0
C2808 C 0.25076 0.35735 0.96167 0.0
C2809 C 0.29095 0.35878 0.97249 0.0
C2810 C 0.2402 0.3721 0.95408 0.0
C2811 C 0.23406 0.37183 0.93432 0.0
C2812 C 0.23824 0.35671 0.92184 0.0
C2813 C 0.24883 0.34193 0.92951 0.0
C2814 C 0.255 0.34225 0.94926 0.0
H2815 H 0.30438 0.36339 0.97894 0.0
H2816 H 0.29297 0.34476 0.96599 0.0
H2817 H 0.28707 0.36839 0.96023 0.0
H2818 H 0.23674 0.38384 0.96346 0.0
H2819 H 0.22589 0.38341 0.92892 0.0
H2820 H 0.9498 0.98956 0.1737 0.0
H2821 H 0.94966 1.00085 0.20791 0.0
H2822 H 0.88991 1.00451 0.20637 0.0
H2823 H 0.88994 0.99255 0.17215 0.0
H2824 H 0.93852 0.03296 0.22208 0.0
H2825 H 0.8975 0.97692 0.25782 0.0
H2826 H 0.90634 0.97504 0.23274 0.0
H2827 H 0.88559 0.98816 0.23765 0.0
C2828 C 0.93661 0.99273 0.18061 0.0
C2829 C 0.91988 0.99017 0.17023 0.0
C2830 C 0.93655 0.99915 0.20021 0.0
C2831 C 0.91977 1.00329 0.20984 0.0
C2832 C 0.903 1.00095 0.19945 0.0
H2833 H 0.92178 0.07242 0.3166 0.0
H2834 H 0.9159 0.06016 0.28323 0.0
C2835 C 0.90304 0.99425 0.17986 0.0
C2836 C 0.92013 1.01072 0.23047 0.0
H2837 H 0.90471 1.00309 0.27792 0.0
C2838 C 0.93114 0.0264 0.23429 0.0
C2839 C 0.91066 1.00203 0.24644 0.0
C2840 C 0.8995 0.98451 0.24355 0.0
C2841 C 0.93314 0.03354 0.25361 0.0
C2842 C 0.92323 0.02521 0.2695 0.0
C2843 C 0.91213 1.00958 0.2657 0.0
C2844 C 0.92478 0.03218 0.29026 0.0
C2845 C 0.9464 0.04952 0.2568 0.0
C2846 C 0.93059 0.02028 0.30565 0.0
C2847 C 0.93347 0.02717 0.3249 0.0
C2848 C 0.93083 0.04611 0.32895 0.0
C2849 C 0.92429 0.05783 0.31376 0.0
C2850 C 0.92102 0.05086 0.29466 0.0
H2851 H 0.9568 0.05046 0.24461 0.0
H2852 H 0.93849 0.06273 0.25697 0.0
H2853 H 0.95391 0.04815 0.27117 0.0
H2854 H 0.93342 1.00578 0.30263 0.0
H2855 H 0.93843 0.01784 0.3364 0.0
H2856 H 0.244 0.63935 0.58024 0.0
H2857 H 0.25552 0.64042 0.54583 0.0
H2858 H 0.24767 0.69982 0.54498 0.0
H2859 H 0.237 0.69891 0.57947 0.0
H2860 H 0.24056 0.65071 0.51166 0.0
H2861 H 0.30018 0.69681 0.52707 0.0
H2862 H 0.28665 0.68645 0.54674 0.0
H2863 H 0.27882 0.70739 0.53464 0.0
C2864 C 0.24486 0.65263 0.57269 0.0
C2865 C 0.23992 0.66909 0.58259 0.0
C2866 C 0.2514 0.65322 0.55306 0.0
C2867 C 0.25289 0.67026 0.54297 0.0
C2868 C 0.24728 0.6866 0.55266 0.0
H2869 H 0.26306 0.68611 0.41464 0.0
H2870 H 0.25147 0.68057 0.44849 0.0
C2871 C 0.24112 0.68606 0.57236 0.0
C2872 C 0.26016 0.67103 0.52228 0.0
H2873 H 0.29156 0.69348 0.49287 0.0
C2874 C 0.25184 0.65991 0.50756 0.0
C2875 C 0.27512 0.68277 0.51698 0.0
C2876 C 0.28583 0.69386 0.53225 0.0
C2877 C 0.25779 0.66055 0.48761 0.0
C2878 C 0.27201 0.67313 0.48213 0.0
C2879 C 0.28052 0.68397 0.49696 0.0
C2880 C 0.2786 0.67527 0.46126 0.0
C2881 C 0.24902 0.64744 0.4728 0.0
C2882 C 0.2977 0.67455 0.45717 0.0
C2883 C 0.30433 0.67832 0.43807 0.0
C2884 C 0.29199 0.68257 0.42254 0.0
C2885 C 0.27284 0.68272 0.42637 0.0
C2886 C 0.26621 0.67939 0.44566 0.0
H2887 H 0.24328 0.63494 0.4803 0.0
H2888 H 0.23735 0.6546 0.46521 0.0
H2889 H 0.25915 0.64288 0.46134 0.0
H2890 H 0.30756 0.67137 0.46889 0.0
H2891 H 0.31916 0.67794 0.43547 0.0
H2892 H 0.60992 0.99975 0.83873 0.0
H2893 H 0.61406 1.01247 0.80509 0.0
H2894 H 0.56568 0.98236 0.78516 0.0
H2895 H 0.56211 0.96896 0.81831 0.0
H2896 H 0.59181 0.97947 0.75869 0.0
H2897 H 0.5858 0.0537 0.78004 0.0
H2898 H 0.60463 0.04189 0.79206 0.0
H2899 H 0.58108 0.03515 0.79733 0.0
C2900 C 0.60018 0.99593 0.82713 0.0
C2901 C 0.58567 0.98343 0.83109 0.0
C2902 C 0.60248 1.00327 0.80796 0.0
C2903 C 0.58999 0.99864 0.79263 0.0
C2904 C 0.57552 0.98614 0.79668 0.0
H2905 H 0.56163 0.05824 0.68723 0.0
H2906 H 0.56557 0.04478 0.7203 0.0
C2907 C 0.57346 0.97852 0.81566 0.0
C2908 C 0.59179 1.00658 0.77227 0.0
H2909 H 0.59218 0.04732 0.74627 0.0
C2910 C 0.59192 0.99432 0.75597 0.0
C2911 C 0.59185 0.02596 0.76872 0.0
C2912 C 0.59066 0.03995 0.78544 0.0
C2913 C 0.5914 1.00084 0.73625 0.0
C2914 C 0.59156 0.02022 0.7327 0.0
C2915 C 0.59213 0.03247 0.749 0.0
C2916 C 0.58952 0.02818 0.71238 0.0
C2917 C 0.58973 0.98687 0.71956 0.0
C2918 C 0.60169 0.02338 0.69682 0.0
C2919 C 0.59916 0.03076 0.67769 0.0
C2920 C 0.58477 0.04346 0.674 0.0
C2921 C 0.57289 0.04853 0.68966 0.0
C2922 C 0.57516 0.04087 0.7086 0.0
H2923 H 0.58477 0.97318 0.72505 0.0
H2924 H 0.58001 0.9918 0.70785 0.0
H2925 H 0.60356 0.98474 0.71267 0.0
H2926 H 0.61319 0.01403 0.69946 0.0
H2927 H 0.60866 0.02681 0.66591 0.0
H2928 H 0.80913 0.70514 0.06416 0.0
H2929 H 0.7968 0.69848 0.03109 0.0
H2930 H 0.75714 0.66049 0.05673 0.0
H2931 H 0.76917 0.66744 0.09011 0.0
H2932 H 0.79577 0.6656 0.01126 0.0
H2933 H 0.72426 0.69282 0.02201 0.0
H2934 H 0.74278 0.69749 0.03942 0.0
H2935 H 0.73125 0.67535 0.03959 0.0
C2936 C 0.79772 0.69543 0.06283 0.0
C2937 C 0.79007 0.68687 0.07977 0.0
C2938 C 0.7907 0.69162 0.04389 0.0
C2939 C 0.77592 0.67915 0.04144 0.0
C2940 C 0.76829 0.67046 0.05831 0.0
H2941 H 0.7242 0.64426 0.92899 0.0
H2942 H 0.73459 0.64491 0.9638 0.0
C2943 C 0.77522 0.67439 0.07736 0.0
C2944 C 0.76894 0.67512 0.0211 0.0
H2945 H 0.73099 0.6791 0.99085 0.0
C2946 C 0.78158 0.66848 0.00684 0.0
C2947 C 0.75041 0.67885 0.01536 0.0
C2948 C 0.73639 0.68667 0.02982 0.0
C2949 C 0.77628 0.66579 0.98693 0.0
C2950 C 0.7579 0.66989 0.98115 0.0
C2951 C 0.74508 0.67596 0.99545 0.0
C2952 C 0.75207 0.66906 0.96006 0.0
C2953 C 0.79037 0.65879 0.9721 0.0
C2954 C 0.75847 0.68247 0.94655 0.0
C2955 C 0.7525 0.68224 0.92675 0.0
C2956 C 0.74008 0.66851 0.92009 0.0
C2957 C 0.73386 0.65495 0.93363 0.0
C2958 C 0.73972 0.65531 0.95352 0.0
H2959 H 0.80281 0.6529 0.97957 0.0
H2960 H 0.78415 0.648 0.96234 0.0
H2961 H 0.79491 0.67047 0.96247 0.0
H2962 H 0.76791 0.69327 0.95143 0.0
H2963 H 0.75755 0.69288 0.91671 0.0
H2964 H 0.06317 0.0561 0.81746 0.0
H2965 H 0.06705 0.04292 0.78427 0.0
H2966 H 0.11496 1.01233 0.80461 0.0
H2967 H 0.11054 0.02487 0.83829 0.0
H2968 H 0.0938 0.04583 0.75823 0.0
H2969 H 0.08636 0.97152 0.77885 0.0
H2970 H 0.08157 0.99003 0.79618 0.0
H2971 H 0.10513 0.98309 0.79127 0.0
C2972 C 0.07449 0.04649 0.8149 0.0
C2973 C 0.08648 0.0414 0.83046 0.0
C2974 C 0.07673 0.03899 0.7959 0.0
C2975 C 0.09115 0.02643 0.79194 0.0
C2976 C 0.10343 0.0216 0.8074 0.0
H2977 H 0.11041 0.99874 0.6652 0.0
H2978 H 0.11506 1.01109 0.69891 0.0
C2979 C 0.10096 0.02883 0.82659 0.0
C2980 C 0.09312 0.01863 0.77155 0.0
H2981 H 0.09292 0.9781 0.74518 0.0
C2982 C 0.09366 0.03101 0.75537 0.0
C2983 C 0.09285 0.99928 0.76783 0.0
C2984 C 0.09127 0.9852 0.78442 0.0
C2985 C 0.0932 0.02466 0.73559 0.0
C2986 C 0.09297 1.00531 0.73187 0.0
C2987 C 0.09316 0.99292 0.74805 0.0
C2988 C 0.09086 0.99757 0.71146 0.0
C2989 C 0.092 0.03878 0.719 0.0
C2990 C 0.07614 0.98537 0.70743 0.0
C2991 C 0.07376 0.97796 0.6884 0.0
C2992 C 0.08592 0.98279 0.67289 0.0
C2993 C 0.10069 0.99499 0.67685 0.0
C2994 C 0.1033 1.00212 0.69607 0.0
H2995 H 0.0874 0.05257 0.72456 0.0
H2996 H 0.10592 0.04057 0.7122 0.0
H2997 H 0.08222 0.03419 0.70721 0.0
H2998 H 0.06634 0.98166 0.71902 0.0
H2999 H 0.06222 0.96863 0.68577 0.0
H3000 H 0.74278 0.38437 0.58091 0.0
H3001 H 0.75287 0.38266 0.54608 0.0
H3002 H 0.74499 0.32323 0.54686 0.0
H3003 H 0.73588 0.3248 0.58186 0.0
H3004 H 0.77584 0.33058 0.52984 0.0
H3005 H 0.72314 0.37708 0.49664 0.0
H3006 H 0.73638 0.38864 0.51556 0.0
H3007 H 0.72179 0.36926 0.52214 0.0
C3008 C 0.74319 0.37097 0.57358 0.0
C3009 C 0.73861 0.35472 0.58405 0.0
C3010 C 0.74877 0.37002 0.55363 0.0
C3011 C 0.7493 0.35286 0.54365 0.0
C3012 C 0.74465 0.33664 0.55417 0.0
H3013 H 0.76208 0.33867 0.4149 0.0
H3014 H 0.74961 0.34223 0.44876 0.0
C3015 C 0.73949 0.33754 0.57419 0.0
C3016 C 0.75559 0.35154 0.52259 0.0
H3017 H 0.74887 0.36908 0.4758 0.0
C3018 C 0.76982 0.33892 0.51802 0.0
C3019 C 0.74755 0.36216 0.50705 0.0
C3020 C 0.73123 0.37489 0.51054 0.0
C3021 C 0.77637 0.33677 0.4985 0.0
C3022 C 0.7691 0.34817 0.48316 0.0
C3023 C 0.75465 0.36056 0.48761 0.0
C3024 C 0.77635 0.34733 0.46247 0.0
C3025 C 0.79072 0.32194 0.49451 0.0
C3026 C 0.79539 0.34964 0.45883 0.0
C3027 C 0.80252 0.34723 0.43968 0.0
C3028 C 0.79069 0.34303 0.42367 0.0
C3029 C 0.77149 0.34185 0.42703 0.0
C3030 C 0.76438 0.34388 0.44633 0.0
H3031 H 0.79015 0.31075 0.5059 0.0
H3032 H 0.78878 0.31557 0.47958 0.0
H3033 H 0.80477 0.32822 0.49516 0.0
H3034 H 0.80481 0.35299 0.47089 0.0
H3035 H 0.81735 0.34857 0.43743 0.0
H3036 H 0.44169 0.95831 0.31153 0.0
H3037 H 0.43511 0.97207 0.27908 0.0
H3038 H 0.4167 0.02242 0.30769 0.0
H3039 H 0.42338 1.00878 0.34044 0.0
H3040 H 0.401 0.98694 0.2639 0.0
H3041 H 0.45778 0.03929 0.26806 0.0
H3042 H 0.45676 0.01946 0.28448 0.0
H3043 H 0.44159 0.03887 0.28846 0.0
C3044 C 0.43623 0.97231 0.311 0.0
C3045 C 0.4332 0.98251 0.32858 0.0
C3046 C 0.43241 0.98012 0.29242 0.0
C3047 C 0.42558 0.99829 0.29101 0.0
C3048 C 0.42219 1.00844 0.3085 0.0
H3049 H 0.39024 0.04627 0.17644 0.0
H3050 H 0.39026 0.03607 0.2113 0.0
C3051 C 0.42597 1.00061 0.32717 0.0
C3052 C 0.42252 1.00656 0.27109 0.0
H3053 H 0.44003 0.03859 0.23865 0.0
C3054 C 0.40936 0.99837 0.2584 0.0
C3055 C 0.43361 0.02134 0.26399 0.0
C3056 C 0.44834 0.03023 0.27684 0.0
C3057 C 0.40724 1.00436 0.23861 0.0
C3058 C 0.4185 0.01899 0.23146 0.0
C3059 C 0.43138 0.02743 0.24427 0.0
C3060 C 0.4181 0.02488 0.21034 0.0
C3061 C 0.39354 0.99454 0.22526 0.0
C3062 C 0.43377 0.02204 0.19835 0.0
C3063 C 0.43383 0.02782 0.1785 0.0
C3064 C 0.41823 0.03671 0.17027 0.0
C3065 C 0.40246 0.03943 0.1823 0.0
C3066 C 0.40241 0.03358 0.2022 0.0
H3067 H 0.38821 0.98154 0.23209 0.0
H3068 H 0.38157 1.00385 0.22235 0.0
H3069 H 0.40002 0.99113 0.21069 0.0
H3070 H 0.446 0.01532 0.20439 0.0
H3071 H 0.44618 0.02543 0.16969 0.0
H3072 H 0.77296 0.83216 0.58441 0.0
H3073 H 0.76382 0.83303 0.54944 0.0
H3074 H 0.77919 0.89084 0.5463 0.0
H3075 H 0.78911 0.88991 0.58117 0.0
H3076 H 0.73824 0.85297 0.52973 0.0
H3077 H 0.80829 0.86965 0.50025 0.0
H3078 H 0.80448 0.86277 0.52578 0.0
H3079 H 0.7998 0.88622 0.51802 0.0
C3080 C 0.77454 0.84505 0.57631 0.0
C3081 C 0.78214 0.86087 0.58552 0.0
C3082 C 0.76921 0.84554 0.5563 0.0
C3083 C 0.77123 0.86187 0.54511 0.0
C3084 C 0.77803 0.87793 0.55448 0.0
H3085 H 0.73623 0.88717 0.42397 0.0
H3086 H 0.7455 0.88888 0.45905 0.0
C3087 C 0.78355 0.87741 0.57447 0.0
C3088 C 0.7662 0.86195 0.52366 0.0
H3089 H 0.78354 0.86948 0.4769 0.0
C3090 C 0.74816 0.85657 0.5182 0.0
C3091 C 0.77921 0.86654 0.50859 0.0
C3092 C 0.79907 0.87145 0.51339 0.0
C3093 C 0.74277 0.85574 0.49812 0.0
C3094 C 0.75572 0.86045 0.48317 0.0
C3095 C 0.77368 0.86596 0.48852 0.0
C3096 C 0.75082 0.85946 0.46184 0.0
C3097 C 0.72329 0.84984 0.49287 0.0
C3098 C 0.75102 0.84236 0.45186 0.0
C3099 C 0.74584 0.84132 0.4318 0.0
C3100 C 0.74026 0.85738 0.42148 0.0
C3101 C 0.74036 0.87454 0.43152 0.0
C3102 C 0.74567 0.87556 0.45153 0.0
H3103 H 0.71442 0.84807 0.50628 0.0
H3104 H 0.7168 0.86028 0.48287 0.0
H3105 H 0.72375 0.83646 0.48466 0.0
H3106 H 0.75501 0.8298 0.45966 0.0
H3107 H 0.74589 0.8279 0.42453 0.0
H3108 H 0.40182 0.55858 0.82055 0.0
H3109 H 0.40154 0.54712 0.78629 0.0
H3110 H 0.4379 0.50217 0.80321 0.0
H3111 H 0.43903 0.51424 0.83732 0.0
H3112 H 0.44898 0.51559 0.76985 0.0
H3113 H 0.37328 0.50534 0.76318 0.0
H3114 H 0.37854 0.52896 0.76931 0.0
H3115 H 0.38423 0.51068 0.78665 0.0
C3116 C 0.40965 0.54617 0.81698 0.0
C3117 C 0.42035 0.53722 0.83161 0.0
C3118 C 0.40937 0.53954 0.79741 0.0
C3119 C 0.4193 0.52347 0.7922 0.0
C3120 C 0.43002 0.51452 0.80685 0.0
H3121 H 0.40042 0.4663 0.67947 0.0
H3122 H 0.40086 0.47602 0.71439 0.0
C3123 C 0.43065 0.52141 0.82633 0.0
C3124 C 0.41912 0.51644 0.77133 0.0
H3125 H 0.39042 0.50541 0.73259 0.0
C3126 C 0.43615 0.51319 0.76178 0.0
C3127 C 0.40242 0.51295 0.76084 0.0
C3128 C 0.38361 0.51447 0.77062 0.0
C3129 C 0.43697 0.50688 0.74199 0.0
C3130 C 0.42028 0.50454 0.73109 0.0
C3131 C 0.40324 0.50747 0.74077 0.0
C3132 C 0.42011 0.49874 0.70979 0.0
C3133 C 0.45573 0.50235 0.73323 0.0
C3134 C 0.43054 0.5084 0.69544 0.0
C3135 C 0.43063 0.50259 0.67555 0.0
C3136 C 0.41979 0.48738 0.66951 0.0
C3137 C 0.40885 0.47812 0.6837 0.0
C3138 C 0.40911 0.48366 0.70367 0.0
H3139 H 0.46594 0.49884 0.74507 0.0
H3140 H 0.45491 0.49051 0.72267 0.0
H3141 H 0.46109 0.51467 0.72514 0.0
H3142 H 0.43861 0.52048 0.69958 0.0
H3143 H 0.43902 0.51011 0.66485 0.0
H3144 H 0.75487 0.19381 0.08318 0.0
H3145 H 0.76496 0.19272 0.04833 0.0
H3146 H 0.73786 0.13978 0.041 0.0
H3147 H 0.7277 0.14069 0.07577 0.0
H3148 H 0.78644 0.16322 0.02806 0.0
H3149 H 0.71596 0.17482 0.99654 0.0
H3150 H 0.72181 0.18047 0.02202 0.0
H3151 H 0.71797 0.15674 0.01494 0.0
C3152 C 0.75109 0.1819 0.07419 0.0
C3153 C 0.7404 0.16738 0.08223 0.0
C3154 C 0.75689 0.1813 0.05431 0.0
C3155 C 0.75196 0.16627 0.04211 0.0
C3156 C 0.74161 0.15159 0.05016 0.0
H3157 H 0.79535 0.13844 0.92463 0.0
H3158 H 0.78545 0.13771 0.95952 0.0
C3159 C 0.73589 0.15212 0.07005 0.0
C3160 C 0.75748 0.16604 0.02089 0.0
H3161 H 0.74009 0.1686 0.97363 0.0
C3162 C 0.77635 0.16438 0.01612 0.0
C3163 C 0.74423 0.16773 0.00545 0.0
C3164 C 0.72385 0.17018 0.00987 0.0
C3165 C 0.78234 0.1642 0.99621 0.0
C3166 C 0.76906 0.16556 0.98074 0.0
C3167 C 0.7502 0.1674 0.98554 0.0
C3168 C 0.77452 0.16569 0.95947 0.0
C3169 C 0.80285 0.16292 0.99188 0.0
C3170 C 0.77114 0.18146 0.94776 0.0
C3171 C 0.77668 0.18191 0.92781 0.0
C3172 C 0.78564 0.16653 0.91917 0.0
C3173 C 0.78859 0.15056 0.93084 0.0
C3174 C 0.78304 0.15015 0.95081 0.0
H3175 H 0.81137 0.16615 0.00525 0.0
H3176 H 0.80623 0.14858 0.98703 0.0
H3177 H 0.80681 0.17256 0.97968 0.0
H3178 H 0.76447 0.19355 0.95416 0.0
H3179 H 0.77411 0.19439 0.91925 0.0
H3180 H 0.10015 0.45525 0.31619 0.0
H3181 H 0.10641 0.4677 0.28304 0.0
H3182 H 0.0943 0.52297 0.30431 0.0
H3183 H 0.08898 0.51058 0.33787 0.0
H3184 H 0.08331 0.4831 0.25932 0.0
H3185 H 0.13967 0.53374 0.27271 0.0
H3186 H 0.13253 0.51716 0.29135 0.0
H3187 H 0.11979 0.53845 0.28795 0.0
C3188 C 0.0991 0.4701 0.31385 0.0
C3189 C 0.09405 0.48197 0.32954 0.0
C3190 C 0.10268 0.47721 0.29491 0.0
C3191 C 0.10102 0.49632 0.29113 0.0
C3192 C 0.09619 0.50826 0.3069 0.0
H3193 H 0.0754 0.539 0.17381 0.0
H3194 H 0.07505 0.52787 0.20815 0.0
C3195 C 0.093 0.50117 0.32604 0.0
C3196 C 0.10283 0.50333 0.27037 0.0
H3197 H 0.12384 0.53617 0.24136 0.0
C3198 C 0.09233 0.4946 0.25542 0.0
C3199 C 0.11477 0.51816 0.26513 0.0
C3200 C 0.12747 0.52728 0.2801 0.0
C3201 C 0.09322 0.50039 0.2355 0.0
C3202 C 0.10432 0.51591 0.23044 0.0
C3203 C 0.11512 0.52444 0.24528 0.0
C3204 C 0.10474 0.52352 0.20988 0.0
C3205 C 0.08249 0.48953 0.22006 0.0
C3206 C 0.12164 0.52563 0.19968 0.0
C3207 C 0.1219 0.5324 0.18012 0.0
C3208 C 0.10525 0.53699 0.1704 0.0
C3209 C 0.08841 0.53519 0.18076 0.0
C3210 C 0.08819 0.52876 0.20038 0.0
H3211 H 0.08002 0.47501 0.225 0.0
H3212 H 0.06874 0.49613 0.21777 0.0
H3213 H 0.08991 0.48917 0.20556 0.0
H3214 H 0.1346 0.52179 0.20675 0.0
H3215 H 0.13508 0.53371 0.17249 0.0
H3216 H 0.30877 0.15102 0.57429 0.0
H3217 H 0.29916 0.1511 0.53937 0.0
H3218 H 0.25348 0.18741 0.55392 0.0
H3219 H 0.26365 0.18813 0.58873 0.0
H3220 H 0.26976 0.13959 0.52134 0.0
H3221 H 0.2749 0.21528 0.50841 0.0
H3222 H 0.28345 0.20449 0.53085 0.0
H3223 H 0.25917 0.21 0.5283 0.0
C3224 C 0.29669 0.15906 0.57003 0.0
C3225 C 0.28701 0.16967 0.58419 0.0
C3226 C 0.29122 0.1591 0.55005 0.0
C3227 C 0.27582 0.16957 0.54387 0.0
C3228 C 0.26577 0.17972 0.55815 0.0
H3229 H 0.21805 0.15 0.43198 0.0
H3230 H 0.22874 0.14997 0.46654 0.0
C3231 C 0.27148 0.17999 0.57808 0.0
C3232 C 0.27013 0.16949 0.52256 0.0
H3233 H 0.25929 0.19771 0.48335 0.0
C3234 C 0.2676 0.15231 0.51301 0.0
C3235 C 0.26765 0.18607 0.51151 0.0
C3236 C 0.27164 0.20498 0.52023 0.0
C3237 C 0.26246 0.15123 0.49286 0.0
C3238 C 0.25896 0.16781 0.48213 0.0
C3239 C 0.26174 0.18499 0.4916 0.0
C3240 C 0.25249 0.16771 0.46109 0.0
C3241 C 0.26132 0.13232 0.48322 0.0
C3242 C 0.26181 0.17827 0.44659 0.0
C3243 C 0.25541 0.17871 0.42692 0.0
C3244 C 0.23969 0.16841 0.42132 0.0
C3245 C 0.23039 0.15783 0.4358 0.0
C3246 C 0.23657 0.1577 0.45554 0.0
H3247 H 0.27028 0.12209 0.49105 0.0
H3248 H 0.24683 0.12718 0.48409 0.0
H3249 H 0.26554 0.13283 0.46731 0.0
H3250 H 0.27407 0.18619 0.45049 0.0
H3251 H 0.26283 0.18701 0.41606 0.0
H3252 H 0.58122 0.52211 0.33352 0.0
H3253 H 0.58251 0.51097 0.29912 0.0
H3254 H 0.6351 0.5385 0.29094 0.0
H3255 H 0.63389 0.54986 0.3253 0.0
H3256 H 0.60876 0.54543 0.26034 0.0
H3257 H 0.61647 0.47009 0.27591 0.0
H3258 H 0.59747 0.48105 0.28866 0.0
H3259 H 0.62089 0.48772 0.29447 0.0
C3260 C 0.59312 0.52574 0.32447 0.0
C3261 C 0.60747 0.53687 0.33218 0.0
C3262 C 0.59387 0.51926 0.30484 0.0
C3263 C 0.60899 0.52375 0.29258 0.0
C3264 C 0.62335 0.53483 0.30021 0.0
H3265 H 0.63337 0.47532 0.17663 0.0
H3266 H 0.63489 0.48652 0.21101 0.0
C3267 C 0.62264 0.54126 0.31986 0.0
C3268 C 0.6095 0.51743 0.27157 0.0
H3269 H 0.61004 0.47861 0.24235 0.0
C3270 C 0.60913 0.53083 0.25638 0.0
C3271 C 0.61019 0.49838 0.26649 0.0
C3272 C 0.61145 0.48345 0.28221 0.0
C3273 C 0.609 0.52567 0.23619 0.0
C3274 C 0.60904 0.5066 0.23112 0.0
C3275 C 0.60984 0.49321 0.24631 0.0
C3276 C 0.60821 0.50025 0.21013 0.0
C3277 C 0.60901 0.54064 0.22046 0.0
C3278 C 0.59263 0.50416 0.19829 0.0
C3279 C 0.5917 0.49778 0.17863 0.0
C3280 C 0.60631 0.48729 0.17048 0.0
C3281 C 0.62189 0.48339 0.18241 0.0
C3282 C 0.62278 0.48976 0.20207 0.0
H3283 H 0.61368 0.55421 0.22657 0.0
H3284 H 0.61816 0.5368 0.20779 0.0
H3285 H 0.59471 0.54243 0.21463 0.0
H3286 H 0.58109 0.51196 0.20434 0.0
H3287 H 0.57947 0.50097 0.16989 0.0
H3288 H 0.26438 0.83885 0.91366 0.0
H3289 H 0.25302 0.83999 0.94802 0.0
H3290 H 0.2995 0.87461 0.96442 0.0
H3291 H 0.31029 0.87433 0.9299 0.0
H3292 H 0.26704 0.82788 0.98079 0.0
H3293 H 0.25905 0.90383 0.98895 0.0
H3294 H 0.26356 0.89306 0.96518 0.0
H3295 H 0.28234 0.89787 0.98218 0.0
C3296 C 0.27203 0.84687 0.92458 0.0
C3297 C 0.2881 0.85666 0.91911 0.0
C3298 C 0.26556 0.84749 0.94421 0.0
C3299 C 0.27518 0.8577 0.95879 0.0
C3300 C 0.29145 0.86718 0.95336 0.0
H3301 H 0.26202 0.83666 0.08609 0.0
H3302 H 0.27261 0.83733 0.05143 0.0
C3303 C 0.29769 0.86691 0.93365 0.0
C3304 C 0.2686 0.85775 0.97979 0.0
H3305 H 0.25872 0.88615 0.01913 0.0
C3306 C 0.26506 0.84064 0.98911 0.0
C3307 C 0.26572 0.87439 0.99061 0.0
C3308 C 0.26767 0.89331 0.98113 0.0
C3309 C 0.25894 0.83968 0.00894 0.0
C3310 C 0.25709 0.85628 0.0201 0.0
C3311 C 0.2604 0.8734 0.01071 0.0
C3312 C 0.25122 0.85629 0.04135 0.0
C3313 C 0.25406 0.8209 0.01746 0.0
C3314 C 0.23627 0.86742 0.04749 0.0
C3315 C 0.2306 0.8675 0.06739 0.0
C3316 C 0.2396 0.85625 0.0815 0.0
C3317 C 0.2547 0.84528 0.07545 0.0
C3318 C 0.26064 0.84554 0.05561 0.0
H3319 H 0.25042 0.81085 0.00551 0.0
H3320 H 0.26624 0.81525 0.02556 0.0
H3321 H 0.24221 0.82183 0.02798 0.0
H3322 H 0.22882 0.8759 0.03682 0.0
H3323 H 0.21887 0.87603 0.07163 0.0
H3324 H 0.93605 0.51657 0.66594 0.0
H3325 H 0.93157 0.50371 0.69942 0.0
H3326 H 0.91629 0.55803 0.7211 0.0
H3327 H 0.92163 0.57103 0.688 0.0
H3328 H 0.94039 0.54365 0.74473 0.0
H3329 H 0.88668 0.49031 0.73077 0.0
H3330 H 0.90677 0.48685 0.71546 0.0
H3331 H 0.89291 0.50747 0.71236 0.0
C3332 C 0.93151 0.52568 0.67783 0.0
C3333 C 0.92927 0.54479 0.67444 0.0
C3334 C 0.92882 0.5183 0.69693 0.0
C3335 C 0.92334 0.52984 0.71279 0.0
C3336 C 0.92054 0.54884 0.70916 0.0
H3337 H 0.89048 0.49003 0.83067 0.0
H3338 H 0.89082 0.50228 0.79658 0.0
C3339 C 0.9236 0.55626 0.69024 0.0
C3340 C 0.9219 0.52257 0.73347 0.0
H3341 H 0.90251 0.4885 0.76213 0.0
C3342 C 0.93196 0.53168 0.74852 0.0
C3343 C 0.91072 0.50711 0.73855 0.0
C3344 C 0.89851 0.4975 0.72346 0.0
C3345 C 0.93135 0.52567 0.76839 0.0
C3346 C 0.92099 0.50961 0.77328 0.0
C3347 C 0.91066 0.50066 0.75833 0.0
C3348 C 0.92076 0.5019 0.79381 0.0
C3349 C 0.94153 0.5369 0.78395 0.0
C3350 C 0.93743 0.49733 0.80347 0.0
C3351 C 0.93728 0.49068 0.82302 0.0
C3352 C 0.92041 0.48801 0.83313 0.0
C3353 C 0.90369 0.49199 0.82324 0.0
C3354 C 0.90386 0.49896 0.80377 0.0
H3355 H 0.94341 0.55154 0.77911 0.0
H3356 H 0.93403 0.53686 0.7984 0.0
H3357 H 0.95553 0.53087 0.78629 0.0
H3358 H 0.9506 0.49888 0.79589 0.0
H3359 H 0.95037 0.48739 0.83011 0.0
H3360 H 0.23883 0.37869 0.13294 0.0
H3361 H 0.21513 0.40128 0.12352 0.0
H3362 H 0.245 0.44419 0.15479 0.0
H3363 H 0.26884 0.42171 0.16423 0.0
H3364 H 0.20739 0.44523 0.16242 0.0
H3365 H 0.22014 0.44137 0.08095 0.0
H3366 H 0.21523 0.41935 0.09233 0.0
H3367 H 0.23599 0.43172 0.09903 0.0
C3368 C 0.24051 0.39294 0.13771 0.0
C3369 C 0.25592 0.39831 0.14929 0.0
C3370 C 0.2269 0.40588 0.13227 0.0
C3371 C 0.22841 0.42455 0.13813 0.0
C3372 C 0.24354 0.42989 0.15002 0.0
H3373 H 0.17002 0.52015 0.08983 0.0
H3374 H 0.19259 0.49641 0.09924 0.0
C3375 C 0.25715 0.41696 0.1555 0.0
C3376 C 0.21419 0.43849 0.13202 0.0
H3377 H 0.19397 0.45883 0.09137 0.0
C3378 C 0.20446 0.4482 0.14688 0.0
C3379 C 0.21051 0.44258 0.11174 0.0
C3380 C 0.22112 0.43336 0.09507 0.0
C3381 C 0.19106 0.46169 0.14204 0.0
C3382 C 0.18703 0.46542 0.12176 0.0
C3383 C 0.1969 0.45586 0.1069 0.0
C3384 C 0.173 0.47956 0.11565 0.0
C3385 C 0.18165 0.47214 0.15872 0.0
C3386 C 0.15433 0.47787 0.12138 0.0
C3387 C 0.14132 0.49143 0.11595 0.0
C3388 C 0.14664 0.50697 0.10452 0.0
C3389 C 0.1653 0.50836 0.09844 0.0
C3390 C 0.17829 0.49481 0.1039 0.0
H3391 H 0.18959 0.47115 0.17289 0.0
H3392 H 0.17991 0.48703 0.15485 0.0
H3393 H 0.16769 0.46611 0.16131 0.0
H3394 H 0.14978 0.46602 0.13002 0.0
H3395 H 0.12707 0.48963 0.12062 0.0
H3396 H 0.87063 1.00171 0.42698 0.0
H3397 H 0.84834 0.97753 0.4178 0.0
H3398 H 0.86487 0.98248 0.35624 0.0
H3399 H 0.88733 1.00647 0.36538 0.0
H3400 H 0.81862 0.97881 0.39382 0.0
H3401 H 0.86812 0.92722 0.36342 0.0
H3402 H 0.87562 0.94723 0.37746 0.0
H3403 H 0.86984 0.94942 0.35145 0.0
C3404 C 0.86954 0.99765 0.41149 0.0
C3405 C 0.8809 1.00599 0.39695 0.0
C3406 C 0.85681 0.98376 0.40626 0.0
C3407 C 0.8551 0.97787 0.38636 0.0
C3408 C 0.86626 0.98633 0.37178 0.0
H3409 H 0.77879 0.90314 0.32472 0.0
H3410 H 0.80229 0.92638 0.33353 0.0
C3411 C 0.87911 1.00011 0.37702 0.0
C3412 C 0.84118 0.96337 0.38084 0.0
H3413 H 0.83604 0.92134 0.35761 0.0
C3414 C 0.82249 0.9662 0.38602 0.0
C3415 C 0.84614 0.94685 0.37063 0.0
C3416 C 0.86604 0.94237 0.36558 0.0
C3417 C 0.80866 0.95321 0.38102 0.0
C3418 C 0.81362 0.93681 0.37069 0.0
C3419 C 0.83226 0.93395 0.36546 0.0
C3420 C 0.79962 0.92242 0.36537 0.0
C3421 C 0.78877 0.95725 0.38653 0.0
C3422 C 0.7905 0.91227 0.3803 0.0
C3423 C 0.7771 0.89896 0.37531 0.0
C3424 C 0.77249 0.89551 0.35524 0.0
C3425 C 0.78184 0.90556 0.3403 0.0
C3426 C 0.79535 0.91879 0.34531 0.0
H3427 H 0.78668 0.97207 0.39054 0.0
H3428 H 0.77931 0.95367 0.37404 0.0
H3429 H 0.78483 0.94864 0.39958 0.0
H3430 H 0.79371 0.91469 0.39587 0.0
H3431 H 0.77008 0.89165 0.38722 0.0
H3432 H 0.2574 0.60378 0.66376 0.0
H3433 H 0.28153 0.5815 0.65475 0.0
H3434 H 0.31112 0.62445 0.62324 0.0
H3435 H 0.28713 0.64687 0.63228 0.0
H3436 H 0.30808 0.59224 0.60129 0.0
H3437 H 0.33376 0.57634 0.67731 0.0
H3438 H 0.30918 0.57319 0.67451 0.0
H3439 H 0.31904 0.59603 0.67207 0.0
C3440 C 0.26917 0.60862 0.6552 0.0
C3441 C 0.27024 0.62724 0.64886 0.0
C3442 C 0.28299 0.59581 0.65003 0.0
C3443 C 0.29831 0.60132 0.63853 0.0
C3444 C 0.29946 0.61986 0.63216 0.0
H3445 H 0.39866 0.53556 0.61983 0.0
H3446 H 0.37624 0.55956 0.62887 0.0
C3447 C 0.28564 0.63268 0.6373 0.0
C3448 C 0.31281 0.58762 0.63259 0.0
H3449 H 0.34426 0.55656 0.6512 0.0
C3450 C 0.31605 0.5845 0.61221 0.0
C3451 C 0.32341 0.57767 0.64681 0.0
C3452 C 0.32134 0.58107 0.6689 0.0
C3453 C 0.32926 0.57147 0.60568 0.0
C3454 C 0.33935 0.56101 0.6199 0.0
C3455 C 0.33641 0.56442 0.64028 0.0
C3456 C 0.35303 0.54649 0.61397 0.0
C3457 C 0.33247 0.56921 0.58358 0.0
C3458 C 0.34749 0.53102 0.6027 0.0
C3459 C 0.36029 0.51719 0.59754 0.0
C3460 C 0.37895 0.51841 0.60366 0.0
C3461 C 0.38443 0.53395 0.61499 0.0
C3462 C 0.37162 0.54778 0.62013 0.0
H3463 H 0.32762 0.58153 0.57509 0.0
H3464 H 0.3474 0.56694 0.58029 0.0
H3465 H 0.32461 0.55695 0.57817 0.0
H3466 H 0.33315 0.52946 0.59815 0.0
H3467 H 0.35542 0.50532 0.58915 0.0
H3468 H 0.62903 0.0369 0.89073 0.0
H3469 H 0.65116 0.06138 0.88157 0.0
H3470 H 0.69629 0.02254 0.88748 0.0
H3471 H 0.67431 0.99801 0.8966 0.0
H3472 H 0.6864 0.0722 0.90649 0.0
H3473 H 0.69903 0.04774 0.82896 0.0
H3474 H 0.67786 0.04253 0.84229 0.0
H3475 H 0.6989 0.03058 0.84851 0.0
C3476 C 0.64364 0.03353 0.88997 0.0
C3477 C 0.64987 0.01546 0.8944 0.0
C3478 C 0.65628 0.04756 0.88484 0.0
C3479 C 0.67534 0.04374 0.88376 0.0
C3480 C 0.68162 0.02576 0.88816 0.0
H3481 H 0.77485 0.10196 0.84792 0.0
H3482 H 0.75071 0.07955 0.85646 0.0
C3483 C 0.66904 1.01178 0.89349 0.0
C3484 C 0.68877 0.05852 0.87812 0.0
H3485 H 0.71755 0.0725 0.84054 0.0
C3486 C 0.69315 0.07239 0.89204 0.0
C3487 C 0.69761 0.05862 0.85932 0.0
C3488 C 0.69312 0.04417 0.84377 0.0
C3489 C 0.70653 0.08611 0.88784 0.0
C3490 C 0.7154 0.08627 0.86896 0.0
C3491 C 0.71079 0.07246 0.85498 0.0
C3492 C 0.72994 0.10021 0.8636 0.0
C3493 C 0.71151 0.09984 0.90398 0.0
C3494 C 0.72635 0.11939 0.86444 0.0
C3495 C 0.74023 0.13229 0.85963 0.0
C3496 C 0.75794 0.12631 0.85354 0.0
C3497 C 0.76135 0.1071 0.85231 0.0
C3498 C 0.74754 0.09423 0.85728 0.0
H3499 H 0.70753 0.09468 0.91899 0.0
H3500 H 0.72662 0.10286 0.90399 0.0
H3501 H 0.70395 0.11303 0.90132 0.0
H3502 H 0.71276 0.12441 0.8687 0.0
H3503 H 0.73704 0.14696 0.86046 0.0
H3504 H 0.16371 0.51336 0.42579 0.0
H3505 H 0.18694 0.53678 0.41724 0.0
H3506 H 0.16007 0.54576 0.36066 0.0
H3507 H 0.13698 0.52219 0.36885 0.0
H3508 H 0.21156 0.53739 0.38416 0.0
H3509 H 0.16465 0.59855 0.3843 0.0
H3510 H 0.15836 0.57668 0.39561 0.0
H3511 H 0.15702 0.57951 0.36904 0.0
C3512 C 0.16272 0.5202 0.41148 0.0
C3513 C 0.14829 0.51581 0.3981 0.0
C3514 C 0.17601 0.53368 0.40665 0.0
C3515 C 0.17513 0.54322 0.38842 0.0
C3516 C 0.16084 0.53886 0.37499 0.0
H3517 H 0.26208 0.60742 0.33004 0.0
H3518 H 0.23866 0.58441 0.3392 0.0
C3519 C 0.14757 0.52535 0.37976 0.0
C3520 C 0.18939 0.55739 0.38327 0.0
H3521 H 0.19525 0.60341 0.3723 0.0
C3522 C 0.208 0.55183 0.3816 0.0
C3523 C 0.18478 0.57628 0.38013 0.0
C3524 C 0.16515 0.58322 0.38251 0.0
C3525 C 0.22206 0.56456 0.37655 0.0
C3526 C 0.21737 0.58335 0.37291 0.0
C3527 C 0.19881 0.58898 0.37492 0.0
C3528 C 0.23159 0.5974 0.36726 0.0
C3529 C 0.24186 0.55786 0.37544 0.0
C3530 C 0.2352 0.61259 0.37978 0.0
C3531 C 0.24868 0.62577 0.37464 0.0
C3532 C 0.25878 0.62417 0.35673 0.0
C3533 C 0.25489 0.60902 0.34409 0.0
C3534 C 0.24145 0.59582 0.3493 0.0
H3535 H 0.24372 0.5443 0.38308 0.0
H3536 H 0.24584 0.55609 0.35957 0.0
H3537 H 0.25146 0.56814 0.38224 0.0
H3538 H 0.22774 0.61412 0.39371 0.0
H3539 H 0.25134 0.63703 0.38492 0.0
H3540 H 0.66519 0.01415 0.58377 0.0
H3541 H 0.68718 0.98973 0.59275 0.0
H3542 H 0.65636 0.97888 0.64656 0.0
H3543 H 0.63443 1.00343 0.63788 0.0
H3544 H 0.7096 0.98695 0.62675 0.0
H3545 H 0.66136 0.92705 0.62138 0.0
H3546 H 0.65605 0.94952 0.61089 0.0
H3547 H 0.65346 0.94557 0.63719 0.0
C3548 C 0.66307 1.00668 0.59757 0.0
C3549 C 0.64788 1.01085 0.61002 0.0
C3550 C 0.67565 0.99262 0.60264 0.0
C3551 C 0.67331 0.98226 0.62019 0.0
C3552 C 0.65825 0.98639 0.63272 0.0
H3553 H 0.75743 0.91445 0.67917 0.0
H3554 H 0.73397 0.93767 0.67067 0.0
C3555 C 0.64567 1.00048 0.62769 0.0
C3556 C 0.68693 0.96752 0.62563 0.0
H3557 H 0.69122 0.92098 0.63485 0.0
C3558 C 0.70558 0.97253 0.62851 0.0
C3559 C 0.68174 0.94865 0.62771 0.0
C3560 C 0.6621 0.94227 0.62397 0.0
C3561 C 0.71909 0.95927 0.63366 0.0
C3562 C 0.71382 0.94048 0.63624 0.0
C3563 C 0.69523 0.93541 0.63308 0.0
C3564 C 0.72752 0.92587 0.64183 0.0
C3565 C 0.73899 0.96544 0.63595 0.0
C3566 C 0.73135 0.91116 0.62873 0.0
C3567 C 0.74482 0.89785 0.63353 0.0
C3568 C 0.75469 0.89886 0.65165 0.0
C3569 C 0.75039 0.91335 0.66497 0.0
C3570 C 0.73695 0.92667 0.66013 0.0
H3571 H 0.74147 0.9792 0.62895 0.0
H3572 H 0.74236 0.96659 0.65205 0.0
H3573 H 0.74862 0.95517 0.6292 0.0
H3574 H 0.72423 0.91023 0.61454 0.0
H3575 H 0.74783 0.8871 0.62274 0.0
H3576 H 0.37096 0.50063 0.92787 0.0
H3577 H 0.34791 0.47708 0.91894 0.0
H3578 H 0.35897 0.48666 0.85661 0.0
H3579 H 0.38209 0.51007 0.86542 0.0
H3580 H 0.31609 0.48017 0.89766 0.0
H3581 H 0.36309 0.43089 0.85927 0.0
H3582 H 0.37163 0.44984 0.87429 0.0
H3583 H 0.36405 0.45391 0.8491 0.0
C3584 C 0.36851 0.49773 0.91227 0.0
C3585 C 0.37853 0.50719 0.89739 0.0
C3586 C 0.35534 0.4842 0.90717 0.0
C3587 C 0.35189 0.47979 0.88709 0.0
C3588 C 0.36172 0.48937 0.87221 0.0
H3589 H 0.27263 0.40808 0.82584 0.0
H3590 H 0.29635 0.43106 0.83467 0.0
C3591 C 0.37495 0.50281 0.87729 0.0
C3592 C 0.33759 0.46565 0.88173 0.0
H3593 H 0.33068 0.42533 0.85574 0.0
C3594 C 0.31933 0.46812 0.88861 0.0
C3595 C 0.34175 0.4499 0.86987 0.0
C3596 C 0.36123 0.44583 0.86286 0.0
C3597 C 0.30512 0.45553 0.88368 0.0
C3598 C 0.30927 0.43987 0.87173 0.0
C3599 C 0.32749 0.43737 0.86484 0.0
C3600 C 0.29491 0.42585 0.86639 0.0
C3601 C 0.28568 0.45927 0.89099 0.0
C3602 C 0.28636 0.41511 0.88125 0.0
C3603 C 0.2728 0.40197 0.87625 0.0
C3604 C 0.26748 0.39924 0.85626 0.0
C3605 C 0.2762 0.40994 0.84139 0.0
C3606 C 0.28984 0.42301 0.8464 0.0
H3607 H 0.2839 0.47391 0.89583 0.0
H3608 H 0.27533 0.45616 0.87918 0.0
H3609 H 0.2827 0.45016 0.90395 0.0
H3610 H 0.29021 0.41685 0.89675 0.0
H3611 H 0.26629 0.39415 0.88812 0.0
H3612 H 0.90045 0.03772 0.11864 0.0
H3613 H 0.87829 0.06185 0.12807 0.0
H3614 H 0.83394 0.03029 0.10142 0.0
H3615 H 0.8559 1.00603 0.09208 0.0
H3616 H 0.83259 0.06775 0.09158 0.0
H3617 H 0.84033 0.05848 0.17335 0.0
H3618 H 0.86166 0.06281 0.16029 0.0
H3619 H 0.84898 0.04177 0.15557 0.0
C3620 C 0.88599 0.03578 0.11488 0.0
C3621 C 0.88006 0.01975 0.10464 0.0
C3622 C 0.8733 0.04964 0.12032 0.0
C3623 C 0.85436 0.04779 0.11576 0.0
C3624 C 0.84846 0.03204 0.10517 0.0
H3625 H 0.75932 0.10588 0.16508 0.0
H3626 H 0.78348 0.08363 0.15596 0.0
C3627 C 0.86111 0.01818 0.09973 0.0
C3628 C 0.84066 0.06221 0.1219 0.0
H3629 H 0.82162 0.08359 0.16259 0.0
C3630 C 0.83021 0.07124 0.10711 0.0
C3631 C 0.83738 0.06662 0.14218 0.0
C3632 C 0.84753 0.05682 0.15881 0.0
C3633 C 0.81669 0.08458 0.112 0.0
C3634 C 0.81367 0.08926 0.13226 0.0
C3635 C 0.82403 0.08015 0.14706 0.0
C3636 C 0.79941 0.10314 0.1384 0.0
C3637 C 0.80544 0.09322 0.09545 0.0
C3638 C 0.80048 0.12167 0.13196 0.0
C3639 C 0.78669 0.13448 0.13722 0.0
C3640 C 0.77152 0.1291 0.14918 0.0
C3641 C 0.7708 0.11063 0.15603 0.0
C3642 C 0.7846 0.09783 0.15075 0.0
H3643 H 0.80617 0.08491 0.08151 0.0
H3644 H 0.79065 0.09465 0.09985 0.0
H3645 H 0.81095 0.10728 0.09218 0.0
H3646 H 0.812 0.12624 0.12283 0.0
H3647 H 0.788 0.14861 0.13196 0.0
H3648 H 0.89833 0.53533 0.88243 0.0
H3649 H 0.87607 0.55946 0.87325 0.0
H3650 H 0.83246 0.52907 0.90272 0.0
H3651 H 0.85454 0.50483 0.91186 0.0
H3652 H 0.84434 0.55701 0.85035 0.0
H3653 H 0.82675 0.58071 0.92666 0.0
H3654 H 0.84655 0.56614 0.9215 0.0
H3655 H 0.8237 0.5562 0.9231 0.0
C3656 C 0.88402 0.53369 0.88697 0.0
C3657 C 0.87835 0.51805 0.89803 0.0
C3658 C 0.8713 0.54759 0.88174 0.0
C3659 C 0.85261 0.54627 0.88753 0.0
C3660 C 0.84687 0.53066 0.89848 0.0
H3661 H 0.75756 0.60459 0.83744 0.0
H3662 H 0.7816 0.5821 0.84621 0.0
C3663 C 0.85957 0.51677 0.90372 0.0
C3664 C 0.83903 0.56091 0.88166 0.0
H3665 H 0.80747 0.59178 0.9004 0.0
C3666 C 0.83634 0.56467 0.86131 0.0
C3667 C 0.82874 0.57112 0.89593 0.0
C3668 C 0.83167 0.5685 0.91802 0.0
C3669 C 0.82339 0.57801 0.85484 0.0
C3670 C 0.81259 0.5877 0.86908 0.0
C3671 C 0.81558 0.58424 0.88945 0.0
C3672 C 0.79817 0.60153 0.86322 0.0
C3673 C 0.8216 0.5818 0.83279 0.0
C3674 C 0.79921 0.61991 0.8701 0.0
C3675 C 0.78544 0.63284 0.86511 0.0
C3676 C 0.77018 0.62767 0.8532 0.0
C3677 C 0.76921 0.60922 0.84631 0.0
C3678 C 0.78299 0.5963 0.85133 0.0
H3679 H 0.83413 0.57722 0.82448 0.0
H3680 H 0.80952 0.57401 0.82684 0.0
H3681 H 0.81933 0.5968 0.82989 0.0
H3682 H 0.81076 0.6243 0.87932 0.0
H3683 H 0.78687 0.64691 0.87054 0.0
H3684 H 0.14144 0.01678 0.64005 0.0
H3685 H 0.16386 0.04109 0.64879 0.0
H3686 H 0.18736 0.03791 0.58983 0.0
H3687 H 0.16497 0.01365 0.58095 0.0
H3688 H 0.2059 0.0379 0.64487 0.0
H3689 H 0.17391 0.09478 0.60046 0.0
H3690 H 0.16088 0.07472 0.60861 0.0
H3691 H 0.17695 0.07269 0.5883 0.0
C3692 C 0.15127 0.02134 0.62889 0.0
C3693 C 0.15135 0.01327 0.60976 0.0
C3694 C 0.16414 0.03517 0.63395 0.0
C3695 C 0.17718 0.04141 0.61992 0.0
C3696 C 0.17733 0.0334 0.60084 0.0
H3697 H 0.26133 0.12817 0.61885 0.0
H3698 H 0.23872 0.10401 0.61056 0.0
C3699 C 0.1646 0.01943 0.59583 0.0
C3700 C 0.1908 0.0561 0.62531 0.0
H3701 H 0.20233 0.10138 0.61638 0.0
C3702 C 0.20512 0.05181 0.63872 0.0
C3703 C 0.18982 0.07417 0.61713 0.0
C3704 C 0.17453 0.07953 0.6029 0.0
C3705 C 0.21869 0.06502 0.64392 0.0
C3706 C 0.2176 0.08325 0.63597 0.0
C3707 C 0.20321 0.08748 0.62254 0.0
C3708 C 0.23131 0.09805 0.64117 0.0
C3709 C 0.23438 0.05909 0.65739 0.0
C3710 C 0.23456 0.10307 0.66114 0.0
C3711 C 0.24762 0.11681 0.66591 0.0
C3712 C 0.25748 0.12612 0.65082 0.0
C3713 C 0.25389 0.12139 0.63083 0.0
C3714 C 0.24098 0.10752 0.62607 0.0
H3715 H 0.23636 0.04378 0.65712 0.0
H3716 H 0.24764 0.06582 0.65304 0.0
H3717 H 0.2311 0.06314 0.67295 0.0
H3718 H 0.2269 0.09646 0.67307 0.0
H3719 H 0.24978 0.12033 0.68142 0.0
H3720 H 0.66951 0.52076 0.41601 0.0
H3721 H 0.69256 0.49723 0.40726 0.0
H3722 H 0.65144 0.46771 0.37302 0.0
H3723 H 0.62824 0.49099 0.38184 0.0
H3724 H 0.69295 0.45864 0.4137 0.0
H3725 H 0.69384 0.47527 0.33289 0.0
H3726 H 0.68353 0.49048 0.35119 0.0
H3727 H 0.67123 0.47023 0.34276 0.0
C3728 C 0.66525 0.50919 0.4068 0.0
C3729 C 0.64695 0.50796 0.39955 0.0
C3730 C 0.67852 0.49577 0.40172 0.0
C3731 C 0.67384 0.48087 0.38919 0.0
C3732 C 0.6555 0.47932 0.38232 0.0
H3733 H 0.73747 0.37954 0.36909 0.0
H3734 H 0.71416 0.40246 0.37867 0.0
C3735 C 0.64222 0.4927 0.3874 0.0
C3736 C 0.68813 0.46698 0.38333 0.0
H3737 H 0.71071 0.44862 0.34306 0.0
C3738 C 0.69685 0.45646 0.39826 0.0
C3739 C 0.69339 0.46429 0.36319 0.0
C3740 C 0.68516 0.47576 0.34656 0.0
C3741 C 0.71045 0.44314 0.39359 0.0
C3742 C 0.71535 0.4401 0.37341 0.0
C3743 C 0.70684 0.45082 0.3585 0.0
C3744 C 0.7295 0.42608 0.36748 0.0
C3745 C 0.71972 0.43266 0.41034 0.0
C3746 C 0.74573 0.43162 0.35754 0.0
C3747 C 0.75915 0.41853 0.35205 0.0
C3748 C 0.75662 0.39952 0.35625 0.0
C3749 C 0.74015 0.39402 0.36592 0.0
C3750 C 0.72675 0.40714 0.37143 0.0
H3751 H 0.71781 0.43973 0.42492 0.0
H3752 H 0.71351 0.41859 0.41146 0.0
H3753 H 0.73481 0.43104 0.40749 0.0
H3754 H 0.74813 0.44616 0.35428 0.0
H3755 H 0.77166 0.42339 0.34483 0.0
H3756 H 0.39909 0.98885 0.118 0.0
H3757 H 0.37704 0.9644 0.12678 0.0
H3758 H 0.33255 0.99632 0.10093 0.0
H3759 H 0.3544 0.02091 0.09226 0.0
H3760 H 0.34601 0.96626 0.15125 0.0
H3761 H 0.32577 0.9456 0.07465 0.0
H3762 H 0.34592 0.95972 0.07974 0.0
H3763 H 0.32318 0.96999 0.07944 0.0
C3764 C 0.38464 0.99076 0.11418 0.0
C3765 C 0.37865 1.00696 0.1043 0.0
C3766 C 0.37203 0.97668 0.11917 0.0
C3767 C 0.35315 0.97836 0.11429 0.0
C3768 C 0.3471 0.99448 0.10446 0.0
H3769 H 0.25911 0.91925 0.1651 0.0
H3770 H 0.28316 0.94171 0.15637 0.0
C3771 C 0.35968 1.00857 0.09948 0.0
C3772 C 0.33969 0.96355 0.12001 0.0
H3773 H 0.30732 0.93359 0.10113 0.0
C3774 C 0.33762 0.95906 0.14028 0.0
C3775 C 0.32888 0.95395 0.1057 0.0
C3776 C 0.33113 0.9574 0.08365 0.0
C3777 C 0.32476 0.94558 0.14664 0.0
C3778 C 0.31344 0.9365 0.13239 0.0
C3779 C 0.31583 0.94067 0.11209 0.0
C3780 C 0.29903 0.92264 0.1382 0.0
C3781 C 0.32359 0.94103 0.16856 0.0
C3782 C 0.29967 0.90445 0.13066 0.0
C3783 C 0.2859 0.89152 0.13565 0.0
C3784 C 0.27103 0.89649 0.14821 0.0
C3785 C 0.27046 0.91475 0.15572 0.0
C3786 C 0.28424 0.92767 0.15072 0.0
H3787 H 0.33639 0.94522 0.17663 0.0
H3788 H 0.31176 0.94868 0.17524 0.0
H3789 H 0.32127 0.92595 0.17093 0.0
H3790 H 0.31092 0.90023 0.12095 0.0
H3791 H 0.28702 0.87761 0.12971 0.0
H3792 H 0.78582 0.37914 0.63331 0.0
H3793 H 0.80981 0.40162 0.62445 0.0
H3794 H 0.78011 0.44442 0.656 0.0
H3795 H 0.75591 0.42216 0.66474 0.0
H3796 H 0.80627 0.43457 0.60267 0.0
H3797 H 0.83275 0.44872 0.67884 0.0
H3798 H 0.81823 0.42897 0.67314 0.0
H3799 H 0.80811 0.4516 0.67625 0.0
C3800 C 0.78427 0.39331 0.63837 0.0
C3801 C 0.76881 0.3987 0.64986 0.0
C3802 C 0.79811 0.40616 0.63333 0.0
C3803 C 0.79692 0.42467 0.63978 0.0
C3804 C 0.78156 0.43013 0.65121 0.0
H3805 H 0.85349 0.52182 0.59283 0.0
H3806 H 0.8313 0.4976 0.60175 0.0
C3807 C 0.7677 0.41731 0.65623 0.0
C3808 C 0.81144 0.43839 0.63402 0.0
H3809 H 0.84329 0.46882 0.65306 0.0
C3810 C 0.81442 0.442 0.61369 0.0
C3811 C 0.82225 0.44794 0.64837 0.0
C3812 C 0.82034 0.44403 0.67037 0.0
C3813 C 0.82759 0.45517 0.60735 0.0
C3814 C 0.83792 0.4652 0.62172 0.0
C3815 C 0.83525 0.46128 0.64204 0.0
C3816 C 0.85154 0.47983 0.616 0.0
C3817 C 0.83047 0.45808 0.58529 0.0
C3818 C 0.8703 0.47814 0.62134 0.0
C3819 C 0.8831 0.49199 0.6162 0.0
C3820 C 0.87741 0.50797 0.60573 0.0
C3821 C 0.85854 0.50963 0.60053 0.0
C3822 C 0.84577 0.49576 0.60564 0.0
H3823 H 0.82525 0.44613 0.57643 0.0
H3824 H 0.82277 0.47066 0.58049 0.0
H3825 H 0.84538 0.46019 0.58181 0.0
H3826 H 0.87508 0.46599 0.62937 0.0
H3827 H 0.89748 0.49004 0.62031 0.0
H3828 H 0.28495 0.14369 0.37364 0.0
H3829 H 0.30818 0.12033 0.38199 0.0
H3830 H 0.27984 0.08039 0.34507 0.0
H3831 H 0.25634 0.10362 0.33677 0.0
H3832 H 0.3033 0.08608 0.40066 0.0
H3833 H 0.33355 0.07715 0.32519 0.0
H3834 H 0.31883 0.09653 0.3316 0.0
H3835 H 0.30882 0.07422 0.32623 0.0
C3836 C 0.28351 0.12996 0.36731 0.0
C3837 C 0.26864 0.12565 0.35446 0.0
C3838 C 0.29692 0.1166 0.37206 0.0
C3839 C 0.29592 0.09865 0.36399 0.0
C3840 C 0.28114 0.09425 0.35117 0.0
H3841 H 0.35275 0.99961 0.40718 0.0
H3842 H 0.33005 0.02346 0.39854 0.0
C3843 C 0.26769 0.1076 0.34641 0.0
C3844 C 0.31005 0.08443 0.36945 0.0
H3845 H 0.34329 0.05577 0.35003 0.0
C3846 C 0.31206 0.07948 0.38959 0.0
C3847 C 0.32166 0.07596 0.35505 0.0
C3848 C 0.32079 0.08132 0.33332 0.0
C3849 C 0.32513 0.06612 0.39568 0.0
C3850 C 0.33637 0.05726 0.38121 0.0
C3851 C 0.33457 0.06243 0.3611 0.0
C3852 C 0.35022 0.04276 0.38666 0.0
C3853 C 0.32702 0.06184 0.41761 0.0
C3854 C 0.36913 0.04546 0.38255 0.0
C3855 C 0.3822 0.03183 0.38752 0.0
C3856 C 0.37667 0.01508 0.39661 0.0
C3857 C 0.35765 1.0124 0.40057 0.0
C3858 C 0.3446 0.02605 0.39561 0.0
H3859 H 0.32098 0.073 0.42702 0.0
H3860 H 0.31953 0.04875 0.42098 0.0
H3861 H 0.34181 0.05996 0.4218 0.0
H3862 H 0.37381 0.05823 0.37563 0.0
H3863 H 0.39667 0.03456 0.3844 0.0
H3864 H 0.75773 0.6119 0.17373 0.0
H3865 H 0.73375 0.58924 0.16469 0.0
H3866 H 0.73175 0.61178 0.10521 0.0
H3867 H 0.75578 0.63441 0.11409 0.0
H3868 H 0.69603 0.59814 0.14737 0.0
H3869 H 0.74038 0.55374 0.09903 0.0
H3870 H 0.74996 0.56891 0.11786 0.0
H3871 H 0.74138 0.57843 0.09493 0.0
C3872 C 0.7523 0.61195 0.15869 0.0
C3873 C 0.75873 0.62498 0.14464 0.0
C3874 C 0.73852 0.59906 0.15357 0.0
C3875 C 0.73106 0.59873 0.13424 0.0
C3876 C 0.73741 0.6117 0.12018 0.0
H3877 H 0.65295 0.52523 0.07363 0.0
H3878 H 0.67612 0.54881 0.0822 0.0
C3879 C 0.75105 0.62471 0.12532 0.0
C3880 C 0.71651 0.58496 0.12884 0.0
H3881 H 0.7086 0.54616 0.10077 0.0
C3882 C 0.69875 0.58674 0.13721 0.0
C3883 C 0.72006 0.57021 0.11547 0.0
C3884 C 0.73899 0.56752 0.10633 0.0
C3885 C 0.68437 0.5743 0.13238 0.0
C3886 C 0.68798 0.55928 0.11925 0.0
C3887 C 0.70577 0.55759 0.11083 0.0
C3888 C 0.67358 0.54512 0.11411 0.0
C3889 C 0.66533 0.57772 0.14099 0.0
C3890 C 0.6645 0.53497 0.12912 0.0
C3891 C 0.65114 0.52159 0.12424 0.0
C3892 C 0.64675 0.51778 0.10421 0.0
C3893 C 0.65605 0.52773 0.08918 0.0
C3894 C 0.66929 0.54126 0.09408 0.0
H3895 H 0.66345 0.5925 0.14527 0.0
H3896 H 0.65425 0.57388 0.13023 0.0
H3897 H 0.66358 0.56919 0.15464 0.0
H3898 H 0.66793 0.53719 0.14466 0.0
H3899 H 0.64453 0.51391 0.13617 0.0
H3900 H 0.14154 1.00741 0.86365 0.0
H3901 H 0.1641 0.98332 0.85469 0.0
H3902 H 0.18705 0.98558 0.91397 0.0
H3903 H 0.1645 1.00959 0.92308 0.0
H3904 H 0.20564 0.98642 0.85853 0.0
H3905 H 0.17445 0.929 0.90276 0.0
H3906 H 0.16132 0.94918 0.89516 0.0
H3907 H 0.1776 0.95087 0.91532 0.0
C3908 C 0.15128 1.00267 0.87484 0.0
C3909 C 0.15115 1.01042 0.89412 0.0
C3910 C 0.16423 0.98898 0.86966 0.0
C3911 C 0.17715 0.98254 0.88371 0.0
C3912 C 0.1771 0.99022 0.90295 0.0
H3913 H 0.26252 0.89714 0.88445 0.0
H3914 H 0.23959 0.92097 0.89274 0.0
C3915 C 0.16428 1.00405 0.90808 0.0
C3916 C 0.1909 0.96801 0.87818 0.0
H3917 H 0.20309 0.92289 0.88702 0.0
C3918 C 0.20507 0.97249 0.86467 0.0
C3919 C 0.19019 0.94991 0.88633 0.0
C3920 C 0.17503 0.94429 0.90061 0.0
C3921 C 0.21879 0.95948 0.85938 0.0
C3922 C 0.21801 0.94125 0.86736 0.0
C3923 C 0.20374 0.9368 0.88085 0.0
C3924 C 0.23193 0.92666 0.86213 0.0
C3925 C 0.23432 0.96563 0.84581 0.0
C3926 C 0.23515 0.92161 0.84218 0.0
C3927 C 0.24839 0.90805 0.8374 0.0
C3928 C 0.25846 0.89896 0.85249 0.0
C3929 C 0.25491 0.90374 0.87247 0.0
C3930 C 0.24183 0.91743 0.87723 0.0
H3931 H 0.23605 0.98096 0.846 0.0
H3932 H 0.2477 0.95914 0.85013 0.0
H3933 H 0.23103 0.96146 0.83028 0.0
H3934 H 0.22734 0.92806 0.83026 0.0
H3935 H 0.25052 0.90449 0.82189 0.0
loop_
_geom_bond_atom_site_label_1
_geom_bond_atom_site_label_2
_geom_bond_distance
_geom_bond_site_symmetry_2
_ccdc_geom_bond_type
Co0 N4 2.148 . S
Co0 N10 2.128 . S
Co0 N20 2.194 . S
Co0 O25 2.351 . S
Co0 O26 2.155 . S
Co0 O27 2.096 . S
C1 N4 1.301 . S
C1 N5 1.328 . S
C1 H6 0.930 . S
C2 C3 1.333 . S
C2 N4 1.317 . S
C2 H7 0.930 . S
C3 C2 1.333 . S
C3 N5 1.350 . S
C3 H29 0.931 . S
N4 Co0 2.148 . S
N4 C1 1.301 . S
N4 C2 1.317 . S
N5 C1 1.328 . S
N5 C3 1.350 . S
H6 C1 0.930 . S
H7 C2 0.930 . S
C8 O9 1.224 . S
C8 O27 1.247 . S
O9 C8 1.224 . S
N10 Co0 2.128 . S
N10 C11 1.355 . S
N10 C13 1.311 . S
C11 N10 1.355 . S
C11 C12 1.363 . S
C11 H23 0.929 . S
C12 C11 1.363 . S
C12 N14 1.375 . S
C12 H30 0.931 . S
C13 N10 1.311 . S
C13 N14 1.347 . S
C13 H24 0.929 . S
N14 C12 1.375 . S
N14 C13 1.347 . S
C15 C18 1.365 . S
C15 N20 1.328 . S
C15 H21 0.929 . S
C16 C17 1.362 . S
C16 C19 1.378 . S
C16 H31 0.929 . S
C17 C16 1.362 . S
C17 C18 1.366 . S
C18 C15 1.365 . S
C18 C17 1.366 . S
C18 H32 0.930 . S
C19 C16 1.378 . S
C19 N20 1.315 . S
C19 H22 0.930 . S
N20 Co0 2.194 . S
N20 C15 1.328 . S
N20 C19 1.315 . S
H21 C15 0.929 . S
H22 C19 0.930 . S
H23 C11 0.929 . S
H24 C13 0.929 . S
O25 Co0 2.351 . S
O25 C28 1.244 . S
O26 Co0 2.155 . S
O26 C28 1.240 . S
O27 Co0 2.096 . S
O27 C8 1.247 . S
C28 O25 1.244 . S
C28 O26 1.240 . S
H29 C3 0.931 . S
H30 C12 0.931 . S
H31 C16 0.929 . S
H32 C18 0.930 . S
Co33 N37 2.148 . S
Co33 N43 2.128 . S
Co33 N53 2.194 . S
Co33 O58 2.351 . S
Co33 O59 2.155 . S
Co33 O60 2.096 . S
C34 N37 1.301 . S
C34 N38 1.328 . S
C34 H39 0.930 . S
C35 C36 1.333 . S
C35 N37 1.317 . S
C35 H40 0.930 . S
C36 C35 1.333 . S
C36 N38 1.350 . S
C36 H62 0.931 . S
N37 Co33 2.148 . S
N37 C34 1.301 . S
N37 C35 1.317 . S
N38 C34 1.328 . S
N38 C36 1.350 . S
H39 C34 0.930 . S
H40 C35 0.930 . S
C41 O42 1.224 . S
C41 O60 1.247 . S
O42 C41 1.224 . S
N43 Co33 2.128 . S
N43 C44 1.355 . S
N43 C46 1.311 . S
C44 N43 1.355 . S
C44 C45 1.363 . S
C44 H56 0.929 . S
C45 C44 1.363 . S
C45 N47 1.375 . S
C45 H63 0.931 . S
C46 N43 1.311 . S
C46 N47 1.347 . S
C46 H57 0.929 . S
N47 C45 1.375 . S
N47 C46 1.347 . S
C48 C51 1.365 . S
C48 N53 1.328 . S
C48 H54 0.929 . S
C49 C50 1.362 . S
C49 C52 1.378 . S
C49 H64 0.929 . S
C50 C49 1.362 . S
C50 C51 1.366 . S
C51 C48 1.365 . S
C51 C50 1.366 . S
C51 H65 0.930 . S
C52 C49 1.378 . S
C52 N53 1.315 . S
C52 H55 0.930 . S
N53 Co33 2.194 . S
N53 C48 1.328 . S
N53 C52 1.315 . S
H54 C48 0.929 . S
H55 C52 0.930 . S
H56 C44 0.929 . S
H57 C46 0.929 . S
O58 Co33 2.351 . S
O58 C61 1.244 . S
O59 Co33 2.155 . S
O59 C61 1.240 . S
O60 Co33 2.096 . S
O60 C41 1.247 . S
C61 O58 1.244 . S
C61 O59 1.240 . S
H62 C36 0.931 . S
H63 C45 0.931 . S
H64 C49 0.929 . S
H65 C51 0.930 . S
Co66 N70 2.148 . S
Co66 N76 2.128 . S
Co66 N86 2.194 . S
Co66 O91 2.351 . S
Co66 O92 2.155 . S
Co66 O93 2.096 . S
C67 N70 1.301 . S
C67 N71 1.328 . S
C67 H72 0.930 . S
C68 C69 1.333 . S
C68 N70 1.317 . S
C68 H73 0.930 . S
C69 C68 1.333 . S
C69 N71 1.350 . S
C69 H95 0.931 . S
N70 Co66 2.148 . S
N70 C67 1.301 . S
N70 C68 1.317 . S
N71 C67 1.328 . S
N71 C69 1.350 . S
H72 C67 0.930 . S
H73 C68 0.930 . S
C74 O75 1.224 . S
C74 O93 1.247 . S
O75 C74 1.224 . S
N76 Co66 2.128 . S
N76 C77 1.355 . S
N76 C79 1.311 . S
C77 N76 1.355 . S
C77 C78 1.363 . S
C77 H89 0.929 . S
C78 C77 1.363 . S
C78 N80 1.375 . S
C78 H96 0.931 . S
C79 N76 1.311 . S
C79 N80 1.347 . S
C79 H90 0.929 . S
N80 C78 1.375 . S
N80 C79 1.347 . S
C81 C84 1.365 . S
C81 N86 1.328 . S
C81 H87 0.929 . S
C82 C83 1.362 . S
C82 C85 1.378 . S
C82 H97 0.929 . S
C83 C82 1.362 . S
C83 C84 1.366 . S
C84 C81 1.365 . S
C84 C83 1.366 . S
C84 H98 0.930 . S
C85 C82 1.378 . S
C85 N86 1.315 . S
C85 H88 0.930 . S
N86 Co66 2.194 . S
N86 C81 1.328 . S
N86 C85 1.315 . S
H87 C81 0.929 . S
H88 C85 0.930 . S
H89 C77 0.929 . S
H90 C79 0.929 . S
O91 Co66 2.351 . S
O91 C94 1.244 . S
O92 Co66 2.155 . S
O92 C94 1.240 . S
O93 Co66 2.096 . S
O93 C74 1.247 . S
C94 O91 1.244 . S
C94 O92 1.240 . S
H95 C69 0.931 . S
H96 C78 0.931 . S
H97 C82 0.929 . S
H98 C84 0.930 . S
Co99 N103 2.148 . S
Co99 N109 2.128 . S
Co99 N119 2.194 . S
Co99 O124 2.351 . S
Co99 O125 2.155 . S
Co99 O126 2.096 . S
C100 N103 1.301 . S
C100 N104 1.328 . S
C100 H105 0.930 . S
C101 C102 1.333 . S
C101 N103 1.317 . S
C101 H106 0.930 . S
C102 C101 1.333 . S
C102 N104 1.350 . S
C102 H128 0.931 . S
N103 Co99 2.148 . S
N103 C100 1.301 . S
N103 C101 1.317 . S
N104 C100 1.328 . S
N104 C102 1.350 . S
H105 C100 0.930 . S
H106 C101 0.930 . S
C107 O108 1.224 . S
C107 O126 1.247 . S
O108 C107 1.224 . S
N109 Co99 2.128 . S
N109 C110 1.355 . S
N109 C112 1.311 . S
C110 N109 1.355 . S
C110 C111 1.363 . S
C110 H122 0.929 . S
C111 C110 1.363 . S
C111 N113 1.375 . S
C111 H129 0.931 . S
C112 N109 1.311 . S
C112 N113 1.347 . S
C112 H123 0.929 . S
N113 C111 1.375 . S
N113 C112 1.347 . S
C114 C117 1.365 . S
C114 N119 1.328 . S
C114 H120 0.929 . S
C115 C116 1.362 . S
C115 C118 1.378 . S
C115 H130 0.929 . S
C116 C115 1.362 . S
C116 C117 1.366 . S
C117 C114 1.365 . S
C117 C116 1.366 . S
C117 H131 0.930 . S
C118 C115 1.378 . S
C118 N119 1.315 . S
C118 H121 0.930 . S
N119 Co99 2.194 . S
N119 C114 1.328 . S
N119 C118 1.315 . S
H120 C114 0.929 . S
H121 C118 0.930 . S
H122 C110 0.929 . S
H123 C112 0.929 . S
O124 Co99 2.351 . S
O124 C127 1.244 . S
O125 Co99 2.155 . S
O125 C127 1.240 . S
O126 Co99 2.096 . S
O126 C107 1.247 . S
C127 O124 1.244 . S
C127 O125 1.240 . S
H128 C102 0.931 . S
H129 C111 0.931 . S
H130 C115 0.929 . S
H131 C117 0.930 . S
Co132 N136 2.148 . S
Co132 N142 2.128 . S
Co132 N152 2.194 . S
Co132 O157 2.351 . S
Co132 O158 2.155 . S
Co132 O159 2.096 . S
C133 N136 1.301 . S
C133 N137 1.328 . S
C133 H138 0.930 . S
C134 C135 1.333 . S
C134 N136 1.317 . S
C134 H139 0.930 . S
C135 C134 1.333 . S
C135 N137 1.350 . S
C135 H161 0.931 . S
N136 Co132 2.148 . S
N136 C133 1.301 . S
N136 C134 1.317 . S
N137 C133 1.328 . S
N137 C135 1.350 . S
H138 C133 0.930 . S
H139 C134 0.930 . S
C140 O141 1.224 . S
C140 O159 1.247 . S
O141 C140 1.224 . S
N142 Co132 2.128 . S
N142 C143 1.355 . S
N142 C145 1.311 . S
C143 N142 1.355 . S
C143 C144 1.363 . S
C143 H155 0.929 . S
C144 C143 1.363 . S
C144 N146 1.375 . S
C144 H162 0.931 . S
C145 N142 1.311 . S
C145 N146 1.347 . S
C145 H156 0.929 . S
N146 C144 1.375 . S
N146 C145 1.347 . S
C147 C150 1.365 . S
C147 N152 1.328 . S
C147 H153 0.929 . S
C148 C149 1.362 . S
C148 C151 1.378 . S
C148 H163 0.929 . S
C149 C148 1.362 . S
C149 C150 1.366 . S
C150 C147 1.365 . S
C150 C149 1.366 . S
C150 H164 0.930 . S
C151 C148 1.378 . S
C151 N152 1.315 . S
C151 H154 0.930 . S
N152 Co132 2.194 . S
N152 C147 1.328 . S
N152 C151 1.315 . S
H153 C147 0.929 . S
H154 C151 0.930 . S
H155 C143 0.929 . S
H156 C145 0.929 . S
O157 Co132 2.351 . S
O157 C160 1.244 . S
O158 Co132 2.155 . S
O158 C160 1.240 . S
O159 Co132 2.096 . S
O159 C140 1.247 . S
C160 O157 1.244 . S
C160 O158 1.240 . S
H161 C135 0.931 . S
H162 C144 0.931 . S
H163 C148 0.929 . S
H164 C150 0.930 . S
Co165 N169 2.148 . S
Co165 N175 2.128 . S
Co165 N185 2.194 . S
Co165 O190 2.351 . S
Co165 O191 2.155 . S
Co165 O192 2.096 . S
C166 N169 1.301 . S
C166 N170 1.328 . S
C166 H171 0.930 . S
C167 C168 1.333 . S
C167 N169 1.317 . S
C167 H172 0.930 . S
C168 C167 1.333 . S
C168 N170 1.350 . S
C168 H194 0.931 . S
N169 Co165 2.148 . S
N169 C166 1.301 . S
N169 C167 1.317 . S
N170 C166 1.328 . S
N170 C168 1.350 . S
H171 C166 0.930 . S
H172 C167 0.930 . S
C173 O174 1.224 . S
C173 O192 1.247 . S
O174 C173 1.224 . S
N175 Co165 2.128 . S
N175 C176 1.355 . S
N175 C178 1.311 . S
C176 N175 1.355 . S
C176 C177 1.363 . S
C176 H188 0.929 . S
C177 C176 1.363 . S
C177 N179 1.375 . S
C177 H195 0.931 . S
C178 N175 1.311 . S
C178 N179 1.347 . S
C178 H189 0.929 . S
N179 C177 1.375 . S
N179 C178 1.347 . S
C180 C183 1.365 . S
C180 N185 1.328 . S
C180 H186 0.929 . S
C181 C182 1.362 . S
C181 C184 1.378 . S
C181 H196 0.929 . S
C182 C181 1.362 . S
C182 C183 1.366 . S
C183 C180 1.365 . S
C183 C182 1.366 . S
C183 H197 0.930 . S
C184 C181 1.378 . S
C184 N185 1.315 . S
C184 H187 0.930 . S
N185 Co165 2.194 . S
N185 C180 1.328 . S
N185 C184 1.315 . S
H186 C180 0.929 . S
H187 C184 0.930 . S
H188 C176 0.929 . S
H189 C178 0.929 . S
O190 Co165 2.351 . S
O190 C193 1.244 . S
O191 Co165 2.155 . S
O191 C193 1.240 . S
O192 Co165 2.096 . S
O192 C173 1.247 . S
C193 O190 1.244 . S
C193 O191 1.240 . S
H194 C168 0.931 . S
H195 C177 0.931 . S
H196 C181 0.929 . S
H197 C183 0.930 . S
Co198 N202 2.148 . S
Co198 N208 2.128 . S
Co198 N218 2.194 . S
Co198 O223 2.351 . S
Co198 O224 2.155 . S
Co198 O225 2.096 . S
C199 N202 1.301 . S
C199 N203 1.328 . S
C199 H204 0.930 . S
C200 C201 1.333 . S
C200 N202 1.317 . S
C200 H205 0.930 . S
C201 C200 1.333 . S
C201 N203 1.350 . S
C201 H227 0.931 . S
N202 Co198 2.148 . S
N202 C199 1.301 . S
N202 C200 1.317 . S
N203 C199 1.328 . S
N203 C201 1.350 . S
H204 C199 0.930 . S
H205 C200 0.930 . S
C206 O207 1.224 . S
C206 O225 1.247 . S
O207 C206 1.224 . S
N208 Co198 2.128 . S
N208 C209 1.355 . S
N208 C211 1.311 . S
C209 N208 1.355 . S
C209 C210 1.363 . S
C209 H221 0.929 . S
C210 C209 1.363 . S
C210 N212 1.375 . S
C210 H228 0.931 . S
C211 N208 1.311 . S
C211 N212 1.347 . S
C211 H222 0.929 . S
N212 C210 1.375 . S
N212 C211 1.347 . S
C213 C216 1.365 . S
C213 N218 1.328 . S
C213 H219 0.929 . S
C214 C215 1.362 . S
C214 C217 1.378 . S
C214 H229 0.929 . S
C215 C214 1.362 . S
C215 C216 1.366 . S
C216 C213 1.365 . S
C216 C215 1.366 . S
C216 H230 0.930 . S
C217 C214 1.378 . S
C217 N218 1.315 . S
C217 H220 0.930 . S
N218 Co198 2.194 . S
N218 C213 1.328 . S
N218 C217 1.315 . S
H219 C213 0.929 . S
H220 C217 0.930 . S
H221 C209 0.929 . S
H222 C211 0.929 . S
O223 Co198 2.351 . S
O223 C226 1.244 . S
O224 Co198 2.155 . S
O224 C226 1.240 . S
O225 Co198 2.096 . S
O225 C206 1.247 . S
C226 O223 1.244 . S
C226 O224 1.240 . S
H227 C201 0.931 . S
H228 C210 0.931 . S
H229 C214 0.929 . S
H230 C216 0.930 . S
Co231 N235 2.148 . S
Co231 N241 2.128 . S
Co231 N251 2.194 . S
Co231 O256 2.351 . S
Co231 O257 2.155 . S
Co231 O258 2.096 . S
C232 N235 1.301 . S
C232 N236 1.328 . S
C232 H237 0.930 . S
C233 C234 1.333 . S
C233 N235 1.317 . S
C233 H238 0.930 . S
C234 C233 1.333 . S
C234 N236 1.350 . S
C234 H260 0.931 . S
N235 Co231 2.148 . S
N235 C232 1.301 . S
N235 C233 1.317 . S
N236 C232 1.328 . S
N236 C234 1.350 . S
H237 C232 0.930 . S
H238 C233 0.930 . S
C239 O240 1.224 . S
C239 O258 1.247 . S
O240 C239 1.224 . S
N241 Co231 2.128 . S
N241 C242 1.355 . S
N241 C244 1.311 . S
C242 N241 1.355 . S
C242 C243 1.363 . S
C242 H254 0.929 . S
C243 C242 1.363 . S
C243 N245 1.375 . S
C243 H261 0.931 . S
C244 N241 1.311 . S
C244 N245 1.347 . S
C244 H255 0.929 . S
N245 C243 1.375 . S
N245 C244 1.347 . S
C246 C249 1.365 . S
C246 N251 1.328 . S
C246 H252 0.929 . S
C247 C248 1.362 . S
C247 C250 1.378 . S
C247 H262 0.929 . S
C248 C247 1.362 . S
C248 C249 1.366 . S
C249 C246 1.365 . S
C249 C248 1.366 . S
C249 H263 0.930 . S
C250 C247 1.378 . S
C250 N251 1.315 . S
C250 H253 0.930 . S
N251 Co231 2.194 . S
N251 C246 1.328 . S
N251 C250 1.315 . S
H252 C246 0.929 . S
H253 C250 0.930 . S
H254 C242 0.929 . S
H255 C244 0.929 . S
O256 Co231 2.351 . S
O256 C259 1.244 . S
O257 Co231 2.155 . S
O257 C259 1.240 . S
O258 Co231 2.096 . S
O258 C239 1.247 . S
C259 O256 1.244 . S
C259 O257 1.240 . S
H260 C234 0.931 . S
H261 C243 0.931 . S
H262 C247 0.929 . S
H263 C249 0.930 . S
Co264 N268 2.148 . S
Co264 N274 2.128 . S
Co264 N284 2.194 . S
Co264 O289 2.351 . S
Co264 O290 2.155 . S
Co264 O291 2.096 . S
C265 N268 1.301 . S
C265 N269 1.328 . S
C265 H270 0.930 . S
C266 C267 1.333 . S
C266 N268 1.317 . S
C266 H271 0.930 . S
C267 C266 1.333 . S
C267 N269 1.350 . S
C267 H293 0.931 . S
N268 Co264 2.148 . S
N268 C265 1.301 . S
N268 C266 1.317 . S
N269 C265 1.328 . S
N269 C267 1.350 . S
H270 C265 0.930 . S
H271 C266 0.930 . S
C272 O273 1.224 . S
C272 O291 1.247 . S
O273 C272 1.224 . S
N274 Co264 2.128 . S
N274 C275 1.355 . S
N274 C277 1.311 . S
C275 N274 1.355 . S
C275 C276 1.363 . S
C275 H287 0.929 . S
C276 C275 1.363 . S
C276 N278 1.375 . S
C276 H294 0.931 . S
C277 N274 1.311 . S
C277 N278 1.347 . S
C277 H288 0.929 . S
N278 C276 1.375 . S
N278 C277 1.347 . S
C279 C282 1.365 . S
C279 N284 1.328 . S
C279 H285 0.929 . S
C280 C281 1.362 . S
C280 C283 1.378 . S
C280 H295 0.929 . S
C281 C280 1.362 . S
C281 C282 1.366 . S
C282 C279 1.365 . S
C282 C281 1.366 . S
C282 H296 0.930 . S
C283 C280 1.378 . S
C283 N284 1.315 . S
C283 H286 0.930 . S
N284 Co264 2.194 . S
N284 C279 1.328 . S
N284 C283 1.315 . S
H285 C279 0.929 . S
H286 C283 0.930 . S
H287 C275 0.929 . S
H288 C277 0.929 . S
O289 Co264 2.351 . S
O289 C292 1.244 . S
O290 Co264 2.155 . S
O290 C292 1.240 . S
O291 Co264 2.096 . S
O291 C272 1.247 . S
C292 O289 1.244 . S
C292 O290 1.240 . S
H293 C267 0.931 . S
H294 C276 0.931 . S
H295 C280 0.929 . S
H296 C282 0.930 . S
Co297 N301 2.148 . S
Co297 N307 2.128 . S
Co297 N317 2.194 . S
Co297 O322 2.351 . S
Co297 O323 2.155 . S
Co297 O324 2.096 . S
C298 N301 1.301 . S
C298 N302 1.328 . S
C298 H303 0.930 . S
C299 C300 1.333 . S
C299 N301 1.317 . S
C299 H304 0.930 . S
C300 C299 1.333 . S
C300 N302 1.350 . S
C300 H326 0.931 . S
N301 Co297 2.148 . S
N301 C298 1.301 . S
N301 C299 1.317 . S
N302 C298 1.328 . S
N302 C300 1.350 . S
H303 C298 0.930 . S
H304 C299 0.930 . S
C305 O306 1.224 . S
C305 O324 1.247 . S
O306 C305 1.224 . S
N307 Co297 2.128 . S
N307 C308 1.355 . S
N307 C310 1.311 . S
C308 N307 1.355 . S
C308 C309 1.363 . S
C308 H320 0.929 . S
C309 C308 1.363 . S
C309 N311 1.375 . S
C309 H327 0.931 . S
C310 N307 1.311 . S
C310 N311 1.347 . S
C310 H321 0.929 . S
N311 C309 1.375 . S
N311 C310 1.347 . S
C312 C315 1.365 . S
C312 N317 1.328 . S
C312 H318 0.929 . S
C313 C314 1.362 . S
C313 C316 1.378 . S
C313 H328 0.929 . S
C314 C313 1.362 . S
C314 C315 1.366 . S
C315 C312 1.365 . S
C315 C314 1.366 . S
C315 H329 0.930 . S
C316 C313 1.378 . S
C316 N317 1.315 . S
C316 H319 0.930 . S
N317 Co297 2.194 . S
N317 C312 1.328 . S
N317 C316 1.315 . S
H318 C312 0.929 . S
H319 C316 0.930 . S
H320 C308 0.929 . S
H321 C310 0.929 . S
O322 Co297 2.351 . S
O322 C325 1.244 . S
O323 Co297 2.155 . S
O323 C325 1.240 . S
O324 Co297 2.096 . S
O324 C305 1.247 . S
C325 O322 1.244 . S
C325 O323 1.240 . S
H326 C300 0.931 . S
H327 C309 0.931 . S
H328 C313 0.929 . S
H329 C315 0.930 . S
Co330 N334 2.148 . S
Co330 N340 2.128 . S
Co330 N350 2.194 . S
Co330 O355 2.351 . S
Co330 O356 2.155 . S
Co330 O357 2.096 . S
C331 N334 1.301 . S
C331 N335 1.328 . S
C331 H336 0.930 . S
C332 C333 1.333 . S
C332 N334 1.317 . S
C332 H337 0.930 . S
C333 C332 1.333 . S
C333 N335 1.350 . S
C333 H359 0.931 . S
N334 Co330 2.148 . S
N334 C331 1.301 . S
N334 C332 1.317 . S
N335 C331 1.328 . S
N335 C333 1.350 . S
H336 C331 0.930 . S
H337 C332 0.930 . S
C338 O339 1.224 . S
C338 O357 1.247 . S
O339 C338 1.224 . S
N340 Co330 2.128 . S
N340 C341 1.355 . S
N340 C343 1.311 . S
C341 N340 1.355 . S
C341 C342 1.363 . S
C341 H353 0.929 . S
C342 C341 1.363 . S
C342 N344 1.375 . S
C342 H360 0.931 . S
C343 N340 1.311 . S
C343 N344 1.347 . S
C343 H354 0.929 . S
N344 C342 1.375 . S
N344 C343 1.347 . S
C345 C348 1.365 . S
C345 N350 1.328 . S
C345 H351 0.929 . S
C346 C347 1.362 . S
C346 C349 1.378 . S
C346 H361 0.929 . S
C347 C346 1.362 . S
C347 C348 1.366 . S
C348 C345 1.365 . S
C348 C347 1.366 . S
C348 H362 0.930 . S
C349 C346 1.378 . S
C349 N350 1.315 . S
C349 H352 0.930 . S
N350 Co330 2.194 . S
N350 C345 1.328 . S
N350 C349 1.315 . S
H351 C345 0.929 . S
H352 C349 0.930 . S
H353 C341 0.929 . S
H354 C343 0.929 . S
O355 Co330 2.351 . S
O355 C358 1.244 . S
O356 Co330 2.155 . S
O356 C358 1.240 . S
O357 Co330 2.096 . S
O357 C338 1.247 . S
C358 O355 1.244 . S
C358 O356 1.240 . S
H359 C333 0.931 . S
H360 C342 0.931 . S
H361 C346 0.929 . S
H362 C348 0.930 . S
Co363 N367 2.148 . S
Co363 N373 2.128 . S
Co363 N383 2.194 . S
Co363 O388 2.351 . S
Co363 O389 2.155 . S
Co363 O390 2.096 . S
C364 N367 1.301 . S
C364 N368 1.328 . S
C364 H369 0.930 . S
C365 C366 1.333 . S
C365 N367 1.317 . S
C365 H370 0.930 . S
C366 C365 1.333 . S
C366 N368 1.350 . S
C366 H392 0.931 . S
N367 Co363 2.148 . S
N367 C364 1.301 . S
N367 C365 1.317 . S
N368 C364 1.328 . S
N368 C366 1.350 . S
H369 C364 0.930 . S
H370 C365 0.930 . S
C371 O372 1.224 . S
C371 O390 1.247 . S
O372 C371 1.224 . S
N373 Co363 2.128 . S
N373 C374 1.355 . S
N373 C376 1.311 . S
C374 N373 1.355 . S
C374 C375 1.363 . S
C374 H386 0.929 . S
C375 C374 1.363 . S
C375 N377 1.375 . S
C375 H393 0.931 . S
C376 N373 1.311 . S
C376 N377 1.347 . S
C376 H387 0.929 . S
N377 C375 1.375 . S
N377 C376 1.347 . S
C378 C381 1.365 . S
C378 N383 1.328 . S
C378 H384 0.929 . S
C379 C380 1.362 . S
C379 C382 1.378 . S
C379 H394 0.929 . S
C380 C379 1.362 . S
C380 C381 1.366 . S
C381 C378 1.365 . S
C381 C380 1.366 . S
C381 H395 0.930 . S
C382 C379 1.378 . S
C382 N383 1.315 . S
C382 H385 0.930 . S
N383 Co363 2.194 . S
N383 C378 1.328 . S
N383 C382 1.315 . S
H384 C378 0.929 . S
H385 C382 0.930 . S
H386 C374 0.929 . S
H387 C376 0.929 . S
O388 Co363 2.351 . S
O388 C391 1.244 . S
O389 Co363 2.155 . S
O389 C391 1.240 . S
O390 Co363 2.096 . S
O390 C371 1.247 . S
C391 O388 1.244 . S
C391 O389 1.240 . S
H392 C366 0.931 . S
H393 C375 0.931 . S
H394 C379 0.929 . S
H395 C381 0.930 . S
Co396 N400 2.148 . S
Co396 N406 2.128 . S
Co396 N416 2.194 . S
Co396 O421 2.351 . S
Co396 O422 2.155 . S
Co396 O423 2.096 . S
C397 N400 1.301 . S
C397 N401 1.328 . S
C397 H402 0.930 . S
C398 C399 1.333 . S
C398 N400 1.317 . S
C398 H403 0.930 . S
C399 C398 1.333 . S
C399 N401 1.350 . S
C399 H425 0.931 . S
N400 Co396 2.148 . S
N400 C397 1.301 . S
N400 C398 1.317 . S
N401 C397 1.328 . S
N401 C399 1.350 . S
H402 C397 0.930 . S
H403 C398 0.930 . S
C404 O405 1.224 . S
C404 O423 1.247 . S
O405 C404 1.224 . S
N406 Co396 2.128 . S
N406 C407 1.355 . S
N406 C409 1.311 . S
C407 N406 1.355 . S
C407 C408 1.363 . S
C407 H419 0.929 . S
C408 C407 1.363 . S
C408 N410 1.375 . S
C408 H426 0.931 . S
C409 N406 1.311 . S
C409 N410 1.347 . S
C409 H420 0.929 . S
N410 C408 1.375 . S
N410 C409 1.347 . S
C411 C414 1.365 . S
C411 N416 1.328 . S
C411 H417 0.929 . S
C412 C413 1.362 . S
C412 C415 1.378 . S
C412 H427 0.929 . S
C413 C412 1.362 . S
C413 C414 1.366 . S
C414 C411 1.365 . S
C414 C413 1.366 . S
C414 H428 0.930 . S
C415 C412 1.378 . S
C415 N416 1.315 . S
C415 H418 0.930 . S
N416 Co396 2.194 . S
N416 C411 1.328 . S
N416 C415 1.315 . S
H417 C411 0.929 . S
H418 C415 0.930 . S
H419 C407 0.929 . S
H420 C409 0.929 . S
O421 Co396 2.351 . S
O421 C424 1.244 . S
O422 Co396 2.155 . S
O422 C424 1.240 . S
O423 Co396 2.096 . S
O423 C404 1.247 . S
C424 O421 1.244 . S
C424 O422 1.240 . S
H425 C399 0.931 . S
H426 C408 0.931 . S
H427 C412 0.929 . S
H428 C414 0.930 . S
Co429 N433 2.148 . S
Co429 N439 2.128 . S
Co429 N449 2.194 . S
Co429 O454 2.351 . S
Co429 O455 2.155 . S
Co429 O456 2.096 . S
C430 N433 1.301 . S
C430 N434 1.328 . S
C430 H435 0.930 . S
C431 C432 1.333 . S
C431 N433 1.317 . S
C431 H436 0.930 . S
C432 C431 1.333 . S
C432 N434 1.350 . S
C432 H458 0.931 . S
N433 Co429 2.148 . S
N433 C430 1.301 . S
N433 C431 1.317 . S
N434 C430 1.328 . S
N434 C432 1.350 . S
H435 C430 0.930 . S
H436 C431 0.930 . S
C437 O438 1.224 . S
C437 O456 1.247 . S
O438 C437 1.224 . S
N439 Co429 2.128 . S
N439 C440 1.355 . S
N439 C442 1.311 . S
C440 N439 1.355 . S
C440 C441 1.363 . S
C440 H452 0.929 . S
C441 C440 1.363 . S
C441 N443 1.375 . S
C441 H459 0.931 . S
C442 N439 1.311 . S
C442 N443 1.347 . S
C442 H453 0.929 . S
N443 C441 1.375 . S
N443 C442 1.347 . S
C444 C447 1.365 . S
C444 N449 1.328 . S
C444 H450 0.929 . S
C445 C446 1.362 . S
C445 C448 1.378 . S
C445 H460 0.929 . S
C446 C445 1.362 . S
C446 C447 1.366 . S
C447 C444 1.365 . S
C447 C446 1.366 . S
C447 H461 0.930 . S
C448 C445 1.378 . S
C448 N449 1.315 . S
C448 H451 0.930 . S
N449 Co429 2.194 . S
N449 C444 1.328 . S
N449 C448 1.315 . S
H450 C444 0.929 . S
H451 C448 0.930 . S
H452 C440 0.929 . S
H453 C442 0.929 . S
O454 Co429 2.351 . S
O454 C457 1.244 . S
O455 Co429 2.155 . S
O455 C457 1.240 . S
O456 Co429 2.096 . S
O456 C437 1.247 . S
C457 O454 1.244 . S
C457 O455 1.240 . S
H458 C432 0.931 . S
H459 C441 0.931 . S
H460 C445 0.929 . S
H461 C447 0.930 . S
Co462 N466 2.148 . S
Co462 N472 2.128 . S
Co462 N482 2.194 . S
Co462 O487 2.351 . S
Co462 O488 2.155 . S
Co462 O489 2.096 . S
C463 N466 1.301 . S
C463 N467 1.328 . S
C463 H468 0.930 . S
C464 C465 1.333 . S
C464 N466 1.317 . S
C464 H469 0.930 . S
C465 C464 1.333 . S
C465 N467 1.350 . S
C465 H491 0.931 . S
N466 Co462 2.148 . S
N466 C463 1.301 . S
N466 C464 1.317 . S
N467 C463 1.328 . S
N467 C465 1.350 . S
H468 C463 0.930 . S
H469 C464 0.930 . S
C470 O471 1.224 . S
C470 O489 1.247 . S
O471 C470 1.224 . S
N472 Co462 2.128 . S
N472 C473 1.355 . S
N472 C475 1.311 . S
C473 N472 1.355 . S
C473 C474 1.363 . S
C473 H485 0.929 . S
C474 C473 1.363 . S
C474 N476 1.375 . S
C474 H492 0.931 . S
C475 N472 1.311 . S
C475 N476 1.347 . S
C475 H486 0.929 . S
N476 C474 1.375 . S
N476 C475 1.347 . S
C477 C480 1.365 . S
C477 N482 1.328 . S
C477 H483 0.929 . S
C478 C479 1.362 . S
C478 C481 1.378 . S
C478 H493 0.929 . S
C479 C478 1.362 . S
C479 C480 1.366 . S
C480 C477 1.365 . S
C480 C479 1.366 . S
C480 H494 0.930 . S
C481 C478 1.378 . S
C481 N482 1.315 . S
C481 H484 0.930 . S
N482 Co462 2.194 . S
N482 C477 1.328 . S
N482 C481 1.315 . S
H483 C477 0.929 . S
H484 C481 0.930 . S
H485 C473 0.929 . S
H486 C475 0.929 . S
O487 Co462 2.351 . S
O487 C490 1.244 . S
O488 Co462 2.155 . S
O488 C490 1.240 . S
O489 Co462 2.096 . S
O489 C470 1.247 . S
C490 O487 1.244 . S
C490 O488 1.240 . S
H491 C465 0.931 . S
H492 C474 0.931 . S
H493 C478 0.929 . S
H494 C480 0.930 . S
Co495 N499 2.148 . S
Co495 N505 2.128 . S
Co495 N515 2.194 . S
Co495 O520 2.351 . S
Co495 O521 2.155 . S
Co495 O522 2.096 . S
C496 N499 1.301 . S
C496 N500 1.328 . S
C496 H501 0.930 . S
C497 C498 1.333 . S
C497 N499 1.317 . S
C497 H502 0.930 . S
C498 C497 1.333 . S
C498 N500 1.350 . S
C498 H524 0.931 . S
N499 Co495 2.148 . S
N499 C496 1.301 . S
N499 C497 1.317 . S
N500 C496 1.328 . S
N500 C498 1.350 . S
H501 C496 0.930 . S
H502 C497 0.930 . S
C503 O504 1.224 . S
C503 O522 1.247 . S
O504 C503 1.224 . S
N505 Co495 2.128 . S
N505 C506 1.355 . S
N505 C508 1.311 . S
C506 N505 1.355 . S
C506 C507 1.363 . S
C506 H518 0.929 . S
C507 C506 1.363 . S
C507 N509 1.375 . S
C507 H525 0.931 . S
C508 N505 1.311 . S
C508 N509 1.347 . S
C508 H519 0.929 . S
N509 C507 1.375 . S
N509 C508 1.347 . S
C510 C513 1.365 . S
C510 N515 1.328 . S
C510 H516 0.929 . S
C511 C512 1.362 . S
C511 C514 1.378 . S
C511 H526 0.929 . S
C512 C511 1.362 . S
C512 C513 1.366 . S
C513 C510 1.365 . S
C513 C512 1.366 . S
C513 H527 0.930 . S
C514 C511 1.378 . S
C514 N515 1.315 . S
C514 H517 0.930 . S
N515 Co495 2.194 . S
N515 C510 1.328 . S
N515 C514 1.315 . S
H516 C510 0.929 . S
H517 C514 0.930 . S
H518 C506 0.929 . S
H519 C508 0.929 . S
O520 Co495 2.351 . S
O520 C523 1.244 . S
O521 Co495 2.155 . S
O521 C523 1.240 . S
O522 Co495 2.096 . S
O522 C503 1.247 . S
C523 O520 1.244 . S
C523 O521 1.240 . S
H524 C498 0.931 . S
H525 C507 0.931 . S
H526 C511 0.929 . S
H527 C513 0.930 . S
Co528 N532 2.148 . S
Co528 N538 2.128 . S
Co528 N548 2.194 . S
Co528 O553 2.351 . S
Co528 O554 2.155 . S
Co528 O555 2.096 . S
C529 N532 1.301 . S
C529 N533 1.328 . S
C529 H534 0.930 . S
C530 C531 1.333 . S
C530 N532 1.317 . S
C530 H535 0.930 . S
C531 C530 1.333 . S
C531 N533 1.350 . S
C531 H557 0.931 . S
N532 Co528 2.148 . S
N532 C529 1.301 . S
N532 C530 1.317 . S
N533 C529 1.328 . S
N533 C531 1.350 . S
H534 C529 0.930 . S
H535 C530 0.930 . S
C536 O537 1.224 . S
C536 O555 1.247 . S
O537 C536 1.224 . S
N538 Co528 2.128 . S
N538 C539 1.355 . S
N538 C541 1.311 . S
C539 N538 1.355 . S
C539 C540 1.363 . S
C539 H551 0.929 . S
C540 C539 1.363 . S
C540 N542 1.375 . S
C540 H558 0.931 . S
C541 N538 1.311 . S
C541 N542 1.347 . S
C541 H552 0.929 . S
N542 C540 1.375 . S
N542 C541 1.347 . S
C543 C546 1.365 . S
C543 N548 1.328 . S
C543 H549 0.929 . S
C544 C545 1.362 . S
C544 C547 1.378 . S
C544 H559 0.929 . S
C545 C544 1.362 . S
C545 C546 1.366 . S
C546 C543 1.365 . S
C546 C545 1.366 . S
C546 H560 0.930 . S
C547 C544 1.378 . S
C547 N548 1.315 . S
C547 H550 0.930 . S
N548 Co528 2.194 . S
N548 C543 1.328 . S
N548 C547 1.315 . S
H549 C543 0.929 . S
H550 C547 0.930 . S
H551 C539 0.929 . S
H552 C541 0.929 . S
O553 Co528 2.351 . S
O553 C556 1.244 . S
O554 Co528 2.155 . S
O554 C556 1.240 . S
O555 Co528 2.096 . S
O555 C536 1.247 . S
C556 O553 1.244 . S
C556 O554 1.240 . S
H557 C531 0.931 . S
H558 C540 0.931 . S
H559 C544 0.929 . S
H560 C546 0.930 . S
Co561 N565 2.148 . S
Co561 N571 2.128 . S
Co561 N581 2.194 . S
Co561 O586 2.351 . S
Co561 O587 2.155 . S
Co561 O588 2.096 . S
C562 N565 1.301 . S
C562 N566 1.328 . S
C562 H567 0.930 . S
C563 C564 1.333 . S
C563 N565 1.317 . S
C563 H568 0.930 . S
C564 C563 1.333 . S
C564 N566 1.350 . S
C564 H590 0.931 . S
N565 Co561 2.148 . S
N565 C562 1.301 . S
N565 C563 1.317 . S
N566 C562 1.328 . S
N566 C564 1.350 . S
H567 C562 0.930 . S
H568 C563 0.930 . S
C569 O570 1.224 . S
C569 O588 1.247 . S
O570 C569 1.224 . S
N571 Co561 2.128 . S
N571 C572 1.355 . S
N571 C574 1.311 . S
C572 N571 1.355 . S
C572 C573 1.363 . S
C572 H584 0.929 . S
C573 C572 1.363 . S
C573 N575 1.375 . S
C573 H591 0.931 . S
C574 N571 1.311 . S
C574 N575 1.347 . S
C574 H585 0.929 . S
N575 C573 1.375 . S
N575 C574 1.347 . S
C576 C579 1.365 . S
C576 N581 1.328 . S
C576 H582 0.929 . S
C577 C578 1.362 . S
C577 C580 1.378 . S
C577 H592 0.929 . S
C578 C577 1.362 . S
C578 C579 1.366 . S
C579 C576 1.365 . S
C579 C578 1.366 . S
C579 H593 0.930 . S
C580 C577 1.378 . S
C580 N581 1.315 . S
C580 H583 0.930 . S
N581 Co561 2.194 . S
N581 C576 1.328 . S
N581 C580 1.315 . S
H582 C576 0.929 . S
H583 C580 0.930 . S
H584 C572 0.929 . S
H585 C574 0.929 . S
O586 Co561 2.351 . S
O586 C589 1.244 . S
O587 Co561 2.155 . S
O587 C589 1.240 . S
O588 Co561 2.096 . S
O588 C569 1.247 . S
C589 O586 1.244 . S
C589 O587 1.240 . S
H590 C564 0.931 . S
H591 C573 0.931 . S
H592 C577 0.929 . S
H593 C579 0.930 . S
Co594 N598 2.148 . S
Co594 N604 2.128 . S
Co594 N614 2.194 . S
Co594 O619 2.351 . S
Co594 O620 2.155 . S
Co594 O621 2.096 . S
C595 N598 1.301 . S
C595 N599 1.328 . S
C595 H600 0.930 . S
C596 C597 1.333 . S
C596 N598 1.317 . S
C596 H601 0.930 . S
C597 C596 1.333 . S
C597 N599 1.350 . S
C597 H623 0.931 . S
N598 Co594 2.148 . S
N598 C595 1.301 . S
N598 C596 1.317 . S
N599 C595 1.328 . S
N599 C597 1.350 . S
H600 C595 0.930 . S
H601 C596 0.930 . S
C602 O603 1.224 . S
C602 O621 1.247 . S
O603 C602 1.224 . S
N604 Co594 2.128 . S
N604 C605 1.355 . S
N604 C607 1.311 . S
C605 N604 1.355 . S
C605 C606 1.363 . S
C605 H617 0.929 . S
C606 C605 1.363 . S
C606 N608 1.375 . S
C606 H624 0.931 . S
C607 N604 1.311 . S
C607 N608 1.347 . S
C607 H618 0.929 . S
N608 C606 1.375 . S
N608 C607 1.347 . S
C609 C612 1.365 . S
C609 N614 1.328 . S
C609 H615 0.929 . S
C610 C611 1.362 . S
C610 C613 1.378 . S
C610 H625 0.929 . S
C611 C610 1.362 . S
C611 C612 1.366 . S
C612 C609 1.365 . S
C612 C611 1.366 . S
C612 H626 0.930 . S
C613 C610 1.378 . S
C613 N614 1.315 . S
C613 H616 0.930 . S
N614 Co594 2.194 . S
N614 C609 1.328 . S
N614 C613 1.315 . S
H615 C609 0.929 . S
H616 C613 0.930 . S
H617 C605 0.929 . S
H618 C607 0.929 . S
O619 Co594 2.351 . S
O619 C622 1.244 . S
O620 Co594 2.155 . S
O620 C622 1.240 . S
O621 Co594 2.096 . S
O621 C602 1.247 . S
C622 O619 1.244 . S
C622 O620 1.240 . S
H623 C597 0.931 . S
H624 C606 0.931 . S
H625 C610 0.929 . S
H626 C612 0.930 . S
Co627 N631 2.148 . S
Co627 N637 2.128 . S
Co627 N647 2.194 . S
Co627 O652 2.351 . S
Co627 O653 2.155 . S
Co627 O654 2.096 . S
C628 N631 1.301 . S
C628 N632 1.328 . S
C628 H633 0.930 . S
C629 C630 1.333 . S
C629 N631 1.317 . S
C629 H634 0.930 . S
C630 C629 1.333 . S
C630 N632 1.350 . S
C630 H656 0.931 . S
N631 Co627 2.148 . S
N631 C628 1.301 . S
N631 C629 1.317 . S
N632 C628 1.328 . S
N632 C630 1.350 . S
H633 C628 0.930 . S
H634 C629 0.930 . S
C635 O636 1.224 . S
C635 O654 1.247 . S
O636 C635 1.224 . S
N637 Co627 2.128 . S
N637 C638 1.355 . S
N637 C640 1.311 . S
C638 N637 1.355 . S
C638 C639 1.363 . S
C638 H650 0.929 . S
C639 C638 1.363 . S
C639 N641 1.375 . S
C639 H657 0.931 . S
C640 N637 1.311 . S
C640 N641 1.347 . S
C640 H651 0.929 . S
N641 C639 1.375 . S
N641 C640 1.347 . S
C642 C645 1.365 . S
C642 N647 1.328 . S
C642 H648 0.929 . S
C643 C644 1.362 . S
C643 C646 1.378 . S
C643 H658 0.929 . S
C644 C643 1.362 . S
C644 C645 1.366 . S
C645 C642 1.365 . S
C645 C644 1.366 . S
C645 H659 0.930 . S
C646 C643 1.378 . S
C646 N647 1.315 . S
C646 H649 0.930 . S
N647 Co627 2.194 . S
N647 C642 1.328 . S
N647 C646 1.315 . S
H648 C642 0.929 . S
H649 C646 0.930 . S
H650 C638 0.929 . S
H651 C640 0.929 . S
O652 Co627 2.351 . S
O652 C655 1.244 . S
O653 Co627 2.155 . S
O653 C655 1.240 . S
O654 Co627 2.096 . S
O654 C635 1.247 . S
C655 O652 1.244 . S
C655 O653 1.240 . S
H656 C630 0.931 . S
H657 C639 0.931 . S
H658 C643 0.929 . S
H659 C645 0.930 . S
Co660 N664 2.148 . S
Co660 N670 2.128 . S
Co660 N680 2.194 . S
Co660 O685 2.351 . S
Co660 O686 2.155 . S
Co660 O687 2.096 . S
C661 N664 1.301 . S
C661 N665 1.328 . S
C661 H666 0.930 . S
C662 C663 1.333 . S
C662 N664 1.317 . S
C662 H667 0.930 . S
C663 C662 1.333 . S
C663 N665 1.350 . S
C663 H689 0.931 . S
N664 Co660 2.148 . S
N664 C661 1.301 . S
N664 C662 1.317 . S
N665 C661 1.328 . S
N665 C663 1.350 . S
H666 C661 0.930 . S
H667 C662 0.930 . S
C668 O669 1.224 . S
C668 O687 1.247 . S
O669 C668 1.224 . S
N670 Co660 2.128 . S
N670 C671 1.355 . S
N670 C673 1.311 . S
C671 N670 1.355 . S
C671 C672 1.363 . S
C671 H683 0.929 . S
C672 C671 1.363 . S
C672 N674 1.375 . S
C672 H690 0.931 . S
C673 N670 1.311 . S
C673 N674 1.347 . S
C673 H684 0.929 . S
N674 C672 1.375 . S
N674 C673 1.347 . S
C675 C678 1.365 . S
C675 N680 1.328 . S
C675 H681 0.929 . S
C676 C677 1.362 . S
C676 C679 1.378 . S
C676 H691 0.929 . S
C677 C676 1.362 . S
C677 C678 1.366 . S
C678 C675 1.365 . S
C678 C677 1.366 . S
C678 H692 0.930 . S
C679 C676 1.378 . S
C679 N680 1.315 . S
C679 H682 0.930 . S
N680 Co660 2.194 . S
N680 C675 1.328 . S
N680 C679 1.315 . S
H681 C675 0.929 . S
H682 C679 0.930 . S
H683 C671 0.929 . S
H684 C673 0.929 . S
O685 Co660 2.351 . S
O685 C688 1.244 . S
O686 Co660 2.155 . S
O686 C688 1.240 . S
O687 Co660 2.096 . S
O687 C668 1.247 . S
C688 O685 1.244 . S
C688 O686 1.240 . S
H689 C663 0.931 . S
H690 C672 0.931 . S
H691 C676 0.929 . S
H692 C678 0.930 . S
Co693 N697 2.148 . S
Co693 N703 2.128 . S
Co693 N713 2.194 . S
Co693 O718 2.351 . S
Co693 O719 2.155 . S
Co693 O720 2.096 . S
C694 N697 1.301 . S
C694 N698 1.328 . S
C694 H699 0.930 . S
C695 C696 1.333 . S
C695 N697 1.317 . S
C695 H700 0.930 . S
C696 C695 1.333 . S
C696 N698 1.350 . S
C696 H722 0.931 . S
N697 Co693 2.148 . S
N697 C694 1.301 . S
N697 C695 1.317 . S
N698 C694 1.328 . S
N698 C696 1.350 . S
H699 C694 0.930 . S
H700 C695 0.930 . S
C701 O702 1.224 . S
C701 O720 1.247 . S
O702 C701 1.224 . S
N703 Co693 2.128 . S
N703 C704 1.355 . S
N703 C706 1.311 . S
C704 N703 1.355 . S
C704 C705 1.363 . S
C704 H716 0.929 . S
C705 C704 1.363 . S
C705 N707 1.375 . S
C705 H723 0.931 . S
C706 N703 1.311 . S
C706 N707 1.347 . S
C706 H717 0.929 . S
N707 C705 1.375 . S
N707 C706 1.347 . S
C708 C711 1.365 . S
C708 N713 1.328 . S
C708 H714 0.929 . S
C709 C710 1.362 . S
C709 C712 1.378 . S
C709 H724 0.929 . S
C710 C709 1.362 . S
C710 C711 1.366 . S
C711 C708 1.365 . S
C711 C710 1.366 . S
C711 H725 0.930 . S
C712 C709 1.378 . S
C712 N713 1.315 . S
C712 H715 0.930 . S
N713 Co693 2.194 . S
N713 C708 1.328 . S
N713 C712 1.315 . S
H714 C708 0.929 . S
H715 C712 0.930 . S
H716 C704 0.929 . S
H717 C706 0.929 . S
O718 Co693 2.351 . S
O718 C721 1.244 . S
O719 Co693 2.155 . S
O719 C721 1.240 . S
O720 Co693 2.096 . S
O720 C701 1.247 . S
C721 O718 1.244 . S
C721 O719 1.240 . S
H722 C696 0.931 . S
H723 C705 0.931 . S
H724 C709 0.929 . S
H725 C711 0.930 . S
Co726 N730 2.148 . S
Co726 N736 2.128 . S
Co726 N746 2.194 . S
Co726 O751 2.351 . S
Co726 O752 2.155 . S
Co726 O753 2.096 . S
C727 N730 1.301 . S
C727 N731 1.328 . S
C727 H732 0.930 . S
C728 C729 1.333 . S
C728 N730 1.317 . S
C728 H733 0.930 . S
C729 C728 1.333 . S
C729 N731 1.350 . S
C729 H755 0.931 . S
N730 Co726 2.148 . S
N730 C727 1.301 . S
N730 C728 1.317 . S
N731 C727 1.328 . S
N731 C729 1.350 . S
H732 C727 0.930 . S
H733 C728 0.930 . S
C734 O735 1.224 . S
C734 O753 1.247 . S
O735 C734 1.224 . S
N736 Co726 2.128 . S
N736 C737 1.355 . S
N736 C739 1.311 . S
C737 N736 1.355 . S
C737 C738 1.363 . S
C737 H749 0.929 . S
C738 C737 1.363 . S
C738 N740 1.375 . S
C738 H756 0.931 . S
C739 N736 1.311 . S
C739 N740 1.347 . S
C739 H750 0.929 . S
N740 C738 1.375 . S
N740 C739 1.347 . S
C741 C744 1.365 . S
C741 N746 1.328 . S
C741 H747 0.929 . S
C742 C743 1.362 . S
C742 C745 1.378 . S
C742 H757 0.929 . S
C743 C742 1.362 . S
C743 C744 1.366 . S
C744 C741 1.365 . S
C744 C743 1.366 . S
C744 H758 0.930 . S
C745 C742 1.378 . S
C745 N746 1.315 . S
C745 H748 0.930 . S
N746 Co726 2.194 . S
N746 C741 1.328 . S
N746 C745 1.315 . S
H747 C741 0.929 . S
H748 C745 0.930 . S
H749 C737 0.929 . S
H750 C739 0.929 . S
O751 Co726 2.351 . S
O751 C754 1.244 . S
O752 Co726 2.155 . S
O752 C754 1.240 . S
O753 Co726 2.096 . S
O753 C734 1.247 . S
C754 O751 1.244 . S
C754 O752 1.240 . S
H755 C729 0.931 . S
H756 C738 0.931 . S
H757 C742 0.929 . S
H758 C744 0.930 . S
Co759 N763 2.148 . S
Co759 N769 2.128 . S
Co759 N779 2.194 . S
Co759 O784 2.351 . S
Co759 O785 2.155 . S
Co759 O786 2.096 . S
C760 N763 1.301 . S
C760 N764 1.328 . S
C760 H765 0.930 . S
C761 C762 1.333 . S
C761 N763 1.317 . S
C761 H766 0.930 . S
C762 C761 1.333 . S
C762 N764 1.350 . S
C762 H788 0.931 . S
N763 Co759 2.148 . S
N763 C760 1.301 . S
N763 C761 1.317 . S
N764 C760 1.328 . S
N764 C762 1.350 . S
H765 C760 0.930 . S
H766 C761 0.930 . S
C767 O768 1.224 . S
C767 O786 1.247 . S
O768 C767 1.224 . S
N769 Co759 2.128 . S
N769 C770 1.355 . S
N769 C772 1.311 . S
C770 N769 1.355 . S
C770 C771 1.363 . S
C770 H782 0.929 . S
C771 C770 1.363 . S
C771 N773 1.375 . S
C771 H789 0.931 . S
C772 N769 1.311 . S
C772 N773 1.347 . S
C772 H783 0.929 . S
N773 C771 1.375 . S
N773 C772 1.347 . S
C774 C777 1.365 . S
C774 N779 1.328 . S
C774 H780 0.929 . S
C775 C776 1.362 . S
C775 C778 1.378 . S
C775 H790 0.929 . S
C776 C775 1.362 . S
C776 C777 1.366 . S
C777 C774 1.365 . S
C777 C776 1.366 . S
C777 H791 0.930 . S
C778 C775 1.378 . S
C778 N779 1.315 . S
C778 H781 0.930 . S
N779 Co759 2.194 . S
N779 C774 1.328 . S
N779 C778 1.315 . S
H780 C774 0.929 . S
H781 C778 0.930 . S
H782 C770 0.929 . S
H783 C772 0.929 . S
O784 Co759 2.351 . S
O784 C787 1.244 . S
O785 Co759 2.155 . S
O785 C787 1.240 . S
O786 Co759 2.096 . S
O786 C767 1.247 . S
C787 O784 1.244 . S
C787 O785 1.240 . S
H788 C762 0.931 . S
H789 C771 0.931 . S
H790 C775 0.929 . S
H791 C777 0.930 . S
Co792 N796 2.148 . S
Co792 N802 2.128 . S
Co792 N812 2.194 . S
Co792 O817 2.351 . S
Co792 O818 2.155 . S
Co792 O819 2.096 . S
C793 N796 1.301 . S
C793 N797 1.328 . S
C793 H798 0.930 . S
C794 C795 1.333 . S
C794 N796 1.317 . S
C794 H799 0.930 . S
C795 C794 1.333 . S
C795 N797 1.350 . S
C795 H821 0.931 . S
N796 Co792 2.148 . S
N796 C793 1.301 . S
N796 C794 1.317 . S
N797 C793 1.328 . S
N797 C795 1.350 . S
H798 C793 0.930 . S
H799 C794 0.930 . S
C800 O801 1.224 . S
C800 O819 1.247 . S
O801 C800 1.224 . S
N802 Co792 2.128 . S
N802 C803 1.355 . S
N802 C805 1.311 . S
C803 N802 1.355 . S
C803 C804 1.363 . S
C803 H815 0.929 . S
C804 C803 1.363 . S
C804 N806 1.375 . S
C804 H822 0.931 . S
C805 N802 1.311 . S
C805 N806 1.347 . S
C805 H816 0.929 . S
N806 C804 1.375 . S
N806 C805 1.347 . S
C807 C810 1.365 . S
C807 N812 1.328 . S
C807 H813 0.929 . S
C808 C809 1.362 . S
C808 C811 1.378 . S
C808 H823 0.929 . S
C809 C808 1.362 . S
C809 C810 1.366 . S
C810 C807 1.365 . S
C810 C809 1.366 . S
C810 H824 0.930 . S
C811 C808 1.378 . S
C811 N812 1.315 . S
C811 H814 0.930 . S
N812 Co792 2.194 . S
N812 C807 1.328 . S
N812 C811 1.315 . S
H813 C807 0.929 . S
H814 C811 0.930 . S
H815 C803 0.929 . S
H816 C805 0.929 . S
O817 Co792 2.351 . S
O817 C820 1.244 . S
O818 Co792 2.155 . S
O818 C820 1.240 . S
O819 Co792 2.096 . S
O819 C800 1.247 . S
C820 O817 1.244 . S
C820 O818 1.240 . S
H821 C795 0.931 . S
H822 C804 0.931 . S
H823 C808 0.929 . S
H824 C810 0.930 . S
Co825 N829 2.148 . S
Co825 N835 2.128 . S
Co825 N845 2.194 . S
Co825 O850 2.351 . S
Co825 O851 2.155 . S
Co825 O852 2.096 . S
C826 N829 1.301 . S
C826 N830 1.328 . S
C826 H831 0.930 . S
C827 C828 1.333 . S
C827 N829 1.317 . S
C827 H832 0.930 . S
C828 C827 1.333 . S
C828 N830 1.350 . S
C828 H854 0.931 . S
N829 Co825 2.148 . S
N829 C826 1.301 . S
N829 C827 1.317 . S
N830 C826 1.328 . S
N830 C828 1.350 . S
H831 C826 0.930 . S
H832 C827 0.930 . S
C833 O834 1.224 . S
C833 O852 1.247 . S
O834 C833 1.224 . S
N835 Co825 2.128 . S
N835 C836 1.355 . S
N835 C838 1.311 . S
C836 N835 1.355 . S
C836 C837 1.363 . S
C836 H848 0.929 . S
C837 C836 1.363 . S
C837 N839 1.375 . S
C837 H855 0.931 . S
C838 N835 1.311 . S
C838 N839 1.347 . S
C838 H849 0.929 . S
N839 C837 1.375 . S
N839 C838 1.347 . S
C840 C843 1.365 . S
C840 N845 1.328 . S
C840 H846 0.929 . S
C841 C842 1.362 . S
C841 C844 1.378 . S
C841 H856 0.929 . S
C842 C841 1.362 . S
C842 C843 1.366 . S
C843 C840 1.365 . S
C843 C842 1.366 . S
C843 H857 0.930 . S
C844 C841 1.378 . S
C844 N845 1.315 . S
C844 H847 0.930 . S
N845 Co825 2.194 . S
N845 C840 1.328 . S
N845 C844 1.315 . S
H846 C840 0.929 . S
H847 C844 0.930 . S
H848 C836 0.929 . S
H849 C838 0.929 . S
O850 Co825 2.351 . S
O850 C853 1.244 . S
O851 Co825 2.155 . S
O851 C853 1.240 . S
O852 Co825 2.096 . S
O852 C833 1.247 . S
C853 O850 1.244 . S
C853 O851 1.240 . S
H854 C828 0.931 . S
H855 C837 0.931 . S
H856 C841 0.929 . S
H857 C843 0.930 . S
Co858 N862 2.148 . S
Co858 N868 2.128 . S
Co858 N878 2.194 . S
Co858 O883 2.351 . S
Co858 O884 2.155 . S
Co858 O885 2.096 . S
C859 N862 1.301 . S
C859 N863 1.328 . S
C859 H864 0.930 . S
C860 C861 1.333 . S
C860 N862 1.317 . S
C860 H865 0.930 . S
C861 C860 1.333 . S
C861 N863 1.350 . S
C861 H887 0.931 . S
N862 Co858 2.148 . S
N862 C859 1.301 . S
N862 C860 1.317 . S
N863 C859 1.328 . S
N863 C861 1.350 . S
H864 C859 0.930 . S
H865 C860 0.930 . S
C866 O867 1.224 . S
C866 O885 1.247 . S
O867 C866 1.224 . S
N868 Co858 2.128 . S
N868 C869 1.355 . S
N868 C871 1.311 . S
C869 N868 1.355 . S
C869 C870 1.363 . S
C869 H881 0.929 . S
C870 C869 1.363 . S
C870 N872 1.375 . S
C870 H888 0.931 . S
C871 N868 1.311 . S
C871 N872 1.347 . S
C871 H882 0.929 . S
N872 C870 1.375 . S
N872 C871 1.347 . S
C873 C876 1.365 . S
C873 N878 1.328 . S
C873 H879 0.929 . S
C874 C875 1.362 . S
C874 C877 1.378 . S
C874 H889 0.929 . S
C875 C874 1.362 . S
C875 C876 1.366 . S
C876 C873 1.365 . S
C876 C875 1.366 . S
C876 H890 0.930 . S
C877 C874 1.378 . S
C877 N878 1.315 . S
C877 H880 0.930 . S
N878 Co858 2.194 . S
N878 C873 1.328 . S
N878 C877 1.315 . S
H879 C873 0.929 . S
H880 C877 0.930 . S
H881 C869 0.929 . S
H882 C871 0.929 . S
O883 Co858 2.351 . S
O883 C886 1.244 . S
O884 Co858 2.155 . S
O884 C886 1.240 . S
O885 Co858 2.096 . S
O885 C866 1.247 . S
C886 O883 1.244 . S
C886 O884 1.240 . S
H887 C861 0.931 . S
H888 C870 0.931 . S
H889 C874 0.929 . S
H890 C876 0.930 . S
Co891 N895 2.148 . S
Co891 N901 2.128 . S
Co891 N911 2.194 . S
Co891 O916 2.351 . S
Co891 O917 2.155 . S
Co891 O918 2.096 . S
C892 N895 1.301 . S
C892 N896 1.328 . S
C892 H897 0.930 . S
C893 C894 1.333 . S
C893 N895 1.317 . S
C893 H898 0.930 . S
C894 C893 1.333 . S
C894 N896 1.350 . S
C894 H920 0.931 . S
N895 Co891 2.148 . S
N895 C892 1.301 . S
N895 C893 1.317 . S
N896 C892 1.328 . S
N896 C894 1.350 . S
H897 C892 0.930 . S
H898 C893 0.930 . S
C899 O900 1.224 . S
C899 O918 1.247 . S
O900 C899 1.224 . S
N901 Co891 2.128 . S
N901 C902 1.355 . S
N901 C904 1.311 . S
C902 N901 1.355 . S
C902 C903 1.363 . S
C902 H914 0.929 . S
C903 C902 1.363 . S
C903 N905 1.375 . S
C903 H921 0.931 . S
C904 N901 1.311 . S
C904 N905 1.347 . S
C904 H915 0.929 . S
N905 C903 1.375 . S
N905 C904 1.347 . S
C906 C909 1.365 . S
C906 N911 1.328 . S
C906 H912 0.929 . S
C907 C908 1.362 . S
C907 C910 1.378 . S
C907 H922 0.929 . S
C908 C907 1.362 . S
C908 C909 1.366 . S
C909 C906 1.365 . S
C909 C908 1.366 . S
C909 H923 0.930 . S
C910 C907 1.378 . S
C910 N911 1.315 . S
C910 H913 0.930 . S
N911 Co891 2.194 . S
N911 C906 1.328 . S
N911 C910 1.315 . S
H912 C906 0.929 . S
H913 C910 0.930 . S
H914 C902 0.929 . S
H915 C904 0.929 . S
O916 Co891 2.351 . S
O916 C919 1.244 . S
O917 Co891 2.155 . S
O917 C919 1.240 . S
O918 Co891 2.096 . S
O918 C899 1.247 . S
C919 O916 1.244 . S
C919 O917 1.240 . S
H920 C894 0.931 . S
H921 C903 0.931 . S
H922 C907 0.929 . S
H923 C909 0.930 . S
Co924 N928 2.148 . S
Co924 N934 2.128 . S
Co924 N944 2.194 . S
Co924 O949 2.351 . S
Co924 O950 2.155 . S
Co924 O951 2.096 . S
C925 N928 1.301 . S
C925 N929 1.328 . S
C925 H930 0.930 . S
C926 C927 1.333 . S
C926 N928 1.317 . S
C926 H931 0.930 . S
C927 C926 1.333 . S
C927 N929 1.350 . S
C927 H953 0.931 . S
N928 Co924 2.148 . S
N928 C925 1.301 . S
N928 C926 1.317 . S
N929 C925 1.328 . S
N929 C927 1.350 . S
H930 C925 0.930 . S
H931 C926 0.930 . S
C932 O933 1.224 . S
C932 O951 1.247 . S
O933 C932 1.224 . S
N934 Co924 2.128 . S
N934 C935 1.355 . S
N934 C937 1.311 . S
C935 N934 1.355 . S
C935 C936 1.363 . S
C935 H947 0.929 . S
C936 C935 1.363 . S
C936 N938 1.375 . S
C936 H954 0.931 . S
C937 N934 1.311 . S
C937 N938 1.347 . S
C937 H948 0.929 . S
N938 C936 1.375 . S
N938 C937 1.347 . S
C939 C942 1.365 . S
C939 N944 1.328 . S
C939 H945 0.929 . S
C940 C941 1.362 . S
C940 C943 1.378 . S
C940 H955 0.929 . S
C941 C940 1.362 . S
C941 C942 1.366 . S
C942 C939 1.365 . S
C942 C941 1.366 . S
C942 H956 0.930 . S
C943 C940 1.378 . S
C943 N944 1.315 . S
C943 H946 0.930 . S
N944 Co924 2.194 . S
N944 C939 1.328 . S
N944 C943 1.315 . S
H945 C939 0.929 . S
H946 C943 0.930 . S
H947 C935 0.929 . S
H948 C937 0.929 . S
O949 Co924 2.351 . S
O949 C952 1.244 . S
O950 Co924 2.155 . S
O950 C952 1.240 . S
O951 Co924 2.096 . S
O951 C932 1.247 . S
C952 O949 1.244 . S
C952 O950 1.240 . S
H953 C927 0.931 . S
H954 C936 0.931 . S
H955 C940 0.929 . S
H956 C942 0.930 . S
Co957 N961 2.148 . S
Co957 N967 2.128 . S
Co957 N977 2.194 . S
Co957 O982 2.351 . S
Co957 O983 2.155 . S
Co957 O984 2.096 . S
C958 N961 1.301 . S
C958 N962 1.328 . S
C958 H963 0.930 . S
C959 C960 1.333 . S
C959 N961 1.317 . S
C959 H964 0.930 . S
C960 C959 1.333 . S
C960 N962 1.350 . S
C960 H986 0.931 . S
N961 Co957 2.148 . S
N961 C958 1.301 . S
N961 C959 1.317 . S
N962 C958 1.328 . S
N962 C960 1.350 . S
H963 C958 0.930 . S
H964 C959 0.930 . S
C965 O966 1.224 . S
C965 O984 1.247 . S
O966 C965 1.224 . S
N967 Co957 2.128 . S
N967 C968 1.355 . S
N967 C970 1.311 . S
C968 N967 1.355 . S
C968 C969 1.363 . S
C968 H980 0.929 . S
C969 C968 1.363 . S
C969 N971 1.375 . S
C969 H987 0.931 . S
C970 N967 1.311 . S
C970 N971 1.347 . S
C970 H981 0.929 . S
N971 C969 1.375 . S
N971 C970 1.347 . S
C972 C975 1.365 . S
C972 N977 1.328 . S
C972 H978 0.929 . S
C973 C974 1.362 . S
C973 C976 1.378 . S
C973 H988 0.929 . S
C974 C973 1.362 . S
C974 C975 1.366 . S
C975 C972 1.365 . S
C975 C974 1.366 . S
C975 H989 0.930 . S
C976 C973 1.378 . S
C976 N977 1.315 . S
C976 H979 0.930 . S
N977 Co957 2.194 . S
N977 C972 1.328 . S
N977 C976 1.315 . S
H978 C972 0.929 . S
H979 C976 0.930 . S
H980 C968 0.929 . S
H981 C970 0.929 . S
O982 Co957 2.351 . S
O982 C985 1.244 . S
O983 Co957 2.155 . S
O983 C985 1.240 . S
O984 Co957 2.096 . S
O984 C965 1.247 . S
C985 O982 1.244 . S
C985 O983 1.240 . S
H986 C960 0.931 . S
H987 C969 0.931 . S
H988 C973 0.929 . S
H989 C975 0.930 . S
Co990 N994 2.148 . S
Co990 N1000 2.128 . S
Co990 N1010 2.194 . S
Co990 O1015 2.351 . S
Co990 O1016 2.155 . S
Co990 O1017 2.096 . S
C991 N994 1.301 . S
C991 N995 1.328 . S
C991 H996 0.930 . S
C992 C993 1.333 . S
C992 N994 1.317 . S
C992 H997 0.930 . S
C993 C992 1.333 . S
C993 N995 1.350 . S
C993 H1019 0.931 . S
N994 Co990 2.148 . S
N994 C991 1.301 . S
N994 C992 1.317 . S
N995 C991 1.328 . S
N995 C993 1.350 . S
H996 C991 0.930 . S
H997 C992 0.930 . S
C998 O999 1.224 . S
C998 O1017 1.247 . S
O999 C998 1.224 . S
N1000 Co990 2.128 . S
N1000 C1001 1.355 . S
N1000 C1003 1.311 . S
C1001 N1000 1.355 . S
C1001 C1002 1.363 . S
C1001 H1013 0.929 . S
C1002 C1001 1.363 . S
C1002 N1004 1.375 . S
C1002 H1020 0.931 . S
C1003 N1000 1.311 . S
C1003 N1004 1.347 . S
C1003 H1014 0.929 . S
N1004 C1002 1.375 . S
N1004 C1003 1.347 . S
C1005 C1008 1.365 . S
C1005 N1010 1.328 . S
C1005 H1011 0.929 . S
C1006 C1007 1.362 . S
C1006 C1009 1.378 . S
C1006 H1021 0.929 . S
C1007 C1006 1.362 . S
C1007 C1008 1.366 . S
C1008 C1005 1.365 . S
C1008 C1007 1.366 . S
C1008 H1022 0.930 . S
C1009 C1006 1.378 . S
C1009 N1010 1.315 . S
C1009 H1012 0.930 . S
N1010 Co990 2.194 . S
N1010 C1005 1.328 . S
N1010 C1009 1.315 . S
H1011 C1005 0.929 . S
H1012 C1009 0.930 . S
H1013 C1001 0.929 . S
H1014 C1003 0.929 . S
O1015 Co990 2.351 . S
O1015 C1018 1.244 . S
O1016 Co990 2.155 . S
O1016 C1018 1.240 . S
O1017 Co990 2.096 . S
O1017 C998 1.247 . S
C1018 O1015 1.244 . S
C1018 O1016 1.240 . S
H1019 C993 0.931 . S
H1020 C1002 0.931 . S
H1021 C1006 0.929 . S
H1022 C1008 0.930 . S
Co1023 N1027 2.148 . S
Co1023 N1033 2.128 . S
Co1023 N1043 2.194 . S
Co1023 O1048 2.351 . S
Co1023 O1049 2.155 . S
Co1023 O1050 2.096 . S
C1024 N1027 1.301 . S
C1024 N1028 1.328 . S
C1024 H1029 0.930 . S
C1025 C1026 1.333 . S
C1025 N1027 1.317 . S
C1025 H1030 0.930 . S
C1026 C1025 1.333 . S
C1026 N1028 1.350 . S
C1026 H1052 0.931 . S
N1027 Co1023 2.148 . S
N1027 C1024 1.301 . S
N1027 C1025 1.317 . S
N1028 C1024 1.328 . S
N1028 C1026 1.350 . S
H1029 C1024 0.930 . S
H1030 C1025 0.930 . S
C1031 O1032 1.224 . S
C1031 O1050 1.247 . S
O1032 C1031 1.224 . S
N1033 Co1023 2.128 . S
N1033 C1034 1.355 . S
N1033 C1036 1.311 . S
C1034 N1033 1.355 . S
C1034 C1035 1.363 . S
C1034 H1046 0.929 . S
C1035 C1034 1.363 . S
C1035 N1037 1.375 . S
C1035 H1053 0.931 . S
C1036 N1033 1.311 . S
C1036 N1037 1.347 . S
C1036 H1047 0.929 . S
N1037 C1035 1.375 . S
N1037 C1036 1.347 . S
C1038 C1041 1.365 . S
C1038 N1043 1.328 . S
C1038 H1044 0.929 . S
C1039 C1040 1.362 . S
C1039 C1042 1.378 . S
C1039 H1054 0.929 . S
C1040 C1039 1.362 . S
C1040 C1041 1.366 . S
C1041 C1038 1.365 . S
C1041 C1040 1.366 . S
C1041 H1055 0.930 . S
C1042 C1039 1.378 . S
C1042 N1043 1.315 . S
C1042 H1045 0.930 . S
N1043 Co1023 2.194 . S
N1043 C1038 1.328 . S
N1043 C1042 1.315 . S
H1044 C1038 0.929 . S
H1045 C1042 0.930 . S
H1046 C1034 0.929 . S
H1047 C1036 0.929 . S
O1048 Co1023 2.351 . S
O1048 C1051 1.244 . S
O1049 Co1023 2.155 . S
O1049 C1051 1.240 . S
O1050 Co1023 2.096 . S
O1050 C1031 1.247 . S
C1051 O1048 1.244 . S
C1051 O1049 1.240 . S
H1052 C1026 0.931 . S
H1053 C1035 0.931 . S
H1054 C1039 0.929 . S
H1055 C1041 0.930 . S
H1056 C1064 0.929 . S
H1057 C1066 0.930 . S
H1058 C1068 0.930 . S
H1059 C1071 0.929 . S
H1060 C1074 0.930 . S
H1061 C1076 0.960 . S
H1062 C1076 0.960 . S
H1063 C1076 0.960 . S
C1064 H1056 0.929 . S
C1064 C1065 1.377 . S
C1064 C1066 1.384 . S
C1065 C1064 1.377 . S
C1065 C1071 1.390 . S
C1066 H1057 0.930 . S
C1066 C1064 1.384 . S
C1066 C1067 1.372 . S
C1067 C1066 1.372 . S
C1067 C1068 1.400 . S
C1067 C1072 1.490 . S
C1068 H1058 0.930 . S
C1068 C1067 1.400 . S
C1068 C1071 1.386 . S
H1069 C1085 0.930 . S
H1070 C1086 0.931 . S
C1071 H1059 0.929 . S
C1071 C1065 1.390 . S
C1071 C1068 1.386 . S
C1072 C1067 1.490 . S
C1072 C1074 1.395 . S
C1072 C1075 1.403 . S
H1073 C1079 0.930 . S
C1074 H1060 0.930 . S
C1074 C1072 1.395 . S
C1074 C1077 1.403 . S
C1075 C1072 1.403 . S
C1075 C1076 1.524 . S
C1075 C1079 1.400 . S
C1076 H1061 0.960 . S
C1076 H1062 0.960 . S
C1076 H1063 0.960 . S
C1076 C1075 1.524 . S
C1077 C1074 1.403 . S
C1077 C1078 1.392 . S
C1077 C1081 1.495 . S
C1078 C1077 1.392 . S
C1078 C1079 1.385 . S
C1078 C1080 1.478 . S
C1079 H1073 0.930 . S
C1079 C1075 1.400 . S
C1079 C1078 1.385 . S
C1080 C1078 1.478 . S
C1080 C1082 1.381 . S
C1080 C1086 1.383 . S
C1081 C1077 1.495 . S
C1081 H1087 0.959 . S
C1081 H1088 0.961 . S
C1081 H1089 0.960 . S
C1082 C1080 1.381 . S
C1082 C1083 1.394 . S
C1082 H1090 0.930 . S
C1083 C1082 1.394 . S
C1083 C1084 1.383 . S
C1083 H1091 0.929 . S
C1084 C1083 1.383 . S
C1084 C1085 1.377 . S
C1085 H1069 0.930 . S
C1085 C1084 1.377 . S
C1085 C1086 1.379 . S
C1086 H1070 0.931 . S
C1086 C1080 1.383 . S
C1086 C1085 1.379 . S
H1087 C1081 0.959 . S
H1088 C1081 0.961 . S
H1089 C1081 0.960 . S
H1090 C1082 0.930 . S
H1091 C1083 0.929 . S
H1092 C1100 0.929 . S
H1093 C1102 0.930 . S
H1094 C1104 0.919 1_655 S
H1095 C1107 0.929 . S
H1096 C1110 0.930 . S
H1097 C1112 0.960 . S
H1098 C1112 0.960 1_455 S
H1099 C1112 0.960 . S
C1100 H1092 0.929 . S
C1100 C1101 1.377 . S
C1100 C1102 1.384 . S
C1101 C1100 1.377 . S
C1101 C1107 1.390 . S
C1102 H1093 0.930 . S
C1102 C1100 1.384 . S
C1102 C1103 1.372 . S
C1103 C1102 1.372 . S
C1103 C1104 1.400 . S
C1103 C1108 1.490 . S
C1104 H1094 0.919 1_455 S
C1104 C1103 1.400 . S
C1104 C1107 1.386 . S
H1105 C1121 0.930 . S
H1106 C1122 0.931 . S
C1107 H1095 0.929 . S
C1107 C1101 1.390 . S
C1107 C1104 1.386 . S
C1108 C1103 1.490 . S
C1108 C1110 1.395 . S
C1108 C1111 1.402 1_565 S
H1109 C1115 0.930 . S
C1110 H1096 0.930 . S
C1110 C1108 1.395 . S
C1110 C1113 1.403 . S
C1111 C1108 1.402 1_545 S
C1111 C1112 1.524 1_455 S
C1111 C1115 1.400 1_455 S
C1112 H1097 0.960 . S
C1112 H1098 0.960 1_655 S
C1112 H1099 0.960 . S
C1112 C1111 1.524 1_655 S
C1113 C1110 1.403 . S
C1113 C1114 1.392 1_465 S
C1113 C1117 1.495 . S
C1114 C1113 1.392 1_645 S
C1114 C1115 1.385 . S
C1114 C1116 1.478 . S
C1115 H1109 0.930 . S
C1115 C1111 1.400 1_655 S
C1115 C1114 1.385 . S
C1116 C1114 1.478 . S
C1116 C1118 1.381 . S
C1116 C1122 1.383 . S
C1117 C1113 1.495 . S
C1117 H1123 0.959 . S
C1117 H1124 0.961 1_455 S
C1117 H1125 0.960 . S
C1118 C1116 1.381 . S
C1118 C1119 1.394 . S
C1118 H1126 0.930 1_655 S
C1119 C1118 1.394 . S
C1119 C1120 1.383 . S
C1119 H1127 0.929 . S
C1120 C1119 1.383 . S
C1120 C1121 1.377 . S
C1121 H1105 0.930 . S
C1121 C1120 1.377 . S
C1121 C1122 1.379 . S
C1122 H1106 0.931 . S
C1122 C1116 1.383 . S
C1122 C1121 1.379 . S
H1123 C1117 0.959 . S
H1124 C1117 0.961 1_655 S
H1125 C1117 0.960 . S
H1126 C1118 0.930 1_455 S
H1127 C1119 0.929 . S
H1128 C1136 0.929 . S
H1129 C1138 0.930 . S
H1130 C1140 0.930 . S
H1131 C1143 0.929 . S
H1132 C1146 0.930 . S
H1133 C1148 0.960 . S
H1134 C1148 0.960 . S
H1135 C1148 0.960 . S
C1136 H1128 0.929 . S
C1136 C1137 1.377 . S
C1136 C1138 1.384 . S
C1137 C1136 1.377 . S
C1137 C1143 1.390 . S
C1138 H1129 0.930 . S
C1138 C1136 1.384 . S
C1138 C1139 1.372 . S
C1139 C1138 1.372 . S
C1139 C1140 1.400 . S
C1139 C1144 1.490 . S
C1140 H1130 0.930 . S
C1140 C1139 1.400 . S
C1140 C1143 1.386 . S
H1141 C1157 0.930 . S
H1142 C1158 0.931 . S
C1143 H1131 0.929 . S
C1143 C1137 1.390 . S
C1143 C1140 1.386 . S
C1144 C1139 1.490 . S
C1144 C1146 1.395 . S
C1144 C1147 1.403 . S
H1145 C1151 0.930 . S
C1146 H1132 0.930 . S
C1146 C1144 1.395 . S
C1146 C1149 1.403 . S
C1147 C1144 1.403 . S
C1147 C1148 1.524 . S
C1147 C1151 1.400 . S
C1148 H1133 0.960 . S
C1148 H1134 0.960 . S
C1148 H1135 0.960 . S
C1148 C1147 1.524 . S
C1149 C1146 1.403 . S
C1149 C1150 1.392 . S
C1149 C1153 1.495 . S
C1150 C1149 1.392 . S
C1150 C1151 1.385 . S
C1150 C1152 1.478 . S
C1151 H1145 0.930 . S
C1151 C1147 1.400 . S
C1151 C1150 1.385 . S
C1152 C1150 1.478 . S
C1152 C1154 1.381 . S
C1152 C1158 1.383 . S
C1153 C1149 1.495 . S
C1153 H1159 0.959 . S
C1153 H1160 0.961 . S
C1153 H1161 0.960 . S
C1154 C1152 1.381 . S
C1154 C1155 1.394 . S
C1154 H1162 0.930 . S
C1155 C1154 1.394 . S
C1155 C1156 1.383 . S
C1155 H1163 0.929 . S
C1156 C1155 1.383 . S
C1156 C1157 1.377 . S
C1157 H1141 0.930 . S
C1157 C1156 1.377 . S
C1157 C1158 1.379 . S
C1158 H1142 0.931 . S
C1158 C1152 1.383 . S
C1158 C1157 1.379 . S
H1159 C1153 0.959 . S
H1160 C1153 0.961 . S
H1161 C1153 0.960 . S
H1162 C1154 0.930 . S
H1163 C1155 0.929 . S
H1164 C1172 0.929 . S
H1165 C1174 0.930 . S
H1166 C1176 0.930 1_565 S
H1167 C1179 0.929 . S
H1168 C1182 0.930 . S
H1169 C1184 0.960 . S
H1170 C1184 0.960 . S
H1171 C1184 0.960 . S
C1172 H1164 0.929 . S
C1172 C1173 1.377 . S
C1172 C1174 1.384 . S
C1173 C1172 1.377 . S
C1173 C1179 1.390 . S
C1174 H1165 0.930 . S
C1174 C1172 1.384 . S
C1174 C1175 1.372 . S
C1175 C1174 1.372 . S
C1175 C1176 1.400 . S
C1175 C1180 1.490 . S
C1176 H1166 0.930 1_545 S
C1176 C1175 1.400 . S
C1176 C1179 1.386 . S
H1177 C1193 0.930 . S
H1178 C1194 0.931 . S
C1179 H1167 0.929 . S
C1179 C1173 1.390 . S
C1179 C1176 1.386 . S
C1180 C1175 1.490 . S
C1180 C1182 1.395 1_545 S
C1180 C1183 1.403 1_554 S
H1181 C1187 0.930 . S
C1182 H1168 0.930 . S
C1182 C1180 1.395 1_565 S
C1182 C1185 1.403 . S
C1183 C1180 1.403 1_556 S
C1183 C1184 1.524 . S
C1183 C1187 1.407 . S
C1184 H1169 0.960 . S
C1184 H1170 0.960 . S
C1184 H1171 0.960 . S
C1184 C1183 1.524 . S
C1185 C1182 1.403 . S
C1185 C1186 1.392 1_554 S
C1185 C1189 1.495 . S
C1186 C1185 1.392 1_556 S
C1186 C1187 1.379 1_565 S
C1186 C1188 1.478 . S
C1187 H1181 0.930 . S
C1187 C1183 1.407 . S
C1187 C1186 1.379 1_545 S
C1188 C1186 1.478 . S
C1188 C1190 1.381 . S
C1188 C1194 1.383 . S
C1189 C1185 1.495 . S
C1189 H1195 0.959 . S
C1189 H1196 0.961 . S
C1189 H1197 0.960 . S
C1190 C1188 1.381 . S
C1190 C1191 1.394 . S
C1190 H1198 0.930 1_565 S
C1191 C1190 1.394 . S
C1191 C1192 1.383 . S
C1191 H1199 0.929 . S
C1192 C1191 1.383 . S
C1192 C1193 1.377 . S
C1193 H1177 0.930 . S
C1193 C1192 1.377 . S
C1193 C1194 1.379 . S
C1194 H1178 0.931 . S
C1194 C1188 1.383 . S
C1194 C1193 1.379 . S
H1195 C1189 0.959 . S
H1196 C1189 0.961 . S
H1197 C1189 0.960 . S
H1198 C1190 0.930 1_545 S
H1199 C1191 0.929 . S
H1200 C1208 0.929 . S
H1201 C1210 0.930 . S
H1202 C1212 0.930 . S
H1203 C1215 0.929 . S
H1204 C1218 0.930 . S
H1205 C1220 0.960 . S
H1206 C1220 0.960 . S
H1207 C1220 0.960 . S
C1208 H1200 0.929 . S
C1208 C1209 1.377 . S
C1208 C1210 1.384 . S
C1209 C1208 1.377 . S
C1209 C1215 1.390 . S
C1210 H1201 0.930 . S
C1210 C1208 1.384 . S
C1210 C1211 1.372 . S
C1211 C1210 1.372 . S
C1211 C1212 1.400 . S
C1211 C1216 1.490 . S
C1212 H1202 0.930 . S
C1212 C1211 1.400 . S
C1212 C1215 1.386 . S
H1213 C1229 0.930 . S
H1214 C1230 0.931 . S
C1215 H1203 0.929 . S
C1215 C1209 1.390 . S
C1215 C1212 1.386 . S
C1216 C1211 1.490 . S
C1216 C1218 1.395 . S
C1216 C1219 1.403 . S
H1217 C1223 0.930 . S
C1218 H1204 0.930 . S
C1218 C1216 1.395 . S
C1218 C1221 1.403 . S
C1219 C1216 1.403 . S
C1219 C1220 1.524 . S
C1219 C1223 1.400 . S
C1220 H1205 0.960 . S
C1220 H1206 0.960 . S
C1220 H1207 0.960 . S
C1220 C1219 1.524 . S
C1221 C1218 1.403 . S
C1221 C1222 1.392 . S
C1221 C1225 1.495 . S
C1222 C1221 1.392 . S
C1222 C1223 1.385 . S
C1222 C1224 1.478 . S
C1223 H1217 0.930 . S
C1223 C1219 1.400 . S
C1223 C1222 1.385 . S
C1224 C1222 1.478 . S
C1224 C1226 1.381 . S
C1224 C1230 1.383 . S
C1225 C1221 1.495 . S
C1225 H1231 0.959 . S
C1225 H1232 0.961 . S
C1225 H1233 0.960 . S
C1226 C1224 1.381 . S
C1226 C1227 1.394 . S
C1226 H1234 0.930 . S
C1227 C1226 1.394 . S
C1227 C1228 1.383 . S
C1227 H1235 0.929 . S
C1228 C1227 1.383 . S
C1228 C1229 1.377 . S
C1229 H1213 0.930 . S
C1229 C1228 1.377 . S
C1229 C1230 1.379 . S
C1230 H1214 0.931 . S
C1230 C1224 1.383 . S
C1230 C1229 1.379 . S
H1231 C1225 0.959 . S
H1232 C1225 0.961 . S
H1233 C1225 0.960 . S
H1234 C1226 0.930 . S
H1235 C1227 0.929 . S
H1236 C1244 0.929 . S
H1237 C1246 0.930 . S
H1238 C1248 0.930 . S
H1239 C1251 0.929 . S
H1240 C1254 0.930 . S
H1241 C1256 0.960 . S
H1242 C1256 0.960 . S
H1243 C1256 0.960 . S
C1244 H1236 0.929 . S
C1244 C1245 1.377 . S
C1244 C1246 1.384 . S
C1245 C1244 1.377 . S
C1245 C1251 1.390 . S
C1246 H1237 0.930 . S
C1246 C1244 1.384 . S
C1246 C1247 1.372 . S
C1247 C1246 1.372 . S
C1247 C1248 1.400 . S
C1247 C1252 1.490 . S
C1248 H1238 0.930 . S
C1248 C1247 1.400 . S
C1248 C1251 1.386 . S
H1249 C1265 0.930 . S
H1250 C1266 0.931 . S
C1251 H1239 0.929 . S
C1251 C1245 1.390 . S
C1251 C1248 1.386 . S
C1252 C1247 1.490 . S
C1252 C1254 1.395 1_565 S
C1252 C1255 1.403 . S
H1253 C1259 0.930 . S
C1254 H1240 0.930 . S
C1254 C1252 1.395 1_545 S
C1254 C1257 1.403 . S
C1255 C1252 1.403 . S
C1255 C1256 1.524 . S
C1255 C1259 1.400 . S
C1256 H1241 0.960 . S
C1256 H1242 0.960 . S
C1256 H1243 0.960 . S
C1256 C1255 1.524 . S
C1257 C1254 1.403 . S
C1257 C1258 1.392 . S
C1257 C1261 1.495 . S
C1258 C1257 1.392 . S
C1258 C1259 1.385 1_545 S
C1258 C1260 1.478 . S
C1259 H1253 0.930 . S
C1259 C1255 1.400 . S
C1259 C1258 1.385 1_565 S
C1260 C1258 1.478 . S
C1260 C1262 1.381 . S
C1260 C1266 1.383 . S
C1261 C1257 1.495 . S
C1261 H1267 0.959 . S
C1261 H1268 0.961 . S
C1261 H1269 0.960 . S
C1262 C1260 1.381 . S
C1262 C1263 1.394 . S
C1262 H1270 0.930 . S
C1263 C1262 1.394 . S
C1263 C1264 1.383 . S
C1263 H1271 0.929 . S
C1264 C1263 1.383 . S
C1264 C1265 1.377 . S
C1265 H1249 0.930 . S
C1265 C1264 1.377 . S
C1265 C1266 1.379 . S
C1266 H1250 0.931 . S
C1266 C1260 1.383 . S
C1266 C1265 1.379 . S
H1267 C1261 0.959 . S
H1268 C1261 0.961 . S
H1269 C1261 0.960 . S
H1270 C1262 0.930 . S
H1271 C1263 0.929 . S
H1272 C1280 0.929 . S
H1273 C1282 0.930 . S
H1274 C1284 0.930 . S
H1275 C1287 0.929 . S
H1276 C1290 0.930 . S
H1277 C1292 0.960 . S
H1278 C1292 0.960 . S
H1279 C1292 0.960 . S
C1280 H1272 0.929 . S
C1280 C1281 1.377 . S
C1280 C1282 1.384 . S
C1281 C1280 1.377 . S
C1281 C1287 1.390 . S
C1282 H1273 0.930 . S
C1282 C1280 1.384 . S
C1282 C1283 1.372 . S
C1283 C1282 1.372 . S
C1283 C1284 1.400 . S
C1283 C1288 1.490 . S
C1284 H1274 0.930 . S
C1284 C1283 1.400 . S
C1284 C1287 1.386 . S
H1285 C1301 0.930 . S
H1286 C1302 0.931 . S
C1287 H1275 0.929 . S
C1287 C1281 1.390 . S
C1287 C1284 1.386 . S
C1288 C1283 1.490 . S
C1288 C1290 1.395 . S
C1288 C1291 1.403 . S
H1289 C1295 0.930 . S
C1290 H1276 0.930 . S
C1290 C1288 1.395 . S
C1290 C1293 1.403 . S
C1291 C1288 1.403 . S
C1291 C1292 1.524 . S
C1291 C1295 1.400 . S
C1292 H1277 0.960 . S
C1292 H1278 0.960 . S
C1292 H1279 0.960 . S
C1292 C1291 1.524 . S
C1293 C1290 1.403 . S
C1293 C1294 1.392 . S
C1293 C1297 1.495 . S
C1294 C1293 1.392 . S
C1294 C1295 1.385 . S
C1294 C1296 1.478 . S
C1295 H1289 0.930 . S
C1295 C1291 1.400 . S
C1295 C1294 1.385 . S
C1296 C1294 1.478 . S
C1296 C1298 1.381 . S
C1296 C1302 1.383 . S
C1297 C1293 1.495 . S
C1297 H1303 0.959 . S
C1297 H1304 0.961 . S
C1297 H1305 0.960 . S
C1298 C1296 1.381 . S
C1298 C1299 1.394 . S
C1298 H1306 0.930 . S
C1299 C1298 1.394 . S
C1299 C1300 1.383 . S
C1299 H1307 0.929 . S
C1300 C1299 1.383 . S
C1300 C1301 1.377 . S
C1301 H1285 0.930 . S
C1301 C1300 1.377 . S
C1301 C1302 1.379 . S
C1302 H1286 0.931 . S
C1302 C1296 1.383 . S
C1302 C1301 1.379 . S
H1303 C1297 0.959 . S
H1304 C1297 0.961 . S
H1305 C1297 0.960 . S
H1306 C1298 0.930 . S
H1307 C1299 0.929 . S
H1308 C1316 0.929 . S
H1309 C1318 0.930 . S
H1310 C1320 0.930 1_565 S
H1311 C1323 0.929 . S
H1312 C1326 0.930 . S
H1313 C1328 0.960 . S
H1314 C1328 0.960 . S
H1315 C1328 0.949 1_556 S
C1316 H1308 0.929 . S
C1316 C1317 1.377 . S
C1316 C1318 1.384 . S
C1317 C1316 1.377 . S
C1317 C1323 1.390 . S
C1318 H1309 0.930 . S
C1318 C1316 1.384 . S
C1318 C1319 1.372 . S
C1319 C1318 1.372 . S
C1319 C1320 1.400 . S
C1319 C1324 1.490 . S
C1320 H1310 0.930 1_545 S
C1320 C1319 1.400 . S
C1320 C1323 1.386 . S
H1321 C1337 0.930 . S
H1322 C1338 0.931 . S
C1323 H1311 0.929 . S
C1323 C1317 1.390 . S
C1323 C1320 1.386 . S
C1324 C1319 1.490 . S
C1324 C1326 1.395 1_455 S
C1324 C1327 1.403 1_556 S
H1325 C1331 0.930 . S
C1326 H1312 0.930 . S
C1326 C1324 1.395 1_655 S
C1326 C1329 1.403 1_545 S
C1327 C1324 1.403 1_554 S
C1327 C1328 1.524 . S
C1327 C1331 1.400 1_545 S
C1328 H1313 0.960 . S
C1328 H1314 0.960 . S
C1328 H1315 0.949 1_554 S
C1328 C1327 1.524 . S
C1329 C1326 1.403 1_565 S
C1329 C1330 1.392 1_556 S
C1329 C1333 1.495 . S
C1330 C1329 1.392 1_554 S
C1330 C1331 1.385 1_655 S
C1330 C1332 1.478 . S
C1331 H1325 0.930 . S
C1331 C1327 1.400 1_565 S
C1331 C1330 1.385 1_455 S
C1332 C1330 1.478 . S
C1332 C1334 1.381 . S
C1332 C1338 1.383 . S
C1333 C1329 1.495 . S
C1333 H1339 0.959 . S
C1333 H1340 0.961 . S
C1333 H1341 0.993 . S
C1334 C1332 1.381 . S
C1334 C1335 1.394 . S
C1334 H1342 0.930 1_565 S
C1335 C1334 1.394 . S
C1335 C1336 1.383 . S
C1335 H1343 0.961 . S
C1336 C1335 1.383 . S
C1336 C1337 1.377 . S
C1337 H1321 0.930 . S
C1337 C1336 1.377 . S
C1337 C1338 1.379 . S
C1338 H1322 0.931 . S
C1338 C1332 1.383 . S
C1338 C1337 1.379 . S
H1339 C1333 0.959 . S
H1340 C1333 0.961 . S
H1341 C1333 0.993 . S
H1342 C1334 0.930 1_545 S
H1343 C1335 0.961 . S
H1344 C1352 0.929 . S
H1345 C1354 0.930 . S
H1346 C1356 0.930 . S
H1347 C1359 0.929 . S
H1348 C1362 0.930 . S
H1349 C1364 0.960 . S
H1350 C1364 0.960 . S
H1351 C1364 0.960 . S
C1352 H1344 0.929 . S
C1352 C1353 1.377 . S
C1352 C1354 1.384 . S
C1353 C1352 1.377 . S
C1353 C1359 1.390 . S
C1354 H1345 0.930 . S
C1354 C1352 1.384 . S
C1354 C1355 1.372 . S
C1355 C1354 1.372 . S
C1355 C1356 1.400 . S
C1355 C1360 1.490 . S
C1356 H1346 0.930 . S
C1356 C1355 1.400 . S
C1356 C1359 1.386 . S
H1357 C1373 0.930 . S
H1358 C1374 0.931 . S
C1359 H1347 0.929 . S
C1359 C1353 1.390 . S
C1359 C1356 1.386 . S
C1360 C1355 1.490 . S
C1360 C1362 1.395 . S
C1360 C1363 1.403 . S
H1361 C1367 0.930 . S
C1362 H1348 0.930 . S
C1362 C1360 1.395 . S
C1362 C1365 1.403 . S
C1363 C1360 1.403 . S
C1363 C1364 1.524 . S
C1363 C1367 1.400 . S
C1364 H1349 0.960 . S
C1364 H1350 0.960 . S
C1364 H1351 0.960 . S
C1364 C1363 1.524 . S
C1365 C1362 1.403 . S
C1365 C1366 1.392 . S
C1365 C1369 1.495 . S
C1366 C1365 1.392 . S
C1366 C1367 1.385 . S
C1366 C1368 1.478 . S
C1367 H1361 0.930 . S
C1367 C1363 1.400 . S
C1367 C1366 1.385 . S
C1368 C1366 1.478 . S
C1368 C1370 1.381 . S
C1368 C1374 1.383 . S
C1369 C1365 1.495 . S
C1369 H1375 0.959 . S
C1369 H1376 0.961 . S
C1369 H1377 0.960 . S
C1370 C1368 1.381 . S
C1370 C1371 1.394 . S
C1370 H1378 0.930 . S
C1371 C1370 1.394 . S
C1371 C1372 1.383 . S
C1371 H1379 0.929 . S
C1372 C1371 1.383 . S
C1372 C1373 1.377 . S
C1373 H1357 0.930 . S
C1373 C1372 1.377 . S
C1373 C1374 1.379 . S
C1374 H1358 0.931 . S
C1374 C1368 1.383 . S
C1374 C1373 1.379 . S
H1375 C1369 0.959 . S
H1376 C1369 0.961 . S
H1377 C1369 0.960 . S
H1378 C1370 0.930 . S
H1379 C1371 0.929 . S
H1380 C1388 0.929 . S
H1381 C1390 0.930 . S
H1382 C1392 0.930 . S
H1383 C1395 0.929 . S
H1384 C1398 0.930 . S
H1385 C1400 0.960 . S
H1386 C1400 0.960 . S
H1387 C1400 0.960 . S
C1388 H1380 0.929 . S
C1388 C1389 1.377 . S
C1388 C1390 1.384 . S
C1389 C1388 1.377 . S
C1389 C1395 1.390 . S
C1390 H1381 0.930 . S
C1390 C1388 1.384 . S
C1390 C1391 1.372 . S
C1391 C1390 1.372 . S
C1391 C1392 1.400 . S
C1391 C1396 1.490 . S
C1392 H1382 0.930 . S
C1392 C1391 1.400 . S
C1392 C1395 1.386 . S
H1393 C1409 0.930 . S
H1394 C1410 0.931 . S
C1395 H1383 0.929 . S
C1395 C1389 1.390 . S
C1395 C1392 1.386 . S
C1396 C1391 1.490 . S
C1396 C1398 1.395 . S
C1396 C1399 1.403 . S
H1397 C1403 0.930 . S
C1398 H1384 0.930 . S
C1398 C1396 1.395 . S
C1398 C1401 1.403 . S
C1399 C1396 1.403 . S
C1399 C1400 1.524 . S
C1399 C1403 1.400 . S
C1400 H1385 0.960 . S
C1400 H1386 0.960 . S
C1400 H1387 0.960 . S
C1400 C1399 1.524 . S
C1401 C1398 1.403 . S
C1401 C1402 1.392 . S
C1401 C1405 1.495 . S
C1402 C1401 1.392 . S
C1402 C1403 1.385 . S
C1402 C1404 1.478 . S
C1403 H1397 0.930 . S
C1403 C1399 1.400 . S
C1403 C1402 1.385 . S
C1404 C1402 1.478 . S
C1404 C1406 1.381 . S
C1404 C1410 1.383 . S
C1405 C1401 1.495 . S
C1405 H1411 0.959 . S
C1405 H1412 0.961 . S
C1405 H1413 0.960 . S
C1406 C1404 1.381 . S
C1406 C1407 1.394 . S
C1406 H1414 0.930 . S
C1407 C1406 1.394 . S
C1407 C1408 1.383 . S
C1407 H1415 0.929 . S
C1408 C1407 1.383 . S
C1408 C1409 1.377 . S
C1409 H1393 0.930 . S
C1409 C1408 1.377 . S
C1409 C1410 1.379 . S
C1410 H1394 0.931 . S
C1410 C1404 1.383 . S
C1410 C1409 1.379 . S
H1411 C1405 0.959 . S
H1412 C1405 0.961 . S
H1413 C1405 0.960 . S
H1414 C1406 0.930 . S
H1415 C1407 0.929 . S
H1416 C1424 0.929 . S
H1417 C1426 0.930 . S
H1418 C1428 0.930 . S
H1419 C1431 0.929 . S
H1420 C1434 0.930 . S
H1421 C1436 0.960 . S
H1422 C1436 0.960 . S
H1423 C1436 0.960 . S
C1424 H1416 0.929 . S
C1424 C1425 1.377 . S
C1424 C1426 1.384 . S
C1425 C1424 1.377 . S
C1425 C1431 1.390 . S
C1426 H1417 0.930 . S
C1426 C1424 1.384 . S
C1426 C1427 1.372 . S
C1427 C1426 1.372 . S
C1427 C1428 1.400 . S
C1427 C1432 1.490 . S
C1428 H1418 0.930 . S
C1428 C1427 1.400 . S
C1428 C1431 1.386 . S
H1429 C1445 0.930 . S
H1430 C1446 0.931 . S
C1431 H1419 0.929 . S
C1431 C1425 1.390 . S
C1431 C1428 1.386 . S
C1432 C1427 1.490 . S
C1432 C1434 1.395 . S
C1432 C1435 1.403 . S
H1433 C1439 0.930 . S
C1434 H1420 0.930 . S
C1434 C1432 1.395 . S
C1434 C1437 1.403 . S
C1435 C1432 1.403 . S
C1435 C1436 1.524 . S
C1435 C1439 1.400 . S
C1436 H1421 0.960 . S
C1436 H1422 0.960 . S
C1436 H1423 0.960 . S
C1436 C1435 1.524 . S
C1437 C1434 1.403 . S
C1437 C1438 1.392 . S
C1437 C1441 1.495 . S
C1438 C1437 1.392 . S
C1438 C1439 1.385 . S
C1438 C1440 1.478 . S
C1439 H1433 0.930 . S
C1439 C1435 1.400 . S
C1439 C1438 1.385 . S
C1440 C1438 1.478 . S
C1440 C1442 1.381 . S
C1440 C1446 1.383 . S
C1441 C1437 1.495 . S
C1441 H1447 0.959 . S
C1441 H1448 0.961 . S
C1441 H1449 0.960 . S
C1442 C1440 1.381 . S
C1442 C1443 1.394 . S
C1442 H1450 0.930 . S
C1443 C1442 1.394 . S
C1443 C1444 1.383 . S
C1443 H1451 0.929 . S
C1444 C1443 1.383 . S
C1444 C1445 1.377 . S
C1445 H1429 0.930 . S
C1445 C1444 1.377 . S
C1445 C1446 1.379 . S
C1446 H1430 0.931 . S
C1446 C1440 1.383 . S
C1446 C1445 1.379 . S
H1447 C1441 0.959 . S
H1448 C1441 0.961 . S
H1449 C1441 0.960 . S
H1450 C1442 0.930 . S
H1451 C1443 0.929 . S
H1452 C1460 0.929 . S
H1453 C1462 0.930 . S
H1454 C1464 0.930 . S
H1455 C1467 0.929 . S
H1456 C1470 0.930 . S
H1457 C1472 0.960 . S
H1458 C1472 0.960 . S
H1459 C1472 0.960 . S
C1460 H1452 0.929 . S
C1460 C1461 1.377 . S
C1460 C1462 1.384 . S
C1461 C1460 1.377 . S
C1461 C1467 1.390 . S
C1462 H1453 0.930 . S
C1462 C1460 1.384 . S
C1462 C1463 1.372 . S
C1463 C1462 1.372 . S
C1463 C1464 1.400 . S
C1463 C1468 1.490 . S
C1464 H1454 0.930 . S
C1464 C1463 1.400 . S
C1464 C1467 1.386 . S
H1465 C1481 0.930 . S
H1466 C1482 0.931 . S
C1467 H1455 0.929 . S
C1467 C1461 1.390 . S
C1467 C1464 1.386 . S
C1468 C1463 1.490 . S
C1468 C1470 1.395 . S
C1468 C1471 1.403 . S
H1469 C1475 0.930 . S
C1470 H1456 0.930 . S
C1470 C1468 1.395 . S
C1470 C1473 1.403 . S
C1471 C1468 1.403 . S
C1471 C1472 1.524 . S
C1471 C1475 1.400 . S
C1472 H1457 0.960 . S
C1472 H1458 0.960 . S
C1472 H1459 0.960 . S
C1472 C1471 1.524 . S
C1473 C1470 1.403 . S
C1473 C1474 1.392 . S
C1473 C1477 1.495 . S
C1474 C1473 1.392 . S
C1474 C1475 1.385 . S
C1474 C1476 1.478 . S
C1475 H1469 0.930 . S
C1475 C1471 1.400 . S
C1475 C1474 1.385 . S
C1476 C1474 1.478 . S
C1476 C1478 1.381 . S
C1476 C1482 1.383 . S
C1477 C1473 1.495 . S
C1477 H1483 0.959 . S
C1477 H1484 0.961 . S
C1477 H1485 0.960 . S
C1478 C1476 1.381 . S
C1478 C1479 1.394 . S
C1478 H1486 0.930 . S
C1479 C1478 1.394 . S
C1479 C1480 1.383 . S
C1479 H1487 0.929 . S
C1480 C1479 1.383 . S
C1480 C1481 1.377 . S
C1481 H1465 0.930 . S
C1481 C1480 1.377 . S
C1481 C1482 1.379 . S
C1482 H1466 0.931 . S
C1482 C1476 1.383 . S
C1482 C1481 1.379 . S
H1483 C1477 0.959 . S
H1484 C1477 0.961 . S
H1485 C1477 0.960 . S
H1486 C1478 0.930 . S
H1487 C1479 0.929 . S
H1488 C1496 0.929 . S
H1489 C1498 0.930 . S
H1490 C1500 0.930 . S
H1491 C1503 0.929 . S
H1492 C1506 0.927 1_556 S
H1493 C1508 0.960 . S
H1494 C1508 0.960 . S
H1495 C1508 0.960 . S
C1496 H1488 0.929 . S
C1496 C1497 1.377 . S
C1496 C1498 1.384 . S
C1497 C1496 1.377 . S
C1497 C1503 1.390 . S
C1498 H1489 0.930 . S
C1498 C1496 1.384 . S
C1498 C1499 1.372 . S
C1499 C1498 1.372 . S
C1499 C1500 1.400 . S
C1499 C1504 1.490 . S
C1500 H1490 0.930 . S
C1500 C1499 1.400 . S
C1500 C1503 1.386 . S
H1501 C1517 0.930 . S
H1502 C1518 0.931 . S
C1503 H1491 0.929 . S
C1503 C1497 1.390 . S
C1503 C1500 1.386 . S
C1504 C1499 1.490 . S
C1504 C1506 1.391 1_556 S
C1504 C1507 1.403 . S
H1505 C1511 0.930 . S
C1506 H1492 0.927 1_554 S
C1506 C1504 1.391 1_554 S
C1506 C1509 1.408 . S
C1507 C1504 1.403 . S
C1507 C1508 1.524 . S
C1507 C1511 1.400 1_556 S
C1508 H1493 0.960 . S
C1508 H1494 0.960 . S
C1508 H1495 0.960 . S
C1508 C1507 1.524 . S
C1509 C1506 1.408 . S
C1509 C1510 1.392 . S
C1509 C1513 1.495 . S
C1510 C1509 1.392 . S
C1510 C1511 1.385 . S
C1510 C1512 1.478 . S
C1511 H1505 0.930 . S
C1511 C1507 1.400 1_554 S
C1511 C1510 1.385 . S
C1512 C1510 1.478 . S
C1512 C1514 1.381 . S
C1512 C1518 1.383 . S
C1513 C1509 1.495 . S
C1513 H1519 0.959 . S
C1513 H1520 0.961 . S
C1513 H1521 0.960 . S
C1514 C1512 1.381 . S
C1514 C1515 1.394 . S
C1514 H1522 0.930 . S
C1515 C1514 1.394 . S
C1515 C1516 1.383 . S
C1515 H1523 0.929 . S
C1516 C1515 1.383 . S
C1516 C1517 1.377 . S
C1517 H1501 0.930 . S
C1517 C1516 1.377 . S
C1517 C1518 1.379 . S
C1518 H1502 0.931 . S
C1518 C1512 1.383 . S
C1518 C1517 1.379 . S
H1519 C1513 0.959 . S
H1520 C1513 0.961 . S
H1521 C1513 0.960 . S
H1522 C1514 0.930 . S
H1523 C1515 0.929 . S
H1524 C1532 0.929 . S
H1525 C1534 0.930 . S
H1526 C1536 0.930 . S
H1527 C1539 0.929 . S
H1528 C1542 0.930 . S
H1529 C1544 0.960 . S
H1530 C1544 0.960 . S
H1531 C1544 0.960 . S
C1532 H1524 0.929 . S
C1532 C1533 1.377 . S
C1532 C1534 1.384 . S
C1533 C1532 1.377 . S
C1533 C1539 1.390 . S
C1534 H1525 0.930 . S
C1534 C1532 1.384 . S
C1534 C1535 1.372 . S
C1535 C1534 1.372 . S
C1535 C1536 1.400 . S
C1535 C1540 1.490 . S
C1536 H1526 0.930 . S
C1536 C1535 1.400 . S
C1536 C1539 1.386 . S
H1537 C1553 0.930 . S
H1538 C1554 0.931 . S
C1539 H1527 0.929 . S
C1539 C1533 1.390 . S
C1539 C1536 1.386 . S
C1540 C1535 1.490 . S
C1540 C1542 1.395 1_655 S
C1540 C1543 1.403 . S
H1541 C1547 0.930 . S
C1542 H1528 0.930 . S
C1542 C1540 1.395 1_455 S
C1542 C1545 1.403 . S
C1543 C1540 1.403 . S
C1543 C1544 1.524 . S
C1543 C1547 1.400 . S
C1544 H1529 0.960 . S
C1544 H1530 0.960 . S
C1544 H1531 0.960 . S
C1544 C1543 1.524 . S
C1545 C1542 1.403 . S
C1545 C1546 1.392 . S
C1545 C1549 1.495 . S
C1546 C1545 1.392 . S
C1546 C1547 1.385 1_455 S
C1546 C1548 1.478 . S
C1547 H1541 0.930 . S
C1547 C1543 1.400 . S
C1547 C1546 1.385 1_655 S
C1548 C1546 1.478 . S
C1548 C1550 1.381 . S
C1548 C1554 1.383 . S
C1549 C1545 1.495 . S
C1549 H1555 0.959 . S
C1549 H1556 0.961 . S
C1549 H1557 0.960 . S
C1550 C1548 1.381 . S
C1550 C1551 1.394 . S
C1550 H1558 0.930 . S
C1551 C1550 1.394 . S
C1551 C1552 1.383 . S
C1551 H1559 0.929 . S
C1552 C1551 1.383 . S
C1552 C1553 1.377 . S
C1553 H1537 0.930 . S
C1553 C1552 1.377 . S
C1553 C1554 1.379 . S
C1554 H1538 0.931 . S
C1554 C1548 1.383 . S
C1554 C1553 1.379 . S
H1555 C1549 0.959 . S
H1556 C1549 0.961 . S
H1557 C1549 0.960 . S
H1558 C1550 0.930 . S
H1559 C1551 0.929 . S
H1560 C1568 0.929 . S
H1561 C1570 0.930 . S
H1562 C1572 0.930 . S
H1563 C1575 0.929 . S
H1564 C1578 0.930 . S
H1565 C1580 0.960 . S
H1566 C1580 0.960 . S
H1567 C1580 0.960 . S
C1568 H1560 0.929 . S
C1568 C1569 1.377 . S
C1568 C1570 1.384 . S
C1569 C1568 1.377 . S
C1569 C1575 1.390 . S
C1570 H1561 0.930 . S
C1570 C1568 1.384 . S
C1570 C1571 1.372 . S
C1571 C1570 1.372 . S
C1571 C1572 1.400 . S
C1571 C1576 1.490 . S
C1572 H1562 0.930 . S
C1572 C1571 1.400 . S
C1572 C1575 1.386 . S
H1573 C1589 0.930 . S
H1574 C1590 0.931 . S
C1575 H1563 0.929 . S
C1575 C1569 1.390 . S
C1575 C1572 1.386 . S
C1576 C1571 1.490 . S
C1576 C1578 1.395 1_455 S
C1576 C1579 1.403 1_554 S
H1577 C1583 0.930 . S
C1578 H1564 0.930 . S
C1578 C1576 1.395 1_655 S
C1578 C1581 1.403 . S
C1579 C1576 1.403 1_556 S
C1579 C1580 1.524 . S
C1579 C1583 1.400 . S
C1580 H1565 0.960 . S
C1580 H1566 0.960 . S
C1580 H1567 0.960 . S
C1580 C1579 1.524 . S
C1581 C1578 1.403 . S
C1581 C1582 1.392 1_554 S
C1581 C1585 1.495 . S
C1582 C1581 1.392 1_556 S
C1582 C1583 1.385 1_655 S
C1582 C1584 1.478 . S
C1583 H1577 0.930 . S
C1583 C1579 1.400 . S
C1583 C1582 1.385 1_455 S
C1584 C1582 1.478 . S
C1584 C1586 1.381 . S
C1584 C1590 1.383 . S
C1585 C1581 1.495 . S
C1585 H1591 0.959 . S
C1585 H1592 0.961 . S
C1585 H1593 0.960 . S
C1586 C1584 1.381 . S
C1586 C1587 1.394 . S
C1586 H1594 0.930 . S
C1587 C1586 1.394 . S
C1587 C1588 1.383 . S
C1587 H1595 0.929 . S
C1588 C1587 1.383 . S
C1588 C1589 1.377 . S
C1589 H1573 0.930 . S
C1589 C1588 1.377 . S
C1589 C1590 1.379 . S
C1590 H1574 0.931 . S
C1590 C1584 1.383 . S
C1590 C1589 1.379 . S
H1591 C1585 0.959 . S
H1592 C1585 0.961 . S
H1593 C1585 0.960 . S
H1594 C1586 0.930 . S
H1595 C1587 0.929 . S
H1596 C1604 0.929 . S
H1597 C1606 0.930 . S
H1598 C1608 0.930 . S
H1599 C1611 0.929 . S
H1600 C1614 0.930 . S
H1601 C1616 0.960 . S
H1602 C1616 0.960 . S
H1603 C1616 0.960 . S
C1604 H1596 0.929 . S
C1604 C1605 1.377 . S
C1604 C1606 1.384 . S
C1605 C1604 1.377 . S
C1605 C1611 1.390 . S
C1606 H1597 0.930 . S
C1606 C1604 1.384 . S
C1606 C1607 1.372 . S
C1607 C1606 1.372 . S
C1607 C1608 1.400 . S
C1607 C1612 1.490 . S
C1608 H1598 0.930 . S
C1608 C1607 1.400 . S
C1608 C1611 1.386 . S
H1609 C1625 0.930 . S
H1610 C1626 0.931 . S
C1611 H1599 0.929 . S
C1611 C1605 1.390 . S
C1611 C1608 1.386 . S
C1612 C1607 1.490 . S
C1612 C1614 1.395 . S
C1612 C1615 1.403 . S
H1613 C1619 0.930 . S
C1614 H1600 0.930 . S
C1614 C1612 1.395 . S
C1614 C1617 1.403 . S
C1615 C1612 1.403 . S
C1615 C1616 1.524 . S
C1615 C1619 1.400 . S
C1616 H1601 0.960 . S
C1616 H1602 0.960 . S
C1616 H1603 0.960 . S
C1616 C1615 1.524 . S
C1617 C1614 1.403 . S
C1617 C1618 1.392 . S
C1617 C1621 1.495 . S
C1618 C1617 1.392 . S
C1618 C1619 1.385 . S
C1618 C1620 1.478 . S
C1619 H1613 0.930 . S
C1619 C1615 1.400 . S
C1619 C1618 1.385 . S
C1620 C1618 1.478 . S
C1620 C1622 1.381 . S
C1620 C1626 1.383 . S
C1621 C1617 1.495 . S
C1621 H1627 0.959 . S
C1621 H1628 0.961 . S
C1621 H1629 0.960 . S
C1622 C1620 1.381 . S
C1622 C1623 1.394 . S
C1622 H1630 0.930 . S
C1623 C1622 1.394 . S
C1623 C1624 1.383 . S
C1623 H1631 0.929 . S
C1624 C1623 1.383 . S
C1624 C1625 1.377 . S
C1625 H1609 0.930 . S
C1625 C1624 1.377 . S
C1625 C1626 1.379 . S
C1626 H1610 0.931 . S
C1626 C1620 1.383 . S
C1626 C1625 1.379 . S
H1627 C1621 0.959 . S
H1628 C1621 0.961 . S
H1629 C1621 0.960 . S
H1630 C1622 0.930 . S
H1631 C1623 0.929 . S
H1632 C1640 0.929 . S
H1633 C1642 0.930 . S
H1634 C1644 0.930 . S
H1635 C1647 0.929 . S
H1636 C1650 0.930 . S
H1637 C1652 0.960 . S
H1638 C1652 0.960 . S
H1639 C1652 0.960 . S
C1640 H1632 0.929 . S
C1640 C1641 1.377 . S
C1640 C1642 1.384 . S
C1641 C1640 1.377 . S
C1641 C1647 1.390 . S
C1642 H1633 0.930 . S
C1642 C1640 1.384 . S
C1642 C1643 1.372 . S
C1643 C1642 1.372 . S
C1643 C1644 1.400 . S
C1643 C1648 1.490 . S
C1644 H1634 0.930 . S
C1644 C1643 1.400 . S
C1644 C1647 1.386 . S
H1645 C1661 0.930 . S
H1646 C1662 0.931 . S
C1647 H1635 0.929 . S
C1647 C1641 1.390 . S
C1647 C1644 1.386 . S
C1648 C1643 1.490 . S
C1648 C1650 1.395 . S
C1648 C1651 1.403 . S
H1649 C1655 0.930 . S
C1650 H1636 0.930 . S
C1650 C1648 1.395 . S
C1650 C1653 1.403 . S
C1651 C1648 1.403 . S
C1651 C1652 1.524 . S
C1651 C1655 1.400 . S
C1652 H1637 0.960 . S
C1652 H1638 0.960 . S
C1652 H1639 0.960 . S
C1652 C1651 1.524 . S
C1653 C1650 1.403 . S
C1653 C1654 1.392 . S
C1653 C1657 1.495 . S
C1654 C1653 1.392 . S
C1654 C1655 1.385 . S
C1654 C1656 1.478 . S
C1655 H1649 0.930 . S
C1655 C1651 1.400 . S
C1655 C1654 1.385 . S
C1656 C1654 1.478 . S
C1656 C1658 1.381 . S
C1656 C1662 1.383 . S
C1657 C1653 1.495 . S
C1657 H1663 0.959 . S
C1657 H1664 0.961 . S
C1657 H1665 0.960 . S
C1658 C1656 1.381 . S
C1658 C1659 1.394 . S
C1658 H1666 0.930 . S
C1659 C1658 1.394 . S
C1659 C1660 1.383 . S
C1659 H1667 0.929 . S
C1660 C1659 1.383 . S
C1660 C1661 1.377 . S
C1661 H1645 0.930 . S
C1661 C1660 1.377 . S
C1661 C1662 1.379 . S
C1662 H1646 0.931 . S
C1662 C1656 1.383 . S
C1662 C1661 1.379 . S
H1663 C1657 0.959 . S
H1664 C1657 0.961 . S
H1665 C1657 0.960 . S
H1666 C1658 0.930 . S
H1667 C1659 0.929 . S
H1668 C1676 0.929 . S
H1669 C1678 0.930 . S
H1670 C1680 0.930 . S
H1671 C1683 0.929 1_655 S
H1672 C1686 0.930 . S
H1673 C1688 0.960 . S
H1674 C1688 0.960 . S
H1675 C1688 0.960 . S
C1676 H1668 0.929 . S
C1676 C1677 1.377 1_455 S
C1676 C1678 1.384 . S
C1677 C1676 1.377 1_655 S
C1677 C1683 1.390 1_655 S
C1678 H1669 0.930 . S
C1678 C1676 1.384 . S
C1678 C1679 1.372 . S
C1679 C1678 1.372 . S
C1679 C1680 1.400 . S
C1679 C1684 1.490 . S
C1680 H1670 0.930 . S
C1680 C1679 1.400 . S
C1680 C1683 1.386 . S
H1681 C1697 0.930 . S
H1682 C1698 0.931 . S
C1683 H1671 0.929 1_455 S
C1683 C1677 1.390 1_455 S
C1683 C1680 1.386 . S
C1684 C1679 1.490 . S
C1684 C1686 1.395 . S
C1684 C1687 1.403 . S
H1685 C1691 0.930 . S
C1686 H1672 0.930 . S
C1686 C1684 1.395 . S
C1686 C1689 1.403 . S
C1687 C1684 1.403 . S
C1687 C1688 1.524 . S
C1687 C1691 1.400 . S
C1688 H1673 0.960 . S
C1688 H1674 0.960 . S
C1688 H1675 0.960 . S
C1688 C1687 1.524 . S
C1689 C1686 1.403 . S
C1689 C1690 1.392 . S
C1689 C1693 1.495 . S
C1690 C1689 1.392 . S
C1690 C1691 1.385 . S
C1690 C1692 1.478 . S
C1691 H1685 0.930 . S
C1691 C1687 1.400 . S
C1691 C1690 1.385 . S
C1692 C1690 1.478 . S
C1692 C1694 1.381 . S
C1692 C1698 1.383 . S
C1693 C1689 1.495 . S
C1693 H1699 0.959 . S
C1693 H1700 0.961 . S
C1693 H1701 0.960 . S
C1694 C1692 1.381 . S
C1694 C1695 1.394 . S
C1694 H1702 0.930 . S
C1695 C1694 1.394 . S
C1695 C1696 1.383 . S
C1695 H1703 0.929 . S
C1696 C1695 1.383 . S
C1696 C1697 1.377 . S
C1697 H1681 0.930 . S
C1697 C1696 1.377 . S
C1697 C1698 1.379 . S
C1698 H1682 0.931 . S
C1698 C1692 1.383 . S
C1698 C1697 1.379 . S
H1699 C1693 0.959 . S
H1700 C1693 0.961 . S
H1701 C1693 0.960 . S
H1702 C1694 0.930 . S
H1703 C1695 0.929 . S
H1704 C1712 0.929 . S
H1705 C1714 0.930 . S
H1706 C1716 0.930 . S
H1707 C1719 0.929 . S
H1708 C1722 0.930 . S
H1709 C1724 0.960 . S
H1710 C1724 0.960 . S
H1711 C1724 0.960 . S
C1712 H1704 0.929 . S
C1712 C1713 1.377 . S
C1712 C1714 1.384 . S
C1713 C1712 1.377 . S
C1713 C1719 1.390 . S
C1714 H1705 0.930 . S
C1714 C1712 1.384 . S
C1714 C1715 1.372 . S
C1715 C1714 1.372 . S
C1715 C1716 1.400 . S
C1715 C1720 1.490 . S
C1716 H1706 0.930 . S
C1716 C1715 1.400 . S
C1716 C1719 1.386 . S
H1717 C1733 0.930 . S
H1718 C1734 0.931 . S
C1719 H1707 0.929 . S
C1719 C1713 1.390 . S
C1719 C1716 1.386 . S
C1720 C1715 1.490 . S
C1720 C1722 1.395 . S
C1720 C1723 1.403 . S
H1721 C1727 0.930 . S
C1722 H1708 0.930 . S
C1722 C1720 1.395 . S
C1722 C1725 1.403 . S
C1723 C1720 1.403 . S
C1723 C1724 1.524 . S
C1723 C1727 1.400 . S
C1724 H1709 0.960 . S
C1724 H1710 0.960 . S
C1724 H1711 0.960 . S
C1724 C1723 1.524 . S
C1725 C1722 1.403 . S
C1725 C1726 1.392 . S
C1725 C1729 1.495 . S
C1726 C1725 1.392 . S
C1726 C1727 1.385 . S
C1726 C1728 1.478 . S
C1727 H1721 0.930 . S
C1727 C1723 1.400 . S
C1727 C1726 1.385 . S
C1728 C1726 1.478 . S
C1728 C1730 1.381 . S
C1728 C1734 1.383 . S
C1729 C1725 1.495 . S
C1729 H1735 0.959 . S
C1729 H1736 0.961 . S
C1729 H1737 0.960 . S
C1730 C1728 1.381 . S
C1730 C1731 1.394 . S
C1730 H1738 0.930 . S
C1731 C1730 1.394 . S
C1731 C1732 1.383 . S
C1731 H1739 0.929 . S
C1732 C1731 1.383 . S
C1732 C1733 1.377 . S
C1733 H1717 0.930 . S
C1733 C1732 1.377 . S
C1733 C1734 1.379 . S
C1734 H1718 0.931 . S
C1734 C1728 1.383 . S
C1734 C1733 1.379 . S
H1735 C1729 0.959 . S
H1736 C1729 0.961 . S
H1737 C1729 0.960 . S
H1738 C1730 0.930 . S
H1739 C1731 0.929 . S
H1740 C1748 0.929 . S
H1741 C1750 0.930 . S
H1742 C1752 0.930 . S
H1743 C1755 0.929 . S
H1744 C1758 0.930 . S
H1745 C1760 0.960 . S
H1746 C1760 0.960 . S
H1747 C1760 0.960 . S
C1748 H1740 0.929 . S
C1748 C1749 1.377 . S
C1748 C1750 1.384 . S
C1749 C1748 1.377 . S
C1749 C1755 1.390 . S
C1750 H1741 0.930 . S
C1750 C1748 1.384 . S
C1750 C1751 1.372 . S
C1751 C1750 1.372 . S
C1751 C1752 1.400 . S
C1751 C1756 1.490 . S
C1752 H1742 0.930 . S
C1752 C1751 1.400 . S
C1752 C1755 1.386 . S
H1753 C1769 0.930 . S
H1754 C1770 0.931 . S
C1755 H1743 0.929 . S
C1755 C1749 1.390 . S
C1755 C1752 1.386 . S
C1756 C1751 1.490 . S
C1756 C1758 1.395 . S
C1756 C1759 1.403 . S
H1757 C1763 0.930 . S
C1758 H1744 0.930 . S
C1758 C1756 1.395 . S
C1758 C1761 1.403 . S
C1759 C1756 1.403 . S
C1759 C1760 1.524 . S
C1759 C1763 1.400 . S
C1760 H1745 0.960 . S
C1760 H1746 0.960 . S
C1760 H1747 0.960 . S
C1760 C1759 1.524 . S
C1761 C1758 1.403 . S
C1761 C1762 1.392 . S
C1761 C1765 1.495 . S
C1762 C1761 1.392 . S
C1762 C1763 1.385 . S
C1762 C1764 1.478 . S
C1763 H1757 0.930 . S
C1763 C1759 1.400 . S
C1763 C1762 1.385 . S
C1764 C1762 1.478 . S
C1764 C1766 1.381 . S
C1764 C1770 1.383 . S
C1765 C1761 1.495 . S
C1765 H1771 0.959 . S
C1765 H1772 0.961 . S
C1765 H1773 0.960 . S
C1766 C1764 1.381 . S
C1766 C1767 1.394 . S
C1766 H1774 0.930 . S
C1767 C1766 1.394 . S
C1767 C1768 1.383 . S
C1767 H1775 0.929 . S
C1768 C1767 1.383 . S
C1768 C1769 1.377 . S
C1769 H1753 0.930 . S
C1769 C1768 1.377 . S
C1769 C1770 1.379 . S
C1770 H1754 0.931 . S
C1770 C1764 1.383 . S
C1770 C1769 1.379 . S
H1771 C1765 0.959 . S
H1772 C1765 0.961 . S
H1773 C1765 0.960 . S
H1774 C1766 0.930 . S
H1775 C1767 0.929 . S
H1776 C1784 0.929 . S
H1777 C1786 0.930 . S
H1778 C1788 0.930 . S
H1779 C1791 0.929 . S
H1780 C1794 0.930 . S
H1781 C1796 0.960 . S
H1782 C1796 0.960 . S
H1783 C1796 0.960 . S
C1784 H1776 0.929 . S
C1784 C1785 1.377 . S
C1784 C1786 1.384 . S
C1785 C1784 1.377 . S
C1785 C1791 1.390 . S
C1786 H1777 0.930 . S
C1786 C1784 1.384 . S
C1786 C1787 1.372 . S
C1787 C1786 1.372 . S
C1787 C1788 1.400 . S
C1787 C1792 1.490 . S
C1788 H1778 0.930 . S
C1788 C1787 1.400 . S
C1788 C1791 1.386 . S
H1789 C1805 0.930 . S
H1790 C1806 0.931 . S
C1791 H1779 0.929 . S
C1791 C1785 1.390 . S
C1791 C1788 1.386 . S
C1792 C1787 1.490 . S
C1792 C1794 1.395 . S
C1792 C1795 1.403 . S
H1793 C1799 0.930 . S
C1794 H1780 0.930 . S
C1794 C1792 1.395 . S
C1794 C1797 1.403 . S
C1795 C1792 1.403 . S
C1795 C1796 1.524 . S
C1795 C1799 1.400 . S
C1796 H1781 0.960 . S
C1796 H1782 0.960 . S
C1796 H1783 0.960 . S
C1796 C1795 1.524 . S
C1797 C1794 1.403 . S
C1797 C1798 1.392 . S
C1797 C1801 1.495 . S
C1798 C1797 1.392 . S
C1798 C1799 1.385 . S
C1798 C1800 1.478 . S
C1799 H1793 0.930 . S
C1799 C1795 1.400 . S
C1799 C1798 1.385 . S
C1800 C1798 1.478 . S
C1800 C1802 1.381 . S
C1800 C1806 1.383 . S
C1801 C1797 1.495 . S
C1801 H1807 0.959 . S
C1801 H1808 0.961 . S
C1801 H1809 0.960 . S
C1802 C1800 1.381 . S
C1802 C1803 1.394 . S
C1802 H1810 0.930 . S
C1803 C1802 1.394 . S
C1803 C1804 1.383 . S
C1803 H1811 0.929 . S
C1804 C1803 1.383 . S
C1804 C1805 1.377 . S
C1805 H1789 0.930 . S
C1805 C1804 1.377 . S
C1805 C1806 1.379 . S
C1806 H1790 0.931 . S
C1806 C1800 1.383 . S
C1806 C1805 1.379 . S
H1807 C1801 0.959 . S
H1808 C1801 0.961 . S
H1809 C1801 0.960 . S
H1810 C1802 0.930 . S
H1811 C1803 0.929 . S
H1812 C1820 0.929 . S
H1813 C1822 0.930 . S
H1814 C1824 0.930 . S
H1815 C1827 0.929 . S
H1816 C1830 0.930 . S
H1817 C1832 0.960 . S
H1818 C1832 0.960 . S
H1819 C1832 0.960 . S
C1820 H1812 0.929 . S
C1820 C1821 1.377 . S
C1820 C1822 1.384 . S
C1821 C1820 1.377 . S
C1821 C1827 1.390 . S
C1822 H1813 0.930 . S
C1822 C1820 1.384 . S
C1822 C1823 1.372 . S
C1823 C1822 1.372 . S
C1823 C1824 1.400 . S
C1823 C1828 1.490 . S
C1824 H1814 0.930 . S
C1824 C1823 1.400 . S
C1824 C1827 1.386 . S
H1825 C1841 0.930 . S
H1826 C1842 0.931 . S
C1827 H1815 0.929 . S
C1827 C1821 1.390 . S
C1827 C1824 1.386 . S
C1828 C1823 1.490 . S
C1828 C1830 1.395 . S
C1828 C1831 1.403 . S
H1829 C1835 0.930 . S
C1830 H1816 0.930 . S
C1830 C1828 1.395 . S
C1830 C1833 1.403 . S
C1831 C1828 1.403 . S
C1831 C1832 1.524 . S
C1831 C1835 1.400 . S
C1832 H1817 0.960 . S
C1832 H1818 0.960 . S
C1832 H1819 0.960 . S
C1832 C1831 1.524 . S
C1833 C1830 1.403 . S
C1833 C1834 1.392 . S
C1833 C1837 1.495 . S
C1834 C1833 1.392 . S
C1834 C1835 1.385 . S
C1834 C1836 1.478 . S
C1835 H1829 0.930 . S
C1835 C1831 1.400 . S
C1835 C1834 1.385 . S
C1836 C1834 1.478 . S
C1836 C1838 1.381 . S
C1836 C1842 1.383 . S
C1837 C1833 1.495 . S
C1837 H1843 0.959 . S
C1837 H1844 0.961 . S
C1837 H1845 0.960 . S
C1838 C1836 1.381 . S
C1838 C1839 1.394 . S
C1838 H1846 0.930 . S
C1839 C1838 1.394 . S
C1839 C1840 1.383 . S
C1839 H1847 0.929 . S
C1840 C1839 1.383 . S
C1840 C1841 1.377 . S
C1841 H1825 0.930 . S
C1841 C1840 1.377 . S
C1841 C1842 1.379 . S
C1842 H1826 0.931 . S
C1842 C1836 1.383 . S
C1842 C1841 1.379 . S
H1843 C1837 0.959 . S
H1844 C1837 0.961 . S
H1845 C1837 0.960 . S
H1846 C1838 0.930 . S
H1847 C1839 0.929 . S
H1848 C1856 0.929 . S
H1849 C1858 0.930 . S
H1850 C1860 0.930 . S
H1851 C1863 0.929 . S
H1852 C1866 0.930 . S
H1853 C1868 0.960 . S
H1854 C1868 0.960 . S
H1855 C1868 0.960 . S
C1856 H1848 0.929 . S
C1856 C1857 1.377 . S
C1856 C1858 1.384 . S
C1857 C1856 1.377 . S
C1857 C1863 1.390 . S
C1858 H1849 0.930 . S
C1858 C1856 1.384 . S
C1858 C1859 1.372 . S
C1859 C1858 1.372 . S
C1859 C1860 1.400 . S
C1859 C1864 1.490 . S
C1860 H1850 0.930 . S
C1860 C1859 1.400 . S
C1860 C1863 1.386 . S
H1861 C1877 0.930 . S
H1862 C1878 0.931 . S
C1863 H1851 0.929 . S
C1863 C1857 1.390 . S
C1863 C1860 1.386 . S
C1864 C1859 1.490 . S
C1864 C1866 1.395 . S
C1864 C1867 1.403 . S
H1865 C1871 0.930 . S
C1866 H1852 0.930 . S
C1866 C1864 1.395 . S
C1866 C1869 1.403 . S
C1867 C1864 1.403 . S
C1867 C1868 1.524 . S
C1867 C1871 1.400 . S
C1868 H1853 0.960 . S
C1868 H1854 0.960 . S
C1868 H1855 0.960 . S
C1868 C1867 1.524 . S
C1869 C1866 1.403 . S
C1869 C1870 1.392 . S
C1869 C1873 1.495 . S
C1870 C1869 1.392 . S
C1870 C1871 1.385 . S
C1870 C1872 1.478 . S
C1871 H1865 0.930 . S
C1871 C1867 1.400 . S
C1871 C1870 1.385 . S
C1872 C1870 1.478 . S
C1872 C1874 1.381 . S
C1872 C1878 1.383 . S
C1873 C1869 1.495 . S
C1873 H1879 0.959 . S
C1873 H1880 0.961 . S
C1873 H1881 0.960 . S
C1874 C1872 1.381 . S
C1874 C1875 1.394 . S
C1874 H1882 0.930 . S
C1875 C1874 1.394 . S
C1875 C1876 1.383 . S
C1875 H1883 0.929 . S
C1876 C1875 1.383 . S
C1876 C1877 1.377 . S
C1877 H1861 0.930 . S
C1877 C1876 1.377 . S
C1877 C1878 1.379 . S
C1878 H1862 0.931 . S
C1878 C1872 1.383 . S
C1878 C1877 1.379 . S
H1879 C1873 0.959 . S
H1880 C1873 0.961 . S
H1881 C1873 0.960 . S
H1882 C1874 0.930 . S
H1883 C1875 0.929 . S
H1884 C1892 0.929 . S
H1885 C1894 0.930 . S
H1886 C1896 0.930 . S
H1887 C1899 0.929 . S
H1888 C1902 0.930 . S
H1889 C1904 0.960 . S
H1890 C1904 0.960 . S
H1891 C1904 0.960 . S
C1892 H1884 0.929 . S
C1892 C1893 1.377 . S
C1892 C1894 1.384 . S
C1893 C1892 1.377 . S
C1893 C1899 1.390 . S
C1894 H1885 0.930 . S
C1894 C1892 1.384 . S
C1894 C1895 1.372 . S
C1895 C1894 1.372 . S
C1895 C1896 1.400 . S
C1895 C1900 1.490 . S
C1896 H1886 0.930 . S
C1896 C1895 1.400 . S
C1896 C1899 1.386 . S
H1897 C1913 0.930 . S
H1898 C1914 0.931 . S
C1899 H1887 0.929 . S
C1899 C1893 1.390 . S
C1899 C1896 1.386 . S
C1900 C1895 1.490 . S
C1900 C1902 1.395 . S
C1900 C1903 1.403 . S
H1901 C1907 0.930 . S
C1902 H1888 0.930 . S
C1902 C1900 1.395 . S
C1902 C1905 1.403 . S
C1903 C1900 1.403 . S
C1903 C1904 1.524 . S
C1903 C1907 1.400 . S
C1904 H1889 0.960 . S
C1904 H1890 0.960 . S
C1904 H1891 0.960 . S
C1904 C1903 1.524 . S
C1905 C1902 1.403 . S
C1905 C1906 1.392 . S
C1905 C1909 1.495 . S
C1906 C1905 1.392 . S
C1906 C1907 1.385 . S
C1906 C1908 1.478 . S
C1907 H1901 0.930 . S
C1907 C1903 1.400 . S
C1907 C1906 1.385 . S
C1908 C1906 1.478 . S
C1908 C1910 1.381 . S
C1908 C1914 1.383 . S
C1909 C1905 1.495 . S
C1909 H1915 0.959 . S
C1909 H1916 0.961 . S
C1909 H1917 0.960 . S
C1910 C1908 1.381 . S
C1910 C1911 1.394 1_455 S
C1910 H1918 0.930 . S
C1911 C1910 1.394 1_655 S
C1911 C1912 1.383 . S
C1911 H1919 0.929 . S
C1912 C1911 1.383 . S
C1912 C1913 1.377 1_655 S
C1913 H1897 0.930 . S
C1913 C1912 1.377 1_455 S
C1913 C1914 1.379 . S
C1914 H1898 0.931 . S
C1914 C1908 1.383 . S
C1914 C1913 1.379 . S
H1915 C1909 0.959 . S
H1916 C1909 0.961 . S
H1917 C1909 0.960 . S
H1918 C1910 0.930 . S
H1919 C1911 0.929 . S
H1920 C1928 0.929 . S
H1921 C1930 0.930 . S
H1922 C1932 0.930 . S
H1923 C1935 0.929 . S
H1924 C1938 0.930 . S
H1925 C1940 0.960 . S
H1926 C1940 0.960 . S
H1927 C1940 0.960 . S
C1928 H1920 0.929 . S
C1928 C1929 1.377 . S
C1928 C1930 1.384 . S
C1929 C1928 1.377 . S
C1929 C1935 1.390 . S
C1930 H1921 0.930 . S
C1930 C1928 1.384 . S
C1930 C1931 1.372 . S
C1931 C1930 1.372 . S
C1931 C1932 1.400 . S
C1931 C1936 1.490 . S
C1932 H1922 0.930 . S
C1932 C1931 1.400 . S
C1932 C1935 1.386 . S
H1933 C1949 0.930 . S
H1934 C1950 0.931 . S
C1935 H1923 0.929 . S
C1935 C1929 1.390 . S
C1935 C1932 1.386 . S
C1936 C1931 1.490 . S
C1936 C1938 1.395 . S
C1936 C1939 1.403 . S
H1937 C1943 0.930 . S
C1938 H1924 0.930 . S
C1938 C1936 1.395 . S
C1938 C1941 1.403 . S
C1939 C1936 1.403 . S
C1939 C1940 1.524 . S
C1939 C1943 1.400 . S
C1940 H1925 0.960 . S
C1940 H1926 0.960 . S
C1940 H1927 0.960 . S
C1940 C1939 1.524 . S
C1941 C1938 1.403 . S
C1941 C1942 1.392 . S
C1941 C1945 1.495 . S
C1942 C1941 1.392 . S
C1942 C1943 1.385 . S
C1942 C1944 1.478 . S
C1943 H1937 0.930 . S
C1943 C1939 1.400 . S
C1943 C1942 1.385 . S
C1944 C1942 1.478 . S
C1944 C1946 1.381 . S
C1944 C1950 1.383 . S
C1945 C1941 1.495 . S
C1945 H1951 0.959 . S
C1945 H1952 0.961 . S
C1945 H1953 0.960 . S
C1946 C1944 1.381 . S
C1946 C1947 1.394 . S
C1946 H1954 0.930 . S
C1947 C1946 1.394 . S
C1947 C1948 1.383 . S
C1947 H1955 0.929 . S
C1948 C1947 1.383 . S
C1948 C1949 1.377 . S
C1949 H1933 0.930 . S
C1949 C1948 1.377 . S
C1949 C1950 1.379 . S
C1950 H1934 0.931 . S
C1950 C1944 1.383 . S
C1950 C1949 1.379 . S
H1951 C1945 0.959 . S
H1952 C1945 0.961 . S
H1953 C1945 0.960 . S
H1954 C1946 0.930 . S
H1955 C1947 0.929 . S
H1956 C1964 0.929 . S
H1957 C1966 0.930 . S
H1958 C1968 0.930 . S
H1959 C1971 0.929 . S
H1960 C1974 0.930 . S
H1961 C1976 0.960 . S
H1962 C1976 0.960 . S
H1963 C1976 0.960 . S
C1964 H1956 0.929 . S
C1964 C1965 1.377 . S
C1964 C1966 1.384 1_455 S
C1965 C1964 1.377 . S
C1965 C1971 1.390 1_455 S
C1966 H1957 0.930 . S
C1966 C1964 1.384 1_655 S
C1966 C1967 1.372 . S
C1967 C1966 1.372 . S
C1967 C1968 1.400 . S
C1967 C1972 1.490 . S
C1968 H1958 0.930 . S
C1968 C1967 1.400 . S
C1968 C1971 1.386 . S
H1969 C1985 0.930 . S
H1970 C1986 0.931 . S
C1971 H1959 0.929 . S
C1971 C1965 1.390 1_655 S
C1971 C1968 1.386 . S
C1972 C1967 1.490 . S
C1972 C1974 1.395 . S
C1972 C1975 1.403 . S
H1973 C1979 0.930 . S
C1974 H1960 0.930 . S
C1974 C1972 1.395 . S
C1974 C1977 1.403 . S
C1975 C1972 1.403 . S
C1975 C1976 1.524 . S
C1975 C1979 1.400 . S
C1976 H1961 0.960 . S
C1976 H1962 0.960 . S
C1976 H1963 0.960 . S
C1976 C1975 1.524 . S
C1977 C1974 1.403 . S
C1977 C1978 1.392 . S
C1977 C1981 1.495 . S
C1978 C1977 1.392 . S
C1978 C1979 1.385 . S
C1978 C1980 1.478 . S
C1979 H1973 0.930 . S
C1979 C1975 1.400 . S
C1979 C1978 1.385 . S
C1980 C1978 1.478 . S
C1980 C1982 1.381 . S
C1980 C1986 1.383 . S
C1981 C1977 1.495 . S
C1981 H1987 0.959 . S
C1981 H1988 0.961 . S
C1981 H1989 0.960 . S
C1982 C1980 1.381 . S
C1982 C1983 1.394 . S
C1982 H1990 0.930 . S
C1983 C1982 1.394 . S
C1983 C1984 1.383 . S
C1983 H1991 0.929 . S
C1984 C1983 1.383 . S
C1984 C1985 1.377 . S
C1985 H1969 0.930 . S
C1985 C1984 1.377 . S
C1985 C1986 1.379 . S
C1986 H1970 0.931 . S
C1986 C1980 1.383 . S
C1986 C1985 1.379 . S
H1987 C1981 0.959 . S
H1988 C1981 0.961 . S
H1989 C1981 0.960 . S
H1990 C1982 0.930 . S
H1991 C1983 0.929 . S
H1992 C2000 0.929 . S
H1993 C2002 0.930 . S
H1994 C2004 0.930 . S
H1995 C2007 0.929 . S
H1996 C2010 0.930 . S
H1997 C2012 0.960 . S
H1998 C2012 0.960 . S
H1999 C2012 0.960 . S
C2000 H1992 0.929 . S
C2000 C2001 1.377 . S
C2000 C2002 1.384 . S
C2001 C2000 1.377 . S
C2001 C2007 1.390 . S
C2002 H1993 0.930 . S
C2002 C2000 1.384 . S
C2002 C2003 1.372 . S
C2003 C2002 1.372 . S
C2003 C2004 1.400 . S
C2003 C2008 1.490 . S
C2004 H1994 0.930 . S
C2004 C2003 1.400 . S
C2004 C2007 1.386 . S
H2005 C2021 0.930 . S
H2006 C2022 0.931 . S
C2007 H1995 0.929 . S
C2007 C2001 1.390 . S
C2007 C2004 1.386 . S
C2008 C2003 1.490 . S
C2008 C2010 1.395 . S
C2008 C2011 1.403 . S
H2009 C2015 0.930 . S
C2010 H1996 0.930 . S
C2010 C2008 1.395 . S
C2010 C2013 1.403 . S
C2011 C2008 1.403 . S
C2011 C2012 1.524 . S
C2011 C2015 1.400 . S
C2012 H1997 0.960 . S
C2012 H1998 0.960 . S
C2012 H1999 0.960 . S
C2012 C2011 1.524 . S
C2013 C2010 1.403 . S
C2013 C2014 1.392 . S
C2013 C2017 1.495 . S
C2014 C2013 1.392 . S
C2014 C2015 1.385 . S
C2014 C2016 1.478 . S
C2015 H2009 0.930 . S
C2015 C2011 1.400 . S
C2015 C2014 1.385 . S
C2016 C2014 1.478 . S
C2016 C2018 1.381 . S
C2016 C2022 1.383 . S
C2017 C2013 1.495 . S
C2017 H2023 0.959 . S
C2017 H2024 0.961 . S
C2017 H2025 0.960 . S
C2018 C2016 1.381 . S
C2018 C2019 1.394 . S
C2018 H2026 0.930 . S
C2019 C2018 1.394 . S
C2019 C2020 1.383 . S
C2019 H2027 0.929 . S
C2020 C2019 1.383 . S
C2020 C2021 1.377 . S
C2021 H2005 0.930 . S
C2021 C2020 1.377 . S
C2021 C2022 1.379 . S
C2022 H2006 0.931 . S
C2022 C2016 1.383 . S
C2022 C2021 1.379 . S
H2023 C2017 0.959 . S
H2024 C2017 0.961 . S
H2025 C2017 0.960 . S
H2026 C2018 0.930 . S
H2027 C2019 0.929 . S
H2028 C2036 0.929 . S
H2029 C2038 0.930 . S
H2030 C2040 0.930 . S
H2031 C2043 0.929 . S
H2032 C2046 0.930 . S
H2033 C2048 0.960 . S
H2034 C2048 0.960 . S
H2035 C2048 0.960 . S
C2036 H2028 0.929 . S
C2036 C2037 1.377 . S
C2036 C2038 1.384 . S
C2037 C2036 1.377 . S
C2037 C2043 1.390 . S
C2038 H2029 0.930 . S
C2038 C2036 1.384 . S
C2038 C2039 1.372 . S
C2039 C2038 1.372 . S
C2039 C2040 1.400 . S
C2039 C2044 1.490 . S
C2040 H2030 0.930 . S
C2040 C2039 1.400 . S
C2040 C2043 1.386 . S
H2041 C2057 0.930 . S
H2042 C2058 0.931 . S
C2043 H2031 0.929 . S
C2043 C2037 1.390 . S
C2043 C2040 1.386 . S
C2044 C2039 1.490 . S
C2044 C2046 1.395 . S
C2044 C2047 1.403 . S
H2045 C2051 0.930 . S
C2046 H2032 0.930 . S
C2046 C2044 1.395 . S
C2046 C2049 1.403 . S
C2047 C2044 1.403 . S
C2047 C2048 1.524 . S
C2047 C2051 1.400 . S
C2048 H2033 0.960 . S
C2048 H2034 0.960 . S
C2048 H2035 0.960 . S
C2048 C2047 1.524 . S
C2049 C2046 1.403 . S
C2049 C2050 1.392 . S
C2049 C2053 1.495 . S
C2050 C2049 1.392 . S
C2050 C2051 1.385 . S
C2050 C2052 1.478 . S
C2051 H2045 0.930 . S
C2051 C2047 1.400 . S
C2051 C2050 1.385 . S
C2052 C2050 1.478 . S
C2052 C2054 1.381 . S
C2052 C2058 1.383 . S
C2053 C2049 1.495 . S
C2053 H2059 0.959 . S
C2053 H2060 0.961 . S
C2053 H2061 0.960 . S
C2054 C2052 1.381 . S
C2054 C2055 1.394 . S
C2054 H2062 0.930 . S
C2055 C2054 1.394 . S
C2055 C2056 1.383 . S
C2055 H2063 0.929 . S
C2056 C2055 1.383 . S
C2056 C2057 1.377 . S
C2057 H2041 0.930 . S
C2057 C2056 1.377 . S
C2057 C2058 1.379 . S
C2058 H2042 0.931 . S
C2058 C2052 1.383 . S
C2058 C2057 1.379 . S
H2059 C2053 0.959 . S
H2060 C2053 0.961 . S
H2061 C2053 0.960 . S
H2062 C2054 0.930 . S
H2063 C2055 0.929 . S
H2064 C2072 0.929 . S
H2065 C2074 0.930 . S
H2066 C2076 0.930 . S
H2067 C2079 0.929 . S
H2068 C2082 0.930 . S
H2069 C2084 0.960 . S
H2070 C2084 0.960 . S
H2071 C2084 0.960 . S
C2072 H2064 0.929 . S
C2072 C2073 1.377 . S
C2072 C2074 1.384 . S
C2073 C2072 1.377 . S
C2073 C2079 1.390 . S
C2074 H2065 0.930 . S
C2074 C2072 1.384 . S
C2074 C2075 1.372 . S
C2075 C2074 1.372 . S
C2075 C2076 1.400 . S
C2075 C2080 1.490 . S
C2076 H2066 0.930 . S
C2076 C2075 1.400 . S
C2076 C2079 1.386 . S
H2077 C2093 0.930 . S
H2078 C2094 0.931 . S
C2079 H2067 0.929 . S
C2079 C2073 1.390 . S
C2079 C2076 1.386 . S
C2080 C2075 1.490 . S
C2080 C2082 1.395 . S
C2080 C2083 1.403 . S
H2081 C2087 0.930 . S
C2082 H2068 0.930 . S
C2082 C2080 1.395 . S
C2082 C2085 1.403 . S
C2083 C2080 1.403 . S
C2083 C2084 1.524 . S
C2083 C2087 1.400 . S
C2084 H2069 0.960 . S
C2084 H2070 0.960 . S
C2084 H2071 0.960 . S
C2084 C2083 1.524 . S
C2085 C2082 1.403 . S
C2085 C2086 1.392 . S
C2085 C2089 1.495 . S
C2086 C2085 1.392 . S
C2086 C2087 1.385 . S
C2086 C2088 1.478 . S
C2087 H2081 0.930 . S
C2087 C2083 1.400 . S
C2087 C2086 1.385 . S
C2088 C2086 1.478 . S
C2088 C2090 1.381 . S
C2088 C2094 1.383 . S
C2089 C2085 1.495 . S
C2089 H2095 0.959 . S
C2089 H2096 0.961 . S
C2089 H2097 0.960 . S
C2090 C2088 1.381 . S
C2090 C2091 1.394 . S
C2090 H2098 0.930 . S
C2091 C2090 1.394 . S
C2091 C2092 1.383 . S
C2091 H2099 0.929 . S
C2092 C2091 1.383 . S
C2092 C2093 1.377 . S
C2093 H2077 0.930 . S
C2093 C2092 1.377 . S
C2093 C2094 1.379 . S
C2094 H2078 0.931 . S
C2094 C2088 1.383 . S
C2094 C2093 1.379 . S
H2095 C2089 0.959 . S
H2096 C2089 0.961 . S
H2097 C2089 0.960 . S
H2098 C2090 0.930 . S
H2099 C2091 0.929 . S
H2100 C2108 0.929 . S
H2101 C2110 0.930 . S
H2102 C2112 0.930 . S
H2103 C2115 0.929 . S
H2104 C2118 0.930 . S
H2105 C2120 0.960 . S
H2106 C2120 0.960 . S
H2107 C2120 0.960 . S
C2108 H2100 0.929 . S
C2108 C2109 1.377 . S
C2108 C2110 1.384 . S
C2109 C2108 1.377 . S
C2109 C2115 1.390 . S
C2110 H2101 0.930 . S
C2110 C2108 1.384 . S
C2110 C2111 1.372 . S
C2111 C2110 1.372 . S
C2111 C2112 1.400 . S
C2111 C2116 1.490 . S
C2112 H2102 0.930 . S
C2112 C2111 1.400 . S
C2112 C2115 1.386 . S
H2113 C2129 0.930 . S
H2114 C2130 0.931 . S
C2115 H2103 0.929 . S
C2115 C2109 1.390 . S
C2115 C2112 1.386 . S
C2116 C2111 1.490 . S
C2116 C2118 1.395 . S
C2116 C2119 1.403 . S
H2117 C2123 0.930 . S
C2118 H2104 0.930 . S
C2118 C2116 1.395 . S
C2118 C2121 1.403 . S
C2119 C2116 1.403 . S
C2119 C2120 1.524 . S
C2119 C2123 1.400 . S
C2120 H2105 0.960 . S
C2120 H2106 0.960 . S
C2120 H2107 0.960 . S
C2120 C2119 1.524 . S
C2121 C2118 1.403 . S
C2121 C2122 1.392 . S
C2121 C2125 1.495 . S
C2122 C2121 1.392 . S
C2122 C2123 1.385 . S
C2122 C2124 1.478 . S
C2123 H2117 0.930 . S
C2123 C2119 1.400 . S
C2123 C2122 1.385 . S
C2124 C2122 1.478 . S
C2124 C2126 1.381 . S
C2124 C2130 1.383 . S
C2125 C2121 1.495 . S
C2125 H2131 0.959 . S
C2125 H2132 0.961 . S
C2125 H2133 0.960 . S
C2126 C2124 1.381 . S
C2126 C2127 1.394 . S
C2126 H2134 0.930 . S
C2127 C2126 1.394 . S
C2127 C2128 1.383 . S
C2127 H2135 0.929 . S
C2128 C2127 1.383 . S
C2128 C2129 1.377 . S
C2129 H2113 0.930 . S
C2129 C2128 1.377 . S
C2129 C2130 1.379 . S
C2130 H2114 0.931 . S
C2130 C2124 1.383 . S
C2130 C2129 1.379 . S
H2131 C2125 0.959 . S
H2132 C2125 0.961 . S
H2133 C2125 0.960 . S
H2134 C2126 0.930 . S
H2135 C2127 0.929 . S
H2136 C2144 0.929 . S
H2137 C2146 0.930 . S
H2138 C2148 0.930 . S
H2139 C2151 0.929 . S
H2140 C2154 0.930 . S
H2141 C2156 0.960 . S
H2142 C2156 0.960 . S
H2143 C2156 0.960 . S
C2144 H2136 0.929 . S
C2144 C2145 1.377 . S
C2144 C2146 1.384 . S
C2145 C2144 1.377 . S
C2145 C2151 1.390 . S
C2146 H2137 0.930 . S
C2146 C2144 1.384 . S
C2146 C2147 1.372 . S
C2147 C2146 1.372 . S
C2147 C2148 1.400 . S
C2147 C2152 1.490 . S
C2148 H2138 0.930 . S
C2148 C2147 1.400 . S
C2148 C2151 1.386 . S
H2149 C2165 0.930 . S
H2150 C2166 0.931 . S
C2151 H2139 0.929 . S
C2151 C2145 1.390 . S
C2151 C2148 1.386 . S
C2152 C2147 1.490 . S
C2152 C2154 1.395 . S
C2152 C2155 1.403 . S
H2153 C2159 0.930 . S
C2154 H2140 0.930 . S
C2154 C2152 1.395 . S
C2154 C2157 1.403 . S
C2155 C2152 1.403 . S
C2155 C2156 1.524 . S
C2155 C2159 1.400 . S
C2156 H2141 0.960 . S
C2156 H2142 0.960 . S
C2156 H2143 0.960 . S
C2156 C2155 1.524 . S
C2157 C2154 1.403 . S
C2157 C2158 1.392 . S
C2157 C2161 1.495 . S
C2158 C2157 1.392 . S
C2158 C2159 1.385 . S
C2158 C2160 1.478 . S
C2159 H2153 0.930 . S
C2159 C2155 1.400 . S
C2159 C2158 1.385 . S
C2160 C2158 1.478 . S
C2160 C2162 1.381 . S
C2160 C2166 1.383 . S
C2161 C2157 1.495 . S
C2161 H2167 0.959 . S
C2161 H2168 0.961 . S
C2161 H2169 0.960 . S
C2162 C2160 1.381 . S
C2162 C2163 1.394 . S
C2162 H2170 0.930 . S
C2163 C2162 1.394 . S
C2163 C2164 1.383 . S
C2163 H2171 0.929 . S
C2164 C2163 1.383 . S
C2164 C2165 1.377 . S
C2165 H2149 0.930 . S
C2165 C2164 1.377 . S
C2165 C2166 1.379 . S
C2166 H2150 0.931 . S
C2166 C2160 1.383 . S
C2166 C2165 1.379 . S
H2167 C2161 0.959 . S
H2168 C2161 0.961 . S
H2169 C2161 0.960 . S
H2170 C2162 0.930 . S
H2171 C2163 0.929 . S
H2172 C2180 0.929 . S
H2173 C2182 0.930 . S
H2174 C2184 0.930 . S
H2175 C2187 0.929 1_455 S
H2176 C2190 0.930 . S
H2177 C2192 0.960 . S
H2178 C2192 0.960 . S
H2179 C2192 0.960 . S
C2180 H2172 0.929 . S
C2180 C2181 1.377 1_655 S
C2180 C2182 1.384 . S
C2181 C2180 1.377 1_455 S
C2181 C2187 1.390 1_455 S
C2182 H2173 0.930 . S
C2182 C2180 1.384 . S
C2182 C2183 1.372 . S
C2183 C2182 1.372 . S
C2183 C2184 1.400 . S
C2183 C2188 1.490 . S
C2184 H2174 0.930 . S
C2184 C2183 1.400 . S
C2184 C2187 1.386 . S
H2185 C2201 0.930 . S
H2186 C2202 0.931 . S
C2187 H2175 0.929 1_655 S
C2187 C2181 1.390 1_655 S
C2187 C2184 1.386 . S
C2188 C2183 1.490 . S
C2188 C2190 1.395 . S
C2188 C2191 1.403 . S
H2189 C2195 0.930 . S
C2190 H2176 0.930 . S
C2190 C2188 1.395 . S
C2190 C2193 1.403 . S
C2191 C2188 1.403 . S
C2191 C2192 1.524 . S
C2191 C2195 1.400 . S
C2192 H2177 0.960 . S
C2192 H2178 0.960 . S
C2192 H2179 0.960 . S
C2192 C2191 1.524 . S
C2193 C2190 1.403 . S
C2193 C2194 1.392 . S
C2193 C2197 1.495 . S
C2194 C2193 1.392 . S
C2194 C2195 1.385 . S
C2194 C2196 1.478 . S
C2195 H2189 0.930 . S
C2195 C2191 1.400 . S
C2195 C2194 1.385 . S
C2196 C2194 1.478 . S
C2196 C2198 1.381 . S
C2196 C2202 1.383 . S
C2197 C2193 1.495 . S
C2197 H2203 0.959 . S
C2197 H2204 0.961 . S
C2197 H2205 0.960 . S
C2198 C2196 1.381 . S
C2198 C2199 1.394 . S
C2198 H2206 0.930 . S
C2199 C2198 1.394 . S
C2199 C2200 1.383 . S
C2199 H2207 0.929 . S
C2200 C2199 1.383 . S
C2200 C2201 1.377 . S
C2201 H2185 0.930 . S
C2201 C2200 1.377 . S
C2201 C2202 1.379 . S
C2202 H2186 0.931 . S
C2202 C2196 1.383 . S
C2202 C2201 1.379 . S
H2203 C2197 0.959 . S
H2204 C2197 0.961 . S
H2205 C2197 0.960 . S
H2206 C2198 0.930 . S
H2207 C2199 0.929 . S
H2208 C2216 0.929 . S
H2209 C2218 0.930 . S
H2210 C2220 0.930 . S
H2211 C2223 0.929 . S
H2212 C2226 0.930 . S
H2213 C2228 0.960 . S
H2214 C2228 0.960 . S
H2215 C2228 0.960 . S
C2216 H2208 0.929 . S
C2216 C2217 1.377 . S
C2216 C2218 1.384 . S
C2217 C2216 1.377 . S
C2217 C2223 1.390 . S
C2218 H2209 0.930 . S
C2218 C2216 1.384 . S
C2218 C2219 1.372 . S
C2219 C2218 1.372 . S
C2219 C2220 1.400 . S
C2219 C2224 1.490 . S
C2220 H2210 0.930 . S
C2220 C2219 1.400 . S
C2220 C2223 1.386 . S
H2221 C2237 0.930 . S
H2222 C2238 0.931 . S
C2223 H2211 0.929 . S
C2223 C2217 1.390 . S
C2223 C2220 1.386 . S
C2224 C2219 1.490 . S
C2224 C2226 1.395 . S
C2224 C2227 1.403 . S
H2225 C2231 0.930 . S
C2226 H2212 0.930 . S
C2226 C2224 1.395 . S
C2226 C2229 1.403 . S
C2227 C2224 1.403 . S
C2227 C2228 1.524 . S
C2227 C2231 1.400 . S
C2228 H2213 0.960 . S
C2228 H2214 0.960 . S
C2228 H2215 0.960 . S
C2228 C2227 1.524 . S
C2229 C2226 1.403 . S
C2229 C2230 1.392 . S
C2229 C2233 1.495 . S
C2230 C2229 1.392 . S
C2230 C2231 1.385 . S
C2230 C2232 1.478 . S
C2231 H2225 0.930 . S
C2231 C2227 1.400 . S
C2231 C2230 1.385 . S
C2232 C2230 1.478 . S
C2232 C2234 1.381 . S
C2232 C2238 1.383 . S
C2233 C2229 1.495 . S
C2233 H2239 0.959 . S
C2233 H2240 0.961 . S
C2233 H2241 0.960 . S
C2234 C2232 1.381 . S
C2234 C2235 1.394 . S
C2234 H2242 0.930 . S
C2235 C2234 1.394 . S
C2235 C2236 1.383 . S
C2235 H2243 0.929 . S
C2236 C2235 1.383 . S
C2236 C2237 1.377 . S
C2237 H2221 0.930 . S
C2237 C2236 1.377 . S
C2237 C2238 1.379 . S
C2238 H2222 0.931 . S
C2238 C2232 1.383 . S
C2238 C2237 1.379 . S
H2239 C2233 0.959 . S
H2240 C2233 0.961 . S
H2241 C2233 0.960 . S
H2242 C2234 0.930 . S
H2243 C2235 0.929 . S
H2244 C2252 0.929 . S
H2245 C2254 0.930 . S
H2246 C2256 0.930 . S
H2247 C2259 0.929 . S
H2248 C2262 0.930 . S
H2249 C2264 0.960 . S
H2250 C2264 0.960 . S
H2251 C2264 0.960 . S
C2252 H2244 0.929 . S
C2252 C2253 1.377 . S
C2252 C2254 1.384 . S
C2253 C2252 1.377 . S
C2253 C2259 1.390 . S
C2254 H2245 0.930 . S
C2254 C2252 1.384 . S
C2254 C2255 1.372 . S
C2255 C2254 1.372 . S
C2255 C2256 1.400 . S
C2255 C2260 1.490 . S
C2256 H2246 0.930 . S
C2256 C2255 1.400 . S
C2256 C2259 1.386 . S
H2257 C2273 0.930 . S
H2258 C2274 0.931 . S
C2259 H2247 0.929 . S
C2259 C2253 1.390 . S
C2259 C2256 1.386 . S
C2260 C2255 1.490 . S
C2260 C2262 1.395 . S
C2260 C2263 1.403 . S
H2261 C2267 0.930 . S
C2262 H2248 0.930 . S
C2262 C2260 1.395 . S
C2262 C2265 1.403 . S
C2263 C2260 1.403 . S
C2263 C2264 1.524 . S
C2263 C2267 1.400 . S
C2264 H2249 0.960 . S
C2264 H2250 0.960 . S
C2264 H2251 0.960 . S
C2264 C2263 1.524 . S
C2265 C2262 1.403 . S
C2265 C2266 1.392 . S
C2265 C2269 1.495 . S
C2266 C2265 1.392 . S
C2266 C2267 1.385 . S
C2266 C2268 1.478 . S
C2267 H2261 0.930 . S
C2267 C2263 1.400 . S
C2267 C2266 1.385 . S
C2268 C2266 1.478 . S
C2268 C2270 1.381 . S
C2268 C2274 1.383 . S
C2269 C2265 1.495 . S
C2269 H2275 0.959 . S
C2269 H2276 0.961 . S
C2269 H2277 0.960 . S
C2270 C2268 1.381 . S
C2270 C2271 1.394 . S
C2270 H2278 0.930 . S
C2271 C2270 1.394 . S
C2271 C2272 1.383 . S
C2271 H2279 0.929 . S
C2272 C2271 1.383 . S
C2272 C2273 1.377 . S
C2273 H2257 0.930 . S
C2273 C2272 1.377 . S
C2273 C2274 1.379 . S
C2274 H2258 0.931 . S
C2274 C2268 1.383 . S
C2274 C2273 1.379 . S
H2275 C2269 0.959 . S
H2276 C2269 0.961 . S
H2277 C2269 0.960 . S
H2278 C2270 0.930 . S
H2279 C2271 0.929 . S
H2280 C2288 0.929 . S
H2281 C2290 0.930 . S
H2282 C2292 0.930 . S
H2283 C2295 0.929 . S
H2284 C2298 0.930 . S
H2285 C2300 0.960 . S
H2286 C2300 0.960 . S
H2287 C2300 0.960 . S
C2288 H2280 0.929 . S
C2288 C2289 1.377 . S
C2288 C2290 1.384 . S
C2289 C2288 1.377 . S
C2289 C2295 1.390 . S
C2290 H2281 0.930 . S
C2290 C2288 1.384 . S
C2290 C2291 1.372 . S
C2291 C2290 1.372 . S
C2291 C2292 1.400 . S
C2291 C2296 1.490 . S
C2292 H2282 0.930 . S
C2292 C2291 1.400 . S
C2292 C2295 1.386 . S
H2293 C2309 0.930 . S
H2294 C2310 0.931 . S
C2295 H2283 0.929 . S
C2295 C2289 1.390 . S
C2295 C2292 1.386 . S
C2296 C2291 1.490 . S
C2296 C2298 1.395 . S
C2296 C2299 1.403 . S
H2297 C2303 0.930 . S
C2298 H2284 0.930 . S
C2298 C2296 1.395 . S
C2298 C2301 1.403 . S
C2299 C2296 1.403 . S
C2299 C2300 1.524 . S
C2299 C2303 1.400 . S
C2300 H2285 0.960 . S
C2300 H2286 0.960 . S
C2300 H2287 0.960 . S
C2300 C2299 1.524 . S
C2301 C2298 1.403 . S
C2301 C2302 1.392 . S
C2301 C2305 1.495 . S
C2302 C2301 1.392 . S
C2302 C2303 1.385 . S
C2302 C2304 1.478 . S
C2303 H2297 0.930 . S
C2303 C2299 1.400 . S
C2303 C2302 1.385 . S
C2304 C2302 1.478 . S
C2304 C2306 1.381 . S
C2304 C2310 1.383 . S
C2305 C2301 1.495 . S
C2305 H2311 0.959 . S
C2305 H2312 0.961 . S
C2305 H2313 0.960 . S
C2306 C2304 1.381 . S
C2306 C2307 1.394 . S
C2306 H2314 0.930 . S
C2307 C2306 1.394 . S
C2307 C2308 1.383 . S
C2307 H2315 0.929 . S
C2308 C2307 1.383 . S
C2308 C2309 1.377 . S
C2309 H2293 0.930 . S
C2309 C2308 1.377 . S
C2309 C2310 1.379 . S
C2310 H2294 0.931 . S
C2310 C2304 1.383 . S
C2310 C2309 1.379 . S
H2311 C2305 0.959 . S
H2312 C2305 0.961 . S
H2313 C2305 0.960 . S
H2314 C2306 0.930 . S
H2315 C2307 0.929 . S
H2316 C2324 0.929 1_455 S
H2317 C2326 0.930 . S
H2318 C2328 0.930 . S
H2319 C2331 0.929 . S
H2320 C2334 0.930 . S
H2321 C2336 0.960 . S
H2322 C2336 0.960 . S
H2323 C2336 0.960 . S
C2324 H2316 0.929 1_655 S
C2324 C2325 1.377 1_655 S
C2324 C2326 1.384 . S
C2325 C2324 1.377 1_455 S
C2325 C2331 1.390 1_455 S
C2326 H2317 0.930 . S
C2326 C2324 1.384 . S
C2326 C2327 1.372 . S
C2327 C2326 1.372 . S
C2327 C2328 1.400 . S
C2327 C2332 1.490 . S
C2328 H2318 0.930 . S
C2328 C2327 1.400 . S
C2328 C2331 1.386 . S
H2329 C2345 0.930 . S
H2330 C2346 0.931 . S
C2331 H2319 0.929 . S
C2331 C2325 1.390 1_655 S
C2331 C2328 1.386 . S
C2332 C2327 1.490 . S
C2332 C2334 1.395 . S
C2332 C2335 1.403 . S
H2333 C2339 0.930 . S
C2334 H2320 0.930 . S
C2334 C2332 1.395 . S
C2334 C2337 1.403 . S
C2335 C2332 1.403 . S
C2335 C2336 1.524 . S
C2335 C2339 1.400 . S
C2336 H2321 0.960 . S
C2336 H2322 0.960 . S
C2336 H2323 0.960 . S
C2336 C2335 1.524 . S
C2337 C2334 1.403 . S
C2337 C2338 1.392 . S
C2337 C2341 1.495 . S
C2338 C2337 1.392 . S
C2338 C2339 1.385 . S
C2338 C2340 1.478 . S
C2339 H2333 0.930 . S
C2339 C2335 1.400 . S
C2339 C2338 1.385 . S
C2340 C2338 1.478 . S
C2340 C2342 1.381 . S
C2340 C2346 1.383 . S
C2341 C2337 1.495 . S
C2341 H2347 0.959 . S
C2341 H2348 0.961 . S
C2341 H2349 0.960 . S
C2342 C2340 1.381 . S
C2342 C2343 1.394 . S
C2342 H2350 0.930 . S
C2343 C2342 1.394 . S
C2343 C2344 1.383 . S
C2343 H2351 0.929 . S
C2344 C2343 1.383 . S
C2344 C2345 1.377 . S
C2345 H2329 0.930 . S
C2345 C2344 1.377 . S
C2345 C2346 1.379 . S
C2346 H2330 0.931 . S
C2346 C2340 1.383 . S
C2346 C2345 1.379 . S
H2347 C2341 0.959 . S
H2348 C2341 0.961 . S
H2349 C2341 0.960 . S
H2350 C2342 0.930 . S
H2351 C2343 0.929 . S
H2352 C2360 0.929 . S
H2353 C2362 0.930 . S
H2354 C2364 0.930 . S
H2355 C2367 0.929 . S
H2356 C2370 0.930 . S
H2357 C2372 0.960 . S
H2358 C2372 0.960 . S
H2359 C2372 0.960 . S
C2360 H2352 0.929 . S
C2360 C2361 1.377 . S
C2360 C2362 1.384 . S
C2361 C2360 1.377 . S
C2361 C2367 1.390 . S
C2362 H2353 0.930 . S
C2362 C2360 1.384 . S
C2362 C2363 1.372 . S
C2363 C2362 1.372 . S
C2363 C2364 1.400 . S
C2363 C2368 1.490 . S
C2364 H2354 0.930 . S
C2364 C2363 1.400 . S
C2364 C2367 1.386 . S
H2365 C2381 0.930 . S
H2366 C2382 0.931 . S
C2367 H2355 0.929 . S
C2367 C2361 1.390 . S
C2367 C2364 1.386 . S
C2368 C2363 1.490 . S
C2368 C2370 1.395 . S
C2368 C2371 1.403 . S
H2369 C2375 0.930 . S
C2370 H2356 0.930 . S
C2370 C2368 1.395 . S
C2370 C2373 1.403 . S
C2371 C2368 1.403 . S
C2371 C2372 1.524 . S
C2371 C2375 1.400 . S
C2372 H2357 0.960 . S
C2372 H2358 0.960 . S
C2372 H2359 0.960 . S
C2372 C2371 1.524 . S
C2373 C2370 1.403 . S
C2373 C2374 1.392 . S
C2373 C2377 1.495 . S
C2374 C2373 1.392 . S
C2374 C2375 1.385 . S
C2374 C2376 1.478 . S
C2375 H2369 0.930 . S
C2375 C2371 1.400 . S
C2375 C2374 1.385 . S
C2376 C2374 1.478 . S
C2376 C2378 1.381 . S
C2376 C2382 1.383 . S
C2377 C2373 1.495 . S
C2377 H2383 0.959 . S
C2377 H2384 0.961 . S
C2377 H2385 0.960 . S
C2378 C2376 1.381 . S
C2378 C2379 1.394 . S
C2378 H2386 0.930 . S
C2379 C2378 1.394 . S
C2379 C2380 1.383 . S
C2379 H2387 0.929 . S
C2380 C2379 1.383 . S
C2380 C2381 1.377 . S
C2381 H2365 0.930 . S
C2381 C2380 1.377 . S
C2381 C2382 1.379 . S
C2382 H2366 0.931 . S
C2382 C2376 1.383 . S
C2382 C2381 1.379 . S
H2383 C2377 0.959 . S
H2384 C2377 0.961 . S
H2385 C2377 0.960 . S
H2386 C2378 0.930 . S
H2387 C2379 0.929 . S
H2388 C2396 0.929 . S
H2389 C2398 0.930 . S
H2390 C2400 0.930 . S
H2391 C2403 0.929 . S
H2392 C2406 0.930 . S
H2393 C2408 0.960 . S
H2394 C2408 0.960 . S
H2395 C2408 0.960 . S
C2396 H2388 0.929 . S
C2396 C2397 1.377 . S
C2396 C2398 1.384 . S
C2397 C2396 1.377 . S
C2397 C2403 1.390 . S
C2398 H2389 0.930 . S
C2398 C2396 1.384 . S
C2398 C2399 1.372 . S
C2399 C2398 1.372 . S
C2399 C2400 1.400 . S
C2399 C2404 1.490 . S
C2400 H2390 0.930 . S
C2400 C2399 1.400 . S
C2400 C2403 1.386 . S
H2401 C2417 0.930 . S
H2402 C2418 0.931 . S
C2403 H2391 0.929 . S
C2403 C2397 1.390 . S
C2403 C2400 1.386 . S
C2404 C2399 1.490 . S
C2404 C2406 1.395 . S
C2404 C2407 1.403 . S
H2405 C2411 0.930 . S
C2406 H2392 0.930 . S
C2406 C2404 1.395 . S
C2406 C2409 1.403 . S
C2407 C2404 1.403 . S
C2407 C2408 1.524 . S
C2407 C2411 1.400 . S
C2408 H2393 0.960 . S
C2408 H2394 0.960 . S
C2408 H2395 0.960 . S
C2408 C2407 1.524 . S
C2409 C2406 1.403 . S
C2409 C2410 1.392 . S
C2409 C2413 1.495 . S
C2410 C2409 1.392 . S
C2410 C2411 1.385 . S
C2410 C2412 1.478 . S
C2411 H2405 0.930 . S
C2411 C2407 1.400 . S
C2411 C2410 1.385 . S
C2412 C2410 1.478 . S
C2412 C2414 1.381 . S
C2412 C2418 1.383 . S
C2413 C2409 1.495 . S
C2413 H2419 0.959 . S
C2413 H2420 0.961 . S
C2413 H2421 0.960 . S
C2414 C2412 1.381 . S
C2414 C2415 1.394 . S
C2414 H2422 0.930 . S
C2415 C2414 1.394 . S
C2415 C2416 1.383 1_655 S
C2415 H2423 0.929 1_655 S
C2416 C2415 1.383 1_455 S
C2416 C2417 1.377 1_455 S
C2417 H2401 0.930 . S
C2417 C2416 1.377 1_655 S
C2417 C2418 1.379 . S
C2418 H2402 0.931 . S
C2418 C2412 1.383 . S
C2418 C2417 1.379 . S
H2419 C2413 0.959 . S
H2420 C2413 0.961 . S
H2421 C2413 0.960 . S
H2422 C2414 0.930 . S
H2423 C2415 0.929 1_455 S
H2424 C2432 0.929 . S
H2425 C2434 0.930 . S
H2426 C2436 0.930 . S
H2427 C2439 0.929 . S
H2428 C2442 0.930 . S
H2429 C2444 0.960 . S
H2430 C2444 0.960 . S
H2431 C2444 0.960 . S
C2432 H2424 0.929 . S
C2432 C2433 1.377 . S
C2432 C2434 1.384 . S
C2433 C2432 1.377 . S
C2433 C2439 1.390 . S
C2434 H2425 0.930 . S
C2434 C2432 1.384 . S
C2434 C2435 1.372 . S
C2435 C2434 1.372 . S
C2435 C2436 1.400 . S
C2435 C2440 1.490 . S
C2436 H2426 0.930 . S
C2436 C2435 1.400 . S
C2436 C2439 1.386 . S
H2437 C2453 0.930 . S
H2438 C2454 0.931 . S
C2439 H2427 0.929 . S
C2439 C2433 1.390 . S
C2439 C2436 1.386 . S
C2440 C2435 1.490 . S
C2440 C2442 1.395 . S
C2440 C2443 1.403 . S
H2441 C2447 0.930 . S
C2442 H2428 0.930 . S
C2442 C2440 1.395 . S
C2442 C2445 1.403 . S
C2443 C2440 1.403 . S
C2443 C2444 1.524 . S
C2443 C2447 1.400 . S
C2444 H2429 0.960 . S
C2444 H2430 0.960 . S
C2444 H2431 0.960 . S
C2444 C2443 1.524 . S
C2445 C2442 1.403 . S
C2445 C2446 1.392 . S
C2445 C2449 1.495 . S
C2446 C2445 1.392 . S
C2446 C2447 1.385 . S
C2446 C2448 1.478 . S
C2447 H2441 0.930 . S
C2447 C2443 1.400 . S
C2447 C2446 1.385 . S
C2448 C2446 1.478 . S
C2448 C2450 1.381 . S
C2448 C2454 1.383 . S
C2449 C2445 1.495 . S
C2449 H2455 0.959 . S
C2449 H2456 0.961 . S
C2449 H2457 0.960 . S
C2450 C2448 1.381 . S
C2450 C2451 1.394 . S
C2450 H2458 0.930 . S
C2451 C2450 1.394 . S
C2451 C2452 1.383 . S
C2451 H2459 0.929 . S
C2452 C2451 1.383 . S
C2452 C2453 1.377 . S
C2453 H2437 0.930 . S
C2453 C2452 1.377 . S
C2453 C2454 1.379 . S
C2454 H2438 0.931 . S
C2454 C2448 1.383 . S
C2454 C2453 1.379 . S
H2455 C2449 0.959 . S
H2456 C2449 0.961 . S
H2457 C2449 0.960 . S
H2458 C2450 0.930 . S
H2459 C2451 0.929 . S
H2460 C2468 0.929 . S
H2461 C2470 0.930 . S
H2462 C2472 0.930 . S
H2463 C2475 0.929 . S
H2464 C2478 0.930 . S
H2465 C2480 0.960 . S
H2466 C2480 0.960 . S
H2467 C2480 0.960 . S
C2468 H2460 0.929 . S
C2468 C2469 1.377 . S
C2468 C2470 1.384 . S
C2469 C2468 1.377 . S
C2469 C2475 1.390 . S
C2470 H2461 0.930 . S
C2470 C2468 1.384 . S
C2470 C2471 1.372 . S
C2471 C2470 1.372 . S
C2471 C2472 1.400 . S
C2471 C2476 1.490 . S
C2472 H2462 0.930 . S
C2472 C2471 1.400 . S
C2472 C2475 1.386 . S
H2473 C2489 0.930 . S
H2474 C2490 0.931 . S
C2475 H2463 0.929 . S
C2475 C2469 1.390 . S
C2475 C2472 1.386 . S
C2476 C2471 1.490 . S
C2476 C2478 1.395 . S
C2476 C2479 1.403 . S
H2477 C2483 0.930 . S
C2478 H2464 0.930 . S
C2478 C2476 1.395 . S
C2478 C2481 1.403 . S
C2479 C2476 1.403 . S
C2479 C2480 1.524 . S
C2479 C2483 1.400 . S
C2480 H2465 0.960 . S
C2480 H2466 0.960 . S
C2480 H2467 0.960 . S
C2480 C2479 1.524 . S
C2481 C2478 1.403 . S
C2481 C2482 1.392 . S
C2481 C2485 1.495 . S
C2482 C2481 1.392 . S
C2482 C2483 1.385 . S
C2482 C2484 1.478 . S
C2483 H2477 0.930 . S
C2483 C2479 1.400 . S
C2483 C2482 1.385 . S
C2484 C2482 1.478 . S
C2484 C2486 1.381 . S
C2484 C2490 1.383 . S
C2485 C2481 1.495 . S
C2485 H2491 0.959 . S
C2485 H2492 0.961 . S
C2485 H2493 0.960 . S
C2486 C2484 1.381 . S
C2486 C2487 1.394 . S
C2486 H2494 0.930 . S
C2487 C2486 1.394 . S
C2487 C2488 1.383 . S
C2487 H2495 0.929 . S
C2488 C2487 1.383 . S
C2488 C2489 1.377 . S
C2489 H2473 0.930 . S
C2489 C2488 1.377 . S
C2489 C2490 1.379 . S
C2490 H2474 0.931 . S
C2490 C2484 1.383 . S
C2490 C2489 1.379 . S
H2491 C2485 0.959 . S
H2492 C2485 0.961 . S
H2493 C2485 0.960 . S
H2494 C2486 0.930 . S
H2495 C2487 0.929 . S
H2496 C2504 0.929 . S
H2497 C2506 0.930 . S
H2498 C2508 0.930 . S
H2499 C2511 0.929 . S
H2500 C2514 0.930 . S
H2501 C2516 0.960 . S
H2502 C2516 0.960 . S
H2503 C2516 0.960 . S
C2504 H2496 0.929 . S
C2504 C2505 1.377 . S
C2504 C2506 1.384 . S
C2505 C2504 1.377 . S
C2505 C2511 1.390 . S
C2506 H2497 0.930 . S
C2506 C2504 1.384 . S
C2506 C2507 1.372 . S
C2507 C2506 1.372 . S
C2507 C2508 1.400 . S
C2507 C2512 1.490 . S
C2508 H2498 0.930 . S
C2508 C2507 1.400 . S
C2508 C2511 1.386 . S
H2509 C2525 0.930 . S
H2510 C2526 0.931 . S
C2511 H2499 0.929 . S
C2511 C2505 1.390 . S
C2511 C2508 1.386 . S
C2512 C2507 1.490 . S
C2512 C2514 1.395 . S
C2512 C2515 1.403 . S
H2513 C2519 0.930 . S
C2514 H2500 0.930 . S
C2514 C2512 1.395 . S
C2514 C2517 1.403 . S
C2515 C2512 1.403 . S
C2515 C2516 1.524 . S
C2515 C2519 1.400 . S
C2516 H2501 0.960 . S
C2516 H2502 0.960 . S
C2516 H2503 0.960 . S
C2516 C2515 1.524 . S
C2517 C2514 1.403 . S
C2517 C2518 1.392 . S
C2517 C2521 1.495 . S
C2518 C2517 1.392 . S
C2518 C2519 1.385 . S
C2518 C2520 1.478 . S
C2519 H2513 0.930 . S
C2519 C2515 1.400 . S
C2519 C2518 1.385 . S
C2520 C2518 1.478 . S
C2520 C2522 1.381 . S
C2520 C2526 1.383 . S
C2521 C2517 1.495 . S
C2521 H2527 0.959 . S
C2521 H2528 0.961 . S
C2521 H2529 0.960 . S
C2522 C2520 1.381 . S
C2522 C2523 1.394 . S
C2522 H2530 0.930 . S
C2523 C2522 1.394 . S
C2523 C2524 1.383 . S
C2523 H2531 0.929 . S
C2524 C2523 1.383 . S
C2524 C2525 1.377 . S
C2525 H2509 0.930 . S
C2525 C2524 1.377 . S
C2525 C2526 1.379 . S
C2526 H2510 0.931 . S
C2526 C2520 1.383 . S
C2526 C2525 1.379 . S
H2527 C2521 0.959 . S
H2528 C2521 0.961 . S
H2529 C2521 0.960 . S
H2530 C2522 0.930 . S
H2531 C2523 0.929 . S
H2532 C2540 0.929 . S
H2533 C2542 0.930 . S
H2534 C2544 0.930 . S
H2535 C2547 0.929 . S
H2536 C2550 0.930 . S
H2537 C2552 0.960 . S
H2538 C2552 0.960 . S
H2539 C2552 0.960 . S
C2540 H2532 0.929 . S
C2540 C2541 1.377 . S
C2540 C2542 1.384 . S
C2541 C2540 1.377 . S
C2541 C2547 1.390 . S
C2542 H2533 0.930 . S
C2542 C2540 1.384 . S
C2542 C2543 1.372 . S
C2543 C2542 1.372 . S
C2543 C2544 1.400 . S
C2543 C2548 1.490 . S
C2544 H2534 0.930 . S
C2544 C2543 1.400 . S
C2544 C2547 1.386 . S
H2545 C2561 0.930 . S
H2546 C2562 0.931 . S
C2547 H2535 0.929 . S
C2547 C2541 1.390 . S
C2547 C2544 1.386 . S
C2548 C2543 1.490 . S
C2548 C2550 1.395 . S
C2548 C2551 1.403 . S
H2549 C2555 0.930 . S
C2550 H2536 0.930 . S
C2550 C2548 1.395 . S
C2550 C2553 1.403 . S
C2551 C2548 1.403 . S
C2551 C2552 1.524 . S
C2551 C2555 1.400 . S
C2552 H2537 0.960 . S
C2552 H2538 0.960 . S
C2552 H2539 0.960 . S
C2552 C2551 1.524 . S
C2553 C2550 1.403 . S
C2553 C2554 1.392 . S
C2553 C2557 1.495 . S
C2554 C2553 1.392 . S
C2554 C2555 1.385 . S
C2554 C2556 1.478 . S
C2555 H2549 0.930 . S
C2555 C2551 1.400 . S
C2555 C2554 1.385 . S
C2556 C2554 1.478 . S
C2556 C2558 1.381 . S
C2556 C2562 1.383 . S
C2557 C2553 1.495 . S
C2557 H2563 0.959 . S
C2557 H2564 0.961 . S
C2557 H2565 0.960 . S
C2558 C2556 1.381 . S
C2558 C2559 1.394 . S
C2558 H2566 0.930 . S
C2559 C2558 1.394 . S
C2559 C2560 1.383 . S
C2559 H2567 0.929 . S
C2560 C2559 1.383 . S
C2560 C2561 1.377 . S
C2561 H2545 0.930 . S
C2561 C2560 1.377 . S
C2561 C2562 1.379 . S
C2562 H2546 0.931 . S
C2562 C2556 1.383 . S
C2562 C2561 1.379 . S
H2563 C2557 0.959 . S
H2564 C2557 0.961 . S
H2565 C2557 0.960 . S
H2566 C2558 0.930 . S
H2567 C2559 0.929 . S
H2568 C2576 0.929 . S
H2569 C2578 0.930 . S
H2570 C2580 0.930 . S
H2571 C2583 0.929 . S
H2572 C2586 0.930 . S
H2573 C2588 0.960 . S
H2574 C2588 0.960 . S
H2575 C2588 0.960 . S
C2576 H2568 0.929 . S
C2576 C2577 1.377 . S
C2576 C2578 1.384 . S
C2577 C2576 1.377 . S
C2577 C2583 1.390 . S
C2578 H2569 0.930 . S
C2578 C2576 1.384 . S
C2578 C2579 1.372 . S
C2579 C2578 1.372 . S
C2579 C2580 1.400 . S
C2579 C2584 1.490 . S
C2580 H2570 0.930 . S
C2580 C2579 1.400 . S
C2580 C2583 1.386 . S
H2581 C2597 0.930 . S
H2582 C2598 0.931 . S
C2583 H2571 0.929 . S
C2583 C2577 1.390 . S
C2583 C2580 1.386 . S
C2584 C2579 1.490 . S
C2584 C2586 1.395 . S
C2584 C2587 1.403 . S
H2585 C2591 0.930 . S
C2586 H2572 0.930 . S
C2586 C2584 1.395 . S
C2586 C2589 1.403 . S
C2587 C2584 1.403 . S
C2587 C2588 1.524 . S
C2587 C2591 1.400 . S
C2588 H2573 0.960 . S
C2588 H2574 0.960 . S
C2588 H2575 0.960 . S
C2588 C2587 1.524 . S
C2589 C2586 1.403 . S
C2589 C2590 1.392 . S
C2589 C2593 1.495 . S
C2590 C2589 1.392 . S
C2590 C2591 1.385 . S
C2590 C2592 1.478 . S
C2591 H2585 0.930 . S
C2591 C2587 1.400 . S
C2591 C2590 1.385 . S
C2592 C2590 1.478 . S
C2592 C2594 1.381 . S
C2592 C2598 1.383 . S
C2593 C2589 1.495 . S
C2593 H2599 0.959 . S
C2593 H2600 0.961 . S
C2593 H2601 0.960 . S
C2594 C2592 1.381 . S
C2594 C2595 1.394 . S
C2594 H2602 0.930 . S
C2595 C2594 1.394 . S
C2595 C2596 1.383 . S
C2595 H2603 0.929 . S
C2596 C2595 1.383 . S
C2596 C2597 1.377 . S
C2597 H2581 0.930 . S
C2597 C2596 1.377 . S
C2597 C2598 1.379 . S
C2598 H2582 0.931 . S
C2598 C2592 1.383 . S
C2598 C2597 1.379 . S
H2599 C2593 0.959 . S
H2600 C2593 0.961 . S
H2601 C2593 0.960 . S
H2602 C2594 0.930 . S
H2603 C2595 0.929 . S
H2604 C2612 0.929 . S
H2605 C2614 0.930 . S
H2606 C2616 0.930 . S
H2607 C2619 0.929 . S
H2608 C2622 0.930 . S
H2609 C2624 0.960 . S
H2610 C2624 0.960 . S
H2611 C2624 0.960 . S
C2612 H2604 0.929 . S
C2612 C2613 1.377 . S
C2612 C2614 1.384 . S
C2613 C2612 1.377 . S
C2613 C2619 1.390 . S
C2614 H2605 0.930 . S
C2614 C2612 1.384 . S
C2614 C2615 1.372 . S
C2615 C2614 1.372 . S
C2615 C2616 1.400 . S
C2615 C2620 1.490 . S
C2616 H2606 0.930 . S
C2616 C2615 1.400 . S
C2616 C2619 1.386 . S
H2617 C2633 0.930 . S
H2618 C2634 0.931 . S
C2619 H2607 0.929 . S
C2619 C2613 1.390 . S
C2619 C2616 1.386 . S
C2620 C2615 1.490 . S
C2620 C2622 1.395 . S
C2620 C2623 1.403 . S
H2621 C2627 0.930 . S
C2622 H2608 0.930 . S
C2622 C2620 1.395 . S
C2622 C2625 1.403 . S
C2623 C2620 1.403 . S
C2623 C2624 1.524 . S
C2623 C2627 1.400 . S
C2624 H2609 0.960 . S
C2624 H2610 0.960 . S
C2624 H2611 0.960 . S
C2624 C2623 1.524 . S
C2625 C2622 1.403 . S
C2625 C2626 1.392 . S
C2625 C2629 1.495 . S
C2626 C2625 1.392 . S
C2626 C2627 1.385 . S
C2626 C2628 1.478 . S
C2627 H2621 0.930 . S
C2627 C2623 1.400 . S
C2627 C2626 1.385 . S
C2628 C2626 1.478 . S
C2628 C2630 1.381 . S
C2628 C2634 1.383 . S
C2629 C2625 1.495 . S
C2629 H2635 0.959 . S
C2629 H2636 0.961 . S
C2629 H2637 0.960 . S
C2630 C2628 1.381 . S
C2630 C2631 1.394 . S
C2630 H2638 0.930 . S
C2631 C2630 1.394 . S
C2631 C2632 1.383 1_455 S
C2631 H2639 0.929 1_455 S
C2632 C2631 1.383 1_655 S
C2632 C2633 1.377 1_655 S
C2633 H2617 0.930 . S
C2633 C2632 1.377 1_455 S
C2633 C2634 1.379 . S
C2634 H2618 0.931 . S
C2634 C2628 1.383 . S
C2634 C2633 1.379 . S
H2635 C2629 0.959 . S
H2636 C2629 0.961 . S
H2637 C2629 0.960 . S
H2638 C2630 0.930 . S
H2639 C2631 0.929 1_655 S
H2640 C2648 0.929 . S
H2641 C2650 0.930 . S
H2642 C2652 0.930 . S
H2643 C2655 0.929 . S
H2644 C2658 0.930 . S
H2645 C2660 0.960 . S
H2646 C2660 0.960 . S
H2647 C2660 0.960 . S
C2648 H2640 0.929 . S
C2648 C2649 1.377 . S
C2648 C2650 1.384 . S
C2649 C2648 1.377 . S
C2649 C2655 1.390 . S
C2650 H2641 0.930 . S
C2650 C2648 1.384 . S
C2650 C2651 1.372 . S
C2651 C2650 1.372 . S
C2651 C2652 1.400 . S
C2651 C2656 1.490 . S
C2652 H2642 0.930 . S
C2652 C2651 1.400 . S
C2652 C2655 1.386 . S
H2653 C2669 0.930 . S
H2654 C2670 0.931 . S
C2655 H2643 0.929 . S
C2655 C2649 1.390 . S
C2655 C2652 1.386 . S
C2656 C2651 1.490 . S
C2656 C2658 1.395 . S
C2656 C2659 1.403 . S
H2657 C2663 0.930 . S
C2658 H2644 0.930 . S
C2658 C2656 1.395 . S
C2658 C2661 1.403 . S
C2659 C2656 1.403 . S
C2659 C2660 1.524 . S
C2659 C2663 1.400 . S
C2660 H2645 0.960 . S
C2660 H2646 0.960 . S
C2660 H2647 0.960 . S
C2660 C2659 1.524 . S
C2661 C2658 1.403 . S
C2661 C2662 1.392 . S
C2661 C2665 1.495 . S
C2662 C2661 1.392 . S
C2662 C2663 1.385 . S
C2662 C2664 1.478 . S
C2663 H2657 0.930 . S
C2663 C2659 1.400 . S
C2663 C2662 1.385 . S
C2664 C2662 1.478 . S
C2664 C2666 1.381 . S
C2664 C2670 1.383 . S
C2665 C2661 1.495 . S
C2665 H2671 0.959 . S
C2665 H2672 0.961 . S
C2665 H2673 0.960 . S
C2666 C2664 1.381 . S
C2666 C2667 1.394 . S
C2666 H2674 0.930 . S
C2667 C2666 1.394 . S
C2667 C2668 1.383 . S
C2667 H2675 0.929 . S
C2668 C2667 1.383 . S
C2668 C2669 1.377 . S
C2669 H2653 0.930 . S
C2669 C2668 1.377 . S
C2669 C2670 1.379 . S
C2670 H2654 0.931 . S
C2670 C2664 1.383 . S
C2670 C2669 1.379 . S
H2671 C2665 0.959 . S
H2672 C2665 0.961 . S
H2673 C2665 0.960 . S
H2674 C2666 0.930 . S
H2675 C2667 0.929 . S
H2676 C2684 0.942 . S
H2677 C2686 0.930 . S
H2678 C2688 0.930 . S
H2679 C2691 0.929 . S
H2680 C2694 0.930 . S
H2681 C2696 0.960 . S
H2682 C2696 0.960 . S
H2683 C2696 0.960 . S
C2684 H2676 0.942 . S
C2684 C2685 1.381 . S
C2684 C2686 1.368 1_655 S
C2685 C2684 1.381 . S
C2685 C2691 1.390 1_655 S
C2686 H2677 0.930 . S
C2686 C2684 1.368 1_455 S
C2686 C2687 1.372 . S
C2687 C2686 1.372 . S
C2687 C2688 1.400 . S
C2687 C2692 1.490 . S
C2688 H2678 0.930 . S
C2688 C2687 1.400 . S
C2688 C2691 1.386 . S
H2689 C2705 0.930 . S
H2690 C2706 0.931 . S
C2691 H2679 0.929 . S
C2691 C2685 1.390 1_455 S
C2691 C2688 1.386 . S
C2692 C2687 1.490 . S
C2692 C2694 1.395 . S
C2692 C2695 1.403 . S
H2693 C2699 0.930 . S
C2694 H2680 0.930 . S
C2694 C2692 1.395 . S
C2694 C2697 1.403 . S
C2695 C2692 1.403 . S
C2695 C2696 1.524 . S
C2695 C2699 1.400 . S
C2696 H2681 0.960 . S
C2696 H2682 0.960 . S
C2696 H2683 0.960 . S
C2696 C2695 1.524 . S
C2697 C2694 1.403 . S
C2697 C2698 1.392 . S
C2697 C2701 1.495 . S
C2698 C2697 1.392 . S
C2698 C2699 1.385 . S
C2698 C2700 1.478 . S
C2699 H2693 0.930 . S
C2699 C2695 1.400 . S
C2699 C2698 1.385 . S
C2700 C2698 1.478 . S
C2700 C2702 1.381 . S
C2700 C2706 1.383 . S
C2701 C2697 1.495 . S
C2701 H2707 0.959 . S
C2701 H2708 0.961 . S
C2701 H2709 0.960 . S
C2702 C2700 1.381 . S
C2702 C2703 1.394 . S
C2702 H2710 0.930 . S
C2703 C2702 1.394 . S
C2703 C2704 1.383 . S
C2703 H2711 0.929 . S
C2704 C2703 1.383 . S
C2704 C2705 1.377 . S
C2705 H2689 0.930 . S
C2705 C2704 1.377 . S
C2705 C2706 1.379 . S
C2706 H2690 0.931 . S
C2706 C2700 1.383 . S
C2706 C2705 1.379 . S
H2707 C2701 0.959 . S
H2708 C2701 0.961 . S
H2709 C2701 0.960 . S
H2710 C2702 0.930 . S
H2711 C2703 0.929 . S
H2712 C2720 0.929 . S
H2713 C2722 0.930 . S
H2714 C2724 0.930 . S
H2715 C2727 0.929 . S
H2716 C2730 0.930 . S
H2717 C2732 0.960 . S
H2718 C2732 0.960 . S
H2719 C2732 0.960 . S
C2720 H2712 0.929 . S
C2720 C2721 1.377 . S
C2720 C2722 1.384 . S
C2721 C2720 1.377 . S
C2721 C2727 1.390 . S
C2722 H2713 0.930 . S
C2722 C2720 1.384 . S
C2722 C2723 1.372 . S
C2723 C2722 1.372 . S
C2723 C2724 1.400 . S
C2723 C2728 1.490 . S
C2724 H2714 0.930 . S
C2724 C2723 1.400 . S
C2724 C2727 1.386 . S
H2725 C2741 0.930 . S
H2726 C2742 0.931 . S
C2727 H2715 0.929 . S
C2727 C2721 1.390 . S
C2727 C2724 1.386 . S
C2728 C2723 1.490 . S
C2728 C2730 1.395 . S
C2728 C2731 1.403 . S
H2729 C2735 0.930 . S
C2730 H2716 0.930 . S
C2730 C2728 1.395 . S
C2730 C2733 1.403 . S
C2731 C2728 1.403 . S
C2731 C2732 1.524 . S
C2731 C2735 1.400 . S
C2732 H2717 0.960 . S
C2732 H2718 0.960 . S
C2732 H2719 0.960 . S
C2732 C2731 1.524 . S
C2733 C2730 1.403 . S
C2733 C2734 1.392 . S
C2733 C2737 1.495 . S
C2734 C2733 1.392 . S
C2734 C2735 1.385 . S
C2734 C2736 1.478 . S
C2735 H2729 0.930 . S
C2735 C2731 1.400 . S
C2735 C2734 1.385 . S
C2736 C2734 1.478 . S
C2736 C2738 1.381 . S
C2736 C2742 1.383 . S
C2737 C2733 1.495 . S
C2737 H2743 0.959 . S
C2737 H2744 0.961 . S
C2737 H2745 0.960 . S
C2738 C2736 1.381 . S
C2738 C2739 1.394 . S
C2738 H2746 0.930 . S
C2739 C2738 1.394 . S
C2739 C2740 1.383 . S
C2739 H2747 0.929 . S
C2740 C2739 1.383 . S
C2740 C2741 1.377 . S
C2741 H2725 0.930 . S
C2741 C2740 1.377 . S
C2741 C2742 1.379 . S
C2742 H2726 0.931 . S
C2742 C2736 1.383 . S
C2742 C2741 1.379 . S
H2743 C2737 0.959 . S
H2744 C2737 0.961 . S
H2745 C2737 0.960 . S
H2746 C2738 0.930 . S
H2747 C2739 0.929 . S
H2748 C2756 0.929 . S
H2749 C2758 0.930 . S
H2750 C2760 0.930 . S
H2751 C2763 0.929 . S
H2752 C2766 0.930 . S
H2753 C2768 0.960 . S
H2754 C2768 0.960 . S
H2755 C2768 0.960 . S
C2756 H2748 0.929 . S
C2756 C2757 1.377 . S
C2756 C2758 1.384 . S
C2757 C2756 1.377 . S
C2757 C2763 1.390 . S
C2758 H2749 0.930 . S
C2758 C2756 1.384 . S
C2758 C2759 1.372 . S
C2759 C2758 1.372 . S
C2759 C2760 1.400 . S
C2759 C2764 1.490 . S
C2760 H2750 0.930 . S
C2760 C2759 1.400 . S
C2760 C2763 1.386 . S
H2761 C2777 0.930 . S
H2762 C2778 0.931 . S
C2763 H2751 0.929 . S
C2763 C2757 1.390 . S
C2763 C2760 1.386 . S
C2764 C2759 1.490 . S
C2764 C2766 1.395 . S
C2764 C2767 1.403 . S
H2765 C2771 0.930 . S
C2766 H2752 0.930 . S
C2766 C2764 1.395 . S
C2766 C2769 1.403 . S
C2767 C2764 1.403 . S
C2767 C2768 1.524 . S
C2767 C2771 1.400 . S
C2768 H2753 0.960 . S
C2768 H2754 0.960 . S
C2768 H2755 0.960 . S
C2768 C2767 1.524 . S
C2769 C2766 1.403 . S
C2769 C2770 1.392 . S
C2769 C2773 1.495 . S
C2770 C2769 1.392 . S
C2770 C2771 1.385 . S
C2770 C2772 1.478 . S
C2771 H2765 0.930 . S
C2771 C2767 1.400 . S
C2771 C2770 1.385 . S
C2772 C2770 1.478 . S
C2772 C2774 1.381 . S
C2772 C2778 1.383 . S
C2773 C2769 1.495 . S
C2773 H2779 0.959 . S
C2773 H2780 0.961 . S
C2773 H2781 0.960 . S
C2774 C2772 1.381 . S
C2774 C2775 1.394 . S
C2774 H2782 0.930 . S
C2775 C2774 1.394 . S
C2775 C2776 1.383 . S
C2775 H2783 0.929 . S
C2776 C2775 1.383 . S
C2776 C2777 1.377 . S
C2777 H2761 0.930 . S
C2777 C2776 1.377 . S
C2777 C2778 1.379 . S
C2778 H2762 0.931 . S
C2778 C2772 1.383 . S
C2778 C2777 1.379 . S
H2779 C2773 0.959 . S
H2780 C2773 0.961 . S
H2781 C2773 0.960 . S
H2782 C2774 0.930 . S
H2783 C2775 0.929 . S
H2784 C2792 0.929 . S
H2785 C2794 0.930 . S
H2786 C2796 0.930 . S
H2787 C2799 0.929 . S
H2788 C2802 0.930 . S
H2789 C2804 0.960 . S
H2790 C2804 0.960 . S
H2791 C2804 0.960 . S
C2792 H2784 0.929 . S
C2792 C2793 1.377 . S
C2792 C2794 1.384 . S
C2793 C2792 1.377 . S
C2793 C2799 1.390 . S
C2794 H2785 0.930 . S
C2794 C2792 1.384 . S
C2794 C2795 1.372 . S
C2795 C2794 1.372 . S
C2795 C2796 1.400 . S
C2795 C2800 1.490 . S
C2796 H2786 0.930 . S
C2796 C2795 1.400 . S
C2796 C2799 1.386 . S
H2797 C2813 0.930 . S
H2798 C2814 0.931 . S
C2799 H2787 0.929 . S
C2799 C2793 1.390 . S
C2799 C2796 1.386 . S
C2800 C2795 1.490 . S
C2800 C2802 1.395 . S
C2800 C2803 1.403 . S
H2801 C2807 0.930 . S
C2802 H2788 0.930 . S
C2802 C2800 1.395 . S
C2802 C2805 1.403 1_554 S
C2803 C2800 1.403 . S
C2803 C2804 1.524 . S
C2803 C2807 1.400 1_554 S
C2804 H2789 0.960 . S
C2804 H2790 0.960 . S
C2804 H2791 0.960 . S
C2804 C2803 1.524 . S
C2805 C2802 1.403 1_556 S
C2805 C2806 1.392 . S
C2805 C2809 1.495 . S
C2806 C2805 1.392 . S
C2806 C2807 1.385 . S
C2806 C2808 1.478 . S
C2807 H2801 0.930 . S
C2807 C2803 1.400 1_556 S
C2807 C2806 1.385 . S
C2808 C2806 1.478 . S
C2808 C2810 1.381 . S
C2808 C2814 1.383 . S
C2809 C2805 1.495 . S
C2809 H2815 0.959 . S
C2809 H2816 0.961 . S
C2809 H2817 0.960 . S
C2810 C2808 1.381 . S
C2810 C2811 1.394 . S
C2810 H2818 0.930 . S
C2811 C2810 1.394 . S
C2811 C2812 1.383 . S
C2811 H2819 0.929 . S
C2812 C2811 1.383 . S
C2812 C2813 1.377 . S
C2813 H2797 0.930 . S
C2813 C2812 1.377 . S
C2813 C2814 1.379 . S
C2814 H2798 0.931 . S
C2814 C2808 1.383 . S
C2814 C2813 1.379 . S
H2815 C2809 0.959 . S
H2816 C2809 0.961 . S
H2817 C2809 0.960 . S
H2818 C2810 0.930 . S
H2819 C2811 0.929 . S
H2820 C2828 0.929 . S
H2821 C2830 0.930 . S
H2822 C2832 0.930 . S
H2823 C2835 0.929 . S
H2824 C2838 0.930 . S
H2825 C2840 0.960 . S
H2826 C2840 0.960 . S
H2827 C2840 0.960 . S
C2828 H2820 0.929 . S
C2828 C2829 1.377 . S
C2828 C2830 1.384 . S
C2829 C2828 1.377 . S
C2829 C2835 1.390 . S
C2830 H2821 0.930 . S
C2830 C2828 1.384 . S
C2830 C2831 1.372 . S
C2831 C2830 1.372 . S
C2831 C2832 1.400 . S
C2831 C2836 1.490 . S
C2832 H2822 0.930 . S
C2832 C2831 1.400 . S
C2832 C2835 1.386 . S
H2833 C2849 0.930 . S
H2834 C2850 0.931 . S
C2835 H2823 0.929 . S
C2835 C2829 1.390 . S
C2835 C2832 1.386 . S
C2836 C2831 1.490 . S
C2836 C2838 1.395 1_565 S
C2836 C2839 1.403 . S
H2837 C2843 0.930 . S
C2838 H2824 0.930 . S
C2838 C2836 1.395 1_545 S
C2838 C2841 1.403 . S
C2839 C2836 1.403 . S
C2839 C2840 1.524 . S
C2839 C2843 1.400 . S
C2840 H2825 0.960 . S
C2840 H2826 0.960 . S
C2840 H2827 0.960 . S
C2840 C2839 1.524 . S
C2841 C2838 1.403 . S
C2841 C2842 1.392 . S
C2841 C2845 1.495 . S
C2842 C2841 1.392 . S
C2842 C2843 1.385 1_545 S
C2842 C2844 1.478 . S
C2843 H2837 0.930 . S
C2843 C2839 1.400 . S
C2843 C2842 1.385 1_565 S
C2844 C2842 1.478 . S
C2844 C2846 1.381 . S
C2844 C2850 1.383 . S
C2845 C2841 1.495 . S
C2845 H2851 0.959 . S
C2845 H2852 0.961 . S
C2845 H2853 0.960 . S
C2846 C2844 1.381 . S
C2846 C2847 1.394 . S
C2846 H2854 0.930 . S
C2847 C2846 1.394 . S
C2847 C2848 1.383 . S
C2847 H2855 0.929 . S
C2848 C2847 1.383 . S
C2848 C2849 1.377 . S
C2849 H2833 0.930 . S
C2849 C2848 1.377 . S
C2849 C2850 1.379 . S
C2850 H2834 0.931 . S
C2850 C2844 1.383 . S
C2850 C2849 1.379 . S
H2851 C2845 0.959 . S
H2852 C2845 0.961 . S
H2853 C2845 0.960 . S
H2854 C2846 0.930 . S
H2855 C2847 0.929 . S
H2856 C2864 0.929 . S
H2857 C2866 0.930 . S
H2858 C2868 0.930 . S
H2859 C2871 0.929 . S
H2860 C2874 0.930 . S
H2861 C2876 0.960 . S
H2862 C2876 0.960 . S
H2863 C2876 0.960 . S
C2864 H2856 0.929 . S
C2864 C2865 1.377 . S
C2864 C2866 1.384 . S
C2865 C2864 1.377 . S
C2865 C2871 1.390 . S
C2866 H2857 0.930 . S
C2866 C2864 1.384 . S
C2866 C2867 1.372 . S
C2867 C2866 1.372 . S
C2867 C2868 1.400 . S
C2867 C2872 1.490 . S
C2868 H2858 0.930 . S
C2868 C2867 1.400 . S
C2868 C2871 1.386 . S
H2869 C2885 0.930 . S
H2870 C2886 0.931 . S
C2871 H2859 0.929 . S
C2871 C2865 1.390 . S
C2871 C2868 1.386 . S
C2872 C2867 1.490 . S
C2872 C2874 1.395 . S
C2872 C2875 1.403 . S
H2873 C2879 0.930 . S
C2874 H2860 0.930 . S
C2874 C2872 1.395 . S
C2874 C2877 1.403 . S
C2875 C2872 1.403 . S
C2875 C2876 1.524 . S
C2875 C2879 1.400 . S
C2876 H2861 0.960 . S
C2876 H2862 0.960 . S
C2876 H2863 0.960 . S
C2876 C2875 1.524 . S
C2877 C2874 1.403 . S
C2877 C2878 1.392 . S
C2877 C2881 1.495 . S
C2878 C2877 1.392 . S
C2878 C2879 1.385 . S
C2878 C2880 1.478 . S
C2879 H2873 0.930 . S
C2879 C2875 1.400 . S
C2879 C2878 1.385 . S
C2880 C2878 1.478 . S
C2880 C2882 1.381 . S
C2880 C2886 1.383 . S
C2881 C2877 1.495 . S
C2881 H2887 0.959 . S
C2881 H2888 0.961 . S
C2881 H2889 0.960 . S
C2882 C2880 1.381 . S
C2882 C2883 1.394 . S
C2882 H2890 0.930 . S
C2883 C2882 1.394 . S
C2883 C2884 1.383 . S
C2883 H2891 0.929 . S
C2884 C2883 1.383 . S
C2884 C2885 1.377 . S
C2885 H2869 0.930 . S
C2885 C2884 1.377 . S
C2885 C2886 1.379 . S
C2886 H2870 0.931 . S
C2886 C2880 1.383 . S
C2886 C2885 1.379 . S
H2887 C2881 0.959 . S
H2888 C2881 0.961 . S
H2889 C2881 0.960 . S
H2890 C2882 0.930 . S
H2891 C2883 0.929 . S
H2892 C2900 0.929 . S
H2893 C2902 0.930 . S
H2894 C2904 0.930 . S
H2895 C2907 0.929 . S
H2896 C2910 0.930 . S
H2897 C2912 0.960 . S
H2898 C2912 0.960 . S
H2899 C2912 0.960 . S
C2900 H2892 0.929 . S
C2900 C2901 1.377 . S
C2900 C2902 1.384 . S
C2901 C2900 1.377 . S
C2901 C2907 1.390 . S
C2902 H2893 0.930 . S
C2902 C2900 1.384 . S
C2902 C2903 1.372 . S
C2903 C2902 1.372 . S
C2903 C2904 1.400 . S
C2903 C2908 1.490 . S
C2904 H2894 0.930 . S
C2904 C2903 1.400 . S
C2904 C2907 1.386 . S
H2905 C2921 0.930 . S
H2906 C2922 0.931 . S
C2907 H2895 0.929 . S
C2907 C2901 1.390 . S
C2907 C2904 1.386 . S
C2908 C2903 1.490 . S
C2908 C2910 1.395 . S
C2908 C2911 1.403 1_565 S
H2909 C2915 0.930 . S
C2910 H2896 0.930 . S
C2910 C2908 1.395 . S
C2910 C2913 1.403 . S
C2911 C2908 1.403 1_545 S
C2911 C2912 1.524 . S
C2911 C2915 1.400 . S
C2912 H2897 0.960 . S
C2912 H2898 0.960 . S
C2912 H2899 0.960 . S
C2912 C2911 1.524 . S
C2913 C2910 1.403 . S
C2913 C2914 1.392 1_565 S
C2913 C2917 1.495 . S
C2914 C2913 1.392 1_545 S
C2914 C2915 1.385 . S
C2914 C2916 1.478 . S
C2915 H2909 0.930 . S
C2915 C2911 1.400 . S
C2915 C2914 1.385 . S
C2916 C2914 1.478 . S
C2916 C2918 1.381 . S
C2916 C2922 1.383 . S
C2917 C2913 1.495 . S
C2917 H2923 0.959 . S
C2917 H2924 0.961 . S
C2917 H2925 0.960 . S
C2918 C2916 1.381 . S
C2918 C2919 1.394 . S
C2918 H2926 0.930 . S
C2919 C2918 1.394 . S
C2919 C2920 1.383 . S
C2919 H2927 0.929 . S
C2920 C2919 1.383 . S
C2920 C2921 1.377 . S
C2921 H2905 0.930 . S
C2921 C2920 1.377 . S
C2921 C2922 1.379 . S
C2922 H2906 0.931 . S
C2922 C2916 1.383 . S
C2922 C2921 1.379 . S
H2923 C2917 0.959 . S
H2924 C2917 0.961 . S
H2925 C2917 0.960 . S
H2926 C2918 0.930 . S
H2927 C2919 0.929 . S
H2928 C2936 0.929 . S
H2929 C2938 0.930 . S
H2930 C2940 0.930 . S
H2931 C2943 0.929 . S
H2932 C2946 0.930 . S
H2933 C2948 0.960 . S
H2934 C2948 0.960 . S
H2935 C2948 0.960 . S
C2936 H2928 0.929 . S
C2936 C2937 1.377 . S
C2936 C2938 1.384 . S
C2937 C2936 1.377 . S
C2937 C2943 1.390 . S
C2938 H2929 0.930 . S
C2938 C2936 1.384 . S
C2938 C2939 1.372 . S
C2939 C2938 1.372 . S
C2939 C2940 1.400 . S
C2939 C2944 1.490 . S
C2940 H2930 0.930 . S
C2940 C2939 1.400 . S
C2940 C2943 1.386 . S
H2941 C2957 0.930 . S
H2942 C2958 0.931 . S
C2943 H2931 0.929 . S
C2943 C2937 1.390 . S
C2943 C2940 1.386 . S
C2944 C2939 1.490 . S
C2944 C2946 1.395 . S
C2944 C2947 1.403 . S
H2945 C2951 0.930 . S
C2946 H2932 0.930 . S
C2946 C2944 1.395 . S
C2946 C2949 1.403 1_554 S
C2947 C2944 1.403 . S
C2947 C2948 1.524 . S
C2947 C2951 1.400 1_554 S
C2948 H2933 0.960 . S
C2948 H2934 0.960 . S
C2948 H2935 0.960 . S
C2948 C2947 1.524 . S
C2949 C2946 1.403 1_556 S
C2949 C2950 1.392 . S
C2949 C2953 1.495 . S
C2950 C2949 1.392 . S
C2950 C2951 1.385 . S
C2950 C2952 1.478 . S
C2951 H2945 0.930 . S
C2951 C2947 1.400 1_556 S
C2951 C2950 1.385 . S
C2952 C2950 1.478 . S
C2952 C2954 1.381 . S
C2952 C2958 1.383 . S
C2953 C2949 1.495 . S
C2953 H2959 0.959 . S
C2953 H2960 0.961 . S
C2953 H2961 0.960 . S
C2954 C2952 1.381 . S
C2954 C2955 1.394 . S
C2954 H2962 0.930 . S
C2955 C2954 1.394 . S
C2955 C2956 1.383 . S
C2955 H2963 0.929 . S
C2956 C2955 1.383 . S
C2956 C2957 1.377 . S
C2957 H2941 0.930 . S
C2957 C2956 1.377 . S
C2957 C2958 1.379 . S
C2958 H2942 0.931 . S
C2958 C2952 1.383 . S
C2958 C2957 1.379 . S
H2959 C2953 0.959 . S
H2960 C2953 0.961 . S
H2961 C2953 0.960 . S
H2962 C2954 0.930 . S
H2963 C2955 0.929 . S
H2964 C2972 0.929 . S
H2965 C2974 0.930 . S
H2966 C2976 0.930 . S
H2967 C2979 0.929 . S
H2968 C2982 0.930 . S
H2969 C2984 0.960 . S
H2970 C2984 0.960 . S
H2971 C2984 0.960 . S
C2972 H2964 0.929 . S
C2972 C2973 1.377 . S
C2972 C2974 1.384 . S
C2973 C2972 1.377 . S
C2973 C2979 1.390 . S
C2974 H2965 0.930 . S
C2974 C2972 1.384 . S
C2974 C2975 1.372 . S
C2975 C2974 1.372 . S
C2975 C2976 1.400 . S
C2975 C2980 1.490 . S
C2976 H2966 0.930 . S
C2976 C2975 1.400 . S
C2976 C2979 1.386 . S
H2977 C2993 0.930 . S
H2978 C2994 0.931 . S
C2979 H2967 0.929 . S
C2979 C2973 1.390 . S
C2979 C2976 1.386 . S
C2980 C2975 1.490 . S
C2980 C2982 1.395 . S
C2980 C2983 1.403 1_545 S
H2981 C2987 0.930 . S
C2982 H2968 0.930 . S
C2982 C2980 1.395 . S
C2982 C2985 1.403 . S
C2983 C2980 1.403 1_565 S
C2983 C2984 1.524 . S
C2983 C2987 1.400 . S
C2984 H2969 0.960 . S
C2984 H2970 0.960 . S
C2984 H2971 0.960 . S
C2984 C2983 1.524 . S
C2985 C2982 1.403 . S
C2985 C2986 1.392 1_545 S
C2985 C2989 1.495 . S
C2986 C2985 1.392 1_565 S
C2986 C2987 1.385 . S
C2986 C2988 1.478 . S
C2987 H2981 0.930 . S
C2987 C2983 1.400 . S
C2987 C2986 1.385 . S
C2988 C2986 1.478 . S
C2988 C2990 1.381 . S
C2988 C2994 1.383 . S
C2989 C2985 1.495 . S
C2989 H2995 0.959 . S
C2989 H2996 0.961 . S
C2989 H2997 0.960 . S
C2990 C2988 1.381 . S
C2990 C2991 1.394 . S
C2990 H2998 0.930 . S
C2991 C2990 1.394 . S
C2991 C2992 1.383 . S
C2991 H2999 0.929 . S
C2992 C2991 1.383 . S
C2992 C2993 1.377 . S
C2993 H2977 0.930 . S
C2993 C2992 1.377 . S
C2993 C2994 1.379 . S
C2994 H2978 0.931 . S
C2994 C2988 1.383 . S
C2994 C2993 1.379 . S
H2995 C2989 0.959 . S
H2996 C2989 0.961 . S
H2997 C2989 0.960 . S
H2998 C2990 0.930 . S
H2999 C2991 0.929 . S
H3000 C3008 0.929 . S
H3001 C3010 0.930 . S
H3002 C3012 0.930 . S
H3003 C3015 0.929 . S
H3004 C3018 0.930 . S
H3005 C3020 0.960 . S
H3006 C3020 0.960 . S
H3007 C3020 0.960 . S
C3008 H3000 0.929 . S
C3008 C3009 1.377 . S
C3008 C3010 1.384 . S
C3009 C3008 1.377 . S
C3009 C3015 1.390 . S
C3010 H3001 0.930 . S
C3010 C3008 1.384 . S
C3010 C3011 1.372 . S
C3011 C3010 1.372 . S
C3011 C3012 1.400 . S
C3011 C3016 1.490 . S
C3012 H3002 0.930 . S
C3012 C3011 1.400 . S
C3012 C3015 1.386 . S
H3013 C3029 0.930 . S
H3014 C3030 0.931 . S
C3015 H3003 0.929 . S
C3015 C3009 1.390 . S
C3015 C3012 1.386 . S
C3016 C3011 1.490 . S
C3016 C3018 1.395 . S
C3016 C3019 1.403 . S
H3017 C3023 0.930 . S
C3018 H3004 0.930 . S
C3018 C3016 1.395 . S
C3018 C3021 1.403 . S
C3019 C3016 1.403 . S
C3019 C3020 1.524 . S
C3019 C3023 1.400 . S
C3020 H3005 0.960 . S
C3020 H3006 0.960 . S
C3020 H3007 0.960 . S
C3020 C3019 1.524 . S
C3021 C3018 1.403 . S
C3021 C3022 1.392 . S
C3021 C3025 1.495 . S
C3022 C3021 1.392 . S
C3022 C3023 1.385 . S
C3022 C3024 1.478 . S
C3023 H3017 0.930 . S
C3023 C3019 1.400 . S
C3023 C3022 1.385 . S
C3024 C3022 1.478 . S
C3024 C3026 1.381 . S
C3024 C3030 1.383 . S
C3025 C3021 1.495 . S
C3025 H3031 0.959 . S
C3025 H3032 0.961 . S
C3025 H3033 0.960 . S
C3026 C3024 1.381 . S
C3026 C3027 1.394 . S
C3026 H3034 0.930 . S
C3027 C3026 1.394 . S
C3027 C3028 1.383 . S
C3027 H3035 0.929 . S
C3028 C3027 1.383 . S
C3028 C3029 1.377 . S
C3029 H3013 0.930 . S
C3029 C3028 1.377 . S
C3029 C3030 1.379 . S
C3030 H3014 0.931 . S
C3030 C3024 1.383 . S
C3030 C3029 1.379 . S
H3031 C3025 0.959 . S
H3032 C3025 0.961 . S
H3033 C3025 0.960 . S
H3034 C3026 0.930 . S
H3035 C3027 0.929 . S
H3036 C3044 0.929 . S
H3037 C3046 0.930 . S
H3038 C3048 0.930 . S
H3039 C3051 0.929 . S
H3040 C3054 0.930 . S
H3041 C3056 0.960 . S
H3042 C3056 0.960 . S
H3043 C3056 0.960 . S
C3044 H3036 0.929 . S
C3044 C3045 1.377 . S
C3044 C3046 1.384 . S
C3045 C3044 1.377 . S
C3045 C3051 1.390 . S
C3046 H3037 0.930 . S
C3046 C3044 1.384 . S
C3046 C3047 1.372 . S
C3047 C3046 1.372 . S
C3047 C3048 1.400 . S
C3047 C3052 1.490 . S
C3048 H3038 0.930 . S
C3048 C3047 1.400 . S
C3048 C3051 1.386 . S
H3049 C3065 0.930 . S
H3050 C3066 0.948 . S
C3051 H3039 0.929 . S
C3051 C3045 1.390 . S
C3051 C3048 1.386 . S
C3052 C3047 1.490 . S
C3052 C3054 1.395 . S
C3052 C3055 1.403 1_565 S
H3053 C3059 0.930 . S
C3054 H3040 0.930 . S
C3054 C3052 1.395 . S
C3054 C3057 1.403 . S
C3055 C3052 1.403 1_545 S
C3055 C3056 1.524 . S
C3055 C3059 1.400 . S
C3056 H3041 0.960 . S
C3056 H3042 0.960 . S
C3056 H3043 0.960 . S
C3056 C3055 1.524 . S
C3057 C3054 1.403 . S
C3057 C3058 1.392 1_565 S
C3057 C3061 1.495 . S
C3058 C3057 1.392 1_545 S
C3058 C3059 1.385 . S
C3058 C3060 1.478 . S
C3059 H3053 0.930 . S
C3059 C3055 1.400 . S
C3059 C3058 1.385 . S
C3060 C3058 1.478 . S
C3060 C3062 1.381 . S
C3060 C3066 1.383 . S
C3061 C3057 1.495 . S
C3061 H3067 0.959 . S
C3061 H3068 0.961 . S
C3061 H3069 0.960 . S
C3062 C3060 1.381 . S
C3062 C3063 1.394 . S
C3062 H3070 0.930 . S
C3063 C3062 1.394 . S
C3063 C3064 1.383 . S
C3063 H3071 0.929 . S
C3064 C3063 1.383 . S
C3064 C3065 1.377 . S
C3065 H3049 0.930 . S
C3065 C3064 1.377 . S
C3065 C3066 1.379 . S
C3066 H3050 0.948 . S
C3066 C3060 1.383 . S
C3066 C3065 1.379 . S
H3067 C3061 0.959 . S
H3068 C3061 0.961 . S
H3069 C3061 0.960 . S
H3070 C3062 0.930 . S
H3071 C3063 0.929 . S
H3072 C3080 0.929 . S
H3073 C3082 0.930 . S
H3074 C3084 0.930 . S
H3075 C3087 0.929 . S
H3076 C3090 0.930 . S
H3077 C3092 0.960 . S
H3078 C3092 0.960 . S
H3079 C3092 0.960 . S
C3080 H3072 0.929 . S
C3080 C3081 1.377 . S
C3080 C3082 1.384 . S
C3081 C3080 1.377 . S
C3081 C3087 1.390 . S
C3082 H3073 0.930 . S
C3082 C3080 1.384 . S
C3082 C3083 1.372 . S
C3083 C3082 1.372 . S
C3083 C3084 1.400 . S
C3083 C3088 1.490 . S
C3084 H3074 0.930 . S
C3084 C3083 1.400 . S
C3084 C3087 1.386 . S
H3085 C3101 0.930 . S
H3086 C3102 0.931 . S
C3087 H3075 0.929 . S
C3087 C3081 1.390 . S
C3087 C3084 1.386 . S
C3088 C3083 1.490 . S
C3088 C3090 1.395 . S
C3088 C3091 1.403 . S
H3089 C3095 0.930 . S
C3090 H3076 0.930 . S
C3090 C3088 1.395 . S
C3090 C3093 1.403 . S
C3091 C3088 1.403 . S
C3091 C3092 1.524 . S
C3091 C3095 1.400 . S
C3092 H3077 0.960 . S
C3092 H3078 0.960 . S
C3092 H3079 0.960 . S
C3092 C3091 1.524 . S
C3093 C3090 1.403 . S
C3093 C3094 1.392 . S
C3093 C3097 1.495 . S
C3094 C3093 1.392 . S
C3094 C3095 1.385 . S
C3094 C3096 1.478 . S
C3095 H3089 0.930 . S
C3095 C3091 1.400 . S
C3095 C3094 1.385 . S
C3096 C3094 1.478 . S
C3096 C3098 1.381 . S
C3096 C3102 1.383 . S
C3097 C3093 1.495 . S
C3097 H3103 0.959 . S
C3097 H3104 0.961 . S
C3097 H3105 0.960 . S
C3098 C3096 1.381 . S
C3098 C3099 1.394 . S
C3098 H3106 0.930 . S
C3099 C3098 1.394 . S
C3099 C3100 1.383 . S
C3099 H3107 0.929 . S
C3100 C3099 1.383 . S
C3100 C3101 1.377 . S
C3101 H3085 0.930 . S
C3101 C3100 1.377 . S
C3101 C3102 1.379 . S
C3102 H3086 0.931 . S
C3102 C3096 1.383 . S
C3102 C3101 1.379 . S
H3103 C3097 0.959 . S
H3104 C3097 0.961 . S
H3105 C3097 0.960 . S
H3106 C3098 0.930 . S
H3107 C3099 0.929 . S
H3108 C3116 0.929 . S
H3109 C3118 0.930 . S
H3110 C3120 0.930 . S
H3111 C3123 0.929 . S
H3112 C3126 0.930 . S
H3113 C3128 0.960 . S
H3114 C3128 0.960 . S
H3115 C3128 0.960 . S
C3116 H3108 0.929 . S
C3116 C3117 1.377 . S
C3116 C3118 1.384 . S
C3117 C3116 1.377 . S
C3117 C3123 1.390 . S
C3118 H3109 0.930 . S
C3118 C3116 1.384 . S
C3118 C3119 1.372 . S
C3119 C3118 1.372 . S
C3119 C3120 1.400 . S
C3119 C3124 1.490 . S
C3120 H3110 0.930 . S
C3120 C3119 1.400 . S
C3120 C3123 1.386 . S
H3121 C3137 0.930 . S
H3122 C3138 0.931 . S
C3123 H3111 0.929 . S
C3123 C3117 1.390 . S
C3123 C3120 1.386 . S
C3124 C3119 1.490 . S
C3124 C3126 1.395 . S
C3124 C3127 1.403 . S
H3125 C3131 0.930 . S
C3126 H3112 0.930 . S
C3126 C3124 1.395 . S
C3126 C3129 1.403 . S
C3127 C3124 1.403 . S
C3127 C3128 1.524 . S
C3127 C3131 1.400 . S
C3128 H3113 0.960 . S
C3128 H3114 0.960 . S
C3128 H3115 0.960 . S
C3128 C3127 1.524 . S
C3129 C3126 1.403 . S
C3129 C3130 1.392 . S
C3129 C3133 1.495 . S
C3130 C3129 1.392 . S
C3130 C3131 1.385 . S
C3130 C3132 1.478 . S
C3131 H3125 0.930 . S
C3131 C3127 1.400 . S
C3131 C3130 1.385 . S
C3132 C3130 1.478 . S
C3132 C3134 1.381 . S
C3132 C3138 1.383 . S
C3133 C3129 1.495 . S
C3133 H3139 0.959 . S
C3133 H3140 0.961 . S
C3133 H3141 0.960 . S
C3134 C3132 1.381 . S
C3134 C3135 1.394 . S
C3134 H3142 0.930 . S
C3135 C3134 1.394 . S
C3135 C3136 1.383 . S
C3135 H3143 0.929 . S
C3136 C3135 1.383 . S
C3136 C3137 1.377 . S
C3137 H3121 0.930 . S
C3137 C3136 1.377 . S
C3137 C3138 1.379 . S
C3138 H3122 0.931 . S
C3138 C3132 1.383 . S
C3138 C3137 1.379 . S
H3139 C3133 0.959 . S
H3140 C3133 0.961 . S
H3141 C3133 0.960 . S
H3142 C3134 0.930 . S
H3143 C3135 0.929 . S
H3144 C3152 0.929 . S
H3145 C3154 0.930 . S
H3146 C3156 0.930 . S
H3147 C3159 0.929 . S
H3148 C3162 0.930 . S
H3149 C3164 0.926 1_556 S
H3150 C3164 0.960 . S
H3151 C3164 0.960 . S
C3152 H3144 0.929 . S
C3152 C3153 1.377 . S
C3152 C3154 1.384 . S
C3153 C3152 1.377 . S
C3153 C3159 1.390 . S
C3154 H3145 0.930 . S
C3154 C3152 1.384 . S
C3154 C3155 1.372 . S
C3155 C3154 1.372 . S
C3155 C3156 1.400 . S
C3155 C3160 1.490 . S
C3156 H3146 0.930 . S
C3156 C3155 1.400 . S
C3156 C3159 1.386 . S
H3157 C3173 0.930 . S
H3158 C3174 0.931 . S
C3159 H3147 0.929 . S
C3159 C3153 1.390 . S
C3159 C3156 1.386 . S
C3160 C3155 1.490 . S
C3160 C3162 1.395 . S
C3160 C3163 1.403 . S
H3161 C3167 0.930 . S
C3162 H3148 0.930 . S
C3162 C3160 1.395 . S
C3162 C3165 1.403 1_554 S
C3163 C3160 1.403 . S
C3163 C3164 1.524 . S
C3163 C3167 1.400 1_554 S
C3164 H3149 0.926 1_554 S
C3164 H3150 0.960 . S
C3164 H3151 0.960 . S
C3164 C3163 1.524 . S
C3165 C3162 1.403 1_556 S
C3165 C3166 1.392 . S
C3165 C3169 1.495 . S
C3166 C3165 1.392 . S
C3166 C3167 1.385 . S
C3166 C3168 1.478 . S
C3167 H3161 0.930 . S
C3167 C3163 1.400 1_556 S
C3167 C3166 1.385 . S
C3168 C3166 1.478 . S
C3168 C3170 1.381 . S
C3168 C3174 1.383 . S
C3169 C3165 1.495 . S
C3169 H3175 0.959 1_556 S
C3169 H3176 0.961 . S
C3169 H3177 0.960 . S
C3170 C3168 1.381 . S
C3170 C3171 1.394 . S
C3170 H3178 0.930 . S
C3171 C3170 1.394 . S
C3171 C3172 1.383 . S
C3171 H3179 0.929 . S
C3172 C3171 1.383 . S
C3172 C3173 1.377 . S
C3173 H3157 0.930 . S
C3173 C3172 1.377 . S
C3173 C3174 1.379 . S
C3174 H3158 0.931 . S
C3174 C3168 1.383 . S
C3174 C3173 1.379 . S
H3175 C3169 0.959 1_554 S
H3176 C3169 0.961 . S
H3177 C3169 0.960 . S
H3178 C3170 0.930 . S
H3179 C3171 0.929 . S
H3180 C3188 0.929 . S
H3181 C3190 0.930 . S
H3182 C3192 0.930 . S
H3183 C3195 0.929 . S
H3184 C3198 0.930 . S
H3185 C3200 0.960 . S
H3186 C3200 0.960 . S
H3187 C3200 0.960 . S
C3188 H3180 0.929 . S
C3188 C3189 1.377 . S
C3188 C3190 1.384 . S
C3189 C3188 1.377 . S
C3189 C3195 1.390 . S
C3190 H3181 0.930 . S
C3190 C3188 1.384 . S
C3190 C3191 1.372 . S
C3191 C3190 1.372 . S
C3191 C3192 1.400 . S
C3191 C3196 1.490 . S
C3192 H3182 0.930 . S
C3192 C3191 1.400 . S
C3192 C3195 1.386 . S
H3193 C3209 0.930 . S
H3194 C3210 0.931 . S
C3195 H3183 0.929 . S
C3195 C3189 1.390 . S
C3195 C3192 1.386 . S
C3196 C3191 1.490 . S
C3196 C3198 1.395 . S
C3196 C3199 1.403 . S
H3197 C3203 0.930 . S
C3198 H3184 0.930 . S
C3198 C3196 1.395 . S
C3198 C3201 1.403 . S
C3199 C3196 1.403 . S
C3199 C3200 1.524 . S
C3199 C3203 1.400 . S
C3200 H3185 0.960 . S
C3200 H3186 0.960 . S
C3200 H3187 0.960 . S
C3200 C3199 1.524 . S
C3201 C3198 1.403 . S
C3201 C3202 1.392 . S
C3201 C3205 1.495 . S
C3202 C3201 1.392 . S
C3202 C3203 1.385 . S
C3202 C3204 1.478 . S
C3203 H3197 0.930 . S
C3203 C3199 1.400 . S
C3203 C3202 1.385 . S
C3204 C3202 1.478 . S
C3204 C3206 1.381 . S
C3204 C3210 1.383 . S
C3205 C3201 1.495 . S
C3205 H3211 0.959 . S
C3205 H3212 0.961 . S
C3205 H3213 0.960 . S
C3206 C3204 1.381 . S
C3206 C3207 1.394 . S
C3206 H3214 0.930 . S
C3207 C3206 1.394 . S
C3207 C3208 1.383 . S
C3207 H3215 0.929 . S
C3208 C3207 1.383 . S
C3208 C3209 1.377 . S
C3209 H3193 0.930 . S
C3209 C3208 1.377 . S
C3209 C3210 1.379 . S
C3210 H3194 0.931 . S
C3210 C3204 1.383 . S
C3210 C3209 1.379 . S
H3211 C3205 0.959 . S
H3212 C3205 0.961 . S
H3213 C3205 0.960 . S
H3214 C3206 0.930 . S
H3215 C3207 0.929 . S
H3216 C3224 0.929 . S
H3217 C3226 0.930 . S
H3218 C3228 0.930 . S
H3219 C3231 0.929 . S
H3220 C3234 0.930 . S
H3221 C3236 0.960 . S
H3222 C3236 0.960 . S
H3223 C3236 0.960 . S
C3224 H3216 0.929 . S
C3224 C3225 1.377 . S
C3224 C3226 1.384 . S
C3225 C3224 1.377 . S
C3225 C3231 1.390 . S
C3226 H3217 0.930 . S
C3226 C3224 1.384 . S
C3226 C3227 1.372 . S
C3227 C3226 1.372 . S
C3227 C3228 1.400 . S
C3227 C3232 1.490 . S
C3228 H3218 0.930 . S
C3228 C3227 1.400 . S
C3228 C3231 1.386 . S
H3229 C3245 0.930 . S
H3230 C3246 0.931 . S
C3231 H3219 0.929 . S
C3231 C3225 1.390 . S
C3231 C3228 1.386 . S
C3232 C3227 1.490 . S
C3232 C3234 1.395 . S
C3232 C3235 1.403 . S
H3233 C3239 0.930 . S
C3234 H3220 0.930 . S
C3234 C3232 1.395 . S
C3234 C3237 1.403 . S
C3235 C3232 1.403 . S
C3235 C3236 1.524 . S
C3235 C3239 1.400 . S
C3236 H3221 0.960 . S
C3236 H3222 0.960 . S
C3236 H3223 0.960 . S
C3236 C3235 1.524 . S
C3237 C3234 1.403 . S
C3237 C3238 1.392 . S
C3237 C3241 1.495 . S
C3238 C3237 1.392 . S
C3238 C3239 1.385 . S
C3238 C3240 1.478 . S
C3239 H3233 0.930 . S
C3239 C3235 1.400 . S
C3239 C3238 1.385 . S
C3240 C3238 1.478 . S
C3240 C3242 1.381 . S
C3240 C3246 1.383 . S
C3241 C3237 1.495 . S
C3241 H3247 0.959 . S
C3241 H3248 0.961 . S
C3241 H3249 0.960 . S
C3242 C3240 1.381 . S
C3242 C3243 1.394 . S
C3242 H3250 0.930 . S
C3243 C3242 1.394 . S
C3243 C3244 1.383 . S
C3243 H3251 0.929 . S
C3244 C3243 1.383 . S
C3244 C3245 1.377 . S
C3245 H3229 0.930 . S
C3245 C3244 1.377 . S
C3245 C3246 1.379 . S
C3246 H3230 0.931 . S
C3246 C3240 1.383 . S
C3246 C3245 1.379 . S
H3247 C3241 0.959 . S
H3248 C3241 0.961 . S
H3249 C3241 0.960 . S
H3250 C3242 0.930 . S
H3251 C3243 0.929 . S
H3252 C3260 0.929 . S
H3253 C3262 0.930 . S
H3254 C3264 0.930 . S
H3255 C3267 0.929 . S
H3256 C3270 0.930 . S
H3257 C3272 0.960 . S
H3258 C3272 0.960 . S
H3259 C3272 0.960 . S
C3260 H3252 0.929 . S
C3260 C3261 1.377 . S
C3260 C3262 1.384 . S
C3261 C3260 1.377 . S
C3261 C3267 1.390 . S
C3262 H3253 0.930 . S
C3262 C3260 1.384 . S
C3262 C3263 1.372 . S
C3263 C3262 1.372 . S
C3263 C3264 1.400 . S
C3263 C3268 1.490 . S
C3264 H3254 0.930 . S
C3264 C3263 1.400 . S
C3264 C3267 1.386 . S
H3265 C3281 0.930 . S
H3266 C3282 0.931 . S
C3267 H3255 0.929 . S
C3267 C3261 1.390 . S
C3267 C3264 1.386 . S
C3268 C3263 1.490 . S
C3268 C3270 1.395 . S
C3268 C3271 1.403 . S
H3269 C3275 0.930 . S
C3270 H3256 0.930 . S
C3270 C3268 1.395 . S
C3270 C3273 1.403 . S
C3271 C3268 1.403 . S
C3271 C3272 1.524 . S
C3271 C3275 1.400 . S
C3272 H3257 0.960 . S
C3272 H3258 0.960 . S
C3272 H3259 0.960 . S
C3272 C3271 1.524 . S
C3273 C3270 1.403 . S
C3273 C3274 1.392 . S
C3273 C3277 1.495 . S
C3274 C3273 1.392 . S
C3274 C3275 1.385 . S
C3274 C3276 1.478 . S
C3275 H3269 0.930 . S
C3275 C3271 1.400 . S
C3275 C3274 1.385 . S
C3276 C3274 1.478 . S
C3276 C3278 1.381 . S
C3276 C3282 1.383 . S
C3277 C3273 1.495 . S
C3277 H3283 0.959 . S
C3277 H3284 0.961 . S
C3277 H3285 0.960 . S
C3278 C3276 1.381 . S
C3278 C3279 1.394 . S
C3278 H3286 0.930 . S
C3279 C3278 1.394 . S
C3279 C3280 1.383 . S
C3279 H3287 0.929 . S
C3280 C3279 1.383 . S
C3280 C3281 1.377 . S
C3281 H3265 0.930 . S
C3281 C3280 1.377 . S
C3281 C3282 1.379 . S
C3282 H3266 0.931 . S
C3282 C3276 1.383 . S
C3282 C3281 1.379 . S
H3283 C3277 0.959 . S
H3284 C3277 0.961 . S
H3285 C3277 0.960 . S
H3286 C3278 0.930 . S
H3287 C3279 0.929 . S
H3288 C3296 0.929 . S
H3289 C3298 0.930 . S
H3290 C3300 0.930 . S
H3291 C3303 0.929 . S
H3292 C3306 0.930 . S
H3293 C3308 0.960 . S
H3294 C3308 0.960 . S
H3295 C3308 0.960 . S
C3296 H3288 0.929 . S
C3296 C3297 1.377 . S
C3296 C3298 1.384 . S
C3297 C3296 1.377 . S
C3297 C3303 1.390 . S
C3298 H3289 0.930 . S
C3298 C3296 1.384 . S
C3298 C3299 1.372 . S
C3299 C3298 1.372 . S
C3299 C3300 1.400 . S
C3299 C3304 1.490 . S
C3300 H3290 0.930 . S
C3300 C3299 1.400 . S
C3300 C3303 1.386 . S
H3301 C3317 0.930 . S
H3302 C3318 0.931 . S
C3303 H3291 0.929 . S
C3303 C3297 1.390 . S
C3303 C3300 1.386 . S
C3304 C3299 1.490 . S
C3304 C3306 1.395 . S
C3304 C3307 1.403 . S
H3305 C3311 0.930 . S
C3306 H3292 0.930 . S
C3306 C3304 1.395 . S
C3306 C3309 1.403 1_556 S
C3307 C3304 1.403 . S
C3307 C3308 1.524 . S
C3307 C3311 1.400 1_556 S
C3308 H3293 0.960 . S
C3308 H3294 0.960 . S
C3308 H3295 0.960 . S
C3308 C3307 1.524 . S
C3309 C3306 1.403 1_554 S
C3309 C3310 1.392 . S
C3309 C3313 1.495 . S
C3310 C3309 1.392 . S
C3310 C3311 1.385 . S
C3310 C3312 1.478 . S
C3311 H3305 0.930 . S
C3311 C3307 1.400 1_554 S
C3311 C3310 1.385 . S
C3312 C3310 1.478 . S
C3312 C3314 1.381 . S
C3312 C3318 1.383 . S
C3313 C3309 1.495 . S
C3313 H3319 0.959 . S
C3313 H3320 0.961 . S
C3313 H3321 0.960 . S
C3314 C3312 1.381 . S
C3314 C3315 1.394 . S
C3314 H3322 0.930 . S
C3315 C3314 1.394 . S
C3315 C3316 1.383 . S
C3315 H3323 0.929 . S
C3316 C3315 1.383 . S
C3316 C3317 1.377 . S
C3317 H3301 0.930 . S
C3317 C3316 1.377 . S
C3317 C3318 1.379 . S
C3318 H3302 0.931 . S
C3318 C3312 1.383 . S
C3318 C3317 1.379 . S
H3319 C3313 0.959 . S
H3320 C3313 0.961 . S
H3321 C3313 0.960 . S
H3322 C3314 0.930 . S
H3323 C3315 0.929 . S
H3324 C3332 0.929 . S
H3325 C3334 0.930 . S
H3326 C3336 0.930 . S
H3327 C3339 0.929 . S
H3328 C3342 0.930 . S
H3329 C3344 0.960 . S
H3330 C3344 0.960 . S
H3331 C3344 0.960 . S
C3332 H3324 0.929 . S
C3332 C3333 1.377 . S
C3332 C3334 1.384 . S
C3333 C3332 1.377 . S
C3333 C3339 1.390 . S
C3334 H3325 0.930 . S
C3334 C3332 1.384 . S
C3334 C3335 1.372 . S
C3335 C3334 1.372 . S
C3335 C3336 1.400 . S
C3335 C3340 1.490 . S
C3336 H3326 0.930 . S
C3336 C3335 1.400 . S
C3336 C3339 1.386 . S
H3337 C3353 0.930 . S
H3338 C3354 0.931 . S
C3339 H3327 0.929 . S
C3339 C3333 1.390 . S
C3339 C3336 1.386 . S
C3340 C3335 1.490 . S
C3340 C3342 1.395 . S
C3340 C3343 1.403 . S
H3341 C3347 0.930 . S
C3342 H3328 0.930 . S
C3342 C3340 1.395 . S
C3342 C3345 1.403 . S
C3343 C3340 1.403 . S
C3343 C3344 1.524 . S
C3343 C3347 1.400 . S
C3344 H3329 0.960 . S
C3344 H3330 0.960 . S
C3344 H3331 0.960 . S
C3344 C3343 1.524 . S
C3345 C3342 1.403 . S
C3345 C3346 1.392 . S
C3345 C3349 1.495 . S
C3346 C3345 1.392 . S
C3346 C3347 1.385 . S
C3346 C3348 1.478 . S
C3347 H3341 0.930 . S
C3347 C3343 1.400 . S
C3347 C3346 1.385 . S
C3348 C3346 1.478 . S
C3348 C3350 1.381 . S
C3348 C3354 1.383 . S
C3349 C3345 1.495 . S
C3349 H3355 0.959 . S
C3349 H3356 0.961 . S
C3349 H3357 0.960 . S
C3350 C3348 1.381 . S
C3350 C3351 1.394 . S
C3350 H3358 0.930 . S
C3351 C3350 1.394 . S
C3351 C3352 1.383 . S
C3351 H3359 0.929 . S
C3352 C3351 1.383 . S
C3352 C3353 1.377 . S
C3353 H3337 0.930 . S
C3353 C3352 1.377 . S
C3353 C3354 1.379 . S
C3354 H3338 0.931 . S
C3354 C3348 1.383 . S
C3354 C3353 1.379 . S
H3355 C3349 0.959 . S
H3356 C3349 0.961 . S
H3357 C3349 0.960 . S
H3358 C3350 0.930 . S
H3359 C3351 0.929 . S
H3360 C3368 0.929 . S
H3361 C3370 0.930 . S
H3362 C3372 0.930 . S
H3363 C3375 0.929 . S
H3364 C3378 0.930 . S
H3365 C3380 0.960 . S
H3366 C3380 0.960 . S
H3367 C3380 0.960 . S
C3368 H3360 0.929 . S
C3368 C3369 1.377 . S
C3368 C3370 1.384 . S
C3369 C3368 1.377 . S
C3369 C3375 1.390 . S
C3370 H3361 0.930 . S
C3370 C3368 1.384 . S
C3370 C3371 1.372 . S
C3371 C3370 1.372 . S
C3371 C3372 1.400 . S
C3371 C3376 1.490 . S
C3372 H3362 0.930 . S
C3372 C3371 1.400 . S
C3372 C3375 1.386 . S
H3373 C3389 0.930 . S
H3374 C3390 0.931 . S
C3375 H3363 0.929 . S
C3375 C3369 1.390 . S
C3375 C3372 1.386 . S
C3376 C3371 1.490 . S
C3376 C3378 1.395 . S
C3376 C3379 1.403 . S
H3377 C3383 0.930 . S
C3378 H3364 0.930 . S
C3378 C3376 1.395 . S
C3378 C3381 1.403 . S
C3379 C3376 1.403 . S
C3379 C3380 1.524 . S
C3379 C3383 1.400 . S
C3380 H3365 0.960 . S
C3380 H3366 0.960 . S
C3380 H3367 0.960 . S
C3380 C3379 1.524 . S
C3381 C3378 1.403 . S
C3381 C3382 1.392 . S
C3381 C3385 1.495 . S
C3382 C3381 1.392 . S
C3382 C3383 1.385 . S
C3382 C3384 1.478 . S
C3383 H3377 0.930 . S
C3383 C3379 1.400 . S
C3383 C3382 1.385 . S
C3384 C3382 1.478 . S
C3384 C3386 1.381 . S
C3384 C3390 1.383 . S
C3385 C3381 1.495 . S
C3385 H3391 0.959 . S
C3385 H3392 0.961 . S
C3385 H3393 0.960 . S
C3386 C3384 1.381 . S
C3386 C3387 1.394 . S
C3386 H3394 0.930 . S
C3387 C3386 1.394 . S
C3387 C3388 1.383 . S
C3387 H3395 0.929 . S
C3388 C3387 1.383 . S
C3388 C3389 1.377 . S
C3389 H3373 0.930 . S
C3389 C3388 1.377 . S
C3389 C3390 1.379 . S
C3390 H3374 0.931 . S
C3390 C3384 1.383 . S
C3390 C3389 1.379 . S
H3391 C3385 0.959 . S
H3392 C3385 0.961 . S
H3393 C3385 0.960 . S
H3394 C3386 0.930 . S
H3395 C3387 0.929 . S
H3396 C3404 0.929 . S
H3397 C3406 0.930 . S
H3398 C3408 0.930 . S
H3399 C3411 0.929 . S
H3400 C3414 0.930 . S
H3401 C3416 0.960 . S
H3402 C3416 0.960 . S
H3403 C3416 0.960 . S
C3404 H3396 0.929 . S
C3404 C3405 1.377 . S
C3404 C3406 1.384 . S
C3405 C3404 1.377 . S
C3405 C3411 1.390 . S
C3406 H3397 0.930 . S
C3406 C3404 1.384 . S
C3406 C3407 1.372 . S
C3407 C3406 1.372 . S
C3407 C3408 1.400 . S
C3407 C3412 1.490 . S
C3408 H3398 0.930 . S
C3408 C3407 1.400 . S
C3408 C3411 1.386 . S
H3409 C3425 0.930 . S
H3410 C3426 0.931 . S
C3411 H3399 0.929 . S
C3411 C3405 1.390 . S
C3411 C3408 1.386 . S
C3412 C3407 1.490 . S
C3412 C3414 1.395 . S
C3412 C3415 1.403 . S
H3413 C3419 0.930 . S
C3414 H3400 0.930 . S
C3414 C3412 1.395 . S
C3414 C3417 1.403 . S
C3415 C3412 1.403 . S
C3415 C3416 1.524 . S
C3415 C3419 1.400 . S
C3416 H3401 0.960 . S
C3416 H3402 0.960 . S
C3416 H3403 0.960 . S
C3416 C3415 1.524 . S
C3417 C3414 1.403 . S
C3417 C3418 1.392 . S
C3417 C3421 1.495 . S
C3418 C3417 1.392 . S
C3418 C3419 1.385 . S
C3418 C3420 1.478 . S
C3419 H3413 0.930 . S
C3419 C3415 1.400 . S
C3419 C3418 1.385 . S
C3420 C3418 1.478 . S
C3420 C3422 1.381 . S
C3420 C3426 1.383 . S
C3421 C3417 1.495 . S
C3421 H3427 0.959 . S
C3421 H3428 0.961 . S
C3421 H3429 0.960 . S
C3422 C3420 1.381 . S
C3422 C3423 1.394 . S
C3422 H3430 0.930 . S
C3423 C3422 1.394 . S
C3423 C3424 1.383 . S
C3423 H3431 0.929 . S
C3424 C3423 1.383 . S
C3424 C3425 1.377 . S
C3425 H3409 0.930 . S
C3425 C3424 1.377 . S
C3425 C3426 1.379 . S
C3426 H3410 0.931 . S
C3426 C3420 1.383 . S
C3426 C3425 1.379 . S
H3427 C3421 0.959 . S
H3428 C3421 0.961 . S
H3429 C3421 0.960 . S
H3430 C3422 0.930 . S
H3431 C3423 0.929 . S
H3432 C3440 0.929 . S
H3433 C3442 0.930 . S
H3434 C3444 0.930 . S
H3435 C3447 0.929 . S
H3436 C3450 0.930 . S
H3437 C3452 0.960 . S
H3438 C3452 0.960 . S
H3439 C3452 0.960 . S
C3440 H3432 0.929 . S
C3440 C3441 1.377 . S
C3440 C3442 1.384 . S
C3441 C3440 1.377 . S
C3441 C3447 1.390 . S
C3442 H3433 0.930 . S
C3442 C3440 1.384 . S
C3442 C3443 1.372 . S
C3443 C3442 1.372 . S
C3443 C3444 1.400 . S
C3443 C3448 1.490 . S
C3444 H3434 0.930 . S
C3444 C3443 1.400 . S
C3444 C3447 1.386 . S
H3445 C3461 0.930 . S
H3446 C3462 0.931 . S
C3447 H3435 0.929 . S
C3447 C3441 1.390 . S
C3447 C3444 1.386 . S
C3448 C3443 1.490 . S
C3448 C3450 1.395 . S
C3448 C3451 1.403 . S
H3449 C3455 0.930 . S
C3450 H3436 0.930 . S
C3450 C3448 1.395 . S
C3450 C3453 1.403 . S
C3451 C3448 1.403 . S
C3451 C3452 1.524 . S
C3451 C3455 1.400 . S
C3452 H3437 0.960 . S
C3452 H3438 0.960 . S
C3452 H3439 0.960 . S
C3452 C3451 1.524 . S
C3453 C3450 1.403 . S
C3453 C3454 1.392 . S
C3453 C3457 1.495 . S
C3454 C3453 1.392 . S
C3454 C3455 1.385 . S
C3454 C3456 1.478 . S
C3455 H3449 0.930 . S
C3455 C3451 1.400 . S
C3455 C3454 1.385 . S
C3456 C3454 1.478 . S
C3456 C3458 1.381 . S
C3456 C3462 1.383 . S
C3457 C3453 1.495 . S
C3457 H3463 0.959 . S
C3457 H3464 0.961 . S
C3457 H3465 0.960 . S
C3458 C3456 1.381 . S
C3458 C3459 1.394 . S
C3458 H3466 0.930 . S
C3459 C3458 1.394 . S
C3459 C3460 1.383 . S
C3459 H3467 0.929 . S
C3460 C3459 1.383 . S
C3460 C3461 1.377 . S
C3461 H3445 0.930 . S
C3461 C3460 1.377 . S
C3461 C3462 1.379 . S
C3462 H3446 0.931 . S
C3462 C3456 1.383 . S
C3462 C3461 1.379 . S
H3463 C3457 0.959 . S
H3464 C3457 0.961 . S
H3465 C3457 0.960 . S
H3466 C3458 0.930 . S
H3467 C3459 0.929 . S
H3468 C3476 0.929 . S
H3469 C3478 0.930 . S
H3470 C3480 0.930 . S
H3471 C3483 0.929 1_565 S
H3472 C3486 0.930 . S
H3473 C3488 0.960 . S
H3474 C3488 0.960 . S
H3475 C3488 0.960 . S
C3476 H3468 0.929 . S
C3476 C3477 1.377 . S
C3476 C3478 1.384 . S
C3477 C3476 1.377 . S
C3477 C3483 1.390 . S
C3478 H3469 0.930 . S
C3478 C3476 1.384 . S
C3478 C3479 1.372 . S
C3479 C3478 1.372 . S
C3479 C3480 1.400 . S
C3479 C3484 1.490 . S
C3480 H3470 0.930 . S
C3480 C3479 1.400 . S
C3480 C3483 1.386 . S
H3481 C3497 0.930 . S
H3482 C3498 0.931 . S
C3483 H3471 0.929 1_545 S
C3483 C3477 1.390 . S
C3483 C3480 1.386 . S
C3484 C3479 1.490 . S
C3484 C3486 1.395 . S
C3484 C3487 1.403 . S
H3485 C3491 0.930 . S
C3486 H3472 0.930 . S
C3486 C3484 1.395 . S
C3486 C3489 1.403 . S
C3487 C3484 1.403 . S
C3487 C3488 1.524 . S
C3487 C3491 1.400 . S
C3488 H3473 0.960 . S
C3488 H3474 0.960 . S
C3488 H3475 0.960 . S
C3488 C3487 1.524 . S
C3489 C3486 1.403 . S
C3489 C3490 1.392 . S
C3489 C3493 1.495 . S
C3490 C3489 1.392 . S
C3490 C3491 1.385 . S
C3490 C3492 1.478 . S
C3491 H3485 0.930 . S
C3491 C3487 1.400 . S
C3491 C3490 1.385 . S
C3492 C3490 1.478 . S
C3492 C3494 1.381 . S
C3492 C3498 1.383 . S
C3493 C3489 1.495 . S
C3493 H3499 0.959 . S
C3493 H3500 0.961 . S
C3493 H3501 0.960 . S
C3494 C3492 1.381 . S
C3494 C3495 1.394 . S
C3494 H3502 0.930 . S
C3495 C3494 1.394 . S
C3495 C3496 1.383 . S
C3495 H3503 0.929 . S
C3496 C3495 1.383 . S
C3496 C3497 1.377 . S
C3497 H3481 0.930 . S
C3497 C3496 1.377 . S
C3497 C3498 1.379 . S
C3498 H3482 0.931 . S
C3498 C3492 1.383 . S
C3498 C3497 1.379 . S
H3499 C3493 0.959 . S
H3500 C3493 0.961 . S
H3501 C3493 0.960 . S
H3502 C3494 0.930 . S
H3503 C3495 0.929 . S
H3504 C3512 0.929 . S
H3505 C3514 0.930 . S
H3506 C3516 0.930 . S
H3507 C3519 0.929 . S
H3508 C3522 0.930 . S
H3509 C3524 0.960 . S
H3510 C3524 0.960 . S
H3511 C3524 0.960 . S
C3512 H3504 0.929 . S
C3512 C3513 1.377 . S
C3512 C3514 1.384 . S
C3513 C3512 1.377 . S
C3513 C3519 1.390 . S
C3514 H3505 0.930 . S
C3514 C3512 1.384 . S
C3514 C3515 1.372 . S
C3515 C3514 1.372 . S
C3515 C3516 1.400 . S
C3515 C3520 1.490 . S
C3516 H3506 0.930 . S
C3516 C3515 1.400 . S
C3516 C3519 1.386 . S
H3517 C3533 0.930 . S
H3518 C3534 0.931 . S
C3519 H3507 0.929 . S
C3519 C3513 1.390 . S
C3519 C3516 1.386 . S
C3520 C3515 1.490 . S
C3520 C3522 1.395 . S
C3520 C3523 1.403 . S
H3521 C3527 0.930 . S
C3522 H3508 0.930 . S
C3522 C3520 1.395 . S
C3522 C3525 1.403 . S
C3523 C3520 1.403 . S
C3523 C3524 1.524 . S
C3523 C3527 1.400 . S
C3524 H3509 0.960 . S
C3524 H3510 0.960 . S
C3524 H3511 0.960 . S
C3524 C3523 1.524 . S
C3525 C3522 1.403 . S
C3525 C3526 1.392 . S
C3525 C3529 1.495 . S
C3526 C3525 1.392 . S
C3526 C3527 1.385 . S
C3526 C3528 1.478 . S
C3527 H3521 0.930 . S
C3527 C3523 1.400 . S
C3527 C3526 1.385 . S
C3528 C3526 1.478 . S
C3528 C3530 1.381 . S
C3528 C3534 1.383 . S
C3529 C3525 1.495 . S
C3529 H3535 0.959 . S
C3529 H3536 0.961 . S
C3529 H3537 0.960 . S
C3530 C3528 1.381 . S
C3530 C3531 1.394 . S
C3530 H3538 0.930 . S
C3531 C3530 1.394 . S
C3531 C3532 1.383 . S
C3531 H3539 0.929 . S
C3532 C3531 1.383 . S
C3532 C3533 1.377 . S
C3533 H3517 0.930 . S
C3533 C3532 1.377 . S
C3533 C3534 1.379 . S
C3534 H3518 0.931 . S
C3534 C3528 1.383 . S
C3534 C3533 1.379 . S
H3535 C3529 0.959 . S
H3536 C3529 0.961 . S
H3537 C3529 0.960 . S
H3538 C3530 0.930 . S
H3539 C3531 0.929 . S
H3540 C3548 0.929 . S
H3541 C3550 0.930 . S
H3542 C3552 0.930 . S
H3543 C3555 0.929 . S
H3544 C3558 0.930 . S
H3545 C3560 0.960 . S
H3546 C3560 0.960 . S
H3547 C3560 0.960 . S
C3548 H3540 0.929 . S
C3548 C3549 1.377 . S
C3548 C3550 1.384 . S
C3549 C3548 1.377 . S
C3549 C3555 1.390 . S
C3550 H3541 0.930 . S
C3550 C3548 1.384 . S
C3550 C3551 1.372 . S
C3551 C3550 1.372 . S
C3551 C3552 1.400 . S
C3551 C3556 1.490 . S
C3552 H3542 0.930 . S
C3552 C3551 1.400 . S
C3552 C3555 1.386 . S
H3553 C3569 0.930 . S
H3554 C3570 0.931 . S
C3555 H3543 0.929 . S
C3555 C3549 1.390 . S
C3555 C3552 1.386 . S
C3556 C3551 1.490 . S
C3556 C3558 1.395 . S
C3556 C3559 1.403 . S
H3557 C3563 0.930 . S
C3558 H3544 0.930 . S
C3558 C3556 1.395 . S
C3558 C3561 1.403 . S
C3559 C3556 1.403 . S
C3559 C3560 1.524 . S
C3559 C3563 1.400 . S
C3560 H3545 0.960 . S
C3560 H3546 0.960 . S
C3560 H3547 0.960 . S
C3560 C3559 1.524 . S
C3561 C3558 1.403 . S
C3561 C3562 1.392 . S
C3561 C3565 1.495 . S
C3562 C3561 1.392 . S
C3562 C3563 1.385 . S
C3562 C3564 1.478 . S
C3563 H3557 0.930 . S
C3563 C3559 1.400 . S
C3563 C3562 1.385 . S
C3564 C3562 1.478 . S
C3564 C3566 1.381 . S
C3564 C3570 1.383 . S
C3565 C3561 1.495 . S
C3565 H3571 0.959 . S
C3565 H3572 0.961 . S
C3565 H3573 0.960 . S
C3566 C3564 1.381 . S
C3566 C3567 1.394 . S
C3566 H3574 0.930 . S
C3567 C3566 1.394 . S
C3567 C3568 1.383 . S
C3567 H3575 0.929 . S
C3568 C3567 1.383 . S
C3568 C3569 1.377 . S
C3569 H3553 0.930 . S
C3569 C3568 1.377 . S
C3569 C3570 1.379 . S
C3570 H3554 0.931 . S
C3570 C3564 1.383 . S
C3570 C3569 1.379 . S
H3571 C3565 0.959 . S
H3572 C3565 0.961 . S
H3573 C3565 0.960 . S
H3574 C3566 0.930 . S
H3575 C3567 0.929 . S
H3576 C3584 0.929 . S
H3577 C3586 0.930 . S
H3578 C3588 0.930 . S
H3579 C3591 0.929 . S
H3580 C3594 0.930 . S
H3581 C3596 0.960 . S
H3582 C3596 0.960 . S
H3583 C3596 0.960 . S
C3584 H3576 0.929 . S
C3584 C3585 1.377 . S
C3584 C3586 1.384 . S
C3585 C3584 1.377 . S
C3585 C3591 1.390 . S
C3586 H3577 0.930 . S
C3586 C3584 1.384 . S
C3586 C3587 1.372 . S
C3587 C3586 1.372 . S
C3587 C3588 1.400 . S
C3587 C3592 1.490 . S
C3588 H3578 0.930 . S
C3588 C3587 1.400 . S
C3588 C3591 1.386 . S
H3589 C3605 0.930 . S
H3590 C3606 0.931 . S
C3591 H3579 0.929 . S
C3591 C3585 1.390 . S
C3591 C3588 1.386 . S
C3592 C3587 1.490 . S
C3592 C3594 1.395 . S
C3592 C3595 1.403 . S
H3593 C3599 0.930 . S
C3594 H3580 0.930 . S
C3594 C3592 1.395 . S
C3594 C3597 1.403 . S
C3595 C3592 1.403 . S
C3595 C3596 1.524 . S
C3595 C3599 1.400 . S
C3596 H3581 0.960 . S
C3596 H3582 0.960 . S
C3596 H3583 0.960 . S
C3596 C3595 1.524 . S
C3597 C3594 1.403 . S
C3597 C3598 1.392 . S
C3597 C3601 1.495 . S
C3598 C3597 1.392 . S
C3598 C3599 1.385 . S
C3598 C3600 1.478 . S
C3599 H3593 0.930 . S
C3599 C3595 1.400 . S
C3599 C3598 1.385 . S
C3600 C3598 1.478 . S
C3600 C3602 1.381 . S
C3600 C3606 1.383 . S
C3601 C3597 1.495 . S
C3601 H3607 0.959 . S
C3601 H3608 0.961 . S
C3601 H3609 0.960 . S
C3602 C3600 1.381 . S
C3602 C3603 1.394 . S
C3602 H3610 0.930 . S
C3603 C3602 1.394 . S
C3603 C3604 1.383 . S
C3603 H3611 0.929 . S
C3604 C3603 1.383 . S
C3604 C3605 1.377 . S
C3605 H3589 0.930 . S
C3605 C3604 1.377 . S
C3605 C3606 1.379 . S
C3606 H3590 0.931 . S
C3606 C3600 1.383 . S
C3606 C3605 1.379 . S
H3607 C3601 0.959 . S
H3608 C3601 0.961 . S
H3609 C3601 0.960 . S
H3610 C3602 0.930 . S
H3611 C3603 0.929 . S
H3612 C3620 0.929 . S
H3613 C3622 0.930 . S
H3614 C3624 0.930 . S
H3615 C3627 0.929 1_565 S
H3616 C3630 0.930 . S
H3617 C3632 0.960 . S
H3618 C3632 0.960 . S
H3619 C3632 0.960 . S
C3620 H3612 0.929 . S
C3620 C3621 1.377 . S
C3620 C3622 1.384 . S
C3621 C3620 1.377 . S
C3621 C3627 1.390 . S
C3622 H3613 0.930 . S
C3622 C3620 1.384 . S
C3622 C3623 1.372 . S
C3623 C3622 1.372 . S
C3623 C3624 1.400 . S
C3623 C3628 1.490 . S
C3624 H3614 0.930 . S
C3624 C3623 1.400 . S
C3624 C3627 1.386 . S
H3625 C3641 0.930 . S
H3626 C3642 0.931 . S
C3627 H3615 0.929 1_545 S
C3627 C3621 1.390 . S
C3627 C3624 1.386 . S
C3628 C3623 1.490 . S
C3628 C3630 1.395 . S
C3628 C3631 1.403 . S
H3629 C3635 0.930 . S
C3630 H3616 0.930 . S
C3630 C3628 1.395 . S
C3630 C3633 1.403 . S
C3631 C3628 1.403 . S
C3631 C3632 1.524 . S
C3631 C3635 1.400 . S
C3632 H3617 0.960 . S
C3632 H3618 0.960 . S
C3632 H3619 0.960 . S
C3632 C3631 1.524 . S
C3633 C3630 1.403 . S
C3633 C3634 1.392 . S
C3633 C3637 1.495 . S
C3634 C3633 1.392 . S
C3634 C3635 1.385 . S
C3634 C3636 1.478 . S
C3635 H3629 0.930 . S
C3635 C3631 1.400 . S
C3635 C3634 1.385 . S
C3636 C3634 1.478 . S
C3636 C3638 1.381 . S
C3636 C3642 1.383 . S
C3637 C3633 1.495 . S
C3637 H3643 0.959 . S
C3637 H3644 0.961 . S
C3637 H3645 0.960 . S
C3638 C3636 1.381 . S
C3638 C3639 1.394 . S
C3638 H3646 0.930 . S
C3639 C3638 1.394 . S
C3639 C3640 1.383 . S
C3639 H3647 0.929 . S
C3640 C3639 1.383 . S
C3640 C3641 1.377 . S
C3641 H3625 0.930 . S
C3641 C3640 1.377 . S
C3641 C3642 1.379 . S
C3642 H3626 0.931 . S
C3642 C3636 1.383 . S
C3642 C3641 1.379 . S
H3643 C3637 0.959 . S
H3644 C3637 0.961 . S
H3645 C3637 0.960 . S
H3646 C3638 0.930 . S
H3647 C3639 0.929 . S
H3648 C3656 0.929 . S
H3649 C3658 0.930 . S
H3650 C3660 0.930 . S
H3651 C3663 0.929 . S
H3652 C3666 0.930 . S
H3653 C3668 0.960 . S
H3654 C3668 0.960 . S
H3655 C3668 0.960 . S
C3656 H3648 0.929 . S
C3656 C3657 1.377 . S
C3656 C3658 1.384 . S
C3657 C3656 1.377 . S
C3657 C3663 1.390 . S
C3658 H3649 0.930 . S
C3658 C3656 1.384 . S
C3658 C3659 1.372 . S
C3659 C3658 1.372 . S
C3659 C3660 1.400 . S
C3659 C3664 1.490 . S
C3660 H3650 0.930 . S
C3660 C3659 1.400 . S
C3660 C3663 1.386 . S
H3661 C3677 0.930 . S
H3662 C3678 0.931 . S
C3663 H3651 0.929 . S
C3663 C3657 1.390 . S
C3663 C3660 1.386 . S
C3664 C3659 1.490 . S
C3664 C3666 1.395 . S
C3664 C3667 1.403 . S
H3665 C3671 0.930 . S
C3666 H3652 0.930 . S
C3666 C3664 1.395 . S
C3666 C3669 1.403 . S
C3667 C3664 1.403 . S
C3667 C3668 1.524 . S
C3667 C3671 1.400 . S
C3668 H3653 0.960 . S
C3668 H3654 0.960 . S
C3668 H3655 0.960 . S
C3668 C3667 1.524 . S
C3669 C3666 1.403 . S
C3669 C3670 1.392 . S
C3669 C3673 1.495 . S
C3670 C3669 1.392 . S
C3670 C3671 1.385 . S
C3670 C3672 1.478 . S
C3671 H3665 0.930 . S
C3671 C3667 1.400 . S
C3671 C3670 1.385 . S
C3672 C3670 1.478 . S
C3672 C3674 1.381 . S
C3672 C3678 1.383 . S
C3673 C3669 1.495 . S
C3673 H3679 0.959 . S
C3673 H3680 0.961 . S
C3673 H3681 0.960 . S
C3674 C3672 1.381 . S
C3674 C3675 1.394 . S
C3674 H3682 0.930 . S
C3675 C3674 1.394 . S
C3675 C3676 1.383 . S
C3675 H3683 0.929 . S
C3676 C3675 1.383 . S
C3676 C3677 1.377 . S
C3677 H3661 0.930 . S
C3677 C3676 1.377 . S
C3677 C3678 1.379 . S
C3678 H3662 0.931 . S
C3678 C3672 1.383 . S
C3678 C3677 1.379 . S
H3679 C3673 0.959 . S
H3680 C3673 0.961 . S
H3681 C3673 0.960 . S
H3682 C3674 0.930 . S
H3683 C3675 0.929 . S
H3684 C3692 0.929 . S
H3685 C3694 0.930 . S
H3686 C3696 0.930 . S
H3687 C3699 0.929 . S
H3688 C3702 0.930 . S
H3689 C3704 0.960 . S
H3690 C3704 0.960 . S
H3691 C3704 0.960 . S
C3692 H3684 0.929 . S
C3692 C3693 1.377 . S
C3692 C3694 1.384 . S
C3693 C3692 1.377 . S
C3693 C3699 1.390 . S
C3694 H3685 0.930 . S
C3694 C3692 1.384 . S
C3694 C3695 1.372 . S
C3695 C3694 1.372 . S
C3695 C3696 1.400 . S
C3695 C3700 1.490 . S
C3696 H3686 0.930 . S
C3696 C3695 1.400 . S
C3696 C3699 1.386 . S
H3697 C3713 0.930 . S
H3698 C3714 0.931 . S
C3699 H3687 0.929 . S
C3699 C3693 1.390 . S
C3699 C3696 1.386 . S
C3700 C3695 1.490 . S
C3700 C3702 1.395 . S
C3700 C3703 1.403 . S
H3701 C3707 0.930 . S
C3702 H3688 0.930 . S
C3702 C3700 1.395 . S
C3702 C3705 1.403 . S
C3703 C3700 1.403 . S
C3703 C3704 1.524 . S
C3703 C3707 1.400 . S
C3704 H3689 0.960 . S
C3704 H3690 0.960 . S
C3704 H3691 0.960 . S
C3704 C3703 1.524 . S
C3705 C3702 1.403 . S
C3705 C3706 1.392 . S
C3705 C3709 1.495 . S
C3706 C3705 1.392 . S
C3706 C3707 1.385 . S
C3706 C3708 1.478 . S
C3707 H3701 0.930 . S
C3707 C3703 1.400 . S
C3707 C3706 1.385 . S
C3708 C3706 1.478 . S
C3708 C3710 1.381 . S
C3708 C3714 1.383 . S
C3709 C3705 1.495 . S
C3709 H3715 0.959 . S
C3709 H3716 0.961 . S
C3709 H3717 0.960 . S
C3710 C3708 1.381 . S
C3710 C3711 1.394 . S
C3710 H3718 0.930 . S
C3711 C3710 1.394 . S
C3711 C3712 1.383 . S
C3711 H3719 0.929 . S
C3712 C3711 1.383 . S
C3712 C3713 1.377 . S
C3713 H3697 0.930 . S
C3713 C3712 1.377 . S
C3713 C3714 1.379 . S
C3714 H3698 0.931 . S
C3714 C3708 1.383 . S
C3714 C3713 1.379 . S
H3715 C3709 0.959 . S
H3716 C3709 0.961 . S
H3717 C3709 0.960 . S
H3718 C3710 0.930 . S
H3719 C3711 0.929 . S
H3720 C3728 0.929 . S
H3721 C3730 0.930 . S
H3722 C3732 0.930 . S
H3723 C3735 0.929 . S
H3724 C3738 0.930 . S
H3725 C3740 0.960 . S
H3726 C3740 0.960 . S
H3727 C3740 0.960 . S
C3728 H3720 0.929 . S
C3728 C3729 1.377 . S
C3728 C3730 1.384 . S
C3729 C3728 1.377 . S
C3729 C3735 1.390 . S
C3730 H3721 0.930 . S
C3730 C3728 1.384 . S
C3730 C3731 1.372 . S
C3731 C3730 1.372 . S
C3731 C3732 1.400 . S
C3731 C3736 1.490 . S
C3732 H3722 0.930 . S
C3732 C3731 1.400 . S
C3732 C3735 1.386 . S
H3733 C3749 0.930 . S
H3734 C3750 0.931 . S
C3735 H3723 0.929 . S
C3735 C3729 1.390 . S
C3735 C3732 1.386 . S
C3736 C3731 1.490 . S
C3736 C3738 1.395 . S
C3736 C3739 1.403 . S
H3737 C3743 0.930 . S
C3738 H3724 0.930 . S
C3738 C3736 1.395 . S
C3738 C3741 1.403 . S
C3739 C3736 1.403 . S
C3739 C3740 1.524 . S
C3739 C3743 1.400 . S
C3740 H3725 0.960 . S
C3740 H3726 0.960 . S
C3740 H3727 0.960 . S
C3740 C3739 1.524 . S
C3741 C3738 1.403 . S
C3741 C3742 1.392 . S
C3741 C3745 1.495 . S
C3742 C3741 1.392 . S
C3742 C3743 1.385 . S
C3742 C3744 1.478 . S
C3743 H3737 0.930 . S
C3743 C3739 1.400 . S
C3743 C3742 1.385 . S
C3744 C3742 1.478 . S
C3744 C3746 1.381 . S
C3744 C3750 1.383 . S
C3745 C3741 1.495 . S
C3745 H3751 0.959 . S
C3745 H3752 0.961 . S
C3745 H3753 0.960 . S
C3746 C3744 1.381 . S
C3746 C3747 1.394 . S
C3746 H3754 0.930 . S
C3747 C3746 1.394 . S
C3747 C3748 1.383 . S
C3747 H3755 0.929 . S
C3748 C3747 1.383 . S
C3748 C3749 1.377 . S
C3749 H3733 0.930 . S
C3749 C3748 1.377 . S
C3749 C3750 1.379 . S
C3750 H3734 0.931 . S
C3750 C3744 1.383 . S
C3750 C3749 1.379 . S
H3751 C3745 0.959 . S
H3752 C3745 0.961 . S
H3753 C3745 0.960 . S
H3754 C3746 0.930 . S
H3755 C3747 0.929 . S
H3756 C3764 0.929 . S
H3757 C3766 0.930 . S
H3758 C3768 0.930 . S
H3759 C3771 0.929 1_545 S
H3760 C3774 0.930 . S
H3761 C3776 0.960 . S
H3762 C3776 0.960 . S
H3763 C3776 0.960 . S
C3764 H3756 0.929 . S
C3764 C3765 1.377 . S
C3764 C3766 1.384 . S
C3765 C3764 1.377 . S
C3765 C3771 1.390 . S
C3766 H3757 0.930 . S
C3766 C3764 1.384 . S
C3766 C3767 1.372 . S
C3767 C3766 1.372 . S
C3767 C3768 1.400 . S
C3767 C3772 1.490 . S
C3768 H3758 0.930 . S
C3768 C3767 1.400 . S
C3768 C3771 1.386 . S
H3769 C3785 0.930 . S
H3770 C3786 0.931 . S
C3771 H3759 0.929 1_565 S
C3771 C3765 1.390 . S
C3771 C3768 1.386 . S
C3772 C3767 1.490 . S
C3772 C3774 1.395 . S
C3772 C3775 1.403 . S
H3773 C3779 0.930 . S
C3774 H3760 0.930 . S
C3774 C3772 1.395 . S
C3774 C3777 1.403 . S
C3775 C3772 1.403 . S
C3775 C3776 1.524 . S
C3775 C3779 1.400 . S
C3776 H3761 0.960 . S
C3776 H3762 0.960 . S
C3776 H3763 0.960 . S
C3776 C3775 1.524 . S
C3777 C3774 1.403 . S
C3777 C3778 1.392 . S
C3777 C3781 1.495 . S
C3778 C3777 1.392 . S
C3778 C3779 1.385 . S
C3778 C3780 1.478 . S
C3779 H3773 0.930 . S
C3779 C3775 1.400 . S
C3779 C3778 1.385 . S
C3780 C3778 1.478 . S
C3780 C3782 1.381 . S
C3780 C3786 1.383 . S
C3781 C3777 1.495 . S
C3781 H3787 0.959 . S
C3781 H3788 0.961 . S
C3781 H3789 0.960 . S
C3782 C3780 1.381 . S
C3782 C3783 1.394 . S
C3782 H3790 0.930 . S
C3783 C3782 1.394 . S
C3783 C3784 1.383 . S
C3783 H3791 0.929 . S
C3784 C3783 1.383 . S
C3784 C3785 1.377 . S
C3785 H3769 0.930 . S
C3785 C3784 1.377 . S
C3785 C3786 1.379 . S
C3786 H3770 0.931 . S
C3786 C3780 1.383 . S
C3786 C3785 1.379 . S
H3787 C3781 0.959 . S
H3788 C3781 0.961 . S
H3789 C3781 0.960 . S
H3790 C3782 0.930 . S
H3791 C3783 0.929 . S
H3792 C3800 0.929 . S
H3793 C3802 0.930 . S
H3794 C3804 0.930 . S
H3795 C3807 0.929 . S
H3796 C3810 0.930 . S
H3797 C3812 0.960 . S
H3798 C3812 0.960 . S
H3799 C3812 0.960 . S
C3800 H3792 0.929 . S
C3800 C3801 1.377 . S
C3800 C3802 1.384 . S
C3801 C3800 1.377 . S
C3801 C3807 1.390 . S
C3802 H3793 0.930 . S
C3802 C3800 1.384 . S
C3802 C3803 1.372 . S
C3803 C3802 1.372 . S
C3803 C3804 1.400 . S
C3803 C3808 1.490 . S
C3804 H3794 0.930 . S
C3804 C3803 1.400 . S
C3804 C3807 1.386 . S
H3805 C3821 0.930 . S
H3806 C3822 0.931 . S
C3807 H3795 0.929 . S
C3807 C3801 1.390 . S
C3807 C3804 1.386 . S
C3808 C3803 1.490 . S
C3808 C3810 1.395 . S
C3808 C3811 1.403 . S
H3809 C3815 0.930 . S
C3810 H3796 0.930 . S
C3810 C3808 1.395 . S
C3810 C3813 1.403 . S
C3811 C3808 1.403 . S
C3811 C3812 1.524 . S
C3811 C3815 1.400 . S
C3812 H3797 0.960 . S
C3812 H3798 0.960 . S
C3812 H3799 0.960 . S
C3812 C3811 1.524 . S
C3813 C3810 1.403 . S
C3813 C3814 1.392 . S
C3813 C3817 1.495 . S
C3814 C3813 1.392 . S
C3814 C3815 1.385 . S
C3814 C3816 1.478 . S
C3815 H3809 0.930 . S
C3815 C3811 1.400 . S
C3815 C3814 1.385 . S
C3816 C3814 1.478 . S
C3816 C3818 1.381 . S
C3816 C3822 1.383 . S
C3817 C3813 1.495 . S
C3817 H3823 0.959 . S
C3817 H3824 0.961 . S
C3817 H3825 0.960 . S
C3818 C3816 1.381 . S
C3818 C3819 1.394 . S
C3818 H3826 0.930 . S
C3819 C3818 1.394 . S
C3819 C3820 1.383 . S
C3819 H3827 0.929 . S
C3820 C3819 1.383 . S
C3820 C3821 1.377 . S
C3821 H3805 0.930 . S
C3821 C3820 1.377 . S
C3821 C3822 1.379 . S
C3822 H3806 0.931 . S
C3822 C3816 1.383 . S
C3822 C3821 1.379 . S
H3823 C3817 0.959 . S
H3824 C3817 0.961 . S
H3825 C3817 0.960 . S
H3826 C3818 0.930 . S
H3827 C3819 0.929 . S
H3828 C3836 0.929 . S
H3829 C3838 0.930 . S
H3830 C3840 0.930 . S
H3831 C3843 0.929 . S
H3832 C3846 0.930 . S
H3833 C3848 0.960 . S
H3834 C3848 0.960 . S
H3835 C3848 0.960 . S
C3836 H3828 0.929 . S
C3836 C3837 1.377 . S
C3836 C3838 1.384 . S
C3837 C3836 1.377 . S
C3837 C3843 1.390 . S
C3838 H3829 0.930 . S
C3838 C3836 1.384 . S
C3838 C3839 1.372 . S
C3839 C3838 1.372 . S
C3839 C3840 1.400 . S
C3839 C3844 1.490 . S
C3840 H3830 0.930 . S
C3840 C3839 1.400 . S
C3840 C3843 1.386 . S
H3841 C3857 0.930 1_565 S
H3842 C3858 0.931 . S
C3843 H3831 0.929 . S
C3843 C3837 1.390 . S
C3843 C3840 1.386 . S
C3844 C3839 1.490 . S
C3844 C3846 1.395 . S
C3844 C3847 1.403 . S
H3845 C3851 0.930 . S
C3846 H3832 0.930 . S
C3846 C3844 1.395 . S
C3846 C3849 1.403 . S
C3847 C3844 1.403 . S
C3847 C3848 1.524 . S
C3847 C3851 1.400 . S
C3848 H3833 0.960 . S
C3848 H3834 0.960 . S
C3848 H3835 0.960 . S
C3848 C3847 1.524 . S
C3849 C3846 1.403 . S
C3849 C3850 1.392 . S
C3849 C3853 1.495 . S
C3850 C3849 1.392 . S
C3850 C3851 1.385 . S
C3850 C3852 1.478 . S
C3851 H3845 0.930 . S
C3851 C3847 1.400 . S
C3851 C3850 1.385 . S
C3852 C3850 1.478 . S
C3852 C3854 1.381 . S
C3852 C3858 1.383 . S
C3853 C3849 1.495 . S
C3853 H3859 0.959 . S
C3853 H3860 0.961 . S
C3853 H3861 0.960 . S
C3854 C3852 1.381 . S
C3854 C3855 1.394 . S
C3854 H3862 0.930 . S
C3855 C3854 1.394 . S
C3855 C3856 1.383 . S
C3855 H3863 0.929 . S
C3856 C3855 1.383 . S
C3856 C3857 1.377 . S
C3857 H3841 0.930 1_545 S
C3857 C3856 1.377 . S
C3857 C3858 1.379 . S
C3858 H3842 0.931 . S
C3858 C3852 1.383 . S
C3858 C3857 1.379 . S
H3859 C3853 0.959 . S
H3860 C3853 0.961 . S
H3861 C3853 0.960 . S
H3862 C3854 0.930 . S
H3863 C3855 0.929 . S
H3864 C3872 0.929 . S
H3865 C3874 0.930 . S
H3866 C3876 0.930 . S
H3867 C3879 0.929 . S
H3868 C3882 0.930 . S
H3869 C3884 0.960 . S
H3870 C3884 0.960 . S
H3871 C3884 0.960 . S
C3872 H3864 0.929 . S
C3872 C3873 1.377 . S
C3872 C3874 1.384 . S
C3873 C3872 1.377 . S
C3873 C3879 1.390 . S
C3874 H3865 0.930 . S
C3874 C3872 1.384 . S
C3874 C3875 1.372 . S
C3875 C3874 1.372 . S
C3875 C3876 1.400 . S
C3875 C3880 1.490 . S
C3876 H3866 0.930 . S
C3876 C3875 1.400 . S
C3876 C3879 1.386 . S
H3877 C3893 0.930 . S
H3878 C3894 0.931 . S
C3879 H3867 0.929 . S
C3879 C3873 1.390 . S
C3879 C3876 1.386 . S
C3880 C3875 1.490 . S
C3880 C3882 1.395 . S
C3880 C3883 1.403 . S
H3881 C3887 0.930 . S
C3882 H3868 0.930 . S
C3882 C3880 1.395 . S
C3882 C3885 1.403 . S
C3883 C3880 1.403 . S
C3883 C3884 1.524 . S
C3883 C3887 1.400 . S
C3884 H3869 0.960 . S
C3884 H3870 0.960 . S
C3884 H3871 0.960 . S
C3884 C3883 1.524 . S
C3885 C3882 1.403 . S
C3885 C3886 1.392 . S
C3885 C3889 1.495 . S
C3886 C3885 1.392 . S
C3886 C3887 1.385 . S
C3886 C3888 1.478 . S
C3887 H3881 0.930 . S
C3887 C3883 1.400 . S
C3887 C3886 1.385 . S
C3888 C3886 1.478 . S
C3888 C3890 1.381 . S
C3888 C3894 1.383 . S
C3889 C3885 1.495 . S
C3889 H3895 0.959 . S
C3889 H3896 0.961 . S
C3889 H3897 0.960 . S
C3890 C3888 1.381 . S
C3890 C3891 1.394 . S
C3890 H3898 0.930 . S
C3891 C3890 1.394 . S
C3891 C3892 1.383 . S
C3891 H3899 0.929 . S
C3892 C3891 1.383 . S
C3892 C3893 1.377 . S
C3893 H3877 0.930 . S
C3893 C3892 1.377 . S
C3893 C3894 1.379 . S
C3894 H3878 0.931 . S
C3894 C3888 1.383 . S
C3894 C3893 1.379 . S
H3895 C3889 0.959 . S
H3896 C3889 0.961 . S
H3897 C3889 0.960 . S
H3898 C3890 0.930 . S
H3899 C3891 0.929 . S
H3900 C3908 0.929 . S
H3901 C3910 0.930 . S
H3902 C3912 0.930 . S
H3903 C3915 0.929 . S
H3904 C3918 0.930 . S
H3905 C3920 0.960 . S
H3906 C3920 0.960 . S
H3907 C3920 0.960 . S
C3908 H3900 0.929 . S
C3908 C3909 1.377 . S
C3908 C3910 1.384 . S
C3909 C3908 1.377 . S
C3909 C3915 1.390 . S
C3910 H3901 0.930 . S
C3910 C3908 1.384 . S
C3910 C3911 1.372 . S
C3911 C3910 1.372 . S
C3911 C3912 1.400 . S
C3911 C3916 1.490 . S
C3912 H3902 0.930 . S
C3912 C3911 1.400 . S
C3912 C3915 1.386 . S
H3913 C3929 0.930 . S
H3914 C3930 0.931 . S
C3915 H3903 0.929 . S
C3915 C3909 1.390 . S
C3915 C3912 1.386 . S
C3916 C3911 1.490 . S
C3916 C3918 1.395 . S
C3916 C3919 1.403 . S
H3917 C3923 0.930 . S
C3918 H3904 0.930 . S
C3918 C3916 1.395 . S
C3918 C3921 1.403 . S
C3919 C3916 1.403 . S
C3919 C3920 1.524 . S
C3919 C3923 1.400 . S
C3920 H3905 0.960 . S
C3920 H3906 0.960 . S
C3920 H3907 0.960 . S
C3920 C3919 1.524 . S
C3921 C3918 1.403 . S
C3921 C3922 1.392 . S
C3921 C3925 1.495 . S
C3922 C3921 1.392 . S
C3922 C3923 1.385 . S
C3922 C3924 1.478 . S
C3923 H3917 0.930 . S
C3923 C3919 1.400 . S
C3923 C3922 1.385 . S
C3924 C3922 1.478 . S
C3924 C3926 1.381 . S
C3924 C3930 1.383 . S
C3925 C3921 1.495 . S
C3925 H3931 0.959 . S
C3925 H3932 0.961 . S
C3925 H3933 0.960 . S
C3926 C3924 1.381 . S
C3926 C3927 1.394 . S
C3926 H3934 0.930 . S
C3927 C3926 1.394 . S
C3927 C3928 1.383 . S
C3927 H3935 0.929 . S
C3928 C3927 1.383 . S
C3928 C3929 1.377 . S
C3929 H3913 0.930 . S
C3929 C3928 1.377 . S
C3929 C3930 1.379 . S
C3930 H3914 0.931 . S
C3930 C3924 1.383 . S
C3930 C3929 1.379 . S
H3931 C3925 0.959 . S
H3932 C3925 0.961 . S
H3933 C3925 0.960 . S
H3934 C3926 0.930 . S
H3935 C3927 0.929 . S
C1065 C28 1.585 . S
C1084 C820 1.580 . S
C1101 C325 1.585 . S
C1120 C61 1.580 . S
C1137 C886 1.585 . S
C1156 C94 1.583 . S
C1173 C391 1.585 . S
C1192 C127 1.584 . S
C1209 C952 1.585 . S
C1228 C160 1.580 . S
C1245 C457 1.584 . S
C1264 C193 1.582 . S
C1281 C1018 1.585 . S
C1300 C226 1.579 . S
C1317 C523 1.585 . S
C1336 C259 1.584 . S
C1353 C292 1.585 . S
C1372 C556 1.583 . S
C1389 C358 1.584 . S
C1408 C622 1.579 . S
C1425 C424 1.585 . S
C1444 C688 1.580 . S
C1461 C754 1.585 . S
C1480 C490 1.584 . S
C1497 C589 1.585 . S
C1516 C853 1.579 . S
C1533 C919 1.585 . S
C1552 C655 1.582 . S
C1569 C721 1.585 . S
C1588 C985 1.584 . S
C1605 C1051 1.585 . S
C1624 C787 1.579 . S
C1641 N5 1.219 . S
C1660 C380 1.240 . S
C1677 N38 1.221 . S
C1696 C809 1.255 . S
C1713 C314 1.244 . S
C1732 N71 1.237 . S
C1749 N104 1.209 . S
C1768 C875 1.233 . S
C1785 C446 1.245 . S
C1804 N137 1.210 . S
C1821 C1007 1.243 . S
C1840 N170 1.198 . S
C1857 N203 1.209 . S
C1876 C512 1.223 . S
C1893 C941 1.240 . S
C1912 N236 1.206 . S
C1929 N269 1.216 . S
C1948 C116 1.258 . S
C1965 N302 1.221 . S
C1984 C545 1.246 . S
C2001 C50 1.246 . S
C2020 N335 1.217 . S
C2037 N368 1.212 . S
C2056 C611 1.255 . S
C2073 N401 1.221 . S
C2092 C182 1.242 . S
C2109 C743 1.239 . S
C2128 N434 1.214 . S
C2145 C248 1.246 . S
C2164 N467 1.231 . S
C2181 N500 1.212 . S
C2200 C677 1.256 . S
C2217 C908 1.244 . S
C2236 N533 1.204 . S
C2253 C281 1.242 . S
C2272 N566 1.192 . S
C2289 C842 1.240 . S
C2308 N599 1.182 . S
C2325 N632 1.219 . S
C2344 C347 1.241 . S
C2361 C974 1.244 . S
C2380 N665 1.206 . S
C2397 C479 1.243 . S
C2416 N698 1.231 . S
C2433 N731 1.221 . S
C2452 C1040 1.253 . S
C2469 C413 1.241 . S
C2488 N764 1.184 . S
C2505 C644 1.241 . S
C2524 N797 1.236 . S
C2541 N830 1.221 . S
C2560 C17 1.235 . S
C2577 N863 1.210 . S
C2596 C578 1.252 . S
C2613 C83 1.246 . S
C2632 N896 1.228 . S
C2649 C710 1.240 . S
C2668 N929 1.192 . S
C2685 N962 1.221 . S
C2704 C215 1.235 . S
C2721 C776 1.242 . S
C2740 N995 1.182 . S
C2757 C149 1.239 . S
C2776 N1028 1.219 . S
C2793 C8 0.865 . S
C2812 C206 0.885 . S
C2829 C239 0.864 . S
C2848 C41 0.858 . S
C2865 C74 0.870 . S
C2884 C140 0.872 . S
C2901 C107 0.868 . S
C2920 C173 0.883 . S
C2937 C470 0.871 . S
C2956 C272 0.884 . S
C2973 C503 0.870 . S
C2992 C305 0.885 . S
C3009 C404 0.864 . S
C3028 C338 0.850 . S
C3045 C437 0.871 . S
C3064 C371 0.885 . S
C3081 C536 0.863 . S
C3100 C734 0.867 . S
C3117 C569 0.863 . S
C3136 C767 0.881 . S
C3153 C602 0.870 . S
C3172 C668 0.850 . S
C3189 C635 0.866 . S
C3208 C701 0.885 . S
C3225 C998 0.867 . S
C3244 C800 0.870 . S
C3261 C1031 0.870 . S
C3280 C833 0.875 . S
C3297 C866 0.869 . S
C3316 C932 0.872 . S
C3333 C899 0.871 . S
C3352 C965 0.882 . S
C3369 N14 2.008 . S
C3388 N707 2.005 . S
C3405 N47 2.004 1_565 S
C3424 N740 2.005 . S
C3441 N80 2.006 . S
C3460 N773 1.991 . S
C3477 N113 2.008 1_545 S
C3496 N674 2.006 . S
C3513 N641 2.003 . S
C3532 N146 1.998 . S
C3549 N179 2.004 1_565 S
C3568 N542 2.002 . S
C3585 N575 2.003 . S
C3604 N212 2.000 . S
C3621 N245 2.008 1_545 S
C3640 N608 2.007 . S
C3657 N971 2.004 . S
C3676 N278 1.990 . S
C3693 N311 2.007 1_545 S
C3712 N1004 1.995 . S
C3729 N1037 2.008 . S
C3748 N344 2.010 . S
C3765 N377 2.005 1_565 S
C3784 N938 1.991 . S
C3801 N410 2.005 . S
C3820 N905 1.990 . S
C3837 N806 2.003 . S
C3856 N443 1.995 1_545 S
C3873 N476 2.004 . S
C3892 N839 2.001 . S
C3909 N509 2.007 1_565 S
C3928 N872 1.997 . S
