# Generated by pormake.
# Topology umd, (4)-cn, num edge types: 1
# Building blocks:
#     Node 0, Type 0, BuildingBlock: KOZSID_clean_sbu_0, # of connection points: 4
#     Node 1, Type 0, BuildingBlock: KOZSID_clean_sbu_0, # of connection points: 4
#     Node 2, Type 0, BuildingBlock: KOZSID_clean_sbu_0, # of connection points: 4
#     Node 3, Type 0, BuildingBlock: KOZSID_clean_sbu_0, # of connection points: 4
#     Node 4, Type 0, BuildingBlock: KOZSID_clean_sbu_0, # of connection points: 4
#     Node 5, Type 0, BuildingBlock: KOZSID_clean_sbu_0, # of connection points: 4
#     Node 6, Type 0, BuildingBlock: KOZSID_clean_sbu_0, # of connection points: 4
#     Node 7, Type 0, BuildingBlock: KOZSID_clean_sbu_0, # of connection points: 4
#     Node 8, Type 0, BuildingBlock: KOZSID_clean_sbu_0, # of connection points: 4
#     Node 9, Type 0, BuildingBlock: KOZSID_clean_sbu_0, # of connection points: 4
#     Node 10, Type 0, BuildingBlock: KOZSID_clean_sbu_0, # of connection points: 4
#     Node 11, Type 0, BuildingBlock: KOZSID_clean_sbu_0, # of connection points: 4
#     Node 12, Type 0, BuildingBlock: KOZSID_clean_sbu_0, # of connection points: 4
#     Node 13, Type 0, BuildingBlock: KOZSID_clean_sbu_0, # of connection points: 4
#     Node 14, Type 0, BuildingBlock: KOZSID_clean_sbu_0, # of connection points: 4
#     Node 15, Type 0, BuildingBlock: KOZSID_clean_sbu_0, # of connection points: 4
#     Edge 16, Type (0, 0), BuildingBlock: AJUNOK_clean_linker_0, # of connection points: 2
#     Edge 17, Type (0, 0), BuildingBlock: AJUNOK_clean_linker_0, # of connection points: 2
#     Edge 18, Type (0, 0), BuildingBlock: AJUNOK_clean_linker_0, # of connection points: 2
#     Edge 19, Type (0, 0), BuildingBlock: AJUNOK_clean_linker_0, # of connection points: 2
#     Edge 20, Type (0, 0), BuildingBlock: AJUNOK_clean_linker_0, # of connection points: 2
#     Edge 21, Type (0, 0), BuildingBlock: AJUNOK_clean_linker_0, # of connection points: 2
#     Edge 22, Type (0, 0), BuildingBlock: AJUNOK_clean_linker_0, # of connection points: 2
#     Edge 23, Type (0, 0), BuildingBlock: AJUNOK_clean_linker_0, # of connection points: 2
#     Edge 24, Type (0, 0), BuildingBlock: AJUNOK_clean_linker_0, # of connection points: 2
#     Edge 25, Type (0, 0), BuildingBlock: AJUNOK_clean_linker_0, # of connection points: 2
#     Edge 26, Type (0, 0), BuildingBlock: AJUNOK_clean_linker_0, # of connection points: 2
#     Edge 27, Type (0, 0), BuildingBlock: AJUNOK_clean_linker_0, # of connection points: 2
#     Edge 28, Type (0, 0), BuildingBlock: AJUNOK_clean_linker_0, # of connection points: 2
#     Edge 29, Type (0, 0), BuildingBlock: AJUNOK_clean_linker_0, # of connection points: 2
#     Edge 30, Type (0, 0), BuildingBlock: AJUNOK_clean_linker_0, # of connection points: 2
#     Edge 31, Type (0, 0), BuildingBlock: AJUNOK_clean_linker_0, # of connection points: 2
#     Edge 32, Type (0, 0), BuildingBlock: AJUNOK_clean_linker_0, # of connection points: 2
#     Edge 33, Type (0, 0), BuildingBlock: AJUNOK_clean_linker_0, # of connection points: 2
#     Edge 34, Type (0, 0), BuildingBlock: AJUNOK_clean_linker_0, # of connection points: 2
#     Edge 35, Type (0, 0), BuildingBlock: AJUNOK_clean_linker_0, # of connection points: 2
#     Edge 36, Type (0, 0), BuildingBlock: AJUNOK_clean_linker_0, # of connection points: 2
#     Edge 37, Type (0, 0), BuildingBlock: AJUNOK_clean_linker_0, # of connection points: 2
#     Edge 38, Type (0, 0), BuildingBlock: AJUNOK_clean_linker_0, # of connection points: 2
#     Edge 39, Type (0, 0), BuildingBlock: AJUNOK_clean_linker_0, # of connection points: 2
#     Edge 40, Type (0, 0), BuildingBlock: AJUNOK_clean_linker_0, # of connection points: 2
#     Edge 41, Type (0, 0), BuildingBlock: AJUNOK_clean_linker_0, # of connection points: 2
#     Edge 42, Type (0, 0), BuildingBlock: AJUNOK_clean_linker_0, # of connection points: 2
#     Edge 43, Type (0, 0), BuildingBlock: AJUNOK_clean_linker_0, # of connection points: 2
#     Edge 44, Type (0, 0), BuildingBlock: AJUNOK_clean_linker_0, # of connection points: 2
#     Edge 45, Type (0, 0), BuildingBlock: AJUNOK_clean_linker_0, # of connection points: 2
#     Edge 46, Type (0, 0), BuildingBlock: AJUNOK_clean_linker_0, # of connection points: 2
#     Edge 47, Type (0, 0), BuildingBlock: AJUNOK_clean_linker_0, # of connection points: 2
# Relax obj value: 0.057
# Max RMSD: 0.221
# Mean RMSD: 0.221
data_MOF--net-umd--node1-KOZSID_clean_sbu_0--edge1-AJUNOK_clean_linker_0
_symmetry_space_group_name_H-M    P1
_symmetry_Int_Tables_number       1
_symmetry_cell_setting            triclinic
loop_
_symmetry_equiv_pos_as_xyz
'x, y, z'
_cell_length_a     42.63561
_cell_length_b     42.796012
_cell_length_c     47.587635
_cell_angle_alpha  89.967062
_cell_angle_beta   89.927026
_cell_angle_gamma 90.035482
loop_
_atom_site_label
_atom_site_type_symbol
_atom_site_fract_x
_atom_site_fract_y
_atom_site_fract_z
_atom_type_partial_charge
C0 C 0.16497 0.44236 0.20341 0.0
C1 C 0.14693 0.4247 0.22181 0.0
C2 C 0.14307 0.39572 0.2098 0.0
C3 C 0.15771 0.39723 0.18411 0.0
N4 N 0.17021 0.42561 0.17924 0.0
Co5 Co 0.18421 0.44087 0.14171 0.0
N6 N 0.16399 0.40613 0.12072 0.0
C7 C 0.15483 0.37896 0.1323 0.0
C8 C 0.14227 0.35877 0.11285 0.0
C9 C 0.14405 0.37414 0.08747 0.0
C10 C 0.15756 0.40301 0.09278 0.0
N11 N 0.1979 0.45761 0.10471 0.0
C12 C 0.18784 0.45111 0.07827 0.0
C13 C 0.20516 0.46775 0.05852 0.0
C14 C 0.22696 0.48476 0.07305 0.0
C15 C 0.22181 0.4777 0.10077 0.0
N16 N 0.20544 0.47518 0.16235 0.0
C17 C 0.2301 0.49144 0.15242 0.0
C18 C 0.24348 0.5106 0.17212 0.0
C19 C 0.22612 0.50619 0.19601 0.0
C20 C 0.20254 0.48496 0.1894 0.0
N21 N 0.22332 0.41467 0.1439 0.0
C22 C 0.27451 0.37107 0.14629 0.0
C23 C 0.25864 0.37773 0.1211 0.0
C24 C 0.23368 0.3993 0.12033 0.0
C25 C 0.26391 0.38723 0.17038 0.0
C26 C 0.23862 0.40887 0.16875 0.0
N27 N 0.1443 0.46498 0.13925 0.0
C28 C 0.11349 0.51191 0.13114 0.0
C29 C 0.08519 0.49519 0.1346 0.0
C30 C 0.0874 0.46345 0.1408 0.0
C31 C 0.11669 0.44909 0.1433 0.0
C32 C 0.14282 0.49629 0.13325 0.0
H33 H 0.11657 0.42475 0.1485 0.0
H34 H 0.16421 0.50938 0.12997 0.0
H35 H 0.22217 0.40269 0.10045 0.0
H36 H 0.23111 0.42048 0.18775 0.0
C37 C 0.15277 0.37619 0.16174 0.0
C38 C 0.17854 0.47407 0.20961 0.0
C39 C 0.16542 0.42628 0.0708 0.0
C40 C 0.23688 0.4915 0.12369 0.0
H41 H 0.13614 0.43212 0.2412 0.0
H42 H 0.12873 0.37681 0.2178 0.0
H43 H 0.13181 0.33613 0.11677 0.0
H44 H 0.13622 0.36519 0.0674 0.0
H45 H 0.2031 0.46686 0.0359 0.0
H46 H 0.24433 0.50054 0.06441 0.0
H47 H 0.26297 0.52651 0.16928 0.0
H48 H 0.23051 0.51735 0.21601 0.0
H49 H 0.26475 0.36559 0.10191 0.0
H50 H 0.27509 0.38326 0.19048 0.0
H51 H 0.11294 0.53666 0.12644 0.0
H52 H 0.06639 0.44963 0.14402 0.0
C53 C 0.58511 0.18055 0.70086 0.0
C54 C 0.60315 0.16866 0.72258 0.0
C55 C 0.63044 0.15802 0.71076 0.0
C56 C 0.6277 0.16401 0.68251 0.0
N57 N 0.60045 0.17785 0.67561 0.0
Co58 Co 0.58745 0.18955 0.63645 0.0
N59 N 0.62503 0.1693 0.61846 0.0
C60 C 0.64944 0.1569 0.6324 0.0
C61 C 0.67249 0.14555 0.61496 0.0
C62 C 0.66211 0.15124 0.58818 0.0
C63 C 0.6333 0.16585 0.59079 0.0
N64 N 0.57351 0.201 0.59746 0.0
C65 C 0.58546 0.19362 0.57175 0.0
C66 C 0.56858 0.20774 0.5503 0.0
C67 C 0.54523 0.22446 0.56272 0.0
C68 C 0.54922 0.21975 0.59094 0.0
N69 N 0.55023 0.21084 0.65429 0.0
C70 C 0.52872 0.22814 0.64058 0.0
C71 C 0.50479 0.23871 0.65719 0.0
C72 C 0.51131 0.22761 0.68332 0.0
C73 C 0.53952 0.21144 0.68139 0.0
N74 N 0.6127 0.22954 0.63893 0.0
C75 C 0.65552 0.28161 0.6423 0.0
C76 C 0.65073 0.2649 0.61728 0.0
C77 C 0.62956 0.23963 0.61602 0.0
C78 C 0.63782 0.27149 0.66574 0.0
C79 C 0.61657 0.24584 0.66359 0.0
N80 N 0.56379 0.14856 0.63379 0.0
C81 C 0.53114 0.10783 0.6548 0.0
C82 C 0.53995 0.08571 0.63439 0.0
C83 C 0.55917 0.09684 0.61262 0.0
C84 C 0.56997 0.12791 0.61241 0.0
C85 C 0.5434 0.13852 0.65428 0.0
H86 H 0.58386 0.13438 0.59481 0.0
H87 H 0.53615 0.15353 0.67088 0.0
H88 H 0.62784 0.22788 0.59624 0.0
H89 H 0.60369 0.23903 0.68212 0.0
C90 C 0.64919 0.15534 0.66173 0.0
C91 C 0.55412 0.19534 0.70548 0.0
C92 C 0.61386 0.17518 0.56653 0.0
C93 C 0.52986 0.23155 0.61169 0.0
H94 H 0.59722 0.16793 0.7447 0.0
H95 H 0.64981 0.14685 0.72146 0.0
H96 H 0.69414 0.1342 0.62099 0.0
H97 H 0.67421 0.14523 0.56891 0.0
H98 H 0.57311 0.20667 0.52801 0.0
H99 H 0.52748 0.23842 0.55241 0.0
H100 H 0.48427 0.2518 0.65081 0.0
H101 H 0.4962 0.23042 0.70137 0.0
H102 H 0.66402 0.27064 0.59858 0.0
H103 H 0.64023 0.28337 0.6857 0.0
H104 H 0.51472 0.10182 0.67128 0.0
H105 H 0.56666 0.08152 0.59582 0.0
C106 C 0.86148 0.5859 0.20062 0.0
C107 C 0.86903 0.60543 0.22284 0.0
C108 C 0.87243 0.63505 0.21183 0.0
C109 C 0.86667 0.63219 0.1835 0.0
N110 N 0.85997 0.60263 0.17612 0.0
Co111 Co 0.85085 0.58868 0.13713 0.0
N112 N 0.86923 0.62666 0.11945 0.0
C113 C 0.87452 0.65368 0.13306 0.0
C114 C 0.88622 0.67651 0.11558 0.0
C115 C 0.88803 0.66303 0.08935 0.0
C116 C 0.87733 0.6326 0.09216 0.0
N117 N 0.84192 0.5736 0.09845 0.0
C118 C 0.85384 0.58269 0.07327 0.0
C119 C 0.84159 0.56455 0.05175 0.0
C120 C 0.82077 0.54421 0.0636 0.0
C121 C 0.8216 0.55069 0.09175 0.0
N122 N 0.83203 0.5506 0.1545 0.0
C123 C 0.8127 0.5304 0.14144 0.0
C124 C 0.80535 0.5048 0.15743 0.0
C125 C 0.82086 0.50906 0.18222 0.0
C126 C 0.83639 0.53758 0.18031 0.0
N127 N 0.80928 0.61107 0.13822 0.0
C128 C 0.75667 0.65311 0.1409 0.0
C129 C 0.77393 0.64848 0.11602 0.0
C130 C 0.79956 0.62762 0.11508 0.0
C131 C 0.76627 0.63526 0.16435 0.0
C132 C 0.79218 0.61435 0.16253 0.0
N133 N 0.89296 0.56859 0.13605 0.0
C134 C 0.92845 0.52555 0.12625 0.0
C135 C 0.95495 0.54362 0.13378 0.0
C136 C 0.94911 0.57428 0.14269 0.0
C137 C 0.91847 0.58603 0.14387 0.0
C138 C 0.89783 0.53848 0.12733 0.0
H139 H 0.91568 0.60965 0.15104 0.0
H140 H 0.87815 0.52416 0.12116 0.0
H141 H 0.81234 0.62608 0.0956 0.0
H142 H 0.79889 0.60155 0.18114 0.0
C143 C 0.87225 0.65499 0.16264 0.0
C144 C 0.85352 0.55219 0.20384 0.0
C145 C 0.87344 0.61053 0.06837 0.0
C146 C 0.80804 0.53227 0.11256 0.0
H147 H 0.87171 0.59895 0.24469 0.0
H148 H 0.87941 0.65591 0.22304 0.0
H149 H 0.8934 0.69991 0.12132 0.0
H150 H 0.89608 0.67433 0.07031 0.0
H151 H 0.84709 0.56583 0.02975 0.0
H152 H 0.80763 0.52601 0.05308 0.0
H153 H 0.79211 0.48439 0.15113 0.0
H154 H 0.82101 0.49252 0.19937 0.0
H155 H 0.7685 0.66182 0.09732 0.0
H156 H 0.75392 0.63746 0.18414 0.0
H157 H 0.93111 0.50143 0.11992 0.0
H158 H 0.96823 0.58962 0.14849 0.0
C159 C 0.45014 0.86907 0.70372 0.0
C160 C 0.43928 0.8918 0.72214 0.0
C161 C 0.41557 0.90726 0.70886 0.0
C162 C 0.41367 0.894 0.68276 0.0
N163 N 0.43435 0.87058 0.67857 0.0
Co164 Co 0.44528 0.85311 0.64047 0.0
N165 N 0.41004 0.87552 0.62087 0.0
C166 C 0.39092 0.89669 0.63281 0.0
C167 C 0.36931 0.90905 0.61458 0.0
C168 C 0.37529 0.89511 0.58924 0.0
C169 C 0.40033 0.87503 0.59347 0.0
N170 N 0.45767 0.8367 0.6025 0.0
C171 C 0.44434 0.84026 0.57669 0.0
C172 C 0.46136 0.82473 0.5561 0.0
C173 C 0.48633 0.81123 0.56914 0.0
C174 C 0.48322 0.81917 0.59687 0.0
N175 N 0.47984 0.8296 0.65993 0.0
C176 C 0.50059 0.81032 0.64746 0.0
C177 C 0.51888 0.79389 0.6659 0.0
C178 C 0.50982 0.80386 0.69187 0.0
C179 C 0.48707 0.82662 0.68774 0.0
N180 N 0.41611 0.8164 0.64607 0.0
C181 C 0.37104 0.76629 0.649 0.0
C182 C 0.40142 0.76192 0.63798 0.0
C183 C 0.42333 0.78685 0.63682 0.0
C184 C 0.36424 0.79658 0.65884 0.0
C185 C 0.38677 0.82084 0.65735 0.0
N186 N 0.47301 0.8906 0.6348 0.0
C187 C 0.50795 0.92991 0.65443 0.0
C188 C 0.49913 0.95217 0.63409 0.0
C189 C 0.47946 0.94134 0.6125 0.0
C190 C 0.46757 0.91067 0.61288 0.0
C191 C 0.49464 0.8997 0.65451 0.0
H192 H 0.4529 0.90394 0.59573 0.0
H193 H 0.50156 0.88426 0.67109 0.0
H194 H 0.44593 0.78192 0.62795 0.0
H195 H 0.37985 0.84349 0.66483 0.0
C196 C 0.39455 0.9047 0.66099 0.0
C197 C 0.47705 0.84817 0.71019 0.0
C198 C 0.41659 0.85915 0.57021 0.0
C199 C 0.50178 0.80758 0.61842 0.0
H200 H 0.44852 0.89809 0.74248 0.0
H201 H 0.4025 0.92709 0.71674 0.0
H202 H 0.35173 0.92662 0.61901 0.0
H203 H 0.36346 0.90003 0.56963 0.0
H204 H 0.45618 0.82313 0.53393 0.0
H205 H 0.50417 0.79666 0.55965 0.0
H206 H 0.53681 0.77683 0.66105 0.0
H207 H 0.51994 0.79628 0.71157 0.0
H208 H 0.40843 0.73919 0.63021 0.0
H209 H 0.34117 0.80205 0.66695 0.0
H210 H 0.52491 0.93558 0.67051 0.0
H211 H 0.4722 0.95667 0.59563 0.0
C212 C 0.16856 0.58979 0.31572 0.0
C213 C 0.15331 0.60837 0.29609 0.0
C214 C 0.14974 0.63751 0.30795 0.0
C215 C 0.1622 0.63539 0.33449 0.0
N216 N 0.17323 0.6066 0.33995 0.0
Co217 Co 0.18631 0.59164 0.37775 0.0
N218 N 0.16605 0.62676 0.39813 0.0
C219 C 0.15763 0.65394 0.38617 0.0
C220 C 0.14488 0.67446 0.40525 0.0
C221 C 0.14578 0.65929 0.43078 0.0
C222 C 0.15903 0.6302 0.42594 0.0
N223 N 0.1991 0.57515 0.41501 0.0
C224 C 0.18857 0.58197 0.44125 0.0
C225 C 0.20548 0.56547 0.46133 0.0
C226 C 0.22753 0.54829 0.4472 0.0
C227 C 0.22293 0.55509 0.41935 0.0
N228 N 0.20759 0.55705 0.35774 0.0
C229 C 0.23243 0.54132 0.36783 0.0
C230 C 0.24648 0.52261 0.3481 0.0
C231 C 0.22931 0.5268 0.32407 0.0
C232 C 0.20505 0.54723 0.33073 0.0
N233 N 0.22582 0.61739 0.37587 0.0
C234 C 0.27843 0.6594 0.37384 0.0
C235 C 0.26174 0.65361 0.39883 0.0
C236 C 0.23604 0.63284 0.39942 0.0
C237 C 0.26781 0.6433 0.34975 0.0
C238 C 0.24183 0.62244 0.35121 0.0
N239 N 0.14611 0.56793 0.37978 0.0
C240 C 0.11465 0.52128 0.38738 0.0
C241 C 0.0866 0.53821 0.38334 0.0
C242 C 0.08929 0.56993 0.3771 0.0
C243 C 0.11878 0.58404 0.37512 0.0
C244 C 0.14418 0.53665 0.38581 0.0
H245 H 0.1191 0.60835 0.36973 0.0
H246 H 0.16535 0.52339 0.38949 0.0
H247 H 0.22397 0.63004 0.41914 0.0
H248 H 0.23444 0.61076 0.33221 0.0
C249 C 0.15682 0.65665 0.35664 0.0
C250 C 0.18041 0.55714 0.31081 0.0
C251 C 0.16623 0.60709 0.44825 0.0
C252 C 0.23869 0.54134 0.39668 0.0
H253 H 0.14434 0.6018 0.27577 0.0
H254 H 0.13719 0.65712 0.29903 0.0
H255 H 0.13496 0.69725 0.401 0.0
H256 H 0.13765 0.66856 0.45064 0.0
H257 H 0.20305 0.56663 0.4839 0.0
H258 H 0.24477 0.53267 0.45619 0.0
H259 H 0.26625 0.50709 0.35101 0.0
H260 H 0.2339 0.51575 0.30404 0.0
H261 H 0.26788 0.66576 0.41799 0.0
H262 H 0.27959 0.64664 0.3298 0.0
H263 H 0.11375 0.49654 0.39211 0.0
H264 H 0.0685 0.5839 0.37341 0.0
C265 C 0.44982 0.17848 0.81643 0.0
C266 C 0.42996 0.17198 0.79414 0.0
C267 C 0.40063 0.16694 0.8054 0.0
C268 C 0.40399 0.17074 0.83393 0.0
N269 N 0.43364 0.17766 0.84128 0.0
Co270 Co 0.44784 0.18557 0.88052 0.0
N271 N 0.41014 0.16587 0.89784 0.0
C272 C 0.38324 0.15993 0.88413 0.0
C273 C 0.36062 0.14727 0.90135 0.0
C274 C 0.37408 0.14547 0.92758 0.0
C275 C 0.40426 0.1572 0.92501 0.0
N276 N 0.46278 0.19391 0.91947 0.0
C277 C 0.4532 0.18222 0.94459 0.0
C278 C 0.47049 0.19503 0.96645 0.0
C279 C 0.49112 0.21569 0.95483 0.0
C280 C 0.48549 0.21435 0.92655 0.0
N281 N 0.48589 0.20522 0.86355 0.0
C282 C 0.5067 0.22338 0.87722 0.0
C283 C 0.53264 0.23064 0.86152 0.0
C284 C 0.52795 0.21642 0.83623 0.0
C285 C 0.49879 0.20192 0.83755 0.0
N286 N 0.42468 0.22659 0.88028 0.0
C287 C 0.38115 0.27781 0.87777 0.0
C288 C 0.38569 0.26025 0.90245 0.0
C289 C 0.40726 0.23522 0.90329 0.0
C290 C 0.40001 0.26945 0.85456 0.0
C291 C 0.4217 0.24428 0.85632 0.0
N292 N 0.46881 0.14387 0.8806 0.0
C293 C 0.51109 0.10831 0.89298 0.0
C294 C 0.49517 0.08271 0.88095 0.0
C295 C 0.46583 0.08865 0.86899 0.0
C296 C 0.45309 0.11887 0.86931 0.0
C297 C 0.49774 0.13868 0.89229 0.0
H298 H 0.43007 0.1217 0.86054 0.0
H299 H 0.51068 0.15786 0.90137 0.0
H300 H 0.40868 0.22203 0.92252 0.0
H301 H 0.43531 0.23855 0.83789 0.0
C302 C 0.38158 0.16344 0.85472 0.0
C303 C 0.48323 0.18764 0.81303 0.0
C304 C 0.42584 0.16188 0.94907 0.0
C305 C 0.50449 0.22771 0.90609 0.0
H306 H 0.43603 0.17115 0.77206 0.0
H307 H 0.37961 0.16032 0.79414 0.0
H308 H 0.33731 0.13969 0.89548 0.0
H309 H 0.36286 0.13696 0.94651 0.0
H310 H 0.46829 0.19021 0.98855 0.0
H311 H 0.50887 0.22921 0.96563 0.0
H312 H 0.55338 0.24319 0.86821 0.0
H313 H 0.54434 0.21678 0.81887 0.0
H314 H 0.37171 0.26495 0.92098 0.0
H315 H 0.39797 0.2822 0.835 0.0
H316 H 0.53386 0.10496 0.90258 0.0
H317 H 0.45231 0.06978 0.85985 0.0
C318 C 0.86344 0.44657 0.31449 0.0
C319 C 0.87138 0.42703 0.29238 0.0
C320 C 0.87516 0.39754 0.30352 0.0
C321 C 0.86926 0.40048 0.33183 0.0
N322 N 0.86213 0.42998 0.33909 0.0
Co323 Co 0.8524 0.44392 0.37802 0.0
N324 N 0.87086 0.40612 0.39591 0.0
C325 C 0.87652 0.37913 0.38236 0.0
C326 C 0.88787 0.3563 0.39997 0.0
C327 C 0.88904 0.36972 0.42625 0.0
C328 C 0.87832 0.40012 0.42332 0.0
N329 N 0.84295 0.45904 0.41664 0.0
C330 C 0.85452 0.45002 0.44195 0.0
C331 C 0.8421 0.46824 0.46333 0.0
C332 C 0.82146 0.48856 0.45129 0.0
C333 C 0.8226 0.48198 0.42318 0.0
N334 N 0.8334 0.48178 0.36044 0.0
C335 C 0.81393 0.50196 0.3734 0.0
C336 C 0.80645 0.5274 0.3573 0.0
C337 C 0.82201 0.52309 0.33253 0.0
C338 C 0.83769 0.49468 0.33457 0.0
N339 N 0.81113 0.42097 0.37666 0.0
C340 C 0.76157 0.37553 0.37314 0.0
C341 C 0.77682 0.3824 0.39862 0.0
C342 C 0.80115 0.40472 0.39991 0.0
C343 C 0.77035 0.39409 0.34986 0.0
C344 C 0.79488 0.41656 0.35205 0.0
N345 N 0.89435 0.46442 0.37936 0.0
C346 C 0.92945 0.50779 0.38922 0.0
C347 C 0.9562 0.4898 0.38221 0.0
C348 C 0.95065 0.45902 0.37346 0.0
C349 C 0.92009 0.4471 0.37195 0.0
C350 C 0.89892 0.49465 0.38788 0.0
H351 H 0.91757 0.4234 0.36489 0.0
H352 H 0.87905 0.5089 0.3937 0.0
H353 H 0.81287 0.40754 0.41977 0.0
H354 H 0.80155 0.42937 0.33341 0.0
C355 C 0.87473 0.37778 0.35277 0.0
C356 C 0.85486 0.48009 0.31104 0.0
C357 C 0.87373 0.42202 0.44714 0.0
C358 C 0.80915 0.50024 0.40226 0.0
H359 H 0.87397 0.43342 0.27049 0.0
H360 H 0.88238 0.3767 0.2924 0.0
H361 H 0.89517 0.33291 0.39432 0.0
H362 H 0.89662 0.35839 0.44541 0.0
H363 H 0.84729 0.46694 0.48537 0.0
H364 H 0.80818 0.50675 0.46169 0.0
H365 H 0.79308 0.54775 0.36351 0.0
H366 H 0.82208 0.53951 0.31528 0.0
H367 H 0.77045 0.37012 0.41768 0.0
H368 H 0.75925 0.39045 0.32968 0.0
H369 H 0.93186 0.532 0.39536 0.0
H370 H 0.96993 0.44372 0.36804 0.0
C371 C 0.58988 0.86618 0.81665 0.0
C372 C 0.6051 0.8845 0.79678 0.0
C373 C 0.63245 0.89465 0.8088 0.0
C374 C 0.63233 0.88277 0.83556 0.0
N375 N 0.60665 0.86563 0.84132 0.0
Co376 Co 0.59443 0.85043 0.87974 0.0
N377 N 0.63039 0.87189 0.89896 0.0
C378 C 0.65428 0.88631 0.88586 0.0
C379 C 0.67649 0.89779 0.90406 0.0
C380 C 0.66604 0.89004 0.93044 0.0
C381 C 0.638 0.8742 0.92683 0.0
N382 N 0.58072 0.83582 0.91777 0.0
C383 C 0.59097 0.84351 0.94395 0.0
C384 C 0.57576 0.82597 0.96437 0.0
C385 C 0.55562 0.80642 0.95073 0.0
C386 C 0.55962 0.81303 0.9228 0.0
N387 N 0.55985 0.82696 0.86056 0.0
C388 C 0.54386 0.80297 0.872 0.0
C389 C 0.5265 0.78624 0.85302 0.0
C390 C 0.53173 0.80047 0.82777 0.0
C391 C 0.55144 0.82565 0.83296 0.0
N392 N 0.62215 0.81235 0.87587 0.0
C393 C 0.66396 0.75966 0.87201 0.0
C394 C 0.65902 0.77582 0.8973 0.0
C395 C 0.63838 0.80145 0.89879 0.0
C396 C 0.64753 0.77113 0.84838 0.0
C397 C 0.62684 0.79718 0.85074 0.0
N398 N 0.56786 0.88962 0.88396 0.0
C399 C 0.5307 0.92759 0.86483 0.0
C400 C 0.54086 0.95126 0.8833 0.0
C401 C 0.56284 0.94216 0.90356 0.0
C402 C 0.57524 0.91172 0.90388 0.0
C403 C 0.54423 0.89733 0.8656 0.0
H404 H 0.59122 0.90706 0.92042 0.0
H405 H 0.53521 0.88059 0.85109 0.0
H406 H 0.63617 0.81252 0.91886 0.0
H407 H 0.61478 0.80502 0.8321 0.0
C408 C 0.65353 0.89071 0.85679 0.0
C409 C 0.56012 0.84878 0.81138 0.0
C410 C 0.61793 0.8637 0.95031 0.0
C411 C 0.54447 0.7979 0.90082 0.0
H412 H 0.59725 0.89089 0.77602 0.0
H413 H 0.64957 0.91028 0.79956 0.0
H414 H 0.6974 0.91092 0.89883 0.0
H415 H 0.67734 0.89587 0.9501 0.0
H416 H 0.58022 0.82584 0.98664 0.0
H417 H 0.54059 0.78882 0.96002 0.0
H418 H 0.51162 0.76624 0.85709 0.0
H419 H 0.52167 0.79351 0.80786 0.0
H420 H 0.67158 0.76915 0.91612 0.0
H421 H 0.65032 0.75988 0.82817 0.0
H422 H 0.51225 0.93212 0.84979 0.0
H423 H 0.57133 0.9587 0.91898 0.0
C424 C 0.83679 0.53836 0.83563 0.0
C425 C 0.82183 0.50952 0.83423 0.0
C426 C 0.80617 0.5056 0.85902 0.0
C427 C 0.81301 0.53166 0.87453 0.0
N428 N 0.83223 0.55184 0.86123 0.0
Co429 Co 0.85131 0.58998 0.87824 0.0
N430 N 0.841 0.57589 0.91705 0.0
C431 C 0.81922 0.55427 0.92365 0.0
C432 C 0.81477 0.55072 0.95196 0.0
C433 C 0.83484 0.57158 0.96403 0.0
C434 C 0.85077 0.58653 0.94242 0.0
N435 N 0.87068 0.62765 0.89555 0.0
C436 C 0.87858 0.63375 0.92285 0.0
C437 C 0.89073 0.66366 0.92532 0.0
C438 C 0.89005 0.67669 0.89884 0.0
C439 C 0.87756 0.6541 0.88159 0.0
N440 N 0.86071 0.60338 0.839 0.0
C441 C 0.86785 0.6328 0.83138 0.0
C442 C 0.87298 0.63555 0.80294 0.0
C443 C 0.8686 0.60605 0.79205 0.0
C444 C 0.86118 0.58668 0.81446 0.0
N445 N 0.81029 0.61329 0.87649 0.0
C446 C 0.75903 0.6567 0.87282 0.0
C447 C 0.76814 0.63803 0.84975 0.0
C448 C 0.79334 0.61635 0.8521 0.0
C449 C 0.77591 0.65218 0.89783 0.0
C450 C 0.80098 0.63077 0.89922 0.0
N451 N 0.89316 0.56908 0.88016 0.0
C452 C 0.94881 0.57163 0.86935 0.0
C453 C 0.95554 0.5452 0.88571 0.0
C454 C 0.9295 0.53021 0.89838 0.0
C455 C 0.89866 0.54224 0.89512 0.0
C456 C 0.91827 0.58349 0.86761 0.0
H457 H 0.87943 0.53015 0.90515 0.0
H458 H 0.91543 0.60493 0.8562 0.0
H459 H 0.79968 0.6028 0.83381 0.0
H460 H 0.81364 0.62959 0.91871 0.0
C461 C 0.80676 0.53487 0.90308 0.0
C462 C 0.85268 0.55314 0.81143 0.0
C463 C 0.87243 0.61273 0.94702 0.0
C464 C 0.87488 0.65533 0.85207 0.0
H465 H 0.82205 0.4929 0.81713 0.0
H466 H 0.7928 0.48533 0.86552 0.0
H467 H 0.79917 0.5346 0.96257 0.0
H468 H 0.83666 0.5761 0.98616 0.0
H469 H 0.89869 0.67501 0.94434 0.0
H470 H 0.89817 0.69972 0.89286 0.0
H471 H 0.88024 0.65623 0.79156 0.0
H472 H 0.87063 0.59951 0.77016 0.0
H473 H 0.75593 0.64018 0.82991 0.0
H474 H 0.7706 0.66605 0.91625 0.0
H475 H 0.96697 0.58346 0.85757 0.0
H476 H 0.93282 0.50953 0.91112 0.0
C477 C 0.49685 0.83434 0.33628 0.0
C478 C 0.52555 0.81908 0.33416 0.0
C479 C 0.53039 0.80412 0.35909 0.0
C480 C 0.50493 0.81152 0.37533 0.0
N481 N 0.4842 0.83035 0.3623 0.0
Co482 Co 0.44597 0.84895 0.37988 0.0
N483 N 0.46128 0.83964 0.41858 0.0
C484 C 0.48479 0.81993 0.4251 0.0
C485 C 0.49069 0.81799 0.45332 0.0
C486 C 0.46931 0.83739 0.46556 0.0
C487 C 0.45129 0.85001 0.44403 0.0
N488 N 0.40769 0.86692 0.39768 0.0
C489 C 0.40114 0.87348 0.42515 0.0
C490 C 0.37048 0.88377 0.42805 0.0
C491 C 0.35738 0.88322 0.40165 0.0
C492 C 0.38065 0.87263 0.38406 0.0
N493 N 0.43181 0.85848 0.34094 0.0
C494 C 0.4022 0.8656 0.33366 0.0
C495 C 0.39913 0.87125 0.30534 0.0
C496 C 0.42865 0.86731 0.29414 0.0
C497 C 0.4483 0.85954 0.31626 0.0
N498 N 0.42345 0.80755 0.37853 0.0
C499 C 0.38044 0.75588 0.37545 0.0
C500 C 0.39802 0.76582 0.35191 0.0
C501 C 0.41948 0.7912 0.35394 0.0
C502 C 0.38597 0.77212 0.40065 0.0
C503 C 0.40726 0.79734 0.40176 0.0
N504 N 0.46628 0.89101 0.38114 0.0
C505 C 0.46101 0.94716 0.3749 0.0
C506 C 0.49227 0.95268 0.38268 0.0
C507 C 0.51032 0.92597 0.38948 0.0
C508 C 0.4969 0.89559 0.38885 0.0
C509 C 0.44878 0.9167 0.37403 0.0
H510 H 0.51135 0.87584 0.39444 0.0
H511 H 0.42479 0.91418 0.36755 0.0
H512 H 0.43209 0.79818 0.33527 0.0
H513 H 0.40933 0.80941 0.42148 0.0
C514 C 0.50342 0.80692 0.4042 0.0
C515 C 0.48181 0.85089 0.3127 0.0
C516 C 0.42255 0.8681 0.4491 0.0
C517 C 0.37939 0.871 0.35452 0.0
H518 H 0.54178 0.81901 0.31669 0.0
H519 H 0.55104 0.79112 0.36526 0.0
H520 H 0.50883 0.80463 0.46373 0.0
H521 H 0.46687 0.84119 0.48789 0.0
H522 H 0.35874 0.8905 0.44728 0.0
H523 H 0.33384 0.89021 0.39595 0.0
H524 H 0.37816 0.87831 0.29424 0.0
H525 H 0.43498 0.86967 0.27221 0.0
H526 H 0.39515 0.75414 0.3319 0.0
H527 H 0.37294 0.76624 0.41946 0.0
H528 H 0.44559 0.96638 0.36969 0.0
H529 H 0.53486 0.92822 0.39484 0.0
C530 C 0.20558 0.48644 0.8308 0.0
C531 C 0.22893 0.50813 0.82472 0.0
C532 C 0.24575 0.5125 0.84889 0.0
C533 C 0.23229 0.49291 0.86825 0.0
N534 N 0.20807 0.47641 0.85785 0.0
Co535 Co 0.18665 0.44181 0.87801 0.0
N536 N 0.19951 0.45826 0.91532 0.0
C537 C 0.22341 0.47825 0.91968 0.0
C538 C 0.22812 0.48498 0.94752 0.0
C539 C 0.20606 0.46783 0.96166 0.0
C540 C 0.18902 0.45147 0.94158 0.0
N541 N 0.16558 0.40717 0.89845 0.0
C542 C 0.15834 0.40398 0.92625 0.0
C543 C 0.14429 0.37527 0.9312 0.0
C544 C 0.14305 0.36005 0.90575 0.0
C545 C 0.15639 0.38019 0.88663 0.0
N546 N 0.17421 0.42639 0.84006 0.0
C547 C 0.16257 0.39771 0.83483 0.0
C548 C 0.14881 0.396 0.80879 0.0
C549 C 0.15235 0.42511 0.79698 0.0
C550 C 0.16948 0.44306 0.81578 0.0
N551 N 0.22603 0.41584 0.87658 0.0
C552 C 0.27874 0.37389 0.87534 0.0
C553 C 0.26894 0.39053 0.85122 0.0
C554 C 0.24287 0.41131 0.85229 0.0
C555 C 0.26111 0.37908 0.89991 0.0
C556 C 0.23544 0.39986 0.90013 0.0
N557 N 0.14649 0.46583 0.87992 0.0
C558 C 0.09015 0.46596 0.87226 0.0
C559 C 0.08628 0.49495 0.88553 0.0
C560 C 0.11406 0.50917 0.89582 0.0
C561 C 0.14378 0.49459 0.89234 0.0
C562 C 0.11962 0.45176 0.8704 0.0
H563 H 0.16441 0.50623 0.90035 0.0
H564 H 0.12011 0.4288 0.86153 0.0
H565 H 0.23611 0.42339 0.8333 0.0
H566 H 0.22276 0.40229 0.91958 0.0
C567 C 0.23867 0.49254 0.89704 0.0
C568 C 0.18245 0.4751 0.81 0.0
C569 C 0.16618 0.42684 0.94855 0.0
C570 C 0.15615 0.37709 0.85721 0.0
H571 H 0.23359 0.51953 0.80485 0.0
H572 H 0.26499 0.52861 0.8521 0.0
H573 H 0.24532 0.50068 0.95647 0.0
H574 H 0.20357 0.46673 0.98425 0.0
H575 H 0.13594 0.36626 0.9511 0.0
H576 H 0.13268 0.33744 0.90158 0.0
H577 H 0.13485 0.37696 0.80056 0.0
H578 H 0.14169 0.43243 0.77751 0.0
H579 H 0.28141 0.38767 0.83157 0.0
H580 H 0.26649 0.36648 0.91902 0.0
H581 H 0.07038 0.4537 0.86326 0.0
H582 H 0.11316 0.53099 0.90717 0.0
C583 C 0.55147 0.19991 0.32675 0.0
C584 C 0.5298 0.22303 0.32008 0.0
C585 C 0.5249 0.24008 0.344 0.0
C586 C 0.54426 0.22701 0.36373 0.0
N587 N 0.56115 0.20287 0.35379 0.0
Co588 Co 0.59601 0.18235 0.37431 0.0
N589 N 0.57889 0.1954 0.41135 0.0
C590 C 0.55761 0.21823 0.41534 0.0
C591 C 0.55009 0.22275 0.44304 0.0
C592 C 0.56813 0.2018 0.4575 0.0
C593 C 0.58594 0.1857 0.43778 0.0
N594 N 0.63148 0.16301 0.39509 0.0
C595 C 0.63544 0.15753 0.42309 0.0
C596 C 0.66492 0.14513 0.42823 0.0
C597 C 0.67988 0.14312 0.40267 0.0
C598 C 0.65884 0.15445 0.38332 0.0
N599 N 0.61148 0.16877 0.33673 0.0
C600 C 0.64007 0.15669 0.33172 0.0
C601 C 0.64154 0.1418 0.3062 0.0
C602 C 0.61227 0.145 0.29444 0.0
C603 C 0.59451 0.16294 0.31279 0.0
N604 N 0.62153 0.22198 0.37222 0.0
C605 C 0.66538 0.27303 0.3701 0.0
C606 C 0.64909 0.26276 0.34594 0.0
C607 C 0.62751 0.23734 0.34741 0.0
C608 C 0.65767 0.25786 0.39538 0.0
C609 C 0.63617 0.23284 0.39599 0.0
N610 N 0.57248 0.14197 0.37673 0.0
C611 C 0.57477 0.08522 0.37548 0.0
C612 C 0.5427 0.08246 0.38087 0.0
C613 C 0.52551 0.11049 0.38372 0.0
C614 C 0.54088 0.13997 0.38191 0.0
C615 C 0.5889 0.11466 0.3732 0.0
H616 H 0.5273 0.16105 0.38475 0.0
H617 H 0.61349 0.11493 0.36852 0.0
H618 H 0.61628 0.22963 0.32828 0.0
H619 H 0.63228 0.22174 0.41596 0.0
C620 C 0.54358 0.23322 0.39251 0.0
C621 C 0.56243 0.17584 0.3068 0.0
C622 C 0.61258 0.16549 0.44536 0.0
C623 C 0.66142 0.15226 0.35392 0.0
H624 H 0.51851 0.22714 0.30007 0.0
H625 H 0.50843 0.25905 0.34687 0.0
H626 H 0.53346 0.23925 0.45171 0.0
H627 H 0.56898 0.19961 0.48007 0.0
H628 H 0.6746 0.13837 0.44835 0.0
H629 H 0.70292 0.13351 0.39862 0.0
H630 H 0.66062 0.12766 0.29822 0.0
H631 H 0.60476 0.13375 0.27532 0.0
H632 H 0.65371 0.27361 0.3258 0.0
H633 H 0.66848 0.26507 0.41491 0.0
H634 H 0.58903 0.0645 0.37266 0.0
H635 H 0.50054 0.10965 0.38779 0.0
C636 C 0.83616 0.49641 0.67983 0.0
C637 C 0.82175 0.52551 0.68114 0.0
C638 C 0.80635 0.52968 0.65629 0.0
C639 C 0.81279 0.50346 0.64083 0.0
N640 N 0.83149 0.48296 0.65423 0.0
Co641 Co 0.84993 0.44444 0.63735 0.0
N642 N 0.84034 0.45867 0.59846 0.0
C643 C 0.81916 0.48079 0.59172 0.0
C644 C 0.81519 0.48452 0.5634 0.0
C645 C 0.83492 0.46325 0.55145 0.0
C646 C 0.85015 0.44783 0.57314 0.0
N647 N 0.86864 0.40634 0.6202 0.0
C648 C 0.87658 0.39997 0.59295 0.0
C649 C 0.88804 0.36979 0.59061 0.0
C650 C 0.88688 0.35687 0.61711 0.0
C651 C 0.8748 0.37979 0.63425 0.0
N652 N 0.85871 0.43094 0.67665 0.0
C653 C 0.86519 0.40141 0.68436 0.0
C654 C 0.87013 0.39866 0.71282 0.0
C655 C 0.86636 0.42828 0.72361 0.0
C656 C 0.85945 0.44771 0.70113 0.0
N657 N 0.80834 0.42198 0.63886 0.0
C658 C 0.75536 0.3804 0.64201 0.0
C659 C 0.76479 0.39883 0.66514 0.0
C660 C 0.79087 0.41956 0.66307 0.0
C661 C 0.77298 0.38413 0.61725 0.0
C662 C 0.79885 0.40465 0.6161 0.0
N663 N 0.89221 0.46456 0.63566 0.0
C664 C 0.94779 0.46107 0.6465 0.0
C665 C 0.95495 0.48788 0.63073 0.0
C666 C 0.92916 0.50342 0.61827 0.0
C667 C 0.89816 0.49165 0.62121 0.0
C668 C 0.91704 0.44955 0.648 0.0
H669 H 0.87915 0.50419 0.61137 0.0
H670 H 0.91377 0.42795 0.65909 0.0
H671 H 0.79738 0.43296 0.68139 0.0
H672 H 0.81188 0.40534 0.59676 0.0
C673 C 0.80684 0.5004 0.61223 0.0
C674 C 0.85173 0.48143 0.70405 0.0
C675 C 0.87102 0.42097 0.56865 0.0
C676 C 0.87186 0.37868 0.66375 0.0
H677 H 0.82222 0.54218 0.6982 0.0
H678 H 0.79347 0.5502 0.6497 0.0
H679 H 0.80013 0.50103 0.55269 0.0
H680 H 0.83696 0.45881 0.52932 0.0
H681 H 0.89586 0.35819 0.57165 0.0
H682 H 0.8944 0.33369 0.62318 0.0
H683 H 0.87691 0.37787 0.72426 0.0
H684 H 0.86845 0.43486 0.74548 0.0
H685 H 0.75212 0.39727 0.68482 0.0
H686 H 0.76757 0.37033 0.59881 0.0
H687 H 0.96574 0.44875 0.65807 0.0
H688 H 0.93279 0.52437 0.60595 0.0
C689 C 0.53967 0.8297 0.18176 0.0
C690 C 0.51148 0.81342 0.1833 0.0
C691 C 0.50816 0.79774 0.15849 0.0
C692 C 0.53395 0.80572 0.14287 0.0
N693 N 0.5534 0.82558 0.15619 0.0
Co694 Co 0.59126 0.84564 0.13944 0.0
N695 N 0.57728 0.83595 0.10056 0.0
C696 C 0.55542 0.81458 0.09355 0.0
C697 C 0.55009 0.81279 0.06524 0.0
C698 C 0.57011 0.83407 0.05359 0.0
C699 C 0.58682 0.84761 0.07547 0.0
N700 N 0.6288 0.86579 0.12256 0.0
C701 C 0.635 0.87399 0.09539 0.0
C702 C 0.66498 0.88629 0.09308 0.0
C703 C 0.67795 0.88537 0.11954 0.0
C704 C 0.65526 0.87261 0.13662 0.0
N705 N 0.60439 0.85471 0.17869 0.0
C706 C 0.63372 0.86217 0.18658 0.0
C707 C 0.63589 0.86776 0.21498 0.0
C708 C 0.60608 0.86347 0.2255 0.0
C709 C 0.58714 0.85564 0.20291 0.0
N710 N 0.61522 0.80502 0.14049 0.0
C711 C 0.65753 0.75266 0.14237 0.0
C712 C 0.63927 0.7615 0.16587 0.0
C713 C 0.61821 0.78732 0.16445 0.0
C714 C 0.6534 0.7707 0.11795 0.0
C715 C 0.6325 0.79623 0.11743 0.0
N716 N 0.56942 0.88694 0.13802 0.0
C717 C 0.57008 0.94248 0.14891 0.0
C718 C 0.54284 0.94826 0.13313 0.0
C719 C 0.52934 0.92188 0.1198 0.0
C720 C 0.54239 0.89165 0.12308 0.0
C721 C 0.58315 0.91239 0.15051 0.0
H722 H 0.53095 0.87224 0.11287 0.0
H723 H 0.6049 0.91012 0.16169 0.0
H724 H 0.60491 0.79336 0.183 0.0
H725 H 0.63134 0.8095 0.09826 0.0
C726 C 0.53677 0.80073 0.11408 0.0
C727 C 0.55342 0.84732 0.20543 0.0
C728 C 0.61398 0.86827 0.07116 0.0
C729 C 0.65644 0.86961 0.1661 0.0
H730 H 0.49456 0.81314 0.20022 0.0
H731 H 0.48822 0.78388 0.15194 0.0
H732 H 0.53293 0.79857 0.05443 0.0
H733 H 0.57232 0.83879 0.03146 0.0
H734 H 0.6764 0.89459 0.07416 0.0
H735 H 0.70099 0.89353 0.12564 0.0
H736 H 0.65634 0.87548 0.22651 0.0
H737 H 0.59905 0.86596 0.24724 0.0
H738 H 0.64117 0.74854 0.18534 0.0
H739 H 0.66709 0.76585 0.09929 0.0
H740 H 0.58173 0.96115 0.16012 0.0
H741 H 0.50924 0.92421 0.1062 0.0
C742 C 0.2061 0.5483 0.68757 0.0
C743 C 0.23124 0.52886 0.69395 0.0
C744 C 0.2483 0.52537 0.66976 0.0
C745 C 0.23329 0.54351 0.6502 0.0
N746 N 0.2079 0.55823 0.66049 0.0
Co747 Co 0.18546 0.5924 0.64084 0.0
N748 N 0.1991 0.57699 0.60341 0.0
C749 C 0.22382 0.55805 0.5989 0.0
C750 C 0.22898 0.55196 0.571 0.0
C751 C 0.20636 0.56844 0.557 0.0
C752 C 0.18858 0.58383 0.57722 0.0
N753 N 0.16355 0.62671 0.62085 0.0
C754 C 0.1564 0.63013 0.59305 0.0
C755 C 0.14178 0.65859 0.58845 0.0
C756 C 0.14009 0.67341 0.61412 0.0
C757 C 0.15376 0.65328 0.63303 0.0
N758 N 0.17247 0.60677 0.67897 0.0
C759 C 0.16109 0.63539 0.68469 0.0
C760 C 0.14928 0.63724 0.7115 0.0
C761 C 0.15377 0.60819 0.72329 0.0
C762 C 0.16893 0.58992 0.70334 0.0
N763 N 0.22396 0.61955 0.64291 0.0
C764 C 0.27364 0.66483 0.64657 0.0
C765 C 0.2648 0.64608 0.66974 0.0
C766 C 0.24015 0.62387 0.66752 0.0
C767 C 0.25746 0.65912 0.62133 0.0
C768 C 0.23311 0.63676 0.61994 0.0
N769 N 0.14586 0.5674 0.63855 0.0
C770 C 0.08954 0.56635 0.6464 0.0
C771 C 0.0859 0.53787 0.63228 0.0
C772 C 0.11382 0.52423 0.62159 0.0
C773 C 0.14344 0.53904 0.62534 0.0
C774 C 0.11885 0.58076 0.64859 0.0
H775 H 0.16418 0.52798 0.61689 0.0
H776 H 0.11905 0.60342 0.65809 0.0
H777 H 0.23385 0.61058 0.68599 0.0
H778 H 0.22111 0.63417 0.60018 0.0
C779 C 0.23982 0.54441 0.62142 0.0
C780 C 0.18168 0.55759 0.708 0.0
C781 C 0.16503 0.60781 0.57047 0.0
C782 C 0.15392 0.65615 0.66255 0.0
H783 H 0.23662 0.51816 0.71398 0.0
H784 H 0.2688 0.51086 0.6667 0.0
H785 H 0.24692 0.53721 0.56191 0.0
H786 H 0.20407 0.56986 0.53443 0.0
H787 H 0.13346 0.66776 0.56862 0.0
H788 H 0.12939 0.6958 0.61852 0.0
H789 H 0.13639 0.65651 0.72064 0.0
H790 H 0.14532 0.60144 0.74376 0.0
H791 H 0.27684 0.64837 0.68963 0.0
H792 H 0.26289 0.67258 0.60267 0.0
H793 H 0.06965 0.5781 0.65578 0.0
H794 H 0.11305 0.50273 0.60971 0.0
C795 C 0.48664 0.19924 0.18701 0.0
C796 C 0.5071 0.22364 0.19308 0.0
C797 C 0.51089 0.24037 0.16876 0.0
C798 C 0.49193 0.2259 0.14948 0.0
N799 N 0.47641 0.20121 0.16008 0.0
Co800 Co 0.44123 0.17973 0.14101 0.0
N801 N 0.4569 0.19217 0.10332 0.0
C802 C 0.4768 0.21605 0.09843 0.0
C803 C 0.48262 0.22086 0.07046 0.0
C804 C 0.46492 0.19896 0.05684 0.0
C805 C 0.44911 0.18191 0.07726 0.0
N806 N 0.40578 0.15886 0.12159 0.0
C807 C 0.40153 0.15185 0.09385 0.0
C808 C 0.37227 0.13848 0.08972 0.0
C809 C 0.35779 0.13748 0.1156 0.0
C810 C 0.37888 0.15028 0.13417 0.0
N811 N 0.42673 0.16781 0.17938 0.0
C812 C 0.39768 0.1576 0.18556 0.0
C813 C 0.3958 0.1461 0.21246 0.0
C814 C 0.42531 0.14951 0.2238 0.0
C815 C 0.4439 0.16373 0.20349 0.0
N816 N 0.41539 0.21906 0.14285 0.0
C817 C 0.37261 0.27083 0.14558 0.0
C818 C 0.38979 0.26082 0.16927 0.0
C819 C 0.41105 0.23531 0.16744 0.0
C820 C 0.37785 0.25414 0.12055 0.0
C821 C 0.39896 0.22878 0.11963 0.0
N822 N 0.46494 0.13942 0.13904 0.0
C823 C 0.46402 0.08354 0.14791 0.0
C824 C 0.49233 0.07865 0.13364 0.0
C825 C 0.50755 0.10575 0.12324 0.0
C826 C 0.49363 0.13585 0.12635 0.0
C827 C 0.45052 0.1132 0.14944 0.0
H828 H 0.50571 0.15604 0.11798 0.0
H829 H 0.42775 0.11434 0.15887 0.0
H830 H 0.42356 0.22842 0.18617 0.0
H831 H 0.40123 0.21654 0.09998 0.0
C832 C 0.49113 0.23196 0.12065 0.0
C833 C 0.47695 0.17513 0.20747 0.0
C834 C 0.42366 0.15974 0.07082 0.0
C835 C 0.37633 0.15095 0.16371 0.0
H836 H 0.51837 0.22867 0.21293 0.0
H837 H 0.52622 0.2602 0.1654 0.0
H838 H 0.49779 0.23827 0.06106 0.0
H839 H 0.46271 0.19688 0.0344 0.0
H840 H 0.36233 0.13068 0.07002 0.0
H841 H 0.33489 0.12789 0.12034 0.0
H842 H 0.37612 0.13403 0.22193 0.0
H843 H 0.43207 0.14097 0.24421 0.0
H844 H 0.38695 0.27272 0.18918 0.0
H845 H 0.36498 0.26001 0.10168 0.0
H846 H 0.45178 0.06445 0.15801 0.0
H847 H 0.52975 0.10376 0.11234 0.0
C848 C 0.04193 0.52998 0.15344 0.0
C849 C 0.05312 0.50978 0.13239 0.0
C850 C 1.01043 0.54037 0.15378 0.0
C851 C 0.98845 0.53131 0.13296 0.0
H852 H 0.05738 0.53703 0.17034 0.0
H853 H 1.00315 0.5552 0.17101 0.0
S854 S 1.00684 0.47997 0.07209 0.0
N855 N 0.04009 0.48157 0.08981 0.0
N856 N 0.98165 0.50185 0.08966 0.0
C857 C 0.99975 0.51151 0.11146 0.0
C858 C 0.03174 0.50066 0.11136 0.0
C859 C 0.51504 1.00315 0.60996 0.0
C860 C 0.51004 0.98611 0.63504 0.0
C861 C 0.52405 0.03491 0.61005 0.0
C862 C 0.52926 0.05169 0.63522 0.0
H863 H 0.5122 0.99188 0.58977 0.0
H864 H 0.52666 0.0464 0.58993 0.0
S865 S 0.51988 0.01852 0.70712 0.0
N866 N 0.51013 0.98946 0.68611 0.0
N867 N 0.52952 0.0478 0.68626 0.0
C868 C 0.52474 0.03489 0.66054 0.0
C869 C 0.51476 1.00264 0.66046 0.0
C870 C 0.04373 0.50321 0.36406 0.0
C871 C 0.05435 0.52385 0.38498 0.0
C872 C 1.01223 0.49282 0.36322 0.0
C873 C 0.98966 0.50227 0.38344 0.0
H874 H 0.05967 0.49578 0.34763 0.0
H875 H 1.00545 0.47764 0.34609 0.0
S876 S 1.0064 0.55492 0.44378 0.0
N877 N 0.04013 0.55295 0.42678 0.0
N878 N 0.98169 0.53265 0.42608 0.0
C879 C 1.00038 0.52255 0.40482 0.0
C880 C 0.03238 0.53342 0.40539 0.0
C881 C 0.52527 1.00282 0.90692 0.0
C882 C 0.52893 0.98489 0.88206 0.0
C883 C 0.5154 0.03442 0.9064 0.0
C884 C 0.50817 0.0498 0.88104 0.0
H885 H 0.52963 0.9923 0.92722 0.0
H886 H 0.51266 0.0467 0.92615 0.0
S887 S 0.51539 1.01527 0.80976 0.0
N888 N 0.526 0.98663 0.83099 0.0
N889 N 0.50636 0.04503 0.83029 0.0
C890 C 0.51177 0.03245 0.85605 0.0
C891 C 0.5223 1.00041 0.85649 0.0
C892 C 0.99563 0.50101 0.88998 0.0
C893 C 0.98918 0.53328 0.88852 0.0
C894 C 0.02664 0.4893 0.89019 0.0
C895 C 0.05338 0.50898 0.88828 0.0
H896 H 0.97655 0.48433 0.89024 0.0
H897 H 0.02944 0.46423 0.89165 0.0
S898 S 0.05006 0.59588 0.88752 0.0
N899 N 1.01295 0.58509 0.88904 0.0
N900 N 0.07048 0.56318 0.88659 0.0
C901 C 0.0473 0.54144 0.88787 0.0
C902 C 1.01563 0.55345 0.88855 0.0
C903 C 0.50604 0.03976 0.36328 0.0
C904 C 0.52821 0.05024 0.38305 0.0
C905 C 0.49502 1.0085 0.3632 0.0
C906 C 0.50523 0.986 0.38312 0.0
H907 H 0.49784 0.0556 0.34713 0.0
H908 H 0.47868 1.00185 0.34687 0.0
S909 S 0.56155 1.00252 0.44093 0.0
N910 N 0.5593 0.03594 0.42369 0.0
N911 N 0.53786 0.97812 0.42445 0.0
C912 C 0.52696 0.99662 0.40343 0.0
C913 C 0.5385 0.02834 0.4032 0.0
C914 C 0.99531 0.53198 0.62738 0.0
C915 C 0.98872 0.4997 0.62833 0.0
C916 C 0.02635 0.54363 0.62741 0.0
C917 C 0.05302 0.52388 0.62907 0.0
H918 H 0.9763 0.54873 0.62734 0.0
H919 H 0.02923 0.56873 0.62638 0.0
S920 S 0.04947 0.43702 0.62848 0.0
N921 N 1.01237 0.44787 0.62714 0.0
N922 N 0.06999 0.46967 0.62987 0.0
C923 C 0.04685 0.49144 0.62894 0.0
C924 C 1.01513 0.47948 0.62807 0.0
C925 C 0.5375 0.03906 0.13279 0.0
C926 C 0.50517 0.04551 0.13043 0.0
C927 C 0.54926 1.00807 0.1328 0.0
C928 C 0.52944 0.98144 0.13093 0.0
H929 H 0.55397 0.0581 0.13542 0.0
H930 H 0.57439 1.00517 0.13445 0.0
S931 S 0.44281 0.98527 0.12139 0.0
N932 N 0.45383 0.02218 0.12251 0.0
N933 N 0.47518 0.96475 0.12556 0.0
C934 C 0.49706 0.98771 0.1277 0.0
C935 C 0.48522 0.01929 0.12677 0.0
C936 C 0.17282 0.54718 0.25736 0.0
C937 C 0.17344 0.53593 0.28528 0.0
C938 C 0.17096 0.52689 0.23385 0.0
C939 C 0.17309 0.49391 0.23627 0.0
H940 H 0.17588 0.57172 0.25306 0.0
H941 H 0.17035 0.53742 0.21315 0.0
S942 S 0.17759 0.45179 0.30466 0.0
N943 N 0.17298 0.48869 0.31372 0.0
N944 N 0.17891 0.45157 0.27001 0.0
C945 C 0.17454 0.48228 0.26408 0.0
C946 C 0.17264 0.50289 0.28815 0.0
C947 C 0.52686 0.16444 0.74471 0.0
C948 C 0.53689 0.1934 0.73353 0.0
C949 C 0.50865 0.16261 0.76971 0.0
C950 C 0.49908 0.18968 0.78435 0.0
H951 H 0.53303 0.143 0.73397 0.0
H952 H 0.50237 0.13981 0.77785 0.0
S953 S 0.5185 0.2712 0.76382 0.0
N954 N 0.5367 0.24963 0.74012 0.0
N955 N 0.49993 0.24643 0.78462 0.0
C956 C 0.50821 0.21871 0.77283 0.0
C957 C 0.52789 0.22049 0.74832 0.0
C958 C 0.82712 0.52533 0.24548 0.0
C959 C 0.85498 0.5352 0.23206 0.0
C960 C 0.82747 0.50589 0.26948 0.0
C961 C 0.85569 0.49679 0.28267 0.0
H962 H 0.80462 0.53203 0.23684 0.0
H963 H 0.80522 0.49866 0.27838 0.0
S964 S 0.9354 0.51712 0.25704 0.0
N965 N 0.91184 0.53387 0.23393 0.0
N966 N 0.91247 0.49972 0.28034 0.0
C967 C 0.88378 0.50693 0.26986 0.0
C968 C 0.88343 0.52584 0.24463 0.0
C969 C 0.55056 0.85289 0.75797 0.0
C970 C 0.53873 0.85306 0.78569 0.0
C971 C 0.53057 0.85374 0.73423 0.0
C972 C 0.4975 0.8517 0.73655 0.0
H973 H 0.57547 0.85074 0.75424 0.0
H974 H 0.54138 0.85448 0.71363 0.0
S975 S 0.45389 0.84995 0.80419 0.0
N976 N 0.4909 0.85382 0.81369 0.0
N977 N 0.45417 0.8479 0.76956 0.0
C978 C 0.4853 0.85104 0.76411 0.0
C979 C 0.50556 0.8533 0.78832 0.0
C980 C 0.88059 0.52626 0.7701 0.0
C981 C 0.85255 0.5365 0.78303 0.0
C982 C 0.88034 0.50779 0.74522 0.0
C983 C 0.85204 0.49821 0.73239 0.0
H984 H 0.90292 0.53232 0.77946 0.0
H985 H 0.9025 0.50118 0.73581 0.0
S986 S 0.77215 0.51826 0.75787 0.0
N987 N 0.79572 0.53641 0.78001 0.0
N988 N 0.79523 0.49959 0.73562 0.0
C989 C 0.82395 0.50779 0.74554 0.0
C990 C 0.82422 0.52758 0.76997 0.0
C991 C 0.50667 0.82267 0.27125 0.0
C992 C 0.49809 0.85109 0.28418 0.0
C993 C 0.52579 0.82176 0.24703 0.0
C994 C 0.53582 0.84924 0.23326 0.0
H995 H 0.49939 0.80072 0.28057 0.0
H996 H 0.53235 0.79915 0.23867 0.0
S997 S 0.51907 0.92991 0.25759 0.0
N998 N 0.50158 0.90758 0.28128 0.0
N999 N 0.53527 0.90592 0.23454 0.0
C1000 C 0.52693 0.87787 0.24559 0.0
C1001 C 0.50832 0.87879 0.27098 0.0
C1002 C 0.17436 0.52767 0.78537 0.0
C1003 C 0.17728 0.49475 0.78316 0.0
C1004 C 0.1755 0.5478 0.76168 0.0
C1005 C 0.17601 0.53636 0.73382 0.0
H1006 H 0.17349 0.53835 0.80599 0.0
H1007 H 0.17802 0.57243 0.7658 0.0
S1008 S 0.18312 0.45228 0.71505 0.0
N1009 N 0.18477 0.45243 0.74968 0.0
N1010 N 0.17694 0.48889 0.70576 0.0
C1011 C 0.17632 0.50329 0.73122 0.0
C1012 C 0.17916 0.48297 0.75543 0.0
C1013 C 0.50906 0.16711 0.28385 0.0
C1014 C 0.54206 0.1695 0.28069 0.0
C1015 C 0.48814 0.16846 0.26075 0.0
C1016 C 0.49878 0.16857 0.23263 0.0
H1017 H 0.499 0.16683 0.30476 0.0
H1018 H 0.46366 0.17165 0.26554 0.0
S1019 S 0.58269 0.17287 0.21144 0.0
N1020 N 0.58372 0.17501 0.24603 0.0
N1021 N 0.54549 0.16769 0.20323 0.0
C1022 C 0.53186 0.16782 0.22908 0.0
C1023 C 0.55309 0.17045 0.25267 0.0
C1024 C 0.17526 0.39851 0.99473 0.0
C1025 C 0.1588 0.42135 0.97925 0.0
C1026 C 0.17511 0.3984 0.02448 0.0
C1027 C 0.1585 0.42112 0.03999 0.0
H1028 H 0.19008 0.38194 0.9838 0.0
H1029 H 0.18982 0.38174 0.03541 0.0
S1030 S 0.11043 0.4849 0.00965 0.0
N1031 N 0.12434 0.46629 0.98189 0.0
N1032 N 0.12403 0.46605 0.0374 0.0
C1033 C 0.14072 0.44299 0.02472 0.0
C1034 C 0.14088 0.44311 0.99453 0.0
C1035 C 0.60233 0.1418 0.49313 0.0
C1036 C 0.62028 0.16202 0.47614 0.0
C1037 C 0.60292 0.14398 0.52274 0.0
C1038 C 0.62145 0.1665 0.5366 0.0
H1039 H 0.5861 0.12562 0.48341 0.0
H1040 H 0.58702 0.12947 0.53482 0.0
S1041 S 0.67345 0.22428 0.50195 0.0
N1042 N 0.65799 0.2045 0.47556 0.0
N1043 N 0.65901 0.20858 0.53095 0.0
C1044 C 0.64075 0.18567 0.51992 0.0
C1045 C 0.64018 0.18344 0.48979 0.0
C1046 C 0.86167 0.63975 0.023 0.0
C1047 C 0.88102 0.61891 0.03811 0.0
C1048 C 0.86163 0.64051 0.99319 0.0
C1049 C 0.88086 0.62037 0.97718 0.0
H1050 H 0.84459 0.65374 0.03421 0.0
H1051 H 0.84447 0.65498 0.98262 0.0
S1052 S 0.93722 0.56298 1.00639 0.0
N1053 N 0.92136 0.57923 0.0345 0.0
N1054 N 0.92101 0.58037 0.97901 0.0
C1055 C 0.90171 0.601 0.9921 0.0
C1056 C 0.90188 0.60036 0.02233 0.0
C1057 C 0.3939 0.84607 0.5224 0.0
C1058 C 0.41031 0.86714 0.53978 0.0
C1059 C 0.39494 0.84857 0.49276 0.0
C1060 C 0.41251 0.8722 0.4793 0.0
H1061 H 0.38202 0.82623 0.53173 0.0
H1062 H 0.38402 0.83042 0.48028 0.0
S1063 S 0.45809 0.93423 0.5151 0.0
N1064 N 0.44307 0.91347 0.54112 0.0
N1065 N 0.44523 0.91793 0.48582 0.0
C1066 C 0.42737 0.89444 0.49649 0.0
C1067 C 0.42624 0.89196 0.52657 0.0
C1068 C 0.17475 0.63572 0.49446 0.0
C1069 C 0.15869 0.61261 0.47895 0.0
C1070 C 0.17425 0.63605 0.52423 0.0
C1071 C 0.15768 0.61327 0.53976 0.0
H1072 H 0.18958 0.65236 0.48357 0.0
H1073 H 0.18876 0.65287 0.53517 0.0
S1074 S 0.11054 0.5488 0.50937 0.0
N1075 N 0.12453 0.5674 0.48161 0.0
N1076 N 0.1237 0.56794 0.53711 0.0
C1077 C 0.14026 0.59114 0.52444 0.0
C1078 C 0.14074 0.59082 0.49424 0.0
C1079 C 0.43555 0.13323 0.99479 0.0
C1080 C 0.4171 0.15446 0.97924 0.0
C1081 C 0.4353 0.13293 0.02454 0.0
C1082 C 0.41642 0.15369 0.04014 0.0
H1083 H 0.45219 0.11843 0.9839 0.0
H1084 H 0.45166 0.11784 0.03542 0.0
S1085 S 0.36307 0.21323 0.00986 0.0
N1086 N 0.3787 0.19613 0.98205 0.0
N1087 N 0.37794 0.19529 0.03756 0.0
C1088 C 0.39653 0.17374 0.02486 0.0
C1089 C 0.39691 0.17417 0.99459 0.0
C1090 C 0.90141 0.43043 0.49362 0.0
C1091 C 0.8797 0.41312 0.47754 0.0
C1092 C 0.90078 0.43014 0.52337 0.0
C1093 C 0.87856 0.41235 0.53849 0.0
H1094 H 0.91736 0.44632 0.48311 0.0
H1095 H 0.91623 0.44586 0.5346 0.0
S1096 S 0.81736 0.36197 0.50668 0.0
N1097 N 0.83611 0.37674 0.47931 0.0
N1098 N 0.83516 0.37595 0.53483 0.0
C1099 C 0.85807 0.39342 0.52268 0.0
C1100 C 0.85858 0.39386 0.4924 0.0
C1101 C 0.60599 0.89501 0.02452 0.0
C1102 C 0.6237 0.87422 0.04114 0.0
C1103 C 0.60651 0.89347 0.99487 0.0
C1104 C 0.62491 0.87122 0.98059 0.0
H1105 H 0.58958 0.9108 0.03455 0.0
H1106 H 0.59069 0.9083 0.98309 0.0
S1107 S 0.67671 0.81252 0.01401 0.0
N1108 N 0.66123 0.83164 0.04081 0.0
N1109 N 0.66247 0.82906 0.98535 0.0
C1110 C 0.64426 0.85172 0.99687 0.0
C1111 C 0.64364 0.85318 0.02703 0.0
C1112 C 0.30363 0.32461 0.16886 0.0
C1113 C 0.30117 0.34703 0.14707 0.0
C1114 C 0.32693 0.30076 0.16868 0.0
C1115 C 0.34913 0.29788 0.14667 0.0
H1116 H 0.28679 0.32486 0.18591 0.0
H1117 H 0.32694 0.28386 0.18562 0.0
S1118 S 0.35635 0.3531 0.08662 0.0
N1119 N 0.32577 0.36626 0.10431 0.0
N1120 N 0.36867 0.32198 0.10389 0.0
C1121 C 0.34769 0.32089 0.12538 0.0
C1122 C 0.32411 0.34515 0.1256 0.0
C1123 C 0.72439 0.33574 0.66581 0.0
C1124 C 0.72804 0.3571 0.64328 0.0
C1125 C 0.70065 0.31223 0.66588 0.0
C1126 C 0.67911 0.30872 0.64344 0.0
H1127 H 0.7407 0.33649 0.68322 0.0
H1128 H 0.69984 0.296 0.68333 0.0
S1129 S 0.67504 0.36155 0.58138 0.0
N1130 N 0.70539 0.3748 0.59928 0.0
N1131 N 0.66139 0.33156 0.59947 0.0
C1132 C 0.68166 0.33091 0.62148 0.0
C1133 C 0.70578 0.35468 0.62138 0.0
C1134 C 0.72593 0.69765 0.16507 0.0
C1135 C 0.72966 0.67683 0.14215 0.0
C1136 C 0.70234 0.72127 0.16546 0.0
C1137 C 0.68107 0.72554 0.14294 0.0
H1138 H 0.74201 0.69634 0.18262 0.0
H1139 H 0.70143 0.73697 0.18328 0.0
S1140 S 0.67723 0.67458 0.07971 0.0
N1141 N 0.70721 0.66052 0.0976 0.0
N1142 N 0.66374 0.70423 0.09829 0.0
C1143 C 0.68375 0.70404 0.12048 0.0
C1144 C 0.70764 0.68005 0.1201 0.0
C1145 C 0.32034 0.69521 0.62586 0.0
C1146 C 0.29907 0.69018 0.64832 0.0
C1147 C 0.34344 0.71916 0.62646 0.0
C1148 C 0.34663 0.73991 0.64943 0.0
H1149 H 0.3193 0.68035 0.60748 0.0
H1150 H 0.3586 0.72176 0.60834 0.0
S1151 S 0.2975 0.73713 0.71411 0.0
N1152 N 0.28324 0.70871 0.69447 0.0
N1153 N 0.32654 0.75267 0.69586 0.0
C1154 C 0.32574 0.73498 0.67217 0.0
C1155 C 0.30223 0.71052 0.67159 0.0
C1156 C 0.33401 0.72759 0.35186 0.0
C1157 C 0.35606 0.72958 0.37403 0.0
C1158 C 0.30973 0.70469 0.35149 0.0
C1159 C 0.30605 0.68239 0.37327 0.0
H1160 H 0.33489 0.74451 0.33495 0.0
H1161 H 0.2931 0.70509 0.33432 0.0
S1162 S 0.36018 0.67407 0.4341 0.0
N1163 N 0.37406 0.70462 0.41692 0.0
N1164 N 0.32925 0.66221 0.41621 0.0
C1165 C 0.32878 0.68335 0.3949 0.0
C1166 C 0.35339 0.70661 0.39528 0.0
C1167 C 0.33563 0.30679 0.85345 0.0
C1168 C 0.35654 0.30389 0.87642 0.0
C1169 C 0.31129 0.3296 0.85287 0.0
C1170 C 0.30642 0.35095 0.87519 0.0
H1171 H 0.33747 0.29065 0.83601 0.0
H1172 H 0.29558 0.32987 0.83501 0.0
S1173 S 0.3574 0.35672 0.93845 0.0
N1174 N 0.37219 0.32694 0.92085 0.0
N1175 N 0.32741 0.36932 0.91969 0.0
C1176 C 0.32805 0.3491 0.8977 0.0
C1177 C 0.35267 0.32587 0.89832 0.0
C1178 C 0.68644 0.32721 0.35502 0.0
C1179 C 0.69066 0.29854 0.36943 0.0
C1180 C 0.70925 0.35162 0.35587 0.0
C1181 C 0.73763 0.34879 0.37115 0.0
H1182 H 0.66492 0.33119 0.34351 0.0
H1183 H 0.70419 0.37322 0.34493 0.0
S1184 S 0.76272 0.27681 0.40889 0.0
N1185 N 0.72744 0.26802 0.39704 0.0
N1186 N 0.76962 0.31295 0.39846 0.0
C1187 C 0.7426 0.31971 0.38461 0.0
C1188 C 0.71947 0.29502 0.3838 0.0
C1189 C 0.73101 0.70313 0.84909 0.0
C1190 C 0.73282 0.6811 0.87126 0.0
C1191 C 0.70841 0.72769 0.84892 0.0
C1192 C 0.68628 0.73159 0.87087 0.0
H1193 H 0.74791 0.70207 0.83212 0.0
H1194 H 0.709 0.74437 0.83182 0.0
S1195 S 0.67748 0.67744 0.93163 0.0
N1196 N 0.70785 0.66331 0.91426 0.0
N1197 N 0.66586 0.70845 0.91383 0.0
C1198 C 0.68695 0.70874 0.89239 0.0
C1199 C 0.70993 0.68394 0.89261 0.0
loop_
_geom_bond_atom_site_label_1
_geom_bond_atom_site_label_2
_geom_bond_distance
_geom_bond_site_symmetry_2
_ccdc_geom_bond_type
C0 C1 1.443 . S
C0 N4 1.376 . S
C0 C38 1.389 . S
C1 C0 1.443 . S
C1 C2 1.340 . S
C1 H41 0.951 . S
C2 C1 1.340 . S
C2 C3 1.439 . S
C2 H42 0.950 . S
C3 C2 1.439 . S
C3 N4 1.374 . S
C3 C37 1.395 . S
N4 C0 1.376 . S
N4 C3 1.374 . S
N4 Co5 2.008 . S
Co5 N4 2.008 . S
Co5 N6 1.995 . S
Co5 N11 2.008 . S
Co5 N16 1.995 . S
Co5 N21 2.282 . S
Co5 N27 2.282 . S
N6 Co5 1.995 . S
N6 C7 1.376 . S
N6 C10 1.383 . S
C7 N6 1.376 . S
C7 C8 1.446 . S
C7 C37 1.391 . S
C8 C7 1.446 . S
C8 C9 1.339 . S
C8 H43 0.949 . S
C9 C8 1.339 . S
C9 C10 1.439 . S
C9 H44 0.950 . S
C10 N6 1.383 . S
C10 C9 1.439 . S
C10 C39 1.392 . S
N11 Co5 2.008 . S
N11 C12 1.376 . S
N11 C15 1.374 . S
C12 N11 1.376 . S
C12 C13 1.443 . S
C12 C39 1.389 . S
C13 C12 1.443 . S
C13 C14 1.340 . S
C13 H45 0.951 . S
C14 C13 1.340 . S
C14 C15 1.439 . S
C14 H46 0.950 . S
C15 N11 1.374 . S
C15 C14 1.439 . S
C15 C40 1.395 . S
N16 Co5 1.995 . S
N16 C17 1.376 . S
N16 C20 1.383 . S
C17 N16 1.376 . S
C17 C18 1.446 . S
C17 C40 1.391 . S
C18 C17 1.446 . S
C18 C19 1.339 . S
C18 H47 0.949 . S
C19 C18 1.339 . S
C19 C20 1.439 . S
C19 H48 0.950 . S
C20 N16 1.383 . S
C20 C19 1.439 . S
C20 C38 1.392 . S
N21 Co5 2.282 . S
N21 C24 1.332 . S
N21 C26 1.332 . S
C22 C23 1.386 . S
C22 C25 1.388 . S
C23 C22 1.386 . S
C23 C24 1.382 . S
C23 H49 0.950 . S
C24 N21 1.332 . S
C24 C23 1.382 . S
C24 H35 0.952 . S
C25 C22 1.388 . S
C25 C26 1.382 . S
C25 H50 0.950 . S
C26 N21 1.332 . S
C26 C25 1.382 . S
C26 H36 0.948 . S
N27 Co5 2.282 . S
N27 C31 1.332 . S
N27 C32 1.332 . S
C28 C29 1.388 . S
C28 C32 1.382 . S
C28 H51 0.950 . S
C29 C28 1.388 . S
C29 C30 1.386 . S
C30 C29 1.386 . S
C30 C31 1.382 . S
C30 H52 0.950 . S
C31 N27 1.332 . S
C31 C30 1.382 . S
C31 H33 0.952 . S
C32 N27 1.332 . S
C32 C28 1.382 . S
C32 H34 0.948 . S
H33 C31 0.952 . S
H34 C32 0.948 . S
H35 C24 0.952 . S
H36 C26 0.948 . S
C37 C3 1.395 . S
C37 C7 1.391 . S
C38 C0 1.389 . S
C38 C20 1.392 . S
C39 C10 1.392 . S
C39 C12 1.389 . S
C40 C15 1.395 . S
C40 C17 1.391 . S
H41 C1 0.951 . S
H42 C2 0.950 . S
H43 C8 0.949 . S
H44 C9 0.950 . S
H45 C13 0.951 . S
H46 C14 0.950 . S
H47 C18 0.949 . S
H48 C19 0.950 . S
H49 C23 0.950 . S
H50 C25 0.950 . S
H51 C28 0.950 . S
H52 C30 0.950 . S
C53 C54 1.443 . S
C53 N57 1.376 . S
C53 C91 1.389 . S
C54 C53 1.443 . S
C54 C55 1.340 . S
C54 H94 0.951 . S
C55 C54 1.340 . S
C55 C56 1.439 . S
C55 H95 0.950 . S
C56 C55 1.439 . S
C56 N57 1.374 . S
C56 C90 1.395 . S
N57 C53 1.376 . S
N57 C56 1.374 . S
N57 Co58 2.008 . S
Co58 N57 2.008 . S
Co58 N59 1.995 . S
Co58 N64 2.008 . S
Co58 N69 1.995 . S
Co58 N74 2.282 . S
Co58 N80 2.282 . S
N59 Co58 1.995 . S
N59 C60 1.376 . S
N59 C63 1.383 . S
C60 N59 1.376 . S
C60 C61 1.446 . S
C60 C90 1.391 . S
C61 C60 1.446 . S
C61 C62 1.339 . S
C61 H96 0.949 . S
C62 C61 1.339 . S
C62 C63 1.439 . S
C62 H97 0.950 . S
C63 N59 1.383 . S
C63 C62 1.439 . S
C63 C92 1.392 . S
N64 Co58 2.008 . S
N64 C65 1.376 . S
N64 C68 1.374 . S
C65 N64 1.376 . S
C65 C66 1.443 . S
C65 C92 1.389 . S
C66 C65 1.443 . S
C66 C67 1.340 . S
C66 H98 0.951 . S
C67 C66 1.340 . S
C67 C68 1.439 . S
C67 H99 0.950 . S
C68 N64 1.374 . S
C68 C67 1.439 . S
C68 C93 1.395 . S
N69 Co58 1.995 . S
N69 C70 1.376 . S
N69 C73 1.383 . S
C70 N69 1.376 . S
C70 C71 1.446 . S
C70 C93 1.391 . S
C71 C70 1.446 . S
C71 C72 1.339 . S
C71 H100 0.949 . S
C72 C71 1.339 . S
C72 C73 1.439 . S
C72 H101 0.950 . S
C73 N69 1.383 . S
C73 C72 1.439 . S
C73 C91 1.392 . S
N74 Co58 2.282 . S
N74 C77 1.332 . S
N74 C79 1.332 . S
C75 C76 1.386 . S
C75 C78 1.388 . S
C76 C75 1.386 . S
C76 C77 1.382 . S
C76 H102 0.950 . S
C77 N74 1.332 . S
C77 C76 1.382 . S
C77 H88 0.952 . S
C78 C75 1.388 . S
C78 C79 1.382 . S
C78 H103 0.950 . S
C79 N74 1.332 . S
C79 C78 1.382 . S
C79 H89 0.948 . S
N80 Co58 2.282 . S
N80 C84 1.332 . S
N80 C85 1.332 . S
C81 C82 1.388 . S
C81 C85 1.382 . S
C81 H104 0.950 . S
C82 C81 1.388 . S
C82 C83 1.386 . S
C83 C82 1.386 . S
C83 C84 1.382 . S
C83 H105 0.950 . S
C84 N80 1.332 . S
C84 C83 1.382 . S
C84 H86 0.952 . S
C85 N80 1.332 . S
C85 C81 1.382 . S
C85 H87 0.948 . S
H86 C84 0.952 . S
H87 C85 0.948 . S
H88 C77 0.952 . S
H89 C79 0.948 . S
C90 C56 1.395 . S
C90 C60 1.391 . S
C91 C53 1.389 . S
C91 C73 1.392 . S
C92 C63 1.392 . S
C92 C65 1.389 . S
C93 C68 1.395 . S
C93 C70 1.391 . S
H94 C54 0.951 . S
H95 C55 0.950 . S
H96 C61 0.949 . S
H97 C62 0.950 . S
H98 C66 0.951 . S
H99 C67 0.950 . S
H100 C71 0.949 . S
H101 C72 0.950 . S
H102 C76 0.950 . S
H103 C78 0.950 . S
H104 C81 0.950 . S
H105 C83 0.950 . S
C106 C107 1.443 . S
C106 N110 1.376 . S
C106 C144 1.389 . S
C107 C106 1.443 . S
C107 C108 1.340 . S
C107 H147 0.951 . S
C108 C107 1.340 . S
C108 C109 1.439 . S
C108 H148 0.950 . S
C109 C108 1.439 . S
C109 N110 1.374 . S
C109 C143 1.395 . S
N110 C106 1.376 . S
N110 C109 1.374 . S
N110 Co111 2.008 . S
Co111 N110 2.008 . S
Co111 N112 1.995 . S
Co111 N117 2.008 . S
Co111 N122 1.995 . S
Co111 N127 2.282 . S
Co111 N133 2.282 . S
N112 Co111 1.995 . S
N112 C113 1.376 . S
N112 C116 1.383 . S
C113 N112 1.376 . S
C113 C114 1.446 . S
C113 C143 1.391 . S
C114 C113 1.446 . S
C114 C115 1.339 . S
C114 H149 0.949 . S
C115 C114 1.339 . S
C115 C116 1.439 . S
C115 H150 0.950 . S
C116 N112 1.383 . S
C116 C115 1.439 . S
C116 C145 1.392 . S
N117 Co111 2.008 . S
N117 C118 1.376 . S
N117 C121 1.374 . S
C118 N117 1.376 . S
C118 C119 1.443 . S
C118 C145 1.389 . S
C119 C118 1.443 . S
C119 C120 1.340 . S
C119 H151 0.951 . S
C120 C119 1.340 . S
C120 C121 1.439 . S
C120 H152 0.950 . S
C121 N117 1.374 . S
C121 C120 1.439 . S
C121 C146 1.395 . S
N122 Co111 1.995 . S
N122 C123 1.376 . S
N122 C126 1.383 . S
C123 N122 1.376 . S
C123 C124 1.446 . S
C123 C146 1.391 . S
C124 C123 1.446 . S
C124 C125 1.339 . S
C124 H153 0.949 . S
C125 C124 1.339 . S
C125 C126 1.439 . S
C125 H154 0.950 . S
C126 N122 1.383 . S
C126 C125 1.439 . S
C126 C144 1.392 . S
N127 Co111 2.282 . S
N127 C130 1.332 . S
N127 C132 1.332 . S
C128 C129 1.386 . S
C128 C131 1.388 . S
C129 C128 1.386 . S
C129 C130 1.382 . S
C129 H155 0.950 . S
C130 N127 1.332 . S
C130 C129 1.382 . S
C130 H141 0.952 . S
C131 C128 1.388 . S
C131 C132 1.382 . S
C131 H156 0.950 . S
C132 N127 1.332 . S
C132 C131 1.382 . S
C132 H142 0.948 . S
N133 Co111 2.282 . S
N133 C137 1.332 . S
N133 C138 1.332 . S
C134 C135 1.388 . S
C134 C138 1.382 . S
C134 H157 0.950 . S
C135 C134 1.388 . S
C135 C136 1.386 . S
C136 C135 1.386 . S
C136 C137 1.382 . S
C136 H158 0.950 . S
C137 N133 1.332 . S
C137 C136 1.382 . S
C137 H139 0.952 . S
C138 N133 1.332 . S
C138 C134 1.382 . S
C138 H140 0.948 . S
H139 C137 0.952 . S
H140 C138 0.948 . S
H141 C130 0.952 . S
H142 C132 0.948 . S
C143 C109 1.395 . S
C143 C113 1.391 . S
C144 C106 1.389 . S
C144 C126 1.392 . S
C145 C116 1.392 . S
C145 C118 1.389 . S
C146 C121 1.395 . S
C146 C123 1.391 . S
H147 C107 0.951 . S
H148 C108 0.950 . S
H149 C114 0.949 . S
H150 C115 0.950 . S
H151 C119 0.951 . S
H152 C120 0.950 . S
H153 C124 0.949 . S
H154 C125 0.950 . S
H155 C129 0.950 . S
H156 C131 0.950 . S
H157 C134 0.950 . S
H158 C136 0.950 . S
C159 C160 1.443 . S
C159 N163 1.376 . S
C159 C197 1.389 . S
C160 C159 1.443 . S
C160 C161 1.340 . S
C160 H200 0.951 . S
C161 C160 1.340 . S
C161 C162 1.439 . S
C161 H201 0.950 . S
C162 C161 1.439 . S
C162 N163 1.374 . S
C162 C196 1.395 . S
N163 C159 1.376 . S
N163 C162 1.374 . S
N163 Co164 2.008 . S
Co164 N163 2.008 . S
Co164 N165 1.995 . S
Co164 N170 2.008 . S
Co164 N175 1.995 . S
Co164 N180 2.282 . S
Co164 N186 2.282 . S
N165 Co164 1.995 . S
N165 C166 1.376 . S
N165 C169 1.383 . S
C166 N165 1.376 . S
C166 C167 1.446 . S
C166 C196 1.391 . S
C167 C166 1.446 . S
C167 C168 1.339 . S
C167 H202 0.949 . S
C168 C167 1.339 . S
C168 C169 1.439 . S
C168 H203 0.950 . S
C169 N165 1.383 . S
C169 C168 1.439 . S
C169 C198 1.392 . S
N170 Co164 2.008 . S
N170 C171 1.376 . S
N170 C174 1.374 . S
C171 N170 1.376 . S
C171 C172 1.443 . S
C171 C198 1.389 . S
C172 C171 1.443 . S
C172 C173 1.340 . S
C172 H204 0.951 . S
C173 C172 1.340 . S
C173 C174 1.439 . S
C173 H205 0.950 . S
C174 N170 1.374 . S
C174 C173 1.439 . S
C174 C199 1.395 . S
N175 Co164 1.995 . S
N175 C176 1.376 . S
N175 C179 1.383 . S
C176 N175 1.376 . S
C176 C177 1.446 . S
C176 C199 1.391 . S
C177 C176 1.446 . S
C177 C178 1.339 . S
C177 H206 0.949 . S
C178 C177 1.339 . S
C178 C179 1.439 . S
C178 H207 0.950 . S
C179 N175 1.383 . S
C179 C178 1.439 . S
C179 C197 1.392 . S
N180 Co164 2.282 . S
N180 C183 1.332 . S
N180 C185 1.332 . S
C181 C182 1.386 . S
C181 C184 1.388 . S
C182 C181 1.386 . S
C182 C183 1.382 . S
C182 H208 0.950 . S
C183 N180 1.332 . S
C183 C182 1.382 . S
C183 H194 0.952 . S
C184 C181 1.388 . S
C184 C185 1.382 . S
C184 H209 0.950 . S
C185 N180 1.332 . S
C185 C184 1.382 . S
C185 H195 0.948 . S
N186 Co164 2.282 . S
N186 C190 1.332 . S
N186 C191 1.332 . S
C187 C188 1.388 . S
C187 C191 1.382 . S
C187 H210 0.950 . S
C188 C187 1.388 . S
C188 C189 1.386 . S
C189 C188 1.386 . S
C189 C190 1.382 . S
C189 H211 0.950 . S
C190 N186 1.332 . S
C190 C189 1.382 . S
C190 H192 0.952 . S
C191 N186 1.332 . S
C191 C187 1.382 . S
C191 H193 0.948 . S
H192 C190 0.952 . S
H193 C191 0.948 . S
H194 C183 0.952 . S
H195 C185 0.948 . S
C196 C162 1.395 . S
C196 C166 1.391 . S
C197 C159 1.389 . S
C197 C179 1.392 . S
C198 C169 1.392 . S
C198 C171 1.389 . S
C199 C174 1.395 . S
C199 C176 1.391 . S
H200 C160 0.951 . S
H201 C161 0.950 . S
H202 C167 0.949 . S
H203 C168 0.950 . S
H204 C172 0.951 . S
H205 C173 0.950 . S
H206 C177 0.949 . S
H207 C178 0.950 . S
H208 C182 0.950 . S
H209 C184 0.950 . S
H210 C187 0.950 . S
H211 C189 0.950 . S
C212 C213 1.443 . S
C212 N216 1.376 . S
C212 C250 1.389 . S
C213 C212 1.443 . S
C213 C214 1.340 . S
C213 H253 0.951 . S
C214 C213 1.340 . S
C214 C215 1.439 . S
C214 H254 0.950 . S
C215 C214 1.439 . S
C215 N216 1.374 . S
C215 C249 1.395 . S
N216 C212 1.376 . S
N216 C215 1.374 . S
N216 Co217 2.008 . S
Co217 N216 2.008 . S
Co217 N218 1.995 . S
Co217 N223 2.008 . S
Co217 N228 1.995 . S
Co217 N233 2.282 . S
Co217 N239 2.282 . S
N218 Co217 1.995 . S
N218 C219 1.376 . S
N218 C222 1.383 . S
C219 N218 1.376 . S
C219 C220 1.446 . S
C219 C249 1.391 . S
C220 C219 1.446 . S
C220 C221 1.339 . S
C220 H255 0.949 . S
C221 C220 1.339 . S
C221 C222 1.439 . S
C221 H256 0.950 . S
C222 N218 1.383 . S
C222 C221 1.439 . S
C222 C251 1.392 . S
N223 Co217 2.008 . S
N223 C224 1.376 . S
N223 C227 1.374 . S
C224 N223 1.376 . S
C224 C225 1.443 . S
C224 C251 1.389 . S
C225 C224 1.443 . S
C225 C226 1.340 . S
C225 H257 0.951 . S
C226 C225 1.340 . S
C226 C227 1.439 . S
C226 H258 0.950 . S
C227 N223 1.374 . S
C227 C226 1.439 . S
C227 C252 1.395 . S
N228 Co217 1.995 . S
N228 C229 1.376 . S
N228 C232 1.383 . S
C229 N228 1.376 . S
C229 C230 1.446 . S
C229 C252 1.391 . S
C230 C229 1.446 . S
C230 C231 1.339 . S
C230 H259 0.949 . S
C231 C230 1.339 . S
C231 C232 1.439 . S
C231 H260 0.950 . S
C232 N228 1.383 . S
C232 C231 1.439 . S
C232 C250 1.392 . S
N233 Co217 2.282 . S
N233 C236 1.332 . S
N233 C238 1.332 . S
C234 C235 1.386 . S
C234 C237 1.388 . S
C235 C234 1.386 . S
C235 C236 1.382 . S
C235 H261 0.950 . S
C236 N233 1.332 . S
C236 C235 1.382 . S
C236 H247 0.952 . S
C237 C234 1.388 . S
C237 C238 1.382 . S
C237 H262 0.950 . S
C238 N233 1.332 . S
C238 C237 1.382 . S
C238 H248 0.948 . S
N239 Co217 2.282 . S
N239 C243 1.332 . S
N239 C244 1.332 . S
C240 C241 1.388 . S
C240 C244 1.382 . S
C240 H263 0.950 . S
C241 C240 1.388 . S
C241 C242 1.386 . S
C242 C241 1.386 . S
C242 C243 1.382 . S
C242 H264 0.950 . S
C243 N239 1.332 . S
C243 C242 1.382 . S
C243 H245 0.952 . S
C244 N239 1.332 . S
C244 C240 1.382 . S
C244 H246 0.948 . S
H245 C243 0.952 . S
H246 C244 0.948 . S
H247 C236 0.952 . S
H248 C238 0.948 . S
C249 C215 1.395 . S
C249 C219 1.391 . S
C250 C212 1.389 . S
C250 C232 1.392 . S
C251 C222 1.392 . S
C251 C224 1.389 . S
C252 C227 1.395 . S
C252 C229 1.391 . S
H253 C213 0.951 . S
H254 C214 0.950 . S
H255 C220 0.949 . S
H256 C221 0.950 . S
H257 C225 0.951 . S
H258 C226 0.950 . S
H259 C230 0.949 . S
H260 C231 0.950 . S
H261 C235 0.950 . S
H262 C237 0.950 . S
H263 C240 0.950 . S
H264 C242 0.950 . S
C265 C266 1.443 . S
C265 N269 1.376 . S
C265 C303 1.389 . S
C266 C265 1.443 . S
C266 C267 1.340 . S
C266 H306 0.951 . S
C267 C266 1.340 . S
C267 C268 1.439 . S
C267 H307 0.950 . S
C268 C267 1.439 . S
C268 N269 1.374 . S
C268 C302 1.395 . S
N269 C265 1.376 . S
N269 C268 1.374 . S
N269 Co270 2.008 . S
Co270 N269 2.008 . S
Co270 N271 1.995 . S
Co270 N276 2.008 . S
Co270 N281 1.995 . S
Co270 N286 2.282 . S
Co270 N292 2.282 . S
N271 Co270 1.995 . S
N271 C272 1.376 . S
N271 C275 1.383 . S
C272 N271 1.376 . S
C272 C273 1.446 . S
C272 C302 1.391 . S
C273 C272 1.446 . S
C273 C274 1.339 . S
C273 H308 0.949 . S
C274 C273 1.339 . S
C274 C275 1.439 . S
C274 H309 0.950 . S
C275 N271 1.383 . S
C275 C274 1.439 . S
C275 C304 1.392 . S
N276 Co270 2.008 . S
N276 C277 1.376 . S
N276 C280 1.374 . S
C277 N276 1.376 . S
C277 C278 1.443 . S
C277 C304 1.389 . S
C278 C277 1.443 . S
C278 C279 1.340 . S
C278 H310 0.951 . S
C279 C278 1.340 . S
C279 C280 1.439 . S
C279 H311 0.950 . S
C280 N276 1.374 . S
C280 C279 1.439 . S
C280 C305 1.395 . S
N281 Co270 1.995 . S
N281 C282 1.376 . S
N281 C285 1.383 . S
C282 N281 1.376 . S
C282 C283 1.446 . S
C282 C305 1.391 . S
C283 C282 1.446 . S
C283 C284 1.339 . S
C283 H312 0.949 . S
C284 C283 1.339 . S
C284 C285 1.439 . S
C284 H313 0.950 . S
C285 N281 1.383 . S
C285 C284 1.439 . S
C285 C303 1.392 . S
N286 Co270 2.282 . S
N286 C289 1.332 . S
N286 C291 1.332 . S
C287 C288 1.386 . S
C287 C290 1.388 . S
C288 C287 1.386 . S
C288 C289 1.382 . S
C288 H314 0.950 . S
C289 N286 1.332 . S
C289 C288 1.382 . S
C289 H300 0.952 . S
C290 C287 1.388 . S
C290 C291 1.382 . S
C290 H315 0.950 . S
C291 N286 1.332 . S
C291 C290 1.382 . S
C291 H301 0.948 . S
N292 Co270 2.282 . S
N292 C296 1.332 . S
N292 C297 1.332 . S
C293 C294 1.388 . S
C293 C297 1.382 . S
C293 H316 0.950 . S
C294 C293 1.388 . S
C294 C295 1.386 . S
C295 C294 1.386 . S
C295 C296 1.382 . S
C295 H317 0.950 . S
C296 N292 1.332 . S
C296 C295 1.382 . S
C296 H298 0.952 . S
C297 N292 1.332 . S
C297 C293 1.382 . S
C297 H299 0.948 . S
H298 C296 0.952 . S
H299 C297 0.948 . S
H300 C289 0.952 . S
H301 C291 0.948 . S
C302 C268 1.395 . S
C302 C272 1.391 . S
C303 C265 1.389 . S
C303 C285 1.392 . S
C304 C275 1.392 . S
C304 C277 1.389 . S
C305 C280 1.395 . S
C305 C282 1.391 . S
H306 C266 0.951 . S
H307 C267 0.950 . S
H308 C273 0.949 . S
H309 C274 0.950 . S
H310 C278 0.951 . S
H311 C279 0.950 . S
H312 C283 0.949 . S
H313 C284 0.950 . S
H314 C288 0.950 . S
H315 C290 0.950 . S
H316 C293 0.950 . S
H317 C295 0.950 . S
C318 C319 1.443 . S
C318 N322 1.376 . S
C318 C356 1.389 . S
C319 C318 1.443 . S
C319 C320 1.340 . S
C319 H359 0.951 . S
C320 C319 1.340 . S
C320 C321 1.439 . S
C320 H360 0.950 . S
C321 C320 1.439 . S
C321 N322 1.374 . S
C321 C355 1.395 . S
N322 C318 1.376 . S
N322 C321 1.374 . S
N322 Co323 2.008 . S
Co323 N322 2.008 . S
Co323 N324 1.995 . S
Co323 N329 2.008 . S
Co323 N334 1.995 . S
Co323 N339 2.282 . S
Co323 N345 2.282 . S
N324 Co323 1.995 . S
N324 C325 1.376 . S
N324 C328 1.383 . S
C325 N324 1.376 . S
C325 C326 1.446 . S
C325 C355 1.391 . S
C326 C325 1.446 . S
C326 C327 1.339 . S
C326 H361 0.949 . S
C327 C326 1.339 . S
C327 C328 1.439 . S
C327 H362 0.950 . S
C328 N324 1.383 . S
C328 C327 1.439 . S
C328 C357 1.392 . S
N329 Co323 2.008 . S
N329 C330 1.376 . S
N329 C333 1.374 . S
C330 N329 1.376 . S
C330 C331 1.443 . S
C330 C357 1.389 . S
C331 C330 1.443 . S
C331 C332 1.340 . S
C331 H363 0.951 . S
C332 C331 1.340 . S
C332 C333 1.439 . S
C332 H364 0.950 . S
C333 N329 1.374 . S
C333 C332 1.439 . S
C333 C358 1.395 . S
N334 Co323 1.995 . S
N334 C335 1.376 . S
N334 C338 1.383 . S
C335 N334 1.376 . S
C335 C336 1.446 . S
C335 C358 1.391 . S
C336 C335 1.446 . S
C336 C337 1.339 . S
C336 H365 0.949 . S
C337 C336 1.339 . S
C337 C338 1.439 . S
C337 H366 0.950 . S
C338 N334 1.383 . S
C338 C337 1.439 . S
C338 C356 1.392 . S
N339 Co323 2.282 . S
N339 C342 1.332 . S
N339 C344 1.332 . S
C340 C341 1.386 . S
C340 C343 1.388 . S
C341 C340 1.386 . S
C341 C342 1.382 . S
C341 H367 0.950 . S
C342 N339 1.332 . S
C342 C341 1.382 . S
C342 H353 0.952 . S
C343 C340 1.388 . S
C343 C344 1.382 . S
C343 H368 0.950 . S
C344 N339 1.332 . S
C344 C343 1.382 . S
C344 H354 0.948 . S
N345 Co323 2.282 . S
N345 C349 1.332 . S
N345 C350 1.332 . S
C346 C347 1.388 . S
C346 C350 1.382 . S
C346 H369 0.950 . S
C347 C346 1.388 . S
C347 C348 1.386 . S
C348 C347 1.386 . S
C348 C349 1.382 . S
C348 H370 0.950 . S
C349 N345 1.332 . S
C349 C348 1.382 . S
C349 H351 0.952 . S
C350 N345 1.332 . S
C350 C346 1.382 . S
C350 H352 0.948 . S
H351 C349 0.952 . S
H352 C350 0.948 . S
H353 C342 0.952 . S
H354 C344 0.948 . S
C355 C321 1.395 . S
C355 C325 1.391 . S
C356 C318 1.389 . S
C356 C338 1.392 . S
C357 C328 1.392 . S
C357 C330 1.389 . S
C358 C333 1.395 . S
C358 C335 1.391 . S
H359 C319 0.951 . S
H360 C320 0.950 . S
H361 C326 0.949 . S
H362 C327 0.950 . S
H363 C331 0.951 . S
H364 C332 0.950 . S
H365 C336 0.949 . S
H366 C337 0.950 . S
H367 C341 0.950 . S
H368 C343 0.950 . S
H369 C346 0.950 . S
H370 C348 0.950 . S
C371 C372 1.443 . S
C371 N375 1.376 . S
C371 C409 1.389 . S
C372 C371 1.443 . S
C372 C373 1.340 . S
C372 H412 0.951 . S
C373 C372 1.340 . S
C373 C374 1.439 . S
C373 H413 0.950 . S
C374 C373 1.439 . S
C374 N375 1.374 . S
C374 C408 1.395 . S
N375 C371 1.376 . S
N375 C374 1.374 . S
N375 Co376 2.008 . S
Co376 N375 2.008 . S
Co376 N377 1.995 . S
Co376 N382 2.008 . S
Co376 N387 1.995 . S
Co376 N392 2.282 . S
Co376 N398 2.282 . S
N377 Co376 1.995 . S
N377 C378 1.376 . S
N377 C381 1.383 . S
C378 N377 1.376 . S
C378 C379 1.446 . S
C378 C408 1.391 . S
C379 C378 1.446 . S
C379 C380 1.339 . S
C379 H414 0.949 . S
C380 C379 1.339 . S
C380 C381 1.439 . S
C380 H415 0.950 . S
C381 N377 1.383 . S
C381 C380 1.439 . S
C381 C410 1.392 . S
N382 Co376 2.008 . S
N382 C383 1.376 . S
N382 C386 1.374 . S
C383 N382 1.376 . S
C383 C384 1.443 . S
C383 C410 1.389 . S
C384 C383 1.443 . S
C384 C385 1.340 . S
C384 H416 0.951 . S
C385 C384 1.340 . S
C385 C386 1.439 . S
C385 H417 0.950 . S
C386 N382 1.374 . S
C386 C385 1.439 . S
C386 C411 1.395 . S
N387 Co376 1.995 . S
N387 C388 1.376 . S
N387 C391 1.383 . S
C388 N387 1.376 . S
C388 C389 1.446 . S
C388 C411 1.391 . S
C389 C388 1.446 . S
C389 C390 1.339 . S
C389 H418 0.949 . S
C390 C389 1.339 . S
C390 C391 1.439 . S
C390 H419 0.950 . S
C391 N387 1.383 . S
C391 C390 1.439 . S
C391 C409 1.392 . S
N392 Co376 2.282 . S
N392 C395 1.332 . S
N392 C397 1.332 . S
C393 C394 1.386 . S
C393 C396 1.388 . S
C394 C393 1.386 . S
C394 C395 1.382 . S
C394 H420 0.950 . S
C395 N392 1.332 . S
C395 C394 1.382 . S
C395 H406 0.952 . S
C396 C393 1.388 . S
C396 C397 1.382 . S
C396 H421 0.950 . S
C397 N392 1.332 . S
C397 C396 1.382 . S
C397 H407 0.948 . S
N398 Co376 2.282 . S
N398 C402 1.332 . S
N398 C403 1.332 . S
C399 C400 1.388 . S
C399 C403 1.382 . S
C399 H422 0.950 . S
C400 C399 1.388 . S
C400 C401 1.386 . S
C401 C400 1.386 . S
C401 C402 1.382 . S
C401 H423 0.950 . S
C402 N398 1.332 . S
C402 C401 1.382 . S
C402 H404 0.952 . S
C403 N398 1.332 . S
C403 C399 1.382 . S
C403 H405 0.948 . S
H404 C402 0.952 . S
H405 C403 0.948 . S
H406 C395 0.952 . S
H407 C397 0.948 . S
C408 C374 1.395 . S
C408 C378 1.391 . S
C409 C371 1.389 . S
C409 C391 1.392 . S
C410 C381 1.392 . S
C410 C383 1.389 . S
C411 C386 1.395 . S
C411 C388 1.391 . S
H412 C372 0.951 . S
H413 C373 0.950 . S
H414 C379 0.949 . S
H415 C380 0.950 . S
H416 C384 0.951 . S
H417 C385 0.950 . S
H418 C389 0.949 . S
H419 C390 0.950 . S
H420 C394 0.950 . S
H421 C396 0.950 . S
H422 C399 0.950 . S
H423 C401 0.950 . S
C424 C425 1.443 . S
C424 N428 1.376 . S
C424 C462 1.389 . S
C425 C424 1.443 . S
C425 C426 1.340 . S
C425 H465 0.951 . S
C426 C425 1.340 . S
C426 C427 1.439 . S
C426 H466 0.950 . S
C427 C426 1.439 . S
C427 N428 1.374 . S
C427 C461 1.395 . S
N428 C424 1.376 . S
N428 C427 1.374 . S
N428 Co429 2.008 . S
Co429 N428 2.008 . S
Co429 N430 1.995 . S
Co429 N435 2.008 . S
Co429 N440 1.995 . S
Co429 N445 2.282 . S
Co429 N451 2.282 . S
N430 Co429 1.995 . S
N430 C431 1.376 . S
N430 C434 1.383 . S
C431 N430 1.376 . S
C431 C432 1.446 . S
C431 C461 1.391 . S
C432 C431 1.446 . S
C432 C433 1.339 . S
C432 H467 0.949 . S
C433 C432 1.339 . S
C433 C434 1.439 . S
C433 H468 0.950 . S
C434 N430 1.383 . S
C434 C433 1.439 . S
C434 C463 1.392 . S
N435 Co429 2.008 . S
N435 C436 1.376 . S
N435 C439 1.374 . S
C436 N435 1.376 . S
C436 C437 1.443 . S
C436 C463 1.389 . S
C437 C436 1.443 . S
C437 C438 1.340 . S
C437 H469 0.951 . S
C438 C437 1.340 . S
C438 C439 1.439 . S
C438 H470 0.950 . S
C439 N435 1.374 . S
C439 C438 1.439 . S
C439 C464 1.395 . S
N440 Co429 1.995 . S
N440 C441 1.376 . S
N440 C444 1.383 . S
C441 N440 1.376 . S
C441 C442 1.446 . S
C441 C464 1.391 . S
C442 C441 1.446 . S
C442 C443 1.339 . S
C442 H471 0.949 . S
C443 C442 1.339 . S
C443 C444 1.439 . S
C443 H472 0.950 . S
C444 N440 1.383 . S
C444 C443 1.439 . S
C444 C462 1.392 . S
N445 Co429 2.282 . S
N445 C448 1.332 . S
N445 C450 1.332 . S
C446 C447 1.386 . S
C446 C449 1.388 . S
C447 C446 1.386 . S
C447 C448 1.382 . S
C447 H473 0.950 . S
C448 N445 1.332 . S
C448 C447 1.382 . S
C448 H459 0.952 . S
C449 C446 1.388 . S
C449 C450 1.382 . S
C449 H474 0.950 . S
C450 N445 1.332 . S
C450 C449 1.382 . S
C450 H460 0.948 . S
N451 Co429 2.282 . S
N451 C455 1.332 . S
N451 C456 1.332 . S
C452 C453 1.388 . S
C452 C456 1.382 . S
C452 H475 0.950 . S
C453 C452 1.388 . S
C453 C454 1.386 . S
C454 C453 1.386 . S
C454 C455 1.382 . S
C454 H476 0.950 . S
C455 N451 1.332 . S
C455 C454 1.382 . S
C455 H457 0.952 . S
C456 N451 1.332 . S
C456 C452 1.382 . S
C456 H458 0.948 . S
H457 C455 0.952 . S
H458 C456 0.948 . S
H459 C448 0.952 . S
H460 C450 0.948 . S
C461 C427 1.395 . S
C461 C431 1.391 . S
C462 C424 1.389 . S
C462 C444 1.392 . S
C463 C434 1.392 . S
C463 C436 1.389 . S
C464 C439 1.395 . S
C464 C441 1.391 . S
H465 C425 0.951 . S
H466 C426 0.950 . S
H467 C432 0.949 . S
H468 C433 0.950 . S
H469 C437 0.951 . S
H470 C438 0.950 . S
H471 C442 0.949 . S
H472 C443 0.950 . S
H473 C447 0.950 . S
H474 C449 0.950 . S
H475 C452 0.950 . S
H476 C454 0.950 . S
C477 C478 1.443 . S
C477 N481 1.376 . S
C477 C515 1.389 . S
C478 C477 1.443 . S
C478 C479 1.340 . S
C478 H518 0.951 . S
C479 C478 1.340 . S
C479 C480 1.439 . S
C479 H519 0.950 . S
C480 C479 1.439 . S
C480 N481 1.374 . S
C480 C514 1.395 . S
N481 C477 1.376 . S
N481 C480 1.374 . S
N481 Co482 2.008 . S
Co482 N481 2.008 . S
Co482 N483 1.995 . S
Co482 N488 2.008 . S
Co482 N493 1.995 . S
Co482 N498 2.282 . S
Co482 N504 2.282 . S
N483 Co482 1.995 . S
N483 C484 1.376 . S
N483 C487 1.383 . S
C484 N483 1.376 . S
C484 C485 1.446 . S
C484 C514 1.391 . S
C485 C484 1.446 . S
C485 C486 1.339 . S
C485 H520 0.949 . S
C486 C485 1.339 . S
C486 C487 1.439 . S
C486 H521 0.950 . S
C487 N483 1.383 . S
C487 C486 1.439 . S
C487 C516 1.392 . S
N488 Co482 2.008 . S
N488 C489 1.376 . S
N488 C492 1.374 . S
C489 N488 1.376 . S
C489 C490 1.443 . S
C489 C516 1.389 . S
C490 C489 1.443 . S
C490 C491 1.340 . S
C490 H522 0.951 . S
C491 C490 1.340 . S
C491 C492 1.439 . S
C491 H523 0.950 . S
C492 N488 1.374 . S
C492 C491 1.439 . S
C492 C517 1.395 . S
N493 Co482 1.995 . S
N493 C494 1.376 . S
N493 C497 1.383 . S
C494 N493 1.376 . S
C494 C495 1.446 . S
C494 C517 1.391 . S
C495 C494 1.446 . S
C495 C496 1.339 . S
C495 H524 0.949 . S
C496 C495 1.339 . S
C496 C497 1.439 . S
C496 H525 0.950 . S
C497 N493 1.383 . S
C497 C496 1.439 . S
C497 C515 1.392 . S
N498 Co482 2.282 . S
N498 C501 1.332 . S
N498 C503 1.332 . S
C499 C500 1.386 . S
C499 C502 1.388 . S
C500 C499 1.386 . S
C500 C501 1.382 . S
C500 H526 0.950 . S
C501 N498 1.332 . S
C501 C500 1.382 . S
C501 H512 0.952 . S
C502 C499 1.388 . S
C502 C503 1.382 . S
C502 H527 0.950 . S
C503 N498 1.332 . S
C503 C502 1.382 . S
C503 H513 0.948 . S
N504 Co482 2.282 . S
N504 C508 1.332 . S
N504 C509 1.332 . S
C505 C506 1.388 . S
C505 C509 1.382 . S
C505 H528 0.950 . S
C506 C505 1.388 . S
C506 C507 1.386 . S
C507 C506 1.386 . S
C507 C508 1.382 . S
C507 H529 0.950 . S
C508 N504 1.332 . S
C508 C507 1.382 . S
C508 H510 0.952 . S
C509 N504 1.332 . S
C509 C505 1.382 . S
C509 H511 0.948 . S
H510 C508 0.952 . S
H511 C509 0.948 . S
H512 C501 0.952 . S
H513 C503 0.948 . S
C514 C480 1.395 . S
C514 C484 1.391 . S
C515 C477 1.389 . S
C515 C497 1.392 . S
C516 C487 1.392 . S
C516 C489 1.389 . S
C517 C492 1.395 . S
C517 C494 1.391 . S
H518 C478 0.951 . S
H519 C479 0.950 . S
H520 C485 0.949 . S
H521 C486 0.950 . S
H522 C490 0.951 . S
H523 C491 0.950 . S
H524 C495 0.949 . S
H525 C496 0.950 . S
H526 C500 0.950 . S
H527 C502 0.950 . S
H528 C505 0.950 . S
H529 C507 0.950 . S
C530 C531 1.443 . S
C530 N534 1.376 . S
C530 C568 1.389 . S
C531 C530 1.443 . S
C531 C532 1.340 . S
C531 H571 0.951 . S
C532 C531 1.340 . S
C532 C533 1.439 . S
C532 H572 0.950 . S
C533 C532 1.439 . S
C533 N534 1.374 . S
C533 C567 1.395 . S
N534 C530 1.376 . S
N534 C533 1.374 . S
N534 Co535 2.008 . S
Co535 N534 2.008 . S
Co535 N536 1.995 . S
Co535 N541 2.008 . S
Co535 N546 1.995 . S
Co535 N551 2.282 . S
Co535 N557 2.282 . S
N536 Co535 1.995 . S
N536 C537 1.376 . S
N536 C540 1.383 . S
C537 N536 1.376 . S
C537 C538 1.446 . S
C537 C567 1.391 . S
C538 C537 1.446 . S
C538 C539 1.339 . S
C538 H573 0.949 . S
C539 C538 1.339 . S
C539 C540 1.439 . S
C539 H574 0.950 . S
C540 N536 1.383 . S
C540 C539 1.439 . S
C540 C569 1.392 . S
N541 Co535 2.008 . S
N541 C542 1.376 . S
N541 C545 1.374 . S
C542 N541 1.376 . S
C542 C543 1.443 . S
C542 C569 1.389 . S
C543 C542 1.443 . S
C543 C544 1.340 . S
C543 H575 0.951 . S
C544 C543 1.340 . S
C544 C545 1.439 . S
C544 H576 0.950 . S
C545 N541 1.374 . S
C545 C544 1.439 . S
C545 C570 1.395 . S
N546 Co535 1.995 . S
N546 C547 1.376 . S
N546 C550 1.383 . S
C547 N546 1.376 . S
C547 C548 1.446 . S
C547 C570 1.391 . S
C548 C547 1.446 . S
C548 C549 1.339 . S
C548 H577 0.949 . S
C549 C548 1.339 . S
C549 C550 1.439 . S
C549 H578 0.950 . S
C550 N546 1.383 . S
C550 C549 1.439 . S
C550 C568 1.392 . S
N551 Co535 2.282 . S
N551 C554 1.332 . S
N551 C556 1.332 . S
C552 C553 1.386 . S
C552 C555 1.388 . S
C553 C552 1.386 . S
C553 C554 1.382 . S
C553 H579 0.950 . S
C554 N551 1.332 . S
C554 C553 1.382 . S
C554 H565 0.952 . S
C555 C552 1.388 . S
C555 C556 1.382 . S
C555 H580 0.950 . S
C556 N551 1.332 . S
C556 C555 1.382 . S
C556 H566 0.948 . S
N557 Co535 2.282 . S
N557 C561 1.332 . S
N557 C562 1.332 . S
C558 C559 1.388 . S
C558 C562 1.382 . S
C558 H581 0.950 . S
C559 C558 1.388 . S
C559 C560 1.386 . S
C560 C559 1.386 . S
C560 C561 1.382 . S
C560 H582 0.950 . S
C561 N557 1.332 . S
C561 C560 1.382 . S
C561 H563 0.952 . S
C562 N557 1.332 . S
C562 C558 1.382 . S
C562 H564 0.948 . S
H563 C561 0.952 . S
H564 C562 0.948 . S
H565 C554 0.952 . S
H566 C556 0.948 . S
C567 C533 1.395 . S
C567 C537 1.391 . S
C568 C530 1.389 . S
C568 C550 1.392 . S
C569 C540 1.392 . S
C569 C542 1.389 . S
C570 C545 1.395 . S
C570 C547 1.391 . S
H571 C531 0.951 . S
H572 C532 0.950 . S
H573 C538 0.949 . S
H574 C539 0.950 . S
H575 C543 0.951 . S
H576 C544 0.950 . S
H577 C548 0.949 . S
H578 C549 0.950 . S
H579 C553 0.950 . S
H580 C555 0.950 . S
H581 C558 0.950 . S
H582 C560 0.950 . S
C583 C584 1.443 . S
C583 N587 1.376 . S
C583 C621 1.389 . S
C584 C583 1.443 . S
C584 C585 1.340 . S
C584 H624 0.951 . S
C585 C584 1.340 . S
C585 C586 1.439 . S
C585 H625 0.950 . S
C586 C585 1.439 . S
C586 N587 1.374 . S
C586 C620 1.395 . S
N587 C583 1.376 . S
N587 C586 1.374 . S
N587 Co588 2.008 . S
Co588 N587 2.008 . S
Co588 N589 1.995 . S
Co588 N594 2.008 . S
Co588 N599 1.995 . S
Co588 N604 2.282 . S
Co588 N610 2.282 . S
N589 Co588 1.995 . S
N589 C590 1.376 . S
N589 C593 1.383 . S
C590 N589 1.376 . S
C590 C591 1.446 . S
C590 C620 1.391 . S
C591 C590 1.446 . S
C591 C592 1.339 . S
C591 H626 0.949 . S
C592 C591 1.339 . S
C592 C593 1.439 . S
C592 H627 0.950 . S
C593 N589 1.383 . S
C593 C592 1.439 . S
C593 C622 1.392 . S
N594 Co588 2.008 . S
N594 C595 1.376 . S
N594 C598 1.374 . S
C595 N594 1.376 . S
C595 C596 1.443 . S
C595 C622 1.389 . S
C596 C595 1.443 . S
C596 C597 1.340 . S
C596 H628 0.951 . S
C597 C596 1.340 . S
C597 C598 1.439 . S
C597 H629 0.950 . S
C598 N594 1.374 . S
C598 C597 1.439 . S
C598 C623 1.395 . S
N599 Co588 1.995 . S
N599 C600 1.376 . S
N599 C603 1.383 . S
C600 N599 1.376 . S
C600 C601 1.446 . S
C600 C623 1.391 . S
C601 C600 1.446 . S
C601 C602 1.339 . S
C601 H630 0.949 . S
C602 C601 1.339 . S
C602 C603 1.439 . S
C602 H631 0.950 . S
C603 N599 1.383 . S
C603 C602 1.439 . S
C603 C621 1.392 . S
N604 Co588 2.282 . S
N604 C607 1.332 . S
N604 C609 1.332 . S
C605 C606 1.386 . S
C605 C608 1.388 . S
C606 C605 1.386 . S
C606 C607 1.382 . S
C606 H632 0.950 . S
C607 N604 1.332 . S
C607 C606 1.382 . S
C607 H618 0.952 . S
C608 C605 1.388 . S
C608 C609 1.382 . S
C608 H633 0.950 . S
C609 N604 1.332 . S
C609 C608 1.382 . S
C609 H619 0.948 . S
N610 Co588 2.282 . S
N610 C614 1.332 . S
N610 C615 1.332 . S
C611 C612 1.388 . S
C611 C615 1.382 . S
C611 H634 0.950 . S
C612 C611 1.388 . S
C612 C613 1.386 . S
C613 C612 1.386 . S
C613 C614 1.382 . S
C613 H635 0.950 . S
C614 N610 1.332 . S
C614 C613 1.382 . S
C614 H616 0.952 . S
C615 N610 1.332 . S
C615 C611 1.382 . S
C615 H617 0.948 . S
H616 C614 0.952 . S
H617 C615 0.948 . S
H618 C607 0.952 . S
H619 C609 0.948 . S
C620 C586 1.395 . S
C620 C590 1.391 . S
C621 C583 1.389 . S
C621 C603 1.392 . S
C622 C593 1.392 . S
C622 C595 1.389 . S
C623 C598 1.395 . S
C623 C600 1.391 . S
H624 C584 0.951 . S
H625 C585 0.950 . S
H626 C591 0.949 . S
H627 C592 0.950 . S
H628 C596 0.951 . S
H629 C597 0.950 . S
H630 C601 0.949 . S
H631 C602 0.950 . S
H632 C606 0.950 . S
H633 C608 0.950 . S
H634 C611 0.950 . S
H635 C613 0.950 . S
C636 C637 1.443 . S
C636 N640 1.376 . S
C636 C674 1.389 . S
C637 C636 1.443 . S
C637 C638 1.340 . S
C637 H677 0.951 . S
C638 C637 1.340 . S
C638 C639 1.439 . S
C638 H678 0.950 . S
C639 C638 1.439 . S
C639 N640 1.374 . S
C639 C673 1.395 . S
N640 C636 1.376 . S
N640 C639 1.374 . S
N640 Co641 2.008 . S
Co641 N640 2.008 . S
Co641 N642 1.995 . S
Co641 N647 2.008 . S
Co641 N652 1.995 . S
Co641 N657 2.282 . S
Co641 N663 2.282 . S
N642 Co641 1.995 . S
N642 C643 1.376 . S
N642 C646 1.383 . S
C643 N642 1.376 . S
C643 C644 1.446 . S
C643 C673 1.391 . S
C644 C643 1.446 . S
C644 C645 1.339 . S
C644 H679 0.949 . S
C645 C644 1.339 . S
C645 C646 1.439 . S
C645 H680 0.950 . S
C646 N642 1.383 . S
C646 C645 1.439 . S
C646 C675 1.392 . S
N647 Co641 2.008 . S
N647 C648 1.376 . S
N647 C651 1.374 . S
C648 N647 1.376 . S
C648 C649 1.443 . S
C648 C675 1.389 . S
C649 C648 1.443 . S
C649 C650 1.340 . S
C649 H681 0.951 . S
C650 C649 1.340 . S
C650 C651 1.439 . S
C650 H682 0.950 . S
C651 N647 1.374 . S
C651 C650 1.439 . S
C651 C676 1.395 . S
N652 Co641 1.995 . S
N652 C653 1.376 . S
N652 C656 1.383 . S
C653 N652 1.376 . S
C653 C654 1.446 . S
C653 C676 1.391 . S
C654 C653 1.446 . S
C654 C655 1.339 . S
C654 H683 0.949 . S
C655 C654 1.339 . S
C655 C656 1.439 . S
C655 H684 0.950 . S
C656 N652 1.383 . S
C656 C655 1.439 . S
C656 C674 1.392 . S
N657 Co641 2.282 . S
N657 C660 1.332 . S
N657 C662 1.332 . S
C658 C659 1.386 . S
C658 C661 1.388 . S
C659 C658 1.386 . S
C659 C660 1.382 . S
C659 H685 0.950 . S
C660 N657 1.332 . S
C660 C659 1.382 . S
C660 H671 0.952 . S
C661 C658 1.388 . S
C661 C662 1.382 . S
C661 H686 0.950 . S
C662 N657 1.332 . S
C662 C661 1.382 . S
C662 H672 0.948 . S
N663 Co641 2.282 . S
N663 C667 1.332 . S
N663 C668 1.332 . S
C664 C665 1.388 . S
C664 C668 1.382 . S
C664 H687 0.950 . S
C665 C664 1.388 . S
C665 C666 1.386 . S
C666 C665 1.386 . S
C666 C667 1.382 . S
C666 H688 0.950 . S
C667 N663 1.332 . S
C667 C666 1.382 . S
C667 H669 0.952 . S
C668 N663 1.332 . S
C668 C664 1.382 . S
C668 H670 0.948 . S
H669 C667 0.952 . S
H670 C668 0.948 . S
H671 C660 0.952 . S
H672 C662 0.948 . S
C673 C639 1.395 . S
C673 C643 1.391 . S
C674 C636 1.389 . S
C674 C656 1.392 . S
C675 C646 1.392 . S
C675 C648 1.389 . S
C676 C651 1.395 . S
C676 C653 1.391 . S
H677 C637 0.951 . S
H678 C638 0.950 . S
H679 C644 0.949 . S
H680 C645 0.950 . S
H681 C649 0.951 . S
H682 C650 0.950 . S
H683 C654 0.949 . S
H684 C655 0.950 . S
H685 C659 0.950 . S
H686 C661 0.950 . S
H687 C664 0.950 . S
H688 C666 0.950 . S
C689 C690 1.443 . S
C689 N693 1.376 . S
C689 C727 1.389 . S
C690 C689 1.443 . S
C690 C691 1.340 . S
C690 H730 0.951 . S
C691 C690 1.340 . S
C691 C692 1.439 . S
C691 H731 0.950 . S
C692 C691 1.439 . S
C692 N693 1.374 . S
C692 C726 1.395 . S
N693 C689 1.376 . S
N693 C692 1.374 . S
N693 Co694 2.008 . S
Co694 N693 2.008 . S
Co694 N695 1.995 . S
Co694 N700 2.008 . S
Co694 N705 1.995 . S
Co694 N710 2.282 . S
Co694 N716 2.282 . S
N695 Co694 1.995 . S
N695 C696 1.376 . S
N695 C699 1.383 . S
C696 N695 1.376 . S
C696 C697 1.446 . S
C696 C726 1.391 . S
C697 C696 1.446 . S
C697 C698 1.339 . S
C697 H732 0.949 . S
C698 C697 1.339 . S
C698 C699 1.439 . S
C698 H733 0.950 . S
C699 N695 1.383 . S
C699 C698 1.439 . S
C699 C728 1.392 . S
N700 Co694 2.008 . S
N700 C701 1.376 . S
N700 C704 1.374 . S
C701 N700 1.376 . S
C701 C702 1.443 . S
C701 C728 1.389 . S
C702 C701 1.443 . S
C702 C703 1.340 . S
C702 H734 0.951 . S
C703 C702 1.340 . S
C703 C704 1.439 . S
C703 H735 0.950 . S
C704 N700 1.374 . S
C704 C703 1.439 . S
C704 C729 1.395 . S
N705 Co694 1.995 . S
N705 C706 1.376 . S
N705 C709 1.383 . S
C706 N705 1.376 . S
C706 C707 1.446 . S
C706 C729 1.391 . S
C707 C706 1.446 . S
C707 C708 1.339 . S
C707 H736 0.949 . S
C708 C707 1.339 . S
C708 C709 1.439 . S
C708 H737 0.950 . S
C709 N705 1.383 . S
C709 C708 1.439 . S
C709 C727 1.392 . S
N710 Co694 2.282 . S
N710 C713 1.332 . S
N710 C715 1.332 . S
C711 C712 1.386 . S
C711 C714 1.388 . S
C712 C711 1.386 . S
C712 C713 1.382 . S
C712 H738 0.950 . S
C713 N710 1.332 . S
C713 C712 1.382 . S
C713 H724 0.952 . S
C714 C711 1.388 . S
C714 C715 1.382 . S
C714 H739 0.950 . S
C715 N710 1.332 . S
C715 C714 1.382 . S
C715 H725 0.948 . S
N716 Co694 2.282 . S
N716 C720 1.332 . S
N716 C721 1.332 . S
C717 C718 1.388 . S
C717 C721 1.382 . S
C717 H740 0.950 . S
C718 C717 1.388 . S
C718 C719 1.386 . S
C719 C718 1.386 . S
C719 C720 1.382 . S
C719 H741 0.950 . S
C720 N716 1.332 . S
C720 C719 1.382 . S
C720 H722 0.952 . S
C721 N716 1.332 . S
C721 C717 1.382 . S
C721 H723 0.948 . S
H722 C720 0.952 . S
H723 C721 0.948 . S
H724 C713 0.952 . S
H725 C715 0.948 . S
C726 C692 1.395 . S
C726 C696 1.391 . S
C727 C689 1.389 . S
C727 C709 1.392 . S
C728 C699 1.392 . S
C728 C701 1.389 . S
C729 C704 1.395 . S
C729 C706 1.391 . S
H730 C690 0.951 . S
H731 C691 0.950 . S
H732 C697 0.949 . S
H733 C698 0.950 . S
H734 C702 0.951 . S
H735 C703 0.950 . S
H736 C707 0.949 . S
H737 C708 0.950 . S
H738 C712 0.950 . S
H739 C714 0.950 . S
H740 C717 0.950 . S
H741 C719 0.950 . S
C742 C743 1.443 . S
C742 N746 1.376 . S
C742 C780 1.389 . S
C743 C742 1.443 . S
C743 C744 1.340 . S
C743 H783 0.951 . S
C744 C743 1.340 . S
C744 C745 1.439 . S
C744 H784 0.950 . S
C745 C744 1.439 . S
C745 N746 1.374 . S
C745 C779 1.395 . S
N746 C742 1.376 . S
N746 C745 1.374 . S
N746 Co747 2.008 . S
Co747 N746 2.008 . S
Co747 N748 1.995 . S
Co747 N753 2.008 . S
Co747 N758 1.995 . S
Co747 N763 2.282 . S
Co747 N769 2.282 . S
N748 Co747 1.995 . S
N748 C749 1.376 . S
N748 C752 1.383 . S
C749 N748 1.376 . S
C749 C750 1.446 . S
C749 C779 1.391 . S
C750 C749 1.446 . S
C750 C751 1.339 . S
C750 H785 0.949 . S
C751 C750 1.339 . S
C751 C752 1.439 . S
C751 H786 0.950 . S
C752 N748 1.383 . S
C752 C751 1.439 . S
C752 C781 1.392 . S
N753 Co747 2.008 . S
N753 C754 1.376 . S
N753 C757 1.374 . S
C754 N753 1.376 . S
C754 C755 1.443 . S
C754 C781 1.389 . S
C755 C754 1.443 . S
C755 C756 1.340 . S
C755 H787 0.951 . S
C756 C755 1.340 . S
C756 C757 1.439 . S
C756 H788 0.950 . S
C757 N753 1.374 . S
C757 C756 1.439 . S
C757 C782 1.395 . S
N758 Co747 1.995 . S
N758 C759 1.376 . S
N758 C762 1.383 . S
C759 N758 1.376 . S
C759 C760 1.446 . S
C759 C782 1.391 . S
C760 C759 1.446 . S
C760 C761 1.339 . S
C760 H789 0.949 . S
C761 C760 1.339 . S
C761 C762 1.439 . S
C761 H790 0.950 . S
C762 N758 1.383 . S
C762 C761 1.439 . S
C762 C780 1.392 . S
N763 Co747 2.282 . S
N763 C766 1.332 . S
N763 C768 1.332 . S
C764 C765 1.386 . S
C764 C767 1.388 . S
C765 C764 1.386 . S
C765 C766 1.382 . S
C765 H791 0.950 . S
C766 N763 1.332 . S
C766 C765 1.382 . S
C766 H777 0.952 . S
C767 C764 1.388 . S
C767 C768 1.382 . S
C767 H792 0.950 . S
C768 N763 1.332 . S
C768 C767 1.382 . S
C768 H778 0.948 . S
N769 Co747 2.282 . S
N769 C773 1.332 . S
N769 C774 1.332 . S
C770 C771 1.388 . S
C770 C774 1.382 . S
C770 H793 0.950 . S
C771 C770 1.388 . S
C771 C772 1.386 . S
C772 C771 1.386 . S
C772 C773 1.382 . S
C772 H794 0.950 . S
C773 N769 1.332 . S
C773 C772 1.382 . S
C773 H775 0.952 . S
C774 N769 1.332 . S
C774 C770 1.382 . S
C774 H776 0.948 . S
H775 C773 0.952 . S
H776 C774 0.948 . S
H777 C766 0.952 . S
H778 C768 0.948 . S
C779 C745 1.395 . S
C779 C749 1.391 . S
C780 C742 1.389 . S
C780 C762 1.392 . S
C781 C752 1.392 . S
C781 C754 1.389 . S
C782 C757 1.395 . S
C782 C759 1.391 . S
H783 C743 0.951 . S
H784 C744 0.950 . S
H785 C750 0.949 . S
H786 C751 0.950 . S
H787 C755 0.951 . S
H788 C756 0.950 . S
H789 C760 0.949 . S
H790 C761 0.950 . S
H791 C765 0.950 . S
H792 C767 0.950 . S
H793 C770 0.950 . S
H794 C772 0.950 . S
C795 C796 1.443 . S
C795 N799 1.376 . S
C795 C833 1.389 . S
C796 C795 1.443 . S
C796 C797 1.340 . S
C796 H836 0.951 . S
C797 C796 1.340 . S
C797 C798 1.439 . S
C797 H837 0.950 . S
C798 C797 1.439 . S
C798 N799 1.374 . S
C798 C832 1.395 . S
N799 C795 1.376 . S
N799 C798 1.374 . S
N799 Co800 2.008 . S
Co800 N799 2.008 . S
Co800 N801 1.995 . S
Co800 N806 2.008 . S
Co800 N811 1.995 . S
Co800 N816 2.282 . S
Co800 N822 2.282 . S
N801 Co800 1.995 . S
N801 C802 1.376 . S
N801 C805 1.383 . S
C802 N801 1.376 . S
C802 C803 1.446 . S
C802 C832 1.391 . S
C803 C802 1.446 . S
C803 C804 1.339 . S
C803 H838 0.949 . S
C804 C803 1.339 . S
C804 C805 1.439 . S
C804 H839 0.950 . S
C805 N801 1.383 . S
C805 C804 1.439 . S
C805 C834 1.392 . S
N806 Co800 2.008 . S
N806 C807 1.376 . S
N806 C810 1.374 . S
C807 N806 1.376 . S
C807 C808 1.443 . S
C807 C834 1.389 . S
C808 C807 1.443 . S
C808 C809 1.340 . S
C808 H840 0.951 . S
C809 C808 1.340 . S
C809 C810 1.439 . S
C809 H841 0.950 . S
C810 N806 1.374 . S
C810 C809 1.439 . S
C810 C835 1.395 . S
N811 Co800 1.995 . S
N811 C812 1.376 . S
N811 C815 1.383 . S
C812 N811 1.376 . S
C812 C813 1.446 . S
C812 C835 1.391 . S
C813 C812 1.446 . S
C813 C814 1.339 . S
C813 H842 0.949 . S
C814 C813 1.339 . S
C814 C815 1.439 . S
C814 H843 0.950 . S
C815 N811 1.383 . S
C815 C814 1.439 . S
C815 C833 1.392 . S
N816 Co800 2.282 . S
N816 C819 1.332 . S
N816 C821 1.332 . S
C817 C818 1.386 . S
C817 C820 1.388 . S
C818 C817 1.386 . S
C818 C819 1.382 . S
C818 H844 0.950 . S
C819 N816 1.332 . S
C819 C818 1.382 . S
C819 H830 0.952 . S
C820 C817 1.388 . S
C820 C821 1.382 . S
C820 H845 0.950 . S
C821 N816 1.332 . S
C821 C820 1.382 . S
C821 H831 0.948 . S
N822 Co800 2.282 . S
N822 C826 1.332 . S
N822 C827 1.332 . S
C823 C824 1.388 . S
C823 C827 1.382 . S
C823 H846 0.950 . S
C824 C823 1.388 . S
C824 C825 1.386 . S
C825 C824 1.386 . S
C825 C826 1.382 . S
C825 H847 0.950 . S
C826 N822 1.332 . S
C826 C825 1.382 . S
C826 H828 0.952 . S
C827 N822 1.332 . S
C827 C823 1.382 . S
C827 H829 0.948 . S
H828 C826 0.952 . S
H829 C827 0.948 . S
H830 C819 0.952 . S
H831 C821 0.948 . S
C832 C798 1.395 . S
C832 C802 1.391 . S
C833 C795 1.389 . S
C833 C815 1.392 . S
C834 C805 1.392 . S
C834 C807 1.389 . S
C835 C810 1.395 . S
C835 C812 1.391 . S
H836 C796 0.951 . S
H837 C797 0.950 . S
H838 C803 0.949 . S
H839 C804 0.950 . S
H840 C808 0.951 . S
H841 C809 0.950 . S
H842 C813 0.949 . S
H843 C814 0.950 . S
H844 C818 0.950 . S
H845 C820 0.950 . S
H846 C823 0.950 . S
H847 C825 0.950 . S
C848 C849 1.369 . S
C848 C850 1.419 1_455 S
C848 H852 0.930 . S
C849 C848 1.369 . S
C849 C858 1.429 . S
C850 C848 1.419 1_655 S
C850 C851 1.363 . S
C850 H853 0.929 . S
C851 C850 1.363 . S
C851 C857 1.428 . S
H852 C848 0.930 . S
H853 C850 0.929 . S
S854 N855 1.612 . S
S854 N856 1.611 1_455 S
N855 S854 1.612 . S
N855 C858 1.350 . S
N856 S854 1.611 1_655 S
N856 C857 1.351 . S
C857 C851 1.428 . S
C857 N856 1.351 . S
C857 C858 1.434 1_655 S
C858 C849 1.429 . S
C858 N855 1.350 . S
C858 C857 1.434 1_455 S
C859 C860 1.369 . S
C859 C861 1.419 1_565 S
C859 H863 0.930 . S
C860 C859 1.369 . S
C860 C869 1.429 . S
C861 C859 1.419 1_545 S
C861 C862 1.363 . S
C861 H864 0.929 . S
C862 C861 1.363 . S
C862 C868 1.428 . S
H863 C859 0.930 . S
H864 C861 0.929 . S
S865 N866 1.616 1_545 S
S865 N867 1.608 . S
N866 S865 1.616 1_565 S
N866 C869 1.350 . S
N867 S865 1.608 . S
N867 C868 1.351 . S
C868 C862 1.428 . S
C868 N867 1.351 . S
C868 C869 1.434 1_545 S
C869 C860 1.429 . S
C869 N866 1.350 . S
C869 C868 1.434 1_565 S
C870 C871 1.369 . S
C870 C872 1.419 1_455 S
C870 H874 0.930 . S
C871 C870 1.369 . S
C871 C880 1.429 . S
C872 C870 1.419 1_655 S
C872 C873 1.363 . S
C872 H875 0.929 . S
C873 C872 1.363 . S
C873 C879 1.428 . S
H874 C870 0.930 . S
H875 C872 0.929 . S
S876 N877 1.610 . S
S876 N878 1.613 1_455 S
N877 S876 1.610 . S
N877 C880 1.350 . S
N878 S876 1.613 1_655 S
N878 C879 1.351 . S
C879 C873 1.428 . S
C879 N878 1.351 . S
C879 C880 1.434 1_655 S
C880 C871 1.429 . S
C880 N877 1.350 . S
C880 C879 1.434 1_455 S
C881 C882 1.369 . S
C881 C883 1.419 1_565 S
C881 H885 0.930 . S
C882 C881 1.369 . S
C882 C891 1.429 . S
C883 C881 1.419 1_545 S
C883 C884 1.363 . S
C883 H886 0.929 . S
C884 C883 1.363 . S
C884 C890 1.428 . S
H885 C881 0.930 . S
H886 C883 0.929 . S
S887 N888 1.615 1_545 S
S887 N889 1.608 . S
N888 S887 1.615 1_565 S
N888 C891 1.350 . S
N889 S887 1.608 . S
N889 C890 1.351 . S
C890 C884 1.428 . S
C890 N889 1.351 . S
C890 C891 1.434 1_545 S
C891 C882 1.429 . S
C891 N888 1.350 . S
C891 C890 1.434 1_565 S
C892 C893 1.369 . S
C892 C894 1.419 1_655 S
C892 H896 0.930 . S
C893 C892 1.369 . S
C893 C902 1.429 . S
C894 C892 1.419 1_455 S
C894 C895 1.363 . S
C894 H897 0.929 . S
C895 C894 1.363 . S
C895 C901 1.428 . S
H896 C892 0.930 . S
H897 C894 0.929 . S
S898 N899 1.612 . S
S898 N900 1.611 1_655 S
N899 S898 1.612 . S
N899 C902 1.350 . S
N900 S898 1.611 1_455 S
N900 C901 1.351 . S
C901 C895 1.428 . S
C901 N900 1.351 . S
C901 C902 1.434 1_455 S
C902 C893 1.429 . S
C902 N899 1.350 . S
C902 C901 1.434 1_655 S
C903 C904 1.369 . S
C903 C905 1.419 1_545 S
C903 H907 0.930 . S
C904 C903 1.369 . S
C904 C913 1.429 . S
C905 C903 1.419 1_565 S
C905 C906 1.363 . S
C905 H908 0.929 . S
C906 C905 1.363 . S
C906 C912 1.428 . S
H907 C903 0.930 . S
H908 C905 0.929 . S
S909 N910 1.612 . S
S909 N911 1.612 1_545 S
N910 S909 1.612 . S
N910 C913 1.350 . S
N911 S909 1.612 1_565 S
N911 C912 1.351 . S
C912 C906 1.428 . S
C912 N911 1.351 . S
C912 C913 1.434 1_565 S
C913 C904 1.429 . S
C913 N910 1.350 . S
C913 C912 1.434 1_545 S
C914 C915 1.369 . S
C914 C916 1.419 1_655 S
C914 H918 0.930 . S
C915 C914 1.369 . S
C915 C924 1.429 . S
C916 C914 1.419 1_455 S
C916 C917 1.363 . S
C916 H919 0.929 . S
C917 C916 1.363 . S
C917 C923 1.428 . S
H918 C914 0.930 . S
H919 C916 0.929 . S
S920 N921 1.613 . S
S920 N922 1.611 1_655 S
N921 S920 1.613 . S
N921 C924 1.350 . S
N922 S920 1.611 1_455 S
N922 C923 1.351 . S
C923 C917 1.428 . S
C923 N922 1.351 . S
C923 C924 1.434 1_455 S
C924 C915 1.429 . S
C924 N921 1.350 . S
C924 C923 1.434 1_655 S
C925 C926 1.369 . S
C925 C927 1.419 1_545 S
C925 H929 0.930 . S
C926 C925 1.369 . S
C926 C935 1.429 . S
C927 C925 1.419 1_565 S
C927 C928 1.363 . S
C927 H930 0.929 . S
C928 C927 1.363 . S
C928 C934 1.428 . S
H929 C925 0.930 . S
H930 C927 0.929 . S
S931 N932 1.613 . S
S931 N933 1.611 1_545 S
N932 S931 1.613 . S
N932 C935 1.350 . S
N933 S931 1.611 1_565 S
N933 C934 1.351 . S
C934 C928 1.428 . S
C934 N933 1.351 . S
C934 C935 1.434 1_565 S
C935 C926 1.429 . S
C935 N932 1.350 . S
C935 C934 1.434 1_545 S
C936 C937 1.369 . S
C936 C938 1.419 . S
C936 H940 0.930 . S
C937 C936 1.369 . S
C937 C946 1.429 . S
C938 C936 1.419 . S
C938 C939 1.363 . S
C938 H941 0.929 . S
C939 C938 1.363 . S
C939 C945 1.428 . S
H940 C936 0.930 . S
H941 C938 0.929 . S
S942 N943 1.613 . S
S942 N944 1.610 . S
N943 S942 1.613 . S
N943 C946 1.350 . S
N944 S942 1.610 . S
N944 C945 1.351 . S
C945 C939 1.428 . S
C945 N944 1.351 . S
C945 C946 1.434 . S
C946 C937 1.429 . S
C946 N943 1.350 . S
C946 C945 1.434 . S
C947 C948 1.369 . S
C947 C949 1.419 . S
C947 H951 0.930 . S
C948 C947 1.369 . S
C948 C957 1.429 . S
C949 C947 1.419 . S
C949 C950 1.363 . S
C949 H952 0.929 . S
C950 C949 1.363 . S
C950 C956 1.428 . S
H951 C947 0.930 . S
H952 C949 0.929 . S
S953 N954 1.613 . S
S953 N955 1.610 . S
N954 S953 1.613 . S
N954 C957 1.350 . S
N955 S953 1.610 . S
N955 C956 1.351 . S
C956 C950 1.428 . S
C956 N955 1.351 . S
C956 C957 1.434 . S
C957 C948 1.429 . S
C957 N954 1.350 . S
C957 C956 1.434 . S
C958 C959 1.369 . S
C958 C960 1.419 . S
C958 H962 0.930 . S
C959 C958 1.369 . S
C959 C968 1.429 . S
C960 C958 1.419 . S
C960 C961 1.363 . S
C960 H963 0.929 . S
C961 C960 1.363 . S
C961 C967 1.428 . S
H962 C958 0.930 . S
H963 C960 0.929 . S
S964 N965 1.613 . S
S964 N966 1.610 . S
N965 S964 1.613 . S
N965 C968 1.350 . S
N966 S964 1.610 . S
N966 C967 1.351 . S
C967 C961 1.428 . S
C967 N966 1.351 . S
C967 C968 1.434 . S
C968 C959 1.429 . S
C968 N965 1.350 . S
C968 C967 1.434 . S
C969 C970 1.369 . S
C969 C971 1.419 . S
C969 H973 0.930 . S
C970 C969 1.369 . S
C970 C979 1.429 . S
C971 C969 1.419 . S
C971 C972 1.363 . S
C971 H974 0.929 . S
C972 C971 1.363 . S
C972 C978 1.428 . S
H973 C969 0.930 . S
H974 C971 0.929 . S
S975 N976 1.613 . S
S975 N977 1.610 . S
N976 S975 1.613 . S
N976 C979 1.350 . S
N977 S975 1.610 . S
N977 C978 1.351 . S
C978 C972 1.428 . S
C978 N977 1.351 . S
C978 C979 1.434 . S
C979 C970 1.429 . S
C979 N976 1.350 . S
C979 C978 1.434 . S
C980 C981 1.369 . S
C980 C982 1.419 . S
C980 H984 0.930 . S
C981 C980 1.369 . S
C981 C990 1.429 . S
C982 C980 1.419 . S
C982 C983 1.363 . S
C982 H985 0.929 . S
C983 C982 1.363 . S
C983 C989 1.428 . S
H984 C980 0.930 . S
H985 C982 0.929 . S
S986 N987 1.613 . S
S986 N988 1.610 . S
N987 S986 1.613 . S
N987 C990 1.350 . S
N988 S986 1.610 . S
N988 C989 1.351 . S
C989 C983 1.428 . S
C989 N988 1.351 . S
C989 C990 1.434 . S
C990 C981 1.429 . S
C990 N987 1.350 . S
C990 C989 1.434 . S
C991 C992 1.369 . S
C991 C993 1.419 . S
C991 H995 0.930 . S
C992 C991 1.369 . S
C992 C1001 1.429 . S
C993 C991 1.419 . S
C993 C994 1.363 . S
C993 H996 0.929 . S
C994 C993 1.363 . S
C994 C1000 1.428 . S
H995 C991 0.930 . S
H996 C993 0.929 . S
S997 N998 1.613 . S
S997 N999 1.610 . S
N998 S997 1.613 . S
N998 C1001 1.350 . S
N999 S997 1.610 . S
N999 C1000 1.351 . S
C1000 C994 1.428 . S
C1000 N999 1.351 . S
C1000 C1001 1.434 . S
C1001 C992 1.429 . S
C1001 N998 1.350 . S
C1001 C1000 1.434 . S
C1002 C1003 1.369 . S
C1002 C1004 1.419 . S
C1002 H1006 0.930 . S
C1003 C1002 1.369 . S
C1003 C1012 1.429 . S
C1004 C1002 1.419 . S
C1004 C1005 1.363 . S
C1004 H1007 0.929 . S
C1005 C1004 1.363 . S
C1005 C1011 1.428 . S
H1006 C1002 0.930 . S
H1007 C1004 0.929 . S
S1008 N1009 1.613 . S
S1008 N1010 1.610 . S
N1009 S1008 1.613 . S
N1009 C1012 1.350 . S
N1010 S1008 1.610 . S
N1010 C1011 1.351 . S
C1011 C1005 1.428 . S
C1011 N1010 1.351 . S
C1011 C1012 1.434 . S
C1012 C1003 1.429 . S
C1012 N1009 1.350 . S
C1012 C1011 1.434 . S
C1013 C1014 1.369 . S
C1013 C1015 1.419 . S
C1013 H1017 0.930 . S
C1014 C1013 1.369 . S
C1014 C1023 1.429 . S
C1015 C1013 1.419 . S
C1015 C1016 1.363 . S
C1015 H1018 0.929 . S
C1016 C1015 1.363 . S
C1016 C1022 1.428 . S
H1017 C1013 0.930 . S
H1018 C1015 0.929 . S
S1019 N1020 1.613 . S
S1019 N1021 1.610 . S
N1020 S1019 1.613 . S
N1020 C1023 1.350 . S
N1021 S1019 1.610 . S
N1021 C1022 1.351 . S
C1022 C1016 1.428 . S
C1022 N1021 1.351 . S
C1022 C1023 1.434 . S
C1023 C1014 1.429 . S
C1023 N1020 1.350 . S
C1023 C1022 1.434 . S
C1024 C1025 1.369 . S
C1024 C1026 1.419 1_556 S
C1024 H1028 0.930 . S
C1025 C1024 1.369 . S
C1025 C1034 1.429 . S
C1026 C1024 1.419 1_554 S
C1026 C1027 1.363 . S
C1026 H1029 0.929 . S
C1027 C1026 1.363 . S
C1027 C1033 1.428 . S
H1028 C1024 0.930 . S
H1029 C1026 0.929 . S
S1030 N1031 1.616 1_554 S
S1030 N1032 1.607 . S
N1031 S1030 1.616 1_556 S
N1031 C1034 1.350 . S
N1032 S1030 1.607 . S
N1032 C1033 1.351 . S
C1033 C1027 1.428 . S
C1033 N1032 1.351 . S
C1033 C1034 1.434 1_554 S
C1034 C1025 1.429 . S
C1034 N1031 1.350 . S
C1034 C1033 1.434 1_556 S
C1035 C1036 1.369 . S
C1035 C1037 1.419 . S
C1035 H1039 0.930 . S
C1036 C1035 1.369 . S
C1036 C1045 1.429 . S
C1037 C1035 1.419 . S
C1037 C1038 1.363 . S
C1037 H1040 0.929 . S
C1038 C1037 1.363 . S
C1038 C1044 1.428 . S
H1039 C1035 0.930 . S
H1040 C1037 0.929 . S
S1041 N1042 1.613 . S
S1041 N1043 1.610 . S
N1042 S1041 1.613 . S
N1042 C1045 1.350 . S
N1043 S1041 1.610 . S
N1043 C1044 1.351 . S
C1044 C1038 1.428 . S
C1044 N1043 1.351 . S
C1044 C1045 1.434 . S
C1045 C1036 1.429 . S
C1045 N1042 1.350 . S
C1045 C1044 1.434 . S
C1046 C1047 1.369 . S
C1046 C1048 1.419 1_554 S
C1046 H1050 0.930 . S
C1047 C1046 1.369 . S
C1047 C1056 1.429 . S
C1048 C1046 1.419 1_556 S
C1048 C1049 1.363 . S
C1048 H1051 0.929 . S
C1049 C1048 1.363 . S
C1049 C1055 1.428 . S
H1050 C1046 0.930 . S
H1051 C1048 0.929 . S
S1052 N1053 1.616 1_556 S
S1052 N1054 1.607 . S
N1053 S1052 1.616 1_554 S
N1053 C1056 1.350 . S
N1054 S1052 1.607 . S
N1054 C1055 1.351 . S
C1055 C1049 1.428 . S
C1055 N1054 1.351 . S
C1055 C1056 1.434 1_556 S
C1056 C1047 1.429 . S
C1056 N1053 1.350 . S
C1056 C1055 1.434 1_554 S
C1057 C1058 1.369 . S
C1057 C1059 1.419 . S
C1057 H1061 0.930 . S
C1058 C1057 1.369 . S
C1058 C1067 1.429 . S
C1059 C1057 1.419 . S
C1059 C1060 1.363 . S
C1059 H1062 0.929 . S
C1060 C1059 1.363 . S
C1060 C1066 1.428 . S
H1061 C1057 0.930 . S
H1062 C1059 0.929 . S
S1063 N1064 1.613 . S
S1063 N1065 1.610 . S
N1064 S1063 1.613 . S
N1064 C1067 1.350 . S
N1065 S1063 1.610 . S
N1065 C1066 1.351 . S
C1066 C1060 1.428 . S
C1066 N1065 1.351 . S
C1066 C1067 1.434 . S
C1067 C1058 1.429 . S
C1067 N1064 1.350 . S
C1067 C1066 1.434 . S
C1068 C1069 1.369 . S
C1068 C1070 1.419 . S
C1068 H1072 0.930 . S
C1069 C1068 1.369 . S
C1069 C1078 1.429 . S
C1070 C1068 1.419 . S
C1070 C1071 1.363 . S
C1070 H1073 0.929 . S
C1071 C1070 1.363 . S
C1071 C1077 1.428 . S
H1072 C1068 0.930 . S
H1073 C1070 0.929 . S
S1074 N1075 1.613 . S
S1074 N1076 1.610 . S
N1075 S1074 1.613 . S
N1075 C1078 1.350 . S
N1076 S1074 1.610 . S
N1076 C1077 1.351 . S
C1077 C1071 1.428 . S
C1077 N1076 1.351 . S
C1077 C1078 1.434 . S
C1078 C1069 1.429 . S
C1078 N1075 1.350 . S
C1078 C1077 1.434 . S
C1079 C1080 1.369 . S
C1079 C1081 1.419 1_556 S
C1079 H1083 0.930 . S
C1080 C1079 1.369 . S
C1080 C1089 1.429 . S
C1081 C1079 1.419 1_554 S
C1081 C1082 1.363 . S
C1081 H1084 0.929 . S
C1082 C1081 1.363 . S
C1082 C1088 1.428 . S
H1083 C1079 0.930 . S
H1084 C1081 0.929 . S
S1085 N1086 1.616 1_554 S
S1085 N1087 1.607 . S
N1086 S1085 1.616 1_556 S
N1086 C1089 1.350 . S
N1087 S1085 1.607 . S
N1087 C1088 1.351 . S
C1088 C1082 1.428 . S
C1088 N1087 1.351 . S
C1088 C1089 1.434 1_554 S
C1089 C1080 1.429 . S
C1089 N1086 1.350 . S
C1089 C1088 1.434 1_556 S
C1090 C1091 1.369 . S
C1090 C1092 1.419 . S
C1090 H1094 0.930 . S
C1091 C1090 1.369 . S
C1091 C1100 1.429 . S
C1092 C1090 1.419 . S
C1092 C1093 1.363 . S
C1092 H1095 0.929 . S
C1093 C1092 1.363 . S
C1093 C1099 1.428 . S
H1094 C1090 0.930 . S
H1095 C1092 0.929 . S
S1096 N1097 1.613 . S
S1096 N1098 1.610 . S
N1097 S1096 1.613 . S
N1097 C1100 1.350 . S
N1098 S1096 1.610 . S
N1098 C1099 1.351 . S
C1099 C1093 1.428 . S
C1099 N1098 1.351 . S
C1099 C1100 1.434 . S
C1100 C1091 1.429 . S
C1100 N1097 1.350 . S
C1100 C1099 1.434 . S
C1101 C1102 1.369 . S
C1101 C1103 1.419 1_554 S
C1101 H1105 0.930 . S
C1102 C1101 1.369 . S
C1102 C1111 1.429 . S
C1103 C1101 1.419 1_556 S
C1103 C1104 1.363 . S
C1103 H1106 0.929 . S
C1104 C1103 1.363 . S
C1104 C1110 1.428 . S
H1105 C1101 0.930 . S
H1106 C1103 0.929 . S
S1107 N1108 1.616 1_556 S
S1107 N1109 1.607 . S
N1108 S1107 1.616 1_554 S
N1108 C1111 1.350 . S
N1109 S1107 1.607 . S
N1109 C1110 1.351 . S
C1110 C1104 1.428 . S
C1110 N1109 1.351 . S
C1110 C1111 1.434 1_556 S
C1111 C1102 1.429 . S
C1111 N1108 1.350 . S
C1111 C1110 1.434 1_554 S
C1112 C1113 1.369 . S
C1112 C1114 1.419 . S
C1112 H1116 0.930 . S
C1113 C1112 1.369 . S
C1113 C1122 1.429 . S
C1114 C1112 1.419 . S
C1114 C1115 1.363 . S
C1114 H1117 0.929 . S
C1115 C1114 1.363 . S
C1115 C1121 1.428 . S
H1116 C1112 0.930 . S
H1117 C1114 0.929 . S
S1118 N1119 1.613 . S
S1118 N1120 1.610 . S
N1119 S1118 1.613 . S
N1119 C1122 1.350 . S
N1120 S1118 1.610 . S
N1120 C1121 1.351 . S
C1121 C1115 1.428 . S
C1121 N1120 1.351 . S
C1121 C1122 1.434 . S
C1122 C1113 1.429 . S
C1122 N1119 1.350 . S
C1122 C1121 1.434 . S
C1123 C1124 1.369 . S
C1123 C1125 1.419 . S
C1123 H1127 0.930 . S
C1124 C1123 1.369 . S
C1124 C1133 1.429 . S
C1125 C1123 1.419 . S
C1125 C1126 1.363 . S
C1125 H1128 0.929 . S
C1126 C1125 1.363 . S
C1126 C1132 1.428 . S
H1127 C1123 0.930 . S
H1128 C1125 0.929 . S
S1129 N1130 1.613 . S
S1129 N1131 1.610 . S
N1130 S1129 1.613 . S
N1130 C1133 1.350 . S
N1131 S1129 1.610 . S
N1131 C1132 1.351 . S
C1132 C1126 1.428 . S
C1132 N1131 1.351 . S
C1132 C1133 1.434 . S
C1133 C1124 1.429 . S
C1133 N1130 1.350 . S
C1133 C1132 1.434 . S
C1134 C1135 1.369 . S
C1134 C1136 1.419 . S
C1134 H1138 0.930 . S
C1135 C1134 1.369 . S
C1135 C1144 1.429 . S
C1136 C1134 1.419 . S
C1136 C1137 1.363 . S
C1136 H1139 0.929 . S
C1137 C1136 1.363 . S
C1137 C1143 1.428 . S
H1138 C1134 0.930 . S
H1139 C1136 0.929 . S
S1140 N1141 1.613 . S
S1140 N1142 1.610 . S
N1141 S1140 1.613 . S
N1141 C1144 1.350 . S
N1142 S1140 1.610 . S
N1142 C1143 1.351 . S
C1143 C1137 1.428 . S
C1143 N1142 1.351 . S
C1143 C1144 1.434 . S
C1144 C1135 1.429 . S
C1144 N1141 1.350 . S
C1144 C1143 1.434 . S
C1145 C1146 1.369 . S
C1145 C1147 1.419 . S
C1145 H1149 0.930 . S
C1146 C1145 1.369 . S
C1146 C1155 1.429 . S
C1147 C1145 1.419 . S
C1147 C1148 1.363 . S
C1147 H1150 0.929 . S
C1148 C1147 1.363 . S
C1148 C1154 1.428 . S
H1149 C1145 0.930 . S
H1150 C1147 0.929 . S
S1151 N1152 1.613 . S
S1151 N1153 1.610 . S
N1152 S1151 1.613 . S
N1152 C1155 1.350 . S
N1153 S1151 1.610 . S
N1153 C1154 1.351 . S
C1154 C1148 1.428 . S
C1154 N1153 1.351 . S
C1154 C1155 1.434 . S
C1155 C1146 1.429 . S
C1155 N1152 1.350 . S
C1155 C1154 1.434 . S
C1156 C1157 1.369 . S
C1156 C1158 1.419 . S
C1156 H1160 0.930 . S
C1157 C1156 1.369 . S
C1157 C1166 1.429 . S
C1158 C1156 1.419 . S
C1158 C1159 1.363 . S
C1158 H1161 0.929 . S
C1159 C1158 1.363 . S
C1159 C1165 1.428 . S
H1160 C1156 0.930 . S
H1161 C1158 0.929 . S
S1162 N1163 1.613 . S
S1162 N1164 1.610 . S
N1163 S1162 1.613 . S
N1163 C1166 1.350 . S
N1164 S1162 1.610 . S
N1164 C1165 1.351 . S
C1165 C1159 1.428 . S
C1165 N1164 1.351 . S
C1165 C1166 1.434 . S
C1166 C1157 1.429 . S
C1166 N1163 1.350 . S
C1166 C1165 1.434 . S
C1167 C1168 1.369 . S
C1167 C1169 1.419 . S
C1167 H1171 0.930 . S
C1168 C1167 1.369 . S
C1168 C1177 1.429 . S
C1169 C1167 1.419 . S
C1169 C1170 1.363 . S
C1169 H1172 0.929 . S
C1170 C1169 1.363 . S
C1170 C1176 1.428 . S
H1171 C1167 0.930 . S
H1172 C1169 0.929 . S
S1173 N1174 1.613 . S
S1173 N1175 1.610 . S
N1174 S1173 1.613 . S
N1174 C1177 1.350 . S
N1175 S1173 1.610 . S
N1175 C1176 1.351 . S
C1176 C1170 1.428 . S
C1176 N1175 1.351 . S
C1176 C1177 1.434 . S
C1177 C1168 1.429 . S
C1177 N1174 1.350 . S
C1177 C1176 1.434 . S
C1178 C1179 1.369 . S
C1178 C1180 1.419 . S
C1178 H1182 0.930 . S
C1179 C1178 1.369 . S
C1179 C1188 1.429 . S
C1180 C1178 1.419 . S
C1180 C1181 1.363 . S
C1180 H1183 0.929 . S
C1181 C1180 1.363 . S
C1181 C1187 1.428 . S
H1182 C1178 0.930 . S
H1183 C1180 0.929 . S
S1184 N1185 1.613 . S
S1184 N1186 1.610 . S
N1185 S1184 1.613 . S
N1185 C1188 1.350 . S
N1186 S1184 1.610 . S
N1186 C1187 1.351 . S
C1187 C1181 1.428 . S
C1187 N1186 1.351 . S
C1187 C1188 1.434 . S
C1188 C1179 1.429 . S
C1188 N1185 1.350 . S
C1188 C1187 1.434 . S
C1189 C1190 1.369 . S
C1189 C1191 1.419 . S
C1189 H1193 0.930 . S
C1190 C1189 1.369 . S
C1190 C1199 1.429 . S
C1191 C1189 1.419 . S
C1191 C1192 1.363 . S
C1191 H1194 0.929 . S
C1192 C1191 1.363 . S
C1192 C1198 1.428 . S
H1193 C1189 0.930 . S
H1194 C1191 0.929 . S
S1195 N1196 1.613 . S
S1195 N1197 1.610 . S
N1196 S1195 1.613 . S
N1196 C1199 1.350 . S
N1197 S1195 1.610 . S
N1197 C1198 1.351 . S
C1198 C1192 1.428 . S
C1198 N1197 1.351 . S
C1198 C1199 1.434 . S
C1199 C1190 1.429 . S
C1199 N1196 1.350 . S
C1199 C1198 1.434 . S
C849 C29 1.838 . S
C851 C135 1.844 . S
C860 C188 1.841 . S
C862 C82 1.843 . S
C871 C241 1.841 . S
C873 C347 1.841 . S
C882 C400 1.842 . S
C884 C294 1.842 . S
C893 C453 1.830 . S
C895 C559 1.835 . S
C904 C612 1.828 . S
C906 C506 1.835 . S
C915 C665 1.828 . S
C917 C771 1.836 . S
C926 C824 1.828 . S
C928 C718 1.836 . S
C937 C250 1.891 . S
C939 C38 1.897 . S
C948 C91 1.896 . S
C950 C303 1.891 . S
C959 C144 1.891 . S
C961 C356 1.896 . S
C970 C409 1.891 . S
C972 C197 1.895 . S
C981 C462 1.882 . S
C983 C674 1.883 . S
C992 C515 1.886 . S
C994 C727 1.883 . S
C1003 C568 1.887 . S
C1005 C780 1.880 . S
C1014 C621 1.887 . S
C1016 C833 1.881 . S
C1025 C569 1.802 . S
C1027 C39 1.798 . S
C1036 C622 1.806 . S
C1038 C92 1.801 . S
C1047 C145 1.800 . S
C1049 C463 1.804 . S
C1058 C198 1.798 . S
C1060 C516 1.802 . S
C1069 C251 1.802 . S
C1071 C781 1.805 . S
C1080 C304 1.801 . S
C1082 C834 1.805 . S
C1091 C357 1.802 . S
C1093 C675 1.806 . S
C1102 C728 1.806 . S
C1104 C410 1.802 . S
C1113 C22 1.655 . S
C1115 C817 1.657 . S
C1124 C658 1.656 . S
C1126 C75 1.654 . S
C1135 C128 1.655 . S
C1137 C711 1.657 . S
C1146 C764 1.655 . S
C1148 C181 1.652 . S
C1157 C499 1.657 . S
C1159 C234 1.655 . S
C1168 C287 1.655 . S
C1170 C552 1.657 . S
C1179 C605 1.657 . S
C1181 C340 1.654 . S
C1190 C446 1.657 . S
C1192 C393 1.654 . S
