# Generated by pormake.
# Topology lhb, (8)-cn, num edge types: 1
# Building blocks:
#     Node 0, Type 0, BuildingBlock: TAGTUT_clean_sbu_1, # of connection points: 8
#     Node 1, Type 0, BuildingBlock: TAGTUT_clean_sbu_1, # of connection points: 8
#     Node 2, Type 0, BuildingBlock: TAGTUT_clean_sbu_1, # of connection points: 8
#     Node 3, Type 0, BuildingBlock: TAGTUT_clean_sbu_1, # of connection points: 8
#     Node 4, Type 0, BuildingBlock: TAGTUT_clean_sbu_1, # of connection points: 8
#     Node 5, Type 0, BuildingBlock: TAGTUT_clean_sbu_1, # of connection points: 8
#     Node 6, Type 0, BuildingBlock: TAGTUT_clean_sbu_1, # of connection points: 8
#     Node 7, Type 0, BuildingBlock: TAGTUT_clean_sbu_1, # of connection points: 8
#     Edge 8, Type (0, 0), BuildingBlock: CIFDUS_clean_linker_0, # of connection points: 2
#     Edge 9, Type (0, 0), BuildingBlock: CIFDUS_clean_linker_0, # of connection points: 2
#     Edge 10, Type (0, 0), BuildingBlock: CIFDUS_clean_linker_0, # of connection points: 2
#     Edge 11, Type (0, 0), BuildingBlock: CIFDUS_clean_linker_0, # of connection points: 2
#     Edge 12, Type (0, 0), BuildingBlock: CIFDUS_clean_linker_0, # of connection points: 2
#     Edge 13, Type (0, 0), BuildingBlock: CIFDUS_clean_linker_0, # of connection points: 2
#     Edge 14, Type (0, 0), BuildingBlock: CIFDUS_clean_linker_0, # of connection points: 2
#     Edge 15, Type (0, 0), BuildingBlock: CIFDUS_clean_linker_0, # of connection points: 2
#     Edge 16, Type (0, 0), BuildingBlock: CIFDUS_clean_linker_0, # of connection points: 2
#     Edge 17, Type (0, 0), BuildingBlock: CIFDUS_clean_linker_0, # of connection points: 2
#     Edge 18, Type (0, 0), BuildingBlock: CIFDUS_clean_linker_0, # of connection points: 2
#     Edge 19, Type (0, 0), BuildingBlock: CIFDUS_clean_linker_0, # of connection points: 2
#     Edge 20, Type (0, 0), BuildingBlock: CIFDUS_clean_linker_0, # of connection points: 2
#     Edge 21, Type (0, 0), BuildingBlock: CIFDUS_clean_linker_0, # of connection points: 2
#     Edge 22, Type (0, 0), BuildingBlock: CIFDUS_clean_linker_0, # of connection points: 2
#     Edge 23, Type (0, 0), BuildingBlock: CIFDUS_clean_linker_0, # of connection points: 2
#     Edge 24, Type (0, 0), BuildingBlock: CIFDUS_clean_linker_0, # of connection points: 2
#     Edge 25, Type (0, 0), BuildingBlock: CIFDUS_clean_linker_0, # of connection points: 2
#     Edge 26, Type (0, 0), BuildingBlock: CIFDUS_clean_linker_0, # of connection points: 2
#     Edge 27, Type (0, 0), BuildingBlock: CIFDUS_clean_linker_0, # of connection points: 2
#     Edge 28, Type (0, 0), BuildingBlock: CIFDUS_clean_linker_0, # of connection points: 2
#     Edge 29, Type (0, 0), BuildingBlock: CIFDUS_clean_linker_0, # of connection points: 2
#     Edge 30, Type (0, 0), BuildingBlock: CIFDUS_clean_linker_0, # of connection points: 2
#     Edge 31, Type (0, 0), BuildingBlock: CIFDUS_clean_linker_0, # of connection points: 2
#     Edge 32, Type (0, 0), BuildingBlock: CIFDUS_clean_linker_0, # of connection points: 2
#     Edge 33, Type (0, 0), BuildingBlock: CIFDUS_clean_linker_0, # of connection points: 2
#     Edge 34, Type (0, 0), BuildingBlock: CIFDUS_clean_linker_0, # of connection points: 2
#     Edge 35, Type (0, 0), BuildingBlock: CIFDUS_clean_linker_0, # of connection points: 2
#     Edge 36, Type (0, 0), BuildingBlock: CIFDUS_clean_linker_0, # of connection points: 2
#     Edge 37, Type (0, 0), BuildingBlock: CIFDUS_clean_linker_0, # of connection points: 2
#     Edge 38, Type (0, 0), BuildingBlock: CIFDUS_clean_linker_0, # of connection points: 2
#     Edge 39, Type (0, 0), BuildingBlock: CIFDUS_clean_linker_0, # of connection points: 2
# Relax obj value: 0.062
# Max RMSD: 0.157
# Mean RMSD: 0.157
data_MOF--net-lhb--node1-TAGTUT_clean_sbu_1--edge1-CIFDUS_clean_linker_0
_symmetry_space_group_name_H-M    P1
_symmetry_Int_Tables_number       1
_symmetry_cell_setting            triclinic
loop_
_symmetry_equiv_pos_as_xyz
'x, y, z'
_cell_length_a     30.253061
_cell_length_b     13.063456
_cell_length_c     52.983324
_cell_angle_alpha  94.020681
_cell_angle_beta   89.271075
_cell_angle_gamma 89.980501
loop_
_atom_site_label
_atom_site_type_symbol
_atom_site_fract_x
_atom_site_fract_y
_atom_site_fract_z
_atom_type_partial_charge
C0 C 0.08083 0.04629 0.09349 0.0
C1 C 0.10862 0.14256 0.02134 0.0
C2 C 0.93873 0.22069 0.01396 0.0
Mg3 Mg 0.07399 0.94024 0.03918 0.0
O4 O 0.01679 -0.00953 0.04176 0.0
Mg5 Mg 0.00975 0.13974 0.05277 0.0
Mg6 Mg 0.98242 -0.00676 0.0096 0.0
O7 O 0.94903 -0.00125 0.97776 0.0
Mg8 Mg 0.89454 0.06275 0.97572 0.0
Mg9 Mg 0.95605 0.85719 0.96239 0.0
C10 C 0.0242 0.7689 1.00457 0.0
C11 C 0.05242 0.96532 0.96262 0.0
O12 O 0.05158 0.1119 0.08795 0.0
O13 O 0.09269 0.97056 0.07813 0.0
O14 O 0.07583 0.18888 0.03284 0.0
O15 O 0.11169 0.04515 0.01944 0.0
O16 O 0.05704 0.79597 0.01873 0.0
O17 O 0.99124 0.8275 1.00098 0.0
C18 C 0.91958 0.00347 0.05921 0.0
O19 O 0.92418 0.96683 0.03618 0.0
O20 O 0.94597 0.07161 0.06935 0.0
O21 O 0.92873 0.91936 0.9243 0.0
O22 O 0.89628 0.07079 0.93605 0.0
O23 O 0.88378 0.81257 0.97558 0.0
C24 C 0.91094 0.005 0.919 0.0
O25 O 0.84703 0.95764 0.98658 0.0
O26 O 0.90613 0.19877 0.99941 0.0
C27 C 0.84874 0.86026 0.9839 0.0
O28 O 0.97004 0.15765 0.01722 0.0
O29 O 0.04443 0.01222 0.98428 0.0
O30 O 0.02454 0.90513 0.95137 0.0
C31 C 0.37246 0.16497 0.1736 0.0
C32 C 0.42066 0.08036 0.2471 0.0
C33 C 0.24772 0.01279 0.2706 0.0
Mg34 Mg 0.37941 0.26768 0.2274 0.0
O35 O 0.32286 0.21336 0.22959 0.0
Mg36 Mg 0.31651 0.06401 0.22238 0.0
Mg37 Mg 0.28819 0.23295 0.26163 0.0
O38 O 0.2549 0.25492 0.29453 0.0
Mg39 Mg 0.20037 0.19967 0.30142 0.0
Mg40 Mg 0.2642 0.40459 0.29996 0.0
C41 C 0.33372 0.45322 0.25549 0.0
C42 C 0.35283 0.2708 0.30953 0.0
O43 O 0.34833 0.09241 0.1818 0.0
O44 O 0.38789 0.23774 0.18825 0.0
O45 O 0.38687 0.02899 0.23899 0.0
O46 O 0.42244 0.17725 0.24665 0.0
O47 O 0.36706 0.42001 0.24231 0.0
O48 O 0.302 0.39551 0.26185 0.0
C49 C 0.22284 0.17681 0.21452 0.0
O50 O 0.22733 0.23811 0.23447 0.0
O51 O 0.25127 0.10724 0.208 0.0
O52 O 0.22713 0.40358 0.33832 0.0
O53 O 0.19279 0.25218 0.34095 0.0
O54 O 0.19589 0.43543 0.28114 0.0
C55 C 0.20406 0.341 0.3506 0.0
O56 O 0.15781 0.28799 0.28042 0.0
O57 O 0.21699 0.04637 0.28603 0.0
C58 C 0.16129 0.38177 0.27549 0.0
O59 O 0.27736 0.07022 0.26157 0.0
O60 O 0.34626 0.2205 0.28825 0.0
O61 O 0.32855 0.348 0.31727 0.0
C62 C 0.86534 0.68456 0.17225 0.0
C63 C 0.92189 0.58292 0.24328 0.0
C64 C 0.74818 0.51681 0.27013 0.0
Mg65 Mg 0.87938 0.77605 0.22639 0.0
O66 O 0.82348 0.71993 0.23014 0.0
Mg67 Mg 0.81594 0.57175 0.22148 0.0
Mg68 Mg 0.78898 0.73819 0.26213 0.0
O69 O 0.7559 0.75821 0.29515 0.0
Mg70 Mg 0.70149 0.70276 0.30207 0.0
Mg71 Mg 0.76559 0.9074 0.30135 0.0
C72 C 0.8356 0.95866 0.25735 0.0
C73 C 0.85379 0.77081 0.31001 0.0
O74 O 0.84551 0.60588 0.18064 0.0
O75 O 0.88092 0.75722 0.18684 0.0
O76 O 0.88667 0.53323 0.23687 0.0
O77 O 0.92479 0.67941 0.24207 0.0
O78 O 0.86844 0.92561 0.24372 0.0
O79 O 0.80332 0.90147 0.26323 0.0
C80 C 0.72281 0.68825 0.21493 0.0
O81 O 0.72805 0.74798 0.23507 0.0
O82 O 0.75055 0.61778 0.20802 0.0
O83 O 0.7286 0.90396 0.33964 0.0
O84 O 0.69387 0.75288 0.34186 0.0
O85 O 0.69711 0.94113 0.28297 0.0
C86 C 0.7053 0.84124 0.35173 0.0
O87 O 0.65912 0.7934 0.28163 0.0
O88 O 0.71792 0.55033 0.2859 0.0
C89 C 0.66244 0.88778 0.27721 0.0
O90 O 0.77779 0.57435 0.26106 0.0
O91 O 0.84699 0.72226 0.28853 0.0
O92 O 0.82984 0.84797 0.31818 0.0
C93 C 0.05996 0.47566 0.60033 0.0
C94 C 0.10285 0.57534 0.52825 0.0
C95 C 0.93014 0.65579 0.51646 0.0
Mg96 Mg 0.0633 0.37482 0.54524 0.0
O97 O 0.00703 0.43009 0.54422 0.0
Mg98 Mg 0.99939 0.57799 0.55553 0.0
Mg99 Mg 0.97376 0.43131 0.51161 0.0
O100 O 0.94013 0.43532 0.47982 0.0
Mg101 Mg 0.88384 0.49431 0.48001 0.0
Mg102 Mg 0.9455 0.2908 0.46619 0.0
C103 C 0.01317 0.20668 0.50928 0.0
C104 C 0.04341 0.39381 0.46501 0.0
O105 O 0.03564 0.54696 0.59244 0.0
O106 O 0.07252 0.39782 0.58583 0.0
O107 O 0.06863 0.62332 0.53776 0.0
O108 O 0.1058 0.47792 0.52756 0.0
O109 O 0.04555 0.23305 0.52388 0.0
O110 O 0.98143 0.26688 0.50462 0.0
C111 C 0.9075 0.4453 0.55951 0.0
O112 O 0.91431 0.40856 0.53677 0.0
O113 O 0.93325 0.51275 0.5705 0.0
O114 O 0.91706 0.35158 0.42806 0.0
O115 O 0.88211 0.49969 0.44037 0.0
O116 O 0.87366 0.24687 0.48103 0.0
C117 C 0.89763 0.43589 0.4231 0.0
O118 O 0.83714 0.39056 0.49308 0.0
O119 O 0.8964 0.632 0.50296 0.0
C120 C 0.83906 0.29328 0.49044 0.0
O121 O 0.96268 0.59501 0.51863 0.0
O122 O 0.03651 0.44431 0.48639 0.0
O123 O 0.01432 0.33483 0.45439 0.0
C124 C 0.34886 0.62285 0.66927 0.0
C125 C 0.40971 0.57331 0.74287 0.0
C126 C 0.24457 0.50924 0.77688 0.0
Mg127 Mg 0.3633 0.74796 0.71967 0.0
O128 O 0.30766 0.6903 0.72529 0.0
Mg129 Mg 0.30309 0.53895 0.72337 0.0
Mg130 Mg 0.27663 0.72467 0.75783 0.0
O131 O 0.24677 0.7624 0.79115 0.0
Mg132 Mg 0.19401 0.7065 0.80172 0.0
Mg133 Mg 0.25331 0.91344 0.79068 0.0
C134 C 0.315 0.94206 0.7423 0.0
C135 C 0.34618 0.79779 0.80119 0.0
O136 O 0.32807 0.55193 0.68048 0.0
O137 O 0.36582 0.7012 0.6812 0.0
O138 O 0.3752 0.51911 0.73788 0.0
O139 O 0.41137 0.66821 0.73903 0.0
O140 O 0.34907 0.90623 0.73015 0.0
O141 O 0.28514 0.88539 0.75123 0.0
C142 C 0.20461 0.63112 0.71724 0.0
O143 O 0.21193 0.70534 0.73396 0.0
O144 O 0.23387 0.56311 0.71104 0.0
O145 O 0.22159 0.93065 0.83053 0.0
O146 O 0.19064 0.7809 0.83966 0.0
O147 O 0.18286 0.92666 0.77417 0.0
C148 C 0.20151 0.87418 0.84584 0.0
O149 O 0.14642 0.78008 0.77953 0.0
O150 O 0.21356 0.54712 0.7916 0.0
C151 C 0.14829 0.87008 0.77155 0.0
O152 O 0.27111 0.56358 0.76447 0.0
O153 O 0.33853 0.73605 0.78186 0.0
O154 O 0.32096 0.87527 0.80717 0.0
C155 C 0.84582 0.12842 0.66863 0.0
C156 C 0.90731 0.06829 0.74117 0.0
C157 C 0.74322 0.00941 0.77692 0.0
Mg158 Mg 0.8623 0.24882 0.71944 0.0
O159 O 0.80618 0.19474 0.72531 0.0
Mg160 Mg 0.80018 0.04342 0.7224 0.0
Mg161 Mg 0.77636 0.22769 0.75832 0.0
O162 O 0.74797 0.26339 0.79217 0.0
Mg163 Mg 0.69544 0.20827 0.80324 0.0
Mg164 Mg 0.75547 0.41443 0.79251 0.0
C165 C 0.81788 0.44562 0.7438 0.0
C166 C 0.8478 0.29358 0.80124 0.0
O167 O 0.82449 0.05788 0.67961 0.0
O168 O 0.86372 0.20498 0.68079 0.0
O169 O 0.87218 0.01637 0.73614 0.0
O170 O 0.9096 0.16383 0.73806 0.0
O171 O 0.84996 0.40754 0.73027 0.0
O172 O 0.78728 0.39125 0.75301 0.0
C173 C 0.70251 0.14179 0.71783 0.0
O174 O 0.71069 0.21423 0.73491 0.0
O175 O 0.73121 0.07346 0.7109 0.0
O176 O 0.72364 0.43014 0.83235 0.0
O177 O 0.69192 0.28132 0.84136 0.0
O178 O 0.68533 0.43201 0.77607 0.0
C179 C 0.70299 0.37441 0.84758 0.0
O180 O 0.64848 0.28556 0.78142 0.0
O181 O 0.7145 0.04825 0.79303 0.0
C182 C 0.65056 0.3759 0.7736 0.0
O183 O 0.76877 0.06365 0.76373 0.0
O184 O 0.83892 0.23369 0.78175 0.0
O185 O 0.82312 0.37106 0.8082 0.0
C186 C 0.55798 -0.0213 0.60205 0.0
C187 C 0.60232 0.07651 0.53012 0.0
C188 C 0.42985 0.15702 0.51724 0.0
Mg189 Mg 0.5626 0.87588 0.54714 0.0
O190 O 0.50649 0.93123 0.54535 0.0
Mg191 Mg 0.49834 0.07901 0.55664 0.0
Mg192 Mg 0.47392 0.93254 0.51247 0.0
O193 O 0.44094 0.93705 0.48046 0.0
Mg194 Mg 0.38473 -0.00373 0.48015 0.0
Mg195 Mg 0.44683 0.7932 0.46648 0.0
C196 C 0.51335 0.70788 0.51043 0.0
C197 C 0.54463 0.89687 0.46621 0.0
O198 O 0.53387 0.04933 0.59372 0.0
O199 O 0.57079 0.90004 0.58791 0.0
O200 O 0.56786 0.12474 0.53925 0.0
O201 O 0.60535 -0.02086 0.52972 0.0
O202 O 0.54507 0.73424 0.52552 0.0
O203 O 0.48194 0.7682 0.50525 0.0
C204 C 0.40703 0.94357 0.56015 0.0
O205 O 0.41411 0.90795 0.53733 0.0
O206 O 0.43227 0.01172 0.57128 0.0
O207 O 0.41922 0.85563 0.42819 0.0
O208 O 0.38412 0.00343 0.44056 0.0
O209 O 0.37465 0.74841 0.48061 0.0
C210 C 0.39999 0.94027 0.42326 0.0
O211 O 0.33767 0.89171 0.49246 0.0
O212 O 0.39646 0.13349 0.50345 0.0
C213 C 0.33974 0.79445 0.48971 0.0
O214 O 0.46228 0.0961 0.51961 0.0
O215 O 0.53725 0.94672 0.48764 0.0
O216 O 0.51581 0.83806 0.45529 0.0
C217 C 0.58646 0.5702 0.09164 0.0
C218 C 0.60903 0.6557 0.01772 0.0
C219 C 0.43594 0.73274 0.01563 0.0
Mg220 Mg 0.57611 0.45734 0.03814 0.0
O221 O 0.51924 0.50909 0.04174 0.0
Mg222 Mg 0.51245 0.6587 0.05191 0.0
Mg223 Mg 0.48091 0.50767 0.01101 0.0
O224 O 0.44398 0.50925 0.98034 0.0
Mg225 Mg 0.38933 0.57332 0.97866 0.0
Mg226 Mg 0.45174 0.36845 0.96472 0.0
C227 C 0.52184 0.28313 1.0068 0.0
C228 C 0.5474 0.47838 0.96221 0.0
O229 O 0.55714 0.63535 0.08601 0.0
O230 O 0.59777 0.49297 0.07659 0.0
O231 O 0.57712 0.70346 0.02977 0.0
O232 O 0.61192 0.55828 0.01631 0.0
O233 O 0.55612 0.31113 0.01968 0.0
O234 O 0.48972 0.34331 1.00283 0.0
C235 C 0.42825 0.51264 0.06406 0.0
O236 O 0.42672 0.47881 0.04067 0.0
O237 O 0.45223 0.59052 0.07133 0.0
O238 O 0.4221 0.42935 0.92693 0.0
O239 O 0.39016 0.58113 0.93888 0.0
O240 O 0.3807 0.32289 0.97942 0.0
C241 C 0.40424 0.51506 0.92171 0.0
O242 O 0.34243 0.46638 0.98996 0.0
O243 O 0.40206 0.71011 1.00213 0.0
C244 C 0.34529 0.36898 0.98777 0.0
O245 O 0.46792 0.67045 0.01794 0.0
O246 O 0.5403 0.52731 0.9837 0.0
O247 O 0.51923 0.41635 0.95196 0.0
H248 H 0.0594 0.11059 0.14302 0.0
H249 H 0.16846 0.05251 0.09055 0.0
H250 H 0.2204 0.11416 0.1226 0.0
H251 H 0.23593 0.17224 0.16541 0.0
H252 H 0.13188 0.2029 0.22167 0.0
H253 H 0.07638 0.16993 0.18823 0.0
C254 C 0.09459 0.11067 0.1389 0.0
C255 C 0.11032 0.07493 0.11467 0.0
C256 C 0.12485 0.14331 0.1579 0.0
C257 C 0.1558 0.07672 0.10926 0.0
C258 C 0.18547 0.11329 0.12744 0.0
C259 C 0.20097 0.17299 0.17039 0.0
C260 C 0.18787 0.18886 0.19585 0.0
C261 C 0.17042 0.14533 0.15177 0.0
C262 C 0.14263 0.19141 0.2021 0.0
C263 C 0.11113 0.17066 0.18304 0.0
H264 H 0.91841 0.79966 0.0639 0.0
H265 H 0.85993 0.08426 0.09398 0.0
H266 H 0.82812 -0.0027 0.12941 0.0
H267 H 0.82947 0.85104 0.15547 0.0
H268 H 0.89825 0.5739 0.12958 0.0
H269 H 0.91271 0.64519 0.08844 0.0
C270 C 0.89734 0.84149 0.07779 0.0
C271 C 0.89094 0.94796 0.07633 0.0
C272 C 0.8817 0.7922 0.09894 0.0
C273 C 0.86479 0.00234 0.09469 0.0
C274 C 0.84696 0.95269 0.11498 0.0
C275 C 0.84658 0.80513 0.1405 0.0
C276 C 0.86302 0.70775 0.14543 0.0
C277 C 0.857 0.84916 0.11785 0.0
C278 C 0.88506 0.64861 0.12608 0.0
C279 C 0.89374 0.69012 0.10275 0.0
H280 H 0.08325 0.53649 0.43757 0.0
H281 H 0.0992 0.23548 0.46452 0.0
H282 H 0.15619 0.19409 0.43239 0.0
H283 H 0.18988 0.23173 0.39163 0.0
H284 H 0.17524 0.53351 0.3647 0.0
H285 H 0.12987 0.58705 0.40178 0.0
C286 C 0.10081 0.46394 0.43706 0.0
C287 C 0.08743 0.38902 0.45321 0.0
C288 C 0.13286 0.43981 0.41809 0.0
C289 C 0.10956 0.29433 0.45226 0.0
C290 C 0.14166 0.27016 0.43371 0.0
C291 C 0.17755 0.30981 0.39425 0.0
C292 C 0.18504 0.37791 0.37535 0.0
C293 C 0.15175 0.34026 0.41568 0.0
C294 C 0.16962 0.4795 0.37902 0.0
C295 C 0.14352 0.51011 0.40016 0.0
H296 H 0.86543 0.56601 0.31285 0.0
H297 H 0.89886 0.86011 0.34995 0.0
H298 H 0.92158 0.77584 0.38743 0.0
H299 H 0.91936 0.62478 0.41182 0.0
H300 H 0.8802 0.33142 0.37692 0.0
H301 H 0.87234 0.40897 0.33612 0.0
C302 C 0.87919 0.61136 0.3288 0.0
C303 C 0.88045 0.71956 0.32867 0.0
C304 C 0.88991 0.5627 0.3508 0.0
C305 C 0.89768 0.77713 0.3496 0.0
C306 C 0.9102 0.72897 0.3711 0.0
C307 C 0.90951 0.57737 0.39519 0.0
C308 C 0.89931 0.47315 0.39738 0.0
C309 C 0.90432 0.62281 0.37229 0.0
C310 C 0.8878 0.41193 0.37567 0.0
C311 C 0.88321 0.4565 0.35245 0.0
H312 H 0.06927 0.65293 0.6303 0.0
H313 H 0.08895 0.32511 0.62903 0.0
H314 H 0.12722 0.34567 0.66928 0.0
H315 H 0.16492 0.457 0.70073 0.0
H316 H 0.15276 0.78564 0.70048 0.0
H317 H 0.10009 0.76481 0.66554 0.0
C318 C 0.08117 0.58586 0.63911 0.0
C319 C 0.07685 0.48757 0.62649 0.0
C320 C 0.10446 0.59862 0.66194 0.0
C321 C 0.09244 0.40152 0.63813 0.0
C322 C 0.11423 0.41323 0.66117 0.0
C323 C 0.14992 0.5242 0.69341 0.0
C324 C 0.16319 0.62271 0.70278 0.0
C325 C 0.12189 0.51149 0.67266 0.0
C326 C 0.14306 0.70907 0.69353 0.0
C327 C 0.11347 0.697 0.67333 0.0
H328 H 0.80225 0.278 0.64921 0.0
H329 H 0.88393 0.01517 0.62812 0.0
H330 H 0.90209 0.0871 0.58759 0.0
H331 H 0.90893 0.24269 0.56396 0.0
H332 H 0.84139 0.51995 0.59135 0.0
H333 H 0.80341 0.42625 0.62378 0.0
C334 C 0.82258 0.23463 0.63519 0.0
C335 C 0.84159 0.14135 0.64141 0.0
C336 C 0.83645 0.28157 0.61352 0.0
C337 C 0.86842 0.08613 0.62352 0.0
C338 C 0.87945 0.12852 0.60064 0.0
C339 C 0.88481 0.28154 0.5766 0.0
C340 C 0.87748 0.38771 0.57534 0.0
C341 C 0.86587 0.22892 0.59626 0.0
C342 C 0.84719 0.43836 0.59204 0.0
C343 C 0.82571 0.38477 0.61054 0.0
H344 H 0.19872 0.79419 0.89184 0.0
H345 H 0.16623 0.06409 0.85348 0.0
H346 H 0.12344 0.13231 0.89027 0.0
H347 H 0.08327 0.09677 0.92951 0.0
H348 H 0.11708 0.8294 0.96825 0.0
H349 H 0.17267 0.78031 0.93578 0.0
C350 C 0.18316 0.86905 0.89189 0.0
C351 C 0.18469 0.92314 0.86994 0.0
C352 C 0.15899 0.90835 0.91321 0.0
C353 C 0.16516 0.02086 0.8702 0.0
C354 C 0.14057 0.0598 0.89119 0.0
C355 C 0.10456 0.031 0.93144 0.0
C356 C 0.09651 0.96672 0.95106 0.0
C357 C 0.13564 0.00204 0.91234 0.0
C358 C 0.12341 0.88041 0.95333 0.0
C359 C 0.15461 0.85142 0.93455 0.0
H360 H 0.87156 0.09569 0.80667 0.0
H361 H 0.89049 0.40516 0.83897 0.0
H362 H 0.91801 0.3385 0.87771 0.0
H363 H 0.9229 0.19564 0.90475 0.0
H364 H 0.89879 0.88612 0.87437 0.0
H365 H 0.88704 0.94941 0.8323 0.0
C366 C 0.88316 0.14871 0.82183 0.0
C367 C 0.8785 0.25566 0.82004 0.0
C368 C 0.89668 0.10975 0.84458 0.0
C369 C 0.89354 0.32287 0.83991 0.0
C370 C 0.90879 0.2847 0.86217 0.0
C371 C 0.91543 0.14167 0.88887 0.0
C372 C 0.91043 0.03667 0.89272 0.0
C373 C 0.9081 0.17879 0.86514 0.0
C374 C 0.90221 0.96735 0.87189 0.0
C375 C 0.89543 0.0037 0.84791 0.0
H376 H 0.66028 0.96878 0.70358 0.0
H377 H 0.65203 0.29678 0.70012 0.0
H378 H 0.59934 0.27368 0.66522 0.0
H379 H 0.56813 0.15865 0.63073 0.0
H380 H 0.58503 0.83085 0.63219 0.0
H381 H 0.62225 0.85509 0.67275 0.0
C382 C 0.646 0.03543 0.69561 0.0
C383 C 0.66041 0.13426 0.70404 0.0
C384 C 0.61828 0.02112 0.67475 0.0
C385 C 0.64135 0.22004 0.69393 0.0
C386 C 0.61182 0.20656 0.67372 0.0
C387 C 0.57917 0.09244 0.64019 0.0
C388 C 0.57437 -0.00706 0.62829 0.0
C389 C 0.60199 0.10729 0.66314 0.0
C390 C 0.58891 0.90805 0.64075 0.0
C391 C 0.61008 0.9219 0.66396 0.0
H392 H 0.41274 0.74177 0.56517 0.0
H393 H 0.33866 0.01141 0.5913 0.0
H394 H 0.3017 0.91424 0.62346 0.0
H395 H 0.3026 0.76633 0.64907 0.0
H396 H 0.39026 0.51288 0.62934 0.0
H397 H 0.40834 0.58613 0.58897 0.0
C398 C 0.38748 0.7781 0.57748 0.0
C399 C 0.37794 0.88319 0.57591 0.0
C400 C 0.36899 0.72376 0.597 0.0
C401 C 0.34616 0.93066 0.59221 0.0
C402 C 0.32525 0.87508 0.61056 0.0
C403 C 0.32422 0.72503 0.63535 0.0
C404 C 0.34483 0.63404 0.64194 0.0
C405 C 0.33794 0.77326 0.61381 0.0
C406 C 0.37343 0.58182 0.62445 0.0
C407 C 0.38443 0.62511 0.60167 0.0
H408 H 0.58008 0.60426 0.92802 0.0
H409 H 0.61043 0.33981 0.96872 0.0
H410 H 0.66729 0.28661 0.93736 0.0
H411 H 0.69639 0.297 0.89389 0.0
H412 H 0.6682 0.56516 0.85386 0.0
H413 H 0.623 0.63603 0.88937 0.0
C414 C 0.60079 0.53806 0.93059 0.0
C415 C 0.59147 0.47594 0.95048 0.0
C416 C 0.6329 0.50705 0.91221 0.0
C417 C 0.61769 0.38914 0.95358 0.0
C418 C 0.64968 0.35787 0.93546 0.0
C419 C 0.68125 0.37208 0.89331 0.0
C420 C 0.6848 0.4249 0.87122 0.0
C421 C 0.65572 0.4131 0.91395 0.0
C422 C 0.66569 0.52287 0.8707 0.0
C423 C 0.63967 0.56333 0.89095 0.0
H424 H 0.41316 0.7068 0.90728 0.0
H425 H 0.39455 0.39498 0.87697 0.0
H426 H 0.38455 0.45629 0.83454 0.0
H427 H 0.37018 0.60074 0.80803 0.0
H428 H 0.38483 0.9121 0.83997 0.0
H429 H 0.40899 0.84826 0.87975 0.0
C430 C 0.40711 0.65186 0.89138 0.0
C431 C 0.40329 0.54663 0.89536 0.0
C432 C 0.40111 0.68774 0.86736 0.0
C433 C 0.39698 0.47636 0.87445 0.0
C434 C 0.39126 0.51156 0.85024 0.0
C435 C 0.38011 0.65486 0.82338 0.0
C436 C 0.37526 0.76153 0.82107 0.0
C437 C 0.39186 0.61745 0.84666 0.0
C438 C 0.38811 0.83003 0.84124 0.0
C439 C 0.4014 0.79345 0.86409 0.0
H440 H 0.56303 0.6252 0.14118 0.0
H441 H 0.67411 0.58496 0.08947 0.0
H442 H 0.7243 0.64634 0.12265 0.0
H443 H 0.73775 0.69775 0.16627 0.0
H444 H 0.63159 0.70838 0.22133 0.0
H445 H 0.57768 0.67811 0.18695 0.0
C446 C 0.59829 0.62928 0.13745 0.0
C447 C 0.6152 0.59882 0.11313 0.0
C448 C 0.62743 0.66143 0.15704 0.0
C449 C 0.66069 0.60541 0.10822 0.0
C450 C 0.68928 0.64175 0.12706 0.0
C451 C 0.70262 0.69521 0.17076 0.0
C452 C 0.6885 0.70464 0.19615 0.0
C453 C 0.67309 0.66848 0.15149 0.0
C454 C 0.6431 0.70225 0.20183 0.0
C455 C 0.61254 0.68289 0.18222 0.0
H456 H 0.44733 0.2157 0.15106 0.0
H457 H 0.30988 0.15757 0.13618 0.0
H458 H 0.31463 0.25742 0.09855 0.0
H459 H 0.35595 0.38749 0.07423 0.0
H460 H 0.49051 0.4586 0.09545 0.0
H461 H 0.48862 0.33084 0.12622 0.0
C462 C 0.41881 0.22169 0.139 0.0
C463 C 0.37849 0.17926 0.14633 0.0
C464 C 0.42084 0.28622 0.11904 0.0
C465 C 0.3416 0.18809 0.13071 0.0
C466 C 0.34409 0.24753 0.10954 0.0
C467 C 0.38452 0.37506 0.08577 0.0
C468 C 0.42271 0.43568 0.08316 0.0
C469 C 0.38302 0.30178 0.10432 0.0
C470 C 0.46002 0.41648 0.09773 0.0
C471 C 0.45933 0.34207 0.11515 0.0
H472 H 0.58393 0.03863 0.4383 0.0
H473 H 0.60131 0.74032 0.46651 0.0
H474 H 0.65805 0.69774 0.43429 0.0
H475 H 0.69121 0.73321 0.39314 0.0
H476 H 0.67547 0.03304 0.36526 0.0
H477 H 0.63007 0.0877 0.40221 0.0
C478 C 0.60178 0.96652 0.43806 0.0
C479 C 0.58886 0.89267 0.45461 0.0
C480 C 0.63372 0.9417 0.41906 0.0
C481 C 0.61135 0.79847 0.45398 0.0
C482 C 0.64328 0.77354 0.43535 0.0
C483 C 0.67861 0.81111 0.39552 0.0
C484 C 0.68588 0.87834 0.37639 0.0
C485 C 0.65291 0.84243 0.41695 0.0
C486 C 0.67007 -0.02029 0.37976 0.0
C487 C 0.64397 0.011 0.40083 0.0
H488 H 0.41831 0.13156 0.41209 0.0
H489 H 0.3857 0.83423 0.37685 0.0
H490 H 0.37739 0.9108 0.33596 0.0
H491 H 0.36807 0.06695 0.31257 0.0
H492 H 0.39536 0.36426 0.34991 0.0
H493 H 0.41846 0.28251 0.38765 0.0
C494 C 0.40974 0.08307 0.39539 0.0
C495 C 0.40149 -0.02215 0.39753 0.0
C496 C 0.40432 0.12785 0.37241 0.0
C497 C 0.39173 0.91548 0.37569 0.0
C498 C 0.38688 0.95949 0.3524 0.0
C499 C 0.38054 0.11373 0.32865 0.0
C500 C 0.37986 0.22198 0.32847 0.0
C501 C 0.39159 0.06627 0.35079 0.0
C502 C 0.39559 0.28123 0.34957 0.0
C503 C 0.40834 0.23448 0.37123 0.0
H504 H 0.03828 0.62622 0.03644 0.0
H505 H 0.98997 0.67581 0.96197 0.0
H506 H 0.95093 0.51182 0.96075 0.0
H507 H 0.92752 0.3634 0.98205 0.0
H508 H 0.97557 0.31214 0.05649 0.0
H509 H 0.01588 0.47487 0.05753 0.0
C510 C 0.02051 0.5991 0.0196 0.0
C511 C 0.01672 0.66096 0.99925 0.0
C512 C 0.99637 0.50911 0.01976 0.0
C513 C 0.99316 0.62752 0.97766 0.0
C514 C 0.97025 0.53561 0.97723 0.0
C515 C 0.94568 0.38942 0.99886 0.0
C516 C 0.94873 0.32773 0.01927 0.0
C517 C 0.9704 0.47828 0.99858 0.0
C518 C 0.97299 0.35998 0.04071 0.0
C519 C 0.99651 0.45133 0.04106 0.0
H520 H 0.26286 0.54718 0.27678 0.0
H521 H 0.39038 0.60405 0.24278 0.0
H522 H 0.37074 0.78404 0.24086 0.0
H523 H 0.31813 0.91957 0.24883 0.0
H524 H 0.19085 0.86247 0.28324 0.0
H525 H 0.2099 0.68163 0.28447 0.0
C526 C 0.28706 0.59848 0.26963 0.0
C527 C 0.32784 0.56265 0.25998 0.0
C528 C 0.27536 0.69941 0.26812 0.0
C529 C 0.3587 0.63057 0.25044 0.0
C530 C 0.34745 0.73271 0.24913 0.0
C531 C 0.29401 0.86787 0.25612 0.0
C532 C 0.25341 0.90359 0.26609 0.0
C533 C 0.30564 0.76681 0.25757 0.0
C534 C 0.22249 0.83576 0.27555 0.0
C535 C 0.23348 0.73333 0.27651 0.0
H536 H 0.76668 0.05456 0.28065 0.0
H537 H 0.89174 0.10875 0.24352 0.0
H538 H 0.87101 0.2872 0.24021 0.0
H539 H 0.81751 0.42219 0.24719 0.0
H540 H 0.69257 0.36702 0.2845 0.0
H541 H 0.71314 0.18818 0.28757 0.0
C542 C 0.79017 0.10505 0.27251 0.0
C543 C 0.83037 0.0684 0.26221 0.0
C544 C 0.77769 0.20505 0.27004 0.0
C545 C 0.86043 0.13564 0.25163 0.0
C546 C 0.84851 0.23697 0.24948 0.0
C547 C 0.79427 0.37117 0.25557 0.0
C548 C 0.75397 0.40731 0.26589 0.0
C549 C 0.80686 0.27119 0.25814 0.0
C550 C 0.72402 0.3402 0.27654 0.0
C551 C 0.73591 0.23891 0.27861 0.0
H552 H 0.00875 0.74419 0.52009 0.0
H553 H 0.8685 0.80652 0.52561 0.0
H554 H 0.88263 -0.01231 0.51968 0.0
H555 H 0.93406 0.11991 0.50921 0.0
H556 H 0.074 0.05479 0.50206 0.0
H557 H 0.05986 0.87536 0.50968 0.0
C558 C 0.98125 0.79757 0.52076 0.0
C559 C 0.9377 0.76325 0.52302 0.0
C560 C 0.98925 0.89751 0.51533 0.0
C561 C 0.90232 0.83268 0.52384 0.0
C562 C 0.91027 0.93489 0.51988 0.0
C563 C 0.96142 0.06594 0.50864 0.0
C564 C 0.00496 0.09865 0.50504 0.0
C565 C 0.95341 0.96638 0.5145 0.0
C566 C 0.04025 0.02935 0.50465 0.0
C567 C 0.03233 0.92834 0.50962 0.0
H568 H 0.23948 0.03901 0.75371 0.0
H569 H 0.37902 0.08894 0.74149 0.0
H570 H 0.36872 0.27218 0.75245 0.0
H571 H 0.3206 0.41364 0.76685 0.0
H572 H 0.1813 0.36244 0.77965 0.0
H573 H 0.19176 0.17853 0.76916 0.0
C574 C 0.26787 0.08948 0.75406 0.0
C575 C 0.31001 0.05149 0.74748 0.0
C576 C 0.26196 0.19225 0.7611 0.0
C577 C 0.34631 0.11757 0.74671 0.0
C578 C 0.34054 0.22149 0.75321 0.0
C579 C 0.29251 0.36211 0.76713 0.0
C580 C 0.25021 0.39973 0.77344 0.0
C581 C 0.29861 0.25887 0.76063 0.0
C582 C 0.21408 0.33349 0.77472 0.0
C583 C 0.21997 0.22941 0.76852 0.0
H584 H 0.79867 0.5571 0.78685 0.0
H585 H 0.82644 0.57799 0.70739 0.0
H586 H 0.80047 0.75579 0.71024 0.0
H587 H 0.76435 0.89679 0.73459 0.0
H588 H 0.73687 0.87778 0.81417 0.0
H589 H 0.76347 0.70024 0.81151 0.0
C590 C 0.79841 0.60041 0.77019 0.0
C591 C 0.81308 0.55562 0.74689 0.0
C592 C 0.78178 0.69961 0.77178 0.0
C593 C 0.81528 0.61274 0.72553 0.0
C594 C 0.79974 0.71297 0.72704 0.0
C595 C 0.76479 0.85423 0.75137 0.0
C596 C 0.74977 0.89944 0.77455 0.0
C597 C 0.78192 0.75571 0.74992 0.0
C598 C 0.7482 0.84296 0.79607 0.0
C599 C 0.7641 0.74283 0.79467 0.0
H600 H 0.43419 0.62135 0.51011 0.0
H601 H 0.57416 0.55582 0.50373 0.0
H602 H 0.55978 0.37656 0.51144 0.0
H603 H 0.50841 0.24541 0.5215 0.0
H604 H 0.36813 0.30785 0.5261 0.0
H605 H 0.38246 0.48907 0.52031 0.0
C606 C 0.4615 0.56727 0.50971 0.0
C607 C 0.5051 0.59982 0.50626 0.0
C608 C 0.45332 0.46772 0.51558 0.0
C609 C 0.54035 0.53047 0.50616 0.0
C610 C 0.53229 0.42955 0.51118 0.0
C611 C 0.48094 0.29882 0.52201 0.0
C612 C 0.43733 0.26448 0.52396 0.0
C613 C 0.4891 0.3988 0.51663 0.0
C614 C 0.40198 0.33399 0.52457 0.0
C615 C 0.41007 0.43624 0.52069 0.0
H616 H 0.51496 0.81862 0.01734 0.0
H617 H 0.37557 0.88568 0.02588 0.0
H618 H 0.39048 0.0671 0.02051 0.0
H619 H 0.44227 0.19869 0.00976 0.0
H620 H 0.58131 0.12826 0.99944 0.0
H621 H 0.56642 0.94901 1.00691 0.0
C622 C 0.48794 0.8731 0.01895 0.0
C623 C 0.44436 0.84012 0.02203 0.0
C624 C 0.49633 0.97347 0.01398 0.0
C625 C 0.40944 0.91082 0.02364 0.0
C626 C 0.41783 0.01328 0.02004 0.0
C627 C 0.46928 0.14374 1.00859 0.0
C628 C 0.51277 0.17488 1.00393 0.0
C629 C 0.46092 0.04387 0.01418 0.0
C630 C 0.5476 0.10423 1.00283 0.0
C631 C 0.53929 0.00318 1.00765 0.0
H632 H 0.26467 0.44621 1.00177 0.0
H633 H 0.33432 0.15959 0.98568 0.0
H634 H 0.26578 0.06541 0.99248 0.0
H635 H 0.18711 0.06501 1.0035 0.0
H636 H 0.11804 0.35161 0.02081 0.0
H637 H 0.18581 0.44587 0.0122 0.0
C638 C 0.26517 0.36302 0.99981 0.0
C639 C 0.30484 0.31006 0.99328 0.0
C640 C 0.22575 0.3097 1.00359 0.0
C641 C 0.30445 0.20234 0.99076 0.0
C642 C 0.26522 0.14854 0.99453 0.0
C643 C 0.18651 0.14822 1.0052 0.0
C644 C 0.14736 0.20117 0.01287 0.0
C645 C 0.22575 0.20157 1.00091 0.0
C646 C 0.14756 0.3089 0.01493 0.0
C647 C 0.18638 0.36273 0.01018 0.0
H648 H 0.77285 0.94098 1.00422 0.0
H649 H 0.83045 0.655 0.97377 0.0
H650 H 0.75904 0.56961 0.97865 0.0
H651 H 0.6812 0.57655 0.99217 0.0
H652 H 0.62567 0.86159 0.02467 0.0
H653 H 0.69536 0.94862 0.01701 0.0
C654 C 0.7701 0.85979 0.99863 0.0
C655 C 0.80718 0.80439 0.98868 0.0
C656 C 0.72913 0.81186 1.00126 0.0
C657 C 0.80266 0.69929 0.98166 0.0
C658 C 0.76176 0.65075 0.98425 0.0
C659 C 0.68402 0.65809 0.99735 0.0
C660 C 0.64789 0.71268 0.00885 0.0
C661 C 0.72482 0.70649 0.99399 0.0
C662 C 0.6524 0.81814 0.01535 0.0
C663 C 0.69253 0.86754 0.01136 0.0
H664 H 0.0799 0.29759 0.26964 0.0
H665 H 0.15294 0.57691 0.26008 0.0
H666 H 0.08456 0.66304 0.24955 0.0
H667 H 0.00459 0.66052 0.24497 0.0
H668 H 0.93101 0.38348 0.25582 0.0
H669 H 0.99985 0.29429 0.2643 0.0
C670 C 0.08117 0.37713 0.26503 0.0
C671 C 0.12159 0.43106 0.26582 0.0
C672 C 0.04176 0.42647 0.25958 0.0
C673 C 0.12235 0.53388 0.25974 0.0
C674 C 0.08326 0.58316 0.25384 0.0
C675 C 0.00331 0.58069 0.24935 0.0
C676 C 0.96254 0.52849 0.2498 0.0
C677 C 0.0428 0.53057 0.25416 0.0
C678 C 0.96186 0.42498 0.25522 0.0
C679 C 0.0012 0.37421 0.26005 0.0
H680 H 0.26134 0.87317 0.50757 0.0
H681 H 0.3262 0.58525 0.48565 0.0
H682 H 0.25754 0.49347 0.49406 0.0
H683 H 0.17965 0.49548 0.5078 0.0
H684 H 0.11607 0.78363 0.53096 0.0
H685 H 0.18383 0.87531 0.52111 0.0
C686 C 0.26078 0.7902 0.50463 0.0
C687 C 0.29919 0.7363 0.49596 0.0
C688 C 0.22127 0.73825 0.50937 0.0
C689 C 0.29737 0.62882 0.49233 0.0
C690 C 0.25803 0.57639 0.49705 0.0
C691 C 0.18032 0.57849 0.51058 0.0
C692 C 0.14238 0.6326 0.51998 0.0
C693 C 0.21979 0.63043 0.50552 0.0
C694 C 0.14429 0.74005 0.52343 0.0
C695 C 0.18324 0.79242 0.51804 0.0
H696 H 0.76116 0.37282 0.50888 0.0
H697 H 0.8253 0.08418 0.4868 0.0
H698 H 0.7567 -0.00694 0.4957 0.0
H699 H 0.67896 -0.0041 0.50967 0.0
H700 H 0.61595 0.28471 0.53285 0.0
H701 H 0.68382 0.37572 0.52282 0.0
C702 C 0.76046 0.28983 0.50602 0.0
C703 C 0.79864 0.23554 0.49712 0.0
C704 C 0.72094 0.23826 0.51101 0.0
C705 C 0.79665 0.12805 0.49363 0.0
C706 C 0.75734 0.07599 0.49863 0.0
C707 C 0.67978 0.07891 0.51243 0.0
C708 C 0.64196 0.13341 0.52186 0.0
C709 C 0.71928 0.13044 0.50722 0.0
C710 C 0.64407 0.24086 0.52529 0.0
C711 C 0.68308 0.29282 0.51979 0.0
H712 H 0.99081 0.1377 0.7369 0.0
H713 H 0.91545 0.87938 0.76032 0.0
H714 H 0.98413 0.79153 0.77002 0.0
H715 H 0.06514 0.79095 0.77269 0.0
H716 H 0.13967 0.04976 0.74864 0.0
H717 H 0.07125 0.13413 0.73784 0.0
C718 C 0.98923 0.06246 0.74433 0.0
C719 C 0.94806 0.01559 0.7482 0.0
C720 C 0.0286 0.01222 0.74944 0.0
C721 C 0.94674 0.91727 0.75733 0.0
C722 C 0.98596 0.867 0.76278 0.0
C723 C 0.06656 0.86527 0.7648 0.0
C724 C 0.10756 0.91438 0.76169 0.0
C725 C 0.02705 0.91392 0.75891 0.0
C726 C 0.10863 0.01064 0.75143 0.0
C727 C 0.06951 0.05909 0.74533 0.0
H728 H 0.56688 0.30559 0.77876 0.0
H729 H 0.6425 0.54835 0.74756 0.0
H730 H 0.57413 0.6314 0.7358 0.0
H731 H 0.49335 0.63722 0.73548 0.0
H732 H 0.41759 0.39835 0.76791 0.0
H733 H 0.48598 0.3112 0.77831 0.0
C734 C 0.56854 0.37602 0.7691 0.0
C735 C 0.60978 0.42063 0.76398 0.0
C736 C 0.52919 0.42431 0.7629 0.0
C737 C 0.61121 0.51246 0.75171 0.0
C738 C 0.57216 0.56016 0.74509 0.0
C739 C 0.49175 0.56646 0.74501 0.0
C740 C 0.4505 0.52358 0.7508 0.0
C741 C 0.53104 0.51742 0.7509 0.0
C742 C 0.44896 0.43155 0.76291 0.0
C743 C 0.48801 0.38215 0.76891 0.0
H744 H 0.58297 0.79844 0.26765 0.0
H745 H 0.65081 0.08963 0.26749 0.0
H746 H 0.58099 0.17455 0.25929 0.0
H747 H 0.50124 0.16661 0.25395 0.0
H748 H 0.43301 0.87643 0.25475 0.0
H749 H 0.50317 0.79018 0.26169 0.0
C750 C 0.58281 0.88048 0.26563 0.0
C751 C 0.62221 0.93781 0.26838 0.0
C752 C 0.54256 0.92886 0.26155 0.0
C753 C 0.6211 0.04377 0.26553 0.0
C754 C 0.58114 0.09237 0.26103 0.0
C755 C 0.50135 0.08448 0.25584 0.0
C756 C 0.46168 0.02784 0.25388 0.0
C757 C 0.54167 0.0358 0.25947 0.0
C758 C 0.4629 0.9216 0.25617 0.0
C759 C 0.50304 0.8724 0.26002 0.0
loop_
_geom_bond_atom_site_label_1
_geom_bond_atom_site_label_2
_geom_bond_distance
_geom_bond_site_symmetry_2
_ccdc_geom_bond_type
C0 O12 1.241 1_565 S
C0 O13 1.280 . S
C1 O14 1.277 . S
C1 O15 1.245 . S
C2 O26 1.243 1_554 S
C2 O28 1.298 1_655 S
Mg3 O4 1.926 . S
Mg3 O13 1.984 . S
Mg3 O15 1.988 1_565 S
Mg3 O16 2.061 . S
O4 Mg3 1.926 . S
O4 Mg5 1.986 1_565 S
O4 Mg6 1.916 1_565 S
Mg5 O4 1.986 1_545 S
Mg5 O12 2.042 . S
Mg5 O14 2.041 . S
Mg5 O20 2.038 1_455 S
Mg5 O28 2.238 . S
Mg6 O4 1.916 1_545 S
Mg6 O7 1.918 1_454 S
Mg6 O17 2.097 1_444 S
Mg6 O19 2.078 1_445 S
Mg6 O28 2.115 . S
Mg6 O29 2.080 1_554 S
O7 Mg6 1.918 1_656 S
O7 Mg8 1.926 . S
O7 Mg9 1.986 1_545 S
Mg8 O7 1.926 . S
Mg8 O22 1.984 . S
Mg8 O25 1.988 1_545 S
Mg8 O26 2.061 . S
Mg9 O7 1.986 1_565 S
Mg9 O17 2.238 . S
Mg9 O21 2.042 . S
Mg9 O23 2.041 . S
Mg9 O30 2.038 1_655 S
C10 O16 1.247 . S
C10 O17 1.289 1_454 S
C11 O29 1.245 1_565 S
C11 O30 1.274 . S
O12 C0 1.241 1_545 S
O12 Mg5 2.042 . S
O13 C0 1.280 . S
O13 Mg3 1.984 . S
O14 C1 1.277 . S
O14 Mg5 2.041 . S
O15 C1 1.245 . S
O15 Mg3 1.988 1_545 S
O16 Mg3 2.061 . S
O16 C10 1.247 . S
O17 Mg6 2.097 1_666 S
O17 Mg9 2.238 . S
O17 C10 1.289 1_656 S
C18 O19 1.245 1_545 S
C18 O20 1.274 . S
O19 Mg6 2.078 1_665 S
O19 C18 1.245 1_565 S
O20 Mg5 2.038 1_655 S
O20 C18 1.274 . S
O21 Mg9 2.042 . S
O21 C24 1.241 1_565 S
O22 Mg8 1.984 . S
O22 C24 1.280 . S
O23 Mg9 2.041 . S
O23 C27 1.277 . S
C24 O21 1.241 1_545 S
C24 O22 1.280 . S
O25 Mg8 1.988 1_565 S
O25 C27 1.245 . S
O26 C2 1.243 1_556 S
O26 Mg8 2.061 . S
C27 O23 1.277 . S
C27 O25 1.245 . S
O28 C2 1.298 1_455 S
O28 Mg5 2.238 . S
O28 Mg6 2.115 . S
O29 Mg6 2.080 1_556 S
O29 C11 1.245 1_545 S
O30 Mg9 2.038 1_455 S
O30 C11 1.274 . S
C31 O43 1.241 . S
C31 O44 1.280 . S
C32 O45 1.277 . S
C32 O46 1.245 . S
C33 O57 1.247 . S
C33 O59 1.289 . S
Mg34 O35 1.926 . S
Mg34 O44 1.984 . S
Mg34 O46 1.988 . S
Mg34 O47 2.061 . S
O35 Mg34 1.926 . S
O35 Mg36 1.986 . S
O35 Mg37 1.917 . S
Mg36 O35 1.986 . S
Mg36 O43 2.042 . S
Mg36 O45 2.041 . S
Mg36 O51 2.038 . S
Mg36 O59 2.238 . S
Mg37 O35 1.917 . S
Mg37 O38 1.917 . S
Mg37 O48 2.106 . S
Mg37 O50 2.079 . S
Mg37 O59 2.106 . S
Mg37 O60 2.079 . S
O38 Mg37 1.917 . S
O38 Mg39 1.926 . S
O38 Mg40 1.986 . S
Mg39 O38 1.926 . S
Mg39 O53 1.984 . S
Mg39 O56 1.988 . S
Mg39 O57 2.061 . S
Mg40 O38 1.986 . S
Mg40 O48 2.238 . S
Mg40 O52 2.042 . S
Mg40 O54 2.041 . S
Mg40 O61 2.038 . S
C41 O47 1.247 . S
C41 O48 1.289 . S
C42 O60 1.245 . S
C42 O61 1.274 . S
O43 C31 1.241 . S
O43 Mg36 2.042 . S
O44 C31 1.280 . S
O44 Mg34 1.984 . S
O45 C32 1.277 . S
O45 Mg36 2.041 . S
O46 C32 1.245 . S
O46 Mg34 1.988 . S
O47 Mg34 2.061 . S
O47 C41 1.247 . S
O48 Mg37 2.106 . S
O48 Mg40 2.238 . S
O48 C41 1.289 . S
C49 O50 1.245 . S
C49 O51 1.274 . S
O50 Mg37 2.079 . S
O50 C49 1.245 . S
O51 Mg36 2.038 . S
O51 C49 1.274 . S
O52 Mg40 2.042 . S
O52 C55 1.241 . S
O53 Mg39 1.984 . S
O53 C55 1.280 . S
O54 Mg40 2.041 . S
O54 C58 1.277 . S
C55 O52 1.241 . S
C55 O53 1.280 . S
O56 Mg39 1.988 . S
O56 C58 1.245 . S
O57 C33 1.247 . S
O57 Mg39 2.061 . S
C58 O54 1.277 . S
C58 O56 1.245 . S
O59 C33 1.289 . S
O59 Mg36 2.238 . S
O59 Mg37 2.106 . S
O60 Mg37 2.079 . S
O60 C42 1.245 . S
O61 Mg40 2.038 . S
O61 C42 1.274 . S
C62 O74 1.241 . S
C62 O75 1.280 . S
C63 O76 1.277 . S
C63 O77 1.245 . S
C64 O88 1.247 . S
C64 O90 1.289 . S
Mg65 O66 1.926 . S
Mg65 O75 1.984 . S
Mg65 O77 1.988 . S
Mg65 O78 2.061 . S
O66 Mg65 1.926 . S
O66 Mg67 1.986 . S
O66 Mg68 1.917 . S
Mg67 O66 1.986 . S
Mg67 O74 2.042 . S
Mg67 O76 2.041 . S
Mg67 O82 2.038 . S
Mg67 O90 2.238 . S
Mg68 O66 1.917 . S
Mg68 O69 1.917 . S
Mg68 O79 2.106 . S
Mg68 O81 2.079 . S
Mg68 O90 2.106 . S
Mg68 O91 2.079 . S
O69 Mg68 1.917 . S
O69 Mg70 1.926 . S
O69 Mg71 1.986 . S
Mg70 O69 1.926 . S
Mg70 O84 1.984 . S
Mg70 O87 1.988 . S
Mg70 O88 2.061 . S
Mg71 O69 1.986 . S
Mg71 O79 2.238 . S
Mg71 O83 2.042 . S
Mg71 O85 2.041 . S
Mg71 O92 2.038 . S
C72 O78 1.247 . S
C72 O79 1.289 . S
C73 O91 1.245 . S
C73 O92 1.274 . S
O74 C62 1.241 . S
O74 Mg67 2.042 . S
O75 C62 1.280 . S
O75 Mg65 1.984 . S
O76 C63 1.277 . S
O76 Mg67 2.041 . S
O77 C63 1.245 . S
O77 Mg65 1.988 . S
O78 Mg65 2.061 . S
O78 C72 1.247 . S
O79 Mg68 2.106 . S
O79 Mg71 2.238 . S
O79 C72 1.289 . S
C80 O81 1.245 . S
C80 O82 1.274 . S
O81 Mg68 2.079 . S
O81 C80 1.245 . S
O82 Mg67 2.038 . S
O82 C80 1.274 . S
O83 Mg71 2.042 . S
O83 C86 1.241 . S
O84 Mg70 1.984 . S
O84 C86 1.280 . S
O85 Mg71 2.041 . S
O85 C89 1.277 . S
C86 O83 1.241 . S
C86 O84 1.280 . S
O87 Mg70 1.988 . S
O87 C89 1.245 . S
O88 C64 1.247 . S
O88 Mg70 2.061 . S
C89 O85 1.277 . S
C89 O87 1.245 . S
O90 C64 1.289 . S
O90 Mg67 2.238 . S
O90 Mg68 2.106 . S
O91 Mg68 2.079 . S
O91 C73 1.245 . S
O92 Mg71 2.038 . S
O92 C73 1.274 . S
C93 O105 1.241 . S
C93 O106 1.280 . S
C94 O107 1.277 . S
C94 O108 1.245 . S
C95 O119 1.247 . S
C95 O121 1.289 1_655 S
Mg96 O97 1.926 . S
Mg96 O106 1.984 . S
Mg96 O108 1.988 . S
Mg96 O109 2.061 . S
O97 Mg96 1.926 . S
O97 Mg98 1.986 . S
O97 Mg99 1.917 . S
Mg98 O97 1.986 . S
Mg98 O105 2.042 . S
Mg98 O107 2.041 . S
Mg98 O113 2.038 1_455 S
Mg98 O121 2.238 . S
Mg99 O97 1.917 . S
Mg99 O100 1.917 1_455 S
Mg99 O110 2.106 1_455 S
Mg99 O112 2.079 1_455 S
Mg99 O121 2.106 . S
Mg99 O122 2.079 . S
O100 Mg99 1.917 1_655 S
O100 Mg101 1.926 . S
O100 Mg102 1.986 . S
Mg101 O100 1.926 . S
Mg101 O115 1.984 . S
Mg101 O118 1.988 . S
Mg101 O119 2.061 . S
Mg102 O100 1.986 . S
Mg102 O110 2.238 . S
Mg102 O114 2.042 . S
Mg102 O116 2.041 . S
Mg102 O123 2.038 1_655 S
C103 O109 1.247 . S
C103 O110 1.289 1_455 S
C104 O122 1.245 . S
C104 O123 1.274 . S
O105 C93 1.241 . S
O105 Mg98 2.042 . S
O106 C93 1.280 . S
O106 Mg96 1.984 . S
O107 C94 1.277 . S
O107 Mg98 2.041 . S
O108 C94 1.245 . S
O108 Mg96 1.988 . S
O109 Mg96 2.061 . S
O109 C103 1.247 . S
O110 Mg99 2.106 1_655 S
O110 Mg102 2.238 . S
O110 C103 1.289 1_655 S
C111 O112 1.245 . S
C111 O113 1.274 . S
O112 Mg99 2.079 1_655 S
O112 C111 1.245 . S
O113 Mg98 2.038 1_655 S
O113 C111 1.274 . S
O114 Mg102 2.042 . S
O114 C117 1.241 . S
O115 Mg101 1.984 . S
O115 C117 1.280 . S
O116 Mg102 2.041 . S
O116 C120 1.277 . S
C117 O114 1.241 . S
C117 O115 1.280 . S
O118 Mg101 1.988 . S
O118 C120 1.245 . S
O119 C95 1.247 . S
O119 Mg101 2.061 . S
C120 O116 1.277 . S
C120 O118 1.245 . S
O121 C95 1.289 1_455 S
O121 Mg98 2.238 . S
O121 Mg99 2.106 . S
O122 Mg99 2.079 . S
O122 C104 1.245 . S
O123 Mg102 2.038 1_455 S
O123 C104 1.274 . S
C124 O136 1.241 . S
C124 O137 1.280 . S
C125 O138 1.277 . S
C125 O139 1.245 . S
C126 O150 1.247 . S
C126 O152 1.289 . S
Mg127 O128 1.926 . S
Mg127 O137 1.984 . S
Mg127 O139 1.988 . S
Mg127 O140 2.061 . S
O128 Mg127 1.926 . S
O128 Mg129 1.986 . S
O128 Mg130 1.917 . S
Mg129 O128 1.986 . S
Mg129 O136 2.042 . S
Mg129 O138 2.041 . S
Mg129 O144 2.038 . S
Mg129 O152 2.238 . S
Mg130 O128 1.917 . S
Mg130 O131 1.917 . S
Mg130 O141 2.106 . S
Mg130 O143 2.079 . S
Mg130 O152 2.106 . S
Mg130 O153 2.079 . S
O131 Mg130 1.917 . S
O131 Mg132 1.926 . S
O131 Mg133 1.986 . S
Mg132 O131 1.926 . S
Mg132 O146 1.984 . S
Mg132 O149 1.988 . S
Mg132 O150 2.061 . S
Mg133 O131 1.986 . S
Mg133 O141 2.238 . S
Mg133 O145 2.042 . S
Mg133 O147 2.041 . S
Mg133 O154 2.038 . S
C134 O140 1.247 . S
C134 O141 1.289 . S
C135 O153 1.245 . S
C135 O154 1.274 . S
O136 C124 1.241 . S
O136 Mg129 2.042 . S
O137 C124 1.280 . S
O137 Mg127 1.984 . S
O138 C125 1.277 . S
O138 Mg129 2.041 . S
O139 C125 1.245 . S
O139 Mg127 1.988 . S
O140 Mg127 2.061 . S
O140 C134 1.247 . S
O141 Mg130 2.106 . S
O141 Mg133 2.238 . S
O141 C134 1.289 . S
C142 O143 1.245 . S
C142 O144 1.274 . S
O143 Mg130 2.079 . S
O143 C142 1.245 . S
O144 Mg129 2.038 . S
O144 C142 1.274 . S
O145 Mg133 2.042 . S
O145 C148 1.241 . S
O146 Mg132 1.984 . S
O146 C148 1.280 . S
O147 Mg133 2.041 . S
O147 C151 1.277 . S
C148 O145 1.241 . S
C148 O146 1.280 . S
O149 Mg132 1.988 . S
O149 C151 1.245 . S
O150 C126 1.247 . S
O150 Mg132 2.061 . S
C151 O147 1.277 . S
C151 O149 1.245 . S
O152 C126 1.289 . S
O152 Mg129 2.238 . S
O152 Mg130 2.106 . S
O153 Mg130 2.079 . S
O153 C135 1.245 . S
O154 Mg133 2.038 . S
O154 C135 1.274 . S
C155 O167 1.241 . S
C155 O168 1.280 . S
C156 O169 1.277 . S
C156 O170 1.245 . S
C157 O181 1.247 . S
C157 O183 1.289 . S
Mg158 O159 1.926 . S
Mg158 O168 1.984 . S
Mg158 O170 1.988 . S
Mg158 O171 2.061 . S
O159 Mg158 1.926 . S
O159 Mg160 1.986 . S
O159 Mg161 1.917 . S
Mg160 O159 1.986 . S
Mg160 O167 2.042 . S
Mg160 O169 2.041 . S
Mg160 O175 2.038 . S
Mg160 O183 2.238 . S
Mg161 O159 1.917 . S
Mg161 O162 1.917 . S
Mg161 O172 2.106 . S
Mg161 O174 2.079 . S
Mg161 O183 2.106 . S
Mg161 O184 2.079 . S
O162 Mg161 1.917 . S
O162 Mg163 1.926 . S
O162 Mg164 1.986 . S
Mg163 O162 1.926 . S
Mg163 O177 1.984 . S
Mg163 O180 1.988 . S
Mg163 O181 2.061 . S
Mg164 O162 1.986 . S
Mg164 O172 2.238 . S
Mg164 O176 2.042 . S
Mg164 O178 2.041 . S
Mg164 O185 2.038 . S
C165 O171 1.247 . S
C165 O172 1.289 . S
C166 O184 1.245 . S
C166 O185 1.274 . S
O167 C155 1.241 . S
O167 Mg160 2.042 . S
O168 C155 1.280 . S
O168 Mg158 1.984 . S
O169 C156 1.277 . S
O169 Mg160 2.041 . S
O170 C156 1.245 . S
O170 Mg158 1.988 . S
O171 Mg158 2.061 . S
O171 C165 1.247 . S
O172 Mg161 2.106 . S
O172 Mg164 2.238 . S
O172 C165 1.289 . S
C173 O174 1.245 . S
C173 O175 1.274 . S
O174 Mg161 2.079 . S
O174 C173 1.245 . S
O175 Mg160 2.038 . S
O175 C173 1.274 . S
O176 Mg164 2.042 . S
O176 C179 1.241 . S
O177 Mg163 1.984 . S
O177 C179 1.280 . S
O178 Mg164 2.041 . S
O178 C182 1.277 . S
C179 O176 1.241 . S
C179 O177 1.280 . S
O180 Mg163 1.988 . S
O180 C182 1.245 . S
O181 C157 1.247 . S
O181 Mg163 2.061 . S
C182 O178 1.277 . S
C182 O180 1.245 . S
O183 C157 1.289 . S
O183 Mg160 2.238 . S
O183 Mg161 2.106 . S
O184 Mg161 2.079 . S
O184 C166 1.245 . S
O185 Mg164 2.038 . S
O185 C166 1.274 . S
C186 O198 1.241 1_565 S
C186 O199 1.280 . S
C187 O200 1.277 . S
C187 O201 1.245 . S
C188 O212 1.247 . S
C188 O214 1.289 . S
Mg189 O190 1.926 . S
Mg189 O199 1.984 . S
Mg189 O201 1.988 1_565 S
Mg189 O202 2.061 . S
O190 Mg189 1.926 . S
O190 Mg191 1.986 1_565 S
O190 Mg192 1.916 1_565 S
Mg191 O190 1.986 1_545 S
Mg191 O198 2.042 . S
Mg191 O200 2.041 . S
Mg191 O206 2.038 . S
Mg191 O214 2.238 . S
Mg192 O190 1.916 1_545 S
Mg192 O193 1.918 . S
Mg192 O203 2.100 1_545 S
Mg192 O205 2.078 1_545 S
Mg192 O214 2.113 . S
Mg192 O215 2.079 . S
O193 Mg192 1.918 . S
O193 Mg194 1.926 . S
O193 Mg195 1.986 1_545 S
Mg194 O193 1.926 . S
Mg194 O208 1.984 . S
Mg194 O211 1.988 1_545 S
Mg194 O212 2.061 . S
Mg195 O193 1.986 1_565 S
Mg195 O203 2.238 . S
Mg195 O207 2.042 . S
Mg195 O209 2.041 . S
Mg195 O216 2.038 . S
C196 O202 1.247 . S
C196 O203 1.289 . S
C197 O215 1.245 1_565 S
C197 O216 1.274 . S
O198 C186 1.241 1_545 S
O198 Mg191 2.042 . S
O199 C186 1.280 . S
O199 Mg189 1.984 . S
O200 C187 1.277 . S
O200 Mg191 2.041 . S
O201 C187 1.245 . S
O201 Mg189 1.988 1_545 S
O202 Mg189 2.061 . S
O202 C196 1.247 . S
O203 Mg192 2.100 1_565 S
O203 Mg195 2.238 . S
O203 C196 1.289 . S
C204 O205 1.245 1_545 S
C204 O206 1.274 . S
O205 Mg192 2.078 1_565 S
O205 C204 1.245 1_565 S
O206 Mg191 2.038 . S
O206 C204 1.274 . S
O207 Mg195 2.042 . S
O207 C210 1.241 1_565 S
O208 Mg194 1.984 . S
O208 C210 1.280 . S
O209 Mg195 2.041 . S
O209 C213 1.277 . S
C210 O207 1.241 1_545 S
C210 O208 1.280 . S
O211 Mg194 1.988 1_565 S
O211 C213 1.245 . S
O212 C188 1.247 . S
O212 Mg194 2.061 . S
C213 O209 1.277 . S
C213 O211 1.245 . S
O214 C188 1.289 . S
O214 Mg191 2.238 . S
O214 Mg192 2.113 . S
O215 Mg192 2.079 . S
O215 C197 1.245 1_545 S
O216 Mg195 2.038 . S
O216 C197 1.274 . S
C217 O229 1.241 . S
C217 O230 1.280 . S
C218 O231 1.277 . S
C218 O232 1.245 . S
C219 O243 1.243 1_554 S
C219 O245 1.298 . S
Mg220 O221 1.926 . S
Mg220 O230 1.984 . S
Mg220 O232 1.988 . S
Mg220 O233 2.061 . S
O221 Mg220 1.926 . S
O221 Mg222 1.986 . S
O221 Mg223 1.917 . S
Mg222 O221 1.986 . S
Mg222 O229 2.042 . S
Mg222 O231 2.041 . S
Mg222 O237 2.038 . S
Mg222 O245 2.238 . S
Mg223 O221 1.917 . S
Mg223 O224 1.917 1_554 S
Mg223 O234 2.106 1_554 S
Mg223 O236 2.079 . S
Mg223 O245 2.106 . S
Mg223 O246 2.079 1_554 S
O224 Mg223 1.917 1_556 S
O224 Mg225 1.926 . S
O224 Mg226 1.986 . S
Mg225 O224 1.926 . S
Mg225 O239 1.984 . S
Mg225 O242 1.988 . S
Mg225 O243 2.061 . S
Mg226 O224 1.986 . S
Mg226 O234 2.238 . S
Mg226 O238 2.042 . S
Mg226 O240 2.041 . S
Mg226 O247 2.038 . S
C227 O233 1.247 . S
C227 O234 1.289 1_554 S
C228 O246 1.245 . S
C228 O247 1.274 . S
O229 C217 1.241 . S
O229 Mg222 2.042 . S
O230 C217 1.280 . S
O230 Mg220 1.984 . S
O231 C218 1.277 . S
O231 Mg222 2.041 . S
O232 C218 1.245 . S
O232 Mg220 1.988 . S
O233 Mg220 2.061 . S
O233 C227 1.247 . S
O234 Mg223 2.106 1_556 S
O234 Mg226 2.238 . S
O234 C227 1.289 1_556 S
C235 O236 1.245 . S
C235 O237 1.274 . S
O236 Mg223 2.079 . S
O236 C235 1.245 . S
O237 Mg222 2.038 . S
O237 C235 1.274 . S
O238 Mg226 2.042 . S
O238 C241 1.241 . S
O239 Mg225 1.984 . S
O239 C241 1.280 . S
O240 Mg226 2.041 . S
O240 C244 1.277 . S
C241 O238 1.241 . S
C241 O239 1.280 . S
O242 Mg225 1.988 . S
O242 C244 1.245 . S
O243 C219 1.243 1_556 S
O243 Mg225 2.061 . S
C244 O240 1.277 . S
C244 O242 1.245 . S
O245 C219 1.298 . S
O245 Mg222 2.238 . S
O245 Mg223 2.106 . S
O246 Mg223 2.079 1_556 S
O246 C228 1.245 . S
O247 Mg226 2.038 . S
O247 C228 1.274 . S
H248 C254 0.930 . S
H249 C257 0.930 . S
H250 C258 0.930 . S
H251 C259 0.930 . S
H252 C262 0.930 . S
H253 C263 0.930 1_565 S
C254 H248 0.930 . S
C254 C255 1.355 1_565 S
C254 C256 1.415 1_565 S
C255 C254 1.355 1_545 S
C255 C257 1.419 . S
C256 C254 1.415 1_545 S
C256 C261 1.425 . S
C256 C263 1.409 . S
C257 H249 0.930 . S
C257 C255 1.419 . S
C257 C258 1.362 . S
C258 H250 0.930 . S
C258 C257 1.362 . S
C258 C261 1.409 . S
C259 H251 0.930 . S
C259 C260 1.355 . S
C259 C261 1.415 . S
C260 C259 1.355 . S
C260 C262 1.419 . S
C261 C256 1.425 . S
C261 C258 1.409 . S
C261 C259 1.415 . S
C262 H252 0.930 . S
C262 C260 1.419 . S
C262 C263 1.362 . S
C263 H253 0.930 1_545 S
C263 C256 1.409 . S
C263 C262 1.362 . S
H264 C270 0.930 . S
H265 C273 0.930 1_545 S
H266 C274 0.930 . S
H267 C275 0.930 . S
H268 C278 0.930 . S
H269 C279 0.930 . S
C270 H264 0.930 . S
C270 C271 1.355 . S
C270 C272 1.415 . S
C271 C270 1.355 . S
C271 C273 1.419 . S
C272 C270 1.415 . S
C272 C277 1.425 . S
C272 C279 1.409 . S
C273 H265 0.930 1_565 S
C273 C271 1.419 . S
C273 C274 1.362 . S
C274 H266 0.930 . S
C274 C273 1.362 . S
C274 C277 1.409 . S
C275 H267 0.930 . S
C275 C276 1.355 . S
C275 C277 1.415 . S
C276 C275 1.355 . S
C276 C278 1.419 . S
C277 C272 1.425 . S
C277 C274 1.409 . S
C277 C275 1.415 . S
C278 H268 0.930 . S
C278 C276 1.419 . S
C278 C279 1.362 . S
C279 H269 0.930 . S
C279 C272 1.409 . S
C279 C278 1.362 . S
H280 C286 0.930 . S
H281 C289 0.930 . S
H282 C290 0.930 . S
H283 C291 0.930 . S
H284 C294 0.930 . S
H285 C295 0.930 . S
C286 H280 0.930 . S
C286 C287 1.355 . S
C286 C288 1.415 . S
C287 C286 1.355 . S
C287 C289 1.419 . S
C288 C286 1.415 . S
C288 C293 1.425 . S
C288 C295 1.409 . S
C289 H281 0.930 . S
C289 C287 1.419 . S
C289 C290 1.362 . S
C290 H282 0.930 . S
C290 C289 1.362 . S
C290 C293 1.409 . S
C291 H283 0.930 . S
C291 C292 1.355 . S
C291 C293 1.415 . S
C292 C291 1.355 . S
C292 C294 1.419 . S
C293 C288 1.425 . S
C293 C290 1.409 . S
C293 C291 1.415 . S
C294 H284 0.930 . S
C294 C292 1.419 . S
C294 C295 1.362 . S
C295 H285 0.930 . S
C295 C288 1.409 . S
C295 C294 1.362 . S
H296 C302 0.930 . S
H297 C305 0.930 . S
H298 C306 0.930 . S
H299 C307 0.930 . S
H300 C310 0.930 . S
H301 C311 0.930 . S
C302 H296 0.930 . S
C302 C303 1.355 . S
C302 C304 1.415 . S
C303 C302 1.355 . S
C303 C305 1.419 . S
C304 C302 1.415 . S
C304 C309 1.425 . S
C304 C311 1.409 . S
C305 H297 0.930 . S
C305 C303 1.419 . S
C305 C306 1.362 . S
C306 H298 0.930 . S
C306 C305 1.362 . S
C306 C309 1.409 . S
C307 H299 0.930 . S
C307 C308 1.355 . S
C307 C309 1.415 . S
C308 C307 1.355 . S
C308 C310 1.419 . S
C309 C304 1.425 . S
C309 C306 1.409 . S
C309 C307 1.415 . S
C310 H300 0.930 . S
C310 C308 1.419 . S
C310 C311 1.362 . S
C311 H301 0.930 . S
C311 C304 1.409 . S
C311 C310 1.362 . S
H312 C318 0.930 . S
H313 C321 0.930 . S
H314 C322 0.930 . S
H315 C323 0.930 . S
H316 C326 0.930 . S
H317 C327 0.930 . S
C318 H312 0.930 . S
C318 C319 1.355 . S
C318 C320 1.415 . S
C319 C318 1.355 . S
C319 C321 1.419 . S
C320 C318 1.415 . S
C320 C325 1.425 . S
C320 C327 1.409 . S
C321 H313 0.930 . S
C321 C319 1.419 . S
C321 C322 1.362 . S
C322 H314 0.930 . S
C322 C321 1.362 . S
C322 C325 1.409 . S
C323 H315 0.930 . S
C323 C324 1.355 . S
C323 C325 1.415 . S
C324 C323 1.355 . S
C324 C326 1.419 . S
C325 C320 1.425 . S
C325 C322 1.409 . S
C325 C323 1.415 . S
C326 H316 0.930 . S
C326 C324 1.419 . S
C326 C327 1.362 . S
C327 H317 0.930 . S
C327 C320 1.409 . S
C327 C326 1.362 . S
H328 C334 0.930 . S
H329 C337 0.930 . S
H330 C338 0.930 . S
H331 C339 0.930 . S
H332 C342 0.930 . S
H333 C343 0.930 . S
C334 H328 0.930 . S
C334 C335 1.355 . S
C334 C336 1.415 . S
C335 C334 1.355 . S
C335 C337 1.419 . S
C336 C334 1.415 . S
C336 C341 1.425 . S
C336 C343 1.409 . S
C337 H329 0.930 . S
C337 C335 1.419 . S
C337 C338 1.362 . S
C338 H330 0.930 . S
C338 C337 1.362 . S
C338 C341 1.409 . S
C339 H331 0.930 . S
C339 C340 1.355 . S
C339 C341 1.415 . S
C340 C339 1.355 . S
C340 C342 1.419 . S
C341 C336 1.425 . S
C341 C338 1.409 . S
C341 C339 1.415 . S
C342 H332 0.930 . S
C342 C340 1.419 . S
C342 C343 1.362 . S
C343 H333 0.930 . S
C343 C336 1.409 . S
C343 C342 1.362 . S
H344 C350 0.930 . S
H345 C353 0.930 . S
H346 C354 0.930 . S
H347 C355 0.930 . S
H348 C358 0.930 . S
H349 C359 0.930 . S
C350 H344 0.930 . S
C350 C351 1.355 . S
C350 C352 1.415 . S
C351 C350 1.355 . S
C351 C353 1.419 . S
C352 C350 1.415 . S
C352 C357 1.425 . S
C352 C359 1.409 . S
C353 H345 0.930 . S
C353 C351 1.419 . S
C353 C354 1.362 . S
C354 H346 0.930 . S
C354 C353 1.362 . S
C354 C357 1.409 . S
C355 H347 0.930 . S
C355 C356 1.355 . S
C355 C357 1.415 . S
C356 C355 1.355 . S
C356 C358 1.419 . S
C357 C352 1.425 . S
C357 C354 1.409 . S
C357 C355 1.415 . S
C358 H348 0.930 . S
C358 C356 1.419 . S
C358 C359 1.362 . S
C359 H349 0.930 . S
C359 C352 1.409 . S
C359 C358 1.362 . S
H360 C366 0.930 . S
H361 C369 0.930 . S
H362 C370 0.930 . S
H363 C371 0.930 . S
H364 C374 0.930 . S
H365 C375 0.930 . S
C366 H360 0.930 . S
C366 C367 1.355 . S
C366 C368 1.415 . S
C367 C366 1.355 . S
C367 C369 1.419 . S
C368 C366 1.415 . S
C368 C373 1.425 . S
C368 C375 1.409 . S
C369 H361 0.930 . S
C369 C367 1.419 . S
C369 C370 1.362 . S
C370 H362 0.930 . S
C370 C369 1.362 . S
C370 C373 1.409 . S
C371 H363 0.930 . S
C371 C372 1.355 . S
C371 C373 1.415 . S
C372 C371 1.355 . S
C372 C374 1.419 . S
C373 C368 1.425 . S
C373 C370 1.409 . S
C373 C371 1.415 . S
C374 H364 0.930 . S
C374 C372 1.419 . S
C374 C375 1.362 . S
C375 H365 0.930 . S
C375 C368 1.409 . S
C375 C374 1.362 . S
H376 C382 0.930 . S
H377 C385 0.930 . S
H378 C386 0.930 . S
H379 C387 0.930 . S
H380 C390 0.930 . S
H381 C391 0.930 . S
C382 H376 0.930 . S
C382 C383 1.355 . S
C382 C384 1.415 . S
C383 C382 1.355 . S
C383 C385 1.419 . S
C384 C382 1.415 . S
C384 C389 1.425 . S
C384 C391 1.409 1_545 S
C385 H377 0.930 . S
C385 C383 1.419 . S
C385 C386 1.362 . S
C386 H378 0.930 . S
C386 C385 1.362 . S
C386 C389 1.409 . S
C387 H379 0.930 . S
C387 C388 1.355 1_545 S
C387 C389 1.415 . S
C388 C387 1.355 1_565 S
C388 C390 1.419 . S
C389 C384 1.425 . S
C389 C386 1.409 . S
C389 C387 1.415 . S
C390 H380 0.930 . S
C390 C388 1.419 . S
C390 C391 1.362 . S
C391 H381 0.930 . S
C391 C384 1.409 1_565 S
C391 C390 1.362 . S
H392 C398 0.930 . S
H393 C401 0.930 . S
H394 C402 0.930 . S
H395 C403 0.930 . S
H396 C406 0.930 . S
H397 C407 0.930 . S
C398 H392 0.930 . S
C398 C399 1.355 . S
C398 C400 1.415 . S
C399 C398 1.355 . S
C399 C401 1.419 1_565 S
C400 C398 1.415 . S
C400 C405 1.425 . S
C400 C407 1.409 . S
C401 H393 0.930 . S
C401 C399 1.419 1_545 S
C401 C402 1.362 . S
C402 H394 0.930 . S
C402 C401 1.362 . S
C402 C405 1.409 1_545 S
C403 H395 0.930 . S
C403 C404 1.355 . S
C403 C405 1.415 . S
C404 C403 1.355 . S
C404 C406 1.419 . S
C405 C400 1.425 . S
C405 C402 1.409 1_565 S
C405 C403 1.415 . S
C406 H396 0.930 . S
C406 C404 1.419 . S
C406 C407 1.362 . S
C407 H397 0.930 . S
C407 C400 1.409 . S
C407 C406 1.362 . S
H408 C414 0.930 . S
H409 C417 0.930 . S
H410 C418 0.930 . S
H411 C419 0.930 . S
H412 C422 0.930 . S
H413 C423 0.930 . S
C414 H408 0.930 . S
C414 C415 1.355 . S
C414 C416 1.415 . S
C415 C414 1.355 . S
C415 C417 1.419 . S
C416 C414 1.415 . S
C416 C421 1.425 . S
C416 C423 1.409 . S
C417 H409 0.930 . S
C417 C415 1.419 . S
C417 C418 1.362 . S
C418 H410 0.930 . S
C418 C417 1.362 . S
C418 C421 1.409 . S
C419 H411 0.930 . S
C419 C420 1.355 . S
C419 C421 1.415 . S
C420 C419 1.355 . S
C420 C422 1.419 . S
C421 C416 1.425 . S
C421 C418 1.409 . S
C421 C419 1.415 . S
C422 H412 0.930 . S
C422 C420 1.419 . S
C422 C423 1.362 . S
C423 H413 0.930 . S
C423 C416 1.409 . S
C423 C422 1.362 . S
H424 C430 0.930 . S
H425 C433 0.930 . S
H426 C434 0.930 . S
H427 C435 0.930 . S
H428 C438 0.930 . S
H429 C439 0.930 . S
C430 H424 0.930 . S
C430 C431 1.355 . S
C430 C432 1.415 . S
C431 C430 1.355 . S
C431 C433 1.419 . S
C432 C430 1.415 . S
C432 C437 1.425 . S
C432 C439 1.409 . S
C433 H425 0.930 . S
C433 C431 1.419 . S
C433 C434 1.362 . S
C434 H426 0.930 . S
C434 C433 1.362 . S
C434 C437 1.409 . S
C435 H427 0.930 . S
C435 C436 1.355 . S
C435 C437 1.415 . S
C436 C435 1.355 . S
C436 C438 1.419 . S
C437 C432 1.425 . S
C437 C434 1.409 . S
C437 C435 1.415 . S
C438 H428 0.930 . S
C438 C436 1.419 . S
C438 C439 1.362 . S
C439 H429 0.930 . S
C439 C432 1.409 . S
C439 C438 1.362 . S
H440 C446 0.930 . S
H441 C449 0.930 . S
H442 C450 0.930 . S
H443 C451 0.930 . S
H444 C454 0.930 . S
H445 C455 0.930 . S
C446 H440 0.930 . S
C446 C447 1.355 . S
C446 C448 1.415 . S
C447 C446 1.355 . S
C447 C449 1.419 . S
C448 C446 1.415 . S
C448 C453 1.425 . S
C448 C455 1.409 . S
C449 H441 0.930 . S
C449 C447 1.419 . S
C449 C450 1.362 . S
C450 H442 0.930 . S
C450 C449 1.362 . S
C450 C453 1.409 . S
C451 H443 0.930 . S
C451 C452 1.355 . S
C451 C453 1.415 . S
C452 C451 1.355 . S
C452 C454 1.419 . S
C453 C448 1.425 . S
C453 C450 1.409 . S
C453 C451 1.415 . S
C454 H444 0.930 . S
C454 C452 1.419 . S
C454 C455 1.362 . S
C455 H445 0.930 . S
C455 C448 1.409 . S
C455 C454 1.362 . S
H456 C462 0.930 . S
H457 C465 0.930 . S
H458 C466 0.930 . S
H459 C467 0.930 . S
H460 C470 0.930 . S
H461 C471 0.930 . S
C462 H456 0.930 . S
C462 C463 1.355 . S
C462 C464 1.415 . S
C463 C462 1.355 . S
C463 C465 1.419 . S
C464 C462 1.415 . S
C464 C469 1.425 . S
C464 C471 1.409 . S
C465 H457 0.930 . S
C465 C463 1.419 . S
C465 C466 1.362 . S
C466 H458 0.930 . S
C466 C465 1.362 . S
C466 C469 1.409 . S
C467 H459 0.930 . S
C467 C468 1.355 . S
C467 C469 1.415 . S
C468 C467 1.355 . S
C468 C470 1.419 . S
C469 C464 1.425 . S
C469 C466 1.409 . S
C469 C467 1.415 . S
C470 H460 0.930 . S
C470 C468 1.419 . S
C470 C471 1.362 . S
C471 H461 0.930 . S
C471 C464 1.409 . S
C471 C470 1.362 . S
H472 C478 0.930 1_545 S
H473 C481 0.930 . S
H474 C482 0.930 . S
H475 C483 0.930 . S
H476 C486 0.930 . S
H477 C487 0.930 1_545 S
C478 H472 0.930 1_565 S
C478 C479 1.355 . S
C478 C480 1.415 . S
C479 C478 1.355 . S
C479 C481 1.419 . S
C480 C478 1.415 . S
C480 C485 1.425 . S
C480 C487 1.409 . S
C481 H473 0.930 . S
C481 C479 1.419 . S
C481 C482 1.362 . S
C482 H474 0.930 . S
C482 C481 1.362 . S
C482 C485 1.409 . S
C483 H475 0.930 . S
C483 C484 1.355 . S
C483 C485 1.415 . S
C484 C483 1.355 . S
C484 C486 1.419 . S
C485 C480 1.425 . S
C485 C482 1.409 . S
C485 C483 1.415 . S
C486 H476 0.930 . S
C486 C484 1.419 . S
C486 C487 1.362 . S
C487 H477 0.930 1_565 S
C487 C480 1.409 . S
C487 C486 1.362 . S
H488 C494 0.930 . S
H489 C497 0.930 . S
H490 C498 0.930 . S
H491 C499 0.930 . S
H492 C502 0.930 . S
H493 C503 0.930 . S
C494 H488 0.930 . S
C494 C495 1.355 . S
C494 C496 1.415 . S
C495 C494 1.355 . S
C495 C497 1.419 . S
C496 C494 1.415 . S
C496 C501 1.425 . S
C496 C503 1.409 . S
C497 H489 0.930 . S
C497 C495 1.419 . S
C497 C498 1.362 . S
C498 H490 0.930 . S
C498 C497 1.362 . S
C498 C501 1.409 . S
C499 H491 0.930 . S
C499 C500 1.355 . S
C499 C501 1.415 . S
C500 C499 1.355 . S
C500 C502 1.419 . S
C501 C496 1.425 . S
C501 C498 1.409 . S
C501 C499 1.415 . S
C502 H492 0.930 . S
C502 C500 1.419 . S
C502 C503 1.362 . S
C503 H493 0.930 . S
C503 C496 1.409 . S
C503 C502 1.362 . S
H504 C510 0.930 . S
H505 C513 0.930 . S
H506 C514 0.930 . S
H507 C515 0.930 . S
H508 C518 0.930 . S
H509 C519 0.930 . S
C510 H504 0.930 . S
C510 C511 1.355 1_556 S
C510 C512 1.415 . S
C511 C510 1.355 1_554 S
C511 C513 1.419 1_455 S
C512 C510 1.415 . S
C512 C517 1.425 1_456 S
C512 C519 1.409 . S
C513 H505 0.930 . S
C513 C511 1.419 1_655 S
C513 C514 1.362 . S
C514 H506 0.930 . S
C514 C513 1.362 . S
C514 C517 1.409 . S
C515 H507 0.930 . S
C515 C516 1.355 1_654 S
C515 C517 1.415 . S
C516 C515 1.355 1_456 S
C516 C518 1.419 . S
C517 C512 1.425 1_654 S
C517 C514 1.409 . S
C517 C515 1.415 . S
C518 H508 0.930 . S
C518 C516 1.419 . S
C518 C519 1.362 . S
C519 H509 0.930 . S
C519 C512 1.409 . S
C519 C518 1.362 . S
H520 C526 0.930 . S
H521 C529 0.930 . S
H522 C530 0.930 . S
H523 C531 0.930 . S
H524 C534 0.930 . S
H525 C535 0.930 . S
C526 H520 0.930 . S
C526 C527 1.355 . S
C526 C528 1.415 . S
C527 C526 1.355 . S
C527 C529 1.419 . S
C528 C526 1.415 . S
C528 C533 1.425 . S
C528 C535 1.409 . S
C529 H521 0.930 . S
C529 C527 1.419 . S
C529 C530 1.362 . S
C530 H522 0.930 . S
C530 C529 1.362 . S
C530 C533 1.409 . S
C531 H523 0.930 . S
C531 C532 1.355 . S
C531 C533 1.415 . S
C532 C531 1.355 . S
C532 C534 1.419 . S
C533 C528 1.425 . S
C533 C530 1.409 . S
C533 C531 1.415 . S
C534 H524 0.930 . S
C534 C532 1.419 . S
C534 C535 1.362 . S
C535 H525 0.930 . S
C535 C528 1.409 . S
C535 C534 1.362 . S
H536 C542 0.930 . S
H537 C545 0.930 . S
H538 C546 0.930 . S
H539 C547 0.930 . S
H540 C550 0.930 . S
H541 C551 0.930 . S
C542 H536 0.930 . S
C542 C543 1.355 . S
C542 C544 1.415 . S
C543 C542 1.355 . S
C543 C545 1.419 . S
C544 C542 1.415 . S
C544 C549 1.425 . S
C544 C551 1.409 . S
C545 H537 0.930 . S
C545 C543 1.419 . S
C545 C546 1.362 . S
C546 H538 0.930 . S
C546 C545 1.362 . S
C546 C549 1.409 . S
C547 H539 0.930 . S
C547 C548 1.355 . S
C547 C549 1.415 . S
C548 C547 1.355 . S
C548 C550 1.419 . S
C549 C544 1.425 . S
C549 C546 1.409 . S
C549 C547 1.415 . S
C550 H540 0.930 . S
C550 C548 1.419 . S
C550 C551 1.362 . S
C551 H541 0.930 . S
C551 C544 1.409 . S
C551 C550 1.362 . S
H552 C558 0.930 . S
H553 C561 0.930 . S
H554 C562 0.930 . S
H555 C563 0.930 . S
H556 C566 0.930 . S
H557 C567 0.930 . S
C558 H552 0.930 . S
C558 C559 1.355 1_455 S
C558 C560 1.415 . S
C559 C558 1.355 1_655 S
C559 C561 1.419 . S
C560 C558 1.415 . S
C560 C565 1.425 1_465 S
C560 C567 1.409 1_565 S
C561 H553 0.930 . S
C561 C559 1.419 . S
C561 C562 1.362 . S
C562 H554 0.930 . S
C562 C561 1.362 . S
C562 C565 1.409 1_565 S
C563 H555 0.930 . S
C563 C564 1.355 1_655 S
C563 C565 1.415 . S
C564 C563 1.355 1_455 S
C564 C566 1.419 . S
C565 C560 1.425 1_645 S
C565 C562 1.409 1_545 S
C565 C563 1.415 . S
C566 H556 0.930 . S
C566 C564 1.419 . S
C566 C567 1.362 . S
C567 H557 0.930 . S
C567 C560 1.409 1_545 S
C567 C566 1.362 . S
H568 C574 0.930 . S
H569 C577 0.930 . S
H570 C578 0.930 . S
H571 C579 0.930 . S
H572 C582 0.930 . S
H573 C583 0.930 . S
C574 H568 0.930 . S
C574 C575 1.355 . S
C574 C576 1.415 . S
C575 C574 1.355 . S
C575 C577 1.419 . S
C576 C574 1.415 . S
C576 C581 1.425 . S
C576 C583 1.409 . S
C577 H569 0.930 . S
C577 C575 1.419 . S
C577 C578 1.362 . S
C578 H570 0.930 . S
C578 C577 1.362 . S
C578 C581 1.409 . S
C579 H571 0.930 . S
C579 C580 1.355 . S
C579 C581 1.415 . S
C580 C579 1.355 . S
C580 C582 1.419 . S
C581 C576 1.425 . S
C581 C578 1.409 . S
C581 C579 1.415 . S
C582 H572 0.930 . S
C582 C580 1.419 . S
C582 C583 1.362 . S
C583 H573 0.930 . S
C583 C576 1.409 . S
C583 C582 1.362 . S
H584 C590 0.930 . S
H585 C593 0.930 . S
H586 C594 0.930 . S
H587 C595 0.930 . S
H588 C598 0.930 . S
H589 C599 0.930 . S
C590 H584 0.930 . S
C590 C591 1.355 . S
C590 C592 1.415 . S
C591 C590 1.355 . S
C591 C593 1.419 . S
C592 C590 1.415 . S
C592 C597 1.425 . S
C592 C599 1.409 . S
C593 H585 0.930 . S
C593 C591 1.419 . S
C593 C594 1.362 . S
C594 H586 0.930 . S
C594 C593 1.362 . S
C594 C597 1.409 . S
C595 H587 0.930 . S
C595 C596 1.355 . S
C595 C597 1.415 . S
C596 C595 1.355 . S
C596 C598 1.419 . S
C597 C592 1.425 . S
C597 C594 1.409 . S
C597 C595 1.415 . S
C598 H588 0.930 . S
C598 C596 1.419 . S
C598 C599 1.362 . S
C599 H589 0.930 . S
C599 C592 1.409 . S
C599 C598 1.362 . S
H600 C606 0.930 . S
H601 C609 0.930 . S
H602 C610 0.930 . S
H603 C611 0.930 . S
H604 C614 0.930 . S
H605 C615 0.930 . S
C606 H600 0.930 . S
C606 C607 1.355 . S
C606 C608 1.415 . S
C607 C606 1.355 . S
C607 C609 1.419 . S
C608 C606 1.415 . S
C608 C613 1.425 . S
C608 C615 1.409 . S
C609 H601 0.930 . S
C609 C607 1.419 . S
C609 C610 1.362 . S
C610 H602 0.930 . S
C610 C609 1.362 . S
C610 C613 1.409 . S
C611 H603 0.930 . S
C611 C612 1.355 . S
C611 C613 1.415 . S
C612 C611 1.355 . S
C612 C614 1.419 . S
C613 C608 1.425 . S
C613 C610 1.409 . S
C613 C611 1.415 . S
C614 H604 0.930 . S
C614 C612 1.419 . S
C614 C615 1.362 . S
C615 H605 0.930 . S
C615 C608 1.409 . S
C615 C614 1.362 . S
H616 C622 0.930 . S
H617 C625 0.930 . S
H618 C626 0.930 . S
H619 C627 0.930 . S
H620 C630 0.933 . S
H621 C631 0.930 . S
C622 H616 0.930 . S
C622 C623 1.356 . S
C622 C624 1.414 . S
C623 C622 1.356 . S
C623 C625 1.418 1_556 S
C624 C622 1.414 . S
C624 C629 1.423 1_566 S
C624 C631 1.412 1_565 S
C625 H617 0.930 . S
C625 C623 1.418 1_554 S
C625 C626 1.362 . S
C626 H618 0.930 . S
C626 C625 1.362 . S
C626 C629 1.409 1_565 S
C627 H619 0.930 . S
C627 C628 1.355 . S
C627 C629 1.415 . S
C628 C627 1.355 . S
C628 C630 1.417 1_554 S
C629 C624 1.423 1_544 S
C629 C626 1.409 1_545 S
C629 C627 1.415 . S
C630 H620 0.933 . S
C630 C628 1.417 1_556 S
C630 C631 1.362 . S
C631 H621 0.930 . S
C631 C624 1.412 1_545 S
C631 C630 1.362 . S
H632 C638 0.930 . S
H633 C641 0.930 . S
H634 C642 0.934 . S
H635 C643 0.930 . S
H636 C646 0.930 . S
H637 C647 0.930 . S
C638 H632 0.930 . S
C638 C639 1.356 . S
C638 C640 1.412 1_556 S
C639 C638 1.356 . S
C639 C641 1.419 . S
C640 C638 1.412 1_554 S
C640 C645 1.425 . S
C640 C647 1.409 . S
C641 H633 0.930 . S
C641 C639 1.419 . S
C641 C642 1.359 1_556 S
C642 H634 0.934 . S
C642 C641 1.359 1_554 S
C642 C645 1.409 . S
C643 H635 0.930 . S
C643 C644 1.355 . S
C643 C645 1.415 . S
C644 C643 1.355 . S
C644 C646 1.419 . S
C645 C640 1.425 . S
C645 C642 1.409 . S
C645 C643 1.415 . S
C646 H636 0.930 . S
C646 C644 1.419 . S
C646 C647 1.362 . S
C647 H637 0.930 . S
C647 C640 1.409 . S
C647 C646 1.362 . S
H648 C654 0.930 . S
H649 C657 0.930 . S
H650 C658 0.930 . S
H651 C659 0.930 . S
H652 C662 0.930 . S
H653 C663 0.930 . S
C654 H648 0.930 . S
C654 C655 1.372 . S
C654 C656 1.415 . S
C655 C654 1.372 . S
C655 C657 1.393 1_556 S
C656 C654 1.415 . S
C656 C661 1.425 1_556 S
C656 C663 1.409 . S
C657 H649 0.930 . S
C657 C655 1.393 1_554 S
C657 C658 1.362 . S
C658 H650 0.930 . S
C658 C657 1.362 . S
C658 C661 1.409 . S
C659 H651 0.930 . S
C659 C660 1.355 . S
C659 C661 1.415 . S
C660 C659 1.355 . S
C660 C662 1.419 1_554 S
C661 C656 1.425 1_554 S
C661 C658 1.409 . S
C661 C659 1.415 . S
C662 H652 0.930 . S
C662 C660 1.419 1_556 S
C662 C663 1.362 . S
C663 H653 0.930 . S
C663 C656 1.409 . S
C663 C662 1.362 . S
H664 C670 0.930 . S
H665 C673 0.930 . S
H666 C674 0.930 1_655 S
H667 C675 0.930 . S
H668 C678 0.930 . S
H669 C679 0.930 . S
C670 H664 0.930 . S
C670 C671 1.355 . S
C670 C672 1.415 . S
C671 C670 1.355 . S
C671 C673 1.419 . S
C672 C670 1.415 . S
C672 C677 1.425 1_455 S
C672 C679 1.409 . S
C673 H665 0.930 . S
C673 C671 1.419 . S
C673 C674 1.362 . S
C674 H666 0.930 1_455 S
C674 C673 1.362 . S
C674 C677 1.409 1_455 S
C675 H667 0.930 . S
C675 C676 1.355 . S
C675 C677 1.415 . S
C676 C675 1.355 . S
C676 C678 1.419 . S
C677 C672 1.425 1_655 S
C677 C674 1.409 1_655 S
C677 C675 1.415 . S
C678 H668 0.930 . S
C678 C676 1.419 . S
C678 C679 1.362 1_655 S
C679 H669 0.930 . S
C679 C672 1.409 . S
C679 C678 1.362 1_455 S
H680 C686 0.930 . S
H681 C689 0.930 . S
H682 C690 0.930 . S
H683 C691 0.930 . S
H684 C694 0.930 . S
H685 C695 0.930 . S
C686 H680 0.930 . S
C686 C687 1.355 . S
C686 C688 1.415 . S
C687 C686 1.355 . S
C687 C689 1.419 . S
C688 C686 1.415 . S
C688 C693 1.425 . S
C688 C695 1.409 . S
C689 H681 0.930 . S
C689 C687 1.419 . S
C689 C690 1.362 . S
C690 H682 0.930 . S
C690 C689 1.362 . S
C690 C693 1.409 . S
C691 H683 0.930 . S
C691 C692 1.355 . S
C691 C693 1.415 . S
C692 C691 1.355 . S
C692 C694 1.419 . S
C693 C688 1.425 . S
C693 C690 1.409 . S
C693 C691 1.415 . S
C694 H684 0.930 . S
C694 C692 1.419 . S
C694 C695 1.362 . S
C695 H685 0.930 . S
C695 C688 1.409 . S
C695 C694 1.362 . S
H696 C702 0.930 . S
H697 C705 0.930 . S
H698 C706 0.930 . S
H699 C707 0.930 . S
H700 C710 0.930 . S
H701 C711 0.930 . S
C702 H696 0.930 . S
C702 C703 1.355 . S
C702 C704 1.415 . S
C703 C702 1.355 . S
C703 C705 1.419 . S
C704 C702 1.415 . S
C704 C709 1.425 . S
C704 C711 1.409 . S
C705 H697 0.930 . S
C705 C703 1.419 . S
C705 C706 1.362 . S
C706 H698 0.930 . S
C706 C705 1.362 . S
C706 C709 1.409 . S
C707 H699 0.930 . S
C707 C708 1.355 . S
C707 C709 1.415 . S
C708 C707 1.355 . S
C708 C710 1.419 . S
C709 C704 1.425 . S
C709 C706 1.409 . S
C709 C707 1.415 . S
C710 H700 0.930 . S
C710 C708 1.419 . S
C710 C711 1.362 . S
C711 H701 0.930 . S
C711 C704 1.409 . S
C711 C710 1.362 . S
H712 C718 0.934 . S
H713 C721 0.930 . S
H714 C722 0.930 1_455 S
H715 C723 0.930 . S
H716 C726 0.930 . S
H717 C727 0.930 . S
C718 H712 0.934 . S
C718 C719 1.347 1_565 S
C718 C720 1.417 . S
C719 C718 1.347 1_545 S
C719 C721 1.419 . S
C720 C718 1.417 . S
C720 C725 1.425 1_665 S
C720 C727 1.409 1_655 S
C721 H713 0.930 . S
C721 C719 1.419 . S
C721 C722 1.362 . S
C722 H714 0.930 1_655 S
C722 C721 1.362 . S
C722 C725 1.409 1_655 S
C723 H715 0.930 . S
C723 C724 1.355 1_545 S
C723 C725 1.415 . S
C724 C723 1.355 1_565 S
C724 C726 1.419 . S
C725 C720 1.425 1_445 S
C725 C722 1.409 1_455 S
C725 C723 1.415 . S
C726 H716 0.930 . S
C726 C724 1.419 . S
C726 C727 1.362 . S
C727 H717 0.930 . S
C727 C720 1.409 1_455 S
C727 C726 1.362 . S
H728 C734 0.930 . S
H729 C737 0.930 . S
H730 C738 0.930 . S
H731 C739 0.930 . S
H732 C742 0.930 . S
H733 C743 0.930 . S
C734 H728 0.930 . S
C734 C735 1.355 . S
C734 C736 1.415 . S
C735 C734 1.355 . S
C735 C737 1.419 . S
C736 C734 1.415 . S
C736 C741 1.425 . S
C736 C743 1.409 . S
C737 H729 0.930 . S
C737 C735 1.419 . S
C737 C738 1.362 . S
C738 H730 0.930 . S
C738 C737 1.362 . S
C738 C741 1.409 . S
C739 H731 0.930 . S
C739 C740 1.355 . S
C739 C741 1.415 . S
C740 C739 1.355 . S
C740 C742 1.419 . S
C741 C736 1.425 . S
C741 C738 1.409 . S
C741 C739 1.415 . S
C742 H732 0.930 . S
C742 C740 1.419 . S
C742 C743 1.362 . S
C743 H733 0.930 . S
C743 C736 1.409 . S
C743 C742 1.362 . S
H744 C750 0.930 . S
H745 C753 0.930 . S
H746 C754 0.930 . S
H747 C755 0.930 . S
H748 C758 0.930 . S
H749 C759 0.930 . S
C750 H744 0.930 . S
C750 C751 1.355 . S
C750 C752 1.415 . S
C751 C750 1.355 . S
C751 C753 1.419 1_565 S
C752 C750 1.415 . S
C752 C757 1.425 1_565 S
C752 C759 1.409 . S
C753 H745 0.930 . S
C753 C751 1.419 1_545 S
C753 C754 1.362 . S
C754 H746 0.930 . S
C754 C753 1.362 . S
C754 C757 1.409 . S
C755 H747 0.930 . S
C755 C756 1.355 . S
C755 C757 1.415 . S
C756 C755 1.355 . S
C756 C758 1.419 1_545 S
C757 C752 1.425 1_545 S
C757 C754 1.409 . S
C757 C755 1.415 . S
C758 H748 0.930 . S
C758 C756 1.419 1_565 S
C758 C759 1.362 . S
C759 H749 0.930 . S
C759 C752 1.409 . S
C759 C758 1.362 . S
C255 C0 1.519 1_545 S
C260 C49 1.541 . S
C271 C18 1.802 1_565 S
C276 C62 1.751 . S
C287 C104 1.542 . S
C292 C55 1.531 . S
C303 C73 1.774 . S
C308 C117 1.777 . S
C319 C93 1.500 . S
C324 C142 1.567 . S
C335 C155 1.791 . S
C340 C111 1.779 . S
C351 C148 1.518 . S
C356 C11 1.599 . S
C367 C166 1.768 . S
C372 C24 1.786 . S
C383 C173 1.598 . S
C388 C186 1.600 . S
C399 C204 1.794 1_565 S
C404 C124 1.775 . S
C415 C228 1.574 . S
C420 C179 1.502 . S
C431 C241 1.773 . S
C436 C135 1.795 . S
C447 C217 1.550 . S
C452 C80 1.548 . S
C463 C31 1.794 . S
C468 C235 1.766 . S
C479 C197 1.547 . S
C484 C86 1.505 . S
C495 C210 1.796 . S
C500 C42 1.767 . S
C511 C10 0.866 . S
C516 C2 0.863 1_456 S
C527 C41 0.826 . S
C532 C33 0.826 1_565 S
C543 C72 0.868 1_545 S
C548 C64 0.868 . S
C559 C95 0.789 . S
C564 C103 0.789 . S
C575 C134 0.876 1_545 S
C580 C126 0.876 . S
C591 C165 0.868 . S
C596 C157 0.868 1_565 S
C607 C196 0.784 . S
C612 C188 0.784 . S
C623 C219 0.779 1_556 S
C628 C227 0.783 . S
C639 C244 1.493 . S
C644 C1 1.493 . S
C655 C27 1.503 . S
C660 C218 1.492 . S
C671 C58 1.443 . S
C676 C63 1.443 . S
C687 C213 1.467 . S
C692 C94 1.467 . S
C703 C120 1.452 . S
C708 C187 1.452 . S
C719 C156 1.482 . S
C724 C151 1.482 . S
C735 C182 1.495 . S
C740 C125 1.495 . S
C751 C89 1.496 . S
C756 C32 1.496 . S
