# Generated by pormake.
# Topology umf, (4)-cn, num edge types: 1
# Building blocks:
#     Node 0, Type 0, BuildingBlock: GALJAG_clean_sbu_0, # of connection points: 4
#     Node 1, Type 0, BuildingBlock: GALJAG_clean_sbu_0, # of connection points: 4
#     Node 2, Type 0, BuildingBlock: GALJAG_clean_sbu_0, # of connection points: 4
#     Node 3, Type 0, BuildingBlock: GALJAG_clean_sbu_0, # of connection points: 4
#     Node 4, Type 0, BuildingBlock: GALJAG_clean_sbu_0, # of connection points: 4
#     Node 5, Type 0, BuildingBlock: GALJAG_clean_sbu_0, # of connection points: 4
#     Node 6, Type 0, BuildingBlock: GALJAG_clean_sbu_0, # of connection points: 4
#     Node 7, Type 0, BuildingBlock: GALJAG_clean_sbu_0, # of connection points: 4
#     Edge 8, Type (0, 0), BuildingBlock: MIFKUJ_clean_linker_0, # of connection points: 2
#     Edge 9, Type (0, 0), BuildingBlock: MIFKUJ_clean_linker_0, # of connection points: 2
#     Edge 10, Type (0, 0), BuildingBlock: MIFKUJ_clean_linker_0, # of connection points: 2
#     Edge 11, Type (0, 0), BuildingBlock: MIFKUJ_clean_linker_0, # of connection points: 2
#     Edge 12, Type (0, 0), BuildingBlock: MIFKUJ_clean_linker_0, # of connection points: 2
#     Edge 13, Type (0, 0), BuildingBlock: MIFKUJ_clean_linker_0, # of connection points: 2
#     Edge 14, Type (0, 0), BuildingBlock: MIFKUJ_clean_linker_0, # of connection points: 2
#     Edge 15, Type (0, 0), BuildingBlock: MIFKUJ_clean_linker_0, # of connection points: 2
#     Edge 16, Type (0, 0), BuildingBlock: MIFKUJ_clean_linker_0, # of connection points: 2
#     Edge 17, Type (0, 0), BuildingBlock: MIFKUJ_clean_linker_0, # of connection points: 2
#     Edge 18, Type (0, 0), BuildingBlock: MIFKUJ_clean_linker_0, # of connection points: 2
#     Edge 19, Type (0, 0), BuildingBlock: MIFKUJ_clean_linker_0, # of connection points: 2
#     Edge 20, Type (0, 0), BuildingBlock: MIFKUJ_clean_linker_0, # of connection points: 2
#     Edge 21, Type (0, 0), BuildingBlock: MIFKUJ_clean_linker_0, # of connection points: 2
#     Edge 22, Type (0, 0), BuildingBlock: MIFKUJ_clean_linker_0, # of connection points: 2
#     Edge 23, Type (0, 0), BuildingBlock: MIFKUJ_clean_linker_0, # of connection points: 2
# Relax obj value: 0.108
# Max RMSD: 0.235
# Mean RMSD: 0.235
data_MOF--net-umf--node1-GALJAG_clean_sbu_0--edge1-MIFKUJ_clean_linker_0
_symmetry_space_group_name_H-M    P1
_symmetry_Int_Tables_number       1
_symmetry_cell_setting            triclinic
loop_
_symmetry_equiv_pos_as_xyz
'x, y, z'
_cell_length_a     36.76893
_cell_length_b     36.713409
_cell_length_c     69.12852
_cell_angle_alpha  90.009115
_cell_angle_beta   89.988727
_cell_angle_gamma 89.96371
loop_
_atom_site_label
_atom_site_type_symbol
_atom_site_fract_x
_atom_site_fract_y
_atom_site_fract_z
_atom_type_partial_charge
In0 In 0.08136 0.25021 0.1419 0.0
O1 O 0.09848 0.25522 0.1099 0.0
O2 O 0.04308 0.24392 0.11692 0.0
C3 C 0.13525 0.26079 0.16727 0.0
C4 C 0.04705 0.31224 0.14974 0.0
C5 C 0.07221 0.17981 0.15034 0.0
O6 O 0.14201 0.25582 0.14943 0.0
O7 O 0.10199 0.26086 0.17176 0.0
O8 O 0.04872 0.20355 0.15492 0.0
O9 O 0.09971 0.19178 0.14145 0.0
C10 C 0.06637 0.24945 0.10386 0.0
O11 O 0.03317 0.28161 0.1539 0.0
O12 O 0.07781 0.31118 0.14154 0.0
In13 In 0.73503 0.0684 0.64728 0.0
O14 O 0.73904 0.08677 0.61556 0.0
O15 O 0.73358 0.03001 0.62227 0.0
C16 C 0.73565 0.11611 0.67639 0.0
C17 C 0.66492 0.05366 0.65121 0.0
C18 C 0.80089 0.04232 0.65481 0.0
O19 O 0.74051 0.12686 0.65906 0.0
O20 O 0.73098 0.08225 0.67846 0.0
O21 O 0.77249 0.02608 0.66067 0.0
O22 O 0.79569 0.0713 0.6453 0.0
C23 C 0.73684 0.05417 0.60935 0.0
O24 O 0.68927 0.03057 0.65564 0.0
O25 O 0.67626 0.08377 0.6446 0.0
In26 In 0.93108 0.7479 0.13856 0.0
O27 O 0.90602 0.7549 0.10819 0.0
O28 O 0.96138 0.73761 0.11118 0.0
C29 C 0.89285 0.75875 0.17087 0.0
C30 C 0.93933 0.67727 0.14548 0.0
C31 C 0.96553 0.81108 0.14228 0.0
O32 O 0.87688 0.75754 0.15451 0.0
O33 O 0.92692 0.75421 0.17042 0.0
O34 O 0.98189 0.781 0.14487 0.0
O35 O 0.93238 0.80881 0.1375 0.0
C36 C 0.93564 0.7459 0.09991 0.0
O37 O 0.96522 0.69978 0.1476 0.0
O38 O 0.90957 0.69057 0.13953 0.0
In39 In 0.23335 0.90765 0.63745 0.0
O40 O 0.26808 0.95549 0.64687 0.0
O41 O 0.29416 0.90864 0.63461 0.0
C42 C 0.16642 0.92444 0.64955 0.0
C43 C 0.22817 0.91995 0.59915 0.0
C44 C 0.24344 0.85311 0.66278 0.0
O45 O 0.19376 0.94354 0.65409 0.0
O46 O 0.17304 0.89735 0.63885 0.0
O47 O 0.23205 0.84672 0.64577 0.0
O48 O 0.25003 0.88608 0.66638 0.0
C49 C 0.29748 0.93999 0.64199 0.0
O50 O 0.23695 0.8888 0.60564 0.0
O51 O 0.22167 0.94359 0.61192 0.0
In52 In 0.06918 0.7673 0.86554 0.0
O53 O 0.08568 0.77124 0.8975 0.0
O54 O 0.03048 0.78184 0.88948 0.0
C55 C 0.12369 0.75279 0.84098 0.0
C56 C 0.04214 0.70018 0.86634 0.0
C57 C 0.05212 0.83237 0.85089 0.0
O58 O 0.13008 0.76702 0.85739 0.0
O59 O 0.09069 0.74614 0.83753 0.0
O60 O 0.03342 0.80429 0.84702 0.0
O61 O 0.07883 0.82729 0.86208 0.0
C62 C 0.05357 0.77901 0.90293 0.0
O63 O 0.02593 0.7257 0.85742 0.0
O64 O 0.07145 0.70898 0.87469 0.0
In65 In 0.24034 0.05129 0.36204 0.0
O66 O 0.23725 0.06844 0.39402 0.0
O67 O 0.23833 0.01179 0.38676 0.0
C68 C 0.24802 0.10452 0.33596 0.0
C69 C 0.30862 0.02883 0.35802 0.0
C70 C 0.17266 0.03364 0.35149 0.0
O71 O 0.24069 0.11195 0.35352 0.0
O72 O 0.25099 0.07105 0.33207 0.0
O73 O 0.19977 0.01469 0.3462 0.0
O74 O 0.18005 0.06049 0.36222 0.0
C75 C 0.23731 0.03564 0.39992 0.0
O76 O 0.28203 0.00887 0.353 0.0
O77 O 0.30038 0.05949 0.36516 0.0
In78 In 0.91722 0.25488 0.87058 0.0
O79 O 0.90459 0.24899 0.90293 0.0
O80 O 0.9596 0.2437 0.89332 0.0
C81 C 0.85693 0.26263 0.84914 0.0
C82 C 0.93976 0.32368 0.86924 0.0
C83 C 0.93767 0.19154 0.85482 0.0
O84 O 0.85562 0.24828 0.86583 0.0
O85 O 0.88789 0.2737 0.84402 0.0
O86 O 0.95424 0.22092 0.85098 0.0
O87 O 0.91161 0.1945 0.86661 0.0
C88 C 0.93771 0.24391 0.90741 0.0
O89 O 0.95472 0.29903 0.85913 0.0
O90 O 0.91385 0.31332 0.87994 0.0
In91 In 0.75543 0.92316 0.37245 0.0
O92 O 0.76063 0.90597 0.40454 0.0
O93 O 0.75302 0.9619 0.39763 0.0
C94 C 0.77068 0.85776 0.3564 0.0
C95 C 0.68596 0.93954 0.36473 0.0
C96 C 0.8075 0.96153 0.35415 0.0
O97 O 0.79357 0.87478 0.36659 0.0
O98 O 0.73956 0.872 0.35609 0.0
O99 O 0.78098 0.94786 0.34512 0.0
O100 O 0.80684 0.9569 0.3722 0.0
C101 C 0.7572 0.93834 0.41066 0.0
O102 O 0.71177 0.95988 0.3593 0.0
O103 O 0.69541 0.9115 0.37401 0.0
H104 H 0.97504 0.32428 0.15745 0.0
H105 H 0.9454 0.3836 0.16258 0.0
H106 H 0.04936 0.43713 0.15738 0.0
H107 H 0.07885 0.37848 0.15196 0.0
H108 H 0.00384 0.46332 0.18849 0.0
H109 H -7e-05 0.43261 0.11923 0.0
H110 H 0.98173 0.3932 0.09199 0.0
H111 H 0.8696 0.40399 0.10845 0.0
H112 H 0.88727 0.44308 0.13595 0.0
H113 H 0.00162 0.64111 0.15461 0.0
H114 H 0.00861 0.57618 0.16106 0.0
H115 H 0.89323 0.56049 0.1531 0.0
H116 H 0.88622 0.62547 0.14609 0.0
H117 H 0.92919 0.51058 0.13421 0.0
H118 H 0.93156 0.55357 0.19849 0.0
H119 H 0.9486 0.59292 0.22592 0.0
H120 H 0.05984 0.55875 0.22061 0.0
H121 H 0.04362 0.5196 0.19295 0.0
C122 C 0.99148 0.34875 0.1576 0.0
C123 C 0.0291 0.34701 0.15416 0.0
C124 C 0.97459 0.38244 0.16055 0.0
C125 C 0.99532 0.41451 0.16036 0.0
C126 C 0.03303 0.41257 0.15767 0.0
C127 C 0.04976 0.37913 0.15444 0.0
C128 C 0.97802 0.45065 0.1614 0.0
C129 C 0.98734 0.47378 0.17673 0.0
C130 C 0.95547 0.46358 0.14635 0.0
C131 C 0.94493 0.44032 0.12976 0.0
C132 C 0.97143 0.4263 0.11712 0.0
C133 C 0.96121 0.40408 0.10163 0.0
C134 C 0.92454 0.39599 0.09853 0.0
C135 C 0.898 0.4102 0.11089 0.0
C136 C 0.9081 0.43238 0.12643 0.0
C137 C 0.9777 0.62386 0.15434 0.0
C138 C 0.94341 0.63825 0.14982 0.0
C139 C 0.98167 0.58682 0.1582 0.0
C140 C 0.95131 0.56362 0.15793 0.0
C141 C 0.91695 0.57798 0.1535 0.0
C142 C 0.91301 0.61504 0.14948 0.0
C143 C 0.95626 0.52404 0.16097 0.0
C144 C 0.94463 0.50013 0.14638 0.0
C145 C 0.97635 0.51034 0.17685 0.0
C146 C 0.98635 0.53371 0.19357 0.0
C147 C 0.9597 0.5546 0.20308 0.0
C148 C 0.96921 0.57686 0.21869 0.0
C149 C 0.00528 0.57836 0.22499 0.0
C150 C 0.03191 0.55755 0.21572 0.0
C151 C 0.02255 0.53525 0.20009 0.0
H152 H 0.01259 0.59562 0.23707 0.0
H153 H 0.91668 0.37879 0.08652 0.0
H154 H 0.31315 0.01107 0.6503 0.0
H155 H 0.37368 0.03755 0.65571 0.0
H156 H 0.42252 0.93189 0.6472 0.0
H157 H 0.36257 0.90547 0.64149 0.0
H158 H 0.44805 0.97258 0.68072 0.0
H159 H 0.42438 0.98549 0.61138 0.0
H160 H 0.38856 0.00751 0.58357 0.0
H161 H 0.40068 0.11772 0.60336 0.0
H162 H 0.43618 0.09624 0.63145 0.0
H163 H 0.63243 0.98798 0.65714 0.0
H164 H 0.56733 0.97567 0.65954 0.0
H165 H 0.54457 0.09055 0.65366 0.0
H166 H 0.60962 0.10278 0.65047 0.0
H167 H 0.50171 0.05475 0.6314 0.0
H168 H 0.53335 0.04484 0.69758 0.0
H169 H 0.56832 0.02499 0.72612 0.0
H170 H 0.54001 0.91366 0.71454 0.0
H171 H 0.50529 0.93276 0.68576 0.0
C172 C 0.33686 0.99359 0.64962 0.0
C173 C 0.33336 0.95634 0.64538 0.0
C174 C 0.37124 0.00868 0.65273 0.0
C175 C 0.40228 0.98652 0.65188 0.0
C176 C 0.39872 0.94927 0.648 0.0
C177 C 0.36455 0.93433 0.64461 0.0
C178 C 0.4389 0.00201 0.65425 0.0
C179 C 0.45998 0.99053 0.66999 0.0
C180 C 0.45364 0.02639 0.64055 0.0
C181 C 0.4325 0.03924 0.62363 0.0
C182 C 0.41911 0.01438 0.60989 0.0
C183 C 0.39894 0.02677 0.59406 0.0
C184 C 0.39224 0.06398 0.59173 0.0
C185 C 0.40582 0.0889 0.6052 0.0
C186 C 0.42597 0.07664 0.62107 0.0
C187 C 0.61352 0.01058 0.65649 0.0
C188 C 0.62592 0.04627 0.65357 0.0
C189 C 0.57636 0.0036 0.65801 0.0
C190 C 0.5511 0.03229 0.6571 0.0
C191 C 0.56357 0.06803 0.65445 0.0
C192 C 0.60069 0.07496 0.65263 0.0
C193 C 0.51164 0.02456 0.65768 0.0
C194 C 0.48986 0.03748 0.64247 0.0
C195 C 0.49613 0.00193 0.67206 0.0
C196 C 0.51687 0.99025 0.68942 0.0
C197 C 0.53477 0.0161 0.70104 0.0
C198 C 0.55453 0.00498 0.71728 0.0
C199 C 0.55643 0.96809 0.72212 0.0
C200 C 0.53851 0.94224 0.71077 0.0
C201 C 0.51874 0.9532 0.6945 0.0
H202 H 0.57175 0.95954 0.7347 0.0
H203 H 0.37662 0.07352 0.57947 0.0
H204 H 0.97729 0.35805 0.8405 0.0
H205 H 0.99265 0.42287 0.83872 0.0
H206 H 0.94318 0.44008 0.89466 0.0
H207 H 0.92634 0.37587 0.89602 0.0
H208 H 0.9248 0.49277 0.87261 0.0
H209 H 0.0379 0.43402 0.88781 0.0
H210 H 0.08814 0.39026 0.88337 0.0
H211 H 0.11257 0.43735 0.82802 0.0
H212 H 0.06215 0.48112 0.83203 0.0
H213 H 0.06915 0.64442 0.8876 0.0
H214 H 0.04992 0.58098 0.88737 0.0
H215 H 0.9671 0.60641 0.84523 0.0
H216 H 0.98588 0.67053 0.84568 0.0
H217 H 0.05119 0.53286 0.85939 0.0
H218 H 0.89485 0.54927 0.85281 0.0
H219 H 0.84698 0.59288 0.86238 0.0
H220 H 0.91324 0.63003 0.90956 0.0
H221 H 0.96124 0.58641 0.90042 0.0
C222 C 0.96987 0.37575 0.85241 0.0
C223 C 0.95078 0.3621 0.86842 0.0
C224 C 0.97867 0.41271 0.85141 0.0
C225 C 0.96937 0.43629 0.86665 0.0
C226 C 0.95044 0.42249 0.88268 0.0
C227 C 0.94103 0.38578 0.8835 0.0
C228 C 0.97949 0.47532 0.86609 0.0
C229 C 0.95243 0.50152 0.86966 0.0
C230 C 0.01563 0.48677 0.86255 0.0
C231 C 0.04602 0.46057 0.86013 0.0
C232 C 0.05383 0.43486 0.87463 0.0
C233 C 0.08235 0.41009 0.8722 0.0
C234 C 0.10346 0.41095 0.8554 0.0
C235 C 0.09615 0.43667 0.84101 0.0
C236 C 0.06763 0.46148 0.84336 0.0
C237 C 0.04669 0.6366 0.87834 0.0
C238 C 0.02898 0.66235 0.86664 0.0
C239 C 0.03587 0.6003 0.87817 0.0
C240 C 0.00715 0.58901 0.86628 0.0
C241 C 0.98914 0.61469 0.85465 0.0
C242 C -0.00013 0.65122 0.8549 0.0
C243 C -0.00342 0.55017 0.86604 0.0
C244 C 0.02352 0.52406 0.8622 0.0
C245 C 0.96067 0.53877 0.87007 0.0
C246 C 0.93179 0.56488 0.87576 0.0
C247 C 0.89914 0.5667 0.86524 0.0
C248 C 0.87199 0.59143 0.87059 0.0
C249 C 0.87712 0.61433 0.88652 0.0
C250 C 0.90936 0.61244 0.89717 0.0
C251 C 0.93656 0.58776 0.89189 0.0
H252 H 0.85609 0.63346 0.89063 0.0
H253 H 0.12554 0.39175 0.85355 0.0
H254 H 0.36765 0.07291 0.35744 0.0
H255 H 0.43152 0.05504 0.35507 0.0
H256 H 0.39993 0.94212 0.35151 0.0
H257 H 0.33557 0.95992 0.3535 0.0
H258 H 0.4546 0.96226 0.38108 0.0
H259 H 0.4292 0.97539 0.31294 0.0
H260 H 0.40651 0.00802 0.2842 0.0
H261 H 0.48323 0.0941 0.29421 0.0
H262 H 0.50602 0.06225 0.3232 0.0
H263 H 0.62933 0.89254 0.36667 0.0
H264 H 0.56492 0.90609 0.36236 0.0
H265 H 0.59102 0.01854 0.35055 0.0
H266 H 0.65595 0.00469 0.35413 0.0
H267 H 0.53798 -0.00277 0.32775 0.0
H268 H 0.5612 0.99127 0.39543 0.0
H269 H 0.58398 0.96506 0.42594 0.0
H270 H 0.5119 0.87389 0.41945 0.0
H271 H 0.48903 0.89933 0.38872 0.0
C272 C 0.37428 0.04428 0.35601 0.0
C273 C 0.3468 0.01772 0.3557 0.0
C274 C 0.4107 0.03418 0.35458 0.0
C275 C 0.42021 -0.00264 0.35304 0.0
C276 C 0.39289 0.9707 0.35262 0.0
C277 C 0.3563 0.98086 0.35371 0.0
C278 C 0.45889 0.98687 0.35294 0.0
C279 C 0.47279 0.96916 0.36928 0.0
C280 C 0.48258 -0.00248 0.33787 0.0
C281 C 0.4691 0.01657 0.32034 0.0
C282 C 0.44103 0.00143 0.30911 0.0
C283 C 0.42818 0.01975 0.29276 0.0
C284 C 0.44336 0.05315 0.28741 0.0
C285 C 0.47148 0.06824 0.29838 0.0
C286 C 0.4844 0.05004 0.31476 0.0
C287 C 0.62136 0.92011 0.36303 0.0
C288 C 0.64747 0.9477 0.36093 0.0
C289 C 0.58456 0.92783 0.36063 0.0
C290 C 0.57313 0.96348 0.35656 0.0
C291 C 0.59928 0.99087 0.35377 0.0
C292 C 0.63627 0.98299 0.35587 0.0
C293 C 0.53385 0.97222 0.35588 0.0
C294 C 0.51983 0.98988 0.33949 0.0
C295 C 0.5101 0.96239 0.37115 0.0
C296 C 0.52368 0.94702 0.38966 0.0
C297 C 0.5504 0.96549 0.40042 0.0
C298 C 0.5633 0.9508 0.41777 0.0
C299 C 0.54947 0.91777 0.4246 0.0
C300 C 0.52263 0.89944 0.41412 0.0
C301 C 0.50967 0.91399 0.39674 0.0
H302 H 0.55949 0.90644 0.43804 0.0
H303 H 0.43337 0.0673 0.27474 0.0
H304 H 0.89803 0.24825 0.94098 0.0
H305 H 0.92149 0.24768 0.9742 0.0
H306 H 0.03049 0.23282 0.95245 0.0
H307 H 0.00725 0.2327 0.9194 0.0
H308 H 0.0202 0.19169 0.98367 0.0
H309 H 0.0002 0.31658 0.96644 0.0
H310 H 0.96489 0.36926 0.95471 0.0
H311 H 0.88961 0.35659 1.00172 0.0
H312 H 0.92418 0.30345 0.01357 0.0
H313 H 0.11034 0.24718 0.07158 0.0
H314 H 0.09051 0.24534 0.03756 0.0
H315 H 0.97851 0.25017 0.05595 0.0
H316 H -0.00211 0.25177 0.08962 0.0
H317 H 0.99315 0.29744 0.026 0.0
H318 H 0.01295 0.17128 0.04256 0.0
H319 H 0.04898 0.11904 0.05422 0.0
H320 H 0.12612 0.13531 0.0084 0.0
H321 H 0.09077 0.18799 0.99661 0.0
C322 C 0.92693 0.24449 0.94332 0.0
C323 C 0.9508 0.24074 0.92758 0.0
C324 C 0.94034 0.24436 0.96228 0.0
C325 C 0.97786 0.24076 0.9658 0.0
C326 C 0.00149 0.23571 0.95011 0.0
C327 C 0.98813 0.23576 0.93121 0.0
C328 C 0.99276 0.24345 0.98575 0.0
C329 C 0.01464 0.21503 0.99283 0.0
C330 C 0.98531 0.27374 0.9978 0.0
C331 C 0.96458 0.30581 0.99077 0.0
C332 C 0.97596 0.32486 0.97419 0.0
C333 C 0.9561 0.35482 0.96753 0.0
C334 C 0.92498 0.36621 0.97744 0.0
C335 C 0.9137 0.3477 0.99405 0.0
C336 C 0.93342 0.31767 1.00075 0.0
C337 C 0.08155 0.24796 0.06829 0.0
C338 C 0.05569 0.24947 0.08324 0.0
C339 C 0.07025 0.24679 0.04891 0.0
C340 C 0.033 0.24746 0.04427 0.0
C341 C 0.00734 0.24967 0.0592 0.0
C342 C 0.01852 0.25043 0.07845 0.0
C343 C 0.02025 0.24558 0.02394 0.0
C344 C -0.00119 0.2742 0.01678 0.0
C345 C 0.02825 0.21558 0.01182 0.0
C346 C 0.04945 0.18384 0.01884 0.0
C347 C 0.03777 0.16392 0.03508 0.0
C348 C 0.05803 0.13419 0.04169 0.0
C349 C 0.08989 0.12394 0.0321 0.0
C350 C 0.10148 0.14333 0.01584 0.0
C351 C 0.08133 0.17311 0.00917 0.0
H352 H 0.10553 0.10091 0.03724 0.0
H353 H 0.90964 0.38942 0.97226 0.0
H354 H 0.73161 0.98612 0.59441 0.0
H355 H 0.73618 0.96737 0.56075 0.0
H356 H 0.75095 0.07928 0.54351 0.0
H357 H 0.74606 0.09854 0.57753 0.0
H358 H 0.70255 0.04166 0.51991 0.0
H359 H 0.82298 0.02313 0.54516 0.0
H360 H 0.86809 -0.0002 0.56847 0.0
H361 H 0.83492 0.89009 0.55619 0.0
H362 H 0.78922 0.9128 0.533 0.0
H363 H 0.76086 0.00671 0.42523 0.0
H364 H 0.75846 0.02569 0.45892 0.0
H365 H 0.75107 0.91336 0.4768 0.0
H366 H 0.75434 0.89395 0.44277 0.0
H367 H 0.79585 0.95114 0.50021 0.0
H368 H 0.67547 0.96758 0.47593 0.0
H369 H 0.62854 0.98894 0.45312 0.0
H370 H 0.65909 0.0999 0.46409 0.0
H371 H 0.70657 0.07917 0.48679 0.0
C372 C 0.73581 0.00689 0.58351 0.0
C373 C 0.73867 0.04387 0.58866 0.0
C374 C 0.73856 0.99604 0.56425 0.0
C375 C 0.74448 0.02182 0.54965 0.0
C376 C 0.74657 0.05892 0.55461 0.0
C377 C 0.74383 0.06988 0.574 0.0
C378 C 0.74833 0.00964 0.52926 0.0
C379 C 0.72333 0.02237 0.51551 0.0
C380 C 0.77466 0.98344 0.5237 0.0
C381 C 0.80247 0.9697 0.53745 0.0
C382 C 0.82513 0.99405 0.54752 0.0
C383 C 0.85084 0.98093 0.5607 0.0
C384 C 0.85432 0.94349 0.56384 0.0
C385 C 0.83218 0.91909 0.55375 0.0
C386 C 0.8064 0.93206 0.54058 0.0
C387 C 0.75882 0.98593 0.43629 0.0
C388 C 0.75748 0.9488 0.43134 0.0
C389 C 0.75729 -0.00312 0.45558 0.0
C390 C 0.75381 0.97104 0.47039 0.0
C391 C 0.75353 0.9338 0.46558 0.0
C392 C 0.75535 0.92273 0.44617 0.0
C393 C 0.75017 0.98329 0.4908 0.0
C394 C 0.77513 0.97052 0.50457 0.0
C395 C 0.72356 0.00918 0.49644 0.0
C396 C 0.6948 0.0218 0.48294 0.0
C397 C 0.67235 -0.00347 0.47338 0.0
C398 C 0.64563 0.00852 0.46048 0.0
C399 C 0.6409 0.04574 0.45712 0.0
C400 C 0.66281 0.07106 0.4667 0.0
C401 C 0.68961 0.05921 0.4796 0.0
H402 H 0.6202 0.05497 0.44712 0.0
H403 H 0.87421 0.9334 0.57405 0.0
H404 H 0.99302 0.71769 0.08055 0.0
H405 H 0.00905 0.72599 0.04672 0.0
H406 H 0.90944 0.78538 0.03721 0.0
H407 H 0.89292 0.77704 0.07149 0.0
H408 H 0.92906 0.73582 0.00649 0.0
H409 H 0.98236 0.83307 0.0431 0.0
H410 H 0.01715 0.85935 0.07021 0.0
H411 H 0.11201 0.79982 0.05245 0.0
H412 H 0.07762 0.7727 0.02541 0.0
H413 H 0.9897 0.80526 0.91696 0.0
H414 H 0.96725 0.80252 0.95014 0.0
H415 H 0.06846 0.75406 0.96846 0.0
H416 H 0.09149 0.75752 0.93518 0.0
H417 H 0.04478 0.80189 0.99474 0.0
H418 H 0.99216 0.70202 0.95966 0.0
H419 H 0.95814 0.67312 0.93302 0.0
H420 H 0.86306 0.73491 0.94808 0.0
H421 H 0.89669 0.76457 0.97464 0.0
C422 C 0.97419 0.7322 0.07128 0.0
C423 C 0.94183 0.74706 0.07875 0.0
C424 C 0.98349 0.73697 0.05192 0.0
C425 C 0.9608 0.75687 0.03955 0.0
C426 C 0.92742 0.7701 0.04659 0.0
C427 C 0.918 0.76529 0.06613 0.0
C428 C 0.97334 0.76507 0.0196 0.0
C429 C 0.95396 0.75087 1.00386 0.0
C430 C 0.00636 0.78391 0.01625 0.0
C431 C 0.02732 0.80065 0.0323 0.0
C432 C 0.01058 0.8254 0.04505 0.0
C433 C 0.03023 0.84046 0.0604 0.0
C434 C 0.06675 0.83121 0.06307 0.0
C435 C 0.08371 0.80695 0.05037 0.0
C436 C 0.06416 0.79175 0.03501 0.0
C437 C 0.0074 0.79441 0.92809 0.0
C438 C 0.04231 0.78138 0.92345 0.0
C439 C 0.99441 0.79266 0.94704 0.0
C440 C 0.0158 0.77732 0.96174 0.0
C441 C 0.05136 0.76581 0.95733 0.0
C442 C 0.06453 0.76784 0.93833 0.0
C443 C 0.00069 0.7724 0.98153 0.0
C444 C 0.01966 0.78716 0.99729 0.0
C445 C 0.96742 0.75386 0.98488 0.0
C446 C 0.94706 0.73579 0.96902 0.0
C447 C 0.96407 0.70963 0.9572 0.0
C448 C 0.94485 0.69309 0.94213 0.0
C449 C 0.90849 0.70225 0.93883 0.0
C450 C 0.89125 0.72788 0.95063 0.0
C451 C 0.91036 0.74455 0.96571 0.0
H452 H 0.89364 0.68946 0.92714 0.0
H453 H 0.08191 0.84289 0.07497 0.0
H454 H 0.22037 0.07762 0.43168 0.0
H455 H 0.21807 0.05779 0.46559 0.0
H456 H 0.25242 0.95005 0.44845 0.0
H457 H 0.25334 0.96926 0.41476 0.0
H458 H 0.20086 0.94335 0.47299 0.0
H459 H 0.31055 0.01454 0.47117 0.0
H460 H 0.34792 0.06916 0.4652 0.0
H461 H 0.28324 0.12997 0.50562 0.0
H462 H 0.24518 0.07581 0.51165 0.0
H463 H 0.24854 0.87825 0.56781 0.0
H464 H 0.24987 0.89722 0.53371 0.0
H465 H 0.20644 0.00219 0.54969 0.0
H466 H 0.20547 0.98373 0.5835 0.0
H467 H 0.26297 0.00992 0.52591 0.0
H468 H 0.15361 0.9373 0.52756 0.0
H469 H 0.11776 0.88171 0.53364 0.0
H470 H 0.18433 0.82233 0.49348 0.0
H471 H 0.22088 0.87748 0.48735 0.0
C472 C 0.22749 0.04977 0.43522 0.0
C473 C 0.23695 0.025 0.42058 0.0
C474 C 0.22635 0.03846 0.4546 0.0
C475 C 0.23542 0.00242 0.45967 0.0
C476 C 0.24514 0.9779 0.44499 0.0
C477 C 0.24574 0.98899 0.42569 0.0
C478 C 0.23427 0.9897 0.48015 0.0
C479 C 0.21488 0.95772 0.4845 0.0
C480 C 0.25195 0.00864 0.49531 0.0
C481 C 0.2748 0.04122 0.4917 0.0
C482 C 0.30413 0.03964 0.47867 0.0
C483 C 0.32546 0.0705 0.4753 0.0
C484 C 0.31789 0.10304 0.48498 0.0
C485 C 0.28903 0.10476 0.49811 0.0
C486 C 0.26759 0.07399 0.50152 0.0
C487 C 0.23901 0.90521 0.56397 0.0
C488 C 0.22693 0.92946 0.57834 0.0
C489 C 0.23973 0.91604 0.54451 0.0
C490 C 0.22816 0.95116 0.53912 0.0
C491 C 0.21567 0.97508 0.55347 0.0
C492 C 0.21501 0.96437 0.57281 0.0
C493 C 0.22964 0.96365 0.51867 0.0
C494 C 0.24906 0.99558 0.51435 0.0
C495 C 0.21224 0.94453 0.50352 0.0
C496 C 0.1902 0.91141 0.50715 0.0
C497 C 0.16078 0.91231 0.52014 0.0
C498 C 0.1403 0.8809 0.52358 0.0
C499 C 0.14882 0.84848 0.514 0.0
C500 C 0.17779 0.84744 0.50092 0.0
C501 C 0.19837 0.87877 0.49744 0.0
H502 H 0.13294 0.82419 0.51667 0.0
H503 H 0.33444 0.1269 0.48236 0.0
H504 H 0.20296 0.22975 0.16671 0.0
H505 H 0.23952 0.21506 0.19537 0.0
H506 H 0.16575 0.27713 0.23101 0.0
H507 H 0.12948 0.29193 0.20256 0.0
H508 H 0.23576 0.27727 0.24602 0.0
H509 H 0.14589 0.19214 0.22187 0.0
H510 H 0.11805 0.15312 0.19687 0.0
H511 H 0.21714 0.09178 0.19224 0.0
H512 H 0.24582 0.13097 0.21693 0.0
H513 H 0.21573 0.17192 0.33344 0.0
H514 H 0.21199 0.21008 0.30429 0.0
H515 H 0.28415 0.13626 0.27446 0.0
H516 H 0.28719 0.09796 0.30319 0.0
H517 H 0.22295 0.14392 0.25533 0.0
H518 H 0.30897 0.22485 0.28456 0.0
H519 H 0.33395 0.26441 0.31013 0.0
H520 H 0.23979 0.33332 0.30657 0.0
H521 H 0.21398 0.29387 0.28116 0.0
C522 C 0.19553 0.24151 0.18053 0.0
C523 C 0.16316 0.26142 0.18254 0.0
C524 C 0.21631 0.23302 0.19689 0.0
C525 C 0.20486 0.24443 0.21535 0.0
C526 C 0.175 0.26795 0.21695 0.0
C527 C 0.15419 0.27622 0.20068 0.0
C528 C 0.21903 0.22666 0.23306 0.0
C529 C 0.23317 0.24811 0.24811 0.0
C530 C 0.21551 0.18861 0.23573 0.0
C531 C 0.19815 0.16477 0.22105 0.0
C532 C 0.16183 0.17052 0.2154 0.0
C533 C 0.14589 0.14837 0.2013 0.0
C534 C 0.16585 0.12005 0.19294 0.0
C535 C 0.20176 0.11379 0.19869 0.0
C536 C 0.21788 0.13598 0.21272 0.0
C537 C 0.23152 0.16453 0.32081 0.0
C538 C 0.25137 0.13186 0.32044 0.0
C539 C 0.22945 0.18632 0.30417 0.0
C540 C 0.24769 0.17592 0.28713 0.0
C541 C 0.26966 0.1447 0.28735 0.0
C542 C 0.27136 0.12285 0.30379 0.0
C543 C 0.24024 0.19436 0.26842 0.0
C544 C 0.22666 0.17297 0.25321 0.0
C545 C 0.24397 0.23241 0.26578 0.0
C546 C 0.25941 0.2562 0.28106 0.0
C547 C 0.29344 0.24826 0.28934 0.0
C548 C 0.30778 0.27071 0.30378 0.0
C549 C 0.28843 0.30132 0.31 0.0
C550 C 0.25473 0.30958 0.30175 0.0
C551 C 0.24026 0.28721 0.28731 0.0
H552 H 0.29958 0.31866 0.32118 0.0
H553 H 0.15347 0.10286 0.18207 0.0
H554 H 0.79966 0.21516 0.84837 0.0
H555 H 0.76453 0.19918 0.81947 0.0
H556 H 0.81375 0.28838 0.78846 0.0
H557 H 0.84852 0.30461 0.81724 0.0
H558 H 0.7449 0.2731 0.77452 0.0
H559 H 0.85674 0.21137 0.78899 0.0
H560 H 0.89944 0.17626 0.80922 0.0
H561 H 0.82314 0.08793 0.81206 0.0
H562 H 0.77963 0.12288 0.79215 0.0
H563 H 0.76255 0.18607 0.67973 0.0
H564 H 0.77108 0.2204 0.71004 0.0
H565 H 0.7191 0.13377 0.74183 0.0
H566 H 0.71067 0.09973 0.71202 0.0
H567 H 0.78747 0.15003 0.75526 0.0
H568 H 0.67741 0.21345 0.73718 0.0
H569 H 0.63877 0.25049 0.71566 0.0
H570 H 0.71701 0.3372 0.71747 0.0
H571 H 0.75638 0.30045 0.73879 0.0
C572 C 0.80169 0.23233 0.83567 0.0
C573 C 0.82721 0.26069 0.83488 0.0
C574 C 0.78178 0.22309 0.81914 0.0
C575 C 0.78727 0.24211 0.80172 0.0
C576 C 0.80927 0.27324 0.8017 0.0
C577 C 0.82922 0.28239 0.81815 0.0
C578 C 0.77596 0.22597 0.78302 0.0
C579 C 0.75416 0.24621 0.77025 0.0
C580 C 0.78857 0.19112 0.77738 0.0
C581 C 0.81474 0.16993 0.78929 0.0
C582 C 0.84892 0.1846 0.79408 0.0
C583 C 0.87329 0.16472 0.80547 0.0
C584 C 0.86397 0.12991 0.81195 0.0
C585 C 0.83028 0.11493 0.80705 0.0
C586 C 0.80574 0.13477 0.79573 0.0
C587 C 0.75235 0.17484 0.69316 0.0
C588 C 0.73641 0.14006 0.69356 0.0
C589 C 0.75717 0.19441 0.71042 0.0
C590 C 0.74588 0.17944 0.72817 0.0
C591 C 0.72821 0.14568 0.72832 0.0
C592 C 0.72348 0.12626 0.71124 0.0
C593 C 0.75549 0.19663 0.74688 0.0
C594 C 0.77762 0.17669 0.75958 0.0
C595 C 0.7437 0.23191 0.7522 0.0
C596 C 0.72002 0.25403 0.73942 0.0
C597 C 0.68654 0.24028 0.73284 0.0
C598 C 0.66447 0.26125 0.72071 0.0
C599 C 0.67548 0.29614 0.71516 0.0
C600 C 0.70854 0.31016 0.72177 0.0
C601 C 0.73073 0.28928 0.73389 0.0
H602 H 0.65835 0.31234 0.70577 0.0
H603 H 0.8829 0.11449 0.82071 0.0
H604 H 0.7261 0.81679 0.33359 0.0
H605 H 0.74245 0.79036 0.3023 0.0
H606 H 0.85545 0.81361 0.31345 0.0
H607 H 0.83934 0.84004 0.34474 0.0
H608 H 0.82716 0.84896 0.28116 0.0
H609 H 0.82838 0.72773 0.3081 0.0
H610 H 0.80252 0.67517 0.3255 0.0
H611 H 0.7163 0.66799 0.28379 0.0
H612 H 0.74138 0.72086 0.26627 0.0
H613 H 0.92497 0.77793 0.20441 0.0
H614 H 0.89704 0.78829 0.23574 0.0
H615 H 0.79134 0.76534 0.21163 0.0
H616 H 0.81951 0.75496 0.17964 0.0
H617 H 0.80672 0.73022 0.24869 0.0
H618 H 0.80738 0.84714 0.22013 0.0
H619 H 0.83122 0.90045 0.20261 0.0
H620 H 0.90971 0.91837 0.24757 0.0
H621 H 0.88735 0.86436 0.26502 0.0
C622 C 0.7546 0.8149 0.32973 0.0
C623 C 0.78141 0.83086 0.34153 0.0
C624 C 0.76387 0.79983 0.31181 0.0
C625 C 0.80009 0.80047 0.30546 0.0
C626 C 0.82729 0.81305 0.31806 0.0
C627 C 0.81807 0.82789 0.33603 0.0
C628 C 0.8089 0.7937 0.28483 0.0
C629 C 0.82319 0.82283 0.27413 0.0
C630 C 0.80168 0.76024 0.27544 0.0
C631 C 0.78653 0.72853 0.286 0.0
C632 C 0.8037 0.71519 0.30274 0.0
C633 C 0.78923 0.68528 0.3126 0.0
C634 C 0.75772 0.66832 0.30579 0.0
C635 C 0.74067 0.68119 0.28907 0.0
C636 C 0.75502 0.71111 0.27916 0.0
C637 C 0.89573 0.77504 0.20564 0.0
C638 C 0.87439 0.76567 0.18952 0.0
C639 C 0.87983 0.78104 0.22361 0.0
C640 C 0.84216 0.77775 0.22598 0.0
C641 C 0.82052 0.76801 0.21003 0.0
C642 C 0.83654 0.76233 0.19181 0.0
C643 C 0.82629 0.78513 0.2453 0.0
C644 C 0.81045 0.75638 0.25571 0.0
C645 C 0.83169 0.81915 0.25447 0.0
C646 C 0.84587 0.85134 0.24381 0.0
C647 C 0.83013 0.86205 0.22615 0.0
C648 C 0.8434 0.89243 0.21621 0.0
C649 C 0.87214 0.91265 0.2239 0.0
C650 C 0.88767 0.90252 0.24154 0.0
C651 C 0.87473 0.87197 0.25145 0.0
H652 H 0.88224 0.93626 0.21622 0.0
H653 H 0.74657 0.64516 0.31344 0.0
H654 H 0.28567 0.85552 0.69471 0.0
H655 H 0.27669 0.82169 0.72461 0.0
H656 H 0.19415 0.75653 0.69687 0.0
H657 H 0.20298 0.79085 0.66672 0.0
H658 H 0.16837 0.79073 0.72804 0.0
H659 H 0.27199 0.71714 0.71518 0.0
H660 H 0.33526 0.70347 0.70588 0.0
H661 H 0.37437 0.76484 0.75448 0.0
H662 H 0.31133 0.77935 0.76393 0.0
H663 H 0.12105 0.70357 0.81208 0.0
H664 H 0.15481 0.70578 0.78177 0.0
H665 H 0.22091 0.79304 0.80422 0.0
H666 H 0.18698 0.79087 0.83489 0.0
H667 H 0.25657 0.74002 0.7753 0.0
H668 H 0.15432 0.82192 0.78426 0.0
H669 H 0.0914 0.83561 0.79429 0.0
H670 H 0.05081 0.7592 0.75252 0.0
H671 H 0.11361 0.74449 0.74253 0.0
C672 C 0.26645 0.83315 0.69478 0.0
C673 C 0.24481 0.82593 0.67847 0.0
C674 C 0.26148 0.81367 0.71188 0.0
C675 C 0.23474 0.78655 0.71303 0.0
C676 C 0.215 0.77734 0.69629 0.0
C677 C 0.22019 0.79675 0.67904 0.0
C678 C 0.22359 0.77257 0.73231 0.0
C679 C 0.18756 0.7788 0.73814 0.0
C680 C 0.24886 0.7582 0.7458 0.0
C681 C 0.28687 0.74954 0.74019 0.0
C682 C 0.29407 0.72798 0.7238 0.0
C683 C 0.32991 0.72003 0.71852 0.0
C684 C 0.35882 0.73333 0.72956 0.0
C685 C 0.35194 0.75456 0.74593 0.0
C686 C 0.31615 0.7626 0.75128 0.0
C687 C 0.14363 0.72238 0.81084 0.0
C688 C 0.15111 0.74745 0.82568 0.0
C689 C 0.16297 0.72348 0.79354 0.0
C690 C 0.18995 0.74986 0.79071 0.0
C691 C 0.2002 0.7724 0.80621 0.0
C692 C 0.18082 0.77119 0.82369 0.0
C693 C 0.20169 0.75835 0.77073 0.0
C694 C 0.23755 0.75138 0.76493 0.0
C695 C 0.17646 0.77234 0.75719 0.0
C696 C 0.13865 0.78179 0.76281 0.0
C697 C 0.13199 0.80782 0.77733 0.0
C698 C 0.09636 0.81578 0.783 0.0
C699 C 0.06713 0.79821 0.77409 0.0
C700 C 0.07348 0.77273 0.75944 0.0
C701 C 0.10909 0.76457 0.75377 0.0
H702 H 0.03956 0.8044 0.7785 0.0
H703 H 0.38654 0.72714 0.72544 0.0
H704 H 0.12252 0.12627 0.14573 0.0
H705 H 0.11309 0.06065 0.14855 0.0
H706 H 0.00188 0.07926 0.16592 0.0
H707 H 0.01136 0.14511 0.16348 0.0
H708 H 0.03215 0.02304 0.18579 0.0
H709 H 0.02194 0.062 0.1194 0.0
H710 H 0.04291 0.09175 0.08944 0.0
H711 H 0.13412 0.01882 0.08669 0.0
H712 H 0.11395 0.98898 0.11685 0.0
H713 H 0.93179 0.87513 0.14938 0.0
H714 H 0.95972 0.93452 0.15484 0.0
H715 H 0.06621 0.88713 0.14755 0.0
H716 H 0.03829 0.82694 0.14248 0.0
H717 H 0.04854 0.95376 0.12471 0.0
H718 H 0.05017 0.90833 0.1892 0.0
H719 H 0.02519 0.87887 0.21833 0.0
H720 H 0.94609 0.96429 0.22393 0.0
H721 H 0.96995 0.99381 0.19452 0.0
C722 C 0.09616 0.11639 0.15036 0.0
C723 C 0.06745 0.14066 0.1541 0.0
C724 C 0.09086 0.07893 0.15197 0.0
C725 C 0.05664 0.06517 0.1571 0.0
C726 C 0.02848 0.08941 0.16188 0.0
C727 C 0.03386 0.12695 0.16041 0.0
C728 C 0.04928 0.02566 0.15603 0.0
C729 C 0.03564 0.00787 0.17245 0.0
C730 C 0.05463 0.00581 0.13869 0.0
C731 C 0.0667 0.02357 0.12051 0.0
C732 C 0.04663 0.05251 0.11249 0.0
C733 C 0.05834 0.06936 0.09546 0.0
C734 C 0.08989 0.05726 0.08619 0.0
C735 C 0.10973 0.02822 0.09391 0.0
C736 C 0.09818 0.01132 0.11097 0.0
C737 C 0.96116 0.87729 0.14897 0.0
C738 C 0.98296 0.84658 0.14547 0.0
C739 C 0.97703 0.91114 0.15219 0.0
C740 C 0.01492 0.91494 0.15173 0.0
C741 C 0.03689 0.88447 0.14806 0.0
C742 C 0.02098 0.85028 0.14519 0.0
C743 C 0.0309 0.95138 0.15437 0.0
C744 C 0.04592 0.9687 0.13819 0.0
C745 C 0.02635 0.97086 0.17184 0.0
C746 C 0.01171 0.95315 0.18953 0.0
C747 C 0.02716 0.92063 0.19649 0.0
C748 C 0.01321 0.90392 0.21307 0.0
C749 C 0.98399 0.91962 0.22293 0.0
C750 C 0.96864 0.95208 0.21624 0.0
C751 C 0.98238 0.96882 0.19961 0.0
H752 H 0.97338 0.90668 0.23581 0.0
H753 H 0.09891 0.07034 0.07301 0.0
H754 H 0.10368 0.89662 0.63526 0.0
H755 H 0.04179 0.91506 0.64308 0.0
H756 H 0.08286 0.98989 0.68604 0.0
H757 H 0.14527 0.97255 0.67759 0.0
H758 H -0.00157 0.91425 0.67238 0.0
H759 H 0.02989 0.0653 0.68653 0.0
H760 H 0.07666 0.11127 0.67876 0.0
H761 H 0.10276 0.0541 0.62636 0.0
H762 H 0.05588 0.00809 0.63372 0.0
H763 H 0.82435 -0.00047 0.68471 0.0
H764 H 0.88694 0.97919 0.69083 0.0
H765 H 0.92199 0.03274 0.63839 0.0
H766 H 0.86038 0.05465 0.63297 0.0
H767 H 0.96901 0.04517 0.66406 0.0
H768 H 0.9052 0.93639 0.64282 0.0
H769 H 0.85776 0.88904 0.64482 0.0
H770 H 0.89504 0.85925 0.70153 0.0
H771 H 0.94248 0.90673 0.69992 0.0
C772 C 0.09953 0.91684 0.64646 0.0
C773 C 0.12919 0.93359 0.65563 0.0
C774 C 0.06412 0.92717 0.65103 0.0
C775 C 0.05768 0.95415 0.665 0.0
C776 C 0.08724 0.96948 0.67497 0.0
C777 C 0.12281 0.95959 0.67014 0.0
C778 C 0.0202 0.96804 0.66772 0.0
C779 C 0.99198 0.94294 0.67076 0.0
C780 C 0.01175 0.0054 0.66547 0.0
C781 C 0.03978 0.03305 0.66082 0.0
C782 C 0.0456 0.06261 0.67335 0.0
C783 C 0.07211 0.08866 0.66901 0.0
C784 C 0.09277 0.08552 0.65212 0.0
C785 C 0.08685 0.05642 0.63948 0.0
C786 C 0.06034 0.03035 0.64373 0.0
C787 C 0.84559 0.00684 0.67457 0.0
C788 C 0.83777 0.02857 0.65839 0.0
C789 C 0.88124 0.9952 0.67803 0.0
C790 C 0.9092 0.00423 0.665 0.0
C791 C 0.90106 0.02572 0.64877 0.0
C792 C 0.8658 0.03806 0.64561 0.0
C793 C 0.947 0.99118 0.66777 0.0
C794 C 0.97538 0.01655 0.66606 0.0
C795 C 0.95546 0.95388 0.67039 0.0
C796 C 0.92703 0.92535 0.67135 0.0
C797 C 0.90309 0.91989 0.65576 0.0
C798 C 0.87625 0.89302 0.65681 0.0
C799 C 0.8733 0.87124 0.67332 0.0
C800 C 0.89729 0.8762 0.68877 0.0
C801 C 0.92416 0.90307 0.6878 0.0
H802 H 0.8525 0.85044 0.67411 0.0
H803 H 0.1133 0.10569 0.6488 0.0
H804 H 0.91566 0.1255 0.86746 0.0
H805 H 0.9354 0.06601 0.85633 0.0
H806 H 0.00168 0.1167 0.81235 0.0
H807 H 0.98299 0.17701 0.82417 0.0
H808 H 0.93108 0.02727 0.82568 0.0
H809 H 0.07695 0.06363 0.80536 0.0
H810 H 0.12309 0.11116 0.8114 0.0
H811 H 0.07669 0.13191 0.86735 0.0
H812 H 0.03056 0.08428 0.86168 0.0
H813 H 0.0123 0.85103 0.81881 0.0
H814 H 0.9956 0.91282 0.8084 0.0
H815 H 0.05305 0.95723 0.85755 0.0
H816 H 0.0713 0.89631 0.86717 0.0
H817 H 0.06299 0.00017 0.82963 0.0
H818 H 0.95547 0.93832 0.85593 0.0
H819 H 0.90858 0.89023 0.8561 0.0
H820 H 0.87685 0.91976 0.79841 0.0
H821 H 0.92382 0.96782 0.79786 0.0
C822 C 0.93434 0.12408 0.85536 0.0
C823 C 0.94825 0.15585 0.84686 0.0
C824 C 0.94538 0.08996 0.84887 0.0
C825 C 0.97027 0.08676 0.83357 0.0
C826 C 0.9829 0.11849 0.82437 0.0
C827 C 0.97227 0.15287 0.83113 0.0
C828 C 0.98476 0.05012 0.82874 0.0
C829 C 0.96 0.02139 0.82624 0.0
C830 C 0.02244 0.04233 0.82937 0.0
C831 C 0.05008 0.07084 0.83297 0.0
C832 C 0.07666 0.07837 0.81893 0.0
C833 C 0.10279 0.10529 0.8223 0.0
C834 C 0.10272 0.12465 0.83971 0.0
C835 C 0.07662 0.11701 0.85384 0.0
C836 C 0.05048 0.09008 0.85055 0.0
C837 C 0.02151 0.87417 0.82721 0.0
C838 C 0.04276 0.86904 0.84387 0.0
C839 C 0.01199 0.9094 0.82128 0.0
C840 C 0.02264 0.93979 0.83231 0.0
C841 C 0.04467 0.93442 0.84866 0.0
C842 C 0.05489 0.8995 0.85426 0.0
C843 C 0.00914 0.97712 0.82809 0.0
C844 C 0.03414 0.00604 0.82847 0.0
C845 C 0.97157 0.98501 0.82641 0.0
C846 C 0.94339 0.95624 0.82675 0.0
C847 C 0.9386 0.93438 0.84325 0.0
C848 C 0.91202 0.90717 0.84342 0.0
C849 C 0.88984 0.90186 0.82725 0.0
C850 C 0.89412 0.92383 0.8109 0.0
C851 C 0.9207 0.95105 0.81065 0.0
H852 H 0.86928 0.88078 0.82741 0.0
H853 H 0.12295 0.1455 0.84228 0.0
H854 H 0.85281 0.0127 0.36853 0.0
H855 H 0.91293 0.02878 0.35631 0.0
H856 H 0.89621 0.95955 0.30666 0.0
H857 H 0.83529 0.94387 0.31875 0.0
H858 H 0.95823 0.94241 0.3289 0.0
H859 H 0.90913 0.04562 0.29745 0.0
H860 H 0.8708 0.10026 0.29367 0.0
H861 H 0.92832 0.15291 0.33991 0.0
H862 H 0.96666 0.09842 0.34419 0.0
H863 H 0.14893 0.9874 0.32289 0.0
H864 H 0.08577 0.97763 0.31246 0.0
H865 H 0.04885 0.05293 0.35626 0.0
H866 H 0.11135 0.0635 0.36621 0.0
H867 H 0.01362 0.06518 0.32401 0.0
H868 H 0.04683 0.95707 0.36164 0.0
H869 H 0.08315 0.90186 0.36811 0.0
H870 H 0.05375 0.85867 0.31253 0.0
H871 H 0.01756 0.91386 0.30567 0.0
C872 C 0.86149 0.00187 0.3547 0.0
C873 C 0.83956 0.97716 0.34455 0.0
C874 C 0.89577 0.01112 0.34769 0.0
C875 C 0.90893 0.99544 0.33054 0.0
C876 C 0.88636 0.97211 0.31984 0.0
C877 C 0.8516 0.96337 0.32669 0.0
C878 C 0.94785 -0.00015 0.32568 0.0
C879 C 0.97041 0.96914 0.32718 0.0
C880 C 0.96358 0.03474 0.32372 0.0
C881 C 0.94079 0.06783 0.32114 0.0
C882 C 0.9135 0.06876 0.30689 0.0
C883 C 0.89177 0.09974 0.30465 0.0
C884 C 0.89712 0.13004 0.31654 0.0
C885 C 0.92424 0.12944 0.33069 0.0
C886 C 0.94605 0.09853 0.33299 0.0
C887 C 0.12722 0.00175 0.33025 0.0
C888 C 0.13497 0.02609 0.34539 0.0
C889 C 0.09121 0.99622 0.32428 0.0
C890 C 0.06253 0.01452 0.3336 0.0
C891 C 0.07048 0.03877 0.3487 0.0
C892 C 0.10625 0.04459 0.35448 0.0
C893 C 0.0239 0.008 0.32844 0.0
C894 C 0.00148 0.03832 0.32499 0.0
C895 C 0.00824 0.9728 0.32891 0.0
C896 C 0.02996 0.93973 0.33304 0.0
C897 C 0.04836 0.9359 0.35075 0.0
C898 C 0.06887 0.90461 0.3545 0.0
C899 C 0.07087 0.87683 0.34071 0.0
C900 C 0.05226 0.88025 0.32317 0.0
C901 C 0.03175 0.91151 0.31935 0.0
H902 H 0.08675 0.85262 0.34363 0.0
H903 H 0.88025 0.15398 0.31479 0.0
loop_
_geom_bond_atom_site_label_1
_geom_bond_atom_site_label_2
_geom_bond_distance
_geom_bond_site_symmetry_2
_ccdc_geom_bond_type
In0 O1 2.294 . S
In0 O2 2.326 . S
In0 O6 2.266 . S
In0 O7 2.326 . S
In0 O8 2.266 . S
In0 O9 2.326 . S
In0 O11 2.294 . S
In0 O12 2.326 . S
O1 In0 2.294 . S
O1 C10 1.240 . S
O2 In0 2.326 . S
O2 C10 1.252 . S
C3 O6 1.252 . S
C3 O7 1.260 . S
C4 O11 1.240 . S
C4 O12 1.252 . S
C5 O8 1.252 . S
C5 O9 1.260 . S
O6 In0 2.266 . S
O6 C3 1.252 . S
O7 In0 2.326 . S
O7 C3 1.260 . S
O8 In0 2.266 . S
O8 C5 1.252 . S
O9 In0 2.326 . S
O9 C5 1.260 . S
C10 O1 1.240 . S
C10 O2 1.252 . S
O11 In0 2.294 . S
O11 C4 1.240 . S
O12 In0 2.326 . S
O12 C4 1.252 . S
In13 O14 2.294 . S
In13 O15 2.326 . S
In13 O19 2.266 . S
In13 O20 2.326 . S
In13 O21 2.266 . S
In13 O22 2.326 . S
In13 O24 2.294 . S
In13 O25 2.326 . S
O14 In13 2.294 . S
O14 C23 1.240 . S
O15 In13 2.326 . S
O15 C23 1.252 . S
C16 O19 1.252 . S
C16 O20 1.260 . S
C17 O24 1.240 . S
C17 O25 1.252 . S
C18 O21 1.252 . S
C18 O22 1.260 . S
O19 In13 2.266 . S
O19 C16 1.252 . S
O20 In13 2.326 . S
O20 C16 1.260 . S
O21 In13 2.266 . S
O21 C18 1.252 . S
O22 In13 2.326 . S
O22 C18 1.260 . S
C23 O14 1.240 . S
C23 O15 1.252 . S
O24 In13 2.294 . S
O24 C17 1.240 . S
O25 In13 2.326 . S
O25 C17 1.252 . S
In26 O27 2.294 . S
In26 O28 2.326 . S
In26 O32 2.266 . S
In26 O33 2.326 . S
In26 O34 2.266 . S
In26 O35 2.326 . S
In26 O37 2.294 . S
In26 O38 2.326 . S
O27 In26 2.294 . S
O27 C36 1.240 . S
O28 In26 2.326 . S
O28 C36 1.252 . S
C29 O32 1.252 . S
C29 O33 1.260 . S
C30 O37 1.240 . S
C30 O38 1.252 . S
C31 O34 1.252 . S
C31 O35 1.260 . S
O32 In26 2.266 . S
O32 C29 1.252 . S
O33 In26 2.326 . S
O33 C29 1.260 . S
O34 In26 2.266 . S
O34 C31 1.252 . S
O35 In26 2.326 . S
O35 C31 1.260 . S
C36 O27 1.240 . S
C36 O28 1.252 . S
O37 In26 2.294 . S
O37 C30 1.240 . S
O38 In26 2.326 . S
O38 C30 1.252 . S
In39 O40 2.294 . S
In39 O41 2.326 . S
In39 O45 2.266 . S
In39 O46 2.326 . S
In39 O47 2.266 . S
In39 O48 2.326 . S
In39 O50 2.294 . S
In39 O51 2.326 . S
O40 In39 2.294 . S
O40 C49 1.240 . S
O41 In39 2.326 . S
O41 C49 1.252 . S
C42 O45 1.252 . S
C42 O46 1.260 . S
C43 O50 1.240 . S
C43 O51 1.252 . S
C44 O47 1.252 . S
C44 O48 1.260 . S
O45 In39 2.266 . S
O45 C42 1.252 . S
O46 In39 2.326 . S
O46 C42 1.260 . S
O47 In39 2.266 . S
O47 C44 1.252 . S
O48 In39 2.326 . S
O48 C44 1.260 . S
C49 O40 1.240 . S
C49 O41 1.252 . S
O50 In39 2.294 . S
O50 C43 1.240 . S
O51 In39 2.326 . S
O51 C43 1.252 . S
In52 O53 2.294 . S
In52 O54 2.326 . S
In52 O58 2.266 . S
In52 O59 2.326 . S
In52 O60 2.266 . S
In52 O61 2.326 . S
In52 O63 2.294 . S
In52 O64 2.326 . S
O53 In52 2.294 . S
O53 C62 1.240 . S
O54 In52 2.326 . S
O54 C62 1.252 . S
C55 O58 1.252 . S
C55 O59 1.260 . S
C56 O63 1.240 . S
C56 O64 1.252 . S
C57 O60 1.252 . S
C57 O61 1.260 . S
O58 In52 2.266 . S
O58 C55 1.252 . S
O59 In52 2.326 . S
O59 C55 1.260 . S
O60 In52 2.266 . S
O60 C57 1.252 . S
O61 In52 2.326 . S
O61 C57 1.260 . S
C62 O53 1.240 . S
C62 O54 1.252 . S
O63 In52 2.294 . S
O63 C56 1.240 . S
O64 In52 2.326 . S
O64 C56 1.252 . S
In65 O66 2.294 . S
In65 O67 2.326 . S
In65 O71 2.266 . S
In65 O72 2.326 . S
In65 O73 2.266 . S
In65 O74 2.326 . S
In65 O76 2.294 . S
In65 O77 2.326 . S
O66 In65 2.294 . S
O66 C75 1.240 . S
O67 In65 2.326 . S
O67 C75 1.252 . S
C68 O71 1.252 . S
C68 O72 1.260 . S
C69 O76 1.240 . S
C69 O77 1.252 . S
C70 O73 1.252 . S
C70 O74 1.260 . S
O71 In65 2.266 . S
O71 C68 1.252 . S
O72 In65 2.326 . S
O72 C68 1.260 . S
O73 In65 2.266 . S
O73 C70 1.252 . S
O74 In65 2.326 . S
O74 C70 1.260 . S
C75 O66 1.240 . S
C75 O67 1.252 . S
O76 In65 2.294 . S
O76 C69 1.240 . S
O77 In65 2.326 . S
O77 C69 1.252 . S
In78 O79 2.294 . S
In78 O80 2.326 . S
In78 O84 2.266 . S
In78 O85 2.326 . S
In78 O86 2.266 . S
In78 O87 2.326 . S
In78 O89 2.294 . S
In78 O90 2.326 . S
O79 In78 2.294 . S
O79 C88 1.240 . S
O80 In78 2.326 . S
O80 C88 1.252 . S
C81 O84 1.252 . S
C81 O85 1.260 . S
C82 O89 1.240 . S
C82 O90 1.252 . S
C83 O86 1.252 . S
C83 O87 1.260 . S
O84 In78 2.266 . S
O84 C81 1.252 . S
O85 In78 2.326 . S
O85 C81 1.260 . S
O86 In78 2.266 . S
O86 C83 1.252 . S
O87 In78 2.326 . S
O87 C83 1.260 . S
C88 O79 1.240 . S
C88 O80 1.252 . S
O89 In78 2.294 . S
O89 C82 1.240 . S
O90 In78 2.326 . S
O90 C82 1.252 . S
In91 O92 2.294 . S
In91 O93 2.326 . S
In91 O97 2.266 . S
In91 O98 2.326 . S
In91 O99 2.266 . S
In91 O100 2.326 . S
In91 O102 2.294 . S
In91 O103 2.326 . S
O92 In91 2.294 . S
O92 C101 1.240 . S
O93 In91 2.326 . S
O93 C101 1.252 . S
C94 O97 1.252 . S
C94 O98 1.260 . S
C95 O102 1.240 . S
C95 O103 1.252 . S
C96 O99 1.252 . S
C96 O100 1.260 . S
O97 In91 2.266 . S
O97 C94 1.252 . S
O98 In91 2.326 . S
O98 C94 1.260 . S
O99 In91 2.266 . S
O99 C96 1.252 . S
O100 In91 2.326 . S
O100 C96 1.260 . S
C101 O92 1.240 . S
C101 O93 1.252 . S
O102 In91 2.294 . S
O102 C95 1.240 . S
O103 In91 2.326 . S
O103 C95 1.252 . S
H104 C122 0.951 1_655 S
H105 C124 0.951 . S
H106 C126 0.950 . S
H107 C127 0.950 . S
H108 C129 0.950 . S
H109 C132 0.950 . S
H110 C133 0.950 . S
H111 C135 0.950 . S
H112 C136 0.950 . S
H113 C137 0.951 1_455 S
H114 C139 0.951 . S
H115 C141 0.950 . S
H116 C142 0.950 . S
H117 C144 0.950 . S
H118 C147 0.950 . S
H119 C148 0.950 . S
H120 C150 0.950 . S
H121 C151 0.950 . S
C122 H104 0.951 1_455 S
C122 C123 1.366 . S
C122 C124 1.388 1_455 S
C123 C122 1.366 . S
C123 C127 1.385 . S
C124 H105 0.951 . S
C124 C122 1.388 1_655 S
C124 C125 1.366 1_655 S
C125 C124 1.366 1_455 S
C125 C126 1.414 . S
C125 C128 1.499 . S
C126 H106 0.950 . S
C126 C125 1.414 . S
C126 C127 1.374 . S
C127 H107 0.950 . S
C127 C123 1.385 . S
C127 C126 1.374 . S
C128 C125 1.499 . S
C128 C129 1.373 . S
C128 C130 1.389 1_455 S
C129 H108 0.950 . S
C129 C128 1.373 . S
C129 C145 1.377 . S
C130 C128 1.389 1_655 S
C130 C131 1.524 . S
C130 C144 1.377 . S
C131 C130 1.524 . S
C131 C132 1.397 1_655 S
C131 C136 1.363 . S
C132 H109 0.950 . S
C132 C131 1.397 1_455 S
C132 C133 1.334 . S
C133 H110 0.950 . S
C133 C132 1.334 . S
C133 C134 1.285 1_455 S
C134 C133 1.285 1_655 S
C134 C135 1.526 . S
C134 H153 0.913 1_655 S
C135 H111 0.950 . S
C135 C134 1.526 . S
C135 C136 1.415 . S
C136 H112 0.950 . S
C136 C131 1.363 . S
C136 C135 1.415 . S
C137 H113 0.951 1_655 S
C137 C138 1.366 . S
C137 C139 1.388 1_655 S
C138 C137 1.366 . S
C138 C142 1.385 . S
C139 H114 0.951 . S
C139 C137 1.388 1_455 S
C139 C140 1.366 1_455 S
C140 C139 1.366 1_655 S
C140 C141 1.414 . S
C140 C143 1.499 . S
C141 H115 0.950 . S
C141 C140 1.414 . S
C141 C142 1.374 . S
C142 H116 0.950 . S
C142 C138 1.385 . S
C142 C141 1.374 . S
C143 C140 1.499 . S
C143 C144 1.373 . S
C143 C145 1.389 1_655 S
C144 H117 0.950 . S
C144 C130 1.377 . S
C144 C143 1.373 . S
C145 C129 1.377 . S
C145 C143 1.389 1_455 S
C145 C146 1.524 . S
C146 C145 1.524 . S
C146 C147 1.397 1_455 S
C146 C151 1.363 . S
C147 H118 0.950 . S
C147 C146 1.397 1_655 S
C147 C148 1.334 . S
C148 H119 0.950 . S
C148 C147 1.334 . S
C148 C149 1.285 1_655 S
C149 C148 1.285 1_455 S
C149 C150 1.526 . S
C149 H152 0.999 . S
C150 H120 0.950 . S
C150 C149 1.526 . S
C150 C151 1.415 . S
C151 H121 0.950 . S
C151 C146 1.363 . S
C151 C150 1.415 . S
H152 C149 0.999 . S
H153 C134 0.913 1_455 S
H154 C172 0.951 . S
H155 C174 0.951 . S
H156 C176 0.950 . S
H157 C177 0.950 . S
H158 C179 0.950 . S
H159 C182 0.950 1_565 S
H160 C183 0.950 . S
H161 C185 0.950 . S
H162 C186 0.950 . S
H163 C187 0.951 . S
H164 C189 0.951 . S
H165 C191 0.950 . S
H166 C192 0.950 . S
H167 C194 0.950 . S
H168 C197 0.950 1_545 S
H169 C198 0.950 . S
H170 C200 0.950 . S
H171 C201 0.950 . S
C172 H154 0.951 . S
C172 C173 1.366 1_545 S
C172 C174 1.388 . S
C173 C172 1.366 1_565 S
C173 C177 1.385 . S
C174 H155 0.951 . S
C174 C172 1.388 . S
C174 C175 1.366 1_545 S
C175 C174 1.366 1_565 S
C175 C176 1.414 . S
C175 C178 1.499 . S
C176 H156 0.950 . S
C176 C175 1.414 . S
C176 C177 1.374 . S
C177 H157 0.950 . S
C177 C173 1.385 . S
C177 C176 1.374 . S
C178 C175 1.499 . S
C178 C179 1.373 . S
C178 C180 1.389 1_565 S
C179 H158 0.950 . S
C179 C178 1.373 . S
C179 C195 1.377 . S
C180 C178 1.389 1_545 S
C180 C181 1.524 . S
C180 C194 1.377 . S
C181 C180 1.524 . S
C181 C182 1.397 . S
C181 C186 1.363 . S
C182 H159 0.950 1_545 S
C182 C181 1.397 . S
C182 C183 1.334 . S
C183 H160 0.950 . S
C183 C182 1.334 . S
C183 C184 1.287 . S
C184 C183 1.287 . S
C184 C185 1.524 . S
C184 H203 0.913 . S
C185 H161 0.950 . S
C185 C184 1.524 . S
C185 C186 1.415 . S
C186 H162 0.950 . S
C186 C181 1.363 . S
C186 C185 1.415 . S
C187 H163 0.951 . S
C187 C188 1.366 1_565 S
C187 C189 1.388 . S
C188 C187 1.366 1_545 S
C188 C192 1.385 . S
C189 H164 0.951 . S
C189 C187 1.388 . S
C189 C190 1.366 1_565 S
C190 C189 1.366 1_545 S
C190 C191 1.414 . S
C190 C193 1.499 . S
C191 H165 0.950 . S
C191 C190 1.414 . S
C191 C192 1.374 . S
C192 H166 0.950 . S
C192 C188 1.385 . S
C192 C191 1.374 . S
C193 C190 1.499 . S
C193 C194 1.373 . S
C193 C195 1.389 1_545 S
C194 H167 0.950 . S
C194 C180 1.377 . S
C194 C193 1.373 . S
C195 C179 1.377 . S
C195 C193 1.389 1_565 S
C195 C196 1.524 . S
C196 C195 1.524 . S
C196 C197 1.397 . S
C196 C201 1.363 . S
C197 H168 0.950 1_565 S
C197 C196 1.397 . S
C197 C198 1.334 . S
C198 H169 0.950 . S
C198 C197 1.334 . S
C198 C199 1.287 . S
C199 C198 1.287 . S
C199 C200 1.524 . S
C199 H202 0.999 . S
C200 H170 0.950 . S
C200 C199 1.524 . S
C200 C201 1.415 . S
C201 H171 0.950 . S
C201 C196 1.363 . S
C201 C200 1.415 . S
H202 C199 0.999 . S
H203 C184 0.913 . S
H204 C222 0.951 . S
H205 C224 0.951 . S
H206 C226 0.950 . S
H207 C227 0.950 . S
H208 C229 0.950 . S
H209 C232 0.950 . S
H210 C233 0.950 . S
H211 C235 0.950 . S
H212 C236 0.950 . S
H213 C237 0.951 . S
H214 C239 0.951 . S
H215 C241 0.950 . S
H216 C242 0.950 . S
H217 C244 0.950 . S
H218 C247 0.950 . S
H219 C248 0.950 . S
H220 C250 0.950 . S
H221 C251 0.950 . S
C222 H204 0.951 . S
C222 C223 1.366 . S
C222 C224 1.388 . S
C223 C222 1.366 . S
C223 C227 1.385 . S
C224 H205 0.951 . S
C224 C222 1.388 . S
C224 C225 1.366 . S
C225 C224 1.366 . S
C225 C226 1.414 . S
C225 C228 1.499 . S
C226 H206 0.950 . S
C226 C225 1.414 . S
C226 C227 1.374 . S
C227 H207 0.950 . S
C227 C223 1.385 . S
C227 C226 1.374 . S
C228 C225 1.499 . S
C228 C229 1.373 . S
C228 C230 1.389 1_655 S
C229 H208 0.950 . S
C229 C228 1.373 . S
C229 C245 1.377 . S
C230 C228 1.389 1_455 S
C230 C231 1.524 . S
C230 C244 1.377 . S
C231 C230 1.524 . S
C231 C232 1.397 . S
C231 C236 1.363 . S
C232 H209 0.950 . S
C232 C231 1.397 . S
C232 C233 1.334 . S
C233 H210 0.950 . S
C233 C232 1.334 . S
C233 C234 1.287 . S
C234 C233 1.287 . S
C234 C235 1.524 . S
C234 H253 0.913 . S
C235 H211 0.950 . S
C235 C234 1.524 . S
C235 C236 1.415 . S
C236 H212 0.950 . S
C236 C231 1.363 . S
C236 C235 1.415 . S
C237 H213 0.951 . S
C237 C238 1.366 . S
C237 C239 1.388 . S
C238 C237 1.366 . S
C238 C242 1.385 . S
C239 H214 0.951 . S
C239 C237 1.388 . S
C239 C240 1.366 . S
C240 C239 1.366 . S
C240 C241 1.414 . S
C240 C243 1.499 . S
C241 H215 0.950 . S
C241 C240 1.414 . S
C241 C242 1.374 . S
C242 H216 0.950 . S
C242 C238 1.385 . S
C242 C241 1.374 . S
C243 C240 1.499 . S
C243 C244 1.373 . S
C243 C245 1.389 1_455 S
C244 H217 0.950 . S
C244 C230 1.377 . S
C244 C243 1.373 . S
C245 C229 1.377 . S
C245 C243 1.389 1_655 S
C245 C246 1.524 . S
C246 C245 1.524 . S
C246 C247 1.397 . S
C246 C251 1.363 . S
C247 H218 0.950 . S
C247 C246 1.397 . S
C247 C248 1.334 . S
C248 H219 0.950 . S
C248 C247 1.334 . S
C248 C249 1.287 . S
C249 C248 1.287 . S
C249 C250 1.524 . S
C249 H252 0.999 . S
C250 H220 0.950 . S
C250 C249 1.524 . S
C250 C251 1.415 . S
C251 H221 0.950 . S
C251 C246 1.363 . S
C251 C250 1.415 . S
H252 C249 0.999 . S
H253 C234 0.913 . S
H254 C272 0.951 . S
H255 C274 0.951 . S
H256 C276 0.950 . S
H257 C277 0.950 . S
H258 C279 0.950 . S
H259 C282 0.950 . S
H260 C283 0.950 . S
H261 C285 0.950 . S
H262 C286 0.950 . S
H263 C287 0.951 . S
H264 C289 0.951 . S
H265 C291 0.950 . S
H266 C292 0.950 . S
H267 C294 0.950 . S
H268 C297 0.950 . S
H269 C298 0.950 . S
H270 C300 0.950 . S
H271 C301 0.950 . S
C272 H254 0.951 . S
C272 C273 1.366 . S
C272 C274 1.388 . S
C273 C272 1.366 . S
C273 C277 1.385 1_545 S
C274 H255 0.951 . S
C274 C272 1.388 . S
C274 C275 1.366 . S
C275 C274 1.366 . S
C275 C276 1.414 1_545 S
C275 C278 1.499 . S
C276 H256 0.950 . S
C276 C275 1.414 1_565 S
C276 C277 1.374 . S
C277 H257 0.950 . S
C277 C273 1.385 1_565 S
C277 C276 1.374 . S
C278 C275 1.499 . S
C278 C279 1.373 1_545 S
C278 C280 1.389 . S
C279 H258 0.950 . S
C279 C278 1.373 1_565 S
C279 C295 1.377 . S
C280 C278 1.389 . S
C280 C281 1.524 . S
C280 C294 1.377 . S
C281 C280 1.524 . S
C281 C282 1.397 . S
C281 C286 1.363 . S
C282 H259 0.950 . S
C282 C281 1.397 . S
C282 C283 1.334 . S
C283 H260 0.950 . S
C283 C282 1.334 . S
C283 C284 1.287 . S
C284 C283 1.287 . S
C284 C285 1.524 . S
C284 H303 0.913 . S
C285 H261 0.950 . S
C285 C284 1.524 . S
C285 C286 1.415 . S
C286 H262 0.950 . S
C286 C281 1.363 . S
C286 C285 1.415 . S
C287 H263 0.951 . S
C287 C288 1.366 . S
C287 C289 1.388 . S
C288 C287 1.366 . S
C288 C292 1.385 1_565 S
C289 H264 0.951 . S
C289 C287 1.388 . S
C289 C290 1.366 . S
C290 C289 1.366 . S
C290 C291 1.414 1_565 S
C290 C293 1.499 . S
C291 H265 0.950 . S
C291 C290 1.414 1_545 S
C291 C292 1.374 . S
C292 H266 0.950 . S
C292 C288 1.385 1_545 S
C292 C291 1.374 . S
C293 C290 1.499 . S
C293 C294 1.373 1_565 S
C293 C295 1.389 . S
C294 H267 0.950 . S
C294 C280 1.377 . S
C294 C293 1.373 1_545 S
C295 C279 1.377 . S
C295 C293 1.389 . S
C295 C296 1.524 . S
C296 C295 1.524 . S
C296 C297 1.397 . S
C296 C301 1.363 . S
C297 H268 0.950 . S
C297 C296 1.397 . S
C297 C298 1.334 . S
C298 H269 0.950 . S
C298 C297 1.334 . S
C298 C299 1.287 . S
C299 C298 1.287 . S
C299 C300 1.524 . S
C299 H302 0.999 . S
C300 H270 0.950 . S
C300 C299 1.524 . S
C300 C301 1.415 . S
C301 H271 0.950 . S
C301 C296 1.363 . S
C301 C300 1.415 . S
H302 C299 0.999 . S
H303 C284 0.913 . S
H304 C322 0.951 . S
H305 C324 0.951 . S
H306 C326 0.950 1_455 S
H307 C327 0.950 . S
H308 C329 0.950 . S
H309 C332 0.950 . S
H310 C333 0.950 . S
H311 C335 0.950 . S
H312 C336 0.950 . S
H313 C337 0.951 . S
H314 C339 0.951 . S
H315 C341 0.950 1_655 S
H316 C342 0.950 . S
H317 C344 0.950 . S
H318 C347 0.950 . S
H319 C348 0.950 . S
H320 C350 0.950 . S
H321 C351 0.950 . S
C322 H304 0.951 . S
C322 C323 1.366 . S
C322 C324 1.388 . S
C323 C322 1.366 . S
C323 C327 1.385 . S
C324 H305 0.951 . S
C324 C322 1.388 . S
C324 C325 1.366 . S
C325 C324 1.366 . S
C325 C326 1.414 . S
C325 C328 1.499 . S
C326 H306 0.950 1_655 S
C326 C325 1.414 . S
C326 C327 1.374 . S
C327 H307 0.950 . S
C327 C323 1.385 . S
C327 C326 1.374 . S
C328 C325 1.499 . S
C328 C329 1.373 1_655 S
C328 C330 1.389 . S
C329 H308 0.950 . S
C329 C328 1.373 1_455 S
C329 C345 1.377 1_556 S
C330 C328 1.389 . S
C330 C331 1.524 . S
C330 C344 1.377 1_556 S
C331 C330 1.524 . S
C331 C332 1.397 . S
C331 C336 1.363 1_556 S
C332 H309 0.950 . S
C332 C331 1.397 . S
C332 C333 1.334 . S
C333 H310 0.950 . S
C333 C332 1.334 . S
C333 C334 1.287 . S
C334 C333 1.287 . S
C334 C335 1.524 1_556 S
C334 H353 0.913 . S
C335 H311 0.950 . S
C335 C334 1.524 1_554 S
C335 C336 1.415 . S
C336 H312 0.950 . S
C336 C331 1.363 1_554 S
C336 C335 1.415 . S
C337 H313 0.951 . S
C337 C338 1.366 . S
C337 C339 1.388 . S
C338 C337 1.366 . S
C338 C342 1.385 . S
C339 H314 0.951 . S
C339 C337 1.388 . S
C339 C340 1.366 . S
C340 C339 1.366 . S
C340 C341 1.414 . S
C340 C343 1.499 . S
C341 H315 0.950 1_455 S
C341 C340 1.414 . S
C341 C342 1.374 . S
C342 H316 0.950 . S
C342 C338 1.385 . S
C342 C341 1.374 . S
C343 C340 1.499 . S
C343 C344 1.373 1_455 S
C343 C345 1.389 . S
C344 H317 0.950 . S
C344 C330 1.377 1_554 S
C344 C343 1.373 1_655 S
C345 C329 1.377 1_554 S
C345 C343 1.389 . S
C345 C346 1.524 . S
C346 C345 1.524 . S
C346 C347 1.397 . S
C346 C351 1.363 1_554 S
C347 H318 0.950 . S
C347 C346 1.397 . S
C347 C348 1.334 . S
C348 H319 0.950 . S
C348 C347 1.334 . S
C348 C349 1.287 . S
C349 C348 1.287 . S
C349 C350 1.524 1_554 S
C349 H352 0.999 . S
C350 H320 0.950 . S
C350 C349 1.524 1_556 S
C350 C351 1.415 . S
C351 H321 0.950 . S
C351 C346 1.363 1_556 S
C351 C350 1.415 . S
H352 C349 0.999 . S
H353 C334 0.913 . S
H354 C372 0.951 . S
H355 C374 0.951 1_565 S
H356 C376 0.950 . S
H357 C377 0.950 . S
H358 C379 0.950 . S
H359 C382 0.950 . S
H360 C383 0.950 . S
H361 C385 0.950 . S
H362 C386 0.950 . S
H363 C387 0.951 . S
H364 C389 0.951 1_545 S
H365 C391 0.950 . S
H366 C392 0.950 . S
H367 C394 0.950 . S
H368 C397 0.950 . S
H369 C398 0.950 . S
H370 C400 0.950 . S
H371 C401 0.950 . S
C372 H354 0.951 . S
C372 C373 1.366 . S
C372 C374 1.388 . S
C373 C372 1.366 . S
C373 C377 1.385 . S
C374 H355 0.951 1_545 S
C374 C372 1.388 . S
C374 C375 1.366 . S
C375 C374 1.366 . S
C375 C376 1.414 . S
C375 C378 1.499 . S
C376 H356 0.950 . S
C376 C375 1.414 . S
C376 C377 1.374 . S
C377 H357 0.950 . S
C377 C373 1.385 . S
C377 C376 1.374 . S
C378 C375 1.499 . S
C378 C379 1.373 . S
C378 C380 1.389 1_545 S
C379 H358 0.950 . S
C379 C378 1.373 . S
C379 C395 1.377 . S
C380 C378 1.389 1_565 S
C380 C381 1.524 . S
C380 C394 1.377 . S
C381 C380 1.524 . S
C381 C382 1.397 . S
C381 C386 1.363 . S
C382 H359 0.950 . S
C382 C381 1.397 . S
C382 C383 1.334 . S
C383 H360 0.950 . S
C383 C382 1.334 . S
C383 C384 1.287 . S
C384 C383 1.287 . S
C384 C385 1.524 . S
C384 H403 0.913 . S
C385 H361 0.950 . S
C385 C384 1.524 . S
C385 C386 1.415 . S
C386 H362 0.950 . S
C386 C381 1.363 . S
C386 C385 1.415 . S
C387 H363 0.951 . S
C387 C388 1.366 . S
C387 C389 1.388 . S
C388 C387 1.366 . S
C388 C392 1.385 . S
C389 H364 0.951 1_565 S
C389 C387 1.388 . S
C389 C390 1.366 . S
C390 C389 1.366 . S
C390 C391 1.414 . S
C390 C393 1.499 . S
C391 H365 0.950 . S
C391 C390 1.414 . S
C391 C392 1.374 . S
C392 H366 0.950 . S
C392 C388 1.385 . S
C392 C391 1.374 . S
C393 C390 1.499 . S
C393 C394 1.373 . S
C393 C395 1.389 1_565 S
C394 H367 0.950 . S
C394 C380 1.377 . S
C394 C393 1.373 . S
C395 C379 1.377 . S
C395 C393 1.389 1_545 S
C395 C396 1.524 . S
C396 C395 1.524 . S
C396 C397 1.397 . S
C396 C401 1.363 . S
C397 H368 0.950 . S
C397 C396 1.397 . S
C397 C398 1.334 . S
C398 H369 0.950 . S
C398 C397 1.334 . S
C398 C399 1.287 . S
C399 C398 1.287 . S
C399 C400 1.524 . S
C399 H402 0.999 . S
C400 H370 0.950 . S
C400 C399 1.524 . S
C400 C401 1.415 . S
C401 H371 0.950 . S
C401 C396 1.363 . S
C401 C400 1.415 . S
H402 C399 0.999 . S
H403 C384 0.913 . S
H404 C422 0.951 . S
H405 C424 0.951 . S
H406 C426 0.950 . S
H407 C427 0.950 . S
H408 C429 0.950 . S
H409 C432 0.950 . S
H410 C433 0.950 . S
H411 C435 0.950 . S
H412 C436 0.950 . S
H413 C437 0.951 . S
H414 C439 0.951 . S
H415 C441 0.950 . S
H416 C442 0.950 . S
H417 C444 0.950 . S
H418 C447 0.950 . S
H419 C448 0.950 . S
H420 C450 0.950 . S
H421 C451 0.950 . S
C422 H404 0.951 . S
C422 C423 1.366 . S
C422 C424 1.388 . S
C423 C422 1.366 . S
C423 C427 1.385 . S
C424 H405 0.951 . S
C424 C422 1.388 . S
C424 C425 1.366 . S
C425 C424 1.366 . S
C425 C426 1.414 . S
C425 C428 1.499 . S
C426 H406 0.950 . S
C426 C425 1.414 . S
C426 C427 1.374 . S
C427 H407 0.950 . S
C427 C423 1.385 . S
C427 C426 1.374 . S
C428 C425 1.499 . S
C428 C429 1.373 . S
C428 C430 1.389 1_655 S
C429 H408 0.950 . S
C429 C428 1.373 . S
C429 C445 1.377 1_554 S
C430 C428 1.389 1_455 S
C430 C431 1.524 . S
C430 C444 1.377 1_554 S
C431 C430 1.524 . S
C431 C432 1.397 . S
C431 C436 1.363 . S
C432 H409 0.950 . S
C432 C431 1.397 . S
C432 C433 1.334 . S
C433 H410 0.950 . S
C433 C432 1.334 . S
C433 C434 1.287 . S
C434 C433 1.287 . S
C434 C435 1.524 . S
C434 H453 0.913 . S
C435 H411 0.950 . S
C435 C434 1.524 . S
C435 C436 1.415 . S
C436 H412 0.950 . S
C436 C431 1.363 . S
C436 C435 1.415 . S
C437 H413 0.951 . S
C437 C438 1.366 . S
C437 C439 1.388 . S
C438 C437 1.366 . S
C438 C442 1.385 . S
C439 H414 0.951 . S
C439 C437 1.388 . S
C439 C440 1.366 . S
C440 C439 1.366 . S
C440 C441 1.414 . S
C440 C443 1.499 . S
C441 H415 0.950 . S
C441 C440 1.414 . S
C441 C442 1.374 . S
C442 H416 0.950 . S
C442 C438 1.385 . S
C442 C441 1.374 . S
C443 C440 1.499 . S
C443 C444 1.373 . S
C443 C445 1.389 1_455 S
C444 H417 0.950 . S
C444 C430 1.377 1_556 S
C444 C443 1.373 . S
C445 C429 1.377 1_556 S
C445 C443 1.389 1_655 S
C445 C446 1.524 . S
C446 C445 1.524 . S
C446 C447 1.397 . S
C446 C451 1.363 . S
C447 H418 0.950 . S
C447 C446 1.397 . S
C447 C448 1.334 . S
C448 H419 0.950 . S
C448 C447 1.334 . S
C448 C449 1.287 . S
C449 C448 1.287 . S
C449 C450 1.524 . S
C449 H452 0.999 . S
C450 H420 0.950 . S
C450 C449 1.524 . S
C450 C451 1.415 . S
C451 H421 0.950 . S
C451 C446 1.363 . S
C451 C450 1.415 . S
H452 C449 0.999 . S
H453 C434 0.913 . S
H454 C472 0.951 . S
H455 C474 0.951 . S
H456 C476 0.968 . S
H457 C477 0.950 . S
H458 C479 0.950 . S
H459 C482 0.950 . S
H460 C483 0.950 . S
H461 C485 0.950 . S
H462 C486 0.950 . S
H463 C487 0.951 . S
H464 C489 0.951 . S
H465 C491 0.968 . S
H466 C492 0.950 . S
H467 C494 0.950 . S
H468 C497 0.950 . S
H469 C498 0.950 . S
H470 C500 0.950 . S
H471 C501 0.950 . S
C472 H454 0.951 . S
C472 C473 1.366 . S
C472 C474 1.388 . S
C473 C472 1.366 . S
C473 C477 1.385 . S
C474 H455 0.951 . S
C474 C472 1.388 . S
C474 C475 1.366 . S
C475 C474 1.366 . S
C475 C476 1.414 . S
C475 C478 1.499 . S
C476 H456 0.968 . S
C476 C475 1.414 . S
C476 C477 1.374 . S
C477 H457 0.950 . S
C477 C473 1.385 . S
C477 C476 1.374 . S
C478 C475 1.499 . S
C478 C479 1.373 1_545 S
C478 C480 1.389 . S
C479 H458 0.950 . S
C479 C478 1.373 1_565 S
C479 C495 1.377 . S
C480 C478 1.389 . S
C480 C481 1.524 . S
C480 C494 1.377 . S
C481 C480 1.524 . S
C481 C482 1.397 . S
C481 C486 1.363 . S
C482 H459 0.950 . S
C482 C481 1.397 . S
C482 C483 1.334 . S
C483 H460 0.950 . S
C483 C482 1.334 . S
C483 C484 1.287 . S
C484 C483 1.287 . S
C484 C485 1.524 . S
C484 H503 0.913 . S
C485 H461 0.950 . S
C485 C484 1.524 . S
C485 C486 1.415 . S
C486 H462 0.950 . S
C486 C481 1.363 . S
C486 C485 1.415 . S
C487 H463 0.951 . S
C487 C488 1.366 . S
C487 C489 1.388 . S
C488 C487 1.366 . S
C488 C492 1.385 . S
C489 H464 0.951 . S
C489 C487 1.388 . S
C489 C490 1.366 . S
C490 C489 1.366 . S
C490 C491 1.414 . S
C490 C493 1.499 . S
C491 H465 0.968 . S
C491 C490 1.414 . S
C491 C492 1.374 . S
C492 H466 0.950 . S
C492 C488 1.385 . S
C492 C491 1.374 . S
C493 C490 1.499 . S
C493 C494 1.373 1_565 S
C493 C495 1.389 . S
C494 H467 0.950 . S
C494 C480 1.377 . S
C494 C493 1.373 1_545 S
C495 C479 1.377 . S
C495 C493 1.389 . S
C495 C496 1.524 . S
C496 C495 1.524 . S
C496 C497 1.397 . S
C496 C501 1.363 . S
C497 H468 0.950 . S
C497 C496 1.397 . S
C497 C498 1.334 . S
C498 H469 0.950 . S
C498 C497 1.334 . S
C498 C499 1.287 . S
C499 C498 1.287 . S
C499 C500 1.524 . S
C499 H502 0.999 . S
C500 H470 0.950 . S
C500 C499 1.524 . S
C500 C501 1.415 . S
C501 H471 0.950 . S
C501 C496 1.363 . S
C501 C500 1.415 . S
H502 C499 0.999 . S
H503 C484 0.913 . S
H504 C522 0.951 . S
H505 C524 0.951 . S
H506 C526 0.950 . S
H507 C527 0.950 . S
H508 C529 0.950 . S
H509 C532 0.950 . S
H510 C533 0.950 . S
H511 C535 0.950 . S
H512 C536 0.950 . S
H513 C537 0.951 . S
H514 C539 0.951 . S
H515 C541 0.950 . S
H516 C542 0.950 . S
H517 C544 0.950 . S
H518 C547 0.950 . S
H519 C548 0.950 . S
H520 C550 0.950 . S
H521 C551 0.950 . S
C522 H504 0.951 . S
C522 C523 1.366 . S
C522 C524 1.388 . S
C523 C522 1.366 . S
C523 C527 1.385 . S
C524 H505 0.951 . S
C524 C522 1.388 . S
C524 C525 1.366 . S
C525 C524 1.366 . S
C525 C526 1.414 . S
C525 C528 1.499 . S
C526 H506 0.950 . S
C526 C525 1.414 . S
C526 C527 1.374 . S
C527 H507 0.950 . S
C527 C523 1.385 . S
C527 C526 1.374 . S
C528 C525 1.499 . S
C528 C529 1.373 . S
C528 C530 1.389 . S
C529 H508 0.950 . S
C529 C528 1.373 . S
C529 C545 1.377 . S
C530 C528 1.389 . S
C530 C531 1.524 . S
C530 C544 1.377 . S
C531 C530 1.524 . S
C531 C532 1.397 . S
C531 C536 1.363 . S
C532 H509 0.950 . S
C532 C531 1.397 . S
C532 C533 1.334 . S
C533 H510 0.950 . S
C533 C532 1.334 . S
C533 C534 1.287 . S
C534 C533 1.287 . S
C534 C535 1.524 . S
C534 H553 0.913 . S
C535 H511 0.950 . S
C535 C534 1.524 . S
C535 C536 1.415 . S
C536 H512 0.950 . S
C536 C531 1.363 . S
C536 C535 1.415 . S
C537 H513 0.951 . S
C537 C538 1.366 . S
C537 C539 1.388 . S
C538 C537 1.366 . S
C538 C542 1.385 . S
C539 H514 0.951 . S
C539 C537 1.388 . S
C539 C540 1.366 . S
C540 C539 1.366 . S
C540 C541 1.414 . S
C540 C543 1.499 . S
C541 H515 0.950 . S
C541 C540 1.414 . S
C541 C542 1.374 . S
C542 H516 0.950 . S
C542 C538 1.385 . S
C542 C541 1.374 . S
C543 C540 1.499 . S
C543 C544 1.373 . S
C543 C545 1.389 . S
C544 H517 0.950 . S
C544 C530 1.377 . S
C544 C543 1.373 . S
C545 C529 1.377 . S
C545 C543 1.389 . S
C545 C546 1.524 . S
C546 C545 1.524 . S
C546 C547 1.397 . S
C546 C551 1.363 . S
C547 H518 0.950 . S
C547 C546 1.397 . S
C547 C548 1.334 . S
C548 H519 0.950 . S
C548 C547 1.334 . S
C548 C549 1.287 . S
C549 C548 1.287 . S
C549 C550 1.524 . S
C549 H552 0.999 . S
C550 H520 0.950 . S
C550 C549 1.524 . S
C550 C551 1.415 . S
C551 H521 0.950 . S
C551 C546 1.363 . S
C551 C550 1.415 . S
H552 C549 0.999 . S
H553 C534 0.913 . S
H554 C572 0.951 . S
H555 C574 0.951 . S
H556 C576 0.950 . S
H557 C577 0.950 . S
H558 C579 0.950 . S
H559 C582 0.950 . S
H560 C583 0.950 . S
H561 C585 0.950 . S
H562 C586 0.950 . S
H563 C587 0.951 . S
H564 C589 0.951 . S
H565 C591 0.950 . S
H566 C592 0.950 . S
H567 C594 0.950 . S
H568 C597 0.950 . S
H569 C598 0.950 . S
H570 C600 0.950 . S
H571 C601 0.950 . S
C572 H554 0.951 . S
C572 C573 1.366 . S
C572 C574 1.388 . S
C573 C572 1.366 . S
C573 C577 1.385 . S
C574 H555 0.951 . S
C574 C572 1.388 . S
C574 C575 1.366 . S
C575 C574 1.366 . S
C575 C576 1.414 . S
C575 C578 1.499 . S
C576 H556 0.950 . S
C576 C575 1.414 . S
C576 C577 1.374 . S
C577 H557 0.950 . S
C577 C573 1.385 . S
C577 C576 1.374 . S
C578 C575 1.499 . S
C578 C579 1.373 . S
C578 C580 1.389 . S
C579 H558 0.950 . S
C579 C578 1.373 . S
C579 C595 1.377 . S
C580 C578 1.389 . S
C580 C581 1.524 . S
C580 C594 1.377 . S
C581 C580 1.524 . S
C581 C582 1.397 . S
C581 C586 1.363 . S
C582 H559 0.950 . S
C582 C581 1.397 . S
C582 C583 1.334 . S
C583 H560 0.950 . S
C583 C582 1.334 . S
C583 C584 1.287 . S
C584 C583 1.287 . S
C584 C585 1.524 . S
C584 H603 0.913 . S
C585 H561 0.950 . S
C585 C584 1.524 . S
C585 C586 1.415 . S
C586 H562 0.950 . S
C586 C581 1.363 . S
C586 C585 1.415 . S
C587 H563 0.951 . S
C587 C588 1.366 . S
C587 C589 1.388 . S
C588 C587 1.366 . S
C588 C592 1.385 . S
C589 H564 0.951 . S
C589 C587 1.388 . S
C589 C590 1.366 . S
C590 C589 1.366 . S
C590 C591 1.414 . S
C590 C593 1.499 . S
C591 H565 0.950 . S
C591 C590 1.414 . S
C591 C592 1.374 . S
C592 H566 0.950 . S
C592 C588 1.385 . S
C592 C591 1.374 . S
C593 C590 1.499 . S
C593 C594 1.373 . S
C593 C595 1.389 . S
C594 H567 0.950 . S
C594 C580 1.377 . S
C594 C593 1.373 . S
C595 C579 1.377 . S
C595 C593 1.389 . S
C595 C596 1.524 . S
C596 C595 1.524 . S
C596 C597 1.397 . S
C596 C601 1.363 . S
C597 H568 0.950 . S
C597 C596 1.397 . S
C597 C598 1.334 . S
C598 H569 0.950 . S
C598 C597 1.334 . S
C598 C599 1.287 . S
C599 C598 1.287 . S
C599 C600 1.524 . S
C599 H602 0.999 . S
C600 H570 0.950 . S
C600 C599 1.524 . S
C600 C601 1.415 . S
C601 H571 0.950 . S
C601 C596 1.363 . S
C601 C600 1.415 . S
H602 C599 0.999 . S
H603 C584 0.913 . S
H604 C622 0.951 . S
H605 C624 0.951 . S
H606 C626 0.950 . S
H607 C627 0.950 . S
H608 C629 0.950 . S
H609 C632 0.950 . S
H610 C633 0.950 . S
H611 C635 0.950 . S
H612 C636 0.950 . S
H613 C637 0.951 . S
H614 C639 0.951 . S
H615 C641 0.950 . S
H616 C642 0.950 . S
H617 C644 0.950 . S
H618 C647 0.950 . S
H619 C648 0.950 . S
H620 C650 0.950 . S
H621 C651 0.950 . S
C622 H604 0.951 . S
C622 C623 1.366 . S
C622 C624 1.388 . S
C623 C622 1.366 . S
C623 C627 1.385 . S
C624 H605 0.951 . S
C624 C622 1.388 . S
C624 C625 1.366 . S
C625 C624 1.366 . S
C625 C626 1.414 . S
C625 C628 1.499 . S
C626 H606 0.950 . S
C626 C625 1.414 . S
C626 C627 1.374 . S
C627 H607 0.950 . S
C627 C623 1.385 . S
C627 C626 1.374 . S
C628 C625 1.499 . S
C628 C629 1.373 . S
C628 C630 1.389 . S
C629 H608 0.950 . S
C629 C628 1.373 . S
C629 C645 1.377 . S
C630 C628 1.389 . S
C630 C631 1.524 . S
C630 C644 1.377 . S
C631 C630 1.524 . S
C631 C632 1.397 . S
C631 C636 1.363 . S
C632 H609 0.950 . S
C632 C631 1.397 . S
C632 C633 1.334 . S
C633 H610 0.950 . S
C633 C632 1.334 . S
C633 C634 1.287 . S
C634 C633 1.287 . S
C634 C635 1.524 . S
C634 H653 0.913 . S
C635 H611 0.950 . S
C635 C634 1.524 . S
C635 C636 1.415 . S
C636 H612 0.950 . S
C636 C631 1.363 . S
C636 C635 1.415 . S
C637 H613 0.951 . S
C637 C638 1.366 . S
C637 C639 1.388 . S
C638 C637 1.366 . S
C638 C642 1.385 . S
C639 H614 0.951 . S
C639 C637 1.388 . S
C639 C640 1.366 . S
C640 C639 1.366 . S
C640 C641 1.414 . S
C640 C643 1.499 . S
C641 H615 0.950 . S
C641 C640 1.414 . S
C641 C642 1.374 . S
C642 H616 0.950 . S
C642 C638 1.385 . S
C642 C641 1.374 . S
C643 C640 1.499 . S
C643 C644 1.373 . S
C643 C645 1.389 . S
C644 H617 0.950 . S
C644 C630 1.377 . S
C644 C643 1.373 . S
C645 C629 1.377 . S
C645 C643 1.389 . S
C645 C646 1.524 . S
C646 C645 1.524 . S
C646 C647 1.397 . S
C646 C651 1.363 . S
C647 H618 0.950 . S
C647 C646 1.397 . S
C647 C648 1.334 . S
C648 H619 0.950 . S
C648 C647 1.334 . S
C648 C649 1.287 . S
C649 C648 1.287 . S
C649 C650 1.524 . S
C649 H652 0.999 . S
C650 H620 0.950 . S
C650 C649 1.524 . S
C650 C651 1.415 . S
C651 H621 0.950 . S
C651 C646 1.363 . S
C651 C650 1.415 . S
H652 C649 0.999 . S
H653 C634 0.913 . S
H654 C672 0.951 . S
H655 C674 0.951 . S
H656 C676 0.950 . S
H657 C677 0.950 . S
H658 C679 0.950 . S
H659 C682 0.950 . S
H660 C683 0.950 . S
H661 C685 0.950 . S
H662 C686 0.950 . S
H663 C687 0.951 . S
H664 C689 0.951 . S
H665 C691 0.950 . S
H666 C692 0.950 . S
H667 C694 0.950 . S
H668 C697 0.950 . S
H669 C698 0.950 . S
H670 C700 0.950 . S
H671 C701 0.950 . S
C672 H654 0.951 . S
C672 C673 1.366 . S
C672 C674 1.388 . S
C673 C672 1.366 . S
C673 C677 1.385 . S
C674 H655 0.951 . S
C674 C672 1.388 . S
C674 C675 1.366 . S
C675 C674 1.366 . S
C675 C676 1.414 . S
C675 C678 1.499 . S
C676 H656 0.950 . S
C676 C675 1.414 . S
C676 C677 1.374 . S
C677 H657 0.950 . S
C677 C673 1.385 . S
C677 C676 1.374 . S
C678 C675 1.499 . S
C678 C679 1.373 . S
C678 C680 1.389 . S
C679 H658 0.950 . S
C679 C678 1.373 . S
C679 C695 1.377 . S
C680 C678 1.389 . S
C680 C681 1.524 . S
C680 C694 1.377 . S
C681 C680 1.524 . S
C681 C682 1.397 . S
C681 C686 1.363 . S
C682 H659 0.950 . S
C682 C681 1.397 . S
C682 C683 1.334 . S
C683 H660 0.950 . S
C683 C682 1.334 . S
C683 C684 1.287 . S
C684 C683 1.287 . S
C684 C685 1.524 . S
C684 H703 0.913 . S
C685 H661 0.950 . S
C685 C684 1.524 . S
C685 C686 1.415 . S
C686 H662 0.950 . S
C686 C681 1.363 . S
C686 C685 1.415 . S
C687 H663 0.951 . S
C687 C688 1.366 . S
C687 C689 1.388 . S
C688 C687 1.366 . S
C688 C692 1.385 . S
C689 H664 0.951 . S
C689 C687 1.388 . S
C689 C690 1.366 . S
C690 C689 1.366 . S
C690 C691 1.414 . S
C690 C693 1.499 . S
C691 H665 0.950 . S
C691 C690 1.414 . S
C691 C692 1.374 . S
C692 H666 0.950 . S
C692 C688 1.385 . S
C692 C691 1.374 . S
C693 C690 1.499 . S
C693 C694 1.373 . S
C693 C695 1.389 . S
C694 H667 0.950 . S
C694 C680 1.377 . S
C694 C693 1.373 . S
C695 C679 1.377 . S
C695 C693 1.389 . S
C695 C696 1.524 . S
C696 C695 1.524 . S
C696 C697 1.397 . S
C696 C701 1.363 . S
C697 H668 0.950 . S
C697 C696 1.397 . S
C697 C698 1.334 . S
C698 H669 0.950 . S
C698 C697 1.334 . S
C698 C699 1.287 . S
C699 C698 1.287 . S
C699 C700 1.524 . S
C699 H702 0.999 . S
C700 H670 0.950 . S
C700 C699 1.524 . S
C700 C701 1.415 . S
C701 H671 0.950 . S
C701 C696 1.363 . S
C701 C700 1.415 . S
H702 C699 0.999 . S
H703 C684 0.913 . S
H704 C722 0.951 . S
H705 C724 0.951 . S
H706 C726 0.950 . S
H707 C727 0.950 . S
H708 C729 0.950 . S
H709 C732 0.923 1_655 S
H710 C733 0.950 . S
H711 C735 0.950 . S
H712 C736 0.950 1_565 S
H713 C737 0.951 . S
H714 C739 0.951 . S
H715 C741 0.950 . S
H716 C742 0.950 . S
H717 C744 0.950 . S
H718 C747 0.923 1_455 S
H719 C748 0.950 . S
H720 C750 0.950 . S
H721 C751 0.950 1_545 S
C722 H704 0.951 . S
C722 C723 1.366 . S
C722 C724 1.388 . S
C723 C722 1.366 . S
C723 C727 1.385 1_455 S
C724 H705 0.951 . S
C724 C722 1.388 . S
C724 C725 1.366 . S
C725 C724 1.366 . S
C725 C726 1.414 1_455 S
C725 C728 1.499 . S
C726 H706 0.950 . S
C726 C725 1.414 1_655 S
C726 C727 1.374 . S
C727 H707 0.950 . S
C727 C723 1.385 1_655 S
C727 C726 1.374 . S
C728 C725 1.499 . S
C728 C729 1.373 1_455 S
C728 C730 1.389 . S
C729 H708 0.950 . S
C729 C728 1.373 1_655 S
C729 C745 1.377 1_545 S
C730 C728 1.389 . S
C730 C731 1.524 . S
C730 C744 1.377 1_545 S
C731 C730 1.524 . S
C731 C732 1.397 . S
C731 C736 1.363 . S
C732 H709 0.923 1_455 S
C732 C731 1.397 . S
C732 C733 1.334 . S
C733 H710 0.950 . S
C733 C732 1.334 . S
C733 C734 1.287 . S
C734 C733 1.287 . S
C734 C735 1.524 . S
C734 H753 0.913 . S
C735 H711 0.950 . S
C735 C734 1.524 . S
C735 C736 1.415 . S
C736 H712 0.950 1_545 S
C736 C731 1.363 . S
C736 C735 1.415 . S
C737 H713 0.951 . S
C737 C738 1.366 . S
C737 C739 1.388 . S
C738 C737 1.366 . S
C738 C742 1.385 1_655 S
C739 H714 0.951 . S
C739 C737 1.388 . S
C739 C740 1.366 . S
C740 C739 1.366 . S
C740 C741 1.414 1_655 S
C740 C743 1.499 . S
C741 H715 0.950 . S
C741 C740 1.414 1_455 S
C741 C742 1.374 . S
C742 H716 0.950 . S
C742 C738 1.385 1_455 S
C742 C741 1.374 . S
C743 C740 1.499 . S
C743 C744 1.373 1_655 S
C743 C745 1.389 . S
C744 H717 0.950 . S
C744 C730 1.377 1_565 S
C744 C743 1.373 1_455 S
C745 C729 1.377 1_565 S
C745 C743 1.389 . S
C745 C746 1.524 . S
C746 C745 1.524 . S
C746 C747 1.397 . S
C746 C751 1.363 . S
C747 H718 0.923 1_655 S
C747 C746 1.397 . S
C747 C748 1.334 . S
C748 H719 0.950 . S
C748 C747 1.334 . S
C748 C749 1.287 . S
C749 C748 1.287 . S
C749 C750 1.524 . S
C749 H752 0.999 . S
C750 H720 0.950 . S
C750 C749 1.524 . S
C750 C751 1.415 . S
C751 H721 0.950 1_565 S
C751 C746 1.363 . S
C751 C750 1.415 . S
H752 C749 0.999 . S
H753 C734 0.913 . S
H754 C772 0.951 . S
H755 C774 0.951 . S
H756 C776 0.950 . S
H757 C777 0.950 . S
H758 C779 0.950 . S
H759 C782 0.950 . S
H760 C783 0.950 . S
H761 C785 0.950 . S
H762 C786 0.950 . S
H763 C787 0.951 . S
H764 C789 0.951 . S
H765 C791 0.950 . S
H766 C792 0.950 . S
H767 C794 0.950 . S
H768 C797 0.950 . S
H769 C798 0.950 . S
H770 C800 0.950 . S
H771 C801 0.950 . S
C772 H754 0.951 . S
C772 C773 1.366 . S
C772 C774 1.388 . S
C773 C772 1.366 . S
C773 C777 1.385 . S
C774 H755 0.951 . S
C774 C772 1.388 . S
C774 C775 1.366 . S
C775 C774 1.366 . S
C775 C776 1.414 . S
C775 C778 1.499 . S
C776 H756 0.950 . S
C776 C775 1.414 . S
C776 C777 1.374 . S
C777 H757 0.950 . S
C777 C773 1.385 . S
C777 C776 1.374 . S
C778 C775 1.499 . S
C778 C779 1.373 . S
C778 C780 1.389 1_565 S
C779 H758 0.950 . S
C779 C778 1.373 . S
C779 C795 1.377 1_455 S
C780 C778 1.389 1_545 S
C780 C781 1.524 . S
C780 C794 1.377 1_455 S
C781 C780 1.524 . S
C781 C782 1.397 . S
C781 C786 1.363 . S
C782 H759 0.950 . S
C782 C781 1.397 . S
C782 C783 1.334 . S
C783 H760 0.950 . S
C783 C782 1.334 . S
C783 C784 1.287 . S
C784 C783 1.287 . S
C784 C785 1.524 . S
C784 H803 0.913 . S
C785 H761 0.950 . S
C785 C784 1.524 . S
C785 C786 1.415 . S
C786 H762 0.950 . S
C786 C781 1.363 . S
C786 C785 1.415 . S
C787 H763 0.951 . S
C787 C788 1.366 . S
C787 C789 1.388 . S
C788 C787 1.366 . S
C788 C792 1.385 . S
C789 H764 0.951 . S
C789 C787 1.388 . S
C789 C790 1.366 . S
C790 C789 1.366 . S
C790 C791 1.414 . S
C790 C793 1.499 . S
C791 H765 0.950 . S
C791 C790 1.414 . S
C791 C792 1.374 . S
C792 H766 0.950 . S
C792 C788 1.385 . S
C792 C791 1.374 . S
C793 C790 1.499 . S
C793 C794 1.373 . S
C793 C795 1.389 1_545 S
C794 H767 0.950 . S
C794 C780 1.377 1_655 S
C794 C793 1.373 . S
C795 C779 1.377 1_655 S
C795 C793 1.389 1_565 S
C795 C796 1.524 . S
C796 C795 1.524 . S
C796 C797 1.397 . S
C796 C801 1.363 . S
C797 H768 0.950 . S
C797 C796 1.397 . S
C797 C798 1.334 . S
C798 H769 0.950 . S
C798 C797 1.334 . S
C798 C799 1.287 . S
C799 C798 1.287 . S
C799 C800 1.524 . S
C799 H802 0.999 . S
C800 H770 0.950 . S
C800 C799 1.524 . S
C800 C801 1.415 . S
C801 H771 0.950 . S
C801 C796 1.363 . S
C801 C800 1.415 . S
H802 C799 0.999 . S
H803 C784 0.913 . S
H804 C822 0.951 . S
H805 C824 0.951 . S
H806 C826 0.950 . S
H807 C827 0.950 . S
H808 C829 0.950 . S
H809 C832 0.950 . S
H810 C833 0.950 . S
H811 C835 0.950 . S
H812 C836 0.950 . S
H813 C837 0.951 . S
H814 C839 0.951 . S
H815 C841 0.950 . S
H816 C842 0.950 . S
H817 C844 0.950 . S
H818 C847 0.950 . S
H819 C848 0.950 . S
H820 C850 0.950 . S
H821 C851 0.950 . S
C822 H804 0.951 . S
C822 C823 1.366 . S
C822 C824 1.388 . S
C823 C822 1.366 . S
C823 C827 1.385 . S
C824 H805 0.951 . S
C824 C822 1.388 . S
C824 C825 1.366 . S
C825 C824 1.366 . S
C825 C826 1.414 . S
C825 C828 1.499 . S
C826 H806 0.950 . S
C826 C825 1.414 . S
C826 C827 1.374 . S
C827 H807 0.950 . S
C827 C823 1.385 . S
C827 C826 1.374 . S
C828 C825 1.499 . S
C828 C829 1.373 . S
C828 C830 1.389 1_655 S
C829 H808 0.950 . S
C829 C828 1.373 . S
C829 C845 1.377 1_545 S
C830 C828 1.389 1_455 S
C830 C831 1.524 . S
C830 C844 1.377 1_545 S
C831 C830 1.524 . S
C831 C832 1.397 . S
C831 C836 1.363 . S
C832 H809 0.950 . S
C832 C831 1.397 . S
C832 C833 1.334 . S
C833 H810 0.950 . S
C833 C832 1.334 . S
C833 C834 1.287 . S
C834 C833 1.287 . S
C834 C835 1.524 . S
C834 H853 0.913 . S
C835 H811 0.950 . S
C835 C834 1.524 . S
C835 C836 1.415 . S
C836 H812 0.950 . S
C836 C831 1.363 . S
C836 C835 1.415 . S
C837 H813 0.951 . S
C837 C838 1.366 . S
C837 C839 1.388 . S
C838 C837 1.366 . S
C838 C842 1.385 . S
C839 H814 0.951 . S
C839 C837 1.388 . S
C839 C840 1.366 . S
C840 C839 1.366 . S
C840 C841 1.414 . S
C840 C843 1.499 . S
C841 H815 0.950 . S
C841 C840 1.414 . S
C841 C842 1.374 . S
C842 H816 0.950 . S
C842 C838 1.385 . S
C842 C841 1.374 . S
C843 C840 1.499 . S
C843 C844 1.373 . S
C843 C845 1.389 1_455 S
C844 H817 0.950 . S
C844 C830 1.377 1_565 S
C844 C843 1.373 . S
C845 C829 1.377 1_565 S
C845 C843 1.389 1_655 S
C845 C846 1.524 . S
C846 C845 1.524 . S
C846 C847 1.397 . S
C846 C851 1.363 . S
C847 H818 0.950 . S
C847 C846 1.397 . S
C847 C848 1.334 . S
C848 H819 0.950 . S
C848 C847 1.334 . S
C848 C849 1.287 . S
C849 C848 1.287 . S
C849 C850 1.524 . S
C849 H852 0.999 . S
C850 H820 0.950 . S
C850 C849 1.524 . S
C850 C851 1.415 . S
C851 H821 0.950 . S
C851 C846 1.363 . S
C851 C850 1.415 . S
H852 C849 0.999 . S
H853 C834 0.913 . S
H854 C872 0.951 . S
H855 C874 0.951 1_545 S
H856 C876 0.950 . S
H857 C877 0.950 . S
H858 C879 0.950 . S
H859 C882 0.950 . S
H860 C883 0.950 . S
H861 C885 0.950 . S
H862 C886 0.950 . S
H863 C887 0.951 . S
H864 C889 0.951 1_565 S
H865 C891 0.950 . S
H866 C892 0.950 . S
H867 C894 0.950 . S
H868 C897 0.950 . S
H869 C898 0.950 . S
H870 C900 0.950 . S
H871 C901 0.950 . S
C872 H854 0.951 . S
C872 C873 1.366 . S
C872 C874 1.388 . S
C873 C872 1.366 . S
C873 C877 1.385 . S
C874 H855 0.951 1_565 S
C874 C872 1.388 . S
C874 C875 1.366 . S
C875 C874 1.366 . S
C875 C876 1.414 . S
C875 C878 1.499 . S
C876 H856 0.950 . S
C876 C875 1.414 . S
C876 C877 1.374 . S
C877 H857 0.950 . S
C877 C873 1.385 . S
C877 C876 1.374 . S
C878 C875 1.499 . S
C878 C879 1.373 . S
C878 C880 1.389 1_565 S
C879 H858 0.950 . S
C879 C878 1.373 . S
C879 C895 1.377 1_655 S
C880 C878 1.389 1_545 S
C880 C881 1.524 . S
C880 C894 1.377 1_655 S
C881 C880 1.524 . S
C881 C882 1.397 . S
C881 C886 1.363 . S
C882 H859 0.950 . S
C882 C881 1.397 . S
C882 C883 1.334 . S
C883 H860 0.950 . S
C883 C882 1.334 . S
C883 C884 1.287 . S
C884 C883 1.287 . S
C884 C885 1.524 . S
C884 H903 0.913 . S
C885 H861 0.950 . S
C885 C884 1.524 . S
C885 C886 1.415 . S
C886 H862 0.950 . S
C886 C881 1.363 . S
C886 C885 1.415 . S
C887 H863 0.951 . S
C887 C888 1.366 . S
C887 C889 1.388 . S
C888 C887 1.366 . S
C888 C892 1.385 . S
C889 H864 0.951 1_545 S
C889 C887 1.388 . S
C889 C890 1.366 . S
C890 C889 1.366 . S
C890 C891 1.414 . S
C890 C893 1.499 . S
C891 H865 0.950 . S
C891 C890 1.414 . S
C891 C892 1.374 . S
C892 H866 0.950 . S
C892 C888 1.385 . S
C892 C891 1.374 . S
C893 C890 1.499 . S
C893 C894 1.373 . S
C893 C895 1.389 1_545 S
C894 H867 0.950 . S
C894 C880 1.377 1_455 S
C894 C893 1.373 . S
C895 C879 1.377 1_455 S
C895 C893 1.389 1_565 S
C895 C896 1.524 . S
C896 C895 1.524 . S
C896 C897 1.397 . S
C896 C901 1.363 . S
C897 H868 0.950 . S
C897 C896 1.397 . S
C897 C898 1.334 . S
C898 H869 0.950 . S
C898 C897 1.334 . S
C898 C899 1.287 . S
C899 C898 1.287 . S
C899 C900 1.524 . S
C899 H902 0.999 . S
C900 H870 0.950 . S
C900 C899 1.524 . S
C900 C901 1.415 . S
C901 H871 0.950 . S
C901 C896 1.363 . S
C901 C900 1.415 . S
H902 C899 0.999 . S
H903 C884 0.913 . S
C123 C4 1.272 . S
C138 C30 1.272 . S
C173 C49 1.272 . S
C188 C17 1.272 . S
C223 C82 1.272 . S
C238 C56 1.272 . S
C273 C69 1.272 . S
C288 C95 1.272 . S
C323 C88 1.460 . S
C338 C10 1.460 . S
C373 C23 1.460 . S
C388 C101 1.460 . S
C423 C36 1.461 . S
C438 C62 1.461 . S
C473 C75 1.459 . S
C488 C43 1.460 . S
C523 C3 1.284 . S
C538 C68 1.283 . S
C573 C81 1.284 . S
C588 C16 1.283 . S
C623 C94 1.283 . S
C638 C29 1.284 . S
C673 C44 1.283 . S
C688 C55 1.284 . S
C723 C5 1.023 . S
C738 C31 1.023 . S
C773 C42 1.023 . S
C788 C18 1.022 . S
C823 C83 1.022 . S
C838 C57 1.022 . S
C873 C96 1.022 . S
C888 C70 1.022 . S
