# Generated by pormake.
# Topology wkb, (5)-cn, num edge types: 1
# Building blocks:
#     Node 0, Type 0, BuildingBlock: XOMCOT_clean_sbu_0, # of connection points: 5
#     Node 1, Type 0, BuildingBlock: XOMCOT_clean_sbu_0, # of connection points: 5
#     Node 2, Type 0, BuildingBlock: XOMCOT_clean_sbu_0, # of connection points: 5
#     Node 3, Type 0, BuildingBlock: XOMCOT_clean_sbu_0, # of connection points: 5
#     Node 4, Type 0, BuildingBlock: XOMCOT_clean_sbu_0, # of connection points: 5
#     Node 5, Type 0, BuildingBlock: XOMCOT_clean_sbu_0, # of connection points: 5
#     Node 6, Type 0, BuildingBlock: XOMCOT_clean_sbu_0, # of connection points: 5
#     Node 7, Type 0, BuildingBlock: XOMCOT_clean_sbu_0, # of connection points: 5
#     Node 8, Type 0, BuildingBlock: XOMCOT_clean_sbu_0, # of connection points: 5
#     Node 9, Type 0, BuildingBlock: XOMCOT_clean_sbu_0, # of connection points: 5
#     Node 10, Type 0, BuildingBlock: XOMCOT_clean_sbu_0, # of connection points: 5
#     Node 11, Type 0, BuildingBlock: XOMCOT_clean_sbu_0, # of connection points: 5
#     Edge 12, Type (0, 0), BuildingBlock: OJICUG_clean_linker_0, # of connection points: 2
#     Edge 13, Type (0, 0), BuildingBlock: OJICUG_clean_linker_0, # of connection points: 2
#     Edge 14, Type (0, 0), BuildingBlock: OJICUG_clean_linker_0, # of connection points: 2
#     Edge 15, Type (0, 0), BuildingBlock: OJICUG_clean_linker_0, # of connection points: 2
#     Edge 16, Type (0, 0), BuildingBlock: OJICUG_clean_linker_0, # of connection points: 2
#     Edge 17, Type (0, 0), BuildingBlock: OJICUG_clean_linker_0, # of connection points: 2
#     Edge 18, Type (0, 0), BuildingBlock: OJICUG_clean_linker_0, # of connection points: 2
#     Edge 19, Type (0, 0), BuildingBlock: OJICUG_clean_linker_0, # of connection points: 2
#     Edge 20, Type (0, 0), BuildingBlock: OJICUG_clean_linker_0, # of connection points: 2
#     Edge 21, Type (0, 0), BuildingBlock: OJICUG_clean_linker_0, # of connection points: 2
#     Edge 22, Type (0, 0), BuildingBlock: OJICUG_clean_linker_0, # of connection points: 2
#     Edge 23, Type (0, 0), BuildingBlock: OJICUG_clean_linker_0, # of connection points: 2
#     Edge 24, Type (0, 0), BuildingBlock: OJICUG_clean_linker_0, # of connection points: 2
#     Edge 25, Type (0, 0), BuildingBlock: OJICUG_clean_linker_0, # of connection points: 2
#     Edge 26, Type (0, 0), BuildingBlock: OJICUG_clean_linker_0, # of connection points: 2
#     Edge 27, Type (0, 0), BuildingBlock: OJICUG_clean_linker_0, # of connection points: 2
#     Edge 28, Type (0, 0), BuildingBlock: OJICUG_clean_linker_0, # of connection points: 2
#     Edge 29, Type (0, 0), BuildingBlock: OJICUG_clean_linker_0, # of connection points: 2
#     Edge 30, Type (0, 0), BuildingBlock: OJICUG_clean_linker_0, # of connection points: 2
#     Edge 31, Type (0, 0), BuildingBlock: OJICUG_clean_linker_0, # of connection points: 2
#     Edge 32, Type (0, 0), BuildingBlock: OJICUG_clean_linker_0, # of connection points: 2
#     Edge 33, Type (0, 0), BuildingBlock: OJICUG_clean_linker_0, # of connection points: 2
#     Edge 34, Type (0, 0), BuildingBlock: OJICUG_clean_linker_0, # of connection points: 2
#     Edge 35, Type (0, 0), BuildingBlock: OJICUG_clean_linker_0, # of connection points: 2
#     Edge 36, Type (0, 0), BuildingBlock: OJICUG_clean_linker_0, # of connection points: 2
#     Edge 37, Type (0, 0), BuildingBlock: OJICUG_clean_linker_0, # of connection points: 2
#     Edge 38, Type (0, 0), BuildingBlock: OJICUG_clean_linker_0, # of connection points: 2
#     Edge 39, Type (0, 0), BuildingBlock: OJICUG_clean_linker_0, # of connection points: 2
#     Edge 40, Type (0, 0), BuildingBlock: OJICUG_clean_linker_0, # of connection points: 2
#     Edge 41, Type (0, 0), BuildingBlock: OJICUG_clean_linker_0, # of connection points: 2
# Relax obj value: 0.126
# Max RMSD: 0.149
# Mean RMSD: 0.149
data_MOF--net-wkb--node1-XOMCOT_clean_sbu_0--edge1-OJICUG_clean_linker_0
_symmetry_space_group_name_H-M    P1
_symmetry_Int_Tables_number       1
_symmetry_cell_setting            triclinic
loop_
_symmetry_equiv_pos_as_xyz
'x, y, z'
_cell_length_a     34.40434
_cell_length_b     34.426703
_cell_length_c     28.282459
_cell_angle_alpha  90.122118
_cell_angle_beta   89.941243
_cell_angle_gamma 119.77665
loop_
_atom_site_label
_atom_site_type_symbol
_atom_site_fract_x
_atom_site_fract_y
_atom_site_fract_z
_atom_type_partial_charge
Co0 Co 0.07054 0.32831 0.08373 0.0
C1 C 0.06265 0.32473 0.9785 0.0
C2 C 0.99803 0.28952 0.01064 0.0
C3 C 0.99268 0.28707 0.96224 0.0
N4 N 1.04218 0.31324 0.0211 0.0
N5 N 1.03349 0.30931 0.94203 0.0
H6 H 0.09812 0.34361 0.97367 0.0
H7 H 0.97102 0.2753 0.03599 0.0
C8 C 0.15958 0.35967 0.03272 0.0
O9 O 0.1619 0.39759 0.02098 0.0
N10 N 0.09842 0.34191 0.14546 0.0
C11 C 0.089 0.36084 0.18219 0.0
C12 C 0.11703 0.36552 0.21918 0.0
C13 C 0.13161 0.33494 0.16057 0.0
N14 N 0.14389 0.34937 0.20543 0.0
C15 C 0.06011 0.40171 0.05614 0.0
C16 C 0.1396 0.46998 0.09182 0.0
C17 C 0.10816 0.4806 0.07322 0.0
C18 C 0.06792 0.44542 0.05545 0.0
C19 C 0.12999 0.42533 0.09271 0.0
N20 N 0.09102 0.39179 0.07382 0.0
H21 H 1.0277 0.37538 0.0448 0.0
H22 H 0.15406 0.41783 0.1086 0.0
H23 H 0.06416 0.37137 0.18176 0.0
H24 H 0.14635 0.31945 0.13932 0.0
O25 O 1.0146 0.31416 0.11287 0.0
O26 O 1.03793 0.26534 0.10138 0.0
O27 O 0.12595 0.32994 0.05585 0.0
C28 C 1.00739 0.27364 0.11809 0.0
H29 H 0.96105 0.27066 0.94361 0.0
H30 H 0.11832 0.38074 0.25308 0.0
H31 H 0.17119 0.49572 0.10606 0.0
H32 H 1.04138 0.45097 0.04285 0.0
Co33 Co 0.78122 0.05073 0.24868 0.0
C34 C 0.77815 0.04379 0.1438 0.0
C35 C 0.75242 0.97912 0.17509 0.0
C36 C 0.75025 0.9743 0.12668 0.0
N37 N 0.77008 1.02294 0.18604 0.0
N38 N 0.7665 1.01509 0.10701 0.0
H39 H 0.79216 0.07921 0.1397 0.0
H40 H 0.74104 0.95197 0.20007 0.0
C41 C 0.8396 0.14039 0.20037 0.0
O42 O 0.80434 0.14401 0.19036 0.0
N43 N 0.79424 0.07809 0.31072 0.0
C44 C 0.76583 0.06886 0.34727 0.0
C45 C 0.7893 0.09605 0.38479 0.0
C46 C 0.83452 0.10994 0.32661 0.0
N47 N 0.83247 0.12196 0.37162 0.0
C48 C 0.69991 0.04319 0.21353 0.0
C49 C 0.70442 0.1153 0.26148 0.0
C50 C 0.66406 0.08478 0.23949 0.0
C51 C 0.66316 0.04978 0.21324 0.0
C52 C 0.74122 0.10827 0.25967 0.0
N53 N 0.7385 0.07181 0.23682 0.0
H54 H 0.69559 1.01287 0.19755 0.0
H55 H 0.77139 0.13151 0.27822 0.0
H56 H 0.73044 0.04465 0.34642 0.0
H57 H 0.86484 0.12362 0.3058 0.0
O58 O 0.73861 0.99486 0.27673 0.0
O59 O 0.81086 1.01765 0.26779 0.0
O60 O 0.83544 0.10591 0.22198 0.0
C61 C 0.77167 0.98737 0.28349 0.0
H62 H 0.73699 0.94297 0.10765 0.0
H63 H 0.77535 0.09725 0.41871 0.0
H64 H 0.70695 0.14293 0.28222 0.0
H65 H 0.63327 1.02583 0.1946 0.0
Co66 Co 0.76741 0.76118 0.41504 0.0
C67 C 0.76964 0.75816 0.30991 0.0
C68 C 0.80832 0.73133 0.34013 0.0
C69 C 0.8104 0.72927 0.29163 0.0
N70 N 0.78263 0.74953 0.35184 0.0
N71 N 0.78617 0.74633 0.2728 0.0
H72 H 0.74741 0.77146 0.30605 0.0
H73 H 0.82439 0.71978 0.36465 0.0
C74 C 0.73555 0.81985 0.36804 0.0
O75 O 0.69622 0.78494 0.35947 0.0
N76 N 0.75463 0.77499 0.47758 0.0
C77 C 0.73706 0.74715 0.51474 0.0
C78 C 0.73345 0.77087 0.55219 0.0
C79 C 0.76222 0.81522 0.49306 0.0
N80 N 0.74914 0.81364 0.53839 0.0
C81 C 0.69239 0.68068 0.37977 0.0
C82 C 0.62669 0.68525 0.43158 0.0
C83 C 0.61579 0.64514 0.40807 0.0
C84 C 0.64893 0.64449 0.37968 0.0
C85 C 0.67042 0.72175 0.42904 0.0
N86 N 0.70336 0.71891 0.40451 0.0
H87 H 0.71761 0.67616 0.36212 0.0
H88 H 0.67789 0.75177 0.44833 0.0
H89 H 0.72673 0.71191 0.51432 0.0
H90 H 0.7774 0.84518 0.4717 0.0
O91 O 0.78129 0.71848 0.44248 0.0
O92 O 0.83033 0.79051 0.43269 0.0
O93 O 0.76614 0.81536 0.38869 0.0
C94 C 0.82187 0.75143 0.4484 0.0
H95 H 0.82876 0.71668 0.2718 0.0
H96 H 0.71932 0.75731 0.58649 0.0
H97 H 0.60255 0.68792 0.4539 0.0
H98 H 0.6423 0.61519 0.35928 0.0
Co99 Co 1.0458 0.74913 0.57869 0.0
C100 C 1.05179 0.74977 0.47349 0.0
C101 C 0.11582 0.79377 0.50399 0.0
C102 C 0.12021 0.79535 0.45555 0.0
N103 N 0.07271 0.76512 0.51553 0.0
N104 N 0.07985 0.76768 0.43627 0.0
H105 H 1.01684 0.72572 0.46998 0.0
H106 H 0.14287 0.81215 0.52858 0.0
C107 C 0.95544 0.7165 0.53087 0.0
O108 O 0.95177 0.67743 0.522 0.0
N109 N 1.01894 0.73533 0.64112 0.0
C110 C 1.02948 0.71749 0.67791 0.0
C111 C 1.00241 0.7137 0.71565 0.0
C112 C 0.98628 0.74281 0.65713 0.0
N113 N 0.97515 0.72954 0.70247 0.0
C114 C 1.0554 0.67613 0.54481 0.0
C115 C 0.9846 0.60867 0.59369 0.0
C116 C 1.01586 0.59932 0.57213 0.0
C117 C 1.05023 0.63337 0.54549 0.0
C118 C 0.9902 0.65188 0.59092 0.0
N119 N 1.026 0.68558 0.56757 0.0
H120 H 0.08529 0.70226 0.52851 0.0
H121 H 0.96652 0.65845 0.60929 0.0
H122 H 1.05456 0.70727 0.6771 0.0
H123 H 0.97133 0.75818 0.63614 0.0
O124 O 0.10239 0.76358 0.60632 0.0
O125 O 0.07821 0.81197 0.5973 0.0
O126 O 0.98993 0.74706 0.55216 0.0
C127 C 0.10916 0.80382 0.61296 0.0
H128 H 0.15112 0.81485 0.43628 0.0
H129 H 1.00222 0.69944 0.74977 0.0
H130 H 0.95742 0.58371 0.61477 0.0
H131 H 0.07469 0.62789 0.52706 0.0
Co132 Co 0.33528 1.02678 0.74452 0.0
C133 C 0.33794 1.03214 0.63957 0.0
C134 C 0.36348 0.09725 0.67009 0.0
C135 C 0.36511 0.10139 0.62161 0.0
N136 N 0.3463 0.0536 0.68156 0.0
N137 N 0.34881 0.06032 0.60264 0.0
H138 H 0.3254 0.99687 0.6355 0.0
H139 H 0.3745 0.1247 0.69474 0.0
C140 C 0.27677 0.93653 0.69673 0.0
O141 O 0.31198 0.93266 0.68706 0.0
N142 N 0.32257 1.00049 0.80694 0.0
C143 C 0.35081 1.01118 0.84393 0.0
C144 C 0.32731 0.98496 0.88197 0.0
C145 C 0.28246 0.96861 0.82294 0.0
N146 N 0.28445 0.95813 0.86847 0.0
C147 C 0.41671 1.03382 0.71028 0.0
C148 C 0.41141 0.96192 0.75915 0.0
C149 C 0.45202 0.99212 0.73744 0.0
C150 C 0.45338 1.02706 0.71078 0.0
C151 C 0.37481 0.96917 0.75667 0.0
N152 N 0.37791 1.00551 0.73337 0.0
H153 H 0.42115 0.06397 0.69386 0.0
H154 H 0.34446 0.94623 0.7751 0.0
H155 H 0.38602 1.03598 0.84318 0.0
H156 H 0.25217 0.95393 0.802 0.0
O157 O 0.37776 0.08318 0.77198 0.0
O158 O 0.3054 0.05984 0.76289 0.0
O159 O 0.28103 0.97118 0.71825 0.0
C160 C 0.34449 0.09043 0.77852 0.0
H161 H 0.37677 0.13212 0.6019 0.0
H162 H 0.34083 0.98516 0.91657 0.0
H163 H 0.40853 0.9344 0.78023 0.0
H164 H 0.48352 0.05079 0.69239 0.0
Co165 Co 0.34595 0.31471 0.91301 0.0
C166 C 0.34352 0.31849 0.80809 0.0
C167 C 0.30338 0.34344 0.83891 0.0
C168 C 0.30108 0.34555 0.79041 0.0
N169 N 0.33009 0.32633 0.8502 0.0
N170 N 0.3262 0.32959 0.77123 0.0
H171 H 0.36649 0.30614 0.80389 0.0
H172 H 0.28663 0.35405 0.86371 0.0
C173 C 0.37836 0.25698 0.86438 0.0
O174 O 0.41723 0.29228 0.85525 0.0
N175 N 0.35956 0.30108 0.97512 0.0
C176 C 0.37765 0.32906 0.0122 0.0
C177 C 0.3816 0.30544 0.0494 0.0
C178 C 0.35205 0.26087 0.9904 0.0
N179 N 0.36562 0.26259 0.03552 0.0
C180 C 0.41969 0.39621 0.87909 0.0
C181 C 0.48665 0.39109 0.9276 0.0
C182 C 0.49665 0.43157 0.90577 0.0
C183 C 0.46287 0.43281 0.8793 0.0
C184 C 0.44303 0.35448 0.9253 0.0
N185 N 0.40961 0.35746 0.9021 0.0
H186 H 0.39388 0.40069 0.86287 0.0
H187 H 0.43601 0.32419 0.94364 0.0
H188 H 0.38803 0.36431 0.01189 0.0
H189 H 0.33653 0.23083 0.96905 0.0
O190 O 0.33199 0.35707 0.94118 0.0
O191 O 0.28315 0.28494 0.9314 0.0
O192 O 0.34773 0.26088 0.88586 0.0
C193 C 0.29161 0.32398 0.94746 0.0
H194 H 0.28185 0.35721 0.77082 0.0
H195 H 0.39611 0.31909 0.08358 0.0
H196 H 0.51146 0.38829 0.94854 0.0
H197 H 0.46893 0.4628 0.86077 0.0
Co198 Co 0.76918 1.02627 0.76893 0.0
C199 C 0.77189 1.0321 0.87388 0.0
C200 C 0.81048 0.09719 0.8434 0.0
C201 C 0.81291 0.10149 0.89188 0.0
N202 N 0.78466 0.05344 0.83189 0.0
N203 N 0.78877 0.06043 0.91083 0.0
H204 H 0.74968 0.99678 0.87793 0.0
H205 H 0.82647 0.1246 0.81878 0.0
C206 C 0.73872 0.93643 0.81666 0.0
O207 O 0.69957 0.93239 0.82609 0.0
N208 N 0.75597 0.99942 0.70657 0.0
C209 C 0.73746 1.00918 0.66978 0.0
C210 C 0.73342 0.98161 0.63244 0.0
C211 C 0.76364 0.96681 0.69098 0.0
N212 N 0.74975 0.95487 0.64594 0.0
C213 C 0.69449 1.0328 0.8031 0.0
C214 C 0.62857 0.96104 0.75363 0.0
C215 C 0.61798 0.99137 0.77517 0.0
C216 C 0.65117 1.02615 0.80222 0.0
C217 C 0.67232 0.96815 0.75653 0.0
N218 N 0.70528 1.00451 0.78003 0.0
H219 H 0.7199 0.06298 0.81967 0.0
H220 H 0.6799 0.94516 0.73818 0.0
H221 H 0.7267 1.03384 0.67044 0.0
H222 H 0.77935 0.95229 0.71208 0.0
O223 O 0.78185 0.08235 0.74142 0.0
O224 O 0.83185 0.06012 0.75058 0.0
O225 O 0.76891 0.97117 0.79541 0.0
C226 C 0.82258 0.09035 0.73516 0.0
H227 H 0.83152 0.13233 0.9116 0.0
H228 H 0.71851 0.98061 0.59847 0.0
H229 H 0.60416 0.93357 0.73234 0.0
H230 H 0.64458 0.04994 0.82053 0.0
Co231 Co 0.78113 0.74797 0.9347 0.0
C232 C 0.77523 0.75064 0.03967 0.0
C233 C 0.75103 0.79068 1.00751 0.0
C234 C 0.74809 0.79325 0.05587 0.0
N235 N 0.76828 0.76393 0.9971 0.0
N236 N 0.76343 0.76804 0.07611 0.0
H237 H 0.78867 0.72873 0.04432 0.0
H238 H 0.74063 0.80712 0.98219 0.0
C239 C 0.83638 0.7142 0.98599 0.0
O240 O 0.80045 0.67553 0.99395 0.0
N241 N 0.79581 0.73427 0.87293 0.0
C242 C 0.76815 0.71668 0.83558 0.0
C243 C 0.79197 0.71301 0.79835 0.0
C244 C 0.83615 0.74166 0.8578 0.0
N245 N 0.83475 0.72869 0.81235 0.0
C246 C 0.69843 0.67473 0.96711 0.0
C247 C 0.70375 0.60741 0.91942 0.0
C248 C 0.663 0.59774 0.94053 0.0
C249 C 0.66159 0.63171 0.96655 0.0
C250 C 0.74055 0.65088 0.92203 0.0
N251 N 0.73752 0.68447 0.94489 0.0
H252 H 0.69393 0.70069 0.98298 0.0
H253 H 0.77111 0.65763 0.90433 0.0
H254 H 0.73295 0.70662 0.83563 0.0
H255 H 0.86601 0.75679 0.87941 0.0
O256 O 0.73987 0.76265 0.90529 0.0
O257 O 0.81188 0.81093 0.91667 0.0
O258 O 0.83383 0.74515 0.96357 0.0
C259 C 0.77327 0.80295 0.89973 0.0
H260 H 0.73514 0.81192 0.07445 0.0
H261 H 0.77849 0.69904 0.76395 0.0
H262 H 0.70667 0.58243 0.89884 0.0
H263 H 0.63136 0.62591 0.9845 0.0
Co264 Co 0.06944 0.76129 0.09785 0.0
C265 C 0.05876 0.75829 0.20191 0.0
C266 C 1.01801 0.69349 0.17081 0.0
C267 C 1.01398 0.68944 0.21929 0.0
N268 N 1.0466 0.7366 0.16002 0.0
N269 N 1.0399 0.7302 0.23891 0.0
H270 H 0.08163 0.7938 0.20529 0.0
H271 H 1.00285 0.6665 0.14537 0.0
C272 C 0.16325 0.82317 0.1346 0.0
O273 O 0.17774 0.79814 0.11499 0.0
N274 N 0.09151 0.78767 0.0352 0.0
C275 C 0.06717 0.77779 0.99487 0.0
C276 C 0.09411 0.80323 0.95854 0.0
C277 C 0.13315 0.81963 0.02219 0.0
N278 N 0.13564 0.82948 0.97567 0.0
C279 C 0.09887 0.70709 0.04927 0.0
C280 C 0.1199 0.67422 0.12815 0.0
C281 C 0.11814 0.65453 0.08396 0.0
C282 C 0.11021 0.67374 0.04407 0.0
C283 C 0.11075 0.70957 0.13155 0.0
N284 N 0.09844 0.72452 0.09258 0.0
H285 H 0.08796 0.71665 0.01806 0.0
H286 H 0.11196 0.7236 0.16605 0.0
H287 H 1.03224 0.75309 0.99106 0.0
H288 H 0.16145 0.83525 0.04554 0.0
O289 O 1.01297 0.71826 0.07093 0.0
O290 O 1.02935 0.78575 0.09647 0.0
O291 O 0.12265 0.8138 0.12901 0.0
C292 C 1.00033 0.74779 0.0772 0.0
H293 H 0.99503 0.65841 0.23846 0.0
H294 H 0.08367 0.80262 0.92234 0.0
H295 H 0.12605 0.66131 0.16039 0.0
H296 H 0.11043 0.66183 0.00871 0.0
Co297 Co 0.34525 0.04953 0.26476 0.0
C298 C 0.34207 0.04298 0.36969 0.0
C299 C 0.30413 0.97812 0.33838 0.0
C300 C 0.30175 0.97343 0.38678 0.0
N301 N 0.32951 1.02197 0.32744 0.0
N302 N 0.32567 1.01434 0.40646 0.0
H303 H 0.36277 0.07847 0.37384 0.0
H304 H 0.28872 0.95087 0.31338 0.0
C305 C 0.37706 0.13952 0.3131 0.0
O306 O 0.41572 0.14263 0.323 0.0
N307 N 0.35871 0.0767 0.20266 0.0
C308 C 0.37704 0.06684 0.16568 0.0
C309 C 0.38114 0.09448 0.12852 0.0
C310 C 0.35121 0.10946 0.18736 0.0
N311 N 0.36502 0.12137 0.14232 0.0
C312 C 0.41954 0.04222 0.29891 0.0
C313 C 0.48618 0.11425 0.25063 0.0
C314 C 0.49657 0.08404 0.27262 0.0
C315 C 0.46292 0.04904 0.29896 0.0
C316 C 0.44232 0.10699 0.25265 0.0
N317 N 0.40907 0.07062 0.27574 0.0
H318 H 0.39393 1.01197 0.31507 0.0
H319 H 0.43502 0.13008 0.23423 0.0
H320 H 0.38757 0.04201 0.16605 0.0
H321 H 0.33562 0.12406 0.20865 0.0
O322 O 0.33194 0.99355 0.23644 0.0
O323 O 0.28243 1.01627 0.24648 0.0
O324 O 0.34648 0.105 0.29178 0.0
C325 C 0.29135 0.98598 0.23027 0.0
H326 H 0.28428 0.94214 0.40581 0.0
H327 H 0.39591 0.0954 0.09445 0.0
H328 H 0.5109 0.14185 0.22981 0.0
H329 H 0.46928 1.0253 0.31758 0.0
Co330 Co 0.3359 0.3282 0.43395 0.0
C331 C 0.34031 0.32536 0.53769 0.0
C332 C 0.3616 0.28213 0.50677 0.0
C333 C 0.36355 0.27981 0.55523 0.0
N334 N 0.34673 0.3106 0.49575 0.0
N335 N 0.3499 0.30686 0.57478 0.0
H336 H 0.32822 0.34885 0.54069 0.0
H337 H 0.37073 0.26426 0.4818 0.0
C338 C 0.25038 0.2986 0.47954 0.0
O339 O 0.24883 0.25971 0.479 0.0
N340 N 0.32379 0.3451 0.37305 0.0
C341 C 0.35302 0.36748 0.33809 0.0
C342 C 0.3298 0.37231 0.30094 0.0
C343 C 0.28344 0.33626 0.35679 0.0
N344 N 0.28609 0.35279 0.31294 0.0
C345 C 0.41872 0.39943 0.46568 0.0
C346 C 0.40775 0.46877 0.43224 0.0
C347 C 0.45073 0.47782 0.44626 0.0
C348 C 0.45481 0.44277 0.4663 0.0
C349 C 0.37153 0.42472 0.43444 0.0
N350 N 0.37809 0.39045 0.44854 0.0
H351 H 0.42445 0.37256 0.47622 0.0
H352 H 0.3392 0.41768 0.42118 0.0
H353 H 0.38868 0.37988 0.33979 0.0
H354 H 0.25265 0.31769 0.37651 0.0
O355 O 0.37786 0.31398 0.40463 0.0
O356 O 0.30546 0.26612 0.4125 0.0
O357 O 0.28443 0.33269 0.462 0.0
C358 C 0.34441 0.27415 0.39687 0.0
H359 H 0.37453 0.25978 0.5743 0.0
H360 H 0.34416 0.38971 0.26813 0.0
H361 H 0.40258 0.49463 0.41693 0.0
H362 H 0.4865 0.44802 0.4798 0.0
Co363 Co 1.04565 0.31067 0.6033 0.0
C364 C 1.05093 0.31744 0.70819 0.0
C365 C 0.11553 0.33826 0.67841 0.0
C366 C 0.11954 0.3413 0.72693 0.0
N367 N 0.07228 0.32309 0.66647 0.0
N368 N 0.07876 0.32791 0.74549 0.0
H369 H 1.01598 0.30687 0.71175 0.0
H370 H 0.14271 0.34669 0.65398 0.0
C371 C 0.95396 0.25835 0.65189 0.0
O372 O 0.95104 0.29429 0.66033 0.0
N373 N 1.01919 0.29684 0.54091 0.0
C374 C 1.03087 0.32458 0.50352 0.0
C375 C 1.00329 0.30158 0.46614 0.0
C376 C 0.98533 0.25734 0.52576 0.0
N377 N 0.97459 0.25933 0.48023 0.0
C378 C 0.06067 0.39718 0.6304 0.0
C379 C 0.98705 0.39252 0.58572 0.0
C380 C 1.0193 0.43363 0.60509 0.0
C381 C 1.0556 0.43493 0.62917 0.0
C382 C 0.99283 0.35506 0.58878 0.0
N383 N 1.02965 0.35766 0.61046 0.0
H384 H 0.09102 0.40069 0.64552 0.0
H385 H 0.96812 0.32423 0.57237 0.0
H386 H 1.05699 0.35931 0.50375 0.0
H387 H 0.96915 0.22767 0.54753 0.0
O388 O 0.10396 0.34671 0.57429 0.0
O389 O 0.0722 0.27411 0.58967 0.0
O390 O 0.98806 0.26102 0.63086 0.0
C391 C 0.10571 0.30979 0.57154 0.0
H392 H 0.14993 0.35168 0.74698 0.0
H393 H 1.00373 0.31534 0.43165 0.0
H394 H 0.95859 0.3896 0.56637 0.0
H395 H 0.08107 0.46538 0.64569 0.0
C396 C 0.21237 0.3487 0.30832 0.0
C397 C 0.24994 0.3512 0.28563 0.0
H398 H 0.14913 0.34577 0.30066 0.0
C399 C 0.25171 0.35248 0.23597 0.0
H400 H 0.21011 0.34818 0.3465 0.0
C401 C 0.21677 0.35138 0.20965 0.0
C402 C 0.17938 0.34924 0.23241 0.0
H403 H 0.27996 0.35404 0.2174 0.0
H404 H 0.21945 0.35301 0.1715 0.0
C405 C 0.17758 0.34782 0.28205 0.0
C406 C 0.86697 0.15536 0.44882 0.0
C407 C 0.86861 0.15621 0.39914 0.0
H408 H 0.89891 0.1875 0.51349 0.0
C409 C 0.90601 0.19141 0.37672 0.0
H410 H 0.83895 0.12862 0.46732 0.0
C411 C 0.94078 0.2249 0.40324 0.0
C412 C 0.93906 0.22419 0.4529 0.0
H413 H 0.90827 0.19359 0.33857 0.0
H414 H 0.96912 0.25122 0.3847 0.0
C415 C 0.90173 0.18893 0.47536 0.0
C416 C 0.75077 0.84905 0.61524 0.0
C417 C 0.75016 0.8497 0.56556 0.0
H418 H 0.75064 0.88147 0.67967 0.0
C419 C 0.74993 0.88591 0.54284 0.0
H420 H 0.75135 0.82196 0.63394 0.0
C421 C 0.75011 0.92044 0.5691 0.0
C422 C 0.75049 0.91968 0.61878 0.0
H423 H 0.74888 0.88735 0.50468 0.0
H424 H 0.75017 0.94784 0.55038 0.0
C425 C 0.75093 0.88357 0.6415 0.0
C426 C 0.90395 0.73093 0.70822 0.0
C427 C 0.94039 0.73057 0.73031 0.0
H428 H 0.84239 0.73126 0.7167 0.0
C429 C 0.94182 0.73048 0.78003 0.0
H430 H 0.90132 0.73051 0.67009 0.0
C431 C 0.90754 0.73033 0.80689 0.0
C432 C 0.87089 0.73022 0.78475 0.0
H433 H 0.96951 0.73067 0.79832 0.0
H434 H 0.90946 0.72948 0.84502 0.0
C435 C 0.86972 0.73079 0.73505 0.0
C436 C 0.24646 0.92989 0.94537 0.0
C437 C 0.24807 0.92488 0.8962 0.0
H438 H 0.209 0.90384 0.00925 0.0
C439 C 0.21306 0.88717 0.87411 0.0
H440 H 0.27283 0.95877 0.96328 0.0
C441 C 0.17673 0.85569 0.90031 0.0
C442 C 0.17435 0.86116 0.9493 0.0
H443 H 0.21384 0.88181 0.83648 0.0
H444 H 0.15059 0.82691 0.88208 0.0
C445 C 0.2099 0.89838 0.97167 0.0
C446 C 0.36453 0.19018 0.03959 0.0
C447 C 0.36464 0.22655 0.06251 0.0
H448 H 0.36405 0.12813 0.04681 0.0
C449 C 0.36435 0.22736 0.1122 0.0
H450 H 0.36532 0.18862 1.00142 0.0
C451 C 0.36418 0.19283 0.13829 0.0
C452 C 0.3643 0.15657 0.11536 0.0
H453 H 0.36402 0.25457 0.13105 0.0
H454 H 0.3647 0.19503 0.17646 0.0
C455 C 0.36436 0.15566 0.06567 0.0
C456 C 0.09615 0.54102 0.0388 0.0
C457 C 0.11553 0.52725 0.07392 0.0
H458 H 0.07921 0.58908 0.01556 0.0
C459 C 0.13916 0.55739 0.11081 0.0
H460 H 0.07874 0.51963 0.009 0.0
C461 C 0.14176 0.59936 0.11327 0.0
C462 C 0.12005 0.61201 0.07944 0.0
H463 H 0.15446 0.54815 0.13875 0.0
H464 H 0.16024 0.62141 0.14222 0.0
C465 C 0.09752 0.58205 0.04202 0.0
C466 C 0.54112 0.04541 0.25993 0.0
C467 C 0.54025 0.08564 0.26454 0.0
H468 H 0.57999 1.01363 0.25053 0.0
C469 C 0.58085 0.12633 0.26021 0.0
H470 H 0.51066 1.01331 0.26172 0.0
C471 C 0.62122 0.12651 0.25182 0.0
C472 C 0.62178 0.08601 0.24756 0.0
H473 H 0.58154 0.15799 0.26369 0.0
H474 H 0.65182 0.1583 0.24831 0.0
C475 C 0.58113 0.0456 0.25225 0.0
C476 C 0.53225 0.60291 0.42697 0.0
C477 C 0.57236 0.6029 0.41652 0.0
H478 H 0.46257 0.56396 0.44541 0.0
C479 C 0.57136 0.56157 0.41583 0.0
H480 H 0.53136 0.63389 0.42755 0.0
C481 C 0.53195 0.52175 0.42442 0.0
C482 C 0.49204 0.52149 0.43601 0.0
H483 H 0.6013 0.55953 0.40941 0.0
H484 H 0.53311 0.49099 0.4217 0.0
C485 C 0.49256 0.56267 0.43674 0.0
C486 C 0.97549 0.51529 0.58609 0.0
C487 C 1.01558 0.55624 0.58047 0.0
H488 H 0.9449 0.44477 0.59917 0.0
C489 C 1.05637 0.55619 0.58387 0.0
H490 H 0.94338 0.5138 0.58358 0.0
C491 C 1.05722 0.51665 0.59149 0.0
C492 C 1.01735 0.47566 0.59733 0.0
H493 H 0.08814 0.58692 0.58112 0.0
H494 H 0.08953 0.51845 0.59219 0.0
C495 C 0.97637 0.47551 0.59453 0.0
C496 C 0.53475 1.03081 0.75147 0.0
C497 C 0.494 0.99058 0.74633 0.0
H498 H 0.60501 0.06257 0.76265 0.0
C499 C 0.49406 0.94989 0.75123 0.0
H500 H 0.53624 0.06291 0.74922 0.0
C501 C 0.53404 0.9497 0.76082 0.0
C502 C 0.57473 0.99019 0.76576 0.0
H503 H 0.46336 0.91823 0.74735 0.0
H504 H 0.53296 0.91791 0.76478 0.0
C505 C 0.5744 1.03062 0.76041 0.0
C506 C 0.54047 0.51446 0.9186 0.0
C507 C 0.54003 0.47356 0.91414 0.0
H508 H 0.57878 0.58484 0.92829 0.0
C509 C 0.58078 0.47354 0.91901 0.0
H510 H 0.50989 0.51605 0.91641 0.0
C511 C 0.62084 0.51357 0.92786 0.0
C512 C 0.62099 0.55443 0.93197 0.0
H513 H 0.58182 0.44275 0.91565 0.0
H514 H 0.65153 0.5124 0.93186 0.0
C515 C 0.58022 0.55416 0.92669 0.0
C516 C 0.09767 0.35313 0.82835 0.0
C517 C 0.06688 0.32402 0.79484 0.0
H518 H 0.11095 0.37249 0.90076 0.0
C519 C 1.02445 0.29067 0.81031 0.0
H520 H 0.13033 0.37958 0.81741 0.0
C521 C 1.01334 0.28605 0.85835 0.0
C522 C 1.04428 0.31492 0.89213 0.0
H523 H 1.00018 0.26735 0.78537 0.0
H524 H 0.98082 0.25922 0.86895 0.0
C525 C 0.08645 0.34885 0.87631 0.0
C526 C 0.78211 0.07854 0.99389 0.0
C527 C 0.78256 0.04881 0.96021 0.0
H528 H 0.77521 0.09079 0.06645 0.0
C529 C 0.77695 1.0075 0.9754 0.0
H530 H 0.78566 0.1103 0.98311 0.0
C531 C 0.77147 0.99635 0.02336 0.0
C532 C 0.77114 1.02613 0.05729 0.0
H533 H 0.77775 0.98412 0.95029 0.0
H534 H 0.76835 0.96472 0.03375 0.0
C535 C 0.77619 0.06726 0.0418 0.0
C536 C 0.76796 0.79205 0.15973 0.0
C537 C 0.76771 0.76178 0.12603 0.0
H538 H 0.77437 0.81106 0.23269 0.0
C539 C 0.77279 0.72579 0.14196 0.0
H540 H 0.76476 0.82048 0.14907 0.0
C541 C 0.77884 0.72078 0.18995 0.0
C542 C 0.77941 0.75123 0.22338 0.0
H543 H 0.77183 0.70111 0.11758 0.0
H544 H 0.78251 0.69268 0.20098 0.0
C545 C 0.77356 0.78673 0.2078 0.0
C546 C 1.02979 0.72026 0.37153 0.0
C547 C 0.06909 0.75877 0.38649 0.0
H548 H 0.98923 0.68152 0.3135 0.0
C549 C 0.09787 0.78832 0.35178 0.0
H550 H 1.00681 0.69636 0.39681 0.0
C551 C 0.08809 0.77931 0.30367 0.0
C552 C 1.04903 0.74057 0.28871 0.0
H553 H 0.12811 0.81863 0.36157 0.0
H554 H 0.11179 0.80247 0.27835 0.0
C555 C 1.01985 0.7114 0.3234 0.0
C556 C 0.37309 0.07833 0.51955 0.0
C557 C 0.34337 0.04854 0.55326 0.0
H558 H 0.39186 0.09048 0.44694 0.0
C559 C 0.30813 1.00702 0.5381 0.0
H560 H 0.40095 0.11025 0.53031 0.0
C561 C 0.30243 0.99572 0.49014 0.0
C562 C 0.33208 1.02555 0.45618 0.0
H563 H 0.28432 0.98359 0.56324 0.0
H564 H 0.27427 0.96392 0.47977 0.0
C565 C 0.36771 0.0669 0.47164 0.0
C566 C 0.34513 0.28363 0.65861 0.0
C567 C 0.34482 0.31326 0.62456 0.0
H568 H 0.33913 0.2654 0.73162 0.0
C569 C 0.33856 0.34872 0.64011 0.0
H570 H 0.34911 0.25552 0.64847 0.0
C571 C 0.33226 0.35397 0.68807 0.0
C572 C 0.33264 0.32431 0.72179 0.0
H573 H 0.33876 0.37278 0.61551 0.0
H574 H 0.32776 0.38166 0.69887 0.0
C575 C 0.33932 0.28922 0.70654 0.0
C576 C 0.21617 0.29642 0.98579 0.0
C577 C 0.25739 0.33186 0.97025 0.0
H578 H 0.15288 0.27732 0.01875 0.0
C579 C 0.26646 0.37604 0.97703 0.0
H580 H 0.20839 0.26205 0.98125 0.0
C581 C 0.2349 0.38473 0.998 0.0
C582 C 0.19356 0.34952 0.01334 0.0
H583 H 0.2979 0.40416 0.96553 0.0
H584 H 0.24292 0.41923 1.00206 0.0
C585 C 0.1846 0.30519 1.00753 0.0
C586 C 0.9304 0.24839 0.14786 0.0
C587 C 0.96533 0.23909 0.14022 0.0
H588 H 0.86378 0.22476 0.17276 0.0
C589 C 0.9593 0.19726 0.15403 0.0
H590 H 0.93388 0.28028 0.13767 0.0
C591 C 0.91889 0.16532 0.17491 0.0
C592 C 0.8837 0.17454 0.18159 0.0
H593 H 0.98573 0.18925 0.14876 0.0
H594 H 0.91485 0.13315 0.18483 0.0
C595 C 0.89008 0.21649 0.16798 0.0
C596 C 0.79017 0.89835 0.34164 0.0
C597 C 0.74575 0.86381 0.34858 0.0
H598 H 0.83347 0.96461 0.31488 0.0
C599 C 0.71055 0.87078 0.33468 0.0
H600 H 0.81804 0.89386 0.35178 0.0
C601 C 0.71936 0.91106 0.314 0.0
C602 C 0.76361 0.94533 0.30618 0.0
H603 H 0.67599 0.84499 0.33963 0.0
H604 H 0.69125 0.91505 0.30359 0.0
C605 C 0.79903 0.9387 0.3203 0.0
C606 C 0.89802 0.7791 0.4848 0.0
C607 C 0.85639 0.74354 0.47034 0.0
H608 H 0.96198 0.79855 0.51612 0.0
C609 C 0.84737 0.69941 0.47726 0.0
H610 H 0.90581 0.81344 0.48011 0.0
C611 C 0.87938 0.69091 0.4974 0.0
C612 C 0.92112 0.72628 0.51173 0.0
H613 H 0.81562 0.67121 0.46655 0.0
H614 H 0.87136 0.65644 0.50168 0.0
C615 C 0.93002 0.77054 0.50565 0.0
C616 C 0.19756 0.9118 0.671 0.0
C617 C 0.23269 0.9025 0.67763 0.0
H618 H 0.13085 0.8881 0.6446 0.0
C619 C 0.2263 0.8606 0.66354 0.0
H620 H 0.20158 0.94392 0.68126 0.0
C621 C 0.18607 0.82887 0.643 0.0
C622 C 0.15119 0.83825 0.63545 0.0
H623 H 0.25254 0.85224 0.66823 0.0
H624 H 0.18261 0.79703 0.63248 0.0
C625 C 0.15721 0.88001 0.64977 0.0
C626 C 0.32453 0.17824 0.83778 0.0
C627 C 0.36874 0.21325 0.84457 0.0
H628 H 0.28194 0.11184 0.81079 0.0
C629 C 0.40432 0.20707 0.83005 0.0
H630 H 0.29639 0.18214 0.84838 0.0
C631 C 0.39608 0.16706 0.80895 0.0
C632 C 0.35203 0.13231 0.80132 0.0
H633 H 0.43875 0.23327 0.83486 0.0
H634 H 0.42445 0.16365 0.79811 0.0
C635 C 0.31624 0.13817 0.81602 0.0
C636 C 0.80161 0.8797 0.86424 0.0
C637 C 0.76592 0.83761 0.87722 0.0
H638 H 0.82116 0.94411 0.83399 0.0
C639 C 0.72185 0.82814 0.86849 0.0
H640 H 0.83592 0.88787 0.87036 0.0
C641 C 0.71345 0.86007 0.84817 0.0
C642 C 0.74886 0.90229 0.83547 0.0
H643 H 0.6935 0.79606 0.87796 0.0
H644 H 0.67898 0.85161 0.84258 0.0
C645 C 0.79315 0.91172 0.84319 0.0
C646 C 0.88459 0.68793 0.0239 0.0
C647 C 0.87868 0.72362 0.00928 0.0
H648 H 0.92752 0.66775 0.05715 0.0
C649 C 0.9124 0.76769 0.01935 0.0
H650 H 0.85921 0.6536 0.01683 0.0
C651 C 0.95131 0.77578 0.04348 0.0
C652 C 0.95739 0.73995 0.0572 0.0
H653 H 0.90855 0.79587 0.00898 0.0
H654 H 0.97712 0.81001 0.05017 0.0
C655 C 0.92362 0.69602 0.04723 0.0
C656 C 0.18197 0.89441 0.17815 0.0
C657 C 0.19528 0.86467 0.15993 0.0
H658 H 0.20189 0.95635 0.21465 0.0
C659 C 0.23996 0.87512 0.16574 0.0
H660 H 0.14774 0.88732 0.17438 0.0
C661 C 0.27068 0.91435 0.18877 0.0
C662 C 0.25766 0.94433 0.20661 0.0
H663 H 0.25144 0.85304 0.15237 0.0
H664 H 0.30487 0.92123 0.19232 0.0
C665 C 0.21293 0.93395 0.2012 0.0
C666 C 0.31562 0.19815 0.35952 0.0
C667 C 0.35162 0.23968 0.37359 0.0
H668 H 0.2953 0.13382 0.3285 0.0
C669 C 0.39555 0.24837 0.36573 0.0
H670 H 0.28141 0.1906 0.36498 0.0
C671 C 0.40347 0.21603 0.34536 0.0
C672 C 0.36768 0.17427 0.33177 0.0
H673 H 0.42408 0.28003 0.37607 0.0
H674 H 0.43781 0.22376 0.34051 0.0
C675 C 0.32359 0.16579 0.33845 0.0
C676 C 0.17923 0.34614 0.52788 0.0
C677 C 0.14349 0.30796 0.54862 0.0
H678 H 0.24121 0.37331 0.48952 0.0
C679 C 0.14341 0.2672 0.54637 0.0
H680 H 0.18015 0.37804 0.52895 0.0
C681 C 0.17806 0.26447 0.52382 0.0
C682 C 0.21381 0.30245 0.50289 0.0
H683 H 0.1164 0.23713 0.56189 0.0
H684 H 0.17667 0.23236 0.52287 0.0
C685 C 0.21412 0.34342 0.50522 0.0
C686 C 0.92932 0.17951 0.67718 0.0
C687 C 0.92007 0.21481 0.67197 0.0
H688 H 0.90603 0.11255 0.70188 0.0
C689 C 0.87861 0.20856 0.68751 0.0
H690 H 0.96111 0.18334 0.66581 0.0
C691 C 0.84708 0.168 0.7077 0.0
C692 C 0.85648 0.1329 0.71344 0.0
H693 H 0.87041 0.235 0.684 0.0
H694 H 0.81542 0.16435 0.71928 0.0
C695 C 0.89794 0.13904 0.69805 0.0
loop_
_geom_bond_atom_site_label_1
_geom_bond_atom_site_label_2
_geom_bond_distance
_geom_bond_site_symmetry_2
_ccdc_geom_bond_type
Co0 N4 2.148 1_554 S
Co0 N10 2.128 . S
Co0 N20 2.194 . S
Co0 O25 2.351 . S
Co0 O26 2.155 . S
Co0 O27 2.096 . S
C1 N4 1.301 . S
C1 N5 1.328 . S
C1 H6 0.930 1_455 S
C2 C3 1.333 . S
C2 N4 1.317 . S
C2 H7 0.930 . S
C3 C2 1.333 . S
C3 N5 1.350 . S
C3 H29 0.931 . S
N4 Co0 2.148 1_556 S
N4 C1 1.301 . S
N4 C2 1.317 . S
N5 C1 1.328 . S
N5 C3 1.350 . S
H6 C1 0.930 1_655 S
H7 C2 0.930 . S
C8 O9 1.224 . S
C8 O27 1.247 . S
O9 C8 1.224 . S
N10 Co0 2.128 . S
N10 C11 1.355 . S
N10 C13 1.311 . S
C11 N10 1.355 . S
C11 C12 1.363 . S
C11 H23 0.929 . S
C12 C11 1.363 . S
C12 N14 1.375 . S
C12 H30 0.931 . S
C13 N10 1.311 . S
C13 N14 1.347 . S
C13 H24 0.929 . S
N14 C12 1.375 . S
N14 C13 1.347 . S
C15 C18 1.365 . S
C15 N20 1.328 . S
C15 H21 0.929 . S
C16 C17 1.362 . S
C16 C19 1.378 . S
C16 H31 0.929 . S
C17 C16 1.362 . S
C17 C18 1.366 . S
C18 C15 1.365 . S
C18 C17 1.366 . S
C18 H32 0.930 . S
C19 C16 1.378 . S
C19 N20 1.315 . S
C19 H22 0.930 . S
N20 Co0 2.194 . S
N20 C15 1.328 . S
N20 C19 1.315 . S
H21 C15 0.929 . S
H22 C19 0.930 . S
H23 C11 0.929 . S
H24 C13 0.929 . S
O25 Co0 2.351 . S
O25 C28 1.244 1_455 S
O26 Co0 2.155 . S
O26 C28 1.240 1_455 S
O27 Co0 2.096 . S
O27 C8 1.247 . S
C28 O25 1.244 1_655 S
C28 O26 1.240 1_655 S
H29 C3 0.931 . S
H30 C12 0.931 . S
H31 C16 0.929 . S
H32 C18 0.930 . S
Co33 N37 2.148 . S
Co33 N43 2.128 . S
Co33 N53 2.194 . S
Co33 O58 2.351 . S
Co33 O59 2.155 . S
Co33 O60 2.096 . S
C34 N37 1.301 . S
C34 N38 1.328 . S
C34 H39 0.930 1_545 S
C35 C36 1.333 . S
C35 N37 1.317 . S
C35 H40 0.930 . S
C36 C35 1.333 . S
C36 N38 1.350 . S
C36 H62 0.931 . S
N37 Co33 2.148 . S
N37 C34 1.301 . S
N37 C35 1.317 . S
N38 C34 1.328 . S
N38 C36 1.350 . S
H39 C34 0.930 1_565 S
H40 C35 0.930 . S
C41 O42 1.224 . S
C41 O60 1.247 . S
O42 C41 1.224 . S
N43 Co33 2.128 . S
N43 C44 1.355 . S
N43 C46 1.311 . S
C44 N43 1.355 . S
C44 C45 1.363 . S
C44 H56 0.929 . S
C45 C44 1.363 . S
C45 N47 1.375 . S
C45 H63 0.931 . S
C46 N43 1.311 . S
C46 N47 1.347 . S
C46 H57 0.929 . S
N47 C45 1.375 . S
N47 C46 1.347 . S
C48 C51 1.365 . S
C48 N53 1.328 . S
C48 H54 0.929 . S
C49 C50 1.362 . S
C49 C52 1.378 . S
C49 H64 0.929 . S
C50 C49 1.362 . S
C50 C51 1.366 . S
C51 C48 1.365 . S
C51 C50 1.366 . S
C51 H65 0.930 . S
C52 C49 1.378 . S
C52 N53 1.315 . S
C52 H55 0.930 . S
N53 Co33 2.194 . S
N53 C48 1.328 . S
N53 C52 1.315 . S
H54 C48 0.929 . S
H55 C52 0.930 . S
H56 C44 0.929 . S
H57 C46 0.929 . S
O58 Co33 2.351 . S
O58 C61 1.244 1_545 S
O59 Co33 2.155 . S
O59 C61 1.240 1_545 S
O60 Co33 2.096 . S
O60 C41 1.247 . S
C61 O58 1.244 1_565 S
C61 O59 1.240 1_565 S
H62 C36 0.931 . S
H63 C45 0.931 . S
H64 C49 0.929 . S
H65 C51 0.930 . S
Co66 N70 2.148 . S
Co66 N76 2.128 . S
Co66 N86 2.194 . S
Co66 O91 2.351 . S
Co66 O92 2.155 . S
Co66 O93 2.096 . S
C67 N70 1.301 . S
C67 N71 1.328 . S
C67 H72 0.930 . S
C68 C69 1.333 . S
C68 N70 1.317 . S
C68 H73 0.930 . S
C69 C68 1.333 . S
C69 N71 1.350 . S
C69 H95 0.931 . S
N70 Co66 2.148 . S
N70 C67 1.301 . S
N70 C68 1.317 . S
N71 C67 1.328 . S
N71 C69 1.350 . S
H72 C67 0.930 . S
H73 C68 0.930 . S
C74 O75 1.224 . S
C74 O93 1.247 . S
O75 C74 1.224 . S
N76 Co66 2.128 . S
N76 C77 1.355 . S
N76 C79 1.311 . S
C77 N76 1.355 . S
C77 C78 1.363 . S
C77 H89 0.929 . S
C78 C77 1.363 . S
C78 N80 1.375 . S
C78 H96 0.931 . S
C79 N76 1.311 . S
C79 N80 1.347 . S
C79 H90 0.929 . S
N80 C78 1.375 . S
N80 C79 1.347 . S
C81 C84 1.365 . S
C81 N86 1.328 . S
C81 H87 0.929 . S
C82 C83 1.362 . S
C82 C85 1.378 . S
C82 H97 0.929 . S
C83 C82 1.362 . S
C83 C84 1.366 . S
C84 C81 1.365 . S
C84 C83 1.366 . S
C84 H98 0.930 . S
C85 C82 1.378 . S
C85 N86 1.315 . S
C85 H88 0.930 . S
N86 Co66 2.194 . S
N86 C81 1.328 . S
N86 C85 1.315 . S
H87 C81 0.929 . S
H88 C85 0.930 . S
H89 C77 0.929 . S
H90 C79 0.929 . S
O91 Co66 2.351 . S
O91 C94 1.244 . S
O92 Co66 2.155 . S
O92 C94 1.240 . S
O93 Co66 2.096 . S
O93 C74 1.247 . S
C94 O91 1.244 . S
C94 O92 1.240 . S
H95 C69 0.931 . S
H96 C78 0.931 . S
H97 C82 0.929 . S
H98 C84 0.930 . S
Co99 N103 2.148 . S
Co99 N109 2.128 . S
Co99 N119 2.194 . S
Co99 O124 2.351 . S
Co99 O125 2.155 . S
Co99 O126 2.096 . S
C100 N103 1.301 . S
C100 N104 1.328 . S
C100 H105 0.930 1_655 S
C101 C102 1.333 . S
C101 N103 1.317 . S
C101 H106 0.930 . S
C102 C101 1.333 . S
C102 N104 1.350 . S
C102 H128 0.931 . S
N103 Co99 2.148 . S
N103 C100 1.301 . S
N103 C101 1.317 . S
N104 C100 1.328 . S
N104 C102 1.350 . S
H105 C100 0.930 1_455 S
H106 C101 0.930 . S
C107 O108 1.224 . S
C107 O126 1.247 . S
O108 C107 1.224 . S
N109 Co99 2.128 . S
N109 C110 1.355 . S
N109 C112 1.311 . S
C110 N109 1.355 . S
C110 C111 1.363 . S
C110 H122 0.929 . S
C111 C110 1.363 . S
C111 N113 1.375 . S
C111 H129 0.931 . S
C112 N109 1.311 . S
C112 N113 1.347 . S
C112 H123 0.929 . S
N113 C111 1.375 . S
N113 C112 1.347 . S
C114 C117 1.365 . S
C114 N119 1.328 . S
C114 H120 0.929 . S
C115 C116 1.362 . S
C115 C118 1.378 . S
C115 H130 0.929 . S
C116 C115 1.362 . S
C116 C117 1.366 . S
C117 C114 1.365 . S
C117 C116 1.366 . S
C117 H131 0.930 . S
C118 C115 1.378 . S
C118 N119 1.315 . S
C118 H121 0.930 . S
N119 Co99 2.194 . S
N119 C114 1.328 . S
N119 C118 1.315 . S
H120 C114 0.929 . S
H121 C118 0.930 . S
H122 C110 0.929 . S
H123 C112 0.929 . S
O124 Co99 2.351 . S
O124 C127 1.244 1_655 S
O125 Co99 2.155 . S
O125 C127 1.240 1_655 S
O126 Co99 2.096 . S
O126 C107 1.247 . S
C127 O124 1.244 1_455 S
C127 O125 1.240 1_455 S
H128 C102 0.931 . S
H129 C111 0.931 . S
H130 C115 0.929 . S
H131 C117 0.930 . S
Co132 N136 2.148 . S
Co132 N142 2.128 . S
Co132 N152 2.194 . S
Co132 O157 2.351 . S
Co132 O158 2.155 . S
Co132 O159 2.096 . S
C133 N136 1.301 . S
C133 N137 1.328 . S
C133 H138 0.930 1_565 S
C134 C135 1.333 . S
C134 N136 1.317 . S
C134 H139 0.930 . S
C135 C134 1.333 . S
C135 N137 1.350 . S
C135 H161 0.931 . S
N136 Co132 2.148 . S
N136 C133 1.301 . S
N136 C134 1.317 . S
N137 C133 1.328 . S
N137 C135 1.350 . S
H138 C133 0.930 1_545 S
H139 C134 0.930 . S
C140 O141 1.224 . S
C140 O159 1.247 . S
O141 C140 1.224 . S
N142 Co132 2.128 . S
N142 C143 1.355 . S
N142 C145 1.311 . S
C143 N142 1.355 . S
C143 C144 1.363 . S
C143 H155 0.929 . S
C144 C143 1.363 . S
C144 N146 1.375 . S
C144 H162 0.931 . S
C145 N142 1.311 . S
C145 N146 1.347 . S
C145 H156 0.929 . S
N146 C144 1.375 . S
N146 C145 1.347 . S
C147 C150 1.365 . S
C147 N152 1.328 . S
C147 H153 0.929 . S
C148 C149 1.362 . S
C148 C151 1.378 . S
C148 H163 0.929 . S
C149 C148 1.362 . S
C149 C150 1.366 . S
C150 C147 1.365 . S
C150 C149 1.366 . S
C150 H164 0.930 . S
C151 C148 1.378 . S
C151 N152 1.315 . S
C151 H154 0.930 . S
N152 Co132 2.194 . S
N152 C147 1.328 . S
N152 C151 1.315 . S
H153 C147 0.929 . S
H154 C151 0.930 . S
H155 C143 0.929 . S
H156 C145 0.929 . S
O157 Co132 2.351 . S
O157 C160 1.244 1_565 S
O158 Co132 2.155 . S
O158 C160 1.240 1_565 S
O159 Co132 2.096 . S
O159 C140 1.247 . S
C160 O157 1.244 1_545 S
C160 O158 1.240 1_545 S
H161 C135 0.931 . S
H162 C144 0.931 . S
H163 C148 0.929 . S
H164 C150 0.930 . S
Co165 N169 2.148 . S
Co165 N175 2.128 . S
Co165 N185 2.194 . S
Co165 O190 2.351 . S
Co165 O191 2.155 . S
Co165 O192 2.096 . S
C166 N169 1.301 . S
C166 N170 1.328 . S
C166 H171 0.930 . S
C167 C168 1.333 . S
C167 N169 1.317 . S
C167 H172 0.930 . S
C168 C167 1.333 . S
C168 N170 1.350 . S
C168 H194 0.931 . S
N169 Co165 2.148 . S
N169 C166 1.301 . S
N169 C167 1.317 . S
N170 C166 1.328 . S
N170 C168 1.350 . S
H171 C166 0.930 . S
H172 C167 0.930 . S
C173 O174 1.224 . S
C173 O192 1.247 . S
O174 C173 1.224 . S
N175 Co165 2.128 . S
N175 C176 1.355 . S
N175 C178 1.311 . S
C176 N175 1.355 . S
C176 C177 1.363 1_556 S
C176 H188 0.929 . S
C177 C176 1.363 1_554 S
C177 N179 1.375 . S
C177 H195 0.931 . S
C178 N175 1.311 . S
C178 N179 1.347 1_556 S
C178 H189 0.929 . S
N179 C177 1.375 . S
N179 C178 1.347 1_554 S
C180 C183 1.365 . S
C180 N185 1.328 . S
C180 H186 0.929 . S
C181 C182 1.362 . S
C181 C184 1.378 . S
C181 H196 0.929 . S
C182 C181 1.362 . S
C182 C183 1.366 . S
C183 C180 1.365 . S
C183 C182 1.366 . S
C183 H197 0.930 . S
C184 C181 1.378 . S
C184 N185 1.315 . S
C184 H187 0.930 . S
N185 Co165 2.194 . S
N185 C180 1.328 . S
N185 C184 1.315 . S
H186 C180 0.929 . S
H187 C184 0.930 . S
H188 C176 0.929 . S
H189 C178 0.929 . S
O190 Co165 2.351 . S
O190 C193 1.244 . S
O191 Co165 2.155 . S
O191 C193 1.240 . S
O192 Co165 2.096 . S
O192 C173 1.247 . S
C193 O190 1.244 . S
C193 O191 1.240 . S
H194 C168 0.931 . S
H195 C177 0.931 . S
H196 C181 0.929 . S
H197 C183 0.930 . S
Co198 N202 2.148 . S
Co198 N208 2.128 . S
Co198 N218 2.194 . S
Co198 O223 2.351 . S
Co198 O224 2.155 . S
Co198 O225 2.096 . S
C199 N202 1.301 . S
C199 N203 1.328 . S
C199 H204 0.930 1_565 S
C200 C201 1.333 . S
C200 N202 1.317 . S
C200 H205 0.930 . S
C201 C200 1.333 . S
C201 N203 1.350 . S
C201 H227 0.931 . S
N202 Co198 2.148 . S
N202 C199 1.301 . S
N202 C200 1.317 . S
N203 C199 1.328 . S
N203 C201 1.350 . S
H204 C199 0.930 1_545 S
H205 C200 0.930 . S
C206 O207 1.224 . S
C206 O225 1.247 . S
O207 C206 1.224 . S
N208 Co198 2.128 . S
N208 C209 1.355 . S
N208 C211 1.311 . S
C209 N208 1.355 . S
C209 C210 1.363 . S
C209 H221 0.929 . S
C210 C209 1.363 . S
C210 N212 1.375 . S
C210 H228 0.931 . S
C211 N208 1.311 . S
C211 N212 1.347 . S
C211 H222 0.929 . S
N212 C210 1.375 . S
N212 C211 1.347 . S
C213 C216 1.365 . S
C213 N218 1.328 . S
C213 H219 0.929 . S
C214 C215 1.362 . S
C214 C217 1.378 . S
C214 H229 0.929 . S
C215 C214 1.362 . S
C215 C216 1.366 . S
C216 C213 1.365 . S
C216 C215 1.366 . S
C216 H230 0.930 . S
C217 C214 1.378 . S
C217 N218 1.315 . S
C217 H220 0.930 . S
N218 Co198 2.194 . S
N218 C213 1.328 . S
N218 C217 1.315 . S
H219 C213 0.929 . S
H220 C217 0.930 . S
H221 C209 0.929 . S
H222 C211 0.929 . S
O223 Co198 2.351 . S
O223 C226 1.244 1_565 S
O224 Co198 2.155 . S
O224 C226 1.240 1_565 S
O225 Co198 2.096 . S
O225 C206 1.247 . S
C226 O223 1.244 1_545 S
C226 O224 1.240 1_545 S
H227 C201 0.931 . S
H228 C210 0.931 . S
H229 C214 0.929 . S
H230 C216 0.930 . S
Co231 N235 2.148 1_556 S
Co231 N241 2.128 . S
Co231 N251 2.194 . S
Co231 O256 2.351 . S
Co231 O257 2.155 . S
Co231 O258 2.096 . S
C232 N235 1.301 . S
C232 N236 1.328 . S
C232 H237 0.930 . S
C233 C234 1.333 . S
C233 N235 1.317 . S
C233 H238 0.930 . S
C234 C233 1.333 . S
C234 N236 1.350 . S
C234 H260 0.931 . S
N235 Co231 2.148 1_554 S
N235 C232 1.301 . S
N235 C233 1.317 . S
N236 C232 1.328 . S
N236 C234 1.350 . S
H237 C232 0.930 . S
H238 C233 0.930 . S
C239 O240 1.224 . S
C239 O258 1.247 . S
O240 C239 1.224 . S
N241 Co231 2.128 . S
N241 C242 1.355 . S
N241 C244 1.311 . S
C242 N241 1.355 . S
C242 C243 1.363 . S
C242 H254 0.929 . S
C243 C242 1.363 . S
C243 N245 1.375 . S
C243 H261 0.931 . S
C244 N241 1.311 . S
C244 N245 1.347 . S
C244 H255 0.929 . S
N245 C243 1.375 . S
N245 C244 1.347 . S
C246 C249 1.365 . S
C246 N251 1.328 . S
C246 H252 0.929 . S
C247 C248 1.362 . S
C247 C250 1.378 . S
C247 H262 0.929 . S
C248 C247 1.362 . S
C248 C249 1.366 . S
C249 C246 1.365 . S
C249 C248 1.366 . S
C249 H263 0.930 . S
C250 C247 1.378 . S
C250 N251 1.315 . S
C250 H253 0.930 . S
N251 Co231 2.194 . S
N251 C246 1.328 . S
N251 C250 1.315 . S
H252 C246 0.929 . S
H253 C250 0.930 . S
H254 C242 0.929 . S
H255 C244 0.929 . S
O256 Co231 2.351 . S
O256 C259 1.244 . S
O257 Co231 2.155 . S
O257 C259 1.240 . S
O258 Co231 2.096 . S
O258 C239 1.247 . S
C259 O256 1.244 . S
C259 O257 1.240 . S
H260 C234 0.931 . S
H261 C243 0.931 . S
H262 C247 0.929 . S
H263 C249 0.930 . S
Co264 N268 2.148 . S
Co264 N274 2.128 . S
Co264 N284 2.194 . S
Co264 O289 2.351 . S
Co264 O290 2.155 . S
Co264 O291 2.096 . S
C265 N268 1.301 . S
C265 N269 1.328 . S
C265 H270 0.930 1_455 S
C266 C267 1.333 . S
C266 N268 1.317 . S
C266 H271 0.930 . S
C267 C266 1.333 . S
C267 N269 1.350 . S
C267 H293 0.931 . S
N268 Co264 2.148 . S
N268 C265 1.301 . S
N268 C266 1.317 . S
N269 C265 1.328 . S
N269 C267 1.350 . S
H270 C265 0.930 1_655 S
H271 C266 0.930 . S
C272 O273 1.224 . S
C272 O291 1.247 . S
O273 C272 1.224 . S
N274 Co264 2.128 . S
N274 C275 1.355 . S
N274 C277 1.311 . S
C275 N274 1.355 . S
C275 C276 1.363 1_554 S
C275 H287 0.929 . S
C276 C275 1.363 1_556 S
C276 N278 1.375 . S
C276 H294 0.931 . S
C277 N274 1.311 . S
C277 N278 1.347 1_554 S
C277 H288 0.929 . S
N278 C276 1.375 . S
N278 C277 1.347 1_556 S
C279 C282 1.365 . S
C279 N284 1.328 . S
C279 H285 0.929 . S
C280 C281 1.362 . S
C280 C283 1.378 . S
C280 H295 0.929 . S
C281 C280 1.362 . S
C281 C282 1.366 . S
C282 C279 1.365 . S
C282 C281 1.366 . S
C282 H296 0.930 . S
C283 C280 1.378 . S
C283 N284 1.315 . S
C283 H286 0.930 . S
N284 Co264 2.194 . S
N284 C279 1.328 . S
N284 C283 1.315 . S
H285 C279 0.929 . S
H286 C283 0.930 . S
H287 C275 0.929 . S
H288 C277 0.929 . S
O289 Co264 2.351 . S
O289 C292 1.244 1_455 S
O290 Co264 2.155 . S
O290 C292 1.240 1_455 S
O291 Co264 2.096 . S
O291 C272 1.247 . S
C292 O289 1.244 1_655 S
C292 O290 1.240 1_655 S
H293 C267 0.931 . S
H294 C276 0.931 . S
H295 C280 0.929 . S
H296 C282 0.930 . S
Co297 N301 2.148 . S
Co297 N307 2.128 . S
Co297 N317 2.194 . S
Co297 O322 2.351 . S
Co297 O323 2.155 . S
Co297 O324 2.096 . S
C298 N301 1.301 . S
C298 N302 1.328 . S
C298 H303 0.930 1_545 S
C299 C300 1.333 . S
C299 N301 1.317 . S
C299 H304 0.930 . S
C300 C299 1.333 . S
C300 N302 1.350 . S
C300 H326 0.931 . S
N301 Co297 2.148 . S
N301 C298 1.301 . S
N301 C299 1.317 . S
N302 C298 1.328 . S
N302 C300 1.350 . S
H303 C298 0.930 1_565 S
H304 C299 0.930 . S
C305 O306 1.224 . S
C305 O324 1.247 . S
O306 C305 1.224 . S
N307 Co297 2.128 . S
N307 C308 1.355 . S
N307 C310 1.311 . S
C308 N307 1.355 . S
C308 C309 1.363 . S
C308 H320 0.929 . S
C309 C308 1.363 . S
C309 N311 1.375 . S
C309 H327 0.931 . S
C310 N307 1.311 . S
C310 N311 1.347 . S
C310 H321 0.929 . S
N311 C309 1.375 . S
N311 C310 1.347 . S
C312 C315 1.365 . S
C312 N317 1.328 . S
C312 H318 0.929 . S
C313 C314 1.362 . S
C313 C316 1.378 . S
C313 H328 0.929 . S
C314 C313 1.362 . S
C314 C315 1.366 . S
C315 C312 1.365 . S
C315 C314 1.366 . S
C315 H329 0.930 . S
C316 C313 1.378 . S
C316 N317 1.315 . S
C316 H319 0.930 . S
N317 Co297 2.194 . S
N317 C312 1.328 . S
N317 C316 1.315 . S
H318 C312 0.929 . S
H319 C316 0.930 . S
H320 C308 0.929 . S
H321 C310 0.929 . S
O322 Co297 2.351 . S
O322 C325 1.244 1_545 S
O323 Co297 2.155 . S
O323 C325 1.240 1_545 S
O324 Co297 2.096 . S
O324 C305 1.247 . S
C325 O322 1.244 1_565 S
C325 O323 1.240 1_565 S
H326 C300 0.931 . S
H327 C309 0.931 . S
H328 C313 0.929 . S
H329 C315 0.930 . S
Co330 N334 2.148 . S
Co330 N340 2.128 . S
Co330 N350 2.194 . S
Co330 O355 2.351 . S
Co330 O356 2.155 . S
Co330 O357 2.096 . S
C331 N334 1.301 . S
C331 N335 1.328 . S
C331 H336 0.930 . S
C332 C333 1.333 . S
C332 N334 1.317 . S
C332 H337 0.930 . S
C333 C332 1.333 . S
C333 N335 1.350 . S
C333 H359 0.931 . S
N334 Co330 2.148 . S
N334 C331 1.301 . S
N334 C332 1.317 . S
N335 C331 1.328 . S
N335 C333 1.350 . S
H336 C331 0.930 . S
H337 C332 0.930 . S
C338 O339 1.224 . S
C338 O357 1.247 . S
O339 C338 1.224 . S
N340 Co330 2.128 . S
N340 C341 1.355 . S
N340 C343 1.311 . S
C341 N340 1.355 . S
C341 C342 1.363 . S
C341 H353 0.929 . S
C342 C341 1.363 . S
C342 N344 1.375 . S
C342 H360 0.931 . S
C343 N340 1.311 . S
C343 N344 1.347 . S
C343 H354 0.929 . S
N344 C342 1.375 . S
N344 C343 1.347 . S
C345 C348 1.365 . S
C345 N350 1.328 . S
C345 H351 0.929 . S
C346 C347 1.362 . S
C346 C349 1.378 . S
C346 H361 0.929 . S
C347 C346 1.362 . S
C347 C348 1.366 . S
C348 C345 1.365 . S
C348 C347 1.366 . S
C348 H362 0.930 . S
C349 C346 1.378 . S
C349 N350 1.315 . S
C349 H352 0.930 . S
N350 Co330 2.194 . S
N350 C345 1.328 . S
N350 C349 1.315 . S
H351 C345 0.929 . S
H352 C349 0.930 . S
H353 C341 0.929 . S
H354 C343 0.929 . S
O355 Co330 2.351 . S
O355 C358 1.244 . S
O356 Co330 2.155 . S
O356 C358 1.240 . S
O357 Co330 2.096 . S
O357 C338 1.247 . S
C358 O355 1.244 . S
C358 O356 1.240 . S
H359 C333 0.931 . S
H360 C342 0.931 . S
H361 C346 0.929 . S
H362 C348 0.930 . S
Co363 N367 2.148 . S
Co363 N373 2.128 . S
Co363 N383 2.194 . S
Co363 O388 2.351 . S
Co363 O389 2.155 . S
Co363 O390 2.096 . S
C364 N367 1.301 . S
C364 N368 1.328 . S
C364 H369 0.930 1_655 S
C365 C366 1.333 . S
C365 N367 1.317 . S
C365 H370 0.930 . S
C366 C365 1.333 . S
C366 N368 1.350 . S
C366 H392 0.931 . S
N367 Co363 2.148 . S
N367 C364 1.301 . S
N367 C365 1.317 . S
N368 C364 1.328 . S
N368 C366 1.350 . S
H369 C364 0.930 1_455 S
H370 C365 0.930 . S
C371 O372 1.224 . S
C371 O390 1.247 . S
O372 C371 1.224 . S
N373 Co363 2.128 . S
N373 C374 1.355 . S
N373 C376 1.311 . S
C374 N373 1.355 . S
C374 C375 1.363 . S
C374 H386 0.929 . S
C375 C374 1.363 . S
C375 N377 1.375 . S
C375 H393 0.931 . S
C376 N373 1.311 . S
C376 N377 1.347 . S
C376 H387 0.929 . S
N377 C375 1.375 . S
N377 C376 1.347 . S
C378 C381 1.365 . S
C378 N383 1.328 . S
C378 H384 0.929 . S
C379 C380 1.362 . S
C379 C382 1.378 . S
C379 H394 0.929 . S
C380 C379 1.362 . S
C380 C381 1.366 . S
C381 C378 1.365 . S
C381 C380 1.366 . S
C381 H395 0.930 . S
C382 C379 1.378 . S
C382 N383 1.315 . S
C382 H385 0.930 . S
N383 Co363 2.194 . S
N383 C378 1.328 . S
N383 C382 1.315 . S
H384 C378 0.929 . S
H385 C382 0.930 . S
H386 C374 0.929 . S
H387 C376 0.929 . S
O388 Co363 2.351 . S
O388 C391 1.244 1_655 S
O389 Co363 2.155 . S
O389 C391 1.240 1_655 S
O390 Co363 2.096 . S
O390 C371 1.247 . S
C391 O388 1.244 1_455 S
C391 O389 1.240 1_455 S
H392 C366 0.931 . S
H393 C375 0.931 . S
H394 C379 0.929 . S
H395 C381 0.930 . S
C396 C397 1.387 . S
C396 H400 0.950 . S
C396 C405 1.390 . S
C397 C396 1.387 . S
C397 C399 1.387 . S
H398 C405 0.950 . S
C399 C397 1.387 . S
C399 C401 1.390 . S
C399 H403 0.950 . S
H400 C396 0.950 . S
C401 C399 1.390 . S
C401 C402 1.387 . S
C401 H404 0.950 . S
C402 C401 1.387 . S
C402 C405 1.387 . S
H403 C399 0.950 . S
H404 C401 0.950 . S
C405 C396 1.390 . S
C405 H398 0.950 . S
C405 C402 1.387 . S
C406 C407 1.387 . S
C406 H410 0.950 . S
C406 C415 1.390 . S
C407 C406 1.387 . S
C407 C409 1.387 . S
H408 C415 0.950 . S
C409 C407 1.387 . S
C409 C411 1.390 . S
C409 H413 0.950 . S
H410 C406 0.950 . S
C411 C409 1.390 . S
C411 C412 1.387 . S
C411 H414 0.950 . S
C412 C411 1.387 . S
C412 C415 1.387 . S
H413 C409 0.950 . S
H414 C411 0.950 . S
C415 C406 1.390 . S
C415 H408 0.950 . S
C415 C412 1.387 . S
C416 C417 1.387 . S
C416 H420 0.950 . S
C416 C425 1.390 . S
C417 C416 1.387 . S
C417 C419 1.387 . S
H418 C425 0.950 . S
C419 C417 1.387 . S
C419 C421 1.390 . S
C419 H423 0.950 . S
H420 C416 0.950 . S
C421 C419 1.390 . S
C421 C422 1.387 . S
C421 H424 0.950 . S
C422 C421 1.387 . S
C422 C425 1.387 . S
H423 C419 0.950 . S
H424 C421 0.950 . S
C425 C416 1.390 . S
C425 H418 0.950 . S
C425 C422 1.387 . S
C426 C427 1.387 . S
C426 H430 0.950 . S
C426 C435 1.390 . S
C427 C426 1.387 . S
C427 C429 1.387 . S
H428 C435 0.950 . S
C429 C427 1.387 . S
C429 C431 1.390 . S
C429 H433 0.950 . S
H430 C426 0.950 . S
C431 C429 1.390 . S
C431 C432 1.387 . S
C431 H434 0.950 . S
C432 C431 1.387 . S
C432 C435 1.387 . S
H433 C429 0.950 . S
H434 C431 0.950 . S
C435 C426 1.390 . S
C435 H428 0.950 . S
C435 C432 1.387 . S
C436 C437 1.387 . S
C436 H440 0.950 . S
C436 C445 1.390 . S
C437 C436 1.387 . S
C437 C439 1.387 . S
H438 C445 0.950 . S
C439 C437 1.387 . S
C439 C441 1.390 . S
C439 H443 0.950 . S
H440 C436 0.950 . S
C441 C439 1.390 . S
C441 C442 1.387 . S
C441 H444 0.950 . S
C442 C441 1.387 . S
C442 C445 1.387 . S
H443 C439 0.950 . S
H444 C441 0.950 . S
C445 C436 1.390 . S
C445 H438 0.950 . S
C445 C442 1.387 . S
C446 C447 1.387 . S
C446 H450 0.950 . S
C446 C455 1.390 . S
C447 C446 1.387 . S
C447 C449 1.387 . S
H448 C455 0.950 . S
C449 C447 1.387 . S
C449 C451 1.390 . S
C449 H453 0.950 . S
H450 C446 0.950 . S
C451 C449 1.390 . S
C451 C452 1.387 . S
C451 H454 0.950 . S
C452 C451 1.387 . S
C452 C455 1.387 . S
H453 C449 0.950 . S
H454 C451 0.950 . S
C455 C446 1.390 . S
C455 H448 0.950 . S
C455 C452 1.387 . S
C456 C457 1.387 . S
C456 H460 0.950 . S
C456 C465 1.390 . S
C457 C456 1.387 . S
C457 C459 1.387 . S
H458 C465 0.950 . S
C459 C457 1.387 . S
C459 C461 1.390 . S
C459 H463 0.950 . S
H460 C456 0.950 . S
C461 C459 1.390 . S
C461 C462 1.387 . S
C461 H464 0.950 . S
C462 C461 1.387 . S
C462 C465 1.387 . S
H463 C459 0.950 . S
H464 C461 0.950 . S
C465 C456 1.390 . S
C465 H458 0.950 . S
C465 C462 1.387 . S
C466 C467 1.387 . S
C466 H470 0.950 . S
C466 C475 1.390 . S
C467 C466 1.387 . S
C467 C469 1.387 . S
H468 C475 0.950 . S
C469 C467 1.387 . S
C469 C471 1.390 . S
C469 H473 0.950 . S
H470 C466 0.950 . S
C471 C469 1.390 . S
C471 C472 1.387 . S
C471 H474 0.950 . S
C472 C471 1.387 . S
C472 C475 1.387 . S
H473 C469 0.950 . S
H474 C471 0.950 . S
C475 C466 1.390 . S
C475 H468 0.950 . S
C475 C472 1.387 . S
C476 C477 1.387 . S
C476 H480 0.950 . S
C476 C485 1.390 . S
C477 C476 1.387 . S
C477 C479 1.387 . S
H478 C485 0.950 . S
C479 C477 1.387 . S
C479 C481 1.390 . S
C479 H483 0.950 . S
H480 C476 0.950 . S
C481 C479 1.390 . S
C481 C482 1.387 . S
C481 H484 0.950 . S
C482 C481 1.387 . S
C482 C485 1.387 . S
H483 C479 0.950 . S
H484 C481 0.950 . S
C485 C476 1.390 . S
C485 H478 0.950 . S
C485 C482 1.387 . S
C486 C487 1.387 . S
C486 H490 0.950 . S
C486 C495 1.390 . S
C487 C486 1.387 . S
C487 C489 1.387 . S
H488 C495 0.950 . S
C489 C487 1.387 . S
C489 C491 1.390 . S
C489 H493 0.950 . S
H490 C486 0.950 . S
C491 C489 1.390 . S
C491 C492 1.387 . S
C491 H494 0.950 . S
C492 C491 1.387 . S
C492 C495 1.387 . S
H493 C489 0.950 . S
H494 C491 0.950 . S
C495 C486 1.390 . S
C495 H488 0.950 . S
C495 C492 1.387 . S
C496 C497 1.387 . S
C496 H500 0.950 . S
C496 C505 1.390 . S
C497 C496 1.387 . S
C497 C499 1.387 . S
H498 C505 0.950 . S
C499 C497 1.387 . S
C499 C501 1.390 . S
C499 H503 0.950 . S
H500 C496 0.950 . S
C501 C499 1.390 . S
C501 C502 1.387 . S
C501 H504 0.950 . S
C502 C501 1.387 . S
C502 C505 1.387 . S
H503 C499 0.950 . S
H504 C501 0.950 . S
C505 C496 1.390 . S
C505 H498 0.950 . S
C505 C502 1.387 . S
C506 C507 1.387 . S
C506 H510 0.950 . S
C506 C515 1.390 . S
C507 C506 1.387 . S
C507 C509 1.387 . S
H508 C515 0.950 . S
C509 C507 1.387 . S
C509 C511 1.390 . S
C509 H513 0.950 . S
H510 C506 0.950 . S
C511 C509 1.390 . S
C511 C512 1.387 . S
C511 H514 0.950 . S
C512 C511 1.387 . S
C512 C515 1.387 . S
H513 C509 0.950 . S
H514 C511 0.950 . S
C515 C506 1.390 . S
C515 H508 0.950 . S
C515 C512 1.387 . S
C516 C517 1.387 . S
C516 H520 0.950 . S
C516 C525 1.390 . S
C517 C516 1.387 . S
C517 C519 1.387 1_455 S
H518 C525 0.950 . S
C519 C517 1.387 1_655 S
C519 C521 1.390 . S
C519 H523 0.950 . S
H520 C516 0.950 . S
C521 C519 1.390 . S
C521 C522 1.387 . S
C521 H524 0.950 . S
C522 C521 1.387 . S
C522 C525 1.387 1_655 S
H523 C519 0.950 . S
H524 C521 0.950 . S
C525 C516 1.390 . S
C525 H518 0.950 . S
C525 C522 1.387 1_455 S
C526 C527 1.387 . S
C526 H530 0.950 . S
C526 C535 1.390 1_546 S
C527 C526 1.387 . S
C527 C529 1.387 . S
H528 C535 0.950 . S
C529 C527 1.387 . S
C529 C531 1.390 1_546 S
C529 H533 0.950 . S
H530 C526 0.950 . S
C531 C529 1.390 1_564 S
C531 C532 1.387 . S
C531 H534 0.950 . S
C532 C531 1.387 . S
C532 C535 1.387 . S
H533 C529 0.950 . S
H534 C531 0.950 . S
C535 C526 1.390 1_564 S
C535 H528 0.950 . S
C535 C532 1.387 . S
C536 C537 1.387 . S
C536 H540 0.950 . S
C536 C545 1.390 . S
C537 C536 1.387 . S
C537 C539 1.387 . S
H538 C545 0.950 . S
C539 C537 1.387 . S
C539 C541 1.390 . S
C539 H543 0.950 . S
H540 C536 0.950 . S
C541 C539 1.390 . S
C541 C542 1.387 . S
C541 H544 0.950 . S
C542 C541 1.387 . S
C542 C545 1.387 . S
H543 C539 0.950 . S
H544 C541 0.950 . S
C545 C536 1.390 . S
C545 H538 0.950 . S
C545 C542 1.387 . S
C546 C547 1.387 1_655 S
C546 H550 0.950 . S
C546 C555 1.390 . S
C547 C546 1.387 1_455 S
C547 C549 1.387 . S
H548 C555 0.950 . S
C549 C547 1.387 . S
C549 C551 1.390 . S
C549 H553 0.950 . S
H550 C546 0.950 . S
C551 C549 1.390 . S
C551 C552 1.387 1_455 S
C551 H554 0.950 . S
C552 C551 1.387 1_655 S
C552 C555 1.387 . S
H553 C549 0.950 . S
H554 C551 0.950 . S
C555 C546 1.390 . S
C555 H548 0.950 . S
C555 C552 1.387 . S
C556 C557 1.387 . S
C556 H560 0.950 . S
C556 C565 1.390 1_545 S
C557 C556 1.387 . S
C557 C559 1.387 . S
H558 C565 0.950 . S
C559 C557 1.387 . S
C559 C561 1.390 1_545 S
C559 H563 0.950 . S
H560 C556 0.950 . S
C561 C559 1.390 1_565 S
C561 C562 1.387 . S
C561 H564 0.950 . S
C562 C561 1.387 . S
C562 C565 1.387 . S
H563 C559 0.950 . S
H564 C561 0.950 . S
C565 C556 1.390 1_565 S
C565 H558 0.950 . S
C565 C562 1.387 . S
C566 C567 1.387 . S
C566 H570 0.950 . S
C566 C575 1.390 . S
C567 C566 1.387 . S
C567 C569 1.387 . S
H568 C575 0.950 . S
C569 C567 1.387 . S
C569 C571 1.390 . S
C569 H573 0.950 . S
H570 C566 0.950 . S
C571 C569 1.390 . S
C571 C572 1.387 . S
C571 H574 0.950 . S
C572 C571 1.387 . S
C572 C575 1.387 . S
H573 C569 0.950 . S
H574 C571 0.950 . S
C575 C566 1.390 . S
C575 H568 0.950 . S
C575 C572 1.387 . S
C576 C577 1.387 . S
C576 H580 0.950 . S
C576 C585 1.390 . S
C577 C576 1.387 . S
C577 C579 1.387 . S
H578 C585 0.950 . S
C579 C577 1.387 . S
C579 C581 1.390 . S
C579 H583 0.950 . S
H580 C576 0.950 . S
C581 C579 1.390 . S
C581 C582 1.387 . S
C581 H584 0.950 . S
C582 C581 1.387 . S
C582 C585 1.387 . S
H583 C579 0.950 . S
H584 C581 0.950 . S
C585 C576 1.390 . S
C585 H578 0.950 . S
C585 C582 1.387 . S
C586 C587 1.387 . S
C586 H590 0.950 . S
C586 C595 1.390 . S
C587 C586 1.387 . S
C587 C589 1.387 . S
H588 C595 0.950 . S
C589 C587 1.387 . S
C589 C591 1.390 . S
C589 H593 0.950 . S
H590 C586 0.950 . S
C591 C589 1.390 . S
C591 C592 1.387 . S
C591 H594 0.950 . S
C592 C591 1.387 . S
C592 C595 1.387 . S
H593 C589 0.950 . S
H594 C591 0.950 . S
C595 C586 1.390 . S
C595 H588 0.950 . S
C595 C592 1.387 . S
C596 C597 1.387 . S
C596 H600 0.950 . S
C596 C605 1.390 . S
C597 C596 1.387 . S
C597 C599 1.387 . S
H598 C605 0.950 . S
C599 C597 1.387 . S
C599 C601 1.390 . S
C599 H603 0.950 . S
H600 C596 0.950 . S
C601 C599 1.390 . S
C601 C602 1.387 . S
C601 H604 0.950 . S
C602 C601 1.387 . S
C602 C605 1.387 . S
H603 C599 0.950 . S
H604 C601 0.950 . S
C605 C596 1.390 . S
C605 H598 0.950 . S
C605 C602 1.387 . S
C606 C607 1.387 . S
C606 H610 0.950 . S
C606 C615 1.390 . S
C607 C606 1.387 . S
C607 C609 1.387 . S
H608 C615 0.950 . S
C609 C607 1.387 . S
C609 C611 1.390 . S
C609 H613 0.950 . S
H610 C606 0.950 . S
C611 C609 1.390 . S
C611 C612 1.387 . S
C611 H614 0.950 . S
C612 C611 1.387 . S
C612 C615 1.387 . S
H613 C609 0.950 . S
H614 C611 0.950 . S
C615 C606 1.390 . S
C615 H608 0.950 . S
C615 C612 1.387 . S
C616 C617 1.387 . S
C616 H620 0.950 . S
C616 C625 1.390 . S
C617 C616 1.387 . S
C617 C619 1.387 . S
H618 C625 0.950 . S
C619 C617 1.387 . S
C619 C621 1.390 . S
C619 H623 0.950 . S
H620 C616 0.950 . S
C621 C619 1.390 . S
C621 C622 1.387 . S
C621 H624 0.950 . S
C622 C621 1.387 . S
C622 C625 1.387 . S
H623 C619 0.950 . S
H624 C621 0.950 . S
C625 C616 1.390 . S
C625 H618 0.950 . S
C625 C622 1.387 . S
C626 C627 1.387 . S
C626 H630 0.950 . S
C626 C635 1.390 . S
C627 C626 1.387 . S
C627 C629 1.387 . S
H628 C635 0.950 . S
C629 C627 1.387 . S
C629 C631 1.390 . S
C629 H633 0.950 . S
H630 C626 0.950 . S
C631 C629 1.390 . S
C631 C632 1.387 . S
C631 H634 0.950 . S
C632 C631 1.387 . S
C632 C635 1.387 . S
H633 C629 0.950 . S
H634 C631 0.950 . S
C635 C626 1.390 . S
C635 H628 0.950 . S
C635 C632 1.387 . S
C636 C637 1.387 . S
C636 H640 0.950 . S
C636 C645 1.390 . S
C637 C636 1.387 . S
C637 C639 1.387 . S
H638 C645 0.950 . S
C639 C637 1.387 . S
C639 C641 1.390 . S
C639 H643 0.950 . S
H640 C636 0.950 . S
C641 C639 1.390 . S
C641 C642 1.387 . S
C641 H644 0.950 . S
C642 C641 1.387 . S
C642 C645 1.387 . S
H643 C639 0.950 . S
H644 C641 0.950 . S
C645 C636 1.390 . S
C645 H638 0.950 . S
C645 C642 1.387 . S
C646 C647 1.387 . S
C646 H650 0.950 . S
C646 C655 1.390 . S
C647 C646 1.387 . S
C647 C649 1.387 1_554 S
H648 C655 0.950 . S
C649 C647 1.387 1_556 S
C649 C651 1.390 1_556 S
C649 H653 0.950 . S
H650 C646 0.950 . S
C651 C649 1.390 1_554 S
C651 C652 1.387 . S
C651 H654 0.950 1_554 S
C652 C651 1.387 . S
C652 C655 1.387 . S
H653 C649 0.950 . S
H654 C651 0.950 1_556 S
C655 C646 1.390 . S
C655 H648 0.950 . S
C655 C652 1.387 . S
C656 C657 1.387 . S
C656 H660 0.950 . S
C656 C665 1.390 . S
C657 C656 1.387 . S
C657 C659 1.387 . S
H658 C665 0.950 . S
C659 C657 1.387 . S
C659 C661 1.390 . S
C659 H663 0.950 . S
H660 C656 0.950 . S
C661 C659 1.390 . S
C661 C662 1.387 . S
C661 H664 0.950 . S
C662 C661 1.387 . S
C662 C665 1.387 . S
H663 C659 0.950 . S
H664 C661 0.950 . S
C665 C656 1.390 . S
C665 H658 0.950 . S
C665 C662 1.387 . S
C666 C667 1.387 . S
C666 H670 0.950 . S
C666 C675 1.390 . S
C667 C666 1.387 . S
C667 C669 1.387 . S
H668 C675 0.950 . S
C669 C667 1.387 . S
C669 C671 1.390 . S
C669 H673 0.950 . S
H670 C666 0.950 . S
C671 C669 1.390 . S
C671 C672 1.387 . S
C671 H674 0.950 . S
C672 C671 1.387 . S
C672 C675 1.387 . S
H673 C669 0.950 . S
H674 C671 0.950 . S
C675 C666 1.390 . S
C675 H668 0.950 . S
C675 C672 1.387 . S
C676 C677 1.387 . S
C676 H680 0.950 . S
C676 C685 1.390 . S
C677 C676 1.387 . S
C677 C679 1.387 . S
H678 C685 0.950 . S
C679 C677 1.387 . S
C679 C681 1.390 . S
C679 H683 0.950 . S
H680 C676 0.950 . S
C681 C679 1.390 . S
C681 C682 1.387 . S
C681 H684 0.950 . S
C682 C681 1.387 . S
C682 C685 1.387 . S
H683 C679 0.950 . S
H684 C681 0.950 . S
C685 C676 1.390 . S
C685 H678 0.950 . S
C685 C682 1.387 . S
C686 C687 1.387 . S
C686 H690 0.950 . S
C686 C695 1.390 . S
C687 C686 1.387 . S
C687 C689 1.387 . S
H688 C695 0.950 . S
C689 C687 1.387 . S
C689 C691 1.390 . S
C689 H693 0.950 . S
H690 C686 0.950 . S
C691 C689 1.390 . S
C691 C692 1.387 . S
C691 H694 0.950 . S
C692 C691 1.387 . S
C692 C695 1.387 . S
H693 C689 0.950 . S
H694 C691 0.950 . S
C695 C686 1.390 . S
C695 H688 0.950 . S
C695 C692 1.387 . S
C397 N344 1.061 . S
C402 N14 1.061 . S
C407 N47 1.060 . S
C412 N377 1.060 . S
C417 N80 1.061 . S
C422 N212 1.061 . S
C427 N113 1.058 . S
C432 N245 1.058 . S
C437 N146 1.061 . S
C442 N278 1.060 . S
C447 N179 1.059 . S
C452 N311 1.059 . S
C457 C17 1.520 . S
C462 C281 1.519 . S
C467 C314 1.520 . S
C472 C50 1.520 . S
C477 C83 1.519 . S
C482 C347 1.520 . S
C487 C116 1.520 . S
C492 C380 1.519 . S
C497 C149 1.520 . S
C502 C215 1.520 . S
C507 C182 1.520 . S
C512 C248 1.519 . S
C517 N368 1.264 1_455 S
C522 N5 1.265 1_655 S
C527 N203 1.265 1_545 S
C532 N38 1.265 1_565 S
C537 N236 1.260 . S
C542 N71 1.262 . S
C547 N104 1.265 1_455 S
C552 N269 1.265 1_655 S
C557 N137 1.265 1_545 S
C562 N302 1.265 1_565 S
C567 N335 1.260 . S
C572 N170 1.260 . S
C577 C193 2.035 . S
C582 C8 2.050 1_556 S
C587 C28 2.033 . S
C592 C41 2.049 . S
C597 C74 2.050 . S
C602 C61 2.035 . S
C607 C94 2.035 . S
C612 C107 2.050 . S
C617 C140 2.049 . S
C622 C127 2.034 . S
C627 C173 2.050 . S
C632 C160 2.034 . S
C637 C259 2.034 . S
C642 C206 2.049 . S
C647 C239 2.049 1_554 S
C652 C292 2.033 . S
C657 C272 2.050 . S
C662 C325 2.035 . S
C667 C358 2.034 . S
C672 C305 2.050 . S
C677 C391 2.034 . S
C682 C338 2.050 . S
C687 C371 2.050 . S
C692 C226 2.035 . S
