# Generated by pormake.
# Topology uoq, (4)-cn, num edge types: 1
# Building blocks:
#     Node 0, Type 0, BuildingBlock: AZAVOO_clean_sbu_0, # of connection points: 4
#     Node 1, Type 0, BuildingBlock: AZAVOO_clean_sbu_0, # of connection points: 4
#     Node 2, Type 0, BuildingBlock: AZAVOO_clean_sbu_0, # of connection points: 4
#     Node 3, Type 0, BuildingBlock: AZAVOO_clean_sbu_0, # of connection points: 4
#     Node 4, Type 0, BuildingBlock: AZAVOO_clean_sbu_0, # of connection points: 4
#     Node 5, Type 0, BuildingBlock: AZAVOO_clean_sbu_0, # of connection points: 4
#     Node 6, Type 0, BuildingBlock: AZAVOO_clean_sbu_0, # of connection points: 4
#     Node 7, Type 0, BuildingBlock: AZAVOO_clean_sbu_0, # of connection points: 4
#     Node 8, Type 0, BuildingBlock: AZAVOO_clean_sbu_0, # of connection points: 4
#     Node 9, Type 0, BuildingBlock: AZAVOO_clean_sbu_0, # of connection points: 4
#     Node 10, Type 0, BuildingBlock: AZAVOO_clean_sbu_0, # of connection points: 4
#     Node 11, Type 0, BuildingBlock: AZAVOO_clean_sbu_0, # of connection points: 4
#     Edge 12, Type (0, 0), BuildingBlock: MIFKUJ_clean_linker_0, # of connection points: 2
#     Edge 13, Type (0, 0), BuildingBlock: MIFKUJ_clean_linker_0, # of connection points: 2
#     Edge 14, Type (0, 0), BuildingBlock: MIFKUJ_clean_linker_0, # of connection points: 2
#     Edge 15, Type (0, 0), BuildingBlock: MIFKUJ_clean_linker_0, # of connection points: 2
#     Edge 16, Type (0, 0), BuildingBlock: MIFKUJ_clean_linker_0, # of connection points: 2
#     Edge 17, Type (0, 0), BuildingBlock: MIFKUJ_clean_linker_0, # of connection points: 2
#     Edge 18, Type (0, 0), BuildingBlock: MIFKUJ_clean_linker_0, # of connection points: 2
#     Edge 19, Type (0, 0), BuildingBlock: MIFKUJ_clean_linker_0, # of connection points: 2
#     Edge 20, Type (0, 0), BuildingBlock: MIFKUJ_clean_linker_0, # of connection points: 2
#     Edge 21, Type (0, 0), BuildingBlock: MIFKUJ_clean_linker_0, # of connection points: 2
#     Edge 22, Type (0, 0), BuildingBlock: MIFKUJ_clean_linker_0, # of connection points: 2
#     Edge 23, Type (0, 0), BuildingBlock: MIFKUJ_clean_linker_0, # of connection points: 2
#     Edge 24, Type (0, 0), BuildingBlock: MIFKUJ_clean_linker_0, # of connection points: 2
#     Edge 25, Type (0, 0), BuildingBlock: MIFKUJ_clean_linker_0, # of connection points: 2
#     Edge 26, Type (0, 0), BuildingBlock: MIFKUJ_clean_linker_0, # of connection points: 2
#     Edge 27, Type (0, 0), BuildingBlock: MIFKUJ_clean_linker_0, # of connection points: 2
#     Edge 28, Type (0, 0), BuildingBlock: MIFKUJ_clean_linker_0, # of connection points: 2
#     Edge 29, Type (0, 0), BuildingBlock: MIFKUJ_clean_linker_0, # of connection points: 2
#     Edge 30, Type (0, 0), BuildingBlock: MIFKUJ_clean_linker_0, # of connection points: 2
#     Edge 31, Type (0, 0), BuildingBlock: MIFKUJ_clean_linker_0, # of connection points: 2
#     Edge 32, Type (0, 0), BuildingBlock: MIFKUJ_clean_linker_0, # of connection points: 2
#     Edge 33, Type (0, 0), BuildingBlock: MIFKUJ_clean_linker_0, # of connection points: 2
#     Edge 34, Type (0, 0), BuildingBlock: MIFKUJ_clean_linker_0, # of connection points: 2
#     Edge 35, Type (0, 0), BuildingBlock: MIFKUJ_clean_linker_0, # of connection points: 2
# Relax obj value: 0.091
# Max RMSD: 0.086
# Mean RMSD: 0.086
data_MOF--net-uoq--node1-AZAVOO_clean_sbu_0--edge1-MIFKUJ_clean_linker_0
_symmetry_space_group_name_H-M    P1
_symmetry_Int_Tables_number       1
_symmetry_cell_setting            triclinic
loop_
_symmetry_equiv_pos_as_xyz
'x, y, z'
_cell_length_a     75.01832
_cell_length_b     75.017039
_cell_length_c     30.745377
_cell_angle_alpha  89.991057
_cell_angle_beta   89.989496
_cell_angle_gamma 120.0052
loop_
_atom_site_label
_atom_site_type_symbol
_atom_site_fract_x
_atom_site_fract_y
_atom_site_fract_z
_atom_type_partial_charge
Mg0 Mg 0.30978 0.44514 0.23283 0.0
O1 O 0.29254 0.44427 0.29568 0.0
O2 O 0.31341 0.44837 0.35154 0.0
Mg3 Mg 0.34309 0.45112 0.32564 0.0
C4 C 0.29641 0.44578 0.33648 0.0
C5 C 0.28308 0.44637 0.16048 0.0
O6 O 0.30082 0.4635 0.15657 0.0
O7 O 0.30285 0.4122 0.24573 0.0
O8 O 0.32387 0.41777 0.30229 0.0
O9 O 0.32468 0.47954 0.23215 0.0
O10 O 0.33796 0.46248 0.26412 0.0
C11 C 0.31035 0.40577 0.27501 0.0
C12 C 0.33904 0.47979 0.25589 0.0
O13 O 0.28082 0.43411 0.19132 0.0
Mg14 Mg 0.85934 0.30831 0.58017 0.0
O15 O 0.84013 0.28942 0.63961 0.0
O16 O 0.85395 0.30989 0.69751 0.0
Mg17 Mg 0.88137 0.34032 0.67727 0.0
C18 C 0.8406 0.29286 0.68053 0.0
C19 C 0.85031 0.28609 0.49555 0.0
O20 O 0.86391 0.30549 0.48798 0.0
O21 O 0.88528 0.30228 0.59952 0.0
O22 O 0.89762 0.32241 0.65843 0.0
O23 O 0.83936 0.32236 0.57239 0.0
O24 O 0.86741 0.3356 0.61278 0.0
C25 C 0.89778 0.30955 0.63145 0.0
C26 C 0.85158 0.33641 0.5994 0.0
O27 O 0.84468 0.28059 0.53463 0.0
Mg28 Mg 0.54992 0.86081 0.91964 0.0
O29 O 0.54664 0.83958 0.97762 0.0
O30 O 0.5371 0.85137 0.0348 0.0
Mg31 Mg 0.53483 0.87934 0.01558 0.0
C32 C 0.5417 0.83866 0.01781 0.0
C33 C 0.56112 0.84808 0.83651 0.0
O34 O 0.54983 0.85632 0.82599 0.0
O35 O 0.58062 0.88582 0.94731 0.0
O36 O 0.56977 0.8961 0.00488 0.0
O37 O 0.51657 0.8413 0.90292 0.0
O38 O 0.52886 0.86724 0.94933 0.0
C39 C 0.58415 0.89717 0.98083 0.0
C40 C 0.51317 0.85204 0.93115 0.0
O41 O 0.5653 0.84764 0.87646 0.0
Mg42 Mg 0.68165 0.54499 0.23532 0.0
O43 O 0.69703 0.54351 0.29937 0.0
O44 O 0.67323 0.53329 0.3519 0.0
Mg45 Mg 0.64397 0.53047 0.32353 0.0
C46 C 0.69138 0.53858 0.33896 0.0
C47 C 0.72384 0.55301 0.19711 0.0
O48 O 0.71913 0.5366 0.22061 0.0
O49 O 0.68532 0.57582 0.25708 0.0
O50 O 0.66215 0.56525 0.31089 0.0
O51 O 0.66957 0.51126 0.22484 0.0
O52 O 0.653 0.52414 0.26035 0.0
C53 C 0.6761 0.57955 0.28766 0.0
C54 C 0.65395 0.50823 0.24824 0.0
O55 O 0.71219 0.56078 0.19867 0.0
Mg56 Mg 0.13354 0.68994 0.57009 0.0
O57 O 0.15069 0.70562 0.63363 0.0
O58 O 0.13709 0.68207 0.68659 0.0
Mg59 Mg 0.11083 0.65247 0.65893 0.0
C60 C 0.14996 0.70017 0.67335 0.0
C61 C 0.1679 0.73124 0.53069 0.0
O62 O 0.17911 0.7257 0.55365 0.0
O63 O 0.1063 0.69351 0.5922 0.0
O64 O 0.09378 0.67011 0.64557 0.0
O65 O 0.15505 0.67773 0.55906 0.0
O66 O 0.12586 0.6613 0.59545 0.0
C67 C 0.09327 0.68402 0.6225 0.0
C68 C 0.14256 0.66211 0.58257 0.0
O69 O 0.1484 0.7204 0.53292 0.0
Mg70 Mg 0.44603 0.14 0.91828 0.0
O71 O 0.44882 0.16051 0.97734 0.0
O72 O 0.45811 0.14797 0.03354 0.0
Mg73 Mg 0.45931 0.11951 0.01334 0.0
C74 C 0.45387 0.16108 0.01734 0.0
C75 C 0.43345 0.14963 0.8349 0.0
O76 O 0.44099 0.1374 0.82779 0.0
O77 O 0.41466 0.11462 0.94266 0.0
O78 O 0.42455 0.10346 1.00037 0.0
O79 O 0.47983 0.15964 0.90581 0.0
O80 O 0.46597 0.13196 0.9475 0.0
C81 C 0.41056 0.1028 0.97559 0.0
C82 C 0.48225 0.14757 0.9322 0.0
O83 O 0.43203 0.15424 0.87407 0.0
Mg84 Mg 0.55414 0.6885 0.43119 0.0
O85 O 0.55327 0.70454 0.3676 0.0
O86 O 0.54769 0.6824 0.31338 0.0
Mg87 Mg 0.54555 0.65323 0.34054 0.0
C88 C 0.55068 0.69973 0.3272 0.0
C89 C 0.55575 0.71513 0.50573 0.0
O90 O 0.53999 0.6967 0.51311 0.0
O91 O 0.58665 0.69511 0.41453 0.0
O92 O 0.57948 0.67282 0.35973 0.0
O93 O 0.51986 0.67367 0.43668 0.0
O94 O 0.53584 0.65979 0.40263 0.0
C95 C 0.59223 0.68692 0.38506 0.0
C96 C 0.51882 0.65888 0.41317 0.0
O97 O 0.56622 0.71803 0.47122 0.0
Mg98 Mg 0.8593 0.55428 0.75074 0.0
O99 O 0.83917 0.55369 0.69285 0.0
O100 O 0.85318 0.54826 0.63351 0.0
Mg101 Mg 0.88061 0.54488 0.65169 0.0
C102 C 0.8397 0.55141 0.65167 0.0
C103 C 0.84614 0.56161 0.8368 0.0
O104 O 0.85559 0.55107 0.84317 0.0
O105 O 0.8849 0.58649 0.73092 0.0
O106 O 0.89693 0.57887 0.67127 0.0
O107 O 0.83966 0.52022 0.75844 0.0
O108 O 0.86721 0.53529 0.71658 0.0
C109 C 0.89723 0.59182 0.69862 0.0
C110 C 0.85159 0.51855 0.73035 0.0
O111 O 0.84482 0.56684 0.7981 0.0
Mg112 Mg 0.30681 0.86349 0.08546 0.0
O113 O 0.28664 0.84439 0.02723 0.0
O114 O 0.30638 0.85823 0.9681 0.0
Mg115 Mg 0.33824 0.88392 0.9867 0.0
C116 C 0.2894 0.84525 0.98597 0.0
C117 C 0.28595 0.85045 0.17152 0.0
O118 O 0.30578 0.85806 0.1779 0.0
O119 O 0.3024 0.89054 0.06586 0.0
O120 O 0.32312 0.90252 0.00785 0.0
O121 O 0.31947 0.84224 0.09361 0.0
O122 O 0.33284 0.86944 0.05047 0.0
C123 C 0.31071 0.90352 0.0349 0.0
C124 C 0.33294 0.85334 0.06451 0.0
O125 O 0.27975 0.85046 0.133 0.0
Mg126 Mg 0.44514 0.31046 0.43548 0.0
O127 O 0.44871 0.29655 0.37127 0.0
O128 O 0.46184 0.32182 0.32175 0.0
Mg129 Mg 0.46406 0.35059 0.35169 0.0
C130 C 0.45549 0.30321 0.33299 0.0
C131 C 0.43541 0.26723 0.46885 0.0
O132 O 0.45149 0.27189 0.44426 0.0
O133 O 0.41551 0.30802 0.40879 0.0
O134 O 0.42888 0.33271 0.35811 0.0
O135 O 0.47816 0.32134 0.45126 0.0
O136 O 0.46735 0.33963 0.41523 0.0
C137 C 0.41342 0.31834 0.37812 0.0
C138 C 0.48244 0.33777 0.4295 0.0
O139 O 0.42797 0.27918 0.46906 0.0
Mg140 Mg 0.13621 0.44834 0.74237 0.0
O141 O 0.15407 0.44773 0.68173 0.0
O142 O 0.14108 0.45615 0.62499 0.0
Mg143 Mg 0.11494 0.46095 0.64773 0.0
C144 C 0.15371 0.45122 0.64108 0.0
C145 C 0.14711 0.43548 0.82535 0.0
O146 O 0.13625 0.44421 0.83565 0.0
O147 O 0.10886 0.41726 0.72279 0.0
O148 O 0.09687 0.42669 0.66589 0.0
O149 O 0.15809 0.48213 0.75006 0.0
O150 O 0.12934 0.46885 0.71188 0.0
C151 C 0.09595 0.41295 0.69187 0.0
C152 C 0.146 0.48489 0.7244 0.0
O153 O 0.15002 0.43354 0.78529 0.0
Mg154 Mg 0.68701 0.1347 0.09555 0.0
O155 O 0.70349 0.15059 0.03152 0.0
O156 O 0.68076 0.13519 0.9777 0.0
Mg157 Mg 0.65074 0.10969 0.00568 0.0
C158 C 0.69859 0.14863 0.99121 0.0
C159 C 0.7291 0.16952 0.13302 0.0
O160 O 0.72557 0.18057 0.10484 0.0
O161 O 0.6909 0.10708 0.07903 0.0
O162 O 0.66815 0.09303 0.02478 0.0
O163 O 0.67468 0.15634 0.1011 0.0
O164 O 0.65875 0.12634 0.06745 0.0
C165 C 0.6818 0.09325 0.04997 0.0
C166 C 0.65938 0.14328 0.07759 0.0
O167 O 0.71682 0.15021 0.13472 0.0
H168 H 0.32154 0.38557 0.21862 0.0
H169 H 0.32375 0.35504 0.23595 0.0
H170 H 0.28926 0.34681 0.35408 0.0
H171 H 0.28821 0.3782 0.33764 0.0
H172 H 0.32307 0.35073 0.37465 0.0
H173 H 0.27412 0.30689 0.27295 0.0
H174 H 0.2551 0.29564 0.20375 0.0
H175 H 0.3096 0.30455 0.13867 0.0
H176 H 0.32907 0.31617 0.20727 0.0
H177 H 0.37758 0.29952 0.42593 0.0
H178 H 0.34521 0.29868 0.40848 0.0
H179 H 0.37046 0.32755 0.28488 0.0
H180 H 0.40245 0.32825 0.3017 0.0
H181 H 0.32879 0.30065 0.27896 0.0
H182 H 0.37755 0.35686 0.37547 0.0
H183 H 0.39721 0.36955 0.44381 0.0
H184 H 0.34133 0.33677 0.51756 0.0
H185 H 0.32139 0.32374 0.44956 0.0
C186 C 0.31359 0.37663 0.24715 0.0
C187 C 0.30465 0.38404 0.27677 0.0
C188 C 0.31476 0.35906 0.25709 0.0
C189 C 0.30667 0.34847 0.29648 0.0
C190 C 0.29569 0.35469 0.32362 0.0
C191 C 0.29495 0.37253 0.31413 0.0
C192 C 0.31377 0.33447 0.31341 0.0
C193 C 0.32353 0.33918 0.35421 0.0
C194 C 0.31468 0.31948 0.28697 0.0
C195 C 0.30307 0.31243 0.24542 0.0
C196 C 0.2821 0.30657 0.24386 0.0
C197 C 0.27123 0.30011 0.20471 0.0
C198 C 0.28113 0.29938 0.16684 0.0
C199 C 0.30193 0.30509 0.16805 0.0
C200 C 0.31288 0.31156 0.20711 0.0
C201 C 0.37599 0.3052 0.39462 0.0
C202 C 0.39271 0.31438 0.36561 0.0
C203 C 0.3575 0.30467 0.38467 0.0
C204 C 0.35553 0.31328 0.34558 0.0
C205 C 0.3716 0.3208 0.31518 0.0
C206 C 0.39 0.32142 0.32512 0.0
C207 C 0.33865 0.31783 0.33869 0.0
C208 C 0.32724 0.31142 0.29993 0.0
C209 C 0.3361 0.33126 0.3669 0.0
C210 C 0.34806 0.33914 0.40762 0.0
C211 C 0.3695 0.35229 0.40631 0.0
C212 C 0.38068 0.35954 0.44494 0.0
C213 C 0.37054 0.35391 0.48501 0.0
C214 C 0.34918 0.34107 0.48651 0.0
C215 C 0.33793 0.33374 0.44796 0.0
H216 H 0.37921 0.35955 0.51488 0.0
H217 H 0.27269 0.29438 0.13656 0.0
H218 H 0.90726 0.29454 0.70245 0.0
H219 H 0.94056 0.29715 0.71718 0.0
H220 H 0.96025 0.31933 0.58647 0.0
H221 H 0.92646 0.31536 0.57099 0.0
H222 H 0.98136 0.30207 0.61539 0.0
H223 H 0.96378 0.35221 0.67146 0.0
H224 H 0.94285 0.3627 0.71473 0.0
H225 H 0.95558 0.3389 0.83038 0.0
H226 H 0.97637 0.32803 0.78759 0.0
H227 H 0.07369 0.39533 0.61881 0.0
H228 H 0.04055 0.36383 0.61402 0.0
H229 H 0.04473 0.35122 0.74941 0.0
H230 H 0.07815 0.38302 0.75448 0.0
H231 H 0.01146 0.35446 0.73237 0.0
H232 H 0.03979 0.31613 0.67242 0.0
H233 H 0.06193 0.30896 0.62493 0.0
H234 H 0.03096 0.31397 0.51219 0.0
H235 H 0.00882 0.32148 0.55889 0.0
C236 C 0.91841 0.29902 0.67637 0.0
C237 C 0.91453 0.30492 0.63576 0.0
C238 C 0.93745 0.30062 0.68481 0.0
C239 C 0.95315 0.30913 0.65342 0.0
C240 C 0.94844 0.31286 0.61132 0.0
C241 C 0.92915 0.31062 0.60245 0.0
C242 C 0.97505 0.31785 0.66626 0.0
C243 C 0.988 0.31344 0.6411 0.0
C244 C 0.98367 0.33238 0.70052 0.0
C245 C 0.97138 0.33909 0.72631 0.0
C246 C 0.96202 0.34914 0.70609 0.0
C247 C 0.95019 0.35515 0.7305 0.0
C248 C 0.94784 0.35141 0.77526 0.0
C249 C 0.95737 0.34173 0.7957 0.0
C250 C 0.96917 0.33563 0.77139 0.0
C251 C 0.06784 0.3856 0.64733 0.0
C252 C 0.07835 0.39181 0.68722 0.0
C253 C 0.04897 0.36742 0.6444 0.0
C254 C 0.04017 0.35509 0.6813 0.0
C255 C 0.05132 0.36046 0.72047 0.0
C256 C 0.07039 0.37863 0.72333 0.0
C257 C 0.018 0.33928 0.6805 0.0
C258 C 0.0049 0.34248 0.70781 0.0
C259 C 0.00943 0.32404 0.64767 0.0
C260 C 0.02263 0.31941 0.61927 0.0
C261 C 0.03776 0.31583 0.63749 0.0
C262 C 0.05031 0.31168 0.61069 0.0
C263 C 0.04786 0.31101 0.56557 0.0
C264 C 0.03282 0.31446 0.54716 0.0
C265 C 0.02023 0.31862 0.5738 0.0
H266 H 0.05759 0.30781 0.54489 0.0
H267 H 0.93867 0.35607 0.79411 0.0
H268 H 0.61236 0.92535 0.9254 0.0
H269 H 0.64254 0.95782 0.94621 0.0
H270 H 0.63386 0.93784 0.08022 0.0
H271 H 0.60283 0.90596 0.05955 0.0
H272 H 0.63359 0.97062 0.07776 0.0
H273 H 0.68074 0.95301 0.01958 0.0
H274 H 0.6957 0.93913 0.96753 0.0
H275 H 0.70269 0.98439 0.87319 0.0
H276 H 0.68748 0.99837 0.92435 0.0
H277 H 0.69379 0.07612 0.11433 0.0
H278 H 0.69158 0.04237 0.11139 0.0
H279 H 0.67615 0.03751 0.97512 0.0
H280 H 0.67836 0.071 0.97781 0.0
H281 H 0.69741 0.01661 0.9962 0.0
H282 H 0.63842 0.02309 0.04763 0.0
H283 H 0.62255 0.03658 0.09848 0.0
H284 H 0.63852 0.01087 0.20626 0.0
H285 H 0.6547 0.99744 0.15594 0.0
C286 C 0.61739 0.92764 0.959 0.0
C287 C 0.60528 0.91337 0.99099 0.0
C288 C 0.63477 0.94618 0.97096 0.0
C289 C 0.6406 0.95043 0.01496 0.0
C290 C 0.62965 0.93507 0.04617 0.0
C291 C 0.61196 0.91684 0.03438 0.0
C292 C 0.65501 0.97195 0.02907 0.0
C293 C 0.64797 0.9804 0.06093 0.0
C294 C 0.67367 0.98501 0.00696 0.0
C295 C 0.6829 0.97672 0.9759 0.0
C296 C 0.68534 0.95994 0.98765 0.0
C297 C 0.69389 0.95206 0.95829 0.0
C298 C 0.70014 0.96087 0.91708 0.0
C299 C 0.69787 0.9776 0.90515 0.0
C300 C 0.68933 0.98554 0.93437 0.0
C301 C 0.69067 0.06816 0.08345 0.0
C302 C 0.68577 0.07591 0.04653 0.0
C303 C 0.68945 0.04892 0.0818 0.0
C304 C 0.68341 0.03734 0.04316 0.0
C305 C 0.68083 0.04616 0.00524 0.0
C306 C 0.68187 0.06522 0.00695 0.0
C307 C 0.67549 0.01487 0.04355 0.0
C308 C 0.68359 0.00639 0.01428 0.0
C309 C 0.65781 0.00161 0.06809 0.0
C310 C 0.64796 0.00951 0.0982 0.0
C311 C 0.63863 0.02043 0.08221 0.0
C312 C 0.62959 0.02805 0.1109 0.0
C313 C 0.62959 0.02464 0.15559 0.0
C314 C 0.63858 0.01355 0.17165 0.0
C315 C 0.6477 0.00594 0.14308 0.0
H316 H 0.62257 0.03055 0.17777 0.0
H317 H 0.70674 0.95474 0.89439 0.0
H318 H 0.6901 0.61182 0.2302 0.0
H319 H 0.69136 0.6448 0.24246 0.0
H320 H 0.67367 0.62786 0.37631 0.0
H321 H 0.67236 0.5952 0.36431 0.0
H322 H 0.65648 0.64466 0.2634 0.0
H323 H 0.68869 0.66846 0.44011 0.0
H324 H 0.71773 0.67161 0.48354 0.0
H325 H 0.75194 0.67833 0.36676 0.0
H326 H 0.72325 0.67554 0.32257 0.0
H327 H 0.61377 0.67703 0.44067 0.0
H328 H 0.64325 0.67334 0.42018 0.0
H329 H 0.64843 0.70469 0.29907 0.0
H330 H 0.61821 0.70736 0.31874 0.0
H331 H 0.68234 0.69141 0.39086 0.0
H332 H 0.65068 0.67631 0.21804 0.0
H333 H 0.61951 0.66985 0.17776 0.0
H334 H 0.58243 0.64103 0.29069 0.0
H335 H 0.61334 0.64709 0.33133 0.0
C336 C 0.68709 0.61546 0.2625 0.0
C337 C 0.68083 0.60085 0.29614 0.0
C338 C 0.68784 0.63428 0.26947 0.0
C339 C 0.68276 0.63888 0.31037 0.0
C340 C 0.67802 0.62488 0.34469 0.0
C341 C 0.67702 0.60607 0.33764 0.0
C342 C 0.67847 0.65602 0.3158 0.0
C343 C 0.66273 0.65546 0.29025 0.0
C344 C 0.68628 0.66977 0.35146 0.0
C345 C 0.70374 0.67175 0.37796 0.0
C346 C 0.70246 0.67078 0.42365 0.0
C347 C 0.71886 0.67246 0.44842 0.0
C348 C 0.73666 0.67515 0.42793 0.0
C349 C 0.73812 0.6762 0.3826 0.0
C350 C 0.72178 0.67454 0.35767 0.0
C351 C 0.62185 0.68398 0.41065 0.0
C352 C 0.61383 0.69238 0.38112 0.0
C353 C 0.6387 0.68188 0.3989 0.0
C354 C 0.6477 0.68825 0.35756 0.0
C355 C 0.64148 0.69933 0.33077 0.0
C356 C 0.62432 0.70098 0.34209 0.0
C357 C 0.65988 0.67932 0.33949 0.0
C358 C 0.67688 0.68132 0.36278 0.0
C359 C 0.65303 0.66651 0.30216 0.0
C360 C 0.63432 0.66241 0.27778 0.0
C361 C 0.63585 0.66855 0.23415 0.0
C362 C 0.61825 0.66496 0.21129 0.0
C363 C 0.59902 0.65511 0.23171 0.0
C364 C 0.59733 0.64871 0.27495 0.0
C365 C 0.61488 0.6522 0.29789 0.0
H366 H 0.58542 0.6524 0.21399 0.0
H367 H 0.74933 0.67643 0.44717 0.0
H368 H 0.92633 0.61531 0.75796 0.0
H369 H 0.95967 0.64532 0.74126 0.0
H370 H 0.93885 0.64661 0.61091 0.0
H371 H 0.90599 0.61574 0.62704 0.0
H372 H 0.96994 0.6431 0.60502 0.0
H373 H 0.95817 0.68979 0.68493 0.0
H374 H 0.94686 0.70319 0.7457 0.0
H375 H 0.99124 0.70067 0.82976 0.0
H376 H 0.00263 0.68696 0.76974 0.0
H377 H 0.07597 0.69924 0.56533 0.0
H378 H 0.043 0.69829 0.57466 0.0
H379 H 0.03887 0.67642 0.7061 0.0
H380 H 0.07161 0.67749 0.69722 0.0
H381 H 0.02027 0.7002 0.69783 0.0
H382 H 0.02103 0.64231 0.62346 0.0
H383 H 0.03179 0.62766 0.56396 0.0
H384 H 0.00685 0.65163 0.46997 0.0
H385 H 0.99617 0.66662 0.52902 0.0
C386 C 0.92863 0.62258 0.72639 0.0
C387 C 0.91377 0.61329 0.69368 0.0
C388 C 0.94769 0.63984 0.71681 0.0
C389 C 0.95193 0.64834 0.67465 0.0
C390 C 0.93608 0.64032 0.64353 0.0
C391 C 0.91728 0.62275 0.65277 0.0
C392 C 0.97362 0.66219 0.66077 0.0
C393 C 0.98073 0.6561 0.62456 0.0
C394 C 0.98796 0.67898 0.68635 0.0
C395 C 0.98123 0.68728 0.72273 0.0
C396 C 0.96545 0.69197 0.71643 0.0
C397 C 0.95903 0.69964 0.75076 0.0
C398 C 0.96832 0.70277 0.79157 0.0
C399 C 0.98407 0.69826 0.79812 0.0
C400 C 0.99055 0.69058 0.7639 0.0
C401 C 0.06832 0.69487 0.59661 0.0
C402 C 0.0761 0.68798 0.63021 0.0
C403 C 0.04951 0.69435 0.60191 0.0
C404 C 0.03835 0.68699 0.64088 0.0
C405 C 0.04718 0.68213 0.67577 0.0
C406 C 0.06582 0.68254 0.67045 0.0
C407 C 0.0162 0.68054 0.64332 0.0
C408 C 0.00913 0.68786 0.6774 0.0
C409 C 0.00175 0.66486 0.61585 0.0
C410 C 0.00806 0.65578 0.58048 0.0
C411 C 0.01797 0.64455 0.59007 0.0
C412 C 0.02403 0.63618 0.55646 0.0
C413 C 0.02007 0.63878 0.5132 0.0
C414 C 0.00997 0.64969 0.50348 0.0
C415 C 0.00391 0.65812 0.53698 0.0
H416 H 0.02477 0.63229 0.48722 0.0
H417 H 0.96332 0.70871 0.81811 0.0
H418 H 0.31482 0.92614 0.96272 0.0
H419 H 0.31832 0.96018 0.96018 0.0
H420 H 0.3033 0.95585 0.09662 0.0
H421 H 0.2999 0.9216 0.09951 0.0
H422 H 0.29818 0.98188 0.98061 0.0
H423 H 0.34045 0.00052 0.14165 0.0
H424 H 0.3563 0.98673 0.19191 0.0
H425 H 0.37153 0.96039 0.08413 0.0
H426 H 0.356 0.97425 0.03332 0.0
H427 H 0.39047 0.09224 0.05277 0.0
H428 H 0.35969 0.05951 0.07013 0.0
H429 H 0.35363 0.04221 0.93463 0.0
H430 H 0.38359 0.07547 0.91713 0.0
H431 H 0.36116 0.02726 0.06513 0.0
H432 H 0.30925 0.00107 0.90926 0.0
H433 H 0.2944 0.01536 0.85794 0.0
H434 H 0.29924 0.059 0.95425 0.0
H435 H 0.31383 0.04479 0.00643 0.0
C436 C 0.31171 0.93217 0.99198 0.0
C437 C 0.30756 0.92142 0.03157 0.0
C438 C 0.31352 0.95157 0.99035 0.0
C439 C 0.31139 0.96067 0.02832 0.0
C440 C 0.30514 0.94912 0.06699 0.0
C441 C 0.30321 0.92956 0.06861 0.0
C442 C 0.31968 0.98323 0.02863 0.0
C443 C 0.31184 0.99195 0.99928 0.0
C444 C 0.33718 0.99629 0.0538 0.0
C445 C 0.34684 0.98816 0.08389 0.0
C446 C 0.34722 0.99181 0.12877 0.0
C447 C 0.35615 0.98399 0.15731 0.0
C448 C 0.36484 0.97262 0.14124 0.0
C449 C 0.36473 0.96913 0.09656 0.0
C450 C 0.35586 0.97696 0.06789 0.0
C451 C 0.38194 0.08177 0.02655 0.0
C452 C 0.38932 0.08624 0.98369 0.0
C453 C 0.36441 0.06304 0.03645 0.0
C454 C 0.35429 0.04819 0.00386 0.0
C455 C 0.36076 0.05342 0.96041 0.0
C456 C 0.378 0.07244 0.95034 0.0
C457 C 0.34009 0.02632 0.01607 0.0
C458 C 0.34698 0.01758 0.0476 0.0
C459 C 0.32174 0.0134 0.99288 0.0
C460 C 0.31274 0.02189 0.96176 0.0
C461 C 0.30702 0.01361 0.91965 0.0
C462 C 0.29868 0.02173 0.89035 0.0
C463 C 0.29591 0.03809 0.9028 0.0
C464 C 0.30144 0.04636 0.94461 0.0
C465 C 0.30978 0.03829 0.97404 0.0
H466 H 0.28946 0.04436 0.88006 0.0
H467 H 0.37171 0.96655 0.16339 0.0
H468 H 0.14844 0.44382 0.91175 0.0
H469 H 0.16867 0.4393 0.96781 0.0
H470 H 0.18893 0.41013 0.87467 0.0
H471 H 0.16921 0.41539 0.81756 0.0
H472 H 0.17086 0.41 0.00689 0.0
H473 H 0.23832 0.42347 0.89673 0.0
H474 H 0.25388 0.43947 0.82624 0.0
H475 H 0.2313 0.48166 0.84037 0.0
H476 H 0.21583 0.46606 0.91112 0.0
H477 H 0.24844 0.40904 0.14403 0.0
H478 H 0.22285 0.40123 0.08654 0.0
H479 H 0.25505 0.46505 0.04745 0.0
H480 H 0.28078 0.47273 0.10347 0.0
H481 H 0.24581 0.44238 0.97889 0.0
H482 H 0.20919 0.44258 0.10815 0.0
H483 H 0.1944 0.43117 0.1814 0.0
H484 H 0.15657 0.36949 0.13416 0.0
H485 H 0.17135 0.38051 0.0607 0.0
C486 C 0.15703 0.43627 0.9031 0.0
C487 C 0.15745 0.43025 0.85998 0.0
C488 C 0.16852 0.43357 0.93539 0.0
C489 C 0.18059 0.42464 0.92546 0.0
C490 C 0.18005 0.41743 0.88297 0.0
C491 C 0.16874 0.42039 0.85038 0.0
C492 C 0.19489 0.4246 0.95893 0.0
C493 C 0.18723 0.41688 1.00064 0.0
C494 C 0.2163 0.43378 0.95109 0.0
C495 C 0.22571 0.44342 0.90886 0.0
C496 C 0.23673 0.43619 0.88478 0.0
C497 C 0.24552 0.44518 0.8448 0.0
C498 C 0.2435 0.46152 0.82875 0.0
C499 C 0.23278 0.46896 0.85275 0.0
C500 C 0.22398 0.46004 0.89276 0.0
C501 C 0.24994 0.42138 0.12327 0.0
C502 C 0.26665 0.44148 0.12818 0.0
C503 C 0.23531 0.41692 0.09046 0.0
C504 C 0.237 0.43256 0.06259 0.0
C505 C 0.2535 0.45267 0.06816 0.0
C506 C 0.26817 0.45706 0.10041 0.0
C507 C 0.22188 0.42833 0.02721 0.0
C508 C 0.22939 0.43512 0.98501 0.0
C509 C 0.20046 0.41893 0.03502 0.0
C510 C 0.19156 0.4123 0.07911 0.0
C511 C 0.19784 0.42655 0.11348 0.0
C512 C 0.18944 0.42016 0.15501 0.0
C513 C 0.17461 0.39961 0.16247 0.0
C514 C 0.1681 0.3854 0.12836 0.0
C515 C 0.17647 0.39171 0.08678 0.0
H516 H 0.16812 0.39469 0.19465 0.0
H517 H 0.2503 0.46844 0.79777 0.0
H518 H 0.85692 0.29514 0.4093 0.0
H519 H 0.83829 0.27312 0.34795 0.0
H520 H 0.80263 0.22273 0.43557 0.0
H521 H 0.82119 0.24485 0.4978 0.0
H522 H 0.81687 0.2123 0.35421 0.0
H523 H 0.78038 0.24612 0.40445 0.0
H524 H 0.77749 0.27609 0.42722 0.0
H525 H 0.79952 0.30415 0.30226 0.0
H526 H 0.80284 0.27446 0.27898 0.0
H527 H 0.73393 0.1528 0.2081 0.0
H528 H 0.75699 0.17093 0.26859 0.0
H529 H 0.78375 0.22754 0.19519 0.0
H530 H 0.76019 0.20961 0.13508 0.0
H531 H 0.77409 0.234 0.2716 0.0
H532 H 0.8103 0.20084 0.2195 0.0
H533 H 0.8146 0.17183 0.19566 0.0
H534 H 0.7948 0.14344 0.32105 0.0
H535 H 0.79012 0.17216 0.34548 0.0
C536 C 0.8453 0.27932 0.41572 0.0
C537 C 0.84041 0.27181 0.45856 0.0
C538 C 0.83468 0.26676 0.38052 0.0
C539 C 0.81901 0.24639 0.3873 0.0
C540 C 0.81471 0.23844 0.42977 0.0
C541 C 0.82526 0.25111 0.46523 0.0
C542 C 0.80625 0.2341 0.35009 0.0
C543 C 0.80726 0.2168 0.33638 0.0
C544 C 0.79419 0.24037 0.32634 0.0
C545 C 0.79205 0.25816 0.34014 0.0
C546 C 0.78477 0.25876 0.38196 0.0
C547 C 0.78303 0.27568 0.39494 0.0
C548 C 0.78837 0.29204 0.36625 0.0
C549 C 0.79541 0.29148 0.32447 0.0
C550 C 0.79721 0.2746 0.31136 0.0
C551 C 0.74496 0.16904 0.20449 0.0
C552 C 0.74514 0.17979 0.16682 0.0
C553 C 0.75823 0.1794 0.23912 0.0
C554 C 0.77222 0.20063 0.2365 0.0
C555 C 0.77303 0.21118 0.19811 0.0
C556 C 0.7596 0.2009 0.16368 0.0
C557 C 0.78478 0.21216 0.27491 0.0
C558 C 0.78368 0.22938 0.2891 0.0
C559 C 0.79686 0.20586 0.29876 0.0
C560 C 0.79967 0.18856 0.28417 0.0
C561 C 0.8067 0.18833 0.24188 0.0
C562 C 0.80924 0.17195 0.22828 0.0
C563 C 0.80492 0.15578 0.25678 0.0
C564 C 0.79811 0.15597 0.29899 0.0
C565 C 0.79554 0.17231 0.31275 0.0
H566 H 0.8069 0.14311 0.2462 0.0
H567 H 0.78701 0.30513 0.37635 0.0
H568 H 0.58634 0.83139 0.84445 0.0
H569 H 0.59449 0.81339 0.78815 0.0
H570 H 0.5571 0.82379 0.69638 0.0
H571 H 0.5496 0.84226 0.75151 0.0
H572 H 0.57125 0.77969 0.74918 0.0
H573 H 0.57091 0.82533 0.59451 0.0
H574 H 0.58332 0.86137 0.57344 0.0
H575 H 0.62797 0.88232 0.67631 0.0
H576 H 0.61605 0.84642 0.69763 0.0
H577 H 0.53196 0.71524 0.57204 0.0
H578 H 0.54081 0.74121 0.62801 0.0
H579 H 0.60082 0.77827 0.57033 0.0
H580 H 0.59174 0.75234 0.51288 0.0
H581 H 0.58654 0.80209 0.59519 0.0
H582 H 0.5951 0.75106 0.66504 0.0
H583 H 0.58679 0.71617 0.68744 0.0
H584 H 0.53378 0.70859 0.75693 0.0
H585 H 0.54159 0.74332 0.73444 0.0
C586 C 0.58015 0.83009 0.81205 0.0
C587 C 0.56733 0.83827 0.80249 0.0
C588 C 0.58479 0.81978 0.7799 0.0
C589 C 0.57668 0.81745 0.73769 0.0
C590 C 0.56407 0.82583 0.72818 0.0
C591 C 0.55962 0.83627 0.76001 0.0
C592 C 0.57971 0.80478 0.70444 0.0
C593 C 0.57484 0.7847 0.71564 0.0
C594 C 0.58509 0.81147 0.66082 0.0
C595 C 0.59249 0.83313 0.64781 0.0
C596 C 0.58347 0.83761 0.61247 0.0
C597 C 0.59039 0.85803 0.60053 0.0
C598 C 0.60639 0.87413 0.62357 0.0
C599 C 0.61554 0.86984 0.65856 0.0
C600 C 0.60868 0.84945 0.67063 0.0
C601 C 0.54706 0.7289 0.5711 0.0
C602 C 0.56121 0.73166 0.53818 0.0
C603 C 0.55216 0.74371 0.60339 0.0
C604 C 0.57168 0.76147 0.60414 0.0
C605 C 0.58573 0.76459 0.57066 0.0
C606 C 0.58052 0.74979 0.53786 0.0
C607 C 0.57694 0.77675 0.63969 0.0
C608 C 0.58339 0.79727 0.62891 0.0
C609 C 0.57367 0.77069 0.68396 0.0
C610 C 0.56891 0.7498 0.69788 0.0
C611 C 0.58161 0.74191 0.6849 0.0
C612 C 0.57698 0.72217 0.69763 0.0
C613 C 0.55976 0.71017 0.72356 0.0
C614 C 0.54713 0.71791 0.73687 0.0
C615 C 0.55167 0.73765 0.7242 0.0
H616 H 0.5562 0.69488 0.73337 0.0
H617 H 0.61172 0.88992 0.61428 0.0
H618 H 0.75247 0.54095 0.18676 0.0
H619 H 0.77673 0.54945 0.12667 0.0
H620 H 0.75693 0.5897 0.07233 0.0
H621 H 0.73259 0.58129 0.13236 0.0
H622 H 0.75571 0.56201 0.01291 0.0
H623 H 0.80444 0.61013 0.11335 0.0
H624 H 0.82278 0.62193 0.18324 0.0
H625 H 0.84539 0.57975 0.16963 0.0
H626 H 0.82694 0.56746 0.09994 0.0
H627 H 0.82629 0.58414 0.83759 0.0
H628 H 0.80889 0.58957 0.89948 0.0
H629 H 0.82608 0.55387 0.9813 0.0
H630 H 0.84386 0.54893 0.92048 0.0
H631 H 0.83014 0.58544 0.02522 0.0
H632 H 0.77733 0.53343 0.93314 0.0
H633 H 0.75812 0.51983 0.86463 0.0
H634 H 0.74248 0.56763 0.86413 0.0
H635 H 0.76182 0.58165 0.93242 0.0
C636 C 0.75351 0.55188 0.16246 0.0
C637 C 0.74051 0.56035 0.16428 0.0
C638 C 0.76745 0.55679 0.12818 0.0
C639 C 0.76867 0.57025 0.09505 0.0
C640 C 0.75623 0.57928 0.09755 0.0
C641 C 0.74238 0.5745 0.132 0.0
C642 C 0.78171 0.57351 0.05621 0.0
C643 C 0.77209 0.56758 0.01543 0.0
C644 C 0.80298 0.58037 0.05966 0.0
C645 C 0.81418 0.58777 0.10152 0.0
C646 C 0.81319 0.60325 0.1254 0.0
C647 C 0.82364 0.61005 0.16497 0.0
C648 C 0.83521 0.60157 0.1809 0.0
C649 C 0.83641 0.5863 0.15726 0.0
C650 C 0.82598 0.57943 0.11768 0.0
C651 C 0.82647 0.5776 0.86889 0.0
C652 C 0.83635 0.566 0.874 0.0
C653 C 0.81647 0.58066 0.9042 0.0
C654 C 0.81595 0.57192 0.94501 0.0
C655 C 0.82629 0.56082 0.95027 0.0
C656 C 0.83638 0.55792 0.91526 0.0
C657 C 0.80403 0.57343 0.98209 0.0
C658 C 0.81385 0.58025 0.02256 0.0
C659 C 0.78287 0.56716 0.97849 0.0
C660 C 0.77122 0.55873 0.93754 0.0
C661 C 0.76992 0.54112 0.91823 0.0
C662 C 0.75899 0.53333 0.87948 0.0
C663 C 0.74914 0.5429 0.85996 0.0
C664 C 0.75015 0.56026 0.87923 0.0
C665 C 0.76109 0.56813 0.91796 0.0
H666 H 0.74069 0.53685 0.82997 0.0
H667 H 0.84329 0.60686 0.21154 0.0
H668 H 0.20899 0.75783 0.51902 0.0
H669 H 0.2255 0.78183 0.45896 0.0
H670 H 0.16597 0.76606 0.4071 0.0
H671 H 0.14927 0.74185 0.4671 0.0
H672 H 0.19049 0.7635 0.34576 0.0
H673 H 0.19666 0.81351 0.44925 0.0
H674 H 0.20507 0.83147 0.51987 0.0
H675 H 0.26857 0.84882 0.50366 0.0
H676 H 0.26051 0.83072 0.43321 0.0
H677 H 0.24388 0.83421 0.17234 0.0
H678 H 0.22037 0.81771 0.2338 0.0
H679 H 0.27187 0.82881 0.31489 0.0
H680 H 0.29528 0.84568 0.25455 0.0
H681 H 0.24658 0.83603 0.35973 0.0
H682 H 0.23952 0.78122 0.26442 0.0
H683 H 0.2317 0.76231 0.19496 0.0
H684 H 0.17051 0.75333 0.19711 0.0
H685 H 0.17805 0.77241 0.26638 0.0
C686 C 0.19937 0.75969 0.49528 0.0
C687 C 0.1778 0.74784 0.49781 0.0
C688 C 0.20885 0.7735 0.461 0.0
C689 C 0.19698 0.77583 0.42859 0.0
C690 C 0.17543 0.76452 0.43176 0.0
C691 C 0.16592 0.75075 0.46619 0.0
C692 C 0.20716 0.78885 0.38986 0.0
C693 C 0.20244 0.77951 0.34868 0.0
C694 C 0.22298 0.80962 0.39373 0.0
C695 C 0.22794 0.82064 0.43601 0.0
C696 C 0.2124 0.82104 0.46086 0.0
C697 C 0.2171 0.83126 0.50085 0.0
C698 C 0.23733 0.84126 0.51627 0.0
C699 C 0.25291 0.84108 0.49167 0.0
C700 C 0.24828 0.83086 0.45167 0.0
C701 C 0.25016 0.83324 0.20339 0.0
C702 C 0.27145 0.84117 0.20844 0.0
C703 C 0.23671 0.82375 0.23845 0.0
C704 C 0.24431 0.8218 0.27894 0.0
C705 C 0.2656 0.83015 0.28412 0.0
C706 C 0.27899 0.83974 0.24938 0.0
C707 C 0.23034 0.81049 0.31584 0.0
C708 C 0.23435 0.82014 0.35669 0.0
C709 C 0.21397 0.78995 0.31176 0.0
C710 C 0.20943 0.77845 0.27023 0.0
C711 C 0.22445 0.77534 0.24989 0.0
C712 C 0.22006 0.76457 0.21061 0.0
C713 C 0.20064 0.75668 0.19156 0.0
C714 C 0.18555 0.75949 0.21185 0.0
C715 C 0.18987 0.77027 0.25112 0.0
H716 H 0.19728 0.74835 0.16114 0.0
H717 H 0.24095 0.84916 0.54724 0.0
H718 H 0.41661 0.17497 0.83546 0.0
H719 H 0.41202 0.19263 0.77265 0.0
H720 H 0.43581 0.16372 0.68767 0.0
H721 H 0.44015 0.14596 0.74941 0.0
H722 H 0.45589 0.20734 0.68125 0.0
H723 H 0.38738 0.14772 0.683 0.0
H724 H 0.35386 0.1238 0.71634 0.0
H725 H 0.34201 0.1736 0.73605 0.0
H726 H 0.37562 0.19789 0.70337 0.0
H727 H 0.44538 0.23691 0.47349 0.0
H728 H 0.44011 0.21425 0.53513 0.0
H729 H 0.40645 0.23858 0.60248 0.0
H730 H 0.41111 0.26086 0.54036 0.0
H731 H 0.39055 0.19867 0.6216 0.0
H732 H 0.45751 0.25829 0.62153 0.0
H733 H 0.49124 0.28368 0.59117 0.0
H734 H 0.50665 0.2362 0.57341 0.0
H735 H 0.47286 0.21045 0.60309 0.0
C736 C 0.42061 0.17221 0.8033 0.0
C737 C 0.42885 0.15914 0.79751 0.0
C738 C 0.41794 0.18225 0.7675 0.0
C739 C 0.42363 0.17947 0.7256 0.0
C740 C 0.43137 0.16608 0.71975 0.0
C741 C 0.43381 0.15592 0.75519 0.0
C742 C 0.42292 0.19142 0.68793 0.0
C743 C 0.44159 0.20529 0.66792 0.0
C744 C 0.40431 0.18924 0.67159 0.0
C745 C 0.38413 0.17466 0.69123 0.0
C746 C 0.37773 0.15361 0.69485 0.0
C747 C 0.35869 0.13998 0.71353 0.0
C748 C 0.34584 0.14719 0.72844 0.0
C749 C 0.35199 0.16804 0.72458 0.0
C750 C 0.37103 0.18175 0.70595 0.0
C751 C 0.43649 0.23715 0.50102 0.0
C752 C 0.42893 0.25091 0.50226 0.0
C753 C 0.43356 0.22424 0.53635 0.0
C754 C 0.42337 0.22512 0.57394 0.0
C755 C 0.41449 0.23774 0.57399 0.0
C756 C 0.4172 0.25049 0.53841 0.0
C757 C 0.42353 0.21423 0.6142 0.0
C758 C 0.40485 0.20073 0.63492 0.0
C759 C 0.44219 0.21696 0.63179 0.0
C760 C 0.46258 0.23241 0.61415 0.0
C761 C 0.46804 0.25324 0.61087 0.0
C762 C 0.48717 0.2677 0.59381 0.0
C763 C 0.50106 0.26155 0.58027 0.0
C764 C 0.49586 0.24093 0.58386 0.0
C765 C 0.47673 0.2264 0.60082 0.0
H766 H 0.51587 0.27277 0.56709 0.0
H767 H 0.3311 0.13661 0.74287 0.0
H768 H 0.1823 0.43962 0.66024 0.0
H769 H 0.20599 0.43674 0.60974 0.0
H770 H 0.18179 0.45608 0.504 0.0
H771 H 0.15797 0.45871 0.5537 0.0
H772 H 0.18595 0.42389 0.48057 0.0
H773 H 0.22775 0.48942 0.55213 0.0
H774 H 0.24301 0.51209 0.61575 0.0
H775 H 0.27265 0.47814 0.65355 0.0
H776 H 0.25734 0.45511 0.59041 0.0
H777 H 0.26356 0.45135 0.3206 0.0
H778 H 0.23885 0.45062 0.3735 0.0
H779 H 0.26899 0.43602 0.47554 0.0
H780 H 0.29411 0.43746 0.42326 0.0
H781 H 0.26149 0.46406 0.50312 0.0
H782 H 0.22128 0.39939 0.43056 0.0
H783 H 0.20595 0.37626 0.36764 0.0
H784 H 0.17315 0.40744 0.33271 0.0
H785 H 0.18848 0.43094 0.39514 0.0
C786 C 0.18202 0.44326 0.62624 0.0
C787 C 0.16825 0.44946 0.61113 0.0
C788 C 0.1956 0.44165 0.59745 0.0
C789 C 0.19574 0.44634 0.55316 0.0
C790 C 0.18191 0.45233 0.538 0.0
C791 C 0.16834 0.45391 0.56661 0.0
C792 C 0.21037 0.44525 0.52235 0.0
C793 C 0.20249 0.4328 0.48525 0.0
C794 C 0.2319 0.45646 0.52908 0.0
C795 C 0.24124 0.47042 0.56681 0.0
C796 C 0.23741 0.48671 0.57418 0.0
C797 C 0.24608 0.49964 0.61012 0.0
C798 C 0.25874 0.49653 0.63874 0.0
C799 C 0.26281 0.48052 0.63139 0.0
C800 C 0.25416 0.46753 0.59552 0.0
C801 C 0.26484 0.44787 0.35426 0.0
C802 C 0.28081 0.4445 0.36773 0.0
C803 C 0.25064 0.44736 0.38447 0.0
C804 C 0.25188 0.44301 0.42849 0.0
C805 C 0.26772 0.43945 0.44182 0.0
C806 C 0.28207 0.44026 0.41184 0.0
C807 C 0.23712 0.44278 0.46099 0.0
C808 C 0.24496 0.455 0.49845 0.0
C809 C 0.21554 0.43125 0.4547 0.0
C810 C 0.20617 0.41704 0.41732 0.0
C811 C 0.2109 0.4014 0.4093 0.0
C812 C 0.20219 0.38821 0.37375 0.0
C813 C 0.18862 0.39041 0.34614 0.0
C814 C 0.18368 0.40577 0.35411 0.0
C815 C 0.19235 0.41901 0.3896 0.0
H816 H 0.18191 0.38019 0.31862 0.0
H817 H 0.26544 0.50654 0.66656 0.0
H818 H 0.839 0.29449 0.76893 0.0
H819 H 0.81495 0.26817 0.81833 0.0
H820 H 0.78402 0.22805 0.70981 0.0
H821 H 0.80816 0.25457 0.65943 0.0
H822 H 0.75712 0.22965 0.76991 0.0
H823 H 0.81475 0.21864 0.77172 0.0
H824 H 0.85141 0.22886 0.77799 0.0
H825 H 0.85272 0.24973 0.9086 0.0
H826 H 0.81614 0.23992 0.90291 0.0
H827 H 0.69686 0.14353 0.90322 0.0
H828 H 0.72113 0.16644 0.84889 0.0
H829 H 0.75896 0.20785 0.95033 0.0
H830 H 0.73491 0.18461 0.0053 0.0
H831 H 0.78224 0.20396 0.89048 0.0
H832 H 0.72607 0.21744 0.88833 0.0
H833 H 0.68974 0.20856 0.88308 0.0
H834 H 0.68599 0.1845 0.75459 0.0
H835 H 0.72224 0.19298 0.75931 0.0
C836 C 0.82713 0.2801 0.75527 0.0
C837 C 0.82559 0.27665 0.71005 0.0
C838 C 0.81343 0.26502 0.78373 0.0
C839 C 0.79791 0.24607 0.76779 0.0
C840 C 0.79601 0.24258 0.72271 0.0
C841 C 0.80982 0.25772 0.69402 0.0
C842 C 0.78355 0.23018 0.79862 0.0
C843 C 0.76253 0.2237 0.79579 0.0
C844 C 0.79076 0.22293 0.83307 0.0
C845 C 0.81272 0.22868 0.83675 0.0
C846 C 0.82289 0.22554 0.80168 0.0
C847 C 0.84365 0.23124 0.80514 0.0
C848 C 0.8544 0.23998 0.84364 0.0
C849 C 0.84438 0.24298 0.87879 0.0
C850 C 0.82362 0.23732 0.87548 0.0
C851 C 0.71034 0.1575 0.91411 0.0
C852 C 0.71385 0.16233 0.95865 0.0
C853 C 0.72418 0.17062 0.88292 0.0
C854 C 0.74165 0.18906 0.89544 0.0
C855 C 0.74551 0.19372 0.93992 0.0
C856 C 0.73175 0.18046 0.97129 0.0
C857 C 0.75578 0.20351 0.86205 0.0
C858 C 0.77678 0.20975 0.86442 0.0
C859 C 0.74857 0.21067 0.82736 0.0
C860 C 0.72681 0.20566 0.82436 0.0
C861 C 0.71745 0.21012 0.85908 0.0
C862 C 0.69689 0.20518 0.85618 0.0
C863 C 0.68555 0.19592 0.81858 0.0
C864 C 0.69478 0.19164 0.78373 0.0
C865 C 0.71534 0.19653 0.78648 0.0
H866 H 0.66963 0.19211 0.8164 0.0
H867 H 0.87047 0.24439 0.84625 0.0
H868 H 0.53323 0.83343 0.10463 0.0
H869 H 0.53586 0.80953 0.15388 0.0
H870 H 0.55378 0.78453 0.04727 0.0
H871 H 0.55119 0.8086 0.99706 0.0
H872 H 0.5243 0.75444 0.10406 0.0
H873 H 0.58987 0.81639 0.11291 0.0
H874 H 0.61311 0.85374 0.12173 0.0
H875 H 0.58904 0.851 0.24982 0.0
H876 H 0.56542 0.81366 0.24151 0.0
H877 H 0.55579 0.69935 0.23952 0.0
H878 H 0.55528 0.72279 0.18539 0.0
H879 H 0.54551 0.7568 0.28669 0.0
H880 H 0.54661 0.73365 0.34148 0.0
H881 H 0.57221 0.78237 0.22944 0.0
H882 H 0.50562 0.72163 0.22068 0.0
H883 H 0.48109 0.68448 0.21276 0.0
H884 H 0.50553 0.68502 0.08616 0.0
H885 H 0.53041 0.72213 0.09357 0.0
C886 C 0.53766 0.82285 0.09132 0.0
C887 C 0.54214 0.82308 0.04677 0.0
C888 C 0.53922 0.80922 0.11969 0.0
C889 C 0.54531 0.79551 0.10431 0.0
C890 C 0.54916 0.79512 0.05973 0.0
C891 C 0.54769 0.80889 0.03115 0.0
C892 C 0.54779 0.78181 0.13532 0.0
C893 C 0.53502 0.76048 0.13106 0.0
C894 C 0.5614 0.78982 0.17115 0.0
C895 C 0.57576 0.81224 0.17644 0.0
C896 C 0.58942 0.82377 0.14284 0.0
C897 C 0.60268 0.84494 0.14776 0.0
C898 C 0.60252 0.85474 0.18627 0.0
C899 C 0.58914 0.84338 0.21999 0.0
C900 C 0.57583 0.82221 0.21521 0.0
C901 C 0.55353 0.71181 0.25041 0.0
C902 C 0.55105 0.71452 0.29484 0.0
C903 C 0.55317 0.72517 0.21933 0.0
C904 C 0.54993 0.7413 0.23184 0.0
C905 C 0.54794 0.74438 0.27626 0.0
C906 C 0.54855 0.73114 0.30754 0.0
C907 C 0.54857 0.7549 0.19852 0.0
C908 C 0.56156 0.77625 0.20234 0.0
C909 C 0.53502 0.74691 0.16249 0.0
C910 C 0.52001 0.72461 0.15787 0.0
C911 C 0.50586 0.71379 0.19128 0.0
C912 C 0.49188 0.69275 0.18687 0.0
C913 C 0.49179 0.68239 0.14903 0.0
C914 C 0.50564 0.69306 0.11547 0.0
C915 C 0.51967 0.7141 0.11975 0.0
H916 H 0.48095 0.6661 0.14567 0.0
H917 H 0.61279 0.87113 0.19002 0.0
H918 H 0.73291 0.55402 0.32877 0.0
H919 H 0.75756 0.55663 0.38401 0.0
H920 H 0.70845 0.52772 0.4779 0.0
H921 H 0.68379 0.52537 0.42333 0.0
H922 H 0.7412 0.56045 0.51271 0.0
H923 H 0.72907 0.50097 0.42993 0.0
H924 H 0.727 0.48187 0.36306 0.0
H925 H 0.79108 0.52348 0.33794 0.0
H926 H 0.79346 0.54299 0.40439 0.0
H927 H 0.79976 0.54056 0.67072 0.0
H928 H 0.77373 0.53871 0.61966 0.0
H929 H 0.81943 0.56305 0.51773 0.0
H930 H 0.84505 0.56412 0.56786 0.0
H931 H 0.78703 0.53146 0.48846 0.0
H932 H 0.79936 0.59159 0.56963 0.0
H933 H 0.80166 0.61128 0.63571 0.0
H934 H 0.7379 0.56938 0.66327 0.0
H935 H 0.73528 0.54929 0.59762 0.0
C936 C 0.72733 0.54813 0.3611 0.0
C937 C 0.70636 0.53948 0.37154 0.0
C938 C 0.74143 0.54961 0.39263 0.0
C939 C 0.73481 0.54223 0.43501 0.0
C940 C 0.71391 0.53356 0.44547 0.0
C941 C 0.69982 0.53217 0.4141 0.0
C942 C 0.74965 0.54361 0.46857 0.0
C943 C 0.75107 0.55391 0.50769 0.0
C944 C 0.76275 0.53539 0.46167 0.0
C945 C 0.76139 0.52353 0.42195 0.0
C946 C 0.74268 0.50612 0.41 0.0
C947 C 0.74146 0.49521 0.3722 0.0
C948 C 0.75889 0.50148 0.34622 0.0
C949 C 0.77759 0.51864 0.35807 0.0
C950 C 0.77889 0.52962 0.39583 0.0
C951 C 0.80422 0.54573 0.63754 0.0
C952 C 0.82436 0.55234 0.62315 0.0
C953 C 0.78938 0.54473 0.6084 0.0
C954 C 0.79461 0.55079 0.56477 0.0
C955 C 0.81494 0.55811 0.55103 0.0
C956 C 0.8296 0.55876 0.57978 0.0
C957 C 0.7789 0.54864 0.53251 0.0
C958 C 0.77721 0.53806 0.49362 0.0
C959 C 0.76565 0.55671 0.53959 0.0
C960 C 0.76719 0.56882 0.57896 0.0
C961 C 0.78587 0.58649 0.58996 0.0
C962 C 0.78722 0.59774 0.6273 0.0
C963 C 0.76995 0.59155 0.65374 0.0
C964 C 0.75127 0.57414 0.64281 0.0
C965 C 0.74984 0.56283 0.60552 0.0
H966 H 0.77103 0.60027 0.68264 0.0
H967 H 0.75791 0.49303 0.31695 0.0
H968 H 0.17731 0.74138 0.66156 0.0
H969 H 0.19983 0.76614 0.71616 0.0
H970 H 0.17729 0.71793 0.8126 0.0
H971 H 0.15454 0.69321 0.75874 0.0
H972 H 0.17914 0.75184 0.84518 0.0
H973 H 0.22439 0.73573 0.76473 0.0
H974 H 0.24093 0.7321 0.6986 0.0
H975 H 0.26669 0.79649 0.67125 0.0
H976 H 0.25008 0.80045 0.73695 0.0
H977 H 0.25826 0.80606 0.00411 0.0
H978 H 0.23323 0.78121 0.95247 0.0
H979 H 0.25774 0.82733 0.85139 0.0
H980 H 0.2831 0.85176 0.90212 0.0
H981 H 0.2545 0.79382 0.82179 0.0
H982 H 0.20938 0.81023 0.90197 0.0
H983 H 0.19266 0.81397 0.96766 0.0
H984 H 0.16654 0.74956 0.99526 0.0
H985 H 0.18332 0.74548 0.93001 0.0
C986 C 0.17718 0.73603 0.69435 0.0
C987 C 0.16412 0.71528 0.70567 0.0
C988 C 0.19009 0.75019 0.72551 0.0
C989 C 0.19035 0.74383 0.76839 0.0
C990 C 0.17731 0.72318 0.77976 0.0
C991 C 0.16436 0.70905 0.74878 0.0
C992 C 0.20423 0.75863 0.80154 0.0
C993 C 0.19566 0.76089 0.84033 0.0
C994 C 0.22571 0.77067 0.79484 0.0
C995 C 0.23584 0.76834 0.75553 0.0
C996 C 0.23347 0.74908 0.74445 0.0
C997 C 0.24287 0.74697 0.70708 0.0
C998 C 0.25481 0.76404 0.68068 0.0
C999 C 0.25742 0.78328 0.69169 0.0
C1000 C 0.24804 0.78547 0.72902 0.0
C1001 C 0.25807 0.8109 0.971 0.0
C1002 C 0.27269 0.83077 0.95704 0.0
C1003 C 0.24375 0.79673 0.94153 0.0
C1004 C 0.24354 0.80241 0.89798 0.0
C1005 C 0.25768 0.82251 0.88464 0.0
C1006 C 0.27215 0.83648 0.91374 0.0
C1007 C 0.22944 0.78729 0.86542 0.0
C1008 C 0.23798 0.78487 0.82673 0.0
C1009 C 0.20794 0.77518 0.87221 0.0
C1010 C 0.19777 0.7776 0.91134 0.0
C1011 C 0.20019 0.79689 0.92222 0.0
C1012 C 0.19068 0.79907 0.95934 0.0
C1013 C 0.17859 0.78202 0.98568 0.0
C1014 C 0.17593 0.76275 0.97487 0.0
C1015 C 0.18542 0.7605 0.9378 0.0
H1016 H 0.17124 0.78374 0.01441 0.0
H1017 H 0.26206 0.76237 0.65175 0.0
H1018 H 0.46971 0.1702 0.09926 0.0
H1019 H 0.47012 0.19539 0.14952 0.0
H1020 H 0.44095 0.21407 0.05315 0.0
H1021 H 0.44029 0.18855 0.00217 0.0
H1022 H 0.488 0.23659 0.14623 0.0
H1023 H 0.40812 0.22619 0.10981 0.0
H1024 H 0.37446 0.19995 0.08051 0.0
H1025 H 0.38556 0.15196 0.12402 0.0
H1026 H 0.41914 0.1779 0.15406 0.0
H1027 H 0.47495 0.31304 0.25426 0.0
H1028 H 0.4747 0.28965 0.19887 0.0
H1029 H 0.4361 0.23772 0.28067 0.0
H1030 H 0.43631 0.26107 0.33666 0.0
H1031 H 0.42277 0.23239 0.19377 0.0
H1032 H 0.4846 0.25182 0.2748 0.0
H1033 H 0.5178 0.27629 0.30859 0.0
H1034 H 0.54214 0.30289 0.1836 0.0
H1035 H 0.50896 0.27872 0.1491 0.0
C1036 C 0.46338 0.17964 0.08848 0.0
C1037 C 0.45482 0.17722 0.04666 0.0
C1038 C 0.46375 0.19414 0.1173 0.0
C1039 C 0.45548 0.20652 0.10521 0.0
C1040 C 0.44726 0.20452 0.06323 0.0
C1041 C 0.44695 0.18999 0.03412 0.0
C1042 C 0.4551 0.22104 0.1374 0.0
C1043 C 0.47375 0.23577 0.15633 0.0
C1044 C 0.43648 0.21976 0.15113 0.0
C1045 C 0.41623 0.204 0.13369 0.0
C1046 C 0.40333 0.21003 0.11321 0.0
C1047 C 0.38428 0.19522 0.09648 0.0
C1048 C 0.37791 0.1743 0.10026 0.0
C1049 C 0.39055 0.16817 0.12095 0.0
C1050 C 0.4096 0.18292 0.13779 0.0
C1051 C 0.46641 0.29665 0.26062 0.0
C1052 C 0.45567 0.28893 0.29999 0.0
C1053 C 0.46629 0.28332 0.22888 0.0
C1054 C 0.45539 0.26199 0.23573 0.0
C1055 C 0.44454 0.25416 0.27478 0.0
C1056 C 0.4448 0.26752 0.30681 0.0
C1057 C 0.45566 0.2479 0.20235 0.0
C1058 C 0.43702 0.23332 0.18322 0.0
C1059 C 0.47425 0.2491 0.18889 0.0
C1060 C 0.49425 0.26357 0.20943 0.0
C1061 C 0.49699 0.26299 0.25456 0.0
C1062 C 0.5158 0.27678 0.27382 0.0
C1063 C 0.53206 0.29113 0.24825 0.0
C1064 C 0.52953 0.29174 0.20334 0.0
C1065 C 0.51073 0.27799 0.18391 0.0
H1066 H 0.54663 0.30175 0.26324 0.0
H1067 H 0.36316 0.16286 0.08725 0.0
H1068 H 0.33915 0.5158 0.27144 0.0
H1069 H 0.3672 0.54757 0.30253 0.0
H1070 H 0.40491 0.51911 0.31061 0.0
H1071 H 0.37659 0.48716 0.28209 0.0
H1072 H 0.41024 0.5393 0.37951 0.0
H1073 H 0.40926 0.55546 0.22733 0.0
H1074 H 0.39372 0.55949 0.16 0.0
H1075 H 0.38181 0.60346 0.2235 0.0
H1076 H 0.39707 0.59951 0.29135 0.0
H1077 H 0.51154 0.62268 0.37744 0.0
H1078 H 0.47857 0.59382 0.35425 0.0
H1079 H 0.44807 0.6274 0.39057 0.0
H1080 H 0.48115 0.65648 0.41426 0.0
H1081 H 0.43651 0.60676 0.30604 0.0
H1082 H 0.44226 0.59256 0.45627 0.0
H1083 H 0.45998 0.58883 0.52018 0.0
H1084 H 0.4651 0.54086 0.45552 0.0
H1085 H 0.44767 0.54451 0.39095 0.0
C1086 C 0.35344 0.51639 0.28 0.0
C1087 C 0.35575 0.49907 0.27436 0.0
C1088 C 0.36951 0.53458 0.29752 0.0
C1089 C 0.38836 0.53591 0.30836 0.0
C1090 C 0.39054 0.51852 0.30273 0.0
C1091 C 0.37436 0.50026 0.28629 0.0
C1092 C 0.40592 0.55524 0.32574 0.0
C1093 C 0.41601 0.55398 0.36312 0.0
C1094 C 0.41322 0.57462 0.30529 0.0
C1095 C 0.40408 0.57701 0.26452 0.0
C1096 C 0.40319 0.56588 0.22699 0.0
C1097 C 0.39446 0.56816 0.18874 0.0
C1098 C 0.38672 0.58167 0.18752 0.0
C1099 C 0.38776 0.59297 0.22451 0.0
C1100 C 0.39646 0.59073 0.26286 0.0
C1101 C 0.49787 0.62403 0.38025 0.0
C1102 C 0.49892 0.64184 0.39771 0.0
C1103 C 0.47905 0.60749 0.36714 0.0
C1104 C 0.46093 0.60847 0.37103 0.0
C1105 C 0.46193 0.6264 0.38743 0.0
C1106 C 0.48078 0.64292 0.40105 0.0
C1107 C 0.441 0.59048 0.35859 0.0
C1108 C 0.43048 0.59205 0.32246 0.0
C1109 C 0.4335 0.5713 0.37965 0.0
C1110 C 0.44378 0.56891 0.41866 0.0
C1111 C 0.44729 0.58132 0.45556 0.0
C1112 C 0.45727 0.5792 0.49193 0.0
C1113 C 0.4637 0.56464 0.49189 0.0
C1114 C 0.46012 0.55213 0.45551 0.0
C1115 C 0.45017 0.5542 0.41904 0.0
H1116 H 0.47142 0.56303 0.52007 0.0
H1117 H 0.37996 0.58342 0.15787 0.0
H1118 H 0.81892 0.48064 0.75039 0.0
H1119 H 0.81333 0.44699 0.72703 0.0
H1120 H 0.86914 0.47693 0.65116 0.0
H1121 H 0.87487 0.51043 0.67431 0.0
H1122 H 0.83832 0.44448 0.60749 0.0
H1123 H 0.86957 0.45917 0.75096 0.0
H1124 H 0.8713 0.46728 0.82913 0.0
H1125 H 0.81359 0.41188 0.85025 0.0
H1126 H 0.8114 0.40358 0.77204 0.0
H1127 H 0.87539 0.36855 0.65329 0.0
H1128 H 0.86969 0.3964 0.67587 0.0
H1129 H 0.81305 0.36947 0.60276 0.0
H1130 H 0.8186 0.34128 0.58005 0.0
H1131 H 0.83912 0.39781 0.72092 0.0
H1132 H 0.81022 0.41064 0.55776 0.0
H1133 H 0.81161 0.40413 0.47946 0.0
H1134 H 0.86972 0.40696 0.49771 0.0
H1135 H 0.86879 0.41373 0.57594 0.0
C1136 C 0.82989 0.48004 0.7284 0.0
C1137 C 0.84734 0.49823 0.71417 0.0
C1138 C 0.82667 0.46082 0.71512 0.0
C1139 C 0.84087 0.45949 0.6875 0.0
C1140 C 0.85793 0.47762 0.67225 0.0
C1141 C 0.86119 0.49679 0.68559 0.0
C1142 C 0.83883 0.43935 0.67631 0.0
C1143 C 0.83822 0.43414 0.63229 0.0
C1144 C 0.83886 0.42594 0.70866 0.0
C1145 C 0.8402 0.43089 0.75563 0.0
C1146 C 0.85717 0.44881 0.77223 0.0
C1147 C 0.85825 0.45342 0.81654 0.0
C1148 C 0.84253 0.44014 0.84462 0.0
C1149 C 0.82573 0.42218 0.82845 0.0
C1150 C 0.82457 0.41751 0.78415 0.0
C1151 C 0.86153 0.36828 0.64251 0.0
C1152 C 0.84741 0.35263 0.61497 0.0
C1153 C 0.8583 0.38425 0.65549 0.0
C1154 C 0.841 0.38503 0.6409 0.0
C1155 C 0.82658 0.3692 0.61417 0.0
C1156 C 0.82977 0.35312 0.60127 0.0
C1157 C 0.83885 0.40307 0.6521 0.0
C1158 C 0.83867 0.40788 0.69613 0.0
C1159 C 0.83842 0.41627 0.61975 0.0
C1160 C 0.83928 0.41241 0.57273 0.0
C1161 C 0.8233 0.4099 0.545 0.0
C1162 C 0.82401 0.40617 0.50065 0.0
C1163 C 0.8407 0.40504 0.48366 0.0
C1164 C 0.85676 0.40774 0.51094 0.0
C1165 C 0.85613 0.4115 0.55529 0.0
H1166 H 0.84121 0.40214 0.44933 0.0
H1167 H 0.8434 0.44373 0.87891 0.0
H1168 H 0.49846 0.85389 0.01112 0.0
H1169 H 0.46415 0.84812 0.0287 0.0
H1170 H 0.44598 0.83298 0.89465 0.0
H1171 H 0.48029 0.83838 0.87698 0.0
H1172 H 0.4411 0.86663 0.93781 0.0
H1173 H 0.42413 0.79599 0.95374 0.0
H1174 H 0.4293 0.76813 0.98193 0.0
H1175 H 0.4231 0.78426 0.1128 0.0
H1176 H 0.4182 0.81243 0.08542 0.0
H1177 H 0.34295 0.8524 0.97992 0.0
H1178 H 0.36981 0.84604 0.95208 0.0
H1179 H 0.38382 0.83643 0.08333 0.0
H1180 H 0.35593 0.84138 0.1107 0.0
H1181 H 0.38941 0.81257 0.0347 0.0
H1182 H 0.41135 0.88461 0.02518 0.0
H1183 H 0.40904 0.91501 0.00319 0.0
H1184 H 0.40955 0.89987 0.86868 0.0
H1185 H 0.4116 0.86921 0.88991 0.0
C1186 C 0.48716 0.84928 0.98545 0.0
C1187 C 0.49205 0.84685 0.9426 0.0
C1188 C 0.46753 0.84581 0.9956 0.0
C1189 C 0.45263 0.84014 0.96293 0.0
C1190 C 0.45732 0.8373 0.92024 0.0
C1191 C 0.47684 0.84033 0.91026 0.0
C1192 C 0.43274 0.83878 0.97305 0.0
C1193 C 0.42953 0.85459 0.95823 0.0
C1194 C 0.41818 0.82347 0.00097 0.0
C1195 C 0.42097 0.80644 0.01751 0.0
C1196 C 0.42405 0.79372 0.98854 0.0
C1197 C 0.42689 0.77784 0.00438 0.0
C1198 C 0.42657 0.77446 0.04913 0.0
C1199 C 0.42336 0.78691 0.07814 0.0
C1200 C 0.42052 0.80282 0.06248 0.0
C1201 C 0.35168 0.84873 0.00264 0.0
C1202 C 0.3477 0.84766 0.0474 0.0
C1203 C 0.36707 0.84518 0.9868 0.0
C1204 C 0.37935 0.8414 0.01567 0.0
C1205 C 0.37468 0.83942 0.06033 0.0
C1206 C 0.35882 0.84231 0.07601 0.0
C1207 C 0.39769 0.84062 0.99981 0.0
C1208 C 0.40073 0.82448 0.01373 0.0
C1209 C 0.41247 0.856 0.97197 0.0
C1210 C 0.41139 0.87451 0.95913 0.0
C1211 C 0.41084 0.8877 0.99092 0.0
C1212 C 0.40959 0.90498 0.9786 0.0
C1213 C 0.40908 0.90934 0.93457 0.0
C1214 C 0.4099 0.89646 0.90277 0.0
C1215 C 0.41112 0.87914 0.91492 0.0
H1216 H 0.40811 0.92272 0.9251 0.0
H1217 H 0.42878 0.76216 0.06132 0.0
H1218 H 0.61707 0.49708 0.28534 0.0
H1219 H 0.5932 0.46438 0.31912 0.0
H1220 H 0.63199 0.43966 0.28211 0.0
H1221 H 0.65633 0.47278 0.248 0.0
H1222 H 0.58818 0.41171 0.27075 0.0
H1223 H 0.63501 0.45168 0.38099 0.0
H1224 H 0.65708 0.48334 0.42245 0.0
H1225 H 0.6037 0.48533 0.46578 0.0
H1226 H 0.5813 0.4539 0.42387 0.0
H1227 H 0.51535 0.33186 0.41772 0.0
H1228 H 0.5498 0.35734 0.39087 0.0
H1229 H 0.53157 0.4035 0.38823 0.0
H1230 H 0.49723 0.37817 0.41367 0.0
H1231 H 0.57236 0.41618 0.42586 0.0
H1232 H 0.52769 0.3804 0.30102 0.0
H1233 H 0.50599 0.3491 0.25827 0.0
H1234 H 0.55709 0.33887 0.2432 0.0
H1235 H 0.57895 0.36985 0.28694 0.0
C1236 C 0.62062 0.48476 0.28429 0.0
C1237 C 0.63877 0.48763 0.2647 0.0
C1238 C 0.60691 0.46604 0.30353 0.0
C1239 C 0.61105 0.44977 0.30376 0.0
C1240 C 0.62864 0.45213 0.28244 0.0
C1241 C 0.64249 0.47101 0.26305 0.0
C1242 C 0.59705 0.4308 0.32802 0.0
C1243 C 0.5851 0.41244 0.30498 0.0
C1244 C 0.59315 0.4318 0.37273 0.0
C1245 C 0.60646 0.45042 0.39914 0.0
C1246 C 0.62797 0.45891 0.3992 0.0
C1247 C 0.64055 0.47683 0.42277 0.0
C1248 C 0.6318 0.48635 0.44671 0.0
C1249 C 0.61045 0.47792 0.44724 0.0
C1250 C 0.59779 0.46003 0.42363 0.0
C1251 C 0.51887 0.34752 0.41189 0.0
C1252 C 0.5037 0.35311 0.41758 0.0
C1253 C 0.53846 0.36199 0.39655 0.0
C1254 C 0.54314 0.38223 0.38771 0.0
C1255 C 0.52824 0.38795 0.3951 0.0
C1256 C 0.50863 0.37347 0.40941 0.0
C1257 C 0.56298 0.39746 0.36814 0.0
C1258 C 0.57598 0.41516 0.39212 0.0
C1259 C 0.56797 0.39572 0.32453 0.0
C1260 C 0.55485 0.37724 0.29788 0.0
C1261 C 0.53422 0.37132 0.2891 0.0
C1262 C 0.52189 0.35363 0.26467 0.0
C1263 C 0.53008 0.34186 0.24834 0.0
C1264 C 0.55069 0.34786 0.25619 0.0
C1265 C 0.56305 0.36549 0.28083 0.0
H1266 H 0.52051 0.32816 0.22943 0.0
H1267 H 0.64157 0.50024 0.46488 0.0
H1268 H 0.17961 0.66311 0.57642 0.0
H1269 H 0.18758 0.63688 0.60218 0.0
H1270 H 0.12484 0.59941 0.64584 0.0
H1271 H 0.11689 0.62539 0.62075 0.0
H1272 H 0.15066 0.60097 0.70641 0.0
H1273 H 0.14252 0.5896 0.55035 0.0
H1274 H 0.15096 0.59947 0.47334 0.0
H1275 H 0.21286 0.61242 0.49502 0.0
H1276 H 0.20483 0.60285 0.57233 0.0
H1277 H 0.12008 0.49585 0.68729 0.0
H1278 H 0.12767 0.53016 0.66497 0.0
H1279 H 0.19096 0.5551 0.70362 0.0
H1280 H 0.1834 0.52063 0.72714 0.0
H1281 H 0.17413 0.56469 0.60712 0.0
H1282 H 0.17965 0.57221 0.76488 0.0
H1283 H 0.16825 0.55965 0.83957 0.0
H1284 H 0.10874 0.55208 0.81187 0.0
H1285 H 0.11972 0.5643 0.73676 0.0
C1286 C 0.16755 0.64925 0.59149 0.0
C1287 C 0.14766 0.64638 0.59687 0.0
C1288 C 0.17212 0.63429 0.60614 0.0
C1289 C 0.1568 0.61619 0.62599 0.0
C1290 C 0.13696 0.61334 0.63105 0.0
C1291 C 0.13243 0.62823 0.61665 0.0
C1292 C 0.161 0.59993 0.6415 0.0
C1293 C 0.15599 0.5932 0.68472 0.0
C1294 C 0.16833 0.58999 0.61355 0.0
C1295 C 0.17316 0.59579 0.56719 0.0
C1296 C 0.15798 0.59473 0.53876 0.0
C1297 C 0.16267 0.60023 0.49506 0.0
C1298 C 0.18245 0.60665 0.47933 0.0
C1299 C 0.19756 0.60751 0.50727 0.0
C1300 C 0.19295 0.60204 0.55102 0.0
C1301 C 0.13567 0.50856 0.69077 0.0
C1302 C 0.15114 0.50557 0.70904 0.0
C1303 C 0.13996 0.52813 0.678 0.0
C1304 C 0.15983 0.54503 0.68274 0.0
C1305 C 0.17553 0.54214 0.69979 0.0
C1306 C 0.17117 0.52252 0.71329 0.0
C1307 C 0.16344 0.5657 0.67152 0.0
C1308 C 0.16964 0.57306 0.62911 0.0
C1309 C 0.15707 0.57618 0.7 0.0
C1310 C 0.15044 0.56896 0.74514 0.0
C1311 C 0.16407 0.56766 0.77461 0.0
C1312 C 0.1577 0.56066 0.81703 0.0
C1313 C 0.13776 0.55502 0.83043 0.0
C1314 C 0.12417 0.55643 0.80144 0.0
C1315 C 0.13047 0.56341 0.75896 0.0
H1316 H 0.13286 0.54961 0.86329 0.0
H1317 H 0.18606 0.61089 0.44548 0.0
H1318 H 0.66072 0.18052 0.07525 0.0
H1319 H 0.63434 0.18754 0.04639 0.0
H1320 H 0.5961 0.1232 0.01462 0.0
H1321 H 0.62243 0.11627 0.04216 0.0
H1322 H 0.59558 0.14529 0.95025 0.0
H1323 H 0.58835 0.14622 0.1068 0.0
H1324 H 0.60015 0.15855 0.18141 0.0
H1325 H 0.61401 0.2194 0.14469 0.0
H1326 H 0.6025 0.20745 0.06968 0.0
H1327 H 0.49201 0.1205 0.96785 0.0
H1328 H 0.52608 0.12658 0.98818 0.0
H1329 H 0.55315 0.18998 0.94834 0.0
H1330 H 0.51895 0.1839 0.92675 0.0
H1331 H 0.56359 0.17623 0.04167 0.0
H1332 H 0.56562 0.172 0.88487 0.0
H1333 H 0.55094 0.15673 0.81349 0.0
H1334 H 0.54445 0.09907 0.85464 0.0
H1335 H 0.55879 0.11392 0.92655 0.0
C1336 C 0.64667 0.16792 0.06205 0.0
C1337 C 0.64365 0.14786 0.06082 0.0
C1338 C 0.6316 0.17193 0.04567 0.0
C1339 C 0.61317 0.15587 0.02851 0.0
C1340 C 0.61024 0.13588 0.02735 0.0
C1341 C 0.62531 0.13192 0.04321 0.0
C1342 C 0.59666 0.15949 0.01193 0.0
C1343 C 0.58868 0.15213 0.97028 0.0
C1344 C 0.58787 0.16883 0.03755 0.0
C1345 C 0.59484 0.17602 0.08254 0.0
C1346 C 0.59408 0.16227 0.11456 0.0
C1347 C 0.60068 0.16918 0.15693 0.0
C1348 C 0.6079 0.18977 0.16775 0.0
C1349 C 0.60847 0.20347 0.13624 0.0
C1350 C 0.60191 0.19664 0.09381 0.0
C1351 C 0.50517 0.13578 0.96357 0.0
C1352 C 0.50285 0.15173 0.94566 0.0
C1353 C 0.52459 0.1392 0.97516 0.0
C1354 C 0.542 0.15869 0.96966 0.0
C1355 C 0.53979 0.17484 0.95276 0.0
C1356 C 0.52033 0.17132 0.94034 0.0
C1357 C 0.56241 0.16159 0.98074 0.0
C1358 C 0.57099 0.17001 0.02131 0.0
C1359 C 0.5716 0.15297 0.95448 0.0
C1360 C 0.56312 0.14403 0.9112 0.0
C1361 C 0.56088 0.15601 0.87883 0.0
C1362 C 0.55266 0.14744 0.83825 0.0
C1363 C 0.54672 0.12693 0.82956 0.0
C1364 C 0.54904 0.11495 0.86142 0.0
C1365 C 0.55724 0.12345 0.90208 0.0
H1366 H 0.54036 0.12033 0.79812 0.0
H1367 H 0.613 0.19508 0.20057 0.0
loop_
_geom_bond_atom_site_label_1
_geom_bond_atom_site_label_2
_geom_bond_distance
_geom_bond_site_symmetry_2
_ccdc_geom_bond_type
Mg0 O1 2.028 . S
Mg0 O7 1.986 . S
Mg0 O9 2.114 . S
Mg0 O10 2.251 . S
Mg0 O13 2.010 . S
O1 Mg0 2.028 . S
O1 C4 1.250 . S
O2 Mg3 2.028 . S
O2 C4 1.248 . S
Mg3 O2 2.028 . S
Mg3 O8 2.032 . S
Mg3 O10 2.079 . S
C4 O1 1.250 . S
C4 O2 1.248 . S
C5 O6 1.264 . S
C5 O13 1.249 . S
O6 C5 1.264 . S
O7 Mg0 1.986 . S
O7 C11 1.246 . S
O8 Mg3 2.032 . S
O8 C11 1.259 . S
O9 Mg0 2.114 . S
O9 C12 1.252 . S
O10 Mg0 2.251 . S
O10 Mg3 2.079 . S
O10 C12 1.273 . S
C11 O7 1.246 . S
C11 O8 1.259 . S
C12 O9 1.252 . S
C12 O10 1.273 . S
O13 Mg0 2.010 . S
O13 C5 1.249 . S
Mg14 O15 2.028 . S
Mg14 O21 1.986 . S
Mg14 O23 2.114 . S
Mg14 O24 2.251 . S
Mg14 O27 2.010 . S
O15 Mg14 2.028 . S
O15 C18 1.250 . S
O16 Mg17 2.028 . S
O16 C18 1.248 . S
Mg17 O16 2.028 . S
Mg17 O22 2.032 . S
Mg17 O24 2.079 . S
C18 O15 1.250 . S
C18 O16 1.248 . S
C19 O20 1.264 . S
C19 O27 1.249 . S
O20 C19 1.264 . S
O21 Mg14 1.986 . S
O21 C25 1.246 . S
O22 Mg17 2.032 . S
O22 C25 1.259 . S
O23 Mg14 2.114 . S
O23 C26 1.252 . S
O24 Mg14 2.251 . S
O24 Mg17 2.079 . S
O24 C26 1.273 . S
C25 O21 1.246 . S
C25 O22 1.259 . S
C26 O23 1.252 . S
C26 O24 1.273 . S
O27 Mg14 2.010 . S
O27 C19 1.249 . S
Mg28 O29 2.028 . S
Mg28 O35 1.986 . S
Mg28 O37 2.114 . S
Mg28 O38 2.251 . S
Mg28 O41 2.010 . S
O29 Mg28 2.028 . S
O29 C32 1.250 1_556 S
O30 Mg31 2.028 . S
O30 C32 1.248 . S
Mg31 O30 2.028 . S
Mg31 O36 2.032 . S
Mg31 O38 2.079 1_554 S
C32 O29 1.250 1_554 S
C32 O30 1.248 . S
C33 O34 1.264 . S
C33 O41 1.249 . S
O34 C33 1.264 . S
O35 Mg28 1.986 . S
O35 C39 1.246 . S
O36 Mg31 2.032 . S
O36 C39 1.259 1_554 S
O37 Mg28 2.114 . S
O37 C40 1.252 . S
O38 Mg28 2.251 . S
O38 Mg31 2.079 1_556 S
O38 C40 1.273 . S
C39 O35 1.246 . S
C39 O36 1.259 1_556 S
C40 O37 1.252 . S
C40 O38 1.273 . S
O41 Mg28 2.010 . S
O41 C33 1.249 . S
Mg42 O43 2.028 . S
Mg42 O49 1.986 . S
Mg42 O51 2.114 . S
Mg42 O52 2.251 . S
Mg42 O55 2.010 . S
O43 Mg42 2.028 . S
O43 C46 1.250 . S
O44 Mg45 2.028 . S
O44 C46 1.248 . S
Mg45 O44 2.028 . S
Mg45 O50 2.032 . S
Mg45 O52 2.079 . S
C46 O43 1.250 . S
C46 O44 1.248 . S
C47 O48 1.264 . S
C47 O55 1.249 . S
O48 C47 1.264 . S
O49 Mg42 1.986 . S
O49 C53 1.246 . S
O50 Mg45 2.032 . S
O50 C53 1.259 . S
O51 Mg42 2.114 . S
O51 C54 1.252 . S
O52 Mg42 2.251 . S
O52 Mg45 2.079 . S
O52 C54 1.273 . S
C53 O49 1.246 . S
C53 O50 1.259 . S
C54 O51 1.252 . S
C54 O52 1.273 . S
O55 Mg42 2.010 . S
O55 C47 1.249 . S
Mg56 O57 2.028 . S
Mg56 O63 1.986 . S
Mg56 O65 2.114 . S
Mg56 O66 2.251 . S
Mg56 O69 2.010 . S
O57 Mg56 2.028 . S
O57 C60 1.250 . S
O58 Mg59 2.028 . S
O58 C60 1.248 . S
Mg59 O58 2.028 . S
Mg59 O64 2.032 . S
Mg59 O66 2.079 . S
C60 O57 1.250 . S
C60 O58 1.248 . S
C61 O62 1.264 . S
C61 O69 1.249 . S
O62 C61 1.264 . S
O63 Mg56 1.986 . S
O63 C67 1.246 . S
O64 Mg59 2.032 . S
O64 C67 1.259 . S
O65 Mg56 2.114 . S
O65 C68 1.252 . S
O66 Mg56 2.251 . S
O66 Mg59 2.079 . S
O66 C68 1.273 . S
C67 O63 1.246 . S
C67 O64 1.259 . S
C68 O65 1.252 . S
C68 O66 1.273 . S
O69 Mg56 2.010 . S
O69 C61 1.249 . S
Mg70 O71 2.028 . S
Mg70 O77 1.986 . S
Mg70 O79 2.114 . S
Mg70 O80 2.251 . S
Mg70 O83 2.010 . S
O71 Mg70 2.028 . S
O71 C74 1.250 1_556 S
O72 Mg73 2.028 . S
O72 C74 1.248 . S
Mg73 O72 2.028 . S
Mg73 O78 2.032 . S
Mg73 O80 2.079 1_554 S
C74 O71 1.250 1_554 S
C74 O72 1.248 . S
C75 O76 1.264 . S
C75 O83 1.249 . S
O76 C75 1.264 . S
O77 Mg70 1.986 . S
O77 C81 1.246 . S
O78 Mg73 2.032 . S
O78 C81 1.259 1_554 S
O79 Mg70 2.114 . S
O79 C82 1.252 . S
O80 Mg70 2.251 . S
O80 Mg73 2.079 1_556 S
O80 C82 1.273 . S
C81 O77 1.246 . S
C81 O78 1.259 1_556 S
C82 O79 1.252 . S
C82 O80 1.273 . S
O83 Mg70 2.010 . S
O83 C75 1.249 . S
Mg84 O85 2.028 . S
Mg84 O91 1.986 . S
Mg84 O93 2.114 . S
Mg84 O94 2.251 . S
Mg84 O97 2.010 . S
O85 Mg84 2.028 . S
O85 C88 1.250 . S
O86 Mg87 2.028 . S
O86 C88 1.248 . S
Mg87 O86 2.028 . S
Mg87 O92 2.032 . S
Mg87 O94 2.079 . S
C88 O85 1.250 . S
C88 O86 1.248 . S
C89 O90 1.264 . S
C89 O97 1.249 . S
O90 C89 1.264 . S
O91 Mg84 1.986 . S
O91 C95 1.246 . S
O92 Mg87 2.032 . S
O92 C95 1.259 . S
O93 Mg84 2.114 . S
O93 C96 1.252 . S
O94 Mg84 2.251 . S
O94 Mg87 2.079 . S
O94 C96 1.273 . S
C95 O91 1.246 . S
C95 O92 1.259 . S
C96 O93 1.252 . S
C96 O94 1.273 . S
O97 Mg84 2.010 . S
O97 C89 1.249 . S
Mg98 O99 2.028 . S
Mg98 O105 1.986 . S
Mg98 O107 2.114 . S
Mg98 O108 2.251 . S
Mg98 O111 2.010 . S
O99 Mg98 2.028 . S
O99 C102 1.250 . S
O100 Mg101 2.028 . S
O100 C102 1.248 . S
Mg101 O100 2.028 . S
Mg101 O106 2.032 . S
Mg101 O108 2.079 . S
C102 O99 1.250 . S
C102 O100 1.248 . S
C103 O104 1.264 . S
C103 O111 1.249 . S
O104 C103 1.264 . S
O105 Mg98 1.986 . S
O105 C109 1.246 . S
O106 Mg101 2.032 . S
O106 C109 1.259 . S
O107 Mg98 2.114 . S
O107 C110 1.252 . S
O108 Mg98 2.251 . S
O108 Mg101 2.079 . S
O108 C110 1.273 . S
C109 O105 1.246 . S
C109 O106 1.259 . S
C110 O107 1.252 . S
C110 O108 1.273 . S
O111 Mg98 2.010 . S
O111 C103 1.249 . S
Mg112 O113 2.028 . S
Mg112 O119 1.986 . S
Mg112 O121 2.114 . S
Mg112 O122 2.251 . S
Mg112 O125 2.010 . S
O113 Mg112 2.028 . S
O113 C116 1.250 1_554 S
O114 Mg115 2.028 . S
O114 C116 1.248 . S
Mg115 O114 2.028 . S
Mg115 O120 2.032 . S
Mg115 O122 2.079 1_556 S
C116 O113 1.250 1_556 S
C116 O114 1.248 . S
C117 O118 1.264 . S
C117 O125 1.249 . S
O118 C117 1.264 . S
O119 Mg112 1.986 . S
O119 C123 1.246 . S
O120 Mg115 2.032 . S
O120 C123 1.259 1_556 S
O121 Mg112 2.114 . S
O121 C124 1.252 . S
O122 Mg112 2.251 . S
O122 Mg115 2.079 1_554 S
O122 C124 1.273 . S
C123 O119 1.246 . S
C123 O120 1.259 1_554 S
C124 O121 1.252 . S
C124 O122 1.273 . S
O125 Mg112 2.010 . S
O125 C117 1.249 . S
Mg126 O127 2.028 . S
Mg126 O133 1.986 . S
Mg126 O135 2.114 . S
Mg126 O136 2.251 . S
Mg126 O139 2.010 . S
O127 Mg126 2.028 . S
O127 C130 1.250 . S
O128 Mg129 2.028 . S
O128 C130 1.248 . S
Mg129 O128 2.028 . S
Mg129 O134 2.032 . S
Mg129 O136 2.079 . S
C130 O127 1.250 . S
C130 O128 1.248 . S
C131 O132 1.264 . S
C131 O139 1.249 . S
O132 C131 1.264 . S
O133 Mg126 1.986 . S
O133 C137 1.246 . S
O134 Mg129 2.032 . S
O134 C137 1.259 . S
O135 Mg126 2.114 . S
O135 C138 1.252 . S
O136 Mg126 2.251 . S
O136 Mg129 2.079 . S
O136 C138 1.273 . S
C137 O133 1.246 . S
C137 O134 1.259 . S
C138 O135 1.252 . S
C138 O136 1.273 . S
O139 Mg126 2.010 . S
O139 C131 1.249 . S
Mg140 O141 2.028 . S
Mg140 O147 1.986 . S
Mg140 O149 2.114 . S
Mg140 O150 2.251 . S
Mg140 O153 2.010 . S
O141 Mg140 2.028 . S
O141 C144 1.250 . S
O142 Mg143 2.028 . S
O142 C144 1.248 . S
Mg143 O142 2.028 . S
Mg143 O148 2.032 . S
Mg143 O150 2.079 . S
C144 O141 1.250 . S
C144 O142 1.248 . S
C145 O146 1.264 . S
C145 O153 1.249 . S
O146 C145 1.264 . S
O147 Mg140 1.986 . S
O147 C151 1.246 . S
O148 Mg143 2.032 . S
O148 C151 1.259 . S
O149 Mg140 2.114 . S
O149 C152 1.252 . S
O150 Mg140 2.251 . S
O150 Mg143 2.079 . S
O150 C152 1.273 . S
C151 O147 1.246 . S
C151 O148 1.259 . S
C152 O149 1.252 . S
C152 O150 1.273 . S
O153 Mg140 2.010 . S
O153 C145 1.249 . S
Mg154 O155 2.028 . S
Mg154 O161 1.986 . S
Mg154 O163 2.114 . S
Mg154 O164 2.251 . S
Mg154 O167 2.010 . S
O155 Mg154 2.028 . S
O155 C158 1.250 1_554 S
O156 Mg157 2.028 . S
O156 C158 1.248 . S
Mg157 O156 2.028 . S
Mg157 O162 2.032 . S
Mg157 O164 2.079 1_556 S
C158 O155 1.250 1_556 S
C158 O156 1.248 . S
C159 O160 1.264 . S
C159 O167 1.249 . S
O160 C159 1.264 . S
O161 Mg154 1.986 . S
O161 C165 1.246 . S
O162 Mg157 2.032 . S
O162 C165 1.259 1_556 S
O163 Mg154 2.114 . S
O163 C166 1.252 . S
O164 Mg154 2.251 . S
O164 Mg157 2.079 1_554 S
O164 C166 1.273 . S
C165 O161 1.246 . S
C165 O162 1.259 1_554 S
C166 O163 1.252 . S
C166 O164 1.273 . S
O167 Mg154 2.010 . S
O167 C159 1.249 . S
H168 C186 0.951 . S
H169 C188 0.951 . S
H170 C190 0.950 . S
H171 C191 0.950 . S
H172 C193 0.950 . S
H173 C196 0.950 . S
H174 C197 0.950 . S
H175 C199 0.950 . S
H176 C200 0.950 . S
H177 C201 0.951 . S
H178 C203 0.951 . S
H179 C205 0.950 . S
H180 C206 0.950 . S
H181 C208 0.950 . S
H182 C211 0.950 . S
H183 C212 0.950 . S
H184 C214 0.950 . S
H185 C215 0.950 . S
C186 H168 0.951 . S
C186 C187 1.366 . S
C186 C188 1.388 . S
C187 C186 1.366 . S
C187 C191 1.385 . S
C188 H169 0.951 . S
C188 C186 1.388 . S
C188 C189 1.366 . S
C189 C188 1.366 . S
C189 C190 1.414 . S
C189 C192 1.499 . S
C190 H170 0.950 . S
C190 C189 1.414 . S
C190 C191 1.374 . S
C191 H171 0.950 . S
C191 C187 1.385 . S
C191 C190 1.374 . S
C192 C189 1.499 . S
C192 C193 1.373 . S
C192 C194 1.389 . S
C193 H172 0.950 . S
C193 C192 1.373 . S
C193 C209 1.377 . S
C194 C192 1.389 . S
C194 C195 1.524 . S
C194 C208 1.377 . S
C195 C194 1.524 . S
C195 C196 1.397 . S
C195 C200 1.363 . S
C196 H173 0.950 . S
C196 C195 1.397 . S
C196 C197 1.334 . S
C197 H174 0.950 . S
C197 C196 1.334 . S
C197 C198 1.287 . S
C198 C197 1.287 . S
C198 C199 1.524 . S
C198 H217 0.913 . S
C199 H175 0.950 . S
C199 C198 1.524 . S
C199 C200 1.415 . S
C200 H176 0.950 . S
C200 C195 1.363 . S
C200 C199 1.415 . S
C201 H177 0.951 . S
C201 C202 1.366 . S
C201 C203 1.388 . S
C202 C201 1.366 . S
C202 C206 1.385 . S
C203 H178 0.951 . S
C203 C201 1.388 . S
C203 C204 1.366 . S
C204 C203 1.366 . S
C204 C205 1.414 . S
C204 C207 1.499 . S
C205 H179 0.950 . S
C205 C204 1.414 . S
C205 C206 1.374 . S
C206 H180 0.950 . S
C206 C202 1.385 . S
C206 C205 1.374 . S
C207 C204 1.499 . S
C207 C208 1.373 . S
C207 C209 1.389 . S
C208 H181 0.950 . S
C208 C194 1.377 . S
C208 C207 1.373 . S
C209 C193 1.377 . S
C209 C207 1.389 . S
C209 C210 1.524 . S
C210 C209 1.524 . S
C210 C211 1.397 . S
C210 C215 1.363 . S
C211 H182 0.950 . S
C211 C210 1.397 . S
C211 C212 1.334 . S
C212 H183 0.950 . S
C212 C211 1.334 . S
C212 C213 1.287 . S
C213 C212 1.287 . S
C213 C214 1.524 . S
C213 H216 0.999 . S
C214 H184 0.950 . S
C214 C213 1.524 . S
C214 C215 1.415 . S
C215 H185 0.950 . S
C215 C210 1.363 . S
C215 C214 1.415 . S
H216 C213 0.999 . S
H217 C198 0.913 . S
H218 C236 0.951 . S
H219 C238 0.951 . S
H220 C240 0.950 . S
H221 C241 0.950 . S
H222 C243 0.950 . S
H223 C246 0.950 . S
H224 C247 0.950 . S
H225 C249 0.950 . S
H226 C250 0.950 . S
H227 C251 0.951 . S
H228 C253 0.951 . S
H229 C255 0.950 . S
H230 C256 0.950 . S
H231 C258 0.950 . S
H232 C261 0.950 . S
H233 C262 0.950 . S
H234 C264 0.950 . S
H235 C265 0.950 . S
C236 H218 0.951 . S
C236 C237 1.366 . S
C236 C238 1.388 . S
C237 C236 1.366 . S
C237 C241 1.385 . S
C238 H219 0.951 . S
C238 C236 1.388 . S
C238 C239 1.366 . S
C239 C238 1.366 . S
C239 C240 1.414 . S
C239 C242 1.499 . S
C240 H220 0.950 . S
C240 C239 1.414 . S
C240 C241 1.374 . S
C241 H221 0.950 . S
C241 C237 1.385 . S
C241 C240 1.374 . S
C242 C239 1.499 . S
C242 C243 1.373 . S
C242 C244 1.389 . S
C243 H222 0.950 . S
C243 C242 1.373 . S
C243 C259 1.377 1_655 S
C244 C242 1.389 . S
C244 C245 1.524 . S
C244 C258 1.377 1_655 S
C245 C244 1.524 . S
C245 C246 1.397 . S
C245 C250 1.363 . S
C246 H223 0.950 . S
C246 C245 1.397 . S
C246 C247 1.334 . S
C247 H224 0.950 . S
C247 C246 1.334 . S
C247 C248 1.287 . S
C248 C247 1.287 . S
C248 C249 1.524 . S
C248 H267 0.913 . S
C249 H225 0.950 . S
C249 C248 1.524 . S
C249 C250 1.415 . S
C250 H226 0.950 . S
C250 C245 1.363 . S
C250 C249 1.415 . S
C251 H227 0.951 . S
C251 C252 1.366 . S
C251 C253 1.388 . S
C252 C251 1.366 . S
C252 C256 1.385 . S
C253 H228 0.951 . S
C253 C251 1.388 . S
C253 C254 1.366 . S
C254 C253 1.366 . S
C254 C255 1.414 . S
C254 C257 1.499 . S
C255 H229 0.950 . S
C255 C254 1.414 . S
C255 C256 1.374 . S
C256 H230 0.950 . S
C256 C252 1.385 . S
C256 C255 1.374 . S
C257 C254 1.499 . S
C257 C258 1.373 . S
C257 C259 1.389 . S
C258 H231 0.950 . S
C258 C244 1.377 1_455 S
C258 C257 1.373 . S
C259 C243 1.377 1_455 S
C259 C257 1.389 . S
C259 C260 1.524 . S
C260 C259 1.524 . S
C260 C261 1.397 . S
C260 C265 1.363 . S
C261 H232 0.950 . S
C261 C260 1.397 . S
C261 C262 1.334 . S
C262 H233 0.950 . S
C262 C261 1.334 . S
C262 C263 1.287 . S
C263 C262 1.287 . S
C263 C264 1.524 . S
C263 H266 0.999 . S
C264 H234 0.950 . S
C264 C263 1.524 . S
C264 C265 1.415 . S
C265 H235 0.950 . S
C265 C260 1.363 . S
C265 C264 1.415 . S
H266 C263 0.999 . S
H267 C248 0.913 . S
H268 C286 0.951 . S
H269 C288 0.951 . S
H270 C290 0.950 . S
H271 C291 0.950 . S
H272 C293 0.950 . S
H273 C296 0.950 . S
H274 C297 0.950 . S
H275 C299 0.950 . S
H276 C300 0.950 1_545 S
H277 C301 0.951 . S
H278 C303 0.951 . S
H279 C305 0.950 . S
H280 C306 0.950 . S
H281 C308 0.950 . S
H282 C311 0.950 . S
H283 C312 0.950 . S
H284 C314 0.950 . S
H285 C315 0.950 1_565 S
C286 H268 0.951 . S
C286 C287 1.366 . S
C286 C288 1.388 . S
C287 C286 1.366 . S
C287 C291 1.385 1_556 S
C288 H269 0.951 . S
C288 C286 1.388 . S
C288 C289 1.366 . S
C289 C288 1.366 . S
C289 C290 1.414 1_556 S
C289 C292 1.499 . S
C290 H270 0.950 . S
C290 C289 1.414 1_554 S
C290 C291 1.374 . S
C291 H271 0.950 . S
C291 C287 1.385 1_554 S
C291 C290 1.374 . S
C292 C289 1.499 . S
C292 C293 1.373 1_556 S
C292 C294 1.389 . S
C293 H272 0.950 . S
C293 C292 1.373 1_554 S
C293 C309 1.377 1_565 S
C294 C292 1.389 . S
C294 C295 1.524 . S
C294 C308 1.377 1_565 S
C295 C294 1.524 . S
C295 C296 1.397 . S
C295 C300 1.363 . S
C296 H273 0.950 . S
C296 C295 1.397 . S
C296 C297 1.334 . S
C297 H274 0.950 . S
C297 C296 1.334 . S
C297 C298 1.287 . S
C298 C297 1.287 . S
C298 C299 1.524 . S
C298 H317 0.913 . S
C299 H275 0.950 . S
C299 C298 1.524 . S
C299 C300 1.415 . S
C300 H276 0.950 1_565 S
C300 C295 1.363 . S
C300 C299 1.415 . S
C301 H277 0.951 . S
C301 C302 1.366 . S
C301 C303 1.388 . S
C302 C301 1.366 . S
C302 C306 1.385 1_554 S
C303 H278 0.951 . S
C303 C301 1.388 . S
C303 C304 1.366 . S
C304 C303 1.366 . S
C304 C305 1.414 1_554 S
C304 C307 1.499 . S
C305 H279 0.950 . S
C305 C304 1.414 1_556 S
C305 C306 1.374 . S
C306 H280 0.950 . S
C306 C302 1.385 1_556 S
C306 C305 1.374 . S
C307 C304 1.499 . S
C307 C308 1.373 1_554 S
C307 C309 1.389 . S
C308 H281 0.950 . S
C308 C294 1.377 1_545 S
C308 C307 1.373 1_556 S
C309 C293 1.377 1_545 S
C309 C307 1.389 . S
C309 C310 1.524 . S
C310 C309 1.524 . S
C310 C311 1.397 . S
C310 C315 1.363 . S
C311 H282 0.950 . S
C311 C310 1.397 . S
C311 C312 1.334 . S
C312 H283 0.950 . S
C312 C311 1.334 . S
C312 C313 1.287 . S
C313 C312 1.287 . S
C313 C314 1.524 . S
C313 H316 0.999 . S
C314 H284 0.950 . S
C314 C313 1.524 . S
C314 C315 1.415 . S
C315 H285 0.950 1_545 S
C315 C310 1.363 . S
C315 C314 1.415 . S
H316 C313 0.999 . S
H317 C298 0.913 . S
H318 C336 0.951 . S
H319 C338 0.951 . S
H320 C340 0.950 . S
H321 C341 0.950 . S
H322 C343 0.950 . S
H323 C346 0.950 . S
H324 C347 0.950 . S
H325 C349 0.950 . S
H326 C350 0.950 . S
H327 C351 0.951 . S
H328 C353 0.951 . S
H329 C355 0.950 . S
H330 C356 0.950 . S
H331 C358 0.950 . S
H332 C361 0.950 . S
H333 C362 0.950 . S
H334 C364 0.950 . S
H335 C365 0.950 . S
C336 H318 0.951 . S
C336 C337 1.366 . S
C336 C338 1.388 . S
C337 C336 1.366 . S
C337 C341 1.385 . S
C338 H319 0.951 . S
C338 C336 1.388 . S
C338 C339 1.366 . S
C339 C338 1.366 . S
C339 C340 1.414 . S
C339 C342 1.499 . S
C340 H320 0.950 . S
C340 C339 1.414 . S
C340 C341 1.374 . S
C341 H321 0.950 . S
C341 C337 1.385 . S
C341 C340 1.374 . S
C342 C339 1.499 . S
C342 C343 1.373 . S
C342 C344 1.389 . S
C343 H322 0.950 . S
C343 C342 1.373 . S
C343 C359 1.377 . S
C344 C342 1.389 . S
C344 C345 1.524 . S
C344 C358 1.377 . S
C345 C344 1.524 . S
C345 C346 1.397 . S
C345 C350 1.363 . S
C346 H323 0.950 . S
C346 C345 1.397 . S
C346 C347 1.334 . S
C347 H324 0.950 . S
C347 C346 1.334 . S
C347 C348 1.287 . S
C348 C347 1.287 . S
C348 C349 1.524 . S
C348 H367 0.913 . S
C349 H325 0.950 . S
C349 C348 1.524 . S
C349 C350 1.415 . S
C350 H326 0.950 . S
C350 C345 1.363 . S
C350 C349 1.415 . S
C351 H327 0.951 . S
C351 C352 1.366 . S
C351 C353 1.388 . S
C352 C351 1.366 . S
C352 C356 1.385 . S
C353 H328 0.951 . S
C353 C351 1.388 . S
C353 C354 1.366 . S
C354 C353 1.366 . S
C354 C355 1.414 . S
C354 C357 1.499 . S
C355 H329 0.950 . S
C355 C354 1.414 . S
C355 C356 1.374 . S
C356 H330 0.950 . S
C356 C352 1.385 . S
C356 C355 1.374 . S
C357 C354 1.499 . S
C357 C358 1.373 . S
C357 C359 1.389 . S
C358 H331 0.950 . S
C358 C344 1.377 . S
C358 C357 1.373 . S
C359 C343 1.377 . S
C359 C357 1.389 . S
C359 C360 1.524 . S
C360 C359 1.524 . S
C360 C361 1.397 . S
C360 C365 1.363 . S
C361 H332 0.950 . S
C361 C360 1.397 . S
C361 C362 1.334 . S
C362 H333 0.950 . S
C362 C361 1.334 . S
C362 C363 1.287 . S
C363 C362 1.287 . S
C363 C364 1.524 . S
C363 H366 0.999 . S
C364 H334 0.950 . S
C364 C363 1.524 . S
C364 C365 1.415 . S
C365 H335 0.950 . S
C365 C360 1.363 . S
C365 C364 1.415 . S
H366 C363 0.999 . S
H367 C348 0.913 . S
H368 C386 0.951 . S
H369 C388 0.951 . S
H370 C390 0.950 . S
H371 C391 0.950 . S
H372 C393 0.950 . S
H373 C396 0.950 . S
H374 C397 0.950 . S
H375 C399 0.950 . S
H376 C400 0.950 1_455 S
H377 C401 0.951 . S
H378 C403 0.951 . S
H379 C405 0.950 . S
H380 C406 0.950 . S
H381 C408 0.950 . S
H382 C411 0.950 . S
H383 C412 0.950 . S
H384 C414 0.950 . S
H385 C415 0.950 1_655 S
C386 H368 0.951 . S
C386 C387 1.366 . S
C386 C388 1.388 . S
C387 C386 1.366 . S
C387 C391 1.385 . S
C388 H369 0.951 . S
C388 C386 1.388 . S
C388 C389 1.366 . S
C389 C388 1.366 . S
C389 C390 1.414 . S
C389 C392 1.499 . S
C390 H370 0.950 . S
C390 C389 1.414 . S
C390 C391 1.374 . S
C391 H371 0.950 . S
C391 C387 1.385 . S
C391 C390 1.374 . S
C392 C389 1.499 . S
C392 C393 1.373 . S
C392 C394 1.389 . S
C393 H372 0.950 . S
C393 C392 1.373 . S
C393 C409 1.377 1_655 S
C394 C392 1.389 . S
C394 C395 1.524 . S
C394 C408 1.377 1_655 S
C395 C394 1.524 . S
C395 C396 1.397 . S
C395 C400 1.363 . S
C396 H373 0.950 . S
C396 C395 1.397 . S
C396 C397 1.334 . S
C397 H374 0.950 . S
C397 C396 1.334 . S
C397 C398 1.287 . S
C398 C397 1.287 . S
C398 C399 1.524 . S
C398 H417 0.913 . S
C399 H375 0.950 . S
C399 C398 1.524 . S
C399 C400 1.415 . S
C400 H376 0.950 1_655 S
C400 C395 1.363 . S
C400 C399 1.415 . S
C401 H377 0.951 . S
C401 C402 1.366 . S
C401 C403 1.388 . S
C402 C401 1.366 . S
C402 C406 1.385 . S
C403 H378 0.951 . S
C403 C401 1.388 . S
C403 C404 1.366 . S
C404 C403 1.366 . S
C404 C405 1.414 . S
C404 C407 1.499 . S
C405 H379 0.950 . S
C405 C404 1.414 . S
C405 C406 1.374 . S
C406 H380 0.950 . S
C406 C402 1.385 . S
C406 C405 1.374 . S
C407 C404 1.499 . S
C407 C408 1.373 . S
C407 C409 1.389 . S
C408 H381 0.950 . S
C408 C394 1.377 1_455 S
C408 C407 1.373 . S
C409 C393 1.377 1_455 S
C409 C407 1.389 . S
C409 C410 1.524 . S
C410 C409 1.524 . S
C410 C411 1.397 . S
C410 C415 1.363 . S
C411 H382 0.950 . S
C411 C410 1.397 . S
C411 C412 1.334 . S
C412 H383 0.950 . S
C412 C411 1.334 . S
C412 C413 1.287 . S
C413 C412 1.287 . S
C413 C414 1.524 . S
C413 H416 0.999 . S
C414 H384 0.950 . S
C414 C413 1.524 . S
C414 C415 1.415 . S
C415 H385 0.950 1_455 S
C415 C410 1.363 . S
C415 C414 1.415 . S
H416 C413 0.999 . S
H417 C398 0.913 . S
H418 C436 0.951 . S
H419 C438 0.951 . S
H420 C440 0.950 . S
H421 C441 0.950 . S
H422 C443 0.950 . S
H423 C446 0.950 . S
H424 C447 0.950 . S
H425 C449 0.950 . S
H426 C450 0.950 . S
H427 C451 0.951 . S
H428 C453 0.951 . S
H429 C455 0.950 . S
H430 C456 0.950 . S
H431 C458 0.950 . S
H432 C461 0.950 . S
H433 C462 0.950 . S
H434 C464 0.950 . S
H435 C465 0.950 . S
C436 H418 0.951 . S
C436 C437 1.366 . S
C436 C438 1.388 . S
C437 C436 1.366 . S
C437 C441 1.385 . S
C438 H419 0.951 . S
C438 C436 1.388 . S
C438 C439 1.366 . S
C439 C438 1.366 . S
C439 C440 1.414 . S
C439 C442 1.499 . S
C440 H420 0.950 . S
C440 C439 1.414 . S
C440 C441 1.374 . S
C441 H421 0.950 . S
C441 C437 1.385 . S
C441 C440 1.374 . S
C442 C439 1.499 . S
C442 C443 1.373 1_554 S
C442 C444 1.389 . S
C443 H422 0.950 . S
C443 C442 1.373 1_556 S
C443 C459 1.377 1_565 S
C444 C442 1.389 . S
C444 C445 1.524 . S
C444 C458 1.377 1_565 S
C445 C444 1.524 . S
C445 C446 1.397 . S
C445 C450 1.363 . S
C446 H423 0.950 . S
C446 C445 1.397 . S
C446 C447 1.334 . S
C447 H424 0.950 . S
C447 C446 1.334 . S
C447 C448 1.287 . S
C448 C447 1.287 . S
C448 C449 1.524 . S
C448 H467 0.913 . S
C449 H425 0.950 . S
C449 C448 1.524 . S
C449 C450 1.415 . S
C450 H426 0.950 . S
C450 C445 1.363 . S
C450 C449 1.415 . S
C451 H427 0.951 . S
C451 C452 1.366 . S
C451 C453 1.388 . S
C452 C451 1.366 . S
C452 C456 1.385 . S
C453 H428 0.951 . S
C453 C451 1.388 . S
C453 C454 1.366 . S
C454 C453 1.366 . S
C454 C455 1.414 . S
C454 C457 1.499 . S
C455 H429 0.950 . S
C455 C454 1.414 . S
C455 C456 1.374 . S
C456 H430 0.950 . S
C456 C452 1.385 . S
C456 C455 1.374 . S
C457 C454 1.499 . S
C457 C458 1.373 1_556 S
C457 C459 1.389 . S
C458 H431 0.950 . S
C458 C444 1.377 1_545 S
C458 C457 1.373 1_554 S
C459 C443 1.377 1_545 S
C459 C457 1.389 . S
C459 C460 1.524 . S
C460 C459 1.524 . S
C460 C461 1.397 . S
C460 C465 1.363 . S
C461 H432 0.950 . S
C461 C460 1.397 . S
C461 C462 1.334 . S
C462 H433 0.950 . S
C462 C461 1.334 . S
C462 C463 1.287 . S
C463 C462 1.287 . S
C463 C464 1.524 . S
C463 H466 0.999 . S
C464 H434 0.950 . S
C464 C463 1.524 . S
C464 C465 1.415 . S
C465 H435 0.950 . S
C465 C460 1.363 . S
C465 C464 1.415 . S
H466 C463 0.999 . S
H467 C448 0.913 . S
H468 C486 0.951 . S
H469 C488 0.951 . S
H470 C490 0.950 . S
H471 C491 0.950 . S
H472 C493 0.950 . S
H473 C496 0.950 . S
H474 C497 0.950 . S
H475 C499 0.950 . S
H476 C500 0.950 . S
H477 C501 0.951 . S
H478 C503 0.951 . S
H479 C505 0.950 . S
H480 C506 0.950 . S
H481 C508 0.950 . S
H482 C511 0.950 . S
H483 C512 0.950 . S
H484 C514 0.950 . S
H485 C515 0.950 . S
C486 H468 0.951 . S
C486 C487 1.366 . S
C486 C488 1.388 . S
C487 C486 1.366 . S
C487 C491 1.385 . S
C488 H469 0.951 . S
C488 C486 1.388 . S
C488 C489 1.366 . S
C489 C488 1.366 . S
C489 C490 1.414 . S
C489 C492 1.499 . S
C490 H470 0.950 . S
C490 C489 1.414 . S
C490 C491 1.374 . S
C491 H471 0.950 . S
C491 C487 1.385 . S
C491 C490 1.374 . S
C492 C489 1.499 . S
C492 C493 1.373 . S
C492 C494 1.389 . S
C493 H472 0.950 . S
C493 C492 1.373 . S
C493 C509 1.377 1_556 S
C494 C492 1.389 . S
C494 C495 1.524 . S
C494 C508 1.377 1_556 S
C495 C494 1.524 . S
C495 C496 1.397 . S
C495 C500 1.363 . S
C496 H473 0.950 . S
C496 C495 1.397 . S
C496 C497 1.334 . S
C497 H474 0.950 . S
C497 C496 1.334 . S
C497 C498 1.287 . S
C498 C497 1.287 . S
C498 C499 1.524 . S
C498 H517 0.913 . S
C499 H475 0.950 . S
C499 C498 1.524 . S
C499 C500 1.415 . S
C500 H476 0.950 . S
C500 C495 1.363 . S
C500 C499 1.415 . S
C501 H477 0.951 . S
C501 C502 1.366 . S
C501 C503 1.388 . S
C502 C501 1.366 . S
C502 C506 1.385 . S
C503 H478 0.951 . S
C503 C501 1.388 . S
C503 C504 1.366 . S
C504 C503 1.366 . S
C504 C505 1.414 . S
C504 C507 1.499 . S
C505 H479 0.950 . S
C505 C504 1.414 . S
C505 C506 1.374 . S
C506 H480 0.950 . S
C506 C502 1.385 . S
C506 C505 1.374 . S
C507 C504 1.499 . S
C507 C508 1.373 . S
C507 C509 1.389 . S
C508 H481 0.950 . S
C508 C494 1.377 1_554 S
C508 C507 1.373 . S
C509 C493 1.377 1_554 S
C509 C507 1.389 . S
C509 C510 1.524 . S
C510 C509 1.524 . S
C510 C511 1.397 . S
C510 C515 1.363 . S
C511 H482 0.950 . S
C511 C510 1.397 . S
C511 C512 1.334 . S
C512 H483 0.950 . S
C512 C511 1.334 . S
C512 C513 1.287 . S
C513 C512 1.287 . S
C513 C514 1.524 . S
C513 H516 0.999 . S
C514 H484 0.950 . S
C514 C513 1.524 . S
C514 C515 1.415 . S
C515 H485 0.950 . S
C515 C510 1.363 . S
C515 C514 1.415 . S
H516 C513 0.999 . S
H517 C498 0.913 . S
H518 C536 0.951 . S
H519 C538 0.951 . S
H520 C540 0.950 . S
H521 C541 0.950 . S
H522 C543 0.950 . S
H523 C546 0.950 . S
H524 C547 0.950 . S
H525 C549 0.950 . S
H526 C550 0.950 . S
H527 C551 0.951 . S
H528 C553 0.951 . S
H529 C555 0.950 . S
H530 C556 0.950 . S
H531 C558 0.950 . S
H532 C561 0.950 . S
H533 C562 0.950 . S
H534 C564 0.950 . S
H535 C565 0.950 . S
C536 H518 0.951 . S
C536 C537 1.366 . S
C536 C538 1.388 . S
C537 C536 1.366 . S
C537 C541 1.385 . S
C538 H519 0.951 . S
C538 C536 1.388 . S
C538 C539 1.366 . S
C539 C538 1.366 . S
C539 C540 1.414 . S
C539 C542 1.499 . S
C540 H520 0.950 . S
C540 C539 1.414 . S
C540 C541 1.374 . S
C541 H521 0.950 . S
C541 C537 1.385 . S
C541 C540 1.374 . S
C542 C539 1.499 . S
C542 C543 1.373 . S
C542 C544 1.389 . S
C543 H522 0.950 . S
C543 C542 1.373 . S
C543 C559 1.377 . S
C544 C542 1.389 . S
C544 C545 1.524 . S
C544 C558 1.377 . S
C545 C544 1.524 . S
C545 C546 1.397 . S
C545 C550 1.363 . S
C546 H523 0.950 . S
C546 C545 1.397 . S
C546 C547 1.334 . S
C547 H524 0.950 . S
C547 C546 1.334 . S
C547 C548 1.287 . S
C548 C547 1.287 . S
C548 C549 1.524 . S
C548 H567 0.913 . S
C549 H525 0.950 . S
C549 C548 1.524 . S
C549 C550 1.415 . S
C550 H526 0.950 . S
C550 C545 1.363 . S
C550 C549 1.415 . S
C551 H527 0.951 . S
C551 C552 1.366 . S
C551 C553 1.388 . S
C552 C551 1.366 . S
C552 C556 1.385 . S
C553 H528 0.951 . S
C553 C551 1.388 . S
C553 C554 1.366 . S
C554 C553 1.366 . S
C554 C555 1.414 . S
C554 C557 1.499 . S
C555 H529 0.950 . S
C555 C554 1.414 . S
C555 C556 1.374 . S
C556 H530 0.950 . S
C556 C552 1.385 . S
C556 C555 1.374 . S
C557 C554 1.499 . S
C557 C558 1.373 . S
C557 C559 1.389 . S
C558 H531 0.950 . S
C558 C544 1.377 . S
C558 C557 1.373 . S
C559 C543 1.377 . S
C559 C557 1.389 . S
C559 C560 1.524 . S
C560 C559 1.524 . S
C560 C561 1.397 . S
C560 C565 1.363 . S
C561 H532 0.950 . S
C561 C560 1.397 . S
C561 C562 1.334 . S
C562 H533 0.950 . S
C562 C561 1.334 . S
C562 C563 1.287 . S
C563 C562 1.287 . S
C563 C564 1.524 . S
C563 H566 0.999 . S
C564 H534 0.950 . S
C564 C563 1.524 . S
C564 C565 1.415 . S
C565 H535 0.950 . S
C565 C560 1.363 . S
C565 C564 1.415 . S
H566 C563 0.999 . S
H567 C548 0.913 . S
H568 C586 0.951 . S
H569 C588 0.951 . S
H570 C590 0.950 . S
H571 C591 0.950 . S
H572 C593 0.950 . S
H573 C596 0.950 . S
H574 C597 0.950 . S
H575 C599 0.950 . S
H576 C600 0.950 . S
H577 C601 0.951 . S
H578 C603 0.951 . S
H579 C605 0.950 . S
H580 C606 0.950 . S
H581 C608 0.950 . S
H582 C611 0.950 . S
H583 C612 0.950 . S
H584 C614 0.950 . S
H585 C615 0.950 . S
C586 H568 0.951 . S
C586 C587 1.366 . S
C586 C588 1.388 . S
C587 C586 1.366 . S
C587 C591 1.385 . S
C588 H569 0.951 . S
C588 C586 1.388 . S
C588 C589 1.366 . S
C589 C588 1.366 . S
C589 C590 1.414 . S
C589 C592 1.499 . S
C590 H570 0.950 . S
C590 C589 1.414 . S
C590 C591 1.374 . S
C591 H571 0.950 . S
C591 C587 1.385 . S
C591 C590 1.374 . S
C592 C589 1.499 . S
C592 C593 1.373 . S
C592 C594 1.389 . S
C593 H572 0.950 . S
C593 C592 1.373 . S
C593 C609 1.377 . S
C594 C592 1.389 . S
C594 C595 1.524 . S
C594 C608 1.377 . S
C595 C594 1.524 . S
C595 C596 1.397 . S
C595 C600 1.363 . S
C596 H573 0.950 . S
C596 C595 1.397 . S
C596 C597 1.334 . S
C597 H574 0.950 . S
C597 C596 1.334 . S
C597 C598 1.287 . S
C598 C597 1.287 . S
C598 C599 1.524 . S
C598 H617 0.913 . S
C599 H575 0.950 . S
C599 C598 1.524 . S
C599 C600 1.415 . S
C600 H576 0.950 . S
C600 C595 1.363 . S
C600 C599 1.415 . S
C601 H577 0.951 . S
C601 C602 1.366 . S
C601 C603 1.388 . S
C602 C601 1.366 . S
C602 C606 1.385 . S
C603 H578 0.951 . S
C603 C601 1.388 . S
C603 C604 1.366 . S
C604 C603 1.366 . S
C604 C605 1.414 . S
C604 C607 1.499 . S
C605 H579 0.950 . S
C605 C604 1.414 . S
C605 C606 1.374 . S
C606 H580 0.950 . S
C606 C602 1.385 . S
C606 C605 1.374 . S
C607 C604 1.499 . S
C607 C608 1.373 . S
C607 C609 1.389 . S
C608 H581 0.950 . S
C608 C594 1.377 . S
C608 C607 1.373 . S
C609 C593 1.377 . S
C609 C607 1.389 . S
C609 C610 1.524 . S
C610 C609 1.524 . S
C610 C611 1.397 . S
C610 C615 1.363 . S
C611 H582 0.950 . S
C611 C610 1.397 . S
C611 C612 1.334 . S
C612 H583 0.950 . S
C612 C611 1.334 . S
C612 C613 1.287 . S
C613 C612 1.287 . S
C613 C614 1.524 . S
C613 H616 0.999 . S
C614 H584 0.950 . S
C614 C613 1.524 . S
C614 C615 1.415 . S
C615 H585 0.950 . S
C615 C610 1.363 . S
C615 C614 1.415 . S
H616 C613 0.999 . S
H617 C598 0.913 . S
H618 C636 0.951 . S
H619 C638 0.951 . S
H620 C640 0.950 . S
H621 C641 0.950 . S
H622 C643 0.950 . S
H623 C646 0.950 . S
H624 C647 0.950 . S
H625 C649 0.950 . S
H626 C650 0.950 . S
H627 C651 0.951 . S
H628 C653 0.951 . S
H629 C655 0.950 . S
H630 C656 0.950 . S
H631 C658 0.950 . S
H632 C661 0.950 . S
H633 C662 0.950 . S
H634 C664 0.950 . S
H635 C665 0.950 . S
C636 H618 0.951 . S
C636 C637 1.366 . S
C636 C638 1.388 . S
C637 C636 1.366 . S
C637 C641 1.385 . S
C638 H619 0.951 . S
C638 C636 1.388 . S
C638 C639 1.366 . S
C639 C638 1.366 . S
C639 C640 1.414 . S
C639 C642 1.499 . S
C640 H620 0.950 . S
C640 C639 1.414 . S
C640 C641 1.374 . S
C641 H621 0.950 . S
C641 C637 1.385 . S
C641 C640 1.374 . S
C642 C639 1.499 . S
C642 C643 1.382 . S
C642 C644 1.389 . S
C643 H622 0.950 . S
C643 C642 1.382 . S
C643 C659 1.368 1_554 S
C644 C642 1.389 . S
C644 C645 1.524 . S
C644 C658 1.368 1_554 S
C645 C644 1.524 . S
C645 C646 1.397 . S
C645 C650 1.363 . S
C646 H623 0.950 . S
C646 C645 1.397 . S
C646 C647 1.334 . S
C647 H624 0.950 . S
C647 C646 1.334 . S
C647 C648 1.287 . S
C648 C647 1.287 . S
C648 C649 1.524 . S
C648 H667 0.913 . S
C649 H625 0.950 . S
C649 C648 1.524 . S
C649 C650 1.415 . S
C650 H626 0.950 . S
C650 C645 1.363 . S
C650 C649 1.415 . S
C651 H627 0.951 . S
C651 C652 1.366 . S
C651 C653 1.388 . S
C652 C651 1.366 . S
C652 C656 1.385 . S
C653 H628 0.951 . S
C653 C651 1.388 . S
C653 C654 1.366 . S
C654 C653 1.366 . S
C654 C655 1.414 . S
C654 C657 1.499 . S
C655 H629 0.950 . S
C655 C654 1.414 . S
C655 C656 1.374 . S
C656 H630 0.950 . S
C656 C652 1.385 . S
C656 C655 1.374 . S
C657 C654 1.499 . S
C657 C658 1.382 . S
C657 C659 1.389 . S
C658 H631 0.950 . S
C658 C644 1.368 1_556 S
C658 C657 1.382 . S
C659 C643 1.368 1_556 S
C659 C657 1.389 . S
C659 C660 1.524 . S
C660 C659 1.524 . S
C660 C661 1.397 . S
C660 C665 1.363 . S
C661 H632 0.950 . S
C661 C660 1.397 . S
C661 C662 1.334 . S
C662 H633 0.950 . S
C662 C661 1.334 . S
C662 C663 1.287 . S
C663 C662 1.287 . S
C663 C664 1.524 . S
C663 H666 0.999 . S
C664 H634 0.950 . S
C664 C663 1.524 . S
C664 C665 1.415 . S
C665 H635 0.950 . S
C665 C660 1.363 . S
C665 C664 1.415 . S
H666 C663 0.999 . S
H667 C648 0.913 . S
H668 C686 0.951 . S
H669 C688 0.951 . S
H670 C690 0.950 . S
H671 C691 0.950 . S
H672 C693 0.950 . S
H673 C696 0.950 . S
H674 C697 0.950 . S
H675 C699 0.950 . S
H676 C700 0.950 . S
H677 C701 0.951 . S
H678 C703 0.951 . S
H679 C705 0.950 . S
H680 C706 0.950 . S
H681 C708 0.950 . S
H682 C711 0.950 . S
H683 C712 0.950 . S
H684 C714 0.950 . S
H685 C715 0.950 . S
C686 H668 0.951 . S
C686 C687 1.366 . S
C686 C688 1.388 . S
C687 C686 1.366 . S
C687 C691 1.385 . S
C688 H669 0.951 . S
C688 C686 1.388 . S
C688 C689 1.366 . S
C689 C688 1.366 . S
C689 C690 1.414 . S
C689 C692 1.499 . S
C690 H670 0.950 . S
C690 C689 1.414 . S
C690 C691 1.374 . S
C691 H671 0.950 . S
C691 C687 1.385 . S
C691 C690 1.374 . S
C692 C689 1.499 . S
C692 C693 1.373 . S
C692 C694 1.389 . S
C693 H672 0.950 . S
C693 C692 1.373 . S
C693 C709 1.377 . S
C694 C692 1.389 . S
C694 C695 1.524 . S
C694 C708 1.377 . S
C695 C694 1.524 . S
C695 C696 1.397 . S
C695 C700 1.363 . S
C696 H673 0.950 . S
C696 C695 1.397 . S
C696 C697 1.334 . S
C697 H674 0.950 . S
C697 C696 1.334 . S
C697 C698 1.287 . S
C698 C697 1.287 . S
C698 C699 1.524 . S
C698 H717 0.913 . S
C699 H675 0.950 . S
C699 C698 1.524 . S
C699 C700 1.415 . S
C700 H676 0.950 . S
C700 C695 1.363 . S
C700 C699 1.415 . S
C701 H677 0.951 . S
C701 C702 1.366 . S
C701 C703 1.388 . S
C702 C701 1.366 . S
C702 C706 1.385 . S
C703 H678 0.951 . S
C703 C701 1.388 . S
C703 C704 1.366 . S
C704 C703 1.366 . S
C704 C705 1.414 . S
C704 C707 1.499 . S
C705 H679 0.950 . S
C705 C704 1.414 . S
C705 C706 1.374 . S
C706 H680 0.950 . S
C706 C702 1.385 . S
C706 C705 1.374 . S
C707 C704 1.499 . S
C707 C708 1.373 . S
C707 C709 1.389 . S
C708 H681 0.950 . S
C708 C694 1.377 . S
C708 C707 1.373 . S
C709 C693 1.377 . S
C709 C707 1.389 . S
C709 C710 1.524 . S
C710 C709 1.524 . S
C710 C711 1.397 . S
C710 C715 1.363 . S
C711 H682 0.950 . S
C711 C710 1.397 . S
C711 C712 1.334 . S
C712 H683 0.950 . S
C712 C711 1.334 . S
C712 C713 1.287 . S
C713 C712 1.287 . S
C713 C714 1.524 . S
C713 H716 0.999 . S
C714 H684 0.950 . S
C714 C713 1.524 . S
C714 C715 1.415 . S
C715 H685 0.950 . S
C715 C710 1.363 . S
C715 C714 1.415 . S
H716 C713 0.999 . S
H717 C698 0.913 . S
H718 C736 0.951 . S
H719 C738 0.951 . S
H720 C740 0.950 . S
H721 C741 0.950 . S
H722 C743 0.950 . S
H723 C746 0.950 . S
H724 C747 0.950 . S
H725 C749 0.950 . S
H726 C750 0.950 . S
H727 C751 0.951 . S
H728 C753 0.951 . S
H729 C755 0.950 . S
H730 C756 0.950 . S
H731 C758 0.950 . S
H732 C761 0.950 . S
H733 C762 0.950 . S
H734 C764 0.950 . S
H735 C765 0.950 . S
C736 H718 0.951 . S
C736 C737 1.366 . S
C736 C738 1.388 . S
C737 C736 1.366 . S
C737 C741 1.385 . S
C738 H719 0.951 . S
C738 C736 1.388 . S
C738 C739 1.366 . S
C739 C738 1.366 . S
C739 C740 1.414 . S
C739 C742 1.499 . S
C740 H720 0.950 . S
C740 C739 1.414 . S
C740 C741 1.374 . S
C741 H721 0.950 . S
C741 C737 1.385 . S
C741 C740 1.374 . S
C742 C739 1.499 . S
C742 C743 1.373 . S
C742 C744 1.389 . S
C743 H722 0.950 . S
C743 C742 1.373 . S
C743 C759 1.377 . S
C744 C742 1.389 . S
C744 C745 1.524 . S
C744 C758 1.377 . S
C745 C744 1.524 . S
C745 C746 1.397 . S
C745 C750 1.363 . S
C746 H723 0.950 . S
C746 C745 1.397 . S
C746 C747 1.334 . S
C747 H724 0.950 . S
C747 C746 1.334 . S
C747 C748 1.287 . S
C748 C747 1.287 . S
C748 C749 1.524 . S
C748 H767 0.913 . S
C749 H725 0.950 . S
C749 C748 1.524 . S
C749 C750 1.415 . S
C750 H726 0.950 . S
C750 C745 1.363 . S
C750 C749 1.415 . S
C751 H727 0.951 . S
C751 C752 1.366 . S
C751 C753 1.388 . S
C752 C751 1.366 . S
C752 C756 1.385 . S
C753 H728 0.951 . S
C753 C751 1.388 . S
C753 C754 1.366 . S
C754 C753 1.366 . S
C754 C755 1.414 . S
C754 C757 1.499 . S
C755 H729 0.950 . S
C755 C754 1.414 . S
C755 C756 1.374 . S
C756 H730 0.950 . S
C756 C752 1.385 . S
C756 C755 1.374 . S
C757 C754 1.499 . S
C757 C758 1.373 . S
C757 C759 1.389 . S
C758 H731 0.950 . S
C758 C744 1.377 . S
C758 C757 1.373 . S
C759 C743 1.377 . S
C759 C757 1.389 . S
C759 C760 1.524 . S
C760 C759 1.524 . S
C760 C761 1.397 . S
C760 C765 1.363 . S
C761 H732 0.950 . S
C761 C760 1.397 . S
C761 C762 1.334 . S
C762 H733 0.950 . S
C762 C761 1.334 . S
C762 C763 1.287 . S
C763 C762 1.287 . S
C763 C764 1.524 . S
C763 H766 0.999 . S
C764 H734 0.950 . S
C764 C763 1.524 . S
C764 C765 1.415 . S
C765 H735 0.950 . S
C765 C760 1.363 . S
C765 C764 1.415 . S
H766 C763 0.999 . S
H767 C748 0.913 . S
H768 C786 0.951 . S
H769 C788 0.951 . S
H770 C790 0.950 . S
H771 C791 0.950 . S
H772 C793 0.950 . S
H773 C796 0.950 . S
H774 C797 0.950 . S
H775 C799 0.950 . S
H776 C800 0.950 . S
H777 C801 0.951 . S
H778 C803 0.951 . S
H779 C805 0.950 . S
H780 C806 0.950 . S
H781 C808 0.950 . S
H782 C811 0.950 . S
H783 C812 0.950 . S
H784 C814 0.950 . S
H785 C815 0.950 . S
C786 H768 0.951 . S
C786 C787 1.366 . S
C786 C788 1.388 . S
C787 C786 1.366 . S
C787 C791 1.385 . S
C788 H769 0.951 . S
C788 C786 1.388 . S
C788 C789 1.366 . S
C789 C788 1.366 . S
C789 C790 1.414 . S
C789 C792 1.499 . S
C790 H770 0.950 . S
C790 C789 1.414 . S
C790 C791 1.374 . S
C791 H771 0.950 . S
C791 C787 1.385 . S
C791 C790 1.374 . S
C792 C789 1.499 . S
C792 C793 1.373 . S
C792 C794 1.389 . S
C793 H772 0.950 . S
C793 C792 1.373 . S
C793 C809 1.377 . S
C794 C792 1.389 . S
C794 C795 1.524 . S
C794 C808 1.377 . S
C795 C794 1.524 . S
C795 C796 1.397 . S
C795 C800 1.363 . S
C796 H773 0.950 . S
C796 C795 1.397 . S
C796 C797 1.334 . S
C797 H774 0.950 . S
C797 C796 1.334 . S
C797 C798 1.287 . S
C798 C797 1.287 . S
C798 C799 1.524 . S
C798 H817 0.913 . S
C799 H775 0.950 . S
C799 C798 1.524 . S
C799 C800 1.415 . S
C800 H776 0.950 . S
C800 C795 1.363 . S
C800 C799 1.415 . S
C801 H777 0.951 . S
C801 C802 1.366 . S
C801 C803 1.388 . S
C802 C801 1.366 . S
C802 C806 1.385 . S
C803 H778 0.951 . S
C803 C801 1.388 . S
C803 C804 1.366 . S
C804 C803 1.366 . S
C804 C805 1.414 . S
C804 C807 1.499 . S
C805 H779 0.950 . S
C805 C804 1.414 . S
C805 C806 1.374 . S
C806 H780 0.950 . S
C806 C802 1.385 . S
C806 C805 1.374 . S
C807 C804 1.499 . S
C807 C808 1.373 . S
C807 C809 1.389 . S
C808 H781 0.950 . S
C808 C794 1.377 . S
C808 C807 1.373 . S
C809 C793 1.377 . S
C809 C807 1.389 . S
C809 C810 1.524 . S
C810 C809 1.524 . S
C810 C811 1.397 . S
C810 C815 1.363 . S
C811 H782 0.950 . S
C811 C810 1.397 . S
C811 C812 1.334 . S
C812 H783 0.950 . S
C812 C811 1.334 . S
C812 C813 1.287 . S
C813 C812 1.287 . S
C813 C814 1.524 . S
C813 H816 0.999 . S
C814 H784 0.950 . S
C814 C813 1.524 . S
C814 C815 1.415 . S
C815 H785 0.950 . S
C815 C810 1.363 . S
C815 C814 1.415 . S
H816 C813 0.999 . S
H817 C798 0.913 . S
H818 C836 0.951 . S
H819 C838 0.951 . S
H820 C840 0.950 . S
H821 C841 0.950 . S
H822 C843 0.950 . S
H823 C846 0.950 . S
H824 C847 0.950 . S
H825 C849 0.950 . S
H826 C850 0.950 . S
H827 C851 0.951 . S
H828 C853 0.951 . S
H829 C855 0.950 . S
H830 C856 0.950 1_554 S
H831 C858 0.950 . S
H832 C861 0.950 . S
H833 C862 0.950 . S
H834 C864 0.950 . S
H835 C865 0.950 . S
C836 H818 0.951 . S
C836 C837 1.366 . S
C836 C838 1.388 . S
C837 C836 1.366 . S
C837 C841 1.385 . S
C838 H819 0.951 . S
C838 C836 1.388 . S
C838 C839 1.366 . S
C839 C838 1.366 . S
C839 C840 1.414 . S
C839 C842 1.499 . S
C840 H820 0.950 . S
C840 C839 1.414 . S
C840 C841 1.374 . S
C841 H821 0.950 . S
C841 C837 1.385 . S
C841 C840 1.374 . S
C842 C839 1.499 . S
C842 C843 1.373 . S
C842 C844 1.389 . S
C843 H822 0.950 . S
C843 C842 1.373 . S
C843 C859 1.377 . S
C844 C842 1.389 . S
C844 C845 1.524 . S
C844 C858 1.377 . S
C845 C844 1.524 . S
C845 C846 1.397 . S
C845 C850 1.363 . S
C846 H823 0.950 . S
C846 C845 1.397 . S
C846 C847 1.334 . S
C847 H824 0.950 . S
C847 C846 1.334 . S
C847 C848 1.287 . S
C848 C847 1.287 . S
C848 C849 1.524 . S
C848 H867 0.913 . S
C849 H825 0.950 . S
C849 C848 1.524 . S
C849 C850 1.415 . S
C850 H826 0.950 . S
C850 C845 1.363 . S
C850 C849 1.415 . S
C851 H827 0.951 . S
C851 C852 1.366 . S
C851 C853 1.388 . S
C852 C851 1.366 . S
C852 C856 1.385 . S
C853 H828 0.951 . S
C853 C851 1.388 . S
C853 C854 1.366 . S
C854 C853 1.366 . S
C854 C855 1.414 . S
C854 C857 1.499 . S
C855 H829 0.950 . S
C855 C854 1.414 . S
C855 C856 1.374 . S
C856 H830 0.950 1_556 S
C856 C852 1.385 . S
C856 C855 1.374 . S
C857 C854 1.499 . S
C857 C858 1.373 . S
C857 C859 1.389 . S
C858 H831 0.950 . S
C858 C844 1.377 . S
C858 C857 1.373 . S
C859 C843 1.377 . S
C859 C857 1.389 . S
C859 C860 1.524 . S
C860 C859 1.524 . S
C860 C861 1.397 . S
C860 C865 1.363 . S
C861 H832 0.950 . S
C861 C860 1.397 . S
C861 C862 1.334 . S
C862 H833 0.950 . S
C862 C861 1.334 . S
C862 C863 1.287 . S
C863 C862 1.287 . S
C863 C864 1.524 . S
C863 H866 0.999 . S
C864 H834 0.950 . S
C864 C863 1.524 . S
C864 C865 1.415 . S
C865 H835 0.950 . S
C865 C860 1.363 . S
C865 C864 1.415 . S
H866 C863 0.999 . S
H867 C848 0.913 . S
H868 C886 0.951 . S
H869 C888 0.951 . S
H870 C890 0.950 . S
H871 C891 0.950 1_556 S
H872 C893 0.950 . S
H873 C896 0.950 . S
H874 C897 0.950 . S
H875 C899 0.950 . S
H876 C900 0.950 . S
H877 C901 0.951 . S
H878 C903 0.951 . S
H879 C905 0.950 . S
H880 C906 0.950 . S
H881 C908 0.950 . S
H882 C911 0.950 . S
H883 C912 0.950 . S
H884 C914 0.950 . S
H885 C915 0.950 . S
C886 H868 0.951 . S
C886 C887 1.366 . S
C886 C888 1.388 . S
C887 C886 1.366 . S
C887 C891 1.385 . S
C888 H869 0.951 . S
C888 C886 1.388 . S
C888 C889 1.366 . S
C889 C888 1.366 . S
C889 C890 1.414 . S
C889 C892 1.499 . S
C890 H870 0.950 . S
C890 C889 1.414 . S
C890 C891 1.374 . S
C891 H871 0.950 1_554 S
C891 C887 1.385 . S
C891 C890 1.374 . S
C892 C889 1.499 . S
C892 C893 1.373 . S
C892 C894 1.389 . S
C893 H872 0.950 . S
C893 C892 1.373 . S
C893 C909 1.377 . S
C894 C892 1.389 . S
C894 C895 1.524 . S
C894 C908 1.377 . S
C895 C894 1.524 . S
C895 C896 1.397 . S
C895 C900 1.363 . S
C896 H873 0.950 . S
C896 C895 1.397 . S
C896 C897 1.334 . S
C897 H874 0.950 . S
C897 C896 1.334 . S
C897 C898 1.287 . S
C898 C897 1.287 . S
C898 C899 1.524 . S
C898 H917 0.913 . S
C899 H875 0.950 . S
C899 C898 1.524 . S
C899 C900 1.415 . S
C900 H876 0.950 . S
C900 C895 1.363 . S
C900 C899 1.415 . S
C901 H877 0.951 . S
C901 C902 1.366 . S
C901 C903 1.388 . S
C902 C901 1.366 . S
C902 C906 1.385 . S
C903 H878 0.951 . S
C903 C901 1.388 . S
C903 C904 1.366 . S
C904 C903 1.366 . S
C904 C905 1.414 . S
C904 C907 1.499 . S
C905 H879 0.950 . S
C905 C904 1.414 . S
C905 C906 1.374 . S
C906 H880 0.950 . S
C906 C902 1.385 . S
C906 C905 1.374 . S
C907 C904 1.499 . S
C907 C908 1.373 . S
C907 C909 1.389 . S
C908 H881 0.950 . S
C908 C894 1.377 . S
C908 C907 1.373 . S
C909 C893 1.377 . S
C909 C907 1.389 . S
C909 C910 1.524 . S
C910 C909 1.524 . S
C910 C911 1.397 . S
C910 C915 1.363 . S
C911 H882 0.950 . S
C911 C910 1.397 . S
C911 C912 1.334 . S
C912 H883 0.950 . S
C912 C911 1.334 . S
C912 C913 1.287 . S
C913 C912 1.287 . S
C913 C914 1.524 . S
C913 H916 0.999 . S
C914 H884 0.950 . S
C914 C913 1.524 . S
C914 C915 1.415 . S
C915 H885 0.950 . S
C915 C910 1.363 . S
C915 C914 1.415 . S
H916 C913 0.999 . S
H917 C898 0.913 . S
H918 C936 0.951 . S
H919 C938 0.951 . S
H920 C940 0.950 . S
H921 C941 0.950 . S
H922 C943 0.950 . S
H923 C946 0.950 . S
H924 C947 0.950 . S
H925 C949 0.950 . S
H926 C950 0.950 . S
H927 C951 0.951 . S
H928 C953 0.951 . S
H929 C955 0.950 . S
H930 C956 0.950 . S
H931 C958 0.950 . S
H932 C961 0.950 . S
H933 C962 0.950 . S
H934 C964 0.950 . S
H935 C965 0.950 . S
C936 H918 0.951 . S
C936 C937 1.366 . S
C936 C938 1.388 . S
C937 C936 1.366 . S
C937 C941 1.385 . S
C938 H919 0.951 . S
C938 C936 1.388 . S
C938 C939 1.366 . S
C939 C938 1.366 . S
C939 C940 1.414 . S
C939 C942 1.499 . S
C940 H920 0.950 . S
C940 C939 1.414 . S
C940 C941 1.374 . S
C941 H921 0.950 . S
C941 C937 1.385 . S
C941 C940 1.374 . S
C942 C939 1.499 . S
C942 C943 1.373 . S
C942 C944 1.389 . S
C943 H922 0.950 . S
C943 C942 1.373 . S
C943 C959 1.377 . S
C944 C942 1.389 . S
C944 C945 1.524 . S
C944 C958 1.377 . S
C945 C944 1.524 . S
C945 C946 1.397 . S
C945 C950 1.363 . S
C946 H923 0.950 . S
C946 C945 1.397 . S
C946 C947 1.334 . S
C947 H924 0.950 . S
C947 C946 1.334 . S
C947 C948 1.287 . S
C948 C947 1.287 . S
C948 C949 1.524 . S
C948 H967 0.913 . S
C949 H925 0.950 . S
C949 C948 1.524 . S
C949 C950 1.415 . S
C950 H926 0.950 . S
C950 C945 1.363 . S
C950 C949 1.415 . S
C951 H927 0.951 . S
C951 C952 1.366 . S
C951 C953 1.388 . S
C952 C951 1.366 . S
C952 C956 1.385 . S
C953 H928 0.951 . S
C953 C951 1.388 . S
C953 C954 1.366 . S
C954 C953 1.366 . S
C954 C955 1.414 . S
C954 C957 1.499 . S
C955 H929 0.950 . S
C955 C954 1.414 . S
C955 C956 1.374 . S
C956 H930 0.950 . S
C956 C952 1.385 . S
C956 C955 1.374 . S
C957 C954 1.499 . S
C957 C958 1.373 . S
C957 C959 1.389 . S
C958 H931 0.950 . S
C958 C944 1.377 . S
C958 C957 1.373 . S
C959 C943 1.377 . S
C959 C957 1.389 . S
C959 C960 1.524 . S
C960 C959 1.524 . S
C960 C961 1.397 . S
C960 C965 1.363 . S
C961 H932 0.950 . S
C961 C960 1.397 . S
C961 C962 1.334 . S
C962 H933 0.950 . S
C962 C961 1.334 . S
C962 C963 1.287 . S
C963 C962 1.287 . S
C963 C964 1.524 . S
C963 H966 0.999 . S
C964 H934 0.950 . S
C964 C963 1.524 . S
C964 C965 1.415 . S
C965 H935 0.950 . S
C965 C960 1.363 . S
C965 C964 1.415 . S
H966 C963 0.999 . S
H967 C948 0.913 . S
H968 C986 0.951 . S
H969 C988 0.951 . S
H970 C990 0.950 . S
H971 C991 0.950 . S
H972 C993 0.950 . S
H973 C996 0.950 . S
H974 C997 0.950 . S
H975 C999 0.950 . S
H976 C1000 0.950 . S
H977 C1001 0.951 . S
H978 C1003 0.951 . S
H979 C1005 0.950 . S
H980 C1006 0.950 . S
H981 C1008 0.950 . S
H982 C1011 0.950 . S
H983 C1012 0.941 1_554 S
H984 C1014 0.950 . S
H985 C1015 0.950 . S
C986 H968 0.951 . S
C986 C987 1.366 . S
C986 C988 1.388 . S
C987 C986 1.366 . S
C987 C991 1.385 . S
C988 H969 0.951 . S
C988 C986 1.388 . S
C988 C989 1.366 . S
C989 C988 1.366 . S
C989 C990 1.414 . S
C989 C992 1.499 . S
C990 H970 0.950 . S
C990 C989 1.414 . S
C990 C991 1.374 . S
C991 H971 0.950 . S
C991 C987 1.385 . S
C991 C990 1.374 . S
C992 C989 1.499 . S
C992 C993 1.373 . S
C992 C994 1.389 . S
C993 H972 0.950 . S
C993 C992 1.373 . S
C993 C1009 1.377 . S
C994 C992 1.389 . S
C994 C995 1.524 . S
C994 C1008 1.377 . S
C995 C994 1.524 . S
C995 C996 1.397 . S
C995 C1000 1.363 . S
C996 H973 0.950 . S
C996 C995 1.397 . S
C996 C997 1.334 . S
C997 H974 0.950 . S
C997 C996 1.334 . S
C997 C998 1.287 . S
C998 C997 1.287 . S
C998 C999 1.524 . S
C998 H1017 0.913 . S
C999 H975 0.950 . S
C999 C998 1.524 . S
C999 C1000 1.415 . S
C1000 H976 0.950 . S
C1000 C995 1.363 . S
C1000 C999 1.415 . S
C1001 H977 0.951 . S
C1001 C1002 1.366 . S
C1001 C1003 1.388 . S
C1002 C1001 1.366 . S
C1002 C1006 1.385 . S
C1003 H978 0.951 . S
C1003 C1001 1.388 . S
C1003 C1004 1.366 . S
C1004 C1003 1.366 . S
C1004 C1005 1.414 . S
C1004 C1007 1.499 . S
C1005 H979 0.950 . S
C1005 C1004 1.414 . S
C1005 C1006 1.374 . S
C1006 H980 0.950 . S
C1006 C1002 1.385 . S
C1006 C1005 1.374 . S
C1007 C1004 1.499 . S
C1007 C1008 1.373 . S
C1007 C1009 1.389 . S
C1008 H981 0.950 . S
C1008 C994 1.377 . S
C1008 C1007 1.373 . S
C1009 C993 1.377 . S
C1009 C1007 1.389 . S
C1009 C1010 1.524 . S
C1010 C1009 1.524 . S
C1010 C1011 1.397 . S
C1010 C1015 1.363 . S
C1011 H982 0.950 . S
C1011 C1010 1.397 . S
C1011 C1012 1.334 . S
C1012 H983 0.941 1_556 S
C1012 C1011 1.334 . S
C1012 C1013 1.287 . S
C1013 C1012 1.287 . S
C1013 C1014 1.524 . S
C1013 H1016 0.999 1_556 S
C1014 H984 0.950 . S
C1014 C1013 1.524 . S
C1014 C1015 1.415 . S
C1015 H985 0.950 . S
C1015 C1010 1.363 . S
C1015 C1014 1.415 . S
H1016 C1013 0.999 1_554 S
H1017 C998 0.913 . S
H1018 C1036 0.951 . S
H1019 C1038 0.951 . S
H1020 C1040 0.950 . S
H1021 C1041 0.950 . S
H1022 C1043 0.950 . S
H1023 C1046 0.950 . S
H1024 C1047 0.950 . S
H1025 C1049 0.950 . S
H1026 C1050 0.950 . S
H1027 C1051 0.951 . S
H1028 C1053 0.951 . S
H1029 C1055 0.950 . S
H1030 C1056 0.950 . S
H1031 C1058 0.950 . S
H1032 C1061 0.950 . S
H1033 C1062 0.950 . S
H1034 C1064 0.950 . S
H1035 C1065 0.950 . S
C1036 H1018 0.951 . S
C1036 C1037 1.366 . S
C1036 C1038 1.388 . S
C1037 C1036 1.366 . S
C1037 C1041 1.385 . S
C1038 H1019 0.951 . S
C1038 C1036 1.388 . S
C1038 C1039 1.366 . S
C1039 C1038 1.366 . S
C1039 C1040 1.414 . S
C1039 C1042 1.499 . S
C1040 H1020 0.950 . S
C1040 C1039 1.414 . S
C1040 C1041 1.374 . S
C1041 H1021 0.950 . S
C1041 C1037 1.385 . S
C1041 C1040 1.374 . S
C1042 C1039 1.499 . S
C1042 C1043 1.373 . S
C1042 C1044 1.389 . S
C1043 H1022 0.950 . S
C1043 C1042 1.373 . S
C1043 C1059 1.377 . S
C1044 C1042 1.389 . S
C1044 C1045 1.524 . S
C1044 C1058 1.377 . S
C1045 C1044 1.524 . S
C1045 C1046 1.397 . S
C1045 C1050 1.363 . S
C1046 H1023 0.950 . S
C1046 C1045 1.397 . S
C1046 C1047 1.334 . S
C1047 H1024 0.950 . S
C1047 C1046 1.334 . S
C1047 C1048 1.287 . S
C1048 C1047 1.287 . S
C1048 C1049 1.524 . S
C1048 H1067 0.913 . S
C1049 H1025 0.950 . S
C1049 C1048 1.524 . S
C1049 C1050 1.415 . S
C1050 H1026 0.950 . S
C1050 C1045 1.363 . S
C1050 C1049 1.415 . S
C1051 H1027 0.951 . S
C1051 C1052 1.366 . S
C1051 C1053 1.388 . S
C1052 C1051 1.366 . S
C1052 C1056 1.385 . S
C1053 H1028 0.951 . S
C1053 C1051 1.388 . S
C1053 C1054 1.366 . S
C1054 C1053 1.366 . S
C1054 C1055 1.414 . S
C1054 C1057 1.499 . S
C1055 H1029 0.950 . S
C1055 C1054 1.414 . S
C1055 C1056 1.374 . S
C1056 H1030 0.950 . S
C1056 C1052 1.385 . S
C1056 C1055 1.374 . S
C1057 C1054 1.499 . S
C1057 C1058 1.373 . S
C1057 C1059 1.389 . S
C1058 H1031 0.950 . S
C1058 C1044 1.377 . S
C1058 C1057 1.373 . S
C1059 C1043 1.377 . S
C1059 C1057 1.389 . S
C1059 C1060 1.524 . S
C1060 C1059 1.524 . S
C1060 C1061 1.397 . S
C1060 C1065 1.363 . S
C1061 H1032 0.950 . S
C1061 C1060 1.397 . S
C1061 C1062 1.334 . S
C1062 H1033 0.950 . S
C1062 C1061 1.334 . S
C1062 C1063 1.287 . S
C1063 C1062 1.287 . S
C1063 C1064 1.524 . S
C1063 H1066 0.999 . S
C1064 H1034 0.950 . S
C1064 C1063 1.524 . S
C1064 C1065 1.415 . S
C1065 H1035 0.950 . S
C1065 C1060 1.363 . S
C1065 C1064 1.415 . S
H1066 C1063 0.999 . S
H1067 C1048 0.913 . S
H1068 C1086 0.951 . S
H1069 C1088 0.951 . S
H1070 C1090 0.950 . S
H1071 C1091 0.950 . S
H1072 C1093 0.950 . S
H1073 C1096 0.950 . S
H1074 C1097 0.950 . S
H1075 C1099 0.950 . S
H1076 C1100 0.950 . S
H1077 C1101 0.951 . S
H1078 C1103 0.951 . S
H1079 C1105 0.950 . S
H1080 C1106 0.950 . S
H1081 C1108 0.950 . S
H1082 C1111 0.950 . S
H1083 C1112 0.950 . S
H1084 C1114 0.950 . S
H1085 C1115 0.950 . S
C1086 H1068 0.951 . S
C1086 C1087 1.366 . S
C1086 C1088 1.388 . S
C1087 C1086 1.366 . S
C1087 C1091 1.385 . S
C1088 H1069 0.951 . S
C1088 C1086 1.388 . S
C1088 C1089 1.366 . S
C1089 C1088 1.366 . S
C1089 C1090 1.414 . S
C1089 C1092 1.499 . S
C1090 H1070 0.950 . S
C1090 C1089 1.414 . S
C1090 C1091 1.374 . S
C1091 H1071 0.950 . S
C1091 C1087 1.385 . S
C1091 C1090 1.374 . S
C1092 C1089 1.499 . S
C1092 C1093 1.373 . S
C1092 C1094 1.389 . S
C1093 H1072 0.950 . S
C1093 C1092 1.373 . S
C1093 C1109 1.377 . S
C1094 C1092 1.389 . S
C1094 C1095 1.524 . S
C1094 C1108 1.377 . S
C1095 C1094 1.524 . S
C1095 C1096 1.397 . S
C1095 C1100 1.363 . S
C1096 H1073 0.950 . S
C1096 C1095 1.397 . S
C1096 C1097 1.334 . S
C1097 H1074 0.950 . S
C1097 C1096 1.334 . S
C1097 C1098 1.287 . S
C1098 C1097 1.287 . S
C1098 C1099 1.524 . S
C1098 H1117 0.913 . S
C1099 H1075 0.950 . S
C1099 C1098 1.524 . S
C1099 C1100 1.415 . S
C1100 H1076 0.950 . S
C1100 C1095 1.363 . S
C1100 C1099 1.415 . S
C1101 H1077 0.951 . S
C1101 C1102 1.366 . S
C1101 C1103 1.388 . S
C1102 C1101 1.366 . S
C1102 C1106 1.385 . S
C1103 H1078 0.951 . S
C1103 C1101 1.388 . S
C1103 C1104 1.366 . S
C1104 C1103 1.366 . S
C1104 C1105 1.414 . S
C1104 C1107 1.499 . S
C1105 H1079 0.950 . S
C1105 C1104 1.414 . S
C1105 C1106 1.374 . S
C1106 H1080 0.950 . S
C1106 C1102 1.385 . S
C1106 C1105 1.374 . S
C1107 C1104 1.499 . S
C1107 C1108 1.373 . S
C1107 C1109 1.389 . S
C1108 H1081 0.950 . S
C1108 C1094 1.377 . S
C1108 C1107 1.373 . S
C1109 C1093 1.377 . S
C1109 C1107 1.389 . S
C1109 C1110 1.524 . S
C1110 C1109 1.524 . S
C1110 C1111 1.397 . S
C1110 C1115 1.363 . S
C1111 H1082 0.950 . S
C1111 C1110 1.397 . S
C1111 C1112 1.334 . S
C1112 H1083 0.950 . S
C1112 C1111 1.334 . S
C1112 C1113 1.287 . S
C1113 C1112 1.287 . S
C1113 C1114 1.524 . S
C1113 H1116 0.999 . S
C1114 H1084 0.950 . S
C1114 C1113 1.524 . S
C1114 C1115 1.415 . S
C1115 H1085 0.950 . S
C1115 C1110 1.363 . S
C1115 C1114 1.415 . S
H1116 C1113 0.999 . S
H1117 C1098 0.913 . S
H1118 C1136 0.951 . S
H1119 C1138 0.951 . S
H1120 C1140 0.950 . S
H1121 C1141 0.950 . S
H1122 C1143 0.950 . S
H1123 C1146 0.950 . S
H1124 C1147 0.950 . S
H1125 C1149 0.950 . S
H1126 C1150 0.950 . S
H1127 C1151 0.951 . S
H1128 C1153 0.951 . S
H1129 C1155 0.950 . S
H1130 C1156 0.950 . S
H1131 C1158 0.950 . S
H1132 C1161 0.950 . S
H1133 C1162 0.950 . S
H1134 C1164 0.950 . S
H1135 C1165 0.950 . S
C1136 H1118 0.951 . S
C1136 C1137 1.366 . S
C1136 C1138 1.388 . S
C1137 C1136 1.366 . S
C1137 C1141 1.385 . S
C1138 H1119 0.951 . S
C1138 C1136 1.388 . S
C1138 C1139 1.366 . S
C1139 C1138 1.366 . S
C1139 C1140 1.414 . S
C1139 C1142 1.499 . S
C1140 H1120 0.950 . S
C1140 C1139 1.414 . S
C1140 C1141 1.374 . S
C1141 H1121 0.950 . S
C1141 C1137 1.385 . S
C1141 C1140 1.374 . S
C1142 C1139 1.499 . S
C1142 C1143 1.373 . S
C1142 C1144 1.389 . S
C1143 H1122 0.950 . S
C1143 C1142 1.373 . S
C1143 C1159 1.377 . S
C1144 C1142 1.389 . S
C1144 C1145 1.524 . S
C1144 C1158 1.377 . S
C1145 C1144 1.524 . S
C1145 C1146 1.397 . S
C1145 C1150 1.363 . S
C1146 H1123 0.950 . S
C1146 C1145 1.397 . S
C1146 C1147 1.334 . S
C1147 H1124 0.950 . S
C1147 C1146 1.334 . S
C1147 C1148 1.287 . S
C1148 C1147 1.287 . S
C1148 C1149 1.524 . S
C1148 H1167 0.913 . S
C1149 H1125 0.950 . S
C1149 C1148 1.524 . S
C1149 C1150 1.415 . S
C1150 H1126 0.950 . S
C1150 C1145 1.363 . S
C1150 C1149 1.415 . S
C1151 H1127 0.951 . S
C1151 C1152 1.366 . S
C1151 C1153 1.388 . S
C1152 C1151 1.366 . S
C1152 C1156 1.385 . S
C1153 H1128 0.951 . S
C1153 C1151 1.388 . S
C1153 C1154 1.366 . S
C1154 C1153 1.366 . S
C1154 C1155 1.414 . S
C1154 C1157 1.499 . S
C1155 H1129 0.950 . S
C1155 C1154 1.414 . S
C1155 C1156 1.374 . S
C1156 H1130 0.950 . S
C1156 C1152 1.385 . S
C1156 C1155 1.374 . S
C1157 C1154 1.499 . S
C1157 C1158 1.373 . S
C1157 C1159 1.389 . S
C1158 H1131 0.950 . S
C1158 C1144 1.377 . S
C1158 C1157 1.373 . S
C1159 C1143 1.377 . S
C1159 C1157 1.389 . S
C1159 C1160 1.524 . S
C1160 C1159 1.524 . S
C1160 C1161 1.397 . S
C1160 C1165 1.363 . S
C1161 H1132 0.950 . S
C1161 C1160 1.397 . S
C1161 C1162 1.334 . S
C1162 H1133 0.950 . S
C1162 C1161 1.334 . S
C1162 C1163 1.287 . S
C1163 C1162 1.287 . S
C1163 C1164 1.524 . S
C1163 H1166 0.999 . S
C1164 H1134 0.950 . S
C1164 C1163 1.524 . S
C1164 C1165 1.415 . S
C1165 H1135 0.950 . S
C1165 C1160 1.363 . S
C1165 C1164 1.415 . S
H1166 C1163 0.999 . S
H1167 C1148 0.913 . S
H1168 C1186 0.951 . S
H1169 C1188 0.951 . S
H1170 C1190 0.950 . S
H1171 C1191 0.950 . S
H1172 C1193 0.950 . S
H1173 C1196 0.950 1_556 S
H1174 C1197 0.950 . S
H1175 C1199 0.950 . S
H1176 C1200 0.950 . S
H1177 C1201 0.951 . S
H1178 C1203 0.951 . S
H1179 C1205 0.950 . S
H1180 C1206 0.950 . S
H1181 C1208 0.950 . S
H1182 C1211 0.950 1_554 S
H1183 C1212 0.950 . S
H1184 C1214 0.950 . S
H1185 C1215 0.950 . S
C1186 H1168 0.951 . S
C1186 C1187 1.366 1_554 S
C1186 C1188 1.388 . S
C1187 C1186 1.366 1_556 S
C1187 C1191 1.385 . S
C1188 H1169 0.951 . S
C1188 C1186 1.388 . S
C1188 C1189 1.366 1_554 S
C1189 C1188 1.366 1_556 S
C1189 C1190 1.414 . S
C1189 C1192 1.499 . S
C1190 H1170 0.950 . S
C1190 C1189 1.414 . S
C1190 C1191 1.374 . S
C1191 H1171 0.950 . S
C1191 C1187 1.385 . S
C1191 C1190 1.374 . S
C1192 C1189 1.499 . S
C1192 C1193 1.373 . S
C1192 C1194 1.389 1_556 S
C1193 H1172 0.950 . S
C1193 C1192 1.373 . S
C1193 C1209 1.377 . S
C1194 C1192 1.389 1_554 S
C1194 C1195 1.524 . S
C1194 C1208 1.377 . S
C1195 C1194 1.524 . S
C1195 C1196 1.397 . S
C1195 C1200 1.363 . S
C1196 H1173 0.950 1_554 S
C1196 C1195 1.397 . S
C1196 C1197 1.334 . S
C1197 H1174 0.950 . S
C1197 C1196 1.334 . S
C1197 C1198 1.287 . S
C1198 C1197 1.287 . S
C1198 C1199 1.524 . S
C1198 H1217 0.913 . S
C1199 H1175 0.950 . S
C1199 C1198 1.524 . S
C1199 C1200 1.415 . S
C1200 H1176 0.950 . S
C1200 C1195 1.363 . S
C1200 C1199 1.415 . S
C1201 H1177 0.951 . S
C1201 C1202 1.366 1_556 S
C1201 C1203 1.388 . S
C1202 C1201 1.366 1_554 S
C1202 C1206 1.385 . S
C1203 H1178 0.951 . S
C1203 C1201 1.388 . S
C1203 C1204 1.366 1_556 S
C1204 C1203 1.366 1_554 S
C1204 C1205 1.414 . S
C1204 C1207 1.499 . S
C1205 H1179 0.950 . S
C1205 C1204 1.414 . S
C1205 C1206 1.374 . S
C1206 H1180 0.950 . S
C1206 C1202 1.385 . S
C1206 C1205 1.374 . S
C1207 C1204 1.499 . S
C1207 C1208 1.373 . S
C1207 C1209 1.389 1_554 S
C1208 H1181 0.950 . S
C1208 C1194 1.377 . S
C1208 C1207 1.373 . S
C1209 C1193 1.377 . S
C1209 C1207 1.389 1_556 S
C1209 C1210 1.524 . S
C1210 C1209 1.524 . S
C1210 C1211 1.397 . S
C1210 C1215 1.363 . S
C1211 H1182 0.950 1_556 S
C1211 C1210 1.397 . S
C1211 C1212 1.334 . S
C1212 H1183 0.950 . S
C1212 C1211 1.334 . S
C1212 C1213 1.287 . S
C1213 C1212 1.287 . S
C1213 C1214 1.524 . S
C1213 H1216 0.999 . S
C1214 H1184 0.950 . S
C1214 C1213 1.524 . S
C1214 C1215 1.415 . S
C1215 H1185 0.950 . S
C1215 C1210 1.363 . S
C1215 C1214 1.415 . S
H1216 C1213 0.999 . S
H1217 C1198 0.913 . S
H1218 C1236 0.951 . S
H1219 C1238 0.951 . S
H1220 C1240 0.950 . S
H1221 C1241 0.950 . S
H1222 C1243 0.950 . S
H1223 C1246 0.950 . S
H1224 C1247 0.950 . S
H1225 C1249 0.950 . S
H1226 C1250 0.950 . S
H1227 C1251 0.951 . S
H1228 C1253 0.951 . S
H1229 C1255 0.950 . S
H1230 C1256 0.950 . S
H1231 C1258 0.950 . S
H1232 C1261 0.950 . S
H1233 C1262 0.950 . S
H1234 C1264 0.950 . S
H1235 C1265 0.950 . S
C1236 H1218 0.951 . S
C1236 C1237 1.366 . S
C1236 C1238 1.388 . S
C1237 C1236 1.366 . S
C1237 C1241 1.385 . S
C1238 H1219 0.951 . S
C1238 C1236 1.388 . S
C1238 C1239 1.366 . S
C1239 C1238 1.366 . S
C1239 C1240 1.414 . S
C1239 C1242 1.499 . S
C1240 H1220 0.950 . S
C1240 C1239 1.414 . S
C1240 C1241 1.374 . S
C1241 H1221 0.950 . S
C1241 C1237 1.385 . S
C1241 C1240 1.374 . S
C1242 C1239 1.499 . S
C1242 C1243 1.373 . S
C1242 C1244 1.389 . S
C1243 H1222 0.950 . S
C1243 C1242 1.373 . S
C1243 C1259 1.377 . S
C1244 C1242 1.389 . S
C1244 C1245 1.524 . S
C1244 C1258 1.377 . S
C1245 C1244 1.524 . S
C1245 C1246 1.397 . S
C1245 C1250 1.363 . S
C1246 H1223 0.950 . S
C1246 C1245 1.397 . S
C1246 C1247 1.334 . S
C1247 H1224 0.950 . S
C1247 C1246 1.334 . S
C1247 C1248 1.287 . S
C1248 C1247 1.287 . S
C1248 C1249 1.524 . S
C1248 H1267 0.913 . S
C1249 H1225 0.950 . S
C1249 C1248 1.524 . S
C1249 C1250 1.415 . S
C1250 H1226 0.950 . S
C1250 C1245 1.363 . S
C1250 C1249 1.415 . S
C1251 H1227 0.951 . S
C1251 C1252 1.366 . S
C1251 C1253 1.388 . S
C1252 C1251 1.366 . S
C1252 C1256 1.385 . S
C1253 H1228 0.951 . S
C1253 C1251 1.388 . S
C1253 C1254 1.366 . S
C1254 C1253 1.366 . S
C1254 C1255 1.414 . S
C1254 C1257 1.499 . S
C1255 H1229 0.950 . S
C1255 C1254 1.414 . S
C1255 C1256 1.374 . S
C1256 H1230 0.950 . S
C1256 C1252 1.385 . S
C1256 C1255 1.374 . S
C1257 C1254 1.499 . S
C1257 C1258 1.373 . S
C1257 C1259 1.389 . S
C1258 H1231 0.950 . S
C1258 C1244 1.377 . S
C1258 C1257 1.373 . S
C1259 C1243 1.377 . S
C1259 C1257 1.389 . S
C1259 C1260 1.524 . S
C1260 C1259 1.524 . S
C1260 C1261 1.397 . S
C1260 C1265 1.363 . S
C1261 H1232 0.950 . S
C1261 C1260 1.397 . S
C1261 C1262 1.334 . S
C1262 H1233 0.950 . S
C1262 C1261 1.334 . S
C1262 C1263 1.287 . S
C1263 C1262 1.287 . S
C1263 C1264 1.524 . S
C1263 H1266 0.999 . S
C1264 H1234 0.950 . S
C1264 C1263 1.524 . S
C1264 C1265 1.415 . S
C1265 H1235 0.950 . S
C1265 C1260 1.363 . S
C1265 C1264 1.415 . S
H1266 C1263 0.999 . S
H1267 C1248 0.913 . S
H1268 C1286 0.951 . S
H1269 C1288 0.951 . S
H1270 C1290 0.950 . S
H1271 C1291 0.950 . S
H1272 C1293 0.950 . S
H1273 C1296 0.950 . S
H1274 C1297 0.950 . S
H1275 C1299 0.950 . S
H1276 C1300 0.950 . S
H1277 C1301 0.951 . S
H1278 C1303 0.951 . S
H1279 C1305 0.950 . S
H1280 C1306 0.950 . S
H1281 C1308 0.950 . S
H1282 C1311 0.950 . S
H1283 C1312 0.950 . S
H1284 C1314 0.950 . S
H1285 C1315 0.950 . S
C1286 H1268 0.951 . S
C1286 C1287 1.366 . S
C1286 C1288 1.388 . S
C1287 C1286 1.366 . S
C1287 C1291 1.385 . S
C1288 H1269 0.951 . S
C1288 C1286 1.388 . S
C1288 C1289 1.366 . S
C1289 C1288 1.366 . S
C1289 C1290 1.414 . S
C1289 C1292 1.499 . S
C1290 H1270 0.950 . S
C1290 C1289 1.414 . S
C1290 C1291 1.374 . S
C1291 H1271 0.950 . S
C1291 C1287 1.385 . S
C1291 C1290 1.374 . S
C1292 C1289 1.499 . S
C1292 C1293 1.373 . S
C1292 C1294 1.389 . S
C1293 H1272 0.950 . S
C1293 C1292 1.373 . S
C1293 C1309 1.377 . S
C1294 C1292 1.389 . S
C1294 C1295 1.524 . S
C1294 C1308 1.377 . S
C1295 C1294 1.524 . S
C1295 C1296 1.397 . S
C1295 C1300 1.363 . S
C1296 H1273 0.950 . S
C1296 C1295 1.397 . S
C1296 C1297 1.334 . S
C1297 H1274 0.950 . S
C1297 C1296 1.334 . S
C1297 C1298 1.287 . S
C1298 C1297 1.287 . S
C1298 C1299 1.524 . S
C1298 H1317 0.913 . S
C1299 H1275 0.950 . S
C1299 C1298 1.524 . S
C1299 C1300 1.415 . S
C1300 H1276 0.950 . S
C1300 C1295 1.363 . S
C1300 C1299 1.415 . S
C1301 H1277 0.951 . S
C1301 C1302 1.366 . S
C1301 C1303 1.388 . S
C1302 C1301 1.366 . S
C1302 C1306 1.385 . S
C1303 H1278 0.951 . S
C1303 C1301 1.388 . S
C1303 C1304 1.366 . S
C1304 C1303 1.366 . S
C1304 C1305 1.414 . S
C1304 C1307 1.499 . S
C1305 H1279 0.950 . S
C1305 C1304 1.414 . S
C1305 C1306 1.374 . S
C1306 H1280 0.950 . S
C1306 C1302 1.385 . S
C1306 C1305 1.374 . S
C1307 C1304 1.499 . S
C1307 C1308 1.373 . S
C1307 C1309 1.389 . S
C1308 H1281 0.950 . S
C1308 C1294 1.377 . S
C1308 C1307 1.373 . S
C1309 C1293 1.377 . S
C1309 C1307 1.389 . S
C1309 C1310 1.524 . S
C1310 C1309 1.524 . S
C1310 C1311 1.397 . S
C1310 C1315 1.363 . S
C1311 H1282 0.950 . S
C1311 C1310 1.397 . S
C1311 C1312 1.334 . S
C1312 H1283 0.950 . S
C1312 C1311 1.334 . S
C1312 C1313 1.287 . S
C1313 C1312 1.287 . S
C1313 C1314 1.524 . S
C1313 H1316 0.999 . S
C1314 H1284 0.950 . S
C1314 C1313 1.524 . S
C1314 C1315 1.415 . S
C1315 H1285 0.950 . S
C1315 C1310 1.363 . S
C1315 C1314 1.415 . S
H1316 C1313 0.999 . S
H1317 C1298 0.913 . S
H1318 C1336 0.951 . S
H1319 C1338 0.951 . S
H1320 C1340 0.950 . S
H1321 C1341 0.950 . S
H1322 C1343 0.950 . S
H1323 C1346 0.950 . S
H1324 C1347 0.950 . S
H1325 C1349 0.950 . S
H1326 C1350 0.950 . S
H1327 C1351 0.951 . S
H1328 C1353 0.951 . S
H1329 C1355 0.950 . S
H1330 C1356 0.950 . S
H1331 C1358 0.950 . S
H1332 C1361 0.950 . S
H1333 C1362 0.950 . S
H1334 C1364 0.950 . S
H1335 C1365 0.950 . S
C1336 H1318 0.951 . S
C1336 C1337 1.366 . S
C1336 C1338 1.388 . S
C1337 C1336 1.366 . S
C1337 C1341 1.385 . S
C1338 H1319 0.951 . S
C1338 C1336 1.388 . S
C1338 C1339 1.366 . S
C1339 C1338 1.366 . S
C1339 C1340 1.414 . S
C1339 C1342 1.499 . S
C1340 H1320 0.950 . S
C1340 C1339 1.414 . S
C1340 C1341 1.374 . S
C1341 H1321 0.950 . S
C1341 C1337 1.385 . S
C1341 C1340 1.374 . S
C1342 C1339 1.499 . S
C1342 C1343 1.373 1_554 S
C1342 C1344 1.389 . S
C1343 H1322 0.950 . S
C1343 C1342 1.373 1_556 S
C1343 C1359 1.377 . S
C1344 C1342 1.389 . S
C1344 C1345 1.524 . S
C1344 C1358 1.377 . S
C1345 C1344 1.524 . S
C1345 C1346 1.397 . S
C1345 C1350 1.363 . S
C1346 H1323 0.950 . S
C1346 C1345 1.397 . S
C1346 C1347 1.334 . S
C1347 H1324 0.950 . S
C1347 C1346 1.334 . S
C1347 C1348 1.287 . S
C1348 C1347 1.287 . S
C1348 C1349 1.524 . S
C1348 H1367 0.913 . S
C1349 H1325 0.950 . S
C1349 C1348 1.524 . S
C1349 C1350 1.415 . S
C1350 H1326 0.950 . S
C1350 C1345 1.363 . S
C1350 C1349 1.415 . S
C1351 H1327 0.951 . S
C1351 C1352 1.366 . S
C1351 C1353 1.388 . S
C1352 C1351 1.366 . S
C1352 C1356 1.385 . S
C1353 H1328 0.951 . S
C1353 C1351 1.388 . S
C1353 C1354 1.366 . S
C1354 C1353 1.366 . S
C1354 C1355 1.414 . S
C1354 C1357 1.499 . S
C1355 H1329 0.950 . S
C1355 C1354 1.414 . S
C1355 C1356 1.374 . S
C1356 H1330 0.950 . S
C1356 C1352 1.385 . S
C1356 C1355 1.374 . S
C1357 C1354 1.499 . S
C1357 C1358 1.373 1_556 S
C1357 C1359 1.389 . S
C1358 H1331 0.950 . S
C1358 C1344 1.377 . S
C1358 C1357 1.373 1_554 S
C1359 C1343 1.377 . S
C1359 C1357 1.389 . S
C1359 C1360 1.524 . S
C1360 C1359 1.524 . S
C1360 C1361 1.397 . S
C1360 C1365 1.363 . S
C1361 H1332 0.950 . S
C1361 C1360 1.397 . S
C1361 C1362 1.334 . S
C1362 H1333 0.950 . S
C1362 C1361 1.334 . S
C1362 C1363 1.287 . S
C1363 C1362 1.287 . S
C1363 C1364 1.524 . S
C1363 H1366 0.999 . S
C1364 H1334 0.950 . S
C1364 C1363 1.524 . S
C1364 C1365 1.415 . S
C1365 H1335 0.950 . S
C1365 C1360 1.363 . S
C1365 C1364 1.415 . S
H1366 C1363 0.999 . S
H1367 C1348 0.913 . S
C187 C11 1.270 . S
C202 C137 1.270 . S
C237 C25 1.271 . S
C252 C151 1.270 . S
C287 C39 1.269 . S
C302 C165 1.270 . S
C337 C53 1.270 . S
C352 C95 1.271 . S
C387 C109 1.269 . S
C402 C67 1.270 . S
C437 C123 1.270 . S
C452 C81 1.269 . S
C487 C145 1.342 . S
C502 C5 1.342 . S
C537 C19 1.343 . S
C552 C159 1.342 . S
C587 C33 1.344 . S
C602 C89 1.344 . S
C637 C47 1.342 . S
C652 C103 1.342 . S
C687 C61 1.342 . S
C702 C117 1.342 . S
C737 C75 1.343 . S
C752 C131 1.344 . S
C787 C144 0.806 . S
C802 C4 0.806 . S
C837 C18 0.807 . S
C852 C158 0.807 . S
C887 C32 0.807 . S
C902 C88 0.808 . S
C937 C46 0.806 . S
C952 C102 0.806 . S
C987 C60 0.806 . S
C1002 C116 0.805 . S
C1037 C74 0.806 . S
C1052 C130 0.806 . S
C1087 C12 1.577 . S
C1102 C96 1.577 . S
C1137 C110 1.576 . S
C1152 C26 1.576 . S
C1187 C40 1.576 . S
C1202 C124 1.577 . S
C1237 C54 1.577 . S
C1252 C138 1.577 . S
C1287 C68 1.577 . S
C1302 C152 1.577 . S
C1337 C166 1.576 . S
C1352 C82 1.576 . S
