# Generated by pormake.
# Topology eta-c, (3)-cn, num edge types: 1
# Building blocks:
#     Node 0, Type 0, BuildingBlock: WUSLED_clean_sbu_0, # of connection points: 3
#     Node 1, Type 0, BuildingBlock: WUSLED_clean_sbu_0, # of connection points: 3
#     Node 2, Type 0, BuildingBlock: WUSLED_clean_sbu_0, # of connection points: 3
#     Node 3, Type 0, BuildingBlock: WUSLED_clean_sbu_0, # of connection points: 3
#     Node 4, Type 0, BuildingBlock: WUSLED_clean_sbu_0, # of connection points: 3
#     Node 5, Type 0, BuildingBlock: WUSLED_clean_sbu_0, # of connection points: 3
#     Edge 6, Type (0, 0), BuildingBlock: KIFKEQ_clean_linker_1, # of connection points: 2
#     Edge 7, Type (0, 0), BuildingBlock: KIFKEQ_clean_linker_1, # of connection points: 2
#     Edge 8, Type (0, 0), BuildingBlock: KIFKEQ_clean_linker_1, # of connection points: 2
#     Edge 9, Type (0, 0), BuildingBlock: KIFKEQ_clean_linker_1, # of connection points: 2
#     Edge 10, Type (0, 0), BuildingBlock: KIFKEQ_clean_linker_1, # of connection points: 2
#     Edge 11, Type (0, 0), BuildingBlock: KIFKEQ_clean_linker_1, # of connection points: 2
#     Edge 12, Type (0, 0), BuildingBlock: KIFKEQ_clean_linker_1, # of connection points: 2
#     Edge 13, Type (0, 0), BuildingBlock: KIFKEQ_clean_linker_1, # of connection points: 2
#     Edge 14, Type (0, 0), BuildingBlock: KIFKEQ_clean_linker_1, # of connection points: 2
# Relax obj value: 0.000
# Max RMSD: 0.004
# Mean RMSD: 0.004
data_MOF--net-eta-c--node1-WUSLED_clean_sbu_0--edge1-KIFKEQ_clean_linker_1
_symmetry_space_group_name_H-M    P1
_symmetry_Int_Tables_number       1
_symmetry_cell_setting            triclinic
loop_
_symmetry_equiv_pos_as_xyz
'x, y, z'
_cell_length_a     66.675478
_cell_length_b     67.436586
_cell_length_c     27.665284
_cell_angle_alpha  90.950747
_cell_angle_beta   89.514569
_cell_angle_gamma 118.986
loop_
_atom_site_label
_atom_site_type_symbol
_atom_site_fract_x
_atom_site_fract_y
_atom_site_fract_z
_atom_type_partial_charge
C0 C 0.41 0.81471 0.16759 0.0
C1 C 0.39377 0.79237 0.15499 0.0
C2 C 0.38293 0.78388 0.23974 0.0
C3 C 0.38031 0.77712 0.19071 0.0
C4 C 0.3995 0.80621 0.25211 0.0
C5 C 0.41286 0.82145 0.21637 0.0
U6 U 0.43512 0.82959 0.03986 0.0
O7 O 0.4379 0.85648 0.99161 0.0
O8 O 0.46897 0.85607 1.01558 0.0
C9 C 0.46043 0.86714 0.99234 0.0
C10 C 0.42374 0.83129 0.13045 0.0
C11 C 0.47156 0.89181 1.0015 0.0
C12 C 0.48642 0.92451 0.05614 0.0
C13 C 0.47544 0.90094 0.04863 0.0
C14 C 0.48946 0.92999 0.96955 0.0
C15 C 0.4936 0.93935 1.01664 0.0
C16 C 0.47857 0.90649 0.96213 0.0
C17 C 0.42202 0.78053 0.94944 0.0
C18 C 0.43898 0.78451 0.86951 0.0
C19 C 0.40823 0.74808 0.89452 0.0
C20 C 0.40723 0.75756 0.93919 0.0
C21 C 0.42409 0.76141 0.85901 0.0
C22 C 0.43792 0.79401 0.91433 0.0
C23 C 0.42054 0.78985 0.99706 0.0
O24 O 0.44289 0.83154 0.11767 0.0
O25 O 0.41219 0.8326 0.09351 0.0
O26 O 0.40858 0.80063 0.9987 0.0
O27 O 0.43967 0.80009 1.02207 0.0
H28 H 0.3914 0.78678 0.11751 0.0
H29 H 0.36793 0.75999 0.17996 0.0
H30 H 0.40181 0.81209 0.28936 0.0
H31 H 0.42529 0.83863 0.2268 0.0
H32 H 0.48908 0.93109 0.09286 0.0
H33 H 0.47004 0.88987 0.07954 0.0
H34 H 0.49501 0.94083 0.9383 0.0
H35 H 0.47575 0.89976 0.92548 0.0
H36 H 0.45123 0.79531 0.84286 0.0
H37 H 0.39675 0.7302 0.88806 0.0
H38 H 0.39491 0.74688 0.96591 0.0
H39 H 0.44945 0.81182 0.92157 0.0
C40 C 0.62403 0.39838 0.50041 0.0
C41 C 0.63111 0.38246 0.48791 0.0
C42 C 0.62747 0.37071 0.57202 0.0
C43 C 0.63275 0.3687 0.52337 0.0
C44 C 0.62065 0.38691 0.58426 0.0
C45 C 0.61893 0.40057 0.54879 0.0
U46 U 0.63584 0.42518 0.37479 0.0
O47 O 0.61271 0.42988 0.32578 0.0
O48 O 0.64344 0.45955 0.35403 0.0
C49 C 0.62437 0.45213 0.32918 0.0
C50 C 0.62159 0.41266 0.46366 0.0
C51 C 0.61094 0.46391 0.33857 0.0
C52 C 0.57998 0.46705 0.379 0.0
C53 C 0.59267 0.45565 0.37169 0.0
C54 C 0.60386 0.49517 0.3207 0.0
C55 C 0.58544 0.48698 0.35359 0.0
C56 C 0.61642 0.48374 0.31329 0.0
C57 C 0.67351 0.41344 0.28489 0.0
C58 C 0.67606 0.41949 0.19806 0.0
C59 C 0.7039 0.41212 0.2381 0.0
C60 C 0.69299 0.41063 0.28237 0.0
C61 C 0.6955 0.41642 0.19529 0.0
C62 C 0.66521 0.41809 0.24249 0.0
C63 C 0.66196 0.41093 0.3319 0.0
O64 O 0.64034 0.43152 0.45339 0.0
O65 O 0.60957 0.40193 0.42514 0.0
O66 O 0.63943 0.39945 0.33144 0.0
O67 O 0.67011 0.42921 0.35956 0.0
H68 H 0.63526 0.38061 0.45074 0.0
H69 H 0.63831 0.3566 0.51276 0.0
H70 H 0.61617 0.38874 0.62116 0.0
H71 H 0.61342 0.41274 0.55913 0.0
H72 H 0.56609 0.46041 0.40498 0.0
H73 H 0.58821 0.44042 0.3918 0.0
H74 H 0.60836 0.51026 0.30004 0.0
H75 H 0.63041 0.49035 0.28749 0.0
H76 H 0.6693 0.42308 0.16591 0.0
H77 H 0.71862 0.40939 0.23727 0.0
H78 H 0.69964 0.40699 0.31467 0.0
H79 H 0.65027 0.42047 0.24368 0.0
C80 C 0.2479 0.65406 0.57445 0.0
C81 C 0.27151 0.66635 0.58394 0.0
C82 C 0.27871 0.68121 0.50199 0.0
C83 C 0.28679 0.67985 0.54806 0.0
C84 C 0.255 0.66876 0.49283 0.0
C85 C 0.23977 0.65534 0.52872 0.0
U86 U 0.23419 0.62664 0.69914 0.0
O87 O 0.20702 0.62194 0.75095 0.0
O88 O 0.20816 0.59232 0.72016 0.0
C89 C 0.19678 0.59971 0.74718 0.0
C90 C 0.23152 0.63978 0.6116 0.0
C91 C 0.17176 0.58821 0.73987 0.0
C92 C 0.13816 0.5776 0.68963 0.0
C93 C 0.16206 0.58895 0.69554 0.0
C94 C 0.13351 0.56479 0.77228 0.0
C95 C 0.12357 0.56527 0.72792 0.0
C96 C 0.15732 0.57612 0.77812 0.0
C97 C 0.28453 0.63751 0.78324 0.0
C98 C 0.28098 0.62591 0.86713 0.0
C99 C 0.3177 0.64105 0.82651 0.0
C100 C 0.30786 0.64377 0.78447 0.0
C101 C 0.3044 0.63201 0.86836 0.0
C102 C 0.27111 0.62856 0.82483 0.0
C103 C 0.27475 0.64042 0.73807 0.0
O104 O 0.23144 0.62066 0.6204 0.0
O105 O 0.23064 0.65045 0.65109 0.0
O106 O 0.2635 0.65189 0.74157 0.0
O107 O 0.26453 0.62234 0.71001 0.0
H108 H 0.27811 0.66548 0.61904 0.0
H109 H 0.30494 0.689 0.5562 0.0
H110 H 0.24813 0.66964 0.45809 0.0
H111 H 0.22159 0.646 0.52078 0.0
H112 H 0.13114 0.57819 0.65487 0.0
H113 H 0.17297 0.59821 0.66554 0.0
H114 H 0.12287 0.55585 0.80282 0.0
H115 H 0.16449 0.57545 0.81267 0.0
H116 H 0.27022 0.61872 0.89857 0.0
H117 H 0.33583 0.64624 0.82635 0.0
H118 H 0.31851 0.65078 0.75278 0.0
H119 H 0.25302 0.62356 0.8245 0.0
C120 C 0.62075 0.2347 0.90569 0.0
C121 C 0.63101 0.258 0.9164 0.0
C122 C 0.62498 0.26565 0.83333 0.0
C123 C 0.63307 0.27333 0.88057 0.0
C124 C 0.61484 0.24226 0.82291 0.0
C125 C 0.61274 0.22697 0.85875 0.0
U126 U 0.63289 0.22032 0.03172 0.0
O127 O 0.61004 0.19408 0.08224 0.0
O128 O 0.64058 0.19349 0.05394 0.0
C129 C 0.62167 0.18297 0.07949 0.0
C130 C 0.61821 0.21825 0.94289 0.0
C131 C 0.6081 0.15826 0.07134 0.0
C132 C 0.57856 0.12534 0.02849 0.0
C133 C 0.59153 0.14893 0.03463 0.0
C134 C 0.59877 0.1202 0.09526 0.0
C135 C 0.58193 0.11064 0.05891 0.0
C136 C 0.61166 0.14373 0.10138 0.0
C137 C 0.67115 0.26966 0.11819 0.0
C138 C 0.67923 0.26556 0.20193 0.0
C139 C 0.69811 0.30253 0.16498 0.0
C140 C 0.68649 0.29295 0.12175 0.0
C141 C 0.69462 0.28901 0.20576 0.0
C142 C 0.66758 0.25597 0.15849 0.0
C143 C 0.65917 0.26022 0.07206 0.0
O144 O 0.63693 0.21732 0.95329 0.0
O145 O 0.60637 0.2179 0.98142 0.0
O146 O 0.63665 0.24994 0.07368 0.0
O147 O 0.66716 0.24936 0.04519 0.0
H148 H 0.63741 0.2643 0.95244 0.0
H149 H 0.6412 0.29123 0.88973 0.0
H150 H 0.60815 0.23569 0.7872 0.0
H151 H 0.60474 0.20904 0.84985 0.0
H152 H 0.56563 0.11862 1.00042 0.0
H153 H 0.58853 0.15988 1.011 0.0
H154 H 0.60217 0.1095 0.11879 0.0
H155 H 0.62445 0.15061 0.12975 0.0
H156 H 0.67597 0.25467 0.23266 0.0
H157 H 0.71011 0.32053 0.16619 0.0
H158 H 0.68954 0.30376 0.09093 0.0
H159 H 0.65578 0.23792 0.15638 0.0
C160 C 0.41168 0.61231 0.23741 0.0
C161 C 0.3968 0.62122 0.246 0.0
C162 C 0.38587 0.61593 0.16073 0.0
C163 C 0.38399 0.62301 0.20799 0.0
C164 C 0.40106 0.60727 0.1525 0.0
C165 C 0.41378 0.60546 0.19044 0.0
U166 U 0.43657 0.62456 0.36614 0.0
O167 O 0.43938 0.60138 0.41747 0.0
O168 O 0.47043 0.63097 0.3913 0.0
C169 C 0.46191 0.61227 0.4165 0.0
C170 C 0.42501 0.60977 0.27672 0.0
C171 C 0.47306 0.59817 0.40932 0.0
C172 C 0.48569 0.5768 0.35752 0.0
C173 C 0.4743 0.58955 0.36352 0.0
C174 C 0.4944 0.58094 0.44309 0.0
C175 C 0.49606 0.57249 0.39722 0.0
C176 C 0.48304 0.59364 0.44901 0.0
C177 C 0.42503 0.66384 0.45121 0.0
C178 C 0.43098 0.66777 0.53829 0.0
C179 C 0.42259 0.69399 0.49571 0.0
C180 C 0.42156 0.68274 0.45211 0.0
C181 C 0.42707 0.68653 0.53951 0.0
C182 C 0.42998 0.65653 0.49452 0.0
C183 C 0.42288 0.65185 0.40486 0.0
O184 O 0.44429 0.62801 0.28816 0.0
O185 O 0.4132 0.59856 0.31465 0.0
O186 O 0.41059 0.62962 0.40556 0.0
O187 O 0.44176 0.65906 0.37924 0.0
H188 H 0.39497 0.62663 0.28209 0.0
H189 H 0.37236 0.62959 0.21578 0.0
H190 H 0.40332 0.60206 0.11655 0.0
H191 H 0.42527 0.59866 0.18306 0.0
H192 H 0.48679 0.57075 0.32162 0.0
H193 H 0.46669 0.59289 0.33239 0.0
H194 H 0.50182 0.57766 0.4746 0.0
H195 H 0.48217 0.60007 0.48468 0.0
H196 H 0.43428 0.66143 0.5713 0.0
H197 H 0.41992 0.70859 0.49504 0.0
H198 H 0.41786 0.68872 0.41902 0.0
H199 H 0.43277 0.64199 0.49457 0.0
C200 C 0.82469 0.39691 0.57026 0.0
C201 C 0.80096 0.38608 0.57863 0.0
C202 C 0.79375 0.37017 0.49661 0.0
C203 C 0.78562 0.37284 0.54212 0.0
C204 C 0.8176 0.38105 0.48871 0.0
C205 C 0.83288 0.39426 0.52517 0.0
U206 U 0.83897 0.42352 0.69746 0.0
O207 O 0.86678 0.42849 0.74678 0.0
O208 O 0.86476 0.45798 0.72044 0.0
C209 C 0.8767 0.45072 0.74483 0.0
C210 C 0.84115 0.41118 0.60777 0.0
C211 C 0.90166 0.46263 0.73606 0.0
C212 C 0.93553 0.46669 0.69347 0.0
C213 C 0.91166 0.45545 0.69978 0.0
C214 C 0.93957 0.49263 0.75899 0.0
C215 C 0.94981 0.4854 0.72316 0.0
C216 C 0.91578 0.48135 0.76533 0.0
C217 C 0.78925 0.41054 0.78615 0.0
C218 C 0.79394 0.42368 0.86985 0.0
C219 C 0.75586 0.40145 0.8362 0.0
C220 C 0.76542 0.40018 0.79187 0.0
C221 C 0.76996 0.41311 0.87592 0.0
C222 C 0.80351 0.42239 0.82533 0.0
C223 C 0.79869 0.4085 0.73915 0.0
O224 O 0.84074 0.42995 0.6194 0.0
O225 O 0.84269 0.40041 0.64552 0.0
O226 O 0.81036 0.39743 0.73915 0.0
O227 O 0.80833 0.42694 0.71308 0.0
H228 H 0.79433 0.38791 0.61334 0.0
H229 H 0.7674 0.36454 0.54968 0.0
H230 H 0.8245 0.37971 0.45398 0.0
H231 H 0.85114 0.40256 0.518 0.0
H232 H 0.94279 0.46081 0.66519 0.0
H233 H 0.90103 0.44108 0.67659 0.0
H234 H 0.94999 0.50672 0.78297 0.0
H235 H 0.9084 0.48713 0.7936 0.0
H236 H 0.80532 0.43262 0.89972 0.0
H237 H 0.73737 0.39344 0.83918 0.0
H238 H 0.75415 0.39104 0.76195 0.0
H239 H 0.82198 0.43049 0.82154 0.0
H240 H 0.48798 0.97107 0.96643 0.0
H241 H 0.52658 0.96462 0.08392 0.0
H242 H 0.50856 1.01218 0.97688 0.0
H243 H 0.54718 1.00574 0.09435 0.0
H244 H 0.56406 0.07867 0.12986 0.0
H245 H 0.54229 0.03759 0.12047 0.0
H246 H 0.54638 0.04435 0.96522 0.0
H247 H 0.56824 0.08548 0.9746 0.0
C248 C 0.50095 0.97841 0.99433 0.0
C249 C 0.50563 0.96447 0.02424 0.0
C250 C 0.51278 1.00202 1.0003 0.0
C251 C 0.52962 1.01236 0.03637 0.0
C252 C 0.53412 0.9984 0.06664 0.0
C253 C 0.52228 0.97477 0.06067 0.0
C254 C 0.56049 0.07142 0.09367 0.0
C255 C 0.56804 0.08548 0.053 0.0
C256 C 0.54797 0.04781 0.0883 0.0
C257 C 0.54259 0.03757 0.04209 0.0
C258 C 0.54992 0.05163 1.00139 0.0
C259 C 0.56247 0.07526 1.00677 0.0
H260 H 0.53663 0.5813 0.43941 0.0
H261 H 0.48475 0.53457 0.34075 0.0
H262 H 0.55752 0.56022 0.43037 0.0
H263 H 0.50614 0.51388 0.33037 0.0
H264 H 0.5388 0.46899 0.36298 0.0
H265 H 0.51705 0.48928 0.37414 0.0
H266 H 0.58007 0.55306 0.37065 0.0
H267 H 0.6018 0.53281 0.36105 0.0
C268 C 0.52961 0.56648 0.41587 0.0
C269 C 0.50892 0.55963 0.39094 0.0
C270 C 0.54176 0.55452 0.41024 0.0
C271 C 0.53357 0.53535 0.37954 0.0
C272 C 0.51285 0.52843 0.35467 0.0
C273 C 0.50071 0.54045 0.3602 0.0
C274 C 0.54803 0.48734 0.36511 0.0
C275 C 0.57207 0.49925 0.3611 0.0
C276 C 0.53553 0.49898 0.37095 0.0
C277 C 0.54677 0.52283 0.37323 0.0
C278 C 0.57083 0.5347 0.36953 0.0
C279 C 0.58329 0.52308 0.36351 0.0
H280 H 0.09279 0.52338 0.76186 0.0
H281 H 0.09657 0.57928 0.68081 0.0
H282 H 0.05114 0.50426 0.75697 0.0
H283 H 0.05481 0.5597 0.6743 0.0
H284 H 0.98009 0.53102 0.72816 0.0
H285 H 1.02184 0.54981 0.72582 0.0
H286 H 1.01911 0.48506 0.70234 0.0
H287 H 0.97735 0.46618 0.70648 0.0
C288 C 0.08475 0.53158 0.74284 0.0
C289 C 0.09811 0.553 0.72209 0.0
C290 C 0.06081 0.52045 0.73949 0.0
C291 C 0.04952 0.5304 0.71527 0.0
C292 C 0.06289 0.55163 0.6937 0.0
C293 C 0.08687 0.56277 0.69698 0.0
C294 C 0.98838 0.52076 0.72264 0.0
C295 C 0.97529 0.49703 0.71789 0.0
C296 C 1.01236 0.53158 0.72073 0.0
C297 C 1.02393 0.51898 0.71407 0.0
C298 C 1.01082 0.4953 0.70814 0.0
C299 C 0.98683 0.48448 0.70996 0.0
H300 H 0.39547 0.77764 0.33006 0.0
H301 H 0.33683 0.75412 0.2357 0.0
H302 H 0.37103 0.7524 0.39305 0.0
H303 H 0.31235 0.72905 0.2987 0.0
H304 H 0.27823 0.67132 0.40532 0.0
H305 H 0.30374 0.69532 0.34219 0.0
H306 H 0.34117 0.74792 0.44855 0.0
H307 H 0.31573 0.72382 0.51173 0.0
C308 C 0.37734 0.76717 0.32283 0.0
C309 C 0.36814 0.76794 0.27776 0.0
C310 C 0.36329 0.75271 0.35901 0.0
C311 C 0.33965 0.73866 0.35114 0.0
C312 C 0.33051 0.73931 0.30588 0.0
C313 C 0.34457 0.75372 0.26967 0.0
C314 C 0.29183 0.68805 0.41523 0.0
C315 C 0.29483 0.69564 0.46366 0.0
C316 C 0.30647 0.70185 0.37897 0.0
C317 C 0.32451 0.72365 0.39009 0.0
C318 C 0.32769 0.73112 0.43865 0.0
C319 C 0.31307 0.7173 0.47495 0.0
H320 H 0.61334 0.32521 0.56532 0.0
H321 H 0.64415 0.38232 0.66444 0.0
H322 H 0.61376 0.30047 0.62809 0.0
H323 H 0.64474 0.35763 0.72716 0.0
H324 H 0.6174 0.30206 0.8421 0.0
H325 H 0.61905 0.32765 0.77911 0.0
H326 H 0.63848 0.29156 0.67496 0.0
H327 H 0.63667 0.26588 0.73794 0.0
C328 C 0.62049 0.33256 0.60032 0.0
C329 C 0.62864 0.35577 0.6098 0.0
C330 C 0.62075 0.31836 0.63638 0.0
C331 C 0.62922 0.32699 0.68289 0.0
C332 C 0.63769 0.35028 0.69211 0.0
C333 C 0.63738 0.36446 0.65609 0.0
C334 C 0.62228 0.29973 0.80589 0.0
C335 C 0.62682 0.28183 0.79515 0.0
C336 C 0.62324 0.31444 0.76969 0.0
C337 C 0.62884 0.31169 0.72176 0.0
C338 C 0.6337 0.29397 0.7112 0.0
C339 C 0.63268 0.27923 0.74738 0.0
H340 H 0.37567 0.65003 0.1422 0.0
H341 H 0.36481 0.58528 0.08691 0.0
H342 H 0.35476 0.65319 0.07331 0.0
H343 H 0.34414 0.58855 1.01808 0.0
H344 H 0.3346 0.61561 0.87416 0.0
H345 H 0.35318 0.61155 0.94582 0.0
H346 H 0.31651 0.6365 0.03509 0.0
H347 H 0.29829 0.64114 0.9629 0.0
C348 C 0.36862 0.63635 0.11572 0.0
C349 C 0.37215 0.6175 0.12001 0.0
C350 C 0.35662 0.63816 0.07618 0.0
C351 C 0.34792 0.62121 0.0399 0.0
C352 C 0.351 0.60214 0.04482 0.0
C353 C 0.36291 0.60029 0.08432 0.0
C354 C 0.33057 0.62036 0.90901 0.0
C355 C 0.31502 0.6288 0.91269 0.0
C356 C 0.34105 0.6178 0.95022 0.0
C357 C 0.33632 0.62365 0.9963 0.0
C358 C 0.32068 0.632 1.00012 0.0
C359 C 0.31007 0.63444 0.95881 0.0
H360 H 0.75295 0.36812 0.47202 0.0
H361 H 0.79784 0.34117 0.43158 0.0
H362 H 0.72736 0.34694 0.40545 0.0
H363 H 0.77281 0.3208 0.36385 0.0
H364 H 0.71391 0.2719 0.26865 0.0
H365 H 0.73591 0.28981 0.34175 0.0
H366 H 0.72677 0.34815 0.31874 0.0
H367 H 0.70398 0.32985 0.24703 0.0
C368 C 0.75731 0.35757 0.44917 0.0
C369 C 0.77756 0.35647 0.45716 0.0
C370 C 0.74275 0.34561 0.41059 0.0
C371 C 0.74804 0.33222 0.37897 0.0
C372 C 0.76803 0.33075 0.38762 0.0
C373 C 0.78258 0.34269 0.42617 0.0
C374 C 0.71627 0.28839 0.2796 0.0
C375 C 0.70723 0.29945 0.25167 0.0
C376 C 0.72914 0.29879 0.32126 0.0
C377 C 0.73327 0.32052 0.33614 0.0
C378 C 0.7238 0.33134 0.30876 0.0
C379 C 0.71094 0.32095 0.26717 0.0
H380 H 0.39809 0.70262 0.56788 0.0
H381 H 0.45611 0.69644 0.6171 0.0
H382 H 0.39815 0.72159 0.64349 0.0
H383 H 0.45557 0.71466 0.69377 0.0
H384 H 0.46202 0.76847 0.80615 0.0
H385 H 0.46316 0.75107 0.72873 0.0
H386 H 0.38916 0.713 0.72764 0.0
H387 H 0.38801 0.73096 0.80387 0.0
C388 C 0.41093 0.70537 0.59475 0.0
C389 C 0.42714 0.69802 0.58618 0.0
C390 C 0.41079 0.71602 0.63844 0.0
C391 C 0.42681 0.71962 0.67492 0.0
C392 C 0.44311 0.71238 0.66634 0.0
C393 C 0.44324 0.70167 0.62257 0.0
C394 C 0.44599 0.75658 0.7891 0.0
C395 C 0.42493 0.75113 0.81136 0.0
C396 C 0.44665 0.7464 0.74496 0.0
C397 C 0.42626 0.73058 0.72187 0.0
C398 C 0.40521 0.72527 0.74403 0.0
C399 C 0.40456 0.73539 0.78812 0.0
H400 H 0.78408 0.4491 0.93971 0.0
H401 H 0.73223 0.37912 0.91983 0.0
H402 H 0.76635 0.45062 1.01631 0.0
H403 H 0.71451 0.38069 0.99607 0.0
H404 H 0.67483 0.398 0.10847 0.0
H405 H 0.69303 0.39798 0.03163 0.0
H406 H 0.75969 0.43564 0.09834 0.0
H407 H 0.74148 0.43624 0.17487 0.0
C408 C 0.76903 0.43398 0.95182 0.0
C409 C 0.75955 0.41402 0.92335 0.0
C410 C 0.75884 0.43487 0.99574 0.0
C411 C 0.7389 0.41582 1.01228 0.0
C412 C 0.72957 0.39582 0.98403 0.0
C413 C 0.73976 0.39492 0.94024 0.0
C414 C 0.69337 0.40654 0.10663 0.0
C415 C 0.70667 0.4171 0.14793 0.0
C416 C 0.70382 0.4063 0.06268 0.0
C417 C 0.72784 0.4167 0.0588 0.0
C418 C 0.74116 0.4276 0.0999 0.0
C419 C 0.73071 0.42775 0.14392 0.0
loop_
_geom_bond_atom_site_label_1
_geom_bond_atom_site_label_2
_geom_bond_distance
_geom_bond_site_symmetry_2
_ccdc_geom_bond_type
C0 C1 1.264 . S
C0 C5 1.479 . S
C0 C10 1.465 . S
C1 C0 1.264 . S
C1 C3 1.339 . S
C1 H28 0.931 . S
C2 C3 1.395 . S
C2 C4 1.320 . S
C3 C1 1.339 . S
C3 C2 1.395 . S
C3 H29 0.929 . S
C4 C2 1.320 . S
C4 C5 1.405 . S
C4 H30 0.930 . S
C5 C0 1.479 . S
C5 C4 1.405 . S
C5 H31 0.931 . S
U6 O7 2.454 . S
U6 O8 2.458 1_554 S
U6 C9 2.984 . S
U6 C10 2.847 . S
U6 C23 2.882 1_554 S
U6 O24 2.441 . S
U6 O25 2.420 . S
U6 O26 2.455 1_554 S
U6 O27 2.449 1_554 S
O7 U6 2.454 . S
O7 C9 1.353 . S
O8 U6 2.458 1_556 S
O8 C9 1.286 1_556 S
C9 U6 2.984 . S
C9 O7 1.353 . S
C9 O8 1.286 1_554 S
C9 C11 1.363 . S
C10 C0 1.465 . S
C10 U6 2.847 . S
C10 O24 1.249 . S
C10 O25 1.202 . S
C11 C9 1.363 . S
C11 C13 1.408 . S
C11 C16 1.342 1_554 S
C12 C13 1.310 . S
C12 C15 1.461 . S
C12 H32 0.932 . S
C13 C11 1.408 . S
C13 C12 1.310 . S
C13 H33 0.930 . S
C14 C15 1.474 1_556 S
C14 C16 1.285 . S
C14 H34 0.929 . S
C15 C12 1.461 . S
C15 C14 1.474 1_554 S
C16 C11 1.342 1_556 S
C16 C14 1.285 . S
C16 H35 0.930 . S
C17 C20 1.424 . S
C17 C22 1.245 . S
C17 C23 1.428 . S
C18 C21 1.260 . S
C18 C22 1.477 . S
C18 H36 0.932 . S
C19 C20 1.384 . S
C19 C21 1.479 . S
C19 H37 0.929 . S
C20 C17 1.424 . S
C20 C19 1.384 . S
C20 H38 0.928 . S
C21 C18 1.260 . S
C21 C19 1.479 . S
C22 C17 1.245 . S
C22 C18 1.477 . S
C22 H39 0.932 . S
C23 U6 2.882 1_556 S
C23 C17 1.428 . S
C23 O26 1.301 . S
C23 O27 1.282 . S
O24 U6 2.441 . S
O24 C10 1.249 . S
O25 U6 2.420 . S
O25 C10 1.202 . S
O26 U6 2.455 1_556 S
O26 C23 1.301 . S
O27 U6 2.449 1_556 S
O27 C23 1.282 . S
H28 C1 0.931 . S
H29 C3 0.929 . S
H30 C4 0.930 . S
H31 C5 0.931 . S
H32 C12 0.932 . S
H33 C13 0.930 . S
H34 C14 0.929 . S
H35 C16 0.930 . S
H36 C18 0.932 . S
H37 C19 0.929 . S
H38 C20 0.928 . S
H39 C22 0.932 . S
C40 C41 1.264 . S
C40 C45 1.479 . S
C40 C50 1.465 . S
C41 C40 1.264 . S
C41 C43 1.339 . S
C41 H68 0.931 . S
C42 C43 1.395 . S
C42 C44 1.320 . S
C43 C41 1.339 . S
C43 C42 1.395 . S
C43 H69 0.929 . S
C44 C42 1.320 . S
C44 C45 1.405 . S
C44 H70 0.930 . S
C45 C40 1.479 . S
C45 C44 1.405 . S
C45 H71 0.931 . S
U46 O47 2.454 . S
U46 O48 2.458 . S
U46 C49 2.984 . S
U46 C50 2.847 . S
U46 C63 2.882 . S
U46 O64 2.441 . S
U46 O65 2.420 . S
U46 O66 2.455 . S
U46 O67 2.449 . S
O47 U46 2.454 . S
O47 C49 1.353 . S
O48 U46 2.458 . S
O48 C49 1.286 . S
C49 U46 2.984 . S
C49 O47 1.353 . S
C49 O48 1.286 . S
C49 C51 1.363 . S
C50 C40 1.465 . S
C50 U46 2.847 . S
C50 O64 1.249 . S
C50 O65 1.202 . S
C51 C49 1.363 . S
C51 C53 1.408 . S
C51 C56 1.342 . S
C52 C53 1.310 . S
C52 C55 1.461 . S
C52 H72 0.932 . S
C53 C51 1.408 . S
C53 C52 1.310 . S
C53 H73 0.930 . S
C54 C55 1.474 . S
C54 C56 1.285 . S
C54 H74 0.929 . S
C55 C52 1.461 . S
C55 C54 1.474 . S
C56 C51 1.342 . S
C56 C54 1.285 . S
C56 H75 0.930 . S
C57 C60 1.424 . S
C57 C62 1.245 . S
C57 C63 1.428 . S
C58 C61 1.260 . S
C58 C62 1.477 . S
C58 H76 0.932 . S
C59 C60 1.384 . S
C59 C61 1.479 . S
C59 H77 0.929 . S
C60 C57 1.424 . S
C60 C59 1.384 . S
C60 H78 0.928 . S
C61 C58 1.260 . S
C61 C59 1.479 . S
C62 C57 1.245 . S
C62 C58 1.477 . S
C62 H79 0.932 . S
C63 U46 2.882 . S
C63 C57 1.428 . S
C63 O66 1.301 . S
C63 O67 1.282 . S
O64 U46 2.441 . S
O64 C50 1.249 . S
O65 U46 2.420 . S
O65 C50 1.202 . S
O66 U46 2.455 . S
O66 C63 1.301 . S
O67 U46 2.449 . S
O67 C63 1.282 . S
H68 C41 0.931 . S
H69 C43 0.929 . S
H70 C44 0.930 . S
H71 C45 0.931 . S
H72 C52 0.932 . S
H73 C53 0.930 . S
H74 C54 0.929 . S
H75 C56 0.930 . S
H76 C58 0.932 . S
H77 C59 0.929 . S
H78 C60 0.928 . S
H79 C62 0.932 . S
C80 C81 1.264 . S
C80 C85 1.479 . S
C80 C90 1.465 . S
C81 C80 1.264 . S
C81 C83 1.339 . S
C81 H108 0.931 . S
C82 C83 1.395 . S
C82 C84 1.320 . S
C83 C81 1.339 . S
C83 C82 1.395 . S
C83 H109 0.929 . S
C84 C82 1.320 . S
C84 C85 1.405 . S
C84 H110 0.930 . S
C85 C80 1.479 . S
C85 C84 1.405 . S
C85 H111 0.931 . S
U86 O87 2.454 . S
U86 O88 2.458 . S
U86 C89 2.984 . S
U86 C90 2.847 . S
U86 C103 2.882 . S
U86 O104 2.441 . S
U86 O105 2.420 . S
U86 O106 2.455 . S
U86 O107 2.449 . S
O87 U86 2.454 . S
O87 C89 1.353 . S
O88 U86 2.458 . S
O88 C89 1.286 . S
C89 U86 2.984 . S
C89 O87 1.353 . S
C89 O88 1.286 . S
C89 C91 1.363 . S
C90 C80 1.465 . S
C90 U86 2.847 . S
C90 O104 1.249 . S
C90 O105 1.202 . S
C91 C89 1.363 . S
C91 C93 1.408 . S
C91 C96 1.342 . S
C92 C93 1.310 . S
C92 C95 1.461 . S
C92 H112 0.932 . S
C93 C91 1.408 . S
C93 C92 1.310 . S
C93 H113 0.930 . S
C94 C95 1.474 . S
C94 C96 1.285 . S
C94 H114 0.929 . S
C95 C92 1.461 . S
C95 C94 1.474 . S
C96 C91 1.342 . S
C96 C94 1.285 . S
C96 H115 0.930 . S
C97 C100 1.424 . S
C97 C102 1.245 . S
C97 C103 1.428 . S
C98 C101 1.260 . S
C98 C102 1.477 . S
C98 H116 0.932 . S
C99 C100 1.384 . S
C99 C101 1.479 . S
C99 H117 0.929 . S
C100 C97 1.424 . S
C100 C99 1.384 . S
C100 H118 0.928 . S
C101 C98 1.260 . S
C101 C99 1.479 . S
C102 C97 1.245 . S
C102 C98 1.477 . S
C102 H119 0.932 . S
C103 U86 2.882 . S
C103 C97 1.428 . S
C103 O106 1.301 . S
C103 O107 1.282 . S
O104 U86 2.441 . S
O104 C90 1.249 . S
O105 U86 2.420 . S
O105 C90 1.202 . S
O106 U86 2.455 . S
O106 C103 1.301 . S
O107 U86 2.449 . S
O107 C103 1.282 . S
H108 C81 0.931 . S
H109 C83 0.929 . S
H110 C84 0.930 . S
H111 C85 0.931 . S
H112 C92 0.932 . S
H113 C93 0.930 . S
H114 C94 0.929 . S
H115 C96 0.930 . S
H116 C98 0.932 . S
H117 C99 0.929 . S
H118 C100 0.928 . S
H119 C102 0.932 . S
C120 C121 1.264 . S
C120 C125 1.479 . S
C120 C130 1.465 . S
C121 C120 1.264 . S
C121 C123 1.339 . S
C121 H148 0.931 . S
C122 C123 1.395 . S
C122 C124 1.320 . S
C123 C121 1.339 . S
C123 C122 1.395 . S
C123 H149 0.929 . S
C124 C122 1.320 . S
C124 C125 1.405 . S
C124 H150 0.930 . S
C125 C120 1.479 . S
C125 C124 1.405 . S
C125 H151 0.931 . S
U126 O127 2.454 1_554 S
U126 O128 2.458 . S
U126 C129 2.984 . S
U126 C130 2.847 1_554 S
U126 C143 2.882 . S
U126 O144 2.441 1_554 S
U126 O145 2.420 1_554 S
U126 O146 2.455 . S
U126 O147 2.449 . S
O127 U126 2.454 1_556 S
O127 C129 1.353 1_556 S
O128 U126 2.458 . S
O128 C129 1.286 . S
C129 U126 2.984 . S
C129 O127 1.353 1_554 S
C129 O128 1.286 . S
C129 C131 1.363 . S
C130 C120 1.465 . S
C130 U126 2.847 1_556 S
C130 O144 1.249 . S
C130 O145 1.202 . S
C131 C129 1.363 . S
C131 C133 1.408 1_554 S
C131 C136 1.342 . S
C132 C133 1.310 . S
C132 C135 1.461 1_556 S
C132 H152 0.932 . S
C133 C131 1.408 1_556 S
C133 C132 1.310 . S
C133 H153 0.930 . S
C134 C135 1.474 . S
C134 C136 1.285 . S
C134 H154 0.929 . S
C135 C132 1.461 1_554 S
C135 C134 1.474 . S
C136 C131 1.342 . S
C136 C134 1.285 . S
C136 H155 0.930 . S
C137 C140 1.424 . S
C137 C142 1.245 . S
C137 C143 1.428 . S
C138 C141 1.260 . S
C138 C142 1.477 . S
C138 H156 0.932 . S
C139 C140 1.384 . S
C139 C141 1.479 . S
C139 H157 0.929 . S
C140 C137 1.424 . S
C140 C139 1.384 . S
C140 H158 0.928 . S
C141 C138 1.260 . S
C141 C139 1.479 . S
C142 C137 1.245 . S
C142 C138 1.477 . S
C142 H159 0.932 . S
C143 U126 2.882 . S
C143 C137 1.428 . S
C143 O146 1.301 . S
C143 O147 1.282 . S
O144 U126 2.441 1_556 S
O144 C130 1.249 . S
O145 U126 2.420 1_556 S
O145 C130 1.202 . S
O146 U126 2.455 . S
O146 C143 1.301 . S
O147 U126 2.449 . S
O147 C143 1.282 . S
H148 C121 0.931 . S
H149 C123 0.929 . S
H150 C124 0.930 . S
H151 C125 0.931 . S
H152 C132 0.932 . S
H153 C133 0.930 . S
H154 C134 0.929 . S
H155 C136 0.930 . S
H156 C138 0.932 . S
H157 C139 0.929 . S
H158 C140 0.928 . S
H159 C142 0.932 . S
C160 C161 1.264 . S
C160 C165 1.479 . S
C160 C170 1.465 . S
C161 C160 1.264 . S
C161 C163 1.339 . S
C161 H188 0.931 . S
C162 C163 1.395 . S
C162 C164 1.320 . S
C163 C161 1.339 . S
C163 C162 1.395 . S
C163 H189 0.929 . S
C164 C162 1.320 . S
C164 C165 1.405 . S
C164 H190 0.930 . S
C165 C160 1.479 . S
C165 C164 1.405 . S
C165 H191 0.931 . S
U166 O167 2.454 . S
U166 O168 2.458 . S
U166 C169 2.984 . S
U166 C170 2.847 . S
U166 C183 2.882 . S
U166 O184 2.441 . S
U166 O185 2.420 . S
U166 O186 2.455 . S
U166 O187 2.449 . S
O167 U166 2.454 . S
O167 C169 1.353 . S
O168 U166 2.458 . S
O168 C169 1.286 . S
C169 U166 2.984 . S
C169 O167 1.353 . S
C169 O168 1.286 . S
C169 C171 1.363 . S
C170 C160 1.465 . S
C170 U166 2.847 . S
C170 O184 1.249 . S
C170 O185 1.202 . S
C171 C169 1.363 . S
C171 C173 1.408 . S
C171 C176 1.342 . S
C172 C173 1.310 . S
C172 C175 1.461 . S
C172 H192 0.932 . S
C173 C171 1.408 . S
C173 C172 1.310 . S
C173 H193 0.930 . S
C174 C175 1.474 . S
C174 C176 1.285 . S
C174 H194 0.929 . S
C175 C172 1.461 . S
C175 C174 1.474 . S
C176 C171 1.342 . S
C176 C174 1.285 . S
C176 H195 0.930 . S
C177 C180 1.424 . S
C177 C182 1.245 . S
C177 C183 1.428 . S
C178 C181 1.260 . S
C178 C182 1.477 . S
C178 H196 0.932 . S
C179 C180 1.384 . S
C179 C181 1.479 . S
C179 H197 0.929 . S
C180 C177 1.424 . S
C180 C179 1.384 . S
C180 H198 0.928 . S
C181 C178 1.260 . S
C181 C179 1.479 . S
C182 C177 1.245 . S
C182 C178 1.477 . S
C182 H199 0.932 . S
C183 U166 2.882 . S
C183 C177 1.428 . S
C183 O186 1.301 . S
C183 O187 1.282 . S
O184 U166 2.441 . S
O184 C170 1.249 . S
O185 U166 2.420 . S
O185 C170 1.202 . S
O186 U166 2.455 . S
O186 C183 1.301 . S
O187 U166 2.449 . S
O187 C183 1.282 . S
H188 C161 0.931 . S
H189 C163 0.929 . S
H190 C164 0.930 . S
H191 C165 0.931 . S
H192 C172 0.932 . S
H193 C173 0.930 . S
H194 C174 0.929 . S
H195 C176 0.930 . S
H196 C178 0.932 . S
H197 C179 0.929 . S
H198 C180 0.928 . S
H199 C182 0.932 . S
C200 C201 1.264 . S
C200 C205 1.479 . S
C200 C210 1.465 . S
C201 C200 1.264 . S
C201 C203 1.339 . S
C201 H228 0.931 . S
C202 C203 1.395 . S
C202 C204 1.320 . S
C203 C201 1.339 . S
C203 C202 1.395 . S
C203 H229 0.929 . S
C204 C202 1.320 . S
C204 C205 1.405 . S
C204 H230 0.930 . S
C205 C200 1.479 . S
C205 C204 1.405 . S
C205 H231 0.931 . S
U206 O207 2.454 . S
U206 O208 2.458 . S
U206 C209 2.984 . S
U206 C210 2.847 . S
U206 C223 2.882 . S
U206 O224 2.441 . S
U206 O225 2.420 . S
U206 O226 2.455 . S
U206 O227 2.449 . S
O207 U206 2.454 . S
O207 C209 1.353 . S
O208 U206 2.458 . S
O208 C209 1.286 . S
C209 U206 2.984 . S
C209 O207 1.353 . S
C209 O208 1.286 . S
C209 C211 1.363 . S
C210 C200 1.465 . S
C210 U206 2.847 . S
C210 O224 1.249 . S
C210 O225 1.202 . S
C211 C209 1.363 . S
C211 C213 1.408 . S
C211 C216 1.342 . S
C212 C213 1.310 . S
C212 C215 1.461 . S
C212 H232 0.932 . S
C213 C211 1.408 . S
C213 C212 1.310 . S
C213 H233 0.930 . S
C214 C215 1.474 . S
C214 C216 1.285 . S
C214 H234 0.929 . S
C215 C212 1.461 . S
C215 C214 1.474 . S
C216 C211 1.342 . S
C216 C214 1.285 . S
C216 H235 0.930 . S
C217 C220 1.424 . S
C217 C222 1.245 . S
C217 C223 1.428 . S
C218 C221 1.260 . S
C218 C222 1.477 . S
C218 H236 0.932 . S
C219 C220 1.384 . S
C219 C221 1.479 . S
C219 H237 0.929 . S
C220 C217 1.424 . S
C220 C219 1.384 . S
C220 H238 0.928 . S
C221 C218 1.260 . S
C221 C219 1.479 . S
C222 C217 1.245 . S
C222 C218 1.477 . S
C222 H239 0.932 . S
C223 U206 2.882 . S
C223 C217 1.428 . S
C223 O226 1.301 . S
C223 O227 1.282 . S
O224 U206 2.441 . S
O224 C210 1.249 . S
O225 U206 2.420 . S
O225 C210 1.202 . S
O226 U206 2.455 . S
O226 C223 1.301 . S
O227 U206 2.449 . S
O227 C223 1.282 . S
H228 C201 0.931 . S
H229 C203 0.929 . S
H230 C204 0.930 . S
H231 C205 0.931 . S
H232 C212 0.932 . S
H233 C213 0.930 . S
H234 C214 0.929 . S
H235 C216 0.930 . S
H236 C218 0.932 . S
H237 C219 0.929 . S
H238 C220 0.928 . S
H239 C222 0.932 . S
H240 C248 0.950 . S
H241 C253 0.950 . S
H242 C250 0.950 . S
H243 C252 0.950 . S
H244 C254 0.950 . S
H245 C256 0.950 . S
H246 C258 0.950 . S
H247 C259 0.950 . S
C248 H240 0.950 . S
C248 C249 1.386 1_556 S
C248 C250 1.391 . S
C249 C248 1.386 1_554 S
C249 C253 1.393 . S
C250 H242 0.950 . S
C250 C248 1.391 . S
C250 C251 1.400 1_556 S
C251 C250 1.400 1_554 S
C251 C252 1.398 . S
C251 C257 1.491 1_565 S
C252 H243 0.950 . S
C252 C251 1.398 . S
C252 C253 1.391 . S
C253 H241 0.950 . S
C253 C249 1.393 . S
C253 C252 1.391 . S
C254 H244 0.950 . S
C254 C255 1.386 . S
C254 C256 1.391 . S
C255 C254 1.386 . S
C255 C259 1.393 1_554 S
C256 H245 0.950 . S
C256 C254 1.391 . S
C256 C257 1.400 . S
C257 C251 1.491 1_545 S
C257 C256 1.400 . S
C257 C258 1.398 1_554 S
C258 H246 0.950 . S
C258 C257 1.398 1_556 S
C258 C259 1.391 . S
C259 H247 0.950 . S
C259 C255 1.393 1_556 S
C259 C258 1.391 . S
H260 C268 0.950 . S
H261 C273 0.950 . S
H262 C270 0.950 . S
H263 C272 0.950 . S
H264 C274 0.950 . S
H265 C276 0.950 . S
H266 C278 0.950 . S
H267 C279 0.950 . S
C268 H260 0.950 . S
C268 C269 1.386 . S
C268 C270 1.391 . S
C269 C268 1.386 . S
C269 C273 1.393 . S
C270 H262 0.950 . S
C270 C268 1.391 . S
C270 C271 1.400 . S
C271 C270 1.400 . S
C271 C272 1.398 . S
C271 C277 1.491 . S
C272 H263 0.950 . S
C272 C271 1.398 . S
C272 C273 1.391 . S
C273 H261 0.950 . S
C273 C269 1.393 . S
C273 C272 1.391 . S
C274 H264 0.950 . S
C274 C275 1.386 . S
C274 C276 1.391 . S
C275 C274 1.386 . S
C275 C279 1.393 . S
C276 H265 0.950 . S
C276 C274 1.391 . S
C276 C277 1.400 . S
C277 C271 1.491 . S
C277 C276 1.400 . S
C277 C278 1.398 . S
C278 H266 0.950 . S
C278 C277 1.398 . S
C278 C279 1.391 . S
C279 H267 0.950 . S
C279 C275 1.393 . S
C279 C278 1.391 . S
H280 C288 0.950 . S
H281 C293 0.950 . S
H282 C290 0.950 . S
H283 C292 0.950 . S
H284 C294 0.950 . S
H285 C296 0.950 . S
H286 C298 0.950 . S
H287 C299 0.950 . S
C288 H280 0.950 . S
C288 C289 1.386 . S
C288 C290 1.391 . S
C289 C288 1.386 . S
C289 C293 1.393 . S
C290 H282 0.950 . S
C290 C288 1.391 . S
C290 C291 1.400 . S
C291 C290 1.400 . S
C291 C292 1.398 . S
C291 C297 1.491 1_455 S
C292 H283 0.950 . S
C292 C291 1.398 . S
C292 C293 1.391 . S
C293 H281 0.950 . S
C293 C289 1.393 . S
C293 C292 1.391 . S
C294 H284 0.950 . S
C294 C295 1.386 . S
C294 C296 1.391 . S
C295 C294 1.386 . S
C295 C299 1.393 . S
C296 H285 0.950 . S
C296 C294 1.391 . S
C296 C297 1.400 . S
C297 C291 1.491 1_655 S
C297 C296 1.400 . S
C297 C298 1.398 . S
C298 H286 0.950 . S
C298 C297 1.398 . S
C298 C299 1.391 . S
C299 H287 0.950 . S
C299 C295 1.393 . S
C299 C298 1.391 . S
H300 C308 0.950 . S
H301 C313 0.950 . S
H302 C310 0.950 . S
H303 C312 0.950 . S
H304 C314 0.950 . S
H305 C316 0.950 . S
H306 C318 0.950 . S
H307 C319 0.950 . S
C308 H300 0.950 . S
C308 C309 1.386 . S
C308 C310 1.391 . S
C309 C308 1.386 . S
C309 C313 1.393 . S
C310 H302 0.950 . S
C310 C308 1.391 . S
C310 C311 1.400 . S
C311 C310 1.400 . S
C311 C312 1.398 . S
C311 C317 1.491 . S
C312 H303 0.950 . S
C312 C311 1.398 . S
C312 C313 1.391 . S
C313 H301 0.950 . S
C313 C309 1.393 . S
C313 C312 1.391 . S
C314 H304 0.950 . S
C314 C315 1.386 . S
C314 C316 1.391 . S
C315 C314 1.386 . S
C315 C319 1.393 . S
C316 H305 0.950 . S
C316 C314 1.391 . S
C316 C317 1.400 . S
C317 C311 1.491 . S
C317 C316 1.400 . S
C317 C318 1.398 . S
C318 H306 0.950 . S
C318 C317 1.398 . S
C318 C319 1.391 . S
C319 H307 0.950 . S
C319 C315 1.393 . S
C319 C318 1.391 . S
H320 C328 0.950 . S
H321 C333 0.950 . S
H322 C330 0.950 . S
H323 C332 0.950 . S
H324 C334 0.950 . S
H325 C336 0.950 . S
H326 C338 0.950 . S
H327 C339 0.950 . S
C328 H320 0.950 . S
C328 C329 1.386 . S
C328 C330 1.391 . S
C329 C328 1.386 . S
C329 C333 1.393 . S
C330 H322 0.950 . S
C330 C328 1.391 . S
C330 C331 1.400 . S
C331 C330 1.400 . S
C331 C332 1.398 . S
C331 C337 1.491 . S
C332 H323 0.950 . S
C332 C331 1.398 . S
C332 C333 1.391 . S
C333 H321 0.950 . S
C333 C329 1.393 . S
C333 C332 1.391 . S
C334 H324 0.950 . S
C334 C335 1.386 . S
C334 C336 1.391 . S
C335 C334 1.386 . S
C335 C339 1.393 . S
C336 H325 0.950 . S
C336 C334 1.391 . S
C336 C337 1.400 . S
C337 C331 1.491 . S
C337 C336 1.400 . S
C337 C338 1.398 . S
C338 H326 0.950 . S
C338 C337 1.398 . S
C338 C339 1.391 . S
C339 H327 0.950 . S
C339 C335 1.393 . S
C339 C338 1.391 . S
H340 C348 0.950 . S
H341 C353 0.950 . S
H342 C350 0.950 . S
H343 C352 0.950 1_556 S
H344 C354 0.950 . S
H345 C356 0.950 . S
H346 C358 0.950 1_554 S
H347 C359 0.950 . S
C348 H340 0.950 . S
C348 C349 1.386 . S
C348 C350 1.391 . S
C349 C348 1.386 . S
C349 C353 1.393 . S
C350 H342 0.950 . S
C350 C348 1.391 . S
C350 C351 1.400 . S
C351 C350 1.400 . S
C351 C352 1.398 . S
C351 C357 1.491 1_554 S
C352 H343 0.950 1_554 S
C352 C351 1.398 . S
C352 C353 1.391 . S
C353 H341 0.950 . S
C353 C349 1.393 . S
C353 C352 1.391 . S
C354 H344 0.950 . S
C354 C355 1.386 . S
C354 C356 1.391 . S
C355 C354 1.386 . S
C355 C359 1.393 . S
C356 H345 0.950 . S
C356 C354 1.391 . S
C356 C357 1.400 . S
C357 C351 1.491 1_556 S
C357 C356 1.400 . S
C357 C358 1.398 . S
C358 H346 0.950 1_556 S
C358 C357 1.398 . S
C358 C359 1.391 . S
C359 H347 0.950 . S
C359 C355 1.393 . S
C359 C358 1.391 . S
H360 C368 0.950 . S
H361 C373 0.950 . S
H362 C370 0.950 . S
H363 C372 0.950 . S
H364 C374 0.950 . S
H365 C376 0.950 . S
H366 C378 0.950 . S
H367 C379 0.950 . S
C368 H360 0.950 . S
C368 C369 1.386 . S
C368 C370 1.391 . S
C369 C368 1.386 . S
C369 C373 1.393 . S
C370 H362 0.950 . S
C370 C368 1.391 . S
C370 C371 1.400 . S
C371 C370 1.400 . S
C371 C372 1.398 . S
C371 C377 1.491 . S
C372 H363 0.950 . S
C372 C371 1.398 . S
C372 C373 1.391 . S
C373 H361 0.950 . S
C373 C369 1.393 . S
C373 C372 1.391 . S
C374 H364 0.950 . S
C374 C375 1.386 . S
C374 C376 1.391 . S
C375 C374 1.386 . S
C375 C379 1.393 . S
C376 H365 0.950 . S
C376 C374 1.391 . S
C376 C377 1.400 . S
C377 C371 1.491 . S
C377 C376 1.400 . S
C377 C378 1.398 . S
C378 H366 0.950 . S
C378 C377 1.398 . S
C378 C379 1.391 . S
C379 H367 0.950 . S
C379 C375 1.393 . S
C379 C378 1.391 . S
H380 C388 0.950 . S
H381 C393 0.950 . S
H382 C390 0.950 . S
H383 C392 0.950 . S
H384 C394 0.950 . S
H385 C396 0.950 . S
H386 C398 0.950 . S
H387 C399 0.950 . S
C388 H380 0.950 . S
C388 C389 1.386 . S
C388 C390 1.391 . S
C389 C388 1.386 . S
C389 C393 1.393 . S
C390 H382 0.950 . S
C390 C388 1.391 . S
C390 C391 1.400 . S
C391 C390 1.400 . S
C391 C392 1.398 . S
C391 C397 1.491 . S
C392 H383 0.950 . S
C392 C391 1.398 . S
C392 C393 1.391 . S
C393 H381 0.950 . S
C393 C389 1.393 . S
C393 C392 1.391 . S
C394 H384 0.950 . S
C394 C395 1.386 . S
C394 C396 1.391 . S
C395 C394 1.386 . S
C395 C399 1.393 . S
C396 H385 0.950 . S
C396 C394 1.391 . S
C396 C397 1.400 . S
C397 C391 1.491 . S
C397 C396 1.400 . S
C397 C398 1.398 . S
C398 H386 0.950 . S
C398 C397 1.398 . S
C398 C399 1.391 . S
C399 H387 0.950 . S
C399 C395 1.393 . S
C399 C398 1.391 . S
H400 C408 0.950 . S
H401 C413 0.950 . S
H402 C410 0.950 1_554 S
H403 C412 0.950 . S
H404 C414 0.950 . S
H405 C416 0.950 . S
H406 C418 0.950 . S
H407 C419 0.950 . S
C408 H400 0.950 . S
C408 C409 1.386 . S
C408 C410 1.391 . S
C409 C408 1.386 . S
C409 C413 1.393 . S
C410 H402 0.950 1_556 S
C410 C408 1.391 . S
C410 C411 1.400 . S
C411 C410 1.400 . S
C411 C412 1.398 . S
C411 C417 1.491 1_556 S
C412 H403 0.950 . S
C412 C411 1.398 . S
C412 C413 1.391 . S
C413 H401 0.950 . S
C413 C409 1.393 . S
C413 C412 1.391 . S
C414 H404 0.950 . S
C414 C415 1.386 . S
C414 C416 1.391 . S
C415 C414 1.386 . S
C415 C419 1.393 . S
C416 H405 0.950 . S
C416 C414 1.391 . S
C416 C417 1.400 . S
C417 C411 1.491 1_554 S
C417 C416 1.400 . S
C417 C418 1.398 . S
C418 H406 0.950 . S
C418 C417 1.398 . S
C418 C419 1.391 . S
C419 H407 0.950 . S
C419 C415 1.393 . S
C419 C418 1.391 . S
C249 C15 1.499 . S
C255 C135 1.500 . S
C269 C175 1.499 . S
C275 C55 1.500 . S
C289 C95 1.504 . S
C295 C215 1.504 . S
C309 C2 1.480 . S
C315 C82 1.495 . S
C329 C42 1.492 . S
C335 C122 1.480 . S
C349 C162 1.493 . S
C355 C101 1.494 . S
C369 C202 1.491 . S
C375 C141 1.487 . S
C389 C181 1.483 . S
C395 C21 1.486 . S
C409 C221 1.498 . S
C415 C61 1.489 . S
