# Generated by pormake.
# Topology snp, (6)-cn, num edge types: 1
# Building blocks:
#     Node 0, Type 0, BuildingBlock: KUMJIN_clean_sbu_0, # of connection points: 6
#     Node 1, Type 0, BuildingBlock: KUMJIN_clean_sbu_0, # of connection points: 6
#     Node 2, Type 0, BuildingBlock: KUMJIN_clean_sbu_0, # of connection points: 6
#     Node 3, Type 0, BuildingBlock: KUMJIN_clean_sbu_0, # of connection points: 6
#     Edge 4, Type (0, 0), BuildingBlock: KIFKEQ_clean_linker_1, # of connection points: 2
#     Edge 5, Type (0, 0), BuildingBlock: KIFKEQ_clean_linker_1, # of connection points: 2
#     Edge 6, Type (0, 0), BuildingBlock: KIFKEQ_clean_linker_1, # of connection points: 2
#     Edge 7, Type (0, 0), BuildingBlock: KIFKEQ_clean_linker_1, # of connection points: 2
#     Edge 8, Type (0, 0), BuildingBlock: KIFKEQ_clean_linker_1, # of connection points: 2
#     Edge 9, Type (0, 0), BuildingBlock: KIFKEQ_clean_linker_1, # of connection points: 2
#     Edge 10, Type (0, 0), BuildingBlock: KIFKEQ_clean_linker_1, # of connection points: 2
#     Edge 11, Type (0, 0), BuildingBlock: KIFKEQ_clean_linker_1, # of connection points: 2
#     Edge 12, Type (0, 0), BuildingBlock: KIFKEQ_clean_linker_1, # of connection points: 2
#     Edge 13, Type (0, 0), BuildingBlock: KIFKEQ_clean_linker_1, # of connection points: 2
#     Edge 14, Type (0, 0), BuildingBlock: KIFKEQ_clean_linker_1, # of connection points: 2
#     Edge 15, Type (0, 0), BuildingBlock: KIFKEQ_clean_linker_1, # of connection points: 2
# Relax obj value: 0.254
# Max RMSD: 0.222
# Mean RMSD: 0.205
data_MOF--net-snp--node1-KUMJIN_clean_sbu_0--edge1-KIFKEQ_clean_linker_1
_symmetry_space_group_name_H-M    P1
_symmetry_Int_Tables_number       1
_symmetry_cell_setting            triclinic
loop_
_symmetry_equiv_pos_as_xyz
'x, y, z'
_cell_length_a     25.739678
_cell_length_b     26.729203
_cell_length_c     31.267295
_cell_angle_alpha  114.05721
_cell_angle_beta   105.23286
_cell_angle_gamma 75.939813
loop_
_atom_site_label
_atom_site_type_symbol
_atom_site_fract_x
_atom_site_fract_y
_atom_site_fract_z
_atom_type_partial_charge
Eu0 Eu 0.32163 0.12793 0.14348 0.0
C1 C 0.41833 0.90327 1.04003 0.0
C2 C 0.39995 0.82539 1.05199 0.0
C3 C 0.40886 0.81526 0.9734 0.0
C4 C 0.40842 0.88114 0.06979 0.0
C5 C 0.41933 0.87 0.99154 0.0
C6 C 0.3993 0.79298 1.00356 0.0
C7 C 0.44328 0.94621 0.98225 0.0
N8 N 0.42837 0.95651 0.05851 0.0
C9 C 0.44201 0.97765 1.03037 0.0
C10 C 0.43141 0.89237 0.96262 0.0
Eu11 Eu 0.42046 1.00691 0.14032 0.0
N12 N 0.40886 0.91334 0.11647 0.0
C13 C 0.40485 0.89125 0.14782 0.0
C14 C 0.39337 0.8034 0.08357 0.0
C15 C 0.39646 0.83633 0.1318 0.0
H16 H 0.45003 0.01943 1.04358 0.0
H17 H 0.39204 0.81956 0.15664 0.0
H18 H 0.39234 0.7503 0.98923 0.0
H19 H 0.4529 0.96386 0.96018 0.0
H20 H 0.4057 0.91676 0.1849 0.0
H21 H 0.47722 0.24776 0.2781 0.0
H22 H 0.3868 0.76081 0.07121 0.0
H23 H 0.19707 0.12437 0.15885 0.0
H24 H 0.44521 0.16824 0.21041 0.0
H25 H 0.13247 0.17978 0.21247 0.0
H26 H 0.40899 0.78946 0.93622 0.0
H27 H 0.41263 0.31821 0.32677 0.0
H28 H 0.3185 0.34809 0.34513 0.0
H29 H 0.43223 0.86826 0.92523 0.0
H30 H 0.22532 0.32842 0.32845 0.0
N31 N 0.36121 0.19489 0.2159 0.0
C32 C 0.41547 0.1995 0.22902 0.0
C33 C 0.39776 0.28395 0.29583 0.0
C34 C 0.34307 0.27711 0.28459 0.0
C35 C 0.4343 0.24431 0.26846 0.0
C36 C 0.32579 0.23157 0.24395 0.0
H37 H 0.15683 0.26424 0.2809 0.0
N38 N 0.25975 0.17377 0.19775 0.0
C39 C 0.17216 0.19151 0.21948 0.0
C40 C 0.27365 0.22008 0.23506 0.0
C41 C 0.20946 0.15948 0.18952 0.0
C42 C 0.18588 0.23931 0.25779 0.0
C43 C 0.23709 0.25418 0.26604 0.0
O44 O 0.24704 0.17802 0.12141 0.0
O45 O 0.36364 0.05024 0.09229 0.0
O46 O 0.46033 0.06335 0.12579 0.0
O47 O 0.39767 0.14335 0.12828 0.0
O48 O 0.27914 0.06451 0.07911 0.0
O49 O 0.32128 0.1753 0.10039 0.0
O50 O 0.49116 0.03507 0.19519 0.0
O51 O 0.38197 0.08822 0.18903 0.0
O52 O 0.28088 0.06344 0.14836 0.0
O53 O 0.34149 0.97994 0.1325 0.0
O54 O 0.39175 0.02123 0.20854 0.0
O55 O 0.49623 0.94979 0.14806 0.0
C56 C 0.32117 0.03259 0.06222 0.0
C57 C 0.23966 0.17911 1.04489 0.0
C58 C 0.22138 0.19823 0.97208 0.0
C59 C 0.24757 0.2087 1.01976 0.0
C60 C 0.18743 0.15715 0.9496 0.0
C61 C 0.20548 0.13833 1.02186 0.0
C62 C 0.17961 0.1274 0.9745 0.0
C63 C 0.44635 0.11297 0.12292 0.0
C64 C 0.26868 0.19021 0.09444 0.0
C65 C 0.25309 0.30134 0.30474 0.0
C66 C 0.30604 0.31272 0.31408 0.0
C67 C 0.375 0.07384 0.22107 0.0
C68 C 0.54546 0.96888 0.22665 0.0
C69 C 0.51335 0.95888 0.25147 0.0
C70 C 0.53727 0.94223 0.29044 0.0
C71 C 0.59422 0.93653 0.30487 0.0
C72 C 0.60217 0.96267 0.24133 0.0
C73 C 0.62638 0.94669 0.28036 0.0
C74 C 0.29375 1.00941 0.14068 0.0
C75 C 0.52018 0.98608 0.18573 0.0
H76 H 0.27484 0.23936 1.03725 0.0
H77 H 0.16644 0.14851 0.91303 0.0
H78 H 0.19921 0.11447 1.04017 0.0
H79 H 0.15351 0.09574 0.95707 0.0
H80 H 0.4697 0.96477 0.24098 0.0
H81 H 0.61392 0.92347 0.33458 0.0
H82 H 0.62767 0.97027 0.2227 0.0
H83 H 0.67023 0.94193 0.29155 0.0
Eu84 Eu 0.07842 0.32752 0.54232 0.0
C85 C 0.3014 0.28962 0.52883 0.0
C86 C 0.35892 0.20718 0.53898 0.0
C87 C 0.37164 0.23913 0.48063 0.0
C88 C 0.31584 0.25161 0.55121 0.0
C89 C 0.33005 0.28421 0.49388 0.0
C90 C 0.38584 0.20054 0.50294 0.0
C91 C 0.27445 0.3682 0.48707 0.0
N92 N 0.25972 0.33194 0.54122 0.0
C93 C 0.24644 0.37134 0.52103 0.0
C94 C 0.31623 0.32432 0.47322 0.0
Eu95 Eu 0.21843 0.3366 0.60315 0.0
N96 N 0.28966 0.25934 0.5864 0.0
C97 C 0.30831 0.22721 0.61369 0.0
C98 C 0.37493 0.17161 0.56434 0.0
C99 C 0.35008 0.18225 0.6024 0.0
H100 H 0.21374 0.40518 0.5298 0.0
H101 H 0.36361 0.15635 0.62352 0.0
H102 H 0.41861 0.16643 0.49286 0.0
H103 H 0.2632 0.39934 0.4711 0.0
H104 H 0.29102 0.23655 0.64452 0.0
H105 H 0.9931 0.49373 0.69255 0.0
H106 H 0.40773 0.13706 0.55594 0.0
H107 H 0.03956 0.2037 0.47352 0.0
H108 H 0.05993 0.44676 0.64018 0.0
H109 H 0.96666 0.15197 0.46241 0.0
H110 H 0.39349 0.23406 0.4535 0.0
H111 H 0.91477 0.44956 0.68288 0.0
H112 H 0.86517 0.368 0.64065 0.0
H113 H 0.33728 0.3216 0.44635 0.0
H114 H 0.8588 0.27489 0.57937 0.0
N115 N 0.01916 0.37652 0.59837 0.0
C116 C 0.02531 0.4271 0.6339 0.0
C117 C 0.94349 0.42887 0.65879 0.0
C118 C 0.93753 0.3769 0.62292 0.0
C119 C 0.98766 0.45391 0.66438 0.0
C120 C 0.97617 0.35152 0.59254 0.0
H121 H 0.89673 0.19391 0.51344 0.0
N122 N 0.01179 0.27394 0.53088 0.0
C123 C 0.96816 0.19294 0.48973 0.0
C124 C 0.97276 0.29857 0.55823 0.0
C125 C 1.00951 0.22232 0.49625 0.0
C126 C 0.92861 0.2169 0.51845 0.0
C127 C 0.93043 0.27033 0.55309 0.0
O128 O 1.00271 0.33418 0.49173 0.0
O129 O 0.16476 0.31377 0.53082 0.0
O130 O 0.18118 0.41886 0.59648 0.0
O131 O 0.08838 0.41738 0.56658 0.0
O132 O 0.11889 0.25015 0.48959 0.0
O133 O 0.07394 0.35884 0.48667 0.0
O134 O 0.23954 0.41861 0.64978 0.0
O135 O 0.13173 0.35209 0.61418 0.0
O136 O 0.10754 0.25127 0.56159 0.0
O137 O 0.20008 0.25456 0.59626 0.0
O138 O 0.19071 0.33632 0.66732 0.0
O139 O 0.29571 0.34562 0.65344 0.0
C140 C 0.16566 0.26544 0.49812 0.0
C141 C 0.98946 0.41125 0.46957 0.0
C142 C 0.94645 0.46762 0.42171 0.0
C143 C 0.97835 0.41889 0.42639 0.0
C144 C 0.92629 0.50958 0.46095 0.0
C145 C 0.96973 0.45357 0.50909 0.0
C146 C 0.93862 0.50273 0.50478 0.0
C147 C 0.13181 0.44228 0.58306 0.0
C148 C 0.02179 0.35891 0.47234 0.0
C149 C 0.89154 0.29599 0.58277 0.0
C150 C 0.89508 0.34908 0.61757 0.0
C151 C 0.13847 0.3463 0.6543 0.0
C152 C 0.2911 0.42354 0.72497 0.0
C153 C 0.28745 0.39227 0.75048 0.0
C154 C 0.28787 0.41681 0.79972 0.0
C155 C 0.29459 0.47292 0.82362 0.0
C156 C 0.2978 0.47933 0.74929 0.0
C157 C 0.30001 0.50372 0.79851 0.0
C158 C 0.15506 0.23222 0.58335 0.0
C159 C 0.2843 0.39929 0.67276 0.0
H160 H 0.99296 0.38588 0.3957 0.0
H161 H 0.90069 0.54692 0.45748 0.0
H162 H 0.97807 0.44854 0.543 0.0
H163 H 0.92325 0.53512 0.53522 0.0
H164 H 0.28361 0.34882 0.73175 0.0
H165 H 0.29434 0.49347 0.86142 0.0
H166 H 0.30053 0.50415 0.7301 0.0
H167 H 0.30477 0.54694 0.8171 0.0
Eu168 Eu 0.86304 0.20489 1.01222 0.0
C169 C 0.91922 0.97415 1.02846 0.0
C170 C 0.83314 0.94016 0.98942 0.0
C171 C 0.91785 0.87552 0.98341 0.0
C172 C 0.86275 0.98441 1.01805 0.0
C173 C 0.94714 0.91932 1.0126 0.0
C174 C 0.86101 0.88597 0.97161 0.0
C175 C 0.03049 0.95418 0.05935 0.0
N176 N 0.94677 0.01733 0.0559 0.0
C177 C 1.00134 1.00792 0.07335 0.0
C178 C 1.00353 0.90986 1.02791 0.0
Eu179 Eu 0.89402 0.10655 0.08097 0.0
N180 N 0.83677 0.03735 1.03576 0.0
C181 C 0.78103 0.04817 1.02705 0.0
C182 C 0.77629 0.95153 0.97961 0.0
C183 C 0.75018 1.0057 0.99876 0.0
H184 H 0.02234 0.0423 0.0976 0.0
H185 H 0.70613 0.01489 0.99169 0.0
H186 H 0.83889 0.85166 0.94936 0.0
H187 H 0.07365 0.94676 0.07287 0.0
H188 H 0.75932 0.08927 1.04097 0.0
H189 H 0.99201 0.36324 0.12239 0.0
H190 H 0.75218 0.91873 0.95766 0.0
H191 H 0.73461 0.22197 0.95437 0.0
H192 H 0.97136 0.26868 0.07253 0.0
H193 H 0.65596 0.297 0.95566 0.0
H194 H 0.9387 0.83328 0.97045 0.0
H195 H 0.91711 0.44283 0.13665 0.0
H196 H 0.81718 0.47878 0.11864 0.0
H197 H 0.02632 0.8683 1.01694 0.0
H198 H 0.72545 0.46069 0.07309 0.0
N199 N 0.88563 0.29427 0.06045 0.0
C200 C 0.93839 0.30316 0.07854 0.0
C201 C 0.90786 0.40142 0.11485 0.0
C202 C 0.85424 0.39246 0.09311 0.0
C203 C 0.95025 0.35665 0.10678 0.0
C204 C 0.84446 0.33771 0.06521 0.0
H205 H 0.66509 0.39313 1.01154 0.0
N206 N 0.78659 0.27487 1.01026 0.0
C207 C 0.69422 0.30616 0.97964 0.0
C208 C 0.79312 0.32762 1.03952 0.0
C209 C 0.73875 0.26385 0.97892 0.0
C210 C 0.69949 0.36032 1.01134 0.0
C211 C 0.74972 0.37185 1.04112 0.0
O212 O 0.84929 0.19712 0.93694 0.0
O213 O 0.86738 0.11937 1.01054 0.0
O214 O 0.9557 0.08505 1.03476 0.0
O215 O 0.95258 0.16792 1.02534 0.0
O216 O 0.81352 0.13989 0.95638 0.0
O217 O 0.92577 0.21617 0.98156 0.0
O218 O 0.94604 0.10483 0.14932 0.0
O219 O 0.88652 0.19308 0.08285 0.0
O220 O 0.78753 0.21729 1.04426 0.0
O221 O 0.8111 0.15932 0.08924 0.0
O222 O 0.9519 0.16794 0.12815 0.0
O223 O 0.86263 0.09512 0.13544 0.0
C224 C 0.83292 0.10071 0.97301 0.0
C225 C 0.89632 0.25229 0.91847 0.0
C226 C 0.92849 0.28609 0.86704 0.0
C227 C 0.93158 0.24456 0.88635 0.0
C228 C 0.8905 0.33452 0.8812 0.0
C229 C 0.85985 0.302 0.93109 0.0
C230 C 0.85708 0.34239 0.91278 0.0
C231 C 0.97356 0.11569 1.01914 0.0
C232 C 0.89619 0.2101 0.93951 0.0
C233 C 0.7584 0.42619 0.07098 0.0
C234 C 0.81063 0.43649 0.09692 0.0
C235 C 0.92592 0.20924 0.11587 0.0
C236 C 0.92643 0.04853 0.18538 0.0
C237 C 0.94255 0.05664 0.23561 0.0
C238 C 0.95893 1.00995 0.25113 0.0
C239 C 0.96124 0.95669 0.21498 0.0
C240 C 0.927 0.99404 0.15249 0.0
C241 C 0.94503 0.94902 0.16692 0.0
C242 C 0.77681 0.19586 0.0723 0.0
C243 C 0.90924 0.09458 0.1652 0.0
H244 H 0.96024 0.20661 0.87604 0.0
H245 H 0.88673 0.36701 0.86777 0.0
H246 H 0.83296 0.30968 0.95523 0.0
H247 H 0.82841 0.38034 0.92308 0.0
H248 H 0.94136 0.09837 0.26198 0.0
H249 H 0.97568 0.91983 0.22374 0.0
H250 H 0.91342 0.98595 0.11501 0.0
H251 H 0.94625 0.90738 0.14036 0.0
Eu252 Eu 0.06468 0.89937 0.62703 0.0
C253 C 0.28981 0.95094 0.73693 0.0
C254 C 0.30003 0.04771 0.76929 0.0
C255 C 0.35024 0.98826 0.81284 0.0
C256 C 0.27553 1.00257 0.73396 0.0
C257 C 0.32884 0.94271 0.77566 0.0
C258 C 0.3359 0.04078 0.80961 0.0
C259 C 0.32665 0.84457 0.73584 0.0
N260 N 0.26837 0.90803 0.70025 0.0
C261 C 0.28756 0.85498 0.69859 0.0
C262 C 0.34668 0.88872 0.77501 0.0
Eu263 Eu 0.20019 0.92906 0.63889 0.0
N264 N 0.24074 1.00766 0.69458 0.0
C265 C 0.23261 0.05559 0.68614 0.0
C266 C 0.28998 0.09756 0.7618 0.0
C267 C 0.25739 0.10095 0.71942 0.0
H268 H 0.27323 0.82008 0.66882 0.0
H269 H 0.25148 0.1385 0.71242 0.0
H270 H 0.3543 0.07522 0.83756 0.0
H271 H 0.34099 0.80245 0.73443 0.0
H272 H 0.20678 0.05908 0.65383 0.0
H273 H 0.966 0.87314 0.4436 0.0
H274 H 0.30897 0.13282 0.78752 0.0
H275 H 1.00469 0.96502 0.72521 0.0
H276 H 0.03215 0.84854 0.50776 0.0
H277 H 0.92768 0.03762 0.75067 0.0
H278 H 0.37938 0.98293 0.84332 0.0
H279 H 0.89512 0.95581 0.46373 0.0
H280 H 0.84783 0.03286 0.52653 0.0
H281 H 0.3767 0.8806 0.80394 0.0
H282 H 0.83689 0.07719 0.61042 0.0
N283 N 1.00049 0.91783 0.56358 0.0
C284 C 1.00163 0.88488 0.51701 0.0
C285 C 0.92413 0.94527 0.49203 0.0
C286 C 0.92032 0.97596 0.53988 0.0
C287 C 0.96397 0.89849 0.48053 0.0
C288 C 0.9591 0.96034 0.5753 0.0
H289 H 0.86555 0.07817 0.69395 0.0
N290 N 0.9883 0.96533 0.65474 0.0
C291 C 0.93453 0.0235 0.71458 0.0
C292 C 0.95259 0.98473 0.62234 0.0
C293 C 0.97837 0.98223 0.6999 0.0
C294 C 0.89958 0.04634 0.68249 0.0
C295 C 0.90765 0.02621 0.63545 0.0
O296 O 1.00245 0.84478 0.59478 0.0
O297 O 0.15006 0.89976 0.66902 0.0
O298 O 0.19497 0.83728 0.61553 0.0
O299 O 0.11187 0.84129 0.56948 0.0
O300 O 0.09066 0.91393 0.70711 0.0
O301 O 0.07302 0.82475 0.6429 0.0
O302 O 0.26067 0.86778 0.59873 0.0
O303 O 0.11754 0.91717 0.58815 0.0
O304 O 0.06407 0.99121 0.66791 0.0
O305 O 0.15663 1.00131 0.69317 0.0
O306 O 0.14959 0.98627 0.60052 0.0
O307 O 0.24043 0.94918 0.59568 0.0
C308 C 0.14251 0.9102 0.7108 0.0
C309 C 0.9939 0.78858 0.63381 0.0
C310 C 0.93599 0.80006 0.68863 0.0
C311 C 0.96671 0.82274 0.67169 0.0
C312 C 0.9327 0.7431 0.66708 0.0
C313 C 0.98974 0.73196 0.61257 0.0
C314 C 0.95932 0.70937 0.62914 0.0
C315 C 0.15715 0.81119 0.58191 0.0
C316 C 0.02732 0.81032 0.61586 0.0
C317 C 0.87121 0.04482 0.60089 0.0
C318 C 0.8775 0.01968 0.55315 0.0
C319 C 0.10951 0.95957 0.57642 0.0
C320 C 0.26155 0.87564 0.52633 0.0
C321 C 0.29676 0.88699 0.50503 0.0
C322 C 0.29076 0.86717 0.45504 0.0
C323 C 0.24907 0.83551 0.42679 0.0
C324 C 0.22019 0.84415 0.49751 0.0
C325 C 0.21414 0.82412 0.44798 0.0
C326 C 0.10408 0.01955 0.69507 0.0
C327 C 0.26647 0.89943 0.57845 0.0
H328 H 0.97038 0.8664 0.68843 0.0
H329 H 0.90919 0.72478 0.67937 0.0
H330 H 1.01006 0.7051 0.58313 0.0
H331 H 0.95645 0.66556 0.61257 0.0
H332 H 0.32794 0.91234 0.5274 0.0
H333 H 0.24373 0.81911 0.38828 0.0
H334 H 0.19229 0.83552 0.51326 0.0
H335 H 0.1821 0.79989 0.42593 0.0
H336 H 1.00596 0.0159 0.95257 0.0
H337 H 0.06324 0.16416 0.06035 0.0
H338 H 0.0861 0.95906 0.98087 0.0
H339 H 0.1434 0.10811 0.08747 0.0
H340 H 0.20586 0.03431 0.18438 0.0
H341 H 0.12215 0.05141 0.13153 0.0
H342 H 0.19278 0.93502 1.01011 0.0
H343 H 0.27518 0.91451 0.06441 0.0
C344 C 0.03741 0.03642 0.98039 0.0
C345 C 0.02733 0.09363 1.00704 0.0
C346 C 0.08275 1.00382 0.99682 0.0
C347 C 0.11823 0.0295 1.03842 0.0
C348 C 0.11456 0.08754 0.05692 0.0
C349 C 0.06952 0.11983 1.04045 0.0
C350 C 0.20204 1.00888 0.14682 0.0
C351 C 0.24824 0.97901 0.12712 0.0
C352 C 0.15464 0.01987 0.11637 0.0
C353 C 0.15393 0.99836 0.06703 0.0
C354 C 0.19405 0.95447 1.0482 0.0
C355 C 0.24075 0.94243 0.07934 0.0
H356 H 1.00552 0.08709 0.68685 0.0
H357 H 0.16801 0.08885 0.77093 0.0
H358 H 1.00816 0.1751 0.68331 0.0
H359 H 0.17049 0.17573 0.76679 0.0
H360 H 0.21466 0.23656 0.67002 0.0
H361 H 0.1804 0.22592 0.72917 0.0
H362 H 0.05286 0.14384 0.62001 0.0
H363 H 0.08452 0.15984 0.56111 0.0
C364 C 0.04073 0.10739 0.70678 0.0
C365 C 0.08943 0.07832 0.72371 0.0
C366 C 0.04247 0.15788 0.70445 0.0
C367 C 0.09348 0.17541 0.71671 0.0
C368 C 0.13302 0.1585 0.75081 0.0
C369 C 0.13148 0.10838 0.75366 0.0
C370 C 0.18027 0.21463 0.658 0.0
C371 C 0.15174 0.19992 0.61066 0.0
C372 C 0.15987 0.2094 0.69263 0.0
C373 C 0.1128 0.18532 0.68039 0.0
C374 C 0.08821 0.16435 0.63173 0.0
C375 C 0.10737 0.1717 0.59729 0.0
H376 H 0.67716 0.20169 1.01297 0.0
H377 H 0.75211 0.21472 0.15696 0.0
H378 H 0.59078 0.19152 1.02631 0.0
H379 H 0.66665 0.20486 0.17023 0.0
H380 H 0.55548 0.07864 0.13926 0.0
H381 H 0.62823 0.11315 0.12902 0.0
H382 H 0.51097 0.23321 0.08018 0.0
H383 H 0.43654 0.19856 0.09101 0.0
C384 C 0.67454 0.20494 1.04805 0.0
C385 C 0.72149 0.20885 0.08389 0.0
C386 C 0.62518 0.19874 0.05559 0.0
C387 C 0.62219 0.19633 0.09906 0.0
C388 C 0.66781 0.20566 0.13613 0.0
C389 C 0.71672 0.21173 0.12863 0.0
C390 C 0.54462 0.11241 0.12629 0.0
C391 C 0.4898 0.13572 0.116 0.0
C392 C 0.58666 0.1325 0.12074 0.0
C393 C 0.57557 0.17632 0.10424 0.0
C394 C 0.52079 0.19946 0.09308 0.0
C395 C 0.47828 0.17976 0.09945 0.0
H396 H 0.07926 0.47971 0.51154 0.0
H397 H 0.17698 0.52917 0.65266 0.0
H398 H 0.08786 0.56472 0.50441 0.0
H399 H 0.18307 0.61577 0.64737 0.0
H400 H 0.23597 0.7398 0.61564 0.0
H401 H 0.22735 0.6503 0.61308 0.0
H402 H 0.06793 0.65902 0.52407 0.0
H403 H 0.07762 0.74788 0.52551 0.0
C404 C 0.10092 0.50986 0.5417 0.0
C405 C 0.1271 0.49822 0.58278 0.0
C406 C 0.10623 0.55861 0.53761 0.0
C407 C 0.13723 0.59718 0.57491 0.0
C408 C 0.16064 0.58649 0.61707 0.0
C409 C 0.15636 0.53728 0.62062 0.0
C410 C 0.1993 0.72246 0.59512 0.0
C411 C 0.1568 0.75202 0.57208 0.0
C412 C 0.19393 0.67119 0.59413 0.0
C413 C 0.1457 0.64816 0.57031 0.0
C414 C 0.10529 0.6755 0.54365 0.0
C415 C 0.11085 0.72671 0.54442 0.0
H416 H 0.17796 0.3086 0.43593 0.0
H417 H 0.22688 0.16213 0.47115 0.0
H418 H 0.2296 0.26427 0.3705 0.0
H419 H 0.27678 0.11681 0.40436 0.0
H420 H 0.29099 0.04365 0.23862 0.0
H421 H 0.24235 0.09016 0.30567 0.0
H422 H 0.34299 0.21861 0.36544 0.0
H423 H 0.39371 0.16982 0.29945 0.0
C424 C 0.20084 0.26739 0.43041 0.0
C425 C 0.20055 0.24009 0.46049 0.0
C426 C 0.22998 0.24172 0.39248 0.0
C427 C 0.25804 0.18709 0.38224 0.0
C428 C 0.25612 0.15903 0.41132 0.0
C429 C 0.22775 0.1851 0.44978 0.0
C430 C 0.30173 0.08268 0.26518 0.0
C431 C 0.34318 0.10555 0.26092 0.0
C432 C 0.27428 0.109 0.30414 0.0
C433 C 0.28769 0.159 0.34065 0.0
C434 C 0.33048 0.18098 0.33747 0.0
C435 C 0.35887 0.15366 0.29898 0.0
H436 H 0.05396 0.28215 0.62471 0.0
H437 H 0.13951 0.39483 0.75002 0.0
H438 H 1.00278 0.26756 0.67256 0.0
H439 H 0.09366 0.37499 0.79948 0.0
H440 H 0.03914 0.29067 0.88054 0.0
H441 H 0.08594 0.30728 0.82937 0.0
H442 H 0.93845 0.29683 0.72356 0.0
H443 H 0.89255 0.27983 0.77446 0.0
C444 C 0.06061 0.3058 0.66218 0.0
C445 C 0.09978 0.34184 0.68214 0.0
C446 C 0.03192 0.29619 0.69051 0.0
C447 C 0.04394 0.31896 0.74092 0.0
C448 C 0.08321 0.35521 0.76115 0.0
C449 C 0.10972 0.36683 0.73245 0.0
C450 C 0.01715 0.2902 0.84574 0.0
C451 C 0.96197 0.28233 0.83165 0.0
C452 C 0.04377 0.30101 0.81648 0.0
C453 C 0.0164 0.30453 0.77178 0.0
C454 C 0.96184 0.29445 0.75712 0.0
C455 C 0.93528 0.28413 0.78645 0.0
H456 H 0.05677 0.05519 0.56302 0.0
H457 H 0.10018 0.88227 0.48254 0.0
H458 H 0.02077 0.07331 0.48889 0.0
H459 H 0.06199 0.89946 0.40804 0.0
H460 H 0.93258 0.94254 0.28716 0.0
H461 H 0.96796 0.93064 0.36299 0.0
H462 H 0.05199 0.07073 0.41322 0.0
H463 H 0.01887 0.08094 0.33494 0.0
C464 C 0.0576 0.02067 0.52947 0.0
C465 C 0.0797 0.96686 0.52964 0.0
C466 C 0.03726 0.03119 0.4866 0.0
C467 C 0.03765 0.98808 0.4415 0.0
C468 C 0.05999 0.93407 0.44157 0.0
C469 C 0.08162 0.92391 0.48461 0.0
C470 C 0.95913 0.97091 0.31373 0.0
C471 C 0.97349 1.01203 0.30301 0.0
C472 C 0.97955 0.96385 0.35784 0.0
C473 C 0.01419 0.99862 0.3948 0.0
C474 C 0.02591 0.04241 0.38586 0.0
C475 C 1.00639 0.0487 0.34075 0.0
H476 H 0.21449 0.84164 0.7533 0.0
H477 H 0.1496 1.01341 0.78123 0.0
H478 H 0.26678 0.86626 0.83515 0.0
H479 H 0.20288 0.03886 0.86157 0.0
H480 H 0.32671 0.07885 0.99988 0.0
H481 H 0.2904 0.0481 0.91397 0.0
H482 H 0.25749 0.89906 0.91725 0.0
H483 H 0.29436 0.92997 1.00266 0.0
C484 C 0.21298 0.88501 0.77615 0.0
C485 C 0.1809 0.92586 0.75859 0.0
C486 C 0.24247 0.89926 0.82365 0.0
C487 C 0.2407 0.95507 0.85573 0.0
C488 C 0.20765 0.99567 0.83821 0.0
C489 C 0.17743 0.98114 0.79123 0.0
C490 C 0.31351 0.03859 0.98193 0.0
C491 C 0.31465 1.00655 1.00861 0.0
C492 C 0.29163 0.0212 0.93249 0.0
C493 C 0.26997 0.97095 0.90769 0.0
C494 C 0.27375 0.93773 0.93415 0.0
C495 C 0.29506 0.95552 0.98361 0.0
H496 H 0.9206 0.01787 0.96375 0.0
H497 H 0.75304 0.05495 0.90095 0.0
H498 H 0.93313 0.93483 0.89517 0.0
H499 H 0.76632 0.97199 0.82939 0.0
H500 H 0.93866 0.77834 0.76717 0.0
H501 H 0.90051 0.84001 0.8382 0.0
H502 H 0.83407 0.96274 0.77359 0.0
H503 H 0.87239 0.90129 0.70262 0.0
C504 C 0.8857 1.00727 0.93646 0.0
C505 C 0.8357 0.04274 0.93883 0.0
C506 C 0.89292 0.95942 0.89658 0.0
C507 C 0.85074 0.94715 0.85691 0.0
C508 C 0.79947 0.98061 0.85974 0.0
C509 C 0.79189 0.02779 0.90066 0.0
C510 C 0.9149 0.81801 0.76778 0.0
C511 C 0.90877 0.83533 0.72964 0.0
C512 C 0.89303 0.85308 0.80827 0.0
C513 C 0.86394 0.9057 0.811 0.0
C514 C 0.85549 0.92193 0.77194 0.0
C515 C 0.87805 0.88719 0.73172 0.0
H516 H 0.45199 0.88378 0.25083 0.0
H517 H 0.54423 0.97408 0.38671 0.0
H518 H 0.3929 0.86697 0.29134 0.0
H519 H 0.485 0.95729 0.42751 0.0
H520 H 0.40138 0.8651 0.481 0.0
H521 H 0.46161 0.88345 0.44217 0.0
H522 H 0.32302 0.91665 0.33902 0.0
H523 H 0.263 0.89806 0.37765 0.0
C524 C 0.45929 0.90053 0.2894 0.0
C525 C 0.50252 0.93067 0.31554 0.0
C526 C 0.42542 0.89089 0.31267 0.0
C527 C 0.43393 0.91107 0.36273 0.0
C528 C 0.47763 0.94064 0.38892 0.0
C529 C 0.51158 0.95027 0.36557 0.0
C530 C 0.38376 0.87681 0.45029 0.0
C531 C 0.32742 0.87979 0.43227 0.0
C532 C 0.41827 0.88737 0.42804 0.0
C533 C 0.39723 0.90124 0.3873 0.0
C534 C 0.34077 0.905 0.36974 0.0
C535 C 0.30633 0.89437 0.39191 0.0
H536 H 0.33418 0.42129 0.89083 0.0
H537 H 0.22159 0.3375 0.76615 0.0
H538 H 0.31739 0.36854 0.93241 0.0
H539 H 0.20382 0.28667 0.80827 0.0
H540 H 0.23655 0.15991 0.87993 0.0
H541 H 0.25257 0.21306 0.83836 0.0
H542 H 0.24178 0.36178 0.96427 0.0
H543 H 0.22476 0.3091 1.00565 0.0
C544 C 0.30537 0.39232 0.87245 0.0
C545 C 0.2788 0.38429 0.82523 0.0
C546 C 0.29581 0.3621 0.89626 0.0
C547 C 0.25941 0.3234 0.87335 0.0
C548 C 0.23291 0.31535 0.82632 0.0
C549 C 0.24282 0.34504 0.80241 0.0
C550 C 0.23699 0.20405 0.89855 0.0
C551 C 0.22971 0.23032 0.94615 0.0
C552 C 0.24637 0.23438 0.87482 0.0
C553 C 0.24895 0.29137 0.89831 0.0
C554 C 0.24109 0.31769 0.94566 0.0
C555 C 0.23136 0.28751 0.96929 0.0
H556 H 0.01134 0.25484 0.17923 0.0
H557 H 0.83762 0.29006 0.13368 0.0
H558 H 1.00841 0.34272 0.24613 0.0
H559 H 0.83473 0.38019 0.19838 0.0
H560 H 0.84937 0.4503 0.36447 0.0
H561 H 0.83877 0.40382 0.27891 0.0
H562 H 0.99614 0.43909 0.28377 0.0
H563 H 1.00757 0.4827 0.37041 0.0
C564 C 0.97281 0.2824 0.18284 0.0
C565 C 0.92489 0.26601 0.15132 0.0
C566 C 0.97105 0.33334 0.22074 0.0
C567 C 0.92117 0.369 0.22793 0.0
C568 C 0.8737 0.35364 0.19448 0.0
C569 C 0.87536 0.30215 0.15717 0.0
C570 C 0.88022 0.45079 0.34685 0.0
C571 C 0.92951 0.46905 0.37359 0.0
C572 C 0.87439 0.42388 0.29755 0.0
C573 C 0.91774 0.41555 0.27449 0.0
C574 C 0.96292 0.44288 0.30068 0.0
C575 C 0.96917 0.46877 0.35016 0.0
loop_
_geom_bond_atom_site_label_1
_geom_bond_atom_site_label_2
_geom_bond_distance
_geom_bond_site_symmetry_2
_ccdc_geom_bond_type
Eu0 N31 2.657 . S
Eu0 N38 2.609 . S
Eu0 O44 2.558 1_554 S
Eu0 O45 2.612 1_545 S
Eu0 O47 2.339 . S
Eu0 O48 2.563 1_554 S
Eu0 O49 2.419 . S
Eu0 O51 2.380 . S
Eu0 O52 2.432 . S
Eu0 C64 2.848 1_554 S
C1 C4 1.429 1_554 S
C1 C5 1.411 1_554 S
C1 N8 1.377 . S
C2 C4 1.420 . S
C2 C6 1.423 . S
C2 C14 1.392 . S
C3 C5 1.420 . S
C3 C6 1.351 . S
C3 H26 0.931 . S
C4 C1 1.429 1_556 S
C4 C2 1.420 . S
C4 N12 1.362 1_556 S
C5 C1 1.411 1_556 S
C5 C3 1.420 . S
C5 C10 1.395 1_556 S
C6 C2 1.423 . S
C6 C3 1.351 . S
C6 H18 0.930 . S
C7 C9 1.400 . S
C7 C10 1.386 . S
C7 H19 0.930 . S
N8 C1 1.377 . S
N8 C9 1.321 . S
N8 Eu11 2.609 . S
C9 C7 1.400 . S
C9 N8 1.321 . S
C9 H16 0.930 . S
C10 C5 1.395 1_554 S
C10 C7 1.386 . S
C10 H29 0.930 1_554 S
Eu11 N8 2.609 . S
Eu11 N12 2.657 . S
Eu11 O45 2.380 . S
Eu11 O46 2.432 1_565 S
Eu11 O50 2.558 . S
Eu11 O51 2.612 1_565 S
Eu11 O53 2.339 . S
Eu11 O54 2.563 1_565 S
Eu11 O55 2.419 . S
Eu11 C75 2.848 . S
N12 C4 1.362 1_554 S
N12 Eu11 2.657 . S
N12 C13 1.334 1_554 S
C13 N12 1.334 1_556 S
C13 C15 1.413 . S
C13 H20 0.929 . S
C14 C2 1.392 . S
C14 C15 1.367 . S
C14 H22 0.930 . S
C15 C13 1.413 . S
C15 C14 1.367 . S
C15 H17 0.930 . S
H16 C9 0.930 . S
H17 C15 0.930 . S
H18 C6 0.930 . S
H19 C7 0.930 . S
H20 C13 0.929 . S
H21 C35 0.930 . S
H22 C14 0.930 . S
H23 C41 0.930 . S
H24 C32 0.929 . S
H25 C39 0.930 . S
H26 C3 0.931 . S
H27 C33 0.930 . S
H28 C66 0.930 . S
H29 C10 0.930 1_556 S
H30 C65 0.931 . S
N31 Eu0 2.657 . S
N31 C32 1.334 . S
N31 C36 1.362 . S
C32 H24 0.929 . S
C32 N31 1.334 . S
C32 C35 1.413 . S
C33 H27 0.930 . S
C33 C34 1.392 . S
C33 C35 1.367 . S
C34 C33 1.392 . S
C34 C36 1.420 . S
C34 C66 1.423 . S
C35 H21 0.930 . S
C35 C32 1.413 . S
C35 C33 1.367 . S
C36 N31 1.362 . S
C36 C34 1.420 . S
C36 C40 1.429 . S
H37 C42 0.930 . S
N38 Eu0 2.609 . S
N38 C40 1.377 . S
N38 C41 1.321 . S
C39 H25 0.930 . S
C39 C41 1.400 . S
C39 C42 1.386 . S
C40 C36 1.429 . S
C40 N38 1.377 . S
C40 C43 1.411 . S
C41 H23 0.930 . S
C41 N38 1.321 . S
C41 C39 1.400 . S
C42 H37 0.930 . S
C42 C39 1.386 . S
C42 C43 1.395 . S
C43 C40 1.411 . S
C43 C42 1.395 . S
C43 C65 1.420 . S
O44 Eu0 2.558 1_556 S
O44 C64 1.257 . S
O45 Eu0 2.612 1_565 S
O45 Eu11 2.380 . S
O45 C56 1.276 1_554 S
O46 Eu11 2.432 1_545 S
O46 C63 1.264 . S
O47 Eu0 2.339 . S
O47 C63 1.254 . S
O48 Eu0 2.563 1_556 S
O48 C56 1.235 1_545 S
O49 Eu0 2.419 . S
O49 C64 1.249 1_554 S
O50 Eu11 2.558 . S
O50 C75 1.257 . S
O51 Eu0 2.380 . S
O51 Eu11 2.612 1_545 S
O51 C67 1.276 . S
O52 Eu0 2.432 . S
O52 C74 1.264 . S
O53 Eu11 2.339 . S
O53 C74 1.254 1_565 S
O54 Eu11 2.563 1_545 S
O54 C67 1.235 . S
O55 Eu11 2.419 . S
O55 C75 1.249 . S
C56 O45 1.276 1_556 S
C56 O48 1.235 1_565 S
C57 C59 1.393 . S
C57 C61 1.395 . S
C57 C64 1.492 . S
C58 C59 1.392 . S
C58 C60 1.386 . S
C59 C57 1.393 . S
C59 C58 1.392 . S
C59 H76 0.930 . S
C60 C58 1.386 . S
C60 C62 1.395 . S
C60 H77 0.930 . S
C61 C57 1.395 . S
C61 C62 1.379 . S
C61 H78 0.930 . S
C62 C60 1.395 . S
C62 C61 1.379 . S
C62 H79 0.930 . S
C63 O46 1.264 . S
C63 O47 1.254 . S
C64 Eu0 2.848 1_556 S
C64 O44 1.257 . S
C64 O49 1.249 1_556 S
C64 C57 1.492 . S
C65 H30 0.931 . S
C65 C43 1.420 . S
C65 C66 1.351 . S
C66 H28 0.930 . S
C66 C34 1.423 . S
C66 C65 1.351 . S
C67 O51 1.276 . S
C67 O54 1.235 . S
C68 C69 1.393 . S
C68 C72 1.395 . S
C68 C75 1.492 . S
C69 C68 1.393 . S
C69 C70 1.392 . S
C69 H80 0.930 . S
C70 C69 1.392 . S
C70 C71 1.386 . S
C71 C70 1.386 . S
C71 C73 1.395 . S
C71 H81 0.930 . S
C72 C68 1.395 . S
C72 C73 1.379 . S
C72 H82 0.930 . S
C73 C71 1.395 . S
C73 C72 1.379 . S
C73 H83 0.930 . S
C74 O52 1.264 . S
C74 O53 1.254 1_545 S
C75 Eu11 2.848 . S
C75 O50 1.257 . S
C75 O55 1.249 . S
C75 C68 1.492 . S
H76 C59 0.930 . S
H77 C60 0.930 . S
H78 C61 0.930 . S
H79 C62 0.930 . S
H80 C69 0.930 . S
H81 C71 0.930 . S
H82 C72 0.930 . S
H83 C73 0.930 . S
Eu84 N115 2.657 1_455 S
Eu84 N122 2.609 1_455 S
Eu84 O128 2.558 . S
Eu84 O129 2.612 . S
Eu84 O131 2.339 . S
Eu84 O132 2.563 . S
Eu84 O133 2.419 . S
Eu84 O135 2.380 . S
Eu84 O136 2.432 . S
Eu84 C148 2.848 1_455 S
C85 C88 1.429 . S
C85 C89 1.411 . S
C85 N92 1.377 . S
C86 C88 1.420 . S
C86 C90 1.423 . S
C86 C98 1.392 . S
C87 C89 1.420 . S
C87 C90 1.351 . S
C87 H110 0.931 . S
C88 C85 1.429 . S
C88 C86 1.420 . S
C88 N96 1.362 . S
C89 C85 1.411 . S
C89 C87 1.420 . S
C89 C94 1.395 . S
C90 C86 1.423 . S
C90 C87 1.351 . S
C90 H102 0.930 . S
C91 C93 1.400 . S
C91 C94 1.386 . S
C91 H103 0.930 . S
N92 C85 1.377 . S
N92 C93 1.321 . S
N92 Eu95 2.609 . S
C93 C91 1.400 . S
C93 N92 1.321 . S
C93 H100 0.930 . S
C94 C89 1.395 . S
C94 C91 1.386 . S
C94 H113 0.930 . S
Eu95 N92 2.609 . S
Eu95 N96 2.657 . S
Eu95 O129 2.380 . S
Eu95 O130 2.432 . S
Eu95 O134 2.558 . S
Eu95 O135 2.612 . S
Eu95 O137 2.339 . S
Eu95 O138 2.563 . S
Eu95 O139 2.419 . S
Eu95 C159 2.848 . S
N96 C88 1.362 . S
N96 Eu95 2.657 . S
N96 C97 1.334 . S
C97 N96 1.334 . S
C97 C99 1.413 . S
C97 H104 0.929 . S
C98 C86 1.392 . S
C98 C99 1.367 . S
C98 H106 0.930 . S
C99 C97 1.413 . S
C99 C98 1.367 . S
C99 H101 0.930 . S
H100 C93 0.930 . S
H101 C99 0.930 . S
H102 C90 0.930 . S
H103 C91 0.930 . S
H104 C97 0.929 . S
H105 C119 0.930 . S
H106 C98 0.930 . S
H107 C125 0.930 1_455 S
H108 C116 0.929 1_455 S
H109 C123 0.930 . S
H110 C87 0.931 . S
H111 C117 0.930 . S
H112 C150 0.930 . S
H113 C94 0.930 . S
H114 C149 0.931 . S
N115 Eu84 2.657 1_655 S
N115 C116 1.334 . S
N115 C120 1.362 . S
C116 H108 0.929 1_655 S
C116 N115 1.334 . S
C116 C119 1.413 . S
C117 H111 0.930 . S
C117 C118 1.392 . S
C117 C119 1.367 . S
C118 C117 1.392 . S
C118 C120 1.420 . S
C118 C150 1.423 . S
C119 H105 0.930 . S
C119 C116 1.413 . S
C119 C117 1.367 . S
C120 N115 1.362 . S
C120 C118 1.420 . S
C120 C124 1.429 . S
H121 C126 0.930 . S
N122 Eu84 2.609 1_655 S
N122 C124 1.377 . S
N122 C125 1.321 . S
C123 H109 0.930 . S
C123 C125 1.400 . S
C123 C126 1.386 . S
C124 C120 1.429 . S
C124 N122 1.377 . S
C124 C127 1.411 . S
C125 H107 0.930 1_655 S
C125 N122 1.321 . S
C125 C123 1.400 . S
C126 H121 0.930 . S
C126 C123 1.386 . S
C126 C127 1.395 . S
C127 C124 1.411 . S
C127 C126 1.395 . S
C127 C149 1.420 . S
O128 Eu84 2.558 . S
O128 C148 1.257 1_455 S
O129 Eu84 2.612 . S
O129 Eu95 2.380 . S
O129 C140 1.276 . S
O130 Eu95 2.432 . S
O130 C147 1.264 . S
O131 Eu84 2.339 . S
O131 C147 1.254 . S
O132 Eu84 2.563 . S
O132 C140 1.235 . S
O133 Eu84 2.419 . S
O133 C148 1.249 1_455 S
O134 Eu95 2.558 . S
O134 C159 1.257 . S
O135 Eu84 2.380 . S
O135 Eu95 2.612 . S
O135 C151 1.276 . S
O136 Eu84 2.432 . S
O136 C158 1.264 . S
O137 Eu95 2.339 . S
O137 C158 1.254 . S
O138 Eu95 2.563 . S
O138 C151 1.235 . S
O139 Eu95 2.419 . S
O139 C159 1.249 . S
C140 O129 1.276 . S
C140 O132 1.235 . S
C141 C143 1.393 . S
C141 C145 1.395 . S
C141 C148 1.492 . S
C142 C143 1.392 . S
C142 C144 1.386 . S
C143 C141 1.393 . S
C143 C142 1.392 . S
C143 H160 0.930 . S
C144 C142 1.386 . S
C144 C146 1.395 . S
C144 H161 0.930 . S
C145 C141 1.395 . S
C145 C146 1.379 . S
C145 H162 0.930 . S
C146 C144 1.395 . S
C146 C145 1.379 . S
C146 H163 0.930 . S
C147 O130 1.264 . S
C147 O131 1.254 . S
C148 Eu84 2.848 1_655 S
C148 O128 1.257 1_655 S
C148 O133 1.249 1_655 S
C148 C141 1.492 . S
C149 H114 0.931 . S
C149 C127 1.420 . S
C149 C150 1.351 . S
C150 H112 0.930 . S
C150 C118 1.423 . S
C150 C149 1.351 . S
C151 O135 1.276 . S
C151 O138 1.235 . S
C152 C153 1.393 . S
C152 C156 1.395 . S
C152 C159 1.492 . S
C153 C152 1.393 . S
C153 C154 1.392 . S
C153 H164 0.930 . S
C154 C153 1.392 . S
C154 C155 1.386 . S
C155 C154 1.386 . S
C155 C157 1.395 . S
C155 H165 0.930 . S
C156 C152 1.395 . S
C156 C157 1.379 . S
C156 H166 0.930 . S
C157 C155 1.395 . S
C157 C156 1.379 . S
C157 H167 0.930 . S
C158 O136 1.264 . S
C158 O137 1.254 . S
C159 Eu95 2.848 . S
C159 O134 1.257 . S
C159 O139 1.249 . S
C159 C152 1.492 . S
H160 C143 0.930 . S
H161 C144 0.930 . S
H162 C145 0.930 . S
H163 C146 0.930 . S
H164 C153 0.930 . S
H165 C155 0.930 . S
H166 C156 0.930 . S
H167 C157 0.930 . S
Eu168 N199 2.657 . S
Eu168 N206 2.609 . S
Eu168 O212 2.558 1_554 S
Eu168 O213 2.612 1_554 S
Eu168 O215 2.339 . S
Eu168 O216 2.563 1_554 S
Eu168 O217 2.419 1_554 S
Eu168 O219 2.380 . S
Eu168 O220 2.432 . S
Eu168 C232 2.848 1_554 S
C169 C172 1.429 . S
C169 C173 1.411 . S
C169 N176 1.377 1_566 S
C170 C172 1.420 . S
C170 C174 1.423 . S
C170 C182 1.392 . S
C171 C173 1.420 . S
C171 C174 1.351 . S
C171 H194 0.931 . S
C172 C169 1.429 . S
C172 C170 1.420 . S
C172 N180 1.362 1_565 S
C173 C169 1.411 . S
C173 C171 1.420 . S
C173 C178 1.395 1_655 S
C174 C170 1.423 . S
C174 C171 1.351 . S
C174 H186 0.930 . S
C175 C177 1.400 1_565 S
C175 C178 1.386 1_554 S
C175 H187 0.930 . S
N176 C169 1.377 1_544 S
N176 C177 1.321 1_655 S
N176 Eu179 2.609 . S
C177 C175 1.400 1_545 S
C177 N176 1.321 1_455 S
C177 H184 0.930 . S
C178 C173 1.395 1_455 S
C178 C175 1.386 1_556 S
C178 H197 0.930 . S
Eu179 N176 2.609 . S
Eu179 N180 2.657 1_554 S
Eu179 O213 2.380 1_554 S
Eu179 O214 2.432 . S
Eu179 O218 2.558 . S
Eu179 O219 2.612 . S
Eu179 O221 2.339 . S
Eu179 O222 2.563 . S
Eu179 O223 2.419 . S
Eu179 C243 2.848 . S
N180 C172 1.362 1_545 S
N180 Eu179 2.657 1_556 S
N180 C181 1.334 . S
C181 N180 1.334 . S
C181 C183 1.413 1_545 S
C181 H188 0.929 . S
C182 C170 1.392 . S
C182 C183 1.367 . S
C182 H190 0.930 . S
C183 C181 1.413 1_565 S
C183 C182 1.367 . S
C183 H185 0.930 . S
H184 C177 0.930 . S
H185 C183 0.930 . S
H186 C174 0.930 . S
H187 C175 0.930 . S
H188 C181 0.929 . S
H189 C203 0.930 . S
H190 C182 0.930 . S
H191 C209 0.930 . S
H192 C200 0.929 . S
H193 C207 0.930 . S
H194 C171 0.931 . S
H195 C201 0.930 . S
H196 C234 0.930 . S
H197 C178 0.930 . S
H198 C233 0.931 . S
N199 Eu168 2.657 . S
N199 C200 1.334 . S
N199 C204 1.362 . S
C200 H192 0.929 . S
C200 N199 1.334 . S
C200 C203 1.413 . S
C201 H195 0.930 . S
C201 C202 1.392 . S
C201 C203 1.367 . S
C202 C201 1.392 . S
C202 C204 1.420 . S
C202 C234 1.423 . S
C203 H189 0.930 . S
C203 C200 1.413 . S
C203 C201 1.367 . S
C204 N199 1.362 . S
C204 C202 1.420 . S
C204 C208 1.429 . S
H205 C210 0.930 . S
N206 Eu168 2.609 . S
N206 C208 1.377 . S
N206 C209 1.321 . S
C207 H193 0.930 . S
C207 C209 1.400 . S
C207 C210 1.386 . S
C208 C204 1.429 . S
C208 N206 1.377 . S
C208 C211 1.411 . S
C209 H191 0.930 . S
C209 N206 1.321 . S
C209 C207 1.400 . S
C210 H205 0.930 . S
C210 C207 1.386 . S
C210 C211 1.395 . S
C211 C208 1.411 . S
C211 C210 1.395 . S
C211 C233 1.420 . S
O212 Eu168 2.558 1_556 S
O212 C232 1.257 . S
O213 Eu168 2.612 1_556 S
O213 Eu179 2.380 1_556 S
O213 C224 1.276 . S
O214 Eu179 2.432 . S
O214 C231 1.264 . S
O215 Eu168 2.339 . S
O215 C231 1.254 . S
O216 Eu168 2.563 1_556 S
O216 C224 1.235 . S
O217 Eu168 2.419 1_556 S
O217 C232 1.249 . S
O218 Eu179 2.558 . S
O218 C243 1.257 . S
O219 Eu168 2.380 . S
O219 Eu179 2.612 . S
O219 C235 1.276 . S
O220 Eu168 2.432 . S
O220 C242 1.264 . S
O221 Eu179 2.339 . S
O221 C242 1.254 . S
O222 Eu179 2.563 . S
O222 C235 1.235 . S
O223 Eu179 2.419 . S
O223 C243 1.249 . S
C224 O213 1.276 . S
C224 O216 1.235 . S
C225 C227 1.393 . S
C225 C229 1.395 . S
C225 C232 1.492 . S
C226 C227 1.392 . S
C226 C228 1.386 . S
C227 C225 1.393 . S
C227 C226 1.392 . S
C227 H244 0.930 . S
C228 C226 1.386 . S
C228 C230 1.395 . S
C228 H245 0.930 . S
C229 C225 1.395 . S
C229 C230 1.379 . S
C229 H246 0.930 . S
C230 C228 1.395 . S
C230 C229 1.379 . S
C230 H247 0.930 . S
C231 O214 1.264 . S
C231 O215 1.254 . S
C232 Eu168 2.848 1_556 S
C232 O212 1.257 . S
C232 O217 1.249 . S
C232 C225 1.492 . S
C233 H198 0.931 . S
C233 C211 1.420 . S
C233 C234 1.351 . S
C234 H196 0.930 . S
C234 C202 1.423 . S
C234 C233 1.351 . S
C235 O219 1.276 . S
C235 O222 1.235 . S
C236 C237 1.393 . S
C236 C240 1.395 1_545 S
C236 C243 1.492 . S
C237 C236 1.393 . S
C237 C238 1.392 1_545 S
C237 H248 0.930 . S
C238 C237 1.392 1_565 S
C238 C239 1.386 . S
C239 C238 1.386 . S
C239 C241 1.395 . S
C239 H249 0.930 . S
C240 C236 1.395 1_565 S
C240 C241 1.379 . S
C240 H250 0.930 . S
C241 C239 1.395 . S
C241 C240 1.379 . S
C241 H251 0.930 . S
C242 O220 1.264 . S
C242 O221 1.254 . S
C243 Eu179 2.848 . S
C243 O218 1.257 . S
C243 O223 1.249 . S
C243 C236 1.492 . S
H244 C227 0.930 . S
H245 C228 0.930 . S
H246 C229 0.930 . S
H247 C230 0.930 . S
H248 C237 0.930 . S
H249 C239 0.930 . S
H250 C240 0.930 . S
H251 C241 0.930 . S
Eu252 N283 2.657 1_455 S
Eu252 N290 2.609 1_455 S
Eu252 O296 2.558 1_455 S
Eu252 O297 2.612 . S
Eu252 O299 2.339 . S
Eu252 O300 2.563 . S
Eu252 O301 2.419 1_455 S
Eu252 O303 2.380 . S
Eu252 O304 2.432 . S
Eu252 C316 2.848 1_455 S
C253 C256 1.429 . S
C253 C257 1.411 . S
C253 N260 1.377 . S
C254 C256 1.420 . S
C254 C258 1.423 . S
C254 C266 1.392 . S
C255 C257 1.420 . S
C255 C258 1.351 . S
C255 H278 0.931 . S
C256 C253 1.429 . S
C256 C254 1.420 . S
C256 N264 1.362 . S
C257 C253 1.411 . S
C257 C255 1.420 . S
C257 C262 1.395 . S
C258 C254 1.423 . S
C258 C255 1.351 . S
C258 H270 0.930 . S
C259 C261 1.400 . S
C259 C262 1.386 . S
C259 H271 0.930 . S
N260 C253 1.377 . S
N260 C261 1.321 . S
N260 Eu263 2.609 . S
C261 C259 1.400 . S
C261 N260 1.321 . S
C261 H268 0.930 . S
C262 C257 1.395 . S
C262 C259 1.386 . S
C262 H281 0.930 . S
Eu263 N260 2.609 . S
Eu263 N264 2.657 . S
Eu263 O297 2.380 . S
Eu263 O298 2.432 . S
Eu263 O302 2.558 . S
Eu263 O303 2.612 . S
Eu263 O305 2.339 . S
Eu263 O306 2.563 . S
Eu263 O307 2.419 . S
Eu263 C327 2.848 . S
N264 C256 1.362 . S
N264 Eu263 2.657 . S
N264 C265 1.334 . S
C265 N264 1.334 . S
C265 C267 1.413 . S
C265 H272 0.929 . S
C266 C254 1.392 . S
C266 C267 1.367 . S
C266 H274 0.930 . S
C267 C265 1.413 . S
C267 C266 1.367 . S
C267 H269 0.930 . S
H268 C261 0.930 . S
H269 C267 0.930 . S
H270 C258 0.930 . S
H271 C259 0.930 . S
H272 C265 0.929 . S
H273 C287 0.930 . S
H274 C266 0.930 . S
H275 C293 0.930 . S
H276 C284 0.929 . S
H277 C291 0.930 . S
H278 C255 0.931 . S
H279 C285 0.930 . S
H280 C318 0.930 . S
H281 C262 0.930 . S
H282 C317 0.931 . S
N283 Eu252 2.657 1_655 S
N283 C284 1.334 . S
N283 C288 1.362 . S
C284 H276 0.929 . S
C284 N283 1.334 . S
C284 C287 1.413 . S
C285 H279 0.930 . S
C285 C286 1.392 . S
C285 C287 1.367 . S
C286 C285 1.392 . S
C286 C288 1.420 . S
C286 C318 1.423 . S
C287 H273 0.930 . S
C287 C284 1.413 . S
C287 C285 1.367 . S
C288 N283 1.362 . S
C288 C286 1.420 . S
C288 C292 1.429 . S
H289 C294 0.930 . S
N290 Eu252 2.609 1_655 S
N290 C292 1.377 . S
N290 C293 1.321 1_565 S
C291 H277 0.930 . S
C291 C293 1.400 . S
C291 C294 1.386 . S
C292 C288 1.429 . S
C292 N290 1.377 . S
C292 C295 1.411 1_565 S
C293 H275 0.930 . S
C293 N290 1.321 1_545 S
C293 C291 1.400 . S
C294 H289 0.930 . S
C294 C291 1.386 . S
C294 C295 1.395 . S
C295 C292 1.411 1_545 S
C295 C294 1.395 . S
C295 C317 1.420 . S
O296 Eu252 2.558 1_655 S
O296 C316 1.257 . S
O297 Eu252 2.612 . S
O297 Eu263 2.380 . S
O297 C308 1.276 . S
O298 Eu263 2.432 . S
O298 C315 1.264 . S
O299 Eu252 2.339 . S
O299 C315 1.254 . S
O300 Eu252 2.563 . S
O300 C308 1.235 . S
O301 Eu252 2.419 1_655 S
O301 C316 1.249 . S
O302 Eu263 2.558 . S
O302 C327 1.257 . S
O303 Eu252 2.380 . S
O303 Eu263 2.612 . S
O303 C319 1.276 . S
O304 Eu252 2.432 . S
O304 C326 1.264 . S
O305 Eu263 2.339 . S
O305 C326 1.254 . S
O306 Eu263 2.563 . S
O306 C319 1.235 . S
O307 Eu263 2.419 . S
O307 C327 1.249 . S
C308 O297 1.276 . S
C308 O300 1.235 . S
C309 C311 1.393 . S
C309 C313 1.395 1_565 S
C309 C316 1.492 . S
C310 C311 1.392 . S
C310 C312 1.386 . S
C311 C309 1.393 . S
C311 C310 1.392 . S
C311 H328 0.930 . S
C312 C310 1.386 . S
C312 C314 1.395 1_565 S
C312 H329 0.930 . S
C313 C309 1.395 1_545 S
C313 C314 1.379 . S
C313 H330 0.930 . S
C314 C312 1.395 1_545 S
C314 C313 1.379 . S
C314 H331 0.930 . S
C315 O298 1.264 . S
C315 O299 1.254 . S
C316 Eu252 2.848 1_655 S
C316 O296 1.257 . S
C316 O301 1.249 . S
C316 C309 1.492 . S
C317 H282 0.931 . S
C317 C295 1.420 . S
C317 C318 1.351 1_545 S
C318 H280 0.930 . S
C318 C286 1.423 . S
C318 C317 1.351 1_565 S
C319 O303 1.276 . S
C319 O306 1.235 . S
C320 C321 1.393 . S
C320 C324 1.395 . S
C320 C327 1.492 . S
C321 C320 1.393 . S
C321 C322 1.392 . S
C321 H332 0.930 . S
C322 C321 1.392 . S
C322 C323 1.386 . S
C323 C322 1.386 . S
C323 C325 1.395 . S
C323 H333 0.930 . S
C324 C320 1.395 . S
C324 C325 1.379 . S
C324 H334 0.930 . S
C325 C323 1.395 . S
C325 C324 1.379 . S
C325 H335 0.930 . S
C326 O304 1.264 . S
C326 O305 1.254 . S
C327 Eu263 2.848 . S
C327 O302 1.257 . S
C327 O307 1.249 . S
C327 C320 1.492 . S
H328 C311 0.930 . S
H329 C312 0.930 . S
H330 C313 0.930 . S
H331 C314 0.930 . S
H332 C321 0.930 . S
H333 C323 0.930 . S
H334 C324 0.930 . S
H335 C325 0.930 . S
H336 C344 0.950 1_556 S
H337 C349 0.950 . S
H338 C346 0.958 . S
H339 C348 0.950 . S
H340 C350 0.950 . S
H341 C352 0.950 . S
H342 C354 0.950 . S
H343 C355 0.950 . S
C344 H336 0.950 1_554 S
C344 C345 1.386 1_455 S
C344 C346 1.391 . S
C345 C344 1.386 1_655 S
C345 C349 1.393 . S
C346 H338 0.958 . S
C346 C344 1.391 . S
C346 C347 1.400 . S
C347 C346 1.400 . S
C347 C348 1.398 . S
C347 C353 1.491 . S
C348 H339 0.950 . S
C348 C347 1.398 . S
C348 C349 1.391 1_455 S
C349 H337 0.950 . S
C349 C345 1.393 . S
C349 C348 1.391 1_655 S
C350 H340 0.950 . S
C350 C351 1.386 . S
C350 C352 1.391 . S
C351 C350 1.386 . S
C351 C355 1.393 . S
C352 H341 0.950 . S
C352 C350 1.391 . S
C352 C353 1.400 . S
C353 C347 1.491 . S
C353 C352 1.400 . S
C353 C354 1.398 . S
C354 H342 0.950 . S
C354 C353 1.398 . S
C354 C355 1.391 . S
C355 H343 0.950 . S
C355 C351 1.393 . S
C355 C354 1.391 . S
H356 C364 0.950 . S
H357 C369 0.950 . S
H358 C366 0.950 . S
H359 C368 0.950 . S
H360 C370 0.950 . S
H361 C372 0.950 . S
H362 C374 0.950 . S
H363 C375 0.950 . S
C364 H356 0.950 . S
C364 C365 1.386 1_545 S
C364 C366 1.391 . S
C365 C364 1.386 1_565 S
C365 C369 1.393 . S
C366 H358 0.950 . S
C366 C364 1.391 . S
C366 C367 1.400 . S
C367 C366 1.400 . S
C367 C368 1.398 . S
C367 C373 1.491 . S
C368 H359 0.950 . S
C368 C367 1.398 . S
C368 C369 1.391 1_545 S
C369 H357 0.950 . S
C369 C365 1.393 . S
C369 C368 1.391 1_565 S
C370 H360 0.950 . S
C370 C371 1.386 . S
C370 C372 1.391 . S
C371 C370 1.386 . S
C371 C375 1.393 . S
C372 H361 0.950 . S
C372 C370 1.391 . S
C372 C373 1.400 . S
C373 C367 1.491 . S
C373 C372 1.400 . S
C373 C374 1.398 . S
C374 H362 0.950 . S
C374 C373 1.398 . S
C374 C375 1.391 . S
C375 H363 0.950 . S
C375 C371 1.393 . S
C375 C374 1.391 . S
H376 C384 0.950 . S
H377 C389 0.950 . S
H378 C386 0.950 . S
H379 C388 0.950 . S
H380 C390 0.941 1_565 S
H381 C392 0.950 . S
H382 C394 0.950 . S
H383 C395 0.950 . S
C384 H376 0.950 . S
C384 C385 1.386 . S
C384 C386 1.391 . S
C385 C384 1.386 . S
C385 C389 1.393 . S
C386 H378 0.950 . S
C386 C384 1.391 . S
C386 C387 1.400 . S
C387 C386 1.400 . S
C387 C388 1.398 . S
C387 C393 1.491 . S
C388 H379 0.950 . S
C388 C387 1.398 . S
C388 C389 1.391 . S
C389 H377 0.950 . S
C389 C385 1.393 . S
C389 C388 1.391 . S
C390 H380 0.941 1_545 S
C390 C391 1.386 . S
C390 C392 1.391 . S
C391 C390 1.386 . S
C391 C395 1.393 . S
C392 H381 0.950 . S
C392 C390 1.391 . S
C392 C393 1.400 . S
C393 C387 1.491 . S
C393 C392 1.400 . S
C393 C394 1.398 . S
C394 H382 0.950 . S
C394 C393 1.398 . S
C394 C395 1.391 . S
C395 H383 0.950 . S
C395 C391 1.393 . S
C395 C394 1.391 . S
H396 C404 0.950 . S
H397 C409 0.950 . S
H398 C406 0.950 . S
H399 C408 0.950 . S
H400 C410 0.950 . S
H401 C412 0.950 . S
H402 C414 0.950 . S
H403 C415 0.950 . S
C404 H396 0.950 . S
C404 C405 1.386 . S
C404 C406 1.391 . S
C405 C404 1.386 . S
C405 C409 1.393 . S
C406 H398 0.950 . S
C406 C404 1.391 . S
C406 C407 1.400 . S
C407 C406 1.400 . S
C407 C408 1.398 . S
C407 C413 1.491 . S
C408 H399 0.950 . S
C408 C407 1.398 . S
C408 C409 1.391 . S
C409 H397 0.950 . S
C409 C405 1.393 . S
C409 C408 1.391 . S
C410 H400 0.950 . S
C410 C411 1.386 . S
C410 C412 1.391 . S
C411 C410 1.386 . S
C411 C415 1.393 . S
C412 H401 0.950 . S
C412 C410 1.391 . S
C412 C413 1.400 . S
C413 C407 1.491 . S
C413 C412 1.400 . S
C413 C414 1.398 . S
C414 H402 0.950 . S
C414 C413 1.398 . S
C414 C415 1.391 . S
C415 H403 0.950 . S
C415 C411 1.393 . S
C415 C414 1.391 . S
H416 C424 0.950 . S
H417 C429 0.950 . S
H418 C426 0.950 . S
H419 C428 0.950 . S
H420 C430 0.950 . S
H421 C432 0.950 . S
H422 C434 0.950 . S
H423 C435 0.950 . S
C424 H416 0.950 . S
C424 C425 1.386 . S
C424 C426 1.391 . S
C425 C424 1.386 . S
C425 C429 1.393 . S
C426 H418 0.950 . S
C426 C424 1.391 . S
C426 C427 1.400 . S
C427 C426 1.400 . S
C427 C428 1.398 . S
C427 C433 1.491 . S
C428 H419 0.950 . S
C428 C427 1.398 . S
C428 C429 1.391 . S
C429 H417 0.950 . S
C429 C425 1.393 . S
C429 C428 1.391 . S
C430 H420 0.950 . S
C430 C431 1.386 . S
C430 C432 1.391 . S
C431 C430 1.386 . S
C431 C435 1.393 . S
C432 H421 0.950 . S
C432 C430 1.391 . S
C432 C433 1.400 . S
C433 C427 1.491 . S
C433 C432 1.400 . S
C433 C434 1.398 . S
C434 H422 0.950 . S
C434 C433 1.398 . S
C434 C435 1.391 . S
C435 H423 0.950 . S
C435 C431 1.393 . S
C435 C434 1.391 . S
H436 C444 0.950 . S
H437 C449 0.950 . S
H438 C446 0.950 . S
H439 C448 0.950 . S
H440 C450 0.950 1_455 S
H441 C452 0.950 1_455 S
H442 C454 0.950 . S
H443 C455 0.950 . S
C444 H436 0.950 . S
C444 C445 1.386 1_655 S
C444 C446 1.391 . S
C445 C444 1.386 1_455 S
C445 C449 1.393 . S
C446 H438 0.950 . S
C446 C444 1.391 . S
C446 C447 1.400 . S
C447 C446 1.400 . S
C447 C448 1.398 1_655 S
C447 C453 1.491 . S
C448 H439 0.950 . S
C448 C447 1.398 1_455 S
C448 C449 1.391 . S
C449 H437 0.950 . S
C449 C445 1.393 . S
C449 C448 1.391 . S
C450 H440 0.950 1_655 S
C450 C451 1.386 . S
C450 C452 1.391 . S
C451 C450 1.386 . S
C451 C455 1.393 . S
C452 H441 0.950 1_655 S
C452 C450 1.391 . S
C452 C453 1.400 . S
C453 C447 1.491 . S
C453 C452 1.400 . S
C453 C454 1.398 . S
C454 H442 0.950 . S
C454 C453 1.398 . S
C454 C455 1.391 . S
C455 H443 0.950 . S
C455 C451 1.393 . S
C455 C454 1.391 . S
H456 C464 0.950 . S
H457 C469 0.950 . S
H458 C466 0.950 1_455 S
H459 C468 0.950 . S
H460 C470 0.950 . S
H461 C472 0.950 . S
H462 C474 0.950 . S
H463 C475 0.950 1_545 S
C464 H456 0.950 . S
C464 C465 1.386 1_455 S
C464 C466 1.391 1_455 S
C465 C464 1.386 1_655 S
C465 C469 1.393 . S
C466 H458 0.950 1_655 S
C466 C464 1.391 1_655 S
C466 C467 1.400 . S
C467 C466 1.400 . S
C467 C468 1.398 . S
C467 C473 1.491 . S
C468 H459 0.950 . S
C468 C467 1.398 . S
C468 C469 1.391 . S
C469 H457 0.950 . S
C469 C465 1.393 . S
C469 C468 1.391 . S
C470 H460 0.950 . S
C470 C471 1.386 . S
C470 C472 1.391 . S
C471 C470 1.386 . S
C471 C475 1.393 . S
C472 H461 0.950 . S
C472 C470 1.391 . S
C472 C473 1.400 . S
C473 C467 1.491 . S
C473 C472 1.400 . S
C473 C474 1.398 . S
C474 H462 0.950 . S
C474 C473 1.398 . S
C474 C475 1.391 . S
C475 H463 0.950 1_565 S
C475 C471 1.393 . S
C475 C474 1.391 . S
H476 C484 0.950 . S
H477 C489 0.950 . S
H478 C486 0.950 . S
H479 C488 0.950 . S
H480 C490 0.950 1_545 S
H481 C492 0.950 1_545 S
H482 C494 0.950 . S
H483 C495 0.950 . S
C484 H476 0.950 . S
C484 C485 1.386 . S
C484 C486 1.391 . S
C485 C484 1.386 . S
C485 C489 1.393 . S
C486 H478 0.950 . S
C486 C484 1.391 . S
C486 C487 1.400 . S
C487 C486 1.400 . S
C487 C488 1.398 . S
C487 C493 1.491 . S
C488 H479 0.950 . S
C488 C487 1.398 . S
C488 C489 1.391 . S
C489 H477 0.950 . S
C489 C485 1.393 . S
C489 C488 1.391 . S
C490 H480 0.950 1_565 S
C490 C491 1.386 . S
C490 C492 1.391 . S
C491 C490 1.386 . S
C491 C495 1.393 . S
C492 H481 0.950 1_565 S
C492 C490 1.391 . S
C492 C493 1.400 . S
C493 C487 1.491 . S
C493 C492 1.400 . S
C493 C494 1.398 . S
C494 H482 0.950 . S
C494 C493 1.398 . S
C494 C495 1.391 . S
C495 H483 0.950 . S
C495 C491 1.393 . S
C495 C494 1.391 . S
H496 C504 0.950 . S
H497 C509 0.950 . S
H498 C506 0.950 1_565 S
H499 C508 0.950 . S
H500 C510 0.950 . S
H501 C512 0.950 1_545 S
H502 C514 0.950 . S
H503 C515 0.950 . S
C504 H496 0.950 . S
C504 C505 1.386 . S
C504 C506 1.391 . S
C505 C504 1.386 . S
C505 C509 1.393 . S
C506 H498 0.950 1_545 S
C506 C504 1.391 . S
C506 C507 1.400 . S
C507 C506 1.400 . S
C507 C508 1.398 . S
C507 C513 1.491 1_545 S
C508 H499 0.950 . S
C508 C507 1.398 . S
C508 C509 1.391 . S
C509 H497 0.950 . S
C509 C505 1.393 . S
C509 C508 1.391 . S
C510 H500 0.950 . S
C510 C511 1.386 . S
C510 C512 1.391 . S
C511 C510 1.386 . S
C511 C515 1.393 . S
C512 H501 0.950 1_565 S
C512 C510 1.391 . S
C512 C513 1.400 . S
C513 C507 1.491 1_565 S
C513 C512 1.400 . S
C513 C514 1.398 . S
C514 H502 0.950 . S
C514 C513 1.398 . S
C514 C515 1.391 . S
C515 H503 0.950 . S
C515 C511 1.393 . S
C515 C514 1.391 . S
H516 C524 0.950 . S
H517 C529 0.950 . S
H518 C526 0.950 . S
H519 C528 0.950 . S
H520 C530 0.950 . S
H521 C532 0.950 . S
H522 C534 0.950 . S
H523 C535 0.950 . S
C524 H516 0.950 . S
C524 C525 1.386 . S
C524 C526 1.391 . S
C525 C524 1.386 . S
C525 C529 1.393 . S
C526 H518 0.950 . S
C526 C524 1.391 . S
C526 C527 1.400 . S
C527 C526 1.400 . S
C527 C528 1.398 . S
C527 C533 1.491 . S
C528 H519 0.950 . S
C528 C527 1.398 . S
C528 C529 1.391 . S
C529 H517 0.950 . S
C529 C525 1.393 . S
C529 C528 1.391 . S
C530 H520 0.950 . S
C530 C531 1.386 . S
C530 C532 1.391 . S
C531 C530 1.386 . S
C531 C535 1.393 . S
C532 H521 0.950 . S
C532 C530 1.391 . S
C532 C533 1.400 . S
C533 C527 1.491 . S
C533 C532 1.400 . S
C533 C534 1.398 . S
C534 H522 0.950 . S
C534 C533 1.398 . S
C534 C535 1.391 . S
C535 H523 0.950 . S
C535 C531 1.393 . S
C535 C534 1.391 . S
H536 C544 0.950 . S
H537 C549 0.950 . S
H538 C546 0.950 . S
H539 C548 0.950 . S
H540 C550 0.950 . S
H541 C552 0.950 . S
H542 C554 0.950 . S
H543 C555 0.950 . S
C544 H536 0.950 . S
C544 C545 1.386 . S
C544 C546 1.391 . S
C545 C544 1.386 . S
C545 C549 1.393 . S
C546 H538 0.950 . S
C546 C544 1.391 . S
C546 C547 1.400 . S
C547 C546 1.400 . S
C547 C548 1.398 . S
C547 C553 1.491 . S
C548 H539 0.950 . S
C548 C547 1.398 . S
C548 C549 1.391 . S
C549 H537 0.950 . S
C549 C545 1.393 . S
C549 C548 1.391 . S
C550 H540 0.950 . S
C550 C551 1.386 . S
C550 C552 1.391 . S
C551 C550 1.386 . S
C551 C555 1.393 . S
C552 H541 0.950 . S
C552 C550 1.391 . S
C552 C553 1.400 . S
C553 C547 1.491 . S
C553 C552 1.400 . S
C553 C554 1.398 . S
C554 H542 0.950 . S
C554 C553 1.398 . S
C554 C555 1.391 . S
C555 H543 0.950 . S
C555 C551 1.393 . S
C555 C554 1.391 . S
H556 C564 0.950 . S
H557 C569 0.950 . S
H558 C566 0.950 . S
H559 C568 0.950 . S
H560 C570 0.950 . S
H561 C572 0.950 . S
H562 C574 0.950 . S
H563 C575 0.950 . S
C564 H556 0.950 . S
C564 C565 1.386 . S
C564 C566 1.391 . S
C565 C564 1.386 . S
C565 C569 1.393 . S
C566 H558 0.950 . S
C566 C564 1.391 . S
C566 C567 1.400 . S
C567 C566 1.400 . S
C567 C568 1.398 . S
C567 C573 1.491 . S
C568 H559 0.950 . S
C568 C567 1.398 . S
C568 C569 1.391 . S
C569 H557 0.950 . S
C569 C565 1.393 . S
C569 C568 1.391 . S
C570 H560 0.950 . S
C570 C571 1.386 . S
C570 C572 1.391 . S
C571 C570 1.386 . S
C571 C575 1.393 . S
C572 H561 0.950 . S
C572 C570 1.391 . S
C572 C573 1.400 . S
C573 C567 1.491 . S
C573 C572 1.400 . S
C573 C574 1.398 . S
C574 H562 0.950 . S
C574 C573 1.398 . S
C574 C575 1.391 . S
C575 H563 0.950 . S
C575 C571 1.393 . S
C575 C574 1.391 . S
C345 C231 0.577 . S
C351 C74 0.578 . S
C365 C326 0.251 . S
C371 C158 0.213 . S
C385 C242 1.144 . S
C391 C63 1.144 . S
C405 C147 0.849 . S
C411 C315 0.861 . S
C425 C140 2.947 . S
C431 C67 3.017 . S
C445 C151 3.158 . S
C451 C226 3.195 . S
C465 C319 2.462 1_655 S
C471 C238 2.168 . S
C485 C308 2.442 . S
C491 C56 2.272 . S
C505 C224 0.839 . S
C511 C310 0.725 . S
C525 C70 0.692 . S
C531 C322 0.758 . S
C545 C154 0.473 . S
C551 C58 0.893 . S
C565 C235 0.484 . S
C571 C142 0.888 . S
