# Generated by pormake.
# Topology zff, (5)-cn, num edge types: 1
# Building blocks:
#     Node 0, Type 0, BuildingBlock: XOMCOT_clean_sbu_0, # of connection points: 5
#     Node 1, Type 0, BuildingBlock: XOMCOT_clean_sbu_0, # of connection points: 5
#     Node 2, Type 0, BuildingBlock: XOMCOT_clean_sbu_0, # of connection points: 5
#     Node 3, Type 0, BuildingBlock: XOMCOT_clean_sbu_0, # of connection points: 5
#     Node 4, Type 0, BuildingBlock: XOMCOT_clean_sbu_0, # of connection points: 5
#     Node 5, Type 0, BuildingBlock: XOMCOT_clean_sbu_0, # of connection points: 5
#     Node 6, Type 0, BuildingBlock: XOMCOT_clean_sbu_0, # of connection points: 5
#     Node 7, Type 0, BuildingBlock: XOMCOT_clean_sbu_0, # of connection points: 5
#     Node 8, Type 0, BuildingBlock: XOMCOT_clean_sbu_0, # of connection points: 5
#     Node 9, Type 0, BuildingBlock: XOMCOT_clean_sbu_0, # of connection points: 5
#     Node 10, Type 0, BuildingBlock: XOMCOT_clean_sbu_0, # of connection points: 5
#     Node 11, Type 0, BuildingBlock: XOMCOT_clean_sbu_0, # of connection points: 5
#     Node 12, Type 0, BuildingBlock: XOMCOT_clean_sbu_0, # of connection points: 5
#     Node 13, Type 0, BuildingBlock: XOMCOT_clean_sbu_0, # of connection points: 5
#     Node 14, Type 0, BuildingBlock: XOMCOT_clean_sbu_0, # of connection points: 5
#     Node 15, Type 0, BuildingBlock: XOMCOT_clean_sbu_0, # of connection points: 5
#     Edge 16, Type (0, 0), BuildingBlock: KIFKEQ_clean_linker_1, # of connection points: 2
#     Edge 17, Type (0, 0), BuildingBlock: KIFKEQ_clean_linker_1, # of connection points: 2
#     Edge 18, Type (0, 0), BuildingBlock: KIFKEQ_clean_linker_1, # of connection points: 2
#     Edge 19, Type (0, 0), BuildingBlock: KIFKEQ_clean_linker_1, # of connection points: 2
#     Edge 20, Type (0, 0), BuildingBlock: KIFKEQ_clean_linker_1, # of connection points: 2
#     Edge 21, Type (0, 0), BuildingBlock: KIFKEQ_clean_linker_1, # of connection points: 2
#     Edge 22, Type (0, 0), BuildingBlock: KIFKEQ_clean_linker_1, # of connection points: 2
#     Edge 23, Type (0, 0), BuildingBlock: KIFKEQ_clean_linker_1, # of connection points: 2
#     Edge 24, Type (0, 0), BuildingBlock: KIFKEQ_clean_linker_1, # of connection points: 2
#     Edge 25, Type (0, 0), BuildingBlock: KIFKEQ_clean_linker_1, # of connection points: 2
#     Edge 26, Type (0, 0), BuildingBlock: KIFKEQ_clean_linker_1, # of connection points: 2
#     Edge 27, Type (0, 0), BuildingBlock: KIFKEQ_clean_linker_1, # of connection points: 2
#     Edge 28, Type (0, 0), BuildingBlock: KIFKEQ_clean_linker_1, # of connection points: 2
#     Edge 29, Type (0, 0), BuildingBlock: KIFKEQ_clean_linker_1, # of connection points: 2
#     Edge 30, Type (0, 0), BuildingBlock: KIFKEQ_clean_linker_1, # of connection points: 2
#     Edge 31, Type (0, 0), BuildingBlock: KIFKEQ_clean_linker_1, # of connection points: 2
#     Edge 32, Type (0, 0), BuildingBlock: KIFKEQ_clean_linker_1, # of connection points: 2
#     Edge 33, Type (0, 0), BuildingBlock: KIFKEQ_clean_linker_1, # of connection points: 2
#     Edge 34, Type (0, 0), BuildingBlock: KIFKEQ_clean_linker_1, # of connection points: 2
#     Edge 35, Type (0, 0), BuildingBlock: KIFKEQ_clean_linker_1, # of connection points: 2
#     Edge 36, Type (0, 0), BuildingBlock: KIFKEQ_clean_linker_1, # of connection points: 2
#     Edge 37, Type (0, 0), BuildingBlock: KIFKEQ_clean_linker_1, # of connection points: 2
#     Edge 38, Type (0, 0), BuildingBlock: KIFKEQ_clean_linker_1, # of connection points: 2
#     Edge 39, Type (0, 0), BuildingBlock: KIFKEQ_clean_linker_1, # of connection points: 2
#     Edge 40, Type (0, 0), BuildingBlock: KIFKEQ_clean_linker_1, # of connection points: 2
#     Edge 41, Type (0, 0), BuildingBlock: KIFKEQ_clean_linker_1, # of connection points: 2
#     Edge 42, Type (0, 0), BuildingBlock: KIFKEQ_clean_linker_1, # of connection points: 2
#     Edge 43, Type (0, 0), BuildingBlock: KIFKEQ_clean_linker_1, # of connection points: 2
#     Edge 44, Type (0, 0), BuildingBlock: KIFKEQ_clean_linker_1, # of connection points: 2
#     Edge 45, Type (0, 0), BuildingBlock: KIFKEQ_clean_linker_1, # of connection points: 2
#     Edge 46, Type (0, 0), BuildingBlock: KIFKEQ_clean_linker_1, # of connection points: 2
#     Edge 47, Type (0, 0), BuildingBlock: KIFKEQ_clean_linker_1, # of connection points: 2
#     Edge 48, Type (0, 0), BuildingBlock: KIFKEQ_clean_linker_1, # of connection points: 2
#     Edge 49, Type (0, 0), BuildingBlock: KIFKEQ_clean_linker_1, # of connection points: 2
#     Edge 50, Type (0, 0), BuildingBlock: KIFKEQ_clean_linker_1, # of connection points: 2
#     Edge 51, Type (0, 0), BuildingBlock: KIFKEQ_clean_linker_1, # of connection points: 2
#     Edge 52, Type (0, 0), BuildingBlock: KIFKEQ_clean_linker_1, # of connection points: 2
#     Edge 53, Type (0, 0), BuildingBlock: KIFKEQ_clean_linker_1, # of connection points: 2
#     Edge 54, Type (0, 0), BuildingBlock: KIFKEQ_clean_linker_1, # of connection points: 2
#     Edge 55, Type (0, 0), BuildingBlock: KIFKEQ_clean_linker_1, # of connection points: 2
# Relax obj value: 0.156
# Max RMSD: 0.225
# Mean RMSD: 0.225
data_MOF--net-zff--node1-XOMCOT_clean_sbu_0--edge1-KIFKEQ_clean_linker_1
_symmetry_space_group_name_H-M    P1
_symmetry_Int_Tables_number       1
_symmetry_cell_setting            triclinic
loop_
_symmetry_equiv_pos_as_xyz
'x, y, z'
_cell_length_a     38.007744
_cell_length_b     37.979399
_cell_length_c     67.663611
_cell_angle_alpha  89.946827
_cell_angle_beta   90.092725
_cell_angle_gamma 89.995068
loop_
_atom_site_label
_atom_site_type_symbol
_atom_site_fract_x
_atom_site_fract_y
_atom_site_fract_z
_atom_type_partial_charge
Co0 Co 0.02731 0.31134 0.40427 0.0
C1 C 0.03816 0.34433 0.36473 0.0
C2 C 0.9944 0.30879 0.36428 0.0
C3 C -0.00035 0.32151 0.34542 0.0
N4 N 0.01857 0.32308 0.37651 0.0
N5 N 0.02729 0.34379 0.34568 0.0
H6 H 0.06104 0.35865 0.36975 0.0
H7 H 0.97482 0.28957 0.36842 0.0
C8 C 0.95412 0.2875 0.40925 0.0
O9 O 0.94779 0.31831 0.41724 0.0
N10 N 0.03746 0.29987 0.43172 0.0
C11 C 0.06959 0.29065 0.4384 0.0
C12 C 0.0688 0.28846 0.45862 0.0
C13 C 0.01754 0.30371 0.44817 0.0
N14 N 0.0362 0.29688 0.46488 0.0
C15 C 0.08632 0.27858 0.38472 0.0
C16 C 0.06829 0.21063 0.39554 0.0
C17 C 0.09776 0.21584 0.38354 0.0
C18 C 0.10716 0.25036 0.37833 0.0
C19 C 0.04858 0.23934 0.40174 0.0
N20 N 0.05713 0.27271 0.39597 0.0
H21 H 0.09365 0.30511 0.38071 0.0
H22 H 0.02675 0.23462 0.41157 0.0
H23 H 0.0925 0.28679 0.4292 0.0
H24 H 0.9906 0.31282 0.448 0.0
O25 O 0.06098 0.3501 0.40607 0.0
O26 O 0.00384 0.35306 0.41233 0.0
O27 O 0.98531 0.27925 0.40406 0.0
C28 C 0.03382 0.36888 0.41136 0.0
H29 H 0.98445 0.31447 0.33248 0.0
H30 H 0.09083 0.2815 0.46799 0.0
H31 H 0.0609 0.18452 0.40049 0.0
H32 H 0.13011 0.25542 0.3693 0.0
Co33 Co 0.67746 0.033 0.37994 0.0
C34 C 0.65583 0.04944 0.33895 0.0
C35 C 0.6709 0.99521 0.34201 0.0
C36 C 0.65953 0.00084 0.32289 0.0
N37 N 0.66858 0.0257 0.35204 0.0
N38 N 0.65001 0.03495 0.32097 0.0
H39 H 0.64967 0.07641 0.34274 0.0
H40 H 0.67945 0.97042 0.34826 0.0
C41 C 0.74028 0.98966 0.39127 0.0
O42 O 0.74803 0.01158 0.4056 0.0
N43 N 0.68536 0.04117 0.40829 0.0
C44 C 0.69778 0.07076 0.41696 0.0
C45 C 0.69711 0.06686 0.43708 0.0
C46 C 0.67739 0.01954 0.42366 0.0
N47 N 0.68426 0.03478 0.44137 0.0
C48 C 0.69625 0.10535 0.37373 0.0
C49 C 0.76649 0.09321 0.36573 0.0
C50 C 0.75536 0.12763 0.36967 0.0
C51 C 0.71939 0.13383 0.37261 0.0
C52 C 0.74255 0.06558 0.36712 0.0
N53 N 0.70865 0.07162 0.37286 0.0
H54 H 0.66899 0.11036 0.37717 0.0
H55 H 0.75198 0.03941 0.36415 0.0
H56 H 0.70732 0.09393 0.40962 0.0
H57 H 0.66654 0.99338 0.42196 0.0
O58 O 0.63285 0.05761 0.38225 0.0
O59 O 0.64128 0.00012 0.3861 0.0
O60 O 0.71581 -0.00355 0.37894 0.0
C61 C 0.61973 0.02654 0.38591 0.0
H62 H 0.65816 0.98119 0.31135 0.0
H63 H 0.70605 0.08607 0.44778 0.0
H64 H 0.79389 0.08731 0.36287 0.0
H65 H 0.70957 0.16023 0.37511 0.0
Co66 Co 0.9628 0.68133 0.40072 0.0
C67 C 0.94557 0.65706 0.35997 0.0
C68 C 0.9887 0.69336 0.35961 0.0
C69 C 0.98135 0.6833 0.34045 0.0
N70 N 0.96607 0.6771 0.37194 0.0
N71 N 0.95411 0.66048 0.34063 0.0
H72 H 0.92502 0.63989 0.36534 0.0
H73 H 0.00922 0.71139 0.36401 0.0
C74 C 0.01616 0.73697 0.41224 0.0
O75 O 0.01034 0.73224 0.4311 0.0
N76 N 0.95705 0.68358 0.42957 0.0
C77 C 0.92567 0.68829 0.43859 0.0
C78 C 0.92927 0.68321 0.45854 0.0
C79 C 0.97903 0.67366 0.44447 0.0
N80 N 0.96282 0.6743 0.46232 0.0
C81 C 0.89189 0.7028 0.38914 0.0
C82 C 0.89901 0.7702 0.4041 0.0
C83 C 0.86699 0.76053 0.39555 0.0
C84 C 0.8635 0.72647 0.38773 0.0
C85 C 0.92625 0.74618 0.40516 0.0
N86 N 0.9229 0.71301 0.39765 0.0
H87 H 0.88864 0.6762 0.38387 0.0
H88 H 0.9495 0.75414 0.413 0.0
H89 H 0.90105 0.69381 0.43123 0.0
H90 H 0.00619 0.66598 0.44232 0.0
O91 O 0.94109 0.63478 0.40203 0.0
O92 O -0.00179 0.6467 0.4035 0.0
O93 O -0.00303 0.72213 0.39918 0.0
C94 C 0.97351 0.62334 0.40353 0.0
H95 H 0.99481 0.69267 0.32739 0.0
H96 H 0.90871 0.686 0.46948 0.0
H97 H 0.903 0.79627 0.4102 0.0
H98 H 0.83896 0.718 0.38112 0.0
Co99 Co 0.30867 0.96009 0.38167 0.0
C100 C 0.33814 0.94162 0.34223 0.0
C101 C 0.32623 -0.00327 0.34471 0.0
C102 C 0.34108 0.99069 0.32646 0.0
N103 N 0.32441 0.96602 0.35459 0.0
N104 N 0.34856 0.95606 0.32487 0.0
H105 H 0.3413 0.91412 0.34606 0.0
H106 H 0.31792 0.0219 0.35052 0.0
C107 C 0.23539 0.9925 0.38024 0.0
O108 O 0.22098 0.96533 0.38899 0.0
N109 N 0.29302 0.95403 0.40935 0.0
C110 C 0.26692 0.93294 0.41604 0.0
C111 C 0.26571 0.9341 0.43627 0.0
C112 C 0.30721 0.96784 0.42613 0.0
N113 N 0.29116 0.95584 0.44275 0.0
C114 C 0.29252 0.88678 0.3824 0.0
C115 C 0.23285 0.89173 0.35906 0.0
C116 C 0.23765 0.8621 0.3711 0.0
C117 C 0.26925 0.85847 0.38161 0.0
C118 C 0.25683 0.91946 0.36036 0.0
N119 N 0.28379 0.91797 0.37367 0.0
H120 H 0.31511 0.88522 0.39208 0.0
H121 H 0.252 0.94322 0.352 0.0
H122 H 0.24942 0.91731 0.40709 0.0
H123 H 0.32933 0.98572 0.42631 0.0
O124 O 0.35379 0.93971 0.38828 0.0
O125 O 0.34018 -0.00335 0.38953 0.0
O126 O 0.26803 0.99258 0.3759 0.0
C127 C 0.36372 0.97211 0.39148 0.0
H128 H 0.34595 0.01033 0.31519 0.0
H129 H 0.24708 0.92013 0.44546 0.0
H130 H 0.20911 0.89503 0.35038 0.0
H131 H 0.27412 0.83551 0.39073 0.0
Co132 Co 0.05056 0.66904 0.66432 0.0
C133 C 0.06791 0.65754 0.70662 0.0
C134 C 0.01803 0.68294 0.70379 0.0
C135 C 0.02331 0.67424 0.72341 0.0
N136 N 0.0466 0.67351 0.69319 0.0
N137 N 0.05473 0.65801 0.72519 0.0
H138 H 0.09157 0.64354 0.70268 0.0
H139 H 0.9938 0.69302 0.69761 0.0
C140 C 0.01359 0.73803 0.66855 0.0
O141 O 0.0371 0.74747 0.6818 0.0
N142 N 0.0557 0.66189 0.63595 0.0
C143 C 0.08516 0.64808 0.62814 0.0
C144 C 0.08189 0.64688 0.60803 0.0
C145 C 0.03458 0.66903 0.62026 0.0
N146 N 0.0503 0.66032 0.60285 0.0
C147 C 0.11755 0.70284 0.67585 0.0
C148 C 0.10874 0.75719 0.64904 0.0
C149 C 0.13465 0.76028 0.66353 0.0
C150 C 0.14031 0.73199 0.67649 0.0
C151 C 0.08686 0.72807 0.64896 0.0
N152 N 0.08969 0.70237 0.66304 0.0
H153 H 0.12204 0.68148 0.68593 0.0
H154 H 0.06583 0.7276 0.63823 0.0
H155 H 0.10786 0.6397 0.63658 0.0
H156 H 0.00885 0.681 0.62153 0.0
O157 O 0.07339 0.62347 0.66836 0.0
O158 O 0.01605 0.63338 0.66527 0.0
O159 O 0.01608 0.70834 0.65986 0.0
C160 C 0.04125 0.61107 0.66801 0.0
H161 H 0.00432 0.67744 0.73518 0.0
H162 H 0.10149 0.63649 0.59804 0.0
H163 H 0.10434 0.77798 0.63833 0.0
H164 H 0.16097 0.73309 0.68752 0.0
Co165 Co 0.32528 0.02882 0.64638 0.0
C166 C 0.33963 0.04915 0.68806 0.0
C167 C 0.3134 -0.00051 0.68691 0.0
C168 C 0.32205 0.00667 0.70632 0.0
N169 N 0.32318 0.02684 0.6754 0.0
N170 N 0.33859 0.03808 0.70706 0.0
H171 H 0.35476 0.07165 0.6833 0.0
H172 H 0.30251 0.97498 0.68159 0.0
C173 C 0.25613 0.99457 0.65387 0.0
O174 O 0.24837 0.02066 0.66585 0.0
N175 N 0.32999 0.03199 0.61777 0.0
C176 C 0.34281 0.06114 0.60901 0.0
C177 C 0.34095 0.05732 0.58894 0.0
C178 C 0.32065 0.01033 0.60269 0.0
N179 N 0.32684 0.0256 0.58484 0.0
C180 C 0.29424 0.09736 0.65754 0.0
C181 C 0.23715 0.08846 0.63267 0.0
C182 C 0.23554 0.11449 0.64718 0.0
C183 C 0.26532 0.12026 0.65904 0.0
C184 C 0.26599 0.06619 0.63187 0.0
N185 N 0.29302 0.06899 0.64514 0.0
H186 H 0.31672 0.1021 0.66675 0.0
H187 H 0.26503 0.04472 0.62145 0.0
H188 H 0.35205 0.08423 0.61679 0.0
H189 H 0.30844 0.98483 0.60469 0.0
O190 O 0.37184 0.05041 0.64861 0.0
O191 O 0.3599 0.99319 0.64721 0.0
O192 O 0.2847 0.99518 0.64399 0.0
C193 C 0.38313 0.01783 0.64877 0.0
H194 H 0.31739 0.98943 0.71877 0.0
H195 H 0.34914 0.07665 0.57812 0.0
H196 H 0.21535 0.08402 0.62263 0.0
H197 H 0.26559 0.14101 0.67001 0.0
Co198 Co 0.96032 0.30128 0.66792 0.0
C199 C 0.94579 0.32141 0.70902 0.0
C200 C -0.00022 0.30606 0.70572 0.0
C201 C 0.99462 0.31796 0.72481 0.0
N202 N 0.96906 0.30818 0.69589 0.0
N203 N 0.96062 0.32784 0.72686 0.0
H204 H 0.91869 0.32708 0.70532 0.0
H205 H 0.02448 0.29793 0.69927 0.0
C206 C 0.00098 0.23721 0.65552 0.0
O207 O 0.97595 0.22838 0.64307 0.0
N208 N 0.95045 0.29581 0.63962 0.0
C209 C 0.91834 0.29439 0.63107 0.0
C210 C 0.92181 0.29555 0.61096 0.0
C211 C 0.97315 0.29857 0.62418 0.0
N212 N 0.95616 0.29839 0.60651 0.0
C213 C 0.88848 0.28007 0.67432 0.0
C214 C 0.90307 0.21015 0.68196 0.0
C215 C 0.86837 0.21998 0.67768 0.0
C216 C 0.86087 0.25583 0.67503 0.0
C217 C 0.92973 0.23527 0.68096 0.0
N218 N 0.92257 0.26889 0.675 0.0
H219 H 0.88251 0.30743 0.67151 0.0
H220 H 0.95613 0.22704 0.68443 0.0
H221 H 0.89344 0.29428 0.63849 0.0
H222 H 0.00128 0.30188 0.62587 0.0
O223 O 0.93542 0.34589 0.66761 0.0
O224 O 0.99248 0.33798 0.66178 0.0
O225 O -0.00301 0.26328 0.66716 0.0
C226 C 0.96617 0.35938 0.66354 0.0
H227 H 0.01484 0.32059 0.73598 0.0
H228 H 0.90042 0.29495 0.60038 0.0
H229 H 0.91001 0.18297 0.68485 0.0
H230 H 0.83416 0.2648 0.6726 0.0
Co231 Co 0.68779 0.94544 0.64205 0.0
C232 C 0.6619 0.92917 0.68261 0.0
C233 C 0.69472 0.975 0.68281 0.0
C234 C 0.68348 0.96842 0.70185 0.0
N235 N 0.68108 0.95042 0.67062 0.0
N236 N 0.66283 0.93952 0.70173 0.0
H237 H 0.64748 0.90644 0.67749 0.0
H238 H 0.71201 -0.00384 0.67843 0.0
C239 C 0.7095 0.01959 0.63839 0.0
O240 O 0.67733 0.02601 0.63232 0.0
N241 N 0.69387 0.9389 0.61376 0.0
C242 C 0.69927 0.90714 0.60543 0.0
C243 C 0.69769 0.91043 0.58526 0.0
C244 C 0.68866 0.96123 0.5984 0.0
N245 N 0.69085 0.94433 0.58078 0.0
C246 C 0.72599 0.88572 0.65772 0.0
C247 C 0.78932 0.90415 0.64036 0.0
C248 C 0.78771 0.87358 0.65186 0.0
C249 C 0.75562 0.86441 0.66073 0.0
C250 C 0.75943 0.92472 0.63791 0.0
N251 N 0.72836 0.91565 0.64663 0.0
H252 H 0.70112 0.878 0.66407 0.0
H253 H 0.76115 0.94765 0.62851 0.0
H254 H 0.703 0.88287 0.61354 0.0
H255 H 0.68185 0.9887 0.60002 0.0
O256 O 0.64967 0.91097 0.6412 0.0
O257 O 0.64438 0.96879 0.63743 0.0
O258 O 0.71915 0.98807 0.64208 0.0
C259 C 0.62956 0.93825 0.63806 0.0
H260 H 0.69066 0.98345 0.71482 0.0
H261 H 0.70096 0.8893 0.5747 0.0
H262 H 0.81359 0.91222 0.63331 0.0
H263 H 0.7533 0.84069 0.66952 0.0
Co264 Co 0.53931 0.81695 0.88086 0.0
C265 C 0.56062 0.8242 0.83893 0.0
C266 C 0.50803 0.80482 0.84106 0.0
C267 C 0.51497 0.8128 0.82153 0.0
N268 N 0.53705 0.81104 0.85206 0.0
N269 N 0.54807 0.82534 0.82022 0.0
H270 H 0.58538 0.83574 0.84319 0.0
H271 H 0.48249 0.79798 0.84692 0.0
C272 C 0.49652 0.75151 0.87647 0.0
O273 O 0.52016 0.73932 0.86407 0.0
N274 N 0.54281 0.82502 0.90919 0.0
C275 C 0.57228 0.83754 0.91774 0.0
C276 C 0.56729 0.83967 0.93774 0.0
C277 C 0.52009 0.81927 0.92429 0.0
N278 N 0.53458 0.82824 0.94196 0.0
C279 C 0.60606 0.78051 0.87308 0.0
C280 C 0.59117 0.72621 0.89903 0.0
C281 C 0.62052 0.72332 0.88678 0.0
C282 C 0.62888 0.75151 0.87422 0.0
C283 C 0.56942 0.75532 0.89746 0.0
N284 N 0.57557 0.78101 0.88374 0.0
H285 H 0.61298 0.80214 0.86363 0.0
H286 H 0.54664 0.75647 0.90694 0.0
H287 H 0.59624 0.84404 0.90995 0.0
H288 H 0.49384 0.80873 0.92244 0.0
O289 O 0.56649 0.85994 0.87671 0.0
O290 O 0.50815 0.85538 0.87826 0.0
O291 O 0.50115 0.78113 0.88494 0.0
C292 C 0.53557 0.87498 0.87568 0.0
H293 H 0.49606 0.81214 0.80956 0.0
H294 H 0.58671 0.84804 0.94847 0.0
H295 H 0.58464 0.70571 0.90956 0.0
H296 H 0.65213 0.75068 0.865 0.0
Co297 Co 0.18069 0.53876 0.90711 0.0
C298 C 0.16055 0.55561 0.86551 0.0
C299 C 0.1885 0.50687 0.86692 0.0
C300 C 0.17805 0.51262 0.84762 0.0
N301 N 0.17878 0.53457 0.87815 0.0
N302 N 0.16052 0.54347 0.84671 0.0
H303 H 0.14527 0.57807 0.87016 0.0
H304 H 0.20099 0.48322 0.87238 0.0
C305 C 0.25027 0.50658 0.89767 0.0
O306 O 0.25531 0.53189 0.88471 0.0
N307 N 0.17993 0.54392 0.93575 0.0
C308 C 0.17088 0.5745 0.94444 0.0
C309 C 0.16881 0.56959 0.96444 0.0
C310 C 0.18314 0.52042 0.95076 0.0
N311 N 0.17628 0.53566 0.96853 0.0
C312 C 0.20709 0.6075 0.89309 0.0
C313 C 0.26837 0.60217 0.91496 0.0
C314 C 0.26652 0.62719 0.89987 0.0
C315 C 0.2347 0.63124 0.88958 0.0
C316 C 0.24059 0.57909 0.91781 0.0
N317 N 0.21152 0.57997 0.90587 0.0
H318 H 0.18292 0.61094 0.88513 0.0
H319 H 0.24381 0.55853 0.9287 0.0
H320 H 0.16538 0.59873 0.93661 0.0
H321 H 0.18902 0.49278 0.9487 0.0
O322 O 0.13341 0.55884 0.90659 0.0
O323 O 0.14723 0.50216 0.90887 0.0
O324 O 0.22276 0.50662 0.90849 0.0
C325 C 0.12305 0.52605 0.90813 0.0
H326 H 0.18254 0.495 0.83533 0.0
H327 H 0.16212 0.58954 0.97521 0.0
H328 H 0.29195 0.59916 0.92383 0.0
H329 H 0.23182 0.65126 0.87829 0.0
Co330 Co 0.45381 0.17853 0.88486 0.0
C331 C 0.43578 0.16225 0.84344 0.0
C332 C 0.48998 0.17742 0.846 0.0
C333 C 0.48353 0.16694 0.82678 0.0
N334 N 0.45995 0.17455 0.85641 0.0
N335 N 0.44948 0.15708 0.82522 0.0
H336 H 0.40894 0.1561 0.84747 0.0
H337 H 0.51517 0.18496 0.85213 0.0
C338 C 0.49653 0.24313 0.89435 0.0
O339 O 0.47 0.25746 0.90382 0.0
N340 N 0.4473 0.18044 0.91363 0.0
C341 C 0.42066 0.16445 0.9234 0.0
C342 C 0.42763 0.16414 0.94326 0.0
C343 C 0.47085 0.18865 0.92807 0.0
N344 N 0.45909 0.17932 0.94623 0.0
C345 C 0.3877 0.21616 0.8896 0.0
C346 C 0.40878 0.27411 0.86791 0.0
C347 C 0.37836 0.27665 0.87948 0.0
C348 C 0.36692 0.24653 0.88965 0.0
C349 C 0.4288 0.2434 0.86842 0.0
N350 N 0.4196 0.21594 0.8804 0.0
H351 H 0.37845 0.1934 0.89743 0.0
H352 H 0.45309 0.24267 0.86015 0.0
H353 H 0.39856 0.15131 0.91661 0.0
H354 H 0.49698 0.19878 0.92539 0.0
O355 O 0.42433 0.13684 0.88358 0.0
O356 O 0.48236 0.13816 0.88853 0.0
O357 O 0.49355 0.21305 0.88621 0.0
C358 C 0.45385 0.11992 0.88639 0.0
H359 H 0.50293 0.16495 0.81514 0.0
H360 H 0.41139 0.15243 0.95464 0.0
H361 H 0.41783 0.29613 0.85909 0.0
H362 H 0.34306 0.24683 0.89837 0.0
Co363 Co 0.815 0.45133 0.90215 0.0
C364 C 0.84147 0.43499 0.86228 0.0
C365 C 0.83324 0.49056 0.86569 0.0
C366 C 0.8469 0.48429 0.84711 0.0
N367 N 0.82975 0.45958 0.87512 0.0
N368 N 0.85217 0.44927 0.84495 0.0
H369 H 0.84232 0.40719 0.86572 0.0
H370 H 0.82716 0.51596 0.87203 0.0
C371 C 0.75059 0.49584 0.90816 0.0
O372 O 0.73632 0.47115 0.91915 0.0
N373 N 0.80128 0.44221 0.9296 0.0
C374 C 0.79784 0.41042 0.93831 0.0
C375 C 0.79263 0.41477 0.95818 0.0
C376 C 0.79918 0.46555 0.94476 0.0
N377 N 0.79336 0.44941 0.9624 0.0
C378 C 0.78715 0.38166 0.89447 0.0
C379 C 0.72503 0.40499 0.87779 0.0
C380 C 0.72772 0.36953 0.88334 0.0
C381 C 0.76021 0.35748 0.89065 0.0
C382 C 0.75268 0.42791 0.88172 0.0
N383 N 0.7815 0.41686 0.89207 0.0
H384 H 0.812 0.37225 0.90016 0.0
H385 H 0.75017 0.45479 0.87684 0.0
H386 H 0.80118 0.38527 0.93135 0.0
H387 H 0.80257 0.49364 0.9429 0.0
O388 O 0.8568 0.42263 0.90592 0.0
O389 O 0.85212 0.48016 0.91155 0.0
O390 O 0.78035 0.49091 0.89997 0.0
C391 C 0.87153 0.45216 0.91141 0.0
H392 H 0.85341 0.50425 0.8363 0.0
H393 H 0.79063 0.39363 0.96884 0.0
H394 H 0.70118 0.41569 0.87142 0.0
H395 H 0.76445 0.32991 0.89397 0.0
Co396 Co 0.52301 0.19255 0.14827 0.0
C397 C 0.54512 0.16312 0.18718 0.0
C398 C 0.48948 0.1728 0.18569 0.0
C399 C 0.49712 0.15759 0.20367 0.0
N400 N 0.5195 0.17626 0.17536 0.0
N401 N 0.53206 0.15139 0.20462 0.0
H402 H 0.57243 0.16107 0.18282 0.0
H403 H 0.46365 0.18005 0.18033 0.0
C404 C 0.45721 0.22893 0.14403 0.0
O405 O 0.45378 0.20843 0.12852 0.0
N406 N 0.52636 0.20955 0.12102 0.0
C407 C 0.53109 0.24355 0.11585 0.0
C408 C 0.53091 0.2463 0.09559 0.0
C409 C 0.52262 0.19215 0.10364 0.0
N410 N 0.52547 0.21405 0.08791 0.0
C411 C 0.59129 0.22335 0.14581 0.0
C412 C 0.57788 0.27775 0.17195 0.0
C413 C 0.60834 0.27904 0.16029 0.0
C414 C 0.61563 0.25069 0.14766 0.0
C415 C 0.55412 0.25008 0.16951 0.0
N416 N 0.56024 0.22446 0.15583 0.0
H417 H 0.59607 0.20258 0.13523 0.0
H418 H 0.52996 0.2502 0.17791 0.0
H419 H 0.53381 0.26514 0.12615 0.0
H420 H 0.51752 0.16424 0.1024 0.0
O421 O 0.55004 0.15057 0.14191 0.0
O422 O 0.49191 0.1557 0.14044 0.0
O423 O 0.486 0.22882 0.15373 0.0
C424 C 0.51948 0.13599 0.13859 0.0
H425 H 0.47827 0.15137 0.21512 0.0
H426 H 0.53326 0.27042 0.08716 0.0
H427 H 0.57135 0.299 0.18196 0.0
H428 H 0.63921 0.25036 0.1387 0.0
Co429 Co 0.81224 0.54565 0.16235 0.0
C430 C 0.83355 0.56185 0.20335 0.0
C431 C 0.81934 0.50742 0.2004 0.0
C432 C 0.83072 0.51331 0.21951 0.0
N433 N 0.821 0.53792 0.19032 0.0
N434 N 0.83984 0.54757 0.22137 0.0
H435 H 0.83837 0.58911 0.19956 0.0
H436 H 0.81146 0.48242 0.19416 0.0
C437 C 0.74562 0.50604 0.1539 0.0
O438 O 0.73412 0.53279 0.14339 0.0
N439 N 0.80534 0.55403 0.13393 0.0
C440 C 0.8168 0.58295 0.12419 0.0
C441 C 0.81548 0.57727 0.10425 0.0
C442 C 0.79853 0.53041 0.11931 0.0
N443 N 0.80411 0.54428 0.10109 0.0
C444 C 0.77918 0.61483 0.16266 0.0
C445 C 0.72029 0.59244 0.18294 0.0
C446 C 0.719 0.62471 0.17291 0.0
C447 C 0.74978 0.63686 0.16371 0.0
C448 C 0.75 0.57125 0.18125 0.0
N449 N 0.77748 0.5811 0.16949 0.0
H450 H 0.80278 0.62472 0.15598 0.0
H451 H 0.74996 0.54586 0.18846 0.0
H452 H 0.82922 0.60553 0.1308 0.0
H453 H 0.79223 0.50301 0.12189 0.0
O454 O 0.85522 0.57329 0.16124 0.0
O455 O 0.85039 0.51565 0.15588 0.0
O456 O 0.77551 0.50753 0.16248 0.0
C457 C 0.87017 0.54341 0.15663 0.0
H458 H 0.83333 0.49349 0.23092 0.0
H459 H 0.8242 0.59539 0.09291 0.0
H460 H 0.69797 0.58289 0.19131 0.0
H461 H 0.7507 0.6623 0.1565 0.0
Co462 Co 0.4541 0.82148 0.14377 0.0
C463 C 0.44022 0.84239 0.1858 0.0
C464 C 0.49224 0.82206 0.18209 0.0
C465 C 0.48847 0.83301 0.2014 0.0
N466 N 0.46155 0.82675 0.17234 0.0
N467 N 0.45561 0.84564 0.20374 0.0
H468 H 0.41512 0.85407 0.18233 0.0
H469 H 0.51634 0.81263 0.17548 0.0
C470 C 0.49062 0.75559 0.15531 0.0
O471 O 0.46652 0.75168 0.16906 0.0
N472 N 0.44614 0.81826 0.11544 0.0
C473 C 0.41441 0.8238 0.10712 0.0
C474 C 0.41732 0.82081 0.08703 0.0
C475 C 0.46833 0.81247 0.10013 0.0
N476 N 0.45112 0.81361 0.0825 0.0
C477 C 0.38614 0.79561 0.15884 0.0
C478 C 0.39165 0.7318 0.13945 0.0
C479 C 0.36398 0.73679 0.1527 0.0
C480 C 0.36081 0.76942 0.16222 0.0
C481 C 0.41641 0.75814 0.13684 0.0
N482 N 0.41486 0.78884 0.14734 0.0
H483 H 0.3822 0.82111 0.16525 0.0
H484 H 0.43768 0.75329 0.12664 0.0
H485 H 0.39069 0.83004 0.11522 0.0
H486 H 0.49624 0.8077 0.10185 0.0
O487 O 0.43072 0.86706 0.14339 0.0
O488 O 0.48797 0.85732 0.13948 0.0
O489 O 0.4886 0.78123 0.14311 0.0
C490 C 0.46227 0.87965 0.1402 0.0
H491 H 0.50861 0.83232 0.21272 0.0
H492 H 0.39623 0.82482 0.0765 0.0
H493 H 0.39501 0.70715 0.13163 0.0
H494 H 0.33894 0.77464 0.17204 0.0
Co495 Co 0.17766 0.46856 0.17184 0.0
C496 C 0.14683 0.45186 0.21088 0.0
C497 C 0.16393 0.50566 0.20942 0.0
C498 C 0.14983 0.49945 0.22787 0.0
N499 N 0.16213 0.47577 0.19882 0.0
N500 N 0.13904 0.46556 0.22884 0.0
H501 H 0.14119 0.4251 0.20643 0.0
H502 H 0.1747 0.53026 0.20411 0.0
C503 C 0.24957 0.50244 0.17006 0.0
O504 O 0.26267 0.47606 0.15999 0.0
N505 N 0.19301 0.46056 0.14428 0.0
C506 C 0.21617 0.43609 0.13781 0.0
C507 C 0.21805 0.43707 0.11759 0.0
C508 C 0.18126 0.4762 0.1274 0.0
N509 N 0.19598 0.4621 0.11092 0.0
C510 C 0.19119 0.39474 0.17448 0.0
C511 C 0.25406 0.40099 0.19485 0.0
C512 C 0.24604 0.36915 0.18541 0.0
C513 C 0.21289 0.36536 0.17649 0.0
C514 C 0.23139 0.42958 0.19262 0.0
N515 N 0.20246 0.42694 0.18076 0.0
H516 H 0.16721 0.39241 0.16599 0.0
H517 H 0.23837 0.45435 0.19936 0.0
H518 H 0.23199 0.41902 0.14694 0.0
H519 H 0.16181 0.49696 0.12704 0.0
O520 O 0.1322 0.44836 0.16566 0.0
O521 O 0.14664 0.50491 0.16326 0.0
O522 O 0.21833 0.50117 0.1768 0.0
C523 C 0.12284 0.48064 0.16158 0.0
H524 H 0.14816 0.51847 0.23973 0.0
H525 H 0.23501 0.4209 0.10852 0.0
H526 H 0.27894 0.40481 0.20238 0.0
H527 H 0.20517 0.34078 0.16963 0.0
H528 H 0.93063 0.56536 0.40816 0.0
H529 H 0.03947 0.59707 0.40272 0.0
H530 H 0.94976 0.50395 0.41182 0.0
H531 H 0.05823 0.53665 0.40667 0.0
H532 H 0.07067 0.41785 0.39033 0.0
H533 H 0.0564 0.48069 0.38863 0.0
H534 H 0.98214 0.46781 0.43641 0.0
H535 H -0.00391 0.40528 0.43784 0.0
C536 C 0.95845 0.55925 0.40774 0.0
C537 C 0.98344 0.58598 0.40522 0.0
C538 C 0.96946 0.52427 0.40997 0.0
C539 C 0.00556 0.51565 0.40961 0.0
C540 C 0.03032 0.54242 0.40684 0.0
C541 C 0.01941 0.57711 0.40469 0.0
C542 C 0.05235 0.42886 0.40091 0.0
C543 C 0.03447 0.40704 0.41421 0.0
C544 C 0.04384 0.46465 0.39982 0.0
C545 C 0.01749 0.47885 0.41209 0.0
C546 C 0.00179 0.45737 0.42642 0.0
C547 C 0.01019 0.42178 0.42745 0.0
H548 H 0.58505 0.96581 0.3799 0.0
H549 H 0.5701 0.07295 0.39946 0.0
H550 H 0.52332 0.95372 0.38489 0.0
H551 H 0.50788 0.0604 0.40565 0.0
H552 H 0.39373 0.03605 0.3867 0.0
H553 H 0.45572 0.05047 0.3882 0.0
H554 H 0.4787 0.94435 0.40772 0.0
H555 H 0.41643 0.92942 0.40493 0.0
C556 C 0.56848 0.98668 0.38558 0.0
C557 C 0.58215 0.02035 0.38923 0.0
C558 C 0.53308 0.97963 0.38869 0.0
C559 C 0.51054 0.00591 0.39592 0.0
C560 C 0.52441 0.03962 0.39986 0.0
C561 C 0.55994 0.04688 0.39635 0.0
C562 C 0.412 0.01591 0.39156 0.0
C563 C 0.4005 0.98147 0.39542 0.0
C564 C 0.4476 0.02428 0.39257 0.0
C565 C 0.47238 -0.00151 0.39783 0.0
C566 C 0.46043 0.96461 0.40306 0.0
C567 C 0.42481 0.95604 0.40161 0.0
H568 H 0.01323 0.39294 0.64061 0.0
H569 H 0.93622 0.40979 0.68643 0.0
H570 H 0.03319 0.45358 0.64386 0.0
H571 H 0.9571 0.4702 0.69043 0.0
H572 H 0.9767 0.58521 0.67515 0.0
H573 H 0.95768 0.52482 0.67417 0.0
H574 H 0.06539 0.49114 0.66594 0.0
H575 H 0.08451 0.55289 0.66597 0.0
C576 C 0.00035 0.40995 0.65123 0.0
C577 C 0.97295 0.39719 0.6631 0.0
C578 C 0.01219 0.44439 0.65335 0.0
C579 C -0.00282 0.46654 0.66762 0.0
C580 C 0.96904 0.45389 0.67917 0.0
C581 C 0.95681 0.4195 0.6768 0.0
C582 C -0.00346 0.56502 0.67322 0.0
C583 C 0.03211 0.57373 0.6703 0.0
C584 C 0.98555 0.53024 0.67287 0.0
C585 C 0.0099 0.50314 0.66983 0.0
C586 C 0.0459 0.51161 0.66793 0.0
C587 C 0.05695 0.54679 0.66815 0.0
H588 H 0.58891 0.9641 0.60917 0.0
H589 H 0.5854 0.91367 0.66624 0.0
H590 H 0.52844 0.98414 0.6133 0.0
H591 H 0.52532 0.93477 0.6709 0.0
H592 H 0.40738 0.9574 0.6641 0.0
H593 H 0.46562 0.93248 0.66048 0.0
H594 H 0.50134 0.02931 0.63346 0.0
H595 H 0.44186 0.05392 0.63644 0.0
C596 C 0.57454 0.9562 0.62227 0.0
C597 C 0.5913 0.937 0.63727 0.0
C598 C 0.54034 0.96841 0.62488 0.0
C599 C 0.52253 0.962 0.64268 0.0
C600 C 0.53838 0.94022 0.65702 0.0
C601 C 0.57256 0.92765 0.65427 0.0
C602 C 0.4278 0.9736 0.65759 0.0
C603 C 0.42019 0.00743 0.65031 0.0
C604 C 0.46122 0.95929 0.65559 0.0
C605 C 0.48791 0.97861 0.64635 0.0
C606 C 0.48094 0.01345 0.6402 0.0
C607 C 0.4472 0.02782 0.64218 0.0
H608 H 0.48412 0.90228 0.85357 0.0
H609 H 0.57301 0.9312 0.88983 0.0
H610 H 0.46154 0.96175 0.85541 0.0
H611 H 0.5513 0.99199 0.89097 0.0
H612 H 0.47939 0.07661 0.9142 0.0
H613 H 0.50331 0.01796 0.90842 0.0
H614 H 0.46522 0.022 0.84814 0.0
H615 H 0.43979 0.07994 0.8545 0.0
C616 C 0.49947 0.92193 0.86137 0.0
C617 C 0.52995 0.91238 0.87181 0.0
C618 C 0.48656 0.95605 0.86239 0.0
C619 C 0.50411 0.9814 0.87376 0.0
C620 C 0.53665 0.97265 0.88258 0.0
C621 C 0.5495 0.93818 0.88164 0.0
C622 C 0.47497 0.06409 0.90002 0.0
C623 C 0.45712 0.08193 0.88493 0.0
C624 C 0.48946 0.03105 0.8965 0.0
C625 C 0.48702 0.01571 0.87766 0.0
C626 C 0.46748 0.03301 0.86284 0.0
C627 C 0.45245 0.06587 0.86651 0.0
H628 H 0.92526 0.41553 0.89448 0.0
H629 H 0.90223 0.49937 0.93553 0.0
H630 H 0.98701 0.4337 0.89395 0.0
H631 H 0.96377 0.51721 0.93531 0.0
H632 H 0.06313 0.56702 0.90816 0.0
H633 H 0.00225 0.5459 0.91077 0.0
H634 H 0.03977 0.43863 0.914 0.0
H635 H 0.09958 0.45922 0.91099 0.0
C636 C 0.93372 0.43698 0.90391 0.0
C637 C 0.90927 0.45609 0.91503 0.0
C638 C 0.96889 0.44764 0.90349 0.0
C639 C 0.97994 0.47738 0.91429 0.0
C640 C 0.95578 0.49484 0.92644 0.0
C641 C 0.92075 0.48431 0.92679 0.0
C642 C 0.05817 0.53901 0.90936 0.0
C643 C 0.08605 0.51488 0.90935 0.0
C644 C 0.02349 0.5269 0.91099 0.0
C645 C 0.01639 0.49056 0.91261 0.0
C646 C 0.04436 0.46667 0.91253 0.0
C647 C 0.07871 0.47865 0.91089 0.0
H648 H 0.52334 0.90787 0.12737 0.0
H649 H 0.41871 0.93626 0.14661 0.0
H650 H 0.53862 0.96953 0.12413 0.0
H651 H 0.43441 -0.00137 0.14368 0.0
H652 H 0.46369 0.1059 0.12059 0.0
H653 H 0.44957 0.04349 0.11903 0.0
H654 H 0.54957 0.01889 0.14626 0.0
H655 H 0.56393 0.08165 0.14752 0.0
C656 C 0.50353 0.92736 0.13094 0.0
C657 C 0.46982 0.9173 0.13739 0.0
C658 C 0.51244 0.9627 0.12914 0.0
C659 C 0.48787 0.98888 0.13378 0.0
C660 C 0.45381 0.97893 0.13982 0.0
C661 C 0.44481 0.94333 0.14157 0.0
C662 C 0.48292 0.08708 0.12594 0.0
C663 C 0.51484 0.09843 0.13428 0.0
C664 C 0.47466 0.05142 0.1252 0.0
C665 C 0.49814 0.0264 0.13283 0.0
C666 C 0.53099 0.03764 0.14018 0.0
C667 C 0.53933 0.07346 0.14085 0.0
H668 H 0.90044 0.49364 0.13409 0.0
H669 H 0.92437 0.58442 0.17011 0.0
H670 H 0.96272 0.47993 0.1316 0.0
H671 H 0.9872 0.57032 0.16787 0.0
H672 H 0.0994 0.54507 0.15028 0.0
H673 H 0.03867 0.56357 0.14545 0.0
H674 H 0.00372 0.4572 0.15682 0.0
H675 H 0.06461 0.43852 0.16148 0.0
C676 C 0.91918 0.51091 0.14129 0.0
C677 C 0.90781 0.53979 0.15255 0.0
C678 C 0.95475 0.50296 0.13991 0.0
C679 C 0.97962 0.52365 0.14983 0.0
C680 C 0.96847 0.55398 0.16003 0.0
C681 C 0.93266 0.56208 0.16133 0.0
C682 C 0.07877 0.52551 0.15153 0.0
C683 C 0.0866 0.49036 0.15639 0.0
C684 C 0.04406 0.53621 0.14884 0.0
C685 C 0.01658 0.51192 0.15088 0.0
C686 C 0.0245 0.47644 0.15496 0.0
C687 C 0.05928 0.46572 0.15769 0.0
H688 H 0.02555 0.32339 0.30716 0.0
H689 H 0.06565 0.40428 0.34592 0.0
H690 H 0.05216 0.35297 0.27895 0.0
H691 H 0.09324 0.43335 0.31773 0.0
H692 H 0.10488 0.49581 0.25987 0.0
H693 H 0.07829 0.46645 0.2881 0.0
H694 H 0.10912 0.36562 0.26435 0.0
H695 H 0.13598 0.39497 0.23612 0.0
C696 C 0.03993 0.34755 0.30971 0.0
C697 C 0.04327 0.36141 0.32891 0.0
C698 C 0.05561 0.36433 0.2935 0.0
C699 C 0.07498 0.39559 0.29598 0.0
C700 C 0.07826 0.40953 0.31518 0.0
C701 C 0.06272 0.39263 0.33142 0.0
C702 C 0.10638 0.46741 0.26067 0.0
C703 C 0.1228 0.44794 0.24555 0.0
C704 C 0.09106 0.45052 0.27695 0.0
C705 C 0.09152 0.4136 0.27861 0.0
C706 C 0.10778 0.39407 0.26348 0.0
C707 C 0.12322 0.41097 0.24721 0.0
H708 H 0.50659 0.10128 0.22918 0.0
H709 H 0.59961 0.16232 0.21652 0.0
H710 H 0.53646 0.07361 0.257 0.0
H711 H 0.62994 0.13412 0.24444 0.0
H712 H 0.65391 0.10403 0.3105 0.0
H713 H 0.62681 0.13225 0.28168 0.0
H714 H 0.58483 0.03188 0.26328 0.0
H715 H 0.6113 0.00392 0.29211 0.0
C716 C 0.53345 0.10887 0.23236 0.0
C717 C 0.55062 0.13419 0.22064 0.0
C718 C 0.55073 0.09272 0.24823 0.0
C719 C 0.58565 0.10157 0.25299 0.0
C720 C 0.60296 0.12687 0.24127 0.0
C721 C 0.58572 0.14279 0.22518 0.0
C722 C 0.63881 0.08804 0.30033 0.0
C723 C 0.63478 0.05167 0.3037 0.0
C724 C 0.62357 0.10415 0.2837 0.0
C725 C 0.60356 0.08437 0.27016 0.0
C726 C 0.59978 0.04799 0.27348 0.0
C727 C 0.61527 0.03187 0.28995 0.0
H728 H 0.88158 0.60592 0.22229 0.0
H729 H 0.83322 0.52787 0.25988 0.0
H730 H 0.90821 0.6335 0.25117 0.0
H731 H 0.86081 0.55476 0.2887 0.0
H732 H 0.88785 0.63301 0.33835 0.0
H733 H 0.85962 0.60625 0.30969 0.0
H734 H 0.95377 0.62348 0.27541 0.0
H735 H 0.98202 0.65009 0.30401 0.0
C736 C 0.87642 0.59466 0.23669 0.0
C737 C 0.85512 0.56452 0.23861 0.0
C738 C 0.89211 0.6103 0.2533 0.0
C739 C 0.8869 0.59638 0.27238 0.0
C740 C 0.86526 0.56649 0.27433 0.0
C741 C 0.84967 0.55078 0.25771 0.0
C742 C 0.90275 0.63083 0.3248 0.0
C743 C 0.93739 0.64392 0.32367 0.0
C744 C 0.88647 0.61544 0.30828 0.0
C745 C 0.90426 0.61271 0.2901 0.0
C746 C 0.93891 0.62564 0.289 0.0
C747 C 0.95521 0.64095 0.3055 0.0
H748 H 0.48981 0.88127 0.23278 0.0
H749 H 0.38718 0.84437 0.21501 0.0
H750 H 0.4644 0.90653 0.26274 0.0
H751 H 0.36166 0.8698 0.24501 0.0
H752 H 0.33698 0.88957 0.31154 0.0
H753 H 0.36317 0.86169 0.28232 0.0
H754 H 0.42339 0.95596 0.27116 0.0
H755 H 0.39737 0.98358 0.30023 0.0
C756 C 0.46185 0.8784 0.2353 0.0
C757 C 0.44054 0.86083 0.22144 0.0
C758 C 0.44722 0.89309 0.25243 0.0
C759 C 0.41097 0.8902 0.25631 0.0
C760 C 0.3897 0.87227 0.24256 0.0
C761 C 0.40426 0.85801 0.22528 0.0
C762 C 0.35602 0.90415 0.30291 0.0
C763 C 0.36498 0.93884 0.30818 0.0
C764 C 0.3708 0.88833 0.28609 0.0
C765 C 0.39536 0.90661 0.27436 0.0
C766 C 0.40476 0.94103 0.2799 0.0
C767 C 0.38962 0.95698 0.29649 0.0
H768 H 0.1395 0.51146 0.81258 0.0
H769 H 0.14461 0.61275 0.84134 0.0
H770 H 0.11344 0.53897 0.78353 0.0
H771 H 0.11865 0.64032 0.81224 0.0
H772 H 0.04133 0.67427 0.76364 0.0
H773 H 0.06563 0.64624 0.79312 0.0
H774 H 0.12701 0.57674 0.75632 0.0
H775 H 0.10177 0.60368 0.72698 0.0
C776 C 0.13532 0.53962 0.81273 0.0
C777 C 0.1443 0.55972 0.82948 0.0
C778 C 0.12034 0.55551 0.79597 0.0
C779 C 0.11386 0.59203 0.79536 0.0
C780 C 0.12264 0.61209 0.81217 0.0
C781 C 0.13761 0.5962 0.82894 0.0
C782 C 0.05977 0.65282 0.7618 0.0
C783 C 0.06947 0.6415 0.74275 0.0
C784 C 0.07406 0.63692 0.77877 0.0
C785 C 0.09844 0.60909 0.77725 0.0
C786 C 0.10806 0.59775 0.7582 0.0
C787 C 0.09384 0.61366 0.74125 0.0
H788 H 0.46492 0.16714 0.78646 0.0
H789 H 0.39573 0.10974 0.8254 0.0
H790 H 0.43796 0.13828 0.75796 0.0
H791 H 0.36824 0.08147 0.79693 0.0
H792 H 0.35562 0.00876 0.74275 0.0
H793 H 0.38157 0.03801 0.77127 0.0
H794 H 0.38287 0.13626 0.7392 0.0
H795 H 0.35652 0.10727 0.71074 0.0
C796 C 0.44392 0.14843 0.78896 0.0
C797 C 0.43253 0.14092 0.80829 0.0
C798 C 0.42821 0.13206 0.77259 0.0
C799 C 0.40085 0.10746 0.77507 0.0
C800 C 0.38942 0.1 0.79441 0.0
C801 C 0.40494 0.11657 0.81077 0.0
C802 C 0.36107 0.03664 0.74173 0.0
C803 C 0.35395 0.0554 0.72419 0.0
C804 C 0.37602 0.05348 0.75818 0.0
C805 C 0.38448 0.08956 0.7576 0.0
C806 C 0.37728 0.10835 0.74012 0.0
C807 C 0.36215 0.09159 0.72372 0.0
H808 H 0.85623 0.47305 0.80701 0.0
H809 H 0.8826 0.38414 0.84405 0.0
H810 H 0.88264 0.44361 0.77882 0.0
H811 H 0.90753 0.35402 0.81562 0.0
H812 H 0.98258 0.32508 0.7652 0.0
H813 H 0.95653 0.35444 0.79361 0.0
H814 H 0.8746 0.39654 0.75613 0.0
H815 H 0.90151 0.36864 0.72763 0.0
C816 C 0.86758 0.44723 0.80923 0.0
C817 C 0.86717 0.43122 0.82801 0.0
C818 C 0.88243 0.43006 0.7929 0.0
C819 C 0.89729 0.39625 0.79479 0.0
C820 C 0.89677 0.38016 0.81355 0.0
C821 C 0.88197 0.39736 0.82989 0.0
C822 C 0.95918 0.3408 0.76293 0.0
C823 C 0.94437 0.34432 0.74394 0.0
C824 C 0.94392 0.35738 0.77935 0.0
C825 C 0.91333 0.37802 0.77731 0.0
C826 C 0.89837 0.38132 0.75834 0.0
C827 C 0.91365 0.3648 0.74193 0.0
H828 H 0.59981 0.87524 0.81969 0.0
H829 H 0.53412 0.81216 0.78147 0.0
H830 H 0.62749 0.90172 0.79103 0.0
H831 H 0.56092 0.83994 0.75264 0.0
H832 H 0.64237 0.871 0.70536 0.0
H833 H 0.61449 0.84316 0.73376 0.0
H834 H 0.6163 0.9424 0.76485 0.0
H835 H 0.6443 0.97014 0.73651 0.0
C836 C 0.59127 0.86676 0.80521 0.0
C837 C 0.56467 0.84121 0.80306 0.0
C838 C 0.60691 0.88246 0.78866 0.0
C839 C 0.59647 0.87321 0.76939 0.0
C840 C 0.56998 0.84756 0.76719 0.0
C841 C 0.55429 0.83184 0.78378 0.0
C842 C 0.63657 0.88703 0.71815 0.0
C843 C 0.6458 0.92295 0.71853 0.0
C844 C 0.62049 0.87099 0.7345 0.0
C845 C 0.61312 0.89038 0.75174 0.0
C846 C 0.62211 0.92635 0.75204 0.0
C847 C 0.63821 0.94236 0.73572 0.0
H848 H 0.16909 0.20772 0.38575 0.0
H849 H 0.07396 0.15424 0.36799 0.0
H850 H 0.20229 0.15323 0.3813 0.0
H851 H 0.10707 0.09991 0.36326 0.0
H852 H 0.25669 0.05336 0.3622 0.0
H853 H 0.22368 0.10803 0.3587 0.0
H854 H 0.13374 0.05898 0.38635 0.0
H855 H 0.16641 0.0042 0.38952 0.0
C856 C 0.1555 0.18454 0.38038 0.0
C857 C 0.11895 0.18502 0.37745 0.0
C858 C 0.17446 0.15332 0.37782 0.0
C859 C 0.15719 0.1221 0.37219 0.0
C860 C 0.12099 0.1233 0.36802 0.0
C861 C 0.10208 0.1544 0.37066 0.0
C862 C 0.22971 0.05409 0.36731 0.0
C863 C 0.21425 0.02444 0.37628 0.0
C864 C 0.21089 0.0855 0.36538 0.0
C865 C 0.17617 0.08793 0.37232 0.0
C866 C 0.1603 0.05789 0.38061 0.0
C867 C 0.17911 0.02649 0.38254 0.0
H868 H 0.95671 0.22151 0.3931 0.0
H869 H 0.88411 0.30169 0.41285 0.0
H870 H 0.9073 0.18533 0.38232 0.0
H871 H 0.83495 0.26615 0.40151 0.0
H872 H 0.75651 0.17417 0.40007 0.0
H873 H 0.80412 0.21339 0.40952 0.0
H874 H 0.86201 0.18296 0.3573 0.0
H875 H 0.81434 0.14307 0.34804 0.0
C876 C 0.93024 0.23138 0.39517 0.0
C877 C 0.92434 0.26439 0.40391 0.0
C878 C 0.90193 0.21084 0.38878 0.0
C879 C 0.86717 0.22297 0.39091 0.0
C880 C 0.86135 0.25584 0.39983 0.0
C881 C 0.88959 0.27625 0.40632 0.0
C882 C 0.779 0.17651 0.39034 0.0
C883 C 0.78169 0.1556 0.3733 0.0
C884 C 0.8064 0.19891 0.3958 0.0
C885 C 0.83705 0.20108 0.38427 0.0
C886 C 0.83907 0.18132 0.36673 0.0
C887 C 0.8117 0.15871 0.36134 0.0
H888 H 0.82502 0.78094 0.36446 0.0
H889 H 0.84476 0.79992 0.42633 0.0
H890 H 0.78786 0.83355 0.36313 0.0
H891 H 0.81086 0.85336 0.42485 0.0
H892 H 0.7407 0.94508 0.4221 0.0
H893 H 0.76089 0.88444 0.42281 0.0
H894 H 0.79431 0.8939 0.36184 0.0
H895 H 0.77059 0.9537 0.36089 0.0
C896 C 0.82085 0.79602 0.37783 0.0
C897 C 0.83818 0.78677 0.3954 0.0
C898 C 0.80013 0.82656 0.37704 0.0
C899 C 0.79678 0.84851 0.39376 0.0
C900 C 0.81218 0.83742 0.41164 0.0
C901 C 0.8321 0.80677 0.41249 0.0
C902 C 0.75252 0.93403 0.40892 0.0
C903 C 0.75502 0.95401 0.3916 0.0
C904 C 0.76421 0.89924 0.40927 0.0
C905 C 0.77999 0.88402 0.39248 0.0
C906 C 0.78196 0.90422 0.37501 0.0
C907 C 0.76899 0.93871 0.3745 0.0
H908 H 0.02716 0.77297 0.3777 0.0
H909 H 0.077 0.74311 0.43259 0.0
H910 H 0.08144 0.80189 0.36715 0.0
H911 H 0.13155 0.7696 0.42173 0.0
H912 H 0.21224 0.85177 0.4076 0.0
H913 H 0.15815 0.82294 0.41711 0.0
H914 H 0.13943 0.79405 0.35611 0.0
H915 H 0.19318 0.82539 0.34652 0.0
C916 C 0.04979 0.77257 0.38745 0.0
C917 C 0.04782 0.75632 0.40606 0.0
C918 C 0.08102 0.78874 0.38135 0.0
C919 C 0.11105 0.78825 0.39357 0.0
C920 C 0.10887 0.77147 0.41209 0.0
C921 C 0.07754 0.75616 0.41835 0.0
C922 C 0.19687 0.83867 0.39628 0.0
C923 C 0.20711 0.84013 0.37639 0.0
C924 C 0.16578 0.82205 0.40171 0.0
C925 C 0.14436 0.80573 0.38744 0.0
C926 C 0.15497 0.8067 0.36749 0.0
C927 C 0.1859 0.82417 0.36198 0.0
H928 H 0.20023 0.97914 0.67776 0.0
H929 H 0.26759 0.93416 0.63295 0.0
H930 H 0.17245 0.92195 0.68257 0.0
H931 H 0.2394 0.87718 0.63759 0.0
H932 H 0.20585 0.77225 0.66414 0.0
H933 H 0.23532 0.82977 0.66262 0.0
H934 H 0.13416 0.88161 0.66487 0.0
H935 H 0.1052 0.82461 0.66679 0.0
C936 C 0.20878 0.95722 0.66874 0.0
C937 C 0.23611 0.96125 0.65497 0.0
C938 C 0.19293 0.92441 0.67155 0.0
C939 C 0.20405 0.89496 0.66063 0.0
C940 C 0.23079 0.89919 0.64653 0.0
C941 C 0.24661 0.93198 0.64371 0.0
C942 C 0.19019 0.79606 0.6647 0.0
C943 C 0.15338 0.79418 0.66543 0.0
C944 C 0.20689 0.82888 0.66361 0.0
C945 C 0.18698 0.86019 0.66342 0.0
C946 C 0.15026 0.85808 0.66511 0.0
C947 C 0.13368 0.82545 0.6661 0.0
H948 H 0.17081 0.08501 0.64934 0.0
H949 H 0.22393 0.18532 0.65293 0.0
H950 H 0.11423 0.11427 0.65228 0.0
H951 H 0.16677 0.21494 0.65588 0.0
H952 H 0.05822 0.24994 0.67892 0.0
H953 H 0.11524 0.22076 0.67809 0.0
H954 H 0.07802 0.15266 0.63144 0.0
H955 H 0.02074 0.18153 0.63238 0.0
C956 C 0.17033 0.11344 0.65067 0.0
C957 C 0.20175 0.13299 0.65055 0.0
C958 C 0.13789 0.13017 0.65233 0.0
C959 C 0.13599 0.16692 0.654 0.0
C960 C 0.16745 0.18652 0.65466 0.0
C961 C 0.20012 0.16966 0.65297 0.0
C962 C 0.06205 0.22858 0.66856 0.0
C963 C 0.03482 0.21796 0.65575 0.0
C964 C 0.09487 0.21208 0.668 0.0
C965 C 0.10116 0.1845 0.65469 0.0
C966 C 0.07384 0.17361 0.64203 0.0
C967 C 0.04102 0.19018 0.64254 0.0
H968 H 0.77699 0.01703 0.65261 0.0
H969 H 0.69454 0.08966 0.63585 0.0
H970 H 0.81359 0.06645 0.66302 0.0
H971 H 0.73061 0.13875 0.64676 0.0
H972 H 0.8211 0.21865 0.64752 0.0
H973 H 0.78268 0.1705 0.63787 0.0
H974 H 0.81681 0.11077 0.68881 0.0
H975 H 0.85572 0.15905 0.69837 0.0
C976 C 0.76672 0.04351 0.65109 0.0
C977 C 0.73289 0.0494 0.64336 0.0
C978 C 0.78753 0.0718 0.65726 0.0
C979 C 0.77491 0.10654 0.65586 0.0
C980 C 0.74128 0.11238 0.64786 0.0
C981 C 0.72056 0.08416 0.64164 0.0
C982 C 0.81981 0.1956 0.65693 0.0
C983 C 0.84139 0.19269 0.67374 0.0
C984 C 0.79787 0.16789 0.65134 0.0
C985 C 0.79688 0.13665 0.66247 0.0
C986 C 0.81752 0.13421 0.67969 0.0
C987 C 0.83961 0.16192 0.68525 0.0
H988 H 0.96431 0.72989 0.63965 0.0
H989 H 0.99038 0.79421 0.69028 0.0
H990 H 0.90897 0.76142 0.63591 0.0
H991 H 0.93492 0.8261 0.68634 0.0
H992 H 0.83262 0.85223 0.62302 0.0
H993 H 0.88801 0.82066 0.6269 0.0
H994 H 0.87031 0.81353 0.68983 0.0
H995 H 0.81492 0.84589 0.68595 0.0
C996 C 0.95838 0.75098 0.64989 0.0
C997 C 0.98173 0.75954 0.66528 0.0
C998 C 0.92669 0.76909 0.6477 0.0
C999 C 0.91754 0.79607 0.66091 0.0
C1000 C 0.94111 0.80507 0.67612 0.0
C1001 C 0.973 0.78708 0.67823 0.0
C1002 C 0.84056 0.84388 0.63768 0.0
C1003 C 0.81961 0.85161 0.65421 0.0
C1004 C 0.87215 0.82564 0.63988 0.0
C1005 C 0.88357 0.81481 0.65867 0.0
C1006 C 0.86233 0.82197 0.6752 0.0
C1007 C 0.8305 0.84007 0.67297 0.0
H1008 H 0.59506 0.65695 0.88445 0.0
H1009 H 0.692 0.71535 0.89008 0.0
H1010 H 0.62695 0.60197 0.88895 0.0
H1011 H 0.72419 0.66003 0.89484 0.0
H1012 H 0.77208 0.55034 0.88483 0.0
H1013 H 0.74154 0.60535 0.87821 0.0
H1014 H 0.65657 0.57252 0.91635 0.0
H1015 H 0.68683 0.51701 0.92274 0.0
C1016 C 0.6233 0.65792 0.88661 0.0
C1017 C 0.6411 0.69033 0.88714 0.0
C1018 C 0.6415 0.62648 0.8893 0.0
C1019 C 0.67795 0.62671 0.89259 0.0
C1020 C 0.69607 0.65905 0.89228 0.0
C1021 C 0.67776 0.69067 0.88952 0.0
C1022 C 0.74684 0.55475 0.89181 0.0
C1023 C 0.73179 0.52919 0.90428 0.0
C1024 C 0.72948 0.58643 0.88808 0.0
C1025 C 0.69666 0.59325 0.89671 0.0
C1026 C 0.68164 0.56778 0.90925 0.0
C1027 C 0.69902 0.53604 0.91299 0.0
H1028 H 0.44224 0.77028 0.90063 0.0
H1029 H 0.47398 0.69121 0.85832 0.0
H1030 H 0.38548 0.74135 0.90425 0.0
H1031 H 0.41686 0.66258 0.86176 0.0
H1032 H 0.33086 0.59902 0.89368 0.0
H1033 H 0.38582 0.62944 0.8871 0.0
H1034 H 0.33049 0.72883 0.8859 0.0
H1035 H 0.27511 0.69808 0.89304 0.0
C1036 C 0.43712 0.74673 0.89207 0.0
C1037 C 0.46273 0.73292 0.87924 0.0
C1038 C 0.40442 0.73039 0.89401 0.0
C1039 C 0.39661 0.69984 0.8832 0.0
C1040 C 0.42222 0.68598 0.8704 0.0
C1041 C 0.45495 0.70235 0.86844 0.0
C1042 C 0.33041 0.6274 0.89202 0.0
C1043 C 0.29886 0.64631 0.89416 0.0
C1044 C 0.36185 0.64477 0.88803 0.0
C1045 C 0.36253 0.68153 0.88604 0.0
C1046 C 0.33078 0.70048 0.88759 0.0
C1047 C 0.29911 0.68295 0.89151 0.0
H1048 H 0.40854 0.34156 0.88318 0.0
H1049 H 0.30733 0.28966 0.88187 0.0
H1050 H 0.37958 0.39786 0.88864 0.0
H1051 H 0.27843 0.34612 0.88764 0.0
H1052 H 0.24179 0.4457 0.91869 0.0
H1053 H 0.27361 0.39054 0.91452 0.0
H1054 H 0.34049 0.43963 0.87093 0.0
H1055 H 0.30888 0.49502 0.87516 0.0
C1056 C 0.38007 0.34219 0.88377 0.0
C1057 C 0.36024 0.31104 0.88195 0.0
C1058 C 0.36353 0.37447 0.88701 0.0
C1059 C 0.32678 0.37638 0.88865 0.0
C1060 C 0.30687 0.34535 0.88675 0.0
C1061 C 0.32341 0.31303 0.88341 0.0
C1062 C 0.26357 0.44493 0.90839 0.0
C1063 C 0.27266 0.47475 0.89716 0.0
C1064 C 0.28157 0.41321 0.90588 0.0
C1065 C 0.3092 0.41065 0.89221 0.0
C1066 C 0.31934 0.44084 0.88162 0.0
C1067 C 0.30121 0.47256 0.88404 0.0
H1068 H 0.67265 0.36965 0.85675 0.0
H1069 H 0.71018 0.31765 0.90971 0.0
H1070 H 0.61633 0.33947 0.86015 0.0
H1071 H 0.65453 0.28606 0.91218 0.0
H1072 H 0.56057 0.21227 0.89175 0.0
H1073 H 0.61775 0.241 0.88837 0.0
H1074 H 0.56726 0.34269 0.89041 0.0
H1075 H 0.50975 0.31393 0.8943 0.0
C1076 C 0.66914 0.35169 0.86902 0.0
C1077 C 0.69599 0.34655 0.88311 0.0
C1078 C 0.63689 0.33441 0.87089 0.0
C1079 C 0.63118 0.31097 0.88656 0.0
C1080 C 0.65847 0.30416 0.89999 0.0
C1081 C 0.69047 0.32199 0.8984 0.0
C1082 C 0.56168 0.24078 0.89157 0.0
C1083 C 0.53083 0.26099 0.89327 0.0
C1084 C 0.59434 0.2571 0.88969 0.0
C1085 C 0.59665 0.29388 0.88903 0.0
C1086 C 0.5659 0.3142 0.89076 0.0
C1087 C 0.53319 0.29785 0.89312 0.0
H1088 H 0.63145 0.31833 0.19171 0.0
H1089 H 0.6341 0.31305 0.12797 0.0
H1090 H 0.66368 0.37407 0.19062 0.0
H1091 H 0.66674 0.3683 0.1269 0.0
H1092 H 0.75594 0.45133 0.1794 0.0
H1093 H 0.72327 0.39626 0.18128 0.0
H1094 H 0.65486 0.43175 0.1343 0.0
H1095 H 0.68773 0.48696 0.13228 0.0
C1096 C 0.63913 0.32897 0.1775 0.0
C1097 C 0.63041 0.31125 0.15994 0.0
C1098 C 0.65768 0.36075 0.17687 0.0
C1099 C 0.66753 0.37561 0.15866 0.0
C1100 C 0.65913 0.35769 0.14113 0.0
C1101 C 0.64088 0.32581 0.14177 0.0
C1102 C 0.73387 0.44749 0.1695 0.0
C1103 C 0.72449 0.47349 0.15563 0.0
C1104 C 0.71505 0.416 0.17067 0.0
C1105 C 0.68662 0.40965 0.1579 0.0
C1106 C 0.67694 0.43578 0.14418 0.0
C1107 C 0.69559 0.46748 0.14312 0.0
H1108 H 0.55227 0.76628 0.13544 0.0
H1109 H 0.5021 0.69643 0.17728 0.0
H1110 H 0.60755 0.73444 0.13973 0.0
H1111 H 0.55741 0.6648 0.18158 0.0
H1112 H 0.6539 0.59628 0.16732 0.0
H1113 H 0.59841 0.62675 0.16226 0.0
H1114 H 0.65151 0.7268 0.16747 0.0
H1115 H 0.70731 0.69632 0.17302 0.0
C1116 C 0.5529 0.7439 0.14537 0.0
C1117 C 0.52283 0.73389 0.15606 0.0
C1118 C 0.58464 0.72593 0.14796 0.0
C1119 C 0.58681 0.69741 0.16112 0.0
C1120 C 0.55645 0.68664 0.17128 0.0
C1121 C 0.5248 0.70477 0.16883 0.0
C1122 C 0.65378 0.62478 0.16781 0.0
C1123 C 0.68511 0.64384 0.17078 0.0
C1124 C 0.62195 0.6422 0.16477 0.0
C1125 C 0.62068 0.67909 0.16444 0.0
C1126 C 0.65187 0.69828 0.16741 0.0
C1127 C 0.68378 0.68083 0.1706 0.0
H1128 H 0.23435 0.55944 0.19318 0.0
H1129 H 0.30746 0.52218 0.14899 0.0
H1130 H 0.25913 0.61859 0.19039 0.0
H1131 H 0.33213 0.58122 0.14632 0.0
H1132 H 0.33149 0.6943 0.12604 0.0
H1133 H 0.30451 0.63726 0.13253 0.0
H1134 H 0.31658 0.65392 0.19529 0.0
H1135 H 0.34411 0.7112 0.18875 0.0
C1136 C 0.25609 0.56372 0.18313 0.0
C1137 C 0.26873 0.53621 0.17114 0.0
C1138 C 0.27023 0.59756 0.18157 0.0
C1139 C 0.29699 0.60451 0.16787 0.0
C1140 C 0.31097 0.57662 0.15672 0.0
C1141 C 0.29709 0.54275 0.1584 0.0
C1142 C 0.32788 0.68602 0.14123 0.0
C1143 C 0.34024 0.70689 0.1569 0.0
C1144 C 0.31272 0.65332 0.14493 0.0
C1145 C 0.30936 0.6409 0.16438 0.0
C1146 C 0.31913 0.66288 0.18016 0.0
C1147 C 0.33457 0.69569 0.17643 0.0
H1148 H 0.26012 0.33731 0.1506 0.0
H1149 H 0.29689 0.34423 0.21093 0.0
H1150 H 0.31087 0.30237 0.14198 0.0
H1151 H 0.34809 0.30817 0.20231 0.0
H1152 H 0.45467 0.28221 0.17144 0.0
H1153 H 0.4021 0.31297 0.18327 0.0
H1154 H 0.33729 0.24684 0.14609 0.0
H1155 H 0.38934 0.21763 0.13375 0.0
C1156 C 0.2785 0.33035 0.16222 0.0
C1157 C 0.27422 0.34317 0.18153 0.0
C1158 C 0.3078 0.31036 0.15724 0.0
C1159 C 0.33357 0.30235 0.17146 0.0
C1160 C 0.32891 0.31428 0.19096 0.0
C1161 C 0.29951 0.33463 0.19594 0.0
C1162 C 0.42913 0.27453 0.16577 0.0
C1163 C 0.42615 0.24803 0.1514 0.0
C1164 C 0.39902 0.29181 0.17269 0.0
C1165 C 0.36549 0.28254 0.1655 0.0
C1166 C 0.3627 0.25526 0.1516 0.0
C1167 C 0.39263 0.23848 0.14451 0.0
H1168 H 0.07715 0.30991 0.49702 0.0
H1169 H 0.96983 0.28974 0.47934 0.0
H1170 H 0.05922 0.31165 0.53146 0.0
H1171 H 0.95178 0.29148 0.51396 0.0
H1172 H 0.92526 0.33072 0.57543 0.0
H1173 H 0.94497 0.33145 0.5413 0.0
H1174 H 0.03866 0.27437 0.55818 0.0
H1175 H 0.01869 0.2739 0.59265 0.0
C1176 C 0.04971 0.30551 0.50045 0.0
C1177 C 0.02498 0.29938 0.48529 0.0
C1178 C 0.03944 0.30651 0.52029 0.0
C1179 C 0.00409 0.30154 0.52561 0.0
C1180 C 0.97921 0.29585 0.51044 0.0
C1181 C 0.98951 0.29485 0.49055 0.0
C1182 C 0.95005 0.31823 0.57189 0.0
C1183 C 0.97021 0.30183 0.58675 0.0
C1184 C 0.96132 0.31856 0.55226 0.0
C1185 C 0.99314 0.30249 0.54683 0.0
C1186 C 0.01404 0.28716 0.5618 0.0
C1187 C 0.00271 0.28691 0.58157 0.0
H1188 H 0.70698 0.00983 0.56753 0.0
H1189 H 0.6631 0.91029 0.54928 0.0
H1190 H 0.70289 0.03128 0.53352 0.0
H1191 H 0.65827 0.93166 0.51549 0.0
H1192 H 0.69376 0.96719 0.45336 0.0
H1193 H 0.69324 0.94546 0.48744 0.0
H1194 H 0.66411 0.04919 0.50794 0.0
H1195 H 0.66548 0.07069 0.47407 0.0
C1196 C 0.69598 0.99275 0.55631 0.0
C1197 C 0.68574 0.95827 0.56109 0.0
C1198 C 0.69356 0.00498 0.53678 0.0
C1199 C 0.68047 0.98313 0.52158 0.0
C1200 C 0.66926 0.949 0.52659 0.0
C1201 C 0.67193 0.93676 0.54603 0.0
C1202 C 0.68678 0.98509 0.46516 0.0
C1203 C 0.67997 0.02067 0.46105 0.0
C1204 C 0.68647 0.97273 0.48473 0.0
C1205 C 0.67902 0.99565 0.50061 0.0
C1206 C 0.67087 0.03093 0.49627 0.0
C1207 C 0.67145 0.04325 0.4768 0.0
H1208 H 0.08951 0.66246 0.56926 0.0
H1209 H 0.98232 0.66794 0.59018 0.0
H1210 H 0.06915 0.66339 0.53557 0.0
H1211 H 0.96178 0.6716 0.556 0.0
H1212 H 0.93232 0.64111 0.49311 0.0
H1213 H 0.95324 0.63868 0.52715 0.0
H1214 H 0.04636 0.69659 0.51006 0.0
H1215 H 0.02573 0.69739 0.47585 0.0
C1216 C 0.06146 0.66389 0.56677 0.0
C1217 C 0.0376 0.66433 0.58272 0.0
C1218 C 0.04973 0.66508 0.54721 0.0
C1219 C 0.0137 0.66744 0.54277 0.0
C1220 C 0.98974 0.66905 0.5587 0.0
C1221 C 0.00153 0.66743 0.5784 0.0
C1222 C 0.95747 0.65291 0.49667 0.0
C1223 C 0.97751 0.66927 0.48181 0.0
C1224 C 0.96933 0.65193 0.51626 0.0
C1225 C 0.00142 0.66777 0.52166 0.0
C1226 C 0.02178 0.68359 0.50661 0.0
C1227 C 0.01009 0.68406 0.48692 0.0
H1228 H 0.30395 0.06449 0.55411 0.0
H1229 H 0.33235 0.95865 0.57077 0.0
H1230 H 0.29725 0.04626 0.51994 0.0
H1231 H 0.32606 0.94003 0.53616 0.0
H1232 H 0.27723 0.91524 0.47492 0.0
H1233 H 0.28499 0.93063 0.5095 0.0
H1234 H 0.33213 0.02939 0.49217 0.0
H1235 H 0.32287 0.01459 0.45746 0.0
C1236 C 0.30887 0.03721 0.55041 0.0
C1237 C 0.31907 0.01308 0.56514 0.0
C1238 C 0.30526 0.02677 0.53074 0.0
C1239 C 0.3118 0.9918 0.52507 0.0
C1240 C 0.32075 0.96721 0.53993 0.0
C1241 C 0.32426 0.97774 0.55978 0.0
C1242 C 0.28902 0.9404 0.47841 0.0
C1243 C 0.29885 0.96392 0.46325 0.0
C1244 C 0.29391 0.94902 0.49834 0.0
C1245 C 0.30887 0.98143 0.50377 0.0
C1246 C 0.31986 0.00446 0.48861 0.0
C1247 C 0.31494 0.99582 0.46863 0.0
H1248 H 0.54659 0.87207 0.97253 0.0
H1249 H 0.49057 0.77775 0.95618 0.0
H1250 H 0.52794 0.86495 1.00662 0.0
H1251 H 0.47211 0.77 0.99063 0.0
H1252 H 0.41612 0.79082 0.05005 0.0
H1253 H 0.4356 0.79336 1.01594 0.0
H1254 H 0.53756 0.83 0.03537 0.0
H1255 H 0.51723 0.82905 0.06965 0.0
C1256 C 0.53032 0.84966 0.97628 0.0
C1257 C 0.5202 0.82537 0.96165 0.0
C1258 C 0.51983 0.84538 0.99591 0.0
C1259 C 0.49897 0.81656 1.0016 0.0
C1260 C 0.48804 0.79264 0.98685 0.0
C1261 C 0.49845 0.79708 0.96707 0.0
C1262 C 0.4427 0.79951 0.0471 0.0
C1263 C 0.46488 0.81038 0.06265 0.0
C1264 C 0.45405 0.80055 0.02746 0.0
C1265 C 0.48805 0.81231 1.02273 0.0
C1266 C 0.5109 0.82151 0.03837 0.0
C1267 C 0.49946 0.82055 0.05809 0.0
H1268 H 0.20232 0.4189 0.07921 0.0
H1269 H 0.17617 0.52546 0.09571 0.0
H1270 H 0.19592 0.43414 0.04447 0.0
H1271 H 0.17 0.54094 0.06082 0.0
H1272 H 0.13129 0.5515 0.99798 0.0
H1273 H 0.13421 0.5324 0.03224 0.0
H1274 H 0.22353 0.46663 1.01825 0.0
H1275 H 0.22002 0.48567 0.98363 0.0
C1276 C 0.19542 0.44572 0.07544 0.0
C1277 C 0.19003 0.47103 0.09036 0.0
C1278 C 0.19181 0.45448 0.05543 0.0
C1279 C 0.18264 0.48883 0.04967 0.0
C1280 C 0.17665 0.51405 0.06462 0.0
C1281 C 0.18018 0.50523 0.08468 0.0
C1282 C 0.15149 0.53284 1.00219 0.0
C1283 C 0.17569 0.52037 0.98811 0.0
C1284 C 0.15331 0.52202 1.02191 0.0
C1285 C 0.17948 0.49841 0.02824 0.0
C1286 C 0.20286 0.48473 1.01397 0.0
C1287 C 0.2009 0.49552 0.9941 0.0
H1288 H 0.55922 0.24394 0.05701 0.0
H1289 H 0.48093 0.16628 0.07189 0.0
H1290 H 0.54875 0.23356 1.02192 0.0
H1291 H 0.4691 0.15675 0.03692 0.0
H1292 H 0.46663 0.12789 0.9732 0.0
H1293 H 0.48759 0.13387 1.00707 0.0
H1294 H 0.50894 0.24415 0.99637 0.0
H1295 H 0.48958 0.23709 0.96206 0.0
C1296 C 0.53968 0.22465 0.05272 0.0
C1297 C 0.52089 0.20593 0.06721 0.0
C1298 C 0.53347 0.21881 0.03257 0.0
C1299 C 0.50789 0.1944 0.02633 0.0
C1300 C 0.48952 0.17526 0.04094 0.0
C1301 C 0.49616 0.18075 0.06108 0.0
C1302 C 0.47646 0.1532 0.97808 0.0
C1303 C 0.47648 0.18206 0.9651 0.0
C1304 C 0.48811 0.15682 0.99758 0.0
C1305 C 0.49941 0.18969 1.00481 0.0
C1306 C 0.50081 0.21829 0.99146 0.0
C1307 C 0.48972 0.2144 0.97177 0.0
H1308 H 0.76409 0.41995 0.99509 0.0
H1309 H 0.81802 0.51327 0.97477 0.0
H1310 H 0.76696 0.44116 0.02877 0.0
H1311 H 0.81876 0.53579 1.00848 0.0
H1312 H 0.85233 0.54909 0.07216 0.0
H1313 H 0.84779 0.52683 0.03858 0.0
H1314 H 0.74686 0.4807 0.05269 0.0
H1315 H 0.75251 0.50217 0.08673 0.0
C1316 C 0.77647 0.44515 0.99773 0.0
C1317 C 0.79151 0.46446 0.98207 0.0
C1318 C 0.77763 0.45762 1.01717 0.0
C1319 C 0.79345 0.49011 1.0216 0.0
C1320 C 0.80711 0.51023 1.00582 0.0
C1321 C 0.80625 0.49754 0.98634 0.0
C1322 C 0.8293 0.53395 0.06808 0.0
C1323 C 0.8027 0.52741 0.08201 0.0
C1324 C 0.82646 0.52147 0.04872 0.0
C1325 C 0.79664 0.50241 0.0426 0.0
C1326 C 0.77038 0.49503 0.05677 0.0
C1327 C 0.77352 0.50721 0.07631 0.0
loop_
_geom_bond_atom_site_label_1
_geom_bond_atom_site_label_2
_geom_bond_distance
_geom_bond_site_symmetry_2
_ccdc_geom_bond_type
Co0 N4 2.148 . S
Co0 N10 2.128 . S
Co0 N20 2.194 . S
Co0 O25 2.351 . S
Co0 O26 2.155 . S
Co0 O27 2.096 1_455 S
C1 N4 1.301 . S
C1 N5 1.328 . S
C1 H6 0.930 . S
C2 C3 1.333 . S
C2 N4 1.317 . S
C2 H7 0.930 1_455 S
C3 C2 1.333 . S
C3 N5 1.350 . S
C3 H29 0.931 . S
N4 Co0 2.148 . S
N4 C1 1.301 . S
N4 C2 1.317 . S
N5 C1 1.328 . S
N5 C3 1.350 . S
H6 C1 0.930 . S
H7 C2 0.930 1_655 S
C8 O9 1.197 1_655 S
C8 O27 1.247 . S
O9 C8 1.197 1_455 S
N10 Co0 2.128 . S
N10 C11 1.355 . S
N10 C13 1.311 . S
C11 N10 1.355 . S
C11 C12 1.363 . S
C11 H23 0.929 . S
C12 C11 1.363 . S
C12 N14 1.375 . S
C12 H30 0.931 . S
C13 N10 1.311 . S
C13 N14 1.347 . S
C13 H24 0.929 1_455 S
N14 C12 1.375 . S
N14 C13 1.347 . S
C15 C18 1.365 . S
C15 N20 1.328 . S
C15 H21 0.929 . S
C16 C17 1.362 . S
C16 C19 1.378 . S
C16 H31 0.929 . S
C17 C16 1.362 . S
C17 C18 1.366 . S
C18 C15 1.365 . S
C18 C17 1.366 . S
C18 H32 0.930 . S
C19 C16 1.378 . S
C19 N20 1.315 . S
C19 H22 0.930 . S
N20 Co0 2.194 . S
N20 C15 1.328 . S
N20 C19 1.315 . S
H21 C15 0.929 . S
H22 C19 0.930 . S
H23 C11 0.929 . S
H24 C13 0.929 1_655 S
O25 Co0 2.351 . S
O25 C28 1.244 . S
O26 Co0 2.155 . S
O26 C28 1.240 . S
O27 Co0 2.096 1_655 S
O27 C8 1.247 . S
C28 O25 1.244 . S
C28 O26 1.240 . S
H29 C3 0.931 . S
H30 C12 0.931 . S
H31 C16 0.929 . S
H32 C18 0.930 . S
Co33 N37 2.148 . S
Co33 N43 2.128 . S
Co33 N53 2.194 . S
Co33 O58 2.351 . S
Co33 O59 2.155 . S
Co33 O60 2.096 1_545 S
C34 N37 1.301 . S
C34 N38 1.328 . S
C34 H39 0.930 . S
C35 C36 1.333 . S
C35 N37 1.317 . S
C35 H40 0.930 1_545 S
C36 C35 1.333 . S
C36 N38 1.350 . S
C36 H62 0.931 . S
N37 Co33 2.148 . S
N37 C34 1.301 . S
N37 C35 1.317 . S
N38 C34 1.328 . S
N38 C36 1.350 . S
H39 C34 0.930 . S
H40 C35 0.930 1_565 S
C41 O42 1.197 1_565 S
C41 O60 1.247 . S
O42 C41 1.197 1_545 S
N43 Co33 2.128 . S
N43 C44 1.355 . S
N43 C46 1.311 . S
C44 N43 1.355 . S
C44 C45 1.363 . S
C44 H56 0.929 . S
C45 C44 1.363 . S
C45 N47 1.375 . S
C45 H63 0.931 . S
C46 N43 1.311 . S
C46 N47 1.347 . S
C46 H57 0.929 1_545 S
N47 C45 1.375 . S
N47 C46 1.347 . S
C48 C51 1.365 . S
C48 N53 1.328 . S
C48 H54 0.929 . S
C49 C50 1.362 . S
C49 C52 1.378 . S
C49 H64 0.929 . S
C50 C49 1.362 . S
C50 C51 1.366 . S
C51 C48 1.365 . S
C51 C50 1.366 . S
C51 H65 0.930 . S
C52 C49 1.378 . S
C52 N53 1.315 . S
C52 H55 0.930 . S
N53 Co33 2.194 . S
N53 C48 1.328 . S
N53 C52 1.315 . S
H54 C48 0.929 . S
H55 C52 0.930 . S
H56 C44 0.929 . S
H57 C46 0.929 1_565 S
O58 Co33 2.351 . S
O58 C61 1.244 . S
O59 Co33 2.155 . S
O59 C61 1.240 . S
O60 Co33 2.096 1_565 S
O60 C41 1.247 . S
C61 O58 1.244 . S
C61 O59 1.240 . S
H62 C36 0.931 . S
H63 C45 0.931 . S
H64 C49 0.929 . S
H65 C51 0.930 . S
Co66 N70 2.148 . S
Co66 N76 2.128 . S
Co66 N86 2.194 . S
Co66 O91 2.351 . S
Co66 O92 2.155 . S
Co66 O93 2.096 1_655 S
C67 N70 1.301 . S
C67 N71 1.328 . S
C67 H72 0.930 . S
C68 C69 1.333 . S
C68 N70 1.317 . S
C68 H73 0.930 1_655 S
C69 C68 1.333 . S
C69 N71 1.350 . S
C69 H95 0.931 . S
N70 Co66 2.148 . S
N70 C67 1.301 . S
N70 C68 1.317 . S
N71 C67 1.328 . S
N71 C69 1.350 . S
H72 C67 0.930 . S
H73 C68 0.930 1_455 S
C74 O75 1.197 1_455 S
C74 O93 1.247 . S
O75 C74 1.197 1_655 S
N76 Co66 2.128 . S
N76 C77 1.355 . S
N76 C79 1.311 . S
C77 N76 1.355 . S
C77 C78 1.363 . S
C77 H89 0.929 . S
C78 C77 1.363 . S
C78 N80 1.375 . S
C78 H96 0.931 . S
C79 N76 1.311 . S
C79 N80 1.347 . S
C79 H90 0.929 1_655 S
N80 C78 1.375 . S
N80 C79 1.347 . S
C81 C84 1.365 . S
C81 N86 1.328 . S
C81 H87 0.929 . S
C82 C83 1.362 . S
C82 C85 1.378 . S
C82 H97 0.929 . S
C83 C82 1.362 . S
C83 C84 1.366 . S
C84 C81 1.365 . S
C84 C83 1.366 . S
C84 H98 0.930 . S
C85 C82 1.378 . S
C85 N86 1.315 . S
C85 H88 0.930 . S
N86 Co66 2.194 . S
N86 C81 1.328 . S
N86 C85 1.315 . S
H87 C81 0.929 . S
H88 C85 0.930 . S
H89 C77 0.929 . S
H90 C79 0.929 1_455 S
O91 Co66 2.351 . S
O91 C94 1.244 . S
O92 Co66 2.155 . S
O92 C94 1.240 . S
O93 Co66 2.096 1_455 S
O93 C74 1.247 . S
C94 O91 1.244 . S
C94 O92 1.240 . S
H95 C69 0.931 . S
H96 C78 0.931 . S
H97 C82 0.929 . S
H98 C84 0.930 . S
Co99 N103 2.148 . S
Co99 N109 2.128 . S
Co99 N119 2.194 . S
Co99 O124 2.351 . S
Co99 O125 2.155 . S
Co99 O126 2.096 1_565 S
C100 N103 1.301 . S
C100 N104 1.328 . S
C100 H105 0.930 . S
C101 C102 1.333 . S
C101 N103 1.317 . S
C101 H106 0.930 1_565 S
C102 C101 1.333 . S
C102 N104 1.350 . S
C102 H128 0.931 . S
N103 Co99 2.148 . S
N103 C100 1.301 . S
N103 C101 1.317 . S
N104 C100 1.328 . S
N104 C102 1.350 . S
H105 C100 0.930 . S
H106 C101 0.930 1_545 S
C107 O108 1.198 1_545 S
C107 O126 1.247 . S
O108 C107 1.198 1_565 S
N109 Co99 2.128 . S
N109 C110 1.355 . S
N109 C112 1.311 . S
C110 N109 1.355 . S
C110 C111 1.363 . S
C110 H122 0.929 . S
C111 C110 1.363 . S
C111 N113 1.375 . S
C111 H129 0.931 . S
C112 N109 1.311 . S
C112 N113 1.347 . S
C112 H123 0.929 1_565 S
N113 C111 1.375 . S
N113 C112 1.347 . S
C114 C117 1.365 . S
C114 N119 1.328 . S
C114 H120 0.929 . S
C115 C116 1.362 . S
C115 C118 1.378 . S
C115 H130 0.929 . S
C116 C115 1.362 . S
C116 C117 1.366 . S
C117 C114 1.365 . S
C117 C116 1.366 . S
C117 H131 0.930 . S
C118 C115 1.378 . S
C118 N119 1.315 . S
C118 H121 0.930 . S
N119 Co99 2.194 . S
N119 C114 1.328 . S
N119 C118 1.315 . S
H120 C114 0.929 . S
H121 C118 0.930 . S
H122 C110 0.929 . S
H123 C112 0.929 1_545 S
O124 Co99 2.351 . S
O124 C127 1.244 . S
O125 Co99 2.155 . S
O125 C127 1.240 . S
O126 Co99 2.096 1_545 S
O126 C107 1.247 . S
C127 O124 1.244 . S
C127 O125 1.240 . S
H128 C102 0.931 . S
H129 C111 0.931 . S
H130 C115 0.929 . S
H131 C117 0.930 . S
Co132 N136 2.148 . S
Co132 N142 2.128 . S
Co132 N152 2.194 . S
Co132 O157 2.351 . S
Co132 O158 2.155 . S
Co132 O159 2.096 1_455 S
C133 N136 1.301 . S
C133 N137 1.328 . S
C133 H138 0.930 . S
C134 C135 1.333 . S
C134 N136 1.317 . S
C134 H139 0.930 1_455 S
C135 C134 1.333 . S
C135 N137 1.350 . S
C135 H161 0.931 . S
N136 Co132 2.148 . S
N136 C133 1.301 . S
N136 C134 1.317 . S
N137 C133 1.328 . S
N137 C135 1.350 . S
H138 C133 0.930 . S
H139 C134 0.930 1_655 S
C140 O141 1.198 1_655 S
C140 O159 1.247 . S
O141 C140 1.198 1_455 S
N142 Co132 2.128 . S
N142 C143 1.355 . S
N142 C145 1.311 . S
C143 N142 1.355 . S
C143 C144 1.363 . S
C143 H155 0.929 . S
C144 C143 1.363 . S
C144 N146 1.375 . S
C144 H162 0.931 . S
C145 N142 1.311 . S
C145 N146 1.347 . S
C145 H156 0.929 1_455 S
N146 C144 1.375 . S
N146 C145 1.347 . S
C147 C150 1.365 . S
C147 N152 1.328 . S
C147 H153 0.929 . S
C148 C149 1.362 . S
C148 C151 1.378 . S
C148 H163 0.929 . S
C149 C148 1.362 . S
C149 C150 1.366 . S
C150 C147 1.365 . S
C150 C149 1.366 . S
C150 H164 0.930 . S
C151 C148 1.378 . S
C151 N152 1.315 . S
C151 H154 0.930 . S
N152 Co132 2.194 . S
N152 C147 1.328 . S
N152 C151 1.315 . S
H153 C147 0.929 . S
H154 C151 0.930 . S
H155 C143 0.929 . S
H156 C145 0.929 1_655 S
O157 Co132 2.351 . S
O157 C160 1.244 . S
O158 Co132 2.155 . S
O158 C160 1.240 . S
O159 Co132 2.096 1_655 S
O159 C140 1.247 . S
C160 O157 1.244 . S
C160 O158 1.240 . S
H161 C135 0.931 . S
H162 C144 0.931 . S
H163 C148 0.929 . S
H164 C150 0.930 . S
Co165 N169 2.148 . S
Co165 N175 2.128 . S
Co165 N185 2.194 . S
Co165 O190 2.351 . S
Co165 O191 2.155 . S
Co165 O192 2.096 1_545 S
C166 N169 1.301 . S
C166 N170 1.328 . S
C166 H171 0.930 . S
C167 C168 1.333 . S
C167 N169 1.317 . S
C167 H172 0.930 1_545 S
C168 C167 1.333 . S
C168 N170 1.350 . S
C168 H194 0.931 . S
N169 Co165 2.148 . S
N169 C166 1.301 . S
N169 C167 1.317 . S
N170 C166 1.328 . S
N170 C168 1.350 . S
H171 C166 0.930 . S
H172 C167 0.930 1_565 S
C173 O174 1.197 1_565 S
C173 O192 1.247 . S
O174 C173 1.197 1_545 S
N175 Co165 2.128 . S
N175 C176 1.355 . S
N175 C178 1.311 . S
C176 N175 1.355 . S
C176 C177 1.363 . S
C176 H188 0.929 . S
C177 C176 1.363 . S
C177 N179 1.375 . S
C177 H195 0.931 . S
C178 N175 1.311 . S
C178 N179 1.347 . S
C178 H189 0.929 1_545 S
N179 C177 1.375 . S
N179 C178 1.347 . S
C180 C183 1.365 . S
C180 N185 1.328 . S
C180 H186 0.929 . S
C181 C182 1.362 . S
C181 C184 1.378 . S
C181 H196 0.929 . S
C182 C181 1.362 . S
C182 C183 1.366 . S
C183 C180 1.365 . S
C183 C182 1.366 . S
C183 H197 0.930 . S
C184 C181 1.378 . S
C184 N185 1.315 . S
C184 H187 0.930 . S
N185 Co165 2.194 . S
N185 C180 1.328 . S
N185 C184 1.315 . S
H186 C180 0.929 . S
H187 C184 0.930 . S
H188 C176 0.929 . S
H189 C178 0.929 1_565 S
O190 Co165 2.351 . S
O190 C193 1.244 . S
O191 Co165 2.155 . S
O191 C193 1.240 . S
O192 Co165 2.096 1_565 S
O192 C173 1.247 . S
C193 O190 1.244 . S
C193 O191 1.240 . S
H194 C168 0.931 . S
H195 C177 0.931 . S
H196 C181 0.929 . S
H197 C183 0.930 . S
Co198 N202 2.148 . S
Co198 N208 2.128 . S
Co198 N218 2.194 . S
Co198 O223 2.351 . S
Co198 O224 2.155 . S
Co198 O225 2.096 1_655 S
C199 N202 1.301 . S
C199 N203 1.328 . S
C199 H204 0.930 . S
C200 C201 1.333 . S
C200 N202 1.317 . S
C200 H205 0.930 1_655 S
C201 C200 1.333 . S
C201 N203 1.350 . S
C201 H227 0.931 . S
N202 Co198 2.148 . S
N202 C199 1.301 . S
N202 C200 1.317 . S
N203 C199 1.328 . S
N203 C201 1.350 . S
H204 C199 0.930 . S
H205 C200 0.930 1_455 S
C206 O207 1.197 1_455 S
C206 O225 1.247 . S
O207 C206 1.197 1_655 S
N208 Co198 2.128 . S
N208 C209 1.355 . S
N208 C211 1.311 . S
C209 N208 1.355 . S
C209 C210 1.363 . S
C209 H221 0.929 . S
C210 C209 1.363 . S
C210 N212 1.375 . S
C210 H228 0.931 . S
C211 N208 1.311 . S
C211 N212 1.347 . S
C211 H222 0.929 1_655 S
N212 C210 1.375 . S
N212 C211 1.347 . S
C213 C216 1.365 . S
C213 N218 1.328 . S
C213 H219 0.929 . S
C214 C215 1.362 . S
C214 C217 1.378 . S
C214 H229 0.929 . S
C215 C214 1.362 . S
C215 C216 1.366 . S
C216 C213 1.365 . S
C216 C215 1.366 . S
C216 H230 0.930 . S
C217 C214 1.378 . S
C217 N218 1.315 . S
C217 H220 0.930 . S
N218 Co198 2.194 . S
N218 C213 1.328 . S
N218 C217 1.315 . S
H219 C213 0.929 . S
H220 C217 0.930 . S
H221 C209 0.929 . S
H222 C211 0.929 1_455 S
O223 Co198 2.351 . S
O223 C226 1.244 . S
O224 Co198 2.155 . S
O224 C226 1.240 . S
O225 Co198 2.096 1_455 S
O225 C206 1.247 . S
C226 O223 1.244 . S
C226 O224 1.240 . S
H227 C201 0.931 . S
H228 C210 0.931 . S
H229 C214 0.929 . S
H230 C216 0.930 . S
Co231 N235 2.148 . S
Co231 N241 2.128 . S
Co231 N251 2.194 . S
Co231 O256 2.351 . S
Co231 O257 2.155 . S
Co231 O258 2.096 1_565 S
C232 N235 1.301 . S
C232 N236 1.328 . S
C232 H237 0.930 . S
C233 C234 1.333 . S
C233 N235 1.317 . S
C233 H238 0.930 1_565 S
C234 C233 1.333 . S
C234 N236 1.350 . S
C234 H260 0.931 . S
N235 Co231 2.148 . S
N235 C232 1.301 . S
N235 C233 1.317 . S
N236 C232 1.328 . S
N236 C234 1.350 . S
H237 C232 0.930 . S
H238 C233 0.930 1_545 S
C239 O240 1.197 1_545 S
C239 O258 1.247 . S
O240 C239 1.197 1_565 S
N241 Co231 2.128 . S
N241 C242 1.355 . S
N241 C244 1.311 . S
C242 N241 1.355 . S
C242 C243 1.363 . S
C242 H254 0.929 . S
C243 C242 1.363 . S
C243 N245 1.375 . S
C243 H261 0.931 . S
C244 N241 1.311 . S
C244 N245 1.347 . S
C244 H255 0.929 1_565 S
N245 C243 1.375 . S
N245 C244 1.347 . S
C246 C249 1.365 . S
C246 N251 1.328 . S
C246 H252 0.929 . S
C247 C248 1.362 . S
C247 C250 1.378 . S
C247 H262 0.929 . S
C248 C247 1.362 . S
C248 C249 1.366 . S
C249 C246 1.365 . S
C249 C248 1.366 . S
C249 H263 0.930 . S
C250 C247 1.378 . S
C250 N251 1.315 . S
C250 H253 0.930 . S
N251 Co231 2.194 . S
N251 C246 1.328 . S
N251 C250 1.315 . S
H252 C246 0.929 . S
H253 C250 0.930 . S
H254 C242 0.929 . S
H255 C244 0.929 1_545 S
O256 Co231 2.351 . S
O256 C259 1.244 . S
O257 Co231 2.155 . S
O257 C259 1.240 . S
O258 Co231 2.096 1_545 S
O258 C239 1.247 . S
C259 O256 1.244 . S
C259 O257 1.240 . S
H260 C234 0.931 . S
H261 C243 0.931 . S
H262 C247 0.929 . S
H263 C249 0.930 . S
Co264 N268 2.148 . S
Co264 N274 2.128 . S
Co264 N284 2.194 . S
Co264 O289 2.351 . S
Co264 O290 2.155 . S
Co264 O291 2.096 . S
C265 N268 1.301 . S
C265 N269 1.328 . S
C265 H270 0.930 . S
C266 C267 1.333 . S
C266 N268 1.317 . S
C266 H271 0.930 . S
C267 C266 1.333 . S
C267 N269 1.350 . S
C267 H293 0.931 . S
N268 Co264 2.148 . S
N268 C265 1.301 . S
N268 C266 1.317 . S
N269 C265 1.328 . S
N269 C267 1.350 . S
H270 C265 0.930 . S
H271 C266 0.930 . S
C272 O273 1.224 . S
C272 O291 1.247 . S
O273 C272 1.224 . S
N274 Co264 2.128 . S
N274 C275 1.355 . S
N274 C277 1.311 . S
C275 N274 1.355 . S
C275 C276 1.363 . S
C275 H287 0.929 . S
C276 C275 1.363 . S
C276 N278 1.375 . S
C276 H294 0.931 . S
C277 N274 1.311 . S
C277 N278 1.347 . S
C277 H288 0.929 . S
N278 C276 1.375 . S
N278 C277 1.347 . S
C279 C282 1.365 . S
C279 N284 1.328 . S
C279 H285 0.929 . S
C280 C281 1.362 . S
C280 C283 1.378 . S
C280 H295 0.929 . S
C281 C280 1.362 . S
C281 C282 1.366 . S
C282 C279 1.365 . S
C282 C281 1.366 . S
C282 H296 0.930 . S
C283 C280 1.378 . S
C283 N284 1.315 . S
C283 H286 0.930 . S
N284 Co264 2.194 . S
N284 C279 1.328 . S
N284 C283 1.315 . S
H285 C279 0.929 . S
H286 C283 0.930 . S
H287 C275 0.929 . S
H288 C277 0.929 . S
O289 Co264 2.351 . S
O289 C292 1.244 . S
O290 Co264 2.155 . S
O290 C292 1.240 . S
O291 Co264 2.096 . S
O291 C272 1.247 . S
C292 O289 1.244 . S
C292 O290 1.240 . S
H293 C267 0.931 . S
H294 C276 0.931 . S
H295 C280 0.929 . S
H296 C282 0.930 . S
Co297 N301 2.148 . S
Co297 N307 2.128 . S
Co297 N317 2.194 . S
Co297 O322 2.351 . S
Co297 O323 2.155 . S
Co297 O324 2.096 . S
C298 N301 1.301 . S
C298 N302 1.328 . S
C298 H303 0.930 . S
C299 C300 1.333 . S
C299 N301 1.317 . S
C299 H304 0.930 . S
C300 C299 1.333 . S
C300 N302 1.350 . S
C300 H326 0.931 . S
N301 Co297 2.148 . S
N301 C298 1.301 . S
N301 C299 1.317 . S
N302 C298 1.328 . S
N302 C300 1.350 . S
H303 C298 0.930 . S
H304 C299 0.930 . S
C305 O306 1.224 . S
C305 O324 1.247 . S
O306 C305 1.224 . S
N307 Co297 2.128 . S
N307 C308 1.355 . S
N307 C310 1.311 . S
C308 N307 1.355 . S
C308 C309 1.363 . S
C308 H320 0.929 . S
C309 C308 1.363 . S
C309 N311 1.375 . S
C309 H327 0.931 . S
C310 N307 1.311 . S
C310 N311 1.347 . S
C310 H321 0.929 . S
N311 C309 1.375 . S
N311 C310 1.347 . S
C312 C315 1.365 . S
C312 N317 1.328 . S
C312 H318 0.929 . S
C313 C314 1.362 . S
C313 C316 1.378 . S
C313 H328 0.929 . S
C314 C313 1.362 . S
C314 C315 1.366 . S
C315 C312 1.365 . S
C315 C314 1.366 . S
C315 H329 0.930 . S
C316 C313 1.378 . S
C316 N317 1.315 . S
C316 H319 0.930 . S
N317 Co297 2.194 . S
N317 C312 1.328 . S
N317 C316 1.315 . S
H318 C312 0.929 . S
H319 C316 0.930 . S
H320 C308 0.929 . S
H321 C310 0.929 . S
O322 Co297 2.351 . S
O322 C325 1.244 . S
O323 Co297 2.155 . S
O323 C325 1.240 . S
O324 Co297 2.096 . S
O324 C305 1.247 . S
C325 O322 1.244 . S
C325 O323 1.240 . S
H326 C300 0.931 . S
H327 C309 0.931 . S
H328 C313 0.929 . S
H329 C315 0.930 . S
Co330 N334 2.148 . S
Co330 N340 2.128 . S
Co330 N350 2.194 . S
Co330 O355 2.351 . S
Co330 O356 2.155 . S
Co330 O357 2.096 . S
C331 N334 1.301 . S
C331 N335 1.328 . S
C331 H336 0.930 . S
C332 C333 1.333 . S
C332 N334 1.317 . S
C332 H337 0.930 . S
C333 C332 1.333 . S
C333 N335 1.350 . S
C333 H359 0.931 . S
N334 Co330 2.148 . S
N334 C331 1.301 . S
N334 C332 1.317 . S
N335 C331 1.328 . S
N335 C333 1.350 . S
H336 C331 0.930 . S
H337 C332 0.930 . S
C338 O339 1.224 . S
C338 O357 1.247 . S
O339 C338 1.224 . S
N340 Co330 2.128 . S
N340 C341 1.355 . S
N340 C343 1.311 . S
C341 N340 1.355 . S
C341 C342 1.363 . S
C341 H353 0.929 . S
C342 C341 1.363 . S
C342 N344 1.375 . S
C342 H360 0.931 . S
C343 N340 1.311 . S
C343 N344 1.347 . S
C343 H354 0.929 . S
N344 C342 1.375 . S
N344 C343 1.347 . S
C345 C348 1.365 . S
C345 N350 1.328 . S
C345 H351 0.929 . S
C346 C347 1.362 . S
C346 C349 1.378 . S
C346 H361 0.929 . S
C347 C346 1.362 . S
C347 C348 1.366 . S
C348 C345 1.365 . S
C348 C347 1.366 . S
C348 H362 0.930 . S
C349 C346 1.378 . S
C349 N350 1.315 . S
C349 H352 0.930 . S
N350 Co330 2.194 . S
N350 C345 1.328 . S
N350 C349 1.315 . S
H351 C345 0.929 . S
H352 C349 0.930 . S
H353 C341 0.929 . S
H354 C343 0.929 . S
O355 Co330 2.351 . S
O355 C358 1.244 . S
O356 Co330 2.155 . S
O356 C358 1.240 . S
O357 Co330 2.096 . S
O357 C338 1.247 . S
C358 O355 1.244 . S
C358 O356 1.240 . S
H359 C333 0.931 . S
H360 C342 0.931 . S
H361 C346 0.929 . S
H362 C348 0.930 . S
Co363 N367 2.148 . S
Co363 N373 2.128 . S
Co363 N383 2.194 . S
Co363 O388 2.351 . S
Co363 O389 2.155 . S
Co363 O390 2.096 . S
C364 N367 1.301 . S
C364 N368 1.328 . S
C364 H369 0.930 . S
C365 C366 1.333 . S
C365 N367 1.317 . S
C365 H370 0.930 . S
C366 C365 1.333 . S
C366 N368 1.350 . S
C366 H392 0.931 . S
N367 Co363 2.148 . S
N367 C364 1.301 . S
N367 C365 1.317 . S
N368 C364 1.328 . S
N368 C366 1.350 . S
H369 C364 0.930 . S
H370 C365 0.930 . S
C371 O372 1.224 . S
C371 O390 1.247 . S
O372 C371 1.224 . S
N373 Co363 2.128 . S
N373 C374 1.355 . S
N373 C376 1.311 . S
C374 N373 1.355 . S
C374 C375 1.363 . S
C374 H386 0.929 . S
C375 C374 1.363 . S
C375 N377 1.375 . S
C375 H393 0.931 . S
C376 N373 1.311 . S
C376 N377 1.347 . S
C376 H387 0.929 . S
N377 C375 1.375 . S
N377 C376 1.347 . S
C378 C381 1.365 . S
C378 N383 1.328 . S
C378 H384 0.929 . S
C379 C380 1.362 . S
C379 C382 1.378 . S
C379 H394 0.929 . S
C380 C379 1.362 . S
C380 C381 1.366 . S
C381 C378 1.365 . S
C381 C380 1.366 . S
C381 H395 0.930 . S
C382 C379 1.378 . S
C382 N383 1.315 . S
C382 H385 0.930 . S
N383 Co363 2.194 . S
N383 C378 1.328 . S
N383 C382 1.315 . S
H384 C378 0.929 . S
H385 C382 0.930 . S
H386 C374 0.929 . S
H387 C376 0.929 . S
O388 Co363 2.351 . S
O388 C391 1.244 . S
O389 Co363 2.155 . S
O389 C391 1.240 . S
O390 Co363 2.096 . S
O390 C371 1.247 . S
C391 O388 1.244 . S
C391 O389 1.240 . S
H392 C366 0.931 . S
H393 C375 0.931 . S
H394 C379 0.929 . S
H395 C381 0.930 . S
Co396 N400 2.148 . S
Co396 N406 2.128 . S
Co396 N416 2.194 . S
Co396 O421 2.351 . S
Co396 O422 2.155 . S
Co396 O423 2.096 . S
C397 N400 1.301 . S
C397 N401 1.328 . S
C397 H402 0.930 . S
C398 C399 1.333 . S
C398 N400 1.317 . S
C398 H403 0.930 . S
C399 C398 1.333 . S
C399 N401 1.350 . S
C399 H425 0.931 . S
N400 Co396 2.148 . S
N400 C397 1.301 . S
N400 C398 1.317 . S
N401 C397 1.328 . S
N401 C399 1.350 . S
H402 C397 0.930 . S
H403 C398 0.930 . S
C404 O405 1.224 . S
C404 O423 1.247 . S
O405 C404 1.224 . S
N406 Co396 2.128 . S
N406 C407 1.355 . S
N406 C409 1.311 . S
C407 N406 1.355 . S
C407 C408 1.363 . S
C407 H419 0.929 . S
C408 C407 1.363 . S
C408 N410 1.375 . S
C408 H426 0.931 . S
C409 N406 1.311 . S
C409 N410 1.347 . S
C409 H420 0.929 . S
N410 C408 1.375 . S
N410 C409 1.347 . S
C411 C414 1.365 . S
C411 N416 1.328 . S
C411 H417 0.929 . S
C412 C413 1.362 . S
C412 C415 1.378 . S
C412 H427 0.929 . S
C413 C412 1.362 . S
C413 C414 1.366 . S
C414 C411 1.365 . S
C414 C413 1.366 . S
C414 H428 0.930 . S
C415 C412 1.378 . S
C415 N416 1.315 . S
C415 H418 0.930 . S
N416 Co396 2.194 . S
N416 C411 1.328 . S
N416 C415 1.315 . S
H417 C411 0.929 . S
H418 C415 0.930 . S
H419 C407 0.929 . S
H420 C409 0.929 . S
O421 Co396 2.351 . S
O421 C424 1.244 . S
O422 Co396 2.155 . S
O422 C424 1.240 . S
O423 Co396 2.096 . S
O423 C404 1.247 . S
C424 O421 1.244 . S
C424 O422 1.240 . S
H425 C399 0.931 . S
H426 C408 0.931 . S
H427 C412 0.929 . S
H428 C414 0.930 . S
Co429 N433 2.148 . S
Co429 N439 2.128 . S
Co429 N449 2.194 . S
Co429 O454 2.351 . S
Co429 O455 2.155 . S
Co429 O456 2.096 . S
C430 N433 1.301 . S
C430 N434 1.328 . S
C430 H435 0.930 . S
C431 C432 1.333 . S
C431 N433 1.317 . S
C431 H436 0.930 . S
C432 C431 1.333 . S
C432 N434 1.350 . S
C432 H458 0.931 . S
N433 Co429 2.148 . S
N433 C430 1.301 . S
N433 C431 1.317 . S
N434 C430 1.328 . S
N434 C432 1.350 . S
H435 C430 0.930 . S
H436 C431 0.930 . S
C437 O438 1.224 . S
C437 O456 1.247 . S
O438 C437 1.224 . S
N439 Co429 2.128 . S
N439 C440 1.355 . S
N439 C442 1.311 . S
C440 N439 1.355 . S
C440 C441 1.363 . S
C440 H452 0.929 . S
C441 C440 1.363 . S
C441 N443 1.375 . S
C441 H459 0.931 . S
C442 N439 1.311 . S
C442 N443 1.347 . S
C442 H453 0.929 . S
N443 C441 1.375 . S
N443 C442 1.347 . S
C444 C447 1.365 . S
C444 N449 1.328 . S
C444 H450 0.929 . S
C445 C446 1.362 . S
C445 C448 1.378 . S
C445 H460 0.929 . S
C446 C445 1.362 . S
C446 C447 1.366 . S
C447 C444 1.365 . S
C447 C446 1.366 . S
C447 H461 0.930 . S
C448 C445 1.378 . S
C448 N449 1.315 . S
C448 H451 0.930 . S
N449 Co429 2.194 . S
N449 C444 1.328 . S
N449 C448 1.315 . S
H450 C444 0.929 . S
H451 C448 0.930 . S
H452 C440 0.929 . S
H453 C442 0.929 . S
O454 Co429 2.351 . S
O454 C457 1.244 . S
O455 Co429 2.155 . S
O455 C457 1.240 . S
O456 Co429 2.096 . S
O456 C437 1.247 . S
C457 O454 1.244 . S
C457 O455 1.240 . S
H458 C432 0.931 . S
H459 C441 0.931 . S
H460 C445 0.929 . S
H461 C447 0.930 . S
Co462 N466 2.148 . S
Co462 N472 2.128 . S
Co462 N482 2.194 . S
Co462 O487 2.351 . S
Co462 O488 2.155 . S
Co462 O489 2.096 . S
C463 N466 1.301 . S
C463 N467 1.328 . S
C463 H468 0.930 . S
C464 C465 1.333 . S
C464 N466 1.317 . S
C464 H469 0.930 . S
C465 C464 1.333 . S
C465 N467 1.350 . S
C465 H491 0.931 . S
N466 Co462 2.148 . S
N466 C463 1.301 . S
N466 C464 1.317 . S
N467 C463 1.328 . S
N467 C465 1.350 . S
H468 C463 0.930 . S
H469 C464 0.930 . S
C470 O471 1.224 . S
C470 O489 1.247 . S
O471 C470 1.224 . S
N472 Co462 2.128 . S
N472 C473 1.355 . S
N472 C475 1.311 . S
C473 N472 1.355 . S
C473 C474 1.363 . S
C473 H485 0.929 . S
C474 C473 1.363 . S
C474 N476 1.375 . S
C474 H492 0.931 . S
C475 N472 1.311 . S
C475 N476 1.347 . S
C475 H486 0.929 . S
N476 C474 1.375 . S
N476 C475 1.347 . S
C477 C480 1.365 . S
C477 N482 1.328 . S
C477 H483 0.929 . S
C478 C479 1.362 . S
C478 C481 1.378 . S
C478 H493 0.929 . S
C479 C478 1.362 . S
C479 C480 1.366 . S
C480 C477 1.365 . S
C480 C479 1.366 . S
C480 H494 0.930 . S
C481 C478 1.378 . S
C481 N482 1.315 . S
C481 H484 0.930 . S
N482 Co462 2.194 . S
N482 C477 1.328 . S
N482 C481 1.315 . S
H483 C477 0.929 . S
H484 C481 0.930 . S
H485 C473 0.929 . S
H486 C475 0.929 . S
O487 Co462 2.351 . S
O487 C490 1.244 . S
O488 Co462 2.155 . S
O488 C490 1.240 . S
O489 Co462 2.096 . S
O489 C470 1.247 . S
C490 O487 1.244 . S
C490 O488 1.240 . S
H491 C465 0.931 . S
H492 C474 0.931 . S
H493 C478 0.929 . S
H494 C480 0.930 . S
Co495 N499 2.148 . S
Co495 N505 2.128 . S
Co495 N515 2.194 . S
Co495 O520 2.351 . S
Co495 O521 2.155 . S
Co495 O522 2.096 . S
C496 N499 1.301 . S
C496 N500 1.328 . S
C496 H501 0.930 . S
C497 C498 1.333 . S
C497 N499 1.317 . S
C497 H502 0.930 . S
C498 C497 1.333 . S
C498 N500 1.350 . S
C498 H524 0.931 . S
N499 Co495 2.148 . S
N499 C496 1.301 . S
N499 C497 1.317 . S
N500 C496 1.328 . S
N500 C498 1.350 . S
H501 C496 0.930 . S
H502 C497 0.930 . S
C503 O504 1.224 . S
C503 O522 1.247 . S
O504 C503 1.224 . S
N505 Co495 2.128 . S
N505 C506 1.355 . S
N505 C508 1.311 . S
C506 N505 1.355 . S
C506 C507 1.363 . S
C506 H518 0.929 . S
C507 C506 1.363 . S
C507 N509 1.375 . S
C507 H525 0.931 . S
C508 N505 1.311 . S
C508 N509 1.347 . S
C508 H519 0.929 . S
N509 C507 1.375 . S
N509 C508 1.347 . S
C510 C513 1.365 . S
C510 N515 1.328 . S
C510 H516 0.929 . S
C511 C512 1.362 . S
C511 C514 1.378 . S
C511 H526 0.929 . S
C512 C511 1.362 . S
C512 C513 1.366 . S
C513 C510 1.365 . S
C513 C512 1.366 . S
C513 H527 0.930 . S
C514 C511 1.378 . S
C514 N515 1.315 . S
C514 H517 0.930 . S
N515 Co495 2.194 . S
N515 C510 1.328 . S
N515 C514 1.315 . S
H516 C510 0.929 . S
H517 C514 0.930 . S
H518 C506 0.929 . S
H519 C508 0.929 . S
O520 Co495 2.351 . S
O520 C523 1.244 . S
O521 Co495 2.155 . S
O521 C523 1.240 . S
O522 Co495 2.096 . S
O522 C503 1.247 . S
C523 O520 1.244 . S
C523 O521 1.240 . S
H524 C498 0.931 . S
H525 C507 0.931 . S
H526 C511 0.929 . S
H527 C513 0.930 . S
H528 C536 0.950 . S
H529 C541 0.950 . S
H530 C538 0.950 . S
H531 C540 0.950 1_455 S
H532 C542 0.950 . S
H533 C544 0.950 . S
H534 C546 0.950 1_655 S
H535 C547 0.950 . S
C536 H528 0.950 . S
C536 C537 1.386 . S
C536 C538 1.391 . S
C537 C536 1.386 . S
C537 C541 1.393 . S
C538 H530 0.950 . S
C538 C536 1.391 . S
C538 C539 1.400 . S
C539 C538 1.400 . S
C539 C540 1.398 . S
C539 C545 1.491 1_655 S
C540 H531 0.950 1_655 S
C540 C539 1.398 . S
C540 C541 1.391 . S
C541 H529 0.950 . S
C541 C537 1.393 . S
C541 C540 1.391 . S
C542 H532 0.950 . S
C542 C543 1.386 . S
C542 C544 1.391 . S
C543 C542 1.386 . S
C543 C547 1.393 . S
C544 H533 0.950 . S
C544 C542 1.391 . S
C544 C545 1.400 . S
C545 C539 1.491 1_455 S
C545 C544 1.400 . S
C545 C546 1.398 . S
C546 H534 0.950 1_455 S
C546 C545 1.398 . S
C546 C547 1.391 . S
C547 H535 0.950 . S
C547 C543 1.393 . S
C547 C546 1.391 . S
H548 C556 0.950 . S
H549 C561 0.950 1_565 S
H550 C558 0.950 . S
H551 C560 0.950 . S
H552 C562 0.950 . S
H553 C564 0.950 . S
H554 C566 0.950 . S
H555 C567 0.950 1_545 S
C556 H548 0.950 . S
C556 C557 1.386 . S
C556 C558 1.391 . S
C557 C556 1.386 . S
C557 C561 1.393 . S
C558 H550 0.950 . S
C558 C556 1.391 . S
C558 C559 1.400 . S
C559 C558 1.400 . S
C559 C560 1.398 1_545 S
C559 C565 1.491 1_545 S
C560 H551 0.950 . S
C560 C559 1.398 1_565 S
C560 C561 1.391 1_565 S
C561 H549 0.950 1_545 S
C561 C557 1.393 . S
C561 C560 1.391 1_545 S
C562 H552 0.950 . S
C562 C563 1.386 . S
C562 C564 1.391 . S
C563 C562 1.386 . S
C563 C567 1.393 . S
C564 H553 0.950 . S
C564 C562 1.391 . S
C564 C565 1.400 . S
C565 C559 1.491 1_565 S
C565 C564 1.400 . S
C565 C566 1.398 1_565 S
C566 H554 0.950 . S
C566 C565 1.398 1_545 S
C566 C567 1.391 1_545 S
C567 H555 0.950 1_565 S
C567 C563 1.393 . S
C567 C566 1.391 1_565 S
H568 C576 0.950 . S
H569 C581 0.950 . S
H570 C578 0.950 1_455 S
H571 C580 0.950 . S
H572 C582 0.950 . S
H573 C584 0.950 1_655 S
H574 C586 0.950 . S
H575 C587 0.950 . S
C576 H568 0.950 . S
C576 C577 1.386 . S
C576 C578 1.391 . S
C577 C576 1.386 . S
C577 C581 1.393 . S
C578 H570 0.950 1_655 S
C578 C576 1.391 . S
C578 C579 1.400 . S
C579 C578 1.400 . S
C579 C580 1.398 . S
C579 C585 1.491 1_655 S
C580 H571 0.950 . S
C580 C579 1.398 . S
C580 C581 1.391 . S
C581 H569 0.950 . S
C581 C577 1.393 . S
C581 C580 1.391 . S
C582 H572 0.950 . S
C582 C583 1.386 . S
C582 C584 1.391 . S
C583 C582 1.386 . S
C583 C587 1.393 . S
C584 H573 0.950 1_455 S
C584 C582 1.391 . S
C584 C585 1.400 . S
C585 C579 1.491 1_455 S
C585 C584 1.400 . S
C585 C586 1.398 . S
C586 H574 0.950 . S
C586 C585 1.398 . S
C586 C587 1.391 . S
C587 H575 0.950 . S
C587 C583 1.393 . S
C587 C586 1.391 . S
H588 C596 0.950 . S
H589 C601 0.950 . S
H590 C598 0.950 1_545 S
H591 C600 0.950 . S
H592 C602 0.950 . S
H593 C604 0.950 1_565 S
H594 C606 0.950 . S
H595 C607 0.950 . S
C596 H588 0.950 . S
C596 C597 1.386 . S
C596 C598 1.391 . S
C597 C596 1.386 . S
C597 C601 1.393 . S
C598 H590 0.950 1_565 S
C598 C596 1.391 . S
C598 C599 1.400 . S
C599 C598 1.400 . S
C599 C600 1.398 . S
C599 C605 1.491 1_565 S
C600 H591 0.950 . S
C600 C599 1.398 . S
C600 C601 1.391 . S
C601 H589 0.950 . S
C601 C597 1.393 . S
C601 C600 1.391 . S
C602 H592 0.950 . S
C602 C603 1.386 . S
C602 C604 1.391 . S
C603 C602 1.386 . S
C603 C607 1.393 . S
C604 H593 0.950 1_545 S
C604 C602 1.391 . S
C604 C605 1.400 . S
C605 C599 1.491 1_545 S
C605 C604 1.400 . S
C605 C606 1.398 . S
C606 H594 0.950 . S
C606 C605 1.398 . S
C606 C607 1.391 . S
C607 H595 0.950 . S
C607 C603 1.393 . S
C607 C606 1.391 . S
H608 C616 0.950 . S
H609 C621 0.950 . S
H610 C618 0.950 . S
H611 C620 0.950 . S
H612 C622 0.950 . S
H613 C624 0.950 . S
H614 C626 0.950 . S
H615 C627 0.950 . S
C616 H608 0.950 . S
C616 C617 1.386 . S
C616 C618 1.391 . S
C617 C616 1.386 . S
C617 C621 1.393 . S
C618 H610 0.950 . S
C618 C616 1.391 . S
C618 C619 1.400 . S
C619 C618 1.400 . S
C619 C620 1.398 . S
C619 C625 1.491 1_565 S
C620 H611 0.950 . S
C620 C619 1.398 . S
C620 C621 1.391 . S
C621 H609 0.950 . S
C621 C617 1.393 . S
C621 C620 1.391 . S
C622 H612 0.950 . S
C622 C623 1.386 . S
C622 C624 1.391 . S
C623 C622 1.386 . S
C623 C627 1.393 . S
C624 H613 0.950 . S
C624 C622 1.391 . S
C624 C625 1.400 . S
C625 C619 1.491 1_545 S
C625 C624 1.400 . S
C625 C626 1.398 . S
C626 H614 0.950 . S
C626 C625 1.398 . S
C626 C627 1.391 . S
C627 H615 0.950 . S
C627 C623 1.393 . S
C627 C626 1.391 . S
H628 C636 0.950 . S
H629 C641 0.950 . S
H630 C638 0.950 . S
H631 C640 0.950 . S
H632 C642 0.950 . S
H633 C644 0.950 . S
H634 C646 0.950 . S
H635 C647 0.950 . S
C636 H628 0.950 . S
C636 C637 1.386 . S
C636 C638 1.391 . S
C637 C636 1.386 . S
C637 C641 1.393 . S
C638 H630 0.950 . S
C638 C636 1.391 . S
C638 C639 1.400 . S
C639 C638 1.400 . S
C639 C640 1.398 . S
C639 C645 1.491 1_655 S
C640 H631 0.950 . S
C640 C639 1.398 . S
C640 C641 1.391 . S
C641 H629 0.950 . S
C641 C637 1.393 . S
C641 C640 1.391 . S
C642 H632 0.950 . S
C642 C643 1.386 . S
C642 C644 1.391 . S
C643 C642 1.386 . S
C643 C647 1.393 . S
C644 H633 0.950 . S
C644 C642 1.391 . S
C644 C645 1.400 . S
C645 C639 1.491 1_455 S
C645 C644 1.400 . S
C645 C646 1.398 . S
C646 H634 0.950 . S
C646 C645 1.398 . S
C646 C647 1.391 . S
C647 H635 0.950 . S
C647 C643 1.393 . S
C647 C646 1.391 . S
H648 C656 0.950 . S
H649 C661 0.950 . S
H650 C658 0.950 . S
H651 C660 0.950 . S
H652 C662 0.950 . S
H653 C664 0.950 . S
H654 C666 0.950 . S
H655 C667 0.950 . S
C656 H648 0.950 . S
C656 C657 1.386 . S
C656 C658 1.391 . S
C657 C656 1.386 . S
C657 C661 1.393 . S
C658 H650 0.950 . S
C658 C656 1.391 . S
C658 C659 1.400 . S
C659 C658 1.400 . S
C659 C660 1.398 . S
C659 C665 1.491 1_565 S
C660 H651 0.950 . S
C660 C659 1.398 . S
C660 C661 1.391 . S
C661 H649 0.950 . S
C661 C657 1.393 . S
C661 C660 1.391 . S
C662 H652 0.950 . S
C662 C663 1.386 . S
C662 C664 1.391 . S
C663 C662 1.386 . S
C663 C667 1.393 . S
C664 H653 0.950 . S
C664 C662 1.391 . S
C664 C665 1.400 . S
C665 C659 1.491 1_545 S
C665 C664 1.400 . S
C665 C666 1.398 . S
C666 H654 0.950 . S
C666 C665 1.398 . S
C666 C667 1.391 . S
C667 H655 0.950 . S
C667 C663 1.393 . S
C667 C666 1.391 . S
H668 C676 0.950 . S
H669 C681 0.950 . S
H670 C678 0.950 . S
H671 C680 0.950 . S
H672 C682 0.950 . S
H673 C684 0.950 . S
H674 C686 0.950 . S
H675 C687 0.950 . S
C676 H668 0.950 . S
C676 C677 1.386 . S
C676 C678 1.391 . S
C677 C676 1.386 . S
C677 C681 1.393 . S
C678 H670 0.950 . S
C678 C676 1.391 . S
C678 C679 1.400 . S
C679 C678 1.400 . S
C679 C680 1.398 . S
C679 C685 1.491 1_655 S
C680 H671 0.950 . S
C680 C679 1.398 . S
C680 C681 1.391 . S
C681 H669 0.950 . S
C681 C677 1.393 . S
C681 C680 1.391 . S
C682 H672 0.950 . S
C682 C683 1.386 . S
C682 C684 1.391 . S
C683 C682 1.386 . S
C683 C687 1.393 . S
C684 H673 0.950 . S
C684 C682 1.391 . S
C684 C685 1.400 . S
C685 C679 1.491 1_455 S
C685 C684 1.400 . S
C685 C686 1.398 . S
C686 H674 0.950 . S
C686 C685 1.398 . S
C686 C687 1.391 . S
C687 H675 0.950 . S
C687 C683 1.393 . S
C687 C686 1.391 . S
H688 C696 0.950 . S
H689 C701 0.950 . S
H690 C698 0.950 . S
H691 C700 0.950 . S
H692 C702 0.950 . S
H693 C704 0.950 . S
H694 C706 0.950 . S
H695 C707 0.950 . S
C696 H688 0.950 . S
C696 C697 1.386 . S
C696 C698 1.391 . S
C697 C696 1.386 . S
C697 C701 1.393 . S
C698 H690 0.950 . S
C698 C696 1.391 . S
C698 C699 1.400 . S
C699 C698 1.400 . S
C699 C700 1.398 . S
C699 C705 1.491 . S
C700 H691 0.950 . S
C700 C699 1.398 . S
C700 C701 1.391 . S
C701 H689 0.950 . S
C701 C697 1.393 . S
C701 C700 1.391 . S
C702 H692 0.950 . S
C702 C703 1.386 . S
C702 C704 1.391 . S
C703 C702 1.386 . S
C703 C707 1.393 . S
C704 H693 0.950 . S
C704 C702 1.391 . S
C704 C705 1.400 . S
C705 C699 1.491 . S
C705 C704 1.400 . S
C705 C706 1.398 . S
C706 H694 0.950 . S
C706 C705 1.398 . S
C706 C707 1.391 . S
C707 H695 0.950 . S
C707 C703 1.393 . S
C707 C706 1.391 . S
H708 C716 0.950 . S
H709 C721 0.950 . S
H710 C718 0.950 . S
H711 C720 0.950 . S
H712 C722 0.950 . S
H713 C724 0.950 . S
H714 C726 0.950 . S
H715 C727 0.950 . S
C716 H708 0.950 . S
C716 C717 1.386 . S
C716 C718 1.391 . S
C717 C716 1.386 . S
C717 C721 1.393 . S
C718 H710 0.950 . S
C718 C716 1.391 . S
C718 C719 1.400 . S
C719 C718 1.400 . S
C719 C720 1.398 . S
C719 C725 1.491 . S
C720 H711 0.950 . S
C720 C719 1.398 . S
C720 C721 1.391 . S
C721 H709 0.950 . S
C721 C717 1.393 . S
C721 C720 1.391 . S
C722 H712 0.950 . S
C722 C723 1.386 . S
C722 C724 1.391 . S
C723 C722 1.386 . S
C723 C727 1.393 . S
C724 H713 0.950 . S
C724 C722 1.391 . S
C724 C725 1.400 . S
C725 C719 1.491 . S
C725 C724 1.400 . S
C725 C726 1.398 . S
C726 H714 0.950 . S
C726 C725 1.398 . S
C726 C727 1.391 . S
C727 H715 0.950 . S
C727 C723 1.393 . S
C727 C726 1.391 . S
H728 C736 0.950 . S
H729 C741 0.950 . S
H730 C738 0.950 . S
H731 C740 0.950 . S
H732 C742 0.950 . S
H733 C744 0.950 . S
H734 C746 0.950 . S
H735 C747 0.950 . S
C736 H728 0.950 . S
C736 C737 1.386 . S
C736 C738 1.391 . S
C737 C736 1.386 . S
C737 C741 1.393 . S
C738 H730 0.950 . S
C738 C736 1.391 . S
C738 C739 1.400 . S
C739 C738 1.400 . S
C739 C740 1.398 . S
C739 C745 1.491 . S
C740 H731 0.950 . S
C740 C739 1.398 . S
C740 C741 1.391 . S
C741 H729 0.950 . S
C741 C737 1.393 . S
C741 C740 1.391 . S
C742 H732 0.950 . S
C742 C743 1.386 . S
C742 C744 1.391 . S
C743 C742 1.386 . S
C743 C747 1.393 . S
C744 H733 0.950 . S
C744 C742 1.391 . S
C744 C745 1.400 . S
C745 C739 1.491 . S
C745 C744 1.400 . S
C745 C746 1.398 . S
C746 H734 0.950 . S
C746 C745 1.398 . S
C746 C747 1.391 . S
C747 H735 0.950 . S
C747 C743 1.393 . S
C747 C746 1.391 . S
H748 C756 0.950 . S
H749 C761 0.950 . S
H750 C758 0.950 . S
H751 C760 0.950 . S
H752 C762 0.950 . S
H753 C764 0.950 . S
H754 C766 0.950 . S
H755 C767 0.950 . S
C756 H748 0.950 . S
C756 C757 1.386 . S
C756 C758 1.391 . S
C757 C756 1.386 . S
C757 C761 1.393 . S
C758 H750 0.950 . S
C758 C756 1.391 . S
C758 C759 1.400 . S
C759 C758 1.400 . S
C759 C760 1.398 . S
C759 C765 1.491 . S
C760 H751 0.950 . S
C760 C759 1.398 . S
C760 C761 1.391 . S
C761 H749 0.950 . S
C761 C757 1.393 . S
C761 C760 1.391 . S
C762 H752 0.950 . S
C762 C763 1.386 . S
C762 C764 1.391 . S
C763 C762 1.386 . S
C763 C767 1.393 . S
C764 H753 0.950 . S
C764 C762 1.391 . S
C764 C765 1.400 . S
C765 C759 1.491 . S
C765 C764 1.400 . S
C765 C766 1.398 . S
C766 H754 0.950 . S
C766 C765 1.398 . S
C766 C767 1.391 . S
C767 H755 0.950 . S
C767 C763 1.393 . S
C767 C766 1.391 . S
H768 C776 0.950 . S
H769 C781 0.950 . S
H770 C778 0.950 . S
H771 C780 0.950 . S
H772 C782 0.950 . S
H773 C784 0.950 . S
H774 C786 0.950 . S
H775 C787 0.950 . S
C776 H768 0.950 . S
C776 C777 1.386 . S
C776 C778 1.391 . S
C777 C776 1.386 . S
C777 C781 1.393 . S
C778 H770 0.950 . S
C778 C776 1.391 . S
C778 C779 1.400 . S
C779 C778 1.400 . S
C779 C780 1.398 . S
C779 C785 1.491 . S
C780 H771 0.950 . S
C780 C779 1.398 . S
C780 C781 1.391 . S
C781 H769 0.950 . S
C781 C777 1.393 . S
C781 C780 1.391 . S
C782 H772 0.950 . S
C782 C783 1.386 . S
C782 C784 1.391 . S
C783 C782 1.386 . S
C783 C787 1.393 . S
C784 H773 0.950 . S
C784 C782 1.391 . S
C784 C785 1.400 . S
C785 C779 1.491 . S
C785 C784 1.400 . S
C785 C786 1.398 . S
C786 H774 0.950 . S
C786 C785 1.398 . S
C786 C787 1.391 . S
C787 H775 0.950 . S
C787 C783 1.393 . S
C787 C786 1.391 . S
H788 C796 0.950 . S
H789 C801 0.950 . S
H790 C798 0.950 . S
H791 C800 0.950 . S
H792 C802 0.950 . S
H793 C804 0.950 . S
H794 C806 0.950 . S
H795 C807 0.950 . S
C796 H788 0.950 . S
C796 C797 1.386 . S
C796 C798 1.391 . S
C797 C796 1.386 . S
C797 C801 1.393 . S
C798 H790 0.950 . S
C798 C796 1.391 . S
C798 C799 1.400 . S
C799 C798 1.400 . S
C799 C800 1.398 . S
C799 C805 1.491 . S
C800 H791 0.950 . S
C800 C799 1.398 . S
C800 C801 1.391 . S
C801 H789 0.950 . S
C801 C797 1.393 . S
C801 C800 1.391 . S
C802 H792 0.950 . S
C802 C803 1.386 . S
C802 C804 1.391 . S
C803 C802 1.386 . S
C803 C807 1.393 . S
C804 H793 0.950 . S
C804 C802 1.391 . S
C804 C805 1.400 . S
C805 C799 1.491 . S
C805 C804 1.400 . S
C805 C806 1.398 . S
C806 H794 0.950 . S
C806 C805 1.398 . S
C806 C807 1.391 . S
C807 H795 0.950 . S
C807 C803 1.393 . S
C807 C806 1.391 . S
H808 C816 0.950 . S
H809 C821 0.950 . S
H810 C818 0.950 . S
H811 C820 0.950 . S
H812 C822 0.950 . S
H813 C824 0.950 . S
H814 C826 0.950 . S
H815 C827 0.950 . S
C816 H808 0.950 . S
C816 C817 1.386 . S
C816 C818 1.391 . S
C817 C816 1.386 . S
C817 C821 1.393 . S
C818 H810 0.950 . S
C818 C816 1.391 . S
C818 C819 1.400 . S
C819 C818 1.400 . S
C819 C820 1.398 . S
C819 C825 1.491 . S
C820 H811 0.950 . S
C820 C819 1.398 . S
C820 C821 1.391 . S
C821 H809 0.950 . S
C821 C817 1.393 . S
C821 C820 1.391 . S
C822 H812 0.950 . S
C822 C823 1.386 . S
C822 C824 1.391 . S
C823 C822 1.386 . S
C823 C827 1.393 . S
C824 H813 0.950 . S
C824 C822 1.391 . S
C824 C825 1.400 . S
C825 C819 1.491 . S
C825 C824 1.400 . S
C825 C826 1.398 . S
C826 H814 0.950 . S
C826 C825 1.398 . S
C826 C827 1.391 . S
C827 H815 0.950 . S
C827 C823 1.393 . S
C827 C826 1.391 . S
H828 C836 0.950 . S
H829 C841 0.950 . S
H830 C838 0.950 . S
H831 C840 0.950 . S
H832 C842 0.950 . S
H833 C844 0.950 . S
H834 C846 0.950 . S
H835 C847 0.950 . S
C836 H828 0.950 . S
C836 C837 1.386 . S
C836 C838 1.391 . S
C837 C836 1.386 . S
C837 C841 1.393 . S
C838 H830 0.950 . S
C838 C836 1.391 . S
C838 C839 1.400 . S
C839 C838 1.400 . S
C839 C840 1.398 . S
C839 C845 1.491 . S
C840 H831 0.950 . S
C840 C839 1.398 . S
C840 C841 1.391 . S
C841 H829 0.950 . S
C841 C837 1.393 . S
C841 C840 1.391 . S
C842 H832 0.950 . S
C842 C843 1.386 . S
C842 C844 1.391 . S
C843 C842 1.386 . S
C843 C847 1.393 . S
C844 H833 0.950 . S
C844 C842 1.391 . S
C844 C845 1.400 . S
C845 C839 1.491 . S
C845 C844 1.400 . S
C845 C846 1.398 . S
C846 H834 0.950 . S
C846 C845 1.398 . S
C846 C847 1.391 . S
C847 H835 0.950 . S
C847 C843 1.393 . S
C847 C846 1.391 . S
H848 C856 0.950 . S
H849 C861 0.950 . S
H850 C858 0.950 . S
H851 C860 0.950 . S
H852 C862 0.950 . S
H853 C864 0.950 . S
H854 C866 0.950 . S
H855 C867 0.950 . S
C856 H848 0.950 . S
C856 C857 1.386 . S
C856 C858 1.391 . S
C857 C856 1.386 . S
C857 C861 1.393 . S
C858 H850 0.950 . S
C858 C856 1.391 . S
C858 C859 1.400 . S
C859 C858 1.400 . S
C859 C860 1.398 . S
C859 C865 1.491 . S
C860 H851 0.950 . S
C860 C859 1.398 . S
C860 C861 1.391 . S
C861 H849 0.950 . S
C861 C857 1.393 . S
C861 C860 1.391 . S
C862 H852 0.950 . S
C862 C863 1.386 . S
C862 C864 1.391 . S
C863 C862 1.386 . S
C863 C867 1.393 . S
C864 H853 0.950 . S
C864 C862 1.391 . S
C864 C865 1.400 . S
C865 C859 1.491 . S
C865 C864 1.400 . S
C865 C866 1.398 . S
C866 H854 0.950 . S
C866 C865 1.398 . S
C866 C867 1.391 . S
C867 H855 0.950 . S
C867 C863 1.393 . S
C867 C866 1.391 . S
H868 C876 0.950 . S
H869 C881 0.950 . S
H870 C878 0.950 . S
H871 C880 0.950 . S
H872 C882 0.950 . S
H873 C884 0.950 . S
H874 C886 0.950 . S
H875 C887 0.950 . S
C876 H868 0.950 . S
C876 C877 1.386 . S
C876 C878 1.391 . S
C877 C876 1.386 . S
C877 C881 1.393 . S
C878 H870 0.950 . S
C878 C876 1.391 . S
C878 C879 1.400 . S
C879 C878 1.400 . S
C879 C880 1.398 . S
C879 C885 1.491 . S
C880 H871 0.950 . S
C880 C879 1.398 . S
C880 C881 1.391 . S
C881 H869 0.950 . S
C881 C877 1.393 . S
C881 C880 1.391 . S
C882 H872 0.950 . S
C882 C883 1.386 . S
C882 C884 1.391 . S
C883 C882 1.386 . S
C883 C887 1.393 . S
C884 H873 0.950 . S
C884 C882 1.391 . S
C884 C885 1.400 . S
C885 C879 1.491 . S
C885 C884 1.400 . S
C885 C886 1.398 . S
C886 H874 0.950 . S
C886 C885 1.398 . S
C886 C887 1.391 . S
C887 H875 0.950 . S
C887 C883 1.393 . S
C887 C886 1.391 . S
H888 C896 0.950 . S
H889 C901 0.950 . S
H890 C898 0.950 . S
H891 C900 0.950 . S
H892 C902 0.950 . S
H893 C904 0.950 . S
H894 C906 0.950 . S
H895 C907 0.950 . S
C896 H888 0.950 . S
C896 C897 1.386 . S
C896 C898 1.391 . S
C897 C896 1.386 . S
C897 C901 1.393 . S
C898 H890 0.950 . S
C898 C896 1.391 . S
C898 C899 1.400 . S
C899 C898 1.400 . S
C899 C900 1.398 . S
C899 C905 1.491 . S
C900 H891 0.950 . S
C900 C899 1.398 . S
C900 C901 1.391 . S
C901 H889 0.950 . S
C901 C897 1.393 . S
C901 C900 1.391 . S
C902 H892 0.950 . S
C902 C903 1.386 . S
C902 C904 1.391 . S
C903 C902 1.386 . S
C903 C907 1.393 . S
C904 H893 0.950 . S
C904 C902 1.391 . S
C904 C905 1.400 . S
C905 C899 1.491 . S
C905 C904 1.400 . S
C905 C906 1.398 . S
C906 H894 0.950 . S
C906 C905 1.398 . S
C906 C907 1.391 . S
C907 H895 0.950 . S
C907 C903 1.393 . S
C907 C906 1.391 . S
H908 C916 0.950 . S
H909 C921 0.950 . S
H910 C918 0.950 . S
H911 C920 0.950 . S
H912 C922 0.950 . S
H913 C924 0.950 . S
H914 C926 0.950 . S
H915 C927 0.950 . S
C916 H908 0.950 . S
C916 C917 1.386 . S
C916 C918 1.391 . S
C917 C916 1.386 . S
C917 C921 1.393 . S
C918 H910 0.950 . S
C918 C916 1.391 . S
C918 C919 1.400 . S
C919 C918 1.400 . S
C919 C920 1.398 . S
C919 C925 1.491 . S
C920 H911 0.950 . S
C920 C919 1.398 . S
C920 C921 1.391 . S
C921 H909 0.950 . S
C921 C917 1.393 . S
C921 C920 1.391 . S
C922 H912 0.950 . S
C922 C923 1.386 . S
C922 C924 1.391 . S
C923 C922 1.386 . S
C923 C927 1.393 . S
C924 H913 0.950 . S
C924 C922 1.391 . S
C924 C925 1.400 . S
C925 C919 1.491 . S
C925 C924 1.400 . S
C925 C926 1.398 . S
C926 H914 0.950 . S
C926 C925 1.398 . S
C926 C927 1.391 . S
C927 H915 0.950 . S
C927 C923 1.393 . S
C927 C926 1.391 . S
H928 C936 0.950 . S
H929 C941 0.950 . S
H930 C938 0.950 . S
H931 C940 0.950 . S
H932 C942 0.950 . S
H933 C944 0.950 . S
H934 C946 0.950 . S
H935 C947 0.950 . S
C936 H928 0.950 . S
C936 C937 1.386 . S
C936 C938 1.391 . S
C937 C936 1.386 . S
C937 C941 1.393 . S
C938 H930 0.950 . S
C938 C936 1.391 . S
C938 C939 1.400 . S
C939 C938 1.400 . S
C939 C940 1.398 . S
C939 C945 1.491 . S
C940 H931 0.950 . S
C940 C939 1.398 . S
C940 C941 1.391 . S
C941 H929 0.950 . S
C941 C937 1.393 . S
C941 C940 1.391 . S
C942 H932 0.950 . S
C942 C943 1.386 . S
C942 C944 1.391 . S
C943 C942 1.386 . S
C943 C947 1.393 . S
C944 H933 0.950 . S
C944 C942 1.391 . S
C944 C945 1.400 . S
C945 C939 1.491 . S
C945 C944 1.400 . S
C945 C946 1.398 . S
C946 H934 0.950 . S
C946 C945 1.398 . S
C946 C947 1.391 . S
C947 H935 0.950 . S
C947 C943 1.393 . S
C947 C946 1.391 . S
H948 C956 0.950 . S
H949 C961 0.950 . S
H950 C958 0.950 . S
H951 C960 0.950 . S
H952 C962 0.950 . S
H953 C964 0.950 . S
H954 C966 0.950 . S
H955 C967 0.950 . S
C956 H948 0.950 . S
C956 C957 1.386 . S
C956 C958 1.391 . S
C957 C956 1.386 . S
C957 C961 1.393 . S
C958 H950 0.950 . S
C958 C956 1.391 . S
C958 C959 1.400 . S
C959 C958 1.400 . S
C959 C960 1.398 . S
C959 C965 1.491 . S
C960 H951 0.950 . S
C960 C959 1.398 . S
C960 C961 1.391 . S
C961 H949 0.950 . S
C961 C957 1.393 . S
C961 C960 1.391 . S
C962 H952 0.950 . S
C962 C963 1.386 . S
C962 C964 1.391 . S
C963 C962 1.386 . S
C963 C967 1.393 . S
C964 H953 0.950 . S
C964 C962 1.391 . S
C964 C965 1.400 . S
C965 C959 1.491 . S
C965 C964 1.400 . S
C965 C966 1.398 . S
C966 H954 0.950 . S
C966 C965 1.398 . S
C966 C967 1.391 . S
C967 H955 0.950 . S
C967 C963 1.393 . S
C967 C966 1.391 . S
H968 C976 0.950 . S
H969 C981 0.950 . S
H970 C978 0.950 . S
H971 C980 0.950 . S
H972 C982 0.950 . S
H973 C984 0.950 . S
H974 C986 0.950 . S
H975 C987 0.950 . S
C976 H968 0.950 . S
C976 C977 1.386 . S
C976 C978 1.391 . S
C977 C976 1.386 . S
C977 C981 1.393 . S
C978 H970 0.950 . S
C978 C976 1.391 . S
C978 C979 1.400 . S
C979 C978 1.400 . S
C979 C980 1.398 . S
C979 C985 1.491 . S
C980 H971 0.950 . S
C980 C979 1.398 . S
C980 C981 1.391 . S
C981 H969 0.950 . S
C981 C977 1.393 . S
C981 C980 1.391 . S
C982 H972 0.950 . S
C982 C983 1.386 . S
C982 C984 1.391 . S
C983 C982 1.386 . S
C983 C987 1.393 . S
C984 H973 0.950 . S
C984 C982 1.391 . S
C984 C985 1.400 . S
C985 C979 1.491 . S
C985 C984 1.400 . S
C985 C986 1.398 . S
C986 H974 0.950 . S
C986 C985 1.398 . S
C986 C987 1.391 . S
C987 H975 0.950 . S
C987 C983 1.393 . S
C987 C986 1.391 . S
H988 C996 0.950 . S
H989 C1001 0.950 . S
H990 C998 0.950 . S
H991 C1000 0.950 . S
H992 C1002 0.950 . S
H993 C1004 0.950 . S
H994 C1006 0.950 . S
H995 C1007 0.950 . S
C996 H988 0.950 . S
C996 C997 1.386 . S
C996 C998 1.391 . S
C997 C996 1.386 . S
C997 C1001 1.393 . S
C998 H990 0.950 . S
C998 C996 1.391 . S
C998 C999 1.400 . S
C999 C998 1.400 . S
C999 C1000 1.398 . S
C999 C1005 1.491 . S
C1000 H991 0.950 . S
C1000 C999 1.398 . S
C1000 C1001 1.391 . S
C1001 H989 0.950 . S
C1001 C997 1.393 . S
C1001 C1000 1.391 . S
C1002 H992 0.950 . S
C1002 C1003 1.386 . S
C1002 C1004 1.391 . S
C1003 C1002 1.386 . S
C1003 C1007 1.393 . S
C1004 H993 0.950 . S
C1004 C1002 1.391 . S
C1004 C1005 1.400 . S
C1005 C999 1.491 . S
C1005 C1004 1.400 . S
C1005 C1006 1.398 . S
C1006 H994 0.950 . S
C1006 C1005 1.398 . S
C1006 C1007 1.391 . S
C1007 H995 0.950 . S
C1007 C1003 1.393 . S
C1007 C1006 1.391 . S
H1008 C1016 0.950 . S
H1009 C1021 0.950 . S
H1010 C1018 0.950 . S
H1011 C1020 0.950 . S
H1012 C1022 0.950 . S
H1013 C1024 0.950 . S
H1014 C1026 0.950 . S
H1015 C1027 0.950 . S
C1016 H1008 0.950 . S
C1016 C1017 1.386 . S
C1016 C1018 1.391 . S
C1017 C1016 1.386 . S
C1017 C1021 1.393 . S
C1018 H1010 0.950 . S
C1018 C1016 1.391 . S
C1018 C1019 1.400 . S
C1019 C1018 1.400 . S
C1019 C1020 1.398 . S
C1019 C1025 1.491 . S
C1020 H1011 0.950 . S
C1020 C1019 1.398 . S
C1020 C1021 1.391 . S
C1021 H1009 0.950 . S
C1021 C1017 1.393 . S
C1021 C1020 1.391 . S
C1022 H1012 0.950 . S
C1022 C1023 1.386 . S
C1022 C1024 1.391 . S
C1023 C1022 1.386 . S
C1023 C1027 1.393 . S
C1024 H1013 0.950 . S
C1024 C1022 1.391 . S
C1024 C1025 1.400 . S
C1025 C1019 1.491 . S
C1025 C1024 1.400 . S
C1025 C1026 1.398 . S
C1026 H1014 0.950 . S
C1026 C1025 1.398 . S
C1026 C1027 1.391 . S
C1027 H1015 0.950 . S
C1027 C1023 1.393 . S
C1027 C1026 1.391 . S
H1028 C1036 0.950 . S
H1029 C1041 0.950 . S
H1030 C1038 0.950 . S
H1031 C1040 0.950 . S
H1032 C1042 0.950 . S
H1033 C1044 0.950 . S
H1034 C1046 0.950 . S
H1035 C1047 0.950 . S
C1036 H1028 0.950 . S
C1036 C1037 1.386 . S
C1036 C1038 1.391 . S
C1037 C1036 1.386 . S
C1037 C1041 1.393 . S
C1038 H1030 0.950 . S
C1038 C1036 1.391 . S
C1038 C1039 1.400 . S
C1039 C1038 1.400 . S
C1039 C1040 1.398 . S
C1039 C1045 1.491 . S
C1040 H1031 0.950 . S
C1040 C1039 1.398 . S
C1040 C1041 1.391 . S
C1041 H1029 0.950 . S
C1041 C1037 1.393 . S
C1041 C1040 1.391 . S
C1042 H1032 0.950 . S
C1042 C1043 1.386 . S
C1042 C1044 1.391 . S
C1043 C1042 1.386 . S
C1043 C1047 1.393 . S
C1044 H1033 0.950 . S
C1044 C1042 1.391 . S
C1044 C1045 1.400 . S
C1045 C1039 1.491 . S
C1045 C1044 1.400 . S
C1045 C1046 1.398 . S
C1046 H1034 0.950 . S
C1046 C1045 1.398 . S
C1046 C1047 1.391 . S
C1047 H1035 0.950 . S
C1047 C1043 1.393 . S
C1047 C1046 1.391 . S
H1048 C1056 0.950 . S
H1049 C1061 0.950 . S
H1050 C1058 0.950 . S
H1051 C1060 0.950 . S
H1052 C1062 0.950 . S
H1053 C1064 0.950 . S
H1054 C1066 0.950 . S
H1055 C1067 0.950 . S
C1056 H1048 0.950 . S
C1056 C1057 1.386 . S
C1056 C1058 1.391 . S
C1057 C1056 1.386 . S
C1057 C1061 1.393 . S
C1058 H1050 0.950 . S
C1058 C1056 1.391 . S
C1058 C1059 1.400 . S
C1059 C1058 1.400 . S
C1059 C1060 1.398 . S
C1059 C1065 1.491 . S
C1060 H1051 0.950 . S
C1060 C1059 1.398 . S
C1060 C1061 1.391 . S
C1061 H1049 0.950 . S
C1061 C1057 1.393 . S
C1061 C1060 1.391 . S
C1062 H1052 0.950 . S
C1062 C1063 1.386 . S
C1062 C1064 1.391 . S
C1063 C1062 1.386 . S
C1063 C1067 1.393 . S
C1064 H1053 0.950 . S
C1064 C1062 1.391 . S
C1064 C1065 1.400 . S
C1065 C1059 1.491 . S
C1065 C1064 1.400 . S
C1065 C1066 1.398 . S
C1066 H1054 0.950 . S
C1066 C1065 1.398 . S
C1066 C1067 1.391 . S
C1067 H1055 0.950 . S
C1067 C1063 1.393 . S
C1067 C1066 1.391 . S
H1068 C1076 0.950 . S
H1069 C1081 0.950 . S
H1070 C1078 0.950 . S
H1071 C1080 0.950 . S
H1072 C1082 0.950 . S
H1073 C1084 0.950 . S
H1074 C1086 0.950 . S
H1075 C1087 0.950 . S
C1076 H1068 0.950 . S
C1076 C1077 1.386 . S
C1076 C1078 1.391 . S
C1077 C1076 1.386 . S
C1077 C1081 1.393 . S
C1078 H1070 0.950 . S
C1078 C1076 1.391 . S
C1078 C1079 1.400 . S
C1079 C1078 1.400 . S
C1079 C1080 1.398 . S
C1079 C1085 1.491 . S
C1080 H1071 0.950 . S
C1080 C1079 1.398 . S
C1080 C1081 1.391 . S
C1081 H1069 0.950 . S
C1081 C1077 1.393 . S
C1081 C1080 1.391 . S
C1082 H1072 0.950 . S
C1082 C1083 1.386 . S
C1082 C1084 1.391 . S
C1083 C1082 1.386 . S
C1083 C1087 1.393 . S
C1084 H1073 0.950 . S
C1084 C1082 1.391 . S
C1084 C1085 1.400 . S
C1085 C1079 1.491 . S
C1085 C1084 1.400 . S
C1085 C1086 1.398 . S
C1086 H1074 0.950 . S
C1086 C1085 1.398 . S
C1086 C1087 1.391 . S
C1087 H1075 0.950 . S
C1087 C1083 1.393 . S
C1087 C1086 1.391 . S
H1088 C1096 0.950 . S
H1089 C1101 0.950 . S
H1090 C1098 0.950 . S
H1091 C1100 0.950 . S
H1092 C1102 0.950 . S
H1093 C1104 0.950 . S
H1094 C1106 0.950 . S
H1095 C1107 0.950 . S
C1096 H1088 0.950 . S
C1096 C1097 1.386 . S
C1096 C1098 1.391 . S
C1097 C1096 1.386 . S
C1097 C1101 1.393 . S
C1098 H1090 0.950 . S
C1098 C1096 1.391 . S
C1098 C1099 1.400 . S
C1099 C1098 1.400 . S
C1099 C1100 1.398 . S
C1099 C1105 1.491 . S
C1100 H1091 0.950 . S
C1100 C1099 1.398 . S
C1100 C1101 1.391 . S
C1101 H1089 0.950 . S
C1101 C1097 1.393 . S
C1101 C1100 1.391 . S
C1102 H1092 0.950 . S
C1102 C1103 1.386 . S
C1102 C1104 1.391 . S
C1103 C1102 1.386 . S
C1103 C1107 1.393 . S
C1104 H1093 0.950 . S
C1104 C1102 1.391 . S
C1104 C1105 1.400 . S
C1105 C1099 1.491 . S
C1105 C1104 1.400 . S
C1105 C1106 1.398 . S
C1106 H1094 0.950 . S
C1106 C1105 1.398 . S
C1106 C1107 1.391 . S
C1107 H1095 0.950 . S
C1107 C1103 1.393 . S
C1107 C1106 1.391 . S
H1108 C1116 0.950 . S
H1109 C1121 0.950 . S
H1110 C1118 0.950 . S
H1111 C1120 0.950 . S
H1112 C1122 0.950 . S
H1113 C1124 0.950 . S
H1114 C1126 0.950 . S
H1115 C1127 0.950 . S
C1116 H1108 0.950 . S
C1116 C1117 1.386 . S
C1116 C1118 1.391 . S
C1117 C1116 1.386 . S
C1117 C1121 1.393 . S
C1118 H1110 0.950 . S
C1118 C1116 1.391 . S
C1118 C1119 1.400 . S
C1119 C1118 1.400 . S
C1119 C1120 1.398 . S
C1119 C1125 1.491 . S
C1120 H1111 0.950 . S
C1120 C1119 1.398 . S
C1120 C1121 1.391 . S
C1121 H1109 0.950 . S
C1121 C1117 1.393 . S
C1121 C1120 1.391 . S
C1122 H1112 0.950 . S
C1122 C1123 1.386 . S
C1122 C1124 1.391 . S
C1123 C1122 1.386 . S
C1123 C1127 1.393 . S
C1124 H1113 0.950 . S
C1124 C1122 1.391 . S
C1124 C1125 1.400 . S
C1125 C1119 1.491 . S
C1125 C1124 1.400 . S
C1125 C1126 1.398 . S
C1126 H1114 0.950 . S
C1126 C1125 1.398 . S
C1126 C1127 1.391 . S
C1127 H1115 0.950 . S
C1127 C1123 1.393 . S
C1127 C1126 1.391 . S
H1128 C1136 0.950 . S
H1129 C1141 0.950 . S
H1130 C1138 0.950 . S
H1131 C1140 0.950 . S
H1132 C1142 0.950 . S
H1133 C1144 0.950 . S
H1134 C1146 0.950 . S
H1135 C1147 0.950 . S
C1136 H1128 0.950 . S
C1136 C1137 1.386 . S
C1136 C1138 1.391 . S
C1137 C1136 1.386 . S
C1137 C1141 1.393 . S
C1138 H1130 0.950 . S
C1138 C1136 1.391 . S
C1138 C1139 1.400 . S
C1139 C1138 1.400 . S
C1139 C1140 1.398 . S
C1139 C1145 1.491 . S
C1140 H1131 0.950 . S
C1140 C1139 1.398 . S
C1140 C1141 1.391 . S
C1141 H1129 0.950 . S
C1141 C1137 1.393 . S
C1141 C1140 1.391 . S
C1142 H1132 0.950 . S
C1142 C1143 1.386 . S
C1142 C1144 1.391 . S
C1143 C1142 1.386 . S
C1143 C1147 1.393 . S
C1144 H1133 0.950 . S
C1144 C1142 1.391 . S
C1144 C1145 1.400 . S
C1145 C1139 1.491 . S
C1145 C1144 1.400 . S
C1145 C1146 1.398 . S
C1146 H1134 0.950 . S
C1146 C1145 1.398 . S
C1146 C1147 1.391 . S
C1147 H1135 0.950 . S
C1147 C1143 1.393 . S
C1147 C1146 1.391 . S
H1148 C1156 0.950 . S
H1149 C1161 0.950 . S
H1150 C1158 0.950 . S
H1151 C1160 0.950 . S
H1152 C1162 0.950 . S
H1153 C1164 0.950 . S
H1154 C1166 0.950 . S
H1155 C1167 0.950 . S
C1156 H1148 0.950 . S
C1156 C1157 1.386 . S
C1156 C1158 1.391 . S
C1157 C1156 1.386 . S
C1157 C1161 1.393 . S
C1158 H1150 0.950 . S
C1158 C1156 1.391 . S
C1158 C1159 1.400 . S
C1159 C1158 1.400 . S
C1159 C1160 1.398 . S
C1159 C1165 1.491 . S
C1160 H1151 0.950 . S
C1160 C1159 1.398 . S
C1160 C1161 1.391 . S
C1161 H1149 0.950 . S
C1161 C1157 1.393 . S
C1161 C1160 1.391 . S
C1162 H1152 0.950 . S
C1162 C1163 1.386 . S
C1162 C1164 1.391 . S
C1163 C1162 1.386 . S
C1163 C1167 1.393 . S
C1164 H1153 0.950 . S
C1164 C1162 1.391 . S
C1164 C1165 1.400 . S
C1165 C1159 1.491 . S
C1165 C1164 1.400 . S
C1165 C1166 1.398 . S
C1166 H1154 0.950 . S
C1166 C1165 1.398 . S
C1166 C1167 1.391 . S
C1167 H1155 0.950 . S
C1167 C1163 1.393 . S
C1167 C1166 1.391 . S
H1168 C1176 0.950 . S
H1169 C1181 0.950 . S
H1170 C1178 0.950 . S
H1171 C1180 0.950 . S
H1172 C1182 0.950 . S
H1173 C1184 0.950 . S
H1174 C1186 0.950 . S
H1175 C1187 0.950 . S
C1176 H1168 0.950 . S
C1176 C1177 1.386 . S
C1176 C1178 1.391 . S
C1177 C1176 1.386 . S
C1177 C1181 1.393 1_455 S
C1178 H1170 0.950 . S
C1178 C1176 1.391 . S
C1178 C1179 1.400 . S
C1179 C1178 1.400 . S
C1179 C1180 1.398 1_455 S
C1179 C1185 1.491 1_455 S
C1180 H1171 0.950 . S
C1180 C1179 1.398 1_655 S
C1180 C1181 1.391 . S
C1181 H1169 0.950 . S
C1181 C1177 1.393 1_655 S
C1181 C1180 1.391 . S
C1182 H1172 0.950 . S
C1182 C1183 1.386 . S
C1182 C1184 1.391 . S
C1183 C1182 1.386 . S
C1183 C1187 1.393 1_655 S
C1184 H1173 0.950 . S
C1184 C1182 1.391 . S
C1184 C1185 1.400 . S
C1185 C1179 1.491 1_655 S
C1185 C1184 1.400 . S
C1185 C1186 1.398 1_655 S
C1186 H1174 0.950 . S
C1186 C1185 1.398 1_455 S
C1186 C1187 1.391 . S
C1187 H1175 0.950 . S
C1187 C1183 1.393 1_455 S
C1187 C1186 1.391 . S
H1188 C1196 0.950 . S
H1189 C1201 0.950 . S
H1190 C1198 0.950 . S
H1191 C1200 0.950 . S
H1192 C1202 0.950 . S
H1193 C1204 0.950 . S
H1194 C1206 0.950 . S
H1195 C1207 0.950 . S
C1196 H1188 0.950 . S
C1196 C1197 1.386 1_545 S
C1196 C1198 1.391 . S
C1197 C1196 1.386 1_565 S
C1197 C1201 1.393 . S
C1198 H1190 0.950 . S
C1198 C1196 1.391 . S
C1198 C1199 1.400 1_545 S
C1199 C1198 1.400 1_565 S
C1199 C1200 1.398 . S
C1199 C1205 1.491 1_565 S
C1200 H1191 0.950 . S
C1200 C1199 1.398 . S
C1200 C1201 1.391 . S
C1201 H1189 0.950 . S
C1201 C1197 1.393 . S
C1201 C1200 1.391 . S
C1202 H1192 0.950 . S
C1202 C1203 1.386 1_565 S
C1202 C1204 1.391 . S
C1203 C1202 1.386 1_545 S
C1203 C1207 1.393 . S
C1204 H1193 0.950 . S
C1204 C1202 1.391 . S
C1204 C1205 1.400 1_565 S
C1205 C1199 1.491 1_545 S
C1205 C1204 1.400 1_545 S
C1205 C1206 1.398 . S
C1206 H1194 0.950 . S
C1206 C1205 1.398 . S
C1206 C1207 1.391 . S
C1207 H1195 0.950 . S
C1207 C1203 1.393 . S
C1207 C1206 1.391 . S
H1208 C1216 0.950 . S
H1209 C1221 0.950 . S
H1210 C1218 0.950 . S
H1211 C1220 0.950 . S
H1212 C1222 0.950 . S
H1213 C1224 0.950 . S
H1214 C1226 0.950 . S
H1215 C1227 0.950 . S
C1216 H1208 0.950 . S
C1216 C1217 1.386 . S
C1216 C1218 1.391 . S
C1217 C1216 1.386 . S
C1217 C1221 1.393 1_455 S
C1218 H1210 0.950 . S
C1218 C1216 1.391 . S
C1218 C1219 1.400 . S
C1219 C1218 1.400 . S
C1219 C1220 1.398 1_455 S
C1219 C1225 1.491 1_455 S
C1220 H1211 0.950 . S
C1220 C1219 1.398 1_655 S
C1220 C1221 1.391 . S
C1221 H1209 0.950 . S
C1221 C1217 1.393 1_655 S
C1221 C1220 1.391 . S
C1222 H1212 0.950 . S
C1222 C1223 1.386 . S
C1222 C1224 1.391 . S
C1223 C1222 1.386 . S
C1223 C1227 1.393 1_655 S
C1224 H1213 0.950 . S
C1224 C1222 1.391 . S
C1224 C1225 1.400 . S
C1225 C1219 1.491 1_655 S
C1225 C1224 1.400 . S
C1225 C1226 1.398 1_655 S
C1226 H1214 0.950 . S
C1226 C1225 1.398 1_455 S
C1226 C1227 1.391 . S
C1227 H1215 0.950 . S
C1227 C1223 1.393 1_455 S
C1227 C1226 1.391 . S
H1228 C1236 0.950 . S
H1229 C1241 0.950 . S
H1230 C1238 0.950 . S
H1231 C1240 0.950 . S
H1232 C1242 0.950 . S
H1233 C1244 0.950 . S
H1234 C1246 0.950 . S
H1235 C1247 0.950 . S
C1236 H1228 0.950 . S
C1236 C1237 1.386 . S
C1236 C1238 1.391 . S
C1237 C1236 1.386 . S
C1237 C1241 1.393 1_545 S
C1238 H1230 0.950 . S
C1238 C1236 1.391 . S
C1238 C1239 1.400 . S
C1239 C1238 1.400 . S
C1239 C1240 1.398 1_545 S
C1239 C1245 1.491 1_545 S
C1240 H1231 0.950 . S
C1240 C1239 1.398 1_565 S
C1240 C1241 1.391 . S
C1241 H1229 0.950 . S
C1241 C1237 1.393 1_565 S
C1241 C1240 1.391 . S
C1242 H1232 0.950 . S
C1242 C1243 1.386 . S
C1242 C1244 1.391 . S
C1243 C1242 1.386 . S
C1243 C1247 1.393 1_565 S
C1244 H1233 0.950 . S
C1244 C1242 1.391 . S
C1244 C1245 1.400 . S
C1245 C1239 1.491 1_565 S
C1245 C1244 1.400 . S
C1245 C1246 1.398 1_565 S
C1246 H1234 0.950 . S
C1246 C1245 1.398 1_545 S
C1246 C1247 1.391 . S
C1247 H1235 0.950 . S
C1247 C1243 1.393 1_545 S
C1247 C1246 1.391 . S
H1248 C1256 0.950 . S
H1249 C1261 0.950 . S
H1250 C1258 0.950 . S
H1251 C1260 0.950 . S
H1252 C1262 0.950 . S
H1253 C1264 0.950 . S
H1254 C1266 0.950 . S
H1255 C1267 0.950 . S
C1256 H1248 0.950 . S
C1256 C1257 1.386 . S
C1256 C1258 1.391 . S
C1257 C1256 1.386 . S
C1257 C1261 1.393 . S
C1258 H1250 0.950 . S
C1258 C1256 1.391 . S
C1258 C1259 1.400 . S
C1259 C1258 1.400 . S
C1259 C1260 1.398 . S
C1259 C1265 1.491 1_556 S
C1260 H1251 0.950 . S
C1260 C1259 1.398 . S
C1260 C1261 1.391 . S
C1261 H1249 0.950 . S
C1261 C1257 1.393 . S
C1261 C1260 1.391 . S
C1262 H1252 0.950 . S
C1262 C1263 1.386 . S
C1262 C1264 1.391 . S
C1263 C1262 1.386 . S
C1263 C1267 1.393 . S
C1264 H1253 0.950 . S
C1264 C1262 1.391 . S
C1264 C1265 1.400 . S
C1265 C1259 1.491 1_554 S
C1265 C1264 1.400 . S
C1265 C1266 1.398 . S
C1266 H1254 0.950 . S
C1266 C1265 1.398 . S
C1266 C1267 1.391 . S
C1267 H1255 0.950 . S
C1267 C1263 1.393 . S
C1267 C1266 1.391 . S
H1268 C1276 0.950 . S
H1269 C1281 0.950 . S
H1270 C1278 0.950 . S
H1271 C1280 0.950 . S
H1272 C1282 0.950 . S
H1273 C1284 0.950 . S
H1274 C1286 0.950 . S
H1275 C1287 0.950 . S
C1276 H1268 0.950 . S
C1276 C1277 1.386 . S
C1276 C1278 1.391 . S
C1277 C1276 1.386 . S
C1277 C1281 1.393 . S
C1278 H1270 0.950 . S
C1278 C1276 1.391 . S
C1278 C1279 1.400 . S
C1279 C1278 1.400 . S
C1279 C1280 1.398 . S
C1279 C1285 1.491 1_554 S
C1280 H1271 0.950 . S
C1280 C1279 1.398 . S
C1280 C1281 1.391 . S
C1281 H1269 0.950 . S
C1281 C1277 1.393 . S
C1281 C1280 1.391 . S
C1282 H1272 0.950 . S
C1282 C1283 1.386 . S
C1282 C1284 1.391 . S
C1283 C1282 1.386 . S
C1283 C1287 1.393 . S
C1284 H1273 0.950 . S
C1284 C1282 1.391 . S
C1284 C1285 1.400 . S
C1285 C1279 1.491 1_556 S
C1285 C1284 1.400 . S
C1285 C1286 1.398 . S
C1286 H1274 0.950 . S
C1286 C1285 1.398 . S
C1286 C1287 1.391 . S
C1287 H1275 0.950 . S
C1287 C1283 1.393 . S
C1287 C1286 1.391 . S
H1288 C1296 0.950 . S
H1289 C1301 0.950 . S
H1290 C1298 0.950 . S
H1291 C1300 0.950 . S
H1292 C1302 0.950 . S
H1293 C1304 0.950 . S
H1294 C1306 0.950 . S
H1295 C1307 0.950 . S
C1296 H1288 0.950 . S
C1296 C1297 1.386 . S
C1296 C1298 1.391 . S
C1297 C1296 1.386 . S
C1297 C1301 1.393 . S
C1298 H1290 0.950 . S
C1298 C1296 1.391 . S
C1298 C1299 1.400 . S
C1299 C1298 1.400 . S
C1299 C1300 1.398 . S
C1299 C1305 1.491 1_554 S
C1300 H1291 0.950 . S
C1300 C1299 1.398 . S
C1300 C1301 1.391 . S
C1301 H1289 0.950 . S
C1301 C1297 1.393 . S
C1301 C1300 1.391 . S
C1302 H1292 0.950 . S
C1302 C1303 1.386 . S
C1302 C1304 1.391 . S
C1303 C1302 1.386 . S
C1303 C1307 1.393 . S
C1304 H1293 0.950 . S
C1304 C1302 1.391 . S
C1304 C1305 1.400 . S
C1305 C1299 1.491 1_556 S
C1305 C1304 1.400 . S
C1305 C1306 1.398 . S
C1306 H1294 0.950 . S
C1306 C1305 1.398 . S
C1306 C1307 1.391 . S
C1307 H1295 0.950 . S
C1307 C1303 1.393 . S
C1307 C1306 1.391 . S
H1308 C1316 0.950 . S
H1309 C1321 0.950 . S
H1310 C1318 0.950 . S
H1311 C1320 0.950 . S
H1312 C1322 0.950 . S
H1313 C1324 0.950 . S
H1314 C1326 0.950 . S
H1315 C1327 0.950 . S
C1316 H1308 0.950 . S
C1316 C1317 1.386 . S
C1316 C1318 1.391 . S
C1317 C1316 1.386 . S
C1317 C1321 1.393 . S
C1318 H1310 0.950 . S
C1318 C1316 1.391 . S
C1318 C1319 1.400 . S
C1319 C1318 1.400 . S
C1319 C1320 1.398 . S
C1319 C1325 1.491 1_556 S
C1320 H1311 0.950 . S
C1320 C1319 1.398 . S
C1320 C1321 1.391 . S
C1321 H1309 0.950 . S
C1321 C1317 1.393 . S
C1321 C1320 1.391 . S
C1322 H1312 0.950 . S
C1322 C1323 1.386 . S
C1322 C1324 1.391 . S
C1323 C1322 1.386 . S
C1323 C1327 1.393 . S
C1324 H1313 0.950 . S
C1324 C1322 1.391 . S
C1324 C1325 1.400 . S
C1325 C1319 1.491 1_554 S
C1325 C1324 1.400 . S
C1325 C1326 1.398 . S
C1326 H1314 0.950 . S
C1326 C1325 1.398 . S
C1326 C1327 1.391 . S
C1327 H1315 0.950 . S
C1327 C1323 1.393 . S
C1327 C1326 1.391 . S
C537 C94 0.865 . S
C543 C28 0.862 . S
C557 C61 0.833 . S
C563 C127 0.830 . S
C577 C226 0.865 . S
C583 C160 0.867 . S
C597 C259 0.865 . S
C603 C193 0.867 . S
C617 C292 0.831 . S
C623 C358 0.827 . S
C637 C391 0.826 . S
C643 C325 0.823 . S
C657 C490 0.828 . S
C663 C424 0.832 . S
C677 C457 0.866 . S
C683 C523 0.863 . S
C697 N5 1.731 . S
C703 N500 1.734 . S
C717 N401 1.733 . S
C723 N38 1.732 . S
C737 N434 1.735 . S
C743 N71 1.731 . S
C757 N467 1.733 . S
C763 N104 1.732 . S
C777 N302 1.731 . S
C783 N137 1.735 . S
C797 N335 1.730 . S
C803 N170 1.735 . S
C817 N368 1.731 . S
C823 N203 1.734 . S
C837 N269 1.735 . S
C843 N236 1.730 . S
C857 C17 1.444 . S
C863 C107 1.486 . S
C877 C8 1.480 . S
C883 C50 1.444 . S
C897 C83 1.451 . S
C903 C41 1.481 . S
C917 C74 1.480 . S
C923 C116 1.447 . S
C937 C173 1.483 . S
C943 C149 1.454 . S
C957 C182 1.440 . S
C963 C206 1.480 . S
C977 C239 1.480 . S
C983 C215 1.446 . S
C997 C140 1.483 . S
C1003 C248 1.454 . S
C1017 C281 1.446 . S
C1023 C371 1.480 . S
C1037 C272 1.483 . S
C1043 C314 1.430 . S
C1057 C347 1.435 . S
C1063 C305 1.481 . S
C1077 C380 1.446 . S
C1083 C338 1.480 . S
C1097 C413 1.444 . S
C1103 C437 1.480 . S
C1117 C470 1.483 . S
C1123 C446 1.453 . S
C1137 C503 1.485 . S
C1143 C479 1.451 . S
C1157 C512 1.435 . S
C1163 C404 1.486 . S
C1177 N14 1.535 . S
C1183 N212 1.548 . S
C1197 N245 1.543 . S
C1203 N47 1.533 . S
C1217 N146 1.533 . S
C1223 N80 1.542 . S
C1237 N179 1.541 . S
C1243 N113 1.556 . S
C1257 N278 1.550 . S
C1263 N476 1.561 . S
C1277 N509 1.534 . S
C1283 N311 1.547 . S
C1297 N410 1.534 . S
C1303 N344 1.546 . S
C1317 N377 1.535 . S
C1323 N443 1.549 . S
