# Generated by pormake.
# Topology ukg, (4)-cn, num edge types: 1
# Building blocks:
#     Node 0, Type 0, BuildingBlock: NAWXER_clean_sbu_0, # of connection points: 4
#     Node 1, Type 0, BuildingBlock: NAWXER_clean_sbu_0, # of connection points: 4
#     Node 2, Type 0, BuildingBlock: NAWXER_clean_sbu_0, # of connection points: 4
#     Node 3, Type 0, BuildingBlock: NAWXER_clean_sbu_0, # of connection points: 4
#     Node 4, Type 0, BuildingBlock: NAWXER_clean_sbu_0, # of connection points: 4
#     Node 5, Type 0, BuildingBlock: NAWXER_clean_sbu_0, # of connection points: 4
#     Node 6, Type 0, BuildingBlock: NAWXER_clean_sbu_0, # of connection points: 4
#     Node 7, Type 0, BuildingBlock: NAWXER_clean_sbu_0, # of connection points: 4
#     Edge 8, Type (0, 0), BuildingBlock: EZIPEK_clean_linker_0, # of connection points: 2
#     Edge 9, Type (0, 0), BuildingBlock: EZIPEK_clean_linker_0, # of connection points: 2
#     Edge 10, Type (0, 0), BuildingBlock: EZIPEK_clean_linker_0, # of connection points: 2
#     Edge 11, Type (0, 0), BuildingBlock: EZIPEK_clean_linker_0, # of connection points: 2
#     Edge 12, Type (0, 0), BuildingBlock: EZIPEK_clean_linker_0, # of connection points: 2
#     Edge 13, Type (0, 0), BuildingBlock: EZIPEK_clean_linker_0, # of connection points: 2
#     Edge 14, Type (0, 0), BuildingBlock: EZIPEK_clean_linker_0, # of connection points: 2
#     Edge 15, Type (0, 0), BuildingBlock: EZIPEK_clean_linker_0, # of connection points: 2
#     Edge 16, Type (0, 0), BuildingBlock: EZIPEK_clean_linker_0, # of connection points: 2
#     Edge 17, Type (0, 0), BuildingBlock: EZIPEK_clean_linker_0, # of connection points: 2
#     Edge 18, Type (0, 0), BuildingBlock: EZIPEK_clean_linker_0, # of connection points: 2
#     Edge 19, Type (0, 0), BuildingBlock: EZIPEK_clean_linker_0, # of connection points: 2
#     Edge 20, Type (0, 0), BuildingBlock: EZIPEK_clean_linker_0, # of connection points: 2
#     Edge 21, Type (0, 0), BuildingBlock: EZIPEK_clean_linker_0, # of connection points: 2
#     Edge 22, Type (0, 0), BuildingBlock: EZIPEK_clean_linker_0, # of connection points: 2
#     Edge 23, Type (0, 0), BuildingBlock: EZIPEK_clean_linker_0, # of connection points: 2
# Relax obj value: 0.100
# Max RMSD: 0.242
# Mean RMSD: 0.242
data_MOF--net-ukg--node1-NAWXER_clean_sbu_0--edge1-EZIPEK_clean_linker_0
_symmetry_space_group_name_H-M    P1
_symmetry_Int_Tables_number       1
_symmetry_cell_setting            triclinic
loop_
_symmetry_equiv_pos_as_xyz
'x, y, z'
_cell_length_a     22.57943
_cell_length_b     22.552868
_cell_length_c     27.912322
_cell_angle_alpha  89.893135
_cell_angle_beta   89.818554
_cell_angle_gamma 90.116893
loop_
_atom_site_label
_atom_site_type_symbol
_atom_site_fract_x
_atom_site_fract_y
_atom_site_fract_z
_atom_type_partial_charge
C0 C 0.13942 0.69585 0.14546 0.0
C1 C 0.95876 0.6088 0.21157 0.0
O2 O 0.13497 0.65657 0.17797 0.0
Zn3 Zn 0.05054 0.64597 0.17543 0.0
O4 O 0.09344 0.71126 0.12157 0.0
Zn5 Zn 0.99997 0.68949 0.12252 0.0
O6 O 0.96415 0.76588 0.13523 0.0
O7 O 0.02094 0.73348 0.19355 0.0
O8 O 0.94932 0.63773 0.17283 0.0
O9 O 0.01164 0.60129 0.22586 0.0
O10 O 0.03523 0.59381 0.11226 0.0
O11 O 0.9852 0.65056 0.06214 0.0
C12 C 0.98691 0.7735 0.17645 0.0
C13 C 0.00962 0.60133 0.07177 0.0
C14 C 0.30583 0.63857 0.64338 0.0
C15 C 0.39337 0.46188 0.71471 0.0
O16 O 0.34027 0.63416 0.67907 0.0
Zn17 Zn 0.35443 0.55017 0.67694 0.0
O18 O 0.29431 0.5922 0.61865 0.0
Zn19 Zn 0.31336 0.49895 0.62363 0.0
O20 O 0.23519 0.46618 0.63291 0.0
O21 O 0.2685 0.51511 0.69581 0.0
O22 O 0.36246 0.44975 0.67746 0.0
O23 O 0.40168 0.51549 0.72697 0.0
O24 O 0.40851 0.53505 0.61411 0.0
O25 O 0.35442 0.48121 0.56471 0.0
C26 C 0.2281 0.48394 0.67576 0.0
C27 C 0.40264 0.50762 0.57417 0.0
C28 C 0.52182 0.73564 0.18321 0.0
C29 C 0.49774 0.90957 0.08075 0.0
O30 O 0.54001 0.74282 0.14041 0.0
Zn31 Zn 0.5074 0.82056 0.13111 0.0
O32 O 0.49033 0.77596 0.20323 0.0
Zn33 Zn 0.45411 0.86152 0.18313 0.0
O34 O 0.37059 0.84497 0.18541 0.0
O35 O 0.41438 0.80011 0.12498 0.0
O36 O 0.46643 0.91355 0.11902 0.0
O37 O 0.52825 0.86322 0.07352 0.0
O38 O 0.55456 0.86911 0.18539 0.0
O39 O 0.48847 0.91316 0.23118 0.0
C40 C 0.36747 0.81049 0.14954 0.0
C41 C 0.54239 0.90278 0.22102 0.0
C42 C 0.10993 0.00463 0.56988 0.0
C43 C 0.27409 0.01842 0.68334 0.0
O44 O 0.16023 0.02863 0.56305 0.0
Zn45 Zn 0.19488 0.00949 0.62425 0.0
O46 O 0.09948 0.97657 0.60902 0.0
Zn47 Zn 0.1465 0.95693 0.67388 0.0
O48 O 0.09973 0.99498 0.72337 0.0
O49 O 0.13958 0.05826 0.67244 0.0
O50 O 0.23234 0.98387 0.69695 0.0
O51 O 0.27092 0.04347 0.64251 0.0
O52 O 0.21395 0.91563 0.62117 0.0
O53 O 0.15519 0.87223 0.67424 0.0
C54 C 0.10814 0.04823 0.70977 0.0
C55 C 0.19609 0.8687 0.643 0.0
C56 C 0.0329 0.4028 0.79352 0.0
C57 C 0.86364 0.31016 0.87162 0.0
O58 O 0.0481 0.37075 0.82949 0.0
Zn59 Zn 0.00372 0.31944 0.88512 0.0
O60 O 0.97847 0.41114 0.78431 0.0
Zn61 Zn 0.94833 0.36153 0.83508 0.0
O62 O 0.96689 0.41369 0.89796 0.0
O63 O 0.02554 0.35946 0.94349 0.0
O64 O 0.86477 0.34621 0.83668 0.0
O65 O 0.91169 0.29833 0.89389 0.0
O66 O 0.03622 0.24181 0.87329 0.0
O67 O 0.98407 0.27712 0.81285 0.0
C68 C 0.99744 0.4073 0.93629 0.0
C69 C 0.01684 0.23646 0.83077 0.0
C70 C 0.76802 0.52055 0.33225 0.0
C71 C 0.59718 0.49785 0.4383 0.0
O72 O 0.72784 0.4873 0.31418 0.0
Zn73 Zn 0.64332 0.45104 0.33606 0.0
O74 O 0.76224 0.53974 0.37482 0.0
Zn75 Zn 0.68491 0.50579 0.38684 0.0
O76 O 0.70565 0.41329 0.39442 0.0
O77 O 0.65907 0.36757 0.3361 0.0
O78 O 0.64483 0.52627 0.44567 0.0
O79 O 0.59098 0.46791 0.39956 0.0
O80 O 0.59369 0.48203 0.28588 0.0
O81 O 0.63348 0.55086 0.33229 0.0
C82 C 0.69446 0.36559 0.37131 0.0
C83 C 0.60159 0.53633 0.29618 0.0
C84 C 0.50989 0.09969 0.93983 0.0
C85 C 0.47793 0.26599 0.83028 0.0
O86 O 0.53987 0.09434 0.90094 0.0
Zn87 Zn 0.55277 0.14515 0.83586 0.0
O88 O 0.48006 0.14655 0.94717 0.0
Zn89 Zn 0.49749 0.1857 0.88717 0.0
O90 O 0.45482 0.1269 0.83722 0.0
O91 O 0.52198 0.09033 0.78893 0.0
O92 O 0.45955 0.26036 0.87314 0.0
O93 O 0.5121 0.22647 0.81234 0.0
O94 O 0.6357 0.16422 0.8351 0.0
O95 O 0.58876 0.21024 0.89346 0.0
C96 C 0.46839 0.09158 0.80299 0.0
C97 C 0.63659 0.19997 0.87019 0.0
C98 C 0.91934 0.01802 0.43138 0.0
C99 C 0.74428 0.98396 0.33221 0.0
O100 O 0.92052 0.04935 0.39309 0.0
Zn101 Zn 0.8664 0.05962 0.33084 0.0
O102 O 0.87489 0.98499 0.43974 0.0
Zn103 Zn 0.82944 1.00209 0.38265 0.0
O104 O 0.87942 0.95975 0.32716 0.0
O105 O 0.91711 0.02906 0.2804 0.0
O106 O 0.75491 0.96212 0.37337 0.0
O107 O 0.78108 0.02076 0.3133 0.0
O108 O 0.84819 0.14221 0.3306 0.0
O109 O 0.80174 0.09351 0.38851 0.0
C110 C 0.91052 0.97451 0.29057 0.0
C111 C 0.81196 0.14179 0.36548 0.0
C112 C 0.03435 0.50829 0.95955 0.0
C113 C 1.00129 0.45656 0.97133 0.0
C114 C 0.97128 0.50121 0.04784 0.0
C115 C 0.00677 0.55164 0.0371 0.0
N116 N 0.07874 0.60047 0.98679 0.0
N117 N 0.94367 0.39999 0.02819 0.0
C118 C 0.03991 0.55461 0.9939 0.0
C119 C 0.97154 0.45183 0.01606 0.0
N120 N 0.06052 0.51304 0.91544 0.0
N121 N 0.93533 0.50169 0.08741 0.0
H122 H 0.93995 0.36413 1.00485 0.0
H123 H 0.92727 0.39086 0.0623 0.0
H124 H 0.93384 0.53698 0.11146 0.0
H125 H 0.90363 0.46937 0.09478 0.0
H126 H 0.07882 0.55213 0.9021 0.0
H127 H 0.06144 0.47837 0.8908 0.0
H128 H 0.10907 0.60232 0.95868 0.0
H129 H 0.08394 0.6351 0.01116 0.0
C130 C 0.5025 0.46936 0.54954 0.0
C131 C 0.45266 0.5056 0.53959 0.0
C132 C 0.49653 0.5348 0.4624 0.0
C133 C 0.54779 0.50101 0.47348 0.0
N134 N 0.60339 0.44151 0.52924 0.0
N135 N 0.40463 0.5789 0.49047 0.0
C136 C 0.55197 0.47006 0.51768 0.0
C137 C 0.45019 0.53981 0.49694 0.0
N138 N 0.50134 0.43233 0.58842 0.0
N139 N 0.49225 0.56212 0.41876 0.0
H140 H 0.36987 0.58349 0.51489 0.0
H141 H 0.40306 0.60989 0.46285 0.0
H142 H 0.52696 0.56331 0.39405 0.0
H143 H 0.4535 0.58114 0.40582 0.0
H144 H 0.53324 0.40019 0.59523 0.0
H145 H 0.46585 0.4305 0.61239 0.0
H146 H 0.61211 0.42405 0.56302 0.0
H147 H 0.63931 0.43831 0.50582 0.0
C148 C 0.51772 0.01667 0.0588 0.0
C149 C 0.49869 0.95888 0.04503 0.0
C150 C 0.48582 0.99377 0.96205 0.0
C151 C 0.50835 0.05036 0.97538 0.0
N152 N 0.55654 0.11227 0.03365 0.0
N153 N 0.46637 0.89122 0.98347 0.0
C154 C 0.5269 0.06096 0.02307 0.0
C155 C 0.48355 0.94711 0.99655 0.0
N156 N 0.52699 0.02966 0.10603 0.0
N157 N 0.46396 0.9853 0.91693 0.0
H158 H 0.45675 0.85773 0.0081 0.0
H159 H 0.46347 0.87704 0.9481 0.0
H160 H 0.46717 0.01684 0.88984 0.0
H161 H 0.43949 0.94835 0.90663 0.0
H162 H 0.5332 0.07259 0.11873 0.0
H163 H 0.52442 0.99851 0.13345 0.0
H164 H 0.57752 0.12 0.0662 0.0
H165 H 0.56533 0.14514 0.00825 0.0
C166 C 0.02727 1.00173 0.45105 0.0
C167 C 0.96968 0.02005 0.46574 0.0
C168 C 0.00742 0.03737 0.54706 0.0
C169 C 0.06219 0.01104 0.53377 0.0
N170 N 0.12081 0.95886 0.47518 0.0
N171 N 0.90405 0.05427 0.52826 0.0
C172 C 0.07135 0.99102 0.48626 0.0
C173 C 0.95946 0.03725 0.51403 0.0
N174 N 0.04055 0.99505 0.40357 0.0
N175 N 1.00219 0.06524 0.59037 0.0
H176 H 0.8692 0.06085 0.50442 0.0
H177 H 0.89184 0.05941 0.56402 0.0
H178 H 0.03678 0.06802 0.61491 0.0
H179 H 0.96565 0.09051 0.60028 0.0
H180 H 0.08344 0.98807 0.39096 0.0
H181 H 0.01037 1.00222 0.37615 0.0
H182 H 0.12651 0.93705 0.44263 0.0
H183 H 0.15366 0.94888 0.50009 0.0
C184 C 0.20175 0.78872 0.14537 0.0
C185 C 0.19687 0.72664 0.13769 0.0
C186 C 0.30486 0.71944 0.12964 0.0
C187 C 0.3097 0.78186 0.13742 0.0
N188 N 0.26155 0.87704 0.13493 0.0
N189 N 0.24112 0.63659 0.10879 0.0
C190 C 0.25764 0.81682 0.13958 0.0
C191 C 0.24768 0.69319 0.12546 0.0
N192 N 0.15403 0.8206 0.16094 0.0
N193 N 0.35407 0.6843 0.12866 0.0
H194 H 0.19978 0.61641 0.10485 0.0
H195 H 0.27579 0.61195 0.09434 0.0
H196 H 0.39721 0.70026 0.12909 0.0
H197 H 0.35215 0.6382 0.13033 0.0
H198 H 0.15709 0.86444 0.17239 0.0
H199 H 0.11232 0.80213 0.16651 0.0
H200 H 0.22464 0.90442 0.1318 0.0
H201 H 0.30166 0.89879 0.12852 0.0
C202 C 0.31451 0.74863 0.63536 0.0
C203 C 0.27859 0.69719 0.63179 0.0
C204 C 0.19156 0.76125 0.62043 0.0
C205 C 0.22575 0.81098 0.63432 0.0
N206 N 0.32001 0.85102 0.65996 0.0
N207 N 0.18033 0.65487 0.62113 0.0
C208 C 0.2875 0.80469 0.64252 0.0
C209 C 0.21649 0.70342 0.62356 0.0
N210 N 0.37461 0.744 0.63084 0.0
N211 N 0.13558 0.76948 0.60315 0.0
H212 H 0.19525 0.61139 0.62052 0.0
H213 H 0.13431 0.65761 0.62254 0.0
H214 H 0.1164 0.81135 0.59984 0.0
H215 H 0.11061 0.7358 0.58757 0.0
H216 H 0.40266 0.78067 0.62882 0.0
H217 H 0.39556 0.70383 0.62337 0.0
H218 H 0.3636 0.84661 0.67156 0.0
H219 H 0.30219 0.89259 0.66711 0.0
C220 C 0.74392 0.19254 0.89004 0.0
C221 C 0.69329 0.2287 0.88407 0.0
C222 C 0.75596 0.31729 0.89085 0.0
C223 C 0.80679 0.28125 0.88524 0.0
N224 N 0.84994 0.18291 0.88219 0.0
N225 N 0.64999 0.3269 0.88218 0.0
C226 C 0.80124 0.21835 0.88663 0.0
C227 C 0.69873 0.29152 0.88644 0.0
N228 N 0.73689 0.13361 0.90023 0.0
N229 N 0.76273 0.37604 0.90158 0.0
H230 H 0.60681 0.31091 0.88237 0.0
H231 H 0.6524 0.37246 0.87633 0.0
H232 H 0.80428 0.39549 0.90641 0.0
H233 H 0.72771 0.40382 0.9107 0.0
H234 H 0.77169 0.10577 0.90972 0.0
H235 H 0.69526 0.11399 0.90434 0.0
H236 H 0.84743 0.13754 0.87562 0.0
H237 H 0.89321 0.19861 0.88268 0.0
C238 C 0.68933 0.25569 0.38095 0.0
C239 C 0.7237 0.30829 0.38365 0.0
C240 C 0.81325 0.24733 0.392 0.0
C241 C 0.78021 0.19691 0.37815 0.0
N242 N 0.68619 0.15268 0.35726 0.0
N243 N 0.82075 0.35393 0.39328 0.0
C244 C 0.71787 0.2006 0.37281 0.0
C245 C 0.78623 0.30422 0.39063 0.0
N246 N 0.62932 0.25847 0.38703 0.0
N247 N 0.87034 0.24055 0.40726 0.0
H248 H 0.80448 0.3968 0.39563 0.0
H249 H 0.86676 0.35292 0.39067 0.0
H250 H 0.89103 0.19925 0.40901 0.0
H251 H 0.89496 0.27455 0.42275 0.0
H252 H 0.60239 0.22103 0.38958 0.0
H253 H 0.60756 0.29803 0.39511 0.0
H254 H 0.6418 0.1551 0.34738 0.0
H255 H 0.70512 0.11142 0.35059 0.0
C256 C 0.85926 0.50262 0.28217 0.0
C257 C 0.81651 0.54261 0.30083 0.0
C258 C 0.86263 0.62491 0.25646 0.0
C259 C 0.90793 0.58566 0.24026 0.0
N260 N 0.94196 0.48566 0.22791 0.0
N261 N 0.77727 0.64168 0.30759 0.0
C262 C 0.90446 0.52406 0.25075 0.0
C263 C 0.81812 0.60364 0.28837 0.0
N264 N 0.85753 0.44436 0.29573 0.0
N265 N 0.86029 0.682 0.23983 0.0
H266 H 0.74011 0.62768 0.32677 0.0
H267 H 0.78115 0.68764 0.3066 0.0
H268 H 0.89227 0.70125 0.218 0.0
H269 H 0.8242 0.70998 0.24459 0.0
H270 H 0.89104 0.41395 0.28884 0.0
H271 H 0.82328 0.42658 0.31626 0.0
H272 H 0.93868 0.43974 0.22989 0.0
H273 H 0.97396 0.49945 0.20326 0.0
C274 C 0.37499 0.37723 0.77089 0.0
C275 C 0.41584 0.41289 0.74494 0.0
C276 C 0.49833 0.3541 0.77648 0.0
C277 C 0.45702 0.31597 0.79993 0.0
N278 N 0.35583 0.28272 0.80907 0.0
N279 N 0.51521 0.43096 0.71688 0.0
C280 C 0.39524 0.32522 0.79435 0.0
C281 C 0.47726 0.40023 0.74609 0.0
N282 N 0.317 0.39404 0.7744 0.0
N283 N 0.55767 0.34745 0.78423 0.0
H284 H 0.50157 0.46595 0.69507 0.0
H285 H 0.55928 0.41917 0.71147 0.0
H286 H 0.57534 0.31288 0.80426 0.0
H287 H 0.58937 0.37828 0.77335 0.0
H288 H 0.28648 0.37323 0.79692 0.0
H289 H 0.30055 0.43229 0.75829 0.0
H290 H 0.31078 0.28415 0.8012 0.0
H291 H 0.36876 0.24274 0.82464 0.0
C292 C 0.64593 0.94361 0.22694 0.0
C293 C 0.59192 0.9278 0.25006 0.0
C294 C 0.63513 0.95928 0.32656 0.0
C295 C 0.69154 0.96473 0.30438 0.0
N296 N 0.75208 0.94436 0.23451 0.0
N297 N 0.54202 0.90675 0.32545 0.0
C298 C 0.69748 0.95194 0.25483 0.0
C299 C 0.58811 0.93194 0.30092 0.0
N300 N 0.64824 0.9525 0.17854 0.0
N301 N 0.62555 0.98154 0.37137 0.0
H302 H 0.50903 0.88163 0.30919 0.0
H303 H 0.54072 0.90462 0.36275 0.0
H304 H 0.65786 0.00452 0.39048 0.0
H305 H 0.5836 0.98303 0.38704 0.0
H306 H 0.68587 0.96891 0.16123 0.0
H307 H 0.61108 0.95066 0.15663 0.0
H308 H 0.75777 0.93007 0.19928 0.0
H309 H 0.79121 0.94469 0.25417 0.0
C310 C 0.99954 0.14779 0.77754 0.0
C311 C 0.03927 0.18868 0.79909 0.0
C312 C 0.12196 0.14526 0.75398 0.0
C313 C 0.08377 0.09887 0.73785 0.0
N314 N 0.98558 0.05676 0.73279 0.0
N315 N 0.13881 0.22631 0.80889 0.0
C316 C 0.02239 0.1003 0.74942 0.0
C317 C 0.10054 0.18721 0.7877 0.0
N318 N 0.93979 0.15543 0.78262 0.0
N319 N 0.17821 0.15127 0.73613 0.0
H320 H 0.12524 0.26279 0.82892 0.0
H321 H 0.18463 0.22108 0.80854 0.0
H322 H 0.19872 0.1214 0.71332 0.0
H323 H 0.20398 0.18911 0.74097 0.0
H324 H 0.9082 0.13147 0.76367 0.0
H325 H 0.92129 0.1892 0.80305 0.0
H326 H 0.94269 0.04999 0.74546 0.0
H327 H 0.99838 0.02579 0.70711 0.0
C328 C 0.11244 0.38376 0.73333 0.0
C329 C 0.07928 0.42512 0.76054 0.0
C330 C 0.13953 0.50643 0.72802 0.0
C331 C 0.1762 0.4642 0.70443 0.0
N332 N 0.20563 0.36188 0.69465 0.0
N333 N 0.06364 0.52502 0.788 0.0
C334 C 0.16479 0.40261 0.70964 0.0
C335 C 0.09324 0.48636 0.75887 0.0
N336 N 0.09292 0.32665 0.72889 0.0
N337 N 0.14807 0.56565 0.72016 0.0
H338 H 0.0281 0.5122 0.80964 0.0
H339 H 0.07648 0.5689 0.79313 0.0
H340 H 0.18279 0.58229 0.69956 0.0
H341 H 0.11865 0.59828 0.73146 0.0
H342 H 0.11218 0.29599 0.70574 0.0
H343 H 0.05366 0.31166 0.74447 0.0
H344 H 0.2025 0.31682 0.70262 0.0
H345 H 0.24594 0.37346 0.67887 0.0
C346 C 0.51835 0.59844 0.26403 0.0
C347 C 0.57926 0.58351 0.2642 0.0
C348 C 0.60236 0.6706 0.21514 0.0
C349 C 0.54099 0.68328 0.21144 0.0
N350 N 0.43942 0.65599 0.2283 0.0
N351 N 0.67708 0.5966 0.23092 0.0
C352 C 0.49857 0.64633 0.23485 0.0
C353 C 0.6206 0.61697 0.23701 0.0
N354 N 0.47979 0.56806 0.29292 0.0
N355 N 0.64356 0.7114 0.20048 0.0
H356 H 0.69155 0.5565 0.24528 0.0
H357 H 0.70754 0.61618 0.20763 0.0
H358 H 0.63243 0.75274 0.1864 0.0
H359 H 0.68871 0.70702 0.20719 0.0
H360 H 0.43634 0.58132 0.29927 0.0
H361 H 0.49233 0.53118 0.31305 0.0
H362 H 0.40655 0.6265 0.23934 0.0
H363 H 0.42292 0.69186 0.2091 0.0
C364 C 0.36114 0.05855 0.7962 0.0
C365 C 0.42021 0.05697 0.77816 0.0
C366 C 0.38365 0.02068 0.70081 0.0
C367 C 0.3244 0.02982 0.71652 0.0
N368 N 0.25625 0.04532 0.78299 0.0
N369 N 0.48523 0.00404 0.72465 0.0
C370 C 0.31296 0.04488 0.76541 0.0
C371 C 0.43111 0.0287 0.73362 0.0
N372 N 0.351 0.07246 0.84317 0.0
N373 N 0.39489 1.00286 0.65489 0.0
H374 H 0.51751 0.9999 0.75102 0.0
H375 H 0.49477 0.97912 0.69423 0.0
H376 H 0.36198 0.98939 0.63118 0.0
H377 H 0.43706 0.00376 0.63966 0.0
H378 H 0.31085 0.08784 0.85658 0.0
H379 H 0.38303 0.06706 0.86954 0.0
H380 H 0.24539 0.04703 0.81918 0.0
H381 H 0.21848 0.04206 0.76216 0.0
C382 C 0.96835 0.82317 0.25678 0.0
C383 C 0.97284 0.827 0.20582 0.0
C384 C 0.93535 0.92886 0.20976 0.0
C385 C 0.93711 0.92684 0.26065 0.0
N386 N 0.97475 0.87689 0.33103 0.0
N387 N 0.98029 0.89227 0.13705 0.0
C388 C 0.96 0.87566 0.2836 0.0
C389 C 0.96244 0.88254 0.1832 0.0
N390 N 0.96833 0.76987 0.28027 0.0
N391 N 0.90518 0.97256 0.18634 0.0
H392 H 0.00489 0.8615 0.11756 0.0
H393 H 0.97745 0.93374 0.12065 0.0
H394 H 0.88103 0.00536 0.2038 0.0
H395 H 0.89862 0.97199 0.14938 0.0
H396 H 0.95837 0.76607 0.31665 0.0
H397 H 0.97118 0.72879 0.26379 0.0
H398 H 0.99726 0.84234 0.34784 0.0
H399 H 0.97073 0.91461 0.35214 0.0
loop_
_geom_bond_atom_site_label_1
_geom_bond_atom_site_label_2
_geom_bond_distance
_geom_bond_site_symmetry_2
_ccdc_geom_bond_type
C0 O2 1.247 . S
C0 O4 1.258 . S
C1 O8 1.247 . S
C1 O9 1.258 . S
O2 C0 1.247 . S
O2 Zn3 2.028 . S
Zn3 O2 2.028 . S
Zn3 O7 2.035 . S
Zn3 O9 2.035 1_455 S
Zn3 O10 2.028 . S
O4 C0 1.258 . S
O4 Zn5 2.035 1_455 S
Zn5 O4 2.035 1_655 S
Zn5 O6 2.028 . S
Zn5 O8 2.028 . S
Zn5 O11 2.035 . S
O6 Zn5 2.028 . S
O6 C12 1.247 . S
O7 Zn3 2.035 . S
O7 C12 1.258 1_455 S
O8 C1 1.247 . S
O8 Zn5 2.028 . S
O9 C1 1.258 . S
O9 Zn3 2.035 1_655 S
O10 Zn3 2.028 . S
O10 C13 1.247 . S
O11 Zn5 2.035 . S
O11 C13 1.258 1_655 S
C12 O6 1.247 . S
C12 O7 1.258 1_655 S
C13 O10 1.247 . S
C13 O11 1.258 1_455 S
C14 O16 1.247 . S
C14 O18 1.258 . S
C15 O22 1.247 . S
C15 O23 1.258 . S
O16 C14 1.247 . S
O16 Zn17 2.028 . S
Zn17 O16 2.028 . S
Zn17 O21 2.035 . S
Zn17 O23 2.035 . S
Zn17 O24 2.028 . S
O18 C14 1.258 . S
O18 Zn19 2.035 . S
Zn19 O18 2.035 . S
Zn19 O20 2.028 . S
Zn19 O22 2.028 . S
Zn19 O25 2.035 . S
O20 Zn19 2.028 . S
O20 C26 1.247 . S
O21 Zn17 2.035 . S
O21 C26 1.258 . S
O22 C15 1.247 . S
O22 Zn19 2.028 . S
O23 C15 1.258 . S
O23 Zn17 2.035 . S
O24 Zn17 2.028 . S
O24 C27 1.247 . S
O25 Zn19 2.035 . S
O25 C27 1.258 . S
C26 O20 1.247 . S
C26 O21 1.258 . S
C27 O24 1.247 . S
C27 O25 1.258 . S
C28 O30 1.247 . S
C28 O32 1.258 . S
C29 O36 1.247 . S
C29 O37 1.258 . S
O30 C28 1.247 . S
O30 Zn31 2.028 . S
Zn31 O30 2.028 . S
Zn31 O35 2.035 . S
Zn31 O37 2.035 . S
Zn31 O38 2.028 . S
O32 C28 1.258 . S
O32 Zn33 2.035 . S
Zn33 O32 2.035 . S
Zn33 O34 2.028 . S
Zn33 O36 2.028 . S
Zn33 O39 2.035 . S
O34 Zn33 2.028 . S
O34 C40 1.247 . S
O35 Zn31 2.035 . S
O35 C40 1.258 . S
O36 C29 1.247 . S
O36 Zn33 2.028 . S
O37 C29 1.258 . S
O37 Zn31 2.035 . S
O38 Zn31 2.028 . S
O38 C41 1.247 . S
O39 Zn33 2.035 . S
O39 C41 1.258 . S
C40 O34 1.247 . S
C40 O35 1.258 . S
C41 O38 1.247 . S
C41 O39 1.258 . S
C42 O44 1.247 1_565 S
C42 O46 1.258 . S
C43 O50 1.247 1_545 S
C43 O51 1.258 . S
O44 C42 1.247 1_545 S
O44 Zn45 2.028 . S
Zn45 O44 2.028 . S
Zn45 O49 2.035 . S
Zn45 O51 2.035 . S
Zn45 O52 2.028 1_545 S
O46 C42 1.258 . S
O46 Zn47 2.035 . S
Zn47 O46 2.035 . S
Zn47 O48 2.028 1_565 S
Zn47 O50 2.028 . S
Zn47 O53 2.035 . S
O48 Zn47 2.028 1_545 S
O48 C54 1.247 . S
O49 Zn45 2.035 . S
O49 C54 1.258 . S
O50 C43 1.247 1_565 S
O50 Zn47 2.028 . S
O51 C43 1.258 . S
O51 Zn45 2.035 . S
O52 Zn45 2.028 1_565 S
O52 C55 1.247 . S
O53 Zn47 2.035 . S
O53 C55 1.258 . S
C54 O48 1.247 . S
C54 O49 1.258 . S
C55 O52 1.247 . S
C55 O53 1.258 . S
C56 O58 1.247 . S
C56 O60 1.258 . S
C57 O64 1.247 . S
C57 O65 1.258 . S
O58 C56 1.247 . S
O58 Zn59 2.028 . S
Zn59 O58 2.028 . S
Zn59 O63 2.035 . S
Zn59 O65 2.035 1_455 S
Zn59 O66 2.028 . S
O60 C56 1.258 . S
O60 Zn61 2.035 1_455 S
Zn61 O60 2.035 1_655 S
Zn61 O62 2.028 . S
Zn61 O64 2.028 . S
Zn61 O67 2.035 . S
O62 Zn61 2.028 . S
O62 C68 1.247 . S
O63 Zn59 2.035 . S
O63 C68 1.258 1_455 S
O64 C57 1.247 . S
O64 Zn61 2.028 . S
O65 C57 1.258 . S
O65 Zn59 2.035 1_655 S
O66 Zn59 2.028 . S
O66 C69 1.247 . S
O67 Zn61 2.035 . S
O67 C69 1.258 1_655 S
C68 O62 1.247 . S
C68 O63 1.258 1_655 S
C69 O66 1.247 . S
C69 O67 1.258 1_455 S
C70 O72 1.247 . S
C70 O74 1.258 . S
C71 O78 1.247 . S
C71 O79 1.258 . S
O72 C70 1.247 . S
O72 Zn73 2.028 . S
Zn73 O72 2.028 . S
Zn73 O77 2.035 . S
Zn73 O79 2.035 . S
Zn73 O80 2.028 . S
O74 C70 1.258 . S
O74 Zn75 2.035 . S
Zn75 O74 2.035 . S
Zn75 O76 2.028 . S
Zn75 O78 2.028 . S
Zn75 O81 2.035 . S
O76 Zn75 2.028 . S
O76 C82 1.247 . S
O77 Zn73 2.035 . S
O77 C82 1.258 . S
O78 C71 1.247 . S
O78 Zn75 2.028 . S
O79 C71 1.258 . S
O79 Zn73 2.035 . S
O80 Zn73 2.028 . S
O80 C83 1.247 . S
O81 Zn75 2.035 . S
O81 C83 1.258 . S
C82 O76 1.247 . S
C82 O77 1.258 . S
C83 O80 1.247 . S
C83 O81 1.258 . S
C84 O86 1.247 . S
C84 O88 1.258 . S
C85 O92 1.247 . S
C85 O93 1.258 . S
O86 C84 1.247 . S
O86 Zn87 2.028 . S
Zn87 O86 2.028 . S
Zn87 O91 2.035 . S
Zn87 O93 2.035 . S
Zn87 O94 2.028 . S
O88 C84 1.258 . S
O88 Zn89 2.035 . S
Zn89 O88 2.035 . S
Zn89 O90 2.028 . S
Zn89 O92 2.028 . S
Zn89 O95 2.035 . S
O90 Zn89 2.028 . S
O90 C96 1.247 . S
O91 Zn87 2.035 . S
O91 C96 1.258 . S
O92 C85 1.247 . S
O92 Zn89 2.028 . S
O93 C85 1.258 . S
O93 Zn87 2.035 . S
O94 Zn87 2.028 . S
O94 C97 1.247 . S
O95 Zn89 2.035 . S
O95 C97 1.258 . S
C96 O90 1.247 . S
C96 O91 1.258 . S
C97 O94 1.247 . S
C97 O95 1.258 . S
C98 O100 1.247 . S
C98 O102 1.258 1_545 S
C99 O106 1.247 . S
C99 O107 1.258 1_565 S
O100 C98 1.247 . S
O100 Zn101 2.028 . S
Zn101 O100 2.028 . S
Zn101 O105 2.035 1_545 S
Zn101 O107 2.035 . S
Zn101 O108 2.028 . S
O102 C98 1.258 1_565 S
O102 Zn103 2.035 . S
Zn103 O102 2.035 . S
Zn103 O104 2.028 . S
Zn103 O106 2.028 . S
Zn103 O109 2.035 1_565 S
O104 Zn103 2.028 . S
O104 C110 1.247 . S
O105 Zn101 2.035 1_565 S
O105 C110 1.258 . S
O106 C99 1.247 . S
O106 Zn103 2.028 . S
O107 C99 1.258 1_545 S
O107 Zn101 2.035 . S
O108 Zn101 2.028 . S
O108 C111 1.247 . S
O109 Zn103 2.035 1_545 S
O109 C111 1.258 . S
C110 O104 1.247 . S
C110 O105 1.258 . S
C111 O108 1.247 . S
C111 O109 1.258 . S
C112 C113 1.363 . S
C112 C118 1.379 1_655 S
C112 N120 1.356 . S
C113 C112 1.363 . S
C113 C119 1.363 1_556 S
C114 C115 1.363 . S
C114 C119 1.379 1_455 S
C114 N121 1.356 . S
C115 C114 1.363 . S
C115 C118 1.363 1_554 S
N116 C118 1.356 . S
N116 H128 0.984 . S
N116 H129 0.985 1_556 S
N117 C119 1.356 . S
N117 H122 0.984 1_554 S
N117 H123 0.985 . S
C118 C112 1.379 1_455 S
C118 C115 1.363 1_556 S
C118 N116 1.356 . S
C119 C113 1.363 1_554 S
C119 C114 1.379 1_655 S
C119 N117 1.356 . S
N120 C112 1.356 . S
N120 H126 0.984 . S
N120 H127 0.984 . S
N121 C114 1.356 . S
N121 H124 0.984 . S
N121 H125 0.985 . S
H122 N117 0.984 1_556 S
H123 N117 0.985 . S
H124 N121 0.984 . S
H125 N121 0.985 . S
H126 N120 0.984 . S
H127 N120 0.984 . S
H128 N116 0.984 . S
H129 N116 0.985 1_554 S
C130 C131 1.363 . S
C130 C136 1.379 . S
C130 N138 1.356 . S
C131 C130 1.363 . S
C131 C137 1.363 . S
C132 C133 1.363 . S
C132 C137 1.379 . S
C132 N139 1.356 . S
C133 C132 1.363 . S
C133 C136 1.363 . S
N134 C136 1.356 . S
N134 H146 0.984 . S
N134 H147 0.985 . S
N135 C137 1.356 . S
N135 H140 0.984 . S
N135 H141 0.985 . S
C136 C130 1.379 . S
C136 C133 1.363 . S
C136 N134 1.356 . S
C137 C131 1.363 . S
C137 C132 1.379 . S
C137 N135 1.356 . S
N138 C130 1.356 . S
N138 H144 0.984 . S
N138 H145 0.984 . S
N139 C132 1.356 . S
N139 H142 0.984 . S
N139 H143 0.985 . S
H140 N135 0.984 . S
H141 N135 0.985 . S
H142 N139 0.984 . S
H143 N139 0.985 . S
H144 N138 0.984 . S
H145 N138 0.984 . S
H146 N134 0.984 . S
H147 N134 0.985 . S
C148 C149 1.363 . S
C148 C154 1.379 1_565 S
C148 N156 1.356 . S
C149 C148 1.363 . S
C149 C155 1.363 1_554 S
C150 C151 1.363 . S
C150 C155 1.379 1_545 S
C150 N157 1.356 . S
C151 C150 1.363 . S
C151 C154 1.363 1_556 S
N152 C154 1.356 . S
N152 H164 0.984 . S
N152 H165 0.985 1_554 S
N153 C155 1.356 . S
N153 H158 0.984 1_556 S
N153 H159 0.985 . S
C154 C148 1.379 1_545 S
C154 C151 1.363 1_554 S
C154 N152 1.356 . S
C155 C149 1.363 1_556 S
C155 C150 1.379 1_565 S
C155 N153 1.356 . S
N156 C148 1.356 . S
N156 H162 0.984 1_565 S
N156 H163 0.984 . S
N157 C150 1.356 . S
N157 H160 0.984 . S
N157 H161 0.985 1_545 S
H158 N153 0.984 1_554 S
H159 N153 0.985 . S
H160 N157 0.984 . S
H161 N157 0.985 1_565 S
H162 N156 0.984 1_545 S
H163 N156 0.984 . S
H164 N152 0.984 . S
H165 N152 0.985 1_556 S
C166 C167 1.363 1_465 S
C166 C172 1.379 . S
C166 N174 1.356 . S
C167 C166 1.363 1_645 S
C167 C173 1.363 . S
C168 C169 1.363 1_645 S
C168 C173 1.379 . S
C168 N175 1.356 . S
C169 C168 1.363 1_465 S
C169 C172 1.363 . S
N170 C172 1.356 . S
N170 H182 0.984 . S
N170 H183 0.985 . S
N171 C173 1.356 . S
N171 H176 0.984 . S
N171 H177 0.985 . S
C172 C166 1.379 . S
C172 C169 1.363 . S
C172 N170 1.356 . S
C173 C167 1.363 . S
C173 C168 1.379 . S
C173 N171 1.356 . S
N174 C166 1.356 . S
N174 H180 0.984 . S
N174 H181 0.984 1_465 S
N175 C168 1.356 . S
N175 H178 0.984 1_645 S
N175 H179 0.985 . S
H176 N171 0.984 . S
H177 N171 0.985 . S
H178 N175 0.984 1_465 S
H179 N175 0.985 . S
H180 N174 0.984 . S
H181 N174 0.984 1_645 S
H182 N170 0.984 . S
H183 N170 0.985 . S
C184 C185 1.363 . S
C184 C190 1.379 . S
C184 N192 1.356 . S
C185 C184 1.363 . S
C185 C191 1.363 . S
C186 C187 1.363 . S
C186 C191 1.379 . S
C186 N193 1.356 . S
C187 C186 1.363 . S
C187 C190 1.363 . S
N188 C190 1.356 . S
N188 H200 0.984 . S
N188 H201 0.985 . S
N189 C191 1.356 . S
N189 H194 0.984 . S
N189 H195 0.985 . S
C190 C184 1.379 . S
C190 C187 1.363 . S
C190 N188 1.356 . S
C191 C185 1.363 . S
C191 C186 1.379 . S
C191 N189 1.356 . S
N192 C184 1.356 . S
N192 H198 0.984 . S
N192 H199 0.984 . S
N193 C186 1.356 . S
N193 H196 0.984 . S
N193 H197 0.985 . S
H194 N189 0.984 . S
H195 N189 0.985 . S
H196 N193 0.984 . S
H197 N193 0.985 . S
H198 N192 0.984 . S
H199 N192 0.984 . S
H200 N188 0.984 . S
H201 N188 0.985 . S
C202 C203 1.363 . S
C202 C208 1.379 . S
C202 N210 1.356 . S
C203 C202 1.363 . S
C203 C209 1.363 . S
C204 C205 1.363 . S
C204 C209 1.379 . S
C204 N211 1.356 . S
C205 C204 1.363 . S
C205 C208 1.363 . S
N206 C208 1.356 . S
N206 H218 0.984 . S
N206 H219 0.985 . S
N207 C209 1.356 . S
N207 H212 0.984 . S
N207 H213 0.985 . S
C208 C202 1.379 . S
C208 C205 1.363 . S
C208 N206 1.356 . S
C209 C203 1.363 . S
C209 C204 1.379 . S
C209 N207 1.356 . S
N210 C202 1.356 . S
N210 H216 0.984 . S
N210 H217 0.984 . S
N211 C204 1.356 . S
N211 H214 0.984 . S
N211 H215 0.985 . S
H212 N207 0.984 . S
H213 N207 0.985 . S
H214 N211 0.984 . S
H215 N211 0.985 . S
H216 N210 0.984 . S
H217 N210 0.984 . S
H218 N206 0.984 . S
H219 N206 0.985 . S
C220 C221 1.363 . S
C220 C226 1.379 . S
C220 N228 1.356 . S
C221 C220 1.363 . S
C221 C227 1.363 . S
C222 C223 1.363 . S
C222 C227 1.379 . S
C222 N229 1.356 . S
C223 C222 1.363 . S
C223 C226 1.363 . S
N224 C226 1.356 . S
N224 H236 0.984 . S
N224 H237 0.985 . S
N225 C227 1.356 . S
N225 H230 0.984 . S
N225 H231 0.985 . S
C226 C220 1.379 . S
C226 C223 1.363 . S
C226 N224 1.356 . S
C227 C221 1.363 . S
C227 C222 1.379 . S
C227 N225 1.356 . S
N228 C220 1.356 . S
N228 H234 0.984 . S
N228 H235 0.984 . S
N229 C222 1.356 . S
N229 H232 0.984 . S
N229 H233 0.985 . S
H230 N225 0.984 . S
H231 N225 0.985 . S
H232 N229 0.984 . S
H233 N229 0.985 . S
H234 N228 0.984 . S
H235 N228 0.984 . S
H236 N224 0.984 . S
H237 N224 0.985 . S
C238 C239 1.363 . S
C238 C244 1.379 . S
C238 N246 1.356 . S
C239 C238 1.363 . S
C239 C245 1.363 . S
C240 C241 1.363 . S
C240 C245 1.379 . S
C240 N247 1.356 . S
C241 C240 1.363 . S
C241 C244 1.363 . S
N242 C244 1.356 . S
N242 H254 0.984 . S
N242 H255 0.985 . S
N243 C245 1.356 . S
N243 H248 0.984 . S
N243 H249 0.985 . S
C244 C238 1.379 . S
C244 C241 1.363 . S
C244 N242 1.356 . S
C245 C239 1.363 . S
C245 C240 1.379 . S
C245 N243 1.356 . S
N246 C238 1.356 . S
N246 H252 0.984 . S
N246 H253 0.984 . S
N247 C240 1.356 . S
N247 H250 0.984 . S
N247 H251 0.985 . S
H248 N243 0.984 . S
H249 N243 0.985 . S
H250 N247 0.984 . S
H251 N247 0.985 . S
H252 N246 0.984 . S
H253 N246 0.984 . S
H254 N242 0.984 . S
H255 N242 0.985 . S
C256 C257 1.363 . S
C256 C262 1.379 . S
C256 N264 1.356 . S
C257 C256 1.363 . S
C257 C263 1.363 . S
C258 C259 1.363 . S
C258 C263 1.379 . S
C258 N265 1.356 . S
C259 C258 1.363 . S
C259 C262 1.363 . S
N260 C262 1.356 . S
N260 H272 0.984 . S
N260 H273 0.985 . S
N261 C263 1.356 . S
N261 H266 0.984 . S
N261 H267 0.985 . S
C262 C256 1.379 . S
C262 C259 1.363 . S
C262 N260 1.356 . S
C263 C257 1.363 . S
C263 C258 1.379 . S
C263 N261 1.356 . S
N264 C256 1.356 . S
N264 H270 0.984 . S
N264 H271 0.984 . S
N265 C258 1.356 . S
N265 H268 0.984 . S
N265 H269 0.985 . S
H266 N261 0.984 . S
H267 N261 0.985 . S
H268 N265 0.984 . S
H269 N265 0.985 . S
H270 N264 0.984 . S
H271 N264 0.984 . S
H272 N260 0.984 . S
H273 N260 0.985 . S
C274 C275 1.363 . S
C274 C280 1.379 . S
C274 N282 1.356 . S
C275 C274 1.363 . S
C275 C281 1.363 . S
C276 C277 1.363 . S
C276 C281 1.379 . S
C276 N283 1.356 . S
C277 C276 1.363 . S
C277 C280 1.363 . S
N278 C280 1.356 . S
N278 H290 0.984 . S
N278 H291 0.985 . S
N279 C281 1.356 . S
N279 H284 0.984 . S
N279 H285 0.985 . S
C280 C274 1.379 . S
C280 C277 1.363 . S
C280 N278 1.356 . S
C281 C275 1.363 . S
C281 C276 1.379 . S
C281 N279 1.356 . S
N282 C274 1.356 . S
N282 H288 0.984 . S
N282 H289 0.984 . S
N283 C276 1.356 . S
N283 H286 0.984 . S
N283 H287 0.985 . S
H284 N279 0.984 . S
H285 N279 0.985 . S
H286 N283 0.984 . S
H287 N283 0.985 . S
H288 N282 0.984 . S
H289 N282 0.984 . S
H290 N278 0.984 . S
H291 N278 0.985 . S
C292 C293 1.363 . S
C292 C298 1.379 . S
C292 N300 1.356 . S
C293 C292 1.363 . S
C293 C299 1.363 . S
C294 C295 1.363 . S
C294 C299 1.379 . S
C294 N301 1.356 . S
C295 C294 1.363 . S
C295 C298 1.363 . S
N296 C298 1.356 . S
N296 H308 0.984 . S
N296 H309 0.985 . S
N297 C299 1.356 . S
N297 H302 0.984 . S
N297 H303 0.985 . S
C298 C292 1.379 . S
C298 C295 1.363 . S
C298 N296 1.356 . S
C299 C293 1.363 . S
C299 C294 1.379 . S
C299 N297 1.356 . S
N300 C292 1.356 . S
N300 H306 0.984 . S
N300 H307 0.984 . S
N301 C294 1.356 . S
N301 H304 0.984 . S
N301 H305 0.985 . S
H302 N297 0.984 . S
H303 N297 0.985 . S
H304 N301 0.984 . S
H305 N301 0.985 . S
H306 N300 0.984 . S
H307 N300 0.984 . S
H308 N296 0.984 . S
H309 N296 0.985 . S
C310 C311 1.363 . S
C310 C316 1.379 . S
C310 N318 1.356 1_455 S
C311 C310 1.363 . S
C311 C317 1.363 . S
C312 C313 1.363 . S
C312 C317 1.379 . S
C312 N319 1.356 . S
C313 C312 1.363 . S
C313 C316 1.363 . S
N314 C316 1.356 . S
N314 H326 0.984 1_455 S
N314 H327 0.985 . S
N315 C317 1.356 . S
N315 H320 0.984 . S
N315 H321 0.985 . S
C316 C310 1.379 . S
C316 C313 1.363 . S
C316 N314 1.356 . S
C317 C311 1.363 . S
C317 C312 1.379 . S
C317 N315 1.356 . S
N318 C310 1.356 1_655 S
N318 H324 0.984 . S
N318 H325 0.984 . S
N319 C312 1.356 . S
N319 H322 0.984 . S
N319 H323 0.985 . S
H320 N315 0.984 . S
H321 N315 0.985 . S
H322 N319 0.984 . S
H323 N319 0.985 . S
H324 N318 0.984 . S
H325 N318 0.984 . S
H326 N314 0.984 1_655 S
H327 N314 0.985 . S
C328 C329 1.363 . S
C328 C334 1.379 . S
C328 N336 1.356 . S
C329 C328 1.363 . S
C329 C335 1.363 . S
C330 C331 1.363 . S
C330 C335 1.379 . S
C330 N337 1.356 . S
C331 C330 1.363 . S
C331 C334 1.363 . S
N332 C334 1.356 . S
N332 H344 0.984 . S
N332 H345 0.985 . S
N333 C335 1.356 . S
N333 H338 0.984 . S
N333 H339 0.985 . S
C334 C328 1.379 . S
C334 C331 1.363 . S
C334 N332 1.356 . S
C335 C329 1.363 . S
C335 C330 1.379 . S
C335 N333 1.356 . S
N336 C328 1.356 . S
N336 H342 0.984 . S
N336 H343 0.984 . S
N337 C330 1.356 . S
N337 H340 0.984 . S
N337 H341 0.985 . S
H338 N333 0.984 . S
H339 N333 0.985 . S
H340 N337 0.984 . S
H341 N337 0.985 . S
H342 N336 0.984 . S
H343 N336 0.984 . S
H344 N332 0.984 . S
H345 N332 0.985 . S
C346 C347 1.363 . S
C346 C352 1.379 . S
C346 N354 1.356 . S
C347 C346 1.363 . S
C347 C353 1.363 . S
C348 C349 1.363 . S
C348 C353 1.379 . S
C348 N355 1.356 . S
C349 C348 1.363 . S
C349 C352 1.363 . S
N350 C352 1.356 . S
N350 H362 0.984 . S
N350 H363 0.985 . S
N351 C353 1.356 . S
N351 H356 0.984 . S
N351 H357 0.985 . S
C352 C346 1.379 . S
C352 C349 1.363 . S
C352 N350 1.356 . S
C353 C347 1.363 . S
C353 C348 1.379 . S
C353 N351 1.356 . S
N354 C346 1.356 . S
N354 H360 0.984 . S
N354 H361 0.984 . S
N355 C348 1.356 . S
N355 H358 0.984 . S
N355 H359 0.985 . S
H356 N351 0.984 . S
H357 N351 0.985 . S
H358 N355 0.984 . S
H359 N355 0.985 . S
H360 N354 0.984 . S
H361 N354 0.984 . S
H362 N350 0.984 . S
H363 N350 0.985 . S
C364 C365 1.363 . S
C364 C370 1.379 . S
C364 N372 1.356 . S
C365 C364 1.363 . S
C365 C371 1.363 . S
C366 C367 1.363 . S
C366 C371 1.379 . S
C366 N373 1.356 1_545 S
C367 C366 1.363 . S
C367 C370 1.363 . S
N368 C370 1.356 . S
N368 H380 0.984 . S
N368 H381 0.985 . S
N369 C371 1.356 . S
N369 H374 0.984 . S
N369 H375 0.985 . S
C370 C364 1.379 . S
C370 C367 1.363 . S
C370 N368 1.356 . S
C371 C365 1.363 . S
C371 C366 1.379 . S
C371 N369 1.356 . S
N372 C364 1.356 . S
N372 H378 0.984 . S
N372 H379 0.984 . S
N373 C366 1.356 1_565 S
N373 H376 0.984 . S
N373 H377 0.985 . S
H374 N369 0.984 . S
H375 N369 0.985 . S
H376 N373 0.984 . S
H377 N373 0.985 . S
H378 N372 0.984 . S
H379 N372 0.984 . S
H380 N368 0.984 . S
H381 N368 0.985 . S
C382 C383 1.363 . S
C382 C388 1.379 . S
C382 N390 1.356 . S
C383 C382 1.363 . S
C383 C389 1.363 . S
C384 C385 1.363 . S
C384 C389 1.379 . S
C384 N391 1.356 . S
C385 C384 1.363 . S
C385 C388 1.363 . S
N386 C388 1.356 . S
N386 H398 0.984 . S
N386 H399 0.985 . S
N387 C389 1.356 . S
N387 H392 0.984 . S
N387 H393 0.985 . S
C388 C382 1.379 . S
C388 C385 1.363 . S
C388 N386 1.356 . S
C389 C383 1.363 . S
C389 C384 1.379 . S
C389 N387 1.356 . S
N390 C382 1.356 . S
N390 H396 0.984 . S
N390 H397 0.984 . S
N391 C384 1.356 . S
N391 H394 0.984 . S
N391 H395 0.985 . S
H392 N387 0.984 . S
H393 N387 0.985 . S
H394 N391 0.984 . S
H395 N391 0.985 . S
H396 N390 0.984 . S
H397 N390 0.984 . S
H398 N386 0.984 . S
H399 N386 0.985 . S
C113 C68 1.743 . S
C115 C13 1.743 . S
C131 C27 1.743 . S
C133 C71 1.741 . S
C149 C29 1.743 . S
C151 C84 1.743 . S
C167 C98 1.743 . S
C169 C42 1.741 . S
C185 C0 2.010 . S
C187 C40 2.010 . S
C203 C14 2.010 . S
C205 C55 2.012 . S
C221 C97 2.010 . S
C223 C57 2.010 . S
C239 C82 2.012 . S
C241 C111 2.010 . S
C257 C70 1.495 . S
C259 C1 1.458 . S
C275 C15 1.458 . S
C277 C85 1.495 . S
C293 C41 1.458 . S
C295 C99 1.495 . S
C311 C69 1.495 . S
C313 C54 1.455 . S
C329 C56 1.458 . S
C331 C26 1.495 . S
C347 C83 1.455 . S
C349 C28 1.495 . S
C365 C96 1.458 . S
C367 C43 1.495 . S
C383 C12 1.495 . S
C385 C110 1.458 . S
