# Generated by pormake.
# Topology ukx, (4)-cn, num edge types: 1
# Building blocks:
#     Node 0, Type 0, BuildingBlock: KUFVIS_clean_sbu_0, # of connection points: 4
#     Node 1, Type 0, BuildingBlock: KUFVIS_clean_sbu_0, # of connection points: 4
#     Node 2, Type 0, BuildingBlock: KUFVIS_clean_sbu_0, # of connection points: 4
#     Node 3, Type 0, BuildingBlock: KUFVIS_clean_sbu_0, # of connection points: 4
#     Node 4, Type 0, BuildingBlock: KUFVIS_clean_sbu_0, # of connection points: 4
#     Node 5, Type 0, BuildingBlock: KUFVIS_clean_sbu_0, # of connection points: 4
#     Node 6, Type 0, BuildingBlock: KUFVIS_clean_sbu_0, # of connection points: 4
#     Node 7, Type 0, BuildingBlock: KUFVIS_clean_sbu_0, # of connection points: 4
#     Node 8, Type 0, BuildingBlock: KUFVIS_clean_sbu_0, # of connection points: 4
#     Node 9, Type 0, BuildingBlock: KUFVIS_clean_sbu_0, # of connection points: 4
#     Node 10, Type 0, BuildingBlock: KUFVIS_clean_sbu_0, # of connection points: 4
#     Node 11, Type 0, BuildingBlock: KUFVIS_clean_sbu_0, # of connection points: 4
#     Node 12, Type 0, BuildingBlock: KUFVIS_clean_sbu_0, # of connection points: 4
#     Node 13, Type 0, BuildingBlock: KUFVIS_clean_sbu_0, # of connection points: 4
#     Node 14, Type 0, BuildingBlock: KUFVIS_clean_sbu_0, # of connection points: 4
#     Node 15, Type 0, BuildingBlock: KUFVIS_clean_sbu_0, # of connection points: 4
#     Node 16, Type 0, BuildingBlock: KUFVIS_clean_sbu_0, # of connection points: 4
#     Node 17, Type 0, BuildingBlock: KUFVIS_clean_sbu_0, # of connection points: 4
#     Node 18, Type 0, BuildingBlock: KUFVIS_clean_sbu_0, # of connection points: 4
#     Node 19, Type 0, BuildingBlock: KUFVIS_clean_sbu_0, # of connection points: 4
#     Node 20, Type 0, BuildingBlock: KUFVIS_clean_sbu_0, # of connection points: 4
#     Node 21, Type 0, BuildingBlock: KUFVIS_clean_sbu_0, # of connection points: 4
#     Node 22, Type 0, BuildingBlock: KUFVIS_clean_sbu_0, # of connection points: 4
#     Node 23, Type 0, BuildingBlock: KUFVIS_clean_sbu_0, # of connection points: 4
#     Node 24, Type 0, BuildingBlock: KUFVIS_clean_sbu_0, # of connection points: 4
#     Node 25, Type 0, BuildingBlock: KUFVIS_clean_sbu_0, # of connection points: 4
#     Node 26, Type 0, BuildingBlock: KUFVIS_clean_sbu_0, # of connection points: 4
#     Node 27, Type 0, BuildingBlock: KUFVIS_clean_sbu_0, # of connection points: 4
#     Node 28, Type 0, BuildingBlock: KUFVIS_clean_sbu_0, # of connection points: 4
#     Node 29, Type 0, BuildingBlock: KUFVIS_clean_sbu_0, # of connection points: 4
#     Node 30, Type 0, BuildingBlock: KUFVIS_clean_sbu_0, # of connection points: 4
#     Node 31, Type 0, BuildingBlock: KUFVIS_clean_sbu_0, # of connection points: 4
#     Node 32, Type 0, BuildingBlock: KUFVIS_clean_sbu_0, # of connection points: 4
#     Node 33, Type 0, BuildingBlock: KUFVIS_clean_sbu_0, # of connection points: 4
#     Node 34, Type 0, BuildingBlock: KUFVIS_clean_sbu_0, # of connection points: 4
#     Node 35, Type 0, BuildingBlock: KUFVIS_clean_sbu_0, # of connection points: 4
#     Node 36, Type 0, BuildingBlock: KUFVIS_clean_sbu_0, # of connection points: 4
#     Node 37, Type 0, BuildingBlock: KUFVIS_clean_sbu_0, # of connection points: 4
#     Node 38, Type 0, BuildingBlock: KUFVIS_clean_sbu_0, # of connection points: 4
#     Node 39, Type 0, BuildingBlock: KUFVIS_clean_sbu_0, # of connection points: 4
#     Node 40, Type 0, BuildingBlock: KUFVIS_clean_sbu_0, # of connection points: 4
#     Node 41, Type 0, BuildingBlock: KUFVIS_clean_sbu_0, # of connection points: 4
#     Node 42, Type 0, BuildingBlock: KUFVIS_clean_sbu_0, # of connection points: 4
#     Node 43, Type 0, BuildingBlock: KUFVIS_clean_sbu_0, # of connection points: 4
#     Node 44, Type 0, BuildingBlock: KUFVIS_clean_sbu_0, # of connection points: 4
#     Node 45, Type 0, BuildingBlock: KUFVIS_clean_sbu_0, # of connection points: 4
#     Node 46, Type 0, BuildingBlock: KUFVIS_clean_sbu_0, # of connection points: 4
#     Node 47, Type 0, BuildingBlock: KUFVIS_clean_sbu_0, # of connection points: 4
#     Node 48, Type 0, BuildingBlock: KUFVIS_clean_sbu_0, # of connection points: 4
#     Node 49, Type 0, BuildingBlock: KUFVIS_clean_sbu_0, # of connection points: 4
#     Node 50, Type 0, BuildingBlock: KUFVIS_clean_sbu_0, # of connection points: 4
#     Node 51, Type 0, BuildingBlock: KUFVIS_clean_sbu_0, # of connection points: 4
#     Node 52, Type 0, BuildingBlock: KUFVIS_clean_sbu_0, # of connection points: 4
#     Node 53, Type 0, BuildingBlock: KUFVIS_clean_sbu_0, # of connection points: 4
#     Node 54, Type 0, BuildingBlock: KUFVIS_clean_sbu_0, # of connection points: 4
#     Node 55, Type 0, BuildingBlock: KUFVIS_clean_sbu_0, # of connection points: 4
#     Node 56, Type 0, BuildingBlock: KUFVIS_clean_sbu_0, # of connection points: 4
#     Node 57, Type 0, BuildingBlock: KUFVIS_clean_sbu_0, # of connection points: 4
#     Node 58, Type 0, BuildingBlock: KUFVIS_clean_sbu_0, # of connection points: 4
#     Node 59, Type 0, BuildingBlock: KUFVIS_clean_sbu_0, # of connection points: 4
#     Node 60, Type 0, BuildingBlock: KUFVIS_clean_sbu_0, # of connection points: 4
#     Node 61, Type 0, BuildingBlock: KUFVIS_clean_sbu_0, # of connection points: 4
#     Node 62, Type 0, BuildingBlock: KUFVIS_clean_sbu_0, # of connection points: 4
#     Node 63, Type 0, BuildingBlock: KUFVIS_clean_sbu_0, # of connection points: 4
#     Node 64, Type 0, BuildingBlock: KUFVIS_clean_sbu_0, # of connection points: 4
#     Node 65, Type 0, BuildingBlock: KUFVIS_clean_sbu_0, # of connection points: 4
#     Node 66, Type 0, BuildingBlock: KUFVIS_clean_sbu_0, # of connection points: 4
#     Node 67, Type 0, BuildingBlock: KUFVIS_clean_sbu_0, # of connection points: 4
#     Node 68, Type 0, BuildingBlock: KUFVIS_clean_sbu_0, # of connection points: 4
#     Node 69, Type 0, BuildingBlock: KUFVIS_clean_sbu_0, # of connection points: 4
#     Node 70, Type 0, BuildingBlock: KUFVIS_clean_sbu_0, # of connection points: 4
#     Node 71, Type 0, BuildingBlock: KUFVIS_clean_sbu_0, # of connection points: 4
#     Node 72, Type 0, BuildingBlock: KUFVIS_clean_sbu_0, # of connection points: 4
#     Node 73, Type 0, BuildingBlock: KUFVIS_clean_sbu_0, # of connection points: 4
#     Node 74, Type 0, BuildingBlock: KUFVIS_clean_sbu_0, # of connection points: 4
#     Node 75, Type 0, BuildingBlock: KUFVIS_clean_sbu_0, # of connection points: 4
#     Node 76, Type 0, BuildingBlock: KUFVIS_clean_sbu_0, # of connection points: 4
#     Node 77, Type 0, BuildingBlock: KUFVIS_clean_sbu_0, # of connection points: 4
#     Node 78, Type 0, BuildingBlock: KUFVIS_clean_sbu_0, # of connection points: 4
#     Node 79, Type 0, BuildingBlock: KUFVIS_clean_sbu_0, # of connection points: 4
#     Node 80, Type 0, BuildingBlock: KUFVIS_clean_sbu_0, # of connection points: 4
#     Node 81, Type 0, BuildingBlock: KUFVIS_clean_sbu_0, # of connection points: 4
#     Node 82, Type 0, BuildingBlock: KUFVIS_clean_sbu_0, # of connection points: 4
#     Node 83, Type 0, BuildingBlock: KUFVIS_clean_sbu_0, # of connection points: 4
#     Node 84, Type 0, BuildingBlock: KUFVIS_clean_sbu_0, # of connection points: 4
#     Node 85, Type 0, BuildingBlock: KUFVIS_clean_sbu_0, # of connection points: 4
#     Node 86, Type 0, BuildingBlock: KUFVIS_clean_sbu_0, # of connection points: 4
#     Node 87, Type 0, BuildingBlock: KUFVIS_clean_sbu_0, # of connection points: 4
#     Node 88, Type 0, BuildingBlock: KUFVIS_clean_sbu_0, # of connection points: 4
#     Node 89, Type 0, BuildingBlock: KUFVIS_clean_sbu_0, # of connection points: 4
#     Node 90, Type 0, BuildingBlock: KUFVIS_clean_sbu_0, # of connection points: 4
#     Node 91, Type 0, BuildingBlock: KUFVIS_clean_sbu_0, # of connection points: 4
#     Node 92, Type 0, BuildingBlock: KUFVIS_clean_sbu_0, # of connection points: 4
#     Node 93, Type 0, BuildingBlock: KUFVIS_clean_sbu_0, # of connection points: 4
#     Node 94, Type 0, BuildingBlock: KUFVIS_clean_sbu_0, # of connection points: 4
#     Node 95, Type 0, BuildingBlock: KUFVIS_clean_sbu_0, # of connection points: 4
#     Edge 96, Type (0, 0), BuildingBlock: KIFKEQ_clean_linker_1, # of connection points: 2
#     Edge 97, Type (0, 0), BuildingBlock: KIFKEQ_clean_linker_1, # of connection points: 2
#     Edge 98, Type (0, 0), BuildingBlock: KIFKEQ_clean_linker_1, # of connection points: 2
#     Edge 99, Type (0, 0), BuildingBlock: KIFKEQ_clean_linker_1, # of connection points: 2
#     Edge 100, Type (0, 0), BuildingBlock: KIFKEQ_clean_linker_1, # of connection points: 2
#     Edge 101, Type (0, 0), BuildingBlock: KIFKEQ_clean_linker_1, # of connection points: 2
#     Edge 102, Type (0, 0), BuildingBlock: KIFKEQ_clean_linker_1, # of connection points: 2
#     Edge 103, Type (0, 0), BuildingBlock: KIFKEQ_clean_linker_1, # of connection points: 2
#     Edge 104, Type (0, 0), BuildingBlock: KIFKEQ_clean_linker_1, # of connection points: 2
#     Edge 105, Type (0, 0), BuildingBlock: KIFKEQ_clean_linker_1, # of connection points: 2
#     Edge 106, Type (0, 0), BuildingBlock: KIFKEQ_clean_linker_1, # of connection points: 2
#     Edge 107, Type (0, 0), BuildingBlock: KIFKEQ_clean_linker_1, # of connection points: 2
#     Edge 108, Type (0, 0), BuildingBlock: KIFKEQ_clean_linker_1, # of connection points: 2
#     Edge 109, Type (0, 0), BuildingBlock: KIFKEQ_clean_linker_1, # of connection points: 2
#     Edge 110, Type (0, 0), BuildingBlock: KIFKEQ_clean_linker_1, # of connection points: 2
#     Edge 111, Type (0, 0), BuildingBlock: KIFKEQ_clean_linker_1, # of connection points: 2
#     Edge 112, Type (0, 0), BuildingBlock: KIFKEQ_clean_linker_1, # of connection points: 2
#     Edge 113, Type (0, 0), BuildingBlock: KIFKEQ_clean_linker_1, # of connection points: 2
#     Edge 114, Type (0, 0), BuildingBlock: KIFKEQ_clean_linker_1, # of connection points: 2
#     Edge 115, Type (0, 0), BuildingBlock: KIFKEQ_clean_linker_1, # of connection points: 2
#     Edge 116, Type (0, 0), BuildingBlock: KIFKEQ_clean_linker_1, # of connection points: 2
#     Edge 117, Type (0, 0), BuildingBlock: KIFKEQ_clean_linker_1, # of connection points: 2
#     Edge 118, Type (0, 0), BuildingBlock: KIFKEQ_clean_linker_1, # of connection points: 2
#     Edge 119, Type (0, 0), BuildingBlock: KIFKEQ_clean_linker_1, # of connection points: 2
#     Edge 120, Type (0, 0), BuildingBlock: KIFKEQ_clean_linker_1, # of connection points: 2
#     Edge 121, Type (0, 0), BuildingBlock: KIFKEQ_clean_linker_1, # of connection points: 2
#     Edge 122, Type (0, 0), BuildingBlock: KIFKEQ_clean_linker_1, # of connection points: 2
#     Edge 123, Type (0, 0), BuildingBlock: KIFKEQ_clean_linker_1, # of connection points: 2
#     Edge 124, Type (0, 0), BuildingBlock: KIFKEQ_clean_linker_1, # of connection points: 2
#     Edge 125, Type (0, 0), BuildingBlock: KIFKEQ_clean_linker_1, # of connection points: 2
#     Edge 126, Type (0, 0), BuildingBlock: KIFKEQ_clean_linker_1, # of connection points: 2
#     Edge 127, Type (0, 0), BuildingBlock: KIFKEQ_clean_linker_1, # of connection points: 2
#     Edge 128, Type (0, 0), BuildingBlock: KIFKEQ_clean_linker_1, # of connection points: 2
#     Edge 129, Type (0, 0), BuildingBlock: KIFKEQ_clean_linker_1, # of connection points: 2
#     Edge 130, Type (0, 0), BuildingBlock: KIFKEQ_clean_linker_1, # of connection points: 2
#     Edge 131, Type (0, 0), BuildingBlock: KIFKEQ_clean_linker_1, # of connection points: 2
#     Edge 132, Type (0, 0), BuildingBlock: KIFKEQ_clean_linker_1, # of connection points: 2
#     Edge 133, Type (0, 0), BuildingBlock: KIFKEQ_clean_linker_1, # of connection points: 2
#     Edge 134, Type (0, 0), BuildingBlock: KIFKEQ_clean_linker_1, # of connection points: 2
#     Edge 135, Type (0, 0), BuildingBlock: KIFKEQ_clean_linker_1, # of connection points: 2
#     Edge 136, Type (0, 0), BuildingBlock: KIFKEQ_clean_linker_1, # of connection points: 2
#     Edge 137, Type (0, 0), BuildingBlock: KIFKEQ_clean_linker_1, # of connection points: 2
#     Edge 138, Type (0, 0), BuildingBlock: KIFKEQ_clean_linker_1, # of connection points: 2
#     Edge 139, Type (0, 0), BuildingBlock: KIFKEQ_clean_linker_1, # of connection points: 2
#     Edge 140, Type (0, 0), BuildingBlock: KIFKEQ_clean_linker_1, # of connection points: 2
#     Edge 141, Type (0, 0), BuildingBlock: KIFKEQ_clean_linker_1, # of connection points: 2
#     Edge 142, Type (0, 0), BuildingBlock: KIFKEQ_clean_linker_1, # of connection points: 2
#     Edge 143, Type (0, 0), BuildingBlock: KIFKEQ_clean_linker_1, # of connection points: 2
#     Edge 144, Type (0, 0), BuildingBlock: KIFKEQ_clean_linker_1, # of connection points: 2
#     Edge 145, Type (0, 0), BuildingBlock: KIFKEQ_clean_linker_1, # of connection points: 2
#     Edge 146, Type (0, 0), BuildingBlock: KIFKEQ_clean_linker_1, # of connection points: 2
#     Edge 147, Type (0, 0), BuildingBlock: KIFKEQ_clean_linker_1, # of connection points: 2
#     Edge 148, Type (0, 0), BuildingBlock: KIFKEQ_clean_linker_1, # of connection points: 2
#     Edge 149, Type (0, 0), BuildingBlock: KIFKEQ_clean_linker_1, # of connection points: 2
#     Edge 150, Type (0, 0), BuildingBlock: KIFKEQ_clean_linker_1, # of connection points: 2
#     Edge 151, Type (0, 0), BuildingBlock: KIFKEQ_clean_linker_1, # of connection points: 2
#     Edge 152, Type (0, 0), BuildingBlock: KIFKEQ_clean_linker_1, # of connection points: 2
#     Edge 153, Type (0, 0), BuildingBlock: KIFKEQ_clean_linker_1, # of connection points: 2
#     Edge 154, Type (0, 0), BuildingBlock: KIFKEQ_clean_linker_1, # of connection points: 2
#     Edge 155, Type (0, 0), BuildingBlock: KIFKEQ_clean_linker_1, # of connection points: 2
#     Edge 156, Type (0, 0), BuildingBlock: KIFKEQ_clean_linker_1, # of connection points: 2
#     Edge 157, Type (0, 0), BuildingBlock: KIFKEQ_clean_linker_1, # of connection points: 2
#     Edge 158, Type (0, 0), BuildingBlock: KIFKEQ_clean_linker_1, # of connection points: 2
#     Edge 159, Type (0, 0), BuildingBlock: KIFKEQ_clean_linker_1, # of connection points: 2
#     Edge 160, Type (0, 0), BuildingBlock: KIFKEQ_clean_linker_1, # of connection points: 2
#     Edge 161, Type (0, 0), BuildingBlock: KIFKEQ_clean_linker_1, # of connection points: 2
#     Edge 162, Type (0, 0), BuildingBlock: KIFKEQ_clean_linker_1, # of connection points: 2
#     Edge 163, Type (0, 0), BuildingBlock: KIFKEQ_clean_linker_1, # of connection points: 2
#     Edge 164, Type (0, 0), BuildingBlock: KIFKEQ_clean_linker_1, # of connection points: 2
#     Edge 165, Type (0, 0), BuildingBlock: KIFKEQ_clean_linker_1, # of connection points: 2
#     Edge 166, Type (0, 0), BuildingBlock: KIFKEQ_clean_linker_1, # of connection points: 2
#     Edge 167, Type (0, 0), BuildingBlock: KIFKEQ_clean_linker_1, # of connection points: 2
#     Edge 168, Type (0, 0), BuildingBlock: KIFKEQ_clean_linker_1, # of connection points: 2
#     Edge 169, Type (0, 0), BuildingBlock: KIFKEQ_clean_linker_1, # of connection points: 2
#     Edge 170, Type (0, 0), BuildingBlock: KIFKEQ_clean_linker_1, # of connection points: 2
#     Edge 171, Type (0, 0), BuildingBlock: KIFKEQ_clean_linker_1, # of connection points: 2
#     Edge 172, Type (0, 0), BuildingBlock: KIFKEQ_clean_linker_1, # of connection points: 2
#     Edge 173, Type (0, 0), BuildingBlock: KIFKEQ_clean_linker_1, # of connection points: 2
#     Edge 174, Type (0, 0), BuildingBlock: KIFKEQ_clean_linker_1, # of connection points: 2
#     Edge 175, Type (0, 0), BuildingBlock: KIFKEQ_clean_linker_1, # of connection points: 2
#     Edge 176, Type (0, 0), BuildingBlock: KIFKEQ_clean_linker_1, # of connection points: 2
#     Edge 177, Type (0, 0), BuildingBlock: KIFKEQ_clean_linker_1, # of connection points: 2
#     Edge 178, Type (0, 0), BuildingBlock: KIFKEQ_clean_linker_1, # of connection points: 2
#     Edge 179, Type (0, 0), BuildingBlock: KIFKEQ_clean_linker_1, # of connection points: 2
#     Edge 180, Type (0, 0), BuildingBlock: KIFKEQ_clean_linker_1, # of connection points: 2
#     Edge 181, Type (0, 0), BuildingBlock: KIFKEQ_clean_linker_1, # of connection points: 2
#     Edge 182, Type (0, 0), BuildingBlock: KIFKEQ_clean_linker_1, # of connection points: 2
#     Edge 183, Type (0, 0), BuildingBlock: KIFKEQ_clean_linker_1, # of connection points: 2
#     Edge 184, Type (0, 0), BuildingBlock: KIFKEQ_clean_linker_1, # of connection points: 2
#     Edge 185, Type (0, 0), BuildingBlock: KIFKEQ_clean_linker_1, # of connection points: 2
#     Edge 186, Type (0, 0), BuildingBlock: KIFKEQ_clean_linker_1, # of connection points: 2
#     Edge 187, Type (0, 0), BuildingBlock: KIFKEQ_clean_linker_1, # of connection points: 2
#     Edge 188, Type (0, 0), BuildingBlock: KIFKEQ_clean_linker_1, # of connection points: 2
#     Edge 189, Type (0, 0), BuildingBlock: KIFKEQ_clean_linker_1, # of connection points: 2
#     Edge 190, Type (0, 0), BuildingBlock: KIFKEQ_clean_linker_1, # of connection points: 2
#     Edge 191, Type (0, 0), BuildingBlock: KIFKEQ_clean_linker_1, # of connection points: 2
#     Edge 192, Type (0, 0), BuildingBlock: KIFKEQ_clean_linker_1, # of connection points: 2
#     Edge 193, Type (0, 0), BuildingBlock: KIFKEQ_clean_linker_1, # of connection points: 2
#     Edge 194, Type (0, 0), BuildingBlock: KIFKEQ_clean_linker_1, # of connection points: 2
#     Edge 195, Type (0, 0), BuildingBlock: KIFKEQ_clean_linker_1, # of connection points: 2
#     Edge 196, Type (0, 0), BuildingBlock: KIFKEQ_clean_linker_1, # of connection points: 2
#     Edge 197, Type (0, 0), BuildingBlock: KIFKEQ_clean_linker_1, # of connection points: 2
#     Edge 198, Type (0, 0), BuildingBlock: KIFKEQ_clean_linker_1, # of connection points: 2
#     Edge 199, Type (0, 0), BuildingBlock: KIFKEQ_clean_linker_1, # of connection points: 2
#     Edge 200, Type (0, 0), BuildingBlock: KIFKEQ_clean_linker_1, # of connection points: 2
#     Edge 201, Type (0, 0), BuildingBlock: KIFKEQ_clean_linker_1, # of connection points: 2
#     Edge 202, Type (0, 0), BuildingBlock: KIFKEQ_clean_linker_1, # of connection points: 2
#     Edge 203, Type (0, 0), BuildingBlock: KIFKEQ_clean_linker_1, # of connection points: 2
#     Edge 204, Type (0, 0), BuildingBlock: KIFKEQ_clean_linker_1, # of connection points: 2
#     Edge 205, Type (0, 0), BuildingBlock: KIFKEQ_clean_linker_1, # of connection points: 2
#     Edge 206, Type (0, 0), BuildingBlock: KIFKEQ_clean_linker_1, # of connection points: 2
#     Edge 207, Type (0, 0), BuildingBlock: KIFKEQ_clean_linker_1, # of connection points: 2
#     Edge 208, Type (0, 0), BuildingBlock: KIFKEQ_clean_linker_1, # of connection points: 2
#     Edge 209, Type (0, 0), BuildingBlock: KIFKEQ_clean_linker_1, # of connection points: 2
#     Edge 210, Type (0, 0), BuildingBlock: KIFKEQ_clean_linker_1, # of connection points: 2
#     Edge 211, Type (0, 0), BuildingBlock: KIFKEQ_clean_linker_1, # of connection points: 2
#     Edge 212, Type (0, 0), BuildingBlock: KIFKEQ_clean_linker_1, # of connection points: 2
#     Edge 213, Type (0, 0), BuildingBlock: KIFKEQ_clean_linker_1, # of connection points: 2
#     Edge 214, Type (0, 0), BuildingBlock: KIFKEQ_clean_linker_1, # of connection points: 2
#     Edge 215, Type (0, 0), BuildingBlock: KIFKEQ_clean_linker_1, # of connection points: 2
#     Edge 216, Type (0, 0), BuildingBlock: KIFKEQ_clean_linker_1, # of connection points: 2
#     Edge 217, Type (0, 0), BuildingBlock: KIFKEQ_clean_linker_1, # of connection points: 2
#     Edge 218, Type (0, 0), BuildingBlock: KIFKEQ_clean_linker_1, # of connection points: 2
#     Edge 219, Type (0, 0), BuildingBlock: KIFKEQ_clean_linker_1, # of connection points: 2
#     Edge 220, Type (0, 0), BuildingBlock: KIFKEQ_clean_linker_1, # of connection points: 2
#     Edge 221, Type (0, 0), BuildingBlock: KIFKEQ_clean_linker_1, # of connection points: 2
#     Edge 222, Type (0, 0), BuildingBlock: KIFKEQ_clean_linker_1, # of connection points: 2
#     Edge 223, Type (0, 0), BuildingBlock: KIFKEQ_clean_linker_1, # of connection points: 2
#     Edge 224, Type (0, 0), BuildingBlock: KIFKEQ_clean_linker_1, # of connection points: 2
#     Edge 225, Type (0, 0), BuildingBlock: KIFKEQ_clean_linker_1, # of connection points: 2
#     Edge 226, Type (0, 0), BuildingBlock: KIFKEQ_clean_linker_1, # of connection points: 2
#     Edge 227, Type (0, 0), BuildingBlock: KIFKEQ_clean_linker_1, # of connection points: 2
#     Edge 228, Type (0, 0), BuildingBlock: KIFKEQ_clean_linker_1, # of connection points: 2
#     Edge 229, Type (0, 0), BuildingBlock: KIFKEQ_clean_linker_1, # of connection points: 2
#     Edge 230, Type (0, 0), BuildingBlock: KIFKEQ_clean_linker_1, # of connection points: 2
#     Edge 231, Type (0, 0), BuildingBlock: KIFKEQ_clean_linker_1, # of connection points: 2
#     Edge 232, Type (0, 0), BuildingBlock: KIFKEQ_clean_linker_1, # of connection points: 2
#     Edge 233, Type (0, 0), BuildingBlock: KIFKEQ_clean_linker_1, # of connection points: 2
#     Edge 234, Type (0, 0), BuildingBlock: KIFKEQ_clean_linker_1, # of connection points: 2
#     Edge 235, Type (0, 0), BuildingBlock: KIFKEQ_clean_linker_1, # of connection points: 2
#     Edge 236, Type (0, 0), BuildingBlock: KIFKEQ_clean_linker_1, # of connection points: 2
#     Edge 237, Type (0, 0), BuildingBlock: KIFKEQ_clean_linker_1, # of connection points: 2
#     Edge 238, Type (0, 0), BuildingBlock: KIFKEQ_clean_linker_1, # of connection points: 2
#     Edge 239, Type (0, 0), BuildingBlock: KIFKEQ_clean_linker_1, # of connection points: 2
#     Edge 240, Type (0, 0), BuildingBlock: KIFKEQ_clean_linker_1, # of connection points: 2
#     Edge 241, Type (0, 0), BuildingBlock: KIFKEQ_clean_linker_1, # of connection points: 2
#     Edge 242, Type (0, 0), BuildingBlock: KIFKEQ_clean_linker_1, # of connection points: 2
#     Edge 243, Type (0, 0), BuildingBlock: KIFKEQ_clean_linker_1, # of connection points: 2
#     Edge 244, Type (0, 0), BuildingBlock: KIFKEQ_clean_linker_1, # of connection points: 2
#     Edge 245, Type (0, 0), BuildingBlock: KIFKEQ_clean_linker_1, # of connection points: 2
#     Edge 246, Type (0, 0), BuildingBlock: KIFKEQ_clean_linker_1, # of connection points: 2
#     Edge 247, Type (0, 0), BuildingBlock: KIFKEQ_clean_linker_1, # of connection points: 2
#     Edge 248, Type (0, 0), BuildingBlock: KIFKEQ_clean_linker_1, # of connection points: 2
#     Edge 249, Type (0, 0), BuildingBlock: KIFKEQ_clean_linker_1, # of connection points: 2
#     Edge 250, Type (0, 0), BuildingBlock: KIFKEQ_clean_linker_1, # of connection points: 2
#     Edge 251, Type (0, 0), BuildingBlock: KIFKEQ_clean_linker_1, # of connection points: 2
#     Edge 252, Type (0, 0), BuildingBlock: KIFKEQ_clean_linker_1, # of connection points: 2
#     Edge 253, Type (0, 0), BuildingBlock: KIFKEQ_clean_linker_1, # of connection points: 2
#     Edge 254, Type (0, 0), BuildingBlock: KIFKEQ_clean_linker_1, # of connection points: 2
#     Edge 255, Type (0, 0), BuildingBlock: KIFKEQ_clean_linker_1, # of connection points: 2
#     Edge 256, Type (0, 0), BuildingBlock: KIFKEQ_clean_linker_1, # of connection points: 2
#     Edge 257, Type (0, 0), BuildingBlock: KIFKEQ_clean_linker_1, # of connection points: 2
#     Edge 258, Type (0, 0), BuildingBlock: KIFKEQ_clean_linker_1, # of connection points: 2
#     Edge 259, Type (0, 0), BuildingBlock: KIFKEQ_clean_linker_1, # of connection points: 2
#     Edge 260, Type (0, 0), BuildingBlock: KIFKEQ_clean_linker_1, # of connection points: 2
#     Edge 261, Type (0, 0), BuildingBlock: KIFKEQ_clean_linker_1, # of connection points: 2
#     Edge 262, Type (0, 0), BuildingBlock: KIFKEQ_clean_linker_1, # of connection points: 2
#     Edge 263, Type (0, 0), BuildingBlock: KIFKEQ_clean_linker_1, # of connection points: 2
#     Edge 264, Type (0, 0), BuildingBlock: KIFKEQ_clean_linker_1, # of connection points: 2
#     Edge 265, Type (0, 0), BuildingBlock: KIFKEQ_clean_linker_1, # of connection points: 2
#     Edge 266, Type (0, 0), BuildingBlock: KIFKEQ_clean_linker_1, # of connection points: 2
#     Edge 267, Type (0, 0), BuildingBlock: KIFKEQ_clean_linker_1, # of connection points: 2
#     Edge 268, Type (0, 0), BuildingBlock: KIFKEQ_clean_linker_1, # of connection points: 2
#     Edge 269, Type (0, 0), BuildingBlock: KIFKEQ_clean_linker_1, # of connection points: 2
#     Edge 270, Type (0, 0), BuildingBlock: KIFKEQ_clean_linker_1, # of connection points: 2
#     Edge 271, Type (0, 0), BuildingBlock: KIFKEQ_clean_linker_1, # of connection points: 2
#     Edge 272, Type (0, 0), BuildingBlock: KIFKEQ_clean_linker_1, # of connection points: 2
#     Edge 273, Type (0, 0), BuildingBlock: KIFKEQ_clean_linker_1, # of connection points: 2
#     Edge 274, Type (0, 0), BuildingBlock: KIFKEQ_clean_linker_1, # of connection points: 2
#     Edge 275, Type (0, 0), BuildingBlock: KIFKEQ_clean_linker_1, # of connection points: 2
#     Edge 276, Type (0, 0), BuildingBlock: KIFKEQ_clean_linker_1, # of connection points: 2
#     Edge 277, Type (0, 0), BuildingBlock: KIFKEQ_clean_linker_1, # of connection points: 2
#     Edge 278, Type (0, 0), BuildingBlock: KIFKEQ_clean_linker_1, # of connection points: 2
#     Edge 279, Type (0, 0), BuildingBlock: KIFKEQ_clean_linker_1, # of connection points: 2
#     Edge 280, Type (0, 0), BuildingBlock: KIFKEQ_clean_linker_1, # of connection points: 2
#     Edge 281, Type (0, 0), BuildingBlock: KIFKEQ_clean_linker_1, # of connection points: 2
#     Edge 282, Type (0, 0), BuildingBlock: KIFKEQ_clean_linker_1, # of connection points: 2
#     Edge 283, Type (0, 0), BuildingBlock: KIFKEQ_clean_linker_1, # of connection points: 2
#     Edge 284, Type (0, 0), BuildingBlock: KIFKEQ_clean_linker_1, # of connection points: 2
#     Edge 285, Type (0, 0), BuildingBlock: KIFKEQ_clean_linker_1, # of connection points: 2
#     Edge 286, Type (0, 0), BuildingBlock: KIFKEQ_clean_linker_1, # of connection points: 2
#     Edge 287, Type (0, 0), BuildingBlock: KIFKEQ_clean_linker_1, # of connection points: 2
# Relax obj value: 0.273
# Max RMSD: 0.173
# Mean RMSD: 0.173
data_MOF--net-ukx--node1-KUFVIS_clean_sbu_0--edge1-KIFKEQ_clean_linker_1
_symmetry_space_group_name_H-M    P1
_symmetry_Int_Tables_number       1
_symmetry_cell_setting            triclinic
loop_
_symmetry_equiv_pos_as_xyz
'x, y, z'
_cell_length_a     79.507329
_cell_length_b     79.482763
_cell_length_c     79.552593
_cell_angle_alpha  90.008926
_cell_angle_beta   89.97128
_cell_angle_gamma 90.041647
loop_
_atom_site_label
_atom_site_type_symbol
_atom_site_fract_x
_atom_site_fract_y
_atom_site_fract_z
_atom_type_partial_charge
Mn0 Mn 0.03936 0.14059 0.3244 0.0
Mn1 Mn 0.0424 0.12955 0.36524 0.0
C2 C 0.017 0.14566 0.34213 0.0
C3 C 0.03311 0.13258 0.29692 0.0
C4 C 0.05868 0.16091 0.3505 0.0
O5 O 0.06032 0.12603 0.32515 0.0
O6 O 0.05891 0.11642 0.35177 0.0
C7 C 0.02994 0.09459 0.36222 0.0
N8 N 0.0287 0.11019 0.36919 0.0
C9 C 0.00471 0.10185 0.38565 0.0
C10 C 0.0058 0.08565 0.37875 0.0
C11 C 0.01845 0.08203 0.36696 0.0
C12 C 0.0165 0.11386 0.38045 0.0
H13 H 0.03959 0.09179 0.35308 0.0
C14 C 0.06557 0.11675 0.33711 0.0
O15 O 0.04275 0.14545 0.29996 0.0
O16 O 0.02769 0.12415 0.30976 0.0
N17 N 0.0273 0.14107 0.38003 0.0
C18 C 0.02809 0.15727 0.38562 0.0
C19 C 0.0163 0.16294 0.3975 0.0
C20 C 0.00401 0.15185 0.40368 0.0
C21 C 0.00376 0.13512 0.39811 0.0
C22 C 0.01591 0.13015 0.38636 0.0
H23 H 0.03755 0.16584 0.38098 0.0
O24 O 0.01793 0.15307 0.32766 0.0
O25 O 0.02877 0.13475 0.34545 0.0
O26 O 0.05245 0.1597 0.33572 0.0
O27 O 0.05639 0.14995 0.36208 0.0
C28 C 0.99184 0.12321 0.40364 0.0
C29 C 0.99228 0.1066 0.39737 0.0
H30 H 0.99694 0.07593 0.38235 0.0
H31 H 0.01932 0.06958 0.36151 0.0
H32 H 0.01666 0.17584 0.40182 0.0
H33 H 0.99484 0.15632 0.41271 0.0
H34 H 0.98223 0.12672 0.41262 0.0
H35 H 0.98298 0.09759 0.40162 0.0
Mn36 Mn 0.10461 0.78992 0.57432 0.0
Mn37 Mn 0.11555 0.793 0.61519 0.0
C38 C 0.09961 0.76751 0.59201 0.0
C39 C 0.11272 0.78373 0.54686 0.0
C40 C 0.08414 0.80908 0.60043 0.0
O41 O 0.11904 0.81099 0.57514 0.0
O42 O 0.12861 0.80962 0.60176 0.0
C43 C 0.15057 0.78077 0.61219 0.0
N44 N 0.13497 0.77942 0.61914 0.0
C45 C 0.1434 0.75544 0.63555 0.0
C46 C 0.1596 0.75665 0.62867 0.0
C47 C 0.16318 0.76935 0.61691 0.0
C48 C 0.13135 0.76717 0.63036 0.0
H49 H 0.15333 0.79045 0.60308 0.0
C50 C 0.12826 0.81629 0.58712 0.0
O51 O 0.0998 0.79328 0.54988 0.0
O52 O 0.12114 0.77836 0.55972 0.0
N53 N 0.10409 0.77781 0.62994 0.0
C54 C 0.08789 0.77849 0.63553 0.0
C55 C 0.08227 0.76665 0.64738 0.0
C56 C 0.0934 0.75441 0.65354 0.0
C57 C 0.11014 0.75426 0.64798 0.0
C58 C 0.11506 0.76647 0.63626 0.0
H59 H 0.07929 0.78791 0.63091 0.0
O60 O 0.09223 0.7684 0.57753 0.0
O61 O 0.11044 0.77934 0.59537 0.0
O62 O 0.08541 0.80288 0.58564 0.0
O63 O 0.09509 0.80685 0.61202 0.0
C64 C 0.12209 0.74242 0.65349 0.0
C65 C 0.1387 0.74297 0.64724 0.0
H66 H 0.16935 0.74785 0.63226 0.0
H67 H 0.17563 0.77031 0.61148 0.0
H68 H 0.06936 0.76692 0.65171 0.0
H69 H 0.08898 0.7452 0.66256 0.0
H70 H 0.11862 0.73276 0.66245 0.0
H71 H 0.14774 0.73371 0.65148 0.0
Mn72 Mn 0.45677 0.85508 0.82563 0.0
Mn73 Mn 0.4538 0.86586 0.86656 0.0
C74 C 0.47915 0.8499 0.84328 0.0
C75 C 0.46299 0.86322 0.79818 0.0
C76 C 0.43752 0.83457 0.85167 0.0
O77 O 0.43581 0.86965 0.82653 0.0
O78 O 0.43722 0.87904 0.85323 0.0
C79 C 0.4662 0.90086 0.86369 0.0
N80 N 0.46749 0.88522 0.87056 0.0
C81 C 0.49157 0.89349 0.8869 0.0
C82 C 0.49042 0.90973 0.88011 0.0
C83 C 0.4777 0.91341 0.86842 0.0
C84 C 0.47975 0.8815 0.88171 0.0
H85 H 0.45649 0.9037 0.85463 0.0
C86 C 0.43056 0.87882 0.83857 0.0
O87 O 0.45335 0.85035 0.80118 0.0
O88 O 0.46843 0.87159 0.81106 0.0
N89 N 0.46897 0.85428 0.88121 0.0
C90 C 0.46823 0.83806 0.88672 0.0
C91 C 0.48009 0.83233 0.89848 0.0
C92 C 0.49242 0.84339 0.90463 0.0
C93 C 0.49263 0.86016 0.89915 0.0
C94 C 0.4804 0.86518 0.88753 0.0
H95 H 0.45875 0.82951 0.8821 0.0
O96 O 0.4782 0.84257 0.82877 0.0
O97 O 0.4674 0.86079 0.84669 0.0
O98 O 0.44369 0.83591 0.83688 0.0
O99 O 0.43985 0.84545 0.86333 0.0
C100 C 0.50457 0.87204 0.90466 0.0
C101 C 0.50408 0.88868 0.8985 0.0
H102 H 0.49929 0.91943 0.8837 0.0
H103 H 0.47678 0.92589 0.86306 0.0
H104 H 0.47977 0.81941 0.90274 0.0
H105 H 0.50165 0.83889 0.91357 0.0
H106 H 0.51424 0.86849 0.91356 0.0
H107 H 0.5134 0.89768 0.90274 0.0
Mn108 Mn 0.39084 0.20608 0.07403 0.0
Mn109 Mn 0.38012 0.20323 0.11498 0.0
C110 C 0.39613 0.22851 0.09161 0.0
C111 C 0.38262 0.21223 0.0466 0.0
C112 C 0.41128 0.18679 0.10002 0.0
O113 O 0.3762 0.18514 0.07502 0.0
O114 O 0.36677 0.18674 0.1017 0.0
C115 C 0.34523 0.21587 0.11226 0.0
N116 N 0.36089 0.21705 0.11907 0.0
C117 C 0.35286 0.24114 0.13553 0.0
C118 C 0.3366 0.24011 0.12879 0.0
C119 C 0.33278 0.22744 0.11707 0.0
C120 C 0.36474 0.22927 0.13025 0.0
H121 H 0.34229 0.2062 0.10318 0.0
C122 C 0.36696 0.18001 0.08707 0.0
O123 O 0.39547 0.20258 0.04957 0.0
O124 O 0.37432 0.21773 0.0595 0.0
N125 N 0.39187 0.21834 0.12959 0.0
C126 C 0.40811 0.21751 0.13502 0.0
C127 C 0.41396 0.2293 0.14679 0.0
C128 C 0.40301 0.24167 0.15305 0.0
C129 C 0.38623 0.24198 0.14764 0.0
C130 C 0.38108 0.2298 0.136 0.0
H131 H 0.41658 0.20799 0.13032 0.0
O132 O 0.40342 0.2275 0.07708 0.0
O133 O 0.38522 0.21678 0.09508 0.0
O134 O 0.40999 0.19299 0.08524 0.0
O135 O 0.4004 0.18914 0.11168 0.0
C136 C 0.37445 0.25396 0.15325 0.0
C137 C 0.35779 0.25359 0.14715 0.0
H138 H 0.32697 0.24902 0.13245 0.0
H139 H 0.32028 0.22661 0.11175 0.0
H140 H 0.4269 0.2289 0.15099 0.0
H141 H 0.40761 0.25084 0.16201 0.0
H142 H 0.3781 0.2636 0.16217 0.0
H143 H 0.34888 0.26295 0.15146 0.0
Mn144 Mn 0.03911 0.85476 0.17053 0.0
Mn145 Mn 0.04192 0.86559 0.1296 0.0
C146 C 0.01667 0.84952 0.15297 0.0
C147 C 0.033 0.86291 0.198 0.0
C148 C 0.05835 0.83437 0.14442 0.0
O149 O 0.06004 0.86939 0.16955 0.0
O150 O 0.05845 0.87887 0.1429 0.0
C151 C 0.02934 0.9005 0.1325 0.0
N152 N 0.02813 0.88485 0.12562 0.0
C153 C 0.00403 0.89298 0.10925 0.0
C154 C 0.0051 0.90922 0.11605 0.0
C155 C 0.01779 0.91298 0.12776 0.0
C156 C 0.01589 0.88106 0.11445 0.0
H157 H 0.03902 0.9034 0.14157 0.0
C158 C 0.06519 0.87864 0.15751 0.0
O159 O 0.04265 0.85006 0.19497 0.0
O160 O 0.02749 0.87124 0.18513 0.0
N161 N 0.02678 0.8539 0.11498 0.0
C162 C 0.02759 0.83768 0.10948 0.0
C163 C 0.01577 0.83188 0.0977 0.0
C164 C 0.00341 0.84288 0.09151 0.0
C165 C 0.00313 0.85964 0.09699 0.0
C166 C 0.01532 0.86474 0.10864 0.0
H167 H 0.0371 0.82918 0.11411 0.0
O168 O 0.01769 0.84219 0.16747 0.0
O169 O 0.02839 0.86044 0.14951 0.0
O170 O 0.05218 0.83563 0.15922 0.0
O171 O 0.05598 0.84527 0.1328 0.0
C172 C 0.99116 0.87146 0.09146 0.0
C173 C 0.99157 0.8881 0.09763 0.0
H174 H 0.99619 0.91888 0.11245 0.0
H175 H 0.01864 0.92546 0.13313 0.0
H176 H 0.01615 0.81895 0.09344 0.0
H177 H 0.99422 0.83832 0.08255 0.0
H178 H 0.98151 0.86785 0.08255 0.0
H179 H 0.98221 0.89704 0.09338 0.0
Mn180 Mn 0.38998 0.78931 0.42022 0.0
Mn181 Mn 0.37925 0.79207 0.37927 0.0
C182 C 0.39529 0.76687 0.40267 0.0
C183 C 0.38182 0.7832 0.44768 0.0
C184 C 0.4104 0.8086 0.39416 0.0
O185 O 0.37532 0.8102 0.41922 0.0
O186 O 0.36592 0.80857 0.39255 0.0
C187 C 0.34436 0.7794 0.38208 0.0
N188 N 0.36002 0.77822 0.37525 0.0
C189 C 0.35197 0.75409 0.35885 0.0
C190 C 0.33571 0.75512 0.36561 0.0
C191 C 0.33191 0.76781 0.37731 0.0
C192 C 0.36385 0.76599 0.36409 0.0
H193 H 0.34143 0.78908 0.39115 0.0
C194 C 0.3661 0.81532 0.40717 0.0
O195 O 0.39465 0.79289 0.44466 0.0
O196 O 0.37351 0.77764 0.43482 0.0
N197 N 0.39099 0.77695 0.36468 0.0
C198 C 0.40723 0.77779 0.35922 0.0
C199 C 0.41307 0.76598 0.34745 0.0
C200 C 0.40211 0.75358 0.34124 0.0
C201 C 0.38533 0.75327 0.34668 0.0
C202 C 0.38019 0.76546 0.35831 0.0
H203 H 0.4157 0.78733 0.36387 0.0
O204 O 0.4026 0.76792 0.41718 0.0
O205 O 0.38436 0.77856 0.3992 0.0
O206 O 0.40911 0.80244 0.40896 0.0
O207 O 0.39954 0.8062 0.38251 0.0
C208 C 0.37354 0.74125 0.34111 0.0
C209 C 0.35689 0.74163 0.34724 0.0
H210 H 0.32607 0.74619 0.36199 0.0
H211 H 0.31941 0.76864 0.38265 0.0
H212 H 0.426 0.76638 0.34323 0.0
H213 H 0.4067 0.7444 0.33229 0.0
H214 H 0.37718 0.73161 0.33221 0.0
H215 H 0.34797 0.73225 0.34297 0.0
Mn216 Mn 0.45588 0.14078 0.6701 0.0
Mn217 Mn 0.45311 0.13007 0.62914 0.0
C218 C 0.47831 0.14613 0.65253 0.0
C219 C 0.46203 0.13262 0.69755 0.0
C220 C 0.43656 0.16118 0.64409 0.0
O221 O 0.435 0.12607 0.6691 0.0
O222 O 0.43663 0.11667 0.64242 0.0
C223 C 0.46581 0.09519 0.63187 0.0
N224 N 0.46697 0.11087 0.62506 0.0
C225 C 0.49108 0.10289 0.60861 0.0
C226 C 0.49007 0.08662 0.61535 0.0
C227 C 0.4774 0.08277 0.62706 0.0
C228 C 0.47918 0.11474 0.61389 0.0
H229 H 0.45614 0.09222 0.64094 0.0
C230 C 0.42989 0.11684 0.65704 0.0
O231 O 0.45233 0.14543 0.69455 0.0
O232 O 0.46757 0.12432 0.68467 0.0
N233 N 0.4682 0.14187 0.61455 0.0
C234 C 0.46735 0.15812 0.60914 0.0
C235 C 0.47914 0.164 0.59737 0.0
C236 C 0.49152 0.15307 0.59111 0.0
C237 C 0.49186 0.13628 0.59651 0.0
C238 C 0.47969 0.1311 0.60814 0.0
H239 H 0.45782 0.16657 0.61384 0.0
O240 O 0.47726 0.15344 0.66705 0.0
O241 O 0.46662 0.13518 0.64906 0.0
O242 O 0.44274 0.15989 0.65887 0.0
O243 O 0.43896 0.15032 0.63243 0.0
C244 C 0.50387 0.12453 0.5909 0.0
C245 C 0.50352 0.10786 0.597 0.0
H246 H 0.49901 0.07701 0.61169 0.0
H247 H 0.47659 0.07026 0.63238 0.0
H248 H 0.47872 0.17695 0.59319 0.0
H249 H 0.5007 0.1577 0.58216 0.0
H250 H 0.5135 0.1282 0.58199 0.0
H251 H 0.5129 0.09897 0.59269 0.0
Mn252 Mn 0.10492 0.20612 0.92047 0.0
Mn253 Mn 0.11556 0.20332 0.87949 0.0
C254 C 0.09962 0.22857 0.90292 0.0
C255 C 0.11315 0.21224 0.94791 0.0
C256 C 0.08439 0.18689 0.89445 0.0
O257 O 0.11952 0.18519 0.91943 0.0
O258 O 0.12886 0.18676 0.89272 0.0
C259 C 0.1505 0.21587 0.88223 0.0
N260 N 0.13484 0.2171 0.87542 0.0
C261 C 0.14295 0.24121 0.85903 0.0
C262 C 0.15922 0.24013 0.86576 0.0
C263 C 0.16299 0.22742 0.87744 0.0
C264 C 0.13103 0.22935 0.86428 0.0
H265 H 0.15342 0.20617 0.89128 0.0
C266 C 0.12868 0.18002 0.90734 0.0
O267 O 0.1003 0.20258 0.94492 0.0
O268 O 0.12145 0.21776 0.93501 0.0
N269 N 0.10386 0.21847 0.86491 0.0
C270 C 0.08762 0.21767 0.85947 0.0
C271 C 0.08181 0.2295 0.84772 0.0
C272 C 0.09281 0.24186 0.8415 0.0
C273 C 0.10958 0.24214 0.84691 0.0
C274 C 0.11469 0.22993 0.85853 0.0
H275 H 0.07913 0.20816 0.86414 0.0
O276 O 0.09235 0.22754 0.91746 0.0
O277 O 0.11052 0.21684 0.89942 0.0
O278 O 0.08573 0.19304 0.90925 0.0
O279 O 0.09524 0.18926 0.88277 0.0
C280 C 0.1214 0.25411 0.84133 0.0
C281 C 0.13806 0.25369 0.84743 0.0
H282 H 0.16887 0.24903 0.86211 0.0
H283 H 0.17549 0.22655 0.88275 0.0
H284 H 0.06888 0.22913 0.84351 0.0
H285 H 0.08824 0.25106 0.83256 0.0
H286 H 0.11779 0.26377 0.83244 0.0
H287 H 0.147 0.26304 0.84315 0.0
Mn288 Mn 0.32478 0.03931 0.14028 0.0
Mn289 Mn 0.36574 0.04222 0.12952 0.0
C290 C 0.3424 0.01691 0.14555 0.0
C291 C 0.29732 0.03309 0.13214 0.0
C292 C 0.35079 0.05867 0.16067 0.0
O293 O 0.32573 0.06022 0.12564 0.0
O294 O 0.35241 0.05867 0.1162 0.0
C295 C 0.36299 0.02955 0.09466 0.0
N296 N 0.36983 0.02839 0.1103 0.0
C297 C 0.38632 0.00433 0.10226 0.0
C298 C 0.37956 0.00534 0.08601 0.0
C299 C 0.36782 0.01798 0.08221 0.0
C300 C 0.38103 0.01621 0.11413 0.0
H301 H 0.35389 0.03919 0.09172 0.0
C302 C 0.33777 0.06537 0.1164 0.0
O303 O 0.30031 0.04278 0.14497 0.0
O304 O 0.31021 0.02761 0.12382 0.0
N305 N 0.38038 0.02715 0.14126 0.0
C306 C 0.38581 0.028 0.15749 0.0
C307 C 0.39761 0.01623 0.16332 0.0
C308 C 0.40389 0.00387 0.15237 0.0
C309 C 0.39847 0.00355 0.1356 0.0
C310 C 0.3868 0.01569 0.13046 0.0
H311 H 0.38111 0.03751 0.16596 0.0
O312 O 0.32788 0.0179 0.15287 0.0
O313 O 0.34584 0.02864 0.13464 0.0
O314 O 0.33601 0.05244 0.1594 0.0
O315 O 0.36245 0.05633 0.14979 0.0
C316 C 0.40409 0.99157 0.12382 0.0
C317 C 0.39797 0.99192 0.10717 0.0
H318 H 0.38323 0.99643 0.07638 0.0
H319 H 0.36248 0.01879 0.06972 0.0
H320 H 0.40182 0.01664 0.17625 0.0
H321 H 0.41286 0.99472 0.15696 0.0
H322 H 0.41302 0.98195 0.12746 0.0
H323 H 0.40229 0.98256 0.09826 0.0
Mn324 Mn 0.20677 0.0755 0.38938 0.0
Mn325 Mn 0.20395 0.11646 0.37855 0.0
C326 C 0.22926 0.09308 0.39447 0.0
C327 C 0.21277 0.04798 0.38126 0.0
C328 C 0.18773 0.10167 0.4099 0.0
O329 O 0.18577 0.07646 0.3749 0.0
O330 O 0.1873 0.10314 0.36544 0.0
C331 C 0.21626 0.11349 0.34357 0.0
N332 N 0.2176 0.1204 0.35918 0.0
C333 C 0.24168 0.13674 0.35082 0.0
C334 C 0.24048 0.1299 0.33461 0.0
C335 C 0.22773 0.1182 0.33099 0.0
C336 C 0.2299 0.13157 0.36284 0.0
H337 H 0.20654 0.10442 0.34077 0.0
C338 C 0.18057 0.0885 0.3657 0.0
O339 O 0.2032 0.05106 0.39415 0.0
O340 O 0.21828 0.06083 0.37287 0.0
N341 N 0.21919 0.13112 0.39007 0.0
C342 C 0.21849 0.13669 0.40626 0.0
C343 C 0.23037 0.14849 0.41192 0.0
C344 C 0.24267 0.15463 0.40082 0.0
C345 C 0.24283 0.14909 0.38409 0.0
C346 C 0.23059 0.13743 0.37913 0.0
H347 H 0.20902 0.13209 0.41484 0.0
O348 O 0.22826 0.07856 0.4018 0.0
O349 O 0.21748 0.09653 0.38362 0.0
O350 O 0.19384 0.08685 0.40857 0.0
O351 O 0.19003 0.11331 0.39899 0.0
C352 C 0.25473 0.15459 0.37217 0.0
C353 C 0.2542 0.14838 0.35556 0.0
H354 H 0.24932 0.13348 0.32488 0.0
H355 H 0.22677 0.1128 0.31854 0.0
H356 H 0.23008 0.1528 0.42482 0.0
H357 H 0.2519 0.16361 0.40528 0.0
H358 H 0.26442 0.16352 0.37567 0.0
H359 H 0.26349 0.1526 0.34654 0.0
Mn360 Mn 0.16918 0.95783 0.63934 0.0
Mn361 Mn 0.12822 0.95498 0.62854 0.0
C362 C 0.15161 0.98029 0.64449 0.0
C363 C 0.19669 0.96388 0.6312 0.0
C364 C 0.14301 0.93875 0.65985 0.0
O365 O 0.16821 0.93684 0.62483 0.0
O366 O 0.14153 0.93832 0.61542 0.0
C367 C 0.13123 0.96729 0.59357 0.0
N368 N 0.12432 0.96864 0.60917 0.0
C369 C 0.10808 0.99277 0.60085 0.0
C370 C 0.11492 0.99156 0.58464 0.0
C371 C 0.12658 0.97879 0.581 0.0
C372 C 0.1132 0.98096 0.61285 0.0
H373 H 0.14027 0.95755 0.59076 0.0
C374 C 0.15616 0.93161 0.61566 0.0
O375 O 0.19362 0.95429 0.64408 0.0
O376 O 0.18384 0.96938 0.62283 0.0
N377 N 0.11359 0.97023 0.64006 0.0
C378 C 0.10799 0.96951 0.65624 0.0
C379 C 0.09623 0.98141 0.66192 0.0
C380 C 0.09016 0.99375 0.65084 0.0
C381 C 0.09571 0.99392 0.63411 0.0
C382 C 0.10733 0.98165 0.62914 0.0
H383 H 0.11254 0.96001 0.66481 0.0
O384 O 0.16613 0.9793 0.6518 0.0
O385 O 0.14815 0.96853 0.63362 0.0
O386 O 0.15784 0.94486 0.65851 0.0
O387 O 0.13136 0.94106 0.64896 0.0
C388 C 0.09027 0.00585 0.62221 0.0
C389 C 0.0965 0.00532 0.6056 0.0
H390 H 0.11138 0.00042 0.57492 0.0
H391 H 0.13198 0.97783 0.56855 0.0
H392 H 0.0919 0.98111 0.67482 0.0
H393 H 0.08121 0.003 0.65531 0.0
H394 H 0.08138 0.01556 0.62572 0.0
H395 H 0.09231 0.01463 0.5966 0.0
Mn396 Mn 0.28903 0.9201 0.89036 0.0
Mn397 Mn 0.29217 0.87917 0.87949 0.0
C398 C 0.26668 0.90232 0.89544 0.0
C399 C 0.28271 0.94756 0.88225 0.0
C400 C 0.3083 0.89408 0.91083 0.0
O401 O 0.31005 0.91933 0.87587 0.0
O402 O 0.30874 0.89263 0.8664 0.0
C403 C 0.27987 0.88207 0.84451 0.0
N404 N 0.27856 0.87515 0.86012 0.0
C405 C 0.25457 0.85869 0.85177 0.0
C406 C 0.25574 0.86554 0.83557 0.0
C407 C 0.26843 0.87731 0.83194 0.0
C408 C 0.26633 0.86392 0.86378 0.0
H409 H 0.28955 0.8912 0.84172 0.0
C410 C 0.31536 0.90732 0.86668 0.0
O411 O 0.29232 0.94459 0.89513 0.0
O412 O 0.27737 0.93464 0.87386 0.0
N413 N 0.27702 0.86441 0.891 0.0
C414 C 0.27774 0.85885 0.9072 0.0
C415 C 0.26591 0.84701 0.91286 0.0
C416 C 0.25364 0.84081 0.90178 0.0
C417 C 0.25346 0.84634 0.88504 0.0
C418 C 0.26566 0.85805 0.88007 0.0
H419 H 0.28718 0.86351 0.91577 0.0
O420 O 0.26756 0.91683 0.9028 0.0
O421 O 0.27849 0.89898 0.88459 0.0
O422 O 0.30208 0.90886 0.90953 0.0
O423 O 0.30605 0.88243 0.89991 0.0
C424 C 0.24158 0.84079 0.87313 0.0
C425 C 0.2421 0.847 0.85652 0.0
H426 H 0.24691 0.86192 0.82584 0.0
H427 H 0.26936 0.88272 0.81949 0.0
H428 H 0.26621 0.84271 0.92577 0.0
H429 H 0.24443 0.8318 0.90624 0.0
H430 H 0.23193 0.83182 0.87663 0.0
H431 H 0.23282 0.84274 0.84751 0.0
Mn432 Mn 0.32456 0.95606 0.35386 0.0
Mn433 Mn 0.36546 0.95311 0.36477 0.0
C434 C 0.34225 0.97844 0.34867 0.0
C435 C 0.29709 0.9623 0.36192 0.0
C436 C 0.35062 0.9367 0.33355 0.0
O437 O 0.32539 0.93514 0.36849 0.0
O438 O 0.35204 0.93666 0.37803 0.0
C439 C 0.36257 0.96575 0.39963 0.0
N440 N 0.36948 0.96692 0.38401 0.0
C441 C 0.38596 0.99098 0.39213 0.0
C442 C 0.37913 0.98996 0.40836 0.0
C443 C 0.36735 0.97731 0.4121 0.0
C444 C 0.38072 0.97912 0.38023 0.0
H445 H 0.35345 0.95611 0.40253 0.0
C446 C 0.33738 0.92997 0.37777 0.0
O447 O 0.3001 0.95262 0.34909 0.0
O448 O 0.30996 0.96776 0.37029 0.0
N449 N 0.38018 0.96819 0.3531 0.0
C450 C 0.38569 0.96735 0.33689 0.0
C451 C 0.39753 0.97913 0.3311 0.0
C452 C 0.40376 0.99148 0.34209 0.0
C453 C 0.39827 0.9918 0.35883 0.0
C454 C 0.38656 0.97964 0.36392 0.0
H455 H 0.38102 0.95784 0.32839 0.0
O456 O 0.32776 0.97747 0.3413 0.0
O457 O 0.34562 0.96671 0.35959 0.0
O458 O 0.33585 0.94293 0.33477 0.0
O459 O 0.36224 0.93902 0.34447 0.0
C460 C 0.40384 0.00378 0.37064 0.0
C461 C 0.39765 0.00341 0.38726 0.0
H462 H 0.38276 -0.00113 0.418 0.0
H463 H 0.36196 0.9765 0.42457 0.0
H464 H 0.40179 0.97873 0.31819 0.0
H465 H 0.41277 0.00065 0.33753 0.0
H466 H 0.4128 0.0134 0.36704 0.0
H467 H 0.40193 0.01276 0.39619 0.0
Mn468 Mn 0.28916 0.07542 0.60353 0.0
Mn469 Mn 0.29229 0.11634 0.61441 0.0
C470 C 0.26687 0.0932 0.59836 0.0
C471 C 0.28276 0.04798 0.61161 0.0
C472 C 0.30864 0.10141 0.5832 0.0
O473 O 0.31007 0.0762 0.61817 0.0
O474 O 0.30869 0.10288 0.62768 0.0
C475 C 0.27965 0.11354 0.64929 0.0
N476 N 0.2785 0.12042 0.63366 0.0
C477 C 0.25447 0.13692 0.64176 0.0
C478 C 0.25547 0.13012 0.65799 0.0
C479 C 0.2681 0.11835 0.66176 0.0
C480 C 0.26633 0.13166 0.62987 0.0
H481 H 0.28928 0.10442 0.6522 0.0
C482 C 0.31529 0.0882 0.62744 0.0
O483 O 0.29246 0.05093 0.59878 0.0
O484 O 0.27738 0.06089 0.61997 0.0
N485 N 0.27727 0.13107 0.60274 0.0
C486 C 0.27811 0.13654 0.58651 0.0
C487 C 0.26634 0.14836 0.58071 0.0
C488 C 0.25399 0.15461 0.59168 0.0
C489 C 0.25367 0.14916 0.60844 0.0
C490 C 0.26582 0.13747 0.61355 0.0
H491 H 0.2876 0.13184 0.57803 0.0
O492 O 0.26777 0.0787 0.59098 0.0
O493 O 0.27862 0.09652 0.60926 0.0
O494 O 0.30235 0.08665 0.58444 0.0
O495 O 0.30636 0.11305 0.59411 0.0
C496 C 0.2417 0.15475 0.62024 0.0
C497 C 0.24206 0.14859 0.63688 0.0
H498 H 0.24656 0.13376 0.66763 0.0
H499 H 0.2689 0.11297 0.67423 0.0
H500 H 0.26674 0.15259 0.56779 0.0
H501 H 0.24483 0.16359 0.58712 0.0
H502 H 0.23208 0.16369 0.61663 0.0
H503 H 0.2327 0.15289 0.6458 0.0
Mn504 Mn 0.16989 0.03874 0.85469 0.0
Mn505 Mn 0.129 0.04178 0.86569 0.0
C506 C 0.15215 0.01637 0.84961 0.0
C507 C 0.19738 0.03248 0.86272 0.0
C508 C 0.14379 0.05801 0.83434 0.0
O509 O 0.16911 0.05973 0.86922 0.0
O510 O 0.14246 0.05834 0.87879 0.0
C511 C 0.13201 0.02937 0.90062 0.0
N512 N 0.12506 0.0281 0.88503 0.0
C513 C 0.10867 0.00404 0.89336 0.0
C514 C 0.11556 0.00517 0.90954 0.0
C515 C 0.12731 0.01787 0.91317 0.0
C516 C 0.11384 0.01585 0.88137 0.0
H517 H 0.14112 0.03906 0.90342 0.0
C518 C 0.15713 0.06499 0.87847 0.0
O519 O 0.19436 0.04211 0.84986 0.0
O520 O 0.1845 0.02708 0.87114 0.0
N521 N 0.11424 0.02664 0.85418 0.0
C522 C 0.10863 0.0274 0.838 0.0
C523 C 0.09679 0.01557 0.83234 0.0
C524 C 0.09066 0.00324 0.84341 0.0
C525 C 0.09624 0.00301 0.86012 0.0
C526 C 0.10794 0.01522 0.86509 0.0
H527 H 0.11324 0.03689 0.82945 0.0
O528 O 0.16665 0.01728 0.84223 0.0
O529 O 0.14882 0.02815 0.8605 0.0
O530 O 0.15858 0.0518 0.83557 0.0
O531 O 0.13218 0.05573 0.84529 0.0
C532 C 0.09074 0.99108 0.87202 0.0
C533 C 0.097 0.99156 0.88861 0.0
H534 H 0.11198 0.99631 0.91925 0.0
H535 H 0.13274 0.01878 0.92561 0.0
H536 H 0.09246 0.01591 0.81945 0.0
H537 H 0.08166 0.99403 0.83895 0.0
H538 H 0.08179 0.98142 0.86851 0.0
H539 H 0.09278 0.98224 0.89761 0.0
Mn540 Mn 0.20629 0.92033 0.1048 0.0
Mn541 Mn 0.20341 0.87939 0.11571 0.0
C542 C 0.22875 0.90273 0.09972 0.0
C543 C 0.21238 0.94785 0.11286 0.0
C544 C 0.1872 0.89413 0.08436 0.0
O545 O 0.18529 0.91941 0.1193 0.0
O546 O 0.18679 0.89275 0.12882 0.0
C547 C 0.21575 0.88242 0.15066 0.0
N548 N 0.21707 0.87548 0.13507 0.0
C549 C 0.24112 0.85915 0.14341 0.0
C550 C 0.23994 0.86601 0.15961 0.0
C551 C 0.22722 0.87773 0.16323 0.0
C552 C 0.22933 0.8643 0.13141 0.0
H553 H 0.20604 0.89151 0.15346 0.0
C554 C 0.18008 0.90739 0.12853 0.0
O555 O 0.20279 0.94477 0.09999 0.0
O556 O 0.21784 0.93501 0.12127 0.0
N557 N 0.21861 0.86471 0.10419 0.0
C558 C 0.21789 0.85911 0.08801 0.0
C559 C 0.22975 0.8473 0.08235 0.0
C560 C 0.24204 0.84117 0.09344 0.0
C561 C 0.24222 0.84674 0.11016 0.0
C562 C 0.23001 0.85842 0.11512 0.0
H563 H 0.20843 0.8637 0.07944 0.0
O564 O 0.22778 0.91724 0.09236 0.0
O565 O 0.21697 0.89931 0.11058 0.0
O566 O 0.19334 0.90895 0.08564 0.0
O567 O 0.18948 0.88252 0.09529 0.0
C568 C 0.25413 0.84126 0.12207 0.0
C569 C 0.25361 0.8475 0.13867 0.0
H570 H 0.24878 0.86245 0.16933 0.0
H571 H 0.22628 0.88316 0.17568 0.0
H572 H 0.22944 0.84297 0.06945 0.0
H573 H 0.25126 0.83219 0.08898 0.0
H574 H 0.2638 0.83232 0.11857 0.0
H575 H 0.26291 0.84329 0.14768 0.0
Mn576 Mn 0.14093 0.32455 0.03932 0.0
Mn577 Mn 0.13009 0.3655 0.04222 0.0
C578 C 0.1461 0.34219 0.01691 0.0
C579 C 0.13281 0.29706 0.03314 0.0
C580 C 0.16135 0.35066 0.05855 0.0
O581 O 0.12635 0.32546 0.06027 0.0
O582 O 0.11685 0.35213 0.05874 0.0
C583 C 0.09516 0.3626 0.02973 0.0
N584 N 0.1108 0.3695 0.02849 0.0
C585 C 0.10261 0.38594 0.00446 0.0
C586 C 0.08637 0.37912 0.00555 0.0
C587 C 0.08265 0.36736 0.01822 0.0
C588 C 0.11455 0.38071 0.01628 0.0
H589 H 0.09229 0.35349 0.03939 0.0
C590 C 0.11711 0.33749 0.06545 0.0
O591 O 0.14567 0.30009 0.04277 0.0
O592 O 0.12444 0.30994 0.0277 0.0
N593 N 0.14173 0.38018 0.0271 0.0
C594 C 0.15796 0.38568 0.02787 0.0
C595 C 0.16372 0.3975 0.01607 0.0
C596 C 0.1527 0.40371 0.00376 0.0
C597 C 0.13594 0.39823 0.00352 0.0
C598 C 0.13087 0.38654 0.01569 0.0
H599 H 0.16648 0.38102 0.03735 0.0
O600 O 0.15345 0.32769 0.01788 0.0
O601 O 0.13521 0.3456 0.02866 0.0
O602 O 0.16008 0.33586 0.05236 0.0
O603 O 0.15043 0.36228 0.05623 0.0
C604 C 0.12409 0.40379 0.99159 0.0
C605 C 0.10745 0.3976 0.99202 0.0
H606 H 0.0767 0.38274 0.99668 0.0
H607 H 0.07018 0.36198 0.01909 0.0
H608 H 0.17665 0.40176 0.01642 0.0
H609 H 0.15723 0.4127 0.99458 0.0
H610 H 0.12767 0.41273 0.98195 0.0
H611 H 0.09849 0.40187 0.9827 0.0
Mn612 Mn 0.64058 0.17059 0.95563 0.0
Mn613 Mn 0.62974 0.12964 0.95261 0.0
C614 C 0.64581 0.15288 0.97796 0.0
C615 C 0.6325 0.19806 0.9619 0.0
C616 C 0.66096 0.14459 0.93625 0.0
O617 O 0.62594 0.16975 0.93474 0.0
O618 O 0.61648 0.14305 0.93616 0.0
C619 C 0.59483 0.13245 0.9652 0.0
N620 N 0.61047 0.12557 0.96637 0.0
C621 C 0.60231 0.10904 0.99037 0.0
C622 C 0.58608 0.11584 0.98934 0.0
C623 C 0.58234 0.12763 0.97672 0.0
C624 C 0.61424 0.11432 0.97854 0.0
H625 H 0.59194 0.14158 0.95557 0.0
C626 C 0.6167 0.15772 0.92953 0.0
O627 O 0.64533 0.19506 0.95222 0.0
O628 O 0.62414 0.18517 0.96736 0.0
N629 N 0.64141 0.11493 0.96766 0.0
C630 C 0.65763 0.10944 0.96682 0.0
C631 C 0.66341 0.0976 0.97858 0.0
C632 C 0.6524 0.09133 0.99089 0.0
C633 C 0.63564 0.0968 0.9912 0.0
C634 C 0.63056 0.10851 0.97907 0.0
H635 H 0.66614 0.11415 0.95735 0.0
O636 O 0.65316 0.1674 0.977 0.0
O637 O 0.63488 0.1495 0.96623 0.0
O638 O 0.65969 0.15936 0.94248 0.0
O639 O 0.65007 0.13293 0.93856 0.0
C640 C 0.62381 0.09118 0.00314 0.0
C641 C 0.60718 0.09735 0.00276 0.0
H642 H 0.57642 0.11218 -0.00178 0.0
H643 H 0.56986 0.133 0.9759 0.0
H644 H 0.67633 0.09336 0.97818 0.0
H645 H 0.65695 0.08232 4e-05 0.0
H646 H 0.6274 0.08221 0.01274 0.0
H647 H 0.59823 0.09303 0.01209 0.0
Mn648 Mn 0.07492 0.39078 0.20607 0.0
Mn649 Mn 0.11591 0.3801 0.20342 0.0
C650 C 0.09239 0.39606 0.22857 0.0
C651 C 0.04743 0.38256 0.21208 0.0
C652 C 0.10104 0.41126 0.18691 0.0
O653 O 0.07602 0.37614 0.18517 0.0
O654 O 0.1027 0.36674 0.18688 0.0
C655 C 0.11311 0.34518 0.21603 0.0
N656 N 0.11992 0.36086 0.21725 0.0
C657 C 0.13624 0.35284 0.24141 0.0
C658 C 0.1295 0.33656 0.24034 0.0
C659 C 0.11786 0.33273 0.22761 0.0
C660 C 0.13103 0.36472 0.22951 0.0
H661 H 0.10409 0.34223 0.20632 0.0
C662 C 0.0881 0.36692 0.18009 0.0
O663 O 0.05047 0.39541 0.20245 0.0
O664 O 0.06029 0.37426 0.21764 0.0
N665 N 0.13042 0.39187 0.2186 0.0
C666 C 0.13584 0.40813 0.21781 0.0
C667 C 0.14754 0.41399 0.22967 0.0
C668 C 0.15373 0.40304 0.24205 0.0
C669 C 0.14834 0.38624 0.24232 0.0
C670 C 0.13677 0.38107 0.23009 0.0
H671 H 0.1312 0.4166 0.20828 0.0
O672 O 0.07787 0.40336 0.22749 0.0
O673 O 0.09591 0.38516 0.21686 0.0
O674 O 0.08622 0.40995 0.19304 0.0
O675 O 0.11269 0.40039 0.18932 0.0
C676 C 0.15387 0.37446 0.25433 0.0
C677 C 0.14778 0.35778 0.25391 0.0
H678 H 0.13311 0.32693 0.24926 0.0
H679 H 0.11255 0.32022 0.22675 0.0
H680 H 0.15173 0.42694 0.2293 0.0
H681 H 0.16263 0.40765 0.25127 0.0
H682 H 0.16273 0.37812 0.26401 0.0
H683 H 0.15203 0.34887 0.26329 0.0
Mn684 Mn 0.85453 0.82531 0.45624 0.0
Mn685 Mn 0.86526 0.8663 0.45353 0.0
C686 C 0.84933 0.84281 0.47874 0.0
C687 C 0.86274 0.79782 0.46222 0.0
C688 C 0.83405 0.8514 0.43712 0.0
O689 O 0.86911 0.82638 0.4353 0.0
O690 O 0.87856 0.85307 0.43695 0.0
C691 C 0.9002 0.86352 0.46603 0.0
N692 N 0.88453 0.87033 0.46729 0.0
C693 C 0.89264 0.88669 0.49142 0.0
C694 C 0.90891 0.87995 0.4903 0.0
C695 C 0.91268 0.86829 0.47757 0.0
C696 C 0.88073 0.88146 0.47956 0.0
H697 H 0.90311 0.85449 0.45631 0.0
C698 C 0.87833 0.83845 0.43017 0.0
O699 O 0.84986 0.80085 0.45263 0.0
O700 O 0.87106 0.81069 0.46777 0.0
N701 N 0.85356 0.88085 0.46872 0.0
C702 C 0.83732 0.88628 0.46796 0.0
C703 C 0.8315 0.898 0.47983 0.0
C704 C 0.84249 0.90421 0.49218 0.0
C705 C 0.85927 0.8988 0.49241 0.0
C706 C 0.86439 0.88721 0.48018 0.0
H707 H 0.82882 0.88163 0.45846 0.0
O708 O 0.84202 0.82828 0.47769 0.0
O709 O 0.8602 0.84633 0.467 0.0
O710 O 0.83535 0.83659 0.44326 0.0
O711 O 0.84494 0.86306 0.43948 0.0
C712 C 0.87109 0.90435 0.50438 0.0
C713 C 0.88775 0.89826 0.50393 0.0
H714 H 0.91856 0.88357 0.4992 0.0
H715 H 0.92518 0.86297 0.47668 0.0
H716 H 0.81856 0.9022 0.47949 0.0
H717 H 0.83792 0.91313 0.50141 0.0
H718 H 0.86747 0.91323 0.51407 0.0
H719 H 0.89669 0.90252 0.51327 0.0
Mn720 Mn 0.92061 0.10469 0.20576 0.0
Mn721 Mn 0.87962 0.1153 0.20284 0.0
C722 C 0.90297 0.09938 0.22814 0.0
C723 C 0.94804 0.11295 0.21196 0.0
C724 C 0.89468 0.08417 0.18643 0.0
O725 O 0.91964 0.11931 0.18485 0.0
O726 O 0.89294 0.12869 0.18641 0.0
C727 C 0.88225 0.15022 0.21549 0.0
N728 N 0.87546 0.13453 0.21665 0.0
C729 C 0.8589 0.14252 0.24067 0.0
C730 C 0.86561 0.15881 0.23966 0.0
C731 C 0.87737 0.16266 0.22704 0.0
C732 C 0.86424 0.13065 0.22882 0.0
H733 H 0.89136 0.15319 0.20586 0.0
C734 C 0.90759 0.12853 0.17971 0.0
O735 O 0.94509 0.10009 0.2023 0.0
O736 O 0.93512 0.12124 0.21744 0.0
N737 N 0.86499 0.1035 0.21789 0.0
C738 C 0.85961 0.08724 0.21704 0.0
C739 C 0.8478 0.08135 0.2288 0.0
C740 C 0.84148 0.09229 0.24114 0.0
C741 C 0.84684 0.1091 0.24146 0.0
C742 C 0.85852 0.11428 0.22933 0.0
H743 H 0.86435 0.07877 0.20755 0.0
O744 O 0.91751 0.09211 0.22717 0.0
O745 O 0.89952 0.11027 0.21641 0.0
O746 O 0.90944 0.08549 0.19266 0.0
O747 O 0.883 0.09503 0.18875 0.0
C748 C 0.84117 0.12087 0.25343 0.0
C749 C 0.84724 0.13755 0.25307 0.0
H750 H 0.8619 0.16843 0.24856 0.0
H751 H 0.88267 0.17518 0.22623 0.0
H752 H 0.84364 0.06839 0.22839 0.0
H753 H 0.83249 0.08767 0.25028 0.0
H754 H 0.83223 0.11719 0.26303 0.0
H755 H 0.84288 0.14646 0.26241 0.0
Mn756 Mn 0.35438 0.67092 0.53917 0.0
Mn757 Mn 0.36526 0.62999 0.5421 0.0
C758 C 0.34919 0.65324 0.5168 0.0
C759 C 0.36246 0.69841 0.53295 0.0
C760 C 0.33403 0.64484 0.5585 0.0
O761 O 0.36901 0.67005 0.56007 0.0
O762 O 0.37854 0.64339 0.55854 0.0
C763 C 0.40015 0.63285 0.52947 0.0
N764 N 0.38451 0.62596 0.5283 0.0
C765 C 0.39263 0.60946 0.50428 0.0
C766 C 0.40887 0.61628 0.50529 0.0
C767 C 0.41263 0.62806 0.51792 0.0
C768 C 0.38072 0.61472 0.51613 0.0
H769 H 0.40305 0.64198 0.5391 0.0
C770 C 0.37829 0.65805 0.56522 0.0
O771 O 0.34962 0.69537 0.54262 0.0
O772 O 0.37083 0.68554 0.52748 0.0
N773 N 0.35357 0.61528 0.52705 0.0
C774 C 0.33734 0.60978 0.52789 0.0
C775 C 0.33154 0.59795 0.51612 0.0
C776 C 0.34253 0.5917 0.50379 0.0
C777 C 0.3593 0.59718 0.50347 0.0
C778 C 0.3644 0.60888 0.51561 0.0
H779 H 0.32884 0.61447 0.53738 0.0
O780 O 0.34183 0.66774 0.51777 0.0
O781 O 0.3601 0.64986 0.52852 0.0
O782 O 0.33527 0.65962 0.55228 0.0
O783 O 0.34495 0.63322 0.55618 0.0
C784 C 0.37111 0.59159 0.49151 0.0
C785 C 0.38775 0.59777 0.49187 0.0
H786 H 0.41852 0.61264 0.49639 0.0
H787 H 0.42511 0.63344 0.51873 0.0
H788 H 0.31862 0.59369 0.51653 0.0
H789 H 0.33797 0.58269 0.49464 0.0
H790 H 0.3675 0.58263 0.4819 0.0
H791 H 0.39668 0.59348 0.48253 0.0
Mn792 Mn 0.07488 0.6047 0.28924 0.0
Mn793 Mn 0.1159 0.61525 0.29209 0.0
C794 C 0.09247 0.59933 0.26684 0.0
C795 C 0.04746 0.61299 0.28309 0.0
C796 C 0.10077 0.58419 0.30859 0.0
O797 O 0.07593 0.61937 0.31012 0.0
O798 O 0.10265 0.62872 0.30851 0.0
C799 C 0.11339 0.65014 0.27936 0.0
N800 N 0.12012 0.63443 0.27823 0.0
C801 C 0.13668 0.64232 0.25416 0.0
C802 C 0.13003 0.65863 0.25515 0.0
C803 C 0.11831 0.66254 0.26778 0.0
C804 C 0.13131 0.63049 0.26606 0.0
H805 H 0.10431 0.65316 0.289 0.0
C806 C 0.08801 0.62859 0.31523 0.0
O807 O 0.0504 0.60014 0.29276 0.0
O808 O 0.06039 0.62124 0.27757 0.0
N809 N 0.13046 0.60337 0.27704 0.0
C810 C 0.13576 0.58709 0.2779 0.0
C811 C 0.14751 0.58114 0.26614 0.0
C812 C 0.15387 0.59204 0.25377 0.0
C813 C 0.14858 0.60886 0.25343 0.0
C814 C 0.13696 0.61411 0.26557 0.0
H815 H 0.13099 0.57866 0.28742 0.0
O816 O 0.07792 0.59207 0.26785 0.0
O817 O 0.09597 0.61024 0.27855 0.0
O818 O 0.08601 0.58552 0.30236 0.0
O819 O 0.11248 0.59502 0.30624 0.0
C820 C 0.15429 0.62058 0.24142 0.0
C821 C 0.14829 0.63728 0.24176 0.0
H822 H 0.13377 0.66822 0.24621 0.0
H823 H 0.11306 0.67507 0.26857 0.0
H824 H 0.15162 0.56817 0.26656 0.0
H825 H 0.16281 0.58736 0.24462 0.0
H826 H 0.16319 0.61686 0.23181 0.0
H827 H 0.15267 0.64615 0.23238 0.0
Mn828 Mn 0.42079 0.39076 0.78887 0.0
Mn829 Mn 0.37981 0.37998 0.79161 0.0
C830 C 0.40325 0.39604 0.76642 0.0
C831 C 0.44827 0.38259 0.78279 0.0
C832 C 0.3947 0.41116 0.80811 0.0
O833 O 0.41975 0.37611 0.80976 0.0
O834 O 0.39308 0.36664 0.8081 0.0
C835 C 0.38263 0.34509 0.77895 0.0
N836 N 0.37579 0.36075 0.77777 0.0
C837 C 0.3594 0.35269 0.75366 0.0
C838 C 0.36617 0.33643 0.75469 0.0
C839 C 0.37786 0.33263 0.76737 0.0
C840 C 0.36463 0.36458 0.76555 0.0
H841 H 0.3917 0.34216 0.78862 0.0
C842 C 0.40769 0.36686 0.81486 0.0
O843 O 0.44524 0.39544 0.79244 0.0
O844 O 0.43539 0.37427 0.77724 0.0
N845 N 0.36523 0.39172 0.7765 0.0
C846 C 0.35977 0.40795 0.77734 0.0
C847 C 0.34801 0.41379 0.76554 0.0
C848 C 0.34179 0.40282 0.75316 0.0
C849 C 0.34723 0.38605 0.75284 0.0
C850 C 0.35886 0.38091 0.76502 0.0
H851 H 0.36443 0.41643 0.78686 0.0
O852 O 0.41778 0.40336 0.76747 0.0
O853 O 0.39976 0.38512 0.77812 0.0
O854 O 0.4095 0.4099 0.80195 0.0
O855 O 0.38305 0.40027 0.80572 0.0
C856 C 0.34167 0.37426 0.74084 0.0
C857 C 0.34779 0.35761 0.74121 0.0
H858 H 0.36254 0.3268 0.74576 0.0
H859 H 0.38321 0.32014 0.76819 0.0
H860 H 0.34378 0.42672 0.76594 0.0
H861 H 0.33284 0.40741 0.74398 0.0
H862 H 0.33276 0.3779 0.7312 0.0
H863 H 0.34352 0.34869 0.73184 0.0
Mn864 Mn 0.95591 0.85402 0.67123 0.0
Mn865 Mn 0.95294 0.86536 0.63045 0.0
C866 C 0.97824 0.84896 0.65345 0.0
C867 C 0.96227 0.86168 0.69878 0.0
C868 C 0.93648 0.834 0.64499 0.0
O869 O 0.93504 0.86876 0.67059 0.0
O870 O 0.93651 0.87849 0.64402 0.0
C871 C 0.96561 0.90022 0.63369 0.0
N872 N 0.96675 0.88466 0.62662 0.0
C873 C 0.99078 0.89297 0.6102 0.0
C874 C 0.98978 0.90914 0.6172 0.0
C875 C 0.97716 0.91276 0.62903 0.0
C876 C 0.97892 0.881 0.61533 0.0
H877 H 0.95598 0.90302 0.64286 0.0
C878 C 0.92987 0.87814 0.65868 0.0
O879 O 0.95252 0.84894 0.69561 0.0
O880 O 0.96771 0.87024 0.68602 0.0
N881 N 0.96799 0.85384 0.6156 0.0
C882 C 0.96714 0.83767 0.60994 0.0
C883 C 0.9789 0.83201 0.59803 0.0
C884 C 0.99124 0.84307 0.5919 0.0
C885 C 0.99156 0.85978 0.59755 0.0
C886 C 0.97943 0.86475 0.60932 0.0
H887 H 0.95764 0.82912 0.61454 0.0
O888 O 0.97725 0.84142 0.66785 0.0
O889 O 0.96655 0.85997 0.65022 0.0
O890 O 0.94269 0.8351 0.65977 0.0
O891 O 0.93884 0.84501 0.63347 0.0
C892 C 0.00353 0.87166 0.59209 0.0
C893 C 0.00318 0.88823 0.59845 0.0
H894 H -0.00132 0.91883 0.61366 0.0
H895 H 0.97636 0.92517 0.63456 0.0
H896 H 0.97849 0.81913 0.59365 0.0
H897 H 0.00038 0.83861 0.58284 0.0
H898 H 0.01313 0.86815 0.58308 0.0
H899 H 0.01253 0.89722 0.59425 0.0
Mn900 Mn 0.89085 0.20589 0.42056 0.0
Mn901 Mn 0.8802 0.20287 0.37962 0.0
C902 C 0.89618 0.22824 0.40288 0.0
C903 C 0.88262 0.21218 0.44796 0.0
C904 C 0.9113 0.18643 0.39468 0.0
O905 O 0.87619 0.18497 0.41964 0.0
O906 O 0.86678 0.18648 0.39296 0.0
C907 C 0.84533 0.21559 0.38222 0.0
N908 N 0.86102 0.21671 0.37543 0.0
C909 C 0.85308 0.24072 0.35883 0.0
C910 C 0.83679 0.23976 0.36554 0.0
C911 C 0.83292 0.22716 0.37731 0.0
C912 C 0.86492 0.22885 0.36419 0.0
H913 H 0.84234 0.20598 0.39134 0.0
C914 C 0.86695 0.17981 0.40761 0.0
O915 O 0.89546 0.20249 0.44503 0.0
O916 O 0.87434 0.21762 0.43504 0.0
N917 N 0.89203 0.21788 0.36497 0.0
C918 C 0.9083 0.21701 0.3596 0.0
C919 C 0.91421 0.22874 0.34779 0.0
C920 C 0.9033 0.24108 0.34144 0.0
C921 C 0.8865 0.24144 0.34679 0.0
C922 C 0.88128 0.22933 0.35847 0.0
H923 H 0.91674 0.20751 0.36437 0.0
O924 O 0.90347 0.22729 0.41741 0.0
O925 O 0.88527 0.2165 0.39947 0.0
O926 O 0.91001 0.19272 0.40942 0.0
O927 O 0.90044 0.18874 0.38301 0.0
C928 C 0.87476 0.25342 0.34109 0.0
C929 C 0.85807 0.2531 0.34715 0.0
H930 H 0.8272 0.24867 0.36181 0.0
H931 H 0.8204 0.22638 0.38261 0.0
H932 H 0.92717 0.22831 0.34364 0.0
H933 H 0.90794 0.25021 0.33245 0.0
H934 H 0.87845 0.263 0.33214 0.0
H935 H 0.8492 0.26245 0.34278 0.0
Mn936 Mn 0.53946 0.14059 0.17005 0.0
Mn937 Mn 0.54231 0.12992 0.12909 0.0
C938 C 0.51708 0.14597 0.15245 0.0
C939 C 0.53326 0.13239 0.19748 0.0
C940 C 0.5589 0.16098 0.14411 0.0
O941 O 0.56029 0.12586 0.16906 0.0
O942 O 0.55869 0.11646 0.14237 0.0
C943 C 0.52948 0.09506 0.13173 0.0
N944 N 0.52839 0.11075 0.12494 0.0
C945 C 0.50431 0.10285 0.10843 0.0
C946 C 0.50524 0.08656 0.11514 0.0
C947 C 0.51786 0.08267 0.12687 0.0
C948 C 0.51623 0.11467 0.11375 0.0
H949 H 0.5391 0.09206 0.14082 0.0
C950 C 0.56539 0.11661 0.15701 0.0
O951 O 0.54298 0.14521 0.1945 0.0
O952 O 0.52771 0.12411 0.18459 0.0
N953 N 0.5273 0.14177 0.11449 0.0
C954 C 0.52821 0.15804 0.10912 0.0
C955 C 0.51647 0.16397 0.09735 0.0
C956 C 0.50407 0.15307 0.09104 0.0
C957 C 0.50367 0.13627 0.09639 0.0
C958 C 0.51579 0.13104 0.10804 0.0
H959 H 0.53775 0.16646 0.11386 0.0
O960 O 0.5181 0.15326 0.16698 0.0
O961 O 0.52876 0.13502 0.14899 0.0
O962 O 0.55266 0.1597 0.15887 0.0
O963 O 0.55652 0.15013 0.13243 0.0
C964 C 0.49164 0.12455 0.09074 0.0
C965 C 0.49192 0.10787 0.0968 0.0
H966 H 0.49628 0.07698 0.11144 0.0
H967 H 0.5186 0.07015 0.13216 0.0
H968 H 0.51693 0.17692 0.09319 0.0
H969 H 0.49494 0.15774 0.08208 0.0
H970 H 0.48204 0.12826 0.08182 0.0
H971 H 0.48252 0.099 0.09246 0.0
Mn972 Mn 0.60668 0.78952 0.91929 0.0
Mn973 Mn 0.61579 0.79166 0.87786 0.0
C974 C 0.60015 0.76711 0.90208 0.0
C975 C 0.61532 0.78322 0.94656 0.0
C976 C 0.58552 0.80879 0.89365 0.0
O977 O 0.62216 0.80983 0.91775 0.0
O978 O 0.62933 0.80851 0.89042 0.0
C979 C 0.65084 0.77932 0.87982 0.0
N980 N 0.63499 0.77789 0.8735 0.0
C981 C 0.64274 0.75356 0.85725 0.0
C982 C 0.65918 0.75484 0.8635 0.0
C983 C 0.66323 0.76776 0.87487 0.0
C984 C 0.63093 0.76545 0.86265 0.0
H985 H 0.65397 0.7892 0.88861 0.0
C986 C 0.63044 0.81511 0.90507 0.0
O987 O 0.6028 0.79336 0.94381 0.0
O988 O 0.62311 0.77733 0.93351 0.0
N989 N 0.60375 0.77622 0.86385 0.0
C990 C 0.58737 0.77689 0.85883 0.0
C991 C 0.58129 0.76487 0.8474 0.0
C992 C 0.59215 0.75246 0.84106 0.0
C993 C 0.60906 0.75232 0.84604 0.0
C994 C 0.61444 0.76471 0.85736 0.0
H995 H 0.57898 0.78644 0.86359 0.0
O996 O 0.59323 0.76856 0.91675 0.0
O997 O 0.61133 0.77843 0.89816 0.0
O998 O 0.58761 0.80323 0.90859 0.0
O999 O 0.59558 0.80569 0.88147 0.0
C1000 C 0.62076 0.74031 0.84033 0.0
C1001 C 0.63758 0.74089 0.84597 0.0
H1002 H 0.66877 0.74593 0.85973 0.0
H1003 H 0.67587 0.76878 0.87981 0.0
H1004 H 0.56825 0.76513 0.84353 0.0
H1005 H 0.58737 0.74312 0.83237 0.0
H1006 H 0.61694 0.73051 0.83167 0.0
H1007 H 0.64643 0.73152 0.84158 0.0
Mn1008 Mn 0.95592 0.141 0.82473 0.0
Mn1009 Mn 0.95322 0.12981 0.86558 0.0
C1010 C 0.97832 0.14624 0.84235 0.0
C1011 C 0.96218 0.13332 0.79716 0.0
C1012 C 0.93659 0.16105 0.85106 0.0
O1013 O 0.93512 0.12614 0.82555 0.0
O1014 O 0.93671 0.1166 0.85218 0.0
C1015 C 0.9659 0.09497 0.86235 0.0
N1016 N 0.96708 0.11055 0.86936 0.0
C1017 C 0.99124 0.10236 0.88561 0.0
C1018 C 0.99021 0.08617 0.87866 0.0
C1019 C 0.97751 0.08248 0.86695 0.0
C1020 C 0.97933 0.11428 0.88054 0.0
H1021 H 0.95621 0.09212 0.85327 0.0
C1022 C 0.93001 0.11682 0.83755 0.0
O1023 O 0.95237 0.146 0.80037 0.0
O1024 O 0.96772 0.12482 0.80991 0.0
N1025 N 0.96834 0.14141 0.88029 0.0
C1026 C 0.9675 0.15759 0.88592 0.0
C1027 C 0.97934 0.16332 0.89772 0.0
C1028 C 0.99174 0.15231 0.90378 0.0
C1029 C 0.99206 0.13559 0.89816 0.0
C1030 C 0.97985 0.13056 0.8865 0.0
H1031 H 0.95796 0.1661 0.88138 0.0
O1032 O 0.97722 0.15374 0.82794 0.0
O1033 O 0.96669 0.13518 0.84569 0.0
O1034 O 0.94268 0.15989 0.83622 0.0
O1035 O 0.93908 0.15011 0.86261 0.0
C1036 C 0.00409 0.12376 0.90356 0.0
C1037 C 0.00371 0.10718 0.89724 0.0
H1038 H -0.00084 0.07652 0.88216 0.0
H1039 H 0.97668 0.07004 0.86147 0.0
H1040 H 0.97893 0.17621 0.90208 0.0
H1041 H 0.00095 0.15682 0.91275 0.0
H1042 H 0.01375 0.12732 0.91247 0.0
H1043 H 0.01311 0.09823 0.90139 0.0
Mn1044 Mn 0.60458 0.20624 0.57393 0.0
Mn1045 Mn 0.6154 0.20344 0.61485 0.0
C1046 C 0.59934 0.22868 0.59152 0.0
C1047 C 0.61272 0.21238 0.54646 0.0
C1048 C 0.58419 0.18697 0.60001 0.0
O1049 O 0.61921 0.18533 0.57488 0.0
O1050 O 0.6287 0.18694 0.60152 0.0
C1051 C 0.65029 0.21608 0.61197 0.0
N1052 N 0.63465 0.21726 0.61885 0.0
C1053 C 0.64276 0.24137 0.63527 0.0
C1054 C 0.659 0.24033 0.62846 0.0
C1055 C 0.66277 0.22766 0.61673 0.0
C1056 C 0.63085 0.22948 0.63004 0.0
H1057 H 0.6532 0.20641 0.60289 0.0
C1058 C 0.62847 0.1802 0.5869 0.0
O1059 O 0.59988 0.20272 0.54949 0.0
O1060 O 0.62106 0.2179 0.55932 0.0
N1061 N 0.6037 0.21854 0.62949 0.0
C1062 C 0.58748 0.2177 0.63499 0.0
C1063 C 0.58168 0.2295 0.64678 0.0
C1064 C 0.59266 0.24187 0.65299 0.0
C1065 C 0.60942 0.24219 0.64752 0.0
C1066 C 0.61453 0.23002 0.63585 0.0
H1067 H 0.57899 0.20818 0.63033 0.0
O1068 O 0.59202 0.22766 0.57702 0.0
O1069 O 0.61026 0.21697 0.59495 0.0
O1070 O 0.58546 0.19315 0.58522 0.0
O1071 O 0.59509 0.18933 0.61163 0.0
C1072 C 0.62123 0.25418 0.65307 0.0
C1073 C 0.63787 0.25381 0.6469 0.0
H1074 H 0.66865 0.24926 0.63208 0.0
H1075 H 0.67525 0.22683 0.61136 0.0
H1076 H 0.56875 0.2291 0.65103 0.0
H1077 H 0.5881 0.25105 0.66197 0.0
H1078 H 0.61762 0.26382 0.662 0.0
H1079 H 0.6468 0.26318 0.65117 0.0
Mn1080 Mn 0.53891 0.85492 0.32459 0.0
Mn1081 Mn 0.54149 0.86577 0.36553 0.0
C1082 C 0.51637 0.84969 0.34205 0.0
C1083 C 0.53296 0.86306 0.29709 0.0
C1084 C 0.558 0.83454 0.35078 0.0
O1085 O 0.55984 0.86955 0.32566 0.0
O1086 O 0.5581 0.87905 0.3523 0.0
C1087 C 0.52893 0.90067 0.36257 0.0
N1088 N 0.52768 0.88503 0.36944 0.0
C1089 C 0.50349 0.89316 0.38571 0.0
C1090 C 0.50459 0.9094 0.37891 0.0
C1091 C 0.51735 0.91316 0.36726 0.0
C1092 C 0.51538 0.88124 0.38056 0.0
H1093 H 0.53866 0.90357 0.35355 0.0
C1094 C 0.56492 0.87881 0.33772 0.0
O1095 O 0.54258 0.8502 0.30017 0.0
O1096 O 0.52738 0.8714 0.30992 0.0
N1097 N 0.52628 0.85408 0.38008 0.0
C1098 C 0.52706 0.83786 0.38559 0.0
C1099 C 0.51518 0.83207 0.39732 0.0
C1100 C 0.50279 0.84306 0.40345 0.0
C1101 C 0.50254 0.85983 0.39796 0.0
C1102 C 0.51479 0.86492 0.38637 0.0
H1103 H 0.5366 0.82936 0.381 0.0
O1104 O 0.51747 0.84235 0.32755 0.0
O1105 O 0.52808 0.86061 0.34555 0.0
O1106 O 0.55191 0.83579 0.33596 0.0
O1107 O 0.55558 0.84545 0.36239 0.0
C1108 C 0.49053 0.87165 0.40344 0.0
C1109 C 0.49097 0.88828 0.39727 0.0
H1110 H 0.49567 0.91906 0.38247 0.0
H1111 H 0.51823 0.92564 0.3619 0.0
H1112 H 0.51554 0.81915 0.40158 0.0
H1113 H 0.49355 0.83851 0.41237 0.0
H1114 H 0.48083 0.86804 0.41231 0.0
H1115 H 0.48159 0.89723 0.40148 0.0
Mn1116 Mn 0.89061 0.78909 0.07441 0.0
Mn1117 Mn 0.87973 0.79199 0.11531 0.0
C1118 C 0.89584 0.76671 0.09205 0.0
C1119 C 0.88251 0.78289 0.04694 0.0
C1120 C 0.91093 0.80847 0.10045 0.0
O1121 O 0.87596 0.80999 0.0753 0.0
O1122 O 0.86643 0.80844 0.10195 0.0
C1123 C 0.84485 0.7793 0.11246 0.0
N1124 N 0.86048 0.77816 0.11934 0.0
C1125 C 0.85238 0.75409 0.13582 0.0
C1126 C 0.83615 0.75509 0.129 0.0
C1127 C 0.83238 0.76773 0.11724 0.0
C1128 C 0.86428 0.76597 0.13056 0.0
H1129 H 0.84194 0.78894 0.10335 0.0
C1130 C 0.86668 0.81514 0.08731 0.0
O1131 O 0.89535 0.79258 0.04996 0.0
O1132 O 0.87417 0.77738 0.05981 0.0
N1133 N 0.89142 0.77694 0.12999 0.0
C1134 C 0.90764 0.77781 0.13549 0.0
C1135 C 0.91344 0.76604 0.14731 0.0
C1136 C 0.90246 0.75368 0.15355 0.0
C1137 C 0.8857 0.75334 0.14808 0.0
C1138 C 0.8806 0.76547 0.13638 0.0
H1139 H 0.91613 0.78732 0.13081 0.0
O1140 O 0.90319 0.7677 0.07754 0.0
O1141 O 0.88491 0.77842 0.09545 0.0
O1142 O 0.9097 0.80224 0.08568 0.0
O1143 O 0.90002 0.80612 0.11207 0.0
C1144 C 0.8739 0.74134 0.15366 0.0
C1145 C 0.85726 0.74168 0.14749 0.0
H1146 H 0.8265 0.74617 0.13264 0.0
H1147 H 0.81991 0.76852 0.11187 0.0
H1148 H 0.92636 0.76647 0.15156 0.0
H1149 H 0.90702 0.74453 0.16255 0.0
H1150 H 0.87751 0.73174 0.16261 0.0
H1151 H 0.84833 0.73232 0.15177 0.0
Mn1152 Mn 0.66942 0.95675 0.85621 0.0
Mn1153 Mn 0.62793 0.95487 0.86521 0.0
C1154 C 0.65236 0.97921 0.84952 0.0
C1155 C 0.69672 0.96291 0.86492 0.0
C1156 C 0.64372 0.93748 0.83509 0.0
O1157 O 0.6677 0.93654 0.87178 0.0
O1158 O 0.64035 0.93805 0.87889 0.0
C1159 C 0.62983 0.96744 0.90016 0.0
N1160 N 0.62357 0.96879 0.8843 0.0
C1161 C 0.60741 0.99324 0.89183 0.0
C1162 C 0.6136 0.99205 0.90829 0.0
C1163 C 0.62489 0.97912 0.91246 0.0
C1164 C 0.6128 0.98125 0.88011 0.0
H1165 H 0.63856 0.95755 0.90339 0.0
C1166 C 0.65497 0.93138 0.88006 0.0
O1167 O 0.69394 0.95273 0.85244 0.0
O1168 O 0.68368 0.96894 0.87262 0.0
N1169 N 0.61405 0.97029 0.85302 0.0
C1170 C 0.60908 0.96953 0.83664 0.0
C1171 C 0.59773 0.98156 0.83044 0.0
C1172 C 0.59142 0.99407 0.8412 0.0
C1173 C 0.59634 0.9943 0.85812 0.0
C1174 C 0.60757 0.9819 0.86361 0.0
H1175 H 0.61383 0.9599 0.82833 0.0
O1176 O 0.66706 0.97765 0.84267 0.0
O1177 O 0.64833 0.96796 0.86074 0.0
O1178 O 0.65869 0.943 0.83717 0.0
O1179 O 0.63152 0.94068 0.84511 0.0
C1180 C 0.59064 0.00641 0.86972 0.0
C1181 C 0.59622 0.00592 0.88655 0.0
H1182 H 0.60984 0.00105 0.9178 0.0
H1183 H 0.62978 0.97816 0.92512 0.0
H1184 H 0.59391 0.98122 0.81739 0.0
H1185 H 0.58278 0.00341 0.83634 0.0
H1186 H 0.58204 0.01623 0.86581 0.0
H1187 H 0.59184 0.01538 0.89533 0.0
Mn1188 Mn 0.78953 0.92069 0.60541 0.0
Mn1189 Mn 0.79227 0.87966 0.61601 0.0
C1190 C 0.76711 0.9031 0.6 0.0
C1191 C 0.78335 0.94816 0.61356 0.0
C1192 C 0.80884 0.89468 0.58495 0.0
O1193 O 0.81037 0.91967 0.62015 0.0
O1194 O 0.80876 0.89291 0.62939 0.0
C1195 C 0.77958 0.88235 0.65087 0.0
N1196 N 0.77842 0.87555 0.6352 0.0
C1197 C 0.7543 0.85908 0.64318 0.0
C1198 C 0.75531 0.8658 0.65945 0.0
C1199 C 0.76799 0.87752 0.6633 0.0
C1200 C 0.7662 0.86438 0.63133 0.0
H1201 H 0.78925 0.89143 0.65384 0.0
C1202 C 0.81547 0.90756 0.62932 0.0
O1203 O 0.7931 0.94515 0.60079 0.0
O1204 O 0.77779 0.93527 0.62185 0.0
N1205 N 0.77717 0.86508 0.60421 0.0
C1206 C 0.77802 0.85967 0.58797 0.0
C1207 C 0.76622 0.84791 0.58209 0.0
C1208 C 0.75384 0.84163 0.59302 0.0
C1209 C 0.75351 0.84701 0.6098 0.0
C1210 C 0.76568 0.85865 0.61498 0.0
H1211 H 0.78755 0.86438 0.57952 0.0
O1212 O 0.76819 0.91764 0.59273 0.0
O1213 O 0.77877 0.89961 0.61095 0.0
O1214 O 0.80271 0.90948 0.58631 0.0
O1215 O 0.80641 0.88297 0.59575 0.0
C1216 C 0.7415 0.84139 0.62156 0.0
C1217 C 0.74186 0.84746 0.63822 0.0
H1218 H 0.74638 0.86213 0.66906 0.0
H1219 H 0.7688 0.88282 0.6758 0.0
H1220 H 0.76663 0.84373 0.56915 0.0
H1221 H 0.74466 0.83268 0.58839 0.0
H1222 H 0.73186 0.83248 0.61788 0.0
H1223 H 0.73248 0.84314 0.64711 0.0
Mn1224 Mn 0.82428 0.03933 0.35432 0.0
Mn1225 Mn 0.86528 0.04204 0.36495 0.0
C1226 C 0.84179 0.01686 0.34897 0.0
C1227 C 0.79682 0.03327 0.36259 0.0
C1228 C 0.85033 0.0586 0.33387 0.0
O1229 O 0.82538 0.06023 0.36897 0.0
O1230 O 0.85206 0.05852 0.37837 0.0
C1231 C 0.86258 0.02929 0.39979 0.0
N1232 N 0.86937 0.02815 0.38411 0.0
C1233 C 0.8858 0.00401 0.39203 0.0
C1234 C 0.87908 0.00501 0.4083 0.0
C1235 C 0.86739 0.01768 0.41218 0.0
C1236 C 0.88052 0.01593 0.38021 0.0
H1237 H 0.85352 0.03896 0.40278 0.0
C1238 C 0.83746 0.0653 0.37821 0.0
O1239 O 0.79982 0.04293 0.34975 0.0
O1240 O 0.80972 0.0277 0.37084 0.0
N1241 N 0.87983 0.02694 0.35311 0.0
C1242 C 0.88522 0.02781 0.33686 0.0
C1243 C 0.89696 0.01601 0.33095 0.0
C1244 C 0.90322 0.00361 0.34185 0.0
C1245 C 0.89785 0.00327 0.35864 0.0
C1246 C 0.88624 0.01544 0.36385 0.0
H1247 H 0.88052 0.03736 0.32844 0.0
O1248 O 0.82724 0.01791 0.34171 0.0
O1249 O 0.84531 0.02856 0.35987 0.0
O1250 O 0.83553 0.05241 0.33517 0.0
O1251 O 0.86199 0.05622 0.34473 0.0
C1252 C 0.90346 0.99124 0.37036 0.0
C1253 C 0.89739 0.99157 0.38703 0.0
H1254 H 0.88274 0.99605 0.41789 0.0
H1255 H 0.86209 0.01847 0.42469 0.0
H1256 H 0.90113 0.01644 0.31801 0.0
H1257 H 0.91216 0.99444 0.3372 0.0
H1258 H 0.91235 0.9816 0.36667 0.0
H1259 H 0.90169 0.98217 0.3959 0.0
Mn1260 Mn 0.70597 0.07428 0.104 0.0
Mn1261 Mn 0.70299 0.11523 0.11476 0.0
C1262 C 0.72834 0.09196 0.09876 0.0
C1263 C 0.71219 0.04683 0.11219 0.0
C1264 C 0.6866 0.10024 0.08359 0.0
O1265 O 0.68503 0.07517 0.1186 0.0
O1266 O 0.68656 0.10185 0.12809 0.0
C1267 C 0.71564 0.11253 0.14962 0.0
N1268 N 0.71679 0.11937 0.13397 0.0
C1269 C 0.74081 0.13595 0.14201 0.0
C1270 C 0.7398 0.12919 0.15826 0.0
C1271 C 0.72718 0.1174 0.16207 0.0
C1272 C 0.72895 0.13062 0.13014 0.0
H1273 H 0.70601 0.1034 0.15256 0.0
C1274 C 0.67987 0.08719 0.12787 0.0
O1275 O 0.70254 0.04979 0.09933 0.0
O1276 O 0.71764 0.05975 0.1205 0.0
N1277 N 0.71803 0.12992 0.10301 0.0
C1278 C 0.71718 0.13535 0.08678 0.0
C1279 C 0.72893 0.14719 0.08094 0.0
C1280 C 0.74126 0.15351 0.09189 0.0
C1281 C 0.74159 0.1481 0.10866 0.0
C1282 C 0.72947 0.13639 0.11381 0.0
H1283 H 0.70769 0.13061 0.07831 0.0
O1284 O 0.72739 0.07743 0.09145 0.0
O1285 O 0.71659 0.09537 0.10965 0.0
O1286 O 0.69286 0.08548 0.08485 0.0
O1287 O 0.68889 0.11189 0.09449 0.0
C1288 C 0.75355 0.15376 0.12044 0.0
C1289 C 0.7532 0.14764 0.13709 0.0
H1290 H 0.7487 0.13288 0.16789 0.0
H1291 H 0.72638 0.11206 0.17456 0.0
H1292 H 0.72852 0.15139 0.06801 0.0
H1293 H 0.7504 0.16252 0.0873 0.0
H1294 H 0.76315 0.16273 0.11679 0.0
H1295 H 0.76254 0.15199 0.14599 0.0
Mn1296 Mn 0.67093 0.03984 0.6403 0.0
Mn1297 Mn 0.62997 0.0426 0.62953 0.0
C1298 C 0.65329 0.01748 0.64577 0.0
C1299 C 0.6984 0.03356 0.63226 0.0
C1300 C 0.64489 0.05935 0.66052 0.0
O1301 O 0.67 0.06062 0.62546 0.0
O1302 O 0.6433 0.05898 0.61608 0.0
C1303 C 0.63275 0.02968 0.59475 0.0
N1304 N 0.62591 0.02862 0.61041 0.0
C1305 C 0.60946 0.00445 0.60255 0.0
C1306 C 0.61622 0.00536 0.5863 0.0
C1307 C 0.62795 0.018 0.5824 0.0
C1308 C 0.61472 0.01643 0.61434 0.0
H1309 H 0.64184 0.03933 0.59174 0.0
C1310 C 0.65795 0.0657 0.61621 0.0
O1311 O 0.69538 0.04338 0.64498 0.0
O1312 O 0.68552 0.02799 0.62396 0.0
N1313 N 0.61533 0.02758 0.64138 0.0
C1314 C 0.60989 0.02854 0.6576 0.0
C1315 C 0.59811 0.01677 0.66354 0.0
C1316 C 0.59187 0.00431 0.65268 0.0
C1317 C 0.59729 0.00388 0.63591 0.0
C1318 C 0.60894 0.01602 0.63067 0.0
H1319 H 0.61458 0.03812 0.666 0.0
O1320 O 0.6678 0.01856 0.65309 0.0
O1321 O 0.64987 0.02909 0.63475 0.0
O1322 O 0.65968 0.05315 0.65929 0.0
O1323 O 0.63323 0.05687 0.64969 0.0
C1324 C 0.5917 0.99179 0.62422 0.0
C1325 C 0.59782 0.99204 0.60757 0.0
H1326 H 0.61258 0.99636 0.57674 0.0
H1327 H 0.63329 0.01873 0.5699 0.0
H1328 H 0.5939 0.01727 0.67647 0.0
H1329 H 0.58291 0.99516 0.65734 0.0
H1330 H 0.58278 0.98217 0.62794 0.0
H1331 H 0.59353 0.9826 0.59874 0.0
Mn1332 Mn 0.70563 0.92106 0.39099 0.0
Mn1333 Mn 0.7029 0.88007 0.3803 0.0
C1334 C 0.72811 0.90355 0.39625 0.0
C1335 C 0.7117 0.94854 0.38275 0.0
C1336 C 0.68644 0.89498 0.41146 0.0
O1337 O 0.6847 0.91999 0.3764 0.0
O1338 O 0.68636 0.8933 0.36698 0.0
C1339 C 0.7155 0.88285 0.34541 0.0
N1340 N 0.71671 0.87603 0.36106 0.0
C1341 C 0.74085 0.85967 0.35299 0.0
C1342 C 0.73978 0.86641 0.33674 0.0
C1343 C 0.72707 0.87808 0.33295 0.0
C1344 C 0.72896 0.8649 0.36488 0.0
H1345 H 0.7058 0.8919 0.34248 0.0
C1346 C 0.6796 0.90792 0.36718 0.0
O1347 O 0.70206 0.94554 0.39561 0.0
O1348 O 0.71723 0.93564 0.37445 0.0
N1349 N 0.71805 0.8655 0.39202 0.0
C1350 C 0.71724 0.86006 0.40825 0.0
C1351 C 0.72908 0.84833 0.41408 0.0
C1352 C 0.74146 0.84212 0.40312 0.0
C1353 C 0.74174 0.84754 0.38635 0.0
C1354 C 0.72953 0.85914 0.38122 0.0
H1355 H 0.70772 0.86472 0.41673 0.0
O1356 O 0.72707 0.91809 0.40353 0.0
O1357 O 0.71639 0.90004 0.38537 0.0
O1358 O 0.69259 0.90979 0.41016 0.0
O1359 O 0.68881 0.88332 0.40059 0.0
C1360 C 0.75374 0.84198 0.37455 0.0
C1361 C 0.75333 0.84809 0.3579 0.0
H1362 H 0.7487 0.86279 0.3271 0.0
H1363 H 0.72622 0.88341 0.32046 0.0
H1364 H 0.7287 0.84412 0.42701 0.0
H1365 H 0.75066 0.83319 0.4077 0.0
H1366 H 0.7634 0.8331 0.37819 0.0
H1367 H 0.7627 0.84382 0.34898 0.0
Mn1368 Mn 0.8247 0.9558 0.14043 0.0
Mn1369 Mn 0.86567 0.95289 0.12972 0.0
C1370 C 0.84235 0.97819 0.14573 0.0
C1371 C 0.79727 0.962 0.13222 0.0
C1372 C 0.85065 0.93642 0.16084 0.0
O1373 O 0.82565 0.93489 0.12578 0.0
O1374 O 0.85234 0.93645 0.11636 0.0
C1375 C 0.86301 0.96558 0.09487 0.0
N1376 N 0.86981 0.96673 0.11053 0.0
C1377 C 0.88635 0.9908 0.10254 0.0
C1378 C 0.87962 0.9898 0.08628 0.0
C1379 C 0.86787 0.97716 0.08244 0.0
C1380 C 0.88103 0.97891 0.11439 0.0
H1381 H 0.8539 0.95594 0.09191 0.0
C1382 C 0.83769 0.92975 0.11654 0.0
O1383 O 0.80022 0.95232 0.14506 0.0
O1384 O 0.81018 0.9675 0.12394 0.0
N1385 N 0.88031 0.96795 0.1415 0.0
C1386 C 0.88571 0.96709 0.15774 0.0
C1387 C 0.89751 0.97887 0.16362 0.0
C1388 C 0.90381 0.99123 0.15269 0.0
C1389 C 0.89844 0.99156 0.13591 0.0
C1390 C 0.88676 0.97942 0.13073 0.0
H1391 H 0.88097 0.95758 0.16619 0.0
O1392 O 0.82781 0.9772 0.15303 0.0
O1393 O 0.84579 0.96646 0.13482 0.0
O1394 O 0.83588 0.94266 0.15956 0.0
O1395 O 0.86232 0.93876 0.14997 0.0
C1396 C 0.90409 0.00356 0.12415 0.0
C1397 C 0.89801 0.00321 0.10749 0.0
H1398 H 0.88332 -0.00128 0.07667 0.0
H1399 H 0.86255 0.97636 0.06994 0.0
H1400 H 0.90168 0.97845 0.17655 0.0
H1401 H 0.91279 0.00039 0.1573 0.0
H1402 H 0.91302 0.01317 0.12782 0.0
H1403 H 0.90235 0.01258 0.0986 0.0
Mn1404 Mn 0.7894 0.07462 0.89082 0.0
Mn1405 Mn 0.79222 0.11546 0.87954 0.0
C1406 C 0.76699 0.09228 0.89587 0.0
C1407 C 0.78313 0.04702 0.88316 0.0
C1408 C 0.80862 0.101 0.91091 0.0
O1409 O 0.8103 0.07537 0.87612 0.0
O1410 O 0.8088 0.102 0.8665 0.0
C1411 C 0.77976 0.1121 0.84465 0.0
N1412 N 0.77849 0.11918 0.86019 0.0
C1413 C 0.75439 0.13541 0.85178 0.0
C1414 C 0.75552 0.12839 0.83564 0.0
C1415 C 0.76824 0.11666 0.83208 0.0
C1416 C 0.76622 0.13038 0.86379 0.0
H1417 H 0.78947 0.103 0.84191 0.0
C1418 C 0.81548 0.08735 0.86681 0.0
O1419 O 0.79286 0.05022 0.89589 0.0
O1420 O 0.77768 0.05977 0.8746 0.0
N1421 N 0.77703 0.13024 0.89097 0.0
C1422 C 0.77778 0.13596 0.90711 0.0
C1423 C 0.76592 0.14779 0.9127 0.0
C1424 C 0.75358 0.1538 0.9016 0.0
C1425 C 0.75337 0.14811 0.88492 0.0
C1426 C 0.7656 0.13642 0.88002 0.0
H1427 H 0.78727 0.13144 0.91569 0.0
O1428 O 0.76803 0.07787 0.9034 0.0
O1429 O 0.77869 0.09559 0.88489 0.0
O1430 O 0.80253 0.08615 0.90975 0.0
O1431 O 0.80621 0.11254 0.89993 0.0
C1432 C 0.74142 0.15346 0.873 0.0
C1433 C 0.74189 0.14707 0.85646 0.0
H1434 H 0.74664 0.13185 0.82592 0.0
H1435 H 0.76914 0.11112 0.81968 0.0
H1436 H 0.76624 0.15222 0.92556 0.0
H1437 H 0.74436 0.16281 0.90601 0.0
H1438 H 0.73174 0.16241 0.87645 0.0
H1439 H 0.73256 0.15119 0.84744 0.0
Mn1440 Mn 0.85483 0.67053 0.95564 0.0
Mn1441 Mn 0.86565 0.62958 0.95273 0.0
C1442 C 0.84967 0.6529 0.97806 0.0
C1443 C 0.86297 0.69802 0.96178 0.0
C1444 C 0.83438 0.64444 0.93643 0.0
O1445 O 0.86938 0.66961 0.93467 0.0
O1446 O 0.87887 0.64294 0.93618 0.0
C1447 C 0.90059 0.63247 0.96518 0.0
N1448 N 0.88495 0.62558 0.96644 0.0
C1449 C 0.89315 0.60916 0.99048 0.0
C1450 C 0.90939 0.61598 0.98937 0.0
C1451 C 0.91311 0.62771 0.97668 0.0
C1452 C 0.8812 0.61439 0.97867 0.0
H1453 H 0.90346 0.64156 0.95551 0.0
C1454 C 0.87861 0.65758 0.92948 0.0
O1455 O 0.8501 0.69499 0.95217 0.0
O1456 O 0.87134 0.68514 0.96723 0.0
N1457 N 0.85401 0.61492 0.96787 0.0
C1458 C 0.83779 0.60941 0.96711 0.0
C1459 C 0.83203 0.59761 0.97893 0.0
C1460 C 0.84306 0.59141 0.99124 0.0
C1461 C 0.85982 0.59689 0.99147 0.0
C1462 C 0.86488 0.60856 0.97928 0.0
H1463 H 0.82926 0.61406 0.95764 0.0
O1464 O 0.84233 0.66741 0.97708 0.0
O1465 O 0.86055 0.64948 0.96629 0.0
O1466 O 0.83566 0.65923 0.94262 0.0
O1467 O 0.84529 0.6328 0.93874 0.0
C1468 C 0.87168 0.59134 0.0034 0.0
C1469 C 0.88832 0.59752 0.00294 0.0
H1470 H 0.91907 0.61236 -0.00177 0.0
H1471 H 0.92559 0.63309 0.97579 0.0
H1472 H 0.8191 0.59335 0.9786 0.0
H1473 H 0.83853 0.58243 0.00044 0.0
H1474 H 0.8681 0.58241 0.01305 0.0
H1475 H 0.89729 0.59325 0.01225 0.0
Mn1476 Mn 0.35474 0.82435 0.03913 0.0
Mn1477 Mn 0.36539 0.86537 0.0418 0.0
C1478 C 0.3493 0.84187 0.0167 0.0
C1479 C 0.36296 0.79689 0.03304 0.0
C1480 C 0.33437 0.85037 0.05849 0.0
O1481 O 0.36949 0.82544 0.05993 0.0
O1482 O 0.37888 0.85215 0.05821 0.0
C1483 C 0.40021 0.86271 0.02892 0.0
N1484 N 0.38452 0.86948 0.02784 0.0
C1485 C 0.39237 0.88593 0.00369 0.0
C1486 C 0.40866 0.87923 0.00462 0.0
C1487 C 0.41258 0.86754 0.01727 0.0
C1488 C 0.38058 0.88064 0.01565 0.0
H1489 H 0.40324 0.85365 0.03858 0.0
C1490 C 0.37874 0.83753 0.06497 0.0
O1491 O 0.35016 0.79988 0.04275 0.0
O1492 O 0.37121 0.80979 0.02743 0.0
N1493 N 0.35351 0.87991 0.02675 0.0
C1494 C 0.33725 0.88527 0.02768 0.0
C1495 C 0.33129 0.89701 0.0159 0.0
C1496 C 0.34216 0.90328 0.00347 0.0
C1497 C 0.35895 0.89794 0.00306 0.0
C1498 C 0.36421 0.88634 0.01521 0.0
H1499 H 0.32885 0.88056 0.03725 0.0
O1500 O 0.34204 0.82732 0.01779 0.0
O1501 O 0.36027 0.8454 0.02834 0.0
O1502 O 0.33564 0.83557 0.0523 0.0
O1503 O 0.34521 0.86205 0.05604 0.0
C1504 C 0.37065 0.90356 0.99099 0.0
C1505 C 0.38733 0.89752 0.99126 0.0
H1506 H 0.41822 0.8829 0.99563 0.0
H1507 H 0.42509 0.86225 0.01802 0.0
H1508 H 0.31834 0.90115 0.01637 0.0
H1509 H 0.33747 0.91221 0.99431 0.0
H1510 H 0.36691 0.91245 0.98137 0.0
H1511 H 0.39617 0.90183 0.98184 0.0
Mn1512 Mn 0.92066 0.6047 0.78868 0.0
Mn1513 Mn 0.87967 0.61537 0.7914 0.0
C1514 C 0.90315 0.5994 0.76621 0.0
C1515 C 0.94813 0.61296 0.78262 0.0
C1516 C 0.89459 0.58421 0.80787 0.0
O1517 O 0.91959 0.61933 0.80959 0.0
O1518 O 0.8929 0.62873 0.80793 0.0
C1519 C 0.88244 0.65028 0.7788 0.0
N1520 N 0.87563 0.6346 0.77759 0.0
C1521 C 0.85927 0.64263 0.75346 0.0
C1522 C 0.86601 0.65891 0.75452 0.0
C1523 C 0.87767 0.66273 0.76722 0.0
C1524 C 0.8645 0.63075 0.76534 0.0
H1525 H 0.89148 0.65323 0.78849 0.0
C1526 C 0.90751 0.62854 0.8147 0.0
O1527 O 0.94512 0.60009 0.79226 0.0
O1528 O 0.93524 0.62125 0.77709 0.0
N1529 N 0.86512 0.6036 0.77626 0.0
C1530 C 0.85968 0.58735 0.77708 0.0
C1531 C 0.84795 0.58149 0.76525 0.0
C1532 C 0.84175 0.59244 0.75287 0.0
C1533 C 0.84715 0.60923 0.75258 0.0
C1534 C 0.85875 0.61439 0.76478 0.0
H1535 H 0.86434 0.57888 0.7866 0.0
O1536 O 0.91768 0.59212 0.76726 0.0
O1537 O 0.89964 0.6103 0.77793 0.0
O1538 O 0.90939 0.58552 0.80172 0.0
O1539 O 0.88293 0.59508 0.8055 0.0
C1540 C 0.8416 0.62101 0.74058 0.0
C1541 C 0.8477 0.63769 0.74098 0.0
H1542 H 0.86238 0.66854 0.7456 0.0
H1543 H 0.88299 0.67524 0.76807 0.0
H1544 H 0.84375 0.56854 0.76563 0.0
H1545 H 0.83282 0.58783 0.74367 0.0
H1546 H 0.83272 0.61736 0.73092 0.0
H1547 H 0.84343 0.6466 0.73161 0.0
Mn1548 Mn 0.13906 0.1694 0.53894 0.0
Mn1549 Mn 0.13017 0.12788 0.54083 0.0
C1550 C 0.14573 0.15236 0.51647 0.0
C1551 C 0.13025 0.19668 0.53284 0.0
C1552 C 0.16031 0.14376 0.55811 0.0
O1553 O 0.12353 0.16765 0.55917 0.0
O1554 O 0.11648 0.14027 0.55769 0.0
C1555 C 0.09515 0.12968 0.52838 0.0
N1556 N 0.11104 0.12347 0.52697 0.0
C1557 C 0.1035 0.10732 0.50253 0.0
C1558 C 0.08701 0.11346 0.50377 0.0
C1559 C 0.08284 0.12472 0.51674 0.0
C1560 C 0.11523 0.11273 0.51448 0.0
H1561 H 0.09192 0.13839 0.53829 0.0
C1562 C 0.11529 0.1549 0.56436 0.0
O1563 O 0.14277 0.19395 0.54297 0.0
O1564 O 0.12257 0.18361 0.52683 0.0
N1565 N 0.14236 0.11404 0.52537 0.0
C1566 C 0.15877 0.10912 0.52606 0.0
C1567 C 0.16497 0.09781 0.51399 0.0
C1568 C 0.1542 0.09148 0.50151 0.0
C1569 C 0.13726 0.09635 0.50134 0.0
C1570 C 0.13175 0.10754 0.51378 0.0
H1571 H 0.16709 0.11388 0.53567 0.0
O1572 O 0.15256 0.16708 0.51802 0.0
O1573 O 0.13455 0.1483 0.52774 0.0
O1574 O 0.15817 0.15873 0.55261 0.0
O1575 O 0.15031 0.13154 0.55494 0.0
C1576 C 0.12564 0.09063 0.48926 0.0
C1577 C 0.10878 0.09616 0.48981 0.0
H1578 H 0.07748 0.10967 0.49481 0.0
H1579 H 0.07016 0.12956 0.51774 0.0
H1580 H 0.17804 0.09403 0.51428 0.0
H1581 H 0.15907 0.08288 0.49214 0.0
H1582 H 0.12955 0.08206 0.47942 0.0
H1583 H 0.09999 0.09176 0.48038 0.0
Mn1584 Mn 0.07578 0.88911 0.78889 0.0
Mn1585 Mn 0.11732 0.88037 0.79046 0.0
C1586 C 0.09269 0.89606 0.76638 0.0
C1587 C 0.0485 0.88025 0.78281 0.0
C1588 C 0.10144 0.91028 0.80815 0.0
O1589 O 0.07768 0.87341 0.80896 0.0
O1590 O 0.10505 0.86647 0.80724 0.0
C1591 C 0.11556 0.84546 0.77765 0.0
N1592 N 0.12172 0.8614 0.77639 0.0
C1593 C 0.13779 0.85417 0.75179 0.0
C1594 C 0.1317 0.83764 0.75289 0.0
C1595 C 0.12051 0.83328 0.76586 0.0
C1596 C 0.1324 0.86576 0.76389 0.0
H1597 H 0.10691 0.8421 0.78757 0.0
C1598 C 0.09048 0.86517 0.81399 0.0
O1599 O 0.05125 0.89269 0.79306 0.0
O1600 O 0.06157 0.87267 0.77668 0.0
N1601 N 0.13104 0.89278 0.77506 0.0
C1602 C 0.1359 0.90921 0.7759 0.0
C1603 C 0.14713 0.9156 0.76384 0.0
C1604 C 0.15345 0.90497 0.75122 0.0
C1605 C 0.14864 0.888 0.75091 0.0
C1606 C 0.13752 0.88232 0.76333 0.0
H1607 H 0.13115 0.91743 0.78561 0.0
O1608 O 0.07797 0.90282 0.76808 0.0
O1609 O 0.09683 0.88479 0.77753 0.0
O1610 O 0.08646 0.90815 0.80269 0.0
O1611 O 0.11367 0.90035 0.80481 0.0
C1612 C 0.15434 0.87652 0.73867 0.0
C1613 C 0.14887 0.85963 0.73907 0.0
H1614 H 0.13547 0.82821 0.7438 0.0
H1615 H 0.11571 0.82057 0.76675 0.0
H1616 H 0.15087 0.92868 0.76425 0.0
H1617 H 0.16199 0.90997 0.74186 0.0
H1618 H 0.16286 0.88058 0.72884 0.0
H1619 H 0.15325 0.85095 0.72953 0.0
Mn1620 Mn 0.64065 0.32484 0.45537 0.0
Mn1621 Mn 0.62998 0.36583 0.45262 0.0
C1622 C 0.64595 0.34239 0.47782 0.0
C1623 C 0.63242 0.29736 0.46147 0.0
C1624 C 0.66112 0.35089 0.43613 0.0
O1625 O 0.62602 0.32587 0.43447 0.0
O1626 O 0.61661 0.35256 0.43614 0.0
C1627 C 0.59509 0.36309 0.46529 0.0
N1628 N 0.61076 0.3699 0.46646 0.0
C1629 C 0.60276 0.38634 0.49057 0.0
C1630 C 0.58648 0.3796 0.48955 0.0
C1631 C 0.58265 0.36789 0.47688 0.0
C1632 C 0.61462 0.38107 0.47868 0.0
H1633 H 0.59213 0.35402 0.45562 0.0
C1634 C 0.61679 0.33794 0.42938 0.0
O1635 O 0.64527 0.30036 0.45181 0.0
O1636 O 0.62413 0.31025 0.467 0.0
N1637 N 0.64176 0.38041 0.46773 0.0
C1638 C 0.65801 0.38584 0.46689 0.0
C1639 C 0.66388 0.3976 0.47869 0.0
C1640 C 0.65294 0.40385 0.49106 0.0
C1641 C 0.63615 0.39845 0.49138 0.0
C1642 C 0.63098 0.38682 0.47921 0.0
H1643 H 0.66647 0.38115 0.45736 0.0
O1644 O 0.65323 0.32785 0.47677 0.0
O1645 O 0.63505 0.34588 0.46611 0.0
O1646 O 0.65982 0.33609 0.4423 0.0
O1647 O 0.65025 0.36255 0.4385 0.0
C1648 C 0.62438 0.40405 0.50338 0.0
C1649 C 0.60771 0.39795 0.50302 0.0
H1650 H 0.57686 0.38325 0.49848 0.0
H1651 H 0.57014 0.36257 0.47606 0.0
H1652 H 0.67683 0.40179 0.47828 0.0
H1653 H 0.65755 0.4128 0.50024 0.0
H1654 H 0.62804 0.41295 0.51302 0.0
H1655 H 0.59881 0.40225 0.51239 0.0
Mn1656 Mn 0.92089 0.39047 0.7056 0.0
Mn1657 Mn 0.87994 0.37962 0.70272 0.0
C1658 C 0.90325 0.39568 0.728 0.0
C1659 C 0.94835 0.38235 0.71177 0.0
C1660 C 0.89483 0.41085 0.68632 0.0
O1661 O 0.91997 0.37584 0.68468 0.0
O1662 O 0.89329 0.36634 0.68623 0.0
C1663 C 0.88279 0.3447 0.7153 0.0
N1664 N 0.87591 0.36034 0.7165 0.0
C1665 C 0.85946 0.3522 0.74056 0.0
C1666 C 0.86627 0.33596 0.73951 0.0
C1667 C 0.87801 0.33221 0.72684 0.0
C1668 C 0.86471 0.36412 0.72871 0.0
H1669 H 0.89189 0.34181 0.70564 0.0
C1670 C 0.90794 0.36659 0.67952 0.0
O1671 O 0.94535 0.3952 0.70212 0.0
O1672 O 0.93547 0.37399 0.71725 0.0
N1673 N 0.86528 0.39129 0.71782 0.0
C1674 C 0.85978 0.40751 0.717 0.0
C1675 C 0.84797 0.4133 0.7288 0.0
C1676 C 0.84175 0.4023 0.74114 0.0
C1677 C 0.84722 0.38554 0.74143 0.0
C1678 C 0.8589 0.38045 0.72926 0.0
H1679 H 0.86446 0.41602 0.70751 0.0
O1680 O 0.91777 0.40303 0.727 0.0
O1681 O 0.89983 0.38477 0.71627 0.0
O1682 O 0.90962 0.40959 0.69251 0.0
O1683 O 0.88319 0.39994 0.68866 0.0
C1684 C 0.84164 0.37371 0.75339 0.0
C1685 C 0.84781 0.35707 0.75299 0.0
H1686 H 0.86263 0.3263 0.7484 0.0
H1687 H 0.88338 0.31973 0.726 0.0
H1688 H 0.84373 0.42623 0.72841 0.0
H1689 H 0.83276 0.40685 0.75031 0.0
H1690 H 0.8327 0.37731 0.76302 0.0
H1691 H 0.84353 0.34812 0.76234 0.0
Mn1692 Mn 0.57465 0.6053 0.2053 0.0
Mn1693 Mn 0.61564 0.61597 0.20238 0.0
C1694 C 0.5923 0.59996 0.22765 0.0
C1695 C 0.54721 0.61346 0.21161 0.0
C1696 C 0.6006 0.58484 0.18592 0.0
O1697 O 0.5756 0.62001 0.18443 0.0
O1698 O 0.60234 0.62933 0.18594 0.0
C1699 C 0.61297 0.65088 0.21502 0.0
N1700 N 0.61978 0.6352 0.21618 0.0
C1701 C 0.6363 0.64324 0.24021 0.0
C1702 C 0.62957 0.65951 0.2392 0.0
C1703 C 0.61783 0.66333 0.22657 0.0
C1704 C 0.63098 0.63136 0.22835 0.0
H1705 H 0.60387 0.65383 0.20539 0.0
C1706 C 0.58768 0.6292 0.17927 0.0
O1707 O 0.55016 0.60065 0.20189 0.0
O1708 O 0.56012 0.62178 0.21706 0.0
N1709 N 0.63027 0.6042 0.21743 0.0
C1710 C 0.63567 0.58795 0.21658 0.0
C1711 C 0.64746 0.58209 0.22834 0.0
C1712 C 0.65376 0.59305 0.24068 0.0
C1713 C 0.64838 0.60984 0.241 0.0
C1714 C 0.63672 0.615 0.22887 0.0
H1715 H 0.63094 0.57948 0.20708 0.0
O1716 O 0.57776 0.59266 0.22666 0.0
O1717 O 0.59574 0.61089 0.21595 0.0
O1718 O 0.58582 0.58617 0.19213 0.0
O1719 O 0.6123 0.59569 0.18829 0.0
C1720 C 0.65403 0.62163 0.25297 0.0
C1721 C 0.64795 0.6383 0.25261 0.0
H1722 H 0.63326 0.66914 0.2481 0.0
H1723 H 0.61251 0.67584 0.22576 0.0
H1724 H 0.65164 0.56914 0.22793 0.0
H1725 H 0.66274 0.58844 0.24982 0.0
H1726 H 0.66296 0.61797 0.26257 0.0
H1727 H 0.65228 0.64721 0.26196 0.0
Mn1728 Mn 0.53927 0.64044 0.82435 0.0
Mn1729 Mn 0.54215 0.62942 0.86522 0.0
C1730 C 0.51683 0.6455 0.84198 0.0
C1731 C 0.53316 0.63243 0.79685 0.0
C1732 C 0.55843 0.6608 0.85053 0.0
O1733 O 0.56024 0.62589 0.82521 0.0
O1734 O 0.55871 0.61629 0.85182 0.0
C1735 C 0.52969 0.59447 0.86216 0.0
N1736 N 0.52843 0.61007 0.86912 0.0
C1737 C 0.50437 0.60173 0.88549 0.0
C1738 C 0.50549 0.58553 0.8786 0.0
C1739 C 0.51818 0.5819 0.86685 0.0
C1740 C 0.51619 0.61374 0.88033 0.0
H1741 H 0.53937 0.59167 0.85305 0.0
C1742 C 0.56542 0.61661 0.83719 0.0
O1743 O 0.54277 0.6453 0.79994 0.0
O1744 O 0.52768 0.62399 0.80966 0.0
N1745 N 0.52699 0.64095 0.87995 0.0
C1746 C 0.52776 0.65714 0.88556 0.0
C1747 C 0.51594 0.66281 0.8974 0.0
C1748 C 0.50362 0.65172 0.90353 0.0
C1749 C 0.50338 0.63499 0.89795 0.0
C1750 C 0.51557 0.63003 0.88624 0.0
H1751 H 0.53724 0.66571 0.88096 0.0
O1752 O 0.51782 0.6529 0.82751 0.0
O1753 O 0.52859 0.63461 0.84536 0.0
O1754 O 0.55227 0.65957 0.83573 0.0
O1755 O 0.55613 0.64983 0.86211 0.0
C1756 C 0.49145 0.62308 0.90343 0.0
C1757 C 0.4919 0.60648 0.89716 0.0
H1758 H 0.49662 0.57581 0.88216 0.0
H1759 H 0.51907 0.56946 0.86141 0.0
H1760 H 0.51629 0.67571 0.90174 0.0
H1761 H 0.49443 0.65618 0.91254 0.0
H1762 H 0.4818 0.62659 0.91239 0.0
H1763 H 0.48259 0.59747 0.90138 0.0
Mn1764 Mn 0.60523 0.2893 0.07442 0.0
Mn1765 Mn 0.61613 0.29213 0.11532 0.0
C1766 C 0.60006 0.26685 0.09201 0.0
C1767 C 0.6133 0.28317 0.04693 0.0
C1768 C 0.58484 0.30848 0.10058 0.0
O1769 O 0.61983 0.31025 0.07533 0.0
O1770 O 0.62932 0.30872 0.10198 0.0
C1771 C 0.65107 0.27969 0.11232 0.0
N1772 N 0.63545 0.27841 0.11924 0.0
C1773 C 0.64371 0.25431 0.13557 0.0
C1774 C 0.65992 0.25545 0.12871 0.0
C1775 C 0.6636 0.26817 0.11701 0.0
C1776 C 0.63174 0.26614 0.13041 0.0
H1777 H 0.65391 0.28939 0.10325 0.0
C1778 C 0.62907 0.31543 0.08735 0.0
O1779 O 0.60045 0.29281 0.05 0.0
O1780 O 0.62168 0.27768 0.05977 0.0
N1781 N 0.60455 0.27694 0.12999 0.0
C1782 C 0.58834 0.2777 0.13555 0.0
C1783 C 0.58263 0.26585 0.14734 0.0
C1784 C 0.59367 0.25351 0.15347 0.0
C1785 C 0.61042 0.25329 0.14793 0.0
C1786 C 0.61543 0.26551 0.13628 0.0
H1787 H 0.5798 0.28719 0.13096 0.0
O1788 O 0.5927 0.26786 0.07753 0.0
O1789 O 0.61097 0.27859 0.09543 0.0
O1790 O 0.58612 0.30235 0.08577 0.0
O1791 O 0.59576 0.30613 0.11219 0.0
C1792 C 0.62229 0.24134 0.15341 0.0
C1793 C 0.63891 0.24181 0.14719 0.0
H1794 H 0.66962 0.24657 0.13228 0.0
H1795 H 0.67606 0.26908 0.1116 0.0
H1796 H 0.56972 0.26618 0.15164 0.0
H1797 H 0.58918 0.24429 0.16244 0.0
H1798 H 0.61874 0.23167 0.16233 0.0
H1799 H 0.64789 0.23249 0.1514 0.0
Mn1800 Mn 0.95597 0.35458 0.3242 0.0
Mn1801 Mn 0.95314 0.36529 0.36515 0.0
C1802 C 0.97838 0.34928 0.34177 0.0
C1803 C 0.96215 0.36279 0.29676 0.0
C1804 C 0.93665 0.33414 0.3502 0.0
O1805 O 0.93507 0.36924 0.3252 0.0
O1806 O 0.93669 0.37867 0.35187 0.0
C1807 C 0.96586 0.40018 0.36243 0.0
N1808 N 0.96699 0.38451 0.36924 0.0
C1809 C 0.99107 0.39252 0.38572 0.0
C1810 C 0.99009 0.40879 0.37898 0.0
C1811 C 0.97745 0.41262 0.36725 0.0
C1812 C 0.97918 0.38065 0.38043 0.0
H1813 H 0.95622 0.40314 0.35334 0.0
C1814 C 0.92997 0.37849 0.33724 0.0
O1815 O 0.95247 0.34995 0.29974 0.0
O1816 O 0.96765 0.3711 0.30965 0.0
N1817 N 0.9682 0.35351 0.37976 0.0
C1818 C 0.96732 0.33726 0.38518 0.0
C1819 C 0.97908 0.3314 0.39697 0.0
C1820 C 0.99145 0.34234 0.40324 0.0
C1821 C 0.99181 0.35913 0.39784 0.0
C1822 C 0.97967 0.3643 0.38618 0.0
H1823 H 0.95779 0.3288 0.38048 0.0
O1824 O 0.97737 0.34199 0.32724 0.0
O1825 O 0.96667 0.36019 0.34524 0.0
O1826 O 0.94285 0.33543 0.33542 0.0
O1827 O 0.939 0.34502 0.36185 0.0
C1828 C 0.00381 0.3709 0.40346 0.0
C1829 C 0.00348 0.38756 0.39736 0.0
H1830 H -0.00098 0.41841 0.38265 0.0
H1831 H 0.97666 0.42512 0.36193 0.0
H1832 H 0.97864 0.31845 0.40117 0.0
H1833 H 0.0006 0.33773 0.41221 0.0
H1834 H 0.01342 0.36724 0.41238 0.0
H1835 H 0.01285 0.39647 0.40167 0.0
Mn1836 Mn 0.89068 0.7061 0.574 0.0
Mn1837 Mn 0.8798 0.70306 0.61489 0.0
C1838 C 0.89578 0.7285 0.59167 0.0
C1839 C 0.88255 0.7123 0.54655 0.0
C1840 C 0.91112 0.68685 0.60002 0.0
O1841 O 0.87617 0.68509 0.57485 0.0
O1842 O 0.8666 0.68654 0.60149 0.0
C1843 C 0.84486 0.71551 0.61205 0.0
N1844 N 0.86048 0.71676 0.61894 0.0
C1845 C 0.85224 0.74074 0.63545 0.0
C1846 C 0.83601 0.73964 0.62863 0.0
C1847 C 0.83232 0.72699 0.61685 0.0
C1848 C 0.8642 0.72895 0.63018 0.0
H1849 H 0.84201 0.70587 0.60292 0.0
C1850 C 0.8669 0.67986 0.58684 0.0
O1851 O 0.89544 0.70271 0.54954 0.0
O1852 O 0.87416 0.71771 0.55944 0.0
N1853 N 0.89141 0.71818 0.62961 0.0
C1854 C 0.90762 0.7174 0.63513 0.0
C1855 C 0.91334 0.72918 0.64698 0.0
C1856 C 0.90229 0.74146 0.65323 0.0
C1857 C 0.88554 0.7417 0.64774 0.0
C1858 C 0.88052 0.72956 0.63601 0.0
H1859 H 0.91616 0.70795 0.63044 0.0
O1860 O 0.90313 0.72759 0.57717 0.0
O1861 O 0.88492 0.7167 0.59506 0.0
O1862 O 0.90986 0.69309 0.58525 0.0
O1863 O 0.90018 0.68909 0.61163 0.0
C1864 C 0.87367 0.7536 0.65334 0.0
C1865 C 0.85704 0.75316 0.64715 0.0
H1866 H 0.82632 0.74848 0.63228 0.0
H1867 H 0.81985 0.72612 0.61146 0.0
H1868 H 0.92626 0.72882 0.65125 0.0
H1869 H 0.9068 0.75061 0.66226 0.0
H1870 H 0.87722 0.76322 0.66232 0.0
H1871 H 0.84806 0.76245 0.65146 0.0
Mn1872 Mn 0.53926 0.35476 0.6704 0.0
Mn1873 Mn 0.54188 0.36555 0.62946 0.0
C1874 C 0.51675 0.34947 0.65294 0.0
C1875 C 0.53323 0.36294 0.69788 0.0
C1876 C 0.55845 0.33439 0.64426 0.0
O1877 O 0.56015 0.36944 0.66932 0.0
O1878 O 0.55841 0.37892 0.64268 0.0
C1879 C 0.5292 0.40042 0.63232 0.0
N1880 N 0.52801 0.38476 0.62548 0.0
C1881 C 0.50383 0.39277 0.60918 0.0
C1882 C 0.50487 0.40903 0.61594 0.0
C1883 C 0.51759 0.41286 0.6276 0.0
C1884 C 0.51575 0.38091 0.61437 0.0
H1885 H 0.5389 0.40337 0.64135 0.0
C1886 C 0.56521 0.37871 0.65726 0.0
O1887 O 0.54289 0.3501 0.69483 0.0
O1888 O 0.52766 0.37125 0.68503 0.0
N1889 N 0.52673 0.35378 0.61491 0.0
C1890 C 0.52756 0.33754 0.60946 0.0
C1891 C 0.51572 0.33168 0.59774 0.0
C1892 C 0.50331 0.34262 0.59157 0.0
C1893 C 0.503 0.3594 0.597 0.0
C1894 C 0.51522 0.36456 0.60859 0.0
H1895 H 0.53711 0.32908 0.61408 0.0
O1896 O 0.51784 0.34215 0.66744 0.0
O1897 O 0.52845 0.3604 0.64943 0.0
O1898 O 0.55232 0.33564 0.65907 0.0
O1899 O 0.55603 0.34529 0.63264 0.0
C1900 C 0.49097 0.37117 0.59149 0.0
C1901 C 0.49134 0.38783 0.59762 0.0
H1902 H 0.49592 0.41865 0.61235 0.0
H1903 H 0.51842 0.42535 0.63294 0.0
H1904 H 0.51612 0.31875 0.59351 0.0
H1905 H 0.4941 0.33802 0.58265 0.0
H1906 H 0.4813 0.36751 0.58262 0.0
H1907 H 0.48195 0.39673 0.59338 0.0
Mn1908 Mn 0.89036 0.28945 0.92098 0.0
Mn1909 Mn 0.87953 0.29192 0.88004 0.0
C1910 C 0.89558 0.26686 0.90359 0.0
C1911 C 0.88222 0.28357 0.9485 0.0
C1912 C 0.91075 0.3085 0.89473 0.0
O1913 O 0.87575 0.31036 0.91986 0.0
O1914 O 0.86624 0.30853 0.89324 0.0
C1915 C 0.84463 0.2793 0.88305 0.0
N1916 N 0.86027 0.27806 0.87617 0.0
C1917 C 0.85215 0.25382 0.85997 0.0
C1918 C 0.83591 0.25492 0.86677 0.0
C1919 C 0.83215 0.26769 0.8784 0.0
C1920 C 0.86406 0.26575 0.86509 0.0
H1921 H 0.84173 0.28905 0.89205 0.0
C1922 C 0.86649 0.31539 0.9078 0.0
O1923 O 0.89508 0.29319 0.94538 0.0
O1924 O 0.87388 0.27794 0.93568 0.0
N1925 N 0.89121 0.27669 0.86552 0.0
C1926 C 0.90742 0.27749 0.85999 0.0
C1927 C 0.91321 0.2656 0.84828 0.0
C1928 C 0.90222 0.25318 0.84219 0.0
C1929 C 0.88547 0.2529 0.84769 0.0
C1930 C 0.88038 0.26516 0.85926 0.0
H1931 H 0.91592 0.28705 0.86456 0.0
O1932 O 0.90291 0.268 0.91808 0.0
O1933 O 0.88468 0.27856 0.90005 0.0
O1934 O 0.9095 0.30244 0.90957 0.0
O1935 O 0.89984 0.30605 0.88313 0.0
C1936 C 0.87365 0.24086 0.84224 0.0
C1937 C 0.85702 0.24128 0.84843 0.0
H1938 H 0.82626 0.24597 0.86324 0.0
H1939 H 0.81968 0.26856 0.88377 0.0
H1940 H 0.92613 0.26598 0.844 0.0
H1941 H 0.90677 0.24394 0.83327 0.0
H1942 H 0.87726 0.23116 0.83339 0.0
H1943 H 0.84808 0.23188 0.84424 0.0
Mn1944 Mn 0.95607 0.6408 0.17092 0.0
Mn1945 Mn 0.95318 0.62988 0.13003 0.0
C1946 C 0.97847 0.64602 0.15328 0.0
C1947 C 0.96226 0.63272 0.19838 0.0
C1948 C 0.93673 0.6611 0.14486 0.0
O1949 O 0.93515 0.62614 0.17003 0.0
O1950 O 0.93673 0.61658 0.14341 0.0
C1951 C 0.96585 0.59501 0.1329 0.0
N1952 N 0.96701 0.61065 0.12601 0.0
C1953 C 0.99107 0.60256 0.10953 0.0
C1954 C 0.99006 0.58632 0.11636 0.0
C1955 C 0.97742 0.58255 0.12812 0.0
C1956 C 0.9792 0.61445 0.11478 0.0
H1957 H 0.95621 0.5921 0.14202 0.0
C1958 C 0.93001 0.61684 0.15804 0.0
O1959 O 0.95259 0.64555 0.19536 0.0
O1960 O 0.96774 0.62436 0.18552 0.0
N1961 N 0.96825 0.64159 0.11533 0.0
C1962 C 0.96739 0.65781 0.10983 0.0
C1963 C 0.97916 0.66362 0.098 0.0
C1964 C 0.99151 0.65264 0.09176 0.0
C1965 C 0.99185 0.63589 0.09725 0.0
C1966 C 0.97971 0.63077 0.10895 0.0
H1967 H 0.95788 0.66629 0.1145 0.0
O1968 O 0.97747 0.65339 0.16777 0.0
O1969 O 0.96674 0.63509 0.14988 0.0
O1970 O 0.94295 0.65989 0.15963 0.0
O1971 O 0.93907 0.65017 0.13325 0.0
C1972 C 0.00383 0.62408 0.09167 0.0
C1973 C 0.00348 0.60745 0.09786 0.0
H1974 H -0.00102 0.57668 0.11272 0.0
H1975 H 0.97661 0.57007 0.13351 0.0
H1976 H 0.97874 0.67654 0.09373 0.0
H1977 H 0.00066 0.65721 0.08276 0.0
H1978 H 0.01344 0.6277 0.08272 0.0
H1979 H 0.01284 0.59853 0.09357 0.0
Mn1980 Mn 0.60446 0.7063 0.42078 0.0
Mn1981 Mn 0.61507 0.70364 0.37978 0.0
C1982 C 0.59907 0.72878 0.40329 0.0
C1983 C 0.61272 0.71241 0.44821 0.0
C1984 C 0.58399 0.68703 0.39476 0.0
O1985 O 0.61914 0.68542 0.41966 0.0
O1986 O 0.6285 0.68715 0.39297 0.0
C1987 C 0.64993 0.7164 0.38245 0.0
N1988 N 0.63425 0.71754 0.37569 0.0
C1989 C 0.64218 0.74171 0.35927 0.0
C1990 C 0.65846 0.74072 0.36597 0.0
C1991 C 0.66234 0.72803 0.37764 0.0
C1992 C 0.63034 0.72977 0.36455 0.0
H1993 H 0.65293 0.70672 0.39149 0.0
C1994 C 0.62835 0.68036 0.40756 0.0
O1995 O 0.59989 0.70271 0.44524 0.0
O1996 O 0.62098 0.71797 0.43531 0.0
N1997 N 0.60323 0.71874 0.36526 0.0
C1998 C 0.58698 0.71786 0.35988 0.0
C1999 C 0.58107 0.72967 0.34815 0.0
C2000 C 0.59198 0.74209 0.34189 0.0
C2001 C 0.60877 0.74244 0.34725 0.0
C2002 C 0.61398 0.73026 0.35885 0.0
H2003 H 0.57855 0.70831 0.36457 0.0
O2004 O 0.59182 0.7277 0.41783 0.0
O2005 O 0.60999 0.7171 0.39975 0.0
O2006 O 0.5853 0.69318 0.40956 0.0
O2007 O 0.59484 0.68945 0.38309 0.0
C2008 C 0.62051 0.75449 0.34165 0.0
C2009 C 0.63718 0.75416 0.3477 0.0
H2010 H 0.66806 0.74968 0.3623 0.0
H2011 H 0.67485 0.72724 0.38292 0.0
H2012 H 0.56812 0.72923 0.34399 0.0
H2013 H 0.58733 0.75126 0.33297 0.0
H2014 H 0.61681 0.76413 0.33277 0.0
H2015 H 0.64606 0.76357 0.34339 0.0
Mn2016 Mn 0.82497 0.5391 0.63992 0.0
Mn2017 Mn 0.86595 0.54184 0.6292 0.0
C2018 C 0.84249 0.51664 0.64523 0.0
C2019 C 0.79749 0.53304 0.63173 0.0
C2020 C 0.85104 0.55836 0.66033 0.0
O2021 O 0.82602 0.55999 0.62526 0.0
O2022 O 0.85271 0.55835 0.61586 0.0
C2023 C 0.86317 0.52917 0.59434 0.0
N2024 N 0.86999 0.52799 0.60999 0.0
C2025 C 0.88638 0.50385 0.60196 0.0
C2026 C 0.87963 0.50488 0.58571 0.0
C2027 C 0.86795 0.51758 0.5819 0.0
C2028 C 0.88114 0.51575 0.61383 0.0
H2029 H 0.85411 0.53885 0.5914 0.0
C2030 C 0.83809 0.56509 0.61603 0.0
O2031 O 0.80052 0.54271 0.64456 0.0
O2032 O 0.81036 0.52746 0.62344 0.0
N2033 N 0.88052 0.52671 0.64095 0.0
C2034 C 0.88597 0.52755 0.65718 0.0
C2035 C 0.89772 0.51573 0.66302 0.0
C2036 C 0.90393 0.50334 0.65207 0.0
C2037 C 0.89852 0.50303 0.63531 0.0
C2038 C 0.8869 0.51522 0.63016 0.0
H2039 H 0.8813 0.53709 0.66564 0.0
O2040 O 0.82796 0.5177 0.65252 0.0
O2041 O 0.84599 0.52834 0.63431 0.0
O2042 O 0.83623 0.55221 0.65903 0.0
O2043 O 0.86271 0.55597 0.64947 0.0
C2044 C 0.90408 0.49101 0.62353 0.0
C2045 C 0.89797 0.49139 0.60689 0.0
H2046 H 0.88326 0.49595 0.57609 0.0
H2047 H 0.86262 0.5184 0.56941 0.0
H2048 H 0.90192 0.51614 0.67595 0.0
H2049 H 0.91287 0.49416 0.65667 0.0
H2050 H 0.91298 0.48137 0.62718 0.0
H2051 H 0.90225 0.48201 0.59798 0.0
Mn2052 Mn 0.70606 0.57448 0.89012 0.0
Mn2053 Mn 0.70334 0.61548 0.87945 0.0
C2054 C 0.72851 0.59204 0.89546 0.0
C2055 C 0.71216 0.54702 0.8819 0.0
C2056 C 0.6868 0.60053 0.91056 0.0
O2057 O 0.68518 0.57551 0.87547 0.0
O2058 O 0.68684 0.60222 0.86609 0.0
C2059 C 0.71602 0.61274 0.84459 0.0
N2060 N 0.71719 0.61955 0.86025 0.0
C2061 C 0.74132 0.63599 0.85225 0.0
C2062 C 0.7403 0.62925 0.83599 0.0
C2063 C 0.72761 0.61755 0.83216 0.0
C2064 C 0.72942 0.63072 0.86411 0.0
H2065 H 0.70634 0.60367 0.84163 0.0
C2066 C 0.68009 0.58759 0.86625 0.0
O2067 O 0.70248 0.55001 0.89474 0.0
O2068 O 0.71771 0.55991 0.87362 0.0
N2069 N 0.71845 0.63007 0.89123 0.0
C2070 C 0.7176 0.6355 0.90746 0.0
C2071 C 0.72941 0.64726 0.91333 0.0
C2072 C 0.7418 0.65351 0.90239 0.0
C2073 C 0.74213 0.6481 0.88562 0.0
C2074 C 0.72994 0.63647 0.88045 0.0
H2075 H 0.70807 0.63081 0.91592 0.0
O2076 O 0.72746 0.5775 0.90273 0.0
O2077 O 0.71682 0.59553 0.88454 0.0
O2078 O 0.69296 0.58572 0.90926 0.0
O2079 O 0.6892 0.6122 0.89971 0.0
C2080 C 0.75414 0.6537 0.87385 0.0
C2081 C 0.75378 0.6476 0.8572 0.0
H2082 H 0.74924 0.63291 0.82637 0.0
H2083 H 0.7268 0.61223 0.81966 0.0
H2084 H 0.729 0.65145 0.92626 0.0
H2085 H 0.75099 0.66246 0.907 0.0
H2086 H 0.76379 0.66261 0.87752 0.0
H2087 H 0.76316 0.6519 0.8483 0.0
Mn2088 Mn 0.67052 0.45642 0.14027 0.0
Mn2089 Mn 0.62962 0.45354 0.1293 0.0
C2090 C 0.6529 0.47885 0.1454 0.0
C2091 C 0.69804 0.46254 0.13224 0.0
C2092 C 0.64435 0.43716 0.16058 0.0
O2093 O 0.66963 0.43548 0.12568 0.0
O2094 O 0.64301 0.43701 0.1161 0.0
C2095 C 0.63263 0.46608 0.09441 0.0
N2096 N 0.62569 0.4673 0.11002 0.0
C2097 C 0.60931 0.49137 0.10181 0.0
C2098 C 0.61617 0.49029 0.0856 0.0
C2099 C 0.62791 0.47761 0.08191 0.0
C2100 C 0.61449 0.47953 0.11375 0.0
H2101 H 0.64172 0.4564 0.09156 0.0
C2102 C 0.65764 0.4303 0.11639 0.0
O2103 O 0.69495 0.45291 0.14509 0.0
O2104 O 0.68521 0.46805 0.12385 0.0
N2105 N 0.61493 0.46867 0.14091 0.0
C2106 C 0.60938 0.46788 0.15711 0.0
C2107 C 0.59757 0.4797 0.16284 0.0
C2108 C 0.5914 0.49203 0.15181 0.0
C2109 C 0.59693 0.49229 0.13508 0.0
C2110 C 0.60861 0.48011 0.13004 0.0
H2111 H 0.614 0.45838 0.16563 0.0
O2112 O 0.66738 0.47786 0.15279 0.0
O2113 O 0.64951 0.4671 0.13449 0.0
O2114 O 0.65915 0.44335 0.15936 0.0
O2115 O 0.63276 0.43949 0.14964 0.0
C2116 C 0.59143 0.50425 0.12323 0.0
C2117 C 0.59765 0.50383 0.10662 0.0
H2118 H 0.61259 0.49918 0.07593 0.0
H2119 H 0.63333 0.47675 0.06945 0.0
H2120 H 0.59327 0.47933 0.17574 0.0
H2121 H 0.58242 0.50122 0.15632 0.0
H2122 H 0.58249 0.5139 0.12679 0.0
H2123 H 0.59342 0.51317 0.09766 0.0
Mn2124 Mn 0.7894 0.4212 0.39024 0.0
Mn2125 Mn 0.7923 0.3802 0.37961 0.0
C2126 C 0.76699 0.40357 0.39554 0.0
C2127 C 0.7832 0.44864 0.38199 0.0
C2128 C 0.80873 0.39526 0.41072 0.0
O2129 O 0.81033 0.42022 0.37562 0.0
O2130 O 0.80876 0.39351 0.36624 0.0
C2131 C 0.77965 0.38282 0.34474 0.0
N2132 N 0.77849 0.37603 0.36041 0.0
C2133 C 0.75444 0.35947 0.35242 0.0
C2134 C 0.75546 0.36617 0.33615 0.0
C2135 C 0.7681 0.37793 0.33231 0.0
C2136 C 0.7663 0.36481 0.36428 0.0
H2137 H 0.7893 0.39192 0.34177 0.0
C2138 C 0.81547 0.40815 0.36641 0.0
O2139 O 0.79286 0.4457 0.39484 0.0
O2140 O 0.77773 0.43571 0.37371 0.0
N2141 N 0.77723 0.36558 0.39141 0.0
C2142 C 0.77806 0.3602 0.40766 0.0
C2143 C 0.76629 0.3484 0.41354 0.0
C2144 C 0.75395 0.34207 0.4026 0.0
C2145 C 0.75364 0.34742 0.38582 0.0
C2146 C 0.76578 0.3591 0.38063 0.0
H2147 H 0.78756 0.36495 0.41611 0.0
O2148 O 0.76798 0.41811 0.40281 0.0
O2149 O 0.77873 0.40011 0.38466 0.0
O2150 O 0.8025 0.41003 0.40941 0.0
O2151 O 0.8064 0.38357 0.39987 0.0
C2152 C 0.74167 0.34175 0.37405 0.0
C2153 C 0.74203 0.34781 0.35739 0.0
H2154 H 0.74656 0.36246 0.32654 0.0
H2155 H 0.76892 0.38323 0.3198 0.0
H2156 H 0.76669 0.34424 0.42648 0.0
H2157 H 0.7448 0.33309 0.40722 0.0
H2158 H 0.73205 0.33281 0.37773 0.0
H2159 H 0.73268 0.34345 0.34849 0.0
Mn2160 Mn 0.82454 0.45588 0.85401 0.0
Mn2161 Mn 0.86548 0.4531 0.8648 0.0
C2162 C 0.84214 0.47831 0.84871 0.0
C2163 C 0.79707 0.46203 0.86215 0.0
C2164 C 0.8506 0.43655 0.83367 0.0
O2165 O 0.82549 0.43501 0.86869 0.0
O2166 O 0.85215 0.43665 0.87816 0.0
C2167 C 0.86267 0.46585 0.89963 0.0
N2168 N 0.86953 0.46698 0.88399 0.0
C2169 C 0.88598 0.4911 0.89198 0.0
C2170 C 0.8792 0.49012 0.90823 0.0
C2171 C 0.86746 0.47745 0.91205 0.0
C2172 C 0.88073 0.47919 0.88013 0.0
H2173 H 0.85358 0.45619 0.90259 0.0
C2174 C 0.83752 0.42991 0.87796 0.0
O2175 O 0.80008 0.45234 0.84933 0.0
O2176 O 0.80994 0.46757 0.87046 0.0
N2177 N 0.88013 0.46817 0.85303 0.0
C2178 C 0.88559 0.4673 0.83681 0.0
C2179 C 0.89738 0.47909 0.83095 0.0
C2180 C 0.90362 0.49149 0.84188 0.0
C2181 C 0.89818 0.49184 0.85864 0.0
C2182 C 0.88652 0.47968 0.8638 0.0
H2183 H 0.88091 0.45776 0.82836 0.0
O2184 O 0.82763 0.47727 0.84139 0.0
O2185 O 0.84558 0.46661 0.85964 0.0
O2186 O 0.83581 0.44274 0.83492 0.0
O2187 O 0.86224 0.43893 0.84456 0.0
C2188 C 0.90376 0.50387 0.8704 0.0
C2189 C 0.89762 0.50354 0.88704 0.0
H2190 H 0.88284 0.49907 0.91784 0.0
H2191 H 0.86211 0.47666 0.92454 0.0
H2192 H 0.9016 0.47866 0.81802 0.0
H2193 H 0.91259 0.50066 0.83727 0.0
H2194 H 0.91269 0.5135 0.86674 0.0
H2195 H 0.90191 0.51293 0.89593 0.0
Mn2196 Mn 0.78961 0.57464 0.10441 0.0
Mn2197 Mn 0.79242 0.61566 0.11501 0.0
C2198 C 0.76721 0.59221 0.09902 0.0
C2199 C 0.78343 0.5472 0.11267 0.0
C2200 C 0.80898 0.60061 0.08396 0.0
O2201 O 0.81047 0.57568 0.11911 0.0
O2202 O 0.80885 0.60241 0.12845 0.0
C2203 C 0.77965 0.61304 0.14985 0.0
N2204 N 0.77853 0.61981 0.13416 0.0
C2205 C 0.75442 0.63629 0.14206 0.0
C2206 C 0.75539 0.6296 0.15834 0.0
C2207 C 0.76803 0.6179 0.16224 0.0
C2208 C 0.76634 0.63098 0.13025 0.0
H2209 H 0.7893 0.60397 0.15285 0.0
C2210 C 0.81556 0.58777 0.12833 0.0
O2211 O 0.79313 0.55016 0.09985 0.0
O2212 O 0.77789 0.56012 0.12092 0.0
N2213 N 0.77738 0.63023 0.10316 0.0
C2214 C 0.77827 0.6356 0.08691 0.0
C2215 C 0.7665 0.64735 0.08098 0.0
C2216 C 0.7541 0.65365 0.09187 0.0
C2217 C 0.75372 0.6483 0.10866 0.0
C2218 C 0.76587 0.63667 0.11389 0.0
H2219 H 0.78781 0.63087 0.07849 0.0
O2220 O 0.76825 0.57766 0.09177 0.0
O2221 O 0.7789 0.59571 0.10994 0.0
O2222 O 0.80278 0.58582 0.08528 0.0
O2223 O 0.8066 0.61231 0.09479 0.0
C2224 C 0.74169 0.65395 0.12038 0.0
C2225 C 0.742 0.6479 0.13705 0.0
H2226 H 0.74643 0.63329 0.16793 0.0
H2227 H 0.76881 0.61261 0.17475 0.0
H2228 H 0.76695 0.6515 0.06803 0.0
H2229 H 0.74495 0.66259 0.08721 0.0
H2230 H 0.73208 0.66285 0.11667 0.0
H2231 H 0.73261 0.65223 0.14591 0.0
Mn2232 Mn 0.67076 0.53984 0.35383 0.0
Mn2233 Mn 0.62977 0.54268 0.36451 0.0
C2234 C 0.65315 0.51741 0.34854 0.0
C2235 C 0.6982 0.53366 0.36204 0.0
C2236 C 0.64478 0.55915 0.33339 0.0
O2237 O 0.66977 0.56076 0.36846 0.0
O2238 O 0.64307 0.55915 0.37788 0.0
C2239 C 0.63245 0.53 0.39938 0.0
N2240 N 0.62565 0.52884 0.38371 0.0
C2241 C 0.60914 0.50476 0.39171 0.0
C2242 C 0.61587 0.50577 0.40798 0.0
C2243 C 0.62761 0.51843 0.41181 0.0
C2244 C 0.61445 0.51664 0.37986 0.0
H2245 H 0.64155 0.53966 0.40233 0.0
C2246 C 0.65771 0.56588 0.3777 0.0
O2247 O 0.69524 0.54333 0.3492 0.0
O2248 O 0.68528 0.52817 0.37034 0.0
N2249 N 0.61516 0.52759 0.35274 0.0
C2250 C 0.60976 0.52843 0.3365 0.0
C2251 C 0.59797 0.51665 0.33063 0.0
C2252 C 0.59168 0.50429 0.34157 0.0
C2253 C 0.59706 0.50396 0.35834 0.0
C2254 C 0.60872 0.51612 0.36351 0.0
H2255 H 0.61449 0.53795 0.32804 0.0
O2256 O 0.66768 0.51842 0.34125 0.0
O2257 O 0.64969 0.52914 0.35943 0.0
O2258 O 0.65956 0.55294 0.33468 0.0
O2259 O 0.63311 0.5568 0.34425 0.0
C2260 C 0.59142 0.49197 0.37011 0.0
C2261 C 0.5975 0.49233 0.38677 0.0
H2262 H 0.61218 0.49685 0.41759 0.0
H2263 H 0.63292 0.51924 0.4243 0.0
H2264 H 0.5938 0.51706 0.31769 0.0
H2265 H 0.58271 0.49512 0.33695 0.0
H2266 H 0.58249 0.48234 0.36645 0.0
H2267 H 0.59317 0.48296 0.39566 0.0
Mn2268 Mn 0.70592 0.421 0.60404 0.0
Mn2269 Mn 0.70308 0.38004 0.61488 0.0
C2270 C 0.72836 0.40341 0.59885 0.0
C2271 C 0.71204 0.44849 0.61216 0.0
C2272 C 0.68669 0.39487 0.58365 0.0
O2273 O 0.68497 0.42004 0.61864 0.0
O2274 O 0.68655 0.39337 0.62813 0.0
C2275 C 0.71562 0.38295 0.64977 0.0
N2276 N 0.71685 0.37606 0.63414 0.0
C2277 C 0.74093 0.35967 0.6423 0.0
C2278 C 0.73985 0.36649 0.65852 0.0
C2279 C 0.72716 0.3782 0.66226 0.0
C2280 C 0.72908 0.36488 0.63037 0.0
H2281 H 0.70594 0.39203 0.65265 0.0
C2282 C 0.67982 0.408 0.62789 0.0
O2283 O 0.70241 0.44545 0.59931 0.0
O2284 O 0.71753 0.43563 0.62051 0.0
N2285 N 0.71822 0.3654 0.60322 0.0
C2286 C 0.71744 0.3599 0.58701 0.0
C2287 C 0.72926 0.34812 0.58123 0.0
C2288 C 0.7416 0.34193 0.59224 0.0
C2289 C 0.74186 0.34741 0.60899 0.0
C2290 C 0.72967 0.35906 0.61406 0.0
H2291 H 0.70794 0.36454 0.5785 0.0
O2292 O 0.72735 0.41792 0.59151 0.0
O2293 O 0.71662 0.39997 0.60975 0.0
O2294 O 0.69287 0.40968 0.58492 0.0
O2295 O 0.68904 0.38324 0.59456 0.0
C2296 C 0.75383 0.34187 0.62081 0.0
C2297 C 0.7534 0.34805 0.63744 0.0
H2298 H 0.74874 0.36288 0.66818 0.0
H2299 H 0.72629 0.38358 0.67473 0.0
H2300 H 0.7289 0.34386 0.56832 0.0
H2301 H 0.7508 0.33296 0.58769 0.0
H2302 H 0.76348 0.33296 0.61722 0.0
H2303 H 0.76274 0.3438 0.64638 0.0
Mn2304 Mn 0.64079 0.82466 0.53971 0.0
Mn2305 Mn 0.63007 0.86564 0.54265 0.0
C2306 C 0.64601 0.84231 0.51732 0.0
C2307 C 0.63258 0.7972 0.53349 0.0
C2308 C 0.66126 0.85068 0.55899 0.0
O2309 O 0.6262 0.8256 0.56066 0.0
O2310 O 0.61677 0.85229 0.55914 0.0
C2311 C 0.59515 0.86288 0.53011 0.0
N2312 N 0.61081 0.86972 0.5289 0.0
C2313 C 0.60271 0.88623 0.50489 0.0
C2314 C 0.58645 0.87946 0.50595 0.0
C2315 C 0.58267 0.86771 0.51859 0.0
C2316 C 0.61462 0.88094 0.51671 0.0
H2317 H 0.59223 0.85377 0.53976 0.0
C2318 C 0.61698 0.83765 0.56584 0.0
O2319 O 0.64545 0.80018 0.54313 0.0
O2320 O 0.62426 0.81011 0.52806 0.0
N2321 N 0.64179 0.88029 0.52756 0.0
C2322 C 0.65803 0.88573 0.52836 0.0
C2323 C 0.66385 0.89754 0.51658 0.0
C2324 C 0.65286 0.90382 0.50427 0.0
C2325 C 0.63608 0.8984 0.50399 0.0
C2326 C 0.63096 0.88672 0.51615 0.0
H2327 H 0.66653 0.88103 0.53783 0.0
O2328 O 0.65332 0.82779 0.51828 0.0
O2329 O 0.63513 0.84574 0.52908 0.0
O2330 O 0.65997 0.8359 0.55278 0.0
O2331 O 0.65038 0.86234 0.55669 0.0
C2332 C 0.62427 0.90401 0.49206 0.0
C2333 C 0.60761 0.89789 0.49247 0.0
H2334 H 0.5768 0.88313 0.49707 0.0
H2335 H 0.57017 0.86236 0.51944 0.0
H2336 H 0.67679 0.90176 0.51695 0.0
H2337 H 0.65744 0.91281 0.4951 0.0
H2338 H 0.62789 0.91296 0.48244 0.0
H2339 H 0.59867 0.9022 0.48314 0.0
Mn2340 Mn 0.14075 0.67098 0.45592 0.0
Mn2341 Mn 0.12993 0.63003 0.45297 0.0
C2342 C 0.14591 0.65333 0.47831 0.0
C2343 C 0.13258 0.69845 0.4621 0.0
C2344 C 0.16118 0.64495 0.43664 0.0
O2345 O 0.12619 0.67006 0.43497 0.0
O2346 O 0.11667 0.64339 0.43649 0.0
C2347 C 0.095 0.63282 0.46552 0.0
N2348 N 0.11064 0.62596 0.46672 0.0
C2349 C 0.10248 0.60944 0.49072 0.0
C2350 C 0.08624 0.61623 0.48967 0.0
C2351 C 0.0825 0.628 0.47704 0.0
C2352 C 0.11441 0.61472 0.4789 0.0
H2353 H 0.09212 0.64194 0.45588 0.0
C2354 C 0.11694 0.65804 0.42979 0.0
O2355 O 0.14546 0.69546 0.45249 0.0
O2356 O 0.12423 0.68555 0.46755 0.0
N2357 N 0.14159 0.61535 0.46804 0.0
C2358 C 0.15782 0.60988 0.46724 0.0
C2359 C 0.1636 0.59805 0.479 0.0
C2360 C 0.15258 0.59178 0.49131 0.0
C2361 C 0.13582 0.59722 0.49159 0.0
C2362 C 0.13074 0.60893 0.47945 0.0
H2363 H 0.16633 0.61458 0.45776 0.0
O2364 O 0.15325 0.66785 0.47736 0.0
O2365 O 0.13504 0.64991 0.46655 0.0
O2366 O 0.15992 0.65973 0.44287 0.0
O2367 O 0.15026 0.63331 0.43893 0.0
C2368 C 0.12398 0.59161 0.50352 0.0
C2369 C 0.10734 0.59776 0.50313 0.0
H2370 H 0.07657 0.61256 0.49854 0.0
H2371 H 0.07002 0.63336 0.4762 0.0
H2372 H 0.17652 0.59381 0.47862 0.0
H2373 H 0.15712 0.58277 0.50046 0.0
H2374 H 0.12757 0.58265 0.51313 0.0
H2375 H 0.09838 0.59344 0.51245 0.0
Mn2376 Mn 0.57533 0.89109 0.70653 0.0
Mn2377 Mn 0.6163 0.88043 0.70351 0.0
C2378 C 0.59304 0.89643 0.72884 0.0
C2379 C 0.54791 0.88289 0.71287 0.0
C2380 C 0.60126 0.91156 0.6871 0.0
O2381 O 0.57623 0.87641 0.68565 0.0
O2382 O 0.60295 0.86706 0.6871 0.0
C2383 C 0.61363 0.84553 0.71616 0.0
N2384 N 0.62044 0.86121 0.71731 0.0
C2385 C 0.63694 0.85322 0.74137 0.0
C2386 C 0.63021 0.83694 0.74036 0.0
C2387 C 0.61847 0.83309 0.72772 0.0
C2388 C 0.63164 0.86508 0.72949 0.0
H2389 H 0.60454 0.84256 0.70653 0.0
C2390 C 0.58828 0.8672 0.68046 0.0
O2391 O 0.55084 0.89572 0.70316 0.0
O2392 O 0.56083 0.8746 0.7183 0.0
N2393 N 0.63095 0.89222 0.71854 0.0
C2394 C 0.63637 0.90848 0.71769 0.0
C2395 C 0.64815 0.91436 0.72946 0.0
C2396 C 0.65442 0.90343 0.74182 0.0
C2397 C 0.64903 0.88663 0.74215 0.0
C2398 C 0.63738 0.88144 0.73 0.0
H2399 H 0.63165 0.91693 0.70818 0.0
O2400 O 0.57851 0.90373 0.72789 0.0
O2401 O 0.59644 0.8855 0.71712 0.0
O2402 O 0.58649 0.91024 0.69334 0.0
O2403 O 0.61295 0.90071 0.68942 0.0
C2404 C 0.65466 0.87486 0.75413 0.0
C2405 C 0.64857 0.85819 0.75378 0.0
H2406 H 0.63388 0.82732 0.74928 0.0
H2407 H 0.61316 0.82058 0.72692 0.0
H2408 H 0.65233 0.92731 0.72904 0.0
H2409 H 0.66338 0.90805 0.75098 0.0
H2410 H 0.66358 0.87854 0.76375 0.0
H2411 H 0.65289 0.84929 0.76314 0.0
Mn2412 Mn 0.35448 0.32471 0.95551 0.0
Mn2413 Mn 0.36521 0.36569 0.95257 0.0
C2414 C 0.34923 0.34236 0.97789 0.0
C2415 C 0.36268 0.29726 0.9617 0.0
C2416 C 0.33403 0.35069 0.9362 0.0
O2417 O 0.36909 0.32566 0.93458 0.0
O2418 O 0.37854 0.35236 0.93612 0.0
C2419 C 0.40011 0.36301 0.96518 0.0
N2420 N 0.38445 0.36982 0.96635 0.0
C2421 C 0.3925 0.38637 0.99037 0.0
C2422 C 0.40877 0.37963 0.98934 0.0
C2423 C 0.41257 0.36787 0.97671 0.0
C2424 C 0.38061 0.38105 0.97853 0.0
H2425 H 0.40304 0.35389 0.95554 0.0
C2426 C 0.37833 0.33771 0.92942 0.0
O2427 O 0.34982 0.30023 0.95206 0.0
O2428 O 0.371 0.31018 0.96716 0.0
N2429 N 0.35346 0.38034 0.96764 0.0
C2430 C 0.33722 0.38575 0.96681 0.0
C2431 C 0.33138 0.39756 0.97858 0.0
C2432 C 0.34234 0.40387 0.9909 0.0
C2433 C 0.35913 0.39848 0.9912 0.0
C2434 C 0.36427 0.3868 0.97906 0.0
H2435 H 0.32874 0.38102 0.95733 0.0
O2436 O 0.34193 0.32782 0.97693 0.0
O2437 O 0.36012 0.3458 0.96615 0.0
O2438 O 0.33531 0.33591 0.94243 0.0
O2439 O 0.34492 0.36236 0.9385 0.0
C2440 C 0.37092 0.40413 0.00315 0.0
C2441 C 0.38758 0.39804 0.00277 0.0
H2442 H 0.4184 0.38332 -0.00177 0.0
H2443 H 0.42507 0.36254 0.97589 0.0
H2444 H 0.31843 0.40175 0.97818 0.0
H2445 H 0.33775 0.41286 5e-05 0.0
H2446 H 0.36728 0.41308 0.01275 0.0
H2447 H 0.3965 0.40238 0.0121 0.0
Mn2448 Mn 0.42069 0.60506 0.70566 0.0
Mn2449 Mn 0.37972 0.61576 0.70287 0.0
C2450 C 0.40309 0.5997 0.72806 0.0
C2451 C 0.44815 0.61324 0.71182 0.0
C2452 C 0.39467 0.58465 0.68633 0.0
O2453 O 0.41971 0.61976 0.6848 0.0
O2454 O 0.39302 0.62916 0.68643 0.0
C2455 C 0.38246 0.65063 0.7156 0.0
N2456 N 0.37564 0.63495 0.71674 0.0
C2457 C 0.35916 0.64292 0.74083 0.0
C2458 C 0.36591 0.6592 0.73984 0.0
C2459 C 0.37764 0.66305 0.7272 0.0
C2460 C 0.36444 0.63107 0.72893 0.0
H2461 H 0.39155 0.65361 0.70595 0.0
C2462 C 0.40765 0.629 0.6797 0.0
O2463 O 0.44515 0.60042 0.70212 0.0
O2464 O 0.43527 0.62153 0.71736 0.0
N2465 N 0.3651 0.60395 0.71793 0.0
C2466 C 0.35967 0.5877 0.71705 0.0
C2467 C 0.34789 0.58181 0.72883 0.0
C2468 C 0.34162 0.59274 0.74121 0.0
C2469 C 0.34703 0.60953 0.74156 0.0
C2470 C 0.35868 0.61472 0.72941 0.0
H2471 H 0.36438 0.57925 0.70752 0.0
O2472 O 0.41762 0.59241 0.72702 0.0
O2473 O 0.39964 0.61065 0.71638 0.0
O2474 O 0.40945 0.58594 0.69251 0.0
O2475 O 0.38301 0.59551 0.68872 0.0
C2476 C 0.34142 0.62128 0.75357 0.0
C2477 C 0.34752 0.63795 0.75325 0.0
H2478 H 0.36225 0.66881 0.74878 0.0
H2479 H 0.38297 0.67556 0.72641 0.0
H2480 H 0.34369 0.56886 0.72839 0.0
H2481 H 0.33266 0.58811 0.75036 0.0
H2482 H 0.33249 0.6176 0.76319 0.0
H2483 H 0.34321 0.64684 0.76263 0.0
Mn2484 Mn 0.85452 0.17121 0.03928 0.0
Mn2485 Mn 0.86531 0.13023 0.0418 0.0
C2486 C 0.84928 0.15377 0.01672 0.0
C2487 C 0.86269 0.19873 0.03337 0.0
C2488 C 0.83411 0.14499 0.05835 0.0
O2489 O 0.86913 0.17009 0.06018 0.0
O2490 O 0.87863 0.14344 0.05837 0.0
C2491 C 0.90019 0.13316 0.02916 0.0
N2492 N 0.88454 0.1263 0.02795 0.0
C2493 C 0.89261 0.11002 0.00376 0.0
C2494 C 0.90886 0.1168 0.00482 0.0
C2495 C 0.91265 0.12845 0.01756 0.0
C2496 C 0.88072 0.11518 0.01567 0.0
H2497 H 0.90312 0.14218 0.03888 0.0
C2498 C 0.87839 0.15802 0.06521 0.0
O2499 O 0.84983 0.19564 0.04299 0.0
O2500 O 0.87102 0.18589 0.02776 0.0
N2501 N 0.85358 0.11569 0.02662 0.0
C2502 C 0.83735 0.1102 0.02743 0.0
C2503 C 0.83152 0.09847 0.01557 0.0
C2504 C 0.84249 0.09232 0.00317 0.0
C2505 C 0.85926 0.09779 0.00288 0.0
C2506 C 0.86439 0.10938 0.01511 0.0
H2507 H 0.82887 0.11481 0.03698 0.0
O2508 O 0.84197 0.16829 0.01784 0.0
O2509 O 0.86018 0.15024 0.02842 0.0
O2510 O 0.83537 0.15983 0.05226 0.0
O2511 O 0.84502 0.13338 0.05593 0.0
C2512 C 0.87105 0.0923 0.99085 0.0
C2513 C 0.8877 0.09845 0.99125 0.0
H2514 H 0.9185 0.11323 0.99588 0.0
H2515 H 0.92514 0.13381 0.01841 0.0
H2516 H 0.81859 0.09423 0.01596 0.0
H2517 H 0.83791 0.0834 0.99395 0.0
H2518 H 0.86742 0.08343 0.98117 0.0
H2519 H 0.89662 0.09423 0.98186 0.0
Mn2520 Mn 0.5748 0.10584 0.78842 0.0
Mn2521 Mn 0.61568 0.11697 0.79123 0.0
C2522 C 0.59239 0.10086 0.76595 0.0
C2523 C 0.54724 0.11377 0.78239 0.0
C2524 C 0.6011 0.0855 0.80743 0.0
O2525 O 0.57566 0.12034 0.80942 0.0
O2526 O 0.60228 0.12998 0.8079 0.0
C2527 C 0.61244 0.15197 0.77897 0.0
N2528 N 0.61946 0.13641 0.77761 0.0
C2529 C 0.63571 0.14492 0.75354 0.0
C2530 C 0.62875 0.16108 0.75476 0.0
C2531 C 0.61704 0.1646 0.76752 0.0
C2532 C 0.63063 0.13284 0.76531 0.0
H2533 H 0.60336 0.15469 0.7887 0.0
C2534 C 0.58765 0.12961 0.81463 0.0
O2535 O 0.55039 0.10089 0.79196 0.0
O2536 O 0.56003 0.12226 0.77691 0.0
N2537 N 0.63041 0.10558 0.77598 0.0
C2538 C 0.63611 0.08943 0.77667 0.0
C2539 C 0.64794 0.08387 0.76479 0.0
C2540 C 0.65398 0.09503 0.75249 0.0
C2541 C 0.64831 0.11172 0.75235 0.0
C2542 C 0.63661 0.11658 0.76459 0.0
H2543 H 0.63159 0.0808 0.78613 0.0
O2544 O 0.57792 0.09342 0.76694 0.0
O2545 O 0.59578 0.11175 0.77771 0.0
O2546 O 0.58626 0.08672 0.80134 0.0
O2547 O 0.61267 0.09649 0.80511 0.0
C2548 C 0.6537 0.12371 0.74046 0.0
C2549 C 0.64736 0.14027 0.74101 0.0
H2550 H 0.63225 0.17085 0.74594 0.0
H2551 H 0.61155 0.17702 0.76849 0.0
H2552 H 0.65235 0.07099 0.76507 0.0
H2553 H 0.66298 0.09065 0.74325 0.0
H2554 H 0.66264 0.12028 0.73077 0.0
H2555 H 0.65151 0.14934 0.73173 0.0
Mn2556 Mn 0.92055 0.89056 0.28908 0.0
Mn2557 Mn 0.87963 0.8796 0.29192 0.0
C2558 C 0.90297 0.89562 0.26662 0.0
C2559 C 0.94806 0.88247 0.283 0.0
C2560 C 0.89437 0.91098 0.30818 0.0
O2561 O 0.91961 0.87606 0.31007 0.0
O2562 O 0.89297 0.86649 0.30854 0.0
C2563 C 0.88265 0.84462 0.27957 0.0
N2564 N 0.87572 0.86023 0.27825 0.0
C2565 C 0.85939 0.85188 0.2542 0.0
C2566 C 0.86625 0.83567 0.25537 0.0
C2567 C 0.87796 0.83204 0.26809 0.0
C2568 C 0.86455 0.86389 0.26599 0.0
H2569 H 0.89172 0.84183 0.28927 0.0
C2570 C 0.90759 0.86681 0.31527 0.0
O2571 O 0.94499 0.89537 0.29258 0.0
O2572 O 0.93521 0.87406 0.27754 0.0
N2573 N 0.86496 0.89113 0.27672 0.0
C2574 C 0.85939 0.90733 0.27744 0.0
C2575 C 0.84759 0.91299 0.26559 0.0
C2576 C 0.84146 0.90189 0.25329 0.0
C2577 C 0.84701 0.88515 0.25311 0.0
C2578 C 0.85867 0.88019 0.26533 0.0
H2579 H 0.86399 0.91591 0.28691 0.0
O2580 O 0.91747 0.903 0.2676 0.0
O2581 O 0.89954 0.88475 0.27839 0.0
O2582 O 0.90918 0.90973 0.30204 0.0
O2583 O 0.88276 0.90003 0.30586 0.0
C2584 C 0.84153 0.87323 0.2412 0.0
C2585 C 0.84776 0.85662 0.24171 0.0
H2586 H 0.86269 0.82594 0.24652 0.0
H2587 H 0.88337 0.81959 0.26902 0.0
H2588 H 0.84328 0.9259 0.2659 0.0
H2589 H 0.83249 0.90635 0.24407 0.0
H2590 H 0.83261 0.87673 0.23153 0.0
H2591 H 0.84355 0.8476 0.23241 0.0
Mn2592 Mn 0.45627 0.3548 0.17016 0.0
Mn2593 Mn 0.45377 0.36542 0.12916 0.0
C2594 C 0.47881 0.34942 0.15275 0.0
C2595 C 0.46223 0.36307 0.19762 0.0
C2596 C 0.43711 0.33433 0.14407 0.0
O2597 O 0.43541 0.36949 0.16898 0.0
O2598 O 0.43723 0.37885 0.1423 0.0
C2599 C 0.46652 0.40029 0.1319 0.0
N2600 N 0.46769 0.3846 0.12513 0.0
C2601 C 0.49193 0.39253 0.10882 0.0
C2602 C 0.49091 0.40882 0.11552 0.0
C2603 C 0.47817 0.4127 0.12714 0.0
C2604 C 0.47997 0.38069 0.11405 0.0
H2605 H 0.4568 0.40329 0.1409 0.0
C2606 C 0.43039 0.37871 0.15688 0.0
O2607 O 0.45255 0.35023 0.1946 0.0
O2608 O 0.46786 0.37133 0.18475 0.0
N2609 N 0.46894 0.35358 0.1147 0.0
C2610 C 0.46808 0.33732 0.10931 0.0
C2611 C 0.47994 0.3314 0.09763 0.0
C2612 C 0.49239 0.34231 0.09143 0.0
C2613 C 0.49272 0.35911 0.09679 0.0
C2614 C 0.48049 0.36433 0.10834 0.0
H2615 H 0.45851 0.32888 0.11396 0.0
O2616 O 0.47767 0.34216 0.16728 0.0
O2617 O 0.46715 0.36035 0.14918 0.0
O2618 O 0.44321 0.33564 0.15889 0.0
O2619 O 0.43957 0.34518 0.13241 0.0
C2620 C 0.50479 0.37084 0.09124 0.0
C2621 C 0.50444 0.38753 0.0973 0.0
H2622 H 0.49989 0.41842 0.1119 0.0
H2623 H 0.47736 0.42522 0.13243 0.0
H2624 H 0.47953 0.31844 0.09346 0.0
H2625 H 0.50161 0.33766 0.08254 0.0
H2626 H 0.51448 0.36714 0.08241 0.0
H2627 H 0.51386 0.3964 0.09304 0.0
Mn2628 Mn 0.39098 0.70585 0.92084 0.0
Mn2629 Mn 0.3803 0.70334 0.87987 0.0
C2630 C 0.39641 0.72837 0.90342 0.0
C2631 C 0.38276 0.71185 0.9483 0.0
C2632 C 0.41133 0.6866 0.89473 0.0
O2633 O 0.37623 0.68501 0.91969 0.0
O2634 O 0.36682 0.68684 0.89303 0.0
C2635 C 0.34548 0.71617 0.88265 0.0
N2636 N 0.36117 0.7173 0.87586 0.0
C2637 C 0.35333 0.74156 0.85957 0.0
C2638 C 0.33704 0.74058 0.86628 0.0
C2639 C 0.33312 0.72785 0.8779 0.0
C2640 C 0.36511 0.72957 0.86477 0.0
H2641 H 0.34246 0.70646 0.89165 0.0
C2642 C 0.36698 0.68 0.9076 0.0
O2643 O 0.39556 0.70215 0.94527 0.0
O2644 O 0.37451 0.71749 0.93544 0.0
N2645 N 0.39218 0.71847 0.86538 0.0
C2646 C 0.40843 0.71758 0.85998 0.0
C2647 C 0.41439 0.72943 0.84831 0.0
C2648 C 0.40352 0.74191 0.84213 0.0
C2649 C 0.38673 0.74227 0.8475 0.0
C2650 C 0.38147 0.73005 0.85904 0.0
H2651 H 0.41683 0.70799 0.86462 0.0
O2652 O 0.40368 0.72723 0.91794 0.0
O2653 O 0.38544 0.71672 0.89987 0.0
O2654 O 0.41007 0.69273 0.90954 0.0
O2655 O 0.40048 0.68909 0.88309 0.0
C2656 C 0.37504 0.75438 0.84197 0.0
C2657 C 0.35836 0.75406 0.84805 0.0
H2658 H 0.32748 0.74959 0.86268 0.0
H2659 H 0.32061 0.72707 0.8832 0.0
H2660 H 0.42733 0.72899 0.84413 0.0
H2661 H 0.4082 0.75112 0.83325 0.0
H2662 H 0.37877 0.76406 0.83314 0.0
H2663 H 0.34952 0.76351 0.8438 0.0
Mn2664 Mn 0.03938 0.64126 0.67034 0.0
Mn2665 Mn 0.04232 0.6306 0.62938 0.0
C2666 C 0.01702 0.64661 0.6527 0.0
C2667 C 0.03313 0.63302 0.69775 0.0
C2668 C 0.05885 0.66168 0.64445 0.0
O2669 O 0.06024 0.62656 0.66938 0.0
O2670 O 0.05867 0.61714 0.6427 0.0
C2671 C 0.02949 0.59574 0.63195 0.0
N2672 N 0.02842 0.61144 0.62518 0.0
C2673 C 0.00439 0.60355 0.60858 0.0
C2674 C 0.0053 0.58726 0.61528 0.0
C2675 C 0.01789 0.58335 0.62704 0.0
C2676 C 0.01629 0.61537 0.61395 0.0
H2677 H 0.03909 0.59273 0.64107 0.0
C2678 C 0.06535 0.61729 0.65734 0.0
O2679 O 0.04283 0.64586 0.69481 0.0
O2680 O 0.02762 0.62475 0.68483 0.0
N2681 N 0.02734 0.64248 0.61477 0.0
C2682 C 0.02825 0.65875 0.60943 0.0
C2683 C 0.01654 0.6647 0.59764 0.0
C2684 C 0.00417 0.6538 0.59128 0.0
C2685 C 0.00377 0.63699 0.5966 0.0
C2686 C 0.01586 0.63174 0.60826 0.0
H2687 H 0.03777 0.66718 0.61421 0.0
O2688 O 0.01801 0.6539 0.66723 0.0
O2689 O 0.02873 0.63568 0.64926 0.0
O2690 O 0.05257 0.6604 0.6592 0.0
O2691 O 0.05652 0.65082 0.63278 0.0
C2692 C 0.99176 0.62527 0.59089 0.0
C2693 C 0.99203 0.60858 0.59693 0.0
H2694 H 0.99636 0.57767 0.61154 0.0
H2695 H 0.01862 0.57083 0.63232 0.0
H2696 H 0.017 0.67766 0.59351 0.0
H2697 H 0.99506 0.65847 0.5823 0.0
H2698 H 0.98218 0.62899 0.58196 0.0
H2699 H 0.98265 0.59971 0.59255 0.0
Mn2700 Mn 0.1039 0.2891 0.42122 0.0
Mn2701 Mn 0.11531 0.29205 0.38045 0.0
C2702 C 0.09892 0.26672 0.40348 0.0
C2703 C 0.11155 0.28282 0.44878 0.0
C2704 C 0.08387 0.30839 0.3949 0.0
O2705 O 0.11855 0.31004 0.42055 0.0
O2706 O 0.12834 0.30858 0.394 0.0
C2707 C 0.15019 0.27956 0.38381 0.0
N2708 N 0.13466 0.27832 0.3767 0.0
C2709 C 0.1431 0.25428 0.36037 0.0
C2710 C 0.15923 0.25538 0.36741 0.0
C2711 C 0.16278 0.26805 0.37921 0.0
C2712 C 0.13108 0.2661 0.36544 0.0
H2713 H 0.15293 0.28922 0.39295 0.0
C2714 C 0.12793 0.31525 0.40864 0.0
O2715 O 0.09878 0.29251 0.44559 0.0
O2716 O 0.12013 0.2774 0.43603 0.0
N2717 N 0.10389 0.27692 0.3656 0.0
C2718 C 0.08775 0.27769 0.35987 0.0
C2719 C 0.08217 0.26588 0.34798 0.0
C2720 C 0.09329 0.25357 0.34191 0.0
C2721 C 0.10997 0.25332 0.34763 0.0
C2722 C 0.11485 0.2655 0.35938 0.0
H2723 H 0.07916 0.28717 0.36442 0.0
O2724 O 0.09137 0.26769 0.41788 0.0
O2725 O 0.1099 0.27845 0.40024 0.0
O2726 O 0.08496 0.30222 0.4097 0.0
O2727 O 0.09491 0.30605 0.3834 0.0
C2728 C 0.1219 0.24139 0.34223 0.0
C2729 C 0.13844 0.24183 0.34864 0.0
H2730 H 0.16897 0.2465 0.36392 0.0
H2731 H 0.17517 0.26892 0.38477 0.0
H2732 H 0.06931 0.26623 0.34354 0.0
H2733 H 0.08889 0.24438 0.33286 0.0
H2734 H 0.11846 0.23175 0.33324 0.0
H2735 H 0.14747 0.23251 0.34449 0.0
Mn2736 Mn 0.45595 0.64068 0.32451 0.0
Mn2737 Mn 0.453 0.62996 0.36545 0.0
C2738 C 0.47829 0.64605 0.34217 0.0
C2739 C 0.46226 0.63255 0.29707 0.0
C2740 C 0.43649 0.66105 0.35046 0.0
O2741 O 0.43508 0.62593 0.32542 0.0
O2742 O 0.4366 0.61655 0.35211 0.0
C2743 C 0.46574 0.59509 0.36275 0.0
N2744 N 0.46685 0.61077 0.36957 0.0
C2745 C 0.49089 0.60281 0.38611 0.0
C2746 C 0.48993 0.58653 0.37937 0.0
C2747 C 0.47732 0.58267 0.36761 0.0
C2748 C 0.47901 0.61465 0.3808 0.0
H2749 H 0.45612 0.59212 0.35364 0.0
C2750 C 0.42993 0.6167 0.33746 0.0
O2751 O 0.45252 0.64534 0.30005 0.0
O2752 O 0.46774 0.62424 0.30996 0.0
N2753 N 0.46801 0.64177 0.3801 0.0
C2754 C 0.46712 0.65801 0.38552 0.0
C2755 C 0.47886 0.66391 0.39733 0.0
C2756 C 0.49122 0.65299 0.40363 0.0
C2757 C 0.49159 0.6362 0.39823 0.0
C2758 C 0.47948 0.631 0.38655 0.0
H2759 H 0.45761 0.66646 0.38079 0.0
O2760 O 0.4773 0.65336 0.32765 0.0
O2761 O 0.46659 0.63509 0.34558 0.0
O2762 O 0.44273 0.65977 0.3357 0.0
O2763 O 0.43885 0.65019 0.36213 0.0
C2764 C 0.50358 0.62445 0.40388 0.0
C2765 C 0.50327 0.60778 0.39778 0.0
H2766 H 0.49885 0.57693 0.38306 0.0
H2767 H 0.47655 0.57017 0.36228 0.0
H2768 H 0.47841 0.67685 0.40152 0.0
H2769 H 0.50035 0.65762 0.41262 0.0
H2770 H 0.51317 0.62813 0.41282 0.0
H2771 H 0.51264 0.5989 0.40212 0.0
Mn2772 Mn 0.1042 0.70622 0.074 0.0
Mn2773 Mn 0.11532 0.70339 0.11485 0.0
C2774 C 0.09903 0.72861 0.09168 0.0
C2775 C 0.11201 0.71251 0.04647 0.0
C2776 C 0.08404 0.68687 0.10023 0.0
O2777 O 0.11892 0.68535 0.0748 0.0
O2778 O 0.12851 0.68691 0.10141 0.0
C2779 C 0.15019 0.71605 0.11172 0.0
N2780 N 0.1346 0.71722 0.11872 0.0
C2781 C 0.14282 0.74132 0.13508 0.0
C2782 C 0.15901 0.7403 0.12816 0.0
C2783 C 0.16269 0.72763 0.1164 0.0
C2784 C 0.13088 0.72943 0.12994 0.0
H2785 H 0.15303 0.70639 0.10261 0.0
C2786 C 0.12823 0.6802 0.08678 0.0
O2787 O 0.09926 0.70275 0.04961 0.0
O2788 O 0.12049 0.71799 0.05926 0.0
N2789 N 0.10373 0.71848 0.1296 0.0
C2790 C 0.08755 0.71763 0.13521 0.0
C2791 C 0.08183 0.72943 0.14706 0.0
C2792 C 0.09286 0.7418 0.15319 0.0
C2793 C 0.10958 0.74212 0.14759 0.0
C2794 C 0.1146 0.72996 0.13588 0.0
H2795 H 0.07903 0.70811 0.13062 0.0
O2796 O 0.09158 0.72758 0.07724 0.0
O2797 O 0.11002 0.71693 0.095 0.0
O2798 O 0.08522 0.69303 0.08542 0.0
O2799 O 0.095 0.68928 0.11179 0.0
C2800 C 0.12142 0.75412 0.15306 0.0
C2801 C 0.13802 0.75375 0.14677 0.0
H2802 H 0.16868 0.74922 0.13171 0.0
H2803 H 0.17513 0.72681 0.11093 0.0
H2804 H 0.06894 0.72902 0.1514 0.0
H2805 H 0.08836 0.75097 0.1622 0.0
H2806 H 0.11788 0.76375 0.16202 0.0
H2807 H 0.14698 0.76312 0.15097 0.0
Mn2808 Mn 0.03906 0.35465 0.82452 0.0
Mn2809 Mn 0.04176 0.3654 0.86547 0.0
C2810 C 0.01659 0.34931 0.84206 0.0
C2811 C 0.03297 0.36282 0.79706 0.0
C2812 C 0.05833 0.33427 0.85058 0.0
O2813 O 0.05993 0.36935 0.82555 0.0
O2814 O 0.05825 0.37879 0.85221 0.0
C2815 C 0.02904 0.40026 0.86269 0.0
N2816 N 0.02789 0.3846 0.86951 0.0
C2817 C 0.00374 0.39258 0.88592 0.0
C2818 C 0.00475 0.40884 0.87917 0.0
C2819 C 0.01744 0.41269 0.86747 0.0
C2820 C 0.01566 0.38073 0.88067 0.0
H2821 H 0.03872 0.40323 0.85363 0.0
C2822 C 0.06501 0.37861 0.8376 0.0
O2823 O 0.04265 0.34999 0.80008 0.0
O2824 O 0.02741 0.37112 0.80993 0.0
N2825 N 0.02665 0.35361 0.88005 0.0
C2826 C 0.02751 0.33736 0.88549 0.0
C2827 C 0.0157 0.33149 0.89725 0.0
C2828 C 0.0033 0.34242 0.90347 0.0
C2829 C 0.00297 0.3592 0.89806 0.0
C2830 C 0.01515 0.36438 0.88643 0.0
H2831 H 0.03705 0.32891 0.88082 0.0
O2832 O 0.01766 0.342 0.82754 0.0
O2833 O 0.02829 0.36026 0.84554 0.0
O2834 O 0.05216 0.33553 0.83579 0.0
O2835 O 0.05592 0.34515 0.86222 0.0
C2836 C 0.99094 0.37095 0.90363 0.0
C2837 C 0.99129 0.38761 0.89752 0.0
H2838 H 0.9958 0.41845 0.8828 0.0
H2839 H 0.01824 0.42519 0.86214 0.0
H2840 H 0.01612 0.31855 0.90145 0.0
H2841 H 0.99412 0.3378 0.91242 0.0
H2842 H 0.9813 0.36728 0.91253 0.0
H2843 H 0.9819 0.3965 0.9018 0.0
Mn2844 Mn 0.39046 0.28954 0.57437 0.0
Mn2845 Mn 0.37951 0.29222 0.61528 0.0
C2846 C 0.39563 0.26705 0.59189 0.0
C2847 C 0.38245 0.28352 0.54685 0.0
C2848 C 0.41078 0.30871 0.60058 0.0
O2849 O 0.37584 0.31045 0.57535 0.0
O2850 O 0.36629 0.30879 0.60198 0.0
C2851 C 0.3446 0.27965 0.61226 0.0
N2852 N 0.36022 0.27841 0.61917 0.0
C2853 C 0.35201 0.25426 0.63546 0.0
C2854 C 0.33579 0.25535 0.62862 0.0
C2855 C 0.33209 0.26807 0.61694 0.0
C2856 C 0.36395 0.26614 0.63032 0.0
H2857 H 0.34175 0.28936 0.6032 0.0
C2858 C 0.36656 0.31556 0.58738 0.0
O2859 O 0.39528 0.29318 0.54997 0.0
O2860 O 0.37405 0.27794 0.55966 0.0
N2861 N 0.39112 0.27704 0.62989 0.0
C2862 C 0.40732 0.27784 0.63545 0.0
C2863 C 0.41306 0.26599 0.64721 0.0
C2864 C 0.40204 0.25361 0.65333 0.0
C2865 C 0.3853 0.25334 0.64781 0.0
C2866 C 0.38026 0.26556 0.63618 0.0
H2867 H 0.41585 0.28737 0.63086 0.0
O2868 O 0.40302 0.26812 0.57741 0.0
O2869 O 0.3847 0.27875 0.59534 0.0
O2870 O 0.40955 0.3026 0.58576 0.0
O2871 O 0.39985 0.30631 0.61218 0.0
C2872 C 0.37344 0.24134 0.65328 0.0
C2873 C 0.35683 0.24176 0.64706 0.0
H2874 H 0.32612 0.24643 0.63217 0.0
H2875 H 0.31963 0.26894 0.61154 0.0
H2876 H 0.42597 0.26636 0.65151 0.0
H2877 H 0.40655 0.24439 0.66228 0.0
H2878 H 0.37701 0.23167 0.66218 0.0
H2879 H 0.34786 0.2324 0.65127 0.0
Mn2880 Mn 0.17012 0.45585 0.35534 0.0
Mn2881 Mn 0.12908 0.45308 0.36589 0.0
C2882 C 0.15258 0.47827 0.34992 0.0
C2883 C 0.19757 0.46205 0.36356 0.0
C2884 C 0.14414 0.43654 0.33484 0.0
O2885 O 0.16906 0.435 0.37006 0.0
O2886 O 0.14229 0.43658 0.37928 0.0
C2887 C 0.13172 0.46575 0.40076 0.0
N2888 N 0.12496 0.46692 0.38508 0.0
C2889 C 0.10852 0.49105 0.39305 0.0
C2890 C 0.1152 0.49002 0.40933 0.0
C2891 C 0.12688 0.47734 0.41318 0.0
C2892 C 0.11382 0.47916 0.3812 0.0
H2893 H 0.14076 0.45607 0.40374 0.0
C2894 C 0.15693 0.42988 0.37922 0.0
O2895 O 0.19459 0.45231 0.35077 0.0
O2896 O 0.18466 0.46759 0.37182 0.0
N2897 N 0.11455 0.46819 0.35408 0.0
C2898 C 0.10917 0.46735 0.33783 0.0
C2899 C 0.09744 0.47916 0.33194 0.0
C2900 C 0.09118 0.49155 0.34286 0.0
C2901 C 0.09653 0.49187 0.35965 0.0
C2902 C 0.10813 0.47968 0.36484 0.0
H2903 H 0.11387 0.45781 0.32939 0.0
O2904 O 0.16713 0.47722 0.34267 0.0
O2905 O 0.14905 0.46659 0.36086 0.0
O2906 O 0.15895 0.44269 0.33621 0.0
O2907 O 0.13242 0.43895 0.34563 0.0
C2908 C 0.0909 0.50388 0.3714 0.0
C2909 C 0.09694 0.50351 0.38807 0.0
H2910 H 0.11153 0.49895 0.41893 0.0
H2911 H 0.13215 0.47651 0.4257 0.0
H2912 H 0.09329 0.47875 0.31899 0.0
H2913 H 0.08226 0.50074 0.33823 0.0
H2914 H 0.08202 0.51353 0.36772 0.0
H2915 H 0.09262 0.51289 0.39696 0.0
Mn2916 Mn 0.28956 0.42118 0.10415 0.0
Mn2917 Mn 0.29248 0.38024 0.11498 0.0
C2918 C 0.26713 0.40352 0.09903 0.0
C2919 C 0.28337 0.44867 0.11227 0.0
C2920 C 0.30878 0.39511 0.08371 0.0
O2921 O 0.31054 0.42029 0.11868 0.0
O2922 O 0.30902 0.39362 0.12817 0.0
C2923 C 0.28002 0.38311 0.14992 0.0
N2924 N 0.27877 0.37621 0.1343 0.0
C2925 C 0.25475 0.35973 0.14254 0.0
C2926 C 0.25585 0.36656 0.15876 0.0
C2927 C 0.26852 0.37833 0.16245 0.0
C2928 C 0.26655 0.36499 0.13058 0.0
H2929 H 0.28969 0.39223 0.15277 0.0
C2930 C 0.31573 0.40827 0.1279 0.0
O2931 O 0.293 0.44566 0.0994 0.0
O2932 O 0.27794 0.43579 0.12065 0.0
N2933 N 0.27735 0.36554 0.10339 0.0
C2934 C 0.27811 0.36002 0.08717 0.0
C2935 C 0.26631 0.34819 0.08145 0.0
C2936 C 0.25401 0.34195 0.09249 0.0
C2937 C 0.25377 0.34744 0.10924 0.0
C2938 C 0.26595 0.35915 0.11427 0.0
H2939 H 0.28758 0.3647 0.07864 0.0
O2940 O 0.2681 0.41803 0.09168 0.0
O2941 O 0.2789 0.40012 0.10989 0.0
O2942 O 0.30259 0.4099 0.08499 0.0
O2943 O 0.30648 0.38347 0.09462 0.0
C2944 C 0.24185 0.34187 0.12111 0.0
C2945 C 0.2423 0.34805 0.13773 0.0
H2946 H 0.24699 0.36292 0.16845 0.0
H2947 H 0.26941 0.38371 0.17491 0.0
H2948 H 0.26665 0.34392 0.06853 0.0
H2949 H 0.24483 0.33295 0.08799 0.0
H2950 H 0.23222 0.3329 0.11756 0.0
H2951 H 0.23299 0.34376 0.14671 0.0
Mn2952 Mn 0.32453 0.53937 0.8542 0.0
Mn2953 Mn 0.36549 0.54224 0.86493 0.0
C2954 C 0.34212 0.51695 0.84894 0.0
C2955 C 0.29707 0.53323 0.86241 0.0
C2956 C 0.35057 0.55868 0.83378 0.0
O2957 O 0.32551 0.56031 0.86881 0.0
O2958 O 0.35218 0.55871 0.87827 0.0
C2959 C 0.36272 0.52958 0.8998 0.0
N2960 N 0.36955 0.52841 0.88414 0.0
C2961 C 0.38602 0.50433 0.89218 0.0
C2962 C 0.37925 0.50535 0.90843 0.0
C2963 C 0.36752 0.51801 0.91224 0.0
C2964 C 0.38075 0.51621 0.88031 0.0
H2965 H 0.35363 0.53923 0.90274 0.0
C2966 C 0.33755 0.56544 0.87806 0.0
O2967 O 0.30006 0.54287 0.84956 0.0
O2968 O 0.30996 0.52773 0.87071 0.0
N2969 N 0.38011 0.52715 0.85318 0.0
C2970 C 0.38556 0.528 0.83695 0.0
C2971 C 0.39735 0.51621 0.83111 0.0
C2972 C 0.4036 0.50385 0.84205 0.0
C2973 C 0.39818 0.50353 0.85882 0.0
C2974 C 0.38652 0.51569 0.86397 0.0
H2975 H 0.38087 0.53751 0.82849 0.0
O2976 O 0.32759 0.51794 0.84164 0.0
O2977 O 0.34558 0.52868 0.85983 0.0
O2978 O 0.33578 0.55246 0.83505 0.0
O2979 O 0.36221 0.55635 0.84467 0.0
C2980 C 0.40378 0.49154 0.8706 0.0
C2981 C 0.39765 0.4919 0.88725 0.0
H2982 H 0.38291 0.49643 0.91805 0.0
H2983 H 0.36218 0.51882 0.92473 0.0
H2984 H 0.40156 0.51662 0.81817 0.0
H2985 H 0.41257 0.49469 0.83746 0.0
H2986 H 0.4127 0.48192 0.86695 0.0
H2987 H 0.40195 0.48254 0.89615 0.0
Mn2988 Mn 0.20575 0.57451 0.60437 0.0
Mn2989 Mn 0.20291 0.61548 0.61512 0.0
C2990 C 0.22818 0.59213 0.59911 0.0
C2991 C 0.2119 0.54705 0.61256 0.0
C2992 C 0.18645 0.60053 0.58398 0.0
O2993 O 0.18483 0.57548 0.619 0.0
O2994 O 0.18645 0.60215 0.62848 0.0
C2995 C 0.21559 0.61275 0.64997 0.0
N2996 N 0.21674 0.61958 0.63432 0.0
C2997 C 0.24082 0.63609 0.64233 0.0
C2998 C 0.23981 0.62934 0.65858 0.0
C2999 C 0.22716 0.61758 0.6624 0.0
C3000 C 0.22894 0.63079 0.63047 0.0
H3001 H 0.20594 0.60364 0.65292 0.0
C3002 C 0.17972 0.58751 0.62826 0.0
O3003 O 0.20225 0.55003 0.59972 0.0
O3004 O 0.2174 0.55996 0.62086 0.0
N3005 N 0.21798 0.63012 0.60336 0.0
C3006 C 0.21713 0.63555 0.58712 0.0
C3007 C 0.22891 0.64735 0.58126 0.0
C3008 C 0.24127 0.65364 0.5922 0.0
C3009 C 0.2416 0.64823 0.60897 0.0
C3010 C 0.22945 0.63656 0.61413 0.0
H3011 H 0.20762 0.63083 0.57867 0.0
O3012 O 0.22717 0.5776 0.5918 0.0
O3013 O 0.21645 0.59558 0.61001 0.0
O3014 O 0.19266 0.58575 0.58524 0.0
O3015 O 0.18878 0.61218 0.59487 0.0
C3016 C 0.25359 0.65386 0.62074 0.0
C3017 C 0.25324 0.64775 0.63739 0.0
H3018 H 0.24873 0.63301 0.66819 0.0
H3019 H 0.22636 0.61225 0.67489 0.0
H3020 H 0.2285 0.65155 0.56833 0.0
H3021 H 0.25043 0.66262 0.58759 0.0
H3022 H 0.26321 0.6628 0.61708 0.0
H3023 H 0.2626 0.65207 0.64628 0.0
Mn3024 Mn 0.17075 0.53967 0.14024 0.0
Mn3025 Mn 0.12971 0.54232 0.12974 0.0
C3026 C 0.15325 0.51717 0.14565 0.0
C3027 C 0.19819 0.53358 0.13194 0.0
C3028 C 0.14474 0.55887 0.16079 0.0
O3029 O 0.16963 0.56056 0.12557 0.0
O3030 O 0.14289 0.55886 0.11633 0.0
C3031 C 0.13237 0.52967 0.09486 0.0
N3032 N 0.12561 0.52847 0.11054 0.0
C3033 C 0.10921 0.50429 0.10259 0.0
C3034 C 0.11589 0.50534 0.08631 0.0
C3035 C 0.12755 0.51806 0.08244 0.0
C3036 C 0.11449 0.5162 0.11444 0.0
H3037 H 0.1414 0.53937 0.09187 0.0
C3038 C 0.1575 0.56564 0.11642 0.0
O3039 O 0.19523 0.54327 0.14476 0.0
O3040 O 0.18528 0.52802 0.1237 0.0
N3041 N 0.1152 0.52716 0.14155 0.0
C3042 C 0.10982 0.52799 0.15781 0.0
C3043 C 0.0981 0.51614 0.16371 0.0
C3044 C 0.09185 0.50374 0.15279 0.0
C3045 C 0.0972 0.50344 0.136 0.0
C3046 C 0.10879 0.51565 0.1308 0.0
H3047 H 0.1145 0.53753 0.16625 0.0
O3048 O 0.16781 0.51826 0.15287 0.0
O3049 O 0.1497 0.52887 0.13474 0.0
O3050 O 0.15955 0.55275 0.15942 0.0
O3051 O 0.13303 0.55644 0.14999 0.0
C3052 C 0.0916 0.49141 0.12425 0.0
C3053 C 0.09765 0.4918 0.10757 0.0
H3054 H 0.11223 0.4964 0.0767 0.0
H3055 H 0.13283 0.5189 0.06993 0.0
H3056 H 0.09394 0.51654 0.17666 0.0
H3057 H 0.08294 0.49453 0.15743 0.0
H3058 H 0.08273 0.48174 0.12794 0.0
H3059 H 0.09334 0.48241 0.09869 0.0
Mn3060 Mn 0.20577 0.42085 0.89056 0.0
Mn3061 Mn 0.20282 0.37989 0.87978 0.0
C3062 C 0.22818 0.40321 0.89572 0.0
C3063 C 0.21195 0.44832 0.88238 0.0
C3064 C 0.1865 0.3948 0.91101 0.0
O3065 O 0.18481 0.41992 0.87601 0.0
O3066 O 0.18632 0.39324 0.86653 0.0
C3067 C 0.21536 0.38269 0.84486 0.0
N3068 N 0.21657 0.37583 0.8605 0.0
C3069 C 0.2406 0.35935 0.85233 0.0
C3070 C 0.23953 0.36614 0.8361 0.0
C3071 C 0.22687 0.37789 0.83236 0.0
C3072 C 0.22877 0.36462 0.86426 0.0
H3073 H 0.2057 0.3918 0.84198 0.0
C3074 C 0.17963 0.40788 0.86677 0.0
O3075 O 0.20233 0.44532 0.89526 0.0
O3076 O 0.2174 0.43542 0.87404 0.0
N3077 N 0.21793 0.36522 0.89143 0.0
C3078 C 0.21714 0.35976 0.90766 0.0
C3079 C 0.22893 0.34795 0.91343 0.0
C3080 C 0.24124 0.3417 0.90242 0.0
C3081 C 0.24151 0.34714 0.88566 0.0
C3082 C 0.22934 0.35882 0.88058 0.0
H3083 H 0.20766 0.36445 0.91617 0.0
O3084 O 0.22722 0.41774 0.90305 0.0
O3085 O 0.21641 0.39978 0.88486 0.0
O3086 O 0.19271 0.40959 0.90972 0.0
O3087 O 0.18879 0.38316 0.90011 0.0
C3088 C 0.25344 0.34154 0.87382 0.0
C3089 C 0.25303 0.34769 0.85719 0.0
H3090 H 0.2484 0.36249 0.82643 0.0
H3091 H 0.22602 0.38325 0.81989 0.0
H3092 H 0.22856 0.34372 0.92635 0.0
H3093 H 0.25041 0.33271 0.90696 0.0
H3094 H 0.26307 0.3326 0.87741 0.0
H3095 H 0.26235 0.34339 0.84823 0.0
Mn3096 Mn 0.32459 0.45629 0.64042 0.0
Mn3097 Mn 0.36553 0.45349 0.62953 0.0
C3098 C 0.34219 0.47875 0.64561 0.0
C3099 C 0.29711 0.46239 0.63232 0.0
C3100 C 0.3507 0.43704 0.66075 0.0
O3101 O 0.32554 0.43536 0.62581 0.0
O3102 O 0.35218 0.43698 0.61627 0.0
C3103 C 0.36264 0.46611 0.59467 0.0
N3104 N 0.36952 0.46731 0.61029 0.0
C3105 C 0.38595 0.49141 0.60217 0.0
C3106 C 0.37913 0.49036 0.58594 0.0
C3107 C 0.3674 0.47768 0.58219 0.0
C3108 C 0.38072 0.47954 0.61407 0.0
H3109 H 0.35354 0.45643 0.59177 0.0
C3110 C 0.33755 0.43024 0.61653 0.0
O3111 O 0.30015 0.45275 0.64517 0.0
O3112 O 0.30997 0.46791 0.62397 0.0
N3113 N 0.38018 0.46862 0.64121 0.0
C3114 C 0.38568 0.4678 0.65741 0.0
C3115 C 0.39748 0.47961 0.6632 0.0
C3116 C 0.40369 0.49198 0.65221 0.0
C3117 C 0.39821 0.49227 0.63547 0.0
C3118 C 0.38654 0.48009 0.63038 0.0
H3119 H 0.38103 0.45828 0.66591 0.0
O3120 O 0.32769 0.47773 0.65297 0.0
O3121 O 0.34562 0.46702 0.63471 0.0
O3122 O 0.33591 0.44323 0.65953 0.0
O3123 O 0.36232 0.4394 0.64983 0.0
C3124 C 0.40377 0.50426 0.62366 0.0
C3125 C 0.39759 0.50387 0.60703 0.0
H3126 H 0.38275 0.49928 0.5763 0.0
H3127 H 0.36202 0.47684 0.56973 0.0
H3128 H 0.40174 0.47922 0.67611 0.0
H3129 H 0.41267 0.50117 0.65676 0.0
H3130 H 0.4127 0.51391 0.62726 0.0
H3131 H 0.40186 0.51323 0.5981 0.0
Mn3132 Mn 0.28927 0.57451 0.3907 0.0
Mn3133 Mn 0.29225 0.61546 0.37986 0.0
C3134 C 0.26692 0.5922 0.39595 0.0
C3135 C 0.28297 0.54703 0.38265 0.0
C3136 C 0.30866 0.60056 0.41104 0.0
O3137 O 0.31017 0.57537 0.37603 0.0
O3138 O 0.3087 0.60206 0.36657 0.0
C3139 C 0.27962 0.61262 0.345 0.0
N3140 N 0.27846 0.61951 0.36063 0.0
C3141 C 0.25444 0.63603 0.35253 0.0
C3142 C 0.25546 0.62921 0.3363 0.0
C3143 C 0.26808 0.61743 0.33253 0.0
C3144 C 0.26629 0.63075 0.36443 0.0
H3145 H 0.28925 0.6035 0.34209 0.0
C3146 C 0.31536 0.5874 0.36678 0.0
O3147 O 0.29267 0.55004 0.39544 0.0
O3148 O 0.27752 0.55991 0.37428 0.0
N3149 N 0.2772 0.63016 0.39156 0.0
C3150 C 0.27804 0.63565 0.40777 0.0
C3151 C 0.26629 0.64749 0.41358 0.0
C3152 C 0.25396 0.65375 0.4026 0.0
C3153 C 0.25364 0.64828 0.38585 0.0
C3154 C 0.26577 0.63657 0.38074 0.0
H3155 H 0.28753 0.63095 0.41626 0.0
O3156 O 0.26788 0.5777 0.4033 0.0
O3157 O 0.27864 0.59559 0.38502 0.0
O3158 O 0.30243 0.58577 0.40978 0.0
O3159 O 0.30633 0.6122 0.40015 0.0
C3160 C 0.24168 0.65388 0.37405 0.0
C3161 C 0.24205 0.64772 0.35742 0.0
H3162 H 0.24656 0.63287 0.32666 0.0
H3163 H 0.26889 0.61205 0.32006 0.0
H3164 H 0.26669 0.65173 0.4265 0.0
H3165 H 0.24482 0.66275 0.40717 0.0
H3166 H 0.23208 0.66285 0.37766 0.0
H3167 H 0.23271 0.65202 0.34849 0.0
Mn3168 Mn 0.35524 0.17149 0.45516 0.0
Mn3169 Mn 0.36598 0.13052 0.45232 0.0
C3170 C 0.34985 0.15385 0.47752 0.0
C3171 C 0.36338 0.19895 0.46138 0.0
C3172 C 0.3349 0.14547 0.43574 0.0
O3173 O 0.36998 0.17054 0.43433 0.0
O3174 O 0.37939 0.14385 0.43591 0.0
C3175 C 0.40081 0.13328 0.46509 0.0
N3176 N 0.38514 0.12644 0.4662 0.0
C3177 C 0.39308 0.10995 0.49028 0.0
C3178 C 0.40935 0.11672 0.48933 0.0
C3179 C 0.41321 0.12846 0.4767 0.0
C3180 C 0.38125 0.11523 0.47837 0.0
H3181 H 0.4038 0.14238 0.45546 0.0
C3182 C 0.37923 0.1585 0.42921 0.0
O3183 O 0.35059 0.19595 0.45166 0.0
O3184 O 0.37167 0.18606 0.46691 0.0
N3185 N 0.35416 0.11587 0.46734 0.0
C3186 C 0.33792 0.11043 0.46644 0.0
C3187 C 0.33202 0.09863 0.47819 0.0
C3188 C 0.34292 0.09237 0.49058 0.0
C3189 C 0.3597 0.09779 0.49096 0.0
C3190 C 0.36491 0.10946 0.47883 0.0
H3191 H 0.32949 0.11513 0.4569 0.0
O3192 O 0.34254 0.16838 0.4765 0.0
O3193 O 0.36082 0.15042 0.46585 0.0
O3194 O 0.33617 0.16025 0.44196 0.0
O3195 O 0.34576 0.1338 0.43814 0.0
C3196 C 0.37144 0.09218 0.50298 0.0
C3197 C 0.3881 0.0983 0.50268 0.0
H3198 H 0.41894 0.11306 0.49827 0.0
H3199 H 0.42571 0.13381 0.47593 0.0
H3200 H 0.31908 0.09442 0.47774 0.0
H3201 H 0.33828 0.08339 0.49972 0.0
H3202 H 0.36775 0.08325 0.51258 0.0
H3203 H 0.39697 0.09399 0.51207 0.0
Mn3204 Mn 0.85468 0.32508 0.5388 0.0
Mn3205 Mn 0.86549 0.36604 0.54178 0.0
C3206 C 0.84945 0.34276 0.51645 0.0
C3207 C 0.86281 0.29761 0.53258 0.0
C3208 C 0.83429 0.35108 0.55817 0.0
O3209 O 0.86931 0.32597 0.5597 0.0
O3210 O 0.87879 0.35266 0.55821 0.0
C3211 C 0.90039 0.36327 0.52915 0.0
N3212 N 0.88474 0.37013 0.52799 0.0
C3213 C 0.89285 0.38666 0.50397 0.0
C3214 C 0.90909 0.37988 0.50499 0.0
C3215 C 0.91286 0.36811 0.51761 0.0
C3216 C 0.88094 0.38136 0.51582 0.0
H3217 H 0.9033 0.35415 0.53878 0.0
C3218 C 0.87857 0.338 0.56487 0.0
O3219 O 0.84997 0.3006 0.54225 0.0
O3220 O 0.87115 0.31051 0.5271 0.0
N3221 N 0.85379 0.38072 0.52673 0.0
C3222 C 0.83756 0.38618 0.52757 0.0
C3223 C 0.83174 0.39801 0.51582 0.0
C3224 C 0.84273 0.40428 0.50349 0.0
C3225 C 0.8595 0.39885 0.50317 0.0
C3226 C 0.86461 0.38715 0.5153 0.0
H3227 H 0.82906 0.38147 0.53706 0.0
O3228 O 0.84211 0.32823 0.51742 0.0
O3229 O 0.86036 0.34616 0.52818 0.0
O3230 O 0.83556 0.33631 0.55193 0.0
O3231 O 0.84519 0.36274 0.55585 0.0
C3232 C 0.87131 0.40448 0.49122 0.0
C3233 C 0.88795 0.39834 0.49158 0.0
H3234 H 0.91874 0.38355 0.49609 0.0
H3235 H 0.92535 0.36275 0.51842 0.0
H3236 H 0.81881 0.40222 0.51623 0.0
H3237 H 0.83816 0.41328 0.49435 0.0
H3238 H 0.86769 0.41343 0.48162 0.0
H3239 H 0.89689 0.40266 0.48224 0.0
Mn3240 Mn 0.42092 0.10471 0.2888 0.0
Mn3241 Mn 0.37998 0.11553 0.29172 0.0
C3242 C 0.40327 0.09943 0.26644 0.0
C3243 C 0.44839 0.11282 0.28259 0.0
C3244 C 0.39487 0.08435 0.30817 0.0
O3245 O 0.42002 0.11939 0.30967 0.0
O3246 O 0.39336 0.12888 0.30813 0.0
C3247 C 0.38279 0.1504 0.27901 0.0
N3248 N 0.37593 0.13474 0.27788 0.0
C3249 C 0.35944 0.14277 0.25384 0.0
C3250 C 0.36623 0.15903 0.25482 0.0
C3251 C 0.37799 0.16285 0.26744 0.0
C3252 C 0.36471 0.1309 0.26571 0.0
H3253 H 0.39191 0.15335 0.28864 0.0
C3254 C 0.40801 0.12868 0.3148 0.0
O3255 O 0.44537 0.1 0.29227 0.0
O3256 O 0.43552 0.12116 0.27709 0.0
N3257 N 0.36531 0.10377 0.27668 0.0
C3258 C 0.35985 0.08753 0.27755 0.0
C3259 C 0.34804 0.08168 0.2658 0.0
C3260 C 0.34178 0.09263 0.25344 0.0
C3261 C 0.34723 0.10941 0.25309 0.0
C3262 C 0.35891 0.11456 0.26522 0.0
H3263 H 0.36454 0.07906 0.28706 0.0
O3264 O 0.41777 0.09209 0.26743 0.0
O3265 O 0.39986 0.11037 0.27815 0.0
O3266 O 0.40965 0.08561 0.30194 0.0
O3267 O 0.38324 0.09526 0.30584 0.0
C3268 C 0.34163 0.12118 0.24111 0.0
C3269 C 0.34778 0.13784 0.24144 0.0
H3270 H 0.36258 0.16865 0.2459 0.0
H3271 H 0.38335 0.17534 0.26823 0.0
H3272 H 0.34381 0.06874 0.26622 0.0
H3273 H 0.3328 0.08803 0.2443 0.0
H3274 H 0.33269 0.11753 0.2315 0.0
H3275 H 0.34348 0.14674 0.23208 0.0
Mn3276 Mn 0.64133 0.67093 0.03872 0.0
Mn3277 Mn 0.63017 0.63006 0.04169 0.0
C3278 C 0.64646 0.65318 0.0164 0.0
C3279 C 0.63359 0.69848 0.03237 0.0
C3280 C 0.66147 0.64475 0.0581 0.0
O3281 O 0.62659 0.67021 0.05959 0.0
O3282 O 0.617 0.64355 0.05814 0.0
C3283 C 0.5953 0.63314 0.0291 0.0
N3284 N 0.61088 0.62614 0.02792 0.0
C3285 C 0.60263 0.6097 0.0039 0.0
C3286 C 0.58644 0.61663 0.00493 0.0
C3287 C 0.58278 0.62843 0.01757 0.0
C3288 C 0.61458 0.61488 0.01573 0.0
H3289 H 0.59247 0.64228 0.03874 0.0
C3290 C 0.61727 0.65823 0.06478 0.0
O3291 O 0.64632 0.69536 0.04212 0.0
O3292 O 0.62508 0.68567 0.02694 0.0
N3293 N 0.64174 0.61527 0.02662 0.0
C3294 C 0.65792 0.60966 0.02744 0.0
C3295 C 0.66362 0.59779 0.01567 0.0
C3296 C 0.65258 0.59162 0.00335 0.0
C3297 C 0.63586 0.59721 0.00305 0.0
C3298 C 0.63086 0.60894 0.01519 0.0
H3299 H 0.66645 0.61429 0.03693 0.0
O3300 O 0.65395 0.66762 0.01738 0.0
O3301 O 0.63547 0.64989 0.02809 0.0
O3302 O 0.66029 0.65955 0.05191 0.0
O3303 O 0.65051 0.63316 0.05574 0.0
C3304 C 0.624 0.5917 0.9911 0.0
C3305 C 0.60741 0.59798 0.99149 0.0
H3306 H 0.57676 0.61305 0.99605 0.0
H3307 H 0.57034 0.63389 0.0184 0.0
H3308 H 0.67651 0.59345 0.01606 0.0
H3309 H 0.65707 0.58259 0.99419 0.0
H3310 H 0.62754 0.58271 0.98149 0.0
H3311 H 0.59844 0.59375 0.98215 0.0
Mn3312 Mn 0.57428 0.39105 0.28886 0.0
Mn3313 Mn 0.61524 0.38028 0.29155 0.0
C3314 C 0.5918 0.39629 0.26638 0.0
C3315 C 0.54679 0.38287 0.28281 0.0
C3316 C 0.60042 0.4115 0.308 0.0
O3317 O 0.5753 0.37645 0.30978 0.0
O3318 O 0.60196 0.36698 0.3081 0.0
C3319 C 0.61234 0.34536 0.27898 0.0
N3320 N 0.61921 0.36101 0.27775 0.0
C3321 C 0.63556 0.35289 0.25362 0.0
C3322 C 0.62877 0.33663 0.25471 0.0
C3323 C 0.61708 0.33287 0.26742 0.0
C3324 C 0.63036 0.3648 0.26549 0.0
H3325 H 0.60329 0.34245 0.28868 0.0
C3326 C 0.58735 0.36721 0.31488 0.0
O3327 O 0.54983 0.39574 0.29244 0.0
O3328 O 0.55965 0.37454 0.27729 0.0
N3329 N 0.62983 0.39197 0.27638 0.0
C3330 C 0.63533 0.40821 0.27718 0.0
C3331 C 0.64709 0.41401 0.26534 0.0
C3332 C 0.65327 0.40301 0.25297 0.0
C3333 C 0.6478 0.38624 0.2527 0.0
C3334 C 0.63617 0.38114 0.26492 0.0
H3335 H 0.6307 0.41671 0.2867 0.0
O3336 O 0.57729 0.40361 0.26743 0.0
O3337 O 0.59529 0.38539 0.27809 0.0
O3338 O 0.5856 0.41022 0.30188 0.0
O3339 O 0.61205 0.4006 0.30562 0.0
C3340 C 0.65332 0.37442 0.24072 0.0
C3341 C 0.64716 0.35777 0.24114 0.0
H3342 H 0.63236 0.32698 0.24579 0.0
H3343 H 0.61171 0.32038 0.26828 0.0
H3344 H 0.65134 0.42694 0.26571 0.0
H3345 H 0.66222 0.40757 0.24377 0.0
H3346 H 0.66222 0.37803 0.23105 0.0
H3347 H 0.65141 0.34883 0.23178 0.0
Mn3348 Mn 0.13927 0.82557 0.95552 0.0
Mn3349 Mn 0.13015 0.86703 0.95348 0.0
C3350 C 0.14577 0.84275 0.97795 0.0
C3351 C 0.1306 0.79826 0.96176 0.0
C3352 C 0.16043 0.8513 0.9363 0.0
O3353 O 0.12381 0.82714 0.93523 0.0
O3354 O 0.1166 0.85447 0.93663 0.0
C3355 C 0.0951 0.865 0.96584 0.0
N3356 N 0.11095 0.87135 0.96726 0.0
C3357 C 0.10321 0.88755 0.99161 0.0
C3358 C 0.08677 0.88128 0.99035 0.0
C3359 C 0.08271 0.86993 0.97742 0.0
C3360 C 0.11502 0.88217 0.97971 0.0
H3361 H 0.09196 0.85622 0.95596 0.0
C3362 C 0.11552 0.83983 0.92999 0.0
O3363 O 0.14313 0.80103 0.95163 0.0
O3364 O 0.12281 0.81131 0.96766 0.0
N3365 N 0.1422 0.88102 0.96891 0.0
C3366 C 0.15858 0.88606 0.96824 0.0
C3367 C 0.16467 0.89747 0.98027 0.0
C3368 C 0.15381 0.90378 0.99269 0.0
C3369 C 0.13689 0.89879 0.99284 0.0
C3370 C 0.13151 0.88749 0.98044 0.0
H3371 H 0.16697 0.88132 0.95868 0.0
O3372 O 0.15268 0.82808 0.97647 0.0
O3373 O 0.13461 0.84669 0.96664 0.0
O3374 O 0.15836 0.83633 0.94185 0.0
O3375 O 0.15036 0.86346 0.93943 0.0
C3376 C 0.12519 0.90447 0.00486 0.0
C3377 C 0.10838 0.89881 0.00429 0.0
H3378 H 0.07718 0.88503 -0.00073 0.0
H3379 H 0.07007 0.86497 0.97641 0.0
H3380 H 0.17771 0.90136 0.98 0.0
H3381 H 0.15859 0.91247 0.00204 0.0
H3382 H 0.12902 0.91312 0.01467 0.0
H3383 H 0.09952 0.90318 0.01368 0.0
Mn3384 Mn 0.42104 0.89072 0.2055 0.0
Mn3385 Mn 0.38011 0.87988 0.20258 0.0
C3386 C 0.40339 0.89593 0.22789 0.0
C3387 C 0.4485 0.88259 0.2117 0.0
C3388 C 0.39502 0.91111 0.1862 0.0
O3389 O 0.42014 0.87611 0.18458 0.0
O3390 O 0.39348 0.86659 0.18612 0.0
C3391 C 0.38291 0.84497 0.21518 0.0
N3392 N 0.37604 0.86061 0.21636 0.0
C3393 C 0.35954 0.85249 0.24039 0.0
C3394 C 0.36634 0.83624 0.23935 0.0
C3395 C 0.3781 0.83248 0.22672 0.0
C3396 C 0.36482 0.8644 0.22855 0.0
H3397 H 0.39203 0.84206 0.20554 0.0
C3398 C 0.40813 0.86684 0.17942 0.0
O3399 O 0.44551 0.89545 0.20205 0.0
O3400 O 0.43561 0.87424 0.21716 0.0
N3401 N 0.36542 0.89157 0.21765 0.0
C3402 C 0.35995 0.90779 0.21683 0.0
C3403 C 0.34812 0.91359 0.2286 0.0
C3404 C 0.34186 0.9026 0.24093 0.0
C3405 C 0.34732 0.88583 0.24123 0.0
C3406 C 0.35902 0.88073 0.22909 0.0
H3407 H 0.36464 0.91629 0.20734 0.0
O3408 O 0.4179 0.90328 0.22691 0.0
O3409 O 0.39998 0.88502 0.21615 0.0
O3410 O 0.4098 0.90986 0.19242 0.0
O3411 O 0.38338 0.90019 0.18852 0.0
C3412 C 0.34172 0.87401 0.25318 0.0
C3413 C 0.34787 0.85737 0.2528 0.0
H3414 H 0.36268 0.82659 0.24825 0.0
H3415 H 0.38347 0.82 0.22589 0.0
H3416 H 0.34388 0.92652 0.2282 0.0
H3417 H 0.33287 0.90716 0.25008 0.0
H3418 H 0.33276 0.87762 0.2628 0.0
H3419 H 0.34357 0.84843 0.26214 0.0
Mn3420 Mn 0.07532 0.1072 0.706 0.0
Mn3421 Mn 0.11677 0.11642 0.70399 0.0
C3422 C 0.0925 0.10056 0.72837 0.0
C3423 C 0.048 0.11574 0.71231 0.0
C3424 C 0.10106 0.08621 0.68664 0.0
O3425 O 0.07688 0.12279 0.6858 0.0
O3426 O 0.10421 0.13 0.68719 0.0
C3427 C 0.11467 0.15141 0.71651 0.0
N3428 N 0.12104 0.13557 0.71786 0.0
C3429 C 0.13721 0.14325 0.74225 0.0
C3430 C 0.13091 0.15968 0.74105 0.0
C3431 C 0.11956 0.16376 0.72815 0.0
C3432 C 0.13186 0.13147 0.73029 0.0
H3433 H 0.10589 0.15457 0.70664 0.0
C3434 C 0.08957 0.1311 0.68057 0.0
O3435 O 0.0508 0.10329 0.70209 0.0
O3436 O 0.06103 0.12353 0.71826 0.0
N3437 N 0.13077 0.10434 0.71937 0.0
C3438 C 0.13585 0.08798 0.71861 0.0
C3439 C 0.14727 0.08187 0.7306 0.0
C3440 C 0.15354 0.09268 0.74308 0.0
C3441 C 0.14851 0.10959 0.74331 0.0
C3442 C 0.13721 0.115 0.73094 0.0
H3443 H 0.13114 0.07962 0.709 0.0
O3444 O 0.07783 0.09364 0.72685 0.0
O3445 O 0.09644 0.11183 0.71714 0.0
O3446 O 0.0861 0.08823 0.69219 0.0
O3447 O 0.11323 0.09627 0.68985 0.0
C3448 C 0.15416 0.12125 0.75539 0.0
C3449 C 0.14847 0.13806 0.7549 0.0
H3450 H 0.13463 0.16924 0.75002 0.0
H3451 H 0.11459 0.1764 0.72719 0.0
H3452 H 0.15119 0.06884 0.73027 0.0
H3453 H 0.16223 0.08789 0.7524 0.0
H3454 H 0.16281 0.11741 0.76518 0.0
H3455 H 0.15281 0.14688 0.76432 0.0
H3456 H 0.08153 0.1649 0.37578 0.0
H3457 H 0.05666 0.19195 0.33576 0.0
H3458 H 0.09361 0.19121 0.38602 0.0
H3459 H 0.06869 0.2183 0.34618 0.0
H3460 H 0.1205 0.24213 0.39342 0.0
H3461 H 0.11326 0.21635 0.37787 0.0
H3462 H 0.06166 0.23297 0.37466 0.0
H3463 H 0.06889 0.25843 0.39034 0.0
C3464 C 0.07887 0.17642 0.369 0.0
C3465 C 0.06801 0.17637 0.35505 0.0
C3466 C 0.08589 0.19145 0.37481 0.0
C3467 C 0.08199 0.20675 0.36693 0.0
C3468 C 0.0718 0.20664 0.35251 0.0
C3469 C 0.06499 0.19156 0.34653 0.0
C3470 C 0.10772 0.24032 0.38903 0.0
C3471 C 0.09531 0.25237 0.39248 0.0
C3472 C 0.10357 0.22561 0.38028 0.0
C3473 C 0.08696 0.22283 0.37488 0.0
C3474 C 0.07462 0.23498 0.37835 0.0
C3475 C 0.07871 0.24947 0.38734 0.0
H3476 H 0.98657 0.81892 0.64033 0.0
H3477 H 0.00279 0.87059 0.64336 0.0
H3478 H 0.01203 0.81174 0.62464 0.0
H3479 H 0.02856 0.86341 0.6278 0.0
H3480 H 0.08006 0.83198 0.62566 0.0
H3481 H 0.05372 0.84393 0.63592 0.0
H3482 H 0.0267 0.81872 0.59618 0.0
H3483 H 0.0531 0.80681 0.58575 0.0
C3484 C 0.99551 0.82876 0.63732 0.0
C3485 C 0.99259 0.84537 0.64246 0.0
C3486 C 0.01 0.8247 0.62832 0.0
C3487 C 0.02213 0.83708 0.62483 0.0
C3488 C 0.01932 0.85369 0.63022 0.0
C3489 C 0.00461 0.85781 0.63898 0.0
C3490 C 0.06855 0.82922 0.61891 0.0
C3491 C 0.06864 0.81832 0.60498 0.0
C3492 C 0.0535 0.83616 0.62473 0.0
C3493 C 0.03822 0.83215 0.61688 0.0
C3494 C 0.03835 0.82192 0.60248 0.0
C3495 C 0.05346 0.81517 0.59649 0.0
H3496 H 0.37509 0.75315 0.89332 0.0
H3497 H 0.42668 0.7367 0.89082 0.0
H3498 H 0.38264 0.77906 0.87816 0.0
H3499 H 0.43423 0.7623 0.87549 0.0
H3500 H 0.43963 0.80362 0.83678 0.0
H3501 H 0.4275 0.77721 0.84696 0.0
H3502 H 0.40239 0.80407 0.88687 0.0
H3503 H 0.4146 0.83043 0.87688 0.0
C3504 C 0.38793 0.75495 0.88914 0.0
C3505 C 0.40025 0.74283 0.89264 0.0
C3506 C 0.39227 0.76974 0.88061 0.0
C3507 C 0.40897 0.77252 0.87547 0.0
C3508 C 0.42121 0.7603 0.879 0.0
C3509 C 0.41694 0.74573 0.88778 0.0
C3510 C 0.43125 0.80394 0.84752 0.0
C3511 C 0.42819 0.81908 0.85613 0.0
C3512 C 0.42438 0.78883 0.85336 0.0
C3513 C 0.41409 0.78865 0.86772 0.0
C3514 C 0.41019 0.8039 0.8757 0.0
C3515 C 0.41728 0.81896 0.87004 0.0
H3516 H 0.50877 0.17622 0.13981 0.0
H3517 H 0.49246 0.12454 0.14213 0.0
H3518 H 0.48329 0.18366 0.12426 0.0
H3519 H 0.46668 0.13198 0.12675 0.0
H3520 H 0.44231 0.18899 0.0853 0.0
H3521 H 0.46865 0.1769 0.09562 0.0
H3522 H 0.44155 0.15158 0.13525 0.0
H3523 H 0.41525 0.16373 0.12512 0.0
C3524 C 0.4998 0.16643 0.13668 0.0
C3525 C 0.50271 0.14975 0.14157 0.0
C3526 C 0.4853 0.17064 0.12777 0.0
C3527 C 0.47316 0.15834 0.12413 0.0
C3528 C 0.47594 0.14165 0.12929 0.0
C3529 C 0.49065 0.13738 0.13795 0.0
C3530 C 0.44191 0.18056 0.096 0.0
C3531 C 0.42672 0.17744 0.1045 0.0
C3532 C 0.45699 0.17372 0.10192 0.0
C3533 C 0.45709 0.1634 0.11626 0.0
C3534 C 0.44179 0.15941 0.12411 0.0
C3535 C 0.42676 0.16646 0.11836 0.0
H3536 H 0.08126 0.83042 0.11918 0.0
H3537 H 0.05631 0.80333 0.15916 0.0
H3538 H 0.09342 0.80414 0.10898 0.0
H3539 H 0.06841 0.777 0.14878 0.0
H3540 H 0.0689 0.73683 0.10463 0.0
H3541 H 0.06152 0.76229 0.12025 0.0
H3542 H 0.11311 0.77907 0.11728 0.0
H3543 H 0.12049 0.7533 0.10182 0.0
C3544 C 0.0786 0.8189 0.12595 0.0
C3545 C 0.0677 0.81893 0.13989 0.0
C3546 C 0.08566 0.80389 0.12017 0.0
C3547 C 0.08176 0.78858 0.12806 0.0
C3548 C 0.07153 0.78867 0.14246 0.0
C3549 C 0.06467 0.80374 0.14842 0.0
C3550 C 0.07868 0.74583 0.10767 0.0
C3551 C 0.09532 0.74297 0.10263 0.0
C3552 C 0.07451 0.76032 0.11662 0.0
C3553 C 0.0868 0.77251 0.12015 0.0
C3554 C 0.10345 0.76978 0.11483 0.0
C3555 C 0.10769 0.75506 0.10613 0.0
H3556 H 0.44136 0.80665 0.40902 0.0
H3557 H 0.41443 0.83151 0.36892 0.0
H3558 H 0.46771 0.81883 0.39877 0.0
H3559 H 0.44074 0.84377 0.35886 0.0
H3560 H 0.50806 0.81946 0.35475 0.0
H3561 H 0.48251 0.81198 0.37018 0.0
H3562 H 0.46578 0.86358 0.36745 0.0
H3563 H 0.49165 0.87108 0.35218 0.0
C3564 C 0.441 0.81501 0.39828 0.0
C3565 C 0.42584 0.818 0.38968 0.0
C3566 C 0.45607 0.82191 0.39239 0.0
C3567 C 0.45621 0.83215 0.378 0.0
C3568 C 0.44094 0.836 0.37005 0.0
C3569 C 0.42592 0.82889 0.37575 0.0
C3570 C 0.49905 0.82923 0.3578 0.0
C3571 C 0.50195 0.8459 0.35289 0.0
C3572 C 0.48451 0.82499 0.36664 0.0
C3573 C 0.47231 0.83726 0.37019 0.0
C3574 C 0.47508 0.85394 0.36499 0.0
C3575 C 0.48984 0.85824 0.3564 0.0
H3576 H 0.3742 0.24234 0.60203 0.0
H3577 H 0.42581 0.25878 0.60468 0.0
H3578 H 0.38163 0.2165 0.61735 0.0
H3579 H 0.43323 0.23326 0.62016 0.0
H3580 H 0.4385 0.19215 0.65898 0.0
H3581 H 0.42633 0.21848 0.64873 0.0
H3582 H 0.4014 0.19146 0.60882 0.0
H3583 H 0.41364 0.16516 0.61888 0.0
C3584 C 0.38702 0.24055 0.60627 0.0
C3585 C 0.39938 0.25265 0.60276 0.0
C3586 C 0.39128 0.2258 0.6149 0.0
C3587 C 0.40795 0.22305 0.62013 0.0
C3588 C 0.42024 0.23525 0.61659 0.0
C3589 C 0.41603 0.24978 0.60772 0.0
C3590 C 0.43015 0.19177 0.64823 0.0
C3591 C 0.42716 0.1766 0.63964 0.0
C3592 C 0.42325 0.20684 0.64235 0.0
C3593 C 0.41302 0.20696 0.62796 0.0
C3594 C 0.40916 0.19168 0.62001 0.0
C3595 C 0.41627 0.17666 0.62571 0.0
H3596 H 0.05346 0.18887 0.90942 0.0
H3597 H 0.08026 0.16403 0.86918 0.0
H3598 H 0.02707 0.17677 0.89921 0.0
H3599 H 0.0539 0.15188 0.85915 0.0
H3600 H 0.00302 0.12477 0.85231 0.0
H3601 H 0.02889 0.13214 0.86762 0.0
H3602 H 0.01217 0.18372 0.87079 0.0
H3603 H 0.98662 0.17637 0.85533 0.0
C3604 C 0.05379 0.18054 0.89865 0.0
C3605 C 0.06892 0.17753 0.89001 0.0
C3606 C 0.03868 0.17368 0.89279 0.0
C3607 C 0.03849 0.16348 0.87837 0.0
C3608 C 0.05374 0.15962 0.87036 0.0
C3609 C 0.06879 0.16667 0.87605 0.0
C3610 C 0.00483 0.13757 0.85663 0.0
C3611 C 0.99273 0.14994 0.85323 0.0
C3612 C 0.01959 0.1418 0.86525 0.0
C3613 C 0.02237 0.15844 0.87058 0.0
C3614 C 0.01017 0.17074 0.86715 0.0
C3615 C 0.99562 0.16658 0.85829 0.0
H3616 H 0.33598 0.05657 0.19165 0.0
H3617 H 0.37597 0.08168 0.16467 0.0
H3618 H 0.34629 0.06868 0.21799 0.0
H3619 H 0.38608 0.09386 0.19097 0.0
H3620 H 0.39301 0.12091 0.24187 0.0
H3621 H 0.3776 0.11351 0.21609 0.0
H3622 H 0.3749 0.06184 0.23266 0.0
H3623 H 0.39048 0.06923 0.25812 0.0
C3624 C 0.34671 0.06497 0.19128 0.0
C3625 C 0.35526 0.06804 0.17611 0.0
C3626 C 0.35262 0.07183 0.20635 0.0
C3627 C 0.367 0.08211 0.20647 0.0
C3628 C 0.37491 0.08605 0.19119 0.0
C3629 C 0.36917 0.07899 0.17617 0.0
C3630 C 0.38877 0.10808 0.24005 0.0
C3631 C 0.39234 0.09569 0.25209 0.0
C3632 C 0.38009 0.10383 0.22534 0.0
C3633 C 0.37487 0.08716 0.22255 0.0
C3634 C 0.37846 0.07484 0.23468 0.0
C3635 C 0.38739 0.07903 0.24917 0.0
H3636 H 0.17648 0.14114 0.50783 0.0
H3637 H 0.12478 0.1419 0.49155 0.0
H3638 H 0.18448 0.1263 0.48207 0.0
H3639 H 0.13279 0.12726 0.46549 0.0
H3640 H 0.1646 0.12669 0.41403 0.0
H3641 H 0.15242 0.13669 0.4404 0.0
H3642 H 0.17826 0.09731 0.46732 0.0
H3643 H 0.19033 0.0871 0.44092 0.0
C3644 C 0.16683 0.13785 0.49879 0.0
C3645 C 0.14998 0.14205 0.50179 0.0
C3646 C 0.17136 0.12936 0.48413 0.0
C3647 C 0.1592 0.12546 0.47194 0.0
C3648 C 0.14235 0.13001 0.47479 0.0
C3649 C 0.13777 0.13823 0.48966 0.0
C3650 C 0.16745 0.11998 0.42553 0.0
C3651 C 0.17852 0.10618 0.42542 0.0
C3652 C 0.16039 0.12564 0.44058 0.0
C3653 C 0.16449 0.1178 0.45584 0.0
C3654 C 0.17498 0.10359 0.45569 0.0
C3655 C 0.18181 0.09773 0.44059 0.0
H3656 H 0.15759 0.9413 0.69087 0.0
H3657 H 0.118 0.91557 0.66393 0.0
H3658 H 0.14743 0.9291 0.71723 0.0
H3659 H 0.10806 0.90325 0.69027 0.0
H3660 H 0.10305 0.8753 0.74126 0.0
H3661 H 0.11756 0.88352 0.71519 0.0
H3662 H 0.1185 0.93513 0.73213 0.0
H3663 H 0.10379 0.92692 0.7579 0.0
C3664 C 0.14697 0.93276 0.69052 0.0
C3665 C 0.13851 0.92949 0.67535 0.0
C3666 C 0.14114 0.92585 0.7056 0.0
C3667 C 0.12695 0.91531 0.70573 0.0
C3668 C 0.11909 0.91126 0.69047 0.0
C3669 C 0.12472 0.91839 0.67543 0.0
C3670 C 0.10668 0.88832 0.73944 0.0
C3671 C 0.10291 0.90044 0.75168 0.0
C3672 C 0.11484 0.89302 0.72456 0.0
C3673 C 0.11934 0.90991 0.72182 0.0
C3674 C 0.11548 0.92199 0.73411 0.0
C3675 C 0.10705 0.91733 0.74877 0.0
H3676 H 0.306 0.90878 0.94184 0.0
H3677 H 0.33137 0.869 0.91486 0.0
H3678 H 0.3181 0.89851 0.96819 0.0
H3679 H 0.34353 0.85891 0.94116 0.0
H3680 H 0.31902 0.85444 0.00843 0.0
H3681 H 0.31149 0.86991 0.98294 0.0
H3682 H 0.36311 0.86748 0.9662 0.0
H3683 H 0.37064 0.85217 0.992 0.0
C3684 C 0.31444 0.8981 0.94147 0.0
C3685 C 0.31761 0.8896 0.92629 0.0
C3686 C 0.3213 0.8922 0.95654 0.0
C3687 C 0.33166 0.87789 0.95666 0.0
C3688 C 0.33566 0.87004 0.94138 0.0
C3689 C 0.32861 0.87575 0.92636 0.0
C3690 C 0.32878 0.85756 -0.00057 0.0
C3691 C 0.34547 0.85272 0.00231 0.0
C3692 C 0.32451 0.86643 0.98492 0.0
C3693 C 0.33677 0.87006 0.97274 0.0
C3694 C 0.35347 0.86494 0.97549 0.0
C3695 C 0.35779 0.85633 0.99022 0.0
H3696 H 0.33594 0.93879 0.30253 0.0
H3697 H 0.3758 0.9137 0.32962 0.0
H3698 H 0.34632 0.92667 0.27622 0.0
H3699 H 0.38599 0.90152 0.30335 0.0
H3700 H 0.39305 0.87446 0.25246 0.0
H3701 H 0.37758 0.88186 0.27821 0.0
H3702 H 0.37499 0.93352 0.26162 0.0
H3703 H 0.39062 0.92613 0.23618 0.0
C3704 C 0.34665 0.93039 0.30293 0.0
C3705 C 0.35515 0.92732 0.31812 0.0
C3706 C 0.35262 0.92353 0.28788 0.0
C3707 C 0.36698 0.91325 0.2878 0.0
C3708 C 0.37483 0.90932 0.3031 0.0
C3709 C 0.36905 0.91639 0.3181 0.0
C3710 C 0.38883 0.88729 0.25426 0.0
C3711 C 0.39244 0.89967 0.24223 0.0
C3712 C 0.38012 0.89153 0.26896 0.0
C3713 C 0.3749 0.90821 0.27174 0.0
C3714 C 0.37854 0.92052 0.25962 0.0
C3715 C 0.3875 0.91633 0.24513 0.0
H3716 H 0.30655 0.08666 0.5522 0.0
H3717 H 0.33173 0.12653 0.57926 0.0
H3718 H 0.31875 0.09696 0.52589 0.0
H3719 H 0.34399 0.13664 0.55299 0.0
H3720 H 0.3712 0.14355 0.50218 0.0
H3721 H 0.36367 0.12814 0.52794 0.0
H3722 H 0.31207 0.12558 0.5112 0.0
H3723 H 0.31959 0.14114 0.48575 0.0
C3724 C 0.31498 0.09736 0.5526 0.0
C3725 C 0.31805 0.10588 0.56778 0.0
C3726 C 0.32189 0.10327 0.53754 0.0
C3727 C 0.33222 0.11762 0.53745 0.0
C3728 C 0.33615 0.12549 0.55275 0.0
C3729 C 0.32904 0.11976 0.56775 0.0
C3730 C 0.35836 0.13934 0.50395 0.0
C3731 C 0.34603 0.14294 0.49187 0.0
C3732 C 0.35404 0.13067 0.51865 0.0
C3733 C 0.33734 0.12549 0.52139 0.0
C3734 C 0.32509 0.12911 0.50922 0.0
C3735 C 0.32935 0.13802 0.49473 0.0
H3736 H 0.11889 0.08129 0.83049 0.0
H3737 H 0.1582 0.05551 0.80321 0.0
H3738 H 0.10878 0.09363 0.80426 0.0
H3739 H 0.14789 0.06776 0.77694 0.0
H3740 H 0.10394 0.06981 0.7367 0.0
H3741 H 0.11897 0.0617 0.76228 0.0
H3742 H 0.11786 0.11329 0.77927 0.0
H3743 H 0.10301 0.12141 0.75338 0.0
C3744 C 0.12552 0.07847 0.81893 0.0
C3745 C 0.13926 0.06733 0.8189 0.0
C3746 C 0.1198 0.08562 0.80396 0.0
C3747 C 0.12752 0.08156 0.78862 0.0
C3748 C 0.14169 0.07101 0.78863 0.0
C3749 C 0.14761 0.06408 0.80366 0.0
C3750 C 0.10723 0.07942 0.74579 0.0
C3751 C 0.10293 0.09627 0.74294 0.0
C3752 C 0.11584 0.07482 0.76035 0.0
C3753 C 0.11976 0.08693 0.7726 0.0
C3754 C 0.1151 0.10377 0.76992 0.0
C3755 C 0.10675 0.10842 0.75515 0.0
H3756 H 0.16407 0.86907 0.08031 0.0
H3757 H 0.18985 0.9086 0.05328 0.0
H3758 H 0.15199 0.85892 0.05396 0.0
H3759 H 0.17788 0.89823 0.02691 0.0
H3760 H 0.12466 0.85318 0.00277 0.0
H3761 H 0.13248 0.86802 0.02876 0.0
H3762 H 0.18424 0.86925 0.01232 0.0
H3763 H 0.17642 0.85422 0.98663 0.0
C3764 C 0.16694 0.87575 0.06878 0.0
C3765 C 0.178 0.88957 0.06885 0.0
C3766 C 0.15995 0.86999 0.05374 0.0
C3767 C 0.1641 0.87776 0.03845 0.0
C3768 C 0.17456 0.892 0.03856 0.0
C3769 C 0.18134 0.89796 0.05365 0.0
C3770 C 0.13762 0.85694 0.00467 0.0
C3771 C 0.14991 0.85316 0.99259 0.0
C3772 C 0.1421 0.86529 0.01951 0.0
C3773 C 0.15891 0.86997 0.02238 0.0
C3774 C 0.17115 0.8661 0.01024 0.0
C3775 C 0.16672 0.85749 0.99562 0.0
H3776 H 0.24259 0.39318 0.12053 0.0
H3777 H 0.25878 0.39073 0.06887 0.0
H3778 H 0.21681 0.37768 0.11319 0.0
H3779 H 0.23332 0.37508 0.06154 0.0
H3780 H 0.16532 0.37583 0.08154 0.0
H3781 H 0.19163 0.38606 0.09363 0.0
H3782 H 0.21874 0.3464 0.06838 0.0
H3783 H 0.19239 0.33599 0.05635 0.0
C3784 C 0.24076 0.38894 0.10772 0.0
C3785 C 0.25278 0.39256 0.09532 0.0
C3786 C 0.22605 0.38022 0.10351 0.0
C3787 C 0.22324 0.37499 0.08685 0.0
C3788 C 0.23535 0.37864 0.07452 0.0
C3789 C 0.24985 0.38761 0.07868 0.0
C3790 C 0.17684 0.36909 0.07881 0.0
C3791 C 0.1768 0.35519 0.06787 0.0
C3792 C 0.19187 0.37489 0.08583 0.0
C3793 C 0.20717 0.36706 0.08185 0.0
C3794 C 0.20707 0.35269 0.07156 0.0
C3795 C 0.192 0.34671 0.06475 0.0
H3796 H 0.66507 0.11926 0.91343 0.0
H3797 H 0.69189 0.15958 0.93818 0.0
H3798 H 0.69142 0.1092 0.9013 0.0
H3799 H 0.71828 0.14933 0.92611 0.0
H3800 H 0.75865 0.10536 0.9259 0.0
H3801 H 0.73311 0.12088 0.93316 0.0
H3802 H 0.71649 0.11761 0.88159 0.0
H3803 H 0.74235 0.10224 0.87432 0.0
C3804 C 0.67655 0.12614 0.91605 0.0
C3805 C 0.67642 0.14013 0.92689 0.0
C3806 C 0.6916 0.12044 0.90901 0.0
C3807 C 0.70684 0.12845 0.91287 0.0
C3808 C 0.70666 0.14291 0.92303 0.0
C3809 C 0.69156 0.14878 0.92987 0.0
C3810 C 0.74967 0.10832 0.91609 0.0
C3811 C 0.7526 0.10321 0.89949 0.0
C3812 C 0.73513 0.11721 0.9202 0.0
C3813 C 0.72297 0.12062 0.90788 0.0
C3814 C 0.72577 0.11525 0.89127 0.0
C3815 C 0.74053 0.1066 0.8871 0.0
H3816 H 0.08628 0.44227 0.189 0.0
H3817 H 0.12623 0.41524 0.16394 0.0
H3818 H 0.09658 0.46861 0.17682 0.0
H3819 H 0.13633 0.44154 0.15169 0.0
H3820 H 0.14293 0.49245 0.12435 0.0
H3821 H 0.12765 0.4666 0.13194 0.0
H3822 H 0.12528 0.48336 0.18352 0.0
H3823 H 0.14073 0.50889 0.17594 0.0
C3824 C 0.097 0.44188 0.1806 0.0
C3825 C 0.10554 0.4267 0.17755 0.0
C3826 C 0.10291 0.45695 0.1737 0.0
C3827 C 0.11727 0.45706 0.1634 0.0
C3828 C 0.12517 0.44177 0.15951 0.0
C3829 C 0.11945 0.42675 0.16661 0.0
C3830 C 0.13879 0.49065 0.13721 0.0
C3831 C 0.14241 0.50276 0.14951 0.0
C3832 C 0.1302 0.4759 0.14156 0.0
C3833 C 0.1251 0.47315 0.15826 0.0
C3834 C 0.12875 0.48534 0.1705 0.0
C3835 C 0.1376 0.49988 0.16621 0.0
H3836 H 0.73642 0.89091 0.42647 0.0
H3837 H 0.75278 0.89331 0.37485 0.0
H3838 H 0.76195 0.87546 0.43393 0.0
H3839 H 0.77862 0.87803 0.38232 0.0
H3840 H 0.80307 0.83656 0.43922 0.0
H3841 H 0.77671 0.84682 0.42712 0.0
H3842 H 0.80369 0.8867 0.40203 0.0
H3843 H 0.83001 0.87664 0.41421 0.0
C3844 C 0.74541 0.88782 0.4167 0.0
C3845 C 0.74251 0.89269 0.40003 0.0
C3846 C 0.75995 0.87897 0.42093 0.0
C3847 C 0.77212 0.87538 0.40865 0.0
C3848 C 0.76934 0.88053 0.39197 0.0
C3849 C 0.75459 0.88913 0.38768 0.0
C3850 C 0.80343 0.8473 0.43085 0.0
C3851 C 0.8186 0.85589 0.42779 0.0
C3852 C 0.78835 0.85319 0.42399 0.0
C3853 C 0.78822 0.86757 0.41373 0.0
C3854 C 0.80349 0.87552 0.40982 0.0
C3855 C 0.81852 0.86982 0.41689 0.0
H3856 H 0.86959 0.08009 0.16338 0.0
H3857 H 0.90949 0.05319 0.18861 0.0
H3858 H 0.85953 0.05374 0.15122 0.0
H3859 H 0.89924 0.0268 0.17652 0.0
H3860 H 0.85504 0.98657 0.17592 0.0
H3861 H 0.8706 0.01208 0.1833 0.0
H3862 H 0.86809 0.02859 0.13165 0.0
H3863 H 0.85269 0.00276 0.12426 0.0
C3864 C 0.87638 0.0686 0.1661 0.0
C3865 C 0.89025 0.0687 0.17707 0.0
C3866 C 0.87068 0.05355 0.15905 0.0
C3867 C 0.87857 0.03828 0.16303 0.0
C3868 C 0.89291 0.03843 0.17334 0.0
C3869 C 0.8988 0.05354 0.18018 0.0
C3870 C 0.85817 0.99552 0.16613 0.0
C3871 C 0.85327 0.99257 0.14947 0.0
C3872 C 0.86709 0.01004 0.17031 0.0
C3873 C 0.87072 0.02217 0.15799 0.0
C3874 C 0.86556 0.01934 0.14132 0.0
C3875 C 0.85689 0.0046 0.13709 0.0
H3876 H 0.25274 0.60243 0.62058 0.0
H3877 H 0.23656 0.60486 0.56892 0.0
H3878 H 0.27855 0.61788 0.6132 0.0
H3879 H 0.26205 0.62046 0.56156 0.0
H3880 H 0.303 0.65954 0.55636 0.0
H3881 H 0.27665 0.64914 0.56842 0.0
H3882 H 0.30373 0.60945 0.59361 0.0
H3883 H 0.33004 0.61966 0.58148 0.0
C3884 C 0.25458 0.60665 0.60776 0.0
C3885 C 0.24256 0.60305 0.59537 0.0
C3886 C 0.26931 0.61534 0.60353 0.0
C3887 C 0.27213 0.62055 0.58687 0.0
C3888 C 0.26001 0.61691 0.57455 0.0
C3889 C 0.2455 0.60797 0.57872 0.0
C3890 C 0.30339 0.64881 0.56475 0.0
C3891 C 0.31858 0.64032 0.56785 0.0
C3892 C 0.28831 0.64285 0.57158 0.0
C3893 C 0.2882 0.62847 0.58185 0.0
C3894 C 0.3035 0.62062 0.58581 0.0
C3895 C 0.31853 0.62641 0.57878 0.0
H3896 H 0.12583 0.58016 0.33167 0.0
H3897 H 0.08585 0.55323 0.30653 0.0
H3898 H 0.13576 0.55384 0.34398 0.0
H3899 H 0.09598 0.52687 0.31876 0.0
H3900 H 0.14223 0.50296 0.37125 0.0
H3901 H 0.12698 0.5288 0.36369 0.0
H3902 H 0.12462 0.51207 0.31209 0.0
H3903 H 0.14005 0.48655 0.31965 0.0
C3904 C 0.119 0.56867 0.329 0.0
C3905 C 0.10514 0.56875 0.31801 0.0
C3906 C 0.12462 0.55364 0.33613 0.0
C3907 C 0.11667 0.53837 0.33222 0.0
C3908 C 0.10235 0.53851 0.32189 0.0
C3909 C 0.09654 0.5536 0.31496 0.0
C3910 C 0.1381 0.50475 0.3584 0.0
C3911 C 0.14172 0.49266 0.34608 0.0
C3912 C 0.12952 0.5195 0.35406 0.0
C3913 C 0.12444 0.52227 0.33736 0.0
C3914 C 0.12808 0.51008 0.32511 0.0
C3915 C 0.13691 0.49555 0.32939 0.0
H3916 H 0.35241 0.49233 0.87036 0.0
H3917 H 0.35483 0.50864 0.81873 0.0
H3918 H 0.36782 0.46654 0.86292 0.0
H3919 H 0.3704 0.48316 0.8113 0.0
H3920 H 0.3695 0.41511 0.83108 0.0
H3921 H 0.35934 0.4414 0.84326 0.0
H3922 H 0.39908 0.46854 0.81812 0.0
H3923 H 0.40944 0.4422 0.80601 0.0
C3924 C 0.35662 0.49052 0.85753 0.0
C3925 C 0.35303 0.50258 0.84517 0.0
C3926 C 0.3653 0.47581 0.85326 0.0
C3927 C 0.37049 0.47303 0.83659 0.0
C3928 C 0.36687 0.48517 0.8243 0.0
C3929 C 0.35794 0.49967 0.82851 0.0
C3930 C 0.37627 0.42663 0.82839 0.0
C3931 C 0.39019 0.4266 0.81747 0.0
C3932 C 0.37051 0.44165 0.83546 0.0
C3933 C 0.37838 0.45696 0.83153 0.0
C3934 C 0.39276 0.45687 0.82126 0.0
C3935 C 0.39871 0.4418 0.8144 0.0
H3936 H 0.92594 0.7368 0.60448 0.0
H3937 H 0.87428 0.75304 0.60205 0.0
H3938 H 0.93331 0.76221 0.6202 0.0
H3939 H 0.88166 0.77877 0.61761 0.0
H3940 H 0.91359 0.83022 0.6197 0.0
H3941 H 0.9014 0.804 0.60933 0.0
H3942 H 0.92632 0.77662 0.64896 0.0
H3943 H 0.93844 0.80287 0.65952 0.0
C3944 C 0.91614 0.74574 0.60762 0.0
C3945 C 0.89949 0.74283 0.60266 0.0
C3946 C 0.92031 0.7602 0.61663 0.0
C3947 C 0.90799 0.7723 0.6203 0.0
C3948 C 0.89133 0.76953 0.61505 0.0
C3949 C 0.8871 0.75485 0.60629 0.0
C3950 C 0.91622 0.81866 0.6264 0.0
C3951 C 0.92709 0.8186 0.64034 0.0
C3952 C 0.90915 0.80368 0.62052 0.0
C3953 C 0.91302 0.78833 0.62831 0.0
C3954 C 0.92323 0.78832 0.64272 0.0
C3955 C 0.93009 0.80335 0.64878 0.0
H3956 H 0.00877 0.1758 0.35506 0.0
H3957 H 0.99244 0.12414 0.35243 0.0
H3958 H 0.98333 0.18315 0.37071 0.0
H3959 H 0.96668 0.13149 0.36794 0.0
H3960 H 0.91529 0.16335 0.36959 0.0
H3961 H 0.94159 0.15112 0.35953 0.0
H3962 H 0.96861 0.17632 0.39927 0.0
H3963 H 0.94227 0.18849 0.40952 0.0
C3964 C -0.00019 0.16599 0.35815 0.0
C3965 C 0.00269 0.14935 0.35314 0.0
C3966 C 0.98533 0.17015 0.36712 0.0
C3967 C 0.97318 0.15783 0.37071 0.0
C3968 C 0.97594 0.14117 0.36544 0.0
C3969 C 0.99065 0.13695 0.35672 0.0
C3970 C 0.92679 0.16604 0.37639 0.0
C3971 C 0.92672 0.17701 0.39026 0.0
C3972 C 0.94181 0.15894 0.37069 0.0
C3973 C 0.95709 0.16288 0.37858 0.0
C3974 C 0.95696 0.17318 0.39293 0.0
C3975 C 0.94189 0.18007 0.39882 0.0
H3976 H 0.58187 0.165 0.11891 0.0
H3977 H 0.55703 0.19192 0.15907 0.0
H3978 H 0.5942 0.19131 0.10892 0.0
H3979 H 0.56929 0.21826 0.14889 0.0
H3980 H 0.62148 0.24219 0.10221 0.0
H3981 H 0.61401 0.21635 0.11754 0.0
H3982 H 0.56242 0.23307 0.12032 0.0
H3983 H 0.56988 0.25859 0.10483 0.0
C3984 C 0.57927 0.17648 0.12577 0.0
C3985 C 0.56836 0.1764 0.13969 0.0
C3986 C 0.58642 0.19151 0.12011 0.0
C3987 C 0.5826 0.20677 0.1281 0.0
C3988 C 0.57235 0.20663 0.14249 0.0
C3989 C 0.5654 0.19155 0.14833 0.0
C3990 C 0.60866 0.24039 0.10645 0.0
C3991 C 0.59631 0.25248 0.10293 0.0
C3992 C 0.60437 0.22565 0.11508 0.0
C3993 C 0.5877 0.22288 0.1203 0.0
C3994 C 0.57542 0.23507 0.11676 0.0
C3995 C 0.57965 0.24959 0.10788 0.0
H3996 H 0.55503 0.80713 0.9095 0.0
H3997 H 0.58102 0.83173 0.8686 0.0
H3998 H 0.52847 0.81943 0.89994 0.0
H3999 H 0.55454 0.84414 0.85925 0.0
H4000 H 0.48751 0.81976 0.85611 0.0
H4001 H 0.51314 0.81241 0.87144 0.0
H4002 H 0.5297 0.86408 0.86857 0.0
H4003 H 0.50375 0.87145 0.85343 0.0
C4004 C 0.55515 0.81548 0.89875 0.0
C4005 C 0.57007 0.81835 0.8897 0.0
C4006 C 0.53996 0.82245 0.89326 0.0
C4007 C 0.53951 0.83266 0.87885 0.0
C4008 C 0.55458 0.83641 0.87047 0.0
C4009 C 0.5697 0.82921 0.87576 0.0
C4010 C 0.49649 0.82957 0.85914 0.0
C4011 C 0.49353 0.84622 0.85419 0.0
C4012 C 0.51107 0.82541 0.86792 0.0
C4013 C 0.52326 0.83773 0.87136 0.0
C4014 C 0.5204 0.8544 0.8662 0.0
C4015 C 0.50559 0.85863 0.85767 0.0
H4016 H 0.91388 0.1649 0.87653 0.0
H4017 H 0.93835 0.19208 0.8363 0.0
H4018 H 0.90165 0.19114 0.88678 0.0
H4019 H 0.92621 0.21835 0.84675 0.0
H4020 H 0.8742 0.24207 0.89354 0.0
H4021 H 0.88169 0.21619 0.87827 0.0
H4022 H 0.93326 0.23303 0.87542 0.0
H4023 H 0.92579 0.25857 0.89086 0.0
C4024 C 0.91643 0.17642 0.86972 0.0
C4025 C 0.9272 0.17644 0.85569 0.0
C4026 C 0.90933 0.19141 0.87553 0.0
C4027 C 0.91308 0.20672 0.86759 0.0
C4028 C 0.9232 0.20667 0.85311 0.0
C4029 C 0.93008 0.19164 0.84712 0.0
C4030 C 0.88703 0.24028 0.88931 0.0
C4031 C 0.89936 0.25242 0.89278 0.0
C4032 C 0.89132 0.22552 0.88072 0.0
C4033 C 0.90799 0.22278 0.87548 0.0
C4034 C 0.92026 0.235 0.879 0.0
C4035 C 0.91603 0.24954 0.88784 0.0
H4036 H 0.50294 0.12471 0.64226 0.0
H4037 H 0.48666 0.17637 0.63987 0.0
H4038 H 0.52875 0.13216 0.62688 0.0
H4039 H 0.51217 0.18382 0.62434 0.0
H4040 H 0.55316 0.18909 0.58531 0.0
H4041 H 0.52682 0.177 0.59568 0.0
H4042 H 0.55389 0.15182 0.63537 0.0
H4043 H 0.5802 0.16399 0.62519 0.0
C4044 C 0.50476 0.13755 0.63806 0.0
C4045 C 0.49271 0.14991 0.64165 0.0
C4046 C 0.51949 0.14182 0.62941 0.0
C4047 C 0.52229 0.15851 0.62423 0.0
C4048 C 0.51015 0.17081 0.62786 0.0
C4049 C 0.49563 0.16659 0.63676 0.0
C4050 C 0.55355 0.1807 0.59603 0.0
C4051 C 0.56874 0.17761 0.60453 0.0
C4052 C 0.53847 0.17385 0.60198 0.0
C4053 C 0.53837 0.16357 0.61635 0.0
C4054 C 0.55366 0.15963 0.6242 0.0
C4055 C 0.56869 0.16668 0.61843 0.0
H4056 H 0.58093 0.83065 0.376 0.0
H4057 H 0.55591 0.80347 0.33614 0.0
H4058 H 0.59313 0.80439 0.3862 0.0
H4059 H 0.56803 0.77716 0.34654 0.0
H4060 H 0.62041 0.7535 0.39299 0.0
H4061 H 0.61287 0.7793 0.37766 0.0
H4062 H 0.56126 0.76252 0.37524 0.0
H4063 H 0.56879 0.73704 0.39073 0.0
C4064 C 0.57826 0.81912 0.36925 0.0
C4065 C 0.56734 0.81911 0.35534 0.0
C4066 C 0.58533 0.80412 0.37504 0.0
C4067 C 0.58143 0.78879 0.36719 0.0
C4068 C 0.57115 0.78884 0.35283 0.0
C4069 C 0.56429 0.8039 0.34686 0.0
C4070 C 0.60756 0.75528 0.38884 0.0
C4071 C 0.59523 0.74318 0.39245 0.0
C4072 C 0.60323 0.77001 0.38021 0.0
C4073 C 0.58654 0.77274 0.37508 0.0
C4074 C 0.57427 0.76055 0.37873 0.0
C4075 C 0.57854 0.74604 0.38761 0.0
H4076 H 0.91485 0.83147 0.12563 0.0
H4077 H 0.94197 0.80643 0.08573 0.0
H4078 H 0.94112 0.84371 0.13578 0.0
H4079 H 0.96828 0.81861 0.09607 0.0
H4080 H 0.99201 0.87091 0.14272 0.0
H4081 H 0.96623 0.86343 0.12733 0.0
H4082 H 0.98293 0.81181 0.12469 0.0
H4083 H 0.0084 0.81929 0.14024 0.0
C4084 C 0.92638 0.82881 0.11886 0.0
C4085 C 0.92636 0.81787 0.10496 0.0
C4086 C 0.94138 0.83591 0.12462 0.0
C4087 C 0.95669 0.83201 0.11675 0.0
C4088 C 0.95661 0.82172 0.10238 0.0
C4089 C 0.94156 0.81483 0.09645 0.0
C4090 C 0.99022 0.85808 0.1385 0.0
C4091 C 0.0023 0.84573 0.14207 0.0
C4092 C 0.97551 0.85378 0.12984 0.0
C4093 C 0.97275 0.8371 0.12463 0.0
C4094 C 0.98492 0.82482 0.12824 0.0
C4095 C -0.00058 0.82905 0.13714 0.0
H4096 H 0.65953 0.93912 0.80459 0.0
H4097 H 0.61863 0.91453 0.83064 0.0
H4098 H 0.64986 0.92684 0.77805 0.0
H4099 H 0.60918 0.90215 0.80419 0.0
H4100 H 0.60586 0.9266 0.73726 0.0
H4101 H 0.62127 0.93392 0.76285 0.0
H4102 H 0.61843 0.88223 0.77929 0.0
H4103 H 0.60322 0.87488 0.75337 0.0
C4104 C 0.64875 0.93076 0.80473 0.0
C4105 C 0.63974 0.9279 0.81966 0.0
C4106 C 0.64321 0.92381 0.78955 0.0
C4107 C 0.62876 0.91363 0.78912 0.0
C4108 C 0.62042 0.90987 0.80421 0.0
C4109 C 0.62577 0.91705 0.81931 0.0
C4110 C 0.60891 0.91677 0.7462 0.0
C4111 C 0.60395 0.90012 0.74322 0.0
C4112 C 0.61774 0.92092 0.76076 0.0
C4113 C 0.62122 0.90858 0.7729 0.0
C4114 C 0.61603 0.89191 0.77002 0.0
C4115 C 0.60746 0.8877 0.75523 0.0
H4116 H 0.87088 0.85296 0.50331 0.0
H4117 H 0.81916 0.8555 0.48725 0.0
H4118 H 0.86355 0.86818 0.52924 0.0
H4119 H 0.81185 0.87089 0.51286 0.0
H4120 H 0.80684 0.9097 0.55409 0.0
H4121 H 0.81889 0.89953 0.52767 0.0
H4122 H 0.84382 0.85942 0.55437 0.0
H4123 H 0.83169 0.8694 0.58075 0.0
C4124 C 0.85805 0.85716 0.5052 0.0
C4125 C 0.84564 0.85365 0.49318 0.0
C4126 C 0.85385 0.86572 0.52 0.0
C4127 C 0.83719 0.8709 0.52289 0.0
C4128 C 0.82484 0.86737 0.51077 0.0
C4129 C 0.82899 0.85855 0.49619 0.0
C4130 C 0.81517 0.89893 0.55438 0.0
C4131 C 0.81819 0.89026 0.56948 0.0
C4132 C 0.822 0.89309 0.53926 0.0
C4133 C 0.83219 0.87867 0.53903 0.0
C4134 C 0.83608 0.87063 0.55424 0.0
C4135 C 0.82904 0.87629 0.56931 0.0
H4136 H 0.87546 0.08166 0.32991 0.0
H4137 H 0.83561 0.05643 0.30287 0.0
H4138 H 0.88563 0.09383 0.30362 0.0
H4139 H 0.84597 0.06853 0.27654 0.0
H4140 H 0.89258 0.12085 0.25268 0.0
H4141 H 0.87713 0.11344 0.27845 0.0
H4142 H 0.87469 0.06173 0.26196 0.0
H4143 H 0.8903 0.06913 0.23651 0.0
C4144 C 0.86871 0.07894 0.3184 0.0
C4145 C 0.85482 0.06797 0.31844 0.0
C4146 C 0.87447 0.086 0.30338 0.0
C4147 C 0.86662 0.08202 0.28809 0.0
C4148 C 0.85226 0.07171 0.2882 0.0
C4149 C 0.84632 0.06486 0.30326 0.0
C4150 C 0.88839 0.10801 0.25451 0.0
C4151 C 0.89204 0.09561 0.2425 0.0
C4152 C 0.87969 0.10376 0.26922 0.0
C4153 C 0.87453 0.08707 0.27203 0.0
C4154 C 0.87821 0.07474 0.25993 0.0
C4155 C 0.88715 0.07894 0.24544 0.0
H4156 H 0.62435 0.1425 0.00251 0.0
H4157 H 0.676 0.14011 0.98621 0.0
H4158 H 0.63175 0.12701 0.02825 0.0
H4159 H 0.6834 0.12447 0.01163 0.0
H4160 H 0.68876 0.08551 0.05258 0.0
H4161 H 0.67664 0.09583 0.02626 0.0
H4162 H 0.65134 0.13546 0.05337 0.0
H4163 H 0.66352 0.12532 0.07964 0.0
C4164 C 0.63717 0.13827 0.00431 0.0
C4165 C 0.64955 0.1419 0.99227 0.0
C4166 C 0.64142 0.12956 0.019 0.0
C4167 C 0.65809 0.12436 0.02177 0.0
C4168 C 0.6704 0.12801 0.00963 0.0
C4169 C 0.66621 0.13697 0.99516 0.0
C4170 C 0.68033 0.0962 0.05298 0.0
C4171 C 0.67722 0.1047 0.06816 0.0
C4172 C 0.67347 0.10212 0.03792 0.0
C4173 C 0.66315 0.11646 0.03783 0.0
C4174 C 0.65917 0.12431 0.05312 0.0
C4175 C 0.66624 0.11857 0.06813 0.0
H4176 H 0.65979 0.0577 0.69147 0.0
H4177 H 0.61965 0.0823 0.66434 0.0
H4178 H 0.64952 0.07008 0.71769 0.0
H4179 H 0.60956 0.09474 0.69053 0.0
H4180 H 0.60261 0.12223 0.74123 0.0
H4181 H 0.61805 0.11471 0.71548 0.0
H4182 H 0.6209 0.06318 0.73244 0.0
H4183 H 0.60531 0.07069 0.75786 0.0
C4184 C 0.64903 0.06605 0.69103 0.0
C4185 C 0.64042 0.06889 0.67586 0.0
C4186 C 0.64314 0.07306 0.70604 0.0
C4187 C 0.62873 0.08327 0.70609 0.0
C4188 C 0.62077 0.08699 0.6908 0.0
C4189 C 0.62648 0.07977 0.67584 0.0
C4190 C 0.6069 0.10941 0.73951 0.0
C4191 C 0.60337 0.0971 0.75163 0.0
C4192 C 0.61559 0.10509 0.72481 0.0
C4193 C 0.62086 0.08842 0.72214 0.0
C4194 C 0.61731 0.07618 0.73436 0.0
C4195 C 0.60837 0.08043 0.74884 0.0
H4196 H 0.68864 0.90972 0.44246 0.0
H4197 H 0.66346 0.86978 0.4155 0.0
H4198 H 0.67663 0.89935 0.46883 0.0
H4199 H 0.65138 0.85959 0.44182 0.0
H4200 H 0.62448 0.85262 0.49283 0.0
H4201 H 0.63181 0.86806 0.46703 0.0
H4202 H 0.68352 0.87066 0.4834 0.0
H4203 H 0.6762 0.85505 0.50889 0.0
C4204 C 0.68024 0.89899 0.4421 0.0
C4205 C 0.67712 0.89047 0.42693 0.0
C4206 C 0.67344 0.89303 0.45718 0.0
C4207 C 0.66317 0.87865 0.45731 0.0
C4208 C 0.65918 0.87077 0.44204 0.0
C4209 C 0.66619 0.87655 0.427 0.0
C4210 C 0.6373 0.85684 0.49097 0.0
C4211 C 0.64972 0.85324 0.50295 0.0
C4212 C 0.64151 0.86553 0.47624 0.0
C4213 C 0.65817 0.87074 0.47339 0.0
C4214 C 0.67052 0.86711 0.48547 0.0
C4215 C 0.66638 0.85817 0.49997 0.0
H4216 H 0.83579 0.93845 0.1918 0.0
H4217 H 0.8758 0.91341 0.16484 0.0
H4218 H 0.84604 0.9263 0.21813 0.0
H4219 H 0.88586 0.9012 0.19113 0.0
H4220 H 0.89274 0.87413 0.24202 0.0
H4221 H 0.87736 0.88152 0.21622 0.0
H4222 H 0.87463 0.93317 0.23284 0.0
H4223 H 0.89017 0.92579 0.25832 0.0
C4224 C 0.84651 0.93006 0.19142 0.0
C4225 C 0.85509 0.92702 0.17627 0.0
C4226 C 0.85239 0.92318 0.20649 0.0
C4227 C 0.86677 0.91291 0.20662 0.0
C4228 C 0.87469 0.909 0.19135 0.0
C4229 C 0.86899 0.91608 0.17633 0.0
C4230 C 0.88849 0.88695 0.24021 0.0
C4231 C 0.89204 0.89933 0.25226 0.0
C4232 C 0.87984 0.89119 0.22549 0.0
C4233 C 0.87461 0.90786 0.2227 0.0
C4234 C 0.87819 0.92017 0.23485 0.0
C4235 C 0.88709 0.91599 0.24935 0.0
H4236 H 0.87071 0.14368 0.99202 0.0
H4237 H 0.81907 0.14107 0.00837 0.0
H4238 H 0.86327 0.12836 0.96617 0.0
H4239 H 0.81165 0.12558 0.98285 0.0
H4240 H 0.83134 0.12648 0.91481 0.0
H4241 H 0.84345 0.13681 0.94106 0.0
H4242 H 0.81866 0.09688 0.96824 0.0
H4243 H 0.80663 0.08636 0.94196 0.0
C4244 C 0.85788 0.13945 0.9902 0.0
C4245 C 0.84552 0.14295 0.00229 0.0
C4246 C 0.85361 0.13083 0.97545 0.0
C4247 C 0.83694 0.1256 0.97269 0.0
C4248 C 0.82465 0.12916 0.98485 0.0
C4249 C 0.82885 0.13802 -0.00062 0.0
C4250 C 0.82872 0.11971 0.92634 0.0
C4251 C 0.81792 0.10568 0.92633 0.0
C4252 C 0.83574 0.12556 0.94133 0.0
C4253 C 0.8319 0.11767 0.95664 0.0
C4254 C 0.82174 0.10321 0.95658 0.0
C4255 C 0.81493 0.09717 0.94154 0.0
H4256 H 0.75319 0.60235 0.87409 0.0
H4257 H 0.7368 0.60468 0.9257 0.0
H4258 H 0.77901 0.61771 0.88159 0.0
H4259 H 0.7623 0.62019 0.93319 0.0
H4260 H 0.83038 0.61926 0.91344 0.0
H4261 H 0.80408 0.60914 0.90125 0.0
H4262 H 0.77702 0.64885 0.92648 0.0
H4263 H 0.80337 0.65916 0.9386 0.0
C4264 C 0.75499 0.60653 0.88693 0.0
C4265 C 0.7429 0.60292 0.89926 0.0
C4266 C 0.76972 0.61517 0.89123 0.0
C4267 C 0.77248 0.62032 0.90792 0.0
C4268 C 0.7603 0.61669 0.92019 0.0
C4269 C 0.74579 0.6078 0.91594 0.0
C4270 C 0.81887 0.62603 0.91614 0.0
C4271 C 0.81893 0.63993 0.9271 0.0
C4272 C 0.80385 0.6203 0.90907 0.0
C4273 C 0.78856 0.62818 0.91302 0.0
C4274 C 0.78867 0.64253 0.92332 0.0
C4275 C 0.80375 0.64845 0.93019 0.0
H4276 H 0.25339 0.89246 0.12112 0.0
H4277 H 0.23695 0.88992 0.06955 0.0
H4278 H 0.27917 0.87706 0.11363 0.0
H4279 H 0.26241 0.87435 0.06208 0.0
H4280 H 0.30341 0.83546 0.05665 0.0
H4281 H 0.27711 0.8457 0.06893 0.0
H4282 H 0.30421 0.88563 0.09381 0.0
H4283 H 0.33047 0.87557 0.08146 0.0
C4284 C 0.25516 0.88822 0.10829 0.0
C4285 C 0.24308 0.89178 0.09596 0.0
C4286 C 0.26987 0.87955 0.104 0.0
C4287 C 0.27261 0.87432 0.08733 0.0
C4288 C 0.26043 0.87791 0.07507 0.0
C4289 C 0.24594 0.88683 0.07931 0.0
C4290 C 0.30381 0.8462 0.06502 0.0
C4291 C 0.31898 0.85481 0.06796 0.0
C4292 C 0.28877 0.85208 0.07198 0.0
C4293 C 0.28868 0.86647 0.08222 0.0
C4294 C 0.30397 0.87443 0.08603 0.0
C4295 C 0.31896 0.86874 0.07887 0.0
H4296 H 0.85238 0.50297 0.87012 0.0
H4297 H 0.8549 0.48661 0.81851 0.0
H4298 H 0.86778 0.52879 0.86268 0.0
H4299 H 0.87045 0.51212 0.81109 0.0
H4300 H 0.90939 0.55322 0.8058 0.0
H4301 H 0.89908 0.52686 0.81791 0.0
H4302 H 0.85926 0.55387 0.84301 0.0
H4303 H 0.86938 0.5802 0.83083 0.0
C4304 C 0.85662 0.50477 0.8573 0.0
C4305 C 0.85305 0.4927 0.84494 0.0
C4306 C 0.86528 0.51951 0.85303 0.0
C4307 C 0.87049 0.52228 0.83637 0.0
C4308 C 0.8669 0.51011 0.82408 0.0
C4309 C 0.85799 0.49559 0.82829 0.0
C4310 C 0.89865 0.55359 0.81418 0.0
C4311 C 0.8901 0.56876 0.81723 0.0
C4312 C 0.89273 0.53851 0.82104 0.0
C4313 C 0.87835 0.53838 0.8313 0.0
C4314 C 0.87044 0.55366 0.83522 0.0
C4315 C 0.87618 0.56869 0.82815 0.0
H4316 H 0.19075 0.15971 0.55641 0.0
H4317 H 0.16494 0.11863 0.58093 0.0
H4318 H 0.21739 0.15011 0.56852 0.0
H4319 H 0.19149 0.10924 0.59315 0.0
H4320 H 0.25833 0.10621 0.56834 0.0
H4321 H 0.23267 0.12162 0.56124 0.0
H4322 H 0.21644 0.11848 0.61295 0.0
H4323 H 0.24243 0.10326 0.62007 0.0
C4324 C 0.19069 0.14891 0.56471 0.0
C4325 C 0.17579 0.13982 0.56761 0.0
C4326 C 0.20592 0.1434 0.57157 0.0
C4327 C 0.20644 0.12892 0.58168 0.0
C4328 C 0.19139 0.12051 0.58548 0.0
C4329 C 0.17623 0.12582 0.5784 0.0
C4330 C 0.24942 0.10919 0.57822 0.0
C4331 C 0.25248 0.10414 0.59481 0.0
C4332 C 0.23482 0.11803 0.5742 0.0
C4333 C 0.22272 0.12141 0.58661 0.0
C4334 C 0.22568 0.11615 0.60322 0.0
C4335 C 0.2405 0.10758 0.6073 0.0
H4336 H 0.12656 0.91465 0.83103 0.0
H4337 H 0.0855 0.94073 0.80685 0.0
H4338 H 0.13595 0.94106 0.84359 0.0
H4339 H 0.09511 0.96724 0.81931 0.0
H4340 H 0.13912 0.00814 0.81953 0.0
H4341 H 0.12365 0.98257 0.81217 0.0
H4342 H 0.12672 0.96583 0.86372 0.0
H4343 H 0.14199 0.99174 0.8711 0.0
C4344 C 0.11937 0.92597 0.82865 0.0
C4345 C 0.10538 0.92565 0.81785 0.0
C4346 C 0.12468 0.94105 0.83593 0.0
C4347 C 0.11628 0.95614 0.83233 0.0
C4348 C 0.10181 0.95573 0.82221 0.0
C4349 C 0.0963 0.94058 0.81515 0.0
C4350 C 0.13611 -0.00086 0.82932 0.0
C4351 C 0.14115 0.00203 0.84594 0.0
C4352 C 0.12724 0.98459 0.82515 0.0
C4353 C 0.12382 0.97237 0.83743 0.0
C4354 C 0.12907 0.97517 0.85408 0.0
C4355 C 0.13768 0.98994 0.85831 0.0
H4356 H 0.69214 0.33619 0.43833 0.0
H4357 H 0.66512 0.37603 0.41311 0.0
H4358 H 0.71851 0.34658 0.42629 0.0
H4359 H 0.69145 0.38622 0.401 0.0
H4360 H 0.74246 0.39319 0.37406 0.0
H4361 H 0.71666 0.37774 0.38143 0.0
H4362 H 0.73308 0.3753 0.43311 0.0
H4363 H 0.75857 0.39091 0.42575 0.0
C4364 C 0.69176 0.3469 0.42991 0.0
C4365 C 0.67658 0.35539 0.42679 0.0
C4366 C 0.70685 0.35286 0.4231 0.0
C4367 C 0.70697 0.36722 0.4128 0.0
C4368 C 0.69167 0.37506 0.40881 0.0
C4369 C 0.67664 0.36928 0.41584 0.0
C4370 C 0.74061 0.389 0.38689 0.0
C4371 C 0.75261 0.39265 0.39929 0.0
C4372 C 0.72588 0.3803 0.39112 0.0
C4373 C 0.72305 0.37514 0.40779 0.0
C4374 C 0.73514 0.37882 0.42011 0.0
C4375 C 0.74965 0.38776 0.41594 0.0
H4376 H 0.85512 0.50839 0.67547 0.0
H4377 H 0.85277 0.49194 0.62388 0.0
H4378 H 0.87061 0.4829 0.68298 0.0
H4379 H 0.86811 0.46614 0.6314 0.0
H4380 H 0.90957 0.44189 0.68841 0.0
H4381 H 0.89926 0.46821 0.67625 0.0
H4382 H 0.85956 0.44106 0.6511 0.0
H4383 H 0.86968 0.41478 0.66332 0.0
C4384 C 0.85823 0.49939 0.66572 0.0
C4385 C 0.85335 0.50226 0.64905 0.0
C4386 C 0.86711 0.48488 0.66997 0.0
C4387 C 0.87074 0.47269 0.65772 0.0
C4388 C 0.86558 0.47544 0.64103 0.0
C4389 C 0.85695 0.49016 0.63672 0.0
C4390 C 0.89886 0.44148 0.68001 0.0
C4391 C 0.89034 0.42628 0.67695 0.0
C4392 C 0.89294 0.45654 0.67312 0.0
C4393 C 0.87859 0.45662 0.66282 0.0
C4394 C 0.87071 0.44131 0.65891 0.0
C4395 C 0.87645 0.4263 0.666 0.0
H4396 H 0.58568 0.55388 0.18799 0.0
H4397 H 0.62579 0.58076 0.16296 0.0
H4398 H 0.59592 0.52749 0.17591 0.0
H4399 H 0.63584 0.55441 0.15082 0.0
H4400 H 0.64274 0.50343 0.12388 0.0
H4401 H 0.62735 0.52927 0.13119 0.0
H4402 H 0.62447 0.51274 0.18282 0.0
H4403 H 0.64002 0.48722 0.17551 0.0
C4404 C 0.59642 0.55423 0.17961 0.0
C4405 C 0.60503 0.56938 0.17655 0.0
C4406 C 0.6023 0.53912 0.17277 0.0
C4407 C 0.61669 0.53896 0.16252 0.0
C4408 C 0.62465 0.55422 0.1586 0.0
C4409 C 0.61895 0.56927 0.16564 0.0
C4410 C 0.63846 0.50527 0.13668 0.0
C4411 C 0.64197 0.49323 0.14908 0.0
C4412 C 0.6298 0.52002 0.14088 0.0
C4413 C 0.62453 0.52284 0.15752 0.0
C4414 C 0.62806 0.5107 0.16984 0.0
C4415 C 0.63697 0.49617 0.16571 0.0
H4416 H 0.56947 0.75848 0.89066 0.0
H4417 H 0.6212 0.74228 0.89156 0.0
H4418 H 0.5616 0.73281 0.87558 0.0
H4419 H 0.61332 0.71631 0.87666 0.0
H4420 H 0.58161 0.66476 0.87552 0.0
H4421 H 0.59376 0.69108 0.88572 0.0
H4422 H 0.56791 0.7183 0.84657 0.0
H4423 H 0.55586 0.69195 0.83616 0.0
C4424 C 0.57916 0.74948 0.88735 0.0
C4425 C 0.59598 0.75248 0.89165 0.0
C4426 C 0.57469 0.73487 0.87871 0.0
C4427 C 0.5869 0.72273 0.87478 0.0
C4428 C 0.60372 0.72557 0.87944 0.0
C4429 C 0.60823 0.74039 0.88781 0.0
C4430 C 0.57876 0.67631 0.86889 0.0
C4431 C 0.56768 0.6763 0.85511 0.0
C4432 C 0.5858 0.69134 0.87468 0.0
C4433 C 0.58168 0.70667 0.86696 0.0
C4434 C 0.5712 0.70661 0.85275 0.0
C4435 C 0.56438 0.69153 0.84678 0.0
H4436 H 0.50357 0.37079 0.14258 0.0
H4437 H 0.48716 0.31914 0.1402 0.0
H4438 H 0.52945 0.36327 0.12736 0.0
H4439 H 0.51273 0.31163 0.12481 0.0
H4440 H 0.58082 0.33139 0.12583 0.0
H4441 H 0.55451 0.34354 0.13597 0.0
H4442 H 0.52748 0.31843 0.09618 0.0
H4443 H 0.55383 0.30635 0.08585 0.0
C4444 C 0.50538 0.35794 0.13842 0.0
C4445 C 0.49326 0.34559 0.14197 0.0
C4446 C 0.52015 0.35362 0.12986 0.0
C4447 C 0.52292 0.33692 0.12472 0.0
C4448 C 0.51073 0.32465 0.12831 0.0
C4449 C 0.49617 0.3289 0.13713 0.0
C4450 C 0.56932 0.3287 0.11905 0.0
C4451 C 0.56938 0.31779 0.10512 0.0
C4452 C 0.55429 0.33575 0.1248 0.0
C4453 C 0.53901 0.33183 0.11689 0.0
C4454 C 0.53913 0.32156 0.10252 0.0
C4455 C 0.55421 0.31472 0.09659 0.0
H4456 H 0.9136 0.33012 0.37531 0.0
H4457 H 0.93888 0.3031 0.3355 0.0
H4458 H 0.90151 0.30378 0.3855 0.0
H4459 H 0.92686 0.27672 0.34588 0.0
H4460 H 0.87465 0.25273 0.39253 0.0
H4461 H 0.88198 0.27853 0.37706 0.0
H4462 H 0.93371 0.26217 0.37456 0.0
H4463 H 0.92638 0.23668 0.39018 0.0
C4464 C 0.91635 0.3186 0.36857 0.0
C4465 C 0.92731 0.31867 0.35469 0.0
C4466 C 0.90933 0.30356 0.37434 0.0
C4467 C 0.91335 0.28826 0.36651 0.0
C4468 C 0.92365 0.28838 0.35216 0.0
C4469 C 0.93045 0.30348 0.3462 0.0
C4470 C 0.88748 0.25459 0.38832 0.0
C4471 C 0.8999 0.24261 0.39195 0.0
C4472 C 0.89169 0.26932 0.37962 0.0
C4473 C 0.90836 0.27217 0.37443 0.0
C4474 C 0.92071 0.2601 0.37809 0.0
C4475 C 0.91656 0.24559 0.38704 0.0
H4476 H 0.99252 0.62506 0.64236 0.0
H4477 H 0.00858 0.67682 0.64005 0.0
H4478 H 0.96674 0.63236 0.62691 0.0
H4479 H 0.98311 0.68412 0.62445 0.0
H4480 H 0.94218 0.68925 0.5854 0.0
H4481 H 0.96856 0.67732 0.59579 0.0
H4482 H 0.94149 0.65179 0.63531 0.0
H4483 H 0.91515 0.66379 0.6251 0.0
C4484 C 0.99066 0.63789 0.63817 0.0
C4485 C 0.00264 0.65032 0.6418 0.0
C4486 C 0.97594 0.64208 0.62947 0.0
C4487 C 0.97309 0.65875 0.6243 0.0
C4488 C 0.98517 0.67112 0.62797 0.0
C4489 C -0.00033 0.66699 0.63691 0.0
C4490 C 0.94181 0.68081 0.59608 0.0
C4491 C 0.92661 0.67759 0.60453 0.0
C4492 C 0.9569 0.67406 0.60205 0.0
C4493 C 0.95702 0.66373 0.61638 0.0
C4494 C 0.94172 0.65964 0.62417 0.0
C4495 C 0.92667 0.6666 0.61839 0.0
H4496 H 0.55641 0.30333 0.65894 0.0
H4497 H 0.58139 0.3305 0.61903 0.0
H4498 H 0.56853 0.27703 0.64852 0.0
H4499 H 0.59359 0.30424 0.6088 0.0
H4500 H 0.56913 0.23693 0.60427 0.0
H4501 H 0.56169 0.26239 0.61986 0.0
H4502 H 0.6133 0.27914 0.61721 0.0
H4503 H 0.62076 0.25336 0.60178 0.0
C4504 C 0.56478 0.30376 0.6482 0.0
C4505 C 0.56782 0.31897 0.63971 0.0
C4506 C 0.57165 0.2887 0.64222 0.0
C4507 C 0.5819 0.28865 0.62784 0.0
C4508 C 0.5858 0.30397 0.61998 0.0
C4509 C 0.57873 0.31897 0.62578 0.0
C4510 C 0.57891 0.24592 0.60737 0.0
C4511 C 0.59557 0.24305 0.60243 0.0
C4512 C 0.57469 0.26042 0.6163 0.0
C4513 C 0.58698 0.27259 0.61992 0.0
C4514 C 0.60365 0.26985 0.6147 0.0
C4515 C 0.60793 0.25514 0.60601 0.0
H4516 H 0.99193 0.37072 0.85227 0.0
H4517 H 0.00826 0.31908 0.85475 0.0
H4518 H 0.96611 0.36326 0.86763 0.0
H4519 H 0.98275 0.31163 0.87028 0.0
H4520 H 0.94179 0.30647 0.9094 0.0
H4521 H 0.96812 0.31855 0.89896 0.0
H4522 H 0.94099 0.34349 0.85916 0.0
H4523 H 0.9147 0.33134 0.86941 0.0
C4524 C 0.99012 0.35789 0.85648 0.0
C4525 C 0.00219 0.34553 0.85292 0.0
C4526 C 0.97538 0.35361 0.86513 0.0
C4527 C 0.9726 0.33693 0.87033 0.0
C4528 C 0.98476 0.32464 0.86673 0.0
C4529 C -0.00072 0.32885 0.85783 0.0
C4530 C 0.94139 0.31481 0.89864 0.0
C4531 C 0.92619 0.31783 0.89013 0.0
C4532 C 0.95645 0.32165 0.89264 0.0
C4533 C 0.95654 0.33186 0.87823 0.0
C4534 C 0.94123 0.33574 0.87036 0.0
C4535 C 0.92622 0.32869 0.87617 0.0
H4536 H 0.93881 0.69218 0.1595 0.0
H4537 H 0.91372 0.66496 0.11971 0.0
H4538 H 0.92667 0.71847 0.1491 0.0
H4539 H 0.90152 0.69121 0.10949 0.0
H4540 H 0.87442 0.74206 0.10236 0.0
H4541 H 0.88186 0.71632 0.11784 0.0
H4542 H 0.93347 0.73307 0.12046 0.0
H4543 H 0.92604 0.75849 0.10482 0.0
C4544 C 0.93041 0.69174 0.1488 0.0
C4545 C 0.92735 0.67652 0.14033 0.0
C4546 C 0.92354 0.70679 0.14282 0.0
C4547 C 0.91325 0.70682 0.12847 0.0
C4548 C 0.90932 0.69149 0.12065 0.0
C4549 C 0.9164 0.6765 0.12644 0.0
C4550 C 0.88725 0.74029 0.1066 0.0
C4551 C 0.8996 0.75237 0.10299 0.0
C4552 C 0.89151 0.7256 0.11531 0.0
C4553 C 0.90818 0.72287 0.12054 0.0
C4554 C 0.92047 0.73504 0.1169 0.0
C4555 C 0.91627 0.74951 0.10794 0.0
H4556 H 0.48657 0.6763 0.35487 0.0
H4557 H 0.50288 0.62464 0.35252 0.0
H4558 H 0.51201 0.68375 0.37048 0.0
H4559 H 0.52863 0.6321 0.36797 0.0
H4560 H 0.58005 0.66396 0.36966 0.0
H4561 H 0.55377 0.65175 0.35951 0.0
H4562 H 0.52663 0.677 0.39914 0.0
H4563 H 0.55296 0.68914 0.40949 0.0
C4564 C 0.49553 0.66652 0.35801 0.0
C4565 C 0.49263 0.64984 0.3531 0.0
C4566 C 0.51001 0.67074 0.36695 0.0
C4567 C 0.52215 0.65845 0.37061 0.0
C4568 C 0.51938 0.64176 0.36542 0.0
C4569 C 0.50468 0.63748 0.35673 0.0
C4570 C 0.56853 0.66666 0.37641 0.0
C4571 C 0.56856 0.67763 0.39029 0.0
C4572 C 0.55352 0.65958 0.37066 0.0
C4573 C 0.53821 0.66353 0.37851 0.0
C4574 C 0.5383 0.67384 0.39285 0.0
C4575 C 0.55336 0.68071 0.39879 0.0
H4576 H 0.89293 0.6208 0.74156 0.0
H4577 H 0.8905 0.56915 0.75789 0.0
H4578 H 0.87766 0.61331 0.71571 0.0
H4579 H 0.87506 0.56166 0.73236 0.0
H4580 H 0.87629 0.5813 0.66436 0.0
H4581 H 0.88634 0.59353 0.69066 0.0
H4582 H 0.84642 0.5685 0.71762 0.0
H4583 H 0.83617 0.55634 0.69128 0.0
C4584 C 0.88875 0.60796 0.73975 0.0
C4585 C 0.8923 0.59561 0.75182 0.0
C4586 C 0.88015 0.60366 0.725 0.0
C4587 C 0.875 0.58696 0.72221 0.0
C4588 C 0.87858 0.57468 0.73438 0.0
C4589 C 0.88742 0.57892 0.74891 0.0
C4590 C 0.86945 0.57865 0.67584 0.0
C4591 C 0.85552 0.56774 0.67576 0.0
C4592 C 0.87515 0.58575 0.69086 0.0
C4593 C 0.86719 0.58187 0.70612 0.0
C4594 C 0.8528 0.5716 0.70598 0.0
C4595 C 0.84692 0.56472 0.69091 0.0
H4596 H 0.66393 0.62579 0.91462 0.0
H4597 H 0.6888 0.58565 0.94151 0.0
H4598 H 0.65182 0.63593 0.94094 0.0
H4599 H 0.67675 0.59598 0.96787 0.0
H4600 H 0.62489 0.64304 0.99185 0.0
H4601 H 0.63215 0.62756 0.96606 0.0
H4602 H 0.68379 0.62454 0.98258 0.0
H4603 H 0.67654 0.64017 0.00805 0.0
C4604 C 0.66658 0.61897 0.9261 0.0
C4605 C 0.67744 0.60501 0.92601 0.0
C4606 C 0.65955 0.62471 0.94114 0.0
C4607 C 0.66345 0.61677 0.9564 0.0
C4608 C 0.67364 0.60234 0.95624 0.0
C4609 C 0.68046 0.59642 0.94116 0.0
C4610 C 0.63768 0.63871 0.99002 0.0
C4611 C 0.6501 0.64221 0.00205 0.0
C4612 C 0.64185 0.63 0.9753 0.0
C4613 C 0.65847 0.62466 0.97249 0.0
C4614 C 0.67082 0.62818 0.98461 0.0
C4615 C 0.66672 0.63714 -0.00089 0.0
H4616 H 0.60201 0.37487 0.24172 0.0
H4617 H 0.60452 0.42652 0.25806 0.0
H4618 H 0.61737 0.38233 0.2159 0.0
H4619 H 0.62003 0.43397 0.23257 0.0
H4620 H 0.61907 0.41424 0.16454 0.0
H4621 H 0.60888 0.40206 0.19081 0.0
H4622 H 0.64868 0.42711 0.2179 0.0
H4623 H 0.65907 0.43922 0.19159 0.0
C4624 C 0.60623 0.3877 0.23991 0.0
C4625 C 0.60268 0.40006 0.25198 0.0
C4626 C 0.61487 0.39198 0.22518 0.0
C4627 C 0.62007 0.40867 0.22241 0.0
C4628 C 0.61649 0.42096 0.23457 0.0
C4629 C 0.6076 0.41674 0.24908 0.0
C4630 C 0.62585 0.41691 0.17605 0.0
C4631 C 0.63979 0.42781 0.17601 0.0
C4632 C 0.62007 0.40984 0.19105 0.0
C4633 C 0.62796 0.41374 0.20634 0.0
C4634 C 0.64236 0.42399 0.20624 0.0
C4635 C 0.64832 0.43086 0.19119 0.0
H4636 H 0.80654 0.41004 0.44171 0.0
H4637 H 0.83181 0.37019 0.41472 0.0
H4638 H 0.81864 0.39976 0.46805 0.0
H4639 H 0.84397 0.36009 0.44102 0.0
H4640 H 0.87093 0.35312 0.4919 0.0
H4641 H 0.86354 0.36858 0.46614 0.0
H4642 H 0.81187 0.37112 0.48271 0.0
H4643 H 0.81925 0.35551 0.50815 0.0
C4644 C 0.81497 0.39935 0.44133 0.0
C4645 C 0.8181 0.39082 0.42616 0.0
C4646 C 0.82183 0.39344 0.45641 0.0
C4647 C 0.83215 0.37911 0.45653 0.0
C4648 C 0.83614 0.37124 0.44124 0.0
C4649 C 0.82908 0.37696 0.42622 0.0
C4650 C 0.8581 0.35734 0.49009 0.0
C4651 C 0.84571 0.35371 0.50212 0.0
C4652 C 0.85386 0.36604 0.47539 0.0
C4653 C 0.83719 0.37123 0.4726 0.0
C4654 C 0.82487 0.36759 0.48472 0.0
C4655 C 0.82905 0.35864 0.49921 0.0
H4656 H 0.89049 0.42588 0.73628 0.0
H4657 H 0.89296 0.37423 0.7526 0.0
H4658 H 0.87489 0.43329 0.76174 0.0
H4659 H 0.87752 0.38165 0.77837 0.0
H4660 H 0.8758 0.41358 0.82974 0.0
H4661 H 0.88597 0.40137 0.80348 0.0
H4662 H 0.84622 0.42642 0.77637 0.0
H4663 H 0.83586 0.43856 0.80267 0.0
C4664 C 0.88738 0.41609 0.74524 0.0
C4665 C 0.89232 0.39943 0.74235 0.0
C4666 C 0.87844 0.42029 0.75973 0.0
C4667 C 0.87482 0.40799 0.77188 0.0
C4668 C 0.88004 0.39131 0.76911 0.0
C4669 C 0.88873 0.38706 0.7544 0.0
C4670 C 0.86903 0.41623 0.81823 0.0
C4671 C 0.85511 0.42715 0.81826 0.0
C4672 C 0.8748 0.40915 0.80323 0.0
C4673 C 0.86692 0.41305 0.78794 0.0
C4674 C 0.85254 0.4233 0.78803 0.0
C4675 C 0.84659 0.43018 0.80308 0.0
H4676 H 0.83197 0.62581 0.07989 0.0
H4677 H 0.80695 0.58569 0.05304 0.0
H4678 H 0.84415 0.63586 0.05356 0.0
H4679 H 0.81906 0.59593 0.02667 0.0
H4680 H 0.8195 0.6401 0.98645 0.0
H4681 H 0.81216 0.62456 0.01196 0.0
H4682 H 0.86383 0.62729 0.02843 0.0
H4683 H 0.87119 0.64266 0.0026 0.0
C4684 C 0.8293 0.61897 0.06841 0.0
C4685 C 0.81838 0.60504 0.06852 0.0
C4686 C 0.83637 0.62467 0.05338 0.0
C4687 C 0.83245 0.61671 0.03812 0.0
C4688 C 0.8222 0.60231 0.03829 0.0
C4689 C 0.81533 0.59643 0.05338 0.0
C4690 C 0.82931 0.63702 0.99538 0.0
C4691 C 0.84597 0.64197 0.99243 0.0
C4692 C 0.82515 0.62812 0.00991 0.0
C4693 C 0.83748 0.62455 0.02202 0.0
C4694 C 0.85415 0.62977 0.01919 0.0
C4695 C 0.85837 0.63842 0.00445 0.0
H4696 H 0.60494 0.56971 0.23598 0.0
H4697 H 0.60267 0.62141 0.25222 0.0
H4698 H 0.62051 0.56229 0.26143 0.0
H4699 H 0.61808 0.61398 0.27798 0.0
H4700 H 0.6197 0.58223 0.32941 0.0
H4701 H 0.60957 0.59439 0.30312 0.0
H4702 H 0.64919 0.56905 0.27604 0.0
H4703 H 0.65951 0.55695 0.30238 0.0
C4704 C 0.60808 0.57951 0.24492 0.0
C4705 C 0.60321 0.59619 0.242 0.0
C4706 C 0.61701 0.5753 0.25941 0.0
C4707 C 0.62068 0.58762 0.27153 0.0
C4708 C 0.61553 0.6043 0.26874 0.0
C4709 C 0.60685 0.60857 0.25403 0.0
C4710 C 0.62645 0.57949 0.3179 0.0
C4711 C 0.64032 0.56851 0.31795 0.0
C4712 C 0.62071 0.58655 0.30289 0.0
C4713 C 0.62856 0.58256 0.28759 0.0
C4714 C 0.64289 0.57223 0.2877 0.0
C4715 C 0.64882 0.56539 0.30276 0.0
H4716 H 0.62451 0.35265 0.50243 0.0
H4717 H 0.67618 0.35505 0.48617 0.0
H4718 H 0.63194 0.36801 0.52825 0.0
H4719 H 0.68361 0.37057 0.51166 0.0
H4720 H 0.68885 0.40961 0.55265 0.0
H4721 H 0.67678 0.39925 0.52632 0.0
H4722 H 0.6516 0.35948 0.55336 0.0
H4723 H 0.66374 0.36964 0.57966 0.0
C4724 C 0.63735 0.35685 0.50426 0.0
C4725 C 0.64972 0.35326 0.49221 0.0
C4726 C 0.64161 0.36549 0.51899 0.0
C4727 C 0.65829 0.37067 0.52178 0.0
C4728 C 0.6706 0.36705 0.50964 0.0
C4729 C 0.6664 0.35816 0.49513 0.0
C4730 C 0.68046 0.39887 0.55304 0.0
C4731 C 0.67737 0.39034 0.56821 0.0
C4732 C 0.67362 0.39293 0.53797 0.0
C4733 C 0.66335 0.37854 0.53786 0.0
C4734 C 0.6594 0.37065 0.55314 0.0
C4735 C 0.66644 0.37642 0.56815 0.0
H4736 H 0.74245 0.89274 0.62136 0.0
H4737 H 0.75881 0.89052 0.56974 0.0
H4738 H 0.71665 0.87736 0.61385 0.0
H4739 H 0.73332 0.87499 0.56223 0.0
H4740 H 0.66525 0.87576 0.58208 0.0
H4741 H 0.69155 0.88589 0.59427 0.0
H4742 H 0.71864 0.84631 0.56888 0.0
H4743 H 0.69229 0.83599 0.55676 0.0
C4744 C 0.74065 0.88858 0.60851 0.0
C4745 C 0.75272 0.89222 0.59618 0.0
C4746 C 0.72592 0.87993 0.6042 0.0
C4747 C 0.72316 0.8748 0.58751 0.0
C4748 C 0.73532 0.87847 0.57525 0.0
C4749 C 0.74983 0.88737 0.5795 0.0
C4750 C 0.67676 0.86902 0.57934 0.0
C4751 C 0.67672 0.85516 0.56834 0.0
C4752 C 0.69178 0.87476 0.58641 0.0
C4753 C 0.70708 0.86692 0.58242 0.0
C4754 C 0.70698 0.8526 0.57207 0.0
C4755 C 0.69191 0.84667 0.5652 0.0
H4756 H 0.24236 0.60254 0.37451 0.0
H4757 H 0.25862 0.60499 0.42613 0.0
H4758 H 0.21661 0.61803 0.3819 0.0
H4759 H 0.23318 0.62063 0.43353 0.0
H4760 H 0.19224 0.65963 0.43886 0.0
H4761 H 0.21858 0.64926 0.42678 0.0
H4762 H 0.19144 0.60965 0.40145 0.0
H4763 H 0.16514 0.61984 0.41358 0.0
C4764 C 0.24055 0.60678 0.38733 0.0
C4765 C 0.25258 0.60316 0.3997 0.0
C4766 C 0.22585 0.6155 0.39157 0.0
C4767 C 0.22307 0.62071 0.40823 0.0
C4768 C 0.23519 0.61707 0.42053 0.0
C4769 C 0.24967 0.60811 0.41635 0.0
C4770 C 0.19184 0.64893 0.43043 0.0
C4771 C 0.17664 0.64045 0.4273 0.0
C4772 C 0.20691 0.64298 0.42359 0.0
C4773 C 0.207 0.62863 0.41328 0.0
C4774 C 0.19169 0.6208 0.40928 0.0
C4775 C 0.17667 0.62658 0.41632 0.0
H4776 H 0.58636 0.94251 0.68913 0.0
H4777 H 0.62639 0.9156 0.66406 0.0
H4778 H 0.59653 0.96887 0.6769 0.0
H4779 H 0.63637 0.94192 0.65176 0.0
H4780 H 0.64306 0.99272 0.62447 0.0
H4781 H 0.62774 0.96689 0.63203 0.0
H4782 H 0.62508 0.98377 0.68356 0.0
H4783 H 0.64056 0.00929 0.67601 0.0
C4784 C 0.59707 0.94215 0.68072 0.0
C4785 C 0.60567 0.927 0.67768 0.0
C4786 C 0.60291 0.95724 0.67379 0.0
C4787 C 0.61726 0.95739 0.66347 0.0
C4788 C 0.62521 0.94212 0.65959 0.0
C4789 C 0.61956 0.92709 0.66672 0.0
C4790 C 0.63884 0.99096 0.6373 0.0
C4791 C 0.6424 0.0031 0.6496 0.0
C4792 C 0.63022 0.97622 0.64164 0.0
C4793 C 0.62504 0.9735 0.65833 0.0
C4794 C 0.62861 0.98573 0.67055 0.0
C4795 C 0.63748 0.00026 0.66627 0.0
H4796 H 0.30302 0.33592 0.93841 0.0
H4797 H 0.33001 0.37581 0.91317 0.0
H4798 H 0.27665 0.34623 0.92637 0.0
H4799 H 0.30369 0.38593 0.90106 0.0
H4800 H 0.25271 0.3929 0.8742 0.0
H4801 H 0.2785 0.37746 0.88153 0.0
H4802 H 0.26204 0.37487 0.93321 0.0
H4803 H 0.23656 0.39047 0.92588 0.0
C4804 C 0.30339 0.34662 0.92999 0.0
C4805 C 0.31857 0.35515 0.92686 0.0
C4806 C 0.2883 0.35254 0.92318 0.0
C4807 C 0.28818 0.3669 0.91288 0.0
C4808 C 0.30347 0.37477 0.90888 0.0
C4809 C 0.31851 0.36903 0.9159 0.0
C4810 C 0.25455 0.38868 0.88702 0.0
C4811 C 0.24254 0.39228 0.89943 0.0
C4812 C 0.26927 0.37999 0.89122 0.0
C4813 C 0.27209 0.37479 0.90788 0.0
C4814 C 0.25999 0.37842 0.92022 0.0
C4815 C 0.24549 0.38735 0.91607 0.0
H4816 H 0.35242 0.50337 0.62414 0.0
H4817 H 0.35499 0.48709 0.67576 0.0
H4818 H 0.36782 0.5292 0.63152 0.0
H4819 H 0.37056 0.5126 0.68313 0.0
H4820 H 0.4095 0.55367 0.68833 0.0
H4821 H 0.39918 0.52731 0.67622 0.0
H4822 H 0.35935 0.55432 0.6512 0.0
H4823 H 0.36947 0.58064 0.66338 0.0
C4824 C 0.35666 0.50519 0.63695 0.0
C4825 C 0.35311 0.49314 0.64933 0.0
C4826 C 0.36533 0.51994 0.64118 0.0
C4827 C 0.37057 0.52273 0.65783 0.0
C4828 C 0.36699 0.51058 0.67014 0.0
C4829 C 0.35807 0.49606 0.66597 0.0
C4830 C 0.39876 0.55404 0.67996 0.0
C4831 C 0.39019 0.56921 0.67694 0.0
C4832 C 0.39284 0.53896 0.6731 0.0
C4833 C 0.37845 0.53883 0.66287 0.0
C4834 C 0.37053 0.55411 0.65897 0.0
C4835 C 0.37627 0.56914 0.66604 0.0
H4836 H 0.73673 0.10474 0.0686 0.0
H4837 H 0.75286 0.10231 0.12028 0.0
H4838 H 0.7622 0.12042 0.06129 0.0
H4839 H 0.77863 0.11783 0.11295 0.0
H4840 H 0.80306 0.15964 0.05624 0.0
H4841 H 0.77672 0.14916 0.06824 0.0
H4842 H 0.80385 0.10943 0.09332 0.0
H4843 H 0.83016 0.11972 0.08124 0.0
C4844 C 0.74566 0.10787 0.07842 0.0
C4845 C 0.7427 0.10292 0.09506 0.0
C4846 C 0.76015 0.11685 0.07427 0.0
C4847 C 0.77224 0.12051 0.08661 0.0
C4848 C 0.76941 0.11528 0.10326 0.0
C4849 C 0.7547 0.10655 0.10746 0.0
C4850 C 0.80346 0.14889 0.06459 0.0
C4851 C 0.81866 0.14041 0.06767 0.0
C4852 C 0.78839 0.14287 0.07139 0.0
C4853 C 0.7883 0.12847 0.08162 0.0
C4854 C 0.80361 0.12063 0.08556 0.0
C4855 C 0.81863 0.12646 0.07855 0.0
H4856 H 0.6419 0.0042 0.87041 0.0
H4857 H 0.64108 0.98772 0.81879 0.0
H4858 H 0.62715 0.03018 0.86237 0.0
H4859 H 0.62614 0.0134 0.81075 0.0
H4860 H 0.58675 0.05433 0.80486 0.0
H4861 H 0.59713 0.02801 0.81694 0.0
H4862 H 0.63633 0.05529 0.84273 0.0
H4863 H 0.62616 0.08159 0.83053 0.0
C4864 C 0.63821 0.00603 0.85743 0.0
C4865 C 0.64203 0.99386 0.84525 0.0
C4866 C 0.62991 0.02086 0.85282 0.0
C4867 C 0.62531 0.02363 0.83599 0.0
C4868 C 0.62923 0.0114 0.82386 0.0
C4869 C 0.63779 0.99679 0.82841 0.0
C4870 C 0.59737 0.05476 0.81336 0.0
C4871 C 0.60572 0.07001 0.81664 0.0
C4872 C 0.60334 0.0397 0.8202 0.0
C4873 C 0.61755 0.03967 0.83068 0.0
C4874 C 0.62529 0.05501 0.83476 0.0
C4875 C 0.61952 0.07002 0.8277 0.0
H4876 H 0.85207 0.9922 0.37034 0.0
H4877 H 0.85438 0.00852 0.31872 0.0
H4878 H 0.86743 0.96639 0.36286 0.0
H4879 H 0.8699 0.98303 0.31124 0.0
H4880 H 0.86917 0.91494 0.33114 0.0
H4881 H 0.85895 0.94124 0.34325 0.0
H4882 H 0.89858 0.96841 0.31797 0.0
H4883 H 0.90899 0.94207 0.30593 0.0
C4884 C 0.85624 0.99039 0.3575 0.0
C4885 C 0.85264 0.00245 0.34515 0.0
C4886 C 0.86488 0.97566 0.35321 0.0
C4887 C 0.87004 0.97288 0.33653 0.0
C4888 C 0.8664 0.98503 0.32425 0.0
C4889 C 0.8575 -0.00046 0.32848 0.0
C4890 C 0.8759 0.92648 0.3284 0.0
C4891 C 0.8898 0.92645 0.31746 0.0
C4892 C 0.87011 0.9415 0.33543 0.0
C4893 C 0.87794 0.95682 0.33145 0.0
C4894 C 0.89229 0.95674 0.32115 0.0
C4895 C 0.89827 0.94166 0.31433 0.0
H4896 H 0.43912 0.30332 0.15884 0.0
H4897 H 0.41416 0.33037 0.11888 0.0
H4898 H 0.42697 0.27698 0.14851 0.0
H4899 H 0.40194 0.30407 0.10874 0.0
H4900 H 0.37472 0.25314 0.10192 0.0
H4901 H 0.38219 0.27895 0.1173 0.0
H4902 H 0.43382 0.26231 0.11983 0.0
H4903 H 0.42636 0.23682 0.10429 0.0
C4904 C 0.43074 0.30371 0.14811 0.0
C4905 C 0.42772 0.3189 0.13957 0.0
C4906 C 0.42386 0.28864 0.14219 0.0
C4907 C 0.4136 0.28854 0.12781 0.0
C4908 C 0.40972 0.30383 0.11992 0.0
C4909 C 0.41681 0.31885 0.12566 0.0
C4910 C 0.38756 0.25495 0.10612 0.0
C4911 C 0.39991 0.24289 0.10251 0.0
C4912 C 0.39184 0.26968 0.11478 0.0
C4913 C 0.40852 0.27246 0.11994 0.0
C4914 C 0.42081 0.2603 0.11631 0.0
C4915 C 0.41658 0.24579 0.10741 0.0
H4916 H 0.41516 0.66367 0.86949 0.0
H4917 H 0.44233 0.68844 0.90951 0.0
H4918 H 0.44139 0.65136 0.85932 0.0
H4919 H 0.4686 0.67621 0.89915 0.0
H4920 H 0.50868 0.67568 0.85486 0.0
H4921 H 0.48325 0.68312 0.87051 0.0
H4922 H 0.46642 0.63152 0.86773 0.0
H4923 H 0.49217 0.62407 0.85224 0.0
C4924 C 0.42669 0.66626 0.87628 0.0
C4925 C 0.4267 0.67715 0.89022 0.0
C4926 C 0.44166 0.65912 0.87051 0.0
C4927 C 0.45697 0.66293 0.87841 0.0
C4928 C 0.45692 0.67315 0.89282 0.0
C4929 C 0.4419 0.68009 0.89877 0.0
C4930 C 0.49968 0.66591 0.85795 0.0
C4931 C 0.50251 0.64925 0.85295 0.0
C4932 C 0.48521 0.67012 0.86691 0.0
C4933 C 0.47302 0.65784 0.8705 0.0
C4934 C 0.47573 0.64117 0.86523 0.0
C4935 C 0.49042 0.63689 0.85652 0.0
H4936 H 0.0819 0.66571 0.61933 0.0
H4937 H 0.05685 0.69265 0.65934 0.0
H4938 H 0.09414 0.69203 0.60929 0.0
H4939 H 0.06903 0.71901 0.64911 0.0
H4940 H 0.06948 0.75917 0.60489 0.0
H4941 H 0.06214 0.73369 0.62051 0.0
H4942 H 0.11381 0.71719 0.61778 0.0
H4943 H 0.12115 0.743 0.60232 0.0
C4944 C 0.07924 0.6772 0.62615 0.0
C4945 C 0.06829 0.67712 0.64004 0.0
C4946 C 0.08634 0.69224 0.62045 0.0
C4947 C 0.08243 0.70751 0.62838 0.0
C4948 C 0.07215 0.70737 0.64275 0.0
C4949 C 0.06526 0.69228 0.64862 0.0
C4950 C 0.07929 0.75024 0.60799 0.0
C4951 C 0.09594 0.75318 0.60301 0.0
C4952 C 0.07513 0.73573 0.61694 0.0
C4953 C 0.08746 0.72362 0.62052 0.0
C4954 C 0.10412 0.72644 0.61529 0.0
C4955 C 0.10834 0.74116 0.60659 0.0
H4956 H 0.05272 0.30632 0.40937 0.0
H4957 H 0.08012 0.33128 0.3696 0.0
H4958 H 0.02648 0.31841 0.3988 0.0
H4959 H 0.05392 0.34345 0.35922 0.0
H4960 H 0.00303 0.37067 0.3521 0.0
H4961 H 0.02876 0.36319 0.36756 0.0
H4962 H 0.01203 0.31155 0.37005 0.0
H4963 H 0.98662 0.31902 0.35443 0.0
C4964 C 0.05321 0.31468 0.39863 0.0
C4965 C 0.06847 0.31773 0.39022 0.0
C4966 C 0.0382 0.32153 0.39256 0.0
C4967 C 0.03822 0.33178 0.37817 0.0
C4968 C 0.05359 0.33567 0.3704 0.0
C4969 C 0.06855 0.32861 0.37628 0.0
C4970 C 0.00481 0.35783 0.3563 0.0
C4971 C 0.99273 0.34548 0.35267 0.0
C4972 C 0.01949 0.35354 0.365 0.0
C4973 C 0.02222 0.33685 0.37019 0.0
C4974 C 0.01006 0.32456 0.36651 0.0
C4975 C 0.9956 0.32879 0.35756 0.0
H4976 H 0.37392 0.74216 0.3924 0.0
H4977 H 0.42554 0.75862 0.38999 0.0
H4978 H 0.38143 0.71635 0.37706 0.0
H4979 H 0.43304 0.73312 0.37449 0.0
H4980 H 0.43851 0.69204 0.33563 0.0
H4981 H 0.4263 0.71837 0.34588 0.0
H4982 H 0.40115 0.6913 0.38563 0.0
H4983 H 0.41343 0.66501 0.37558 0.0
C4984 C 0.38676 0.74038 0.3882 0.0
C4985 C 0.3991 0.75249 0.39178 0.0
C4986 C 0.39107 0.72565 0.37957 0.0
C4987 C 0.40776 0.72291 0.3744 0.0
C4988 C 0.42003 0.7351 0.37801 0.0
C4989 C 0.41578 0.74962 0.38689 0.0
C4990 C 0.4301 0.69165 0.34634 0.0
C4991 C 0.42706 0.67647 0.3549 0.0
C4992 C 0.42318 0.70671 0.35222 0.0
C4993 C 0.41287 0.70682 0.36657 0.0
C4994 C 0.40897 0.69153 0.37448 0.0
C4995 C 0.4161 0.67651 0.36878 0.0
H4996 H 0.98673 0.67621 0.14045 0.0
H4997 H 0.00308 0.62458 0.14301 0.0
H4998 H 0.01216 0.68363 0.12479 0.0
H4999 H 0.02884 0.632 0.12751 0.0
H5000 H 0.08021 0.66398 0.12551 0.0
H5001 H 0.05397 0.65178 0.13582 0.0
H5002 H 0.0267 0.67669 0.09611 0.0
H5003 H 0.05297 0.68882 0.08561 0.0
C5004 C 0.99569 0.66643 0.13736 0.0
C5005 C 0.99281 0.64977 0.14233 0.0
C5006 C 0.01017 0.67063 0.12838 0.0
C5007 C 0.02232 0.65833 0.12476 0.0
C5008 C 0.01957 0.64166 0.13003 0.0
C5009 C 0.00487 0.63741 0.13875 0.0
C5010 C 0.06867 0.66661 0.11878 0.0
C5011 C 0.06864 0.67748 0.10483 0.0
C5012 C 0.05368 0.65953 0.12463 0.0
C5013 C 0.03835 0.66339 0.1168 0.0
C5014 C 0.03838 0.6736 0.10239 0.0
C5015 C 0.05342 0.68047 0.09636 0.0
H5016 H 0.12096 0.25327 0.89256 0.0
H5017 H 0.06935 0.23678 0.89033 0.0
H5018 H 0.1134 0.27906 0.87722 0.0
H5019 H 0.0618 0.26225 0.87482 0.0
H5020 H 0.08133 0.33038 0.87573 0.0
H5021 H 0.09363 0.30412 0.88583 0.0
H5022 H 0.06853 0.27694 0.84613 0.0
H5023 H 0.05632 0.30324 0.83584 0.0
C5024 C 0.10811 0.25504 0.88841 0.0
C5025 C 0.09579 0.24293 0.89203 0.0
C5026 C 0.10377 0.26976 0.87977 0.0
C5027 C 0.08707 0.27248 0.87465 0.0
C5028 C 0.07482 0.26029 0.87831 0.0
C5029 C 0.0791 0.24579 0.88719 0.0
C5030 C 0.07868 0.31886 0.86896 0.0
C5031 C 0.06774 0.31886 0.85507 0.0
C5032 C 0.08581 0.30386 0.87468 0.0
C5033 C 0.08194 0.28855 0.8668 0.0
C5034 C 0.07164 0.28861 0.85245 0.0
C5035 C 0.06472 0.30366 0.84654 0.0
H5036 H 0.49207 0.3709 0.64284 0.0
H5037 H 0.50838 0.31925 0.64024 0.0
H5038 H 0.4662 0.36346 0.62757 0.0
H5039 H 0.48283 0.31182 0.6248 0.0
H5040 H 0.44179 0.30672 0.58581 0.0
H5041 H 0.46813 0.31879 0.59618 0.0
H5042 H 0.44109 0.34366 0.63611 0.0
H5043 H 0.41478 0.33151 0.62593 0.0
C5044 C 0.49024 0.35807 0.63862 0.0
C5045 C 0.50232 0.3457 0.64212 0.0
C5046 C 0.47548 0.3538 0.63003 0.0
C5047 C 0.47269 0.33713 0.62482 0.0
C5048 C 0.48485 0.32483 0.62836 0.0
C5049 C 0.49939 0.32903 0.6372 0.0
C5050 C 0.44141 0.31504 0.59659 0.0
C5051 C 0.42623 0.31804 0.60515 0.0
C5052 C 0.45648 0.32188 0.60254 0.0
C5053 C 0.4566 0.33207 0.61696 0.0
C5054 C 0.44131 0.33593 0.6249 0.0
C5055 C 0.42629 0.32888 0.61913 0.0
H5056 H 0.15917 0.43862 0.30397 0.0
H5057 H 0.11888 0.41365 0.33062 0.0
H5058 H 0.14901 0.42659 0.27754 0.0
H5059 H 0.10891 0.40155 0.30423 0.0
H5060 H 0.10506 0.42625 0.2371 0.0
H5061 H 0.12042 0.43358 0.26272 0.0
H5062 H 0.11765 0.38186 0.27911 0.0
H5063 H 0.10246 0.37452 0.25317 0.0
C5064 C 0.14841 0.43026 0.30426 0.0
C5065 C 0.13973 0.42721 0.31936 0.0
C5066 C 0.14257 0.42345 0.28913 0.0
C5067 C 0.12815 0.41323 0.28889 0.0
C5068 C 0.12012 0.40931 0.30411 0.0
C5069 C 0.12577 0.41633 0.31918 0.0
C5070 C 0.10809 0.41643 0.24605 0.0
C5071 C 0.10319 0.39977 0.24303 0.0
C5072 C 0.11689 0.42058 0.26063 0.0
C5073 C 0.12039 0.40823 0.27275 0.0
C5074 C 0.11521 0.39156 0.26986 0.0
C5075 C 0.10667 0.38735 0.25506 0.0
H5076 H 0.31904 0.35505 0.9863 0.0
H5077 H 0.37074 0.35273 0.0024 0.0
H5078 H 0.31169 0.37067 0.01176 0.0
H5079 H 0.36339 0.3682 0.02817 0.0
H5080 H 0.3318 0.36998 0.07969 0.0
H5081 H 0.34387 0.35977 0.05338 0.0
H5082 H 0.3185 0.39936 0.02632 0.0
H5083 H 0.3065 0.40976 0.05268 0.0
C5084 C 0.32885 0.3582 0.99521 0.0
C5085 C 0.34551 0.35329 0.99225 0.0
C5086 C 0.32469 0.36715 0.00971 0.0
C5087 C 0.33703 0.37082 0.02179 0.0
C5088 C 0.3537 0.36564 0.01896 0.0
C5089 C 0.35791 0.35693 0.00425 0.0
C5090 C 0.32904 0.37671 0.06818 0.0
C5091 C 0.31808 0.39059 0.06824 0.0
C5092 C 0.33604 0.37092 0.05315 0.0
C5093 C 0.33202 0.37874 0.03786 0.0
C5094 C 0.32171 0.39309 0.03797 0.0
C5095 C 0.31492 0.39906 0.05305 0.0
H5096 H 0.33586 0.55653 0.80277 0.0
H5097 H 0.3757 0.58175 0.82983 0.0
H5098 H 0.3462 0.56868 0.77646 0.0
H5099 H 0.38585 0.59396 0.80356 0.0
H5100 H 0.39278 0.62109 0.7527 0.0
H5101 H 0.37737 0.6136 0.77847 0.0
H5102 H 0.37485 0.56195 0.7618 0.0
H5103 H 0.39042 0.56944 0.73633 0.0
C5104 C 0.34656 0.56496 0.80317 0.0
C5105 C 0.35506 0.56806 0.81835 0.0
C5106 C 0.3525 0.57184 0.78811 0.0
C5107 C 0.36685 0.58216 0.78802 0.0
C5108 C 0.3747 0.58612 0.80331 0.0
C5109 C 0.36895 0.57904 0.81832 0.0
C5110 C 0.38858 0.60825 0.75449 0.0
C5111 C 0.39219 0.5959 0.74242 0.0
C5112 C 0.37991 0.60395 0.7692 0.0
C5113 C 0.37474 0.58726 0.77196 0.0
C5114 C 0.37838 0.57497 0.7598 0.0
C5115 C 0.38729 0.57921 0.74531 0.0
H5116 H 0.18862 0.58584 0.55295 0.0
H5117 H 0.1634 0.62565 0.58004 0.0
H5118 H 0.17657 0.59623 0.52663 0.0
H5119 H 0.15128 0.63585 0.55377 0.0
H5120 H 0.12439 0.64297 0.50283 0.0
H5121 H 0.13172 0.62747 0.52858 0.0
H5122 H 0.18342 0.62492 0.51209 0.0
H5123 H 0.17608 0.64057 0.48665 0.0
C5124 C 0.18021 0.59655 0.55336 0.0
C5125 C 0.17709 0.60503 0.56855 0.0
C5126 C 0.17338 0.60251 0.5383 0.0
C5127 C 0.16309 0.61687 0.53821 0.0
C5128 C 0.1591 0.6247 0.55351 0.0
C5129 C 0.16613 0.61891 0.56852 0.0
C5130 C 0.13721 0.63875 0.50466 0.0
C5131 C 0.14962 0.64237 0.49265 0.0
C5132 C 0.14142 0.63002 0.51935 0.0
C5133 C 0.15808 0.62481 0.52216 0.0
C5134 C 0.17042 0.62847 0.51006 0.0
C5135 C 0.16627 0.63744 0.49558 0.0
H5136 H 0.10281 0.62086 0.24232 0.0
H5137 H 0.10506 0.5691 0.25835 0.0
H5138 H 0.11815 0.61351 0.21648 0.0
H5139 H 0.12057 0.56176 0.23281 0.0
H5140 H 0.15956 0.55664 0.19174 0.0
H5141 H 0.14927 0.56864 0.21815 0.0
H5142 H 0.10951 0.59394 0.19128 0.0
H5143 H 0.1196 0.58186 0.16492 0.0
C5144 C 0.10697 0.60802 0.24044 0.0
C5145 C 0.10334 0.5956 0.25243 0.0
C5146 C 0.1156 0.6038 0.22569 0.0
C5147 C 0.12073 0.58712 0.22281 0.0
C5148 C 0.11708 0.57477 0.23489 0.0
C5149 C 0.10819 0.57892 0.24943 0.0
C5150 C 0.14884 0.56505 0.19141 0.0
C5151 C 0.14029 0.56819 0.17627 0.0
C5152 C 0.14294 0.57184 0.20652 0.0
C5153 C 0.12858 0.58212 0.2067 0.0
C5154 C 0.12068 0.58613 0.19145 0.0
C5155 C 0.1264 0.57912 0.1764 0.0
H5156 H 0.17626 0.355 0.00849 0.0
H5157 H 0.12456 0.35244 0.99239 0.0
H5158 H 0.18357 0.37059 0.983 0.0
H5159 H 0.13187 0.36788 0.96659 0.0
H5160 H 0.16351 0.36961 0.91507 0.0
H5161 H 0.15143 0.35945 0.9414 0.0
H5162 H 0.17669 0.39921 0.96837 0.0
H5163 H 0.18871 0.40956 0.942 0.0
C5164 C 0.16644 0.35809 -0.00043 0.0
C5165 C 0.14979 0.35313 0.00254 0.0
C5166 C 0.17058 0.36702 0.98506 0.0
C5167 C 0.15823 0.37062 0.97297 0.0
C5168 C 0.14157 0.36538 0.97581 0.0
C5169 C 0.13737 0.35669 0.99054 0.0
C5170 C 0.16624 0.37639 0.92657 0.0
C5171 C 0.17718 0.39031 0.92648 0.0
C5172 C 0.15923 0.37063 0.94161 0.0
C5173 C 0.16323 0.37851 0.95688 0.0
C5174 C 0.17351 0.39289 0.95674 0.0
C5175 C 0.18031 0.39883 0.94165 0.0
H5176 H 0.3759 0.41407 0.66465 0.0
H5177 H 0.33602 0.43913 0.69179 0.0
H5178 H 0.38608 0.40187 0.6909 0.0
H5179 H 0.3464 0.42699 0.71808 0.0
H5180 H 0.39059 0.42629 0.75817 0.0
H5181 H 0.37506 0.43378 0.73271 0.0
H5182 H 0.37761 0.38215 0.71598 0.0
H5183 H 0.39299 0.37466 0.74175 0.0
C5184 C 0.36915 0.41675 0.67618 0.0
C5185 C 0.35524 0.42768 0.67617 0.0
C5186 C 0.37492 0.40967 0.69117 0.0
C5187 C 0.36707 0.41358 0.70648 0.0
C5188 C 0.3527 0.42386 0.70641 0.0
C5189 C 0.34674 0.43074 0.69137 0.0
C5190 C 0.38748 0.41652 0.74918 0.0
C5191 C 0.39238 0.39984 0.75205 0.0
C5192 C 0.37858 0.42076 0.73469 0.0
C5193 C 0.37496 0.40849 0.72252 0.0
C5194 C 0.38014 0.3918 0.72526 0.0
C5195 C 0.38879 0.3875 0.73997 0.0
H5196 H 0.37071 0.64298 0.49225 0.0
H5197 H 0.31903 0.64039 0.50846 0.0
H5198 H 0.36338 0.62751 0.46647 0.0
H5199 H 0.3117 0.62477 0.48299 0.0
H5200 H 0.30654 0.58578 0.44202 0.0
H5201 H 0.3186 0.59614 0.46836 0.0
H5202 H 0.34377 0.63592 0.44133 0.0
H5203 H 0.33165 0.62576 0.41503 0.0
C5204 C 0.3579 0.63872 0.49043 0.0
C5205 C 0.34549 0.64229 0.50245 0.0
C5206 C 0.35369 0.63001 0.47571 0.0
C5207 C 0.33703 0.62476 0.47291 0.0
C5208 C 0.3247 0.62835 0.48502 0.0
C5209 C 0.32884 0.63731 0.49952 0.0
C5210 C 0.31493 0.59652 0.44164 0.0
C5211 C 0.31801 0.60505 0.42647 0.0
C5212 C 0.32176 0.60246 0.45671 0.0
C5213 C 0.33202 0.61685 0.45683 0.0
C5214 C 0.33598 0.62474 0.44155 0.0
C5215 C 0.32894 0.61898 0.42653 0.0
H5216 H 0.331 0.12029 0.41274 0.0
H5217 H 0.30394 0.16032 0.43763 0.0
H5218 H 0.30475 0.11022 0.40039 0.0
H5219 H 0.27765 0.15006 0.42535 0.0
H5220 H 0.23747 0.10582 0.42466 0.0
H5221 H 0.26293 0.12138 0.43215 0.0
H5222 H 0.27972 0.1188 0.38058 0.0
H5223 H 0.25392 0.1034 0.37308 0.0
C5224 C 0.3195 0.1271 0.41535 0.0
C5225 C 0.31952 0.14101 0.42628 0.0
C5226 C 0.30451 0.1214 0.40818 0.0
C5227 C 0.28922 0.12933 0.41201 0.0
C5228 C 0.2893 0.14371 0.42228 0.0
C5229 C 0.30435 0.14959 0.42924 0.0
C5230 C 0.24646 0.10894 0.41491 0.0
C5231 C 0.2436 0.10402 0.39824 0.0
C5232 C 0.26096 0.11785 0.41915 0.0
C5233 C 0.27315 0.12147 0.40689 0.0
C5234 C 0.27042 0.11629 0.39021 0.0
C5235 C 0.2557 0.10762 0.38591 0.0
H5236 H 0.83025 0.37628 0.58113 0.0
H5237 H 0.8033 0.33624 0.55609 0.0
H5238 H 0.80392 0.38637 0.59329 0.0
H5239 H 0.77694 0.34651 0.56818 0.0
H5240 H 0.75295 0.3932 0.62032 0.0
H5241 H 0.77879 0.37784 0.61294 0.0
H5242 H 0.76224 0.37512 0.56132 0.0
H5243 H 0.73672 0.39064 0.56869 0.0
C5244 C 0.81875 0.36947 0.57845 0.0
C5245 C 0.81883 0.35555 0.56753 0.0
C5246 C 0.80372 0.37519 0.58551 0.0
C5247 C 0.78844 0.36726 0.58158 0.0
C5248 C 0.78858 0.35287 0.57132 0.0
C5249 C 0.80367 0.34697 0.56447 0.0
C5250 C 0.75479 0.38897 0.60751 0.0
C5251 C 0.74274 0.39251 0.59513 0.0
C5252 C 0.76953 0.38032 0.60327 0.0
C5253 C 0.77234 0.37511 0.58661 0.0
C5254 C 0.76021 0.37868 0.57431 0.0
C5255 C 0.74568 0.38757 0.57848 0.0
H5256 H 0.35248 0.00302 0.37019 0.0
H5257 H 0.35514 0.9868 0.31855 0.0
H5258 H 0.36792 0.02884 0.36288 0.0
H5259 H 0.37074 0.01231 0.31124 0.0
H5260 H 0.40969 0.05337 0.30614 0.0
H5261 H 0.39936 0.027 0.3182 0.0
H5262 H 0.35948 0.05399 0.34322 0.0
H5263 H 0.36963 0.08032 0.33109 0.0
C5264 C 0.35675 0.00485 0.35739 0.0
C5265 C 0.35321 0.99281 0.34499 0.0
C5266 C 0.36544 0.01959 0.35319 0.0
C5267 C 0.37071 0.0224 0.33655 0.0
C5268 C 0.36715 0.01027 0.32422 0.0
C5269 C 0.35821 0.99575 0.32836 0.0
C5270 C 0.39894 0.05373 0.31449 0.0
C5271 C 0.39037 0.0689 0.31753 0.0
C5272 C 0.39301 0.03865 0.32133 0.0
C5273 C 0.37859 0.03851 0.33155 0.0
C5274 C 0.37068 0.05379 0.33546 0.0
C5275 C 0.37643 0.06883 0.32842 0.0
H5276 H 0.69251 0.65946 0.05608 0.0
H5277 H 0.66536 0.61946 0.08099 0.0
H5278 H 0.71881 0.64907 0.06819 0.0
H5279 H 0.69163 0.60926 0.09318 0.0
H5280 H 0.7589 0.60482 0.06879 0.0
H5281 H 0.73341 0.62033 0.06132 0.0
H5282 H 0.71675 0.61785 0.11294 0.0
H5283 H 0.74256 0.60251 0.12041 0.0
C5284 C 0.69209 0.64871 0.06444 0.0
C5285 C 0.67688 0.64018 0.06746 0.0
C5286 C 0.70714 0.64275 0.0713 0.0
C5287 C 0.7072 0.62835 0.08153 0.0
C5288 C 0.69189 0.62045 0.08541 0.0
C5289 C 0.67689 0.62623 0.07834 0.0
C5290 C 0.74992 0.60794 0.07856 0.0
C5291 C 0.75283 0.60308 0.09523 0.0
C5292 C 0.73542 0.61683 0.07433 0.0
C5293 C 0.72326 0.62046 0.08661 0.0
C5294 C 0.72603 0.61531 0.10329 0.0
C5295 C 0.74076 0.60668 0.10758 0.0
H5296 H 0.64048 0.50901 0.31834 0.0
H5297 H 0.64282 0.49283 0.37 0.0
H5298 H 0.62489 0.48351 0.31097 0.0
H5299 H 0.62739 0.46701 0.36262 0.0
H5300 H 0.62562 0.41549 0.33094 0.0
H5301 H 0.63585 0.44182 0.34302 0.0
H5302 H 0.59618 0.46891 0.31783 0.0
H5303 H 0.58576 0.44255 0.30582 0.0
C5304 C 0.63735 0.50006 0.32814 0.0
C5305 C 0.64225 0.50301 0.34479 0.0
C5306 C 0.62842 0.48555 0.32396 0.0
C5307 C 0.62476 0.47343 0.33628 0.0
C5308 C 0.62994 0.47625 0.35294 0.0
C5309 C 0.63863 0.49099 0.35718 0.0
C5310 C 0.61888 0.42702 0.32822 0.0
C5311 C 0.60496 0.42697 0.31731 0.0
C5312 C 0.62468 0.44205 0.33523 0.0
C5313 C 0.61684 0.45735 0.33126 0.0
C5314 C 0.60247 0.45725 0.321 0.0
C5315 C 0.59648 0.44216 0.3142 0.0
H5316 H 0.19097 0.83557 0.93799 0.0
H5317 H 0.16489 0.87637 0.91337 0.0
H5318 H 0.21753 0.84528 0.92574 0.0
H5319 H 0.19136 0.88587 0.90101 0.0
H5320 H 0.24219 0.89206 0.87386 0.0
H5321 H 0.21629 0.87674 0.88115 0.0
H5322 H 0.23272 0.87385 0.9328 0.0
H5323 H 0.2583 0.88936 0.92553 0.0
C5324 C 0.19084 0.84633 0.92964 0.0
C5325 C 0.17589 0.85531 0.92676 0.0
C5326 C 0.20602 0.8519 0.9227 0.0
C5327 C 0.20644 0.86634 0.91251 0.0
C5328 C 0.19134 0.87464 0.90873 0.0
C5329 C 0.17623 0.86926 0.9159 0.0
C5330 C 0.24033 0.88778 0.88666 0.0
C5331 C 0.25234 0.89131 0.89908 0.0
C5332 C 0.22555 0.87915 0.89084 0.0
C5333 C 0.22267 0.87392 0.90748 0.0
C5334 C 0.23481 0.87741 0.91982 0.0
C5335 C 0.24937 0.8863 0.9157 0.0
H5336 H 0.36989 0.91507 0.16319 0.0
H5337 H 0.40971 0.94217 0.18838 0.0
H5338 H 0.35972 0.94137 0.15106 0.0
H5339 H 0.39935 0.96851 0.17632 0.0
H5340 H 0.35511 0.00858 0.17574 0.0
H5341 H 0.3707 0.98311 0.18312 0.0
H5342 H 0.36816 0.96655 0.13148 0.0
H5343 H 0.35272 0.99233 0.12409 0.0
C5344 C 0.37664 0.92659 0.16591 0.0
C5345 C 0.39052 0.92656 0.17686 0.0
C5346 C 0.37087 0.94162 0.15887 0.0
C5347 C 0.37871 0.95693 0.16285 0.0
C5348 C 0.39306 0.95684 0.17314 0.0
C5349 C 0.39901 0.94177 0.17998 0.0
C5350 C 0.35823 -0.00037 0.16595 0.0
C5351 C 0.35332 0.00255 0.14929 0.0
C5352 C 0.36716 0.98513 0.17013 0.0
C5353 C 0.37081 0.973 0.15782 0.0
C5354 C 0.36562 0.9758 0.14115 0.0
C5355 C 0.35693 0.99051 0.13691 0.0
H5356 H 0.08525 0.05567 0.68799 0.0
H5357 H 0.12616 0.08197 0.66368 0.0
H5358 H 0.09485 0.02924 0.67541 0.0
H5359 H 0.13554 0.05562 0.65099 0.0
H5360 H 0.1414 0.00504 0.62319 0.0
H5361 H 0.12623 0.03093 0.63081 0.0
H5362 H 0.12342 0.01393 0.68229 0.0
H5363 H 0.13879 0.98839 0.6747 0.0
C5364 C 0.09601 0.05589 0.67964 0.0
C5365 C 0.10505 0.07085 0.67694 0.0
C5366 C 0.10152 0.04077 0.67251 0.0
C5367 C 0.11595 0.04045 0.66231 0.0
C5368 C 0.12431 0.05557 0.65872 0.0
C5369 C 0.119 0.07061 0.66608 0.0
C5370 C 0.13717 0.00678 0.63602 0.0
C5371 C 0.14068 0.99462 0.64831 0.0
C5372 C 0.12863 0.02155 0.64039 0.0
C5373 C 0.12346 0.02426 0.65708 0.0
C5374 C 0.12694 0.01198 0.66928 0.0
C5375 C 0.13575 0.99744 0.66498 0.0
H5376 H 0.09375 0.12847 0.32218 0.0
H5377 H 0.07359 0.08514 0.34781 0.0
H5378 H 0.12189 0.11744 0.32522 0.0
H5379 H 0.10168 0.07301 0.34953 0.0
H5380 H 0.15235 0.07345 0.3772 0.0
H5381 H 0.12426 0.07643 0.36603 0.0
H5382 H 0.14461 0.10113 0.3219 0.0
H5383 H 0.17263 0.09946 0.33419 0.0
C5384 C 0.09534 0.11616 0.32781 0.0
C5385 C 0.08159 0.10774 0.33494 0.0
C5386 C 0.11156 0.10969 0.32952 0.0
C5387 C 0.11438 0.09437 0.33801 0.0
C5388 C 0.10026 0.08514 0.34353 0.0
C5389 C 0.08408 0.09194 0.34235 0.0
C5390 C 0.1508 0.07917 0.36493 0.0
C5391 C 0.16456 0.08641 0.35664 0.0
C5392 C 0.1346 0.08083 0.35838 0.0
C5393 C 0.13184 0.0894 0.34309 0.0
C5394 C 0.14599 0.09506 0.334 0.0
C5395 C 0.16213 0.09392 0.34088 0.0
H5396 H 0.11637 0.84443 0.57227 0.0
H5397 H 0.15981 0.82454 0.59783 0.0
H5398 H 0.12725 0.87265 0.57534 0.0
H5399 H 0.17179 0.85272 0.59957 0.0
H5400 H 0.17128 0.90344 0.62716 0.0
H5401 H 0.16833 0.87531 0.61604 0.0
H5402 H 0.14345 0.89548 0.57198 0.0
H5403 H 0.14508 0.92354 0.58421 0.0
C5404 C 0.12867 0.8461 0.57789 0.0
C5405 C 0.13717 0.8324 0.58499 0.0
C5406 C 0.13506 0.86237 0.57962 0.0
C5407 C 0.15037 0.86529 0.58809 0.0
C5408 C 0.15967 0.85122 0.59359 0.0
C5409 C 0.15296 0.83499 0.59239 0.0
C5410 C 0.16553 0.90185 0.61492 0.0
C5411 C 0.15823 0.91557 0.60662 0.0
C5412 C 0.16388 0.88562 0.60839 0.0
C5413 C 0.15528 0.88279 0.59314 0.0
C5414 C 0.14954 0.8969 0.58405 0.0
C5415 C 0.15067 0.91307 0.5909 0.0
H5416 H 0.34352 0.92224 0.87848 0.0
H5417 H 0.32353 0.89656 0.83514 0.0
H5418 H 0.3717 0.91918 0.86753 0.0
H5419 H 0.35166 0.89483 0.82309 0.0
H5420 H 0.40239 0.86728 0.82348 0.0
H5421 H 0.37427 0.87839 0.82648 0.0
H5422 H 0.39448 0.92254 0.8513 0.0
H5423 H 0.42253 0.91032 0.84961 0.0
C5424 C 0.34515 0.9166 0.86618 0.0
C5425 C 0.33144 0.90947 0.85773 0.0
C5426 C 0.36141 0.91488 0.85976 0.0
C5427 C 0.36429 0.90637 0.84446 0.0
C5428 C 0.35019 0.90084 0.83521 0.0
C5429 C 0.33399 0.90203 0.84195 0.0
C5430 C 0.40081 0.87955 0.82923 0.0
C5431 C 0.41454 0.88786 0.83649 0.0
C5432 C 0.38459 0.88606 0.83091 0.0
C5433 C 0.38177 0.90133 0.83951 0.0
C5434 C 0.3959 0.91045 0.8452 0.0
C5435 C 0.41206 0.90361 0.84404 0.0
H5436 H 0.33534 0.17229 0.09797 0.0
H5437 H 0.37836 0.15164 0.07226 0.0
H5438 H 0.32293 0.14432 0.09989 0.0
H5439 H 0.36705 0.1236 0.07549 0.0
H5440 H 0.32295 0.09374 0.12779 0.0
H5441 H 0.32614 0.12176 0.11646 0.0
H5442 H 0.35049 0.101 0.07233 0.0
H5443 H 0.34861 0.07305 0.08477 0.0
C5444 C 0.34201 0.16172 0.09254 0.0
C5445 C 0.3578 0.16404 0.08505 0.0
C5446 C 0.33505 0.14561 0.09383 0.0
C5447 C 0.3441 0.13137 0.08834 0.0
C5448 C 0.35942 0.13401 0.07977 0.0
C5449 C 0.36606 0.15018 0.07795 0.0
C5450 C 0.32862 0.09518 0.11548 0.0
C5451 C 0.33572 0.08132 0.10723 0.0
C5452 C 0.33042 0.11134 0.10884 0.0
C5453 C 0.33896 0.11397 0.0935 0.0
C5454 C 0.34445 0.09973 0.08446 0.0
C5455 C 0.34318 0.08362 0.09143 0.0
H5456 H 0.17219 0.89664 0.16014 0.0
H5457 H 0.1518 0.92219 0.11694 0.0
H5458 H 0.14417 0.89488 0.17245 0.0
H5459 H 0.12371 0.91911 0.12815 0.0
H5460 H 0.07307 0.91019 0.14651 0.0
H5461 H 0.1011 0.92248 0.14463 0.0
H5462 H 0.12155 0.87838 0.16926 0.0
H5463 H 0.09346 0.86719 0.17245 0.0
C5464 C 0.16166 0.90207 0.15341 0.0
C5465 C 0.16407 0.90947 0.1376 0.0
C5466 C 0.14553 0.90086 0.16031 0.0
C5467 C 0.13134 0.90636 0.15118 0.0
C5468 C 0.13408 0.91483 0.13583 0.0
C5469 C 0.15027 0.91656 0.12925 0.0
C5470 C 0.0836 0.9035 0.152 0.0
C5471 C 0.08119 0.88774 0.15954 0.0
C5472 C 0.09974 0.91039 0.15072 0.0
C5473 C 0.11392 0.9013 0.1563 0.0
C5474 C 0.11118 0.88602 0.16491 0.0
C5475 C 0.09499 0.87946 0.16671 0.0
H5476 H 0.37748 0.84366 0.42206 0.0
H5477 H 0.33454 0.82306 0.39617 0.0
H5478 H 0.36625 0.87171 0.41881 0.0
H5479 H 0.3222 0.85105 0.39422 0.0
H5480 H 0.34804 0.92228 0.40945 0.0
H5481 H 0.34974 0.89433 0.4219 0.0
H5482 H 0.32556 0.8736 0.37768 0.0
H5483 H 0.32253 0.90163 0.36632 0.0
C5484 C 0.36521 0.84513 0.41632 0.0
C5485 C 0.35696 0.83129 0.40918 0.0
C5486 C 0.35862 0.86131 0.41449 0.0
C5487 C 0.34335 0.86397 0.40586 0.0
C5488 C 0.33429 0.84975 0.40033 0.0
C5489 C 0.3412 0.83362 0.40163 0.0
C5490 C 0.34261 0.91171 0.40276 0.0
C5491 C 0.33523 0.91402 0.38693 0.0
C5492 C 0.34378 0.89561 0.40975 0.0
C5493 C 0.33829 0.88137 0.40068 0.0
C5494 C 0.32983 0.88402 0.38531 0.0
C5495 C 0.32813 0.90018 0.37865 0.0
H5496 H 0.42213 0.08528 0.64596 0.0
H5497 H 0.40156 0.12816 0.67198 0.0
H5498 H 0.39414 0.07294 0.64395 0.0
H5499 H 0.37351 0.11694 0.66866 0.0
H5500 H 0.34362 0.07336 0.61597 0.0
H5501 H 0.37162 0.07635 0.62738 0.0
H5502 H 0.35087 0.10042 0.67166 0.0
H5503 H 0.32294 0.09876 0.65916 0.0
C5504 C 0.41157 0.09193 0.65144 0.0
C5505 C 0.41392 0.10767 0.65904 0.0
C5506 C 0.39545 0.08501 0.6501 0.0
C5507 C 0.38123 0.09406 0.65565 0.0
C5508 C 0.38391 0.10932 0.66433 0.0
C5509 C 0.40008 0.1159 0.6662 0.0
C5510 C 0.34506 0.07893 0.62833 0.0
C5511 C 0.33122 0.08601 0.63661 0.0
C5512 C 0.36121 0.08061 0.63501 0.0
C5513 C 0.36384 0.08902 0.65042 0.0
C5514 C 0.3496 0.09449 0.65949 0.0
C5515 C 0.33351 0.09334 0.65247 0.0
H5516 H 0.14651 0.07296 0.91011 0.0
H5517 H 0.17195 0.09325 0.86675 0.0
H5518 H 0.14483 0.10102 0.92233 0.0
H5519 H 0.16893 0.12137 0.87788 0.0
H5520 H 0.16015 0.17209 0.89614 0.0
H5521 H 0.17237 0.14405 0.89424 0.0
H5522 H 0.12837 0.12365 0.91917 0.0
H5523 H 0.11726 0.15176 0.92237 0.0
C5524 C 0.15194 0.08347 0.90332 0.0
C5525 C 0.15929 0.08103 0.88749 0.0
C5526 C 0.15077 0.09964 0.91018 0.0
C5527 C 0.15626 0.1138 0.90098 0.0
C5528 C 0.16467 0.11102 0.88561 0.0
C5529 C 0.16636 0.0948 0.87908 0.0
C5530 C 0.15347 0.16158 0.90169 0.0
C5531 C 0.13776 0.164 0.90933 0.0
C5532 C 0.16032 0.14542 0.90041 0.0
C5533 C 0.15124 0.13125 0.90607 0.0
C5534 C 0.13601 0.13401 0.91476 0.0
C5535 C 0.1295 0.15022 0.91656 0.0
H5536 H 0.09919 0.33535 0.17242 0.0
H5537 H 0.0732 0.37817 0.15173 0.0
H5538 H 0.10108 0.32287 0.1445 0.0
H5539 H 0.0764 0.3668 0.12374 0.0
H5540 H 0.08546 0.34818 0.07327 0.0
H5541 H 0.07317 0.35011 0.10127 0.0
H5542 H 0.11753 0.32607 0.12184 0.0
H5543 H 0.12872 0.32281 0.09378 0.0
C5544 C 0.0937 0.34196 0.16185 0.0
C5545 C 0.08613 0.35772 0.16414 0.0
C5546 C 0.09498 0.33496 0.14577 0.0
C5547 C 0.08938 0.34394 0.13153 0.0
C5548 C 0.08076 0.35923 0.13415 0.0
C5549 C 0.07896 0.3659 0.15029 0.0
C5550 C 0.0922 0.34283 0.08382 0.0
C5551 C 0.10803 0.33543 0.08145 0.0
C5552 C 0.08532 0.34413 0.09994 0.0
C5553 C 0.09447 0.33875 0.11415 0.0
C5554 C 0.10983 0.33027 0.11146 0.0
C5555 C 0.11639 0.32843 0.09528 0.0
H5556 H 0.62808 0.17287 0.90133 0.0
H5557 H 0.58513 0.14677 0.9217 0.0
H5558 H 0.6168 0.16992 0.87329 0.0
H5559 H 0.57274 0.14512 0.89373 0.0
H5560 H 0.5984 0.16121 0.82269 0.0
H5561 H 0.60023 0.17331 0.85078 0.0
H5562 H 0.57601 0.12883 0.87098 0.0
H5563 H 0.57286 0.11782 0.84285 0.0
C5564 C 0.6158 0.16715 0.89982 0.0
C5565 C 0.60756 0.15987 0.91359 0.0
C5566 C 0.60918 0.16549 0.88365 0.0
C5567 C 0.59389 0.1569 0.88091 0.0
C5568 C 0.58484 0.15121 0.89508 0.0
C5569 C 0.59179 0.15234 0.91119 0.0
C5570 C 0.59299 0.15439 0.83318 0.0
C5571 C 0.58557 0.13858 0.83069 0.0
C5572 C 0.59423 0.16118 0.84936 0.0
C5573 C 0.58876 0.15193 0.86348 0.0
C5574 C 0.58027 0.13659 0.86066 0.0
C5575 C 0.5785 0.13014 0.84444 0.0
H5576 H 0.92229 0.87861 0.34351 0.0
H5577 H 0.89681 0.83521 0.3233 0.0
H5578 H 0.91905 0.8676 0.37164 0.0
H5579 H 0.8949 0.82311 0.35137 0.0
H5580 H 0.90986 0.84956 0.42235 0.0
H5581 H 0.92227 0.85131 0.39439 0.0
H5582 H 0.87828 0.82648 0.37387 0.0
H5583 H 0.86698 0.82343 0.4019 0.0
C5584 C 0.91665 0.86629 0.34509 0.0
C5585 C 0.90962 0.85784 0.33132 0.0
C5586 C 0.91483 0.85984 0.36131 0.0
C5587 C 0.90633 0.8445 0.36411 0.0
C5588 C 0.9009 0.83525 0.34997 0.0
C5589 C 0.9022 0.84203 0.3338 0.0
C5590 C 0.90322 0.84401 0.41182 0.0
C5591 C 0.88747 0.83644 0.4142 0.0
C5592 C 0.91018 0.8452 0.39572 0.0
C5593 C 0.90117 0.83952 0.38153 0.0
C5594 C 0.88588 0.8309 0.38424 0.0
C5595 C 0.87925 0.82919 0.4004 0.0
H5596 H 0.92236 0.11712 0.15134 0.0
H5597 H 0.8968 0.16019 0.17207 0.0
H5598 H 0.91917 0.12847 0.12334 0.0
H5599 H 0.89492 0.17264 0.14414 0.0
H5600 H 0.90998 0.14703 0.07287 0.0
H5601 H 0.92239 0.14506 0.1008 0.0
H5602 H 0.87833 0.16949 0.12161 0.0
H5603 H 0.86702 0.17278 0.09362 0.0
C5604 C 0.91671 0.12944 0.14991 0.0
C5605 C 0.90965 0.1377 0.16377 0.0
C5606 C 0.91491 0.1361 0.13377 0.0
C5607 C 0.9064 0.15145 0.13116 0.0
C5608 C 0.90094 0.1605 0.1454 0.0
C5609 C 0.90221 0.15352 0.16149 0.0
C5610 C 0.90333 0.15246 0.08346 0.0
C5611 C 0.88755 0.15997 0.08118 0.0
C5612 C 0.91029 0.15113 0.09954 0.0
C5613 C 0.90125 0.15662 0.11379 0.0
C5614 C 0.88594 0.16521 0.11119 0.0
C5615 C 0.87931 0.16706 0.09505 0.0
H5616 H 0.42257 0.61771 0.65136 0.0
H5617 H 0.39666 0.6606 0.67204 0.0
H5618 H 0.41933 0.62902 0.62336 0.0
H5619 H 0.39474 0.67302 0.64411 0.0
H5620 H 0.40999 0.64739 0.57288 0.0
H5621 H 0.42244 0.64561 0.60081 0.0
H5622 H 0.37818 0.66973 0.62157 0.0
H5623 H 0.36683 0.67284 0.59357 0.0
C5624 C 0.41683 0.62999 0.64992 0.0
C5625 C 0.40969 0.6382 0.66377 0.0
C5626 C 0.41501 0.63662 0.63377 0.0
C5627 C 0.40638 0.65191 0.63115 0.0
C5628 C 0.40084 0.66093 0.64538 0.0
C5629 C 0.40214 0.65397 0.66148 0.0
C5630 C 0.4033 0.6528 0.58345 0.0
C5631 C 0.38745 0.66017 0.58116 0.0
C5632 C 0.41028 0.65158 0.59954 0.0
C5633 C 0.4012 0.65703 0.61378 0.0
C5634 C 0.38582 0.66548 0.61115 0.0
C5635 C 0.37917 0.66723 0.59501 0.0
H5636 H 0.09909 0.66017 0.32286 0.0
H5637 H 0.07301 0.61737 0.34357 0.0
H5638 H 0.10094 0.67269 0.35077 0.0
H5639 H 0.07616 0.62878 0.37155 0.0
H5640 H 0.08526 0.64735 0.42201 0.0
H5641 H 0.07297 0.64545 0.39403 0.0
H5642 H 0.11736 0.6695 0.37342 0.0
H5643 H 0.12856 0.67273 0.40146 0.0
C5644 C 0.09357 0.65358 0.33343 0.0
C5645 C 0.08599 0.63781 0.33115 0.0
C5646 C 0.09482 0.6606 0.34951 0.0
C5647 C 0.08919 0.65163 0.36375 0.0
C5648 C 0.08055 0.63634 0.36113 0.0
C5649 C 0.07877 0.62965 0.345 0.0
C5650 C 0.09201 0.65272 0.41146 0.0
C5651 C 0.10785 0.66011 0.41381 0.0
C5652 C 0.08512 0.65143 0.39534 0.0
C5653 C 0.09429 0.65682 0.38113 0.0
C5654 C 0.10966 0.6653 0.3838 0.0
C5655 C 0.11622 0.66712 0.39998 0.0
H5656 H 0.39671 0.33525 0.82256 0.0
H5657 H 0.42253 0.37824 0.84321 0.0
H5658 H 0.39477 0.32284 0.8505 0.0
H5659 H 0.41928 0.36693 0.87122 0.0
H5660 H 0.36689 0.32291 0.90108 0.0
H5661 H 0.37821 0.32608 0.87306 0.0
H5662 H 0.42242 0.35036 0.89377 0.0
H5663 H 0.40999 0.34851 0.92172 0.0
C5664 C 0.40216 0.34191 0.83312 0.0
C5665 C 0.40969 0.3577 0.83081 0.0
C5666 C 0.40085 0.33495 0.84922 0.0
C5667 C 0.40637 0.344 0.86345 0.0
C5668 C 0.41497 0.35931 0.86081 0.0
C5669 C 0.4168 0.36594 0.84466 0.0
C5670 C 0.37921 0.32856 0.89962 0.0
C5671 C 0.38749 0.33564 0.91346 0.0
C5672 C 0.38585 0.33035 0.88347 0.0
C5673 C 0.4012 0.33887 0.88083 0.0
C5674 C 0.41028 0.34434 0.89505 0.0
C5675 C 0.40331 0.34308 0.91115 0.0
H5676 H 0.92225 0.90994 0.64829 0.0
H5677 H 0.90147 0.86656 0.67333 0.0
H5678 H 0.89431 0.92236 0.64644 0.0
H5679 H 0.87346 0.87791 0.67016 0.0
H5680 H 0.82298 0.89641 0.66087 0.0
H5681 H 0.85085 0.89443 0.67342 0.0
H5682 H 0.87185 0.91929 0.62969 0.0
H5683 H 0.8439 0.92256 0.61824 0.0
C5684 C 0.91166 0.9032 0.6536 0.0
C5685 C 0.91393 0.8873 0.66088 0.0
C5686 C 0.89556 0.91017 0.65234 0.0
C5687 C 0.88129 0.90103 0.65765 0.0
C5688 C 0.88389 0.8856 0.66603 0.0
C5689 C 0.90005 0.87895 0.66782 0.0
C5690 C 0.83358 0.90193 0.65432 0.0
C5691 C 0.83137 0.90956 0.63859 0.0
C5692 C 0.84965 0.9006 0.66136 0.0
C5693 C 0.86394 0.90621 0.65245 0.0
C5694 C 0.86139 0.91491 0.6372 0.0
C5695 C 0.84527 0.91676 0.63049 0.0
H5696 H 0.82265 0.09372 0.36696 0.0
H5697 H 0.84845 0.07289 0.4098 0.0
H5698 H 0.82592 0.12171 0.37836 0.0
H5699 H 0.85041 0.10081 0.4223 0.0
H5700 H 0.83526 0.17218 0.3969 0.0
H5701 H 0.82279 0.14423 0.395 0.0
H5702 H 0.86698 0.1234 0.41914 0.0
H5703 H 0.87835 0.15141 0.42236 0.0
C5704 C 0.82837 0.09513 0.37925 0.0
C5705 C 0.83548 0.08124 0.38742 0.0
C5706 C 0.83021 0.11126 0.38593 0.0
C5707 C 0.83881 0.11385 0.40123 0.0
C5708 C 0.84432 0.09957 0.41021 0.0
C5709 C 0.84301 0.08349 0.40319 0.0
C5710 C 0.84193 0.16158 0.40228 0.0
C5711 C 0.85776 0.16386 0.40969 0.0
C5712 C 0.83493 0.14548 0.401 0.0
C5713 C 0.84399 0.13122 0.40642 0.0
C5714 C 0.85935 0.13383 0.41491 0.0
C5715 C 0.86602 0.14998 0.41673 0.0
H5716 H 0.65151 0.07243 0.11639 0.0
H5717 H 0.67218 0.09787 0.15955 0.0
H5718 H 0.62348 0.07562 0.1277 0.0
H5719 H 0.64422 0.09973 0.17195 0.0
H5720 H 0.59376 0.12782 0.17196 0.0
H5721 H 0.62173 0.11639 0.16879 0.0
H5722 H 0.60085 0.07243 0.14419 0.0
H5723 H 0.57296 0.08497 0.14604 0.0
C5724 C 0.65005 0.07805 0.12872 0.0
C5725 C 0.66391 0.08509 0.13702 0.0
C5726 C 0.63389 0.07984 0.13535 0.0
C5727 C 0.63126 0.08832 0.15071 0.0
C5728 C 0.6455 0.09374 0.15981 0.0
C5729 C 0.66161 0.09248 0.15285 0.0
C5730 C 0.59517 0.11553 0.16623 0.0
C5731 C 0.5813 0.10736 0.15906 0.0
C5732 C 0.61129 0.10883 0.16445 0.0
C5733 C 0.61388 0.09352 0.15585 0.0
C5734 C 0.59962 0.08454 0.15028 0.0
C5735 C 0.58354 0.09157 0.15153 0.0
H5736 H 0.63004 0.83809 0.93086 0.0
H5737 H 0.65295 0.82808 0.8826 0.0
H5738 H 0.64091 0.86679 0.92999 0.0
H5739 H 0.66336 0.85671 0.88154 0.0
H5740 H 0.68095 0.9086 0.88031 0.0
H5741 H 0.68011 0.88 0.89141 0.0
H5742 H 0.63114 0.88982 0.91283 0.0
H5743 H 0.63214 0.91836 0.9022 0.0
C5744 C 0.63773 0.84185 0.92027 0.0
C5745 C 0.64028 0.83089 0.90661 0.0
C5746 C 0.64388 0.85834 0.91973 0.0
C5747 C 0.65273 0.86418 0.90556 0.0
C5748 C 0.65666 0.85269 0.8927 0.0
C5749 C 0.65052 0.83625 0.89323 0.0
C5750 C 0.67023 0.90482 0.88782 0.0
C5751 C 0.65643 0.91567 0.89001 0.0
C5752 C 0.66972 0.88838 0.8941 0.0
C5753 C 0.65543 0.88249 0.90274 0.0
C5754 C 0.64239 0.89388 0.90631 0.0
C5755 C 0.64289 0.91027 0.90004 0.0
H5756 H 0.84387 0.07266 0.87832 0.0
H5757 H 0.82317 0.09795 0.83511 0.0
H5758 H 0.8719 0.0759 0.867 0.0
H5759 H 0.85114 0.09987 0.82271 0.0
H5760 H 0.90163 0.12803 0.82263 0.0
H5761 H 0.87364 0.11661 0.82587 0.0
H5762 H 0.8945 0.07266 0.85043 0.0
H5763 H 0.92241 0.08518 0.84848 0.0
C5764 C 0.84531 0.07825 0.86598 0.0
C5765 C 0.83144 0.08523 0.85766 0.0
C5766 C 0.86148 0.08008 0.85934 0.0
C5767 C 0.86411 0.08854 0.84396 0.0
C5768 C 0.84986 0.0939 0.83486 0.0
C5769 C 0.83375 0.0926 0.84181 0.0
C5770 C 0.90021 0.11574 0.82835 0.0
C5771 C 0.91409 0.10757 0.83548 0.0
C5772 C 0.88407 0.10904 0.83018 0.0
C5773 C 0.88148 0.09374 0.8388 0.0
C5774 C 0.89574 0.08476 0.84433 0.0
C5775 C 0.91183 0.09178 0.84301 0.0
H5776 H 0.61702 0.15177 0.57222 0.0
H5777 H 0.66016 0.17259 0.59761 0.0
H5778 H 0.62839 0.12377 0.57541 0.0
H5779 H 0.67263 0.14465 0.59947 0.0
H5780 H 0.67287 0.0941 0.62742 0.0
H5781 H 0.66958 0.1221 0.61607 0.0
H5782 H 0.64496 0.10122 0.57216 0.0
H5783 H 0.64694 0.07328 0.58462 0.0
C5784 C 0.62936 0.15036 0.57783 0.0
C5785 C 0.63764 0.16425 0.58485 0.0
C5786 C 0.63603 0.13421 0.57963 0.0
C5787 C 0.65141 0.13162 0.58808 0.0
C5788 C 0.66047 0.14589 0.5935 0.0
C5789 C 0.65348 0.16199 0.59223 0.0
C5790 C 0.66712 0.09551 0.61515 0.0
C5791 C 0.65998 0.08162 0.60698 0.0
C5792 C 0.66526 0.11166 0.60849 0.0
C5793 C 0.65661 0.11425 0.59323 0.0
C5794 C 0.65108 0.09997 0.58424 0.0
C5795 C 0.65241 0.08388 0.59122 0.0
H5796 H 0.67191 0.89698 0.33559 0.0
H5797 H 0.65121 0.9227 0.37857 0.0
H5798 H 0.64397 0.89509 0.32316 0.0
H5799 H 0.6232 0.9195 0.36724 0.0
H5800 H 0.57269 0.91041 0.34865 0.0
H5801 H 0.60068 0.92275 0.35064 0.0
H5802 H 0.62135 0.87857 0.3263 0.0
H5803 H 0.59331 0.86733 0.323 0.0
C5804 C 0.66134 0.90241 0.34225 0.0
C5805 C 0.66363 0.90991 0.35804 0.0
C5806 C 0.64524 0.90114 0.33527 0.0
C5807 C 0.63099 0.90666 0.34431 0.0
C5808 C 0.63362 0.91521 0.35963 0.0
C5809 C 0.64977 0.91701 0.36628 0.0
C5810 C 0.58326 0.90371 0.34325 0.0
C5811 C 0.58092 0.88792 0.33575 0.0
C5812 C 0.59938 0.91063 0.34459 0.0
C5813 C 0.61361 0.90154 0.33912 0.0
C5814 C 0.61095 0.88622 0.33056 0.0
C5815 C 0.59478 0.87963 0.3287 0.0
H5816 H 0.87814 0.84348 0.07247 0.0
H5817 H 0.83502 0.82285 0.09809 0.0
H5818 H 0.86686 0.87152 0.07564 0.0
H5819 H 0.82264 0.85083 0.09993 0.0
H5820 H 0.82275 0.9014 0.12787 0.0
H5821 H 0.82587 0.87338 0.11651 0.0
H5822 H 0.85037 0.89413 0.07246 0.0
H5823 H 0.84857 0.92208 0.08492 0.0
C5824 C 0.86582 0.84494 0.07813 0.0
C5825 C 0.85753 0.8311 0.08522 0.0
C5826 C 0.85921 0.86111 0.07991 0.0
C5827 C 0.84387 0.86377 0.08844 0.0
C5828 C 0.83477 0.84954 0.09391 0.0
C5829 C 0.84171 0.83342 0.09266 0.0
C5830 C 0.82844 0.89996 0.11557 0.0
C5831 C 0.8356 0.91381 0.10735 0.0
C5832 C 0.8302 0.8838 0.10891 0.0
C5833 C 0.83876 0.88116 0.0936 0.0
C5834 C 0.84431 0.89541 0.08457 0.0
C5835 C 0.84309 0.91151 0.09156 0.0
H5836 H 0.92245 0.61719 0.84299 0.0
H5837 H 0.89642 0.66008 0.8225 0.0
H5838 H 0.91927 0.62844 0.87103 0.0
H5839 H 0.89456 0.67245 0.85046 0.0
H5840 H 0.86698 0.67232 0.9012 0.0
H5841 H 0.87814 0.66916 0.87312 0.0
H5842 H 0.9225 0.64501 0.89357 0.0
H5843 H 0.91024 0.64685 0.92159 0.0
C5844 C 0.91669 0.62945 0.84448 0.0
C5845 C 0.9095 0.63768 0.83067 0.0
C5846 C 0.91491 0.63606 0.86065 0.0
C5847 C 0.90628 0.65133 0.86334 0.0
C5848 C 0.90067 0.66036 0.84914 0.0
C5849 C 0.90193 0.65343 0.83303 0.0
C5850 C 0.8793 0.6667 0.89967 0.0
C5851 C 0.88767 0.65965 0.91347 0.0
C5852 C 0.88585 0.66492 0.88348 0.0
C5853 C 0.9012 0.65644 0.88075 0.0
C5854 C 0.91036 0.651 0.89492 0.0
C5855 C 0.90349 0.65224 0.91106 0.0
H5856 H 0.36757 0.82256 0.09335 0.0
H5857 H 0.41031 0.84867 0.07254 0.0
H5858 H 0.37897 0.82581 0.1213 0.0
H5859 H 0.42283 0.85061 0.10043 0.0
H5860 H 0.4228 0.8784 0.15106 0.0
H5861 H 0.41961 0.86709 0.12304 0.0
H5862 H 0.39564 0.82271 0.14378 0.0
H5863 H 0.3975 0.83511 0.17173 0.0
C5864 C 0.37984 0.82835 0.09475 0.0
C5865 C 0.38798 0.83555 0.08088 0.0
C5866 C 0.38652 0.83018 0.11087 0.0
C5867 C 0.4018 0.83885 0.11346 0.0
C5868 C 0.41075 0.84446 0.0992 0.0
C5869 C 0.40373 0.84316 0.08313 0.0
C5870 C 0.41721 0.86604 0.14961 0.0
C5871 C 0.41021 0.8577 0.16346 0.0
C5872 C 0.41542 0.85941 0.13345 0.0
C5873 C 0.40697 0.84401 0.13082 0.0
C5874 C 0.40159 0.83488 0.14506 0.0
C5875 C 0.40286 0.84184 0.16116 0.0
H5876 H 0.09329 0.13198 0.57749 0.0
H5877 H 0.11483 0.18103 0.58697 0.0
H5878 H 0.08248 0.13116 0.60595 0.0
H5879 H 0.10356 0.18036 0.61549 0.0
H5880 H 0.11203 0.15368 0.66768 0.0
H5881 H 0.1133 0.16386 0.639 0.0
H5882 H 0.06502 0.14111 0.6287 0.0
H5883 H 0.06392 0.13048 0.65745 0.0
C5884 C 0.09534 0.14281 0.5855 0.0
C5885 C 0.10531 0.15638 0.58005 0.0
C5886 C 0.08897 0.14241 0.60184 0.0
C5887 C 0.09237 0.15559 0.61313 0.0
C5888 C 0.10098 0.16987 0.60719 0.0
C5889 C 0.10737 0.17028 0.5908 0.0
C5890 C 0.10147 0.15115 0.65945 0.0
C5891 C 0.08808 0.14089 0.66477 0.0
C5892 C 0.10213 0.15715 0.64298 0.0
C5893 C 0.08939 0.15306 0.63143 0.0
C5894 C 0.07519 0.1442 0.63721 0.0
C5895 C 0.07452 0.1382 0.65374 0.0
H5896 H 0.11604 0.81413 0.9069 0.0
H5897 H 0.0929 0.86224 0.91718 0.0
H5898 H 0.1051 0.81506 0.87826 0.0
H5899 H 0.08242 0.86335 0.88862 0.0
H5900 H 0.06459 0.86462 0.83687 0.0
H5901 H 0.06561 0.85342 0.86541 0.0
H5902 H 0.11469 0.8324 0.85527 0.0
H5903 H 0.1135 0.84314 0.8268 0.0
C5904 C 0.10828 0.8247 0.90322 0.0
C5905 C 0.10568 0.8383 0.91424 0.0
C5906 C 0.10209 0.82527 0.88676 0.0
C5907 C 0.09315 0.83942 0.88102 0.0
C5908 C 0.08919 0.85222 0.89256 0.0
C5909 C 0.09536 0.85165 0.90897 0.0
C5910 C 0.07537 0.85718 0.84057 0.0
C5911 C 0.08914 0.85513 0.82965 0.0
C5912 C 0.07599 0.85083 0.85697 0.0
C5913 C 0.09036 0.84229 0.86275 0.0
C5914 C 0.10338 0.83885 0.85129 0.0
C5915 C 0.10277 0.84518 0.83494 0.0
H5916 H 0.59821 0.33557 0.32256 0.0
H5917 H 0.57264 0.37865 0.34327 0.0
H5918 H 0.60016 0.32317 0.3505 0.0
H5919 H 0.57591 0.36736 0.37128 0.0
H5920 H 0.62813 0.32314 0.40099 0.0
H5921 H 0.61678 0.32637 0.37301 0.0
H5922 H 0.57272 0.35079 0.39384 0.0
H5923 H 0.58518 0.34887 0.42176 0.0
C5924 C 0.59282 0.34226 0.33314 0.0
C5925 C 0.58535 0.35806 0.33085 0.0
C5926 C 0.59413 0.3353 0.34923 0.0
C5927 C 0.58868 0.34438 0.36348 0.0
C5928 C 0.58015 0.35972 0.36086 0.0
C5929 C 0.57831 0.36634 0.34471 0.0
C5930 C 0.61583 0.32884 0.39957 0.0
C5931 C 0.60761 0.33594 0.41344 0.0
C5932 C 0.60918 0.33066 0.38344 0.0
C5933 C 0.59386 0.33923 0.38084 0.0
C5934 C 0.58484 0.34473 0.39509 0.0
C5935 C 0.59182 0.34344 0.41117 0.0
H5936 H 0.86718 0.32304 0.59317 0.0
H5937 H 0.91022 0.34882 0.57257 0.0
H5938 H 0.87854 0.32607 0.62117 0.0
H5939 H 0.92268 0.35053 0.6005 0.0
H5940 H 0.92279 0.37812 0.65123 0.0
H5941 H 0.91956 0.36696 0.62317 0.0
H5942 H 0.89514 0.32271 0.64367 0.0
H5943 H 0.89706 0.33498 0.67168 0.0
C5944 C 0.8795 0.32871 0.59462 0.0
C5945 C 0.88774 0.33588 0.5808 0.0
C5946 C 0.88616 0.3304 0.61077 0.0
C5947 C 0.90151 0.33893 0.61343 0.0
C5948 C 0.91055 0.34451 0.59921 0.0
C5949 C 0.90356 0.34333 0.58312 0.0
C5950 C 0.9171 0.36582 0.64972 0.0
C5951 C 0.90999 0.35749 0.66353 0.0
C5952 C 0.91528 0.35927 0.63354 0.0
C5953 C 0.90669 0.34397 0.63082 0.0
C5954 C 0.9012 0.33483 0.64501 0.0
C5955 C 0.9025 0.3417 0.66114 0.0
H5956 H 0.62871 0.67303 0.09313 0.0
H5957 H 0.58554 0.64761 0.07242 0.0
H5958 H 0.61732 0.6699 0.12113 0.0
H5959 H 0.57306 0.64579 0.10034 0.0
H5960 H 0.57279 0.61789 0.15091 0.0
H5961 H 0.57612 0.62919 0.1229 0.0
H5962 H 0.60072 0.67321 0.14366 0.0
H5963 H 0.5987 0.6608 0.1716 0.0
C5964 C 0.61636 0.66743 0.09456 0.0
C5965 C 0.60808 0.66039 0.0807 0.0
C5966 C 0.60969 0.66567 0.11071 0.0
C5967 C 0.59429 0.65721 0.11332 0.0
C5968 C 0.58523 0.65177 0.09908 0.0
C5969 C 0.59222 0.65301 0.08299 0.0
C5970 C 0.57855 0.63017 0.14947 0.0
C5971 C 0.58566 0.63839 0.16333 0.0
C5972 C 0.58042 0.63679 0.13332 0.0
C5973 C 0.58908 0.65208 0.13069 0.0
C5974 C 0.59459 0.66111 0.14493 0.0
C5975 C 0.59324 0.65416 0.16103 0.0
H5976 H 0.65174 0.57258 0.87751 0.0
H5977 H 0.6724 0.59869 0.83473 0.0
H5978 H 0.62373 0.57576 0.8662 0.0
H5979 H 0.64445 0.60057 0.8223 0.0
H5980 H 0.59376 0.62826 0.8225 0.0
H5981 H 0.62182 0.61703 0.82562 0.0
H5982 H 0.6012 0.57259 0.84958 0.0
H5983 H 0.57321 0.58491 0.84778 0.0
C5984 C 0.65029 0.57836 0.86525 0.0
C5985 C 0.66414 0.58557 0.85707 0.0
C5986 C 0.63414 0.58015 0.85862 0.0
C5987 C 0.6315 0.58881 0.84337 0.0
C5988 C 0.64573 0.59443 0.83437 0.0
C5989 C 0.66183 0.59317 0.84134 0.0
C5990 C 0.59525 0.6159 0.82807 0.0
C5991 C 0.58141 0.60753 0.83508 0.0
C5992 C 0.61142 0.60932 0.82983 0.0
C5993 C 0.6141 0.59393 0.83824 0.0
C5994 C 0.59989 0.58476 0.84364 0.0
C5995 C 0.58376 0.59167 0.84242 0.0
H5996 H 0.64686 0.42248 0.08479 0.0
H5997 H 0.67257 0.40203 0.12786 0.0
H5998 H 0.64515 0.39448 0.07241 0.0
H5999 H 0.66954 0.37396 0.11659 0.0
H6000 H 0.66064 0.32334 0.09823 0.0
H6001 H 0.67291 0.35138 0.10007 0.0
H6002 H 0.62871 0.37181 0.07562 0.0
H6003 H 0.61755 0.3437 0.07246 0.0
C6004 C 0.65233 0.41195 0.09148 0.0
C6005 C 0.65976 0.41432 0.10728 0.0
C6006 C 0.65116 0.39582 0.08454 0.0
C6007 C 0.65672 0.38162 0.09362 0.0
C6008 C 0.66522 0.38434 0.10895 0.0
C6009 C 0.66692 0.40052 0.11556 0.0
C6010 C 0.65393 0.33386 0.09277 0.0
C6011 C 0.63815 0.33145 0.08529 0.0
C6012 C 0.66081 0.35002 0.09402 0.0
C6013 C 0.65168 0.36419 0.08849 0.0
C6014 C 0.63638 0.36144 0.07993 0.0
C6015 C 0.62983 0.34524 0.07815 0.0
H6016 H 0.84387 0.4229 0.37782 0.0
H6017 H 0.82315 0.3973 0.33478 0.0
H6018 H 0.8719 0.41959 0.36653 0.0
H6019 H 0.85111 0.39531 0.3224 0.0
H6020 H 0.92241 0.41015 0.34812 0.0
H6021 H 0.89451 0.42269 0.35 0.0
H6022 H 0.87358 0.37863 0.32562 0.0
H6023 H 0.90156 0.36719 0.32243 0.0
C6024 C 0.84531 0.41722 0.36552 0.0
C6025 C 0.83144 0.41018 0.35725 0.0
C6026 C 0.86147 0.41535 0.3589 0.0
C6027 C 0.86409 0.40679 0.34358 0.0
C6028 C 0.84984 0.40136 0.33451 0.0
C6029 C 0.83373 0.4027 0.34146 0.0
C6030 C 0.91181 0.40352 0.34269 0.0
C6031 C 0.91405 0.38771 0.33521 0.0
C6032 C 0.89574 0.41056 0.34396 0.0
C6033 C 0.88146 0.40156 0.33845 0.0
C6034 C 0.88403 0.38621 0.32991 0.0
C6035 C 0.90016 0.37951 0.32811 0.0
H6036 H 0.83522 0.67198 0.59744 0.0
H6037 H 0.8786 0.65156 0.57214 0.0
H6038 H 0.82296 0.64393 0.59926 0.0
H6039 H 0.86743 0.62346 0.57529 0.0
H6040 H 0.82306 0.59342 0.62726 0.0
H6041 H 0.82619 0.62144 0.61591 0.0
H6042 H 0.85104 0.60075 0.57204 0.0
H6043 H 0.84922 0.5728 0.5845 0.0
C6044 C 0.842 0.66144 0.59207 0.0
C6045 C 0.85785 0.66384 0.58473 0.0
C6046 C 0.83513 0.64529 0.59332 0.0
C6047 C 0.84432 0.6311 0.58792 0.0
C6048 C 0.8597 0.63383 0.57949 0.0
C6049 C 0.86625 0.65003 0.57772 0.0
C6050 C 0.82884 0.59487 0.615 0.0
C6051 C 0.83608 0.58104 0.60684 0.0
C6052 C 0.8306 0.61103 0.60834 0.0
C6053 C 0.83925 0.61368 0.59308 0.0
C6054 C 0.84491 0.59946 0.58411 0.0
C6055 C 0.84367 0.58336 0.5911 0.0
H6056 H 0.5936 0.36741 0.67209 0.0
H6057 H 0.57289 0.4103 0.64623 0.0
H6058 H 0.62161 0.37876 0.66882 0.0
H6059 H 0.60084 0.42275 0.64427 0.0
H6060 H 0.67211 0.39727 0.65954 0.0
H6061 H 0.64415 0.3954 0.67196 0.0
H6062 H 0.62342 0.4195 0.62772 0.0
H6063 H 0.65145 0.42271 0.6164 0.0
C6064 C 0.59504 0.3797 0.66635 0.0
C6065 C 0.58117 0.3879 0.65923 0.0
C6066 C 0.61119 0.38635 0.66451 0.0
C6067 C 0.61381 0.40165 0.6559 0.0
C6068 C 0.59957 0.41066 0.65036 0.0
C6069 C 0.58347 0.40367 0.65168 0.0
C6070 C 0.66154 0.40265 0.65285 0.0
C6071 C 0.66385 0.41005 0.63702 0.0
C6072 C 0.64543 0.40138 0.65981 0.0
C6073 C 0.63119 0.4068 0.65073 0.0
C6074 C 0.63383 0.41528 0.63536 0.0
C6075 C 0.65 0.41708 0.62873 0.0
H6076 H 0.8349 0.32307 0.89684 0.0
H6077 H 0.87791 0.34384 0.92248 0.0
H6078 H 0.82253 0.35103 0.89479 0.0
H6079 H 0.86665 0.37186 0.91912 0.0
H6080 H 0.8227 0.40149 0.86666 0.0
H6081 H 0.82583 0.37351 0.87812 0.0
H6082 H 0.8501 0.39446 0.92218 0.0
H6083 H 0.8483 0.42237 0.90963 0.0
C6084 C 0.84157 0.33366 0.90222 0.0
C6085 C 0.85736 0.33138 0.90973 0.0
C6086 C 0.83464 0.34977 0.90086 0.0
C6087 C 0.84371 0.36404 0.90629 0.0
C6088 C 0.85902 0.36143 0.91488 0.0
C6089 C 0.86562 0.34527 0.91677 0.0
C6090 C 0.82835 0.4001 0.87898 0.0
C6091 C 0.83544 0.41399 0.88718 0.0
C6092 C 0.8301 0.38397 0.8857 0.0
C6093 C 0.8386 0.3814 0.90105 0.0
C6094 C 0.8441 0.39569 0.91004 0.0
C6095 C 0.84287 0.41176 0.903 0.0
H6096 H 0.90163 0.62837 0.17271 0.0
H6097 H 0.92231 0.58513 0.14738 0.0
H6098 H 0.8736 0.6171 0.16943 0.0
H6099 H 0.89433 0.57276 0.14543 0.0
H6100 H 0.84396 0.57282 0.11719 0.0
H6101 H 0.8719 0.57597 0.1287 0.0
H6102 H 0.85093 0.60063 0.17254 0.0
H6103 H 0.82306 0.59879 0.15993 0.0
C6104 C 0.90018 0.61603 0.1671 0.0
C6105 C 0.91404 0.60769 0.16012 0.0
C6106 C 0.88401 0.60942 0.16526 0.0
C6107 C 0.88137 0.59405 0.15677 0.0
C6108 C 0.89561 0.58491 0.15141 0.0
C6109 C 0.91173 0.59185 0.15273 0.0
C6110 C 0.84534 0.57855 0.12948 0.0
C6111 C 0.83145 0.58574 0.13759 0.0
C6112 C 0.86145 0.58032 0.13622 0.0
C6113 C 0.864 0.58894 0.15152 0.0
C6114 C 0.84972 0.59453 0.16044 0.0
C6115 C 0.83366 0.59328 0.15337 0.0
H6116 H 0.65994 0.67278 0.3965 0.0
H6117 H 0.61706 0.65189 0.4223 0.0
H6118 H 0.67238 0.64485 0.3944 0.0
H6119 H 0.6284 0.6239 0.41888 0.0
H6120 H 0.64693 0.57344 0.40937 0.0
H6121 H 0.64501 0.60135 0.42189 0.0
H6122 H 0.66915 0.62234 0.37776 0.0
H6123 H 0.6724 0.59435 0.36633 0.0
C6124 C 0.65331 0.66217 0.40192 0.0
C6125 C 0.63755 0.66441 0.40949 0.0
C6126 C 0.66029 0.64608 0.40051 0.0
C6127 C 0.65128 0.63179 0.40598 0.0
C6128 C 0.63599 0.63435 0.41462 0.0
C6129 C 0.62934 0.6505 0.41655 0.0
C6130 C 0.65231 0.58405 0.40272 0.0
C6131 C 0.65974 0.58183 0.38689 0.0
C6132 C 0.65101 0.60014 0.40975 0.0
C6133 C 0.65644 0.61443 0.40073 0.0
C6134 C 0.66493 0.61188 0.38536 0.0
C6135 C 0.66676 0.59574 0.37866 0.0
H6136 H 0.59915 0.83556 0.6728 0.0
H6137 H 0.57333 0.8785 0.65215 0.0
H6138 H 0.60092 0.82306 0.64489 0.0
H6139 H 0.57641 0.8671 0.62416 0.0
H6140 H 0.62852 0.82289 0.59416 0.0
H6141 H 0.61735 0.82618 0.62222 0.0
H6142 H 0.5731 0.85045 0.60167 0.0
H6143 H 0.58537 0.84848 0.57367 0.0
C6144 C 0.59366 0.84219 0.66224 0.0
C6145 C 0.58618 0.85799 0.66454 0.0
C6146 C 0.59487 0.83518 0.64616 0.0
C6147 C 0.5893 0.84418 0.63193 0.0
C6148 C 0.58075 0.85951 0.63457 0.0
C6149 C 0.57902 0.8662 0.65071 0.0
C6150 C 0.61622 0.82856 0.59566 0.0
C6151 C 0.60788 0.83561 0.58184 0.0
C6152 C 0.60967 0.83042 0.61184 0.0
C6153 C 0.59435 0.83897 0.61454 0.0
C6154 C 0.58522 0.84441 0.60034 0.0
C6155 C 0.59209 0.84308 0.58421 0.0
H6156 H 0.34411 0.42283 0.11618 0.0
H6157 H 0.32355 0.39767 0.15957 0.0
H6158 H 0.37219 0.41954 0.12732 0.0
H6159 H 0.35157 0.39572 0.1718 0.0
H6160 H 0.42279 0.41023 0.14562 0.0
H6161 H 0.39489 0.42275 0.14369 0.0
H6162 H 0.374 0.37897 0.1686 0.0
H6163 H 0.40197 0.36756 0.17183 0.0
C6164 C 0.34561 0.41725 0.12852 0.0
C6165 C 0.33176 0.41033 0.13694 0.0
C6166 C 0.3618 0.4154 0.13505 0.0
C6167 C 0.36448 0.40697 0.15043 0.0
C6168 C 0.35026 0.40166 0.15963 0.0
C6169 C 0.33411 0.40298 0.15278 0.0
C6170 C 0.4122 0.40366 0.15115 0.0
C6171 C 0.41445 0.38793 0.15879 0.0
C6172 C 0.39613 0.41068 0.14985 0.0
C6173 C 0.38186 0.40176 0.15551 0.0
C6174 C 0.38444 0.3865 0.1642 0.0
C6175 C 0.40057 0.37981 0.16601 0.0
H6176 H 0.33542 0.67239 0.89647 0.0
H6177 H 0.37817 0.65157 0.92244 0.0
H6178 H 0.32292 0.64446 0.89445 0.0
H6179 H 0.36679 0.62358 0.91912 0.0
H6180 H 0.32292 0.59386 0.86657 0.0
H6181 H 0.32615 0.62188 0.87791 0.0
H6182 H 0.35013 0.60105 0.92218 0.0
H6183 H 0.34824 0.57309 0.90974 0.0
C6184 C 0.34201 0.66179 0.90193 0.0
C6185 C 0.35775 0.66405 0.90953 0.0
C6186 C 0.335 0.6457 0.90058 0.0
C6187 C 0.34396 0.63143 0.90613 0.0
C6188 C 0.35923 0.63402 0.91479 0.0
C6189 C 0.3659 0.65016 0.91666 0.0
C6190 C 0.32853 0.59529 0.87891 0.0
C6191 C 0.33551 0.58141 0.8872 0.0
C6192 C 0.33034 0.61144 0.88556 0.0
C6193 C 0.33879 0.61405 0.90094 0.0
C6194 C 0.34417 0.59979 0.91002 0.0
C6195 C 0.34289 0.58369 0.90304 0.0
H6196 H 0.15132 0.57277 0.61685 0.0
H6197 H 0.17208 0.59829 0.65992 0.0
H6198 H 0.12331 0.57606 0.62817 0.0
H6199 H 0.14413 0.60025 0.67234 0.0
H6200 H 0.09375 0.62849 0.67225 0.0
H6201 H 0.12169 0.61697 0.66912 0.0
H6202 H 0.10069 0.57298 0.64469 0.0
H6203 H 0.07282 0.5856 0.6465 0.0
C6204 C 0.14989 0.57843 0.62917 0.0
C6205 C 0.16377 0.58546 0.63743 0.0
C6206 C 0.13374 0.58028 0.6358 0.0
C6207 C 0.13113 0.58881 0.65114 0.0
C6208 C 0.14539 0.59422 0.66021 0.0
C6209 C 0.16149 0.5929 0.65325 0.0
C6210 C 0.09512 0.61617 0.66657 0.0
C6211 C 0.08123 0.60801 0.65943 0.0
C6212 C 0.11123 0.60942 0.66481 0.0
C6213 C 0.11377 0.59407 0.65626 0.0
C6214 C 0.09948 0.58511 0.65073 0.0
C6215 C 0.08343 0.59219 0.65196 0.0
H6216 H 0.17203 0.4015 0.36818 0.0
H6217 H 0.14568 0.4223 0.41073 0.0
H6218 H 0.16883 0.37353 0.37963 0.0
H6219 H 0.14378 0.39441 0.42329 0.0
H6220 H 0.11619 0.34359 0.42323 0.0
H6221 H 0.12738 0.37168 0.42004 0.0
H6222 H 0.17198 0.3511 0.39641 0.0
H6223 H 0.1597 0.32307 0.39827 0.0
C6224 C 0.16619 0.4001 0.38041 0.0
C6225 C 0.15892 0.41397 0.38849 0.0
C6226 C 0.16439 0.38397 0.38713 0.0
C6227 C 0.15567 0.38138 0.40236 0.0
C6228 C 0.14997 0.39564 0.41125 0.0
C6229 C 0.15125 0.41172 0.4042 0.0
C6230 C 0.12857 0.34509 0.41773 0.0
C6231 C 0.137 0.33125 0.41082 0.0
C6232 C 0.13513 0.36129 0.41593 0.0
C6233 C 0.15056 0.36399 0.40757 0.0
C6234 C 0.15979 0.34977 0.40229 0.0
C6235 C 0.1529 0.33362 0.40357 0.0
H6236 H 0.34372 0.57262 0.3782 0.0
H6237 H 0.32304 0.59814 0.33512 0.0
H6238 H 0.37174 0.57582 0.36687 0.0
H6239 H 0.351 0.60002 0.32269 0.0
H6240 H 0.40157 0.62799 0.32257 0.0
H6241 H 0.37356 0.61663 0.32581 0.0
H6242 H 0.39432 0.5726 0.35032 0.0
H6243 H 0.42227 0.58507 0.34839 0.0
C6244 C 0.34517 0.57826 0.36588 0.0
C6245 C 0.33131 0.58531 0.35761 0.0
C6246 C 0.36133 0.58006 0.35924 0.0
C6247 C 0.36396 0.58856 0.34389 0.0
C6248 C 0.34972 0.59401 0.33482 0.0
C6249 C 0.33361 0.59273 0.34179 0.0
C6250 C 0.40013 0.61569 0.32829 0.0
C6251 C 0.41399 0.60748 0.33541 0.0
C6252 C 0.38398 0.60903 0.33012 0.0
C6253 C 0.38135 0.59373 0.33872 0.0
C6254 C 0.39559 0.58471 0.34424 0.0
C6255 C 0.41169 0.5917 0.34293 0.0
H6256 H 0.17237 0.59411 0.12757 0.0
H6257 H 0.14636 0.57319 0.08488 0.0
H6258 H 0.16909 0.62208 0.11614 0.0
H6259 H 0.14438 0.60109 0.07234 0.0
H6260 H 0.15993 0.67252 0.09739 0.0
H6261 H 0.17226 0.64453 0.09939 0.0
H6262 H 0.1279 0.62373 0.07549 0.0
H6263 H 0.11666 0.65178 0.07217 0.0
C6264 C 0.16659 0.59549 0.11531 0.0
C6265 C 0.15944 0.58158 0.10719 0.0
C6266 C 0.16475 0.61162 0.10861 0.0
C6267 C 0.1561 0.61417 0.09333 0.0
C6268 C 0.15051 0.59988 0.08441 0.0
C6269 C 0.15184 0.58381 0.09144 0.0
C6270 C 0.15319 0.66192 0.09207 0.0
C6271 C 0.13735 0.66422 0.0847 0.0
C6272 C 0.16011 0.6458 0.09342 0.0
C6273 C 0.15096 0.63154 0.0881 0.0
C6274 C 0.13559 0.63416 0.07964 0.0
C6275 C 0.129 0.65033 0.07776 0.0
H6276 H 0.1719 0.39719 0.83511 0.0
H6277 H 0.15127 0.4226 0.87832 0.0
H6278 H 0.14393 0.39533 0.82275 0.0
H6279 H 0.12323 0.41941 0.86705 0.0
H6280 H 0.09338 0.36734 0.82268 0.0
H6281 H 0.12139 0.3787 0.8259 0.0
H6282 H 0.10063 0.42266 0.85055 0.0
H6283 H 0.07269 0.4102 0.84864 0.0
C6284 C 0.16133 0.40257 0.84183 0.0
C6285 C 0.16365 0.40995 0.85766 0.0
C6286 C 0.14522 0.40131 0.8349 0.0
C6287 C 0.13099 0.40673 0.84401 0.0
C6288 C 0.13364 0.41519 0.85938 0.0
C6289 C 0.14981 0.41698 0.86599 0.0
C6290 C 0.09482 0.37962 0.82843 0.0
C6291 C 0.08096 0.38781 0.8356 0.0
C6292 C 0.11097 0.38628 0.83024 0.0
C6293 C 0.1136 0.40157 0.83887 0.0
C6294 C 0.09936 0.41057 0.84444 0.0
C6295 C 0.08326 0.40358 0.84316 0.0
H6296 H 0.34837 0.42251 0.58491 0.0
H6297 H 0.32269 0.40189 0.62797 0.0
H6298 H 0.35018 0.39453 0.57251 0.0
H6299 H 0.32582 0.37385 0.61667 0.0
H6300 H 0.33494 0.32329 0.59826 0.0
H6301 H 0.32256 0.35127 0.60013 0.0
H6302 H 0.36672 0.37195 0.57572 0.0
H6303 H 0.378 0.34391 0.57254 0.0
C6304 C 0.34292 0.41194 0.59159 0.0
C6305 C 0.33548 0.41427 0.60739 0.0
C6306 C 0.34416 0.39583 0.58463 0.0
C6307 C 0.33864 0.3816 0.5937 0.0
C6308 C 0.33012 0.38426 0.60904 0.0
C6309 C 0.32836 0.40043 0.61566 0.0
C6310 C 0.34163 0.33386 0.59282 0.0
C6311 C 0.35742 0.33153 0.58534 0.0
C6312 C 0.33469 0.34997 0.59408 0.0
C6313 C 0.34376 0.3642 0.58857 0.0
C6314 C 0.35909 0.36154 0.58001 0.0
C6315 C 0.3657 0.34537 0.57823 0.0
H6316 H 0.3973 0.1604 0.32235 0.0
H6317 H 0.42288 0.11739 0.34316 0.0
H6318 H 0.3956 0.17301 0.35022 0.0
H6319 H 0.41986 0.12891 0.37111 0.0
H6320 H 0.36787 0.17335 0.40088 0.0
H6321 H 0.37911 0.17002 0.37286 0.0
H6322 H 0.42321 0.14559 0.39355 0.0
H6323 H 0.41084 0.14759 0.42152 0.0
C6324 C 0.40274 0.15378 0.33294 0.0
C6325 C 0.41013 0.13793 0.3307 0.0
C6326 C 0.40158 0.16085 0.34899 0.0
C6327 C 0.4071 0.15187 0.36325 0.0
C6328 C 0.41556 0.13648 0.36067 0.0
C6329 C 0.41726 0.12973 0.34456 0.0
C6330 C 0.38015 0.16763 0.39942 0.0
C6331 C 0.3884 0.16054 0.41327 0.0
C6332 C 0.38675 0.16576 0.38326 0.0
C6333 C 0.40204 0.15714 0.38062 0.0
C6334 C 0.41111 0.15168 0.39484 0.0
C6335 C 0.40418 0.15302 0.41095 0.0
H6336 H 0.01936 0.10323 0.28611 0.0
H6337 H 0.03193 0.15342 0.26955 0.0
H6338 H 0.003 0.09881 0.26066 0.0
H6339 H 0.01544 0.149 0.24393 0.0
H6340 H 0.97566 0.09243 0.21284 0.0
H6341 H 0.00129 0.09697 0.22928 0.0
H6342 H 0.98406 0.14683 0.24227 0.0
H6343 H 0.95859 0.1423 0.22595 0.0
C6344 C 0.01901 0.11316 0.27679 0.0
C6345 C 0.02673 0.12874 0.2799 0.0
C6346 C 0.00972 0.11058 0.26212 0.0
C6347 C 0.00781 0.12361 0.25034 0.0
C6348 C 0.0166 0.13878 0.25286 0.0
C6349 C 0.02609 0.14128 0.26747 0.0
C6350 C 0.97761 0.10453 0.21879 0.0
C6351 C 0.96504 0.11693 0.21832 0.0
C6352 C 0.99224 0.1071 0.22826 0.0
C6353 C 0.99462 0.12219 0.23719 0.0
C6354 C 0.98269 0.13511 0.23544 0.0
C6355 C 0.96802 0.13247 0.22618 0.0
H6356 H 0.10322 0.70906 0.47596 0.0
H6357 H 0.15317 0.72606 0.46304 0.0
H6358 H 0.09866 0.73457 0.49221 0.0
H6359 H 0.1486 0.75176 0.47941 0.0
H6360 H 0.14212 0.77006 0.53613 0.0
H6361 H 0.14663 0.75364 0.51073 0.0
H6362 H 0.0965 0.76592 0.49384 0.0
H6363 H 0.09198 0.78246 0.51942 0.0
C6364 C 0.11306 0.71849 0.47622 0.0
C6365 C 0.12862 0.71548 0.46843 0.0
C6366 C 0.1104 0.73319 0.48544 0.0
C6367 C 0.12333 0.74512 0.48722 0.0
C6368 C 0.13846 0.74271 0.47836 0.0
C6369 C 0.14104 0.72805 0.46894 0.0
C6370 C 0.13223 0.76966 0.52678 0.0
C6371 C 0.11662 0.77735 0.52985 0.0
C6372 C 0.13485 0.76034 0.51215 0.0
C6373 C 0.12186 0.75835 0.50034 0.0
C6374 C 0.10669 0.76712 0.50279 0.0
C6375 C 0.10413 0.77665 0.51739 0.0
H6376 H 0.53733 0.85355 0.72683 0.0
H6377 H 0.52038 0.90352 0.71402 0.0
H6378 H 0.51192 0.84905 0.74329 0.0
H6379 H 0.49481 0.89902 0.73061 0.0
H6380 H 0.46406 0.84251 0.77069 0.0
H6381 H 0.48052 0.84699 0.74505 0.0
H6382 H 0.49321 0.89704 0.76201 0.0
H6383 H 0.47687 0.89257 0.78749 0.0
C6384 C 0.52793 0.86341 0.72716 0.0
C6385 C 0.53092 0.87896 0.71933 0.0
C6386 C 0.5133 0.86079 0.7365 0.0
C6387 C 0.50142 0.87374 0.73837 0.0
C6388 C 0.50382 0.88886 0.72949 0.0
C6389 C 0.5184 0.89141 0.71993 0.0
C6390 C 0.46995 0.85464 0.76867 0.0
C6391 C 0.46938 0.86712 0.78117 0.0
C6392 C 0.47943 0.85717 0.75404 0.0
C6393 C 0.48828 0.87231 0.75158 0.0
C6394 C 0.48645 0.88529 0.76344 0.0
C6395 C 0.47717 0.88268 0.77811 0.0
H6396 H 0.34207 0.26968 0.96274 0.0
H6397 H 0.39206 0.28666 0.97549 0.0
H6398 H 0.34664 0.24403 0.97917 0.0
H6399 H 0.39662 0.26118 0.99178 0.0
H6400 H 0.35323 0.226 0.03599 0.0
H6401 H 0.34869 0.24233 0.01054 0.0
H6402 H 0.39869 0.22978 0.99344 0.0
H6403 H 0.40325 0.21331 0.01905 0.0
C6404 C 0.3542 0.26769 0.9686 0.0
C6405 C 0.36664 0.28025 0.96803 0.0
C6406 C 0.35678 0.25306 0.97806 0.0
C6407 C 0.37193 0.25065 0.98689 0.0
C6408 C 0.38487 0.26256 0.98504 0.0
C6409 C 0.38221 0.27724 0.97579 0.0
C6410 C 0.36309 0.22632 0.02658 0.0
C6411 C 0.37867 0.21857 0.02959 0.0
C6412 C 0.36044 0.23559 0.01192 0.0
C6413 C 0.37339 0.23747 4e-05 0.0
C6414 C 0.38854 0.22865 0.00245 0.0
C6415 C 0.39111 0.21917 0.01706 0.0
H6416 H 0.97552 0.90323 0.28196 0.0
H6417 H 0.95885 0.8531 0.26931 0.0
H6418 H 0.0012 0.89878 0.26553 0.0
H6419 H 0.98434 0.84866 0.253 0.0
H6420 H 0.03209 0.84226 0.22552 0.0
H6421 H 0.01569 0.84675 0.25121 0.0
H6422 H 0.0029 0.89673 0.2342 0.0
H6423 H 0.01918 0.89225 0.2087 0.0
C6424 C 0.97758 0.8911 0.27612 0.0
C6425 C 0.9651 0.87859 0.27671 0.0
C6426 C 0.99223 0.88858 0.26666 0.0
C6427 C 0.99472 0.87343 0.25785 0.0
C6428 C 0.9829 0.86042 0.25973 0.0
C6429 C 0.96821 0.86301 0.26899 0.0
C6430 C 0.0262 0.85438 0.22755 0.0
C6431 C 0.02671 0.86683 0.21503 0.0
C6432 C 0.01676 0.85691 0.2422 0.0
C6433 C 0.00788 0.87203 0.24466 0.0
C6434 C 0.00968 0.885 0.23278 0.0
C6435 C 0.01892 0.88239 0.21809 0.0
H6436 H 0.40245 0.78243 0.47521 0.0
H6437 H 0.35252 0.76923 0.45839 0.0
H6438 H 0.39801 0.76606 0.50091 0.0
H6439 H 0.34809 0.75299 0.48393 0.0
H6440 H 0.39178 0.70919 0.51911 0.0
H6441 H 0.39616 0.73464 0.5027 0.0
H6442 H 0.34607 0.75145 0.51532 0.0
H6443 H 0.34168 0.72583 0.53186 0.0
C6444 C 0.39036 0.77648 0.47724 0.0
C6445 C 0.37791 0.7769 0.46472 0.0
C6446 C 0.38785 0.76706 0.4919 0.0
C6447 C 0.37276 0.75812 0.49438 0.0
C6448 C 0.3598 0.75982 0.4825 0.0
C6449 C 0.36239 0.76904 0.46779 0.0
C6450 C 0.38187 0.71853 0.51878 0.0
C6451 C 0.36632 0.71543 0.52657 0.0
C6452 C 0.38442 0.7332 0.50947 0.0
C6453 C 0.3714 0.74499 0.5076 0.0
C6454 C 0.35628 0.7425 0.51646 0.0
C6455 C 0.3538 0.72789 0.52598 0.0
H6456 H 0.46283 0.15328 0.72507 0.0
H6457 H 0.47611 0.10338 0.70821 0.0
H6458 H 0.47931 0.14894 0.7507 0.0
H6459 H 0.49247 0.09905 0.73367 0.0
H6460 H 0.53625 0.14303 0.76864 0.0
H6461 H 0.5107 0.14726 0.75237 0.0
H6462 H 0.4942 0.09705 0.76503 0.0
H6463 H 0.51992 0.09281 0.78142 0.0
C6464 C 0.46882 0.14121 0.72708 0.0
C6465 C 0.46839 0.12875 0.71456 0.0
C6466 C 0.47831 0.13876 0.7417 0.0
C6467 C 0.48731 0.12371 0.74414 0.0
C6468 C 0.48559 0.11073 0.73227 0.0
C6469 C 0.47631 0.11326 0.7176 0.0
C6470 C 0.52695 0.13306 0.76836 0.0
C6471 C 0.53017 0.11752 0.77611 0.0
C6472 C 0.51224 0.13553 0.75912 0.0
C6473 C 0.5005 0.12243 0.75729 0.0
C6474 C 0.5031 0.10732 0.76612 0.0
C6475 C 0.51777 0.10492 0.77556 0.0
H6476 H 0.09259 0.21307 0.9755 0.0
H6477 H 0.14249 0.22619 0.95851 0.0
H6478 H 0.09711 0.22946 0.00118 0.0
H6479 H 0.147 0.24245 0.98402 0.0
H6480 H 0.15357 0.26963 0.03193 0.0
H6481 H 0.14912 0.24402 0.01538 0.0
H6482 H 0.099 0.26085 0.003 0.0
H6483 H 0.10344 0.28629 0.01942 0.0
C6484 C 0.10469 0.21901 0.97748 0.0
C6485 C 0.11711 0.21856 0.96492 0.0
C6486 C 0.10725 0.22845 0.99214 0.0
C6487 C 0.12235 0.23737 0.99455 0.0
C6488 C 0.13528 0.23563 0.98263 0.0
C6489 C 0.13265 0.2264 0.96793 0.0
C6490 C 0.14144 0.26758 0.0261 0.0
C6491 C 0.12893 0.28004 0.02676 0.0
C6492 C 0.13892 0.25297 0.01657 0.0
C6493 C 0.12377 0.25049 0.00777 0.0
C6494 C 0.11076 0.26229 0.00972 0.0
C6495 C 0.11335 0.27695 0.01904 0.0
H6496 H 0.26979 0.03215 0.1528 0.0
H6497 H 0.28665 0.01912 0.10287 0.0
H6498 H 0.24415 0.01564 0.14839 0.0
H6499 H 0.26118 0.00274 0.09846 0.0
H6500 H 0.22616 0.9587 0.14216 0.0
H6501 H 0.24247 0.98424 0.14652 0.0
H6502 H 0.2298 0.001 0.09647 0.0
H6503 H 0.21337 0.97529 0.09209 0.0
C6504 C 0.26778 0.0262 0.14071 0.0
C6505 C 0.2803 0.02672 0.12825 0.0
C6506 C 0.25315 0.0167 0.13822 0.0
C6507 C 0.25071 0.00777 0.12314 0.0
C6508 C 0.26258 0.00956 0.11017 0.0
C6509 C 0.27726 0.01886 0.11274 0.0
C6510 C 0.22646 0.96805 0.13225 0.0
C6511 C 0.21869 0.96491 0.11671 0.0
C6512 C 0.23571 0.98276 0.13479 0.0
C6513 C 0.23754 0.99457 0.12178 0.0
C6514 C 0.2287 0.99204 0.10667 0.0
C6515 C 0.21924 0.97737 0.1042 0.0
H6516 H 0.22668 0.03721 0.35198 0.0
H6517 H 0.21339 0.02042 0.40187 0.0
H6518 H 0.24276 0.01157 0.34755 0.0
H6519 H 0.22959 0.9946 0.39742 0.0
H6520 H 0.2697 0.96352 0.34112 0.0
H6521 H 0.24416 0.98017 0.34549 0.0
H6522 H 0.26095 0.99261 0.3956 0.0
H6523 H 0.28632 0.9761 0.39124 0.0
C6524 C 0.22682 0.02781 0.36183 0.0
C6525 C 0.21898 0.03091 0.37735 0.0
C6526 C 0.23594 0.01303 0.35925 0.0
C6527 C 0.23757 0.00112 0.37219 0.0
C6528 C 0.22865 0.00363 0.38727 0.0
C6529 C 0.21933 0.01837 0.38979 0.0
C6530 C 0.26765 0.96939 0.35324 0.0
C6531 C 0.28008 0.96872 0.36576 0.0
C6532 C 0.25308 0.97898 0.35571 0.0
C6533 C 0.25062 0.98783 0.37083 0.0
C6534 C 0.26238 0.98586 0.38386 0.0
C6535 C 0.27699 0.97648 0.38132 0.0
H6536 H 0.20742 0.9778 0.60191 0.0
H6537 H 0.22429 0.9645 0.65175 0.0
H6538 H 0.2331 0.99383 0.5974 0.0
H6539 H 0.25014 0.98065 0.64723 0.0
H6540 H 0.26897 0.0373 0.64097 0.0
H6541 H 0.2523 0.01201 0.64539 0.0
H6542 H 0.26449 0.99511 0.59524 0.0
H6543 H 0.28129 0.02057 0.59081 0.0
C6544 C 0.21685 0.97793 0.61174 0.0
C6545 C 0.21376 0.97009 0.62726 0.0
C6546 C 0.23164 0.98702 0.60911 0.0
C6547 C 0.24359 0.98863 0.62202 0.0
C6548 C 0.24108 0.97973 0.6371 0.0
C6549 C 0.22633 0.97043 0.63966 0.0
C6550 C 0.2685 0.02796 0.63105 0.0
C6551 C 0.27625 0.031 0.61547 0.0
C6552 C 0.25903 0.0134 0.63363 0.0
C6553 C 0.25695 0.00163 0.6206 0.0
C6554 C 0.26577 0.00404 0.60545 0.0
C6555 C 0.27545 0.01856 0.60295 0.0
H6556 H 0.20809 0.01862 0.89203 0.0
H6557 H 0.22485 0.03137 0.84199 0.0
H6558 H 0.23355 0.00228 0.89646 0.0
H6559 H 0.25049 0.0149 0.84644 0.0
H6560 H 0.26881 0.95817 0.85293 0.0
H6561 H 0.25234 0.98356 0.84847 0.0
H6562 H 0.2649 0.00062 0.89846 0.0
H6563 H 0.28149 0.97507 0.90294 0.0
C6564 C 0.21746 0.0183 0.88214 0.0
C6565 C 0.21439 0.02608 0.86659 0.0
C6566 C 0.23213 0.00903 0.88472 0.0
C6567 C 0.24398 0.00717 0.87174 0.0
C6568 C 0.24151 0.01601 0.85662 0.0
C6569 C 0.22688 0.02549 0.8541 0.0
C6570 C 0.26845 0.96755 0.86281 0.0
C6571 C 0.27625 0.96455 0.87836 0.0
C6572 C 0.2591 0.98218 0.86021 0.0
C6573 C 0.25719 0.99404 0.87317 0.0
C6574 C 0.26605 0.99163 0.88829 0.0
C6575 C 0.2756 0.97705 0.89082 0.0
H6576 H 0.6426 0.26935 0.03611 0.0
H6577 H 0.59251 0.28214 0.01954 0.0
H6578 H 0.64695 0.25299 0.01064 0.0
H6579 H 0.59687 0.26564 0.99389 0.0
H6580 H 0.65318 0.22559 0.9628 0.0
H6581 H 0.64879 0.25126 0.97926 0.0
H6582 H 0.59885 0.23424 0.99225 0.0
H6583 H 0.60323 0.20874 0.97592 0.0
C6584 C 0.63268 0.26904 0.02678 0.0
C6585 C 0.61714 0.27683 0.0299 0.0
C6586 C 0.63522 0.25976 0.0121 0.0
C6587 C 0.62219 0.2579 0.00032 0.0
C6588 C 0.60708 0.26676 0.00283 0.0
C6589 C 0.60462 0.27625 0.01746 0.0
C6590 C 0.6411 0.2276 0.96876 0.0
C6591 C 0.62863 0.21508 0.96828 0.0
C6592 C 0.63862 0.24225 0.97823 0.0
C6593 C 0.62354 0.2447 0.98716 0.0
C6594 C 0.61056 0.23282 0.98542 0.0
C6595 C 0.61311 0.21813 0.97615 0.0
H6596 H 0.01989 0.40319 0.21297 0.0
H6597 H 0.03669 0.35318 0.22585 0.0
H6598 H 0.99416 0.39867 0.22931 0.0
H6599 H 0.01114 0.34867 0.24206 0.0
H6600 H 0.97598 0.39217 0.28611 0.0
H6601 H 0.99238 0.39667 0.26068 0.0
H6602 H 0.97974 0.34664 0.24364 0.0
H6603 H 0.96321 0.34213 0.26924 0.0
C6604 C 0.01785 0.39106 0.21884 0.0
C6605 C 0.03038 0.37861 0.21834 0.0
C6606 C 0.00317 0.3885 0.22825 0.0
C6607 C 0.0007 0.37337 0.23709 0.0
C6608 C 0.01258 0.36042 0.2353 0.0
C6609 C 0.0273 0.36304 0.2261 0.0
C6610 C 0.9763 0.3823 0.27673 0.0
C6611 C 0.96851 0.36672 0.27975 0.0
C6612 C 0.9856 0.38492 0.26207 0.0
C6613 C 0.98747 0.37195 0.25022 0.0
C6614 C 0.97861 0.35681 0.25264 0.0
C6615 C 0.9691 0.35426 0.26724 0.0
H6616 H 0.84218 0.77019 0.46296 0.0
H6617 H 0.8921 0.78715 0.476 0.0
H6618 H 0.84674 0.7444 0.47917 0.0
H6619 H 0.89665 0.76154 0.4921 0.0
H6620 H 0.85314 0.72598 0.53587 0.0
H6621 H 0.84866 0.74244 0.5105 0.0
H6622 H 0.89878 0.73016 0.49356 0.0
H6623 H 0.90328 0.71357 0.5191 0.0
C6624 C 0.85429 0.76818 0.46884 0.0
C6625 C 0.86671 0.78076 0.46843 0.0
C6626 C 0.85687 0.75346 0.47818 0.0
C6627 C 0.87199 0.75101 0.48703 0.0
C6628 C 0.88491 0.76296 0.48533 0.0
C6629 C 0.88226 0.77771 0.4762 0.0
C6630 C 0.86304 0.72639 0.52652 0.0
C6631 C 0.87864 0.71868 0.52956 0.0
C6632 C 0.86043 0.73573 0.5119 0.0
C6633 C 0.87343 0.73773 0.50009 0.0
C6634 C 0.88859 0.72894 0.50251 0.0
C6635 C 0.89114 0.71939 0.51709 0.0
H6636 H 0.97593 0.60334 0.20915 0.0
H6637 H 0.96349 0.65353 0.22577 0.0
H6638 H 0.99233 0.5989 0.23457 0.0
H6639 H 0.98003 0.64908 0.25136 0.0
H6640 H 0.01978 0.5925 0.28231 0.0
H6641 H 0.9941 0.59707 0.26596 0.0
H6642 H 0.01144 0.64688 0.25288 0.0
H6643 H 0.03696 0.64233 0.2691 0.0
C6644 C 0.97632 0.61326 0.21848 0.0
C6645 C 0.96862 0.62885 0.21539 0.0
C6646 C 0.98563 0.61067 0.23313 0.0
C6647 C 0.98759 0.6237 0.24491 0.0
C6648 C 0.97882 0.63887 0.24243 0.0
C6649 C 0.9693 0.64138 0.22783 0.0
C6650 C 0.01784 0.6046 0.27636 0.0
C6651 C 0.03045 0.61698 0.27678 0.0
C6652 C 0.00318 0.60718 0.26695 0.0
C6653 C 0.00082 0.62227 0.25802 0.0
C6654 C 0.01279 0.63517 0.25971 0.0
C6655 C 0.02749 0.63252 0.26892 0.0
H6656 H 0.45896 0.35323 0.76899 0.0
H6657 H 0.47582 0.40324 0.78189 0.0
H6658 H 0.48448 0.34875 0.75273 0.0
H6659 H 0.50152 0.39875 0.7655 0.0
H6660 H 0.53227 0.34225 0.72537 0.0
H6661 H 0.51586 0.34673 0.75105 0.0
H6662 H 0.50324 0.39679 0.73414 0.0
H6663 H 0.51952 0.39231 0.70863 0.0
C6664 C 0.46836 0.3631 0.76873 0.0
C6665 C 0.46531 0.37866 0.77651 0.0
C6666 C 0.48307 0.36048 0.7595 0.0
C6667 C 0.49496 0.37345 0.75771 0.0
C6668 C 0.4925 0.38858 0.76657 0.0
C6669 C 0.47784 0.39112 0.776 0.0
C6670 C 0.52642 0.35438 0.72742 0.0
C6671 C 0.52697 0.36686 0.71492 0.0
C6672 C 0.51697 0.35691 0.74207 0.0
C6673 C 0.50814 0.37205 0.74454 0.0
C6674 C 0.50999 0.38504 0.7327 0.0
C6675 C 0.51923 0.38243 0.71801 0.0
H6676 H 0.97581 0.89092 0.71014 0.0
H6677 H 0.96415 0.84015 0.72554 0.0
H6678 H 0.99259 0.89484 0.73543 0.0
H6679 H 0.98111 0.84405 0.75094 0.0
H6680 H 0.02041 0.90009 0.78325 0.0
H6681 H 0.99459 0.89562 0.76707 0.0
H6682 H 0.01274 0.84678 0.75173 0.0
H6683 H 0.03843 0.85126 0.76774 0.0
C6684 C 0.97646 0.88076 0.71919 0.0
C6685 C 0.96884 0.86517 0.71579 0.0
C6686 C 0.98599 0.88303 0.73374 0.0
C6687 C 0.98829 0.8697 0.7451 0.0
C6688 C 0.97963 0.8545 0.74233 0.0
C6689 C 0.96987 0.8523 0.72785 0.0
C6690 C 0.01863 0.8882 0.77684 0.0
C6691 C 0.0315 0.87611 0.77657 0.0
C6692 C 0.00389 0.88568 0.76752 0.0
C6693 C 0.0017 0.87091 0.75803 0.0
C6694 C 0.01397 0.85823 0.75901 0.0
C6695 C 0.02876 0.86085 0.7681 0.0
H6696 H 0.84216 0.27005 0.53164 0.0
H6697 H 0.89216 0.28694 0.51873 0.0
H6698 H 0.84668 0.24434 0.51528 0.0
H6699 H 0.89666 0.26139 0.50251 0.0
H6700 H 0.85325 0.22604 0.45852 0.0
H6701 H 0.84872 0.24252 0.4839 0.0
H6702 H 0.8987 0.22996 0.50103 0.0
H6703 H 0.90323 0.21335 0.47549 0.0
C6704 C 0.85428 0.26804 0.52575 0.0
C6705 C 0.86673 0.28058 0.52626 0.0
C6706 C 0.85684 0.25337 0.51634 0.0
C6707 C 0.87197 0.25091 0.50749 0.0
C6708 C 0.88492 0.26282 0.50927 0.0
C6709 C 0.88229 0.27753 0.51847 0.0
C6710 C 0.8631 0.2264 0.46792 0.0
C6711 C 0.87867 0.21861 0.46494 0.0
C6712 C 0.86046 0.23575 0.48254 0.0
C6713 C 0.87341 0.23766 0.4944 0.0
C6714 C 0.88854 0.2288 0.49203 0.0
C6715 C 0.89111 0.21924 0.47746 0.0
H6716 H 0.47584 0.09209 0.28153 0.0
H6717 H 0.45915 0.14218 0.2688 0.0
H6718 H 0.50148 0.09653 0.26504 0.0
H6719 H 0.48463 0.14661 0.25245 0.0
H6720 H 0.51929 0.10307 0.2081 0.0
H6721 H 0.50303 0.09859 0.23363 0.0
H6722 H 0.51606 0.14849 0.25073 0.0
H6723 H 0.53246 0.15298 0.22505 0.0
C6724 C 0.47789 0.10422 0.27566 0.0
C6725 C 0.46542 0.11671 0.27625 0.0
C6726 C 0.49252 0.10673 0.26617 0.0
C6727 C 0.495 0.12186 0.25733 0.0
C6728 C 0.48318 0.13486 0.25921 0.0
C6729 C 0.46851 0.13228 0.26848 0.0
C6730 C 0.51908 0.11291 0.21752 0.0
C6731 C 0.52695 0.12845 0.2145 0.0
C6732 C 0.50986 0.1103 0.23222 0.0
C6733 C 0.50814 0.12325 0.24413 0.0
C6734 C 0.51708 0.13834 0.2417 0.0
C6735 C 0.52651 0.14088 0.22705 0.0
H6736 H 0.65497 0.72541 0.03074 0.0
H6737 H 0.60441 0.7097 0.01861 0.0
H6738 H 0.65107 0.75089 0.01387 0.0
H6739 H 0.6005 0.73506 0.00192 0.0
H6740 H 0.64429 0.76822 0.95672 0.0
H6741 H 0.64862 0.75194 0.98226 0.0
H6742 H 0.59952 0.76673 0.00013 0.0
H6743 H 0.59519 0.78317 0.97447 0.0
C6744 C 0.64286 0.72766 0.02493 0.0
C6745 C 0.63006 0.7155 0.0258 0.0
C6746 C 0.64066 0.74219 0.01522 0.0
C6747 C 0.62553 0.74491 0.00647 0.0
C6748 C 0.61226 0.73343 0.0086 0.0
C6749 C 0.61453 0.71883 0.01808 0.0
C6750 C 0.6346 0.76839 0.9663 0.0
C6751 C 0.61932 0.77679 0.96352 0.0
C6752 C 0.63714 0.75915 0.98101 0.0
C6753 C 0.62435 0.75795 0.99315 0.0
C6754 C 0.60954 0.76736 0.99093 0.0
C6755 C 0.6071 0.77682 0.97628 0.0
H6756 H 0.96364 0.15481 0.77034 0.0
H6757 H 0.97604 0.10424 0.78578 0.0
H6758 H 0.98049 0.15108 0.74482 0.0
H6759 H 0.99271 0.1005 0.76038 0.0
H6760 H 0.03772 0.14462 0.72744 0.0
H6761 H 0.01214 0.14878 0.74374 0.0
H6762 H 0.99446 0.09965 0.72872 0.0
H6763 H 0.02016 0.0955 0.71225 0.0
C6764 C 0.96951 0.14273 0.76802 0.0
C6765 C 0.96871 0.12988 0.78012 0.0
C6766 C 0.97921 0.14063 0.75347 0.0
C6767 C 0.98803 0.12555 0.75067 0.0
C6768 C 0.98597 0.11221 0.76209 0.0
C6769 C 0.9765 0.1144 0.77671 0.0
C6770 C 0.02817 0.1349 0.72721 0.0
C6771 C 0.03101 0.11966 0.71874 0.0
C6772 C 0.01344 0.13733 0.73647 0.0
C6773 C 0.00135 0.12448 0.73762 0.0
C6774 C 0.00363 0.10972 0.72814 0.0
C6775 C 0.01829 0.10738 0.71866 0.0
H6776 H 0.59203 0.21337 0.51899 0.0
H6777 H 0.64208 0.22619 0.53572 0.0
H6778 H 0.59651 0.2298 0.49333 0.0
H6779 H 0.64655 0.24249 0.51023 0.0
H6780 H 0.65303 0.26981 0.46241 0.0
H6781 H 0.64852 0.24415 0.47885 0.0
H6782 H 0.59855 0.2612 0.49162 0.0
H6783 H 0.60306 0.28669 0.47531 0.0
C6784 C 0.60415 0.21925 0.51695 0.0
C6785 C 0.61663 0.2187 0.52943 0.0
C6786 C 0.60669 0.22871 0.50231 0.0
C6787 C 0.62182 0.23756 0.49983 0.0
C6788 C 0.6348 0.23573 0.51167 0.0
C6789 C 0.6322 0.22648 0.52635 0.0
C6790 C 0.64091 0.2678 0.46831 0.0
C6791 C 0.62847 0.28033 0.46778 0.0
C6792 C 0.63836 0.25316 0.47777 0.0
C6793 C 0.62324 0.25072 0.48665 0.0
C6794 C 0.61029 0.2626 0.48484 0.0
C6795 C 0.61291 0.27729 0.47558 0.0
H6796 H 0.53218 0.84238 0.26958 0.0
H6797 H 0.51922 0.8924 0.2863 0.0
H6798 H 0.51593 0.84684 0.24382 0.0
H6799 H 0.50309 0.89685 0.26072 0.0
H6800 H 0.45917 0.85323 0.2255 0.0
H6801 H 0.48458 0.84879 0.24192 0.0
H6802 H 0.50158 0.89885 0.22936 0.0
H6803 H 0.476 0.90331 0.21281 0.0
C6804 C 0.52631 0.85449 0.26752 0.0
C6805 C 0.52676 0.86696 0.28003 0.0
C6806 C 0.51696 0.85702 0.25282 0.0
C6807 C 0.50811 0.87214 0.25031 0.0
C6808 C 0.50985 0.88512 0.26218 0.0
C6809 C 0.519 0.88252 0.27692 0.0
C6810 C 0.46854 0.86312 0.22584 0.0
C6811 C 0.46551 0.87869 0.21807 0.0
C6812 C 0.48318 0.86053 0.23516 0.0
C6813 C 0.49502 0.87353 0.23706 0.0
C6814 C 0.4926 0.88866 0.22821 0.0
C6815 C 0.47801 0.89118 0.21868 0.0
H6816 H 0.90319 0.78199 0.01943 0.0
H6817 H 0.8532 0.76899 0.03625 0.0
H6818 H 0.89873 0.7656 0.99374 0.0
H6819 H 0.84875 0.75273 0.01073 0.0
H6820 H 0.89233 0.70875 0.97556 0.0
H6821 H 0.89678 0.73421 0.99194 0.0
H6822 H 0.84673 0.75113 0.97937 0.0
H6823 H 0.84227 0.7255 0.96286 0.0
C6824 C 0.89108 0.77608 0.01741 0.0
C6825 C 0.87862 0.77657 0.02992 0.0
C6826 C 0.88856 0.76664 0.00275 0.0
C6827 C 0.87344 0.75776 0.00028 0.0
C6828 C 0.86047 0.75952 0.01216 0.0
C6829 C 0.86307 0.76875 0.02686 0.0
C6830 C 0.88244 0.71812 0.97589 0.0
C6831 C 0.86687 0.71505 0.96813 0.0
C6832 C 0.88503 0.73279 0.98518 0.0
C6833 C 0.87204 0.74462 0.98707 0.0
C6834 C 0.85692 0.74216 0.97823 0.0
C6835 C 0.85439 0.72754 0.96873 0.0
H6836 H 0.70685 0.97806 0.89382 0.0
H6837 H 0.72478 0.96249 0.845 0.0
H6838 H 0.73258 0.99409 0.89822 0.0
H6839 H 0.75063 0.97867 0.84938 0.0
H6840 H 0.76962 0.03558 0.85396 0.0
H6841 H 0.75277 0.0103 0.85011 0.0
H6842 H 0.76418 0.99487 0.90089 0.0
H6843 H 0.78121 0.02027 0.90472 0.0
C6844 C 0.71651 0.9777 0.88421 0.0
C6845 C 0.71373 0.9692 0.86899 0.0
C6846 C 0.73132 0.98679 0.88678 0.0
C6847 C 0.74358 0.98775 0.87408 0.0
C6848 C 0.74134 0.97823 0.85934 0.0
C6849 C 0.72659 0.96892 0.85686 0.0
C6850 C 0.76895 0.02655 0.86414 0.0
C6851 C 0.77656 0.02998 0.87969 0.0
C6852 C 0.75938 0.012 0.8619 0.0
C6853 C 0.75703 0.00066 0.87525 0.0
C6854 C 0.76569 0.00345 0.89042 0.0
C6855 C 0.7755 0.01794 0.89258 0.0
H6856 H 0.76916 0.95888 0.64273 0.0
H6857 H 0.7826 0.97566 0.59287 0.0
H6858 H 0.75283 0.98441 0.64699 0.0
H6859 H 0.76612 0.00133 0.59714 0.0
H6860 H 0.72576 0.03254 0.6531 0.0
H6861 H 0.75134 0.01591 0.64889 0.0
H6862 H 0.73464 0.003 0.59887 0.0
H6863 H 0.70921 0.01948 0.60308 0.0
C6864 C 0.769 0.96826 0.63285 0.0
C6865 C 0.77697 0.96519 0.61739 0.0
C6866 C 0.75973 0.98296 0.63534 0.0
C6867 C 0.75807 0.99482 0.62235 0.0
C6868 C 0.76709 0.99234 0.60733 0.0
C6869 C 0.77657 0.97769 0.60492 0.0
C6870 C 0.72783 0.02657 0.64103 0.0
C6871 C 0.71541 0.02711 0.62849 0.0
C6872 C 0.74242 0.017 0.63866 0.0
C6873 C 0.74493 0.00804 0.62361 0.0
C6874 C 0.73317 0.00985 0.61056 0.0
C6875 C 0.71852 0.01921 0.61301 0.0
H6876 H 0.72533 0.95921 0.35332 0.0
H6877 H 0.71279 0.97609 0.40336 0.0
H6878 H 0.74166 0.98469 0.34873 0.0
H6879 H 0.72926 0.00174 0.39877 0.0
H6880 H 0.7862 0.01951 0.39198 0.0
H6881 H 0.76064 0.00332 0.3966 0.0
H6882 H 0.74347 0.01608 0.34671 0.0
H6883 H 0.7692 0.0324 0.34208 0.0
C6884 C 0.72568 0.96861 0.36317 0.0
C6885 C 0.71799 0.96557 0.37877 0.0
C6886 C 0.73495 0.98329 0.3605 0.0
C6887 C 0.73688 0.99516 0.37345 0.0
C6888 C 0.72809 0.99274 0.38861 0.0
C6889 C 0.71861 0.9781 0.39121 0.0
C6890 C 0.77676 0.01926 0.38217 0.0
C6891 C 0.77978 0.02702 0.3666 0.0
C6892 C 0.76204 0.01008 0.38486 0.0
C6893 C 0.7501 0.0083 0.37196 0.0
C6894 C 0.75252 0.01714 0.35683 0.0
C6895 C 0.7672 0.02653 0.35421 0.0
H6896 H 0.71333 0.01928 0.09157 0.0
H6897 H 0.72593 0.03623 0.14158 0.0
H6898 H 0.72982 0.99366 0.09615 0.0
H6899 H 0.74228 0.01078 0.14615 0.0
H6900 H 0.7867 0.97581 0.10285 0.0
H6901 H 0.76121 0.99208 0.09827 0.0
H6902 H 0.74401 0.97938 0.14819 0.0
H6903 H 0.76967 0.96298 0.15278 0.0
C6904 C 0.71917 0.01729 0.10371 0.0
C6905 C 0.71854 0.02983 0.11614 0.0
C6906 C 0.72866 0.00268 0.1063 0.0
C6907 C 0.73746 0.00028 0.12145 0.0
C6908 C 0.73556 0.01216 0.13439 0.0
C6909 C 0.72627 0.02682 0.13173 0.0
C6910 C 0.77727 0.97609 0.11269 0.0
C6911 C 0.78026 0.96832 0.12825 0.0
C6912 C 0.76258 0.98532 0.11001 0.0
C6913 C 0.75066 0.98714 0.12293 0.0
C6914 C 0.75305 0.9783 0.13806 0.0
C6915 C 0.76769 0.96886 0.14066 0.0
H6916 H 0.40342 0.71282 0.97579 0.0
H6917 H 0.35336 0.72552 0.95905 0.0
H6918 H 0.39892 0.72925 0.00145 0.0
H6919 H 0.34887 0.7418 0.98454 0.0
H6920 H 0.3424 0.76927 0.03226 0.0
H6921 H 0.34694 0.74353 0.01594 0.0
H6922 H 0.39685 0.76068 0.003 0.0
H6923 H 0.39232 0.78625 0.01919 0.0
C6924 C 0.39129 0.71866 0.97784 0.0
C6925 C 0.37882 0.7181 0.96534 0.0
C6926 C 0.38874 0.72812 0.99248 0.0
C6927 C 0.3736 0.73694 0.99495 0.0
C6928 C 0.36062 0.73507 0.98311 0.0
C6929 C 0.36324 0.72582 0.96842 0.0
C6930 C 0.35451 0.76727 0.02636 0.0
C6931 C 0.36693 0.77984 0.02679 0.0
C6932 C 0.35708 0.75258 0.01696 0.0
C6933 C 0.37219 0.75015 0.00808 0.0
C6934 C 0.38512 0.76209 0.0098 0.0
C6935 C 0.38248 0.77682 0.01898 0.0
H6936 H 0.95881 0.64239 0.76895 0.0
H6937 H 0.97566 0.59233 0.78159 0.0
H6938 H 0.98432 0.64696 0.75267 0.0
H6939 H 0.00133 0.59691 0.76517 0.0
H6940 H 0.03216 0.65357 0.72534 0.0
H6941 H 0.01573 0.64897 0.75099 0.0
H6942 H 0.00296 0.59904 0.73378 0.0
H6943 H 0.01925 0.60362 0.7083 0.0
C6944 C 0.96821 0.63253 0.76863 0.0
C6945 C 0.96516 0.61693 0.77634 0.0
C6946 C 0.9829 0.63519 0.75939 0.0
C6947 C 0.99477 0.62223 0.75751 0.0
C6948 C 0.99233 0.60707 0.76631 0.0
C6949 C 0.97768 0.60448 0.77576 0.0
C6950 C 0.02626 0.64144 0.72731 0.0
C6951 C 0.02679 0.62903 0.71475 0.0
C6952 C 0.01681 0.63884 0.74194 0.0
C6953 C 0.00794 0.6237 0.74433 0.0
C6954 C 0.00974 0.61078 0.73241 0.0
C6955 C 0.01898 0.61346 0.71773 0.0
H6956 H 0.09002 0.28092 0.47556 0.0
H6957 H 0.14082 0.26944 0.46016 0.0
H6958 H 0.09396 0.26399 0.50098 0.0
H6959 H 0.14477 0.25269 0.48546 0.0
H6960 H 0.15009 0.22482 0.53321 0.0
H6961 H 0.14558 0.25064 0.51704 0.0
H6962 H 0.09672 0.23241 0.50184 0.0
H6963 H 0.10124 0.20672 0.51785 0.0
C6964 C 0.10219 0.27525 0.47787 0.0
C6965 C 0.11505 0.2763 0.4658 0.0
C6966 C 0.10441 0.2655 0.49237 0.0
C6967 C 0.11962 0.25691 0.49514 0.0
C6968 C 0.13295 0.25925 0.48378 0.0
C6969 C 0.13065 0.26876 0.46921 0.0
C6970 C 0.13819 0.22658 0.52682 0.0
C6971 C 0.1261 0.21368 0.52659 0.0
C6972 C 0.13564 0.24132 0.51753 0.0
C6973 C 0.12085 0.24349 0.50807 0.0
C6974 C 0.10818 0.2312 0.50909 0.0
C6975 C 0.11082 0.21641 0.51817 0.0
H6976 H 0.95907 0.35299 0.72553 0.0
H6977 H 0.97581 0.40311 0.71291 0.0
H6978 H 0.98449 0.34857 0.74194 0.0
H6979 H 0.0014 0.39868 0.72946 0.0
H6980 H 0.03219 0.3422 0.7695 0.0
H6981 H 0.01588 0.34669 0.74379 0.0
H6982 H 0.00291 0.39661 0.76083 0.0
H6983 H 0.01909 0.39214 0.78638 0.0
C6984 C 0.96843 0.3629 0.72589 0.0
C6985 C 0.96537 0.37847 0.71814 0.0
C6986 C 0.98307 0.36032 0.7352 0.0
C6987 C 0.99489 0.37333 0.73712 0.0
C6988 C 0.99244 0.38847 0.72829 0.0
C6989 C 0.97784 0.39098 0.71877 0.0
C6990 C 0.02628 0.35431 0.76749 0.0
C6991 C 0.02671 0.36675 0.78003 0.0
C6992 C 0.01688 0.35684 0.75281 0.0
C6993 C 0.00799 0.37194 0.75035 0.0
C6994 C 0.00971 0.38489 0.76226 0.0
C6995 C 0.01889 0.38229 0.77698 0.0
H6996 H 0.46321 0.65326 0.26959 0.0
H6997 H 0.47636 0.60332 0.28639 0.0
H6998 H 0.47971 0.64891 0.24395 0.0
H6999 H 0.49273 0.59898 0.2609 0.0
H7000 H 0.53655 0.64273 0.22565 0.0
H7001 H 0.51116 0.64706 0.24218 0.0
H7002 H 0.49422 0.59702 0.22945 0.0
H7003 H 0.51976 0.59268 0.21278 0.0
C7004 C 0.46918 0.64119 0.26757 0.0
C7005 C 0.46869 0.62871 0.28007 0.0
C7006 C 0.47868 0.63873 0.25294 0.0
C7007 C 0.48763 0.62366 0.25048 0.0
C7008 C 0.48589 0.61067 0.26233 0.0
C7009 C 0.4766 0.61321 0.27701 0.0
C7010 C 0.52719 0.63282 0.22598 0.0
C7011 C 0.53022 0.6173 0.21811 0.0
C7012 C 0.51257 0.63534 0.23537 0.0
C7013 C 0.50075 0.62232 0.23724 0.0
C7014 C 0.50318 0.60723 0.22832 0.0
C7015 C 0.51775 0.60478 0.21872 0.0
H7016 H 0.51936 0.60312 0.78596 0.0
H7017 H 0.53215 0.65329 0.76949 0.0
H7018 H 0.50305 0.5988 0.76046 0.0
H7019 H 0.51571 0.64895 0.74382 0.0
H7020 H 0.47569 0.59261 0.71264 0.0
H7021 H 0.50135 0.59702 0.72908 0.0
H7022 H 0.48432 0.64692 0.74215 0.0
H7023 H 0.45883 0.64252 0.72584 0.0
C7024 C 0.51907 0.61306 0.77665 0.0
C7025 C 0.52684 0.62861 0.7798 0.0
C7026 C 0.50981 0.61054 0.76196 0.0
C7027 C 0.50796 0.62359 0.75019 0.0
C7028 C 0.51681 0.63872 0.75274 0.0
C7029 C 0.52628 0.64117 0.76739 0.0
C7030 C 0.4777 0.60469 0.7186 0.0
C7031 C 0.46518 0.61714 0.71816 0.0
C7032 C 0.49235 0.60718 0.72807 0.0
C7033 C 0.49478 0.62225 0.73703 0.0
C7034 C 0.48291 0.63522 0.73531 0.0
C7035 C 0.46822 0.63266 0.72605 0.0
H7036 H 0.85286 0.26988 0.95935 0.0
H7037 H 0.90293 0.28279 0.97597 0.0
H7038 H 0.84842 0.2537 0.98492 0.0
H7039 H 0.89847 0.26648 0.00171 0.0
H7040 H 0.89205 0.20955 0.01965 0.0
H7041 H 0.89651 0.23511 0.00345 0.0
H7042 H 0.84649 0.252 0.01626 0.0
H7043 H 0.84203 0.22625 0.03258 0.0
C7044 C 0.86275 0.26965 0.96871 0.0
C7045 C 0.87832 0.27739 0.96557 0.0
C7046 C 0.86016 0.26047 0.98344 0.0
C7047 C 0.87316 0.25868 0.99527 0.0
C7048 C 0.88828 0.26754 0.99274 0.0
C7049 C 0.8908 0.27692 0.97805 0.0
C7050 C 0.88218 0.21893 0.01942 0.0
C7051 C 0.86662 0.21581 0.02718 0.0
C7052 C 0.88477 0.23366 0.01022 0.0
C7053 C 0.87179 0.24551 0.00845 0.0
C7054 C 0.85667 0.24301 0.01731 0.0
C7055 C 0.85415 0.22832 0.02671 0.0
H7056 H 0.64208 0.72631 0.45881 0.0
H7057 H 0.59216 0.71331 0.47581 0.0
H7058 H 0.64663 0.74258 0.4843 0.0
H7059 H 0.59671 0.72971 0.50147 0.0
H7060 H 0.65327 0.76971 0.53226 0.0
H7061 H 0.64875 0.74413 0.51569 0.0
H7062 H 0.59869 0.76112 0.50328 0.0
H7063 H 0.6032 0.78654 0.51972 0.0
C7064 C 0.63224 0.72655 0.46823 0.0
C7065 C 0.61669 0.71873 0.46523 0.0
C7066 C 0.63489 0.73579 0.48292 0.0
C7067 C 0.62197 0.73755 0.49484 0.0
C7068 C 0.60685 0.72867 0.49243 0.0
C7069 C 0.60427 0.71922 0.47779 0.0
C7070 C 0.64113 0.7677 0.52641 0.0
C7071 C 0.62866 0.7802 0.52708 0.0
C7072 C 0.63858 0.75311 0.51687 0.0
C7073 C 0.62342 0.75068 0.50806 0.0
C7074 C 0.61045 0.76252 0.51001 0.0
C7075 C 0.61308 0.77716 0.51934 0.0
H7076 H 0.71324 0.47592 0.5914 0.0
H7077 H 0.72572 0.45928 0.64152 0.0
H7078 H 0.7298 0.50153 0.59583 0.0
H7079 H 0.74215 0.48472 0.64595 0.0
H7080 H 0.76987 0.53237 0.65228 0.0
H7081 H 0.74408 0.51611 0.64778 0.0
H7082 H 0.7612 0.50299 0.59794 0.0
H7083 H 0.78681 0.51912 0.60243 0.0
C7084 C 0.71906 0.47798 0.60353 0.0
C7085 C 0.71839 0.46553 0.61604 0.0
C7086 C 0.7286 0.49259 0.60603 0.0
C7087 C 0.7374 0.49507 0.62118 0.0
C7088 C 0.73543 0.48328 0.63419 0.0
C7089 C 0.7261 0.46863 0.63161 0.0
C7090 C 0.76785 0.52643 0.64019 0.0
C7091 C 0.78043 0.5268 0.62779 0.0
C7092 C 0.75314 0.51708 0.63764 0.0
C7093 C 0.75068 0.50815 0.62256 0.0
C7094 C 0.76262 0.50981 0.60964 0.0
C7095 C 0.77738 0.51896 0.61226 0.0
H7096 H 0.71305 0.51944 0.90249 0.0
H7097 H 0.72599 0.53636 0.85255 0.0
H7098 H 0.72945 0.49376 0.89796 0.0
H7099 H 0.74226 0.51085 0.84803 0.0
H7100 H 0.78635 0.47581 0.8915 0.0
H7101 H 0.76086 0.4921 0.89598 0.0
H7102 H 0.7439 0.47944 0.84598 0.0
H7103 H 0.76956 0.46301 0.84149 0.0
C7104 C 0.71895 0.51744 0.89038 0.0
C7105 C 0.71845 0.52998 0.87795 0.0
C7106 C 0.72839 0.50279 0.88781 0.0
C7107 C 0.73726 0.50036 0.8727 0.0
C7108 C 0.73547 0.51225 0.85976 0.0
C7109 C 0.72624 0.52695 0.8624 0.0
C7110 C 0.77697 0.4761 0.88163 0.0
C7111 C 0.78004 0.46833 0.86607 0.0
C7112 C 0.76228 0.48534 0.88424 0.0
C7113 C 0.75043 0.48718 0.87128 0.0
C7114 C 0.75289 0.47834 0.85615 0.0
C7115 C 0.76753 0.46888 0.85361 0.0
H7116 H 0.78245 0.51961 0.0921 0.0
H7117 H 0.76951 0.53662 0.14201 0.0
H7118 H 0.76591 0.494 0.09661 0.0
H7119 H 0.75309 0.51118 0.1465 0.0
H7120 H 0.7089 0.47629 0.10293 0.0
H7121 H 0.7345 0.49248 0.09851 0.0
H7122 H 0.75125 0.47978 0.14856 0.0
H7123 H 0.72548 0.46346 0.15299 0.0
C7124 C 0.77653 0.51764 0.10421 0.0
C7125 C 0.77706 0.53019 0.11663 0.0
C7126 C 0.767 0.50302 0.10676 0.0
C7127 C 0.75808 0.50065 0.12185 0.0
C7128 C 0.75991 0.51254 0.13479 0.0
C7129 C 0.76922 0.5272 0.13217 0.0
C7130 C 0.71826 0.47655 0.11283 0.0
C7131 C 0.71511 0.46881 0.12838 0.0
C7132 C 0.733 0.48574 0.11025 0.0
C7133 C 0.74483 0.48753 0.12324 0.0
C7134 C 0.74228 0.47871 0.13837 0.0
C7135 C 0.72758 0.46932 0.14087 0.0
H7136 H 0.76936 0.4592 0.35263 0.0
H7137 H 0.78214 0.47623 0.40256 0.0
H7138 H 0.75301 0.48465 0.34807 0.0
H7139 H 0.76566 0.50185 0.39799 0.0
H7140 H 0.72575 0.53255 0.34141 0.0
H7141 H 0.75136 0.51606 0.34596 0.0
H7142 H 0.73426 0.50351 0.39595 0.0
H7143 H 0.70881 0.51986 0.39141 0.0
C7144 C 0.76905 0.46862 0.36246 0.0
C7145 C 0.77683 0.46564 0.37802 0.0
C7146 C 0.75977 0.48328 0.35981 0.0
C7147 C 0.75792 0.4952 0.37272 0.0
C7148 C 0.76677 0.49282 0.38785 0.0
C7149 C 0.77626 0.4782 0.39044 0.0
C7150 C 0.72773 0.52669 0.35354 0.0
C7151 C 0.7152 0.52729 0.36598 0.0
C7152 C 0.74234 0.51719 0.35611 0.0
C7153 C 0.74475 0.50837 0.37125 0.0
C7154 C 0.73287 0.51025 0.3842 0.0
C7155 C 0.71821 0.51953 0.38155 0.0
H7156 H 0.53602 0.35346 0.26917 0.0
H7157 H 0.51933 0.4036 0.28171 0.0
H7158 H 0.51057 0.34898 0.25281 0.0
H7159 H 0.49371 0.39911 0.26522 0.0
H7160 H 0.47606 0.39244 0.20829 0.0
H7161 H 0.4922 0.39698 0.23386 0.0
H7162 H 0.47919 0.34707 0.25096 0.0
H7163 H 0.46292 0.34252 0.22522 0.0
C7164 C 0.52666 0.36336 0.26881 0.0
C7165 C 0.52975 0.37896 0.27652 0.0
C7166 C 0.512 0.36075 0.25953 0.0
C7167 C 0.50019 0.37375 0.2576 0.0
C7168 C 0.50266 0.38891 0.2664 0.0
C7169 C 0.51728 0.39145 0.27589 0.0
C7170 C 0.47624 0.38261 0.21771 0.0
C7171 C 0.46843 0.36705 0.21467 0.0
C7172 C 0.48539 0.38525 0.23244 0.0
C7173 C 0.48709 0.37233 0.24437 0.0
C7174 C 0.47819 0.35721 0.24192 0.0
C7175 C 0.46883 0.35464 0.22723 0.0
H7176 H 0.0907 0.71407 0.01952 0.0
H7177 H 0.14123 0.72624 0.03526 0.0
H7178 H 0.09469 0.73089 0.99403 0.0
H7179 H 0.14523 0.74288 0.00989 0.0
H7180 H 0.10156 0.78806 0.97664 0.0
H7181 H 0.09716 0.76249 0.9929 0.0
H7182 H 0.14632 0.74465 0.97828 0.0
H7183 H 0.15072 0.77034 0.96185 0.0
C7184 C 0.10282 0.71987 0.01728 0.0
C7185 C 0.11559 0.71903 0.02945 0.0
C7186 C 0.10507 0.72956 0.00274 0.0
C7187 C 0.12022 0.73831 3e-05 0.0
C7188 C 0.13347 0.7362 0.01152 0.0
C7189 C 0.13114 0.72674 0.02613 0.0
C7190 C 0.11124 0.77847 0.9765 0.0
C7191 C 0.12656 0.78127 0.96815 0.0
C7192 C 0.10867 0.76375 0.98573 0.0
C7193 C 0.12145 0.75162 0.98698 0.0
C7194 C 0.1363 0.75386 0.97762 0.0
C7195 C 0.13878 0.76852 0.96816 0.0
H7196 H 0.40324 0.28279 0.51943 0.0
H7197 H 0.35318 0.26967 0.53595 0.0
H7198 H 0.39891 0.26651 0.49365 0.0
H7199 H 0.34887 0.25351 0.51034 0.0
H7200 H 0.34268 0.22644 0.46236 0.0
H7201 H 0.34704 0.25204 0.47893 0.0
H7202 H 0.397 0.2351 0.49179 0.0
H7203 H 0.39265 0.20966 0.47535 0.0
C7204 C 0.39114 0.27688 0.51732 0.0
C7205 C 0.37862 0.27729 0.52978 0.0
C7206 C 0.3887 0.26751 0.50261 0.0
C7207 C 0.37361 0.25861 0.50004 0.0
C7208 C 0.36058 0.26032 0.51185 0.0
C7209 C 0.3631 0.26948 0.52661 0.0
C7210 C 0.35477 0.22846 0.4683 0.0
C7211 C 0.36725 0.21597 0.46777 0.0
C7212 C 0.35723 0.24307 0.47784 0.0
C7213 C 0.3723 0.24551 0.48678 0.0
C7214 C 0.3853 0.23369 0.48496 0.0
C7215 C 0.38277 0.21903 0.47563 0.0
H7216 H 0.28179 0.51965 0.40347 0.0
H7217 H 0.26903 0.53623 0.3534 0.0
H7218 H 0.26516 0.49405 0.39917 0.0
H7219 H 0.25255 0.51079 0.3491 0.0
H7220 H 0.2082 0.47618 0.39278 0.0
H7221 H 0.23371 0.49252 0.39715 0.0
H7222 H 0.2508 0.47933 0.34733 0.0
H7223 H 0.22513 0.46285 0.34295 0.0
C7224 C 0.27588 0.51758 0.39138 0.0
C7225 C 0.27651 0.53001 0.37884 0.0
C7226 C 0.26631 0.50298 0.38895 0.0
C7227 C 0.25743 0.50048 0.37386 0.0
C7228 C 0.25933 0.51226 0.36082 0.0
C7229 C 0.26869 0.52691 0.36332 0.0
C7230 C 0.21761 0.47637 0.38293 0.0
C7231 C 0.21459 0.46843 0.36745 0.0
C7232 C 0.2323 0.48564 0.38548 0.0
C7233 C 0.24421 0.48733 0.37253 0.0
C7234 C 0.24178 0.47834 0.35749 0.0
C7235 C 0.22713 0.46886 0.35501 0.0
H7236 H 0.20878 0.51963 0.10262 0.0
H7237 H 0.2258 0.5327 0.15248 0.0
H7238 H 0.23427 0.50332 0.0981 0.0
H7239 H 0.25145 0.51627 0.14795 0.0
H7240 H 0.26959 0.45941 0.14161 0.0
H7241 H 0.25319 0.48486 0.14605 0.0
H7242 H 0.26567 0.50172 0.09597 0.0
H7243 H 0.2822 0.47612 0.09152 0.0
C7244 C 0.21821 0.51939 0.11244 0.0
C7245 C 0.21521 0.52725 0.12797 0.0
C7246 C 0.23289 0.51014 0.10981 0.0
C7247 C 0.24481 0.50838 0.12273 0.0
C7248 C 0.24241 0.5173 0.13782 0.0
C7249 C 0.22777 0.52677 0.14038 0.0
C7250 C 0.26924 0.46877 0.13171 0.0
C7251 C 0.27699 0.46569 0.11615 0.0
C7252 C 0.25993 0.48342 0.1343 0.0
C7253 C 0.25801 0.49524 0.1213 0.0
C7254 C 0.26683 0.49276 0.10616 0.0
C7255 C 0.27635 0.47816 0.10365 0.0
H7256 H 0.26949 0.53225 0.84184 0.0
H7257 H 0.28642 0.51944 0.89179 0.0
H7258 H 0.2438 0.51584 0.84642 0.0
H7259 H 0.26091 0.50316 0.89636 0.0
H7260 H 0.21306 0.47586 0.90302 0.0
H7261 H 0.22954 0.5015 0.89847 0.0
H7262 H 0.24204 0.48446 0.84845 0.0
H7263 H 0.22569 0.45899 0.85299 0.0
C7264 C 0.26749 0.52638 0.85397 0.0
C7265 C 0.28004 0.52692 0.86638 0.0
C7266 C 0.25283 0.51693 0.85656 0.0
C7267 C 0.2504 0.50809 0.87169 0.0
C7268 C 0.26231 0.50992 0.88461 0.0
C7269 C 0.27701 0.51915 0.88195 0.0
C7270 C 0.21891 0.47787 0.89089 0.0
C7271 C 0.21829 0.46534 0.87844 0.0
C7272 C 0.22839 0.4925 0.88831 0.0
C7273 C 0.23721 0.49493 0.87316 0.0
C7274 C 0.23531 0.48306 0.8602 0.0
C7275 C 0.22603 0.46838 0.86285 0.0
H7276 H 0.21296 0.5195 0.59194 0.0
H7277 H 0.22566 0.53642 0.64193 0.0
H7278 H 0.22945 0.49388 0.59647 0.0
H7279 H 0.24203 0.51098 0.64644 0.0
H7280 H 0.26957 0.46329 0.65298 0.0
H7281 H 0.24385 0.47961 0.64847 0.0
H7282 H 0.26083 0.49232 0.59848 0.0
H7283 H 0.28638 0.47613 0.60298 0.0
C7284 C 0.21882 0.51751 0.60406 0.0
C7285 C 0.21823 0.53004 0.6165 0.0
C7286 C 0.22832 0.50289 0.60662 0.0
C7287 C 0.23716 0.50048 0.62175 0.0
C7288 C 0.23528 0.51236 0.6347 0.0
C7289 C 0.22599 0.52702 0.63207 0.0
C7290 C 0.26754 0.46915 0.64086 0.0
C7291 C 0.28006 0.46864 0.62841 0.0
C7292 C 0.25286 0.47854 0.63831 0.0
C7293 C 0.25038 0.48737 0.62318 0.0
C7294 C 0.26226 0.48557 0.61022 0.0
C7295 C 0.27698 0.47639 0.61284 0.0
loop_
_geom_bond_atom_site_label_1
_geom_bond_atom_site_label_2
_geom_bond_distance
_geom_bond_site_symmetry_2
_ccdc_geom_bond_type
Mn0 O5 2.095 . S
Mn0 O15 2.162 . S
Mn0 O16 2.297 . S
Mn0 O24 2.385 . S
Mn0 O25 2.209 . S
Mn0 O26 2.094 . S
Mn1 O6 2.121 . S
Mn1 N8 2.257 . S
Mn1 N17 2.282 . S
Mn1 O25 2.215 . S
Mn1 O27 2.117 . S
C2 O24 1.234 . S
C2 O25 1.283 . S
C3 O15 1.281 . S
C3 O16 1.236 . S
C4 O26 1.240 . S
C4 O27 1.264 . S
O5 Mn0 2.095 . S
O5 C14 1.250 . S
O6 Mn1 2.121 . S
O6 C14 1.258 . S
C7 N8 1.326 . S
C7 C11 1.460 . S
C7 H13 0.929 . S
N8 Mn1 2.257 . S
N8 C7 1.326 . S
N8 C12 1.362 . S
C9 C10 1.258 . S
C9 C12 1.431 . S
C9 C29 1.449 . S
C10 C9 1.258 . S
C10 C11 1.477 . S
C10 H30 0.931 . S
C11 C7 1.460 . S
C11 C10 1.477 . S
C11 H31 0.930 . S
C12 N8 1.362 . S
C12 C9 1.431 . S
C12 C22 1.476 . S
H13 C7 0.929 . S
C14 O5 1.250 . S
C14 O6 1.258 . S
O15 Mn0 2.162 . S
O15 C3 1.281 . S
O16 Mn0 2.297 . S
O16 C3 1.236 . S
N17 Mn1 2.282 . S
N17 C18 1.328 . S
N17 C22 1.318 . S
C18 N17 1.328 . S
C18 C19 1.457 . S
C18 H23 0.929 . S
C19 C18 1.457 . S
C19 C20 1.291 . S
C19 H32 0.931 . S
C20 C19 1.291 . S
C20 C21 1.373 . S
C20 H33 0.929 . S
C21 C20 1.373 . S
C21 C22 1.396 . S
C21 C28 1.403 . S
C22 C12 1.476 . S
C22 N17 1.318 . S
C22 C21 1.396 . S
H23 C18 0.929 . S
O24 Mn0 2.385 . S
O24 C2 1.234 . S
O25 Mn0 2.209 . S
O25 Mn1 2.215 . S
O25 C2 1.283 . S
O26 Mn0 2.094 . S
O26 C4 1.240 . S
O27 Mn1 2.117 . S
O27 C4 1.264 . S
C28 C21 1.403 . S
C28 C29 1.399 . S
C28 H34 0.929 . S
C29 C9 1.449 . S
C29 C28 1.399 . S
C29 H35 0.930 . S
H30 C10 0.931 . S
H31 C11 0.930 . S
H32 C19 0.931 . S
H33 C20 0.929 . S
H34 C28 0.929 . S
H35 C29 0.930 . S
Mn36 O41 2.095 . S
Mn36 O51 2.162 . S
Mn36 O52 2.297 . S
Mn36 O60 2.385 . S
Mn36 O61 2.209 . S
Mn36 O62 2.094 . S
Mn37 O42 2.121 . S
Mn37 N44 2.257 . S
Mn37 N53 2.282 . S
Mn37 O61 2.215 . S
Mn37 O63 2.117 . S
C38 O60 1.234 . S
C38 O61 1.283 . S
C39 O51 1.281 . S
C39 O52 1.236 . S
C40 O62 1.240 . S
C40 O63 1.264 . S
O41 Mn36 2.095 . S
O41 C50 1.250 . S
O42 Mn37 2.121 . S
O42 C50 1.258 . S
C43 N44 1.326 . S
C43 C47 1.460 . S
C43 H49 0.929 . S
N44 Mn37 2.257 . S
N44 C43 1.326 . S
N44 C48 1.362 . S
C45 C46 1.258 . S
C45 C48 1.431 . S
C45 C65 1.449 . S
C46 C45 1.258 . S
C46 C47 1.477 . S
C46 H66 0.931 . S
C47 C43 1.460 . S
C47 C46 1.477 . S
C47 H67 0.930 . S
C48 N44 1.362 . S
C48 C45 1.431 . S
C48 C58 1.476 . S
H49 C43 0.929 . S
C50 O41 1.250 . S
C50 O42 1.258 . S
O51 Mn36 2.162 . S
O51 C39 1.281 . S
O52 Mn36 2.297 . S
O52 C39 1.236 . S
N53 Mn37 2.282 . S
N53 C54 1.328 . S
N53 C58 1.318 . S
C54 N53 1.328 . S
C54 C55 1.457 . S
C54 H59 0.929 . S
C55 C54 1.457 . S
C55 C56 1.291 . S
C55 H68 0.931 . S
C56 C55 1.291 . S
C56 C57 1.373 . S
C56 H69 0.929 . S
C57 C56 1.373 . S
C57 C58 1.396 . S
C57 C64 1.403 . S
C58 C48 1.476 . S
C58 N53 1.318 . S
C58 C57 1.396 . S
H59 C54 0.929 . S
O60 Mn36 2.385 . S
O60 C38 1.234 . S
O61 Mn36 2.209 . S
O61 Mn37 2.215 . S
O61 C38 1.283 . S
O62 Mn36 2.094 . S
O62 C40 1.240 . S
O63 Mn37 2.117 . S
O63 C40 1.264 . S
C64 C57 1.403 . S
C64 C65 1.399 . S
C64 H70 0.929 . S
C65 C45 1.449 . S
C65 C64 1.399 . S
C65 H71 0.930 . S
H66 C46 0.931 . S
H67 C47 0.930 . S
H68 C55 0.931 . S
H69 C56 0.929 . S
H70 C64 0.929 . S
H71 C65 0.930 . S
Mn72 O77 2.095 . S
Mn72 O87 2.162 . S
Mn72 O88 2.297 . S
Mn72 O96 2.385 . S
Mn72 O97 2.209 . S
Mn72 O98 2.094 . S
Mn73 O78 2.121 . S
Mn73 N80 2.257 . S
Mn73 N89 2.282 . S
Mn73 O97 2.215 . S
Mn73 O99 2.117 . S
C74 O96 1.234 . S
C74 O97 1.283 . S
C75 O87 1.281 . S
C75 O88 1.236 . S
C76 O98 1.240 . S
C76 O99 1.264 . S
O77 Mn72 2.095 . S
O77 C86 1.250 . S
O78 Mn73 2.121 . S
O78 C86 1.258 . S
C79 N80 1.326 . S
C79 C83 1.460 . S
C79 H85 0.929 . S
N80 Mn73 2.257 . S
N80 C79 1.326 . S
N80 C84 1.362 . S
C81 C82 1.258 . S
C81 C84 1.431 . S
C81 C101 1.449 . S
C82 C81 1.258 . S
C82 C83 1.477 . S
C82 H102 0.931 . S
C83 C79 1.460 . S
C83 C82 1.477 . S
C83 H103 0.930 . S
C84 N80 1.362 . S
C84 C81 1.431 . S
C84 C94 1.476 . S
H85 C79 0.929 . S
C86 O77 1.250 . S
C86 O78 1.258 . S
O87 Mn72 2.162 . S
O87 C75 1.281 . S
O88 Mn72 2.297 . S
O88 C75 1.236 . S
N89 Mn73 2.282 . S
N89 C90 1.328 . S
N89 C94 1.318 . S
C90 N89 1.328 . S
C90 C91 1.457 . S
C90 H95 0.929 . S
C91 C90 1.457 . S
C91 C92 1.291 . S
C91 H104 0.931 . S
C92 C91 1.291 . S
C92 C93 1.373 . S
C92 H105 0.929 . S
C93 C92 1.373 . S
C93 C94 1.396 . S
C93 C100 1.403 . S
C94 C84 1.476 . S
C94 N89 1.318 . S
C94 C93 1.396 . S
H95 C90 0.929 . S
O96 Mn72 2.385 . S
O96 C74 1.234 . S
O97 Mn72 2.209 . S
O97 Mn73 2.215 . S
O97 C74 1.283 . S
O98 Mn72 2.094 . S
O98 C76 1.240 . S
O99 Mn73 2.117 . S
O99 C76 1.264 . S
C100 C93 1.403 . S
C100 C101 1.399 . S
C100 H106 0.929 . S
C101 C81 1.449 . S
C101 C100 1.399 . S
C101 H107 0.930 . S
H102 C82 0.931 . S
H103 C83 0.930 . S
H104 C91 0.931 . S
H105 C92 0.929 . S
H106 C100 0.929 . S
H107 C101 0.930 . S
Mn108 O113 2.095 . S
Mn108 O123 2.162 . S
Mn108 O124 2.297 . S
Mn108 O132 2.385 . S
Mn108 O133 2.209 . S
Mn108 O134 2.094 . S
Mn109 O114 2.121 . S
Mn109 N116 2.257 . S
Mn109 N125 2.282 . S
Mn109 O133 2.215 . S
Mn109 O135 2.117 . S
C110 O132 1.234 . S
C110 O133 1.283 . S
C111 O123 1.281 . S
C111 O124 1.236 . S
C112 O134 1.240 . S
C112 O135 1.264 . S
O113 Mn108 2.095 . S
O113 C122 1.250 . S
O114 Mn109 2.121 . S
O114 C122 1.258 . S
C115 N116 1.326 . S
C115 C119 1.460 . S
C115 H121 0.929 . S
N116 Mn109 2.257 . S
N116 C115 1.326 . S
N116 C120 1.362 . S
C117 C118 1.258 . S
C117 C120 1.431 . S
C117 C137 1.449 . S
C118 C117 1.258 . S
C118 C119 1.477 . S
C118 H138 0.931 . S
C119 C115 1.460 . S
C119 C118 1.477 . S
C119 H139 0.930 . S
C120 N116 1.362 . S
C120 C117 1.431 . S
C120 C130 1.476 . S
H121 C115 0.929 . S
C122 O113 1.250 . S
C122 O114 1.258 . S
O123 Mn108 2.162 . S
O123 C111 1.281 . S
O124 Mn108 2.297 . S
O124 C111 1.236 . S
N125 Mn109 2.282 . S
N125 C126 1.328 . S
N125 C130 1.318 . S
C126 N125 1.328 . S
C126 C127 1.457 . S
C126 H131 0.929 . S
C127 C126 1.457 . S
C127 C128 1.291 . S
C127 H140 0.931 . S
C128 C127 1.291 . S
C128 C129 1.373 . S
C128 H141 0.929 . S
C129 C128 1.373 . S
C129 C130 1.396 . S
C129 C136 1.403 . S
C130 C120 1.476 . S
C130 N125 1.318 . S
C130 C129 1.396 . S
H131 C126 0.929 . S
O132 Mn108 2.385 . S
O132 C110 1.234 . S
O133 Mn108 2.209 . S
O133 Mn109 2.215 . S
O133 C110 1.283 . S
O134 Mn108 2.094 . S
O134 C112 1.240 . S
O135 Mn109 2.117 . S
O135 C112 1.264 . S
C136 C129 1.403 . S
C136 C137 1.399 . S
C136 H142 0.929 . S
C137 C117 1.449 . S
C137 C136 1.399 . S
C137 H143 0.930 . S
H138 C118 0.931 . S
H139 C119 0.930 . S
H140 C127 0.931 . S
H141 C128 0.929 . S
H142 C136 0.929 . S
H143 C137 0.930 . S
Mn144 O149 2.095 . S
Mn144 O159 2.162 . S
Mn144 O160 2.297 . S
Mn144 O168 2.385 . S
Mn144 O169 2.209 . S
Mn144 O170 2.094 . S
Mn145 O150 2.121 . S
Mn145 N152 2.257 . S
Mn145 N161 2.282 . S
Mn145 O169 2.215 . S
Mn145 O171 2.117 . S
C146 O168 1.234 . S
C146 O169 1.283 . S
C147 O159 1.281 . S
C147 O160 1.236 . S
C148 O170 1.240 . S
C148 O171 1.264 . S
O149 Mn144 2.095 . S
O149 C158 1.250 . S
O150 Mn145 2.121 . S
O150 C158 1.258 . S
C151 N152 1.326 . S
C151 C155 1.460 . S
C151 H157 0.929 . S
N152 Mn145 2.257 . S
N152 C151 1.326 . S
N152 C156 1.362 . S
C153 C154 1.258 . S
C153 C156 1.431 . S
C153 C173 1.449 . S
C154 C153 1.258 . S
C154 C155 1.477 . S
C154 H174 0.931 . S
C155 C151 1.460 . S
C155 C154 1.477 . S
C155 H175 0.930 . S
C156 N152 1.362 . S
C156 C153 1.431 . S
C156 C166 1.476 . S
H157 C151 0.929 . S
C158 O149 1.250 . S
C158 O150 1.258 . S
O159 Mn144 2.162 . S
O159 C147 1.281 . S
O160 Mn144 2.297 . S
O160 C147 1.236 . S
N161 Mn145 2.282 . S
N161 C162 1.328 . S
N161 C166 1.318 . S
C162 N161 1.328 . S
C162 C163 1.457 . S
C162 H167 0.929 . S
C163 C162 1.457 . S
C163 C164 1.291 . S
C163 H176 0.931 . S
C164 C163 1.291 . S
C164 C165 1.373 . S
C164 H177 0.929 . S
C165 C164 1.373 . S
C165 C166 1.396 . S
C165 C172 1.403 . S
C166 C156 1.476 . S
C166 N161 1.318 . S
C166 C165 1.396 . S
H167 C162 0.929 . S
O168 Mn144 2.385 . S
O168 C146 1.234 . S
O169 Mn144 2.209 . S
O169 Mn145 2.215 . S
O169 C146 1.283 . S
O170 Mn144 2.094 . S
O170 C148 1.240 . S
O171 Mn145 2.117 . S
O171 C148 1.264 . S
C172 C165 1.403 . S
C172 C173 1.399 . S
C172 H178 0.929 . S
C173 C153 1.449 . S
C173 C172 1.399 . S
C173 H179 0.930 . S
H174 C154 0.931 . S
H175 C155 0.930 . S
H176 C163 0.931 . S
H177 C164 0.929 . S
H178 C172 0.929 . S
H179 C173 0.930 . S
Mn180 O185 2.095 . S
Mn180 O195 2.162 . S
Mn180 O196 2.297 . S
Mn180 O204 2.385 . S
Mn180 O205 2.209 . S
Mn180 O206 2.094 . S
Mn181 O186 2.121 . S
Mn181 N188 2.257 . S
Mn181 N197 2.282 . S
Mn181 O205 2.215 . S
Mn181 O207 2.117 . S
C182 O204 1.234 . S
C182 O205 1.283 . S
C183 O195 1.281 . S
C183 O196 1.236 . S
C184 O206 1.240 . S
C184 O207 1.264 . S
O185 Mn180 2.095 . S
O185 C194 1.250 . S
O186 Mn181 2.121 . S
O186 C194 1.258 . S
C187 N188 1.326 . S
C187 C191 1.460 . S
C187 H193 0.929 . S
N188 Mn181 2.257 . S
N188 C187 1.326 . S
N188 C192 1.362 . S
C189 C190 1.258 . S
C189 C192 1.431 . S
C189 C209 1.449 . S
C190 C189 1.258 . S
C190 C191 1.477 . S
C190 H210 0.931 . S
C191 C187 1.460 . S
C191 C190 1.477 . S
C191 H211 0.930 . S
C192 N188 1.362 . S
C192 C189 1.431 . S
C192 C202 1.476 . S
H193 C187 0.929 . S
C194 O185 1.250 . S
C194 O186 1.258 . S
O195 Mn180 2.162 . S
O195 C183 1.281 . S
O196 Mn180 2.297 . S
O196 C183 1.236 . S
N197 Mn181 2.282 . S
N197 C198 1.328 . S
N197 C202 1.318 . S
C198 N197 1.328 . S
C198 C199 1.457 . S
C198 H203 0.929 . S
C199 C198 1.457 . S
C199 C200 1.291 . S
C199 H212 0.931 . S
C200 C199 1.291 . S
C200 C201 1.373 . S
C200 H213 0.929 . S
C201 C200 1.373 . S
C201 C202 1.396 . S
C201 C208 1.403 . S
C202 C192 1.476 . S
C202 N197 1.318 . S
C202 C201 1.396 . S
H203 C198 0.929 . S
O204 Mn180 2.385 . S
O204 C182 1.234 . S
O205 Mn180 2.209 . S
O205 Mn181 2.215 . S
O205 C182 1.283 . S
O206 Mn180 2.094 . S
O206 C184 1.240 . S
O207 Mn181 2.117 . S
O207 C184 1.264 . S
C208 C201 1.403 . S
C208 C209 1.399 . S
C208 H214 0.929 . S
C209 C189 1.449 . S
C209 C208 1.399 . S
C209 H215 0.930 . S
H210 C190 0.931 . S
H211 C191 0.930 . S
H212 C199 0.931 . S
H213 C200 0.929 . S
H214 C208 0.929 . S
H215 C209 0.930 . S
Mn216 O221 2.095 . S
Mn216 O231 2.162 . S
Mn216 O232 2.297 . S
Mn216 O240 2.385 . S
Mn216 O241 2.209 . S
Mn216 O242 2.094 . S
Mn217 O222 2.121 . S
Mn217 N224 2.257 . S
Mn217 N233 2.282 . S
Mn217 O241 2.215 . S
Mn217 O243 2.117 . S
C218 O240 1.234 . S
C218 O241 1.283 . S
C219 O231 1.281 . S
C219 O232 1.236 . S
C220 O242 1.240 . S
C220 O243 1.264 . S
O221 Mn216 2.095 . S
O221 C230 1.250 . S
O222 Mn217 2.121 . S
O222 C230 1.258 . S
C223 N224 1.326 . S
C223 C227 1.460 . S
C223 H229 0.929 . S
N224 Mn217 2.257 . S
N224 C223 1.326 . S
N224 C228 1.362 . S
C225 C226 1.258 . S
C225 C228 1.431 . S
C225 C245 1.449 . S
C226 C225 1.258 . S
C226 C227 1.477 . S
C226 H246 0.931 . S
C227 C223 1.460 . S
C227 C226 1.477 . S
C227 H247 0.930 . S
C228 N224 1.362 . S
C228 C225 1.431 . S
C228 C238 1.476 . S
H229 C223 0.929 . S
C230 O221 1.250 . S
C230 O222 1.258 . S
O231 Mn216 2.162 . S
O231 C219 1.281 . S
O232 Mn216 2.297 . S
O232 C219 1.236 . S
N233 Mn217 2.282 . S
N233 C234 1.328 . S
N233 C238 1.318 . S
C234 N233 1.328 . S
C234 C235 1.457 . S
C234 H239 0.929 . S
C235 C234 1.457 . S
C235 C236 1.291 . S
C235 H248 0.931 . S
C236 C235 1.291 . S
C236 C237 1.373 . S
C236 H249 0.929 . S
C237 C236 1.373 . S
C237 C238 1.396 . S
C237 C244 1.403 . S
C238 C228 1.476 . S
C238 N233 1.318 . S
C238 C237 1.396 . S
H239 C234 0.929 . S
O240 Mn216 2.385 . S
O240 C218 1.234 . S
O241 Mn216 2.209 . S
O241 Mn217 2.215 . S
O241 C218 1.283 . S
O242 Mn216 2.094 . S
O242 C220 1.240 . S
O243 Mn217 2.117 . S
O243 C220 1.264 . S
C244 C237 1.403 . S
C244 C245 1.399 . S
C244 H250 0.929 . S
C245 C225 1.449 . S
C245 C244 1.399 . S
C245 H251 0.930 . S
H246 C226 0.931 . S
H247 C227 0.930 . S
H248 C235 0.931 . S
H249 C236 0.929 . S
H250 C244 0.929 . S
H251 C245 0.930 . S
Mn252 O257 2.095 . S
Mn252 O267 2.162 . S
Mn252 O268 2.297 . S
Mn252 O276 2.385 . S
Mn252 O277 2.209 . S
Mn252 O278 2.094 . S
Mn253 O258 2.121 . S
Mn253 N260 2.257 . S
Mn253 N269 2.282 . S
Mn253 O277 2.215 . S
Mn253 O279 2.117 . S
C254 O276 1.234 . S
C254 O277 1.283 . S
C255 O267 1.281 . S
C255 O268 1.236 . S
C256 O278 1.240 . S
C256 O279 1.264 . S
O257 Mn252 2.095 . S
O257 C266 1.250 . S
O258 Mn253 2.121 . S
O258 C266 1.258 . S
C259 N260 1.326 . S
C259 C263 1.460 . S
C259 H265 0.929 . S
N260 Mn253 2.257 . S
N260 C259 1.326 . S
N260 C264 1.362 . S
C261 C262 1.258 . S
C261 C264 1.431 . S
C261 C281 1.449 . S
C262 C261 1.258 . S
C262 C263 1.477 . S
C262 H282 0.931 . S
C263 C259 1.460 . S
C263 C262 1.477 . S
C263 H283 0.930 . S
C264 N260 1.362 . S
C264 C261 1.431 . S
C264 C274 1.476 . S
H265 C259 0.929 . S
C266 O257 1.250 . S
C266 O258 1.258 . S
O267 Mn252 2.162 . S
O267 C255 1.281 . S
O268 Mn252 2.297 . S
O268 C255 1.236 . S
N269 Mn253 2.282 . S
N269 C270 1.328 . S
N269 C274 1.318 . S
C270 N269 1.328 . S
C270 C271 1.457 . S
C270 H275 0.929 . S
C271 C270 1.457 . S
C271 C272 1.291 . S
C271 H284 0.931 . S
C272 C271 1.291 . S
C272 C273 1.373 . S
C272 H285 0.929 . S
C273 C272 1.373 . S
C273 C274 1.396 . S
C273 C280 1.403 . S
C274 C264 1.476 . S
C274 N269 1.318 . S
C274 C273 1.396 . S
H275 C270 0.929 . S
O276 Mn252 2.385 . S
O276 C254 1.234 . S
O277 Mn252 2.209 . S
O277 Mn253 2.215 . S
O277 C254 1.283 . S
O278 Mn252 2.094 . S
O278 C256 1.240 . S
O279 Mn253 2.117 . S
O279 C256 1.264 . S
C280 C273 1.403 . S
C280 C281 1.399 . S
C280 H286 0.929 . S
C281 C261 1.449 . S
C281 C280 1.399 . S
C281 H287 0.930 . S
H282 C262 0.931 . S
H283 C263 0.930 . S
H284 C271 0.931 . S
H285 C272 0.929 . S
H286 C280 0.929 . S
H287 C281 0.930 . S
Mn288 O293 2.095 . S
Mn288 O303 2.162 . S
Mn288 O304 2.297 . S
Mn288 O312 2.385 . S
Mn288 O313 2.209 . S
Mn288 O314 2.094 . S
Mn289 O294 2.121 . S
Mn289 N296 2.257 . S
Mn289 N305 2.282 . S
Mn289 O313 2.215 . S
Mn289 O315 2.117 . S
C290 O312 1.234 . S
C290 O313 1.283 . S
C291 O303 1.281 . S
C291 O304 1.236 . S
C292 O314 1.240 . S
C292 O315 1.264 . S
O293 Mn288 2.095 . S
O293 C302 1.250 . S
O294 Mn289 2.121 . S
O294 C302 1.258 . S
C295 N296 1.326 . S
C295 C299 1.460 . S
C295 H301 0.929 . S
N296 Mn289 2.257 . S
N296 C295 1.326 . S
N296 C300 1.362 . S
C297 C298 1.258 . S
C297 C300 1.431 . S
C297 C317 1.449 . S
C298 C297 1.258 . S
C298 C299 1.477 . S
C298 H318 0.931 . S
C299 C295 1.460 . S
C299 C298 1.477 . S
C299 H319 0.930 . S
C300 N296 1.362 . S
C300 C297 1.431 . S
C300 C310 1.476 . S
H301 C295 0.929 . S
C302 O293 1.250 . S
C302 O294 1.258 . S
O303 Mn288 2.162 . S
O303 C291 1.281 . S
O304 Mn288 2.297 . S
O304 C291 1.236 . S
N305 Mn289 2.282 . S
N305 C306 1.328 . S
N305 C310 1.318 . S
C306 N305 1.328 . S
C306 C307 1.457 . S
C306 H311 0.929 . S
C307 C306 1.457 . S
C307 C308 1.291 . S
C307 H320 0.931 . S
C308 C307 1.291 . S
C308 C309 1.373 . S
C308 H321 0.929 . S
C309 C308 1.373 . S
C309 C310 1.396 . S
C309 C316 1.403 . S
C310 C300 1.476 . S
C310 N305 1.318 . S
C310 C309 1.396 . S
H311 C306 0.929 . S
O312 Mn288 2.385 . S
O312 C290 1.234 . S
O313 Mn288 2.209 . S
O313 Mn289 2.215 . S
O313 C290 1.283 . S
O314 Mn288 2.094 . S
O314 C292 1.240 . S
O315 Mn289 2.117 . S
O315 C292 1.264 . S
C316 C309 1.403 . S
C316 C317 1.399 . S
C316 H322 0.929 . S
C317 C297 1.449 . S
C317 C316 1.399 . S
C317 H323 0.930 . S
H318 C298 0.931 . S
H319 C299 0.930 . S
H320 C307 0.931 . S
H321 C308 0.929 . S
H322 C316 0.929 . S
H323 C317 0.930 . S
Mn324 O329 2.095 . S
Mn324 O339 2.162 . S
Mn324 O340 2.297 . S
Mn324 O348 2.385 . S
Mn324 O349 2.209 . S
Mn324 O350 2.094 . S
Mn325 O330 2.121 . S
Mn325 N332 2.257 . S
Mn325 N341 2.282 . S
Mn325 O349 2.215 . S
Mn325 O351 2.117 . S
C326 O348 1.234 . S
C326 O349 1.283 . S
C327 O339 1.281 . S
C327 O340 1.236 . S
C328 O350 1.240 . S
C328 O351 1.264 . S
O329 Mn324 2.095 . S
O329 C338 1.250 . S
O330 Mn325 2.121 . S
O330 C338 1.258 . S
C331 N332 1.326 . S
C331 C335 1.460 . S
C331 H337 0.929 . S
N332 Mn325 2.257 . S
N332 C331 1.326 . S
N332 C336 1.362 . S
C333 C334 1.258 . S
C333 C336 1.431 . S
C333 C353 1.449 . S
C334 C333 1.258 . S
C334 C335 1.477 . S
C334 H354 0.931 . S
C335 C331 1.460 . S
C335 C334 1.477 . S
C335 H355 0.930 . S
C336 N332 1.362 . S
C336 C333 1.431 . S
C336 C346 1.476 . S
H337 C331 0.929 . S
C338 O329 1.250 . S
C338 O330 1.258 . S
O339 Mn324 2.162 . S
O339 C327 1.281 . S
O340 Mn324 2.297 . S
O340 C327 1.236 . S
N341 Mn325 2.282 . S
N341 C342 1.328 . S
N341 C346 1.318 . S
C342 N341 1.328 . S
C342 C343 1.457 . S
C342 H347 0.929 . S
C343 C342 1.457 . S
C343 C344 1.291 . S
C343 H356 0.931 . S
C344 C343 1.291 . S
C344 C345 1.373 . S
C344 H357 0.929 . S
C345 C344 1.373 . S
C345 C346 1.396 . S
C345 C352 1.403 . S
C346 C336 1.476 . S
C346 N341 1.318 . S
C346 C345 1.396 . S
H347 C342 0.929 . S
O348 Mn324 2.385 . S
O348 C326 1.234 . S
O349 Mn324 2.209 . S
O349 Mn325 2.215 . S
O349 C326 1.283 . S
O350 Mn324 2.094 . S
O350 C328 1.240 . S
O351 Mn325 2.117 . S
O351 C328 1.264 . S
C352 C345 1.403 . S
C352 C353 1.399 . S
C352 H358 0.929 . S
C353 C333 1.449 . S
C353 C352 1.399 . S
C353 H359 0.930 . S
H354 C334 0.931 . S
H355 C335 0.930 . S
H356 C343 0.931 . S
H357 C344 0.929 . S
H358 C352 0.929 . S
H359 C353 0.930 . S
Mn360 O365 2.095 . S
Mn360 O375 2.162 . S
Mn360 O376 2.297 . S
Mn360 O384 2.385 . S
Mn360 O385 2.209 . S
Mn360 O386 2.094 . S
Mn361 O366 2.121 . S
Mn361 N368 2.257 . S
Mn361 N377 2.282 . S
Mn361 O385 2.215 . S
Mn361 O387 2.117 . S
C362 O384 1.234 . S
C362 O385 1.283 . S
C363 O375 1.281 . S
C363 O376 1.236 . S
C364 O386 1.240 . S
C364 O387 1.264 . S
O365 Mn360 2.095 . S
O365 C374 1.250 . S
O366 Mn361 2.121 . S
O366 C374 1.258 . S
C367 N368 1.326 . S
C367 C371 1.460 . S
C367 H373 0.929 . S
N368 Mn361 2.257 . S
N368 C367 1.326 . S
N368 C372 1.362 . S
C369 C370 1.258 . S
C369 C372 1.431 . S
C369 C389 1.449 . S
C370 C369 1.258 . S
C370 C371 1.477 . S
C370 H390 0.931 . S
C371 C367 1.460 . S
C371 C370 1.477 . S
C371 H391 0.930 . S
C372 N368 1.362 . S
C372 C369 1.431 . S
C372 C382 1.476 . S
H373 C367 0.929 . S
C374 O365 1.250 . S
C374 O366 1.258 . S
O375 Mn360 2.162 . S
O375 C363 1.281 . S
O376 Mn360 2.297 . S
O376 C363 1.236 . S
N377 Mn361 2.282 . S
N377 C378 1.328 . S
N377 C382 1.318 . S
C378 N377 1.328 . S
C378 C379 1.457 . S
C378 H383 0.929 . S
C379 C378 1.457 . S
C379 C380 1.291 . S
C379 H392 0.931 . S
C380 C379 1.291 . S
C380 C381 1.373 . S
C380 H393 0.929 . S
C381 C380 1.373 . S
C381 C382 1.396 . S
C381 C388 1.403 . S
C382 C372 1.476 . S
C382 N377 1.318 . S
C382 C381 1.396 . S
H383 C378 0.929 . S
O384 Mn360 2.385 . S
O384 C362 1.234 . S
O385 Mn360 2.209 . S
O385 Mn361 2.215 . S
O385 C362 1.283 . S
O386 Mn360 2.094 . S
O386 C364 1.240 . S
O387 Mn361 2.117 . S
O387 C364 1.264 . S
C388 C381 1.403 . S
C388 C389 1.399 . S
C388 H394 0.929 . S
C389 C369 1.449 . S
C389 C388 1.399 . S
C389 H395 0.930 . S
H390 C370 0.931 . S
H391 C371 0.930 . S
H392 C379 0.931 . S
H393 C380 0.929 . S
H394 C388 0.929 . S
H395 C389 0.930 . S
Mn396 O401 2.095 . S
Mn396 O411 2.162 . S
Mn396 O412 2.297 . S
Mn396 O420 2.385 . S
Mn396 O421 2.209 . S
Mn396 O422 2.094 . S
Mn397 O402 2.121 . S
Mn397 N404 2.257 . S
Mn397 N413 2.282 . S
Mn397 O421 2.215 . S
Mn397 O423 2.117 . S
C398 O420 1.234 . S
C398 O421 1.283 . S
C399 O411 1.281 . S
C399 O412 1.236 . S
C400 O422 1.240 . S
C400 O423 1.264 . S
O401 Mn396 2.095 . S
O401 C410 1.250 . S
O402 Mn397 2.121 . S
O402 C410 1.258 . S
C403 N404 1.326 . S
C403 C407 1.460 . S
C403 H409 0.929 . S
N404 Mn397 2.257 . S
N404 C403 1.326 . S
N404 C408 1.362 . S
C405 C406 1.258 . S
C405 C408 1.431 . S
C405 C425 1.449 . S
C406 C405 1.258 . S
C406 C407 1.477 . S
C406 H426 0.931 . S
C407 C403 1.460 . S
C407 C406 1.477 . S
C407 H427 0.930 . S
C408 N404 1.362 . S
C408 C405 1.431 . S
C408 C418 1.476 . S
H409 C403 0.929 . S
C410 O401 1.250 . S
C410 O402 1.258 . S
O411 Mn396 2.162 . S
O411 C399 1.281 . S
O412 Mn396 2.297 . S
O412 C399 1.236 . S
N413 Mn397 2.282 . S
N413 C414 1.328 . S
N413 C418 1.318 . S
C414 N413 1.328 . S
C414 C415 1.457 . S
C414 H419 0.929 . S
C415 C414 1.457 . S
C415 C416 1.291 . S
C415 H428 0.931 . S
C416 C415 1.291 . S
C416 C417 1.373 . S
C416 H429 0.929 . S
C417 C416 1.373 . S
C417 C418 1.396 . S
C417 C424 1.403 . S
C418 C408 1.476 . S
C418 N413 1.318 . S
C418 C417 1.396 . S
H419 C414 0.929 . S
O420 Mn396 2.385 . S
O420 C398 1.234 . S
O421 Mn396 2.209 . S
O421 Mn397 2.215 . S
O421 C398 1.283 . S
O422 Mn396 2.094 . S
O422 C400 1.240 . S
O423 Mn397 2.117 . S
O423 C400 1.264 . S
C424 C417 1.403 . S
C424 C425 1.399 . S
C424 H430 0.929 . S
C425 C405 1.449 . S
C425 C424 1.399 . S
C425 H431 0.930 . S
H426 C406 0.931 . S
H427 C407 0.930 . S
H428 C415 0.931 . S
H429 C416 0.929 . S
H430 C424 0.929 . S
H431 C425 0.930 . S
Mn432 O437 2.095 . S
Mn432 O447 2.162 . S
Mn432 O448 2.297 . S
Mn432 O456 2.385 . S
Mn432 O457 2.209 . S
Mn432 O458 2.094 . S
Mn433 O438 2.121 . S
Mn433 N440 2.257 . S
Mn433 N449 2.282 . S
Mn433 O457 2.215 . S
Mn433 O459 2.117 . S
C434 O456 1.234 . S
C434 O457 1.283 . S
C435 O447 1.281 . S
C435 O448 1.236 . S
C436 O458 1.240 . S
C436 O459 1.264 . S
O437 Mn432 2.095 . S
O437 C446 1.250 . S
O438 Mn433 2.121 . S
O438 C446 1.258 . S
C439 N440 1.326 . S
C439 C443 1.460 . S
C439 H445 0.929 . S
N440 Mn433 2.257 . S
N440 C439 1.326 . S
N440 C444 1.362 . S
C441 C442 1.258 . S
C441 C444 1.431 . S
C441 C461 1.449 . S
C442 C441 1.258 . S
C442 C443 1.477 . S
C442 H462 0.931 . S
C443 C439 1.460 . S
C443 C442 1.477 . S
C443 H463 0.930 . S
C444 N440 1.362 . S
C444 C441 1.431 . S
C444 C454 1.476 . S
H445 C439 0.929 . S
C446 O437 1.250 . S
C446 O438 1.258 . S
O447 Mn432 2.162 . S
O447 C435 1.281 . S
O448 Mn432 2.297 . S
O448 C435 1.236 . S
N449 Mn433 2.282 . S
N449 C450 1.328 . S
N449 C454 1.318 . S
C450 N449 1.328 . S
C450 C451 1.457 . S
C450 H455 0.929 . S
C451 C450 1.457 . S
C451 C452 1.291 . S
C451 H464 0.931 . S
C452 C451 1.291 . S
C452 C453 1.373 . S
C452 H465 0.929 . S
C453 C452 1.373 . S
C453 C454 1.396 . S
C453 C460 1.403 . S
C454 C444 1.476 . S
C454 N449 1.318 . S
C454 C453 1.396 . S
H455 C450 0.929 . S
O456 Mn432 2.385 . S
O456 C434 1.234 . S
O457 Mn432 2.209 . S
O457 Mn433 2.215 . S
O457 C434 1.283 . S
O458 Mn432 2.094 . S
O458 C436 1.240 . S
O459 Mn433 2.117 . S
O459 C436 1.264 . S
C460 C453 1.403 . S
C460 C461 1.399 . S
C460 H466 0.929 . S
C461 C441 1.449 . S
C461 C460 1.399 . S
C461 H467 0.930 . S
H462 C442 0.931 . S
H463 C443 0.930 . S
H464 C451 0.931 . S
H465 C452 0.929 . S
H466 C460 0.929 . S
H467 C461 0.930 . S
Mn468 O473 2.095 . S
Mn468 O483 2.162 . S
Mn468 O484 2.297 . S
Mn468 O492 2.385 . S
Mn468 O493 2.209 . S
Mn468 O494 2.094 . S
Mn469 O474 2.121 . S
Mn469 N476 2.257 . S
Mn469 N485 2.282 . S
Mn469 O493 2.215 . S
Mn469 O495 2.117 . S
C470 O492 1.234 . S
C470 O493 1.283 . S
C471 O483 1.281 . S
C471 O484 1.236 . S
C472 O494 1.240 . S
C472 O495 1.264 . S
O473 Mn468 2.095 . S
O473 C482 1.250 . S
O474 Mn469 2.121 . S
O474 C482 1.258 . S
C475 N476 1.326 . S
C475 C479 1.460 . S
C475 H481 0.929 . S
N476 Mn469 2.257 . S
N476 C475 1.326 . S
N476 C480 1.362 . S
C477 C478 1.258 . S
C477 C480 1.431 . S
C477 C497 1.449 . S
C478 C477 1.258 . S
C478 C479 1.477 . S
C478 H498 0.931 . S
C479 C475 1.460 . S
C479 C478 1.477 . S
C479 H499 0.930 . S
C480 N476 1.362 . S
C480 C477 1.431 . S
C480 C490 1.476 . S
H481 C475 0.929 . S
C482 O473 1.250 . S
C482 O474 1.258 . S
O483 Mn468 2.162 . S
O483 C471 1.281 . S
O484 Mn468 2.297 . S
O484 C471 1.236 . S
N485 Mn469 2.282 . S
N485 C486 1.328 . S
N485 C490 1.318 . S
C486 N485 1.328 . S
C486 C487 1.457 . S
C486 H491 0.929 . S
C487 C486 1.457 . S
C487 C488 1.291 . S
C487 H500 0.931 . S
C488 C487 1.291 . S
C488 C489 1.373 . S
C488 H501 0.929 . S
C489 C488 1.373 . S
C489 C490 1.396 . S
C489 C496 1.403 . S
C490 C480 1.476 . S
C490 N485 1.318 . S
C490 C489 1.396 . S
H491 C486 0.929 . S
O492 Mn468 2.385 . S
O492 C470 1.234 . S
O493 Mn468 2.209 . S
O493 Mn469 2.215 . S
O493 C470 1.283 . S
O494 Mn468 2.094 . S
O494 C472 1.240 . S
O495 Mn469 2.117 . S
O495 C472 1.264 . S
C496 C489 1.403 . S
C496 C497 1.399 . S
C496 H502 0.929 . S
C497 C477 1.449 . S
C497 C496 1.399 . S
C497 H503 0.930 . S
H498 C478 0.931 . S
H499 C479 0.930 . S
H500 C487 0.931 . S
H501 C488 0.929 . S
H502 C496 0.929 . S
H503 C497 0.930 . S
Mn504 O509 2.095 . S
Mn504 O519 2.162 . S
Mn504 O520 2.297 . S
Mn504 O528 2.385 . S
Mn504 O529 2.209 . S
Mn504 O530 2.094 . S
Mn505 O510 2.121 . S
Mn505 N512 2.257 . S
Mn505 N521 2.282 . S
Mn505 O529 2.215 . S
Mn505 O531 2.117 . S
C506 O528 1.234 . S
C506 O529 1.283 . S
C507 O519 1.281 . S
C507 O520 1.236 . S
C508 O530 1.240 . S
C508 O531 1.264 . S
O509 Mn504 2.095 . S
O509 C518 1.250 . S
O510 Mn505 2.121 . S
O510 C518 1.258 . S
C511 N512 1.326 . S
C511 C515 1.460 . S
C511 H517 0.929 . S
N512 Mn505 2.257 . S
N512 C511 1.326 . S
N512 C516 1.362 . S
C513 C514 1.258 . S
C513 C516 1.431 . S
C513 C533 1.449 . S
C514 C513 1.258 . S
C514 C515 1.477 . S
C514 H534 0.931 . S
C515 C511 1.460 . S
C515 C514 1.477 . S
C515 H535 0.930 . S
C516 N512 1.362 . S
C516 C513 1.431 . S
C516 C526 1.476 . S
H517 C511 0.929 . S
C518 O509 1.250 . S
C518 O510 1.258 . S
O519 Mn504 2.162 . S
O519 C507 1.281 . S
O520 Mn504 2.297 . S
O520 C507 1.236 . S
N521 Mn505 2.282 . S
N521 C522 1.328 . S
N521 C526 1.318 . S
C522 N521 1.328 . S
C522 C523 1.457 . S
C522 H527 0.929 . S
C523 C522 1.457 . S
C523 C524 1.291 . S
C523 H536 0.931 . S
C524 C523 1.291 . S
C524 C525 1.373 . S
C524 H537 0.929 . S
C525 C524 1.373 . S
C525 C526 1.396 . S
C525 C532 1.403 . S
C526 C516 1.476 . S
C526 N521 1.318 . S
C526 C525 1.396 . S
H527 C522 0.929 . S
O528 Mn504 2.385 . S
O528 C506 1.234 . S
O529 Mn504 2.209 . S
O529 Mn505 2.215 . S
O529 C506 1.283 . S
O530 Mn504 2.094 . S
O530 C508 1.240 . S
O531 Mn505 2.117 . S
O531 C508 1.264 . S
C532 C525 1.403 . S
C532 C533 1.399 . S
C532 H538 0.929 . S
C533 C513 1.449 . S
C533 C532 1.399 . S
C533 H539 0.930 . S
H534 C514 0.931 . S
H535 C515 0.930 . S
H536 C523 0.931 . S
H537 C524 0.929 . S
H538 C532 0.929 . S
H539 C533 0.930 . S
Mn540 O545 2.095 . S
Mn540 O555 2.162 . S
Mn540 O556 2.297 . S
Mn540 O564 2.385 . S
Mn540 O565 2.209 . S
Mn540 O566 2.094 . S
Mn541 O546 2.121 . S
Mn541 N548 2.257 . S
Mn541 N557 2.282 . S
Mn541 O565 2.215 . S
Mn541 O567 2.117 . S
C542 O564 1.234 . S
C542 O565 1.283 . S
C543 O555 1.281 . S
C543 O556 1.236 . S
C544 O566 1.240 . S
C544 O567 1.264 . S
O545 Mn540 2.095 . S
O545 C554 1.250 . S
O546 Mn541 2.121 . S
O546 C554 1.258 . S
C547 N548 1.326 . S
C547 C551 1.460 . S
C547 H553 0.929 . S
N548 Mn541 2.257 . S
N548 C547 1.326 . S
N548 C552 1.362 . S
C549 C550 1.258 . S
C549 C552 1.431 . S
C549 C569 1.449 . S
C550 C549 1.258 . S
C550 C551 1.477 . S
C550 H570 0.931 . S
C551 C547 1.460 . S
C551 C550 1.477 . S
C551 H571 0.930 . S
C552 N548 1.362 . S
C552 C549 1.431 . S
C552 C562 1.476 . S
H553 C547 0.929 . S
C554 O545 1.250 . S
C554 O546 1.258 . S
O555 Mn540 2.162 . S
O555 C543 1.281 . S
O556 Mn540 2.297 . S
O556 C543 1.236 . S
N557 Mn541 2.282 . S
N557 C558 1.328 . S
N557 C562 1.318 . S
C558 N557 1.328 . S
C558 C559 1.457 . S
C558 H563 0.929 . S
C559 C558 1.457 . S
C559 C560 1.291 . S
C559 H572 0.931 . S
C560 C559 1.291 . S
C560 C561 1.373 . S
C560 H573 0.929 . S
C561 C560 1.373 . S
C561 C562 1.396 . S
C561 C568 1.403 . S
C562 C552 1.476 . S
C562 N557 1.318 . S
C562 C561 1.396 . S
H563 C558 0.929 . S
O564 Mn540 2.385 . S
O564 C542 1.234 . S
O565 Mn540 2.209 . S
O565 Mn541 2.215 . S
O565 C542 1.283 . S
O566 Mn540 2.094 . S
O566 C544 1.240 . S
O567 Mn541 2.117 . S
O567 C544 1.264 . S
C568 C561 1.403 . S
C568 C569 1.399 . S
C568 H574 0.929 . S
C569 C549 1.449 . S
C569 C568 1.399 . S
C569 H575 0.930 . S
H570 C550 0.931 . S
H571 C551 0.930 . S
H572 C559 0.931 . S
H573 C560 0.929 . S
H574 C568 0.929 . S
H575 C569 0.930 . S
Mn576 O581 2.095 . S
Mn576 O591 2.162 . S
Mn576 O592 2.297 . S
Mn576 O600 2.385 . S
Mn576 O601 2.209 . S
Mn576 O602 2.094 . S
Mn577 O582 2.121 . S
Mn577 N584 2.257 . S
Mn577 N593 2.282 . S
Mn577 O601 2.215 . S
Mn577 O603 2.117 . S
C578 O600 1.234 . S
C578 O601 1.283 . S
C579 O591 1.281 . S
C579 O592 1.236 . S
C580 O602 1.240 . S
C580 O603 1.264 . S
O581 Mn576 2.095 . S
O581 C590 1.250 . S
O582 Mn577 2.121 . S
O582 C590 1.258 . S
C583 N584 1.326 . S
C583 C587 1.460 . S
C583 H589 0.929 . S
N584 Mn577 2.257 . S
N584 C583 1.326 . S
N584 C588 1.362 . S
C585 C586 1.258 . S
C585 C588 1.431 . S
C585 C605 1.449 . S
C586 C585 1.258 . S
C586 C587 1.477 . S
C586 H606 0.931 . S
C587 C583 1.460 . S
C587 C586 1.477 . S
C587 H607 0.930 . S
C588 N584 1.362 . S
C588 C585 1.431 . S
C588 C598 1.476 . S
H589 C583 0.929 . S
C590 O581 1.250 . S
C590 O582 1.258 . S
O591 Mn576 2.162 . S
O591 C579 1.281 . S
O592 Mn576 2.297 . S
O592 C579 1.236 . S
N593 Mn577 2.282 . S
N593 C594 1.328 . S
N593 C598 1.318 . S
C594 N593 1.328 . S
C594 C595 1.457 . S
C594 H599 0.929 . S
C595 C594 1.457 . S
C595 C596 1.291 . S
C595 H608 0.931 . S
C596 C595 1.291 . S
C596 C597 1.373 . S
C596 H609 0.929 . S
C597 C596 1.373 . S
C597 C598 1.396 . S
C597 C604 1.403 . S
C598 C588 1.476 . S
C598 N593 1.318 . S
C598 C597 1.396 . S
H599 C594 0.929 . S
O600 Mn576 2.385 . S
O600 C578 1.234 . S
O601 Mn576 2.209 . S
O601 Mn577 2.215 . S
O601 C578 1.283 . S
O602 Mn576 2.094 . S
O602 C580 1.240 . S
O603 Mn577 2.117 . S
O603 C580 1.264 . S
C604 C597 1.403 . S
C604 C605 1.399 . S
C604 H610 0.929 . S
C605 C585 1.449 . S
C605 C604 1.399 . S
C605 H611 0.930 . S
H606 C586 0.931 . S
H607 C587 0.930 . S
H608 C595 0.931 . S
H609 C596 0.929 . S
H610 C604 0.929 . S
H611 C605 0.930 . S
Mn612 O617 2.095 . S
Mn612 O627 2.162 . S
Mn612 O628 2.297 . S
Mn612 O636 2.385 . S
Mn612 O637 2.209 . S
Mn612 O638 2.094 . S
Mn613 O618 2.121 . S
Mn613 N620 2.257 . S
Mn613 N629 2.282 . S
Mn613 O637 2.215 . S
Mn613 O639 2.117 . S
C614 O636 1.234 . S
C614 O637 1.283 . S
C615 O627 1.281 . S
C615 O628 1.236 . S
C616 O638 1.240 . S
C616 O639 1.264 . S
O617 Mn612 2.095 . S
O617 C626 1.250 . S
O618 Mn613 2.121 . S
O618 C626 1.258 . S
C619 N620 1.326 . S
C619 C623 1.460 . S
C619 H625 0.929 . S
N620 Mn613 2.257 . S
N620 C619 1.326 . S
N620 C624 1.362 . S
C621 C622 1.258 . S
C621 C624 1.431 . S
C621 C641 1.449 . S
C622 C621 1.258 . S
C622 C623 1.477 . S
C622 H642 0.931 . S
C623 C619 1.460 . S
C623 C622 1.477 . S
C623 H643 0.930 . S
C624 N620 1.362 . S
C624 C621 1.431 . S
C624 C634 1.476 . S
H625 C619 0.929 . S
C626 O617 1.250 . S
C626 O618 1.258 . S
O627 Mn612 2.162 . S
O627 C615 1.281 . S
O628 Mn612 2.297 . S
O628 C615 1.236 . S
N629 Mn613 2.282 . S
N629 C630 1.328 . S
N629 C634 1.318 . S
C630 N629 1.328 . S
C630 C631 1.457 . S
C630 H635 0.929 . S
C631 C630 1.457 . S
C631 C632 1.291 . S
C631 H644 0.931 . S
C632 C631 1.291 . S
C632 C633 1.373 . S
C632 H645 0.929 . S
C633 C632 1.373 . S
C633 C634 1.396 . S
C633 C640 1.403 . S
C634 C624 1.476 . S
C634 N629 1.318 . S
C634 C633 1.396 . S
H635 C630 0.929 . S
O636 Mn612 2.385 . S
O636 C614 1.234 . S
O637 Mn612 2.209 . S
O637 Mn613 2.215 . S
O637 C614 1.283 . S
O638 Mn612 2.094 . S
O638 C616 1.240 . S
O639 Mn613 2.117 . S
O639 C616 1.264 . S
C640 C633 1.403 . S
C640 C641 1.399 . S
C640 H646 0.929 . S
C641 C621 1.449 . S
C641 C640 1.399 . S
C641 H647 0.930 . S
H642 C622 0.931 . S
H643 C623 0.930 . S
H644 C631 0.931 . S
H645 C632 0.929 . S
H646 C640 0.929 . S
H647 C641 0.930 . S
Mn648 O653 2.095 . S
Mn648 O663 2.162 . S
Mn648 O664 2.297 . S
Mn648 O672 2.385 . S
Mn648 O673 2.209 . S
Mn648 O674 2.094 . S
Mn649 O654 2.121 . S
Mn649 N656 2.257 . S
Mn649 N665 2.282 . S
Mn649 O673 2.215 . S
Mn649 O675 2.117 . S
C650 O672 1.234 . S
C650 O673 1.283 . S
C651 O663 1.281 . S
C651 O664 1.236 . S
C652 O674 1.240 . S
C652 O675 1.264 . S
O653 Mn648 2.095 . S
O653 C662 1.250 . S
O654 Mn649 2.121 . S
O654 C662 1.258 . S
C655 N656 1.326 . S
C655 C659 1.460 . S
C655 H661 0.929 . S
N656 Mn649 2.257 . S
N656 C655 1.326 . S
N656 C660 1.362 . S
C657 C658 1.258 . S
C657 C660 1.431 . S
C657 C677 1.449 . S
C658 C657 1.258 . S
C658 C659 1.477 . S
C658 H678 0.931 . S
C659 C655 1.460 . S
C659 C658 1.477 . S
C659 H679 0.930 . S
C660 N656 1.362 . S
C660 C657 1.431 . S
C660 C670 1.476 . S
H661 C655 0.929 . S
C662 O653 1.250 . S
C662 O654 1.258 . S
O663 Mn648 2.162 . S
O663 C651 1.281 . S
O664 Mn648 2.297 . S
O664 C651 1.236 . S
N665 Mn649 2.282 . S
N665 C666 1.328 . S
N665 C670 1.318 . S
C666 N665 1.328 . S
C666 C667 1.457 . S
C666 H671 0.929 . S
C667 C666 1.457 . S
C667 C668 1.291 . S
C667 H680 0.931 . S
C668 C667 1.291 . S
C668 C669 1.373 . S
C668 H681 0.929 . S
C669 C668 1.373 . S
C669 C670 1.396 . S
C669 C676 1.403 . S
C670 C660 1.476 . S
C670 N665 1.318 . S
C670 C669 1.396 . S
H671 C666 0.929 . S
O672 Mn648 2.385 . S
O672 C650 1.234 . S
O673 Mn648 2.209 . S
O673 Mn649 2.215 . S
O673 C650 1.283 . S
O674 Mn648 2.094 . S
O674 C652 1.240 . S
O675 Mn649 2.117 . S
O675 C652 1.264 . S
C676 C669 1.403 . S
C676 C677 1.399 . S
C676 H682 0.929 . S
C677 C657 1.449 . S
C677 C676 1.399 . S
C677 H683 0.930 . S
H678 C658 0.931 . S
H679 C659 0.930 . S
H680 C667 0.931 . S
H681 C668 0.929 . S
H682 C676 0.929 . S
H683 C677 0.930 . S
Mn684 O689 2.095 . S
Mn684 O699 2.162 . S
Mn684 O700 2.297 . S
Mn684 O708 2.385 . S
Mn684 O709 2.209 . S
Mn684 O710 2.094 . S
Mn685 O690 2.121 . S
Mn685 N692 2.257 . S
Mn685 N701 2.282 . S
Mn685 O709 2.215 . S
Mn685 O711 2.117 . S
C686 O708 1.234 . S
C686 O709 1.283 . S
C687 O699 1.281 . S
C687 O700 1.236 . S
C688 O710 1.240 . S
C688 O711 1.264 . S
O689 Mn684 2.095 . S
O689 C698 1.250 . S
O690 Mn685 2.121 . S
O690 C698 1.258 . S
C691 N692 1.326 . S
C691 C695 1.460 . S
C691 H697 0.929 . S
N692 Mn685 2.257 . S
N692 C691 1.326 . S
N692 C696 1.362 . S
C693 C694 1.258 . S
C693 C696 1.431 . S
C693 C713 1.449 . S
C694 C693 1.258 . S
C694 C695 1.477 . S
C694 H714 0.931 . S
C695 C691 1.460 . S
C695 C694 1.477 . S
C695 H715 0.930 . S
C696 N692 1.362 . S
C696 C693 1.431 . S
C696 C706 1.476 . S
H697 C691 0.929 . S
C698 O689 1.250 . S
C698 O690 1.258 . S
O699 Mn684 2.162 . S
O699 C687 1.281 . S
O700 Mn684 2.297 . S
O700 C687 1.236 . S
N701 Mn685 2.282 . S
N701 C702 1.328 . S
N701 C706 1.318 . S
C702 N701 1.328 . S
C702 C703 1.457 . S
C702 H707 0.929 . S
C703 C702 1.457 . S
C703 C704 1.291 . S
C703 H716 0.931 . S
C704 C703 1.291 . S
C704 C705 1.373 . S
C704 H717 0.929 . S
C705 C704 1.373 . S
C705 C706 1.396 . S
C705 C712 1.403 . S
C706 C696 1.476 . S
C706 N701 1.318 . S
C706 C705 1.396 . S
H707 C702 0.929 . S
O708 Mn684 2.385 . S
O708 C686 1.234 . S
O709 Mn684 2.209 . S
O709 Mn685 2.215 . S
O709 C686 1.283 . S
O710 Mn684 2.094 . S
O710 C688 1.240 . S
O711 Mn685 2.117 . S
O711 C688 1.264 . S
C712 C705 1.403 . S
C712 C713 1.399 . S
C712 H718 0.929 . S
C713 C693 1.449 . S
C713 C712 1.399 . S
C713 H719 0.930 . S
H714 C694 0.931 . S
H715 C695 0.930 . S
H716 C703 0.931 . S
H717 C704 0.929 . S
H718 C712 0.929 . S
H719 C713 0.930 . S
Mn720 O725 2.095 . S
Mn720 O735 2.162 . S
Mn720 O736 2.297 . S
Mn720 O744 2.385 . S
Mn720 O745 2.209 . S
Mn720 O746 2.094 . S
Mn721 O726 2.121 . S
Mn721 N728 2.257 . S
Mn721 N737 2.282 . S
Mn721 O745 2.215 . S
Mn721 O747 2.117 . S
C722 O744 1.234 . S
C722 O745 1.283 . S
C723 O735 1.281 . S
C723 O736 1.236 . S
C724 O746 1.240 . S
C724 O747 1.264 . S
O725 Mn720 2.095 . S
O725 C734 1.250 . S
O726 Mn721 2.121 . S
O726 C734 1.258 . S
C727 N728 1.326 . S
C727 C731 1.460 . S
C727 H733 0.929 . S
N728 Mn721 2.257 . S
N728 C727 1.326 . S
N728 C732 1.362 . S
C729 C730 1.258 . S
C729 C732 1.431 . S
C729 C749 1.449 . S
C730 C729 1.258 . S
C730 C731 1.477 . S
C730 H750 0.931 . S
C731 C727 1.460 . S
C731 C730 1.477 . S
C731 H751 0.930 . S
C732 N728 1.362 . S
C732 C729 1.431 . S
C732 C742 1.476 . S
H733 C727 0.929 . S
C734 O725 1.250 . S
C734 O726 1.258 . S
O735 Mn720 2.162 . S
O735 C723 1.281 . S
O736 Mn720 2.297 . S
O736 C723 1.236 . S
N737 Mn721 2.282 . S
N737 C738 1.328 . S
N737 C742 1.318 . S
C738 N737 1.328 . S
C738 C739 1.457 . S
C738 H743 0.929 . S
C739 C738 1.457 . S
C739 C740 1.291 . S
C739 H752 0.931 . S
C740 C739 1.291 . S
C740 C741 1.373 . S
C740 H753 0.929 . S
C741 C740 1.373 . S
C741 C742 1.396 . S
C741 C748 1.403 . S
C742 C732 1.476 . S
C742 N737 1.318 . S
C742 C741 1.396 . S
H743 C738 0.929 . S
O744 Mn720 2.385 . S
O744 C722 1.234 . S
O745 Mn720 2.209 . S
O745 Mn721 2.215 . S
O745 C722 1.283 . S
O746 Mn720 2.094 . S
O746 C724 1.240 . S
O747 Mn721 2.117 . S
O747 C724 1.264 . S
C748 C741 1.403 . S
C748 C749 1.399 . S
C748 H754 0.929 . S
C749 C729 1.449 . S
C749 C748 1.399 . S
C749 H755 0.930 . S
H750 C730 0.931 . S
H751 C731 0.930 . S
H752 C739 0.931 . S
H753 C740 0.929 . S
H754 C748 0.929 . S
H755 C749 0.930 . S
Mn756 O761 2.095 . S
Mn756 O771 2.162 . S
Mn756 O772 2.297 . S
Mn756 O780 2.385 . S
Mn756 O781 2.209 . S
Mn756 O782 2.094 . S
Mn757 O762 2.121 . S
Mn757 N764 2.257 . S
Mn757 N773 2.282 . S
Mn757 O781 2.215 . S
Mn757 O783 2.117 . S
C758 O780 1.234 . S
C758 O781 1.283 . S
C759 O771 1.281 . S
C759 O772 1.236 . S
C760 O782 1.240 . S
C760 O783 1.264 . S
O761 Mn756 2.095 . S
O761 C770 1.250 . S
O762 Mn757 2.121 . S
O762 C770 1.258 . S
C763 N764 1.326 . S
C763 C767 1.460 . S
C763 H769 0.929 . S
N764 Mn757 2.257 . S
N764 C763 1.326 . S
N764 C768 1.362 . S
C765 C766 1.258 . S
C765 C768 1.431 . S
C765 C785 1.449 . S
C766 C765 1.258 . S
C766 C767 1.477 . S
C766 H786 0.931 . S
C767 C763 1.460 . S
C767 C766 1.477 . S
C767 H787 0.930 . S
C768 N764 1.362 . S
C768 C765 1.431 . S
C768 C778 1.476 . S
H769 C763 0.929 . S
C770 O761 1.250 . S
C770 O762 1.258 . S
O771 Mn756 2.162 . S
O771 C759 1.281 . S
O772 Mn756 2.297 . S
O772 C759 1.236 . S
N773 Mn757 2.282 . S
N773 C774 1.328 . S
N773 C778 1.318 . S
C774 N773 1.328 . S
C774 C775 1.457 . S
C774 H779 0.929 . S
C775 C774 1.457 . S
C775 C776 1.291 . S
C775 H788 0.931 . S
C776 C775 1.291 . S
C776 C777 1.373 . S
C776 H789 0.929 . S
C777 C776 1.373 . S
C777 C778 1.396 . S
C777 C784 1.403 . S
C778 C768 1.476 . S
C778 N773 1.318 . S
C778 C777 1.396 . S
H779 C774 0.929 . S
O780 Mn756 2.385 . S
O780 C758 1.234 . S
O781 Mn756 2.209 . S
O781 Mn757 2.215 . S
O781 C758 1.283 . S
O782 Mn756 2.094 . S
O782 C760 1.240 . S
O783 Mn757 2.117 . S
O783 C760 1.264 . S
C784 C777 1.403 . S
C784 C785 1.399 . S
C784 H790 0.929 . S
C785 C765 1.449 . S
C785 C784 1.399 . S
C785 H791 0.930 . S
H786 C766 0.931 . S
H787 C767 0.930 . S
H788 C775 0.931 . S
H789 C776 0.929 . S
H790 C784 0.929 . S
H791 C785 0.930 . S
Mn792 O797 2.095 . S
Mn792 O807 2.162 . S
Mn792 O808 2.297 . S
Mn792 O816 2.385 . S
Mn792 O817 2.209 . S
Mn792 O818 2.094 . S
Mn793 O798 2.121 . S
Mn793 N800 2.257 . S
Mn793 N809 2.282 . S
Mn793 O817 2.215 . S
Mn793 O819 2.117 . S
C794 O816 1.234 . S
C794 O817 1.283 . S
C795 O807 1.281 . S
C795 O808 1.236 . S
C796 O818 1.240 . S
C796 O819 1.264 . S
O797 Mn792 2.095 . S
O797 C806 1.250 . S
O798 Mn793 2.121 . S
O798 C806 1.258 . S
C799 N800 1.326 . S
C799 C803 1.460 . S
C799 H805 0.929 . S
N800 Mn793 2.257 . S
N800 C799 1.326 . S
N800 C804 1.362 . S
C801 C802 1.258 . S
C801 C804 1.431 . S
C801 C821 1.449 . S
C802 C801 1.258 . S
C802 C803 1.477 . S
C802 H822 0.931 . S
C803 C799 1.460 . S
C803 C802 1.477 . S
C803 H823 0.930 . S
C804 N800 1.362 . S
C804 C801 1.431 . S
C804 C814 1.476 . S
H805 C799 0.929 . S
C806 O797 1.250 . S
C806 O798 1.258 . S
O807 Mn792 2.162 . S
O807 C795 1.281 . S
O808 Mn792 2.297 . S
O808 C795 1.236 . S
N809 Mn793 2.282 . S
N809 C810 1.328 . S
N809 C814 1.318 . S
C810 N809 1.328 . S
C810 C811 1.457 . S
C810 H815 0.929 . S
C811 C810 1.457 . S
C811 C812 1.291 . S
C811 H824 0.931 . S
C812 C811 1.291 . S
C812 C813 1.373 . S
C812 H825 0.929 . S
C813 C812 1.373 . S
C813 C814 1.396 . S
C813 C820 1.403 . S
C814 C804 1.476 . S
C814 N809 1.318 . S
C814 C813 1.396 . S
H815 C810 0.929 . S
O816 Mn792 2.385 . S
O816 C794 1.234 . S
O817 Mn792 2.209 . S
O817 Mn793 2.215 . S
O817 C794 1.283 . S
O818 Mn792 2.094 . S
O818 C796 1.240 . S
O819 Mn793 2.117 . S
O819 C796 1.264 . S
C820 C813 1.403 . S
C820 C821 1.399 . S
C820 H826 0.929 . S
C821 C801 1.449 . S
C821 C820 1.399 . S
C821 H827 0.930 . S
H822 C802 0.931 . S
H823 C803 0.930 . S
H824 C811 0.931 . S
H825 C812 0.929 . S
H826 C820 0.929 . S
H827 C821 0.930 . S
Mn828 O833 2.095 . S
Mn828 O843 2.162 . S
Mn828 O844 2.297 . S
Mn828 O852 2.385 . S
Mn828 O853 2.209 . S
Mn828 O854 2.094 . S
Mn829 O834 2.121 . S
Mn829 N836 2.257 . S
Mn829 N845 2.282 . S
Mn829 O853 2.215 . S
Mn829 O855 2.117 . S
C830 O852 1.234 . S
C830 O853 1.283 . S
C831 O843 1.281 . S
C831 O844 1.236 . S
C832 O854 1.240 . S
C832 O855 1.264 . S
O833 Mn828 2.095 . S
O833 C842 1.250 . S
O834 Mn829 2.121 . S
O834 C842 1.258 . S
C835 N836 1.326 . S
C835 C839 1.460 . S
C835 H841 0.929 . S
N836 Mn829 2.257 . S
N836 C835 1.326 . S
N836 C840 1.362 . S
C837 C838 1.258 . S
C837 C840 1.431 . S
C837 C857 1.449 . S
C838 C837 1.258 . S
C838 C839 1.477 . S
C838 H858 0.931 . S
C839 C835 1.460 . S
C839 C838 1.477 . S
C839 H859 0.930 . S
C840 N836 1.362 . S
C840 C837 1.431 . S
C840 C850 1.476 . S
H841 C835 0.929 . S
C842 O833 1.250 . S
C842 O834 1.258 . S
O843 Mn828 2.162 . S
O843 C831 1.281 . S
O844 Mn828 2.297 . S
O844 C831 1.236 . S
N845 Mn829 2.282 . S
N845 C846 1.328 . S
N845 C850 1.318 . S
C846 N845 1.328 . S
C846 C847 1.457 . S
C846 H851 0.929 . S
C847 C846 1.457 . S
C847 C848 1.291 . S
C847 H860 0.931 . S
C848 C847 1.291 . S
C848 C849 1.373 . S
C848 H861 0.929 . S
C849 C848 1.373 . S
C849 C850 1.396 . S
C849 C856 1.403 . S
C850 C840 1.476 . S
C850 N845 1.318 . S
C850 C849 1.396 . S
H851 C846 0.929 . S
O852 Mn828 2.385 . S
O852 C830 1.234 . S
O853 Mn828 2.209 . S
O853 Mn829 2.215 . S
O853 C830 1.283 . S
O854 Mn828 2.094 . S
O854 C832 1.240 . S
O855 Mn829 2.117 . S
O855 C832 1.264 . S
C856 C849 1.403 . S
C856 C857 1.399 . S
C856 H862 0.929 . S
C857 C837 1.449 . S
C857 C856 1.399 . S
C857 H863 0.930 . S
H858 C838 0.931 . S
H859 C839 0.930 . S
H860 C847 0.931 . S
H861 C848 0.929 . S
H862 C856 0.929 . S
H863 C857 0.930 . S
Mn864 O869 2.095 . S
Mn864 O879 2.162 . S
Mn864 O880 2.297 . S
Mn864 O888 2.385 . S
Mn864 O889 2.209 . S
Mn864 O890 2.094 . S
Mn865 O870 2.121 . S
Mn865 N872 2.257 . S
Mn865 N881 2.282 . S
Mn865 O889 2.215 . S
Mn865 O891 2.117 . S
C866 O888 1.234 . S
C866 O889 1.283 . S
C867 O879 1.281 . S
C867 O880 1.236 . S
C868 O890 1.240 . S
C868 O891 1.264 . S
O869 Mn864 2.095 . S
O869 C878 1.250 . S
O870 Mn865 2.121 . S
O870 C878 1.258 . S
C871 N872 1.326 . S
C871 C875 1.460 . S
C871 H877 0.929 . S
N872 Mn865 2.257 . S
N872 C871 1.326 . S
N872 C876 1.362 . S
C873 C874 1.258 . S
C873 C876 1.431 . S
C873 C893 1.449 . S
C874 C873 1.258 . S
C874 C875 1.477 . S
C874 H894 0.931 . S
C875 C871 1.460 . S
C875 C874 1.477 . S
C875 H895 0.930 . S
C876 N872 1.362 . S
C876 C873 1.431 . S
C876 C886 1.476 . S
H877 C871 0.929 . S
C878 O869 1.250 . S
C878 O870 1.258 . S
O879 Mn864 2.162 . S
O879 C867 1.281 . S
O880 Mn864 2.297 . S
O880 C867 1.236 . S
N881 Mn865 2.282 . S
N881 C882 1.328 . S
N881 C886 1.318 . S
C882 N881 1.328 . S
C882 C883 1.457 . S
C882 H887 0.929 . S
C883 C882 1.457 . S
C883 C884 1.291 . S
C883 H896 0.931 . S
C884 C883 1.291 . S
C884 C885 1.373 . S
C884 H897 0.929 . S
C885 C884 1.373 . S
C885 C886 1.396 . S
C885 C892 1.403 . S
C886 C876 1.476 . S
C886 N881 1.318 . S
C886 C885 1.396 . S
H887 C882 0.929 . S
O888 Mn864 2.385 . S
O888 C866 1.234 . S
O889 Mn864 2.209 . S
O889 Mn865 2.215 . S
O889 C866 1.283 . S
O890 Mn864 2.094 . S
O890 C868 1.240 . S
O891 Mn865 2.117 . S
O891 C868 1.264 . S
C892 C885 1.403 . S
C892 C893 1.399 . S
C892 H898 0.929 . S
C893 C873 1.449 . S
C893 C892 1.399 . S
C893 H899 0.930 . S
H894 C874 0.931 . S
H895 C875 0.930 . S
H896 C883 0.931 . S
H897 C884 0.929 . S
H898 C892 0.929 . S
H899 C893 0.930 . S
Mn900 O905 2.095 . S
Mn900 O915 2.162 . S
Mn900 O916 2.297 . S
Mn900 O924 2.385 . S
Mn900 O925 2.209 . S
Mn900 O926 2.094 . S
Mn901 O906 2.121 . S
Mn901 N908 2.257 . S
Mn901 N917 2.282 . S
Mn901 O925 2.215 . S
Mn901 O927 2.117 . S
C902 O924 1.234 . S
C902 O925 1.283 . S
C903 O915 1.281 . S
C903 O916 1.236 . S
C904 O926 1.240 . S
C904 O927 1.264 . S
O905 Mn900 2.095 . S
O905 C914 1.250 . S
O906 Mn901 2.121 . S
O906 C914 1.258 . S
C907 N908 1.326 . S
C907 C911 1.460 . S
C907 H913 0.929 . S
N908 Mn901 2.257 . S
N908 C907 1.326 . S
N908 C912 1.362 . S
C909 C910 1.258 . S
C909 C912 1.431 . S
C909 C929 1.449 . S
C910 C909 1.258 . S
C910 C911 1.477 . S
C910 H930 0.931 . S
C911 C907 1.460 . S
C911 C910 1.477 . S
C911 H931 0.930 . S
C912 N908 1.362 . S
C912 C909 1.431 . S
C912 C922 1.476 . S
H913 C907 0.929 . S
C914 O905 1.250 . S
C914 O906 1.258 . S
O915 Mn900 2.162 . S
O915 C903 1.281 . S
O916 Mn900 2.297 . S
O916 C903 1.236 . S
N917 Mn901 2.282 . S
N917 C918 1.328 . S
N917 C922 1.318 . S
C918 N917 1.328 . S
C918 C919 1.457 . S
C918 H923 0.929 . S
C919 C918 1.457 . S
C919 C920 1.291 . S
C919 H932 0.931 . S
C920 C919 1.291 . S
C920 C921 1.373 . S
C920 H933 0.929 . S
C921 C920 1.373 . S
C921 C922 1.396 . S
C921 C928 1.403 . S
C922 C912 1.476 . S
C922 N917 1.318 . S
C922 C921 1.396 . S
H923 C918 0.929 . S
O924 Mn900 2.385 . S
O924 C902 1.234 . S
O925 Mn900 2.209 . S
O925 Mn901 2.215 . S
O925 C902 1.283 . S
O926 Mn900 2.094 . S
O926 C904 1.240 . S
O927 Mn901 2.117 . S
O927 C904 1.264 . S
C928 C921 1.403 . S
C928 C929 1.399 . S
C928 H934 0.929 . S
C929 C909 1.449 . S
C929 C928 1.399 . S
C929 H935 0.930 . S
H930 C910 0.931 . S
H931 C911 0.930 . S
H932 C919 0.931 . S
H933 C920 0.929 . S
H934 C928 0.929 . S
H935 C929 0.930 . S
Mn936 O941 2.095 . S
Mn936 O951 2.162 . S
Mn936 O952 2.297 . S
Mn936 O960 2.385 . S
Mn936 O961 2.209 . S
Mn936 O962 2.094 . S
Mn937 O942 2.121 . S
Mn937 N944 2.257 . S
Mn937 N953 2.282 . S
Mn937 O961 2.215 . S
Mn937 O963 2.117 . S
C938 O960 1.234 . S
C938 O961 1.283 . S
C939 O951 1.281 . S
C939 O952 1.236 . S
C940 O962 1.240 . S
C940 O963 1.264 . S
O941 Mn936 2.095 . S
O941 C950 1.250 . S
O942 Mn937 2.121 . S
O942 C950 1.258 . S
C943 N944 1.326 . S
C943 C947 1.460 . S
C943 H949 0.929 . S
N944 Mn937 2.257 . S
N944 C943 1.326 . S
N944 C948 1.362 . S
C945 C946 1.258 . S
C945 C948 1.431 . S
C945 C965 1.449 . S
C946 C945 1.258 . S
C946 C947 1.477 . S
C946 H966 0.931 . S
C947 C943 1.460 . S
C947 C946 1.477 . S
C947 H967 0.930 . S
C948 N944 1.362 . S
C948 C945 1.431 . S
C948 C958 1.476 . S
H949 C943 0.929 . S
C950 O941 1.250 . S
C950 O942 1.258 . S
O951 Mn936 2.162 . S
O951 C939 1.281 . S
O952 Mn936 2.297 . S
O952 C939 1.236 . S
N953 Mn937 2.282 . S
N953 C954 1.328 . S
N953 C958 1.318 . S
C954 N953 1.328 . S
C954 C955 1.457 . S
C954 H959 0.929 . S
C955 C954 1.457 . S
C955 C956 1.291 . S
C955 H968 0.931 . S
C956 C955 1.291 . S
C956 C957 1.373 . S
C956 H969 0.929 . S
C957 C956 1.373 . S
C957 C958 1.396 . S
C957 C964 1.403 . S
C958 C948 1.476 . S
C958 N953 1.318 . S
C958 C957 1.396 . S
H959 C954 0.929 . S
O960 Mn936 2.385 . S
O960 C938 1.234 . S
O961 Mn936 2.209 . S
O961 Mn937 2.215 . S
O961 C938 1.283 . S
O962 Mn936 2.094 . S
O962 C940 1.240 . S
O963 Mn937 2.117 . S
O963 C940 1.264 . S
C964 C957 1.403 . S
C964 C965 1.399 . S
C964 H970 0.929 . S
C965 C945 1.449 . S
C965 C964 1.399 . S
C965 H971 0.930 . S
H966 C946 0.931 . S
H967 C947 0.930 . S
H968 C955 0.931 . S
H969 C956 0.929 . S
H970 C964 0.929 . S
H971 C965 0.930 . S
Mn972 O977 2.095 . S
Mn972 O987 2.162 . S
Mn972 O988 2.297 . S
Mn972 O996 2.385 . S
Mn972 O997 2.209 . S
Mn972 O998 2.094 . S
Mn973 O978 2.121 . S
Mn973 N980 2.257 . S
Mn973 N989 2.282 . S
Mn973 O997 2.215 . S
Mn973 O999 2.117 . S
C974 O996 1.234 . S
C974 O997 1.283 . S
C975 O987 1.281 . S
C975 O988 1.236 . S
C976 O998 1.240 . S
C976 O999 1.264 . S
O977 Mn972 2.095 . S
O977 C986 1.250 . S
O978 Mn973 2.121 . S
O978 C986 1.258 . S
C979 N980 1.326 . S
C979 C983 1.460 . S
C979 H985 0.929 . S
N980 Mn973 2.257 . S
N980 C979 1.326 . S
N980 C984 1.362 . S
C981 C982 1.258 . S
C981 C984 1.431 . S
C981 C1001 1.449 . S
C982 C981 1.258 . S
C982 C983 1.477 . S
C982 H1002 0.931 . S
C983 C979 1.460 . S
C983 C982 1.477 . S
C983 H1003 0.930 . S
C984 N980 1.362 . S
C984 C981 1.431 . S
C984 C994 1.476 . S
H985 C979 0.929 . S
C986 O977 1.250 . S
C986 O978 1.258 . S
O987 Mn972 2.162 . S
O987 C975 1.281 . S
O988 Mn972 2.297 . S
O988 C975 1.236 . S
N989 Mn973 2.282 . S
N989 C990 1.328 . S
N989 C994 1.318 . S
C990 N989 1.328 . S
C990 C991 1.457 . S
C990 H995 0.929 . S
C991 C990 1.457 . S
C991 C992 1.291 . S
C991 H1004 0.931 . S
C992 C991 1.291 . S
C992 C993 1.373 . S
C992 H1005 0.929 . S
C993 C992 1.373 . S
C993 C994 1.396 . S
C993 C1000 1.403 . S
C994 C984 1.476 . S
C994 N989 1.318 . S
C994 C993 1.396 . S
H995 C990 0.929 . S
O996 Mn972 2.385 . S
O996 C974 1.234 . S
O997 Mn972 2.209 . S
O997 Mn973 2.215 . S
O997 C974 1.283 . S
O998 Mn972 2.094 . S
O998 C976 1.240 . S
O999 Mn973 2.117 . S
O999 C976 1.264 . S
C1000 C993 1.403 . S
C1000 C1001 1.399 . S
C1000 H1006 0.929 . S
C1001 C981 1.449 . S
C1001 C1000 1.399 . S
C1001 H1007 0.930 . S
H1002 C982 0.931 . S
H1003 C983 0.930 . S
H1004 C991 0.931 . S
H1005 C992 0.929 . S
H1006 C1000 0.929 . S
H1007 C1001 0.930 . S
Mn1008 O1013 2.095 . S
Mn1008 O1023 2.162 . S
Mn1008 O1024 2.297 . S
Mn1008 O1032 2.385 . S
Mn1008 O1033 2.209 . S
Mn1008 O1034 2.094 . S
Mn1009 O1014 2.121 . S
Mn1009 N1016 2.257 . S
Mn1009 N1025 2.282 . S
Mn1009 O1033 2.215 . S
Mn1009 O1035 2.117 . S
C1010 O1032 1.234 . S
C1010 O1033 1.283 . S
C1011 O1023 1.281 . S
C1011 O1024 1.236 . S
C1012 O1034 1.240 . S
C1012 O1035 1.264 . S
O1013 Mn1008 2.095 . S
O1013 C1022 1.250 . S
O1014 Mn1009 2.121 . S
O1014 C1022 1.258 . S
C1015 N1016 1.326 . S
C1015 C1019 1.460 . S
C1015 H1021 0.929 . S
N1016 Mn1009 2.257 . S
N1016 C1015 1.326 . S
N1016 C1020 1.362 . S
C1017 C1018 1.258 . S
C1017 C1020 1.431 . S
C1017 C1037 1.449 . S
C1018 C1017 1.258 . S
C1018 C1019 1.477 . S
C1018 H1038 0.931 . S
C1019 C1015 1.460 . S
C1019 C1018 1.477 . S
C1019 H1039 0.930 . S
C1020 N1016 1.362 . S
C1020 C1017 1.431 . S
C1020 C1030 1.476 . S
H1021 C1015 0.929 . S
C1022 O1013 1.250 . S
C1022 O1014 1.258 . S
O1023 Mn1008 2.162 . S
O1023 C1011 1.281 . S
O1024 Mn1008 2.297 . S
O1024 C1011 1.236 . S
N1025 Mn1009 2.282 . S
N1025 C1026 1.328 . S
N1025 C1030 1.318 . S
C1026 N1025 1.328 . S
C1026 C1027 1.457 . S
C1026 H1031 0.929 . S
C1027 C1026 1.457 . S
C1027 C1028 1.291 . S
C1027 H1040 0.931 . S
C1028 C1027 1.291 . S
C1028 C1029 1.373 . S
C1028 H1041 0.929 . S
C1029 C1028 1.373 . S
C1029 C1030 1.396 . S
C1029 C1036 1.403 . S
C1030 C1020 1.476 . S
C1030 N1025 1.318 . S
C1030 C1029 1.396 . S
H1031 C1026 0.929 . S
O1032 Mn1008 2.385 . S
O1032 C1010 1.234 . S
O1033 Mn1008 2.209 . S
O1033 Mn1009 2.215 . S
O1033 C1010 1.283 . S
O1034 Mn1008 2.094 . S
O1034 C1012 1.240 . S
O1035 Mn1009 2.117 . S
O1035 C1012 1.264 . S
C1036 C1029 1.403 . S
C1036 C1037 1.399 . S
C1036 H1042 0.929 . S
C1037 C1017 1.449 . S
C1037 C1036 1.399 . S
C1037 H1043 0.930 . S
H1038 C1018 0.931 . S
H1039 C1019 0.930 . S
H1040 C1027 0.931 . S
H1041 C1028 0.929 . S
H1042 C1036 0.929 . S
H1043 C1037 0.930 . S
Mn1044 O1049 2.095 . S
Mn1044 O1059 2.162 . S
Mn1044 O1060 2.297 . S
Mn1044 O1068 2.385 . S
Mn1044 O1069 2.209 . S
Mn1044 O1070 2.094 . S
Mn1045 O1050 2.121 . S
Mn1045 N1052 2.257 . S
Mn1045 N1061 2.282 . S
Mn1045 O1069 2.215 . S
Mn1045 O1071 2.117 . S
C1046 O1068 1.234 . S
C1046 O1069 1.283 . S
C1047 O1059 1.281 . S
C1047 O1060 1.236 . S
C1048 O1070 1.240 . S
C1048 O1071 1.264 . S
O1049 Mn1044 2.095 . S
O1049 C1058 1.250 . S
O1050 Mn1045 2.121 . S
O1050 C1058 1.258 . S
C1051 N1052 1.326 . S
C1051 C1055 1.460 . S
C1051 H1057 0.929 . S
N1052 Mn1045 2.257 . S
N1052 C1051 1.326 . S
N1052 C1056 1.362 . S
C1053 C1054 1.258 . S
C1053 C1056 1.431 . S
C1053 C1073 1.449 . S
C1054 C1053 1.258 . S
C1054 C1055 1.477 . S
C1054 H1074 0.931 . S
C1055 C1051 1.460 . S
C1055 C1054 1.477 . S
C1055 H1075 0.930 . S
C1056 N1052 1.362 . S
C1056 C1053 1.431 . S
C1056 C1066 1.476 . S
H1057 C1051 0.929 . S
C1058 O1049 1.250 . S
C1058 O1050 1.258 . S
O1059 Mn1044 2.162 . S
O1059 C1047 1.281 . S
O1060 Mn1044 2.297 . S
O1060 C1047 1.236 . S
N1061 Mn1045 2.282 . S
N1061 C1062 1.328 . S
N1061 C1066 1.318 . S
C1062 N1061 1.328 . S
C1062 C1063 1.457 . S
C1062 H1067 0.929 . S
C1063 C1062 1.457 . S
C1063 C1064 1.291 . S
C1063 H1076 0.931 . S
C1064 C1063 1.291 . S
C1064 C1065 1.373 . S
C1064 H1077 0.929 . S
C1065 C1064 1.373 . S
C1065 C1066 1.396 . S
C1065 C1072 1.403 . S
C1066 C1056 1.476 . S
C1066 N1061 1.318 . S
C1066 C1065 1.396 . S
H1067 C1062 0.929 . S
O1068 Mn1044 2.385 . S
O1068 C1046 1.234 . S
O1069 Mn1044 2.209 . S
O1069 Mn1045 2.215 . S
O1069 C1046 1.283 . S
O1070 Mn1044 2.094 . S
O1070 C1048 1.240 . S
O1071 Mn1045 2.117 . S
O1071 C1048 1.264 . S
C1072 C1065 1.403 . S
C1072 C1073 1.399 . S
C1072 H1078 0.929 . S
C1073 C1053 1.449 . S
C1073 C1072 1.399 . S
C1073 H1079 0.930 . S
H1074 C1054 0.931 . S
H1075 C1055 0.930 . S
H1076 C1063 0.931 . S
H1077 C1064 0.929 . S
H1078 C1072 0.929 . S
H1079 C1073 0.930 . S
Mn1080 O1085 2.095 . S
Mn1080 O1095 2.162 . S
Mn1080 O1096 2.297 . S
Mn1080 O1104 2.385 . S
Mn1080 O1105 2.209 . S
Mn1080 O1106 2.094 . S
Mn1081 O1086 2.121 . S
Mn1081 N1088 2.257 . S
Mn1081 N1097 2.282 . S
Mn1081 O1105 2.215 . S
Mn1081 O1107 2.117 . S
C1082 O1104 1.234 . S
C1082 O1105 1.283 . S
C1083 O1095 1.281 . S
C1083 O1096 1.236 . S
C1084 O1106 1.240 . S
C1084 O1107 1.264 . S
O1085 Mn1080 2.095 . S
O1085 C1094 1.250 . S
O1086 Mn1081 2.121 . S
O1086 C1094 1.258 . S
C1087 N1088 1.326 . S
C1087 C1091 1.460 . S
C1087 H1093 0.929 . S
N1088 Mn1081 2.257 . S
N1088 C1087 1.326 . S
N1088 C1092 1.362 . S
C1089 C1090 1.258 . S
C1089 C1092 1.431 . S
C1089 C1109 1.449 . S
C1090 C1089 1.258 . S
C1090 C1091 1.477 . S
C1090 H1110 0.931 . S
C1091 C1087 1.460 . S
C1091 C1090 1.477 . S
C1091 H1111 0.930 . S
C1092 N1088 1.362 . S
C1092 C1089 1.431 . S
C1092 C1102 1.476 . S
H1093 C1087 0.929 . S
C1094 O1085 1.250 . S
C1094 O1086 1.258 . S
O1095 Mn1080 2.162 . S
O1095 C1083 1.281 . S
O1096 Mn1080 2.297 . S
O1096 C1083 1.236 . S
N1097 Mn1081 2.282 . S
N1097 C1098 1.328 . S
N1097 C1102 1.318 . S
C1098 N1097 1.328 . S
C1098 C1099 1.457 . S
C1098 H1103 0.929 . S
C1099 C1098 1.457 . S
C1099 C1100 1.291 . S
C1099 H1112 0.931 . S
C1100 C1099 1.291 . S
C1100 C1101 1.373 . S
C1100 H1113 0.929 . S
C1101 C1100 1.373 . S
C1101 C1102 1.396 . S
C1101 C1108 1.403 . S
C1102 C1092 1.476 . S
C1102 N1097 1.318 . S
C1102 C1101 1.396 . S
H1103 C1098 0.929 . S
O1104 Mn1080 2.385 . S
O1104 C1082 1.234 . S
O1105 Mn1080 2.209 . S
O1105 Mn1081 2.215 . S
O1105 C1082 1.283 . S
O1106 Mn1080 2.094 . S
O1106 C1084 1.240 . S
O1107 Mn1081 2.117 . S
O1107 C1084 1.264 . S
C1108 C1101 1.403 . S
C1108 C1109 1.399 . S
C1108 H1114 0.929 . S
C1109 C1089 1.449 . S
C1109 C1108 1.399 . S
C1109 H1115 0.930 . S
H1110 C1090 0.931 . S
H1111 C1091 0.930 . S
H1112 C1099 0.931 . S
H1113 C1100 0.929 . S
H1114 C1108 0.929 . S
H1115 C1109 0.930 . S
Mn1116 O1121 2.095 . S
Mn1116 O1131 2.162 . S
Mn1116 O1132 2.297 . S
Mn1116 O1140 2.385 . S
Mn1116 O1141 2.209 . S
Mn1116 O1142 2.094 . S
Mn1117 O1122 2.121 . S
Mn1117 N1124 2.257 . S
Mn1117 N1133 2.282 . S
Mn1117 O1141 2.215 . S
Mn1117 O1143 2.117 . S
C1118 O1140 1.234 . S
C1118 O1141 1.283 . S
C1119 O1131 1.281 . S
C1119 O1132 1.236 . S
C1120 O1142 1.240 . S
C1120 O1143 1.264 . S
O1121 Mn1116 2.095 . S
O1121 C1130 1.250 . S
O1122 Mn1117 2.121 . S
O1122 C1130 1.258 . S
C1123 N1124 1.326 . S
C1123 C1127 1.460 . S
C1123 H1129 0.929 . S
N1124 Mn1117 2.257 . S
N1124 C1123 1.326 . S
N1124 C1128 1.362 . S
C1125 C1126 1.258 . S
C1125 C1128 1.431 . S
C1125 C1145 1.449 . S
C1126 C1125 1.258 . S
C1126 C1127 1.477 . S
C1126 H1146 0.931 . S
C1127 C1123 1.460 . S
C1127 C1126 1.477 . S
C1127 H1147 0.930 . S
C1128 N1124 1.362 . S
C1128 C1125 1.431 . S
C1128 C1138 1.476 . S
H1129 C1123 0.929 . S
C1130 O1121 1.250 . S
C1130 O1122 1.258 . S
O1131 Mn1116 2.162 . S
O1131 C1119 1.281 . S
O1132 Mn1116 2.297 . S
O1132 C1119 1.236 . S
N1133 Mn1117 2.282 . S
N1133 C1134 1.328 . S
N1133 C1138 1.318 . S
C1134 N1133 1.328 . S
C1134 C1135 1.457 . S
C1134 H1139 0.929 . S
C1135 C1134 1.457 . S
C1135 C1136 1.291 . S
C1135 H1148 0.931 . S
C1136 C1135 1.291 . S
C1136 C1137 1.373 . S
C1136 H1149 0.929 . S
C1137 C1136 1.373 . S
C1137 C1138 1.396 . S
C1137 C1144 1.403 . S
C1138 C1128 1.476 . S
C1138 N1133 1.318 . S
C1138 C1137 1.396 . S
H1139 C1134 0.929 . S
O1140 Mn1116 2.385 . S
O1140 C1118 1.234 . S
O1141 Mn1116 2.209 . S
O1141 Mn1117 2.215 . S
O1141 C1118 1.283 . S
O1142 Mn1116 2.094 . S
O1142 C1120 1.240 . S
O1143 Mn1117 2.117 . S
O1143 C1120 1.264 . S
C1144 C1137 1.403 . S
C1144 C1145 1.399 . S
C1144 H1150 0.929 . S
C1145 C1125 1.449 . S
C1145 C1144 1.399 . S
C1145 H1151 0.930 . S
H1146 C1126 0.931 . S
H1147 C1127 0.930 . S
H1148 C1135 0.931 . S
H1149 C1136 0.929 . S
H1150 C1144 0.929 . S
H1151 C1145 0.930 . S
Mn1152 O1157 2.095 . S
Mn1152 O1167 2.162 . S
Mn1152 O1168 2.297 . S
Mn1152 O1176 2.385 . S
Mn1152 O1177 2.209 . S
Mn1152 O1178 2.094 . S
Mn1153 O1158 2.121 . S
Mn1153 N1160 2.257 . S
Mn1153 N1169 2.282 . S
Mn1153 O1177 2.215 . S
Mn1153 O1179 2.117 . S
C1154 O1176 1.234 . S
C1154 O1177 1.283 . S
C1155 O1167 1.281 . S
C1155 O1168 1.236 . S
C1156 O1178 1.240 . S
C1156 O1179 1.264 . S
O1157 Mn1152 2.095 . S
O1157 C1166 1.250 . S
O1158 Mn1153 2.121 . S
O1158 C1166 1.258 . S
C1159 N1160 1.326 . S
C1159 C1163 1.460 . S
C1159 H1165 0.929 . S
N1160 Mn1153 2.257 . S
N1160 C1159 1.326 . S
N1160 C1164 1.362 . S
C1161 C1162 1.258 . S
C1161 C1164 1.431 . S
C1161 C1181 1.449 . S
C1162 C1161 1.258 . S
C1162 C1163 1.477 . S
C1162 H1182 0.931 . S
C1163 C1159 1.460 . S
C1163 C1162 1.477 . S
C1163 H1183 0.930 . S
C1164 N1160 1.362 . S
C1164 C1161 1.431 . S
C1164 C1174 1.476 . S
H1165 C1159 0.929 . S
C1166 O1157 1.250 . S
C1166 O1158 1.258 . S
O1167 Mn1152 2.162 . S
O1167 C1155 1.281 . S
O1168 Mn1152 2.297 . S
O1168 C1155 1.236 . S
N1169 Mn1153 2.282 . S
N1169 C1170 1.328 . S
N1169 C1174 1.318 . S
C1170 N1169 1.328 . S
C1170 C1171 1.457 . S
C1170 H1175 0.929 . S
C1171 C1170 1.457 . S
C1171 C1172 1.291 . S
C1171 H1184 0.931 . S
C1172 C1171 1.291 . S
C1172 C1173 1.373 . S
C1172 H1185 0.929 . S
C1173 C1172 1.373 . S
C1173 C1174 1.396 . S
C1173 C1180 1.403 . S
C1174 C1164 1.476 . S
C1174 N1169 1.318 . S
C1174 C1173 1.396 . S
H1175 C1170 0.929 . S
O1176 Mn1152 2.385 . S
O1176 C1154 1.234 . S
O1177 Mn1152 2.209 . S
O1177 Mn1153 2.215 . S
O1177 C1154 1.283 . S
O1178 Mn1152 2.094 . S
O1178 C1156 1.240 . S
O1179 Mn1153 2.117 . S
O1179 C1156 1.264 . S
C1180 C1173 1.403 . S
C1180 C1181 1.399 . S
C1180 H1186 0.929 . S
C1181 C1161 1.449 . S
C1181 C1180 1.399 . S
C1181 H1187 0.930 . S
H1182 C1162 0.931 . S
H1183 C1163 0.930 . S
H1184 C1171 0.931 . S
H1185 C1172 0.929 . S
H1186 C1180 0.929 . S
H1187 C1181 0.930 . S
Mn1188 O1193 2.095 . S
Mn1188 O1203 2.162 . S
Mn1188 O1204 2.297 . S
Mn1188 O1212 2.385 . S
Mn1188 O1213 2.209 . S
Mn1188 O1214 2.094 . S
Mn1189 O1194 2.121 . S
Mn1189 N1196 2.257 . S
Mn1189 N1205 2.282 . S
Mn1189 O1213 2.215 . S
Mn1189 O1215 2.117 . S
C1190 O1212 1.234 . S
C1190 O1213 1.283 . S
C1191 O1203 1.281 . S
C1191 O1204 1.236 . S
C1192 O1214 1.240 . S
C1192 O1215 1.264 . S
O1193 Mn1188 2.095 . S
O1193 C1202 1.250 . S
O1194 Mn1189 2.121 . S
O1194 C1202 1.258 . S
C1195 N1196 1.326 . S
C1195 C1199 1.460 . S
C1195 H1201 0.929 . S
N1196 Mn1189 2.257 . S
N1196 C1195 1.326 . S
N1196 C1200 1.362 . S
C1197 C1198 1.258 . S
C1197 C1200 1.431 . S
C1197 C1217 1.449 . S
C1198 C1197 1.258 . S
C1198 C1199 1.477 . S
C1198 H1218 0.931 . S
C1199 C1195 1.460 . S
C1199 C1198 1.477 . S
C1199 H1219 0.930 . S
C1200 N1196 1.362 . S
C1200 C1197 1.431 . S
C1200 C1210 1.476 . S
H1201 C1195 0.929 . S
C1202 O1193 1.250 . S
C1202 O1194 1.258 . S
O1203 Mn1188 2.162 . S
O1203 C1191 1.281 . S
O1204 Mn1188 2.297 . S
O1204 C1191 1.236 . S
N1205 Mn1189 2.282 . S
N1205 C1206 1.328 . S
N1205 C1210 1.318 . S
C1206 N1205 1.328 . S
C1206 C1207 1.457 . S
C1206 H1211 0.929 . S
C1207 C1206 1.457 . S
C1207 C1208 1.291 . S
C1207 H1220 0.931 . S
C1208 C1207 1.291 . S
C1208 C1209 1.373 . S
C1208 H1221 0.929 . S
C1209 C1208 1.373 . S
C1209 C1210 1.396 . S
C1209 C1216 1.403 . S
C1210 C1200 1.476 . S
C1210 N1205 1.318 . S
C1210 C1209 1.396 . S
H1211 C1206 0.929 . S
O1212 Mn1188 2.385 . S
O1212 C1190 1.234 . S
O1213 Mn1188 2.209 . S
O1213 Mn1189 2.215 . S
O1213 C1190 1.283 . S
O1214 Mn1188 2.094 . S
O1214 C1192 1.240 . S
O1215 Mn1189 2.117 . S
O1215 C1192 1.264 . S
C1216 C1209 1.403 . S
C1216 C1217 1.399 . S
C1216 H1222 0.929 . S
C1217 C1197 1.449 . S
C1217 C1216 1.399 . S
C1217 H1223 0.930 . S
H1218 C1198 0.931 . S
H1219 C1199 0.930 . S
H1220 C1207 0.931 . S
H1221 C1208 0.929 . S
H1222 C1216 0.929 . S
H1223 C1217 0.930 . S
Mn1224 O1229 2.095 . S
Mn1224 O1239 2.162 . S
Mn1224 O1240 2.297 . S
Mn1224 O1248 2.385 . S
Mn1224 O1249 2.209 . S
Mn1224 O1250 2.094 . S
Mn1225 O1230 2.121 . S
Mn1225 N1232 2.257 . S
Mn1225 N1241 2.282 . S
Mn1225 O1249 2.215 . S
Mn1225 O1251 2.117 . S
C1226 O1248 1.234 . S
C1226 O1249 1.283 . S
C1227 O1239 1.281 . S
C1227 O1240 1.236 . S
C1228 O1250 1.240 . S
C1228 O1251 1.264 . S
O1229 Mn1224 2.095 . S
O1229 C1238 1.250 . S
O1230 Mn1225 2.121 . S
O1230 C1238 1.258 . S
C1231 N1232 1.326 . S
C1231 C1235 1.460 . S
C1231 H1237 0.929 . S
N1232 Mn1225 2.257 . S
N1232 C1231 1.326 . S
N1232 C1236 1.362 . S
C1233 C1234 1.258 . S
C1233 C1236 1.431 . S
C1233 C1253 1.449 . S
C1234 C1233 1.258 . S
C1234 C1235 1.477 . S
C1234 H1254 0.931 . S
C1235 C1231 1.460 . S
C1235 C1234 1.477 . S
C1235 H1255 0.930 . S
C1236 N1232 1.362 . S
C1236 C1233 1.431 . S
C1236 C1246 1.476 . S
H1237 C1231 0.929 . S
C1238 O1229 1.250 . S
C1238 O1230 1.258 . S
O1239 Mn1224 2.162 . S
O1239 C1227 1.281 . S
O1240 Mn1224 2.297 . S
O1240 C1227 1.236 . S
N1241 Mn1225 2.282 . S
N1241 C1242 1.328 . S
N1241 C1246 1.318 . S
C1242 N1241 1.328 . S
C1242 C1243 1.457 . S
C1242 H1247 0.929 . S
C1243 C1242 1.457 . S
C1243 C1244 1.291 . S
C1243 H1256 0.931 . S
C1244 C1243 1.291 . S
C1244 C1245 1.373 . S
C1244 H1257 0.929 . S
C1245 C1244 1.373 . S
C1245 C1246 1.396 . S
C1245 C1252 1.403 . S
C1246 C1236 1.476 . S
C1246 N1241 1.318 . S
C1246 C1245 1.396 . S
H1247 C1242 0.929 . S
O1248 Mn1224 2.385 . S
O1248 C1226 1.234 . S
O1249 Mn1224 2.209 . S
O1249 Mn1225 2.215 . S
O1249 C1226 1.283 . S
O1250 Mn1224 2.094 . S
O1250 C1228 1.240 . S
O1251 Mn1225 2.117 . S
O1251 C1228 1.264 . S
C1252 C1245 1.403 . S
C1252 C1253 1.399 . S
C1252 H1258 0.929 . S
C1253 C1233 1.449 . S
C1253 C1252 1.399 . S
C1253 H1259 0.930 . S
H1254 C1234 0.931 . S
H1255 C1235 0.930 . S
H1256 C1243 0.931 . S
H1257 C1244 0.929 . S
H1258 C1252 0.929 . S
H1259 C1253 0.930 . S
Mn1260 O1265 2.095 . S
Mn1260 O1275 2.162 . S
Mn1260 O1276 2.297 . S
Mn1260 O1284 2.385 . S
Mn1260 O1285 2.209 . S
Mn1260 O1286 2.094 . S
Mn1261 O1266 2.121 . S
Mn1261 N1268 2.257 . S
Mn1261 N1277 2.282 . S
Mn1261 O1285 2.215 . S
Mn1261 O1287 2.117 . S
C1262 O1284 1.234 . S
C1262 O1285 1.283 . S
C1263 O1275 1.281 . S
C1263 O1276 1.236 . S
C1264 O1286 1.240 . S
C1264 O1287 1.264 . S
O1265 Mn1260 2.095 . S
O1265 C1274 1.250 . S
O1266 Mn1261 2.121 . S
O1266 C1274 1.258 . S
C1267 N1268 1.326 . S
C1267 C1271 1.460 . S
C1267 H1273 0.929 . S
N1268 Mn1261 2.257 . S
N1268 C1267 1.326 . S
N1268 C1272 1.362 . S
C1269 C1270 1.258 . S
C1269 C1272 1.431 . S
C1269 C1289 1.449 . S
C1270 C1269 1.258 . S
C1270 C1271 1.477 . S
C1270 H1290 0.931 . S
C1271 C1267 1.460 . S
C1271 C1270 1.477 . S
C1271 H1291 0.930 . S
C1272 N1268 1.362 . S
C1272 C1269 1.431 . S
C1272 C1282 1.476 . S
H1273 C1267 0.929 . S
C1274 O1265 1.250 . S
C1274 O1266 1.258 . S
O1275 Mn1260 2.162 . S
O1275 C1263 1.281 . S
O1276 Mn1260 2.297 . S
O1276 C1263 1.236 . S
N1277 Mn1261 2.282 . S
N1277 C1278 1.328 . S
N1277 C1282 1.318 . S
C1278 N1277 1.328 . S
C1278 C1279 1.457 . S
C1278 H1283 0.929 . S
C1279 C1278 1.457 . S
C1279 C1280 1.291 . S
C1279 H1292 0.931 . S
C1280 C1279 1.291 . S
C1280 C1281 1.373 . S
C1280 H1293 0.929 . S
C1281 C1280 1.373 . S
C1281 C1282 1.396 . S
C1281 C1288 1.403 . S
C1282 C1272 1.476 . S
C1282 N1277 1.318 . S
C1282 C1281 1.396 . S
H1283 C1278 0.929 . S
O1284 Mn1260 2.385 . S
O1284 C1262 1.234 . S
O1285 Mn1260 2.209 . S
O1285 Mn1261 2.215 . S
O1285 C1262 1.283 . S
O1286 Mn1260 2.094 . S
O1286 C1264 1.240 . S
O1287 Mn1261 2.117 . S
O1287 C1264 1.264 . S
C1288 C1281 1.403 . S
C1288 C1289 1.399 . S
C1288 H1294 0.929 . S
C1289 C1269 1.449 . S
C1289 C1288 1.399 . S
C1289 H1295 0.930 . S
H1290 C1270 0.931 . S
H1291 C1271 0.930 . S
H1292 C1279 0.931 . S
H1293 C1280 0.929 . S
H1294 C1288 0.929 . S
H1295 C1289 0.930 . S
Mn1296 O1301 2.095 . S
Mn1296 O1311 2.162 . S
Mn1296 O1312 2.297 . S
Mn1296 O1320 2.385 . S
Mn1296 O1321 2.209 . S
Mn1296 O1322 2.094 . S
Mn1297 O1302 2.121 . S
Mn1297 N1304 2.257 . S
Mn1297 N1313 2.282 . S
Mn1297 O1321 2.215 . S
Mn1297 O1323 2.117 . S
C1298 O1320 1.234 . S
C1298 O1321 1.283 . S
C1299 O1311 1.281 . S
C1299 O1312 1.236 . S
C1300 O1322 1.240 . S
C1300 O1323 1.264 . S
O1301 Mn1296 2.095 . S
O1301 C1310 1.250 . S
O1302 Mn1297 2.121 . S
O1302 C1310 1.258 . S
C1303 N1304 1.326 . S
C1303 C1307 1.460 . S
C1303 H1309 0.929 . S
N1304 Mn1297 2.257 . S
N1304 C1303 1.326 . S
N1304 C1308 1.362 . S
C1305 C1306 1.258 . S
C1305 C1308 1.431 . S
C1305 C1325 1.449 . S
C1306 C1305 1.258 . S
C1306 C1307 1.477 . S
C1306 H1326 0.931 . S
C1307 C1303 1.460 . S
C1307 C1306 1.477 . S
C1307 H1327 0.930 . S
C1308 N1304 1.362 . S
C1308 C1305 1.431 . S
C1308 C1318 1.476 . S
H1309 C1303 0.929 . S
C1310 O1301 1.250 . S
C1310 O1302 1.258 . S
O1311 Mn1296 2.162 . S
O1311 C1299 1.281 . S
O1312 Mn1296 2.297 . S
O1312 C1299 1.236 . S
N1313 Mn1297 2.282 . S
N1313 C1314 1.328 . S
N1313 C1318 1.318 . S
C1314 N1313 1.328 . S
C1314 C1315 1.457 . S
C1314 H1319 0.929 . S
C1315 C1314 1.457 . S
C1315 C1316 1.291 . S
C1315 H1328 0.931 . S
C1316 C1315 1.291 . S
C1316 C1317 1.373 . S
C1316 H1329 0.929 . S
C1317 C1316 1.373 . S
C1317 C1318 1.396 . S
C1317 C1324 1.403 . S
C1318 C1308 1.476 . S
C1318 N1313 1.318 . S
C1318 C1317 1.396 . S
H1319 C1314 0.929 . S
O1320 Mn1296 2.385 . S
O1320 C1298 1.234 . S
O1321 Mn1296 2.209 . S
O1321 Mn1297 2.215 . S
O1321 C1298 1.283 . S
O1322 Mn1296 2.094 . S
O1322 C1300 1.240 . S
O1323 Mn1297 2.117 . S
O1323 C1300 1.264 . S
C1324 C1317 1.403 . S
C1324 C1325 1.399 . S
C1324 H1330 0.929 . S
C1325 C1305 1.449 . S
C1325 C1324 1.399 . S
C1325 H1331 0.930 . S
H1326 C1306 0.931 . S
H1327 C1307 0.930 . S
H1328 C1315 0.931 . S
H1329 C1316 0.929 . S
H1330 C1324 0.929 . S
H1331 C1325 0.930 . S
Mn1332 O1337 2.095 . S
Mn1332 O1347 2.162 . S
Mn1332 O1348 2.297 . S
Mn1332 O1356 2.385 . S
Mn1332 O1357 2.209 . S
Mn1332 O1358 2.094 . S
Mn1333 O1338 2.121 . S
Mn1333 N1340 2.257 . S
Mn1333 N1349 2.282 . S
Mn1333 O1357 2.215 . S
Mn1333 O1359 2.117 . S
C1334 O1356 1.234 . S
C1334 O1357 1.283 . S
C1335 O1347 1.281 . S
C1335 O1348 1.236 . S
C1336 O1358 1.240 . S
C1336 O1359 1.264 . S
O1337 Mn1332 2.095 . S
O1337 C1346 1.250 . S
O1338 Mn1333 2.121 . S
O1338 C1346 1.258 . S
C1339 N1340 1.326 . S
C1339 C1343 1.460 . S
C1339 H1345 0.929 . S
N1340 Mn1333 2.257 . S
N1340 C1339 1.326 . S
N1340 C1344 1.362 . S
C1341 C1342 1.258 . S
C1341 C1344 1.431 . S
C1341 C1361 1.449 . S
C1342 C1341 1.258 . S
C1342 C1343 1.477 . S
C1342 H1362 0.931 . S
C1343 C1339 1.460 . S
C1343 C1342 1.477 . S
C1343 H1363 0.930 . S
C1344 N1340 1.362 . S
C1344 C1341 1.431 . S
C1344 C1354 1.476 . S
H1345 C1339 0.929 . S
C1346 O1337 1.250 . S
C1346 O1338 1.258 . S
O1347 Mn1332 2.162 . S
O1347 C1335 1.281 . S
O1348 Mn1332 2.297 . S
O1348 C1335 1.236 . S
N1349 Mn1333 2.282 . S
N1349 C1350 1.328 . S
N1349 C1354 1.318 . S
C1350 N1349 1.328 . S
C1350 C1351 1.457 . S
C1350 H1355 0.929 . S
C1351 C1350 1.457 . S
C1351 C1352 1.291 . S
C1351 H1364 0.931 . S
C1352 C1351 1.291 . S
C1352 C1353 1.373 . S
C1352 H1365 0.929 . S
C1353 C1352 1.373 . S
C1353 C1354 1.396 . S
C1353 C1360 1.403 . S
C1354 C1344 1.476 . S
C1354 N1349 1.318 . S
C1354 C1353 1.396 . S
H1355 C1350 0.929 . S
O1356 Mn1332 2.385 . S
O1356 C1334 1.234 . S
O1357 Mn1332 2.209 . S
O1357 Mn1333 2.215 . S
O1357 C1334 1.283 . S
O1358 Mn1332 2.094 . S
O1358 C1336 1.240 . S
O1359 Mn1333 2.117 . S
O1359 C1336 1.264 . S
C1360 C1353 1.403 . S
C1360 C1361 1.399 . S
C1360 H1366 0.929 . S
C1361 C1341 1.449 . S
C1361 C1360 1.399 . S
C1361 H1367 0.930 . S
H1362 C1342 0.931 . S
H1363 C1343 0.930 . S
H1364 C1351 0.931 . S
H1365 C1352 0.929 . S
H1366 C1360 0.929 . S
H1367 C1361 0.930 . S
Mn1368 O1373 2.095 . S
Mn1368 O1383 2.162 . S
Mn1368 O1384 2.297 . S
Mn1368 O1392 2.385 . S
Mn1368 O1393 2.209 . S
Mn1368 O1394 2.094 . S
Mn1369 O1374 2.121 . S
Mn1369 N1376 2.257 . S
Mn1369 N1385 2.282 . S
Mn1369 O1393 2.215 . S
Mn1369 O1395 2.117 . S
C1370 O1392 1.234 . S
C1370 O1393 1.283 . S
C1371 O1383 1.281 . S
C1371 O1384 1.236 . S
C1372 O1394 1.240 . S
C1372 O1395 1.264 . S
O1373 Mn1368 2.095 . S
O1373 C1382 1.250 . S
O1374 Mn1369 2.121 . S
O1374 C1382 1.258 . S
C1375 N1376 1.326 . S
C1375 C1379 1.460 . S
C1375 H1381 0.929 . S
N1376 Mn1369 2.257 . S
N1376 C1375 1.326 . S
N1376 C1380 1.362 . S
C1377 C1378 1.258 . S
C1377 C1380 1.431 . S
C1377 C1397 1.449 . S
C1378 C1377 1.258 . S
C1378 C1379 1.477 . S
C1378 H1398 0.931 . S
C1379 C1375 1.460 . S
C1379 C1378 1.477 . S
C1379 H1399 0.930 . S
C1380 N1376 1.362 . S
C1380 C1377 1.431 . S
C1380 C1390 1.476 . S
H1381 C1375 0.929 . S
C1382 O1373 1.250 . S
C1382 O1374 1.258 . S
O1383 Mn1368 2.162 . S
O1383 C1371 1.281 . S
O1384 Mn1368 2.297 . S
O1384 C1371 1.236 . S
N1385 Mn1369 2.282 . S
N1385 C1386 1.328 . S
N1385 C1390 1.318 . S
C1386 N1385 1.328 . S
C1386 C1387 1.457 . S
C1386 H1391 0.929 . S
C1387 C1386 1.457 . S
C1387 C1388 1.291 . S
C1387 H1400 0.931 . S
C1388 C1387 1.291 . S
C1388 C1389 1.373 . S
C1388 H1401 0.929 . S
C1389 C1388 1.373 . S
C1389 C1390 1.396 . S
C1389 C1396 1.403 . S
C1390 C1380 1.476 . S
C1390 N1385 1.318 . S
C1390 C1389 1.396 . S
H1391 C1386 0.929 . S
O1392 Mn1368 2.385 . S
O1392 C1370 1.234 . S
O1393 Mn1368 2.209 . S
O1393 Mn1369 2.215 . S
O1393 C1370 1.283 . S
O1394 Mn1368 2.094 . S
O1394 C1372 1.240 . S
O1395 Mn1369 2.117 . S
O1395 C1372 1.264 . S
C1396 C1389 1.403 . S
C1396 C1397 1.399 . S
C1396 H1402 0.929 . S
C1397 C1377 1.449 . S
C1397 C1396 1.399 . S
C1397 H1403 0.930 . S
H1398 C1378 0.931 . S
H1399 C1379 0.930 . S
H1400 C1387 0.931 . S
H1401 C1388 0.929 . S
H1402 C1396 0.929 . S
H1403 C1397 0.930 . S
Mn1404 O1409 2.095 . S
Mn1404 O1419 2.162 . S
Mn1404 O1420 2.297 . S
Mn1404 O1428 2.385 . S
Mn1404 O1429 2.209 . S
Mn1404 O1430 2.094 . S
Mn1405 O1410 2.121 . S
Mn1405 N1412 2.257 . S
Mn1405 N1421 2.282 . S
Mn1405 O1429 2.215 . S
Mn1405 O1431 2.117 . S
C1406 O1428 1.234 . S
C1406 O1429 1.283 . S
C1407 O1419 1.281 . S
C1407 O1420 1.236 . S
C1408 O1430 1.240 . S
C1408 O1431 1.264 . S
O1409 Mn1404 2.095 . S
O1409 C1418 1.250 . S
O1410 Mn1405 2.121 . S
O1410 C1418 1.258 . S
C1411 N1412 1.326 . S
C1411 C1415 1.460 . S
C1411 H1417 0.929 . S
N1412 Mn1405 2.257 . S
N1412 C1411 1.326 . S
N1412 C1416 1.362 . S
C1413 C1414 1.258 . S
C1413 C1416 1.431 . S
C1413 C1433 1.449 . S
C1414 C1413 1.258 . S
C1414 C1415 1.477 . S
C1414 H1434 0.931 . S
C1415 C1411 1.460 . S
C1415 C1414 1.477 . S
C1415 H1435 0.930 . S
C1416 N1412 1.362 . S
C1416 C1413 1.431 . S
C1416 C1426 1.476 . S
H1417 C1411 0.929 . S
C1418 O1409 1.250 . S
C1418 O1410 1.258 . S
O1419 Mn1404 2.162 . S
O1419 C1407 1.281 . S
O1420 Mn1404 2.297 . S
O1420 C1407 1.236 . S
N1421 Mn1405 2.282 . S
N1421 C1422 1.328 . S
N1421 C1426 1.318 . S
C1422 N1421 1.328 . S
C1422 C1423 1.457 . S
C1422 H1427 0.929 . S
C1423 C1422 1.457 . S
C1423 C1424 1.291 . S
C1423 H1436 0.931 . S
C1424 C1423 1.291 . S
C1424 C1425 1.373 . S
C1424 H1437 0.929 . S
C1425 C1424 1.373 . S
C1425 C1426 1.396 . S
C1425 C1432 1.403 . S
C1426 C1416 1.476 . S
C1426 N1421 1.318 . S
C1426 C1425 1.396 . S
H1427 C1422 0.929 . S
O1428 Mn1404 2.385 . S
O1428 C1406 1.234 . S
O1429 Mn1404 2.209 . S
O1429 Mn1405 2.215 . S
O1429 C1406 1.283 . S
O1430 Mn1404 2.094 . S
O1430 C1408 1.240 . S
O1431 Mn1405 2.117 . S
O1431 C1408 1.264 . S
C1432 C1425 1.403 . S
C1432 C1433 1.399 . S
C1432 H1438 0.929 . S
C1433 C1413 1.449 . S
C1433 C1432 1.399 . S
C1433 H1439 0.930 . S
H1434 C1414 0.931 . S
H1435 C1415 0.930 . S
H1436 C1423 0.931 . S
H1437 C1424 0.929 . S
H1438 C1432 0.929 . S
H1439 C1433 0.930 . S
Mn1440 O1445 2.095 . S
Mn1440 O1455 2.162 . S
Mn1440 O1456 2.297 . S
Mn1440 O1464 2.385 . S
Mn1440 O1465 2.209 . S
Mn1440 O1466 2.094 . S
Mn1441 O1446 2.121 . S
Mn1441 N1448 2.257 . S
Mn1441 N1457 2.282 . S
Mn1441 O1465 2.215 . S
Mn1441 O1467 2.117 . S
C1442 O1464 1.234 . S
C1442 O1465 1.283 . S
C1443 O1455 1.281 . S
C1443 O1456 1.236 . S
C1444 O1466 1.240 . S
C1444 O1467 1.264 . S
O1445 Mn1440 2.095 . S
O1445 C1454 1.250 . S
O1446 Mn1441 2.121 . S
O1446 C1454 1.258 . S
C1447 N1448 1.326 . S
C1447 C1451 1.460 . S
C1447 H1453 0.929 . S
N1448 Mn1441 2.257 . S
N1448 C1447 1.326 . S
N1448 C1452 1.362 . S
C1449 C1450 1.258 . S
C1449 C1452 1.431 . S
C1449 C1469 1.449 . S
C1450 C1449 1.258 . S
C1450 C1451 1.477 . S
C1450 H1470 0.931 . S
C1451 C1447 1.460 . S
C1451 C1450 1.477 . S
C1451 H1471 0.930 . S
C1452 N1448 1.362 . S
C1452 C1449 1.431 . S
C1452 C1462 1.476 . S
H1453 C1447 0.929 . S
C1454 O1445 1.250 . S
C1454 O1446 1.258 . S
O1455 Mn1440 2.162 . S
O1455 C1443 1.281 . S
O1456 Mn1440 2.297 . S
O1456 C1443 1.236 . S
N1457 Mn1441 2.282 . S
N1457 C1458 1.328 . S
N1457 C1462 1.318 . S
C1458 N1457 1.328 . S
C1458 C1459 1.457 . S
C1458 H1463 0.929 . S
C1459 C1458 1.457 . S
C1459 C1460 1.291 . S
C1459 H1472 0.931 . S
C1460 C1459 1.291 . S
C1460 C1461 1.373 . S
C1460 H1473 0.929 . S
C1461 C1460 1.373 . S
C1461 C1462 1.396 . S
C1461 C1468 1.403 . S
C1462 C1452 1.476 . S
C1462 N1457 1.318 . S
C1462 C1461 1.396 . S
H1463 C1458 0.929 . S
O1464 Mn1440 2.385 . S
O1464 C1442 1.234 . S
O1465 Mn1440 2.209 . S
O1465 Mn1441 2.215 . S
O1465 C1442 1.283 . S
O1466 Mn1440 2.094 . S
O1466 C1444 1.240 . S
O1467 Mn1441 2.117 . S
O1467 C1444 1.264 . S
C1468 C1461 1.403 . S
C1468 C1469 1.399 . S
C1468 H1474 0.929 . S
C1469 C1449 1.449 . S
C1469 C1468 1.399 . S
C1469 H1475 0.930 . S
H1470 C1450 0.931 . S
H1471 C1451 0.930 . S
H1472 C1459 0.931 . S
H1473 C1460 0.929 . S
H1474 C1468 0.929 . S
H1475 C1469 0.930 . S
Mn1476 O1481 2.095 . S
Mn1476 O1491 2.162 . S
Mn1476 O1492 2.297 . S
Mn1476 O1500 2.385 . S
Mn1476 O1501 2.209 . S
Mn1476 O1502 2.094 . S
Mn1477 O1482 2.121 . S
Mn1477 N1484 2.257 . S
Mn1477 N1493 2.282 . S
Mn1477 O1501 2.215 . S
Mn1477 O1503 2.117 . S
C1478 O1500 1.234 . S
C1478 O1501 1.283 . S
C1479 O1491 1.281 . S
C1479 O1492 1.236 . S
C1480 O1502 1.240 . S
C1480 O1503 1.264 . S
O1481 Mn1476 2.095 . S
O1481 C1490 1.250 . S
O1482 Mn1477 2.121 . S
O1482 C1490 1.258 . S
C1483 N1484 1.326 . S
C1483 C1487 1.460 . S
C1483 H1489 0.929 . S
N1484 Mn1477 2.257 . S
N1484 C1483 1.326 . S
N1484 C1488 1.362 . S
C1485 C1486 1.258 . S
C1485 C1488 1.431 . S
C1485 C1505 1.449 . S
C1486 C1485 1.258 . S
C1486 C1487 1.477 . S
C1486 H1506 0.931 . S
C1487 C1483 1.460 . S
C1487 C1486 1.477 . S
C1487 H1507 0.930 . S
C1488 N1484 1.362 . S
C1488 C1485 1.431 . S
C1488 C1498 1.476 . S
H1489 C1483 0.929 . S
C1490 O1481 1.250 . S
C1490 O1482 1.258 . S
O1491 Mn1476 2.162 . S
O1491 C1479 1.281 . S
O1492 Mn1476 2.297 . S
O1492 C1479 1.236 . S
N1493 Mn1477 2.282 . S
N1493 C1494 1.328 . S
N1493 C1498 1.318 . S
C1494 N1493 1.328 . S
C1494 C1495 1.457 . S
C1494 H1499 0.929 . S
C1495 C1494 1.457 . S
C1495 C1496 1.291 . S
C1495 H1508 0.931 . S
C1496 C1495 1.291 . S
C1496 C1497 1.373 . S
C1496 H1509 0.929 . S
C1497 C1496 1.373 . S
C1497 C1498 1.396 . S
C1497 C1504 1.403 . S
C1498 C1488 1.476 . S
C1498 N1493 1.318 . S
C1498 C1497 1.396 . S
H1499 C1494 0.929 . S
O1500 Mn1476 2.385 . S
O1500 C1478 1.234 . S
O1501 Mn1476 2.209 . S
O1501 Mn1477 2.215 . S
O1501 C1478 1.283 . S
O1502 Mn1476 2.094 . S
O1502 C1480 1.240 . S
O1503 Mn1477 2.117 . S
O1503 C1480 1.264 . S
C1504 C1497 1.403 . S
C1504 C1505 1.399 . S
C1504 H1510 0.929 . S
C1505 C1485 1.449 . S
C1505 C1504 1.399 . S
C1505 H1511 0.930 . S
H1506 C1486 0.931 . S
H1507 C1487 0.930 . S
H1508 C1495 0.931 . S
H1509 C1496 0.929 . S
H1510 C1504 0.929 . S
H1511 C1505 0.930 . S
Mn1512 O1517 2.095 . S
Mn1512 O1527 2.162 . S
Mn1512 O1528 2.297 . S
Mn1512 O1536 2.385 . S
Mn1512 O1537 2.209 . S
Mn1512 O1538 2.094 . S
Mn1513 O1518 2.121 . S
Mn1513 N1520 2.257 . S
Mn1513 N1529 2.282 . S
Mn1513 O1537 2.215 . S
Mn1513 O1539 2.117 . S
C1514 O1536 1.234 . S
C1514 O1537 1.283 . S
C1515 O1527 1.281 . S
C1515 O1528 1.236 . S
C1516 O1538 1.240 . S
C1516 O1539 1.264 . S
O1517 Mn1512 2.095 . S
O1517 C1526 1.250 . S
O1518 Mn1513 2.121 . S
O1518 C1526 1.258 . S
C1519 N1520 1.326 . S
C1519 C1523 1.460 . S
C1519 H1525 0.929 . S
N1520 Mn1513 2.257 . S
N1520 C1519 1.326 . S
N1520 C1524 1.362 . S
C1521 C1522 1.258 . S
C1521 C1524 1.431 . S
C1521 C1541 1.449 . S
C1522 C1521 1.258 . S
C1522 C1523 1.477 . S
C1522 H1542 0.931 . S
C1523 C1519 1.460 . S
C1523 C1522 1.477 . S
C1523 H1543 0.930 . S
C1524 N1520 1.362 . S
C1524 C1521 1.431 . S
C1524 C1534 1.476 . S
H1525 C1519 0.929 . S
C1526 O1517 1.250 . S
C1526 O1518 1.258 . S
O1527 Mn1512 2.162 . S
O1527 C1515 1.281 . S
O1528 Mn1512 2.297 . S
O1528 C1515 1.236 . S
N1529 Mn1513 2.282 . S
N1529 C1530 1.328 . S
N1529 C1534 1.318 . S
C1530 N1529 1.328 . S
C1530 C1531 1.457 . S
C1530 H1535 0.929 . S
C1531 C1530 1.457 . S
C1531 C1532 1.291 . S
C1531 H1544 0.931 . S
C1532 C1531 1.291 . S
C1532 C1533 1.373 . S
C1532 H1545 0.929 . S
C1533 C1532 1.373 . S
C1533 C1534 1.396 . S
C1533 C1540 1.403 . S
C1534 C1524 1.476 . S
C1534 N1529 1.318 . S
C1534 C1533 1.396 . S
H1535 C1530 0.929 . S
O1536 Mn1512 2.385 . S
O1536 C1514 1.234 . S
O1537 Mn1512 2.209 . S
O1537 Mn1513 2.215 . S
O1537 C1514 1.283 . S
O1538 Mn1512 2.094 . S
O1538 C1516 1.240 . S
O1539 Mn1513 2.117 . S
O1539 C1516 1.264 . S
C1540 C1533 1.403 . S
C1540 C1541 1.399 . S
C1540 H1546 0.929 . S
C1541 C1521 1.449 . S
C1541 C1540 1.399 . S
C1541 H1547 0.930 . S
H1542 C1522 0.931 . S
H1543 C1523 0.930 . S
H1544 C1531 0.931 . S
H1545 C1532 0.929 . S
H1546 C1540 0.929 . S
H1547 C1541 0.930 . S
Mn1548 O1553 2.095 . S
Mn1548 O1563 2.162 . S
Mn1548 O1564 2.297 . S
Mn1548 O1572 2.385 . S
Mn1548 O1573 2.209 . S
Mn1548 O1574 2.094 . S
Mn1549 O1554 2.121 . S
Mn1549 N1556 2.257 . S
Mn1549 N1565 2.282 . S
Mn1549 O1573 2.215 . S
Mn1549 O1575 2.117 . S
C1550 O1572 1.234 . S
C1550 O1573 1.283 . S
C1551 O1563 1.281 . S
C1551 O1564 1.236 . S
C1552 O1574 1.240 . S
C1552 O1575 1.264 . S
O1553 Mn1548 2.095 . S
O1553 C1562 1.250 . S
O1554 Mn1549 2.121 . S
O1554 C1562 1.258 . S
C1555 N1556 1.326 . S
C1555 C1559 1.460 . S
C1555 H1561 0.929 . S
N1556 Mn1549 2.257 . S
N1556 C1555 1.326 . S
N1556 C1560 1.362 . S
C1557 C1558 1.258 . S
C1557 C1560 1.431 . S
C1557 C1577 1.449 . S
C1558 C1557 1.258 . S
C1558 C1559 1.477 . S
C1558 H1578 0.931 . S
C1559 C1555 1.460 . S
C1559 C1558 1.477 . S
C1559 H1579 0.930 . S
C1560 N1556 1.362 . S
C1560 C1557 1.431 . S
C1560 C1570 1.476 . S
H1561 C1555 0.929 . S
C1562 O1553 1.250 . S
C1562 O1554 1.258 . S
O1563 Mn1548 2.162 . S
O1563 C1551 1.281 . S
O1564 Mn1548 2.297 . S
O1564 C1551 1.236 . S
N1565 Mn1549 2.282 . S
N1565 C1566 1.328 . S
N1565 C1570 1.318 . S
C1566 N1565 1.328 . S
C1566 C1567 1.457 . S
C1566 H1571 0.929 . S
C1567 C1566 1.457 . S
C1567 C1568 1.291 . S
C1567 H1580 0.931 . S
C1568 C1567 1.291 . S
C1568 C1569 1.373 . S
C1568 H1581 0.929 . S
C1569 C1568 1.373 . S
C1569 C1570 1.396 . S
C1569 C1576 1.403 . S
C1570 C1560 1.476 . S
C1570 N1565 1.318 . S
C1570 C1569 1.396 . S
H1571 C1566 0.929 . S
O1572 Mn1548 2.385 . S
O1572 C1550 1.234 . S
O1573 Mn1548 2.209 . S
O1573 Mn1549 2.215 . S
O1573 C1550 1.283 . S
O1574 Mn1548 2.094 . S
O1574 C1552 1.240 . S
O1575 Mn1549 2.117 . S
O1575 C1552 1.264 . S
C1576 C1569 1.403 . S
C1576 C1577 1.399 . S
C1576 H1582 0.929 . S
C1577 C1557 1.449 . S
C1577 C1576 1.399 . S
C1577 H1583 0.930 . S
H1578 C1558 0.931 . S
H1579 C1559 0.930 . S
H1580 C1567 0.931 . S
H1581 C1568 0.929 . S
H1582 C1576 0.929 . S
H1583 C1577 0.930 . S
Mn1584 O1589 2.095 . S
Mn1584 O1599 2.162 . S
Mn1584 O1600 2.297 . S
Mn1584 O1608 2.385 . S
Mn1584 O1609 2.209 . S
Mn1584 O1610 2.094 . S
Mn1585 O1590 2.121 . S
Mn1585 N1592 2.257 . S
Mn1585 N1601 2.282 . S
Mn1585 O1609 2.215 . S
Mn1585 O1611 2.117 . S
C1586 O1608 1.234 . S
C1586 O1609 1.283 . S
C1587 O1599 1.281 . S
C1587 O1600 1.236 . S
C1588 O1610 1.240 . S
C1588 O1611 1.264 . S
O1589 Mn1584 2.095 . S
O1589 C1598 1.250 . S
O1590 Mn1585 2.121 . S
O1590 C1598 1.258 . S
C1591 N1592 1.326 . S
C1591 C1595 1.460 . S
C1591 H1597 0.929 . S
N1592 Mn1585 2.257 . S
N1592 C1591 1.326 . S
N1592 C1596 1.362 . S
C1593 C1594 1.258 . S
C1593 C1596 1.431 . S
C1593 C1613 1.449 . S
C1594 C1593 1.258 . S
C1594 C1595 1.477 . S
C1594 H1614 0.931 . S
C1595 C1591 1.460 . S
C1595 C1594 1.477 . S
C1595 H1615 0.930 . S
C1596 N1592 1.362 . S
C1596 C1593 1.431 . S
C1596 C1606 1.476 . S
H1597 C1591 0.929 . S
C1598 O1589 1.250 . S
C1598 O1590 1.258 . S
O1599 Mn1584 2.162 . S
O1599 C1587 1.281 . S
O1600 Mn1584 2.297 . S
O1600 C1587 1.236 . S
N1601 Mn1585 2.282 . S
N1601 C1602 1.328 . S
N1601 C1606 1.318 . S
C1602 N1601 1.328 . S
C1602 C1603 1.457 . S
C1602 H1607 0.929 . S
C1603 C1602 1.457 . S
C1603 C1604 1.291 . S
C1603 H1616 0.931 . S
C1604 C1603 1.291 . S
C1604 C1605 1.373 . S
C1604 H1617 0.929 . S
C1605 C1604 1.373 . S
C1605 C1606 1.396 . S
C1605 C1612 1.403 . S
C1606 C1596 1.476 . S
C1606 N1601 1.318 . S
C1606 C1605 1.396 . S
H1607 C1602 0.929 . S
O1608 Mn1584 2.385 . S
O1608 C1586 1.234 . S
O1609 Mn1584 2.209 . S
O1609 Mn1585 2.215 . S
O1609 C1586 1.283 . S
O1610 Mn1584 2.094 . S
O1610 C1588 1.240 . S
O1611 Mn1585 2.117 . S
O1611 C1588 1.264 . S
C1612 C1605 1.403 . S
C1612 C1613 1.399 . S
C1612 H1618 0.929 . S
C1613 C1593 1.449 . S
C1613 C1612 1.399 . S
C1613 H1619 0.930 . S
H1614 C1594 0.931 . S
H1615 C1595 0.930 . S
H1616 C1603 0.931 . S
H1617 C1604 0.929 . S
H1618 C1612 0.929 . S
H1619 C1613 0.930 . S
Mn1620 O1625 2.095 . S
Mn1620 O1635 2.162 . S
Mn1620 O1636 2.297 . S
Mn1620 O1644 2.385 . S
Mn1620 O1645 2.209 . S
Mn1620 O1646 2.094 . S
Mn1621 O1626 2.121 . S
Mn1621 N1628 2.257 . S
Mn1621 N1637 2.282 . S
Mn1621 O1645 2.215 . S
Mn1621 O1647 2.117 . S
C1622 O1644 1.234 . S
C1622 O1645 1.283 . S
C1623 O1635 1.281 . S
C1623 O1636 1.236 . S
C1624 O1646 1.240 . S
C1624 O1647 1.264 . S
O1625 Mn1620 2.095 . S
O1625 C1634 1.250 . S
O1626 Mn1621 2.121 . S
O1626 C1634 1.258 . S
C1627 N1628 1.326 . S
C1627 C1631 1.460 . S
C1627 H1633 0.929 . S
N1628 Mn1621 2.257 . S
N1628 C1627 1.326 . S
N1628 C1632 1.362 . S
C1629 C1630 1.258 . S
C1629 C1632 1.431 . S
C1629 C1649 1.449 . S
C1630 C1629 1.258 . S
C1630 C1631 1.477 . S
C1630 H1650 0.931 . S
C1631 C1627 1.460 . S
C1631 C1630 1.477 . S
C1631 H1651 0.930 . S
C1632 N1628 1.362 . S
C1632 C1629 1.431 . S
C1632 C1642 1.476 . S
H1633 C1627 0.929 . S
C1634 O1625 1.250 . S
C1634 O1626 1.258 . S
O1635 Mn1620 2.162 . S
O1635 C1623 1.281 . S
O1636 Mn1620 2.297 . S
O1636 C1623 1.236 . S
N1637 Mn1621 2.282 . S
N1637 C1638 1.328 . S
N1637 C1642 1.318 . S
C1638 N1637 1.328 . S
C1638 C1639 1.457 . S
C1638 H1643 0.929 . S
C1639 C1638 1.457 . S
C1639 C1640 1.291 . S
C1639 H1652 0.931 . S
C1640 C1639 1.291 . S
C1640 C1641 1.373 . S
C1640 H1653 0.929 . S
C1641 C1640 1.373 . S
C1641 C1642 1.396 . S
C1641 C1648 1.403 . S
C1642 C1632 1.476 . S
C1642 N1637 1.318 . S
C1642 C1641 1.396 . S
H1643 C1638 0.929 . S
O1644 Mn1620 2.385 . S
O1644 C1622 1.234 . S
O1645 Mn1620 2.209 . S
O1645 Mn1621 2.215 . S
O1645 C1622 1.283 . S
O1646 Mn1620 2.094 . S
O1646 C1624 1.240 . S
O1647 Mn1621 2.117 . S
O1647 C1624 1.264 . S
C1648 C1641 1.403 . S
C1648 C1649 1.399 . S
C1648 H1654 0.929 . S
C1649 C1629 1.449 . S
C1649 C1648 1.399 . S
C1649 H1655 0.930 . S
H1650 C1630 0.931 . S
H1651 C1631 0.930 . S
H1652 C1639 0.931 . S
H1653 C1640 0.929 . S
H1654 C1648 0.929 . S
H1655 C1649 0.930 . S
Mn1656 O1661 2.095 . S
Mn1656 O1671 2.162 . S
Mn1656 O1672 2.297 . S
Mn1656 O1680 2.385 . S
Mn1656 O1681 2.209 . S
Mn1656 O1682 2.094 . S
Mn1657 O1662 2.121 . S
Mn1657 N1664 2.257 . S
Mn1657 N1673 2.282 . S
Mn1657 O1681 2.215 . S
Mn1657 O1683 2.117 . S
C1658 O1680 1.234 . S
C1658 O1681 1.283 . S
C1659 O1671 1.281 . S
C1659 O1672 1.236 . S
C1660 O1682 1.240 . S
C1660 O1683 1.264 . S
O1661 Mn1656 2.095 . S
O1661 C1670 1.250 . S
O1662 Mn1657 2.121 . S
O1662 C1670 1.258 . S
C1663 N1664 1.326 . S
C1663 C1667 1.460 . S
C1663 H1669 0.929 . S
N1664 Mn1657 2.257 . S
N1664 C1663 1.326 . S
N1664 C1668 1.362 . S
C1665 C1666 1.258 . S
C1665 C1668 1.431 . S
C1665 C1685 1.449 . S
C1666 C1665 1.258 . S
C1666 C1667 1.477 . S
C1666 H1686 0.931 . S
C1667 C1663 1.460 . S
C1667 C1666 1.477 . S
C1667 H1687 0.930 . S
C1668 N1664 1.362 . S
C1668 C1665 1.431 . S
C1668 C1678 1.476 . S
H1669 C1663 0.929 . S
C1670 O1661 1.250 . S
C1670 O1662 1.258 . S
O1671 Mn1656 2.162 . S
O1671 C1659 1.281 . S
O1672 Mn1656 2.297 . S
O1672 C1659 1.236 . S
N1673 Mn1657 2.282 . S
N1673 C1674 1.328 . S
N1673 C1678 1.318 . S
C1674 N1673 1.328 . S
C1674 C1675 1.457 . S
C1674 H1679 0.929 . S
C1675 C1674 1.457 . S
C1675 C1676 1.291 . S
C1675 H1688 0.931 . S
C1676 C1675 1.291 . S
C1676 C1677 1.373 . S
C1676 H1689 0.929 . S
C1677 C1676 1.373 . S
C1677 C1678 1.396 . S
C1677 C1684 1.403 . S
C1678 C1668 1.476 . S
C1678 N1673 1.318 . S
C1678 C1677 1.396 . S
H1679 C1674 0.929 . S
O1680 Mn1656 2.385 . S
O1680 C1658 1.234 . S
O1681 Mn1656 2.209 . S
O1681 Mn1657 2.215 . S
O1681 C1658 1.283 . S
O1682 Mn1656 2.094 . S
O1682 C1660 1.240 . S
O1683 Mn1657 2.117 . S
O1683 C1660 1.264 . S
C1684 C1677 1.403 . S
C1684 C1685 1.399 . S
C1684 H1690 0.929 . S
C1685 C1665 1.449 . S
C1685 C1684 1.399 . S
C1685 H1691 0.930 . S
H1686 C1666 0.931 . S
H1687 C1667 0.930 . S
H1688 C1675 0.931 . S
H1689 C1676 0.929 . S
H1690 C1684 0.929 . S
H1691 C1685 0.930 . S
Mn1692 O1697 2.095 . S
Mn1692 O1707 2.162 . S
Mn1692 O1708 2.297 . S
Mn1692 O1716 2.385 . S
Mn1692 O1717 2.209 . S
Mn1692 O1718 2.094 . S
Mn1693 O1698 2.121 . S
Mn1693 N1700 2.257 . S
Mn1693 N1709 2.282 . S
Mn1693 O1717 2.215 . S
Mn1693 O1719 2.117 . S
C1694 O1716 1.234 . S
C1694 O1717 1.283 . S
C1695 O1707 1.281 . S
C1695 O1708 1.236 . S
C1696 O1718 1.240 . S
C1696 O1719 1.264 . S
O1697 Mn1692 2.095 . S
O1697 C1706 1.250 . S
O1698 Mn1693 2.121 . S
O1698 C1706 1.258 . S
C1699 N1700 1.326 . S
C1699 C1703 1.460 . S
C1699 H1705 0.929 . S
N1700 Mn1693 2.257 . S
N1700 C1699 1.326 . S
N1700 C1704 1.362 . S
C1701 C1702 1.258 . S
C1701 C1704 1.431 . S
C1701 C1721 1.449 . S
C1702 C1701 1.258 . S
C1702 C1703 1.477 . S
C1702 H1722 0.931 . S
C1703 C1699 1.460 . S
C1703 C1702 1.477 . S
C1703 H1723 0.930 . S
C1704 N1700 1.362 . S
C1704 C1701 1.431 . S
C1704 C1714 1.476 . S
H1705 C1699 0.929 . S
C1706 O1697 1.250 . S
C1706 O1698 1.258 . S
O1707 Mn1692 2.162 . S
O1707 C1695 1.281 . S
O1708 Mn1692 2.297 . S
O1708 C1695 1.236 . S
N1709 Mn1693 2.282 . S
N1709 C1710 1.328 . S
N1709 C1714 1.318 . S
C1710 N1709 1.328 . S
C1710 C1711 1.457 . S
C1710 H1715 0.929 . S
C1711 C1710 1.457 . S
C1711 C1712 1.291 . S
C1711 H1724 0.931 . S
C1712 C1711 1.291 . S
C1712 C1713 1.373 . S
C1712 H1725 0.929 . S
C1713 C1712 1.373 . S
C1713 C1714 1.396 . S
C1713 C1720 1.403 . S
C1714 C1704 1.476 . S
C1714 N1709 1.318 . S
C1714 C1713 1.396 . S
H1715 C1710 0.929 . S
O1716 Mn1692 2.385 . S
O1716 C1694 1.234 . S
O1717 Mn1692 2.209 . S
O1717 Mn1693 2.215 . S
O1717 C1694 1.283 . S
O1718 Mn1692 2.094 . S
O1718 C1696 1.240 . S
O1719 Mn1693 2.117 . S
O1719 C1696 1.264 . S
C1720 C1713 1.403 . S
C1720 C1721 1.399 . S
C1720 H1726 0.929 . S
C1721 C1701 1.449 . S
C1721 C1720 1.399 . S
C1721 H1727 0.930 . S
H1722 C1702 0.931 . S
H1723 C1703 0.930 . S
H1724 C1711 0.931 . S
H1725 C1712 0.929 . S
H1726 C1720 0.929 . S
H1727 C1721 0.930 . S
Mn1728 O1733 2.095 . S
Mn1728 O1743 2.162 . S
Mn1728 O1744 2.297 . S
Mn1728 O1752 2.385 . S
Mn1728 O1753 2.209 . S
Mn1728 O1754 2.094 . S
Mn1729 O1734 2.121 . S
Mn1729 N1736 2.257 . S
Mn1729 N1745 2.282 . S
Mn1729 O1753 2.215 . S
Mn1729 O1755 2.117 . S
C1730 O1752 1.234 . S
C1730 O1753 1.283 . S
C1731 O1743 1.281 . S
C1731 O1744 1.236 . S
C1732 O1754 1.240 . S
C1732 O1755 1.264 . S
O1733 Mn1728 2.095 . S
O1733 C1742 1.250 . S
O1734 Mn1729 2.121 . S
O1734 C1742 1.258 . S
C1735 N1736 1.326 . S
C1735 C1739 1.460 . S
C1735 H1741 0.929 . S
N1736 Mn1729 2.257 . S
N1736 C1735 1.326 . S
N1736 C1740 1.362 . S
C1737 C1738 1.258 . S
C1737 C1740 1.431 . S
C1737 C1757 1.449 . S
C1738 C1737 1.258 . S
C1738 C1739 1.477 . S
C1738 H1758 0.931 . S
C1739 C1735 1.460 . S
C1739 C1738 1.477 . S
C1739 H1759 0.930 . S
C1740 N1736 1.362 . S
C1740 C1737 1.431 . S
C1740 C1750 1.476 . S
H1741 C1735 0.929 . S
C1742 O1733 1.250 . S
C1742 O1734 1.258 . S
O1743 Mn1728 2.162 . S
O1743 C1731 1.281 . S
O1744 Mn1728 2.297 . S
O1744 C1731 1.236 . S
N1745 Mn1729 2.282 . S
N1745 C1746 1.328 . S
N1745 C1750 1.318 . S
C1746 N1745 1.328 . S
C1746 C1747 1.457 . S
C1746 H1751 0.929 . S
C1747 C1746 1.457 . S
C1747 C1748 1.291 . S
C1747 H1760 0.931 . S
C1748 C1747 1.291 . S
C1748 C1749 1.373 . S
C1748 H1761 0.929 . S
C1749 C1748 1.373 . S
C1749 C1750 1.396 . S
C1749 C1756 1.403 . S
C1750 C1740 1.476 . S
C1750 N1745 1.318 . S
C1750 C1749 1.396 . S
H1751 C1746 0.929 . S
O1752 Mn1728 2.385 . S
O1752 C1730 1.234 . S
O1753 Mn1728 2.209 . S
O1753 Mn1729 2.215 . S
O1753 C1730 1.283 . S
O1754 Mn1728 2.094 . S
O1754 C1732 1.240 . S
O1755 Mn1729 2.117 . S
O1755 C1732 1.264 . S
C1756 C1749 1.403 . S
C1756 C1757 1.399 . S
C1756 H1762 0.929 . S
C1757 C1737 1.449 . S
C1757 C1756 1.399 . S
C1757 H1763 0.930 . S
H1758 C1738 0.931 . S
H1759 C1739 0.930 . S
H1760 C1747 0.931 . S
H1761 C1748 0.929 . S
H1762 C1756 0.929 . S
H1763 C1757 0.930 . S
Mn1764 O1769 2.095 . S
Mn1764 O1779 2.162 . S
Mn1764 O1780 2.297 . S
Mn1764 O1788 2.385 . S
Mn1764 O1789 2.209 . S
Mn1764 O1790 2.094 . S
Mn1765 O1770 2.121 . S
Mn1765 N1772 2.257 . S
Mn1765 N1781 2.282 . S
Mn1765 O1789 2.215 . S
Mn1765 O1791 2.117 . S
C1766 O1788 1.234 . S
C1766 O1789 1.283 . S
C1767 O1779 1.281 . S
C1767 O1780 1.236 . S
C1768 O1790 1.240 . S
C1768 O1791 1.264 . S
O1769 Mn1764 2.095 . S
O1769 C1778 1.250 . S
O1770 Mn1765 2.121 . S
O1770 C1778 1.258 . S
C1771 N1772 1.326 . S
C1771 C1775 1.460 . S
C1771 H1777 0.929 . S
N1772 Mn1765 2.257 . S
N1772 C1771 1.326 . S
N1772 C1776 1.362 . S
C1773 C1774 1.258 . S
C1773 C1776 1.431 . S
C1773 C1793 1.449 . S
C1774 C1773 1.258 . S
C1774 C1775 1.477 . S
C1774 H1794 0.931 . S
C1775 C1771 1.460 . S
C1775 C1774 1.477 . S
C1775 H1795 0.930 . S
C1776 N1772 1.362 . S
C1776 C1773 1.431 . S
C1776 C1786 1.476 . S
H1777 C1771 0.929 . S
C1778 O1769 1.250 . S
C1778 O1770 1.258 . S
O1779 Mn1764 2.162 . S
O1779 C1767 1.281 . S
O1780 Mn1764 2.297 . S
O1780 C1767 1.236 . S
N1781 Mn1765 2.282 . S
N1781 C1782 1.328 . S
N1781 C1786 1.318 . S
C1782 N1781 1.328 . S
C1782 C1783 1.457 . S
C1782 H1787 0.929 . S
C1783 C1782 1.457 . S
C1783 C1784 1.291 . S
C1783 H1796 0.931 . S
C1784 C1783 1.291 . S
C1784 C1785 1.373 . S
C1784 H1797 0.929 . S
C1785 C1784 1.373 . S
C1785 C1786 1.396 . S
C1785 C1792 1.403 . S
C1786 C1776 1.476 . S
C1786 N1781 1.318 . S
C1786 C1785 1.396 . S
H1787 C1782 0.929 . S
O1788 Mn1764 2.385 . S
O1788 C1766 1.234 . S
O1789 Mn1764 2.209 . S
O1789 Mn1765 2.215 . S
O1789 C1766 1.283 . S
O1790 Mn1764 2.094 . S
O1790 C1768 1.240 . S
O1791 Mn1765 2.117 . S
O1791 C1768 1.264 . S
C1792 C1785 1.403 . S
C1792 C1793 1.399 . S
C1792 H1798 0.929 . S
C1793 C1773 1.449 . S
C1793 C1792 1.399 . S
C1793 H1799 0.930 . S
H1794 C1774 0.931 . S
H1795 C1775 0.930 . S
H1796 C1783 0.931 . S
H1797 C1784 0.929 . S
H1798 C1792 0.929 . S
H1799 C1793 0.930 . S
Mn1800 O1805 2.095 . S
Mn1800 O1815 2.162 . S
Mn1800 O1816 2.297 . S
Mn1800 O1824 2.385 . S
Mn1800 O1825 2.209 . S
Mn1800 O1826 2.094 . S
Mn1801 O1806 2.121 . S
Mn1801 N1808 2.257 . S
Mn1801 N1817 2.282 . S
Mn1801 O1825 2.215 . S
Mn1801 O1827 2.117 . S
C1802 O1824 1.234 . S
C1802 O1825 1.283 . S
C1803 O1815 1.281 . S
C1803 O1816 1.236 . S
C1804 O1826 1.240 . S
C1804 O1827 1.264 . S
O1805 Mn1800 2.095 . S
O1805 C1814 1.250 . S
O1806 Mn1801 2.121 . S
O1806 C1814 1.258 . S
C1807 N1808 1.326 . S
C1807 C1811 1.460 . S
C1807 H1813 0.929 . S
N1808 Mn1801 2.257 . S
N1808 C1807 1.326 . S
N1808 C1812 1.362 . S
C1809 C1810 1.258 . S
C1809 C1812 1.431 . S
C1809 C1829 1.449 . S
C1810 C1809 1.258 . S
C1810 C1811 1.477 . S
C1810 H1830 0.931 . S
C1811 C1807 1.460 . S
C1811 C1810 1.477 . S
C1811 H1831 0.930 . S
C1812 N1808 1.362 . S
C1812 C1809 1.431 . S
C1812 C1822 1.476 . S
H1813 C1807 0.929 . S
C1814 O1805 1.250 . S
C1814 O1806 1.258 . S
O1815 Mn1800 2.162 . S
O1815 C1803 1.281 . S
O1816 Mn1800 2.297 . S
O1816 C1803 1.236 . S
N1817 Mn1801 2.282 . S
N1817 C1818 1.328 . S
N1817 C1822 1.318 . S
C1818 N1817 1.328 . S
C1818 C1819 1.457 . S
C1818 H1823 0.929 . S
C1819 C1818 1.457 . S
C1819 C1820 1.291 . S
C1819 H1832 0.931 . S
C1820 C1819 1.291 . S
C1820 C1821 1.373 . S
C1820 H1833 0.929 . S
C1821 C1820 1.373 . S
C1821 C1822 1.396 . S
C1821 C1828 1.403 . S
C1822 C1812 1.476 . S
C1822 N1817 1.318 . S
C1822 C1821 1.396 . S
H1823 C1818 0.929 . S
O1824 Mn1800 2.385 . S
O1824 C1802 1.234 . S
O1825 Mn1800 2.209 . S
O1825 Mn1801 2.215 . S
O1825 C1802 1.283 . S
O1826 Mn1800 2.094 . S
O1826 C1804 1.240 . S
O1827 Mn1801 2.117 . S
O1827 C1804 1.264 . S
C1828 C1821 1.403 . S
C1828 C1829 1.399 . S
C1828 H1834 0.929 . S
C1829 C1809 1.449 . S
C1829 C1828 1.399 . S
C1829 H1835 0.930 . S
H1830 C1810 0.931 . S
H1831 C1811 0.930 . S
H1832 C1819 0.931 . S
H1833 C1820 0.929 . S
H1834 C1828 0.929 . S
H1835 C1829 0.930 . S
Mn1836 O1841 2.095 . S
Mn1836 O1851 2.162 . S
Mn1836 O1852 2.297 . S
Mn1836 O1860 2.385 . S
Mn1836 O1861 2.209 . S
Mn1836 O1862 2.094 . S
Mn1837 O1842 2.121 . S
Mn1837 N1844 2.257 . S
Mn1837 N1853 2.282 . S
Mn1837 O1861 2.215 . S
Mn1837 O1863 2.117 . S
C1838 O1860 1.234 . S
C1838 O1861 1.283 . S
C1839 O1851 1.281 . S
C1839 O1852 1.236 . S
C1840 O1862 1.240 . S
C1840 O1863 1.264 . S
O1841 Mn1836 2.095 . S
O1841 C1850 1.250 . S
O1842 Mn1837 2.121 . S
O1842 C1850 1.258 . S
C1843 N1844 1.326 . S
C1843 C1847 1.460 . S
C1843 H1849 0.929 . S
N1844 Mn1837 2.257 . S
N1844 C1843 1.326 . S
N1844 C1848 1.362 . S
C1845 C1846 1.258 . S
C1845 C1848 1.431 . S
C1845 C1865 1.449 . S
C1846 C1845 1.258 . S
C1846 C1847 1.477 . S
C1846 H1866 0.931 . S
C1847 C1843 1.460 . S
C1847 C1846 1.477 . S
C1847 H1867 0.930 . S
C1848 N1844 1.362 . S
C1848 C1845 1.431 . S
C1848 C1858 1.476 . S
H1849 C1843 0.929 . S
C1850 O1841 1.250 . S
C1850 O1842 1.258 . S
O1851 Mn1836 2.162 . S
O1851 C1839 1.281 . S
O1852 Mn1836 2.297 . S
O1852 C1839 1.236 . S
N1853 Mn1837 2.282 . S
N1853 C1854 1.328 . S
N1853 C1858 1.318 . S
C1854 N1853 1.328 . S
C1854 C1855 1.457 . S
C1854 H1859 0.929 . S
C1855 C1854 1.457 . S
C1855 C1856 1.291 . S
C1855 H1868 0.931 . S
C1856 C1855 1.291 . S
C1856 C1857 1.373 . S
C1856 H1869 0.929 . S
C1857 C1856 1.373 . S
C1857 C1858 1.396 . S
C1857 C1864 1.403 . S
C1858 C1848 1.476 . S
C1858 N1853 1.318 . S
C1858 C1857 1.396 . S
H1859 C1854 0.929 . S
O1860 Mn1836 2.385 . S
O1860 C1838 1.234 . S
O1861 Mn1836 2.209 . S
O1861 Mn1837 2.215 . S
O1861 C1838 1.283 . S
O1862 Mn1836 2.094 . S
O1862 C1840 1.240 . S
O1863 Mn1837 2.117 . S
O1863 C1840 1.264 . S
C1864 C1857 1.403 . S
C1864 C1865 1.399 . S
C1864 H1870 0.929 . S
C1865 C1845 1.449 . S
C1865 C1864 1.399 . S
C1865 H1871 0.930 . S
H1866 C1846 0.931 . S
H1867 C1847 0.930 . S
H1868 C1855 0.931 . S
H1869 C1856 0.929 . S
H1870 C1864 0.929 . S
H1871 C1865 0.930 . S
Mn1872 O1877 2.095 . S
Mn1872 O1887 2.162 . S
Mn1872 O1888 2.297 . S
Mn1872 O1896 2.385 . S
Mn1872 O1897 2.209 . S
Mn1872 O1898 2.094 . S
Mn1873 O1878 2.121 . S
Mn1873 N1880 2.257 . S
Mn1873 N1889 2.282 . S
Mn1873 O1897 2.215 . S
Mn1873 O1899 2.117 . S
C1874 O1896 1.234 . S
C1874 O1897 1.283 . S
C1875 O1887 1.281 . S
C1875 O1888 1.236 . S
C1876 O1898 1.240 . S
C1876 O1899 1.264 . S
O1877 Mn1872 2.095 . S
O1877 C1886 1.250 . S
O1878 Mn1873 2.121 . S
O1878 C1886 1.258 . S
C1879 N1880 1.326 . S
C1879 C1883 1.460 . S
C1879 H1885 0.929 . S
N1880 Mn1873 2.257 . S
N1880 C1879 1.326 . S
N1880 C1884 1.362 . S
C1881 C1882 1.258 . S
C1881 C1884 1.431 . S
C1881 C1901 1.449 . S
C1882 C1881 1.258 . S
C1882 C1883 1.477 . S
C1882 H1902 0.931 . S
C1883 C1879 1.460 . S
C1883 C1882 1.477 . S
C1883 H1903 0.930 . S
C1884 N1880 1.362 . S
C1884 C1881 1.431 . S
C1884 C1894 1.476 . S
H1885 C1879 0.929 . S
C1886 O1877 1.250 . S
C1886 O1878 1.258 . S
O1887 Mn1872 2.162 . S
O1887 C1875 1.281 . S
O1888 Mn1872 2.297 . S
O1888 C1875 1.236 . S
N1889 Mn1873 2.282 . S
N1889 C1890 1.328 . S
N1889 C1894 1.318 . S
C1890 N1889 1.328 . S
C1890 C1891 1.457 . S
C1890 H1895 0.929 . S
C1891 C1890 1.457 . S
C1891 C1892 1.291 . S
C1891 H1904 0.931 . S
C1892 C1891 1.291 . S
C1892 C1893 1.373 . S
C1892 H1905 0.929 . S
C1893 C1892 1.373 . S
C1893 C1894 1.396 . S
C1893 C1900 1.403 . S
C1894 C1884 1.476 . S
C1894 N1889 1.318 . S
C1894 C1893 1.396 . S
H1895 C1890 0.929 . S
O1896 Mn1872 2.385 . S
O1896 C1874 1.234 . S
O1897 Mn1872 2.209 . S
O1897 Mn1873 2.215 . S
O1897 C1874 1.283 . S
O1898 Mn1872 2.094 . S
O1898 C1876 1.240 . S
O1899 Mn1873 2.117 . S
O1899 C1876 1.264 . S
C1900 C1893 1.403 . S
C1900 C1901 1.399 . S
C1900 H1906 0.929 . S
C1901 C1881 1.449 . S
C1901 C1900 1.399 . S
C1901 H1907 0.930 . S
H1902 C1882 0.931 . S
H1903 C1883 0.930 . S
H1904 C1891 0.931 . S
H1905 C1892 0.929 . S
H1906 C1900 0.929 . S
H1907 C1901 0.930 . S
Mn1908 O1913 2.095 . S
Mn1908 O1923 2.162 . S
Mn1908 O1924 2.297 . S
Mn1908 O1932 2.385 . S
Mn1908 O1933 2.209 . S
Mn1908 O1934 2.094 . S
Mn1909 O1914 2.121 . S
Mn1909 N1916 2.257 . S
Mn1909 N1925 2.282 . S
Mn1909 O1933 2.215 . S
Mn1909 O1935 2.117 . S
C1910 O1932 1.234 . S
C1910 O1933 1.283 . S
C1911 O1923 1.281 . S
C1911 O1924 1.236 . S
C1912 O1934 1.240 . S
C1912 O1935 1.264 . S
O1913 Mn1908 2.095 . S
O1913 C1922 1.250 . S
O1914 Mn1909 2.121 . S
O1914 C1922 1.258 . S
C1915 N1916 1.326 . S
C1915 C1919 1.460 . S
C1915 H1921 0.929 . S
N1916 Mn1909 2.257 . S
N1916 C1915 1.326 . S
N1916 C1920 1.362 . S
C1917 C1918 1.258 . S
C1917 C1920 1.431 . S
C1917 C1937 1.449 . S
C1918 C1917 1.258 . S
C1918 C1919 1.477 . S
C1918 H1938 0.931 . S
C1919 C1915 1.460 . S
C1919 C1918 1.477 . S
C1919 H1939 0.930 . S
C1920 N1916 1.362 . S
C1920 C1917 1.431 . S
C1920 C1930 1.476 . S
H1921 C1915 0.929 . S
C1922 O1913 1.250 . S
C1922 O1914 1.258 . S
O1923 Mn1908 2.162 . S
O1923 C1911 1.281 . S
O1924 Mn1908 2.297 . S
O1924 C1911 1.236 . S
N1925 Mn1909 2.282 . S
N1925 C1926 1.328 . S
N1925 C1930 1.318 . S
C1926 N1925 1.328 . S
C1926 C1927 1.457 . S
C1926 H1931 0.929 . S
C1927 C1926 1.457 . S
C1927 C1928 1.291 . S
C1927 H1940 0.931 . S
C1928 C1927 1.291 . S
C1928 C1929 1.373 . S
C1928 H1941 0.929 . S
C1929 C1928 1.373 . S
C1929 C1930 1.396 . S
C1929 C1936 1.403 . S
C1930 C1920 1.476 . S
C1930 N1925 1.318 . S
C1930 C1929 1.396 . S
H1931 C1926 0.929 . S
O1932 Mn1908 2.385 . S
O1932 C1910 1.234 . S
O1933 Mn1908 2.209 . S
O1933 Mn1909 2.215 . S
O1933 C1910 1.283 . S
O1934 Mn1908 2.094 . S
O1934 C1912 1.240 . S
O1935 Mn1909 2.117 . S
O1935 C1912 1.264 . S
C1936 C1929 1.403 . S
C1936 C1937 1.399 . S
C1936 H1942 0.929 . S
C1937 C1917 1.449 . S
C1937 C1936 1.399 . S
C1937 H1943 0.930 . S
H1938 C1918 0.931 . S
H1939 C1919 0.930 . S
H1940 C1927 0.931 . S
H1941 C1928 0.929 . S
H1942 C1936 0.929 . S
H1943 C1937 0.930 . S
Mn1944 O1949 2.095 . S
Mn1944 O1959 2.162 . S
Mn1944 O1960 2.297 . S
Mn1944 O1968 2.385 . S
Mn1944 O1969 2.209 . S
Mn1944 O1970 2.094 . S
Mn1945 O1950 2.121 . S
Mn1945 N1952 2.257 . S
Mn1945 N1961 2.282 . S
Mn1945 O1969 2.215 . S
Mn1945 O1971 2.117 . S
C1946 O1968 1.234 . S
C1946 O1969 1.283 . S
C1947 O1959 1.281 . S
C1947 O1960 1.236 . S
C1948 O1970 1.240 . S
C1948 O1971 1.264 . S
O1949 Mn1944 2.095 . S
O1949 C1958 1.250 . S
O1950 Mn1945 2.121 . S
O1950 C1958 1.258 . S
C1951 N1952 1.326 . S
C1951 C1955 1.460 . S
C1951 H1957 0.929 . S
N1952 Mn1945 2.257 . S
N1952 C1951 1.326 . S
N1952 C1956 1.362 . S
C1953 C1954 1.258 . S
C1953 C1956 1.431 . S
C1953 C1973 1.449 . S
C1954 C1953 1.258 . S
C1954 C1955 1.477 . S
C1954 H1974 0.931 . S
C1955 C1951 1.460 . S
C1955 C1954 1.477 . S
C1955 H1975 0.930 . S
C1956 N1952 1.362 . S
C1956 C1953 1.431 . S
C1956 C1966 1.476 . S
H1957 C1951 0.929 . S
C1958 O1949 1.250 . S
C1958 O1950 1.258 . S
O1959 Mn1944 2.162 . S
O1959 C1947 1.281 . S
O1960 Mn1944 2.297 . S
O1960 C1947 1.236 . S
N1961 Mn1945 2.282 . S
N1961 C1962 1.328 . S
N1961 C1966 1.318 . S
C1962 N1961 1.328 . S
C1962 C1963 1.457 . S
C1962 H1967 0.929 . S
C1963 C1962 1.457 . S
C1963 C1964 1.291 . S
C1963 H1976 0.931 . S
C1964 C1963 1.291 . S
C1964 C1965 1.373 . S
C1964 H1977 0.929 . S
C1965 C1964 1.373 . S
C1965 C1966 1.396 . S
C1965 C1972 1.403 . S
C1966 C1956 1.476 . S
C1966 N1961 1.318 . S
C1966 C1965 1.396 . S
H1967 C1962 0.929 . S
O1968 Mn1944 2.385 . S
O1968 C1946 1.234 . S
O1969 Mn1944 2.209 . S
O1969 Mn1945 2.215 . S
O1969 C1946 1.283 . S
O1970 Mn1944 2.094 . S
O1970 C1948 1.240 . S
O1971 Mn1945 2.117 . S
O1971 C1948 1.264 . S
C1972 C1965 1.403 . S
C1972 C1973 1.399 . S
C1972 H1978 0.929 . S
C1973 C1953 1.449 . S
C1973 C1972 1.399 . S
C1973 H1979 0.930 . S
H1974 C1954 0.931 . S
H1975 C1955 0.930 . S
H1976 C1963 0.931 . S
H1977 C1964 0.929 . S
H1978 C1972 0.929 . S
H1979 C1973 0.930 . S
Mn1980 O1985 2.095 . S
Mn1980 O1995 2.162 . S
Mn1980 O1996 2.297 . S
Mn1980 O2004 2.385 . S
Mn1980 O2005 2.209 . S
Mn1980 O2006 2.094 . S
Mn1981 O1986 2.121 . S
Mn1981 N1988 2.257 . S
Mn1981 N1997 2.282 . S
Mn1981 O2005 2.215 . S
Mn1981 O2007 2.117 . S
C1982 O2004 1.234 . S
C1982 O2005 1.283 . S
C1983 O1995 1.281 . S
C1983 O1996 1.236 . S
C1984 O2006 1.240 . S
C1984 O2007 1.264 . S
O1985 Mn1980 2.095 . S
O1985 C1994 1.250 . S
O1986 Mn1981 2.121 . S
O1986 C1994 1.258 . S
C1987 N1988 1.326 . S
C1987 C1991 1.460 . S
C1987 H1993 0.929 . S
N1988 Mn1981 2.257 . S
N1988 C1987 1.326 . S
N1988 C1992 1.362 . S
C1989 C1990 1.258 . S
C1989 C1992 1.431 . S
C1989 C2009 1.449 . S
C1990 C1989 1.258 . S
C1990 C1991 1.477 . S
C1990 H2010 0.931 . S
C1991 C1987 1.460 . S
C1991 C1990 1.477 . S
C1991 H2011 0.930 . S
C1992 N1988 1.362 . S
C1992 C1989 1.431 . S
C1992 C2002 1.476 . S
H1993 C1987 0.929 . S
C1994 O1985 1.250 . S
C1994 O1986 1.258 . S
O1995 Mn1980 2.162 . S
O1995 C1983 1.281 . S
O1996 Mn1980 2.297 . S
O1996 C1983 1.236 . S
N1997 Mn1981 2.282 . S
N1997 C1998 1.328 . S
N1997 C2002 1.318 . S
C1998 N1997 1.328 . S
C1998 C1999 1.457 . S
C1998 H2003 0.929 . S
C1999 C1998 1.457 . S
C1999 C2000 1.291 . S
C1999 H2012 0.931 . S
C2000 C1999 1.291 . S
C2000 C2001 1.373 . S
C2000 H2013 0.929 . S
C2001 C2000 1.373 . S
C2001 C2002 1.396 . S
C2001 C2008 1.403 . S
C2002 C1992 1.476 . S
C2002 N1997 1.318 . S
C2002 C2001 1.396 . S
H2003 C1998 0.929 . S
O2004 Mn1980 2.385 . S
O2004 C1982 1.234 . S
O2005 Mn1980 2.209 . S
O2005 Mn1981 2.215 . S
O2005 C1982 1.283 . S
O2006 Mn1980 2.094 . S
O2006 C1984 1.240 . S
O2007 Mn1981 2.117 . S
O2007 C1984 1.264 . S
C2008 C2001 1.403 . S
C2008 C2009 1.399 . S
C2008 H2014 0.929 . S
C2009 C1989 1.449 . S
C2009 C2008 1.399 . S
C2009 H2015 0.930 . S
H2010 C1990 0.931 . S
H2011 C1991 0.930 . S
H2012 C1999 0.931 . S
H2013 C2000 0.929 . S
H2014 C2008 0.929 . S
H2015 C2009 0.930 . S
Mn2016 O2021 2.095 . S
Mn2016 O2031 2.162 . S
Mn2016 O2032 2.297 . S
Mn2016 O2040 2.385 . S
Mn2016 O2041 2.209 . S
Mn2016 O2042 2.094 . S
Mn2017 O2022 2.121 . S
Mn2017 N2024 2.257 . S
Mn2017 N2033 2.282 . S
Mn2017 O2041 2.215 . S
Mn2017 O2043 2.117 . S
C2018 O2040 1.234 . S
C2018 O2041 1.283 . S
C2019 O2031 1.281 . S
C2019 O2032 1.236 . S
C2020 O2042 1.240 . S
C2020 O2043 1.264 . S
O2021 Mn2016 2.095 . S
O2021 C2030 1.250 . S
O2022 Mn2017 2.121 . S
O2022 C2030 1.258 . S
C2023 N2024 1.326 . S
C2023 C2027 1.460 . S
C2023 H2029 0.929 . S
N2024 Mn2017 2.257 . S
N2024 C2023 1.326 . S
N2024 C2028 1.362 . S
C2025 C2026 1.258 . S
C2025 C2028 1.431 . S
C2025 C2045 1.449 . S
C2026 C2025 1.258 . S
C2026 C2027 1.477 . S
C2026 H2046 0.931 . S
C2027 C2023 1.460 . S
C2027 C2026 1.477 . S
C2027 H2047 0.930 . S
C2028 N2024 1.362 . S
C2028 C2025 1.431 . S
C2028 C2038 1.476 . S
H2029 C2023 0.929 . S
C2030 O2021 1.250 . S
C2030 O2022 1.258 . S
O2031 Mn2016 2.162 . S
O2031 C2019 1.281 . S
O2032 Mn2016 2.297 . S
O2032 C2019 1.236 . S
N2033 Mn2017 2.282 . S
N2033 C2034 1.328 . S
N2033 C2038 1.318 . S
C2034 N2033 1.328 . S
C2034 C2035 1.457 . S
C2034 H2039 0.929 . S
C2035 C2034 1.457 . S
C2035 C2036 1.291 . S
C2035 H2048 0.931 . S
C2036 C2035 1.291 . S
C2036 C2037 1.373 . S
C2036 H2049 0.929 . S
C2037 C2036 1.373 . S
C2037 C2038 1.396 . S
C2037 C2044 1.403 . S
C2038 C2028 1.476 . S
C2038 N2033 1.318 . S
C2038 C2037 1.396 . S
H2039 C2034 0.929 . S
O2040 Mn2016 2.385 . S
O2040 C2018 1.234 . S
O2041 Mn2016 2.209 . S
O2041 Mn2017 2.215 . S
O2041 C2018 1.283 . S
O2042 Mn2016 2.094 . S
O2042 C2020 1.240 . S
O2043 Mn2017 2.117 . S
O2043 C2020 1.264 . S
C2044 C2037 1.403 . S
C2044 C2045 1.399 . S
C2044 H2050 0.929 . S
C2045 C2025 1.449 . S
C2045 C2044 1.399 . S
C2045 H2051 0.930 . S
H2046 C2026 0.931 . S
H2047 C2027 0.930 . S
H2048 C2035 0.931 . S
H2049 C2036 0.929 . S
H2050 C2044 0.929 . S
H2051 C2045 0.930 . S
Mn2052 O2057 2.095 . S
Mn2052 O2067 2.162 . S
Mn2052 O2068 2.297 . S
Mn2052 O2076 2.385 . S
Mn2052 O2077 2.209 . S
Mn2052 O2078 2.094 . S
Mn2053 O2058 2.121 . S
Mn2053 N2060 2.257 . S
Mn2053 N2069 2.282 . S
Mn2053 O2077 2.215 . S
Mn2053 O2079 2.117 . S
C2054 O2076 1.234 . S
C2054 O2077 1.283 . S
C2055 O2067 1.281 . S
C2055 O2068 1.236 . S
C2056 O2078 1.240 . S
C2056 O2079 1.264 . S
O2057 Mn2052 2.095 . S
O2057 C2066 1.250 . S
O2058 Mn2053 2.121 . S
O2058 C2066 1.258 . S
C2059 N2060 1.326 . S
C2059 C2063 1.460 . S
C2059 H2065 0.929 . S
N2060 Mn2053 2.257 . S
N2060 C2059 1.326 . S
N2060 C2064 1.362 . S
C2061 C2062 1.258 . S
C2061 C2064 1.431 . S
C2061 C2081 1.449 . S
C2062 C2061 1.258 . S
C2062 C2063 1.477 . S
C2062 H2082 0.931 . S
C2063 C2059 1.460 . S
C2063 C2062 1.477 . S
C2063 H2083 0.930 . S
C2064 N2060 1.362 . S
C2064 C2061 1.431 . S
C2064 C2074 1.476 . S
H2065 C2059 0.929 . S
C2066 O2057 1.250 . S
C2066 O2058 1.258 . S
O2067 Mn2052 2.162 . S
O2067 C2055 1.281 . S
O2068 Mn2052 2.297 . S
O2068 C2055 1.236 . S
N2069 Mn2053 2.282 . S
N2069 C2070 1.328 . S
N2069 C2074 1.318 . S
C2070 N2069 1.328 . S
C2070 C2071 1.457 . S
C2070 H2075 0.929 . S
C2071 C2070 1.457 . S
C2071 C2072 1.291 . S
C2071 H2084 0.931 . S
C2072 C2071 1.291 . S
C2072 C2073 1.373 . S
C2072 H2085 0.929 . S
C2073 C2072 1.373 . S
C2073 C2074 1.396 . S
C2073 C2080 1.403 . S
C2074 C2064 1.476 . S
C2074 N2069 1.318 . S
C2074 C2073 1.396 . S
H2075 C2070 0.929 . S
O2076 Mn2052 2.385 . S
O2076 C2054 1.234 . S
O2077 Mn2052 2.209 . S
O2077 Mn2053 2.215 . S
O2077 C2054 1.283 . S
O2078 Mn2052 2.094 . S
O2078 C2056 1.240 . S
O2079 Mn2053 2.117 . S
O2079 C2056 1.264 . S
C2080 C2073 1.403 . S
C2080 C2081 1.399 . S
C2080 H2086 0.929 . S
C2081 C2061 1.449 . S
C2081 C2080 1.399 . S
C2081 H2087 0.930 . S
H2082 C2062 0.931 . S
H2083 C2063 0.930 . S
H2084 C2071 0.931 . S
H2085 C2072 0.929 . S
H2086 C2080 0.929 . S
H2087 C2081 0.930 . S
Mn2088 O2093 2.095 . S
Mn2088 O2103 2.162 . S
Mn2088 O2104 2.297 . S
Mn2088 O2112 2.385 . S
Mn2088 O2113 2.209 . S
Mn2088 O2114 2.094 . S
Mn2089 O2094 2.121 . S
Mn2089 N2096 2.257 . S
Mn2089 N2105 2.282 . S
Mn2089 O2113 2.215 . S
Mn2089 O2115 2.117 . S
C2090 O2112 1.234 . S
C2090 O2113 1.283 . S
C2091 O2103 1.281 . S
C2091 O2104 1.236 . S
C2092 O2114 1.240 . S
C2092 O2115 1.264 . S
O2093 Mn2088 2.095 . S
O2093 C2102 1.250 . S
O2094 Mn2089 2.121 . S
O2094 C2102 1.258 . S
C2095 N2096 1.326 . S
C2095 C2099 1.460 . S
C2095 H2101 0.929 . S
N2096 Mn2089 2.257 . S
N2096 C2095 1.326 . S
N2096 C2100 1.362 . S
C2097 C2098 1.258 . S
C2097 C2100 1.431 . S
C2097 C2117 1.449 . S
C2098 C2097 1.258 . S
C2098 C2099 1.477 . S
C2098 H2118 0.931 . S
C2099 C2095 1.460 . S
C2099 C2098 1.477 . S
C2099 H2119 0.930 . S
C2100 N2096 1.362 . S
C2100 C2097 1.431 . S
C2100 C2110 1.476 . S
H2101 C2095 0.929 . S
C2102 O2093 1.250 . S
C2102 O2094 1.258 . S
O2103 Mn2088 2.162 . S
O2103 C2091 1.281 . S
O2104 Mn2088 2.297 . S
O2104 C2091 1.236 . S
N2105 Mn2089 2.282 . S
N2105 C2106 1.328 . S
N2105 C2110 1.318 . S
C2106 N2105 1.328 . S
C2106 C2107 1.457 . S
C2106 H2111 0.929 . S
C2107 C2106 1.457 . S
C2107 C2108 1.291 . S
C2107 H2120 0.931 . S
C2108 C2107 1.291 . S
C2108 C2109 1.373 . S
C2108 H2121 0.929 . S
C2109 C2108 1.373 . S
C2109 C2110 1.396 . S
C2109 C2116 1.403 . S
C2110 C2100 1.476 . S
C2110 N2105 1.318 . S
C2110 C2109 1.396 . S
H2111 C2106 0.929 . S
O2112 Mn2088 2.385 . S
O2112 C2090 1.234 . S
O2113 Mn2088 2.209 . S
O2113 Mn2089 2.215 . S
O2113 C2090 1.283 . S
O2114 Mn2088 2.094 . S
O2114 C2092 1.240 . S
O2115 Mn2089 2.117 . S
O2115 C2092 1.264 . S
C2116 C2109 1.403 . S
C2116 C2117 1.399 . S
C2116 H2122 0.929 . S
C2117 C2097 1.449 . S
C2117 C2116 1.399 . S
C2117 H2123 0.930 . S
H2118 C2098 0.931 . S
H2119 C2099 0.930 . S
H2120 C2107 0.931 . S
H2121 C2108 0.929 . S
H2122 C2116 0.929 . S
H2123 C2117 0.930 . S
Mn2124 O2129 2.095 . S
Mn2124 O2139 2.162 . S
Mn2124 O2140 2.297 . S
Mn2124 O2148 2.385 . S
Mn2124 O2149 2.209 . S
Mn2124 O2150 2.094 . S
Mn2125 O2130 2.121 . S
Mn2125 N2132 2.257 . S
Mn2125 N2141 2.282 . S
Mn2125 O2149 2.215 . S
Mn2125 O2151 2.117 . S
C2126 O2148 1.234 . S
C2126 O2149 1.283 . S
C2127 O2139 1.281 . S
C2127 O2140 1.236 . S
C2128 O2150 1.240 . S
C2128 O2151 1.264 . S
O2129 Mn2124 2.095 . S
O2129 C2138 1.250 . S
O2130 Mn2125 2.121 . S
O2130 C2138 1.258 . S
C2131 N2132 1.326 . S
C2131 C2135 1.460 . S
C2131 H2137 0.929 . S
N2132 Mn2125 2.257 . S
N2132 C2131 1.326 . S
N2132 C2136 1.362 . S
C2133 C2134 1.258 . S
C2133 C2136 1.431 . S
C2133 C2153 1.449 . S
C2134 C2133 1.258 . S
C2134 C2135 1.477 . S
C2134 H2154 0.931 . S
C2135 C2131 1.460 . S
C2135 C2134 1.477 . S
C2135 H2155 0.930 . S
C2136 N2132 1.362 . S
C2136 C2133 1.431 . S
C2136 C2146 1.476 . S
H2137 C2131 0.929 . S
C2138 O2129 1.250 . S
C2138 O2130 1.258 . S
O2139 Mn2124 2.162 . S
O2139 C2127 1.281 . S
O2140 Mn2124 2.297 . S
O2140 C2127 1.236 . S
N2141 Mn2125 2.282 . S
N2141 C2142 1.328 . S
N2141 C2146 1.318 . S
C2142 N2141 1.328 . S
C2142 C2143 1.457 . S
C2142 H2147 0.929 . S
C2143 C2142 1.457 . S
C2143 C2144 1.291 . S
C2143 H2156 0.931 . S
C2144 C2143 1.291 . S
C2144 C2145 1.373 . S
C2144 H2157 0.929 . S
C2145 C2144 1.373 . S
C2145 C2146 1.396 . S
C2145 C2152 1.403 . S
C2146 C2136 1.476 . S
C2146 N2141 1.318 . S
C2146 C2145 1.396 . S
H2147 C2142 0.929 . S
O2148 Mn2124 2.385 . S
O2148 C2126 1.234 . S
O2149 Mn2124 2.209 . S
O2149 Mn2125 2.215 . S
O2149 C2126 1.283 . S
O2150 Mn2124 2.094 . S
O2150 C2128 1.240 . S
O2151 Mn2125 2.117 . S
O2151 C2128 1.264 . S
C2152 C2145 1.403 . S
C2152 C2153 1.399 . S
C2152 H2158 0.929 . S
C2153 C2133 1.449 . S
C2153 C2152 1.399 . S
C2153 H2159 0.930 . S
H2154 C2134 0.931 . S
H2155 C2135 0.930 . S
H2156 C2143 0.931 . S
H2157 C2144 0.929 . S
H2158 C2152 0.929 . S
H2159 C2153 0.930 . S
Mn2160 O2165 2.095 . S
Mn2160 O2175 2.162 . S
Mn2160 O2176 2.297 . S
Mn2160 O2184 2.385 . S
Mn2160 O2185 2.209 . S
Mn2160 O2186 2.094 . S
Mn2161 O2166 2.121 . S
Mn2161 N2168 2.257 . S
Mn2161 N2177 2.282 . S
Mn2161 O2185 2.215 . S
Mn2161 O2187 2.117 . S
C2162 O2184 1.234 . S
C2162 O2185 1.283 . S
C2163 O2175 1.281 . S
C2163 O2176 1.236 . S
C2164 O2186 1.240 . S
C2164 O2187 1.264 . S
O2165 Mn2160 2.095 . S
O2165 C2174 1.250 . S
O2166 Mn2161 2.121 . S
O2166 C2174 1.258 . S
C2167 N2168 1.326 . S
C2167 C2171 1.460 . S
C2167 H2173 0.929 . S
N2168 Mn2161 2.257 . S
N2168 C2167 1.326 . S
N2168 C2172 1.362 . S
C2169 C2170 1.258 . S
C2169 C2172 1.431 . S
C2169 C2189 1.449 . S
C2170 C2169 1.258 . S
C2170 C2171 1.477 . S
C2170 H2190 0.931 . S
C2171 C2167 1.460 . S
C2171 C2170 1.477 . S
C2171 H2191 0.930 . S
C2172 N2168 1.362 . S
C2172 C2169 1.431 . S
C2172 C2182 1.476 . S
H2173 C2167 0.929 . S
C2174 O2165 1.250 . S
C2174 O2166 1.258 . S
O2175 Mn2160 2.162 . S
O2175 C2163 1.281 . S
O2176 Mn2160 2.297 . S
O2176 C2163 1.236 . S
N2177 Mn2161 2.282 . S
N2177 C2178 1.328 . S
N2177 C2182 1.318 . S
C2178 N2177 1.328 . S
C2178 C2179 1.457 . S
C2178 H2183 0.929 . S
C2179 C2178 1.457 . S
C2179 C2180 1.291 . S
C2179 H2192 0.931 . S
C2180 C2179 1.291 . S
C2180 C2181 1.373 . S
C2180 H2193 0.929 . S
C2181 C2180 1.373 . S
C2181 C2182 1.396 . S
C2181 C2188 1.403 . S
C2182 C2172 1.476 . S
C2182 N2177 1.318 . S
C2182 C2181 1.396 . S
H2183 C2178 0.929 . S
O2184 Mn2160 2.385 . S
O2184 C2162 1.234 . S
O2185 Mn2160 2.209 . S
O2185 Mn2161 2.215 . S
O2185 C2162 1.283 . S
O2186 Mn2160 2.094 . S
O2186 C2164 1.240 . S
O2187 Mn2161 2.117 . S
O2187 C2164 1.264 . S
C2188 C2181 1.403 . S
C2188 C2189 1.399 . S
C2188 H2194 0.929 . S
C2189 C2169 1.449 . S
C2189 C2188 1.399 . S
C2189 H2195 0.930 . S
H2190 C2170 0.931 . S
H2191 C2171 0.930 . S
H2192 C2179 0.931 . S
H2193 C2180 0.929 . S
H2194 C2188 0.929 . S
H2195 C2189 0.930 . S
Mn2196 O2201 2.095 . S
Mn2196 O2211 2.162 . S
Mn2196 O2212 2.297 . S
Mn2196 O2220 2.385 . S
Mn2196 O2221 2.209 . S
Mn2196 O2222 2.094 . S
Mn2197 O2202 2.121 . S
Mn2197 N2204 2.257 . S
Mn2197 N2213 2.282 . S
Mn2197 O2221 2.215 . S
Mn2197 O2223 2.117 . S
C2198 O2220 1.234 . S
C2198 O2221 1.283 . S
C2199 O2211 1.281 . S
C2199 O2212 1.236 . S
C2200 O2222 1.240 . S
C2200 O2223 1.264 . S
O2201 Mn2196 2.095 . S
O2201 C2210 1.250 . S
O2202 Mn2197 2.121 . S
O2202 C2210 1.258 . S
C2203 N2204 1.326 . S
C2203 C2207 1.460 . S
C2203 H2209 0.929 . S
N2204 Mn2197 2.257 . S
N2204 C2203 1.326 . S
N2204 C2208 1.362 . S
C2205 C2206 1.258 . S
C2205 C2208 1.431 . S
C2205 C2225 1.449 . S
C2206 C2205 1.258 . S
C2206 C2207 1.477 . S
C2206 H2226 0.931 . S
C2207 C2203 1.460 . S
C2207 C2206 1.477 . S
C2207 H2227 0.930 . S
C2208 N2204 1.362 . S
C2208 C2205 1.431 . S
C2208 C2218 1.476 . S
H2209 C2203 0.929 . S
C2210 O2201 1.250 . S
C2210 O2202 1.258 . S
O2211 Mn2196 2.162 . S
O2211 C2199 1.281 . S
O2212 Mn2196 2.297 . S
O2212 C2199 1.236 . S
N2213 Mn2197 2.282 . S
N2213 C2214 1.328 . S
N2213 C2218 1.318 . S
C2214 N2213 1.328 . S
C2214 C2215 1.457 . S
C2214 H2219 0.929 . S
C2215 C2214 1.457 . S
C2215 C2216 1.291 . S
C2215 H2228 0.931 . S
C2216 C2215 1.291 . S
C2216 C2217 1.373 . S
C2216 H2229 0.929 . S
C2217 C2216 1.373 . S
C2217 C2218 1.396 . S
C2217 C2224 1.403 . S
C2218 C2208 1.476 . S
C2218 N2213 1.318 . S
C2218 C2217 1.396 . S
H2219 C2214 0.929 . S
O2220 Mn2196 2.385 . S
O2220 C2198 1.234 . S
O2221 Mn2196 2.209 . S
O2221 Mn2197 2.215 . S
O2221 C2198 1.283 . S
O2222 Mn2196 2.094 . S
O2222 C2200 1.240 . S
O2223 Mn2197 2.117 . S
O2223 C2200 1.264 . S
C2224 C2217 1.403 . S
C2224 C2225 1.399 . S
C2224 H2230 0.929 . S
C2225 C2205 1.449 . S
C2225 C2224 1.399 . S
C2225 H2231 0.930 . S
H2226 C2206 0.931 . S
H2227 C2207 0.930 . S
H2228 C2215 0.931 . S
H2229 C2216 0.929 . S
H2230 C2224 0.929 . S
H2231 C2225 0.930 . S
Mn2232 O2237 2.095 . S
Mn2232 O2247 2.162 . S
Mn2232 O2248 2.297 . S
Mn2232 O2256 2.385 . S
Mn2232 O2257 2.209 . S
Mn2232 O2258 2.094 . S
Mn2233 O2238 2.121 . S
Mn2233 N2240 2.257 . S
Mn2233 N2249 2.282 . S
Mn2233 O2257 2.215 . S
Mn2233 O2259 2.117 . S
C2234 O2256 1.234 . S
C2234 O2257 1.283 . S
C2235 O2247 1.281 . S
C2235 O2248 1.236 . S
C2236 O2258 1.240 . S
C2236 O2259 1.264 . S
O2237 Mn2232 2.095 . S
O2237 C2246 1.250 . S
O2238 Mn2233 2.121 . S
O2238 C2246 1.258 . S
C2239 N2240 1.326 . S
C2239 C2243 1.460 . S
C2239 H2245 0.929 . S
N2240 Mn2233 2.257 . S
N2240 C2239 1.326 . S
N2240 C2244 1.362 . S
C2241 C2242 1.258 . S
C2241 C2244 1.431 . S
C2241 C2261 1.449 . S
C2242 C2241 1.258 . S
C2242 C2243 1.477 . S
C2242 H2262 0.931 . S
C2243 C2239 1.460 . S
C2243 C2242 1.477 . S
C2243 H2263 0.930 . S
C2244 N2240 1.362 . S
C2244 C2241 1.431 . S
C2244 C2254 1.476 . S
H2245 C2239 0.929 . S
C2246 O2237 1.250 . S
C2246 O2238 1.258 . S
O2247 Mn2232 2.162 . S
O2247 C2235 1.281 . S
O2248 Mn2232 2.297 . S
O2248 C2235 1.236 . S
N2249 Mn2233 2.282 . S
N2249 C2250 1.328 . S
N2249 C2254 1.318 . S
C2250 N2249 1.328 . S
C2250 C2251 1.457 . S
C2250 H2255 0.929 . S
C2251 C2250 1.457 . S
C2251 C2252 1.291 . S
C2251 H2264 0.931 . S
C2252 C2251 1.291 . S
C2252 C2253 1.373 . S
C2252 H2265 0.929 . S
C2253 C2252 1.373 . S
C2253 C2254 1.396 . S
C2253 C2260 1.403 . S
C2254 C2244 1.476 . S
C2254 N2249 1.318 . S
C2254 C2253 1.396 . S
H2255 C2250 0.929 . S
O2256 Mn2232 2.385 . S
O2256 C2234 1.234 . S
O2257 Mn2232 2.209 . S
O2257 Mn2233 2.215 . S
O2257 C2234 1.283 . S
O2258 Mn2232 2.094 . S
O2258 C2236 1.240 . S
O2259 Mn2233 2.117 . S
O2259 C2236 1.264 . S
C2260 C2253 1.403 . S
C2260 C2261 1.399 . S
C2260 H2266 0.929 . S
C2261 C2241 1.449 . S
C2261 C2260 1.399 . S
C2261 H2267 0.930 . S
H2262 C2242 0.931 . S
H2263 C2243 0.930 . S
H2264 C2251 0.931 . S
H2265 C2252 0.929 . S
H2266 C2260 0.929 . S
H2267 C2261 0.930 . S
Mn2268 O2273 2.095 . S
Mn2268 O2283 2.162 . S
Mn2268 O2284 2.297 . S
Mn2268 O2292 2.385 . S
Mn2268 O2293 2.209 . S
Mn2268 O2294 2.094 . S
Mn2269 O2274 2.121 . S
Mn2269 N2276 2.257 . S
Mn2269 N2285 2.282 . S
Mn2269 O2293 2.215 . S
Mn2269 O2295 2.117 . S
C2270 O2292 1.234 . S
C2270 O2293 1.283 . S
C2271 O2283 1.281 . S
C2271 O2284 1.236 . S
C2272 O2294 1.240 . S
C2272 O2295 1.264 . S
O2273 Mn2268 2.095 . S
O2273 C2282 1.250 . S
O2274 Mn2269 2.121 . S
O2274 C2282 1.258 . S
C2275 N2276 1.326 . S
C2275 C2279 1.460 . S
C2275 H2281 0.929 . S
N2276 Mn2269 2.257 . S
N2276 C2275 1.326 . S
N2276 C2280 1.362 . S
C2277 C2278 1.258 . S
C2277 C2280 1.431 . S
C2277 C2297 1.449 . S
C2278 C2277 1.258 . S
C2278 C2279 1.477 . S
C2278 H2298 0.931 . S
C2279 C2275 1.460 . S
C2279 C2278 1.477 . S
C2279 H2299 0.930 . S
C2280 N2276 1.362 . S
C2280 C2277 1.431 . S
C2280 C2290 1.476 . S
H2281 C2275 0.929 . S
C2282 O2273 1.250 . S
C2282 O2274 1.258 . S
O2283 Mn2268 2.162 . S
O2283 C2271 1.281 . S
O2284 Mn2268 2.297 . S
O2284 C2271 1.236 . S
N2285 Mn2269 2.282 . S
N2285 C2286 1.328 . S
N2285 C2290 1.318 . S
C2286 N2285 1.328 . S
C2286 C2287 1.457 . S
C2286 H2291 0.929 . S
C2287 C2286 1.457 . S
C2287 C2288 1.291 . S
C2287 H2300 0.931 . S
C2288 C2287 1.291 . S
C2288 C2289 1.373 . S
C2288 H2301 0.929 . S
C2289 C2288 1.373 . S
C2289 C2290 1.396 . S
C2289 C2296 1.403 . S
C2290 C2280 1.476 . S
C2290 N2285 1.318 . S
C2290 C2289 1.396 . S
H2291 C2286 0.929 . S
O2292 Mn2268 2.385 . S
O2292 C2270 1.234 . S
O2293 Mn2268 2.209 . S
O2293 Mn2269 2.215 . S
O2293 C2270 1.283 . S
O2294 Mn2268 2.094 . S
O2294 C2272 1.240 . S
O2295 Mn2269 2.117 . S
O2295 C2272 1.264 . S
C2296 C2289 1.403 . S
C2296 C2297 1.399 . S
C2296 H2302 0.929 . S
C2297 C2277 1.449 . S
C2297 C2296 1.399 . S
C2297 H2303 0.930 . S
H2298 C2278 0.931 . S
H2299 C2279 0.930 . S
H2300 C2287 0.931 . S
H2301 C2288 0.929 . S
H2302 C2296 0.929 . S
H2303 C2297 0.930 . S
Mn2304 O2309 2.095 . S
Mn2304 O2319 2.162 . S
Mn2304 O2320 2.297 . S
Mn2304 O2328 2.385 . S
Mn2304 O2329 2.209 . S
Mn2304 O2330 2.094 . S
Mn2305 O2310 2.121 . S
Mn2305 N2312 2.257 . S
Mn2305 N2321 2.282 . S
Mn2305 O2329 2.215 . S
Mn2305 O2331 2.117 . S
C2306 O2328 1.234 . S
C2306 O2329 1.283 . S
C2307 O2319 1.281 . S
C2307 O2320 1.236 . S
C2308 O2330 1.240 . S
C2308 O2331 1.264 . S
O2309 Mn2304 2.095 . S
O2309 C2318 1.250 . S
O2310 Mn2305 2.121 . S
O2310 C2318 1.258 . S
C2311 N2312 1.326 . S
C2311 C2315 1.460 . S
C2311 H2317 0.929 . S
N2312 Mn2305 2.257 . S
N2312 C2311 1.326 . S
N2312 C2316 1.362 . S
C2313 C2314 1.258 . S
C2313 C2316 1.431 . S
C2313 C2333 1.449 . S
C2314 C2313 1.258 . S
C2314 C2315 1.477 . S
C2314 H2334 0.931 . S
C2315 C2311 1.460 . S
C2315 C2314 1.477 . S
C2315 H2335 0.930 . S
C2316 N2312 1.362 . S
C2316 C2313 1.431 . S
C2316 C2326 1.476 . S
H2317 C2311 0.929 . S
C2318 O2309 1.250 . S
C2318 O2310 1.258 . S
O2319 Mn2304 2.162 . S
O2319 C2307 1.281 . S
O2320 Mn2304 2.297 . S
O2320 C2307 1.236 . S
N2321 Mn2305 2.282 . S
N2321 C2322 1.328 . S
N2321 C2326 1.318 . S
C2322 N2321 1.328 . S
C2322 C2323 1.457 . S
C2322 H2327 0.929 . S
C2323 C2322 1.457 . S
C2323 C2324 1.291 . S
C2323 H2336 0.931 . S
C2324 C2323 1.291 . S
C2324 C2325 1.373 . S
C2324 H2337 0.929 . S
C2325 C2324 1.373 . S
C2325 C2326 1.396 . S
C2325 C2332 1.403 . S
C2326 C2316 1.476 . S
C2326 N2321 1.318 . S
C2326 C2325 1.396 . S
H2327 C2322 0.929 . S
O2328 Mn2304 2.385 . S
O2328 C2306 1.234 . S
O2329 Mn2304 2.209 . S
O2329 Mn2305 2.215 . S
O2329 C2306 1.283 . S
O2330 Mn2304 2.094 . S
O2330 C2308 1.240 . S
O2331 Mn2305 2.117 . S
O2331 C2308 1.264 . S
C2332 C2325 1.403 . S
C2332 C2333 1.399 . S
C2332 H2338 0.929 . S
C2333 C2313 1.449 . S
C2333 C2332 1.399 . S
C2333 H2339 0.930 . S
H2334 C2314 0.931 . S
H2335 C2315 0.930 . S
H2336 C2323 0.931 . S
H2337 C2324 0.929 . S
H2338 C2332 0.929 . S
H2339 C2333 0.930 . S
Mn2340 O2345 2.095 . S
Mn2340 O2355 2.162 . S
Mn2340 O2356 2.297 . S
Mn2340 O2364 2.385 . S
Mn2340 O2365 2.209 . S
Mn2340 O2366 2.094 . S
Mn2341 O2346 2.121 . S
Mn2341 N2348 2.257 . S
Mn2341 N2357 2.282 . S
Mn2341 O2365 2.215 . S
Mn2341 O2367 2.117 . S
C2342 O2364 1.234 . S
C2342 O2365 1.283 . S
C2343 O2355 1.281 . S
C2343 O2356 1.236 . S
C2344 O2366 1.240 . S
C2344 O2367 1.264 . S
O2345 Mn2340 2.095 . S
O2345 C2354 1.250 . S
O2346 Mn2341 2.121 . S
O2346 C2354 1.258 . S
C2347 N2348 1.326 . S
C2347 C2351 1.460 . S
C2347 H2353 0.929 . S
N2348 Mn2341 2.257 . S
N2348 C2347 1.326 . S
N2348 C2352 1.362 . S
C2349 C2350 1.258 . S
C2349 C2352 1.431 . S
C2349 C2369 1.449 . S
C2350 C2349 1.258 . S
C2350 C2351 1.477 . S
C2350 H2370 0.931 . S
C2351 C2347 1.460 . S
C2351 C2350 1.477 . S
C2351 H2371 0.930 . S
C2352 N2348 1.362 . S
C2352 C2349 1.431 . S
C2352 C2362 1.476 . S
H2353 C2347 0.929 . S
C2354 O2345 1.250 . S
C2354 O2346 1.258 . S
O2355 Mn2340 2.162 . S
O2355 C2343 1.281 . S
O2356 Mn2340 2.297 . S
O2356 C2343 1.236 . S
N2357 Mn2341 2.282 . S
N2357 C2358 1.328 . S
N2357 C2362 1.318 . S
C2358 N2357 1.328 . S
C2358 C2359 1.457 . S
C2358 H2363 0.929 . S
C2359 C2358 1.457 . S
C2359 C2360 1.291 . S
C2359 H2372 0.931 . S
C2360 C2359 1.291 . S
C2360 C2361 1.373 . S
C2360 H2373 0.929 . S
C2361 C2360 1.373 . S
C2361 C2362 1.396 . S
C2361 C2368 1.403 . S
C2362 C2352 1.476 . S
C2362 N2357 1.318 . S
C2362 C2361 1.396 . S
H2363 C2358 0.929 . S
O2364 Mn2340 2.385 . S
O2364 C2342 1.234 . S
O2365 Mn2340 2.209 . S
O2365 Mn2341 2.215 . S
O2365 C2342 1.283 . S
O2366 Mn2340 2.094 . S
O2366 C2344 1.240 . S
O2367 Mn2341 2.117 . S
O2367 C2344 1.264 . S
C2368 C2361 1.403 . S
C2368 C2369 1.399 . S
C2368 H2374 0.929 . S
C2369 C2349 1.449 . S
C2369 C2368 1.399 . S
C2369 H2375 0.930 . S
H2370 C2350 0.931 . S
H2371 C2351 0.930 . S
H2372 C2359 0.931 . S
H2373 C2360 0.929 . S
H2374 C2368 0.929 . S
H2375 C2369 0.930 . S
Mn2376 O2381 2.095 . S
Mn2376 O2391 2.162 . S
Mn2376 O2392 2.297 . S
Mn2376 O2400 2.385 . S
Mn2376 O2401 2.209 . S
Mn2376 O2402 2.094 . S
Mn2377 O2382 2.121 . S
Mn2377 N2384 2.257 . S
Mn2377 N2393 2.282 . S
Mn2377 O2401 2.215 . S
Mn2377 O2403 2.117 . S
C2378 O2400 1.234 . S
C2378 O2401 1.283 . S
C2379 O2391 1.281 . S
C2379 O2392 1.236 . S
C2380 O2402 1.240 . S
C2380 O2403 1.264 . S
O2381 Mn2376 2.095 . S
O2381 C2390 1.250 . S
O2382 Mn2377 2.121 . S
O2382 C2390 1.258 . S
C2383 N2384 1.326 . S
C2383 C2387 1.460 . S
C2383 H2389 0.929 . S
N2384 Mn2377 2.257 . S
N2384 C2383 1.326 . S
N2384 C2388 1.362 . S
C2385 C2386 1.258 . S
C2385 C2388 1.431 . S
C2385 C2405 1.449 . S
C2386 C2385 1.258 . S
C2386 C2387 1.477 . S
C2386 H2406 0.931 . S
C2387 C2383 1.460 . S
C2387 C2386 1.477 . S
C2387 H2407 0.930 . S
C2388 N2384 1.362 . S
C2388 C2385 1.431 . S
C2388 C2398 1.476 . S
H2389 C2383 0.929 . S
C2390 O2381 1.250 . S
C2390 O2382 1.258 . S
O2391 Mn2376 2.162 . S
O2391 C2379 1.281 . S
O2392 Mn2376 2.297 . S
O2392 C2379 1.236 . S
N2393 Mn2377 2.282 . S
N2393 C2394 1.328 . S
N2393 C2398 1.318 . S
C2394 N2393 1.328 . S
C2394 C2395 1.457 . S
C2394 H2399 0.929 . S
C2395 C2394 1.457 . S
C2395 C2396 1.291 . S
C2395 H2408 0.931 . S
C2396 C2395 1.291 . S
C2396 C2397 1.373 . S
C2396 H2409 0.929 . S
C2397 C2396 1.373 . S
C2397 C2398 1.396 . S
C2397 C2404 1.403 . S
C2398 C2388 1.476 . S
C2398 N2393 1.318 . S
C2398 C2397 1.396 . S
H2399 C2394 0.929 . S
O2400 Mn2376 2.385 . S
O2400 C2378 1.234 . S
O2401 Mn2376 2.209 . S
O2401 Mn2377 2.215 . S
O2401 C2378 1.283 . S
O2402 Mn2376 2.094 . S
O2402 C2380 1.240 . S
O2403 Mn2377 2.117 . S
O2403 C2380 1.264 . S
C2404 C2397 1.403 . S
C2404 C2405 1.399 . S
C2404 H2410 0.929 . S
C2405 C2385 1.449 . S
C2405 C2404 1.399 . S
C2405 H2411 0.930 . S
H2406 C2386 0.931 . S
H2407 C2387 0.930 . S
H2408 C2395 0.931 . S
H2409 C2396 0.929 . S
H2410 C2404 0.929 . S
H2411 C2405 0.930 . S
Mn2412 O2417 2.095 . S
Mn2412 O2427 2.162 . S
Mn2412 O2428 2.297 . S
Mn2412 O2436 2.385 . S
Mn2412 O2437 2.209 . S
Mn2412 O2438 2.094 . S
Mn2413 O2418 2.121 . S
Mn2413 N2420 2.257 . S
Mn2413 N2429 2.282 . S
Mn2413 O2437 2.215 . S
Mn2413 O2439 2.117 . S
C2414 O2436 1.234 . S
C2414 O2437 1.283 . S
C2415 O2427 1.281 . S
C2415 O2428 1.236 . S
C2416 O2438 1.240 . S
C2416 O2439 1.264 . S
O2417 Mn2412 2.095 . S
O2417 C2426 1.250 . S
O2418 Mn2413 2.121 . S
O2418 C2426 1.258 . S
C2419 N2420 1.326 . S
C2419 C2423 1.460 . S
C2419 H2425 0.929 . S
N2420 Mn2413 2.257 . S
N2420 C2419 1.326 . S
N2420 C2424 1.362 . S
C2421 C2422 1.258 . S
C2421 C2424 1.431 . S
C2421 C2441 1.449 . S
C2422 C2421 1.258 . S
C2422 C2423 1.477 . S
C2422 H2442 0.931 . S
C2423 C2419 1.460 . S
C2423 C2422 1.477 . S
C2423 H2443 0.930 . S
C2424 N2420 1.362 . S
C2424 C2421 1.431 . S
C2424 C2434 1.476 . S
H2425 C2419 0.929 . S
C2426 O2417 1.250 . S
C2426 O2418 1.258 . S
O2427 Mn2412 2.162 . S
O2427 C2415 1.281 . S
O2428 Mn2412 2.297 . S
O2428 C2415 1.236 . S
N2429 Mn2413 2.282 . S
N2429 C2430 1.328 . S
N2429 C2434 1.318 . S
C2430 N2429 1.328 . S
C2430 C2431 1.457 . S
C2430 H2435 0.929 . S
C2431 C2430 1.457 . S
C2431 C2432 1.291 . S
C2431 H2444 0.931 . S
C2432 C2431 1.291 . S
C2432 C2433 1.373 . S
C2432 H2445 0.929 . S
C2433 C2432 1.373 . S
C2433 C2434 1.396 . S
C2433 C2440 1.403 . S
C2434 C2424 1.476 . S
C2434 N2429 1.318 . S
C2434 C2433 1.396 . S
H2435 C2430 0.929 . S
O2436 Mn2412 2.385 . S
O2436 C2414 1.234 . S
O2437 Mn2412 2.209 . S
O2437 Mn2413 2.215 . S
O2437 C2414 1.283 . S
O2438 Mn2412 2.094 . S
O2438 C2416 1.240 . S
O2439 Mn2413 2.117 . S
O2439 C2416 1.264 . S
C2440 C2433 1.403 . S
C2440 C2441 1.399 . S
C2440 H2446 0.929 . S
C2441 C2421 1.449 . S
C2441 C2440 1.399 . S
C2441 H2447 0.930 . S
H2442 C2422 0.931 . S
H2443 C2423 0.930 . S
H2444 C2431 0.931 . S
H2445 C2432 0.929 . S
H2446 C2440 0.929 . S
H2447 C2441 0.930 . S
Mn2448 O2453 2.095 . S
Mn2448 O2463 2.162 . S
Mn2448 O2464 2.297 . S
Mn2448 O2472 2.385 . S
Mn2448 O2473 2.209 . S
Mn2448 O2474 2.094 . S
Mn2449 O2454 2.121 . S
Mn2449 N2456 2.257 . S
Mn2449 N2465 2.282 . S
Mn2449 O2473 2.215 . S
Mn2449 O2475 2.117 . S
C2450 O2472 1.234 . S
C2450 O2473 1.283 . S
C2451 O2463 1.281 . S
C2451 O2464 1.236 . S
C2452 O2474 1.240 . S
C2452 O2475 1.264 . S
O2453 Mn2448 2.095 . S
O2453 C2462 1.250 . S
O2454 Mn2449 2.121 . S
O2454 C2462 1.258 . S
C2455 N2456 1.326 . S
C2455 C2459 1.460 . S
C2455 H2461 0.929 . S
N2456 Mn2449 2.257 . S
N2456 C2455 1.326 . S
N2456 C2460 1.362 . S
C2457 C2458 1.258 . S
C2457 C2460 1.431 . S
C2457 C2477 1.449 . S
C2458 C2457 1.258 . S
C2458 C2459 1.477 . S
C2458 H2478 0.931 . S
C2459 C2455 1.460 . S
C2459 C2458 1.477 . S
C2459 H2479 0.930 . S
C2460 N2456 1.362 . S
C2460 C2457 1.431 . S
C2460 C2470 1.476 . S
H2461 C2455 0.929 . S
C2462 O2453 1.250 . S
C2462 O2454 1.258 . S
O2463 Mn2448 2.162 . S
O2463 C2451 1.281 . S
O2464 Mn2448 2.297 . S
O2464 C2451 1.236 . S
N2465 Mn2449 2.282 . S
N2465 C2466 1.328 . S
N2465 C2470 1.318 . S
C2466 N2465 1.328 . S
C2466 C2467 1.457 . S
C2466 H2471 0.929 . S
C2467 C2466 1.457 . S
C2467 C2468 1.291 . S
C2467 H2480 0.931 . S
C2468 C2467 1.291 . S
C2468 C2469 1.373 . S
C2468 H2481 0.929 . S
C2469 C2468 1.373 . S
C2469 C2470 1.396 . S
C2469 C2476 1.403 . S
C2470 C2460 1.476 . S
C2470 N2465 1.318 . S
C2470 C2469 1.396 . S
H2471 C2466 0.929 . S
O2472 Mn2448 2.385 . S
O2472 C2450 1.234 . S
O2473 Mn2448 2.209 . S
O2473 Mn2449 2.215 . S
O2473 C2450 1.283 . S
O2474 Mn2448 2.094 . S
O2474 C2452 1.240 . S
O2475 Mn2449 2.117 . S
O2475 C2452 1.264 . S
C2476 C2469 1.403 . S
C2476 C2477 1.399 . S
C2476 H2482 0.929 . S
C2477 C2457 1.449 . S
C2477 C2476 1.399 . S
C2477 H2483 0.930 . S
H2478 C2458 0.931 . S
H2479 C2459 0.930 . S
H2480 C2467 0.931 . S
H2481 C2468 0.929 . S
H2482 C2476 0.929 . S
H2483 C2477 0.930 . S
Mn2484 O2489 2.095 . S
Mn2484 O2499 2.162 . S
Mn2484 O2500 2.297 . S
Mn2484 O2508 2.385 . S
Mn2484 O2509 2.209 . S
Mn2484 O2510 2.094 . S
Mn2485 O2490 2.121 . S
Mn2485 N2492 2.257 . S
Mn2485 N2501 2.282 . S
Mn2485 O2509 2.215 . S
Mn2485 O2511 2.117 . S
C2486 O2508 1.234 . S
C2486 O2509 1.283 . S
C2487 O2499 1.281 . S
C2487 O2500 1.236 . S
C2488 O2510 1.240 . S
C2488 O2511 1.264 . S
O2489 Mn2484 2.095 . S
O2489 C2498 1.250 . S
O2490 Mn2485 2.121 . S
O2490 C2498 1.258 . S
C2491 N2492 1.326 . S
C2491 C2495 1.460 . S
C2491 H2497 0.929 . S
N2492 Mn2485 2.257 . S
N2492 C2491 1.326 . S
N2492 C2496 1.362 . S
C2493 C2494 1.258 . S
C2493 C2496 1.431 . S
C2493 C2513 1.449 . S
C2494 C2493 1.258 . S
C2494 C2495 1.477 . S
C2494 H2514 0.931 . S
C2495 C2491 1.460 . S
C2495 C2494 1.477 . S
C2495 H2515 0.930 . S
C2496 N2492 1.362 . S
C2496 C2493 1.431 . S
C2496 C2506 1.476 . S
H2497 C2491 0.929 . S
C2498 O2489 1.250 . S
C2498 O2490 1.258 . S
O2499 Mn2484 2.162 . S
O2499 C2487 1.281 . S
O2500 Mn2484 2.297 . S
O2500 C2487 1.236 . S
N2501 Mn2485 2.282 . S
N2501 C2502 1.328 . S
N2501 C2506 1.318 . S
C2502 N2501 1.328 . S
C2502 C2503 1.457 . S
C2502 H2507 0.929 . S
C2503 C2502 1.457 . S
C2503 C2504 1.291 . S
C2503 H2516 0.931 . S
C2504 C2503 1.291 . S
C2504 C2505 1.373 . S
C2504 H2517 0.929 . S
C2505 C2504 1.373 . S
C2505 C2506 1.396 . S
C2505 C2512 1.403 . S
C2506 C2496 1.476 . S
C2506 N2501 1.318 . S
C2506 C2505 1.396 . S
H2507 C2502 0.929 . S
O2508 Mn2484 2.385 . S
O2508 C2486 1.234 . S
O2509 Mn2484 2.209 . S
O2509 Mn2485 2.215 . S
O2509 C2486 1.283 . S
O2510 Mn2484 2.094 . S
O2510 C2488 1.240 . S
O2511 Mn2485 2.117 . S
O2511 C2488 1.264 . S
C2512 C2505 1.403 . S
C2512 C2513 1.399 . S
C2512 H2518 0.929 . S
C2513 C2493 1.449 . S
C2513 C2512 1.399 . S
C2513 H2519 0.930 . S
H2514 C2494 0.931 . S
H2515 C2495 0.930 . S
H2516 C2503 0.931 . S
H2517 C2504 0.929 . S
H2518 C2512 0.929 . S
H2519 C2513 0.930 . S
Mn2520 O2525 2.095 . S
Mn2520 O2535 2.162 . S
Mn2520 O2536 2.297 . S
Mn2520 O2544 2.385 . S
Mn2520 O2545 2.209 . S
Mn2520 O2546 2.094 . S
Mn2521 O2526 2.121 . S
Mn2521 N2528 2.257 . S
Mn2521 N2537 2.282 . S
Mn2521 O2545 2.215 . S
Mn2521 O2547 2.117 . S
C2522 O2544 1.234 . S
C2522 O2545 1.283 . S
C2523 O2535 1.281 . S
C2523 O2536 1.236 . S
C2524 O2546 1.240 . S
C2524 O2547 1.264 . S
O2525 Mn2520 2.095 . S
O2525 C2534 1.250 . S
O2526 Mn2521 2.121 . S
O2526 C2534 1.258 . S
C2527 N2528 1.326 . S
C2527 C2531 1.460 . S
C2527 H2533 0.929 . S
N2528 Mn2521 2.257 . S
N2528 C2527 1.326 . S
N2528 C2532 1.362 . S
C2529 C2530 1.258 . S
C2529 C2532 1.431 . S
C2529 C2549 1.449 . S
C2530 C2529 1.258 . S
C2530 C2531 1.477 . S
C2530 H2550 0.931 . S
C2531 C2527 1.460 . S
C2531 C2530 1.477 . S
C2531 H2551 0.930 . S
C2532 N2528 1.362 . S
C2532 C2529 1.431 . S
C2532 C2542 1.476 . S
H2533 C2527 0.929 . S
C2534 O2525 1.250 . S
C2534 O2526 1.258 . S
O2535 Mn2520 2.162 . S
O2535 C2523 1.281 . S
O2536 Mn2520 2.297 . S
O2536 C2523 1.236 . S
N2537 Mn2521 2.282 . S
N2537 C2538 1.328 . S
N2537 C2542 1.318 . S
C2538 N2537 1.328 . S
C2538 C2539 1.457 . S
C2538 H2543 0.929 . S
C2539 C2538 1.457 . S
C2539 C2540 1.291 . S
C2539 H2552 0.931 . S
C2540 C2539 1.291 . S
C2540 C2541 1.373 . S
C2540 H2553 0.929 . S
C2541 C2540 1.373 . S
C2541 C2542 1.396 . S
C2541 C2548 1.403 . S
C2542 C2532 1.476 . S
C2542 N2537 1.318 . S
C2542 C2541 1.396 . S
H2543 C2538 0.929 . S
O2544 Mn2520 2.385 . S
O2544 C2522 1.234 . S
O2545 Mn2520 2.209 . S
O2545 Mn2521 2.215 . S
O2545 C2522 1.283 . S
O2546 Mn2520 2.094 . S
O2546 C2524 1.240 . S
O2547 Mn2521 2.117 . S
O2547 C2524 1.264 . S
C2548 C2541 1.403 . S
C2548 C2549 1.399 . S
C2548 H2554 0.929 . S
C2549 C2529 1.449 . S
C2549 C2548 1.399 . S
C2549 H2555 0.930 . S
H2550 C2530 0.931 . S
H2551 C2531 0.930 . S
H2552 C2539 0.931 . S
H2553 C2540 0.929 . S
H2554 C2548 0.929 . S
H2555 C2549 0.930 . S
Mn2556 O2561 2.095 . S
Mn2556 O2571 2.162 . S
Mn2556 O2572 2.297 . S
Mn2556 O2580 2.385 . S
Mn2556 O2581 2.209 . S
Mn2556 O2582 2.094 . S
Mn2557 O2562 2.121 . S
Mn2557 N2564 2.257 . S
Mn2557 N2573 2.282 . S
Mn2557 O2581 2.215 . S
Mn2557 O2583 2.117 . S
C2558 O2580 1.234 . S
C2558 O2581 1.283 . S
C2559 O2571 1.281 . S
C2559 O2572 1.236 . S
C2560 O2582 1.240 . S
C2560 O2583 1.264 . S
O2561 Mn2556 2.095 . S
O2561 C2570 1.250 . S
O2562 Mn2557 2.121 . S
O2562 C2570 1.258 . S
C2563 N2564 1.326 . S
C2563 C2567 1.460 . S
C2563 H2569 0.929 . S
N2564 Mn2557 2.257 . S
N2564 C2563 1.326 . S
N2564 C2568 1.362 . S
C2565 C2566 1.258 . S
C2565 C2568 1.431 . S
C2565 C2585 1.449 . S
C2566 C2565 1.258 . S
C2566 C2567 1.477 . S
C2566 H2586 0.931 . S
C2567 C2563 1.460 . S
C2567 C2566 1.477 . S
C2567 H2587 0.930 . S
C2568 N2564 1.362 . S
C2568 C2565 1.431 . S
C2568 C2578 1.476 . S
H2569 C2563 0.929 . S
C2570 O2561 1.250 . S
C2570 O2562 1.258 . S
O2571 Mn2556 2.162 . S
O2571 C2559 1.281 . S
O2572 Mn2556 2.297 . S
O2572 C2559 1.236 . S
N2573 Mn2557 2.282 . S
N2573 C2574 1.328 . S
N2573 C2578 1.318 . S
C2574 N2573 1.328 . S
C2574 C2575 1.457 . S
C2574 H2579 0.929 . S
C2575 C2574 1.457 . S
C2575 C2576 1.291 . S
C2575 H2588 0.931 . S
C2576 C2575 1.291 . S
C2576 C2577 1.373 . S
C2576 H2589 0.929 . S
C2577 C2576 1.373 . S
C2577 C2578 1.396 . S
C2577 C2584 1.403 . S
C2578 C2568 1.476 . S
C2578 N2573 1.318 . S
C2578 C2577 1.396 . S
H2579 C2574 0.929 . S
O2580 Mn2556 2.385 . S
O2580 C2558 1.234 . S
O2581 Mn2556 2.209 . S
O2581 Mn2557 2.215 . S
O2581 C2558 1.283 . S
O2582 Mn2556 2.094 . S
O2582 C2560 1.240 . S
O2583 Mn2557 2.117 . S
O2583 C2560 1.264 . S
C2584 C2577 1.403 . S
C2584 C2585 1.399 . S
C2584 H2590 0.929 . S
C2585 C2565 1.449 . S
C2585 C2584 1.399 . S
C2585 H2591 0.930 . S
H2586 C2566 0.931 . S
H2587 C2567 0.930 . S
H2588 C2575 0.931 . S
H2589 C2576 0.929 . S
H2590 C2584 0.929 . S
H2591 C2585 0.930 . S
Mn2592 O2597 2.095 . S
Mn2592 O2607 2.162 . S
Mn2592 O2608 2.297 . S
Mn2592 O2616 2.385 . S
Mn2592 O2617 2.209 . S
Mn2592 O2618 2.094 . S
Mn2593 O2598 2.121 . S
Mn2593 N2600 2.257 . S
Mn2593 N2609 2.282 . S
Mn2593 O2617 2.215 . S
Mn2593 O2619 2.117 . S
C2594 O2616 1.234 . S
C2594 O2617 1.283 . S
C2595 O2607 1.281 . S
C2595 O2608 1.236 . S
C2596 O2618 1.240 . S
C2596 O2619 1.264 . S
O2597 Mn2592 2.095 . S
O2597 C2606 1.250 . S
O2598 Mn2593 2.121 . S
O2598 C2606 1.258 . S
C2599 N2600 1.326 . S
C2599 C2603 1.460 . S
C2599 H2605 0.929 . S
N2600 Mn2593 2.257 . S
N2600 C2599 1.326 . S
N2600 C2604 1.362 . S
C2601 C2602 1.258 . S
C2601 C2604 1.431 . S
C2601 C2621 1.449 . S
C2602 C2601 1.258 . S
C2602 C2603 1.477 . S
C2602 H2622 0.931 . S
C2603 C2599 1.460 . S
C2603 C2602 1.477 . S
C2603 H2623 0.930 . S
C2604 N2600 1.362 . S
C2604 C2601 1.431 . S
C2604 C2614 1.476 . S
H2605 C2599 0.929 . S
C2606 O2597 1.250 . S
C2606 O2598 1.258 . S
O2607 Mn2592 2.162 . S
O2607 C2595 1.281 . S
O2608 Mn2592 2.297 . S
O2608 C2595 1.236 . S
N2609 Mn2593 2.282 . S
N2609 C2610 1.328 . S
N2609 C2614 1.318 . S
C2610 N2609 1.328 . S
C2610 C2611 1.457 . S
C2610 H2615 0.929 . S
C2611 C2610 1.457 . S
C2611 C2612 1.291 . S
C2611 H2624 0.931 . S
C2612 C2611 1.291 . S
C2612 C2613 1.373 . S
C2612 H2625 0.929 . S
C2613 C2612 1.373 . S
C2613 C2614 1.396 . S
C2613 C2620 1.403 . S
C2614 C2604 1.476 . S
C2614 N2609 1.318 . S
C2614 C2613 1.396 . S
H2615 C2610 0.929 . S
O2616 Mn2592 2.385 . S
O2616 C2594 1.234 . S
O2617 Mn2592 2.209 . S
O2617 Mn2593 2.215 . S
O2617 C2594 1.283 . S
O2618 Mn2592 2.094 . S
O2618 C2596 1.240 . S
O2619 Mn2593 2.117 . S
O2619 C2596 1.264 . S
C2620 C2613 1.403 . S
C2620 C2621 1.399 . S
C2620 H2626 0.929 . S
C2621 C2601 1.449 . S
C2621 C2620 1.399 . S
C2621 H2627 0.930 . S
H2622 C2602 0.931 . S
H2623 C2603 0.930 . S
H2624 C2611 0.931 . S
H2625 C2612 0.929 . S
H2626 C2620 0.929 . S
H2627 C2621 0.930 . S
Mn2628 O2633 2.095 . S
Mn2628 O2643 2.162 . S
Mn2628 O2644 2.297 . S
Mn2628 O2652 2.385 . S
Mn2628 O2653 2.209 . S
Mn2628 O2654 2.094 . S
Mn2629 O2634 2.121 . S
Mn2629 N2636 2.257 . S
Mn2629 N2645 2.282 . S
Mn2629 O2653 2.215 . S
Mn2629 O2655 2.117 . S
C2630 O2652 1.234 . S
C2630 O2653 1.283 . S
C2631 O2643 1.281 . S
C2631 O2644 1.236 . S
C2632 O2654 1.240 . S
C2632 O2655 1.264 . S
O2633 Mn2628 2.095 . S
O2633 C2642 1.250 . S
O2634 Mn2629 2.121 . S
O2634 C2642 1.258 . S
C2635 N2636 1.326 . S
C2635 C2639 1.460 . S
C2635 H2641 0.929 . S
N2636 Mn2629 2.257 . S
N2636 C2635 1.326 . S
N2636 C2640 1.362 . S
C2637 C2638 1.258 . S
C2637 C2640 1.431 . S
C2637 C2657 1.449 . S
C2638 C2637 1.258 . S
C2638 C2639 1.477 . S
C2638 H2658 0.931 . S
C2639 C2635 1.460 . S
C2639 C2638 1.477 . S
C2639 H2659 0.930 . S
C2640 N2636 1.362 . S
C2640 C2637 1.431 . S
C2640 C2650 1.476 . S
H2641 C2635 0.929 . S
C2642 O2633 1.250 . S
C2642 O2634 1.258 . S
O2643 Mn2628 2.162 . S
O2643 C2631 1.281 . S
O2644 Mn2628 2.297 . S
O2644 C2631 1.236 . S
N2645 Mn2629 2.282 . S
N2645 C2646 1.328 . S
N2645 C2650 1.318 . S
C2646 N2645 1.328 . S
C2646 C2647 1.457 . S
C2646 H2651 0.929 . S
C2647 C2646 1.457 . S
C2647 C2648 1.291 . S
C2647 H2660 0.931 . S
C2648 C2647 1.291 . S
C2648 C2649 1.373 . S
C2648 H2661 0.929 . S
C2649 C2648 1.373 . S
C2649 C2650 1.396 . S
C2649 C2656 1.403 . S
C2650 C2640 1.476 . S
C2650 N2645 1.318 . S
C2650 C2649 1.396 . S
H2651 C2646 0.929 . S
O2652 Mn2628 2.385 . S
O2652 C2630 1.234 . S
O2653 Mn2628 2.209 . S
O2653 Mn2629 2.215 . S
O2653 C2630 1.283 . S
O2654 Mn2628 2.094 . S
O2654 C2632 1.240 . S
O2655 Mn2629 2.117 . S
O2655 C2632 1.264 . S
C2656 C2649 1.403 . S
C2656 C2657 1.399 . S
C2656 H2662 0.929 . S
C2657 C2637 1.449 . S
C2657 C2656 1.399 . S
C2657 H2663 0.930 . S
H2658 C2638 0.931 . S
H2659 C2639 0.930 . S
H2660 C2647 0.931 . S
H2661 C2648 0.929 . S
H2662 C2656 0.929 . S
H2663 C2657 0.930 . S
Mn2664 O2669 2.095 . S
Mn2664 O2679 2.162 . S
Mn2664 O2680 2.297 . S
Mn2664 O2688 2.385 . S
Mn2664 O2689 2.209 . S
Mn2664 O2690 2.094 . S
Mn2665 O2670 2.121 . S
Mn2665 N2672 2.257 . S
Mn2665 N2681 2.282 . S
Mn2665 O2689 2.215 . S
Mn2665 O2691 2.117 . S
C2666 O2688 1.234 . S
C2666 O2689 1.283 . S
C2667 O2679 1.281 . S
C2667 O2680 1.236 . S
C2668 O2690 1.240 . S
C2668 O2691 1.264 . S
O2669 Mn2664 2.095 . S
O2669 C2678 1.250 . S
O2670 Mn2665 2.121 . S
O2670 C2678 1.258 . S
C2671 N2672 1.326 . S
C2671 C2675 1.460 . S
C2671 H2677 0.929 . S
N2672 Mn2665 2.257 . S
N2672 C2671 1.326 . S
N2672 C2676 1.362 . S
C2673 C2674 1.258 . S
C2673 C2676 1.431 . S
C2673 C2693 1.449 . S
C2674 C2673 1.258 . S
C2674 C2675 1.477 . S
C2674 H2694 0.931 . S
C2675 C2671 1.460 . S
C2675 C2674 1.477 . S
C2675 H2695 0.930 . S
C2676 N2672 1.362 . S
C2676 C2673 1.431 . S
C2676 C2686 1.476 . S
H2677 C2671 0.929 . S
C2678 O2669 1.250 . S
C2678 O2670 1.258 . S
O2679 Mn2664 2.162 . S
O2679 C2667 1.281 . S
O2680 Mn2664 2.297 . S
O2680 C2667 1.236 . S
N2681 Mn2665 2.282 . S
N2681 C2682 1.328 . S
N2681 C2686 1.318 . S
C2682 N2681 1.328 . S
C2682 C2683 1.457 . S
C2682 H2687 0.929 . S
C2683 C2682 1.457 . S
C2683 C2684 1.291 . S
C2683 H2696 0.931 . S
C2684 C2683 1.291 . S
C2684 C2685 1.373 . S
C2684 H2697 0.929 . S
C2685 C2684 1.373 . S
C2685 C2686 1.396 . S
C2685 C2692 1.403 . S
C2686 C2676 1.476 . S
C2686 N2681 1.318 . S
C2686 C2685 1.396 . S
H2687 C2682 0.929 . S
O2688 Mn2664 2.385 . S
O2688 C2666 1.234 . S
O2689 Mn2664 2.209 . S
O2689 Mn2665 2.215 . S
O2689 C2666 1.283 . S
O2690 Mn2664 2.094 . S
O2690 C2668 1.240 . S
O2691 Mn2665 2.117 . S
O2691 C2668 1.264 . S
C2692 C2685 1.403 . S
C2692 C2693 1.399 . S
C2692 H2698 0.929 . S
C2693 C2673 1.449 . S
C2693 C2692 1.399 . S
C2693 H2699 0.930 . S
H2694 C2674 0.931 . S
H2695 C2675 0.930 . S
H2696 C2683 0.931 . S
H2697 C2684 0.929 . S
H2698 C2692 0.929 . S
H2699 C2693 0.930 . S
Mn2700 O2705 2.095 . S
Mn2700 O2715 2.162 . S
Mn2700 O2716 2.297 . S
Mn2700 O2724 2.385 . S
Mn2700 O2725 2.209 . S
Mn2700 O2726 2.094 . S
Mn2701 O2706 2.121 . S
Mn2701 N2708 2.257 . S
Mn2701 N2717 2.282 . S
Mn2701 O2725 2.215 . S
Mn2701 O2727 2.117 . S
C2702 O2724 1.234 . S
C2702 O2725 1.283 . S
C2703 O2715 1.281 . S
C2703 O2716 1.236 . S
C2704 O2726 1.240 . S
C2704 O2727 1.264 . S
O2705 Mn2700 2.095 . S
O2705 C2714 1.250 . S
O2706 Mn2701 2.121 . S
O2706 C2714 1.258 . S
C2707 N2708 1.326 . S
C2707 C2711 1.460 . S
C2707 H2713 0.929 . S
N2708 Mn2701 2.257 . S
N2708 C2707 1.326 . S
N2708 C2712 1.362 . S
C2709 C2710 1.258 . S
C2709 C2712 1.431 . S
C2709 C2729 1.449 . S
C2710 C2709 1.258 . S
C2710 C2711 1.477 . S
C2710 H2730 0.931 . S
C2711 C2707 1.460 . S
C2711 C2710 1.477 . S
C2711 H2731 0.930 . S
C2712 N2708 1.362 . S
C2712 C2709 1.431 . S
C2712 C2722 1.476 . S
H2713 C2707 0.929 . S
C2714 O2705 1.250 . S
C2714 O2706 1.258 . S
O2715 Mn2700 2.162 . S
O2715 C2703 1.281 . S
O2716 Mn2700 2.297 . S
O2716 C2703 1.236 . S
N2717 Mn2701 2.282 . S
N2717 C2718 1.328 . S
N2717 C2722 1.318 . S
C2718 N2717 1.328 . S
C2718 C2719 1.457 . S
C2718 H2723 0.929 . S
C2719 C2718 1.457 . S
C2719 C2720 1.291 . S
C2719 H2732 0.931 . S
C2720 C2719 1.291 . S
C2720 C2721 1.373 . S
C2720 H2733 0.929 . S
C2721 C2720 1.373 . S
C2721 C2722 1.396 . S
C2721 C2728 1.403 . S
C2722 C2712 1.476 . S
C2722 N2717 1.318 . S
C2722 C2721 1.396 . S
H2723 C2718 0.929 . S
O2724 Mn2700 2.385 . S
O2724 C2702 1.234 . S
O2725 Mn2700 2.209 . S
O2725 Mn2701 2.215 . S
O2725 C2702 1.283 . S
O2726 Mn2700 2.094 . S
O2726 C2704 1.240 . S
O2727 Mn2701 2.117 . S
O2727 C2704 1.264 . S
C2728 C2721 1.403 . S
C2728 C2729 1.399 . S
C2728 H2734 0.929 . S
C2729 C2709 1.449 . S
C2729 C2728 1.399 . S
C2729 H2735 0.930 . S
H2730 C2710 0.931 . S
H2731 C2711 0.930 . S
H2732 C2719 0.931 . S
H2733 C2720 0.929 . S
H2734 C2728 0.929 . S
H2735 C2729 0.930 . S
Mn2736 O2741 2.095 . S
Mn2736 O2751 2.162 . S
Mn2736 O2752 2.297 . S
Mn2736 O2760 2.385 . S
Mn2736 O2761 2.209 . S
Mn2736 O2762 2.094 . S
Mn2737 O2742 2.121 . S
Mn2737 N2744 2.257 . S
Mn2737 N2753 2.282 . S
Mn2737 O2761 2.215 . S
Mn2737 O2763 2.117 . S
C2738 O2760 1.234 . S
C2738 O2761 1.283 . S
C2739 O2751 1.281 . S
C2739 O2752 1.236 . S
C2740 O2762 1.240 . S
C2740 O2763 1.264 . S
O2741 Mn2736 2.095 . S
O2741 C2750 1.250 . S
O2742 Mn2737 2.121 . S
O2742 C2750 1.258 . S
C2743 N2744 1.326 . S
C2743 C2747 1.460 . S
C2743 H2749 0.929 . S
N2744 Mn2737 2.257 . S
N2744 C2743 1.326 . S
N2744 C2748 1.362 . S
C2745 C2746 1.258 . S
C2745 C2748 1.431 . S
C2745 C2765 1.449 . S
C2746 C2745 1.258 . S
C2746 C2747 1.477 . S
C2746 H2766 0.931 . S
C2747 C2743 1.460 . S
C2747 C2746 1.477 . S
C2747 H2767 0.930 . S
C2748 N2744 1.362 . S
C2748 C2745 1.431 . S
C2748 C2758 1.476 . S
H2749 C2743 0.929 . S
C2750 O2741 1.250 . S
C2750 O2742 1.258 . S
O2751 Mn2736 2.162 . S
O2751 C2739 1.281 . S
O2752 Mn2736 2.297 . S
O2752 C2739 1.236 . S
N2753 Mn2737 2.282 . S
N2753 C2754 1.328 . S
N2753 C2758 1.318 . S
C2754 N2753 1.328 . S
C2754 C2755 1.457 . S
C2754 H2759 0.929 . S
C2755 C2754 1.457 . S
C2755 C2756 1.291 . S
C2755 H2768 0.931 . S
C2756 C2755 1.291 . S
C2756 C2757 1.373 . S
C2756 H2769 0.929 . S
C2757 C2756 1.373 . S
C2757 C2758 1.396 . S
C2757 C2764 1.403 . S
C2758 C2748 1.476 . S
C2758 N2753 1.318 . S
C2758 C2757 1.396 . S
H2759 C2754 0.929 . S
O2760 Mn2736 2.385 . S
O2760 C2738 1.234 . S
O2761 Mn2736 2.209 . S
O2761 Mn2737 2.215 . S
O2761 C2738 1.283 . S
O2762 Mn2736 2.094 . S
O2762 C2740 1.240 . S
O2763 Mn2737 2.117 . S
O2763 C2740 1.264 . S
C2764 C2757 1.403 . S
C2764 C2765 1.399 . S
C2764 H2770 0.929 . S
C2765 C2745 1.449 . S
C2765 C2764 1.399 . S
C2765 H2771 0.930 . S
H2766 C2746 0.931 . S
H2767 C2747 0.930 . S
H2768 C2755 0.931 . S
H2769 C2756 0.929 . S
H2770 C2764 0.929 . S
H2771 C2765 0.930 . S
Mn2772 O2777 2.095 . S
Mn2772 O2787 2.162 . S
Mn2772 O2788 2.297 . S
Mn2772 O2796 2.385 . S
Mn2772 O2797 2.209 . S
Mn2772 O2798 2.094 . S
Mn2773 O2778 2.121 . S
Mn2773 N2780 2.257 . S
Mn2773 N2789 2.282 . S
Mn2773 O2797 2.215 . S
Mn2773 O2799 2.117 . S
C2774 O2796 1.234 . S
C2774 O2797 1.283 . S
C2775 O2787 1.281 . S
C2775 O2788 1.236 . S
C2776 O2798 1.240 . S
C2776 O2799 1.264 . S
O2777 Mn2772 2.095 . S
O2777 C2786 1.250 . S
O2778 Mn2773 2.121 . S
O2778 C2786 1.258 . S
C2779 N2780 1.326 . S
C2779 C2783 1.460 . S
C2779 H2785 0.929 . S
N2780 Mn2773 2.257 . S
N2780 C2779 1.326 . S
N2780 C2784 1.362 . S
C2781 C2782 1.258 . S
C2781 C2784 1.431 . S
C2781 C2801 1.449 . S
C2782 C2781 1.258 . S
C2782 C2783 1.477 . S
C2782 H2802 0.931 . S
C2783 C2779 1.460 . S
C2783 C2782 1.477 . S
C2783 H2803 0.930 . S
C2784 N2780 1.362 . S
C2784 C2781 1.431 . S
C2784 C2794 1.476 . S
H2785 C2779 0.929 . S
C2786 O2777 1.250 . S
C2786 O2778 1.258 . S
O2787 Mn2772 2.162 . S
O2787 C2775 1.281 . S
O2788 Mn2772 2.297 . S
O2788 C2775 1.236 . S
N2789 Mn2773 2.282 . S
N2789 C2790 1.328 . S
N2789 C2794 1.318 . S
C2790 N2789 1.328 . S
C2790 C2791 1.457 . S
C2790 H2795 0.929 . S
C2791 C2790 1.457 . S
C2791 C2792 1.291 . S
C2791 H2804 0.931 . S
C2792 C2791 1.291 . S
C2792 C2793 1.373 . S
C2792 H2805 0.929 . S
C2793 C2792 1.373 . S
C2793 C2794 1.396 . S
C2793 C2800 1.403 . S
C2794 C2784 1.476 . S
C2794 N2789 1.318 . S
C2794 C2793 1.396 . S
H2795 C2790 0.929 . S
O2796 Mn2772 2.385 . S
O2796 C2774 1.234 . S
O2797 Mn2772 2.209 . S
O2797 Mn2773 2.215 . S
O2797 C2774 1.283 . S
O2798 Mn2772 2.094 . S
O2798 C2776 1.240 . S
O2799 Mn2773 2.117 . S
O2799 C2776 1.264 . S
C2800 C2793 1.403 . S
C2800 C2801 1.399 . S
C2800 H2806 0.929 . S
C2801 C2781 1.449 . S
C2801 C2800 1.399 . S
C2801 H2807 0.930 . S
H2802 C2782 0.931 . S
H2803 C2783 0.930 . S
H2804 C2791 0.931 . S
H2805 C2792 0.929 . S
H2806 C2800 0.929 . S
H2807 C2801 0.930 . S
Mn2808 O2813 2.095 . S
Mn2808 O2823 2.162 . S
Mn2808 O2824 2.297 . S
Mn2808 O2832 2.385 . S
Mn2808 O2833 2.209 . S
Mn2808 O2834 2.094 . S
Mn2809 O2814 2.121 . S
Mn2809 N2816 2.257 . S
Mn2809 N2825 2.282 . S
Mn2809 O2833 2.215 . S
Mn2809 O2835 2.117 . S
C2810 O2832 1.234 . S
C2810 O2833 1.283 . S
C2811 O2823 1.281 . S
C2811 O2824 1.236 . S
C2812 O2834 1.240 . S
C2812 O2835 1.264 . S
O2813 Mn2808 2.095 . S
O2813 C2822 1.250 . S
O2814 Mn2809 2.121 . S
O2814 C2822 1.258 . S
C2815 N2816 1.326 . S
C2815 C2819 1.460 . S
C2815 H2821 0.929 . S
N2816 Mn2809 2.257 . S
N2816 C2815 1.326 . S
N2816 C2820 1.362 . S
C2817 C2818 1.258 . S
C2817 C2820 1.431 . S
C2817 C2837 1.449 . S
C2818 C2817 1.258 . S
C2818 C2819 1.477 . S
C2818 H2838 0.931 . S
C2819 C2815 1.460 . S
C2819 C2818 1.477 . S
C2819 H2839 0.930 . S
C2820 N2816 1.362 . S
C2820 C2817 1.431 . S
C2820 C2830 1.476 . S
H2821 C2815 0.929 . S
C2822 O2813 1.250 . S
C2822 O2814 1.258 . S
O2823 Mn2808 2.162 . S
O2823 C2811 1.281 . S
O2824 Mn2808 2.297 . S
O2824 C2811 1.236 . S
N2825 Mn2809 2.282 . S
N2825 C2826 1.328 . S
N2825 C2830 1.318 . S
C2826 N2825 1.328 . S
C2826 C2827 1.457 . S
C2826 H2831 0.929 . S
C2827 C2826 1.457 . S
C2827 C2828 1.291 . S
C2827 H2840 0.931 . S
C2828 C2827 1.291 . S
C2828 C2829 1.373 . S
C2828 H2841 0.929 . S
C2829 C2828 1.373 . S
C2829 C2830 1.396 . S
C2829 C2836 1.403 . S
C2830 C2820 1.476 . S
C2830 N2825 1.318 . S
C2830 C2829 1.396 . S
H2831 C2826 0.929 . S
O2832 Mn2808 2.385 . S
O2832 C2810 1.234 . S
O2833 Mn2808 2.209 . S
O2833 Mn2809 2.215 . S
O2833 C2810 1.283 . S
O2834 Mn2808 2.094 . S
O2834 C2812 1.240 . S
O2835 Mn2809 2.117 . S
O2835 C2812 1.264 . S
C2836 C2829 1.403 . S
C2836 C2837 1.399 . S
C2836 H2842 0.929 . S
C2837 C2817 1.449 . S
C2837 C2836 1.399 . S
C2837 H2843 0.930 . S
H2838 C2818 0.931 . S
H2839 C2819 0.930 . S
H2840 C2827 0.931 . S
H2841 C2828 0.929 . S
H2842 C2836 0.929 . S
H2843 C2837 0.930 . S
Mn2844 O2849 2.095 . S
Mn2844 O2859 2.162 . S
Mn2844 O2860 2.297 . S
Mn2844 O2868 2.385 . S
Mn2844 O2869 2.209 . S
Mn2844 O2870 2.094 . S
Mn2845 O2850 2.121 . S
Mn2845 N2852 2.257 . S
Mn2845 N2861 2.282 . S
Mn2845 O2869 2.215 . S
Mn2845 O2871 2.117 . S
C2846 O2868 1.234 . S
C2846 O2869 1.283 . S
C2847 O2859 1.281 . S
C2847 O2860 1.236 . S
C2848 O2870 1.240 . S
C2848 O2871 1.264 . S
O2849 Mn2844 2.095 . S
O2849 C2858 1.250 . S
O2850 Mn2845 2.121 . S
O2850 C2858 1.258 . S
C2851 N2852 1.326 . S
C2851 C2855 1.460 . S
C2851 H2857 0.929 . S
N2852 Mn2845 2.257 . S
N2852 C2851 1.326 . S
N2852 C2856 1.362 . S
C2853 C2854 1.258 . S
C2853 C2856 1.431 . S
C2853 C2873 1.449 . S
C2854 C2853 1.258 . S
C2854 C2855 1.477 . S
C2854 H2874 0.931 . S
C2855 C2851 1.460 . S
C2855 C2854 1.477 . S
C2855 H2875 0.930 . S
C2856 N2852 1.362 . S
C2856 C2853 1.431 . S
C2856 C2866 1.476 . S
H2857 C2851 0.929 . S
C2858 O2849 1.250 . S
C2858 O2850 1.258 . S
O2859 Mn2844 2.162 . S
O2859 C2847 1.281 . S
O2860 Mn2844 2.297 . S
O2860 C2847 1.236 . S
N2861 Mn2845 2.282 . S
N2861 C2862 1.328 . S
N2861 C2866 1.318 . S
C2862 N2861 1.328 . S
C2862 C2863 1.457 . S
C2862 H2867 0.929 . S
C2863 C2862 1.457 . S
C2863 C2864 1.291 . S
C2863 H2876 0.931 . S
C2864 C2863 1.291 . S
C2864 C2865 1.373 . S
C2864 H2877 0.929 . S
C2865 C2864 1.373 . S
C2865 C2866 1.396 . S
C2865 C2872 1.403 . S
C2866 C2856 1.476 . S
C2866 N2861 1.318 . S
C2866 C2865 1.396 . S
H2867 C2862 0.929 . S
O2868 Mn2844 2.385 . S
O2868 C2846 1.234 . S
O2869 Mn2844 2.209 . S
O2869 Mn2845 2.215 . S
O2869 C2846 1.283 . S
O2870 Mn2844 2.094 . S
O2870 C2848 1.240 . S
O2871 Mn2845 2.117 . S
O2871 C2848 1.264 . S
C2872 C2865 1.403 . S
C2872 C2873 1.399 . S
C2872 H2878 0.929 . S
C2873 C2853 1.449 . S
C2873 C2872 1.399 . S
C2873 H2879 0.930 . S
H2874 C2854 0.931 . S
H2875 C2855 0.930 . S
H2876 C2863 0.931 . S
H2877 C2864 0.929 . S
H2878 C2872 0.929 . S
H2879 C2873 0.930 . S
Mn2880 O2885 2.095 . S
Mn2880 O2895 2.162 . S
Mn2880 O2896 2.297 . S
Mn2880 O2904 2.385 . S
Mn2880 O2905 2.209 . S
Mn2880 O2906 2.094 . S
Mn2881 O2886 2.121 . S
Mn2881 N2888 2.257 . S
Mn2881 N2897 2.282 . S
Mn2881 O2905 2.215 . S
Mn2881 O2907 2.117 . S
C2882 O2904 1.234 . S
C2882 O2905 1.283 . S
C2883 O2895 1.281 . S
C2883 O2896 1.236 . S
C2884 O2906 1.240 . S
C2884 O2907 1.264 . S
O2885 Mn2880 2.095 . S
O2885 C2894 1.250 . S
O2886 Mn2881 2.121 . S
O2886 C2894 1.258 . S
C2887 N2888 1.326 . S
C2887 C2891 1.460 . S
C2887 H2893 0.929 . S
N2888 Mn2881 2.257 . S
N2888 C2887 1.326 . S
N2888 C2892 1.362 . S
C2889 C2890 1.258 . S
C2889 C2892 1.431 . S
C2889 C2909 1.449 . S
C2890 C2889 1.258 . S
C2890 C2891 1.477 . S
C2890 H2910 0.931 . S
C2891 C2887 1.460 . S
C2891 C2890 1.477 . S
C2891 H2911 0.930 . S
C2892 N2888 1.362 . S
C2892 C2889 1.431 . S
C2892 C2902 1.476 . S
H2893 C2887 0.929 . S
C2894 O2885 1.250 . S
C2894 O2886 1.258 . S
O2895 Mn2880 2.162 . S
O2895 C2883 1.281 . S
O2896 Mn2880 2.297 . S
O2896 C2883 1.236 . S
N2897 Mn2881 2.282 . S
N2897 C2898 1.328 . S
N2897 C2902 1.318 . S
C2898 N2897 1.328 . S
C2898 C2899 1.457 . S
C2898 H2903 0.929 . S
C2899 C2898 1.457 . S
C2899 C2900 1.291 . S
C2899 H2912 0.931 . S
C2900 C2899 1.291 . S
C2900 C2901 1.373 . S
C2900 H2913 0.929 . S
C2901 C2900 1.373 . S
C2901 C2902 1.396 . S
C2901 C2908 1.403 . S
C2902 C2892 1.476 . S
C2902 N2897 1.318 . S
C2902 C2901 1.396 . S
H2903 C2898 0.929 . S
O2904 Mn2880 2.385 . S
O2904 C2882 1.234 . S
O2905 Mn2880 2.209 . S
O2905 Mn2881 2.215 . S
O2905 C2882 1.283 . S
O2906 Mn2880 2.094 . S
O2906 C2884 1.240 . S
O2907 Mn2881 2.117 . S
O2907 C2884 1.264 . S
C2908 C2901 1.403 . S
C2908 C2909 1.399 . S
C2908 H2914 0.929 . S
C2909 C2889 1.449 . S
C2909 C2908 1.399 . S
C2909 H2915 0.930 . S
H2910 C2890 0.931 . S
H2911 C2891 0.930 . S
H2912 C2899 0.931 . S
H2913 C2900 0.929 . S
H2914 C2908 0.929 . S
H2915 C2909 0.930 . S
Mn2916 O2921 2.095 . S
Mn2916 O2931 2.162 . S
Mn2916 O2932 2.297 . S
Mn2916 O2940 2.385 . S
Mn2916 O2941 2.209 . S
Mn2916 O2942 2.094 . S
Mn2917 O2922 2.121 . S
Mn2917 N2924 2.257 . S
Mn2917 N2933 2.282 . S
Mn2917 O2941 2.215 . S
Mn2917 O2943 2.117 . S
C2918 O2940 1.234 . S
C2918 O2941 1.283 . S
C2919 O2931 1.281 . S
C2919 O2932 1.236 . S
C2920 O2942 1.240 . S
C2920 O2943 1.264 . S
O2921 Mn2916 2.095 . S
O2921 C2930 1.250 . S
O2922 Mn2917 2.121 . S
O2922 C2930 1.258 . S
C2923 N2924 1.326 . S
C2923 C2927 1.460 . S
C2923 H2929 0.929 . S
N2924 Mn2917 2.257 . S
N2924 C2923 1.326 . S
N2924 C2928 1.362 . S
C2925 C2926 1.258 . S
C2925 C2928 1.431 . S
C2925 C2945 1.449 . S
C2926 C2925 1.258 . S
C2926 C2927 1.477 . S
C2926 H2946 0.931 . S
C2927 C2923 1.460 . S
C2927 C2926 1.477 . S
C2927 H2947 0.930 . S
C2928 N2924 1.362 . S
C2928 C2925 1.431 . S
C2928 C2938 1.476 . S
H2929 C2923 0.929 . S
C2930 O2921 1.250 . S
C2930 O2922 1.258 . S
O2931 Mn2916 2.162 . S
O2931 C2919 1.281 . S
O2932 Mn2916 2.297 . S
O2932 C2919 1.236 . S
N2933 Mn2917 2.282 . S
N2933 C2934 1.328 . S
N2933 C2938 1.318 . S
C2934 N2933 1.328 . S
C2934 C2935 1.457 . S
C2934 H2939 0.929 . S
C2935 C2934 1.457 . S
C2935 C2936 1.291 . S
C2935 H2948 0.931 . S
C2936 C2935 1.291 . S
C2936 C2937 1.373 . S
C2936 H2949 0.929 . S
C2937 C2936 1.373 . S
C2937 C2938 1.396 . S
C2937 C2944 1.403 . S
C2938 C2928 1.476 . S
C2938 N2933 1.318 . S
C2938 C2937 1.396 . S
H2939 C2934 0.929 . S
O2940 Mn2916 2.385 . S
O2940 C2918 1.234 . S
O2941 Mn2916 2.209 . S
O2941 Mn2917 2.215 . S
O2941 C2918 1.283 . S
O2942 Mn2916 2.094 . S
O2942 C2920 1.240 . S
O2943 Mn2917 2.117 . S
O2943 C2920 1.264 . S
C2944 C2937 1.403 . S
C2944 C2945 1.399 . S
C2944 H2950 0.929 . S
C2945 C2925 1.449 . S
C2945 C2944 1.399 . S
C2945 H2951 0.930 . S
H2946 C2926 0.931 . S
H2947 C2927 0.930 . S
H2948 C2935 0.931 . S
H2949 C2936 0.929 . S
H2950 C2944 0.929 . S
H2951 C2945 0.930 . S
Mn2952 O2957 2.095 . S
Mn2952 O2967 2.162 . S
Mn2952 O2968 2.297 . S
Mn2952 O2976 2.385 . S
Mn2952 O2977 2.209 . S
Mn2952 O2978 2.094 . S
Mn2953 O2958 2.121 . S
Mn2953 N2960 2.257 . S
Mn2953 N2969 2.282 . S
Mn2953 O2977 2.215 . S
Mn2953 O2979 2.117 . S
C2954 O2976 1.234 . S
C2954 O2977 1.283 . S
C2955 O2967 1.281 . S
C2955 O2968 1.236 . S
C2956 O2978 1.240 . S
C2956 O2979 1.264 . S
O2957 Mn2952 2.095 . S
O2957 C2966 1.250 . S
O2958 Mn2953 2.121 . S
O2958 C2966 1.258 . S
C2959 N2960 1.326 . S
C2959 C2963 1.460 . S
C2959 H2965 0.929 . S
N2960 Mn2953 2.257 . S
N2960 C2959 1.326 . S
N2960 C2964 1.362 . S
C2961 C2962 1.258 . S
C2961 C2964 1.431 . S
C2961 C2981 1.449 . S
C2962 C2961 1.258 . S
C2962 C2963 1.477 . S
C2962 H2982 0.931 . S
C2963 C2959 1.460 . S
C2963 C2962 1.477 . S
C2963 H2983 0.930 . S
C2964 N2960 1.362 . S
C2964 C2961 1.431 . S
C2964 C2974 1.476 . S
H2965 C2959 0.929 . S
C2966 O2957 1.250 . S
C2966 O2958 1.258 . S
O2967 Mn2952 2.162 . S
O2967 C2955 1.281 . S
O2968 Mn2952 2.297 . S
O2968 C2955 1.236 . S
N2969 Mn2953 2.282 . S
N2969 C2970 1.328 . S
N2969 C2974 1.318 . S
C2970 N2969 1.328 . S
C2970 C2971 1.457 . S
C2970 H2975 0.929 . S
C2971 C2970 1.457 . S
C2971 C2972 1.291 . S
C2971 H2984 0.931 . S
C2972 C2971 1.291 . S
C2972 C2973 1.373 . S
C2972 H2985 0.929 . S
C2973 C2972 1.373 . S
C2973 C2974 1.396 . S
C2973 C2980 1.403 . S
C2974 C2964 1.476 . S
C2974 N2969 1.318 . S
C2974 C2973 1.396 . S
H2975 C2970 0.929 . S
O2976 Mn2952 2.385 . S
O2976 C2954 1.234 . S
O2977 Mn2952 2.209 . S
O2977 Mn2953 2.215 . S
O2977 C2954 1.283 . S
O2978 Mn2952 2.094 . S
O2978 C2956 1.240 . S
O2979 Mn2953 2.117 . S
O2979 C2956 1.264 . S
C2980 C2973 1.403 . S
C2980 C2981 1.399 . S
C2980 H2986 0.929 . S
C2981 C2961 1.449 . S
C2981 C2980 1.399 . S
C2981 H2987 0.930 . S
H2982 C2962 0.931 . S
H2983 C2963 0.930 . S
H2984 C2971 0.931 . S
H2985 C2972 0.929 . S
H2986 C2980 0.929 . S
H2987 C2981 0.930 . S
Mn2988 O2993 2.095 . S
Mn2988 O3003 2.162 . S
Mn2988 O3004 2.297 . S
Mn2988 O3012 2.385 . S
Mn2988 O3013 2.209 . S
Mn2988 O3014 2.094 . S
Mn2989 O2994 2.121 . S
Mn2989 N2996 2.257 . S
Mn2989 N3005 2.282 . S
Mn2989 O3013 2.215 . S
Mn2989 O3015 2.117 . S
C2990 O3012 1.234 . S
C2990 O3013 1.283 . S
C2991 O3003 1.281 . S
C2991 O3004 1.236 . S
C2992 O3014 1.240 . S
C2992 O3015 1.264 . S
O2993 Mn2988 2.095 . S
O2993 C3002 1.250 . S
O2994 Mn2989 2.121 . S
O2994 C3002 1.258 . S
C2995 N2996 1.326 . S
C2995 C2999 1.460 . S
C2995 H3001 0.929 . S
N2996 Mn2989 2.257 . S
N2996 C2995 1.326 . S
N2996 C3000 1.362 . S
C2997 C2998 1.258 . S
C2997 C3000 1.431 . S
C2997 C3017 1.449 . S
C2998 C2997 1.258 . S
C2998 C2999 1.477 . S
C2998 H3018 0.931 . S
C2999 C2995 1.460 . S
C2999 C2998 1.477 . S
C2999 H3019 0.930 . S
C3000 N2996 1.362 . S
C3000 C2997 1.431 . S
C3000 C3010 1.476 . S
H3001 C2995 0.929 . S
C3002 O2993 1.250 . S
C3002 O2994 1.258 . S
O3003 Mn2988 2.162 . S
O3003 C2991 1.281 . S
O3004 Mn2988 2.297 . S
O3004 C2991 1.236 . S
N3005 Mn2989 2.282 . S
N3005 C3006 1.328 . S
N3005 C3010 1.318 . S
C3006 N3005 1.328 . S
C3006 C3007 1.457 . S
C3006 H3011 0.929 . S
C3007 C3006 1.457 . S
C3007 C3008 1.291 . S
C3007 H3020 0.931 . S
C3008 C3007 1.291 . S
C3008 C3009 1.373 . S
C3008 H3021 0.929 . S
C3009 C3008 1.373 . S
C3009 C3010 1.396 . S
C3009 C3016 1.403 . S
C3010 C3000 1.476 . S
C3010 N3005 1.318 . S
C3010 C3009 1.396 . S
H3011 C3006 0.929 . S
O3012 Mn2988 2.385 . S
O3012 C2990 1.234 . S
O3013 Mn2988 2.209 . S
O3013 Mn2989 2.215 . S
O3013 C2990 1.283 . S
O3014 Mn2988 2.094 . S
O3014 C2992 1.240 . S
O3015 Mn2989 2.117 . S
O3015 C2992 1.264 . S
C3016 C3009 1.403 . S
C3016 C3017 1.399 . S
C3016 H3022 0.929 . S
C3017 C2997 1.449 . S
C3017 C3016 1.399 . S
C3017 H3023 0.930 . S
H3018 C2998 0.931 . S
H3019 C2999 0.930 . S
H3020 C3007 0.931 . S
H3021 C3008 0.929 . S
H3022 C3016 0.929 . S
H3023 C3017 0.930 . S
Mn3024 O3029 2.095 . S
Mn3024 O3039 2.162 . S
Mn3024 O3040 2.297 . S
Mn3024 O3048 2.385 . S
Mn3024 O3049 2.209 . S
Mn3024 O3050 2.094 . S
Mn3025 O3030 2.121 . S
Mn3025 N3032 2.257 . S
Mn3025 N3041 2.282 . S
Mn3025 O3049 2.215 . S
Mn3025 O3051 2.117 . S
C3026 O3048 1.234 . S
C3026 O3049 1.283 . S
C3027 O3039 1.281 . S
C3027 O3040 1.236 . S
C3028 O3050 1.240 . S
C3028 O3051 1.264 . S
O3029 Mn3024 2.095 . S
O3029 C3038 1.250 . S
O3030 Mn3025 2.121 . S
O3030 C3038 1.258 . S
C3031 N3032 1.326 . S
C3031 C3035 1.460 . S
C3031 H3037 0.929 . S
N3032 Mn3025 2.257 . S
N3032 C3031 1.326 . S
N3032 C3036 1.362 . S
C3033 C3034 1.258 . S
C3033 C3036 1.431 . S
C3033 C3053 1.449 . S
C3034 C3033 1.258 . S
C3034 C3035 1.477 . S
C3034 H3054 0.931 . S
C3035 C3031 1.460 . S
C3035 C3034 1.477 . S
C3035 H3055 0.930 . S
C3036 N3032 1.362 . S
C3036 C3033 1.431 . S
C3036 C3046 1.476 . S
H3037 C3031 0.929 . S
C3038 O3029 1.250 . S
C3038 O3030 1.258 . S
O3039 Mn3024 2.162 . S
O3039 C3027 1.281 . S
O3040 Mn3024 2.297 . S
O3040 C3027 1.236 . S
N3041 Mn3025 2.282 . S
N3041 C3042 1.328 . S
N3041 C3046 1.318 . S
C3042 N3041 1.328 . S
C3042 C3043 1.457 . S
C3042 H3047 0.929 . S
C3043 C3042 1.457 . S
C3043 C3044 1.291 . S
C3043 H3056 0.931 . S
C3044 C3043 1.291 . S
C3044 C3045 1.373 . S
C3044 H3057 0.929 . S
C3045 C3044 1.373 . S
C3045 C3046 1.396 . S
C3045 C3052 1.403 . S
C3046 C3036 1.476 . S
C3046 N3041 1.318 . S
C3046 C3045 1.396 . S
H3047 C3042 0.929 . S
O3048 Mn3024 2.385 . S
O3048 C3026 1.234 . S
O3049 Mn3024 2.209 . S
O3049 Mn3025 2.215 . S
O3049 C3026 1.283 . S
O3050 Mn3024 2.094 . S
O3050 C3028 1.240 . S
O3051 Mn3025 2.117 . S
O3051 C3028 1.264 . S
C3052 C3045 1.403 . S
C3052 C3053 1.399 . S
C3052 H3058 0.929 . S
C3053 C3033 1.449 . S
C3053 C3052 1.399 . S
C3053 H3059 0.930 . S
H3054 C3034 0.931 . S
H3055 C3035 0.930 . S
H3056 C3043 0.931 . S
H3057 C3044 0.929 . S
H3058 C3052 0.929 . S
H3059 C3053 0.930 . S
Mn3060 O3065 2.095 . S
Mn3060 O3075 2.162 . S
Mn3060 O3076 2.297 . S
Mn3060 O3084 2.385 . S
Mn3060 O3085 2.209 . S
Mn3060 O3086 2.094 . S
Mn3061 O3066 2.121 . S
Mn3061 N3068 2.257 . S
Mn3061 N3077 2.282 . S
Mn3061 O3085 2.215 . S
Mn3061 O3087 2.117 . S
C3062 O3084 1.234 . S
C3062 O3085 1.283 . S
C3063 O3075 1.281 . S
C3063 O3076 1.236 . S
C3064 O3086 1.240 . S
C3064 O3087 1.264 . S
O3065 Mn3060 2.095 . S
O3065 C3074 1.250 . S
O3066 Mn3061 2.121 . S
O3066 C3074 1.258 . S
C3067 N3068 1.326 . S
C3067 C3071 1.460 . S
C3067 H3073 0.929 . S
N3068 Mn3061 2.257 . S
N3068 C3067 1.326 . S
N3068 C3072 1.362 . S
C3069 C3070 1.258 . S
C3069 C3072 1.431 . S
C3069 C3089 1.449 . S
C3070 C3069 1.258 . S
C3070 C3071 1.477 . S
C3070 H3090 0.931 . S
C3071 C3067 1.460 . S
C3071 C3070 1.477 . S
C3071 H3091 0.930 . S
C3072 N3068 1.362 . S
C3072 C3069 1.431 . S
C3072 C3082 1.476 . S
H3073 C3067 0.929 . S
C3074 O3065 1.250 . S
C3074 O3066 1.258 . S
O3075 Mn3060 2.162 . S
O3075 C3063 1.281 . S
O3076 Mn3060 2.297 . S
O3076 C3063 1.236 . S
N3077 Mn3061 2.282 . S
N3077 C3078 1.328 . S
N3077 C3082 1.318 . S
C3078 N3077 1.328 . S
C3078 C3079 1.457 . S
C3078 H3083 0.929 . S
C3079 C3078 1.457 . S
C3079 C3080 1.291 . S
C3079 H3092 0.931 . S
C3080 C3079 1.291 . S
C3080 C3081 1.373 . S
C3080 H3093 0.929 . S
C3081 C3080 1.373 . S
C3081 C3082 1.396 . S
C3081 C3088 1.403 . S
C3082 C3072 1.476 . S
C3082 N3077 1.318 . S
C3082 C3081 1.396 . S
H3083 C3078 0.929 . S
O3084 Mn3060 2.385 . S
O3084 C3062 1.234 . S
O3085 Mn3060 2.209 . S
O3085 Mn3061 2.215 . S
O3085 C3062 1.283 . S
O3086 Mn3060 2.094 . S
O3086 C3064 1.240 . S
O3087 Mn3061 2.117 . S
O3087 C3064 1.264 . S
C3088 C3081 1.403 . S
C3088 C3089 1.399 . S
C3088 H3094 0.929 . S
C3089 C3069 1.449 . S
C3089 C3088 1.399 . S
C3089 H3095 0.930 . S
H3090 C3070 0.931 . S
H3091 C3071 0.930 . S
H3092 C3079 0.931 . S
H3093 C3080 0.929 . S
H3094 C3088 0.929 . S
H3095 C3089 0.930 . S
Mn3096 O3101 2.095 . S
Mn3096 O3111 2.162 . S
Mn3096 O3112 2.297 . S
Mn3096 O3120 2.385 . S
Mn3096 O3121 2.209 . S
Mn3096 O3122 2.094 . S
Mn3097 O3102 2.121 . S
Mn3097 N3104 2.257 . S
Mn3097 N3113 2.282 . S
Mn3097 O3121 2.215 . S
Mn3097 O3123 2.117 . S
C3098 O3120 1.234 . S
C3098 O3121 1.283 . S
C3099 O3111 1.281 . S
C3099 O3112 1.236 . S
C3100 O3122 1.240 . S
C3100 O3123 1.264 . S
O3101 Mn3096 2.095 . S
O3101 C3110 1.250 . S
O3102 Mn3097 2.121 . S
O3102 C3110 1.258 . S
C3103 N3104 1.326 . S
C3103 C3107 1.460 . S
C3103 H3109 0.929 . S
N3104 Mn3097 2.257 . S
N3104 C3103 1.326 . S
N3104 C3108 1.362 . S
C3105 C3106 1.258 . S
C3105 C3108 1.431 . S
C3105 C3125 1.449 . S
C3106 C3105 1.258 . S
C3106 C3107 1.477 . S
C3106 H3126 0.931 . S
C3107 C3103 1.460 . S
C3107 C3106 1.477 . S
C3107 H3127 0.930 . S
C3108 N3104 1.362 . S
C3108 C3105 1.431 . S
C3108 C3118 1.476 . S
H3109 C3103 0.929 . S
C3110 O3101 1.250 . S
C3110 O3102 1.258 . S
O3111 Mn3096 2.162 . S
O3111 C3099 1.281 . S
O3112 Mn3096 2.297 . S
O3112 C3099 1.236 . S
N3113 Mn3097 2.282 . S
N3113 C3114 1.328 . S
N3113 C3118 1.318 . S
C3114 N3113 1.328 . S
C3114 C3115 1.457 . S
C3114 H3119 0.929 . S
C3115 C3114 1.457 . S
C3115 C3116 1.291 . S
C3115 H3128 0.931 . S
C3116 C3115 1.291 . S
C3116 C3117 1.373 . S
C3116 H3129 0.929 . S
C3117 C3116 1.373 . S
C3117 C3118 1.396 . S
C3117 C3124 1.403 . S
C3118 C3108 1.476 . S
C3118 N3113 1.318 . S
C3118 C3117 1.396 . S
H3119 C3114 0.929 . S
O3120 Mn3096 2.385 . S
O3120 C3098 1.234 . S
O3121 Mn3096 2.209 . S
O3121 Mn3097 2.215 . S
O3121 C3098 1.283 . S
O3122 Mn3096 2.094 . S
O3122 C3100 1.240 . S
O3123 Mn3097 2.117 . S
O3123 C3100 1.264 . S
C3124 C3117 1.403 . S
C3124 C3125 1.399 . S
C3124 H3130 0.929 . S
C3125 C3105 1.449 . S
C3125 C3124 1.399 . S
C3125 H3131 0.930 . S
H3126 C3106 0.931 . S
H3127 C3107 0.930 . S
H3128 C3115 0.931 . S
H3129 C3116 0.929 . S
H3130 C3124 0.929 . S
H3131 C3125 0.930 . S
Mn3132 O3137 2.095 . S
Mn3132 O3147 2.162 . S
Mn3132 O3148 2.297 . S
Mn3132 O3156 2.385 . S
Mn3132 O3157 2.209 . S
Mn3132 O3158 2.094 . S
Mn3133 O3138 2.121 . S
Mn3133 N3140 2.257 . S
Mn3133 N3149 2.282 . S
Mn3133 O3157 2.215 . S
Mn3133 O3159 2.117 . S
C3134 O3156 1.234 . S
C3134 O3157 1.283 . S
C3135 O3147 1.281 . S
C3135 O3148 1.236 . S
C3136 O3158 1.240 . S
C3136 O3159 1.264 . S
O3137 Mn3132 2.095 . S
O3137 C3146 1.250 . S
O3138 Mn3133 2.121 . S
O3138 C3146 1.258 . S
C3139 N3140 1.326 . S
C3139 C3143 1.460 . S
C3139 H3145 0.929 . S
N3140 Mn3133 2.257 . S
N3140 C3139 1.326 . S
N3140 C3144 1.362 . S
C3141 C3142 1.258 . S
C3141 C3144 1.431 . S
C3141 C3161 1.449 . S
C3142 C3141 1.258 . S
C3142 C3143 1.477 . S
C3142 H3162 0.931 . S
C3143 C3139 1.460 . S
C3143 C3142 1.477 . S
C3143 H3163 0.930 . S
C3144 N3140 1.362 . S
C3144 C3141 1.431 . S
C3144 C3154 1.476 . S
H3145 C3139 0.929 . S
C3146 O3137 1.250 . S
C3146 O3138 1.258 . S
O3147 Mn3132 2.162 . S
O3147 C3135 1.281 . S
O3148 Mn3132 2.297 . S
O3148 C3135 1.236 . S
N3149 Mn3133 2.282 . S
N3149 C3150 1.328 . S
N3149 C3154 1.318 . S
C3150 N3149 1.328 . S
C3150 C3151 1.457 . S
C3150 H3155 0.929 . S
C3151 C3150 1.457 . S
C3151 C3152 1.291 . S
C3151 H3164 0.931 . S
C3152 C3151 1.291 . S
C3152 C3153 1.373 . S
C3152 H3165 0.929 . S
C3153 C3152 1.373 . S
C3153 C3154 1.396 . S
C3153 C3160 1.403 . S
C3154 C3144 1.476 . S
C3154 N3149 1.318 . S
C3154 C3153 1.396 . S
H3155 C3150 0.929 . S
O3156 Mn3132 2.385 . S
O3156 C3134 1.234 . S
O3157 Mn3132 2.209 . S
O3157 Mn3133 2.215 . S
O3157 C3134 1.283 . S
O3158 Mn3132 2.094 . S
O3158 C3136 1.240 . S
O3159 Mn3133 2.117 . S
O3159 C3136 1.264 . S
C3160 C3153 1.403 . S
C3160 C3161 1.399 . S
C3160 H3166 0.929 . S
C3161 C3141 1.449 . S
C3161 C3160 1.399 . S
C3161 H3167 0.930 . S
H3162 C3142 0.931 . S
H3163 C3143 0.930 . S
H3164 C3151 0.931 . S
H3165 C3152 0.929 . S
H3166 C3160 0.929 . S
H3167 C3161 0.930 . S
Mn3168 O3173 2.095 . S
Mn3168 O3183 2.162 . S
Mn3168 O3184 2.297 . S
Mn3168 O3192 2.385 . S
Mn3168 O3193 2.209 . S
Mn3168 O3194 2.094 . S
Mn3169 O3174 2.121 . S
Mn3169 N3176 2.257 . S
Mn3169 N3185 2.282 . S
Mn3169 O3193 2.215 . S
Mn3169 O3195 2.117 . S
C3170 O3192 1.234 . S
C3170 O3193 1.283 . S
C3171 O3183 1.281 . S
C3171 O3184 1.236 . S
C3172 O3194 1.240 . S
C3172 O3195 1.264 . S
O3173 Mn3168 2.095 . S
O3173 C3182 1.250 . S
O3174 Mn3169 2.121 . S
O3174 C3182 1.258 . S
C3175 N3176 1.326 . S
C3175 C3179 1.460 . S
C3175 H3181 0.929 . S
N3176 Mn3169 2.257 . S
N3176 C3175 1.326 . S
N3176 C3180 1.362 . S
C3177 C3178 1.258 . S
C3177 C3180 1.431 . S
C3177 C3197 1.449 . S
C3178 C3177 1.258 . S
C3178 C3179 1.477 . S
C3178 H3198 0.931 . S
C3179 C3175 1.460 . S
C3179 C3178 1.477 . S
C3179 H3199 0.930 . S
C3180 N3176 1.362 . S
C3180 C3177 1.431 . S
C3180 C3190 1.476 . S
H3181 C3175 0.929 . S
C3182 O3173 1.250 . S
C3182 O3174 1.258 . S
O3183 Mn3168 2.162 . S
O3183 C3171 1.281 . S
O3184 Mn3168 2.297 . S
O3184 C3171 1.236 . S
N3185 Mn3169 2.282 . S
N3185 C3186 1.328 . S
N3185 C3190 1.318 . S
C3186 N3185 1.328 . S
C3186 C3187 1.457 . S
C3186 H3191 0.929 . S
C3187 C3186 1.457 . S
C3187 C3188 1.291 . S
C3187 H3200 0.931 . S
C3188 C3187 1.291 . S
C3188 C3189 1.373 . S
C3188 H3201 0.929 . S
C3189 C3188 1.373 . S
C3189 C3190 1.396 . S
C3189 C3196 1.403 . S
C3190 C3180 1.476 . S
C3190 N3185 1.318 . S
C3190 C3189 1.396 . S
H3191 C3186 0.929 . S
O3192 Mn3168 2.385 . S
O3192 C3170 1.234 . S
O3193 Mn3168 2.209 . S
O3193 Mn3169 2.215 . S
O3193 C3170 1.283 . S
O3194 Mn3168 2.094 . S
O3194 C3172 1.240 . S
O3195 Mn3169 2.117 . S
O3195 C3172 1.264 . S
C3196 C3189 1.403 . S
C3196 C3197 1.399 . S
C3196 H3202 0.929 . S
C3197 C3177 1.449 . S
C3197 C3196 1.399 . S
C3197 H3203 0.930 . S
H3198 C3178 0.931 . S
H3199 C3179 0.930 . S
H3200 C3187 0.931 . S
H3201 C3188 0.929 . S
H3202 C3196 0.929 . S
H3203 C3197 0.930 . S
Mn3204 O3209 2.095 . S
Mn3204 O3219 2.162 . S
Mn3204 O3220 2.297 . S
Mn3204 O3228 2.385 . S
Mn3204 O3229 2.209 . S
Mn3204 O3230 2.094 . S
Mn3205 O3210 2.121 . S
Mn3205 N3212 2.257 . S
Mn3205 N3221 2.282 . S
Mn3205 O3229 2.215 . S
Mn3205 O3231 2.117 . S
C3206 O3228 1.234 . S
C3206 O3229 1.283 . S
C3207 O3219 1.281 . S
C3207 O3220 1.236 . S
C3208 O3230 1.240 . S
C3208 O3231 1.264 . S
O3209 Mn3204 2.095 . S
O3209 C3218 1.250 . S
O3210 Mn3205 2.121 . S
O3210 C3218 1.258 . S
C3211 N3212 1.326 . S
C3211 C3215 1.460 . S
C3211 H3217 0.929 . S
N3212 Mn3205 2.257 . S
N3212 C3211 1.326 . S
N3212 C3216 1.362 . S
C3213 C3214 1.258 . S
C3213 C3216 1.431 . S
C3213 C3233 1.449 . S
C3214 C3213 1.258 . S
C3214 C3215 1.477 . S
C3214 H3234 0.931 . S
C3215 C3211 1.460 . S
C3215 C3214 1.477 . S
C3215 H3235 0.930 . S
C3216 N3212 1.362 . S
C3216 C3213 1.431 . S
C3216 C3226 1.476 . S
H3217 C3211 0.929 . S
C3218 O3209 1.250 . S
C3218 O3210 1.258 . S
O3219 Mn3204 2.162 . S
O3219 C3207 1.281 . S
O3220 Mn3204 2.297 . S
O3220 C3207 1.236 . S
N3221 Mn3205 2.282 . S
N3221 C3222 1.328 . S
N3221 C3226 1.318 . S
C3222 N3221 1.328 . S
C3222 C3223 1.457 . S
C3222 H3227 0.929 . S
C3223 C3222 1.457 . S
C3223 C3224 1.291 . S
C3223 H3236 0.931 . S
C3224 C3223 1.291 . S
C3224 C3225 1.373 . S
C3224 H3237 0.929 . S
C3225 C3224 1.373 . S
C3225 C3226 1.396 . S
C3225 C3232 1.403 . S
C3226 C3216 1.476 . S
C3226 N3221 1.318 . S
C3226 C3225 1.396 . S
H3227 C3222 0.929 . S
O3228 Mn3204 2.385 . S
O3228 C3206 1.234 . S
O3229 Mn3204 2.209 . S
O3229 Mn3205 2.215 . S
O3229 C3206 1.283 . S
O3230 Mn3204 2.094 . S
O3230 C3208 1.240 . S
O3231 Mn3205 2.117 . S
O3231 C3208 1.264 . S
C3232 C3225 1.403 . S
C3232 C3233 1.399 . S
C3232 H3238 0.929 . S
C3233 C3213 1.449 . S
C3233 C3232 1.399 . S
C3233 H3239 0.930 . S
H3234 C3214 0.931 . S
H3235 C3215 0.930 . S
H3236 C3223 0.931 . S
H3237 C3224 0.929 . S
H3238 C3232 0.929 . S
H3239 C3233 0.930 . S
Mn3240 O3245 2.095 . S
Mn3240 O3255 2.162 . S
Mn3240 O3256 2.297 . S
Mn3240 O3264 2.385 . S
Mn3240 O3265 2.209 . S
Mn3240 O3266 2.094 . S
Mn3241 O3246 2.121 . S
Mn3241 N3248 2.257 . S
Mn3241 N3257 2.282 . S
Mn3241 O3265 2.215 . S
Mn3241 O3267 2.117 . S
C3242 O3264 1.234 . S
C3242 O3265 1.283 . S
C3243 O3255 1.281 . S
C3243 O3256 1.236 . S
C3244 O3266 1.240 . S
C3244 O3267 1.264 . S
O3245 Mn3240 2.095 . S
O3245 C3254 1.250 . S
O3246 Mn3241 2.121 . S
O3246 C3254 1.258 . S
C3247 N3248 1.326 . S
C3247 C3251 1.460 . S
C3247 H3253 0.929 . S
N3248 Mn3241 2.257 . S
N3248 C3247 1.326 . S
N3248 C3252 1.362 . S
C3249 C3250 1.258 . S
C3249 C3252 1.431 . S
C3249 C3269 1.449 . S
C3250 C3249 1.258 . S
C3250 C3251 1.477 . S
C3250 H3270 0.931 . S
C3251 C3247 1.460 . S
C3251 C3250 1.477 . S
C3251 H3271 0.930 . S
C3252 N3248 1.362 . S
C3252 C3249 1.431 . S
C3252 C3262 1.476 . S
H3253 C3247 0.929 . S
C3254 O3245 1.250 . S
C3254 O3246 1.258 . S
O3255 Mn3240 2.162 . S
O3255 C3243 1.281 . S
O3256 Mn3240 2.297 . S
O3256 C3243 1.236 . S
N3257 Mn3241 2.282 . S
N3257 C3258 1.328 . S
N3257 C3262 1.318 . S
C3258 N3257 1.328 . S
C3258 C3259 1.457 . S
C3258 H3263 0.929 . S
C3259 C3258 1.457 . S
C3259 C3260 1.291 . S
C3259 H3272 0.931 . S
C3260 C3259 1.291 . S
C3260 C3261 1.373 . S
C3260 H3273 0.929 . S
C3261 C3260 1.373 . S
C3261 C3262 1.396 . S
C3261 C3268 1.403 . S
C3262 C3252 1.476 . S
C3262 N3257 1.318 . S
C3262 C3261 1.396 . S
H3263 C3258 0.929 . S
O3264 Mn3240 2.385 . S
O3264 C3242 1.234 . S
O3265 Mn3240 2.209 . S
O3265 Mn3241 2.215 . S
O3265 C3242 1.283 . S
O3266 Mn3240 2.094 . S
O3266 C3244 1.240 . S
O3267 Mn3241 2.117 . S
O3267 C3244 1.264 . S
C3268 C3261 1.403 . S
C3268 C3269 1.399 . S
C3268 H3274 0.929 . S
C3269 C3249 1.449 . S
C3269 C3268 1.399 . S
C3269 H3275 0.930 . S
H3270 C3250 0.931 . S
H3271 C3251 0.930 . S
H3272 C3259 0.931 . S
H3273 C3260 0.929 . S
H3274 C3268 0.929 . S
H3275 C3269 0.930 . S
Mn3276 O3281 2.095 . S
Mn3276 O3291 2.162 . S
Mn3276 O3292 2.297 . S
Mn3276 O3300 2.385 . S
Mn3276 O3301 2.209 . S
Mn3276 O3302 2.094 . S
Mn3277 O3282 2.121 . S
Mn3277 N3284 2.257 . S
Mn3277 N3293 2.282 . S
Mn3277 O3301 2.215 . S
Mn3277 O3303 2.117 . S
C3278 O3300 1.234 . S
C3278 O3301 1.283 . S
C3279 O3291 1.281 . S
C3279 O3292 1.236 . S
C3280 O3302 1.240 . S
C3280 O3303 1.264 . S
O3281 Mn3276 2.095 . S
O3281 C3290 1.250 . S
O3282 Mn3277 2.121 . S
O3282 C3290 1.258 . S
C3283 N3284 1.326 . S
C3283 C3287 1.460 . S
C3283 H3289 0.929 . S
N3284 Mn3277 2.257 . S
N3284 C3283 1.326 . S
N3284 C3288 1.362 . S
C3285 C3286 1.258 . S
C3285 C3288 1.431 . S
C3285 C3305 1.449 . S
C3286 C3285 1.258 . S
C3286 C3287 1.477 . S
C3286 H3306 0.931 . S
C3287 C3283 1.460 . S
C3287 C3286 1.477 . S
C3287 H3307 0.930 . S
C3288 N3284 1.362 . S
C3288 C3285 1.431 . S
C3288 C3298 1.476 . S
H3289 C3283 0.929 . S
C3290 O3281 1.250 . S
C3290 O3282 1.258 . S
O3291 Mn3276 2.162 . S
O3291 C3279 1.281 . S
O3292 Mn3276 2.297 . S
O3292 C3279 1.236 . S
N3293 Mn3277 2.282 . S
N3293 C3294 1.328 . S
N3293 C3298 1.318 . S
C3294 N3293 1.328 . S
C3294 C3295 1.457 . S
C3294 H3299 0.929 . S
C3295 C3294 1.457 . S
C3295 C3296 1.291 . S
C3295 H3308 0.931 . S
C3296 C3295 1.291 . S
C3296 C3297 1.373 . S
C3296 H3309 0.929 . S
C3297 C3296 1.373 . S
C3297 C3298 1.396 . S
C3297 C3304 1.403 . S
C3298 C3288 1.476 . S
C3298 N3293 1.318 . S
C3298 C3297 1.396 . S
H3299 C3294 0.929 . S
O3300 Mn3276 2.385 . S
O3300 C3278 1.234 . S
O3301 Mn3276 2.209 . S
O3301 Mn3277 2.215 . S
O3301 C3278 1.283 . S
O3302 Mn3276 2.094 . S
O3302 C3280 1.240 . S
O3303 Mn3277 2.117 . S
O3303 C3280 1.264 . S
C3304 C3297 1.403 . S
C3304 C3305 1.399 . S
C3304 H3310 0.929 . S
C3305 C3285 1.449 . S
C3305 C3304 1.399 . S
C3305 H3311 0.930 . S
H3306 C3286 0.931 . S
H3307 C3287 0.930 . S
H3308 C3295 0.931 . S
H3309 C3296 0.929 . S
H3310 C3304 0.929 . S
H3311 C3305 0.930 . S
Mn3312 O3317 2.095 . S
Mn3312 O3327 2.162 . S
Mn3312 O3328 2.297 . S
Mn3312 O3336 2.385 . S
Mn3312 O3337 2.209 . S
Mn3312 O3338 2.094 . S
Mn3313 O3318 2.121 . S
Mn3313 N3320 2.257 . S
Mn3313 N3329 2.282 . S
Mn3313 O3337 2.215 . S
Mn3313 O3339 2.117 . S
C3314 O3336 1.234 . S
C3314 O3337 1.283 . S
C3315 O3327 1.281 . S
C3315 O3328 1.236 . S
C3316 O3338 1.240 . S
C3316 O3339 1.264 . S
O3317 Mn3312 2.095 . S
O3317 C3326 1.250 . S
O3318 Mn3313 2.121 . S
O3318 C3326 1.258 . S
C3319 N3320 1.326 . S
C3319 C3323 1.460 . S
C3319 H3325 0.929 . S
N3320 Mn3313 2.257 . S
N3320 C3319 1.326 . S
N3320 C3324 1.362 . S
C3321 C3322 1.258 . S
C3321 C3324 1.431 . S
C3321 C3341 1.449 . S
C3322 C3321 1.258 . S
C3322 C3323 1.477 . S
C3322 H3342 0.931 . S
C3323 C3319 1.460 . S
C3323 C3322 1.477 . S
C3323 H3343 0.930 . S
C3324 N3320 1.362 . S
C3324 C3321 1.431 . S
C3324 C3334 1.476 . S
H3325 C3319 0.929 . S
C3326 O3317 1.250 . S
C3326 O3318 1.258 . S
O3327 Mn3312 2.162 . S
O3327 C3315 1.281 . S
O3328 Mn3312 2.297 . S
O3328 C3315 1.236 . S
N3329 Mn3313 2.282 . S
N3329 C3330 1.328 . S
N3329 C3334 1.318 . S
C3330 N3329 1.328 . S
C3330 C3331 1.457 . S
C3330 H3335 0.929 . S
C3331 C3330 1.457 . S
C3331 C3332 1.291 . S
C3331 H3344 0.931 . S
C3332 C3331 1.291 . S
C3332 C3333 1.373 . S
C3332 H3345 0.929 . S
C3333 C3332 1.373 . S
C3333 C3334 1.396 . S
C3333 C3340 1.403 . S
C3334 C3324 1.476 . S
C3334 N3329 1.318 . S
C3334 C3333 1.396 . S
H3335 C3330 0.929 . S
O3336 Mn3312 2.385 . S
O3336 C3314 1.234 . S
O3337 Mn3312 2.209 . S
O3337 Mn3313 2.215 . S
O3337 C3314 1.283 . S
O3338 Mn3312 2.094 . S
O3338 C3316 1.240 . S
O3339 Mn3313 2.117 . S
O3339 C3316 1.264 . S
C3340 C3333 1.403 . S
C3340 C3341 1.399 . S
C3340 H3346 0.929 . S
C3341 C3321 1.449 . S
C3341 C3340 1.399 . S
C3341 H3347 0.930 . S
H3342 C3322 0.931 . S
H3343 C3323 0.930 . S
H3344 C3331 0.931 . S
H3345 C3332 0.929 . S
H3346 C3340 0.929 . S
H3347 C3341 0.930 . S
Mn3348 O3353 2.095 . S
Mn3348 O3363 2.162 . S
Mn3348 O3364 2.297 . S
Mn3348 O3372 2.385 . S
Mn3348 O3373 2.209 . S
Mn3348 O3374 2.094 . S
Mn3349 O3354 2.121 . S
Mn3349 N3356 2.257 . S
Mn3349 N3365 2.282 . S
Mn3349 O3373 2.215 . S
Mn3349 O3375 2.117 . S
C3350 O3372 1.234 . S
C3350 O3373 1.283 . S
C3351 O3363 1.281 . S
C3351 O3364 1.236 . S
C3352 O3374 1.240 . S
C3352 O3375 1.264 . S
O3353 Mn3348 2.095 . S
O3353 C3362 1.250 . S
O3354 Mn3349 2.121 . S
O3354 C3362 1.258 . S
C3355 N3356 1.326 . S
C3355 C3359 1.460 . S
C3355 H3361 0.929 . S
N3356 Mn3349 2.257 . S
N3356 C3355 1.326 . S
N3356 C3360 1.362 . S
C3357 C3358 1.258 . S
C3357 C3360 1.431 . S
C3357 C3377 1.449 . S
C3358 C3357 1.258 . S
C3358 C3359 1.477 . S
C3358 H3378 0.931 . S
C3359 C3355 1.460 . S
C3359 C3358 1.477 . S
C3359 H3379 0.930 . S
C3360 N3356 1.362 . S
C3360 C3357 1.431 . S
C3360 C3370 1.476 . S
H3361 C3355 0.929 . S
C3362 O3353 1.250 . S
C3362 O3354 1.258 . S
O3363 Mn3348 2.162 . S
O3363 C3351 1.281 . S
O3364 Mn3348 2.297 . S
O3364 C3351 1.236 . S
N3365 Mn3349 2.282 . S
N3365 C3366 1.328 . S
N3365 C3370 1.318 . S
C3366 N3365 1.328 . S
C3366 C3367 1.457 . S
C3366 H3371 0.929 . S
C3367 C3366 1.457 . S
C3367 C3368 1.291 . S
C3367 H3380 0.931 . S
C3368 C3367 1.291 . S
C3368 C3369 1.373 . S
C3368 H3381 0.929 . S
C3369 C3368 1.373 . S
C3369 C3370 1.396 . S
C3369 C3376 1.403 . S
C3370 C3360 1.476 . S
C3370 N3365 1.318 . S
C3370 C3369 1.396 . S
H3371 C3366 0.929 . S
O3372 Mn3348 2.385 . S
O3372 C3350 1.234 . S
O3373 Mn3348 2.209 . S
O3373 Mn3349 2.215 . S
O3373 C3350 1.283 . S
O3374 Mn3348 2.094 . S
O3374 C3352 1.240 . S
O3375 Mn3349 2.117 . S
O3375 C3352 1.264 . S
C3376 C3369 1.403 . S
C3376 C3377 1.399 . S
C3376 H3382 0.929 . S
C3377 C3357 1.449 . S
C3377 C3376 1.399 . S
C3377 H3383 0.930 . S
H3378 C3358 0.931 . S
H3379 C3359 0.930 . S
H3380 C3367 0.931 . S
H3381 C3368 0.929 . S
H3382 C3376 0.929 . S
H3383 C3377 0.930 . S
Mn3384 O3389 2.095 . S
Mn3384 O3399 2.162 . S
Mn3384 O3400 2.297 . S
Mn3384 O3408 2.385 . S
Mn3384 O3409 2.209 . S
Mn3384 O3410 2.094 . S
Mn3385 O3390 2.121 . S
Mn3385 N3392 2.257 . S
Mn3385 N3401 2.282 . S
Mn3385 O3409 2.215 . S
Mn3385 O3411 2.117 . S
C3386 O3408 1.234 . S
C3386 O3409 1.283 . S
C3387 O3399 1.281 . S
C3387 O3400 1.236 . S
C3388 O3410 1.240 . S
C3388 O3411 1.264 . S
O3389 Mn3384 2.095 . S
O3389 C3398 1.250 . S
O3390 Mn3385 2.121 . S
O3390 C3398 1.258 . S
C3391 N3392 1.326 . S
C3391 C3395 1.460 . S
C3391 H3397 0.929 . S
N3392 Mn3385 2.257 . S
N3392 C3391 1.326 . S
N3392 C3396 1.362 . S
C3393 C3394 1.258 . S
C3393 C3396 1.431 . S
C3393 C3413 1.449 . S
C3394 C3393 1.258 . S
C3394 C3395 1.477 . S
C3394 H3414 0.931 . S
C3395 C3391 1.460 . S
C3395 C3394 1.477 . S
C3395 H3415 0.930 . S
C3396 N3392 1.362 . S
C3396 C3393 1.431 . S
C3396 C3406 1.476 . S
H3397 C3391 0.929 . S
C3398 O3389 1.250 . S
C3398 O3390 1.258 . S
O3399 Mn3384 2.162 . S
O3399 C3387 1.281 . S
O3400 Mn3384 2.297 . S
O3400 C3387 1.236 . S
N3401 Mn3385 2.282 . S
N3401 C3402 1.328 . S
N3401 C3406 1.318 . S
C3402 N3401 1.328 . S
C3402 C3403 1.457 . S
C3402 H3407 0.929 . S
C3403 C3402 1.457 . S
C3403 C3404 1.291 . S
C3403 H3416 0.931 . S
C3404 C3403 1.291 . S
C3404 C3405 1.373 . S
C3404 H3417 0.929 . S
C3405 C3404 1.373 . S
C3405 C3406 1.396 . S
C3405 C3412 1.403 . S
C3406 C3396 1.476 . S
C3406 N3401 1.318 . S
C3406 C3405 1.396 . S
H3407 C3402 0.929 . S
O3408 Mn3384 2.385 . S
O3408 C3386 1.234 . S
O3409 Mn3384 2.209 . S
O3409 Mn3385 2.215 . S
O3409 C3386 1.283 . S
O3410 Mn3384 2.094 . S
O3410 C3388 1.240 . S
O3411 Mn3385 2.117 . S
O3411 C3388 1.264 . S
C3412 C3405 1.403 . S
C3412 C3413 1.399 . S
C3412 H3418 0.929 . S
C3413 C3393 1.449 . S
C3413 C3412 1.399 . S
C3413 H3419 0.930 . S
H3414 C3394 0.931 . S
H3415 C3395 0.930 . S
H3416 C3403 0.931 . S
H3417 C3404 0.929 . S
H3418 C3412 0.929 . S
H3419 C3413 0.930 . S
Mn3420 O3425 2.095 . S
Mn3420 O3435 2.162 . S
Mn3420 O3436 2.297 . S
Mn3420 O3444 2.385 . S
Mn3420 O3445 2.209 . S
Mn3420 O3446 2.094 . S
Mn3421 O3426 2.121 . S
Mn3421 N3428 2.257 . S
Mn3421 N3437 2.282 . S
Mn3421 O3445 2.215 . S
Mn3421 O3447 2.117 . S
C3422 O3444 1.234 . S
C3422 O3445 1.283 . S
C3423 O3435 1.281 . S
C3423 O3436 1.236 . S
C3424 O3446 1.240 . S
C3424 O3447 1.264 . S
O3425 Mn3420 2.095 . S
O3425 C3434 1.250 . S
O3426 Mn3421 2.121 . S
O3426 C3434 1.258 . S
C3427 N3428 1.326 . S
C3427 C3431 1.460 . S
C3427 H3433 0.929 . S
N3428 Mn3421 2.257 . S
N3428 C3427 1.326 . S
N3428 C3432 1.362 . S
C3429 C3430 1.258 . S
C3429 C3432 1.431 . S
C3429 C3449 1.449 . S
C3430 C3429 1.258 . S
C3430 C3431 1.477 . S
C3430 H3450 0.931 . S
C3431 C3427 1.460 . S
C3431 C3430 1.477 . S
C3431 H3451 0.930 . S
C3432 N3428 1.362 . S
C3432 C3429 1.431 . S
C3432 C3442 1.476 . S
H3433 C3427 0.929 . S
C3434 O3425 1.250 . S
C3434 O3426 1.258 . S
O3435 Mn3420 2.162 . S
O3435 C3423 1.281 . S
O3436 Mn3420 2.297 . S
O3436 C3423 1.236 . S
N3437 Mn3421 2.282 . S
N3437 C3438 1.328 . S
N3437 C3442 1.318 . S
C3438 N3437 1.328 . S
C3438 C3439 1.457 . S
C3438 H3443 0.929 . S
C3439 C3438 1.457 . S
C3439 C3440 1.291 . S
C3439 H3452 0.931 . S
C3440 C3439 1.291 . S
C3440 C3441 1.373 . S
C3440 H3453 0.929 . S
C3441 C3440 1.373 . S
C3441 C3442 1.396 . S
C3441 C3448 1.403 . S
C3442 C3432 1.476 . S
C3442 N3437 1.318 . S
C3442 C3441 1.396 . S
H3443 C3438 0.929 . S
O3444 Mn3420 2.385 . S
O3444 C3422 1.234 . S
O3445 Mn3420 2.209 . S
O3445 Mn3421 2.215 . S
O3445 C3422 1.283 . S
O3446 Mn3420 2.094 . S
O3446 C3424 1.240 . S
O3447 Mn3421 2.117 . S
O3447 C3424 1.264 . S
C3448 C3441 1.403 . S
C3448 C3449 1.399 . S
C3448 H3454 0.929 . S
C3449 C3429 1.449 . S
C3449 C3448 1.399 . S
C3449 H3455 0.930 . S
H3450 C3430 0.931 . S
H3451 C3431 0.930 . S
H3452 C3439 0.931 . S
H3453 C3440 0.929 . S
H3454 C3448 0.929 . S
H3455 C3449 0.930 . S
H3456 C3464 0.950 . S
H3457 C3469 0.950 . S
H3458 C3466 0.950 . S
H3459 C3468 0.950 . S
H3460 C3470 0.950 . S
H3461 C3472 0.950 . S
H3462 C3474 0.950 . S
H3463 C3475 0.950 . S
C3464 H3456 0.950 . S
C3464 C3465 1.386 . S
C3464 C3466 1.391 . S
C3465 C3464 1.386 . S
C3465 C3469 1.393 . S
C3466 H3458 0.950 . S
C3466 C3464 1.391 . S
C3466 C3467 1.400 . S
C3467 C3466 1.400 . S
C3467 C3468 1.398 . S
C3467 C3473 1.491 . S
C3468 H3459 0.950 . S
C3468 C3467 1.398 . S
C3468 C3469 1.391 . S
C3469 H3457 0.950 . S
C3469 C3465 1.393 . S
C3469 C3468 1.391 . S
C3470 H3460 0.950 . S
C3470 C3471 1.386 . S
C3470 C3472 1.391 . S
C3471 C3470 1.386 . S
C3471 C3475 1.393 . S
C3472 H3461 0.950 . S
C3472 C3470 1.391 . S
C3472 C3473 1.400 . S
C3473 C3467 1.491 . S
C3473 C3472 1.400 . S
C3473 C3474 1.398 . S
C3474 H3462 0.950 . S
C3474 C3473 1.398 . S
C3474 C3475 1.391 . S
C3475 H3463 0.950 . S
C3475 C3471 1.393 . S
C3475 C3474 1.391 . S
H3476 C3484 0.950 . S
H3477 C3489 0.950 . S
H3478 C3486 0.950 . S
H3479 C3488 0.950 . S
H3480 C3490 0.950 . S
H3481 C3492 0.950 . S
H3482 C3494 0.950 . S
H3483 C3495 0.950 . S
C3484 H3476 0.950 . S
C3484 C3485 1.386 . S
C3484 C3486 1.391 1_655 S
C3485 C3484 1.386 . S
C3485 C3489 1.393 . S
C3486 H3478 0.950 . S
C3486 C3484 1.391 1_455 S
C3486 C3487 1.400 . S
C3487 C3486 1.400 . S
C3487 C3488 1.398 1_455 S
C3487 C3493 1.491 . S
C3488 H3479 0.950 . S
C3488 C3487 1.398 1_655 S
C3488 C3489 1.391 . S
C3489 H3477 0.950 . S
C3489 C3485 1.393 . S
C3489 C3488 1.391 . S
C3490 H3480 0.950 . S
C3490 C3491 1.386 . S
C3490 C3492 1.391 . S
C3491 C3490 1.386 . S
C3491 C3495 1.393 . S
C3492 H3481 0.950 . S
C3492 C3490 1.391 . S
C3492 C3493 1.400 . S
C3493 C3487 1.491 . S
C3493 C3492 1.400 . S
C3493 C3494 1.398 . S
C3494 H3482 0.950 . S
C3494 C3493 1.398 . S
C3494 C3495 1.391 . S
C3495 H3483 0.950 . S
C3495 C3491 1.393 . S
C3495 C3494 1.391 . S
H3496 C3504 0.950 . S
H3497 C3509 0.950 . S
H3498 C3506 0.950 . S
H3499 C3508 0.950 . S
H3500 C3510 0.950 . S
H3501 C3512 0.950 . S
H3502 C3514 0.950 . S
H3503 C3515 0.950 . S
C3504 H3496 0.950 . S
C3504 C3505 1.386 . S
C3504 C3506 1.391 . S
C3505 C3504 1.386 . S
C3505 C3509 1.393 . S
C3506 H3498 0.950 . S
C3506 C3504 1.391 . S
C3506 C3507 1.400 . S
C3507 C3506 1.400 . S
C3507 C3508 1.398 . S
C3507 C3513 1.491 . S
C3508 H3499 0.950 . S
C3508 C3507 1.398 . S
C3508 C3509 1.391 . S
C3509 H3497 0.950 . S
C3509 C3505 1.393 . S
C3509 C3508 1.391 . S
C3510 H3500 0.950 . S
C3510 C3511 1.386 . S
C3510 C3512 1.391 . S
C3511 C3510 1.386 . S
C3511 C3515 1.393 . S
C3512 H3501 0.950 . S
C3512 C3510 1.391 . S
C3512 C3513 1.400 . S
C3513 C3507 1.491 . S
C3513 C3512 1.400 . S
C3513 C3514 1.398 . S
C3514 H3502 0.950 . S
C3514 C3513 1.398 . S
C3514 C3515 1.391 . S
C3515 H3503 0.950 . S
C3515 C3511 1.393 . S
C3515 C3514 1.391 . S
H3516 C3524 0.950 . S
H3517 C3529 0.950 . S
H3518 C3526 0.950 . S
H3519 C3528 0.950 . S
H3520 C3530 0.950 . S
H3521 C3532 0.950 . S
H3522 C3534 0.950 . S
H3523 C3535 0.950 . S
C3524 H3516 0.950 . S
C3524 C3525 1.386 . S
C3524 C3526 1.391 . S
C3525 C3524 1.386 . S
C3525 C3529 1.393 . S
C3526 H3518 0.950 . S
C3526 C3524 1.391 . S
C3526 C3527 1.400 . S
C3527 C3526 1.400 . S
C3527 C3528 1.398 . S
C3527 C3533 1.491 . S
C3528 H3519 0.950 . S
C3528 C3527 1.398 . S
C3528 C3529 1.391 . S
C3529 H3517 0.950 . S
C3529 C3525 1.393 . S
C3529 C3528 1.391 . S
C3530 H3520 0.950 . S
C3530 C3531 1.386 . S
C3530 C3532 1.391 . S
C3531 C3530 1.386 . S
C3531 C3535 1.393 . S
C3532 H3521 0.950 . S
C3532 C3530 1.391 . S
C3532 C3533 1.400 . S
C3533 C3527 1.491 . S
C3533 C3532 1.400 . S
C3533 C3534 1.398 . S
C3534 H3522 0.950 . S
C3534 C3533 1.398 . S
C3534 C3535 1.391 . S
C3535 H3523 0.950 . S
C3535 C3531 1.393 . S
C3535 C3534 1.391 . S
H3536 C3544 0.950 . S
H3537 C3549 0.950 . S
H3538 C3546 0.950 . S
H3539 C3548 0.950 . S
H3540 C3550 0.950 . S
H3541 C3552 0.950 . S
H3542 C3554 0.950 . S
H3543 C3555 0.950 . S
C3544 H3536 0.950 . S
C3544 C3545 1.386 . S
C3544 C3546 1.391 . S
C3545 C3544 1.386 . S
C3545 C3549 1.393 . S
C3546 H3538 0.950 . S
C3546 C3544 1.391 . S
C3546 C3547 1.400 . S
C3547 C3546 1.400 . S
C3547 C3548 1.398 . S
C3547 C3553 1.491 . S
C3548 H3539 0.950 . S
C3548 C3547 1.398 . S
C3548 C3549 1.391 . S
C3549 H3537 0.950 . S
C3549 C3545 1.393 . S
C3549 C3548 1.391 . S
C3550 H3540 0.950 . S
C3550 C3551 1.386 . S
C3550 C3552 1.391 . S
C3551 C3550 1.386 . S
C3551 C3555 1.393 . S
C3552 H3541 0.950 . S
C3552 C3550 1.391 . S
C3552 C3553 1.400 . S
C3553 C3547 1.491 . S
C3553 C3552 1.400 . S
C3553 C3554 1.398 . S
C3554 H3542 0.950 . S
C3554 C3553 1.398 . S
C3554 C3555 1.391 . S
C3555 H3543 0.950 . S
C3555 C3551 1.393 . S
C3555 C3554 1.391 . S
H3556 C3564 0.950 . S
H3557 C3569 0.950 . S
H3558 C3566 0.950 . S
H3559 C3568 0.950 . S
H3560 C3570 0.950 . S
H3561 C3572 0.950 . S
H3562 C3574 0.950 . S
H3563 C3575 0.950 . S
C3564 H3556 0.950 . S
C3564 C3565 1.386 . S
C3564 C3566 1.391 . S
C3565 C3564 1.386 . S
C3565 C3569 1.393 . S
C3566 H3558 0.950 . S
C3566 C3564 1.391 . S
C3566 C3567 1.400 . S
C3567 C3566 1.400 . S
C3567 C3568 1.398 . S
C3567 C3573 1.491 . S
C3568 H3559 0.950 . S
C3568 C3567 1.398 . S
C3568 C3569 1.391 . S
C3569 H3557 0.950 . S
C3569 C3565 1.393 . S
C3569 C3568 1.391 . S
C3570 H3560 0.950 . S
C3570 C3571 1.386 . S
C3570 C3572 1.391 . S
C3571 C3570 1.386 . S
C3571 C3575 1.393 . S
C3572 H3561 0.950 . S
C3572 C3570 1.391 . S
C3572 C3573 1.400 . S
C3573 C3567 1.491 . S
C3573 C3572 1.400 . S
C3573 C3574 1.398 . S
C3574 H3562 0.950 . S
C3574 C3573 1.398 . S
C3574 C3575 1.391 . S
C3575 H3563 0.950 . S
C3575 C3571 1.393 . S
C3575 C3574 1.391 . S
H3576 C3584 0.950 . S
H3577 C3589 0.950 . S
H3578 C3586 0.950 . S
H3579 C3588 0.950 . S
H3580 C3590 0.950 . S
H3581 C3592 0.950 . S
H3582 C3594 0.950 . S
H3583 C3595 0.950 . S
C3584 H3576 0.950 . S
C3584 C3585 1.386 . S
C3584 C3586 1.391 . S
C3585 C3584 1.386 . S
C3585 C3589 1.393 . S
C3586 H3578 0.950 . S
C3586 C3584 1.391 . S
C3586 C3587 1.400 . S
C3587 C3586 1.400 . S
C3587 C3588 1.398 . S
C3587 C3593 1.491 . S
C3588 H3579 0.950 . S
C3588 C3587 1.398 . S
C3588 C3589 1.391 . S
C3589 H3577 0.950 . S
C3589 C3585 1.393 . S
C3589 C3588 1.391 . S
C3590 H3580 0.950 . S
C3590 C3591 1.386 . S
C3590 C3592 1.391 . S
C3591 C3590 1.386 . S
C3591 C3595 1.393 . S
C3592 H3581 0.950 . S
C3592 C3590 1.391 . S
C3592 C3593 1.400 . S
C3593 C3587 1.491 . S
C3593 C3592 1.400 . S
C3593 C3594 1.398 . S
C3594 H3582 0.950 . S
C3594 C3593 1.398 . S
C3594 C3595 1.391 . S
C3595 H3583 0.950 . S
C3595 C3591 1.393 . S
C3595 C3594 1.391 . S
H3596 C3604 0.950 . S
H3597 C3609 0.950 . S
H3598 C3606 0.950 . S
H3599 C3608 0.950 . S
H3600 C3610 0.950 . S
H3601 C3612 0.950 . S
H3602 C3614 0.950 . S
H3603 C3615 0.950 . S
C3604 H3596 0.950 . S
C3604 C3605 1.386 . S
C3604 C3606 1.391 . S
C3605 C3604 1.386 . S
C3605 C3609 1.393 . S
C3606 H3598 0.950 . S
C3606 C3604 1.391 . S
C3606 C3607 1.400 . S
C3607 C3606 1.400 . S
C3607 C3608 1.398 . S
C3607 C3613 1.491 . S
C3608 H3599 0.950 . S
C3608 C3607 1.398 . S
C3608 C3609 1.391 . S
C3609 H3597 0.950 . S
C3609 C3605 1.393 . S
C3609 C3608 1.391 . S
C3610 H3600 0.950 . S
C3610 C3611 1.386 . S
C3610 C3612 1.391 1_655 S
C3611 C3610 1.386 . S
C3611 C3615 1.393 . S
C3612 H3601 0.950 . S
C3612 C3610 1.391 1_455 S
C3612 C3613 1.400 . S
C3613 C3607 1.491 . S
C3613 C3612 1.400 . S
C3613 C3614 1.398 1_455 S
C3614 H3602 0.950 . S
C3614 C3613 1.398 1_655 S
C3614 C3615 1.391 . S
C3615 H3603 0.950 . S
C3615 C3611 1.393 . S
C3615 C3614 1.391 . S
H3616 C3624 0.950 . S
H3617 C3629 0.950 . S
H3618 C3626 0.950 . S
H3619 C3628 0.950 . S
H3620 C3630 0.950 . S
H3621 C3632 0.950 . S
H3622 C3634 0.950 . S
H3623 C3635 0.950 . S
C3624 H3616 0.950 . S
C3624 C3625 1.386 . S
C3624 C3626 1.391 . S
C3625 C3624 1.386 . S
C3625 C3629 1.393 . S
C3626 H3618 0.950 . S
C3626 C3624 1.391 . S
C3626 C3627 1.400 . S
C3627 C3626 1.400 . S
C3627 C3628 1.398 . S
C3627 C3633 1.491 . S
C3628 H3619 0.950 . S
C3628 C3627 1.398 . S
C3628 C3629 1.391 . S
C3629 H3617 0.950 . S
C3629 C3625 1.393 . S
C3629 C3628 1.391 . S
C3630 H3620 0.950 . S
C3630 C3631 1.386 . S
C3630 C3632 1.391 . S
C3631 C3630 1.386 . S
C3631 C3635 1.393 . S
C3632 H3621 0.950 . S
C3632 C3630 1.391 . S
C3632 C3633 1.400 . S
C3633 C3627 1.491 . S
C3633 C3632 1.400 . S
C3633 C3634 1.398 . S
C3634 H3622 0.950 . S
C3634 C3633 1.398 . S
C3634 C3635 1.391 . S
C3635 H3623 0.950 . S
C3635 C3631 1.393 . S
C3635 C3634 1.391 . S
H3636 C3644 0.950 . S
H3637 C3649 0.950 . S
H3638 C3646 0.950 . S
H3639 C3648 0.950 . S
H3640 C3650 0.950 . S
H3641 C3652 0.950 . S
H3642 C3654 0.950 . S
H3643 C3655 0.950 . S
C3644 H3636 0.950 . S
C3644 C3645 1.386 . S
C3644 C3646 1.391 . S
C3645 C3644 1.386 . S
C3645 C3649 1.393 . S
C3646 H3638 0.950 . S
C3646 C3644 1.391 . S
C3646 C3647 1.400 . S
C3647 C3646 1.400 . S
C3647 C3648 1.398 . S
C3647 C3653 1.491 . S
C3648 H3639 0.950 . S
C3648 C3647 1.398 . S
C3648 C3649 1.391 . S
C3649 H3637 0.950 . S
C3649 C3645 1.393 . S
C3649 C3648 1.391 . S
C3650 H3640 0.950 . S
C3650 C3651 1.386 . S
C3650 C3652 1.391 . S
C3651 C3650 1.386 . S
C3651 C3655 1.393 . S
C3652 H3641 0.950 . S
C3652 C3650 1.391 . S
C3652 C3653 1.400 . S
C3653 C3647 1.491 . S
C3653 C3652 1.400 . S
C3653 C3654 1.398 . S
C3654 H3642 0.950 . S
C3654 C3653 1.398 . S
C3654 C3655 1.391 . S
C3655 H3643 0.950 . S
C3655 C3651 1.393 . S
C3655 C3654 1.391 . S
H3656 C3664 0.950 . S
H3657 C3669 0.950 . S
H3658 C3666 0.950 . S
H3659 C3668 0.950 . S
H3660 C3670 0.950 . S
H3661 C3672 0.950 . S
H3662 C3674 0.950 . S
H3663 C3675 0.950 . S
C3664 H3656 0.950 . S
C3664 C3665 1.386 . S
C3664 C3666 1.391 . S
C3665 C3664 1.386 . S
C3665 C3669 1.393 . S
C3666 H3658 0.950 . S
C3666 C3664 1.391 . S
C3666 C3667 1.400 . S
C3667 C3666 1.400 . S
C3667 C3668 1.398 . S
C3667 C3673 1.491 . S
C3668 H3659 0.950 . S
C3668 C3667 1.398 . S
C3668 C3669 1.391 . S
C3669 H3657 0.950 . S
C3669 C3665 1.393 . S
C3669 C3668 1.391 . S
C3670 H3660 0.950 . S
C3670 C3671 1.386 . S
C3670 C3672 1.391 . S
C3671 C3670 1.386 . S
C3671 C3675 1.393 . S
C3672 H3661 0.950 . S
C3672 C3670 1.391 . S
C3672 C3673 1.400 . S
C3673 C3667 1.491 . S
C3673 C3672 1.400 . S
C3673 C3674 1.398 . S
C3674 H3662 0.950 . S
C3674 C3673 1.398 . S
C3674 C3675 1.391 . S
C3675 H3663 0.950 . S
C3675 C3671 1.393 . S
C3675 C3674 1.391 . S
H3676 C3684 0.950 . S
H3677 C3689 0.950 . S
H3678 C3686 0.950 . S
H3679 C3688 0.950 . S
H3680 C3690 0.950 1_556 S
H3681 C3692 0.950 . S
H3682 C3694 0.950 . S
H3683 C3695 0.950 . S
C3684 H3676 0.950 . S
C3684 C3685 1.386 . S
C3684 C3686 1.391 . S
C3685 C3684 1.386 . S
C3685 C3689 1.393 . S
C3686 H3678 0.950 . S
C3686 C3684 1.391 . S
C3686 C3687 1.400 . S
C3687 C3686 1.400 . S
C3687 C3688 1.398 . S
C3687 C3693 1.491 . S
C3688 H3679 0.950 . S
C3688 C3687 1.398 . S
C3688 C3689 1.391 . S
C3689 H3677 0.950 . S
C3689 C3685 1.393 . S
C3689 C3688 1.391 . S
C3690 H3680 0.950 1_554 S
C3690 C3691 1.386 . S
C3690 C3692 1.391 1_554 S
C3691 C3690 1.386 . S
C3691 C3695 1.393 . S
C3692 H3681 0.950 . S
C3692 C3690 1.391 1_556 S
C3692 C3693 1.400 . S
C3693 C3687 1.491 . S
C3693 C3692 1.400 . S
C3693 C3694 1.398 1_556 S
C3694 H3682 0.950 . S
C3694 C3693 1.398 1_554 S
C3694 C3695 1.391 . S
C3695 H3683 0.950 . S
C3695 C3691 1.393 . S
C3695 C3694 1.391 . S
H3696 C3704 0.950 . S
H3697 C3709 0.950 . S
H3698 C3706 0.950 . S
H3699 C3708 0.950 . S
H3700 C3710 0.950 . S
H3701 C3712 0.950 . S
H3702 C3714 0.950 . S
H3703 C3715 0.950 . S
C3704 H3696 0.950 . S
C3704 C3705 1.386 . S
C3704 C3706 1.391 . S
C3705 C3704 1.386 . S
C3705 C3709 1.393 . S
C3706 H3698 0.950 . S
C3706 C3704 1.391 . S
C3706 C3707 1.400 . S
C3707 C3706 1.400 . S
C3707 C3708 1.398 . S
C3707 C3713 1.491 . S
C3708 H3699 0.950 . S
C3708 C3707 1.398 . S
C3708 C3709 1.391 . S
C3709 H3697 0.950 . S
C3709 C3705 1.393 . S
C3709 C3708 1.391 . S
C3710 H3700 0.950 . S
C3710 C3711 1.386 . S
C3710 C3712 1.391 . S
C3711 C3710 1.386 . S
C3711 C3715 1.393 . S
C3712 H3701 0.950 . S
C3712 C3710 1.391 . S
C3712 C3713 1.400 . S
C3713 C3707 1.491 . S
C3713 C3712 1.400 . S
C3713 C3714 1.398 . S
C3714 H3702 0.950 . S
C3714 C3713 1.398 . S
C3714 C3715 1.391 . S
C3715 H3703 0.950 . S
C3715 C3711 1.393 . S
C3715 C3714 1.391 . S
H3716 C3724 0.950 . S
H3717 C3729 0.950 . S
H3718 C3726 0.950 . S
H3719 C3728 0.950 . S
H3720 C3730 0.950 . S
H3721 C3732 0.950 . S
H3722 C3734 0.950 . S
H3723 C3735 0.950 . S
C3724 H3716 0.950 . S
C3724 C3725 1.386 . S
C3724 C3726 1.391 . S
C3725 C3724 1.386 . S
C3725 C3729 1.393 . S
C3726 H3718 0.950 . S
C3726 C3724 1.391 . S
C3726 C3727 1.400 . S
C3727 C3726 1.400 . S
C3727 C3728 1.398 . S
C3727 C3733 1.491 . S
C3728 H3719 0.950 . S
C3728 C3727 1.398 . S
C3728 C3729 1.391 . S
C3729 H3717 0.950 . S
C3729 C3725 1.393 . S
C3729 C3728 1.391 . S
C3730 H3720 0.950 . S
C3730 C3731 1.386 . S
C3730 C3732 1.391 . S
C3731 C3730 1.386 . S
C3731 C3735 1.393 . S
C3732 H3721 0.950 . S
C3732 C3730 1.391 . S
C3732 C3733 1.400 . S
C3733 C3727 1.491 . S
C3733 C3732 1.400 . S
C3733 C3734 1.398 . S
C3734 H3722 0.950 . S
C3734 C3733 1.398 . S
C3734 C3735 1.391 . S
C3735 H3723 0.950 . S
C3735 C3731 1.393 . S
C3735 C3734 1.391 . S
H3736 C3744 0.950 . S
H3737 C3749 0.950 . S
H3738 C3746 0.950 . S
H3739 C3748 0.950 . S
H3740 C3750 0.950 . S
H3741 C3752 0.950 . S
H3742 C3754 0.950 . S
H3743 C3755 0.950 . S
C3744 H3736 0.950 . S
C3744 C3745 1.386 . S
C3744 C3746 1.391 . S
C3745 C3744 1.386 . S
C3745 C3749 1.393 . S
C3746 H3738 0.950 . S
C3746 C3744 1.391 . S
C3746 C3747 1.400 . S
C3747 C3746 1.400 . S
C3747 C3748 1.398 . S
C3747 C3753 1.491 . S
C3748 H3739 0.950 . S
C3748 C3747 1.398 . S
C3748 C3749 1.391 . S
C3749 H3737 0.950 . S
C3749 C3745 1.393 . S
C3749 C3748 1.391 . S
C3750 H3740 0.950 . S
C3750 C3751 1.386 . S
C3750 C3752 1.391 . S
C3751 C3750 1.386 . S
C3751 C3755 1.393 . S
C3752 H3741 0.950 . S
C3752 C3750 1.391 . S
C3752 C3753 1.400 . S
C3753 C3747 1.491 . S
C3753 C3752 1.400 . S
C3753 C3754 1.398 . S
C3754 H3742 0.950 . S
C3754 C3753 1.398 . S
C3754 C3755 1.391 . S
C3755 H3743 0.950 . S
C3755 C3751 1.393 . S
C3755 C3754 1.391 . S
H3756 C3764 0.950 . S
H3757 C3769 0.950 . S
H3758 C3766 0.950 . S
H3759 C3768 0.950 . S
H3760 C3770 0.950 . S
H3761 C3772 0.950 . S
H3762 C3774 0.950 . S
H3763 C3775 0.950 . S
C3764 H3756 0.950 . S
C3764 C3765 1.386 . S
C3764 C3766 1.391 . S
C3765 C3764 1.386 . S
C3765 C3769 1.393 . S
C3766 H3758 0.950 . S
C3766 C3764 1.391 . S
C3766 C3767 1.400 . S
C3767 C3766 1.400 . S
C3767 C3768 1.398 . S
C3767 C3773 1.491 . S
C3768 H3759 0.950 . S
C3768 C3767 1.398 . S
C3768 C3769 1.391 . S
C3769 H3757 0.950 . S
C3769 C3765 1.393 . S
C3769 C3768 1.391 . S
C3770 H3760 0.950 . S
C3770 C3771 1.386 . S
C3770 C3772 1.391 . S
C3771 C3770 1.386 . S
C3771 C3775 1.393 . S
C3772 H3761 0.950 . S
C3772 C3770 1.391 . S
C3772 C3773 1.400 1_556 S
C3773 C3767 1.491 . S
C3773 C3772 1.400 1_554 S
C3773 C3774 1.398 . S
C3774 H3762 0.950 . S
C3774 C3773 1.398 . S
C3774 C3775 1.391 1_554 S
C3775 H3763 0.950 . S
C3775 C3771 1.393 . S
C3775 C3774 1.391 1_556 S
H3776 C3784 0.950 . S
H3777 C3789 0.950 . S
H3778 C3786 0.950 . S
H3779 C3788 0.950 . S
H3780 C3790 0.950 . S
H3781 C3792 0.950 . S
H3782 C3794 0.950 . S
H3783 C3795 0.950 . S
C3784 H3776 0.950 . S
C3784 C3785 1.386 . S
C3784 C3786 1.391 . S
C3785 C3784 1.386 . S
C3785 C3789 1.393 . S
C3786 H3778 0.950 . S
C3786 C3784 1.391 . S
C3786 C3787 1.400 . S
C3787 C3786 1.400 . S
C3787 C3788 1.398 . S
C3787 C3793 1.491 . S
C3788 H3779 0.950 . S
C3788 C3787 1.398 . S
C3788 C3789 1.391 . S
C3789 H3777 0.950 . S
C3789 C3785 1.393 . S
C3789 C3788 1.391 . S
C3790 H3780 0.950 . S
C3790 C3791 1.386 . S
C3790 C3792 1.391 . S
C3791 C3790 1.386 . S
C3791 C3795 1.393 . S
C3792 H3781 0.950 . S
C3792 C3790 1.391 . S
C3792 C3793 1.400 . S
C3793 C3787 1.491 . S
C3793 C3792 1.400 . S
C3793 C3794 1.398 . S
C3794 H3782 0.950 . S
C3794 C3793 1.398 . S
C3794 C3795 1.391 . S
C3795 H3783 0.950 . S
C3795 C3791 1.393 . S
C3795 C3794 1.391 . S
H3796 C3804 0.950 . S
H3797 C3809 0.950 . S
H3798 C3806 0.950 . S
H3799 C3808 0.950 . S
H3800 C3810 0.950 . S
H3801 C3812 0.950 . S
H3802 C3814 0.950 . S
H3803 C3815 0.950 . S
C3804 H3796 0.950 . S
C3804 C3805 1.386 . S
C3804 C3806 1.391 . S
C3805 C3804 1.386 . S
C3805 C3809 1.393 . S
C3806 H3798 0.950 . S
C3806 C3804 1.391 . S
C3806 C3807 1.400 . S
C3807 C3806 1.400 . S
C3807 C3808 1.398 . S
C3807 C3813 1.491 . S
C3808 H3799 0.950 . S
C3808 C3807 1.398 . S
C3808 C3809 1.391 . S
C3809 H3797 0.950 . S
C3809 C3805 1.393 . S
C3809 C3808 1.391 . S
C3810 H3800 0.950 . S
C3810 C3811 1.386 . S
C3810 C3812 1.391 . S
C3811 C3810 1.386 . S
C3811 C3815 1.393 . S
C3812 H3801 0.950 . S
C3812 C3810 1.391 . S
C3812 C3813 1.400 . S
C3813 C3807 1.491 . S
C3813 C3812 1.400 . S
C3813 C3814 1.398 . S
C3814 H3802 0.950 . S
C3814 C3813 1.398 . S
C3814 C3815 1.391 . S
C3815 H3803 0.950 . S
C3815 C3811 1.393 . S
C3815 C3814 1.391 . S
H3816 C3824 0.950 . S
H3817 C3829 0.950 . S
H3818 C3826 0.950 . S
H3819 C3828 0.950 . S
H3820 C3830 0.950 . S
H3821 C3832 0.950 . S
H3822 C3834 0.950 . S
H3823 C3835 0.950 . S
C3824 H3816 0.950 . S
C3824 C3825 1.386 . S
C3824 C3826 1.391 . S
C3825 C3824 1.386 . S
C3825 C3829 1.393 . S
C3826 H3818 0.950 . S
C3826 C3824 1.391 . S
C3826 C3827 1.400 . S
C3827 C3826 1.400 . S
C3827 C3828 1.398 . S
C3827 C3833 1.491 . S
C3828 H3819 0.950 . S
C3828 C3827 1.398 . S
C3828 C3829 1.391 . S
C3829 H3817 0.950 . S
C3829 C3825 1.393 . S
C3829 C3828 1.391 . S
C3830 H3820 0.950 . S
C3830 C3831 1.386 . S
C3830 C3832 1.391 . S
C3831 C3830 1.386 . S
C3831 C3835 1.393 . S
C3832 H3821 0.950 . S
C3832 C3830 1.391 . S
C3832 C3833 1.400 . S
C3833 C3827 1.491 . S
C3833 C3832 1.400 . S
C3833 C3834 1.398 . S
C3834 H3822 0.950 . S
C3834 C3833 1.398 . S
C3834 C3835 1.391 . S
C3835 H3823 0.950 . S
C3835 C3831 1.393 . S
C3835 C3834 1.391 . S
H3836 C3844 0.950 . S
H3837 C3849 0.950 . S
H3838 C3846 0.950 . S
H3839 C3848 0.950 . S
H3840 C3850 0.950 . S
H3841 C3852 0.950 . S
H3842 C3854 0.950 . S
H3843 C3855 0.950 . S
C3844 H3836 0.950 . S
C3844 C3845 1.386 . S
C3844 C3846 1.391 . S
C3845 C3844 1.386 . S
C3845 C3849 1.393 . S
C3846 H3838 0.950 . S
C3846 C3844 1.391 . S
C3846 C3847 1.400 . S
C3847 C3846 1.400 . S
C3847 C3848 1.398 . S
C3847 C3853 1.491 . S
C3848 H3839 0.950 . S
C3848 C3847 1.398 . S
C3848 C3849 1.391 . S
C3849 H3837 0.950 . S
C3849 C3845 1.393 . S
C3849 C3848 1.391 . S
C3850 H3840 0.950 . S
C3850 C3851 1.386 . S
C3850 C3852 1.391 . S
C3851 C3850 1.386 . S
C3851 C3855 1.393 . S
C3852 H3841 0.950 . S
C3852 C3850 1.391 . S
C3852 C3853 1.400 . S
C3853 C3847 1.491 . S
C3853 C3852 1.400 . S
C3853 C3854 1.398 . S
C3854 H3842 0.950 . S
C3854 C3853 1.398 . S
C3854 C3855 1.391 . S
C3855 H3843 0.950 . S
C3855 C3851 1.393 . S
C3855 C3854 1.391 . S
H3856 C3864 0.950 . S
H3857 C3869 0.950 . S
H3858 C3866 0.950 . S
H3859 C3868 0.950 . S
H3860 C3870 0.950 . S
H3861 C3872 0.950 . S
H3862 C3874 0.948 . S
H3863 C3875 0.950 . S
C3864 H3856 0.950 . S
C3864 C3865 1.386 . S
C3864 C3866 1.391 . S
C3865 C3864 1.386 . S
C3865 C3869 1.393 . S
C3866 H3858 0.950 . S
C3866 C3864 1.391 . S
C3866 C3867 1.400 . S
C3867 C3866 1.400 . S
C3867 C3868 1.398 . S
C3867 C3873 1.491 . S
C3868 H3859 0.950 . S
C3868 C3867 1.398 . S
C3868 C3869 1.391 . S
C3869 H3857 0.950 . S
C3869 C3865 1.393 . S
C3869 C3868 1.391 . S
C3870 H3860 0.950 . S
C3870 C3871 1.386 . S
C3870 C3872 1.391 1_565 S
C3871 C3870 1.386 . S
C3871 C3875 1.393 . S
C3872 H3861 0.950 . S
C3872 C3870 1.391 1_545 S
C3872 C3873 1.400 . S
C3873 C3867 1.491 . S
C3873 C3872 1.400 . S
C3873 C3874 1.395 . S
C3874 H3862 0.948 . S
C3874 C3873 1.395 . S
C3874 C3875 1.396 1_545 S
C3875 H3863 0.950 . S
C3875 C3871 1.393 . S
C3875 C3874 1.396 1_565 S
H3876 C3884 0.950 . S
H3877 C3889 0.950 . S
H3878 C3886 0.950 . S
H3879 C3888 0.950 . S
H3880 C3890 0.950 . S
H3881 C3892 0.950 . S
H3882 C3894 0.950 . S
H3883 C3895 0.950 . S
C3884 H3876 0.950 . S
C3884 C3885 1.386 . S
C3884 C3886 1.391 . S
C3885 C3884 1.386 . S
C3885 C3889 1.393 . S
C3886 H3878 0.950 . S
C3886 C3884 1.391 . S
C3886 C3887 1.400 . S
C3887 C3886 1.400 . S
C3887 C3888 1.398 . S
C3887 C3893 1.491 . S
C3888 H3879 0.950 . S
C3888 C3887 1.398 . S
C3888 C3889 1.391 . S
C3889 H3877 0.950 . S
C3889 C3885 1.393 . S
C3889 C3888 1.391 . S
C3890 H3880 0.950 . S
C3890 C3891 1.386 . S
C3890 C3892 1.391 . S
C3891 C3890 1.386 . S
C3891 C3895 1.393 . S
C3892 H3881 0.950 . S
C3892 C3890 1.391 . S
C3892 C3893 1.400 . S
C3893 C3887 1.491 . S
C3893 C3892 1.400 . S
C3893 C3894 1.398 . S
C3894 H3882 0.950 . S
C3894 C3893 1.398 . S
C3894 C3895 1.391 . S
C3895 H3883 0.950 . S
C3895 C3891 1.393 . S
C3895 C3894 1.391 . S
H3896 C3904 0.950 . S
H3897 C3909 0.950 . S
H3898 C3906 0.950 . S
H3899 C3908 0.950 . S
H3900 C3910 0.950 . S
H3901 C3912 0.950 . S
H3902 C3914 0.950 . S
H3903 C3915 0.950 . S
C3904 H3896 0.950 . S
C3904 C3905 1.386 . S
C3904 C3906 1.391 . S
C3905 C3904 1.386 . S
C3905 C3909 1.393 . S
C3906 H3898 0.950 . S
C3906 C3904 1.391 . S
C3906 C3907 1.400 . S
C3907 C3906 1.400 . S
C3907 C3908 1.398 . S
C3907 C3913 1.491 . S
C3908 H3899 0.950 . S
C3908 C3907 1.398 . S
C3908 C3909 1.391 . S
C3909 H3897 0.950 . S
C3909 C3905 1.393 . S
C3909 C3908 1.391 . S
C3910 H3900 0.950 . S
C3910 C3911 1.386 . S
C3910 C3912 1.391 . S
C3911 C3910 1.386 . S
C3911 C3915 1.393 . S
C3912 H3901 0.950 . S
C3912 C3910 1.391 . S
C3912 C3913 1.400 . S
C3913 C3907 1.491 . S
C3913 C3912 1.400 . S
C3913 C3914 1.398 . S
C3914 H3902 0.950 . S
C3914 C3913 1.398 . S
C3914 C3915 1.391 . S
C3915 H3903 0.950 . S
C3915 C3911 1.393 . S
C3915 C3914 1.391 . S
H3916 C3924 0.950 . S
H3917 C3929 0.950 . S
H3918 C3926 0.950 . S
H3919 C3928 0.950 . S
H3920 C3930 0.950 . S
H3921 C3932 0.950 . S
H3922 C3934 0.950 . S
H3923 C3935 0.950 . S
C3924 H3916 0.950 . S
C3924 C3925 1.386 . S
C3924 C3926 1.391 . S
C3925 C3924 1.386 . S
C3925 C3929 1.393 . S
C3926 H3918 0.950 . S
C3926 C3924 1.391 . S
C3926 C3927 1.400 . S
C3927 C3926 1.400 . S
C3927 C3928 1.398 . S
C3927 C3933 1.491 . S
C3928 H3919 0.950 . S
C3928 C3927 1.398 . S
C3928 C3929 1.391 . S
C3929 H3917 0.950 . S
C3929 C3925 1.393 . S
C3929 C3928 1.391 . S
C3930 H3920 0.950 . S
C3930 C3931 1.386 . S
C3930 C3932 1.391 . S
C3931 C3930 1.386 . S
C3931 C3935 1.393 . S
C3932 H3921 0.950 . S
C3932 C3930 1.391 . S
C3932 C3933 1.400 . S
C3933 C3927 1.491 . S
C3933 C3932 1.400 . S
C3933 C3934 1.398 . S
C3934 H3922 0.950 . S
C3934 C3933 1.398 . S
C3934 C3935 1.391 . S
C3935 H3923 0.950 . S
C3935 C3931 1.393 . S
C3935 C3934 1.391 . S
H3936 C3944 0.950 . S
H3937 C3949 0.950 . S
H3938 C3946 0.950 . S
H3939 C3948 0.950 . S
H3940 C3950 0.950 . S
H3941 C3952 0.950 . S
H3942 C3954 0.950 . S
H3943 C3955 0.950 . S
C3944 H3936 0.950 . S
C3944 C3945 1.386 . S
C3944 C3946 1.391 . S
C3945 C3944 1.386 . S
C3945 C3949 1.393 . S
C3946 H3938 0.950 . S
C3946 C3944 1.391 . S
C3946 C3947 1.400 . S
C3947 C3946 1.400 . S
C3947 C3948 1.398 . S
C3947 C3953 1.491 . S
C3948 H3939 0.950 . S
C3948 C3947 1.398 . S
C3948 C3949 1.391 . S
C3949 H3937 0.950 . S
C3949 C3945 1.393 . S
C3949 C3948 1.391 . S
C3950 H3940 0.950 . S
C3950 C3951 1.386 . S
C3950 C3952 1.391 . S
C3951 C3950 1.386 . S
C3951 C3955 1.393 . S
C3952 H3941 0.950 . S
C3952 C3950 1.391 . S
C3952 C3953 1.400 . S
C3953 C3947 1.491 . S
C3953 C3952 1.400 . S
C3953 C3954 1.398 . S
C3954 H3942 0.950 . S
C3954 C3953 1.398 . S
C3954 C3955 1.391 . S
C3955 H3943 0.950 . S
C3955 C3951 1.393 . S
C3955 C3954 1.391 . S
H3956 C3964 0.950 . S
H3957 C3969 0.950 . S
H3958 C3966 0.950 . S
H3959 C3968 0.957 . S
H3960 C3970 0.950 . S
H3961 C3972 0.950 . S
H3962 C3974 0.950 . S
H3963 C3975 0.950 . S
C3964 H3956 0.950 . S
C3964 C3965 1.386 . S
C3964 C3966 1.391 1_455 S
C3965 C3964 1.386 . S
C3965 C3969 1.393 . S
C3966 H3958 0.950 . S
C3966 C3964 1.391 1_655 S
C3966 C3967 1.400 . S
C3967 C3966 1.400 . S
C3967 C3968 1.409 . S
C3967 C3973 1.491 . S
C3968 H3959 0.957 . S
C3968 C3967 1.409 . S
C3968 C3969 1.374 1_655 S
C3969 H3957 0.950 . S
C3969 C3965 1.393 . S
C3969 C3968 1.374 1_455 S
C3970 H3960 0.950 . S
C3970 C3971 1.386 . S
C3970 C3972 1.391 . S
C3971 C3970 1.386 . S
C3971 C3975 1.393 . S
C3972 H3961 0.950 . S
C3972 C3970 1.391 . S
C3972 C3973 1.400 . S
C3973 C3967 1.491 . S
C3973 C3972 1.400 . S
C3973 C3974 1.398 . S
C3974 H3962 0.950 . S
C3974 C3973 1.398 . S
C3974 C3975 1.391 . S
C3975 H3963 0.950 . S
C3975 C3971 1.393 . S
C3975 C3974 1.391 . S
H3976 C3984 0.950 . S
H3977 C3989 0.950 . S
H3978 C3986 0.950 . S
H3979 C3988 0.950 . S
H3980 C3990 0.950 . S
H3981 C3992 0.950 . S
H3982 C3994 0.950 . S
H3983 C3995 0.950 . S
C3984 H3976 0.950 . S
C3984 C3985 1.386 . S
C3984 C3986 1.391 . S
C3985 C3984 1.386 . S
C3985 C3989 1.393 . S
C3986 H3978 0.950 . S
C3986 C3984 1.391 . S
C3986 C3987 1.400 . S
C3987 C3986 1.400 . S
C3987 C3988 1.398 . S
C3987 C3993 1.491 . S
C3988 H3979 0.950 . S
C3988 C3987 1.398 . S
C3988 C3989 1.391 . S
C3989 H3977 0.950 . S
C3989 C3985 1.393 . S
C3989 C3988 1.391 . S
C3990 H3980 0.950 . S
C3990 C3991 1.386 . S
C3990 C3992 1.391 . S
C3991 C3990 1.386 . S
C3991 C3995 1.393 . S
C3992 H3981 0.950 . S
C3992 C3990 1.391 . S
C3992 C3993 1.400 . S
C3993 C3987 1.491 . S
C3993 C3992 1.400 . S
C3993 C3994 1.398 . S
C3994 H3982 0.950 . S
C3994 C3993 1.398 . S
C3994 C3995 1.391 . S
C3995 H3983 0.950 . S
C3995 C3991 1.393 . S
C3995 C3994 1.391 . S
H3996 C4004 0.950 . S
H3997 C4009 0.950 . S
H3998 C4006 0.950 . S
H3999 C4008 0.950 . S
H4000 C4010 0.950 . S
H4001 C4012 0.950 . S
H4002 C4014 0.950 . S
H4003 C4015 0.950 . S
C4004 H3996 0.950 . S
C4004 C4005 1.386 . S
C4004 C4006 1.391 . S
C4005 C4004 1.386 . S
C4005 C4009 1.393 . S
C4006 H3998 0.950 . S
C4006 C4004 1.391 . S
C4006 C4007 1.400 . S
C4007 C4006 1.400 . S
C4007 C4008 1.398 . S
C4007 C4013 1.491 . S
C4008 H3999 0.950 . S
C4008 C4007 1.398 . S
C4008 C4009 1.391 . S
C4009 H3997 0.950 . S
C4009 C4005 1.393 . S
C4009 C4008 1.391 . S
C4010 H4000 0.950 . S
C4010 C4011 1.386 . S
C4010 C4012 1.391 . S
C4011 C4010 1.386 . S
C4011 C4015 1.393 . S
C4012 H4001 0.950 . S
C4012 C4010 1.391 . S
C4012 C4013 1.400 . S
C4013 C4007 1.491 . S
C4013 C4012 1.400 . S
C4013 C4014 1.398 . S
C4014 H4002 0.950 . S
C4014 C4013 1.398 . S
C4014 C4015 1.391 . S
C4015 H4003 0.950 . S
C4015 C4011 1.393 . S
C4015 C4014 1.391 . S
H4016 C4024 0.950 . S
H4017 C4029 0.950 . S
H4018 C4026 0.950 . S
H4019 C4028 0.950 . S
H4020 C4030 0.950 . S
H4021 C4032 0.950 . S
H4022 C4034 0.950 . S
H4023 C4035 0.950 . S
C4024 H4016 0.950 . S
C4024 C4025 1.386 . S
C4024 C4026 1.391 . S
C4025 C4024 1.386 . S
C4025 C4029 1.393 . S
C4026 H4018 0.950 . S
C4026 C4024 1.391 . S
C4026 C4027 1.400 . S
C4027 C4026 1.400 . S
C4027 C4028 1.398 . S
C4027 C4033 1.491 . S
C4028 H4019 0.950 . S
C4028 C4027 1.398 . S
C4028 C4029 1.391 . S
C4029 H4017 0.950 . S
C4029 C4025 1.393 . S
C4029 C4028 1.391 . S
C4030 H4020 0.950 . S
C4030 C4031 1.386 . S
C4030 C4032 1.391 . S
C4031 C4030 1.386 . S
C4031 C4035 1.393 . S
C4032 H4021 0.950 . S
C4032 C4030 1.391 . S
C4032 C4033 1.400 . S
C4033 C4027 1.491 . S
C4033 C4032 1.400 . S
C4033 C4034 1.398 . S
C4034 H4022 0.950 . S
C4034 C4033 1.398 . S
C4034 C4035 1.391 . S
C4035 H4023 0.950 . S
C4035 C4031 1.393 . S
C4035 C4034 1.391 . S
H4036 C4044 0.950 . S
H4037 C4049 0.950 . S
H4038 C4046 0.950 . S
H4039 C4048 0.950 . S
H4040 C4050 0.950 . S
H4041 C4052 0.950 . S
H4042 C4054 0.950 . S
H4043 C4055 0.950 . S
C4044 H4036 0.950 . S
C4044 C4045 1.386 . S
C4044 C4046 1.391 . S
C4045 C4044 1.386 . S
C4045 C4049 1.393 . S
C4046 H4038 0.950 . S
C4046 C4044 1.391 . S
C4046 C4047 1.400 . S
C4047 C4046 1.400 . S
C4047 C4048 1.398 . S
C4047 C4053 1.491 . S
C4048 H4039 0.950 . S
C4048 C4047 1.398 . S
C4048 C4049 1.391 . S
C4049 H4037 0.950 . S
C4049 C4045 1.393 . S
C4049 C4048 1.391 . S
C4050 H4040 0.950 . S
C4050 C4051 1.386 . S
C4050 C4052 1.391 . S
C4051 C4050 1.386 . S
C4051 C4055 1.393 . S
C4052 H4041 0.950 . S
C4052 C4050 1.391 . S
C4052 C4053 1.400 . S
C4053 C4047 1.491 . S
C4053 C4052 1.400 . S
C4053 C4054 1.398 . S
C4054 H4042 0.950 . S
C4054 C4053 1.398 . S
C4054 C4055 1.391 . S
C4055 H4043 0.950 . S
C4055 C4051 1.393 . S
C4055 C4054 1.391 . S
H4056 C4064 0.950 . S
H4057 C4069 0.950 . S
H4058 C4066 0.950 . S
H4059 C4068 0.950 . S
H4060 C4070 0.950 . S
H4061 C4072 0.950 . S
H4062 C4074 0.950 . S
H4063 C4075 0.950 . S
C4064 H4056 0.950 . S
C4064 C4065 1.386 . S
C4064 C4066 1.391 . S
C4065 C4064 1.386 . S
C4065 C4069 1.393 . S
C4066 H4058 0.950 . S
C4066 C4064 1.391 . S
C4066 C4067 1.400 . S
C4067 C4066 1.400 . S
C4067 C4068 1.398 . S
C4067 C4073 1.491 . S
C4068 H4059 0.950 . S
C4068 C4067 1.398 . S
C4068 C4069 1.391 . S
C4069 H4057 0.950 . S
C4069 C4065 1.393 . S
C4069 C4068 1.391 . S
C4070 H4060 0.950 . S
C4070 C4071 1.386 . S
C4070 C4072 1.391 . S
C4071 C4070 1.386 . S
C4071 C4075 1.393 . S
C4072 H4061 0.950 . S
C4072 C4070 1.391 . S
C4072 C4073 1.400 . S
C4073 C4067 1.491 . S
C4073 C4072 1.400 . S
C4073 C4074 1.398 . S
C4074 H4062 0.950 . S
C4074 C4073 1.398 . S
C4074 C4075 1.391 . S
C4075 H4063 0.950 . S
C4075 C4071 1.393 . S
C4075 C4074 1.391 . S
H4076 C4084 0.950 . S
H4077 C4089 0.950 . S
H4078 C4086 0.950 . S
H4079 C4088 0.950 . S
H4080 C4090 0.950 . S
H4081 C4092 0.950 . S
H4082 C4094 0.950 . S
H4083 C4095 0.942 1_655 S
C4084 H4076 0.950 . S
C4084 C4085 1.386 . S
C4084 C4086 1.391 . S
C4085 C4084 1.386 . S
C4085 C4089 1.393 . S
C4086 H4078 0.950 . S
C4086 C4084 1.391 . S
C4086 C4087 1.400 . S
C4087 C4086 1.400 . S
C4087 C4088 1.398 . S
C4087 C4093 1.491 . S
C4088 H4079 0.950 . S
C4088 C4087 1.398 . S
C4088 C4089 1.391 . S
C4089 H4077 0.950 . S
C4089 C4085 1.393 . S
C4089 C4088 1.391 . S
C4090 H4080 0.950 . S
C4090 C4091 1.386 . S
C4090 C4092 1.391 . S
C4091 C4090 1.386 . S
C4091 C4095 1.425 . S
C4092 H4081 0.950 . S
C4092 C4090 1.391 . S
C4092 C4093 1.400 1_455 S
C4093 C4087 1.491 . S
C4093 C4092 1.400 1_655 S
C4093 C4094 1.398 . S
C4094 H4082 0.950 . S
C4094 C4093 1.398 . S
C4094 C4095 1.367 1_655 S
C4095 H4083 0.942 1_455 S
C4095 C4091 1.425 . S
C4095 C4094 1.367 1_455 S
H4096 C4104 0.950 . S
H4097 C4109 0.950 . S
H4098 C4106 0.950 . S
H4099 C4108 0.950 . S
H4100 C4110 0.950 . S
H4101 C4112 0.950 . S
H4102 C4114 0.950 . S
H4103 C4115 0.950 . S
C4104 H4096 0.950 . S
C4104 C4105 1.386 . S
C4104 C4106 1.391 . S
C4105 C4104 1.386 . S
C4105 C4109 1.393 . S
C4106 H4098 0.950 . S
C4106 C4104 1.391 . S
C4106 C4107 1.400 . S
C4107 C4106 1.400 . S
C4107 C4108 1.398 . S
C4107 C4113 1.491 . S
C4108 H4099 0.950 . S
C4108 C4107 1.398 . S
C4108 C4109 1.391 . S
C4109 H4097 0.950 . S
C4109 C4105 1.393 . S
C4109 C4108 1.391 . S
C4110 H4100 0.950 . S
C4110 C4111 1.386 . S
C4110 C4112 1.391 . S
C4111 C4110 1.386 . S
C4111 C4115 1.393 . S
C4112 H4101 0.950 . S
C4112 C4110 1.391 . S
C4112 C4113 1.400 . S
C4113 C4107 1.491 . S
C4113 C4112 1.400 . S
C4113 C4114 1.398 . S
C4114 H4102 0.950 . S
C4114 C4113 1.398 . S
C4114 C4115 1.391 . S
C4115 H4103 0.950 . S
C4115 C4111 1.393 . S
C4115 C4114 1.391 . S
H4116 C4124 0.950 . S
H4117 C4129 0.950 . S
H4118 C4126 0.950 . S
H4119 C4128 0.950 . S
H4120 C4130 0.950 . S
H4121 C4132 0.950 . S
H4122 C4134 0.950 . S
H4123 C4135 0.950 . S
C4124 H4116 0.950 . S
C4124 C4125 1.386 . S
C4124 C4126 1.391 . S
C4125 C4124 1.386 . S
C4125 C4129 1.393 . S
C4126 H4118 0.950 . S
C4126 C4124 1.391 . S
C4126 C4127 1.400 . S
C4127 C4126 1.400 . S
C4127 C4128 1.398 . S
C4127 C4133 1.491 . S
C4128 H4119 0.950 . S
C4128 C4127 1.398 . S
C4128 C4129 1.391 . S
C4129 H4117 0.950 . S
C4129 C4125 1.393 . S
C4129 C4128 1.391 . S
C4130 H4120 0.950 . S
C4130 C4131 1.386 . S
C4130 C4132 1.391 . S
C4131 C4130 1.386 . S
C4131 C4135 1.393 . S
C4132 H4121 0.950 . S
C4132 C4130 1.391 . S
C4132 C4133 1.400 . S
C4133 C4127 1.491 . S
C4133 C4132 1.400 . S
C4133 C4134 1.398 . S
C4134 H4122 0.950 . S
C4134 C4133 1.398 . S
C4134 C4135 1.391 . S
C4135 H4123 0.950 . S
C4135 C4131 1.393 . S
C4135 C4134 1.391 . S
H4136 C4144 0.950 . S
H4137 C4149 0.950 . S
H4138 C4146 0.950 . S
H4139 C4148 0.950 . S
H4140 C4150 0.950 . S
H4141 C4152 0.950 . S
H4142 C4154 0.950 . S
H4143 C4155 0.950 . S
C4144 H4136 0.950 . S
C4144 C4145 1.386 . S
C4144 C4146 1.391 . S
C4145 C4144 1.386 . S
C4145 C4149 1.393 . S
C4146 H4138 0.950 . S
C4146 C4144 1.391 . S
C4146 C4147 1.400 . S
C4147 C4146 1.400 . S
C4147 C4148 1.398 . S
C4147 C4153 1.491 . S
C4148 H4139 0.950 . S
C4148 C4147 1.398 . S
C4148 C4149 1.391 . S
C4149 H4137 0.950 . S
C4149 C4145 1.393 . S
C4149 C4148 1.391 . S
C4150 H4140 0.950 . S
C4150 C4151 1.386 . S
C4150 C4152 1.391 . S
C4151 C4150 1.386 . S
C4151 C4155 1.393 . S
C4152 H4141 0.950 . S
C4152 C4150 1.391 . S
C4152 C4153 1.400 . S
C4153 C4147 1.491 . S
C4153 C4152 1.400 . S
C4153 C4154 1.398 . S
C4154 H4142 0.950 . S
C4154 C4153 1.398 . S
C4154 C4155 1.391 . S
C4155 H4143 0.950 . S
C4155 C4151 1.393 . S
C4155 C4154 1.391 . S
H4156 C4164 0.950 . S
H4157 C4169 0.950 . S
H4158 C4166 0.950 . S
H4159 C4168 0.960 . S
H4160 C4170 0.950 . S
H4161 C4172 0.950 . S
H4162 C4174 0.950 . S
H4163 C4175 0.950 . S
C4164 H4156 0.950 . S
C4164 C4165 1.386 . S
C4164 C4166 1.391 1_556 S
C4165 C4164 1.386 . S
C4165 C4169 1.393 . S
C4166 H4158 0.950 . S
C4166 C4164 1.391 1_554 S
C4166 C4167 1.400 . S
C4167 C4166 1.400 . S
C4167 C4168 1.411 . S
C4167 C4173 1.491 . S
C4168 H4159 0.960 . S
C4168 C4167 1.411 . S
C4168 C4169 1.369 1_554 S
C4169 H4157 0.950 . S
C4169 C4165 1.393 . S
C4169 C4168 1.369 1_556 S
C4170 H4160 0.950 . S
C4170 C4171 1.386 . S
C4170 C4172 1.391 . S
C4171 C4170 1.386 . S
C4171 C4175 1.393 . S
C4172 H4161 0.950 . S
C4172 C4170 1.391 . S
C4172 C4173 1.400 . S
C4173 C4167 1.491 . S
C4173 C4172 1.400 . S
C4173 C4174 1.398 . S
C4174 H4162 0.950 . S
C4174 C4173 1.398 . S
C4174 C4175 1.391 . S
C4175 H4163 0.950 . S
C4175 C4171 1.393 . S
C4175 C4174 1.391 . S
H4176 C4184 0.950 . S
H4177 C4189 0.950 . S
H4178 C4186 0.950 . S
H4179 C4188 0.950 . S
H4180 C4190 0.950 . S
H4181 C4192 0.950 . S
H4182 C4194 0.950 . S
H4183 C4195 0.950 . S
C4184 H4176 0.950 . S
C4184 C4185 1.386 . S
C4184 C4186 1.391 . S
C4185 C4184 1.386 . S
C4185 C4189 1.393 . S
C4186 H4178 0.950 . S
C4186 C4184 1.391 . S
C4186 C4187 1.400 . S
C4187 C4186 1.400 . S
C4187 C4188 1.398 . S
C4187 C4193 1.491 . S
C4188 H4179 0.950 . S
C4188 C4187 1.398 . S
C4188 C4189 1.391 . S
C4189 H4177 0.950 . S
C4189 C4185 1.393 . S
C4189 C4188 1.391 . S
C4190 H4180 0.950 . S
C4190 C4191 1.386 . S
C4190 C4192 1.391 . S
C4191 C4190 1.386 . S
C4191 C4195 1.393 . S
C4192 H4181 0.950 . S
C4192 C4190 1.391 . S
C4192 C4193 1.400 . S
C4193 C4187 1.491 . S
C4193 C4192 1.400 . S
C4193 C4194 1.398 . S
C4194 H4182 0.950 . S
C4194 C4193 1.398 . S
C4194 C4195 1.391 . S
C4195 H4183 0.950 . S
C4195 C4191 1.393 . S
C4195 C4194 1.391 . S
H4196 C4204 0.950 . S
H4197 C4209 0.950 . S
H4198 C4206 0.950 . S
H4199 C4208 0.950 . S
H4200 C4210 0.950 . S
H4201 C4212 0.950 . S
H4202 C4214 0.950 . S
H4203 C4215 0.950 . S
C4204 H4196 0.950 . S
C4204 C4205 1.386 . S
C4204 C4206 1.391 . S
C4205 C4204 1.386 . S
C4205 C4209 1.393 . S
C4206 H4198 0.950 . S
C4206 C4204 1.391 . S
C4206 C4207 1.400 . S
C4207 C4206 1.400 . S
C4207 C4208 1.398 . S
C4207 C4213 1.491 . S
C4208 H4199 0.950 . S
C4208 C4207 1.398 . S
C4208 C4209 1.391 . S
C4209 H4197 0.950 . S
C4209 C4205 1.393 . S
C4209 C4208 1.391 . S
C4210 H4200 0.950 . S
C4210 C4211 1.386 . S
C4210 C4212 1.391 . S
C4211 C4210 1.386 . S
C4211 C4215 1.393 . S
C4212 H4201 0.950 . S
C4212 C4210 1.391 . S
C4212 C4213 1.400 . S
C4213 C4207 1.491 . S
C4213 C4212 1.400 . S
C4213 C4214 1.398 . S
C4214 H4202 0.950 . S
C4214 C4213 1.398 . S
C4214 C4215 1.391 . S
C4215 H4203 0.950 . S
C4215 C4211 1.393 . S
C4215 C4214 1.391 . S
H4216 C4224 0.950 . S
H4217 C4229 0.950 . S
H4218 C4226 0.950 . S
H4219 C4228 0.950 . S
H4220 C4230 0.950 . S
H4221 C4232 0.950 . S
H4222 C4234 0.950 . S
H4223 C4235 0.950 . S
C4224 H4216 0.950 . S
C4224 C4225 1.386 . S
C4224 C4226 1.391 . S
C4225 C4224 1.386 . S
C4225 C4229 1.393 . S
C4226 H4218 0.950 . S
C4226 C4224 1.391 . S
C4226 C4227 1.400 . S
C4227 C4226 1.400 . S
C4227 C4228 1.398 . S
C4227 C4233 1.491 . S
C4228 H4219 0.950 . S
C4228 C4227 1.398 . S
C4228 C4229 1.391 . S
C4229 H4217 0.950 . S
C4229 C4225 1.393 . S
C4229 C4228 1.391 . S
C4230 H4220 0.950 . S
C4230 C4231 1.386 . S
C4230 C4232 1.391 . S
C4231 C4230 1.386 . S
C4231 C4235 1.393 . S
C4232 H4221 0.950 . S
C4232 C4230 1.391 . S
C4232 C4233 1.400 . S
C4233 C4227 1.491 . S
C4233 C4232 1.400 . S
C4233 C4234 1.398 . S
C4234 H4222 0.950 . S
C4234 C4233 1.398 . S
C4234 C4235 1.391 . S
C4235 H4223 0.950 . S
C4235 C4231 1.393 . S
C4235 C4234 1.391 . S
H4236 C4244 0.950 . S
H4237 C4249 0.950 . S
H4238 C4246 0.950 . S
H4239 C4248 0.950 . S
H4240 C4250 0.950 . S
H4241 C4252 0.950 . S
H4242 C4254 0.950 . S
H4243 C4255 0.950 . S
C4244 H4236 0.950 . S
C4244 C4245 1.386 . S
C4244 C4246 1.391 . S
C4245 C4244 1.386 . S
C4245 C4249 1.393 . S
C4246 H4238 0.950 . S
C4246 C4244 1.391 . S
C4246 C4247 1.400 1_554 S
C4247 C4246 1.400 1_556 S
C4247 C4248 1.398 . S
C4247 C4253 1.491 . S
C4248 H4239 0.950 . S
C4248 C4247 1.398 . S
C4248 C4249 1.391 1_556 S
C4249 H4237 0.950 . S
C4249 C4245 1.393 . S
C4249 C4248 1.391 1_554 S
C4250 H4240 0.950 . S
C4250 C4251 1.386 . S
C4250 C4252 1.391 . S
C4251 C4250 1.386 . S
C4251 C4255 1.393 . S
C4252 H4241 0.950 . S
C4252 C4250 1.391 . S
C4252 C4253 1.400 . S
C4253 C4247 1.491 . S
C4253 C4252 1.400 . S
C4253 C4254 1.398 . S
C4254 H4242 0.950 . S
C4254 C4253 1.398 . S
C4254 C4255 1.391 . S
C4255 H4243 0.950 . S
C4255 C4251 1.393 . S
C4255 C4254 1.391 . S
H4256 C4264 0.950 . S
H4257 C4269 0.950 . S
H4258 C4266 0.950 . S
H4259 C4268 0.950 . S
H4260 C4270 0.950 . S
H4261 C4272 0.950 . S
H4262 C4274 0.950 . S
H4263 C4275 0.950 . S
C4264 H4256 0.950 . S
C4264 C4265 1.386 . S
C4264 C4266 1.391 . S
C4265 C4264 1.386 . S
C4265 C4269 1.393 . S
C4266 H4258 0.950 . S
C4266 C4264 1.391 . S
C4266 C4267 1.400 . S
C4267 C4266 1.400 . S
C4267 C4268 1.398 . S
C4267 C4273 1.491 . S
C4268 H4259 0.950 . S
C4268 C4267 1.398 . S
C4268 C4269 1.391 . S
C4269 H4257 0.950 . S
C4269 C4265 1.393 . S
C4269 C4268 1.391 . S
C4270 H4260 0.950 . S
C4270 C4271 1.386 . S
C4270 C4272 1.391 . S
C4271 C4270 1.386 . S
C4271 C4275 1.393 . S
C4272 H4261 0.950 . S
C4272 C4270 1.391 . S
C4272 C4273 1.400 . S
C4273 C4267 1.491 . S
C4273 C4272 1.400 . S
C4273 C4274 1.398 . S
C4274 H4262 0.950 . S
C4274 C4273 1.398 . S
C4274 C4275 1.391 . S
C4275 H4263 0.950 . S
C4275 C4271 1.393 . S
C4275 C4274 1.391 . S
H4276 C4284 0.950 . S
H4277 C4289 0.950 . S
H4278 C4286 0.950 . S
H4279 C4288 0.950 . S
H4280 C4290 0.950 . S
H4281 C4292 0.950 . S
H4282 C4294 0.950 . S
H4283 C4295 0.950 . S
C4284 H4276 0.950 . S
C4284 C4285 1.386 . S
C4284 C4286 1.391 . S
C4285 C4284 1.386 . S
C4285 C4289 1.393 . S
C4286 H4278 0.950 . S
C4286 C4284 1.391 . S
C4286 C4287 1.400 . S
C4287 C4286 1.400 . S
C4287 C4288 1.398 . S
C4287 C4293 1.491 . S
C4288 H4279 0.950 . S
C4288 C4287 1.398 . S
C4288 C4289 1.391 . S
C4289 H4277 0.950 . S
C4289 C4285 1.393 . S
C4289 C4288 1.391 . S
C4290 H4280 0.950 . S
C4290 C4291 1.386 . S
C4290 C4292 1.391 . S
C4291 C4290 1.386 . S
C4291 C4295 1.393 . S
C4292 H4281 0.950 . S
C4292 C4290 1.391 . S
C4292 C4293 1.400 . S
C4293 C4287 1.491 . S
C4293 C4292 1.400 . S
C4293 C4294 1.398 . S
C4294 H4282 0.950 . S
C4294 C4293 1.398 . S
C4294 C4295 1.391 . S
C4295 H4283 0.950 . S
C4295 C4291 1.393 . S
C4295 C4294 1.391 . S
H4296 C4304 0.950 . S
H4297 C4309 0.950 . S
H4298 C4306 0.950 . S
H4299 C4308 0.950 . S
H4300 C4310 0.950 . S
H4301 C4312 0.950 . S
H4302 C4314 0.950 . S
H4303 C4315 0.950 . S
C4304 H4296 0.950 . S
C4304 C4305 1.386 . S
C4304 C4306 1.391 . S
C4305 C4304 1.386 . S
C4305 C4309 1.393 . S
C4306 H4298 0.950 . S
C4306 C4304 1.391 . S
C4306 C4307 1.400 . S
C4307 C4306 1.400 . S
C4307 C4308 1.398 . S
C4307 C4313 1.491 . S
C4308 H4299 0.950 . S
C4308 C4307 1.398 . S
C4308 C4309 1.391 . S
C4309 H4297 0.950 . S
C4309 C4305 1.393 . S
C4309 C4308 1.391 . S
C4310 H4300 0.950 . S
C4310 C4311 1.386 . S
C4310 C4312 1.391 . S
C4311 C4310 1.386 . S
C4311 C4315 1.393 . S
C4312 H4301 0.950 . S
C4312 C4310 1.391 . S
C4312 C4313 1.400 . S
C4313 C4307 1.491 . S
C4313 C4312 1.400 . S
C4313 C4314 1.398 . S
C4314 H4302 0.950 . S
C4314 C4313 1.398 . S
C4314 C4315 1.391 . S
C4315 H4303 0.950 . S
C4315 C4311 1.393 . S
C4315 C4314 1.391 . S
H4316 C4324 0.950 . S
H4317 C4329 0.950 . S
H4318 C4326 0.950 . S
H4319 C4328 0.950 . S
H4320 C4330 0.950 . S
H4321 C4332 0.950 . S
H4322 C4334 0.950 . S
H4323 C4335 0.950 . S
C4324 H4316 0.950 . S
C4324 C4325 1.386 . S
C4324 C4326 1.391 . S
C4325 C4324 1.386 . S
C4325 C4329 1.393 . S
C4326 H4318 0.950 . S
C4326 C4324 1.391 . S
C4326 C4327 1.400 . S
C4327 C4326 1.400 . S
C4327 C4328 1.398 . S
C4327 C4333 1.491 . S
C4328 H4319 0.950 . S
C4328 C4327 1.398 . S
C4328 C4329 1.391 . S
C4329 H4317 0.950 . S
C4329 C4325 1.393 . S
C4329 C4328 1.391 . S
C4330 H4320 0.950 . S
C4330 C4331 1.386 . S
C4330 C4332 1.391 . S
C4331 C4330 1.386 . S
C4331 C4335 1.393 . S
C4332 H4321 0.950 . S
C4332 C4330 1.391 . S
C4332 C4333 1.400 . S
C4333 C4327 1.491 . S
C4333 C4332 1.400 . S
C4333 C4334 1.398 . S
C4334 H4322 0.950 . S
C4334 C4333 1.398 . S
C4334 C4335 1.391 . S
C4335 H4323 0.950 . S
C4335 C4331 1.393 . S
C4335 C4334 1.391 . S
H4336 C4344 0.950 . S
H4337 C4349 0.950 . S
H4338 C4346 0.950 . S
H4339 C4348 0.950 . S
H4340 C4350 0.950 . S
H4341 C4352 0.950 . S
H4342 C4354 0.950 . S
H4343 C4355 0.950 . S
C4344 H4336 0.950 . S
C4344 C4345 1.386 . S
C4344 C4346 1.391 . S
C4345 C4344 1.386 . S
C4345 C4349 1.393 . S
C4346 H4338 0.950 . S
C4346 C4344 1.391 . S
C4346 C4347 1.400 . S
C4347 C4346 1.400 . S
C4347 C4348 1.398 . S
C4347 C4353 1.491 . S
C4348 H4339 0.950 . S
C4348 C4347 1.398 . S
C4348 C4349 1.391 . S
C4349 H4337 0.950 . S
C4349 C4345 1.393 . S
C4349 C4348 1.391 . S
C4350 H4340 0.950 . S
C4350 C4351 1.386 . S
C4350 C4352 1.391 . S
C4351 C4350 1.386 . S
C4351 C4355 1.393 . S
C4352 H4341 0.950 . S
C4352 C4350 1.391 . S
C4352 C4353 1.400 1_545 S
C4353 C4347 1.491 . S
C4353 C4352 1.400 1_565 S
C4353 C4354 1.398 . S
C4354 H4342 0.950 . S
C4354 C4353 1.398 . S
C4354 C4355 1.391 1_565 S
C4355 H4343 0.950 . S
C4355 C4351 1.393 . S
C4355 C4354 1.391 1_545 S
H4356 C4364 0.950 . S
H4357 C4369 0.950 . S
H4358 C4366 0.950 . S
H4359 C4368 0.950 . S
H4360 C4370 0.950 . S
H4361 C4372 0.950 . S
H4362 C4374 0.950 . S
H4363 C4375 0.950 . S
C4364 H4356 0.950 . S
C4364 C4365 1.386 . S
C4364 C4366 1.391 . S
C4365 C4364 1.386 . S
C4365 C4369 1.393 . S
C4366 H4358 0.950 . S
C4366 C4364 1.391 . S
C4366 C4367 1.400 . S
C4367 C4366 1.400 . S
C4367 C4368 1.398 . S
C4367 C4373 1.491 . S
C4368 H4359 0.950 . S
C4368 C4367 1.398 . S
C4368 C4369 1.391 . S
C4369 H4357 0.950 . S
C4369 C4365 1.393 . S
C4369 C4368 1.391 . S
C4370 H4360 0.950 . S
C4370 C4371 1.386 . S
C4370 C4372 1.391 . S
C4371 C4370 1.386 . S
C4371 C4375 1.393 . S
C4372 H4361 0.950 . S
C4372 C4370 1.391 . S
C4372 C4373 1.400 . S
C4373 C4367 1.491 . S
C4373 C4372 1.400 . S
C4373 C4374 1.398 . S
C4374 H4362 0.950 . S
C4374 C4373 1.398 . S
C4374 C4375 1.391 . S
C4375 H4363 0.950 . S
C4375 C4371 1.393 . S
C4375 C4374 1.391 . S
H4376 C4384 0.950 . S
H4377 C4389 0.950 . S
H4378 C4386 0.950 . S
H4379 C4388 0.950 . S
H4380 C4390 0.950 . S
H4381 C4392 0.950 . S
H4382 C4394 0.950 . S
H4383 C4395 0.950 . S
C4384 H4376 0.950 . S
C4384 C4385 1.386 . S
C4384 C4386 1.391 . S
C4385 C4384 1.386 . S
C4385 C4389 1.393 . S
C4386 H4378 0.950 . S
C4386 C4384 1.391 . S
C4386 C4387 1.400 . S
C4387 C4386 1.400 . S
C4387 C4388 1.398 . S
C4387 C4393 1.491 . S
C4388 H4379 0.950 . S
C4388 C4387 1.398 . S
C4388 C4389 1.391 . S
C4389 H4377 0.950 . S
C4389 C4385 1.393 . S
C4389 C4388 1.391 . S
C4390 H4380 0.950 . S
C4390 C4391 1.386 . S
C4390 C4392 1.391 . S
C4391 C4390 1.386 . S
C4391 C4395 1.393 . S
C4392 H4381 0.950 . S
C4392 C4390 1.391 . S
C4392 C4393 1.400 . S
C4393 C4387 1.491 . S
C4393 C4392 1.400 . S
C4393 C4394 1.398 . S
C4394 H4382 0.950 . S
C4394 C4393 1.398 . S
C4394 C4395 1.391 . S
C4395 H4383 0.950 . S
C4395 C4391 1.393 . S
C4395 C4394 1.391 . S
H4396 C4404 0.950 . S
H4397 C4409 0.950 . S
H4398 C4406 0.950 . S
H4399 C4408 0.950 . S
H4400 C4410 0.950 . S
H4401 C4412 0.950 . S
H4402 C4414 0.950 . S
H4403 C4415 0.950 . S
C4404 H4396 0.950 . S
C4404 C4405 1.386 . S
C4404 C4406 1.391 . S
C4405 C4404 1.386 . S
C4405 C4409 1.393 . S
C4406 H4398 0.950 . S
C4406 C4404 1.391 . S
C4406 C4407 1.400 . S
C4407 C4406 1.400 . S
C4407 C4408 1.398 . S
C4407 C4413 1.491 . S
C4408 H4399 0.950 . S
C4408 C4407 1.398 . S
C4408 C4409 1.391 . S
C4409 H4397 0.950 . S
C4409 C4405 1.393 . S
C4409 C4408 1.391 . S
C4410 H4400 0.950 . S
C4410 C4411 1.386 . S
C4410 C4412 1.391 . S
C4411 C4410 1.386 . S
C4411 C4415 1.393 . S
C4412 H4401 0.950 . S
C4412 C4410 1.391 . S
C4412 C4413 1.400 . S
C4413 C4407 1.491 . S
C4413 C4412 1.400 . S
C4413 C4414 1.398 . S
C4414 H4402 0.950 . S
C4414 C4413 1.398 . S
C4414 C4415 1.391 . S
C4415 H4403 0.950 . S
C4415 C4411 1.393 . S
C4415 C4414 1.391 . S
H4416 C4424 0.950 . S
H4417 C4429 0.950 . S
H4418 C4426 0.950 . S
H4419 C4428 0.950 . S
H4420 C4430 0.950 . S
H4421 C4432 0.950 . S
H4422 C4434 0.950 . S
H4423 C4435 0.950 . S
C4424 H4416 0.950 . S
C4424 C4425 1.386 . S
C4424 C4426 1.391 . S
C4425 C4424 1.386 . S
C4425 C4429 1.393 . S
C4426 H4418 0.950 . S
C4426 C4424 1.391 . S
C4426 C4427 1.400 . S
C4427 C4426 1.400 . S
C4427 C4428 1.398 . S
C4427 C4433 1.491 . S
C4428 H4419 0.950 . S
C4428 C4427 1.398 . S
C4428 C4429 1.391 . S
C4429 H4417 0.950 . S
C4429 C4425 1.393 . S
C4429 C4428 1.391 . S
C4430 H4420 0.950 . S
C4430 C4431 1.386 . S
C4430 C4432 1.391 . S
C4431 C4430 1.386 . S
C4431 C4435 1.393 . S
C4432 H4421 0.950 . S
C4432 C4430 1.391 . S
C4432 C4433 1.400 . S
C4433 C4427 1.491 . S
C4433 C4432 1.400 . S
C4433 C4434 1.398 . S
C4434 H4422 0.950 . S
C4434 C4433 1.398 . S
C4434 C4435 1.391 . S
C4435 H4423 0.950 . S
C4435 C4431 1.393 . S
C4435 C4434 1.391 . S
H4436 C4444 0.950 . S
H4437 C4449 0.950 . S
H4438 C4446 0.950 . S
H4439 C4448 0.950 . S
H4440 C4450 0.950 . S
H4441 C4452 0.950 . S
H4442 C4454 0.950 . S
H4443 C4455 0.950 . S
C4444 H4436 0.950 . S
C4444 C4445 1.386 . S
C4444 C4446 1.391 . S
C4445 C4444 1.386 . S
C4445 C4449 1.393 . S
C4446 H4438 0.950 . S
C4446 C4444 1.391 . S
C4446 C4447 1.400 . S
C4447 C4446 1.400 . S
C4447 C4448 1.398 . S
C4447 C4453 1.491 . S
C4448 H4439 0.950 . S
C4448 C4447 1.398 . S
C4448 C4449 1.391 . S
C4449 H4437 0.950 . S
C4449 C4445 1.393 . S
C4449 C4448 1.391 . S
C4450 H4440 0.950 . S
C4450 C4451 1.386 . S
C4450 C4452 1.391 . S
C4451 C4450 1.386 . S
C4451 C4455 1.393 . S
C4452 H4441 0.950 . S
C4452 C4450 1.391 . S
C4452 C4453 1.400 . S
C4453 C4447 1.491 . S
C4453 C4452 1.400 . S
C4453 C4454 1.398 . S
C4454 H4442 0.950 . S
C4454 C4453 1.398 . S
C4454 C4455 1.391 . S
C4455 H4443 0.950 . S
C4455 C4451 1.393 . S
C4455 C4454 1.391 . S
H4456 C4464 0.950 . S
H4457 C4469 0.950 . S
H4458 C4466 0.950 . S
H4459 C4468 0.950 . S
H4460 C4470 0.950 . S
H4461 C4472 0.950 . S
H4462 C4474 0.950 . S
H4463 C4475 0.950 . S
C4464 H4456 0.950 . S
C4464 C4465 1.386 . S
C4464 C4466 1.391 . S
C4465 C4464 1.386 . S
C4465 C4469 1.393 . S
C4466 H4458 0.950 . S
C4466 C4464 1.391 . S
C4466 C4467 1.400 . S
C4467 C4466 1.400 . S
C4467 C4468 1.398 . S
C4467 C4473 1.491 . S
C4468 H4459 0.950 . S
C4468 C4467 1.398 . S
C4468 C4469 1.391 . S
C4469 H4457 0.950 . S
C4469 C4465 1.393 . S
C4469 C4468 1.391 . S
C4470 H4460 0.950 . S
C4470 C4471 1.386 . S
C4470 C4472 1.391 . S
C4471 C4470 1.386 . S
C4471 C4475 1.393 . S
C4472 H4461 0.950 . S
C4472 C4470 1.391 . S
C4472 C4473 1.400 . S
C4473 C4467 1.491 . S
C4473 C4472 1.400 . S
C4473 C4474 1.398 . S
C4474 H4462 0.950 . S
C4474 C4473 1.398 . S
C4474 C4475 1.391 . S
C4475 H4463 0.950 . S
C4475 C4471 1.393 . S
C4475 C4474 1.391 . S
H4476 C4484 0.953 . S
H4477 C4489 0.950 . S
H4478 C4486 0.950 . S
H4479 C4488 0.950 . S
H4480 C4490 0.950 . S
H4481 C4492 0.950 . S
H4482 C4494 0.950 . S
H4483 C4495 0.950 . S
C4484 H4476 0.953 . S
C4484 C4485 1.386 . S
C4484 C4486 1.391 1_455 S
C4485 C4484 1.386 . S
C4485 C4489 1.393 . S
C4486 H4478 0.950 . S
C4486 C4484 1.391 1_655 S
C4486 C4487 1.400 . S
C4487 C4486 1.400 . S
C4487 C4488 1.398 1_655 S
C4487 C4493 1.491 . S
C4488 H4479 0.950 . S
C4488 C4487 1.398 1_455 S
C4488 C4489 1.391 . S
C4489 H4477 0.950 . S
C4489 C4485 1.393 . S
C4489 C4488 1.391 . S
C4490 H4480 0.950 . S
C4490 C4491 1.386 . S
C4490 C4492 1.391 . S
C4491 C4490 1.386 . S
C4491 C4495 1.393 . S
C4492 H4481 0.950 . S
C4492 C4490 1.391 . S
C4492 C4493 1.400 . S
C4493 C4487 1.491 . S
C4493 C4492 1.400 . S
C4493 C4494 1.398 . S
C4494 H4482 0.950 . S
C4494 C4493 1.398 . S
C4494 C4495 1.391 . S
C4495 H4483 0.950 . S
C4495 C4491 1.393 . S
C4495 C4494 1.391 . S
H4496 C4504 0.950 . S
H4497 C4509 0.950 . S
H4498 C4506 0.950 . S
H4499 C4508 0.950 . S
H4500 C4510 0.950 . S
H4501 C4512 0.950 . S
H4502 C4514 0.950 . S
H4503 C4515 0.950 . S
C4504 H4496 0.950 . S
C4504 C4505 1.386 . S
C4504 C4506 1.391 . S
C4505 C4504 1.386 . S
C4505 C4509 1.393 . S
C4506 H4498 0.950 . S
C4506 C4504 1.391 . S
C4506 C4507 1.400 . S
C4507 C4506 1.400 . S
C4507 C4508 1.398 . S
C4507 C4513 1.491 . S
C4508 H4499 0.950 . S
C4508 C4507 1.398 . S
C4508 C4509 1.391 . S
C4509 H4497 0.950 . S
C4509 C4505 1.393 . S
C4509 C4508 1.391 . S
C4510 H4500 0.950 . S
C4510 C4511 1.386 . S
C4510 C4512 1.391 . S
C4511 C4510 1.386 . S
C4511 C4515 1.393 . S
C4512 H4501 0.950 . S
C4512 C4510 1.391 . S
C4512 C4513 1.400 . S
C4513 C4507 1.491 . S
C4513 C4512 1.400 . S
C4513 C4514 1.398 . S
C4514 H4502 0.950 . S
C4514 C4513 1.398 . S
C4514 C4515 1.391 . S
C4515 H4503 0.950 . S
C4515 C4511 1.393 . S
C4515 C4514 1.391 . S
H4516 C4524 0.959 . S
H4517 C4529 0.950 . S
H4518 C4526 0.950 . S
H4519 C4528 0.950 . S
H4520 C4530 0.950 . S
H4521 C4532 0.950 . S
H4522 C4534 0.950 . S
H4523 C4535 0.950 . S
C4524 H4516 0.959 . S
C4524 C4525 1.386 . S
C4524 C4526 1.391 1_455 S
C4525 C4524 1.386 . S
C4525 C4529 1.393 . S
C4526 H4518 0.950 . S
C4526 C4524 1.391 1_655 S
C4526 C4527 1.400 . S
C4527 C4526 1.400 . S
C4527 C4528 1.398 1_655 S
C4527 C4533 1.491 . S
C4528 H4519 0.950 . S
C4528 C4527 1.398 1_455 S
C4528 C4529 1.391 . S
C4529 H4517 0.950 . S
C4529 C4525 1.393 . S
C4529 C4528 1.391 . S
C4530 H4520 0.950 . S
C4530 C4531 1.386 . S
C4530 C4532 1.391 . S
C4531 C4530 1.386 . S
C4531 C4535 1.393 . S
C4532 H4521 0.950 . S
C4532 C4530 1.391 . S
C4532 C4533 1.400 . S
C4533 C4527 1.491 . S
C4533 C4532 1.400 . S
C4533 C4534 1.398 . S
C4534 H4522 0.950 . S
C4534 C4533 1.398 . S
C4534 C4535 1.391 . S
C4535 H4523 0.950 . S
C4535 C4531 1.393 . S
C4535 C4534 1.391 . S
H4536 C4544 0.950 . S
H4537 C4549 0.950 . S
H4538 C4546 0.950 . S
H4539 C4548 0.950 . S
H4540 C4550 0.950 . S
H4541 C4552 0.950 . S
H4542 C4554 0.950 . S
H4543 C4555 0.950 . S
C4544 H4536 0.950 . S
C4544 C4545 1.386 . S
C4544 C4546 1.391 . S
C4545 C4544 1.386 . S
C4545 C4549 1.393 . S
C4546 H4538 0.950 . S
C4546 C4544 1.391 . S
C4546 C4547 1.400 . S
C4547 C4546 1.400 . S
C4547 C4548 1.398 . S
C4547 C4553 1.491 . S
C4548 H4539 0.950 . S
C4548 C4547 1.398 . S
C4548 C4549 1.391 . S
C4549 H4537 0.950 . S
C4549 C4545 1.393 . S
C4549 C4548 1.391 . S
C4550 H4540 0.950 . S
C4550 C4551 1.386 . S
C4550 C4552 1.391 . S
C4551 C4550 1.386 . S
C4551 C4555 1.393 . S
C4552 H4541 0.950 . S
C4552 C4550 1.391 . S
C4552 C4553 1.400 . S
C4553 C4547 1.491 . S
C4553 C4552 1.400 . S
C4553 C4554 1.398 . S
C4554 H4542 0.950 . S
C4554 C4553 1.398 . S
C4554 C4555 1.391 . S
C4555 H4543 0.950 . S
C4555 C4551 1.393 . S
C4555 C4554 1.391 . S
H4556 C4564 0.950 . S
H4557 C4569 0.950 . S
H4558 C4566 0.950 . S
H4559 C4568 0.950 . S
H4560 C4570 0.950 . S
H4561 C4572 0.950 . S
H4562 C4574 0.950 . S
H4563 C4575 0.950 . S
C4564 H4556 0.950 . S
C4564 C4565 1.386 . S
C4564 C4566 1.391 . S
C4565 C4564 1.386 . S
C4565 C4569 1.393 . S
C4566 H4558 0.950 . S
C4566 C4564 1.391 . S
C4566 C4567 1.400 . S
C4567 C4566 1.400 . S
C4567 C4568 1.398 . S
C4567 C4573 1.491 . S
C4568 H4559 0.950 . S
C4568 C4567 1.398 . S
C4568 C4569 1.391 . S
C4569 H4557 0.950 . S
C4569 C4565 1.393 . S
C4569 C4568 1.391 . S
C4570 H4560 0.950 . S
C4570 C4571 1.386 . S
C4570 C4572 1.391 . S
C4571 C4570 1.386 . S
C4571 C4575 1.393 . S
C4572 H4561 0.950 . S
C4572 C4570 1.391 . S
C4572 C4573 1.400 . S
C4573 C4567 1.491 . S
C4573 C4572 1.400 . S
C4573 C4574 1.398 . S
C4574 H4562 0.950 . S
C4574 C4573 1.398 . S
C4574 C4575 1.391 . S
C4575 H4563 0.950 . S
C4575 C4571 1.393 . S
C4575 C4574 1.391 . S
H4576 C4584 0.950 . S
H4577 C4589 0.950 . S
H4578 C4586 0.950 . S
H4579 C4588 0.950 . S
H4580 C4590 0.950 . S
H4581 C4592 0.950 . S
H4582 C4594 0.950 . S
H4583 C4595 0.950 . S
C4584 H4576 0.950 . S
C4584 C4585 1.386 . S
C4584 C4586 1.391 . S
C4585 C4584 1.386 . S
C4585 C4589 1.393 . S
C4586 H4578 0.950 . S
C4586 C4584 1.391 . S
C4586 C4587 1.400 . S
C4587 C4586 1.400 . S
C4587 C4588 1.398 . S
C4587 C4593 1.491 . S
C4588 H4579 0.950 . S
C4588 C4587 1.398 . S
C4588 C4589 1.391 . S
C4589 H4577 0.950 . S
C4589 C4585 1.393 . S
C4589 C4588 1.391 . S
C4590 H4580 0.950 . S
C4590 C4591 1.386 . S
C4590 C4592 1.391 . S
C4591 C4590 1.386 . S
C4591 C4595 1.393 . S
C4592 H4581 0.950 . S
C4592 C4590 1.391 . S
C4592 C4593 1.400 . S
C4593 C4587 1.491 . S
C4593 C4592 1.400 . S
C4593 C4594 1.398 . S
C4594 H4582 0.950 . S
C4594 C4593 1.398 . S
C4594 C4595 1.391 . S
C4595 H4583 0.950 . S
C4595 C4591 1.393 . S
C4595 C4594 1.391 . S
H4596 C4604 0.950 . S
H4597 C4609 0.950 . S
H4598 C4606 0.950 . S
H4599 C4608 0.950 . S
H4600 C4610 0.950 . S
H4601 C4612 0.950 . S
H4602 C4614 0.950 . S
H4603 C4615 0.950 . S
C4604 H4596 0.950 . S
C4604 C4605 1.386 . S
C4604 C4606 1.391 . S
C4605 C4604 1.386 . S
C4605 C4609 1.393 . S
C4606 H4598 0.950 . S
C4606 C4604 1.391 . S
C4606 C4607 1.400 . S
C4607 C4606 1.400 . S
C4607 C4608 1.398 . S
C4607 C4613 1.491 . S
C4608 H4599 0.950 . S
C4608 C4607 1.398 . S
C4608 C4609 1.391 . S
C4609 H4597 0.950 . S
C4609 C4605 1.393 . S
C4609 C4608 1.391 . S
C4610 H4600 0.950 . S
C4610 C4611 1.386 . S
C4610 C4612 1.391 . S
C4611 C4610 1.386 . S
C4611 C4615 1.393 . S
C4612 H4601 0.950 . S
C4612 C4610 1.391 . S
C4612 C4613 1.400 1_554 S
C4613 C4607 1.491 . S
C4613 C4612 1.400 1_556 S
C4613 C4614 1.398 . S
C4614 H4602 0.950 . S
C4614 C4613 1.398 . S
C4614 C4615 1.391 1_556 S
C4615 H4603 0.950 . S
C4615 C4611 1.393 . S
C4615 C4614 1.391 1_554 S
H4616 C4624 0.950 . S
H4617 C4629 0.950 . S
H4618 C4626 0.950 . S
H4619 C4628 0.950 . S
H4620 C4630 0.950 . S
H4621 C4632 0.950 . S
H4622 C4634 0.950 . S
H4623 C4635 0.950 . S
C4624 H4616 0.950 . S
C4624 C4625 1.386 . S
C4624 C4626 1.391 . S
C4625 C4624 1.386 . S
C4625 C4629 1.393 . S
C4626 H4618 0.950 . S
C4626 C4624 1.391 . S
C4626 C4627 1.400 . S
C4627 C4626 1.400 . S
C4627 C4628 1.398 . S
C4627 C4633 1.491 . S
C4628 H4619 0.950 . S
C4628 C4627 1.398 . S
C4628 C4629 1.391 . S
C4629 H4617 0.950 . S
C4629 C4625 1.393 . S
C4629 C4628 1.391 . S
C4630 H4620 0.950 . S
C4630 C4631 1.386 . S
C4630 C4632 1.391 . S
C4631 C4630 1.386 . S
C4631 C4635 1.393 . S
C4632 H4621 0.950 . S
C4632 C4630 1.391 . S
C4632 C4633 1.400 . S
C4633 C4627 1.491 . S
C4633 C4632 1.400 . S
C4633 C4634 1.398 . S
C4634 H4622 0.950 . S
C4634 C4633 1.398 . S
C4634 C4635 1.391 . S
C4635 H4623 0.950 . S
C4635 C4631 1.393 . S
C4635 C4634 1.391 . S
H4636 C4644 0.950 . S
H4637 C4649 0.950 . S
H4638 C4646 0.950 . S
H4639 C4648 0.950 . S
H4640 C4650 0.950 . S
H4641 C4652 0.950 . S
H4642 C4654 0.950 . S
H4643 C4655 0.950 . S
C4644 H4636 0.950 . S
C4644 C4645 1.386 . S
C4644 C4646 1.391 . S
C4645 C4644 1.386 . S
C4645 C4649 1.393 . S
C4646 H4638 0.950 . S
C4646 C4644 1.391 . S
C4646 C4647 1.400 . S
C4647 C4646 1.400 . S
C4647 C4648 1.398 . S
C4647 C4653 1.491 . S
C4648 H4639 0.950 . S
C4648 C4647 1.398 . S
C4648 C4649 1.391 . S
C4649 H4637 0.950 . S
C4649 C4645 1.393 . S
C4649 C4648 1.391 . S
C4650 H4640 0.950 . S
C4650 C4651 1.386 . S
C4650 C4652 1.391 . S
C4651 C4650 1.386 . S
C4651 C4655 1.393 . S
C4652 H4641 0.950 . S
C4652 C4650 1.391 . S
C4652 C4653 1.400 . S
C4653 C4647 1.491 . S
C4653 C4652 1.400 . S
C4653 C4654 1.398 . S
C4654 H4642 0.950 . S
C4654 C4653 1.398 . S
C4654 C4655 1.391 . S
C4655 H4643 0.950 . S
C4655 C4651 1.393 . S
C4655 C4654 1.391 . S
H4656 C4664 0.950 . S
H4657 C4669 0.950 . S
H4658 C4666 0.950 . S
H4659 C4668 0.950 . S
H4660 C4670 0.950 . S
H4661 C4672 0.950 . S
H4662 C4674 0.950 . S
H4663 C4675 0.950 . S
C4664 H4656 0.950 . S
C4664 C4665 1.386 . S
C4664 C4666 1.391 . S
C4665 C4664 1.386 . S
C4665 C4669 1.393 . S
C4666 H4658 0.950 . S
C4666 C4664 1.391 . S
C4666 C4667 1.400 . S
C4667 C4666 1.400 . S
C4667 C4668 1.398 . S
C4667 C4673 1.491 . S
C4668 H4659 0.950 . S
C4668 C4667 1.398 . S
C4668 C4669 1.391 . S
C4669 H4657 0.950 . S
C4669 C4665 1.393 . S
C4669 C4668 1.391 . S
C4670 H4660 0.950 . S
C4670 C4671 1.386 . S
C4670 C4672 1.391 . S
C4671 C4670 1.386 . S
C4671 C4675 1.393 . S
C4672 H4661 0.950 . S
C4672 C4670 1.391 . S
C4672 C4673 1.400 . S
C4673 C4667 1.491 . S
C4673 C4672 1.400 . S
C4673 C4674 1.398 . S
C4674 H4662 0.950 . S
C4674 C4673 1.398 . S
C4674 C4675 1.391 . S
C4675 H4663 0.950 . S
C4675 C4671 1.393 . S
C4675 C4674 1.391 . S
H4676 C4684 0.950 . S
H4677 C4689 0.950 . S
H4678 C4686 0.950 . S
H4679 C4688 0.950 . S
H4680 C4690 0.950 . S
H4681 C4692 0.950 . S
H4682 C4694 0.950 . S
H4683 C4695 0.950 . S
C4684 H4676 0.950 . S
C4684 C4685 1.386 . S
C4684 C4686 1.391 . S
C4685 C4684 1.386 . S
C4685 C4689 1.393 . S
C4686 H4678 0.950 . S
C4686 C4684 1.391 . S
C4686 C4687 1.400 . S
C4687 C4686 1.400 . S
C4687 C4688 1.398 . S
C4687 C4693 1.491 . S
C4688 H4679 0.950 . S
C4688 C4687 1.398 . S
C4688 C4689 1.391 . S
C4689 H4677 0.950 . S
C4689 C4685 1.393 . S
C4689 C4688 1.391 . S
C4690 H4680 0.950 . S
C4690 C4691 1.386 . S
C4690 C4692 1.391 . S
C4691 C4690 1.386 . S
C4691 C4695 1.393 . S
C4692 H4681 0.950 . S
C4692 C4690 1.391 . S
C4692 C4693 1.400 1_556 S
C4693 C4687 1.491 . S
C4693 C4692 1.400 1_554 S
C4693 C4694 1.398 . S
C4694 H4682 0.950 . S
C4694 C4693 1.398 . S
C4694 C4695 1.391 1_554 S
C4695 H4683 0.950 . S
C4695 C4691 1.393 . S
C4695 C4694 1.391 1_556 S
H4696 C4704 0.950 . S
H4697 C4709 0.950 . S
H4698 C4706 0.950 . S
H4699 C4708 0.950 . S
H4700 C4710 0.950 . S
H4701 C4712 0.950 . S
H4702 C4714 0.950 . S
H4703 C4715 0.950 . S
C4704 H4696 0.950 . S
C4704 C4705 1.386 . S
C4704 C4706 1.391 . S
C4705 C4704 1.386 . S
C4705 C4709 1.393 . S
C4706 H4698 0.950 . S
C4706 C4704 1.391 . S
C4706 C4707 1.400 . S
C4707 C4706 1.400 . S
C4707 C4708 1.398 . S
C4707 C4713 1.491 . S
C4708 H4699 0.950 . S
C4708 C4707 1.398 . S
C4708 C4709 1.391 . S
C4709 H4697 0.950 . S
C4709 C4705 1.393 . S
C4709 C4708 1.391 . S
C4710 H4700 0.950 . S
C4710 C4711 1.386 . S
C4710 C4712 1.391 . S
C4711 C4710 1.386 . S
C4711 C4715 1.393 . S
C4712 H4701 0.950 . S
C4712 C4710 1.391 . S
C4712 C4713 1.400 . S
C4713 C4707 1.491 . S
C4713 C4712 1.400 . S
C4713 C4714 1.398 . S
C4714 H4702 0.950 . S
C4714 C4713 1.398 . S
C4714 C4715 1.391 . S
C4715 H4703 0.950 . S
C4715 C4711 1.393 . S
C4715 C4714 1.391 . S
H4716 C4724 0.950 . S
H4717 C4729 0.950 . S
H4718 C4726 0.950 . S
H4719 C4728 0.950 . S
H4720 C4730 0.950 . S
H4721 C4732 0.950 . S
H4722 C4734 0.950 . S
H4723 C4735 0.950 . S
C4724 H4716 0.950 . S
C4724 C4725 1.386 . S
C4724 C4726 1.391 . S
C4725 C4724 1.386 . S
C4725 C4729 1.393 . S
C4726 H4718 0.950 . S
C4726 C4724 1.391 . S
C4726 C4727 1.400 . S
C4727 C4726 1.400 . S
C4727 C4728 1.398 . S
C4727 C4733 1.491 . S
C4728 H4719 0.950 . S
C4728 C4727 1.398 . S
C4728 C4729 1.391 . S
C4729 H4717 0.950 . S
C4729 C4725 1.393 . S
C4729 C4728 1.391 . S
C4730 H4720 0.950 . S
C4730 C4731 1.386 . S
C4730 C4732 1.391 . S
C4731 C4730 1.386 . S
C4731 C4735 1.393 . S
C4732 H4721 0.950 . S
C4732 C4730 1.391 . S
C4732 C4733 1.400 . S
C4733 C4727 1.491 . S
C4733 C4732 1.400 . S
C4733 C4734 1.398 . S
C4734 H4722 0.950 . S
C4734 C4733 1.398 . S
C4734 C4735 1.391 . S
C4735 H4723 0.950 . S
C4735 C4731 1.393 . S
C4735 C4734 1.391 . S
H4736 C4744 0.950 . S
H4737 C4749 0.950 . S
H4738 C4746 0.950 . S
H4739 C4748 0.950 . S
H4740 C4750 0.950 . S
H4741 C4752 0.950 . S
H4742 C4754 0.950 . S
H4743 C4755 0.950 . S
C4744 H4736 0.950 . S
C4744 C4745 1.386 . S
C4744 C4746 1.391 . S
C4745 C4744 1.386 . S
C4745 C4749 1.393 . S
C4746 H4738 0.950 . S
C4746 C4744 1.391 . S
C4746 C4747 1.400 . S
C4747 C4746 1.400 . S
C4747 C4748 1.398 . S
C4747 C4753 1.491 . S
C4748 H4739 0.950 . S
C4748 C4747 1.398 . S
C4748 C4749 1.391 . S
C4749 H4737 0.950 . S
C4749 C4745 1.393 . S
C4749 C4748 1.391 . S
C4750 H4740 0.950 . S
C4750 C4751 1.386 . S
C4750 C4752 1.391 . S
C4751 C4750 1.386 . S
C4751 C4755 1.393 . S
C4752 H4741 0.950 . S
C4752 C4750 1.391 . S
C4752 C4753 1.400 . S
C4753 C4747 1.491 . S
C4753 C4752 1.400 . S
C4753 C4754 1.398 . S
C4754 H4742 0.950 . S
C4754 C4753 1.398 . S
C4754 C4755 1.391 . S
C4755 H4743 0.950 . S
C4755 C4751 1.393 . S
C4755 C4754 1.391 . S
H4756 C4764 0.950 . S
H4757 C4769 0.950 . S
H4758 C4766 0.950 . S
H4759 C4768 0.950 . S
H4760 C4770 0.950 . S
H4761 C4772 0.950 . S
H4762 C4774 0.950 . S
H4763 C4775 0.950 . S
C4764 H4756 0.950 . S
C4764 C4765 1.386 . S
C4764 C4766 1.391 . S
C4765 C4764 1.386 . S
C4765 C4769 1.393 . S
C4766 H4758 0.950 . S
C4766 C4764 1.391 . S
C4766 C4767 1.400 . S
C4767 C4766 1.400 . S
C4767 C4768 1.398 . S
C4767 C4773 1.491 . S
C4768 H4759 0.950 . S
C4768 C4767 1.398 . S
C4768 C4769 1.391 . S
C4769 H4757 0.950 . S
C4769 C4765 1.393 . S
C4769 C4768 1.391 . S
C4770 H4760 0.950 . S
C4770 C4771 1.386 . S
C4770 C4772 1.391 . S
C4771 C4770 1.386 . S
C4771 C4775 1.393 . S
C4772 H4761 0.950 . S
C4772 C4770 1.391 . S
C4772 C4773 1.400 . S
C4773 C4767 1.491 . S
C4773 C4772 1.400 . S
C4773 C4774 1.398 . S
C4774 H4762 0.950 . S
C4774 C4773 1.398 . S
C4774 C4775 1.391 . S
C4775 H4763 0.950 . S
C4775 C4771 1.393 . S
C4775 C4774 1.391 . S
H4776 C4784 0.950 . S
H4777 C4789 0.950 . S
H4778 C4786 0.950 . S
H4779 C4788 0.950 . S
H4780 C4790 0.950 . S
H4781 C4792 0.950 . S
H4782 C4794 0.950 . S
H4783 C4795 0.950 . S
C4784 H4776 0.950 . S
C4784 C4785 1.386 . S
C4784 C4786 1.391 . S
C4785 C4784 1.386 . S
C4785 C4789 1.393 . S
C4786 H4778 0.950 . S
C4786 C4784 1.391 . S
C4786 C4787 1.400 . S
C4787 C4786 1.400 . S
C4787 C4788 1.398 . S
C4787 C4793 1.491 . S
C4788 H4779 0.950 . S
C4788 C4787 1.398 . S
C4788 C4789 1.391 . S
C4789 H4777 0.950 . S
C4789 C4785 1.393 . S
C4789 C4788 1.391 . S
C4790 H4780 0.950 . S
C4790 C4791 1.386 . S
C4790 C4792 1.391 1_545 S
C4791 C4790 1.386 . S
C4791 C4795 1.393 . S
C4792 H4781 0.950 . S
C4792 C4790 1.391 1_565 S
C4792 C4793 1.400 . S
C4793 C4787 1.491 . S
C4793 C4792 1.400 . S
C4793 C4794 1.398 1_565 S
C4794 H4782 0.950 . S
C4794 C4793 1.398 1_545 S
C4794 C4795 1.391 . S
C4795 H4783 0.950 . S
C4795 C4791 1.393 . S
C4795 C4794 1.391 . S
H4796 C4804 0.950 . S
H4797 C4809 0.950 . S
H4798 C4806 0.950 . S
H4799 C4808 0.950 . S
H4800 C4810 0.950 . S
H4801 C4812 0.950 . S
H4802 C4814 0.950 . S
H4803 C4815 0.950 . S
C4804 H4796 0.950 . S
C4804 C4805 1.386 . S
C4804 C4806 1.391 . S
C4805 C4804 1.386 . S
C4805 C4809 1.393 . S
C4806 H4798 0.950 . S
C4806 C4804 1.391 . S
C4806 C4807 1.400 . S
C4807 C4806 1.400 . S
C4807 C4808 1.398 . S
C4807 C4813 1.491 . S
C4808 H4799 0.950 . S
C4808 C4807 1.398 . S
C4808 C4809 1.391 . S
C4809 H4797 0.950 . S
C4809 C4805 1.393 . S
C4809 C4808 1.391 . S
C4810 H4800 0.950 . S
C4810 C4811 1.386 . S
C4810 C4812 1.391 . S
C4811 C4810 1.386 . S
C4811 C4815 1.393 . S
C4812 H4801 0.950 . S
C4812 C4810 1.391 . S
C4812 C4813 1.400 . S
C4813 C4807 1.491 . S
C4813 C4812 1.400 . S
C4813 C4814 1.398 . S
C4814 H4802 0.950 . S
C4814 C4813 1.398 . S
C4814 C4815 1.391 . S
C4815 H4803 0.950 . S
C4815 C4811 1.393 . S
C4815 C4814 1.391 . S
H4816 C4824 0.950 . S
H4817 C4829 0.950 . S
H4818 C4826 0.950 . S
H4819 C4828 0.950 . S
H4820 C4830 0.950 . S
H4821 C4832 0.950 . S
H4822 C4834 0.950 . S
H4823 C4835 0.950 . S
C4824 H4816 0.950 . S
C4824 C4825 1.386 . S
C4824 C4826 1.391 . S
C4825 C4824 1.386 . S
C4825 C4829 1.393 . S
C4826 H4818 0.950 . S
C4826 C4824 1.391 . S
C4826 C4827 1.400 . S
C4827 C4826 1.400 . S
C4827 C4828 1.398 . S
C4827 C4833 1.491 . S
C4828 H4819 0.950 . S
C4828 C4827 1.398 . S
C4828 C4829 1.391 . S
C4829 H4817 0.950 . S
C4829 C4825 1.393 . S
C4829 C4828 1.391 . S
C4830 H4820 0.950 . S
C4830 C4831 1.386 . S
C4830 C4832 1.391 . S
C4831 C4830 1.386 . S
C4831 C4835 1.393 . S
C4832 H4821 0.950 . S
C4832 C4830 1.391 . S
C4832 C4833 1.400 . S
C4833 C4827 1.491 . S
C4833 C4832 1.400 . S
C4833 C4834 1.398 . S
C4834 H4822 0.950 . S
C4834 C4833 1.398 . S
C4834 C4835 1.391 . S
C4835 H4823 0.950 . S
C4835 C4831 1.393 . S
C4835 C4834 1.391 . S
H4836 C4844 0.950 . S
H4837 C4849 0.950 . S
H4838 C4846 0.950 . S
H4839 C4848 0.950 . S
H4840 C4850 0.950 . S
H4841 C4852 0.950 . S
H4842 C4854 0.950 . S
H4843 C4855 0.950 . S
C4844 H4836 0.950 . S
C4844 C4845 1.386 . S
C4844 C4846 1.391 . S
C4845 C4844 1.386 . S
C4845 C4849 1.393 . S
C4846 H4838 0.950 . S
C4846 C4844 1.391 . S
C4846 C4847 1.400 . S
C4847 C4846 1.400 . S
C4847 C4848 1.398 . S
C4847 C4853 1.491 . S
C4848 H4839 0.950 . S
C4848 C4847 1.398 . S
C4848 C4849 1.391 . S
C4849 H4837 0.950 . S
C4849 C4845 1.393 . S
C4849 C4848 1.391 . S
C4850 H4840 0.950 . S
C4850 C4851 1.386 . S
C4850 C4852 1.391 . S
C4851 C4850 1.386 . S
C4851 C4855 1.393 . S
C4852 H4841 0.950 . S
C4852 C4850 1.391 . S
C4852 C4853 1.400 . S
C4853 C4847 1.491 . S
C4853 C4852 1.400 . S
C4853 C4854 1.398 . S
C4854 H4842 0.950 . S
C4854 C4853 1.398 . S
C4854 C4855 1.391 . S
C4855 H4843 0.950 . S
C4855 C4851 1.393 . S
C4855 C4854 1.391 . S
H4856 C4864 0.950 . S
H4857 C4869 0.950 . S
H4858 C4866 0.950 . S
H4859 C4868 0.950 . S
H4860 C4870 0.950 . S
H4861 C4872 0.950 . S
H4862 C4874 0.950 . S
H4863 C4875 0.950 . S
C4864 H4856 0.950 . S
C4864 C4865 1.386 . S
C4864 C4866 1.391 . S
C4865 C4864 1.386 . S
C4865 C4869 1.393 . S
C4866 H4858 0.950 . S
C4866 C4864 1.391 . S
C4866 C4867 1.400 1_565 S
C4867 C4866 1.400 1_545 S
C4867 C4868 1.398 . S
C4867 C4873 1.491 . S
C4868 H4859 0.950 . S
C4868 C4867 1.398 . S
C4868 C4869 1.391 1_545 S
C4869 H4857 0.950 . S
C4869 C4865 1.393 . S
C4869 C4868 1.391 1_565 S
C4870 H4860 0.950 . S
C4870 C4871 1.386 . S
C4870 C4872 1.391 . S
C4871 C4870 1.386 . S
C4871 C4875 1.393 . S
C4872 H4861 0.950 . S
C4872 C4870 1.391 . S
C4872 C4873 1.400 . S
C4873 C4867 1.491 . S
C4873 C4872 1.400 . S
C4873 C4874 1.398 . S
C4874 H4862 0.950 . S
C4874 C4873 1.398 . S
C4874 C4875 1.391 . S
C4875 H4863 0.950 . S
C4875 C4871 1.393 . S
C4875 C4874 1.391 . S
H4876 C4884 0.950 . S
H4877 C4889 0.950 1_565 S
H4878 C4886 0.950 . S
H4879 C4888 0.950 . S
H4880 C4890 0.950 . S
H4881 C4892 0.950 . S
H4882 C4894 0.950 . S
H4883 C4895 0.950 . S
C4884 H4876 0.950 . S
C4884 C4885 1.386 . S
C4884 C4886 1.391 . S
C4885 C4884 1.386 . S
C4885 C4889 1.393 . S
C4886 H4878 0.950 . S
C4886 C4884 1.391 . S
C4886 C4887 1.400 1_545 S
C4887 C4886 1.400 1_565 S
C4887 C4888 1.398 . S
C4887 C4893 1.491 . S
C4888 H4879 0.950 . S
C4888 C4887 1.398 . S
C4888 C4889 1.391 1_565 S
C4889 H4877 0.950 1_545 S
C4889 C4885 1.393 . S
C4889 C4888 1.391 1_545 S
C4890 H4880 0.950 . S
C4890 C4891 1.386 . S
C4890 C4892 1.391 . S
C4891 C4890 1.386 . S
C4891 C4895 1.393 . S
C4892 H4881 0.950 . S
C4892 C4890 1.391 . S
C4892 C4893 1.400 . S
C4893 C4887 1.491 . S
C4893 C4892 1.400 . S
C4893 C4894 1.398 . S
C4894 H4882 0.950 . S
C4894 C4893 1.398 . S
C4894 C4895 1.391 . S
C4895 H4883 0.950 . S
C4895 C4891 1.393 . S
C4895 C4894 1.391 . S
H4896 C4904 0.950 . S
H4897 C4909 0.950 . S
H4898 C4906 0.950 . S
H4899 C4908 0.950 . S
H4900 C4910 0.950 . S
H4901 C4912 0.950 . S
H4902 C4914 0.950 . S
H4903 C4915 0.950 . S
C4904 H4896 0.950 . S
C4904 C4905 1.386 . S
C4904 C4906 1.391 . S
C4905 C4904 1.386 . S
C4905 C4909 1.393 . S
C4906 H4898 0.950 . S
C4906 C4904 1.391 . S
C4906 C4907 1.400 . S
C4907 C4906 1.400 . S
C4907 C4908 1.398 . S
C4907 C4913 1.491 . S
C4908 H4899 0.950 . S
C4908 C4907 1.398 . S
C4908 C4909 1.391 . S
C4909 H4897 0.950 . S
C4909 C4905 1.393 . S
C4909 C4908 1.391 . S
C4910 H4900 0.950 . S
C4910 C4911 1.386 . S
C4910 C4912 1.391 . S
C4911 C4910 1.386 . S
C4911 C4915 1.393 . S
C4912 H4901 0.950 . S
C4912 C4910 1.391 . S
C4912 C4913 1.400 . S
C4913 C4907 1.491 . S
C4913 C4912 1.400 . S
C4913 C4914 1.398 . S
C4914 H4902 0.950 . S
C4914 C4913 1.398 . S
C4914 C4915 1.391 . S
C4915 H4903 0.950 . S
C4915 C4911 1.393 . S
C4915 C4914 1.391 . S
H4916 C4924 0.950 . S
H4917 C4929 0.950 . S
H4918 C4926 0.950 . S
H4919 C4928 0.950 . S
H4920 C4930 0.950 . S
H4921 C4932 0.950 . S
H4922 C4934 0.950 . S
H4923 C4935 0.950 . S
C4924 H4916 0.950 . S
C4924 C4925 1.386 . S
C4924 C4926 1.391 . S
C4925 C4924 1.386 . S
C4925 C4929 1.393 . S
C4926 H4918 0.950 . S
C4926 C4924 1.391 . S
C4926 C4927 1.400 . S
C4927 C4926 1.400 . S
C4927 C4928 1.398 . S
C4927 C4933 1.491 . S
C4928 H4919 0.950 . S
C4928 C4927 1.398 . S
C4928 C4929 1.391 . S
C4929 H4917 0.950 . S
C4929 C4925 1.393 . S
C4929 C4928 1.391 . S
C4930 H4920 0.950 . S
C4930 C4931 1.386 . S
C4930 C4932 1.391 . S
C4931 C4930 1.386 . S
C4931 C4935 1.393 . S
C4932 H4921 0.950 . S
C4932 C4930 1.391 . S
C4932 C4933 1.400 . S
C4933 C4927 1.491 . S
C4933 C4932 1.400 . S
C4933 C4934 1.398 . S
C4934 H4922 0.950 . S
C4934 C4933 1.398 . S
C4934 C4935 1.391 . S
C4935 H4923 0.950 . S
C4935 C4931 1.393 . S
C4935 C4934 1.391 . S
H4936 C4944 0.950 . S
H4937 C4949 0.950 . S
H4938 C4946 0.950 . S
H4939 C4948 0.950 . S
H4940 C4950 0.950 . S
H4941 C4952 0.950 . S
H4942 C4954 0.950 . S
H4943 C4955 0.950 . S
C4944 H4936 0.950 . S
C4944 C4945 1.386 . S
C4944 C4946 1.391 . S
C4945 C4944 1.386 . S
C4945 C4949 1.393 . S
C4946 H4938 0.950 . S
C4946 C4944 1.391 . S
C4946 C4947 1.400 . S
C4947 C4946 1.400 . S
C4947 C4948 1.398 . S
C4947 C4953 1.491 . S
C4948 H4939 0.950 . S
C4948 C4947 1.398 . S
C4948 C4949 1.391 . S
C4949 H4937 0.950 . S
C4949 C4945 1.393 . S
C4949 C4948 1.391 . S
C4950 H4940 0.950 . S
C4950 C4951 1.386 . S
C4950 C4952 1.391 . S
C4951 C4950 1.386 . S
C4951 C4955 1.393 . S
C4952 H4941 0.950 . S
C4952 C4950 1.391 . S
C4952 C4953 1.400 . S
C4953 C4947 1.491 . S
C4953 C4952 1.400 . S
C4953 C4954 1.398 . S
C4954 H4942 0.950 . S
C4954 C4953 1.398 . S
C4954 C4955 1.391 . S
C4955 H4943 0.950 . S
C4955 C4951 1.393 . S
C4955 C4954 1.391 . S
H4956 C4964 0.950 . S
H4957 C4969 0.950 . S
H4958 C4966 0.950 . S
H4959 C4968 0.950 . S
H4960 C4970 0.950 . S
H4961 C4972 0.966 . S
H4962 C4974 0.950 . S
H4963 C4975 0.950 . S
C4964 H4956 0.950 . S
C4964 C4965 1.386 . S
C4964 C4966 1.391 . S
C4965 C4964 1.386 . S
C4965 C4969 1.393 . S
C4966 H4958 0.950 . S
C4966 C4964 1.391 . S
C4966 C4967 1.400 . S
C4967 C4966 1.400 . S
C4967 C4968 1.398 . S
C4967 C4973 1.491 . S
C4968 H4959 0.950 . S
C4968 C4967 1.398 . S
C4968 C4969 1.391 . S
C4969 H4957 0.950 . S
C4969 C4965 1.393 . S
C4969 C4968 1.391 . S
C4970 H4960 0.950 . S
C4970 C4971 1.386 . S
C4970 C4972 1.355 1_655 S
C4971 C4970 1.386 . S
C4971 C4975 1.393 . S
C4972 H4961 0.966 . S
C4972 C4970 1.355 1_455 S
C4972 C4973 1.422 . S
C4973 C4967 1.491 . S
C4973 C4972 1.422 . S
C4973 C4974 1.398 . S
C4974 H4962 0.950 . S
C4974 C4973 1.398 . S
C4974 C4975 1.391 1_455 S
C4975 H4963 0.950 . S
C4975 C4971 1.393 . S
C4975 C4974 1.391 1_655 S
H4976 C4984 0.950 . S
H4977 C4989 0.950 . S
H4978 C4986 0.950 . S
H4979 C4988 0.950 . S
H4980 C4990 0.950 . S
H4981 C4992 0.950 . S
H4982 C4994 0.950 . S
H4983 C4995 0.950 . S
C4984 H4976 0.950 . S
C4984 C4985 1.386 . S
C4984 C4986 1.391 . S
C4985 C4984 1.386 . S
C4985 C4989 1.393 . S
C4986 H4978 0.950 . S
C4986 C4984 1.391 . S
C4986 C4987 1.400 . S
C4987 C4986 1.400 . S
C4987 C4988 1.398 . S
C4987 C4993 1.491 . S
C4988 H4979 0.950 . S
C4988 C4987 1.398 . S
C4988 C4989 1.391 . S
C4989 H4977 0.950 . S
C4989 C4985 1.393 . S
C4989 C4988 1.391 . S
C4990 H4980 0.950 . S
C4990 C4991 1.386 . S
C4990 C4992 1.391 . S
C4991 C4990 1.386 . S
C4991 C4995 1.393 . S
C4992 H4981 0.950 . S
C4992 C4990 1.391 . S
C4992 C4993 1.400 . S
C4993 C4987 1.491 . S
C4993 C4992 1.400 . S
C4993 C4994 1.398 . S
C4994 H4982 0.950 . S
C4994 C4993 1.398 . S
C4994 C4995 1.391 . S
C4995 H4983 0.950 . S
C4995 C4991 1.393 . S
C4995 C4994 1.391 . S
H4996 C5004 0.950 . S
H4997 C5009 0.938 1_455 S
H4998 C5006 0.950 . S
H4999 C5008 0.950 . S
H5000 C5010 0.950 . S
H5001 C5012 0.950 . S
H5002 C5014 0.950 . S
H5003 C5015 0.950 . S
C5004 H4996 0.950 . S
C5004 C5005 1.386 . S
C5004 C5006 1.391 . S
C5005 C5004 1.386 . S
C5005 C5009 1.449 . S
C5006 H4998 0.950 . S
C5006 C5004 1.391 . S
C5006 C5007 1.400 1_655 S
C5007 C5006 1.400 1_455 S
C5007 C5008 1.398 . S
C5007 C5013 1.491 . S
C5008 H4999 0.950 . S
C5008 C5007 1.398 . S
C5008 C5009 1.349 1_455 S
C5009 H4997 0.938 1_655 S
C5009 C5005 1.449 . S
C5009 C5008 1.349 1_655 S
C5010 H5000 0.950 . S
C5010 C5011 1.386 . S
C5010 C5012 1.391 . S
C5011 C5010 1.386 . S
C5011 C5015 1.393 . S
C5012 H5001 0.950 . S
C5012 C5010 1.391 . S
C5012 C5013 1.400 . S
C5013 C5007 1.491 . S
C5013 C5012 1.400 . S
C5013 C5014 1.398 . S
C5014 H5002 0.950 . S
C5014 C5013 1.398 . S
C5014 C5015 1.391 . S
C5015 H5003 0.950 . S
C5015 C5011 1.393 . S
C5015 C5014 1.391 . S
H5016 C5024 0.950 . S
H5017 C5029 0.950 . S
H5018 C5026 0.950 . S
H5019 C5028 0.950 . S
H5020 C5030 0.950 . S
H5021 C5032 0.950 . S
H5022 C5034 0.950 . S
H5023 C5035 0.950 . S
C5024 H5016 0.950 . S
C5024 C5025 1.386 . S
C5024 C5026 1.391 . S
C5025 C5024 1.386 . S
C5025 C5029 1.393 . S
C5026 H5018 0.950 . S
C5026 C5024 1.391 . S
C5026 C5027 1.400 . S
C5027 C5026 1.400 . S
C5027 C5028 1.398 . S
C5027 C5033 1.491 . S
C5028 H5019 0.950 . S
C5028 C5027 1.398 . S
C5028 C5029 1.391 . S
C5029 H5017 0.950 . S
C5029 C5025 1.393 . S
C5029 C5028 1.391 . S
C5030 H5020 0.950 . S
C5030 C5031 1.386 . S
C5030 C5032 1.391 . S
C5031 C5030 1.386 . S
C5031 C5035 1.393 . S
C5032 H5021 0.950 . S
C5032 C5030 1.391 . S
C5032 C5033 1.400 . S
C5033 C5027 1.491 . S
C5033 C5032 1.400 . S
C5033 C5034 1.398 . S
C5034 H5022 0.950 . S
C5034 C5033 1.398 . S
C5034 C5035 1.391 . S
C5035 H5023 0.950 . S
C5035 C5031 1.393 . S
C5035 C5034 1.391 . S
H5036 C5044 0.950 . S
H5037 C5049 0.950 . S
H5038 C5046 0.950 . S
H5039 C5048 0.950 . S
H5040 C5050 0.950 . S
H5041 C5052 0.950 . S
H5042 C5054 0.950 . S
H5043 C5055 0.950 . S
C5044 H5036 0.950 . S
C5044 C5045 1.386 . S
C5044 C5046 1.391 . S
C5045 C5044 1.386 . S
C5045 C5049 1.393 . S
C5046 H5038 0.950 . S
C5046 C5044 1.391 . S
C5046 C5047 1.400 . S
C5047 C5046 1.400 . S
C5047 C5048 1.398 . S
C5047 C5053 1.491 . S
C5048 H5039 0.950 . S
C5048 C5047 1.398 . S
C5048 C5049 1.391 . S
C5049 H5037 0.950 . S
C5049 C5045 1.393 . S
C5049 C5048 1.391 . S
C5050 H5040 0.950 . S
C5050 C5051 1.386 . S
C5050 C5052 1.391 . S
C5051 C5050 1.386 . S
C5051 C5055 1.393 . S
C5052 H5041 0.950 . S
C5052 C5050 1.391 . S
C5052 C5053 1.400 . S
C5053 C5047 1.491 . S
C5053 C5052 1.400 . S
C5053 C5054 1.398 . S
C5054 H5042 0.950 . S
C5054 C5053 1.398 . S
C5054 C5055 1.391 . S
C5055 H5043 0.950 . S
C5055 C5051 1.393 . S
C5055 C5054 1.391 . S
H5056 C5064 0.950 . S
H5057 C5069 0.950 . S
H5058 C5066 0.950 . S
H5059 C5068 0.950 . S
H5060 C5070 0.950 . S
H5061 C5072 0.950 . S
H5062 C5074 0.950 . S
H5063 C5075 0.950 . S
C5064 H5056 0.950 . S
C5064 C5065 1.386 . S
C5064 C5066 1.391 . S
C5065 C5064 1.386 . S
C5065 C5069 1.393 . S
C5066 H5058 0.950 . S
C5066 C5064 1.391 . S
C5066 C5067 1.400 . S
C5067 C5066 1.400 . S
C5067 C5068 1.398 . S
C5067 C5073 1.491 . S
C5068 H5059 0.950 . S
C5068 C5067 1.398 . S
C5068 C5069 1.391 . S
C5069 H5057 0.950 . S
C5069 C5065 1.393 . S
C5069 C5068 1.391 . S
C5070 H5060 0.950 . S
C5070 C5071 1.386 . S
C5070 C5072 1.391 . S
C5071 C5070 1.386 . S
C5071 C5075 1.393 . S
C5072 H5061 0.950 . S
C5072 C5070 1.391 . S
C5072 C5073 1.400 . S
C5073 C5067 1.491 . S
C5073 C5072 1.400 . S
C5073 C5074 1.398 . S
C5074 H5062 0.950 . S
C5074 C5073 1.398 . S
C5074 C5075 1.391 . S
C5075 H5063 0.950 . S
C5075 C5071 1.393 . S
C5075 C5074 1.391 . S
H5076 C5084 0.950 . S
H5077 C5089 0.950 . S
H5078 C5086 0.950 . S
H5079 C5088 0.950 . S
H5080 C5090 0.950 . S
H5081 C5092 0.950 . S
H5082 C5094 0.950 . S
H5083 C5095 0.950 . S
C5084 H5076 0.950 . S
C5084 C5085 1.386 . S
C5084 C5086 1.391 1_556 S
C5085 C5084 1.386 . S
C5085 C5089 1.393 . S
C5086 H5078 0.950 . S
C5086 C5084 1.391 1_554 S
C5086 C5087 1.400 . S
C5087 C5086 1.400 . S
C5087 C5088 1.398 . S
C5087 C5093 1.491 . S
C5088 H5079 0.950 . S
C5088 C5087 1.398 . S
C5088 C5089 1.391 1_554 S
C5089 H5077 0.950 . S
C5089 C5085 1.393 . S
C5089 C5088 1.391 1_556 S
C5090 H5080 0.950 . S
C5090 C5091 1.386 . S
C5090 C5092 1.391 . S
C5091 C5090 1.386 . S
C5091 C5095 1.393 . S
C5092 H5081 0.950 . S
C5092 C5090 1.391 . S
C5092 C5093 1.400 . S
C5093 C5087 1.491 . S
C5093 C5092 1.400 . S
C5093 C5094 1.398 . S
C5094 H5082 0.950 . S
C5094 C5093 1.398 . S
C5094 C5095 1.391 . S
C5095 H5083 0.950 . S
C5095 C5091 1.393 . S
C5095 C5094 1.391 . S
H5096 C5104 0.950 . S
H5097 C5109 0.950 . S
H5098 C5106 0.950 . S
H5099 C5108 0.950 . S
H5100 C5110 0.950 . S
H5101 C5112 0.950 . S
H5102 C5114 0.950 . S
H5103 C5115 0.950 . S
C5104 H5096 0.950 . S
C5104 C5105 1.386 . S
C5104 C5106 1.391 . S
C5105 C5104 1.386 . S
C5105 C5109 1.393 . S
C5106 H5098 0.950 . S
C5106 C5104 1.391 . S
C5106 C5107 1.400 . S
C5107 C5106 1.400 . S
C5107 C5108 1.398 . S
C5107 C5113 1.491 . S
C5108 H5099 0.950 . S
C5108 C5107 1.398 . S
C5108 C5109 1.391 . S
C5109 H5097 0.950 . S
C5109 C5105 1.393 . S
C5109 C5108 1.391 . S
C5110 H5100 0.950 . S
C5110 C5111 1.386 . S
C5110 C5112 1.391 . S
C5111 C5110 1.386 . S
C5111 C5115 1.393 . S
C5112 H5101 0.950 . S
C5112 C5110 1.391 . S
C5112 C5113 1.400 . S
C5113 C5107 1.491 . S
C5113 C5112 1.400 . S
C5113 C5114 1.398 . S
C5114 H5102 0.950 . S
C5114 C5113 1.398 . S
C5114 C5115 1.391 . S
C5115 H5103 0.950 . S
C5115 C5111 1.393 . S
C5115 C5114 1.391 . S
H5116 C5124 0.950 . S
H5117 C5129 0.950 . S
H5118 C5126 0.950 . S
H5119 C5128 0.950 . S
H5120 C5130 0.950 . S
H5121 C5132 0.950 . S
H5122 C5134 0.950 . S
H5123 C5135 0.950 . S
C5124 H5116 0.950 . S
C5124 C5125 1.386 . S
C5124 C5126 1.391 . S
C5125 C5124 1.386 . S
C5125 C5129 1.393 . S
C5126 H5118 0.950 . S
C5126 C5124 1.391 . S
C5126 C5127 1.400 . S
C5127 C5126 1.400 . S
C5127 C5128 1.398 . S
C5127 C5133 1.491 . S
C5128 H5119 0.950 . S
C5128 C5127 1.398 . S
C5128 C5129 1.391 . S
C5129 H5117 0.950 . S
C5129 C5125 1.393 . S
C5129 C5128 1.391 . S
C5130 H5120 0.950 . S
C5130 C5131 1.386 . S
C5130 C5132 1.391 . S
C5131 C5130 1.386 . S
C5131 C5135 1.393 . S
C5132 H5121 0.950 . S
C5132 C5130 1.391 . S
C5132 C5133 1.400 . S
C5133 C5127 1.491 . S
C5133 C5132 1.400 . S
C5133 C5134 1.398 . S
C5134 H5122 0.950 . S
C5134 C5133 1.398 . S
C5134 C5135 1.391 . S
C5135 H5123 0.950 . S
C5135 C5131 1.393 . S
C5135 C5134 1.391 . S
H5136 C5144 0.950 . S
H5137 C5149 0.950 . S
H5138 C5146 0.950 . S
H5139 C5148 0.950 . S
H5140 C5150 0.950 . S
H5141 C5152 0.950 . S
H5142 C5154 0.950 . S
H5143 C5155 0.950 . S
C5144 H5136 0.950 . S
C5144 C5145 1.386 . S
C5144 C5146 1.391 . S
C5145 C5144 1.386 . S
C5145 C5149 1.393 . S
C5146 H5138 0.950 . S
C5146 C5144 1.391 . S
C5146 C5147 1.400 . S
C5147 C5146 1.400 . S
C5147 C5148 1.398 . S
C5147 C5153 1.491 . S
C5148 H5139 0.950 . S
C5148 C5147 1.398 . S
C5148 C5149 1.391 . S
C5149 H5137 0.950 . S
C5149 C5145 1.393 . S
C5149 C5148 1.391 . S
C5150 H5140 0.950 . S
C5150 C5151 1.386 . S
C5150 C5152 1.391 . S
C5151 C5150 1.386 . S
C5151 C5155 1.393 . S
C5152 H5141 0.950 . S
C5152 C5150 1.391 . S
C5152 C5153 1.400 . S
C5153 C5147 1.491 . S
C5153 C5152 1.400 . S
C5153 C5154 1.398 . S
C5154 H5142 0.950 . S
C5154 C5153 1.398 . S
C5154 C5155 1.391 . S
C5155 H5143 0.950 . S
C5155 C5151 1.393 . S
C5155 C5154 1.391 . S
H5156 C5164 0.950 . S
H5157 C5169 0.950 . S
H5158 C5166 0.950 . S
H5159 C5168 0.950 . S
H5160 C5170 0.950 . S
H5161 C5172 0.950 . S
H5162 C5174 0.950 . S
H5163 C5175 0.950 . S
C5164 H5156 0.950 . S
C5164 C5165 1.386 . S
C5164 C5166 1.391 1_554 S
C5165 C5164 1.386 . S
C5165 C5169 1.393 . S
C5166 H5158 0.950 . S
C5166 C5164 1.391 1_556 S
C5166 C5167 1.400 . S
C5167 C5166 1.400 . S
C5167 C5168 1.398 . S
C5167 C5173 1.491 . S
C5168 H5159 0.950 . S
C5168 C5167 1.398 . S
C5168 C5169 1.391 1_556 S
C5169 H5157 0.950 . S
C5169 C5165 1.393 . S
C5169 C5168 1.391 1_554 S
C5170 H5160 0.950 . S
C5170 C5171 1.386 . S
C5170 C5172 1.391 . S
C5171 C5170 1.386 . S
C5171 C5175 1.393 . S
C5172 H5161 0.950 . S
C5172 C5170 1.391 . S
C5172 C5173 1.400 . S
C5173 C5167 1.491 . S
C5173 C5172 1.400 . S
C5173 C5174 1.398 . S
C5174 H5162 0.950 . S
C5174 C5173 1.398 . S
C5174 C5175 1.391 . S
C5175 H5163 0.950 . S
C5175 C5171 1.393 . S
C5175 C5174 1.391 . S
H5176 C5184 0.950 . S
H5177 C5189 0.950 . S
H5178 C5186 0.950 . S
H5179 C5188 0.950 . S
H5180 C5190 0.950 . S
H5181 C5192 0.950 . S
H5182 C5194 0.950 . S
H5183 C5195 0.950 . S
C5184 H5176 0.950 . S
C5184 C5185 1.386 . S
C5184 C5186 1.391 . S
C5185 C5184 1.386 . S
C5185 C5189 1.393 . S
C5186 H5178 0.950 . S
C5186 C5184 1.391 . S
C5186 C5187 1.400 . S
C5187 C5186 1.400 . S
C5187 C5188 1.398 . S
C5187 C5193 1.491 . S
C5188 H5179 0.950 . S
C5188 C5187 1.398 . S
C5188 C5189 1.391 . S
C5189 H5177 0.950 . S
C5189 C5185 1.393 . S
C5189 C5188 1.391 . S
C5190 H5180 0.950 . S
C5190 C5191 1.386 . S
C5190 C5192 1.391 . S
C5191 C5190 1.386 . S
C5191 C5195 1.393 . S
C5192 H5181 0.950 . S
C5192 C5190 1.391 . S
C5192 C5193 1.400 . S
C5193 C5187 1.491 . S
C5193 C5192 1.400 . S
C5193 C5194 1.398 . S
C5194 H5182 0.950 . S
C5194 C5193 1.398 . S
C5194 C5195 1.391 . S
C5195 H5183 0.950 . S
C5195 C5191 1.393 . S
C5195 C5194 1.391 . S
H5196 C5204 0.950 . S
H5197 C5209 0.950 . S
H5198 C5206 0.950 . S
H5199 C5208 0.950 . S
H5200 C5210 0.950 . S
H5201 C5212 0.950 . S
H5202 C5214 0.950 . S
H5203 C5215 0.950 . S
C5204 H5196 0.950 . S
C5204 C5205 1.386 . S
C5204 C5206 1.391 . S
C5205 C5204 1.386 . S
C5205 C5209 1.393 . S
C5206 H5198 0.950 . S
C5206 C5204 1.391 . S
C5206 C5207 1.400 . S
C5207 C5206 1.400 . S
C5207 C5208 1.398 . S
C5207 C5213 1.491 . S
C5208 H5199 0.950 . S
C5208 C5207 1.398 . S
C5208 C5209 1.391 . S
C5209 H5197 0.950 . S
C5209 C5205 1.393 . S
C5209 C5208 1.391 . S
C5210 H5200 0.950 . S
C5210 C5211 1.386 . S
C5210 C5212 1.391 . S
C5211 C5210 1.386 . S
C5211 C5215 1.393 . S
C5212 H5201 0.950 . S
C5212 C5210 1.391 . S
C5212 C5213 1.400 . S
C5213 C5207 1.491 . S
C5213 C5212 1.400 . S
C5213 C5214 1.398 . S
C5214 H5202 0.950 . S
C5214 C5213 1.398 . S
C5214 C5215 1.391 . S
C5215 H5203 0.950 . S
C5215 C5211 1.393 . S
C5215 C5214 1.391 . S
H5216 C5224 0.950 . S
H5217 C5229 0.950 . S
H5218 C5226 0.950 . S
H5219 C5228 0.950 . S
H5220 C5230 0.950 . S
H5221 C5232 0.950 . S
H5222 C5234 0.950 . S
H5223 C5235 0.950 . S
C5224 H5216 0.950 . S
C5224 C5225 1.386 . S
C5224 C5226 1.391 . S
C5225 C5224 1.386 . S
C5225 C5229 1.393 . S
C5226 H5218 0.950 . S
C5226 C5224 1.391 . S
C5226 C5227 1.400 . S
C5227 C5226 1.400 . S
C5227 C5228 1.398 . S
C5227 C5233 1.491 . S
C5228 H5219 0.950 . S
C5228 C5227 1.398 . S
C5228 C5229 1.391 . S
C5229 H5217 0.950 . S
C5229 C5225 1.393 . S
C5229 C5228 1.391 . S
C5230 H5220 0.950 . S
C5230 C5231 1.386 . S
C5230 C5232 1.391 . S
C5231 C5230 1.386 . S
C5231 C5235 1.393 . S
C5232 H5221 0.950 . S
C5232 C5230 1.391 . S
C5232 C5233 1.400 . S
C5233 C5227 1.491 . S
C5233 C5232 1.400 . S
C5233 C5234 1.398 . S
C5234 H5222 0.950 . S
C5234 C5233 1.398 . S
C5234 C5235 1.391 . S
C5235 H5223 0.950 . S
C5235 C5231 1.393 . S
C5235 C5234 1.391 . S
H5236 C5244 0.950 . S
H5237 C5249 0.950 . S
H5238 C5246 0.950 . S
H5239 C5248 0.950 . S
H5240 C5250 0.950 . S
H5241 C5252 0.950 . S
H5242 C5254 0.950 . S
H5243 C5255 0.950 . S
C5244 H5236 0.950 . S
C5244 C5245 1.386 . S
C5244 C5246 1.391 . S
C5245 C5244 1.386 . S
C5245 C5249 1.393 . S
C5246 H5238 0.950 . S
C5246 C5244 1.391 . S
C5246 C5247 1.400 . S
C5247 C5246 1.400 . S
C5247 C5248 1.398 . S
C5247 C5253 1.491 . S
C5248 H5239 0.950 . S
C5248 C5247 1.398 . S
C5248 C5249 1.391 . S
C5249 H5237 0.950 . S
C5249 C5245 1.393 . S
C5249 C5248 1.391 . S
C5250 H5240 0.950 . S
C5250 C5251 1.386 . S
C5250 C5252 1.391 . S
C5251 C5250 1.386 . S
C5251 C5255 1.393 . S
C5252 H5241 0.950 . S
C5252 C5250 1.391 . S
C5252 C5253 1.400 . S
C5253 C5247 1.491 . S
C5253 C5252 1.400 . S
C5253 C5254 1.398 . S
C5254 H5242 0.950 . S
C5254 C5253 1.398 . S
C5254 C5255 1.391 . S
C5255 H5243 0.950 . S
C5255 C5251 1.393 . S
C5255 C5254 1.391 . S
H5256 C5264 0.950 . S
H5257 C5269 0.950 . S
H5258 C5266 0.950 . S
H5259 C5268 0.950 . S
H5260 C5270 0.950 . S
H5261 C5272 0.950 . S
H5262 C5274 0.950 . S
H5263 C5275 0.950 . S
C5264 H5256 0.950 . S
C5264 C5265 1.386 . S
C5264 C5266 1.391 1_565 S
C5265 C5264 1.386 . S
C5265 C5269 1.393 . S
C5266 H5258 0.950 . S
C5266 C5264 1.391 1_545 S
C5266 C5267 1.400 . S
C5267 C5266 1.400 . S
C5267 C5268 1.398 1_545 S
C5267 C5273 1.491 . S
C5268 H5259 0.950 . S
C5268 C5267 1.398 1_565 S
C5268 C5269 1.391 . S
C5269 H5257 0.950 . S
C5269 C5265 1.393 . S
C5269 C5268 1.391 . S
C5270 H5260 0.950 . S
C5270 C5271 1.386 . S
C5270 C5272 1.391 . S
C5271 C5270 1.386 . S
C5271 C5275 1.393 . S
C5272 H5261 0.950 . S
C5272 C5270 1.391 . S
C5272 C5273 1.400 . S
C5273 C5267 1.491 . S
C5273 C5272 1.400 . S
C5273 C5274 1.398 . S
C5274 H5262 0.950 . S
C5274 C5273 1.398 . S
C5274 C5275 1.391 . S
C5275 H5263 0.950 . S
C5275 C5271 1.393 . S
C5275 C5274 1.391 . S
H5276 C5284 0.950 . S
H5277 C5289 0.950 . S
H5278 C5286 0.950 . S
H5279 C5288 0.950 . S
H5280 C5290 0.950 . S
H5281 C5292 0.950 . S
H5282 C5294 0.950 . S
H5283 C5295 0.950 . S
C5284 H5276 0.950 . S
C5284 C5285 1.386 . S
C5284 C5286 1.391 . S
C5285 C5284 1.386 . S
C5285 C5289 1.393 . S
C5286 H5278 0.950 . S
C5286 C5284 1.391 . S
C5286 C5287 1.400 . S
C5287 C5286 1.400 . S
C5287 C5288 1.398 . S
C5287 C5293 1.491 . S
C5288 H5279 0.950 . S
C5288 C5287 1.398 . S
C5288 C5289 1.391 . S
C5289 H5277 0.950 . S
C5289 C5285 1.393 . S
C5289 C5288 1.391 . S
C5290 H5280 0.950 . S
C5290 C5291 1.386 . S
C5290 C5292 1.391 . S
C5291 C5290 1.386 . S
C5291 C5295 1.393 . S
C5292 H5281 0.950 . S
C5292 C5290 1.391 . S
C5292 C5293 1.400 . S
C5293 C5287 1.491 . S
C5293 C5292 1.400 . S
C5293 C5294 1.398 . S
C5294 H5282 0.950 . S
C5294 C5293 1.398 . S
C5294 C5295 1.391 . S
C5295 H5283 0.950 . S
C5295 C5291 1.393 . S
C5295 C5294 1.391 . S
H5296 C5304 0.950 . S
H5297 C5309 0.950 . S
H5298 C5306 0.950 . S
H5299 C5308 0.950 . S
H5300 C5310 0.950 . S
H5301 C5312 0.950 . S
H5302 C5314 0.950 . S
H5303 C5315 0.950 . S
C5304 H5296 0.950 . S
C5304 C5305 1.386 . S
C5304 C5306 1.391 . S
C5305 C5304 1.386 . S
C5305 C5309 1.393 . S
C5306 H5298 0.950 . S
C5306 C5304 1.391 . S
C5306 C5307 1.400 . S
C5307 C5306 1.400 . S
C5307 C5308 1.398 . S
C5307 C5313 1.491 . S
C5308 H5299 0.950 . S
C5308 C5307 1.398 . S
C5308 C5309 1.391 . S
C5309 H5297 0.950 . S
C5309 C5305 1.393 . S
C5309 C5308 1.391 . S
C5310 H5300 0.950 . S
C5310 C5311 1.386 . S
C5310 C5312 1.391 . S
C5311 C5310 1.386 . S
C5311 C5315 1.393 . S
C5312 H5301 0.950 . S
C5312 C5310 1.391 . S
C5312 C5313 1.400 . S
C5313 C5307 1.491 . S
C5313 C5312 1.400 . S
C5313 C5314 1.398 . S
C5314 H5302 0.950 . S
C5314 C5313 1.398 . S
C5314 C5315 1.391 . S
C5315 H5303 0.950 . S
C5315 C5311 1.393 . S
C5315 C5314 1.391 . S
H5316 C5324 0.950 . S
H5317 C5329 0.950 . S
H5318 C5326 0.950 . S
H5319 C5328 0.950 . S
H5320 C5330 0.950 . S
H5321 C5332 0.950 . S
H5322 C5334 0.950 . S
H5323 C5335 0.950 . S
C5324 H5316 0.950 . S
C5324 C5325 1.386 . S
C5324 C5326 1.391 . S
C5325 C5324 1.386 . S
C5325 C5329 1.393 . S
C5326 H5318 0.950 . S
C5326 C5324 1.391 . S
C5326 C5327 1.400 . S
C5327 C5326 1.400 . S
C5327 C5328 1.398 . S
C5327 C5333 1.491 . S
C5328 H5319 0.950 . S
C5328 C5327 1.398 . S
C5328 C5329 1.391 . S
C5329 H5317 0.950 . S
C5329 C5325 1.393 . S
C5329 C5328 1.391 . S
C5330 H5320 0.950 . S
C5330 C5331 1.386 . S
C5330 C5332 1.391 . S
C5331 C5330 1.386 . S
C5331 C5335 1.393 . S
C5332 H5321 0.950 . S
C5332 C5330 1.391 . S
C5332 C5333 1.400 . S
C5333 C5327 1.491 . S
C5333 C5332 1.400 . S
C5333 C5334 1.398 . S
C5334 H5322 0.950 . S
C5334 C5333 1.398 . S
C5334 C5335 1.391 . S
C5335 H5323 0.950 . S
C5335 C5331 1.393 . S
C5335 C5334 1.391 . S
H5336 C5344 0.950 . S
H5337 C5349 0.950 . S
H5338 C5346 0.950 . S
H5339 C5348 0.950 . S
H5340 C5350 0.950 . S
H5341 C5352 0.950 . S
H5342 C5354 0.950 . S
H5343 C5355 0.950 . S
C5344 H5336 0.950 . S
C5344 C5345 1.386 . S
C5344 C5346 1.391 . S
C5345 C5344 1.386 . S
C5345 C5349 1.393 . S
C5346 H5338 0.950 . S
C5346 C5344 1.391 . S
C5346 C5347 1.400 . S
C5347 C5346 1.400 . S
C5347 C5348 1.398 . S
C5347 C5353 1.491 . S
C5348 H5339 0.950 . S
C5348 C5347 1.398 . S
C5348 C5349 1.391 . S
C5349 H5337 0.950 . S
C5349 C5345 1.393 . S
C5349 C5348 1.391 . S
C5350 H5340 0.950 . S
C5350 C5351 1.386 . S
C5350 C5352 1.391 1_545 S
C5351 C5350 1.386 . S
C5351 C5355 1.393 . S
C5352 H5341 0.950 . S
C5352 C5350 1.391 1_565 S
C5352 C5353 1.400 . S
C5353 C5347 1.491 . S
C5353 C5352 1.400 . S
C5353 C5354 1.398 1_565 S
C5354 H5342 0.950 . S
C5354 C5353 1.398 1_545 S
C5354 C5355 1.391 . S
C5355 H5343 0.950 . S
C5355 C5351 1.393 . S
C5355 C5354 1.391 . S
H5356 C5364 0.950 . S
H5357 C5369 0.950 . S
H5358 C5366 0.950 . S
H5359 C5368 0.950 . S
H5360 C5370 0.950 . S
H5361 C5372 0.950 . S
H5362 C5374 0.961 . S
H5363 C5375 0.950 . S
C5364 H5356 0.950 . S
C5364 C5365 1.386 . S
C5364 C5366 1.391 . S
C5365 C5364 1.386 . S
C5365 C5369 1.393 . S
C5366 H5358 0.950 . S
C5366 C5364 1.391 . S
C5366 C5367 1.400 . S
C5367 C5366 1.400 . S
C5367 C5368 1.398 . S
C5367 C5373 1.491 . S
C5368 H5359 0.950 . S
C5368 C5367 1.398 . S
C5368 C5369 1.391 . S
C5369 H5357 0.950 . S
C5369 C5365 1.393 . S
C5369 C5368 1.391 . S
C5370 H5360 0.950 . S
C5370 C5371 1.386 . S
C5370 C5372 1.391 1_565 S
C5371 C5370 1.386 . S
C5371 C5375 1.393 . S
C5372 H5361 0.950 . S
C5372 C5370 1.391 1_545 S
C5372 C5373 1.400 . S
C5373 C5367 1.491 . S
C5373 C5372 1.400 . S
C5373 C5374 1.398 1_545 S
C5374 H5362 0.961 . S
C5374 C5373 1.398 1_565 S
C5374 C5375 1.391 . S
C5375 H5363 0.950 . S
C5375 C5371 1.393 . S
C5375 C5374 1.391 . S
H5376 C5384 0.950 . S
H5377 C5389 0.950 . S
H5378 C5386 0.950 . S
H5379 C5388 0.950 . S
H5380 C5390 0.950 . S
H5381 C5392 0.950 . S
H5382 C5394 0.950 . S
H5383 C5395 0.950 . S
C5384 H5376 0.950 . S
C5384 C5385 1.386 . S
C5384 C5386 1.391 . S
C5385 C5384 1.386 . S
C5385 C5389 1.393 . S
C5386 H5378 0.950 . S
C5386 C5384 1.391 . S
C5386 C5387 1.400 . S
C5387 C5386 1.400 . S
C5387 C5388 1.398 . S
C5387 C5393 1.491 . S
C5388 H5379 0.950 . S
C5388 C5387 1.398 . S
C5388 C5389 1.391 . S
C5389 H5377 0.950 . S
C5389 C5385 1.393 . S
C5389 C5388 1.391 . S
C5390 H5380 0.950 . S
C5390 C5391 1.386 . S
C5390 C5392 1.391 . S
C5391 C5390 1.386 . S
C5391 C5395 1.393 . S
C5392 H5381 0.950 . S
C5392 C5390 1.391 . S
C5392 C5393 1.400 . S
C5393 C5387 1.491 . S
C5393 C5392 1.400 . S
C5393 C5394 1.398 . S
C5394 H5382 0.950 . S
C5394 C5393 1.398 . S
C5394 C5395 1.391 . S
C5395 H5383 0.950 . S
C5395 C5391 1.393 . S
C5395 C5394 1.391 . S
H5396 C5404 0.950 . S
H5397 C5409 0.950 . S
H5398 C5406 0.950 . S
H5399 C5408 0.950 . S
H5400 C5410 0.950 . S
H5401 C5412 0.950 . S
H5402 C5414 0.950 . S
H5403 C5415 0.950 . S
C5404 H5396 0.950 . S
C5404 C5405 1.386 . S
C5404 C5406 1.391 . S
C5405 C5404 1.386 . S
C5405 C5409 1.393 . S
C5406 H5398 0.950 . S
C5406 C5404 1.391 . S
C5406 C5407 1.400 . S
C5407 C5406 1.400 . S
C5407 C5408 1.398 . S
C5407 C5413 1.491 . S
C5408 H5399 0.950 . S
C5408 C5407 1.398 . S
C5408 C5409 1.391 . S
C5409 H5397 0.950 . S
C5409 C5405 1.393 . S
C5409 C5408 1.391 . S
C5410 H5400 0.950 . S
C5410 C5411 1.386 . S
C5410 C5412 1.391 . S
C5411 C5410 1.386 . S
C5411 C5415 1.393 . S
C5412 H5401 0.950 . S
C5412 C5410 1.391 . S
C5412 C5413 1.400 . S
C5413 C5407 1.491 . S
C5413 C5412 1.400 . S
C5413 C5414 1.398 . S
C5414 H5402 0.950 . S
C5414 C5413 1.398 . S
C5414 C5415 1.391 . S
C5415 H5403 0.950 . S
C5415 C5411 1.393 . S
C5415 C5414 1.391 . S
H5416 C5424 0.950 . S
H5417 C5429 0.950 . S
H5418 C5426 0.950 . S
H5419 C5428 0.950 . S
H5420 C5430 0.950 . S
H5421 C5432 0.950 . S
H5422 C5434 0.950 . S
H5423 C5435 0.950 . S
C5424 H5416 0.950 . S
C5424 C5425 1.386 . S
C5424 C5426 1.391 . S
C5425 C5424 1.386 . S
C5425 C5429 1.393 . S
C5426 H5418 0.950 . S
C5426 C5424 1.391 . S
C5426 C5427 1.400 . S
C5427 C5426 1.400 . S
C5427 C5428 1.398 . S
C5427 C5433 1.491 . S
C5428 H5419 0.950 . S
C5428 C5427 1.398 . S
C5428 C5429 1.391 . S
C5429 H5417 0.950 . S
C5429 C5425 1.393 . S
C5429 C5428 1.391 . S
C5430 H5420 0.950 . S
C5430 C5431 1.386 . S
C5430 C5432 1.391 . S
C5431 C5430 1.386 . S
C5431 C5435 1.393 . S
C5432 H5421 0.950 . S
C5432 C5430 1.391 . S
C5432 C5433 1.400 . S
C5433 C5427 1.491 . S
C5433 C5432 1.400 . S
C5433 C5434 1.398 . S
C5434 H5422 0.950 . S
C5434 C5433 1.398 . S
C5434 C5435 1.391 . S
C5435 H5423 0.950 . S
C5435 C5431 1.393 . S
C5435 C5434 1.391 . S
H5436 C5444 0.950 . S
H5437 C5449 0.950 . S
H5438 C5446 0.950 . S
H5439 C5448 0.950 . S
H5440 C5450 0.950 . S
H5441 C5452 0.950 . S
H5442 C5454 0.950 . S
H5443 C5455 0.950 . S
C5444 H5436 0.950 . S
C5444 C5445 1.386 . S
C5444 C5446 1.391 . S
C5445 C5444 1.386 . S
C5445 C5449 1.393 . S
C5446 H5438 0.950 . S
C5446 C5444 1.391 . S
C5446 C5447 1.400 . S
C5447 C5446 1.400 . S
C5447 C5448 1.398 . S
C5447 C5453 1.491 . S
C5448 H5439 0.950 . S
C5448 C5447 1.398 . S
C5448 C5449 1.391 . S
C5449 H5437 0.950 . S
C5449 C5445 1.393 . S
C5449 C5448 1.391 . S
C5450 H5440 0.950 . S
C5450 C5451 1.386 . S
C5450 C5452 1.391 . S
C5451 C5450 1.386 . S
C5451 C5455 1.393 . S
C5452 H5441 0.950 . S
C5452 C5450 1.391 . S
C5452 C5453 1.400 . S
C5453 C5447 1.491 . S
C5453 C5452 1.400 . S
C5453 C5454 1.398 . S
C5454 H5442 0.950 . S
C5454 C5453 1.398 . S
C5454 C5455 1.391 . S
C5455 H5443 0.950 . S
C5455 C5451 1.393 . S
C5455 C5454 1.391 . S
H5456 C5464 0.950 . S
H5457 C5469 0.950 . S
H5458 C5466 0.950 . S
H5459 C5468 0.950 . S
H5460 C5470 0.950 . S
H5461 C5472 0.950 . S
H5462 C5474 0.950 . S
H5463 C5475 0.950 . S
C5464 H5456 0.950 . S
C5464 C5465 1.386 . S
C5464 C5466 1.391 . S
C5465 C5464 1.386 . S
C5465 C5469 1.393 . S
C5466 H5458 0.950 . S
C5466 C5464 1.391 . S
C5466 C5467 1.400 . S
C5467 C5466 1.400 . S
C5467 C5468 1.398 . S
C5467 C5473 1.491 . S
C5468 H5459 0.950 . S
C5468 C5467 1.398 . S
C5468 C5469 1.391 . S
C5469 H5457 0.950 . S
C5469 C5465 1.393 . S
C5469 C5468 1.391 . S
C5470 H5460 0.950 . S
C5470 C5471 1.386 . S
C5470 C5472 1.391 . S
C5471 C5470 1.386 . S
C5471 C5475 1.393 . S
C5472 H5461 0.950 . S
C5472 C5470 1.391 . S
C5472 C5473 1.400 . S
C5473 C5467 1.491 . S
C5473 C5472 1.400 . S
C5473 C5474 1.398 . S
C5474 H5462 0.950 . S
C5474 C5473 1.398 . S
C5474 C5475 1.391 . S
C5475 H5463 0.950 . S
C5475 C5471 1.393 . S
C5475 C5474 1.391 . S
H5476 C5484 0.950 . S
H5477 C5489 0.950 . S
H5478 C5486 0.950 . S
H5479 C5488 0.950 . S
H5480 C5490 0.950 . S
H5481 C5492 0.950 . S
H5482 C5494 0.950 . S
H5483 C5495 0.950 . S
C5484 H5476 0.950 . S
C5484 C5485 1.386 . S
C5484 C5486 1.391 . S
C5485 C5484 1.386 . S
C5485 C5489 1.393 . S
C5486 H5478 0.950 . S
C5486 C5484 1.391 . S
C5486 C5487 1.400 . S
C5487 C5486 1.400 . S
C5487 C5488 1.398 . S
C5487 C5493 1.491 . S
C5488 H5479 0.950 . S
C5488 C5487 1.398 . S
C5488 C5489 1.391 . S
C5489 H5477 0.950 . S
C5489 C5485 1.393 . S
C5489 C5488 1.391 . S
C5490 H5480 0.950 . S
C5490 C5491 1.386 . S
C5490 C5492 1.391 . S
C5491 C5490 1.386 . S
C5491 C5495 1.393 . S
C5492 H5481 0.950 . S
C5492 C5490 1.391 . S
C5492 C5493 1.400 . S
C5493 C5487 1.491 . S
C5493 C5492 1.400 . S
C5493 C5494 1.398 . S
C5494 H5482 0.950 . S
C5494 C5493 1.398 . S
C5494 C5495 1.391 . S
C5495 H5483 0.950 . S
C5495 C5491 1.393 . S
C5495 C5494 1.391 . S
H5496 C5504 0.950 . S
H5497 C5509 0.950 . S
H5498 C5506 0.950 . S
H5499 C5508 0.950 . S
H5500 C5510 0.950 . S
H5501 C5512 0.950 . S
H5502 C5514 0.950 . S
H5503 C5515 0.950 . S
C5504 H5496 0.950 . S
C5504 C5505 1.386 . S
C5504 C5506 1.391 . S
C5505 C5504 1.386 . S
C5505 C5509 1.393 . S
C5506 H5498 0.950 . S
C5506 C5504 1.391 . S
C5506 C5507 1.400 . S
C5507 C5506 1.400 . S
C5507 C5508 1.398 . S
C5507 C5513 1.491 . S
C5508 H5499 0.950 . S
C5508 C5507 1.398 . S
C5508 C5509 1.391 . S
C5509 H5497 0.950 . S
C5509 C5505 1.393 . S
C5509 C5508 1.391 . S
C5510 H5500 0.950 . S
C5510 C5511 1.386 . S
C5510 C5512 1.391 . S
C5511 C5510 1.386 . S
C5511 C5515 1.393 . S
C5512 H5501 0.950 . S
C5512 C5510 1.391 . S
C5512 C5513 1.400 . S
C5513 C5507 1.491 . S
C5513 C5512 1.400 . S
C5513 C5514 1.398 . S
C5514 H5502 0.950 . S
C5514 C5513 1.398 . S
C5514 C5515 1.391 . S
C5515 H5503 0.950 . S
C5515 C5511 1.393 . S
C5515 C5514 1.391 . S
H5516 C5524 0.950 . S
H5517 C5529 0.950 . S
H5518 C5526 0.950 . S
H5519 C5528 0.950 . S
H5520 C5530 0.950 . S
H5521 C5532 0.950 . S
H5522 C5534 0.950 . S
H5523 C5535 0.950 . S
C5524 H5516 0.950 . S
C5524 C5525 1.386 . S
C5524 C5526 1.391 . S
C5525 C5524 1.386 . S
C5525 C5529 1.393 . S
C5526 H5518 0.950 . S
C5526 C5524 1.391 . S
C5526 C5527 1.400 . S
C5527 C5526 1.400 . S
C5527 C5528 1.398 . S
C5527 C5533 1.491 . S
C5528 H5519 0.950 . S
C5528 C5527 1.398 . S
C5528 C5529 1.391 . S
C5529 H5517 0.950 . S
C5529 C5525 1.393 . S
C5529 C5528 1.391 . S
C5530 H5520 0.950 . S
C5530 C5531 1.386 . S
C5530 C5532 1.391 . S
C5531 C5530 1.386 . S
C5531 C5535 1.393 . S
C5532 H5521 0.950 . S
C5532 C5530 1.391 . S
C5532 C5533 1.400 . S
C5533 C5527 1.491 . S
C5533 C5532 1.400 . S
C5533 C5534 1.398 . S
C5534 H5522 0.950 . S
C5534 C5533 1.398 . S
C5534 C5535 1.391 . S
C5535 H5523 0.950 . S
C5535 C5531 1.393 . S
C5535 C5534 1.391 . S
H5536 C5544 0.950 . S
H5537 C5549 0.950 . S
H5538 C5546 0.950 . S
H5539 C5548 0.950 . S
H5540 C5550 0.950 . S
H5541 C5552 0.950 . S
H5542 C5554 0.950 . S
H5543 C5555 0.950 . S
C5544 H5536 0.950 . S
C5544 C5545 1.386 . S
C5544 C5546 1.391 . S
C5545 C5544 1.386 . S
C5545 C5549 1.393 . S
C5546 H5538 0.950 . S
C5546 C5544 1.391 . S
C5546 C5547 1.400 . S
C5547 C5546 1.400 . S
C5547 C5548 1.398 . S
C5547 C5553 1.491 . S
C5548 H5539 0.950 . S
C5548 C5547 1.398 . S
C5548 C5549 1.391 . S
C5549 H5537 0.950 . S
C5549 C5545 1.393 . S
C5549 C5548 1.391 . S
C5550 H5540 0.950 . S
C5550 C5551 1.386 . S
C5550 C5552 1.391 . S
C5551 C5550 1.386 . S
C5551 C5555 1.393 . S
C5552 H5541 0.950 . S
C5552 C5550 1.391 . S
C5552 C5553 1.400 . S
C5553 C5547 1.491 . S
C5553 C5552 1.400 . S
C5553 C5554 1.398 . S
C5554 H5542 0.950 . S
C5554 C5553 1.398 . S
C5554 C5555 1.391 . S
C5555 H5543 0.950 . S
C5555 C5551 1.393 . S
C5555 C5554 1.391 . S
H5556 C5564 0.950 . S
H5557 C5569 0.950 . S
H5558 C5566 0.950 . S
H5559 C5568 0.950 . S
H5560 C5570 0.950 . S
H5561 C5572 0.950 . S
H5562 C5574 0.950 . S
H5563 C5575 0.950 . S
C5564 H5556 0.950 . S
C5564 C5565 1.386 . S
C5564 C5566 1.391 . S
C5565 C5564 1.386 . S
C5565 C5569 1.393 . S
C5566 H5558 0.950 . S
C5566 C5564 1.391 . S
C5566 C5567 1.400 . S
C5567 C5566 1.400 . S
C5567 C5568 1.398 . S
C5567 C5573 1.491 . S
C5568 H5559 0.950 . S
C5568 C5567 1.398 . S
C5568 C5569 1.391 . S
C5569 H5557 0.950 . S
C5569 C5565 1.393 . S
C5569 C5568 1.391 . S
C5570 H5560 0.950 . S
C5570 C5571 1.386 . S
C5570 C5572 1.391 . S
C5571 C5570 1.386 . S
C5571 C5575 1.393 . S
C5572 H5561 0.950 . S
C5572 C5570 1.391 . S
C5572 C5573 1.400 . S
C5573 C5567 1.491 . S
C5573 C5572 1.400 . S
C5573 C5574 1.398 . S
C5574 H5562 0.950 . S
C5574 C5573 1.398 . S
C5574 C5575 1.391 . S
C5575 H5563 0.950 . S
C5575 C5571 1.393 . S
C5575 C5574 1.391 . S
H5576 C5584 0.950 . S
H5577 C5589 0.950 . S
H5578 C5586 0.950 . S
H5579 C5588 0.950 . S
H5580 C5590 0.950 . S
H5581 C5592 0.950 . S
H5582 C5594 0.950 . S
H5583 C5595 0.950 . S
C5584 H5576 0.950 . S
C5584 C5585 1.386 . S
C5584 C5586 1.391 . S
C5585 C5584 1.386 . S
C5585 C5589 1.393 . S
C5586 H5578 0.950 . S
C5586 C5584 1.391 . S
C5586 C5587 1.400 . S
C5587 C5586 1.400 . S
C5587 C5588 1.398 . S
C5587 C5593 1.491 . S
C5588 H5579 0.950 . S
C5588 C5587 1.398 . S
C5588 C5589 1.391 . S
C5589 H5577 0.950 . S
C5589 C5585 1.393 . S
C5589 C5588 1.391 . S
C5590 H5580 0.950 . S
C5590 C5591 1.386 . S
C5590 C5592 1.391 . S
C5591 C5590 1.386 . S
C5591 C5595 1.393 . S
C5592 H5581 0.950 . S
C5592 C5590 1.391 . S
C5592 C5593 1.400 . S
C5593 C5587 1.491 . S
C5593 C5592 1.400 . S
C5593 C5594 1.398 . S
C5594 H5582 0.950 . S
C5594 C5593 1.398 . S
C5594 C5595 1.391 . S
C5595 H5583 0.950 . S
C5595 C5591 1.393 . S
C5595 C5594 1.391 . S
H5596 C5604 0.950 . S
H5597 C5609 0.950 . S
H5598 C5606 0.950 . S
H5599 C5608 0.950 . S
H5600 C5610 0.950 . S
H5601 C5612 0.950 . S
H5602 C5614 0.950 . S
H5603 C5615 0.950 . S
C5604 H5596 0.950 . S
C5604 C5605 1.386 . S
C5604 C5606 1.391 . S
C5605 C5604 1.386 . S
C5605 C5609 1.393 . S
C5606 H5598 0.950 . S
C5606 C5604 1.391 . S
C5606 C5607 1.400 . S
C5607 C5606 1.400 . S
C5607 C5608 1.398 . S
C5607 C5613 1.491 . S
C5608 H5599 0.950 . S
C5608 C5607 1.398 . S
C5608 C5609 1.391 . S
C5609 H5597 0.950 . S
C5609 C5605 1.393 . S
C5609 C5608 1.391 . S
C5610 H5600 0.950 . S
C5610 C5611 1.386 . S
C5610 C5612 1.391 . S
C5611 C5610 1.386 . S
C5611 C5615 1.393 . S
C5612 H5601 0.950 . S
C5612 C5610 1.391 . S
C5612 C5613 1.400 . S
C5613 C5607 1.491 . S
C5613 C5612 1.400 . S
C5613 C5614 1.398 . S
C5614 H5602 0.950 . S
C5614 C5613 1.398 . S
C5614 C5615 1.391 . S
C5615 H5603 0.950 . S
C5615 C5611 1.393 . S
C5615 C5614 1.391 . S
H5616 C5624 0.950 . S
H5617 C5629 0.950 . S
H5618 C5626 0.950 . S
H5619 C5628 0.950 . S
H5620 C5630 0.950 . S
H5621 C5632 0.950 . S
H5622 C5634 0.950 . S
H5623 C5635 0.950 . S
C5624 H5616 0.950 . S
C5624 C5625 1.386 . S
C5624 C5626 1.391 . S
C5625 C5624 1.386 . S
C5625 C5629 1.393 . S
C5626 H5618 0.950 . S
C5626 C5624 1.391 . S
C5626 C5627 1.400 . S
C5627 C5626 1.400 . S
C5627 C5628 1.398 . S
C5627 C5633 1.491 . S
C5628 H5619 0.950 . S
C5628 C5627 1.398 . S
C5628 C5629 1.391 . S
C5629 H5617 0.950 . S
C5629 C5625 1.393 . S
C5629 C5628 1.391 . S
C5630 H5620 0.950 . S
C5630 C5631 1.386 . S
C5630 C5632 1.391 . S
C5631 C5630 1.386 . S
C5631 C5635 1.393 . S
C5632 H5621 0.950 . S
C5632 C5630 1.391 . S
C5632 C5633 1.400 . S
C5633 C5627 1.491 . S
C5633 C5632 1.400 . S
C5633 C5634 1.398 . S
C5634 H5622 0.950 . S
C5634 C5633 1.398 . S
C5634 C5635 1.391 . S
C5635 H5623 0.950 . S
C5635 C5631 1.393 . S
C5635 C5634 1.391 . S
H5636 C5644 0.950 . S
H5637 C5649 0.950 . S
H5638 C5646 0.950 . S
H5639 C5648 0.950 . S
H5640 C5650 0.950 . S
H5641 C5652 0.950 . S
H5642 C5654 0.950 . S
H5643 C5655 0.950 . S
C5644 H5636 0.950 . S
C5644 C5645 1.386 . S
C5644 C5646 1.391 . S
C5645 C5644 1.386 . S
C5645 C5649 1.393 . S
C5646 H5638 0.950 . S
C5646 C5644 1.391 . S
C5646 C5647 1.400 . S
C5647 C5646 1.400 . S
C5647 C5648 1.398 . S
C5647 C5653 1.491 . S
C5648 H5639 0.950 . S
C5648 C5647 1.398 . S
C5648 C5649 1.391 . S
C5649 H5637 0.950 . S
C5649 C5645 1.393 . S
C5649 C5648 1.391 . S
C5650 H5640 0.950 . S
C5650 C5651 1.386 . S
C5650 C5652 1.391 . S
C5651 C5650 1.386 . S
C5651 C5655 1.393 . S
C5652 H5641 0.950 . S
C5652 C5650 1.391 . S
C5652 C5653 1.400 . S
C5653 C5647 1.491 . S
C5653 C5652 1.400 . S
C5653 C5654 1.398 . S
C5654 H5642 0.950 . S
C5654 C5653 1.398 . S
C5654 C5655 1.391 . S
C5655 H5643 0.950 . S
C5655 C5651 1.393 . S
C5655 C5654 1.391 . S
H5656 C5664 0.950 . S
H5657 C5669 0.950 . S
H5658 C5666 0.950 . S
H5659 C5668 0.950 . S
H5660 C5670 0.950 . S
H5661 C5672 0.950 . S
H5662 C5674 0.950 . S
H5663 C5675 0.950 . S
C5664 H5656 0.950 . S
C5664 C5665 1.386 . S
C5664 C5666 1.391 . S
C5665 C5664 1.386 . S
C5665 C5669 1.393 . S
C5666 H5658 0.950 . S
C5666 C5664 1.391 . S
C5666 C5667 1.400 . S
C5667 C5666 1.400 . S
C5667 C5668 1.398 . S
C5667 C5673 1.491 . S
C5668 H5659 0.950 . S
C5668 C5667 1.398 . S
C5668 C5669 1.391 . S
C5669 H5657 0.950 . S
C5669 C5665 1.393 . S
C5669 C5668 1.391 . S
C5670 H5660 0.950 . S
C5670 C5671 1.386 . S
C5670 C5672 1.391 . S
C5671 C5670 1.386 . S
C5671 C5675 1.393 . S
C5672 H5661 0.950 . S
C5672 C5670 1.391 . S
C5672 C5673 1.400 . S
C5673 C5667 1.491 . S
C5673 C5672 1.400 . S
C5673 C5674 1.398 . S
C5674 H5662 0.950 . S
C5674 C5673 1.398 . S
C5674 C5675 1.391 . S
C5675 H5663 0.950 . S
C5675 C5671 1.393 . S
C5675 C5674 1.391 . S
H5676 C5684 0.950 . S
H5677 C5689 0.950 . S
H5678 C5686 0.950 . S
H5679 C5688 0.950 . S
H5680 C5690 0.950 . S
H5681 C5692 0.950 . S
H5682 C5694 0.950 . S
H5683 C5695 0.950 . S
C5684 H5676 0.950 . S
C5684 C5685 1.386 . S
C5684 C5686 1.391 . S
C5685 C5684 1.386 . S
C5685 C5689 1.393 . S
C5686 H5678 0.950 . S
C5686 C5684 1.391 . S
C5686 C5687 1.400 . S
C5687 C5686 1.400 . S
C5687 C5688 1.398 . S
C5687 C5693 1.491 . S
C5688 H5679 0.950 . S
C5688 C5687 1.398 . S
C5688 C5689 1.391 . S
C5689 H5677 0.950 . S
C5689 C5685 1.393 . S
C5689 C5688 1.391 . S
C5690 H5680 0.950 . S
C5690 C5691 1.386 . S
C5690 C5692 1.391 . S
C5691 C5690 1.386 . S
C5691 C5695 1.393 . S
C5692 H5681 0.950 . S
C5692 C5690 1.391 . S
C5692 C5693 1.400 . S
C5693 C5687 1.491 . S
C5693 C5692 1.400 . S
C5693 C5694 1.398 . S
C5694 H5682 0.950 . S
C5694 C5693 1.398 . S
C5694 C5695 1.391 . S
C5695 H5683 0.950 . S
C5695 C5691 1.393 . S
C5695 C5694 1.391 . S
H5696 C5704 0.950 . S
H5697 C5709 0.950 . S
H5698 C5706 0.950 . S
H5699 C5708 0.950 . S
H5700 C5710 0.950 . S
H5701 C5712 0.950 . S
H5702 C5714 0.950 . S
H5703 C5715 0.950 . S
C5704 H5696 0.950 . S
C5704 C5705 1.386 . S
C5704 C5706 1.391 . S
C5705 C5704 1.386 . S
C5705 C5709 1.393 . S
C5706 H5698 0.950 . S
C5706 C5704 1.391 . S
C5706 C5707 1.400 . S
C5707 C5706 1.400 . S
C5707 C5708 1.398 . S
C5707 C5713 1.491 . S
C5708 H5699 0.950 . S
C5708 C5707 1.398 . S
C5708 C5709 1.391 . S
C5709 H5697 0.950 . S
C5709 C5705 1.393 . S
C5709 C5708 1.391 . S
C5710 H5700 0.950 . S
C5710 C5711 1.386 . S
C5710 C5712 1.391 . S
C5711 C5710 1.386 . S
C5711 C5715 1.393 . S
C5712 H5701 0.950 . S
C5712 C5710 1.391 . S
C5712 C5713 1.400 . S
C5713 C5707 1.491 . S
C5713 C5712 1.400 . S
C5713 C5714 1.398 . S
C5714 H5702 0.950 . S
C5714 C5713 1.398 . S
C5714 C5715 1.391 . S
C5715 H5703 0.950 . S
C5715 C5711 1.393 . S
C5715 C5714 1.391 . S
H5716 C5724 0.950 . S
H5717 C5729 0.950 . S
H5718 C5726 0.950 . S
H5719 C5728 0.950 . S
H5720 C5730 0.950 . S
H5721 C5732 0.950 . S
H5722 C5734 0.950 . S
H5723 C5735 0.950 . S
C5724 H5716 0.950 . S
C5724 C5725 1.386 . S
C5724 C5726 1.391 . S
C5725 C5724 1.386 . S
C5725 C5729 1.393 . S
C5726 H5718 0.950 . S
C5726 C5724 1.391 . S
C5726 C5727 1.400 . S
C5727 C5726 1.400 . S
C5727 C5728 1.398 . S
C5727 C5733 1.491 . S
C5728 H5719 0.950 . S
C5728 C5727 1.398 . S
C5728 C5729 1.391 . S
C5729 H5717 0.950 . S
C5729 C5725 1.393 . S
C5729 C5728 1.391 . S
C5730 H5720 0.950 . S
C5730 C5731 1.386 . S
C5730 C5732 1.391 . S
C5731 C5730 1.386 . S
C5731 C5735 1.393 . S
C5732 H5721 0.950 . S
C5732 C5730 1.391 . S
C5732 C5733 1.400 . S
C5733 C5727 1.491 . S
C5733 C5732 1.400 . S
C5733 C5734 1.398 . S
C5734 H5722 0.950 . S
C5734 C5733 1.398 . S
C5734 C5735 1.391 . S
C5735 H5723 0.950 . S
C5735 C5731 1.393 . S
C5735 C5734 1.391 . S
H5736 C5744 0.950 . S
H5737 C5749 0.950 . S
H5738 C5746 0.950 . S
H5739 C5748 0.950 . S
H5740 C5750 0.950 . S
H5741 C5752 0.950 . S
H5742 C5754 0.950 . S
H5743 C5755 0.950 . S
C5744 H5736 0.950 . S
C5744 C5745 1.386 . S
C5744 C5746 1.391 . S
C5745 C5744 1.386 . S
C5745 C5749 1.393 . S
C5746 H5738 0.950 . S
C5746 C5744 1.391 . S
C5746 C5747 1.400 . S
C5747 C5746 1.400 . S
C5747 C5748 1.398 . S
C5747 C5753 1.491 . S
C5748 H5739 0.950 . S
C5748 C5747 1.398 . S
C5748 C5749 1.391 . S
C5749 H5737 0.950 . S
C5749 C5745 1.393 . S
C5749 C5748 1.391 . S
C5750 H5740 0.950 . S
C5750 C5751 1.386 . S
C5750 C5752 1.391 . S
C5751 C5750 1.386 . S
C5751 C5755 1.393 . S
C5752 H5741 0.950 . S
C5752 C5750 1.391 . S
C5752 C5753 1.400 . S
C5753 C5747 1.491 . S
C5753 C5752 1.400 . S
C5753 C5754 1.398 . S
C5754 H5742 0.950 . S
C5754 C5753 1.398 . S
C5754 C5755 1.391 . S
C5755 H5743 0.950 . S
C5755 C5751 1.393 . S
C5755 C5754 1.391 . S
H5756 C5764 0.950 . S
H5757 C5769 0.950 . S
H5758 C5766 0.950 . S
H5759 C5768 0.950 . S
H5760 C5770 0.950 . S
H5761 C5772 0.950 . S
H5762 C5774 0.950 . S
H5763 C5775 0.950 . S
C5764 H5756 0.950 . S
C5764 C5765 1.386 . S
C5764 C5766 1.391 . S
C5765 C5764 1.386 . S
C5765 C5769 1.393 . S
C5766 H5758 0.950 . S
C5766 C5764 1.391 . S
C5766 C5767 1.400 . S
C5767 C5766 1.400 . S
C5767 C5768 1.398 . S
C5767 C5773 1.491 . S
C5768 H5759 0.950 . S
C5768 C5767 1.398 . S
C5768 C5769 1.391 . S
C5769 H5757 0.950 . S
C5769 C5765 1.393 . S
C5769 C5768 1.391 . S
C5770 H5760 0.950 . S
C5770 C5771 1.386 . S
C5770 C5772 1.391 . S
C5771 C5770 1.386 . S
C5771 C5775 1.393 . S
C5772 H5761 0.950 . S
C5772 C5770 1.391 . S
C5772 C5773 1.400 . S
C5773 C5767 1.491 . S
C5773 C5772 1.400 . S
C5773 C5774 1.398 . S
C5774 H5762 0.950 . S
C5774 C5773 1.398 . S
C5774 C5775 1.391 . S
C5775 H5763 0.950 . S
C5775 C5771 1.393 . S
C5775 C5774 1.391 . S
H5776 C5784 0.950 . S
H5777 C5789 0.950 . S
H5778 C5786 0.950 . S
H5779 C5788 0.950 . S
H5780 C5790 0.950 . S
H5781 C5792 0.950 . S
H5782 C5794 0.950 . S
H5783 C5795 0.950 . S
C5784 H5776 0.950 . S
C5784 C5785 1.386 . S
C5784 C5786 1.391 . S
C5785 C5784 1.386 . S
C5785 C5789 1.393 . S
C5786 H5778 0.950 . S
C5786 C5784 1.391 . S
C5786 C5787 1.400 . S
C5787 C5786 1.400 . S
C5787 C5788 1.398 . S
C5787 C5793 1.491 . S
C5788 H5779 0.950 . S
C5788 C5787 1.398 . S
C5788 C5789 1.391 . S
C5789 H5777 0.950 . S
C5789 C5785 1.393 . S
C5789 C5788 1.391 . S
C5790 H5780 0.950 . S
C5790 C5791 1.386 . S
C5790 C5792 1.391 . S
C5791 C5790 1.386 . S
C5791 C5795 1.393 . S
C5792 H5781 0.950 . S
C5792 C5790 1.391 . S
C5792 C5793 1.400 . S
C5793 C5787 1.491 . S
C5793 C5792 1.400 . S
C5793 C5794 1.398 . S
C5794 H5782 0.950 . S
C5794 C5793 1.398 . S
C5794 C5795 1.391 . S
C5795 H5783 0.950 . S
C5795 C5791 1.393 . S
C5795 C5794 1.391 . S
H5796 C5804 0.950 . S
H5797 C5809 0.950 . S
H5798 C5806 0.950 . S
H5799 C5808 0.950 . S
H5800 C5810 0.950 . S
H5801 C5812 0.950 . S
H5802 C5814 0.950 . S
H5803 C5815 0.950 . S
C5804 H5796 0.950 . S
C5804 C5805 1.386 . S
C5804 C5806 1.391 . S
C5805 C5804 1.386 . S
C5805 C5809 1.393 . S
C5806 H5798 0.950 . S
C5806 C5804 1.391 . S
C5806 C5807 1.400 . S
C5807 C5806 1.400 . S
C5807 C5808 1.398 . S
C5807 C5813 1.491 . S
C5808 H5799 0.950 . S
C5808 C5807 1.398 . S
C5808 C5809 1.391 . S
C5809 H5797 0.950 . S
C5809 C5805 1.393 . S
C5809 C5808 1.391 . S
C5810 H5800 0.950 . S
C5810 C5811 1.386 . S
C5810 C5812 1.391 . S
C5811 C5810 1.386 . S
C5811 C5815 1.393 . S
C5812 H5801 0.950 . S
C5812 C5810 1.391 . S
C5812 C5813 1.400 . S
C5813 C5807 1.491 . S
C5813 C5812 1.400 . S
C5813 C5814 1.398 . S
C5814 H5802 0.950 . S
C5814 C5813 1.398 . S
C5814 C5815 1.391 . S
C5815 H5803 0.950 . S
C5815 C5811 1.393 . S
C5815 C5814 1.391 . S
H5816 C5824 0.950 . S
H5817 C5829 0.950 . S
H5818 C5826 0.950 . S
H5819 C5828 0.950 . S
H5820 C5830 0.950 . S
H5821 C5832 0.950 . S
H5822 C5834 0.950 . S
H5823 C5835 0.950 . S
C5824 H5816 0.950 . S
C5824 C5825 1.386 . S
C5824 C5826 1.391 . S
C5825 C5824 1.386 . S
C5825 C5829 1.393 . S
C5826 H5818 0.950 . S
C5826 C5824 1.391 . S
C5826 C5827 1.400 . S
C5827 C5826 1.400 . S
C5827 C5828 1.398 . S
C5827 C5833 1.491 . S
C5828 H5819 0.950 . S
C5828 C5827 1.398 . S
C5828 C5829 1.391 . S
C5829 H5817 0.950 . S
C5829 C5825 1.393 . S
C5829 C5828 1.391 . S
C5830 H5820 0.950 . S
C5830 C5831 1.386 . S
C5830 C5832 1.391 . S
C5831 C5830 1.386 . S
C5831 C5835 1.393 . S
C5832 H5821 0.950 . S
C5832 C5830 1.391 . S
C5832 C5833 1.400 . S
C5833 C5827 1.491 . S
C5833 C5832 1.400 . S
C5833 C5834 1.398 . S
C5834 H5822 0.950 . S
C5834 C5833 1.398 . S
C5834 C5835 1.391 . S
C5835 H5823 0.950 . S
C5835 C5831 1.393 . S
C5835 C5834 1.391 . S
H5836 C5844 0.950 . S
H5837 C5849 0.950 . S
H5838 C5846 0.950 . S
H5839 C5848 0.950 . S
H5840 C5850 0.950 . S
H5841 C5852 0.950 . S
H5842 C5854 0.950 . S
H5843 C5855 0.950 . S
C5844 H5836 0.950 . S
C5844 C5845 1.386 . S
C5844 C5846 1.391 . S
C5845 C5844 1.386 . S
C5845 C5849 1.393 . S
C5846 H5838 0.950 . S
C5846 C5844 1.391 . S
C5846 C5847 1.400 . S
C5847 C5846 1.400 . S
C5847 C5848 1.398 . S
C5847 C5853 1.491 . S
C5848 H5839 0.950 . S
C5848 C5847 1.398 . S
C5848 C5849 1.391 . S
C5849 H5837 0.950 . S
C5849 C5845 1.393 . S
C5849 C5848 1.391 . S
C5850 H5840 0.950 . S
C5850 C5851 1.386 . S
C5850 C5852 1.391 . S
C5851 C5850 1.386 . S
C5851 C5855 1.393 . S
C5852 H5841 0.950 . S
C5852 C5850 1.391 . S
C5852 C5853 1.400 . S
C5853 C5847 1.491 . S
C5853 C5852 1.400 . S
C5853 C5854 1.398 . S
C5854 H5842 0.950 . S
C5854 C5853 1.398 . S
C5854 C5855 1.391 . S
C5855 H5843 0.950 . S
C5855 C5851 1.393 . S
C5855 C5854 1.391 . S
H5856 C5864 0.950 . S
H5857 C5869 0.950 . S
H5858 C5866 0.950 . S
H5859 C5868 0.950 . S
H5860 C5870 0.950 . S
H5861 C5872 0.950 . S
H5862 C5874 0.950 . S
H5863 C5875 0.950 . S
C5864 H5856 0.950 . S
C5864 C5865 1.386 . S
C5864 C5866 1.391 . S
C5865 C5864 1.386 . S
C5865 C5869 1.393 . S
C5866 H5858 0.950 . S
C5866 C5864 1.391 . S
C5866 C5867 1.400 . S
C5867 C5866 1.400 . S
C5867 C5868 1.398 . S
C5867 C5873 1.491 . S
C5868 H5859 0.950 . S
C5868 C5867 1.398 . S
C5868 C5869 1.391 . S
C5869 H5857 0.950 . S
C5869 C5865 1.393 . S
C5869 C5868 1.391 . S
C5870 H5860 0.950 . S
C5870 C5871 1.386 . S
C5870 C5872 1.391 . S
C5871 C5870 1.386 . S
C5871 C5875 1.393 . S
C5872 H5861 0.950 . S
C5872 C5870 1.391 . S
C5872 C5873 1.400 . S
C5873 C5867 1.491 . S
C5873 C5872 1.400 . S
C5873 C5874 1.398 . S
C5874 H5862 0.950 . S
C5874 C5873 1.398 . S
C5874 C5875 1.391 . S
C5875 H5863 0.950 . S
C5875 C5871 1.393 . S
C5875 C5874 1.391 . S
H5876 C5884 0.950 . S
H5877 C5889 0.950 . S
H5878 C5886 0.950 . S
H5879 C5888 0.950 . S
H5880 C5890 0.950 . S
H5881 C5892 0.950 . S
H5882 C5894 0.950 . S
H5883 C5895 0.950 . S
C5884 H5876 0.950 . S
C5884 C5885 1.386 . S
C5884 C5886 1.391 . S
C5885 C5884 1.386 . S
C5885 C5889 1.393 . S
C5886 H5878 0.950 . S
C5886 C5884 1.391 . S
C5886 C5887 1.400 . S
C5887 C5886 1.400 . S
C5887 C5888 1.398 . S
C5887 C5893 1.491 . S
C5888 H5879 0.950 . S
C5888 C5887 1.398 . S
C5888 C5889 1.391 . S
C5889 H5877 0.950 . S
C5889 C5885 1.393 . S
C5889 C5888 1.391 . S
C5890 H5880 0.950 . S
C5890 C5891 1.386 . S
C5890 C5892 1.391 . S
C5891 C5890 1.386 . S
C5891 C5895 1.393 . S
C5892 H5881 0.950 . S
C5892 C5890 1.391 . S
C5892 C5893 1.400 . S
C5893 C5887 1.491 . S
C5893 C5892 1.400 . S
C5893 C5894 1.398 . S
C5894 H5882 0.950 . S
C5894 C5893 1.398 . S
C5894 C5895 1.391 . S
C5895 H5883 0.950 . S
C5895 C5891 1.393 . S
C5895 C5894 1.391 . S
H5896 C5904 0.950 . S
H5897 C5909 0.950 . S
H5898 C5906 0.950 . S
H5899 C5908 0.950 . S
H5900 C5910 0.950 . S
H5901 C5912 0.950 . S
H5902 C5914 0.950 . S
H5903 C5915 0.950 . S
C5904 H5896 0.950 . S
C5904 C5905 1.386 . S
C5904 C5906 1.391 . S
C5905 C5904 1.386 . S
C5905 C5909 1.393 . S
C5906 H5898 0.950 . S
C5906 C5904 1.391 . S
C5906 C5907 1.400 . S
C5907 C5906 1.400 . S
C5907 C5908 1.398 . S
C5907 C5913 1.491 . S
C5908 H5899 0.950 . S
C5908 C5907 1.398 . S
C5908 C5909 1.391 . S
C5909 H5897 0.950 . S
C5909 C5905 1.393 . S
C5909 C5908 1.391 . S
C5910 H5900 0.950 . S
C5910 C5911 1.386 . S
C5910 C5912 1.391 . S
C5911 C5910 1.386 . S
C5911 C5915 1.393 . S
C5912 H5901 0.950 . S
C5912 C5910 1.391 . S
C5912 C5913 1.400 . S
C5913 C5907 1.491 . S
C5913 C5912 1.400 . S
C5913 C5914 1.398 . S
C5914 H5902 0.950 . S
C5914 C5913 1.398 . S
C5914 C5915 1.391 . S
C5915 H5903 0.950 . S
C5915 C5911 1.393 . S
C5915 C5914 1.391 . S
H5916 C5924 0.950 . S
H5917 C5929 0.950 . S
H5918 C5926 0.950 . S
H5919 C5928 0.950 . S
H5920 C5930 0.950 . S
H5921 C5932 0.950 . S
H5922 C5934 0.950 . S
H5923 C5935 0.950 . S
C5924 H5916 0.950 . S
C5924 C5925 1.386 . S
C5924 C5926 1.391 . S
C5925 C5924 1.386 . S
C5925 C5929 1.393 . S
C5926 H5918 0.950 . S
C5926 C5924 1.391 . S
C5926 C5927 1.400 . S
C5927 C5926 1.400 . S
C5927 C5928 1.398 . S
C5927 C5933 1.491 . S
C5928 H5919 0.950 . S
C5928 C5927 1.398 . S
C5928 C5929 1.391 . S
C5929 H5917 0.950 . S
C5929 C5925 1.393 . S
C5929 C5928 1.391 . S
C5930 H5920 0.950 . S
C5930 C5931 1.386 . S
C5930 C5932 1.391 . S
C5931 C5930 1.386 . S
C5931 C5935 1.393 . S
C5932 H5921 0.950 . S
C5932 C5930 1.391 . S
C5932 C5933 1.400 . S
C5933 C5927 1.491 . S
C5933 C5932 1.400 . S
C5933 C5934 1.398 . S
C5934 H5922 0.950 . S
C5934 C5933 1.398 . S
C5934 C5935 1.391 . S
C5935 H5923 0.950 . S
C5935 C5931 1.393 . S
C5935 C5934 1.391 . S
H5936 C5944 0.950 . S
H5937 C5949 0.950 . S
H5938 C5946 0.950 . S
H5939 C5948 0.950 . S
H5940 C5950 0.950 . S
H5941 C5952 0.950 . S
H5942 C5954 0.950 . S
H5943 C5955 0.950 . S
C5944 H5936 0.950 . S
C5944 C5945 1.386 . S
C5944 C5946 1.391 . S
C5945 C5944 1.386 . S
C5945 C5949 1.393 . S
C5946 H5938 0.950 . S
C5946 C5944 1.391 . S
C5946 C5947 1.400 . S
C5947 C5946 1.400 . S
C5947 C5948 1.398 . S
C5947 C5953 1.491 . S
C5948 H5939 0.950 . S
C5948 C5947 1.398 . S
C5948 C5949 1.391 . S
C5949 H5937 0.950 . S
C5949 C5945 1.393 . S
C5949 C5948 1.391 . S
C5950 H5940 0.950 . S
C5950 C5951 1.386 . S
C5950 C5952 1.391 . S
C5951 C5950 1.386 . S
C5951 C5955 1.393 . S
C5952 H5941 0.950 . S
C5952 C5950 1.391 . S
C5952 C5953 1.400 . S
C5953 C5947 1.491 . S
C5953 C5952 1.400 . S
C5953 C5954 1.398 . S
C5954 H5942 0.950 . S
C5954 C5953 1.398 . S
C5954 C5955 1.391 . S
C5955 H5943 0.950 . S
C5955 C5951 1.393 . S
C5955 C5954 1.391 . S
H5956 C5964 0.950 . S
H5957 C5969 0.950 . S
H5958 C5966 0.950 . S
H5959 C5968 0.950 . S
H5960 C5970 0.950 . S
H5961 C5972 0.950 . S
H5962 C5974 0.950 . S
H5963 C5975 0.950 . S
C5964 H5956 0.950 . S
C5964 C5965 1.386 . S
C5964 C5966 1.391 . S
C5965 C5964 1.386 . S
C5965 C5969 1.393 . S
C5966 H5958 0.950 . S
C5966 C5964 1.391 . S
C5966 C5967 1.400 . S
C5967 C5966 1.400 . S
C5967 C5968 1.398 . S
C5967 C5973 1.491 . S
C5968 H5959 0.950 . S
C5968 C5967 1.398 . S
C5968 C5969 1.391 . S
C5969 H5957 0.950 . S
C5969 C5965 1.393 . S
C5969 C5968 1.391 . S
C5970 H5960 0.950 . S
C5970 C5971 1.386 . S
C5970 C5972 1.391 . S
C5971 C5970 1.386 . S
C5971 C5975 1.393 . S
C5972 H5961 0.950 . S
C5972 C5970 1.391 . S
C5972 C5973 1.400 . S
C5973 C5967 1.491 . S
C5973 C5972 1.400 . S
C5973 C5974 1.398 . S
C5974 H5962 0.950 . S
C5974 C5973 1.398 . S
C5974 C5975 1.391 . S
C5975 H5963 0.950 . S
C5975 C5971 1.393 . S
C5975 C5974 1.391 . S
H5976 C5984 0.950 . S
H5977 C5989 0.950 . S
H5978 C5986 0.950 . S
H5979 C5988 0.950 . S
H5980 C5990 0.950 . S
H5981 C5992 0.950 . S
H5982 C5994 0.950 . S
H5983 C5995 0.950 . S
C5984 H5976 0.950 . S
C5984 C5985 1.386 . S
C5984 C5986 1.391 . S
C5985 C5984 1.386 . S
C5985 C5989 1.393 . S
C5986 H5978 0.950 . S
C5986 C5984 1.391 . S
C5986 C5987 1.400 . S
C5987 C5986 1.400 . S
C5987 C5988 1.398 . S
C5987 C5993 1.491 . S
C5988 H5979 0.950 . S
C5988 C5987 1.398 . S
C5988 C5989 1.391 . S
C5989 H5977 0.950 . S
C5989 C5985 1.393 . S
C5989 C5988 1.391 . S
C5990 H5980 0.950 . S
C5990 C5991 1.386 . S
C5990 C5992 1.391 . S
C5991 C5990 1.386 . S
C5991 C5995 1.393 . S
C5992 H5981 0.950 . S
C5992 C5990 1.391 . S
C5992 C5993 1.400 . S
C5993 C5987 1.491 . S
C5993 C5992 1.400 . S
C5993 C5994 1.398 . S
C5994 H5982 0.950 . S
C5994 C5993 1.398 . S
C5994 C5995 1.391 . S
C5995 H5983 0.950 . S
C5995 C5991 1.393 . S
C5995 C5994 1.391 . S
H5996 C6004 0.950 . S
H5997 C6009 0.950 . S
H5998 C6006 0.950 . S
H5999 C6008 0.950 . S
H6000 C6010 0.950 . S
H6001 C6012 0.950 . S
H6002 C6014 0.950 . S
H6003 C6015 0.950 . S
C6004 H5996 0.950 . S
C6004 C6005 1.386 . S
C6004 C6006 1.391 . S
C6005 C6004 1.386 . S
C6005 C6009 1.393 . S
C6006 H5998 0.950 . S
C6006 C6004 1.391 . S
C6006 C6007 1.400 . S
C6007 C6006 1.400 . S
C6007 C6008 1.398 . S
C6007 C6013 1.491 . S
C6008 H5999 0.950 . S
C6008 C6007 1.398 . S
C6008 C6009 1.391 . S
C6009 H5997 0.950 . S
C6009 C6005 1.393 . S
C6009 C6008 1.391 . S
C6010 H6000 0.950 . S
C6010 C6011 1.386 . S
C6010 C6012 1.391 . S
C6011 C6010 1.386 . S
C6011 C6015 1.393 . S
C6012 H6001 0.950 . S
C6012 C6010 1.391 . S
C6012 C6013 1.400 . S
C6013 C6007 1.491 . S
C6013 C6012 1.400 . S
C6013 C6014 1.398 . S
C6014 H6002 0.950 . S
C6014 C6013 1.398 . S
C6014 C6015 1.391 . S
C6015 H6003 0.950 . S
C6015 C6011 1.393 . S
C6015 C6014 1.391 . S
H6016 C6024 0.950 . S
H6017 C6029 0.950 . S
H6018 C6026 0.950 . S
H6019 C6028 0.950 . S
H6020 C6030 0.950 . S
H6021 C6032 0.950 . S
H6022 C6034 0.950 . S
H6023 C6035 0.950 . S
C6024 H6016 0.950 . S
C6024 C6025 1.386 . S
C6024 C6026 1.391 . S
C6025 C6024 1.386 . S
C6025 C6029 1.393 . S
C6026 H6018 0.950 . S
C6026 C6024 1.391 . S
C6026 C6027 1.400 . S
C6027 C6026 1.400 . S
C6027 C6028 1.398 . S
C6027 C6033 1.491 . S
C6028 H6019 0.950 . S
C6028 C6027 1.398 . S
C6028 C6029 1.391 . S
C6029 H6017 0.950 . S
C6029 C6025 1.393 . S
C6029 C6028 1.391 . S
C6030 H6020 0.950 . S
C6030 C6031 1.386 . S
C6030 C6032 1.391 . S
C6031 C6030 1.386 . S
C6031 C6035 1.393 . S
C6032 H6021 0.950 . S
C6032 C6030 1.391 . S
C6032 C6033 1.400 . S
C6033 C6027 1.491 . S
C6033 C6032 1.400 . S
C6033 C6034 1.398 . S
C6034 H6022 0.950 . S
C6034 C6033 1.398 . S
C6034 C6035 1.391 . S
C6035 H6023 0.950 . S
C6035 C6031 1.393 . S
C6035 C6034 1.391 . S
H6036 C6044 0.950 . S
H6037 C6049 0.950 . S
H6038 C6046 0.950 . S
H6039 C6048 0.950 . S
H6040 C6050 0.950 . S
H6041 C6052 0.950 . S
H6042 C6054 0.950 . S
H6043 C6055 0.950 . S
C6044 H6036 0.950 . S
C6044 C6045 1.386 . S
C6044 C6046 1.391 . S
C6045 C6044 1.386 . S
C6045 C6049 1.393 . S
C6046 H6038 0.950 . S
C6046 C6044 1.391 . S
C6046 C6047 1.400 . S
C6047 C6046 1.400 . S
C6047 C6048 1.398 . S
C6047 C6053 1.491 . S
C6048 H6039 0.950 . S
C6048 C6047 1.398 . S
C6048 C6049 1.391 . S
C6049 H6037 0.950 . S
C6049 C6045 1.393 . S
C6049 C6048 1.391 . S
C6050 H6040 0.950 . S
C6050 C6051 1.386 . S
C6050 C6052 1.391 . S
C6051 C6050 1.386 . S
C6051 C6055 1.393 . S
C6052 H6041 0.950 . S
C6052 C6050 1.391 . S
C6052 C6053 1.400 . S
C6053 C6047 1.491 . S
C6053 C6052 1.400 . S
C6053 C6054 1.398 . S
C6054 H6042 0.950 . S
C6054 C6053 1.398 . S
C6054 C6055 1.391 . S
C6055 H6043 0.950 . S
C6055 C6051 1.393 . S
C6055 C6054 1.391 . S
H6056 C6064 0.950 . S
H6057 C6069 0.950 . S
H6058 C6066 0.950 . S
H6059 C6068 0.950 . S
H6060 C6070 0.950 . S
H6061 C6072 0.950 . S
H6062 C6074 0.950 . S
H6063 C6075 0.950 . S
C6064 H6056 0.950 . S
C6064 C6065 1.386 . S
C6064 C6066 1.391 . S
C6065 C6064 1.386 . S
C6065 C6069 1.393 . S
C6066 H6058 0.950 . S
C6066 C6064 1.391 . S
C6066 C6067 1.400 . S
C6067 C6066 1.400 . S
C6067 C6068 1.398 . S
C6067 C6073 1.491 . S
C6068 H6059 0.950 . S
C6068 C6067 1.398 . S
C6068 C6069 1.391 . S
C6069 H6057 0.950 . S
C6069 C6065 1.393 . S
C6069 C6068 1.391 . S
C6070 H6060 0.950 . S
C6070 C6071 1.386 . S
C6070 C6072 1.391 . S
C6071 C6070 1.386 . S
C6071 C6075 1.393 . S
C6072 H6061 0.950 . S
C6072 C6070 1.391 . S
C6072 C6073 1.400 . S
C6073 C6067 1.491 . S
C6073 C6072 1.400 . S
C6073 C6074 1.398 . S
C6074 H6062 0.950 . S
C6074 C6073 1.398 . S
C6074 C6075 1.391 . S
C6075 H6063 0.950 . S
C6075 C6071 1.393 . S
C6075 C6074 1.391 . S
H6076 C6084 0.950 . S
H6077 C6089 0.950 . S
H6078 C6086 0.950 . S
H6079 C6088 0.950 . S
H6080 C6090 0.950 . S
H6081 C6092 0.950 . S
H6082 C6094 0.950 . S
H6083 C6095 0.950 . S
C6084 H6076 0.950 . S
C6084 C6085 1.386 . S
C6084 C6086 1.391 . S
C6085 C6084 1.386 . S
C6085 C6089 1.393 . S
C6086 H6078 0.950 . S
C6086 C6084 1.391 . S
C6086 C6087 1.400 . S
C6087 C6086 1.400 . S
C6087 C6088 1.398 . S
C6087 C6093 1.491 . S
C6088 H6079 0.950 . S
C6088 C6087 1.398 . S
C6088 C6089 1.391 . S
C6089 H6077 0.950 . S
C6089 C6085 1.393 . S
C6089 C6088 1.391 . S
C6090 H6080 0.950 . S
C6090 C6091 1.386 . S
C6090 C6092 1.391 . S
C6091 C6090 1.386 . S
C6091 C6095 1.393 . S
C6092 H6081 0.950 . S
C6092 C6090 1.391 . S
C6092 C6093 1.400 . S
C6093 C6087 1.491 . S
C6093 C6092 1.400 . S
C6093 C6094 1.398 . S
C6094 H6082 0.950 . S
C6094 C6093 1.398 . S
C6094 C6095 1.391 . S
C6095 H6083 0.950 . S
C6095 C6091 1.393 . S
C6095 C6094 1.391 . S
H6096 C6104 0.950 . S
H6097 C6109 0.950 . S
H6098 C6106 0.950 . S
H6099 C6108 0.950 . S
H6100 C6110 0.950 . S
H6101 C6112 0.950 . S
H6102 C6114 0.950 . S
H6103 C6115 0.950 . S
C6104 H6096 0.950 . S
C6104 C6105 1.386 . S
C6104 C6106 1.391 . S
C6105 C6104 1.386 . S
C6105 C6109 1.393 . S
C6106 H6098 0.950 . S
C6106 C6104 1.391 . S
C6106 C6107 1.400 . S
C6107 C6106 1.400 . S
C6107 C6108 1.398 . S
C6107 C6113 1.491 . S
C6108 H6099 0.950 . S
C6108 C6107 1.398 . S
C6108 C6109 1.391 . S
C6109 H6097 0.950 . S
C6109 C6105 1.393 . S
C6109 C6108 1.391 . S
C6110 H6100 0.950 . S
C6110 C6111 1.386 . S
C6110 C6112 1.391 . S
C6111 C6110 1.386 . S
C6111 C6115 1.393 . S
C6112 H6101 0.950 . S
C6112 C6110 1.391 . S
C6112 C6113 1.400 . S
C6113 C6107 1.491 . S
C6113 C6112 1.400 . S
C6113 C6114 1.398 . S
C6114 H6102 0.950 . S
C6114 C6113 1.398 . S
C6114 C6115 1.391 . S
C6115 H6103 0.950 . S
C6115 C6111 1.393 . S
C6115 C6114 1.391 . S
H6116 C6124 0.950 . S
H6117 C6129 0.950 . S
H6118 C6126 0.950 . S
H6119 C6128 0.950 . S
H6120 C6130 0.950 . S
H6121 C6132 0.950 . S
H6122 C6134 0.950 . S
H6123 C6135 0.950 . S
C6124 H6116 0.950 . S
C6124 C6125 1.386 . S
C6124 C6126 1.391 . S
C6125 C6124 1.386 . S
C6125 C6129 1.393 . S
C6126 H6118 0.950 . S
C6126 C6124 1.391 . S
C6126 C6127 1.400 . S
C6127 C6126 1.400 . S
C6127 C6128 1.398 . S
C6127 C6133 1.491 . S
C6128 H6119 0.950 . S
C6128 C6127 1.398 . S
C6128 C6129 1.391 . S
C6129 H6117 0.950 . S
C6129 C6125 1.393 . S
C6129 C6128 1.391 . S
C6130 H6120 0.950 . S
C6130 C6131 1.386 . S
C6130 C6132 1.391 . S
C6131 C6130 1.386 . S
C6131 C6135 1.393 . S
C6132 H6121 0.950 . S
C6132 C6130 1.391 . S
C6132 C6133 1.400 . S
C6133 C6127 1.491 . S
C6133 C6132 1.400 . S
C6133 C6134 1.398 . S
C6134 H6122 0.950 . S
C6134 C6133 1.398 . S
C6134 C6135 1.391 . S
C6135 H6123 0.950 . S
C6135 C6131 1.393 . S
C6135 C6134 1.391 . S
H6136 C6144 0.950 . S
H6137 C6149 0.950 . S
H6138 C6146 0.950 . S
H6139 C6148 0.950 . S
H6140 C6150 0.950 . S
H6141 C6152 0.950 . S
H6142 C6154 0.950 . S
H6143 C6155 0.950 . S
C6144 H6136 0.950 . S
C6144 C6145 1.386 . S
C6144 C6146 1.391 . S
C6145 C6144 1.386 . S
C6145 C6149 1.393 . S
C6146 H6138 0.950 . S
C6146 C6144 1.391 . S
C6146 C6147 1.400 . S
C6147 C6146 1.400 . S
C6147 C6148 1.398 . S
C6147 C6153 1.491 . S
C6148 H6139 0.950 . S
C6148 C6147 1.398 . S
C6148 C6149 1.391 . S
C6149 H6137 0.950 . S
C6149 C6145 1.393 . S
C6149 C6148 1.391 . S
C6150 H6140 0.950 . S
C6150 C6151 1.386 . S
C6150 C6152 1.391 . S
C6151 C6150 1.386 . S
C6151 C6155 1.393 . S
C6152 H6141 0.950 . S
C6152 C6150 1.391 . S
C6152 C6153 1.400 . S
C6153 C6147 1.491 . S
C6153 C6152 1.400 . S
C6153 C6154 1.398 . S
C6154 H6142 0.950 . S
C6154 C6153 1.398 . S
C6154 C6155 1.391 . S
C6155 H6143 0.950 . S
C6155 C6151 1.393 . S
C6155 C6154 1.391 . S
H6156 C6164 0.950 . S
H6157 C6169 0.950 . S
H6158 C6166 0.950 . S
H6159 C6168 0.950 . S
H6160 C6170 0.950 . S
H6161 C6172 0.950 . S
H6162 C6174 0.950 . S
H6163 C6175 0.950 . S
C6164 H6156 0.950 . S
C6164 C6165 1.386 . S
C6164 C6166 1.391 . S
C6165 C6164 1.386 . S
C6165 C6169 1.393 . S
C6166 H6158 0.950 . S
C6166 C6164 1.391 . S
C6166 C6167 1.400 . S
C6167 C6166 1.400 . S
C6167 C6168 1.398 . S
C6167 C6173 1.491 . S
C6168 H6159 0.950 . S
C6168 C6167 1.398 . S
C6168 C6169 1.391 . S
C6169 H6157 0.950 . S
C6169 C6165 1.393 . S
C6169 C6168 1.391 . S
C6170 H6160 0.950 . S
C6170 C6171 1.386 . S
C6170 C6172 1.391 . S
C6171 C6170 1.386 . S
C6171 C6175 1.393 . S
C6172 H6161 0.950 . S
C6172 C6170 1.391 . S
C6172 C6173 1.400 . S
C6173 C6167 1.491 . S
C6173 C6172 1.400 . S
C6173 C6174 1.398 . S
C6174 H6162 0.950 . S
C6174 C6173 1.398 . S
C6174 C6175 1.391 . S
C6175 H6163 0.950 . S
C6175 C6171 1.393 . S
C6175 C6174 1.391 . S
H6176 C6184 0.950 . S
H6177 C6189 0.950 . S
H6178 C6186 0.950 . S
H6179 C6188 0.950 . S
H6180 C6190 0.950 . S
H6181 C6192 0.950 . S
H6182 C6194 0.950 . S
H6183 C6195 0.950 . S
C6184 H6176 0.950 . S
C6184 C6185 1.386 . S
C6184 C6186 1.391 . S
C6185 C6184 1.386 . S
C6185 C6189 1.393 . S
C6186 H6178 0.950 . S
C6186 C6184 1.391 . S
C6186 C6187 1.400 . S
C6187 C6186 1.400 . S
C6187 C6188 1.398 . S
C6187 C6193 1.491 . S
C6188 H6179 0.950 . S
C6188 C6187 1.398 . S
C6188 C6189 1.391 . S
C6189 H6177 0.950 . S
C6189 C6185 1.393 . S
C6189 C6188 1.391 . S
C6190 H6180 0.950 . S
C6190 C6191 1.386 . S
C6190 C6192 1.391 . S
C6191 C6190 1.386 . S
C6191 C6195 1.393 . S
C6192 H6181 0.950 . S
C6192 C6190 1.391 . S
C6192 C6193 1.400 . S
C6193 C6187 1.491 . S
C6193 C6192 1.400 . S
C6193 C6194 1.398 . S
C6194 H6182 0.950 . S
C6194 C6193 1.398 . S
C6194 C6195 1.391 . S
C6195 H6183 0.950 . S
C6195 C6191 1.393 . S
C6195 C6194 1.391 . S
H6196 C6204 0.950 . S
H6197 C6209 0.950 . S
H6198 C6206 0.950 . S
H6199 C6208 0.950 . S
H6200 C6210 0.950 . S
H6201 C6212 0.950 . S
H6202 C6214 0.950 . S
H6203 C6215 0.950 . S
C6204 H6196 0.950 . S
C6204 C6205 1.386 . S
C6204 C6206 1.391 . S
C6205 C6204 1.386 . S
C6205 C6209 1.393 . S
C6206 H6198 0.950 . S
C6206 C6204 1.391 . S
C6206 C6207 1.400 . S
C6207 C6206 1.400 . S
C6207 C6208 1.398 . S
C6207 C6213 1.491 . S
C6208 H6199 0.950 . S
C6208 C6207 1.398 . S
C6208 C6209 1.391 . S
C6209 H6197 0.950 . S
C6209 C6205 1.393 . S
C6209 C6208 1.391 . S
C6210 H6200 0.950 . S
C6210 C6211 1.386 . S
C6210 C6212 1.391 . S
C6211 C6210 1.386 . S
C6211 C6215 1.393 . S
C6212 H6201 0.950 . S
C6212 C6210 1.391 . S
C6212 C6213 1.400 . S
C6213 C6207 1.491 . S
C6213 C6212 1.400 . S
C6213 C6214 1.398 . S
C6214 H6202 0.950 . S
C6214 C6213 1.398 . S
C6214 C6215 1.391 . S
C6215 H6203 0.950 . S
C6215 C6211 1.393 . S
C6215 C6214 1.391 . S
H6216 C6224 0.950 . S
H6217 C6229 0.950 . S
H6218 C6226 0.950 . S
H6219 C6228 0.950 . S
H6220 C6230 0.950 . S
H6221 C6232 0.950 . S
H6222 C6234 0.950 . S
H6223 C6235 0.950 . S
C6224 H6216 0.950 . S
C6224 C6225 1.386 . S
C6224 C6226 1.391 . S
C6225 C6224 1.386 . S
C6225 C6229 1.393 . S
C6226 H6218 0.950 . S
C6226 C6224 1.391 . S
C6226 C6227 1.400 . S
C6227 C6226 1.400 . S
C6227 C6228 1.398 . S
C6227 C6233 1.491 . S
C6228 H6219 0.950 . S
C6228 C6227 1.398 . S
C6228 C6229 1.391 . S
C6229 H6217 0.950 . S
C6229 C6225 1.393 . S
C6229 C6228 1.391 . S
C6230 H6220 0.950 . S
C6230 C6231 1.386 . S
C6230 C6232 1.391 . S
C6231 C6230 1.386 . S
C6231 C6235 1.393 . S
C6232 H6221 0.950 . S
C6232 C6230 1.391 . S
C6232 C6233 1.400 . S
C6233 C6227 1.491 . S
C6233 C6232 1.400 . S
C6233 C6234 1.398 . S
C6234 H6222 0.950 . S
C6234 C6233 1.398 . S
C6234 C6235 1.391 . S
C6235 H6223 0.950 . S
C6235 C6231 1.393 . S
C6235 C6234 1.391 . S
H6236 C6244 0.950 . S
H6237 C6249 0.950 . S
H6238 C6246 0.950 . S
H6239 C6248 0.950 . S
H6240 C6250 0.950 . S
H6241 C6252 0.950 . S
H6242 C6254 0.950 . S
H6243 C6255 0.950 . S
C6244 H6236 0.950 . S
C6244 C6245 1.386 . S
C6244 C6246 1.391 . S
C6245 C6244 1.386 . S
C6245 C6249 1.393 . S
C6246 H6238 0.950 . S
C6246 C6244 1.391 . S
C6246 C6247 1.400 . S
C6247 C6246 1.400 . S
C6247 C6248 1.398 . S
C6247 C6253 1.491 . S
C6248 H6239 0.950 . S
C6248 C6247 1.398 . S
C6248 C6249 1.391 . S
C6249 H6237 0.950 . S
C6249 C6245 1.393 . S
C6249 C6248 1.391 . S
C6250 H6240 0.950 . S
C6250 C6251 1.386 . S
C6250 C6252 1.391 . S
C6251 C6250 1.386 . S
C6251 C6255 1.393 . S
C6252 H6241 0.950 . S
C6252 C6250 1.391 . S
C6252 C6253 1.400 . S
C6253 C6247 1.491 . S
C6253 C6252 1.400 . S
C6253 C6254 1.398 . S
C6254 H6242 0.950 . S
C6254 C6253 1.398 . S
C6254 C6255 1.391 . S
C6255 H6243 0.950 . S
C6255 C6251 1.393 . S
C6255 C6254 1.391 . S
H6256 C6264 0.950 . S
H6257 C6269 0.950 . S
H6258 C6266 0.950 . S
H6259 C6268 0.950 . S
H6260 C6270 0.950 . S
H6261 C6272 0.950 . S
H6262 C6274 0.950 . S
H6263 C6275 0.950 . S
C6264 H6256 0.950 . S
C6264 C6265 1.386 . S
C6264 C6266 1.391 . S
C6265 C6264 1.386 . S
C6265 C6269 1.393 . S
C6266 H6258 0.950 . S
C6266 C6264 1.391 . S
C6266 C6267 1.400 . S
C6267 C6266 1.400 . S
C6267 C6268 1.398 . S
C6267 C6273 1.491 . S
C6268 H6259 0.950 . S
C6268 C6267 1.398 . S
C6268 C6269 1.391 . S
C6269 H6257 0.950 . S
C6269 C6265 1.393 . S
C6269 C6268 1.391 . S
C6270 H6260 0.950 . S
C6270 C6271 1.386 . S
C6270 C6272 1.391 . S
C6271 C6270 1.386 . S
C6271 C6275 1.393 . S
C6272 H6261 0.950 . S
C6272 C6270 1.391 . S
C6272 C6273 1.400 . S
C6273 C6267 1.491 . S
C6273 C6272 1.400 . S
C6273 C6274 1.398 . S
C6274 H6262 0.950 . S
C6274 C6273 1.398 . S
C6274 C6275 1.391 . S
C6275 H6263 0.950 . S
C6275 C6271 1.393 . S
C6275 C6274 1.391 . S
H6276 C6284 0.950 . S
H6277 C6289 0.950 . S
H6278 C6286 0.950 . S
H6279 C6288 0.950 . S
H6280 C6290 0.950 . S
H6281 C6292 0.950 . S
H6282 C6294 0.950 . S
H6283 C6295 0.950 . S
C6284 H6276 0.950 . S
C6284 C6285 1.386 . S
C6284 C6286 1.391 . S
C6285 C6284 1.386 . S
C6285 C6289 1.393 . S
C6286 H6278 0.950 . S
C6286 C6284 1.391 . S
C6286 C6287 1.400 . S
C6287 C6286 1.400 . S
C6287 C6288 1.398 . S
C6287 C6293 1.491 . S
C6288 H6279 0.950 . S
C6288 C6287 1.398 . S
C6288 C6289 1.391 . S
C6289 H6277 0.950 . S
C6289 C6285 1.393 . S
C6289 C6288 1.391 . S
C6290 H6280 0.950 . S
C6290 C6291 1.386 . S
C6290 C6292 1.391 . S
C6291 C6290 1.386 . S
C6291 C6295 1.393 . S
C6292 H6281 0.950 . S
C6292 C6290 1.391 . S
C6292 C6293 1.400 . S
C6293 C6287 1.491 . S
C6293 C6292 1.400 . S
C6293 C6294 1.398 . S
C6294 H6282 0.950 . S
C6294 C6293 1.398 . S
C6294 C6295 1.391 . S
C6295 H6283 0.950 . S
C6295 C6291 1.393 . S
C6295 C6294 1.391 . S
H6296 C6304 0.950 . S
H6297 C6309 0.950 . S
H6298 C6306 0.950 . S
H6299 C6308 0.950 . S
H6300 C6310 0.950 . S
H6301 C6312 0.950 . S
H6302 C6314 0.950 . S
H6303 C6315 0.950 . S
C6304 H6296 0.950 . S
C6304 C6305 1.386 . S
C6304 C6306 1.391 . S
C6305 C6304 1.386 . S
C6305 C6309 1.393 . S
C6306 H6298 0.950 . S
C6306 C6304 1.391 . S
C6306 C6307 1.400 . S
C6307 C6306 1.400 . S
C6307 C6308 1.398 . S
C6307 C6313 1.491 . S
C6308 H6299 0.950 . S
C6308 C6307 1.398 . S
C6308 C6309 1.391 . S
C6309 H6297 0.950 . S
C6309 C6305 1.393 . S
C6309 C6308 1.391 . S
C6310 H6300 0.950 . S
C6310 C6311 1.386 . S
C6310 C6312 1.391 . S
C6311 C6310 1.386 . S
C6311 C6315 1.393 . S
C6312 H6301 0.950 . S
C6312 C6310 1.391 . S
C6312 C6313 1.400 . S
C6313 C6307 1.491 . S
C6313 C6312 1.400 . S
C6313 C6314 1.398 . S
C6314 H6302 0.950 . S
C6314 C6313 1.398 . S
C6314 C6315 1.391 . S
C6315 H6303 0.950 . S
C6315 C6311 1.393 . S
C6315 C6314 1.391 . S
H6316 C6324 0.950 . S
H6317 C6329 0.950 . S
H6318 C6326 0.950 . S
H6319 C6328 0.950 . S
H6320 C6330 0.950 . S
H6321 C6332 0.950 . S
H6322 C6334 0.950 . S
H6323 C6335 0.950 . S
C6324 H6316 0.950 . S
C6324 C6325 1.386 . S
C6324 C6326 1.391 . S
C6325 C6324 1.386 . S
C6325 C6329 1.393 . S
C6326 H6318 0.950 . S
C6326 C6324 1.391 . S
C6326 C6327 1.400 . S
C6327 C6326 1.400 . S
C6327 C6328 1.398 . S
C6327 C6333 1.491 . S
C6328 H6319 0.950 . S
C6328 C6327 1.398 . S
C6328 C6329 1.391 . S
C6329 H6317 0.950 . S
C6329 C6325 1.393 . S
C6329 C6328 1.391 . S
C6330 H6320 0.950 . S
C6330 C6331 1.386 . S
C6330 C6332 1.391 . S
C6331 C6330 1.386 . S
C6331 C6335 1.393 . S
C6332 H6321 0.950 . S
C6332 C6330 1.391 . S
C6332 C6333 1.400 . S
C6333 C6327 1.491 . S
C6333 C6332 1.400 . S
C6333 C6334 1.398 . S
C6334 H6322 0.950 . S
C6334 C6333 1.398 . S
C6334 C6335 1.391 . S
C6335 H6323 0.950 . S
C6335 C6331 1.393 . S
C6335 C6334 1.391 . S
H6336 C6344 0.950 . S
H6337 C6349 0.950 . S
H6338 C6346 0.950 1_655 S
H6339 C6348 0.950 . S
H6340 C6350 0.950 . S
H6341 C6352 0.950 1_455 S
H6342 C6354 0.950 . S
H6343 C6355 0.950 . S
C6344 H6336 0.950 . S
C6344 C6345 1.386 . S
C6344 C6346 1.391 . S
C6345 C6344 1.386 . S
C6345 C6349 1.393 . S
C6346 H6338 0.950 1_455 S
C6346 C6344 1.391 . S
C6346 C6347 1.400 . S
C6347 C6346 1.400 . S
C6347 C6348 1.398 . S
C6347 C6353 1.491 1_455 S
C6348 H6339 0.950 . S
C6348 C6347 1.398 . S
C6348 C6349 1.391 . S
C6349 H6337 0.950 . S
C6349 C6345 1.393 . S
C6349 C6348 1.391 . S
C6350 H6340 0.950 . S
C6350 C6351 1.386 . S
C6350 C6352 1.391 . S
C6351 C6350 1.386 . S
C6351 C6355 1.393 . S
C6352 H6341 0.950 1_655 S
C6352 C6350 1.391 . S
C6352 C6353 1.400 . S
C6353 C6347 1.491 1_655 S
C6353 C6352 1.400 . S
C6353 C6354 1.398 . S
C6354 H6342 0.950 . S
C6354 C6353 1.398 . S
C6354 C6355 1.391 . S
C6355 H6343 0.950 . S
C6355 C6351 1.393 . S
C6355 C6354 1.391 . S
H6356 C6364 0.950 . S
H6357 C6369 0.950 . S
H6358 C6366 0.950 . S
H6359 C6368 0.950 . S
H6360 C6370 0.950 . S
H6361 C6372 0.950 . S
H6362 C6374 0.950 . S
H6363 C6375 0.950 . S
C6364 H6356 0.950 . S
C6364 C6365 1.386 . S
C6364 C6366 1.391 . S
C6365 C6364 1.386 . S
C6365 C6369 1.393 . S
C6366 H6358 0.950 . S
C6366 C6364 1.391 . S
C6366 C6367 1.400 . S
C6367 C6366 1.400 . S
C6367 C6368 1.398 . S
C6367 C6373 1.491 . S
C6368 H6359 0.950 . S
C6368 C6367 1.398 . S
C6368 C6369 1.391 . S
C6369 H6357 0.950 . S
C6369 C6365 1.393 . S
C6369 C6368 1.391 . S
C6370 H6360 0.950 . S
C6370 C6371 1.386 . S
C6370 C6372 1.391 . S
C6371 C6370 1.386 . S
C6371 C6375 1.393 . S
C6372 H6361 0.950 . S
C6372 C6370 1.391 . S
C6372 C6373 1.400 . S
C6373 C6367 1.491 . S
C6373 C6372 1.400 . S
C6373 C6374 1.398 . S
C6374 H6362 0.950 . S
C6374 C6373 1.398 . S
C6374 C6375 1.391 . S
C6375 H6363 0.950 . S
C6375 C6371 1.393 . S
C6375 C6374 1.391 . S
H6376 C6384 0.950 . S
H6377 C6389 0.950 . S
H6378 C6386 0.950 . S
H6379 C6388 0.950 . S
H6380 C6390 0.950 . S
H6381 C6392 0.950 . S
H6382 C6394 0.950 . S
H6383 C6395 0.950 . S
C6384 H6376 0.950 . S
C6384 C6385 1.386 . S
C6384 C6386 1.391 . S
C6385 C6384 1.386 . S
C6385 C6389 1.393 . S
C6386 H6378 0.950 . S
C6386 C6384 1.391 . S
C6386 C6387 1.400 . S
C6387 C6386 1.400 . S
C6387 C6388 1.398 . S
C6387 C6393 1.491 . S
C6388 H6379 0.950 . S
C6388 C6387 1.398 . S
C6388 C6389 1.391 . S
C6389 H6377 0.950 . S
C6389 C6385 1.393 . S
C6389 C6388 1.391 . S
C6390 H6380 0.950 . S
C6390 C6391 1.386 . S
C6390 C6392 1.391 . S
C6391 C6390 1.386 . S
C6391 C6395 1.393 . S
C6392 H6381 0.950 . S
C6392 C6390 1.391 . S
C6392 C6393 1.400 . S
C6393 C6387 1.491 . S
C6393 C6392 1.400 . S
C6393 C6394 1.398 . S
C6394 H6382 0.950 . S
C6394 C6393 1.398 . S
C6394 C6395 1.391 . S
C6395 H6383 0.950 . S
C6395 C6391 1.393 . S
C6395 C6394 1.391 . S
H6396 C6404 0.950 . S
H6397 C6409 0.950 . S
H6398 C6406 0.950 . S
H6399 C6408 0.950 1_554 S
H6400 C6410 0.950 . S
H6401 C6412 0.950 . S
H6402 C6414 0.891 1_556 S
H6403 C6415 0.950 . S
C6404 H6396 0.950 . S
C6404 C6405 1.386 . S
C6404 C6406 1.391 . S
C6405 C6404 1.386 . S
C6405 C6409 1.393 . S
C6406 H6398 0.950 . S
C6406 C6404 1.391 . S
C6406 C6407 1.400 . S
C6407 C6406 1.400 . S
C6407 C6408 1.398 . S
C6407 C6413 1.491 1_556 S
C6408 H6399 0.950 1_556 S
C6408 C6407 1.398 . S
C6408 C6409 1.391 . S
C6409 H6397 0.950 . S
C6409 C6405 1.393 . S
C6409 C6408 1.391 . S
C6410 H6400 0.950 . S
C6410 C6411 1.386 . S
C6410 C6412 1.391 . S
C6411 C6410 1.386 . S
C6411 C6415 1.393 . S
C6412 H6401 0.950 . S
C6412 C6410 1.391 . S
C6412 C6413 1.400 . S
C6413 C6407 1.491 1_554 S
C6413 C6412 1.400 . S
C6413 C6414 1.413 . S
C6414 H6402 0.891 1_554 S
C6414 C6413 1.413 . S
C6414 C6415 1.437 . S
C6415 H6403 0.950 . S
C6415 C6411 1.393 . S
C6415 C6414 1.437 . S
H6416 C6424 0.950 . S
H6417 C6429 0.950 . S
H6418 C6426 0.950 . S
H6419 C6428 0.950 . S
H6420 C6430 0.950 . S
H6421 C6432 0.950 . S
H6422 C6434 0.950 . S
H6423 C6435 0.950 . S
C6424 H6416 0.950 . S
C6424 C6425 1.386 . S
C6424 C6426 1.391 . S
C6425 C6424 1.386 . S
C6425 C6429 1.393 . S
C6426 H6418 0.950 . S
C6426 C6424 1.391 . S
C6426 C6427 1.400 . S
C6427 C6426 1.400 . S
C6427 C6428 1.398 . S
C6427 C6433 1.491 1_655 S
C6428 H6419 0.950 . S
C6428 C6427 1.398 . S
C6428 C6429 1.391 . S
C6429 H6417 0.950 . S
C6429 C6425 1.393 . S
C6429 C6428 1.391 . S
C6430 H6420 0.950 . S
C6430 C6431 1.386 . S
C6430 C6432 1.391 . S
C6431 C6430 1.386 . S
C6431 C6435 1.393 . S
C6432 H6421 0.950 . S
C6432 C6430 1.391 . S
C6432 C6433 1.400 . S
C6433 C6427 1.491 1_455 S
C6433 C6432 1.400 . S
C6433 C6434 1.398 . S
C6434 H6422 0.950 . S
C6434 C6433 1.398 . S
C6434 C6435 1.391 . S
C6435 H6423 0.950 . S
C6435 C6431 1.393 . S
C6435 C6434 1.391 . S
H6436 C6444 0.950 . S
H6437 C6449 0.950 . S
H6438 C6446 0.950 . S
H6439 C6448 0.950 . S
H6440 C6450 0.950 . S
H6441 C6452 0.950 . S
H6442 C6454 0.950 . S
H6443 C6455 0.950 . S
C6444 H6436 0.950 . S
C6444 C6445 1.386 . S
C6444 C6446 1.391 . S
C6445 C6444 1.386 . S
C6445 C6449 1.393 . S
C6446 H6438 0.950 . S
C6446 C6444 1.391 . S
C6446 C6447 1.400 . S
C6447 C6446 1.400 . S
C6447 C6448 1.398 . S
C6447 C6453 1.491 . S
C6448 H6439 0.950 . S
C6448 C6447 1.398 . S
C6448 C6449 1.391 . S
C6449 H6437 0.950 . S
C6449 C6445 1.393 . S
C6449 C6448 1.391 . S
C6450 H6440 0.950 . S
C6450 C6451 1.386 . S
C6450 C6452 1.391 . S
C6451 C6450 1.386 . S
C6451 C6455 1.393 . S
C6452 H6441 0.950 . S
C6452 C6450 1.391 . S
C6452 C6453 1.400 . S
C6453 C6447 1.491 . S
C6453 C6452 1.400 . S
C6453 C6454 1.398 . S
C6454 H6442 0.950 . S
C6454 C6453 1.398 . S
C6454 C6455 1.391 . S
C6455 H6443 0.950 . S
C6455 C6451 1.393 . S
C6455 C6454 1.391 . S
H6456 C6464 0.950 . S
H6457 C6469 0.950 . S
H6458 C6466 0.950 . S
H6459 C6468 0.950 . S
H6460 C6470 0.950 . S
H6461 C6472 0.950 . S
H6462 C6474 0.950 . S
H6463 C6475 0.950 . S
C6464 H6456 0.950 . S
C6464 C6465 1.386 . S
C6464 C6466 1.391 . S
C6465 C6464 1.386 . S
C6465 C6469 1.393 . S
C6466 H6458 0.950 . S
C6466 C6464 1.391 . S
C6466 C6467 1.400 . S
C6467 C6466 1.400 . S
C6467 C6468 1.398 . S
C6467 C6473 1.491 . S
C6468 H6459 0.950 . S
C6468 C6467 1.398 . S
C6468 C6469 1.391 . S
C6469 H6457 0.950 . S
C6469 C6465 1.393 . S
C6469 C6468 1.391 . S
C6470 H6460 0.950 . S
C6470 C6471 1.386 . S
C6470 C6472 1.391 . S
C6471 C6470 1.386 . S
C6471 C6475 1.393 . S
C6472 H6461 0.950 . S
C6472 C6470 1.391 . S
C6472 C6473 1.400 . S
C6473 C6467 1.491 . S
C6473 C6472 1.400 . S
C6473 C6474 1.398 . S
C6474 H6462 0.950 . S
C6474 C6473 1.398 . S
C6474 C6475 1.391 . S
C6475 H6463 0.950 . S
C6475 C6471 1.393 . S
C6475 C6474 1.391 . S
H6476 C6484 0.950 . S
H6477 C6489 0.950 . S
H6478 C6486 0.950 1_554 S
H6479 C6488 0.950 . S
H6480 C6490 0.950 . S
H6481 C6492 0.992 . S
H6482 C6494 0.950 . S
H6483 C6495 0.950 . S
C6484 H6476 0.950 . S
C6484 C6485 1.386 . S
C6484 C6486 1.391 . S
C6485 C6484 1.386 . S
C6485 C6489 1.393 . S
C6486 H6478 0.950 1_556 S
C6486 C6484 1.391 . S
C6486 C6487 1.400 . S
C6487 C6486 1.400 . S
C6487 C6488 1.398 . S
C6487 C6493 1.491 1_556 S
C6488 H6479 0.950 . S
C6488 C6487 1.398 . S
C6488 C6489 1.391 . S
C6489 H6477 0.950 . S
C6489 C6485 1.393 . S
C6489 C6488 1.391 . S
C6490 H6480 0.950 . S
C6490 C6491 1.386 . S
C6490 C6492 1.391 . S
C6491 C6490 1.386 . S
C6491 C6495 1.393 . S
C6492 H6481 0.992 . S
C6492 C6490 1.391 . S
C6492 C6493 1.400 . S
C6493 C6487 1.491 1_554 S
C6493 C6492 1.400 . S
C6493 C6494 1.398 . S
C6494 H6482 0.950 . S
C6494 C6493 1.398 . S
C6494 C6495 1.391 . S
C6495 H6483 0.950 . S
C6495 C6491 1.393 . S
C6495 C6494 1.391 . S
H6496 C6504 0.950 . S
H6497 C6509 0.950 . S
H6498 C6506 0.950 . S
H6499 C6508 0.950 1_565 S
H6500 C6510 0.950 . S
H6501 C6512 0.950 . S
H6502 C6514 0.950 1_545 S
H6503 C6515 0.950 . S
C6504 H6496 0.950 . S
C6504 C6505 1.386 . S
C6504 C6506 1.391 . S
C6505 C6504 1.386 . S
C6505 C6509 1.393 . S
C6506 H6498 0.950 . S
C6506 C6504 1.391 . S
C6506 C6507 1.400 . S
C6507 C6506 1.400 . S
C6507 C6508 1.398 . S
C6507 C6513 1.491 1_545 S
C6508 H6499 0.950 1_545 S
C6508 C6507 1.398 . S
C6508 C6509 1.391 . S
C6509 H6497 0.950 . S
C6509 C6505 1.393 . S
C6509 C6508 1.391 . S
C6510 H6500 0.950 . S
C6510 C6511 1.386 . S
C6510 C6512 1.391 . S
C6511 C6510 1.386 . S
C6511 C6515 1.393 . S
C6512 H6501 0.950 . S
C6512 C6510 1.391 . S
C6512 C6513 1.400 . S
C6513 C6507 1.491 1_565 S
C6513 C6512 1.400 . S
C6513 C6514 1.398 . S
C6514 H6502 0.950 1_565 S
C6514 C6513 1.398 . S
C6514 C6515 1.391 . S
C6515 H6503 0.950 . S
C6515 C6511 1.393 . S
C6515 C6514 1.391 . S
H6516 C6524 0.950 . S
H6517 C6529 0.950 . S
H6518 C6526 0.950 . S
H6519 C6528 0.981 . S
H6520 C6530 0.950 . S
H6521 C6532 0.950 . S
H6522 C6534 0.950 1_545 S
H6523 C6535 0.950 . S
C6524 H6516 0.950 . S
C6524 C6525 1.386 . S
C6524 C6526 1.391 . S
C6525 C6524 1.386 . S
C6525 C6529 1.393 . S
C6526 H6518 0.950 . S
C6526 C6524 1.391 . S
C6526 C6527 1.400 . S
C6527 C6526 1.400 . S
C6527 C6528 1.390 1_545 S
C6527 C6533 1.491 1_545 S
C6528 H6519 0.981 . S
C6528 C6527 1.390 1_565 S
C6528 C6529 1.369 1_565 S
C6529 H6517 0.950 . S
C6529 C6525 1.393 . S
C6529 C6528 1.369 1_545 S
C6530 H6520 0.950 . S
C6530 C6531 1.386 . S
C6530 C6532 1.391 . S
C6531 C6530 1.386 . S
C6531 C6535 1.393 . S
C6532 H6521 0.950 . S
C6532 C6530 1.391 . S
C6532 C6533 1.400 . S
C6533 C6527 1.491 1_565 S
C6533 C6532 1.400 . S
C6533 C6534 1.398 . S
C6534 H6522 0.950 1_565 S
C6534 C6533 1.398 . S
C6534 C6535 1.391 . S
C6535 H6523 0.950 . S
C6535 C6531 1.393 . S
C6535 C6534 1.391 . S
H6536 C6544 0.950 . S
H6537 C6549 0.950 . S
H6538 C6546 0.950 . S
H6539 C6548 0.950 1_545 S
H6540 C6550 0.950 . S
H6541 C6552 0.950 . S
H6542 C6554 0.950 1_565 S
H6543 C6555 0.950 . S
C6544 H6536 0.950 . S
C6544 C6545 1.386 . S
C6544 C6546 1.391 . S
C6545 C6544 1.386 . S
C6545 C6549 1.393 . S
C6546 H6538 0.950 . S
C6546 C6544 1.391 . S
C6546 C6547 1.400 . S
C6547 C6546 1.400 . S
C6547 C6548 1.398 . S
C6547 C6553 1.491 1_565 S
C6548 H6539 0.950 1_565 S
C6548 C6547 1.398 . S
C6548 C6549 1.391 . S
C6549 H6537 0.950 . S
C6549 C6545 1.393 . S
C6549 C6548 1.391 . S
C6550 H6540 0.950 . S
C6550 C6551 1.386 . S
C6550 C6552 1.391 . S
C6551 C6550 1.386 . S
C6551 C6555 1.393 . S
C6552 H6541 0.950 . S
C6552 C6550 1.391 . S
C6552 C6553 1.400 . S
C6553 C6547 1.491 1_545 S
C6553 C6552 1.400 . S
C6553 C6554 1.398 . S
C6554 H6542 0.950 1_545 S
C6554 C6553 1.398 . S
C6554 C6555 1.391 . S
C6555 H6543 0.950 . S
C6555 C6551 1.393 . S
C6555 C6554 1.391 . S
H6556 C6564 0.950 . S
H6557 C6569 0.950 . S
H6558 C6566 0.950 . S
H6559 C6568 0.950 . S
H6560 C6570 0.950 . S
H6561 C6572 0.950 . S
H6562 C6574 0.950 . S
H6563 C6575 0.950 . S
C6564 H6556 0.950 . S
C6564 C6565 1.386 . S
C6564 C6566 1.391 . S
C6565 C6564 1.386 . S
C6565 C6569 1.393 . S
C6566 H6558 0.950 . S
C6566 C6564 1.391 . S
C6566 C6567 1.400 . S
C6567 C6566 1.400 . S
C6567 C6568 1.398 . S
C6567 C6573 1.491 1_545 S
C6568 H6559 0.950 . S
C6568 C6567 1.398 . S
C6568 C6569 1.391 . S
C6569 H6557 0.950 . S
C6569 C6565 1.393 . S
C6569 C6568 1.391 . S
C6570 H6560 0.950 . S
C6570 C6571 1.386 . S
C6570 C6572 1.391 . S
C6571 C6570 1.386 . S
C6571 C6575 1.393 . S
C6572 H6561 0.950 . S
C6572 C6570 1.391 . S
C6572 C6573 1.400 . S
C6573 C6567 1.491 1_565 S
C6573 C6572 1.400 . S
C6573 C6574 1.398 . S
C6574 H6562 0.950 . S
C6574 C6573 1.398 . S
C6574 C6575 1.391 . S
C6575 H6563 0.950 . S
C6575 C6571 1.393 . S
C6575 C6574 1.391 . S
H6576 C6584 0.950 . S
H6577 C6589 0.950 . S
H6578 C6586 0.950 . S
H6579 C6588 0.940 1_556 S
H6580 C6590 0.950 . S
H6581 C6592 0.950 . S
H6582 C6594 0.950 1_554 S
H6583 C6595 0.950 . S
C6584 H6576 0.950 . S
C6584 C6585 1.386 . S
C6584 C6586 1.391 . S
C6585 C6584 1.386 . S
C6585 C6589 1.393 . S
C6586 H6578 0.950 . S
C6586 C6584 1.391 . S
C6586 C6587 1.400 . S
C6587 C6586 1.400 . S
C6587 C6588 1.401 . S
C6587 C6593 1.491 1_554 S
C6588 H6579 0.940 1_554 S
C6588 C6587 1.401 . S
C6588 C6589 1.398 . S
C6589 H6577 0.950 . S
C6589 C6585 1.393 . S
C6589 C6588 1.398 . S
C6590 H6580 0.950 . S
C6590 C6591 1.386 . S
C6590 C6592 1.391 . S
C6591 C6590 1.386 . S
C6591 C6595 1.393 . S
C6592 H6581 0.950 . S
C6592 C6590 1.391 . S
C6592 C6593 1.400 . S
C6593 C6587 1.491 1_556 S
C6593 C6592 1.400 . S
C6593 C6594 1.398 . S
C6594 H6582 0.950 1_556 S
C6594 C6593 1.398 . S
C6594 C6595 1.391 . S
C6595 H6583 0.950 . S
C6595 C6591 1.393 . S
C6595 C6594 1.391 . S
H6596 C6604 0.950 . S
H6597 C6609 0.950 . S
H6598 C6606 0.950 1_655 S
H6599 C6608 0.950 . S
H6600 C6610 0.950 . S
H6601 C6612 0.950 . S
H6602 C6614 0.950 . S
H6603 C6615 0.950 . S
C6604 H6596 0.950 . S
C6604 C6605 1.386 . S
C6604 C6606 1.391 . S
C6605 C6604 1.386 . S
C6605 C6609 1.393 . S
C6606 H6598 0.950 1_455 S
C6606 C6604 1.391 . S
C6606 C6607 1.400 . S
C6607 C6606 1.400 . S
C6607 C6608 1.398 . S
C6607 C6613 1.491 1_455 S
C6608 H6599 0.950 . S
C6608 C6607 1.398 . S
C6608 C6609 1.391 . S
C6609 H6597 0.950 . S
C6609 C6605 1.393 . S
C6609 C6608 1.391 . S
C6610 H6600 0.950 . S
C6610 C6611 1.386 . S
C6610 C6612 1.391 . S
C6611 C6610 1.386 . S
C6611 C6615 1.393 . S
C6612 H6601 0.950 . S
C6612 C6610 1.391 . S
C6612 C6613 1.400 . S
C6613 C6607 1.491 1_655 S
C6613 C6612 1.400 . S
C6613 C6614 1.398 . S
C6614 H6602 0.950 . S
C6614 C6613 1.398 . S
C6614 C6615 1.391 . S
C6615 H6603 0.950 . S
C6615 C6611 1.393 . S
C6615 C6614 1.391 . S
H6616 C6624 0.950 . S
H6617 C6629 0.950 . S
H6618 C6626 0.950 . S
H6619 C6628 0.950 . S
H6620 C6630 0.950 . S
H6621 C6632 0.950 . S
H6622 C6634 0.950 . S
H6623 C6635 0.950 . S
C6624 H6616 0.950 . S
C6624 C6625 1.386 . S
C6624 C6626 1.391 . S
C6625 C6624 1.386 . S
C6625 C6629 1.393 . S
C6626 H6618 0.950 . S
C6626 C6624 1.391 . S
C6626 C6627 1.400 . S
C6627 C6626 1.400 . S
C6627 C6628 1.398 . S
C6627 C6633 1.491 . S
C6628 H6619 0.950 . S
C6628 C6627 1.398 . S
C6628 C6629 1.391 . S
C6629 H6617 0.950 . S
C6629 C6625 1.393 . S
C6629 C6628 1.391 . S
C6630 H6620 0.950 . S
C6630 C6631 1.386 . S
C6630 C6632 1.391 . S
C6631 C6630 1.386 . S
C6631 C6635 1.393 . S
C6632 H6621 0.950 . S
C6632 C6630 1.391 . S
C6632 C6633 1.400 . S
C6633 C6627 1.491 . S
C6633 C6632 1.400 . S
C6633 C6634 1.398 . S
C6634 H6622 0.950 . S
C6634 C6633 1.398 . S
C6634 C6635 1.391 . S
C6635 H6623 0.950 . S
C6635 C6631 1.393 . S
C6635 C6634 1.391 . S
H6636 C6644 0.950 . S
H6637 C6649 0.950 . S
H6638 C6646 0.950 1_455 S
H6639 C6648 0.950 . S
H6640 C6650 0.950 . S
H6641 C6652 0.995 . S
H6642 C6654 0.950 . S
H6643 C6655 0.950 . S
C6644 H6636 0.950 . S
C6644 C6645 1.386 . S
C6644 C6646 1.391 . S
C6645 C6644 1.386 . S
C6645 C6649 1.393 . S
C6646 H6638 0.950 1_655 S
C6646 C6644 1.391 . S
C6646 C6647 1.400 . S
C6647 C6646 1.400 . S
C6647 C6648 1.398 . S
C6647 C6653 1.491 1_655 S
C6648 H6639 0.950 . S
C6648 C6647 1.398 . S
C6648 C6649 1.391 . S
C6649 H6637 0.950 . S
C6649 C6645 1.393 . S
C6649 C6648 1.391 . S
C6650 H6640 0.950 . S
C6650 C6651 1.386 . S
C6650 C6652 1.360 1_455 S
C6651 C6650 1.386 . S
C6651 C6655 1.393 . S
C6652 H6641 0.995 . S
C6652 C6650 1.360 1_655 S
C6652 C6653 1.388 1_655 S
C6653 C6647 1.491 1_455 S
C6653 C6652 1.388 1_455 S
C6653 C6654 1.398 . S
C6654 H6642 0.950 . S
C6654 C6653 1.398 . S
C6654 C6655 1.391 . S
C6655 H6643 0.950 . S
C6655 C6651 1.393 . S
C6655 C6654 1.391 . S
H6656 C6664 0.950 . S
H6657 C6669 0.950 . S
H6658 C6666 0.950 . S
H6659 C6668 0.950 . S
H6660 C6670 0.950 . S
H6661 C6672 0.950 . S
H6662 C6674 0.950 . S
H6663 C6675 0.950 . S
C6664 H6656 0.950 . S
C6664 C6665 1.386 . S
C6664 C6666 1.391 . S
C6665 C6664 1.386 . S
C6665 C6669 1.393 . S
C6666 H6658 0.950 . S
C6666 C6664 1.391 . S
C6666 C6667 1.400 . S
C6667 C6666 1.400 . S
C6667 C6668 1.398 . S
C6667 C6673 1.491 . S
C6668 H6659 0.950 . S
C6668 C6667 1.398 . S
C6668 C6669 1.391 . S
C6669 H6657 0.950 . S
C6669 C6665 1.393 . S
C6669 C6668 1.391 . S
C6670 H6660 0.950 . S
C6670 C6671 1.386 . S
C6670 C6672 1.391 . S
C6671 C6670 1.386 . S
C6671 C6675 1.393 . S
C6672 H6661 0.950 . S
C6672 C6670 1.391 . S
C6672 C6673 1.400 . S
C6673 C6667 1.491 . S
C6673 C6672 1.400 . S
C6673 C6674 1.398 . S
C6674 H6662 0.950 . S
C6674 C6673 1.398 . S
C6674 C6675 1.391 . S
C6675 H6663 0.950 . S
C6675 C6671 1.393 . S
C6675 C6674 1.391 . S
H6676 C6684 0.950 . S
H6677 C6689 0.950 . S
H6678 C6686 0.950 1_455 S
H6679 C6688 0.950 . S
H6680 C6690 0.950 . S
H6681 C6692 0.954 . S
H6682 C6694 0.950 . S
H6683 C6695 0.950 . S
C6684 H6676 0.950 . S
C6684 C6685 1.386 . S
C6684 C6686 1.391 . S
C6685 C6684 1.386 . S
C6685 C6689 1.393 . S
C6686 H6678 0.950 1_655 S
C6686 C6684 1.391 . S
C6686 C6687 1.400 . S
C6687 C6686 1.400 . S
C6687 C6688 1.398 . S
C6687 C6693 1.491 1_655 S
C6688 H6679 0.950 . S
C6688 C6687 1.398 . S
C6688 C6689 1.391 . S
C6689 H6677 0.950 . S
C6689 C6685 1.393 . S
C6689 C6688 1.391 . S
C6690 H6680 0.950 . S
C6690 C6691 1.386 . S
C6690 C6692 1.388 1_455 S
C6691 C6690 1.386 . S
C6691 C6695 1.393 . S
C6692 H6681 0.954 . S
C6692 C6690 1.388 1_655 S
C6692 C6693 1.399 1_655 S
C6693 C6687 1.491 1_455 S
C6693 C6692 1.399 1_455 S
C6693 C6694 1.398 . S
C6694 H6682 0.950 . S
C6694 C6693 1.398 . S
C6694 C6695 1.391 . S
C6695 H6683 0.950 . S
C6695 C6691 1.393 . S
C6695 C6694 1.391 . S
H6696 C6704 0.950 . S
H6697 C6709 0.950 . S
H6698 C6706 0.950 . S
H6699 C6708 0.950 . S
H6700 C6710 0.950 . S
H6701 C6712 0.950 . S
H6702 C6714 0.950 . S
H6703 C6715 0.950 . S
C6704 H6696 0.950 . S
C6704 C6705 1.386 . S
C6704 C6706 1.391 . S
C6705 C6704 1.386 . S
C6705 C6709 1.393 . S
C6706 H6698 0.950 . S
C6706 C6704 1.391 . S
C6706 C6707 1.400 . S
C6707 C6706 1.400 . S
C6707 C6708 1.398 . S
C6707 C6713 1.491 . S
C6708 H6699 0.950 . S
C6708 C6707 1.398 . S
C6708 C6709 1.391 . S
C6709 H6697 0.950 . S
C6709 C6705 1.393 . S
C6709 C6708 1.391 . S
C6710 H6700 0.950 . S
C6710 C6711 1.386 . S
C6710 C6712 1.391 . S
C6711 C6710 1.386 . S
C6711 C6715 1.393 . S
C6712 H6701 0.950 . S
C6712 C6710 1.391 . S
C6712 C6713 1.400 . S
C6713 C6707 1.491 . S
C6713 C6712 1.400 . S
C6713 C6714 1.398 . S
C6714 H6702 0.950 . S
C6714 C6713 1.398 . S
C6714 C6715 1.391 . S
C6715 H6703 0.950 . S
C6715 C6711 1.393 . S
C6715 C6714 1.391 . S
H6716 C6724 0.950 . S
H6717 C6729 0.950 . S
H6718 C6726 0.950 . S
H6719 C6728 0.950 . S
H6720 C6730 0.950 . S
H6721 C6732 0.950 . S
H6722 C6734 0.950 . S
H6723 C6735 0.950 . S
C6724 H6716 0.950 . S
C6724 C6725 1.386 . S
C6724 C6726 1.391 . S
C6725 C6724 1.386 . S
C6725 C6729 1.393 . S
C6726 H6718 0.950 . S
C6726 C6724 1.391 . S
C6726 C6727 1.400 . S
C6727 C6726 1.400 . S
C6727 C6728 1.398 . S
C6727 C6733 1.491 . S
C6728 H6719 0.950 . S
C6728 C6727 1.398 . S
C6728 C6729 1.391 . S
C6729 H6717 0.950 . S
C6729 C6725 1.393 . S
C6729 C6728 1.391 . S
C6730 H6720 0.950 . S
C6730 C6731 1.386 . S
C6730 C6732 1.391 . S
C6731 C6730 1.386 . S
C6731 C6735 1.393 . S
C6732 H6721 0.950 . S
C6732 C6730 1.391 . S
C6732 C6733 1.400 . S
C6733 C6727 1.491 . S
C6733 C6732 1.400 . S
C6733 C6734 1.398 . S
C6734 H6722 0.950 . S
C6734 C6733 1.398 . S
C6734 C6735 1.391 . S
C6735 H6723 0.950 . S
C6735 C6731 1.393 . S
C6735 C6734 1.391 . S
H6736 C6744 0.950 . S
H6737 C6749 0.950 . S
H6738 C6746 0.950 . S
H6739 C6748 0.950 1_556 S
H6740 C6750 0.950 . S
H6741 C6752 0.950 . S
H6742 C6754 0.950 1_554 S
H6743 C6755 0.950 . S
C6744 H6736 0.950 . S
C6744 C6745 1.386 . S
C6744 C6746 1.391 . S
C6745 C6744 1.386 . S
C6745 C6749 1.393 . S
C6746 H6738 0.950 . S
C6746 C6744 1.391 . S
C6746 C6747 1.400 . S
C6747 C6746 1.400 . S
C6747 C6748 1.398 . S
C6747 C6753 1.491 1_554 S
C6748 H6739 0.950 1_554 S
C6748 C6747 1.398 . S
C6748 C6749 1.391 . S
C6749 H6737 0.950 . S
C6749 C6745 1.393 . S
C6749 C6748 1.391 . S
C6750 H6740 0.950 . S
C6750 C6751 1.386 . S
C6750 C6752 1.391 . S
C6751 C6750 1.386 . S
C6751 C6755 1.393 . S
C6752 H6741 0.950 . S
C6752 C6750 1.391 . S
C6752 C6753 1.400 . S
C6753 C6747 1.491 1_556 S
C6753 C6752 1.400 . S
C6753 C6754 1.398 . S
C6754 H6742 0.950 1_556 S
C6754 C6753 1.398 . S
C6754 C6755 1.391 . S
C6755 H6743 0.950 . S
C6755 C6751 1.393 . S
C6755 C6754 1.391 . S
H6756 C6764 0.950 . S
H6757 C6769 0.950 . S
H6758 C6766 0.950 . S
H6759 C6768 0.950 1_455 S
H6760 C6770 0.950 . S
H6761 C6772 0.950 . S
H6762 C6774 0.964 . S
H6763 C6775 0.950 . S
C6764 H6756 0.950 . S
C6764 C6765 1.386 . S
C6764 C6766 1.391 . S
C6765 C6764 1.386 . S
C6765 C6769 1.393 . S
C6766 H6758 0.950 . S
C6766 C6764 1.391 . S
C6766 C6767 1.400 . S
C6767 C6766 1.400 . S
C6767 C6768 1.398 . S
C6767 C6773 1.491 1_655 S
C6768 H6759 0.950 1_655 S
C6768 C6767 1.398 . S
C6768 C6769 1.391 . S
C6769 H6757 0.950 . S
C6769 C6765 1.393 . S
C6769 C6768 1.391 . S
C6770 H6760 0.950 . S
C6770 C6771 1.386 . S
C6770 C6772 1.391 . S
C6771 C6770 1.386 . S
C6771 C6775 1.393 . S
C6772 H6761 0.950 . S
C6772 C6770 1.391 . S
C6772 C6773 1.400 . S
C6773 C6767 1.491 1_455 S
C6773 C6772 1.400 . S
C6773 C6774 1.395 1_455 S
C6774 H6762 0.964 . S
C6774 C6773 1.395 1_655 S
C6774 C6775 1.380 1_655 S
C6775 H6763 0.950 . S
C6775 C6771 1.393 . S
C6775 C6774 1.380 1_455 S
H6776 C6784 0.950 . S
H6777 C6789 0.950 . S
H6778 C6786 0.950 . S
H6779 C6788 0.950 . S
H6780 C6790 0.950 . S
H6781 C6792 0.950 . S
H6782 C6794 0.950 . S
H6783 C6795 0.950 . S
C6784 H6776 0.950 . S
C6784 C6785 1.386 . S
C6784 C6786 1.391 . S
C6785 C6784 1.386 . S
C6785 C6789 1.393 . S
C6786 H6778 0.950 . S
C6786 C6784 1.391 . S
C6786 C6787 1.400 . S
C6787 C6786 1.400 . S
C6787 C6788 1.398 . S
C6787 C6793 1.491 . S
C6788 H6779 0.950 . S
C6788 C6787 1.398 . S
C6788 C6789 1.391 . S
C6789 H6777 0.950 . S
C6789 C6785 1.393 . S
C6789 C6788 1.391 . S
C6790 H6780 0.950 . S
C6790 C6791 1.386 . S
C6790 C6792 1.391 . S
C6791 C6790 1.386 . S
C6791 C6795 1.393 . S
C6792 H6781 0.950 . S
C6792 C6790 1.391 . S
C6792 C6793 1.400 . S
C6793 C6787 1.491 . S
C6793 C6792 1.400 . S
C6793 C6794 1.398 . S
C6794 H6782 0.950 . S
C6794 C6793 1.398 . S
C6794 C6795 1.391 . S
C6795 H6783 0.950 . S
C6795 C6791 1.393 . S
C6795 C6794 1.391 . S
H6796 C6804 0.950 . S
H6797 C6809 0.950 . S
H6798 C6806 0.950 . S
H6799 C6808 0.950 . S
H6800 C6810 0.950 . S
H6801 C6812 0.950 . S
H6802 C6814 0.950 . S
H6803 C6815 0.950 . S
C6804 H6796 0.950 . S
C6804 C6805 1.386 . S
C6804 C6806 1.391 . S
C6805 C6804 1.386 . S
C6805 C6809 1.393 . S
C6806 H6798 0.950 . S
C6806 C6804 1.391 . S
C6806 C6807 1.400 . S
C6807 C6806 1.400 . S
C6807 C6808 1.398 . S
C6807 C6813 1.491 . S
C6808 H6799 0.950 . S
C6808 C6807 1.398 . S
C6808 C6809 1.391 . S
C6809 H6797 0.950 . S
C6809 C6805 1.393 . S
C6809 C6808 1.391 . S
C6810 H6800 0.950 . S
C6810 C6811 1.386 . S
C6810 C6812 1.391 . S
C6811 C6810 1.386 . S
C6811 C6815 1.393 . S
C6812 H6801 0.950 . S
C6812 C6810 1.391 . S
C6812 C6813 1.400 . S
C6813 C6807 1.491 . S
C6813 C6812 1.400 . S
C6813 C6814 1.398 . S
C6814 H6802 0.950 . S
C6814 C6813 1.398 . S
C6814 C6815 1.391 . S
C6815 H6803 0.950 . S
C6815 C6811 1.393 . S
C6815 C6814 1.391 . S
H6816 C6824 0.950 . S
H6817 C6829 0.950 . S
H6818 C6826 0.950 1_556 S
H6819 C6828 0.950 . S
H6820 C6830 0.950 . S
H6821 C6832 0.950 1_554 S
H6822 C6834 0.950 . S
H6823 C6835 0.950 . S
C6824 H6816 0.950 . S
C6824 C6825 1.386 . S
C6824 C6826 1.391 . S
C6825 C6824 1.386 . S
C6825 C6829 1.393 . S
C6826 H6818 0.950 1_554 S
C6826 C6824 1.391 . S
C6826 C6827 1.400 . S
C6827 C6826 1.400 . S
C6827 C6828 1.398 . S
C6827 C6833 1.491 1_554 S
C6828 H6819 0.950 . S
C6828 C6827 1.398 . S
C6828 C6829 1.391 . S
C6829 H6817 0.950 . S
C6829 C6825 1.393 . S
C6829 C6828 1.391 . S
C6830 H6820 0.950 . S
C6830 C6831 1.386 . S
C6830 C6832 1.391 . S
C6831 C6830 1.386 . S
C6831 C6835 1.393 . S
C6832 H6821 0.950 1_556 S
C6832 C6830 1.391 . S
C6832 C6833 1.400 . S
C6833 C6827 1.491 1_556 S
C6833 C6832 1.400 . S
C6833 C6834 1.398 . S
C6834 H6822 0.950 . S
C6834 C6833 1.398 . S
C6834 C6835 1.391 . S
C6835 H6823 0.950 . S
C6835 C6831 1.393 . S
C6835 C6834 1.391 . S
H6836 C6844 0.950 . S
H6837 C6849 0.950 . S
H6838 C6846 0.950 . S
H6839 C6848 0.950 . S
H6840 C6850 0.950 . S
H6841 C6852 0.950 . S
H6842 C6854 0.950 . S
H6843 C6855 0.950 . S
C6844 H6836 0.950 . S
C6844 C6845 1.386 . S
C6844 C6846 1.391 . S
C6845 C6844 1.386 . S
C6845 C6849 1.393 . S
C6846 H6838 0.950 . S
C6846 C6844 1.391 . S
C6846 C6847 1.400 . S
C6847 C6846 1.400 . S
C6847 C6848 1.398 . S
C6847 C6853 1.491 1_565 S
C6848 H6839 0.950 . S
C6848 C6847 1.398 . S
C6848 C6849 1.391 . S
C6849 H6837 0.950 . S
C6849 C6845 1.393 . S
C6849 C6848 1.391 . S
C6850 H6840 0.950 . S
C6850 C6851 1.386 . S
C6850 C6852 1.391 . S
C6851 C6850 1.386 . S
C6851 C6855 1.393 . S
C6852 H6841 0.950 . S
C6852 C6850 1.391 . S
C6852 C6853 1.400 . S
C6853 C6847 1.491 1_545 S
C6853 C6852 1.400 . S
C6853 C6854 1.398 . S
C6854 H6842 0.950 . S
C6854 C6853 1.398 . S
C6854 C6855 1.391 . S
C6855 H6843 0.950 . S
C6855 C6851 1.393 . S
C6855 C6854 1.391 . S
H6856 C6864 0.950 . S
H6857 C6869 0.950 . S
H6858 C6866 0.950 . S
H6859 C6868 0.990 . S
H6860 C6870 0.950 . S
H6861 C6872 0.950 . S
H6862 C6874 0.950 1_565 S
H6863 C6875 0.950 . S
C6864 H6856 0.950 . S
C6864 C6865 1.386 . S
C6864 C6866 1.391 . S
C6865 C6864 1.386 . S
C6865 C6869 1.393 . S
C6866 H6858 0.950 . S
C6866 C6864 1.391 . S
C6866 C6867 1.400 . S
C6867 C6866 1.400 . S
C6867 C6868 1.388 1_565 S
C6867 C6873 1.491 1_565 S
C6868 H6859 0.990 . S
C6868 C6867 1.388 1_545 S
C6868 C6869 1.363 1_545 S
C6869 H6857 0.950 . S
C6869 C6865 1.393 . S
C6869 C6868 1.363 1_565 S
C6870 H6860 0.950 . S
C6870 C6871 1.386 . S
C6870 C6872 1.391 . S
C6871 C6870 1.386 . S
C6871 C6875 1.393 . S
C6872 H6861 0.950 . S
C6872 C6870 1.391 . S
C6872 C6873 1.400 . S
C6873 C6867 1.491 1_545 S
C6873 C6872 1.400 . S
C6873 C6874 1.398 . S
C6874 H6862 0.950 1_545 S
C6874 C6873 1.398 . S
C6874 C6875 1.391 . S
C6875 H6863 0.950 . S
C6875 C6871 1.393 . S
C6875 C6874 1.391 . S
H6876 C6884 0.950 . S
H6877 C6889 0.950 . S
H6878 C6886 0.950 . S
H6879 C6888 0.950 . S
H6880 C6890 0.950 . S
H6881 C6892 0.950 . S
H6882 C6894 0.950 . S
H6883 C6895 0.950 . S
C6884 H6876 0.950 . S
C6884 C6885 1.386 . S
C6884 C6886 1.391 . S
C6885 C6884 1.386 . S
C6885 C6889 1.393 . S
C6886 H6878 0.950 . S
C6886 C6884 1.391 . S
C6886 C6887 1.400 . S
C6887 C6886 1.400 . S
C6887 C6888 1.398 . S
C6887 C6893 1.491 1_565 S
C6888 H6879 0.950 . S
C6888 C6887 1.398 . S
C6888 C6889 1.391 . S
C6889 H6877 0.950 . S
C6889 C6885 1.393 . S
C6889 C6888 1.391 . S
C6890 H6880 0.950 . S
C6890 C6891 1.386 . S
C6890 C6892 1.391 . S
C6891 C6890 1.386 . S
C6891 C6895 1.393 . S
C6892 H6881 0.950 . S
C6892 C6890 1.391 . S
C6892 C6893 1.400 . S
C6893 C6887 1.491 1_545 S
C6893 C6892 1.400 . S
C6893 C6894 1.398 . S
C6894 H6882 0.950 . S
C6894 C6893 1.398 . S
C6894 C6895 1.391 . S
C6895 H6883 0.950 . S
C6895 C6891 1.393 . S
C6895 C6894 1.391 . S
H6896 C6904 0.950 . S
H6897 C6909 0.950 . S
H6898 C6906 0.950 1_565 S
H6899 C6908 0.950 . S
H6900 C6910 0.950 . S
H6901 C6912 0.950 1_545 S
H6902 C6914 0.950 . S
H6903 C6915 0.950 . S
C6904 H6896 0.950 . S
C6904 C6905 1.386 . S
C6904 C6906 1.391 . S
C6905 C6904 1.386 . S
C6905 C6909 1.393 . S
C6906 H6898 0.950 1_545 S
C6906 C6904 1.391 . S
C6906 C6907 1.400 . S
C6907 C6906 1.400 . S
C6907 C6908 1.398 . S
C6907 C6913 1.491 1_545 S
C6908 H6899 0.950 . S
C6908 C6907 1.398 . S
C6908 C6909 1.391 . S
C6909 H6897 0.950 . S
C6909 C6905 1.393 . S
C6909 C6908 1.391 . S
C6910 H6900 0.950 . S
C6910 C6911 1.386 . S
C6910 C6912 1.391 . S
C6911 C6910 1.386 . S
C6911 C6915 1.393 . S
C6912 H6901 0.950 1_565 S
C6912 C6910 1.391 . S
C6912 C6913 1.400 . S
C6913 C6907 1.491 1_565 S
C6913 C6912 1.400 . S
C6913 C6914 1.398 . S
C6914 H6902 0.950 . S
C6914 C6913 1.398 . S
C6914 C6915 1.391 . S
C6915 H6903 0.950 . S
C6915 C6911 1.393 . S
C6915 C6914 1.391 . S
H6916 C6924 0.950 . S
H6917 C6929 0.950 . S
H6918 C6926 0.950 1_554 S
H6919 C6928 0.950 . S
H6920 C6930 0.950 . S
H6921 C6932 0.993 . S
H6922 C6934 0.950 . S
H6923 C6935 0.950 . S
C6924 H6916 0.950 . S
C6924 C6925 1.386 . S
C6924 C6926 1.391 . S
C6925 C6924 1.386 . S
C6925 C6929 1.393 . S
C6926 H6918 0.950 1_556 S
C6926 C6924 1.391 . S
C6926 C6927 1.400 . S
C6927 C6926 1.400 . S
C6927 C6928 1.398 . S
C6927 C6933 1.491 1_556 S
C6928 H6919 0.950 . S
C6928 C6927 1.398 . S
C6928 C6929 1.391 . S
C6929 H6917 0.950 . S
C6929 C6925 1.393 . S
C6929 C6928 1.391 . S
C6930 H6920 0.950 . S
C6930 C6931 1.386 . S
C6930 C6932 1.391 . S
C6931 C6930 1.386 . S
C6931 C6935 1.393 . S
C6932 H6921 0.993 . S
C6932 C6930 1.391 . S
C6932 C6933 1.400 . S
C6933 C6927 1.491 1_554 S
C6933 C6932 1.400 . S
C6933 C6934 1.398 . S
C6934 H6922 0.950 . S
C6934 C6933 1.398 . S
C6934 C6935 1.391 . S
C6935 H6923 0.950 . S
C6935 C6931 1.393 . S
C6935 C6934 1.391 . S
H6936 C6944 0.950 . S
H6937 C6949 0.950 . S
H6938 C6946 0.950 . S
H6939 C6948 0.927 1_455 S
H6940 C6950 0.950 . S
H6941 C6952 0.950 . S
H6942 C6954 0.950 1_655 S
H6943 C6955 0.950 . S
C6944 H6936 0.950 . S
C6944 C6945 1.386 . S
C6944 C6946 1.391 . S
C6945 C6944 1.386 . S
C6945 C6949 1.393 . S
C6946 H6938 0.950 . S
C6946 C6944 1.391 . S
C6946 C6947 1.400 . S
C6947 C6946 1.400 . S
C6947 C6948 1.404 . S
C6947 C6953 1.491 1_655 S
C6948 H6939 0.927 1_655 S
C6948 C6947 1.404 . S
C6948 C6949 1.407 . S
C6949 H6937 0.950 . S
C6949 C6945 1.393 . S
C6949 C6948 1.407 . S
C6950 H6940 0.950 . S
C6950 C6951 1.386 . S
C6950 C6952 1.391 . S
C6951 C6950 1.386 . S
C6951 C6955 1.393 . S
C6952 H6941 0.950 . S
C6952 C6950 1.391 . S
C6952 C6953 1.400 . S
C6953 C6947 1.491 1_455 S
C6953 C6952 1.400 . S
C6953 C6954 1.398 . S
C6954 H6942 0.950 1_455 S
C6954 C6953 1.398 . S
C6954 C6955 1.391 . S
C6955 H6943 0.950 . S
C6955 C6951 1.393 . S
C6955 C6954 1.391 . S
H6956 C6964 0.950 . S
H6957 C6969 0.950 . S
H6958 C6966 0.950 . S
H6959 C6968 0.950 . S
H6960 C6970 0.950 . S
H6961 C6972 0.950 . S
H6962 C6974 0.950 . S
H6963 C6975 0.950 . S
C6964 H6956 0.950 . S
C6964 C6965 1.386 . S
C6964 C6966 1.391 . S
C6965 C6964 1.386 . S
C6965 C6969 1.393 . S
C6966 H6958 0.950 . S
C6966 C6964 1.391 . S
C6966 C6967 1.400 . S
C6967 C6966 1.400 . S
C6967 C6968 1.398 . S
C6967 C6973 1.491 . S
C6968 H6959 0.950 . S
C6968 C6967 1.398 . S
C6968 C6969 1.391 . S
C6969 H6957 0.950 . S
C6969 C6965 1.393 . S
C6969 C6968 1.391 . S
C6970 H6960 0.950 . S
C6970 C6971 1.386 . S
C6970 C6972 1.391 . S
C6971 C6970 1.386 . S
C6971 C6975 1.393 . S
C6972 H6961 0.950 . S
C6972 C6970 1.391 . S
C6972 C6973 1.400 . S
C6973 C6967 1.491 . S
C6973 C6972 1.400 . S
C6973 C6974 1.398 . S
C6974 H6962 0.950 . S
C6974 C6973 1.398 . S
C6974 C6975 1.391 . S
C6975 H6963 0.950 . S
C6975 C6971 1.393 . S
C6975 C6974 1.391 . S
H6976 C6984 0.950 . S
H6977 C6989 0.950 . S
H6978 C6986 0.950 . S
H6979 C6988 1.003 . S
H6980 C6990 0.950 . S
H6981 C6992 0.950 . S
H6982 C6994 0.950 1_655 S
H6983 C6995 0.950 . S
C6984 H6976 0.950 . S
C6984 C6985 1.386 . S
C6984 C6986 1.391 . S
C6985 C6984 1.386 . S
C6985 C6989 1.393 . S
C6986 H6978 0.950 . S
C6986 C6984 1.391 . S
C6986 C6987 1.400 . S
C6987 C6986 1.400 . S
C6987 C6988 1.384 1_655 S
C6987 C6993 1.491 1_655 S
C6988 H6979 1.003 . S
C6988 C6987 1.384 1_455 S
C6988 C6989 1.355 1_455 S
C6989 H6977 0.950 . S
C6989 C6985 1.393 . S
C6989 C6988 1.355 1_655 S
C6990 H6980 0.950 . S
C6990 C6991 1.386 . S
C6990 C6992 1.391 . S
C6991 C6990 1.386 . S
C6991 C6995 1.393 . S
C6992 H6981 0.950 . S
C6992 C6990 1.391 . S
C6992 C6993 1.400 . S
C6993 C6987 1.491 1_455 S
C6993 C6992 1.400 . S
C6993 C6994 1.398 . S
C6994 H6982 0.950 1_455 S
C6994 C6993 1.398 . S
C6994 C6995 1.391 . S
C6995 H6983 0.950 . S
C6995 C6991 1.393 . S
C6995 C6994 1.391 . S
H6996 C7004 0.950 . S
H6997 C7009 0.950 . S
H6998 C7006 0.950 . S
H6999 C7008 0.950 . S
H7000 C7010 0.950 . S
H7001 C7012 0.950 . S
H7002 C7014 0.950 . S
H7003 C7015 0.950 . S
C7004 H6996 0.950 . S
C7004 C7005 1.386 . S
C7004 C7006 1.391 . S
C7005 C7004 1.386 . S
C7005 C7009 1.393 . S
C7006 H6998 0.950 . S
C7006 C7004 1.391 . S
C7006 C7007 1.400 . S
C7007 C7006 1.400 . S
C7007 C7008 1.398 . S
C7007 C7013 1.491 . S
C7008 H6999 0.950 . S
C7008 C7007 1.398 . S
C7008 C7009 1.391 . S
C7009 H6997 0.950 . S
C7009 C7005 1.393 . S
C7009 C7008 1.391 . S
C7010 H7000 0.950 . S
C7010 C7011 1.386 . S
C7010 C7012 1.391 . S
C7011 C7010 1.386 . S
C7011 C7015 1.393 . S
C7012 H7001 0.950 . S
C7012 C7010 1.391 . S
C7012 C7013 1.400 . S
C7013 C7007 1.491 . S
C7013 C7012 1.400 . S
C7013 C7014 1.398 . S
C7014 H7002 0.950 . S
C7014 C7013 1.398 . S
C7014 C7015 1.391 . S
C7015 H7003 0.950 . S
C7015 C7011 1.393 . S
C7015 C7014 1.391 . S
H7016 C7024 0.950 . S
H7017 C7029 0.950 . S
H7018 C7026 0.950 . S
H7019 C7028 0.950 . S
H7020 C7030 0.950 . S
H7021 C7032 0.950 . S
H7022 C7034 0.950 . S
H7023 C7035 0.950 . S
C7024 H7016 0.950 . S
C7024 C7025 1.386 . S
C7024 C7026 1.391 . S
C7025 C7024 1.386 . S
C7025 C7029 1.393 . S
C7026 H7018 0.950 . S
C7026 C7024 1.391 . S
C7026 C7027 1.400 . S
C7027 C7026 1.400 . S
C7027 C7028 1.398 . S
C7027 C7033 1.491 . S
C7028 H7019 0.950 . S
C7028 C7027 1.398 . S
C7028 C7029 1.391 . S
C7029 H7017 0.950 . S
C7029 C7025 1.393 . S
C7029 C7028 1.391 . S
C7030 H7020 0.950 . S
C7030 C7031 1.386 . S
C7030 C7032 1.391 . S
C7031 C7030 1.386 . S
C7031 C7035 1.393 . S
C7032 H7021 0.950 . S
C7032 C7030 1.391 . S
C7032 C7033 1.400 . S
C7033 C7027 1.491 . S
C7033 C7032 1.400 . S
C7033 C7034 1.398 . S
C7034 H7022 0.950 . S
C7034 C7033 1.398 . S
C7034 C7035 1.391 . S
C7035 H7023 0.950 . S
C7035 C7031 1.393 . S
C7035 C7034 1.391 . S
H7036 C7044 0.950 . S
H7037 C7049 0.950 . S
H7038 C7046 0.950 . S
H7039 C7048 0.950 . S
H7040 C7050 0.950 . S
H7041 C7052 0.950 . S
H7042 C7054 0.950 . S
H7043 C7055 0.950 . S
C7044 H7036 0.950 . S
C7044 C7045 1.386 . S
C7044 C7046 1.391 . S
C7045 C7044 1.386 . S
C7045 C7049 1.393 . S
C7046 H7038 0.950 . S
C7046 C7044 1.391 . S
C7046 C7047 1.400 . S
C7047 C7046 1.400 . S
C7047 C7048 1.398 . S
C7047 C7053 1.491 1_556 S
C7048 H7039 0.950 . S
C7048 C7047 1.398 . S
C7048 C7049 1.391 . S
C7049 H7037 0.950 . S
C7049 C7045 1.393 . S
C7049 C7048 1.391 . S
C7050 H7040 0.950 . S
C7050 C7051 1.386 . S
C7050 C7052 1.391 . S
C7051 C7050 1.386 . S
C7051 C7055 1.393 . S
C7052 H7041 0.950 . S
C7052 C7050 1.391 . S
C7052 C7053 1.400 . S
C7053 C7047 1.491 1_554 S
C7053 C7052 1.400 . S
C7053 C7054 1.398 . S
C7054 H7042 0.950 . S
C7054 C7053 1.398 . S
C7054 C7055 1.391 . S
C7055 H7043 0.950 . S
C7055 C7051 1.393 . S
C7055 C7054 1.391 . S
H7056 C7064 0.950 . S
H7057 C7069 0.950 . S
H7058 C7066 0.950 . S
H7059 C7068 0.950 . S
H7060 C7070 0.950 . S
H7061 C7072 0.950 . S
H7062 C7074 0.950 . S
H7063 C7075 0.950 . S
C7064 H7056 0.950 . S
C7064 C7065 1.386 . S
C7064 C7066 1.391 . S
C7065 C7064 1.386 . S
C7065 C7069 1.393 . S
C7066 H7058 0.950 . S
C7066 C7064 1.391 . S
C7066 C7067 1.400 . S
C7067 C7066 1.400 . S
C7067 C7068 1.398 . S
C7067 C7073 1.491 . S
C7068 H7059 0.950 . S
C7068 C7067 1.398 . S
C7068 C7069 1.391 . S
C7069 H7057 0.950 . S
C7069 C7065 1.393 . S
C7069 C7068 1.391 . S
C7070 H7060 0.950 . S
C7070 C7071 1.386 . S
C7070 C7072 1.391 . S
C7071 C7070 1.386 . S
C7071 C7075 1.393 . S
C7072 H7061 0.950 . S
C7072 C7070 1.391 . S
C7072 C7073 1.400 . S
C7073 C7067 1.491 . S
C7073 C7072 1.400 . S
C7073 C7074 1.398 . S
C7074 H7062 0.950 . S
C7074 C7073 1.398 . S
C7074 C7075 1.391 . S
C7075 H7063 0.950 . S
C7075 C7071 1.393 . S
C7075 C7074 1.391 . S
H7076 C7084 0.950 . S
H7077 C7089 0.950 . S
H7078 C7086 0.950 . S
H7079 C7088 0.950 . S
H7080 C7090 0.950 . S
H7081 C7092 0.950 . S
H7082 C7094 0.950 . S
H7083 C7095 0.950 . S
C7084 H7076 0.950 . S
C7084 C7085 1.386 . S
C7084 C7086 1.391 . S
C7085 C7084 1.386 . S
C7085 C7089 1.393 . S
C7086 H7078 0.950 . S
C7086 C7084 1.391 . S
C7086 C7087 1.400 . S
C7087 C7086 1.400 . S
C7087 C7088 1.398 . S
C7087 C7093 1.491 . S
C7088 H7079 0.950 . S
C7088 C7087 1.398 . S
C7088 C7089 1.391 . S
C7089 H7077 0.950 . S
C7089 C7085 1.393 . S
C7089 C7088 1.391 . S
C7090 H7080 0.950 . S
C7090 C7091 1.386 . S
C7090 C7092 1.391 . S
C7091 C7090 1.386 . S
C7091 C7095 1.393 . S
C7092 H7081 0.950 . S
C7092 C7090 1.391 . S
C7092 C7093 1.400 . S
C7093 C7087 1.491 . S
C7093 C7092 1.400 . S
C7093 C7094 1.398 . S
C7094 H7082 0.950 . S
C7094 C7093 1.398 . S
C7094 C7095 1.391 . S
C7095 H7083 0.950 . S
C7095 C7091 1.393 . S
C7095 C7094 1.391 . S
H7096 C7104 0.950 . S
H7097 C7109 0.950 . S
H7098 C7106 0.950 . S
H7099 C7108 0.950 . S
H7100 C7110 0.950 . S
H7101 C7112 0.950 . S
H7102 C7114 0.950 . S
H7103 C7115 0.950 . S
C7104 H7096 0.950 . S
C7104 C7105 1.386 . S
C7104 C7106 1.391 . S
C7105 C7104 1.386 . S
C7105 C7109 1.393 . S
C7106 H7098 0.950 . S
C7106 C7104 1.391 . S
C7106 C7107 1.400 . S
C7107 C7106 1.400 . S
C7107 C7108 1.398 . S
C7107 C7113 1.491 . S
C7108 H7099 0.950 . S
C7108 C7107 1.398 . S
C7108 C7109 1.391 . S
C7109 H7097 0.950 . S
C7109 C7105 1.393 . S
C7109 C7108 1.391 . S
C7110 H7100 0.950 . S
C7110 C7111 1.386 . S
C7110 C7112 1.391 . S
C7111 C7110 1.386 . S
C7111 C7115 1.393 . S
C7112 H7101 0.950 . S
C7112 C7110 1.391 . S
C7112 C7113 1.400 . S
C7113 C7107 1.491 . S
C7113 C7112 1.400 . S
C7113 C7114 1.398 . S
C7114 H7102 0.950 . S
C7114 C7113 1.398 . S
C7114 C7115 1.391 . S
C7115 H7103 0.950 . S
C7115 C7111 1.393 . S
C7115 C7114 1.391 . S
H7116 C7124 0.950 . S
H7117 C7129 0.950 . S
H7118 C7126 0.950 . S
H7119 C7128 0.950 . S
H7120 C7130 0.950 . S
H7121 C7132 0.950 . S
H7122 C7134 0.950 . S
H7123 C7135 0.950 . S
C7124 H7116 0.950 . S
C7124 C7125 1.386 . S
C7124 C7126 1.391 . S
C7125 C7124 1.386 . S
C7125 C7129 1.393 . S
C7126 H7118 0.950 . S
C7126 C7124 1.391 . S
C7126 C7127 1.400 . S
C7127 C7126 1.400 . S
C7127 C7128 1.398 . S
C7127 C7133 1.491 . S
C7128 H7119 0.950 . S
C7128 C7127 1.398 . S
C7128 C7129 1.391 . S
C7129 H7117 0.950 . S
C7129 C7125 1.393 . S
C7129 C7128 1.391 . S
C7130 H7120 0.950 . S
C7130 C7131 1.386 . S
C7130 C7132 1.391 . S
C7131 C7130 1.386 . S
C7131 C7135 1.393 . S
C7132 H7121 0.950 . S
C7132 C7130 1.391 . S
C7132 C7133 1.400 . S
C7133 C7127 1.491 . S
C7133 C7132 1.400 . S
C7133 C7134 1.398 . S
C7134 H7122 0.950 . S
C7134 C7133 1.398 . S
C7134 C7135 1.391 . S
C7135 H7123 0.950 . S
C7135 C7131 1.393 . S
C7135 C7134 1.391 . S
H7136 C7144 0.950 . S
H7137 C7149 0.950 . S
H7138 C7146 0.950 . S
H7139 C7148 0.950 . S
H7140 C7150 0.950 . S
H7141 C7152 0.950 . S
H7142 C7154 0.950 . S
H7143 C7155 0.950 . S
C7144 H7136 0.950 . S
C7144 C7145 1.386 . S
C7144 C7146 1.391 . S
C7145 C7144 1.386 . S
C7145 C7149 1.393 . S
C7146 H7138 0.950 . S
C7146 C7144 1.391 . S
C7146 C7147 1.400 . S
C7147 C7146 1.400 . S
C7147 C7148 1.398 . S
C7147 C7153 1.491 . S
C7148 H7139 0.950 . S
C7148 C7147 1.398 . S
C7148 C7149 1.391 . S
C7149 H7137 0.950 . S
C7149 C7145 1.393 . S
C7149 C7148 1.391 . S
C7150 H7140 0.950 . S
C7150 C7151 1.386 . S
C7150 C7152 1.391 . S
C7151 C7150 1.386 . S
C7151 C7155 1.393 . S
C7152 H7141 0.950 . S
C7152 C7150 1.391 . S
C7152 C7153 1.400 . S
C7153 C7147 1.491 . S
C7153 C7152 1.400 . S
C7153 C7154 1.398 . S
C7154 H7142 0.950 . S
C7154 C7153 1.398 . S
C7154 C7155 1.391 . S
C7155 H7143 0.950 . S
C7155 C7151 1.393 . S
C7155 C7154 1.391 . S
H7156 C7164 0.950 . S
H7157 C7169 0.950 . S
H7158 C7166 0.950 . S
H7159 C7168 0.950 . S
H7160 C7170 0.950 . S
H7161 C7172 0.950 . S
H7162 C7174 0.950 . S
H7163 C7175 0.950 . S
C7164 H7156 0.950 . S
C7164 C7165 1.386 . S
C7164 C7166 1.391 . S
C7165 C7164 1.386 . S
C7165 C7169 1.393 . S
C7166 H7158 0.950 . S
C7166 C7164 1.391 . S
C7166 C7167 1.400 . S
C7167 C7166 1.400 . S
C7167 C7168 1.398 . S
C7167 C7173 1.491 . S
C7168 H7159 0.950 . S
C7168 C7167 1.398 . S
C7168 C7169 1.391 . S
C7169 H7157 0.950 . S
C7169 C7165 1.393 . S
C7169 C7168 1.391 . S
C7170 H7160 0.950 . S
C7170 C7171 1.386 . S
C7170 C7172 1.391 . S
C7171 C7170 1.386 . S
C7171 C7175 1.393 . S
C7172 H7161 0.950 . S
C7172 C7170 1.391 . S
C7172 C7173 1.400 . S
C7173 C7167 1.491 . S
C7173 C7172 1.400 . S
C7173 C7174 1.398 . S
C7174 H7162 0.950 . S
C7174 C7173 1.398 . S
C7174 C7175 1.391 . S
C7175 H7163 0.950 . S
C7175 C7171 1.393 . S
C7175 C7174 1.391 . S
H7176 C7184 0.950 . S
H7177 C7189 0.950 . S
H7178 C7186 0.950 1_556 S
H7179 C7188 0.950 . S
H7180 C7190 0.950 . S
H7181 C7192 0.951 1_554 S
H7182 C7194 0.950 . S
H7183 C7195 0.950 . S
C7184 H7176 0.950 . S
C7184 C7185 1.386 . S
C7184 C7186 1.391 . S
C7185 C7184 1.386 . S
C7185 C7189 1.393 . S
C7186 H7178 0.950 1_554 S
C7186 C7184 1.391 . S
C7186 C7187 1.400 . S
C7187 C7186 1.400 . S
C7187 C7188 1.398 . S
C7187 C7193 1.491 1_554 S
C7188 H7179 0.950 . S
C7188 C7187 1.398 . S
C7188 C7189 1.391 . S
C7189 H7177 0.950 . S
C7189 C7185 1.393 . S
C7189 C7188 1.391 . S
C7190 H7180 0.950 . S
C7190 C7191 1.386 . S
C7190 C7192 1.391 . S
C7191 C7190 1.386 . S
C7191 C7195 1.393 . S
C7192 H7181 0.951 1_556 S
C7192 C7190 1.391 . S
C7192 C7193 1.400 . S
C7193 C7187 1.491 1_556 S
C7193 C7192 1.400 . S
C7193 C7194 1.398 . S
C7194 H7182 0.950 . S
C7194 C7193 1.398 . S
C7194 C7195 1.391 . S
C7195 H7183 0.950 . S
C7195 C7191 1.393 . S
C7195 C7194 1.391 . S
H7196 C7204 0.950 . S
H7197 C7209 0.950 . S
H7198 C7206 0.950 . S
H7199 C7208 0.950 . S
H7200 C7210 0.950 . S
H7201 C7212 0.950 . S
H7202 C7214 0.950 . S
H7203 C7215 0.950 . S
C7204 H7196 0.950 . S
C7204 C7205 1.386 . S
C7204 C7206 1.391 . S
C7205 C7204 1.386 . S
C7205 C7209 1.393 . S
C7206 H7198 0.950 . S
C7206 C7204 1.391 . S
C7206 C7207 1.400 . S
C7207 C7206 1.400 . S
C7207 C7208 1.398 . S
C7207 C7213 1.491 . S
C7208 H7199 0.950 . S
C7208 C7207 1.398 . S
C7208 C7209 1.391 . S
C7209 H7197 0.950 . S
C7209 C7205 1.393 . S
C7209 C7208 1.391 . S
C7210 H7200 0.950 . S
C7210 C7211 1.386 . S
C7210 C7212 1.391 . S
C7211 C7210 1.386 . S
C7211 C7215 1.393 . S
C7212 H7201 0.950 . S
C7212 C7210 1.391 . S
C7212 C7213 1.400 . S
C7213 C7207 1.491 . S
C7213 C7212 1.400 . S
C7213 C7214 1.398 . S
C7214 H7202 0.950 . S
C7214 C7213 1.398 . S
C7214 C7215 1.391 . S
C7215 H7203 0.950 . S
C7215 C7211 1.393 . S
C7215 C7214 1.391 . S
H7216 C7224 0.950 . S
H7217 C7229 0.950 . S
H7218 C7226 0.950 . S
H7219 C7228 0.950 . S
H7220 C7230 0.950 . S
H7221 C7232 0.950 . S
H7222 C7234 0.950 . S
H7223 C7235 0.950 . S
C7224 H7216 0.950 . S
C7224 C7225 1.386 . S
C7224 C7226 1.391 . S
C7225 C7224 1.386 . S
C7225 C7229 1.393 . S
C7226 H7218 0.950 . S
C7226 C7224 1.391 . S
C7226 C7227 1.400 . S
C7227 C7226 1.400 . S
C7227 C7228 1.398 . S
C7227 C7233 1.491 . S
C7228 H7219 0.950 . S
C7228 C7227 1.398 . S
C7228 C7229 1.391 . S
C7229 H7217 0.950 . S
C7229 C7225 1.393 . S
C7229 C7228 1.391 . S
C7230 H7220 0.950 . S
C7230 C7231 1.386 . S
C7230 C7232 1.391 . S
C7231 C7230 1.386 . S
C7231 C7235 1.393 . S
C7232 H7221 0.950 . S
C7232 C7230 1.391 . S
C7232 C7233 1.400 . S
C7233 C7227 1.491 . S
C7233 C7232 1.400 . S
C7233 C7234 1.398 . S
C7234 H7222 0.950 . S
C7234 C7233 1.398 . S
C7234 C7235 1.391 . S
C7235 H7223 0.950 . S
C7235 C7231 1.393 . S
C7235 C7234 1.391 . S
H7236 C7244 0.950 . S
H7237 C7249 0.950 . S
H7238 C7246 0.950 . S
H7239 C7248 0.950 . S
H7240 C7250 0.950 . S
H7241 C7252 0.950 . S
H7242 C7254 0.950 . S
H7243 C7255 0.950 . S
C7244 H7236 0.950 . S
C7244 C7245 1.386 . S
C7244 C7246 1.391 . S
C7245 C7244 1.386 . S
C7245 C7249 1.393 . S
C7246 H7238 0.950 . S
C7246 C7244 1.391 . S
C7246 C7247 1.400 . S
C7247 C7246 1.400 . S
C7247 C7248 1.398 . S
C7247 C7253 1.491 . S
C7248 H7239 0.950 . S
C7248 C7247 1.398 . S
C7248 C7249 1.391 . S
C7249 H7237 0.950 . S
C7249 C7245 1.393 . S
C7249 C7248 1.391 . S
C7250 H7240 0.950 . S
C7250 C7251 1.386 . S
C7250 C7252 1.391 . S
C7251 C7250 1.386 . S
C7251 C7255 1.393 . S
C7252 H7241 0.950 . S
C7252 C7250 1.391 . S
C7252 C7253 1.400 . S
C7253 C7247 1.491 . S
C7253 C7252 1.400 . S
C7253 C7254 1.398 . S
C7254 H7242 0.950 . S
C7254 C7253 1.398 . S
C7254 C7255 1.391 . S
C7255 H7243 0.950 . S
C7255 C7251 1.393 . S
C7255 C7254 1.391 . S
H7256 C7264 0.950 . S
H7257 C7269 0.950 . S
H7258 C7266 0.950 . S
H7259 C7268 0.950 . S
H7260 C7270 0.950 . S
H7261 C7272 0.950 . S
H7262 C7274 0.950 . S
H7263 C7275 0.950 . S
C7264 H7256 0.950 . S
C7264 C7265 1.386 . S
C7264 C7266 1.391 . S
C7265 C7264 1.386 . S
C7265 C7269 1.393 . S
C7266 H7258 0.950 . S
C7266 C7264 1.391 . S
C7266 C7267 1.400 . S
C7267 C7266 1.400 . S
C7267 C7268 1.398 . S
C7267 C7273 1.491 . S
C7268 H7259 0.950 . S
C7268 C7267 1.398 . S
C7268 C7269 1.391 . S
C7269 H7257 0.950 . S
C7269 C7265 1.393 . S
C7269 C7268 1.391 . S
C7270 H7260 0.950 . S
C7270 C7271 1.386 . S
C7270 C7272 1.391 . S
C7271 C7270 1.386 . S
C7271 C7275 1.393 . S
C7272 H7261 0.950 . S
C7272 C7270 1.391 . S
C7272 C7273 1.400 . S
C7273 C7267 1.491 . S
C7273 C7272 1.400 . S
C7273 C7274 1.398 . S
C7274 H7262 0.950 . S
C7274 C7273 1.398 . S
C7274 C7275 1.391 . S
C7275 H7263 0.950 . S
C7275 C7271 1.393 . S
C7275 C7274 1.391 . S
H7276 C7284 0.950 . S
H7277 C7289 0.950 . S
H7278 C7286 0.950 . S
H7279 C7288 0.950 . S
H7280 C7290 0.950 . S
H7281 C7292 0.950 . S
H7282 C7294 0.950 . S
H7283 C7295 0.950 . S
C7284 H7276 0.950 . S
C7284 C7285 1.386 . S
C7284 C7286 1.391 . S
C7285 C7284 1.386 . S
C7285 C7289 1.393 . S
C7286 H7278 0.950 . S
C7286 C7284 1.391 . S
C7286 C7287 1.400 . S
C7287 C7286 1.400 . S
C7287 C7288 1.398 . S
C7287 C7293 1.491 . S
C7288 H7279 0.950 . S
C7288 C7287 1.398 . S
C7288 C7289 1.391 . S
C7289 H7277 0.950 . S
C7289 C7285 1.393 . S
C7289 C7288 1.391 . S
C7290 H7280 0.950 . S
C7290 C7291 1.386 . S
C7290 C7292 1.391 . S
C7291 C7290 1.386 . S
C7291 C7295 1.393 . S
C7292 H7281 0.950 . S
C7292 C7290 1.391 . S
C7292 C7293 1.400 . S
C7293 C7287 1.491 . S
C7293 C7292 1.400 . S
C7293 C7294 1.398 . S
C7294 H7282 0.950 . S
C7294 C7293 1.398 . S
C7294 C7295 1.391 . S
C7295 H7283 0.950 . S
C7295 C7291 1.393 . S
C7295 C7294 1.391 . S
C3465 C4 1.134 . S
C3471 C2702 1.181 . S
C3485 C866 1.183 . S
C3491 C40 1.107 . S
C3505 C2630 1.197 . S
C3511 C76 1.125 . S
C3525 C938 1.181 . S
C3531 C112 1.114 . S
C3545 C148 1.135 . S
C3551 C2774 1.193 . S
C3565 C184 1.115 . S
C3571 C1082 1.198 . S
C3585 C2846 1.185 . S
C3591 C220 1.141 . S
C3605 C256 1.097 . S
C3611 C1010 1.189 . S
C3625 C292 1.097 . S
C3631 C3242 1.194 . S
C3645 C1550 1.183 . S
C3651 C328 1.107 . S
C3665 C364 1.097 . S
C3671 C1586 1.194 . S
C3685 C400 1.099 . S
C3691 C1478 1.195 . S
C3705 C436 1.097 . S
C3711 C3386 1.188 . S
C3725 C472 1.102 . S
C3731 C3170 1.185 . S
C3745 C508 1.137 . S
C3751 C3422 1.192 . S
C3765 C544 1.118 . S
C3771 C3350 1.180 . S
C3785 C2918 1.197 . S
C3791 C580 1.104 . S
C3805 C616 1.140 . S
C3811 C1406 1.184 . S
C3825 C652 1.113 . S
C3831 C3026 1.181 . S
C3845 C1334 1.181 . S
C3851 C688 1.116 . S
C3865 C724 1.132 . S
C3871 C1370 1.195 . S
C3885 C2990 1.195 . S
C3891 C760 1.131 . S
C3905 C796 1.138 . S
C3911 C2882 1.182 . S
C3925 C2954 1.198 . S
C3931 C832 1.113 . S
C3945 C1838 1.195 . S
C3951 C868 1.132 . S
C3965 C2 1.195 . S
C3971 C904 1.133 . S
C3985 C940 1.110 . S
C3991 C1766 1.198 . S
C4005 C976 1.122 . S
C4011 C74 1.180 . S
C4025 C1012 1.113 . S
C4031 C1910 1.198 . S
C4045 C218 1.181 . S
C4051 C1048 1.115 . S
C4065 C1084 1.124 . S
C4071 C1982 1.197 . S
C4085 C1120 1.111 . S
C4091 C146 1.198 . S
C4105 C1156 1.116 . S
C4111 C2378 1.181 . S
C4125 C686 1.193 . S
C4131 C1192 1.096 . S
C4145 C1228 1.103 . S
C4151 C722 1.197 . S
C4165 C614 1.185 . S
C4171 C1264 1.102 . S
C4185 C1300 1.141 . S
C4191 C2522 1.184 . S
C4205 C1336 1.141 . S
C4211 C2306 1.188 . S
C4225 C1372 1.141 . S
C4231 C2558 1.185 . S
C4245 C2486 1.180 . S
C4251 C1408 1.119 . S
C4265 C2054 1.180 . S
C4271 C1444 1.129 . S
C4285 C542 1.186 . S
C4291 C1480 1.100 . S
C4305 C2162 1.188 . S
C4311 C1516 1.098 . S
C4325 C1552 1.130 . S
C4331 C470 1.180 . S
C4345 C1588 1.096 . S
C4351 C506 1.193 . S
C4365 C1624 1.138 . S
C4371 C2126 1.192 . S
C4385 C2018 1.198 . S
C4391 C1660 1.113 . S
C4405 C1696 1.141 . S
C4411 C2090 1.188 . S
C4425 C974 1.188 . S
C4431 C1732 1.097 . S
C4445 C2594 1.198 . S
C4451 C1768 1.120 . S
C4465 C1804 1.134 . S
C4471 C902 1.181 . S
C4485 C2666 1.183 . S
C4491 C1840 1.140 . S
C4505 C1876 1.110 . S
C4511 C1046 1.198 . S
C4525 C2810 1.183 . S
C4531 C1912 1.140 . S
C4545 C1948 1.096 . S
C4551 C1118 1.190 . S
C4565 C2738 1.187 . S
C4571 C1984 1.099 . S
C4585 C1514 1.197 . S
C4591 C2020 1.121 . S
C4605 C2056 1.121 . S
C4611 C3278 1.180 . S
C4625 C3314 1.198 . S
C4631 C2092 1.120 . S
C4645 C2128 1.097 . S
C4651 C3206 1.189 . S
C4665 C1658 1.194 . S
C4671 C2164 1.097 . S
C4685 C2200 1.142 . S
C4691 C1442 1.187 . S
C4705 C1694 1.185 . S
C4711 C2236 1.103 . S
C4725 C1622 1.184 . S
C4731 C2272 1.141 . S
C4745 C1190 1.198 . S
C4751 C2308 1.107 . S
C4765 C3134 1.194 . S
C4771 C2344 1.134 . S
C4785 C2380 1.096 . S
C4791 C1298 1.192 . S
C4805 C2416 1.097 . S
C4811 C3062 1.194 . S
C4825 C3098 1.181 . S
C4831 C2452 1.137 . S
C4845 C1262 1.180 . S
C4851 C2488 1.120 . S
C4865 C1154 1.196 . S
C4871 C2524 1.130 . S
C4885 C1226 1.198 . S
C4891 C2560 1.116 . S
C4905 C2596 1.137 . S
C4911 C110 1.193 . S
C4925 C2632 1.097 . S
C4931 C1730 1.194 . S
C4945 C2668 1.096 . S
C4951 C38 1.190 . S
C4965 C2704 1.138 . S
C4971 C1802 1.192 . S
C4985 C182 1.185 . S
C4991 C2740 1.102 . S
C5005 C1946 1.183 . S
C5011 C2776 1.139 . S
C5025 C254 1.180 . S
C5031 C2812 1.121 . S
C5045 C1874 1.186 . S
C5051 C2848 1.100 . S
C5065 C2884 1.114 . S
C5071 C650 1.181 . S
C5085 C2414 1.194 . S
C5091 C2920 1.134 . S
C5105 C2956 1.141 . S
C5111 C2450 1.188 . S
C5125 C2992 1.139 . S
C5131 C2342 1.191 . S
C5145 C794 1.182 . S
C5151 C3028 1.111 . S
C5165 C578 1.194 . S
C5171 C3064 1.135 . S
C5185 C3100 1.096 . S
C5191 C830 1.191 . S
C5205 C758 1.186 . S
C5211 C3136 1.101 . S
C5225 C3172 1.096 . S
C5231 C326 1.193 . S
C5245 C3208 1.108 . S
C5251 C2270 1.198 . S
C5265 C434 1.193 . S
C5271 C3244 1.096 . S
C5285 C3280 1.126 . S
C5291 C2198 1.180 . S
C5305 C2234 1.184 . S
C5311 C3316 1.141 . S
C5325 C3352 1.126 . S
C5331 C398 1.196 . S
C5345 C3388 1.105 . S
C5351 C290 1.184 . S
C5365 C3424 1.142 . S
C5371 C362 1.187 . S
C5385 C14 1.101 . S
C5391 C338 1.131 . S
C5405 C50 1.100 . S
C5411 C374 1.132 . S
C5425 C410 1.102 . S
C5431 C86 1.129 . S
C5445 C122 1.110 . S
C5451 C302 1.134 . S
C5465 C554 1.138 . S
C5471 C158 1.104 . S
C5485 C194 1.112 . S
C5491 C446 1.118 . S
C5505 C230 1.128 . S
C5511 C482 1.117 . S
C5525 C518 1.142 . S
C5531 C266 1.095 . S
C5545 C662 1.141 . S
C5551 C590 1.095 . S
C5565 C626 1.125 . S
C5571 C2534 1.106 . S
C5585 C2570 1.103 . S
C5591 C698 1.128 . S
C5605 C734 1.125 . S
C5611 C2498 1.105 . S
C5625 C2462 1.110 . S
C5631 C770 1.120 . S
C5645 C806 1.138 . S
C5651 C2354 1.096 . S
C5665 C842 1.128 . S
C5671 C2426 1.117 . S
C5685 C878 1.095 . S
C5691 C1202 1.142 . S
C5705 C1238 1.125 . S
C5711 C914 1.120 . S
C5725 C1274 1.142 . S
C5731 C950 1.099 . S
C5745 C986 1.140 . S
C5751 C1166 1.101 . S
C5765 C1418 1.142 . S
C5771 C1022 1.095 . S
C5785 C1058 1.141 . S
C5791 C1310 1.095 . S
C5805 C1346 1.100 . S
C5811 C1094 1.141 . S
C5825 C1130 1.141 . S
C5831 C1382 1.100 . S
C5845 C1526 1.128 . S
C5851 C1454 1.103 . S
C5865 C1490 1.141 . S
C5871 C3398 1.095 . S
C5885 C1562 1.108 . S
C5891 C3434 1.135 . S
C5905 C3362 1.140 . S
C5911 C1598 1.101 . S
C5925 C3326 1.106 . S
C5931 C1634 1.124 . S
C5945 C3218 1.134 . S
C5951 C1670 1.099 . S
C5965 C3290 1.132 . S
C5971 C1706 1.100 . S
C5985 C2066 1.097 . S
C5991 C1742 1.142 . S
C6005 C2102 1.141 . S
C6011 C1778 1.095 . S
C6025 C2138 1.108 . S
C6031 C1814 1.122 . S
C6045 C1850 1.124 . S
C6051 C2030 1.121 . S
C6065 C1886 1.126 . S
C6071 C2282 1.105 . S
C6085 C1922 1.127 . S
C6091 C2174 1.118 . S
C6105 C1958 1.095 . S
C6111 C2210 1.139 . S
C6125 C1994 1.142 . S
C6131 C2246 1.097 . S
C6145 C2390 1.117 . S
C6151 C2318 1.128 . S
C6165 C2930 1.139 . S
C6171 C2606 1.103 . S
C6185 C2642 1.118 . S
C6191 C2966 1.112 . S
C6205 C3002 1.142 . S
C6211 C2678 1.097 . S
C6225 C2894 1.141 . S
C6231 C2714 1.099 . S
C6245 C3146 1.142 . S
C6251 C2750 1.095 . S
C6265 C3038 1.115 . S
C6271 C2786 1.130 . S
C6285 C3074 1.100 . S
C6291 C2822 1.131 . S
C6305 C3110 1.101 . S
C6311 C2858 1.140 . S
C6325 C3254 1.113 . S
C6331 C3182 1.117 . S
C6345 C3 1.540 . S
C6351 C723 1.544 . S
C6365 C2343 1.537 . S
C6371 C39 1.551 . S
C6385 C2379 1.546 . S
C6391 C75 1.538 . S
C6405 C2415 1.546 . S
C6411 C111 1.545 . S
C6425 C2559 1.550 . S
C6431 C147 1.536 . S
C6445 C183 1.541 . S
C6451 C759 1.549 . S
C6465 C219 1.539 . S
C6471 C2523 1.550 . S
C6485 C255 1.551 . S
C6491 C579 1.537 . S
C6505 C291 1.547 . S
C6511 C543 1.544 . S
C6525 C327 1.539 . S
C6531 C435 1.544 . S
C6545 C363 1.538 . S
C6551 C471 1.551 . S
C6565 C507 1.536 . S
C6571 C399 1.550 . S
C6585 C1767 1.538 . S
C6591 C615 1.546 . S
C6605 C651 1.539 . S
C6611 C1803 1.550 . S
C6625 C687 1.542 . S
C6631 C1839 1.548 . S
C6645 C1947 1.544 . S
C6651 C795 1.540 . S
C6665 C831 1.545 . S
C6671 C1875 1.539 . S
C6685 C867 1.541 . S
C6691 C1587 1.549 . S
C6705 C3207 1.543 . S
C6711 C903 1.540 . S
C6725 C3243 1.543 . S
C6731 C939 1.540 . S
C6745 C3279 1.537 . S
C6751 C975 1.547 . S
C6765 C1011 1.540 . S
C6771 C3423 1.543 . S
C6785 C1047 1.537 . S
C6791 C1623 1.548 . S
C6805 C1083 1.540 . S
C6811 C3387 1.544 . S
C6825 C1119 1.543 . S
C6831 C1443 1.540 . S
C6845 C1155 1.551 . S
C6851 C1407 1.538 . S
C6865 C1191 1.549 . S
C6871 C1299 1.540 . S
C6885 C1335 1.549 . S
C6891 C1227 1.536 . S
C6905 C1263 1.537 . S
C6911 C1371 1.547 . S
C6925 C2631 1.536 . S
C6931 C1479 1.550 . S
C6945 C1515 1.545 . S
C6951 C2667 1.545 . S
C6965 C2703 1.536 . S
C6971 C1551 1.550 . S
C6985 C1659 1.549 . S
C6991 C2811 1.541 . S
C7005 C2739 1.538 . S
C7011 C1695 1.547 . S
C7025 C1731 1.541 . S
C7031 C2451 1.542 . S
C7045 C1911 1.536 . S
C7051 C2487 1.550 . S
C7065 C1983 1.546 . S
C7071 C2307 1.538 . S
C7085 C2271 1.550 . S
C7091 C2019 1.536 . S
C7105 C2055 1.541 . S
C7111 C2163 1.548 . S
C7125 C2199 1.542 . S
C7131 C2091 1.548 . S
C7145 C2127 1.545 . S
C7151 C2235 1.539 . S
C7165 C3315 1.548 . S
C7171 C2595 1.537 . S
C7185 C2775 1.546 . S
C7191 C3351 1.538 . S
C7205 C2847 1.536 . S
C7211 C3171 1.550 . S
C7225 C3135 1.544 . S
C7231 C2883 1.540 . S
C7245 C3027 1.551 . S
C7251 C2919 1.536 . S
C7265 C2955 1.536 . S
C7271 C3063 1.550 . S
C7285 C2991 1.537 . S
C7291 C3099 1.548 . S
