# Generated by pormake.
# Topology reo-e, (6)-cn, num edge types: 1
# Building blocks:
#     Node 0, Type 0, BuildingBlock: OJICUG_clean_sbu_0, # of connection points: 6
#     Node 1, Type 0, BuildingBlock: OJICUG_clean_sbu_0, # of connection points: 6
#     Node 2, Type 0, BuildingBlock: OJICUG_clean_sbu_0, # of connection points: 6
#     Node 3, Type 0, BuildingBlock: OJICUG_clean_sbu_0, # of connection points: 6
#     Node 4, Type 0, BuildingBlock: OJICUG_clean_sbu_0, # of connection points: 6
#     Node 5, Type 0, BuildingBlock: OJICUG_clean_sbu_0, # of connection points: 6
#     Node 6, Type 0, BuildingBlock: OJICUG_clean_sbu_0, # of connection points: 6
#     Node 7, Type 0, BuildingBlock: OJICUG_clean_sbu_0, # of connection points: 6
#     Node 8, Type 0, BuildingBlock: OJICUG_clean_sbu_0, # of connection points: 6
#     Node 9, Type 0, BuildingBlock: OJICUG_clean_sbu_0, # of connection points: 6
#     Node 10, Type 0, BuildingBlock: OJICUG_clean_sbu_0, # of connection points: 6
#     Node 11, Type 0, BuildingBlock: OJICUG_clean_sbu_0, # of connection points: 6
#     Edge 12, Type (0, 0), BuildingBlock: MIFKUJ_clean_linker_0, # of connection points: 2
#     Edge 13, Type (0, 0), BuildingBlock: MIFKUJ_clean_linker_0, # of connection points: 2
#     Edge 14, Type (0, 0), BuildingBlock: MIFKUJ_clean_linker_0, # of connection points: 2
#     Edge 15, Type (0, 0), BuildingBlock: MIFKUJ_clean_linker_0, # of connection points: 2
#     Edge 16, Type (0, 0), BuildingBlock: MIFKUJ_clean_linker_0, # of connection points: 2
#     Edge 17, Type (0, 0), BuildingBlock: MIFKUJ_clean_linker_0, # of connection points: 2
#     Edge 18, Type (0, 0), BuildingBlock: MIFKUJ_clean_linker_0, # of connection points: 2
#     Edge 19, Type (0, 0), BuildingBlock: MIFKUJ_clean_linker_0, # of connection points: 2
#     Edge 20, Type (0, 0), BuildingBlock: MIFKUJ_clean_linker_0, # of connection points: 2
#     Edge 21, Type (0, 0), BuildingBlock: MIFKUJ_clean_linker_0, # of connection points: 2
#     Edge 22, Type (0, 0), BuildingBlock: MIFKUJ_clean_linker_0, # of connection points: 2
#     Edge 23, Type (0, 0), BuildingBlock: MIFKUJ_clean_linker_0, # of connection points: 2
#     Edge 24, Type (0, 0), BuildingBlock: MIFKUJ_clean_linker_0, # of connection points: 2
#     Edge 25, Type (0, 0), BuildingBlock: MIFKUJ_clean_linker_0, # of connection points: 2
#     Edge 26, Type (0, 0), BuildingBlock: MIFKUJ_clean_linker_0, # of connection points: 2
#     Edge 27, Type (0, 0), BuildingBlock: MIFKUJ_clean_linker_0, # of connection points: 2
#     Edge 28, Type (0, 0), BuildingBlock: MIFKUJ_clean_linker_0, # of connection points: 2
#     Edge 29, Type (0, 0), BuildingBlock: MIFKUJ_clean_linker_0, # of connection points: 2
#     Edge 30, Type (0, 0), BuildingBlock: MIFKUJ_clean_linker_0, # of connection points: 2
#     Edge 31, Type (0, 0), BuildingBlock: MIFKUJ_clean_linker_0, # of connection points: 2
#     Edge 32, Type (0, 0), BuildingBlock: MIFKUJ_clean_linker_0, # of connection points: 2
#     Edge 33, Type (0, 0), BuildingBlock: MIFKUJ_clean_linker_0, # of connection points: 2
#     Edge 34, Type (0, 0), BuildingBlock: MIFKUJ_clean_linker_0, # of connection points: 2
#     Edge 35, Type (0, 0), BuildingBlock: MIFKUJ_clean_linker_0, # of connection points: 2
#     Edge 36, Type (0, 0), BuildingBlock: MIFKUJ_clean_linker_0, # of connection points: 2
#     Edge 37, Type (0, 0), BuildingBlock: MIFKUJ_clean_linker_0, # of connection points: 2
#     Edge 38, Type (0, 0), BuildingBlock: MIFKUJ_clean_linker_0, # of connection points: 2
#     Edge 39, Type (0, 0), BuildingBlock: MIFKUJ_clean_linker_0, # of connection points: 2
#     Edge 40, Type (0, 0), BuildingBlock: MIFKUJ_clean_linker_0, # of connection points: 2
#     Edge 41, Type (0, 0), BuildingBlock: MIFKUJ_clean_linker_0, # of connection points: 2
#     Edge 42, Type (0, 0), BuildingBlock: MIFKUJ_clean_linker_0, # of connection points: 2
#     Edge 43, Type (0, 0), BuildingBlock: MIFKUJ_clean_linker_0, # of connection points: 2
#     Edge 44, Type (0, 0), BuildingBlock: MIFKUJ_clean_linker_0, # of connection points: 2
#     Edge 45, Type (0, 0), BuildingBlock: MIFKUJ_clean_linker_0, # of connection points: 2
#     Edge 46, Type (0, 0), BuildingBlock: MIFKUJ_clean_linker_0, # of connection points: 2
#     Edge 47, Type (0, 0), BuildingBlock: MIFKUJ_clean_linker_0, # of connection points: 2
# Relax obj value: 0.131
# Max RMSD: 0.142
# Mean RMSD: 0.142
data_MOF--net-reo-e--node1-OJICUG_clean_sbu_0--edge1-MIFKUJ_clean_linker_0
_symmetry_space_group_name_H-M    P1
_symmetry_Int_Tables_number       1
_symmetry_cell_setting            triclinic
loop_
_symmetry_equiv_pos_as_xyz
'x, y, z'
_cell_length_a     50.620234
_cell_length_b     50.510453
_cell_length_c     50.486013
_cell_angle_alpha  90.013357
_cell_angle_beta   89.978863
_cell_angle_gamma 89.873586
loop_
_atom_site_label
_atom_site_type_symbol
_atom_site_fract_x
_atom_site_fract_y
_atom_site_fract_z
_atom_type_partial_charge
Sc0 Sc 0.18935 0.19127 0.4589 0.0
Sc1 Sc 0.22706 0.23889 0.49282 0.0
Sc2 Sc 0.18805 0.19392 0.52875 0.0
O3 O 0.20153 0.20799 0.49349 0.0
C4 C 0.13636 0.19217 0.49238 0.0
C5 C 0.19106 0.25231 0.44284 0.0
C6 C 0.18616 0.25631 0.53776 0.0
C7 C 0.25073 0.20031 0.44852 0.0
C8 C 0.19632 0.14068 0.49641 0.0
C9 C 0.24792 0.20711 0.5432 0.0
O10 O 0.14851 0.19302 0.47037 0.0
O11 O 0.20634 0.25893 0.46161 0.0
O12 O 0.17856 0.23294 0.54308 0.0
O13 O 0.22918 0.18813 0.44417 0.0
O14 O 0.1961 0.15343 0.51811 0.0
O15 O 0.25119 0.22308 0.52407 0.0
O16 O 0.19324 0.1517 0.474 0.0
O17 O 0.2527 0.21918 0.46511 0.0
O18 O 0.22625 0.19519 0.54739 0.0
O19 O 0.18365 0.22861 0.43915 0.0
O20 O 0.14816 0.19131 0.51457 0.0
O21 O 0.20366 0.26136 0.5204 0.0
Sc22 Sc 0.80207 0.18849 0.53435 0.0
Sc23 Sc 0.75522 0.22332 0.49719 0.0
Sc24 Sc 0.80186 0.18316 0.46486 0.0
O25 O 0.78643 0.19833 0.49874 0.0
C26 C 0.85363 0.19329 0.49807 0.0
C27 C 0.79048 0.24889 0.5433 0.0
C28 C 0.78989 0.24338 0.44907 0.0
C29 C 0.74015 0.18883 0.54668 0.0
C30 C 0.80257 0.13376 0.50432 0.0
C31 C 0.74103 0.18177 0.45143 0.0
O32 O 0.84215 0.19021 0.52024 0.0
O33 O 0.77048 0.24868 0.52804 0.0
O34 O 0.79982 0.22064 0.44467 0.0
O35 O 0.7641 0.18552 0.55348 0.0
O36 O 0.80566 0.14411 0.48157 0.0
O37 O 0.73578 0.20112 0.46663 0.0
O38 O 0.79921 0.1471 0.52539 0.0
O39 O 0.73337 0.20031 0.52537 0.0
O40 O 0.76396 0.17174 0.44949 0.0
O41 O 0.80585 0.22917 0.54602 0.0
O42 O 0.84136 0.19301 0.47617 0.0
O43 O 0.7745 0.24813 0.46845 0.0
Sc44 Sc 0.80702 0.79763 0.53589 0.0
Sc45 Sc 0.76164 0.75894 0.50006 0.0
Sc46 Sc 0.80633 0.79965 0.46622 0.0
O47 O 0.79167 0.7854 0.50078 0.0
C48 C 0.80362 0.8509 0.50197 0.0
C49 C 0.74573 0.79496 0.54964 0.0
C50 C 0.74471 0.79651 0.45312 0.0
C51 C 0.79821 0.7358 0.54574 0.0
C52 C 0.85884 0.7945 0.50111 0.0
C53 C 0.79902 0.73925 0.45257 0.0
O54 O 0.80744 0.83847 0.52355 0.0
O55 O 0.74061 0.77797 0.5318 0.0
O56 O 0.76836 0.80252 0.44741 0.0
O57 O 0.80839 0.75805 0.55158 0.0
O58 O 0.84663 0.79872 0.47956 0.0
O59 O 0.77947 0.73666 0.46823 0.0
O60 O 0.84708 0.79204 0.52315 0.0
O61 O 0.78145 0.73288 0.52724 0.0
O62 O 0.81212 0.7606 0.45056 0.0
O63 O 0.76866 0.80456 0.55305 0.0
O64 O 0.80127 0.83964 0.47957 0.0
O65 O 0.73859 0.78241 0.47299 0.0
Sc66 Sc 0.19336 0.80565 0.45853 0.0
Sc67 Sc 0.23396 0.75998 0.49224 0.0
Sc68 Sc 0.19481 0.80474 0.52844 0.0
O69 O 0.20737 0.79013 0.49306 0.0
C70 C 0.20066 0.85734 0.49438 0.0
C71 C 0.25447 0.79758 0.44576 0.0
C72 C 0.25583 0.79446 0.54035 0.0
C73 C 0.19604 0.74404 0.44441 0.0
C74 C 0.14168 0.80431 0.49421 0.0
C75 C 0.19597 0.74265 0.53957 0.0
O76 O 0.19755 0.84586 0.47219 0.0
O77 O 0.25788 0.77947 0.46293 0.0
O78 O 0.23394 0.80585 0.54515 0.0
O79 O 0.18742 0.76736 0.44038 0.0
O80 O 0.15418 0.80512 0.51603 0.0
O81 O 0.21272 0.73746 0.52151 0.0
O82 O 0.15311 0.80408 0.4718 0.0
O83 O 0.2126 0.73863 0.46249 0.0
O84 O 0.18778 0.76596 0.54435 0.0
O85 O 0.23232 0.80885 0.44192 0.0
O86 O 0.2006 0.84503 0.5163 0.0
O87 O 0.25867 0.77762 0.5219 0.0
Sc88 Sc 0.46249 0.19197 0.1941 0.0
Sc89 Sc 0.49882 0.23383 0.2363 0.0
Sc90 Sc 0.53215 0.19341 0.19048 0.0
O91 O 0.49779 0.20639 0.20695 0.0
C92 C 0.49875 0.14024 0.1947 0.0
C93 C 0.45309 0.19558 0.25651 0.0
C94 C 0.54795 0.19725 0.25142 0.0
C95 C 0.44915 0.25311 0.20243 0.0
C96 C 0.49451 0.19741 0.14004 0.0
C97 C 0.54325 0.25506 0.19694 0.0
O98 O 0.47634 0.15166 0.19529 0.0
O99 O 0.47121 0.2125 0.26039 0.0
O100 O 0.5514 0.18833 0.22815 0.0
O101 O 0.44488 0.2308 0.19157 0.0
O102 O 0.5171 0.19689 0.15095 0.0
O103 O 0.52651 0.25837 0.21541 0.0
O104 O 0.47308 0.19571 0.15302 0.0
O105 O 0.46772 0.25689 0.21891 0.0
O106 O 0.54748 0.23274 0.18613 0.0
O107 O 0.44755 0.18653 0.23369 0.0
O108 O 0.5204 0.15277 0.19293 0.0
O109 O 0.52984 0.21372 0.25716 0.0
Sc110 Sc 0.80163 0.5304 0.1955 0.0
Sc111 Sc 0.75888 0.49467 0.23721 0.0
Sc112 Sc 0.80068 0.46062 0.19309 0.0
O113 O 0.7871 0.49523 0.20862 0.0
C114 C 0.79757 0.4976 0.14191 0.0
C115 C 0.74023 0.54327 0.20163 0.0
C116 C 0.7392 0.4491 0.19814 0.0
C117 C 0.7967 0.54091 0.25745 0.0
C118 C 0.85343 0.49433 0.19767 0.0
C119 C 0.79489 0.44593 0.25437 0.0
O120 O 0.798 0.51928 0.15465 0.0
O121 O 0.73579 0.52452 0.21777 0.0
O122 O 0.76159 0.44524 0.18745 0.0
O123 O 0.80695 0.54539 0.23493 0.0
O124 O 0.84119 0.47242 0.19686 0.0
O125 O 0.77882 0.46456 0.25961 0.0
O126 O 0.84178 0.51663 0.19696 0.0
O127 O 0.77889 0.5236 0.26109 0.0
O128 O 0.80401 0.44187 0.23126 0.0
O129 O 0.76306 0.54821 0.19241 0.0
O130 O 0.79884 0.47513 0.15314 0.0
O131 O 0.73552 0.46577 0.21663 0.0
Sc132 Sc 0.46405 0.80572 0.19584 0.0
Sc133 Sc 0.49894 0.76141 0.23662 0.0
Sc134 Sc 0.5336 0.80269 0.1926 0.0
O135 O 0.49886 0.78994 0.20831 0.0
C136 C 0.49607 0.79901 0.14186 0.0
C137 C 0.44721 0.74569 0.20422 0.0
C138 C 0.54275 0.74006 0.19722 0.0
C139 C 0.45654 0.80257 0.25856 0.0
C140 C 0.50114 0.85659 0.19596 0.0
C141 C 0.54949 0.79562 0.25278 0.0
O142 O 0.47462 0.80126 0.15482 0.0
O143 O 0.46584 0.74063 0.22024 0.0
O144 O 0.54901 0.76299 0.1889 0.0
O145 O 0.45065 0.81175 0.23583 0.0
O146 O 0.52268 0.84378 0.19442 0.0
O147 O 0.53227 0.77788 0.25694 0.0
O148 O 0.47876 0.8454 0.19667 0.0
O149 O 0.47364 0.78441 0.26204 0.0
O150 O 0.55179 0.80775 0.23087 0.0
O151 O 0.44429 0.76818 0.19342 0.0
O152 O 0.51873 0.79917 0.15279 0.0
O153 O 0.52417 0.73613 0.21369 0.0
Sc154 Sc 0.18969 0.46386 0.18323 0.0
Sc155 Sc 0.22702 0.49866 0.23055 0.0
Sc156 Sc 0.1869 0.53367 0.18559 0.0
O157 O 0.2012 0.49874 0.19979 0.0
C158 C 0.1958 0.50075 0.13239 0.0
C159 C 0.25067 0.45282 0.19379 0.0
C160 C 0.24725 0.5478 0.19649 0.0
C161 C 0.19065 0.44926 0.24474 0.0
C162 C 0.13595 0.49678 0.1842 0.0
C163 C 0.18735 0.54491 0.24773 0.0
O164 O 0.19469 0.47826 0.14356 0.0
O165 O 0.25254 0.47 0.2121 0.0
O166 O 0.22521 0.55181 0.18512 0.0
O167 O 0.18342 0.4452 0.22099 0.0
O168 O 0.14706 0.5193 0.18477 0.0
O169 O 0.20458 0.52727 0.25272 0.0
O170 O 0.14876 0.47513 0.18361 0.0
O171 O 0.20594 0.46808 0.25129 0.0
O172 O 0.17888 0.54944 0.22447 0.0
O173 O 0.22935 0.44864 0.18121 0.0
O174 O 0.19339 0.52239 0.14501 0.0
O175 O 0.25093 0.52926 0.21314 0.0
Sc176 Sc 0.46113 0.80305 0.80395 0.0
Sc177 Sc 0.49875 0.75973 0.76443 0.0
Sc178 Sc 0.53081 0.80451 0.80708 0.0
O179 O 0.4969 0.78911 0.79182 0.0
C180 C 0.49477 0.8561 0.80041 0.0
C181 C 0.45179 0.7952 0.74187 0.0
C182 C 0.54656 0.79705 0.74655 0.0
C183 C 0.44956 0.74131 0.79953 0.0
C184 C 0.49378 0.80146 0.85803 0.0
C185 C 0.54477 0.74288 0.804 0.0
O186 O 0.47307 0.84356 0.80011 0.0
O187 O 0.47063 0.77879 0.73893 0.0
O188 O 0.54903 0.80851 0.76881 0.0
O189 O 0.44498 0.76413 0.80908 0.0
O190 O 0.51633 0.80201 0.84698 0.0
O191 O 0.52702 0.73757 0.78705 0.0
O192 O 0.47226 0.80211 0.84508 0.0
O193 O 0.46808 0.73686 0.7831 0.0
O194 O 0.54882 0.76616 0.81269 0.0
O195 O 0.44585 0.80536 0.76414 0.0
O196 O 0.51703 0.84471 0.80312 0.0
O197 O 0.5296 0.77901 0.74233 0.0
Sc198 Sc 0.19065 0.46391 0.7974 0.0
Sc199 Sc 0.22953 0.50068 0.75287 0.0
Sc200 Sc 0.1857 0.53362 0.79587 0.0
O201 O 0.20195 0.4994 0.78206 0.0
C202 C 0.13593 0.49499 0.79439 0.0
C203 C 0.19499 0.45095 0.73565 0.0
C204 C 0.18911 0.54551 0.73405 0.0
C205 C 0.25245 0.45494 0.78999 0.0
C206 C 0.19331 0.50025 0.84896 0.0
C207 C 0.24627 0.54971 0.7888 0.0
O208 O 0.14951 0.47386 0.79559 0.0
O209 O 0.21051 0.47003 0.73062 0.0
O210 O 0.17914 0.54932 0.75683 0.0
O211 O 0.23052 0.4498 0.80106 0.0
O212 O 0.19051 0.52191 0.83648 0.0
O213 O 0.25137 0.53152 0.77216 0.0
O214 O 0.1936 0.47782 0.83755 0.0
O215 O 0.25495 0.47253 0.77219 0.0
O216 O 0.22345 0.5531 0.79882 0.0
O217 O 0.18643 0.44605 0.75882 0.0
O218 O 0.14621 0.51793 0.79434 0.0
O219 O 0.20749 0.52887 0.72984 0.0
Sc220 Sc 0.45923 0.19355 0.80301 0.0
Sc221 Sc 0.49655 0.23541 0.76183 0.0
Sc222 Sc 0.52885 0.19085 0.80439 0.0
O223 O 0.49487 0.20657 0.78974 0.0
C224 C 0.49333 0.19505 0.85617 0.0
C225 C 0.44849 0.25524 0.79791 0.0
C226 C 0.54306 0.25241 0.80033 0.0
C227 C 0.44867 0.20077 0.74094 0.0
C228 C 0.49198 0.13987 0.79922 0.0
C229 C 0.54351 0.19721 0.74374 0.0
O230 O 0.47156 0.19372 0.84373 0.0
O231 O 0.466 0.25837 0.78018 0.0
O232 O 0.5475 0.22899 0.80846 0.0
O233 O 0.44269 0.19209 0.7638 0.0
O234 O 0.51424 0.15106 0.80212 0.0
O235 O 0.52756 0.21628 0.74007 0.0
O236 O 0.47032 0.15263 0.79842 0.0
O237 O 0.46838 0.21577 0.73677 0.0
O238 O 0.54558 0.18494 0.76559 0.0
O239 O 0.44418 0.23308 0.809 0.0
O240 O 0.51564 0.19497 0.84462 0.0
O241 O 0.52468 0.25798 0.78412 0.0
Sc242 Sc 0.80306 0.52826 0.80408 0.0
Sc243 Sc 0.75805 0.49336 0.76427 0.0
Sc244 Sc 0.79996 0.45855 0.80766 0.0
O245 O 0.78702 0.49339 0.79202 0.0
C246 C 0.85356 0.4903 0.80022 0.0
C247 C 0.7964 0.53846 0.74237 0.0
C248 C 0.79202 0.44354 0.74678 0.0
C249 C 0.74176 0.54301 0.79952 0.0
C250 C 0.79991 0.49654 0.85826 0.0
C251 C 0.73826 0.44856 0.80455 0.0
O252 O 0.84269 0.51298 0.80159 0.0
O253 O 0.7777 0.52195 0.73968 0.0
O254 O 0.8006 0.4386 0.7699 0.0
O255 O 0.7651 0.54749 0.80769 0.0
O256 O 0.80056 0.47389 0.84734 0.0
O257 O 0.73475 0.46462 0.78546 0.0
O258 O 0.80007 0.51801 0.84519 0.0
O259 O 0.73612 0.52377 0.78432 0.0
O260 O 0.76063 0.44486 0.81532 0.0
O261 O 0.8079 0.54248 0.76434 0.0
O262 O 0.84067 0.46878 0.80158 0.0
O263 O 0.77735 0.46321 0.74134 0.0
H264 H 0.16407 0.24562 0.39625 0.0
H265 H 0.15472 0.27918 0.36265 0.0
H266 H 0.18992 0.33898 0.41228 0.0
H267 H 0.19918 0.30574 0.44608 0.0
H268 H 0.14548 0.35736 0.38628 0.0
H269 H 0.22632 0.31033 0.36602 0.0
H270 H 0.25338 0.27061 0.35728 0.0
H271 H 0.20441 0.2513 0.29062 0.0
H272 H 0.17681 0.29074 0.29922 0.0
H273 H 0.19807 0.45291 0.29834 0.0
H274 H 0.18838 0.41936 0.33168 0.0
H275 H 0.15458 0.36911 0.27156 0.0
H276 H 0.16428 0.40246 0.23795 0.0
H277 H 0.1919 0.34383 0.30072 0.0
H278 H 0.11517 0.3958 0.31752 0.0
H279 H 0.08974 0.43654 0.32629 0.0
H280 H 0.13184 0.44775 0.39924 0.0
H281 H 0.15785 0.40728 0.39071 0.0
C282 C 0.16951 0.26597 0.40022 0.0
C283 C 0.18273 0.27291 0.42372 0.0
C284 C 0.16414 0.2851 0.38098 0.0
C285 C 0.17193 0.31145 0.38491 0.0
C286 C 0.18378 0.31872 0.4089 0.0
C287 C 0.18922 0.29963 0.42811 0.0
C288 C 0.16986 0.33102 0.36324 0.0
C289 C 0.15565 0.35451 0.36757 0.0
C290 C 0.18273 0.32695 0.33869 0.0
C291 C 0.19931 0.30327 0.33347 0.0
C292 C 0.22119 0.29748 0.34964 0.0
C293 C 0.23665 0.27505 0.34469 0.0
C294 C 0.23056 0.25839 0.32346 0.0
C295 C 0.20905 0.26418 0.30709 0.0
C296 C 0.1935 0.28657 0.31199 0.0
C297 C 0.18825 0.4349 0.2922 0.0
C298 C 0.18215 0.43032 0.26541 0.0
C299 C 0.18257 0.41581 0.31134 0.0
C300 C 0.17064 0.39184 0.30407 0.0
C301 C 0.16374 0.38753 0.27753 0.0
C302 C 0.16929 0.40665 0.25838 0.0
C303 C 0.16773 0.3704 0.32379 0.0
C304 C 0.18119 0.34655 0.31916 0.0
C305 C 0.15429 0.37426 0.34806 0.0
C306 C 0.13861 0.39857 0.35336 0.0
C307 C 0.11917 0.40705 0.33533 0.0
C308 C 0.10461 0.43008 0.34028 0.0
C309 C 0.1092 0.44475 0.36328 0.0
C310 C 0.12832 0.43637 0.38142 0.0
C311 C 0.14295 0.41336 0.37655 0.0
H312 H 0.09792 0.46257 0.36708 0.0
H313 H 0.24256 0.24104 0.31965 0.0
H314 H 0.59362 0.16823 0.24674 0.0
H315 H 0.62518 0.15746 0.28182 0.0
H316 H 0.57483 0.19582 0.3392 0.0
H317 H 0.54342 0.20697 0.30441 0.0
H318 H 0.62441 0.21387 0.34136 0.0
H319 H 0.58199 0.12864 0.33782 0.0
H320 H 0.56626 0.08793 0.31603 0.0
H321 H 0.64576 0.06833 0.29361 0.0
H322 H 0.66194 0.10914 0.31496 0.0
H323 H 0.688 0.18746 0.45819 0.0
H324 H 0.6538 0.18073 0.42489 0.0
H325 H 0.71179 0.14876 0.371 0.0
H326 H 0.74626 0.15507 0.40445 0.0
H327 H 0.66004 0.12554 0.36579 0.0
H328 H 0.70224 0.21078 0.36695 0.0
H329 H 0.71889 0.25134 0.38835 0.0
H330 H 0.64027 0.27106 0.41367 0.0
H331 H 0.62323 0.23035 0.39278 0.0
C332 C 0.58912 0.17412 0.26687 0.0
C333 C 0.56612 0.18872 0.27271 0.0
C334 C 0.60711 0.16781 0.2869 0.0
C335 C 0.60227 0.17578 0.31308 0.0
C336 C 0.57894 0.18955 0.31908 0.0
C337 C 0.56104 0.19595 0.29913 0.0
C338 C 0.6224 0.1719 0.33393 0.0
C339 C 0.63187 0.19449 0.34692 0.0
C340 C 0.63283 0.1467 0.34049 0.0
C341 C 0.62314 0.12209 0.32776 0.0
C342 C 0.5961 0.11577 0.32806 0.0
C343 C 0.5871 0.09265 0.31582 0.0
C344 C 0.60499 0.07559 0.30338 0.0
C345 C 0.63192 0.08158 0.30323 0.0
C346 C 0.64102 0.10469 0.31541 0.0
C347 C 0.69342 0.17841 0.43949 0.0
C348 C 0.71989 0.17235 0.43368 0.0
C349 C 0.67384 0.17447 0.42056 0.0
C350 C 0.68046 0.16476 0.39539 0.0
C351 C 0.70639 0.15634 0.39033 0.0
C352 C 0.72604 0.16007 0.40942 0.0
C353 C 0.66133 0.16744 0.37349 0.0
C354 C 0.65237 0.14481 0.36019 0.0
C355 C 0.65139 0.19264 0.36637 0.0
C356 C 0.6615 0.2174 0.37852 0.0
C357 C 0.68853 0.22368 0.37723 0.0
C358 C 0.69804 0.2467 0.38926 0.0
C359 C 0.68065 0.26374 0.40241 0.0
C360 C 0.65372 0.25783 0.4035 0.0
C361 C 0.64412 0.23479 0.39156 0.0
H362 H 0.68805 0.28155 0.41172 0.0
H363 H 0.59798 0.0577 0.29392 0.0
H364 H 0.7765 0.69011 0.45135 0.0
H365 H 0.78623 0.65403 0.42087 0.0
H366 H 0.84785 0.70057 0.38475 0.0
H367 H 0.83806 0.73707 0.41499 0.0
H368 H 0.81421 0.68117 0.34874 0.0
H369 H 0.86352 0.64611 0.42104 0.0
H370 H 0.87172 0.63275 0.46728 0.0
H371 H 0.80918 0.57568 0.46242 0.0
H372 H 0.80032 0.58895 0.41626 0.0
H373 H 0.8371 0.57682 0.25929 0.0
H374 H 0.84732 0.60755 0.29518 0.0
H375 H 0.78505 0.5736 0.34253 0.0
H376 H 0.77496 0.54249 0.30704 0.0
H377 H 0.82758 0.58682 0.37275 0.0
H378 H 0.77295 0.62745 0.30522 0.0
H379 H 0.76218 0.64117 0.25959 0.0
H380 H 0.83273 0.68815 0.25656 0.0
H381 H 0.84407 0.67442 0.3021 0.0
C382 C 0.79232 0.69266 0.43714 0.0
C383 C 0.80634 0.71661 0.43548 0.0
C384 C 0.79801 0.67188 0.41987 0.0
C385 C 0.81794 0.67455 0.40076 0.0
C386 C 0.83246 0.69813 0.39947 0.0
C387 C 0.8268 0.71896 0.41674 0.0
C388 C 0.82169 0.65371 0.38055 0.0
C389 C 0.81785 0.66063 0.35393 0.0
C390 C 0.82577 0.62687 0.38747 0.0
C391 C 0.83117 0.61865 0.41519 0.0
C392 C 0.85139 0.63083 0.42987 0.0
C393 C 0.85618 0.62325 0.45607 0.0
C394 C 0.84096 0.60341 0.46779 0.0
C395 C 0.82096 0.59105 0.45331 0.0
C396 C 0.81607 0.59856 0.42711 0.0
C397 C 0.82578 0.57564 0.27746 0.0
C398 C 0.8049 0.55749 0.28012 0.0
C399 C 0.83169 0.59319 0.29794 0.0
C400 C 0.81666 0.59307 0.32129 0.0
C401 C 0.79687 0.57399 0.32463 0.0
C402 C 0.79103 0.55633 0.30424 0.0
C403 C 0.81969 0.61433 0.34114 0.0
C404 C 0.82465 0.60747 0.3676 0.0
C405 C 0.81639 0.64127 0.3342 0.0
C406 C 0.80951 0.64967 0.30691 0.0
C407 C 0.78625 0.64056 0.29474 0.0
C408 C 0.78003 0.64835 0.26891 0.0
C409 C 0.79681 0.66545 0.25515 0.0
C410 C 0.81979 0.67486 0.26723 0.0
C411 C 0.82612 0.66709 0.29304 0.0
H412 H 0.79197 0.67146 0.23516 0.0
H413 H 0.84468 0.59758 0.48808 0.0
H414 H 0.30475 0.77762 0.44681 0.0
H415 H 0.34157 0.78938 0.41811 0.0
H416 H 0.29305 0.84779 0.379 0.0
H417 H 0.25583 0.83591 0.40737 0.0
H418 H 0.31723 0.81661 0.34417 0.0
H419 H 0.34356 0.86703 0.41904 0.0
H420 H 0.35299 0.87569 0.46615 0.0
H421 H 0.41468 0.81723 0.46494 0.0
H422 H 0.40537 0.8079 0.41792 0.0
H423 H 0.42324 0.84528 0.26104 0.0
H424 H 0.39276 0.85628 0.29691 0.0
H425 H 0.42501 0.7928 0.34408 0.0
H426 H 0.45587 0.7819 0.30863 0.0
H427 H 0.40844 0.83561 0.37476 0.0
H428 H 0.37697 0.78121 0.30198 0.0
H429 H 0.36902 0.77358 0.25445 0.0
H430 H 0.31556 0.83965 0.25238 0.0
H431 H 0.32425 0.84852 0.29966 0.0
C432 C 0.30189 0.79312 0.43227 0.0
C433 C 0.27724 0.80569 0.42931 0.0
C434 C 0.32306 0.79997 0.41602 0.0
C435 C 0.32011 0.81968 0.39666 0.0
C436 C 0.29572 0.8326 0.39391 0.0
C437 C 0.27449 0.82574 0.41014 0.0
C438 C 0.34189 0.82511 0.37792 0.0
C439 C 0.33703 0.82143 0.35083 0.0
C440 C 0.36778 0.83097 0.38669 0.0
C441 C 0.37365 0.83666 0.41495 0.0
C442 C 0.35903 0.85588 0.42885 0.0
C443 C 0.36437 0.86093 0.45554 0.0
C444 C 0.38439 0.84699 0.46854 0.0
C445 C 0.39917 0.82801 0.45485 0.0
C446 C 0.3939 0.82287 0.42815 0.0
C447 C 0.42425 0.83399 0.27925 0.0
C448 C 0.44149 0.81224 0.28172 0.0
C449 C 0.40693 0.84044 0.29977 0.0
C450 C 0.40635 0.82501 0.32285 0.0
C451 C 0.42514 0.80488 0.32635 0.0
C452 C 0.44262 0.79854 0.30594 0.0
C453 C 0.38374 0.82673 0.34125 0.0
C454 C 0.38847 0.83151 0.36819 0.0
C455 C 0.35766 0.82184 0.3324 0.0
C456 C 0.35155 0.81577 0.30428 0.0
C457 C 0.3637 0.79426 0.29135 0.0
C458 C 0.35913 0.78977 0.26443 0.0
C459 C 0.34178 0.8061 0.2504 0.0
C460 C 0.32904 0.82704 0.26326 0.0
C461 C 0.3339 0.83192 0.29009 0.0
H462 H 0.33815 0.80247 0.22959 0.0
H463 H 0.38849 0.85092 0.48921 0.0
H464 H 0.20988 0.69025 0.53742 0.0
H465 H 0.19737 0.65531 0.56824 0.0
H466 H 0.14767 0.71026 0.61078 0.0
H467 H 0.16026 0.7455 0.58025 0.0
H468 H 0.18139 0.68553 0.64302 0.0
H469 H 0.12034 0.6595 0.57647 0.0
H470 H 0.10534 0.64815 0.53144 0.0
H471 H 0.15832 0.58168 0.52993 0.0
H472 H 0.17398 0.59285 0.5748 0.0
H473 H 0.15239 0.58549 0.73509 0.0
H474 H 0.14239 0.61694 0.69972 0.0
H475 H 0.19557 0.57536 0.64741 0.0
H476 H 0.2055 0.54364 0.68241 0.0
H477 H 0.15167 0.59459 0.62101 0.0
H478 H 0.21816 0.62588 0.68264 0.0
H479 H 0.23514 0.63741 0.72695 0.0
H480 H 0.17287 0.69449 0.73653 0.0
H481 H 0.15531 0.683 0.69239 0.0
C482 C 0.19601 0.69489 0.55309 0.0
C483 C 0.18633 0.72079 0.55652 0.0
C484 C 0.18871 0.67481 0.57058 0.0
C485 C 0.17146 0.68018 0.59168 0.0
C486 C 0.16099 0.70573 0.59459 0.0
C487 C 0.16827 0.72584 0.57712 0.0
C488 C 0.16674 0.65988 0.61225 0.0
C489 C 0.17421 0.66586 0.63831 0.0
C490 C 0.15795 0.63406 0.60594 0.0
C491 C 0.14846 0.62712 0.57899 0.0
C492 C 0.12894 0.64257 0.56648 0.0
C493 C 0.1203 0.63615 0.54099 0.0
C494 C 0.1309 0.61424 0.52782 0.0
C495 C 0.15013 0.59865 0.54016 0.0
C496 C 0.15887 0.605 0.56564 0.0
C497 C 0.16164 0.58273 0.71594 0.0
C498 C 0.18016 0.56232 0.71177 0.0
C499 C 0.15585 0.6007 0.69575 0.0
C500 C 0.16855 0.59865 0.67113 0.0
C501 C 0.18559 0.57728 0.6663 0.0
C502 C 0.19139 0.55928 0.68644 0.0
C503 C 0.16665 0.62028 0.65152 0.0
C504 C 0.15814 0.6145 0.62571 0.0
C505 C 0.17462 0.64633 0.65793 0.0
C506 C 0.18524 0.65335 0.68439 0.0
C507 C 0.20798 0.64074 0.69429 0.0
C508 C 0.21772 0.64728 0.71935 0.0
C509 C 0.20504 0.66661 0.73458 0.0
C510 C 0.18263 0.67948 0.72474 0.0
C511 C 0.17278 0.67296 0.69971 0.0
H512 H 0.21262 0.67166 0.75397 0.0
H513 H 0.12418 0.60931 0.50808 0.0
H514 H 0.24601 0.18379 0.59202 0.0
H515 H 0.28184 0.17941 0.62408 0.0
H516 H 0.33545 0.21703 0.56949 0.0
H517 H 0.2997 0.22161 0.53717 0.0
H518 H 0.35693 0.1718 0.59422 0.0
H519 H 0.32003 0.25645 0.62184 0.0
H520 H 0.28501 0.28817 0.63413 0.0
H521 H 0.25532 0.23354 0.69203 0.0
H522 H 0.29096 0.20193 0.6808 0.0
H523 H 0.45535 0.21276 0.68837 0.0
H524 H 0.42276 0.2082 0.65295 0.0
H525 H 0.36866 0.17123 0.70752 0.0
H526 H 0.40095 0.17563 0.74304 0.0
H527 H 0.34783 0.21492 0.6821 0.0
H528 H 0.3946 0.13535 0.65931 0.0
H529 H 0.43373 0.10847 0.64804 0.0
H530 H 0.44694 0.15601 0.57882 0.0
H531 H 0.40809 0.18344 0.58988 0.0
C532 C 0.26543 0.19099 0.5867 0.0
C533 C 0.26996 0.20312 0.56204 0.0
C534 C 0.28584 0.18859 0.60511 0.0
C535 C 0.31116 0.19811 0.59918 0.0
C536 C 0.31599 0.20962 0.57439 0.0
C537 C 0.29552 0.21226 0.55602 0.0
C538 C 0.33243 0.1963 0.61911 0.0
C539 C 0.35515 0.1814 0.61336 0.0
C540 C 0.32986 0.20853 0.64412 0.0
C541 C 0.30783 0.22678 0.65026 0.0
C542 C 0.30587 0.25116 0.63704 0.0
C543 C 0.28601 0.26915 0.64389 0.0
C544 C 0.26767 0.26273 0.66354 0.0
C545 C 0.26943 0.23843 0.67669 0.0
C546 C 0.28959 0.22057 0.67026 0.0
C547 C 0.43669 0.20325 0.69277 0.0
C548 C 0.43067 0.19482 0.71864 0.0
C549 C 0.41817 0.20055 0.67246 0.0
C550 C 0.39337 0.18938 0.67769 0.0
C551 C 0.38774 0.1799 0.70315 0.0
C552 C 0.40626 0.18243 0.72341 0.0
C553 C 0.37234 0.19013 0.65745 0.0
C554 C 0.34963 0.20501 0.6631 0.0
C555 C 0.37522 0.17811 0.6323 0.0
C556 C 0.39857 0.16162 0.62557 0.0
C557 C 0.40598 0.14023 0.64181 0.0
C558 C 0.42809 0.12486 0.63543 0.0
C559 C 0.44285 0.13057 0.61276 0.0
C560 C 0.4355 0.15163 0.59639 0.0
C561 C 0.41342 0.16708 0.60269 0.0
H562 H 0.45995 0.11864 0.60786 0.0
H563 H 0.25221 0.27665 0.6687 0.0
H564 H 0.81105 0.455 0.69784 0.0
H565 H 0.81814 0.42405 0.66113 0.0
H566 H 0.79129 0.35968 0.71062 0.0
H567 H 0.78638 0.39031 0.74779 0.0
H568 H 0.82669 0.34142 0.68173 0.0
H569 H 0.7501 0.39544 0.66303 0.0
H570 H 0.72605 0.43743 0.6562 0.0
H571 H 0.77751 0.4569 0.59146 0.0
H572 H 0.802 0.41509 0.59807 0.0
H573 H 0.7537 0.28438 0.5602 0.0
H574 H 0.75964 0.31984 0.59235 0.0
H575 H 0.84319 0.30275 0.59573 0.0
H576 H 0.83705 0.2662 0.56451 0.0
H577 H 0.78373 0.36349 0.59622 0.0
H578 H 0.86665 0.31364 0.65714 0.0
H579 H 0.88371 0.26889 0.66699 0.0
H580 H 0.80694 0.23597 0.65234 0.0
H581 H 0.78939 0.28054 0.64273 0.0
C582 C 0.80711 0.43413 0.70082 0.0
C583 C 0.79813 0.42487 0.7254 0.0
C584 C 0.81094 0.4165 0.67985 0.0
C585 C 0.8046 0.38958 0.68282 0.0
C586 C 0.79636 0.3803 0.70775 0.0
C587 C 0.79346 0.39777 0.72896 0.0
C588 C 0.80529 0.37118 0.65985 0.0
C589 C 0.81738 0.34634 0.66301 0.0
C590 C 0.79291 0.37735 0.63543 0.0
C591 C 0.77803 0.40231 0.63121 0.0
C592 C 0.75634 0.40874 0.64741 0.0
C593 C 0.74263 0.43249 0.64357 0.0
C594 C 0.75029 0.44985 0.62345 0.0
C595 C 0.77162 0.44344 0.60705 0.0
C596 C 0.7854 0.41972 0.61081 0.0
C597 C 0.77339 0.28834 0.56759 0.0
C598 C 0.79487 0.27236 0.56011 0.0
C599 C 0.77679 0.30868 0.58593 0.0
C600 C 0.80179 0.31371 0.59686 0.0
C601 C 0.82359 0.29882 0.58812 0.0
C602 C 0.8201 0.27803 0.5702 0.0
C603 C 0.80448 0.33351 0.6184 0.0
C604 C 0.79325 0.3587 0.61487 0.0
C605 C 0.81655 0.32721 0.64292 0.0
C606 C 0.82684 0.30036 0.6489 0.0
C607 C 0.85343 0.29684 0.65609 0.0
C608 C 0.86317 0.27152 0.66162 0.0
C609 C 0.84645 0.24959 0.66019 0.0
C610 C 0.81991 0.25295 0.65334 0.0
C611 C 0.81006 0.27823 0.64783 0.0
H612 H 0.85403 0.23 0.66446 0.0
H613 H 0.73968 0.46824 0.62053 0.0
H614 H 0.69414 0.77907 0.54867 0.0
H615 H 0.65991 0.7884 0.58121 0.0
H616 H 0.71394 0.83792 0.62479 0.0
H617 H 0.74866 0.82834 0.59246 0.0
H618 H 0.69033 0.80301 0.6565 0.0
H619 H 0.6616 0.86518 0.59183 0.0
H620 H 0.64945 0.88108 0.5473 0.0
H621 H 0.58543 0.82552 0.54448 0.0
H622 H 0.59742 0.80901 0.58886 0.0
H623 H 0.58825 0.83159 0.74847 0.0
H624 H 0.62121 0.83966 0.71406 0.0
H625 H 0.58024 0.7863 0.66162 0.0
H626 H 0.54705 0.77824 0.69569 0.0
H627 H 0.59851 0.83057 0.63567 0.0
H628 H 0.63162 0.7645 0.69704 0.0
H629 H 0.6443 0.74761 0.74111 0.0
H630 H 0.70056 0.81052 0.74948 0.0
H631 H 0.68798 0.82801 0.70561 0.0
C632 C 0.69877 0.7922 0.56497 0.0
C633 C 0.72426 0.80281 0.568 0.0
C634 C 0.67906 0.79767 0.58349 0.0
C635 C 0.6843 0.81406 0.60529 0.0
C636 C 0.70949 0.82527 0.60805 0.0
C637 C 0.72928 0.81979 0.58952 0.0
C638 C 0.66407 0.81756 0.6262 0.0
C639 C 0.67042 0.80967 0.65207 0.0
C640 C 0.63797 0.82573 0.62028 0.0
C641 C 0.63052 0.83574 0.59364 0.0
C642 C 0.64503 0.85622 0.58166 0.0
C643 C 0.63816 0.86537 0.55644 0.0
C644 C 0.61671 0.85429 0.54305 0.0
C645 C 0.60205 0.83409 0.55488 0.0
C646 C 0.60884 0.82486 0.58009 0.0
C647 C 0.58603 0.82178 0.72952 0.0
C648 C 0.56513 0.80401 0.72498 0.0
C649 C 0.60492 0.82641 0.70991 0.0
C650 C 0.60329 0.81333 0.68546 0.0
C651 C 0.58183 0.79657 0.68039 0.0
C652 C 0.56296 0.79189 0.69997 0.0
C653 C 0.62476 0.81563 0.66572 0.0
C654 C 0.61859 0.82449 0.64012 0.0
C655 C 0.65105 0.80832 0.67185 0.0
C656 C 0.65863 0.79776 0.6982 0.0
C657 C 0.64653 0.77487 0.70837 0.0
C658 C 0.65373 0.76515 0.73329 0.0
C659 C 0.67315 0.77803 0.7481 0.0
C660 C 0.68548 0.8006 0.738 0.0
C661 C 0.67833 0.81042 0.71312 0.0
H662 H 0.67869 0.77047 0.76738 0.0
H663 H 0.61143 0.86139 0.52353 0.0
H664 H 0.4084 0.16494 0.25616 0.0
H665 H 0.3773 0.15859 0.29267 0.0
H666 H 0.4289 0.20204 0.3448 0.0
H667 H 0.46003 0.20866 0.30858 0.0
H668 H 0.37887 0.13851 0.34558 0.0
H669 H 0.39037 0.24763 0.37623 0.0
H670 H 0.4043 0.29021 0.35679 0.0
H671 H 0.38039 0.26347 0.27971 0.0
H672 H 0.36595 0.22093 0.29876 0.0
H673 H 0.30128 0.21788 0.45534 0.0
H674 H 0.33932 0.20946 0.42697 0.0
H675 H 0.29205 0.15823 0.3778 0.0
H676 H 0.25385 0.16623 0.4063 0.0
H677 H 0.34149 0.22395 0.37668 0.0
H678 H 0.33349 0.11312 0.34626 0.0
H679 H 0.32139 0.07005 0.36577 0.0
H680 H 0.33828 0.09989 0.44355 0.0
H681 H 0.35088 0.143 0.42452 0.0
C682 C 0.41341 0.17272 0.2755 0.0
C683 C 0.43646 0.18779 0.2793 0.0
C684 C 0.39566 0.16894 0.29635 0.0
C685 C 0.40069 0.18021 0.32121 0.0
C686 C 0.42458 0.19348 0.3256 0.0
C687 C 0.4423 0.1973 0.30483 0.0
C688 C 0.37977 0.18091 0.34156 0.0
C689 C 0.37044 0.1571 0.3523 0.0
C690 C 0.36926 0.20527 0.35051 0.0
C691 C 0.37738 0.23099 0.33889 0.0
C692 C 0.388 0.25089 0.35515 0.0
C693 C 0.39598 0.27501 0.3442 0.0
C694 C 0.39331 0.2795 0.31702 0.0
C695 C 0.38254 0.25993 0.30074 0.0
C696 C 0.37448 0.2358 0.31161 0.0
C697 C 0.29898 0.20454 0.4387 0.0
C698 C 0.27439 0.193 0.4329 0.0
C699 C 0.3208 0.19971 0.42255 0.0
C700 C 0.31852 0.18322 0.40032 0.0
C701 C 0.29433 0.17075 0.39507 0.0
C702 C 0.27246 0.17551 0.41129 0.0
C703 C 0.34054 0.1815 0.38113 0.0
C704 C 0.34996 0.20525 0.3703 0.0
C705 C 0.35102 0.15707 0.37221 0.0
C706 C 0.34291 0.1314 0.38394 0.0
C707 C 0.33466 0.11049 0.36752 0.0
C708 C 0.32775 0.08606 0.3785 0.0
C709 C 0.32913 0.08224 0.40586 0.0
C710 C 0.33722 0.1029 0.42235 0.0
C711 C 0.34418 0.12737 0.41148 0.0
H712 H 0.32397 0.06324 0.41429 0.0
H713 H 0.39954 0.29817 0.30857 0.0
H714 H 0.82304 0.39973 0.25024 0.0
H715 H 0.82948 0.36623 0.28451 0.0
H716 H 0.78891 0.41581 0.34102 0.0
H717 H 0.78248 0.44955 0.30702 0.0
H718 H 0.83191 0.38903 0.36306 0.0
H719 H 0.75493 0.37054 0.30969 0.0
H720 H 0.73101 0.36285 0.26784 0.0
H721 H 0.78058 0.29576 0.25125 0.0
H722 H 0.80507 0.30332 0.29284 0.0
H723 H 0.77739 0.29603 0.45361 0.0
H724 H 0.78568 0.33107 0.42132 0.0
H725 H 0.82447 0.2749 0.36994 0.0
H726 H 0.81629 0.23971 0.40196 0.0
H727 H 0.78667 0.30395 0.34445 0.0
H728 H 0.86076 0.31974 0.40053 0.0
H729 H 0.88393 0.32727 0.4428 0.0
H730 H 0.83963 0.39885 0.45493 0.0
H731 H 0.81589 0.39155 0.4129 0.0
C732 C 0.81583 0.40375 0.27004 0.0
C733 C 0.80186 0.42717 0.27577 0.0
C734 C 0.81954 0.38456 0.28958 0.0
C735 C 0.80935 0.38847 0.31513 0.0
C736 C 0.79687 0.41246 0.32137 0.0
C737 C 0.79308 0.43163 0.30185 0.0
C738 C 0.80946 0.36667 0.33461 0.0
C739 C 0.82193 0.37046 0.35912 0.0
C740 C 0.7968 0.34233 0.32915 0.0
C741 C 0.78203 0.33769 0.3042 0.0
C742 C 0.76087 0.35429 0.297 0.0
C743 C 0.74719 0.34993 0.27335 0.0
C744 C 0.75432 0.32888 0.25686 0.0
C745 C 0.77512 0.3121 0.26402 0.0
C746 C 0.7889 0.3164 0.28762 0.0
C747 C 0.78786 0.29113 0.43554 0.0
C748 C 0.79607 0.26502 0.43034 0.0
C749 C 0.79272 0.31121 0.4172 0.0
C750 C 0.80583 0.30554 0.39337 0.0
C751 C 0.81437 0.27963 0.38827 0.0
C752 C 0.80968 0.25957 0.40664 0.0
C753 C 0.80905 0.32628 0.37302 0.0
C754 C 0.79703 0.32234 0.34833 0.0
C755 C 0.82208 0.35043 0.37839 0.0
C756 C 0.83637 0.35497 0.40365 0.0
C757 C 0.85579 0.33698 0.41231 0.0
C758 C 0.86907 0.34122 0.43621 0.0
C759 C 0.86322 0.36349 0.45157 0.0
C760 C 0.84412 0.38159 0.44302 0.0
C761 C 0.83077 0.37743 0.41914 0.0
H762 H 0.87351 0.36675 0.47007 0.0
H763 H 0.7437 0.32553 0.23856 0.0
H764 H 0.56828 0.84378 0.26888 0.0
H765 H 0.59829 0.85234 0.30612 0.0
H766 H 0.60391 0.76819 0.32062 0.0
H767 H 0.57273 0.75995 0.2849 0.0
H768 H 0.60052 0.78999 0.36454 0.0
H769 H 0.65341 0.80812 0.28649 0.0
H770 H 0.66429 0.83103 0.24474 0.0
H771 H 0.66501 0.90566 0.28548 0.0
H772 H 0.65388 0.88319 0.32744 0.0
H773 H 0.74797 0.79881 0.39972 0.0
H774 H 0.7123 0.80702 0.36841 0.0
H775 H 0.65895 0.82258 0.43343 0.0
H776 H 0.6944 0.81232 0.46491 0.0
H777 H 0.68204 0.84308 0.35343 0.0
H778 H 0.59761 0.8038 0.41854 0.0
H779 H 0.59055 0.77402 0.45666 0.0
H780 H 0.6596 0.72936 0.43517 0.0
H781 H 0.66688 0.75872 0.39681 0.0
C782 C 0.57602 0.82724 0.28015 0.0
C783 C 0.5683 0.80124 0.27419 0.0
C784 C 0.59319 0.83209 0.30133 0.0
C785 C 0.60361 0.8109 0.31613 0.0
C786 C 0.59599 0.78494 0.30979 0.0
C787 C 0.57829 0.78019 0.28928 0.0
C788 C 0.6226 0.81519 0.33814 0.0
C789 C 0.61828 0.80173 0.36209 0.0
C790 C 0.64579 0.83053 0.33515 0.0
C791 C 0.6525 0.84404 0.30999 0.0
C792 C 0.65573 0.82944 0.28649 0.0
C793 C 0.66196 0.84233 0.26281 0.0
C794 C 0.66525 0.86979 0.26244 0.0
C795 C 0.6624 0.8844 0.28578 0.0
C796 C 0.65614 0.8716 0.30952 0.0
C797 C 0.72866 0.80417 0.4073 0.0
C798 C 0.72374 0.80458 0.43464 0.0
C799 C 0.70828 0.80902 0.3894 0.0
C800 C 0.68272 0.81498 0.39848 0.0
C801 C 0.67828 0.81727 0.4259 0.0
C802 C 0.6985 0.81152 0.44387 0.0
C803 C 0.66065 0.8166 0.37914 0.0
C804 C 0.66413 0.83157 0.35594 0.0
C805 C 0.63728 0.80155 0.38223 0.0
C806 C 0.63295 0.78365 0.40507 0.0
C807 C 0.61123 0.78759 0.42196 0.0
C808 C 0.6072 0.7708 0.44359 0.0
C809 C 0.62468 0.74988 0.4484 0.0
C810 C 0.64614 0.74563 0.4315 0.0
C811 C 0.65024 0.76234 0.40982 0.0
H812 H 0.62154 0.73692 0.46517 0.0
H813 H 0.67008 0.87974 0.24409 0.0
H814 H 0.16526 0.74725 0.3996 0.0
H815 H 0.15604 0.71181 0.36783 0.0
H816 H 0.19862 0.65644 0.41696 0.0
H817 H 0.20803 0.69149 0.44864 0.0
H818 H 0.21642 0.65691 0.36628 0.0
H819 H 0.13283 0.65239 0.41127 0.0
H820 H 0.09101 0.67031 0.42884 0.0
H821 H 0.06697 0.69222 0.35027 0.0
H822 H 0.10887 0.67481 0.33227 0.0
H823 H 0.19689 0.53871 0.30064 0.0
H824 H 0.18997 0.57132 0.33554 0.0
H825 H 0.15181 0.62354 0.27983 0.0
H826 H 0.15844 0.5909 0.2446 0.0
H827 H 0.12984 0.62572 0.33244 0.0
H828 H 0.21342 0.63254 0.28776 0.0
H829 H 0.25523 0.61525 0.2695 0.0
H830 H 0.2793 0.59046 0.34721 0.0
H831 H 0.2374 0.60723 0.36586 0.0
C832 C 0.17234 0.72746 0.40384 0.0
C833 C 0.18767 0.72233 0.42654 0.0
C834 C 0.16696 0.70721 0.38571 0.0
C835 C 0.1767 0.68154 0.39006 0.0
C836 C 0.19103 0.67616 0.4132 0.0
C837 C 0.19639 0.69628 0.43128 0.0
C838 C 0.17414 0.66075 0.36956 0.0
C839 C 0.19746 0.64986 0.3592 0.0
C840 C 0.1494 0.65221 0.35968 0.0
C841 C 0.12413 0.66255 0.37045 0.0
C842 C 0.11874 0.66125 0.39776 0.0
C843 C 0.095 0.67127 0.4078 0.0
C844 C 0.07638 0.68246 0.39069 0.0
C845 C 0.08144 0.68358 0.3635 0.0
C846 C 0.10517 0.67362 0.35337 0.0
C847 C 0.18656 0.55688 0.29581 0.0
C848 C 0.17873 0.56241 0.26966 0.0
C849 C 0.18255 0.57546 0.31584 0.0
C850 C 0.1708 0.59997 0.31011 0.0
C851 C 0.16097 0.60473 0.28459 0.0
C852 C 0.16491 0.58608 0.26447 0.0
C853 C 0.17211 0.62163 0.32977 0.0
C854 C 0.14871 0.63279 0.33971 0.0
C855 C 0.19679 0.63068 0.33925 0.0
C856 C 0.22217 0.62091 0.32816 0.0
C857 C 0.22755 0.62323 0.30092 0.0
C858 C 0.25127 0.61355 0.2905 0.0
C859 C 0.26988 0.60171 0.30717 0.0
C860 C 0.26484 0.59961 0.33431 0.0
C861 C 0.24112 0.60921 0.34482 0.0
H862 H 0.28823 0.59422 0.29907 0.0
H863 H 0.05801 0.69022 0.3985 0.0
H864 H 0.25722 0.82554 0.58489 0.0
H865 H 0.29394 0.83085 0.61576 0.0
H866 H 0.34294 0.78147 0.56616 0.0
H867 H 0.30633 0.77574 0.53533 0.0
H868 H 0.34366 0.76501 0.61621 0.0
H869 H 0.35475 0.84739 0.57141 0.0
H870 H 0.34106 0.89044 0.55291 0.0
H871 H 0.31986 0.91765 0.63066 0.0
H872 H 0.33306 0.87459 0.64961 0.0
H873 H 0.45955 0.77974 0.69052 0.0
H874 H 0.42926 0.78508 0.65336 0.0
H875 H 0.37578 0.8294 0.70303 0.0
H876 H 0.40607 0.82443 0.74041 0.0
H877 H 0.37909 0.8495 0.65147 0.0
H878 H 0.3659 0.76539 0.69528 0.0
H879 H 0.38016 0.72214 0.71305 0.0
H880 H 0.4058 0.69819 0.63562 0.0
H881 H 0.39216 0.74144 0.61743 0.0
C882 C 0.27589 0.81606 0.58034 0.0
C883 C 0.27872 0.8 0.55773 0.0
C884 C 0.29691 0.81924 0.59796 0.0
C885 C 0.32117 0.80662 0.59319 0.0
C886 C 0.32434 0.79133 0.57022 0.0
C887 C 0.30336 0.78809 0.55262 0.0
C888 C 0.34253 0.80756 0.61318 0.0
C889 C 0.35173 0.78349 0.62356 0.0
C890 C 0.35257 0.83169 0.62319 0.0
C891 C 0.34467 0.85766 0.6119 0.0
C892 C 0.34696 0.86247 0.58455 0.0
C893 C 0.33933 0.88689 0.57398 0.0
C894 C 0.32953 0.90675 0.59059 0.0
C895 C 0.32742 0.90224 0.61782 0.0
C896 C 0.335 0.87784 0.62848 0.0
C897 C 0.44152 0.79092 0.69355 0.0
C898 C 0.43506 0.80131 0.7186 0.0
C899 C 0.42426 0.79396 0.67225 0.0
C900 C 0.40015 0.80725 0.67563 0.0
C901 C 0.3943 0.819 0.70011 0.0
C902 C 0.4116 0.81604 0.72146 0.0
C903 C 0.38016 0.80697 0.65431 0.0
C904 C 0.37112 0.83108 0.64387 0.0
C905 C 0.37026 0.78287 0.64411 0.0
C906 C 0.37826 0.75676 0.65504 0.0
C907 C 0.37477 0.75098 0.68207 0.0
C908 C 0.38271 0.72646 0.69222 0.0
C909 C 0.39391 0.70748 0.67549 0.0
C910 C 0.39715 0.71293 0.64856 0.0
C911 C 0.38932 0.73744 0.63832 0.0
H912 H 0.40003 0.68851 0.68339 0.0
H913 H 0.32363 0.92565 0.58237 0.0
H914 H 0.19192 0.30927 0.52851 0.0
H915 H 0.18301 0.34521 0.5595 0.0
H916 H 0.14825 0.28991 0.61435 0.0
H917 H 0.15684 0.25369 0.58337 0.0
H918 H 0.12571 0.34384 0.61569 0.0
H919 H 0.20866 0.29638 0.61914 0.0
H920 H 0.24788 0.27738 0.59731 0.0
H921 H 0.27295 0.35515 0.57411 0.0
H922 H 0.2331 0.37452 0.59468 0.0
H923 H 0.16409 0.40636 0.73767 0.0
H924 H 0.15441 0.37575 0.70143 0.0
H925 H 0.19852 0.42502 0.64755 0.0
H926 H 0.2085 0.45556 0.68347 0.0
H927 H 0.21414 0.37407 0.64549 0.0
H928 H 0.13242 0.42217 0.64356 0.0
H929 H 0.09178 0.44124 0.66266 0.0
H930 H 0.06483 0.36346 0.68357 0.0
H931 H 0.10552 0.34393 0.66494 0.0
C932 C 0.18179 0.30476 0.54686 0.0
C933 C 0.1758 0.2785 0.55383 0.0
C934 C 0.1765 0.32539 0.56442 0.0
C935 C 0.16539 0.32004 0.5893 0.0
C936 C 0.15685 0.29435 0.5952 0.0
C937 C 0.16202 0.27366 0.57756 0.0
C938 C 0.16776 0.33982 0.61067 0.0
C939 C 0.14496 0.35038 0.62243 0.0
C940 C 0.19298 0.34831 0.61921 0.0
C941 C 0.21771 0.33687 0.60816 0.0
C942 C 0.22239 0.30942 0.60917 0.0
C943 C 0.24467 0.29857 0.59691 0.0
C944 C 0.26289 0.31504 0.58431 0.0
C945 C 0.2588 0.34241 0.58386 0.0
C946 C 0.23628 0.35333 0.59569 0.0
C947 C 0.17153 0.41083 0.71807 0.0
C948 C 0.18729 0.43331 0.71356 0.0
C949 C 0.16585 0.39338 0.69736 0.0
C950 C 0.17571 0.39821 0.67184 0.0
C951 C 0.19079 0.42096 0.66715 0.0
C952 C 0.19647 0.43838 0.68775 0.0
C953 C 0.17206 0.37863 0.65041 0.0
C954 C 0.19478 0.36779 0.63876 0.0
C955 C 0.14679 0.36996 0.64213 0.0
C956 C 0.12216 0.38161 0.65309 0.0
C957 C 0.11793 0.40914 0.65242 0.0
C958 C 0.09487 0.42003 0.66313 0.0
C959 C 0.07577 0.40358 0.67439 0.0
C960 C 0.07966 0.37618 0.67487 0.0
C961 C 0.10271 0.36519 0.66422 0.0
H962 H 0.05794 0.41206 0.6827 0.0
H963 H 0.28022 0.3066 0.57498 0.0
H964 H 0.56015 0.14791 0.7285 0.0
H965 H 0.58993 0.13721 0.69158 0.0
H966 H 0.59809 0.22066 0.67462 0.0
H967 H 0.56714 0.23105 0.71 0.0
H968 H 0.595 0.19755 0.63136 0.0
H969 H 0.64557 0.18022 0.71144 0.0
H970 H 0.65473 0.15797 0.75398 0.0
H971 H 0.65476 0.08243 0.71494 0.0
H972 H 0.64533 0.10424 0.67221 0.0
H973 H 0.74255 0.18792 0.60037 0.0
H974 H 0.70636 0.17981 0.63115 0.0
H975 H 0.65495 0.16107 0.56553 0.0
H976 H 0.69084 0.17085 0.53453 0.0
H977 H 0.67542 0.14334 0.6463 0.0
H978 H 0.59355 0.18274 0.57763 0.0
H979 H 0.58824 0.21188 0.53871 0.0
H980 H 0.65744 0.25537 0.5614 0.0
H981 H 0.66295 0.22668 0.60057 0.0
C982 C 0.56829 0.16382 0.71669 0.0
C983 C 0.56144 0.19026 0.72193 0.0
C984 C 0.58535 0.15775 0.69571 0.0
C985 C 0.59653 0.17814 0.68042 0.0
C986 C 0.58958 0.20452 0.68587 0.0
C987 C 0.57199 0.21049 0.70618 0.0
C988 C 0.6159 0.17261 0.65902 0.0
C989 C 0.61248 0.18551 0.63462 0.0
C990 C 0.63874 0.1569 0.66311 0.0
C991 C 0.64443 0.14381 0.68874 0.0
C992 C 0.64737 0.15885 0.71199 0.0
C993 C 0.65263 0.14633 0.73611 0.0
C994 C 0.65523 0.1188 0.73718 0.0
C995 C 0.65267 0.10374 0.7141 0.0
C996 C 0.64738 0.11617 0.68992 0.0
C997 C 0.7236 0.1818 0.59254 0.0
C998 C 0.71928 0.18044 0.56513 0.0
C999 C 0.70294 0.17701 0.61015 0.0
C1000 C 0.67775 0.1703 0.60066 0.0
C1001 C 0.67401 0.1669 0.57329 0.0
C1002 C 0.69449 0.17243 0.55562 0.0
C1003 C 0.65514 0.16949 0.61934 0.0
C1004 C 0.65773 0.15504 0.64296 0.0
C1005 C 0.6321 0.18486 0.61512 0.0
C1006 C 0.62884 0.20235 0.59176 0.0
C1007 C 0.60759 0.19855 0.57429 0.0
C1008 C 0.60455 0.21498 0.55221 0.0
C1009 C 0.62256 0.23539 0.54753 0.0
C1010 C 0.64357 0.2395 0.56499 0.0
C1011 C 0.64666 0.22315 0.58711 0.0
H1012 H 0.62018 0.24807 0.53041 0.0
H1013 H 0.65931 0.10914 0.75587 0.0
H1014 H 0.775 0.53786 0.69259 0.0
H1015 H 0.78447 0.56808 0.65622 0.0
H1016 H 0.84492 0.60577 0.70308 0.0
H1017 H 0.83537 0.57587 0.73981 0.0
H1018 H 0.81 0.64072 0.68414 0.0
H1019 H 0.86122 0.56963 0.64826 0.0
H1020 H 0.86986 0.52363 0.63434 0.0
H1021 H 0.80739 0.5288 0.57706 0.0
H1022 H 0.79812 0.57474 0.59087 0.0
H1023 H 0.83681 0.73226 0.58353 0.0
H1024 H 0.84524 0.69533 0.61354 0.0
H1025 H 0.78419 0.6499 0.57513 0.0
H1026 H 0.77588 0.68649 0.54469 0.0
H1027 H 0.82564 0.61862 0.58964 0.0
H1028 H 0.76978 0.68511 0.62937 0.0
H1029 H 0.75789 0.73024 0.64379 0.0
H1030 H 0.82603 0.73244 0.69438 0.0
H1031 H 0.83853 0.68741 0.67995 0.0
C1032 C 0.79058 0.55231 0.69509 0.0
C1033 C 0.8042 0.55464 0.71926 0.0
C1034 C 0.79611 0.56944 0.67417 0.0
C1035 C 0.8155 0.58904 0.67693 0.0
C1036 C 0.82989 0.59073 0.70059 0.0
C1037 C 0.82436 0.57364 0.72156 0.0
C1038 C 0.81863 0.60954 0.65629 0.0
C1039 C 0.8141 0.63594 0.66359 0.0
C1040 C 0.82312 0.60313 0.62937 0.0
C1041 C 0.82887 0.57561 0.62074 0.0
C1042 C 0.84921 0.56092 0.63281 0.0
C1043 C 0.85424 0.53486 0.62492 0.0
C1044 C 0.83915 0.52329 0.60486 0.0
C1045 C 0.81906 0.53779 0.59259 0.0
C1046 C 0.81395 0.56386 0.60042 0.0
C1047 C 0.82536 0.71432 0.58122 0.0
C1048 C 0.80533 0.71252 0.56201 0.0
C1049 C 0.83026 0.69322 0.59836 0.0
C1050 C 0.81503 0.67011 0.59678 0.0
C1051 C 0.79612 0.66762 0.57666 0.0
C1052 C 0.79131 0.68864 0.55939 0.0
C1053 C 0.81695 0.64965 0.6176 0.0
C1054 C 0.82218 0.62335 0.61032 0.0
C1055 C 0.81278 0.65601 0.64458 0.0
C1056 C 0.80526 0.68304 0.65334 0.0
C1057 C 0.78234 0.6953 0.6434 0.0
C1058 C 0.77548 0.72085 0.6516 0.0
C1059 C 0.79125 0.73423 0.66992 0.0
C1060 C 0.81387 0.72207 0.68014 0.0
C1061 C 0.82086 0.69654 0.67197 0.0
H1062 H 0.78589 0.754 0.67626 0.0
H1063 H 0.84305 0.50309 0.59881 0.0
H1064 H 0.40962 0.25557 0.16523 0.0
H1065 H 0.37788 0.2916 0.15852 0.0
H1066 H 0.41597 0.33697 0.21992 0.0
H1067 H 0.44766 0.30131 0.22683 0.0
H1068 H 0.36241 0.33224 0.22713 0.0
H1069 H 0.42307 0.35505 0.15762 0.0
H1070 H 0.44961 0.3473 0.1174 0.0
H1071 H 0.37902 0.33124 0.07314 0.0
H1072 H 0.35206 0.33847 0.11324 0.0
H1073 H 0.29906 0.45411 0.2178 0.0
H1074 H 0.3346 0.42176 0.21366 0.0
H1075 H 0.29043 0.37997 0.15387 0.0
H1076 H 0.2546 0.41232 0.15773 0.0
H1077 H 0.34582 0.38185 0.14389 0.0
H1078 H 0.28531 0.35825 0.21304 0.0
H1079 H 0.25841 0.36585 0.25306 0.0
H1080 H 0.32857 0.38236 0.29783 0.0
H1081 H 0.35587 0.37528 0.25794 0.0
C1082 C 0.4114 0.27331 0.17714 0.0
C1083 C 0.4311 0.27546 0.19669 0.0
C1084 C 0.39333 0.2939 0.17318 0.0
C1085 C 0.39467 0.31689 0.18872 0.0
C1086 C 0.41464 0.31934 0.20777 0.0
C1087 C 0.43276 0.29892 0.21163 0.0
C1088 C 0.37428 0.33773 0.18652 0.0
C1089 C 0.35902 0.34331 0.20902 0.0
C1090 C 0.36938 0.35151 0.16263 0.0
C1091 C 0.38556 0.34702 0.13852 0.0
C1092 C 0.41321 0.34959 0.13939 0.0
C1093 C 0.42833 0.34535 0.11659 0.0
C1094 C 0.41601 0.33873 0.09275 0.0
C1095 C 0.38854 0.33634 0.09164 0.0
C1096 C 0.37333 0.34051 0.11439 0.0
C1097 C 0.29697 0.43832 0.20345 0.0
C1098 C 0.27374 0.43558 0.18842 0.0
C1099 C 0.31734 0.41986 0.20111 0.0
C1100 C 0.31487 0.39833 0.18377 0.0
C1101 C 0.29259 0.39645 0.16743 0.0
C1102 C 0.27211 0.4149 0.16977 0.0
C1103 C 0.33441 0.3766 0.18465 0.0
C1104 C 0.34929 0.37073 0.16194 0.0
C1105 C 0.33896 0.36237 0.20833 0.0
C1106 C 0.32261 0.36651 0.23242 0.0
C1107 C 0.29498 0.36373 0.23136 0.0
C1108 C 0.27966 0.3679 0.25403 0.0
C1109 C 0.29177 0.37465 0.27796 0.0
C1110 C 0.31922 0.37717 0.27927 0.0
C1111 C 0.33463 0.37307 0.25664 0.0
H1112 H 0.27987 0.37786 0.2955 0.0
H1113 H 0.42776 0.33553 0.07511 0.0
H1114 H 0.29763 0.54861 0.77209 0.0
H1115 H 0.33257 0.57989 0.78258 0.0
H1116 H 0.27924 0.62338 0.8332 0.0
H1117 H 0.24382 0.59231 0.8225 0.0
H1118 H 0.30488 0.65556 0.80008 0.0
H1119 H 0.32921 0.58705 0.85987 0.0
H1120 H 0.33895 0.54132 0.87392 0.0
H1121 H 0.40445 0.53812 0.81995 0.0
H1122 H 0.39486 0.5837 0.80525 0.0
H1123 H 0.40822 0.74239 0.83456 0.0
H1124 H 0.37479 0.70829 0.84127 0.0
H1125 H 0.41567 0.65697 0.78655 0.0
H1126 H 0.44941 0.69075 0.7799 0.0
H1127 H 0.39501 0.62958 0.8289 0.0
H1128 H 0.36625 0.69586 0.76538 0.0
H1129 H 0.35588 0.74141 0.75098 0.0
H1130 H 0.29782 0.74824 0.8126 0.0
H1131 H 0.30818 0.70293 0.82771 0.0
C1132 C 0.29327 0.56468 0.78562 0.0
C1133 C 0.26783 0.56797 0.79637 0.0
C1134 C 0.31338 0.58245 0.79175 0.0
C1135 C 0.30859 0.60375 0.80893 0.0
C1136 C 0.28335 0.60697 0.81998 0.0
C1137 C 0.26315 0.58919 0.81384 0.0
C1138 C 0.32954 0.62355 0.81378 0.0
C1139 C 0.32441 0.64999 0.80699 0.0
C1140 C 0.35513 0.61613 0.82234 0.0
C1141 C 0.3612 0.58878 0.83133 0.0
C1142 C 0.34559 0.57655 0.85086 0.0
C1143 C 0.3511 0.55065 0.85896 0.0
C1144 C 0.37227 0.53681 0.8478 0.0
C1145 C 0.38804 0.54887 0.82857 0.0
C1146 C 0.3826 0.57476 0.82037 0.0
C1147 C 0.41036 0.72372 0.82421 0.0
C1148 C 0.43131 0.71948 0.80635 0.0
C1149 C 0.39121 0.70427 0.82809 0.0
C1150 C 0.39257 0.68033 0.81407 0.0
C1151 C 0.41426 0.67537 0.7975 0.0
C1152 C 0.43347 0.69477 0.79365 0.0
C1153 C 0.37036 0.66138 0.81482 0.0
C1154 C 0.3753 0.63516 0.82253 0.0
C1155 C 0.34454 0.66896 0.80714 0.0
C1156 C 0.33821 0.69612 0.79788 0.0
C1157 C 0.35143 0.70715 0.77599 0.0
C1158 C 0.34553 0.7329 0.76768 0.0
C1159 C 0.32626 0.7477 0.78089 0.0
C1160 C 0.31279 0.73677 0.80242 0.0
C1161 C 0.31867 0.71107 0.81088 0.0
H1162 H 0.32172 0.76762 0.77441 0.0
H1163 H 0.37649 0.51675 0.85408 0.0
H1164 H 0.2576 0.42007 0.83125 0.0
H1165 H 0.29391 0.38901 0.83898 0.0
H1166 H 0.33584 0.42127 0.77203 0.0
H1167 H 0.2998 0.45241 0.76411 0.0
H1168 H 0.32838 0.36704 0.76935 0.0
H1169 H 0.35935 0.43182 0.831 0.0
H1170 H 0.35636 0.46239 0.86895 0.0
H1171 H 0.34084 0.39704 0.92101 0.0
H1172 H 0.34329 0.36608 0.88326 0.0
H1173 H 0.45026 0.30462 0.77617 0.0
H1174 H 0.41864 0.34044 0.78197 0.0
H1175 H 0.37644 0.29443 0.84003 0.0
H1176 H 0.408 0.25794 0.83423 0.0
H1177 H 0.38313 0.35425 0.84993 0.0
H1178 H 0.35096 0.28978 0.78718 0.0
H1179 H 0.35489 0.2598 0.74882 0.0
H1180 H 0.373 0.32582 0.69848 0.0
H1181 H 0.36965 0.35616 0.73668 0.0
C1182 C 0.27471 0.42082 0.81838 0.0
C1183 C 0.27566 0.43851 0.79686 0.0
C1184 C 0.29547 0.40317 0.82294 0.0
C1185 C 0.31743 0.40288 0.80602 0.0
C1186 C 0.31897 0.42123 0.78525 0.0
C1187 C 0.29836 0.43902 0.7808 0.0
C1188 C 0.33757 0.38184 0.80831 0.0
C1189 C 0.34053 0.36445 0.78686 0.0
C1190 C 0.3528 0.37808 0.83149 0.0
C1191 C 0.35121 0.39664 0.85423 0.0
C1192 C 0.35501 0.42398 0.85049 0.0
C1193 C 0.35349 0.44138 0.87198 0.0
C1194 C 0.34838 0.43166 0.89737 0.0
C1195 C 0.3448 0.40452 0.90132 0.0
C1196 C 0.34626 0.38704 0.87989 0.0
C1197 C 0.43454 0.30209 0.7905 0.0
C1198 C 0.43142 0.27816 0.80442 0.0
C1199 C 0.41657 0.32269 0.79384 0.0
C1200 C 0.39523 0.31988 0.81125 0.0
C1201 C 0.3929 0.29684 0.82653 0.0
C1202 C 0.41084 0.27601 0.82306 0.0
C1203 C 0.37397 0.33982 0.81087 0.0
C1204 C 0.37078 0.35687 0.83257 0.0
C1205 C 0.35841 0.34337 0.78791 0.0
C1206 C 0.36034 0.3252 0.76486 0.0
C1207 C 0.35606 0.29788 0.76799 0.0
C1208 C 0.35812 0.28082 0.74626 0.0
C1209 C 0.36426 0.29088 0.72124 0.0
C1210 C 0.36829 0.31804 0.71789 0.0
C1211 C 0.3663 0.33518 0.73957 0.0
H1212 H 0.36582 0.27765 0.70444 0.0
H1213 H 0.34722 0.44517 0.91398 0.0
H1214 H 0.73813 0.41029 0.84299 0.0
H1215 H 0.70272 0.37916 0.85304 0.0
H1216 H 0.65218 0.41823 0.79642 0.0
H1217 H 0.68732 0.44963 0.7863 0.0
H1218 H 0.62488 0.40062 0.84137 0.0
H1219 H 0.68767 0.36762 0.77649 0.0
H1220 H 0.73241 0.35603 0.76086 0.0
H1221 H 0.74101 0.30088 0.82503 0.0
H1222 H 0.69645 0.31249 0.84127 0.0
H1223 H 0.54161 0.30448 0.78559 0.0
H1224 H 0.57279 0.33915 0.79724 0.0
H1225 H 0.61532 0.28447 0.84723 0.0
H1226 H 0.58441 0.24933 0.83531 0.0
H1227 H 0.64768 0.30891 0.81428 0.0
H1228 H 0.58061 0.33646 0.87415 0.0
H1229 H 0.53559 0.34817 0.8887 0.0
H1230 H 0.53416 0.41315 0.83391 0.0
H1231 H 0.57903 0.40162 0.81872 0.0
C1232 C 0.71936 0.4126 0.83296 0.0
C1233 C 0.71575 0.43217 0.81343 0.0
C1234 C 0.69914 0.3948 0.8388 0.0
C1235 C 0.67504 0.39623 0.82519 0.0
C1236 C 0.6707 0.41683 0.8071 0.0
C1237 C 0.69089 0.43464 0.80121 0.0
C1238 C 0.65558 0.37461 0.82736 0.0
C1239 C 0.62974 0.38054 0.83546 0.0
C1240 C 0.66224 0.34836 0.8202 0.0
C1241 C 0.68889 0.34115 0.81027 0.0
C1242 C 0.69919 0.35317 0.78737 0.0
C1243 C 0.7245 0.34659 0.77839 0.0
C1244 C 0.73957 0.32779 0.79199 0.0
C1245 C 0.72933 0.31548 0.81455 0.0
C1246 C 0.70406 0.32205 0.82365 0.0
C1247 C 0.55738 0.29981 0.79932 0.0
C1248 C 0.56061 0.27401 0.80933 0.0
C1249 C 0.57509 0.31977 0.80614 0.0
C1250 C 0.59621 0.31446 0.82333 0.0
C1251 C 0.59908 0.28897 0.834 0.0
C1252 C 0.5814 0.26893 0.82712 0.0
C1253 C 0.61665 0.33487 0.82792 0.0
C1254 C 0.64278 0.32876 0.8209 0.0
C1255 C 0.61015 0.36092 0.83602 0.0
C1256 C 0.58317 0.36806 0.84519 0.0
C1257 C 0.57064 0.35314 0.86506 0.0
C1258 C 0.54515 0.35976 0.87345 0.0
C1259 C 0.53201 0.38136 0.86221 0.0
C1260 C 0.54436 0.39642 0.8426 0.0
C1261 C 0.56985 0.38988 0.83413 0.0
H1262 H 0.51227 0.38645 0.86873 0.0
H1263 H 0.75916 0.32271 0.78501 0.0
H1264 H 0.74596 0.58994 0.82664 0.0
H1265 H 0.71115 0.62265 0.83438 0.0
H1266 H 0.65447 0.57113 0.79696 0.0
H1267 H 0.68904 0.53849 0.78886 0.0
H1268 H 0.65371 0.61981 0.77592 0.0
H1269 H 0.65302 0.58222 0.86335 0.0
H1270 H 0.67261 0.56796 0.90573 0.0
H1271 H 0.69657 0.64783 0.92196 0.0
H1272 H 0.67746 0.66251 0.87946 0.0
H1273 H 0.53785 0.68979 0.79691 0.0
H1274 H 0.57041 0.65484 0.80367 0.0
H1275 H 0.62505 0.71168 0.836 0.0
H1276 H 0.59242 0.74694 0.82959 0.0
H1277 H 0.62767 0.66151 0.86109 0.0
H1278 H 0.62963 0.69879 0.77345 0.0
H1279 H 0.60999 0.71332 0.73114 0.0
H1280 H 0.58464 0.63386 0.71519 0.0
H1281 H 0.60362 0.61894 0.75766 0.0
C1282 C 0.72603 0.58539 0.82036 0.0
C1283 C 0.72038 0.56167 0.80686 0.0
C1284 C 0.70613 0.60408 0.82492 0.0
C1285 C 0.68025 0.59928 0.81626 0.0
C1286 C 0.67436 0.57523 0.80371 0.0
C1287 C 0.69419 0.5566 0.7991 0.0
C1288 C 0.65971 0.62009 0.81818 0.0
C1289 C 0.64776 0.62861 0.79462 0.0
C1290 C 0.65263 0.63219 0.84247 0.0
C1291 C 0.66404 0.62342 0.86808 0.0
C1292 C 0.66267 0.59671 0.87584 0.0
C1293 C 0.67365 0.58855 0.89991 0.0
C1294 C 0.68589 0.60696 0.91649 0.0
C1295 C 0.68711 0.63358 0.90907 0.0
C1296 C 0.67619 0.64184 0.88501 0.0
C1297 C 0.5566 0.69487 0.80587 0.0
C1298 C 0.56273 0.72126 0.81224 0.0
C1299 C 0.57515 0.67484 0.80978 0.0
C1300 C 0.60024 0.68083 0.81986 0.0
C1301 C 0.60578 0.70674 0.82811 0.0
C1302 C 0.58714 0.72685 0.82434 0.0
C1303 C 0.62142 0.66067 0.81891 0.0
C1304 C 0.63363 0.65252 0.84249 0.0
C1305 C 0.62892 0.6489 0.79461 0.0
C1306 C 0.61783 0.65779 0.76886 0.0
C1307 C 0.6197 0.68445 0.76102 0.0
C1308 C 0.60871 0.69276 0.737 0.0
C1309 C 0.59607 0.67454 0.72052 0.0
C1310 C 0.59442 0.64796 0.72799 0.0
C1311 C 0.60528 0.63956 0.75203 0.0
H1312 H 0.58758 0.68101 0.70193 0.0
H1313 H 0.69438 0.60061 0.93511 0.0
H1314 H 0.5894 0.74048 0.16971 0.0
H1315 H 0.61924 0.70321 0.16238 0.0
H1316 H 0.56278 0.65048 0.19848 0.0
H1317 H 0.53295 0.68764 0.20627 0.0
H1318 H 0.60974 0.6475 0.22193 0.0
H1319 H 0.57808 0.64557 0.13272 0.0
H1320 H 0.56669 0.66401 0.08898 0.0
H1321 H 0.64765 0.68597 0.07657 0.0
H1322 H 0.65948 0.668 0.12042 0.0
H1323 H 0.68767 0.53418 0.20943 0.0
H1324 H 0.65106 0.56436 0.20067 0.0
H1325 H 0.70525 0.62146 0.16794 0.0
H1326 H 0.74212 0.59119 0.17623 0.0
H1327 H 0.65761 0.61998 0.14063 0.0
H1328 H 0.68818 0.62716 0.23068 0.0
H1329 H 0.70052 0.61008 0.27474 0.0
H1330 H 0.62194 0.5801 0.28565 0.0
H1331 H 0.60925 0.5967 0.24146 0.0
C1332 C 0.58307 0.72089 0.17563 0.0
C1333 C 0.55895 0.71712 0.18896 0.0
C1334 C 0.60011 0.69956 0.17127 0.0
C1335 C 0.59319 0.6741 0.17988 0.0
C1336 C 0.56849 0.67002 0.19176 0.0
C1337 C 0.5515 0.69131 0.19623 0.0
C1338 C 0.61296 0.65251 0.17964 0.0
C1339 C 0.61976 0.64109 0.20402 0.0
C1340 C 0.62666 0.64485 0.15642 0.0
C1341 C 0.61963 0.65562 0.12998 0.0
C1342 C 0.59343 0.65452 0.12077 0.0
C1343 C 0.58689 0.66485 0.09593 0.0
C1344 C 0.60642 0.6762 0.08003 0.0
C1345 C 0.63254 0.67718 0.08891 0.0
C1346 C 0.63917 0.6669 0.11375 0.0
C1347 C 0.69184 0.55304 0.20013 0.0
C1348 C 0.71788 0.56049 0.19396 0.0
C1349 C 0.67087 0.57021 0.19506 0.0
C1350 C 0.67557 0.59523 0.18404 0.0
C1351 C 0.70128 0.60219 0.17648 0.0
C1352 C 0.72232 0.58493 0.18138 0.0
C1353 C 0.65407 0.61501 0.18284 0.0
C1354 C 0.64719 0.6262 0.15836 0.0
C1355 C 0.64033 0.62271 0.20599 0.0
C1356 C 0.64785 0.61292 0.23266 0.0
C1357 C 0.67359 0.61675 0.2424 0.0
C1358 C 0.68064 0.60719 0.2674 0.0
C1359 C 0.66204 0.59394 0.28295 0.0
C1360 C 0.63633 0.59032 0.27356 0.0
C1361 C 0.6292 0.59982 0.24855 0.0
H1362 H 0.66753 0.58655 0.30231 0.0
H1363 H 0.60132 0.6842 0.0608 0.0
H1364 H 0.40013 0.75039 0.17784 0.0
H1365 H 0.36659 0.71624 0.17151 0.0
H1366 H 0.41593 0.65972 0.21231 0.0
H1367 H 0.44966 0.69356 0.21857 0.0
H1368 H 0.39373 0.63818 0.16871 0.0
H1369 H 0.36498 0.68774 0.24472 0.0
H1370 H 0.35112 0.72627 0.27138 0.0
H1371 H 0.28884 0.74275 0.21605 0.0
H1372 H 0.30237 0.70432 0.18901 0.0
H1373 H 0.29866 0.5441 0.21305 0.0
H1374 H 0.33343 0.57712 0.20778 0.0
H1375 H 0.28026 0.62664 0.16295 0.0
H1376 H 0.2453 0.59386 0.16809 0.0
H1377 H 0.30362 0.65243 0.20473 0.0
H1378 H 0.33034 0.5979 0.13194 0.0
H1379 H 0.34253 0.55616 0.10972 0.0
H1380 H 0.40869 0.547 0.16214 0.0
H1381 H 0.39668 0.58851 0.18495 0.0
C1382 C 0.40397 0.73065 0.18529 0.0
C1383 C 0.42754 0.72475 0.19884 0.0
C1384 C 0.38472 0.71121 0.18177 0.0
C1385 C 0.38871 0.68557 0.1917 0.0
C1386 C 0.41249 0.67941 0.20453 0.0
C1387 C 0.4317 0.69883 0.20816 0.0
C1388 C 0.3679 0.66524 0.18925 0.0
C1389 C 0.37407 0.64119 0.17672 0.0
C1390 C 0.34215 0.66943 0.19929 0.0
C1391 C 0.33489 0.69336 0.21469 0.0
C1392 C 0.34856 0.69979 0.23806 0.0
C1393 C 0.34066 0.72152 0.25331 0.0
C1394 C 0.31912 0.73694 0.2454 0.0
C1395 C 0.30552 0.73078 0.22214 0.0
C1396 C 0.31326 0.70901 0.20687 0.0
C1397 C 0.29441 0.56186 0.20179 0.0
C1398 C 0.26912 0.56641 0.19116 0.0
C1399 C 0.31436 0.58062 0.19867 0.0
C1400 C 0.30937 0.6042 0.18488 0.0
C1401 C 0.28444 0.60849 0.17361 0.0
C1402 C 0.26452 0.5897 0.17657 0.0
C1403 C 0.32944 0.62536 0.18425 0.0
C1404 C 0.32316 0.64956 0.19631 0.0
C1405 C 0.35511 0.62115 0.17405 0.0
C1406 C 0.36247 0.59623 0.1603 0.0
C1407 C 0.34737 0.58688 0.13888 0.0
C1408 C 0.35427 0.56328 0.12614 0.0
C1409 C 0.37634 0.5489 0.13455 0.0
C1410 C 0.39159 0.55814 0.15566 0.0
C1411 C 0.38476 0.58173 0.16848 0.0
H1412 H 0.38165 0.53063 0.12466 0.0
H1413 H 0.31287 0.75361 0.25735 0.0
H1414 H 0.57799 0.25744 0.15543 0.0
H1415 H 0.60803 0.29359 0.14456 0.0
H1416 H 0.57528 0.34028 0.20821 0.0
H1417 H 0.54487 0.3045 0.219 0.0
H1418 H 0.58743 0.37082 0.16513 0.0
H1419 H 0.62911 0.30268 0.21879 0.0
H1420 H 0.64335 0.257 0.22867 0.0
H1421 H 0.68926 0.25536 0.15714 0.0
H1422 H 0.67499 0.30095 0.14669 0.0
H1423 H 0.68918 0.44851 0.21857 0.0
H1424 H 0.65328 0.41877 0.20691 0.0
H1425 H 0.70164 0.3834 0.14598 0.0
H1426 H 0.738 0.41281 0.15782 0.0
H1427 H 0.68176 0.34707 0.17778 0.0
H1428 H 0.64666 0.41993 0.12974 0.0
H1429 H 0.63303 0.46617 0.12204 0.0
H1430 H 0.57537 0.46007 0.18412 0.0
H1431 H 0.58891 0.41391 0.19248 0.0
C1432 C 0.57692 0.27551 0.16693 0.0
C1433 C 0.55935 0.27789 0.18842 0.0
C1434 C 0.59405 0.29616 0.16062 0.0
C1435 C 0.59409 0.31938 0.17584 0.0
C1436 C 0.57553 0.32247 0.19624 0.0
C1437 C 0.55829 0.30191 0.20249 0.0
C1438 C 0.61514 0.33928 0.17252 0.0
C1439 C 0.60809 0.36574 0.16786 0.0
C1440 C 0.64208 0.3324 0.17547 0.0
C1441 C 0.65073 0.30506 0.1818 0.0
C1442 C 0.64208 0.29249 0.20508 0.0
C1443 C 0.65018 0.26664 0.2108 0.0
C1444 C 0.66713 0.25325 0.1935 0.0
C1445 C 0.67608 0.26573 0.17049 0.0
C1446 C 0.668 0.29157 0.16466 0.0
C1447 C 0.69214 0.43468 0.20244 0.0
C1448 C 0.7166 0.43286 0.18933 0.0
C1449 C 0.67147 0.41784 0.19563 0.0
C1450 C 0.67472 0.39908 0.17539 0.0
C1451 C 0.69874 0.39783 0.1616 0.0
C1452 C 0.7195 0.41461 0.16846 0.0
C1453 C 0.65413 0.37887 0.1709 0.0
C1454 C 0.66124 0.35224 0.17425 0.0
C1455 C 0.6273 0.3857 0.1669 0.0
C1456 C 0.61891 0.41344 0.16182 0.0
C1457 C 0.63119 0.42848 0.14188 0.0
C1458 C 0.62346 0.45469 0.13737 0.0
C1459 C 0.60337 0.46606 0.1526 0.0
C1460 C 0.59093 0.45123 0.17233 0.0
C1461 C 0.59859 0.42502 0.17693 0.0
H1462 H 0.59743 0.48636 0.14909 0.0
H1463 H 0.67338 0.23324 0.19796 0.0
H1464 H 0.22005 0.88771 0.53471 0.0
H1465 H 0.22415 0.93584 0.536 0.0
H1466 H 0.19273 0.94084 0.4567 0.0
H1467 H 0.18932 0.89266 0.45494 0.0
H1468 H 0.23207 0.9746 0.46256 0.0
H1469 H 0.15386 0.9519 0.51249 0.0
H1470 H 0.12898 0.92891 0.54762 0.0
H1471 H 0.1777 0.96533 0.60689 0.0
H1472 H 0.20308 0.98828 0.57206 0.0
H1473 H 0.18474 0.10532 0.45734 0.0
H1474 H 0.1896 0.05738 0.45851 0.0
H1475 H 0.22111 0.06217 0.53778 0.0
H1476 H 0.2155 0.11032 0.5371 0.0
H1477 H 0.18605 0.02365 0.53425 0.0
H1478 H 0.26104 0.05062 0.48297 0.0
H1479 H 0.28317 0.07498 0.44697 0.0
H1480 H 0.23908 0.03104 0.3892 0.0
H1481 H 0.21625 0.0068 0.42486 0.0
C1482 C 0.21407 0.89904 0.51751 0.0
C1483 C 0.2041 0.88638 0.49481 0.0
C1484 C 0.2164 0.92655 0.5183 0.0
C1485 C 0.20831 0.94195 0.49662 0.0
C1486 C 0.19905 0.92933 0.47367 0.0
C1487 C 0.19704 0.90179 0.47273 0.0
C1488 C 0.20869 0.97123 0.49806 0.0
C1489 C 0.22187 0.98536 0.47813 0.0
C1490 C 0.1959 0.98522 0.51873 0.0
C1491 C 0.18053 0.97158 0.53967 0.0
C1492 C 0.15937 0.95486 0.53301 0.0
C1493 C 0.14517 0.94186 0.55286 0.0
C1494 C 0.1518 0.9456 0.57946 0.0
C1495 C 0.17261 0.96242 0.58627 0.0
C1496 C 0.1869 0.97544 0.56649 0.0
C1497 C 0.19285 0.09624 0.475 0.0
C1498 C 0.19985 0.11164 0.4971 0.0
C1499 C 0.19573 0.06881 0.47559 0.0
C1500 C 0.2062 0.05624 0.49804 0.0
C1501 C 0.21311 0.07151 0.52021 0.0
C1502 C 0.2099 0.09899 0.51978 0.0
C1503 C 0.20912 0.02707 0.49855 0.0
C1504 C 0.19657 0.01294 0.51886 0.0
C1505 C 0.22237 0.01311 0.47813 0.0
C1506 C 0.2368 0.02701 0.45663 0.0
C1507 C 0.25599 0.04621 0.46259 0.0
C1508 C 0.26864 0.06002 0.44224 0.0
C1509 C 0.26249 0.05459 0.41581 0.0
C1510 C 0.2438 0.03523 0.40968 0.0
C1511 C 0.23101 0.02145 0.42996 0.0
H1512 H 0.27219 0.06538 0.40007 0.0
H1513 H 0.14079 0.93552 0.59481 0.0
H1514 H 0.10341 0.19012 0.53519 0.0
H1515 H 0.05535 0.19204 0.53538 0.0
H1516 H 0.05488 0.19766 0.45012 0.0
H1517 H 0.10316 0.19607 0.44963 0.0
H1518 H 0.02089 0.23318 0.47362 0.0
H1519 H 0.0401 0.14026 0.47854 0.0
H1520 H 0.06146 0.1001 0.49628 0.0
H1521 H 0.02497 0.11355 0.57191 0.0
H1522 H 0.00368 0.15403 0.55472 0.0
H1523 H 0.88552 0.20039 0.45489 0.0
H1524 H 0.93362 0.20258 0.4541 0.0
H1525 H 0.9356 0.19562 0.53925 0.0
H1526 H 0.88747 0.19308 0.54032 0.0
H1527 H 0.96889 0.16114 0.51527 0.0
H1528 H 0.94904 0.25384 0.5101 0.0
H1529 H 0.92729 0.29369 0.49211 0.0
H1530 H 0.96454 0.28057 0.41681 0.0
H1531 H 0.98622 0.2404 0.43424 0.0
C1532 C 0.09318 0.19171 0.51642 0.0
C1533 C 0.10717 0.1928 0.49237 0.0
C1534 C 0.06569 0.19276 0.5166 0.0
C1535 C 0.05166 0.19474 0.49275 0.0
C1536 C 0.06545 0.19611 0.46872 0.0
C1537 C 0.09301 0.19506 0.46849 0.0
C1538 C 0.02253 0.19523 0.49305 0.0
C1539 C 0.00944 0.21729 0.48238 0.0
C1540 C 0.00779 0.17473 0.50504 0.0
C1541 C 0.02049 0.15032 0.5154 0.0
C1542 C 0.0368 0.13477 0.49902 0.0
C1543 C 0.04886 0.11193 0.50896 0.0
C1544 C 0.04463 0.10431 0.53522 0.0
C1545 C 0.02826 0.11949 0.55158 0.0
C1546 C 0.01617 0.14238 0.54174 0.0
C1547 C 0.89612 0.19951 0.47351 0.0
C1548 C 0.88263 0.19642 0.49767 0.0
C1549 C 0.92361 0.2009 0.473 0.0
C1550 C 0.93806 0.19941 0.49663 0.0
C1551 C 0.92471 0.19679 0.52081 0.0
C1552 C 0.89721 0.1954 0.52136 0.0
C1553 C 0.96719 0.19916 0.49599 0.0
C1554 C 0.9803 0.17708 0.50654 0.0
C1555 C 0.98188 0.21964 0.48388 0.0
C1556 C 0.96906 0.24395 0.47341 0.0
C1557 C 0.95244 0.25933 0.48965 0.0
C1558 C 0.94015 0.282 0.47956 0.0
C1559 C 0.94447 0.28962 0.45332 0.0
C1560 C 0.96118 0.27463 0.43713 0.0
C1561 C 0.9735 0.25192 0.44711 0.0
H1562 H 0.93493 0.30717 0.44554 0.0
H1563 H 0.05399 0.08662 0.54289 0.0
H1564 H 0.83358 0.09885 0.47781 0.0
H1565 H 0.83128 0.05056 0.47927 0.0
H1566 H 0.7665 0.05548 0.53483 0.0
H1567 H 0.77009 0.10379 0.53475 0.0
H1568 H 0.79436 0.01713 0.5485 0.0
H1569 H 0.75762 0.04239 0.46618 0.0
H1570 H 0.75469 0.06518 0.42309 0.0
H1571 H 0.82294 0.02271 0.3955 0.0
H1572 H 0.82651 -6e-05 0.43857 0.0
H1573 H 0.77059 0.8821 0.47335 0.0
H1574 H 0.76609 0.93023 0.47583 0.0
H1575 H 0.82853 0.93282 0.53413 0.0
H1576 H 0.83172 0.88457 0.53292 0.0
H1577 H 0.79516 0.96756 0.46367 0.0
H1578 H 0.82358 0.98388 0.57485 0.0
H1579 H 0.81777 0.96122 0.61773 0.0
H1580 H 0.74983 0.9205 0.58738 0.0
H1581 H 0.755 0.94318 0.54446 0.0
C1582 C 0.81902 0.08951 0.49045 0.0
C1583 C 0.80194 0.10481 0.50608 0.0
C1584 C 0.81755 0.06199 0.49114 0.0
C1585 C 0.79824 0.04938 0.50662 0.0
C1586 C 0.78151 0.06474 0.52268 0.0
C1587 C 0.78353 0.09227 0.52261 0.0
C1588 C 0.79549 0.02021 0.50592 0.0
C1589 C 0.7944 0.00629 0.52996 0.0
C1590 C 0.79455 0.00606 0.48172 0.0
C1591 C 0.79244 0.01961 0.45569 0.0
C1592 C 0.7721 0.03803 0.45098 0.0
C1593 C 0.77032 0.05094 0.42655 0.0
C1594 C 0.78865 0.04543 0.40659 0.0
C1595 C 0.80876 0.02697 0.41099 0.0
C1596 C 0.81066 0.01403 0.4354 0.0
C1597 C 0.78319 0.89304 0.48678 0.0
C1598 C 0.8014 0.87982 0.50304 0.0
C1599 C 0.78065 0.92049 0.48818 0.0
C1600 C 0.79669 0.93518 0.50546 0.0
C1601 C 0.81535 0.92191 0.52125 0.0
C1602 C 0.81734 0.8944 0.52042 0.0
C1603 C 0.79458 0.96442 0.50627 0.0
C1604 C 0.79481 0.97837 0.48224 0.0
C1605 C 0.79327 0.97858 0.53045 0.0
C1606 C 0.78984 0.96508 0.55635 0.0
C1607 C 0.80733 0.97019 0.57736 0.0
C1608 C 0.80416 0.95732 0.60167 0.0
C1609 C 0.78349 0.93938 0.60525 0.0
C1610 C 0.76589 0.93433 0.58456 0.0
C1611 C 0.76895 0.94717 0.56022 0.0
H1612 H 0.78109 0.92942 0.62408 0.0
H1613 H 0.78723 0.05545 0.38769 0.0
H1614 H 0.11025 0.79406 0.53703 0.0
H1615 H 0.06213 0.79098 0.53802 0.0
H1616 H 0.05902 0.80832 0.45443 0.0
H1617 H 0.10718 0.81148 0.45314 0.0
H1618 H 0.02314 0.83761 0.48447 0.0
H1619 H 0.0501 0.74709 0.47306 0.0
H1620 H 0.07525 0.70664 0.48385 0.0
H1621 H 0.03881 0.70395 0.56062 0.0
H1622 H 0.01368 0.74461 0.5504 0.0
H1623 H 0.89129 0.80259 0.4586 0.0
H1624 H 0.93943 0.80277 0.45805 0.0
H1625 H 0.94084 0.78379 0.54132 0.0
H1626 H 0.89254 0.78337 0.54216 0.0
H1627 H 0.97764 0.75513 0.51213 0.0
H1628 H 0.95064 0.84541 0.52367 0.0
H1629 H 0.92575 0.8861 0.51324 0.0
H1630 H 0.96267 0.88963 0.43675 0.0
H1631 H 0.9875 0.84869 0.44656 0.0
C1632 C 0.09937 0.79732 0.51885 0.0
C1633 C 0.11255 0.80301 0.49499 0.0
C1634 C 0.0719 0.79541 0.51945 0.0
C1635 C 0.05717 0.79922 0.49625 0.0
C1636 C 0.07015 0.80527 0.4725 0.0
C1637 C 0.09764 0.80699 0.47182 0.0
C1638 C 0.02812 0.79711 0.49684 0.0
C1639 C 0.01315 0.81949 0.49016 0.0
C1640 C 0.01529 0.77362 0.50494 0.0
C1641 C 0.03021 0.74905 0.51107 0.0
C1642 C 0.04761 0.738 0.49233 0.0
C1643 C 0.06183 0.71501 0.49832 0.0
C1644 C 0.05869 0.70278 0.52294 0.0
C1645 C 0.04125 0.71347 0.54158 0.0
C1646 C 0.02699 0.73646 0.53568 0.0
C1647 C 0.90175 0.79829 0.47681 0.0
C1648 C 0.88801 0.79319 0.5005 0.0
C1649 C 0.92927 0.79847 0.47644 0.0
C1650 C 0.94358 0.79362 0.49971 0.0
C1651 C 0.93006 0.78765 0.52319 0.0
C1652 C 0.90248 0.78754 0.52363 0.0
C1653 C 0.97266 0.79561 0.4996 0.0
C1654 C 0.98764 0.77324 0.50643 0.0
C1655 C 0.98554 0.81914 0.49169 0.0
C1656 C 0.97073 0.84383 0.48575 0.0
C1657 C 0.95329 0.85473 0.50454 0.0
C1658 C 0.93922 0.87786 0.49875 0.0
C1659 C 0.94257 0.8904 0.47432 0.0
C1660 C 0.96006 0.87987 0.45565 0.0
C1661 C 0.97416 0.85671 0.46132 0.0
H1662 H 0.93167 0.90831 0.46988 0.0
H1663 H 0.06972 0.685 0.52756 0.0
H1664 H 0.53466 0.20404 0.88986 0.0
H1665 H 0.53345 0.20612 0.93811 0.0
H1666 H 0.44947 0.19175 0.93696 0.0
H1667 H 0.45032 0.1901 0.88865 0.0
H1668 H 0.46175 0.2297 0.97204 0.0
H1669 H 0.49185 0.14217 0.95163 0.0
H1670 H 0.51995 0.10848 0.93017 0.0
H1671 H 0.58833 0.14039 0.96894 0.0
H1672 H 0.56067 0.17453 0.99035 0.0
H1673 H 0.45105 0.19231 0.1081 0.0
H1674 H 0.44975 0.19376 0.05976 0.0
H1675 H 0.53353 0.20915 0.05772 0.0
H1676 H 0.53519 0.2073 0.10593 0.0
H1677 H 0.52006 0.17031 0.02422 0.0
H1678 H 0.48803 0.25802 0.04539 0.0
H1679 H 0.45832 0.29004 0.06727 0.0
H1680 H 0.39166 0.25583 0.02748 0.0
H1681 H 0.42091 0.22336 0.00566 0.0
C1682 C 0.51591 0.20131 0.89982 0.0
C1683 C 0.49262 0.1967 0.88538 0.0
C1684 C 0.51527 0.20248 0.9274 0.0
C1685 C 0.49142 0.19873 0.94106 0.0
C1686 C 0.46807 0.19465 0.92675 0.0
C1687 C 0.46864 0.19363 0.89914 0.0
C1688 C 0.49097 0.19866 0.97031 0.0
C1689 C 0.47426 0.21653 0.9835 0.0
C1690 C 0.50753 0.18164 0.98514 0.0
C1691 C 0.52422 0.16106 0.97239 0.0
C1692 C 0.51291 0.14213 0.95542 0.0
C1693 C 0.52875 0.12294 0.94329 0.0
C1694 C 0.55592 0.12234 0.94814 0.0
C1695 C 0.56729 0.1409 0.96518 0.0
C1696 C 0.55153 0.16016 0.97733 0.0
C1697 C 0.46918 0.19618 0.0974 0.0
C1698 C 0.49325 0.19958 0.11089 0.0
C1699 C 0.46836 0.1971 0.06978 0.0
C1700 C 0.49152 0.20175 0.05524 0.0
C1701 C 0.51546 0.2055 0.06863 0.0
C1702 C 0.51634 0.20445 0.09619 0.0
C1703 C 0.49111 0.20161 0.02599 0.0
C1704 C 0.5076 0.18357 0.01279 0.0
C1705 C 0.47417 0.2183 0.01121 0.0
C1706 C 0.45665 0.23809 0.02408 0.0
C1707 C 0.46702 0.25721 0.04144 0.0
C1708 C 0.45026 0.27546 0.05382 0.0
C1709 C 0.42312 0.27491 0.04882 0.0
C1710 C 0.41269 0.2562 0.03136 0.0
C1711 C 0.42935 0.23789 0.01896 0.0
H1712 H 0.41015 0.28898 0.05845 0.0
H1713 H 0.56815 0.10746 0.93873 0.0
H1714 H 0.79808 0.45529 0.89328 0.0
H1715 H 0.79568 0.45762 0.94144 0.0
H1716 H 0.79626 0.54293 0.93774 0.0
H1717 H 0.79895 0.54092 0.88946 0.0
H1718 H 0.83015 0.52362 0.97514 0.0
H1719 H 0.73967 0.51167 0.95031 0.0
H1720 H 0.70253 0.49033 0.9271 0.0
H1721 H 0.71795 0.41764 0.96844 0.0
H1722 H 0.75544 0.43844 0.99164 0.0
H1723 H 0.7959 0.54152 0.11016 0.0
H1724 H 0.79428 0.54287 0.06187 0.0
H1725 H 0.79381 0.45751 0.05921 0.0
H1726 H 0.79513 0.45584 0.10748 0.0
H1727 H 0.75817 0.47927 0.02492 0.0
H1728 H 0.8499 0.49015 0.04761 0.0
H1729 H 0.8876 0.51087 0.07047 0.0
H1730 H 0.87009 0.58512 0.0329 0.0
H1731 H 0.83204 0.5649 0.01007 0.0
C1732 C 0.7977 0.47459 0.90263 0.0
C1733 C 0.79865 0.49793 0.88747 0.0
C1734 C 0.79621 0.47585 0.93016 0.0
C1735 C 0.79548 0.50044 0.94302 0.0
C1736 C 0.79673 0.52378 0.92808 0.0
C1737 C 0.79821 0.52256 0.90051 0.0
C1738 C 0.79381 0.50169 0.97217 0.0
C1739 C 0.81418 0.51433 0.98604 0.0
C1740 C 0.77323 0.48907 0.98626 0.0
C1741 C 0.75051 0.47656 0.97255 0.0
C1742 C 0.73526 0.49108 0.95432 0.0
C1743 C 0.71413 0.47909 0.94119 0.0
C1744 C 0.70792 0.45263 0.94625 0.0
C1745 C 0.72279 0.43813 0.96452 0.0
C1746 C 0.74397 0.45002 0.97769 0.0
C1747 C 0.79537 0.523 0.09936 0.0
C1748 C 0.79583 0.49856 0.11271 0.0
C1749 C 0.7945 0.52384 0.07177 0.0
C1750 C 0.79421 0.50029 0.05707 0.0
C1751 C 0.79405 0.47589 0.07028 0.0
C1752 C 0.79492 0.475 0.09786 0.0
C1753 C 0.79461 0.50102 0.02786 0.0
C1754 C 0.77401 0.48874 0.01399 0.0
C1755 C 0.815 0.51393 0.01376 0.0
C1756 C 0.83796 0.52609 0.02735 0.0
C1757 C 0.85396 0.51095 0.04438 0.0
C1758 C 0.87542 0.52259 0.05731 0.0
C1759 C 0.88119 0.54931 0.0532 0.0
C1760 C 0.86557 0.56443 0.0361 0.0
C1761 C 0.84407 0.55289 0.02314 0.0
H1762 H 0.89781 0.55828 0.06323 0.0
H1763 H 0.69156 0.44337 0.93605 0.0
H1764 H 0.53713 0.79548 0.1067 0.0
H1765 H 0.53462 0.79362 0.05847 0.0
H1766 H 0.4495 0.79468 0.06264 0.0
H1767 H 0.45171 0.79692 0.11087 0.0
H1768 H 0.51281 0.75832 0.02453 0.0
H1769 H 0.42616 0.83137 0.01064 0.0
H1770 H 0.40559 0.86931 0.03362 0.0
H1771 H 0.47974 0.88782 0.07044 0.0
H1772 H 0.50081 0.85024 0.04741 0.0
H1773 H 0.44971 0.80016 0.88958 0.0
H1774 H 0.44804 0.79679 0.93783 0.0
H1775 H 0.5332 0.79577 0.9409 0.0
H1776 H 0.53517 0.79882 0.89277 0.0
H1777 H 0.46707 0.83007 0.97534 0.0
H1778 H 0.55312 0.75566 0.99114 0.0
H1779 H 0.57405 0.71814 0.96783 0.0
H1780 H 0.50153 0.70263 0.92662 0.0
H1781 H 0.48005 0.73977 0.94996 0.0
C1782 C 0.51784 0.79526 0.09742 0.0
C1783 C 0.49462 0.7966 0.11269 0.0
C1784 C 0.51647 0.79409 0.06985 0.0
C1785 C 0.4919 0.79432 0.05704 0.0
C1786 C 0.46867 0.79489 0.07218 0.0
C1787 C 0.47 0.79612 0.09976 0.0
C1788 C 0.49067 0.79464 0.0278 0.0
C1789 C 0.50303 0.77411 0.01373 0.0
C1790 C 0.47732 0.81493 0.01383 0.0
C1791 C 0.46496 0.8378 0.02754 0.0
C1792 C 0.43807 0.84359 0.02358 0.0
C1793 C 0.42633 0.86503 0.03662 0.0
C1794 C 0.44132 0.8809 0.05356 0.0
C1795 C 0.46812 0.87544 0.05741 0.0
C1796 C 0.47997 0.85406 0.04439 0.0
C1797 C 0.46811 0.79917 0.90048 0.0
C1798 C 0.49259 0.79971 0.88726 0.0
C1799 C 0.46709 0.79728 0.92805 0.0
C1800 C 0.49048 0.79571 0.94284 0.0
C1801 C 0.51491 0.79649 0.92977 0.0
C1802 C 0.51598 0.79838 0.90225 0.0
C1803 C 0.48945 0.79389 0.97204 0.0
C1804 C 0.47666 0.81414 0.98611 0.0
C1805 C 0.50244 0.77336 0.98599 0.0
C1806 C 0.51506 0.75068 0.97213 0.0
C1807 C 0.5416 0.74417 0.9772 0.0
C1808 C 0.55357 0.72298 0.96396 0.0
C1809 C 0.53915 0.70807 0.9457 0.0
C1810 C 0.5127 0.71426 0.9407 0.0
C1811 C 0.50063 0.7354 0.9539 0.0
H1812 H 0.54846 0.6917 0.93545 0.0
H1813 H 0.43219 0.89747 0.06365 0.0
H1814 H 0.1998 0.54408 0.88012 0.0
H1815 H 0.20468 0.54565 0.92818 0.0
H1816 H 0.19826 0.46057 0.93181 0.0
H1817 H 0.19389 0.45868 0.88374 0.0
H1818 H 0.17075 0.53073 0.96563 0.0
H1819 H 0.23414 0.43696 0.98318 0.0
H1820 H 0.26809 0.41066 0.95992 0.0
H1821 H 0.29255 0.47967 0.91684 0.0
H1822 H 0.25899 0.50648 0.9401 0.0
H1823 H 0.19683 0.45911 0.09776 0.0
H1824 H 0.20017 0.46086 0.04963 0.0
H1825 H 0.20701 0.54591 0.05296 0.0
H1826 H 0.20319 0.54448 0.10116 0.0
H1827 H 0.23701 0.47819 0.0156 0.0
H1828 H 0.17391 0.57228 0.00043 0.0
H1829 H 0.13832 0.59705 0.02294 0.0
H1830 H 0.11185 0.52555 0.0604 0.0
H1831 H 0.14704 0.50031 0.03784 0.0
C1832 C 0.19952 0.52566 0.8911 0.0
C1833 C 0.19645 0.50124 0.87805 0.0
C1834 C 0.20232 0.52662 0.91856 0.0
C1835 C 0.20215 0.50323 0.93349 0.0
C1836 C 0.19898 0.47883 0.92059 0.0
C1837 C 0.19634 0.47781 0.89311 0.0
C1838 C 0.20418 0.5044 0.96268 0.0
C1839 C 0.18556 0.51964 0.97655 0.0
C1840 C 0.22311 0.4894 0.97687 0.0
C1841 C 0.24387 0.47367 0.96324 0.0
C1842 C 0.24687 0.44657 0.96887 0.0
C1843 C 0.26601 0.43156 0.95565 0.0
C1844 C 0.28238 0.44347 0.93685 0.0
C1845 C 0.27977 0.47046 0.93134 0.0
C1846 C 0.26067 0.48556 0.94451 0.0
C1847 C 0.19916 0.47822 0.08833 0.0
C1848 C 0.19943 0.50169 0.10334 0.0
C1849 C 0.20118 0.47914 0.0608 0.0
C1850 C 0.20351 0.50352 0.04775 0.0
C1851 C 0.20479 0.52692 0.06267 0.0
C1852 C 0.20262 0.52605 0.09021 0.0
C1853 C 0.2035 0.50441 0.01848 0.0
C1854 C 0.22244 0.48953 0.00463 0.0
C1855 C 0.18476 0.5196 0.00426 0.0
C1856 C 0.16331 0.5345 0.01769 0.0
C1857 C 0.16044 0.56185 0.01342 0.0
C1858 C 0.14035 0.57597 0.02619 0.0
C1859 C 0.1229 0.5629 0.04317 0.0
C1860 C 0.12544 0.53566 0.04733 0.0
C1861 C 0.14548 0.52145 0.03458 0.0
H1862 H 0.10737 0.57387 0.05305 0.0
H1863 H 0.29706 0.43177 0.92657 0.0
H1864 H 0.10145 0.53839 0.18746 0.0
H1865 H 0.05345 0.53653 0.19073 0.0
H1866 H 0.05629 0.45128 0.18643 0.0
H1867 H 0.10438 0.45283 0.18289 0.0
H1868 H 0.01752 0.4727 0.1549 0.0
H1869 H 0.04719 0.4799 0.24487 0.0
H1870 H 0.07245 0.4994 0.28177 0.0
H1871 H 0.03089 0.57296 0.272 0.0
H1872 H 0.00563 0.554 0.23479 0.0
H1873 H 0.88598 0.45101 0.19649 0.0
H1874 H 0.93417 0.45056 0.19555 0.0
H1875 H 0.93515 0.53585 0.19983 0.0
H1876 H 0.88696 0.53661 0.20106 0.0
H1877 H 0.97212 0.51295 0.23229 0.0
H1878 H 0.94365 0.5066 0.14166 0.0
H1879 H 0.91859 0.48771 0.10434 0.0
H1880 H 0.95805 0.41312 0.11494 0.0
H1881 H 0.98309 0.43148 0.15262 0.0
C1882 C 0.09194 0.51921 0.1871 0.0
C1883 C 0.10681 0.49574 0.18505 0.0
C1884 C 0.06451 0.51821 0.18908 0.0
C1885 C 0.05148 0.49375 0.18917 0.0
C1886 C 0.0661 0.47032 0.18648 0.0
C1887 C 0.09356 0.47128 0.18452 0.0
C1888 C 0.02255 0.4927 0.19224 0.0
C1889 C 0.00758 0.48111 0.17199 0.0
C1890 C 0.00972 0.50422 0.21433 0.0
C1891 C 0.02468 0.51559 0.23689 0.0
C1892 C 0.04357 0.50029 0.25047 0.0
C1893 C 0.05787 0.51124 0.27146 0.0
C1894 C 0.05332 0.53743 0.27918 0.0
C1895 C 0.03441 0.55269 0.26598 0.0
C1896 C 0.02007 0.54184 0.24496 0.0
C1897 C 0.89639 0.4697 0.1974 0.0
C1898 C 0.88258 0.49387 0.19862 0.0
C1899 C 0.92391 0.46938 0.19679 0.0
C1900 C 0.93807 0.49319 0.19729 0.0
C1901 C 0.92447 0.51728 0.19937 0.0
C1902 C 0.89694 0.51765 0.19996 0.0
C1903 C 0.9671 0.49303 0.1949 0.0
C1904 C 0.98208 0.5044 0.21527 0.0
C1905 C 0.97994 0.48137 0.1729 0.0
C1906 C 0.96504 0.47033 0.15014 0.0
C1907 C 0.94683 0.48611 0.13617 0.0
C1908 C 0.93266 0.47551 0.11493 0.0
C1909 C 0.93667 0.44921 0.10731 0.0
C1910 C 0.95493 0.43348 0.12088 0.0
C1911 C 0.96914 0.44397 0.14218 0.0
H1912 H 0.92568 0.44104 0.09085 0.0
H1913 H 0.06443 0.54587 0.29542 0.0
H1914 H 0.88543 0.44663 0.8043 0.0
H1915 H 0.93352 0.44488 0.80045 0.0
H1916 H 0.93542 0.52884 0.78507 0.0
H1917 H 0.88736 0.53088 0.78877 0.0
H1918 H 0.96851 0.4994 0.75157 0.0
H1919 H 0.9489 0.50798 0.84501 0.0
H1920 H 0.92754 0.495 0.88694 0.0
H1921 H 0.96553 0.41899 0.88326 0.0
H1922 H 0.98684 0.4314 0.84109 0.0
H1923 H 0.1 0.53408 0.78357 0.0
H1924 H 0.05197 0.53003 0.78152 0.0
H1925 H 0.05804 0.4468 0.79969 0.0
H1926 H 0.10607 0.45057 0.80187 0.0
H1927 H 0.021 0.47227 0.83008 0.0
H1928 H 0.04284 0.46357 0.73882 0.0
H1929 H 0.06436 0.47527 0.69662 0.0
H1930 H 0.02265 0.54939 0.6954 0.0
H1931 H 0.00111 0.53826 0.7378 0.0
C1932 C 0.89602 0.46472 0.79996 0.0
C1933 C 0.88256 0.48894 0.79706 0.0
C1934 C 0.92348 0.46366 0.79781 0.0
C1935 C 0.9379 0.48677 0.79267 0.0
C1936 C 0.92455 0.51081 0.78904 0.0
C1937 C 0.89711 0.51194 0.79134 0.0
C1938 C 0.96703 0.48611 0.79208 0.0
C1939 C 0.98004 0.49371 0.76877 0.0
C1940 C 0.9819 0.47793 0.81433 0.0
C1941 C 0.96922 0.47051 0.83976 0.0
C1942 C 0.95252 0.48842 0.85303 0.0
C1943 C 0.94046 0.48118 0.87686 0.0
C1944 C 0.94511 0.45616 0.88772 0.0
C1945 C 0.96191 0.43835 0.8748 0.0
C1946 C 0.97399 0.44548 0.85095 0.0
C1947 C 0.09116 0.5149 0.78712 0.0
C1948 C 0.10688 0.49266 0.79293 0.0
C1949 C 0.06374 0.5126 0.78577 0.0
C1950 C 0.05159 0.48807 0.79024 0.0
C1951 C 0.06714 0.46587 0.79612 0.0
C1952 C 0.09457 0.46809 0.7973 0.0
C1953 C 0.02253 0.48588 0.78966 0.0
C1954 C 0.00951 0.47775 0.81277 0.0
C1955 C 0.00768 0.49339 0.76716 0.0
C1956 C 0.02054 0.50019 0.74163 0.0
C1957 C 0.03842 0.48247 0.72968 0.0
C1958 C 0.05059 0.48897 0.70569 0.0
C1959 C 0.04493 0.51309 0.69338 0.0
C1960 C 0.02703 0.53072 0.70499 0.0
C1961 C 0.01481 0.52431 0.72898 0.0
H1962 H 0.05437 0.5181 0.67481 0.0
H1963 H 0.93576 0.45059 0.90617 0.0
H1964 H 0.44889 0.10785 0.79188 0.0
H1965 H 0.4483 0.05955 0.78911 0.0
H1966 H 0.53296 0.05754 0.79872 0.0
H1967 H 0.53389 0.1057 0.80111 0.0
H1968 H 0.51704 0.02366 0.76071 0.0
H1969 H 0.49272 0.04474 0.85054 0.0
H1970 H 0.4664 0.06659 0.88541 0.0
H1971 H 0.39633 0.02816 0.857 0.0
H1972 H 0.42219 0.00634 0.82172 0.0
H1973 H 0.5363 0.8908 0.80198 0.0
H1974 H 0.53449 0.93899 0.79875 0.0
H1975 H 0.44987 0.93564 0.78929 0.0
H1976 H 0.45134 0.88752 0.79285 0.0
H1977 H 0.46395 0.97219 0.82524 0.0
H1978 H 0.48934 0.94886 0.73678 0.0
H1979 H 0.51627 0.92676 0.70256 0.0
H1980 H 0.5849 0.96911 0.7288 0.0
H1981 H 0.55846 0.99119 0.76345 0.0
C1982 C 0.46741 0.09717 0.79334 0.0
C1983 C 0.49142 0.11068 0.79691 0.0
C1984 C 0.46701 0.06957 0.7918 0.0
C1985 C 0.49056 0.05502 0.794 0.0
C1986 C 0.51458 0.06843 0.79698 0.0
C1987 C 0.51502 0.09598 0.79846 0.0
C1988 C 0.49023 0.02577 0.7938 0.0
C1989 C 0.50563 0.01236 0.77495 0.0
C1990 C 0.47489 0.01114 0.81206 0.0
C1991 C 0.45934 0.02414 0.83332 0.0
C1992 C 0.47166 0.04111 0.85161 0.0
C1993 C 0.45684 0.05346 0.87146 0.0
C1994 C 0.4297 0.04882 0.87337 0.0
C1995 C 0.41735 0.03176 0.85547 0.0
C1996 C 0.43208 0.01939 0.83555 0.0
C1997 C 0.51729 0.90026 0.79911 0.0
C1998 C 0.49396 0.88525 0.79772 0.0
C1999 C 0.51632 0.92781 0.79714 0.0
C2000 C 0.49206 0.94081 0.79354 0.0
C2001 C 0.46878 0.92594 0.79205 0.0
C2002 C 0.4697 0.89842 0.79406 0.0
C2003 C 0.49087 0.97003 0.79223 0.0
C2004 C 0.47521 0.98344 0.81085 0.0
C2005 C 0.50603 0.98463 0.77381 0.0
C2006 C 0.52195 0.97151 0.75287 0.0
C2007 C 0.51022 0.95331 0.73539 0.0
C2008 C 0.52539 0.94081 0.71589 0.0
C2009 C 0.55229 0.94648 0.71354 0.0
C2010 C 0.56407 0.96472 0.73065 0.0
C2011 C 0.54899 0.97725 0.75021 0.0
H2012 H 0.564 0.93677 0.69844 0.0
H2013 H 0.41825 0.0584 0.88876 0.0
H2014 H 0.54481 0.88862 0.19643 0.0
H2015 H 0.5457 0.93701 0.1969 0.0
H2016 H 0.4605 0.93897 0.19782 0.0
H2017 H 0.4593 0.89078 0.19709 0.0
H2018 H 0.48126 0.97263 0.1613 0.0
H2019 H 0.49468 0.9509 0.25335 0.0
H2020 H 0.51699 0.92887 0.29077 0.0
H2021 H 0.58935 0.96867 0.27145 0.0
H2022 H 0.56755 0.99064 0.23365 0.0
H2023 H 0.45722 0.10561 0.19597 0.0
H2024 H 0.45926 0.05734 0.19679 0.0
H2025 H 0.54442 0.06042 0.19678 0.0
H2026 H 0.5427 0.10868 0.19627 0.0
H2027 H 0.5257 0.02428 0.23199 0.0
H2028 H 0.51292 0.0465 0.14077 0.0
H2029 H 0.49146 0.06836 0.10276 0.0
H2030 H 0.41911 0.02749 0.11969 0.0
H2031 H 0.44003 0.00567 0.15807 0.0
C2032 C 0.52625 0.89933 0.19677 0.0
C2033 C 0.50198 0.88581 0.19671 0.0
C2034 C 0.52682 0.92695 0.19714 0.0
C2035 C 0.50316 0.94144 0.19756 0.0
C2036 C 0.47895 0.92806 0.19747 0.0
C2037 C 0.47834 0.90051 0.19713 0.0
C2038 C 0.50347 0.97063 0.19765 0.0
C2039 C 0.4907 0.98395 0.17691 0.0
C2040 C 0.51647 0.98524 0.21764 0.0
C2041 C 0.52955 0.97219 0.24049 0.0
C2042 C 0.5154 0.95478 0.25694 0.0
C2043 C 0.52795 0.94234 0.27825 0.0
C2044 C 0.55459 0.9473 0.28344 0.0
C2045 C 0.56872 0.9648 0.26738 0.0
C2046 C 0.55628 0.97727 0.24602 0.0
C2047 C 0.47641 0.09608 0.19621 0.0
C2048 C 0.4998 0.11104 0.19586 0.0
C2049 C 0.47752 0.0685 0.1966 0.0
C2050 C 0.50199 0.05543 0.19652 0.0
C2051 C 0.52536 0.07022 0.19678 0.0
C2052 C 0.52429 0.0978 0.19638 0.0
C2053 C 0.50318 0.02626 0.19583 0.0
C2054 C 0.5163 0.01295 0.21637 0.0
C2055 C 0.49061 0.01162 0.17558 0.0
C2056 C 0.47798 0.02465 0.15246 0.0
C2057 C 0.49237 0.04234 0.13653 0.0
C2058 C 0.48031 0.0547 0.11489 0.0
C2059 C 0.45392 0.04937 0.10886 0.0
C2060 C 0.43954 0.03162 0.12441 0.0
C2061 C 0.4515 0.01924 0.1461 0.0
H2062 H 0.44462 0.05895 0.09209 0.0
H2063 H 0.56427 0.93764 0.29994 0.0
loop_
_geom_bond_atom_site_label_1
_geom_bond_atom_site_label_2
_geom_bond_distance
_geom_bond_site_symmetry_2
_ccdc_geom_bond_type
Sc0 O3 2.025 . S
Sc0 O10 2.105 . S
Sc0 O13 2.105 . S
Sc0 O16 2.105 . S
Sc0 O19 2.105 . S
Sc1 O3 2.025 . S
Sc1 O11 2.105 . S
Sc1 O15 2.105 . S
Sc1 O17 2.105 . S
Sc1 O21 2.105 . S
Sc2 O3 2.025 . S
Sc2 O12 2.105 . S
Sc2 O14 2.105 . S
Sc2 O18 2.105 . S
Sc2 O20 2.105 . S
O3 Sc0 2.025 . S
O3 Sc1 2.025 . S
O3 Sc2 2.025 . S
C4 O10 1.268 . S
C4 O20 1.268 . S
C5 O11 1.268 . S
C5 O19 1.268 . S
C6 O12 1.268 . S
C6 O21 1.268 . S
C7 O13 1.268 . S
C7 O17 1.268 . S
C8 O14 1.268 . S
C8 O16 1.268 . S
C9 O15 1.268 . S
C9 O18 1.268 . S
O10 Sc0 2.105 . S
O10 C4 1.268 . S
O11 Sc1 2.105 . S
O11 C5 1.268 . S
O12 Sc2 2.105 . S
O12 C6 1.268 . S
O13 Sc0 2.105 . S
O13 C7 1.268 . S
O14 Sc2 2.105 . S
O14 C8 1.268 . S
O15 Sc1 2.105 . S
O15 C9 1.268 . S
O16 Sc0 2.105 . S
O16 C8 1.268 . S
O17 Sc1 2.105 . S
O17 C7 1.268 . S
O18 Sc2 2.105 . S
O18 C9 1.268 . S
O19 Sc0 2.105 . S
O19 C5 1.268 . S
O20 Sc2 2.105 . S
O20 C4 1.268 . S
O21 Sc1 2.105 . S
O21 C6 1.268 . S
Sc22 O25 2.025 . S
Sc22 O32 2.105 . S
Sc22 O35 2.105 . S
Sc22 O38 2.105 . S
Sc22 O41 2.105 . S
Sc23 O25 2.025 . S
Sc23 O33 2.105 . S
Sc23 O37 2.105 . S
Sc23 O39 2.105 . S
Sc23 O43 2.105 . S
Sc24 O25 2.025 . S
Sc24 O34 2.105 . S
Sc24 O36 2.105 . S
Sc24 O40 2.105 . S
Sc24 O42 2.105 . S
O25 Sc22 2.025 . S
O25 Sc23 2.025 . S
O25 Sc24 2.025 . S
C26 O32 1.268 . S
C26 O42 1.268 . S
C27 O33 1.268 . S
C27 O41 1.268 . S
C28 O34 1.268 . S
C28 O43 1.268 . S
C29 O35 1.268 . S
C29 O39 1.268 . S
C30 O36 1.268 . S
C30 O38 1.268 . S
C31 O37 1.268 . S
C31 O40 1.268 . S
O32 Sc22 2.105 . S
O32 C26 1.268 . S
O33 Sc23 2.105 . S
O33 C27 1.268 . S
O34 Sc24 2.105 . S
O34 C28 1.268 . S
O35 Sc22 2.105 . S
O35 C29 1.268 . S
O36 Sc24 2.105 . S
O36 C30 1.268 . S
O37 Sc23 2.105 . S
O37 C31 1.268 . S
O38 Sc22 2.105 . S
O38 C30 1.268 . S
O39 Sc23 2.105 . S
O39 C29 1.268 . S
O40 Sc24 2.105 . S
O40 C31 1.268 . S
O41 Sc22 2.105 . S
O41 C27 1.268 . S
O42 Sc24 2.105 . S
O42 C26 1.268 . S
O43 Sc23 2.105 . S
O43 C28 1.268 . S
Sc44 O47 2.025 . S
Sc44 O54 2.105 . S
Sc44 O57 2.105 . S
Sc44 O60 2.105 . S
Sc44 O63 2.105 . S
Sc45 O47 2.025 . S
Sc45 O55 2.105 . S
Sc45 O59 2.105 . S
Sc45 O61 2.105 . S
Sc45 O65 2.105 . S
Sc46 O47 2.025 . S
Sc46 O56 2.105 . S
Sc46 O58 2.105 . S
Sc46 O62 2.105 . S
Sc46 O64 2.105 . S
O47 Sc44 2.025 . S
O47 Sc45 2.025 . S
O47 Sc46 2.025 . S
C48 O54 1.268 . S
C48 O64 1.268 . S
C49 O55 1.268 . S
C49 O63 1.268 . S
C50 O56 1.268 . S
C50 O65 1.268 . S
C51 O57 1.268 . S
C51 O61 1.268 . S
C52 O58 1.268 . S
C52 O60 1.268 . S
C53 O59 1.268 . S
C53 O62 1.268 . S
O54 Sc44 2.105 . S
O54 C48 1.268 . S
O55 Sc45 2.105 . S
O55 C49 1.268 . S
O56 Sc46 2.105 . S
O56 C50 1.268 . S
O57 Sc44 2.105 . S
O57 C51 1.268 . S
O58 Sc46 2.105 . S
O58 C52 1.268 . S
O59 Sc45 2.105 . S
O59 C53 1.268 . S
O60 Sc44 2.105 . S
O60 C52 1.268 . S
O61 Sc45 2.105 . S
O61 C51 1.268 . S
O62 Sc46 2.105 . S
O62 C53 1.268 . S
O63 Sc44 2.105 . S
O63 C49 1.268 . S
O64 Sc46 2.105 . S
O64 C48 1.268 . S
O65 Sc45 2.105 . S
O65 C50 1.268 . S
Sc66 O69 2.025 . S
Sc66 O76 2.105 . S
Sc66 O79 2.105 . S
Sc66 O82 2.105 . S
Sc66 O85 2.105 . S
Sc67 O69 2.025 . S
Sc67 O77 2.105 . S
Sc67 O81 2.105 . S
Sc67 O83 2.105 . S
Sc67 O87 2.105 . S
Sc68 O69 2.025 . S
Sc68 O78 2.105 . S
Sc68 O80 2.105 . S
Sc68 O84 2.105 . S
Sc68 O86 2.105 . S
O69 Sc66 2.025 . S
O69 Sc67 2.025 . S
O69 Sc68 2.025 . S
C70 O76 1.268 . S
C70 O86 1.268 . S
C71 O77 1.268 . S
C71 O85 1.268 . S
C72 O78 1.268 . S
C72 O87 1.268 . S
C73 O79 1.268 . S
C73 O83 1.268 . S
C74 O80 1.268 . S
C74 O82 1.268 . S
C75 O81 1.268 . S
C75 O84 1.268 . S
O76 Sc66 2.105 . S
O76 C70 1.268 . S
O77 Sc67 2.105 . S
O77 C71 1.268 . S
O78 Sc68 2.105 . S
O78 C72 1.268 . S
O79 Sc66 2.105 . S
O79 C73 1.268 . S
O80 Sc68 2.105 . S
O80 C74 1.268 . S
O81 Sc67 2.105 . S
O81 C75 1.268 . S
O82 Sc66 2.105 . S
O82 C74 1.268 . S
O83 Sc67 2.105 . S
O83 C73 1.268 . S
O84 Sc68 2.105 . S
O84 C75 1.268 . S
O85 Sc66 2.105 . S
O85 C71 1.268 . S
O86 Sc68 2.105 . S
O86 C70 1.268 . S
O87 Sc67 2.105 . S
O87 C72 1.268 . S
Sc88 O91 2.025 . S
Sc88 O98 2.105 . S
Sc88 O101 2.105 . S
Sc88 O104 2.105 . S
Sc88 O107 2.105 . S
Sc89 O91 2.025 . S
Sc89 O99 2.105 . S
Sc89 O103 2.105 . S
Sc89 O105 2.105 . S
Sc89 O109 2.105 . S
Sc90 O91 2.025 . S
Sc90 O100 2.105 . S
Sc90 O102 2.105 . S
Sc90 O106 2.105 . S
Sc90 O108 2.105 . S
O91 Sc88 2.025 . S
O91 Sc89 2.025 . S
O91 Sc90 2.025 . S
C92 O98 1.268 . S
C92 O108 1.268 . S
C93 O99 1.268 . S
C93 O107 1.268 . S
C94 O100 1.268 . S
C94 O109 1.268 . S
C95 O101 1.268 . S
C95 O105 1.268 . S
C96 O102 1.268 . S
C96 O104 1.268 . S
C97 O103 1.268 . S
C97 O106 1.268 . S
O98 Sc88 2.105 . S
O98 C92 1.268 . S
O99 Sc89 2.105 . S
O99 C93 1.268 . S
O100 Sc90 2.105 . S
O100 C94 1.268 . S
O101 Sc88 2.105 . S
O101 C95 1.268 . S
O102 Sc90 2.105 . S
O102 C96 1.268 . S
O103 Sc89 2.105 . S
O103 C97 1.268 . S
O104 Sc88 2.105 . S
O104 C96 1.268 . S
O105 Sc89 2.105 . S
O105 C95 1.268 . S
O106 Sc90 2.105 . S
O106 C97 1.268 . S
O107 Sc88 2.105 . S
O107 C93 1.268 . S
O108 Sc90 2.105 . S
O108 C92 1.268 . S
O109 Sc89 2.105 . S
O109 C94 1.268 . S
Sc110 O113 2.025 . S
Sc110 O120 2.105 . S
Sc110 O123 2.105 . S
Sc110 O126 2.105 . S
Sc110 O129 2.105 . S
Sc111 O113 2.025 . S
Sc111 O121 2.105 . S
Sc111 O125 2.105 . S
Sc111 O127 2.105 . S
Sc111 O131 2.105 . S
Sc112 O113 2.025 . S
Sc112 O122 2.105 . S
Sc112 O124 2.105 . S
Sc112 O128 2.105 . S
Sc112 O130 2.105 . S
O113 Sc110 2.025 . S
O113 Sc111 2.025 . S
O113 Sc112 2.025 . S
C114 O120 1.268 . S
C114 O130 1.268 . S
C115 O121 1.268 . S
C115 O129 1.268 . S
C116 O122 1.268 . S
C116 O131 1.268 . S
C117 O123 1.268 . S
C117 O127 1.268 . S
C118 O124 1.268 . S
C118 O126 1.268 . S
C119 O125 1.268 . S
C119 O128 1.268 . S
O120 Sc110 2.105 . S
O120 C114 1.268 . S
O121 Sc111 2.105 . S
O121 C115 1.268 . S
O122 Sc112 2.105 . S
O122 C116 1.268 . S
O123 Sc110 2.105 . S
O123 C117 1.268 . S
O124 Sc112 2.105 . S
O124 C118 1.268 . S
O125 Sc111 2.105 . S
O125 C119 1.268 . S
O126 Sc110 2.105 . S
O126 C118 1.268 . S
O127 Sc111 2.105 . S
O127 C117 1.268 . S
O128 Sc112 2.105 . S
O128 C119 1.268 . S
O129 Sc110 2.105 . S
O129 C115 1.268 . S
O130 Sc112 2.105 . S
O130 C114 1.268 . S
O131 Sc111 2.105 . S
O131 C116 1.268 . S
Sc132 O135 2.025 . S
Sc132 O142 2.105 . S
Sc132 O145 2.105 . S
Sc132 O148 2.105 . S
Sc132 O151 2.105 . S
Sc133 O135 2.025 . S
Sc133 O143 2.105 . S
Sc133 O147 2.105 . S
Sc133 O149 2.105 . S
Sc133 O153 2.105 . S
Sc134 O135 2.025 . S
Sc134 O144 2.105 . S
Sc134 O146 2.105 . S
Sc134 O150 2.105 . S
Sc134 O152 2.105 . S
O135 Sc132 2.025 . S
O135 Sc133 2.025 . S
O135 Sc134 2.025 . S
C136 O142 1.268 . S
C136 O152 1.268 . S
C137 O143 1.268 . S
C137 O151 1.268 . S
C138 O144 1.268 . S
C138 O153 1.268 . S
C139 O145 1.268 . S
C139 O149 1.268 . S
C140 O146 1.268 . S
C140 O148 1.268 . S
C141 O147 1.268 . S
C141 O150 1.268 . S
O142 Sc132 2.105 . S
O142 C136 1.268 . S
O143 Sc133 2.105 . S
O143 C137 1.268 . S
O144 Sc134 2.105 . S
O144 C138 1.268 . S
O145 Sc132 2.105 . S
O145 C139 1.268 . S
O146 Sc134 2.105 . S
O146 C140 1.268 . S
O147 Sc133 2.105 . S
O147 C141 1.268 . S
O148 Sc132 2.105 . S
O148 C140 1.268 . S
O149 Sc133 2.105 . S
O149 C139 1.268 . S
O150 Sc134 2.105 . S
O150 C141 1.268 . S
O151 Sc132 2.105 . S
O151 C137 1.268 . S
O152 Sc134 2.105 . S
O152 C136 1.268 . S
O153 Sc133 2.105 . S
O153 C138 1.268 . S
Sc154 O157 2.025 . S
Sc154 O164 2.105 . S
Sc154 O167 2.105 . S
Sc154 O170 2.105 . S
Sc154 O173 2.105 . S
Sc155 O157 2.025 . S
Sc155 O165 2.105 . S
Sc155 O169 2.105 . S
Sc155 O171 2.105 . S
Sc155 O175 2.105 . S
Sc156 O157 2.025 . S
Sc156 O166 2.105 . S
Sc156 O168 2.105 . S
Sc156 O172 2.105 . S
Sc156 O174 2.105 . S
O157 Sc154 2.025 . S
O157 Sc155 2.025 . S
O157 Sc156 2.025 . S
C158 O164 1.268 . S
C158 O174 1.268 . S
C159 O165 1.268 . S
C159 O173 1.268 . S
C160 O166 1.268 . S
C160 O175 1.268 . S
C161 O167 1.268 . S
C161 O171 1.268 . S
C162 O168 1.268 . S
C162 O170 1.268 . S
C163 O169 1.268 . S
C163 O172 1.268 . S
O164 Sc154 2.105 . S
O164 C158 1.268 . S
O165 Sc155 2.105 . S
O165 C159 1.268 . S
O166 Sc156 2.105 . S
O166 C160 1.268 . S
O167 Sc154 2.105 . S
O167 C161 1.268 . S
O168 Sc156 2.105 . S
O168 C162 1.268 . S
O169 Sc155 2.105 . S
O169 C163 1.268 . S
O170 Sc154 2.105 . S
O170 C162 1.268 . S
O171 Sc155 2.105 . S
O171 C161 1.268 . S
O172 Sc156 2.105 . S
O172 C163 1.268 . S
O173 Sc154 2.105 . S
O173 C159 1.268 . S
O174 Sc156 2.105 . S
O174 C158 1.268 . S
O175 Sc155 2.105 . S
O175 C160 1.268 . S
Sc176 O179 2.025 . S
Sc176 O186 2.105 . S
Sc176 O189 2.105 . S
Sc176 O192 2.105 . S
Sc176 O195 2.105 . S
Sc177 O179 2.025 . S
Sc177 O187 2.105 . S
Sc177 O191 2.105 . S
Sc177 O193 2.105 . S
Sc177 O197 2.105 . S
Sc178 O179 2.025 . S
Sc178 O188 2.105 . S
Sc178 O190 2.105 . S
Sc178 O194 2.105 . S
Sc178 O196 2.105 . S
O179 Sc176 2.025 . S
O179 Sc177 2.025 . S
O179 Sc178 2.025 . S
C180 O186 1.268 . S
C180 O196 1.268 . S
C181 O187 1.268 . S
C181 O195 1.268 . S
C182 O188 1.268 . S
C182 O197 1.268 . S
C183 O189 1.268 . S
C183 O193 1.268 . S
C184 O190 1.268 . S
C184 O192 1.268 . S
C185 O191 1.268 . S
C185 O194 1.268 . S
O186 Sc176 2.105 . S
O186 C180 1.268 . S
O187 Sc177 2.105 . S
O187 C181 1.268 . S
O188 Sc178 2.105 . S
O188 C182 1.268 . S
O189 Sc176 2.105 . S
O189 C183 1.268 . S
O190 Sc178 2.105 . S
O190 C184 1.268 . S
O191 Sc177 2.105 . S
O191 C185 1.268 . S
O192 Sc176 2.105 . S
O192 C184 1.268 . S
O193 Sc177 2.105 . S
O193 C183 1.268 . S
O194 Sc178 2.105 . S
O194 C185 1.268 . S
O195 Sc176 2.105 . S
O195 C181 1.268 . S
O196 Sc178 2.105 . S
O196 C180 1.268 . S
O197 Sc177 2.105 . S
O197 C182 1.268 . S
Sc198 O201 2.025 . S
Sc198 O208 2.105 . S
Sc198 O211 2.105 . S
Sc198 O214 2.105 . S
Sc198 O217 2.105 . S
Sc199 O201 2.025 . S
Sc199 O209 2.105 . S
Sc199 O213 2.105 . S
Sc199 O215 2.105 . S
Sc199 O219 2.105 . S
Sc200 O201 2.025 . S
Sc200 O210 2.105 . S
Sc200 O212 2.105 . S
Sc200 O216 2.105 . S
Sc200 O218 2.105 . S
O201 Sc198 2.025 . S
O201 Sc199 2.025 . S
O201 Sc200 2.025 . S
C202 O208 1.268 . S
C202 O218 1.268 . S
C203 O209 1.268 . S
C203 O217 1.268 . S
C204 O210 1.268 . S
C204 O219 1.268 . S
C205 O211 1.268 . S
C205 O215 1.268 . S
C206 O212 1.268 . S
C206 O214 1.268 . S
C207 O213 1.268 . S
C207 O216 1.268 . S
O208 Sc198 2.105 . S
O208 C202 1.268 . S
O209 Sc199 2.105 . S
O209 C203 1.268 . S
O210 Sc200 2.105 . S
O210 C204 1.268 . S
O211 Sc198 2.105 . S
O211 C205 1.268 . S
O212 Sc200 2.105 . S
O212 C206 1.268 . S
O213 Sc199 2.105 . S
O213 C207 1.268 . S
O214 Sc198 2.105 . S
O214 C206 1.268 . S
O215 Sc199 2.105 . S
O215 C205 1.268 . S
O216 Sc200 2.105 . S
O216 C207 1.268 . S
O217 Sc198 2.105 . S
O217 C203 1.268 . S
O218 Sc200 2.105 . S
O218 C202 1.268 . S
O219 Sc199 2.105 . S
O219 C204 1.268 . S
Sc220 O223 2.025 . S
Sc220 O230 2.105 . S
Sc220 O233 2.105 . S
Sc220 O236 2.105 . S
Sc220 O239 2.105 . S
Sc221 O223 2.025 . S
Sc221 O231 2.105 . S
Sc221 O235 2.105 . S
Sc221 O237 2.105 . S
Sc221 O241 2.105 . S
Sc222 O223 2.025 . S
Sc222 O232 2.105 . S
Sc222 O234 2.105 . S
Sc222 O238 2.105 . S
Sc222 O240 2.105 . S
O223 Sc220 2.025 . S
O223 Sc221 2.025 . S
O223 Sc222 2.025 . S
C224 O230 1.268 . S
C224 O240 1.268 . S
C225 O231 1.268 . S
C225 O239 1.268 . S
C226 O232 1.268 . S
C226 O241 1.268 . S
C227 O233 1.268 . S
C227 O237 1.268 . S
C228 O234 1.268 . S
C228 O236 1.268 . S
C229 O235 1.268 . S
C229 O238 1.268 . S
O230 Sc220 2.105 . S
O230 C224 1.268 . S
O231 Sc221 2.105 . S
O231 C225 1.268 . S
O232 Sc222 2.105 . S
O232 C226 1.268 . S
O233 Sc220 2.105 . S
O233 C227 1.268 . S
O234 Sc222 2.105 . S
O234 C228 1.268 . S
O235 Sc221 2.105 . S
O235 C229 1.268 . S
O236 Sc220 2.105 . S
O236 C228 1.268 . S
O237 Sc221 2.105 . S
O237 C227 1.268 . S
O238 Sc222 2.105 . S
O238 C229 1.268 . S
O239 Sc220 2.105 . S
O239 C225 1.268 . S
O240 Sc222 2.105 . S
O240 C224 1.268 . S
O241 Sc221 2.105 . S
O241 C226 1.268 . S
Sc242 O245 2.025 . S
Sc242 O252 2.105 . S
Sc242 O255 2.105 . S
Sc242 O258 2.105 . S
Sc242 O261 2.105 . S
Sc243 O245 2.025 . S
Sc243 O253 2.105 . S
Sc243 O257 2.105 . S
Sc243 O259 2.105 . S
Sc243 O263 2.105 . S
Sc244 O245 2.025 . S
Sc244 O254 2.105 . S
Sc244 O256 2.105 . S
Sc244 O260 2.105 . S
Sc244 O262 2.105 . S
O245 Sc242 2.025 . S
O245 Sc243 2.025 . S
O245 Sc244 2.025 . S
C246 O252 1.268 . S
C246 O262 1.268 . S
C247 O253 1.268 . S
C247 O261 1.268 . S
C248 O254 1.268 . S
C248 O263 1.268 . S
C249 O255 1.268 . S
C249 O259 1.268 . S
C250 O256 1.268 . S
C250 O258 1.268 . S
C251 O257 1.268 . S
C251 O260 1.268 . S
O252 Sc242 2.105 . S
O252 C246 1.268 . S
O253 Sc243 2.105 . S
O253 C247 1.268 . S
O254 Sc244 2.105 . S
O254 C248 1.268 . S
O255 Sc242 2.105 . S
O255 C249 1.268 . S
O256 Sc244 2.105 . S
O256 C250 1.268 . S
O257 Sc243 2.105 . S
O257 C251 1.268 . S
O258 Sc242 2.105 . S
O258 C250 1.268 . S
O259 Sc243 2.105 . S
O259 C249 1.268 . S
O260 Sc244 2.105 . S
O260 C251 1.268 . S
O261 Sc242 2.105 . S
O261 C247 1.268 . S
O262 Sc244 2.105 . S
O262 C246 1.268 . S
O263 Sc243 2.105 . S
O263 C248 1.268 . S
H264 C282 0.951 . S
H265 C284 0.951 . S
H266 C286 0.950 . S
H267 C287 0.950 . S
H268 C289 0.950 . S
H269 C292 0.950 . S
H270 C293 0.950 . S
H271 C295 0.950 . S
H272 C296 0.950 . S
H273 C297 0.951 . S
H274 C299 0.951 . S
H275 C301 0.950 . S
H276 C302 0.950 . S
H277 C304 0.950 . S
H278 C307 0.950 . S
H279 C308 0.950 . S
H280 C310 0.950 . S
H281 C311 0.950 . S
C282 H264 0.951 . S
C282 C283 1.366 . S
C282 C284 1.388 . S
C283 C282 1.366 . S
C283 C287 1.385 . S
C284 H265 0.951 . S
C284 C282 1.388 . S
C284 C285 1.366 . S
C285 C284 1.366 . S
C285 C286 1.414 . S
C285 C288 1.499 . S
C286 H266 0.950 . S
C286 C285 1.414 . S
C286 C287 1.374 . S
C287 H267 0.950 . S
C287 C283 1.385 . S
C287 C286 1.374 . S
C288 C285 1.499 . S
C288 C289 1.373 . S
C288 C290 1.389 . S
C289 H268 0.950 . S
C289 C288 1.373 . S
C289 C305 1.377 . S
C290 C288 1.389 . S
C290 C291 1.524 . S
C290 C304 1.377 . S
C291 C290 1.524 . S
C291 C292 1.397 . S
C291 C296 1.363 . S
C292 H269 0.950 . S
C292 C291 1.397 . S
C292 C293 1.334 . S
C293 H270 0.950 . S
C293 C292 1.334 . S
C293 C294 1.287 . S
C294 C293 1.287 . S
C294 C295 1.524 . S
C294 H313 0.913 . S
C295 H271 0.950 . S
C295 C294 1.524 . S
C295 C296 1.415 . S
C296 H272 0.950 . S
C296 C291 1.363 . S
C296 C295 1.415 . S
C297 H273 0.951 . S
C297 C298 1.366 . S
C297 C299 1.388 . S
C298 C297 1.366 . S
C298 C302 1.385 . S
C299 H274 0.951 . S
C299 C297 1.388 . S
C299 C300 1.366 . S
C300 C299 1.366 . S
C300 C301 1.414 . S
C300 C303 1.499 . S
C301 H275 0.950 . S
C301 C300 1.414 . S
C301 C302 1.374 . S
C302 H276 0.950 . S
C302 C298 1.385 . S
C302 C301 1.374 . S
C303 C300 1.499 . S
C303 C304 1.373 . S
C303 C305 1.389 . S
C304 H277 0.950 . S
C304 C290 1.377 . S
C304 C303 1.373 . S
C305 C289 1.377 . S
C305 C303 1.389 . S
C305 C306 1.524 . S
C306 C305 1.524 . S
C306 C307 1.397 . S
C306 C311 1.363 . S
C307 H278 0.950 . S
C307 C306 1.397 . S
C307 C308 1.334 . S
C308 H279 0.950 . S
C308 C307 1.334 . S
C308 C309 1.287 . S
C309 C308 1.287 . S
C309 C310 1.524 . S
C309 H312 0.999 . S
C310 H280 0.950 . S
C310 C309 1.524 . S
C310 C311 1.415 . S
C311 H281 0.950 . S
C311 C306 1.363 . S
C311 C310 1.415 . S
H312 C309 0.999 . S
H313 C294 0.913 . S
H314 C332 0.951 . S
H315 C334 0.951 . S
H316 C336 0.950 . S
H317 C337 0.950 . S
H318 C339 0.950 . S
H319 C342 0.950 . S
H320 C343 0.950 . S
H321 C345 0.950 . S
H322 C346 0.950 . S
H323 C347 0.951 . S
H324 C349 0.951 . S
H325 C351 0.950 . S
H326 C352 0.950 . S
H327 C354 0.950 . S
H328 C357 0.950 . S
H329 C358 0.950 . S
H330 C360 0.950 . S
H331 C361 0.950 . S
C332 H314 0.951 . S
C332 C333 1.366 . S
C332 C334 1.388 . S
C333 C332 1.366 . S
C333 C337 1.385 . S
C334 H315 0.951 . S
C334 C332 1.388 . S
C334 C335 1.366 . S
C335 C334 1.366 . S
C335 C336 1.414 . S
C335 C338 1.499 . S
C336 H316 0.950 . S
C336 C335 1.414 . S
C336 C337 1.374 . S
C337 H317 0.950 . S
C337 C333 1.385 . S
C337 C336 1.374 . S
C338 C335 1.499 . S
C338 C339 1.373 . S
C338 C340 1.389 . S
C339 H318 0.950 . S
C339 C338 1.373 . S
C339 C355 1.377 . S
C340 C338 1.389 . S
C340 C341 1.524 . S
C340 C354 1.377 . S
C341 C340 1.524 . S
C341 C342 1.397 . S
C341 C346 1.363 . S
C342 H319 0.950 . S
C342 C341 1.397 . S
C342 C343 1.334 . S
C343 H320 0.950 . S
C343 C342 1.334 . S
C343 C344 1.287 . S
C344 C343 1.287 . S
C344 C345 1.524 . S
C344 H363 0.913 . S
C345 H321 0.950 . S
C345 C344 1.524 . S
C345 C346 1.415 . S
C346 H322 0.950 . S
C346 C341 1.363 . S
C346 C345 1.415 . S
C347 H323 0.951 . S
C347 C348 1.366 . S
C347 C349 1.388 . S
C348 C347 1.366 . S
C348 C352 1.385 . S
C349 H324 0.951 . S
C349 C347 1.388 . S
C349 C350 1.366 . S
C350 C349 1.366 . S
C350 C351 1.414 . S
C350 C353 1.499 . S
C351 H325 0.950 . S
C351 C350 1.414 . S
C351 C352 1.374 . S
C352 H326 0.950 . S
C352 C348 1.385 . S
C352 C351 1.374 . S
C353 C350 1.499 . S
C353 C354 1.373 . S
C353 C355 1.389 . S
C354 H327 0.950 . S
C354 C340 1.377 . S
C354 C353 1.373 . S
C355 C339 1.377 . S
C355 C353 1.389 . S
C355 C356 1.524 . S
C356 C355 1.524 . S
C356 C357 1.397 . S
C356 C361 1.363 . S
C357 H328 0.950 . S
C357 C356 1.397 . S
C357 C358 1.334 . S
C358 H329 0.950 . S
C358 C357 1.334 . S
C358 C359 1.287 . S
C359 C358 1.287 . S
C359 C360 1.524 . S
C359 H362 0.999 . S
C360 H330 0.950 . S
C360 C359 1.524 . S
C360 C361 1.415 . S
C361 H331 0.950 . S
C361 C356 1.363 . S
C361 C360 1.415 . S
H362 C359 0.999 . S
H363 C344 0.913 . S
H364 C382 0.951 . S
H365 C384 0.951 . S
H366 C386 0.950 . S
H367 C387 0.950 . S
H368 C389 0.950 . S
H369 C392 0.950 . S
H370 C393 0.950 . S
H371 C395 0.950 . S
H372 C396 0.950 . S
H373 C397 0.951 . S
H374 C399 0.951 . S
H375 C401 0.950 . S
H376 C402 0.950 . S
H377 C404 0.950 . S
H378 C407 0.950 . S
H379 C408 0.950 . S
H380 C410 0.950 . S
H381 C411 0.950 . S
C382 H364 0.951 . S
C382 C383 1.366 . S
C382 C384 1.388 . S
C383 C382 1.366 . S
C383 C387 1.385 . S
C384 H365 0.951 . S
C384 C382 1.388 . S
C384 C385 1.366 . S
C385 C384 1.366 . S
C385 C386 1.414 . S
C385 C388 1.499 . S
C386 H366 0.950 . S
C386 C385 1.414 . S
C386 C387 1.374 . S
C387 H367 0.950 . S
C387 C383 1.385 . S
C387 C386 1.374 . S
C388 C385 1.499 . S
C388 C389 1.373 . S
C388 C390 1.389 . S
C389 H368 0.950 . S
C389 C388 1.373 . S
C389 C405 1.377 . S
C390 C388 1.389 . S
C390 C391 1.524 . S
C390 C404 1.377 . S
C391 C390 1.524 . S
C391 C392 1.397 . S
C391 C396 1.363 . S
C392 H369 0.950 . S
C392 C391 1.397 . S
C392 C393 1.334 . S
C393 H370 0.950 . S
C393 C392 1.334 . S
C393 C394 1.287 . S
C394 C393 1.287 . S
C394 C395 1.524 . S
C394 H413 0.913 . S
C395 H371 0.950 . S
C395 C394 1.524 . S
C395 C396 1.415 . S
C396 H372 0.950 . S
C396 C391 1.363 . S
C396 C395 1.415 . S
C397 H373 0.951 . S
C397 C398 1.366 . S
C397 C399 1.388 . S
C398 C397 1.366 . S
C398 C402 1.385 . S
C399 H374 0.951 . S
C399 C397 1.388 . S
C399 C400 1.366 . S
C400 C399 1.366 . S
C400 C401 1.414 . S
C400 C403 1.499 . S
C401 H375 0.950 . S
C401 C400 1.414 . S
C401 C402 1.374 . S
C402 H376 0.950 . S
C402 C398 1.385 . S
C402 C401 1.374 . S
C403 C400 1.499 . S
C403 C404 1.373 . S
C403 C405 1.389 . S
C404 H377 0.950 . S
C404 C390 1.377 . S
C404 C403 1.373 . S
C405 C389 1.377 . S
C405 C403 1.389 . S
C405 C406 1.524 . S
C406 C405 1.524 . S
C406 C407 1.397 . S
C406 C411 1.363 . S
C407 H378 0.950 . S
C407 C406 1.397 . S
C407 C408 1.334 . S
C408 H379 0.950 . S
C408 C407 1.334 . S
C408 C409 1.287 . S
C409 C408 1.287 . S
C409 C410 1.524 . S
C409 H412 0.999 . S
C410 H380 0.950 . S
C410 C409 1.524 . S
C410 C411 1.415 . S
C411 H381 0.950 . S
C411 C406 1.363 . S
C411 C410 1.415 . S
H412 C409 0.999 . S
H413 C394 0.913 . S
H414 C432 0.951 . S
H415 C434 0.951 . S
H416 C436 0.950 . S
H417 C437 0.950 . S
H418 C439 0.950 . S
H419 C442 0.950 . S
H420 C443 0.950 . S
H421 C445 0.950 . S
H422 C446 0.950 . S
H423 C447 0.951 . S
H424 C449 0.951 . S
H425 C451 0.950 . S
H426 C452 0.950 . S
H427 C454 0.950 . S
H428 C457 0.950 . S
H429 C458 0.950 . S
H430 C460 0.950 . S
H431 C461 0.950 . S
C432 H414 0.951 . S
C432 C433 1.366 . S
C432 C434 1.388 . S
C433 C432 1.366 . S
C433 C437 1.385 . S
C434 H415 0.951 . S
C434 C432 1.388 . S
C434 C435 1.366 . S
C435 C434 1.366 . S
C435 C436 1.414 . S
C435 C438 1.499 . S
C436 H416 0.950 . S
C436 C435 1.414 . S
C436 C437 1.374 . S
C437 H417 0.950 . S
C437 C433 1.385 . S
C437 C436 1.374 . S
C438 C435 1.499 . S
C438 C439 1.373 . S
C438 C440 1.389 . S
C439 H418 0.950 . S
C439 C438 1.373 . S
C439 C455 1.377 . S
C440 C438 1.389 . S
C440 C441 1.524 . S
C440 C454 1.377 . S
C441 C440 1.524 . S
C441 C442 1.397 . S
C441 C446 1.363 . S
C442 H419 0.950 . S
C442 C441 1.397 . S
C442 C443 1.334 . S
C443 H420 0.950 . S
C443 C442 1.334 . S
C443 C444 1.287 . S
C444 C443 1.287 . S
C444 C445 1.524 . S
C444 H463 0.913 . S
C445 H421 0.950 . S
C445 C444 1.524 . S
C445 C446 1.415 . S
C446 H422 0.950 . S
C446 C441 1.363 . S
C446 C445 1.415 . S
C447 H423 0.951 . S
C447 C448 1.366 . S
C447 C449 1.388 . S
C448 C447 1.366 . S
C448 C452 1.385 . S
C449 H424 0.951 . S
C449 C447 1.388 . S
C449 C450 1.366 . S
C450 C449 1.366 . S
C450 C451 1.414 . S
C450 C453 1.499 . S
C451 H425 0.950 . S
C451 C450 1.414 . S
C451 C452 1.374 . S
C452 H426 0.950 . S
C452 C448 1.385 . S
C452 C451 1.374 . S
C453 C450 1.499 . S
C453 C454 1.373 . S
C453 C455 1.389 . S
C454 H427 0.950 . S
C454 C440 1.377 . S
C454 C453 1.373 . S
C455 C439 1.377 . S
C455 C453 1.389 . S
C455 C456 1.524 . S
C456 C455 1.524 . S
C456 C457 1.397 . S
C456 C461 1.363 . S
C457 H428 0.950 . S
C457 C456 1.397 . S
C457 C458 1.334 . S
C458 H429 0.950 . S
C458 C457 1.334 . S
C458 C459 1.287 . S
C459 C458 1.287 . S
C459 C460 1.524 . S
C459 H462 0.999 . S
C460 H430 0.950 . S
C460 C459 1.524 . S
C460 C461 1.415 . S
C461 H431 0.950 . S
C461 C456 1.363 . S
C461 C460 1.415 . S
H462 C459 0.999 . S
H463 C444 0.913 . S
H464 C482 0.951 . S
H465 C484 0.951 . S
H466 C486 0.950 . S
H467 C487 0.950 . S
H468 C489 0.950 . S
H469 C492 0.950 . S
H470 C493 0.950 . S
H471 C495 0.950 . S
H472 C496 0.950 . S
H473 C497 0.951 . S
H474 C499 0.951 . S
H475 C501 0.950 . S
H476 C502 0.950 . S
H477 C504 0.950 . S
H478 C507 0.950 . S
H479 C508 0.950 . S
H480 C510 0.950 . S
H481 C511 0.950 . S
C482 H464 0.951 . S
C482 C483 1.366 . S
C482 C484 1.388 . S
C483 C482 1.366 . S
C483 C487 1.385 . S
C484 H465 0.951 . S
C484 C482 1.388 . S
C484 C485 1.366 . S
C485 C484 1.366 . S
C485 C486 1.414 . S
C485 C488 1.499 . S
C486 H466 0.950 . S
C486 C485 1.414 . S
C486 C487 1.374 . S
C487 H467 0.950 . S
C487 C483 1.385 . S
C487 C486 1.374 . S
C488 C485 1.499 . S
C488 C489 1.373 . S
C488 C490 1.389 . S
C489 H468 0.950 . S
C489 C488 1.373 . S
C489 C505 1.377 . S
C490 C488 1.389 . S
C490 C491 1.524 . S
C490 C504 1.377 . S
C491 C490 1.524 . S
C491 C492 1.397 . S
C491 C496 1.363 . S
C492 H469 0.950 . S
C492 C491 1.397 . S
C492 C493 1.334 . S
C493 H470 0.950 . S
C493 C492 1.334 . S
C493 C494 1.287 . S
C494 C493 1.287 . S
C494 C495 1.524 . S
C494 H513 0.913 . S
C495 H471 0.950 . S
C495 C494 1.524 . S
C495 C496 1.415 . S
C496 H472 0.950 . S
C496 C491 1.363 . S
C496 C495 1.415 . S
C497 H473 0.951 . S
C497 C498 1.366 . S
C497 C499 1.388 . S
C498 C497 1.366 . S
C498 C502 1.385 . S
C499 H474 0.951 . S
C499 C497 1.388 . S
C499 C500 1.366 . S
C500 C499 1.366 . S
C500 C501 1.414 . S
C500 C503 1.499 . S
C501 H475 0.950 . S
C501 C500 1.414 . S
C501 C502 1.374 . S
C502 H476 0.950 . S
C502 C498 1.385 . S
C502 C501 1.374 . S
C503 C500 1.499 . S
C503 C504 1.373 . S
C503 C505 1.389 . S
C504 H477 0.950 . S
C504 C490 1.377 . S
C504 C503 1.373 . S
C505 C489 1.377 . S
C505 C503 1.389 . S
C505 C506 1.524 . S
C506 C505 1.524 . S
C506 C507 1.397 . S
C506 C511 1.363 . S
C507 H478 0.950 . S
C507 C506 1.397 . S
C507 C508 1.334 . S
C508 H479 0.950 . S
C508 C507 1.334 . S
C508 C509 1.287 . S
C509 C508 1.287 . S
C509 C510 1.524 . S
C509 H512 0.999 . S
C510 H480 0.950 . S
C510 C509 1.524 . S
C510 C511 1.415 . S
C511 H481 0.950 . S
C511 C506 1.363 . S
C511 C510 1.415 . S
H512 C509 0.999 . S
H513 C494 0.913 . S
H514 C532 0.951 . S
H515 C534 0.951 . S
H516 C536 0.950 . S
H517 C537 0.950 . S
H518 C539 0.950 . S
H519 C542 0.950 . S
H520 C543 0.950 . S
H521 C545 0.950 . S
H522 C546 0.950 . S
H523 C547 0.951 . S
H524 C549 0.951 . S
H525 C551 0.950 . S
H526 C552 0.950 . S
H527 C554 0.950 . S
H528 C557 0.950 . S
H529 C558 0.950 . S
H530 C560 0.950 . S
H531 C561 0.950 . S
C532 H514 0.951 . S
C532 C533 1.366 . S
C532 C534 1.388 . S
C533 C532 1.366 . S
C533 C537 1.385 . S
C534 H515 0.951 . S
C534 C532 1.388 . S
C534 C535 1.366 . S
C535 C534 1.366 . S
C535 C536 1.414 . S
C535 C538 1.499 . S
C536 H516 0.950 . S
C536 C535 1.414 . S
C536 C537 1.374 . S
C537 H517 0.950 . S
C537 C533 1.385 . S
C537 C536 1.374 . S
C538 C535 1.499 . S
C538 C539 1.373 . S
C538 C540 1.389 . S
C539 H518 0.950 . S
C539 C538 1.373 . S
C539 C555 1.377 . S
C540 C538 1.389 . S
C540 C541 1.524 . S
C540 C554 1.377 . S
C541 C540 1.524 . S
C541 C542 1.397 . S
C541 C546 1.363 . S
C542 H519 0.950 . S
C542 C541 1.397 . S
C542 C543 1.334 . S
C543 H520 0.950 . S
C543 C542 1.334 . S
C543 C544 1.287 . S
C544 C543 1.287 . S
C544 C545 1.524 . S
C544 H563 0.913 . S
C545 H521 0.950 . S
C545 C544 1.524 . S
C545 C546 1.415 . S
C546 H522 0.950 . S
C546 C541 1.363 . S
C546 C545 1.415 . S
C547 H523 0.951 . S
C547 C548 1.366 . S
C547 C549 1.388 . S
C548 C547 1.366 . S
C548 C552 1.385 . S
C549 H524 0.951 . S
C549 C547 1.388 . S
C549 C550 1.366 . S
C550 C549 1.366 . S
C550 C551 1.414 . S
C550 C553 1.499 . S
C551 H525 0.950 . S
C551 C550 1.414 . S
C551 C552 1.374 . S
C552 H526 0.950 . S
C552 C548 1.385 . S
C552 C551 1.374 . S
C553 C550 1.499 . S
C553 C554 1.373 . S
C553 C555 1.389 . S
C554 H527 0.950 . S
C554 C540 1.377 . S
C554 C553 1.373 . S
C555 C539 1.377 . S
C555 C553 1.389 . S
C555 C556 1.524 . S
C556 C555 1.524 . S
C556 C557 1.397 . S
C556 C561 1.363 . S
C557 H528 0.950 . S
C557 C556 1.397 . S
C557 C558 1.334 . S
C558 H529 0.950 . S
C558 C557 1.334 . S
C558 C559 1.287 . S
C559 C558 1.287 . S
C559 C560 1.524 . S
C559 H562 0.999 . S
C560 H530 0.950 . S
C560 C559 1.524 . S
C560 C561 1.415 . S
C561 H531 0.950 . S
C561 C556 1.363 . S
C561 C560 1.415 . S
H562 C559 0.999 . S
H563 C544 0.913 . S
H564 C582 0.951 . S
H565 C584 0.951 . S
H566 C586 0.950 . S
H567 C587 0.950 . S
H568 C589 0.950 . S
H569 C592 0.950 . S
H570 C593 0.950 . S
H571 C595 0.950 . S
H572 C596 0.950 . S
H573 C597 0.951 . S
H574 C599 0.951 . S
H575 C601 0.950 . S
H576 C602 0.950 . S
H577 C604 0.950 . S
H578 C607 0.950 . S
H579 C608 0.950 . S
H580 C610 0.950 . S
H581 C611 0.950 . S
C582 H564 0.951 . S
C582 C583 1.366 . S
C582 C584 1.388 . S
C583 C582 1.366 . S
C583 C587 1.385 . S
C584 H565 0.951 . S
C584 C582 1.388 . S
C584 C585 1.366 . S
C585 C584 1.366 . S
C585 C586 1.414 . S
C585 C588 1.499 . S
C586 H566 0.950 . S
C586 C585 1.414 . S
C586 C587 1.374 . S
C587 H567 0.950 . S
C587 C583 1.385 . S
C587 C586 1.374 . S
C588 C585 1.499 . S
C588 C589 1.373 . S
C588 C590 1.389 . S
C589 H568 0.950 . S
C589 C588 1.373 . S
C589 C605 1.377 . S
C590 C588 1.389 . S
C590 C591 1.524 . S
C590 C604 1.377 . S
C591 C590 1.524 . S
C591 C592 1.397 . S
C591 C596 1.363 . S
C592 H569 0.950 . S
C592 C591 1.397 . S
C592 C593 1.334 . S
C593 H570 0.950 . S
C593 C592 1.334 . S
C593 C594 1.287 . S
C594 C593 1.287 . S
C594 C595 1.524 . S
C594 H613 0.913 . S
C595 H571 0.950 . S
C595 C594 1.524 . S
C595 C596 1.415 . S
C596 H572 0.950 . S
C596 C591 1.363 . S
C596 C595 1.415 . S
C597 H573 0.951 . S
C597 C598 1.366 . S
C597 C599 1.388 . S
C598 C597 1.366 . S
C598 C602 1.385 . S
C599 H574 0.951 . S
C599 C597 1.388 . S
C599 C600 1.366 . S
C600 C599 1.366 . S
C600 C601 1.414 . S
C600 C603 1.499 . S
C601 H575 0.950 . S
C601 C600 1.414 . S
C601 C602 1.374 . S
C602 H576 0.950 . S
C602 C598 1.385 . S
C602 C601 1.374 . S
C603 C600 1.499 . S
C603 C604 1.373 . S
C603 C605 1.389 . S
C604 H577 0.950 . S
C604 C590 1.377 . S
C604 C603 1.373 . S
C605 C589 1.377 . S
C605 C603 1.389 . S
C605 C606 1.524 . S
C606 C605 1.524 . S
C606 C607 1.397 . S
C606 C611 1.363 . S
C607 H578 0.950 . S
C607 C606 1.397 . S
C607 C608 1.334 . S
C608 H579 0.950 . S
C608 C607 1.334 . S
C608 C609 1.287 . S
C609 C608 1.287 . S
C609 C610 1.524 . S
C609 H612 0.999 . S
C610 H580 0.950 . S
C610 C609 1.524 . S
C610 C611 1.415 . S
C611 H581 0.950 . S
C611 C606 1.363 . S
C611 C610 1.415 . S
H612 C609 0.999 . S
H613 C594 0.913 . S
H614 C632 0.951 . S
H615 C634 0.951 . S
H616 C636 0.950 . S
H617 C637 0.950 . S
H618 C639 0.950 . S
H619 C642 0.950 . S
H620 C643 0.950 . S
H621 C645 0.950 . S
H622 C646 0.950 . S
H623 C647 0.951 . S
H624 C649 0.951 . S
H625 C651 0.950 . S
H626 C652 0.950 . S
H627 C654 0.950 . S
H628 C657 0.950 . S
H629 C658 0.950 . S
H630 C660 0.950 . S
H631 C661 0.950 . S
C632 H614 0.951 . S
C632 C633 1.366 . S
C632 C634 1.388 . S
C633 C632 1.366 . S
C633 C637 1.385 . S
C634 H615 0.951 . S
C634 C632 1.388 . S
C634 C635 1.366 . S
C635 C634 1.366 . S
C635 C636 1.414 . S
C635 C638 1.499 . S
C636 H616 0.950 . S
C636 C635 1.414 . S
C636 C637 1.374 . S
C637 H617 0.950 . S
C637 C633 1.385 . S
C637 C636 1.374 . S
C638 C635 1.499 . S
C638 C639 1.373 . S
C638 C640 1.389 . S
C639 H618 0.950 . S
C639 C638 1.373 . S
C639 C655 1.377 . S
C640 C638 1.389 . S
C640 C641 1.524 . S
C640 C654 1.377 . S
C641 C640 1.524 . S
C641 C642 1.397 . S
C641 C646 1.363 . S
C642 H619 0.950 . S
C642 C641 1.397 . S
C642 C643 1.334 . S
C643 H620 0.950 . S
C643 C642 1.334 . S
C643 C644 1.287 . S
C644 C643 1.287 . S
C644 C645 1.524 . S
C644 H663 0.913 . S
C645 H621 0.950 . S
C645 C644 1.524 . S
C645 C646 1.415 . S
C646 H622 0.950 . S
C646 C641 1.363 . S
C646 C645 1.415 . S
C647 H623 0.951 . S
C647 C648 1.366 . S
C647 C649 1.388 . S
C648 C647 1.366 . S
C648 C652 1.385 . S
C649 H624 0.951 . S
C649 C647 1.388 . S
C649 C650 1.366 . S
C650 C649 1.366 . S
C650 C651 1.414 . S
C650 C653 1.499 . S
C651 H625 0.950 . S
C651 C650 1.414 . S
C651 C652 1.374 . S
C652 H626 0.950 . S
C652 C648 1.385 . S
C652 C651 1.374 . S
C653 C650 1.499 . S
C653 C654 1.373 . S
C653 C655 1.389 . S
C654 H627 0.950 . S
C654 C640 1.377 . S
C654 C653 1.373 . S
C655 C639 1.377 . S
C655 C653 1.389 . S
C655 C656 1.524 . S
C656 C655 1.524 . S
C656 C657 1.397 . S
C656 C661 1.363 . S
C657 H628 0.950 . S
C657 C656 1.397 . S
C657 C658 1.334 . S
C658 H629 0.950 . S
C658 C657 1.334 . S
C658 C659 1.287 . S
C659 C658 1.287 . S
C659 C660 1.524 . S
C659 H662 0.999 . S
C660 H630 0.950 . S
C660 C659 1.524 . S
C660 C661 1.415 . S
C661 H631 0.950 . S
C661 C656 1.363 . S
C661 C660 1.415 . S
H662 C659 0.999 . S
H663 C644 0.913 . S
H664 C682 0.951 . S
H665 C684 0.951 . S
H666 C686 0.950 . S
H667 C687 0.950 . S
H668 C689 0.950 . S
H669 C692 0.950 . S
H670 C693 0.950 . S
H671 C695 0.950 . S
H672 C696 0.950 . S
H673 C697 0.951 . S
H674 C699 0.951 . S
H675 C701 0.950 . S
H676 C702 0.950 . S
H677 C704 0.950 . S
H678 C707 0.950 . S
H679 C708 0.950 . S
H680 C710 0.950 . S
H681 C711 0.950 . S
C682 H664 0.951 . S
C682 C683 1.366 . S
C682 C684 1.388 . S
C683 C682 1.366 . S
C683 C687 1.385 . S
C684 H665 0.951 . S
C684 C682 1.388 . S
C684 C685 1.366 . S
C685 C684 1.366 . S
C685 C686 1.414 . S
C685 C688 1.499 . S
C686 H666 0.950 . S
C686 C685 1.414 . S
C686 C687 1.374 . S
C687 H667 0.950 . S
C687 C683 1.385 . S
C687 C686 1.374 . S
C688 C685 1.499 . S
C688 C689 1.373 . S
C688 C690 1.389 . S
C689 H668 0.950 . S
C689 C688 1.373 . S
C689 C705 1.377 . S
C690 C688 1.389 . S
C690 C691 1.524 . S
C690 C704 1.377 . S
C691 C690 1.524 . S
C691 C692 1.397 . S
C691 C696 1.363 . S
C692 H669 0.950 . S
C692 C691 1.397 . S
C692 C693 1.334 . S
C693 H670 0.950 . S
C693 C692 1.334 . S
C693 C694 1.287 . S
C694 C693 1.287 . S
C694 C695 1.524 . S
C694 H713 0.913 . S
C695 H671 0.950 . S
C695 C694 1.524 . S
C695 C696 1.415 . S
C696 H672 0.950 . S
C696 C691 1.363 . S
C696 C695 1.415 . S
C697 H673 0.951 . S
C697 C698 1.366 . S
C697 C699 1.388 . S
C698 C697 1.366 . S
C698 C702 1.385 . S
C699 H674 0.951 . S
C699 C697 1.388 . S
C699 C700 1.366 . S
C700 C699 1.366 . S
C700 C701 1.414 . S
C700 C703 1.499 . S
C701 H675 0.950 . S
C701 C700 1.414 . S
C701 C702 1.374 . S
C702 H676 0.950 . S
C702 C698 1.385 . S
C702 C701 1.374 . S
C703 C700 1.499 . S
C703 C704 1.373 . S
C703 C705 1.389 . S
C704 H677 0.950 . S
C704 C690 1.377 . S
C704 C703 1.373 . S
C705 C689 1.377 . S
C705 C703 1.389 . S
C705 C706 1.524 . S
C706 C705 1.524 . S
C706 C707 1.397 . S
C706 C711 1.363 . S
C707 H678 0.950 . S
C707 C706 1.397 . S
C707 C708 1.334 . S
C708 H679 0.950 . S
C708 C707 1.334 . S
C708 C709 1.287 . S
C709 C708 1.287 . S
C709 C710 1.524 . S
C709 H712 0.999 . S
C710 H680 0.950 . S
C710 C709 1.524 . S
C710 C711 1.415 . S
C711 H681 0.950 . S
C711 C706 1.363 . S
C711 C710 1.415 . S
H712 C709 0.999 . S
H713 C694 0.913 . S
H714 C732 0.951 . S
H715 C734 0.951 . S
H716 C736 0.950 . S
H717 C737 0.950 . S
H718 C739 0.950 . S
H719 C742 0.950 . S
H720 C743 0.950 . S
H721 C745 0.950 . S
H722 C746 0.950 . S
H723 C747 0.951 . S
H724 C749 0.951 . S
H725 C751 0.950 . S
H726 C752 0.950 . S
H727 C754 0.950 . S
H728 C757 0.950 . S
H729 C758 0.950 . S
H730 C760 0.950 . S
H731 C761 0.950 . S
C732 H714 0.951 . S
C732 C733 1.366 . S
C732 C734 1.388 . S
C733 C732 1.366 . S
C733 C737 1.385 . S
C734 H715 0.951 . S
C734 C732 1.388 . S
C734 C735 1.366 . S
C735 C734 1.366 . S
C735 C736 1.414 . S
C735 C738 1.499 . S
C736 H716 0.950 . S
C736 C735 1.414 . S
C736 C737 1.374 . S
C737 H717 0.950 . S
C737 C733 1.385 . S
C737 C736 1.374 . S
C738 C735 1.499 . S
C738 C739 1.373 . S
C738 C740 1.389 . S
C739 H718 0.950 . S
C739 C738 1.373 . S
C739 C755 1.377 . S
C740 C738 1.389 . S
C740 C741 1.524 . S
C740 C754 1.377 . S
C741 C740 1.524 . S
C741 C742 1.397 . S
C741 C746 1.363 . S
C742 H719 0.950 . S
C742 C741 1.397 . S
C742 C743 1.334 . S
C743 H720 0.950 . S
C743 C742 1.334 . S
C743 C744 1.287 . S
C744 C743 1.287 . S
C744 C745 1.524 . S
C744 H763 0.913 . S
C745 H721 0.950 . S
C745 C744 1.524 . S
C745 C746 1.415 . S
C746 H722 0.950 . S
C746 C741 1.363 . S
C746 C745 1.415 . S
C747 H723 0.951 . S
C747 C748 1.366 . S
C747 C749 1.388 . S
C748 C747 1.366 . S
C748 C752 1.385 . S
C749 H724 0.951 . S
C749 C747 1.388 . S
C749 C750 1.366 . S
C750 C749 1.366 . S
C750 C751 1.414 . S
C750 C753 1.499 . S
C751 H725 0.950 . S
C751 C750 1.414 . S
C751 C752 1.374 . S
C752 H726 0.950 . S
C752 C748 1.385 . S
C752 C751 1.374 . S
C753 C750 1.499 . S
C753 C754 1.373 . S
C753 C755 1.389 . S
C754 H727 0.950 . S
C754 C740 1.377 . S
C754 C753 1.373 . S
C755 C739 1.377 . S
C755 C753 1.389 . S
C755 C756 1.524 . S
C756 C755 1.524 . S
C756 C757 1.397 . S
C756 C761 1.363 . S
C757 H728 0.950 . S
C757 C756 1.397 . S
C757 C758 1.334 . S
C758 H729 0.950 . S
C758 C757 1.334 . S
C758 C759 1.287 . S
C759 C758 1.287 . S
C759 C760 1.524 . S
C759 H762 0.999 . S
C760 H730 0.950 . S
C760 C759 1.524 . S
C760 C761 1.415 . S
C761 H731 0.950 . S
C761 C756 1.363 . S
C761 C760 1.415 . S
H762 C759 0.999 . S
H763 C744 0.913 . S
H764 C782 0.951 . S
H765 C784 0.951 . S
H766 C786 0.950 . S
H767 C787 0.950 . S
H768 C789 0.950 . S
H769 C792 0.950 . S
H770 C793 0.950 . S
H771 C795 0.950 . S
H772 C796 0.950 . S
H773 C797 0.951 . S
H774 C799 0.951 . S
H775 C801 0.950 . S
H776 C802 0.950 . S
H777 C804 0.950 . S
H778 C807 0.950 . S
H779 C808 0.950 . S
H780 C810 0.950 . S
H781 C811 0.950 . S
C782 H764 0.951 . S
C782 C783 1.366 . S
C782 C784 1.388 . S
C783 C782 1.366 . S
C783 C787 1.385 . S
C784 H765 0.951 . S
C784 C782 1.388 . S
C784 C785 1.366 . S
C785 C784 1.366 . S
C785 C786 1.414 . S
C785 C788 1.499 . S
C786 H766 0.950 . S
C786 C785 1.414 . S
C786 C787 1.374 . S
C787 H767 0.950 . S
C787 C783 1.385 . S
C787 C786 1.374 . S
C788 C785 1.499 . S
C788 C789 1.373 . S
C788 C790 1.389 . S
C789 H768 0.950 . S
C789 C788 1.373 . S
C789 C805 1.377 . S
C790 C788 1.389 . S
C790 C791 1.524 . S
C790 C804 1.377 . S
C791 C790 1.524 . S
C791 C792 1.397 . S
C791 C796 1.363 . S
C792 H769 0.950 . S
C792 C791 1.397 . S
C792 C793 1.334 . S
C793 H770 0.950 . S
C793 C792 1.334 . S
C793 C794 1.287 . S
C794 C793 1.287 . S
C794 C795 1.524 . S
C794 H813 0.913 . S
C795 H771 0.950 . S
C795 C794 1.524 . S
C795 C796 1.415 . S
C796 H772 0.950 . S
C796 C791 1.363 . S
C796 C795 1.415 . S
C797 H773 0.951 . S
C797 C798 1.366 . S
C797 C799 1.388 . S
C798 C797 1.366 . S
C798 C802 1.385 . S
C799 H774 0.951 . S
C799 C797 1.388 . S
C799 C800 1.366 . S
C800 C799 1.366 . S
C800 C801 1.414 . S
C800 C803 1.499 . S
C801 H775 0.950 . S
C801 C800 1.414 . S
C801 C802 1.374 . S
C802 H776 0.950 . S
C802 C798 1.385 . S
C802 C801 1.374 . S
C803 C800 1.499 . S
C803 C804 1.373 . S
C803 C805 1.389 . S
C804 H777 0.950 . S
C804 C790 1.377 . S
C804 C803 1.373 . S
C805 C789 1.377 . S
C805 C803 1.389 . S
C805 C806 1.524 . S
C806 C805 1.524 . S
C806 C807 1.397 . S
C806 C811 1.363 . S
C807 H778 0.950 . S
C807 C806 1.397 . S
C807 C808 1.334 . S
C808 H779 0.950 . S
C808 C807 1.334 . S
C808 C809 1.287 . S
C809 C808 1.287 . S
C809 C810 1.524 . S
C809 H812 0.999 . S
C810 H780 0.950 . S
C810 C809 1.524 . S
C810 C811 1.415 . S
C811 H781 0.950 . S
C811 C806 1.363 . S
C811 C810 1.415 . S
H812 C809 0.999 . S
H813 C794 0.913 . S
H814 C832 0.951 . S
H815 C834 0.951 . S
H816 C836 0.950 . S
H817 C837 0.950 . S
H818 C839 0.950 . S
H819 C842 0.950 . S
H820 C843 0.950 . S
H821 C845 0.950 . S
H822 C846 0.950 . S
H823 C847 0.951 . S
H824 C849 0.951 . S
H825 C851 0.950 . S
H826 C852 0.950 . S
H827 C854 0.950 . S
H828 C857 0.950 . S
H829 C858 0.950 . S
H830 C860 0.950 . S
H831 C861 0.950 . S
C832 H814 0.951 . S
C832 C833 1.366 . S
C832 C834 1.388 . S
C833 C832 1.366 . S
C833 C837 1.385 . S
C834 H815 0.951 . S
C834 C832 1.388 . S
C834 C835 1.366 . S
C835 C834 1.366 . S
C835 C836 1.414 . S
C835 C838 1.499 . S
C836 H816 0.950 . S
C836 C835 1.414 . S
C836 C837 1.374 . S
C837 H817 0.950 . S
C837 C833 1.385 . S
C837 C836 1.374 . S
C838 C835 1.499 . S
C838 C839 1.373 . S
C838 C840 1.389 . S
C839 H818 0.950 . S
C839 C838 1.373 . S
C839 C855 1.377 . S
C840 C838 1.389 . S
C840 C841 1.524 . S
C840 C854 1.377 . S
C841 C840 1.524 . S
C841 C842 1.397 . S
C841 C846 1.363 . S
C842 H819 0.950 . S
C842 C841 1.397 . S
C842 C843 1.334 . S
C843 H820 0.950 . S
C843 C842 1.334 . S
C843 C844 1.287 . S
C844 C843 1.287 . S
C844 C845 1.524 . S
C844 H863 0.913 . S
C845 H821 0.950 . S
C845 C844 1.524 . S
C845 C846 1.415 . S
C846 H822 0.950 . S
C846 C841 1.363 . S
C846 C845 1.415 . S
C847 H823 0.951 . S
C847 C848 1.366 . S
C847 C849 1.388 . S
C848 C847 1.366 . S
C848 C852 1.385 . S
C849 H824 0.951 . S
C849 C847 1.388 . S
C849 C850 1.366 . S
C850 C849 1.366 . S
C850 C851 1.414 . S
C850 C853 1.499 . S
C851 H825 0.950 . S
C851 C850 1.414 . S
C851 C852 1.374 . S
C852 H826 0.950 . S
C852 C848 1.385 . S
C852 C851 1.374 . S
C853 C850 1.499 . S
C853 C854 1.373 . S
C853 C855 1.389 . S
C854 H827 0.950 . S
C854 C840 1.377 . S
C854 C853 1.373 . S
C855 C839 1.377 . S
C855 C853 1.389 . S
C855 C856 1.524 . S
C856 C855 1.524 . S
C856 C857 1.397 . S
C856 C861 1.363 . S
C857 H828 0.950 . S
C857 C856 1.397 . S
C857 C858 1.334 . S
C858 H829 0.950 . S
C858 C857 1.334 . S
C858 C859 1.287 . S
C859 C858 1.287 . S
C859 C860 1.524 . S
C859 H862 0.999 . S
C860 H830 0.950 . S
C860 C859 1.524 . S
C860 C861 1.415 . S
C861 H831 0.950 . S
C861 C856 1.363 . S
C861 C860 1.415 . S
H862 C859 0.999 . S
H863 C844 0.913 . S
H864 C882 0.951 . S
H865 C884 0.951 . S
H866 C886 0.950 . S
H867 C887 0.950 . S
H868 C889 0.950 . S
H869 C892 0.950 . S
H870 C893 0.950 . S
H871 C895 0.950 . S
H872 C896 0.950 . S
H873 C897 0.951 . S
H874 C899 0.951 . S
H875 C901 0.950 . S
H876 C902 0.950 . S
H877 C904 0.950 . S
H878 C907 0.950 . S
H879 C908 0.950 . S
H880 C910 0.950 . S
H881 C911 0.950 . S
C882 H864 0.951 . S
C882 C883 1.366 . S
C882 C884 1.388 . S
C883 C882 1.366 . S
C883 C887 1.385 . S
C884 H865 0.951 . S
C884 C882 1.388 . S
C884 C885 1.366 . S
C885 C884 1.366 . S
C885 C886 1.414 . S
C885 C888 1.499 . S
C886 H866 0.950 . S
C886 C885 1.414 . S
C886 C887 1.374 . S
C887 H867 0.950 . S
C887 C883 1.385 . S
C887 C886 1.374 . S
C888 C885 1.499 . S
C888 C889 1.373 . S
C888 C890 1.389 . S
C889 H868 0.950 . S
C889 C888 1.373 . S
C889 C905 1.377 . S
C890 C888 1.389 . S
C890 C891 1.524 . S
C890 C904 1.377 . S
C891 C890 1.524 . S
C891 C892 1.397 . S
C891 C896 1.363 . S
C892 H869 0.950 . S
C892 C891 1.397 . S
C892 C893 1.334 . S
C893 H870 0.950 . S
C893 C892 1.334 . S
C893 C894 1.287 . S
C894 C893 1.287 . S
C894 C895 1.524 . S
C894 H913 0.913 . S
C895 H871 0.950 . S
C895 C894 1.524 . S
C895 C896 1.415 . S
C896 H872 0.950 . S
C896 C891 1.363 . S
C896 C895 1.415 . S
C897 H873 0.951 . S
C897 C898 1.366 . S
C897 C899 1.388 . S
C898 C897 1.366 . S
C898 C902 1.385 . S
C899 H874 0.951 . S
C899 C897 1.388 . S
C899 C900 1.366 . S
C900 C899 1.366 . S
C900 C901 1.414 . S
C900 C903 1.499 . S
C901 H875 0.950 . S
C901 C900 1.414 . S
C901 C902 1.374 . S
C902 H876 0.950 . S
C902 C898 1.385 . S
C902 C901 1.374 . S
C903 C900 1.499 . S
C903 C904 1.373 . S
C903 C905 1.389 . S
C904 H877 0.950 . S
C904 C890 1.377 . S
C904 C903 1.373 . S
C905 C889 1.377 . S
C905 C903 1.389 . S
C905 C906 1.524 . S
C906 C905 1.524 . S
C906 C907 1.397 . S
C906 C911 1.363 . S
C907 H878 0.950 . S
C907 C906 1.397 . S
C907 C908 1.334 . S
C908 H879 0.950 . S
C908 C907 1.334 . S
C908 C909 1.287 . S
C909 C908 1.287 . S
C909 C910 1.524 . S
C909 H912 0.999 . S
C910 H880 0.950 . S
C910 C909 1.524 . S
C910 C911 1.415 . S
C911 H881 0.950 . S
C911 C906 1.363 . S
C911 C910 1.415 . S
H912 C909 0.999 . S
H913 C894 0.913 . S
H914 C932 0.951 . S
H915 C934 0.951 . S
H916 C936 0.950 . S
H917 C937 0.950 . S
H918 C939 0.950 . S
H919 C942 0.950 . S
H920 C943 0.950 . S
H921 C945 0.950 . S
H922 C946 0.950 . S
H923 C947 0.951 . S
H924 C949 0.951 . S
H925 C951 0.950 . S
H926 C952 0.950 . S
H927 C954 0.950 . S
H928 C957 0.950 . S
H929 C958 0.950 . S
H930 C960 0.950 . S
H931 C961 0.950 . S
C932 H914 0.951 . S
C932 C933 1.366 . S
C932 C934 1.388 . S
C933 C932 1.366 . S
C933 C937 1.385 . S
C934 H915 0.951 . S
C934 C932 1.388 . S
C934 C935 1.366 . S
C935 C934 1.366 . S
C935 C936 1.414 . S
C935 C938 1.499 . S
C936 H916 0.950 . S
C936 C935 1.414 . S
C936 C937 1.374 . S
C937 H917 0.950 . S
C937 C933 1.385 . S
C937 C936 1.374 . S
C938 C935 1.499 . S
C938 C939 1.373 . S
C938 C940 1.389 . S
C939 H918 0.950 . S
C939 C938 1.373 . S
C939 C955 1.377 . S
C940 C938 1.389 . S
C940 C941 1.524 . S
C940 C954 1.377 . S
C941 C940 1.524 . S
C941 C942 1.397 . S
C941 C946 1.363 . S
C942 H919 0.950 . S
C942 C941 1.397 . S
C942 C943 1.334 . S
C943 H920 0.950 . S
C943 C942 1.334 . S
C943 C944 1.287 . S
C944 C943 1.287 . S
C944 C945 1.524 . S
C944 H963 0.913 . S
C945 H921 0.950 . S
C945 C944 1.524 . S
C945 C946 1.415 . S
C946 H922 0.950 . S
C946 C941 1.363 . S
C946 C945 1.415 . S
C947 H923 0.951 . S
C947 C948 1.366 . S
C947 C949 1.388 . S
C948 C947 1.366 . S
C948 C952 1.385 . S
C949 H924 0.951 . S
C949 C947 1.388 . S
C949 C950 1.366 . S
C950 C949 1.366 . S
C950 C951 1.414 . S
C950 C953 1.499 . S
C951 H925 0.950 . S
C951 C950 1.414 . S
C951 C952 1.374 . S
C952 H926 0.950 . S
C952 C948 1.385 . S
C952 C951 1.374 . S
C953 C950 1.499 . S
C953 C954 1.373 . S
C953 C955 1.389 . S
C954 H927 0.950 . S
C954 C940 1.377 . S
C954 C953 1.373 . S
C955 C939 1.377 . S
C955 C953 1.389 . S
C955 C956 1.524 . S
C956 C955 1.524 . S
C956 C957 1.397 . S
C956 C961 1.363 . S
C957 H928 0.950 . S
C957 C956 1.397 . S
C957 C958 1.334 . S
C958 H929 0.950 . S
C958 C957 1.334 . S
C958 C959 1.287 . S
C959 C958 1.287 . S
C959 C960 1.524 . S
C959 H962 0.999 . S
C960 H930 0.950 . S
C960 C959 1.524 . S
C960 C961 1.415 . S
C961 H931 0.950 . S
C961 C956 1.363 . S
C961 C960 1.415 . S
H962 C959 0.999 . S
H963 C944 0.913 . S
H964 C982 0.951 . S
H965 C984 0.951 . S
H966 C986 0.950 . S
H967 C987 0.950 . S
H968 C989 0.950 . S
H969 C992 0.950 . S
H970 C993 0.950 . S
H971 C995 0.950 . S
H972 C996 0.950 . S
H973 C997 0.951 . S
H974 C999 0.951 . S
H975 C1001 0.950 . S
H976 C1002 0.950 . S
H977 C1004 0.950 . S
H978 C1007 0.950 . S
H979 C1008 0.950 . S
H980 C1010 0.950 . S
H981 C1011 0.950 . S
C982 H964 0.951 . S
C982 C983 1.366 . S
C982 C984 1.388 . S
C983 C982 1.366 . S
C983 C987 1.385 . S
C984 H965 0.951 . S
C984 C982 1.388 . S
C984 C985 1.366 . S
C985 C984 1.366 . S
C985 C986 1.414 . S
C985 C988 1.499 . S
C986 H966 0.950 . S
C986 C985 1.414 . S
C986 C987 1.374 . S
C987 H967 0.950 . S
C987 C983 1.385 . S
C987 C986 1.374 . S
C988 C985 1.499 . S
C988 C989 1.373 . S
C988 C990 1.389 . S
C989 H968 0.950 . S
C989 C988 1.373 . S
C989 C1005 1.377 . S
C990 C988 1.389 . S
C990 C991 1.524 . S
C990 C1004 1.377 . S
C991 C990 1.524 . S
C991 C992 1.397 . S
C991 C996 1.363 . S
C992 H969 0.950 . S
C992 C991 1.397 . S
C992 C993 1.334 . S
C993 H970 0.950 . S
C993 C992 1.334 . S
C993 C994 1.287 . S
C994 C993 1.287 . S
C994 C995 1.524 . S
C994 H1013 0.913 . S
C995 H971 0.950 . S
C995 C994 1.524 . S
C995 C996 1.415 . S
C996 H972 0.950 . S
C996 C991 1.363 . S
C996 C995 1.415 . S
C997 H973 0.951 . S
C997 C998 1.366 . S
C997 C999 1.388 . S
C998 C997 1.366 . S
C998 C1002 1.385 . S
C999 H974 0.951 . S
C999 C997 1.388 . S
C999 C1000 1.366 . S
C1000 C999 1.366 . S
C1000 C1001 1.414 . S
C1000 C1003 1.499 . S
C1001 H975 0.950 . S
C1001 C1000 1.414 . S
C1001 C1002 1.374 . S
C1002 H976 0.950 . S
C1002 C998 1.385 . S
C1002 C1001 1.374 . S
C1003 C1000 1.499 . S
C1003 C1004 1.373 . S
C1003 C1005 1.389 . S
C1004 H977 0.950 . S
C1004 C990 1.377 . S
C1004 C1003 1.373 . S
C1005 C989 1.377 . S
C1005 C1003 1.389 . S
C1005 C1006 1.524 . S
C1006 C1005 1.524 . S
C1006 C1007 1.397 . S
C1006 C1011 1.363 . S
C1007 H978 0.950 . S
C1007 C1006 1.397 . S
C1007 C1008 1.334 . S
C1008 H979 0.950 . S
C1008 C1007 1.334 . S
C1008 C1009 1.287 . S
C1009 C1008 1.287 . S
C1009 C1010 1.524 . S
C1009 H1012 0.999 . S
C1010 H980 0.950 . S
C1010 C1009 1.524 . S
C1010 C1011 1.415 . S
C1011 H981 0.950 . S
C1011 C1006 1.363 . S
C1011 C1010 1.415 . S
H1012 C1009 0.999 . S
H1013 C994 0.913 . S
H1014 C1032 0.951 . S
H1015 C1034 0.951 . S
H1016 C1036 0.950 . S
H1017 C1037 0.950 . S
H1018 C1039 0.950 . S
H1019 C1042 0.950 . S
H1020 C1043 0.950 . S
H1021 C1045 0.950 . S
H1022 C1046 0.950 . S
H1023 C1047 0.951 . S
H1024 C1049 0.951 . S
H1025 C1051 0.950 . S
H1026 C1052 0.950 . S
H1027 C1054 0.950 . S
H1028 C1057 0.950 . S
H1029 C1058 0.950 . S
H1030 C1060 0.950 . S
H1031 C1061 0.950 . S
C1032 H1014 0.951 . S
C1032 C1033 1.366 . S
C1032 C1034 1.388 . S
C1033 C1032 1.366 . S
C1033 C1037 1.385 . S
C1034 H1015 0.951 . S
C1034 C1032 1.388 . S
C1034 C1035 1.366 . S
C1035 C1034 1.366 . S
C1035 C1036 1.414 . S
C1035 C1038 1.499 . S
C1036 H1016 0.950 . S
C1036 C1035 1.414 . S
C1036 C1037 1.374 . S
C1037 H1017 0.950 . S
C1037 C1033 1.385 . S
C1037 C1036 1.374 . S
C1038 C1035 1.499 . S
C1038 C1039 1.373 . S
C1038 C1040 1.389 . S
C1039 H1018 0.950 . S
C1039 C1038 1.373 . S
C1039 C1055 1.377 . S
C1040 C1038 1.389 . S
C1040 C1041 1.524 . S
C1040 C1054 1.377 . S
C1041 C1040 1.524 . S
C1041 C1042 1.397 . S
C1041 C1046 1.363 . S
C1042 H1019 0.950 . S
C1042 C1041 1.397 . S
C1042 C1043 1.334 . S
C1043 H1020 0.950 . S
C1043 C1042 1.334 . S
C1043 C1044 1.287 . S
C1044 C1043 1.287 . S
C1044 C1045 1.524 . S
C1044 H1063 0.913 . S
C1045 H1021 0.950 . S
C1045 C1044 1.524 . S
C1045 C1046 1.415 . S
C1046 H1022 0.950 . S
C1046 C1041 1.363 . S
C1046 C1045 1.415 . S
C1047 H1023 0.951 . S
C1047 C1048 1.366 . S
C1047 C1049 1.388 . S
C1048 C1047 1.366 . S
C1048 C1052 1.385 . S
C1049 H1024 0.951 . S
C1049 C1047 1.388 . S
C1049 C1050 1.366 . S
C1050 C1049 1.366 . S
C1050 C1051 1.414 . S
C1050 C1053 1.499 . S
C1051 H1025 0.950 . S
C1051 C1050 1.414 . S
C1051 C1052 1.374 . S
C1052 H1026 0.950 . S
C1052 C1048 1.385 . S
C1052 C1051 1.374 . S
C1053 C1050 1.499 . S
C1053 C1054 1.373 . S
C1053 C1055 1.389 . S
C1054 H1027 0.950 . S
C1054 C1040 1.377 . S
C1054 C1053 1.373 . S
C1055 C1039 1.377 . S
C1055 C1053 1.389 . S
C1055 C1056 1.524 . S
C1056 C1055 1.524 . S
C1056 C1057 1.397 . S
C1056 C1061 1.363 . S
C1057 H1028 0.950 . S
C1057 C1056 1.397 . S
C1057 C1058 1.334 . S
C1058 H1029 0.950 . S
C1058 C1057 1.334 . S
C1058 C1059 1.287 . S
C1059 C1058 1.287 . S
C1059 C1060 1.524 . S
C1059 H1062 0.999 . S
C1060 H1030 0.950 . S
C1060 C1059 1.524 . S
C1060 C1061 1.415 . S
C1061 H1031 0.950 . S
C1061 C1056 1.363 . S
C1061 C1060 1.415 . S
H1062 C1059 0.999 . S
H1063 C1044 0.913 . S
H1064 C1082 0.951 . S
H1065 C1084 0.951 . S
H1066 C1086 0.950 . S
H1067 C1087 0.950 . S
H1068 C1089 0.950 . S
H1069 C1092 0.950 . S
H1070 C1093 0.950 . S
H1071 C1095 0.950 . S
H1072 C1096 0.950 . S
H1073 C1097 0.951 . S
H1074 C1099 0.951 . S
H1075 C1101 0.950 . S
H1076 C1102 0.950 . S
H1077 C1104 0.950 . S
H1078 C1107 0.950 . S
H1079 C1108 0.950 . S
H1080 C1110 0.950 . S
H1081 C1111 0.950 . S
C1082 H1064 0.951 . S
C1082 C1083 1.366 . S
C1082 C1084 1.388 . S
C1083 C1082 1.366 . S
C1083 C1087 1.385 . S
C1084 H1065 0.951 . S
C1084 C1082 1.388 . S
C1084 C1085 1.366 . S
C1085 C1084 1.366 . S
C1085 C1086 1.414 . S
C1085 C1088 1.499 . S
C1086 H1066 0.950 . S
C1086 C1085 1.414 . S
C1086 C1087 1.374 . S
C1087 H1067 0.950 . S
C1087 C1083 1.385 . S
C1087 C1086 1.374 . S
C1088 C1085 1.499 . S
C1088 C1089 1.373 . S
C1088 C1090 1.389 . S
C1089 H1068 0.950 . S
C1089 C1088 1.373 . S
C1089 C1105 1.377 . S
C1090 C1088 1.389 . S
C1090 C1091 1.524 . S
C1090 C1104 1.377 . S
C1091 C1090 1.524 . S
C1091 C1092 1.397 . S
C1091 C1096 1.363 . S
C1092 H1069 0.950 . S
C1092 C1091 1.397 . S
C1092 C1093 1.334 . S
C1093 H1070 0.950 . S
C1093 C1092 1.334 . S
C1093 C1094 1.287 . S
C1094 C1093 1.287 . S
C1094 C1095 1.524 . S
C1094 H1113 0.913 . S
C1095 H1071 0.950 . S
C1095 C1094 1.524 . S
C1095 C1096 1.415 . S
C1096 H1072 0.950 . S
C1096 C1091 1.363 . S
C1096 C1095 1.415 . S
C1097 H1073 0.951 . S
C1097 C1098 1.366 . S
C1097 C1099 1.388 . S
C1098 C1097 1.366 . S
C1098 C1102 1.385 . S
C1099 H1074 0.951 . S
C1099 C1097 1.388 . S
C1099 C1100 1.366 . S
C1100 C1099 1.366 . S
C1100 C1101 1.414 . S
C1100 C1103 1.499 . S
C1101 H1075 0.950 . S
C1101 C1100 1.414 . S
C1101 C1102 1.374 . S
C1102 H1076 0.950 . S
C1102 C1098 1.385 . S
C1102 C1101 1.374 . S
C1103 C1100 1.499 . S
C1103 C1104 1.373 . S
C1103 C1105 1.389 . S
C1104 H1077 0.950 . S
C1104 C1090 1.377 . S
C1104 C1103 1.373 . S
C1105 C1089 1.377 . S
C1105 C1103 1.389 . S
C1105 C1106 1.524 . S
C1106 C1105 1.524 . S
C1106 C1107 1.397 . S
C1106 C1111 1.363 . S
C1107 H1078 0.950 . S
C1107 C1106 1.397 . S
C1107 C1108 1.334 . S
C1108 H1079 0.950 . S
C1108 C1107 1.334 . S
C1108 C1109 1.287 . S
C1109 C1108 1.287 . S
C1109 C1110 1.524 . S
C1109 H1112 0.999 . S
C1110 H1080 0.950 . S
C1110 C1109 1.524 . S
C1110 C1111 1.415 . S
C1111 H1081 0.950 . S
C1111 C1106 1.363 . S
C1111 C1110 1.415 . S
H1112 C1109 0.999 . S
H1113 C1094 0.913 . S
H1114 C1132 0.951 . S
H1115 C1134 0.951 . S
H1116 C1136 0.950 . S
H1117 C1137 0.950 . S
H1118 C1139 0.950 . S
H1119 C1142 0.950 . S
H1120 C1143 0.950 . S
H1121 C1145 0.950 . S
H1122 C1146 0.950 . S
H1123 C1147 0.951 . S
H1124 C1149 0.951 . S
H1125 C1151 0.950 . S
H1126 C1152 0.950 . S
H1127 C1154 0.950 . S
H1128 C1157 0.950 . S
H1129 C1158 0.950 . S
H1130 C1160 0.950 . S
H1131 C1161 0.950 . S
C1132 H1114 0.951 . S
C1132 C1133 1.366 . S
C1132 C1134 1.388 . S
C1133 C1132 1.366 . S
C1133 C1137 1.385 . S
C1134 H1115 0.951 . S
C1134 C1132 1.388 . S
C1134 C1135 1.366 . S
C1135 C1134 1.366 . S
C1135 C1136 1.414 . S
C1135 C1138 1.499 . S
C1136 H1116 0.950 . S
C1136 C1135 1.414 . S
C1136 C1137 1.374 . S
C1137 H1117 0.950 . S
C1137 C1133 1.385 . S
C1137 C1136 1.374 . S
C1138 C1135 1.499 . S
C1138 C1139 1.373 . S
C1138 C1140 1.389 . S
C1139 H1118 0.950 . S
C1139 C1138 1.373 . S
C1139 C1155 1.377 . S
C1140 C1138 1.389 . S
C1140 C1141 1.524 . S
C1140 C1154 1.377 . S
C1141 C1140 1.524 . S
C1141 C1142 1.397 . S
C1141 C1146 1.363 . S
C1142 H1119 0.950 . S
C1142 C1141 1.397 . S
C1142 C1143 1.334 . S
C1143 H1120 0.950 . S
C1143 C1142 1.334 . S
C1143 C1144 1.287 . S
C1144 C1143 1.287 . S
C1144 C1145 1.524 . S
C1144 H1163 0.913 . S
C1145 H1121 0.950 . S
C1145 C1144 1.524 . S
C1145 C1146 1.415 . S
C1146 H1122 0.950 . S
C1146 C1141 1.363 . S
C1146 C1145 1.415 . S
C1147 H1123 0.951 . S
C1147 C1148 1.366 . S
C1147 C1149 1.388 . S
C1148 C1147 1.366 . S
C1148 C1152 1.385 . S
C1149 H1124 0.951 . S
C1149 C1147 1.388 . S
C1149 C1150 1.366 . S
C1150 C1149 1.366 . S
C1150 C1151 1.414 . S
C1150 C1153 1.499 . S
C1151 H1125 0.950 . S
C1151 C1150 1.414 . S
C1151 C1152 1.374 . S
C1152 H1126 0.950 . S
C1152 C1148 1.385 . S
C1152 C1151 1.374 . S
C1153 C1150 1.499 . S
C1153 C1154 1.373 . S
C1153 C1155 1.389 . S
C1154 H1127 0.950 . S
C1154 C1140 1.377 . S
C1154 C1153 1.373 . S
C1155 C1139 1.377 . S
C1155 C1153 1.389 . S
C1155 C1156 1.524 . S
C1156 C1155 1.524 . S
C1156 C1157 1.397 . S
C1156 C1161 1.363 . S
C1157 H1128 0.950 . S
C1157 C1156 1.397 . S
C1157 C1158 1.334 . S
C1158 H1129 0.950 . S
C1158 C1157 1.334 . S
C1158 C1159 1.287 . S
C1159 C1158 1.287 . S
C1159 C1160 1.524 . S
C1159 H1162 0.999 . S
C1160 H1130 0.950 . S
C1160 C1159 1.524 . S
C1160 C1161 1.415 . S
C1161 H1131 0.950 . S
C1161 C1156 1.363 . S
C1161 C1160 1.415 . S
H1162 C1159 0.999 . S
H1163 C1144 0.913 . S
H1164 C1182 0.951 . S
H1165 C1184 0.951 . S
H1166 C1186 0.950 . S
H1167 C1187 0.950 . S
H1168 C1189 0.950 . S
H1169 C1192 0.950 . S
H1170 C1193 0.950 . S
H1171 C1195 0.950 . S
H1172 C1196 0.950 . S
H1173 C1197 0.951 . S
H1174 C1199 0.951 . S
H1175 C1201 0.950 . S
H1176 C1202 0.950 . S
H1177 C1204 0.950 . S
H1178 C1207 0.950 . S
H1179 C1208 0.950 . S
H1180 C1210 0.950 . S
H1181 C1211 0.950 . S
C1182 H1164 0.951 . S
C1182 C1183 1.366 . S
C1182 C1184 1.388 . S
C1183 C1182 1.366 . S
C1183 C1187 1.385 . S
C1184 H1165 0.951 . S
C1184 C1182 1.388 . S
C1184 C1185 1.366 . S
C1185 C1184 1.366 . S
C1185 C1186 1.414 . S
C1185 C1188 1.499 . S
C1186 H1166 0.950 . S
C1186 C1185 1.414 . S
C1186 C1187 1.374 . S
C1187 H1167 0.950 . S
C1187 C1183 1.385 . S
C1187 C1186 1.374 . S
C1188 C1185 1.499 . S
C1188 C1189 1.373 . S
C1188 C1190 1.389 . S
C1189 H1168 0.950 . S
C1189 C1188 1.373 . S
C1189 C1205 1.377 . S
C1190 C1188 1.389 . S
C1190 C1191 1.524 . S
C1190 C1204 1.377 . S
C1191 C1190 1.524 . S
C1191 C1192 1.397 . S
C1191 C1196 1.363 . S
C1192 H1169 0.950 . S
C1192 C1191 1.397 . S
C1192 C1193 1.334 . S
C1193 H1170 0.950 . S
C1193 C1192 1.334 . S
C1193 C1194 1.287 . S
C1194 C1193 1.287 . S
C1194 C1195 1.524 . S
C1194 H1213 0.913 . S
C1195 H1171 0.950 . S
C1195 C1194 1.524 . S
C1195 C1196 1.415 . S
C1196 H1172 0.950 . S
C1196 C1191 1.363 . S
C1196 C1195 1.415 . S
C1197 H1173 0.951 . S
C1197 C1198 1.366 . S
C1197 C1199 1.388 . S
C1198 C1197 1.366 . S
C1198 C1202 1.385 . S
C1199 H1174 0.951 . S
C1199 C1197 1.388 . S
C1199 C1200 1.366 . S
C1200 C1199 1.366 . S
C1200 C1201 1.414 . S
C1200 C1203 1.499 . S
C1201 H1175 0.950 . S
C1201 C1200 1.414 . S
C1201 C1202 1.374 . S
C1202 H1176 0.950 . S
C1202 C1198 1.385 . S
C1202 C1201 1.374 . S
C1203 C1200 1.499 . S
C1203 C1204 1.373 . S
C1203 C1205 1.389 . S
C1204 H1177 0.950 . S
C1204 C1190 1.377 . S
C1204 C1203 1.373 . S
C1205 C1189 1.377 . S
C1205 C1203 1.389 . S
C1205 C1206 1.524 . S
C1206 C1205 1.524 . S
C1206 C1207 1.397 . S
C1206 C1211 1.363 . S
C1207 H1178 0.950 . S
C1207 C1206 1.397 . S
C1207 C1208 1.334 . S
C1208 H1179 0.950 . S
C1208 C1207 1.334 . S
C1208 C1209 1.287 . S
C1209 C1208 1.287 . S
C1209 C1210 1.524 . S
C1209 H1212 0.999 . S
C1210 H1180 0.950 . S
C1210 C1209 1.524 . S
C1210 C1211 1.415 . S
C1211 H1181 0.950 . S
C1211 C1206 1.363 . S
C1211 C1210 1.415 . S
H1212 C1209 0.999 . S
H1213 C1194 0.913 . S
H1214 C1232 0.951 . S
H1215 C1234 0.951 . S
H1216 C1236 0.950 . S
H1217 C1237 0.950 . S
H1218 C1239 0.950 . S
H1219 C1242 0.950 . S
H1220 C1243 0.950 . S
H1221 C1245 0.950 . S
H1222 C1246 0.950 . S
H1223 C1247 0.951 . S
H1224 C1249 0.951 . S
H1225 C1251 0.950 . S
H1226 C1252 0.950 . S
H1227 C1254 0.950 . S
H1228 C1257 0.950 . S
H1229 C1258 0.950 . S
H1230 C1260 0.950 . S
H1231 C1261 0.950 . S
C1232 H1214 0.951 . S
C1232 C1233 1.366 . S
C1232 C1234 1.388 . S
C1233 C1232 1.366 . S
C1233 C1237 1.385 . S
C1234 H1215 0.951 . S
C1234 C1232 1.388 . S
C1234 C1235 1.366 . S
C1235 C1234 1.366 . S
C1235 C1236 1.414 . S
C1235 C1238 1.499 . S
C1236 H1216 0.950 . S
C1236 C1235 1.414 . S
C1236 C1237 1.374 . S
C1237 H1217 0.950 . S
C1237 C1233 1.385 . S
C1237 C1236 1.374 . S
C1238 C1235 1.499 . S
C1238 C1239 1.373 . S
C1238 C1240 1.389 . S
C1239 H1218 0.950 . S
C1239 C1238 1.373 . S
C1239 C1255 1.377 . S
C1240 C1238 1.389 . S
C1240 C1241 1.524 . S
C1240 C1254 1.377 . S
C1241 C1240 1.524 . S
C1241 C1242 1.397 . S
C1241 C1246 1.363 . S
C1242 H1219 0.950 . S
C1242 C1241 1.397 . S
C1242 C1243 1.334 . S
C1243 H1220 0.950 . S
C1243 C1242 1.334 . S
C1243 C1244 1.287 . S
C1244 C1243 1.287 . S
C1244 C1245 1.524 . S
C1244 H1263 0.913 . S
C1245 H1221 0.950 . S
C1245 C1244 1.524 . S
C1245 C1246 1.415 . S
C1246 H1222 0.950 . S
C1246 C1241 1.363 . S
C1246 C1245 1.415 . S
C1247 H1223 0.951 . S
C1247 C1248 1.366 . S
C1247 C1249 1.388 . S
C1248 C1247 1.366 . S
C1248 C1252 1.385 . S
C1249 H1224 0.951 . S
C1249 C1247 1.388 . S
C1249 C1250 1.366 . S
C1250 C1249 1.366 . S
C1250 C1251 1.414 . S
C1250 C1253 1.499 . S
C1251 H1225 0.950 . S
C1251 C1250 1.414 . S
C1251 C1252 1.374 . S
C1252 H1226 0.950 . S
C1252 C1248 1.385 . S
C1252 C1251 1.374 . S
C1253 C1250 1.499 . S
C1253 C1254 1.373 . S
C1253 C1255 1.389 . S
C1254 H1227 0.950 . S
C1254 C1240 1.377 . S
C1254 C1253 1.373 . S
C1255 C1239 1.377 . S
C1255 C1253 1.389 . S
C1255 C1256 1.524 . S
C1256 C1255 1.524 . S
C1256 C1257 1.397 . S
C1256 C1261 1.363 . S
C1257 H1228 0.950 . S
C1257 C1256 1.397 . S
C1257 C1258 1.334 . S
C1258 H1229 0.950 . S
C1258 C1257 1.334 . S
C1258 C1259 1.287 . S
C1259 C1258 1.287 . S
C1259 C1260 1.524 . S
C1259 H1262 0.999 . S
C1260 H1230 0.950 . S
C1260 C1259 1.524 . S
C1260 C1261 1.415 . S
C1261 H1231 0.950 . S
C1261 C1256 1.363 . S
C1261 C1260 1.415 . S
H1262 C1259 0.999 . S
H1263 C1244 0.913 . S
H1264 C1282 0.951 . S
H1265 C1284 0.951 . S
H1266 C1286 0.950 . S
H1267 C1287 0.950 . S
H1268 C1289 0.950 . S
H1269 C1292 0.950 . S
H1270 C1293 0.950 . S
H1271 C1295 0.950 . S
H1272 C1296 0.950 . S
H1273 C1297 0.951 . S
H1274 C1299 0.951 . S
H1275 C1301 0.950 . S
H1276 C1302 0.950 . S
H1277 C1304 0.950 . S
H1278 C1307 0.950 . S
H1279 C1308 0.950 . S
H1280 C1310 0.950 . S
H1281 C1311 0.950 . S
C1282 H1264 0.951 . S
C1282 C1283 1.366 . S
C1282 C1284 1.388 . S
C1283 C1282 1.366 . S
C1283 C1287 1.385 . S
C1284 H1265 0.951 . S
C1284 C1282 1.388 . S
C1284 C1285 1.366 . S
C1285 C1284 1.366 . S
C1285 C1286 1.414 . S
C1285 C1288 1.499 . S
C1286 H1266 0.950 . S
C1286 C1285 1.414 . S
C1286 C1287 1.374 . S
C1287 H1267 0.950 . S
C1287 C1283 1.385 . S
C1287 C1286 1.374 . S
C1288 C1285 1.499 . S
C1288 C1289 1.373 . S
C1288 C1290 1.389 . S
C1289 H1268 0.950 . S
C1289 C1288 1.373 . S
C1289 C1305 1.377 . S
C1290 C1288 1.389 . S
C1290 C1291 1.524 . S
C1290 C1304 1.377 . S
C1291 C1290 1.524 . S
C1291 C1292 1.397 . S
C1291 C1296 1.363 . S
C1292 H1269 0.950 . S
C1292 C1291 1.397 . S
C1292 C1293 1.334 . S
C1293 H1270 0.950 . S
C1293 C1292 1.334 . S
C1293 C1294 1.287 . S
C1294 C1293 1.287 . S
C1294 C1295 1.524 . S
C1294 H1313 0.913 . S
C1295 H1271 0.950 . S
C1295 C1294 1.524 . S
C1295 C1296 1.415 . S
C1296 H1272 0.950 . S
C1296 C1291 1.363 . S
C1296 C1295 1.415 . S
C1297 H1273 0.951 . S
C1297 C1298 1.366 . S
C1297 C1299 1.388 . S
C1298 C1297 1.366 . S
C1298 C1302 1.385 . S
C1299 H1274 0.951 . S
C1299 C1297 1.388 . S
C1299 C1300 1.366 . S
C1300 C1299 1.366 . S
C1300 C1301 1.414 . S
C1300 C1303 1.499 . S
C1301 H1275 0.950 . S
C1301 C1300 1.414 . S
C1301 C1302 1.374 . S
C1302 H1276 0.950 . S
C1302 C1298 1.385 . S
C1302 C1301 1.374 . S
C1303 C1300 1.499 . S
C1303 C1304 1.373 . S
C1303 C1305 1.389 . S
C1304 H1277 0.950 . S
C1304 C1290 1.377 . S
C1304 C1303 1.373 . S
C1305 C1289 1.377 . S
C1305 C1303 1.389 . S
C1305 C1306 1.524 . S
C1306 C1305 1.524 . S
C1306 C1307 1.397 . S
C1306 C1311 1.363 . S
C1307 H1278 0.950 . S
C1307 C1306 1.397 . S
C1307 C1308 1.334 . S
C1308 H1279 0.950 . S
C1308 C1307 1.334 . S
C1308 C1309 1.287 . S
C1309 C1308 1.287 . S
C1309 C1310 1.524 . S
C1309 H1312 0.999 . S
C1310 H1280 0.950 . S
C1310 C1309 1.524 . S
C1310 C1311 1.415 . S
C1311 H1281 0.950 . S
C1311 C1306 1.363 . S
C1311 C1310 1.415 . S
H1312 C1309 0.999 . S
H1313 C1294 0.913 . S
H1314 C1332 0.951 . S
H1315 C1334 0.951 . S
H1316 C1336 0.950 . S
H1317 C1337 0.950 . S
H1318 C1339 0.950 . S
H1319 C1342 0.950 . S
H1320 C1343 0.950 . S
H1321 C1345 0.950 . S
H1322 C1346 0.950 . S
H1323 C1347 0.951 . S
H1324 C1349 0.951 . S
H1325 C1351 0.950 . S
H1326 C1352 0.950 . S
H1327 C1354 0.950 . S
H1328 C1357 0.950 . S
H1329 C1358 0.950 . S
H1330 C1360 0.950 . S
H1331 C1361 0.950 . S
C1332 H1314 0.951 . S
C1332 C1333 1.366 . S
C1332 C1334 1.388 . S
C1333 C1332 1.366 . S
C1333 C1337 1.385 . S
C1334 H1315 0.951 . S
C1334 C1332 1.388 . S
C1334 C1335 1.366 . S
C1335 C1334 1.366 . S
C1335 C1336 1.414 . S
C1335 C1338 1.499 . S
C1336 H1316 0.950 . S
C1336 C1335 1.414 . S
C1336 C1337 1.374 . S
C1337 H1317 0.950 . S
C1337 C1333 1.385 . S
C1337 C1336 1.374 . S
C1338 C1335 1.499 . S
C1338 C1339 1.373 . S
C1338 C1340 1.389 . S
C1339 H1318 0.950 . S
C1339 C1338 1.373 . S
C1339 C1355 1.377 . S
C1340 C1338 1.389 . S
C1340 C1341 1.524 . S
C1340 C1354 1.377 . S
C1341 C1340 1.524 . S
C1341 C1342 1.397 . S
C1341 C1346 1.363 . S
C1342 H1319 0.950 . S
C1342 C1341 1.397 . S
C1342 C1343 1.334 . S
C1343 H1320 0.950 . S
C1343 C1342 1.334 . S
C1343 C1344 1.287 . S
C1344 C1343 1.287 . S
C1344 C1345 1.524 . S
C1344 H1363 0.913 . S
C1345 H1321 0.950 . S
C1345 C1344 1.524 . S
C1345 C1346 1.415 . S
C1346 H1322 0.950 . S
C1346 C1341 1.363 . S
C1346 C1345 1.415 . S
C1347 H1323 0.951 . S
C1347 C1348 1.366 . S
C1347 C1349 1.388 . S
C1348 C1347 1.366 . S
C1348 C1352 1.385 . S
C1349 H1324 0.951 . S
C1349 C1347 1.388 . S
C1349 C1350 1.366 . S
C1350 C1349 1.366 . S
C1350 C1351 1.414 . S
C1350 C1353 1.499 . S
C1351 H1325 0.950 . S
C1351 C1350 1.414 . S
C1351 C1352 1.374 . S
C1352 H1326 0.950 . S
C1352 C1348 1.385 . S
C1352 C1351 1.374 . S
C1353 C1350 1.499 . S
C1353 C1354 1.373 . S
C1353 C1355 1.389 . S
C1354 H1327 0.950 . S
C1354 C1340 1.377 . S
C1354 C1353 1.373 . S
C1355 C1339 1.377 . S
C1355 C1353 1.389 . S
C1355 C1356 1.524 . S
C1356 C1355 1.524 . S
C1356 C1357 1.397 . S
C1356 C1361 1.363 . S
C1357 H1328 0.950 . S
C1357 C1356 1.397 . S
C1357 C1358 1.334 . S
C1358 H1329 0.950 . S
C1358 C1357 1.334 . S
C1358 C1359 1.287 . S
C1359 C1358 1.287 . S
C1359 C1360 1.524 . S
C1359 H1362 0.999 . S
C1360 H1330 0.950 . S
C1360 C1359 1.524 . S
C1360 C1361 1.415 . S
C1361 H1331 0.950 . S
C1361 C1356 1.363 . S
C1361 C1360 1.415 . S
H1362 C1359 0.999 . S
H1363 C1344 0.913 . S
H1364 C1382 0.951 . S
H1365 C1384 0.951 . S
H1366 C1386 0.950 . S
H1367 C1387 0.950 . S
H1368 C1389 0.950 . S
H1369 C1392 0.950 . S
H1370 C1393 0.950 . S
H1371 C1395 0.950 . S
H1372 C1396 0.950 . S
H1373 C1397 0.951 . S
H1374 C1399 0.951 . S
H1375 C1401 0.950 . S
H1376 C1402 0.950 . S
H1377 C1404 0.950 . S
H1378 C1407 0.950 . S
H1379 C1408 0.950 . S
H1380 C1410 0.950 . S
H1381 C1411 0.950 . S
C1382 H1364 0.951 . S
C1382 C1383 1.366 . S
C1382 C1384 1.388 . S
C1383 C1382 1.366 . S
C1383 C1387 1.385 . S
C1384 H1365 0.951 . S
C1384 C1382 1.388 . S
C1384 C1385 1.366 . S
C1385 C1384 1.366 . S
C1385 C1386 1.414 . S
C1385 C1388 1.499 . S
C1386 H1366 0.950 . S
C1386 C1385 1.414 . S
C1386 C1387 1.374 . S
C1387 H1367 0.950 . S
C1387 C1383 1.385 . S
C1387 C1386 1.374 . S
C1388 C1385 1.499 . S
C1388 C1389 1.373 . S
C1388 C1390 1.389 . S
C1389 H1368 0.950 . S
C1389 C1388 1.373 . S
C1389 C1405 1.377 . S
C1390 C1388 1.389 . S
C1390 C1391 1.524 . S
C1390 C1404 1.377 . S
C1391 C1390 1.524 . S
C1391 C1392 1.397 . S
C1391 C1396 1.363 . S
C1392 H1369 0.950 . S
C1392 C1391 1.397 . S
C1392 C1393 1.334 . S
C1393 H1370 0.950 . S
C1393 C1392 1.334 . S
C1393 C1394 1.287 . S
C1394 C1393 1.287 . S
C1394 C1395 1.524 . S
C1394 H1413 0.913 . S
C1395 H1371 0.950 . S
C1395 C1394 1.524 . S
C1395 C1396 1.415 . S
C1396 H1372 0.950 . S
C1396 C1391 1.363 . S
C1396 C1395 1.415 . S
C1397 H1373 0.951 . S
C1397 C1398 1.366 . S
C1397 C1399 1.388 . S
C1398 C1397 1.366 . S
C1398 C1402 1.385 . S
C1399 H1374 0.951 . S
C1399 C1397 1.388 . S
C1399 C1400 1.366 . S
C1400 C1399 1.366 . S
C1400 C1401 1.414 . S
C1400 C1403 1.499 . S
C1401 H1375 0.950 . S
C1401 C1400 1.414 . S
C1401 C1402 1.374 . S
C1402 H1376 0.950 . S
C1402 C1398 1.385 . S
C1402 C1401 1.374 . S
C1403 C1400 1.499 . S
C1403 C1404 1.373 . S
C1403 C1405 1.389 . S
C1404 H1377 0.950 . S
C1404 C1390 1.377 . S
C1404 C1403 1.373 . S
C1405 C1389 1.377 . S
C1405 C1403 1.389 . S
C1405 C1406 1.524 . S
C1406 C1405 1.524 . S
C1406 C1407 1.397 . S
C1406 C1411 1.363 . S
C1407 H1378 0.950 . S
C1407 C1406 1.397 . S
C1407 C1408 1.334 . S
C1408 H1379 0.950 . S
C1408 C1407 1.334 . S
C1408 C1409 1.287 . S
C1409 C1408 1.287 . S
C1409 C1410 1.524 . S
C1409 H1412 0.999 . S
C1410 H1380 0.950 . S
C1410 C1409 1.524 . S
C1410 C1411 1.415 . S
C1411 H1381 0.950 . S
C1411 C1406 1.363 . S
C1411 C1410 1.415 . S
H1412 C1409 0.999 . S
H1413 C1394 0.913 . S
H1414 C1432 0.951 . S
H1415 C1434 0.951 . S
H1416 C1436 0.950 . S
H1417 C1437 0.950 . S
H1418 C1439 0.950 . S
H1419 C1442 0.950 . S
H1420 C1443 0.950 . S
H1421 C1445 0.950 . S
H1422 C1446 0.950 . S
H1423 C1447 0.951 . S
H1424 C1449 0.951 . S
H1425 C1451 0.950 . S
H1426 C1452 0.950 . S
H1427 C1454 0.950 . S
H1428 C1457 0.950 . S
H1429 C1458 0.950 . S
H1430 C1460 0.950 . S
H1431 C1461 0.950 . S
C1432 H1414 0.951 . S
C1432 C1433 1.366 . S
C1432 C1434 1.388 . S
C1433 C1432 1.366 . S
C1433 C1437 1.385 . S
C1434 H1415 0.951 . S
C1434 C1432 1.388 . S
C1434 C1435 1.366 . S
C1435 C1434 1.366 . S
C1435 C1436 1.414 . S
C1435 C1438 1.499 . S
C1436 H1416 0.950 . S
C1436 C1435 1.414 . S
C1436 C1437 1.374 . S
C1437 H1417 0.950 . S
C1437 C1433 1.385 . S
C1437 C1436 1.374 . S
C1438 C1435 1.499 . S
C1438 C1439 1.373 . S
C1438 C1440 1.389 . S
C1439 H1418 0.950 . S
C1439 C1438 1.373 . S
C1439 C1455 1.377 . S
C1440 C1438 1.389 . S
C1440 C1441 1.524 . S
C1440 C1454 1.377 . S
C1441 C1440 1.524 . S
C1441 C1442 1.397 . S
C1441 C1446 1.363 . S
C1442 H1419 0.950 . S
C1442 C1441 1.397 . S
C1442 C1443 1.334 . S
C1443 H1420 0.950 . S
C1443 C1442 1.334 . S
C1443 C1444 1.287 . S
C1444 C1443 1.287 . S
C1444 C1445 1.524 . S
C1444 H1463 0.913 . S
C1445 H1421 0.950 . S
C1445 C1444 1.524 . S
C1445 C1446 1.415 . S
C1446 H1422 0.950 . S
C1446 C1441 1.363 . S
C1446 C1445 1.415 . S
C1447 H1423 0.951 . S
C1447 C1448 1.366 . S
C1447 C1449 1.388 . S
C1448 C1447 1.366 . S
C1448 C1452 1.385 . S
C1449 H1424 0.951 . S
C1449 C1447 1.388 . S
C1449 C1450 1.366 . S
C1450 C1449 1.366 . S
C1450 C1451 1.414 . S
C1450 C1453 1.499 . S
C1451 H1425 0.950 . S
C1451 C1450 1.414 . S
C1451 C1452 1.374 . S
C1452 H1426 0.950 . S
C1452 C1448 1.385 . S
C1452 C1451 1.374 . S
C1453 C1450 1.499 . S
C1453 C1454 1.373 . S
C1453 C1455 1.389 . S
C1454 H1427 0.950 . S
C1454 C1440 1.377 . S
C1454 C1453 1.373 . S
C1455 C1439 1.377 . S
C1455 C1453 1.389 . S
C1455 C1456 1.524 . S
C1456 C1455 1.524 . S
C1456 C1457 1.397 . S
C1456 C1461 1.363 . S
C1457 H1428 0.950 . S
C1457 C1456 1.397 . S
C1457 C1458 1.334 . S
C1458 H1429 0.950 . S
C1458 C1457 1.334 . S
C1458 C1459 1.287 . S
C1459 C1458 1.287 . S
C1459 C1460 1.524 . S
C1459 H1462 0.999 . S
C1460 H1430 0.950 . S
C1460 C1459 1.524 . S
C1460 C1461 1.415 . S
C1461 H1431 0.950 . S
C1461 C1456 1.363 . S
C1461 C1460 1.415 . S
H1462 C1459 0.999 . S
H1463 C1444 0.913 . S
H1464 C1482 0.951 . S
H1465 C1484 0.951 . S
H1466 C1486 0.950 . S
H1467 C1487 0.950 . S
H1468 C1489 0.950 . S
H1469 C1492 0.950 . S
H1470 C1493 0.950 . S
H1471 C1495 0.950 . S
H1472 C1496 0.950 . S
H1473 C1497 0.951 . S
H1474 C1499 0.951 . S
H1475 C1501 0.950 . S
H1476 C1502 0.950 . S
H1477 C1504 0.950 . S
H1478 C1507 0.950 . S
H1479 C1508 0.950 . S
H1480 C1510 0.950 . S
H1481 C1511 0.950 . S
C1482 H1464 0.951 . S
C1482 C1483 1.366 . S
C1482 C1484 1.388 . S
C1483 C1482 1.366 . S
C1483 C1487 1.385 . S
C1484 H1465 0.951 . S
C1484 C1482 1.388 . S
C1484 C1485 1.366 . S
C1485 C1484 1.366 . S
C1485 C1486 1.414 . S
C1485 C1488 1.499 . S
C1486 H1466 0.950 . S
C1486 C1485 1.414 . S
C1486 C1487 1.374 . S
C1487 H1467 0.950 . S
C1487 C1483 1.385 . S
C1487 C1486 1.374 . S
C1488 C1485 1.499 . S
C1488 C1489 1.373 . S
C1488 C1490 1.389 . S
C1489 H1468 0.950 . S
C1489 C1488 1.373 . S
C1489 C1505 1.377 1_565 S
C1490 C1488 1.389 . S
C1490 C1491 1.524 . S
C1490 C1504 1.377 1_565 S
C1491 C1490 1.524 . S
C1491 C1492 1.397 . S
C1491 C1496 1.363 . S
C1492 H1469 0.950 . S
C1492 C1491 1.397 . S
C1492 C1493 1.334 . S
C1493 H1470 0.950 . S
C1493 C1492 1.334 . S
C1493 C1494 1.287 . S
C1494 C1493 1.287 . S
C1494 C1495 1.524 . S
C1494 H1513 0.913 . S
C1495 H1471 0.950 . S
C1495 C1494 1.524 . S
C1495 C1496 1.415 . S
C1496 H1472 0.950 . S
C1496 C1491 1.363 . S
C1496 C1495 1.415 . S
C1497 H1473 0.951 . S
C1497 C1498 1.366 . S
C1497 C1499 1.388 . S
C1498 C1497 1.366 . S
C1498 C1502 1.385 . S
C1499 H1474 0.951 . S
C1499 C1497 1.388 . S
C1499 C1500 1.366 . S
C1500 C1499 1.366 . S
C1500 C1501 1.414 . S
C1500 C1503 1.499 . S
C1501 H1475 0.950 . S
C1501 C1500 1.414 . S
C1501 C1502 1.374 . S
C1502 H1476 0.950 . S
C1502 C1498 1.385 . S
C1502 C1501 1.374 . S
C1503 C1500 1.499 . S
C1503 C1504 1.373 . S
C1503 C1505 1.389 . S
C1504 H1477 0.950 . S
C1504 C1490 1.377 1_545 S
C1504 C1503 1.373 . S
C1505 C1489 1.377 1_545 S
C1505 C1503 1.389 . S
C1505 C1506 1.524 . S
C1506 C1505 1.524 . S
C1506 C1507 1.397 . S
C1506 C1511 1.363 . S
C1507 H1478 0.950 . S
C1507 C1506 1.397 . S
C1507 C1508 1.334 . S
C1508 H1479 0.950 . S
C1508 C1507 1.334 . S
C1508 C1509 1.287 . S
C1509 C1508 1.287 . S
C1509 C1510 1.524 . S
C1509 H1512 0.999 . S
C1510 H1480 0.950 . S
C1510 C1509 1.524 . S
C1510 C1511 1.415 . S
C1511 H1481 0.950 . S
C1511 C1506 1.363 . S
C1511 C1510 1.415 . S
H1512 C1509 0.999 . S
H1513 C1494 0.913 . S
H1514 C1532 0.951 . S
H1515 C1534 0.951 . S
H1516 C1536 0.950 . S
H1517 C1537 0.950 . S
H1518 C1539 0.950 . S
H1519 C1542 0.950 . S
H1520 C1543 0.950 . S
H1521 C1545 0.950 . S
H1522 C1546 0.950 . S
H1523 C1547 0.951 . S
H1524 C1549 0.951 . S
H1525 C1551 0.950 . S
H1526 C1552 0.950 . S
H1527 C1554 0.950 . S
H1528 C1557 0.950 . S
H1529 C1558 0.950 . S
H1530 C1560 0.950 . S
H1531 C1561 0.950 . S
C1532 H1514 0.951 . S
C1532 C1533 1.366 . S
C1532 C1534 1.388 . S
C1533 C1532 1.366 . S
C1533 C1537 1.385 . S
C1534 H1515 0.951 . S
C1534 C1532 1.388 . S
C1534 C1535 1.366 . S
C1535 C1534 1.366 . S
C1535 C1536 1.414 . S
C1535 C1538 1.499 . S
C1536 H1516 0.950 . S
C1536 C1535 1.414 . S
C1536 C1537 1.374 . S
C1537 H1517 0.950 . S
C1537 C1533 1.385 . S
C1537 C1536 1.374 . S
C1538 C1535 1.499 . S
C1538 C1539 1.373 . S
C1538 C1540 1.389 . S
C1539 H1518 0.950 . S
C1539 C1538 1.373 . S
C1539 C1555 1.377 1_455 S
C1540 C1538 1.389 . S
C1540 C1541 1.524 . S
C1540 C1554 1.377 1_455 S
C1541 C1540 1.524 . S
C1541 C1542 1.397 . S
C1541 C1546 1.363 . S
C1542 H1519 0.950 . S
C1542 C1541 1.397 . S
C1542 C1543 1.334 . S
C1543 H1520 0.950 . S
C1543 C1542 1.334 . S
C1543 C1544 1.287 . S
C1544 C1543 1.287 . S
C1544 C1545 1.524 . S
C1544 H1563 0.913 . S
C1545 H1521 0.950 . S
C1545 C1544 1.524 . S
C1545 C1546 1.415 . S
C1546 H1522 0.950 . S
C1546 C1541 1.363 . S
C1546 C1545 1.415 . S
C1547 H1523 0.951 . S
C1547 C1548 1.366 . S
C1547 C1549 1.388 . S
C1548 C1547 1.366 . S
C1548 C1552 1.385 . S
C1549 H1524 0.951 . S
C1549 C1547 1.388 . S
C1549 C1550 1.366 . S
C1550 C1549 1.366 . S
C1550 C1551 1.414 . S
C1550 C1553 1.499 . S
C1551 H1525 0.950 . S
C1551 C1550 1.414 . S
C1551 C1552 1.374 . S
C1552 H1526 0.950 . S
C1552 C1548 1.385 . S
C1552 C1551 1.374 . S
C1553 C1550 1.499 . S
C1553 C1554 1.373 . S
C1553 C1555 1.389 . S
C1554 H1527 0.950 . S
C1554 C1540 1.377 1_655 S
C1554 C1553 1.373 . S
C1555 C1539 1.377 1_655 S
C1555 C1553 1.389 . S
C1555 C1556 1.524 . S
C1556 C1555 1.524 . S
C1556 C1557 1.397 . S
C1556 C1561 1.363 . S
C1557 H1528 0.950 . S
C1557 C1556 1.397 . S
C1557 C1558 1.334 . S
C1558 H1529 0.950 . S
C1558 C1557 1.334 . S
C1558 C1559 1.287 . S
C1559 C1558 1.287 . S
C1559 C1560 1.524 . S
C1559 H1562 0.999 . S
C1560 H1530 0.950 . S
C1560 C1559 1.524 . S
C1560 C1561 1.415 . S
C1561 H1531 0.950 . S
C1561 C1556 1.363 . S
C1561 C1560 1.415 . S
H1562 C1559 0.999 . S
H1563 C1544 0.913 . S
H1564 C1582 0.951 . S
H1565 C1584 0.951 . S
H1566 C1586 0.950 . S
H1567 C1587 0.950 . S
H1568 C1589 0.950 . S
H1569 C1592 0.950 . S
H1570 C1593 0.950 . S
H1571 C1595 0.950 . S
H1572 C1596 0.950 . S
H1573 C1597 0.951 . S
H1574 C1599 0.951 . S
H1575 C1601 0.950 . S
H1576 C1602 0.950 . S
H1577 C1604 0.950 . S
H1578 C1607 0.950 . S
H1579 C1608 0.950 . S
H1580 C1610 0.950 . S
H1581 C1611 0.950 . S
C1582 H1564 0.951 . S
C1582 C1583 1.366 . S
C1582 C1584 1.388 . S
C1583 C1582 1.366 . S
C1583 C1587 1.385 . S
C1584 H1565 0.951 . S
C1584 C1582 1.388 . S
C1584 C1585 1.366 . S
C1585 C1584 1.366 . S
C1585 C1586 1.414 . S
C1585 C1588 1.499 . S
C1586 H1566 0.950 . S
C1586 C1585 1.414 . S
C1586 C1587 1.374 . S
C1587 H1567 0.950 . S
C1587 C1583 1.385 . S
C1587 C1586 1.374 . S
C1588 C1585 1.499 . S
C1588 C1589 1.373 . S
C1588 C1590 1.389 . S
C1589 H1568 0.950 . S
C1589 C1588 1.373 . S
C1589 C1605 1.377 1_545 S
C1590 C1588 1.389 . S
C1590 C1591 1.524 . S
C1590 C1604 1.377 1_545 S
C1591 C1590 1.524 . S
C1591 C1592 1.397 . S
C1591 C1596 1.363 . S
C1592 H1569 0.950 . S
C1592 C1591 1.397 . S
C1592 C1593 1.334 . S
C1593 H1570 0.950 . S
C1593 C1592 1.334 . S
C1593 C1594 1.287 . S
C1594 C1593 1.287 . S
C1594 C1595 1.524 . S
C1594 H1613 0.913 . S
C1595 H1571 0.950 . S
C1595 C1594 1.524 . S
C1595 C1596 1.415 . S
C1596 H1572 0.950 . S
C1596 C1591 1.363 . S
C1596 C1595 1.415 . S
C1597 H1573 0.951 . S
C1597 C1598 1.366 . S
C1597 C1599 1.388 . S
C1598 C1597 1.366 . S
C1598 C1602 1.385 . S
C1599 H1574 0.951 . S
C1599 C1597 1.388 . S
C1599 C1600 1.366 . S
C1600 C1599 1.366 . S
C1600 C1601 1.414 . S
C1600 C1603 1.499 . S
C1601 H1575 0.950 . S
C1601 C1600 1.414 . S
C1601 C1602 1.374 . S
C1602 H1576 0.950 . S
C1602 C1598 1.385 . S
C1602 C1601 1.374 . S
C1603 C1600 1.499 . S
C1603 C1604 1.373 . S
C1603 C1605 1.389 . S
C1604 H1577 0.950 . S
C1604 C1590 1.377 1_565 S
C1604 C1603 1.373 . S
C1605 C1589 1.377 1_565 S
C1605 C1603 1.389 . S
C1605 C1606 1.524 . S
C1606 C1605 1.524 . S
C1606 C1607 1.397 . S
C1606 C1611 1.363 . S
C1607 H1578 0.950 . S
C1607 C1606 1.397 . S
C1607 C1608 1.334 . S
C1608 H1579 0.950 . S
C1608 C1607 1.334 . S
C1608 C1609 1.287 . S
C1609 C1608 1.287 . S
C1609 C1610 1.524 . S
C1609 H1612 0.999 . S
C1610 H1580 0.950 . S
C1610 C1609 1.524 . S
C1610 C1611 1.415 . S
C1611 H1581 0.950 . S
C1611 C1606 1.363 . S
C1611 C1610 1.415 . S
H1612 C1609 0.999 . S
H1613 C1594 0.913 . S
H1614 C1632 0.951 . S
H1615 C1634 0.951 . S
H1616 C1636 0.950 . S
H1617 C1637 0.950 . S
H1618 C1639 0.950 . S
H1619 C1642 0.950 . S
H1620 C1643 0.950 . S
H1621 C1645 0.950 . S
H1622 C1646 0.950 . S
H1623 C1647 0.951 . S
H1624 C1649 0.951 . S
H1625 C1651 0.950 . S
H1626 C1652 0.950 . S
H1627 C1654 0.950 . S
H1628 C1657 0.950 . S
H1629 C1658 0.950 . S
H1630 C1660 0.950 . S
H1631 C1661 0.950 . S
C1632 H1614 0.951 . S
C1632 C1633 1.366 . S
C1632 C1634 1.388 . S
C1633 C1632 1.366 . S
C1633 C1637 1.385 . S
C1634 H1615 0.951 . S
C1634 C1632 1.388 . S
C1634 C1635 1.366 . S
C1635 C1634 1.366 . S
C1635 C1636 1.414 . S
C1635 C1638 1.499 . S
C1636 H1616 0.950 . S
C1636 C1635 1.414 . S
C1636 C1637 1.374 . S
C1637 H1617 0.950 . S
C1637 C1633 1.385 . S
C1637 C1636 1.374 . S
C1638 C1635 1.499 . S
C1638 C1639 1.373 . S
C1638 C1640 1.389 . S
C1639 H1618 0.950 . S
C1639 C1638 1.373 . S
C1639 C1655 1.377 1_455 S
C1640 C1638 1.389 . S
C1640 C1641 1.524 . S
C1640 C1654 1.377 1_455 S
C1641 C1640 1.524 . S
C1641 C1642 1.397 . S
C1641 C1646 1.363 . S
C1642 H1619 0.950 . S
C1642 C1641 1.397 . S
C1642 C1643 1.334 . S
C1643 H1620 0.950 . S
C1643 C1642 1.334 . S
C1643 C1644 1.287 . S
C1644 C1643 1.287 . S
C1644 C1645 1.524 . S
C1644 H1663 0.913 . S
C1645 H1621 0.950 . S
C1645 C1644 1.524 . S
C1645 C1646 1.415 . S
C1646 H1622 0.950 . S
C1646 C1641 1.363 . S
C1646 C1645 1.415 . S
C1647 H1623 0.951 . S
C1647 C1648 1.366 . S
C1647 C1649 1.388 . S
C1648 C1647 1.366 . S
C1648 C1652 1.385 . S
C1649 H1624 0.951 . S
C1649 C1647 1.388 . S
C1649 C1650 1.366 . S
C1650 C1649 1.366 . S
C1650 C1651 1.414 . S
C1650 C1653 1.499 . S
C1651 H1625 0.950 . S
C1651 C1650 1.414 . S
C1651 C1652 1.374 . S
C1652 H1626 0.950 . S
C1652 C1648 1.385 . S
C1652 C1651 1.374 . S
C1653 C1650 1.499 . S
C1653 C1654 1.373 . S
C1653 C1655 1.389 . S
C1654 H1627 0.950 . S
C1654 C1640 1.377 1_655 S
C1654 C1653 1.373 . S
C1655 C1639 1.377 1_655 S
C1655 C1653 1.389 . S
C1655 C1656 1.524 . S
C1656 C1655 1.524 . S
C1656 C1657 1.397 . S
C1656 C1661 1.363 . S
C1657 H1628 0.950 . S
C1657 C1656 1.397 . S
C1657 C1658 1.334 . S
C1658 H1629 0.950 . S
C1658 C1657 1.334 . S
C1658 C1659 1.287 . S
C1659 C1658 1.287 . S
C1659 C1660 1.524 . S
C1659 H1662 0.999 . S
C1660 H1630 0.950 . S
C1660 C1659 1.524 . S
C1660 C1661 1.415 . S
C1661 H1631 0.950 . S
C1661 C1656 1.363 . S
C1661 C1660 1.415 . S
H1662 C1659 0.999 . S
H1663 C1644 0.913 . S
H1664 C1682 0.951 . S
H1665 C1684 0.951 . S
H1666 C1686 0.950 . S
H1667 C1687 0.950 . S
H1668 C1689 0.950 . S
H1669 C1692 0.950 . S
H1670 C1693 0.950 . S
H1671 C1695 0.950 . S
H1672 C1696 0.950 . S
H1673 C1697 0.951 . S
H1674 C1699 0.951 . S
H1675 C1701 0.950 . S
H1676 C1702 0.950 . S
H1677 C1704 0.950 . S
H1678 C1707 0.950 . S
H1679 C1708 0.950 . S
H1680 C1710 0.950 . S
H1681 C1711 0.950 . S
C1682 H1664 0.951 . S
C1682 C1683 1.366 . S
C1682 C1684 1.388 . S
C1683 C1682 1.366 . S
C1683 C1687 1.385 . S
C1684 H1665 0.951 . S
C1684 C1682 1.388 . S
C1684 C1685 1.366 . S
C1685 C1684 1.366 . S
C1685 C1686 1.414 . S
C1685 C1688 1.499 . S
C1686 H1666 0.950 . S
C1686 C1685 1.414 . S
C1686 C1687 1.374 . S
C1687 H1667 0.950 . S
C1687 C1683 1.385 . S
C1687 C1686 1.374 . S
C1688 C1685 1.499 . S
C1688 C1689 1.373 . S
C1688 C1690 1.389 . S
C1689 H1668 0.950 . S
C1689 C1688 1.373 . S
C1689 C1705 1.377 1_556 S
C1690 C1688 1.389 . S
C1690 C1691 1.524 . S
C1690 C1704 1.377 1_556 S
C1691 C1690 1.524 . S
C1691 C1692 1.397 . S
C1691 C1696 1.363 . S
C1692 H1669 0.950 . S
C1692 C1691 1.397 . S
C1692 C1693 1.334 . S
C1693 H1670 0.950 . S
C1693 C1692 1.334 . S
C1693 C1694 1.287 . S
C1694 C1693 1.287 . S
C1694 C1695 1.524 . S
C1694 H1713 0.913 . S
C1695 H1671 0.950 . S
C1695 C1694 1.524 . S
C1695 C1696 1.415 . S
C1696 H1672 0.950 . S
C1696 C1691 1.363 . S
C1696 C1695 1.415 . S
C1697 H1673 0.951 . S
C1697 C1698 1.366 . S
C1697 C1699 1.388 . S
C1698 C1697 1.366 . S
C1698 C1702 1.385 . S
C1699 H1674 0.951 . S
C1699 C1697 1.388 . S
C1699 C1700 1.366 . S
C1700 C1699 1.366 . S
C1700 C1701 1.414 . S
C1700 C1703 1.499 . S
C1701 H1675 0.950 . S
C1701 C1700 1.414 . S
C1701 C1702 1.374 . S
C1702 H1676 0.950 . S
C1702 C1698 1.385 . S
C1702 C1701 1.374 . S
C1703 C1700 1.499 . S
C1703 C1704 1.373 . S
C1703 C1705 1.389 . S
C1704 H1677 0.950 . S
C1704 C1690 1.377 1_554 S
C1704 C1703 1.373 . S
C1705 C1689 1.377 1_554 S
C1705 C1703 1.389 . S
C1705 C1706 1.524 . S
C1706 C1705 1.524 . S
C1706 C1707 1.397 . S
C1706 C1711 1.363 . S
C1707 H1678 0.950 . S
C1707 C1706 1.397 . S
C1707 C1708 1.334 . S
C1708 H1679 0.950 . S
C1708 C1707 1.334 . S
C1708 C1709 1.287 . S
C1709 C1708 1.287 . S
C1709 C1710 1.524 . S
C1709 H1712 0.999 . S
C1710 H1680 0.950 . S
C1710 C1709 1.524 . S
C1710 C1711 1.415 . S
C1711 H1681 0.950 . S
C1711 C1706 1.363 . S
C1711 C1710 1.415 . S
H1712 C1709 0.999 . S
H1713 C1694 0.913 . S
H1714 C1732 0.951 . S
H1715 C1734 0.951 . S
H1716 C1736 0.950 . S
H1717 C1737 0.950 . S
H1718 C1739 0.950 . S
H1719 C1742 0.950 . S
H1720 C1743 0.950 . S
H1721 C1745 0.950 . S
H1722 C1746 0.950 . S
H1723 C1747 0.951 . S
H1724 C1749 0.951 . S
H1725 C1751 0.950 . S
H1726 C1752 0.950 . S
H1727 C1754 0.950 . S
H1728 C1757 0.950 . S
H1729 C1758 0.950 . S
H1730 C1760 0.950 . S
H1731 C1761 0.950 . S
C1732 H1714 0.951 . S
C1732 C1733 1.366 . S
C1732 C1734 1.388 . S
C1733 C1732 1.366 . S
C1733 C1737 1.385 . S
C1734 H1715 0.951 . S
C1734 C1732 1.388 . S
C1734 C1735 1.366 . S
C1735 C1734 1.366 . S
C1735 C1736 1.414 . S
C1735 C1738 1.499 . S
C1736 H1716 0.950 . S
C1736 C1735 1.414 . S
C1736 C1737 1.374 . S
C1737 H1717 0.950 . S
C1737 C1733 1.385 . S
C1737 C1736 1.374 . S
C1738 C1735 1.499 . S
C1738 C1739 1.373 . S
C1738 C1740 1.389 . S
C1739 H1718 0.950 . S
C1739 C1738 1.373 . S
C1739 C1755 1.377 1_556 S
C1740 C1738 1.389 . S
C1740 C1741 1.524 . S
C1740 C1754 1.377 1_556 S
C1741 C1740 1.524 . S
C1741 C1742 1.397 . S
C1741 C1746 1.363 . S
C1742 H1719 0.950 . S
C1742 C1741 1.397 . S
C1742 C1743 1.334 . S
C1743 H1720 0.950 . S
C1743 C1742 1.334 . S
C1743 C1744 1.287 . S
C1744 C1743 1.287 . S
C1744 C1745 1.524 . S
C1744 H1763 0.913 . S
C1745 H1721 0.950 . S
C1745 C1744 1.524 . S
C1745 C1746 1.415 . S
C1746 H1722 0.950 . S
C1746 C1741 1.363 . S
C1746 C1745 1.415 . S
C1747 H1723 0.951 . S
C1747 C1748 1.366 . S
C1747 C1749 1.388 . S
C1748 C1747 1.366 . S
C1748 C1752 1.385 . S
C1749 H1724 0.951 . S
C1749 C1747 1.388 . S
C1749 C1750 1.366 . S
C1750 C1749 1.366 . S
C1750 C1751 1.414 . S
C1750 C1753 1.499 . S
C1751 H1725 0.950 . S
C1751 C1750 1.414 . S
C1751 C1752 1.374 . S
C1752 H1726 0.950 . S
C1752 C1748 1.385 . S
C1752 C1751 1.374 . S
C1753 C1750 1.499 . S
C1753 C1754 1.373 . S
C1753 C1755 1.389 . S
C1754 H1727 0.950 . S
C1754 C1740 1.377 1_554 S
C1754 C1753 1.373 . S
C1755 C1739 1.377 1_554 S
C1755 C1753 1.389 . S
C1755 C1756 1.524 . S
C1756 C1755 1.524 . S
C1756 C1757 1.397 . S
C1756 C1761 1.363 . S
C1757 H1728 0.950 . S
C1757 C1756 1.397 . S
C1757 C1758 1.334 . S
C1758 H1729 0.950 . S
C1758 C1757 1.334 . S
C1758 C1759 1.287 . S
C1759 C1758 1.287 . S
C1759 C1760 1.524 . S
C1759 H1762 0.999 . S
C1760 H1730 0.950 . S
C1760 C1759 1.524 . S
C1760 C1761 1.415 . S
C1761 H1731 0.950 . S
C1761 C1756 1.363 . S
C1761 C1760 1.415 . S
H1762 C1759 0.999 . S
H1763 C1744 0.913 . S
H1764 C1782 0.951 . S
H1765 C1784 0.951 . S
H1766 C1786 0.950 . S
H1767 C1787 0.950 . S
H1768 C1789 0.950 . S
H1769 C1792 0.950 . S
H1770 C1793 0.950 . S
H1771 C1795 0.950 . S
H1772 C1796 0.950 . S
H1773 C1797 0.951 . S
H1774 C1799 0.951 . S
H1775 C1801 0.950 . S
H1776 C1802 0.950 . S
H1777 C1804 0.950 . S
H1778 C1807 0.950 . S
H1779 C1808 0.950 . S
H1780 C1810 0.950 . S
H1781 C1811 0.950 . S
C1782 H1764 0.951 . S
C1782 C1783 1.366 . S
C1782 C1784 1.388 . S
C1783 C1782 1.366 . S
C1783 C1787 1.385 . S
C1784 H1765 0.951 . S
C1784 C1782 1.388 . S
C1784 C1785 1.366 . S
C1785 C1784 1.366 . S
C1785 C1786 1.414 . S
C1785 C1788 1.499 . S
C1786 H1766 0.950 . S
C1786 C1785 1.414 . S
C1786 C1787 1.374 . S
C1787 H1767 0.950 . S
C1787 C1783 1.385 . S
C1787 C1786 1.374 . S
C1788 C1785 1.499 . S
C1788 C1789 1.373 . S
C1788 C1790 1.389 . S
C1789 H1768 0.950 . S
C1789 C1788 1.373 . S
C1789 C1805 1.377 1_554 S
C1790 C1788 1.389 . S
C1790 C1791 1.524 . S
C1790 C1804 1.377 1_554 S
C1791 C1790 1.524 . S
C1791 C1792 1.397 . S
C1791 C1796 1.363 . S
C1792 H1769 0.950 . S
C1792 C1791 1.397 . S
C1792 C1793 1.334 . S
C1793 H1770 0.950 . S
C1793 C1792 1.334 . S
C1793 C1794 1.287 . S
C1794 C1793 1.287 . S
C1794 C1795 1.524 . S
C1794 H1813 0.913 . S
C1795 H1771 0.950 . S
C1795 C1794 1.524 . S
C1795 C1796 1.415 . S
C1796 H1772 0.950 . S
C1796 C1791 1.363 . S
C1796 C1795 1.415 . S
C1797 H1773 0.951 . S
C1797 C1798 1.366 . S
C1797 C1799 1.388 . S
C1798 C1797 1.366 . S
C1798 C1802 1.385 . S
C1799 H1774 0.951 . S
C1799 C1797 1.388 . S
C1799 C1800 1.366 . S
C1800 C1799 1.366 . S
C1800 C1801 1.414 . S
C1800 C1803 1.499 . S
C1801 H1775 0.950 . S
C1801 C1800 1.414 . S
C1801 C1802 1.374 . S
C1802 H1776 0.950 . S
C1802 C1798 1.385 . S
C1802 C1801 1.374 . S
C1803 C1800 1.499 . S
C1803 C1804 1.373 . S
C1803 C1805 1.389 . S
C1804 H1777 0.950 . S
C1804 C1790 1.377 1_556 S
C1804 C1803 1.373 . S
C1805 C1789 1.377 1_556 S
C1805 C1803 1.389 . S
C1805 C1806 1.524 . S
C1806 C1805 1.524 . S
C1806 C1807 1.397 . S
C1806 C1811 1.363 . S
C1807 H1778 0.950 . S
C1807 C1806 1.397 . S
C1807 C1808 1.334 . S
C1808 H1779 0.950 . S
C1808 C1807 1.334 . S
C1808 C1809 1.287 . S
C1809 C1808 1.287 . S
C1809 C1810 1.524 . S
C1809 H1812 0.999 . S
C1810 H1780 0.950 . S
C1810 C1809 1.524 . S
C1810 C1811 1.415 . S
C1811 H1781 0.950 . S
C1811 C1806 1.363 . S
C1811 C1810 1.415 . S
H1812 C1809 0.999 . S
H1813 C1794 0.913 . S
H1814 C1832 0.951 . S
H1815 C1834 0.951 . S
H1816 C1836 0.950 . S
H1817 C1837 0.950 . S
H1818 C1839 0.950 . S
H1819 C1842 0.950 . S
H1820 C1843 0.950 . S
H1821 C1845 0.950 . S
H1822 C1846 0.950 . S
H1823 C1847 0.951 . S
H1824 C1849 0.951 . S
H1825 C1851 0.950 . S
H1826 C1852 0.950 . S
H1827 C1854 0.950 . S
H1828 C1857 0.950 . S
H1829 C1858 0.950 . S
H1830 C1860 0.950 . S
H1831 C1861 0.950 . S
C1832 H1814 0.951 . S
C1832 C1833 1.366 . S
C1832 C1834 1.388 . S
C1833 C1832 1.366 . S
C1833 C1837 1.385 . S
C1834 H1815 0.951 . S
C1834 C1832 1.388 . S
C1834 C1835 1.366 . S
C1835 C1834 1.366 . S
C1835 C1836 1.414 . S
C1835 C1838 1.499 . S
C1836 H1816 0.950 . S
C1836 C1835 1.414 . S
C1836 C1837 1.374 . S
C1837 H1817 0.950 . S
C1837 C1833 1.385 . S
C1837 C1836 1.374 . S
C1838 C1835 1.499 . S
C1838 C1839 1.373 . S
C1838 C1840 1.389 . S
C1839 H1818 0.950 . S
C1839 C1838 1.373 . S
C1839 C1855 1.377 1_556 S
C1840 C1838 1.389 . S
C1840 C1841 1.524 . S
C1840 C1854 1.377 1_556 S
C1841 C1840 1.524 . S
C1841 C1842 1.397 . S
C1841 C1846 1.363 . S
C1842 H1819 0.950 . S
C1842 C1841 1.397 . S
C1842 C1843 1.334 . S
C1843 H1820 0.950 . S
C1843 C1842 1.334 . S
C1843 C1844 1.287 . S
C1844 C1843 1.287 . S
C1844 C1845 1.524 . S
C1844 H1863 0.913 . S
C1845 H1821 0.950 . S
C1845 C1844 1.524 . S
C1845 C1846 1.415 . S
C1846 H1822 0.950 . S
C1846 C1841 1.363 . S
C1846 C1845 1.415 . S
C1847 H1823 0.951 . S
C1847 C1848 1.366 . S
C1847 C1849 1.388 . S
C1848 C1847 1.366 . S
C1848 C1852 1.385 . S
C1849 H1824 0.951 . S
C1849 C1847 1.388 . S
C1849 C1850 1.366 . S
C1850 C1849 1.366 . S
C1850 C1851 1.414 . S
C1850 C1853 1.499 . S
C1851 H1825 0.950 . S
C1851 C1850 1.414 . S
C1851 C1852 1.374 . S
C1852 H1826 0.950 . S
C1852 C1848 1.385 . S
C1852 C1851 1.374 . S
C1853 C1850 1.499 . S
C1853 C1854 1.373 . S
C1853 C1855 1.389 . S
C1854 H1827 0.950 . S
C1854 C1840 1.377 1_554 S
C1854 C1853 1.373 . S
C1855 C1839 1.377 1_554 S
C1855 C1853 1.389 . S
C1855 C1856 1.524 . S
C1856 C1855 1.524 . S
C1856 C1857 1.397 . S
C1856 C1861 1.363 . S
C1857 H1828 0.950 . S
C1857 C1856 1.397 . S
C1857 C1858 1.334 . S
C1858 H1829 0.950 . S
C1858 C1857 1.334 . S
C1858 C1859 1.287 . S
C1859 C1858 1.287 . S
C1859 C1860 1.524 . S
C1859 H1862 0.999 . S
C1860 H1830 0.950 . S
C1860 C1859 1.524 . S
C1860 C1861 1.415 . S
C1861 H1831 0.950 . S
C1861 C1856 1.363 . S
C1861 C1860 1.415 . S
H1862 C1859 0.999 . S
H1863 C1844 0.913 . S
H1864 C1882 0.951 . S
H1865 C1884 0.951 . S
H1866 C1886 0.950 . S
H1867 C1887 0.950 . S
H1868 C1889 0.950 . S
H1869 C1892 0.950 . S
H1870 C1893 0.950 . S
H1871 C1895 0.950 . S
H1872 C1896 0.950 . S
H1873 C1897 0.951 . S
H1874 C1899 0.951 . S
H1875 C1901 0.950 . S
H1876 C1902 0.950 . S
H1877 C1904 0.950 . S
H1878 C1907 0.950 . S
H1879 C1908 0.950 . S
H1880 C1910 0.950 . S
H1881 C1911 0.950 . S
C1882 H1864 0.951 . S
C1882 C1883 1.366 . S
C1882 C1884 1.388 . S
C1883 C1882 1.366 . S
C1883 C1887 1.385 . S
C1884 H1865 0.951 . S
C1884 C1882 1.388 . S
C1884 C1885 1.366 . S
C1885 C1884 1.366 . S
C1885 C1886 1.414 . S
C1885 C1888 1.499 . S
C1886 H1866 0.950 . S
C1886 C1885 1.414 . S
C1886 C1887 1.374 . S
C1887 H1867 0.950 . S
C1887 C1883 1.385 . S
C1887 C1886 1.374 . S
C1888 C1885 1.499 . S
C1888 C1889 1.373 . S
C1888 C1890 1.389 . S
C1889 H1868 0.950 . S
C1889 C1888 1.373 . S
C1889 C1905 1.377 1_455 S
C1890 C1888 1.389 . S
C1890 C1891 1.524 . S
C1890 C1904 1.377 1_455 S
C1891 C1890 1.524 . S
C1891 C1892 1.397 . S
C1891 C1896 1.363 . S
C1892 H1869 0.950 . S
C1892 C1891 1.397 . S
C1892 C1893 1.334 . S
C1893 H1870 0.950 . S
C1893 C1892 1.334 . S
C1893 C1894 1.287 . S
C1894 C1893 1.287 . S
C1894 C1895 1.524 . S
C1894 H1913 0.913 . S
C1895 H1871 0.950 . S
C1895 C1894 1.524 . S
C1895 C1896 1.415 . S
C1896 H1872 0.950 . S
C1896 C1891 1.363 . S
C1896 C1895 1.415 . S
C1897 H1873 0.951 . S
C1897 C1898 1.366 . S
C1897 C1899 1.388 . S
C1898 C1897 1.366 . S
C1898 C1902 1.385 . S
C1899 H1874 0.951 . S
C1899 C1897 1.388 . S
C1899 C1900 1.366 . S
C1900 C1899 1.366 . S
C1900 C1901 1.414 . S
C1900 C1903 1.499 . S
C1901 H1875 0.950 . S
C1901 C1900 1.414 . S
C1901 C1902 1.374 . S
C1902 H1876 0.950 . S
C1902 C1898 1.385 . S
C1902 C1901 1.374 . S
C1903 C1900 1.499 . S
C1903 C1904 1.373 . S
C1903 C1905 1.389 . S
C1904 H1877 0.950 . S
C1904 C1890 1.377 1_655 S
C1904 C1903 1.373 . S
C1905 C1889 1.377 1_655 S
C1905 C1903 1.389 . S
C1905 C1906 1.524 . S
C1906 C1905 1.524 . S
C1906 C1907 1.397 . S
C1906 C1911 1.363 . S
C1907 H1878 0.950 . S
C1907 C1906 1.397 . S
C1907 C1908 1.334 . S
C1908 H1879 0.950 . S
C1908 C1907 1.334 . S
C1908 C1909 1.287 . S
C1909 C1908 1.287 . S
C1909 C1910 1.524 . S
C1909 H1912 0.999 . S
C1910 H1880 0.950 . S
C1910 C1909 1.524 . S
C1910 C1911 1.415 . S
C1911 H1881 0.950 . S
C1911 C1906 1.363 . S
C1911 C1910 1.415 . S
H1912 C1909 0.999 . S
H1913 C1894 0.913 . S
H1914 C1932 0.951 . S
H1915 C1934 0.951 . S
H1916 C1936 0.950 . S
H1917 C1937 0.950 . S
H1918 C1939 0.950 . S
H1919 C1942 0.950 . S
H1920 C1943 0.950 . S
H1921 C1945 0.950 . S
H1922 C1946 0.950 . S
H1923 C1947 0.951 . S
H1924 C1949 0.951 . S
H1925 C1951 0.950 . S
H1926 C1952 0.950 . S
H1927 C1954 0.950 . S
H1928 C1957 0.950 . S
H1929 C1958 0.950 . S
H1930 C1960 0.950 . S
H1931 C1961 0.950 . S
C1932 H1914 0.951 . S
C1932 C1933 1.366 . S
C1932 C1934 1.388 . S
C1933 C1932 1.366 . S
C1933 C1937 1.385 . S
C1934 H1915 0.951 . S
C1934 C1932 1.388 . S
C1934 C1935 1.366 . S
C1935 C1934 1.366 . S
C1935 C1936 1.414 . S
C1935 C1938 1.499 . S
C1936 H1916 0.950 . S
C1936 C1935 1.414 . S
C1936 C1937 1.374 . S
C1937 H1917 0.950 . S
C1937 C1933 1.385 . S
C1937 C1936 1.374 . S
C1938 C1935 1.499 . S
C1938 C1939 1.373 . S
C1938 C1940 1.389 . S
C1939 H1918 0.950 . S
C1939 C1938 1.373 . S
C1939 C1955 1.377 1_655 S
C1940 C1938 1.389 . S
C1940 C1941 1.524 . S
C1940 C1954 1.377 1_655 S
C1941 C1940 1.524 . S
C1941 C1942 1.397 . S
C1941 C1946 1.363 . S
C1942 H1919 0.950 . S
C1942 C1941 1.397 . S
C1942 C1943 1.334 . S
C1943 H1920 0.950 . S
C1943 C1942 1.334 . S
C1943 C1944 1.287 . S
C1944 C1943 1.287 . S
C1944 C1945 1.524 . S
C1944 H1963 0.913 . S
C1945 H1921 0.950 . S
C1945 C1944 1.524 . S
C1945 C1946 1.415 . S
C1946 H1922 0.950 . S
C1946 C1941 1.363 . S
C1946 C1945 1.415 . S
C1947 H1923 0.951 . S
C1947 C1948 1.366 . S
C1947 C1949 1.388 . S
C1948 C1947 1.366 . S
C1948 C1952 1.385 . S
C1949 H1924 0.951 . S
C1949 C1947 1.388 . S
C1949 C1950 1.366 . S
C1950 C1949 1.366 . S
C1950 C1951 1.414 . S
C1950 C1953 1.499 . S
C1951 H1925 0.950 . S
C1951 C1950 1.414 . S
C1951 C1952 1.374 . S
C1952 H1926 0.950 . S
C1952 C1948 1.385 . S
C1952 C1951 1.374 . S
C1953 C1950 1.499 . S
C1953 C1954 1.373 . S
C1953 C1955 1.389 . S
C1954 H1927 0.950 . S
C1954 C1940 1.377 1_455 S
C1954 C1953 1.373 . S
C1955 C1939 1.377 1_455 S
C1955 C1953 1.389 . S
C1955 C1956 1.524 . S
C1956 C1955 1.524 . S
C1956 C1957 1.397 . S
C1956 C1961 1.363 . S
C1957 H1928 0.950 . S
C1957 C1956 1.397 . S
C1957 C1958 1.334 . S
C1958 H1929 0.950 . S
C1958 C1957 1.334 . S
C1958 C1959 1.287 . S
C1959 C1958 1.287 . S
C1959 C1960 1.524 . S
C1959 H1962 0.999 . S
C1960 H1930 0.950 . S
C1960 C1959 1.524 . S
C1960 C1961 1.415 . S
C1961 H1931 0.950 . S
C1961 C1956 1.363 . S
C1961 C1960 1.415 . S
H1962 C1959 0.999 . S
H1963 C1944 0.913 . S
H1964 C1982 0.951 . S
H1965 C1984 0.951 . S
H1966 C1986 0.950 . S
H1967 C1987 0.950 . S
H1968 C1989 0.950 . S
H1969 C1992 0.950 . S
H1970 C1993 0.950 . S
H1971 C1995 0.950 . S
H1972 C1996 0.950 . S
H1973 C1997 0.951 . S
H1974 C1999 0.951 . S
H1975 C2001 0.950 . S
H1976 C2002 0.950 . S
H1977 C2004 0.950 . S
H1978 C2007 0.950 . S
H1979 C2008 0.950 . S
H1980 C2010 0.950 . S
H1981 C2011 0.950 . S
C1982 H1964 0.951 . S
C1982 C1983 1.366 . S
C1982 C1984 1.388 . S
C1983 C1982 1.366 . S
C1983 C1987 1.385 . S
C1984 H1965 0.951 . S
C1984 C1982 1.388 . S
C1984 C1985 1.366 . S
C1985 C1984 1.366 . S
C1985 C1986 1.414 . S
C1985 C1988 1.499 . S
C1986 H1966 0.950 . S
C1986 C1985 1.414 . S
C1986 C1987 1.374 . S
C1987 H1967 0.950 . S
C1987 C1983 1.385 . S
C1987 C1986 1.374 . S
C1988 C1985 1.499 . S
C1988 C1989 1.373 . S
C1988 C1990 1.389 . S
C1989 H1968 0.950 . S
C1989 C1988 1.373 . S
C1989 C2005 1.377 1_545 S
C1990 C1988 1.389 . S
C1990 C1991 1.524 . S
C1990 C2004 1.377 1_545 S
C1991 C1990 1.524 . S
C1991 C1992 1.397 . S
C1991 C1996 1.363 . S
C1992 H1969 0.950 . S
C1992 C1991 1.397 . S
C1992 C1993 1.334 . S
C1993 H1970 0.950 . S
C1993 C1992 1.334 . S
C1993 C1994 1.287 . S
C1994 C1993 1.287 . S
C1994 C1995 1.524 . S
C1994 H2013 0.913 . S
C1995 H1971 0.950 . S
C1995 C1994 1.524 . S
C1995 C1996 1.415 . S
C1996 H1972 0.950 . S
C1996 C1991 1.363 . S
C1996 C1995 1.415 . S
C1997 H1973 0.951 . S
C1997 C1998 1.366 . S
C1997 C1999 1.388 . S
C1998 C1997 1.366 . S
C1998 C2002 1.385 . S
C1999 H1974 0.951 . S
C1999 C1997 1.388 . S
C1999 C2000 1.366 . S
C2000 C1999 1.366 . S
C2000 C2001 1.414 . S
C2000 C2003 1.499 . S
C2001 H1975 0.950 . S
C2001 C2000 1.414 . S
C2001 C2002 1.374 . S
C2002 H1976 0.950 . S
C2002 C1998 1.385 . S
C2002 C2001 1.374 . S
C2003 C2000 1.499 . S
C2003 C2004 1.373 . S
C2003 C2005 1.389 . S
C2004 H1977 0.950 . S
C2004 C1990 1.377 1_565 S
C2004 C2003 1.373 . S
C2005 C1989 1.377 1_565 S
C2005 C2003 1.389 . S
C2005 C2006 1.524 . S
C2006 C2005 1.524 . S
C2006 C2007 1.397 . S
C2006 C2011 1.363 . S
C2007 H1978 0.950 . S
C2007 C2006 1.397 . S
C2007 C2008 1.334 . S
C2008 H1979 0.950 . S
C2008 C2007 1.334 . S
C2008 C2009 1.287 . S
C2009 C2008 1.287 . S
C2009 C2010 1.524 . S
C2009 H2012 0.999 . S
C2010 H1980 0.950 . S
C2010 C2009 1.524 . S
C2010 C2011 1.415 . S
C2011 H1981 0.950 . S
C2011 C2006 1.363 . S
C2011 C2010 1.415 . S
H2012 C2009 0.999 . S
H2013 C1994 0.913 . S
H2014 C2032 0.951 . S
H2015 C2034 0.951 . S
H2016 C2036 0.950 . S
H2017 C2037 0.950 . S
H2018 C2039 0.950 . S
H2019 C2042 0.950 . S
H2020 C2043 0.950 . S
H2021 C2045 0.950 . S
H2022 C2046 0.950 . S
H2023 C2047 0.951 . S
H2024 C2049 0.951 . S
H2025 C2051 0.950 . S
H2026 C2052 0.950 . S
H2027 C2054 0.950 . S
H2028 C2057 0.950 . S
H2029 C2058 0.950 . S
H2030 C2060 0.950 . S
H2031 C2061 0.950 . S
C2032 H2014 0.951 . S
C2032 C2033 1.366 . S
C2032 C2034 1.388 . S
C2033 C2032 1.366 . S
C2033 C2037 1.385 . S
C2034 H2015 0.951 . S
C2034 C2032 1.388 . S
C2034 C2035 1.366 . S
C2035 C2034 1.366 . S
C2035 C2036 1.414 . S
C2035 C2038 1.499 . S
C2036 H2016 0.950 . S
C2036 C2035 1.414 . S
C2036 C2037 1.374 . S
C2037 H2017 0.950 . S
C2037 C2033 1.385 . S
C2037 C2036 1.374 . S
C2038 C2035 1.499 . S
C2038 C2039 1.373 . S
C2038 C2040 1.389 . S
C2039 H2018 0.950 . S
C2039 C2038 1.373 . S
C2039 C2055 1.377 1_565 S
C2040 C2038 1.389 . S
C2040 C2041 1.524 . S
C2040 C2054 1.377 1_565 S
C2041 C2040 1.524 . S
C2041 C2042 1.397 . S
C2041 C2046 1.363 . S
C2042 H2019 0.950 . S
C2042 C2041 1.397 . S
C2042 C2043 1.334 . S
C2043 H2020 0.950 . S
C2043 C2042 1.334 . S
C2043 C2044 1.287 . S
C2044 C2043 1.287 . S
C2044 C2045 1.524 . S
C2044 H2063 0.913 . S
C2045 H2021 0.950 . S
C2045 C2044 1.524 . S
C2045 C2046 1.415 . S
C2046 H2022 0.950 . S
C2046 C2041 1.363 . S
C2046 C2045 1.415 . S
C2047 H2023 0.951 . S
C2047 C2048 1.366 . S
C2047 C2049 1.388 . S
C2048 C2047 1.366 . S
C2048 C2052 1.385 . S
C2049 H2024 0.951 . S
C2049 C2047 1.388 . S
C2049 C2050 1.366 . S
C2050 C2049 1.366 . S
C2050 C2051 1.414 . S
C2050 C2053 1.499 . S
C2051 H2025 0.950 . S
C2051 C2050 1.414 . S
C2051 C2052 1.374 . S
C2052 H2026 0.950 . S
C2052 C2048 1.385 . S
C2052 C2051 1.374 . S
C2053 C2050 1.499 . S
C2053 C2054 1.373 . S
C2053 C2055 1.389 . S
C2054 H2027 0.950 . S
C2054 C2040 1.377 1_545 S
C2054 C2053 1.373 . S
C2055 C2039 1.377 1_545 S
C2055 C2053 1.389 . S
C2055 C2056 1.524 . S
C2056 C2055 1.524 . S
C2056 C2057 1.397 . S
C2056 C2061 1.363 . S
C2057 H2028 0.950 . S
C2057 C2056 1.397 . S
C2057 C2058 1.334 . S
C2058 H2029 0.950 . S
C2058 C2057 1.334 . S
C2058 C2059 1.287 . S
C2059 C2058 1.287 . S
C2059 C2060 1.524 . S
C2059 H2062 0.999 . S
C2060 H2030 0.950 . S
C2060 C2059 1.524 . S
C2060 C2061 1.415 . S
C2061 H2031 0.950 . S
C2061 C2056 1.363 . S
C2061 C2060 1.415 . S
H2062 C2059 0.999 . S
H2063 C2044 0.913 . S
C283 C5 1.401 . S
C298 C161 1.400 . S
C333 C94 1.401 . S
C348 C31 1.401 . S
C383 C53 1.401 . S
C398 C117 1.401 . S
C433 C71 1.400 . S
C448 C139 1.401 . S
C483 C75 1.400 . S
C498 C204 1.401 . S
C533 C9 1.401 . S
C548 C227 1.400 . S
C583 C248 1.401 . S
C598 C27 1.401 . S
C633 C49 1.400 . S
C648 C182 1.401 . S
C683 C93 1.401 . S
C698 C7 1.401 . S
C733 C119 1.401 . S
C748 C28 1.400 . S
C783 C141 1.401 . S
C798 C50 1.401 . S
C833 C73 1.400 . S
C848 C163 1.401 . S
C883 C72 1.400 . S
C898 C181 1.401 . S
C933 C6 1.401 . S
C948 C203 1.400 . S
C983 C229 1.401 . S
C998 C29 1.401 . S
C1033 C247 1.400 . S
C1048 C51 1.401 . S
C1083 C95 1.400 . S
C1098 C159 1.401 . S
C1133 C207 1.400 . S
C1148 C183 1.401 . S
C1183 C205 1.400 . S
C1198 C225 1.401 . S
C1233 C251 1.401 . S
C1248 C226 1.400 . S
C1283 C249 1.400 . S
C1298 C185 1.401 . S
C1333 C138 1.400 . S
C1348 C115 1.401 . S
C1383 C137 1.401 . S
C1398 C160 1.400 . S
C1433 C97 1.401 . S
C1448 C116 1.401 . S
C1483 C70 1.557 . S
C1498 C8 1.557 . S
C1533 C4 1.557 . S
C1548 C26 1.557 . S
C1583 C30 1.557 . S
C1598 C48 1.557 . S
C1633 C74 1.557 . S
C1648 C52 1.557 . S
C1683 C224 1.557 . S
C1698 C96 1.557 . S
C1733 C250 1.557 . S
C1748 C114 1.557 . S
C1783 C136 1.557 . S
C1798 C184 1.557 . S
C1833 C206 1.557 . S
C1848 C158 1.557 . S
C1883 C162 1.557 . S
C1898 C118 1.557 . S
C1933 C246 1.557 . S
C1948 C202 1.557 . S
C1983 C228 1.557 . S
C1998 C180 1.557 . S
C2033 C140 1.557 . S
C2048 C92 1.557 . S
