# Generated by pormake.
# Topology xfu, (5)-cn, num edge types: 1
# Building blocks:
#     Node 0, Type 0, BuildingBlock: XOMCOT_clean_sbu_0, # of connection points: 5
#     Node 1, Type 0, BuildingBlock: XOMCOT_clean_sbu_0, # of connection points: 5
#     Node 2, Type 0, BuildingBlock: XOMCOT_clean_sbu_0, # of connection points: 5
#     Node 3, Type 0, BuildingBlock: XOMCOT_clean_sbu_0, # of connection points: 5
#     Node 4, Type 0, BuildingBlock: XOMCOT_clean_sbu_0, # of connection points: 5
#     Node 5, Type 0, BuildingBlock: XOMCOT_clean_sbu_0, # of connection points: 5
#     Node 6, Type 0, BuildingBlock: XOMCOT_clean_sbu_0, # of connection points: 5
#     Node 7, Type 0, BuildingBlock: XOMCOT_clean_sbu_0, # of connection points: 5
#     Edge 8, Type (0, 0), BuildingBlock: EZIPEK_clean_linker_0, # of connection points: 2
#     Edge 9, Type (0, 0), BuildingBlock: EZIPEK_clean_linker_0, # of connection points: 2
#     Edge 10, Type (0, 0), BuildingBlock: EZIPEK_clean_linker_0, # of connection points: 2
#     Edge 11, Type (0, 0), BuildingBlock: EZIPEK_clean_linker_0, # of connection points: 2
#     Edge 12, Type (0, 0), BuildingBlock: EZIPEK_clean_linker_0, # of connection points: 2
#     Edge 13, Type (0, 0), BuildingBlock: EZIPEK_clean_linker_0, # of connection points: 2
#     Edge 14, Type (0, 0), BuildingBlock: EZIPEK_clean_linker_0, # of connection points: 2
#     Edge 15, Type (0, 0), BuildingBlock: EZIPEK_clean_linker_0, # of connection points: 2
#     Edge 16, Type (0, 0), BuildingBlock: EZIPEK_clean_linker_0, # of connection points: 2
#     Edge 17, Type (0, 0), BuildingBlock: EZIPEK_clean_linker_0, # of connection points: 2
#     Edge 18, Type (0, 0), BuildingBlock: EZIPEK_clean_linker_0, # of connection points: 2
#     Edge 19, Type (0, 0), BuildingBlock: EZIPEK_clean_linker_0, # of connection points: 2
#     Edge 20, Type (0, 0), BuildingBlock: EZIPEK_clean_linker_0, # of connection points: 2
#     Edge 21, Type (0, 0), BuildingBlock: EZIPEK_clean_linker_0, # of connection points: 2
#     Edge 22, Type (0, 0), BuildingBlock: EZIPEK_clean_linker_0, # of connection points: 2
#     Edge 23, Type (0, 0), BuildingBlock: EZIPEK_clean_linker_0, # of connection points: 2
#     Edge 24, Type (0, 0), BuildingBlock: EZIPEK_clean_linker_0, # of connection points: 2
#     Edge 25, Type (0, 0), BuildingBlock: EZIPEK_clean_linker_0, # of connection points: 2
#     Edge 26, Type (0, 0), BuildingBlock: EZIPEK_clean_linker_0, # of connection points: 2
#     Edge 27, Type (0, 0), BuildingBlock: EZIPEK_clean_linker_0, # of connection points: 2
# Relax obj value: 0.372
# Max RMSD: 0.275
# Mean RMSD: 0.275
data_MOF--net-xfu--node1-XOMCOT_clean_sbu_0--edge1-EZIPEK_clean_linker_0
_symmetry_space_group_name_H-M    P1
_symmetry_Int_Tables_number       1
_symmetry_cell_setting            triclinic
loop_
_symmetry_equiv_pos_as_xyz
'x, y, z'
_cell_length_a     23.008318
_cell_length_b     22.961164
_cell_length_c     38.564181
_cell_angle_alpha  89.910729
_cell_angle_beta   90.197853
_cell_angle_gamma 90.209265
loop_
_atom_site_label
_atom_site_type_symbol
_atom_site_fract_x
_atom_site_fract_y
_atom_site_fract_z
_atom_type_partial_charge
Co0 Co 0.11798 0.25232 0.62285 0.0
C1 C 0.1005 0.15703 0.5718 0.0
C2 C 0.06892 0.1319 0.62175 0.0
C3 C 0.05415 0.08907 0.59841 0.0
N4 N 0.09813 0.1749 0.60522 0.0
N5 N 0.07361 0.10552 0.56711 0.0
H6 H 0.11705 0.1829 0.55056 0.0
H7 H 0.05482 0.13261 0.64819 0.0
C8 C 0.08774 0.20654 0.69651 0.0
O9 O 0.03122 0.20546 0.69187 0.0
N10 N 0.13793 0.32948 0.64001 0.0
C11 C 0.13883 0.38008 0.62209 0.0
C12 C 0.15576 0.42448 0.64401 0.0
C13 C 0.15303 0.34413 0.67262 0.0
N14 N 0.16349 0.40168 0.67588 0.0
C15 C 0.00335 0.26081 0.59597 0.0
C16 C 0.95461 0.31866 0.65146 0.0
C17 C 0.9199 0.30341 0.62307 0.0
C18 C 0.94471 0.275 0.59487 0.0
C19 C 0.01328 0.30356 0.65146 0.0
N20 N 0.03631 0.27252 0.62464 0.0
H21 H 0.02246 0.24103 0.57344 0.0
H22 H 0.03977 0.31603 0.67329 0.0
H23 H 0.12736 0.38486 0.59507 0.0
H24 H 0.15635 0.31374 0.69393 0.0
O25 O 0.13407 0.2793 0.57624 0.0
O26 O 0.19822 0.2393 0.612 0.0
O27 O 0.12248 0.22106 0.67214 0.0
C28 C 0.1875 0.26347 0.58213 0.0
H29 H 0.02741 0.0511 0.60342 0.0
H30 H 0.16125 0.46994 0.63725 0.0
H31 H 0.93647 0.34177 0.67334 0.0
H32 H 0.91897 0.26407 0.5722 0.0
Co33 Co 0.86406 0.64017 0.11621 0.0
C34 C 0.95062 0.59821 0.06672 0.0
C35 C 0.99174 0.63778 0.11098 0.0
C36 C 0.03439 0.6202 0.08829 0.0
N37 N 0.93948 0.6235 0.09742 0.0
N38 N 0.0081 0.59579 0.06063 0.0
H39 H 0.91748 0.58241 0.04906 0.0
H40 H -0.00157 0.66033 0.13527 0.0
C41 C 0.88324 0.61587 0.19297 0.0
O42 O 0.83681 0.5826 0.19439 0.0
N43 N 0.78673 0.65826 0.13463 0.0
C44 C 0.73517 0.65061 0.11822 0.0
C45 C 0.69047 0.66014 0.14119 0.0
C46 C 0.77188 0.67703 0.16661 0.0
N47 N 0.71398 0.67604 0.17166 0.0
C48 C 0.80281 0.53692 0.09509 0.0
C49 C 0.85839 0.46176 0.13958 0.0
C50 C 0.80512 0.4433 0.12479 0.0
C51 C 0.78207 0.48009 0.09883 0.0
C52 C 0.87788 0.51891 0.13495 0.0
N53 N 0.84609 0.55741 0.11591 0.0
H54 H 0.78397 0.56436 0.0754 0.0
H55 H 0.91785 0.53247 0.14735 0.0
H56 H 0.72967 0.63733 0.09161 0.0
H57 H 0.80206 0.689 0.18676 0.0
O58 O 0.83728 0.66207 0.07019 0.0
O59 O 0.87767 0.72126 0.10886 0.0
O60 O 0.89975 0.63694 0.16405 0.0
C61 C 0.85505 0.71428 0.07824 0.0
H62 H 0.08084 0.6258 0.09142 0.0
H63 H 0.64465 0.65246 0.13657 0.0
H64 H 0.88564 0.43301 0.15463 0.0
H65 H 0.74874 0.46603 0.08096 0.0
Co66 Co 0.4703 0.36699 0.61495 0.0
C67 C 0.50968 0.46054 0.56882 0.0
C68 C 0.43198 0.48514 0.59563 0.0
C69 C 0.44445 0.52738 0.57128 0.0
N70 N 0.47343 0.4437 0.59438 0.0
N71 N 0.49315 0.51145 0.55462 0.0
H72 H 0.545 0.43426 0.5591 0.0
H73 H 0.39372 0.48317 0.61182 0.0
C74 C 0.47385 0.44952 0.67786 0.0
O75 O 0.48881 0.49529 0.65946 0.0
N76 N 0.46691 0.28895 0.63478 0.0
C77 C 0.46748 0.23747 0.6178 0.0
C78 C 0.45854 0.1929 0.64113 0.0
C79 C 0.45895 0.27455 0.66836 0.0
N80 N 0.45362 0.21651 0.67285 0.0
C81 C 0.57918 0.31981 0.59422 0.0
C82 C 0.64893 0.39198 0.63397 0.0
C83 C 0.67416 0.3471 0.61504 0.0
C84 C 0.63913 0.31122 0.59448 0.0
C85 C 0.58891 0.39893 0.63301 0.0
N86 N 0.5545 0.36196 0.61423 0.0
H87 H 0.55251 0.29211 0.57814 0.0
H88 H 0.57098 0.43419 0.64738 0.0
H89 H 0.47301 0.23218 0.59029 0.0
H90 H 0.45411 0.30546 0.68922 0.0
O91 O 0.45227 0.33581 0.56919 0.0
O92 O 0.38768 0.36509 0.60794 0.0
O93 O 0.46897 0.39922 0.66393 0.0
C94 C 0.398 0.34315 0.57754 0.0
H95 H 0.41829 0.56504 0.56495 0.0
H96 H 0.45436 0.14699 0.63524 0.0
H97 H 0.67538 0.42093 0.64966 0.0
H98 H 0.65791 0.2766 0.57916 0.0
Co99 Co 0.76671 0.99465 0.11486 0.0
C100 C 0.67884 0.01915 0.06149 0.0
C101 C 0.64404 0.96387 0.10143 0.0
C102 C 0.6009 0.97433 0.07729 0.0
N103 N 0.69256 0.99238 0.09151 0.0
N104 N 0.62323 0.00875 0.05229 0.0
H105 H 0.70872 0.04597 0.04679 0.0
H106 H 0.64022 0.93734 0.12451 0.0
C107 C 0.73541 0.00487 0.19032 0.0
O108 O 0.77139 0.04896 0.19371 0.0
N109 N 0.84279 0.99596 0.13812 0.0
C110 C 0.89216 0.02283 0.12761 0.0
C111 C 0.9357 0.01317 0.15156 0.0
C112 C 0.85861 0.96766 0.16747 0.0
N113 N 0.91423 0.97864 0.1766 0.0
C114 C 0.79764 0.11199 0.0965 0.0
C115 C 0.71636 0.16608 0.13792 0.0
C116 C 0.75824 0.19976 0.12093 0.0
C117 C 0.79797 0.17257 0.09906 0.0
C118 C 0.71762 0.10561 0.13452 0.0
N119 N 0.76099 0.07911 0.11632 0.0
H120 H 0.82675 0.09165 0.07844 0.0
H121 H 0.68397 0.08023 0.14686 0.0
H122 H 0.89747 0.0472 0.10398 0.0
H123 H 0.8302 0.94037 0.18251 0.0
O124 O 0.80545 0.98465 0.07048 0.0
O125 O 0.77641 0.91378 0.10593 0.0
O126 O 0.72532 0.98352 0.16048 0.0
C127 C 0.80066 0.92913 0.077 0.0
H128 H 0.55675 0.95792 0.07786 0.0
H129 H 0.97933 0.03092 0.15103 0.0
H130 H 0.6836 0.1863 0.15397 0.0
H131 H 0.82929 0.1979 0.08444 0.0
Co132 Co 0.99556 0.85513 0.37836 0.0
C133 C 0.00852 0.94565 0.43226 0.0
C134 C 0.99438 0.98613 0.38303 0.0
C135 C 0.00289 0.02916 0.40738 0.0
N136 N -0.00086 0.93331 0.39842 0.0
N137 N 0.01197 0.00319 0.43809 0.0
H138 H 0.01378 0.91351 0.45253 0.0
H139 H 0.98588 0.99436 0.35613 0.0
C140 C 0.01377 0.91999 0.30935 0.0
O141 O 0.06276 0.94439 0.31936 0.0
N142 N 0.99137 0.77758 0.35928 0.0
C143 C 0.02521 0.73158 0.36725 0.0
C144 C 0.01465 0.68797 0.34345 0.0
C145 C 0.95934 0.76085 0.33181 0.0
N146 N 0.97327 0.70669 0.3213 0.0
C147 C 0.11159 0.86065 0.40522 0.0
C148 C 0.16778 0.83112 0.34455 0.0
C149 C 0.20049 0.84173 0.37455 0.0
C150 C 0.17193 0.85676 0.40511 0.0
C151 C 0.1073 0.83616 0.34574 0.0
N152 N 0.07997 0.85236 0.37561 0.0
H153 H 0.09043 0.86809 0.42957 0.0
H154 H 0.08224 0.82536 0.32293 0.0
H155 H 0.05789 0.73124 0.38748 0.0
H156 H 0.92947 0.78917 0.31815 0.0
O157 O 0.98456 0.82158 0.42419 0.0
O158 O 0.91442 0.8515 0.38869 0.0
O159 O 0.98548 0.88648 0.32963 0.0
C160 C 0.92919 0.82776 0.41797 0.0
H161 H 0.00337 0.07571 0.40289 0.0
H162 H 0.0377 0.64712 0.34133 0.0
H163 H 0.18869 0.81776 0.32074 0.0
H164 H 0.19603 0.86345 0.42897 0.0
Co165 Co 0.26264 0.48001 0.88188 0.0
C166 C 0.17362 0.51188 0.93269 0.0
C167 C 0.1371 0.46117 0.89113 0.0
C168 C 0.09353 0.47364 0.91439 0.0
N169 N 0.18698 0.48554 0.90263 0.0
N170 N 0.11696 0.50511 0.94039 0.0
H171 H 0.20465 0.53516 0.94871 0.0
H172 H 0.13284 0.43542 0.8678 0.0
C173 C 0.23117 0.50164 0.806 0.0
O174 O 0.26959 0.54374 0.80302 0.0
N175 N 0.34014 0.47353 0.86104 0.0
C176 C 0.39213 0.48765 0.87538 0.0
C177 C 0.4352 0.48288 0.85066 0.0
C178 C 0.35361 0.45708 0.82846 0.0
N179 N 0.41028 0.46386 0.82123 0.0
C180 C 0.31052 0.58974 0.90167 0.0
C181 C 0.24399 0.65777 0.8585 0.0
C182 C 0.29644 0.6816 0.87158 0.0
C183 C 0.32449 0.64826 0.89738 0.0
C184 C 0.23098 0.59885 0.8639 0.0
N185 N 0.26864 0.56433 0.88182 0.0
H186 H 0.33406 0.56474 0.92069 0.0
H187 H 0.19186 0.58063 0.85266 0.0
H188 H 0.39886 0.50182 0.90173 0.0
H189 H 0.32323 0.44268 0.80939 0.0
O190 O 0.29593 0.46362 0.92719 0.0
O191 O 0.2619 0.39795 0.88997 0.0
O192 O 0.22327 0.47624 0.83499 0.0
C193 C 0.2854 0.40925 0.91989 0.0
H194 H 0.04846 0.46021 0.9127 0.0
H195 H 0.48049 0.49485 0.85357 0.0
H196 H 0.2128 0.68333 0.84418 0.0
H197 H 0.35751 0.66618 0.91425 0.0
Co198 Co 0.64705 0.75246 0.3778 0.0
C199 C 0.58946 0.6655 0.42162 0.0
C200 C 0.66016 0.62765 0.39349 0.0
C201 C 0.6401 0.58724 0.41706 0.0
N202 N 0.62765 0.67632 0.39592 0.0
N203 N 0.59596 0.61145 0.43463 0.0
H204 H 0.56068 0.69788 0.43245 0.0
H205 H 0.69814 0.62324 0.37727 0.0
C206 C 0.63393 0.67759 0.31187 0.0
O207 O 0.61064 0.63281 0.32787 0.0
N208 N 0.66703 0.82953 0.36019 0.0
C209 C 0.69911 0.87191 0.3754 0.0
C210 C 0.7099 0.91533 0.35154 0.0
C211 C 0.65713 0.84909 0.3277 0.0
N212 N 0.6836 0.9005 0.32164 0.0
C213 C 0.54796 0.82213 0.39359 0.0
C214 C 0.46728 0.75414 0.35875 0.0
C215 C 0.44856 0.80365 0.37635 0.0
C216 C 0.48934 0.83811 0.39398 0.0
C217 C 0.52588 0.73959 0.35926 0.0
N218 N 0.56552 0.77349 0.37628 0.0
H219 H 0.57939 0.84841 0.40747 0.0
H220 H 0.53857 0.70008 0.34682 0.0
H221 H 0.71593 0.87092 0.40145 0.0
H222 H 0.63421 0.82489 0.30798 0.0
O223 O 0.66644 0.77604 0.42491 0.0
O224 O 0.72742 0.73709 0.38718 0.0
O225 O 0.64643 0.72465 0.32794 0.0
C226 C 0.71864 0.75723 0.41821 0.0
H227 H 0.65879 0.545 0.42252 0.0
H228 H 0.73751 0.95312 0.3552 0.0
H229 H 0.43652 0.72619 0.34536 0.0
H230 H 0.47585 0.8764 0.40817 0.0
Co231 Co 0.35776 0.13141 0.87882 0.0
C232 C 0.45027 0.09697 0.92736 0.0
C233 C 0.486 0.14148 0.88321 0.0
C234 C 0.53099 0.12629 0.90516 0.0
N235 N 0.43558 0.12258 0.89712 0.0
N236 N 0.50808 0.09887 0.93285 0.0
H237 H 0.41942 0.07722 0.94499 0.0
H238 H 0.48995 0.16492 0.859 0.0
C239 C 0.38605 0.11393 0.80218 0.0
O240 O 0.3519 0.06818 0.7995 0.0
N241 N 0.27794 0.14125 0.86101 0.0
C242 C 0.22853 0.14197 0.88008 0.0
C243 C 0.18137 0.15211 0.85878 0.0
C244 C 0.25918 0.15172 0.82828 0.0
N245 N 0.20122 0.15838 0.82632 0.0
C246 C 0.30528 0.01976 0.89076 0.0
C247 C 0.38925 0.95571 0.85685 0.0
C248 C 0.34079 0.92714 0.8707 0.0
C249 C 0.29903 0.95942 0.88848 0.0
C250 C 0.39436 0.01586 0.86038 0.0
N251 N 0.35117 0.04744 0.87554 0.0
H252 H 0.27349 0.04408 0.9051 0.0
H253 H 0.43255 0.03731 0.85022 0.0
H254 H 0.22618 0.13513 0.9077 0.0
H255 H 0.28582 0.1544 0.80578 0.0
O256 O 0.32994 0.14296 0.92594 0.0
O257 O 0.36092 0.21206 0.88992 0.0
O258 O 0.39186 0.14055 0.83093 0.0
C259 C 0.34132 0.19785 0.92031 0.0
H260 H 0.57675 0.13533 0.90143 0.0
H261 H 0.13623 0.15473 0.86643 0.0
H262 H 0.42291 0.93162 0.8436 0.0
H263 H 0.26186 0.93817 0.90022 0.0
C264 C 0.98436 0.05717 0.49048 0.0
C265 C 0.02777 0.03058 0.47017 0.0
C266 C 0.10086 0.05076 0.51489 0.0
C267 C 0.0581 0.08022 0.53432 0.0
N268 N 0.96218 0.12105 0.5386 0.0
N269 N 0.12809 0.00826 0.45965 0.0
C270 C 0.00054 0.08609 0.52156 0.0
C271 C 0.08639 0.02911 0.48145 0.0
N272 N 0.92753 0.05304 0.4804 0.0
N273 N 0.15473 0.04247 0.529 0.0
H274 H 0.1184 0.99252 0.43492 0.0
H275 H 0.17245 0.01038 0.46485 0.0
H276 H 0.16612 0.05836 0.55345 0.0
H277 H 0.18668 0.01677 0.51776 0.0
H278 H 0.89287 0.06618 0.49577 0.0
H279 H 0.91483 0.03235 0.45751 0.0
H280 H 0.92135 0.13184 0.52888 0.0
H281 H 0.97302 0.14327 0.56127 0.0
C282 C 0.05408 0.6113 0.00375 0.0
C283 C 0.03554 0.57282 0.03026 0.0
C284 C 0.0713 0.48927 0.99745 0.0
C285 C 0.08765 0.52755 0.9703 0.0
N286 N 0.08789 0.62272 0.9445 0.0
N287 N 0.0207 0.47601 0.05214 0.0
C288 C 0.07728 0.5881 0.97265 0.0
C289 C 0.04236 0.51189 0.02696 0.0
N290 N 0.04983 0.67 0.0087 0.0
N291 N 0.08549 0.4317 0.99535 0.0
H292 H 0.00196 0.4918 0.07483 0.0
H293 H 0.01852 0.43089 0.04997 0.0
H294 H 0.10566 0.41399 0.97371 0.0
H295 H 0.08039 0.40205 0.01555 0.0
H296 H 0.06753 0.70101 0.99207 0.0
H297 H 0.03133 0.68785 0.03085 0.0
H298 H 0.07673 0.66653 0.94304 0.0
H299 H 0.1042 0.60636 0.92128 0.0
C300 C 0.4961 0.5234 0.49111 0.0
C301 C 0.5177 0.53838 0.52437 0.0
C302 C 0.59177 0.60125 0.49824 0.0
C303 C 0.56863 0.58806 0.46506 0.0
N304 N 0.49599 0.54333 0.42914 0.0
N305 N 0.58089 0.59468 0.56087 0.0
C306 C 0.51983 0.55102 0.4613 0.0
C307 C 0.56413 0.57837 0.52828 0.0
N308 N 0.45405 0.48151 0.48825 0.0
N309 N 0.64104 0.63442 0.50067 0.0
H310 H 0.56173 0.57738 0.58314 0.0
H311 H 0.61107 0.6274 0.56603 0.0
H312 H 0.66141 0.65244 0.47902 0.0
H313 H 0.66366 0.64168 0.52366 0.0
H314 H 0.43977 0.46428 0.46477 0.0
H315 H 0.43563 0.46121 0.5098 0.0
H316 H 0.45724 0.52113 0.42455 0.0
H317 H 0.51348 0.56267 0.40697 0.0
C318 C 0.55834 0.11478 0.98874 0.0
C319 C 0.53867 0.07622 0.96251 0.0
C320 C 0.57738 0.99302 0.99498 0.0
C321 C 0.59357 0.03122 0.02222 0.0
N322 N 0.5923 0.12632 0.04806 0.0
N323 N 0.52477 0.97913 0.94084 0.0
C324 C 0.58228 0.09167 0.01986 0.0
C325 C 0.54673 0.01534 0.96578 0.0
N326 N 0.55437 0.17349 0.98365 0.0
N327 N 0.59346 0.93588 0.9966 0.0
H328 H 0.50542 0.9946 0.91814 0.0
H329 H 0.52309 0.93401 0.94323 0.0
H330 H 0.61558 0.91843 0.01778 0.0
H331 H 0.58843 0.90658 0.97625 0.0
H332 H 0.57305 0.20431 1.00006 0.0
H333 H 0.53575 0.19155 0.96149 0.0
H334 H 0.58025 0.16988 0.04944 0.0
H335 H 0.60853 0.11012 0.07143 0.0
C336 C 0.16488 0.12491 0.76958 0.0
C337 C 0.16819 0.16889 0.79514 0.0
C338 C 0.1108 0.23411 0.75816 0.0
C339 C 0.11267 0.19216 0.73108 0.0
N340 N 0.14837 0.10049 0.70931 0.0
N341 N 0.15262 0.26798 0.81248 0.0
C342 C 0.14168 0.1383 0.7363 0.0
C343 C 0.14303 0.22417 0.7892 0.0
N344 N 0.18274 0.06983 0.77764 0.0
N345 N 0.07846 0.28349 0.75421 0.0
H346 H 0.17685 0.26208 0.83511 0.0
H347 H 0.14084 0.31111 0.80814 0.0
H348 H 0.0555 0.29305 0.73161 0.0
H349 H 0.07075 0.3129 0.77417 0.0
H350 H 0.17643 0.0341 0.76145 0.0
H351 H 0.19918 0.05887 0.80203 0.0
H352 H 0.17476 0.06379 0.71048 0.0
H353 H 0.13097 0.10795 0.68477 0.0
C354 C 0.96411 0.71224 0.25789 0.0
C355 C 0.9564 0.6805 0.28888 0.0
C356 C 0.91433 0.60042 0.25529 0.0
C357 C 0.91097 0.6373 0.22561 0.0
N358 N 0.92052 0.73684 0.20343 0.0
N359 N 0.9165 0.5968 0.31809 0.0
C360 C 0.93277 0.69557 0.22798 0.0
C361 C 0.92946 0.62505 0.28794 0.0
N362 N 0.002 0.75806 0.25685 0.0
N363 N 0.90559 0.54178 0.25226 0.0
H364 H 0.92585 0.61441 0.3424 0.0
H365 H 0.89178 0.55869 0.31885 0.0
H366 H 0.89906 0.52125 0.22846 0.0
H367 H 0.91199 0.51289 0.27278 0.0
H368 H 0.01264 0.77943 0.23384 0.0
H369 H 0.02795 0.76957 0.278 0.0
H370 H 0.93202 0.78053 0.20649 0.0
H371 H 0.89269 0.73052 0.18252 0.0
C372 C 0.46786 0.41711 0.77501 0.0
C373 C 0.43411 0.4643 0.78677 0.0
C374 C 0.42461 0.50065 0.72741 0.0
C375 C 0.46232 0.45597 0.71563 0.0
N376 N 0.53074 0.37979 0.73007 0.0
N377 N 0.39327 0.55872 0.7762 0.0
C378 C 0.4872 0.41641 0.73997 0.0
C379 C 0.41693 0.5087 0.76353 0.0
N380 N 0.4798 0.37219 0.79708 0.0
N381 N 0.39277 0.53274 0.70433 0.0
H382 H 0.38812 0.56593 0.80274 0.0
H383 H 0.38445 0.59495 0.76078 0.0
H384 H 0.39374 0.52603 0.67762 0.0
H385 H 0.36041 0.56162 0.71194 0.0
H386 H 0.49856 0.33327 0.78906 0.0
H387 H 0.46695 0.37252 0.82301 0.0
H388 H 0.55363 0.35364 0.74743 0.0
H389 H 0.54807 0.37978 0.70513 0.0
C390 C 0.72482 0.8949 0.26302 0.0
C391 C 0.69347 0.92634 0.28818 0.0
C392 C 0.68437 0.00855 0.24793 0.0
C393 C 0.71273 0.9753 0.22192 0.0
N394 N 0.74189 0.87877 0.20238 0.0
N395 N 0.63465 0.00827 0.30353 0.0
C396 C 0.72702 0.9159 0.22855 0.0
C397 C 0.67068 0.98194 0.28032 0.0
N398 N 0.75514 0.8463 0.27248 0.0
N399 N 0.67025 0.06533 0.24155 0.0
H400 H 0.62402 0.98922 0.32727 0.0
H401 H 0.61193 0.04641 0.29828 0.0
H402 H 0.67453 0.08454 0.21716 0.0
H403 H 0.65607 0.0939 0.26065 0.0
H404 H 0.78391 0.8251 0.25599 0.0
H405 H 0.7569 0.83114 0.29796 0.0
H406 H 0.74808 0.8343 0.20624 0.0
H407 H 0.74199 0.88984 0.17629 0.0
C408 C 0.0167 0.91635 0.24385 0.0
C409 C 0.98839 0.93426 0.27483 0.0
C410 C 0.91809 0.98881 0.24007 0.0
C411 C 0.94127 0.96499 0.20942 0.0
N412 N 0.0074 0.89931 0.18181 0.0
N413 N 0.90199 0.97546 0.30115 0.0
C414 C 0.98936 0.9269 0.21117 0.0
C415 C 0.93582 0.96651 0.27262 0.0
N416 N 0.06928 0.88907 0.24555 0.0
N417 N 0.88147 0.03524 0.23808 0.0
H418 H 0.91152 0.95878 0.32555 0.0
H419 H 0.86078 0.99406 0.2996 0.0
H420 H 0.87296 0.05614 0.2146 0.0
H421 H 0.86645 0.05748 0.2598 0.0
H422 H 0.09452 0.88044 0.2238 0.0
H423 H 0.08942 0.87812 0.26889 0.0
H424 H 0.03838 0.86635 0.18183 0.0
H425 H 0.98765 0.90618 0.15776 0.0
C426 C 0.22631 0.41888 0.76379 0.0
C427 C 0.20693 0.47479 0.77411 0.0
C428 C 0.15133 0.4808 0.71987 0.0
C429 C 0.18071 0.4306 0.70748 0.0
N430 N 0.26211 0.36608 0.71478 0.0
N431 N 0.1538 0.56218 0.75998 0.0
C432 C 0.22322 0.40412 0.72853 0.0
C433 C 0.17075 0.50721 0.75133 0.0
N434 N 0.24523 0.37837 0.78711 0.0
N435 N 0.10305 0.50099 0.70319 0.0
H436 H 0.16423 0.58126 0.78376 0.0
H437 H 0.13222 0.58964 0.74271 0.0
H438 H 0.08487 0.48018 0.68176 0.0
H439 H 0.07749 0.53451 0.71296 0.0
H440 H 0.25561 0.33602 0.77964 0.0
H441 H 0.24346 0.38403 0.81383 0.0
H442 H 0.29732 0.35071 0.7292 0.0
H443 H 0.26346 0.35676 0.68831 0.0
C444 C 0.62887 0.71757 0.2511 0.0
C445 C 0.64805 0.67351 0.27443 0.0
C446 C 0.69573 0.62397 0.22631 0.0
C447 C 0.68628 0.67321 0.20501 0.0
N448 N 0.64598 0.76838 0.19674 0.0
N449 N 0.70846 0.58898 0.2848 0.0
C450 C 0.65314 0.72047 0.21724 0.0
C451 C 0.68343 0.62741 0.26218 0.0
N452 N 0.58584 0.75491 0.26078 0.0
N453 N 0.71541 0.57349 0.21198 0.0
H454 H 0.70307 0.59107 0.31158 0.0
H455 H 0.73944 0.55861 0.27718 0.0
H456 H 0.72287 0.56932 0.18542 0.0
H457 H 0.71838 0.53453 0.22576 0.0
H458 H 0.56689 0.78487 0.24394 0.0
H459 H 0.56518 0.75197 0.28477 0.0
H460 H 0.62743 0.80695 0.2055 0.0
H461 H 0.66253 0.77063 0.1716 0.0
C462 C 0.45182 0.11446 0.74998 0.0
C463 C 0.40839 0.14192 0.77023 0.0
C464 C 0.38851 0.20871 0.72278 0.0
C465 C 0.43693 0.1877 0.70448 0.0
N466 N 0.52192 0.12669 0.70357 0.0
N467 N 0.35314 0.23061 0.77947 0.0
C468 C 0.47074 0.14192 0.71876 0.0
C469 C 0.38199 0.19372 0.75789 0.0
N470 N 0.4755 0.06305 0.76073 0.0
N471 N 0.3473 0.24125 0.70637 0.0
H472 H 0.35248 0.2257 0.80628 0.0
H473 H 0.33693 0.27051 0.77093 0.0
H474 H 0.34909 0.2507 0.67991 0.0
H475 H 0.30793 0.25135 0.71823 0.0
H476 H 0.50307 0.03832 0.74529 0.0
H477 H 0.46487 0.0436 0.78436 0.0
H478 H 0.5509 0.09719 0.71461 0.0
H479 H 0.53786 0.14762 0.68154 0.0
C480 C 0.81811 0.27903 0.64017 0.0
C481 C 0.85724 0.31664 0.62265 0.0
C482 C 0.77616 0.37214 0.59838 0.0
C483 C 0.73724 0.33678 0.61762 0.0
N484 N 0.72027 0.26344 0.66136 0.0
N485 N 0.87565 0.40414 0.5898 0.0
C486 C 0.75795 0.29216 0.63987 0.0
C487 C 0.83688 0.36482 0.60312 0.0
N488 N 0.83826 0.22974 0.65608 0.0
N489 N 0.75497 0.41143 0.57487 0.0
H490 H 0.92054 0.39981 0.59264 0.0
H491 H 0.86349 0.44339 0.5784 0.0
H492 H 0.71063 0.41838 0.57101 0.0
H493 H 0.78097 0.43403 0.55734 0.0
H494 H 0.81122 0.19714 0.66575 0.0
H495 H 0.88226 0.21912 0.65742 0.0
H496 H 0.73363 0.23513 0.68091 0.0
H497 H 0.67565 0.27132 0.66156 0.0
C498 C 0.80386 0.34623 0.15789 0.0
C499 C 0.77872 0.38396 0.13293 0.0
C500 C 0.72454 0.30167 0.10873 0.0
C501 C 0.76177 0.26323 0.127 0.0
N502 N 0.83416 0.24819 0.1717 0.0
N503 N 0.68268 0.39776 0.10937 0.0
C504 C 0.80032 0.2852 0.15268 0.0
C505 C 0.72916 0.36232 0.11506 0.0
N506 N 0.82288 0.36815 0.18878 0.0
N507 N 0.68573 0.28074 0.08493 0.0
H508 H 0.68112 0.43972 0.11974 0.0
H509 H 0.64334 0.38294 0.09914 0.0
H510 H 0.68031 0.23637 0.07999 0.0
H511 H 0.66188 0.30796 0.06859 0.0
H512 H 0.83692 0.3421 0.20929 0.0
H513 H 0.81667 0.41183 0.19529 0.0
H514 H 0.86738 0.26282 0.18799 0.0
H515 H 0.8313 0.20296 0.16965 0.0
C516 C 0.34857 0.77956 0.39702 0.0
C517 C 0.38558 0.81672 0.37762 0.0
C518 C 0.30152 0.87397 0.3587 0.0
C519 C 0.26427 0.83289 0.37496 0.0
N520 N 0.25142 0.74093 0.40444 0.0
N521 N 0.3977 0.89457 0.33615 0.0
C522 C 0.28754 0.78409 0.39275 0.0
C523 C 0.36224 0.86284 0.35745 0.0
N524 N 0.37182 0.74083 0.42016 0.0
N525 N 0.27907 0.9243 0.34533 0.0
H526 H 0.44246 0.88802 0.33477 0.0
H527 H 0.38226 0.92432 0.31795 0.0
H528 H 0.23476 0.93375 0.34561 0.0
H529 H 0.30468 0.95872 0.33651 0.0
H530 H 0.34689 0.71683 0.43761 0.0
H531 H 0.41647 0.73667 0.42426 0.0
H532 H 0.26636 0.70144 0.41427 0.0
H533 H 0.20638 0.74214 0.40137 0.0
C534 C 0.29199 0.84044 0.84323 0.0
C535 C 0.33425 0.86335 0.86654 0.0
C536 C 0.37008 0.76503 0.8767 0.0
C537 C 0.31829 0.74212 0.862 0.0
N538 N 0.26445 0.75652 0.80914 0.0
N539 N 0.41424 0.84633 0.90622 0.0
C540 C 0.28797 0.77912 0.83873 0.0
C541 C 0.37396 0.82541 0.88326 0.0
N542 N 0.25597 0.87689 0.82527 0.0
N543 N 0.41831 0.73098 0.87945 0.0
H544 H 0.41793 0.89033 0.91256 0.0
H545 H 0.44045 0.81892 0.9211 0.0
H546 H 0.41922 0.68886 0.86926 0.0
H547 H 0.45873 0.74717 0.88718 0.0
H548 H 0.22016 0.86196 0.81119 0.0
H549 H 0.26007 0.92213 0.82588 0.0
H550 H 0.24607 0.7819 0.78958 0.0
H551 H 0.27171 0.71334 0.80193 0.0
C552 C 0.30127 0.36119 0.55102 0.0
C553 C 0.34874 0.3231 0.55583 0.0
C554 C 0.2836 0.23958 0.55638 0.0
C555 C 0.23629 0.27858 0.55877 0.0
N556 N 0.19817 0.37021 0.53868 0.0
N557 N 0.38626 0.22809 0.54345 0.0
C558 C 0.24433 0.3375 0.54916 0.0
C559 C 0.34034 0.26263 0.55161 0.0
N560 N 0.31086 0.41976 0.54997 0.0
N561 N 0.27418 0.18128 0.56037 0.0
H562 H 0.42677 0.24596 0.53749 0.0
H563 H 0.38253 0.18361 0.53866 0.0
H564 H 0.23222 0.164 0.56206 0.0
H565 H 0.30747 0.15091 0.56275 0.0
H566 H 0.27779 0.45059 0.55072 0.0
H567 H 0.3529 0.43684 0.54904 0.0
H568 H 0.20208 0.41297 0.52993 0.0
H569 H 0.15713 0.35198 0.53476 0.0
C570 C 0.89459 0.80698 0.05622 0.0
C571 C 0.84875 0.76569 0.05534 0.0
C572 C 0.78011 0.84297 0.04182 0.0
C573 C 0.82195 0.88333 0.05379 0.0
N574 N 0.92165 0.90884 0.06339 0.0
N575 N 0.75182 0.74123 0.03639 0.0
C576 C 0.88074 0.86711 0.05679 0.0
C577 C 0.79293 0.78252 0.04352 0.0
N578 N 0.95051 0.78775 0.05844 0.0
N579 N 0.72763 0.86335 0.03075 0.0
H580 H 0.76185 0.69715 0.03472 0.0
H581 H 0.70841 0.75038 0.03125 0.0
H582 H 0.71943 0.90804 0.02966 0.0
H583 H 0.69457 0.83735 0.02066 0.0
H584 H 0.98682 0.81486 0.05788 0.0
H585 H 0.95996 0.74333 0.05844 0.0
H586 H 0.96478 0.90005 0.06959 0.0
H587 H 0.91143 0.95307 0.06264 0.0
C588 C 0.81407 0.72329 0.43966 0.0
C589 C 0.769 0.76473 0.44197 0.0
C590 C 0.83923 0.84212 0.45194 0.0
C591 C 0.88329 0.80382 0.44054 0.0
N592 N 0.9182 0.70571 0.43549 0.0
N593 N 0.73833 0.85301 0.46946 0.0
C594 C 0.8727 0.74309 0.43935 0.0
C595 C 0.78152 0.8207 0.45505 0.0
N596 N 0.79956 0.66596 0.43603 0.0
N597 N 0.85231 0.89942 0.45722 0.0
H598 H 0.69669 0.83598 0.47307 0.0
H599 H 0.74514 0.89354 0.48086 0.0
H600 H 0.89508 0.91466 0.45625 0.0
H601 H 0.82129 0.93139 0.46174 0.0
H602 H 0.8292 0.63237 0.43276 0.0
H603 H 0.75631 0.6523 0.43766 0.0
H604 H 0.91403 0.66081 0.43308 0.0
H605 H 0.96122 0.72006 0.43638 0.0
C606 C 0.37499 0.28727 0.94879 0.0
C607 C 0.33104 0.24442 0.94576 0.0
C608 C 0.25621 0.31796 0.9492 0.0
C609 C 0.29975 0.36062 0.94337 0.0
N610 N 0.39886 0.39047 0.95245 0.0
N611 N 0.23448 0.21605 0.96125 0.0
C612 C 0.35884 0.34688 0.94898 0.0
C613 C 0.27299 0.25893 0.95282 0.0
N614 N 0.43165 0.2701 0.94831 0.0
N615 N 0.1992 0.33395 0.94858 0.0
H616 H 0.24813 0.17314 0.9648 0.0
H617 H 0.19135 0.22369 0.96785 0.0
H618 H 0.18725 0.37763 0.94672 0.0
H619 H 0.16462 0.30463 0.94916 0.0
H620 H 0.46701 0.2984 0.94734 0.0
H621 H 0.44237 0.22596 0.94864 0.0
H622 H 0.44284 0.38354 0.95714 0.0
H623 H 0.3867 0.43411 0.95354 0.0
loop_
_geom_bond_atom_site_label_1
_geom_bond_atom_site_label_2
_geom_bond_distance
_geom_bond_site_symmetry_2
_ccdc_geom_bond_type
Co0 N4 2.148 . S
Co0 N10 2.128 . S
Co0 N20 2.194 . S
Co0 O25 2.351 . S
Co0 O26 2.155 . S
Co0 O27 2.096 . S
C1 N4 1.301 . S
C1 N5 1.328 . S
C1 H6 0.930 . S
C2 C3 1.333 . S
C2 N4 1.317 . S
C2 H7 0.930 . S
C3 C2 1.333 . S
C3 N5 1.350 . S
C3 H29 0.931 . S
N4 Co0 2.148 . S
N4 C1 1.301 . S
N4 C2 1.317 . S
N5 C1 1.328 . S
N5 C3 1.350 . S
H6 C1 0.930 . S
H7 C2 0.930 . S
C8 O9 1.224 . S
C8 O27 1.247 . S
O9 C8 1.224 . S
N10 Co0 2.128 . S
N10 C11 1.355 . S
N10 C13 1.311 . S
C11 N10 1.355 . S
C11 C12 1.363 . S
C11 H23 0.929 . S
C12 C11 1.363 . S
C12 N14 1.375 . S
C12 H30 0.931 . S
C13 N10 1.311 . S
C13 N14 1.347 . S
C13 H24 0.929 . S
N14 C12 1.375 . S
N14 C13 1.347 . S
C15 C18 1.365 1_455 S
C15 N20 1.328 . S
C15 H21 0.929 . S
C16 C17 1.362 . S
C16 C19 1.378 . S
C16 H31 0.929 . S
C17 C16 1.362 . S
C17 C18 1.366 . S
C18 C15 1.365 1_655 S
C18 C17 1.366 . S
C18 H32 0.930 . S
C19 C16 1.378 . S
C19 N20 1.315 1_655 S
C19 H22 0.930 1_655 S
N20 Co0 2.194 . S
N20 C15 1.328 . S
N20 C19 1.315 1_455 S
H21 C15 0.929 . S
H22 C19 0.930 1_455 S
H23 C11 0.929 . S
H24 C13 0.929 . S
O25 Co0 2.351 . S
O25 C28 1.244 . S
O26 Co0 2.155 . S
O26 C28 1.240 . S
O27 Co0 2.096 . S
O27 C8 1.247 . S
C28 O25 1.244 . S
C28 O26 1.240 . S
H29 C3 0.931 . S
H30 C12 0.931 . S
H31 C16 0.929 . S
H32 C18 0.930 . S
Co33 N37 2.148 . S
Co33 N43 2.128 . S
Co33 N53 2.194 . S
Co33 O58 2.351 . S
Co33 O59 2.155 . S
Co33 O60 2.096 . S
C34 N37 1.301 . S
C34 N38 1.328 . S
C34 H39 0.930 . S
C35 C36 1.333 1_655 S
C35 N37 1.317 . S
C35 H40 0.930 . S
C36 C35 1.333 1_455 S
C36 N38 1.350 1_455 S
C36 H62 0.931 . S
N37 Co33 2.148 . S
N37 C34 1.301 . S
N37 C35 1.317 . S
N38 C34 1.328 . S
N38 C36 1.350 1_655 S
H39 C34 0.930 . S
H40 C35 0.930 . S
C41 O42 1.224 . S
C41 O60 1.247 . S
O42 C41 1.224 . S
N43 Co33 2.128 . S
N43 C44 1.355 . S
N43 C46 1.311 . S
C44 N43 1.355 . S
C44 C45 1.363 . S
C44 H56 0.929 . S
C45 C44 1.363 . S
C45 N47 1.375 . S
C45 H63 0.931 . S
C46 N43 1.311 . S
C46 N47 1.347 . S
C46 H57 0.929 . S
N47 C45 1.375 . S
N47 C46 1.347 . S
C48 C51 1.365 . S
C48 N53 1.328 . S
C48 H54 0.929 . S
C49 C50 1.362 . S
C49 C52 1.378 . S
C49 H64 0.929 . S
C50 C49 1.362 . S
C50 C51 1.366 . S
C51 C48 1.365 . S
C51 C50 1.366 . S
C51 H65 0.930 . S
C52 C49 1.378 . S
C52 N53 1.315 . S
C52 H55 0.930 . S
N53 Co33 2.194 . S
N53 C48 1.328 . S
N53 C52 1.315 . S
H54 C48 0.929 . S
H55 C52 0.930 . S
H56 C44 0.929 . S
H57 C46 0.929 . S
O58 Co33 2.351 . S
O58 C61 1.244 . S
O59 Co33 2.155 . S
O59 C61 1.240 . S
O60 Co33 2.096 . S
O60 C41 1.247 . S
C61 O58 1.244 . S
C61 O59 1.240 . S
H62 C36 0.931 . S
H63 C45 0.931 . S
H64 C49 0.929 . S
H65 C51 0.930 . S
Co66 N70 2.148 . S
Co66 N76 2.128 . S
Co66 N86 2.194 . S
Co66 O91 2.351 . S
Co66 O92 2.155 . S
Co66 O93 2.096 . S
C67 N70 1.301 . S
C67 N71 1.328 . S
C67 H72 0.930 . S
C68 C69 1.333 . S
C68 N70 1.317 . S
C68 H73 0.930 . S
C69 C68 1.333 . S
C69 N71 1.350 . S
C69 H95 0.931 . S
N70 Co66 2.148 . S
N70 C67 1.301 . S
N70 C68 1.317 . S
N71 C67 1.328 . S
N71 C69 1.350 . S
H72 C67 0.930 . S
H73 C68 0.930 . S
C74 O75 1.224 . S
C74 O93 1.247 . S
O75 C74 1.224 . S
N76 Co66 2.128 . S
N76 C77 1.355 . S
N76 C79 1.311 . S
C77 N76 1.355 . S
C77 C78 1.363 . S
C77 H89 0.929 . S
C78 C77 1.363 . S
C78 N80 1.375 . S
C78 H96 0.931 . S
C79 N76 1.311 . S
C79 N80 1.347 . S
C79 H90 0.929 . S
N80 C78 1.375 . S
N80 C79 1.347 . S
C81 C84 1.365 . S
C81 N86 1.328 . S
C81 H87 0.929 . S
C82 C83 1.362 . S
C82 C85 1.378 . S
C82 H97 0.929 . S
C83 C82 1.362 . S
C83 C84 1.366 . S
C84 C81 1.365 . S
C84 C83 1.366 . S
C84 H98 0.930 . S
C85 C82 1.378 . S
C85 N86 1.315 . S
C85 H88 0.930 . S
N86 Co66 2.194 . S
N86 C81 1.328 . S
N86 C85 1.315 . S
H87 C81 0.929 . S
H88 C85 0.930 . S
H89 C77 0.929 . S
H90 C79 0.929 . S
O91 Co66 2.351 . S
O91 C94 1.244 . S
O92 Co66 2.155 . S
O92 C94 1.240 . S
O93 Co66 2.096 . S
O93 C74 1.247 . S
C94 O91 1.244 . S
C94 O92 1.240 . S
H95 C69 0.931 . S
H96 C78 0.931 . S
H97 C82 0.929 . S
H98 C84 0.930 . S
Co99 N103 2.148 1_565 S
Co99 N109 2.128 . S
Co99 N119 2.194 1_565 S
Co99 O124 2.351 . S
Co99 O125 2.155 . S
Co99 O126 2.096 . S
C100 N103 1.301 . S
C100 N104 1.328 . S
C100 H105 0.930 . S
C101 C102 1.333 1_565 S
C101 N103 1.317 1_565 S
C101 H106 0.930 . S
C102 C101 1.333 1_545 S
C102 N104 1.350 . S
C102 H128 0.931 1_545 S
N103 Co99 2.148 1_545 S
N103 C100 1.301 . S
N103 C101 1.317 1_545 S
N104 C100 1.328 . S
N104 C102 1.350 . S
H105 C100 0.930 . S
H106 C101 0.930 . S
C107 O108 1.224 1_565 S
C107 O126 1.247 . S
O108 C107 1.224 1_545 S
N109 Co99 2.128 . S
N109 C110 1.355 1_565 S
N109 C112 1.311 . S
C110 N109 1.355 1_545 S
C110 C111 1.363 . S
C110 H122 0.929 . S
C111 C110 1.363 . S
C111 N113 1.375 1_545 S
C111 H129 0.931 . S
C112 N109 1.311 . S
C112 N113 1.347 . S
C112 H123 0.929 . S
N113 C111 1.375 1_565 S
N113 C112 1.347 . S
C114 C117 1.365 . S
C114 N119 1.328 . S
C114 H120 0.929 . S
C115 C116 1.362 . S
C115 C118 1.378 . S
C115 H130 0.929 . S
C116 C115 1.362 . S
C116 C117 1.366 . S
C117 C114 1.365 . S
C117 C116 1.366 . S
C117 H131 0.930 . S
C118 C115 1.378 . S
C118 N119 1.315 . S
C118 H121 0.930 . S
N119 Co99 2.194 1_545 S
N119 C114 1.328 . S
N119 C118 1.315 . S
H120 C114 0.929 . S
H121 C118 0.930 . S
H122 C110 0.929 . S
H123 C112 0.929 . S
O124 Co99 2.351 . S
O124 C127 1.244 . S
O125 Co99 2.155 . S
O125 C127 1.240 . S
O126 Co99 2.096 . S
O126 C107 1.247 . S
C127 O124 1.244 . S
C127 O125 1.240 . S
H128 C102 0.931 1_565 S
H129 C111 0.931 . S
H130 C115 0.929 . S
H131 C117 0.930 . S
Co132 N136 2.148 1_655 S
Co132 N142 2.128 . S
Co132 N152 2.194 1_655 S
Co132 O157 2.351 . S
Co132 O158 2.155 . S
Co132 O159 2.096 . S
C133 N136 1.301 . S
C133 N137 1.328 . S
C133 H138 0.930 . S
C134 C135 1.333 1_665 S
C134 N136 1.317 1_655 S
C134 H139 0.930 . S
C135 C134 1.333 1_445 S
C135 N137 1.350 1_545 S
C135 H161 0.930 1_455 S
N136 Co132 2.148 1_455 S
N136 C133 1.301 . S
N136 C134 1.317 1_455 S
N137 C133 1.328 . S
N137 C135 1.350 1_565 S
H138 C133 0.930 . S
H139 C134 0.930 . S
C140 O141 1.224 1_655 S
C140 O159 1.247 . S
O141 C140 1.224 1_455 S
N142 Co132 2.128 . S
N142 C143 1.355 1_655 S
N142 C145 1.311 . S
C143 N142 1.355 1_455 S
C143 C144 1.363 . S
C143 H155 0.929 . S
C144 C143 1.363 . S
C144 N146 1.375 1_455 S
C144 H162 0.931 . S
C145 N142 1.311 . S
C145 N146 1.347 . S
C145 H156 0.929 . S
N146 C144 1.375 1_655 S
N146 C145 1.347 . S
C147 C150 1.365 . S
C147 N152 1.328 . S
C147 H153 0.929 . S
C148 C149 1.362 . S
C148 C151 1.378 . S
C148 H163 0.929 . S
C149 C148 1.362 . S
C149 C150 1.366 . S
C150 C147 1.365 . S
C150 C149 1.366 . S
C150 H164 0.930 . S
C151 C148 1.378 . S
C151 N152 1.315 . S
C151 H154 0.930 . S
N152 Co132 2.194 1_455 S
N152 C147 1.328 . S
N152 C151 1.315 . S
H153 C147 0.929 . S
H154 C151 0.930 . S
H155 C143 0.929 . S
H156 C145 0.929 . S
O157 Co132 2.351 . S
O157 C160 1.244 . S
O158 Co132 2.155 . S
O158 C160 1.240 . S
O159 Co132 2.096 . S
O159 C140 1.247 . S
C160 O157 1.244 . S
C160 O158 1.240 . S
H161 C135 0.930 1_655 S
H162 C144 0.931 . S
H163 C148 0.929 . S
H164 C150 0.930 . S
Co165 N169 2.148 . S
Co165 N175 2.128 . S
Co165 N185 2.194 . S
Co165 O190 2.351 . S
Co165 O191 2.155 . S
Co165 O192 2.096 . S
C166 N169 1.301 . S
C166 N170 1.328 . S
C166 H171 0.930 . S
C167 C168 1.333 . S
C167 N169 1.317 . S
C167 H172 0.930 . S
C168 C167 1.333 . S
C168 N170 1.350 . S
C168 H194 0.931 . S
N169 Co165 2.148 . S
N169 C166 1.301 . S
N169 C167 1.317 . S
N170 C166 1.328 . S
N170 C168 1.350 . S
H171 C166 0.930 . S
H172 C167 0.930 . S
C173 O174 1.224 . S
C173 O192 1.247 . S
O174 C173 1.224 . S
N175 Co165 2.128 . S
N175 C176 1.355 . S
N175 C178 1.311 . S
C176 N175 1.355 . S
C176 C177 1.363 . S
C176 H188 0.929 . S
C177 C176 1.363 . S
C177 N179 1.375 . S
C177 H195 0.931 . S
C178 N175 1.311 . S
C178 N179 1.347 . S
C178 H189 0.929 . S
N179 C177 1.375 . S
N179 C178 1.347 . S
C180 C183 1.365 . S
C180 N185 1.328 . S
C180 H186 0.929 . S
C181 C182 1.362 . S
C181 C184 1.378 . S
C181 H196 0.929 . S
C182 C181 1.362 . S
C182 C183 1.366 . S
C183 C180 1.365 . S
C183 C182 1.366 . S
C183 H197 0.930 . S
C184 C181 1.378 . S
C184 N185 1.315 . S
C184 H187 0.930 . S
N185 Co165 2.194 . S
N185 C180 1.328 . S
N185 C184 1.315 . S
H186 C180 0.929 . S
H187 C184 0.930 . S
H188 C176 0.929 . S
H189 C178 0.929 . S
O190 Co165 2.351 . S
O190 C193 1.244 . S
O191 Co165 2.155 . S
O191 C193 1.240 . S
O192 Co165 2.096 . S
O192 C173 1.247 . S
C193 O190 1.244 . S
C193 O191 1.240 . S
H194 C168 0.931 . S
H195 C177 0.931 . S
H196 C181 0.929 . S
H197 C183 0.930 . S
Co198 N202 2.148 . S
Co198 N208 2.128 . S
Co198 N218 2.194 . S
Co198 O223 2.351 . S
Co198 O224 2.155 . S
Co198 O225 2.096 . S
C199 N202 1.301 . S
C199 N203 1.328 . S
C199 H204 0.930 . S
C200 C201 1.333 . S
C200 N202 1.317 . S
C200 H205 0.930 . S
C201 C200 1.333 . S
C201 N203 1.350 . S
C201 H227 0.931 . S
N202 Co198 2.148 . S
N202 C199 1.301 . S
N202 C200 1.317 . S
N203 C199 1.328 . S
N203 C201 1.350 . S
H204 C199 0.930 . S
H205 C200 0.930 . S
C206 O207 1.224 . S
C206 O225 1.247 . S
O207 C206 1.224 . S
N208 Co198 2.128 . S
N208 C209 1.355 . S
N208 C211 1.311 . S
C209 N208 1.355 . S
C209 C210 1.363 . S
C209 H221 0.929 . S
C210 C209 1.363 . S
C210 N212 1.375 . S
C210 H228 0.931 . S
C211 N208 1.311 . S
C211 N212 1.347 . S
C211 H222 0.929 . S
N212 C210 1.375 . S
N212 C211 1.347 . S
C213 C216 1.365 . S
C213 N218 1.328 . S
C213 H219 0.929 . S
C214 C215 1.362 . S
C214 C217 1.378 . S
C214 H229 0.929 . S
C215 C214 1.362 . S
C215 C216 1.366 . S
C216 C213 1.365 . S
C216 C215 1.366 . S
C216 H230 0.930 . S
C217 C214 1.378 . S
C217 N218 1.315 . S
C217 H220 0.930 . S
N218 Co198 2.194 . S
N218 C213 1.328 . S
N218 C217 1.315 . S
H219 C213 0.929 . S
H220 C217 0.930 . S
H221 C209 0.929 . S
H222 C211 0.929 . S
O223 Co198 2.351 . S
O223 C226 1.244 . S
O224 Co198 2.155 . S
O224 C226 1.240 . S
O225 Co198 2.096 . S
O225 C206 1.247 . S
C226 O223 1.244 . S
C226 O224 1.240 . S
H227 C201 0.931 . S
H228 C210 0.931 . S
H229 C214 0.929 . S
H230 C216 0.930 . S
Co231 N235 2.148 . S
Co231 N241 2.128 . S
Co231 N251 2.194 . S
Co231 O256 2.351 . S
Co231 O257 2.155 . S
Co231 O258 2.096 . S
C232 N235 1.301 . S
C232 N236 1.328 . S
C232 H237 0.930 . S
C233 C234 1.333 . S
C233 N235 1.317 . S
C233 H238 0.930 . S
C234 C233 1.333 . S
C234 N236 1.350 . S
C234 H260 0.931 . S
N235 Co231 2.148 . S
N235 C232 1.301 . S
N235 C233 1.317 . S
N236 C232 1.328 . S
N236 C234 1.350 . S
H237 C232 0.930 . S
H238 C233 0.930 . S
C239 O240 1.224 . S
C239 O258 1.247 . S
O240 C239 1.224 . S
N241 Co231 2.128 . S
N241 C242 1.355 . S
N241 C244 1.311 . S
C242 N241 1.355 . S
C242 C243 1.363 . S
C242 H254 0.929 . S
C243 C242 1.363 . S
C243 N245 1.375 . S
C243 H261 0.931 . S
C244 N241 1.311 . S
C244 N245 1.347 . S
C244 H255 0.929 . S
N245 C243 1.375 . S
N245 C244 1.347 . S
C246 C249 1.365 1_545 S
C246 N251 1.328 . S
C246 H252 0.929 . S
C247 C248 1.362 . S
C247 C250 1.378 . S
C247 H262 0.929 . S
C248 C247 1.362 . S
C248 C249 1.366 . S
C249 C246 1.365 1_565 S
C249 C248 1.366 . S
C249 H263 0.930 . S
C250 C247 1.378 . S
C250 N251 1.315 1_565 S
C250 H253 0.930 1_565 S
N251 Co231 2.194 . S
N251 C246 1.328 . S
N251 C250 1.315 1_545 S
H252 C246 0.929 . S
H253 C250 0.930 1_545 S
H254 C242 0.929 . S
H255 C244 0.929 . S
O256 Co231 2.351 . S
O256 C259 1.244 . S
O257 Co231 2.155 . S
O257 C259 1.240 . S
O258 Co231 2.096 . S
O258 C239 1.247 . S
C259 O256 1.244 . S
C259 O257 1.240 . S
H260 C234 0.931 . S
H261 C243 0.931 . S
H262 C247 0.929 . S
H263 C249 0.930 . S
C264 C265 1.363 . S
C264 C270 1.379 . S
C264 N272 1.356 1_455 S
C265 C264 1.363 . S
C265 C271 1.363 . S
C266 C267 1.363 . S
C266 C271 1.379 . S
C266 N273 1.356 . S
C267 C266 1.363 . S
C267 C270 1.363 . S
N268 C270 1.356 . S
N268 H280 0.984 1_455 S
N268 H281 0.985 . S
N269 C271 1.356 1_565 S
N269 H274 0.984 . S
N269 H275 0.985 . S
C270 C264 1.379 . S
C270 C267 1.363 . S
C270 N268 1.356 . S
C271 C265 1.363 . S
C271 C266 1.379 . S
C271 N269 1.356 1_545 S
N272 C264 1.356 1_655 S
N272 H278 0.984 . S
N272 H279 0.984 . S
N273 C266 1.356 . S
N273 H276 0.984 . S
N273 H277 0.985 . S
H274 N269 0.984 . S
H275 N269 0.985 . S
H276 N273 0.984 . S
H277 N273 0.985 . S
H278 N272 0.984 . S
H279 N272 0.984 . S
H280 N268 0.984 1_655 S
H281 N268 0.985 . S
C282 C283 1.363 1_556 S
C282 C288 1.379 . S
C282 N290 1.356 . S
C283 C282 1.363 1_554 S
C283 C289 1.363 . S
C284 C285 1.363 1_554 S
C284 C289 1.379 . S
C284 N291 1.356 . S
C285 C284 1.363 1_556 S
C285 C288 1.363 . S
N286 C288 1.356 . S
N286 H298 0.984 . S
N286 H299 0.985 . S
N287 C289 1.358 . S
N287 H292 0.983 1_455 S
N287 H293 0.985 . S
C288 C282 1.379 . S
C288 C285 1.363 . S
C288 N286 1.356 . S
C289 C283 1.363 . S
C289 C284 1.379 . S
C289 N287 1.358 . S
N290 C282 1.356 . S
N290 H296 0.984 . S
N290 H297 0.984 1_456 S
N291 C284 1.356 . S
N291 H294 0.984 1_554 S
N291 H295 0.985 . S
H292 N287 0.983 1_655 S
H293 N287 0.985 . S
H294 N291 0.984 1_556 S
H295 N291 0.985 . S
H296 N290 0.984 . S
H297 N290 0.984 1_654 S
H298 N286 0.984 . S
H299 N286 0.985 . S
C300 C301 1.363 . S
C300 C306 1.379 . S
C300 N308 1.356 . S
C301 C300 1.363 . S
C301 C307 1.363 . S
C302 C303 1.363 . S
C302 C307 1.379 . S
C302 N309 1.356 . S
C303 C302 1.363 . S
C303 C306 1.363 . S
N304 C306 1.356 . S
N304 H316 0.984 . S
N304 H317 0.985 . S
N305 C307 1.356 . S
N305 H310 0.984 . S
N305 H311 0.985 . S
C306 C300 1.379 . S
C306 C303 1.363 . S
C306 N304 1.356 . S
C307 C301 1.363 . S
C307 C302 1.379 . S
C307 N305 1.356 . S
N308 C300 1.356 . S
N308 H314 0.984 . S
N308 H315 0.984 . S
N309 C302 1.356 . S
N309 H312 0.984 . S
N309 H313 0.985 . S
H310 N305 0.984 . S
H311 N305 0.985 . S
H312 N309 0.984 . S
H313 N309 0.985 . S
H314 N308 0.984 . S
H315 N308 0.984 . S
H316 N304 0.984 . S
H317 N304 0.985 . S
C318 C319 1.363 . S
C318 C324 1.379 . S
C318 N326 1.356 . S
C319 C318 1.363 . S
C319 C325 1.363 1_556 S
C320 C321 1.363 . S
C320 C325 1.379 . S
C320 N327 1.356 . S
C321 C320 1.363 . S
C321 C324 1.363 1_554 S
N322 C324 1.356 . S
N322 H334 0.984 . S
N322 H335 0.969 1_556 S
N323 C325 1.356 . S
N323 H328 0.984 1_554 S
N323 H329 0.985 . S
C324 C318 1.379 . S
C324 C321 1.363 1_556 S
C324 N322 1.356 . S
C325 C319 1.363 1_554 S
C325 C320 1.379 . S
C325 N323 1.356 . S
N326 C318 1.356 . S
N326 H332 0.984 . S
N326 H333 0.984 . S
N327 C320 1.356 . S
N327 H330 0.978 1_545 S
N327 H331 0.985 . S
H328 N323 0.984 1_556 S
H329 N323 0.985 . S
H330 N327 0.978 1_565 S
H331 N327 0.985 . S
H332 N326 0.984 . S
H333 N326 0.984 . S
H334 N322 0.984 . S
H335 N322 0.969 1_554 S
C336 C337 1.363 . S
C336 C342 1.379 . S
C336 N344 1.356 . S
C337 C336 1.363 . S
C337 C343 1.363 . S
C338 C339 1.363 . S
C338 C343 1.379 . S
C338 N345 1.356 . S
C339 C338 1.363 . S
C339 C342 1.363 . S
N340 C342 1.356 . S
N340 H352 0.984 . S
N340 H353 0.985 . S
N341 C343 1.356 . S
N341 H346 0.984 . S
N341 H347 0.985 . S
C342 C336 1.379 . S
C342 C339 1.363 . S
C342 N340 1.356 . S
C343 C337 1.363 . S
C343 C338 1.379 . S
C343 N341 1.356 . S
N344 C336 1.356 . S
N344 H350 0.984 . S
N344 H351 0.984 . S
N345 C338 1.356 . S
N345 H348 0.984 . S
N345 H349 0.985 . S
H346 N341 0.984 . S
H347 N341 0.985 . S
H348 N345 0.984 . S
H349 N345 0.985 . S
H350 N344 0.984 . S
H351 N344 0.984 . S
H352 N340 0.984 . S
H353 N340 0.985 . S
C354 C355 1.363 . S
C354 C360 1.379 . S
C354 N362 1.356 . S
C355 C354 1.363 . S
C355 C361 1.363 . S
C356 C357 1.363 . S
C356 C361 1.379 . S
C356 N363 1.356 . S
C357 C356 1.363 . S
C357 C360 1.363 . S
N358 C360 1.356 . S
N358 H370 0.984 . S
N358 H371 0.985 . S
N359 C361 1.356 1_455 S
N359 H364 0.984 . S
N359 H365 0.985 . S
C360 C354 1.379 . S
C360 C357 1.363 . S
C360 N358 1.356 . S
C361 C355 1.363 . S
C361 C356 1.379 . S
C361 N359 1.356 1_655 S
N362 C354 1.356 . S
N362 H368 0.984 . S
N362 H369 0.984 . S
N363 C356 1.356 . S
N363 H366 0.984 . S
N363 H367 0.985 . S
H364 N359 0.984 . S
H365 N359 0.985 . S
H366 N363 0.984 . S
H367 N363 0.985 . S
H368 N362 0.984 . S
H369 N362 0.984 . S
H370 N358 0.984 . S
H371 N358 0.985 . S
C372 C373 1.363 . S
C372 C378 1.379 . S
C372 N380 1.356 . S
C373 C372 1.363 . S
C373 C379 1.363 . S
C374 C375 1.363 . S
C374 C379 1.379 . S
C374 N381 1.356 . S
C375 C374 1.363 . S
C375 C378 1.363 . S
N376 C378 1.356 . S
N376 H388 0.984 . S
N376 H389 0.985 . S
N377 C379 1.356 . S
N377 H382 0.984 . S
N377 H383 0.985 . S
C378 C372 1.379 . S
C378 C375 1.363 . S
C378 N376 1.356 . S
C379 C373 1.363 . S
C379 C374 1.379 . S
C379 N377 1.356 . S
N380 C372 1.356 . S
N380 H386 0.984 . S
N380 H387 0.984 . S
N381 C374 1.356 . S
N381 H384 0.984 . S
N381 H385 0.985 . S
H382 N377 0.984 . S
H383 N377 0.985 . S
H384 N381 0.984 . S
H385 N381 0.985 . S
H386 N380 0.984 . S
H387 N380 0.984 . S
H388 N376 0.984 . S
H389 N376 0.985 . S
C390 C391 1.363 . S
C390 C396 1.379 . S
C390 N398 1.356 . S
C391 C390 1.363 . S
C391 C397 1.363 . S
C392 C393 1.363 1_545 S
C392 C397 1.379 1_545 S
C392 N399 1.356 . S
C393 C392 1.363 1_565 S
C393 C396 1.363 . S
N394 C396 1.356 . S
N394 H406 0.984 . S
N394 H407 0.985 . S
N395 C397 1.356 1_545 S
N395 H400 0.984 1_545 S
N395 H401 0.985 . S
C396 C390 1.379 . S
C396 C393 1.363 . S
C396 N394 1.356 . S
C397 C391 1.363 . S
C397 C392 1.379 1_565 S
C397 N395 1.356 1_565 S
N398 C390 1.356 . S
N398 H404 0.984 . S
N398 H405 0.984 . S
N399 C392 1.356 . S
N399 H402 0.984 . S
N399 H403 0.985 . S
H400 N395 0.984 1_565 S
H401 N395 0.985 . S
H402 N399 0.984 . S
H403 N399 0.985 . S
H404 N398 0.984 . S
H405 N398 0.984 . S
H406 N394 0.984 . S
H407 N394 0.985 . S
C408 C409 1.363 . S
C408 C414 1.379 . S
C408 N416 1.356 1_655 S
C409 C408 1.363 . S
C409 C415 1.363 . S
C410 C411 1.363 1_545 S
C410 C415 1.379 1_545 S
C410 N417 1.356 . S
C411 C410 1.363 1_565 S
C411 C414 1.363 . S
N412 C414 1.356 . S
N412 H424 0.984 . S
N412 H425 0.985 . S
N413 C415 1.356 1_545 S
N413 H418 0.984 1_545 S
N413 H419 0.985 . S
C414 C408 1.379 . S
C414 C411 1.363 . S
C414 N412 1.356 . S
C415 C409 1.363 . S
C415 C410 1.379 1_565 S
C415 N413 1.356 1_565 S
N416 C408 1.356 1_455 S
N416 H422 0.984 . S
N416 H423 0.984 . S
N417 C410 1.356 . S
N417 H420 0.984 . S
N417 H421 0.985 . S
H418 N413 0.984 1_565 S
H419 N413 0.985 . S
H420 N417 0.984 . S
H421 N417 0.985 . S
H422 N416 0.984 . S
H423 N416 0.984 . S
H424 N412 0.984 . S
H425 N412 0.985 . S
C426 C427 1.363 . S
C426 C432 1.379 . S
C426 N434 1.356 . S
C427 C426 1.363 . S
C427 C433 1.363 . S
C428 C429 1.363 . S
C428 C433 1.379 . S
C428 N435 1.356 . S
C429 C428 1.363 . S
C429 C432 1.363 . S
N430 C432 1.356 . S
N430 H442 0.984 . S
N430 H443 0.985 . S
N431 C433 1.356 . S
N431 H436 0.984 . S
N431 H437 0.985 . S
C432 C426 1.379 . S
C432 C429 1.363 . S
C432 N430 1.356 . S
C433 C427 1.363 . S
C433 C428 1.379 . S
C433 N431 1.356 . S
N434 C426 1.356 . S
N434 H440 0.984 . S
N434 H441 0.984 . S
N435 C428 1.356 . S
N435 H438 0.984 . S
N435 H439 0.985 . S
H436 N431 0.984 . S
H437 N431 0.985 . S
H438 N435 0.984 . S
H439 N435 0.985 . S
H440 N434 0.984 . S
H441 N434 0.984 . S
H442 N430 0.984 . S
H443 N430 0.985 . S
C444 C445 1.363 . S
C444 C450 1.379 . S
C444 N452 1.356 . S
C445 C444 1.363 . S
C445 C451 1.363 . S
C446 C447 1.363 . S
C446 C451 1.379 . S
C446 N453 1.356 . S
C447 C446 1.363 . S
C447 C450 1.363 . S
N448 C450 1.356 . S
N448 H460 0.984 . S
N448 H461 0.985 . S
N449 C451 1.356 . S
N449 H454 0.984 . S
N449 H455 0.985 . S
C450 C444 1.379 . S
C450 C447 1.363 . S
C450 N448 1.356 . S
C451 C445 1.363 . S
C451 C446 1.379 . S
C451 N449 1.356 . S
N452 C444 1.356 . S
N452 H458 0.984 . S
N452 H459 0.984 . S
N453 C446 1.356 . S
N453 H456 0.984 . S
N453 H457 0.985 . S
H454 N449 0.984 . S
H455 N449 0.985 . S
H456 N453 0.984 . S
H457 N453 0.985 . S
H458 N452 0.984 . S
H459 N452 0.984 . S
H460 N448 0.984 . S
H461 N448 0.985 . S
C462 C463 1.363 . S
C462 C468 1.379 . S
C462 N470 1.356 . S
C463 C462 1.363 . S
C463 C469 1.363 . S
C464 C465 1.363 . S
C464 C469 1.379 . S
C464 N471 1.356 . S
C465 C464 1.363 . S
C465 C468 1.363 . S
N466 C468 1.356 . S
N466 H478 0.984 . S
N466 H479 0.985 . S
N467 C469 1.356 . S
N467 H472 0.984 . S
N467 H473 0.985 . S
C468 C462 1.379 . S
C468 C465 1.363 . S
C468 N466 1.356 . S
C469 C463 1.363 . S
C469 C464 1.379 . S
C469 N467 1.356 . S
N470 C462 1.356 . S
N470 H476 0.984 . S
N470 H477 0.984 . S
N471 C464 1.356 . S
N471 H474 0.984 . S
N471 H475 0.985 . S
H472 N467 0.984 . S
H473 N467 0.985 . S
H474 N471 0.984 . S
H475 N471 0.985 . S
H476 N470 0.984 . S
H477 N470 0.984 . S
H478 N466 0.984 . S
H479 N466 0.985 . S
C480 C481 1.363 . S
C480 C486 1.379 . S
C480 N488 1.356 . S
C481 C480 1.363 . S
C481 C487 1.363 . S
C482 C483 1.363 . S
C482 C487 1.379 . S
C482 N489 1.356 . S
C483 C482 1.363 . S
C483 C486 1.363 . S
N484 C486 1.356 . S
N484 H496 0.984 . S
N484 H497 0.985 . S
N485 C487 1.356 . S
N485 H490 0.984 . S
N485 H491 0.985 . S
C486 C480 1.379 . S
C486 C483 1.363 . S
C486 N484 1.356 . S
C487 C481 1.363 . S
C487 C482 1.379 . S
C487 N485 1.356 . S
N488 C480 1.356 . S
N488 H494 0.984 . S
N488 H495 0.984 . S
N489 C482 1.356 . S
N489 H492 0.984 . S
N489 H493 0.985 . S
H490 N485 0.984 . S
H491 N485 0.985 . S
H492 N489 0.984 . S
H493 N489 0.985 . S
H494 N488 0.984 . S
H495 N488 0.984 . S
H496 N484 0.984 . S
H497 N484 0.985 . S
C498 C499 1.363 . S
C498 C504 1.379 . S
C498 N506 1.356 . S
C499 C498 1.363 . S
C499 C505 1.363 . S
C500 C501 1.363 . S
C500 C505 1.379 . S
C500 N507 1.356 . S
C501 C500 1.363 . S
C501 C504 1.363 . S
N502 C504 1.356 . S
N502 H514 0.984 . S
N502 H515 0.985 . S
N503 C505 1.356 . S
N503 H508 0.984 . S
N503 H509 0.985 . S
C504 C498 1.379 . S
C504 C501 1.363 . S
C504 N502 1.356 . S
C505 C499 1.363 . S
C505 C500 1.379 . S
C505 N503 1.356 . S
N506 C498 1.356 . S
N506 H512 0.984 . S
N506 H513 0.984 . S
N507 C500 1.356 . S
N507 H510 0.984 . S
N507 H511 0.985 . S
H508 N503 0.984 . S
H509 N503 0.985 . S
H510 N507 0.984 . S
H511 N507 0.985 . S
H512 N506 0.984 . S
H513 N506 0.984 . S
H514 N502 0.984 . S
H515 N502 0.985 . S
C516 C517 1.363 . S
C516 C522 1.379 . S
C516 N524 1.356 . S
C517 C516 1.363 . S
C517 C523 1.363 . S
C518 C519 1.363 . S
C518 C523 1.379 . S
C518 N525 1.356 . S
C519 C518 1.363 . S
C519 C522 1.363 . S
N520 C522 1.356 . S
N520 H532 0.984 . S
N520 H533 0.985 . S
N521 C523 1.356 . S
N521 H526 0.984 . S
N521 H527 0.985 . S
C522 C516 1.379 . S
C522 C519 1.363 . S
C522 N520 1.356 . S
C523 C517 1.363 . S
C523 C518 1.379 . S
C523 N521 1.356 . S
N524 C516 1.356 . S
N524 H530 0.984 . S
N524 H531 0.984 . S
N525 C518 1.356 . S
N525 H528 0.984 . S
N525 H529 0.985 . S
H526 N521 0.984 . S
H527 N521 0.985 . S
H528 N525 0.984 . S
H529 N525 0.985 . S
H530 N524 0.984 . S
H531 N524 0.984 . S
H532 N520 0.984 . S
H533 N520 0.985 . S
C534 C535 1.363 . S
C534 C540 1.379 . S
C534 N542 1.356 . S
C535 C534 1.363 . S
C535 C541 1.363 . S
C536 C537 1.363 . S
C536 C541 1.379 . S
C536 N543 1.356 . S
C537 C536 1.363 . S
C537 C540 1.363 . S
N538 C540 1.356 . S
N538 H550 0.984 . S
N538 H551 0.985 . S
N539 C541 1.356 . S
N539 H544 0.984 . S
N539 H545 0.985 . S
C540 C534 1.379 . S
C540 C537 1.363 . S
C540 N538 1.356 . S
C541 C535 1.363 . S
C541 C536 1.379 . S
C541 N539 1.356 . S
N542 C534 1.356 . S
N542 H548 0.984 . S
N542 H549 0.984 . S
N543 C536 1.356 . S
N543 H546 0.984 . S
N543 H547 0.985 . S
H544 N539 0.984 . S
H545 N539 0.985 . S
H546 N543 0.984 . S
H547 N543 0.985 . S
H548 N542 0.984 . S
H549 N542 0.984 . S
H550 N538 0.984 . S
H551 N538 0.985 . S
C552 C553 1.363 . S
C552 C558 1.379 . S
C552 N560 1.356 . S
C553 C552 1.363 . S
C553 C559 1.363 . S
C554 C555 1.363 . S
C554 C559 1.379 . S
C554 N561 1.356 . S
C555 C554 1.363 . S
C555 C558 1.363 . S
N556 C558 1.356 . S
N556 H568 0.984 . S
N556 H569 0.985 . S
N557 C559 1.356 . S
N557 H562 0.984 . S
N557 H563 0.985 . S
C558 C552 1.379 . S
C558 C555 1.363 . S
C558 N556 1.356 . S
C559 C553 1.363 . S
C559 C554 1.379 . S
C559 N557 1.356 . S
N560 C552 1.356 . S
N560 H566 0.984 . S
N560 H567 0.984 . S
N561 C554 1.356 . S
N561 H564 0.984 . S
N561 H565 0.985 . S
H562 N557 0.984 . S
H563 N557 0.985 . S
H564 N561 0.984 . S
H565 N561 0.985 . S
H566 N560 0.984 . S
H567 N560 0.984 . S
H568 N556 0.984 . S
H569 N556 0.985 . S
C570 C571 1.363 . S
C570 C576 1.379 . S
C570 N578 1.356 . S
C571 C570 1.363 . S
C571 C577 1.363 . S
C572 C573 1.363 . S
C572 C577 1.379 . S
C572 N579 1.356 . S
C573 C572 1.363 . S
C573 C576 1.363 . S
N574 C576 1.356 . S
N574 H586 0.984 1_554 S
N574 H587 0.985 . S
N575 C577 1.356 . S
N575 H580 0.984 . S
N575 H581 0.985 . S
C576 C570 1.379 . S
C576 C573 1.363 . S
C576 N574 1.356 . S
C577 C571 1.363 . S
C577 C572 1.379 . S
C577 N575 1.356 . S
N578 C570 1.356 . S
N578 H584 0.984 1_554 S
N578 H585 0.984 . S
N579 C572 1.356 . S
N579 H582 0.984 . S
N579 H583 0.985 . S
H580 N575 0.984 . S
H581 N575 0.985 . S
H582 N579 0.984 . S
H583 N579 0.985 . S
H584 N578 0.984 1_556 S
H585 N578 0.984 . S
H586 N574 0.984 1_556 S
H587 N574 0.985 . S
C588 C589 1.363 . S
C588 C594 1.379 . S
C588 N596 1.356 . S
C589 C588 1.363 . S
C589 C595 1.363 . S
C590 C591 1.363 . S
C590 C595 1.379 . S
C590 N597 1.356 . S
C591 C590 1.363 . S
C591 C594 1.363 . S
N592 C594 1.356 . S
N592 H604 0.984 . S
N592 H605 0.985 . S
N593 C595 1.356 . S
N593 H598 0.984 . S
N593 H599 0.985 . S
C594 C588 1.379 . S
C594 C591 1.363 . S
C594 N592 1.356 . S
C595 C589 1.363 . S
C595 C590 1.379 . S
C595 N593 1.356 . S
N596 C588 1.356 . S
N596 H602 0.984 . S
N596 H603 0.984 . S
N597 C590 1.356 . S
N597 H600 0.984 . S
N597 H601 0.985 . S
H598 N593 0.984 . S
H599 N593 0.985 . S
H600 N597 0.984 . S
H601 N597 0.985 . S
H602 N596 0.984 . S
H603 N596 0.984 . S
H604 N592 0.984 . S
H605 N592 0.985 . S
C606 C607 1.363 . S
C606 C612 1.379 . S
C606 N614 1.356 . S
C607 C606 1.363 . S
C607 C613 1.363 . S
C608 C609 1.363 . S
C608 C613 1.379 . S
C608 N615 1.356 . S
C609 C608 1.363 . S
C609 C612 1.363 . S
N610 C612 1.356 . S
N610 H622 0.984 . S
N610 H623 0.985 . S
N611 C613 1.356 . S
N611 H616 0.984 . S
N611 H617 0.985 . S
C612 C606 1.379 . S
C612 C609 1.363 . S
C612 N610 1.356 . S
C613 C607 1.363 . S
C613 C608 1.379 . S
C613 N611 1.356 . S
N614 C606 1.356 . S
N614 H620 0.984 . S
N614 H621 0.984 . S
N615 C608 1.356 . S
N615 H618 0.984 . S
N615 H619 0.985 . S
H616 N611 0.984 . S
H617 N611 0.985 . S
H618 N615 0.984 . S
H619 N615 0.985 . S
H620 N614 0.984 . S
H621 N614 0.984 . S
H622 N610 0.984 . S
H623 N610 0.985 . S
C265 N137 1.562 1_545 S
C267 N5 1.562 . S
C283 N38 1.562 1_455 S
C285 N170 1.562 . S
C301 N71 1.562 . S
C303 N203 1.562 . S
C319 N236 1.562 . S
C321 N104 1.562 . S
C337 N245 1.166 . S
C339 C8 1.161 . S
C355 N146 1.166 . S
C357 C41 1.161 . S
C373 N179 1.166 . S
C375 C74 1.162 . S
C391 N212 1.166 . S
C393 C107 1.161 . S
C409 C140 1.161 . S
C411 N113 1.166 . S
C427 C173 1.161 . S
C429 N14 1.166 . S
C445 C206 1.162 . S
C447 N47 1.166 . S
C463 C239 1.161 . S
C465 N80 1.166 . S
C481 C17 1.269 . S
C483 C83 1.269 . S
C499 C50 1.269 . S
C501 C116 1.269 . S
C517 C215 1.269 . S
C519 C149 1.269 . S
C535 C248 1.269 . S
C537 C182 1.269 . S
C553 C94 1.279 . S
C555 C28 1.279 . S
C571 C61 1.279 . S
C573 C127 1.280 . S
C589 C226 1.279 . S
C591 C160 1.280 . S
C607 C259 1.280 . S
C609 C193 1.279 . S
