# Generated by pormake.
# Topology sml, (6)-cn, num edge types: 1
# Building blocks:
#     Node 0, Type 0, BuildingBlock: BETDEL_clean_sbu_0, # of connection points: 6
#     Node 1, Type 0, BuildingBlock: BETDEL_clean_sbu_0, # of connection points: 6
#     Node 2, Type 0, BuildingBlock: BETDEL_clean_sbu_0, # of connection points: 6
#     Node 3, Type 0, BuildingBlock: BETDEL_clean_sbu_0, # of connection points: 6
#     Node 4, Type 0, BuildingBlock: BETDEL_clean_sbu_0, # of connection points: 6
#     Node 5, Type 0, BuildingBlock: BETDEL_clean_sbu_0, # of connection points: 6
#     Edge 6, Type (0, 0), BuildingBlock: CIFDUS_clean_linker_0, # of connection points: 2
#     Edge 7, Type (0, 0), BuildingBlock: CIFDUS_clean_linker_0, # of connection points: 2
#     Edge 8, Type (0, 0), BuildingBlock: CIFDUS_clean_linker_0, # of connection points: 2
#     Edge 9, Type (0, 0), BuildingBlock: CIFDUS_clean_linker_0, # of connection points: 2
#     Edge 10, Type (0, 0), BuildingBlock: CIFDUS_clean_linker_0, # of connection points: 2
#     Edge 11, Type (0, 0), BuildingBlock: CIFDUS_clean_linker_0, # of connection points: 2
#     Edge 12, Type (0, 0), BuildingBlock: CIFDUS_clean_linker_0, # of connection points: 2
#     Edge 13, Type (0, 0), BuildingBlock: CIFDUS_clean_linker_0, # of connection points: 2
#     Edge 14, Type (0, 0), BuildingBlock: CIFDUS_clean_linker_0, # of connection points: 2
#     Edge 15, Type (0, 0), BuildingBlock: CIFDUS_clean_linker_0, # of connection points: 2
#     Edge 16, Type (0, 0), BuildingBlock: CIFDUS_clean_linker_0, # of connection points: 2
#     Edge 17, Type (0, 0), BuildingBlock: CIFDUS_clean_linker_0, # of connection points: 2
#     Edge 18, Type (0, 0), BuildingBlock: CIFDUS_clean_linker_0, # of connection points: 2
#     Edge 19, Type (0, 0), BuildingBlock: CIFDUS_clean_linker_0, # of connection points: 2
#     Edge 20, Type (0, 0), BuildingBlock: CIFDUS_clean_linker_0, # of connection points: 2
#     Edge 21, Type (0, 0), BuildingBlock: CIFDUS_clean_linker_0, # of connection points: 2
#     Edge 22, Type (0, 0), BuildingBlock: CIFDUS_clean_linker_0, # of connection points: 2
#     Edge 23, Type (0, 0), BuildingBlock: CIFDUS_clean_linker_0, # of connection points: 2
# Relax obj value: 0.140
# Max RMSD: 0.177
# Mean RMSD: 0.177
data_MOF--net-sml--node1-BETDEL_clean_sbu_0--edge1-CIFDUS_clean_linker_0
_symmetry_space_group_name_H-M    P1
_symmetry_Int_Tables_number       1
_symmetry_cell_setting            triclinic
loop_
_symmetry_equiv_pos_as_xyz
'x, y, z'
_cell_length_a     31.222347
_cell_length_b     31.461349
_cell_length_c     16.127025
_cell_angle_alpha  90.045133
_cell_angle_beta   90.437021
_cell_angle_gamma 120.13791
loop_
_atom_site_label
_atom_site_type_symbol
_atom_site_fract_x
_atom_site_fract_y
_atom_site_fract_z
_atom_type_partial_charge
Dy0 Dy 0.1758 0.4247 0.07893 0.0
C1 C 0.2129 0.41552 0.42551 0.0
C2 C 0.1766 0.43072 0.91028 0.0
Dy3 Dy 0.21272 0.41998 0.25666 0.0
O4 O 0.13972 0.42389 0.95658 0.0
O5 O 0.21281 0.43507 0.95623 0.0
O6 O 0.09682 0.38693 0.1205 0.0
O7 O 0.1479 0.37256 0.18136 0.0
C8 C 0.10461 0.36596 0.18372 0.0
C9 C 0.28292 0.47862 0.14983 0.0
O10 O 0.21052 0.35336 0.2045 0.0
O11 O 0.20513 0.37251 0.06692 0.0
O12 O 0.24858 0.41959 0.37877 0.0
O13 O 0.17746 0.41316 0.37993 0.0
O14 O 0.29212 0.45848 0.21277 0.0
O15 O 0.23971 0.47142 0.15485 0.0
O16 O 0.18128 0.49389 0.13124 0.0
O17 O 0.18699 0.47445 0.26849 0.0
C18 C 0.21375 0.34717 0.12389 0.0
C19 C 0.18138 0.50202 0.21223 0.0
Dy20 Dy 0.81151 0.24101 0.61808 0.0
C21 C 0.7859 0.19646 0.2695 0.0
C22 C 0.81386 0.25052 0.78605 0.0
Dy23 Dy 0.78088 0.20381 0.43674 0.0
O24 O 0.79143 0.26507 0.73534 0.0
O25 O 0.83646 0.23223 0.74481 0.0
O26 O 0.8909 0.29096 0.57785 0.0
O27 O 0.84525 0.2255 0.51395 0.0
C28 C 0.88671 0.26426 0.51334 0.0
C29 C 0.70436 0.17826 0.53698 0.0
O30 O 0.77503 0.13599 0.49186 0.0
O31 O 0.77552 0.15934 0.62901 0.0
O32 O 0.75605 0.20731 0.3074 0.0
O33 O 0.81199 0.18805 0.32311 0.0
O34 O 0.70169 0.15381 0.46993 0.0
O35 O 0.74554 0.21801 0.54042 0.0
O36 O 0.80622 0.30452 0.57039 0.0
O37 O 0.80611 0.2846 0.43142 0.0
C38 C 0.76915 0.12609 0.57232 0.0
C39 C 0.80955 0.31535 0.49071 0.0
Dy40 Dy 0.57136 0.75301 0.76067 0.0
C41 C 0.58816 0.79916 0.10914 0.0
C42 C 0.56203 0.74356 0.5925 0.0
Dy43 Dy 0.58032 0.79043 0.94087 0.0
O44 O 0.60346 0.762 0.63356 0.0
O45 O 0.52532 0.7286 0.64353 0.0
O46 O 0.60976 0.71141 0.79596 0.0
O47 O 0.6269 0.77658 0.85913 0.0
C48 C 0.63402 0.74055 0.85769 0.0
C49 C 0.51799 0.80351 0.84356 0.0
O50 O 0.63918 0.85967 0.88456 0.0
O51 O 0.61114 0.83517 0.74938 0.0
O52 O 0.54689 0.77874 0.06735 0.0
O53 O 0.62541 0.81643 0.05879 0.0
O54 O 0.54146 0.83175 0.90655 0.0
O55 O 0.52475 0.76724 0.84214 0.0
O56 O 0.51039 0.68523 0.81879 0.0
O57 O 0.543 0.70841 0.95184 0.0
C58 C 0.63961 0.86928 0.80443 0.0
C59 C 0.51198 0.67514 0.89815 0.0
Dy60 Dy 0.75823 0.57054 0.28826 0.0
C61 C 0.80664 0.57485 0.93851 0.0
C62 C 0.74702 0.55817 0.45519 0.0
Dy63 Dy 0.80103 0.57446 0.10678 0.0
O64 O 0.71661 0.56377 0.40638 0.0
O65 O 0.78201 0.55825 0.41229 0.0
O66 O 0.74786 0.63561 0.25333 0.0
O67 O 0.74804 0.58839 0.16494 0.0
C68 C 0.74726 0.62727 0.17399 0.0
C69 C 0.83023 0.53484 0.22545 0.0
O70 O 0.85863 0.64776 0.15891 0.0
O71 O 0.8378 0.62829 0.29752 0.0
O72 O 0.81165 0.54455 0.987 0.0
O73 O 0.80057 0.6062 0.98213 0.0
O74 O 0.85636 0.55589 0.1597 0.0
O75 O 0.78871 0.53225 0.21916 0.0
O76 O 0.69552 0.49955 0.23738 0.0
O77 O 0.72352 0.51006 0.09962 0.0
C78 C 0.86862 0.65662 0.23953 0.0
C79 C 0.68979 0.48611 0.1577 0.0
Dy80 Dy 0.23398 0.8048 0.43113 0.0
C81 C 0.18 0.77225 0.78164 0.0
C82 C 0.24833 0.80611 0.26395 0.0
Dy83 Dy 0.19345 0.77209 0.61456 0.0
O84 O 0.26823 0.84471 0.31202 0.0
O85 O 0.22311 0.76692 0.30822 0.0
O86 O 0.25016 0.88217 0.46421 0.0
O87 O 0.25126 0.83577 0.55434 0.0
C88 C 0.25431 0.87647 0.54328 0.0
C89 C 0.18147 0.70051 0.51223 0.0
O90 O 0.13216 0.78144 0.55797 0.0
O91 O 0.15674 0.79067 0.41952 0.0
O92 O 0.16119 0.73317 0.73479 0.0
O93 O 0.20369 0.81129 0.73621 0.0
O94 O 0.18466 0.69817 0.59246 0.0
O95 O 0.1793 0.73822 0.49258 0.0
O96 O 0.29159 0.78819 0.4828 0.0
O97 O 0.27119 0.7862 0.6229 0.0
C98 C 0.12429 0.78476 0.47737 0.0
C99 C 0.30039 0.78618 0.56333 0.0
Dy100 Dy 0.42676 0.18487 0.94856 0.0
C101 C 0.41076 0.2138 0.6003 0.0
C102 C 0.43443 0.18313 0.11678 0.0
Dy103 Dy 0.4194 0.21397 0.7684 0.0
O104 O 0.39316 0.1635 0.07506 0.0
O105 O 0.47161 0.20232 0.06643 0.0
O106 O 0.3948 0.10581 0.91053 0.0
O107 O 0.37428 0.15094 0.84623 0.0
C108 C 0.37095 0.10936 0.84686 0.0
C109 C 0.47583 0.2898 0.86949 0.0
O110 O 0.35699 0.21971 0.8218 0.0
O111 O 0.38254 0.22312 0.95858 0.0
O112 O 0.45219 0.23618 0.64155 0.0
O113 O 0.37385 0.1928 0.65103 0.0
O114 O 0.4534 0.29376 0.80412 0.0
O115 O 0.47173 0.24789 0.87063 0.0
O116 O 0.49372 0.18699 0.89536 0.0
O117 O 0.46488 0.17703 0.75978 0.0
C118 C 0.35409 0.22755 0.90175 0.0
C119 C 0.49649 0.17787 0.81596 0.0
H120 H 0.32656 0.23199 0.05936 0.0
H121 H 0.30491 0.26119 0.80544 0.0
H122 H 0.25487 0.29618 0.85206 0.0
H123 H 0.22341 0.32459 0.96497 0.0
H124 H 0.2464 0.29685 0.21914 0.0
H125 H 0.28914 0.25435 0.17188 0.0
C126 C 0.31068 0.24573 0.01404 0.0
C127 C 0.32003 0.24453 0.92905 0.0
C128 C 0.28217 0.266 0.04125 0.0
C129 C 0.29851 0.26182 0.87123 0.0
C130 C 0.26995 0.28192 0.89784 0.0
C131 C 0.23713 0.30872 0.01024 0.0
C132 C 0.23207 0.31441 0.09562 0.0
C133 C 0.26239 0.28507 0.98275 0.0
C134 C 0.24982 0.2932 0.1531 0.0
C135 C 0.27454 0.2691 0.12614 0.0
H136 H 0.01002 0.34563 0.18653 0.0
H137 H 0.11703 0.32752 0.32881 0.0
H138 H 0.06038 0.29743 0.44689 0.0
H139 H 0.98027 0.27874 0.51073 0.0
H140 H 0.87031 0.28489 0.35639 0.0
H141 H 0.92744 0.31641 0.24216 0.0
C142 C 0.02088 0.33481 0.24319 0.0
C143 C 0.06847 0.34102 0.25065 0.0
C144 C 0.98735 0.31539 0.3088 0.0
C145 C 0.08138 0.32525 0.32325 0.0
C146 C 0.04882 0.30762 0.39041 0.0
C147 C 0.96906 0.28703 0.45194 0.0
C148 C 0.92138 0.28076 0.44305 0.0
C149 C 0.00188 0.3033 0.38438 0.0
C150 C 0.9068 0.29037 0.36612 0.0
C151 C 0.93959 0.30826 0.30011 0.0
H152 H 0.76402 0.09576 0.73098 0.0
H153 H 0.73133 0.04186 0.47866 0.0
H154 H 0.69078 0.9573 0.52899 0.0
H155 H 0.65937 0.89925 0.64451 0.0
H156 H 0.69075 0.95349 0.89674 0.0
H157 H 0.73733 0.03778 0.84603 0.0
C158 C 0.74838 0.06561 0.6867 0.0
C159 C 0.75027 0.07517 0.60109 0.0
C160 C 0.72461 0.01727 0.71603 0.0
C161 C 0.73036 0.03559 0.54482 0.0
C162 C 0.70694 0.98723 0.57358 0.0
C163 C 0.67653 0.92943 0.6886 0.0
C164 C 0.67107 0.92007 0.77442 0.0
C165 C 0.70297 0.97772 0.65907 0.0
C166 C 0.69418 0.95963 0.83045 0.0
C167 C 0.72074 0.00784 0.8015 0.0
H168 H 0.64499 0.66123 0.86436 0.0
H169 H 0.68574 0.79653 0.99251 0.0
H170 H 0.72371 0.77382 0.10486 0.0
H171 H 0.7437 0.71324 0.16797 0.0
H172 H 0.70666 0.58134 0.02964 0.0
H173 H 0.67009 0.60529 0.91997 0.0
C174 C 0.66243 0.68591 0.91663 0.0
C175 C 0.66123 0.72972 0.92167 0.0
C176 C 0.68526 0.67324 0.97922 0.0
C177 C 0.68466 0.76172 0.98901 0.0
C178 C 0.70679 0.74893 0.05279 0.0
C179 C 0.72781 0.69009 0.11359 0.0
C180 C 0.72797 0.6456 0.1074 0.0
C181 C 0.70686 0.70436 0.04909 0.0
C182 C 0.70745 0.61597 0.03622 0.0
C183 C 0.68619 0.62945 0.97319 0.0
H184 H 0.09557 0.7861 0.31789 0.0
H185 H 0.04022 0.75698 0.56844 0.0
H186 H 0.9556 0.72161 0.515 0.0
H187 H 0.89752 0.68817 0.39791 0.0
H188 H 0.95267 0.7112 0.14747 0.0
H189 H 0.03744 0.76056 0.20054 0.0
C190 C 0.06521 0.7728 0.3613 0.0
C191 C 0.07446 0.77353 0.44741 0.0
C192 C 0.01656 0.75097 0.33003 0.0
C193 C 0.03442 0.75668 0.5021 0.0
C194 C 0.98593 0.73615 0.47146 0.0
C195 C 0.92791 0.70451 0.35446 0.0
C196 C 0.91859 0.69515 0.26858 0.0
C197 C 0.97655 0.73138 0.38557 0.0
C198 C 0.95857 0.71747 0.21367 0.0
C199 C 0.00712 0.74546 0.24413 0.0
H200 H 0.36406 0.02059 0.84189 0.0
H201 H 0.31686 0.10992 0.71274 0.0
H202 H 0.2779 0.04704 0.60416 0.0
H203 H 0.25761 0.9656 0.54555 0.0
H204 H 0.30062 0.87552 0.68436 0.0
H205 H 0.33984 0.93888 0.7895 0.0
C206 C 0.34512 0.02625 0.79011 0.0
C207 C 0.3445 0.07036 0.78398 0.0
C208 C 0.32166 0.98941 0.72964 0.0
C209 C 0.31921 0.07689 0.71723 0.0
C210 C 0.29652 0.04071 0.65557 0.0
C211 C 0.27554 0.96005 0.59893 0.0
C212 C 0.27622 0.91589 0.60675 0.0
C213 C 0.29776 -0.00321 0.66077 0.0
C214 C 0.2993 0.90899 0.67661 0.0
C215 C 0.32197 0.94533 0.73701 0.0
H216 H 0.24815 0.43463 0.8123 0.0
H217 H 0.10411 0.42211 0.80438 0.0
H218 H 0.1024 0.41513 0.65296 0.0
H219 H 0.14166 0.41196 0.52359 0.0
H220 H 0.28555 0.42413 0.53133 0.0
H221 H 0.2874 0.43132 0.68279 0.0
C222 C 0.21651 0.43062 0.77731 0.0
C223 C 0.17634 0.42903 0.81902 0.0
C224 C 0.21565 0.42617 0.69068 0.0
C225 C 0.13546 0.42357 0.77332 0.0
C226 C 0.13444 0.41944 0.68694 0.0
C227 C 0.17336 0.41603 0.55853 0.0
C228 C 0.21343 0.41746 0.51677 0.0
C229 C 0.17423 0.42047 0.64512 0.0
C230 C 0.25428 0.42281 0.56243 0.0
C231 C 0.25538 0.42708 0.64882 0.0
H232 H 0.75009 0.235 0.15849 0.0
H233 H 0.84264 0.16992 0.18064 0.0
H234 H 0.86142 0.18289 0.03253 0.0
H235 H 0.85125 0.21282 0.89694 0.0
H236 H 0.76005 0.27956 0.8765 0.0
H237 H 0.74154 0.26659 0.0243 0.0
C238 C 0.77403 0.22329 0.13064 0.0
C239 C 0.79455 0.20106 0.17969 0.0
C240 C 0.78537 0.23178 0.04623 0.0
C241 C 0.82611 0.18672 0.14353 0.0
C242 C 0.83704 0.19436 0.05914 0.0
C243 C 0.82777 0.22495 0.92521 0.0
C244 C 0.80718 0.24726 0.8764 0.0
C245 C 0.81703 0.21706 0.01 0.0
C246 C 0.77656 0.26258 0.91323 0.0
C247 C 0.76572 0.25491 0.99751 0.0
H248 H 0.63753 0.78887 0.48509 0.0
H249 H 0.47806 0.70761 0.49838 0.0
H250 H 0.47209 0.71952 0.34964 0.0
H251 H 0.51243 0.75371 0.21643 0.0
H252 H 0.67191 0.83548 0.20363 0.0
H253 H 0.67781 0.82343 0.35224 0.0
C254 C 0.6015 0.7734 0.45517 0.0
C255 C 0.55828 0.74704 0.50205 0.0
C256 C 0.59843 0.7811 0.37024 0.0
C257 C 0.5118 0.72765 0.46309 0.0
C258 C 0.5084 0.73471 0.37831 0.0
C259 C 0.54844 0.76924 0.24644 0.0
C260 C 0.5917 0.79571 0.19966 0.0
C261 C 0.55147 0.76164 0.33146 0.0
C262 C 0.63814 0.81531 0.23879 0.0
C263 C 0.64151 0.80817 0.32351 0.0
H264 H 0.75226 0.59949 0.83904 0.0
H265 H 0.84639 0.53571 0.83608 0.0
H266 H 0.83397 0.5226 0.6861 0.0
H267 H 0.7974 0.53041 0.55604 0.0
H268 H 0.69937 0.58972 0.55858 0.0
H269 H 0.71117 0.60246 0.7091 0.0
C270 C 0.77034 0.58315 0.80516 0.0
C271 C 0.80095 0.56938 0.84774 0.0
C272 C 0.76168 0.57428 0.71947 0.0
C273 C 0.82315 0.54704 0.80407 0.0
C274 C 0.81587 0.53935 0.71858 0.0
C275 C 0.77821 0.54567 0.58976 0.0
C276 C 0.74767 0.55927 0.54664 0.0
C277 C 0.78522 0.55281 0.67575 0.0
C278 C 0.72278 0.57869 0.59078 0.0
C279 C 0.7299 0.58637 0.67657 0.0
H280 H 0.2406 0.8483 0.8829 0.0
H281 H 0.1302 0.69423 0.8844 0.0
H282 H 0.14393 0.69046 0.03312 0.0
H283 H 0.18814 0.73064 0.16226 0.0
H284 H 0.29833 0.88476 0.16162 0.0
H285 H 0.28475 0.88867 0.01265 0.0
C286 C 0.21908 0.81409 0.91611 0.0
C287 C 0.18406 0.77167 0.873 0.0
C288 C 0.22787 0.81202 1.00133 0.0
C289 C 0.15703 0.72743 0.91643 0.0
C290 C 0.16514 0.72518 1.0013 0.0
C291 C 0.2096 0.76496 0.12929 0.0
C292 C 0.24453 0.80729 0.17261 0.0
C293 C 0.20081 0.76711 0.04419 0.0
C294 C 0.27157 0.85162 0.12938 0.0
C295 C 0.26352 0.85393 0.0444 0.0
H296 H 0.48592 0.24133 0.49275 0.0
H297 H 0.32665 0.1687 0.50652 0.0
H298 H 0.31985 0.15086 0.35776 0.0
H299 H 0.3593 0.15543 0.2244 0.0
H300 H 0.51856 0.22767 0.2107 0.0
H301 H 0.52539 0.24556 0.35944 0.0
C302 C 0.44978 0.222 0.4629 0.0
C303 C 0.40685 0.20665 0.50991 0.0
C304 C 0.4462 0.21124 0.3779 0.0
C305 C 0.36019 0.18115 0.4711 0.0
C306 C 0.35629 0.17073 0.38632 0.0
C307 C 0.39544 0.17467 0.25426 0.0
C308 C 0.43836 0.18994 0.20724 0.0
C309 C 0.39904 0.18531 0.33929 0.0
C310 C 0.48502 0.21524 0.24611 0.0
C311 C 0.48894 0.22573 0.33089 0.0
H312 H 0.23222 0.55305 0.34458 0.0
H313 H 0.13385 0.55086 0.15351 0.0
H314 H 0.12881 0.61734 0.22602 0.0
H315 H 0.1458 0.6693 0.35393 0.0
H316 H 0.24021 0.66359 0.54533 0.0
H317 H 0.25322 0.60663 0.46269 0.0
C318 C 0.20962 0.56705 0.31832 0.0
C319 C 0.18254 0.54645 0.24493 0.0
C320 C 0.20596 0.60357 0.36106 0.0
C321 C 0.15475 0.56603 0.2104 0.0
C322 C 0.15166 0.6037 0.25218 0.0
C323 C 0.16968 0.65593 0.37643 0.0
C324 C 0.1918 0.67017 0.45567 0.0
C325 C 0.17604 0.62177 0.32903 0.0
C326 C 0.22245 0.65265 0.48491 0.0
C327 C 0.23 0.62017 0.4377 0.0
H328 H 0.70208 0.215 0.68892 0.0
H329 H 0.60814 0.11713 0.49567 0.0
H330 H 0.53477 0.1044 0.56953 0.0
H331 H 0.49774 0.12664 0.68267 0.0
H332 H 0.59053 0.22181 0.87972 0.0
H333 H 0.66395 0.22907 0.81221 0.0
C334 C 0.66557 0.19063 0.66365 0.0
C335 C 0.66058 0.16775 0.58648 0.0
C336 C 0.6234 0.18283 0.70726 0.0
C337 C 0.61298 0.13552 0.55472 0.0
C338 C 0.57098 0.1282 0.59688 0.0
C339 C 0.53398 0.1483 0.71152 0.0
C340 C 0.53888 0.17401 0.78551 0.0
C341 C 0.57581 0.15242 0.6723 0.0
C342 C 0.58586 0.2015 0.82287 0.0
C343 C 0.62787 0.20606 0.78386 0.0
H344 H 0.37954 0.50358 0.13784 0.0
H345 H 0.2671 0.52538 0.02207 0.0
H346 H 0.32693 0.58111 0.9217 0.0
H347 H 0.41326 0.63099 0.87678 0.0
H348 H 0.52755 0.61672 1.00247 0.0
H349 H 0.46535 0.55027 0.08768 0.0
C350 C 0.36818 0.52024 0.09011 0.0
C351 C 0.31903 0.51032 0.08716 0.0
C352 C 0.40323 0.55356 0.0341 0.0
C353 C 0.3047 0.53221 0.02528 0.0
C354 C 0.33892 0.5642 0.96791 0.0
C355 C 0.42415 0.61208 0.92096 0.0
C356 C 0.4745 0.62788 0.93283 0.0
C357 C 0.3885 0.57593 0.97273 0.0
C358 C 0.48871 0.60445 0.99193 0.0
C359 C 0.45326 0.5669 0.04112 0.0
H360 H 0.87692 0.38081 0.3861 0.0
H361 H 0.75149 0.3528 0.535 0.0
H362 H 0.74843 0.42139 0.46874 0.0
H363 H 0.77477 0.48116 0.35518 0.0
H364 H 0.90513 0.51457 0.21536 0.0
H365 H 0.91276 0.45126 0.29064 0.0
C366 C 0.84972 0.39063 0.40512 0.0
C367 C 0.81425 0.36206 0.46445 0.0
C368 C 0.84866 0.43028 0.36761 0.0
C369 C 0.77921 0.37476 0.48953 0.0
C370 C 0.77724 0.41357 0.45122 0.0
C371 C 0.80599 0.47605 0.34346 0.0
C372 C 0.83939 0.5026 0.28003 0.0
C373 C 0.81087 0.44057 0.38843 0.0
C374 C 0.87887 0.49451 0.26387 0.0
C375 C 0.88322 0.45828 0.30674 0.0
H376 H 0.36595 0.85118 0.67068 0.0
H377 H 0.33628 0.72534 0.52216 0.0
H378 H 0.40281 0.71983 0.59524 0.0
H379 H 0.46306 0.74621 0.71252 0.0
H380 H 0.49388 0.87468 0.8552 0.0
H381 H 0.43247 0.88341 0.77436 0.0
C382 C 0.37481 0.82317 0.65324 0.0
C383 C 0.3465 0.78863 0.59164 0.0
C384 C 0.41254 0.82024 0.69563 0.0
C385 C 0.35806 0.75252 0.56907 0.0
C386 C 0.39565 0.74911 0.61147 0.0
C387 C 0.45707 0.77665 0.72454 0.0
C388 C 0.4829 0.80965 0.7899 0.0
C389 C 0.42222 0.78202 0.6765 0.0
C390 C 0.47428 0.84861 0.80564 0.0
C391 C 0.43926 0.85372 0.75931 0.0
H392 H 0.6311 0.48897 0.03948 0.0
H393 H 0.64581 0.39011 0.20622 0.0
H394 H 0.57846 0.31931 0.13248 0.0
H395 H 0.5225 0.28667 0.01041 0.0
H396 H 0.5058 0.38638 0.84849 0.0
H397 H 0.56751 0.45627 0.92982 0.0
C398 C 0.61863 0.45185 0.06069 0.0
C399 C 0.64294 0.44433 0.12781 0.0
C400 C 0.58041 0.41183 0.01791 0.0
C401 C 0.62699 0.39643 0.15514 0.0
C402 C 0.58899 0.35614 0.11242 0.0
C403 C 0.53162 0.32355 0.99413 0.0
C404 C 0.50987 0.33135 0.92336 0.0
C405 C 0.56646 0.36347 0.04224 0.0
C406 C 0.52225 0.37946 0.90242 0.0
C407 C 0.55748 0.41941 0.94891 0.0
loop_
_geom_bond_atom_site_label_1
_geom_bond_atom_site_label_2
_geom_bond_distance
_geom_bond_site_symmetry_2
_ccdc_geom_bond_type
Dy0 O4 2.398 . S
Dy0 O5 2.491 . S
Dy0 O6 2.403 . S
Dy0 O7 2.664 . S
Dy0 O11 2.326 . S
Dy0 O15 2.310 . S
Dy0 O16 2.351 . S
C1 O12 1.185 . S
C1 O13 1.355 . S
C2 O4 1.185 . S
C2 O5 1.355 . S
Dy3 O7 2.310 . S
Dy3 O10 2.351 . S
Dy3 O12 2.398 . S
Dy3 O13 2.491 . S
Dy3 O14 2.403 . S
Dy3 O15 2.664 . S
Dy3 O17 2.326 . S
O4 Dy0 2.398 . S
O4 C2 1.185 . S
O5 Dy0 2.491 . S
O5 C2 1.355 . S
O6 Dy0 2.403 . S
O6 C8 1.254 . S
O7 Dy0 2.664 . S
O7 Dy3 2.310 . S
O7 C8 1.268 . S
C8 O6 1.254 . S
C8 O7 1.268 . S
C9 O14 1.254 . S
C9 O15 1.268 . S
O10 Dy3 2.351 . S
O10 C18 1.249 . S
O11 Dy0 2.326 . S
O11 C18 1.267 . S
O12 C1 1.185 . S
O12 Dy3 2.398 . S
O13 C1 1.355 . S
O13 Dy3 2.491 . S
O14 Dy3 2.403 . S
O14 C9 1.254 . S
O15 Dy0 2.310 . S
O15 Dy3 2.664 . S
O15 C9 1.268 . S
O16 Dy0 2.351 . S
O16 C19 1.249 . S
O17 Dy3 2.326 . S
O17 C19 1.267 . S
C18 O10 1.249 . S
C18 O11 1.267 . S
C19 O16 1.249 . S
C19 O17 1.267 . S
Dy20 O24 2.398 . S
Dy20 O25 2.491 . S
Dy20 O26 2.403 . S
Dy20 O27 2.664 . S
Dy20 O31 2.326 . S
Dy20 O35 2.310 . S
Dy20 O36 2.351 . S
C21 O32 1.185 . S
C21 O33 1.355 . S
C22 O24 1.185 . S
C22 O25 1.355 . S
Dy23 O27 2.310 . S
Dy23 O30 2.351 . S
Dy23 O32 2.398 . S
Dy23 O33 2.491 . S
Dy23 O34 2.403 . S
Dy23 O35 2.664 . S
Dy23 O37 2.326 . S
O24 Dy20 2.398 . S
O24 C22 1.185 . S
O25 Dy20 2.491 . S
O25 C22 1.355 . S
O26 Dy20 2.403 . S
O26 C28 1.254 . S
O27 Dy20 2.664 . S
O27 Dy23 2.310 . S
O27 C28 1.268 . S
C28 O26 1.254 . S
C28 O27 1.268 . S
C29 O34 1.254 . S
C29 O35 1.268 . S
O30 Dy23 2.351 . S
O30 C38 1.249 . S
O31 Dy20 2.326 . S
O31 C38 1.267 . S
O32 C21 1.185 . S
O32 Dy23 2.398 . S
O33 C21 1.355 . S
O33 Dy23 2.491 . S
O34 Dy23 2.403 . S
O34 C29 1.254 . S
O35 Dy20 2.310 . S
O35 Dy23 2.664 . S
O35 C29 1.268 . S
O36 Dy20 2.351 . S
O36 C39 1.249 . S
O37 Dy23 2.326 . S
O37 C39 1.267 . S
C38 O30 1.249 . S
C38 O31 1.267 . S
C39 O36 1.249 . S
C39 O37 1.267 . S
Dy40 O44 2.398 . S
Dy40 O45 2.491 . S
Dy40 O46 2.403 . S
Dy40 O47 2.664 . S
Dy40 O51 2.326 . S
Dy40 O55 2.310 . S
Dy40 O56 2.351 . S
C41 O52 1.185 . S
C41 O53 1.355 . S
C42 O44 1.185 . S
C42 O45 1.355 . S
Dy43 O47 2.310 1_554 S
Dy43 O50 2.351 1_554 S
Dy43 O52 2.398 . S
Dy43 O53 2.491 . S
Dy43 O54 2.403 . S
Dy43 O55 2.664 1_554 S
Dy43 O57 2.326 . S
O44 Dy40 2.398 . S
O44 C42 1.185 . S
O45 Dy40 2.491 . S
O45 C42 1.355 . S
O46 Dy40 2.403 . S
O46 C48 1.254 . S
O47 Dy40 2.664 . S
O47 Dy43 2.310 1_556 S
O47 C48 1.268 . S
C48 O46 1.254 . S
C48 O47 1.268 . S
C49 O54 1.254 1_556 S
C49 O55 1.268 . S
O50 Dy43 2.351 1_556 S
O50 C58 1.249 . S
O51 Dy40 2.326 . S
O51 C58 1.267 . S
O52 C41 1.185 . S
O52 Dy43 2.398 . S
O53 C41 1.355 . S
O53 Dy43 2.491 . S
O54 Dy43 2.403 . S
O54 C49 1.254 1_554 S
O55 Dy40 2.310 . S
O55 Dy43 2.664 1_556 S
O55 C49 1.268 . S
O56 Dy40 2.351 . S
O56 C59 1.249 1_556 S
O57 Dy43 2.326 . S
O57 C59 1.267 . S
C58 O50 1.249 . S
C58 O51 1.267 . S
C59 O56 1.249 1_554 S
C59 O57 1.267 . S
Dy60 O64 2.398 . S
Dy60 O65 2.491 . S
Dy60 O66 2.403 . S
Dy60 O67 2.664 . S
Dy60 O71 2.326 . S
Dy60 O75 2.310 . S
Dy60 O76 2.351 . S
C61 O72 1.185 . S
C61 O73 1.355 . S
C62 O64 1.185 . S
C62 O65 1.355 . S
Dy63 O67 2.310 1_556 S
Dy63 O70 2.351 1_556 S
Dy63 O72 2.398 . S
Dy63 O73 2.491 . S
Dy63 O74 2.403 1_556 S
Dy63 O75 2.664 1_556 S
Dy63 O77 2.326 . S
O64 Dy60 2.398 . S
O64 C62 1.185 . S
O65 Dy60 2.491 . S
O65 C62 1.355 . S
O66 Dy60 2.403 . S
O66 C68 1.254 . S
O67 Dy60 2.664 . S
O67 Dy63 2.310 1_554 S
O67 C68 1.268 . S
C68 O66 1.254 . S
C68 O67 1.268 . S
C69 O74 1.254 . S
C69 O75 1.268 . S
O70 Dy63 2.351 1_554 S
O70 C78 1.249 . S
O71 Dy60 2.326 . S
O71 C78 1.267 . S
O72 C61 1.185 . S
O72 Dy63 2.398 . S
O73 C61 1.355 . S
O73 Dy63 2.491 . S
O74 Dy63 2.403 1_554 S
O74 C69 1.254 . S
O75 Dy60 2.310 . S
O75 Dy63 2.664 1_554 S
O75 C69 1.268 . S
O76 Dy60 2.351 . S
O76 C79 1.245 1_554 S
O77 Dy63 2.326 . S
O77 C79 1.269 . S
C78 O70 1.249 . S
C78 O71 1.267 . S
C79 O76 1.245 1_556 S
C79 O77 1.269 . S
Dy80 O84 2.398 . S
Dy80 O85 2.491 . S
Dy80 O86 2.403 . S
Dy80 O87 2.664 . S
Dy80 O91 2.326 . S
Dy80 O95 2.310 . S
Dy80 O96 2.351 . S
C81 O92 1.185 . S
C81 O93 1.355 . S
C82 O84 1.185 . S
C82 O85 1.355 . S
Dy83 O87 2.310 . S
Dy83 O90 2.351 . S
Dy83 O92 2.398 . S
Dy83 O93 2.491 . S
Dy83 O94 2.403 . S
Dy83 O95 2.664 . S
Dy83 O97 2.326 . S
O84 Dy80 2.398 . S
O84 C82 1.185 . S
O85 Dy80 2.491 . S
O85 C82 1.355 . S
O86 Dy80 2.403 . S
O86 C88 1.254 . S
O87 Dy80 2.664 . S
O87 Dy83 2.310 . S
O87 C88 1.268 . S
C88 O86 1.254 . S
C88 O87 1.268 . S
C89 O94 1.254 . S
C89 O95 1.268 . S
O90 Dy83 2.351 . S
O90 C98 1.249 . S
O91 Dy80 2.326 . S
O91 C98 1.267 . S
O92 C81 1.185 . S
O92 Dy83 2.398 . S
O93 C81 1.355 . S
O93 Dy83 2.491 . S
O94 Dy83 2.403 . S
O94 C89 1.254 . S
O95 Dy80 2.310 . S
O95 Dy83 2.664 . S
O95 C89 1.268 . S
O96 Dy80 2.351 . S
O96 C99 1.249 . S
O97 Dy83 2.326 . S
O97 C99 1.267 . S
C98 O90 1.249 . S
C98 O91 1.267 . S
C99 O96 1.249 . S
C99 O97 1.267 . S
Dy100 O104 2.398 . S
Dy100 O105 2.491 . S
Dy100 O106 2.403 . S
Dy100 O107 2.664 . S
Dy100 O111 2.326 . S
Dy100 O115 2.310 . S
Dy100 O116 2.351 . S
C101 O112 1.185 . S
C101 O113 1.355 . S
C102 O104 1.185 1_554 S
C102 O105 1.355 1_554 S
Dy103 O107 2.310 . S
Dy103 O110 2.351 . S
Dy103 O112 2.398 . S
Dy103 O113 2.491 . S
Dy103 O114 2.403 . S
Dy103 O115 2.664 . S
Dy103 O117 2.326 . S
O104 Dy100 2.398 . S
O104 C102 1.185 1_556 S
O105 Dy100 2.491 . S
O105 C102 1.355 1_556 S
O106 Dy100 2.403 . S
O106 C108 1.254 . S
O107 Dy100 2.664 . S
O107 Dy103 2.310 . S
O107 C108 1.268 . S
C108 O106 1.254 . S
C108 O107 1.268 . S
C109 O114 1.254 . S
C109 O115 1.268 . S
O110 Dy103 2.351 . S
O110 C118 1.249 . S
O111 Dy100 2.326 . S
O111 C118 1.267 . S
O112 C101 1.185 . S
O112 Dy103 2.398 . S
O113 C101 1.355 . S
O113 Dy103 2.491 . S
O114 Dy103 2.403 . S
O114 C109 1.254 . S
O115 Dy100 2.310 . S
O115 Dy103 2.664 . S
O115 C109 1.268 . S
O116 Dy100 2.351 . S
O116 C119 1.249 . S
O117 Dy103 2.326 . S
O117 C119 1.267 . S
C118 O110 1.249 . S
C118 O111 1.267 . S
C119 O116 1.249 . S
C119 O117 1.267 . S
H120 C126 0.930 . S
H121 C129 0.930 . S
H122 C130 0.930 . S
H123 C131 0.930 . S
H124 C134 0.930 . S
H125 C135 0.930 . S
C126 H120 0.930 . S
C126 C127 1.355 . S
C126 C128 1.415 1_556 S
C127 C126 1.355 . S
C127 C129 1.419 . S
C128 C126 1.415 1_554 S
C128 C133 1.425 . S
C128 C135 1.409 . S
C129 H121 0.930 . S
C129 C127 1.419 . S
C129 C130 1.362 . S
C130 H122 0.930 . S
C130 C129 1.362 . S
C130 C133 1.409 1_556 S
C131 H123 0.930 . S
C131 C132 1.355 . S
C131 C133 1.415 . S
C132 C131 1.355 . S
C132 C134 1.419 . S
C133 C128 1.425 . S
C133 C130 1.409 1_554 S
C133 C131 1.415 . S
C134 H124 0.930 . S
C134 C132 1.419 . S
C134 C135 1.362 . S
C135 H125 0.930 . S
C135 C128 1.409 . S
C135 C134 1.362 . S
H136 C142 0.930 . S
H137 C145 0.930 . S
H138 C146 0.930 . S
H139 C147 0.930 . S
H140 C150 0.930 . S
H141 C151 0.930 . S
C142 H136 0.930 . S
C142 C143 1.355 . S
C142 C144 1.415 . S
C143 C142 1.355 . S
C143 C145 1.419 . S
C144 C142 1.415 . S
C144 C149 1.425 1_455 S
C144 C151 1.409 1_455 S
C145 H137 0.930 . S
C145 C143 1.419 . S
C145 C146 1.362 . S
C146 H138 0.930 . S
C146 C145 1.362 . S
C146 C149 1.409 1_455 S
C147 H139 0.930 . S
C147 C148 1.355 . S
C147 C149 1.415 . S
C148 C147 1.355 . S
C148 C150 1.419 . S
C149 C144 1.425 1_655 S
C149 C146 1.409 1_655 S
C149 C147 1.415 . S
C150 H140 0.930 . S
C150 C148 1.419 . S
C150 C151 1.362 . S
C151 H141 0.930 . S
C151 C144 1.409 1_655 S
C151 C150 1.362 . S
H152 C158 0.930 . S
H153 C161 0.930 . S
H154 C162 0.930 . S
H155 C163 0.930 . S
H156 C166 0.930 . S
H157 C167 0.930 . S
C158 H152 0.930 . S
C158 C159 1.355 . S
C158 C160 1.415 . S
C159 C158 1.355 . S
C159 C161 1.419 . S
C160 C158 1.415 . S
C160 C165 1.425 1_545 S
C160 C167 1.418 . S
C161 H153 0.930 . S
C161 C159 1.419 . S
C161 C162 1.354 1_545 S
C162 H154 0.930 . S
C162 C161 1.354 1_565 S
C162 C165 1.418 . S
C163 H155 0.930 . S
C163 C164 1.355 . S
C163 C165 1.415 . S
C164 C163 1.355 . S
C164 C166 1.419 . S
C165 C160 1.425 1_565 S
C165 C162 1.418 . S
C165 C163 1.415 . S
C166 H156 0.930 . S
C166 C164 1.419 . S
C166 C167 1.354 1_565 S
C167 H157 0.930 . S
C167 C160 1.418 . S
C167 C166 1.354 1_545 S
H168 C174 0.930 1_556 S
H169 C177 0.930 . S
H170 C178 0.930 . S
H171 C179 0.930 . S
H172 C182 0.930 . S
H173 C183 0.930 1_556 S
C174 H168 0.930 1_554 S
C174 C175 1.355 . S
C174 C176 1.415 . S
C175 C174 1.355 . S
C175 C177 1.419 . S
C176 C174 1.415 . S
C176 C181 1.425 . S
C176 C183 1.409 . S
C177 H169 0.930 . S
C177 C175 1.419 . S
C177 C178 1.362 . S
C178 H170 0.930 . S
C178 C177 1.362 . S
C178 C181 1.409 . S
C179 H171 0.930 . S
C179 C180 1.355 . S
C179 C181 1.415 . S
C180 C179 1.355 . S
C180 C182 1.419 . S
C181 C176 1.425 . S
C181 C178 1.409 . S
C181 C179 1.415 . S
C182 H172 0.930 . S
C182 C180 1.419 . S
C182 C183 1.362 . S
C183 H173 0.930 1_554 S
C183 C176 1.409 . S
C183 C182 1.362 . S
H184 C190 0.930 . S
H185 C193 0.930 . S
H186 C194 0.930 . S
H187 C195 0.930 . S
H188 C198 0.930 . S
H189 C199 0.930 . S
C190 H184 0.930 . S
C190 C191 1.355 . S
C190 C192 1.415 . S
C191 C190 1.355 . S
C191 C193 1.419 . S
C192 C190 1.415 . S
C192 C197 1.425 1_455 S
C192 C199 1.409 . S
C193 H185 0.930 . S
C193 C191 1.419 . S
C193 C194 1.362 1_455 S
C194 H186 0.930 . S
C194 C193 1.362 1_655 S
C194 C197 1.409 . S
C195 H187 0.930 . S
C195 C196 1.355 . S
C195 C197 1.415 . S
C196 C195 1.355 . S
C196 C198 1.419 . S
C197 C192 1.425 1_655 S
C197 C194 1.409 . S
C197 C195 1.415 . S
C198 H188 0.930 . S
C198 C196 1.419 . S
C198 C199 1.362 1_655 S
C199 H189 0.930 . S
C199 C192 1.409 . S
C199 C198 1.362 1_455 S
H200 C206 0.930 . S
H201 C209 0.930 . S
H202 C210 0.930 . S
H203 C211 0.930 . S
H204 C214 0.930 . S
H205 C215 0.930 . S
C206 H200 0.930 . S
C206 C207 1.355 . S
C206 C208 1.415 . S
C207 C206 1.355 . S
C207 C209 1.419 . S
C208 C206 1.415 . S
C208 C213 1.425 1_545 S
C208 C215 1.409 1_545 S
C209 H201 0.930 . S
C209 C207 1.419 . S
C209 C210 1.362 . S
C210 H202 0.930 . S
C210 C209 1.362 . S
C210 C213 1.409 1_545 S
C211 H203 0.930 . S
C211 C212 1.355 . S
C211 C213 1.415 . S
C212 C211 1.355 . S
C212 C214 1.419 . S
C213 C208 1.425 1_565 S
C213 C210 1.409 1_565 S
C213 C211 1.415 . S
C214 H204 0.930 . S
C214 C212 1.419 . S
C214 C215 1.362 . S
C215 H205 0.930 . S
C215 C208 1.409 1_565 S
C215 C214 1.362 . S
H216 C222 0.930 . S
H217 C225 0.930 . S
H218 C226 0.930 . S
H219 C227 0.930 . S
H220 C230 0.930 . S
H221 C231 0.930 . S
C222 H216 0.930 . S
C222 C223 1.355 . S
C222 C224 1.415 . S
C223 C222 1.355 . S
C223 C225 1.419 . S
C224 C222 1.415 . S
C224 C229 1.425 . S
C224 C231 1.409 . S
C225 H217 0.930 . S
C225 C223 1.419 . S
C225 C226 1.362 . S
C226 H218 0.930 . S
C226 C225 1.362 . S
C226 C229 1.409 . S
C227 H219 0.930 . S
C227 C228 1.355 . S
C227 C229 1.415 . S
C228 C227 1.355 . S
C228 C230 1.419 . S
C229 C224 1.425 . S
C229 C226 1.409 . S
C229 C227 1.415 . S
C230 H220 0.930 . S
C230 C228 1.419 . S
C230 C231 1.362 . S
C231 H221 0.930 . S
C231 C224 1.409 . S
C231 C230 1.362 . S
H232 C238 0.930 . S
H233 C241 0.930 . S
H234 C242 0.930 . S
H235 C243 0.930 . S
H236 C246 0.930 . S
H237 C247 0.930 . S
C238 H232 0.930 . S
C238 C239 1.355 . S
C238 C240 1.415 1_554 S
C239 C238 1.355 . S
C239 C241 1.419 . S
C240 C238 1.415 1_556 S
C240 C245 1.425 . S
C240 C247 1.409 . S
C241 H233 0.930 . S
C241 C239 1.419 . S
C241 C242 1.362 1_554 S
C242 H234 0.930 . S
C242 C241 1.362 1_556 S
C242 C245 1.409 . S
C243 H235 0.930 . S
C243 C244 1.355 . S
C243 C245 1.415 . S
C244 C243 1.355 . S
C244 C246 1.419 . S
C245 C240 1.425 . S
C245 C242 1.409 . S
C245 C243 1.415 . S
C246 H236 0.930 . S
C246 C244 1.419 . S
C246 C247 1.362 . S
C247 H237 0.930 . S
C247 C240 1.409 . S
C247 C246 1.362 . S
H248 C254 0.930 . S
H249 C257 0.930 . S
H250 C258 0.930 . S
H251 C259 0.930 . S
H252 C262 0.930 . S
H253 C263 0.930 . S
C254 H248 0.930 . S
C254 C255 1.355 . S
C254 C256 1.415 . S
C255 C254 1.355 . S
C255 C257 1.419 . S
C256 C254 1.415 . S
C256 C261 1.425 . S
C256 C263 1.409 . S
C257 H249 0.930 . S
C257 C255 1.419 . S
C257 C258 1.362 . S
C258 H250 0.930 . S
C258 C257 1.362 . S
C258 C261 1.409 . S
C259 H251 0.930 . S
C259 C260 1.355 . S
C259 C261 1.415 . S
C260 C259 1.355 . S
C260 C262 1.419 . S
C261 C256 1.425 . S
C261 C258 1.409 . S
C261 C259 1.415 . S
C262 H252 0.930 . S
C262 C260 1.419 . S
C262 C263 1.362 . S
C263 H253 0.930 . S
C263 C256 1.409 . S
C263 C262 1.362 . S
H264 C270 0.930 . S
H265 C273 0.930 . S
H266 C274 0.930 . S
H267 C275 0.930 . S
H268 C278 0.930 . S
H269 C279 0.930 . S
C270 H264 0.930 . S
C270 C271 1.355 . S
C270 C272 1.415 . S
C271 C270 1.355 . S
C271 C273 1.419 . S
C272 C270 1.415 . S
C272 C277 1.425 . S
C272 C279 1.409 . S
C273 H265 0.930 . S
C273 C271 1.419 . S
C273 C274 1.362 . S
C274 H266 0.930 . S
C274 C273 1.362 . S
C274 C277 1.409 . S
C275 H267 0.930 . S
C275 C276 1.355 . S
C275 C277 1.415 . S
C276 C275 1.355 . S
C276 C278 1.419 . S
C277 C272 1.425 . S
C277 C274 1.409 . S
C277 C275 1.415 . S
C278 H268 0.930 . S
C278 C276 1.419 . S
C278 C279 1.362 . S
C279 H269 0.930 . S
C279 C272 1.409 . S
C279 C278 1.362 . S
H280 C286 0.930 1_556 S
H281 C289 0.930 1_556 S
H282 C290 0.930 . S
H283 C291 0.930 . S
H284 C294 0.930 . S
H285 C295 0.930 . S
C286 H280 0.930 1_554 S
C286 C287 1.355 1_554 S
C286 C288 1.415 . S
C287 C286 1.355 1_556 S
C287 C289 1.419 1_556 S
C288 C286 1.415 . S
C288 C293 1.425 . S
C288 C295 1.409 . S
C289 H281 0.930 1_554 S
C289 C287 1.419 1_554 S
C289 C290 1.362 . S
C290 H282 0.930 . S
C290 C289 1.362 . S
C290 C293 1.409 . S
C291 H283 0.930 . S
C291 C292 1.355 . S
C291 C293 1.415 . S
C292 C291 1.355 . S
C292 C294 1.419 . S
C293 C288 1.425 . S
C293 C290 1.409 . S
C293 C291 1.415 . S
C294 H284 0.930 . S
C294 C292 1.419 . S
C294 C295 1.362 . S
C295 H285 0.930 . S
C295 C288 1.409 . S
C295 C294 1.362 . S
H296 C302 0.930 . S
H297 C305 0.930 . S
H298 C306 0.930 . S
H299 C307 0.930 . S
H300 C310 0.930 . S
H301 C311 0.930 . S
C302 H296 0.930 . S
C302 C303 1.355 . S
C302 C304 1.415 . S
C303 C302 1.355 . S
C303 C305 1.419 . S
C304 C302 1.415 . S
C304 C309 1.425 . S
C304 C311 1.409 . S
C305 H297 0.930 . S
C305 C303 1.419 . S
C305 C306 1.362 . S
C306 H298 0.930 . S
C306 C305 1.362 . S
C306 C309 1.409 . S
C307 H299 0.930 . S
C307 C308 1.355 . S
C307 C309 1.415 . S
C308 C307 1.355 . S
C308 C310 1.419 . S
C309 C304 1.425 . S
C309 C306 1.409 . S
C309 C307 1.415 . S
C310 H300 0.930 . S
C310 C308 1.419 . S
C310 C311 1.362 . S
C311 H301 0.930 . S
C311 C304 1.409 . S
C311 C310 1.362 . S
H312 C318 0.930 . S
H313 C321 0.930 . S
H314 C322 0.930 . S
H315 C323 0.930 . S
H316 C326 0.930 . S
H317 C327 0.930 . S
C318 H312 0.930 . S
C318 C319 1.355 . S
C318 C320 1.415 . S
C319 C318 1.355 . S
C319 C321 1.419 . S
C320 C318 1.415 . S
C320 C325 1.425 . S
C320 C327 1.409 . S
C321 H313 0.930 . S
C321 C319 1.419 . S
C321 C322 1.362 . S
C322 H314 0.930 . S
C322 C321 1.362 . S
C322 C325 1.409 . S
C323 H315 0.930 . S
C323 C324 1.355 . S
C323 C325 1.415 . S
C324 C323 1.355 . S
C324 C326 1.419 . S
C325 C320 1.425 . S
C325 C322 1.409 . S
C325 C323 1.415 . S
C326 H316 0.930 . S
C326 C324 1.419 . S
C326 C327 1.362 . S
C327 H317 0.930 . S
C327 C320 1.409 . S
C327 C326 1.362 . S
H328 C334 0.930 . S
H329 C337 0.930 . S
H330 C338 0.930 . S
H331 C339 0.930 . S
H332 C342 0.930 . S
H333 C343 0.930 . S
C334 H328 0.930 . S
C334 C335 1.355 . S
C334 C336 1.415 . S
C335 C334 1.355 . S
C335 C337 1.419 . S
C336 C334 1.415 . S
C336 C341 1.425 . S
C336 C343 1.409 . S
C337 H329 0.930 . S
C337 C335 1.419 . S
C337 C338 1.362 . S
C338 H330 0.930 . S
C338 C337 1.362 . S
C338 C341 1.409 . S
C339 H331 0.930 . S
C339 C340 1.355 . S
C339 C341 1.415 . S
C340 C339 1.355 . S
C340 C342 1.419 . S
C341 C336 1.425 . S
C341 C338 1.409 . S
C341 C339 1.415 . S
C342 H332 0.930 . S
C342 C340 1.419 . S
C342 C343 1.362 . S
C343 H333 0.930 . S
C343 C336 1.409 . S
C343 C342 1.362 . S
H344 C350 0.930 . S
H345 C353 0.930 . S
H346 C354 0.930 . S
H347 C355 0.930 . S
H348 C358 0.930 . S
H349 C359 0.930 . S
C350 H344 0.930 . S
C350 C351 1.355 . S
C350 C352 1.415 . S
C351 C350 1.355 . S
C351 C353 1.419 . S
C352 C350 1.415 . S
C352 C357 1.425 . S
C352 C359 1.409 . S
C353 H345 0.930 . S
C353 C351 1.419 . S
C353 C354 1.362 . S
C354 H346 0.930 . S
C354 C353 1.362 . S
C354 C357 1.409 . S
C355 H347 0.930 . S
C355 C356 1.355 . S
C355 C357 1.415 . S
C356 C355 1.355 . S
C356 C358 1.419 . S
C357 C352 1.425 . S
C357 C354 1.409 . S
C357 C355 1.415 . S
C358 H348 0.930 . S
C358 C356 1.419 . S
C358 C359 1.362 . S
C359 H349 0.930 . S
C359 C352 1.409 . S
C359 C358 1.362 . S
H360 C366 0.930 . S
H361 C369 0.930 . S
H362 C370 0.930 . S
H363 C371 0.930 . S
H364 C374 0.930 . S
H365 C375 0.930 . S
C366 H360 0.930 . S
C366 C367 1.355 . S
C366 C368 1.415 . S
C367 C366 1.355 . S
C367 C369 1.419 . S
C368 C366 1.415 . S
C368 C373 1.425 . S
C368 C375 1.409 . S
C369 H361 0.930 . S
C369 C367 1.419 . S
C369 C370 1.362 . S
C370 H362 0.930 . S
C370 C369 1.362 . S
C370 C373 1.409 . S
C371 H363 0.930 . S
C371 C372 1.355 . S
C371 C373 1.415 . S
C372 C371 1.355 . S
C372 C374 1.419 . S
C373 C368 1.425 . S
C373 C370 1.409 . S
C373 C371 1.415 . S
C374 H364 0.930 . S
C374 C372 1.419 . S
C374 C375 1.362 . S
C375 H365 0.930 . S
C375 C368 1.409 . S
C375 C374 1.362 . S
H376 C382 0.930 . S
H377 C385 0.930 . S
H378 C386 0.930 . S
H379 C387 0.930 . S
H380 C390 0.930 . S
H381 C391 0.930 . S
C382 H376 0.930 . S
C382 C383 1.355 . S
C382 C384 1.415 . S
C383 C382 1.355 . S
C383 C385 1.419 . S
C384 C382 1.415 . S
C384 C389 1.425 . S
C384 C391 1.409 . S
C385 H377 0.930 . S
C385 C383 1.419 . S
C385 C386 1.362 . S
C386 H378 0.930 . S
C386 C385 1.362 . S
C386 C389 1.409 . S
C387 H379 0.930 . S
C387 C388 1.355 . S
C387 C389 1.415 . S
C388 C387 1.355 . S
C388 C390 1.419 . S
C389 C384 1.425 . S
C389 C386 1.409 . S
C389 C387 1.415 . S
C390 H380 0.930 . S
C390 C388 1.419 . S
C390 C391 1.362 . S
C391 H381 0.930 . S
C391 C384 1.409 . S
C391 C390 1.362 . S
H392 C398 0.930 . S
H393 C401 0.930 . S
H394 C402 0.930 . S
H395 C403 0.930 . S
H396 C406 0.930 . S
H397 C407 0.930 . S
C398 H392 0.930 . S
C398 C399 1.355 . S
C398 C400 1.415 . S
C399 C398 1.355 . S
C399 C401 1.419 . S
C400 C398 1.415 . S
C400 C405 1.425 . S
C400 C407 1.409 . S
C401 H393 0.930 . S
C401 C399 1.419 . S
C401 C402 1.362 . S
C402 H394 0.930 . S
C402 C401 1.362 . S
C402 C405 1.409 . S
C403 H395 0.930 . S
C403 C404 1.355 . S
C403 C405 1.415 . S
C404 C403 1.355 . S
C404 C406 1.419 . S
C405 C400 1.425 . S
C405 C402 1.409 . S
C405 C403 1.415 . S
C406 H396 0.930 . S
C406 C404 1.419 . S
C406 C407 1.362 . S
C407 H397 0.930 . S
C407 C400 1.409 . S
C407 C406 1.362 . S
C127 C118 1.574 . S
C132 C18 1.574 . S
C143 C8 1.516 . S
C148 C28 1.464 . S
C159 C38 1.573 . S
C164 C58 1.574 . S
C175 C48 1.514 1_554 S
C180 C68 1.451 . S
C191 C98 1.574 . S
C196 C78 1.574 . S
C207 C108 1.515 . S
C212 C88 1.453 . S
C223 C2 1.261 1_556 S
C228 C1 1.261 . S
C239 C21 1.226 . S
C244 C22 1.226 . S
C255 C42 1.248 . S
C260 C41 1.248 . S
C271 C61 1.274 . S
C276 C62 1.274 . S
C287 C81 1.273 . S
C292 C82 1.273 . S
C303 C101 1.224 . S
C308 C102 1.224 . S
C319 C19 1.625 . S
C324 C89 1.627 . S
C335 C29 1.626 . S
C340 C119 1.600 . S
C351 C9 1.636 . S
C356 C59 1.633 . S
C367 C39 1.594 . S
C372 C69 1.633 . S
C383 C99 1.611 . S
C388 C49 1.640 . S
C399 C79 1.596 . S
C404 C109 1.633 . S
