# Generated by pormake.
# Topology ukh, (4)-cn, num edge types: 1
# Building blocks:
#     Node 0, Type 0, BuildingBlock: ICAMEG_clean_sbu_1, # of connection points: 4
#     Node 1, Type 0, BuildingBlock: ICAMEG_clean_sbu_1, # of connection points: 4
#     Node 2, Type 0, BuildingBlock: ICAMEG_clean_sbu_1, # of connection points: 4
#     Node 3, Type 0, BuildingBlock: ICAMEG_clean_sbu_1, # of connection points: 4
#     Node 4, Type 0, BuildingBlock: ICAMEG_clean_sbu_1, # of connection points: 4
#     Node 5, Type 0, BuildingBlock: ICAMEG_clean_sbu_1, # of connection points: 4
#     Node 6, Type 0, BuildingBlock: ICAMEG_clean_sbu_1, # of connection points: 4
#     Node 7, Type 0, BuildingBlock: ICAMEG_clean_sbu_1, # of connection points: 4
#     Node 8, Type 0, BuildingBlock: ICAMEG_clean_sbu_1, # of connection points: 4
#     Node 9, Type 0, BuildingBlock: ICAMEG_clean_sbu_1, # of connection points: 4
#     Node 10, Type 0, BuildingBlock: ICAMEG_clean_sbu_1, # of connection points: 4
#     Node 11, Type 0, BuildingBlock: ICAMEG_clean_sbu_1, # of connection points: 4
#     Edge 12, Type (0, 0), BuildingBlock: OJICUG_clean_linker_0, # of connection points: 2
#     Edge 13, Type (0, 0), BuildingBlock: OJICUG_clean_linker_0, # of connection points: 2
#     Edge 14, Type (0, 0), BuildingBlock: OJICUG_clean_linker_0, # of connection points: 2
#     Edge 15, Type (0, 0), BuildingBlock: OJICUG_clean_linker_0, # of connection points: 2
#     Edge 16, Type (0, 0), BuildingBlock: OJICUG_clean_linker_0, # of connection points: 2
#     Edge 17, Type (0, 0), BuildingBlock: OJICUG_clean_linker_0, # of connection points: 2
#     Edge 18, Type (0, 0), BuildingBlock: OJICUG_clean_linker_0, # of connection points: 2
#     Edge 19, Type (0, 0), BuildingBlock: OJICUG_clean_linker_0, # of connection points: 2
#     Edge 20, Type (0, 0), BuildingBlock: OJICUG_clean_linker_0, # of connection points: 2
#     Edge 21, Type (0, 0), BuildingBlock: OJICUG_clean_linker_0, # of connection points: 2
#     Edge 22, Type (0, 0), BuildingBlock: OJICUG_clean_linker_0, # of connection points: 2
#     Edge 23, Type (0, 0), BuildingBlock: OJICUG_clean_linker_0, # of connection points: 2
#     Edge 24, Type (0, 0), BuildingBlock: OJICUG_clean_linker_0, # of connection points: 2
#     Edge 25, Type (0, 0), BuildingBlock: OJICUG_clean_linker_0, # of connection points: 2
#     Edge 26, Type (0, 0), BuildingBlock: OJICUG_clean_linker_0, # of connection points: 2
#     Edge 27, Type (0, 0), BuildingBlock: OJICUG_clean_linker_0, # of connection points: 2
#     Edge 28, Type (0, 0), BuildingBlock: OJICUG_clean_linker_0, # of connection points: 2
#     Edge 29, Type (0, 0), BuildingBlock: OJICUG_clean_linker_0, # of connection points: 2
#     Edge 30, Type (0, 0), BuildingBlock: OJICUG_clean_linker_0, # of connection points: 2
#     Edge 31, Type (0, 0), BuildingBlock: OJICUG_clean_linker_0, # of connection points: 2
#     Edge 32, Type (0, 0), BuildingBlock: OJICUG_clean_linker_0, # of connection points: 2
#     Edge 33, Type (0, 0), BuildingBlock: OJICUG_clean_linker_0, # of connection points: 2
#     Edge 34, Type (0, 0), BuildingBlock: OJICUG_clean_linker_0, # of connection points: 2
#     Edge 35, Type (0, 0), BuildingBlock: OJICUG_clean_linker_0, # of connection points: 2
# Relax obj value: 0.031
# Max RMSD: 0.046
# Mean RMSD: 0.046
data_MOF--net-ukh--node1-ICAMEG_clean_sbu_1--edge1-OJICUG_clean_linker_0
_symmetry_space_group_name_H-M    P1
_symmetry_Int_Tables_number       1
_symmetry_cell_setting            triclinic
loop_
_symmetry_equiv_pos_as_xyz
'x, y, z'
_cell_length_a     25.334673
_cell_length_b     25.339754
_cell_length_c     52.225527
_cell_angle_alpha  89.994407
_cell_angle_beta   89.99368
_cell_angle_gamma 120.00205
loop_
_atom_site_label
_atom_site_type_symbol
_atom_site_fract_x
_atom_site_fract_y
_atom_site_fract_z
_atom_type_partial_charge
Co0 Co 0.36026 0.25337 0.02571 0.0
Co1 Co 0.24905 0.19726 0.07283 0.0
O2 O 0.33466 0.24366 0.06191 0.0
C3 C 0.41946 0.37985 0.0457 0.0
O4 O 0.36878 0.36465 0.05806 0.0
C5 C 0.32003 0.17555 0.11436 0.0
O6 O 0.37123 0.20365 0.10144 0.0
O7 O 0.23718 0.12457 0.05256 0.0
O8 O 0.29647 0.16672 0.01795 0.0
H9 H 0.0242 0.06699 0.05677 0.0
H10 H 0.4553 0.2893 0.06565 0.0
O11 O 0.42429 0.34075 0.03209 0.0
H12 H 0.45996 0.12519 0.01677 0.0
H13 H 0.51487 0.32884 0.95443 0.0
H14 H 0.29616 0.21413 0.97582 0.0
H15 H 0.38804 0.16006 0.00515 0.0
H16 H 0.48101 0.31475 0.99944 0.0
O17 O 0.27004 0.16568 0.10427 0.0
H18 H 0.13311 0.12139 0.04509 0.0
H19 H 0.1819 0.17414 0.12256 0.0
H20 H 0.32788 0.22673 0.93056 0.0
H21 H 0.52851 0.25633 0.07775 0.0
H22 H 0.43804 0.28451 0.91962 0.0
H23 H 0.53101 0.17357 0.05327 0.0
O24 O 0.30197 0.28093 0.01608 0.0
H25 H 0.36059 0.37836 0.13163 0.0
H26 H 0.17603 0.25898 0.07956 0.0
H27 H 0.18883 0.34852 0.10329 0.0
H28 H 0.28145 0.40873 0.12978 0.0
H29 H 0.34682 0.28978 0.10712 0.0
H30 H 0.07369 0.11826 0.13523 0.0
H31 H 0.99389 0.0654 0.10211 0.0
O32 O 0.22387 0.2281 0.04304 0.0
C33 C 0.25453 0.12088 0.02991 0.0
C34 C 0.05857 0.09 0.07137 0.0
C35 C 0.08634 0.11864 0.11541 0.0
N36 N 0.16397 0.15088 0.08312 0.0
C37 C 0.12033 0.12088 0.06487 0.0
C38 C 0.14763 0.14954 0.10817 0.0
C39 C 0.04159 0.08909 0.09681 0.0
C40 C 0.4564 0.25353 0.05482 0.0
N41 N 0.41736 0.22656 0.03478 0.0
C42 C 0.49782 0.23492 0.0618 0.0
C43 C 0.49914 0.18843 0.04807 0.0
C44 C 0.45924 0.16122 0.02762 0.0
C45 C 0.4184 0.18096 0.0212 0.0
C46 C 0.46674 0.30359 0.95895 0.0
C47 C 0.34407 0.23918 0.97122 0.0
C48 C 0.44727 0.2956 0.9844 0.0
N49 N 0.38657 0.26356 0.99026 0.0
C50 C 0.36182 0.24624 0.94555 0.0
C51 C 0.42362 0.27868 0.93943 0.0
C52 C 0.24831 0.26361 0.02411 0.0
C53 C 0.31971 0.35214 0.12038 0.0
C54 C 0.21666 0.28497 0.09089 0.0
C55 C 0.22353 0.3356 0.10438 0.0
C56 C 0.27543 0.3693 0.11926 0.0
N57 N 0.25999 0.26789 0.09222 0.0
C58 C 0.31124 0.30119 0.10664 0.0
Co59 Co 0.08651 0.33352 0.3588 0.0
Co60 Co 0.05098 0.23552 0.41003 0.0
O61 O 0.08358 0.31798 0.39593 0.0
C62 C 0.02482 0.39726 0.38002 0.0
O63 O 0.99339 0.34989 0.39484 0.0
C64 C 0.14917 0.31778 0.44798 0.0
O65 O 0.16533 0.36752 0.43468 0.0
O66 O 0.10881 0.22273 0.38807 0.0
O67 O 0.10827 0.26878 0.3514 0.0
H68 H 0.96315 0.00915 0.40259 0.0
H69 H 0.15782 0.43777 0.39357 0.0
O70 O 0.0646 0.39868 0.36468 0.0
H71 H 0.30908 0.43199 0.33595 0.0
H72 H 0.13843 0.46617 0.2804 0.0
H73 H 0.04249 0.25521 0.3126 0.0
H74 H 0.19969 0.35713 0.33132 0.0
H75 H 0.13562 0.4458 0.32671 0.0
O76 O 0.11136 0.26555 0.4389 0.0
H77 H 0.00964 0.11451 0.38657 0.0
H78 H 0.02281 0.18007 0.46249 0.0
H79 H 0.04468 0.27349 0.26614 0.0
H80 H 0.26678 0.51393 0.39873 0.0
H81 H 0.09294 0.37964 0.24975 0.0
H82 H 0.34325 0.51124 0.36981 0.0
O83 O 0.99844 0.27266 0.35513 0.0
H84 H 0.98698 0.35453 0.46736 0.0
H85 H 0.9195 0.15868 0.4239 0.0
H86 H 0.84621 0.17251 0.44968 0.0
H87 H 0.87985 0.27087 0.47193 0.0
H88 H 0.05793 0.3395 0.44076 0.0
H89 H 0.97946 0.07575 0.47943 0.0
H90 H 0.94809 0.98919 0.44935 0.0
O91 O 0.98773 0.20072 0.38291 0.0
C92 C 0.12058 0.23324 0.36414 0.0
C93 C 0.97687 0.04649 0.41591 0.0
C94 C 0.98602 0.08387 0.45902 0.0
N95 N 0.01912 0.15358 0.42355 0.0
C96 C 1.00306 0.10628 0.40694 0.0
C97 C 0.01134 0.14299 0.44933 0.0
C98 C 0.96832 0.03532 0.44213 0.0
C99 C 0.19083 0.43653 0.38084 0.0
N100 N 0.17243 0.39308 0.3622 0.0
C101 C 0.25246 0.47966 0.38389 0.0
C102 C 0.29534 0.47808 0.36767 0.0
C103 C 0.27621 0.4336 0.34869 0.0
C104 C 0.21421 0.39117 0.34623 0.0
C105 C 0.1174 0.41973 0.28729 0.0
C106 C 0.06391 0.30153 0.30561 0.0
C107 C 0.11558 0.40791 0.3135 0.0
N108 N 0.08936 0.34938 0.32233 0.0
C109 C 0.06486 0.3116 0.27928 0.0
C110 C 0.09188 0.37115 0.27011 0.0
C111 C 0.96796 0.21961 0.3648 0.0
C112 C 0.97189 0.31116 0.45803 0.0
C113 C 0.93467 0.20178 0.43324 0.0
C114 C 0.89287 0.20926 0.44798 0.0
C115 C 0.91176 0.26435 0.46049 0.0
N116 N 0.99397 0.24757 0.43108 0.0
C117 C 0.01241 0.30197 0.44313 0.0
Co118 Co 0.75419 0.10584 0.69241 0.0
Co119 Co 0.81074 0.05295 0.74023 0.0
O120 O 0.76422 0.09163 0.72879 0.0
C121 C 0.62778 0.03897 0.71252 0.0
O122 O 0.64312 1.00404 0.72521 0.0
C123 C 0.83247 0.14694 0.78125 0.0
O124 O 0.80333 0.16904 0.76841 0.0
O125 O 0.88322 0.1128 0.71956 0.0
O126 O 0.84086 0.12877 0.68474 0.0
H127 H 0.94196 0.9589 0.72548 0.0
H128 H 0.71843 0.16635 0.73176 0.0
O129 O 0.66678 0.08247 0.69869 0.0
H130 H 0.88137 0.33334 0.68166 0.0
H131 H 0.67767 0.18106 0.62006 0.0
H132 H 0.79345 0.07906 0.64293 0.0
H133 H 0.84684 0.22616 0.67094 0.0
H134 H 0.6922 0.16354 0.66531 0.0
O135 O 0.8428 0.10708 0.7712 0.0
H136 H 0.88668 0.01206 0.71311 0.0
H137 H 0.83419 0.01092 0.79042 0.0
H138 H 0.7804 0.09595 0.59744 0.0
H139 H 0.7511 0.27294 0.74298 0.0
H140 H 0.72208 0.1473 0.58575 0.0
H141 H 0.83325 0.3573 0.71787 0.0
O142 O 0.72685 0.01965 0.68349 0.0
H143 H 0.62963 0.98615 0.79887 0.0
H144 H 0.74977 0.91874 0.74864 0.0
H145 H 0.66048 0.84319 0.77287 0.0
H146 H 0.59989 0.87675 0.79845 0.0
H147 H 0.71789 0.05967 0.77385 0.0
H148 H 0.89097 0.96001 0.80378 0.0
H149 H 0.94419 0.93236 0.77109 0.0
O150 O 0.77948 0.99535 0.71097 0.0
C151 C 0.88679 0.13316 0.69678 0.0
C152 C 0.91886 0.97064 0.7399 0.0
C153 C 0.89037 0.97139 0.78384 0.0
N154 N 0.85736 0.01486 0.75103 0.0
C155 C 0.88746 1.00074 0.73301 0.0
C156 C 0.85898 1.001 0.77622 0.0
C157 C 0.92012 0.95578 0.76549 0.0
C158 C 0.75395 0.20283 0.72066 0.0
N159 N 0.78075 0.19005 0.70077 0.0
C160 C 0.77238 0.26308 0.72714 0.0
C161 C 0.81853 0.3104 0.71307 0.0
C162 C 0.8456 0.29699 0.69277 0.0
C163 C 0.82604 0.23619 0.68687 0.0
C164 C 0.70315 0.15862 0.62491 0.0
C165 C 0.76816 0.1015 0.638 0.0
C166 C 0.71139 0.14841 0.6505 0.0
N167 N 0.74371 0.12029 0.65677 0.0
C168 C 0.76086 0.11092 0.61221 0.0
C169 C 0.72811 0.1397 0.60567 0.0
C170 C 0.74405 0.98355 0.69194 0.0
C171 C 0.65601 0.97101 0.78802 0.0
C172 C 0.72357 0.93386 0.75953 0.0
C173 C 0.6731 0.89079 0.77333 0.0
C174 C 0.6392 0.90963 0.7877 0.0
N175 N 0.74032 0.99423 0.76006 0.0
C176 C 0.70682 0.01279 0.77399 0.0
Co177 Co 0.67956 0.75457 0.02613 0.0
Co178 Co 0.77827 0.81774 0.07717 0.0
O179 O 0.69563 0.7676 0.06322 0.0
C180 C 0.61622 0.62919 0.04756 0.0
O181 O 0.66339 0.64539 0.06253 0.0
C182 C 0.69632 0.83488 0.11484 0.0
O183 O 0.64654 0.80093 0.10161 0.0
O184 O 0.79114 0.88798 0.05495 0.0
O185 O 0.74389 0.84107 0.01852 0.0
H186 H 1.0047 0.95583 0.06934 0.0
H187 H 0.5756 0.72133 0.06112 0.0
O188 O 0.61475 0.6674 0.03216 0.0
H189 H 0.57988 0.87765 0.00353 0.0
H190 H 0.54588 0.6728 0.94807 0.0
H191 H 0.75728 0.7887 0.97974 0.0
H192 H 0.65507 0.84359 0.99871 0.0
H193 H 0.56684 0.69078 0.99433 0.0
O194 O 0.74851 0.84886 0.10585 0.0
H195 H 0.89928 0.89626 0.05345 0.0
H196 H 0.83393 0.84692 0.12959 0.0
H197 H 0.73838 0.77217 0.93332 0.0
H198 H 0.49912 0.75364 0.06647 0.0
H199 H 0.63201 0.71384 0.91721 0.0
H200 H 0.50106 0.83244 0.03756 0.0
O201 O 0.74065 0.7277 0.02235 0.0
H202 H 0.65955 0.63623 0.13529 0.0
H203 H 0.8551 0.76336 0.09133 0.0
H204 H 0.84141 0.6769 0.11754 0.0
H205 H 0.74321 0.61282 0.14004 0.0
H206 H 0.67445 0.72159 0.10828 0.0
H207 H 0.93833 0.90865 0.14637 0.0
H208 H 0.0248 0.96278 0.11612 0.0
O209 O 0.81269 0.78849 0.0502 0.0
C210 C 0.77998 0.88902 0.03109 0.0
C211 C 0.9674 0.93268 0.08272 0.0
C212 C 0.93015 0.9062 0.12594 0.0
N213 N 0.86032 0.86806 0.09054 0.0
C214 C 0.90758 0.89866 0.07383 0.0
C215 C 0.87099 0.87191 0.11634 0.0
C216 C 0.97865 0.93645 0.10897 0.0
C217 C 0.57651 0.75541 0.0484 0.0
N218 N 0.61974 0.78054 0.02966 0.0
C219 C 0.5332 0.77364 0.05156 0.0
C220 C 0.53435 0.8179 0.03535 0.0
C221 C 0.5786 0.84332 0.01626 0.0
C222 C 0.62122 0.82403 0.0137 0.0
C223 C 0.59242 0.6984 0.95485 0.0
C224 C 0.71086 0.7636 0.97287 0.0
C225 C 0.60457 0.70863 0.98103 0.0
N226 N 0.66323 0.74119 0.98971 0.0
C227 C 0.70045 0.75424 0.94657 0.0
C228 C 0.64077 0.72145 0.93755 0.0
C229 C 0.79364 0.74993 0.03205 0.0
C230 C 0.70285 0.66424 0.12584 0.0
C231 C 0.81207 0.73572 0.10079 0.0
C232 C 0.80468 0.68681 0.11577 0.0
C233 C 0.74966 0.65095 0.12841 0.0
N234 N 0.76628 0.74918 0.09853 0.0
C235 C 0.71196 0.71357 0.11071 0.0
Co236 Co 0.90701 0.65476 0.35891 0.0
Co237 Co 0.95783 0.76234 0.40747 0.0
O238 O 0.91959 0.67759 0.39546 0.0
C239 C 0.97339 0.59477 0.37903 0.0
O240 O 0.00789 0.64465 0.39203 0.0
C241 C 0.86245 0.68871 0.44786 0.0
O242 O 0.84124 0.63764 0.43497 0.0
O243 O 0.89897 0.77588 0.38646 0.0
O244 O 0.88411 0.71853 0.35141 0.0
H245 H 0.0542 0.98826 0.39412 0.0
H246 H 0.84505 0.55713 0.39761 0.0
O247 O 0.9303 0.59065 0.36504 0.0
H248 H 0.67991 0.55422 0.34654 0.0
H249 H 0.8352 0.50604 0.28548 0.0
H250 H 0.93605 0.72283 0.3099 0.0
H251 H 0.78748 0.62745 0.33665 0.0
H252 H 0.85062 0.5362 0.33097 0.0
O253 O 0.90224 0.73918 0.43799 0.0
H254 H 1.00065 0.88032 0.38104 0.0
H255 H 0.99709 0.82572 0.45819 0.0
H256 H 0.92124 0.69478 0.26419 0.0
H257 H 0.73806 0.48264 0.40799 0.0
H258 H 0.87049 0.58562 0.25172 0.0
H259 H 0.65461 0.48099 0.38239 0.0
O260 O 0.99353 0.71411 0.35067 0.0
H261 H 0.02173 0.64495 0.46572 0.0
H262 H 0.09151 0.83546 0.41742 0.0
H263 H 0.1658 0.82054 0.44203 0.0
H264 H 0.13103 0.72489 0.46665 0.0
H265 H 0.94956 0.66091 0.44032 0.0
H266 H 0.04812 0.93289 0.47225 0.0
H267 H 0.07843 0.01514 0.44001 0.0
O268 O 0.01685 0.7898 0.37867 0.0
C269 C 0.87922 0.75962 0.36357 0.0
C270 C 0.04128 0.95282 0.40835 0.0
C271 C 0.03775 0.92174 0.4522 0.0
N272 N 0.99552 0.8466 0.41883 0.0
C273 C 0.01098 0.89159 0.40105 0.0
C274 C 0.00804 0.86104 0.44417 0.0
C275 C 0.05485 0.96787 0.4341 0.0
C276 C 0.80899 0.55643 0.3863 0.0
N277 N 0.8225 0.59663 0.36659 0.0
C278 C 0.74849 0.51428 0.39231 0.0
C279 C 0.7017 0.51343 0.37796 0.0
C280 C 0.71585 0.55455 0.35786 0.0
C281 C 0.77686 0.5961 0.35242 0.0
C282 C 0.85737 0.55375 0.29067 0.0
C283 C 0.9138 0.6753 0.30463 0.0
C284 C 0.86638 0.57112 0.3164 0.0
N285 N 0.89416 0.63129 0.32309 0.0
C286 C 0.90559 0.65966 0.27871 0.0
C287 C 0.87715 0.59842 0.27174 0.0
C288 C 0.02934 0.76708 0.35951 0.0
C289 C 0.03738 0.68711 0.45529 0.0
C290 C 0.07588 0.79348 0.42785 0.0
C291 C 0.11824 0.78542 0.44189 0.0
C292 C 0.09872 0.73184 0.45572 0.0
N293 N 0.01554 0.7497 0.42763 0.0
C294 C 0.99634 0.69683 0.44104 0.0
Co295 Co 0.25291 0.92351 0.69251 0.0
Co296 Co 0.19087 0.9612 0.7434 0.0
O297 O 0.24034 0.92785 0.72955 0.0
C298 C 0.37842 0.98634 0.71372 0.0
O299 O 0.36229 0.01787 0.72837 0.0
C300 C 0.17293 0.86204 0.78111 0.0
O301 O 0.20601 0.84548 0.76767 0.0
O302 O 0.12027 0.90414 0.72124 0.0
O303 O 0.1664 0.90122 0.68497 0.0
H304 H 0.05428 0.05117 0.73524 0.0
H305 H 0.28684 0.85407 0.72794 0.0
O306 O 0.34014 0.94608 0.69852 0.0
H307 H 0.12918 0.69995 0.67144 0.0
H308 H 0.33372 0.86853 0.61501 0.0
H309 H 0.21805 0.96509 0.64571 0.0
H310 H 0.16323 0.809 0.6659 0.0
H311 H 0.31642 0.87349 0.66122 0.0
O312 O 0.15929 0.90058 0.77221 0.0
H313 H 0.11328 0.00453 0.71951 0.0
H314 H 0.16215 0.98867 0.79574 0.0
H315 H 0.23388 0.96073 0.59935 0.0
H316 H 0.25456 0.74549 0.734 0.0
H317 H 0.29209 0.91215 0.58372 0.0
H318 H 0.17508 0.66758 0.70565 0.0
O319 O 0.27971 0.01128 0.6881 0.0
H320 H 0.37249 0.02268 0.80129 0.0
H321 H 0.2461 0.09242 0.75767 0.0
H322 H 0.33308 0.16479 0.78376 0.0
H323 H 0.3968 0.13 0.80608 0.0
H324 H 0.28664 0.95263 0.77441 0.0
H325 H 0.10119 0.03238 0.81235 0.0
H326 H 0.04764 0.06508 0.78197 0.0
O327 O 0.22088 0.02471 0.71633 0.0
C328 C 0.11883 0.89076 0.6975 0.0
C329 C 0.07726 0.03696 0.74867 0.0
C330 C 0.10357 0.02638 0.79195 0.0
N331 N 0.1412 0.9938 0.75666 0.0
C332 C 0.11093 0.01068 0.73988 0.0
C333 C 0.13741 1.00092 0.78244 0.0
C334 C 0.07364 0.04483 0.77489 0.0
C335 C 0.25247 0.82043 0.71545 0.0
N336 N 0.22694 0.83785 0.69663 0.0
C337 C 0.23426 0.75902 0.71901 0.0
C338 C 0.18961 0.71533 0.70312 0.0
C339 C 0.1638 0.73345 0.68394 0.0
C340 C 0.18309 0.79527 0.68096 0.0
C341 C 0.30818 0.8897 0.62158 0.0
C342 C 0.24311 0.94356 0.63906 0.0
C343 C 0.29833 0.89275 0.64772 0.0
N344 N 0.26585 0.91914 0.65614 0.0
C345 C 0.25208 0.94138 0.61278 0.0
C346 C 0.2848 0.91417 0.60403 0.0
C347 C 0.2586 0.043 0.69785 0.0
C348 C 0.34467 0.03827 0.7919 0.0
C349 C 0.27364 0.07678 0.76703 0.0
C350 C 0.32282 0.11805 0.78195 0.0
C351 C 0.35846 0.09851 0.7945 0.0
N352 N 0.25972 0.01741 0.76472 0.0
C353 C 0.29508 0.9983 0.77684 0.0
Co354 Co 0.75399 0.67416 0.64667 0.0
Co355 Co 0.81557 0.77373 0.59573 0.0
O356 O 0.76633 0.69093 0.60961 0.0
C357 C 0.62839 0.61138 0.62564 0.0
O358 O 0.64438 0.65905 0.61101 0.0
C359 C 0.83365 0.6927 0.55788 0.0
O360 O 0.8008 0.64294 0.57128 0.0
O361 O 0.88643 0.78735 0.61776 0.0
O362 O 0.84049 0.7385 0.6541 0.0
H363 H 0.95231 1.00026 0.6038 0.0
H364 H 0.72011 0.57077 0.61128 0.0
O365 O 0.66679 0.60941 0.64076 0.0
H366 H 0.87812 0.5747 0.66769 0.0
H367 H 0.67384 0.53871 0.7243 0.0
H368 H 0.78896 0.75081 0.6934 0.0
H369 H 0.84392 0.64959 0.67323 0.0
H370 H 0.69087 0.56076 0.67807 0.0
O371 O 0.84691 0.74474 0.56681 0.0
H372 H 0.89362 0.89462 0.61955 0.0
H373 H 0.84307 0.82998 0.54341 0.0
H374 H 0.7734 0.73082 0.73979 0.0
H375 H 0.75254 0.49459 0.60521 0.0
H376 H 0.71546 0.6241 0.75551 0.0
H377 H 0.8322 0.49636 0.63352 0.0
O378 O 0.72704 0.73503 0.6511 0.0
H379 H 0.6336 0.65329 0.53808 0.0
H380 H 0.75969 0.84936 0.58177 0.0
H381 H 0.67227 0.83443 0.55591 0.0
H382 H 0.60869 0.73594 0.53356 0.0
H383 H 0.71991 0.66941 0.56475 0.0
H384 H 0.90381 0.93463 0.52675 0.0
H385 H 0.95808 0.02084 0.55709 0.0
O386 O 0.78586 0.80729 0.6229 0.0
C387 C 0.888 0.77552 0.64151 0.0
C388 C 0.92909 0.96308 0.59038 0.0
C389 C 0.90188 0.92624 0.54715 0.0
N390 N 0.86498 0.856 0.58243 0.0
C391 C 0.89559 0.90313 0.59919 0.0
C392 C 0.86819 0.86694 0.55667 0.0
C393 C 0.9322 0.97459 0.56418 0.0
C394 C 0.75456 0.5716 0.62374 0.0
N395 N 0.78009 0.61458 0.64255 0.0
C396 C 0.77285 0.52846 0.62018 0.0
C397 C 0.8176 0.52952 0.63605 0.0
C398 C 0.84342 0.5735 0.65521 0.0
C399 C 0.82404 0.61596 0.65819 0.0
C400 C 0.69927 0.5854 0.71769 0.0
C401 C 0.76403 0.70424 0.7001 0.0
C402 C 0.70896 0.59817 0.69154 0.0
N403 N 0.7413 0.65702 0.68306 0.0
C404 C 0.75521 0.69321 0.72639 0.0
C405 C 0.72265 0.63333 0.73519 0.0
C406 C 0.74817 0.78788 0.64138 0.0
C407 C 0.66134 0.69668 0.54749 0.0
C408 C 0.73221 0.80619 0.5724 0.0
C409 C 0.68278 0.7981 0.55761 0.0
C410 C 0.64722 0.74293 0.54504 0.0
N411 N 0.74644 0.76093 0.57457 0.0
C412 C 0.71118 0.70649 0.56243 0.0
Co413 Co 0.11117 0.75522 0.98012 0.0
Co414 Co 0.05583 0.81104 0.93301 0.0
O415 O 0.0952 0.76481 0.94392 0.0
C416 C 0.04384 0.62869 0.96025 0.0
O417 O 0.00822 0.64379 0.94796 0.0
C418 C 0.14819 0.83255 0.89131 0.0
O419 O 0.17134 0.8044 0.90415 0.0
O420 O 0.11667 0.88385 0.95323 0.0
O421 O 0.13394 0.84184 0.98784 0.0
H422 H 0.96126 0.94128 0.94911 0.0
H423 H 0.1703 0.71937 0.94015 0.0
O424 O 0.08791 0.66788 0.97378 0.0
H425 H 0.33908 0.88368 0.98896 0.0
H426 H 0.19062 0.68015 0.05141 0.0
H427 H 0.08626 0.79447 0.02999 0.0
H428 H 0.23228 0.84867 1.00063 0.0
H429 H 0.17076 0.69409 0.0064 0.0
O430 O 0.1083 0.8426 0.90153 0.0
H431 H 0.01584 0.88696 0.96075 0.0
H432 H 0.0113 0.83374 0.88332 0.0
H433 H 0.10549 0.78203 0.07526 0.0
H434 H 0.27649 0.75249 0.92799 0.0
H435 H 0.15805 0.72444 0.08621 0.0
H436 H 0.36176 0.83535 0.95244 0.0
O437 O 0.0253 0.72754 0.98978 0.0
H438 H 0.98625 0.62959 0.87439 0.0
H439 H 0.92107 0.74929 0.92624 0.0
H440 H 0.84433 0.65963 0.90257 0.0
H441 H 0.87674 0.59926 0.8762 0.0
H442 H 0.06105 0.71828 0.89884 0.0
H443 H 0.95898 0.88962 0.87066 0.0
H444 H 0.93231 0.94269 0.90379 0.0
O445 O 0.99986 0.78019 0.96281 0.0
C446 C 0.13778 0.88762 0.97587 0.0
C447 C 0.97255 0.91823 0.9345 0.0
C448 C 0.9714 0.88937 0.89047 0.0
N449 N 0.01699 0.8573 0.92273 0.0
C450 C 1.00346 0.88738 0.94098 0.0
C451 C 1.00181 0.85849 0.8977 0.0
C452 C 0.95634 0.91903 0.90907 0.0
C453 C 0.20717 0.75519 0.95097 0.0
N454 N 0.19509 0.78213 0.97102 0.0
C455 C 0.2672 0.77388 0.94395 0.0
C456 C 0.31502 0.82042 0.95766 0.0
C457 C 0.30233 0.84761 0.97813 0.0
C458 C 0.24173 0.82778 0.98457 0.0
C459 C 0.16767 0.70532 0.04688 0.0
C460 C 0.10921 0.76951 0.03461 0.0
C461 C 0.15614 0.71322 0.02143 0.0
N462 N 0.12737 0.74515 0.01557 0.0
C463 C 0.11996 0.76254 0.06027 0.0
C464 C 0.14941 0.73021 0.0664 0.0
C465 C 0.98886 0.74472 0.98175 0.0
C466 C 0.9716 0.65588 0.8856 0.0
C467 C 0.93572 0.72324 0.91496 0.0
C468 C 0.89196 0.67253 0.9015 0.0
C469 C 0.91016 0.63875 0.88669 0.0
N470 N 0.99613 0.7403 0.91366 0.0
C471 C 0.01408 0.70691 0.8993 0.0
Co472 Co 0.33871 0.08659 0.31289 0.0
Co473 Co 0.23691 0.04623 0.26252 0.0
O474 O 0.32022 0.08044 0.27595 0.0
C475 C 0.4002 0.02236 0.29185 0.0
O476 O 0.35211 0.99048 0.27746 0.0
C477 C 0.31658 0.14519 0.22449 0.0
O478 O 0.36652 0.16235 0.23779 0.0
O479 O 0.22325 0.10325 0.28467 0.0
O480 O 0.27505 0.10952 0.32053 0.0
H481 H 0.01041 0.95513 0.27189 0.0
H482 H 0.44083 0.15383 0.27663 0.0
O483 O 0.40284 0.06332 0.3068 0.0
H484 H 0.44016 0.31127 0.3319 0.0
H485 H 0.47788 0.14516 0.38938 0.0
H486 H 0.26435 0.04796 0.36031 0.0
H487 H 0.365 0.20263 0.3385 0.0
H488 H 0.45359 0.13778 0.34333 0.0
O489 O 0.26469 0.10633 0.23353 0.0
H490 H 0.11654 1.00218 0.28706 0.0
H491 H 0.17916 0.01777 0.21047 0.0
H492 H 0.28658 0.05476 0.40655 0.0
H493 H 0.51727 0.26195 0.26951 0.0
H494 H 0.39404 0.10367 0.42135 0.0
H495 H 0.51714 0.34153 0.29724 0.0
O496 O 0.27769 0.99915 0.31819 0.0
H497 H 0.35671 0.98516 0.20424 0.0
H498 H 0.16122 0.91483 0.24855 0.0
H499 H 0.17588 0.84247 0.22246 0.0
H500 H 0.27407 0.87755 0.1998 0.0
H501 H 0.34088 0.05522 0.23112 0.0
H502 H 0.07397 0.97355 0.19442 0.0
H503 H 0.98855 0.94087 0.22526 0.0
O504 O 0.20478 0.98314 0.28981 0.0
C505 C 0.23663 0.11838 0.30819 0.0
C506 C 0.04724 0.96932 0.25826 0.0
C507 C 0.08292 0.9797 0.21478 0.0
N508 N 0.15416 0.01278 0.2497 0.0
C509 C 0.10746 0.99582 0.26674 0.0
C510 C 0.14251 0.00542 0.22398 0.0
C511 C 0.03501 0.96125 0.23209 0.0
C512 C 0.44072 0.18819 0.28885 0.0
N513 N 0.39848 0.17194 0.30791 0.0
C514 C 0.484 0.24934 0.28469 0.0
C515 C 0.48386 0.29397 0.30024 0.0
C516 C 0.44064 0.27703 0.31967 0.0
C517 C 0.39801 0.21544 0.32324 0.0
C518 C 0.43089 0.12384 0.38317 0.0
C519 C 0.31122 0.0696 0.36661 0.0
C520 C 0.41684 0.11942 0.35712 0.0
N521 N 0.3576 0.09283 0.34914 0.0
C522 C 0.32353 0.07318 0.39281 0.0
C523 C 0.38382 0.10057 0.4011 0.0
C524 C 0.22493 0.96631 0.30854 0.0
C525 C 0.31345 0.96942 0.21379 0.0
C526 C 0.20427 0.93058 0.23904 0.0
C527 C 0.2122 0.88933 0.22412 0.0
C528 C 0.2672 0.90903 0.21139 0.0
N529 N 0.24954 0.99008 0.24118 0.0
C530 C 0.30382 0.00937 0.22886 0.0
Co531 Co 0.25274 0.35524 0.64731 0.0
Co532 Co 0.19629 0.24657 0.59922 0.0
O533 O 0.24288 0.33157 0.61088 0.0
C534 C 0.37911 0.41475 0.62729 0.0
O535 O 0.36374 0.36442 0.61464 0.0
C536 C 0.17576 0.31985 0.55831 0.0
O537 O 0.20464 0.37076 0.57137 0.0
O538 O 0.1237 0.23393 0.61983 0.0
O539 O 0.16604 0.29139 0.65486 0.0
H540 H 0.06408 0.02123 0.61342 0.0
H541 H 0.2887 0.45218 0.60825 0.0
O542 O 0.34015 0.41931 0.64112 0.0
H543 H 0.12553 0.45542 0.65849 0.0
H544 H 0.32908 0.50588 0.72005 0.0
H545 H 0.21325 0.28847 0.69662 0.0
H546 H 0.16 0.38258 0.66895 0.0
H547 H 0.3147 0.47451 0.67471 0.0
O548 O 0.16479 0.26934 0.56825 0.0
H549 H 0.11963 0.12948 0.62604 0.0
H550 H 0.1734 0.18169 0.54891 0.0
H551 H 0.22614 0.31772 0.74219 0.0
H552 H 0.25609 0.52629 0.5973 0.0
H553 H 0.28449 0.42721 0.75416 0.0
H554 H 0.17382 0.5281 0.62248 0.0
O555 O 0.28001 0.29625 0.65602 0.0
H556 H 0.37831 0.36137 0.54107 0.0
H557 H 0.25678 0.17295 0.5906 0.0
H558 H 0.34619 0.18669 0.56646 0.0
H559 H 0.40747 0.28127 0.54123 0.0
H560 H 0.28995 0.34661 0.566 0.0
H561 H 0.11626 0.07423 0.53529 0.0
H562 H 0.06223 0.993 0.56776 0.0
O563 O 0.22708 0.21961 0.62847 0.0
C564 C 0.12009 0.25023 0.64269 0.0
C565 C 0.08747 0.05623 0.59909 0.0
C566 C 0.11662 0.08597 0.55524 0.0
N567 N 0.14953 0.16204 0.58822 0.0
C568 C 0.11903 0.11762 0.60612 0.0
C569 C 0.14819 0.14685 0.56301 0.0
C570 C 0.08643 0.04041 0.57347 0.0
C571 C 0.25312 0.45294 0.61937 0.0
N572 N 0.22622 0.41303 0.63915 0.0
C573 C 0.23472 0.49488 0.61305 0.0
C574 C 0.18851 0.49582 0.62716 0.0
C575 C 0.16135 0.45501 0.64735 0.0
C576 C 0.18087 0.41366 0.6531 0.0
C577 C 0.30358 0.45804 0.71508 0.0
C578 C 0.23855 0.33612 0.70167 0.0
C579 C 0.29544 0.43998 0.68944 0.0
N580 N 0.2631 0.37963 0.68302 0.0
C581 C 0.24576 0.35245 0.72751 0.0
C582 C 0.27853 0.41387 0.73421 0.0
C583 C 0.26258 0.24297 0.6475 0.0
C584 C 0.35162 0.31965 0.55177 0.0
C585 C 0.28329 0.21446 0.57987 0.0
C586 C 0.33382 0.22185 0.56611 0.0
C587 C 0.36811 0.27484 0.55194 0.0
N588 N 0.26685 0.25831 0.57948 0.0
C589 C 0.30075 0.31062 0.56574 0.0
Co590 Co 0.92917 0.25403 0.98003 0.0
Co591 Co 0.96424 0.19107 0.92881 0.0
O592 O 0.93194 0.24121 0.94292 0.0
C593 C 0.99119 0.37939 0.95869 0.0
O594 O 0.02213 0.36316 0.94372 0.0
C595 C 0.86507 0.1745 0.89129 0.0
O596 O 0.84911 0.20803 0.90475 0.0
O597 O 0.90667 0.12066 0.95092 0.0
O598 O 0.90703 0.16747 0.9875 0.0
H599 H 0.05158 0.05207 0.93619 0.0
H600 H 0.85819 0.28749 0.9453 0.0
O601 O 0.95152 0.34121 0.97411 0.0
H602 H 0.70656 0.13085 1.00294 0.0
H603 H 0.87792 0.33545 0.05839 0.0
H604 H 0.97307 0.21963 0.02624 0.0
H605 H 0.81584 0.16485 0.00754 0.0
H606 H 0.88055 0.3177 0.01208 0.0
O607 O 0.90345 0.16053 0.90008 0.0
H608 H 1.00599 0.11171 0.95228 0.0
H609 H 0.99129 0.1629 0.87632 0.0
H610 H 0.97106 0.23593 0.0727 0.0
H611 H 0.74936 0.25524 0.94017 0.0
H612 H 0.92319 0.29422 0.08905 0.0
H613 H 0.6727 0.17628 0.9691 0.0
O614 O 0.01714 0.28085 0.98366 0.0
H615 H 0.02749 0.37309 0.87099 0.0
H616 H 0.0956 0.24562 0.91483 0.0
H617 H 0.16862 0.3324 0.88881 0.0
H618 H 0.13465 0.39666 0.86637 0.0
H619 H 0.95679 0.28741 0.89781 0.0
H620 H 0.0336 0.10104 0.85932 0.0
H621 H 0.06511 0.0459 0.88939 0.0
O622 O 0.02784 0.21974 0.95581 0.0
C623 C 0.89483 0.11954 0.97483 0.0
C624 C 0.03771 0.07559 0.92288 0.0
C625 C 0.02765 0.10309 0.87975 0.0
N626 N 0.99581 0.14075 0.91528 0.0
C627 C 0.01207 0.10966 0.93189 0.0
C628 C 1.00295 0.13743 0.88947 0.0
C629 C 0.04543 0.07228 0.89663 0.0
C630 C 0.8251 0.25333 0.95803 0.0
N631 N 0.84334 0.22808 0.97666 0.0
C632 C 0.76354 0.23515 0.955 0.0
C633 C 0.72055 0.1908 0.97122 0.0
C634 C 0.73951 0.16525 0.99019 0.0
C635 C 0.80145 0.18451 0.99264 0.0
C636 C 0.89878 0.30987 0.0515 0.0
C637 C 0.95182 0.24471 0.03322 0.0
C638 C 0.90049 0.29976 0.0253 0.0
N639 N 0.92648 0.26722 0.01649 0.0
C640 C 0.95098 0.25395 0.05954 0.0
C641 C 0.92418 0.28671 0.0687 0.0
C642 C 0.04763 0.25835 0.97394 0.0
C643 C 0.04272 0.34501 0.88041 0.0
C644 C 0.0803 0.27336 0.9054 0.0
C645 C 0.12194 0.32244 0.89053 0.0
C646 C 0.10287 0.35839 0.87792 0.0
N647 N 0.02101 0.25983 0.9076 0.0
C648 C 1.00237 0.29551 0.89544 0.0
Co649 Co 0.65544 0.90151 0.31356 0.0
Co650 Co 0.76613 0.95573 0.26627 0.0
O651 O 0.68064 0.91688 0.27732 0.0
C652 C 0.5961 0.96855 0.29346 0.0
O653 O 0.64669 1.00385 0.28102 0.0
C654 C 0.69441 0.86268 0.22495 0.0
O655 O 0.64346 0.83963 0.23803 0.0
O656 O 0.77791 0.89495 0.28659 0.0
O657 O 0.71935 0.8788 0.32135 0.0
H658 H 0.99088 0.04788 0.28197 0.0
H659 H 0.5599 0.84175 0.27386 0.0
O660 O 0.59134 0.92477 0.30717 0.0
H661 H 0.55594 0.67379 0.32313 0.0
H662 H 0.50159 0.82347 0.38513 0.0
H663 H 0.72007 0.92705 0.36335 0.0
H664 H 0.62795 0.78076 0.33444 0.0
H665 H 0.53498 0.84259 0.34006 0.0
O666 O 0.7446 0.90285 0.2349 0.0
H667 H 0.88211 0.99495 0.29383 0.0
H668 H 0.83308 0.99979 0.21649 0.0
H669 H 0.68882 0.90857 0.40867 0.0
H670 H 0.48659 0.7354 0.26207 0.0
H671 H 0.57878 0.85641 0.41982 0.0
H672 H 0.48444 0.65054 0.28676 0.0
O673 O 0.71382 0.98751 0.32291 0.0
H674 H 0.65457 0.02535 0.20749 0.0
H675 H 0.83955 0.09036 0.25926 0.0
H676 H 0.82687 0.1671 0.23546 0.0
H677 H 0.73404 0.13476 0.20912 0.0
H678 H 0.66824 0.95056 0.23208 0.0
H679 H 0.94113 0.05061 0.20361 0.0
H680 H 0.021 0.07618 0.23658 0.0
O681 O 0.7918 0.01209 0.29596 0.0
C682 C 0.76102 0.87452 0.30935 0.0
C683 C 0.95648 0.03702 0.26743 0.0
C684 C 0.92856 0.03843 0.22345 0.0
N685 N 0.85112 0.99399 0.25586 0.0
C686 C 0.8948 0.00706 0.27403 0.0
C687 C 0.86735 0.0089 0.2308 0.0
C688 C 0.97335 0.05288 0.24196 0.0
C689 C 0.55896 0.80507 0.28478 0.0
N690 N 0.59825 0.81747 0.30475 0.0
C691 C 0.51748 0.74494 0.27797 0.0
C692 C 0.51635 0.69735 0.29181 0.0
C693 C 0.55651 0.71037 0.3122 0.0
C694 C 0.5974 0.77105 0.31843 0.0
C695 C 0.54967 0.84627 0.38053 0.0
C696 C 0.67221 0.9043 0.36804 0.0
C697 C 0.56887 0.85739 0.35504 0.0
N698 N 0.62952 0.88595 0.34907 0.0
C699 C 0.65473 0.89397 0.39374 0.0
C700 C 0.593 0.86473 0.39998 0.0
C701 C 0.76747 0.02361 0.31481 0.0
C702 C 0.69554 0.03997 0.21868 0.0
C703 C 0.79882 0.07576 0.24801 0.0
C704 C 0.79202 0.11951 0.23446 0.0
C705 C 0.74 0.10135 0.21968 0.0
N706 N 0.7553 0.01541 0.24681 0.0
C707 C 0.70394 0.9975 0.23247 0.0
C708 C 0.53863 0.53509 0.07026 0.0
C709 C 0.56603 0.56541 0.04733 0.0
H710 H 0.46879 0.45247 0.0876 0.0
C711 C 0.54522 0.53429 0.02399 0.0
H712 H 0.55398 0.55837 0.08846 0.0
C713 C 0.49847 0.47338 0.02358 0.0
C714 C 0.47009 0.4434 0.04642 0.0
H715 H 0.56588 0.55681 0.00609 0.0
H716 H 0.48359 0.45005 0.00536 0.0
C717 C 0.49006 0.47484 0.06976 0.0
C718 C 0.0073 0.47376 0.40307 0.0
C719 C 0.01184 0.44785 0.37999 0.0
H720 H 0.99348 0.54256 0.42078 0.0
C721 C 1.00353 0.47043 0.3567 0.0
H722 H 0.01367 0.45704 0.42124 0.0
C723 C 0.98968 0.51739 0.35649 0.0
C724 C 0.98638 0.54419 0.37951 0.0
H725 H 0.00663 0.45094 0.33868 0.0
H726 H 0.98269 0.53359 0.33831 0.0
C727 C 0.99593 0.52252 0.4028 0.0
C728 C 0.47312 0.00865 0.69035 0.0
C729 C 0.44217 0.99983 0.71366 0.0
H730 H 0.55725 0.03015 0.67188 0.0
C731 C 0.47266 1.00419 0.7367 0.0
H732 H 0.45048 0.00568 0.67236 0.0
C733 C 0.53291 0.01586 0.73638 0.0
C734 C 0.56418 0.02588 0.71306 0.0
H735 H 0.4495 0.99741 0.75488 0.0
H736 H 0.55543 0.01812 0.75432 0.0
C737 C 0.53403 0.0228 0.69008 0.0
C738 C 0.53397 0.53488 0.60283 0.0
C739 C 0.56465 0.56118 0.62582 0.0
H740 H 0.45106 0.46591 0.58537 0.0
C741 C 0.5339 0.53927 0.64919 0.0
H742 H 0.55697 0.5511 0.58462 0.0
C743 C 0.473 0.49253 0.64956 0.0
C744 C 0.44267 0.46528 0.62664 0.0
H745 H 0.5567 0.55908 0.66713 0.0
H746 H 0.44993 0.47679 0.6678 0.0
C747 C 0.47373 0.48632 0.60327 0.0
C748 C 0.00775 0.47335 0.93588 0.0
C749 C 1.00474 0.44314 0.95885 0.0
H750 H 0.02063 0.55588 0.91843 0.0
C751 C 0.01498 0.47437 0.98217 0.0
H752 H 0.99988 0.44997 0.9177 0.0
C753 C 0.02916 0.53527 0.9825 0.0
C754 C 0.03087 0.56514 0.95961 0.0
H755 H 0.01305 0.45193 1.0001 0.0
H756 H 0.03757 0.5587 1.00069 0.0
C757 C 0.01946 0.53359 0.9363 0.0
C758 C 0.47128 0.99848 0.31534 0.0
C759 C 0.45008 0.00834 0.29201 0.0
H760 H 0.53304 0.97595 0.33392 0.0
C761 C 0.47684 0.00462 0.26903 0.0
H762 H 0.45112 1.00097 0.33328 0.0
C763 C 0.5252 0.99263 0.26947 0.0
C764 C 0.54559 0.98165 0.2928 0.0
H765 H 0.46116 0.0122 0.25083 0.0
H766 H 0.54602 0.99096 0.25159 0.0
C767 C 0.51782 0.98401 0.3157 0.0
C768 C 0.26537 0.13823 0.18284 0.0
C769 C 0.31975 0.1584 0.19664 0.0
H770 H 0.2225 0.12397 0.14653 0.0
C771 C 0.37506 0.18376 0.18301 0.0
H772 H 0.22187 0.11884 0.19255 0.0
C773 C 0.37557 0.18814 0.15617 0.0
C774 C 0.32072 0.16663 0.14246 0.0
H775 H 0.41777 0.19916 0.193 0.0
H776 H 0.41885 0.20852 0.14621 0.0
C777 C 0.26575 0.14132 0.15624 0.0
C778 C 0.14132 0.26654 0.48965 0.0
C779 C 0.16168 0.321 0.47591 0.0
H780 H 0.12496 0.22307 0.52584 0.0
C781 C 0.18622 0.37611 0.48965 0.0
H782 H 0.12277 0.22319 0.4799 0.0
C783 C 0.18967 0.37625 0.51654 0.0
C784 C 0.16768 0.32119 0.53016 0.0
H785 H 0.20177 0.41889 0.47971 0.0
H786 H 0.20961 0.41935 0.52661 0.0
C787 C 0.14295 0.26649 0.51625 0.0
C788 C 0.86783 0.12772 0.82296 0.0
C789 C 0.84205 0.15708 0.80931 0.0
H790 H 0.89059 0.10609 0.8591 0.0
C791 C 0.82063 0.19035 0.82314 0.0
H792 H 0.88534 0.10207 0.81318 0.0
C793 C 0.82561 0.19442 0.84999 0.0
C794 C 0.85124 0.16453 0.86347 0.0
H795 H 0.79992 0.21303 0.81328 0.0
H796 H 0.81036 0.22171 0.86008 0.0
C797 C 0.87115 0.13031 0.84953 0.0
C798 C 0.74753 0.88095 0.15622 0.0
C799 C 0.69313 0.84526 0.14265 0.0
H800 H 0.79106 0.91068 0.19231 0.0
C801 C 0.63822 0.81416 0.1565 0.0
H802 H 0.79072 0.90604 0.14635 0.0
C803 C 0.6382 0.81833 0.18335 0.0
C804 C 0.69319 0.853 0.19683 0.0
H805 H 0.59553 0.78571 0.14668 0.0
H806 H 0.59524 0.7945 0.1935 0.0
C807 C 0.74771 0.8838 0.18282 0.0
C808 C 0.81523 0.63372 0.51655 0.0
C809 C 0.84372 0.6893 0.53003 0.0
H810 H 0.79807 0.58955 0.47986 0.0
C811 C 0.87665 0.74364 0.51609 0.0
H812 H 0.78895 0.59099 0.52665 0.0
C813 C 0.87939 0.743 0.48951 0.0
C814 C 0.8516 0.68782 0.47587 0.0
H815 H 0.89981 0.78736 0.52564 0.0
H816 H 0.90403 0.78628 0.47972 0.0
C817 C 0.81953 0.63297 0.48971 0.0
C818 C 0.12702 0.866 0.8495 0.0
C819 C 0.15728 0.8412 0.86318 0.0
H820 H 0.10443 0.88761 0.81328 0.0
C821 C 0.19063 0.81987 0.84935 0.0
H822 H 0.10115 0.88327 0.85928 0.0
C823 C 0.19399 0.82402 0.82249 0.0
C824 C 0.16339 0.84885 0.80897 0.0
H825 H 0.21398 0.79988 0.85924 0.0
H826 H 0.22138 0.80888 0.81241 0.0
C827 C 0.12909 0.8687 0.82289 0.0
C828 C 0.19436 1.00293 0.97607 0.0
C829 C 0.16718 0.94752 0.98956 0.0
H830 H 0.24392 0.10047 0.97809 0.0
C831 C 0.16836 0.94971 0.01657 0.0
H832 H 0.19435 1.00314 0.95533 0.0
C833 C 0.19567 0.0056 0.0297 0.0
C834 C 0.22402 0.06101 0.01621 0.0
H835 H 0.14751 0.90806 0.02767 0.0
H836 H 0.1954 0.00537 0.05044 0.0
C837 C 0.22303 0.05882 0.98919 0.0
C838 C 0.17931 0.17665 0.363 0.0
C839 C 0.14938 0.20272 0.34997 0.0
H840 H 0.23068 0.1307 0.36021 0.0
C841 C 0.14763 0.19995 0.32296 0.0
H842 H 0.18167 0.17778 0.38371 0.0
C843 C 0.17503 0.17205 0.3094 0.0
C844 C 0.206 0.14704 0.3224 0.0
H845 H 0.12473 0.21914 0.31218 0.0
H846 H 0.17257 0.17083 0.28869 0.0
C847 C 0.20765 0.14973 0.34942 0.0
C848 C 1.0021 0.18937 0.69654 0.0
C849 C 0.94668 0.16251 0.68306 0.0
H850 H 0.09964 0.23874 0.6945 0.0
C851 C 0.94886 0.16404 0.65605 0.0
H852 H 1.00235 0.1891 0.71728 0.0
C853 C 1.00476 0.19143 0.64291 0.0
C854 C 0.06018 0.21947 0.65639 0.0
H855 H 0.90721 0.14347 0.64495 0.0
H856 H 1.00452 0.19148 0.62217 0.0
C857 C 0.05799 0.21808 0.6834 0.0
C858 C 0.81052 0.94901 0.98977 0.0
C859 C 0.81036 0.9482 0.01681 0.0
H860 H 0.83756 1.00279 0.9554 0.0
C861 C 0.83913 0.00433 0.02977 0.0
H862 H 0.78921 0.90683 0.97901 0.0
C863 C 0.86617 0.05951 0.01613 0.0
C864 C 0.86621 0.06033 0.98909 0.0
H865 H 0.84013 0.00575 0.0505 0.0
H866 H 0.88737 0.10168 0.02689 0.0
C867 C 0.83845 1.0042 0.97613 0.0
C868 C 0.82129 0.81953 0.30968 0.0
C869 C 0.79189 0.84558 0.32312 0.0
H870 H 0.87071 0.77143 0.31177 0.0
C871 C 0.79239 0.84398 0.35014 0.0
H872 H 0.82202 0.81993 0.28894 0.0
C873 C 0.82153 0.81728 0.36331 0.0
C874 C 0.84975 0.79004 0.34986 0.0
H875 H 0.7707 0.86397 0.36121 0.0
H876 H 0.82104 0.81708 0.38405 0.0
C877 C 0.84912 0.79152 0.32285 0.0
C878 C 1.00351 0.83491 0.69631 0.0
C879 C 0.05957 0.86219 0.68329 0.0
H880 H 0.90613 0.78589 0.69353 0.0
C881 C 0.05863 0.86165 0.65625 0.0
H882 H 1.00222 0.83442 0.71704 0.0
C883 C 1.00337 0.83457 0.64266 0.0
C884 C 0.9473 0.80619 0.65569 0.0
H885 H 0.10076 0.88248 0.64545 0.0
H886 H 1.00464 0.83512 0.62193 0.0
C887 C 0.94826 0.80687 0.68273 0.0
C888 C 0.14592 0.25813 0.97181 0.0
C889 C 0.10696 0.27322 0.98517 0.0
H890 H 0.22319 0.24564 0.97359 0.0
C891 C 0.12256 0.29641 0.01013 0.0
H892 H 0.13551 0.24012 0.95259 0.0
C893 C 0.17277 0.29868 0.02226 0.0
C894 C 0.20856 0.27892 0.00945 0.0
H895 H 0.09386 0.30889 0.02087 0.0
H896 H 0.18181 0.31301 0.04204 0.0
C897 C 0.19664 0.26159 0.98377 0.0
C898 C 0.84322 0.13423 0.31639 0.0
C899 C 0.80732 0.07888 0.32932 0.0
H900 H 0.92213 0.22338 0.31768 0.0
C901 C 0.819 0.07384 0.35507 0.0
H902 H 0.83432 0.13925 0.29656 0.0
C903 C 0.86961 0.12125 0.36699 0.0
C904 C 0.90869 0.17512 0.35355 0.0
H905 H 0.79234 0.03152 0.36535 0.0
H906 H 0.87986 0.11388 0.38627 0.0
C907 C 0.89333 0.18236 0.3285 0.0
C908 C 0.74352 0.88385 0.63932 0.0
C909 C 0.7329 0.83159 0.65305 0.0
H910 H 0.75296 0.97241 0.64083 0.0
C911 C 0.71439 0.82555 0.6787 0.0
H912 H 0.75755 0.89001 0.61953 0.0
C913 C 0.71275 0.87364 0.691 0.0
C914 C 0.72847 0.92777 0.67771 0.0
H915 H 0.70529 0.78569 0.68975 0.0
H916 H 0.70202 0.86956 0.71118 0.0
C917 C 0.74063 0.93122 0.65148 0.0
C918 C 0.8917 0.74927 0.03417 0.0
C919 C 0.83786 0.73481 0.02078 0.0
H920 H 0.98132 0.76137 0.03239 0.0
C921 C 0.83037 0.71215 0.99573 0.0
H922 H 0.89916 0.76677 0.05348 0.0
C923 C 0.87829 0.70992 0.98356 0.0
C924 C 0.93372 0.72922 0.9964 0.0
H925 H 0.78934 0.70013 0.98496 0.0
H926 H 0.87309 0.696 0.96372 0.0
C927 C 0.93895 0.74587 0.02217 0.0
C928 C 0.08449 0.81334 0.31907 0.0
C929 C 0.08574 0.80785 0.34567 0.0
H930 H 0.1276 0.86848 0.28646 0.0
C931 C 0.13818 0.84911 0.3593 0.0
H932 H 0.04486 0.78204 0.30808 0.0
C933 C 0.18632 0.89842 0.34686 0.0
C934 C 0.18207 0.90769 0.32066 0.0
H935 H 0.14082 0.84497 0.37977 0.0
H936 H 0.22462 0.93139 0.3581 0.0
C937 C 0.13197 0.86323 0.30671 0.0
C938 C 0.26394 0.14392 0.70003 0.0
C939 C 0.27392 0.102 0.6862 0.0
H940 H 0.2549 0.22329 0.69865 0.0
C941 C 0.29176 0.11418 0.66046 0.0
H942 H 0.25055 0.13631 0.7199 0.0
C943 C 0.29328 0.16388 0.64821 0.0
C944 C 0.27811 0.20256 0.66161 0.0
H945 H 0.3004 0.0832 0.64934 0.0
H946 H 0.30353 0.17034 0.62799 0.0
C947 C 0.2667 0.19417 0.6879 0.0
loop_
_geom_bond_atom_site_label_1
_geom_bond_atom_site_label_2
_geom_bond_distance
_geom_bond_site_symmetry_2
_ccdc_geom_bond_type
Co0 O2 2.143 . S
Co0 O8 2.074 . S
Co0 O11 2.093 . S
Co0 O24 2.097 . S
Co0 N41 2.151 . S
Co0 N49 2.214 1_554 S
Co1 O2 2.160 . S
Co1 O7 2.058 . S
Co1 O17 2.057 . S
Co1 O32 2.037 . S
Co1 N36 2.145 . S
Co1 N57 2.257 . S
O2 Co0 2.143 . S
O2 Co1 2.160 . S
C3 O4 1.278 . S
C3 O11 1.224 . S
O4 C3 1.278 . S
C5 O6 1.245 . S
C5 O17 1.232 . S
O6 C5 1.245 . S
O7 Co1 2.058 . S
O7 C33 1.269 . S
O8 Co0 2.074 . S
O8 C33 1.257 . S
H9 C34 0.930 . S
H10 C40 0.930 . S
O11 Co0 2.093 . S
O11 C3 1.224 . S
H12 C44 0.929 1_556 S
H13 C46 0.930 . S
H14 C47 0.930 . S
H15 C45 0.929 1_556 S
H16 C48 0.928 . S
O17 Co1 2.057 . S
O17 C5 1.232 . S
H18 C37 0.929 . S
H19 C38 0.929 . S
H20 C50 0.931 . S
H21 C42 0.929 . S
H22 C51 0.930 . S
H23 C43 0.931 . S
O24 Co0 2.097 . S
O24 C52 1.214 . S
H25 C53 0.929 . S
H26 C54 0.929 . S
H27 C55 0.930 . S
H28 C56 0.929 . S
H29 C58 0.930 . S
H30 C35 0.930 . S
H31 C39 0.930 1_655 S
O32 Co1 2.037 . S
O32 C52 1.234 . S
C33 O7 1.269 . S
C33 O8 1.257 . S
C34 H9 0.930 . S
C34 C37 1.388 . S
C34 C39 1.418 . S
C35 H30 0.930 . S
C35 C38 1.404 . S
C35 C39 1.353 . S
N36 Co1 2.145 . S
N36 C37 1.397 . S
N36 C38 1.334 . S
C37 H18 0.929 . S
C37 C34 1.388 . S
C37 N36 1.397 . S
C38 H19 0.929 . S
C38 C35 1.404 . S
C38 N36 1.334 . S
C39 H31 0.930 1_455 S
C39 C34 1.418 . S
C39 C35 1.353 . S
C40 H10 0.930 . S
C40 N41 1.330 . S
C40 C42 1.446 . S
N41 Co0 2.151 . S
N41 C40 1.330 . S
N41 C45 1.418 . S
C42 H21 0.929 . S
C42 C40 1.446 . S
C42 C43 1.332 . S
C43 H23 0.931 . S
C43 C42 1.332 . S
C43 C44 1.267 . S
C44 H12 0.929 1_554 S
C44 C43 1.267 . S
C44 C45 1.251 . S
C45 H15 0.929 1_554 S
C45 N41 1.418 . S
C45 C44 1.251 . S
C46 H13 0.930 . S
C46 C48 1.406 . S
C46 C51 1.261 . S
C47 H14 0.930 . S
C47 N49 1.325 . S
C47 C50 1.357 . S
C48 H16 0.928 . S
C48 C46 1.406 . S
C48 N49 1.261 . S
N49 Co0 2.214 1_556 S
N49 C47 1.325 . S
N49 C48 1.261 . S
C50 H20 0.931 . S
C50 C47 1.357 . S
C50 C51 1.312 . S
C51 H22 0.930 . S
C51 C46 1.261 . S
C51 C50 1.312 . S
C52 O24 1.214 . S
C52 O32 1.234 . S
C53 H25 0.929 . S
C53 C56 1.391 . S
C53 C58 1.391 . S
C54 H26 0.929 . S
C54 C55 1.390 . S
C54 N57 1.391 . S
C55 H27 0.930 . S
C55 C54 1.390 . S
C55 C56 1.392 . S
C56 H28 0.929 . S
C56 C53 1.391 . S
C56 C55 1.392 . S
N57 Co1 2.257 . S
N57 C54 1.391 . S
N57 C58 1.388 . S
C58 H29 0.930 . S
C58 C53 1.391 . S
C58 N57 1.388 . S
Co59 O61 2.143 . S
Co59 O67 2.074 . S
Co59 O70 2.093 . S
Co59 O83 2.097 . S
Co59 N100 2.151 . S
Co59 N108 2.214 . S
Co60 O61 2.160 . S
Co60 O66 2.058 . S
Co60 O76 2.057 . S
Co60 O91 2.036 . S
Co60 N95 2.145 . S
Co60 N116 2.257 1_455 S
O61 Co59 2.143 . S
O61 Co60 2.160 . S
C62 O63 1.278 . S
C62 O70 1.224 . S
O63 C62 1.278 . S
C64 O65 1.245 . S
C64 O76 1.232 . S
O65 C64 1.245 . S
O66 Co60 2.058 . S
O66 C92 1.269 . S
O67 Co59 2.074 . S
O67 C92 1.257 . S
H68 C93 0.930 . S
H69 C99 0.930 . S
O70 Co59 2.093 . S
O70 C62 1.224 . S
H71 C103 0.929 . S
H72 C105 0.930 . S
H73 C106 0.930 . S
H74 C104 0.929 . S
H75 C107 0.928 . S
O76 Co60 2.057 . S
O76 C64 1.232 . S
H77 C96 0.929 . S
H78 C97 0.929 . S
H79 C109 0.931 . S
H80 C101 0.929 . S
H81 C110 0.930 . S
H82 C102 0.931 . S
O83 Co59 2.097 . S
O83 C111 1.214 1_455 S
H84 C112 0.929 . S
H85 C113 0.929 . S
H86 C114 0.930 . S
H87 C115 0.929 . S
H88 C117 0.930 1_455 S
H89 C94 0.930 . S
H90 C98 0.930 1_565 S
O91 Co60 2.036 . S
O91 C111 1.235 1_455 S
C92 O66 1.269 . S
C92 O67 1.257 . S
C93 H68 0.930 . S
C93 C96 1.388 1_655 S
C93 C98 1.418 . S
C94 H89 0.930 . S
C94 C97 1.404 . S
C94 C98 1.353 1_455 S
N95 Co60 2.145 . S
N95 C96 1.397 . S
N95 C97 1.334 . S
C96 H77 0.929 . S
C96 C93 1.388 1_455 S
C96 N95 1.397 . S
C97 H78 0.929 . S
C97 C94 1.404 . S
C97 N95 1.334 . S
C98 H90 0.930 1_545 S
C98 C93 1.418 . S
C98 C94 1.353 1_655 S
C99 H69 0.930 . S
C99 N100 1.330 . S
C99 C101 1.446 . S
N100 Co59 2.151 . S
N100 C99 1.330 . S
N100 C104 1.418 . S
C101 H80 0.929 . S
C101 C99 1.446 . S
C101 C102 1.332 . S
C102 H82 0.931 . S
C102 C101 1.332 . S
C102 C103 1.267 . S
C103 H71 0.929 . S
C103 C102 1.267 . S
C103 C104 1.251 . S
C104 H74 0.929 . S
C104 N100 1.418 . S
C104 C103 1.251 . S
C105 H72 0.930 . S
C105 C107 1.406 . S
C105 C110 1.261 . S
C106 H73 0.930 . S
C106 N108 1.325 . S
C106 C109 1.357 . S
C107 H75 0.928 . S
C107 C105 1.406 . S
C107 N108 1.261 . S
N108 Co59 2.214 . S
N108 C106 1.325 . S
N108 C107 1.261 . S
C109 H79 0.931 . S
C109 C106 1.357 . S
C109 C110 1.312 . S
C110 H81 0.930 . S
C110 C105 1.261 . S
C110 C109 1.312 . S
C111 O83 1.214 1_655 S
C111 O91 1.235 1_655 S
C112 H84 0.929 . S
C112 C115 1.391 . S
C112 C117 1.391 . S
C113 H85 0.929 . S
C113 C114 1.390 . S
C113 N116 1.391 . S
C114 H86 0.930 . S
C114 C113 1.390 . S
C114 C115 1.392 . S
C115 H87 0.929 . S
C115 C112 1.391 . S
C115 C114 1.392 . S
N116 Co60 2.257 1_655 S
N116 C113 1.391 . S
N116 C117 1.388 . S
C117 H88 0.930 1_655 S
C117 C112 1.391 . S
C117 N116 1.388 . S
Co118 O120 2.143 . S
Co118 O126 2.074 . S
Co118 O129 2.093 . S
Co118 O142 2.097 . S
Co118 N159 2.151 . S
Co118 N167 2.214 . S
Co119 O120 2.160 . S
Co119 O125 2.058 . S
Co119 O135 2.057 . S
Co119 O150 2.036 . S
Co119 N154 2.145 . S
Co119 N175 2.257 1_545 S
O120 Co118 2.143 . S
O120 Co119 2.160 . S
C121 O122 1.278 . S
C121 O129 1.224 . S
O122 C121 1.278 . S
C123 O124 1.245 . S
C123 O135 1.232 . S
O124 C123 1.245 . S
O125 Co119 2.058 . S
O125 C151 1.269 . S
O126 Co118 2.074 . S
O126 C151 1.257 . S
H127 C152 0.930 . S
H128 C158 0.930 . S
O129 Co118 2.093 . S
O129 C121 1.224 . S
H130 C162 0.929 . S
H131 C164 0.930 . S
H132 C165 0.930 . S
H133 C163 0.929 . S
H134 C166 0.928 . S
O135 Co119 2.057 . S
O135 C123 1.232 . S
H136 C155 0.929 . S
H137 C156 0.929 . S
H138 C168 0.931 . S
H139 C160 0.929 . S
H140 C169 0.930 . S
H141 C161 0.931 . S
O142 Co118 2.097 . S
O142 C170 1.214 1_545 S
H143 C171 0.929 . S
H144 C172 0.929 . S
H145 C173 0.930 . S
H146 C174 0.929 . S
H147 C176 0.930 1_545 S
H148 C153 0.930 . S
H149 C157 0.930 . S
O150 Co119 2.036 . S
O150 C170 1.234 1_545 S
C151 O125 1.269 . S
C151 O126 1.257 . S
C152 H127 0.930 . S
C152 C155 1.388 1_565 S
C152 C157 1.418 . S
C153 H148 0.930 . S
C153 C156 1.404 . S
C153 C157 1.353 1_545 S
N154 Co119 2.145 . S
N154 C155 1.397 . S
N154 C156 1.334 . S
C155 H136 0.929 . S
C155 C152 1.388 1_545 S
C155 N154 1.397 . S
C156 H137 0.929 . S
C156 C153 1.404 . S
C156 N154 1.334 . S
C157 H149 0.930 . S
C157 C152 1.418 . S
C157 C153 1.353 1_565 S
C158 H128 0.930 . S
C158 N159 1.330 . S
C158 C160 1.446 . S
N159 Co118 2.151 . S
N159 C158 1.330 . S
N159 C163 1.418 . S
C160 H139 0.929 . S
C160 C158 1.446 . S
C160 C161 1.332 . S
C161 H141 0.931 . S
C161 C160 1.332 . S
C161 C162 1.267 . S
C162 H130 0.929 . S
C162 C161 1.267 . S
C162 C163 1.251 . S
C163 H133 0.929 . S
C163 N159 1.418 . S
C163 C162 1.251 . S
C164 H131 0.930 . S
C164 C166 1.406 . S
C164 C169 1.261 . S
C165 H132 0.930 . S
C165 N167 1.325 . S
C165 C168 1.357 . S
C166 H134 0.928 . S
C166 C164 1.406 . S
C166 N167 1.261 . S
N167 Co118 2.214 . S
N167 C165 1.325 . S
N167 C166 1.261 . S
C168 H138 0.931 . S
C168 C165 1.357 . S
C168 C169 1.312 . S
C169 H140 0.930 . S
C169 C164 1.261 . S
C169 C168 1.312 . S
C170 O142 1.214 1_565 S
C170 O150 1.234 1_565 S
C171 H143 0.929 . S
C171 C174 1.391 . S
C171 C176 1.391 . S
C172 H144 0.929 . S
C172 C173 1.390 . S
C172 N175 1.391 . S
C173 H145 0.930 . S
C173 C172 1.390 . S
C173 C174 1.392 . S
C174 H146 0.929 . S
C174 C171 1.391 . S
C174 C173 1.392 . S
N175 Co119 2.257 1_565 S
N175 C172 1.391 . S
N175 C176 1.388 . S
C176 H147 0.930 1_565 S
C176 C171 1.391 . S
C176 N175 1.388 . S
Co177 O179 2.143 . S
Co177 O185 2.074 . S
Co177 O188 2.093 . S
Co177 O201 2.097 . S
Co177 N218 2.151 . S
Co177 N226 2.214 1_554 S
Co178 O179 2.160 . S
Co178 O184 2.058 . S
Co178 O194 2.057 . S
Co178 O209 2.037 . S
Co178 N213 2.145 . S
Co178 N234 2.257 . S
O179 Co177 2.143 . S
O179 Co178 2.160 . S
C180 O181 1.278 . S
C180 O188 1.224 . S
O181 C180 1.278 . S
C182 O183 1.245 . S
C182 O194 1.232 . S
O183 C182 1.245 . S
O184 Co178 2.058 . S
O184 C210 1.269 . S
O185 Co177 2.074 . S
O185 C210 1.257 . S
H186 C211 0.930 . S
H187 C217 0.930 . S
O188 Co177 2.093 . S
O188 C180 1.224 . S
H189 C221 0.929 1_556 S
H190 C223 0.930 . S
H191 C224 0.930 . S
H192 C222 0.929 1_556 S
H193 C225 0.928 . S
O194 Co178 2.057 . S
O194 C182 1.232 . S
H195 C214 0.929 . S
H196 C215 0.929 . S
H197 C227 0.931 . S
H198 C219 0.929 . S
H199 C228 0.930 . S
H200 C220 0.931 . S
O201 Co177 2.097 . S
O201 C229 1.214 . S
H202 C230 0.929 . S
H203 C231 0.929 . S
H204 C232 0.930 . S
H205 C233 0.929 . S
H206 C235 0.930 . S
H207 C212 0.930 . S
H208 C216 0.930 1_455 S
O209 Co178 2.037 . S
O209 C229 1.234 . S
C210 O184 1.269 . S
C210 O185 1.257 . S
C211 H186 0.930 . S
C211 C214 1.388 . S
C211 C216 1.418 . S
C212 H207 0.930 . S
C212 C215 1.404 . S
C212 C216 1.353 . S
N213 Co178 2.145 . S
N213 C214 1.397 . S
N213 C215 1.334 . S
C214 H195 0.929 . S
C214 C211 1.388 . S
C214 N213 1.397 . S
C215 H196 0.929 . S
C215 C212 1.404 . S
C215 N213 1.334 . S
C216 H208 0.930 1_655 S
C216 C211 1.418 . S
C216 C212 1.353 . S
C217 H187 0.930 . S
C217 N218 1.330 . S
C217 C219 1.446 . S
N218 Co177 2.151 . S
N218 C217 1.330 . S
N218 C222 1.418 . S
C219 H198 0.929 . S
C219 C217 1.446 . S
C219 C220 1.332 . S
C220 H200 0.931 . S
C220 C219 1.332 . S
C220 C221 1.267 . S
C221 H189 0.929 1_554 S
C221 C220 1.267 . S
C221 C222 1.251 . S
C222 H192 0.929 1_554 S
C222 N218 1.418 . S
C222 C221 1.251 . S
C223 H190 0.930 . S
C223 C225 1.406 . S
C223 C228 1.261 . S
C224 H191 0.930 . S
C224 N226 1.325 . S
C224 C227 1.357 . S
C225 H193 0.928 . S
C225 C223 1.406 . S
C225 N226 1.261 . S
N226 Co177 2.214 1_556 S
N226 C224 1.325 . S
N226 C225 1.261 . S
C227 H197 0.931 . S
C227 C224 1.357 . S
C227 C228 1.312 . S
C228 H199 0.930 . S
C228 C223 1.261 . S
C228 C227 1.312 . S
C229 O201 1.214 . S
C229 O209 1.234 . S
C230 H202 0.929 . S
C230 C233 1.391 . S
C230 C235 1.391 . S
C231 H203 0.929 . S
C231 C232 1.390 . S
C231 N234 1.391 . S
C232 H204 0.930 . S
C232 C231 1.390 . S
C232 C233 1.392 . S
C233 H205 0.929 . S
C233 C230 1.391 . S
C233 C232 1.392 . S
N234 Co178 2.257 . S
N234 C231 1.391 . S
N234 C235 1.388 . S
C235 H206 0.930 . S
C235 C230 1.391 . S
C235 N234 1.388 . S
Co236 O238 2.143 . S
Co236 O244 2.074 . S
Co236 O247 2.093 . S
Co236 O260 2.097 . S
Co236 N277 2.151 . S
Co236 N285 2.214 . S
Co237 O238 2.160 . S
Co237 O243 2.058 . S
Co237 O253 2.057 . S
Co237 O268 2.036 . S
Co237 N272 2.145 . S
Co237 N293 2.257 1_655 S
O238 Co236 2.143 . S
O238 Co237 2.160 . S
C239 O240 1.278 . S
C239 O247 1.224 . S
O240 C239 1.278 . S
C241 O242 1.245 . S
C241 O253 1.232 . S
O242 C241 1.245 . S
O243 Co237 2.058 . S
O243 C269 1.269 . S
O244 Co236 2.074 . S
O244 C269 1.257 . S
H245 C270 0.930 . S
H246 C276 0.930 . S
O247 Co236 2.093 . S
O247 C239 1.224 . S
H248 C280 0.929 . S
H249 C282 0.930 . S
H250 C283 0.930 . S
H251 C281 0.929 . S
H252 C284 0.928 . S
O253 Co237 2.057 . S
O253 C241 1.232 . S
H254 C273 0.929 . S
H255 C274 0.929 . S
H256 C286 0.931 . S
H257 C278 0.929 . S
H258 C287 0.930 . S
H259 C279 0.931 . S
O260 Co236 2.097 . S
O260 C288 1.214 1_655 S
H261 C289 0.929 . S
H262 C290 0.929 . S
H263 C291 0.930 . S
H264 C292 0.929 . S
H265 C294 0.930 1_655 S
H266 C271 0.930 . S
H267 C275 0.930 1_545 S
O268 Co237 2.036 . S
O268 C288 1.235 1_655 S
C269 O243 1.269 . S
C269 O244 1.257 . S
C270 H245 0.930 . S
C270 C273 1.388 1_455 S
C270 C275 1.418 . S
C271 H266 0.930 . S
C271 C274 1.404 . S
C271 C275 1.353 1_655 S
N272 Co237 2.145 . S
N272 C273 1.397 . S
N272 C274 1.334 . S
C273 H254 0.929 . S
C273 C270 1.388 1_655 S
C273 N272 1.397 . S
C274 H255 0.929 . S
C274 C271 1.404 . S
C274 N272 1.334 . S
C275 H267 0.930 1_565 S
C275 C270 1.418 . S
C275 C271 1.353 1_455 S
C276 H246 0.930 . S
C276 N277 1.330 . S
C276 C278 1.446 . S
N277 Co236 2.151 . S
N277 C276 1.330 . S
N277 C281 1.418 . S
C278 H257 0.929 . S
C278 C276 1.446 . S
C278 C279 1.332 . S
C279 H259 0.931 . S
C279 C278 1.332 . S
C279 C280 1.267 . S
C280 H248 0.929 . S
C280 C279 1.267 . S
C280 C281 1.251 . S
C281 H251 0.929 . S
C281 N277 1.418 . S
C281 C280 1.251 . S
C282 H249 0.930 . S
C282 C284 1.406 . S
C282 C287 1.261 . S
C283 H250 0.930 . S
C283 N285 1.325 . S
C283 C286 1.357 . S
C284 H252 0.928 . S
C284 C282 1.406 . S
C284 N285 1.261 . S
N285 Co236 2.214 . S
N285 C283 1.325 . S
N285 C284 1.261 . S
C286 H256 0.931 . S
C286 C283 1.357 . S
C286 C287 1.312 . S
C287 H258 0.930 . S
C287 C282 1.261 . S
C287 C286 1.312 . S
C288 O260 1.214 1_455 S
C288 O268 1.235 1_455 S
C289 H261 0.929 . S
C289 C292 1.391 . S
C289 C294 1.391 . S
C290 H262 0.929 . S
C290 C291 1.390 . S
C290 N293 1.391 . S
C291 H263 0.930 . S
C291 C290 1.390 . S
C291 C292 1.392 . S
C292 H264 0.929 . S
C292 C289 1.391 . S
C292 C291 1.392 . S
N293 Co237 2.257 1_455 S
N293 C290 1.391 . S
N293 C294 1.388 . S
C294 H265 0.930 1_455 S
C294 C289 1.391 . S
C294 N293 1.388 . S
Co295 O297 2.143 . S
Co295 O303 2.074 . S
Co295 O306 2.093 . S
Co295 O319 2.097 . S
Co295 N336 2.151 . S
Co295 N344 2.214 . S
Co296 O297 2.160 . S
Co296 O302 2.058 . S
Co296 O312 2.057 . S
Co296 O327 2.036 . S
Co296 N331 2.145 . S
Co296 N352 2.257 1_565 S
O297 Co295 2.143 . S
O297 Co296 2.160 . S
C298 O299 1.278 . S
C298 O306 1.224 . S
O299 C298 1.278 . S
C300 O301 1.245 . S
C300 O312 1.232 . S
O301 C300 1.245 . S
O302 Co296 2.058 . S
O302 C328 1.269 . S
O303 Co295 2.074 . S
O303 C328 1.257 . S
H304 C329 0.930 . S
H305 C335 0.930 . S
O306 Co295 2.093 . S
O306 C298 1.224 . S
H307 C339 0.929 . S
H308 C341 0.930 . S
H309 C342 0.930 . S
H310 C340 0.929 . S
H311 C343 0.928 . S
O312 Co296 2.057 . S
O312 C300 1.232 . S
H313 C332 0.929 . S
H314 C333 0.929 . S
H315 C345 0.931 . S
H316 C337 0.929 . S
H317 C346 0.930 . S
H318 C338 0.931 . S
O319 Co295 2.097 . S
O319 C347 1.214 1_565 S
H320 C348 0.929 . S
H321 C349 0.929 . S
H322 C350 0.930 . S
H323 C351 0.929 . S
H324 C353 0.930 1_565 S
H325 C330 0.930 . S
H326 C334 0.930 . S
O327 Co296 2.036 . S
O327 C347 1.234 1_565 S
C328 O302 1.269 . S
C328 O303 1.257 . S
C329 H304 0.930 . S
C329 C332 1.388 1_545 S
C329 C334 1.418 . S
C330 H325 0.930 . S
C330 C333 1.404 . S
C330 C334 1.353 1_565 S
N331 Co296 2.145 . S
N331 C332 1.397 . S
N331 C333 1.334 . S
C332 H313 0.929 . S
C332 C329 1.388 1_565 S
C332 N331 1.397 . S
C333 H314 0.929 . S
C333 C330 1.404 . S
C333 N331 1.334 . S
C334 H326 0.930 . S
C334 C329 1.418 . S
C334 C330 1.353 1_545 S
C335 H305 0.930 . S
C335 N336 1.330 . S
C335 C337 1.446 . S
N336 Co295 2.151 . S
N336 C335 1.330 . S
N336 C340 1.418 . S
C337 H316 0.929 . S
C337 C335 1.446 . S
C337 C338 1.332 . S
C338 H318 0.931 . S
C338 C337 1.332 . S
C338 C339 1.267 . S
C339 H307 0.929 . S
C339 C338 1.267 . S
C339 C340 1.251 . S
C340 H310 0.929 . S
C340 N336 1.418 . S
C340 C339 1.251 . S
C341 H308 0.930 . S
C341 C343 1.406 . S
C341 C346 1.261 . S
C342 H309 0.930 . S
C342 N344 1.325 . S
C342 C345 1.357 . S
C343 H311 0.928 . S
C343 C341 1.406 . S
C343 N344 1.261 . S
N344 Co295 2.214 . S
N344 C342 1.325 . S
N344 C343 1.261 . S
C345 H315 0.931 . S
C345 C342 1.357 . S
C345 C346 1.312 . S
C346 H317 0.930 . S
C346 C341 1.261 . S
C346 C345 1.312 . S
C347 O319 1.214 1_545 S
C347 O327 1.234 1_545 S
C348 H320 0.929 . S
C348 C351 1.391 . S
C348 C353 1.391 . S
C349 H321 0.929 . S
C349 C350 1.390 . S
C349 N352 1.391 . S
C350 H322 0.930 . S
C350 C349 1.390 . S
C350 C351 1.392 . S
C351 H323 0.929 . S
C351 C348 1.391 . S
C351 C350 1.392 . S
N352 Co296 2.257 1_545 S
N352 C349 1.391 . S
N352 C353 1.388 . S
C353 H324 0.930 1_545 S
C353 C348 1.391 . S
C353 N352 1.388 . S
Co354 O356 2.143 . S
Co354 O362 2.074 . S
Co354 O365 2.093 . S
Co354 O378 2.097 . S
Co354 N395 2.151 . S
Co354 N403 2.214 . S
Co355 O356 2.160 . S
Co355 O361 2.058 . S
Co355 O371 2.057 . S
Co355 O386 2.037 . S
Co355 N390 2.145 . S
Co355 N411 2.257 . S
O356 Co354 2.143 . S
O356 Co355 2.160 . S
C357 O358 1.278 . S
C357 O365 1.224 . S
O358 C357 1.278 . S
C359 O360 1.245 . S
C359 O371 1.232 . S
O360 C359 1.245 . S
O361 Co355 2.058 . S
O361 C387 1.269 . S
O362 Co354 2.074 . S
O362 C387 1.257 . S
H363 C388 0.930 . S
H364 C394 0.930 . S
O365 Co354 2.093 . S
O365 C357 1.224 . S
H366 C398 0.929 . S
H367 C400 0.930 . S
H368 C401 0.930 . S
H369 C399 0.929 . S
H370 C402 0.928 . S
O371 Co355 2.057 . S
O371 C359 1.232 . S
H372 C391 0.929 . S
H373 C392 0.929 . S
H374 C404 0.931 . S
H375 C396 0.929 . S
H376 C405 0.930 . S
H377 C397 0.931 . S
O378 Co354 2.097 . S
O378 C406 1.214 . S
H379 C407 0.929 . S
H380 C408 0.929 . S
H381 C409 0.930 . S
H382 C410 0.929 . S
H383 C412 0.930 . S
H384 C389 0.930 . S
H385 C393 0.930 1_545 S
O386 Co355 2.037 . S
O386 C406 1.234 . S
C387 O361 1.269 . S
C387 O362 1.257 . S
C388 H363 0.930 . S
C388 C391 1.388 . S
C388 C393 1.418 . S
C389 H384 0.930 . S
C389 C392 1.404 . S
C389 C393 1.353 . S
N390 Co355 2.145 . S
N390 C391 1.397 . S
N390 C392 1.334 . S
C391 H372 0.929 . S
C391 C388 1.388 . S
C391 N390 1.397 . S
C392 H373 0.929 . S
C392 C389 1.404 . S
C392 N390 1.334 . S
C393 H385 0.930 1_565 S
C393 C388 1.418 . S
C393 C389 1.353 . S
C394 H364 0.930 . S
C394 N395 1.330 . S
C394 C396 1.446 . S
N395 Co354 2.151 . S
N395 C394 1.330 . S
N395 C399 1.418 . S
C396 H375 0.929 . S
C396 C394 1.446 . S
C396 C397 1.332 . S
C397 H377 0.931 . S
C397 C396 1.332 . S
C397 C398 1.267 . S
C398 H366 0.929 . S
C398 C397 1.267 . S
C398 C399 1.251 . S
C399 H369 0.929 . S
C399 N395 1.418 . S
C399 C398 1.251 . S
C400 H367 0.930 . S
C400 C402 1.406 . S
C400 C405 1.261 . S
C401 H368 0.930 . S
C401 N403 1.325 . S
C401 C404 1.357 . S
C402 H370 0.928 . S
C402 C400 1.406 . S
C402 N403 1.261 . S
N403 Co354 2.214 . S
N403 C401 1.325 . S
N403 C402 1.261 . S
C404 H374 0.931 . S
C404 C401 1.357 . S
C404 C405 1.312 . S
C405 H376 0.930 . S
C405 C400 1.261 . S
C405 C404 1.312 . S
C406 O378 1.214 . S
C406 O386 1.234 . S
C407 H379 0.929 . S
C407 C410 1.391 . S
C407 C412 1.391 . S
C408 H380 0.929 . S
C408 C409 1.390 . S
C408 N411 1.391 . S
C409 H381 0.930 . S
C409 C408 1.390 . S
C409 C410 1.392 . S
C410 H382 0.929 . S
C410 C407 1.391 . S
C410 C409 1.392 . S
N411 Co355 2.257 . S
N411 C408 1.391 . S
N411 C412 1.388 . S
C412 H383 0.930 . S
C412 C407 1.391 . S
C412 N411 1.388 . S
Co413 O415 2.143 . S
Co413 O421 2.074 . S
Co413 O424 2.093 . S
Co413 O437 2.097 . S
Co413 N454 2.151 . S
Co413 N462 2.214 1_556 S
Co414 O415 2.160 . S
Co414 O420 2.058 . S
Co414 O430 2.057 . S
Co414 O445 2.036 . S
Co414 N449 2.145 . S
Co414 N470 2.257 1_455 S
O415 Co413 2.143 . S
O415 Co414 2.160 . S
C416 O417 1.278 . S
C416 O424 1.224 . S
O417 C416 1.278 . S
C418 O419 1.245 . S
C418 O430 1.232 . S
O419 C418 1.245 . S
O420 Co414 2.058 . S
O420 C446 1.269 . S
O421 Co413 2.074 . S
O421 C446 1.257 . S
H422 C447 0.930 . S
H423 C453 0.930 . S
O424 Co413 2.093 . S
O424 C416 1.224 . S
H425 C457 0.929 1_554 S
H426 C459 0.930 . S
H427 C460 0.930 . S
H428 C458 0.929 1_554 S
H429 C461 0.928 . S
O430 Co414 2.057 . S
O430 C418 1.232 . S
H431 C450 0.929 . S
H432 C451 0.929 . S
H433 C463 0.931 . S
H434 C455 0.929 . S
H435 C464 0.930 . S
H436 C456 0.931 . S
O437 Co413 2.097 . S
O437 C465 1.214 1_455 S
H438 C466 0.929 . S
H439 C467 0.929 . S
H440 C468 0.930 . S
H441 C469 0.929 . S
H442 C471 0.930 1_455 S
H443 C448 0.930 . S
H444 C452 0.930 . S
O445 Co414 2.036 . S
O445 C465 1.234 1_455 S
C446 O420 1.269 . S
C446 O421 1.257 . S
C447 H422 0.930 . S
C447 C450 1.388 1_655 S
C447 C452 1.418 . S
C448 H443 0.930 . S
C448 C451 1.404 . S
C448 C452 1.353 1_455 S
N449 Co414 2.145 . S
N449 C450 1.397 . S
N449 C451 1.334 . S
C450 H431 0.929 . S
C450 C447 1.388 1_455 S
C450 N449 1.397 . S
C451 H432 0.929 . S
C451 C448 1.404 . S
C451 N449 1.334 . S
C452 H444 0.930 . S
C452 C447 1.418 . S
C452 C448 1.353 1_655 S
C453 H423 0.930 . S
C453 N454 1.330 . S
C453 C455 1.446 . S
N454 Co413 2.151 . S
N454 C453 1.330 . S
N454 C458 1.418 . S
C455 H434 0.929 . S
C455 C453 1.446 . S
C455 C456 1.332 . S
C456 H436 0.931 . S
C456 C455 1.332 . S
C456 C457 1.267 . S
C457 H425 0.929 1_556 S
C457 C456 1.267 . S
C457 C458 1.251 . S
C458 H428 0.929 1_556 S
C458 N454 1.418 . S
C458 C457 1.251 . S
C459 H426 0.930 . S
C459 C461 1.406 . S
C459 C464 1.261 . S
C460 H427 0.930 . S
C460 N462 1.325 . S
C460 C463 1.357 . S
C461 H429 0.928 . S
C461 C459 1.406 . S
C461 N462 1.261 . S
N462 Co413 2.214 1_554 S
N462 C460 1.325 . S
N462 C461 1.261 . S
C463 H433 0.931 . S
C463 C460 1.357 . S
C463 C464 1.312 . S
C464 H435 0.930 . S
C464 C459 1.261 . S
C464 C463 1.312 . S
C465 O437 1.214 1_655 S
C465 O445 1.234 1_655 S
C466 H438 0.929 . S
C466 C469 1.391 . S
C466 C471 1.391 . S
C467 H439 0.929 . S
C467 C468 1.390 . S
C467 N470 1.391 . S
C468 H440 0.930 . S
C468 C467 1.390 . S
C468 C469 1.392 . S
C469 H441 0.929 . S
C469 C466 1.391 . S
C469 C468 1.392 . S
N470 Co414 2.257 1_655 S
N470 C467 1.391 . S
N470 C471 1.388 . S
C471 H442 0.930 1_655 S
C471 C466 1.391 . S
C471 N470 1.388 . S
Co472 O474 2.143 . S
Co472 O480 2.074 . S
Co472 O483 2.093 . S
Co472 O496 2.097 . S
Co472 N513 2.151 . S
Co472 N521 2.214 . S
Co473 O474 2.160 . S
Co473 O479 2.058 . S
Co473 O489 2.057 . S
Co473 O504 2.038 1_545 S
Co473 N508 2.145 . S
Co473 N529 2.257 1_545 S
O474 Co472 2.143 . S
O474 Co473 2.160 . S
C475 O476 1.278 . S
C475 O483 1.224 . S
O476 C475 1.278 . S
C477 O478 1.245 . S
C477 O489 1.232 . S
O478 C477 1.245 . S
O479 Co473 2.058 . S
O479 C505 1.269 . S
O480 Co472 2.074 . S
O480 C505 1.257 . S
H481 C506 0.930 . S
H482 C512 0.930 . S
O483 Co472 2.093 . S
O483 C475 1.224 . S
H484 C516 0.929 . S
H485 C518 0.930 . S
H486 C519 0.930 . S
H487 C517 0.929 . S
H488 C520 0.928 . S
O489 Co473 2.057 . S
O489 C477 1.232 . S
H490 C509 0.929 . S
H491 C510 0.929 . S
H492 C522 0.931 . S
H493 C514 0.929 . S
H494 C523 0.930 . S
H495 C515 0.931 . S
O496 Co472 2.097 . S
O496 C524 1.214 1_545 S
H497 C525 0.929 . S
H498 C526 0.929 . S
H499 C527 0.930 . S
H500 C528 0.929 . S
H501 C530 0.930 1_545 S
H502 C507 0.930 . S
H503 C511 0.930 1_655 S
O504 Co473 2.038 1_565 S
O504 C524 1.232 . S
C505 O479 1.269 . S
C505 O480 1.257 . S
C506 H481 0.930 . S
C506 C509 1.388 1_565 S
C506 C511 1.418 . S
C507 H502 0.930 . S
C507 C510 1.404 . S
C507 C511 1.353 1_545 S
N508 Co473 2.145 . S
N508 C509 1.397 . S
N508 C510 1.334 . S
C509 H490 0.929 . S
C509 C506 1.388 1_545 S
C509 N508 1.397 . S
C510 H491 0.929 . S
C510 C507 1.404 . S
C510 N508 1.334 . S
C511 H503 0.930 1_455 S
C511 C506 1.418 . S
C511 C507 1.353 1_565 S
C512 H482 0.930 . S
C512 N513 1.330 . S
C512 C514 1.446 . S
N513 Co472 2.151 . S
N513 C512 1.330 . S
N513 C517 1.418 . S
C514 H493 0.929 . S
C514 C512 1.446 . S
C514 C515 1.332 . S
C515 H495 0.931 . S
C515 C514 1.332 . S
C515 C516 1.267 . S
C516 H484 0.929 . S
C516 C515 1.267 . S
C516 C517 1.251 . S
C517 H487 0.929 . S
C517 N513 1.418 . S
C517 C516 1.251 . S
C518 H485 0.930 . S
C518 C520 1.406 . S
C518 C523 1.261 . S
C519 H486 0.930 . S
C519 N521 1.325 . S
C519 C522 1.357 . S
C520 H488 0.928 . S
C520 C518 1.406 . S
C520 N521 1.261 . S
N521 Co472 2.214 . S
N521 C519 1.325 . S
N521 C520 1.261 . S
C522 H492 0.931 . S
C522 C519 1.357 . S
C522 C523 1.312 . S
C523 H494 0.930 . S
C523 C518 1.261 . S
C523 C522 1.312 . S
C524 O496 1.214 1_565 S
C524 O504 1.232 . S
C525 H497 0.929 . S
C525 C528 1.391 . S
C525 C530 1.391 . S
C526 H498 0.929 . S
C526 C527 1.390 . S
C526 N529 1.391 . S
C527 H499 0.930 . S
C527 C526 1.390 . S
C527 C528 1.392 . S
C528 H500 0.929 . S
C528 C525 1.391 . S
C528 C527 1.392 . S
N529 Co473 2.257 1_565 S
N529 C526 1.391 . S
N529 C530 1.388 . S
C530 H501 0.930 1_565 S
C530 C525 1.391 . S
C530 N529 1.388 . S
Co531 O533 2.143 . S
Co531 O539 2.074 . S
Co531 O542 2.093 . S
Co531 O555 2.097 . S
Co531 N572 2.151 . S
Co531 N580 2.214 . S
Co532 O533 2.160 . S
Co532 O538 2.058 . S
Co532 O548 2.057 . S
Co532 O563 2.037 . S
Co532 N567 2.145 . S
Co532 N588 2.257 . S
O533 Co531 2.143 . S
O533 Co532 2.160 . S
C534 O535 1.278 . S
C534 O542 1.224 . S
O535 C534 1.278 . S
C536 O537 1.245 . S
C536 O548 1.232 . S
O537 C536 1.245 . S
O538 Co532 2.058 . S
O538 C564 1.269 . S
O539 Co531 2.074 . S
O539 C564 1.257 . S
H540 C565 0.930 . S
H541 C571 0.930 . S
O542 Co531 2.093 . S
O542 C534 1.224 . S
H543 C575 0.929 . S
H544 C577 0.930 . S
H545 C578 0.930 . S
H546 C576 0.929 . S
H547 C579 0.928 . S
O548 Co532 2.057 . S
O548 C536 1.232 . S
H549 C568 0.929 . S
H550 C569 0.929 . S
H551 C581 0.931 . S
H552 C573 0.929 . S
H553 C582 0.930 . S
H554 C574 0.931 . S
O555 Co531 2.097 . S
O555 C583 1.214 . S
H556 C584 0.929 . S
H557 C585 0.929 . S
H558 C586 0.930 . S
H559 C587 0.929 . S
H560 C589 0.930 . S
H561 C566 0.930 . S
H562 C570 0.930 1_565 S
O563 Co532 2.037 . S
O563 C583 1.234 . S
C564 O538 1.269 . S
C564 O539 1.257 . S
C565 H540 0.930 . S
C565 C568 1.388 . S
C565 C570 1.418 . S
C566 H561 0.930 . S
C566 C569 1.404 . S
C566 C570 1.353 . S
N567 Co532 2.145 . S
N567 C568 1.397 . S
N567 C569 1.334 . S
C568 H549 0.929 . S
C568 C565 1.388 . S
C568 N567 1.397 . S
C569 H550 0.929 . S
C569 C566 1.404 . S
C569 N567 1.334 . S
C570 H562 0.930 1_545 S
C570 C565 1.418 . S
C570 C566 1.353 . S
C571 H541 0.930 . S
C571 N572 1.330 . S
C571 C573 1.446 . S
N572 Co531 2.151 . S
N572 C571 1.330 . S
N572 C576 1.418 . S
C573 H552 0.929 . S
C573 C571 1.446 . S
C573 C574 1.332 . S
C574 H554 0.931 . S
C574 C573 1.332 . S
C574 C575 1.267 . S
C575 H543 0.929 . S
C575 C574 1.267 . S
C575 C576 1.251 . S
C576 H546 0.929 . S
C576 N572 1.418 . S
C576 C575 1.251 . S
C577 H544 0.930 . S
C577 C579 1.406 . S
C577 C582 1.261 . S
C578 H545 0.930 . S
C578 N580 1.325 . S
C578 C581 1.357 . S
C579 H547 0.928 . S
C579 C577 1.406 . S
C579 N580 1.261 . S
N580 Co531 2.214 . S
N580 C578 1.325 . S
N580 C579 1.261 . S
C581 H551 0.931 . S
C581 C578 1.357 . S
C581 C582 1.312 . S
C582 H553 0.930 . S
C582 C577 1.261 . S
C582 C581 1.312 . S
C583 O555 1.214 . S
C583 O563 1.234 . S
C584 H556 0.929 . S
C584 C587 1.391 . S
C584 C589 1.391 . S
C585 H557 0.929 . S
C585 C586 1.390 . S
C585 N588 1.391 . S
C586 H558 0.930 . S
C586 C585 1.390 . S
C586 C587 1.392 . S
C587 H559 0.929 . S
C587 C584 1.391 . S
C587 C586 1.392 . S
N588 Co532 2.257 . S
N588 C585 1.391 . S
N588 C589 1.388 . S
C589 H560 0.930 . S
C589 C584 1.391 . S
C589 N588 1.388 . S
Co590 O592 2.143 . S
Co590 O598 2.074 . S
Co590 O601 2.093 . S
Co590 O614 2.097 . S
Co590 N631 2.151 . S
Co590 N639 2.214 1_556 S
Co591 O592 2.160 . S
Co591 O597 2.058 . S
Co591 O607 2.057 . S
Co591 O622 2.036 . S
Co591 N626 2.145 . S
Co591 N647 2.257 1_655 S
O592 Co590 2.143 . S
O592 Co591 2.160 . S
C593 O594 1.278 . S
C593 O601 1.224 . S
O594 C593 1.278 . S
C595 O596 1.245 . S
C595 O607 1.232 . S
O596 C595 1.245 . S
O597 Co591 2.058 . S
O597 C623 1.269 . S
O598 Co590 2.074 . S
O598 C623 1.257 . S
H599 C624 0.930 . S
H600 C630 0.930 . S
O601 Co590 2.093 . S
O601 C593 1.224 . S
H602 C634 0.929 1_554 S
H603 C636 0.930 . S
H604 C637 0.930 . S
H605 C635 0.929 1_554 S
H606 C638 0.928 . S
O607 Co591 2.057 . S
O607 C595 1.232 . S
H608 C627 0.929 . S
H609 C628 0.929 . S
H610 C640 0.931 . S
H611 C632 0.929 . S
H612 C641 0.930 . S
H613 C633 0.931 . S
O614 Co590 2.097 . S
O614 C642 1.214 1_655 S
H615 C643 0.929 . S
H616 C644 0.929 . S
H617 C645 0.930 . S
H618 C646 0.929 . S
H619 C648 0.930 1_655 S
H620 C625 0.930 . S
H621 C629 0.930 . S
O622 Co591 2.036 . S
O622 C642 1.234 1_655 S
C623 O597 1.269 . S
C623 O598 1.257 . S
C624 H599 0.930 . S
C624 C627 1.388 1_455 S
C624 C629 1.418 . S
C625 H620 0.930 . S
C625 C628 1.404 . S
C625 C629 1.353 1_655 S
N626 Co591 2.145 . S
N626 C627 1.397 . S
N626 C628 1.334 . S
C627 H608 0.929 . S
C627 C624 1.388 1_655 S
C627 N626 1.397 . S
C628 H609 0.929 . S
C628 C625 1.404 . S
C628 N626 1.334 . S
C629 H621 0.930 . S
C629 C624 1.418 . S
C629 C625 1.353 1_455 S
C630 H600 0.930 . S
C630 N631 1.330 . S
C630 C632 1.446 . S
N631 Co590 2.151 . S
N631 C630 1.330 . S
N631 C635 1.418 . S
C632 H611 0.929 . S
C632 C630 1.446 . S
C632 C633 1.332 . S
C633 H613 0.931 . S
C633 C632 1.332 . S
C633 C634 1.267 . S
C634 H602 0.929 1_556 S
C634 C633 1.267 . S
C634 C635 1.251 . S
C635 H605 0.929 1_556 S
C635 N631 1.418 . S
C635 C634 1.251 . S
C636 H603 0.930 . S
C636 C638 1.406 . S
C636 C641 1.261 . S
C637 H604 0.930 . S
C637 N639 1.325 . S
C637 C640 1.357 . S
C638 H606 0.928 . S
C638 C636 1.406 . S
C638 N639 1.261 . S
N639 Co590 2.214 1_554 S
N639 C637 1.325 . S
N639 C638 1.261 . S
C640 H610 0.931 . S
C640 C637 1.357 . S
C640 C641 1.312 . S
C641 H612 0.930 . S
C641 C636 1.261 . S
C641 C640 1.312 . S
C642 O614 1.214 1_455 S
C642 O622 1.234 1_455 S
C643 H615 0.929 . S
C643 C646 1.391 . S
C643 C648 1.391 . S
C644 H616 0.929 . S
C644 C645 1.390 . S
C644 N647 1.391 . S
C645 H617 0.930 . S
C645 C644 1.390 . S
C645 C646 1.392 . S
C646 H618 0.929 . S
C646 C643 1.391 . S
C646 C645 1.392 . S
N647 Co591 2.257 1_455 S
N647 C644 1.391 . S
N647 C648 1.388 . S
C648 H619 0.930 1_455 S
C648 C643 1.391 . S
C648 N647 1.388 . S
Co649 O651 2.143 . S
Co649 O657 2.074 . S
Co649 O660 2.093 . S
Co649 O673 2.097 . S
Co649 N690 2.151 . S
Co649 N698 2.214 . S
Co650 O651 2.160 . S
Co650 O656 2.058 . S
Co650 O666 2.057 . S
Co650 O681 2.038 1_565 S
Co650 N685 2.145 . S
Co650 N706 2.257 1_565 S
O651 Co649 2.143 . S
O651 Co650 2.160 . S
C652 O653 1.278 . S
C652 O660 1.224 . S
O653 C652 1.278 . S
C654 O655 1.245 . S
C654 O666 1.232 . S
O655 C654 1.245 . S
O656 Co650 2.058 . S
O656 C682 1.269 . S
O657 Co649 2.074 . S
O657 C682 1.257 . S
H658 C683 0.930 . S
H659 C689 0.930 . S
O660 Co649 2.093 . S
O660 C652 1.224 . S
H661 C693 0.929 . S
H662 C695 0.930 . S
H663 C696 0.930 . S
H664 C694 0.929 . S
H665 C697 0.928 . S
O666 Co650 2.057 . S
O666 C654 1.232 . S
H667 C686 0.929 . S
H668 C687 0.929 . S
H669 C699 0.931 . S
H670 C691 0.929 . S
H671 C700 0.930 . S
H672 C692 0.931 . S
O673 Co649 2.097 . S
O673 C701 1.214 1_565 S
H674 C702 0.929 . S
H675 C703 0.929 . S
H676 C704 0.930 . S
H677 C705 0.929 . S
H678 C707 0.930 1_565 S
H679 C684 0.930 . S
H680 C688 0.930 1_455 S
O681 Co650 2.038 1_545 S
O681 C701 1.232 . S
C682 O656 1.269 . S
C682 O657 1.257 . S
C683 H658 0.930 . S
C683 C686 1.388 1_545 S
C683 C688 1.418 . S
C684 H679 0.930 . S
C684 C687 1.404 . S
C684 C688 1.353 1_565 S
N685 Co650 2.145 . S
N685 C686 1.397 . S
N685 C687 1.334 . S
C686 H667 0.929 . S
C686 C683 1.388 1_565 S
C686 N685 1.397 . S
C687 H668 0.929 . S
C687 C684 1.404 . S
C687 N685 1.334 . S
C688 H680 0.930 1_655 S
C688 C683 1.418 . S
C688 C684 1.353 1_545 S
C689 H659 0.930 . S
C689 N690 1.330 . S
C689 C691 1.446 . S
N690 Co649 2.151 . S
N690 C689 1.330 . S
N690 C694 1.418 . S
C691 H670 0.929 . S
C691 C689 1.446 . S
C691 C692 1.332 . S
C692 H672 0.931 . S
C692 C691 1.332 . S
C692 C693 1.267 . S
C693 H661 0.929 . S
C693 C692 1.267 . S
C693 C694 1.251 . S
C694 H664 0.929 . S
C694 N690 1.418 . S
C694 C693 1.251 . S
C695 H662 0.930 . S
C695 C697 1.406 . S
C695 C700 1.261 . S
C696 H663 0.930 . S
C696 N698 1.325 . S
C696 C699 1.357 . S
C697 H665 0.928 . S
C697 C695 1.406 . S
C697 N698 1.261 . S
N698 Co649 2.214 . S
N698 C696 1.325 . S
N698 C697 1.261 . S
C699 H669 0.931 . S
C699 C696 1.357 . S
C699 C700 1.312 . S
C700 H671 0.930 . S
C700 C695 1.261 . S
C700 C699 1.312 . S
C701 O673 1.214 1_545 S
C701 O681 1.232 . S
C702 H674 0.929 . S
C702 C705 1.391 . S
C702 C707 1.391 . S
C703 H675 0.929 . S
C703 C704 1.390 . S
C703 N706 1.391 . S
C704 H676 0.930 . S
C704 C703 1.390 . S
C704 C705 1.392 . S
C705 H677 0.929 . S
C705 C702 1.391 . S
C705 C704 1.392 . S
N706 Co650 2.257 1_545 S
N706 C703 1.391 . S
N706 C707 1.388 . S
C707 H678 0.930 1_545 S
C707 C702 1.391 . S
C707 N706 1.388 . S
C708 C709 1.387 . S
C708 H712 0.950 . S
C708 C717 1.390 . S
C709 C708 1.387 . S
C709 C711 1.387 . S
H710 C717 0.950 . S
C711 C709 1.387 . S
C711 C713 1.390 . S
C711 H715 0.950 . S
H712 C708 0.950 . S
C713 C711 1.390 . S
C713 C714 1.387 . S
C713 H716 0.950 . S
C714 C713 1.387 . S
C714 C717 1.387 . S
H715 C711 0.950 . S
H716 C713 0.950 . S
C717 C708 1.390 . S
C717 H710 0.950 . S
C717 C714 1.387 . S
C718 C719 1.387 . S
C718 H722 0.950 . S
C718 C727 1.390 1_455 S
C719 C718 1.387 . S
C719 C721 1.387 . S
H720 C727 0.950 . S
C721 C719 1.387 . S
C721 C723 1.390 1_455 S
C721 H725 0.950 . S
H722 C718 0.950 . S
C723 C721 1.390 1_655 S
C723 C724 1.387 . S
C723 H726 0.950 . S
C724 C723 1.387 . S
C724 C727 1.387 . S
H725 C721 0.950 . S
H726 C723 0.950 . S
C727 C718 1.390 1_655 S
C727 H720 0.950 . S
C727 C724 1.387 . S
C728 C729 1.387 . S
C728 H732 0.950 . S
C728 C737 1.390 1_565 S
C729 C728 1.387 . S
C729 C731 1.387 . S
H730 C737 0.950 . S
C731 C729 1.387 . S
C731 C733 1.390 1_565 S
C731 H735 0.950 . S
H732 C728 0.950 . S
C733 C731 1.390 1_545 S
C733 C734 1.387 . S
C733 H736 0.950 . S
C734 C733 1.387 . S
C734 C737 1.387 . S
H735 C731 0.950 . S
H736 C733 0.950 . S
C737 C728 1.390 1_545 S
C737 H730 0.950 . S
C737 C734 1.387 . S
C738 C739 1.387 . S
C738 H742 0.950 . S
C738 C747 1.390 . S
C739 C738 1.387 . S
C739 C741 1.387 . S
H740 C747 0.950 . S
C741 C739 1.387 . S
C741 C743 1.390 . S
C741 H745 0.950 . S
H742 C738 0.950 . S
C743 C741 1.390 . S
C743 C744 1.387 . S
C743 H746 0.950 . S
C744 C743 1.387 . S
C744 C747 1.387 . S
H745 C741 0.950 . S
H746 C743 0.950 . S
C747 C738 1.390 . S
C747 H740 0.950 . S
C747 C744 1.387 . S
C748 C749 1.387 . S
C748 H752 0.950 . S
C748 C757 1.390 1_655 S
C749 C748 1.387 . S
C749 C751 1.387 . S
H750 C757 0.950 . S
C751 C749 1.387 . S
C751 C753 1.390 1_655 S
C751 H755 0.950 . S
H752 C748 0.950 . S
C753 C751 1.390 1_455 S
C753 C754 1.387 . S
C753 H756 0.950 . S
C754 C753 1.387 . S
C754 C757 1.387 . S
H755 C751 0.950 . S
H756 C753 0.950 . S
C757 C748 1.390 1_455 S
C757 H750 0.950 . S
C757 C754 1.387 . S
C758 C759 1.387 . S
C758 H762 0.950 . S
C758 C767 1.390 1_545 S
C759 C758 1.387 . S
C759 C761 1.387 . S
H760 C767 0.950 . S
C761 C759 1.387 . S
C761 C763 1.390 1_545 S
C761 H765 0.950 . S
H762 C758 0.950 . S
C763 C761 1.390 1_565 S
C763 C764 1.387 . S
C763 H766 0.950 . S
C764 C763 1.387 . S
C764 C767 1.387 . S
H765 C761 0.950 . S
H766 C763 0.950 . S
C767 C758 1.390 1_565 S
C767 H760 0.950 . S
C767 C764 1.387 . S
C768 C769 1.387 . S
C768 H772 0.950 . S
C768 C777 1.390 . S
C769 C768 1.387 . S
C769 C771 1.387 . S
H770 C777 0.950 . S
C771 C769 1.387 . S
C771 C773 1.390 . S
C771 H775 0.950 . S
H772 C768 0.950 . S
C773 C771 1.390 . S
C773 C774 1.387 . S
C773 H776 0.950 . S
C774 C773 1.387 . S
C774 C777 1.387 . S
H775 C771 0.950 . S
H776 C773 0.950 . S
C777 C768 1.390 . S
C777 H770 0.950 . S
C777 C774 1.387 . S
C778 C779 1.387 . S
C778 H782 0.950 . S
C778 C787 1.390 . S
C779 C778 1.387 . S
C779 C781 1.387 . S
H780 C787 0.950 . S
C781 C779 1.387 . S
C781 C783 1.390 . S
C781 H785 0.950 . S
H782 C778 0.950 . S
C783 C781 1.390 . S
C783 C784 1.387 . S
C783 H786 0.950 . S
C784 C783 1.387 . S
C784 C787 1.387 . S
H785 C781 0.950 . S
H786 C783 0.950 . S
C787 C778 1.390 . S
C787 H780 0.950 . S
C787 C784 1.387 . S
C788 C789 1.387 . S
C788 H792 0.950 . S
C788 C797 1.390 . S
C789 C788 1.387 . S
C789 C791 1.387 . S
H790 C797 0.950 . S
C791 C789 1.387 . S
C791 C793 1.390 . S
C791 H795 0.950 . S
H792 C788 0.950 . S
C793 C791 1.390 . S
C793 C794 1.387 . S
C793 H796 0.950 . S
C794 C793 1.387 . S
C794 C797 1.387 . S
H795 C791 0.950 . S
H796 C793 0.950 . S
C797 C788 1.390 . S
C797 H790 0.950 . S
C797 C794 1.387 . S
C798 C799 1.387 . S
C798 H802 0.950 . S
C798 C807 1.390 . S
C799 C798 1.387 . S
C799 C801 1.387 . S
H800 C807 0.950 . S
C801 C799 1.387 . S
C801 C803 1.390 . S
C801 H805 0.950 . S
H802 C798 0.950 . S
C803 C801 1.390 . S
C803 C804 1.387 . S
C803 H806 0.950 . S
C804 C803 1.387 . S
C804 C807 1.387 . S
H805 C801 0.950 . S
H806 C803 0.950 . S
C807 C798 1.390 . S
C807 H800 0.950 . S
C807 C804 1.387 . S
C808 C809 1.387 . S
C808 H812 0.950 . S
C808 C817 1.390 . S
C809 C808 1.387 . S
C809 C811 1.387 . S
H810 C817 0.950 . S
C811 C809 1.387 . S
C811 C813 1.390 . S
C811 H815 0.950 . S
H812 C808 0.950 . S
C813 C811 1.390 . S
C813 C814 1.387 . S
C813 H816 0.950 . S
C814 C813 1.387 . S
C814 C817 1.387 . S
H815 C811 0.950 . S
H816 C813 0.950 . S
C817 C808 1.390 . S
C817 H810 0.950 . S
C817 C814 1.387 . S
C818 C819 1.387 . S
C818 H822 0.950 . S
C818 C827 1.390 . S
C819 C818 1.387 . S
C819 C821 1.387 . S
H820 C827 0.950 . S
C821 C819 1.387 . S
C821 C823 1.390 . S
C821 H825 0.950 . S
H822 C818 0.950 . S
C823 C821 1.390 . S
C823 C824 1.387 . S
C823 H826 0.950 . S
C824 C823 1.387 . S
C824 C827 1.387 . S
H825 C821 0.950 . S
H826 C823 0.950 . S
C827 C818 1.390 . S
C827 H820 0.950 . S
C827 C824 1.387 . S
C828 C829 1.387 . S
C828 H832 0.950 . S
C828 C837 1.390 1_566 S
C829 C828 1.387 . S
C829 C831 1.387 . S
H830 C837 0.950 . S
C831 C829 1.387 . S
C831 C833 1.390 1_566 S
C831 H835 0.950 . S
H832 C828 0.950 . S
C833 C831 1.390 1_544 S
C833 C834 1.387 . S
C833 H836 0.950 . S
C834 C833 1.387 . S
C834 C837 1.387 . S
H835 C831 0.950 . S
H836 C833 0.950 . S
C837 C828 1.390 1_544 S
C837 H830 0.950 . S
C837 C834 1.387 . S
C838 C839 1.387 . S
C838 H842 0.950 . S
C838 C847 1.390 . S
C839 C838 1.387 . S
C839 C841 1.387 . S
H840 C847 0.950 . S
C841 C839 1.387 . S
C841 C843 1.390 . S
C841 H845 0.950 . S
H842 C838 0.950 . S
C843 C841 1.390 . S
C843 C844 1.387 . S
C843 H846 0.950 . S
C844 C843 1.387 . S
C844 C847 1.387 . S
H845 C841 0.950 . S
H846 C843 0.950 . S
C847 C838 1.390 . S
C847 H840 0.950 . S
C847 C844 1.387 . S
C848 C849 1.387 . S
C848 H852 0.950 . S
C848 C857 1.390 1_655 S
C849 C848 1.387 . S
C849 C851 1.387 . S
H850 C857 0.950 . S
C851 C849 1.387 . S
C851 C853 1.390 1_655 S
C851 H855 0.950 . S
H852 C848 0.950 . S
C853 C851 1.390 1_455 S
C853 C854 1.387 . S
C853 H856 0.950 . S
C854 C853 1.387 . S
C854 C857 1.387 . S
H855 C851 0.950 . S
H856 C853 0.950 . S
C857 C848 1.390 1_455 S
C857 H850 0.950 . S
C857 C854 1.387 . S
C858 C859 1.387 . S
C858 H862 0.950 . S
C858 C867 1.390 1_564 S
C859 C858 1.387 . S
C859 C861 1.387 . S
H860 C867 0.950 . S
C861 C859 1.387 . S
C861 C863 1.390 1_564 S
C861 H865 0.950 . S
H862 C858 0.950 . S
C863 C861 1.390 1_546 S
C863 C864 1.387 . S
C863 H866 0.950 . S
C864 C863 1.387 . S
C864 C867 1.387 . S
H865 C861 0.950 . S
H866 C863 0.950 . S
C867 C858 1.390 1_546 S
C867 H860 0.950 . S
C867 C864 1.387 . S
C868 C869 1.387 . S
C868 H872 0.950 . S
C868 C877 1.390 . S
C869 C868 1.387 . S
C869 C871 1.387 . S
H870 C877 0.950 . S
C871 C869 1.387 . S
C871 C873 1.390 . S
C871 H875 0.950 . S
H872 C868 0.950 . S
C873 C871 1.390 . S
C873 C874 1.387 . S
C873 H876 0.950 . S
C874 C873 1.387 . S
C874 C877 1.387 . S
H875 C871 0.950 . S
H876 C873 0.950 . S
C877 C868 1.390 . S
C877 H870 0.950 . S
C877 C874 1.387 . S
C878 C879 1.387 . S
C878 H882 0.950 . S
C878 C887 1.390 1_455 S
C879 C878 1.387 . S
C879 C881 1.387 . S
H880 C887 0.950 . S
C881 C879 1.387 . S
C881 C883 1.390 1_455 S
C881 H885 0.950 . S
H882 C878 0.950 . S
C883 C881 1.390 1_655 S
C883 C884 1.387 . S
C883 H886 0.950 . S
C884 C883 1.387 . S
C884 C887 1.387 . S
H885 C881 0.950 . S
H886 C883 0.950 . S
C887 C878 1.390 1_655 S
C887 H880 0.950 . S
C887 C884 1.387 . S
C888 C889 1.387 . S
C888 H892 0.950 . S
C888 C897 1.390 1_556 S
C889 C888 1.387 . S
C889 C891 1.387 . S
H890 C897 0.950 . S
C891 C889 1.387 . S
C891 C893 1.390 1_556 S
C891 H895 0.950 . S
H892 C888 0.950 . S
C893 C891 1.390 1_554 S
C893 C894 1.387 . S
C893 H896 0.950 . S
C894 C893 1.387 . S
C894 C897 1.387 . S
H895 C891 0.950 . S
H896 C893 0.950 . S
C897 C888 1.390 1_554 S
C897 H890 0.950 . S
C897 C894 1.387 . S
C898 C899 1.387 . S
C898 H902 0.950 . S
C898 C907 1.390 . S
C899 C898 1.387 . S
C899 C901 1.387 . S
H900 C907 0.950 . S
C901 C899 1.387 . S
C901 C903 1.390 . S
C901 H905 0.950 . S
H902 C898 0.950 . S
C903 C901 1.390 . S
C903 C904 1.387 . S
C903 H906 0.950 . S
C904 C903 1.387 . S
C904 C907 1.387 . S
H905 C901 0.950 . S
H906 C903 0.950 . S
C907 C898 1.390 . S
C907 H900 0.950 . S
C907 C904 1.387 . S
C908 C909 1.387 . S
C908 H912 0.950 . S
C908 C917 1.390 . S
C909 C908 1.387 . S
C909 C911 1.387 . S
H910 C917 0.950 . S
C911 C909 1.387 . S
C911 C913 1.390 . S
C911 H915 0.950 . S
H912 C908 0.950 . S
C913 C911 1.390 . S
C913 C914 1.387 . S
C913 H916 0.950 . S
C914 C913 1.387 . S
C914 C917 1.387 . S
H915 C911 0.950 . S
H916 C913 0.950 . S
C917 C908 1.390 . S
C917 H910 0.950 . S
C917 C914 1.387 . S
C918 C919 1.387 . S
C918 H922 0.950 . S
C918 C927 1.390 1_554 S
C919 C918 1.387 . S
C919 C921 1.387 . S
H920 C927 0.950 . S
C921 C919 1.387 . S
C921 C923 1.390 1_554 S
C921 H925 0.950 . S
H922 C918 0.950 . S
C923 C921 1.390 1_556 S
C923 C924 1.387 . S
C923 H926 0.950 . S
C924 C923 1.387 . S
C924 C927 1.387 . S
H925 C921 0.950 . S
H926 C923 0.950 . S
C927 C918 1.390 1_556 S
C927 H920 0.950 . S
C927 C924 1.387 . S
C928 C929 1.387 . S
C928 H932 0.950 . S
C928 C937 1.390 . S
C929 C928 1.387 . S
C929 C931 1.387 . S
H930 C937 0.950 . S
C931 C929 1.387 . S
C931 C933 1.390 . S
C931 H935 0.950 . S
H932 C928 0.950 . S
C933 C931 1.390 . S
C933 C934 1.387 . S
C933 H936 0.950 . S
C934 C933 1.387 . S
C934 C937 1.387 . S
H935 C931 0.950 . S
H936 C933 0.950 . S
C937 C928 1.390 . S
C937 H930 0.950 . S
C937 C934 1.387 . S
C938 C939 1.387 . S
C938 H942 0.950 . S
C938 C947 1.390 . S
C939 C938 1.387 . S
C939 C941 1.387 . S
H940 C947 0.950 . S
C941 C939 1.387 . S
C941 C943 1.390 . S
C941 H945 0.950 . S
H942 C938 0.950 . S
C943 C941 1.390 . S
C943 C944 1.387 . S
C943 H946 0.950 . S
C944 C943 1.387 . S
C944 C947 1.387 . S
H945 C941 0.950 . S
H946 C943 0.950 . S
C947 C938 1.390 . S
C947 H940 0.950 . S
C947 C944 1.387 . S
C709 C180 1.388 . S
C714 C3 1.388 . S
C719 C62 1.388 . S
C724 C239 1.388 . S
C729 C298 1.390 . S
C734 C121 1.390 . S
C739 C357 1.388 . S
C744 C534 1.388 . S
C749 C593 1.388 . S
C754 C416 1.388 . S
C759 C475 1.390 . S
C764 C652 1.390 . S
C769 C477 1.627 . S
C774 C5 1.627 . S
C779 C64 1.627 . S
C784 C536 1.627 . S
C789 C123 1.627 . S
C794 C595 1.627 . S
C799 C182 1.627 . S
C804 C654 1.627 . S
C809 C359 1.628 . S
C814 C241 1.628 . S
C819 C418 1.627 . S
C824 C300 1.627 . S
C829 C446 1.585 . S
C834 C33 1.585 . S
C839 C92 1.585 . S
C844 C505 1.584 . S
C849 C151 1.585 . S
C854 C564 1.584 . S
C859 C210 1.585 . S
C864 C623 1.585 . S
C869 C682 1.585 . S
C874 C269 1.584 . S
C879 C328 1.585 . S
C884 C387 1.584 . S
C889 C642 1.514 . S
C894 C52 1.514 . S
C899 C701 1.513 . S
C904 C111 1.513 . S
C909 C406 1.513 . S
C914 C170 1.513 . S
C919 C229 1.514 . S
C924 C465 1.514 . S
C929 C288 1.513 . S
C934 C524 1.513 . S
C939 C347 1.513 . S
C944 C583 1.514 . S
