# Generated by pormake.
# Topology upc, (4)-cn, num edge types: 1
# Building blocks:
#     Node 0, Type 0, BuildingBlock: QUQFOY_clean_sbu_1, # of connection points: 4
#     Node 1, Type 0, BuildingBlock: QUQFOY_clean_sbu_1, # of connection points: 4
#     Node 2, Type 0, BuildingBlock: QUQFOY_clean_sbu_1, # of connection points: 4
#     Node 3, Type 0, BuildingBlock: QUQFOY_clean_sbu_1, # of connection points: 4
#     Node 4, Type 0, BuildingBlock: QUQFOY_clean_sbu_1, # of connection points: 4
#     Node 5, Type 0, BuildingBlock: QUQFOY_clean_sbu_1, # of connection points: 4
#     Node 6, Type 0, BuildingBlock: QUQFOY_clean_sbu_1, # of connection points: 4
#     Node 7, Type 0, BuildingBlock: QUQFOY_clean_sbu_1, # of connection points: 4
#     Node 8, Type 0, BuildingBlock: QUQFOY_clean_sbu_1, # of connection points: 4
#     Node 9, Type 0, BuildingBlock: QUQFOY_clean_sbu_1, # of connection points: 4
#     Node 10, Type 0, BuildingBlock: QUQFOY_clean_sbu_1, # of connection points: 4
#     Node 11, Type 0, BuildingBlock: QUQFOY_clean_sbu_1, # of connection points: 4
#     Node 12, Type 0, BuildingBlock: QUQFOY_clean_sbu_1, # of connection points: 4
#     Node 13, Type 0, BuildingBlock: QUQFOY_clean_sbu_1, # of connection points: 4
#     Node 14, Type 0, BuildingBlock: QUQFOY_clean_sbu_1, # of connection points: 4
#     Node 15, Type 0, BuildingBlock: QUQFOY_clean_sbu_1, # of connection points: 4
#     Edge 16, Type (0, 0), BuildingBlock: EYOCIG_clean_linker_4, # of connection points: 2
#     Edge 17, Type (0, 0), BuildingBlock: EYOCIG_clean_linker_4, # of connection points: 2
#     Edge 18, Type (0, 0), BuildingBlock: EYOCIG_clean_linker_4, # of connection points: 2
#     Edge 19, Type (0, 0), BuildingBlock: EYOCIG_clean_linker_4, # of connection points: 2
#     Edge 20, Type (0, 0), BuildingBlock: EYOCIG_clean_linker_4, # of connection points: 2
#     Edge 21, Type (0, 0), BuildingBlock: EYOCIG_clean_linker_4, # of connection points: 2
#     Edge 22, Type (0, 0), BuildingBlock: EYOCIG_clean_linker_4, # of connection points: 2
#     Edge 23, Type (0, 0), BuildingBlock: EYOCIG_clean_linker_4, # of connection points: 2
#     Edge 24, Type (0, 0), BuildingBlock: EYOCIG_clean_linker_4, # of connection points: 2
#     Edge 25, Type (0, 0), BuildingBlock: EYOCIG_clean_linker_4, # of connection points: 2
#     Edge 26, Type (0, 0), BuildingBlock: EYOCIG_clean_linker_4, # of connection points: 2
#     Edge 27, Type (0, 0), BuildingBlock: EYOCIG_clean_linker_4, # of connection points: 2
#     Edge 28, Type (0, 0), BuildingBlock: EYOCIG_clean_linker_4, # of connection points: 2
#     Edge 29, Type (0, 0), BuildingBlock: EYOCIG_clean_linker_4, # of connection points: 2
#     Edge 30, Type (0, 0), BuildingBlock: EYOCIG_clean_linker_4, # of connection points: 2
#     Edge 31, Type (0, 0), BuildingBlock: EYOCIG_clean_linker_4, # of connection points: 2
#     Edge 32, Type (0, 0), BuildingBlock: EYOCIG_clean_linker_4, # of connection points: 2
#     Edge 33, Type (0, 0), BuildingBlock: EYOCIG_clean_linker_4, # of connection points: 2
#     Edge 34, Type (0, 0), BuildingBlock: EYOCIG_clean_linker_4, # of connection points: 2
#     Edge 35, Type (0, 0), BuildingBlock: EYOCIG_clean_linker_4, # of connection points: 2
#     Edge 36, Type (0, 0), BuildingBlock: EYOCIG_clean_linker_4, # of connection points: 2
#     Edge 37, Type (0, 0), BuildingBlock: EYOCIG_clean_linker_4, # of connection points: 2
#     Edge 38, Type (0, 0), BuildingBlock: EYOCIG_clean_linker_4, # of connection points: 2
#     Edge 39, Type (0, 0), BuildingBlock: EYOCIG_clean_linker_4, # of connection points: 2
#     Edge 40, Type (0, 0), BuildingBlock: EYOCIG_clean_linker_4, # of connection points: 2
#     Edge 41, Type (0, 0), BuildingBlock: EYOCIG_clean_linker_4, # of connection points: 2
#     Edge 42, Type (0, 0), BuildingBlock: EYOCIG_clean_linker_4, # of connection points: 2
#     Edge 43, Type (0, 0), BuildingBlock: EYOCIG_clean_linker_4, # of connection points: 2
#     Edge 44, Type (0, 0), BuildingBlock: EYOCIG_clean_linker_4, # of connection points: 2
#     Edge 45, Type (0, 0), BuildingBlock: EYOCIG_clean_linker_4, # of connection points: 2
#     Edge 46, Type (0, 0), BuildingBlock: EYOCIG_clean_linker_4, # of connection points: 2
#     Edge 47, Type (0, 0), BuildingBlock: EYOCIG_clean_linker_4, # of connection points: 2
# Relax obj value: 0.080
# Max RMSD: 0.195
# Mean RMSD: 0.195
data_MOF--net-upc--node1-QUQFOY_clean_sbu_1--edge1-EYOCIG_clean_linker_4
_symmetry_space_group_name_H-M    P1
_symmetry_Int_Tables_number       1
_symmetry_cell_setting            triclinic
loop_
_symmetry_equiv_pos_as_xyz
'x, y, z'
_cell_length_a     28.692979
_cell_length_b     28.664661
_cell_length_c     33.625736
_cell_angle_alpha  89.984088
_cell_angle_beta   90.001803
_cell_angle_gamma 89.993724
loop_
_atom_site_label
_atom_site_type_symbol
_atom_site_fract_x
_atom_site_fract_y
_atom_site_fract_z
_atom_type_partial_charge
O0 O 1.00153 0.62821 0.17818 0.0
Cd1 Cd 1.01543 0.66703 0.13007 0.0
Cd2 Cd 0.09584 0.67512 0.16643 0.0
O3 O 0.07564 0.61159 0.18976 0.0
O4 O 0.97935 0.63658 0.08605 0.0
O5 O 0.05639 0.63118 0.09247 0.0
C6 C 0.01821 0.61688 0.07586 0.0
C7 C 0.17005 0.703 0.15194 0.0
C8 C 0.03238 0.60549 0.19669 0.0
C9 C 0.02045 0.74459 0.18315 0.0
O10 O 0.05733 0.72419 0.194 0.0
O11 O 1.00183 0.7349 0.14958 0.0
O12 O 0.15931 0.68995 0.1874 0.0
O13 O 0.14043 0.69591 0.1237 0.0
O14 O 0.90478 1.00182 0.17836 0.0
Cd15 Cd 0.86656 1.01615 0.13 0.0
Cd16 Cd 0.85898 0.09652 0.16628 0.0
O17 O 0.92228 0.07584 0.18961 0.0
O18 O 0.89721 0.98001 0.08608 0.0
O19 O 0.90313 0.05704 0.09281 0.0
C20 C 0.91731 0.01879 0.07618 0.0
C21 C 0.83159 0.17082 0.15135 0.0
C22 C 0.92787 0.03251 0.19672 0.0
C23 C 0.78862 0.02187 0.18251 0.0
O24 O 0.80952 0.05835 0.19368 0.0
O25 O 0.79833 1.00331 0.14893 0.0
O26 O 0.84443 0.16024 0.18691 0.0
O27 O 0.83866 0.14096 0.12327 0.0
O28 O 0.53279 0.9045 0.17862 0.0
Cd29 Cd 0.51843 0.86673 0.13008 0.0
Cd30 Cd 0.43773 0.8591 0.16642 0.0
O31 O 0.45889 0.92194 0.1903 0.0
O32 O 0.55468 0.89759 0.08635 0.0
O33 O 0.47771 0.90361 0.09304 0.0
C34 C 0.51597 0.91781 0.07649 0.0
C35 C 0.36288 0.83283 0.15216 0.0
C36 C 0.50221 0.92732 0.19732 0.0
C37 C 0.51237 0.78841 0.18225 0.0
O38 O 0.47569 0.80901 0.19331 0.0
O39 O 0.53105 0.79838 0.14877 0.0
O40 O 0.37422 0.845 0.1877 0.0
O41 O 0.39234 0.83989 0.12379 0.0
O42 O 0.62842 0.53273 0.17851 0.0
Cd43 Cd 0.6667 0.519 0.13007 0.0
Cd44 Cd 0.67452 0.43811 0.16612 0.0
O45 O 0.61122 0.45858 0.18959 0.0
O46 O 0.6359 0.55559 0.08649 0.0
O47 O 0.63039 0.47843 0.09248 0.0
C48 C 0.61601 0.51684 0.07622 0.0
C49 C 0.70162 0.3636 0.15138 0.0
C50 C 0.60546 0.50186 0.19678 0.0
C51 C 0.74472 0.5131 0.18245 0.0
O52 O 0.72403 0.4764 0.19344 0.0
O53 O 0.73487 0.53189 0.14898 0.0
O54 O 0.6891 0.37443 0.18695 0.0
O55 O 0.6945 0.39337 0.12322 0.0
O56 O 1.00132 0.90567 0.36494 0.0
Cd57 Cd 1.01491 0.86717 0.41337 0.0
Cd58 Cd 0.09572 0.85924 0.37721 0.0
O59 O 0.0754 0.92245 0.35346 0.0
O60 O 0.97826 0.89771 0.457 0.0
O61 O 0.05537 0.90308 0.4513 0.0
C62 C 0.01698 0.91739 0.46755 0.0
C63 C 0.17029 0.83239 0.3919 0.0
C64 C 0.03216 0.92834 0.3464 0.0
C65 C 0.0206 0.78908 0.36101 0.0
O66 O 0.05739 0.80958 0.35006 0.0
O67 O 1.00184 0.79902 0.39445 0.0
O68 O 0.15928 0.84461 0.35629 0.0
O69 O 0.14064 0.83961 0.4201 0.0
O70 O 0.629 1.001 0.36559 0.0
Cd71 Cd 0.66712 1.01559 0.41376 0.0
Cd72 Cd 0.67425 0.09631 0.37769 0.0
O73 O 0.61113 0.07497 0.35433 0.0
O74 O 0.63655 0.97954 0.45774 0.0
O75 O 0.63016 0.05652 0.45054 0.0
C76 C 0.61612 0.01828 0.4673 0.0
C77 C 0.70135 0.17071 0.39263 0.0
C78 C 0.60584 0.0316 0.34721 0.0
C79 C 0.74442 0.02193 0.36048 0.0
O80 O 0.72372 0.05873 0.34982 0.0
O81 O 0.73508 1.00311 0.39405 0.0
O82 O 0.68813 0.16025 0.35716 0.0
O83 O 0.69471 0.14069 0.42068 0.0
O84 O 0.53172 0.62854 0.36445 0.0
Cd85 Cd 0.51821 0.66681 0.4129 0.0
Cd86 Cd 0.43742 0.67526 0.37712 0.0
O87 O 0.45752 0.61191 0.35337 0.0
O88 O 0.55462 0.63586 0.4565 0.0
O89 O 0.47754 0.63053 0.45043 0.0
C90 C 0.51584 0.61605 0.46674 0.0
C91 C 0.36322 0.70286 0.39205 0.0
C92 C 0.50071 0.60593 0.34608 0.0
C93 C 0.5127 0.7448 0.36029 0.0
O94 O 0.47569 0.72457 0.34956 0.0
O95 O 0.53151 0.73488 0.39373 0.0
O96 O 0.37379 0.6901 0.35649 0.0
O97 O 0.39303 0.69567 0.42013 0.0
O98 O 0.90553 0.53235 0.3647 0.0
Cd99 Cd 0.86722 0.51894 0.41315 0.0
Cd100 Cd 0.85902 0.43771 0.37747 0.0
O101 O 0.9222 0.45807 0.35361 0.0
O102 O 0.89797 0.55568 0.45663 0.0
O103 O 0.90341 0.47849 0.45092 0.0
C104 C 0.9178 0.51694 0.46707 0.0
C105 C 0.83187 0.36318 0.39233 0.0
C106 C 0.92813 0.50131 0.34632 0.0
C107 C 0.78934 0.51299 0.36055 0.0
O108 O 0.80956 0.47587 0.34997 0.0
O109 O 0.79924 0.53201 0.3939 0.0
O110 O 0.84443 0.37397 0.35676 0.0
O111 O 0.839 0.39297 0.42044 0.0
O112 O 0.0321 0.40501 0.86471 0.0
Cd113 Cd 0.0181 0.36703 0.91328 0.0
Cd114 Cd 0.93727 0.35989 0.87715 0.0
O115 O 0.95821 0.42299 0.85364 0.0
O116 O 0.05472 0.39766 0.9569 0.0
O117 O 0.97771 0.40376 0.95068 0.0
C118 C 1.01611 0.41785 0.96705 0.0
C119 C 0.86276 0.33267 0.89118 0.0
C120 C 1.00148 0.42813 0.8463 0.0
C121 C 1.01164 0.28912 0.86082 0.0
O122 O 0.97522 0.31023 0.84982 0.0
O123 O 0.03042 0.29867 0.89434 0.0
O124 O 0.87386 0.34566 0.85579 0.0
O125 O 0.89216 0.33962 0.91961 0.0
O126 O 0.12912 0.03369 0.8659 0.0
Cd127 Cd 0.16736 0.01883 0.91409 0.0
Cd128 Cd 0.17392 0.93836 0.87726 0.0
O129 O 0.11073 0.95992 0.85437 0.0
O130 O 0.13713 0.05513 0.95813 0.0
O131 O 0.13051 0.97817 0.95124 0.0
C132 C 0.1167 1.01649 0.96797 0.0
C133 C 0.2012 0.86376 0.89113 0.0
C134 C 0.10565 1.00336 0.84746 0.0
C135 C 0.24485 1.01252 0.86109 0.0
O136 O 0.22345 0.97635 0.84989 0.0
O137 O 0.23559 0.03105 0.89478 0.0
O138 O 0.1879 0.87486 0.85581 0.0
O139 O 0.19446 0.8932 0.91959 0.0
O140 O 0.50145 0.12817 0.86526 0.0
Cd141 Cd 0.51543 0.16686 0.91342 0.0
Cd142 Cd 0.59638 0.17392 0.87736 0.0
O143 O 0.57543 0.11071 0.85396 0.0
O144 O 0.47913 0.13675 0.95749 0.0
O145 O 0.55616 0.13092 0.95109 0.0
C146 C 0.5179 0.11688 0.96773 0.0
C147 C 0.671 0.20103 0.89134 0.0
C148 C 0.53215 0.10518 0.84683 0.0
C149 C 0.52178 0.24427 0.86034 0.0
O150 O 0.5585 0.22344 0.8497 0.0
O151 O 0.50287 0.23488 0.89385 0.0
O152 O 0.65986 0.18797 0.85599 0.0
O153 O 0.64155 0.19428 0.91977 0.0
O154 O 0.40454 0.50127 0.86577 0.0
Cd155 Cd 0.36635 0.51623 0.91389 0.0
Cd156 Cd 0.35955 0.59696 0.87732 0.0
O157 O 0.42228 0.57509 0.85366 0.0
O158 O 0.39651 0.48035 0.9582 0.0
O159 O 0.403 0.55728 0.9508 0.0
C160 C 0.41683 0.51912 0.96781 0.0
C161 C 0.33294 0.67184 0.89123 0.0
C162 C 0.42746 0.53164 0.84688 0.0
C163 C 0.28892 0.52272 0.86068 0.0
O164 O 0.30968 0.55945 0.84993 0.0
O165 O 0.29834 0.5039 0.89423 0.0
O166 O 0.34593 0.66058 0.85589 0.0
O167 O 0.33959 0.64238 0.9197 0.0
O168 O 0.03196 0.12927 0.67832 0.0
Cd169 Cd 0.01743 0.16724 0.62994 0.0
Cd170 Cd 0.93662 0.17433 0.66609 0.0
O171 O 0.95811 0.1115 0.68989 0.0
O172 O 0.05341 0.13665 0.58596 0.0
O173 O 0.97648 0.13051 0.59305 0.0
C174 C 1.01464 0.11641 0.57628 0.0
C175 C 0.86181 0.20086 0.652 0.0
C176 C 1.00145 0.10632 0.69699 0.0
C177 C 1.01091 0.24501 0.68267 0.0
O178 O 0.97419 0.22427 0.69343 0.0
O179 O 0.02976 0.23544 0.64918 0.0
O180 O 0.87306 0.1881 0.68741 0.0
O181 O 0.89128 0.19409 0.62359 0.0
O182 O 0.40562 0.03261 0.67781 0.0
Cd183 Cd 0.36684 0.01853 0.62976 0.0
Cd184 Cd 0.35985 0.93747 0.666 0.0
O185 O 0.4231 0.95857 0.68917 0.0
O186 O 0.39685 0.05488 0.58566 0.0
O187 O 0.4028 0.97779 0.59212 0.0
C188 C 0.41679 1.01611 0.57547 0.0
C189 C 0.3327 0.86271 0.65214 0.0
C190 C 0.42869 1.00191 0.6962 0.0
C191 C 0.28969 1.01222 0.6831 0.0
O192 O 0.31047 0.97544 0.69371 0.0
O193 O 0.29898 0.03114 0.64956 0.0
O194 O 0.34588 0.8739 0.68745 0.0
O195 O 0.33934 0.89218 0.62367 0.0
O196 O 0.50017 0.4044 0.67744 0.0
Cd197 Cd 0.51528 0.36618 0.62928 0.0
Cd198 Cd 0.59559 0.35978 0.66612 0.0
O199 O 0.57381 0.42283 0.68926 0.0
O200 O 0.47925 0.39625 0.58499 0.0
O201 O 0.55608 0.40305 0.59229 0.0
C202 C 0.51789 0.41674 0.57531 0.0
C203 C 0.67004 0.33256 0.65199 0.0
C204 C 0.53038 0.4278 0.69608 0.0
C205 C 0.52178 0.28862 0.68232 0.0
O206 O 0.5579 0.31006 0.69352 0.0
O207 O 0.50328 0.29786 0.64861 0.0
O208 O 0.65915 0.34589 0.68734 0.0
O209 O 0.64049 0.3393 0.62362 0.0
O210 O 0.12895 0.50096 0.67741 0.0
Cd211 Cd 0.16744 0.51613 0.62942 0.0
Cd212 Cd 0.17356 0.59635 0.6663 0.0
O213 O 0.11024 0.57467 0.68883 0.0
O214 O 0.13733 0.48044 0.58499 0.0
O215 O 0.13084 0.55734 0.59255 0.0
C216 C 0.117 0.51924 0.57546 0.0
C217 C 0.20087 0.67086 0.6523 0.0
C218 C 0.10523 0.53122 0.69571 0.0
C219 C 0.2446 0.52242 0.68272 0.0
O220 O 0.22298 0.55845 0.69393 0.0
O221 O 0.23561 0.504 0.64893 0.0
O222 O 0.18734 0.65994 0.6876 0.0
O223 O 0.19434 0.64129 0.6239 0.0
C224 C 0.24614 0.75397 0.14281 0.0
C225 C 0.21109 0.73084 0.14551 0.0
C226 C 0.28605 0.78302 0.1429 0.0
C227 C 0.32141 0.80565 0.1457 0.0
C228 C 0.7809 0.24709 0.14179 0.0
C229 C 0.80391 0.21195 0.14465 0.0
C230 C 0.75185 0.28703 0.14182 0.0
C231 C 0.72904 0.3223 0.1447 0.0
C232 C 0.24701 0.7825 0.40153 0.0
C233 C 0.21168 0.80516 0.39863 0.0
C234 C 0.28699 0.75353 0.4016 0.0
C235 C 0.32212 0.73053 0.39877 0.0
C236 C 0.78144 0.28673 0.40193 0.0
C237 C 0.80434 0.32194 0.39903 0.0
C238 C 0.75224 0.24688 0.402 0.0
C239 C 0.72916 0.21179 0.3992 0.0
C240 C 0.78677 0.28147 0.89995 0.0
C241 C 0.82174 0.30472 0.89731 0.0
C242 C 0.74716 0.25201 0.89999 0.0
C243 C 0.71211 0.22887 0.89741 0.0
C244 C 0.28206 0.74816 0.89979 0.0
C245 C 0.30516 0.71305 0.89724 0.0
C246 C 0.25257 0.78778 0.89974 0.0
C247 C 0.22925 0.82274 0.89712 0.0
C248 C 0.74586 0.28105 0.64322 0.0
C249 C 0.71096 0.30443 0.64588 0.0
C250 C 0.78546 0.25155 0.6432 0.0
C251 C 0.82059 0.22854 0.64583 0.0
C252 C 0.25226 0.74682 0.64366 0.0
C253 C 0.22894 0.71187 0.6463 0.0
C254 C 0.28175 0.78645 0.64361 0.0
C255 C 0.30487 0.82154 0.64616 0.0
C256 C 0.97702 0.53363 0.287 0.0
C257 C 0.9556 0.51597 0.31356 0.0
C258 C 0.99974 0.55637 0.25577 0.0
C259 C 0.01749 0.57792 0.22932 0.0
C260 C 0.97695 0.99969 0.25573 0.0
C261 C 0.95543 0.01745 0.22928 0.0
C262 C 0.99966 0.97705 0.28702 0.0
C263 C 0.01732 0.95568 0.31361 0.0
C264 C 0.5575 0.99833 0.28804 0.0
C265 C 0.57864 1.01638 0.31454 0.0
C266 C 0.53508 0.97554 0.25675 0.0
C267 C 0.51738 0.95436 0.23011 0.0
C268 C 0.55597 0.53441 0.25562 0.0
C269 C 0.57768 0.51671 0.22926 0.0
C270 C 0.53306 0.55707 0.28678 0.0
C271 C 0.51533 0.57846 0.31332 0.0
C272 C 0.05661 0.49785 0.75474 0.0
C273 C 0.07796 0.51566 0.72824 0.0
C274 C 0.0341 0.47562 0.78631 0.0
C275 C 1.01645 0.45483 0.81321 0.0
C276 C 0.05715 0.03671 0.78836 0.0
C277 C 0.07845 0.01888 0.81488 0.0
C278 C 0.03453 0.05895 0.75687 0.0
C279 C 0.01668 0.0797 0.73003 0.0
C280 C 0.49959 0.05703 0.78715 0.0
C281 C 0.51719 0.07815 0.81391 0.0
C282 C 0.47717 0.03464 0.7556 0.0
C283 C 0.4559 1.01697 0.72897 0.0
C284 C 0.49689 0.47567 0.75551 0.0
C285 C 0.51475 0.45465 0.72884 0.0
C286 C 0.47466 0.49816 0.78708 0.0
C287 C 0.45395 0.51609 0.81388 0.0
C288 C 0.98439 0.76681 0.25097 0.0
C289 C 0.99314 0.76172 0.21596 0.0
C290 C 0.98452 0.76621 0.29334 0.0
C291 C 0.99338 0.77158 0.3283 0.0
C292 C 0.76508 0.98597 0.25002 0.0
C293 C 0.77056 0.99469 0.21504 0.0
C294 C 0.76588 0.98598 0.29239 0.0
C295 C 0.76115 0.99472 0.32744 0.0
C296 C 0.54868 0.76661 0.29231 0.0
C297 C 0.53997 0.76167 0.32735 0.0
C298 C 0.54856 0.76579 0.24993 0.0
C299 C 0.53969 0.77098 0.21495 0.0
C300 C 0.76808 0.54888 0.25009 0.0
C301 C 0.76255 0.54019 0.21512 0.0
C302 C 0.76753 0.54887 0.29246 0.0
C303 C 0.77255 0.54015 0.32749 0.0
C304 C 0.04685 0.26674 0.75069 0.0
C305 C 0.03808 0.26192 0.71565 0.0
C306 C 0.04703 0.26585 0.79307 0.0
C307 C 0.03855 0.27116 0.82811 0.0
C308 C 0.26792 0.04798 0.75119 0.0
C309 C 0.27277 0.03929 0.71614 0.0
C310 C 0.26869 0.04807 0.79356 0.0
C311 C 0.2632 0.0395 0.82857 0.0
C312 C 0.48611 0.26609 0.79225 0.0
C313 C 0.49475 0.26126 0.82732 0.0
C314 C 0.48611 0.26517 0.74988 0.0
C315 C 0.49475 0.27047 0.71487 0.0
C316 C 0.26744 0.48682 0.7926 0.0
C317 C 0.27211 0.49553 0.82767 0.0
C318 C 0.26838 0.48679 0.75023 0.0
C319 C 0.26298 0.49543 0.71522 0.0
C320 C 0.01786 0.53914 0.03193 0.0
C321 C 0.01795 0.57455 0.05193 0.0
C322 C 0.01733 0.49585 1.01066 0.0
C323 C 0.01689 0.46031 0.99081 0.0
C324 C 0.03871 0.01765 1.01154 0.0
C325 C 0.07424 0.01727 0.99171 0.0
C326 C 0.99536 0.01819 0.03269 0.0
C327 C 0.9598 0.01834 0.05248 0.0
C328 C 0.51674 0.99595 0.03307 0.0
C329 C 0.5165 0.96035 0.05284 0.0
C330 C 0.51721 0.03925 1.01181 0.0
C331 C 0.51741 0.07462 0.99174 0.0
C332 C 0.49469 0.51842 1.01152 0.0
C333 C 0.45922 0.51864 0.99162 0.0
C334 C 0.538 0.5178 0.03271 0.0
C335 C 0.57354 0.51743 0.05253 0.0
C336 C 1.01595 0.99507 0.51152 0.0
C337 C 1.01637 0.95968 0.49149 0.0
C338 C 1.0153 0.03835 0.53278 0.0
C339 C 1.01507 0.07391 0.55259 0.0
C340 C 0.53783 0.01748 0.51045 0.0
C341 C 0.5735 0.01773 0.49081 0.0
C342 C 0.49448 1.01694 0.53157 0.0
C343 C 0.45908 1.01667 0.55156 0.0
C344 C 0.51696 0.49463 0.53152 0.0
C345 C 0.51723 0.45914 0.55145 0.0
C346 C 0.51647 0.53797 0.5103 0.0
C347 C 0.51627 0.57354 0.49046 0.0
C348 C 0.99576 0.51796 0.51064 0.0
C349 C 0.96024 0.51757 0.4908 0.0
C350 C 0.03907 0.5186 0.53183 0.0
C351 C 0.07457 0.51883 0.5517 0.0
loop_
_geom_bond_atom_site_label_1
_geom_bond_atom_site_label_2
_geom_bond_distance
_geom_bond_site_symmetry_2
_ccdc_geom_bond_type
O0 Cd1 2.223 . S
O0 C8 1.315 . S
Cd1 O0 2.223 . S
Cd1 O4 2.297 . S
Cd1 O5 2.439 1_655 S
Cd1 O11 2.240 1_655 S
Cd2 O3 2.240 . S
Cd2 O10 2.223 . S
Cd2 O12 2.297 . S
Cd2 O13 2.439 . S
O3 Cd2 2.240 . S
O3 C8 1.279 1_455 S
O4 Cd1 2.297 . S
O4 C6 1.247 . S
O5 Cd1 2.439 1_455 S
O5 C6 1.208 1_455 S
C6 O4 1.247 . S
C6 O5 1.208 1_655 S
C7 O12 1.247 . S
C7 O13 1.208 . S
C8 O0 1.315 . S
C8 O3 1.279 1_655 S
C9 O10 1.315 . S
C9 O11 1.279 . S
O10 Cd2 2.223 . S
O10 C9 1.315 . S
O11 Cd1 2.240 1_455 S
O11 C9 1.279 . S
O12 Cd2 2.297 . S
O12 C7 1.247 . S
O13 Cd2 2.439 . S
O13 C7 1.208 . S
O14 Cd15 2.223 . S
O14 C22 1.315 . S
Cd15 O14 2.223 . S
Cd15 O18 2.297 . S
Cd15 O19 2.439 1_565 S
Cd15 O25 2.240 1_565 S
Cd16 O17 2.240 . S
Cd16 O24 2.223 . S
Cd16 O26 2.297 . S
Cd16 O27 2.439 . S
O17 Cd16 2.240 . S
O17 C22 1.279 1_545 S
O18 Cd15 2.297 . S
O18 C20 1.247 . S
O19 Cd15 2.439 1_545 S
O19 C20 1.208 1_545 S
C20 O18 1.247 . S
C20 O19 1.208 1_565 S
C21 O26 1.247 . S
C21 O27 1.208 . S
C22 O14 1.315 . S
C22 O17 1.279 1_565 S
C23 O24 1.315 . S
C23 O25 1.279 . S
O24 Cd16 2.223 . S
O24 C23 1.315 . S
O25 Cd15 2.240 1_545 S
O25 C23 1.279 . S
O26 Cd16 2.297 . S
O26 C21 1.247 . S
O27 Cd16 2.439 . S
O27 C21 1.208 . S
O28 Cd29 2.223 . S
O28 C36 1.315 . S
Cd29 O28 2.223 . S
Cd29 O32 2.297 . S
Cd29 O33 2.439 . S
Cd29 O39 2.240 . S
Cd30 O31 2.240 . S
Cd30 O38 2.223 . S
Cd30 O40 2.297 . S
Cd30 O41 2.439 . S
O31 Cd30 2.240 . S
O31 C36 1.279 . S
O32 Cd29 2.297 . S
O32 C34 1.247 . S
O33 Cd29 2.439 . S
O33 C34 1.208 . S
C34 O32 1.247 . S
C34 O33 1.208 . S
C35 O40 1.247 . S
C35 O41 1.208 . S
C36 O28 1.315 . S
C36 O31 1.279 . S
C37 O38 1.315 . S
C37 O39 1.279 . S
O38 Cd30 2.223 . S
O38 C37 1.315 . S
O39 Cd29 2.240 . S
O39 C37 1.279 . S
O40 Cd30 2.297 . S
O40 C35 1.247 . S
O41 Cd30 2.439 . S
O41 C35 1.208 . S
O42 Cd43 2.223 . S
O42 C50 1.315 . S
Cd43 O42 2.223 . S
Cd43 O46 2.297 . S
Cd43 O47 2.439 . S
Cd43 O53 2.240 . S
Cd44 O45 2.240 . S
Cd44 O52 2.223 . S
Cd44 O54 2.297 . S
Cd44 O55 2.439 . S
O45 Cd44 2.240 . S
O45 C50 1.279 . S
O46 Cd43 2.297 . S
O46 C48 1.247 . S
O47 Cd43 2.439 . S
O47 C48 1.208 . S
C48 O46 1.247 . S
C48 O47 1.208 . S
C49 O54 1.247 . S
C49 O55 1.208 . S
C50 O42 1.315 . S
C50 O45 1.279 . S
C51 O52 1.315 . S
C51 O53 1.279 . S
O52 Cd44 2.223 . S
O52 C51 1.315 . S
O53 Cd43 2.240 . S
O53 C51 1.279 . S
O54 Cd44 2.297 . S
O54 C49 1.247 . S
O55 Cd44 2.439 . S
O55 C49 1.208 . S
O56 Cd57 2.223 . S
O56 C64 1.315 . S
Cd57 O56 2.223 . S
Cd57 O60 2.297 . S
Cd57 O61 2.439 1_655 S
Cd57 O67 2.240 1_655 S
Cd58 O59 2.240 . S
Cd58 O66 2.223 . S
Cd58 O68 2.297 . S
Cd58 O69 2.439 . S
O59 Cd58 2.240 . S
O59 C64 1.279 1_455 S
O60 Cd57 2.297 . S
O60 C62 1.247 . S
O61 Cd57 2.439 1_455 S
O61 C62 1.208 1_455 S
C62 O60 1.247 . S
C62 O61 1.208 1_655 S
C63 O68 1.247 . S
C63 O69 1.208 . S
C64 O56 1.315 . S
C64 O59 1.279 1_655 S
C65 O66 1.315 . S
C65 O67 1.279 . S
O66 Cd58 2.223 . S
O66 C65 1.315 . S
O67 Cd57 2.240 1_455 S
O67 C65 1.279 . S
O68 Cd58 2.297 . S
O68 C63 1.247 . S
O69 Cd58 2.439 . S
O69 C63 1.208 . S
O70 Cd71 2.223 . S
O70 C78 1.315 . S
Cd71 O70 2.223 . S
Cd71 O74 2.297 . S
Cd71 O75 2.439 1_565 S
Cd71 O81 2.240 1_565 S
Cd72 O73 2.240 . S
Cd72 O80 2.223 . S
Cd72 O82 2.297 . S
Cd72 O83 2.439 . S
O73 Cd72 2.240 . S
O73 C78 1.279 1_545 S
O74 Cd71 2.297 . S
O74 C76 1.247 . S
O75 Cd71 2.439 1_545 S
O75 C76 1.208 1_545 S
C76 O74 1.247 . S
C76 O75 1.208 1_565 S
C77 O82 1.247 . S
C77 O83 1.208 . S
C78 O70 1.315 . S
C78 O73 1.279 1_565 S
C79 O80 1.315 . S
C79 O81 1.279 . S
O80 Cd72 2.223 . S
O80 C79 1.315 . S
O81 Cd71 2.240 1_545 S
O81 C79 1.279 . S
O82 Cd72 2.297 . S
O82 C77 1.247 . S
O83 Cd72 2.439 . S
O83 C77 1.208 . S
O84 Cd85 2.223 . S
O84 C92 1.315 . S
Cd85 O84 2.223 . S
Cd85 O88 2.297 . S
Cd85 O89 2.439 . S
Cd85 O95 2.240 . S
Cd86 O87 2.240 . S
Cd86 O94 2.223 . S
Cd86 O96 2.297 . S
Cd86 O97 2.439 . S
O87 Cd86 2.240 . S
O87 C92 1.279 . S
O88 Cd85 2.297 . S
O88 C90 1.247 . S
O89 Cd85 2.439 . S
O89 C90 1.208 . S
C90 O88 1.247 . S
C90 O89 1.208 . S
C91 O96 1.247 . S
C91 O97 1.208 . S
C92 O84 1.315 . S
C92 O87 1.279 . S
C93 O94 1.315 . S
C93 O95 1.279 . S
O94 Cd86 2.223 . S
O94 C93 1.315 . S
O95 Cd85 2.240 . S
O95 C93 1.279 . S
O96 Cd86 2.297 . S
O96 C91 1.247 . S
O97 Cd86 2.439 . S
O97 C91 1.208 . S
O98 Cd99 2.223 . S
O98 C106 1.315 . S
Cd99 O98 2.223 . S
Cd99 O102 2.297 . S
Cd99 O103 2.439 . S
Cd99 O109 2.240 . S
Cd100 O101 2.240 . S
Cd100 O108 2.223 . S
Cd100 O110 2.297 . S
Cd100 O111 2.439 . S
O101 Cd100 2.240 . S
O101 C106 1.279 . S
O102 Cd99 2.297 . S
O102 C104 1.247 . S
O103 Cd99 2.439 . S
O103 C104 1.208 . S
C104 O102 1.247 . S
C104 O103 1.208 . S
C105 O110 1.247 . S
C105 O111 1.208 . S
C106 O98 1.315 . S
C106 O101 1.279 . S
C107 O108 1.315 . S
C107 O109 1.279 . S
O108 Cd100 2.223 . S
O108 C107 1.315 . S
O109 Cd99 2.240 . S
O109 C107 1.279 . S
O110 Cd100 2.297 . S
O110 C105 1.247 . S
O111 Cd100 2.439 . S
O111 C105 1.208 . S
O112 Cd113 2.223 . S
O112 C120 1.315 . S
Cd113 O112 2.223 . S
Cd113 O116 2.297 . S
Cd113 O117 2.439 1_455 S
Cd113 O123 2.240 1_455 S
Cd114 O115 2.240 . S
Cd114 O122 2.223 . S
Cd114 O124 2.297 . S
Cd114 O125 2.439 . S
O115 Cd114 2.240 . S
O115 C120 1.279 1_655 S
O116 Cd113 2.297 . S
O116 C118 1.247 . S
O117 Cd113 2.439 1_655 S
O117 C118 1.208 1_655 S
C118 O116 1.247 . S
C118 O117 1.208 1_455 S
C119 O124 1.247 . S
C119 O125 1.208 . S
C120 O112 1.315 . S
C120 O115 1.279 1_455 S
C121 O122 1.315 . S
C121 O123 1.279 . S
O122 Cd114 2.223 . S
O122 C121 1.315 . S
O123 Cd113 2.240 1_655 S
O123 C121 1.279 . S
O124 Cd114 2.297 . S
O124 C119 1.247 . S
O125 Cd114 2.439 . S
O125 C119 1.208 . S
O126 Cd127 2.223 . S
O126 C134 1.315 . S
Cd127 O126 2.223 . S
Cd127 O130 2.297 . S
Cd127 O131 2.439 1_545 S
Cd127 O137 2.240 1_545 S
Cd128 O129 2.240 . S
Cd128 O136 2.223 . S
Cd128 O138 2.297 . S
Cd128 O139 2.439 . S
O129 Cd128 2.240 . S
O129 C134 1.279 1_565 S
O130 Cd127 2.297 . S
O130 C132 1.247 . S
O131 Cd127 2.439 1_565 S
O131 C132 1.208 1_565 S
C132 O130 1.247 . S
C132 O131 1.208 1_545 S
C133 O138 1.247 . S
C133 O139 1.208 . S
C134 O126 1.315 . S
C134 O129 1.279 1_545 S
C135 O136 1.315 . S
C135 O137 1.279 . S
O136 Cd128 2.223 . S
O136 C135 1.315 . S
O137 Cd127 2.240 1_565 S
O137 C135 1.279 . S
O138 Cd128 2.297 . S
O138 C133 1.247 . S
O139 Cd128 2.439 . S
O139 C133 1.208 . S
O140 Cd141 2.223 . S
O140 C148 1.315 . S
Cd141 O140 2.223 . S
Cd141 O144 2.297 . S
Cd141 O145 2.439 . S
Cd141 O151 2.240 . S
Cd142 O143 2.240 . S
Cd142 O150 2.223 . S
Cd142 O152 2.297 . S
Cd142 O153 2.439 . S
O143 Cd142 2.240 . S
O143 C148 1.279 . S
O144 Cd141 2.297 . S
O144 C146 1.247 . S
O145 Cd141 2.439 . S
O145 C146 1.208 . S
C146 O144 1.247 . S
C146 O145 1.208 . S
C147 O152 1.247 . S
C147 O153 1.208 . S
C148 O140 1.315 . S
C148 O143 1.279 . S
C149 O150 1.315 . S
C149 O151 1.279 . S
O150 Cd142 2.223 . S
O150 C149 1.315 . S
O151 Cd141 2.240 . S
O151 C149 1.279 . S
O152 Cd142 2.297 . S
O152 C147 1.247 . S
O153 Cd142 2.439 . S
O153 C147 1.208 . S
O154 Cd155 2.223 . S
O154 C162 1.315 . S
Cd155 O154 2.223 . S
Cd155 O158 2.297 . S
Cd155 O159 2.439 . S
Cd155 O165 2.240 . S
Cd156 O157 2.240 . S
Cd156 O164 2.223 . S
Cd156 O166 2.297 . S
Cd156 O167 2.439 . S
O157 Cd156 2.240 . S
O157 C162 1.279 . S
O158 Cd155 2.297 . S
O158 C160 1.247 . S
O159 Cd155 2.439 . S
O159 C160 1.208 . S
C160 O158 1.247 . S
C160 O159 1.208 . S
C161 O166 1.247 . S
C161 O167 1.208 . S
C162 O154 1.315 . S
C162 O157 1.279 . S
C163 O164 1.315 . S
C163 O165 1.279 . S
O164 Cd156 2.223 . S
O164 C163 1.315 . S
O165 Cd155 2.240 . S
O165 C163 1.279 . S
O166 Cd156 2.297 . S
O166 C161 1.247 . S
O167 Cd156 2.439 . S
O167 C161 1.208 . S
O168 Cd169 2.223 . S
O168 C176 1.315 . S
Cd169 O168 2.223 . S
Cd169 O172 2.297 . S
Cd169 O173 2.439 1_455 S
Cd169 O179 2.240 1_455 S
Cd170 O171 2.240 . S
Cd170 O178 2.223 . S
Cd170 O180 2.297 . S
Cd170 O181 2.439 . S
O171 Cd170 2.240 . S
O171 C176 1.279 1_655 S
O172 Cd169 2.297 . S
O172 C174 1.247 . S
O173 Cd169 2.439 1_655 S
O173 C174 1.208 1_655 S
C174 O172 1.247 . S
C174 O173 1.208 1_455 S
C175 O180 1.247 . S
C175 O181 1.208 . S
C176 O168 1.315 . S
C176 O171 1.279 1_455 S
C177 O178 1.315 . S
C177 O179 1.279 . S
O178 Cd170 2.223 . S
O178 C177 1.315 . S
O179 Cd169 2.240 1_655 S
O179 C177 1.279 . S
O180 Cd170 2.297 . S
O180 C175 1.247 . S
O181 Cd170 2.439 . S
O181 C175 1.208 . S
O182 Cd183 2.223 . S
O182 C190 1.315 . S
Cd183 O182 2.223 . S
Cd183 O186 2.297 . S
Cd183 O187 2.439 1_545 S
Cd183 O193 2.240 1_545 S
Cd184 O185 2.240 . S
Cd184 O192 2.223 . S
Cd184 O194 2.297 . S
Cd184 O195 2.439 . S
O185 Cd184 2.240 . S
O185 C190 1.279 1_565 S
O186 Cd183 2.297 . S
O186 C188 1.247 . S
O187 Cd183 2.439 1_565 S
O187 C188 1.208 1_565 S
C188 O186 1.247 . S
C188 O187 1.208 1_545 S
C189 O194 1.247 . S
C189 O195 1.208 . S
C190 O182 1.315 . S
C190 O185 1.279 1_545 S
C191 O192 1.315 . S
C191 O193 1.279 . S
O192 Cd184 2.223 . S
O192 C191 1.315 . S
O193 Cd183 2.240 1_565 S
O193 C191 1.279 . S
O194 Cd184 2.297 . S
O194 C189 1.247 . S
O195 Cd184 2.439 . S
O195 C189 1.208 . S
O196 Cd197 2.223 . S
O196 C204 1.315 . S
Cd197 O196 2.223 . S
Cd197 O200 2.297 . S
Cd197 O201 2.439 . S
Cd197 O207 2.240 . S
Cd198 O199 2.240 . S
Cd198 O206 2.223 . S
Cd198 O208 2.297 . S
Cd198 O209 2.439 . S
O199 Cd198 2.240 . S
O199 C204 1.279 . S
O200 Cd197 2.297 . S
O200 C202 1.247 . S
O201 Cd197 2.439 . S
O201 C202 1.208 . S
C202 O200 1.247 . S
C202 O201 1.208 . S
C203 O208 1.247 . S
C203 O209 1.208 . S
C204 O196 1.315 . S
C204 O199 1.279 . S
C205 O206 1.315 . S
C205 O207 1.279 . S
O206 Cd198 2.223 . S
O206 C205 1.315 . S
O207 Cd197 2.240 . S
O207 C205 1.279 . S
O208 Cd198 2.297 . S
O208 C203 1.247 . S
O209 Cd198 2.439 . S
O209 C203 1.208 . S
O210 Cd211 2.223 . S
O210 C218 1.315 . S
Cd211 O210 2.223 . S
Cd211 O214 2.297 . S
Cd211 O215 2.439 . S
Cd211 O221 2.240 . S
Cd212 O213 2.240 . S
Cd212 O220 2.223 . S
Cd212 O222 2.297 . S
Cd212 O223 2.439 . S
O213 Cd212 2.240 . S
O213 C218 1.279 . S
O214 Cd211 2.297 . S
O214 C216 1.247 . S
O215 Cd211 2.439 . S
O215 C216 1.208 . S
C216 O214 1.247 . S
C216 O215 1.208 . S
C217 O222 1.247 . S
C217 O223 1.208 . S
C218 O210 1.315 . S
C218 O213 1.279 . S
C219 O220 1.315 . S
C219 O221 1.279 . S
O220 Cd212 2.223 . S
O220 C219 1.315 . S
O221 Cd211 2.240 . S
O221 C219 1.279 . S
O222 Cd212 2.297 . S
O222 C217 1.247 . S
O223 Cd212 2.439 . S
O223 C217 1.208 . S
C224 C225 1.170 . S
C224 C226 1.380 . S
C225 C224 1.170 . S
C226 C224 1.380 . S
C226 C227 1.170 . S
C227 C226 1.170 . S
C228 C229 1.170 . S
C228 C230 1.380 . S
C229 C228 1.170 . S
C230 C228 1.380 . S
C230 C231 1.170 . S
C231 C230 1.170 . S
C232 C233 1.170 . S
C232 C234 1.380 . S
C233 C232 1.170 . S
C234 C232 1.380 . S
C234 C235 1.170 . S
C235 C234 1.170 . S
C236 C237 1.170 . S
C236 C238 1.380 . S
C237 C236 1.170 . S
C238 C236 1.380 . S
C238 C239 1.170 . S
C239 C238 1.170 . S
C240 C241 1.170 . S
C240 C242 1.380 . S
C241 C240 1.170 . S
C242 C240 1.380 . S
C242 C243 1.170 . S
C243 C242 1.170 . S
C244 C245 1.170 . S
C244 C246 1.380 . S
C245 C244 1.170 . S
C246 C244 1.380 . S
C246 C247 1.170 . S
C247 C246 1.170 . S
C248 C249 1.170 . S
C248 C250 1.380 . S
C249 C248 1.170 . S
C250 C248 1.380 . S
C250 C251 1.170 . S
C251 C250 1.170 . S
C252 C253 1.170 . S
C252 C254 1.380 . S
C253 C252 1.170 . S
C254 C252 1.380 . S
C254 C255 1.170 . S
C255 C254 1.170 . S
C256 C257 1.170 . S
C256 C258 1.380 . S
C257 C256 1.170 . S
C258 C256 1.380 . S
C258 C259 1.170 . S
C259 C258 1.170 . S
C260 C261 1.170 . S
C260 C262 1.380 . S
C261 C260 1.170 . S
C262 C260 1.380 . S
C262 C263 1.170 . S
C263 C262 1.170 . S
C264 C265 1.170 . S
C264 C266 1.380 . S
C265 C264 1.170 . S
C266 C264 1.380 . S
C266 C267 1.170 . S
C267 C266 1.170 . S
C268 C269 1.170 . S
C268 C270 1.380 . S
C269 C268 1.170 . S
C270 C268 1.380 . S
C270 C271 1.170 . S
C271 C270 1.170 . S
C272 C273 1.170 . S
C272 C274 1.380 . S
C273 C272 1.170 . S
C274 C272 1.380 . S
C274 C275 1.170 . S
C275 C274 1.170 . S
C276 C277 1.170 . S
C276 C278 1.380 . S
C277 C276 1.170 . S
C278 C276 1.380 . S
C278 C279 1.170 . S
C279 C278 1.170 . S
C280 C281 1.170 . S
C280 C282 1.380 . S
C281 C280 1.170 . S
C282 C280 1.380 . S
C282 C283 1.170 . S
C283 C282 1.170 . S
C284 C285 1.170 . S
C284 C286 1.380 . S
C285 C284 1.170 . S
C286 C284 1.380 . S
C286 C287 1.170 . S
C287 C286 1.170 . S
C288 C289 1.170 . S
C288 C290 1.380 . S
C289 C288 1.170 . S
C290 C288 1.380 . S
C290 C291 1.170 . S
C291 C290 1.170 . S
C292 C293 1.170 . S
C292 C294 1.380 . S
C293 C292 1.170 . S
C294 C292 1.380 . S
C294 C295 1.170 . S
C295 C294 1.170 . S
C296 C297 1.170 . S
C296 C298 1.380 . S
C297 C296 1.170 . S
C298 C296 1.380 . S
C298 C299 1.170 . S
C299 C298 1.170 . S
C300 C301 1.170 . S
C300 C302 1.380 . S
C301 C300 1.170 . S
C302 C300 1.380 . S
C302 C303 1.170 . S
C303 C302 1.170 . S
C304 C305 1.170 . S
C304 C306 1.380 . S
C305 C304 1.170 . S
C306 C304 1.380 . S
C306 C307 1.170 . S
C307 C306 1.170 . S
C308 C309 1.170 . S
C308 C310 1.380 . S
C309 C308 1.170 . S
C310 C308 1.380 . S
C310 C311 1.170 . S
C311 C310 1.170 . S
C312 C313 1.170 . S
C312 C314 1.380 . S
C313 C312 1.170 . S
C314 C312 1.380 . S
C314 C315 1.170 . S
C315 C314 1.170 . S
C316 C317 1.170 . S
C316 C318 1.380 . S
C317 C316 1.170 . S
C318 C316 1.380 . S
C318 C319 1.170 . S
C319 C318 1.170 . S
C320 C321 1.170 1_455 S
C320 C322 1.380 1_554 S
C321 C320 1.170 1_655 S
C322 C320 1.380 1_556 S
C322 C323 1.170 . S
C323 C322 1.170 . S
C324 C325 1.170 . S
C324 C326 1.380 1_456 S
C325 C324 1.170 . S
C326 C324 1.380 1_654 S
C326 C327 1.170 1_545 S
C327 C326 1.170 1_565 S
C328 C329 1.170 . S
C328 C330 1.380 1_564 S
C329 C328 1.170 . S
C330 C328 1.380 1_546 S
C330 C331 1.170 . S
C331 C330 1.170 . S
C332 C333 1.170 . S
C332 C334 1.380 1_556 S
C333 C332 1.170 . S
C334 C332 1.380 1_554 S
C334 C335 1.170 . S
C335 C334 1.170 . S
C336 C337 1.170 . S
C336 C338 1.382 1_565 S
C337 C336 1.170 . S
C338 C336 1.382 1_545 S
C338 C339 1.168 1_655 S
C339 C338 1.168 1_455 S
C340 C341 1.170 . S
C340 C342 1.380 1_565 S
C341 C340 1.170 . S
C342 C340 1.380 1_545 S
C342 C343 1.170 . S
C343 C342 1.170 . S
C344 C345 1.170 . S
C344 C346 1.380 . S
C345 C344 1.170 . S
C346 C344 1.380 . S
C346 C347 1.170 . S
C347 C346 1.170 . S
C348 C349 1.170 . S
C348 C350 1.380 1_655 S
C349 C348 1.170 . S
C350 C348 1.380 1_455 S
C350 C351 1.170 . S
C351 C350 1.170 . S
C225 C7 1.532 . S
C227 C35 1.545 . S
C229 C21 1.554 . S
C231 C49 1.558 . S
C233 C63 1.556 . S
C235 C91 1.547 . S
C237 C105 1.558 . S
C239 C77 1.552 . S
C241 C119 1.526 . S
C243 C147 1.525 . S
C245 C161 1.526 . S
C247 C133 1.529 . S
C249 C203 1.535 . S
C251 C175 1.530 . S
C253 C217 1.527 . S
C255 C189 1.525 . S
C257 C106 1.608 . S
C259 C8 1.608 . S
C261 C22 1.607 . S
C263 C64 1.607 . S
C265 C78 1.590 . S
C267 C36 1.592 . S
C269 C50 1.606 . S
C271 C92 1.607 . S
C273 C218 1.592 . S
C275 C120 1.605 . S
C277 C134 1.589 . S
C279 C176 1.599 . S
C281 C148 1.607 . S
C283 C190 1.602 . S
C285 C204 1.589 . S
C287 C162 1.593 . S
C289 C9 1.063 . S
C291 C65 1.112 . S
C293 C23 1.121 . S
C295 C79 1.031 . S
C297 C93 1.067 . S
C299 C37 1.109 . S
C301 C51 1.117 . S
C303 C107 1.051 . S
C305 C177 1.023 . S
C307 C121 1.053 . S
C309 C191 1.029 . S
C311 C135 1.081 . S
C313 C149 1.024 . S
C315 C205 1.067 . S
C317 C163 1.024 . S
C319 C219 1.069 . S
C321 C6 1.874 . S
C323 C118 1.859 . S
C325 C132 1.875 . S
C327 C20 1.858 . S
C329 C34 1.859 . S
C331 C146 1.885 . S
C333 C160 1.881 . S
C335 C48 1.867 . S
C337 C62 1.884 . S
C339 C174 1.862 . S
C341 C76 1.857 . S
C343 C188 1.885 . S
C345 C202 1.884 . S
C347 C90 1.855 . S
C349 C104 1.866 . S
C351 C216 1.881 . S
