# Generated by pormake.
# Topology umo, (4)-cn, num edge types: 1
# Building blocks:
#     Node 0, Type 0, BuildingBlock: ESEHIV_clean_sbu_0, # of connection points: 4
#     Node 1, Type 0, BuildingBlock: ESEHIV_clean_sbu_0, # of connection points: 4
#     Node 2, Type 0, BuildingBlock: ESEHIV_clean_sbu_0, # of connection points: 4
#     Node 3, Type 0, BuildingBlock: ESEHIV_clean_sbu_0, # of connection points: 4
#     Node 4, Type 0, BuildingBlock: ESEHIV_clean_sbu_0, # of connection points: 4
#     Node 5, Type 0, BuildingBlock: ESEHIV_clean_sbu_0, # of connection points: 4
#     Node 6, Type 0, BuildingBlock: ESEHIV_clean_sbu_0, # of connection points: 4
#     Node 7, Type 0, BuildingBlock: ESEHIV_clean_sbu_0, # of connection points: 4
#     Node 8, Type 0, BuildingBlock: ESEHIV_clean_sbu_0, # of connection points: 4
#     Node 9, Type 0, BuildingBlock: ESEHIV_clean_sbu_0, # of connection points: 4
#     Node 10, Type 0, BuildingBlock: ESEHIV_clean_sbu_0, # of connection points: 4
#     Node 11, Type 0, BuildingBlock: ESEHIV_clean_sbu_0, # of connection points: 4
#     Edge 12, Type (0, 0), BuildingBlock: ZUJKAS_clean_linker_0, # of connection points: 2
#     Edge 13, Type (0, 0), BuildingBlock: ZUJKAS_clean_linker_0, # of connection points: 2
#     Edge 14, Type (0, 0), BuildingBlock: ZUJKAS_clean_linker_0, # of connection points: 2
#     Edge 15, Type (0, 0), BuildingBlock: ZUJKAS_clean_linker_0, # of connection points: 2
#     Edge 16, Type (0, 0), BuildingBlock: ZUJKAS_clean_linker_0, # of connection points: 2
#     Edge 17, Type (0, 0), BuildingBlock: ZUJKAS_clean_linker_0, # of connection points: 2
#     Edge 18, Type (0, 0), BuildingBlock: ZUJKAS_clean_linker_0, # of connection points: 2
#     Edge 19, Type (0, 0), BuildingBlock: ZUJKAS_clean_linker_0, # of connection points: 2
#     Edge 20, Type (0, 0), BuildingBlock: ZUJKAS_clean_linker_0, # of connection points: 2
#     Edge 21, Type (0, 0), BuildingBlock: ZUJKAS_clean_linker_0, # of connection points: 2
#     Edge 22, Type (0, 0), BuildingBlock: ZUJKAS_clean_linker_0, # of connection points: 2
#     Edge 23, Type (0, 0), BuildingBlock: ZUJKAS_clean_linker_0, # of connection points: 2
#     Edge 24, Type (0, 0), BuildingBlock: ZUJKAS_clean_linker_0, # of connection points: 2
#     Edge 25, Type (0, 0), BuildingBlock: ZUJKAS_clean_linker_0, # of connection points: 2
#     Edge 26, Type (0, 0), BuildingBlock: ZUJKAS_clean_linker_0, # of connection points: 2
#     Edge 27, Type (0, 0), BuildingBlock: ZUJKAS_clean_linker_0, # of connection points: 2
#     Edge 28, Type (0, 0), BuildingBlock: ZUJKAS_clean_linker_0, # of connection points: 2
#     Edge 29, Type (0, 0), BuildingBlock: ZUJKAS_clean_linker_0, # of connection points: 2
#     Edge 30, Type (0, 0), BuildingBlock: ZUJKAS_clean_linker_0, # of connection points: 2
#     Edge 31, Type (0, 0), BuildingBlock: ZUJKAS_clean_linker_0, # of connection points: 2
#     Edge 32, Type (0, 0), BuildingBlock: ZUJKAS_clean_linker_0, # of connection points: 2
#     Edge 33, Type (0, 0), BuildingBlock: ZUJKAS_clean_linker_0, # of connection points: 2
#     Edge 34, Type (0, 0), BuildingBlock: ZUJKAS_clean_linker_0, # of connection points: 2
#     Edge 35, Type (0, 0), BuildingBlock: ZUJKAS_clean_linker_0, # of connection points: 2
# Relax obj value: 0.181
# Max RMSD: 0.179
# Mean RMSD: 0.179
data_MOF--net-umo--node1-ESEHIV_clean_sbu_0--edge1-ZUJKAS_clean_linker_0
_symmetry_space_group_name_H-M    P1
_symmetry_Int_Tables_number       1
_symmetry_cell_setting            triclinic
loop_
_symmetry_equiv_pos_as_xyz
'x, y, z'
_cell_length_a     71.887222
_cell_length_b     71.96941
_cell_length_c     45.504158
_cell_angle_alpha  90.076718
_cell_angle_beta   90.039204
_cell_angle_gamma 119.8775
loop_
_atom_site_label
_atom_site_type_symbol
_atom_site_fract_x
_atom_site_fract_y
_atom_site_fract_z
_atom_type_partial_charge
Cu0 Cu 0.1791 0.5508 0.40018 0.0
N1 N 0.1978 0.54984 0.42749 0.0
N2 N 0.22616 0.57004 0.45613 0.0
C3 C 0.21785 0.56661 0.42877 0.0
C4 C 0.21098 0.55416 0.47261 0.0
C5 C 0.19337 0.54183 0.45493 0.0
O6 O 0.19445 0.55768 0.36267 0.0
C7 C 0.16202 0.56854 0.43854 0.0
O8 O 0.14829 0.54821 0.44326 0.0
H9 H 0.22488 0.57792 0.41091 0.0
H10 H 0.17756 0.53008 0.46252 0.0
N11 N 0.15288 0.52499 0.39744 0.0
N12 N 0.11836 0.50164 0.38758 0.0
C13 C 0.13446 0.5222 0.38554 0.0
C14 C 0.14834 0.50557 0.4073 0.0
C15 C 0.12712 0.49115 0.40121 0.0
C16 C 0.19592 0.54262 0.35005 0.0
O17 O 0.18569 0.52334 0.36155 0.0
H18 H 0.13294 0.53505 0.37565 0.0
H19 H 0.15965 0.50217 0.41831 0.0
O20 O 0.17521 0.57354 0.41726 0.0
H21 H 0.21141 0.55326 0.49633 0.0
H22 H 0.11869 0.47434 0.40703 0.0
Cu23 Cu 0.62745 0.17914 0.54941 0.0
N24 N 0.61808 0.19895 0.5454 0.0
N25 N 0.62017 0.23098 0.54344 0.0
C26 C 0.63117 0.22031 0.54401 0.0
C27 C 0.59927 0.21565 0.5445 0.0
C28 C 0.59803 0.19587 0.54565 0.0
O29 O 0.65567 0.19343 0.53128 0.0
C30 C 0.61105 0.16455 0.60574 0.0
O31 O 0.59282 0.15534 0.59121 0.0
H32 H 0.64849 0.22789 0.54464 0.0
H33 H 0.5836 0.18041 0.54723 0.0
N34 N 0.60886 0.15364 0.52952 0.0
N35 N 0.58992 0.11916 0.51574 0.0
C36 C 0.60363 0.13326 0.53585 0.0
C37 C 0.59812 0.15238 0.50473 0.0
C38 C 0.58645 0.13124 0.49621 0.0
C39 C 0.66315 0.18542 0.51306 0.0
O40 O 0.65264 0.1647 0.50793 0.0
H41 H 0.61 0.12897 0.55455 0.0
H42 H 0.59877 0.16596 0.49361 0.0
O43 O 0.62852 0.17481 0.59146 0.0
H44 H 0.58584 0.2185 0.54473 0.0
H45 H 0.57598 0.12527 0.47727 0.0
Cu46 Cu 0.4843 0.63652 0.73907 0.0
N47 N 0.48239 0.65631 0.76339 0.0
N48 N 0.4632 0.66933 0.78469 0.0
C49 C 0.46625 0.6605 0.76031 0.0
C50 C 0.47832 0.67099 0.80387 0.0
C51 C 0.49006 0.66281 0.79072 0.0
O52 O 0.47788 0.64275 0.69978 0.0
C53 C 0.46809 0.60265 0.77873 0.0
O54 O 0.4885 0.61167 0.78571 0.0
H55 H 0.45533 0.65474 0.74179 0.0
H56 H 0.5018 0.65986 0.80136 0.0
N57 N 0.51161 0.63903 0.73947 0.0
N58 N 0.53827 0.63199 0.73131 0.0
C59 C 0.51729 0.6256 0.72687 0.0
C60 C 0.52956 0.65447 0.75225 0.0
C61 C 0.54597 0.65019 0.74732 0.0
C62 C 0.49202 0.66059 0.68894 0.0
O63 O 0.50999 0.67201 0.70357 0.0
H64 H 0.50622 0.61153 0.71449 0.0
H65 H 0.53067 0.66794 0.76429 0.0
O66 O 0.46275 0.60939 0.75612 0.0
H67 H 0.47982 0.67626 0.82647 0.0
H68 H 0.56224 0.65966 0.75535 0.0
Cu69 Cu 0.85474 0.47099 0.9016 0.0
N70 N 0.8388 0.47508 0.93031 0.0
N71 N 0.81132 0.46031 0.96177 0.0
C72 C 0.81812 0.46022 0.93419 0.0
C73 C 0.82842 0.47628 0.97572 0.0
C74 C 0.84541 0.48536 0.95623 0.0
O75 O 0.8362 0.46149 0.86695 0.0
C76 C 0.87243 0.45424 0.94033 0.0
O77 O 0.88602 0.47471 0.94444 0.0
H78 H 0.8093 0.44751 0.91844 0.0
H79 H 0.86192 0.49667 0.96167 0.0
N80 N 0.88093 0.4961 0.89449 0.0
N81 N 0.91547 0.5185 0.88356 0.0
C82 C 0.89932 0.49788 0.884 0.0
C83 C 0.88555 0.51623 0.90066 0.0
C84 C 0.90675 0.53004 0.89395 0.0
C85 C 0.83254 0.47518 0.85443 0.0
O86 O 0.84321 0.49521 0.8633 0.0
H87 H 0.90098 0.48424 0.87789 0.0
H88 H 0.87431 0.52051 0.90982 0.0
O89 O 0.85884 0.44872 0.91947 0.0
H90 H 0.82923 0.47978 0.99897 0.0
H91 H 0.91507 0.54728 0.8966 0.0
Cu92 Cu 0.40636 0.8521 0.06115 0.0
N93 N 0.42977 0.84817 0.05483 0.0
N94 N 0.44601 0.82858 0.05399 0.0
C95 C 0.42768 0.82889 0.04895 0.0
C96 C 0.4603 0.84852 0.06321 0.0
C97 C 0.45023 0.86059 0.0637 0.0
O98 O 0.38303 0.83073 0.03707 0.0
C99 C 0.41352 0.86236 0.12084 0.0
O100 O 0.42856 0.88055 0.10987 0.0
H101 H 0.4124 0.81475 0.04426 0.0
H102 H 0.4568 0.87659 0.07255 0.0
N103 N 0.41147 0.87926 0.0496 0.0
N104 N 0.42656 0.91399 0.03763 0.0
C105 C 0.43004 0.89789 0.0459 0.0
C106 C 0.39584 0.88375 0.04348 0.0
C107 C 0.40503 0.90505 0.03612 0.0
C108 C 0.36306 0.82238 0.04223 0.0
O109 O 0.35672 0.82773 0.06627 0.0
H110 H 0.44572 0.8996 0.04909 0.0
H111 H 0.37886 0.8723 0.0446 0.0
O112 O 0.40068 0.84778 0.10325 0.0
H113 H 0.47636 0.85355 0.07097 0.0
H114 H 0.39643 0.91339 0.03077 0.0
Cu115 Cu 0.54473 0.37504 0.23516 0.0
N116 N 0.54512 0.35133 0.25108 0.0
N117 N 0.56667 0.33905 0.2665 0.0
C118 C 0.56193 0.34871 0.24468 0.0
C119 C 0.55142 0.33441 0.28704 0.0
C120 C 0.53825 0.34216 0.27759 0.0
O121 O 0.5587 0.3785 0.19702 0.0
C122 C 0.54905 0.39579 0.28746 0.0
O123 O 0.52851 0.38152 0.28737 0.0
H124 H 0.57215 0.35629 0.22595 0.0
H125 H 0.5265 0.34351 0.29083 0.0
N126 N 0.51752 0.37218 0.22961 0.0
N127 N 0.49325 0.3821 0.21918 0.0
C128 C 0.51431 0.38838 0.22161 0.0
C129 C 0.49783 0.35495 0.23245 0.0
C130 C 0.48281 0.36101 0.22591 0.0
C131 C 0.54683 0.36676 0.17605 0.0
O132 O 0.52594 0.35665 0.17958 0.0
H133 H 0.52728 0.40445 0.21736 0.0
H134 H 0.49465 0.33917 0.23884 0.0
O135 O 0.56011 0.39735 0.26468 0.0
H136 H 0.55133 0.32828 0.30879 0.0
H137 H 0.46556 0.35075 0.22653 0.0
Cu138 Cu 0.45009 0.82795 0.48304 0.0
N139 N 0.42121 0.81178 0.49364 0.0
N140 N 0.38928 0.78324 0.50357 0.0
C141 C 0.41043 0.79065 0.49964 0.0
C142 C 0.38671 0.80048 0.50022 0.0
C143 C 0.40646 0.81807 0.49416 0.0
O144 O 0.4638 0.81205 0.4972 0.0
C145 C 0.4377 0.81877 0.4232 0.0
O146 O 0.42266 0.80056 0.43413 0.0
H147 H 0.41775 0.78068 0.49954 0.0
H148 H 0.40975 0.83416 0.48951 0.0
N149 N 0.46204 0.85416 0.50318 0.0
N150 N 0.48006 0.88902 0.51529 0.0
C151 C 0.47465 0.87439 0.4934 0.0
C152 C 0.45931 0.85607 0.53201 0.0
C153 C 0.47033 0.87742 0.53953 0.0
C154 C 0.46098 0.79465 0.48578 0.0
O155 O 0.45058 0.78814 0.46075 0.0
H156 H 0.47992 0.87824 0.47083 0.0
H157 H 0.44984 0.84276 0.54653 0.0
O158 O 0.45182 0.83262 0.44044 0.0
H159 H 0.37161 0.80034 0.50145 0.0
H160 H 0.47078 0.88387 0.56118 0.0
Cu161 Cu 0.66236 0.47815 0.62278 0.0
N162 N 0.68445 0.47664 0.60338 0.0
N163 N 0.69282 0.45314 0.58373 0.0
C164 C 0.68582 0.45888 0.60768 0.0
C165 C 0.69723 0.4687 0.56386 0.0
C166 C 0.69191 0.48311 0.57595 0.0
O167 O 0.65978 0.46295 0.65962 0.0
C168 C 0.63947 0.47589 0.57323 0.0
O169 O 0.65441 0.49618 0.57327 0.0
H170 H 0.67868 0.44856 0.62644 0.0
H171 H 0.69061 0.4954 0.56404 0.0
N172 N 0.66712 0.50582 0.63043 0.0
N173 N 0.65907 0.53126 0.64226 0.0
C174 C 0.65184 0.51001 0.63996 0.0
C175 C 0.68477 0.52505 0.62656 0.0
C176 C 0.67987 0.54078 0.6339 0.0
C177 C 0.66968 0.47353 0.68252 0.0
O178 O 0.67666 0.4942 0.68328 0.0
H179 H 0.63568 0.49754 0.64501 0.0
H180 H 0.69995 0.52745 0.61848 0.0
O181 O 0.63849 0.46425 0.59499 0.0
H182 H 0.7012 0.46815 0.54104 0.0
H183 H 0.6907 0.55787 0.63244 0.0
Cu184 Cu 0.19945 0.63839 0.79322 0.0
N185 N 0.21793 0.6272 0.79537 0.0
N186 N 0.24828 0.62585 0.79855 0.0
C187 C 0.23942 0.63858 0.79838 0.0
C188 C 0.23165 0.60569 0.7956 0.0
C189 C 0.21297 0.60658 0.79369 0.0
O190 O 0.21478 0.66617 0.81317 0.0
C191 C 0.18427 0.62338 0.73672 0.0
O192 O 0.17627 0.60503 0.75072 0.0
H193 H 0.24838 0.65589 0.79981 0.0
H194 H 0.1969 0.59313 0.79124 0.0
N195 N 0.17381 0.61965 0.8127 0.0
N196 N 0.13965 0.60183 0.82797 0.0
C197 C 0.1537 0.61616 0.80847 0.0
C198 C 0.17235 0.60704 0.83539 0.0
C199 C 0.15141 0.59608 0.84482 0.0
C200 C 0.20911 0.67017 0.83785 0.0
O201 O 0.19054 0.65615 0.84912 0.0
H202 H 0.14959 0.6243 0.79191 0.0
H203 H 0.1857 0.60609 0.84465 0.0
O204 O 0.19444 0.64068 0.75147 0.0
H205 H 0.23284 0.59128 0.79512 0.0
H206 H 0.14533 0.58464 0.86265 0.0
Cu207 Cu 0.59536 0.19972 0.97361 0.0
N208 N 0.62476 0.21626 0.98013 0.0
N209 N 0.65647 0.24529 0.98917 0.0
C210 C 0.63497 0.23671 0.98956 0.0
C211 C 0.65989 0.22955 0.97923 0.0
C212 C 0.64024 0.2116 0.97375 0.0
O213 O 0.58389 0.21818 0.98531 0.0
C214 C 0.60194 0.20625 0.91268 0.0
O215 O 0.61519 0.226 0.92119 0.0
H216 H 0.62682 0.24546 0.99507 0.0
H217 H 0.63744 0.1965 0.96478 0.0
N218 N 0.58487 0.17488 0.99644 0.0
N219 N 0.56823 0.14059 1.0109 0.0
C220 C 0.57038 0.15446 0.98931 0.0
C221 C 0.59211 0.17388 0.02331 0.0
C222 C 0.58186 0.15284 0.03232 0.0
C223 C 0.57398 0.21625 1.00932 0.0
O224 O 0.56807 0.19916 0.02558 0.0
H225 H 0.56212 0.14984 0.96838 0.0
H226 H 0.60423 0.18754 0.03534 0.0
O227 O 0.59088 0.19227 0.93199 0.0
H228 H 0.67545 0.23104 0.97561 0.0
H229 H 0.58428 0.14707 0.05311 0.0
Cu230 Cu 0.39166 0.56101 0.12094 0.0
N231 N 0.41257 0.58978 0.11762 0.0
N232 N 0.42819 0.62491 0.10903 0.0
C233 C 0.40962 0.60678 0.11503 0.0
C234 C 0.44334 0.61909 0.10793 0.0
C235 C 0.43365 0.5974 0.1133 0.0
O236 O 0.36613 0.55962 0.13858 0.0
C237 C 0.37882 0.55648 0.06201 0.0
O238 O 0.37114 0.56875 0.07073 0.0
H239 H 0.39406 0.60568 0.116 0.0
H240 H 0.44126 0.58769 0.11301 0.0
N241 N 0.40271 0.54776 0.1452 0.0
N242 N 0.41432 0.52637 0.16334 0.0
C243 C 0.40513 0.53058 0.14016 0.0
C244 C 0.41072 0.5547 0.17223 0.0
C245 C 0.41784 0.54162 0.18346 0.0
C246 C 0.35455 0.54563 0.1576 0.0
O247 O 0.35886 0.53042 0.16435 0.0
H248 H 0.40016 0.52135 0.12001 0.0
H249 H 0.41149 0.56851 0.1829 0.0
O250 O 0.38702 0.54973 0.08107 0.0
H251 H 0.46014 0.62967 0.10307 0.0
H252 H 0.42547 0.54355 0.20462 0.0
Cu253 Cu 0.83519 0.38038 0.29264 0.0
N254 N 0.81504 0.38966 0.29557 0.0
N255 N 0.78366 0.38923 0.29693 0.0
C256 C 0.79354 0.37744 0.29822 0.0
C257 C 0.7996 0.40967 0.2936 0.0
C258 C 0.81887 0.40988 0.29279 0.0
O259 O 0.82336 0.35288 0.31244 0.0
C260 C 0.85039 0.39632 0.23669 0.0
O261 O 0.85792 0.41445 0.2512 0.0
H262 H 0.78519 0.36019 0.29995 0.0
H263 H 0.83456 0.42378 0.28975 0.0
N264 N 0.86056 0.39994 0.31203 0.0
N265 N 0.89461 0.41792 0.32796 0.0
C266 C 0.88051 0.40274 0.30926 0.0
C267 C 0.86211 0.41378 0.33306 0.0
C268 C 0.88299 0.42489 0.34283 0.0
C269 C 0.80699 0.33608 0.30284 0.0
O270 O 0.79899 0.33659 0.27708 0.0
H271 H 0.88444 0.39348 0.29435 0.0
H272 H 0.84887 0.41551 0.34099 0.0
O273 O 0.84044 0.3788 0.25089 0.0
H274 H 0.79751 0.4235 0.29154 0.0
H275 H 0.88909 0.43722 0.35957 0.0
H276 H 0.23728 0.60972 0.4367 0.0
H277 H 0.26623 0.64376 0.45469 0.0
H278 H 0.28315 0.61061 0.51876 0.0
H279 H 0.25384 0.57596 0.50053 0.0
H280 H 0.27264 0.65779 0.52133 0.0
H281 H 0.33926 0.65347 0.46496 0.0
H282 H 0.3123 0.63934 0.45037 0.0
H283 H 0.31846 0.63039 0.48378 0.0
C284 C 0.2473 0.60951 0.4543 0.0
C285 C 0.24355 0.59007 0.46682 0.0
C286 C 0.26371 0.62904 0.46476 0.0
C287 C 0.27684 0.62964 0.48788 0.0
C288 C 0.27317 0.61038 0.50076 0.0
H289 H 0.39328 0.7513 0.52891 0.0
H290 H 0.3661 0.71325 0.5309 0.0
C291 C 0.25651 0.59069 0.4904 0.0
C292 C 0.29436 0.6507 0.49791 0.0
H293 H 0.3471 0.68663 0.48525 0.0
C294 C 0.28904 0.66403 0.51399 0.0
C295 C 0.31567 0.65867 0.48833 0.0
C296 C 0.32197 0.64485 0.47086 0.0
C297 C 0.30438 0.68548 0.51982 0.0
C298 C 0.32541 0.69393 0.50853 0.0
C299 C 0.33097 0.68021 0.49378 0.0
C300 C 0.34136 0.7172 0.50966 0.0
C301 C 0.29779 0.69893 0.53765 0.0
C302 C 0.33654 0.73211 0.49705 0.0
C303 C 0.35201 0.75385 0.49591 0.0
C304 C 0.37278 0.76113 0.50699 0.0
C305 C 0.37751 0.7462 0.51994 0.0
C306 C 0.36197 0.72446 0.52121 0.0
H307 H 0.28445 0.68885 0.55287 0.0
H308 H 0.31143 0.7113 0.55067 0.0
H309 H 0.292 0.7071 0.5226 0.0
H310 H 0.32098 0.72686 0.48718 0.0
H311 H 0.34794 0.76479 0.48529 0.0
H312 H 0.65815 0.26109 0.52044 0.0
H313 H 0.6744 0.30012 0.52439 0.0
H314 H 0.61889 0.29205 0.57155 0.0
H315 H 0.60262 0.25308 0.56794 0.0
H316 H 0.65554 0.32788 0.50645 0.0
H317 H 0.67323 0.32936 0.62558 0.0
H318 H 0.66856 0.30729 0.60185 0.0
H319 H 0.64639 0.31 0.61456 0.0
C320 C 0.64941 0.26762 0.53167 0.0
C321 C 0.62913 0.25394 0.54404 0.0
C322 C 0.65867 0.28992 0.53375 0.0
C323 C 0.64793 0.29892 0.54849 0.0
C324 C 0.6275 0.28537 0.56026 0.0
H325 H 0.66001 0.41596 0.60451 0.0
H326 H 0.65242 0.37984 0.59408 0.0
C327 C 0.61815 0.26311 0.55799 0.0
C328 C 0.65818 0.32247 0.55235 0.0
H329 H 0.67707 0.36137 0.60512 0.0
C330 C 0.66052 0.33533 0.52792 0.0
C331 C 0.66477 0.33206 0.58035 0.0
C332 C 0.66332 0.31906 0.60712 0.0
C333 C 0.6682 0.35746 0.53106 0.0
C334 C 0.67408 0.36693 0.55931 0.0
C335 C 0.67257 0.35413 0.58348 0.0
C336 C 0.67949 0.38943 0.56505 0.0
C337 C 0.66892 0.37026 0.50444 0.0
C338 C 0.69738 0.40706 0.55225 0.0
C339 C 0.70191 0.42807 0.55835 0.0
C340 C 0.68879 0.43173 0.57765 0.0
C341 C 0.67092 0.41394 0.59029 0.0
C342 C 0.6664 0.39314 0.58413 0.0
H343 H 0.66016 0.35982 0.48544 0.0
H344 H 0.66188 0.38057 0.50954 0.0
H345 H 0.68586 0.38085 0.49785 0.0
H346 H 0.70791 0.4046 0.53776 0.0
H347 H 0.71572 0.44144 0.54827 0.0
H348 H 0.26814 0.60536 0.77624 0.0
H349 H 0.30617 0.6165 0.77966 0.0
H350 H 0.31773 0.67243 0.82912 0.0
H351 H 0.2796 0.66141 0.82559 0.0
H352 H 0.3476 0.68238 0.78682 0.0
H353 H 0.33859 0.61271 0.84969 0.0
H354 H 0.32276 0.6046 0.81675 0.0
H355 H 0.31689 0.61828 0.84528 0.0
C356 C 0.27869 0.61988 0.78818 0.0
C357 C 0.27076 0.6324 0.8008 0.0
C358 C 0.30045 0.62622 0.79017 0.0
C359 C 0.31476 0.64508 0.80518 0.0
C360 C 0.30697 0.65775 0.81758 0.0
H361 H 0.44394 0.66587 0.83757 0.0
H362 H 0.40937 0.66381 0.84583 0.0
C363 C 0.28519 0.65147 0.81544 0.0
C364 C 0.33794 0.65184 0.80697 0.0
H365 H 0.37227 0.6338 0.82512 0.0
C366 C 0.35304 0.67188 0.79554 0.0
C367 C 0.34514 0.63838 0.81895 0.0
C368 C 0.33001 0.6174 0.83366 0.0
C369 C 0.37499 0.67836 0.79444 0.0
C370 C 0.38195 0.66419 0.80441 0.0
C371 C 0.36697 0.6446 0.81715 0.0
C372 C 0.40433 0.6686 0.8002 0.0
C373 C 0.39042 0.70031 0.78257 0.0
C374 C 0.41328 0.67243 0.77194 0.0
C375 C 0.43319 0.67395 0.76723 0.0
C376 C 0.44449 0.67128 0.79058 0.0
C377 C 0.43588 0.66826 0.8191 0.0
C378 C 0.41598 0.66689 0.82383 0.0
H379 H 0.38431 0.7116 0.78614 0.0
H380 H 0.40647 0.70708 0.79301 0.0
H381 H 0.39222 0.69915 0.75853 0.0
H382 H 0.40447 0.67333 0.7532 0.0
H383 H 0.43942 0.6765 0.74506 0.0
H384 H 0.77305 0.43604 0.93558 0.0
H385 H 0.74473 0.4011 0.95192 0.0
H386 H 0.77849 0.40906 0.03358 0.0
H387 H 0.80747 0.44367 1.01656 0.0
H388 H 0.76937 0.37277 1.0098 0.0
H389 H 0.69529 0.37742 1.0064 0.0
H390 H 0.70884 0.38619 0.97191 0.0
H391 H 0.72149 0.40109 1.00493 0.0
C392 C 0.77418 0.43056 0.9573 0.0
C393 C 0.79255 0.44258 0.97465 0.0
C394 C 0.75785 0.41064 0.9668 0.0
C395 C 0.75927 0.40245 0.99418 0.0
C396 C 0.77695 0.41507 1.01243 0.0
H397 H 0.6534 0.27201 0.02826 0.0
H398 H 0.67895 0.31021 0.03536 0.0
C399 C 0.79344 0.43498 1.00279 0.0
C400 C 0.7439 0.37973 1.00161 0.0
H401 H 0.69083 0.34186 0.99822 0.0
C402 C 0.75216 0.36611 1.0079 0.0
C403 C 0.7214 0.37094 0.99973 0.0
C404 C 0.71129 0.38478 0.9957 0.0
C405 C 0.73867 0.34387 1.01044 0.0
C406 C 0.71636 0.3349 1.00562 0.0
C407 C 0.70796 0.34863 1.00131 0.0
C408 C 0.70167 0.31139 1.00315 0.0
C409 C 0.74856 0.33026 0.01795 0.0
C410 C 0.70588 0.2993 0.98271 0.0
C411 C 0.69141 0.27746 0.97885 0.0
C412 C 0.6722 0.26734 0.99491 0.0
C413 C 0.66803 0.27942 1.01547 0.0
C414 C 0.68263 0.30122 0.01958 0.0
H415 H 0.76337 0.33944 0.03127 0.0
H416 H 0.73722 0.31568 0.03033 0.0
H417 H 0.75312 0.32527 0.99736 0.0
H418 H 0.72007 0.30687 0.96905 0.0
H419 H 0.69487 0.26871 0.96244 0.0
H420 H 0.46588 0.81884 0.09669 0.0
H421 H 0.46463 0.78457 0.10369 0.0
H422 H 0.42884 0.76096 0.02291 0.0
H423 H 0.42931 0.79503 1.01666 0.0
H424 H 0.41036 0.73273 0.06358 0.0
H425 H 0.4967 0.7586 0.06826 0.0
H426 H 0.48986 0.77236 0.09522 0.0
H427 H 0.48716 0.77634 0.05669 0.0
C428 C 0.4582 0.8065 0.08011 0.0
C429 C 0.44783 0.80959 0.05599 0.0
C430 C 0.45753 0.78691 0.08406 0.0
C431 C 0.44697 0.77022 0.06358 0.0
C432 C 0.43714 0.77357 0.03901 0.0
H433 H 0.45485 0.6532 0.06878 0.0
H434 H 0.45893 0.68818 0.05686 0.0
C435 C 0.43746 0.79301 0.03536 0.0
C436 C 0.44471 0.74878 0.06889 0.0
H437 H 0.47262 0.72344 0.08678 0.0
C438 C 0.42403 0.73071 0.06834 0.0
C439 C 0.46251 0.74598 0.07475 0.0
C440 C 0.4853 0.76434 0.07345 0.0
C441 C 0.42062 0.71006 0.07394 0.0
C442 C 0.43829 0.70743 0.08146 0.0
C443 C 0.45901 0.72544 0.08147 0.0
C444 C 0.43571 0.68614 0.08889 0.0
C445 C 0.39813 0.69128 0.07104 0.0
C446 C 0.42152 0.67339 0.11112 0.0
C447 C 0.41893 0.65324 0.11759 0.0
C448 C 0.43092 0.6457 0.10255 0.0
C449 C 0.44553 0.65869 0.08088 0.0
C450 C 0.44783 0.67866 0.07403 0.0
H451 H 0.38818 0.69507 0.05621 0.0
H452 H 0.39819 0.67688 0.06239 0.0
H453 H 0.39035 0.6874 0.09295 0.0
H454 H 0.4125 0.67905 0.12359 0.0
H455 H 0.40781 0.64366 0.13469 0.0
H456 H 0.75229 0.35322 0.32295 0.0
H457 H 0.71344 0.33935 0.32026 0.0
H458 H 0.72445 0.39352 0.26737 0.0
H459 H 0.76309 0.40734 0.26968 0.0
H460 H 0.68939 0.36234 0.33647 0.0
H461 H 0.68193 0.33812 0.21925 0.0
H462 H 0.70422 0.3421 0.24206 0.0
H463 H 0.70335 0.36476 0.22717 0.0
C464 C 0.74642 0.36214 0.31068 0.0
C465 C 0.76084 0.38139 0.29647 0.0
C466 C 0.72425 0.35424 0.3093 0.0
C467 C 0.7161 0.36531 0.29338 0.0
C468 C 0.73042 0.38464 0.27956 0.0
H469 H 0.60511 0.36725 0.24204 0.0
H470 H 0.63948 0.3697 0.25029 0.0
C471 C 0.75254 0.39262 0.28112 0.0
C472 C 0.69264 0.35678 0.2908 0.0
H473 H 0.65244 0.33984 0.24004 0.0
C474 C 0.68114 0.35706 0.31554 0.0
C475 C 0.68198 0.34983 0.26349 0.0
C476 C 0.6934 0.34847 0.23647 0.0
C477 C 0.65952 0.3518 0.31327 0.0
C478 C 0.64911 0.34573 0.28562 0.0
C479 C 0.6604 0.34448 0.26122 0.0
C480 C 0.62748 0.34311 0.28059 0.0
C481 C 0.64837 0.35395 0.34005 0.0
C482 C 0.60903 0.32709 0.29465 0.0
C483 C 0.58896 0.32546 0.28975 0.0
C484 C 0.58699 0.33972 0.27055 0.0
C485 C 0.60559 0.35554 0.25636 0.0
C486 C 0.62548 0.35714 0.26126 0.0
H487 H 0.65972 0.36223 0.35844 0.0
H488 H 0.63999 0.36296 0.33464 0.0
H489 H 0.63615 0.33777 0.34769 0.0
H490 H 0.61013 0.31585 0.30934 0.0
H491 H 0.575 0.31306 0.30092 0.0
H492 H 0.16585 0.58873 0.70026 0.0
H493 H 0.16591 0.58812 0.64674 0.0
H494 H 0.19986 0.65715 0.64491 0.0
H495 H 0.20002 0.658 0.69901 0.0
H496 H 0.16239 0.63412 0.60334 0.0
H497 H 0.22203 0.60675 0.59706 0.0
H498 H 0.2004 0.59177 0.62227 0.0
H499 H 0.21888 0.61962 0.6293 0.0
C500 C 0.17327 0.60386 0.68865 0.0
C501 C 0.18305 0.62344 0.70407 0.0
C502 C 0.17335 0.60345 0.65796 0.0
C503 C 0.18314 0.62257 0.64184 0.0
C504 C 0.19232 0.6422 0.65697 0.0
H505 H 0.19986 0.60398 0.45484 0.0
H506 H 0.20731 0.62291 0.50204 0.0
C507 C 0.19238 0.64265 0.68786 0.0
C508 C 0.18382 0.62163 0.60924 0.0
H509 H 0.20115 0.60193 0.55389 0.0
C510 C 0.17115 0.62744 0.59241 0.0
C511 C 0.19552 0.61324 0.59492 0.0
C512 C 0.21015 0.60765 0.61173 0.0
C513 C 0.16883 0.6238 0.56185 0.0
C514 C 0.17926 0.6139 0.54788 0.0
C515 C 0.19303 0.60941 0.5645 0.0
C516 C 0.17438 0.60581 0.51705 0.0
C517 C 0.15488 0.63022 0.54494 0.0
C518 C 0.15334 0.5903 0.50938 0.0
C519 C 0.14908 0.57949 0.4825 0.0
C520 C 0.16575 0.58393 0.46263 0.0
C521 C 0.18661 0.60044 0.46943 0.0
C522 C 0.19091 0.61116 0.49653 0.0
H523 H 0.15444 0.64385 0.55574 0.0
H524 H 0.16061 0.63478 0.52201 0.0
H525 H 0.13822 0.6165 0.54428 0.0
H526 H 0.14037 0.58549 0.52497 0.0
H527 H 0.13289 0.56672 0.47802 0.0
H528 H 0.6436 0.19131 0.64279 0.0
H529 H 0.64144 0.1955 0.6958 0.0
H530 H 0.57586 0.14373 0.69554 0.0
H531 H 0.57771 0.13992 0.64241 0.0
H532 H 0.57902 0.1771 0.72429 0.0
H533 H 0.64286 0.16205 0.76503 0.0
H534 H 0.65268 0.18285 0.73793 0.0
H535 H 0.63287 0.15591 0.72783 0.0
C536 C 0.62885 0.18055 0.6541 0.0
C537 C 0.61084 0.16527 0.63834 0.0
C538 C 0.62765 0.1829 0.6845 0.0
C539 C 0.60856 0.16974 0.69987 0.0
C540 C 0.59078 0.15405 0.68426 0.0
H541 H 0.57533 0.16744 0.88627 0.0
H542 H 0.57585 0.15745 0.83475 0.0
C543 C 0.59188 0.15186 0.65386 0.0
C544 C 0.60659 0.17335 0.73172 0.0
H545 H 0.63023 0.1789 0.79889 0.0
C546 C 0.59007 0.17721 0.74061 0.0
C547 C 0.62096 0.17346 0.75316 0.0
C548 C 0.63819 0.16812 0.74557 0.0
C549 C 0.58794 0.18177 0.77005 0.0
C550 C 0.60271 0.18255 0.79116 0.0
C551 C 0.619 0.17837 0.78253 0.0
C552 C 0.60195 0.18852 0.82214 0.0
C553 C 0.57028 0.18627 0.77845 0.0
C554 C 0.61637 0.2093 0.83195 0.0
C555 C 0.61601 0.21511 0.86119 0.0
C556 C 0.60133 0.20018 0.88133 0.0
C557 C 0.58681 0.17934 0.87135 0.0
C558 C 0.58709 0.17359 0.84197 0.0
H559 H 0.56083 0.18627 0.75911 0.0
H560 H 0.55925 0.17391 0.79419 0.0
H561 H 0.57719 0.20206 0.78964 0.0
H562 H 0.62794 0.22104 0.81694 0.0
H563 H 0.62748 0.23126 0.86806 0.0
H564 H 0.36037 0.56598 1.01623 0.0
H565 H 0.3683 0.56669 0.9639 0.0
H566 H 0.41152 0.543 0.98312 0.0
H567 H 0.40321 0.54169 0.0354 0.0
H568 H 0.40623 0.59145 0.93986 0.0
H569 H 0.3816 0.5075 0.91215 0.0
H570 H 0.37341 0.51475 0.94574 0.0
H571 H 0.39943 0.51694 0.94309 0.0
C572 C 0.37119 0.56044 1.00928 0.0
C573 C 0.38115 0.55378 0.03007 0.0
C574 C 0.37574 0.56089 0.9793 0.0
C575 C 0.39037 0.55471 0.96937 0.0
C576 C 0.39978 0.54735 0.99 0.0
H577 H 0.47316 0.58039 0.82327 0.0
H578 H 0.4507 0.56598 0.8669 0.0
C579 C 0.39509 0.54672 0.02 0.0
C580 C 0.39749 0.55817 0.93808 0.0
H581 H 0.40631 0.53442 0.87865 0.0
C582 C 0.40587 0.57886 0.92632 0.0
C583 C 0.39709 0.54179 0.92032 0.0
C584 C 0.38719 0.51895 0.93088 0.0
C585 C 0.41467 0.58384 0.89793 0.0
C586 C 0.41492 0.56764 0.88056 0.0
C587 C 0.40606 0.54681 0.89195 0.0
C588 C 0.42613 0.57267 0.85174 0.0
C589 C 0.42456 0.60668 0.88727 0.0
C590 C 0.41925 0.58027 0.82804 0.0
C591 C 0.43206 0.58845 0.80288 0.0
C592 C 0.45198 0.58923 0.80113 0.0
C593 C 0.45796 0.58011 0.82398 0.0
C594 C 0.44513 0.57185 0.84897 0.0
H595 H 0.42643 0.61795 0.90524 0.0
H596 H 0.44056 0.61202 0.87737 0.0
H597 H 0.41414 0.60768 0.87008 0.0
H598 H 0.40449 0.58079 0.82958 0.0
H599 H 0.42703 0.59545 0.78575 0.0
H600 H 0.86824 0.43137 0.20116 0.0
H601 H 0.86859 0.43249 0.14764 0.0
H602 H 0.83646 0.36353 0.1442 0.0
H603 H 0.83585 0.36215 0.19826 0.0
H604 H 0.87513 0.38911 0.10367 0.0
H605 H 0.81153 0.41128 0.09718 0.0
H606 H 0.8324 0.4264 0.12348 0.0
H607 H 0.815 0.39815 0.12884 0.0
C608 C 0.86131 0.41637 0.18918 0.0
C609 C 0.8519 0.39665 0.2041 0.0
C610 C 0.86149 0.41707 0.15852 0.0
C611 C 0.85233 0.3981 0.14199 0.0
C612 C 0.84351 0.37834 0.15662 0.0
H613 H 0.83577 0.41722 0.95548 0.0
H614 H 0.82901 0.39781 1.00206 0.0
C615 C 0.8432 0.3776 0.18748 0.0
C616 C 0.85187 0.39932 0.10947 0.0
H617 H 0.83306 0.41774 0.05441 0.0
C618 C 0.86566 0.39498 0.09275 0.0
C619 C 0.83927 0.40668 0.09522 0.0
C620 C 0.82355 0.41074 0.112 0.0
C621 C 0.86817 0.39913 0.06235 0.0
C622 C 0.85676 0.40804 0.0485 0.0
C623 C 0.84192 0.41102 0.06497 0.0
C624 C 0.86159 0.41667 0.01804 0.0
C625 C 0.88336 0.39435 0.0455 0.0
C626 C 0.88225 0.43338 1.01117 0.0
C627 C 0.88613 0.44447 0.98465 0.0
C628 C 0.86944 0.43913 0.96438 0.0
C629 C 0.84905 0.42152 0.97041 0.0
C630 C 0.84513 0.41051 0.99713 0.0
H631 H 0.8848 0.38118 0.05598 0.0
H632 H 0.87804 0.38986 0.02238 0.0
H633 H 0.89955 0.40883 0.04542 0.0
H634 H 0.89511 0.43879 0.02712 0.0
H635 H 0.90196 0.45804 0.98075 0.0
H636 H 0.38993 0.82438 0.15064 0.0
H637 H 0.39345 0.81728 0.20249 0.0
H638 H 0.44161 0.88356 0.21473 0.0
H639 H 0.43801 0.89085 0.16336 0.0
H640 H 0.43061 0.82275 0.22984 0.0
H641 H 0.40227 0.87298 0.28459 0.0
H642 H 0.39729 0.86574 0.24622 0.0
H643 H 0.42297 0.88723 0.25794 0.0
C644 C 0.40097 0.83752 0.16451 0.0
C645 C 0.41363 0.8582 0.15281 0.0
C646 C 0.40305 0.83342 0.19411 0.0
C647 C 0.41763 0.84994 0.21262 0.0
C648 C 0.42994 0.87065 0.2011 0.0
H649 H 0.46145 0.85693 0.39381 0.0
H650 H 0.45771 0.86457 0.34222 0.0
C651 C 0.42792 0.87475 0.1716 0.0
C652 C 0.42099 0.84538 0.24347 0.0
H653 H 0.42 0.85965 0.31491 0.0
C654 C 0.42813 0.8307 0.24845 0.0
C655 C 0.41796 0.8559 0.26776 0.0
C656 C 0.40951 0.8712 0.26397 0.0
C657 C 0.43262 0.82649 0.27697 0.0
C658 C 0.42957 0.837 0.30125 0.0
C659 C 0.42247 0.85171 0.29628 0.0
C660 C 0.43274 0.83224 0.33206 0.0
C661 C 0.44099 0.81114 0.28082 0.0
C662 C 0.41997 0.81158 0.34348 0.0
C663 C 0.42207 0.80719 0.37282 0.0
C664 C 0.43694 0.82339 0.39153 0.0
C665 C 0.44995 0.84406 0.37998 0.0
C666 C 0.44776 0.84846 0.35054 0.0
H667 H 0.44803 0.80914 0.26014 0.0
H668 H 0.45335 0.81669 0.29839 0.0
H669 H 0.42754 0.79519 0.28718 0.0
H670 H 0.40801 0.7989 0.32984 0.0
H671 H 0.41172 0.79111 0.38093 0.0
H672 H 0.59206 0.42098 0.30153 0.0
H673 H 0.6072 0.43545 0.35028 0.0
H674 H 0.54328 0.40914 0.38546 0.0
H675 H 0.52824 0.39557 0.33723 0.0
H676 H 0.56773 0.44743 0.4068 0.0
H677 H 0.61002 0.40101 0.41806 0.0
H678 H 0.61846 0.41854 0.38684 0.0
H679 H 0.59143 0.39639 0.38855 0.0
C680 C 0.5813 0.41859 0.3196 0.0
C681 C 0.55894 0.407 0.31546 0.0
C682 C 0.58995 0.42661 0.34755 0.0
C683 C 0.57637 0.42292 0.37179 0.0
C684 C 0.55413 0.41208 0.36727 0.0
H685 H 0.61342 0.4334 0.55769 0.0
H686 H 0.59636 0.41961 0.5096 0.0
C687 C 0.54554 0.4043 0.33953 0.0
C688 C 0.58491 0.43017 0.40202 0.0
H689 H 0.61547 0.42576 0.45619 0.0
C690 C 0.57816 0.44265 0.41756 0.0
C691 C 0.59811 0.42354 0.41642 0.0
C692 C 0.60478 0.40896 0.40177 0.0
C693 C 0.58435 0.44883 0.44683 0.0
C694 C 0.59829 0.443 0.46081 0.0
C695 C 0.60485 0.4303 0.44547 0.0
C696 C 0.60718 0.45095 0.49068 0.0
C697 C 0.57549 0.46121 0.46261 0.0
C698 C 0.61877 0.47305 0.49611 0.0
C699 C 0.62819 0.48087 0.52346 0.0
C700 C 0.62663 0.46683 0.54606 0.0
C701 C 0.61473 0.44462 0.54088 0.0
C702 C 0.60513 0.43675 0.51334 0.0
H703 H 0.5599 0.45788 0.45305 0.0
H704 H 0.57316 0.45727 0.48639 0.0
H705 H 0.58688 0.47863 0.46024 0.0
H706 H 0.62107 0.48436 0.47887 0.0
H707 H 0.63732 0.49808 0.52652 0.0
H708 H 0.9222 0.41629 0.28836 0.0
H709 H 0.96047 0.42878 0.29566 0.0
H710 H 0.95665 0.44878 0.38371 0.0
H711 H 0.91852 0.43582 0.37701 0.0
H712 H 0.99391 0.46973 0.30903 0.0
H713 H 0.98503 0.41266 0.3968 0.0
H714 H 0.96281 0.40906 0.37423 0.0
H715 H 0.97138 0.4272 0.40501 0.0
C716 C 0.92943 0.42308 0.3094 0.0
C717 C 0.91715 0.42498 0.33208 0.0
C718 C 0.95135 0.43035 0.31348 0.0
C719 C 0.9614 0.43946 0.34039 0.0
C720 C 0.94922 0.44147 0.36294 0.0
H721 H 0.09586 0.52262 0.38218 0.0
H722 H 0.05813 0.50725 0.36843 0.0
C723 C 0.92739 0.43425 0.35891 0.0
C724 C 0.98469 0.44737 0.34488 0.0
H725 H 0.02008 0.44284 0.39033 0.0
C726 C 0.99965 0.46373 0.32664 0.0
C727 C 0.99221 0.43936 0.3676 0.0
C728 C 0.97702 0.42095 0.38685 0.0
C729 C 0.02188 0.47274 0.33112 0.0
C730 C 0.02937 0.46546 0.35479 0.0
C731 C 1.0144 0.44863 0.3724 0.0
C732 C 0.05263 0.4751 0.36188 0.0
C733 C 0.0371 0.48985 0.31028 0.0
C734 C 0.06211 0.46214 0.36337 0.0
C735 C 0.08367 0.47088 0.37141 0.0
C736 C 0.09629 0.4928 0.37826 0.0
C737 C 0.08678 0.50578 0.37658 0.0
C738 C 0.06517 0.497 0.36865 0.0
H739 H 0.02928 0.48905 0.28888 0.0
H740 H 0.04235 0.50585 0.32006 0.0
H741 H 0.05156 0.48841 0.30618 0.0
H742 H 0.05278 0.44519 0.35834 0.0
H743 H 0.09048 0.46044 0.37215 0.0
H744 H 0.48758 0.91448 0.46734 0.0
H745 H 0.50849 0.95373 0.46571 0.0
H746 H 0.52245 0.95538 0.55812 0.0
H747 H 0.50236 0.9164 0.55973 0.0
H748 H 0.50115 0.98249 0.49622 0.0
H749 H 0.58148 0.99514 0.52521 0.0
H750 H 0.55963 0.96933 0.51423 0.0
H751 H 0.56123 0.97875 0.55132 0.0
C752 C 0.49541 0.92316 0.48719 0.0
C753 C 0.49317 0.91214 0.51368 0.0
C754 C 0.50727 0.94564 0.48627 0.0
C755 C 0.51733 0.95757 0.51171 0.0
C756 C 0.51525 0.9466 0.53806 0.0
H757 H 0.58374 0.09245 0.56174 0.0
H758 H 0.56651 0.05326 0.56026 0.0
C759 C 0.50344 0.92422 0.53901 0.0
C760 C 0.52903 0.98148 0.51121 0.0
H761 H 0.57712 0.02591 0.52769 0.0
C762 C 0.51782 0.99197 0.50282 0.0
C763 C 0.55078 0.99391 0.52 0.0
C764 C 0.56406 0.98373 0.52793 0.0
C765 C 0.52754 0.01444 0.50365 0.0
C766 C 0.54922 0.02686 0.51269 0.0
C767 C 0.56049 0.0164 0.52091 0.0
C768 C 0.56046 0.05072 0.51344 0.0
C769 C 0.51434 0.02469 0.49557 0.0
C770 C 0.56329 0.06239 0.48755 0.0
C771 C 0.57319 0.08476 0.4883 0.0
C772 C 0.58063 0.09608 0.51498 0.0
C773 C 0.57833 0.08436 0.5408 0.0
C774 C 0.5684 0.06192 0.54001 0.0
H775 H 0.49686 0.01302 0.49643 0.0
H776 H 0.51789 0.03829 0.51048 0.0
H777 H 0.51834 0.03097 0.47282 0.0
H778 H 0.55779 0.05417 0.46667 0.0
H779 H 0.5751 0.09316 0.46785 0.0
H780 H 0.58151 0.65012 0.72475 0.0
H781 H 0.60141 0.63252 0.70927 0.0
H782 H 0.54216 0.57283 0.69932 0.0
H783 H 0.52203 0.59018 0.71529 0.0
H784 H 0.60139 0.59662 0.73574 0.0
H785 H 0.57304 0.58004 0.61996 0.0
H786 H 0.57023 0.59909 0.6427 0.0
H787 H 0.5523 0.57086 0.6473 0.0
C788 C 0.57261 0.63322 0.71949 0.0
C789 C 0.55005 0.62165 0.72137 0.0
C790 C 0.58407 0.6232 0.71047 0.0
C791 C 0.57329 0.60142 0.70281 0.0
C792 C 0.55081 0.58976 0.70459 0.0
H793 H 0.61561 0.51393 0.64179 0.0
H794 H 0.59518 0.53085 0.65752 0.0
C795 C 0.5393 0.59975 0.71372 0.0
C796 C 0.58569 0.59086 0.69372 0.0
H797 H 0.5945 0.56565 0.63619 0.0
C798 C 0.59995 0.5899 0.71394 0.0
C799 C 0.58371 0.58201 0.66534 0.0
C800 C 0.56914 0.58314 0.64242 0.0
C801 C 0.61205 0.58006 0.70672 0.0
C802 C 0.61027 0.5714 0.6782 0.0
C803 C 0.59593 0.57231 0.65802 0.0
C804 C 0.62298 0.56118 0.66892 0.0
C805 C 0.6262 0.57856 0.73001 0.0
C806 C 0.64552 0.57261 0.66971 0.0
C807 C 0.65734 0.56286 0.66103 0.0
C808 C 0.64692 0.54147 0.65107 0.0
C809 C 0.62432 0.53023 0.64984 0.0
C810 C 0.61253 0.53997 0.65862 0.0
H811 H 0.62113 0.58023 0.75246 0.0
H812 H 0.62601 0.56307 0.72861 0.0
H813 H 0.64294 0.59171 0.7268 0.0
H814 H 0.65401 0.58916 0.67691 0.0
H815 H 0.67465 0.57207 0.66242 0.0
H816 H 0.11153 0.59817 0.78516 0.0
H817 H 0.07275 0.58376 0.79052 0.0
H818 H 0.07762 0.57405 0.88306 0.0
H819 H 0.11611 0.58828 0.87785 0.0
H820 H 0.04464 0.53884 0.85723 0.0
H821 H 0.0412 0.61184 0.82714 0.0
H822 H 0.05338 0.60312 0.80006 0.0
H823 H 0.0661 0.6125 0.8352 0.0
C824 C 0.10436 0.59321 0.80669 0.0
C825 C 0.11697 0.59432 0.83103 0.0
C826 C 0.08218 0.58498 0.80975 0.0
C827 C 0.07223 0.57795 0.83727 0.0
C828 C 0.08486 0.57927 0.86158 0.0
H829 H 0.95036 0.55483 0.90307 0.0
H830 H 0.98775 0.56838 0.88954 0.0
C831 C 0.10691 0.58736 0.85853 0.0
C832 C 0.04865 0.5687 0.841 0.0
H833 H 1.00813 0.58043 0.83625 0.0
C834 C 0.03664 0.5479 0.8525 0.0
C835 C 0.03823 0.58059 0.83511 0.0
C836 C 0.05037 0.60332 0.82394 0.0
C837 C 1.01463 0.53877 0.85861 0.0
C838 C 1.00416 0.55059 0.85252 0.0
C839 C 1.01611 0.5713 0.84071 0.0
C840 C 0.98115 0.54228 0.85988 0.0
C841 C 1.00299 0.51687 0.87257 0.0
C842 C 0.96483 0.52316 0.8475 0.0
C843 C 0.94331 0.5153 0.85526 0.0
C844 C 0.93762 0.52654 0.87532 0.0
C845 C 0.95402 0.54585 0.8873 0.0
C846 C 0.97548 0.55362 0.87964 0.0
H847 H 1.01429 0.51225 0.88226 0.0
H848 H 0.99194 0.51626 0.89006 0.0
H849 H 0.99333 0.5048 0.85558 0.0
H850 H 0.96872 0.51434 0.83172 0.0
H851 H 0.93111 0.50059 0.84525 0.0
H852 H 0.57519 0.11203 0.04082 0.0
H853 H 0.55195 0.07323 0.04288 0.0
H854 H 0.5074 0.07757 0.98371 0.0
H855 H 0.53067 0.11656 0.98154 0.0
H856 H 0.51048 0.05064 0.06248 0.0
H857 H 0.51476 0.03032 0.94593 0.0
H858 H 0.5332 0.05616 0.96153 0.0
H859 H 0.50664 0.05001 0.95086 0.0
C860 C 0.56045 0.10481 0.02827 0.0
C861 C 0.5548 0.11751 1.01108 0.0
C862 C 0.54721 0.08256 0.02935 0.0
C863 C 0.52803 0.0724 1.0132 0.0
C864 C 0.52235 0.08497 0.99587 0.0
H865 H 0.42197 0.94209 1.00294 0.0
H866 H 0.44716 0.98033 0.99719 0.0
C867 C 0.53565 0.10728 0.99468 0.0
C868 C 0.51365 0.0488 1.01567 0.0
H869 H 0.48925 1.00221 0.97604 0.0
C870 C 0.50594 0.04004 0.04359 0.0
C871 C 0.50769 0.03496 0.99103 0.0
C872 C 0.51613 0.04326 0.96067 0.0
C873 C 0.49217 0.01793 0.04749 0.0
C874 C 0.4862 1.00409 0.02286 0.0
C875 C 0.49389 0.01283 0.99492 0.0
C876 C 0.47144 0.98059 0.02556 0.0
C877 C 0.48367 1.00966 0.07785 0.0
C878 C 0.47686 0.96786 0.04294 0.0
C879 C 0.46238 0.94592 0.04645 0.0
C880 C 0.44219 0.93627 0.03258 0.0
C881 C 0.43716 0.949 1.01443 0.0
C882 C 0.45163 0.97088 1.01092 0.0
H883 H 0.48554 0.02269 0.09282 0.0
H884 H 0.46644 0.99719 0.07698 0.0
H885 H 0.4927 1.00233 0.08741 0.0
H886 H 0.49224 0.97493 0.05402 0.0
H887 H 0.46679 0.93668 0.06062 0.0
H888 H 0.42164 0.50486 0.11957 0.0
H889 H 0.43225 0.47755 0.12524 0.0
H890 H 0.43099 0.4832 0.21945 0.0
H891 H 0.41962 0.50967 0.21406 0.0
H892 H 0.46804 0.48106 0.15063 0.0
H893 H 0.39679 0.41911 0.20933 0.0
H894 H 0.397 0.44148 0.19113 0.0
H895 H 0.40817 0.44461 0.22745 0.0
C896 C 0.42323 0.50002 0.14149 0.0
C897 C 0.41975 0.50959 0.16633 0.0
C898 C 0.42944 0.48448 0.14471 0.0
C899 C 0.43213 0.47803 0.1728 0.0
C900 C 0.42859 0.4875 0.19755 0.0
H901 H 0.51077 0.42492 0.22766 0.0
H902 H 0.49549 0.44732 0.21406 0.0
C903 C 0.42236 0.50294 0.19438 0.0
C904 C 0.43965 0.46223 0.17647 0.0
H905 H 0.42857 0.41613 0.21234 0.0
C906 C 0.45928 0.46673 0.16385 0.0
C907 C 0.4281 0.44332 0.19332 0.0
C908 C 0.40624 0.43671 0.20581 0.0
C909 C 0.46807 0.45335 0.16859 0.0
C910 C 0.45717 0.43518 0.18699 0.0
C911 C 0.43711 0.4302 0.1986 0.0
C912 C 0.46651 0.42144 0.19503 0.0
C913 C 0.48892 0.4588 0.15367 0.0
C914 C 0.45507 0.39924 0.18983 0.0
C915 C 0.46374 0.3863 0.19783 0.0
C916 C 0.48406 0.3953 0.21127 0.0
C917 C 0.49533 0.4175 0.21679 0.0
C918 C 0.48661 0.43037 0.20893 0.0
H919 H 0.49149 0.4686 0.13364 0.0
H920 H 0.50242 0.46832 0.16897 0.0
H921 H 0.48937 0.44411 0.14742 0.0
H922 H 0.43947 0.39192 0.17932 0.0
H923 H 0.45467 0.36932 0.19308 0.0
H924 H 0.19602 0.5131 0.31283 0.0
H925 H 0.22303 0.5183 0.27632 0.0
H926 H 0.2568 0.58617 0.29409 0.0
H927 H 0.22967 0.58107 0.33102 0.0
H928 H 0.23898 0.54493 0.22474 0.0
H929 H 0.3011 0.56613 0.31148 0.0
H930 H 0.27288 0.5537 0.31997 0.0
H931 H 0.28766 0.58156 0.31042 0.0
C932 C 0.20903 0.52921 0.30878 0.0
C933 C 0.21075 0.54666 0.32503 0.0
C934 C 0.22445 0.53215 0.2878 0.0
C935 C 0.2421 0.55256 0.28271 0.0
C936 C 0.24343 0.57023 0.29791 0.0
H937 H 0.34012 0.57419 0.14878 0.0
H938 H 0.31311 0.5777 0.1775 0.0
C939 C 0.22784 0.56731 0.31885 0.0
C940 C 0.25952 0.5548 0.26278 0.0
H941 H 0.31078 0.56337 0.26308 0.0
C942 C 0.25479 0.54927 0.23299 0.0
C943 C 0.28006 0.56018 0.27368 0.0
C944 C 0.28583 0.56561 0.30565 0.0
C945 C 0.26991 0.54863 0.21396 0.0
C946 C 0.2903 0.55367 0.22501 0.0
C947 C 0.29517 0.5596 0.25464 0.0
C948 C 0.30625 0.5514 0.20679 0.0
C949 C 0.26372 0.54172 0.18248 0.0
C950 C 0.31141 0.53551 0.21373 0.0
C951 C 0.32671 0.5334 0.19734 0.0
C952 C 0.33741 0.54728 0.17374 0.0
C953 C 0.33215 0.56317 0.16672 0.0
C954 C 0.31668 0.56518 0.18307 0.0
H955 H 0.24635 0.53542 0.17845 0.0
H956 H 0.27296 0.55564 0.16778 0.0
H957 H 0.26773 0.52917 0.17646 0.0
H958 H 0.30358 0.52472 0.23195 0.0
H959 H 0.33037 0.52103 0.20351 0.0
H960 H 0.76416 0.3073 0.3017 0.0
H961 H 0.7432 0.28023 0.33849 0.0
H962 H 0.80131 0.29556 0.38545 0.0
H963 H 0.82226 0.32361 0.3495 0.0
H964 H 0.74027 0.2452 0.35747 0.0
H965 H 0.76892 0.30282 0.45033 0.0
H966 H 0.77532 0.31133 0.41271 0.0
H967 H 0.79023 0.30122 0.43227 0.0
C968 C 0.77251 0.30478 0.31972 0.0
C969 C 0.79485 0.3177 0.32284 0.0
C970 C 0.76049 0.28929 0.34082 0.0
C971 C 0.77054 0.28614 0.36529 0.0
C972 C 0.79303 0.29815 0.36743 0.0
H973 H 0.68906 0.17572 0.47973 0.0
H974 H 0.71728 0.19939 0.44549 0.0
C975 C 0.80503 0.31403 0.34669 0.0
C976 C 0.75728 0.27069 0.38869 0.0
H977 H 0.74637 0.26641 0.46226 0.0
C978 C 0.74162 0.24984 0.3804 0.0
C979 C 0.75882 0.27677 0.41864 0.0
C980 C 0.77406 0.2993 0.42902 0.0
C981 C 0.72718 0.23514 0.40091 0.0
C982 C 0.72901 0.24108 0.43095 0.0
C983 C 0.74504 0.26174 0.43934 0.0
C984 C 0.71338 0.22693 0.45362 0.0
C985 C 0.70948 0.21384 0.38978 0.0
C986 C 0.70265 0.23478 0.471 0.0
C987 C 0.68708 0.22152 0.49122 0.0
C988 C 0.68159 0.19994 0.4943 0.0
C989 C 0.69279 0.19221 0.47765 0.0
C990 C 0.70876 0.20568 0.45782 0.0
H991 H 0.70677 0.21425 0.3658 0.0
H992 H 0.71399 0.20138 0.39364 0.0
H993 H 0.69414 0.20904 0.40133 0.0
H994 H 0.70589 0.25109 0.46836 0.0
H995 H 0.67873 0.22801 0.50358 0.0
H996 H 0.45351 0.64813 0.66093 0.0
H997 H 0.44679 0.66724 0.62129 0.0
H998 H 0.51422 0.71406 0.61881 0.0
H999 H 0.52105 0.69507 0.65774 0.0
H1000 H 0.45435 0.70857 0.62409 0.0
H1001 H 0.50081 0.70165 0.53219 0.0
H1002 H 0.49377 0.68489 0.56444 0.0
H1003 H 0.51661 0.71158 0.56501 0.0
C1004 C 0.46694 0.66221 0.65144 0.0
C1005 C 0.48782 0.67003 0.66249 0.0
C1006 C 0.46308 0.67318 0.62889 0.0
C1007 C 0.48004 0.69197 0.61676 0.0
C1008 C 0.50092 0.69938 0.62726 0.0
H1009 H 0.4791 0.80127 0.54065 0.0
H1010 H 0.48315 0.77553 0.5711 0.0
C1011 C 0.50477 0.68853 0.64975 0.0
C1012 C 0.47595 0.70497 0.59498 0.0
H1013 H 0.49242 0.73003 0.5285 0.0
C1014 C 0.46247 0.71304 0.60303 0.0
C1015 C 0.48635 0.71067 0.56733 0.0
C1016 C 0.50002 0.70156 0.55658 0.0
C1017 C 0.45979 0.72729 0.58478 0.0
C1018 C 0.47121 0.73399 0.55794 0.0
C1019 C 0.48397 0.72522 0.54929 0.0
C1020 C 0.47011 0.75013 0.53866 0.0
C1021 C 0.4447 0.735 0.59441 0.0
C1022 C 0.46236 0.74479 0.50977 0.0
C1023 C 0.4602 0.75957 0.49217 0.0
C1024 C 0.46586 0.78005 0.50304 0.0
C1025 C 0.47449 0.78564 0.53157 0.0
C1026 C 0.47664 0.77086 0.54914 0.0
H1027 H 0.43289 0.72403 0.61079 0.0
H1028 H 0.45409 0.75102 0.6048 0.0
H1029 H 0.43583 0.73646 0.57538 0.0
H1030 H 0.45739 0.72897 0.50111 0.0
H1031 H 0.45352 0.75468 0.47032 0.0
H1032 H 0.82609 0.50086 0.81703 0.0
H1033 H 0.79431 0.49167 0.78747 0.0
H1034 H 0.76599 0.42577 0.81477 0.0
H1035 H 0.79796 0.43489 0.84468 0.0
H1036 H 0.77351 0.46051 0.74124 0.0
H1037 H 0.72202 0.44488 0.83996 0.0
H1038 H 0.75094 0.4591 0.84223 0.0
H1039 H 0.73659 0.43063 0.83683 0.0
C1040 C 0.81325 0.48433 0.8165 0.0
C1041 C 0.81455 0.46863 0.83332 0.0
C1042 C 0.79508 0.4791 0.79955 0.0
C1043 C 0.77765 0.4581 0.7992 0.0
C1044 C 0.77916 0.44213 0.815 0.0
H1045 H 0.67226 0.43663 0.67811 0.0
H1046 H 0.69543 0.42774 0.70738 0.0
C1047 C 0.79751 0.44734 0.83187 0.0
C1048 C 0.75775 0.45355 0.7832 0.0
H1049 H 0.70699 0.44494 0.79417 0.0
C1050 C 0.7588 0.45668 0.75268 0.0
C1051 C 0.73865 0.44876 0.79827 0.0
C1052 C 0.73684 0.44574 0.83115 0.0
C1053 C 0.74159 0.45596 0.73696 0.0
C1054 C 0.72271 0.45181 0.75216 0.0
C1055 C 0.72137 0.44791 0.78253 0.0
C1056 C 0.70556 0.45434 0.73755 0.0
C1057 C 0.74425 0.46092 0.70451 0.0
C1058 C 0.70253 0.47143 0.74583 0.0
C1059 C 0.68931 0.47652 0.72923 0.0
C1060 C 0.67873 0.46457 0.704 0.0
C1061 C 0.68028 0.44628 0.69725 0.0
C1062 C 0.69365 0.44126 0.71384 0.0
H1063 H 0.76102 0.467 0.69705 0.0
H1064 H 0.73367 0.44612 0.69192 0.0
H1065 H 0.73951 0.47303 0.6991 0.0
H1066 H 0.71142 0.48166 0.76415 0.0
H1067 H 0.68838 0.4906 0.73523 0.0
H1068 H 0.31913 0.79982 0.04691 0.0
H1069 H 0.29317 0.77507 1.01098 0.0
H1070 H 0.34491 0.78644 0.95244 0.0
H1071 H 0.37093 0.81076 0.98836 0.0
H1072 H 0.28511 0.78197 0.95428 0.0
H1073 H 0.31175 0.72173 0.95528 0.0
H1074 H 0.32035 0.74258 0.98264 0.0
H1075 H 0.33295 0.74831 0.9471 0.0
C1076 C 0.325 0.79695 0.02647 0.0
C1077 C 0.34716 0.80719 0.02067 0.0
C1078 C 0.31013 0.78282 1.00591 0.0
C1079 C 0.31707 0.77858 0.97916 0.0
C1080 C 0.33915 0.789 0.97318 0.0
H1081 H 0.25188 0.69774 0.82735 0.0
H1082 H 0.27795 0.72544 0.86034 0.0
C1083 C 0.35402 0.80303 0.99374 0.0
C1084 C 0.30123 0.76359 0.95729 0.0
H1085 H 0.28692 0.71786 0.91801 0.0
C1086 C 0.28546 0.7679 0.94645 0.0
C1087 C 0.30166 0.74522 0.94699 0.0
C1088 C 0.31745 0.73903 0.95879 0.0
C1089 C 0.27035 0.75456 0.92535 0.0
C1090 C 0.27086 0.73626 0.91501 0.0
C1091 C 0.28665 0.73198 0.92577 0.0
C1092 C 0.25472 0.72088 0.89384 0.0
C1093 C 0.25419 0.76035 0.91393 0.0
C1094 C 0.23295 0.70922 0.90156 0.0
C1095 C 0.21801 0.69338 0.88277 0.0
C1096 C 0.22452 0.6888 0.85585 0.0
C1097 C 0.24626 0.70093 0.84779 0.0
C1098 C 0.26122 0.71671 0.86668 0.0
H1099 H 0.25943 0.77751 0.9179 0.0
H1100 H 0.25142 0.75703 0.89 0.0
H1101 H 0.2387 0.75054 0.92543 0.0
H1102 H 0.22759 0.71185 0.92259 0.0
H1103 H 0.20144 0.68432 0.88978 0.0
H1104 H 0.5872 0.37151 0.17056 0.0
H1105 H 0.59788 0.35242 0.13582 0.0
H1106 H 0.53617 0.32571 0.09323 0.0
H1107 H 0.52586 0.34523 0.12677 0.0
H1108 H 0.58039 0.31101 0.13304 0.0
H1109 H 0.5723 0.33723 0.02262 0.0
H1110 H 0.57279 0.35174 0.05527 0.0
H1111 H 0.54805 0.32906 0.04273 0.0
C1112 C 0.57627 0.36224 0.15305 0.0
C1113 C 0.55565 0.35988 0.15151 0.0
C1114 C 0.58231 0.35118 0.13332 0.0
C1115 C 0.56793 0.33768 0.11161 0.0
C1116 C 0.54785 0.33637 0.10912 0.0
H1117 H 0.54912 0.21592 0.05492 0.0
H1118 H 0.54933 0.24663 0.0782 0.0
C1119 C 0.54188 0.34747 0.12861 0.0
C1120 C 0.57245 0.32278 0.09422 0.0
H1121 H 0.56705 0.30108 0.02568 0.0
C1122 C 0.57786 0.30916 0.10947 0.0
C1123 C 0.56953 0.32041 0.06335 0.0
C1124 C 0.56559 0.33559 0.04507 0.0
C1125 C 0.57925 0.2926 0.09508 0.0
C1126 C 0.57439 0.28903 0.0647 0.0
C1127 C 0.57024 0.3034 0.04909 0.0
C1128 C 0.57312 0.27022 0.04901 0.0
C1129 C 0.5859 0.27912 0.11271 0.0
C1130 C 0.58544 0.27302 0.02371 0.0
C1131 C 0.58499 0.25537 1.00992 0.0
C1132 C 0.57224 0.23455 0.02122 0.0
C1133 C 0.55926 0.23172 0.0458 0.0
C1134 C 0.55954 0.24933 0.05934 0.0
H1135 H 0.5958 0.28808 0.13201 0.0
H1136 H 0.57135 0.26476 0.12108 0.0
H1137 H 0.59518 0.27375 0.09914 0.0
H1138 H 0.59589 0.28893 1.01511 0.0
H1139 H 0.59526 0.25815 0.99109 0.0
loop_
_geom_bond_atom_site_label_1
_geom_bond_atom_site_label_2
_geom_bond_distance
_geom_bond_site_symmetry_2
_ccdc_geom_bond_type
Cu0 N1 1.999 . S
Cu0 O6 1.974 . S
Cu0 N11 1.985 . S
Cu0 O20 1.959 . S
N1 Cu0 1.999 . S
N1 C3 1.263 . S
N1 C5 1.389 . S
N2 C3 1.358 . S
N2 C4 1.400 . S
C3 N1 1.263 . S
C3 N2 1.358 . S
C3 H9 0.930 . S
C4 N2 1.400 . S
C4 C5 1.351 . S
C4 H21 0.930 . S
C5 N1 1.389 . S
C5 C4 1.351 . S
C5 H10 0.930 . S
O6 Cu0 1.974 . S
O6 C16 1.282 . S
C7 O8 1.261 . S
C7 O20 1.251 . S
O8 C7 1.261 . S
H9 C3 0.930 . S
H10 C5 0.930 . S
N11 Cu0 1.985 . S
N11 C13 1.335 . S
N11 C14 1.390 . S
N12 C13 1.345 . S
N12 C15 1.336 . S
C13 N11 1.335 . S
C13 N12 1.345 . S
C13 H18 0.930 . S
C14 N11 1.390 . S
C14 C15 1.346 . S
C14 H19 0.930 . S
C15 N12 1.336 . S
C15 C14 1.346 . S
C15 H22 0.929 . S
C16 O6 1.282 . S
C16 O17 1.216 . S
O17 C16 1.216 . S
H18 C13 0.930 . S
H19 C14 0.930 . S
O20 Cu0 1.959 . S
O20 C7 1.251 . S
H21 C4 0.930 . S
H22 C15 0.929 . S
Cu23 N24 1.999 . S
Cu23 O29 1.974 . S
Cu23 N34 1.985 . S
Cu23 O43 1.959 . S
N24 Cu23 1.999 . S
N24 C26 1.263 . S
N24 C28 1.389 . S
N25 C26 1.358 . S
N25 C27 1.400 . S
C26 N24 1.263 . S
C26 N25 1.358 . S
C26 H32 0.930 . S
C27 N25 1.400 . S
C27 C28 1.351 . S
C27 H44 0.930 . S
C28 N24 1.389 . S
C28 C27 1.351 . S
C28 H33 0.930 . S
O29 Cu23 1.974 . S
O29 C39 1.282 . S
C30 O31 1.261 . S
C30 O43 1.251 . S
O31 C30 1.261 . S
H32 C26 0.930 . S
H33 C28 0.930 . S
N34 Cu23 1.985 . S
N34 C36 1.335 . S
N34 C37 1.390 . S
N35 C36 1.345 . S
N35 C38 1.336 . S
C36 N34 1.335 . S
C36 N35 1.345 . S
C36 H41 0.930 . S
C37 N34 1.390 . S
C37 C38 1.346 . S
C37 H42 0.930 . S
C38 N35 1.336 . S
C38 C37 1.346 . S
C38 H45 0.929 . S
C39 O29 1.282 . S
C39 O40 1.216 . S
O40 C39 1.216 . S
H41 C36 0.930 . S
H42 C37 0.930 . S
O43 Cu23 1.959 . S
O43 C30 1.251 . S
H44 C27 0.930 . S
H45 C38 0.929 . S
Cu46 N47 1.999 . S
Cu46 O52 1.974 . S
Cu46 N57 1.985 . S
Cu46 O66 1.959 . S
N47 Cu46 1.999 . S
N47 C49 1.263 . S
N47 C51 1.389 . S
N48 C49 1.358 . S
N48 C50 1.400 . S
C49 N47 1.263 . S
C49 N48 1.358 . S
C49 H55 0.930 . S
C50 N48 1.400 . S
C50 C51 1.351 . S
C50 H67 0.930 . S
C51 N47 1.389 . S
C51 C50 1.351 . S
C51 H56 0.930 . S
O52 Cu46 1.974 . S
O52 C62 1.282 . S
C53 O54 1.261 . S
C53 O66 1.251 . S
O54 C53 1.261 . S
H55 C49 0.930 . S
H56 C51 0.930 . S
N57 Cu46 1.985 . S
N57 C59 1.335 . S
N57 C60 1.390 . S
N58 C59 1.345 . S
N58 C61 1.336 . S
C59 N57 1.335 . S
C59 N58 1.345 . S
C59 H64 0.930 . S
C60 N57 1.390 . S
C60 C61 1.346 . S
C60 H65 0.930 . S
C61 N58 1.336 . S
C61 C60 1.346 . S
C61 H68 0.929 . S
C62 O52 1.282 . S
C62 O63 1.216 . S
O63 C62 1.216 . S
H64 C59 0.930 . S
H65 C60 0.930 . S
O66 Cu46 1.959 . S
O66 C53 1.251 . S
H67 C50 0.930 . S
H68 C61 0.929 . S
Cu69 N70 1.999 . S
Cu69 O75 1.974 . S
Cu69 N80 1.985 . S
Cu69 O89 1.959 . S
N70 Cu69 1.999 . S
N70 C72 1.263 . S
N70 C74 1.389 . S
N71 C72 1.358 . S
N71 C73 1.400 . S
C72 N70 1.263 . S
C72 N71 1.358 . S
C72 H78 0.930 . S
C73 N71 1.400 . S
C73 C74 1.351 . S
C73 H90 0.930 . S
C74 N70 1.389 . S
C74 C73 1.351 . S
C74 H79 0.930 . S
O75 Cu69 1.974 . S
O75 C85 1.282 . S
C76 O77 1.261 . S
C76 O89 1.251 . S
O77 C76 1.261 . S
H78 C72 0.930 . S
H79 C74 0.930 . S
N80 Cu69 1.985 . S
N80 C82 1.335 . S
N80 C83 1.390 . S
N81 C82 1.345 . S
N81 C84 1.336 . S
C82 N80 1.335 . S
C82 N81 1.345 . S
C82 H87 0.930 . S
C83 N80 1.390 . S
C83 C84 1.346 . S
C83 H88 0.930 . S
C84 N81 1.336 . S
C84 C83 1.346 . S
C84 H91 0.929 . S
C85 O75 1.282 . S
C85 O86 1.216 . S
O86 C85 1.216 . S
H87 C82 0.930 . S
H88 C83 0.930 . S
O89 Cu69 1.959 . S
O89 C76 1.251 . S
H90 C73 0.930 . S
H91 C84 0.929 . S
Cu92 N93 1.999 . S
Cu92 O98 1.974 . S
Cu92 N103 1.985 . S
Cu92 O112 1.959 . S
N93 Cu92 1.999 . S
N93 C95 1.263 . S
N93 C97 1.389 . S
N94 C95 1.358 . S
N94 C96 1.400 . S
C95 N93 1.263 . S
C95 N94 1.358 . S
C95 H101 0.930 . S
C96 N94 1.400 . S
C96 C97 1.351 . S
C96 H113 0.930 . S
C97 N93 1.389 . S
C97 C96 1.351 . S
C97 H102 0.930 . S
O98 Cu92 1.974 . S
O98 C108 1.282 . S
C99 O100 1.261 . S
C99 O112 1.251 . S
O100 C99 1.261 . S
H101 C95 0.930 . S
H102 C97 0.930 . S
N103 Cu92 1.985 . S
N103 C105 1.335 . S
N103 C106 1.390 . S
N104 C105 1.345 . S
N104 C107 1.336 . S
C105 N103 1.335 . S
C105 N104 1.345 . S
C105 H110 0.930 . S
C106 N103 1.390 . S
C106 C107 1.346 . S
C106 H111 0.930 . S
C107 N104 1.336 . S
C107 C106 1.346 . S
C107 H114 0.929 . S
C108 O98 1.282 . S
C108 O109 1.216 . S
O109 C108 1.216 . S
H110 C105 0.930 . S
H111 C106 0.930 . S
O112 Cu92 1.959 . S
O112 C99 1.251 . S
H113 C96 0.930 . S
H114 C107 0.929 . S
Cu115 N116 1.999 . S
Cu115 O121 1.974 . S
Cu115 N126 1.985 . S
Cu115 O135 1.959 . S
N116 Cu115 1.999 . S
N116 C118 1.263 . S
N116 C120 1.389 . S
N117 C118 1.358 . S
N117 C119 1.400 . S
C118 N116 1.263 . S
C118 N117 1.358 . S
C118 H124 0.930 . S
C119 N117 1.400 . S
C119 C120 1.351 . S
C119 H136 0.930 . S
C120 N116 1.389 . S
C120 C119 1.351 . S
C120 H125 0.930 . S
O121 Cu115 1.974 . S
O121 C131 1.282 . S
C122 O123 1.261 . S
C122 O135 1.251 . S
O123 C122 1.261 . S
H124 C118 0.930 . S
H125 C120 0.930 . S
N126 Cu115 1.985 . S
N126 C128 1.335 . S
N126 C129 1.390 . S
N127 C128 1.345 . S
N127 C130 1.336 . S
C128 N126 1.335 . S
C128 N127 1.345 . S
C128 H133 0.930 . S
C129 N126 1.390 . S
C129 C130 1.346 . S
C129 H134 0.930 . S
C130 N127 1.336 . S
C130 C129 1.346 . S
C130 H137 0.929 . S
C131 O121 1.282 . S
C131 O132 1.216 . S
O132 C131 1.216 . S
H133 C128 0.930 . S
H134 C129 0.930 . S
O135 Cu115 1.959 . S
O135 C122 1.251 . S
H136 C119 0.930 . S
H137 C130 0.929 . S
Cu138 N139 1.999 . S
Cu138 O144 1.974 . S
Cu138 N149 1.985 . S
Cu138 O158 1.959 . S
N139 Cu138 1.999 . S
N139 C141 1.263 . S
N139 C143 1.389 . S
N140 C141 1.358 . S
N140 C142 1.400 . S
C141 N139 1.263 . S
C141 N140 1.358 . S
C141 H147 0.930 . S
C142 N140 1.400 . S
C142 C143 1.351 . S
C142 H159 0.930 . S
C143 N139 1.389 . S
C143 C142 1.351 . S
C143 H148 0.930 . S
O144 Cu138 1.974 . S
O144 C154 1.282 . S
C145 O146 1.261 . S
C145 O158 1.251 . S
O146 C145 1.261 . S
H147 C141 0.930 . S
H148 C143 0.930 . S
N149 Cu138 1.985 . S
N149 C151 1.335 . S
N149 C152 1.390 . S
N150 C151 1.345 . S
N150 C153 1.336 . S
C151 N149 1.335 . S
C151 N150 1.345 . S
C151 H156 0.930 . S
C152 N149 1.390 . S
C152 C153 1.346 . S
C152 H157 0.930 . S
C153 N150 1.336 . S
C153 C152 1.346 . S
C153 H160 0.929 . S
C154 O144 1.282 . S
C154 O155 1.216 . S
O155 C154 1.216 . S
H156 C151 0.930 . S
H157 C152 0.930 . S
O158 Cu138 1.959 . S
O158 C145 1.251 . S
H159 C142 0.930 . S
H160 C153 0.929 . S
Cu161 N162 1.999 . S
Cu161 O167 1.974 . S
Cu161 N172 1.985 . S
Cu161 O181 1.959 . S
N162 Cu161 1.999 . S
N162 C164 1.263 . S
N162 C166 1.389 . S
N163 C164 1.358 . S
N163 C165 1.400 . S
C164 N162 1.263 . S
C164 N163 1.358 . S
C164 H170 0.930 . S
C165 N163 1.400 . S
C165 C166 1.351 . S
C165 H182 0.930 . S
C166 N162 1.389 . S
C166 C165 1.351 . S
C166 H171 0.930 . S
O167 Cu161 1.974 . S
O167 C177 1.282 . S
C168 O169 1.261 . S
C168 O181 1.251 . S
O169 C168 1.261 . S
H170 C164 0.930 . S
H171 C166 0.930 . S
N172 Cu161 1.985 . S
N172 C174 1.335 . S
N172 C175 1.390 . S
N173 C174 1.345 . S
N173 C176 1.336 . S
C174 N172 1.335 . S
C174 N173 1.345 . S
C174 H179 0.930 . S
C175 N172 1.390 . S
C175 C176 1.346 . S
C175 H180 0.930 . S
C176 N173 1.336 . S
C176 C175 1.346 . S
C176 H183 0.929 . S
C177 O167 1.282 . S
C177 O178 1.216 . S
O178 C177 1.216 . S
H179 C174 0.930 . S
H180 C175 0.930 . S
O181 Cu161 1.959 . S
O181 C168 1.251 . S
H182 C165 0.930 . S
H183 C176 0.929 . S
Cu184 N185 1.999 . S
Cu184 O190 1.974 . S
Cu184 N195 1.985 . S
Cu184 O204 1.959 . S
N185 Cu184 1.999 . S
N185 C187 1.263 . S
N185 C189 1.389 . S
N186 C187 1.358 . S
N186 C188 1.400 . S
C187 N185 1.263 . S
C187 N186 1.358 . S
C187 H193 0.930 . S
C188 N186 1.400 . S
C188 C189 1.351 . S
C188 H205 0.930 . S
C189 N185 1.389 . S
C189 C188 1.351 . S
C189 H194 0.930 . S
O190 Cu184 1.974 . S
O190 C200 1.282 . S
C191 O192 1.261 . S
C191 O204 1.251 . S
O192 C191 1.261 . S
H193 C187 0.930 . S
H194 C189 0.930 . S
N195 Cu184 1.985 . S
N195 C197 1.335 . S
N195 C198 1.390 . S
N196 C197 1.345 . S
N196 C199 1.336 . S
C197 N195 1.335 . S
C197 N196 1.345 . S
C197 H202 0.930 . S
C198 N195 1.390 . S
C198 C199 1.346 . S
C198 H203 0.930 . S
C199 N196 1.336 . S
C199 C198 1.346 . S
C199 H206 0.929 . S
C200 O190 1.282 . S
C200 O201 1.216 . S
O201 C200 1.216 . S
H202 C197 0.930 . S
H203 C198 0.930 . S
O204 Cu184 1.959 . S
O204 C191 1.251 . S
H205 C188 0.930 . S
H206 C199 0.929 . S
Cu207 N208 1.999 . S
Cu207 O213 1.974 . S
Cu207 N218 1.985 . S
Cu207 O227 1.959 . S
N208 Cu207 1.999 . S
N208 C210 1.263 . S
N208 C212 1.389 . S
N209 C210 1.358 . S
N209 C211 1.400 . S
C210 N208 1.263 . S
C210 N209 1.358 . S
C210 H216 0.930 . S
C211 N209 1.400 . S
C211 C212 1.351 . S
C211 H228 0.930 . S
C212 N208 1.389 . S
C212 C211 1.351 . S
C212 H217 0.930 . S
O213 Cu207 1.974 . S
O213 C223 1.282 . S
C214 O215 1.261 . S
C214 O227 1.251 . S
O215 C214 1.261 . S
H216 C210 0.930 . S
H217 C212 0.930 . S
N218 Cu207 1.985 . S
N218 C220 1.335 . S
N218 C221 1.390 . S
N219 C220 1.345 . S
N219 C222 1.336 . S
C220 N218 1.335 . S
C220 N219 1.345 . S
C220 H225 0.930 . S
C221 N218 1.390 . S
C221 C222 1.346 . S
C221 H226 0.930 . S
C222 N219 1.336 . S
C222 C221 1.346 . S
C222 H229 0.929 . S
C223 O213 1.282 . S
C223 O224 1.216 . S
O224 C223 1.216 . S
H225 C220 0.930 . S
H226 C221 0.930 . S
O227 Cu207 1.959 . S
O227 C214 1.251 . S
H228 C211 0.930 . S
H229 C222 0.929 . S
Cu230 N231 1.999 . S
Cu230 O236 1.974 . S
Cu230 N241 1.985 . S
Cu230 O250 1.959 . S
N231 Cu230 1.999 . S
N231 C233 1.263 . S
N231 C235 1.389 . S
N232 C233 1.358 . S
N232 C234 1.400 . S
C233 N231 1.263 . S
C233 N232 1.358 . S
C233 H239 0.930 . S
C234 N232 1.400 . S
C234 C235 1.351 . S
C234 H251 0.930 . S
C235 N231 1.389 . S
C235 C234 1.351 . S
C235 H240 0.930 . S
O236 Cu230 1.974 . S
O236 C246 1.282 . S
C237 O238 1.261 . S
C237 O250 1.251 . S
O238 C237 1.261 . S
H239 C233 0.930 . S
H240 C235 0.930 . S
N241 Cu230 1.985 . S
N241 C243 1.335 . S
N241 C244 1.390 . S
N242 C243 1.345 . S
N242 C245 1.336 . S
C243 N241 1.335 . S
C243 N242 1.345 . S
C243 H248 0.930 . S
C244 N241 1.390 . S
C244 C245 1.346 . S
C244 H249 0.930 . S
C245 N242 1.336 . S
C245 C244 1.346 . S
C245 H252 0.929 . S
C246 O236 1.282 . S
C246 O247 1.216 . S
O247 C246 1.216 . S
H248 C243 0.930 . S
H249 C244 0.930 . S
O250 Cu230 1.959 . S
O250 C237 1.251 . S
H251 C234 0.930 . S
H252 C245 0.929 . S
Cu253 N254 1.999 . S
Cu253 O259 1.974 . S
Cu253 N264 1.985 . S
Cu253 O273 1.959 . S
N254 Cu253 1.999 . S
N254 C256 1.263 . S
N254 C258 1.389 . S
N255 C256 1.358 . S
N255 C257 1.400 . S
C256 N254 1.263 . S
C256 N255 1.358 . S
C256 H262 0.930 . S
C257 N255 1.400 . S
C257 C258 1.351 . S
C257 H274 0.930 . S
C258 N254 1.389 . S
C258 C257 1.351 . S
C258 H263 0.930 . S
O259 Cu253 1.974 . S
O259 C269 1.282 . S
C260 O261 1.261 . S
C260 O273 1.251 . S
O261 C260 1.261 . S
H262 C256 0.930 . S
H263 C258 0.930 . S
N264 Cu253 1.985 . S
N264 C266 1.335 . S
N264 C267 1.390 . S
N265 C266 1.345 . S
N265 C268 1.336 . S
C266 N264 1.335 . S
C266 N265 1.345 . S
C266 H271 0.930 . S
C267 N264 1.390 . S
C267 C268 1.346 . S
C267 H272 0.930 . S
C268 N265 1.336 . S
C268 C267 1.346 . S
C268 H275 0.929 . S
C269 O259 1.282 . S
C269 O270 1.216 . S
O270 C269 1.216 . S
H271 C266 0.930 . S
H272 C267 0.930 . S
O273 Cu253 1.959 . S
O273 C260 1.251 . S
H274 C257 0.930 . S
H275 C268 0.929 . S
H276 C284 0.929 . S
H277 C286 0.930 . S
H278 C288 0.930 . S
H279 C291 0.929 . S
H280 C294 0.930 . S
H281 C296 0.960 . S
H282 C296 0.960 . S
H283 C296 0.960 . S
C284 H276 0.929 . S
C284 C285 1.377 . S
C284 C286 1.384 . S
C285 C284 1.377 . S
C285 C291 1.390 . S
C286 H277 0.930 . S
C286 C284 1.384 . S
C286 C287 1.372 . S
C287 C286 1.372 . S
C287 C288 1.400 . S
C287 C292 1.490 . S
C288 H278 0.930 . S
C288 C287 1.400 . S
C288 C291 1.386 . S
H289 C305 0.930 . S
H290 C306 0.931 . S
C291 H279 0.929 . S
C291 C285 1.390 . S
C291 C288 1.386 . S
C292 C287 1.490 . S
C292 C294 1.395 . S
C292 C295 1.403 . S
H293 C299 0.930 . S
C294 H280 0.930 . S
C294 C292 1.395 . S
C294 C297 1.403 . S
C295 C292 1.403 . S
C295 C296 1.524 . S
C295 C299 1.400 . S
C296 H281 0.960 . S
C296 H282 0.960 . S
C296 H283 0.960 . S
C296 C295 1.524 . S
C297 C294 1.403 . S
C297 C298 1.392 . S
C297 C301 1.495 . S
C298 C297 1.392 . S
C298 C299 1.385 . S
C298 C300 1.478 . S
C299 H293 0.930 . S
C299 C295 1.400 . S
C299 C298 1.385 . S
C300 C298 1.478 . S
C300 C302 1.381 . S
C300 C306 1.383 . S
C301 C297 1.495 . S
C301 H307 0.959 . S
C301 H308 0.961 . S
C301 H309 0.960 . S
C302 C300 1.381 . S
C302 C303 1.394 . S
C302 H310 0.930 . S
C303 C302 1.394 . S
C303 C304 1.383 . S
C303 H311 0.929 . S
C304 C303 1.383 . S
C304 C305 1.377 . S
C305 H289 0.930 . S
C305 C304 1.377 . S
C305 C306 1.379 . S
C306 H290 0.931 . S
C306 C300 1.383 . S
C306 C305 1.379 . S
H307 C301 0.959 . S
H308 C301 0.961 . S
H309 C301 0.960 . S
H310 C302 0.930 . S
H311 C303 0.929 . S
H312 C320 0.929 . S
H313 C322 0.930 . S
H314 C324 0.930 . S
H315 C327 0.929 . S
H316 C330 0.930 . S
H317 C332 0.960 . S
H318 C332 0.960 . S
H319 C332 0.960 . S
C320 H312 0.929 . S
C320 C321 1.377 . S
C320 C322 1.384 . S
C321 C320 1.377 . S
C321 C327 1.390 . S
C322 H313 0.930 . S
C322 C320 1.384 . S
C322 C323 1.372 . S
C323 C322 1.372 . S
C323 C324 1.400 . S
C323 C328 1.490 . S
C324 H314 0.930 . S
C324 C323 1.400 . S
C324 C327 1.386 . S
H325 C341 0.930 . S
H326 C342 0.931 . S
C327 H315 0.929 . S
C327 C321 1.390 . S
C327 C324 1.386 . S
C328 C323 1.490 . S
C328 C330 1.395 . S
C328 C331 1.403 . S
H329 C335 0.930 . S
C330 H316 0.930 . S
C330 C328 1.395 . S
C330 C333 1.403 . S
C331 C328 1.403 . S
C331 C332 1.524 . S
C331 C335 1.400 . S
C332 H317 0.960 . S
C332 H318 0.960 . S
C332 H319 0.960 . S
C332 C331 1.524 . S
C333 C330 1.403 . S
C333 C334 1.392 . S
C333 C337 1.495 . S
C334 C333 1.392 . S
C334 C335 1.385 . S
C334 C336 1.478 . S
C335 H329 0.930 . S
C335 C331 1.400 . S
C335 C334 1.385 . S
C336 C334 1.478 . S
C336 C338 1.381 . S
C336 C342 1.383 . S
C337 C333 1.495 . S
C337 H343 0.959 . S
C337 H344 0.961 . S
C337 H345 0.960 . S
C338 C336 1.381 . S
C338 C339 1.394 . S
C338 H346 0.930 . S
C339 C338 1.394 . S
C339 C340 1.383 . S
C339 H347 0.929 . S
C340 C339 1.383 . S
C340 C341 1.377 . S
C341 H325 0.930 . S
C341 C340 1.377 . S
C341 C342 1.379 . S
C342 H326 0.931 . S
C342 C336 1.383 . S
C342 C341 1.379 . S
H343 C337 0.959 . S
H344 C337 0.961 . S
H345 C337 0.960 . S
H346 C338 0.930 . S
H347 C339 0.929 . S
H348 C356 0.929 . S
H349 C358 0.930 . S
H350 C360 0.930 . S
H351 C363 0.929 . S
H352 C366 0.930 . S
H353 C368 0.960 . S
H354 C368 0.960 . S
H355 C368 0.960 . S
C356 H348 0.929 . S
C356 C357 1.377 . S
C356 C358 1.384 . S
C357 C356 1.377 . S
C357 C363 1.390 . S
C358 H349 0.930 . S
C358 C356 1.384 . S
C358 C359 1.372 . S
C359 C358 1.372 . S
C359 C360 1.400 . S
C359 C364 1.490 . S
C360 H350 0.930 . S
C360 C359 1.400 . S
C360 C363 1.386 . S
H361 C377 0.930 . S
H362 C378 0.931 . S
C363 H351 0.929 . S
C363 C357 1.390 . S
C363 C360 1.386 . S
C364 C359 1.490 . S
C364 C366 1.395 . S
C364 C367 1.403 . S
H365 C371 0.930 . S
C366 H352 0.930 . S
C366 C364 1.395 . S
C366 C369 1.403 . S
C367 C364 1.403 . S
C367 C368 1.524 . S
C367 C371 1.400 . S
C368 H353 0.960 . S
C368 H354 0.960 . S
C368 H355 0.960 . S
C368 C367 1.524 . S
C369 C366 1.403 . S
C369 C370 1.392 . S
C369 C373 1.495 . S
C370 C369 1.392 . S
C370 C371 1.385 . S
C370 C372 1.478 . S
C371 H365 0.930 . S
C371 C367 1.400 . S
C371 C370 1.385 . S
C372 C370 1.478 . S
C372 C374 1.381 . S
C372 C378 1.383 . S
C373 C369 1.495 . S
C373 H379 0.959 . S
C373 H380 0.961 . S
C373 H381 0.960 . S
C374 C372 1.381 . S
C374 C375 1.394 . S
C374 H382 0.930 . S
C375 C374 1.394 . S
C375 C376 1.383 . S
C375 H383 0.929 . S
C376 C375 1.383 . S
C376 C377 1.377 . S
C377 H361 0.930 . S
C377 C376 1.377 . S
C377 C378 1.379 . S
C378 H362 0.931 . S
C378 C372 1.383 . S
C378 C377 1.379 . S
H379 C373 0.959 . S
H380 C373 0.961 . S
H381 C373 0.960 . S
H382 C374 0.930 . S
H383 C375 0.929 . S
H384 C392 0.929 . S
H385 C394 0.930 . S
H386 C396 0.930 . S
H387 C399 0.929 . S
H388 C402 0.930 . S
H389 C404 0.960 . S
H390 C404 0.960 . S
H391 C404 0.960 . S
C392 H384 0.929 . S
C392 C393 1.377 . S
C392 C394 1.384 . S
C393 C392 1.377 . S
C393 C399 1.390 . S
C394 H385 0.930 . S
C394 C392 1.384 . S
C394 C395 1.372 . S
C395 C394 1.372 . S
C395 C396 1.400 . S
C395 C400 1.490 . S
C396 H386 0.930 . S
C396 C395 1.400 . S
C396 C399 1.386 . S
H397 C413 0.930 . S
H398 C414 0.931 . S
C399 H387 0.929 . S
C399 C393 1.390 . S
C399 C396 1.386 . S
C400 C395 1.490 . S
C400 C402 1.395 . S
C400 C403 1.403 . S
H401 C407 0.930 . S
C402 H388 0.930 . S
C402 C400 1.395 . S
C402 C405 1.403 . S
C403 C400 1.403 . S
C403 C404 1.524 . S
C403 C407 1.400 . S
C404 H389 0.960 . S
C404 H390 0.960 . S
C404 H391 0.960 . S
C404 C403 1.524 . S
C405 C402 1.403 . S
C405 C406 1.392 . S
C405 C409 1.495 . S
C406 C405 1.392 . S
C406 C407 1.385 . S
C406 C408 1.478 . S
C407 H401 0.930 . S
C407 C403 1.400 . S
C407 C406 1.385 . S
C408 C406 1.478 . S
C408 C410 1.381 . S
C408 C414 1.383 . S
C409 C405 1.495 . S
C409 H415 0.959 . S
C409 H416 0.961 . S
C409 H417 0.960 . S
C410 C408 1.381 . S
C410 C411 1.394 . S
C410 H418 0.930 . S
C411 C410 1.394 . S
C411 C412 1.383 . S
C411 H419 0.929 . S
C412 C411 1.383 . S
C412 C413 1.377 . S
C413 H397 0.930 . S
C413 C412 1.377 . S
C413 C414 1.379 . S
C414 H398 0.931 . S
C414 C408 1.383 . S
C414 C413 1.379 . S
H415 C409 0.959 . S
H416 C409 0.961 . S
H417 C409 0.960 . S
H418 C410 0.930 . S
H419 C411 0.929 . S
H420 C428 0.929 . S
H421 C430 0.930 . S
H422 C432 0.930 . S
H423 C435 0.929 . S
H424 C438 0.930 . S
H425 C440 0.960 . S
H426 C440 0.960 . S
H427 C440 0.960 . S
C428 H420 0.929 . S
C428 C429 1.377 . S
C428 C430 1.384 . S
C429 C428 1.377 . S
C429 C435 1.390 . S
C430 H421 0.930 . S
C430 C428 1.384 . S
C430 C431 1.372 . S
C431 C430 1.372 . S
C431 C432 1.400 . S
C431 C436 1.490 . S
C432 H422 0.930 . S
C432 C431 1.400 . S
C432 C435 1.386 . S
H433 C449 0.930 . S
H434 C450 0.931 . S
C435 H423 0.929 . S
C435 C429 1.390 . S
C435 C432 1.386 . S
C436 C431 1.490 . S
C436 C438 1.395 . S
C436 C439 1.403 . S
H437 C443 0.930 . S
C438 H424 0.930 . S
C438 C436 1.395 . S
C438 C441 1.403 . S
C439 C436 1.403 . S
C439 C440 1.524 . S
C439 C443 1.400 . S
C440 H425 0.960 . S
C440 H426 0.960 . S
C440 H427 0.960 . S
C440 C439 1.524 . S
C441 C438 1.403 . S
C441 C442 1.392 . S
C441 C445 1.495 . S
C442 C441 1.392 . S
C442 C443 1.385 . S
C442 C444 1.478 . S
C443 H437 0.930 . S
C443 C439 1.400 . S
C443 C442 1.385 . S
C444 C442 1.478 . S
C444 C446 1.381 . S
C444 C450 1.383 . S
C445 C441 1.495 . S
C445 H451 0.959 . S
C445 H452 0.961 . S
C445 H453 0.960 . S
C446 C444 1.381 . S
C446 C447 1.394 . S
C446 H454 0.930 . S
C447 C446 1.394 . S
C447 C448 1.383 . S
C447 H455 0.929 . S
C448 C447 1.383 . S
C448 C449 1.377 . S
C449 H433 0.930 . S
C449 C448 1.377 . S
C449 C450 1.379 . S
C450 H434 0.931 . S
C450 C444 1.383 . S
C450 C449 1.379 . S
H451 C445 0.959 . S
H452 C445 0.961 . S
H453 C445 0.960 . S
H454 C446 0.930 . S
H455 C447 0.929 . S
H456 C464 0.929 . S
H457 C466 0.930 . S
H458 C468 0.930 . S
H459 C471 0.929 . S
H460 C474 0.930 . S
H461 C476 0.960 . S
H462 C476 0.960 . S
H463 C476 0.960 . S
C464 H456 0.929 . S
C464 C465 1.377 . S
C464 C466 1.384 . S
C465 C464 1.377 . S
C465 C471 1.390 . S
C466 H457 0.930 . S
C466 C464 1.384 . S
C466 C467 1.372 . S
C467 C466 1.372 . S
C467 C468 1.400 . S
C467 C472 1.490 . S
C468 H458 0.930 . S
C468 C467 1.400 . S
C468 C471 1.386 . S
H469 C485 0.930 . S
H470 C486 0.931 . S
C471 H459 0.929 . S
C471 C465 1.390 . S
C471 C468 1.386 . S
C472 C467 1.490 . S
C472 C474 1.395 . S
C472 C475 1.403 . S
H473 C479 0.930 . S
C474 H460 0.930 . S
C474 C472 1.395 . S
C474 C477 1.403 . S
C475 C472 1.403 . S
C475 C476 1.524 . S
C475 C479 1.400 . S
C476 H461 0.960 . S
C476 H462 0.960 . S
C476 H463 0.960 . S
C476 C475 1.524 . S
C477 C474 1.403 . S
C477 C478 1.392 . S
C477 C481 1.495 . S
C478 C477 1.392 . S
C478 C479 1.385 . S
C478 C480 1.478 . S
C479 H473 0.930 . S
C479 C475 1.400 . S
C479 C478 1.385 . S
C480 C478 1.478 . S
C480 C482 1.381 . S
C480 C486 1.383 . S
C481 C477 1.495 . S
C481 H487 0.959 . S
C481 H488 0.961 . S
C481 H489 0.960 . S
C482 C480 1.381 . S
C482 C483 1.394 . S
C482 H490 0.930 . S
C483 C482 1.394 . S
C483 C484 1.383 . S
C483 H491 0.929 . S
C484 C483 1.383 . S
C484 C485 1.377 . S
C485 H469 0.930 . S
C485 C484 1.377 . S
C485 C486 1.379 . S
C486 H470 0.931 . S
C486 C480 1.383 . S
C486 C485 1.379 . S
H487 C481 0.959 . S
H488 C481 0.961 . S
H489 C481 0.960 . S
H490 C482 0.930 . S
H491 C483 0.929 . S
H492 C500 0.929 . S
H493 C502 0.930 . S
H494 C504 0.930 . S
H495 C507 0.929 . S
H496 C510 0.930 . S
H497 C512 0.960 . S
H498 C512 0.960 . S
H499 C512 0.960 . S
C500 H492 0.929 . S
C500 C501 1.377 . S
C500 C502 1.384 . S
C501 C500 1.377 . S
C501 C507 1.390 . S
C502 H493 0.930 . S
C502 C500 1.384 . S
C502 C503 1.372 . S
C503 C502 1.372 . S
C503 C504 1.400 . S
C503 C508 1.490 . S
C504 H494 0.930 . S
C504 C503 1.400 . S
C504 C507 1.386 . S
H505 C521 0.930 . S
H506 C522 0.931 . S
C507 H495 0.929 . S
C507 C501 1.390 . S
C507 C504 1.386 . S
C508 C503 1.490 . S
C508 C510 1.395 . S
C508 C511 1.403 . S
H509 C515 0.930 . S
C510 H496 0.930 . S
C510 C508 1.395 . S
C510 C513 1.403 . S
C511 C508 1.403 . S
C511 C512 1.524 . S
C511 C515 1.400 . S
C512 H497 0.960 . S
C512 H498 0.960 . S
C512 H499 0.960 . S
C512 C511 1.524 . S
C513 C510 1.403 . S
C513 C514 1.392 . S
C513 C517 1.495 . S
C514 C513 1.392 . S
C514 C515 1.385 . S
C514 C516 1.478 . S
C515 H509 0.930 . S
C515 C511 1.400 . S
C515 C514 1.385 . S
C516 C514 1.478 . S
C516 C518 1.381 . S
C516 C522 1.383 . S
C517 C513 1.495 . S
C517 H523 0.959 . S
C517 H524 0.961 . S
C517 H525 0.960 . S
C518 C516 1.381 . S
C518 C519 1.394 . S
C518 H526 0.930 . S
C519 C518 1.394 . S
C519 C520 1.383 . S
C519 H527 0.929 . S
C520 C519 1.383 . S
C520 C521 1.377 . S
C521 H505 0.930 . S
C521 C520 1.377 . S
C521 C522 1.379 . S
C522 H506 0.931 . S
C522 C516 1.383 . S
C522 C521 1.379 . S
H523 C517 0.959 . S
H524 C517 0.961 . S
H525 C517 0.960 . S
H526 C518 0.930 . S
H527 C519 0.929 . S
H528 C536 0.929 . S
H529 C538 0.930 . S
H530 C540 0.930 . S
H531 C543 0.929 . S
H532 C546 0.930 . S
H533 C548 0.960 . S
H534 C548 0.960 . S
H535 C548 0.960 . S
C536 H528 0.929 . S
C536 C537 1.377 . S
C536 C538 1.384 . S
C537 C536 1.377 . S
C537 C543 1.390 . S
C538 H529 0.930 . S
C538 C536 1.384 . S
C538 C539 1.372 . S
C539 C538 1.372 . S
C539 C540 1.400 . S
C539 C544 1.490 . S
C540 H530 0.930 . S
C540 C539 1.400 . S
C540 C543 1.386 . S
H541 C557 0.930 . S
H542 C558 0.931 . S
C543 H531 0.929 . S
C543 C537 1.390 . S
C543 C540 1.386 . S
C544 C539 1.490 . S
C544 C546 1.395 . S
C544 C547 1.403 . S
H545 C551 0.930 . S
C546 H532 0.930 . S
C546 C544 1.395 . S
C546 C549 1.403 . S
C547 C544 1.403 . S
C547 C548 1.524 . S
C547 C551 1.400 . S
C548 H533 0.960 . S
C548 H534 0.960 . S
C548 H535 0.960 . S
C548 C547 1.524 . S
C549 C546 1.403 . S
C549 C550 1.392 . S
C549 C553 1.495 . S
C550 C549 1.392 . S
C550 C551 1.385 . S
C550 C552 1.478 . S
C551 H545 0.930 . S
C551 C547 1.400 . S
C551 C550 1.385 . S
C552 C550 1.478 . S
C552 C554 1.381 . S
C552 C558 1.383 . S
C553 C549 1.495 . S
C553 H559 0.959 . S
C553 H560 0.961 . S
C553 H561 0.960 . S
C554 C552 1.381 . S
C554 C555 1.394 . S
C554 H562 0.930 . S
C555 C554 1.394 . S
C555 C556 1.383 . S
C555 H563 0.929 . S
C556 C555 1.383 . S
C556 C557 1.377 . S
C557 H541 0.930 . S
C557 C556 1.377 . S
C557 C558 1.379 . S
C558 H542 0.931 . S
C558 C552 1.383 . S
C558 C557 1.379 . S
H559 C553 0.959 . S
H560 C553 0.961 . S
H561 C553 0.960 . S
H562 C554 0.930 . S
H563 C555 0.929 . S
H564 C572 0.929 . S
H565 C574 0.930 . S
H566 C576 0.930 . S
H567 C579 0.929 . S
H568 C582 0.930 . S
H569 C584 0.960 . S
H570 C584 0.960 . S
H571 C584 0.960 . S
C572 H564 0.929 . S
C572 C573 1.377 1_556 S
C572 C574 1.384 . S
C573 C572 1.377 1_554 S
C573 C579 1.390 . S
C574 H565 0.930 . S
C574 C572 1.384 . S
C574 C575 1.372 . S
C575 C574 1.372 . S
C575 C576 1.400 . S
C575 C580 1.490 . S
C576 H566 0.930 . S
C576 C575 1.400 . S
C576 C579 1.386 1_556 S
H577 C593 0.930 . S
H578 C594 0.931 . S
C579 H567 0.929 . S
C579 C573 1.390 . S
C579 C576 1.386 1_554 S
C580 C575 1.490 . S
C580 C582 1.395 . S
C580 C583 1.403 . S
H581 C587 0.930 . S
C582 H568 0.930 . S
C582 C580 1.395 . S
C582 C585 1.403 . S
C583 C580 1.403 . S
C583 C584 1.524 . S
C583 C587 1.400 . S
C584 H569 0.960 . S
C584 H570 0.960 . S
C584 H571 0.960 . S
C584 C583 1.524 . S
C585 C582 1.403 . S
C585 C586 1.392 . S
C585 C589 1.495 . S
C586 C585 1.392 . S
C586 C587 1.385 . S
C586 C588 1.478 . S
C587 H581 0.930 . S
C587 C583 1.400 . S
C587 C586 1.385 . S
C588 C586 1.478 . S
C588 C590 1.381 . S
C588 C594 1.383 . S
C589 C585 1.495 . S
C589 H595 0.959 . S
C589 H596 0.961 . S
C589 H597 0.960 . S
C590 C588 1.381 . S
C590 C591 1.394 . S
C590 H598 0.930 . S
C591 C590 1.394 . S
C591 C592 1.383 . S
C591 H599 0.929 . S
C592 C591 1.383 . S
C592 C593 1.377 . S
C593 H577 0.930 . S
C593 C592 1.377 . S
C593 C594 1.379 . S
C594 H578 0.931 . S
C594 C588 1.383 . S
C594 C593 1.379 . S
H595 C589 0.959 . S
H596 C589 0.961 . S
H597 C589 0.960 . S
H598 C590 0.930 . S
H599 C591 0.929 . S
H600 C608 0.929 . S
H601 C610 0.930 . S
H602 C612 0.930 . S
H603 C615 0.929 . S
H604 C618 0.930 . S
H605 C620 0.960 . S
H606 C620 0.960 . S
H607 C620 0.960 . S
C608 H600 0.929 . S
C608 C609 1.377 . S
C608 C610 1.384 . S
C609 C608 1.377 . S
C609 C615 1.390 . S
C610 H601 0.930 . S
C610 C608 1.384 . S
C610 C611 1.372 . S
C611 C610 1.372 . S
C611 C612 1.400 . S
C611 C616 1.490 . S
C612 H602 0.930 . S
C612 C611 1.400 . S
C612 C615 1.386 . S
H613 C629 0.930 . S
H614 C630 0.931 . S
C615 H603 0.929 . S
C615 C609 1.390 . S
C615 C612 1.386 . S
C616 C611 1.490 . S
C616 C618 1.395 . S
C616 C619 1.403 . S
H617 C623 0.930 . S
C618 H604 0.930 . S
C618 C616 1.395 . S
C618 C621 1.403 . S
C619 C616 1.403 . S
C619 C620 1.524 . S
C619 C623 1.400 . S
C620 H605 0.960 . S
C620 H606 0.960 . S
C620 H607 0.960 . S
C620 C619 1.524 . S
C621 C618 1.403 . S
C621 C622 1.392 . S
C621 C625 1.495 . S
C622 C621 1.392 . S
C622 C623 1.385 . S
C622 C624 1.478 . S
C623 H617 0.930 . S
C623 C619 1.400 . S
C623 C622 1.385 . S
C624 C622 1.478 . S
C624 C626 1.381 . S
C624 C630 1.383 . S
C625 C621 1.495 . S
C625 H631 0.959 . S
C625 H632 0.961 . S
C625 H633 0.960 . S
C626 C624 1.381 . S
C626 C627 1.394 1_554 S
C626 H634 0.930 . S
C627 C626 1.394 1_556 S
C627 C628 1.383 . S
C627 H635 0.929 . S
C628 C627 1.383 . S
C628 C629 1.377 . S
C629 H613 0.930 . S
C629 C628 1.377 . S
C629 C630 1.379 1_556 S
C630 H614 0.931 . S
C630 C624 1.383 . S
C630 C629 1.379 1_554 S
H631 C625 0.959 . S
H632 C625 0.961 . S
H633 C625 0.960 . S
H634 C626 0.930 . S
H635 C627 0.929 . S
H636 C644 0.929 . S
H637 C646 0.930 . S
H638 C648 0.930 . S
H639 C651 0.929 . S
H640 C654 0.930 . S
H641 C656 0.960 . S
H642 C656 0.960 . S
H643 C656 0.960 . S
C644 H636 0.929 . S
C644 C645 1.377 . S
C644 C646 1.384 . S
C645 C644 1.377 . S
C645 C651 1.390 . S
C646 H637 0.930 . S
C646 C644 1.384 . S
C646 C647 1.372 . S
C647 C646 1.372 . S
C647 C648 1.400 . S
C647 C652 1.490 . S
C648 H638 0.930 . S
C648 C647 1.400 . S
C648 C651 1.386 . S
H649 C665 0.930 . S
H650 C666 0.931 . S
C651 H639 0.929 . S
C651 C645 1.390 . S
C651 C648 1.386 . S
C652 C647 1.490 . S
C652 C654 1.395 . S
C652 C655 1.403 . S
H653 C659 0.930 . S
C654 H640 0.930 . S
C654 C652 1.395 . S
C654 C657 1.403 . S
C655 C652 1.403 . S
C655 C656 1.524 . S
C655 C659 1.400 . S
C656 H641 0.960 . S
C656 H642 0.960 . S
C656 H643 0.960 . S
C656 C655 1.524 . S
C657 C654 1.403 . S
C657 C658 1.392 . S
C657 C661 1.495 . S
C658 C657 1.392 . S
C658 C659 1.385 . S
C658 C660 1.478 . S
C659 H653 0.930 . S
C659 C655 1.400 . S
C659 C658 1.385 . S
C660 C658 1.478 . S
C660 C662 1.381 . S
C660 C666 1.383 . S
C661 C657 1.495 . S
C661 H667 0.959 . S
C661 H668 0.961 . S
C661 H669 0.960 . S
C662 C660 1.381 . S
C662 C663 1.394 . S
C662 H670 0.930 . S
C663 C662 1.394 . S
C663 C664 1.383 . S
C663 H671 0.929 . S
C664 C663 1.383 . S
C664 C665 1.377 . S
C665 H649 0.930 . S
C665 C664 1.377 . S
C665 C666 1.379 . S
C666 H650 0.931 . S
C666 C660 1.383 . S
C666 C665 1.379 . S
H667 C661 0.959 . S
H668 C661 0.961 . S
H669 C661 0.960 . S
H670 C662 0.930 . S
H671 C663 0.929 . S
H672 C680 0.929 . S
H673 C682 0.930 . S
H674 C684 0.930 . S
H675 C687 0.929 . S
H676 C690 0.930 . S
H677 C692 0.960 . S
H678 C692 0.960 . S
H679 C692 0.960 . S
C680 H672 0.929 . S
C680 C681 1.377 . S
C680 C682 1.384 . S
C681 C680 1.377 . S
C681 C687 1.390 . S
C682 H673 0.930 . S
C682 C680 1.384 . S
C682 C683 1.372 . S
C683 C682 1.372 . S
C683 C684 1.400 . S
C683 C688 1.490 . S
C684 H674 0.930 . S
C684 C683 1.400 . S
C684 C687 1.386 . S
H685 C701 0.930 . S
H686 C702 0.931 . S
C687 H675 0.929 . S
C687 C681 1.390 . S
C687 C684 1.386 . S
C688 C683 1.490 . S
C688 C690 1.395 . S
C688 C691 1.403 . S
H689 C695 0.930 . S
C690 H676 0.930 . S
C690 C688 1.395 . S
C690 C693 1.403 . S
C691 C688 1.403 . S
C691 C692 1.524 . S
C691 C695 1.400 . S
C692 H677 0.960 . S
C692 H678 0.960 . S
C692 H679 0.960 . S
C692 C691 1.524 . S
C693 C690 1.403 . S
C693 C694 1.392 . S
C693 C697 1.495 . S
C694 C693 1.392 . S
C694 C695 1.385 . S
C694 C696 1.478 . S
C695 H689 0.930 . S
C695 C691 1.400 . S
C695 C694 1.385 . S
C696 C694 1.478 . S
C696 C698 1.381 . S
C696 C702 1.383 . S
C697 C693 1.495 . S
C697 H703 0.959 . S
C697 H704 0.961 . S
C697 H705 0.960 . S
C698 C696 1.381 . S
C698 C699 1.394 . S
C698 H706 0.930 . S
C699 C698 1.394 . S
C699 C700 1.383 . S
C699 H707 0.929 . S
C700 C699 1.383 . S
C700 C701 1.377 . S
C701 H685 0.930 . S
C701 C700 1.377 . S
C701 C702 1.379 . S
C702 H686 0.931 . S
C702 C696 1.383 . S
C702 C701 1.379 . S
H703 C697 0.959 . S
H704 C697 0.961 . S
H705 C697 0.960 . S
H706 C698 0.930 . S
H707 C699 0.929 . S
H708 C716 0.929 . S
H709 C718 0.930 . S
H710 C720 0.930 . S
H711 C723 0.929 . S
H712 C726 0.930 . S
H713 C728 0.960 . S
H714 C728 0.960 . S
H715 C728 0.960 . S
C716 H708 0.929 . S
C716 C717 1.377 . S
C716 C718 1.384 . S
C717 C716 1.377 . S
C717 C723 1.390 . S
C718 H709 0.930 . S
C718 C716 1.384 . S
C718 C719 1.372 . S
C719 C718 1.372 . S
C719 C720 1.400 . S
C719 C724 1.490 . S
C720 H710 0.930 . S
C720 C719 1.400 . S
C720 C723 1.386 . S
H721 C737 0.930 . S
H722 C738 0.931 . S
C723 H711 0.929 . S
C723 C717 1.390 . S
C723 C720 1.386 . S
C724 C719 1.490 . S
C724 C726 1.395 . S
C724 C727 1.403 . S
H725 C731 0.930 . S
C726 H712 0.930 . S
C726 C724 1.395 . S
C726 C729 1.403 1_655 S
C727 C724 1.403 . S
C727 C728 1.524 . S
C727 C731 1.400 1_655 S
C728 H713 0.960 . S
C728 H714 0.960 . S
C728 H715 0.960 . S
C728 C727 1.524 . S
C729 C726 1.403 1_455 S
C729 C730 1.392 . S
C729 C733 1.495 . S
C730 C729 1.392 . S
C730 C731 1.385 . S
C730 C732 1.478 . S
C731 H725 0.930 . S
C731 C727 1.400 1_455 S
C731 C730 1.385 . S
C732 C730 1.478 . S
C732 C734 1.381 . S
C732 C738 1.383 . S
C733 C729 1.495 . S
C733 H739 0.959 . S
C733 H740 0.961 . S
C733 H741 0.960 . S
C734 C732 1.381 . S
C734 C735 1.394 . S
C734 H742 0.930 . S
C735 C734 1.394 . S
C735 C736 1.383 . S
C735 H743 0.929 . S
C736 C735 1.383 . S
C736 C737 1.377 . S
C737 H721 0.930 . S
C737 C736 1.377 . S
C737 C738 1.379 . S
C738 H722 0.931 . S
C738 C732 1.383 . S
C738 C737 1.379 . S
H739 C733 0.959 . S
H740 C733 0.961 . S
H741 C733 0.960 . S
H742 C734 0.930 . S
H743 C735 0.929 . S
H744 C752 0.929 . S
H745 C754 0.930 . S
H746 C756 0.930 . S
H747 C759 0.929 . S
H748 C762 0.930 . S
H749 C764 0.960 . S
H750 C764 0.960 . S
H751 C764 0.960 . S
C752 H744 0.929 . S
C752 C753 1.377 . S
C752 C754 1.384 . S
C753 C752 1.377 . S
C753 C759 1.390 . S
C754 H745 0.930 . S
C754 C752 1.384 . S
C754 C755 1.372 . S
C755 C754 1.372 . S
C755 C756 1.400 . S
C755 C760 1.490 . S
C756 H746 0.930 . S
C756 C755 1.400 . S
C756 C759 1.386 . S
H757 C773 0.930 . S
H758 C774 0.931 . S
C759 H747 0.929 . S
C759 C753 1.390 . S
C759 C756 1.386 . S
C760 C755 1.490 . S
C760 C762 1.395 . S
C760 C763 1.403 . S
H761 C767 0.930 . S
C762 H748 0.930 . S
C762 C760 1.395 . S
C762 C765 1.403 1_565 S
C763 C760 1.403 . S
C763 C764 1.524 . S
C763 C767 1.400 1_565 S
C764 H749 0.960 . S
C764 H750 0.960 . S
C764 H751 0.960 . S
C764 C763 1.524 . S
C765 C762 1.403 1_545 S
C765 C766 1.392 . S
C765 C769 1.495 . S
C766 C765 1.392 . S
C766 C767 1.385 . S
C766 C768 1.478 . S
C767 H761 0.930 . S
C767 C763 1.400 1_545 S
C767 C766 1.385 . S
C768 C766 1.478 . S
C768 C770 1.381 . S
C768 C774 1.383 . S
C769 C765 1.495 . S
C769 H775 0.959 . S
C769 H776 0.961 . S
C769 H777 0.960 . S
C770 C768 1.381 . S
C770 C771 1.394 . S
C770 H778 0.930 . S
C771 C770 1.394 . S
C771 C772 1.383 . S
C771 H779 0.929 . S
C772 C771 1.383 . S
C772 C773 1.377 . S
C773 H757 0.930 . S
C773 C772 1.377 . S
C773 C774 1.379 . S
C774 H758 0.931 . S
C774 C768 1.383 . S
C774 C773 1.379 . S
H775 C769 0.959 . S
H776 C769 0.961 . S
H777 C769 0.960 . S
H778 C770 0.930 . S
H779 C771 0.929 . S
H780 C788 0.929 . S
H781 C790 0.930 . S
H782 C792 0.930 . S
H783 C795 0.929 . S
H784 C798 0.930 . S
H785 C800 0.960 . S
H786 C800 0.960 . S
H787 C800 0.960 . S
C788 H780 0.929 . S
C788 C789 1.377 . S
C788 C790 1.384 . S
C789 C788 1.377 . S
C789 C795 1.390 . S
C790 H781 0.930 . S
C790 C788 1.384 . S
C790 C791 1.372 . S
C791 C790 1.372 . S
C791 C792 1.400 . S
C791 C796 1.490 . S
C792 H782 0.930 . S
C792 C791 1.400 . S
C792 C795 1.386 . S
H793 C809 0.930 . S
H794 C810 0.931 . S
C795 H783 0.929 . S
C795 C789 1.390 . S
C795 C792 1.386 . S
C796 C791 1.490 . S
C796 C798 1.395 . S
C796 C799 1.403 . S
H797 C803 0.930 . S
C798 H784 0.930 . S
C798 C796 1.395 . S
C798 C801 1.403 . S
C799 C796 1.403 . S
C799 C800 1.524 . S
C799 C803 1.400 . S
C800 H785 0.960 . S
C800 H786 0.960 . S
C800 H787 0.960 . S
C800 C799 1.524 . S
C801 C798 1.403 . S
C801 C802 1.392 . S
C801 C805 1.495 . S
C802 C801 1.392 . S
C802 C803 1.385 . S
C802 C804 1.478 . S
C803 H797 0.930 . S
C803 C799 1.400 . S
C803 C802 1.385 . S
C804 C802 1.478 . S
C804 C806 1.381 . S
C804 C810 1.383 . S
C805 C801 1.495 . S
C805 H811 0.959 . S
C805 H812 0.961 . S
C805 H813 0.960 . S
C806 C804 1.381 . S
C806 C807 1.394 . S
C806 H814 0.930 . S
C807 C806 1.394 . S
C807 C808 1.383 . S
C807 H815 0.929 . S
C808 C807 1.383 . S
C808 C809 1.377 . S
C809 H793 0.930 . S
C809 C808 1.377 . S
C809 C810 1.379 . S
C810 H794 0.931 . S
C810 C804 1.383 . S
C810 C809 1.379 . S
H811 C805 0.959 . S
H812 C805 0.961 . S
H813 C805 0.960 . S
H814 C806 0.930 . S
H815 C807 0.929 . S
H816 C824 0.929 . S
H817 C826 0.930 . S
H818 C828 0.930 . S
H819 C831 0.929 . S
H820 C834 0.930 . S
H821 C836 0.960 . S
H822 C836 0.960 . S
H823 C836 0.960 . S
C824 H816 0.929 . S
C824 C825 1.377 . S
C824 C826 1.384 . S
C825 C824 1.377 . S
C825 C831 1.390 . S
C826 H817 0.930 . S
C826 C824 1.384 . S
C826 C827 1.372 . S
C827 C826 1.372 . S
C827 C828 1.400 . S
C827 C832 1.490 . S
C828 H818 0.930 . S
C828 C827 1.400 . S
C828 C831 1.386 . S
H829 C845 0.930 . S
H830 C846 0.931 . S
C831 H819 0.929 . S
C831 C825 1.390 . S
C831 C828 1.386 . S
C832 C827 1.490 . S
C832 C834 1.395 . S
C832 C835 1.403 . S
H833 C839 0.930 . S
C834 H820 0.930 . S
C834 C832 1.395 . S
C834 C837 1.403 1_455 S
C835 C832 1.403 . S
C835 C836 1.524 . S
C835 C839 1.400 1_455 S
C836 H821 0.960 . S
C836 H822 0.960 . S
C836 H823 0.960 . S
C836 C835 1.524 . S
C837 C834 1.403 1_655 S
C837 C838 1.392 . S
C837 C841 1.495 . S
C838 C837 1.392 . S
C838 C839 1.385 . S
C838 C840 1.478 . S
C839 H833 0.930 . S
C839 C835 1.400 1_655 S
C839 C838 1.385 . S
C840 C838 1.478 . S
C840 C842 1.381 . S
C840 C846 1.383 . S
C841 C837 1.495 . S
C841 H847 0.959 . S
C841 H848 0.961 . S
C841 H849 0.960 . S
C842 C840 1.381 . S
C842 C843 1.394 . S
C842 H850 0.930 . S
C843 C842 1.394 . S
C843 C844 1.383 . S
C843 H851 0.929 . S
C844 C843 1.383 . S
C844 C845 1.377 . S
C845 H829 0.930 . S
C845 C844 1.377 . S
C845 C846 1.379 . S
C846 H830 0.931 . S
C846 C840 1.383 . S
C846 C845 1.379 . S
H847 C841 0.959 . S
H848 C841 0.961 . S
H849 C841 0.960 . S
H850 C842 0.930 . S
H851 C843 0.929 . S
H852 C860 0.929 . S
H853 C862 0.912 1_554 S
H854 C864 0.930 . S
H855 C867 0.929 . S
H856 C870 0.930 . S
H857 C872 0.960 1_565 S
H858 C872 0.960 . S
H859 C872 0.960 . S
C860 H852 0.929 . S
C860 C861 1.377 . S
C860 C862 1.384 . S
C861 C860 1.377 . S
C861 C867 1.390 . S
C862 H853 0.912 1_556 S
C862 C860 1.384 . S
C862 C863 1.372 . S
C863 C862 1.372 . S
C863 C864 1.400 . S
C863 C868 1.490 . S
C864 H854 0.930 . S
C864 C863 1.400 . S
C864 C867 1.386 . S
H865 C881 0.930 . S
H866 C882 0.931 . S
C867 H855 0.929 . S
C867 C861 1.390 . S
C867 C864 1.386 . S
C868 C863 1.490 . S
C868 C870 1.395 1_556 S
C868 C871 1.403 . S
H869 C875 0.930 . S
C870 H856 0.930 . S
C870 C868 1.395 1_554 S
C870 C873 1.398 1_545 S
C871 C868 1.403 . S
C871 C872 1.524 . S
C871 C875 1.400 1_545 S
C872 H857 0.960 1_545 S
C872 H858 0.960 . S
C872 H859 0.960 . S
C872 C871 1.524 . S
C873 C870 1.398 1_565 S
C873 C874 1.398 . S
C873 C877 1.499 . S
C874 C873 1.398 . S
C874 C875 1.385 1_554 S
C874 C876 1.478 . S
C875 H869 0.930 . S
C875 C871 1.400 1_565 S
C875 C874 1.385 1_556 S
C876 C874 1.478 . S
C876 C878 1.381 . S
C876 C882 1.383 . S
C877 C873 1.499 . S
C877 H883 0.928 1_565 S
C877 H884 0.964 . S
C877 H885 0.985 . S
C878 C876 1.381 . S
C878 C879 1.394 . S
C878 H886 0.930 . S
C879 C878 1.394 . S
C879 C880 1.383 . S
C879 H887 0.929 . S
C880 C879 1.383 . S
C880 C881 1.377 . S
C881 H865 0.930 . S
C881 C880 1.377 . S
C881 C882 1.379 . S
C882 H866 0.931 . S
C882 C876 1.383 . S
C882 C881 1.379 . S
H883 C877 0.928 1_545 S
H884 C877 0.964 . S
H885 C877 0.985 . S
H886 C878 0.930 . S
H887 C879 0.929 . S
H888 C896 0.929 . S
H889 C898 0.930 . S
H890 C900 0.930 . S
H891 C903 0.929 . S
H892 C906 0.930 . S
H893 C908 0.960 . S
H894 C908 0.960 . S
H895 C908 0.960 . S
C896 H888 0.929 . S
C896 C897 1.377 . S
C896 C898 1.384 . S
C897 C896 1.377 . S
C897 C903 1.390 . S
C898 H889 0.930 . S
C898 C896 1.384 . S
C898 C899 1.372 . S
C899 C898 1.372 . S
C899 C900 1.400 . S
C899 C904 1.490 . S
C900 H890 0.930 . S
C900 C899 1.400 . S
C900 C903 1.386 . S
H901 C917 0.930 . S
H902 C918 0.931 . S
C903 H891 0.929 . S
C903 C897 1.390 . S
C903 C900 1.386 . S
C904 C899 1.490 . S
C904 C906 1.395 . S
C904 C907 1.403 . S
H905 C911 0.930 . S
C906 H892 0.930 . S
C906 C904 1.395 . S
C906 C909 1.403 . S
C907 C904 1.403 . S
C907 C908 1.524 . S
C907 C911 1.400 . S
C908 H893 0.960 . S
C908 H894 0.960 . S
C908 H895 0.960 . S
C908 C907 1.524 . S
C909 C906 1.403 . S
C909 C910 1.392 . S
C909 C913 1.495 . S
C910 C909 1.392 . S
C910 C911 1.385 . S
C910 C912 1.478 . S
C911 H905 0.930 . S
C911 C907 1.400 . S
C911 C910 1.385 . S
C912 C910 1.478 . S
C912 C914 1.381 . S
C912 C918 1.383 . S
C913 C909 1.495 . S
C913 H919 0.959 . S
C913 H920 0.961 . S
C913 H921 0.960 . S
C914 C912 1.381 . S
C914 C915 1.394 . S
C914 H922 0.930 . S
C915 C914 1.394 . S
C915 C916 1.383 . S
C915 H923 0.929 . S
C916 C915 1.383 . S
C916 C917 1.377 . S
C917 H901 0.930 . S
C917 C916 1.377 . S
C917 C918 1.379 . S
C918 H902 0.931 . S
C918 C912 1.383 . S
C918 C917 1.379 . S
H919 C913 0.959 . S
H920 C913 0.961 . S
H921 C913 0.960 . S
H922 C914 0.930 . S
H923 C915 0.929 . S
H924 C932 0.929 . S
H925 C934 0.930 . S
H926 C936 0.930 . S
H927 C939 0.929 . S
H928 C942 0.930 . S
H929 C944 0.960 . S
H930 C944 0.960 . S
H931 C944 0.960 . S
C932 H924 0.929 . S
C932 C933 1.377 . S
C932 C934 1.384 . S
C933 C932 1.377 . S
C933 C939 1.390 . S
C934 H925 0.930 . S
C934 C932 1.384 . S
C934 C935 1.372 . S
C935 C934 1.372 . S
C935 C936 1.400 . S
C935 C940 1.490 . S
C936 H926 0.930 . S
C936 C935 1.400 . S
C936 C939 1.386 . S
H937 C953 0.930 . S
H938 C954 0.931 . S
C939 H927 0.929 . S
C939 C933 1.390 . S
C939 C936 1.386 . S
C940 C935 1.490 . S
C940 C942 1.395 . S
C940 C943 1.403 . S
H941 C947 0.930 . S
C942 H928 0.930 . S
C942 C940 1.395 . S
C942 C945 1.403 . S
C943 C940 1.403 . S
C943 C944 1.524 . S
C943 C947 1.400 . S
C944 H929 0.960 . S
C944 H930 0.960 . S
C944 H931 0.960 . S
C944 C943 1.524 . S
C945 C942 1.403 . S
C945 C946 1.392 . S
C945 C949 1.495 . S
C946 C945 1.392 . S
C946 C947 1.385 . S
C946 C948 1.478 . S
C947 H941 0.930 . S
C947 C943 1.400 . S
C947 C946 1.385 . S
C948 C946 1.478 . S
C948 C950 1.381 . S
C948 C954 1.383 . S
C949 C945 1.495 . S
C949 H955 0.959 . S
C949 H956 0.961 . S
C949 H957 0.960 . S
C950 C948 1.381 . S
C950 C951 1.394 . S
C950 H958 0.930 . S
C951 C950 1.394 . S
C951 C952 1.383 . S
C951 H959 0.929 . S
C952 C951 1.383 . S
C952 C953 1.377 . S
C953 H937 0.930 . S
C953 C952 1.377 . S
C953 C954 1.379 . S
C954 H938 0.931 . S
C954 C948 1.383 . S
C954 C953 1.379 . S
H955 C949 0.959 . S
H956 C949 0.961 . S
H957 C949 0.960 . S
H958 C950 0.930 . S
H959 C951 0.929 . S
H960 C968 0.929 . S
H961 C970 0.930 . S
H962 C972 0.930 . S
H963 C975 0.929 . S
H964 C978 0.930 . S
H965 C980 0.960 . S
H966 C980 0.960 . S
H967 C980 0.960 . S
C968 H960 0.929 . S
C968 C969 1.377 . S
C968 C970 1.384 . S
C969 C968 1.377 . S
C969 C975 1.390 . S
C970 H961 0.930 . S
C970 C968 1.384 . S
C970 C971 1.372 . S
C971 C970 1.372 . S
C971 C972 1.400 . S
C971 C976 1.490 . S
C972 H962 0.930 . S
C972 C971 1.400 . S
C972 C975 1.386 . S
H973 C989 0.930 . S
H974 C990 0.931 . S
C975 H963 0.929 . S
C975 C969 1.390 . S
C975 C972 1.386 . S
C976 C971 1.490 . S
C976 C978 1.395 . S
C976 C979 1.403 . S
H977 C983 0.930 . S
C978 H964 0.930 . S
C978 C976 1.395 . S
C978 C981 1.403 . S
C979 C976 1.403 . S
C979 C980 1.524 . S
C979 C983 1.400 . S
C980 H965 0.960 . S
C980 H966 0.960 . S
C980 H967 0.960 . S
C980 C979 1.524 . S
C981 C978 1.403 . S
C981 C982 1.392 . S
C981 C985 1.495 . S
C982 C981 1.392 . S
C982 C983 1.385 . S
C982 C984 1.478 . S
C983 H977 0.930 . S
C983 C979 1.400 . S
C983 C982 1.385 . S
C984 C982 1.478 . S
C984 C986 1.381 . S
C984 C990 1.383 . S
C985 C981 1.495 . S
C985 H991 0.959 . S
C985 H992 0.961 . S
C985 H993 0.960 . S
C986 C984 1.381 . S
C986 C987 1.394 . S
C986 H994 0.930 . S
C987 C986 1.394 . S
C987 C988 1.383 . S
C987 H995 0.929 . S
C988 C987 1.383 . S
C988 C989 1.377 . S
C989 H973 0.930 . S
C989 C988 1.377 . S
C989 C990 1.379 . S
C990 H974 0.931 . S
C990 C984 1.383 . S
C990 C989 1.379 . S
H991 C985 0.959 . S
H992 C985 0.961 . S
H993 C985 0.960 . S
H994 C986 0.930 . S
H995 C987 0.929 . S
H996 C1004 0.929 . S
H997 C1006 0.930 . S
H998 C1008 0.930 . S
H999 C1011 0.929 . S
H1000 C1014 0.930 . S
H1001 C1016 0.960 . S
H1002 C1016 0.960 . S
H1003 C1016 0.960 . S
C1004 H996 0.929 . S
C1004 C1005 1.377 . S
C1004 C1006 1.384 . S
C1005 C1004 1.377 . S
C1005 C1011 1.390 . S
C1006 H997 0.930 . S
C1006 C1004 1.384 . S
C1006 C1007 1.372 . S
C1007 C1006 1.372 . S
C1007 C1008 1.400 . S
C1007 C1012 1.490 . S
C1008 H998 0.930 . S
C1008 C1007 1.400 . S
C1008 C1011 1.386 . S
H1009 C1025 0.930 . S
H1010 C1026 0.931 . S
C1011 H999 0.929 . S
C1011 C1005 1.390 . S
C1011 C1008 1.386 . S
C1012 C1007 1.490 . S
C1012 C1014 1.395 . S
C1012 C1015 1.403 . S
H1013 C1019 0.930 . S
C1014 H1000 0.930 . S
C1014 C1012 1.395 . S
C1014 C1017 1.403 . S
C1015 C1012 1.403 . S
C1015 C1016 1.524 . S
C1015 C1019 1.400 . S
C1016 H1001 0.960 . S
C1016 H1002 0.960 . S
C1016 H1003 0.960 . S
C1016 C1015 1.524 . S
C1017 C1014 1.403 . S
C1017 C1018 1.392 . S
C1017 C1021 1.495 . S
C1018 C1017 1.392 . S
C1018 C1019 1.385 . S
C1018 C1020 1.478 . S
C1019 H1013 0.930 . S
C1019 C1015 1.400 . S
C1019 C1018 1.385 . S
C1020 C1018 1.478 . S
C1020 C1022 1.381 . S
C1020 C1026 1.383 . S
C1021 C1017 1.495 . S
C1021 H1027 0.959 . S
C1021 H1028 0.961 . S
C1021 H1029 0.960 . S
C1022 C1020 1.381 . S
C1022 C1023 1.394 . S
C1022 H1030 0.930 . S
C1023 C1022 1.394 . S
C1023 C1024 1.383 . S
C1023 H1031 0.929 . S
C1024 C1023 1.383 . S
C1024 C1025 1.377 . S
C1025 H1009 0.930 . S
C1025 C1024 1.377 . S
C1025 C1026 1.379 . S
C1026 H1010 0.931 . S
C1026 C1020 1.383 . S
C1026 C1025 1.379 . S
H1027 C1021 0.959 . S
H1028 C1021 0.961 . S
H1029 C1021 0.960 . S
H1030 C1022 0.930 . S
H1031 C1023 0.929 . S
H1032 C1040 0.929 . S
H1033 C1042 0.930 . S
H1034 C1044 0.930 . S
H1035 C1047 0.929 . S
H1036 C1050 0.930 . S
H1037 C1052 0.960 . S
H1038 C1052 0.960 . S
H1039 C1052 0.960 . S
C1040 H1032 0.929 . S
C1040 C1041 1.377 . S
C1040 C1042 1.384 . S
C1041 C1040 1.377 . S
C1041 C1047 1.390 . S
C1042 H1033 0.930 . S
C1042 C1040 1.384 . S
C1042 C1043 1.372 . S
C1043 C1042 1.372 . S
C1043 C1044 1.400 . S
C1043 C1048 1.490 . S
C1044 H1034 0.930 . S
C1044 C1043 1.400 . S
C1044 C1047 1.386 . S
H1045 C1061 0.930 . S
H1046 C1062 0.931 . S
C1047 H1035 0.929 . S
C1047 C1041 1.390 . S
C1047 C1044 1.386 . S
C1048 C1043 1.490 . S
C1048 C1050 1.395 . S
C1048 C1051 1.403 . S
H1049 C1055 0.930 . S
C1050 H1036 0.930 . S
C1050 C1048 1.395 . S
C1050 C1053 1.403 . S
C1051 C1048 1.403 . S
C1051 C1052 1.524 . S
C1051 C1055 1.400 . S
C1052 H1037 0.960 . S
C1052 H1038 0.960 . S
C1052 H1039 0.960 . S
C1052 C1051 1.524 . S
C1053 C1050 1.403 . S
C1053 C1054 1.392 . S
C1053 C1057 1.495 . S
C1054 C1053 1.392 . S
C1054 C1055 1.385 . S
C1054 C1056 1.478 . S
C1055 H1049 0.930 . S
C1055 C1051 1.400 . S
C1055 C1054 1.385 . S
C1056 C1054 1.478 . S
C1056 C1058 1.381 . S
C1056 C1062 1.383 . S
C1057 C1053 1.495 . S
C1057 H1063 0.959 . S
C1057 H1064 0.961 . S
C1057 H1065 0.960 . S
C1058 C1056 1.381 . S
C1058 C1059 1.394 . S
C1058 H1066 0.930 . S
C1059 C1058 1.394 . S
C1059 C1060 1.383 . S
C1059 H1067 0.929 . S
C1060 C1059 1.383 . S
C1060 C1061 1.377 . S
C1061 H1045 0.930 . S
C1061 C1060 1.377 . S
C1061 C1062 1.379 . S
C1062 H1046 0.931 . S
C1062 C1056 1.383 . S
C1062 C1061 1.379 . S
H1063 C1057 0.959 . S
H1064 C1057 0.961 . S
H1065 C1057 0.960 . S
H1066 C1058 0.930 . S
H1067 C1059 0.929 . S
H1068 C1076 0.929 1_554 S
H1069 C1078 0.930 . S
H1070 C1080 0.930 . S
H1071 C1083 0.929 . S
H1072 C1086 0.930 . S
H1073 C1088 0.960 . S
H1074 C1088 0.960 . S
H1075 C1088 0.960 . S
C1076 H1068 0.929 1_556 S
C1076 C1077 1.377 1_556 S
C1076 C1078 1.384 . S
C1077 C1076 1.377 1_554 S
C1077 C1083 1.385 1_554 S
C1078 H1069 0.930 . S
C1078 C1076 1.384 . S
C1078 C1079 1.372 . S
C1079 C1078 1.372 . S
C1079 C1080 1.400 . S
C1079 C1084 1.490 . S
C1080 H1070 0.930 . S
C1080 C1079 1.400 . S
C1080 C1083 1.386 . S
H1081 C1097 0.930 . S
H1082 C1098 0.931 . S
C1083 H1071 0.929 . S
C1083 C1077 1.385 1_556 S
C1083 C1080 1.386 . S
C1084 C1079 1.490 . S
C1084 C1086 1.395 . S
C1084 C1087 1.403 . S
H1085 C1091 0.930 . S
C1086 H1072 0.930 . S
C1086 C1084 1.395 . S
C1086 C1089 1.403 . S
C1087 C1084 1.403 . S
C1087 C1088 1.524 . S
C1087 C1091 1.400 . S
C1088 H1073 0.960 . S
C1088 H1074 0.960 . S
C1088 H1075 0.960 . S
C1088 C1087 1.524 . S
C1089 C1086 1.403 . S
C1089 C1090 1.392 . S
C1089 C1093 1.495 . S
C1090 C1089 1.392 . S
C1090 C1091 1.385 . S
C1090 C1092 1.478 . S
C1091 H1085 0.930 . S
C1091 C1087 1.400 . S
C1091 C1090 1.385 . S
C1092 C1090 1.478 . S
C1092 C1094 1.381 . S
C1092 C1098 1.383 . S
C1093 C1089 1.495 . S
C1093 H1099 0.959 . S
C1093 H1100 0.961 . S
C1093 H1101 0.960 . S
C1094 C1092 1.381 . S
C1094 C1095 1.394 . S
C1094 H1102 0.930 . S
C1095 C1094 1.394 . S
C1095 C1096 1.383 . S
C1095 H1103 0.929 . S
C1096 C1095 1.383 . S
C1096 C1097 1.377 . S
C1097 H1081 0.930 . S
C1097 C1096 1.377 . S
C1097 C1098 1.379 . S
C1098 H1082 0.931 . S
C1098 C1092 1.383 . S
C1098 C1097 1.379 . S
H1099 C1093 0.959 . S
H1100 C1093 0.961 . S
H1101 C1093 0.960 . S
H1102 C1094 0.930 . S
H1103 C1095 0.929 . S
H1104 C1112 0.929 . S
H1105 C1114 0.930 . S
H1106 C1116 0.930 . S
H1107 C1119 0.929 . S
H1108 C1122 0.930 . S
H1109 C1124 0.960 . S
H1110 C1124 0.960 . S
H1111 C1124 0.960 . S
C1112 H1104 0.929 . S
C1112 C1113 1.377 . S
C1112 C1114 1.384 . S
C1113 C1112 1.377 . S
C1113 C1119 1.390 . S
C1114 H1105 0.930 . S
C1114 C1112 1.384 . S
C1114 C1115 1.372 . S
C1115 C1114 1.372 . S
C1115 C1116 1.400 . S
C1115 C1120 1.490 . S
C1116 H1106 0.930 . S
C1116 C1115 1.400 . S
C1116 C1119 1.386 . S
H1117 C1133 0.930 1_556 S
H1118 C1134 0.931 . S
C1119 H1107 0.929 . S
C1119 C1113 1.390 . S
C1119 C1116 1.386 . S
C1120 C1115 1.490 . S
C1120 C1122 1.395 . S
C1120 C1123 1.403 . S
H1121 C1127 0.930 . S
C1122 H1108 0.930 . S
C1122 C1120 1.395 . S
C1122 C1125 1.403 . S
C1123 C1120 1.403 . S
C1123 C1124 1.524 . S
C1123 C1127 1.400 . S
C1124 H1109 0.960 . S
C1124 H1110 0.960 . S
C1124 H1111 0.960 . S
C1124 C1123 1.524 . S
C1125 C1122 1.403 . S
C1125 C1126 1.392 . S
C1125 C1129 1.495 . S
C1126 C1125 1.392 . S
C1126 C1127 1.385 . S
C1126 C1128 1.478 . S
C1127 H1121 0.930 . S
C1127 C1123 1.400 . S
C1127 C1126 1.385 . S
C1128 C1126 1.478 . S
C1128 C1130 1.381 . S
C1128 C1134 1.383 . S
C1129 C1125 1.495 . S
C1129 H1135 0.959 . S
C1129 H1136 0.961 . S
C1129 H1137 0.960 . S
C1130 C1128 1.381 . S
C1130 C1131 1.394 . S
C1130 H1138 0.930 . S
C1131 C1130 1.394 . S
C1131 C1132 1.383 . S
C1131 H1139 0.929 . S
C1132 C1131 1.383 . S
C1132 C1133 1.377 . S
C1133 H1117 0.930 1_554 S
C1133 C1132 1.377 . S
C1133 C1134 1.379 . S
C1134 H1118 0.931 . S
C1134 C1128 1.383 . S
C1134 C1133 1.379 . S
H1135 C1129 0.959 . S
H1136 C1129 0.961 . S
H1137 C1129 0.960 . S
H1138 C1130 0.930 . S
H1139 C1131 0.929 . S
C285 N2 1.279 . S
C304 N140 1.245 . S
C321 N25 1.286 . S
C340 N163 1.262 . S
C357 N186 1.270 . S
C376 N48 1.297 . S
C393 N71 1.280 . S
C412 N209 1.242 . S
C429 N94 1.275 . S
C448 N232 1.313 . S
C465 N255 1.286 . S
C484 N117 1.257 . S
C501 C191 1.331 . S
C520 C7 1.304 . S
C537 C30 1.319 . S
C556 C214 1.345 . S
C573 C237 1.330 . S
C592 C53 1.294 . S
C609 C260 1.331 . S
C628 C76 1.306 . S
C645 C99 1.320 . S
C664 C145 1.338 . S
C681 C122 1.319 . S
C700 C168 1.348 . S
C717 N265 1.849 . S
C736 N12 1.828 . S
C753 N150 1.851 . S
C772 N35 1.838 . S
C789 N58 1.844 . S
C808 N173 1.837 . S
C825 N196 1.852 . S
C844 N81 1.839 . S
C861 N219 1.850 . S
C880 N104 1.867 . S
C897 N242 1.851 . S
C916 N127 1.835 . S
C933 C16 1.747 . S
C952 C246 1.734 . S
C969 C269 1.750 . S
C988 C39 1.756 . S
C1005 C62 1.751 . S
C1024 C154 1.749 . S
C1041 C85 1.747 . S
C1060 C177 1.742 . S
C1077 C108 1.752 . S
C1096 C200 1.735 . S
C1113 C131 1.750 . S
C1132 C223 1.756 1_554 S
