# Generated by pormake.
# Topology lhb, (8)-cn, num edge types: 1
# Building blocks:
#     Node 0, Type 0, BuildingBlock: TAGTUT_clean_sbu_1, # of connection points: 8
#     Node 1, Type 0, BuildingBlock: TAGTUT_clean_sbu_1, # of connection points: 8
#     Node 2, Type 0, BuildingBlock: TAGTUT_clean_sbu_1, # of connection points: 8
#     Node 3, Type 0, BuildingBlock: TAGTUT_clean_sbu_1, # of connection points: 8
#     Node 4, Type 0, BuildingBlock: TAGTUT_clean_sbu_1, # of connection points: 8
#     Node 5, Type 0, BuildingBlock: TAGTUT_clean_sbu_1, # of connection points: 8
#     Node 6, Type 0, BuildingBlock: TAGTUT_clean_sbu_1, # of connection points: 8
#     Node 7, Type 0, BuildingBlock: TAGTUT_clean_sbu_1, # of connection points: 8
#     Edge 8, Type (0, 0), BuildingBlock: KIFKEQ_clean_linker_1, # of connection points: 2
#     Edge 9, Type (0, 0), BuildingBlock: KIFKEQ_clean_linker_1, # of connection points: 2
#     Edge 10, Type (0, 0), BuildingBlock: KIFKEQ_clean_linker_1, # of connection points: 2
#     Edge 11, Type (0, 0), BuildingBlock: KIFKEQ_clean_linker_1, # of connection points: 2
#     Edge 12, Type (0, 0), BuildingBlock: KIFKEQ_clean_linker_1, # of connection points: 2
#     Edge 13, Type (0, 0), BuildingBlock: KIFKEQ_clean_linker_1, # of connection points: 2
#     Edge 14, Type (0, 0), BuildingBlock: KIFKEQ_clean_linker_1, # of connection points: 2
#     Edge 15, Type (0, 0), BuildingBlock: KIFKEQ_clean_linker_1, # of connection points: 2
#     Edge 16, Type (0, 0), BuildingBlock: KIFKEQ_clean_linker_1, # of connection points: 2
#     Edge 17, Type (0, 0), BuildingBlock: KIFKEQ_clean_linker_1, # of connection points: 2
#     Edge 18, Type (0, 0), BuildingBlock: KIFKEQ_clean_linker_1, # of connection points: 2
#     Edge 19, Type (0, 0), BuildingBlock: KIFKEQ_clean_linker_1, # of connection points: 2
#     Edge 20, Type (0, 0), BuildingBlock: KIFKEQ_clean_linker_1, # of connection points: 2
#     Edge 21, Type (0, 0), BuildingBlock: KIFKEQ_clean_linker_1, # of connection points: 2
#     Edge 22, Type (0, 0), BuildingBlock: KIFKEQ_clean_linker_1, # of connection points: 2
#     Edge 23, Type (0, 0), BuildingBlock: KIFKEQ_clean_linker_1, # of connection points: 2
#     Edge 24, Type (0, 0), BuildingBlock: KIFKEQ_clean_linker_1, # of connection points: 2
#     Edge 25, Type (0, 0), BuildingBlock: KIFKEQ_clean_linker_1, # of connection points: 2
#     Edge 26, Type (0, 0), BuildingBlock: KIFKEQ_clean_linker_1, # of connection points: 2
#     Edge 27, Type (0, 0), BuildingBlock: KIFKEQ_clean_linker_1, # of connection points: 2
#     Edge 28, Type (0, 0), BuildingBlock: KIFKEQ_clean_linker_1, # of connection points: 2
#     Edge 29, Type (0, 0), BuildingBlock: KIFKEQ_clean_linker_1, # of connection points: 2
#     Edge 30, Type (0, 0), BuildingBlock: KIFKEQ_clean_linker_1, # of connection points: 2
#     Edge 31, Type (0, 0), BuildingBlock: KIFKEQ_clean_linker_1, # of connection points: 2
#     Edge 32, Type (0, 0), BuildingBlock: KIFKEQ_clean_linker_1, # of connection points: 2
#     Edge 33, Type (0, 0), BuildingBlock: KIFKEQ_clean_linker_1, # of connection points: 2
#     Edge 34, Type (0, 0), BuildingBlock: KIFKEQ_clean_linker_1, # of connection points: 2
#     Edge 35, Type (0, 0), BuildingBlock: KIFKEQ_clean_linker_1, # of connection points: 2
#     Edge 36, Type (0, 0), BuildingBlock: KIFKEQ_clean_linker_1, # of connection points: 2
#     Edge 37, Type (0, 0), BuildingBlock: KIFKEQ_clean_linker_1, # of connection points: 2
#     Edge 38, Type (0, 0), BuildingBlock: KIFKEQ_clean_linker_1, # of connection points: 2
#     Edge 39, Type (0, 0), BuildingBlock: KIFKEQ_clean_linker_1, # of connection points: 2
# Relax obj value: 0.065
# Max RMSD: 0.159
# Mean RMSD: 0.159
data_MOF--net-lhb--node1-TAGTUT_clean_sbu_1--edge1-KIFKEQ_clean_linker_1
_symmetry_space_group_name_H-M    P1
_symmetry_Int_Tables_number       1
_symmetry_cell_setting            triclinic
loop_
_symmetry_equiv_pos_as_xyz
'x, y, z'
_cell_length_a     34.057263
_cell_length_b     15.18818
_cell_length_c     60.128668
_cell_angle_alpha  94.462142
_cell_angle_beta   89.99213
_cell_angle_gamma 90.053945
loop_
_atom_site_label
_atom_site_type_symbol
_atom_site_fract_x
_atom_site_fract_y
_atom_site_fract_z
_atom_type_partial_charge
C0 C 0.05604 0.00935 0.09038 0.0
C1 C 0.09354 0.07984 0.02609 0.0
C2 C 0.94698 0.15941 0.00993 0.0
Mg3 Mg 0.05705 0.91224 0.04277 0.0
O4 O 0.00788 0.96305 0.04119 0.0
Mg5 Mg 0.00311 0.09306 0.04953 0.0
Mg6 Mg 0.97709 0.95745 0.01266 0.0
O7 O 0.94565 0.95527 0.98479 0.0
Mg8 Mg 0.89664 0.00956 0.98613 0.0
Mg9 Mg 0.94673 0.82773 0.9754 0.0
C10 C 0.01191 0.76345 0.01153 0.0
C11 C 0.03363 0.91136 0.96988 0.0
O12 O 0.03467 0.06927 0.08254 0.0
O13 O 0.0668 0.93974 0.07841 0.0
O14 O 0.0642 0.1244 0.03429 0.0
O15 O 0.09514 -0.00398 0.02598 0.0
O16 O 0.0412 0.78865 0.02402 0.0
O17 O 0.98165 0.81189 1.00884 0.0
C18 C 0.92027 -0.01216 0.05582 0.0
O19 O 0.92465 0.95024 0.03615 0.0
O20 O 0.94438 0.04735 0.06379 0.0
O21 O 0.91721 0.86846 0.94187 0.0
O22 O 0.8845 -0.00557 0.95149 0.0
O23 O 0.88439 0.8012 0.99104 0.0
C24 C 0.89613 0.93464 0.93685 0.0
O25 O 0.85834 0.93093 1.00318 0.0
O26 O 0.91481 0.13663 1.00007 0.0
C27 C 0.85687 0.8471 1.00088 0.0
O28 O 0.97204 0.10314 0.01579 0.0
O29 O 0.03111 0.95644 0.98885 0.0
O30 O 0.00605 0.86067 0.96207 0.0
C31 C 0.3576 0.1613 0.18407 0.0
C32 C 0.40362 0.10311 0.24913 0.0
C33 C 0.25058 0.01345 0.26555 0.0
Mg34 Mg 0.35947 0.25486 0.23155 0.0
O35 O 0.3113 0.19677 0.23282 0.0
Mg36 Mg 0.3116 0.06706 0.22662 0.0
Mg37 Mg 0.28235 0.20712 0.26162 0.0
O38 O 0.25368 0.22068 0.2909 0.0
Mg39 Mg 0.2055 0.16762 0.29503 0.0
Mg40 Mg 0.25703 0.35227 0.29643 0.0
C41 C 0.30771 0.40756 0.25308 0.0
C42 C 0.34207 0.25653 0.30261 0.0
O43 O 0.33747 0.09682 0.19106 0.0
O44 O 0.36944 0.22643 0.19707 0.0
O45 O 0.37578 0.05295 0.24112 0.0
O46 O 0.4013 0.18684 0.24952 0.0
O47 O 0.33876 0.38444 0.2421 0.0
O48 O 0.28496 0.35204 0.26144 0.0
C49 C 0.22208 0.13785 0.22211 0.0
O50 O 0.22649 0.19326 0.23925 0.0
O51 O 0.24959 0.08613 0.21469 0.0
O52 O 0.22892 0.33739 0.33105 0.0
O53 O 0.19926 0.20484 0.3305 0.0
O54 O 0.19426 0.37429 0.28227 0.0
C55 C 0.20973 0.27848 0.34079 0.0
O56 O 0.16395 0.24328 0.27797 0.0
O57 O 0.22161 0.04046 0.27806 0.0
C58 C 0.16456 0.32632 0.27613 0.0
O59 O 0.2802 0.06204 0.26151 0.0
O60 O 0.33678 0.21248 0.2838 0.0
O61 O 0.31761 0.31622 0.30999 0.0
C62 C 0.85352 0.66236 0.18378 0.0
C63 C 0.89931 0.59258 0.24786 0.0
C64 C 0.74567 0.51345 0.26549 0.0
Mg65 Mg 0.85784 0.75067 0.2317 0.0
O66 O 0.80876 0.69689 0.23317 0.0
Mg67 Mg 0.80635 0.56786 0.22589 0.0
Mg68 Mg 0.7811 0.70549 0.26239 0.0
O69 O 0.75379 0.71739 0.29213 0.0
Mg70 Mg 0.70444 0.66987 0.29623 0.0
Mg71 Mg 0.76078 0.84783 0.29877 0.0
C72 C 0.81105 0.90513 0.25568 0.0
C73 C 0.84303 0.73774 0.30302 0.0
O74 O 0.83229 0.59909 0.19048 0.0
O75 O 0.8667 0.72519 0.19706 0.0
O76 O 0.87066 0.54502 0.23976 0.0
O77 O 0.89816 0.67649 0.24879 0.0
O78 O 0.84077 0.88125 0.24366 0.0
O79 O 0.788 0.84984 0.26386 0.0
C80 C 0.71849 0.65025 0.22296 0.0
O81 O 0.72444 0.7022 0.24061 0.0
O82 O 0.74459 0.59631 0.21477 0.0
O83 O 0.73235 0.83307 0.33298 0.0
O84 O 0.69852 0.70567 0.33193 0.0
O85 O 0.69852 0.88047 0.28497 0.0
C86 C 0.71115 0.77703 0.34247 0.0
O87 O 0.66564 0.75282 0.27948 0.0
O88 O 0.71776 0.54158 0.27868 0.0
C89 C 0.66805 0.83611 0.27827 0.0
O90 O 0.77528 0.56104 0.26084 0.0
O91 O 0.83592 0.69955 0.2837 0.0
O92 O 0.82065 0.79935 0.31171 0.0
C93 C 0.05954 0.56256 0.59268 0.0
C94 C 0.10699 0.60421 0.52813 0.0
C95 C 0.96606 0.68656 0.5024 0.0
Mg96 Mg 0.06424 0.44805 0.54789 0.0
O97 O 0.01698 0.50168 0.54237 0.0
Mg98 Mg 0.01419 0.63342 0.54718 0.0
Mg99 Mg 0.98968 0.48639 0.51272 0.0
O100 O 0.9625 0.47453 0.4834 0.0
Mg101 Mg 0.91578 0.53471 0.47907 0.0
Mg102 Mg 0.96318 0.34518 0.47699 0.0
C103 C 0.02125 0.29302 0.51764 0.0
C104 C 0.05256 0.41854 0.47435 0.0
O105 O 0.04187 0.62137 0.58212 0.0
O106 O 0.06887 0.48672 0.58322 0.0
O107 O 0.07722 0.65398 0.53288 0.0
O108 O 0.10687 0.52237 0.5315 0.0
O109 O 0.04911 0.32078 0.53087 0.0
O110 O 0.99188 0.34086 0.51275 0.0
C111 C 0.92933 0.53554 0.55339 0.0
O112 O 0.93452 0.4914 0.53454 0.0
O113 O 0.9535 0.59636 0.56059 0.0
O114 O 0.94127 0.37363 0.44049 0.0
O115 O 0.91211 0.50705 0.44414 0.0
O116 O 0.8978 0.3322 0.48974 0.0
C117 C 0.92428 0.43956 0.43217 0.0
O118 O 0.87131 0.46682 0.49516 0.0
O119 O 0.93648 0.66384 0.4901 0.0
C120 C 0.86912 0.3834 0.49596 0.0
O121 O 0.9866 0.6309 0.51217 0.0
O122 O 0.04668 0.47423 0.49125 0.0
O123 O 0.02598 0.36507 0.46655 0.0
C124 C 0.36249 0.73586 0.68806 0.0
C125 C 0.40575 0.63188 0.7492 0.0
C126 C 0.25129 0.53526 0.75983 0.0
Mg127 Mg 0.36309 0.79758 0.73839 0.0
O128 O 0.31505 0.73876 0.73687 0.0
Mg129 Mg 0.31455 0.61383 0.72477 0.0
Mg130 Mg 0.28472 0.73033 0.76485 0.0
O131 O 0.25437 0.72596 0.79341 0.0
Mg132 Mg 0.20606 0.67111 0.79483 0.0
Mg133 Mg 0.25698 0.85492 0.80338 0.0
C134 C 0.31266 0.93533 0.76658 0.0
C135 C 0.34096 0.75205 0.80832 0.0
O136 O 0.3426 0.66641 0.69204 0.0
O137 O 0.37341 0.79311 0.70355 0.0
O138 O 0.37818 0.58664 0.7391 0.0
O139 O 0.40343 0.7153 0.75291 0.0
O140 O 0.3443 0.91962 0.75547 0.0
O141 O 0.28848 0.87464 0.7707 0.0
C142 C 0.22617 0.69423 0.72248 0.0
O143 O 0.23021 0.73456 0.74193 0.0
O144 O 0.25335 0.6466 0.71299 0.0
O145 O 0.22608 0.82199 0.83568 0.0
O146 O 0.19658 0.68949 0.83072 0.0
O147 O 0.19527 0.88608 0.78792 0.0
C148 C 0.20635 0.75868 0.84316 0.0
O149 O 0.16615 0.75553 0.77993 0.0
O150 O 0.22269 0.55527 0.77332 0.0
C151 C 0.16628 0.83936 0.77996 0.0
O152 O 0.28129 0.58537 0.75792 0.0
O153 O 0.33749 0.71896 0.78811 0.0
O154 O 0.31613 0.80865 0.81695 0.0
C155 C 0.86797 0.22639 0.68745 0.0
C156 C 0.9049 0.11829 0.75017 0.0
C157 C 0.75079 0.04765 0.76049 0.0
Mg158 Mg 0.86961 0.28893 0.73793 0.0
O159 O 0.81895 0.24194 0.73536 0.0
Mg160 Mg 0.81494 0.1159 0.7243 0.0
Mg161 Mg 0.78699 0.2426 0.76305 0.0
O162 O 0.75545 0.24561 0.79123 0.0
Mg163 Mg 0.70575 0.19568 0.79177 0.0
Mg164 Mg 0.76071 0.37504 0.80008 0.0
C165 C 0.82166 0.44097 0.76305 0.0
C166 C 0.84228 0.2661 0.80686 0.0
O167 O 0.84503 0.16169 0.69141 0.0
O168 O 0.88151 0.28017 0.70304 0.0
O169 O 0.87674 0.07983 0.73901 0.0
O170 O 0.90575 0.20162 0.75432 0.0
O171 O 0.85396 0.41537 0.75371 0.0
O172 O 0.79414 0.38743 0.76724 0.0
C173 C 0.7287 0.20485 0.72066 0.0
O174 O 0.73323 0.24862 0.73963 0.0
O175 O 0.7551 0.15326 0.7119 0.0
O176 O 0.72723 0.34992 0.83238 0.0
O177 O 0.69437 0.22142 0.82734 0.0
O178 O 0.70048 0.40891 0.78388 0.0
C179 C 0.70506 0.29016 0.8397 0.0
O180 O 0.66911 0.28155 0.77473 0.0
O181 O 0.72138 0.07154 0.77302 0.0
C182 C 0.67127 0.36539 0.77509 0.0
O183 O 0.7805 0.09768 0.75776 0.0
O184 O 0.83859 0.22985 0.78697 0.0
O185 O 0.81833 0.32608 0.81475 0.0
C186 C 0.5635 0.06646 0.59035 0.0
C187 C 0.60352 0.12237 0.52527 0.0
C188 C 0.45681 0.19636 0.50685 0.0
Mg189 Mg 0.56642 0.9587 0.54417 0.0
O190 O 0.51721 0.00875 0.54127 0.0
Mg191 Mg 0.51222 0.13997 0.54751 0.0
Mg192 Mg 0.48792 -0.00224 0.51224 0.0
O193 O 0.45816 -0.00985 0.48369 0.0
Mg194 Mg 0.40801 0.04051 0.48432 0.0
Mg195 Mg 0.4612 0.86162 0.4756 0.0
C196 C 0.52283 0.80428 0.51408 0.0
C197 C 0.54871 0.94349 0.47184 0.0
O198 O 0.54273 0.12411 0.58117 0.0
O199 O 0.57451 -0.00597 0.57968 0.0
O200 O 0.5737 0.16819 0.53226 0.0
O201 O 0.60534 0.03921 0.52676 0.0
O202 O 0.55161 0.83103 0.52679 0.0
O203 O 0.49317 0.85276 0.51019 0.0
C204 C 0.42904 0.03696 0.55411 0.0
O205 O 0.43428 -0.00538 0.53505 0.0
O206 O 0.45295 0.09775 0.56161 0.0
O207 O 0.4333 0.8959 0.4411 0.0
O208 O 0.39692 0.01767 0.44965 0.0
O209 O 0.39851 0.83495 0.48995 0.0
C210 C 0.41054 0.95834 0.43547 0.0
O211 O 0.36985 0.96158 0.50222 0.0
O212 O 0.42543 0.17143 0.4964 0.0
C213 C 0.37008 0.8776 0.49975 0.0
O214 O 0.48192 0.14198 0.51352 0.0
O215 O 0.54356 -0.0062 0.48979 0.0
O216 O 0.52213 0.89099 0.46362 0.0
C217 C 0.55319 0.51616 0.09185 0.0
C218 C 0.59267 0.57716 0.02715 0.0
C219 C 0.44966 0.65099 1.00683 0.0
Mg220 Mg 0.55647 0.41172 0.04513 0.0
O221 O 0.50709 0.46024 0.04228 0.0
Mg222 Mg 0.50152 0.591 0.04925 0.0
Mg223 Mg 0.4784 0.45 0.01295 0.0
O224 O 0.44971 0.44335 0.98407 0.0
Mg225 Mg 0.40106 0.49881 0.98303 0.0
Mg226 Mg 0.45141 0.31473 0.97613 0.0
C227 C 0.51355 0.25738 0.01461 0.0
C228 C 0.53944 0.39524 0.9726 0.0
O229 O 0.53176 0.57384 0.0831 0.0
O230 O 0.5647 0.44521 0.0807 0.0
O231 O 0.56289 0.62184 0.03463 0.0
O232 O 0.59476 0.49369 0.02786 0.0
O233 O 0.54203 0.2851 0.02742 0.0
O234 O 0.48342 0.30465 0.01072 0.0
C235 C 0.41901 0.4835 0.05486 0.0
O236 O 0.42437 0.44468 0.03539 0.0
O237 O 0.44239 0.54452 0.06286 0.0
O238 O 0.42495 0.3493 0.94105 0.0
O239 O 0.3913 0.47581 0.94836 0.0
O240 O 0.38749 0.29311 0.99053 0.0
C241 C 0.404 0.41365 0.93473 0.0
O242 O 0.36116 0.42501 1.00042 0.0
O243 O 0.4193 0.62811 0.99522 0.0
C244 C 0.35953 0.34113 0.99925 0.0
O245 O 0.47248 0.59485 0.01482 0.0
O246 O 0.53416 0.44672 0.99039 0.0
O247 O 0.51293 0.34203 0.96455 0.0
H248 H 0.03945 0.14832 0.12081 0.0
H249 H 0.10662 0.90657 0.11251 0.0
H250 H 0.06954 0.18251 0.15724 0.0
H251 H 0.13711 0.94163 0.14862 0.0
H252 H 0.18356 0.26136 0.19977 0.0
H253 H 0.1345 0.22878 0.17048 0.0
H254 H 0.12814 0.95877 0.18829 0.0
H255 H 0.17802 -0.00878 0.21684 0.0
C256 C 0.06031 0.10191 0.12681 0.0
C257 C 0.07083 0.02486 0.11358 0.0
C258 C 0.07766 0.12185 0.14769 0.0
C259 C 0.10581 0.06511 0.15587 0.0
C260 C 0.11508 -0.01368 0.14304 0.0
C261 C 0.09777 0.96638 0.12219 0.0
C262 C 0.17041 0.19622 0.1979 0.0
C263 C 0.18438 0.12866 0.21037 0.0
C264 C 0.14243 0.17722 0.18111 0.0
C265 C 0.12807 0.09048 0.1767 0.0
C266 C 0.13933 0.02557 0.19085 0.0
C267 C 0.16748 0.04432 0.20738 0.0
H268 H 0.9077 0.03693 0.1 0.0
H269 H 0.87576 0.83708 0.04796 0.0
H270 H 0.88645 0.93956 0.12797 0.0
H271 H 0.85397 0.74047 0.07624 0.0
H272 H 0.79808 0.66036 0.15076 0.0
H273 H 0.8044 0.73977 0.11672 0.0
H274 H 0.92771 0.77948 0.13036 0.0
H275 H 0.92159 0.70024 0.16391 0.0
C276 C 0.89481 -0.02617 0.09441 0.0
C277 C 0.89425 0.94459 0.07164 0.0
C278 C 0.88287 0.91782 0.11049 0.0
C279 C 0.8695 0.83196 0.10419 0.0
C280 C 0.86444 0.80621 0.08147 0.0
C281 C 0.87675 0.86208 0.0653 0.0
C282 C 0.82687 0.68197 0.14577 0.0
C283 C 0.85943 0.67384 0.15987 0.0
C284 C 0.83033 0.72847 0.12652 0.0
C285 C 0.86632 0.76738 0.12135 0.0
C286 C 0.89952 0.75127 0.13423 0.0
C287 C 0.89613 0.70485 0.15324 0.0
H288 H 0.08543 0.54063 0.44934 0.0
H289 H 0.10226 0.28082 0.47184 0.0
H290 H 0.13335 0.50775 0.41956 0.0
H291 H 0.1512 0.24833 0.44272 0.0
H292 H 0.1661 0.17573 0.36696 0.0
H293 H 0.13903 0.21665 0.40364 0.0
H294 H 0.19808 0.46892 0.40494 0.0
H295 H 0.22468 0.42864 0.36788 0.0
C296 C 0.101 0.47829 0.44859 0.0
C297 C 0.09049 0.41328 0.46279 0.0
C298 C 0.12833 0.45905 0.43148 0.0
C299 C 0.14548 0.37451 0.42843 0.0
C300 C 0.13785 0.31322 0.44425 0.0
C301 C 0.11031 0.33216 0.46113 0.0
C302 C 0.17383 0.23945 0.37513 0.0
C303 C 0.19726 0.29908 0.36429 0.0
C304 C 0.15854 0.26278 0.39633 0.0
C305 C 0.16635 0.34629 0.4073 0.0
C306 C 0.19116 0.40452 0.39688 0.0
C307 C 0.20649 0.38116 0.37564 0.0
H308 H 0.87246 0.79937 0.34394 0.0
H309 H 0.8743 0.57218 0.29591 0.0
H310 H 0.90193 0.7099 0.37171 0.0
H311 H 0.9023 0.48311 0.32396 0.0
H312 H 0.86931 0.38806 0.40063 0.0
H313 H 0.86024 0.45664 0.36526 0.0
H314 H 0.96938 0.59759 0.376 0.0
H315 H 0.97914 0.52652 0.41076 0.0
C316 C 0.88017 0.73143 0.33906 0.0
C317 C 0.87079 0.69335 0.31766 0.0
C318 C 0.89689 0.68012 0.35499 0.0
C319 C 0.90386 0.58951 0.34996 0.0
C320 C 0.897 0.5527 0.32823 0.0
C321 C 0.88123 0.60435 0.31214 0.0
C322 C 0.89238 0.42953 0.39472 0.0
C323 C 0.92539 0.45027 0.40806 0.0
C324 C 0.88704 0.46955 0.37467 0.0
C325 C 0.91409 0.53264 0.36806 0.0
C326 C 0.94825 0.54901 0.38071 0.0
C327 C 0.95401 0.50752 0.40041 0.0
H328 H 0.09322 0.45496 0.62183 0.0
H329 H 0.05516 0.72392 0.61634 0.0
H330 H 0.1229 0.49878 0.65781 0.0
H331 H 0.08474 0.76736 0.65247 0.0
H332 H 0.20628 0.8056 0.69145 0.0
H333 H 0.15514 0.77925 0.66321 0.0
H334 H 0.1132 0.55682 0.69713 0.0
H335 H 0.16473 0.58366 0.72529 0.0
C336 C 0.09051 0.52306 0.62846 0.0
C337 C 0.07227 0.58604 0.61599 0.0
C338 C 0.10726 0.54809 0.64921 0.0
C339 C 0.10632 0.63672 0.65794 0.0
C340 C 0.08622 0.69877 0.64607 0.0
C341 C 0.06921 0.67365 0.62538 0.0
C342 C 0.18493 0.75377 0.69334 0.0
C343 C 0.18884 0.69728 0.71053 0.0
C344 C 0.15572 0.73835 0.67718 0.0
C345 C 0.1304 0.66528 0.67781 0.0
C346 C 0.13253 0.61305 0.69609 0.0
C347 C 0.16162 0.62891 0.71232 0.0
H348 H 0.82012 0.19861 0.6505 0.0
H349 H 0.93078 0.3139 0.67251 0.0
H350 H 0.8247 0.27568 0.61603 0.0
H351 H 0.93501 0.39045 0.6386 0.0
H352 H 0.91192 0.60396 0.5957 0.0
H353 H 0.89263 0.51835 0.62645 0.0
H354 H 0.8697 0.29233 0.58033 0.0
H355 H 0.88887 0.37788 0.54929 0.0
C356 C 0.84591 0.23804 0.6477 0.0
C357 C 0.87498 0.25058 0.66432 0.0
C358 C 0.84828 0.28292 0.62812 0.0
C359 C 0.87956 0.34135 0.625 0.0
C360 C 0.90992 0.3481 0.64084 0.0
C361 C 0.90772 0.30329 0.66017 0.0
C362 C 0.90144 0.53711 0.5919 0.0
C363 C 0.90303 0.4975 0.56998 0.0
C364 C 0.89077 0.48768 0.6096 0.0
C365 C 0.88105 0.39774 0.60584 0.0
C366 C 0.87758 0.36117 0.58375 0.0
C367 C 0.8884 0.41068 0.56595 0.0
H368 H 0.14507 0.67348 0.86162 0.0
H369 H 0.23239 0.87627 0.8767 0.0
H370 H 0.11084 0.72017 0.89627 0.0
H371 H 0.19793 0.92203 0.91141 0.0
H372 H 0.1095 0.86959 0.97981 0.0
H373 H 0.16052 0.82733 0.9518 0.0
H374 H 0.08493 0.9113 0.89994 0.0
H375 H 0.03467 0.95368 0.92759 0.0
C376 C 0.15767 0.72594 0.87261 0.0
C377 C 0.19106 0.77205 0.86622 0.0
C378 C 0.13808 0.7526 0.8924 0.0
C379 C 0.15188 0.82471 0.90627 0.0
C380 C 0.18701 0.86601 0.90096 0.0
C381 C 0.20646 0.83997 0.88104 0.0
C382 C 0.10479 0.88268 0.96256 0.0
C383 C 0.06853 0.91537 0.95573 0.0
C384 C 0.1336 0.85761 0.94659 0.0
C385 C 0.12599 0.86492 0.92385 0.0
C386 C 0.0911 0.90445 0.9174 0.0
C387 C 0.06263 0.9295 0.93321 0.0
H388 H 0.88065 0.10665 0.80033 0.0
H389 H 0.85774 0.32051 0.85038 0.0
H390 H 0.89796 0.01087 0.82971 0.0
H391 H 0.87476 0.22446 0.87945 0.0
H392 H 0.83141 0.00667 0.91985 0.0
H393 H 0.8285 0.08636 0.88632 0.0
H394 H 0.94428 -0.00724 0.86751 0.0
H395 H 0.94746 0.91273 0.90157 0.0
C396 C 0.88077 0.13453 0.81746 0.0
C397 C 0.86685 0.22103 0.82298 0.0
C398 C 0.89049 0.0792 0.83428 0.0
C399 C 0.88645 0.10962 0.85679 0.0
C400 C 0.8772 0.19888 0.86217 0.0
C401 C 0.86775 0.25415 0.84547 0.0
C402 C 0.85576 0.00052 0.90823 0.0
C403 C 0.88967 0.95364 0.91337 0.0
C404 C 0.8543 0.04709 0.88919 0.0
C405 C 0.88664 0.04773 0.87473 0.0
C406 C 0.91914 -0.00609 0.87856 0.0
C407 C 0.92071 0.94722 0.89786 0.0
H408 H 0.67242 0.08176 0.72161 0.0
H409 H 0.70305 0.32211 0.69208 0.0
H410 H 0.6221 0.0505 0.69307 0.0
H411 H 0.65293 0.29119 0.66334 0.0
H412 H 0.60542 0.96185 0.61697 0.0
H413 H 0.63497 0.00516 0.65306 0.0
H414 H 0.58277 0.2639 0.65236 0.0
H415 H 0.55324 0.22111 0.61622 0.0
C416 C 0.66704 0.12977 0.70953 0.0
C417 C 0.69101 0.20471 0.70902 0.0
C418 C 0.63868 0.11142 0.69307 0.0
C419 C 0.63402 0.16764 0.67578 0.0
C420 C 0.65566 0.2469 0.67652 0.0
C421 C 0.68419 0.26502 0.69299 0.0
C422 C 0.59969 0.02749 0.62463 0.0
C423 C 0.57731 0.08814 0.61352 0.0
C424 C 0.61638 0.05216 0.64542 0.0
C425 C 0.61123 0.13812 0.65552 0.0
C426 C 0.58746 0.1975 0.6449 0.0
C427 C 0.57051 0.17267 0.6242 0.0
H428 H 0.39074 0.87702 0.54983 0.0
H429 H 0.40775 0.10803 0.59553 0.0
H430 H 0.36931 0.79359 0.58078 0.0
H431 H 0.38621 0.02449 0.62623 0.0
H432 H 0.42478 0.82558 0.67374 0.0
H433 H 0.42982 0.89981 0.63953 0.0
H434 H 0.32155 0.77815 0.61581 0.0
H435 H 0.31619 0.70326 0.65064 0.0
C436 C 0.3884 0.91126 0.56626 0.0
C437 C 0.40202 -0.00112 0.57025 0.0
C438 C 0.37625 0.86302 0.58401 0.0
C439 C 0.37743 0.90179 0.60596 0.0
C440 C 0.38607 -0.00766 0.6095 0.0
C441 C 0.39812 0.04046 0.59185 0.0
C442 C 0.40236 0.81304 0.66109 0.0
C443 C 0.36996 0.75902 0.66496 0.0
C444 C 0.40501 0.85646 0.6416 0.0
C445 C 0.3754 0.84703 0.62536 0.0
C446 C 0.3445 0.7874 0.62825 0.0
C447 C 0.3417 0.74381 0.64801 0.0
H448 H 0.57334 0.52452 0.95006 0.0
H449 H 0.58786 0.25613 0.96716 0.0
H450 H 0.62197 0.49927 0.92022 0.0
H451 H 0.63718 0.231 0.93794 0.0
H452 H 0.71846 0.43133 0.87003 0.0
H453 H 0.6883 0.46175 0.90658 0.0
H454 H 0.62599 0.21354 0.89808 0.0
H455 H 0.65644 0.18239 0.86176 0.0
C456 C 0.5884 0.4616 0.94809 0.0
C457 C 0.57713 0.39224 0.96077 0.0
C458 C 0.6161 0.44677 0.93096 0.0
C459 C 0.63278 0.36236 0.92638 0.0
C460 C 0.62419 0.29602 0.94068 0.0
C461 C 0.59641 0.31067 0.95759 0.0
C462 C 0.69871 0.38257 0.87605 0.0
C463 C 0.6897 0.30447 0.86282 0.0
C464 C 0.68134 0.40036 0.897 0.0
C465 C 0.65474 0.34026 0.90529 0.0
C466 C 0.64684 0.26079 0.8924 0.0
C467 C 0.66409 0.2431 0.87144 0.0
H468 H 0.45914 0.41008 0.90145 0.0
H469 H 0.33639 0.45794 0.91526 0.0
H470 H 0.45366 0.49153 0.86769 0.0
H471 H 0.3311 0.53907 0.88199 0.0
H472 H 0.35445 0.79705 0.85258 0.0
H473 H 0.37436 0.69619 0.87999 0.0
H474 H 0.40415 0.49872 0.82734 0.0
H475 H 0.38383 0.59927 0.79955 0.0
C476 C 0.43063 0.43395 0.89667 0.0
C477 C 0.3981 0.42738 0.9109 0.0
C478 C 0.42766 0.48155 0.87756 0.0
C479 C 0.39219 0.52314 0.87264 0.0
C480 C 0.35892 0.50874 0.88564 0.0
C481 C 0.36182 0.4613 0.90452 0.0
C482 C 0.36647 0.73348 0.84667 0.0
C483 C 0.36663 0.706 0.82378 0.0
C484 C 0.37763 0.67544 0.86243 0.0
C485 C 0.3898 0.5891 0.85573 0.0
C486 C 0.39454 0.56477 0.8329 0.0
C487 C 0.38307 0.62283 0.81701 0.0
H488 H 0.59845 0.41224 0.11689 0.0
H489 H 0.54057 0.66606 0.11939 0.0
H490 H 0.62826 0.45249 0.15297 0.0
H491 H 0.57015 0.70578 0.15573 0.0
H492 H 0.68681 0.77299 0.19762 0.0
H493 H 0.63737 0.74187 0.16849 0.0
H494 H 0.61705 0.48505 0.19264 0.0
H495 H 0.66711 0.51596 0.22125 0.0
C496 C 0.59149 0.476 0.12528 0.0
C497 C 0.56734 0.53601 0.11507 0.0
C498 C 0.60838 0.49896 0.14611 0.0
C499 C 0.6016 0.58253 0.15728 0.0
C500 C 0.57623 0.64126 0.14749 0.0
C501 C 0.55917 0.61817 0.12668 0.0
C502 C 0.6704 0.71174 0.19724 0.0
C503 C 0.68037 0.64698 0.21161 0.0
C504 C 0.64224 0.69351 0.18051 0.0
C505 C 0.62386 0.61012 0.17796 0.0
C506 C 0.63126 0.54909 0.19386 0.0
C507 C 0.65946 0.56716 0.21042 0.0
H508 H 0.42496 0.20427 0.16415 0.0
H509 H 0.3024 0.1513 0.15084 0.0
H510 H 0.42963 0.28167 0.13023 0.0
H511 H 0.30725 0.22887 0.11644 0.0
H512 H 0.37682 0.3291 0.04735 0.0
H513 H 0.35677 0.23228 0.07598 0.0
H514 H 0.38527 0.43711 0.12709 0.0
H515 H 0.4048 0.5346 0.09878 0.0
C516 C 0.39947 0.20557 0.15338 0.0
C517 C 0.3634 0.17142 0.16007 0.0
C518 C 0.402 0.25096 0.13416 0.0
C519 C 0.36856 0.2629 0.1211 0.0
C520 C 0.33336 0.22082 0.12636 0.0
C521 C 0.33076 0.17536 0.14583 0.0
C522 C 0.37727 0.35518 0.06462 0.0
C523 C 0.39326 0.4395 0.0707 0.0
C524 C 0.36598 0.29918 0.081 0.0
C525 C 0.37051 0.32666 0.10366 0.0
C526 C 0.38217 0.41402 0.10966 0.0
C527 C 0.39309 0.47011 0.09338 0.0
H528 H 0.59994 0.81038 0.47312 0.0
H529 H 0.58068 0.05751 0.44417 0.0
H530 H 0.64994 0.77034 0.44501 0.0
H531 H 0.63042 0.0176 0.41575 0.0
H532 H 0.66547 0.67974 0.3691 0.0
H533 H 0.637 0.72821 0.40514 0.0
H534 H 0.69892 -0.02369 0.4047 0.0
H535 H 0.72734 0.92837 0.36862 0.0
C536 C 0.6078 0.85774 0.46127 0.0
C537 C 0.587 0.93722 0.46079 0.0
C538 C 0.63597 0.8344 0.44503 0.0
C539 C 0.64357 0.89002 0.42793 0.0
C540 C 0.62536 -0.02649 0.42878 0.0
C541 C 0.59707 -0.0032 0.44508 0.0
C542 C 0.67361 0.74395 0.37683 0.0
C543 C 0.69835 0.80034 0.36578 0.0
C544 C 0.65749 0.77161 0.39759 0.0
C545 C 0.66564 0.85636 0.40773 0.0
C546 C 0.69184 0.91105 0.39721 0.0
C547 C 0.70817 0.88323 0.37653 0.0
H548 H 0.46248 0.94066 0.40039 0.0
H549 H 0.3437 0.01728 0.41779 0.0
H550 H 0.45655 0.01506 0.36554 0.0
H551 H 0.33809 0.09156 0.38352 0.0
H552 H 0.35861 0.32279 0.3452 0.0
H553 H 0.38046 0.23601 0.37521 0.0
H554 H 0.40813 0.01804 0.32756 0.0
H555 H 0.38597 0.10422 0.2973 0.0
C556 C 0.43468 0.97014 0.39636 0.0
C557 C 0.40355 -0.02656 0.41181 0.0
C558 C 0.43151 0.01367 0.37662 0.0
C559 C 0.39731 0.06123 0.3723 0.0
C560 C 0.36514 0.05727 0.38677 0.0
C561 C 0.36818 0.01375 0.40623 0.0
C562 C 0.37067 0.25772 0.3409 0.0
C563 C 0.36951 0.22004 0.3188 0.0
C564 C 0.38293 0.20774 0.35815 0.0
C565 C 0.39481 0.11956 0.35368 0.0
C566 C 0.3987 0.0856 0.33143 0.0
C567 C 0.38617 0.13551 0.31409 0.0
H568 H 0.07274 0.64636 0.01013 0.0
H569 H 0.95285 0.67905 0.98822 0.0
H570 H 0.06688 0.48745 1.00175 0.0
H571 H 0.9473 0.52263 0.97987 0.0
H572 H 0.93472 0.24349 0.97305 0.0
H573 H 0.96494 0.37918 0.96312 0.0
H574 H 0.02531 0.40304 0.02663 0.0
H575 H 0.99657 0.26318 0.03607 0.0
C576 C 0.04561 0.6201 1.00291 0.0
C577 C 0.01262 0.67422 1.00069 0.0
C578 C 0.04247 0.52954 0.998 0.0
C579 C 0.00641 0.49326 0.99082 0.0
C580 C 0.97552 0.5489 0.98544 0.0
C581 C 0.97858 0.63896 0.99043 0.0
C582 C 0.95415 0.27823 0.98502 0.0
C583 C 0.96202 0.24597 1.00584 0.0
C584 C 0.97206 0.35454 0.97907 0.0
C585 C 0.99718 0.4013 0.9941 0.0
C586 C 0.00642 0.36721 0.01457 0.0
C587 C 0.98922 0.28907 0.0203 0.0
H588 H 0.25976 0.50669 0.28108 0.0
H589 H 0.3163 0.49659 0.21651 0.0
H590 H 0.23074 0.64847 0.27409 0.0
H591 H 0.28622 0.63626 0.2092 0.0
H592 H 0.18758 0.90202 0.263 0.0
H593 H 0.18914 0.74499 0.25094 0.0
H594 H 0.31001 0.77159 0.2304 0.0
H595 H 0.30902 0.92541 0.24284 0.0
C596 C 0.26568 0.53475 0.26541 0.0
C597 C 0.29164 0.49388 0.24984 0.0
C598 C 0.24827 0.61422 0.2611 0.0
C599 C 0.25641 0.65252 0.24106 0.0
C600 C 0.27983 0.60775 0.22477 0.0
C601 C 0.29778 0.52946 0.22925 0.0
C602 C 0.21417 0.87434 0.25547 0.0
C603 C 0.24863 0.92485 0.25448 0.0
C604 C 0.21476 0.78523 0.24829 0.0
C605 C 0.24974 0.74682 0.24007 0.0
C606 C 0.2825 0.7999 0.23651 0.0
C607 C 0.28207 0.88823 0.24388 0.0
H608 H 0.81492 -0.006 0.21901 0.0
H609 H 0.76882 0.00686 0.2862 0.0
H610 H 0.7824 0.13176 0.21264 0.0
H611 H 0.73767 0.1477 0.28018 0.0
H612 H 0.80147 0.42721 0.24013 0.0
H613 H 0.80513 0.27197 0.23042 0.0
H614 H 0.69014 0.23613 0.25892 0.0
H615 H 0.68575 0.39504 0.26833 0.0
C616 C 0.79844 0.0275 0.23257 0.0
C617 C 0.7956 -0.00726 0.25346 0.0
C618 C 0.7791 0.10477 0.2287 0.0
C619 C 0.75767 0.14969 0.24588 0.0
C620 C 0.75351 0.11317 0.26652 0.0
C621 C 0.77217 0.0344 0.27023 0.0
C622 C 0.77607 0.38769 0.24347 0.0
C623 C 0.74376 0.42301 0.25549 0.0
C624 C 0.77807 0.29815 0.23773 0.0
C625 C 0.7481 0.24247 0.24428 0.0
C626 C 0.71372 0.27846 0.254 0.0
C627 C 0.71148 0.36886 0.25954 0.0
H628 H 0.01081 0.78564 0.53234 0.0
H629 H 0.96307 0.77509 0.46552 0.0
H630 H 0.04072 0.92793 0.52665 0.0
H631 H 0.99391 0.9155 0.45961 0.0
H632 H 0.08469 0.18347 0.51717 0.0
H633 H 0.08498 0.02656 0.505 0.0
H634 H 0.96629 0.04919 0.48055 0.0
H635 H 0.96534 0.20306 0.49314 0.0
C636 C 0.00708 0.81356 0.51645 0.0
C637 C 0.98318 0.77252 0.49981 0.0
C638 C 0.025 0.8934 0.51293 0.0
C639 C 0.01939 0.9319 0.49266 0.0
C640 C 0.99832 0.88679 0.47537 0.0
C641 C 0.97989 0.80808 0.47902 0.0
C642 C 0.05899 0.155 0.50878 0.0
C643 C 0.02448 0.2044 0.5067 0.0
C644 C 0.0595 0.06597 0.50155 0.0
C645 C 0.02562 0.02652 0.49212 0.0
C646 C 0.993 0.07846 0.48759 0.0
C647 C 0.99228 0.16673 0.49504 0.0
H648 H 0.35261 0.08891 0.77393 0.0
H649 H 0.2388 -0.02211 0.75635 0.0
H650 H 0.33165 0.2298 0.76142 0.0
H651 H 0.21881 0.11578 0.74225 0.0
H652 H 0.19176 0.41592 0.75847 0.0
H653 H 0.20198 0.25892 0.75471 0.0
H654 H 0.31801 0.29864 0.72789 0.0
H655 H 0.30905 0.45701 0.73352 0.0
C656 C 0.32291 0.09563 0.76781 0.0
C657 C 0.29716 0.0239 0.76636 0.0
C658 C 0.31128 0.17486 0.75991 0.0
C659 C 0.27412 0.18236 0.74995 0.0
C660 C 0.24769 0.11163 0.74963 0.0
C661 C 0.25891 0.03335 0.75813 0.0
C662 C 0.21912 0.39128 0.75121 0.0
C663 C 0.25081 0.44792 0.74792 0.0
C664 C 0.22478 0.30086 0.74874 0.0
C665 C 0.26184 0.26752 0.74243 0.0
C666 C 0.28996 0.32386 0.73403 0.0
C667 C 0.28473 0.4145 0.73712 0.0
H668 H 0.77299 0.54632 0.78923 0.0
H669 H 0.83983 0.53077 0.72789 0.0
H670 H 0.74525 0.68676 0.77968 0.0
H671 H 0.81023 0.66616 0.7176 0.0
H672 H 0.69306 0.92272 0.76075 0.0
H673 H 0.70355 0.76405 0.7547 0.0
H674 H 0.82154 0.81221 0.73177 0.0
H675 H 0.81106 0.96797 0.73733 0.0
C676 C 0.78189 0.5736 0.77389 0.0
C677 C 0.80967 0.53058 0.75981 0.0
C678 C 0.76523 0.65208 0.76805 0.0
C679 C 0.77549 0.68663 0.74778 0.0
C680 C 0.80227 0.64149 0.73342 0.0
C681 C 0.81974 0.56503 0.73956 0.0
C682 C 0.72074 0.89906 0.75372 0.0
C683 C 0.7519 0.95721 0.75042 0.0
C684 C 0.72666 0.80855 0.75027 0.0
C685 C 0.76373 0.77638 0.74357 0.0
C686 C 0.79264 0.83496 0.73706 0.0
C687 C 0.78671 0.92491 0.74042 0.0
H688 H 0.58267 0.68462 0.51459 0.0
H689 H 0.46455 0.72036 0.49018 0.0
H690 H 0.57673 0.52601 0.50511 0.0
H691 H 0.45917 0.56538 0.48054 0.0
H692 H 0.50232 0.29887 0.53545 0.0
H693 H 0.5322 0.43954 0.52802 0.0
H694 H 0.47775 0.42385 0.4628 0.0
H695 H 0.44642 0.2862 0.47071 0.0
C696 C 0.55601 0.65925 0.50662 0.0
C697 C 0.52357 0.71424 0.50376 0.0
C698 C 0.55284 0.569 0.50104 0.0
C699 C 0.51731 0.53398 0.49255 0.0
C700 C 0.48705 0.59063 0.48696 0.0
C701 C 0.49005 0.68005 0.49268 0.0
C702 C 0.49648 0.32657 0.51972 0.0
C703 C 0.47086 0.28476 0.50408 0.0
C704 C 0.51442 0.40524 0.51515 0.0
C705 C 0.50736 0.44165 0.49474 0.0
C706 C 0.48335 0.39702 0.47868 0.0
C707 C 0.46473 0.31979 0.48345 0.0
H708 H 0.44479 0.73677 0.9697 0.0
H709 H 0.4945 0.75319 0.03609 0.0
H710 H 0.47669 0.87407 0.96228 0.0
H711 H 0.52506 0.89391 0.02902 0.0
H712 H 0.57455 0.14145 0.01594 0.0
H713 H 0.57077 -0.01735 1.00657 0.0
H714 H 0.45402 0.01458 0.98008 0.0
H715 H 0.45722 0.17042 0.98967 0.0
C716 C 0.462 0.77091 0.98287 0.0
C717 C 0.46585 0.7375 1.00389 0.0
C718 C 0.48097 0.84797 0.97838 0.0
C719 C 0.50307 0.89408 0.99506 0.0
C720 C 0.50857 0.85852 0.01575 0.0
C721 C 0.49029 0.77983 0.02006 0.0
C722 C 0.54852 0.11454 1.00758 0.0
C723 C 0.51558 0.16759 1.00421 0.0
C724 C 0.54663 0.02415 1.00207 0.0
C725 C 0.51194 -0.01299 0.99304 0.0
C726 C 0.48126 0.04172 0.98694 0.0
C727 C 0.48297 0.13144 0.99263 0.0
H728 H 0.29308 0.42803 0.01292 0.0
H729 H 0.34 0.16468 0.99969 0.0
H730 H 0.22859 0.36825 0.01772 0.0
H731 H 0.27487 0.10351 1.00607 0.0
H732 H 0.1478 0.02316 0.99493 0.0
H733 H 0.21277 0.08536 0.98947 0.0
H734 H 0.18701 0.29619 0.03997 0.0
H735 H 0.12148 0.23678 0.04423 0.0
C736 C 0.28988 0.35685 0.01151 0.0
C737 C 0.32189 0.30116 1.00569 0.0
C738 C 0.25257 0.32237 0.01444 0.0
C739 C 0.24611 0.23085 0.01219 0.0
C740 C 0.27847 0.17454 1.00741 0.0
C741 C 0.31597 0.20939 1.00404 0.0
C742 C 0.15587 0.08405 1.00442 0.0
C743 C 0.12953 0.12574 0.01983 0.0
C744 C 0.19335 0.11891 1.0016 0.0
C745 C 0.20562 0.1953 0.01448 0.0
C746 C 0.17865 0.23812 0.02946 0.0
C747 C 0.14089 0.20431 0.03189 0.0
H748 H 0.78966 0.93105 0.01423 0.0
H749 H 0.83875 0.66974 1.00095 0.0
H750 H 0.72563 0.86878 0.0186 0.0
H751 H 0.77401 0.60587 1.00702 0.0
H752 H 0.64733 0.52039 0.99619 0.0
H753 H 0.71198 0.58455 0.99065 0.0
H754 H 0.68476 0.79594 0.04076 0.0
H755 H 0.61963 0.73489 0.04498 0.0
C756 C 0.78705 0.85975 0.01277 0.0
C757 C 0.81954 0.80538 1.00709 0.0
C758 C 0.74999 0.8238 0.01544 0.0
C759 C 0.74425 0.73205 0.01314 0.0
C760 C 0.77707 0.67702 1.00842 0.0
C761 C 0.81432 0.7134 1.00525 0.0
C762 C 0.65507 0.58181 1.00556 0.0
C763 C 0.62848 0.62333 0.02084 0.0
C764 C 0.69233 0.61781 1.0027 0.0
C765 C 0.70406 0.69504 0.01543 0.0
C766 C 0.67681 0.73739 0.03032 0.0
C767 C 0.63929 0.70259 0.03275 0.0
H768 H 0.13921 0.49186 0.28924 0.0
H769 H 0.10589 0.25455 0.24953 0.0
H770 H 0.07422 0.55255 0.28433 0.0
H771 H 0.04123 0.31726 0.24334 0.0
H772 H 0.91579 0.41739 0.25357 0.0
H773 H 0.98035 0.35334 0.26017 0.0
H774 H 0.03281 0.61272 0.25979 0.0
H775 H 0.96915 0.67606 0.25473 0.0
C776 C 0.11829 0.45376 0.27888 0.0
C777 C 0.12769 0.3687 0.2697 0.0
C778 C 0.08083 0.48846 0.27604 0.0
C779 C 0.05207 0.4399 0.26346 0.0
C780 C 0.06212 0.3559 0.25357 0.0
C781 C 0.09939 0.32041 0.25682 0.0
C782 C 0.94114 0.46048 0.25528 0.0
C783 C 0.93711 0.55182 0.25374 0.0
C784 C 0.97826 0.42382 0.25879 0.0
C785 C 0.01212 0.47767 0.26049 0.0
C786 C 0.00767 0.56896 0.25912 0.0
C787 C 0.97081 0.60545 0.25608 0.0
H788 H 0.31328 0.93474 0.52943 0.0
H789 H 0.34487 0.71542 0.48283 0.0
H790 H 0.24928 0.86793 0.53482 0.0
H791 H 0.2804 0.65012 0.48752 0.0
H792 H 0.17541 0.51728 0.51793 0.0
H793 H 0.23948 0.58015 0.51214 0.0
H794 H 0.18849 0.84143 0.51566 0.0
H795 H 0.12403 0.77835 0.52251 0.0
C796 C 0.3066 0.87189 0.52044 0.0
C797 C 0.33409 0.83034 0.50569 0.0
C798 C 0.26972 0.83413 0.52331 0.0
C799 C 0.2593 0.75435 0.51132 0.0
C800 C 0.28741 0.71128 0.49717 0.0
C801 C 0.32449 0.74856 0.49451 0.0
C802 C 0.17759 0.58819 0.5173 0.0
C803 C 0.14447 0.64283 0.52095 0.0
C804 C 0.21452 0.62428 0.51385 0.0
C805 C 0.21939 0.71602 0.51368 0.0
C806 C 0.18598 0.77056 0.51624 0.0
C807 C 0.14891 0.73438 0.51989 0.0
H808 H 0.79995 0.47162 0.50188 0.0
H809 H 0.85049 0.21096 0.5029 0.0
H810 H 0.73527 0.41145 0.50698 0.0
H811 H 0.78523 0.15066 0.50924 0.0
H812 H 0.66088 0.05361 0.4975 0.0
H813 H 0.7251 0.1173 0.49084 0.0
H814 H 0.69259 0.35236 0.53195 0.0
H815 H 0.62788 0.29006 0.53764 0.0
C816 C 0.79742 0.40141 0.50363 0.0
C817 C 0.8306 0.34606 0.5019 0.0
C818 C 0.76007 0.36684 0.50667 0.0
C819 C 0.75472 0.276 0.50844 0.0
C820 C 0.78806 0.22076 0.50745 0.0
C821 C 0.82558 0.25536 0.50408 0.0
C822 C 0.66731 0.11961 0.50475 0.0
C823 C 0.63937 0.16696 0.51807 0.0
C824 C 0.70433 0.15568 0.5012 0.0
C825 C 0.71449 0.23948 0.51115 0.0
C826 C 0.68586 0.28805 0.5238 0.0
C827 C 0.64861 0.2525 0.52705 0.0
H828 H 0.95636 0.15915 0.78405 0.0
H829 H 0.93404 0.96737 0.72867 0.0
H830 H 0.02019 0.09256 0.78979 0.0
H831 H 0.99861 0.90291 0.73367 0.0
H832 H 0.10113 0.757 0.76223 0.0
H833 H 0.03748 0.82008 0.75599 0.0
H834 H 0.08384 0.08106 0.77396 0.0
H835 H 0.14782 0.01667 0.78143 0.0
C836 C 0.96504 0.10216 0.77321 0.0
C837 C 0.94017 0.06827 0.75594 0.0
C838 C 1.00192 0.06477 0.77627 0.0
C839 C 0.01509 -0.00676 0.76195 0.0
C840 C 0.9895 0.95743 0.74517 0.0
C841 C 0.95233 -0.0059 0.74232 0.0
C842 C 0.09807 0.82806 0.76476 0.0
C843 C 0.12967 0.88164 0.77266 0.0
C844 C 0.06134 0.86441 0.761 0.0
C845 C 0.05512 0.95572 0.76469 0.0
C846 C 0.08724 0.01011 0.77149 0.0
C847 C 0.12411 -0.02656 0.7755 0.0
H848 H 0.61781 0.30976 0.74328 0.0
H849 H 0.64381 0.52386 0.79254 0.0
H850 H 0.55327 0.37311 0.73717 0.0
H851 H 0.57881 0.58463 0.78754 0.0
H852 H 0.47348 0.71723 0.76099 0.0
H853 H 0.53798 0.65664 0.76485 0.0
H854 H 0.49069 0.39257 0.75346 0.0
H855 H 0.42533 0.4547 0.74808 0.0
C856 C 0.6098 0.37104 0.75261 0.0
C857 C 0.63588 0.41235 0.76827 0.0
C858 C 0.57256 0.4066 0.74939 0.0
C859 C 0.56032 0.48351 0.76205 0.0
C860 C 0.58714 0.52615 0.77718 0.0
C861 C 0.62462 0.49154 0.78006 0.0
C862 C 0.47642 0.64601 0.75946 0.0
C863 C 0.44393 0.59081 0.75423 0.0
C864 C 0.51377 0.61107 0.76181 0.0
C865 C 0.51993 0.5195 0.75955 0.0
C866 C 0.48729 0.46364 0.75492 0.0
C867 C 0.44969 0.49901 0.75211 0.0
H868 H 0.64344 0.00136 0.29284 0.0
H869 H 0.6112 0.77302 0.24944 0.0
H870 H 0.57882 0.0649 0.28766 0.0
H871 H 0.54721 0.83821 0.24319 0.0
H872 H 0.42182 0.92882 0.25398 0.0
H873 H 0.48659 0.86737 0.26074 0.0
H874 H 0.53643 0.13006 0.26392 0.0
H875 H 0.47205 0.19104 0.2585 0.0
C876 C 0.62289 0.96602 0.28165 0.0
C877 C 0.6323 0.88228 0.27158 0.0
C878 C 0.58568 0.00226 0.27868 0.0
C879 C 0.55729 0.95632 0.26521 0.0
C880 C 0.56769 0.87447 0.25422 0.0
C881 C 0.60461 0.8376 0.25752 0.0
C882 C 0.44657 -0.02668 0.25648 0.0
C883 C 0.4416 0.06477 0.25565 0.0
C884 C 0.48387 0.93813 0.26008 0.0
C885 C 0.51712 -0.00649 0.26262 0.0
C886 C 0.51174 0.0851 0.26236 0.0
C887 C 0.47455 0.12019 0.25914 0.0
loop_
_geom_bond_atom_site_label_1
_geom_bond_atom_site_label_2
_geom_bond_distance
_geom_bond_site_symmetry_2
_ccdc_geom_bond_type
C0 O12 1.241 1_565 S
C0 O13 1.280 . S
C1 O14 1.277 . S
C1 O15 1.245 . S
C2 O26 1.240 1_554 S
C2 O28 1.303 1_655 S
Mg3 O4 1.926 . S
Mg3 O13 1.984 . S
Mg3 O15 1.988 1_565 S
Mg3 O16 2.061 . S
O4 Mg3 1.926 . S
O4 Mg5 1.986 1_565 S
O4 Mg6 1.916 1_565 S
Mg5 O4 1.986 1_545 S
Mg5 O12 2.042 . S
Mg5 O14 2.041 . S
Mg5 O20 2.038 1_455 S
Mg5 O28 2.238 . S
Mg6 O4 1.916 1_545 S
Mg6 O7 1.918 1_454 S
Mg6 O17 2.096 1_444 S
Mg6 O19 2.077 1_445 S
Mg6 O28 2.117 . S
Mg6 O29 2.080 1_554 S
O7 Mg6 1.918 1_656 S
O7 Mg8 1.926 . S
O7 Mg9 1.986 1_545 S
Mg8 O7 1.926 . S
Mg8 O22 1.984 . S
Mg8 O25 1.988 1_545 S
Mg8 O26 2.061 . S
Mg9 O7 1.986 1_565 S
Mg9 O17 2.238 . S
Mg9 O21 2.042 . S
Mg9 O23 2.041 . S
Mg9 O30 2.038 1_655 S
C10 O16 1.247 . S
C10 O17 1.289 1_454 S
C11 O29 1.245 1_565 S
C11 O30 1.274 . S
O12 C0 1.241 1_545 S
O12 Mg5 2.042 . S
O13 C0 1.280 . S
O13 Mg3 1.984 . S
O14 C1 1.277 . S
O14 Mg5 2.041 . S
O15 C1 1.245 . S
O15 Mg3 1.988 1_545 S
O16 Mg3 2.061 . S
O16 C10 1.247 . S
O17 Mg6 2.096 1_666 S
O17 Mg9 2.238 . S
O17 C10 1.289 1_656 S
C18 O19 1.245 1_545 S
C18 O20 1.274 . S
O19 Mg6 2.077 1_665 S
O19 C18 1.245 1_565 S
O20 Mg5 2.038 1_655 S
O20 C18 1.274 . S
O21 Mg9 2.042 . S
O21 C24 1.241 1_565 S
O22 Mg8 1.984 . S
O22 C24 1.280 . S
O23 Mg9 2.041 . S
O23 C27 1.277 . S
C24 O21 1.241 1_545 S
C24 O22 1.280 . S
O25 Mg8 1.988 1_565 S
O25 C27 1.245 . S
O26 C2 1.240 1_556 S
O26 Mg8 2.061 . S
C27 O23 1.277 . S
C27 O25 1.245 . S
O28 C2 1.303 1_455 S
O28 Mg5 2.238 . S
O28 Mg6 2.117 . S
O29 Mg6 2.080 1_556 S
O29 C11 1.245 1_545 S
O30 Mg9 2.038 1_455 S
O30 C11 1.274 . S
C31 O43 1.241 . S
C31 O44 1.280 . S
C32 O45 1.277 . S
C32 O46 1.245 . S
C33 O57 1.247 . S
C33 O59 1.289 . S
Mg34 O35 1.926 . S
Mg34 O44 1.984 . S
Mg34 O46 1.988 . S
Mg34 O47 2.061 . S
O35 Mg34 1.926 . S
O35 Mg36 1.986 . S
O35 Mg37 1.917 . S
Mg36 O35 1.986 . S
Mg36 O43 2.042 . S
Mg36 O45 2.041 . S
Mg36 O51 2.038 . S
Mg36 O59 2.238 . S
Mg37 O35 1.917 . S
Mg37 O38 1.917 . S
Mg37 O48 2.106 . S
Mg37 O50 2.079 . S
Mg37 O59 2.106 . S
Mg37 O60 2.079 . S
O38 Mg37 1.917 . S
O38 Mg39 1.926 . S
O38 Mg40 1.986 . S
Mg39 O38 1.926 . S
Mg39 O53 1.984 . S
Mg39 O56 1.988 . S
Mg39 O57 2.061 . S
Mg40 O38 1.986 . S
Mg40 O48 2.238 . S
Mg40 O52 2.042 . S
Mg40 O54 2.041 . S
Mg40 O61 2.038 . S
C41 O47 1.247 . S
C41 O48 1.289 . S
C42 O60 1.245 . S
C42 O61 1.274 . S
O43 C31 1.241 . S
O43 Mg36 2.042 . S
O44 C31 1.280 . S
O44 Mg34 1.984 . S
O45 C32 1.277 . S
O45 Mg36 2.041 . S
O46 C32 1.245 . S
O46 Mg34 1.988 . S
O47 Mg34 2.061 . S
O47 C41 1.247 . S
O48 Mg37 2.106 . S
O48 Mg40 2.238 . S
O48 C41 1.289 . S
C49 O50 1.245 . S
C49 O51 1.274 . S
O50 Mg37 2.079 . S
O50 C49 1.245 . S
O51 Mg36 2.038 . S
O51 C49 1.274 . S
O52 Mg40 2.042 . S
O52 C55 1.241 . S
O53 Mg39 1.984 . S
O53 C55 1.280 . S
O54 Mg40 2.041 . S
O54 C58 1.277 . S
C55 O52 1.241 . S
C55 O53 1.280 . S
O56 Mg39 1.988 . S
O56 C58 1.245 . S
O57 C33 1.247 . S
O57 Mg39 2.061 . S
C58 O54 1.277 . S
C58 O56 1.245 . S
O59 C33 1.289 . S
O59 Mg36 2.238 . S
O59 Mg37 2.106 . S
O60 Mg37 2.079 . S
O60 C42 1.245 . S
O61 Mg40 2.038 . S
O61 C42 1.274 . S
C62 O74 1.241 . S
C62 O75 1.280 . S
C63 O76 1.277 . S
C63 O77 1.245 . S
C64 O88 1.247 . S
C64 O90 1.289 . S
Mg65 O66 1.926 . S
Mg65 O75 1.984 . S
Mg65 O77 1.988 . S
Mg65 O78 2.061 . S
O66 Mg65 1.926 . S
O66 Mg67 1.986 . S
O66 Mg68 1.917 . S
Mg67 O66 1.986 . S
Mg67 O74 2.042 . S
Mg67 O76 2.041 . S
Mg67 O82 2.038 . S
Mg67 O90 2.238 . S
Mg68 O66 1.917 . S
Mg68 O69 1.917 . S
Mg68 O79 2.106 . S
Mg68 O81 2.079 . S
Mg68 O90 2.106 . S
Mg68 O91 2.079 . S
O69 Mg68 1.917 . S
O69 Mg70 1.926 . S
O69 Mg71 1.986 . S
Mg70 O69 1.926 . S
Mg70 O84 1.984 . S
Mg70 O87 1.988 . S
Mg70 O88 2.061 . S
Mg71 O69 1.986 . S
Mg71 O79 2.238 . S
Mg71 O83 2.042 . S
Mg71 O85 2.041 . S
Mg71 O92 2.038 . S
C72 O78 1.247 . S
C72 O79 1.289 . S
C73 O91 1.245 . S
C73 O92 1.274 . S
O74 C62 1.241 . S
O74 Mg67 2.042 . S
O75 C62 1.280 . S
O75 Mg65 1.984 . S
O76 C63 1.277 . S
O76 Mg67 2.041 . S
O77 C63 1.245 . S
O77 Mg65 1.988 . S
O78 Mg65 2.061 . S
O78 C72 1.247 . S
O79 Mg68 2.106 . S
O79 Mg71 2.238 . S
O79 C72 1.289 . S
C80 O81 1.245 . S
C80 O82 1.274 . S
O81 Mg68 2.079 . S
O81 C80 1.245 . S
O82 Mg67 2.038 . S
O82 C80 1.274 . S
O83 Mg71 2.042 . S
O83 C86 1.241 . S
O84 Mg70 1.984 . S
O84 C86 1.280 . S
O85 Mg71 2.041 . S
O85 C89 1.277 . S
C86 O83 1.241 . S
C86 O84 1.280 . S
O87 Mg70 1.988 . S
O87 C89 1.245 . S
O88 C64 1.247 . S
O88 Mg70 2.061 . S
C89 O85 1.277 . S
C89 O87 1.245 . S
O90 C64 1.289 . S
O90 Mg67 2.238 . S
O90 Mg68 2.106 . S
O91 Mg68 2.079 . S
O91 C73 1.245 . S
O92 Mg71 2.038 . S
O92 C73 1.274 . S
C93 O105 1.241 . S
C93 O106 1.280 . S
C94 O107 1.277 . S
C94 O108 1.245 . S
C95 O119 1.247 . S
C95 O121 1.289 1_655 S
Mg96 O97 1.926 . S
Mg96 O106 1.984 . S
Mg96 O108 1.988 . S
Mg96 O109 2.061 . S
O97 Mg96 1.926 . S
O97 Mg98 1.986 . S
O97 Mg99 1.917 . S
Mg98 O97 1.986 . S
Mg98 O105 2.042 . S
Mg98 O107 2.041 . S
Mg98 O113 2.038 1_455 S
Mg98 O121 2.238 . S
Mg99 O97 1.917 . S
Mg99 O100 1.917 1_455 S
Mg99 O110 2.106 1_455 S
Mg99 O112 2.079 1_455 S
Mg99 O121 2.106 . S
Mg99 O122 2.079 . S
O100 Mg99 1.917 1_655 S
O100 Mg101 1.926 . S
O100 Mg102 1.986 . S
Mg101 O100 1.926 . S
Mg101 O115 1.984 . S
Mg101 O118 1.988 . S
Mg101 O119 2.061 . S
Mg102 O100 1.986 . S
Mg102 O110 2.238 . S
Mg102 O114 2.042 . S
Mg102 O116 2.041 . S
Mg102 O123 2.038 1_655 S
C103 O109 1.247 . S
C103 O110 1.289 1_455 S
C104 O122 1.245 . S
C104 O123 1.274 . S
O105 C93 1.241 . S
O105 Mg98 2.042 . S
O106 C93 1.280 . S
O106 Mg96 1.984 . S
O107 C94 1.277 . S
O107 Mg98 2.041 . S
O108 C94 1.245 . S
O108 Mg96 1.988 . S
O109 Mg96 2.061 . S
O109 C103 1.247 . S
O110 Mg99 2.106 1_655 S
O110 Mg102 2.238 . S
O110 C103 1.289 1_655 S
C111 O112 1.245 . S
C111 O113 1.274 . S
O112 Mg99 2.079 1_655 S
O112 C111 1.245 . S
O113 Mg98 2.038 1_655 S
O113 C111 1.274 . S
O114 Mg102 2.042 . S
O114 C117 1.241 . S
O115 Mg101 1.984 . S
O115 C117 1.280 . S
O116 Mg102 2.041 . S
O116 C120 1.277 . S
C117 O114 1.241 . S
C117 O115 1.280 . S
O118 Mg101 1.988 . S
O118 C120 1.245 . S
O119 C95 1.247 . S
O119 Mg101 2.061 . S
C120 O116 1.277 . S
C120 O118 1.245 . S
O121 C95 1.289 1_455 S
O121 Mg98 2.238 . S
O121 Mg99 2.106 . S
O122 Mg99 2.079 . S
O122 C104 1.245 . S
O123 Mg102 2.038 1_455 S
O123 C104 1.274 . S
C124 O136 1.241 . S
C124 O137 1.280 . S
C125 O138 1.277 . S
C125 O139 1.245 . S
C126 O150 1.247 . S
C126 O152 1.289 . S
Mg127 O128 1.926 . S
Mg127 O137 1.984 . S
Mg127 O139 1.988 . S
Mg127 O140 2.061 . S
O128 Mg127 1.926 . S
O128 Mg129 1.986 . S
O128 Mg130 1.917 . S
Mg129 O128 1.986 . S
Mg129 O136 2.042 . S
Mg129 O138 2.041 . S
Mg129 O144 2.038 . S
Mg129 O152 2.238 . S
Mg130 O128 1.917 . S
Mg130 O131 1.917 . S
Mg130 O141 2.106 . S
Mg130 O143 2.079 . S
Mg130 O152 2.106 . S
Mg130 O153 2.079 . S
O131 Mg130 1.917 . S
O131 Mg132 1.926 . S
O131 Mg133 1.986 . S
Mg132 O131 1.926 . S
Mg132 O146 1.984 . S
Mg132 O149 1.988 . S
Mg132 O150 2.061 . S
Mg133 O131 1.986 . S
Mg133 O141 2.238 . S
Mg133 O145 2.042 . S
Mg133 O147 2.041 . S
Mg133 O154 2.038 . S
C134 O140 1.247 . S
C134 O141 1.289 . S
C135 O153 1.245 . S
C135 O154 1.274 . S
O136 C124 1.241 . S
O136 Mg129 2.042 . S
O137 C124 1.280 . S
O137 Mg127 1.984 . S
O138 C125 1.277 . S
O138 Mg129 2.041 . S
O139 C125 1.245 . S
O139 Mg127 1.988 . S
O140 Mg127 2.061 . S
O140 C134 1.247 . S
O141 Mg130 2.106 . S
O141 Mg133 2.238 . S
O141 C134 1.289 . S
C142 O143 1.245 . S
C142 O144 1.274 . S
O143 Mg130 2.079 . S
O143 C142 1.245 . S
O144 Mg129 2.038 . S
O144 C142 1.274 . S
O145 Mg133 2.042 . S
O145 C148 1.241 . S
O146 Mg132 1.984 . S
O146 C148 1.280 . S
O147 Mg133 2.041 . S
O147 C151 1.277 . S
C148 O145 1.241 . S
C148 O146 1.280 . S
O149 Mg132 1.988 . S
O149 C151 1.245 . S
O150 C126 1.247 . S
O150 Mg132 2.061 . S
C151 O147 1.277 . S
C151 O149 1.245 . S
O152 C126 1.289 . S
O152 Mg129 2.238 . S
O152 Mg130 2.106 . S
O153 Mg130 2.079 . S
O153 C135 1.245 . S
O154 Mg133 2.038 . S
O154 C135 1.274 . S
C155 O167 1.241 . S
C155 O168 1.280 . S
C156 O169 1.277 . S
C156 O170 1.245 . S
C157 O181 1.247 . S
C157 O183 1.289 . S
Mg158 O159 1.926 . S
Mg158 O168 1.984 . S
Mg158 O170 1.988 . S
Mg158 O171 2.061 . S
O159 Mg158 1.926 . S
O159 Mg160 1.986 . S
O159 Mg161 1.917 . S
Mg160 O159 1.986 . S
Mg160 O167 2.042 . S
Mg160 O169 2.041 . S
Mg160 O175 2.038 . S
Mg160 O183 2.238 . S
Mg161 O159 1.917 . S
Mg161 O162 1.917 . S
Mg161 O172 2.106 . S
Mg161 O174 2.079 . S
Mg161 O183 2.106 . S
Mg161 O184 2.079 . S
O162 Mg161 1.917 . S
O162 Mg163 1.926 . S
O162 Mg164 1.986 . S
Mg163 O162 1.926 . S
Mg163 O177 1.984 . S
Mg163 O180 1.988 . S
Mg163 O181 2.061 . S
Mg164 O162 1.986 . S
Mg164 O172 2.238 . S
Mg164 O176 2.042 . S
Mg164 O178 2.041 . S
Mg164 O185 2.038 . S
C165 O171 1.247 . S
C165 O172 1.289 . S
C166 O184 1.245 . S
C166 O185 1.274 . S
O167 C155 1.241 . S
O167 Mg160 2.042 . S
O168 C155 1.280 . S
O168 Mg158 1.984 . S
O169 C156 1.277 . S
O169 Mg160 2.041 . S
O170 C156 1.245 . S
O170 Mg158 1.988 . S
O171 Mg158 2.061 . S
O171 C165 1.247 . S
O172 Mg161 2.106 . S
O172 Mg164 2.238 . S
O172 C165 1.289 . S
C173 O174 1.245 . S
C173 O175 1.274 . S
O174 Mg161 2.079 . S
O174 C173 1.245 . S
O175 Mg160 2.038 . S
O175 C173 1.274 . S
O176 Mg164 2.042 . S
O176 C179 1.241 . S
O177 Mg163 1.984 . S
O177 C179 1.280 . S
O178 Mg164 2.041 . S
O178 C182 1.277 . S
C179 O176 1.241 . S
C179 O177 1.280 . S
O180 Mg163 1.988 . S
O180 C182 1.245 . S
O181 C157 1.247 . S
O181 Mg163 2.061 . S
C182 O178 1.277 . S
C182 O180 1.245 . S
O183 C157 1.289 . S
O183 Mg160 2.238 . S
O183 Mg161 2.106 . S
O184 Mg161 2.079 . S
O184 C166 1.245 . S
O185 Mg164 2.038 . S
O185 C166 1.274 . S
C186 O198 1.241 1_565 S
C186 O199 1.280 . S
C187 O200 1.277 . S
C187 O201 1.245 . S
C188 O212 1.247 . S
C188 O214 1.289 . S
Mg189 O190 1.926 . S
Mg189 O199 1.984 . S
Mg189 O201 1.988 1_565 S
Mg189 O202 2.061 . S
O190 Mg189 1.926 . S
O190 Mg191 1.986 1_565 S
O190 Mg192 1.916 1_565 S
Mg191 O190 1.986 1_545 S
Mg191 O198 2.042 . S
Mg191 O200 2.041 . S
Mg191 O206 2.038 . S
Mg191 O214 2.238 . S
Mg192 O190 1.916 1_545 S
Mg192 O193 1.918 . S
Mg192 O203 2.098 1_545 S
Mg192 O205 2.078 1_545 S
Mg192 O214 2.115 . S
Mg192 O215 2.080 . S
O193 Mg192 1.918 . S
O193 Mg194 1.926 . S
O193 Mg195 1.986 1_545 S
Mg194 O193 1.926 . S
Mg194 O208 1.984 . S
Mg194 O211 1.988 1_545 S
Mg194 O212 2.061 . S
Mg195 O193 1.986 1_565 S
Mg195 O203 2.238 . S
Mg195 O207 2.042 . S
Mg195 O209 2.041 . S
Mg195 O216 2.038 . S
C196 O202 1.247 . S
C196 O203 1.289 . S
C197 O215 1.245 1_565 S
C197 O216 1.274 . S
O198 C186 1.241 1_545 S
O198 Mg191 2.042 . S
O199 C186 1.280 . S
O199 Mg189 1.984 . S
O200 C187 1.277 . S
O200 Mg191 2.041 . S
O201 C187 1.245 . S
O201 Mg189 1.988 1_545 S
O202 Mg189 2.061 . S
O202 C196 1.247 . S
O203 Mg192 2.098 1_565 S
O203 Mg195 2.238 . S
O203 C196 1.289 . S
C204 O205 1.245 1_545 S
C204 O206 1.274 . S
O205 Mg192 2.078 1_565 S
O205 C204 1.245 1_565 S
O206 Mg191 2.038 . S
O206 C204 1.274 . S
O207 Mg195 2.042 . S
O207 C210 1.241 1_565 S
O208 Mg194 1.984 . S
O208 C210 1.280 . S
O209 Mg195 2.041 . S
O209 C213 1.277 . S
C210 O207 1.241 1_545 S
C210 O208 1.280 . S
O211 Mg194 1.988 1_565 S
O211 C213 1.245 . S
O212 C188 1.247 . S
O212 Mg194 2.061 . S
C213 O209 1.277 . S
C213 O211 1.245 . S
O214 C188 1.289 . S
O214 Mg191 2.238 . S
O214 Mg192 2.115 . S
O215 Mg192 2.080 . S
O215 C197 1.245 1_545 S
O216 Mg195 2.038 . S
O216 C197 1.274 . S
C217 O229 1.241 . S
C217 O230 1.280 . S
C218 O231 1.277 . S
C218 O232 1.245 . S
C219 O243 1.240 1_554 S
C219 O245 1.303 . S
Mg220 O221 1.926 . S
Mg220 O230 1.984 . S
Mg220 O232 1.988 . S
Mg220 O233 2.061 . S
O221 Mg220 1.926 . S
O221 Mg222 1.986 . S
O221 Mg223 1.917 . S
Mg222 O221 1.986 . S
Mg222 O229 2.042 . S
Mg222 O231 2.041 . S
Mg222 O237 2.038 . S
Mg222 O245 2.238 . S
Mg223 O221 1.917 . S
Mg223 O224 1.917 1_554 S
Mg223 O234 2.106 1_554 S
Mg223 O236 2.079 . S
Mg223 O245 2.106 . S
Mg223 O246 2.079 1_554 S
O224 Mg223 1.917 1_556 S
O224 Mg225 1.926 . S
O224 Mg226 1.986 . S
Mg225 O224 1.926 . S
Mg225 O239 1.984 . S
Mg225 O242 1.988 . S
Mg225 O243 2.061 . S
Mg226 O224 1.986 . S
Mg226 O234 2.238 . S
Mg226 O238 2.042 . S
Mg226 O240 2.041 . S
Mg226 O247 2.038 . S
C227 O233 1.247 . S
C227 O234 1.289 1_554 S
C228 O246 1.245 . S
C228 O247 1.274 . S
O229 C217 1.241 . S
O229 Mg222 2.042 . S
O230 C217 1.280 . S
O230 Mg220 1.984 . S
O231 C218 1.277 . S
O231 Mg222 2.041 . S
O232 C218 1.245 . S
O232 Mg220 1.988 . S
O233 Mg220 2.061 . S
O233 C227 1.247 . S
O234 Mg223 2.106 1_556 S
O234 Mg226 2.238 . S
O234 C227 1.289 1_556 S
C235 O236 1.245 . S
C235 O237 1.274 . S
O236 Mg223 2.079 . S
O236 C235 1.245 . S
O237 Mg222 2.038 . S
O237 C235 1.274 . S
O238 Mg226 2.042 . S
O238 C241 1.241 . S
O239 Mg225 1.984 . S
O239 C241 1.280 . S
O240 Mg226 2.041 . S
O240 C244 1.277 . S
C241 O238 1.241 . S
C241 O239 1.280 . S
O242 Mg225 1.988 . S
O242 C244 1.245 . S
O243 C219 1.240 1_556 S
O243 Mg225 2.061 . S
C244 O240 1.277 . S
C244 O242 1.245 . S
O245 C219 1.303 . S
O245 Mg222 2.238 . S
O245 Mg223 2.106 . S
O246 Mg223 2.079 1_556 S
O246 C228 1.245 . S
O247 Mg226 2.038 . S
O247 C228 1.274 . S
H248 C256 0.950 . S
H249 C261 0.950 . S
H250 C258 0.950 . S
H251 C260 0.950 . S
H252 C262 0.950 . S
H253 C264 0.950 . S
H254 C266 0.950 . S
H255 C267 0.950 . S
C256 H248 0.950 . S
C256 C257 1.386 . S
C256 C258 1.391 1_565 S
C257 C256 1.386 . S
C257 C261 1.393 1_565 S
C258 H250 0.950 . S
C258 C256 1.391 1_545 S
C258 C259 1.400 . S
C259 C258 1.400 . S
C259 C260 1.398 . S
C259 C265 1.491 . S
C260 H251 0.950 . S
C260 C259 1.398 . S
C260 C261 1.391 . S
C261 H249 0.950 . S
C261 C257 1.393 1_545 S
C261 C260 1.391 . S
C262 H252 0.950 . S
C262 C263 1.386 . S
C262 C264 1.391 . S
C263 C262 1.386 . S
C263 C267 1.393 . S
C264 H253 0.950 . S
C264 C262 1.391 . S
C264 C265 1.400 . S
C265 C259 1.491 . S
C265 C264 1.400 . S
C265 C266 1.398 . S
C266 H254 0.950 . S
C266 C265 1.398 . S
C266 C267 1.391 . S
C267 H255 0.950 . S
C267 C263 1.393 . S
C267 C266 1.391 . S
H268 C276 0.950 1_545 S
H269 C281 0.950 . S
H270 C278 0.950 . S
H271 C280 0.950 . S
H272 C282 0.950 . S
H273 C284 0.950 . S
H274 C286 0.950 . S
H275 C287 0.950 . S
C276 H268 0.950 1_565 S
C276 C277 1.386 . S
C276 C278 1.391 . S
C277 C276 1.386 . S
C277 C281 1.393 . S
C278 H270 0.950 . S
C278 C276 1.391 . S
C278 C279 1.400 . S
C279 C278 1.400 . S
C279 C280 1.398 . S
C279 C285 1.491 . S
C280 H271 0.950 . S
C280 C279 1.398 . S
C280 C281 1.391 . S
C281 H269 0.950 . S
C281 C277 1.393 . S
C281 C280 1.391 . S
C282 H272 0.950 . S
C282 C283 1.386 . S
C282 C284 1.391 . S
C283 C282 1.386 . S
C283 C287 1.393 . S
C284 H273 0.950 . S
C284 C282 1.391 . S
C284 C285 1.400 . S
C285 C279 1.491 . S
C285 C284 1.400 . S
C285 C286 1.398 . S
C286 H274 0.950 . S
C286 C285 1.398 . S
C286 C287 1.391 . S
C287 H275 0.950 . S
C287 C283 1.393 . S
C287 C286 1.391 . S
H288 C296 0.950 . S
H289 C301 0.950 . S
H290 C298 0.950 . S
H291 C300 0.950 . S
H292 C302 0.950 . S
H293 C304 0.950 . S
H294 C306 0.950 . S
H295 C307 0.950 . S
C296 H288 0.950 . S
C296 C297 1.386 . S
C296 C298 1.391 . S
C297 C296 1.386 . S
C297 C301 1.393 . S
C298 H290 0.950 . S
C298 C296 1.391 . S
C298 C299 1.400 . S
C299 C298 1.400 . S
C299 C300 1.398 . S
C299 C305 1.491 . S
C300 H291 0.950 . S
C300 C299 1.398 . S
C300 C301 1.391 . S
C301 H289 0.950 . S
C301 C297 1.393 . S
C301 C300 1.391 . S
C302 H292 0.950 . S
C302 C303 1.386 . S
C302 C304 1.391 . S
C303 C302 1.386 . S
C303 C307 1.393 . S
C304 H293 0.950 . S
C304 C302 1.391 . S
C304 C305 1.400 . S
C305 C299 1.491 . S
C305 C304 1.400 . S
C305 C306 1.398 . S
C306 H294 0.950 . S
C306 C305 1.398 . S
C306 C307 1.391 . S
C307 H295 0.950 . S
C307 C303 1.393 . S
C307 C306 1.391 . S
H308 C316 0.950 . S
H309 C321 0.950 . S
H310 C318 0.950 . S
H311 C320 0.950 . S
H312 C322 0.950 . S
H313 C324 0.950 . S
H314 C326 0.950 . S
H315 C327 0.950 . S
C316 H308 0.950 . S
C316 C317 1.386 . S
C316 C318 1.391 . S
C317 C316 1.386 . S
C317 C321 1.393 . S
C318 H310 0.950 . S
C318 C316 1.391 . S
C318 C319 1.400 . S
C319 C318 1.400 . S
C319 C320 1.398 . S
C319 C325 1.491 . S
C320 H311 0.950 . S
C320 C319 1.398 . S
C320 C321 1.391 . S
C321 H309 0.950 . S
C321 C317 1.393 . S
C321 C320 1.391 . S
C322 H312 0.950 . S
C322 C323 1.386 . S
C322 C324 1.391 . S
C323 C322 1.386 . S
C323 C327 1.393 . S
C324 H313 0.950 . S
C324 C322 1.391 . S
C324 C325 1.400 . S
C325 C319 1.491 . S
C325 C324 1.400 . S
C325 C326 1.398 . S
C326 H314 0.950 . S
C326 C325 1.398 . S
C326 C327 1.391 . S
C327 H315 0.950 . S
C327 C323 1.393 . S
C327 C326 1.391 . S
H328 C336 0.950 . S
H329 C341 0.950 . S
H330 C338 0.950 . S
H331 C340 0.950 . S
H332 C342 0.950 . S
H333 C344 0.950 . S
H334 C346 0.950 . S
H335 C347 0.950 . S
C336 H328 0.950 . S
C336 C337 1.386 . S
C336 C338 1.391 . S
C337 C336 1.386 . S
C337 C341 1.393 . S
C338 H330 0.950 . S
C338 C336 1.391 . S
C338 C339 1.400 . S
C339 C338 1.400 . S
C339 C340 1.398 . S
C339 C345 1.491 . S
C340 H331 0.950 . S
C340 C339 1.398 . S
C340 C341 1.391 . S
C341 H329 0.950 . S
C341 C337 1.393 . S
C341 C340 1.391 . S
C342 H332 0.950 . S
C342 C343 1.386 . S
C342 C344 1.391 . S
C343 C342 1.386 . S
C343 C347 1.393 . S
C344 H333 0.950 . S
C344 C342 1.391 . S
C344 C345 1.400 . S
C345 C339 1.491 . S
C345 C344 1.400 . S
C345 C346 1.398 . S
C346 H334 0.950 . S
C346 C345 1.398 . S
C346 C347 1.391 . S
C347 H335 0.950 . S
C347 C343 1.393 . S
C347 C346 1.391 . S
H348 C356 0.950 . S
H349 C361 0.950 . S
H350 C358 0.950 . S
H351 C360 0.950 . S
H352 C362 0.950 . S
H353 C364 0.950 . S
H354 C366 0.950 . S
H355 C367 0.950 . S
C356 H348 0.950 . S
C356 C357 1.386 . S
C356 C358 1.391 . S
C357 C356 1.386 . S
C357 C361 1.393 . S
C358 H350 0.950 . S
C358 C356 1.391 . S
C358 C359 1.400 . S
C359 C358 1.400 . S
C359 C360 1.398 . S
C359 C365 1.491 . S
C360 H351 0.950 . S
C360 C359 1.398 . S
C360 C361 1.391 . S
C361 H349 0.950 . S
C361 C357 1.393 . S
C361 C360 1.391 . S
C362 H352 0.950 . S
C362 C363 1.386 . S
C362 C364 1.391 . S
C363 C362 1.386 . S
C363 C367 1.393 . S
C364 H353 0.950 . S
C364 C362 1.391 . S
C364 C365 1.400 . S
C365 C359 1.491 . S
C365 C364 1.400 . S
C365 C366 1.398 . S
C366 H354 0.950 . S
C366 C365 1.398 . S
C366 C367 1.391 . S
C367 H355 0.950 . S
C367 C363 1.393 . S
C367 C366 1.391 . S
H368 C376 0.950 . S
H369 C381 0.950 . S
H370 C378 0.950 . S
H371 C380 0.950 . S
H372 C382 0.950 . S
H373 C384 0.950 . S
H374 C386 0.950 . S
H375 C387 0.950 1_545 S
C376 H368 0.950 . S
C376 C377 1.386 . S
C376 C378 1.391 . S
C377 C376 1.386 . S
C377 C381 1.393 . S
C378 H370 0.950 . S
C378 C376 1.391 . S
C378 C379 1.400 . S
C379 C378 1.400 . S
C379 C380 1.398 . S
C379 C385 1.491 . S
C380 H371 0.950 . S
C380 C379 1.398 . S
C380 C381 1.391 . S
C381 H369 0.950 . S
C381 C377 1.393 . S
C381 C380 1.391 . S
C382 H372 0.950 . S
C382 C383 1.386 . S
C382 C384 1.391 . S
C383 C382 1.386 . S
C383 C387 1.393 . S
C384 H373 0.950 . S
C384 C382 1.391 . S
C384 C385 1.400 . S
C385 C379 1.491 . S
C385 C384 1.400 . S
C385 C386 1.398 . S
C386 H374 0.950 . S
C386 C385 1.398 . S
C386 C387 1.391 . S
C387 H375 0.950 1_565 S
C387 C383 1.393 . S
C387 C386 1.391 . S
H388 C396 0.950 . S
H389 C401 0.950 . S
H390 C398 0.950 . S
H391 C400 0.950 . S
H392 C402 0.950 . S
H393 C404 0.950 . S
H394 C406 0.950 . S
H395 C407 0.950 . S
C396 H388 0.950 . S
C396 C397 1.386 . S
C396 C398 1.391 . S
C397 C396 1.386 . S
C397 C401 1.393 . S
C398 H390 0.950 . S
C398 C396 1.391 . S
C398 C399 1.400 . S
C399 C398 1.400 . S
C399 C400 1.398 . S
C399 C405 1.491 . S
C400 H391 0.950 . S
C400 C399 1.398 . S
C400 C401 1.391 . S
C401 H389 0.950 . S
C401 C397 1.393 . S
C401 C400 1.391 . S
C402 H392 0.950 . S
C402 C403 1.386 . S
C402 C404 1.391 . S
C403 C402 1.386 . S
C403 C407 1.393 . S
C404 H393 0.950 . S
C404 C402 1.391 . S
C404 C405 1.400 . S
C405 C399 1.491 . S
C405 C404 1.400 . S
C405 C406 1.398 . S
C406 H394 0.950 . S
C406 C405 1.398 . S
C406 C407 1.391 . S
C407 H395 0.950 . S
C407 C403 1.393 . S
C407 C406 1.391 . S
H408 C416 0.950 . S
H409 C421 0.950 . S
H410 C418 0.950 . S
H411 C420 0.950 . S
H412 C422 0.950 . S
H413 C424 0.950 . S
H414 C426 0.950 . S
H415 C427 0.950 . S
C416 H408 0.950 . S
C416 C417 1.386 . S
C416 C418 1.391 . S
C417 C416 1.386 . S
C417 C421 1.393 . S
C418 H410 0.950 . S
C418 C416 1.391 . S
C418 C419 1.400 . S
C419 C418 1.400 . S
C419 C420 1.398 . S
C419 C425 1.491 . S
C420 H411 0.950 . S
C420 C419 1.398 . S
C420 C421 1.391 . S
C421 H409 0.950 . S
C421 C417 1.393 . S
C421 C420 1.391 . S
C422 H412 0.950 . S
C422 C423 1.386 . S
C422 C424 1.391 1_565 S
C423 C422 1.386 . S
C423 C427 1.393 1_565 S
C424 H413 0.950 . S
C424 C422 1.391 1_545 S
C424 C425 1.400 . S
C425 C419 1.491 . S
C425 C424 1.400 . S
C425 C426 1.398 . S
C426 H414 0.950 . S
C426 C425 1.398 . S
C426 C427 1.391 . S
C427 H415 0.950 . S
C427 C423 1.393 1_545 S
C427 C426 1.391 . S
H428 C436 0.950 . S
H429 C441 0.950 . S
H430 C438 0.950 . S
H431 C440 0.950 . S
H432 C442 0.950 . S
H433 C444 0.950 . S
H434 C446 0.950 . S
H435 C447 0.950 . S
C436 H428 0.950 . S
C436 C437 1.386 . S
C436 C438 1.391 . S
C437 C436 1.386 . S
C437 C441 1.393 1_565 S
C438 H430 0.950 . S
C438 C436 1.391 . S
C438 C439 1.400 . S
C439 C438 1.400 . S
C439 C440 1.398 1_565 S
C439 C445 1.491 . S
C440 H431 0.950 . S
C440 C439 1.398 1_545 S
C440 C441 1.391 . S
C441 H429 0.950 . S
C441 C437 1.393 1_545 S
C441 C440 1.391 . S
C442 H432 0.950 . S
C442 C443 1.386 . S
C442 C444 1.391 . S
C443 C442 1.386 . S
C443 C447 1.393 . S
C444 H433 0.950 . S
C444 C442 1.391 . S
C444 C445 1.400 . S
C445 C439 1.491 . S
C445 C444 1.400 . S
C445 C446 1.398 . S
C446 H434 0.950 . S
C446 C445 1.398 . S
C446 C447 1.391 . S
C447 H435 0.950 . S
C447 C443 1.393 . S
C447 C446 1.391 . S
H448 C456 0.950 . S
H449 C461 0.950 . S
H450 C458 0.950 . S
H451 C460 0.950 . S
H452 C462 0.950 . S
H453 C464 0.950 . S
H454 C466 0.950 . S
H455 C467 0.950 . S
C456 H448 0.950 . S
C456 C457 1.386 . S
C456 C458 1.391 . S
C457 C456 1.386 . S
C457 C461 1.393 . S
C458 H450 0.950 . S
C458 C456 1.391 . S
C458 C459 1.400 . S
C459 C458 1.400 . S
C459 C460 1.398 . S
C459 C465 1.491 . S
C460 H451 0.950 . S
C460 C459 1.398 . S
C460 C461 1.391 . S
C461 H449 0.950 . S
C461 C457 1.393 . S
C461 C460 1.391 . S
C462 H452 0.950 . S
C462 C463 1.386 . S
C462 C464 1.391 . S
C463 C462 1.386 . S
C463 C467 1.393 . S
C464 H453 0.950 . S
C464 C462 1.391 . S
C464 C465 1.400 . S
C465 C459 1.491 . S
C465 C464 1.400 . S
C465 C466 1.398 . S
C466 H454 0.950 . S
C466 C465 1.398 . S
C466 C467 1.391 . S
C467 H455 0.950 . S
C467 C463 1.393 . S
C467 C466 1.391 . S
H468 C476 0.950 . S
H469 C481 0.950 . S
H470 C478 0.950 . S
H471 C480 0.950 . S
H472 C482 0.950 . S
H473 C484 0.950 . S
H474 C486 0.950 . S
H475 C487 0.950 . S
C476 H468 0.950 . S
C476 C477 1.386 . S
C476 C478 1.391 . S
C477 C476 1.386 . S
C477 C481 1.393 . S
C478 H470 0.950 . S
C478 C476 1.391 . S
C478 C479 1.400 . S
C479 C478 1.400 . S
C479 C480 1.398 . S
C479 C485 1.491 . S
C480 H471 0.950 . S
C480 C479 1.398 . S
C480 C481 1.391 . S
C481 H469 0.950 . S
C481 C477 1.393 . S
C481 C480 1.391 . S
C482 H472 0.950 . S
C482 C483 1.386 . S
C482 C484 1.391 . S
C483 C482 1.386 . S
C483 C487 1.393 . S
C484 H473 0.950 . S
C484 C482 1.391 . S
C484 C485 1.400 . S
C485 C479 1.491 . S
C485 C484 1.400 . S
C485 C486 1.398 . S
C486 H474 0.950 . S
C486 C485 1.398 . S
C486 C487 1.391 . S
C487 H475 0.950 . S
C487 C483 1.393 . S
C487 C486 1.391 . S
H488 C496 0.950 . S
H489 C501 0.950 . S
H490 C498 0.950 . S
H491 C500 0.950 . S
H492 C502 0.950 . S
H493 C504 0.950 . S
H494 C506 0.950 . S
H495 C507 0.950 . S
C496 H488 0.950 . S
C496 C497 1.386 . S
C496 C498 1.391 . S
C497 C496 1.386 . S
C497 C501 1.393 . S
C498 H490 0.950 . S
C498 C496 1.391 . S
C498 C499 1.400 . S
C499 C498 1.400 . S
C499 C500 1.398 . S
C499 C505 1.491 . S
C500 H491 0.950 . S
C500 C499 1.398 . S
C500 C501 1.391 . S
C501 H489 0.950 . S
C501 C497 1.393 . S
C501 C500 1.391 . S
C502 H492 0.950 . S
C502 C503 1.386 . S
C502 C504 1.391 . S
C503 C502 1.386 . S
C503 C507 1.393 . S
C504 H493 0.950 . S
C504 C502 1.391 . S
C504 C505 1.400 . S
C505 C499 1.491 . S
C505 C504 1.400 . S
C505 C506 1.398 . S
C506 H494 0.950 . S
C506 C505 1.398 . S
C506 C507 1.391 . S
C507 H495 0.950 . S
C507 C503 1.393 . S
C507 C506 1.391 . S
H508 C516 0.950 . S
H509 C521 0.950 . S
H510 C518 0.950 . S
H511 C520 0.950 . S
H512 C522 0.950 . S
H513 C524 0.950 . S
H514 C526 0.950 . S
H515 C527 0.950 . S
C516 H508 0.950 . S
C516 C517 1.386 . S
C516 C518 1.391 . S
C517 C516 1.386 . S
C517 C521 1.393 . S
C518 H510 0.950 . S
C518 C516 1.391 . S
C518 C519 1.400 . S
C519 C518 1.400 . S
C519 C520 1.398 . S
C519 C525 1.491 . S
C520 H511 0.950 . S
C520 C519 1.398 . S
C520 C521 1.391 . S
C521 H509 0.950 . S
C521 C517 1.393 . S
C521 C520 1.391 . S
C522 H512 0.950 . S
C522 C523 1.386 . S
C522 C524 1.391 . S
C523 C522 1.386 . S
C523 C527 1.393 . S
C524 H513 0.950 . S
C524 C522 1.391 . S
C524 C525 1.400 . S
C525 C519 1.491 . S
C525 C524 1.400 . S
C525 C526 1.398 . S
C526 H514 0.950 . S
C526 C525 1.398 . S
C526 C527 1.391 . S
C527 H515 0.950 . S
C527 C523 1.393 . S
C527 C526 1.391 . S
H528 C536 0.950 . S
H529 C541 0.950 1_545 S
H530 C538 0.950 . S
H531 C540 0.950 . S
H532 C542 0.950 . S
H533 C544 0.950 . S
H534 C546 0.950 . S
H535 C547 0.950 . S
C536 H528 0.950 . S
C536 C537 1.386 . S
C536 C538 1.391 . S
C537 C536 1.386 . S
C537 C541 1.393 . S
C538 H530 0.950 . S
C538 C536 1.391 . S
C538 C539 1.400 . S
C539 C538 1.400 . S
C539 C540 1.398 . S
C539 C545 1.491 . S
C540 H531 0.950 . S
C540 C539 1.398 . S
C540 C541 1.391 . S
C541 H529 0.950 1_565 S
C541 C537 1.393 . S
C541 C540 1.391 . S
C542 H532 0.950 . S
C542 C543 1.386 . S
C542 C544 1.391 . S
C543 C542 1.386 . S
C543 C547 1.393 . S
C544 H533 0.950 . S
C544 C542 1.391 . S
C544 C545 1.400 . S
C545 C539 1.491 . S
C545 C544 1.400 . S
C545 C546 1.398 . S
C546 H534 0.950 . S
C546 C545 1.398 . S
C546 C547 1.391 . S
C547 H535 0.950 . S
C547 C543 1.393 . S
C547 C546 1.391 . S
H548 C556 0.950 1_565 S
H549 C561 0.950 . S
H550 C558 0.950 1_565 S
H551 C560 0.950 . S
H552 C562 0.950 . S
H553 C564 0.950 . S
H554 C566 0.950 . S
H555 C567 0.950 . S
C556 H548 0.950 1_545 S
C556 C557 1.386 . S
C556 C558 1.391 . S
C557 C556 1.386 . S
C557 C561 1.393 . S
C558 H550 0.950 1_545 S
C558 C556 1.391 . S
C558 C559 1.400 . S
C559 C558 1.400 . S
C559 C560 1.398 . S
C559 C565 1.491 . S
C560 H551 0.950 . S
C560 C559 1.398 . S
C560 C561 1.391 . S
C561 H549 0.950 . S
C561 C557 1.393 . S
C561 C560 1.391 . S
C562 H552 0.950 . S
C562 C563 1.386 . S
C562 C564 1.391 . S
C563 C562 1.386 . S
C563 C567 1.393 . S
C564 H553 0.950 . S
C564 C562 1.391 . S
C564 C565 1.400 . S
C565 C559 1.491 . S
C565 C564 1.400 . S
C565 C566 1.398 . S
C566 H554 0.950 . S
C566 C565 1.398 . S
C566 C567 1.391 . S
C567 H555 0.950 . S
C567 C563 1.393 . S
C567 C566 1.391 . S
H568 C576 0.950 . S
H569 C581 0.950 . S
H570 C578 0.950 . S
H571 C580 0.950 . S
H572 C582 0.950 . S
H573 C584 0.950 . S
H574 C586 0.950 . S
H575 C587 0.950 . S
C576 H568 0.950 . S
C576 C577 1.386 . S
C576 C578 1.391 . S
C577 C576 1.386 . S
C577 C581 1.393 1_454 S
C578 H570 0.950 . S
C578 C576 1.391 . S
C578 C579 1.400 . S
C579 C578 1.400 . S
C579 C580 1.398 1_454 S
C579 C585 1.490 . S
C580 H571 0.950 . S
C580 C579 1.398 1_656 S
C580 C581 1.391 . S
C581 H569 0.950 . S
C581 C577 1.393 1_656 S
C581 C580 1.391 . S
C582 H572 0.950 . S
C582 C583 1.377 1_655 S
C582 C584 1.391 . S
C583 C582 1.377 1_455 S
C583 C587 1.403 1_556 S
C584 H573 0.950 . S
C584 C582 1.391 . S
C584 C585 1.377 1_656 S
C585 C579 1.490 . S
C585 C584 1.377 1_454 S
C585 C586 1.422 . S
C586 H574 0.950 . S
C586 C585 1.422 . S
C586 C587 1.391 . S
C587 H575 0.950 . S
C587 C583 1.403 1_554 S
C587 C586 1.391 . S
H588 C596 0.950 . S
H589 C601 0.950 . S
H590 C598 0.950 . S
H591 C600 0.950 . S
H592 C602 0.950 . S
H593 C604 0.950 . S
H594 C606 0.950 . S
H595 C607 0.950 . S
C596 H588 0.950 . S
C596 C597 1.386 . S
C596 C598 1.391 . S
C597 C596 1.386 . S
C597 C601 1.393 . S
C598 H590 0.950 . S
C598 C596 1.391 . S
C598 C599 1.400 . S
C599 C598 1.400 . S
C599 C600 1.398 . S
C599 C605 1.491 . S
C600 H591 0.950 . S
C600 C599 1.398 . S
C600 C601 1.391 . S
C601 H589 0.950 . S
C601 C597 1.393 . S
C601 C600 1.391 . S
C602 H592 0.950 . S
C602 C603 1.382 1_565 S
C602 C604 1.391 . S
C603 C602 1.382 1_545 S
C603 C607 1.389 1_545 S
C604 H593 0.950 . S
C604 C602 1.391 . S
C604 C605 1.400 . S
C605 C599 1.491 . S
C605 C604 1.400 . S
C605 C606 1.398 . S
C606 H594 0.950 . S
C606 C605 1.398 . S
C606 C607 1.391 . S
C607 H595 0.950 . S
C607 C603 1.389 1_565 S
C607 C606 1.391 . S
H608 C616 0.950 . S
H609 C621 0.950 . S
H610 C618 0.950 . S
H611 C620 0.950 . S
H612 C622 0.950 . S
H613 C624 0.950 . S
H614 C626 0.950 . S
H615 C627 0.950 . S
C616 H608 0.950 . S
C616 C617 1.389 . S
C616 C618 1.391 . S
C617 C616 1.389 . S
C617 C621 1.396 . S
C618 H610 0.950 . S
C618 C616 1.391 . S
C618 C619 1.400 . S
C619 C618 1.400 . S
C619 C620 1.398 . S
C619 C625 1.491 . S
C620 H611 0.950 . S
C620 C619 1.398 . S
C620 C621 1.391 . S
C621 H609 0.950 . S
C621 C617 1.396 . S
C621 C620 1.391 . S
C622 H612 0.950 . S
C622 C623 1.386 . S
C622 C624 1.391 . S
C623 C622 1.386 . S
C623 C627 1.393 . S
C624 H613 0.950 . S
C624 C622 1.391 . S
C624 C625 1.400 . S
C625 C619 1.491 . S
C625 C624 1.400 . S
C625 C626 1.398 . S
C626 H614 0.950 . S
C626 C625 1.398 . S
C626 C627 1.391 . S
C627 H615 0.950 . S
C627 C623 1.393 . S
C627 C626 1.391 . S
H628 C636 0.950 . S
H629 C641 0.950 . S
H630 C638 0.950 . S
H631 C640 0.950 . S
H632 C642 0.950 . S
H633 C644 0.950 . S
H634 C646 0.950 . S
H635 C647 0.950 . S
C636 H628 0.950 . S
C636 C637 1.392 . S
C636 C638 1.391 . S
C637 C636 1.392 . S
C637 C641 1.388 1_455 S
C638 H630 0.950 . S
C638 C636 1.391 . S
C638 C639 1.400 . S
C639 C638 1.400 . S
C639 C640 1.398 1_455 S
C639 C645 1.491 1_565 S
C640 H631 0.950 . S
C640 C639 1.398 1_655 S
C640 C641 1.391 . S
C641 H629 0.950 . S
C641 C637 1.388 1_655 S
C641 C640 1.391 . S
C642 H632 0.950 . S
C642 C643 1.386 1_655 S
C642 C644 1.391 . S
C643 C642 1.386 1_455 S
C643 C647 1.393 . S
C644 H633 0.950 . S
C644 C642 1.391 . S
C644 C645 1.400 1_655 S
C645 C639 1.491 1_545 S
C645 C644 1.400 1_455 S
C645 C646 1.398 . S
C646 H634 0.950 . S
C646 C645 1.398 . S
C646 C647 1.391 . S
C647 H635 0.950 . S
C647 C643 1.393 . S
C647 C646 1.391 . S
H648 C656 0.950 . S
H649 C661 0.950 . S
H650 C658 0.950 . S
H651 C660 0.950 . S
H652 C662 0.950 . S
H653 C664 0.950 . S
H654 C666 0.950 . S
H655 C667 0.950 . S
C656 H648 0.950 . S
C656 C657 1.390 . S
C656 C658 1.391 . S
C657 C656 1.390 . S
C657 C661 1.396 . S
C658 H650 0.950 . S
C658 C656 1.391 . S
C658 C659 1.400 . S
C659 C658 1.400 . S
C659 C660 1.398 . S
C659 C665 1.491 . S
C660 H651 0.950 . S
C660 C659 1.398 . S
C660 C661 1.391 . S
C661 H649 0.950 . S
C661 C657 1.396 . S
C661 C660 1.391 . S
C662 H652 0.950 . S
C662 C663 1.386 . S
C662 C664 1.391 . S
C663 C662 1.386 . S
C663 C667 1.393 . S
C664 H653 0.950 . S
C664 C662 1.391 . S
C664 C665 1.400 . S
C665 C659 1.491 . S
C665 C664 1.400 . S
C665 C666 1.398 . S
C666 H654 0.950 . S
C666 C665 1.398 . S
C666 C667 1.391 . S
C667 H655 0.950 . S
C667 C663 1.393 . S
C667 C666 1.391 . S
H668 C676 0.950 . S
H669 C681 0.950 . S
H670 C678 0.950 . S
H671 C680 0.950 . S
H672 C682 0.950 . S
H673 C684 0.950 . S
H674 C686 0.950 . S
H675 C687 0.950 . S
C676 H668 0.950 . S
C676 C677 1.386 . S
C676 C678 1.391 . S
C677 C676 1.386 . S
C677 C681 1.393 . S
C678 H670 0.950 . S
C678 C676 1.391 . S
C678 C679 1.400 . S
C679 C678 1.400 . S
C679 C680 1.398 . S
C679 C685 1.491 . S
C680 H671 0.950 . S
C680 C679 1.398 . S
C680 C681 1.391 . S
C681 H669 0.950 . S
C681 C677 1.393 . S
C681 C680 1.391 . S
C682 H672 0.950 . S
C682 C683 1.383 1_565 S
C682 C684 1.391 . S
C683 C682 1.383 1_545 S
C683 C687 1.389 1_545 S
C684 H673 0.950 . S
C684 C682 1.391 . S
C684 C685 1.400 . S
C685 C679 1.491 . S
C685 C684 1.400 . S
C685 C686 1.398 . S
C686 H674 0.950 . S
C686 C685 1.398 . S
C686 C687 1.391 . S
C687 H675 0.950 . S
C687 C683 1.389 1_565 S
C687 C686 1.391 . S
H688 C696 0.950 . S
H689 C701 0.950 . S
H690 C698 0.950 . S
H691 C700 0.950 . S
H692 C702 0.950 . S
H693 C704 0.950 . S
H694 C706 0.950 . S
H695 C707 0.950 . S
C696 H688 0.950 . S
C696 C697 1.386 . S
C696 C698 1.391 . S
C697 C696 1.386 . S
C697 C701 1.393 . S
C698 H690 0.950 . S
C698 C696 1.391 . S
C698 C699 1.400 . S
C699 C698 1.400 . S
C699 C700 1.398 . S
C699 C705 1.491 . S
C700 H691 0.950 . S
C700 C699 1.398 . S
C700 C701 1.391 . S
C701 H689 0.950 . S
C701 C697 1.393 . S
C701 C700 1.391 . S
C702 H692 0.950 . S
C702 C703 1.386 . S
C702 C704 1.391 . S
C703 C702 1.386 . S
C703 C707 1.393 . S
C704 H693 0.950 . S
C704 C702 1.391 . S
C704 C705 1.400 . S
C705 C699 1.491 . S
C705 C704 1.400 . S
C705 C706 1.398 . S
C706 H694 0.950 . S
C706 C705 1.398 . S
C706 C707 1.391 . S
C707 H695 0.950 . S
C707 C703 1.393 . S
C707 C706 1.391 . S
H708 C716 0.950 . S
H709 C721 0.950 . S
H710 C718 0.950 . S
H711 C720 0.950 . S
H712 C722 0.950 . S
H713 C724 0.950 . S
H714 C726 0.950 . S
H715 C727 0.950 . S
C716 H708 0.950 . S
C716 C717 1.413 . S
C716 C718 1.391 . S
C717 C716 1.413 . S
C717 C721 1.368 1_556 S
C718 H710 0.950 . S
C718 C716 1.391 . S
C718 C719 1.400 1_556 S
C719 C718 1.400 1_554 S
C719 C720 1.398 . S
C719 C725 1.491 1_565 S
C720 H711 0.950 . S
C720 C719 1.398 . S
C720 C721 1.391 . S
C721 H709 0.950 . S
C721 C717 1.368 1_554 S
C721 C720 1.391 . S
C722 H712 0.950 . S
C722 C723 1.386 . S
C722 C724 1.391 . S
C723 C722 1.386 . S
C723 C727 1.393 1_554 S
C724 H713 0.950 . S
C724 C722 1.391 . S
C724 C725 1.400 . S
C725 C719 1.491 1_545 S
C725 C724 1.400 . S
C725 C726 1.398 1_554 S
C726 H714 0.950 . S
C726 C725 1.398 1_556 S
C726 C727 1.391 . S
C727 H715 0.950 . S
C727 C723 1.393 1_556 S
C727 C726 1.391 . S
H728 C736 0.950 . S
H729 C741 0.950 . S
H730 C738 0.950 . S
H731 C740 0.950 . S
H732 C742 0.950 . S
H733 C744 0.950 . S
H734 C746 0.950 . S
H735 C747 0.950 . S
C736 H728 0.950 . S
C736 C737 1.386 1_554 S
C736 C738 1.391 . S
C737 C736 1.386 1_556 S
C737 C741 1.393 . S
C738 H730 0.950 . S
C738 C736 1.391 . S
C738 C739 1.426 . S
C739 C738 1.426 . S
C739 C740 1.370 1_554 S
C739 C745 1.494 . S
C740 H731 0.950 . S
C740 C739 1.370 1_556 S
C740 C741 1.391 . S
C741 H729 0.950 . S
C741 C737 1.393 . S
C741 C740 1.391 . S
C742 H732 0.950 . S
C742 C743 1.386 1_556 S
C742 C744 1.391 . S
C743 C742 1.386 1_554 S
C743 C747 1.393 . S
C744 H733 0.950 . S
C744 C742 1.391 . S
C744 C745 1.400 1_556 S
C745 C739 1.494 . S
C745 C744 1.400 1_554 S
C745 C746 1.398 . S
C746 H734 0.950 . S
C746 C745 1.398 . S
C746 C747 1.391 . S
C747 H735 0.950 . S
C747 C743 1.393 . S
C747 C746 1.391 . S
H748 C756 0.950 . S
H749 C761 0.950 . S
H750 C758 0.950 . S
H751 C760 0.950 . S
H752 C762 0.950 . S
H753 C764 0.950 . S
H754 C766 0.950 . S
H755 C767 0.950 . S
C756 H748 0.950 . S
C756 C757 1.386 . S
C756 C758 1.391 . S
C757 C756 1.386 . S
C757 C761 1.393 1_556 S
C758 H750 0.950 . S
C758 C756 1.391 . S
C758 C759 1.396 1_556 S
C759 C758 1.396 1_554 S
C759 C760 1.401 . S
C759 C765 1.491 . S
C760 H751 0.950 . S
C760 C759 1.401 . S
C760 C761 1.391 . S
C761 H749 0.950 . S
C761 C757 1.393 1_554 S
C761 C760 1.391 . S
C762 H752 0.950 . S
C762 C763 1.386 . S
C762 C764 1.391 . S
C763 C762 1.386 . S
C763 C767 1.393 1_554 S
C764 H753 0.950 . S
C764 C762 1.391 . S
C764 C765 1.400 . S
C765 C759 1.491 . S
C765 C764 1.400 . S
C765 C766 1.398 1_554 S
C766 H754 0.950 . S
C766 C765 1.398 1_556 S
C766 C767 1.391 . S
C767 H755 0.950 . S
C767 C763 1.393 1_556 S
C767 C766 1.391 . S
H768 C776 0.950 . S
H769 C781 0.950 . S
H770 C778 0.950 . S
H771 C780 0.950 . S
H772 C782 0.950 . S
H773 C784 0.950 . S
H774 C786 0.942 1_455 S
H775 C787 0.950 . S
C776 H768 0.950 . S
C776 C777 1.386 . S
C776 C778 1.391 . S
C777 C776 1.386 . S
C777 C781 1.393 . S
C778 H770 0.950 . S
C778 C776 1.391 . S
C778 C779 1.400 . S
C779 C778 1.400 . S
C779 C780 1.398 . S
C779 C785 1.491 1_455 S
C780 H771 0.950 . S
C780 C779 1.398 . S
C780 C781 1.391 . S
C781 H769 0.950 . S
C781 C777 1.393 . S
C781 C780 1.391 . S
C782 H772 0.950 . S
C782 C783 1.386 . S
C782 C784 1.391 . S
C783 C782 1.386 . S
C783 C787 1.393 . S
C784 H773 0.950 . S
C784 C782 1.391 . S
C784 C785 1.400 . S
C785 C779 1.491 1_655 S
C785 C784 1.400 . S
C785 C786 1.398 . S
C786 H774 0.942 1_655 S
C786 C785 1.398 . S
C786 C787 1.391 . S
C787 H775 0.950 . S
C787 C783 1.393 . S
C787 C786 1.391 . S
H788 C796 0.950 . S
H789 C801 0.950 . S
H790 C798 0.950 . S
H791 C800 0.950 . S
H792 C802 0.950 . S
H793 C804 0.950 . S
H794 C806 0.950 . S
H795 C807 0.950 . S
C796 H788 0.950 . S
C796 C797 1.386 . S
C796 C798 1.391 . S
C797 C796 1.386 . S
C797 C801 1.393 . S
C798 H790 0.950 . S
C798 C796 1.391 . S
C798 C799 1.400 . S
C799 C798 1.400 . S
C799 C800 1.398 . S
C799 C805 1.491 . S
C800 H791 0.950 . S
C800 C799 1.398 . S
C800 C801 1.391 . S
C801 H789 0.950 . S
C801 C797 1.393 . S
C801 C800 1.391 . S
C802 H792 0.950 . S
C802 C803 1.386 . S
C802 C804 1.391 . S
C803 C802 1.386 . S
C803 C807 1.393 . S
C804 H793 0.950 . S
C804 C802 1.391 . S
C804 C805 1.400 . S
C805 C799 1.491 . S
C805 C804 1.400 . S
C805 C806 1.398 . S
C806 H794 0.950 . S
C806 C805 1.398 . S
C806 C807 1.391 . S
C807 H795 0.950 . S
C807 C803 1.393 . S
C807 C806 1.391 . S
H808 C816 0.950 . S
H809 C821 0.950 . S
H810 C818 0.950 . S
H811 C820 0.950 . S
H812 C822 0.950 . S
H813 C824 0.950 . S
H814 C826 0.950 . S
H815 C827 0.950 . S
C816 H808 0.950 . S
C816 C817 1.386 . S
C816 C818 1.391 . S
C817 C816 1.386 . S
C817 C821 1.393 . S
C818 H810 0.950 . S
C818 C816 1.391 . S
C818 C819 1.400 . S
C819 C818 1.400 . S
C819 C820 1.398 . S
C819 C825 1.491 . S
C820 H811 0.950 . S
C820 C819 1.398 . S
C820 C821 1.391 . S
C821 H809 0.950 . S
C821 C817 1.393 . S
C821 C820 1.391 . S
C822 H812 0.950 . S
C822 C823 1.386 . S
C822 C824 1.391 . S
C823 C822 1.386 . S
C823 C827 1.393 . S
C824 H813 0.950 . S
C824 C822 1.391 . S
C824 C825 1.400 . S
C825 C819 1.491 . S
C825 C824 1.400 . S
C825 C826 1.398 . S
C826 H814 0.950 . S
C826 C825 1.398 . S
C826 C827 1.391 . S
C827 H815 0.950 . S
C827 C823 1.393 . S
C827 C826 1.391 . S
H828 C836 0.950 . S
H829 C841 0.950 1_565 S
H830 C838 0.950 . S
H831 C840 0.950 . S
H832 C842 0.950 . S
H833 C844 0.950 . S
H834 C846 0.950 . S
H835 C847 0.950 1_545 S
C836 H828 0.950 . S
C836 C837 1.386 . S
C836 C838 1.391 . S
C837 C836 1.386 . S
C837 C841 1.393 . S
C838 H830 0.950 . S
C838 C836 1.391 . S
C838 C839 1.400 . S
C839 C838 1.400 . S
C839 C840 1.398 1_545 S
C839 C845 1.491 1_645 S
C840 H831 0.950 . S
C840 C839 1.398 1_565 S
C840 C841 1.391 1_565 S
C841 H829 0.950 1_545 S
C841 C837 1.393 . S
C841 C840 1.391 1_545 S
C842 H832 0.950 . S
C842 C843 1.386 . S
C842 C844 1.391 . S
C843 C842 1.386 . S
C843 C847 1.393 . S
C844 H833 0.950 . S
C844 C842 1.391 . S
C844 C845 1.400 . S
C845 C839 1.491 1_465 S
C845 C844 1.400 . S
C845 C846 1.398 1_565 S
C846 H834 0.950 . S
C846 C845 1.398 1_545 S
C846 C847 1.391 1_545 S
C847 H835 0.950 1_565 S
C847 C843 1.393 . S
C847 C846 1.391 1_565 S
H848 C856 0.950 . S
H849 C861 0.950 . S
H850 C858 0.950 . S
H851 C860 0.950 . S
H852 C862 0.950 . S
H853 C864 0.950 . S
H854 C866 0.950 . S
H855 C867 0.950 . S
C856 H848 0.950 . S
C856 C857 1.386 . S
C856 C858 1.391 . S
C857 C856 1.386 . S
C857 C861 1.393 . S
C858 H850 0.950 . S
C858 C856 1.391 . S
C858 C859 1.400 . S
C859 C858 1.400 . S
C859 C860 1.398 . S
C859 C865 1.491 . S
C860 H851 0.950 . S
C860 C859 1.398 . S
C860 C861 1.391 . S
C861 H849 0.950 . S
C861 C857 1.393 . S
C861 C860 1.391 . S
C862 H852 0.950 . S
C862 C863 1.386 . S
C862 C864 1.391 . S
C863 C862 1.386 . S
C863 C867 1.393 . S
C864 H853 0.950 . S
C864 C862 1.391 . S
C864 C865 1.400 . S
C865 C859 1.491 . S
C865 C864 1.400 . S
C865 C866 1.398 . S
C866 H854 0.950 . S
C866 C865 1.398 . S
C866 C867 1.391 . S
C867 H855 0.950 . S
C867 C863 1.393 . S
C867 C866 1.391 . S
H868 C876 0.950 . S
H869 C881 0.950 . S
H870 C878 0.950 . S
H871 C880 0.950 1_545 S
H872 C882 0.950 . S
H873 C884 0.950 . S
H874 C886 0.950 1_565 S
H875 C887 0.950 . S
C876 H868 0.950 . S
C876 C877 1.386 . S
C876 C878 1.391 . S
C877 C876 1.386 . S
C877 C881 1.393 . S
C878 H870 0.950 . S
C878 C876 1.391 . S
C878 C879 1.400 . S
C879 C878 1.400 . S
C879 C880 1.398 . S
C879 C885 1.491 1_565 S
C880 H871 0.950 1_565 S
C880 C879 1.398 . S
C880 C881 1.391 . S
C881 H869 0.950 . S
C881 C877 1.393 . S
C881 C880 1.391 . S
C882 H872 0.950 . S
C882 C883 1.386 . S
C882 C884 1.391 . S
C883 C882 1.386 . S
C883 C887 1.393 . S
C884 H873 0.950 . S
C884 C882 1.391 . S
C884 C885 1.400 . S
C885 C879 1.491 1_545 S
C885 C884 1.400 . S
C885 C886 1.398 . S
C886 H874 0.950 1_545 S
C886 C885 1.398 . S
C886 C887 1.391 . S
C887 H875 0.950 . S
C887 C883 1.393 . S
C887 C886 1.391 . S
C257 C0 1.544 . S
C263 C49 1.587 . S
C277 C18 1.799 1_565 S
C283 C62 1.781 . S
C297 C104 1.572 . S
C303 C55 1.522 . S
C317 C73 1.790 . S
C323 C117 1.790 . S
C337 C93 1.524 . S
C343 C142 1.575 . S
C357 C155 1.778 . S
C363 C111 1.798 . S
C377 C148 1.544 . S
C383 C11 1.587 . S
C397 C166 1.797 . S
C403 C24 1.784 . S
C417 C173 1.583 . S
C423 C186 1.554 . S
C437 C204 1.789 1_565 S
C443 C124 1.790 . S
C457 C228 1.587 . S
C463 C179 1.544 . S
C477 C241 1.776 . S
C483 C135 1.802 . S
C497 C217 1.525 . S
C503 C80 1.576 . S
C517 C31 1.785 . S
C523 C235 1.796 . S
C537 C197 1.557 . S
C543 C86 1.536 . S
C557 C210 1.775 . S
C563 C42 1.803 . S
C577 C10 0.732 . S
C583 C2 0.716 1_456 S
C597 C41 0.699 . S
C603 C33 0.706 . S
C617 C72 0.726 1_545 S
C623 C64 0.731 . S
C637 C95 0.724 1_455 S
C643 C103 0.732 . S
C657 C134 0.713 1_545 S
C663 C126 0.721 . S
C677 C165 0.693 . S
C683 C157 0.699 . S
C697 C196 0.698 . S
C703 C188 0.698 . S
C717 C219 0.683 1_556 S
C723 C227 0.692 . S
C737 C244 1.485 . S
C743 C1 1.485 . S
C757 C27 1.488 . S
C763 C218 1.488 . S
C777 C58 1.488 . S
C783 C63 1.488 . S
C797 C213 1.481 . S
C803 C94 1.481 . S
C817 C120 1.491 . S
C823 C187 1.491 . S
C837 C156 1.499 . S
C843 C151 1.499 . S
C857 C182 1.488 . S
C863 C125 1.488 . S
C877 C89 1.493 . S
C883 C32 1.493 . S
