# Generated by pormake.
# Topology afi, (4)-cn, num edge types: 1
# Building blocks:
#     Node 0, Type 0, BuildingBlock: AZAVOO_clean_sbu_0, # of connection points: 4
#     Node 1, Type 0, BuildingBlock: AZAVOO_clean_sbu_0, # of connection points: 4
#     Node 2, Type 0, BuildingBlock: AZAVOO_clean_sbu_0, # of connection points: 4
#     Node 3, Type 0, BuildingBlock: AZAVOO_clean_sbu_0, # of connection points: 4
#     Node 4, Type 0, BuildingBlock: AZAVOO_clean_sbu_0, # of connection points: 4
#     Node 5, Type 0, BuildingBlock: AZAVOO_clean_sbu_0, # of connection points: 4
#     Node 6, Type 0, BuildingBlock: AZAVOO_clean_sbu_0, # of connection points: 4
#     Node 7, Type 0, BuildingBlock: AZAVOO_clean_sbu_0, # of connection points: 4
#     Node 8, Type 0, BuildingBlock: AZAVOO_clean_sbu_0, # of connection points: 4
#     Node 9, Type 0, BuildingBlock: AZAVOO_clean_sbu_0, # of connection points: 4
#     Node 10, Type 0, BuildingBlock: AZAVOO_clean_sbu_0, # of connection points: 4
#     Node 11, Type 0, BuildingBlock: AZAVOO_clean_sbu_0, # of connection points: 4
#     Node 12, Type 0, BuildingBlock: AZAVOO_clean_sbu_0, # of connection points: 4
#     Node 13, Type 0, BuildingBlock: AZAVOO_clean_sbu_0, # of connection points: 4
#     Node 14, Type 0, BuildingBlock: AZAVOO_clean_sbu_0, # of connection points: 4
#     Node 15, Type 0, BuildingBlock: AZAVOO_clean_sbu_0, # of connection points: 4
#     Node 16, Type 0, BuildingBlock: AZAVOO_clean_sbu_0, # of connection points: 4
#     Node 17, Type 0, BuildingBlock: AZAVOO_clean_sbu_0, # of connection points: 4
#     Node 18, Type 0, BuildingBlock: AZAVOO_clean_sbu_0, # of connection points: 4
#     Node 19, Type 0, BuildingBlock: AZAVOO_clean_sbu_0, # of connection points: 4
#     Node 20, Type 0, BuildingBlock: AZAVOO_clean_sbu_0, # of connection points: 4
#     Node 21, Type 0, BuildingBlock: AZAVOO_clean_sbu_0, # of connection points: 4
#     Node 22, Type 0, BuildingBlock: AZAVOO_clean_sbu_0, # of connection points: 4
#     Node 23, Type 0, BuildingBlock: AZAVOO_clean_sbu_0, # of connection points: 4
#     Edge 24, Type (0, 0), BuildingBlock: CIFDUS_clean_linker_0, # of connection points: 2
#     Edge 25, Type (0, 0), BuildingBlock: CIFDUS_clean_linker_0, # of connection points: 2
#     Edge 26, Type (0, 0), BuildingBlock: CIFDUS_clean_linker_0, # of connection points: 2
#     Edge 27, Type (0, 0), BuildingBlock: CIFDUS_clean_linker_0, # of connection points: 2
#     Edge 28, Type (0, 0), BuildingBlock: CIFDUS_clean_linker_0, # of connection points: 2
#     Edge 29, Type (0, 0), BuildingBlock: CIFDUS_clean_linker_0, # of connection points: 2
#     Edge 30, Type (0, 0), BuildingBlock: CIFDUS_clean_linker_0, # of connection points: 2
#     Edge 31, Type (0, 0), BuildingBlock: CIFDUS_clean_linker_0, # of connection points: 2
#     Edge 32, Type (0, 0), BuildingBlock: CIFDUS_clean_linker_0, # of connection points: 2
#     Edge 33, Type (0, 0), BuildingBlock: CIFDUS_clean_linker_0, # of connection points: 2
#     Edge 34, Type (0, 0), BuildingBlock: CIFDUS_clean_linker_0, # of connection points: 2
#     Edge 35, Type (0, 0), BuildingBlock: CIFDUS_clean_linker_0, # of connection points: 2
#     Edge 36, Type (0, 0), BuildingBlock: CIFDUS_clean_linker_0, # of connection points: 2
#     Edge 37, Type (0, 0), BuildingBlock: CIFDUS_clean_linker_0, # of connection points: 2
#     Edge 38, Type (0, 0), BuildingBlock: CIFDUS_clean_linker_0, # of connection points: 2
#     Edge 39, Type (0, 0), BuildingBlock: CIFDUS_clean_linker_0, # of connection points: 2
#     Edge 40, Type (0, 0), BuildingBlock: CIFDUS_clean_linker_0, # of connection points: 2
#     Edge 41, Type (0, 0), BuildingBlock: CIFDUS_clean_linker_0, # of connection points: 2
#     Edge 42, Type (0, 0), BuildingBlock: CIFDUS_clean_linker_0, # of connection points: 2
#     Edge 43, Type (0, 0), BuildingBlock: CIFDUS_clean_linker_0, # of connection points: 2
#     Edge 44, Type (0, 0), BuildingBlock: CIFDUS_clean_linker_0, # of connection points: 2
#     Edge 45, Type (0, 0), BuildingBlock: CIFDUS_clean_linker_0, # of connection points: 2
#     Edge 46, Type (0, 0), BuildingBlock: CIFDUS_clean_linker_0, # of connection points: 2
#     Edge 47, Type (0, 0), BuildingBlock: CIFDUS_clean_linker_0, # of connection points: 2
#     Edge 48, Type (0, 0), BuildingBlock: CIFDUS_clean_linker_0, # of connection points: 2
#     Edge 49, Type (0, 0), BuildingBlock: CIFDUS_clean_linker_0, # of connection points: 2
#     Edge 50, Type (0, 0), BuildingBlock: CIFDUS_clean_linker_0, # of connection points: 2
#     Edge 51, Type (0, 0), BuildingBlock: CIFDUS_clean_linker_0, # of connection points: 2
#     Edge 52, Type (0, 0), BuildingBlock: CIFDUS_clean_linker_0, # of connection points: 2
#     Edge 53, Type (0, 0), BuildingBlock: CIFDUS_clean_linker_0, # of connection points: 2
#     Edge 54, Type (0, 0), BuildingBlock: CIFDUS_clean_linker_0, # of connection points: 2
#     Edge 55, Type (0, 0), BuildingBlock: CIFDUS_clean_linker_0, # of connection points: 2
#     Edge 56, Type (0, 0), BuildingBlock: CIFDUS_clean_linker_0, # of connection points: 2
#     Edge 57, Type (0, 0), BuildingBlock: CIFDUS_clean_linker_0, # of connection points: 2
#     Edge 58, Type (0, 0), BuildingBlock: CIFDUS_clean_linker_0, # of connection points: 2
#     Edge 59, Type (0, 0), BuildingBlock: CIFDUS_clean_linker_0, # of connection points: 2
#     Edge 60, Type (0, 0), BuildingBlock: CIFDUS_clean_linker_0, # of connection points: 2
#     Edge 61, Type (0, 0), BuildingBlock: CIFDUS_clean_linker_0, # of connection points: 2
#     Edge 62, Type (0, 0), BuildingBlock: CIFDUS_clean_linker_0, # of connection points: 2
#     Edge 63, Type (0, 0), BuildingBlock: CIFDUS_clean_linker_0, # of connection points: 2
#     Edge 64, Type (0, 0), BuildingBlock: CIFDUS_clean_linker_0, # of connection points: 2
#     Edge 65, Type (0, 0), BuildingBlock: CIFDUS_clean_linker_0, # of connection points: 2
#     Edge 66, Type (0, 0), BuildingBlock: CIFDUS_clean_linker_0, # of connection points: 2
#     Edge 67, Type (0, 0), BuildingBlock: CIFDUS_clean_linker_0, # of connection points: 2
#     Edge 68, Type (0, 0), BuildingBlock: CIFDUS_clean_linker_0, # of connection points: 2
#     Edge 69, Type (0, 0), BuildingBlock: CIFDUS_clean_linker_0, # of connection points: 2
#     Edge 70, Type (0, 0), BuildingBlock: CIFDUS_clean_linker_0, # of connection points: 2
#     Edge 71, Type (0, 0), BuildingBlock: CIFDUS_clean_linker_0, # of connection points: 2
# Relax obj value: 0.098
# Max RMSD: 0.126
# Mean RMSD: 0.124
data_MOF--net-afi--node1-AZAVOO_clean_sbu_0--edge1-CIFDUS_clean_linker_0
_symmetry_space_group_name_H-M    P1
_symmetry_Int_Tables_number       1
_symmetry_cell_setting            triclinic
loop_
_symmetry_equiv_pos_as_xyz
'x, y, z'
_cell_length_a     57.448427
_cell_length_b     57.395615
_cell_length_c     37.255803
_cell_angle_alpha  90.141947
_cell_angle_beta   89.817267
_cell_angle_gamma 120.04743
loop_
_atom_site_label
_atom_site_type_symbol
_atom_site_fract_x
_atom_site_fract_y
_atom_site_fract_z
_atom_type_partial_charge
Mg0 Mg 0.44755 0.1201 0.18505 0.0
O1 O 0.47756 0.10958 0.21171 0.0
O2 O 0.46341 0.06667 0.19696 0.0
Mg3 Mg 0.4277 0.05062 0.15918 0.0
C4 C 0.47958 0.08839 0.21333 0.0
C5 C 0.47595 0.17076 0.23393 0.0
O6 O 0.46836 0.15127 0.2575 0.0
O7 O 0.46888 0.12526 0.13093 0.0
O8 O 0.45421 0.08202 0.11779 0.0
O9 O 0.4187 0.10141 0.23136 0.0
O10 O 0.41817 0.07966 0.1823 0.0
C11 C 0.46775 0.10701 0.10993 0.0
C12 C 0.40871 0.07899 0.21373 0.0
O13 O 0.47262 0.16471 0.20072 0.0
Mg14 Mg 0.32316 0.4406 0.18898 0.0
O15 O 0.36504 0.47254 0.211 0.0
O16 O 0.39312 0.45848 0.1924 0.0
Mg17 Mg 0.37178 0.42106 0.15763 0.0
C18 C 0.38844 0.47499 0.20957 0.0
C19 C 0.29985 0.46897 0.23715 0.0
O20 O 0.31145 0.46185 0.2617 0.0
O21 O 0.3353 0.45937 0.13321 0.0
O22 O 0.36308 0.44477 0.11574 0.0
O23 O 0.31646 0.41446 0.23701 0.0
O24 O 0.33515 0.41185 0.18655 0.0
C25 C 0.35059 0.45754 0.10971 0.0
C26 C 0.32854 0.40418 0.21918 0.0
O27 O 0.30322 0.46537 0.20426 0.0
Mg28 Mg 0.88687 0.33575 0.16302 0.0
O29 O 0.89433 0.3753 0.18979 0.0
O30 O 0.93449 0.40751 0.17023 0.0
Mg31 Mg 0.95275 0.38998 0.1319 0.0
C32 C 0.9133 0.39984 0.18909 0.0
C33 C 0.82458 0.29721 0.16103 0.0
O34 O 0.83089 0.29565 0.12753 0.0
O35 O 0.87747 0.34882 0.10952 0.0
O36 O 0.91898 0.37932 0.09171 0.0
O37 O 0.90955 0.32882 0.20689 0.0
O38 O 0.92793 0.35069 0.15674 0.0
C39 C 0.89368 0.36533 0.08615 0.0
C40 C 0.93088 0.34243 0.18741 0.0
O41 O 0.84298 0.31342 0.18214 0.0
Mg42 Mg 0.55716 0.89303 0.16508 0.0
O43 O 0.5209 0.89607 0.18648 0.0
O44 O 0.53043 0.93799 0.1735 0.0
Mg45 Mg 0.5709 0.96153 0.1452 0.0
C46 C 0.51488 0.91473 0.18683 0.0
C47 C 0.53116 0.83654 0.20312 0.0
O48 O 0.53613 0.85202 0.23142 0.0
O49 O 0.54177 0.89027 0.10756 0.0
O50 O 0.55353 0.93323 0.09722 0.0
O51 O 0.57954 0.91011 0.21706 0.0
O52 O 0.58214 0.93426 0.16977 0.0
C53 C 0.54355 0.90886 0.08682 0.0
C54 C 0.58869 0.93355 0.20244 0.0
O55 O 0.5355 0.84714 0.17206 0.0
Mg56 Mg 0.6761 0.55231 0.18965 0.0
O57 O 0.63542 0.51624 0.20875 0.0
O58 O 0.60428 0.5255 0.18855 0.0
Mg59 Mg 0.62285 0.56467 0.15723 0.0
C60 C 0.61087 0.51036 0.20552 0.0
C61 C 0.70926 0.53074 0.23307 0.0
O62 O 0.7018 0.53972 0.26072 0.0
O63 O 0.66752 0.53533 0.13267 0.0
O64 O 0.63649 0.54534 0.11457 0.0
O65 O 0.67788 0.57591 0.23915 0.0
O66 O 0.65936 0.57704 0.18802 0.0
C67 C 0.65174 0.53548 0.10868 0.0
C68 C 0.66436 0.58433 0.22097 0.0
O69 O 0.70021 0.53122 0.20211 0.0
Mg70 Mg 0.12276 0.66533 0.16297 0.0
O71 O 0.11552 0.62538 0.18824 0.0
O72 O 0.07563 0.5936 0.16726 0.0
Mg73 Mg 0.05754 0.61148 0.12989 0.0
C74 C 0.09659 0.60082 0.18633 0.0
C75 C 0.17294 0.6923 0.21374 0.0
O76 O 0.15378 0.67999 0.23772 0.0
O77 O 0.13297 0.65301 0.10974 0.0
O78 O 0.09205 0.62224 0.09056 0.0
O79 O 0.09995 0.67139 0.2075 0.0
O80 O 0.08164 0.64992 0.15708 0.0
C81 C 0.11747 0.63638 0.08604 0.0
C82 C 0.07858 0.65753 0.18828 0.0
O83 O 0.16683 0.68843 0.18063 0.0
Mg84 Mg 0.9005 0.56063 0.32789 0.0
O85 O 0.90956 0.5289 0.30266 0.0
O86 O 0.95175 0.54186 0.31946 0.0
Mg87 Mg 0.96877 0.57846 0.35605 0.0
C88 C 0.9303 0.52604 0.30235 0.0
C89 C 0.8456 0.53552 0.28451 0.0
O90 O 0.86211 0.54598 0.25714 0.0
O91 O 0.89459 0.54095 0.38279 0.0
O92 O 0.93699 0.55426 0.3985 0.0
O93 O 0.9202 0.58786 0.28041 0.0
O94 O 0.94111 0.5887 0.33034 0.0
C95 C 0.91181 0.54187 0.40527 0.0
C96 C 0.94241 0.59737 0.29832 0.0
O97 O 0.8553 0.5363 0.31544 0.0
Mg98 Mg 0.32525 0.88422 0.29882 0.0
O99 O 0.36769 0.8966 0.27633 0.0
O100 O 0.39434 0.93849 0.29687 0.0
Mg101 Mg 0.37157 0.95221 0.33288 0.0
C102 C 0.39065 0.91812 0.2785 0.0
C103 C 0.29084 0.82277 0.30435 0.0
O104 O 0.28777 0.83129 0.33581 0.0
O105 O 0.3379 0.87711 0.35373 0.0
O106 O 0.36415 0.91922 0.3733 0.0
O107 O 0.31779 0.904 0.25194 0.0
O108 O 0.33553 0.92438 0.30322 0.0
C109 C 0.35254 0.89378 0.37794 0.0
C110 C 0.32904 0.92594 0.27074 0.0
O111 O 0.30726 0.83999 0.28207 0.0
Mg112 Mg 0.44299 0.32651 0.31619 0.0
O113 O 0.47465 0.36819 0.29351 0.0
O114 O 0.45981 0.39625 0.30889 0.0
Mg115 Mg 0.42183 0.37497 0.34267 0.0
C116 C 0.47683 0.3915 0.29331 0.0
C117 C 0.47397 0.30585 0.26936 0.0
O118 O 0.46754 0.31835 0.24528 0.0
O119 O 0.46077 0.33987 0.37266 0.0
O120 O 0.44523 0.36762 0.38617 0.0
O121 O 0.41728 0.3187 0.26713 0.0
O122 O 0.41364 0.33766 0.31667 0.0
C123 C 0.45816 0.35568 0.39451 0.0
C124 C 0.40632 0.33047 0.28412 0.0
O125 O 0.46888 0.30755 0.30223 0.0
Mg126 Mg 0.11087 0.43887 0.31701 0.0
O127 O 0.10021 0.46843 0.28941 0.0
O128 O 0.05796 0.45558 0.30615 0.0
Mg129 Mg 0.04265 0.42119 0.34618 0.0
C130 C 0.07927 0.47089 0.28838 0.0
C131 C 0.16146 0.46553 0.26659 0.0
O132 O 0.14216 0.45694 0.24263 0.0
O133 O 0.11783 0.46226 0.36935 0.0
O134 O 0.07538 0.44918 0.38506 0.0
O135 O 0.09038 0.4089 0.27251 0.0
O136 O 0.07049 0.41022 0.32257 0.0
C137 C 0.10065 0.46264 0.39096 0.0
C138 C 0.0686 0.4 0.29136 0.0
O139 O 0.1552 0.46315 0.29971 0.0
Mg140 Mg 0.67875 0.12626 0.31138 0.0
O141 O 0.63751 0.12101 0.29505 0.0
O142 O 0.60676 0.0804 0.31537 0.0
Mg143 Mg 0.62671 0.05996 0.34391 0.0
C144 C 0.61303 0.10233 0.29909 0.0
C145 C 0.70203 0.17775 0.26395 0.0
O146 O 0.68703 0.15903 0.2406 0.0
O147 O 0.67147 0.1341 0.36932 0.0
O148 O 0.64144 0.09254 0.38749 0.0
O149 O 0.68015 0.10604 0.26086 0.0
O150 O 0.66256 0.08457 0.31158 0.0
C151 C 0.65659 0.11767 0.39368 0.0
C152 C 0.66705 0.08347 0.27796 0.0
O153 O 0.70126 0.17109 0.29669 0.0
Mg154 Mg 0.55409 0.67272 0.30884 0.0
O155 O 0.51786 0.6322 0.2903 0.0
O156 O 0.52603 0.60045 0.31112 0.0
Mg157 Mg 0.56546 0.61895 0.34202 0.0
C158 C 0.51128 0.60747 0.29402 0.0
C159 C 0.53238 0.70442 0.26316 0.0
O160 O 0.5416 0.69622 0.23659 0.0
O161 O 0.53699 0.66457 0.36583 0.0
O162 O 0.54674 0.63343 0.38453 0.0
O163 O 0.57767 0.67406 0.25966 0.0
O164 O 0.57854 0.6556 0.31101 0.0
C165 C 0.53714 0.64895 0.39014 0.0
C166 C 0.58598 0.66054 0.27808 0.0
O167 O 0.53302 0.69659 0.29489 0.0
Mg168 Mg 0.52617 0.86901 0.80787 0.0
O169 O 0.48486 0.86041 0.78942 0.0
O170 O 0.45421 0.81806 0.80309 0.0
Mg171 Mg 0.47632 0.79925 0.83124 0.0
C172 C 0.46067 0.84093 0.78954 0.0
C173 C 0.54178 0.9207 0.76466 0.0
O174 O 0.52956 0.90173 0.74044 0.0
O175 O 0.51518 0.87166 0.86604 0.0
O176 O 0.48717 0.82823 0.87891 0.0
O177 O 0.53232 0.85244 0.7564 0.0
O178 O 0.51416 0.82846 0.80537 0.0
C179 C 0.50054 0.85297 0.88825 0.0
C180 C 0.52127 0.82936 0.77249 0.0
O181 O 0.54316 0.91391 0.79674 0.0
Mg182 Mg 0.66543 0.54236 0.81881 0.0
O183 O 0.64095 0.49885 0.79876 0.0
O184 O 0.66241 0.47717 0.81535 0.0
Mg185 Mg 0.70015 0.50643 0.84653 0.0
C186 C 0.64292 0.47765 0.79969 0.0
C187 C 0.64193 0.57459 0.79228 0.0
O188 O 0.66824 0.5899 0.79219 0.0
O189 O 0.65031 0.5288 0.87567 0.0
O190 O 0.67442 0.50963 0.89152 0.0
O191 O 0.68985 0.55369 0.7689 0.0
O192 O 0.70027 0.54 0.81862 0.0
C193 C 0.65757 0.51734 0.89889 0.0
C194 C 0.70548 0.54716 0.78555 0.0
O195 O 0.6318 0.55074 0.80429 0.0
Mg196 Mg 0.12528 0.67472 0.80808 0.0
O197 O 0.14226 0.652 0.77799 0.0
O198 O 0.18513 0.66791 0.79314 0.0
Mg199 Mg 0.19633 0.7028 0.83231 0.0
C200 C 0.16412 0.65145 0.77576 0.0
C201 C 0.07804 0.6386 0.75743 0.0
O202 O 0.09756 0.65224 0.73437 0.0
O203 O 0.12398 0.65214 0.85874 0.0
O204 O 0.16756 0.67248 0.87371 0.0
O205 O 0.13942 0.70641 0.76564 0.0
O206 O 0.16325 0.70824 0.81307 0.0
C207 C 0.14284 0.65549 0.88002 0.0
C208 C 0.16158 0.71898 0.78373 0.0
O209 O 0.08299 0.64275 0.79083 0.0
Mg210 Mg 0.46596 0.13044 0.83457 0.0
O211 O 0.50653 0.14098 0.81018 0.0
O212 O 0.53487 0.18507 0.81628 0.0
Mg213 Mg 0.51199 0.20309 0.84482 0.0
C214 C 0.52961 0.16177 0.80564 0.0
C215 C 0.45242 0.07715 0.79803 0.0
O216 O 0.46336 0.09487 0.77205 0.0
O217 O 0.48329 0.13468 0.89074 0.0
O218 O 0.50829 0.17952 0.89632 0.0
O219 O 0.45299 0.13994 0.78291 0.0
O220 O 0.47353 0.16935 0.82655 0.0
C221 C 0.49824 0.15579 0.90927 0.0
C222 C 0.46335 0.16431 0.7949 0.0
O223 O 0.4517 0.08551 0.82946 0.0
Mg224 Mg 0.32218 0.44006 0.82214 0.0
O225 O 0.34577 0.48311 0.80023 0.0
O226 O 0.32637 0.50615 0.81994 0.0
Mg227 Mg 0.29173 0.47878 0.85722 0.0
C228 C 0.34432 0.50459 0.80154 0.0
C229 C 0.34706 0.41511 0.7739 0.0
O230 O 0.32221 0.40466 0.76254 0.0
O231 O 0.34223 0.45468 0.87688 0.0
O232 O 0.32113 0.47626 0.89611 0.0
O233 O 0.29344 0.42915 0.77663 0.0
O234 O 0.28794 0.44357 0.82923 0.0
C235 C 0.33778 0.46794 0.90095 0.0
C236 C 0.27998 0.43657 0.79682 0.0
O237 O 0.3546 0.43138 0.80033 0.0
Mg238 Mg 0.89177 0.33587 0.79931 0.0
O239 O 0.87542 0.36161 0.77676 0.0
O240 O 0.83235 0.34435 0.79235 0.0
Mg241 Mg 0.82074 0.30644 0.8254 0.0
C242 C 0.85358 0.36229 0.77667 0.0
C243 C 0.93929 0.37524 0.75096 0.0
O244 O 0.91947 0.36383 0.7278 0.0
O245 O 0.89343 0.35375 0.85475 0.0
O246 O 0.84972 0.33299 0.86943 0.0
O247 O 0.87691 0.30864 0.75136 0.0
O248 O 0.85338 0.3025 0.80095 0.0
C249 C 0.87447 0.34892 0.87693 0.0
C250 C 0.85462 0.29488 0.76894 0.0
O251 O 0.93446 0.36868 0.78391 0.0
Mg252 Mg 0.14315 0.47264 0.65872 0.0
O253 O 0.16076 0.51467 0.68282 0.0
O254 O 0.20447 0.53873 0.66911 0.0
Mg255 Mg 0.21516 0.5116 0.6363 0.0
C256 C 0.18337 0.53649 0.68389 0.0
C257 C 0.08102 0.45166 0.65081 0.0
O258 O 0.08577 0.4467 0.61797 0.0
O259 O 0.14425 0.49025 0.60374 0.0
O260 O 0.18821 0.51079 0.5905 0.0
O261 O 0.15501 0.45752 0.70643 0.0
O262 O 0.18047 0.47558 0.65846 0.0
C263 C 0.16391 0.50335 0.58208 0.0
C264 C 0.17747 0.46506 0.6897 0.0
O265 O 0.10055 0.46344 0.67255 0.0
Mg266 Mg 0.67771 0.12546 0.68483 0.0
O267 O 0.65365 0.14481 0.70483 0.0
O268 O 0.67409 0.18764 0.68677 0.0
Mg269 Mg 0.71144 0.19575 0.65446 0.0
C270 C 0.65508 0.16771 0.70334 0.0
C271 C 0.63699 0.0786 0.73353 0.0
O272 O 0.64985 0.0977 0.75739 0.0
O273 O 0.66168 0.12287 0.6281 0.0
O274 O 0.68508 0.16596 0.61082 0.0
O275 O 0.70399 0.14043 0.73352 0.0
O276 O 0.71257 0.1628 0.68251 0.0
C277 C 0.66834 0.14119 0.60432 0.0
C278 C 0.71912 0.162 0.71521 0.0
O279 O 0.64311 0.08384 0.70052 0.0
Mg280 Mg 0.53187 0.66454 0.68027 0.0
O281 O 0.49085 0.63067 0.69811 0.0
O282 O 0.45946 0.64013 0.68007 0.0
Mg283 Mg 0.48084 0.68032 0.64966 0.0
C284 C 0.46637 0.62486 0.69601 0.0
C285 C 0.5761 0.65354 0.70056 0.0
O286 O 0.58805 0.67952 0.69418 0.0
O287 O 0.52338 0.64886 0.62302 0.0
O288 O 0.49459 0.66203 0.60502 0.0
O289 O 0.53523 0.68748 0.73002 0.0
O290 O 0.51811 0.69178 0.67902 0.0
C291 C 0.50911 0.65135 0.59873 0.0
C292 C 0.52386 0.69841 0.71216 0.0
O293 O 0.55088 0.63947 0.69582 0.0
Mg294 Mg 0.87179 0.54495 0.67908 0.0
O295 O 0.85484 0.50179 0.69854 0.0
O296 O 0.81097 0.47791 0.68595 0.0
Mg297 Mg 0.79985 0.50615 0.65709 0.0
C298 C 0.83236 0.47981 0.69903 0.0
C299 C 0.92044 0.55088 0.72178 0.0
O300 O 0.90111 0.54045 0.74586 0.0
O301 O 0.87095 0.5304 0.62201 0.0
O302 O 0.82684 0.50901 0.6098 0.0
O303 O 0.85971 0.55633 0.73031 0.0
O304 O 0.83412 0.54101 0.68201 0.0
C305 C 0.85122 0.51744 0.60051 0.0
C306 C 0.83687 0.5488 0.71484 0.0
O307 O 0.91468 0.55405 0.68989 0.0
Mg308 Mg 0.32101 0.88529 0.66248 0.0
O309 O 0.34141 0.86362 0.68666 0.0
O310 O 0.32027 0.82081 0.66838 0.0
Mg311 Mg 0.28651 0.81533 0.63061 0.0
C312 C 0.33869 0.84016 0.68643 0.0
C313 C 0.36173 0.93124 0.71383 0.0
O314 O 0.34734 0.91311 0.73816 0.0
O315 O 0.34093 0.8875 0.60873 0.0
O316 O 0.31762 0.84465 0.59036 0.0
O317 O 0.29125 0.87064 0.70772 0.0
O318 O 0.28539 0.84922 0.65617 0.0
C319 C 0.33573 0.8692 0.58533 0.0
C320 C 0.27679 0.84978 0.6878 0.0
O321 O 0.35613 0.92559 0.68081 0.0
Mg322 Mg 0.45492 0.32236 0.67171 0.0
O323 O 0.49553 0.35339 0.69435 0.0
O324 O 0.52501 0.33936 0.68575 0.0
Mg325 Mg 0.50271 0.29859 0.65677 0.0
C326 C 0.51908 0.35667 0.69747 0.0
C327 C 0.41732 0.34636 0.66699 0.0
O328 O 0.40469 0.32507 0.64626 0.0
O329 O 0.47037 0.33623 0.61482 0.0
O330 O 0.49689 0.31837 0.60665 0.0
O331 O 0.44446 0.30003 0.72346 0.0
O332 O 0.46412 0.29197 0.67774 0.0
C333 C 0.48561 0.33123 0.59502 0.0
C334 C 0.45528 0.28681 0.71016 0.0
O335 O 0.44001 0.35208 0.67985 0.0
H336 H 0.37854 0.03181 0.17931 0.0
H337 H 0.39669 0.0674 0.28502 0.0
H338 H 0.37063 0.02266 0.31197 0.0
H339 H 0.34678 0.97349 0.30533 0.0
H340 H 0.3311 0.93809 0.1995 0.0
H341 H 0.3519 0.98289 0.1726 0.0
C342 C 0.37674 0.02981 0.20827 0.0
C343 C 0.38995 0.05279 0.23021 0.0
C344 C 0.36229 0.00411 0.22346 0.0
C345 C 0.38683 0.04998 0.2676 0.0
C346 C 0.37205 0.02442 0.28299 0.0
C347 C 0.34787 0.97555 0.27637 0.0
C348 C 0.33795 0.95253 0.25442 0.0
C349 C 0.36038 0.00134 0.26117 0.0
C350 C 0.33876 0.95549 0.21697 0.0
C351 C 0.35076 0.98109 0.2016 0.0
H352 H 0.37526 0.34772 0.31572 0.0
H353 H 0.39797 0.33178 0.21197 0.0
H354 H 0.37338 0.35105 0.18261 0.0
H355 H 0.34889 0.37581 0.18678 0.0
H356 H 0.3286 0.39403 0.29078 0.0
H357 H 0.34868 0.37018 0.31982 0.0
C358 C 0.37487 0.34845 0.28666 0.0
C359 C 0.38885 0.33883 0.26603 0.0
C360 C 0.36124 0.36004 0.27011 0.0
C361 C 0.38749 0.3392 0.22843 0.0
C362 C 0.37355 0.35032 0.21167 0.0
C363 C 0.34889 0.37463 0.21581 0.0
C364 C 0.33777 0.38717 0.23664 0.0
C365 C 0.36094 0.36139 0.23229 0.0
C366 C 0.3372 0.38473 0.27416 0.0
C367 C 0.34876 0.37118 0.29077 0.0
H368 H 0.94564 0.33794 0.25527 0.0
H369 H 0.97725 0.36453 0.14861 0.0
H370 H 0.02289 0.38195 0.17056 0.0
H371 H 0.05418 0.39353 0.22107 0.0
H372 H 0.02266 0.36793 0.3279 0.0
H373 H 0.9768 0.34579 0.30483 0.0
C374 C 0.9625 0.34729 0.23681 0.0
C375 C 0.95809 0.35047 0.20059 0.0
C376 C 0.98879 0.35744 0.24963 0.0
C377 C 0.98013 0.36241 0.17687 0.0
C378 C 0.00628 0.37226 0.18932 0.0
C379 C 0.03727 0.38257 0.2391 0.0
C380 C 0.04171 0.38253 0.27607 0.0
C381 C 0.01091 0.37045 0.22579 0.0
C382 C 0.01965 0.36843 0.29928 0.0
C383 C 0.99343 0.35583 0.28616 0.0
H384 H 0.61795 0.9833 0.17464 0.0
H385 H 0.59451 0.94071 0.27546 0.0
H386 H 0.61778 0.98362 0.30795 0.0
H387 H 0.64299 0.03325 0.30726 0.0
H388 H 0.66534 0.07519 0.2058 0.0
H389 H 0.64419 0.03232 0.17389 0.0
C390 C 0.61781 0.98335 0.20375 0.0
C391 C 0.60421 0.95891 0.22265 0.0
C392 C 0.63095 0.00793 0.22205 0.0
C393 C 0.60479 0.95929 0.26033 0.0
C394 C 0.61799 0.98379 0.27887 0.0
C395 C 0.64316 0.03302 0.27818 0.0
C396 C 0.65542 0.05741 0.25893 0.0
C397 C 0.63082 0.00825 0.25996 0.0
C398 C 0.65595 0.05674 0.22126 0.0
C399 C 0.64383 0.03223 0.20298 0.0
H400 H 0.61213 0.63888 0.31265 0.0
H401 H 0.59532 0.65703 0.20676 0.0
H402 H 0.61928 0.63604 0.17999 0.0
H403 H 0.64337 0.61114 0.18673 0.0
H404 H 0.65959 0.59229 0.29252 0.0
H405 H 0.63755 0.61523 0.31942 0.0
C406 C 0.61358 0.63816 0.2837 0.0
C407 C 0.60162 0.64917 0.26169 0.0
C408 C 0.62726 0.62598 0.26856 0.0
C409 C 0.60424 0.64861 0.22427 0.0
C410 C 0.61789 0.63657 0.20897 0.0
C411 C 0.64201 0.61193 0.2157 0.0
C412 C 0.65277 0.59969 0.23762 0.0
C413 C 0.62919 0.62494 0.23087 0.0
C414 C 0.6514 0.60147 0.27508 0.0
C415 C 0.63873 0.6145 0.29044 0.0
H416 H 0.06462 0.6614 0.25684 0.0
H417 H 0.03134 0.63359 0.15131 0.0
H418 H 0.98593 0.61465 0.17535 0.0
H419 H 0.9555 0.60267 0.22732 0.0
H420 H 0.98902 0.63003 0.33282 0.0
H421 H 0.03433 0.6528 0.30778 0.0
C422 C 0.04744 0.65142 0.23906 0.0
C423 C 0.05135 0.64841 0.20254 0.0
C424 C 0.02134 0.64047 0.25306 0.0
C425 C 0.02889 0.63564 0.17976 0.0
C426 C 0.00287 0.62491 0.19342 0.0
C427 C 0.97272 0.61406 0.24464 0.0
C428 C 0.969 0.61446 0.28182 0.0
C429 C 0.99883 0.62671 0.23017 0.0
C430 C 0.99145 0.62918 0.30408 0.0
C431 C 0.01738 0.64218 0.28984 0.0
H432 H 0.56784 0.96515 0.80748 0.0
H433 H 0.5475 0.94083 0.69695 0.0
H434 H 0.57394 0.98755 0.67769 0.0
H435 H 0.60513 0.03508 0.6917 0.0
H436 H 0.62527 0.05958 0.8022 0.0
H437 H 0.59653 0.01319 0.82184 0.0
C438 C 0.56902 0.97008 0.77921 0.0
C439 C 0.55588 0.94941 0.75373 0.0
C440 C 0.58435 0.99708 0.7682 0.0
C441 C 0.55747 0.95625 0.71721 0.0
C442 C 0.57266 0.98301 0.70609 0.0
C443 C 0.6031 0.03032 0.7201 0.0
C444 C 0.61758 0.0508 0.74535 0.0
C445 C 0.58655 0.00355 0.73128 0.0
C446 C 0.61447 0.04426 0.78209 0.0
C447 C 0.59807 0.01768 0.7934 0.0
H448 H 0.65927 0.6237 0.76353 0.0
H449 H 0.58682 0.54857 0.78573 0.0
H450 H 0.55988 0.56598 0.7582 0.0
H451 H 0.55715 0.60292 0.72795 0.0
H452 H 0.63036 0.67771 0.70659 0.0
H453 H 0.65673 0.65986 0.73345 0.0
C454 C 0.63757 0.61105 0.76248 0.0
C455 C 0.6251 0.58488 0.77676 0.0
C456 C 0.62234 0.6211 0.74656 0.0
C457 C 0.59695 0.56883 0.77503 0.0
C458 C 0.58155 0.57875 0.75921 0.0
C459 C 0.57888 0.61522 0.72898 0.0
C460 C 0.59173 0.64163 0.71523 0.0
C461 C 0.59405 0.60488 0.74482 0.0
C462 C 0.6199 0.65735 0.71697 0.0
C463 C 0.63505 0.64719 0.73239 0.0
H464 H 0.9655 0.57649 0.68014 0.0
H465 H 0.93925 0.55109 0.78902 0.0
H466 H 0.98579 0.57468 0.80941 0.0
H467 H 0.03372 0.60546 0.7972 0.0
H468 H 0.05998 0.63092 0.68836 0.0
H469 H 0.01378 0.60429 0.66722 0.0
C470 C 0.96996 0.57584 0.70827 0.0
C471 C 0.94883 0.56225 0.73302 0.0
C472 C 0.99681 0.58967 0.71995 0.0
C473 C 0.95505 0.5615 0.76935 0.0
C474 C 0.9817 0.57508 0.78111 0.0
C475 C 0.02938 0.60503 0.76882 0.0
C476 C 0.05029 0.62044 0.74451 0.0
C477 C 0.0027 0.58972 0.75679 0.0
C478 C 0.0443 0.6194 0.70776 0.0
C479 C 0.01784 0.60419 0.6956 0.0
H480 H 0.44741 0.05405 0.73279 0.0
H481 H 0.42415 0.03466 0.84383 0.0
H482 H 0.39544 0.98726 0.82784 0.0
H483 H 0.37415 0.95205 0.78158 0.0
H484 H 0.39659 0.97226 0.67042 0.0
H485 H 0.42846 0.01859 0.68733 0.0
C486 C 0.43631 0.03946 0.75364 0.0
C487 C 0.43779 0.048 0.78943 0.0
C488 C 0.4195 0.01238 0.74418 0.0
C489 C 0.42333 0.02871 0.81604 0.0
C490 C 0.40683 0.00159 0.8069 0.0
C491 C 0.38619 0.96651 0.76107 0.0
C492 C 0.38275 0.95869 0.72472 0.0
C493 C 0.4043 0.9933 0.77093 0.0
C494 C 0.39862 0.97772 0.69855 0.0
C495 C 0.41688 0.00426 0.70819 0.0
H496 H 0.33741 0.38582 0.71319 0.0
H497 H 0.39771 0.42683 0.7947 0.0
H498 H 0.42603 0.41105 0.76681 0.0
H499 H 0.43212 0.38306 0.72147 0.0
H500 H 0.37086 0.34157 0.64112 0.0
H501 H 0.3446 0.3604 0.66624 0.0
C502 C 0.3568 0.39144 0.72489 0.0
C503 C 0.36528 0.40725 0.75625 0.0
C504 C 0.37281 0.38222 0.70888 0.0
C505 C 0.39062 0.41457 0.77069 0.0
C506 C 0.4068 0.40553 0.75476 0.0
C507 C 0.4132 0.37843 0.70914 0.0
C508 C 0.40341 0.36076 0.67954 0.0
C509 C 0.39791 0.38901 0.72413 0.0
C510 C 0.37883 0.35497 0.66399 0.0
C511 C 0.36374 0.36568 0.6784 0.0
H512 H 0.06371 0.44737 0.72001 0.0
H513 H 0.03512 0.42977 0.61078 0.0
H514 H 0.98869 0.40627 0.63223 0.0
H515 H 0.95639 0.38786 0.6819 0.0
H516 H 0.98488 0.40372 0.79125 0.0
H517 H 0.03114 0.43088 0.76979 0.0
C518 C 0.04733 0.43871 0.70084 0.0
C519 C 0.05295 0.44025 0.6638 0.0
C520 C 0.02064 0.42471 0.7134 0.0
C521 C 0.03143 0.4288 0.63942 0.0
C522 C 0.00484 0.4153 0.65167 0.0
C523 C 0.97266 0.39743 0.70112 0.0
C524 C 0.96712 0.39357 0.73817 0.0
C525 C 0.99924 0.41266 0.6886 0.0
C526 C 0.98852 0.4062 0.76259 0.0
C527 C 0.01501 0.42174 0.75034 0.0
H528 H 0.48472 0.21387 0.19288 0.0
H529 H 0.48203 0.18914 0.30287 0.0
H530 H 0.48454 0.23061 0.32384 0.0
H531 H 0.48159 0.27105 0.31097 0.0
H532 H 0.48327 0.29527 0.20094 0.0
H533 H 0.48744 0.2572 0.18021 0.0
C534 C 0.4852 0.21775 0.22145 0.0
C535 C 0.48276 0.19813 0.24619 0.0
C536 C 0.48619 0.24152 0.23343 0.0
C537 C 0.4836 0.20369 0.28313 0.0
C538 C 0.48494 0.22741 0.29521 0.0
C539 C 0.48337 0.26831 0.28248 0.0
C540 C 0.48168 0.28585 0.2576 0.0
C541 C 0.48533 0.24605 0.27061 0.0
C542 C 0.48422 0.28201 0.22078 0.0
C543 C 0.48653 0.26014 0.20882 0.0
H544 H 0.20417 0.47564 0.30923 0.0
H545 H 0.18104 0.47161 0.19825 0.0
H546 H 0.22361 0.47579 0.17909 0.0
H547 H 0.26484 0.47492 0.19387 0.0
H548 H 0.28726 0.47744 0.3049 0.0
H549 H 0.24786 0.47991 0.3238 0.0
C550 C 0.20861 0.47615 0.28083 0.0
C551 C 0.18918 0.47293 0.25528 0.0
C552 C 0.23299 0.47806 0.26992 0.0
C553 C 0.19544 0.47379 0.21858 0.0
C554 C 0.2198 0.47611 0.20755 0.0
C555 C 0.26142 0.47652 0.22219 0.0
C556 C 0.27889 0.47562 0.24789 0.0
C557 C 0.23836 0.47739 0.23298 0.0
C558 C 0.27409 0.47783 0.28447 0.0
C559 C 0.25147 0.47916 0.29536 0.0
H560 H 0.71196 0.19618 0.19526 0.0
H561 H 0.74004 0.21978 0.30385 0.0
H562 H 0.7792 0.26071 0.28164 0.0
H563 H 0.80806 0.28704 0.23103 0.0
H564 H 0.78047 0.26218 0.12252 0.0
H565 H 0.73852 0.22474 0.14512 0.0
C566 C 0.72639 0.21044 0.21418 0.0
C567 C 0.72316 0.20466 0.25117 0.0
C568 C 0.74917 0.23367 0.2012 0.0
C569 C 0.74205 0.22356 0.27522 0.0
C570 C 0.76455 0.24696 0.26253 0.0
C571 C 0.7927 0.27372 0.21231 0.0
C572 C 0.79761 0.27729 0.17508 0.0
C573 C 0.76873 0.25182 0.2255 0.0
C574 C 0.77739 0.25981 0.15128 0.0
C575 C 0.75337 0.23832 0.16418 0.0
H576 H 0.52083 0.80793 0.26519 0.0
H577 H 0.52936 0.80202 0.15089 0.0
H578 H 0.52785 0.75911 0.15911 0.0
H579 H 0.52912 0.7258 0.19929 0.0
H580 H 0.5209 0.73194 0.31363 0.0
H581 H 0.517 0.77194 0.30472 0.0
C582 C 0.52196 0.79709 0.24199 0.0
C583 C 0.52558 0.80846 0.20752 0.0
C584 C 0.52137 0.7725 0.24692 0.0
C585 C 0.52672 0.79391 0.17777 0.0
C586 C 0.52598 0.76937 0.18245 0.0
C587 C 0.52609 0.73564 0.22225 0.0
C588 C 0.52569 0.726 0.25713 0.0
C589 C 0.52409 0.75886 0.21699 0.0
C590 C 0.52147 0.73893 0.28649 0.0
C591 C 0.51933 0.76192 0.28144 0.0
H592 H 0.73103 0.52439 0.29473 0.0
H593 H 0.73858 0.52498 0.17937 0.0
H594 H 0.78026 0.52382 0.18507 0.0
H595 H 0.81724 0.52789 0.22275 0.0
H596 H 0.80943 0.52668 0.33809 0.0
H597 H 0.7652 0.52247 0.33236 0.0
C598 C 0.74156 0.52384 0.27081 0.0
C599 C 0.7318 0.52518 0.2367 0.0
C600 C 0.76568 0.52328 0.27424 0.0
C601 C 0.7456 0.52412 0.20601 0.0
C602 C 0.76958 0.52358 0.20922 0.0
C603 C 0.8057 0.52628 0.24664 0.0
C604 C 0.81691 0.52801 0.28078 0.0
C605 C 0.78022 0.52397 0.24319 0.0
C606 C 0.80146 0.52555 0.31144 0.0
C607 C 0.77614 0.52327 0.30821 0.0
H608 H 0.19164 0.70711 0.2818 0.0
H609 H 0.21481 0.72726 0.17089 0.0
H610 H 0.25553 0.76817 0.18939 0.0
H611 H 0.28149 0.80108 0.23677 0.0
H612 H 0.25723 0.78111 0.34742 0.0
H613 H 0.22034 0.73731 0.32929 0.0
C614 C 0.20578 0.72019 0.26163 0.0
C615 C 0.19988 0.71426 0.22499 0.0
C616 C 0.22895 0.74395 0.27241 0.0
C617 C 0.21866 0.73137 0.1993 0.0
C618 C 0.24195 0.75488 0.20985 0.0
C619 C 0.26847 0.78694 0.25697 0.0
C620 C 0.27194 0.79459 0.29338 0.0
C621 C 0.24686 0.76183 0.2463 0.0
C622 C 0.25488 0.77593 0.31917 0.0
C623 C 0.23369 0.75084 0.30883 0.0
H624 H 0.52004 0.73775 0.67798 0.0
H625 H 0.51694 0.70491 0.7831 0.0
H626 H 0.5129 0.74147 0.81063 0.0
H627 H 0.51402 0.7844 0.80501 0.0
H628 H 0.52164 0.8198 0.7005 0.0
H629 H 0.52001 0.7804 0.67228 0.0
C630 C 0.51808 0.73842 0.70688 0.0
C631 C 0.51873 0.71874 0.72858 0.0
C632 C 0.51679 0.75999 0.72251 0.0
C633 C 0.51655 0.71994 0.76597 0.0
C634 C 0.51428 0.74081 0.78166 0.0
C635 C 0.51495 0.78335 0.776 0.0
C636 C 0.5179 0.80489 0.75478 0.0
C637 C 0.51494 0.7612 0.76022 0.0
C638 C 0.51943 0.80344 0.71732 0.0
C639 C 0.51852 0.78097 0.70124 0.0
H640 H 0.74811 0.54718 0.81611 0.0
H641 H 0.71313 0.54656 0.71348 0.0
H642 H 0.75065 0.54634 0.68274 0.0
H643 H 0.79338 0.54692 0.68512 0.0
H644 H 0.82972 0.54964 0.78739 0.0
H645 H 0.79151 0.54851 0.81844 0.0
C646 C 0.74865 0.54685 0.78702 0.0
C647 C 0.7279 0.54674 0.76701 0.0
C648 C 0.77045 0.54718 0.76959 0.0
C649 C 0.72894 0.54667 0.72938 0.0
C650 C 0.75033 0.54652 0.71183 0.0
C651 C 0.79288 0.5471 0.71423 0.0
C652 C 0.81415 0.54816 0.73403 0.0
C653 C 0.77118 0.54684 0.73169 0.0
C654 C 0.81351 0.54883 0.77166 0.0
C655 C 0.79169 0.54814 0.78935 0.0
H656 H 0.2662 0.83085 0.75606 0.0
H657 H 0.23346 0.81515 0.64901 0.0
H658 H 0.19425 0.77352 0.66929 0.0
H659 H 0.17008 0.74071 0.717 0.0
H660 H 0.20433 0.75484 0.8232 0.0
H661 H 0.24213 0.79774 0.80377 0.0
C662 C 0.25027 0.81842 0.7374 0.0
C663 C 0.25248 0.82599 0.70127 0.0
C664 C 0.22822 0.79408 0.74899 0.0
C665 C 0.23206 0.8096 0.67704 0.0
C666 C 0.2097 0.7858 0.68856 0.0
C667 C 0.18581 0.75322 0.73584 0.0
C668 C 0.18447 0.74462 0.77137 0.0
C669 C 0.20771 0.77768 0.72438 0.0
C670 C 0.20504 0.76094 0.79554 0.0
C671 C 0.22661 0.78554 0.78454 0.0
H672 H 0.45887 0.2448 0.68461 0.0
H673 H 0.45751 0.28388 0.78302 0.0
H674 H 0.4616 0.24999 0.81786 0.0
H675 H 0.46438 0.20877 0.82011 0.0
H676 H 0.4618 0.16752 0.72195 0.0
H677 H 0.46051 0.20292 0.68693 0.0
C678 C 0.45964 0.24596 0.71369 0.0
C679 C 0.45807 0.26679 0.73135 0.0
C680 C 0.46124 0.22607 0.73341 0.0
C681 C 0.45866 0.26794 0.76897 0.0
C682 C 0.46103 0.24863 0.78882 0.0
C683 C 0.46376 0.20767 0.79102 0.0
C684 C 0.4634 0.1858 0.77348 0.0
C685 C 0.4622 0.22757 0.77129 0.0
C686 C 0.46211 0.18425 0.7359 0.0
C687 C 0.46138 0.20444 0.71595 0.0
H688 H 0.18277 0.45353 0.75894 0.0
H689 H 0.2201 0.4678 0.65439 0.0
H690 H 0.25444 0.45906 0.67798 0.0
H691 H 0.27379 0.44705 0.72806 0.0
H692 H 0.23838 0.4352 0.83345 0.0
H693 H 0.20323 0.44308 0.80979 0.0
C694 C 0.19849 0.45481 0.74143 0.0
C695 C 0.19892 0.4613 0.70506 0.0
C696 C 0.21838 0.44999 0.75522 0.0
C697 C 0.21945 0.46303 0.68262 0.0
C698 C 0.23903 0.45788 0.69599 0.0
C699 C 0.25823 0.44599 0.74572 0.0
C700 C 0.25838 0.44032 0.78223 0.0
C701 C 0.23861 0.45122 0.73217 0.0
C702 C 0.2385 0.43949 0.80512 0.0
C703 C 0.21847 0.44401 0.79166 0.0
H704 H 0.81221 0.25537 0.8043 0.0
H705 H 0.84406 0.28225 0.69782 0.0
H706 H 0.80432 0.24361 0.67188 0.0
H707 H 0.76085 0.20225 0.67971 0.0
H708 H 0.73019 0.17413 0.78632 0.0
H709 H 0.76935 0.2134 0.81218 0.0
C710 C 0.8104 0.25284 0.77539 0.0
C711 C 0.83088 0.27168 0.75292 0.0
C712 C 0.78782 0.23043 0.76082 0.0
C713 C 0.82851 0.26798 0.71559 0.0
C714 C 0.80582 0.24595 0.7008 0.0
C715 C 0.76268 0.20478 0.70861 0.0
C716 C 0.74263 0.18548 0.73114 0.0
C717 C 0.78539 0.22707 0.72319 0.0
C718 C 0.74541 0.18876 0.7685 0.0
C719 C 0.76773 0.21119 0.78325 0.0
H720 H 0.49212 0.15632 0.07715 0.0
H721 H 0.47037 0.07331 0.06051 0.0
H722 H 0.48108 0.08193 -0.00287 0.0
H723 H 0.49027 0.11116 0.94503 0.0
H724 H 0.51245 0.19425 0.9611 0.0
H725 H 0.50839 0.1875 0.02587 0.0
C726 C 0.49023 0.14025 0.05983 0.0
C727 C 0.47975 0.11408 0.07353 0.0
C728 C 0.49624 0.14523 0.02308 0.0
C729 C 0.47785 0.09359 0.05069 0.0
C730 C 0.48394 0.09843 0.0143 0.0
C731 C 0.49465 0.1279 0.96273 0.0
C732 C 0.5011 0.15296 0.9482 0.0
C733 C 0.4921 0.12388 -3e-05 0.0
C734 C 0.50724 0.17462 0.97153 0.0
C735 C 0.50478 0.17078 0.00864 0.0
H736 H 0.32881 0.49093 0.95915 0.0
H737 H 0.37215 0.45119 0.925 0.0
H738 H 0.38329 0.44814 0.98738 0.0
H739 H 0.37512 0.45085 0.05131 0.0
H740 H 0.32875 0.48743 0.08528 0.0
H741 H 0.32461 0.49782 0.02294 0.0
C742 C 0.34106 0.48194 0.96514 0.0
C743 C 0.3492 0.47084 0.93737 0.0
C744 C 0.34657 0.47941 0.00105 0.0
C745 C 0.36536 0.45963 0.94579 0.0
C746 C 0.37164 0.45777 0.98149 0.0
C747 C 0.36443 0.46147 0.04527 0.0
C748 C 0.35184 0.46792 0.07298 0.0
C749 C 0.36144 0.46665 0.00934 0.0
C750 C 0.33833 0.48192 0.06451 0.0
C751 C 0.33592 0.48783 0.02885 0.0
H752 H 0.84069 0.33503 0.93417 0.0
H753 H 0.92334 0.38771 0.90265 0.0
H754 H 0.93543 0.40101 0.96516 0.0
H755 H 0.92376 0.39309 0.02862 0.0
H756 H 0.84192 0.33744 0.06063 0.0
H757 H 0.82816 0.33044 -0.00229 0.0
C758 C 0.86131 0.34975 0.94079 0.0
C759 C 0.88118 0.36004 0.91375 0.0
C760 C 0.86826 0.35668 0.97685 0.0
C761 C 0.90772 0.3792 0.92293 0.0
C762 C 0.91465 0.38681 0.95867 0.0
C763 C 0.90278 0.37974 0.02204 0.0
C764 C 0.88399 0.36544 0.0494 0.0
C765 C 0.89525 0.37498 0.98589 0.0
C766 C 0.85687 0.34851 0.04018 0.0
C767 C 0.84902 0.34438 0.00418 0.0
H768 H 0.51029 0.8598 0.05664 0.0
H769 H 0.55766 0.94449 0.03175 0.0
H770 H 0.54639 0.93498 0.96854 0.0
H771 H 0.52597 0.90251 0.91964 0.0
H772 H 0.47804 0.81779 0.94419 0.0
H773 H 0.48626 0.82758 0.008 0.0
C774 C 0.51803 0.87615 0.03738 0.0
C775 C 0.53503 0.90273 0.04892 0.0
C776 C 0.51135 0.87062 0.00091 0.0
C777 C 0.54458 0.92378 0.02368 0.0
C778 C 0.53818 0.9184 0.98743 0.0
C779 C 0.517 0.88619 0.93892 0.0
C780 C 0.50174 0.85947 0.92695 0.0
C781 C 0.52196 0.89187 0.97565 0.0
C782 C 0.49005 0.83861 0.95248 0.0
C783 C 0.49484 0.84413 0.98908 0.0
H784 H 0.62205 0.5343 0.05142 0.0
H785 H 0.68239 0.51457 0.08332 0.0
H786 H 0.68679 0.50373 0.02115 0.0
H787 H 0.67713 0.5047 0.95742 0.0
H788 H 0.61865 0.52696 0.92541 0.0
H789 H 0.60967 0.53161 0.98831 0.0
C790 C 0.63601 0.52738 0.04498 0.0
C791 C 0.65216 0.52566 0.07202 0.0
C792 C 0.63885 0.52174 0.00916 0.0
C793 C 0.66988 0.51634 0.06306 0.0
C794 C 0.67244 0.51017 0.02749 0.0
C795 C 0.66208 0.51015 0.9641 0.0
C796 C 0.64882 0.5158 0.93664 0.0
C797 C 0.65756 0.51352 0.00024 0.0
C798 C 0.62934 0.52275 0.94594 0.0
C799 C 0.62424 0.52548 0.98191 0.0
H800 H 0.17551 0.66708 0.93774 0.0
H801 H 0.09407 0.61413 0.90209 0.0
H802 H 0.0802 0.59947 0.9638 0.0
H803 H 0.08954 0.60777 0.02775 0.0
H804 H 0.17006 0.66404 0.06366 0.0
H805 H 0.18606 0.67087 0.0017 0.0
C806 C 0.15482 0.6519 0.94326 0.0
C807 C 0.13571 0.64216 0.91543 0.0
C808 C 0.14678 0.6444 0.97888 0.0
C809 C 0.10908 0.62229 0.9231 0.0
C810 C 0.10113 0.61395 0.95838 0.0
C811 C 0.11072 0.62119 0.02223 0.0
C812 C 0.12844 0.6359 0.05027 0.0
C813 C 0.11954 0.62585 0.98655 0.0
C814 C 0.15588 0.65279 0.04255 0.0
C815 C 0.16503 0.65679 0.00711 0.0
H816 H 0.89834 0.5258 0.57159 0.0
H817 H 0.81634 0.50175 0.54407 0.0
H818 H 0.82708 0.50358 0.48052 0.0
H819 H 0.86103 0.51791 0.43294 0.0
H820 H 0.94313 0.54237 0.46062 0.0
H821 H 0.93084 0.53399 0.52372 0.0
C822 C 0.88273 0.52062 0.55172 0.0
C823 C 0.85677 0.51423 0.56261 0.0
C824 C 0.88904 0.52193 0.51514 0.0
C825 C 0.83662 0.50703 0.5365 0.0
C826 C 0.84273 0.50814 0.50007 0.0
C827 C 0.87615 0.52095 0.45265 0.0
C828 C 0.90305 0.53137 0.44204 0.0
C829 C 0.86908 0.51647 0.48908 0.0
C830 C 0.9223 0.53477 0.46798 0.0
C831 C 0.91534 0.53007 0.50418 0.0
H832 H 0.32539 0.83679 0.52722 0.0
H833 H 0.37424 0.91924 0.56231 0.0
H834 H 0.38746 0.93343 0.50034 0.0
H835 H 0.3793 0.92345 0.43633 0.0
H836 H 0.32775 0.84145 0.40117 0.0
H837 H 0.32184 0.82605 0.46326 0.0
C838 C 0.33932 0.85783 0.52151 0.0
C839 C 0.34832 0.877 0.54937 0.0
C840 C 0.34613 0.86597 0.48576 0.0
C841 C 0.36668 0.90409 0.54139 0.0
C842 C 0.37418 0.91224 0.50592 0.0
C843 C 0.36711 0.90213 0.44207 0.0
C844 C 0.35349 0.88372 0.41413 0.0
C845 C 0.36309 0.89352 0.47785 0.0
C846 C 0.33818 0.85613 0.42214 0.0
C847 C 0.3347 0.8473 0.45767 0.0
H848 H 0.47362 0.36596 0.56156 0.0
H849 H 0.5026 0.31076 0.54131 0.0
H850 H 0.49937 0.31554 0.47683 0.0
H851 H 0.48324 0.33123 0.42641 0.0
H852 H 0.45478 0.38686 0.44727 0.0
H853 H 0.46323 0.38622 0.51093 0.0
C854 C 0.47957 0.35525 0.54305 0.0
C855 C 0.48789 0.33772 0.55631 0.0
C856 C 0.47758 0.35796 0.50595 0.0
C857 C 0.49596 0.32433 0.53191 0.0
C858 C 0.49402 0.32692 0.49494 0.0
C859 C 0.47928 0.34354 0.44478 0.0
C860 C 0.46784 0.35857 0.43198 0.0
C861 C 0.48407 0.34305 0.48167 0.0
C862 C 0.4632 0.3747 0.45624 0.0
C863 C 0.46798 0.37437 0.49281 0.0
H864 H 0.11603 0.49257 0.55358 0.0
H865 H 0.19882 0.52037 0.52525 0.0
H866 H 0.18701 0.51379 0.46191 0.0
H867 H 0.15202 0.49261 0.41588 0.0
H868 H 0.06917 0.4643 0.44475 0.0
H869 H 0.08235 0.47893 0.50625 0.0
C870 C 0.13161 0.49774 0.53354 0.0
C871 C 0.15807 0.50618 0.54426 0.0
C872 C 0.12465 0.49342 0.49716 0.0
C873 C 0.17814 0.51339 0.51787 0.0
C874 C 0.17141 0.5095 0.48155 0.0
C875 C 0.13691 0.49009 0.43544 0.0
C876 C 0.1096 0.47663 0.42587 0.0
C877 C 0.14452 0.49828 0.47106 0.0
C878 C 0.09034 0.47407 0.45143 0.0
C879 C 0.0978 0.48242 0.48674 0.0
H880 H 0.63051 0.08783 0.4524 0.0
H881 H 0.6859 0.16938 0.41897 0.0
H882 H 0.69184 0.18426 0.48141 0.0
H883 H 0.68469 0.17337 0.54536 0.0
H884 H 0.63108 0.09141 0.57887 0.0
H885 H 0.62081 0.07755 0.51621 0.0
C886 C 0.6437 0.10894 0.4586 0.0
C887 C 0.65799 0.12739 0.43094 0.0
C888 C 0.64742 0.11727 0.49456 0.0
C889 C 0.67482 0.15468 0.43966 0.0
C890 C 0.67825 0.16321 0.47538 0.0
C891 C 0.67044 0.15251 0.53911 0.0
C892 C 0.6589 0.13341 0.5669 0.0
C893 C 0.66515 0.14456 0.50306 0.0
C894 C 0.64042 0.10652 0.55811 0.0
C895 C 0.6346 0.09855 0.52225 0.0
H896 H 0.54057 0.62362 0.44959 0.0
H897 H 0.51091 0.67528 0.41278 0.0
H898 H 0.49703 0.67815 0.47393 0.0
H899 H 0.49638 0.66868 0.53817 0.0
H900 H 0.5284 0.61909 0.57508 0.0
H901 H 0.538 0.61246 0.51318 0.0
C902 C 0.53086 0.63536 0.45474 0.0
C903 C 0.52696 0.64937 0.42657 0.0
C904 C 0.52338 0.6373 0.48996 0.0
C905 C 0.51434 0.66444 0.43393 0.0
C906 C 0.50637 0.66607 0.4689 0.0
C907 C 0.50507 0.65606 0.53269 0.0
C908 C 0.51173 0.64444 0.56124 0.0
C909 C 0.51121 0.65295 0.49717 0.0
C910 C 0.52319 0.62835 0.55363 0.0
C911 C 0.52874 0.62461 0.51826 0.0
H912 H 0.53097 0.12992 0.22331 0.0
H913 H 0.47692 0.04661 0.24998 0.0
H914 H 0.51316 0.04418 0.28021 0.0
H915 H 0.56026 0.06456 0.29615 0.0
H916 H 0.61591 0.14709 0.26746 0.0
H917 H 0.57902 0.15096 0.24088 0.0
C918 C 0.52716 0.1114 0.2362 0.0
C919 C 0.50134 0.08847 0.23443 0.0
C920 C 0.54838 0.10991 0.25282 0.0
C921 C 0.49666 0.06448 0.25082 0.0
C922 C 0.51737 0.06305 0.26809 0.0
C923 C 0.56446 0.08353 0.28431 0.0
C924 C 0.59091 0.10548 0.28381 0.0
C925 C 0.54335 0.08547 0.26873 0.0
C926 C 0.59578 0.12981 0.26815 0.0
C927 C 0.57468 0.13205 0.25298 0.0
H928 H 0.49578 0.55471 0.28826 0.0
H929 H 0.46974 0.61153 0.26353 0.0
H930 H 0.42825 0.57522 0.23725 0.0
H931 H 0.39988 0.52706 0.21977 0.0
H932 H 0.42832 0.47193 0.24295 0.0
H933 H 0.46817 0.50781 0.27175 0.0
C934 C 0.48106 0.5593 0.2773 0.0
C935 C 0.48595 0.58588 0.27796 0.0
C936 C 0.45756 0.53852 0.26201 0.0
C937 C 0.46658 0.59128 0.26333 0.0
C938 C 0.44281 0.5705 0.24836 0.0
C939 C 0.41471 0.52297 0.23151 0.0
C940 C 0.41119 0.49691 0.22923 0.0
C941 C 0.43811 0.544 0.24741 0.0
C942 C 0.43067 0.49186 0.24416 0.0
C943 C 0.45348 0.51236 0.26064 0.0
H944 H 0.88763 0.4773 0.28172 0.0
H945 H 0.97395 0.52697 0.27331 0.0
H946 H 0.97606 0.49258 0.23766 0.0
H947 H 0.95393 0.44859 0.20917 0.0
H948 H 0.86801 0.39708 0.21866 0.0
H949 H 0.86524 0.43185 0.2537 0.0
C950 C 0.90683 0.48055 0.27192 0.0
C951 C 0.93057 0.50469 0.28023 0.0
C952 C 0.90803 0.46035 0.25174 0.0
C953 C 0.95536 0.50853 0.2676 0.0
C954 C 0.95663 0.48889 0.2471 0.0
C955 C 0.93452 0.44491 0.21875 0.0
C956 C 0.9112 0.42032 0.21106 0.0
C957 C 0.93315 0.46474 0.2391 0.0
C958 C 0.8863 0.41583 0.22421 0.0
C959 C 0.8847 0.43574 0.24416 0.0
H960 H 0.4998 0.95163 0.20006 0.0
H961 H 0.47234 0.8669 0.21122 0.0
H962 H 0.43049 0.85986 0.2388 0.0
H963 H 0.40214 0.87838 0.2612 0.0
H964 H 0.43185 0.96365 0.25115 0.0
H965 H 0.47222 0.96974 0.22139 0.0
C966 C 0.4847 0.93152 0.20833 0.0
C967 C 0.48929 0.90984 0.20348 0.0
C968 C 0.46098 0.92771 0.22437 0.0
C969 C 0.46941 0.88401 0.21467 0.0
C970 C 0.44544 0.87996 0.2304 0.0
C971 C 0.41739 0.89819 0.25216 0.0
C972 C 0.41403 0.92053 0.25847 0.0
C973 C 0.44103 0.90172 0.23553 0.0
C974 C 0.43403 0.94615 0.24691 0.0
C975 C 0.45715 0.94968 0.22984 0.0
H976 H 0.55912 0.49758 0.2138 0.0
H977 H 0.61307 0.46746 0.23528 0.0
H978 H 0.57598 0.42698 0.26274 0.0
H979 H 0.52799 0.40061 0.28176 0.0
H980 H 0.47587 0.43316 0.26143 0.0
H981 H 0.5125 0.47209 0.23206 0.0
C982 C 0.56292 0.48219 0.22427 0.0
C983 C 0.58891 0.4856 0.22233 0.0
C984 C 0.54173 0.45931 0.24022 0.0
C985 C 0.5933 0.46542 0.23645 0.0
C986 C 0.57207 0.44224 0.25209 0.0
C987 C 0.5247 0.41616 0.2706 0.0
C988 C 0.49925 0.41401 0.27384 0.0
C989 C 0.54616 0.43899 0.25423 0.0
C990 C 0.4953 0.43441 0.25956 0.0
C991 C 0.51622 0.45669 0.24271 0.0
H992 H 0.05652 0.55008 0.19933 0.0
H993 H 0.14108 0.60381 0.21862 0.0
H994 H 0.14375 0.56779 0.25016 0.0
H995 H 0.12158 0.52085 0.27291 0.0
H996 H 0.03655 0.46874 0.25498 0.0
H997 H 0.03466 0.50427 0.22183 0.0
C998 C 0.07563 0.55402 0.21028 0.0
C999 C 0.09859 0.57963 0.20645 0.0
C1000 C 0.07695 0.53341 0.22849 0.0
C1001 C 0.12306 0.58431 0.22124 0.0
C1002 C 0.12462 0.56369 0.23916 0.0
C1003 C 0.10276 0.51728 0.26137 0.0
C1004 C 0.07926 0.49221 0.26628 0.0
C1005 C 0.10166 0.53811 0.24294 0.0
C1006 C 0.05489 0.48791 0.25167 0.0
C1007 C 0.05378 0.5082 0.23273 0.0
H1008 H 0.41089 0.8026 0.76697 0.0
H1009 H 0.46358 0.88866 0.7738 0.0
H1010 H 0.43004 0.89588 0.7439 0.0
H1011 H 0.3865 0.87794 0.71424 0.0
H1012 H 0.33437 0.79196 0.70475 0.0
H1013 H 0.36697 0.78458 0.73734 0.0
C1014 C 0.41495 0.82293 0.76216 0.0
C1015 C 0.43971 0.84503 0.77266 0.0
C1016 C 0.39574 0.82698 0.74435 0.0
C1017 C 0.44474 0.87126 0.76589 0.0
C1018 C 0.42556 0.87543 0.74881 0.0
C1019 C 0.38214 0.85756 0.71945 0.0
C1020 C 0.35801 0.83555 0.70705 0.0
C1021 C 0.4011 0.85346 0.73768 0.0
C1022 C 0.35284 0.80929 0.71385 0.0
C1023 C 0.37145 0.80504 0.73253 0.0
H1024 H 0.59486 0.468 0.77289 0.0
H1025 H 0.64451 0.4317 0.78529 0.0
H1026 H 0.61093 0.39139 0.75418 0.0
H1027 H 0.56745 0.36636 0.72341 0.0
H1028 H 0.51743 0.40237 0.71249 0.0
H1029 H 0.55125 0.44283 0.74297 0.0
C1030 C 0.5984 0.45131 0.76879 0.0
C1031 C 0.62223 0.45297 0.78141 0.0
C1032 C 0.57894 0.42809 0.75107 0.0
C1033 C 0.62632 0.431 0.776 0.0
C1034 C 0.60715 0.40793 0.75811 0.0
C1035 C 0.56399 0.38309 0.72755 0.0
C1036 C 0.53995 0.3813 0.71556 0.0
C1037 C 0.5834 0.40626 0.74549 0.0
C1038 C 0.53571 0.40313 0.72149 0.0
C1039 C 0.55505 0.42632 0.73891 0.0
H1040 H 0.20653 0.64361 0.76241 0.0
H1041 H 0.12156 0.60961 0.74211 0.0
H1042 H 0.12017 0.57113 0.7125 0.0
H1043 H 0.14244 0.54626 0.69411 0.0
H1044 H 0.22753 0.58033 0.7122 0.0
H1045 H 0.22943 0.6196 0.74108 0.0
C1046 C 0.18775 0.6279 0.7513 0.0
C1047 C 0.16418 0.62952 0.75477 0.0
C1048 C 0.18701 0.60569 0.73418 0.0
C1049 C 0.14005 0.60898 0.73996 0.0
C1050 C 0.13916 0.58684 0.7231 0.0
C1051 C 0.1614 0.56221 0.70452 0.0
C1052 C 0.18474 0.56026 0.70142 0.0
C1053 C 0.16241 0.58483 0.72048 0.0
C1054 C 0.20925 0.58134 0.71439 0.0
C1055 C 0.21035 0.60379 0.73087 0.0
H1056 H 0.60754 0.12866 0.73086 0.0
H1057 H 0.6554 0.21477 0.717 0.0
H1058 H 0.62108 0.22057 0.74786 0.0
H1059 H 0.57748 0.20122 0.77882 0.0
H1060 H 0.52924 0.11496 0.79101 0.0
H1061 H 0.56378 0.10931 0.76078 0.0
C1062 C 0.61054 0.14873 0.73459 0.0
C1063 C 0.63409 0.17123 0.72166 0.0
C1064 C 0.59065 0.15193 0.7521 0.0
C1065 C 0.63747 0.19706 0.72657 0.0
C1066 C 0.61786 0.20042 0.74429 0.0
C1067 C 0.57454 0.18118 0.77498 0.0
C1068 C 0.5508 0.15859 0.78734 0.0
C1069 C 0.59438 0.178 0.7572 0.0
C1070 C 0.54727 0.13275 0.78179 0.0
C1071 C 0.56703 0.12946 0.76451 0.0
H1072 H 0.39254 0.51456 0.77476 0.0
H1073 H 0.34032 0.5483 0.78212 0.0
H1074 H 0.37284 0.58785 0.74855 0.0
H1075 H 0.41659 0.61337 0.71829 0.0
H1076 H 0.46968 0.58054 0.7136 0.0
H1077 H 0.43628 0.5401 0.74476 0.0
C1078 C 0.38821 0.5305 0.7689 0.0
C1079 C 0.36403 0.52845 0.78096 0.0
C1080 C 0.40716 0.55338 0.75005 0.0
C1081 C 0.35885 0.54942 0.77336 0.0
C1082 C 0.3774 0.57203 0.75407 0.0
C1083 C 0.42076 0.59727 0.72384 0.0
C1084 C 0.44555 0.59995 0.71355 0.0
C1085 C 0.40168 0.57428 0.74243 0.0
C1086 C 0.45078 0.57903 0.72133 0.0
C1087 C 0.43169 0.55588 0.73914 0.0
H1088 H 0.81067 0.36954 0.76536 0.0
H1089 H 0.89662 0.40759 0.74975 0.0
H1090 H 0.8975 0.44722 0.72507 0.0
H1091 H 0.8743 0.47153 0.70894 0.0
H1092 H 0.78827 0.4335 0.72244 0.0
H1093 H 0.78708 0.39344 0.74706 0.0
C1094 C 0.82958 0.38645 0.75645 0.0
C1095 C 0.85353 0.38554 0.75962 0.0
C1096 C 0.83 0.40926 0.74209 0.0
C1097 C 0.87784 0.40763 0.74768 0.0
C1098 C 0.87842 0.4304 0.73364 0.0
C1099 C 0.85527 0.45453 0.7174 0.0
C1100 C 0.83144 0.45557 0.71412 0.0
C1101 C 0.85468 0.43151 0.73098 0.0
C1102 C 0.80692 0.43321 0.72471 0.0
C1103 C 0.80622 0.41031 0.73879 0.0
loop_
_geom_bond_atom_site_label_1
_geom_bond_atom_site_label_2
_geom_bond_distance
_geom_bond_site_symmetry_2
_ccdc_geom_bond_type
Mg0 O1 2.028 . S
Mg0 O7 1.986 . S
Mg0 O9 2.114 . S
Mg0 O10 2.251 . S
Mg0 O13 2.010 . S
O1 Mg0 2.028 . S
O1 C4 1.250 . S
O2 Mg3 2.028 . S
O2 C4 1.248 . S
Mg3 O2 2.028 . S
Mg3 O8 2.032 . S
Mg3 O10 2.079 . S
C4 O1 1.250 . S
C4 O2 1.248 . S
C5 O6 1.264 . S
C5 O13 1.249 . S
O6 C5 1.264 . S
O7 Mg0 1.986 . S
O7 C11 1.246 . S
O8 Mg3 2.032 . S
O8 C11 1.259 . S
O9 Mg0 2.114 . S
O9 C12 1.252 . S
O10 Mg0 2.251 . S
O10 Mg3 2.079 . S
O10 C12 1.273 . S
C11 O7 1.246 . S
C11 O8 1.259 . S
C12 O9 1.252 . S
C12 O10 1.273 . S
O13 Mg0 2.010 . S
O13 C5 1.249 . S
Mg14 O15 2.028 . S
Mg14 O21 1.986 . S
Mg14 O23 2.114 . S
Mg14 O24 2.251 . S
Mg14 O27 2.010 . S
O15 Mg14 2.028 . S
O15 C18 1.250 . S
O16 Mg17 2.028 . S
O16 C18 1.248 . S
Mg17 O16 2.028 . S
Mg17 O22 2.032 . S
Mg17 O24 2.079 . S
C18 O15 1.250 . S
C18 O16 1.248 . S
C19 O20 1.264 . S
C19 O27 1.249 . S
O20 C19 1.264 . S
O21 Mg14 1.986 . S
O21 C25 1.246 . S
O22 Mg17 2.032 . S
O22 C25 1.259 . S
O23 Mg14 2.114 . S
O23 C26 1.252 . S
O24 Mg14 2.251 . S
O24 Mg17 2.079 . S
O24 C26 1.273 . S
C25 O21 1.246 . S
C25 O22 1.259 . S
C26 O23 1.252 . S
C26 O24 1.273 . S
O27 Mg14 2.010 . S
O27 C19 1.249 . S
Mg28 O29 2.028 . S
Mg28 O35 1.986 . S
Mg28 O37 2.114 . S
Mg28 O38 2.251 . S
Mg28 O41 2.010 . S
O29 Mg28 2.028 . S
O29 C32 1.250 . S
O30 Mg31 2.028 . S
O30 C32 1.248 . S
Mg31 O30 2.028 . S
Mg31 O36 2.032 . S
Mg31 O38 2.079 . S
C32 O29 1.250 . S
C32 O30 1.248 . S
C33 O34 1.264 . S
C33 O41 1.249 . S
O34 C33 1.264 . S
O35 Mg28 1.986 . S
O35 C39 1.246 . S
O36 Mg31 2.032 . S
O36 C39 1.259 . S
O37 Mg28 2.114 . S
O37 C40 1.252 . S
O38 Mg28 2.251 . S
O38 Mg31 2.079 . S
O38 C40 1.273 . S
C39 O35 1.246 . S
C39 O36 1.259 . S
C40 O37 1.252 . S
C40 O38 1.273 . S
O41 Mg28 2.010 . S
O41 C33 1.249 . S
Mg42 O43 2.028 . S
Mg42 O49 1.986 . S
Mg42 O51 2.114 . S
Mg42 O52 2.251 . S
Mg42 O55 2.010 . S
O43 Mg42 2.028 . S
O43 C46 1.250 . S
O44 Mg45 2.028 . S
O44 C46 1.248 . S
Mg45 O44 2.028 . S
Mg45 O50 2.032 . S
Mg45 O52 2.079 . S
C46 O43 1.250 . S
C46 O44 1.248 . S
C47 O48 1.264 . S
C47 O55 1.249 . S
O48 C47 1.264 . S
O49 Mg42 1.986 . S
O49 C53 1.246 . S
O50 Mg45 2.032 . S
O50 C53 1.259 . S
O51 Mg42 2.114 . S
O51 C54 1.252 . S
O52 Mg42 2.251 . S
O52 Mg45 2.079 . S
O52 C54 1.273 . S
C53 O49 1.246 . S
C53 O50 1.259 . S
C54 O51 1.252 . S
C54 O52 1.273 . S
O55 Mg42 2.010 . S
O55 C47 1.249 . S
Mg56 O57 2.028 . S
Mg56 O63 1.986 . S
Mg56 O65 2.114 . S
Mg56 O66 2.251 . S
Mg56 O69 2.010 . S
O57 Mg56 2.028 . S
O57 C60 1.250 . S
O58 Mg59 2.028 . S
O58 C60 1.248 . S
Mg59 O58 2.028 . S
Mg59 O64 2.032 . S
Mg59 O66 2.079 . S
C60 O57 1.250 . S
C60 O58 1.248 . S
C61 O62 1.264 . S
C61 O69 1.249 . S
O62 C61 1.264 . S
O63 Mg56 1.986 . S
O63 C67 1.246 . S
O64 Mg59 2.032 . S
O64 C67 1.259 . S
O65 Mg56 2.114 . S
O65 C68 1.252 . S
O66 Mg56 2.251 . S
O66 Mg59 2.079 . S
O66 C68 1.273 . S
C67 O63 1.246 . S
C67 O64 1.259 . S
C68 O65 1.252 . S
C68 O66 1.273 . S
O69 Mg56 2.010 . S
O69 C61 1.249 . S
Mg70 O71 2.028 . S
Mg70 O77 1.986 . S
Mg70 O79 2.114 . S
Mg70 O80 2.251 . S
Mg70 O83 2.010 . S
O71 Mg70 2.028 . S
O71 C74 1.250 . S
O72 Mg73 2.028 . S
O72 C74 1.248 . S
Mg73 O72 2.028 . S
Mg73 O78 2.032 . S
Mg73 O80 2.079 . S
C74 O71 1.250 . S
C74 O72 1.248 . S
C75 O76 1.264 . S
C75 O83 1.249 . S
O76 C75 1.264 . S
O77 Mg70 1.986 . S
O77 C81 1.246 . S
O78 Mg73 2.032 . S
O78 C81 1.259 . S
O79 Mg70 2.114 . S
O79 C82 1.252 . S
O80 Mg70 2.251 . S
O80 Mg73 2.079 . S
O80 C82 1.273 . S
C81 O77 1.246 . S
C81 O78 1.259 . S
C82 O79 1.252 . S
C82 O80 1.273 . S
O83 Mg70 2.010 . S
O83 C75 1.249 . S
Mg84 O85 2.028 . S
Mg84 O91 1.986 . S
Mg84 O93 2.114 . S
Mg84 O94 2.251 . S
Mg84 O97 2.010 . S
O85 Mg84 2.028 . S
O85 C88 1.250 . S
O86 Mg87 2.028 . S
O86 C88 1.248 . S
Mg87 O86 2.028 . S
Mg87 O92 2.032 . S
Mg87 O94 2.079 . S
C88 O85 1.250 . S
C88 O86 1.248 . S
C89 O90 1.264 . S
C89 O97 1.249 . S
O90 C89 1.264 . S
O91 Mg84 1.986 . S
O91 C95 1.246 . S
O92 Mg87 2.032 . S
O92 C95 1.259 . S
O93 Mg84 2.114 . S
O93 C96 1.252 . S
O94 Mg84 2.251 . S
O94 Mg87 2.079 . S
O94 C96 1.273 . S
C95 O91 1.246 . S
C95 O92 1.259 . S
C96 O93 1.252 . S
C96 O94 1.273 . S
O97 Mg84 2.010 . S
O97 C89 1.249 . S
Mg98 O99 2.028 . S
Mg98 O105 1.986 . S
Mg98 O107 2.114 . S
Mg98 O108 2.251 . S
Mg98 O111 2.010 . S
O99 Mg98 2.028 . S
O99 C102 1.250 . S
O100 Mg101 2.028 . S
O100 C102 1.248 . S
Mg101 O100 2.028 . S
Mg101 O106 2.032 . S
Mg101 O108 2.079 . S
C102 O99 1.250 . S
C102 O100 1.248 . S
C103 O104 1.264 . S
C103 O111 1.249 . S
O104 C103 1.264 . S
O105 Mg98 1.986 . S
O105 C109 1.246 . S
O106 Mg101 2.032 . S
O106 C109 1.259 . S
O107 Mg98 2.114 . S
O107 C110 1.252 . S
O108 Mg98 2.251 . S
O108 Mg101 2.079 . S
O108 C110 1.273 . S
C109 O105 1.246 . S
C109 O106 1.259 . S
C110 O107 1.252 . S
C110 O108 1.273 . S
O111 Mg98 2.010 . S
O111 C103 1.249 . S
Mg112 O113 2.028 . S
Mg112 O119 1.986 . S
Mg112 O121 2.114 . S
Mg112 O122 2.251 . S
Mg112 O125 2.010 . S
O113 Mg112 2.028 . S
O113 C116 1.250 . S
O114 Mg115 2.028 . S
O114 C116 1.248 . S
Mg115 O114 2.028 . S
Mg115 O120 2.032 . S
Mg115 O122 2.079 . S
C116 O113 1.250 . S
C116 O114 1.248 . S
C117 O118 1.264 . S
C117 O125 1.249 . S
O118 C117 1.264 . S
O119 Mg112 1.986 . S
O119 C123 1.246 . S
O120 Mg115 2.032 . S
O120 C123 1.259 . S
O121 Mg112 2.114 . S
O121 C124 1.252 . S
O122 Mg112 2.251 . S
O122 Mg115 2.079 . S
O122 C124 1.273 . S
C123 O119 1.246 . S
C123 O120 1.259 . S
C124 O121 1.252 . S
C124 O122 1.273 . S
O125 Mg112 2.010 . S
O125 C117 1.249 . S
Mg126 O127 2.028 . S
Mg126 O133 1.986 . S
Mg126 O135 2.114 . S
Mg126 O136 2.251 . S
Mg126 O139 2.010 . S
O127 Mg126 2.028 . S
O127 C130 1.250 . S
O128 Mg129 2.028 . S
O128 C130 1.248 . S
Mg129 O128 2.028 . S
Mg129 O134 2.032 . S
Mg129 O136 2.079 . S
C130 O127 1.250 . S
C130 O128 1.248 . S
C131 O132 1.264 . S
C131 O139 1.249 . S
O132 C131 1.264 . S
O133 Mg126 1.986 . S
O133 C137 1.246 . S
O134 Mg129 2.032 . S
O134 C137 1.259 . S
O135 Mg126 2.114 . S
O135 C138 1.252 . S
O136 Mg126 2.251 . S
O136 Mg129 2.079 . S
O136 C138 1.273 . S
C137 O133 1.246 . S
C137 O134 1.259 . S
C138 O135 1.252 . S
C138 O136 1.273 . S
O139 Mg126 2.010 . S
O139 C131 1.249 . S
Mg140 O141 2.028 . S
Mg140 O147 1.986 . S
Mg140 O149 2.114 . S
Mg140 O150 2.251 . S
Mg140 O153 2.010 . S
O141 Mg140 2.028 . S
O141 C144 1.250 . S
O142 Mg143 2.028 . S
O142 C144 1.248 . S
Mg143 O142 2.028 . S
Mg143 O148 2.032 . S
Mg143 O150 2.079 . S
C144 O141 1.250 . S
C144 O142 1.248 . S
C145 O146 1.264 . S
C145 O153 1.249 . S
O146 C145 1.264 . S
O147 Mg140 1.986 . S
O147 C151 1.246 . S
O148 Mg143 2.032 . S
O148 C151 1.259 . S
O149 Mg140 2.114 . S
O149 C152 1.252 . S
O150 Mg140 2.251 . S
O150 Mg143 2.079 . S
O150 C152 1.273 . S
C151 O147 1.246 . S
C151 O148 1.259 . S
C152 O149 1.252 . S
C152 O150 1.273 . S
O153 Mg140 2.010 . S
O153 C145 1.249 . S
Mg154 O155 2.028 . S
Mg154 O161 1.986 . S
Mg154 O163 2.114 . S
Mg154 O164 2.251 . S
Mg154 O167 2.010 . S
O155 Mg154 2.028 . S
O155 C158 1.250 . S
O156 Mg157 2.028 . S
O156 C158 1.248 . S
Mg157 O156 2.028 . S
Mg157 O162 2.032 . S
Mg157 O164 2.079 . S
C158 O155 1.250 . S
C158 O156 1.248 . S
C159 O160 1.264 . S
C159 O167 1.249 . S
O160 C159 1.264 . S
O161 Mg154 1.986 . S
O161 C165 1.246 . S
O162 Mg157 2.032 . S
O162 C165 1.259 . S
O163 Mg154 2.114 . S
O163 C166 1.252 . S
O164 Mg154 2.251 . S
O164 Mg157 2.079 . S
O164 C166 1.273 . S
C165 O161 1.246 . S
C165 O162 1.259 . S
C166 O163 1.252 . S
C166 O164 1.273 . S
O167 Mg154 2.010 . S
O167 C159 1.249 . S
Mg168 O169 2.028 . S
Mg168 O175 1.986 . S
Mg168 O177 2.114 . S
Mg168 O178 2.251 . S
Mg168 O181 2.010 . S
O169 Mg168 2.028 . S
O169 C172 1.250 . S
O170 Mg171 2.028 . S
O170 C172 1.248 . S
Mg171 O170 2.028 . S
Mg171 O176 2.032 . S
Mg171 O178 2.079 . S
C172 O169 1.250 . S
C172 O170 1.248 . S
C173 O174 1.264 . S
C173 O181 1.249 . S
O174 C173 1.264 . S
O175 Mg168 1.986 . S
O175 C179 1.246 . S
O176 Mg171 2.032 . S
O176 C179 1.259 . S
O177 Mg168 2.114 . S
O177 C180 1.252 . S
O178 Mg168 2.251 . S
O178 Mg171 2.079 . S
O178 C180 1.273 . S
C179 O175 1.246 . S
C179 O176 1.259 . S
C180 O177 1.252 . S
C180 O178 1.273 . S
O181 Mg168 2.010 . S
O181 C173 1.249 . S
Mg182 O183 2.028 . S
Mg182 O189 1.986 . S
Mg182 O191 2.114 . S
Mg182 O192 2.251 . S
Mg182 O195 2.010 . S
O183 Mg182 2.028 . S
O183 C186 1.250 . S
O184 Mg185 2.028 . S
O184 C186 1.248 . S
Mg185 O184 2.028 . S
Mg185 O190 2.032 . S
Mg185 O192 2.079 . S
C186 O183 1.250 . S
C186 O184 1.248 . S
C187 O188 1.264 . S
C187 O195 1.249 . S
O188 C187 1.264 . S
O189 Mg182 1.986 . S
O189 C193 1.246 . S
O190 Mg185 2.032 . S
O190 C193 1.259 . S
O191 Mg182 2.114 . S
O191 C194 1.252 . S
O192 Mg182 2.251 . S
O192 Mg185 2.079 . S
O192 C194 1.273 . S
C193 O189 1.246 . S
C193 O190 1.259 . S
C194 O191 1.252 . S
C194 O192 1.273 . S
O195 Mg182 2.010 . S
O195 C187 1.249 . S
Mg196 O197 2.028 . S
Mg196 O203 1.986 . S
Mg196 O205 2.114 . S
Mg196 O206 2.251 . S
Mg196 O209 2.010 . S
O197 Mg196 2.028 . S
O197 C200 1.250 . S
O198 Mg199 2.028 . S
O198 C200 1.248 . S
Mg199 O198 2.028 . S
Mg199 O204 2.032 . S
Mg199 O206 2.079 . S
C200 O197 1.250 . S
C200 O198 1.248 . S
C201 O202 1.264 . S
C201 O209 1.249 . S
O202 C201 1.264 . S
O203 Mg196 1.986 . S
O203 C207 1.246 . S
O204 Mg199 2.032 . S
O204 C207 1.259 . S
O205 Mg196 2.114 . S
O205 C208 1.252 . S
O206 Mg196 2.251 . S
O206 Mg199 2.079 . S
O206 C208 1.273 . S
C207 O203 1.246 . S
C207 O204 1.259 . S
C208 O205 1.252 . S
C208 O206 1.273 . S
O209 Mg196 2.010 . S
O209 C201 1.249 . S
Mg210 O211 2.028 . S
Mg210 O217 1.986 . S
Mg210 O219 2.114 . S
Mg210 O220 2.251 . S
Mg210 O223 2.010 . S
O211 Mg210 2.028 . S
O211 C214 1.250 . S
O212 Mg213 2.028 . S
O212 C214 1.248 . S
Mg213 O212 2.028 . S
Mg213 O218 2.032 . S
Mg213 O220 2.079 . S
C214 O211 1.250 . S
C214 O212 1.248 . S
C215 O216 1.264 . S
C215 O223 1.249 . S
O216 C215 1.264 . S
O217 Mg210 1.986 . S
O217 C221 1.246 . S
O218 Mg213 2.032 . S
O218 C221 1.259 . S
O219 Mg210 2.114 . S
O219 C222 1.252 . S
O220 Mg210 2.251 . S
O220 Mg213 2.079 . S
O220 C222 1.273 . S
C221 O217 1.246 . S
C221 O218 1.259 . S
C222 O219 1.252 . S
C222 O220 1.273 . S
O223 Mg210 2.010 . S
O223 C215 1.249 . S
Mg224 O225 2.028 . S
Mg224 O231 1.986 . S
Mg224 O233 2.114 . S
Mg224 O234 2.251 . S
Mg224 O237 2.010 . S
O225 Mg224 2.028 . S
O225 C228 1.250 . S
O226 Mg227 2.028 . S
O226 C228 1.248 . S
Mg227 O226 2.028 . S
Mg227 O232 2.032 . S
Mg227 O234 2.079 . S
C228 O225 1.250 . S
C228 O226 1.248 . S
C229 O230 1.264 . S
C229 O237 1.249 . S
O230 C229 1.264 . S
O231 Mg224 1.986 . S
O231 C235 1.246 . S
O232 Mg227 2.032 . S
O232 C235 1.259 . S
O233 Mg224 2.114 . S
O233 C236 1.252 . S
O234 Mg224 2.251 . S
O234 Mg227 2.079 . S
O234 C236 1.273 . S
C235 O231 1.246 . S
C235 O232 1.259 . S
C236 O233 1.252 . S
C236 O234 1.273 . S
O237 Mg224 2.010 . S
O237 C229 1.249 . S
Mg238 O239 2.028 . S
Mg238 O245 1.986 . S
Mg238 O247 2.114 . S
Mg238 O248 2.251 . S
Mg238 O251 2.010 . S
O239 Mg238 2.028 . S
O239 C242 1.250 . S
O240 Mg241 2.028 . S
O240 C242 1.248 . S
Mg241 O240 2.028 . S
Mg241 O246 2.032 . S
Mg241 O248 2.079 . S
C242 O239 1.250 . S
C242 O240 1.248 . S
C243 O244 1.264 . S
C243 O251 1.249 . S
O244 C243 1.264 . S
O245 Mg238 1.986 . S
O245 C249 1.246 . S
O246 Mg241 2.032 . S
O246 C249 1.259 . S
O247 Mg238 2.114 . S
O247 C250 1.252 . S
O248 Mg238 2.251 . S
O248 Mg241 2.079 . S
O248 C250 1.273 . S
C249 O245 1.246 . S
C249 O246 1.259 . S
C250 O247 1.252 . S
C250 O248 1.273 . S
O251 Mg238 2.010 . S
O251 C243 1.249 . S
Mg252 O253 2.028 . S
Mg252 O259 1.986 . S
Mg252 O261 2.114 . S
Mg252 O262 2.251 . S
Mg252 O265 2.010 . S
O253 Mg252 2.028 . S
O253 C256 1.250 . S
O254 Mg255 2.028 . S
O254 C256 1.248 . S
Mg255 O254 2.028 . S
Mg255 O260 2.032 . S
Mg255 O262 2.079 . S
C256 O253 1.250 . S
C256 O254 1.248 . S
C257 O258 1.264 . S
C257 O265 1.249 . S
O258 C257 1.264 . S
O259 Mg252 1.986 . S
O259 C263 1.246 . S
O260 Mg255 2.032 . S
O260 C263 1.259 . S
O261 Mg252 2.114 . S
O261 C264 1.252 . S
O262 Mg252 2.251 . S
O262 Mg255 2.079 . S
O262 C264 1.273 . S
C263 O259 1.246 . S
C263 O260 1.259 . S
C264 O261 1.252 . S
C264 O262 1.273 . S
O265 Mg252 2.010 . S
O265 C257 1.249 . S
Mg266 O267 2.028 . S
Mg266 O273 1.986 . S
Mg266 O275 2.114 . S
Mg266 O276 2.251 . S
Mg266 O279 2.010 . S
O267 Mg266 2.028 . S
O267 C270 1.250 . S
O268 Mg269 2.028 . S
O268 C270 1.248 . S
Mg269 O268 2.028 . S
Mg269 O274 2.032 . S
Mg269 O276 2.079 . S
C270 O267 1.250 . S
C270 O268 1.248 . S
C271 O272 1.264 . S
C271 O279 1.249 . S
O272 C271 1.264 . S
O273 Mg266 1.986 . S
O273 C277 1.246 . S
O274 Mg269 2.032 . S
O274 C277 1.259 . S
O275 Mg266 2.114 . S
O275 C278 1.252 . S
O276 Mg266 2.251 . S
O276 Mg269 2.079 . S
O276 C278 1.273 . S
C277 O273 1.246 . S
C277 O274 1.259 . S
C278 O275 1.252 . S
C278 O276 1.273 . S
O279 Mg266 2.010 . S
O279 C271 1.249 . S
Mg280 O281 2.028 . S
Mg280 O287 1.986 . S
Mg280 O289 2.114 . S
Mg280 O290 2.251 . S
Mg280 O293 2.010 . S
O281 Mg280 2.028 . S
O281 C284 1.250 . S
O282 Mg283 2.028 . S
O282 C284 1.248 . S
Mg283 O282 2.028 . S
Mg283 O288 2.032 . S
Mg283 O290 2.079 . S
C284 O281 1.250 . S
C284 O282 1.248 . S
C285 O286 1.264 . S
C285 O293 1.249 . S
O286 C285 1.264 . S
O287 Mg280 1.986 . S
O287 C291 1.246 . S
O288 Mg283 2.032 . S
O288 C291 1.259 . S
O289 Mg280 2.114 . S
O289 C292 1.252 . S
O290 Mg280 2.251 . S
O290 Mg283 2.079 . S
O290 C292 1.273 . S
C291 O287 1.246 . S
C291 O288 1.259 . S
C292 O289 1.252 . S
C292 O290 1.273 . S
O293 Mg280 2.010 . S
O293 C285 1.249 . S
Mg294 O295 2.028 . S
Mg294 O301 1.986 . S
Mg294 O303 2.114 . S
Mg294 O304 2.251 . S
Mg294 O307 2.010 . S
O295 Mg294 2.028 . S
O295 C298 1.250 . S
O296 Mg297 2.028 . S
O296 C298 1.248 . S
Mg297 O296 2.028 . S
Mg297 O302 2.032 . S
Mg297 O304 2.079 . S
C298 O295 1.250 . S
C298 O296 1.248 . S
C299 O300 1.264 . S
C299 O307 1.249 . S
O300 C299 1.264 . S
O301 Mg294 1.986 . S
O301 C305 1.246 . S
O302 Mg297 2.032 . S
O302 C305 1.259 . S
O303 Mg294 2.114 . S
O303 C306 1.252 . S
O304 Mg294 2.251 . S
O304 Mg297 2.079 . S
O304 C306 1.273 . S
C305 O301 1.246 . S
C305 O302 1.259 . S
C306 O303 1.252 . S
C306 O304 1.273 . S
O307 Mg294 2.010 . S
O307 C299 1.249 . S
Mg308 O309 2.028 . S
Mg308 O315 1.986 . S
Mg308 O317 2.114 . S
Mg308 O318 2.251 . S
Mg308 O321 2.010 . S
O309 Mg308 2.028 . S
O309 C312 1.250 . S
O310 Mg311 2.028 . S
O310 C312 1.248 . S
Mg311 O310 2.028 . S
Mg311 O316 2.032 . S
Mg311 O318 2.079 . S
C312 O309 1.250 . S
C312 O310 1.248 . S
C313 O314 1.264 . S
C313 O321 1.249 . S
O314 C313 1.264 . S
O315 Mg308 1.986 . S
O315 C319 1.246 . S
O316 Mg311 2.032 . S
O316 C319 1.259 . S
O317 Mg308 2.114 . S
O317 C320 1.252 . S
O318 Mg308 2.251 . S
O318 Mg311 2.079 . S
O318 C320 1.273 . S
C319 O315 1.246 . S
C319 O316 1.259 . S
C320 O317 1.252 . S
C320 O318 1.273 . S
O321 Mg308 2.010 . S
O321 C313 1.249 . S
Mg322 O323 2.028 . S
Mg322 O329 1.986 . S
Mg322 O331 2.114 . S
Mg322 O332 2.251 . S
Mg322 O335 2.010 . S
O323 Mg322 2.028 . S
O323 C326 1.250 . S
O324 Mg325 2.028 . S
O324 C326 1.248 . S
Mg325 O324 2.028 . S
Mg325 O330 2.032 . S
Mg325 O332 2.079 . S
C326 O323 1.250 . S
C326 O324 1.248 . S
C327 O328 1.264 . S
C327 O335 1.249 . S
O328 C327 1.264 . S
O329 Mg322 1.986 . S
O329 C333 1.246 . S
O330 Mg325 2.032 . S
O330 C333 1.259 . S
O331 Mg322 2.114 . S
O331 C334 1.252 . S
O332 Mg322 2.251 . S
O332 Mg325 2.079 . S
O332 C334 1.273 . S
C333 O329 1.246 . S
C333 O330 1.259 . S
C334 O331 1.252 . S
C334 O332 1.273 . S
O335 Mg322 2.010 . S
O335 C327 1.249 . S
H336 C342 0.930 . S
H337 C345 0.930 . S
H338 C346 0.930 . S
H339 C347 0.930 . S
H340 C350 0.930 . S
H341 C351 0.930 . S
C342 H336 0.930 . S
C342 C343 1.355 . S
C342 C344 1.394 1_545 S
C343 C342 1.355 . S
C343 C345 1.419 . S
C344 C342 1.394 1_565 S
C344 C349 1.427 1_565 S
C344 C351 1.430 . S
C345 H337 0.930 . S
C345 C343 1.419 . S
C345 C346 1.362 . S
C346 H338 0.930 . S
C346 C345 1.362 . S
C346 C349 1.430 . S
C347 H339 0.930 . S
C347 C348 1.355 . S
C347 C349 1.394 1_565 S
C348 C347 1.355 . S
C348 C350 1.419 . S
C349 C344 1.427 1_545 S
C349 C346 1.430 . S
C349 C347 1.394 1_545 S
C350 H340 0.930 . S
C350 C348 1.419 . S
C350 C351 1.362 . S
C351 H341 0.930 . S
C351 C344 1.430 . S
C351 C350 1.362 . S
H352 C358 0.930 . S
H353 C361 0.930 . S
H354 C362 0.930 . S
H355 C363 0.930 . S
H356 C366 0.930 . S
H357 C367 0.930 . S
C358 H352 0.930 . S
C358 C359 1.355 . S
C358 C360 1.415 . S
C359 C358 1.355 . S
C359 C361 1.419 . S
C360 C358 1.415 . S
C360 C365 1.425 . S
C360 C367 1.409 . S
C361 H353 0.930 . S
C361 C359 1.419 . S
C361 C362 1.362 . S
C362 H354 0.930 . S
C362 C361 1.362 . S
C362 C365 1.409 . S
C363 H355 0.930 . S
C363 C364 1.355 . S
C363 C365 1.415 . S
C364 C363 1.355 . S
C364 C366 1.419 . S
C365 C360 1.425 . S
C365 C362 1.409 . S
C365 C363 1.415 . S
C366 H356 0.930 . S
C366 C364 1.419 . S
C366 C367 1.362 . S
C367 H357 0.930 . S
C367 C360 1.409 . S
C367 C366 1.362 . S
H368 C374 0.930 . S
H369 C377 0.930 . S
H370 C378 0.930 1_455 S
H371 C379 0.930 . S
H372 C382 0.930 . S
H373 C383 0.930 1_655 S
C374 H368 0.930 . S
C374 C375 1.355 . S
C374 C376 1.415 . S
C375 C374 1.355 . S
C375 C377 1.419 . S
C376 C374 1.415 . S
C376 C381 1.425 1_655 S
C376 C383 1.409 1_655 S
C377 H369 0.930 . S
C377 C375 1.419 . S
C377 C378 1.362 . S
C378 H370 0.930 1_655 S
C378 C377 1.362 . S
C378 C381 1.409 1_655 S
C379 H371 0.930 . S
C379 C380 1.355 . S
C379 C381 1.415 . S
C380 C379 1.355 . S
C380 C382 1.419 . S
C381 C376 1.425 1_455 S
C381 C378 1.409 1_455 S
C381 C379 1.415 . S
C382 H372 0.930 . S
C382 C380 1.419 . S
C382 C383 1.362 . S
C383 H373 0.930 1_455 S
C383 C376 1.409 1_455 S
C383 C382 1.362 . S
H384 C390 0.930 . S
H385 C393 0.930 . S
H386 C394 0.930 . S
H387 C395 0.930 . S
H388 C398 0.930 . S
H389 C399 0.930 . S
C390 H384 0.930 . S
C390 C391 1.355 . S
C390 C392 1.415 . S
C391 C390 1.355 . S
C391 C393 1.419 . S
C392 C390 1.415 . S
C392 C397 1.425 1_565 S
C392 C399 1.409 1_565 S
C393 H385 0.930 . S
C393 C391 1.419 . S
C393 C394 1.362 . S
C394 H386 0.930 . S
C394 C393 1.362 . S
C394 C397 1.409 1_565 S
C395 H387 0.930 . S
C395 C396 1.355 . S
C395 C397 1.415 . S
C396 C395 1.355 . S
C396 C398 1.419 . S
C397 C392 1.425 1_545 S
C397 C394 1.409 1_545 S
C397 C395 1.415 . S
C398 H388 0.930 . S
C398 C396 1.419 . S
C398 C399 1.362 . S
C399 H389 0.930 . S
C399 C392 1.409 1_545 S
C399 C398 1.362 . S
H400 C406 0.930 . S
H401 C409 0.930 . S
H402 C410 0.930 . S
H403 C411 0.930 . S
H404 C414 0.930 . S
H405 C415 0.930 . S
C406 H400 0.930 . S
C406 C407 1.355 . S
C406 C408 1.415 . S
C407 C406 1.355 . S
C407 C409 1.419 . S
C408 C406 1.415 . S
C408 C413 1.425 . S
C408 C415 1.409 . S
C409 H401 0.930 . S
C409 C407 1.419 . S
C409 C410 1.362 . S
C410 H402 0.930 . S
C410 C409 1.362 . S
C410 C413 1.409 . S
C411 H403 0.930 . S
C411 C412 1.355 . S
C411 C413 1.415 . S
C412 C411 1.355 . S
C412 C414 1.419 . S
C413 C408 1.425 . S
C413 C410 1.409 . S
C413 C411 1.415 . S
C414 H404 0.930 . S
C414 C412 1.419 . S
C414 C415 1.362 . S
C415 H405 0.930 . S
C415 C408 1.409 . S
C415 C414 1.362 . S
H416 C422 0.930 . S
H417 C425 0.930 . S
H418 C426 0.930 1_655 S
H419 C427 0.930 . S
H420 C430 0.930 . S
H421 C431 0.930 1_455 S
C422 H416 0.930 . S
C422 C423 1.355 . S
C422 C424 1.415 . S
C423 C422 1.355 . S
C423 C425 1.419 . S
C424 C422 1.415 . S
C424 C429 1.425 1_455 S
C424 C431 1.409 1_455 S
C425 H417 0.930 . S
C425 C423 1.419 . S
C425 C426 1.362 . S
C426 H418 0.930 1_455 S
C426 C425 1.362 . S
C426 C429 1.409 1_455 S
C427 H419 0.930 . S
C427 C428 1.355 . S
C427 C429 1.415 . S
C428 C427 1.355 . S
C428 C430 1.419 . S
C429 C424 1.425 1_655 S
C429 C426 1.409 1_655 S
C429 C427 1.415 . S
C430 H420 0.930 . S
C430 C428 1.419 . S
C430 C431 1.362 . S
C431 H421 0.930 1_655 S
C431 C424 1.409 1_655 S
C431 C430 1.362 . S
H432 C438 0.930 . S
H433 C441 0.930 . S
H434 C442 0.930 . S
H435 C443 0.930 . S
H436 C446 0.930 . S
H437 C447 0.930 . S
C438 H432 0.930 . S
C438 C439 1.355 . S
C438 C440 1.427 . S
C439 C438 1.355 . S
C439 C441 1.419 . S
C440 C438 1.427 . S
C440 C445 1.428 1_565 S
C440 C447 1.396 1_565 S
C441 H433 0.930 . S
C441 C439 1.419 . S
C441 C442 1.362 . S
C442 H434 0.930 . S
C442 C441 1.362 . S
C442 C445 1.396 1_565 S
C443 H435 0.930 . S
C443 C444 1.355 . S
C443 C445 1.427 . S
C444 C443 1.355 . S
C444 C446 1.419 . S
C445 C440 1.428 1_545 S
C445 C442 1.396 1_545 S
C445 C443 1.427 . S
C446 H436 0.930 . S
C446 C444 1.419 . S
C446 C447 1.362 . S
C447 H437 0.930 . S
C447 C440 1.396 1_545 S
C447 C446 1.362 . S
H448 C454 0.930 . S
H449 C457 0.930 . S
H450 C458 0.930 . S
H451 C459 0.930 . S
H452 C462 0.930 . S
H453 C463 0.930 . S
C454 H448 0.930 . S
C454 C455 1.355 . S
C454 C456 1.415 . S
C455 C454 1.355 . S
C455 C457 1.419 . S
C456 C454 1.415 . S
C456 C461 1.425 . S
C456 C463 1.409 . S
C457 H449 0.930 . S
C457 C455 1.419 . S
C457 C458 1.362 . S
C458 H450 0.930 . S
C458 C457 1.362 . S
C458 C461 1.409 . S
C459 H451 0.930 . S
C459 C460 1.355 . S
C459 C461 1.415 . S
C460 C459 1.355 . S
C460 C462 1.419 . S
C461 C456 1.425 . S
C461 C458 1.409 . S
C461 C459 1.415 . S
C462 H452 0.930 . S
C462 C460 1.419 . S
C462 C463 1.362 . S
C463 H453 0.930 . S
C463 C456 1.409 . S
C463 C462 1.362 . S
H464 C470 0.930 . S
H465 C473 0.930 . S
H466 C474 0.930 . S
H467 C475 0.930 . S
H468 C478 0.930 . S
H469 C479 0.930 . S
C470 H464 0.930 . S
C470 C471 1.355 . S
C470 C472 1.449 . S
C471 C470 1.355 . S
C471 C473 1.419 . S
C472 C470 1.449 . S
C472 C477 1.447 1_655 S
C472 C479 1.366 1_655 S
C473 H465 0.930 . S
C473 C471 1.419 . S
C473 C474 1.362 . S
C474 H466 0.930 . S
C474 C473 1.362 . S
C474 C477 1.366 1_655 S
C475 H467 0.930 . S
C475 C476 1.355 . S
C475 C477 1.450 . S
C476 C475 1.355 . S
C476 C478 1.419 . S
C477 C472 1.447 1_455 S
C477 C474 1.366 1_455 S
C477 C475 1.450 . S
C478 H468 0.930 . S
C478 C476 1.419 . S
C478 C479 1.362 . S
C479 H469 0.930 . S
C479 C472 1.366 1_455 S
C479 C478 1.362 . S
H480 C486 0.930 . S
H481 C489 0.930 . S
H482 C490 0.930 1_565 S
H483 C491 0.930 . S
H484 C494 0.930 . S
H485 C495 0.930 1_545 S
C486 H480 0.930 . S
C486 C487 1.355 . S
C486 C488 1.415 . S
C487 C486 1.355 . S
C487 C489 1.419 . S
C488 C486 1.415 . S
C488 C493 1.425 1_545 S
C488 C495 1.409 1_545 S
C489 H481 0.930 . S
C489 C487 1.419 . S
C489 C490 1.362 . S
C490 H482 0.930 1_545 S
C490 C489 1.362 . S
C490 C493 1.409 1_545 S
C491 H483 0.930 . S
C491 C492 1.355 . S
C491 C493 1.415 . S
C492 C491 1.355 . S
C492 C494 1.419 . S
C493 C488 1.425 1_565 S
C493 C490 1.409 1_565 S
C493 C491 1.415 . S
C494 H484 0.930 . S
C494 C492 1.419 . S
C494 C495 1.362 . S
C495 H485 0.930 1_565 S
C495 C488 1.409 1_565 S
C495 C494 1.362 . S
H496 C502 0.930 . S
H497 C505 0.930 . S
H498 C506 0.930 . S
H499 C507 0.930 . S
H500 C510 0.930 . S
H501 C511 0.930 . S
C502 H496 0.930 . S
C502 C503 1.355 . S
C502 C504 1.415 . S
C503 C502 1.355 . S
C503 C505 1.419 . S
C504 C502 1.415 . S
C504 C509 1.425 . S
C504 C511 1.409 . S
C505 H497 0.930 . S
C505 C503 1.419 . S
C505 C506 1.362 . S
C506 H498 0.930 . S
C506 C505 1.362 . S
C506 C509 1.409 . S
C507 H499 0.930 . S
C507 C508 1.355 . S
C507 C509 1.415 . S
C508 C507 1.355 . S
C508 C510 1.419 . S
C509 C504 1.425 . S
C509 C506 1.409 . S
C509 C507 1.415 . S
C510 H500 0.930 . S
C510 C508 1.419 . S
C510 C511 1.362 . S
C511 H501 0.930 . S
C511 C504 1.409 . S
C511 C510 1.362 . S
H512 C518 0.930 . S
H513 C521 0.930 . S
H514 C522 0.930 . S
H515 C523 0.930 . S
H516 C526 0.930 . S
H517 C527 0.930 . S
C518 H512 0.930 . S
C518 C519 1.355 . S
C518 C520 1.415 . S
C519 C518 1.355 . S
C519 C521 1.419 . S
C520 C518 1.415 . S
C520 C525 1.425 1_455 S
C520 C527 1.409 1_455 S
C521 H513 0.930 . S
C521 C519 1.419 . S
C521 C522 1.362 . S
C522 H514 0.930 . S
C522 C521 1.362 . S
C522 C525 1.409 1_455 S
C523 H515 0.930 . S
C523 C524 1.355 . S
C523 C525 1.415 . S
C524 C523 1.355 . S
C524 C526 1.419 . S
C525 C520 1.425 1_655 S
C525 C522 1.409 1_655 S
C525 C523 1.415 . S
C526 H516 0.930 . S
C526 C524 1.419 . S
C526 C527 1.362 . S
C527 H517 0.930 . S
C527 C520 1.409 1_655 S
C527 C526 1.362 . S
H528 C534 0.930 . S
H529 C537 0.930 . S
H530 C538 0.930 . S
H531 C539 0.930 . S
H532 C542 0.930 . S
H533 C543 0.930 . S
C534 H528 0.930 . S
C534 C535 1.355 . S
C534 C536 1.415 . S
C535 C534 1.355 . S
C535 C537 1.419 . S
C536 C534 1.415 . S
C536 C541 1.425 . S
C536 C543 1.409 . S
C537 H529 0.930 . S
C537 C535 1.419 . S
C537 C538 1.362 . S
C538 H530 0.930 . S
C538 C537 1.362 . S
C538 C541 1.409 . S
C539 H531 0.930 . S
C539 C540 1.355 . S
C539 C541 1.415 . S
C540 C539 1.355 . S
C540 C542 1.419 . S
C541 C536 1.425 . S
C541 C538 1.409 . S
C541 C539 1.415 . S
C542 H532 0.930 . S
C542 C540 1.419 . S
C542 C543 1.362 . S
C543 H533 0.930 . S
C543 C536 1.409 . S
C543 C542 1.362 . S
H544 C550 0.930 . S
H545 C553 0.930 . S
H546 C554 0.930 . S
H547 C555 0.930 . S
H548 C558 0.930 . S
H549 C559 0.930 . S
C550 H544 0.930 . S
C550 C551 1.355 . S
C550 C552 1.415 . S
C551 C550 1.355 . S
C551 C553 1.419 . S
C552 C550 1.415 . S
C552 C557 1.425 . S
C552 C559 1.409 . S
C553 H545 0.930 . S
C553 C551 1.419 . S
C553 C554 1.362 . S
C554 H546 0.930 . S
C554 C553 1.362 . S
C554 C557 1.409 . S
C555 H547 0.930 . S
C555 C556 1.355 . S
C555 C557 1.415 . S
C556 C555 1.355 . S
C556 C558 1.419 . S
C557 C552 1.425 . S
C557 C554 1.409 . S
C557 C555 1.415 . S
C558 H548 0.930 . S
C558 C556 1.419 . S
C558 C559 1.362 . S
C559 H549 0.930 . S
C559 C552 1.409 . S
C559 C558 1.362 . S
H560 C566 0.930 . S
H561 C569 0.930 . S
H562 C570 0.930 . S
H563 C571 0.930 . S
H564 C574 0.930 . S
H565 C575 0.930 . S
C566 H560 0.930 . S
C566 C567 1.355 . S
C566 C568 1.415 . S
C567 C566 1.355 . S
C567 C569 1.419 . S
C568 C566 1.415 . S
C568 C573 1.425 . S
C568 C575 1.409 . S
C569 H561 0.930 . S
C569 C567 1.419 . S
C569 C570 1.362 . S
C570 H562 0.930 . S
C570 C569 1.362 . S
C570 C573 1.409 . S
C571 H563 0.930 . S
C571 C572 1.355 . S
C571 C573 1.415 . S
C572 C571 1.355 . S
C572 C574 1.419 . S
C573 C568 1.425 . S
C573 C570 1.409 . S
C573 C571 1.415 . S
C574 H564 0.930 . S
C574 C572 1.419 . S
C574 C575 1.362 . S
C575 H565 0.930 . S
C575 C568 1.409 . S
C575 C574 1.362 . S
H576 C582 0.930 . S
H577 C585 0.930 . S
H578 C586 0.930 . S
H579 C587 0.930 . S
H580 C590 0.930 . S
H581 C591 0.930 . S
C582 H576 0.930 . S
C582 C583 1.355 . S
C582 C584 1.415 . S
C583 C582 1.355 . S
C583 C585 1.419 . S
C584 C582 1.415 . S
C584 C589 1.425 . S
C584 C591 1.409 . S
C585 H577 0.930 . S
C585 C583 1.419 . S
C585 C586 1.362 . S
C586 H578 0.930 . S
C586 C585 1.362 . S
C586 C589 1.409 . S
C587 H579 0.930 . S
C587 C588 1.355 . S
C587 C589 1.415 . S
C588 C587 1.355 . S
C588 C590 1.419 . S
C589 C584 1.425 . S
C589 C586 1.409 . S
C589 C587 1.415 . S
C590 H580 0.930 . S
C590 C588 1.419 . S
C590 C591 1.362 . S
C591 H581 0.930 . S
C591 C584 1.409 . S
C591 C590 1.362 . S
H592 C598 0.930 . S
H593 C601 0.930 . S
H594 C602 0.930 . S
H595 C603 0.930 . S
H596 C606 0.930 . S
H597 C607 0.930 . S
C598 H592 0.930 . S
C598 C599 1.355 . S
C598 C600 1.415 . S
C599 C598 1.355 . S
C599 C601 1.419 . S
C600 C598 1.415 . S
C600 C605 1.425 . S
C600 C607 1.409 . S
C601 H593 0.930 . S
C601 C599 1.419 . S
C601 C602 1.362 . S
C602 H594 0.930 . S
C602 C601 1.362 . S
C602 C605 1.409 . S
C603 H595 0.930 . S
C603 C604 1.355 . S
C603 C605 1.415 . S
C604 C603 1.355 . S
C604 C606 1.419 . S
C605 C600 1.425 . S
C605 C602 1.409 . S
C605 C603 1.415 . S
C606 H596 0.930 . S
C606 C604 1.419 . S
C606 C607 1.362 . S
C607 H597 0.930 . S
C607 C600 1.409 . S
C607 C606 1.362 . S
H608 C614 0.930 . S
H609 C617 0.930 . S
H610 C618 0.930 . S
H611 C619 0.930 . S
H612 C622 0.930 . S
H613 C623 0.930 . S
C614 H608 0.930 . S
C614 C615 1.355 . S
C614 C616 1.415 . S
C615 C614 1.355 . S
C615 C617 1.419 . S
C616 C614 1.415 . S
C616 C621 1.425 . S
C616 C623 1.409 . S
C617 H609 0.930 . S
C617 C615 1.419 . S
C617 C618 1.362 . S
C618 H610 0.930 . S
C618 C617 1.362 . S
C618 C621 1.409 . S
C619 H611 0.930 . S
C619 C620 1.355 . S
C619 C621 1.415 . S
C620 C619 1.355 . S
C620 C622 1.419 . S
C621 C616 1.425 . S
C621 C618 1.409 . S
C621 C619 1.415 . S
C622 H612 0.930 . S
C622 C620 1.419 . S
C622 C623 1.362 . S
C623 H613 0.930 . S
C623 C616 1.409 . S
C623 C622 1.362 . S
H624 C630 0.930 . S
H625 C633 0.930 . S
H626 C634 0.930 . S
H627 C635 0.930 . S
H628 C638 0.930 . S
H629 C639 0.930 . S
C630 H624 0.930 . S
C630 C631 1.355 . S
C630 C632 1.415 . S
C631 C630 1.355 . S
C631 C633 1.419 . S
C632 C630 1.415 . S
C632 C637 1.425 . S
C632 C639 1.409 . S
C633 H625 0.930 . S
C633 C631 1.419 . S
C633 C634 1.362 . S
C634 H626 0.930 . S
C634 C633 1.362 . S
C634 C637 1.409 . S
C635 H627 0.930 . S
C635 C636 1.355 . S
C635 C637 1.415 . S
C636 C635 1.355 . S
C636 C638 1.419 . S
C637 C632 1.425 . S
C637 C634 1.409 . S
C637 C635 1.415 . S
C638 H628 0.930 . S
C638 C636 1.419 . S
C638 C639 1.362 . S
C639 H629 0.930 . S
C639 C632 1.409 . S
C639 C638 1.362 . S
H640 C646 0.930 . S
H641 C649 0.930 . S
H642 C650 0.930 . S
H643 C651 0.930 . S
H644 C654 0.930 . S
H645 C655 0.930 . S
C646 H640 0.930 . S
C646 C647 1.355 . S
C646 C648 1.415 . S
C647 C646 1.355 . S
C647 C649 1.419 . S
C648 C646 1.415 . S
C648 C653 1.425 . S
C648 C655 1.409 . S
C649 H641 0.930 . S
C649 C647 1.419 . S
C649 C650 1.362 . S
C650 H642 0.930 . S
C650 C649 1.362 . S
C650 C653 1.409 . S
C651 H643 0.930 . S
C651 C652 1.355 . S
C651 C653 1.415 . S
C652 C651 1.355 . S
C652 C654 1.419 . S
C653 C648 1.425 . S
C653 C650 1.409 . S
C653 C651 1.415 . S
C654 H644 0.930 . S
C654 C652 1.419 . S
C654 C655 1.362 . S
C655 H645 0.930 . S
C655 C648 1.409 . S
C655 C654 1.362 . S
H656 C662 0.930 . S
H657 C665 0.930 . S
H658 C666 0.930 . S
H659 C667 0.930 . S
H660 C670 0.930 . S
H661 C671 0.930 . S
C662 H656 0.930 . S
C662 C663 1.355 . S
C662 C664 1.415 . S
C663 C662 1.355 . S
C663 C665 1.419 . S
C664 C662 1.415 . S
C664 C669 1.425 . S
C664 C671 1.409 . S
C665 H657 0.930 . S
C665 C663 1.419 . S
C665 C666 1.362 . S
C666 H658 0.930 . S
C666 C665 1.362 . S
C666 C669 1.409 . S
C667 H659 0.930 . S
C667 C668 1.355 . S
C667 C669 1.415 . S
C668 C667 1.355 . S
C668 C670 1.419 . S
C669 C664 1.425 . S
C669 C666 1.409 . S
C669 C667 1.415 . S
C670 H660 0.930 . S
C670 C668 1.419 . S
C670 C671 1.362 . S
C671 H661 0.930 . S
C671 C664 1.409 . S
C671 C670 1.362 . S
H672 C678 0.930 . S
H673 C681 0.930 . S
H674 C682 0.930 . S
H675 C683 0.930 . S
H676 C686 0.930 . S
H677 C687 0.930 . S
C678 H672 0.930 . S
C678 C679 1.355 . S
C678 C680 1.415 . S
C679 C678 1.355 . S
C679 C681 1.419 . S
C680 C678 1.415 . S
C680 C685 1.425 . S
C680 C687 1.409 . S
C681 H673 0.930 . S
C681 C679 1.419 . S
C681 C682 1.362 . S
C682 H674 0.930 . S
C682 C681 1.362 . S
C682 C685 1.409 . S
C683 H675 0.930 . S
C683 C684 1.355 . S
C683 C685 1.415 . S
C684 C683 1.355 . S
C684 C686 1.419 . S
C685 C680 1.425 . S
C685 C682 1.409 . S
C685 C683 1.415 . S
C686 H676 0.930 . S
C686 C684 1.419 . S
C686 C687 1.362 . S
C687 H677 0.930 . S
C687 C680 1.409 . S
C687 C686 1.362 . S
H688 C694 0.930 . S
H689 C697 0.930 . S
H690 C698 0.930 . S
H691 C699 0.930 . S
H692 C702 0.930 . S
H693 C703 0.930 . S
C694 H688 0.930 . S
C694 C695 1.355 . S
C694 C696 1.415 . S
C695 C694 1.355 . S
C695 C697 1.419 . S
C696 C694 1.415 . S
C696 C701 1.425 . S
C696 C703 1.409 . S
C697 H689 0.930 . S
C697 C695 1.419 . S
C697 C698 1.362 . S
C698 H690 0.930 . S
C698 C697 1.362 . S
C698 C701 1.409 . S
C699 H691 0.930 . S
C699 C700 1.355 . S
C699 C701 1.415 . S
C700 C699 1.355 . S
C700 C702 1.419 . S
C701 C696 1.425 . S
C701 C698 1.409 . S
C701 C699 1.415 . S
C702 H692 0.930 . S
C702 C700 1.419 . S
C702 C703 1.362 . S
C703 H693 0.930 . S
C703 C696 1.409 . S
C703 C702 1.362 . S
H704 C710 0.930 . S
H705 C713 0.930 . S
H706 C714 0.930 . S
H707 C715 0.930 . S
H708 C718 0.930 . S
H709 C719 0.930 . S
C710 H704 0.930 . S
C710 C711 1.355 . S
C710 C712 1.415 . S
C711 C710 1.355 . S
C711 C713 1.419 . S
C712 C710 1.415 . S
C712 C717 1.425 . S
C712 C719 1.409 . S
C713 H705 0.930 . S
C713 C711 1.419 . S
C713 C714 1.362 . S
C714 H706 0.930 . S
C714 C713 1.362 . S
C714 C717 1.409 . S
C715 H707 0.930 . S
C715 C716 1.355 . S
C715 C717 1.415 . S
C716 C715 1.355 . S
C716 C718 1.419 . S
C717 C712 1.425 . S
C717 C714 1.409 . S
C717 C715 1.415 . S
C718 H708 0.930 . S
C718 C716 1.419 . S
C718 C719 1.362 . S
C719 H709 0.930 . S
C719 C712 1.409 . S
C719 C718 1.362 . S
H720 C726 0.930 . S
H721 C729 0.930 . S
H722 C730 0.930 . S
H723 C731 0.930 . S
H724 C734 0.930 . S
H725 C735 0.930 . S
C726 H720 0.930 . S
C726 C727 1.355 . S
C726 C728 1.415 . S
C727 C726 1.355 . S
C727 C729 1.419 . S
C728 C726 1.415 . S
C728 C733 1.425 1_554 S
C728 C735 1.409 1_554 S
C729 H721 0.930 . S
C729 C727 1.419 . S
C729 C730 1.362 . S
C730 H722 0.930 . S
C730 C729 1.362 . S
C730 C733 1.409 1_554 S
C731 H723 0.930 . S
C731 C732 1.355 . S
C731 C733 1.415 . S
C732 C731 1.355 . S
C732 C734 1.419 . S
C733 C728 1.425 1_556 S
C733 C730 1.409 1_556 S
C733 C731 1.415 . S
C734 H724 0.930 . S
C734 C732 1.419 . S
C734 C735 1.362 . S
C735 H725 0.930 . S
C735 C728 1.409 1_556 S
C735 C734 1.362 . S
H736 C742 0.930 . S
H737 C745 0.930 . S
H738 C746 0.930 . S
H739 C747 0.930 . S
H740 C750 0.930 . S
H741 C751 0.930 . S
C742 H736 0.930 . S
C742 C743 1.355 . S
C742 C744 1.415 . S
C743 C742 1.355 . S
C743 C745 1.419 . S
C744 C742 1.415 . S
C744 C749 1.425 1_556 S
C744 C751 1.409 1_556 S
C745 H737 0.930 . S
C745 C743 1.419 . S
C745 C746 1.362 . S
C746 H738 0.930 . S
C746 C745 1.362 . S
C746 C749 1.409 1_556 S
C747 H739 0.930 . S
C747 C748 1.355 . S
C747 C749 1.415 . S
C748 C747 1.355 . S
C748 C750 1.419 . S
C749 C744 1.425 1_554 S
C749 C746 1.409 1_554 S
C749 C747 1.415 . S
C750 H740 0.930 . S
C750 C748 1.419 . S
C750 C751 1.362 . S
C751 H741 0.930 . S
C751 C744 1.409 1_554 S
C751 C750 1.362 . S
H752 C758 0.930 . S
H753 C761 0.930 . S
H754 C762 0.930 . S
H755 C763 0.930 . S
H756 C766 0.930 . S
H757 C767 0.930 . S
C758 H752 0.930 . S
C758 C759 1.355 . S
C758 C760 1.415 . S
C759 C758 1.355 . S
C759 C761 1.419 . S
C760 C758 1.415 . S
C760 C765 1.425 1_556 S
C760 C767 1.409 1_556 S
C761 H753 0.930 . S
C761 C759 1.419 . S
C761 C762 1.362 . S
C762 H754 0.930 . S
C762 C761 1.362 . S
C762 C765 1.409 1_556 S
C763 H755 0.930 . S
C763 C764 1.355 . S
C763 C765 1.415 . S
C764 C763 1.355 . S
C764 C766 1.419 . S
C765 C760 1.425 1_554 S
C765 C762 1.409 1_554 S
C765 C763 1.415 . S
C766 H756 0.930 . S
C766 C764 1.419 . S
C766 C767 1.362 . S
C767 H757 0.930 . S
C767 C760 1.409 1_554 S
C767 C766 1.362 . S
H768 C774 0.930 . S
H769 C777 0.930 . S
H770 C778 0.930 . S
H771 C779 0.930 . S
H772 C782 0.930 . S
H773 C783 0.930 . S
C774 H768 0.930 . S
C774 C775 1.355 . S
C774 C776 1.415 . S
C775 C774 1.355 . S
C775 C777 1.419 . S
C776 C774 1.415 . S
C776 C781 1.425 1_554 S
C776 C783 1.409 1_554 S
C777 H769 0.930 . S
C777 C775 1.419 . S
C777 C778 1.362 . S
C778 H770 0.930 . S
C778 C777 1.362 . S
C778 C781 1.409 1_554 S
C779 H771 0.930 . S
C779 C780 1.355 . S
C779 C781 1.415 . S
C780 C779 1.355 . S
C780 C782 1.419 . S
C781 C776 1.425 1_556 S
C781 C778 1.409 1_556 S
C781 C779 1.415 . S
C782 H772 0.930 . S
C782 C780 1.419 . S
C782 C783 1.362 . S
C783 H773 0.930 . S
C783 C776 1.409 1_556 S
C783 C782 1.362 . S
H784 C790 0.930 . S
H785 C793 0.930 . S
H786 C794 0.930 . S
H787 C795 0.930 . S
H788 C798 0.930 . S
H789 C799 0.930 . S
C790 H784 0.930 . S
C790 C791 1.355 . S
C790 C792 1.415 . S
C791 C790 1.355 . S
C791 C793 1.419 . S
C792 C790 1.415 . S
C792 C797 1.425 1_554 S
C792 C799 1.409 1_554 S
C793 H785 0.930 . S
C793 C791 1.419 . S
C793 C794 1.362 . S
C794 H786 0.930 . S
C794 C793 1.362 . S
C794 C797 1.409 1_554 S
C795 H787 0.930 . S
C795 C796 1.355 . S
C795 C797 1.415 . S
C796 C795 1.355 . S
C796 C798 1.419 . S
C797 C792 1.425 1_556 S
C797 C794 1.409 1_556 S
C797 C795 1.415 . S
C798 H788 0.930 . S
C798 C796 1.419 . S
C798 C799 1.362 . S
C799 H789 0.930 . S
C799 C792 1.409 1_556 S
C799 C798 1.362 . S
H800 C806 0.930 . S
H801 C809 0.930 . S
H802 C810 0.930 . S
H803 C811 0.930 . S
H804 C814 0.930 . S
H805 C815 0.930 . S
C806 H800 0.930 . S
C806 C807 1.355 . S
C806 C808 1.415 . S
C807 C806 1.355 . S
C807 C809 1.419 . S
C808 C806 1.415 . S
C808 C813 1.425 1_556 S
C808 C815 1.409 1_556 S
C809 H801 0.930 . S
C809 C807 1.419 . S
C809 C810 1.362 . S
C810 H802 0.930 . S
C810 C809 1.362 . S
C810 C813 1.409 1_556 S
C811 H803 0.930 . S
C811 C812 1.355 . S
C811 C813 1.415 . S
C812 C811 1.355 . S
C812 C814 1.419 . S
C813 C808 1.425 1_554 S
C813 C810 1.409 1_554 S
C813 C811 1.415 . S
C814 H804 0.930 . S
C814 C812 1.419 . S
C814 C815 1.362 . S
C815 H805 0.930 . S
C815 C808 1.409 1_554 S
C815 C814 1.362 . S
H816 C822 0.930 . S
H817 C825 0.930 . S
H818 C826 0.930 . S
H819 C827 0.930 . S
H820 C830 0.930 . S
H821 C831 0.930 . S
C822 H816 0.930 . S
C822 C823 1.355 . S
C822 C824 1.415 . S
C823 C822 1.355 . S
C823 C825 1.419 . S
C824 C822 1.415 . S
C824 C829 1.425 . S
C824 C831 1.409 . S
C825 H817 0.930 . S
C825 C823 1.419 . S
C825 C826 1.362 . S
C826 H818 0.930 . S
C826 C825 1.362 . S
C826 C829 1.409 . S
C827 H819 0.930 . S
C827 C828 1.355 . S
C827 C829 1.415 . S
C828 C827 1.355 . S
C828 C830 1.419 . S
C829 C824 1.425 . S
C829 C826 1.409 . S
C829 C827 1.415 . S
C830 H820 0.930 . S
C830 C828 1.419 . S
C830 C831 1.362 . S
C831 H821 0.930 . S
C831 C824 1.409 . S
C831 C830 1.362 . S
H832 C838 0.930 . S
H833 C841 0.930 . S
H834 C842 0.930 . S
H835 C843 0.930 . S
H836 C846 0.930 . S
H837 C847 0.930 . S
C838 H832 0.930 . S
C838 C839 1.355 . S
C838 C840 1.415 . S
C839 C838 1.355 . S
C839 C841 1.419 . S
C840 C838 1.415 . S
C840 C845 1.425 . S
C840 C847 1.409 . S
C841 H833 0.930 . S
C841 C839 1.419 . S
C841 C842 1.362 . S
C842 H834 0.930 . S
C842 C841 1.362 . S
C842 C845 1.409 . S
C843 H835 0.930 . S
C843 C844 1.355 . S
C843 C845 1.415 . S
C844 C843 1.355 . S
C844 C846 1.419 . S
C845 C840 1.425 . S
C845 C842 1.409 . S
C845 C843 1.415 . S
C846 H836 0.930 . S
C846 C844 1.419 . S
C846 C847 1.362 . S
C847 H837 0.930 . S
C847 C840 1.409 . S
C847 C846 1.362 . S
H848 C854 0.930 . S
H849 C857 0.930 . S
H850 C858 0.930 . S
H851 C859 0.930 . S
H852 C862 0.930 . S
H853 C863 0.930 . S
C854 H848 0.930 . S
C854 C855 1.355 . S
C854 C856 1.415 . S
C855 C854 1.355 . S
C855 C857 1.419 . S
C856 C854 1.415 . S
C856 C861 1.425 . S
C856 C863 1.409 . S
C857 H849 0.930 . S
C857 C855 1.419 . S
C857 C858 1.362 . S
C858 H850 0.930 . S
C858 C857 1.362 . S
C858 C861 1.409 . S
C859 H851 0.930 . S
C859 C860 1.355 . S
C859 C861 1.415 . S
C860 C859 1.355 . S
C860 C862 1.419 . S
C861 C856 1.425 . S
C861 C858 1.409 . S
C861 C859 1.415 . S
C862 H852 0.930 . S
C862 C860 1.419 . S
C862 C863 1.362 . S
C863 H853 0.930 . S
C863 C856 1.409 . S
C863 C862 1.362 . S
H864 C870 0.930 . S
H865 C873 0.930 . S
H866 C874 0.930 . S
H867 C875 0.930 . S
H868 C878 0.930 . S
H869 C879 0.930 . S
C870 H864 0.930 . S
C870 C871 1.355 . S
C870 C872 1.415 . S
C871 C870 1.355 . S
C871 C873 1.419 . S
C872 C870 1.415 . S
C872 C877 1.425 . S
C872 C879 1.409 . S
C873 H865 0.930 . S
C873 C871 1.419 . S
C873 C874 1.362 . S
C874 H866 0.930 . S
C874 C873 1.362 . S
C874 C877 1.409 . S
C875 H867 0.930 . S
C875 C876 1.355 . S
C875 C877 1.415 . S
C876 C875 1.355 . S
C876 C878 1.419 . S
C877 C872 1.425 . S
C877 C874 1.409 . S
C877 C875 1.415 . S
C878 H868 0.930 . S
C878 C876 1.419 . S
C878 C879 1.362 . S
C879 H869 0.930 . S
C879 C872 1.409 . S
C879 C878 1.362 . S
H880 C886 0.930 . S
H881 C889 0.930 . S
H882 C890 0.930 . S
H883 C891 0.930 . S
H884 C894 0.930 . S
H885 C895 0.930 . S
C886 H880 0.930 . S
C886 C887 1.355 . S
C886 C888 1.415 . S
C887 C886 1.355 . S
C887 C889 1.419 . S
C888 C886 1.415 . S
C888 C893 1.425 . S
C888 C895 1.409 . S
C889 H881 0.930 . S
C889 C887 1.419 . S
C889 C890 1.362 . S
C890 H882 0.930 . S
C890 C889 1.362 . S
C890 C893 1.409 . S
C891 H883 0.930 . S
C891 C892 1.355 . S
C891 C893 1.415 . S
C892 C891 1.355 . S
C892 C894 1.419 . S
C893 C888 1.425 . S
C893 C890 1.409 . S
C893 C891 1.415 . S
C894 H884 0.930 . S
C894 C892 1.419 . S
C894 C895 1.362 . S
C895 H885 0.930 . S
C895 C888 1.409 . S
C895 C894 1.362 . S
H896 C902 0.930 . S
H897 C905 0.930 . S
H898 C906 0.930 . S
H899 C907 0.930 . S
H900 C910 0.930 . S
H901 C911 0.930 . S
C902 H896 0.930 . S
C902 C903 1.355 . S
C902 C904 1.415 . S
C903 C902 1.355 . S
C903 C905 1.419 . S
C904 C902 1.415 . S
C904 C909 1.425 . S
C904 C911 1.409 . S
C905 H897 0.930 . S
C905 C903 1.419 . S
C905 C906 1.362 . S
C906 H898 0.930 . S
C906 C905 1.362 . S
C906 C909 1.409 . S
C907 H899 0.930 . S
C907 C908 1.355 . S
C907 C909 1.415 . S
C908 C907 1.355 . S
C908 C910 1.419 . S
C909 C904 1.425 . S
C909 C906 1.409 . S
C909 C907 1.415 . S
C910 H900 0.930 . S
C910 C908 1.419 . S
C910 C911 1.362 . S
C911 H901 0.930 . S
C911 C904 1.409 . S
C911 C910 1.362 . S
H912 C918 0.930 . S
H913 C921 0.930 . S
H914 C922 0.930 . S
H915 C923 0.930 . S
H916 C926 0.930 . S
H917 C927 0.930 . S
C918 H912 0.930 . S
C918 C919 1.355 . S
C918 C920 1.415 . S
C919 C918 1.355 . S
C919 C921 1.419 . S
C920 C918 1.415 . S
C920 C925 1.425 . S
C920 C927 1.409 . S
C921 H913 0.930 . S
C921 C919 1.419 . S
C921 C922 1.362 . S
C922 H914 0.930 . S
C922 C921 1.362 . S
C922 C925 1.409 . S
C923 H915 0.930 . S
C923 C924 1.355 . S
C923 C925 1.415 . S
C924 C923 1.355 . S
C924 C926 1.419 . S
C925 C920 1.425 . S
C925 C922 1.409 . S
C925 C923 1.415 . S
C926 H916 0.930 . S
C926 C924 1.419 . S
C926 C927 1.362 . S
C927 H917 0.930 . S
C927 C920 1.409 . S
C927 C926 1.362 . S
H928 C934 0.930 . S
H929 C937 0.930 . S
H930 C938 0.930 . S
H931 C939 0.930 . S
H932 C942 0.930 . S
H933 C943 0.930 . S
C934 H928 0.930 . S
C934 C935 1.355 . S
C934 C936 1.415 . S
C935 C934 1.355 . S
C935 C937 1.419 . S
C936 C934 1.415 . S
C936 C941 1.425 . S
C936 C943 1.409 . S
C937 H929 0.930 . S
C937 C935 1.419 . S
C937 C938 1.362 . S
C938 H930 0.930 . S
C938 C937 1.362 . S
C938 C941 1.409 . S
C939 H931 0.930 . S
C939 C940 1.355 . S
C939 C941 1.415 . S
C940 C939 1.355 . S
C940 C942 1.419 . S
C941 C936 1.425 . S
C941 C938 1.409 . S
C941 C939 1.415 . S
C942 H932 0.930 . S
C942 C940 1.419 . S
C942 C943 1.362 . S
C943 H933 0.930 . S
C943 C936 1.409 . S
C943 C942 1.362 . S
H944 C950 0.930 . S
H945 C953 0.930 . S
H946 C954 0.930 . S
H947 C955 0.930 . S
H948 C958 0.930 . S
H949 C959 0.930 . S
C950 H944 0.930 . S
C950 C951 1.355 . S
C950 C952 1.415 . S
C951 C950 1.355 . S
C951 C953 1.419 . S
C952 C950 1.415 . S
C952 C957 1.425 . S
C952 C959 1.409 . S
C953 H945 0.930 . S
C953 C951 1.419 . S
C953 C954 1.362 . S
C954 H946 0.930 . S
C954 C953 1.362 . S
C954 C957 1.409 . S
C955 H947 0.930 . S
C955 C956 1.355 . S
C955 C957 1.415 . S
C956 C955 1.355 . S
C956 C958 1.419 . S
C957 C952 1.425 . S
C957 C954 1.409 . S
C957 C955 1.415 . S
C958 H948 0.930 . S
C958 C956 1.419 . S
C958 C959 1.362 . S
C959 H949 0.930 . S
C959 C952 1.409 . S
C959 C958 1.362 . S
H960 C966 0.930 . S
H961 C969 0.930 . S
H962 C970 0.930 . S
H963 C971 0.930 . S
H964 C974 0.930 . S
H965 C975 0.930 . S
C966 H960 0.930 . S
C966 C967 1.355 . S
C966 C968 1.415 . S
C967 C966 1.355 . S
C967 C969 1.419 . S
C968 C966 1.415 . S
C968 C973 1.425 . S
C968 C975 1.409 . S
C969 H961 0.930 . S
C969 C967 1.419 . S
C969 C970 1.362 . S
C970 H962 0.930 . S
C970 C969 1.362 . S
C970 C973 1.409 . S
C971 H963 0.930 . S
C971 C972 1.355 . S
C971 C973 1.415 . S
C972 C971 1.355 . S
C972 C974 1.419 . S
C973 C968 1.425 . S
C973 C970 1.409 . S
C973 C971 1.415 . S
C974 H964 0.930 . S
C974 C972 1.419 . S
C974 C975 1.362 . S
C975 H965 0.930 . S
C975 C968 1.409 . S
C975 C974 1.362 . S
H976 C982 0.930 . S
H977 C985 0.930 . S
H978 C986 0.930 . S
H979 C987 0.930 . S
H980 C990 0.930 . S
H981 C991 0.930 . S
C982 H976 0.930 . S
C982 C983 1.355 . S
C982 C984 1.415 . S
C983 C982 1.355 . S
C983 C985 1.419 . S
C984 C982 1.415 . S
C984 C989 1.425 . S
C984 C991 1.409 . S
C985 H977 0.930 . S
C985 C983 1.419 . S
C985 C986 1.362 . S
C986 H978 0.930 . S
C986 C985 1.362 . S
C986 C989 1.409 . S
C987 H979 0.930 . S
C987 C988 1.355 . S
C987 C989 1.415 . S
C988 C987 1.355 . S
C988 C990 1.419 . S
C989 C984 1.425 . S
C989 C986 1.409 . S
C989 C987 1.415 . S
C990 H980 0.930 . S
C990 C988 1.419 . S
C990 C991 1.362 . S
C991 H981 0.930 . S
C991 C984 1.409 . S
C991 C990 1.362 . S
H992 C998 0.930 . S
H993 C1001 0.930 . S
H994 C1002 0.930 . S
H995 C1003 0.930 . S
H996 C1006 0.930 . S
H997 C1007 0.930 . S
C998 H992 0.930 . S
C998 C999 1.355 . S
C998 C1000 1.415 . S
C999 C998 1.355 . S
C999 C1001 1.419 . S
C1000 C998 1.415 . S
C1000 C1005 1.425 . S
C1000 C1007 1.409 . S
C1001 H993 0.930 . S
C1001 C999 1.419 . S
C1001 C1002 1.362 . S
C1002 H994 0.930 . S
C1002 C1001 1.362 . S
C1002 C1005 1.409 . S
C1003 H995 0.930 . S
C1003 C1004 1.355 . S
C1003 C1005 1.415 . S
C1004 C1003 1.355 . S
C1004 C1006 1.419 . S
C1005 C1000 1.425 . S
C1005 C1002 1.409 . S
C1005 C1003 1.415 . S
C1006 H996 0.930 . S
C1006 C1004 1.419 . S
C1006 C1007 1.362 . S
C1007 H997 0.930 . S
C1007 C1000 1.409 . S
C1007 C1006 1.362 . S
H1008 C1014 0.930 . S
H1009 C1017 0.930 . S
H1010 C1018 0.930 . S
H1011 C1019 0.930 . S
H1012 C1022 0.930 . S
H1013 C1023 0.930 . S
C1014 H1008 0.930 . S
C1014 C1015 1.355 . S
C1014 C1016 1.415 . S
C1015 C1014 1.355 . S
C1015 C1017 1.419 . S
C1016 C1014 1.415 . S
C1016 C1021 1.425 . S
C1016 C1023 1.409 . S
C1017 H1009 0.930 . S
C1017 C1015 1.419 . S
C1017 C1018 1.362 . S
C1018 H1010 0.930 . S
C1018 C1017 1.362 . S
C1018 C1021 1.409 . S
C1019 H1011 0.930 . S
C1019 C1020 1.355 . S
C1019 C1021 1.415 . S
C1020 C1019 1.355 . S
C1020 C1022 1.419 . S
C1021 C1016 1.425 . S
C1021 C1018 1.409 . S
C1021 C1019 1.415 . S
C1022 H1012 0.930 . S
C1022 C1020 1.419 . S
C1022 C1023 1.362 . S
C1023 H1013 0.930 . S
C1023 C1016 1.409 . S
C1023 C1022 1.362 . S
H1024 C1030 0.930 . S
H1025 C1033 0.930 . S
H1026 C1034 0.930 . S
H1027 C1035 0.930 . S
H1028 C1038 0.930 . S
H1029 C1039 0.930 . S
C1030 H1024 0.930 . S
C1030 C1031 1.355 . S
C1030 C1032 1.415 . S
C1031 C1030 1.355 . S
C1031 C1033 1.419 . S
C1032 C1030 1.415 . S
C1032 C1037 1.425 . S
C1032 C1039 1.409 . S
C1033 H1025 0.930 . S
C1033 C1031 1.419 . S
C1033 C1034 1.362 . S
C1034 H1026 0.930 . S
C1034 C1033 1.362 . S
C1034 C1037 1.409 . S
C1035 H1027 0.930 . S
C1035 C1036 1.355 . S
C1035 C1037 1.415 . S
C1036 C1035 1.355 . S
C1036 C1038 1.419 . S
C1037 C1032 1.425 . S
C1037 C1034 1.409 . S
C1037 C1035 1.415 . S
C1038 H1028 0.930 . S
C1038 C1036 1.419 . S
C1038 C1039 1.362 . S
C1039 H1029 0.930 . S
C1039 C1032 1.409 . S
C1039 C1038 1.362 . S
H1040 C1046 0.930 . S
H1041 C1049 0.930 . S
H1042 C1050 0.930 . S
H1043 C1051 0.930 . S
H1044 C1054 0.930 . S
H1045 C1055 0.930 . S
C1046 H1040 0.930 . S
C1046 C1047 1.355 . S
C1046 C1048 1.415 . S
C1047 C1046 1.355 . S
C1047 C1049 1.419 . S
C1048 C1046 1.415 . S
C1048 C1053 1.425 . S
C1048 C1055 1.409 . S
C1049 H1041 0.930 . S
C1049 C1047 1.419 . S
C1049 C1050 1.362 . S
C1050 H1042 0.930 . S
C1050 C1049 1.362 . S
C1050 C1053 1.409 . S
C1051 H1043 0.930 . S
C1051 C1052 1.355 . S
C1051 C1053 1.415 . S
C1052 C1051 1.355 . S
C1052 C1054 1.419 . S
C1053 C1048 1.425 . S
C1053 C1050 1.409 . S
C1053 C1051 1.415 . S
C1054 H1044 0.930 . S
C1054 C1052 1.419 . S
C1054 C1055 1.362 . S
C1055 H1045 0.930 . S
C1055 C1048 1.409 . S
C1055 C1054 1.362 . S
H1056 C1062 0.930 . S
H1057 C1065 0.930 . S
H1058 C1066 0.930 . S
H1059 C1067 0.930 . S
H1060 C1070 0.930 . S
H1061 C1071 0.930 . S
C1062 H1056 0.930 . S
C1062 C1063 1.355 . S
C1062 C1064 1.415 . S
C1063 C1062 1.355 . S
C1063 C1065 1.419 . S
C1064 C1062 1.415 . S
C1064 C1069 1.425 . S
C1064 C1071 1.409 . S
C1065 H1057 0.930 . S
C1065 C1063 1.419 . S
C1065 C1066 1.362 . S
C1066 H1058 0.930 . S
C1066 C1065 1.362 . S
C1066 C1069 1.409 . S
C1067 H1059 0.930 . S
C1067 C1068 1.355 . S
C1067 C1069 1.415 . S
C1068 C1067 1.355 . S
C1068 C1070 1.419 . S
C1069 C1064 1.425 . S
C1069 C1066 1.409 . S
C1069 C1067 1.415 . S
C1070 H1060 0.930 . S
C1070 C1068 1.419 . S
C1070 C1071 1.362 . S
C1071 H1061 0.930 . S
C1071 C1064 1.409 . S
C1071 C1070 1.362 . S
H1072 C1078 0.930 . S
H1073 C1081 0.930 . S
H1074 C1082 0.930 . S
H1075 C1083 0.930 . S
H1076 C1086 0.930 . S
H1077 C1087 0.930 . S
C1078 H1072 0.930 . S
C1078 C1079 1.355 . S
C1078 C1080 1.415 . S
C1079 C1078 1.355 . S
C1079 C1081 1.419 . S
C1080 C1078 1.415 . S
C1080 C1085 1.425 . S
C1080 C1087 1.409 . S
C1081 H1073 0.930 . S
C1081 C1079 1.419 . S
C1081 C1082 1.362 . S
C1082 H1074 0.930 . S
C1082 C1081 1.362 . S
C1082 C1085 1.409 . S
C1083 H1075 0.930 . S
C1083 C1084 1.355 . S
C1083 C1085 1.415 . S
C1084 C1083 1.355 . S
C1084 C1086 1.419 . S
C1085 C1080 1.425 . S
C1085 C1082 1.409 . S
C1085 C1083 1.415 . S
C1086 H1076 0.930 . S
C1086 C1084 1.419 . S
C1086 C1087 1.362 . S
C1087 H1077 0.930 . S
C1087 C1080 1.409 . S
C1087 C1086 1.362 . S
H1088 C1094 0.930 . S
H1089 C1097 0.930 . S
H1090 C1098 0.930 . S
H1091 C1099 0.930 . S
H1092 C1102 0.930 . S
H1093 C1103 0.930 . S
C1094 H1088 0.930 . S
C1094 C1095 1.355 . S
C1094 C1096 1.415 . S
C1095 C1094 1.355 . S
C1095 C1097 1.419 . S
C1096 C1094 1.415 . S
C1096 C1101 1.425 . S
C1096 C1103 1.409 . S
C1097 H1089 0.930 . S
C1097 C1095 1.419 . S
C1097 C1098 1.362 . S
C1098 H1090 0.930 . S
C1098 C1097 1.362 . S
C1098 C1101 1.409 . S
C1099 H1091 0.930 . S
C1099 C1100 1.355 . S
C1099 C1101 1.415 . S
C1100 C1099 1.355 . S
C1100 C1102 1.419 . S
C1101 C1096 1.425 . S
C1101 C1098 1.409 . S
C1101 C1099 1.415 . S
C1102 H1092 0.930 . S
C1102 C1100 1.419 . S
C1102 C1103 1.362 . S
C1103 H1093 0.930 . S
C1103 C1096 1.409 . S
C1103 C1102 1.362 . S
C343 C12 1.438 . S
C348 C110 1.430 . S
C359 C124 1.421 . S
C364 C26 1.451 . S
C375 C40 1.424 . S
C380 C138 1.451 . S
C391 C54 1.452 . S
C396 C152 1.422 . S
C407 C166 1.452 . S
C412 C68 1.422 . S
C423 C82 1.443 . S
C428 C96 1.435 . S
C439 C173 1.163 . S
C444 C271 1.147 . S
C455 C187 1.195 . S
C460 C285 1.063 . S
C471 C299 1.140 . S
C476 C201 1.168 . S
C487 C215 1.066 . S
C492 C313 1.135 . S
C503 C229 1.136 . S
C508 C327 1.066 . S
C519 C257 1.100 . S
C524 C243 1.192 . S
C535 C5 1.040 . S
C540 C117 1.027 . S
C551 C131 1.059 . S
C556 C19 1.002 . S
C567 C145 0.984 . S
C572 C33 0.918 . S
C583 C47 0.895 . S
C588 C159 1.044 . S
C599 C61 0.902 . S
C604 C89 1.014 . S
C615 C75 1.057 . S
C620 C103 0.897 . S
C631 C292 1.341 . S
C636 C180 1.349 . S
C647 C194 1.348 . S
C652 C306 1.347 . S
C663 C320 1.343 . S
C668 C208 1.340 . S
C679 C334 1.344 . S
C684 C222 1.340 . S
C695 C264 1.342 . S
C700 C236 1.341 . S
C711 C250 1.343 . S
C716 C278 1.350 . S
C727 C11 1.473 . S
C732 C221 1.476 . S
C743 C235 1.490 . S
C748 C25 1.507 . S
C759 C249 1.485 . S
C764 C39 1.504 . S
C775 C53 1.467 . S
C780 C179 1.484 . S
C791 C67 1.486 . S
C796 C193 1.508 . S
C807 C207 1.485 . S
C812 C81 1.505 . S
C823 C305 1.474 . S
C828 C95 1.476 . S
C839 C319 1.493 . S
C844 C109 1.507 . S
C855 C333 1.475 . S
C860 C123 1.475 . S
C871 C263 1.489 . S
C876 C137 1.467 . S
C887 C151 1.481 . S
C892 C277 1.506 . S
C903 C165 1.469 . S
C908 C291 1.496 . S
C919 C4 1.452 . S
C924 C144 1.483 . S
C935 C158 1.472 . S
C940 C18 1.434 . S
C951 C88 1.460 . S
C956 C32 1.443 . S
C967 C46 1.492 . S
C972 C102 1.424 . S
C983 C60 1.494 . S
C988 C116 1.436 . S
C999 C74 1.494 . S
C1004 C130 1.434 . S
C1015 C172 1.517 . S
C1020 C312 1.499 . S
C1031 C186 1.500 . S
C1036 C326 1.526 . S
C1047 C200 1.514 . S
C1052 C256 1.502 . S
C1063 C270 1.499 . S
C1068 C214 1.518 . S
C1079 C228 1.500 . S
C1084 C284 1.526 . S
C1095 C242 1.518 . S
C1100 C298 1.499 . S
