# Generated by pormake.
# Topology wkq, (6)-cn, num edge types: 1
# Building blocks:
#     Node 0, Type 0, BuildingBlock: OJICUG_clean_sbu_0, # of connection points: 6
#     Node 1, Type 0, BuildingBlock: OJICUG_clean_sbu_0, # of connection points: 6
#     Node 2, Type 0, BuildingBlock: OJICUG_clean_sbu_0, # of connection points: 6
#     Node 3, Type 0, BuildingBlock: OJICUG_clean_sbu_0, # of connection points: 6
#     Node 4, Type 0, BuildingBlock: OJICUG_clean_sbu_0, # of connection points: 6
#     Node 5, Type 0, BuildingBlock: OJICUG_clean_sbu_0, # of connection points: 6
#     Node 6, Type 0, BuildingBlock: OJICUG_clean_sbu_0, # of connection points: 6
#     Node 7, Type 0, BuildingBlock: OJICUG_clean_sbu_0, # of connection points: 6
#     Node 8, Type 0, BuildingBlock: OJICUG_clean_sbu_0, # of connection points: 6
#     Node 9, Type 0, BuildingBlock: OJICUG_clean_sbu_0, # of connection points: 6
#     Node 10, Type 0, BuildingBlock: OJICUG_clean_sbu_0, # of connection points: 6
#     Node 11, Type 0, BuildingBlock: OJICUG_clean_sbu_0, # of connection points: 6
#     Edge 12, Type (0, 0), BuildingBlock: UVAHIK_clean_linker_0, # of connection points: 2
#     Edge 13, Type (0, 0), BuildingBlock: UVAHIK_clean_linker_0, # of connection points: 2
#     Edge 14, Type (0, 0), BuildingBlock: UVAHIK_clean_linker_0, # of connection points: 2
#     Edge 15, Type (0, 0), BuildingBlock: UVAHIK_clean_linker_0, # of connection points: 2
#     Edge 16, Type (0, 0), BuildingBlock: UVAHIK_clean_linker_0, # of connection points: 2
#     Edge 17, Type (0, 0), BuildingBlock: UVAHIK_clean_linker_0, # of connection points: 2
#     Edge 18, Type (0, 0), BuildingBlock: UVAHIK_clean_linker_0, # of connection points: 2
#     Edge 19, Type (0, 0), BuildingBlock: UVAHIK_clean_linker_0, # of connection points: 2
#     Edge 20, Type (0, 0), BuildingBlock: UVAHIK_clean_linker_0, # of connection points: 2
#     Edge 21, Type (0, 0), BuildingBlock: UVAHIK_clean_linker_0, # of connection points: 2
#     Edge 22, Type (0, 0), BuildingBlock: UVAHIK_clean_linker_0, # of connection points: 2
#     Edge 23, Type (0, 0), BuildingBlock: UVAHIK_clean_linker_0, # of connection points: 2
#     Edge 24, Type (0, 0), BuildingBlock: UVAHIK_clean_linker_0, # of connection points: 2
#     Edge 25, Type (0, 0), BuildingBlock: UVAHIK_clean_linker_0, # of connection points: 2
#     Edge 26, Type (0, 0), BuildingBlock: UVAHIK_clean_linker_0, # of connection points: 2
#     Edge 27, Type (0, 0), BuildingBlock: UVAHIK_clean_linker_0, # of connection points: 2
#     Edge 28, Type (0, 0), BuildingBlock: UVAHIK_clean_linker_0, # of connection points: 2
#     Edge 29, Type (0, 0), BuildingBlock: UVAHIK_clean_linker_0, # of connection points: 2
#     Edge 30, Type (0, 0), BuildingBlock: UVAHIK_clean_linker_0, # of connection points: 2
#     Edge 31, Type (0, 0), BuildingBlock: UVAHIK_clean_linker_0, # of connection points: 2
#     Edge 32, Type (0, 0), BuildingBlock: UVAHIK_clean_linker_0, # of connection points: 2
#     Edge 33, Type (0, 0), BuildingBlock: UVAHIK_clean_linker_0, # of connection points: 2
#     Edge 34, Type (0, 0), BuildingBlock: UVAHIK_clean_linker_0, # of connection points: 2
#     Edge 35, Type (0, 0), BuildingBlock: UVAHIK_clean_linker_0, # of connection points: 2
#     Edge 36, Type (0, 0), BuildingBlock: UVAHIK_clean_linker_0, # of connection points: 2
#     Edge 37, Type (0, 0), BuildingBlock: UVAHIK_clean_linker_0, # of connection points: 2
#     Edge 38, Type (0, 0), BuildingBlock: UVAHIK_clean_linker_0, # of connection points: 2
#     Edge 39, Type (0, 0), BuildingBlock: UVAHIK_clean_linker_0, # of connection points: 2
#     Edge 40, Type (0, 0), BuildingBlock: UVAHIK_clean_linker_0, # of connection points: 2
#     Edge 41, Type (0, 0), BuildingBlock: UVAHIK_clean_linker_0, # of connection points: 2
#     Edge 42, Type (0, 0), BuildingBlock: UVAHIK_clean_linker_0, # of connection points: 2
#     Edge 43, Type (0, 0), BuildingBlock: UVAHIK_clean_linker_0, # of connection points: 2
#     Edge 44, Type (0, 0), BuildingBlock: UVAHIK_clean_linker_0, # of connection points: 2
#     Edge 45, Type (0, 0), BuildingBlock: UVAHIK_clean_linker_0, # of connection points: 2
#     Edge 46, Type (0, 0), BuildingBlock: UVAHIK_clean_linker_0, # of connection points: 2
#     Edge 47, Type (0, 0), BuildingBlock: UVAHIK_clean_linker_0, # of connection points: 2
# Relax obj value: 0.340
# Max RMSD: 0.275
# Mean RMSD: 0.275
data_MOF--net-wkq--node1-OJICUG_clean_sbu_0--edge1-UVAHIK_clean_linker_0
_symmetry_space_group_name_H-M    P1
_symmetry_Int_Tables_number       1
_symmetry_cell_setting            triclinic
loop_
_symmetry_equiv_pos_as_xyz
'x, y, z'
_cell_length_a     50.072099
_cell_length_b     50.070353
_cell_length_c     44.369095
_cell_angle_alpha  89.992799
_cell_angle_beta   90.026817
_cell_angle_gamma 119.99084
loop_
_atom_site_label
_atom_site_type_symbol
_atom_site_fract_x
_atom_site_fract_y
_atom_site_fract_z
_atom_type_partial_charge
Sc0 Sc 0.20612 0.42259 0.98284 0.0
Sc1 Sc 0.24593 0.43695 0.05194 0.0
Sc2 Sc 0.19881 0.36067 0.02738 0.0
O3 O 0.21698 0.40674 0.0207 0.0
C4 C 0.14167 0.36269 -0.00244 0.0
C5 C 0.20578 0.46801 0.03312 0.0
C6 C 0.19441 0.3834 0.09289 0.0
C7 C 0.27802 0.47122 0.99077 0.0
C8 C 0.21635 0.36828 0.95777 0.0
C9 C 0.26591 0.3859 0.05612 0.0
O10 O 0.15723 0.38947 0.98615 0.0
O11 O 0.22336 0.46385 0.05074 0.0
O12 O 0.18475 0.36257 0.07273 0.0
O13 O 0.25333 0.45782 0.97533 0.0
O14 O 0.2114 0.35447 0.98293 0.0
O15 O 0.27186 0.41363 0.0585 0.0
O16 O 0.21496 0.39279 0.95391 0.0
O17 O 0.2791 0.46569 0.01857 0.0
O18 O 0.24094 0.3648 0.04468 0.0
O19 O 0.19713 0.45463 0.00765 0.0
O20 O 0.15393 0.34979 0.01214 0.0
O21 O 0.21595 0.41094 0.08833 0.0
Sc22 Sc 0.8395 0.20157 0.19115 0.0
Sc23 Sc 0.81008 0.24842 0.21563 0.0
Sc24 Sc 0.78317 0.2072 0.14769 0.0
O25 O 0.81098 0.21907 0.18478 0.0
C26 C 0.84702 0.21728 0.121 0.0
C27 C 0.88148 0.26816 0.21957 0.0
C28 C 0.80807 0.27981 0.15437 0.0
C29 C 0.81137 0.19699 0.25662 0.0
C30 C 0.77953 0.14324 0.1638 0.0
C31 C 0.7385 0.20904 0.19739 0.0
O32 O 0.8563 0.21205 0.14579 0.0
O33 O 0.85888 0.27243 0.22411 0.0
O34 O 0.79423 0.25428 0.14022 0.0
O35 O 0.82521 0.18958 0.23721 0.0
O36 O 0.76857 0.15854 0.15121 0.0
O37 O 0.76099 0.22844 0.21321 0.0
O38 O 0.80463 0.156 0.17851 0.0
O39 O 0.80329 0.21703 0.25175 0.0
O40 O 0.74229 0.19742 0.17338 0.0
O41 O 0.87854 0.24454 0.20587 0.0
O42 O 0.82138 0.2166 0.11797 0.0
O43 O 0.81704 0.28196 0.18157 0.0
Sc44 Sc 0.58377 0.7855 0.31152 0.0
Sc45 Sc 0.56826 0.81102 0.37983 0.0
Sc46 Sc 0.64497 0.84087 0.35624 0.0
O47 O 0.59901 0.81252 0.34917 0.0
C48 C 0.64421 0.78204 0.327 0.0
C49 C 0.53763 0.73969 0.36103 0.0
C50 C 0.62095 0.81158 0.42091 0.0
C51 C 0.53459 0.8084 0.3184 0.0
C52 C 0.63716 0.85079 0.28655 0.0
C53 C 0.61931 0.88211 0.38525 0.0
O54 O 0.61768 0.77078 0.31502 0.0
O55 O 0.54072 0.76164 0.37776 0.0
O56 O 0.64241 0.82438 0.40151 0.0
O57 O 0.54764 0.79618 0.30384 0.0
O58 O 0.65113 0.85981 0.31168 0.0
O59 O 0.59174 0.86007 0.3877 0.0
O60 O 0.61302 0.82454 0.28281 0.0
O61 O 0.54058 0.81652 0.34587 0.0
O62 O 0.64049 0.87868 0.3734 0.0
O63 O 0.55231 0.74419 0.33638 0.0
O64 O 0.65659 0.80719 0.34158 0.0
O65 O 0.59336 0.80536 0.41614 0.0
Sc66 Sc 0.80409 0.64319 0.5266 0.0
Sc67 Sc 0.75545 0.56682 0.55002 0.0
Sc68 Sc 0.79683 0.58113 0.48218 0.0
O69 O 0.78549 0.59709 0.51961 0.0
C70 C 0.78735 0.63573 0.45652 0.0
C71 C 0.73709 0.6192 0.55436 0.0
C72 C 0.72427 0.53372 0.4886 0.0
C73 C 0.80683 0.6188 0.59209 0.0
C74 C 0.86144 0.6406 0.49806 0.0
C75 C 0.79461 0.5343 0.5319 0.0
O76 O 0.79287 0.65 0.48152 0.0
O77 O 0.73113 0.59155 0.55739 0.0
O78 O 0.74963 0.54571 0.47421 0.0
O79 O 0.81633 0.64029 0.57259 0.0
O80 O 0.84563 0.61437 0.48562 0.0
O81 O 0.77577 0.53791 0.54813 0.0
O82 O 0.84925 0.65331 0.51305 0.0
O83 O 0.78574 0.59122 0.58674 0.0
O84 O 0.80578 0.54929 0.50756 0.0
O85 O 0.7619 0.63997 0.54242 0.0
O86 O 0.78811 0.61083 0.45312 0.0
O87 O 0.72237 0.54012 0.51594 0.0
Sc88 Sc 0.21544 0.79318 0.64664 0.0
Sc89 Sc 0.18721 0.75049 0.71384 0.0
Sc90 Sc 0.16013 0.79979 0.69034 0.0
O91 O 0.18755 0.7811 0.6836 0.0
C92 C 0.22027 0.85738 0.66222 0.0
C93 C 0.2591 0.78947 0.69677 0.0
C94 C 0.18786 0.80312 0.75541 0.0
C95 C 0.18954 0.72033 0.6516 0.0
C96 C 0.15134 0.78368 0.62053 0.0
C97 C 0.11686 0.73286 0.71874 0.0
O98 O 0.23207 0.84206 0.65157 0.0
O99 O 0.23643 0.77089 0.7129 0.0
O100 O 0.17671 0.81329 0.73567 0.0
O101 O 0.20239 0.74593 0.63758 0.0
O102 O 0.14145 0.78736 0.64572 0.0
O103 O 0.13794 0.72587 0.72061 0.0
O104 O 0.17777 0.78611 0.61715 0.0
O105 O 0.18182 0.71786 0.67924 0.0
O106 O 0.1216 0.75821 0.70757 0.0
O107 O 0.25564 0.80059 0.67222 0.0
O108 O 0.19436 0.84474 0.67543 0.0
O109 O 0.19266 0.78076 0.75068 0.0
Sc110 Sc 0.36236 0.15945 0.86021 0.0
Sc111 Sc 0.43934 0.19048 0.88298 0.0
Sc112 Sc 0.42282 0.21612 0.8155 0.0
O113 O 0.4081 0.18863 0.85285 0.0
C114 C 0.36925 0.15125 0.79003 0.0
C115 C 0.38889 0.11896 0.88845 0.0
C116 C 0.47124 0.1921 0.82095 0.0
C117 C 0.38718 0.18916 0.92494 0.0
C118 C 0.36217 0.21844 0.83248 0.0
C119 C 0.4703 0.26173 0.86412 0.0
O120 O 0.35559 0.14173 0.8152 0.0
O121 O 0.41572 0.14193 0.89189 0.0
O122 O 0.45892 0.20545 0.80702 0.0
O123 O 0.36547 0.17491 0.906 0.0
O124 O 0.38856 0.23023 0.82009 0.0
O125 O 0.46774 0.2395 0.87996 0.0
O126 O 0.35028 0.19321 0.84694 0.0
O127 O 0.41519 0.19717 0.91954 0.0
O128 O 0.45429 0.25754 0.84044 0.0
O129 O 0.36739 0.12119 0.87562 0.0
O130 O 0.39349 0.17741 0.78642 0.0
O131 O 0.46535 0.18363 0.84835 0.0
Sc132 Sc 0.64076 0.80438 0.79895 0.0
Sc133 Sc 0.56383 0.75234 0.78032 0.0
Sc134 Sc 0.58076 0.79813 0.84576 0.0
O135 O 0.59511 0.78499 0.80833 0.0
C136 C 0.63758 0.79123 0.8696 0.0
C137 C 0.6172 0.73579 0.77514 0.0
C138 C 0.53414 0.7251 0.84414 0.0
C139 C 0.61264 0.80197 0.73436 0.0
C140 C 0.63842 0.86243 0.82592 0.0
C141 C 0.53116 0.79175 0.797 0.0
O142 O 0.65002 0.79529 0.84375 0.0
O143 O 0.58892 0.72814 0.7742 0.0
O144 O 0.54659 0.75131 0.85701 0.0
O145 O 0.63483 0.8143 0.75308 0.0
O146 O 0.61275 0.84694 0.83941 0.0
O147 O 0.53461 0.77233 0.78154 0.0
O148 O 0.65079 0.84981 0.81111 0.0
O149 O 0.58602 0.77982 0.74122 0.0
O150 O 0.5469 0.80439 0.82068 0.0
O151 O 0.63799 0.76213 0.78423 0.0
O152 O 0.6129 0.79218 0.87422 0.0
O153 O 0.53912 0.72158 0.81675 0.0
Sc154 Sc 0.83557 0.64426 0.96957 0.0
Sc155 Sc 0.81017 0.56827 0.94581 0.0
Sc156 Sc 0.78227 0.58123 0.01382 0.0
O157 O 0.80938 0.59795 0.97643 0.0
C158 C 0.84609 0.63703 0.03904 0.0
C159 C 0.87992 0.62192 0.94082 0.0
C160 C 0.80896 0.53513 0.00729 0.0
C161 C 0.80767 0.61968 0.90474 0.0
C162 C 0.77537 0.63976 -0.00048 0.0
C163 C 0.73843 0.53421 0.96359 0.0
O164 O 0.85484 0.65094 0.01388 0.0
O165 O 0.8593 0.59369 0.93924 0.0
O166 O 0.79578 0.5472 0.02185 0.0
O167 O 0.81822 0.64086 0.92459 0.0
O168 O 0.76475 0.61278 0.01012 0.0
O169 O 0.76104 0.53886 0.94705 0.0
O170 O 0.80076 0.6539 0.98548 0.0
O171 O 0.8039 0.59288 0.90926 0.0
O172 O 0.74193 0.54834 0.98845 0.0
O173 O 0.87463 0.64236 0.95153 0.0
O174 O 0.82046 0.61215 0.04284 0.0
O175 O 0.81666 0.54121 0.97974 0.0
Sc176 Sc 0.20276 0.84111 0.13382 0.0
Sc177 Sc 0.24664 0.80737 0.11217 0.0
Sc178 Sc 0.20462 0.78431 0.18008 0.0
O179 O 0.21801 0.81095 0.14204 0.0
C180 C 0.21831 0.85059 0.20392 0.0
C181 C 0.27069 0.87925 0.10623 0.0
C182 C 0.27593 0.80424 0.17487 0.0
C183 C 0.19803 0.81203 0.06902 0.0
C184 C 0.14265 0.78377 0.1624 0.0
C185 C 0.20316 0.73679 0.13145 0.0
O186 O 0.21506 0.8601 0.17836 0.0
O187 O 0.27457 0.8561 0.10458 0.0
O188 O 0.25079 0.79384 0.18943 0.0
O189 O 0.18944 0.82511 0.08821 0.0
O190 O 0.15658 0.77123 0.17474 0.0
O191 O 0.22201 0.75801 0.11411 0.0
O192 O 0.15665 0.80898 0.14795 0.0
O193 O 0.218 0.80411 0.07481 0.0
O194 O 0.19416 0.7422 0.15636 0.0
O195 O 0.24649 0.87756 0.11731 0.0
O196 O 0.21467 0.82379 0.2082 0.0
O197 O 0.27827 0.81089 0.14697 0.0
Sc198 Sc 0.35939 0.1992 0.3039 0.0
Sc199 Sc 0.43595 0.24956 0.28224 0.0
Sc200 Sc 0.42104 0.20534 0.34822 0.0
O201 O 0.4054 0.21799 0.31144 0.0
C202 C 0.36595 0.21372 0.37443 0.0
C203 C 0.38281 0.26689 0.27815 0.0
C204 C 0.46772 0.27835 0.34469 0.0
C205 C 0.38534 0.19901 0.23853 0.0
C206 C 0.36205 0.14112 0.33039 0.0
C207 C 0.46892 0.21031 0.2985 0.0
O208 O 0.35193 0.20898 0.34933 0.0
O209 O 0.41068 0.27346 0.27548 0.0
O210 O 0.45619 0.25232 0.35784 0.0
O211 O 0.36342 0.18853 0.25761 0.0
O212 O 0.38813 0.15658 0.34318 0.0
O213 O 0.4656 0.23003 0.28344 0.0
O214 O 0.3494 0.15375 0.31603 0.0
O215 O 0.41262 0.22037 0.24456 0.0
O216 O 0.45327 0.19758 0.32215 0.0
O217 O 0.36215 0.24153 0.28928 0.0
O218 O 0.39081 0.21283 0.37769 0.0
O219 O 0.46136 0.2814 0.31763 0.0
Sc220 Sc 0.16586 0.36164 0.46667 0.0
Sc221 Sc 0.1989 0.4376 0.43976 0.0
Sc222 Sc 0.22128 0.4236 0.51074 0.0
O223 O 0.19529 0.40762 0.47243 0.0
C224 C 0.1558 0.37088 0.53573 0.0
C225 C 0.12701 0.38845 0.43465 0.0
C226 C 0.19915 0.47275 0.49986 0.0
C227 C 0.19607 0.38213 0.40176 0.0
C228 C 0.22422 0.36252 0.4976 0.0
C229 C 0.26916 0.46796 0.46108 0.0
O230 O 0.1466 0.35686 0.51072 0.0
O231 O 0.15015 0.41524 0.4311 0.0
O232 O 0.20924 0.45898 0.51646 0.0
O233 O 0.18219 0.3618 0.42194 0.0
O234 O 0.23601 0.38959 0.50856 0.0
O235 O 0.24814 0.46353 0.44245 0.0
O236 O 0.19896 0.34989 0.48311 0.0
O237 O 0.20388 0.41036 0.40514 0.0
O238 O 0.26347 0.45531 0.48697 0.0
O239 O 0.12886 0.36705 0.44822 0.0
O240 O 0.18215 0.39475 0.53947 0.0
O241 O 0.19413 0.46749 0.47174 0.0
Sc242 Sc 0.80399 0.16282 0.63398 0.0
Sc243 Sc 0.75554 0.19059 0.60984 0.0
Sc244 Sc 0.79738 0.2185 0.6774 0.0
O245 O 0.78566 0.19063 0.64039 0.0
C246 C 0.78709 0.15428 0.70381 0.0
C247 C 0.73703 0.11984 0.60577 0.0
C248 C 0.72475 0.19315 0.67131 0.0
C249 C 0.80751 0.19009 0.56851 0.0
C250 C 0.86157 0.22279 0.66228 0.0
C251 C 0.79481 0.26249 0.62718 0.0
O252 O 0.79185 0.14479 0.67888 0.0
O253 O 0.73092 0.14144 0.60285 0.0
O254 O 0.75024 0.20661 0.68551 0.0
O255 O 0.81708 0.17836 0.58825 0.0
O256 O 0.84617 0.23424 0.67352 0.0
O257 O 0.77594 0.23986 0.61113 0.0
O258 O 0.84907 0.19727 0.64833 0.0
O259 O 0.78596 0.19605 0.57338 0.0
O260 O 0.80603 0.25893 0.6516 0.0
O261 O 0.76197 0.12406 0.61755 0.0
O262 O 0.7889 0.18046 0.70698 0.0
O263 O 0.72259 0.18467 0.64398 0.0
C264 C 0.18684 0.50496 0.02144 0.0
C265 C 0.19612 0.49034 0.04265 0.0
C266 C 0.18101 0.5284 0.03045 0.0
C267 C 0.16498 0.56348 0.09655 0.0
H268 H 0.20908 0.63939 0.05108 0.0
C269 C 0.18908 0.68209 0.14275 0.0
C270 C 0.19243 0.70469 0.12194 0.0
C271 C 0.18404 0.65337 0.13267 0.0
C272 C 0.19597 0.61828 0.06377 0.0
H273 H 0.20483 0.48771 0.0902 0.0
H274 H 0.19442 0.52824 0.10579 0.0
H275 H 0.20917 0.59349 0.03369 0.0
H276 H 0.19065 0.71421 0.07458 0.0
H277 H 0.18038 0.66394 0.05713 0.0
H278 H 0.15183 0.5883 0.12674 0.0
C279 C 0.19177 0.52174 0.08223 0.0
C280 C 0.19613 0.59191 0.05375 0.0
C281 C 0.19797 0.49865 0.07321 0.0
C282 C 0.1886 0.69735 0.09111 0.0
C283 C 0.18299 0.66858 0.08111 0.0
C284 C 0.16451 0.58982 0.10644 0.0
C285 C 0.18388 0.53734 0.0609 0.0
C286 C 0.18099 0.56432 0.0702 0.0
C287 C 0.18177 0.64656 0.10161 0.0
C288 C 0.18032 0.61772 0.09035 0.0
H289 H 0.18518 0.49911 -0.00225 0.0
H290 H 0.17473 0.53988 0.01353 0.0
H291 H 0.15291 0.54244 0.1096 0.0
H292 H 0.19212 0.68724 0.16664 0.0
H293 H 0.18344 0.63716 0.14918 0.0
C294 C 0.51057 0.21786 0.26238 0.0
C295 C 0.49235 0.20251 0.28768 0.0
C296 C 0.53319 0.21159 0.25213 0.0
C297 C 0.58285 0.18097 0.27728 0.0
H298 H 0.60278 0.18797 0.19212 0.0
C299 C 0.68056 0.18182 0.19032 0.0
C300 C 0.70692 0.2005 0.20774 0.0
C301 C 0.65129 0.17559 0.2 0.0
C302 C 0.59731 0.18538 0.21593 0.0
H303 H 0.48352 0.16792 0.32166 0.0
H304 H 0.52303 0.15667 0.30348 0.0
H305 H 0.5564 0.18791 0.2086 0.0
H306 H 0.72276 0.22649 0.24953 0.0
H307 H 0.6725 0.21621 0.26582 0.0
H308 H 0.62368 0.17828 0.28459 0.0
C309 C 0.5199 0.17392 0.29183 0.0
C310 C 0.57087 0.18579 0.22546 0.0
C311 C 0.49717 0.18029 0.30221 0.0
C312 C 0.70313 0.21207 0.23535 0.0
C313 C 0.67408 0.20588 0.24495 0.0
C314 C 0.60918 0.18037 0.26773 0.0
C315 C 0.53829 0.18961 0.26669 0.0
C316 C 0.56381 0.18457 0.25633 0.0
C317 C 0.64775 0.1878 0.22737 0.0
C318 C 0.6173 0.18356 0.23701 0.0
H319 H 0.50774 0.23521 0.25056 0.0
H320 H 0.54725 0.22467 0.23317 0.0
H321 H 0.57827 0.18004 0.30121 0.0
H322 H 0.68257 0.17243 0.169 0.0
H323 H 0.63147 0.16134 0.18599 0.0
C324 C 0.30932 0.4924 0.42123 0.0
C325 C 0.30132 0.48977 0.45188 0.0
C326 C 0.33799 0.51578 0.41125 0.0
C327 C 0.41569 0.57809 0.43677 0.0
H328 H 0.41265 0.61606 0.3616 0.0
C329 C 0.50636 0.70197 0.40134 0.0
C330 C 0.51527 0.70781 0.37088 0.0
C331 C 0.48328 0.67283 0.41067 0.0
C332 C 0.41408 0.60545 0.38236 0.0
H333 H 0.31759 0.50881 0.49632 0.0
H334 H 0.36751 0.55047 0.47885 0.0
H335 H 0.36687 0.57016 0.37941 0.0
H336 H 0.5075 0.68716 0.32649 0.0
H337 H 0.4667 0.6361 0.3428 0.0
H338 H 0.46275 0.61452 0.44012 0.0
C339 C 0.35186 0.53404 0.4625 0.0
C340 C 0.38777 0.57899 0.39263 0.0
C341 C 0.32322 0.51019 0.47259 0.0
C342 C 0.50119 0.68343 0.3501 0.0
C343 C 0.47773 0.65427 0.35941 0.0
C344 C 0.44196 0.6048 0.4266 0.0
C345 C 0.3593 0.53764 0.43154 0.0
C346 C 0.38808 0.56499 0.4201 0.0
C347 C 0.46823 0.64879 0.38975 0.0
C348 C 0.44136 0.61893 0.39938 0.0
H349 H 0.29304 0.47671 0.40477 0.0
H350 H 0.34313 0.51709 0.38741 0.0
H351 H 0.41704 0.56779 0.45775 0.0
H352 H 0.51687 0.72015 0.41802 0.0
H353 H 0.47636 0.66949 0.43413 0.0
C354 C 0.78976 0.49399 0.56845 0.0
C355 C 0.80294 0.51101 0.54196 0.0
C356 C 0.79601 0.47105 0.57772 0.0
C357 C 0.82116 0.41823 0.54856 0.0
H358 H 0.82075 0.40004 0.63359 0.0
C359 C 0.78978 0.29767 0.59035 0.0
C360 C 0.80312 0.29401 0.61683 0.0
C361 C 0.796 0.32679 0.58089 0.0
C362 C 0.82147 0.40497 0.60975 0.0
H363 H 0.83382 0.51754 0.50487 0.0
H364 H 0.84509 0.47753 0.52134 0.0
H365 H 0.82169 0.44714 0.61824 0.0
H366 H 0.83431 0.31864 0.65366 0.0
H367 H 0.84555 0.36978 0.63686 0.0
H368 H 0.82121 0.37619 0.54008 0.0
C369 C 0.8295 0.48179 0.5347 0.0
C370 C 0.82157 0.43185 0.60091 0.0
C371 C 0.82315 0.50483 0.5253 0.0
C372 C 0.8235 0.32052 0.63325 0.0
C373 C 0.82983 0.34984 0.62367 0.0
C374 C 0.8213 0.39146 0.55741 0.0
C375 C 0.81579 0.46444 0.56095 0.0
C376 C 0.82042 0.43835 0.5702 0.0
C377 C 0.81593 0.35331 0.59746 0.0
C378 C 0.82046 0.38397 0.58813 0.0
H379 H 0.77404 0.49792 0.58196 0.0
H380 H 0.78447 0.45786 0.59767 0.0
H381 H 0.82021 0.42234 0.52473 0.0
H382 H 0.77393 0.2779 0.57702 0.0
H383 H 0.78433 0.32832 0.56097 0.0
C384 C 0.50132 0.82011 0.80221 0.0
C385 C 0.50737 0.79925 0.78658 0.0
C386 C 0.4781 0.82597 0.79225 0.0
C387 C 0.428 0.8157 0.72553 0.0
H388 H 0.37242 0.81761 0.78505 0.0
C389 C 0.29404 0.78493 0.73428 0.0
C390 C 0.29054 0.79769 0.70731 0.0
C391 C 0.32308 0.79122 0.7441 0.0
C392 C 0.38768 0.81707 0.76809 0.0
H393 H 0.49371 0.76854 0.74788 0.0
H394 H 0.45343 0.77821 0.73119 0.0
H395 H 0.41848 0.81695 0.8015 0.0
H396 H 0.31538 0.82787 0.66993 0.0
H397 H 0.36639 0.83918 0.68733 0.0
H398 H 0.39631 0.81399 0.69217 0.0
C399 C 0.46686 0.7906 0.75075 0.0
C400 C 0.41438 0.81711 0.77755 0.0
C401 C 0.48992 0.78481 0.76059 0.0
C402 C 0.31714 0.81752 0.69072 0.0
C403 C 0.34638 0.8239 0.70065 0.0
C404 C 0.40122 0.81546 0.71608 0.0
C405 C 0.46048 0.81115 0.76642 0.0
C406 C 0.43446 0.81555 0.75641 0.0
C407 C 0.34968 0.81062 0.7274 0.0
C408 C 0.38025 0.81527 0.73725 0.0
H409 H 0.51433 0.83173 0.82224 0.0
H410 H 0.47398 0.84212 0.80478 0.0
H411 H 0.44326 0.81516 0.70856 0.0
H412 H 0.27422 0.76953 0.74777 0.0
H413 H 0.32449 0.78003 0.76445 0.0
C414 C 0.68045 0.50356 0.97004 0.0
C415 C 0.707 0.51093 0.95309 0.0
C416 C 0.65125 0.48065 0.9601 0.0
C417 C 0.59696 0.41726 0.94438 0.0
H418 H 0.57926 0.40172 0.859 0.0
C419 C 0.51133 0.29724 0.89995 0.0
C420 C 0.49332 0.29344 0.87419 0.0
C421 C 0.53366 0.32645 0.90964 0.0
C422 C 0.58347 0.40593 0.88294 0.0
H423 H 0.72326 0.50015 0.91194 0.0
H424 H 0.67309 0.46026 0.89527 0.0
H425 H 0.62471 0.44904 0.87542 0.0
H426 H 0.48462 0.31792 0.83873 0.0
H427 H 0.52375 0.3694 0.85596 0.0
H428 H 0.55565 0.37428 0.95192 0.0
C429 C 0.67448 0.47243 0.9159 0.0
C430 C 0.60983 0.43292 0.89239 0.0
C431 C 0.70348 0.49524 0.92573 0.0
C432 C 0.49809 0.31994 0.85858 0.0
C433 C 0.52059 0.34943 0.86842 0.0
C434 C 0.57051 0.39041 0.93494 0.0
C435 C 0.64794 0.46459 0.93298 0.0
C436 C 0.61749 0.43845 0.9232 0.0
C437 C 0.53871 0.353 0.89408 0.0
C438 C 0.56397 0.38386 0.90407 0.0
H439 H 0.68223 0.51524 0.99112 0.0
H440 H 0.63129 0.47544 0.97372 0.0
H441 H 0.60203 0.42058 0.96826 0.0
H442 H 0.50858 0.27753 0.91262 0.0
H443 H 0.54757 0.32808 0.92901 0.0
C444 C 0.31341 0.39886 0.08645 0.0
C445 C 0.28601 0.37667 0.07238 0.0
C446 C 0.32845 0.38999 0.1074 0.0
C447 C 0.32828 0.32058 0.13984 0.0
H448 H 0.35909 0.37176 0.21136 0.0
C449 C 0.34197 0.27372 0.25288 0.0
C450 C 0.37294 0.28646 0.26191 0.0
C451 C 0.33372 0.28815 0.23081 0.0
C452 C 0.3507 0.35741 0.19142 0.0
H453 H 0.2542 0.3275 0.06808 0.0
H454 H 0.27963 0.31222 0.10478 0.0
H455 H 0.34206 0.38973 0.1681 0.0
H456 H 0.41892 0.32596 0.25679 0.0
H457 H 0.40402 0.35173 0.21888 0.0
H458 H 0.33544 0.28763 0.16403 0.0
C459 C 0.29004 0.3365 0.09946 0.0
C460 C 0.34119 0.36774 0.16647 0.0
C461 C 0.27527 0.34532 0.07829 0.0
C462 C 0.3949 0.31547 0.25034 0.0
C463 C 0.38645 0.33021 0.22861 0.0
C464 C 0.33716 0.31007 0.16495 0.0
C465 C 0.31632 0.35872 0.11502 0.0
C466 C 0.32943 0.34926 0.14044 0.0
C467 C 0.35606 0.31597 0.2178 0.0
C468 C 0.34807 0.3282 0.19105 0.0
H469 H 0.32249 0.42322 0.08233 0.0
H470 H 0.34908 0.40775 0.11827 0.0
H471 H 0.32018 0.30598 0.12007 0.0
H472 H 0.32441 0.25142 0.26115 0.0
H473 H 0.31007 0.27692 0.22294 0.0
C474 C 0.93557 0.28272 0.23466 0.0
C475 C 0.91087 0.28857 0.23566 0.0
C476 C 0.96012 0.29713 0.25504 0.0
C477 C 0.99552 0.35914 0.31366 0.0
H478 H 0.02257 0.30511 0.34714 0.0
C479 C 0.09818 0.4014 0.39655 0.0
C480 C 0.09833 0.38049 0.41769 0.0
C481 C 0.07425 0.39191 0.3756 0.0
C482 C 0.01499 0.32043 0.33841 0.0
H483 H 0.89405 0.31611 0.25759 0.0
H484 H 0.93624 0.34057 0.29317 0.0
H485 H 0.98536 0.28686 0.3063 0.0
H486 H 0.07182 0.3338 0.43488 0.0
H487 H 0.02958 0.3176 0.39909 0.0
H488 H 0.02434 0.3923 0.34662 0.0
C489 C 0.93693 0.32508 0.27657 0.0
C490 C 0.99405 0.31014 0.31445 0.0
C491 C 0.91255 0.31089 0.25608 0.0
C492 C 0.07268 0.3505 0.41881 0.0
C493 C 0.04859 0.34108 0.39799 0.0
C494 C 0.01631 0.36936 0.33781 0.0
C495 C 0.96052 0.3176 0.27704 0.0
C496 C 0.98402 0.32934 0.30167 0.0
C497 C 0.04962 0.36133 0.37538 0.0
C498 C 0.02636 0.35014 0.35054 0.0
H499 H 0.93525 0.26586 0.21915 0.0
H500 H 0.97832 0.29144 0.25414 0.0
H501 H 0.98856 0.37471 0.30432 0.0
H502 H 0.11748 0.42469 0.39489 0.0
H503 H 0.07605 0.40818 0.35853 0.0
C504 C 0.68904 0.08416 0.57668 0.0
C505 C 0.7171 0.09025 0.58986 0.0
C506 C 0.67378 0.05985 0.55616 0.0
C507 C 0.67488 0.99114 0.52353 0.0
H508 H 0.64008 0.0089 0.45336 0.0
C509 C 0.65947 0.93049 0.41014 0.0
C510 C 0.62836 0.91103 0.40219 0.0
C511 C 0.66756 0.95306 0.4323 0.0
C512 C 0.64957 0.00366 0.47294 0.0
H513 H 0.75009 0.07424 0.59293 0.0
H514 H 0.72427 0.03287 0.55693 0.0
H515 H 0.65793 0.04462 0.49605 0.0
H516 H 0.58173 0.90208 0.40952 0.0
H517 H 0.59628 0.94254 0.44762 0.0
H518 H 0.668 0.95107 0.49946 0.0
C519 C 0.71347 0.04628 0.56268 0.0
C520 C 0.65957 0.02391 0.49757 0.0
C521 C 0.72845 0.07024 0.58345 0.0
C522 C 0.60588 0.91659 0.4151 0.0
C523 C 0.61413 0.93965 0.43694 0.0
C524 C 0.66549 0.97133 0.49871 0.0
C525 C 0.68637 0.04124 0.54805 0.0
C526 C 0.67279 0.01817 0.52309 0.0
C527 C 0.64487 0.95717 0.44651 0.0
C528 C 0.65312 0.97762 0.4731 0.0
H529 H 0.67949 0.09897 0.58121 0.0
H530 H 0.65255 0.05626 0.54604 0.0
H531 H 0.68412 0.98537 0.54293 0.0
H532 H 0.67746 0.92696 0.40082 0.0
H533 H 0.69146 0.96653 0.43922 0.0
C534 C 0.65842 0.72725 0.75334 0.0
C535 C 0.62704 0.71573 0.7598 0.0
C536 C 0.66749 0.71228 0.7327 0.0
C537 C 0.63603 0.65882 0.66752 0.0
H538 H 0.71758 0.66789 0.66868 0.0
C539 C 0.68883 0.60664 0.58293 0.0
C540 C 0.71755 0.6288 0.571 0.0
C541 C 0.67419 0.6149 0.60491 0.0
C542 C 0.69474 0.66524 0.66812 0.0
H543 H 0.58083 0.67768 0.75159 0.0
H544 H 0.59681 0.65082 0.71655 0.0
H545 H 0.69926 0.68316 0.71265 0.0
H546 H 0.75221 0.67746 0.57144 0.0
H547 H 0.72689 0.69151 0.61006 0.0
H548 H 0.63162 0.64008 0.62299 0.0
C549 C 0.61434 0.67217 0.72656 0.0
C550 C 0.68423 0.6741 0.69323 0.0
C551 C 0.60519 0.68739 0.747 0.0
C552 C 0.73012 0.65976 0.57997 0.0
C553 C 0.71579 0.66783 0.60229 0.0
C554 C 0.64638 0.64937 0.64258 0.0
C555 C 0.64551 0.68504 0.71824 0.0
C556 C 0.65503 0.67177 0.69306 0.0
C557 C 0.68827 0.64532 0.61562 0.0
C558 C 0.6761 0.65321 0.64246 0.0
H559 H 0.67598 0.74901 0.76266 0.0
H560 H 0.69168 0.72323 0.72683 0.0
H561 H 0.6136 0.65702 0.66623 0.0
H562 H 0.67849 0.58261 0.57652 0.0
H563 H 0.65289 0.5972 0.61487 0.0
C564 C 0.0818 0.68645 0.75024 0.0
C565 C 0.08773 0.71394 0.73576 0.0
C566 C 0.05876 0.67301 0.77231 0.0
C567 C 0.02631 0.69719 0.83085 0.0
H568 H 0.95668 0.61401 0.83431 0.0
C569 C 0.92746 0.66291 0.91542 0.0
C570 C 0.90944 0.63204 0.92464 0.0
C571 C 0.95123 0.67146 0.89451 0.0
C572 C 0.97638 0.63713 0.83415 0.0
H573 H 0.07219 0.7473 0.73166 0.0
H574 H 0.03266 0.72411 0.77035 0.0
H575 H 0.9921 0.62977 0.7915 0.0
H576 H 0.90404 0.58642 0.9208 0.0
H577 H 0.94648 0.60161 0.88543 0.0
H578 H 0.01161 0.70469 0.87358 0.0
C579 C 0.04593 0.71313 0.76463 0.0
C580 C 0.99647 0.64614 0.80943 0.0
C581 C 0.06849 0.72624 0.74228 0.0
C582 C 0.91731 0.61038 0.91406 0.0
C583 C 0.94145 0.61904 0.89343 0.0
C584 C 0.00668 0.68806 0.85579 0.0
C585 C 0.04159 0.68704 0.78054 0.0
C586 C 0.02118 0.67645 0.8073 0.0
C587 C 0.95807 0.64951 0.88255 0.0
C588 C 0.98098 0.65811 0.85755 0.0
H589 H 0.09608 0.67629 0.7458 0.0
H590 H 0.05569 0.65278 0.78424 0.0
H591 H 0.04559 0.72057 0.82994 0.0
H592 H 0.92198 0.68024 0.92282 0.0
H593 H 0.96306 0.69506 0.88657 0.0
C594 C 0.40324 0.08973 0.92453 0.0
C595 C 0.38131 0.09013 0.9049 0.0
C596 C 0.39459 0.06606 0.94554 0.0
C597 C 0.33684 0.98755 0.96661 0.0
H598 H 0.3562 0.01749 0.04898 0.0
C599 C 0.28949 0.93404 0.09028 0.0
C600 C 0.2922 0.9074 0.08908 0.0
C601 C 0.30441 0.95756 0.06894 0.0
C602 C 0.35078 0.00886 0.0261 0.0
H603 H 0.33356 0.06427 0.89039 0.0
H604 H 0.31873 0.02235 0.92668 0.0
H605 H 0.37404 0.05427 0.00706 0.0
H606 H 0.31453 0.88576 0.06555 0.0
H607 H 0.34001 0.92654 0.02831 0.0
H608 H 0.31364 0.94212 0.98567 0.0
C609 C 0.34252 0.04081 0.92596 0.0
C610 C 0.36108 0.02981 0.00214 0.0
C611 C 0.35106 0.0648 0.90515 0.0
C612 C 0.31184 0.90586 0.06729 0.0
C613 C 0.32627 0.92908 0.0457 0.0
C614 C 0.32705 0.96656 0.99055 0.0
C615 C 0.36396 0.04191 0.9471 0.0
C616 C 0.35403 0.01937 0.97219 0.0
C617 C 0.32194 0.95467 0.04578 0.0
C618 C 0.33374 0.97704 0.02052 0.0
H619 H 0.42681 0.10866 0.92499 0.0
H620 H 0.41166 0.06717 0.96129 0.0
H621 H 0.3311 0.97895 0.94374 0.0
H622 H 0.27458 0.93602 0.10671 0.0
H623 H 0.30078 0.97714 0.0695 0.0
C624 C 0.50286 0.66781 0.85074 0.0
C625 C 0.51193 0.69759 0.8614 0.0
C626 C 0.4804 0.64184 0.86595 0.0
C627 C 0.4183 0.59303 0.88911 0.0
H628 H 0.40882 0.59134 0.97591 0.0
C629 C 0.30522 0.50656 0.94746 0.0
C630 C 0.30659 0.49486 0.97586 0.0
C631 C 0.33192 0.52974 0.93387 0.0
C632 C 0.41133 0.59119 0.95168 0.0
H633 H 0.50498 0.72339 0.8968 0.0
H634 H 0.46522 0.67819 0.92279 0.0
H635 H 0.45364 0.63427 0.95244 0.0
H636 H 0.33731 0.4978 0.01186 0.0
H637 H 0.38401 0.53774 0.98778 0.0
H638 H 0.37641 0.54965 0.88838 0.0
C639 C 0.4759 0.67481 0.90306 0.0
C640 C 0.43685 0.61605 0.93817 0.0
C641 C 0.49861 0.70078 0.88804 0.0
C642 C 0.33539 0.50648 0.99008 0.0
C643 C 0.36217 0.5295 0.97634 0.0
C644 C 0.39296 0.56806 0.90263 0.0
C645 C 0.46622 0.64501 0.89199 0.0
C646 C 0.44041 0.61751 0.90667 0.0
C647 C 0.36072 0.54159 0.94817 0.0
C648 C 0.38888 0.56706 0.93404 0.0
H649 H 0.51294 0.66453 0.83048 0.0
H650 H 0.474 0.61925 0.85713 0.0
H651 H 0.42004 0.59348 0.86477 0.0
H652 H 0.28341 0.4983 0.93594 0.0
H653 H 0.32981 0.53886 0.91243 0.0
C654 C 0.83292 0.50144 0.00973 0.0
C655 C 0.81462 0.51228 0.02297 0.0
C656 C 0.83703 0.47889 0.02412 0.0
C657 C 0.82689 0.43953 0.09805 0.0
H658 H 0.82359 0.37413 0.04862 0.0
C659 C 0.79804 0.30602 0.11136 0.0
C660 C 0.81339 0.30813 0.13856 0.0
C661 C 0.80206 0.33255 0.09692 0.0
C662 C 0.82438 0.39212 0.06279 0.0
H663 H 0.78659 0.50809 0.06196 0.0
H664 H 0.79303 0.4684 0.0865 0.0
H665 H 0.82301 0.41752 0.02469 0.0
H666 H 0.84579 0.33994 0.17141 0.0
H667 H 0.85337 0.38629 0.14581 0.0
H668 H 0.82652 0.41332 0.1362 0.0
C669 C 0.80485 0.47774 0.06536 0.0
C670 C 0.82452 0.41728 0.04903 0.0
C671 C 0.80096 0.50042 0.05113 0.0
C672 C 0.83338 0.33747 0.15064 0.0
C673 C 0.83763 0.36405 0.13602 0.0
C674 C 0.82647 0.41424 0.11182 0.0
C675 C 0.82275 0.46651 0.05197 0.0
C676 C 0.82529 0.44108 0.0665 0.0
C677 C 0.82178 0.36191 0.10912 0.0
C678 C 0.82473 0.38997 0.09439 0.0
H679 H 0.844 0.51026 0.98817 0.0
H680 H 0.85137 0.47114 0.01337 0.0
H681 H 0.82805 0.4577 0.11221 0.0
H682 H 0.78234 0.28381 0.10147 0.0
H683 H 0.78902 0.32991 0.07656 0.0
C684 C 0.33316 0.82651 0.17895 0.0
C685 C 0.30346 0.80801 0.19101 0.0
C686 C 0.35899 0.82911 0.19377 0.0
C687 C 0.40951 0.84196 0.24089 0.0
H688 H 0.40581 0.76492 0.2618 0.0
C689 C 0.49977 0.83099 0.31488 0.0
C690 C 0.51026 0.81183 0.30297 0.0
C691 C 0.47556 0.83268 0.30101 0.0
C692 C 0.40713 0.78659 0.25605 0.0
H693 H 0.27769 0.77806 0.22828 0.0
H694 H 0.3228 0.7822 0.25374 0.0
H695 H 0.36109 0.76407 0.23868 0.0
H696 H 0.50384 0.77983 0.26689 0.0
H697 H 0.46135 0.78246 0.24315 0.0
H698 H 0.45561 0.86442 0.25853 0.0
C699 C 0.32599 0.79475 0.23292 0.0
C700 C 0.38153 0.78611 0.24306 0.0
C701 C 0.30022 0.79251 0.21838 0.0
C702 C 0.49639 0.79485 0.27665 0.0
C703 C 0.47195 0.7962 0.26312 0.0
C704 C 0.43501 0.84245 0.25438 0.0
C705 C 0.35556 0.81289 0.22064 0.0
C706 C 0.38255 0.81376 0.23519 0.0
C707 C 0.46114 0.81488 0.27532 0.0
C708 C 0.43409 0.81474 0.26181 0.0
H709 H 0.33644 0.83888 0.158 0.0
H710 H 0.38157 0.8431 0.18379 0.0
H711 H 0.41075 0.86357 0.2351 0.0
H712 H 0.51007 0.84446 0.33504 0.0
H713 H 0.46752 0.84719 0.31085 0.0
C714 C 0.69746 0.49807 0.44534 0.0
C715 C 0.69582 0.51058 0.47316 0.0
C716 C 0.67077 0.47499 0.4316 0.0
C717 C 0.60983 0.43644 0.39991 0.0
H718 H 0.54865 0.37188 0.4508 0.0
C719 C 0.49931 0.33577 0.34984 0.0
C720 C 0.49033 0.30625 0.36121 0.0
C721 C 0.52198 0.36208 0.36443 0.0
C722 C 0.56558 0.38965 0.43625 0.0
H723 H 0.66464 0.5094 0.50783 0.0
H724 H 0.61807 0.46961 0.48351 0.0
H725 H 0.59345 0.41539 0.47369 0.0
H726 H 0.49765 0.28129 0.39725 0.0
H727 H 0.5377 0.32711 0.42224 0.0
H728 H 0.5828 0.40999 0.36241 0.0
C729 C 0.64007 0.47713 0.47267 0.0
C730 C 0.59107 0.41482 0.4494 0.0
C731 C 0.66678 0.50006 0.48653 0.0
C732 C 0.50397 0.30367 0.38792 0.0
C733 C 0.52683 0.32999 0.40237 0.0
C734 C 0.58446 0.41118 0.38676 0.0
C735 C 0.64179 0.46406 0.44523 0.0
C736 C 0.61369 0.43834 0.43135 0.0
C737 C 0.53637 0.3595 0.39059 0.0
C738 C 0.56221 0.3873 0.40475 0.0
H739 H 0.71944 0.50554 0.43446 0.0
H740 H 0.67301 0.46513 0.41069 0.0
H741 H 0.62658 0.45437 0.38537 0.0
H742 H 0.48901 0.33859 0.3295 0.0
H743 H 0.52835 0.38447 0.35508 0.0
C744 C 0.1852 0.69259 0.60333 0.0
C745 C 0.18436 0.69249 0.635 0.0
C746 C 0.18251 0.66724 0.58755 0.0
C747 C 0.16035 0.5847 0.59575 0.0
H748 H 0.21533 0.60297 0.52761 0.0
C749 C 0.19194 0.49773 0.54565 0.0
C750 C 0.19324 0.49607 0.51407 0.0
C751 C 0.18736 0.52026 0.55924 0.0
C752 C 0.19953 0.59747 0.54633 0.0
H753 H 0.17921 0.66531 0.67492 0.0
H754 H 0.17532 0.62138 0.64744 0.0
H755 H 0.21365 0.64485 0.55369 0.0
H756 H 0.19021 0.51656 0.47203 0.0
H757 H 0.18249 0.55617 0.4959 0.0
H758 H 0.14709 0.5373 0.58882 0.0
C759 C 0.17748 0.64082 0.63472 0.0
C760 C 0.19849 0.62146 0.56127 0.0
C761 C 0.17986 0.66609 0.65052 0.0
C762 C 0.18937 0.51721 0.4964 0.0
C763 C 0.18509 0.53997 0.51004 0.0
C764 C 0.1616 0.56072 0.58094 0.0
C765 C 0.17922 0.64127 0.60305 0.0
C766 C 0.17904 0.61543 0.58631 0.0
C767 C 0.18422 0.54182 0.5416 0.0
C768 C 0.18138 0.5669 0.55622 0.0
H769 H 0.18819 0.7124 0.59065 0.0
H770 H 0.18324 0.66813 0.56316 0.0
H771 H 0.14473 0.57915 0.61462 0.0
H772 H 0.19463 0.4817 0.55996 0.0
H773 H 0.18708 0.52131 0.58361 0.0
C774 C 0.5035 0.16685 0.81648 0.0
C775 C 0.49389 0.18672 0.80464 0.0
C776 C 0.52565 0.16265 0.80149 0.0
C777 C 0.56611 0.17584 0.72797 0.0
H778 H 0.62948 0.17431 0.77692 0.0
C779 C 0.69851 0.202 0.71498 0.0
C780 C 0.69646 0.18766 0.68717 0.0
C781 C 0.67198 0.19789 0.72943 0.0
C782 C 0.61205 0.17486 0.76291 0.0
H783 H 0.49977 0.21747 0.76755 0.0
H784 H 0.53894 0.21088 0.74197 0.0
H785 H 0.58638 0.17505 0.80125 0.0
H786 H 0.66478 0.15689 0.65323 0.0
H787 H 0.61842 0.14921 0.67882 0.0
H788 H 0.59267 0.17738 0.68966 0.0
C789 C 0.52889 0.19793 0.76244 0.0
C790 C 0.58706 0.17483 0.77686 0.0
C791 C 0.50655 0.2019 0.77725 0.0
C792 C 0.6672 0.16853 0.67449 0.0
C793 C 0.64062 0.16421 0.6891 0.0
C794 C 0.59124 0.17614 0.71402 0.0
C795 C 0.53889 0.17844 0.77448 0.0
C796 C 0.56403 0.17581 0.75957 0.0
C797 C 0.64273 0.1791 0.7166 0.0
C798 C 0.61476 0.17615 0.73134 0.0
H799 H 0.49395 0.15453 0.83737 0.0
H800 H 0.53245 0.14707 0.81113 0.0
H801 H 0.54852 0.17608 0.71395 0.0
H802 H 0.72067 0.217 0.72534 0.0
H803 H 0.67453 0.21015 0.75031 0.0
C804 C 0.20932 0.32361 0.92759 0.0
C805 C 0.22558 0.35551 0.93262 0.0
C806 C 0.22134 0.31001 0.90867 0.0
C807 C 0.28482 0.32469 0.85503 0.0
H808 H 0.27539 0.2505 0.89253 0.0
C809 C 0.36034 0.26776 0.83111 0.0
C810 C 0.34495 0.23535 0.83226 0.0
C811 C 0.34428 0.28351 0.83687 0.0
C812 C 0.27789 0.2709 0.88142 0.0
H813 H 0.26618 0.39858 0.9207 0.0
H814 H 0.28804 0.37465 0.88832 0.0
H815 H 0.24961 0.27587 0.91411 0.0
H816 H 0.30028 0.19406 0.83724 0.0
H817 H 0.27238 0.22137 0.84671 0.0
H818 H 0.31432 0.31988 0.82291 0.0
C819 C 0.26561 0.36018 0.89837 0.0
C820 C 0.26297 0.28546 0.89375 0.0
C821 C 0.25315 0.37391 0.91689 0.0
C822 C 0.3129 0.21905 0.83676 0.0
C823 C 0.29691 0.23469 0.84225 0.0
C824 C 0.30005 0.31009 0.84271 0.0
C825 C 0.25041 0.32788 0.89509 0.0
C826 C 0.26597 0.31241 0.88068 0.0
C827 C 0.3126 0.26704 0.84369 0.0
C828 C 0.2965 0.28289 0.85572 0.0
H829 H 0.18788 0.30902 0.93935 0.0
H830 H 0.2085 0.2852 0.90589 0.0
H831 H 0.28766 0.34543 0.84441 0.0
H832 H 0.38506 0.28093 0.82769 0.0
H833 H 0.35698 0.30846 0.83785 0.0
C834 C 0.87812 0.25458 0.08053 0.0
C835 C 0.86845 0.22645 0.09537 0.0
C836 C 0.904 0.26691 0.06161 0.0
C837 C 0.97466 0.26187 0.05415 0.0
H838 H 0.99287 0.3176 0.98667 0.0
C839 C 0.09136 0.3137 -0.00208 0.0
C840 C 0.10761 0.34603 0.99595 0.0
C841 C 0.0596 0.29772 0.00258 0.0
C842 C 0.98801 0.30206 0.00549 0.0
H843 H 0.87592 0.1877 0.10012 0.0
H844 H 0.91971 0.20807 0.06582 0.0
H845 H 0.94063 0.29068 0.00801 0.0
H846 H 0.103 0.38681 0.99486 0.0
H847 H 0.04712 0.3587 0.00359 0.0
H848 H 0.02172 0.27329 0.05211 0.0
C849 C 0.90845 0.22145 0.06965 0.0
C850 C 0.95816 0.28669 0.01775 0.0
C851 C 0.88317 0.20956 0.08903 0.0
C852 C 0.09104 0.36188 0.99631 0.0
C853 C 0.05908 0.3458 0.00126 0.0
C854 C 0.00414 0.27691 0.04184 0.0
C855 C 0.92025 0.25102 0.05699 0.0
C856 C 0.95115 0.26637 0.04228 0.0
C857 C 0.04333 0.31367 0.00572 0.0
C858 C 0.01124 0.29716 0.01739 0.0
H859 H 0.8672 0.26811 0.08536 0.0
H860 H 0.91241 0.28974 0.05234 0.0
H861 H 0.97063 0.24734 0.07366 0.0
H862 H 0.10343 0.3008 -0.0028 0.0
H863 H 0.04797 0.2729 0.00521 0.0
C864 C 0.68021 0.89488 0.25941 0.0
C865 C 0.64865 0.87309 0.26135 0.0
C866 C 0.69087 0.91897 0.23861 0.0
C867 C 0.70863 0.96182 0.18443 0.0
H868 H 0.67071 0.01232 0.19543 0.0
C869 C 0.73046 0.09256 0.15555 0.0
C870 C 0.76198 0.10901 0.16302 0.0
C871 C 0.71352 0.06036 0.15867 0.0
C872 C 0.68117 0.99825 0.19135 0.0
H873 H 0.60356 0.85879 0.24242 0.0
H874 H 0.62224 0.90164 0.20636 0.0
H875 H 0.64615 0.96043 0.21659 0.0
H876 H 0.8007 0.10425 0.17795 0.0
H877 H 0.77143 0.04887 0.18372 0.0
H878 H 0.74409 0.99979 0.15996 0.0
C879 C 0.63868 0.89971 0.22076 0.0
C880 C 0.66709 0.96849 0.20355 0.0
C881 C 0.62806 0.87515 0.24122 0.0
C882 C 0.77643 0.09244 0.17217 0.0
C883 C 0.75963 0.06047 0.17519 0.0
C884 C 0.72253 0.99139 0.17197 0.0
C885 C 0.67014 0.92214 0.21965 0.0
C886 C 0.68134 0.9505 0.20124 0.0
C887 C 0.72783 0.04401 0.1691 0.0
C888 C 0.7097 0.0105 0.17642 0.0
H889 H 0.69659 0.89385 0.27463 0.0
H890 H 0.71519 0.93607 0.2385 0.0
H891 H 0.71988 0.94825 0.18197 0.0
H892 H 0.71862 0.1046 0.1484 0.0
H893 H 0.68911 0.04836 0.15352 0.0
C894 C 0.64574 0.73294 0.31887 0.0
C895 C 0.66089 0.76449 0.32624 0.0
C896 C 0.66069 0.71578 0.32264 0.0
C897 C 0.73789 0.72384 0.3389 0.0
H898 H 0.69003 0.64748 0.38299 0.0
C899 C 0.78782 0.67951 0.42914 0.0
C900 C 0.77747 0.64781 0.43103 0.0
C901 C 0.77541 0.69073 0.40778 0.0
C902 C 0.7036 0.66841 0.37014 0.0
H903 H 0.70432 0.80306 0.34146 0.0
H904 H 0.72988 0.7734 0.34842 0.0
H905 H 0.66412 0.67273 0.36019 0.0
H906 H 0.74669 0.60307 0.41139 0.0
H907 H 0.72434 0.62274 0.37436 0.0
H908 H 0.77761 0.72047 0.35077 0.0
C909 C 0.70665 0.76174 0.33947 0.0
C910 C 0.68875 0.6829 0.35697 0.0
C911 C 0.6918 0.77878 0.33575 0.0
C912 C 0.75526 0.62765 0.4103 0.0
C913 C 0.74235 0.63884 0.38926 0.0
C914 C 0.75274 0.70954 0.35236 0.0
C915 C 0.69111 0.72987 0.33369 0.0
C916 C 0.70586 0.7114 0.34215 0.0
C917 C 0.75198 0.67045 0.38816 0.0
C918 C 0.73586 0.68224 0.36896 0.0
H919 H 0.62195 0.72121 0.31142 0.0
H920 H 0.64815 0.69135 0.31762 0.0
H921 H 0.75172 0.74536 0.32702 0.0
H922 H 0.80493 0.69558 0.44479 0.0
H923 H 0.78306 0.71515 0.40768 0.0
C924 C 0.1085 0.78428 0.59258 0.0
C925 C 0.12994 0.77408 0.59467 0.0
C926 C 0.08508 0.77183 0.57104 0.0
C927 C 0.03588 0.69971 0.5344 0.0
H928 H 0.00555 0.74693 0.49194 0.0
C929 C 0.91144 0.64138 0.48813 0.0
C930 C 0.8956 0.65682 0.49659 0.0
C931 C 0.94366 0.65616 0.49044 0.0
C932 C 0.01371 0.73336 0.50358 0.0
H933 H 0.14443 0.74365 0.57523 0.0
H934 H 0.10267 0.72112 0.53788 0.0
H935 H 0.05714 0.77331 0.51395 0.0
H936 H 0.90146 0.70049 0.51234 0.0
H937 H 0.95693 0.72579 0.51674 0.0
H938 H 0.99174 0.66006 0.52606 0.0
C939 C 0.10439 0.7391 0.55271 0.0
C940 C 0.0433 0.74847 0.51603 0.0
C941 C 0.12832 0.75208 0.57393 0.0
C942 C 0.91279 0.68776 0.50585 0.0
C943 C 0.9448 0.70246 0.50805 0.0
C944 C 0.00612 0.6846 0.52222 0.0
C945 C 0.08223 0.74848 0.55148 0.0
C946 C 0.05421 0.73195 0.53255 0.0
C947 C 0.96066 0.68672 0.50102 0.0
C948 C 0.99422 0.70145 0.50777 0.0
H949 H 0.10926 0.80123 0.60828 0.0
H950 H 0.06814 0.77927 0.57086 0.0
H951 H 0.04364 0.68643 0.5472 0.0
H952 H 0.89891 0.61756 0.48083 0.0
H953 H 0.9552 0.64346 0.48459 0.0
C954 C 0.32501 0.1143 0.7589 0.0
C955 C 0.35678 0.12963 0.76456 0.0
C956 C 0.31165 0.08901 0.7395 0.0
C957 C 0.32754 0.0406 0.68611 0.0
H958 H 0.25127 0.97595 0.72046 0.0
C959 C 0.27023 0.90798 0.66234 0.0
C960 C 0.2378 0.8915 0.6616 0.0
C961 C 0.28613 0.93981 0.66804 0.0
C962 C 0.2723 0.99384 0.71024 0.0
H963 H 0.39992 0.13189 0.75341 0.0
H964 H 0.37645 0.08667 0.72035 0.0
H965 H 0.27621 0.02669 0.74287 0.0
H966 H 0.19685 0.89587 0.66304 0.0
H967 H 0.22447 0.95107 0.67254 0.0
H968 H 0.3238 0.00653 0.65419 0.0
C969 C 0.36186 0.09461 0.73016 0.0
C970 C 0.28661 0.02312 0.72302 0.0
C971 C 0.37535 0.1205 0.7491 0.0
C972 C 0.22181 0.90781 0.66404 0.0
C973 C 0.23761 0.93943 0.66953 0.0
C974 C 0.31323 0.01095 0.6734 0.0
C975 C 0.32964 0.07781 0.72613 0.0
C976 C 0.31432 0.04704 0.71111 0.0
C977 C 0.2698 0.95553 0.67294 0.0
C978 C 0.28534 0.98735 0.68529 0.0
H979 H 0.3103 0.12112 0.77047 0.0
H980 H 0.28693 0.07735 0.73614 0.0
H981 H 0.34883 0.05845 0.67631 0.0
H982 H 0.28316 0.896 0.66052 0.0
H983 H 0.31097 0.95166 0.67057 0.0
C984 C 0.77068 0.68583 0.01109 0.0
C985 C 0.75686 0.65508 0.00157 0.0
C986 C 0.75518 0.70239 0.00795 0.0
C987 C 0.68036 0.69579 0.98155 0.0
H988 H 0.73572 0.77944 0.95499 0.0
C989 C 0.68131 0.78669 0.89075 0.0
C990 C 0.65166 0.7827 0.89453 0.0
C991 C 0.69331 0.77469 0.91159 0.0
C992 C 0.71984 0.75611 0.96229 0.0
H993 H 0.71574 0.61692 0.98247 0.0
H994 H 0.68928 0.64611 0.9751 0.0
H995 H 0.75673 0.74986 0.97704 0.0
H996 H 0.61201 0.76427 0.92426 0.0
H997 H 0.63336 0.74364 0.96124 0.0
H998 H 0.64366 0.70149 0.96402 0.0
C999 C 0.71152 0.65742 0.98617 0.0
C1000 C 0.73191 0.73915 0.97554 0.0
C1001 C 0.7267 0.6406 0.99022 0.0
C1002 C 0.63494 0.76778 0.92067 0.0
C1003 C 0.64706 0.7557 0.94171 0.0
C1004 C 0.6683 0.71266 0.96771 0.0
C1005 C 0.72598 0.68892 0.99405 0.0
C1006 C 0.71246 0.70836 0.98457 0.0
C1007 C 0.67617 0.75847 0.93706 0.0
C1008 C 0.68803 0.74267 0.95692 0.0
H1009 H 0.79389 0.69735 0.02014 0.0
H1010 H 0.76675 0.72617 0.01536 0.0
H1011 H 0.66448 0.6725 0.98889 0.0
H1012 H 0.69496 0.79817 0.871 0.0
H1013 H 0.71554 0.77691 0.90682 0.0
C1014 C 0.09071 0.73542 0.16448 0.0
C1015 C 0.10852 0.76775 0.16265 0.0
C1016 C 0.05886 0.72037 0.15898 0.0
C1017 C 0.00559 0.73399 0.11439 0.0
H1018 H 0.94047 0.66054 0.15252 0.0
C1019 C 0.88405 0.68197 0.06881 0.0
C1020 C 0.86813 0.65001 0.0642 0.0
C1021 C 0.90978 0.69564 0.08763 0.0
C1022 C 0.95846 0.68098 0.14158 0.0
H1023 H 0.10652 0.80971 0.15663 0.0
H1024 H 0.05127 0.78362 0.14764 0.0
H1025 H 0.99288 0.6856 0.1735 0.0
H1026 H 0.86523 0.60689 0.07685 0.0
H1027 H 0.91113 0.63088 0.10907 0.0
H1028 H 0.9722 0.72917 0.08191 0.0
C1029 C 0.06189 0.7698 0.15242 0.0
C1030 C 0.98841 0.69531 0.15361 0.0
C1031 C 0.09355 0.78475 0.15765 0.0
C1032 C 0.87708 0.63162 0.08031 0.0
C1033 C 0.90335 0.6454 0.09874 0.0
C1034 C 0.97596 0.7197 0.10236 0.0
C1035 C 0.04439 0.73745 0.15174 0.0
C1036 C 0.01224 0.72209 0.14016 0.0
C1037 C 0.92076 0.67773 0.10157 0.0
C1038 C 0.9519 0.6931 0.1158 0.0
H1039 H 0.10161 0.7217 0.16831 0.0
H1040 H 0.04598 0.6954 0.15859 0.0
H1041 H 0.02357 0.75405 0.10293 0.0
H1042 H 0.87739 0.69657 0.05677 0.0
H1043 H 0.92199 0.72049 0.09005 0.0
C1044 C 0.36126 0.0908 0.33844 0.0
C1045 C 0.34592 0.1069 0.33063 0.0
C1046 C 0.34654 0.05866 0.33504 0.0
C1047 C 0.26939 0.98912 0.32015 0.0
H1048 H 0.31665 0.95962 0.27652 0.0
C1049 C 0.21897 0.8947 0.23053 0.0
C1050 C 0.22851 0.87271 0.22921 0.0
C1051 C 0.23165 0.91842 0.25175 0.0
C1052 C 0.30327 0.96728 0.28928 0.0
H1053 H 0.30246 0.10153 0.31476 0.0
H1054 H 0.2773 0.04628 0.30848 0.0
H1055 H 0.34291 0.01124 0.29839 0.0
H1056 H 0.25816 0.85769 0.24954 0.0
H1057 H 0.28116 0.90003 0.28631 0.0
H1058 H 0.22949 0.94591 0.30904 0.0
C1059 C 0.3005 0.05811 0.31752 0.0
C1060 C 0.31832 0.99687 0.30189 0.0
C1061 C 0.31513 0.09001 0.32082 0.0
C1062 C 0.25023 0.87424 0.25027 0.0
C1063 C 0.26348 0.89848 0.27114 0.0
C1064 C 0.25435 0.95974 0.30725 0.0
C1065 C 0.31613 0.04201 0.324 0.0
C1066 C 0.30137 0.00861 0.31643 0.0
C1067 C 0.2546 0.92104 0.27174 0.0
C1068 C 0.27101 0.94899 0.29078 0.0
H1069 H 0.38497 0.10309 0.34612 0.0
H1070 H 0.35916 0.04694 0.3405 0.0
H1071 H 0.25572 0.99711 0.33186 0.0
H1072 H 0.20226 0.89404 0.21458 0.0
H1073 H 0.22461 0.93567 0.25148 0.0
C1074 C 0.3743 0.2453 0.42101 0.0
C1075 C 0.35399 0.2234 0.40014 0.0
C1076 C 0.36344 0.25856 0.44196 0.0
C1077 C 0.33527 0.29883 0.45978 0.0
H1078 H 0.2579 0.25288 0.50271 0.0
C1079 C 0.22639 0.31409 0.49108 0.0
C1080 C 0.2412 0.34532 0.49957 0.0
C1081 C 0.24288 0.29856 0.48848 0.0
C1082 C 0.27955 0.26611 0.49088 0.0
H1083 H 0.30621 0.1967 0.38617 0.0
H1084 H 0.28718 0.21919 0.42317 0.0
H1085 H 0.28187 0.22558 0.4801 0.0
H1086 H 0.28479 0.38414 0.51389 0.0
H1087 H 0.31369 0.35675 0.5097 0.0
H1088 H 0.33199 0.33908 0.46851 0.0
C1089 C 0.31148 0.22632 0.42322 0.0
C1090 C 0.29332 0.25045 0.47809 0.0
C1091 C 0.32239 0.21356 0.40193 0.0
C1092 C 0.27268 0.36013 0.50717 0.0
C1093 C 0.28928 0.34449 0.50456 0.0
C1094 C 0.32131 0.31448 0.47224 0.0
C1095 C 0.332 0.24961 0.44284 0.0
C1096 C 0.32077 0.26653 0.46154 0.0
C1097 C 0.2747 0.31371 0.49443 0.0
C1098 C 0.29265 0.29816 0.48695 0.0
H1099 H 0.39882 0.25348 0.41999 0.0
H1100 H 0.37971 0.27645 0.45687 0.0
H1101 H 0.35633 0.31179 0.44695 0.0
H1102 H 0.20212 0.30179 0.48526 0.0
H1103 H 0.23083 0.27507 0.48021 0.0
C1104 C 0.1244 0.37767 0.5755 0.0
C1105 C 0.13389 0.35892 0.56097 0.0
C1106 C 0.09848 0.36445 0.59438 0.0
C1107 C 0.02754 0.28907 0.60267 0.0
H1108 H 0.01041 0.3271 0.67043 0.0
C1109 C 0.91203 0.22442 0.66104 0.0
C1110 C 0.89565 0.24035 0.66322 0.0
C1111 C 0.94369 0.24029 0.6558 0.0
C1112 C 0.01498 0.31629 0.65153 0.0
H1113 H 0.126 0.31251 0.55663 0.0
H1114 H 0.08214 0.28966 0.59084 0.0
H1115 H 0.06233 0.35223 0.6483 0.0
H1116 H 0.89999 0.28564 0.66407 0.0
H1117 H 0.95569 0.31357 0.65432 0.0
H1118 H 0.98052 0.25345 0.60544 0.0
C1119 C 0.09356 0.31427 0.58681 0.0
C1120 C 0.04463 0.33065 0.63882 0.0
C1121 C 0.11887 0.32733 0.56747 0.0
C1122 C 0.91205 0.27277 0.66246 0.0
C1123 C 0.9439 0.28874 0.65693 0.0
C1124 C 0.99826 0.27473 0.61542 0.0
C1125 C 0.08202 0.33235 0.59927 0.0
C1126 C 0.05125 0.31711 0.61423 0.0
C1127 C 0.95973 0.27247 0.65227 0.0
C1128 C 0.99157 0.28805 0.64 0.0
H1129 H 0.13558 0.40211 0.57054 0.0
H1130 H 0.09025 0.37908 0.60351 0.0
H1131 H 0.03128 0.2784 0.58312 0.0
H1132 H 0.90011 0.19946 0.66207 0.0
H1133 H 0.9554 0.22719 0.65301 0.0
C1134 C 0.7538 0.13048 0.74927 0.0
C1135 C 0.77662 0.13251 0.72941 0.0
C1136 C 0.7399 0.1061 0.76992 0.0
C1137 C 0.69962 0.0374 0.78713 0.0
H1138 H 0.74508 0.0059 0.83093 0.0
C1139 C 0.6855 0.91348 0.81683 0.0
C1140 C 0.65459 0.89664 0.82627 0.0
C1141 C 0.70041 0.94545 0.81411 0.0
C1142 C 0.73199 0.01439 0.8189 0.0
H1143 H 0.80421 0.11199 0.71685 0.0
H1144 H 0.78064 0.07008 0.75329 0.0
H1145 H 0.77248 0.05771 0.80952 0.0
H1146 H 0.61552 0.90052 0.84149 0.0
H1147 H 0.64178 0.95681 0.8367 0.0
H1148 H 0.65945 0.99339 0.79466 0.0
C1149 C 0.77327 0.08706 0.75285 0.0
C1150 C 0.74769 0.04409 0.80677 0.0
C1151 C 0.78666 0.11096 0.73188 0.0
C1152 C 0.63932 0.91279 0.83411 0.0
C1153 C 0.6543 0.945 0.83122 0.0
C1154 C 0.68392 0.00753 0.79904 0.0
C1155 C 0.74913 0.08383 0.77147 0.0
C1156 C 0.73184 0.05546 0.78981 0.0
C1157 C 0.68491 0.96164 0.82074 0.0
C1158 C 0.70015 0.99523 0.81399 0.0
H1159 H 0.74545 0.14665 0.74765 0.0
H1160 H 0.72136 0.10412 0.78404 0.0
H1161 H 0.68684 0.0455 0.77398 0.0
H1162 H 0.69811 0.9019 0.81078 0.0
H1163 H 0.72377 0.95731 0.80549 0.0
C1164 C 0.2202 0.39389 0.35085 0.0
C1165 C 0.20021 0.37205 0.37179 0.0
C1166 C 0.21967 0.38568 0.3208 0.0
C1167 C 0.16381 0.33462 0.26663 0.0
H1168 H 0.23416 0.37481 0.21304 0.0
C1169 C 0.16922 0.34303 0.1329 0.0
C1170 C 0.18417 0.3743 0.1243 0.0
C1171 C 0.1673 0.33498 0.16333 0.0
C1172 C 0.21437 0.36308 0.22781 0.0
H1173 H 0.16581 0.32384 0.37827 0.0
H1174 H 0.1648 0.30961 0.32547 0.0
H1175 H 0.24256 0.37291 0.26703 0.0
H1176 H 0.2055 0.42135 0.14097 0.0
H1177 H 0.20226 0.40714 0.19382 0.0
H1178 H 0.13578 0.32605 0.22716 0.0
C1179 C 0.18069 0.33308 0.33239 0.0
C1180 C 0.21914 0.36201 0.25857 0.0
C1181 C 0.18141 0.34124 0.36259 0.0
C1182 C 0.19429 0.3971 0.14676 0.0
C1183 C 0.19256 0.38905 0.17698 0.0
C1184 C 0.15906 0.3355 0.23569 0.0
C1185 C 0.19904 0.3555 0.31106 0.0
C1186 C 0.19396 0.34912 0.27843 0.0
C1187 C 0.18032 0.35812 0.18528 0.0
C1188 C 0.18439 0.35097 0.21642 0.0
H1189 H 0.23514 0.41772 0.35733 0.0
H1190 H 0.23392 0.40357 0.30485 0.0
H1191 H 0.14398 0.32472 0.28145 0.0
H1192 H 0.16106 0.32489 0.11615 0.0
H1193 H 0.15758 0.31096 0.16952 0.0
C1194 C 0.81019 0.20811 0.51581 0.0
C1195 C 0.81831 0.19266 0.53715 0.0
C1196 C 0.81255 0.20382 0.48519 0.0
C1197 C 0.84507 0.18402 0.42486 0.0
H1198 H 0.76241 0.14523 0.39122 0.0
C1199 C 0.82457 0.17065 0.29703 0.0
C1200 C 0.80721 0.1841 0.28726 0.0
C1201 C 0.82476 0.16349 0.32741 0.0
C1202 C 0.78558 0.15581 0.4003 0.0
H1203 H 0.8385 0.16338 0.54316 0.0
H1204 H 0.84302 0.15638 0.48909 0.0
H1205 H 0.76971 0.15274 0.44559 0.0
H1206 H 0.77452 0.19817 0.30113 0.0
H1207 H 0.77491 0.18579 0.35391 0.0
H1208 H 0.86116 0.18902 0.3794 0.0
C1209 C 0.83445 0.17135 0.49642 0.0
C1210 C 0.78972 0.16005 0.43128 0.0
C1211 C 0.83193 0.17549 0.52725 0.0
C1212 C 0.78834 0.1881 0.30799 0.0
C1213 C 0.78837 0.18075 0.33823 0.0
C1214 C 0.84096 0.18 0.3937 0.0
C1215 C 0.82337 0.18435 0.47539 0.0
C1216 C 0.8195 0.17518 0.44358 0.0
C1217 C 0.80732 0.1693 0.34839 0.0
C1218 C 0.81122 0.16697 0.38111 0.0
H1219 H 0.8001 0.22189 0.52268 0.0
H1220 H 0.80435 0.2144 0.46911 0.0
H1221 H 0.8682 0.19571 0.43411 0.0
H1222 H 0.83929 0.16718 0.28156 0.0
H1223 H 0.83933 0.15441 0.33467 0.0
C1224 C 0.59535 0.79548 0.68087 0.0
C1225 C 0.61912 0.81023 0.70217 0.0
C1226 C 0.60219 0.79711 0.65033 0.0
C1227 C 0.65658 0.83821 0.59109 0.0
H1228 H 0.61943 0.75715 0.5541 0.0
C1229 C 0.65873 0.82429 0.46292 0.0
C1230 C 0.62871 0.80617 0.45146 0.0
C1231 C 0.66454 0.82327 0.49358 0.0
C1232 C 0.63015 0.77991 0.56414 0.0
H1233 H 0.66846 0.84079 0.70777 0.0
H1234 H 0.68018 0.84405 0.6539 0.0
H1235 H 0.61526 0.76165 0.60841 0.0
H1236 H 0.58195 0.77085 0.46232 0.0
H1237 H 0.592 0.76904 0.51553 0.0
H1238 H 0.66992 0.85652 0.54656 0.0
C1239 C 0.65641 0.8308 0.66122 0.0
C1240 C 0.62769 0.78248 0.59511 0.0
C1241 C 0.64961 0.82898 0.69197 0.0
C1242 C 0.60524 0.78529 0.4706 0.0
C1243 C 0.61109 0.78407 0.50106 0.0
C1244 C 0.65885 0.83565 0.55995 0.0
C1245 C 0.63284 0.81377 0.64042 0.0
C1246 C 0.63985 0.81161 0.6086 0.0
C1247 C 0.64051 0.80381 0.51305 0.0
C1248 C 0.64458 0.80646 0.54611 0.0
H1249 H 0.57157 0.78121 0.68783 0.0
H1250 H 0.58358 0.78442 0.63448 0.0
H1251 H 0.66623 0.86089 0.60115 0.0
H1252 H 0.67729 0.84059 0.44864 0.0
H1253 H 0.68748 0.83851 0.50226 0.0
C1254 C 0.81811 0.6579 0.86364 0.0
C1255 C 0.80248 0.62724 0.87398 0.0
C1256 C 0.81791 0.66432 0.83302 0.0
C1257 C 0.78034 0.62926 0.76022 0.0
H1258 H 0.86291 0.67609 0.72695 0.0
C1259 C 0.80794 0.60313 0.64506 0.0
C1260 C 0.81673 0.62683 0.62374 0.0
C1261 C 0.80913 0.60952 0.67568 0.0
C1262 C 0.83975 0.66343 0.73602 0.0
H1263 H 0.77228 0.5796 0.86094 0.0
H1264 H 0.77192 0.5907 0.8078 0.0
H1265 H 0.85516 0.6765 0.78146 0.0
H1266 H 0.83692 0.67632 0.61797 0.0
H1267 H 0.8395 0.68741 0.67202 0.0
H1268 H 0.76526 0.61464 0.71504 0.0
C1269 C 0.78436 0.60984 0.82316 0.0
C1270 C 0.83522 0.66378 0.76708 0.0
C1271 C 0.78476 0.60342 0.8536 0.0
C1272 C 0.82986 0.65753 0.63383 0.0
C1273 C 0.83124 0.66393 0.66467 0.0
C1274 C 0.78491 0.6287 0.72936 0.0
C1275 C 0.80177 0.64022 0.8124 0.0
C1276 C 0.8056 0.6457 0.77953 0.0
C1277 C 0.81945 0.63971 0.68556 0.0
C1278 C 0.81475 0.64484 0.71725 0.0
H1279 H 0.83196 0.67676 0.87886 0.0
H1280 H 0.83128 0.68795 0.82531 0.0
H1281 H 0.75723 0.61559 0.76916 0.0
H1282 H 0.79819 0.57932 0.63809 0.0
H1283 H 0.80048 0.59061 0.69163 0.0
C1284 C 0.17698 0.83043 0.7967 0.0
C1285 C 0.19302 0.81589 0.78617 0.0
C1286 C 0.17787 0.83769 0.82725 0.0
C1287 C 0.21893 0.84405 0.89875 0.0
H1288 H 0.13791 0.80851 0.93555 0.0
C1289 C 0.19704 0.79511 0.01608 0.0
C1290 C 0.18815 0.81002 0.03732 0.0
C1291 C 0.19494 0.79944 0.98541 0.0
C1292 C 0.16064 0.81898 0.92548 0.0
H1293 H 0.22436 0.79969 0.79879 0.0
H1294 H 0.22593 0.81227 0.85177 0.0
H1295 H 0.14299 0.81411 0.88062 0.0
H1296 H 0.16709 0.83857 0.04291 0.0
H1297 H 0.16289 0.84551 0.98876 0.0
H1298 H 0.23629 0.84706 0.9434 0.0
C1299 C 0.21267 0.81813 0.83661 0.0
C1300 C 0.16363 0.82237 0.89417 0.0
C1301 C 0.21157 0.81067 0.80627 0.0
C1302 C 0.17428 0.82689 0.02713 0.0
C1303 C 0.17196 0.83099 0.99624 0.0
C1304 C 0.21589 0.84041 0.92986 0.0
C1305 C 0.19514 0.83088 0.84758 0.0
C1306 C 0.1927 0.83383 0.88049 0.0
C1307 C 0.18358 0.81839 0.97535 0.0
C1308 C 0.18665 0.82681 0.94329 0.0
H1309 H 0.16246 0.83473 0.78171 0.0
H1310 H 0.16435 0.84772 0.83511 0.0
H1311 H 0.24165 0.85349 0.88884 0.0
H1312 H 0.20735 0.78157 0.02308 0.0
H1313 H 0.20349 0.78906 0.96949 0.0
C1314 C 0.34867 0.17753 0.96608 0.0
C1315 C 0.37925 0.19423 0.95561 0.0
C1316 C 0.34208 0.17851 0.9965 0.0
C1317 C 0.37576 0.22025 0.06793 0.0
H1318 H 0.33152 0.13912 0.10474 0.0
C1319 C 0.40251 0.19952 0.18584 0.0
C1320 C 0.37826 0.18942 0.20672 0.0
C1321 C 0.39651 0.19753 0.15509 0.0
C1322 C 0.34343 0.16186 0.09466 0.0
H1323 H 0.42646 0.22686 0.96826 0.0
H1324 H 0.41504 0.22842 0.02108 0.0
H1325 H 0.33128 0.14409 0.04982 0.0
H1326 H 0.32845 0.1664 0.21163 0.0
H1327 H 0.31808 0.1624 0.15733 0.0
H1328 H 0.3895 0.23777 0.11263 0.0
C1329 C 0.3961 0.21462 0.00593 0.0
C1330 C 0.34319 0.1648 0.06336 0.0
C1331 C 0.40271 0.21352 0.97566 0.0
C1332 C 0.34765 0.17452 0.19611 0.0
C1333 C 0.34165 0.17231 0.16514 0.0
C1334 C 0.37622 0.21727 0.09907 0.0
C1335 C 0.36589 0.19643 0.01683 0.0
C1336 C 0.36036 0.19394 0.04969 0.0
C1337 C 0.3662 0.18508 0.14462 0.0
C1338 C 0.36102 0.188 0.11249 0.0
H1339 H 0.33005 0.16251 0.95114 0.0
H1340 H 0.31856 0.16451 0.00431 0.0
H1341 H 0.38869 0.24301 0.05803 0.0
H1342 H 0.42631 0.21065 0.1932 0.0
H1343 H 0.41571 0.20693 0.13946 0.0
loop_
_geom_bond_atom_site_label_1
_geom_bond_atom_site_label_2
_geom_bond_distance
_geom_bond_site_symmetry_2
_ccdc_geom_bond_type
Sc0 O3 2.025 . S
Sc0 O10 2.105 . S
Sc0 O13 2.105 1_554 S
Sc0 O16 2.105 1_554 S
Sc0 O19 2.105 . S
Sc1 O3 2.025 . S
Sc1 O11 2.105 . S
Sc1 O15 2.105 . S
Sc1 O17 2.105 . S
Sc1 O21 2.105 . S
Sc2 O3 2.025 . S
Sc2 O12 2.105 . S
Sc2 O14 2.105 . S
Sc2 O18 2.105 . S
Sc2 O20 2.105 . S
O3 Sc0 2.025 . S
O3 Sc1 2.025 . S
O3 Sc2 2.025 . S
C4 O10 1.268 . S
C4 O20 1.268 . S
C5 O11 1.268 . S
C5 O19 1.268 . S
C6 O12 1.268 . S
C6 O21 1.268 . S
C7 O13 1.268 1_554 S
C7 O17 1.268 . S
C8 O14 1.268 1_556 S
C8 O16 1.268 . S
C9 O15 1.268 . S
C9 O18 1.268 . S
O10 Sc0 2.105 . S
O10 C4 1.268 . S
O11 Sc1 2.105 . S
O11 C5 1.268 . S
O12 Sc2 2.105 . S
O12 C6 1.268 . S
O13 Sc0 2.105 1_556 S
O13 C7 1.268 1_556 S
O14 Sc2 2.105 . S
O14 C8 1.268 1_554 S
O15 Sc1 2.105 . S
O15 C9 1.268 . S
O16 Sc0 2.105 1_556 S
O16 C8 1.268 . S
O17 Sc1 2.105 . S
O17 C7 1.268 . S
O18 Sc2 2.105 . S
O18 C9 1.268 . S
O19 Sc0 2.105 . S
O19 C5 1.268 . S
O20 Sc2 2.105 . S
O20 C4 1.268 . S
O21 Sc1 2.105 . S
O21 C6 1.268 . S
Sc22 O25 2.025 . S
Sc22 O32 2.105 . S
Sc22 O35 2.105 . S
Sc22 O38 2.105 . S
Sc22 O41 2.105 . S
Sc23 O25 2.025 . S
Sc23 O33 2.105 . S
Sc23 O37 2.105 . S
Sc23 O39 2.105 . S
Sc23 O43 2.105 . S
Sc24 O25 2.025 . S
Sc24 O34 2.105 . S
Sc24 O36 2.105 . S
Sc24 O40 2.105 . S
Sc24 O42 2.105 . S
O25 Sc22 2.025 . S
O25 Sc23 2.025 . S
O25 Sc24 2.025 . S
C26 O32 1.268 . S
C26 O42 1.268 . S
C27 O33 1.268 . S
C27 O41 1.268 . S
C28 O34 1.268 . S
C28 O43 1.268 . S
C29 O35 1.268 . S
C29 O39 1.268 . S
C30 O36 1.268 . S
C30 O38 1.268 . S
C31 O37 1.268 . S
C31 O40 1.268 . S
O32 Sc22 2.105 . S
O32 C26 1.268 . S
O33 Sc23 2.105 . S
O33 C27 1.268 . S
O34 Sc24 2.105 . S
O34 C28 1.268 . S
O35 Sc22 2.105 . S
O35 C29 1.268 . S
O36 Sc24 2.105 . S
O36 C30 1.268 . S
O37 Sc23 2.105 . S
O37 C31 1.268 . S
O38 Sc22 2.105 . S
O38 C30 1.268 . S
O39 Sc23 2.105 . S
O39 C29 1.268 . S
O40 Sc24 2.105 . S
O40 C31 1.268 . S
O41 Sc22 2.105 . S
O41 C27 1.268 . S
O42 Sc24 2.105 . S
O42 C26 1.268 . S
O43 Sc23 2.105 . S
O43 C28 1.268 . S
Sc44 O47 2.025 . S
Sc44 O54 2.105 . S
Sc44 O57 2.105 . S
Sc44 O60 2.105 . S
Sc44 O63 2.105 . S
Sc45 O47 2.025 . S
Sc45 O55 2.105 . S
Sc45 O59 2.105 . S
Sc45 O61 2.105 . S
Sc45 O65 2.105 . S
Sc46 O47 2.025 . S
Sc46 O56 2.105 . S
Sc46 O58 2.105 . S
Sc46 O62 2.105 . S
Sc46 O64 2.105 . S
O47 Sc44 2.025 . S
O47 Sc45 2.025 . S
O47 Sc46 2.025 . S
C48 O54 1.268 . S
C48 O64 1.268 . S
C49 O55 1.268 . S
C49 O63 1.268 . S
C50 O56 1.268 . S
C50 O65 1.268 . S
C51 O57 1.268 . S
C51 O61 1.268 . S
C52 O58 1.268 . S
C52 O60 1.268 . S
C53 O59 1.268 . S
C53 O62 1.268 . S
O54 Sc44 2.105 . S
O54 C48 1.268 . S
O55 Sc45 2.105 . S
O55 C49 1.268 . S
O56 Sc46 2.105 . S
O56 C50 1.268 . S
O57 Sc44 2.105 . S
O57 C51 1.268 . S
O58 Sc46 2.105 . S
O58 C52 1.268 . S
O59 Sc45 2.105 . S
O59 C53 1.268 . S
O60 Sc44 2.105 . S
O60 C52 1.268 . S
O61 Sc45 2.105 . S
O61 C51 1.268 . S
O62 Sc46 2.105 . S
O62 C53 1.268 . S
O63 Sc44 2.105 . S
O63 C49 1.268 . S
O64 Sc46 2.105 . S
O64 C48 1.268 . S
O65 Sc45 2.105 . S
O65 C50 1.268 . S
Sc66 O69 2.025 . S
Sc66 O76 2.105 . S
Sc66 O79 2.105 . S
Sc66 O82 2.105 . S
Sc66 O85 2.105 . S
Sc67 O69 2.025 . S
Sc67 O77 2.105 . S
Sc67 O81 2.105 . S
Sc67 O83 2.105 . S
Sc67 O87 2.105 . S
Sc68 O69 2.025 . S
Sc68 O78 2.105 . S
Sc68 O80 2.105 . S
Sc68 O84 2.105 . S
Sc68 O86 2.105 . S
O69 Sc66 2.025 . S
O69 Sc67 2.025 . S
O69 Sc68 2.025 . S
C70 O76 1.268 . S
C70 O86 1.268 . S
C71 O77 1.268 . S
C71 O85 1.268 . S
C72 O78 1.268 . S
C72 O87 1.268 . S
C73 O79 1.268 . S
C73 O83 1.268 . S
C74 O80 1.268 . S
C74 O82 1.268 . S
C75 O81 1.268 . S
C75 O84 1.268 . S
O76 Sc66 2.105 . S
O76 C70 1.268 . S
O77 Sc67 2.105 . S
O77 C71 1.268 . S
O78 Sc68 2.105 . S
O78 C72 1.268 . S
O79 Sc66 2.105 . S
O79 C73 1.268 . S
O80 Sc68 2.105 . S
O80 C74 1.268 . S
O81 Sc67 2.105 . S
O81 C75 1.268 . S
O82 Sc66 2.105 . S
O82 C74 1.268 . S
O83 Sc67 2.105 . S
O83 C73 1.268 . S
O84 Sc68 2.105 . S
O84 C75 1.268 . S
O85 Sc66 2.105 . S
O85 C71 1.268 . S
O86 Sc68 2.105 . S
O86 C70 1.268 . S
O87 Sc67 2.105 . S
O87 C72 1.268 . S
Sc88 O91 2.025 . S
Sc88 O98 2.105 . S
Sc88 O101 2.105 . S
Sc88 O104 2.105 . S
Sc88 O107 2.105 . S
Sc89 O91 2.025 . S
Sc89 O99 2.105 . S
Sc89 O103 2.105 . S
Sc89 O105 2.105 . S
Sc89 O109 2.105 . S
Sc90 O91 2.025 . S
Sc90 O100 2.105 . S
Sc90 O102 2.105 . S
Sc90 O106 2.105 . S
Sc90 O108 2.105 . S
O91 Sc88 2.025 . S
O91 Sc89 2.025 . S
O91 Sc90 2.025 . S
C92 O98 1.268 . S
C92 O108 1.268 . S
C93 O99 1.268 . S
C93 O107 1.268 . S
C94 O100 1.268 . S
C94 O109 1.268 . S
C95 O101 1.268 . S
C95 O105 1.268 . S
C96 O102 1.268 . S
C96 O104 1.268 . S
C97 O103 1.268 . S
C97 O106 1.268 . S
O98 Sc88 2.105 . S
O98 C92 1.268 . S
O99 Sc89 2.105 . S
O99 C93 1.268 . S
O100 Sc90 2.105 . S
O100 C94 1.268 . S
O101 Sc88 2.105 . S
O101 C95 1.268 . S
O102 Sc90 2.105 . S
O102 C96 1.268 . S
O103 Sc89 2.105 . S
O103 C97 1.268 . S
O104 Sc88 2.105 . S
O104 C96 1.268 . S
O105 Sc89 2.105 . S
O105 C95 1.268 . S
O106 Sc90 2.105 . S
O106 C97 1.268 . S
O107 Sc88 2.105 . S
O107 C93 1.268 . S
O108 Sc90 2.105 . S
O108 C92 1.268 . S
O109 Sc89 2.105 . S
O109 C94 1.268 . S
Sc110 O113 2.025 . S
Sc110 O120 2.105 . S
Sc110 O123 2.105 . S
Sc110 O126 2.105 . S
Sc110 O129 2.105 . S
Sc111 O113 2.025 . S
Sc111 O121 2.105 . S
Sc111 O125 2.105 . S
Sc111 O127 2.105 . S
Sc111 O131 2.105 . S
Sc112 O113 2.025 . S
Sc112 O122 2.105 . S
Sc112 O124 2.105 . S
Sc112 O128 2.105 . S
Sc112 O130 2.105 . S
O113 Sc110 2.025 . S
O113 Sc111 2.025 . S
O113 Sc112 2.025 . S
C114 O120 1.268 . S
C114 O130 1.268 . S
C115 O121 1.268 . S
C115 O129 1.268 . S
C116 O122 1.268 . S
C116 O131 1.268 . S
C117 O123 1.268 . S
C117 O127 1.268 . S
C118 O124 1.268 . S
C118 O126 1.268 . S
C119 O125 1.268 . S
C119 O128 1.268 . S
O120 Sc110 2.105 . S
O120 C114 1.268 . S
O121 Sc111 2.105 . S
O121 C115 1.268 . S
O122 Sc112 2.105 . S
O122 C116 1.268 . S
O123 Sc110 2.105 . S
O123 C117 1.268 . S
O124 Sc112 2.105 . S
O124 C118 1.268 . S
O125 Sc111 2.105 . S
O125 C119 1.268 . S
O126 Sc110 2.105 . S
O126 C118 1.268 . S
O127 Sc111 2.105 . S
O127 C117 1.268 . S
O128 Sc112 2.105 . S
O128 C119 1.268 . S
O129 Sc110 2.105 . S
O129 C115 1.268 . S
O130 Sc112 2.105 . S
O130 C114 1.268 . S
O131 Sc111 2.105 . S
O131 C116 1.268 . S
Sc132 O135 2.025 . S
Sc132 O142 2.105 . S
Sc132 O145 2.105 . S
Sc132 O148 2.105 . S
Sc132 O151 2.105 . S
Sc133 O135 2.025 . S
Sc133 O143 2.105 . S
Sc133 O147 2.105 . S
Sc133 O149 2.105 . S
Sc133 O153 2.105 . S
Sc134 O135 2.025 . S
Sc134 O144 2.105 . S
Sc134 O146 2.105 . S
Sc134 O150 2.105 . S
Sc134 O152 2.105 . S
O135 Sc132 2.025 . S
O135 Sc133 2.025 . S
O135 Sc134 2.025 . S
C136 O142 1.268 . S
C136 O152 1.268 . S
C137 O143 1.268 . S
C137 O151 1.268 . S
C138 O144 1.268 . S
C138 O153 1.268 . S
C139 O145 1.268 . S
C139 O149 1.268 . S
C140 O146 1.268 . S
C140 O148 1.268 . S
C141 O147 1.268 . S
C141 O150 1.268 . S
O142 Sc132 2.105 . S
O142 C136 1.268 . S
O143 Sc133 2.105 . S
O143 C137 1.268 . S
O144 Sc134 2.105 . S
O144 C138 1.268 . S
O145 Sc132 2.105 . S
O145 C139 1.268 . S
O146 Sc134 2.105 . S
O146 C140 1.268 . S
O147 Sc133 2.105 . S
O147 C141 1.268 . S
O148 Sc132 2.105 . S
O148 C140 1.268 . S
O149 Sc133 2.105 . S
O149 C139 1.268 . S
O150 Sc134 2.105 . S
O150 C141 1.268 . S
O151 Sc132 2.105 . S
O151 C137 1.268 . S
O152 Sc134 2.105 . S
O152 C136 1.268 . S
O153 Sc133 2.105 . S
O153 C138 1.268 . S
Sc154 O157 2.025 . S
Sc154 O164 2.105 . S
Sc154 O167 2.105 . S
Sc154 O170 2.105 . S
Sc154 O173 2.105 . S
Sc155 O157 2.025 . S
Sc155 O165 2.105 . S
Sc155 O169 2.105 . S
Sc155 O171 2.105 . S
Sc155 O175 2.105 . S
Sc156 O157 2.025 . S
Sc156 O166 2.105 1_556 S
Sc156 O168 2.105 . S
Sc156 O172 2.105 . S
Sc156 O174 2.105 1_556 S
O157 Sc154 2.025 . S
O157 Sc155 2.025 . S
O157 Sc156 2.025 . S
C158 O164 1.268 1_554 S
C158 O174 1.268 . S
C159 O165 1.268 . S
C159 O173 1.268 . S
C160 O166 1.268 1_556 S
C160 O175 1.268 . S
C161 O167 1.268 . S
C161 O171 1.268 . S
C162 O168 1.268 . S
C162 O170 1.268 . S
C163 O169 1.268 . S
C163 O172 1.268 . S
O164 Sc154 2.105 . S
O164 C158 1.268 1_556 S
O165 Sc155 2.105 . S
O165 C159 1.268 . S
O166 Sc156 2.105 1_554 S
O166 C160 1.268 1_554 S
O167 Sc154 2.105 . S
O167 C161 1.268 . S
O168 Sc156 2.105 . S
O168 C162 1.268 . S
O169 Sc155 2.105 . S
O169 C163 1.268 . S
O170 Sc154 2.105 . S
O170 C162 1.268 . S
O171 Sc155 2.105 . S
O171 C161 1.268 . S
O172 Sc156 2.105 . S
O172 C163 1.268 . S
O173 Sc154 2.105 . S
O173 C159 1.268 . S
O174 Sc156 2.105 1_554 S
O174 C158 1.268 . S
O175 Sc155 2.105 . S
O175 C160 1.268 . S
Sc176 O179 2.025 . S
Sc176 O186 2.105 . S
Sc176 O189 2.105 . S
Sc176 O192 2.105 . S
Sc176 O195 2.105 . S
Sc177 O179 2.025 . S
Sc177 O187 2.105 . S
Sc177 O191 2.105 . S
Sc177 O193 2.105 . S
Sc177 O197 2.105 . S
Sc178 O179 2.025 . S
Sc178 O188 2.105 . S
Sc178 O190 2.105 . S
Sc178 O194 2.105 . S
Sc178 O196 2.105 . S
O179 Sc176 2.025 . S
O179 Sc177 2.025 . S
O179 Sc178 2.025 . S
C180 O186 1.268 . S
C180 O196 1.268 . S
C181 O187 1.268 . S
C181 O195 1.268 . S
C182 O188 1.268 . S
C182 O197 1.268 . S
C183 O189 1.268 . S
C183 O193 1.268 . S
C184 O190 1.268 . S
C184 O192 1.268 . S
C185 O191 1.268 . S
C185 O194 1.268 . S
O186 Sc176 2.105 . S
O186 C180 1.268 . S
O187 Sc177 2.105 . S
O187 C181 1.268 . S
O188 Sc178 2.105 . S
O188 C182 1.268 . S
O189 Sc176 2.105 . S
O189 C183 1.268 . S
O190 Sc178 2.105 . S
O190 C184 1.268 . S
O191 Sc177 2.105 . S
O191 C185 1.268 . S
O192 Sc176 2.105 . S
O192 C184 1.268 . S
O193 Sc177 2.105 . S
O193 C183 1.268 . S
O194 Sc178 2.105 . S
O194 C185 1.268 . S
O195 Sc176 2.105 . S
O195 C181 1.268 . S
O196 Sc178 2.105 . S
O196 C180 1.268 . S
O197 Sc177 2.105 . S
O197 C182 1.268 . S
Sc198 O201 2.025 . S
Sc198 O208 2.105 . S
Sc198 O211 2.105 . S
Sc198 O214 2.105 . S
Sc198 O217 2.105 . S
Sc199 O201 2.025 . S
Sc199 O209 2.105 . S
Sc199 O213 2.105 . S
Sc199 O215 2.105 . S
Sc199 O219 2.105 . S
Sc200 O201 2.025 . S
Sc200 O210 2.105 . S
Sc200 O212 2.105 . S
Sc200 O216 2.105 . S
Sc200 O218 2.105 . S
O201 Sc198 2.025 . S
O201 Sc199 2.025 . S
O201 Sc200 2.025 . S
C202 O208 1.268 . S
C202 O218 1.268 . S
C203 O209 1.268 . S
C203 O217 1.268 . S
C204 O210 1.268 . S
C204 O219 1.268 . S
C205 O211 1.268 . S
C205 O215 1.268 . S
C206 O212 1.268 . S
C206 O214 1.268 . S
C207 O213 1.268 . S
C207 O216 1.268 . S
O208 Sc198 2.105 . S
O208 C202 1.268 . S
O209 Sc199 2.105 . S
O209 C203 1.268 . S
O210 Sc200 2.105 . S
O210 C204 1.268 . S
O211 Sc198 2.105 . S
O211 C205 1.268 . S
O212 Sc200 2.105 . S
O212 C206 1.268 . S
O213 Sc199 2.105 . S
O213 C207 1.268 . S
O214 Sc198 2.105 . S
O214 C206 1.268 . S
O215 Sc199 2.105 . S
O215 C205 1.268 . S
O216 Sc200 2.105 . S
O216 C207 1.268 . S
O217 Sc198 2.105 . S
O217 C203 1.268 . S
O218 Sc200 2.105 . S
O218 C202 1.268 . S
O219 Sc199 2.105 . S
O219 C204 1.268 . S
Sc220 O223 2.025 . S
Sc220 O230 2.105 . S
Sc220 O233 2.105 . S
Sc220 O236 2.105 . S
Sc220 O239 2.105 . S
Sc221 O223 2.025 . S
Sc221 O231 2.105 . S
Sc221 O235 2.105 . S
Sc221 O237 2.105 . S
Sc221 O241 2.105 . S
Sc222 O223 2.025 . S
Sc222 O232 2.105 . S
Sc222 O234 2.105 . S
Sc222 O238 2.105 . S
Sc222 O240 2.105 . S
O223 Sc220 2.025 . S
O223 Sc221 2.025 . S
O223 Sc222 2.025 . S
C224 O230 1.268 . S
C224 O240 1.268 . S
C225 O231 1.268 . S
C225 O239 1.268 . S
C226 O232 1.268 . S
C226 O241 1.268 . S
C227 O233 1.268 . S
C227 O237 1.268 . S
C228 O234 1.268 . S
C228 O236 1.268 . S
C229 O235 1.268 . S
C229 O238 1.268 . S
O230 Sc220 2.105 . S
O230 C224 1.268 . S
O231 Sc221 2.105 . S
O231 C225 1.268 . S
O232 Sc222 2.105 . S
O232 C226 1.268 . S
O233 Sc220 2.105 . S
O233 C227 1.268 . S
O234 Sc222 2.105 . S
O234 C228 1.268 . S
O235 Sc221 2.105 . S
O235 C229 1.268 . S
O236 Sc220 2.105 . S
O236 C228 1.268 . S
O237 Sc221 2.105 . S
O237 C227 1.268 . S
O238 Sc222 2.105 . S
O238 C229 1.268 . S
O239 Sc220 2.105 . S
O239 C225 1.268 . S
O240 Sc222 2.105 . S
O240 C224 1.268 . S
O241 Sc221 2.105 . S
O241 C226 1.268 . S
Sc242 O245 2.025 . S
Sc242 O252 2.105 . S
Sc242 O255 2.105 . S
Sc242 O258 2.105 . S
Sc242 O261 2.105 . S
Sc243 O245 2.025 . S
Sc243 O253 2.105 . S
Sc243 O257 2.105 . S
Sc243 O259 2.105 . S
Sc243 O263 2.105 . S
Sc244 O245 2.025 . S
Sc244 O254 2.105 . S
Sc244 O256 2.105 . S
Sc244 O260 2.105 . S
Sc244 O262 2.105 . S
O245 Sc242 2.025 . S
O245 Sc243 2.025 . S
O245 Sc244 2.025 . S
C246 O252 1.268 . S
C246 O262 1.268 . S
C247 O253 1.268 . S
C247 O261 1.268 . S
C248 O254 1.268 . S
C248 O263 1.268 . S
C249 O255 1.268 . S
C249 O259 1.268 . S
C250 O256 1.268 . S
C250 O258 1.268 . S
C251 O257 1.268 . S
C251 O260 1.268 . S
O252 Sc242 2.105 . S
O252 C246 1.268 . S
O253 Sc243 2.105 . S
O253 C247 1.268 . S
O254 Sc244 2.105 . S
O254 C248 1.268 . S
O255 Sc242 2.105 . S
O255 C249 1.268 . S
O256 Sc244 2.105 . S
O256 C250 1.268 . S
O257 Sc243 2.105 . S
O257 C251 1.268 . S
O258 Sc242 2.105 . S
O258 C250 1.268 . S
O259 Sc243 2.105 . S
O259 C249 1.268 . S
O260 Sc244 2.105 . S
O260 C251 1.268 . S
O261 Sc242 2.105 . S
O261 C247 1.268 . S
O262 Sc244 2.105 . S
O262 C246 1.268 . S
O263 Sc243 2.105 . S
O263 C248 1.268 . S
C264 C265 1.349 . S
C264 C266 1.327 . S
C264 H289 0.950 . S
C265 C264 1.349 . S
C265 C281 1.349 . S
C266 C264 1.327 . S
C266 C285 1.429 . S
C266 H290 0.950 . S
C267 C284 1.574 . S
C267 C286 1.368 . S
C267 H291 0.949 . S
H268 C272 0.949 . S
C269 C270 1.349 . S
C269 C271 1.327 . S
C269 H292 0.950 . S
C270 C269 1.349 . S
C270 C282 1.349 . S
C271 C269 1.327 . S
C271 C287 1.429 . S
C271 H293 0.950 . S
C272 H268 0.949 . S
C272 C280 1.574 . S
C272 C288 1.368 . S
H273 C281 0.950 . S
H274 C279 0.950 . S
H275 C280 0.949 . S
H276 C282 0.950 . S
H277 C283 0.950 . S
H278 C284 0.949 . S
C279 H274 0.950 . S
C279 C281 1.327 . S
C279 C285 1.429 . S
C280 C272 1.574 . S
C280 H275 0.949 . S
C280 C286 1.368 . S
C281 C265 1.349 . S
C281 H273 0.950 . S
C281 C279 1.327 . S
C282 C270 1.349 . S
C282 H276 0.950 . S
C282 C283 1.327 . S
C283 H277 0.950 . S
C283 C282 1.327 . S
C283 C287 1.429 . S
C284 C267 1.574 . S
C284 H278 0.949 . S
C284 C288 1.368 . S
C285 C266 1.429 . S
C285 C279 1.429 . S
C285 C286 1.523 . S
C286 C267 1.368 . S
C286 C280 1.368 . S
C286 C285 1.523 . S
C287 C271 1.429 . S
C287 C283 1.429 . S
C287 C288 1.523 . S
C288 C272 1.368 . S
C288 C284 1.368 . S
C288 C287 1.523 . S
H289 C264 0.950 . S
H290 C266 0.950 . S
H291 C267 0.949 . S
H292 C269 0.950 . S
H293 C271 0.950 . S
C294 C295 1.349 . S
C294 C296 1.327 . S
C294 H319 0.950 . S
C295 C294 1.349 . S
C295 C311 1.349 . S
C296 C294 1.327 . S
C296 C315 1.429 . S
C296 H320 0.950 . S
C297 C314 1.574 . S
C297 C316 1.368 . S
C297 H321 0.949 . S
H298 C302 0.949 . S
C299 C300 1.349 . S
C299 C301 1.327 . S
C299 H322 0.950 . S
C300 C299 1.349 . S
C300 C312 1.349 . S
C301 C299 1.327 . S
C301 C317 1.429 . S
C301 H323 0.950 . S
C302 H298 0.949 . S
C302 C310 1.574 . S
C302 C318 1.368 . S
H303 C311 0.950 . S
H304 C309 0.950 . S
H305 C310 0.949 . S
H306 C312 0.950 . S
H307 C313 0.950 . S
H308 C314 0.949 . S
C309 H304 0.950 . S
C309 C311 1.327 . S
C309 C315 1.429 . S
C310 C302 1.574 . S
C310 H305 0.949 . S
C310 C316 1.368 . S
C311 C295 1.349 . S
C311 H303 0.950 . S
C311 C309 1.327 . S
C312 C300 1.349 . S
C312 H306 0.950 . S
C312 C313 1.327 . S
C313 H307 0.950 . S
C313 C312 1.327 . S
C313 C317 1.429 . S
C314 C297 1.574 . S
C314 H308 0.949 . S
C314 C318 1.368 . S
C315 C296 1.429 . S
C315 C309 1.429 . S
C315 C316 1.523 . S
C316 C297 1.368 . S
C316 C310 1.368 . S
C316 C315 1.523 . S
C317 C301 1.429 . S
C317 C313 1.429 . S
C317 C318 1.523 . S
C318 C302 1.368 . S
C318 C314 1.368 . S
C318 C317 1.523 . S
H319 C294 0.950 . S
H320 C296 0.950 . S
H321 C297 0.949 . S
H322 C299 0.950 . S
H323 C301 0.950 . S
C324 C325 1.349 . S
C324 C326 1.327 . S
C324 H349 0.950 . S
C325 C324 1.349 . S
C325 C341 1.349 . S
C326 C324 1.327 . S
C326 C345 1.429 . S
C326 H350 0.950 . S
C327 C344 1.574 . S
C327 C346 1.368 . S
C327 H351 0.949 . S
H328 C332 0.949 . S
C329 C330 1.349 . S
C329 C331 1.327 . S
C329 H352 0.950 . S
C330 C329 1.349 . S
C330 C342 1.349 . S
C331 C329 1.327 . S
C331 C347 1.429 . S
C331 H353 0.950 . S
C332 H328 0.949 . S
C332 C340 1.574 . S
C332 C348 1.368 . S
H333 C341 0.950 . S
H334 C339 0.950 . S
H335 C340 0.949 . S
H336 C342 0.950 . S
H337 C343 0.950 . S
H338 C344 0.949 . S
C339 H334 0.950 . S
C339 C341 1.327 . S
C339 C345 1.429 . S
C340 C332 1.574 . S
C340 H335 0.949 . S
C340 C346 1.368 . S
C341 C325 1.349 . S
C341 H333 0.950 . S
C341 C339 1.327 . S
C342 C330 1.349 . S
C342 H336 0.950 . S
C342 C343 1.327 . S
C343 H337 0.950 . S
C343 C342 1.327 . S
C343 C347 1.429 . S
C344 C327 1.574 . S
C344 H338 0.949 . S
C344 C348 1.368 . S
C345 C326 1.429 . S
C345 C339 1.429 . S
C345 C346 1.523 . S
C346 C327 1.368 . S
C346 C340 1.368 . S
C346 C345 1.523 . S
C347 C331 1.429 . S
C347 C343 1.429 . S
C347 C348 1.523 . S
C348 C332 1.368 . S
C348 C344 1.368 . S
C348 C347 1.523 . S
H349 C324 0.950 . S
H350 C326 0.950 . S
H351 C327 0.949 . S
H352 C329 0.950 . S
H353 C331 0.950 . S
C354 C355 1.349 . S
C354 C356 1.327 . S
C354 H379 0.950 . S
C355 C354 1.349 . S
C355 C371 1.349 . S
C356 C354 1.327 . S
C356 C375 1.429 . S
C356 H380 0.950 . S
C357 C374 1.574 . S
C357 C376 1.368 . S
C357 H381 0.949 . S
H358 C362 0.949 . S
C359 C360 1.349 . S
C359 C361 1.327 . S
C359 H382 0.950 . S
C360 C359 1.349 . S
C360 C372 1.349 . S
C361 C359 1.327 . S
C361 C377 1.429 . S
C361 H383 0.950 . S
C362 H358 0.949 . S
C362 C370 1.574 . S
C362 C378 1.368 . S
H363 C371 0.950 . S
H364 C369 0.950 . S
H365 C370 0.949 . S
H366 C372 0.950 . S
H367 C373 0.950 . S
H368 C374 0.949 . S
C369 H364 0.950 . S
C369 C371 1.327 . S
C369 C375 1.429 . S
C370 C362 1.574 . S
C370 H365 0.949 . S
C370 C376 1.368 . S
C371 C355 1.349 . S
C371 H363 0.950 . S
C371 C369 1.327 . S
C372 C360 1.349 . S
C372 H366 0.950 . S
C372 C373 1.327 . S
C373 H367 0.950 . S
C373 C372 1.327 . S
C373 C377 1.429 . S
C374 C357 1.574 . S
C374 H368 0.949 . S
C374 C378 1.368 . S
C375 C356 1.429 . S
C375 C369 1.429 . S
C375 C376 1.523 . S
C376 C357 1.368 . S
C376 C370 1.368 . S
C376 C375 1.523 . S
C377 C361 1.429 . S
C377 C373 1.429 . S
C377 C378 1.523 . S
C378 C362 1.368 . S
C378 C374 1.368 . S
C378 C377 1.523 . S
H379 C354 0.950 . S
H380 C356 0.950 . S
H381 C357 0.949 . S
H382 C359 0.950 . S
H383 C361 0.950 . S
C384 C385 1.349 . S
C384 C386 1.327 . S
C384 H409 0.950 . S
C385 C384 1.349 . S
C385 C401 1.349 . S
C386 C384 1.327 . S
C386 C405 1.429 . S
C386 H410 0.950 . S
C387 C404 1.574 . S
C387 C406 1.368 . S
C387 H411 0.949 . S
H388 C392 0.949 . S
C389 C390 1.349 . S
C389 C391 1.327 . S
C389 H412 0.950 . S
C390 C389 1.349 . S
C390 C402 1.349 . S
C391 C389 1.327 . S
C391 C407 1.429 . S
C391 H413 0.950 . S
C392 H388 0.949 . S
C392 C400 1.574 . S
C392 C408 1.368 . S
H393 C401 0.950 . S
H394 C399 0.950 . S
H395 C400 0.949 . S
H396 C402 0.950 . S
H397 C403 0.950 . S
H398 C404 0.949 . S
C399 H394 0.950 . S
C399 C401 1.327 . S
C399 C405 1.429 . S
C400 C392 1.574 . S
C400 H395 0.949 . S
C400 C406 1.368 . S
C401 C385 1.349 . S
C401 H393 0.950 . S
C401 C399 1.327 . S
C402 C390 1.349 . S
C402 H396 0.950 . S
C402 C403 1.327 . S
C403 H397 0.950 . S
C403 C402 1.327 . S
C403 C407 1.429 . S
C404 C387 1.574 . S
C404 H398 0.949 . S
C404 C408 1.368 . S
C405 C386 1.429 . S
C405 C399 1.429 . S
C405 C406 1.523 . S
C406 C387 1.368 . S
C406 C400 1.368 . S
C406 C405 1.523 . S
C407 C391 1.429 . S
C407 C403 1.429 . S
C407 C408 1.523 . S
C408 C392 1.368 . S
C408 C404 1.368 . S
C408 C407 1.523 . S
H409 C384 0.950 . S
H410 C386 0.950 . S
H411 C387 0.949 . S
H412 C389 0.950 . S
H413 C391 0.950 . S
C414 C415 1.349 . S
C414 C416 1.327 . S
C414 H439 0.950 . S
C415 C414 1.349 . S
C415 C431 1.349 . S
C416 C414 1.327 . S
C416 C435 1.429 . S
C416 H440 0.950 . S
C417 C434 1.574 . S
C417 C436 1.368 . S
C417 H441 0.949 . S
H418 C422 0.949 . S
C419 C420 1.349 . S
C419 C421 1.327 . S
C419 H442 0.950 . S
C420 C419 1.349 . S
C420 C432 1.349 . S
C421 C419 1.327 . S
C421 C437 1.429 . S
C421 H443 0.950 . S
C422 H418 0.949 . S
C422 C430 1.574 . S
C422 C438 1.368 . S
H423 C431 0.950 . S
H424 C429 0.950 . S
H425 C430 0.949 . S
H426 C432 0.950 . S
H427 C433 0.950 . S
H428 C434 0.949 . S
C429 H424 0.950 . S
C429 C431 1.327 . S
C429 C435 1.429 . S
C430 C422 1.574 . S
C430 H425 0.949 . S
C430 C436 1.368 . S
C431 C415 1.349 . S
C431 H423 0.950 . S
C431 C429 1.327 . S
C432 C420 1.349 . S
C432 H426 0.950 . S
C432 C433 1.327 . S
C433 H427 0.950 . S
C433 C432 1.327 . S
C433 C437 1.429 . S
C434 C417 1.574 . S
C434 H428 0.949 . S
C434 C438 1.368 . S
C435 C416 1.429 . S
C435 C429 1.429 . S
C435 C436 1.523 . S
C436 C417 1.368 . S
C436 C430 1.368 . S
C436 C435 1.523 . S
C437 C421 1.429 . S
C437 C433 1.429 . S
C437 C438 1.523 . S
C438 C422 1.368 . S
C438 C434 1.368 . S
C438 C437 1.523 . S
H439 C414 0.950 . S
H440 C416 0.950 . S
H441 C417 0.949 . S
H442 C419 0.950 . S
H443 C421 0.950 . S
C444 C445 1.349 . S
C444 C446 1.327 . S
C444 H469 0.950 . S
C445 C444 1.349 . S
C445 C461 1.349 . S
C446 C444 1.327 . S
C446 C465 1.429 . S
C446 H470 0.950 . S
C447 C464 1.574 . S
C447 C466 1.368 . S
C447 H471 0.949 . S
H448 C452 0.949 . S
C449 C450 1.349 . S
C449 C451 1.327 . S
C449 H472 0.950 . S
C450 C449 1.349 . S
C450 C462 1.349 . S
C451 C449 1.327 . S
C451 C467 1.429 . S
C451 H473 0.950 . S
C452 H448 0.949 . S
C452 C460 1.574 . S
C452 C468 1.368 . S
H453 C461 0.950 . S
H454 C459 0.950 . S
H455 C460 0.949 . S
H456 C462 0.950 . S
H457 C463 0.950 . S
H458 C464 0.949 . S
C459 H454 0.950 . S
C459 C461 1.327 . S
C459 C465 1.429 . S
C460 C452 1.574 . S
C460 H455 0.949 . S
C460 C466 1.368 . S
C461 C445 1.349 . S
C461 H453 0.950 . S
C461 C459 1.327 . S
C462 C450 1.349 . S
C462 H456 0.950 . S
C462 C463 1.327 . S
C463 H457 0.950 . S
C463 C462 1.327 . S
C463 C467 1.429 . S
C464 C447 1.574 . S
C464 H458 0.949 . S
C464 C468 1.368 . S
C465 C446 1.429 . S
C465 C459 1.429 . S
C465 C466 1.523 . S
C466 C447 1.368 . S
C466 C460 1.368 . S
C466 C465 1.523 . S
C467 C451 1.429 . S
C467 C463 1.429 . S
C467 C468 1.523 . S
C468 C452 1.368 . S
C468 C464 1.368 . S
C468 C467 1.523 . S
H469 C444 0.950 . S
H470 C446 0.950 . S
H471 C447 0.949 . S
H472 C449 0.950 . S
H473 C451 0.950 . S
C474 C475 1.349 . S
C474 C476 1.327 . S
C474 H499 0.950 . S
C475 C474 1.349 . S
C475 C491 1.349 . S
C476 C474 1.327 . S
C476 C495 1.429 . S
C476 H500 0.950 . S
C477 C494 1.574 1_655 S
C477 C496 1.368 . S
C477 H501 0.949 . S
H478 C482 0.949 . S
C479 C480 1.349 . S
C479 C481 1.327 . S
C479 H502 0.950 . S
C480 C479 1.349 . S
C480 C492 1.349 . S
C481 C479 1.327 . S
C481 C497 1.429 . S
C481 H503 0.950 . S
C482 H478 0.949 . S
C482 C490 1.574 1_455 S
C482 C498 1.368 . S
H483 C491 0.950 . S
H484 C489 0.950 . S
H485 C490 0.949 . S
H486 C492 0.950 . S
H487 C493 0.950 . S
H488 C494 0.949 . S
C489 H484 0.950 . S
C489 C491 1.327 . S
C489 C495 1.429 . S
C490 C482 1.574 1_655 S
C490 H485 0.949 . S
C490 C496 1.368 . S
C491 C475 1.349 . S
C491 H483 0.950 . S
C491 C489 1.327 . S
C492 C480 1.349 . S
C492 H486 0.950 . S
C492 C493 1.327 . S
C493 H487 0.950 . S
C493 C492 1.327 . S
C493 C497 1.429 . S
C494 C477 1.574 1_455 S
C494 H488 0.949 . S
C494 C498 1.368 . S
C495 C476 1.429 . S
C495 C489 1.429 . S
C495 C496 1.523 . S
C496 C477 1.368 . S
C496 C490 1.368 . S
C496 C495 1.523 . S
C497 C481 1.429 . S
C497 C493 1.429 . S
C497 C498 1.523 . S
C498 C482 1.368 . S
C498 C494 1.368 . S
C498 C497 1.523 . S
H499 C474 0.950 . S
H500 C476 0.950 . S
H501 C477 0.949 . S
H502 C479 0.950 . S
H503 C481 0.950 . S
C504 C505 1.349 . S
C504 C506 1.327 . S
C504 H529 0.950 . S
C505 C504 1.349 . S
C505 C521 1.349 . S
C506 C504 1.327 . S
C506 C525 1.429 . S
C506 H530 0.950 . S
C507 C524 1.574 . S
C507 C526 1.368 . S
C507 H531 0.949 . S
H508 C512 0.949 . S
C509 C510 1.349 . S
C509 C511 1.327 . S
C509 H532 0.950 . S
C510 C509 1.349 . S
C510 C522 1.349 . S
C511 C509 1.327 . S
C511 C527 1.429 . S
C511 H533 0.950 . S
C512 H508 0.949 . S
C512 C520 1.574 . S
C512 C528 1.368 . S
H513 C521 0.950 . S
H514 C519 0.950 . S
H515 C520 0.949 . S
H516 C522 0.950 . S
H517 C523 0.950 . S
H518 C524 0.949 . S
C519 H514 0.950 . S
C519 C521 1.327 . S
C519 C525 1.429 . S
C520 C512 1.574 . S
C520 H515 0.949 . S
C520 C526 1.368 1_565 S
C521 C505 1.349 . S
C521 H513 0.950 . S
C521 C519 1.327 . S
C522 C510 1.349 . S
C522 H516 0.950 . S
C522 C523 1.327 . S
C523 H517 0.950 . S
C523 C522 1.327 . S
C523 C527 1.429 . S
C524 C507 1.574 . S
C524 H518 0.949 . S
C524 C528 1.368 1_545 S
C525 C506 1.429 . S
C525 C519 1.429 . S
C525 C526 1.523 . S
C526 C507 1.368 . S
C526 C520 1.368 1_545 S
C526 C525 1.523 . S
C527 C511 1.429 . S
C527 C523 1.429 . S
C527 C528 1.523 . S
C528 C512 1.368 . S
C528 C524 1.368 1_565 S
C528 C527 1.523 . S
H529 C504 0.950 . S
H530 C506 0.950 . S
H531 C507 0.949 . S
H532 C509 0.950 . S
H533 C511 0.950 . S
C534 C535 1.349 . S
C534 C536 1.327 . S
C534 H559 0.950 . S
C535 C534 1.349 . S
C535 C551 1.349 . S
C536 C534 1.327 . S
C536 C555 1.429 . S
C536 H560 0.950 . S
C537 C554 1.574 . S
C537 C556 1.368 . S
C537 H561 0.949 . S
H538 C542 0.949 . S
C539 C540 1.349 . S
C539 C541 1.327 . S
C539 H562 0.950 . S
C540 C539 1.349 . S
C540 C552 1.349 . S
C541 C539 1.327 . S
C541 C557 1.429 . S
C541 H563 0.950 . S
C542 H538 0.949 . S
C542 C550 1.574 . S
C542 C558 1.368 . S
H543 C551 0.950 . S
H544 C549 0.950 . S
H545 C550 0.949 . S
H546 C552 0.950 . S
H547 C553 0.950 . S
H548 C554 0.949 . S
C549 H544 0.950 . S
C549 C551 1.327 . S
C549 C555 1.429 . S
C550 C542 1.574 . S
C550 H545 0.949 . S
C550 C556 1.368 . S
C551 C535 1.349 . S
C551 H543 0.950 . S
C551 C549 1.327 . S
C552 C540 1.349 . S
C552 H546 0.950 . S
C552 C553 1.327 . S
C553 H547 0.950 . S
C553 C552 1.327 . S
C553 C557 1.429 . S
C554 C537 1.574 . S
C554 H548 0.949 . S
C554 C558 1.368 . S
C555 C536 1.429 . S
C555 C549 1.429 . S
C555 C556 1.523 . S
C556 C537 1.368 . S
C556 C550 1.368 . S
C556 C555 1.523 . S
C557 C541 1.429 . S
C557 C553 1.429 . S
C557 C558 1.523 . S
C558 C542 1.368 . S
C558 C554 1.368 . S
C558 C557 1.523 . S
H559 C534 0.950 . S
H560 C536 0.950 . S
H561 C537 0.949 . S
H562 C539 0.950 . S
H563 C541 0.950 . S
C564 C565 1.349 . S
C564 C566 1.327 . S
C564 H589 0.950 . S
C565 C564 1.349 . S
C565 C581 1.349 . S
C566 C564 1.327 . S
C566 C585 1.429 . S
C566 H590 0.950 . S
C567 C584 1.574 1_455 S
C567 C586 1.368 . S
C567 H591 0.949 . S
H568 C572 0.949 . S
C569 C570 1.349 . S
C569 C571 1.327 . S
C569 H592 0.950 . S
C570 C569 1.349 . S
C570 C582 1.349 . S
C571 C569 1.327 . S
C571 C587 1.429 . S
C571 H593 0.950 . S
C572 H568 0.949 . S
C572 C580 1.574 1_655 S
C572 C588 1.368 . S
H573 C581 0.950 . S
H574 C579 0.950 . S
H575 C580 0.949 . S
H576 C582 0.950 . S
H577 C583 0.950 . S
H578 C584 0.949 . S
C579 H574 0.950 . S
C579 C581 1.327 . S
C579 C585 1.429 . S
C580 C572 1.574 1_455 S
C580 H575 0.949 . S
C580 C586 1.368 . S
C581 C565 1.349 . S
C581 H573 0.950 . S
C581 C579 1.327 . S
C582 C570 1.349 . S
C582 H576 0.950 . S
C582 C583 1.327 . S
C583 H577 0.950 . S
C583 C582 1.327 . S
C583 C587 1.429 . S
C584 C567 1.574 1_655 S
C584 H578 0.949 . S
C584 C588 1.368 . S
C585 C566 1.429 . S
C585 C579 1.429 . S
C585 C586 1.523 . S
C586 C567 1.368 . S
C586 C580 1.368 . S
C586 C585 1.523 . S
C587 C571 1.429 . S
C587 C583 1.429 . S
C587 C588 1.523 . S
C588 C572 1.368 . S
C588 C584 1.368 . S
C588 C587 1.523 . S
H589 C564 0.950 . S
H590 C566 0.950 . S
H591 C567 0.949 . S
H592 C569 0.950 . S
H593 C571 0.950 . S
C594 C595 1.349 . S
C594 C596 1.327 . S
C594 H619 0.950 . S
C595 C594 1.349 . S
C595 C611 1.349 . S
C596 C594 1.327 . S
C596 C615 1.429 . S
C596 H620 0.950 . S
C597 C614 1.574 1_546 S
C597 C616 1.368 . S
C597 H621 0.949 . S
H598 C602 0.949 . S
C599 C600 1.349 . S
C599 C601 1.327 . S
C599 H622 0.950 . S
C600 C599 1.349 . S
C600 C612 1.349 . S
C601 C599 1.327 . S
C601 C617 1.429 . S
C601 H623 0.950 . S
C602 H598 0.949 . S
C602 C610 1.574 1_564 S
C602 C618 1.368 . S
H603 C611 0.950 . S
H604 C609 0.950 . S
H605 C610 0.949 . S
H606 C612 0.950 . S
H607 C613 0.950 . S
H608 C614 0.949 . S
C609 H604 0.950 . S
C609 C611 1.327 . S
C609 C615 1.429 . S
C610 C602 1.574 1_546 S
C610 H605 0.949 . S
C610 C616 1.368 . S
C611 C595 1.349 . S
C611 H603 0.950 . S
C611 C609 1.327 . S
C612 C600 1.349 . S
C612 H606 0.950 . S
C612 C613 1.327 . S
C613 H607 0.950 . S
C613 C612 1.327 . S
C613 C617 1.429 . S
C614 C597 1.574 1_564 S
C614 H608 0.949 . S
C614 C618 1.368 . S
C615 C596 1.429 . S
C615 C609 1.429 . S
C615 C616 1.523 . S
C616 C597 1.368 . S
C616 C610 1.368 . S
C616 C615 1.523 . S
C617 C601 1.429 . S
C617 C613 1.429 . S
C617 C618 1.523 . S
C618 C602 1.368 . S
C618 C614 1.368 . S
C618 C617 1.523 . S
H619 C594 0.950 . S
H620 C596 0.950 . S
H621 C597 0.949 . S
H622 C599 0.950 . S
H623 C601 0.950 . S
C624 C625 1.349 . S
C624 C626 1.327 . S
C624 H649 0.950 . S
C625 C624 1.349 . S
C625 C641 1.349 . S
C626 C624 1.327 . S
C626 C645 1.429 . S
C626 H650 0.950 . S
C627 C644 1.574 . S
C627 C646 1.368 . S
C627 H651 0.949 . S
H628 C632 0.949 . S
C629 C630 1.349 . S
C629 C631 1.327 . S
C629 H652 0.950 1_556 S
C630 C629 1.349 . S
C630 C642 1.349 . S
C631 C629 1.327 . S
C631 C647 1.429 . S
C631 H653 0.950 . S
C632 H628 0.949 . S
C632 C640 1.574 . S
C632 C648 1.368 . S
H633 C641 0.950 . S
H634 C639 0.950 . S
H635 C640 0.949 . S
H636 C642 0.950 . S
H637 C643 0.950 . S
H638 C644 0.949 . S
C639 H634 0.950 . S
C639 C641 1.327 . S
C639 C645 1.429 . S
C640 C632 1.574 . S
C640 H635 0.949 . S
C640 C646 1.368 . S
C641 C625 1.349 . S
C641 H633 0.950 . S
C641 C639 1.327 . S
C642 C630 1.349 . S
C642 H636 0.950 . S
C642 C643 1.327 . S
C643 H637 0.950 . S
C643 C642 1.327 . S
C643 C647 1.429 . S
C644 C627 1.574 . S
C644 H638 0.949 . S
C644 C648 1.368 . S
C645 C626 1.429 . S
C645 C639 1.429 . S
C645 C646 1.523 . S
C646 C627 1.368 . S
C646 C640 1.368 . S
C646 C645 1.523 . S
C647 C631 1.429 . S
C647 C643 1.429 . S
C647 C648 1.523 . S
C648 C632 1.368 . S
C648 C644 1.368 . S
C648 C647 1.523 . S
H649 C624 0.950 . S
H650 C626 0.950 . S
H651 C627 0.949 . S
H652 C629 0.950 1_554 S
H653 C631 0.950 . S
C654 C655 1.362 . S
C654 C656 1.343 . S
C654 H679 0.922 1_554 S
C655 C654 1.362 . S
C655 C671 1.349 . S
C656 C654 1.343 . S
C656 C675 1.429 . S
C656 H680 0.950 . S
C657 C674 1.574 . S
C657 C676 1.368 . S
C657 H681 0.949 . S
H658 C662 0.949 . S
C659 C660 1.349 . S
C659 C661 1.327 . S
C659 H682 0.950 . S
C660 C659 1.349 . S
C660 C672 1.349 . S
C661 C659 1.327 . S
C661 C677 1.429 . S
C661 H683 0.950 . S
C662 H658 0.949 . S
C662 C670 1.574 . S
C662 C678 1.368 . S
H663 C671 0.950 . S
H664 C669 0.950 . S
H665 C670 0.949 . S
H666 C672 0.950 . S
H667 C673 0.950 . S
H668 C674 0.949 . S
C669 H664 0.950 . S
C669 C671 1.327 . S
C669 C675 1.429 . S
C670 C662 1.574 . S
C670 H665 0.949 . S
C670 C676 1.368 . S
C671 C655 1.349 . S
C671 H663 0.950 . S
C671 C669 1.327 . S
C672 C660 1.349 . S
C672 H666 0.950 . S
C672 C673 1.327 . S
C673 H667 0.950 . S
C673 C672 1.327 . S
C673 C677 1.429 . S
C674 C657 1.574 . S
C674 H668 0.949 . S
C674 C678 1.368 . S
C675 C656 1.429 . S
C675 C669 1.429 . S
C675 C676 1.523 . S
C676 C657 1.368 . S
C676 C670 1.368 . S
C676 C675 1.523 . S
C677 C661 1.429 . S
C677 C673 1.429 . S
C677 C678 1.523 . S
C678 C662 1.368 . S
C678 C674 1.368 . S
C678 C677 1.523 . S
H679 C654 0.922 1_556 S
H680 C656 0.950 . S
H681 C657 0.949 . S
H682 C659 0.950 . S
H683 C661 0.950 . S
C684 C685 1.349 . S
C684 C686 1.327 . S
C684 H709 0.950 . S
C685 C684 1.349 . S
C685 C701 1.349 . S
C686 C684 1.327 . S
C686 C705 1.429 . S
C686 H710 0.950 . S
C687 C704 1.574 . S
C687 C706 1.368 . S
C687 H711 0.949 . S
H688 C692 0.949 . S
C689 C690 1.349 . S
C689 C691 1.327 . S
C689 H712 0.950 . S
C690 C689 1.349 . S
C690 C702 1.349 . S
C691 C689 1.327 . S
C691 C707 1.429 . S
C691 H713 0.950 . S
C692 H688 0.949 . S
C692 C700 1.574 . S
C692 C708 1.368 . S
H693 C701 0.950 . S
H694 C699 0.950 . S
H695 C700 0.949 . S
H696 C702 0.950 . S
H697 C703 0.950 . S
H698 C704 0.949 . S
C699 H694 0.950 . S
C699 C701 1.327 . S
C699 C705 1.429 . S
C700 C692 1.574 . S
C700 H695 0.949 . S
C700 C706 1.368 . S
C701 C685 1.349 . S
C701 H693 0.950 . S
C701 C699 1.327 . S
C702 C690 1.349 . S
C702 H696 0.950 . S
C702 C703 1.327 . S
C703 H697 0.950 . S
C703 C702 1.327 . S
C703 C707 1.429 . S
C704 C687 1.574 . S
C704 H698 0.949 . S
C704 C708 1.368 . S
C705 C686 1.429 . S
C705 C699 1.429 . S
C705 C706 1.523 . S
C706 C687 1.368 . S
C706 C700 1.368 . S
C706 C705 1.523 . S
C707 C691 1.429 . S
C707 C703 1.429 . S
C707 C708 1.523 . S
C708 C692 1.368 . S
C708 C704 1.368 . S
C708 C707 1.523 . S
H709 C684 0.950 . S
H710 C686 0.950 . S
H711 C687 0.949 . S
H712 C689 0.950 . S
H713 C691 0.950 . S
C714 C715 1.349 . S
C714 C716 1.327 . S
C714 H739 0.950 . S
C715 C714 1.349 . S
C715 C731 1.349 . S
C716 C714 1.327 . S
C716 C735 1.429 . S
C716 H740 0.950 . S
C717 C734 1.574 . S
C717 C736 1.368 . S
C717 H741 0.949 . S
H718 C722 0.949 . S
C719 C720 1.349 . S
C719 C721 1.327 . S
C719 H742 0.950 . S
C720 C719 1.349 . S
C720 C732 1.349 . S
C721 C719 1.327 . S
C721 C737 1.429 . S
C721 H743 0.950 . S
C722 H718 0.949 . S
C722 C730 1.574 . S
C722 C738 1.368 . S
H723 C731 0.950 . S
H724 C729 0.950 . S
H725 C730 0.949 . S
H726 C732 0.950 . S
H727 C733 0.950 . S
H728 C734 0.949 . S
C729 H724 0.950 . S
C729 C731 1.327 . S
C729 C735 1.429 . S
C730 C722 1.574 . S
C730 H725 0.949 . S
C730 C736 1.368 . S
C731 C715 1.349 . S
C731 H723 0.950 . S
C731 C729 1.327 . S
C732 C720 1.349 . S
C732 H726 0.950 . S
C732 C733 1.327 . S
C733 H727 0.950 . S
C733 C732 1.327 . S
C733 C737 1.429 . S
C734 C717 1.574 . S
C734 H728 0.949 . S
C734 C738 1.368 . S
C735 C716 1.429 . S
C735 C729 1.429 . S
C735 C736 1.523 . S
C736 C717 1.368 . S
C736 C730 1.368 . S
C736 C735 1.523 . S
C737 C721 1.429 . S
C737 C733 1.429 . S
C737 C738 1.523 . S
C738 C722 1.368 . S
C738 C734 1.368 . S
C738 C737 1.523 . S
H739 C714 0.950 . S
H740 C716 0.950 . S
H741 C717 0.949 . S
H742 C719 0.950 . S
H743 C721 0.950 . S
C744 C745 1.349 . S
C744 C746 1.327 . S
C744 H769 0.950 . S
C745 C744 1.349 . S
C745 C761 1.349 . S
C746 C744 1.327 . S
C746 C765 1.429 . S
C746 H770 0.950 . S
C747 C764 1.574 . S
C747 C766 1.368 . S
C747 H771 0.949 . S
H748 C752 0.949 . S
C749 C750 1.349 . S
C749 C751 1.327 . S
C749 H772 0.950 . S
C750 C749 1.349 . S
C750 C762 1.349 . S
C751 C749 1.327 . S
C751 C767 1.429 . S
C751 H773 0.950 . S
C752 H748 0.949 . S
C752 C760 1.574 . S
C752 C768 1.368 . S
H753 C761 0.950 . S
H754 C759 0.950 . S
H755 C760 0.949 . S
H756 C762 0.950 . S
H757 C763 0.950 . S
H758 C764 0.949 . S
C759 H754 0.950 . S
C759 C761 1.327 . S
C759 C765 1.429 . S
C760 C752 1.574 . S
C760 H755 0.949 . S
C760 C766 1.368 . S
C761 C745 1.349 . S
C761 H753 0.950 . S
C761 C759 1.327 . S
C762 C750 1.349 . S
C762 H756 0.950 . S
C762 C763 1.327 . S
C763 H757 0.950 . S
C763 C762 1.327 . S
C763 C767 1.429 . S
C764 C747 1.574 . S
C764 H758 0.949 . S
C764 C768 1.368 . S
C765 C746 1.429 . S
C765 C759 1.429 . S
C765 C766 1.523 . S
C766 C747 1.368 . S
C766 C760 1.368 . S
C766 C765 1.523 . S
C767 C751 1.429 . S
C767 C763 1.429 . S
C767 C768 1.523 . S
C768 C752 1.368 . S
C768 C764 1.368 . S
C768 C767 1.523 . S
H769 C744 0.950 . S
H770 C746 0.950 . S
H771 C747 0.949 . S
H772 C749 0.950 . S
H773 C751 0.950 . S
C774 C775 1.349 . S
C774 C776 1.327 . S
C774 H799 0.950 . S
C775 C774 1.349 . S
C775 C791 1.349 . S
C776 C774 1.327 . S
C776 C795 1.429 . S
C776 H800 0.950 . S
C777 C794 1.574 . S
C777 C796 1.368 . S
C777 H801 0.949 . S
H778 C782 0.949 . S
C779 C780 1.349 . S
C779 C781 1.327 . S
C779 H802 0.950 . S
C780 C779 1.349 . S
C780 C792 1.349 . S
C781 C779 1.327 . S
C781 C797 1.429 . S
C781 H803 0.950 . S
C782 H778 0.949 . S
C782 C790 1.574 . S
C782 C798 1.368 . S
H783 C791 0.950 . S
H784 C789 0.950 . S
H785 C790 0.949 . S
H786 C792 0.950 . S
H787 C793 0.950 . S
H788 C794 0.949 . S
C789 H784 0.950 . S
C789 C791 1.327 . S
C789 C795 1.429 . S
C790 C782 1.574 . S
C790 H785 0.949 . S
C790 C796 1.368 . S
C791 C775 1.349 . S
C791 H783 0.950 . S
C791 C789 1.327 . S
C792 C780 1.349 . S
C792 H786 0.950 . S
C792 C793 1.327 . S
C793 H787 0.950 . S
C793 C792 1.327 . S
C793 C797 1.429 . S
C794 C777 1.574 . S
C794 H788 0.949 . S
C794 C798 1.368 . S
C795 C776 1.429 . S
C795 C789 1.429 . S
C795 C796 1.523 . S
C796 C777 1.368 . S
C796 C790 1.368 . S
C796 C795 1.523 . S
C797 C781 1.429 . S
C797 C793 1.429 . S
C797 C798 1.523 . S
C798 C782 1.368 . S
C798 C794 1.368 . S
C798 C797 1.523 . S
H799 C774 0.950 . S
H800 C776 0.950 . S
H801 C777 0.949 . S
H802 C779 0.950 . S
H803 C781 0.950 . S
C804 C805 1.349 . S
C804 C806 1.327 . S
C804 H829 0.971 . S
C805 C804 1.349 . S
C805 C821 1.349 . S
C806 C804 1.327 . S
C806 C825 1.429 . S
C806 H830 0.950 . S
C807 C824 1.574 . S
C807 C826 1.368 . S
C807 H831 0.949 . S
H808 C812 0.949 . S
C809 C810 1.349 . S
C809 C811 1.327 . S
C809 H832 0.950 . S
C810 C809 1.349 . S
C810 C822 1.349 . S
C811 C809 1.327 . S
C811 C827 1.429 . S
C811 H833 0.950 . S
C812 H808 0.949 . S
C812 C820 1.574 . S
C812 C828 1.368 . S
H813 C821 0.950 . S
H814 C819 0.950 . S
H815 C820 0.949 . S
H816 C822 0.950 . S
H817 C823 0.950 . S
H818 C824 0.949 . S
C819 H814 0.950 . S
C819 C821 1.327 . S
C819 C825 1.429 . S
C820 C812 1.574 . S
C820 H815 0.949 . S
C820 C826 1.368 . S
C821 C805 1.349 . S
C821 H813 0.950 . S
C821 C819 1.327 . S
C822 C810 1.349 . S
C822 H816 0.950 . S
C822 C823 1.327 . S
C823 H817 0.950 . S
C823 C822 1.327 . S
C823 C827 1.429 . S
C824 C807 1.574 . S
C824 H818 0.949 . S
C824 C828 1.368 . S
C825 C806 1.429 . S
C825 C819 1.429 . S
C825 C826 1.523 . S
C826 C807 1.368 . S
C826 C820 1.368 . S
C826 C825 1.523 . S
C827 C811 1.429 . S
C827 C823 1.429 . S
C827 C828 1.523 . S
C828 C812 1.368 . S
C828 C824 1.368 . S
C828 C827 1.523 . S
H829 C804 0.971 . S
H830 C806 0.950 . S
H831 C807 0.949 . S
H832 C809 0.950 . S
H833 C811 0.950 . S
C834 C835 1.349 . S
C834 C836 1.327 . S
C834 H859 0.950 . S
C835 C834 1.349 . S
C835 C851 1.349 . S
C836 C834 1.327 . S
C836 C855 1.429 . S
C836 H860 0.950 . S
C837 C854 1.574 . S
C837 C856 1.368 1_455 S
C837 H861 0.949 . S
H838 C842 0.949 . S
C839 C840 1.349 . S
C839 C841 1.327 . S
C839 H862 0.950 . S
C840 C839 1.349 . S
C840 C852 1.349 . S
C841 C839 1.327 . S
C841 C857 1.429 . S
C841 H863 0.950 . S
C842 H838 0.949 . S
C842 C850 1.574 1_455 S
C842 C858 1.368 . S
H843 C851 0.950 . S
H844 C849 0.950 . S
H845 C850 0.949 . S
H846 C852 0.950 . S
H847 C853 0.950 . S
H848 C854 0.949 . S
C849 H844 0.950 . S
C849 C851 1.327 . S
C849 C855 1.429 . S
C850 C842 1.574 1_655 S
C850 H845 0.949 . S
C850 C856 1.368 . S
C851 C835 1.349 . S
C851 H843 0.950 . S
C851 C849 1.327 . S
C852 C840 1.349 . S
C852 H846 0.950 . S
C852 C853 1.327 . S
C853 H847 0.950 . S
C853 C852 1.327 . S
C853 C857 1.429 . S
C854 C837 1.574 . S
C854 H848 0.949 . S
C854 C858 1.368 . S
C855 C836 1.429 . S
C855 C849 1.429 . S
C855 C856 1.523 . S
C856 C837 1.368 1_655 S
C856 C850 1.368 . S
C856 C855 1.523 . S
C857 C841 1.429 . S
C857 C853 1.429 . S
C857 C858 1.523 . S
C858 C842 1.368 . S
C858 C854 1.368 . S
C858 C857 1.523 . S
H859 C834 0.950 . S
H860 C836 0.950 . S
H861 C837 0.949 . S
H862 C839 0.950 . S
H863 C841 0.950 . S
C864 C865 1.349 . S
C864 C866 1.327 . S
C864 H889 0.950 . S
C865 C864 1.349 . S
C865 C881 1.349 . S
C866 C864 1.327 . S
C866 C885 1.429 . S
C866 H890 0.950 . S
C867 C884 1.574 1_565 S
C867 C886 1.368 . S
C867 H891 0.949 . S
H868 C872 0.949 . S
C869 C870 1.349 . S
C869 C871 1.327 . S
C869 H892 0.950 . S
C870 C869 1.349 . S
C870 C882 1.349 . S
C871 C869 1.327 . S
C871 C887 1.429 . S
C871 H893 0.950 . S
C872 H868 0.949 . S
C872 C880 1.574 . S
C872 C888 1.368 . S
H873 C881 0.950 . S
H874 C879 0.950 . S
H875 C880 0.949 . S
H876 C882 0.950 . S
H877 C883 0.950 . S
H878 C884 0.949 . S
C879 H874 0.950 . S
C879 C881 1.327 . S
C879 C885 1.429 . S
C880 C872 1.574 . S
C880 H875 0.949 . S
C880 C886 1.368 1_545 S
C881 C865 1.349 . S
C881 H873 0.950 . S
C881 C879 1.327 . S
C882 C870 1.349 . S
C882 H876 0.950 . S
C882 C883 1.327 . S
C883 H877 0.950 . S
C883 C882 1.327 . S
C883 C887 1.429 . S
C884 C867 1.574 1_545 S
C884 H878 0.949 . S
C884 C888 1.368 . S
C885 C866 1.429 . S
C885 C879 1.429 . S
C885 C886 1.523 . S
C886 C867 1.368 . S
C886 C880 1.368 1_565 S
C886 C885 1.523 . S
C887 C871 1.429 . S
C887 C883 1.429 . S
C887 C888 1.523 . S
C888 C872 1.368 . S
C888 C884 1.368 . S
C888 C887 1.523 . S
H889 C864 0.950 . S
H890 C866 0.950 . S
H891 C867 0.949 . S
H892 C869 0.950 . S
H893 C871 0.950 . S
C894 C895 1.349 . S
C894 C896 1.327 . S
C894 H919 0.950 . S
C895 C894 1.349 . S
C895 C911 1.349 . S
C896 C894 1.327 . S
C896 C915 1.429 . S
C896 H920 0.950 . S
C897 C914 1.574 . S
C897 C916 1.368 . S
C897 H921 0.949 . S
H898 C902 0.949 . S
C899 C900 1.349 . S
C899 C901 1.327 . S
C899 H922 0.950 . S
C900 C899 1.349 . S
C900 C912 1.349 . S
C901 C899 1.327 . S
C901 C917 1.429 . S
C901 H923 0.950 . S
C902 H898 0.949 . S
C902 C910 1.574 . S
C902 C918 1.368 . S
H903 C911 0.950 . S
H904 C909 0.950 . S
H905 C910 0.949 . S
H906 C912 0.950 . S
H907 C913 0.950 . S
H908 C914 0.949 . S
C909 H904 0.950 . S
C909 C911 1.327 . S
C909 C915 1.429 . S
C910 C902 1.574 . S
C910 H905 0.949 . S
C910 C916 1.368 . S
C911 C895 1.349 . S
C911 H903 0.950 . S
C911 C909 1.327 . S
C912 C900 1.349 . S
C912 H906 0.950 . S
C912 C913 1.327 . S
C913 H907 0.950 . S
C913 C912 1.327 . S
C913 C917 1.429 . S
C914 C897 1.574 . S
C914 H908 0.949 . S
C914 C918 1.368 . S
C915 C896 1.429 . S
C915 C909 1.429 . S
C915 C916 1.523 . S
C916 C897 1.368 . S
C916 C910 1.368 . S
C916 C915 1.523 . S
C917 C901 1.429 . S
C917 C913 1.429 . S
C917 C918 1.523 . S
C918 C902 1.368 . S
C918 C914 1.368 . S
C918 C917 1.523 . S
H919 C894 0.950 . S
H920 C896 0.950 . S
H921 C897 0.949 . S
H922 C899 0.950 . S
H923 C901 0.950 . S
C924 C925 1.349 . S
C924 C926 1.327 . S
C924 H949 0.950 . S
C925 C924 1.349 . S
C925 C941 1.349 . S
C926 C924 1.327 . S
C926 C945 1.429 . S
C926 H950 0.950 . S
C927 C944 1.574 1_455 S
C927 C946 1.368 . S
C927 H951 0.949 . S
H928 C932 0.949 . S
C929 C930 1.349 . S
C929 C931 1.327 . S
C929 H952 0.950 . S
C930 C929 1.349 . S
C930 C942 1.349 . S
C931 C929 1.327 . S
C931 C947 1.429 . S
C931 H953 0.950 . S
C932 H928 0.949 . S
C932 C940 1.574 . S
C932 C948 1.368 . S
H933 C941 0.950 . S
H934 C939 0.950 . S
H935 C940 0.949 . S
H936 C942 0.950 . S
H937 C943 0.950 . S
H938 C944 0.949 . S
C939 H934 0.950 . S
C939 C941 1.327 . S
C939 C945 1.429 . S
C940 C932 1.574 . S
C940 H935 0.949 . S
C940 C946 1.368 1_655 S
C941 C925 1.349 . S
C941 H933 0.950 . S
C941 C939 1.327 . S
C942 C930 1.349 . S
C942 H936 0.950 . S
C942 C943 1.327 . S
C943 H937 0.950 . S
C943 C942 1.327 . S
C943 C947 1.429 . S
C944 C927 1.574 1_655 S
C944 H938 0.949 . S
C944 C948 1.368 . S
C945 C926 1.429 . S
C945 C939 1.429 . S
C945 C946 1.523 . S
C946 C927 1.368 . S
C946 C940 1.368 1_455 S
C946 C945 1.523 . S
C947 C931 1.429 . S
C947 C943 1.429 . S
C947 C948 1.523 . S
C948 C932 1.368 . S
C948 C944 1.368 . S
C948 C947 1.523 . S
H949 C924 0.950 . S
H950 C926 0.950 . S
H951 C927 0.949 . S
H952 C929 0.950 . S
H953 C931 0.950 . S
C954 C955 1.349 . S
C954 C956 1.327 . S
C954 H979 0.950 . S
C955 C954 1.349 . S
C955 C971 1.349 . S
C956 C954 1.327 . S
C956 C975 1.429 . S
C956 H980 0.950 . S
C957 C974 1.574 1_545 S
C957 C976 1.368 . S
C957 H981 0.949 . S
H958 C962 0.949 . S
C959 C960 1.349 . S
C959 C961 1.327 . S
C959 H982 0.950 . S
C960 C959 1.349 . S
C960 C972 1.349 . S
C961 C959 1.327 . S
C961 C977 1.429 . S
C961 H983 0.950 . S
C962 H958 0.949 . S
C962 C970 1.574 . S
C962 C978 1.368 . S
H963 C971 0.950 . S
H964 C969 0.950 . S
H965 C970 0.949 . S
H966 C972 0.950 . S
H967 C973 0.950 . S
H968 C974 0.949 . S
C969 H964 0.950 . S
C969 C971 1.327 . S
C969 C975 1.429 . S
C970 C962 1.574 . S
C970 H965 0.949 . S
C970 C976 1.368 1_565 S
C971 C955 1.349 . S
C971 H963 0.950 . S
C971 C969 1.327 . S
C972 C960 1.349 . S
C972 H966 0.950 . S
C972 C973 1.327 . S
C973 H967 0.950 . S
C973 C972 1.327 . S
C973 C977 1.429 . S
C974 C957 1.574 1_565 S
C974 H968 0.949 . S
C974 C978 1.368 . S
C975 C956 1.429 . S
C975 C969 1.429 . S
C975 C976 1.523 . S
C976 C957 1.368 . S
C976 C970 1.368 1_545 S
C976 C975 1.523 . S
C977 C961 1.429 . S
C977 C973 1.429 . S
C977 C978 1.523 . S
C978 C962 1.368 . S
C978 C974 1.368 . S
C978 C977 1.523 . S
H979 C954 0.950 . S
H980 C956 0.950 . S
H981 C957 0.949 . S
H982 C959 0.950 . S
H983 C961 0.950 . S
C984 C985 1.349 . S
C984 C986 1.327 . S
C984 H1009 0.950 . S
C985 C984 1.349 . S
C985 C1001 1.349 . S
C986 C984 1.327 . S
C986 C1005 1.429 . S
C986 H1010 0.950 . S
C987 C1004 1.574 . S
C987 C1006 1.368 . S
C987 H1011 0.949 . S
H988 C992 0.949 . S
C989 C990 1.349 . S
C989 C991 1.327 . S
C989 H1012 0.950 . S
C990 C989 1.349 . S
C990 C1002 1.349 . S
C991 C989 1.327 . S
C991 C1007 1.429 . S
C991 H1013 0.950 . S
C992 H988 0.949 . S
C992 C1000 1.574 . S
C992 C1008 1.368 . S
H993 C1001 0.950 . S
H994 C999 0.950 . S
H995 C1000 0.949 . S
H996 C1002 0.950 . S
H997 C1003 0.950 . S
H998 C1004 0.949 . S
C999 H994 0.950 . S
C999 C1001 1.327 . S
C999 C1005 1.429 . S
C1000 C992 1.574 . S
C1000 H995 0.949 . S
C1000 C1006 1.368 . S
C1001 C985 1.349 . S
C1001 H993 0.950 . S
C1001 C999 1.327 . S
C1002 C990 1.349 . S
C1002 H996 0.950 . S
C1002 C1003 1.327 . S
C1003 H997 0.950 . S
C1003 C1002 1.327 . S
C1003 C1007 1.429 . S
C1004 C987 1.574 . S
C1004 H998 0.949 . S
C1004 C1008 1.368 . S
C1005 C986 1.429 . S
C1005 C999 1.429 . S
C1005 C1006 1.523 . S
C1006 C987 1.368 . S
C1006 C1000 1.368 . S
C1006 C1005 1.523 . S
C1007 C991 1.429 . S
C1007 C1003 1.429 . S
C1007 C1008 1.523 . S
C1008 C992 1.368 . S
C1008 C1004 1.368 . S
C1008 C1007 1.523 . S
H1009 C984 0.950 . S
H1010 C986 0.950 . S
H1011 C987 0.949 . S
H1012 C989 0.950 . S
H1013 C991 0.950 . S
C1014 C1015 1.349 . S
C1014 C1016 1.327 . S
C1014 H1039 0.950 . S
C1015 C1014 1.349 . S
C1015 C1031 1.349 . S
C1016 C1014 1.327 . S
C1016 C1035 1.429 . S
C1016 H1040 0.950 . S
C1017 C1034 1.574 . S
C1017 C1036 1.368 . S
C1017 H1041 0.949 . S
H1018 C1022 0.949 . S
C1019 C1020 1.349 . S
C1019 C1021 1.327 . S
C1019 H1042 0.950 1_554 S
C1020 C1019 1.349 . S
C1020 C1032 1.349 . S
C1021 C1019 1.327 . S
C1021 C1037 1.429 . S
C1021 H1043 0.949 1_554 S
C1022 H1018 0.949 . S
C1022 C1030 1.574 1_655 S
C1022 C1038 1.368 . S
H1023 C1031 0.950 . S
H1024 C1029 0.950 . S
H1025 C1030 0.949 . S
H1026 C1032 0.950 . S
H1027 C1033 0.950 . S
H1028 C1034 0.949 . S
C1029 H1024 0.950 . S
C1029 C1031 1.327 . S
C1029 C1035 1.429 . S
C1030 C1022 1.574 1_455 S
C1030 H1025 0.949 . S
C1030 C1036 1.368 . S
C1031 C1015 1.349 . S
C1031 H1023 0.950 . S
C1031 C1029 1.327 . S
C1032 C1020 1.349 . S
C1032 H1026 0.950 . S
C1032 C1033 1.327 . S
C1033 H1027 0.950 . S
C1033 C1032 1.327 . S
C1033 C1037 1.429 . S
C1034 C1017 1.574 . S
C1034 H1028 0.949 . S
C1034 C1038 1.368 1_455 S
C1035 C1016 1.429 . S
C1035 C1029 1.429 . S
C1035 C1036 1.523 . S
C1036 C1017 1.368 . S
C1036 C1030 1.368 . S
C1036 C1035 1.523 . S
C1037 C1021 1.429 . S
C1037 C1033 1.429 . S
C1037 C1038 1.523 . S
C1038 C1022 1.368 . S
C1038 C1034 1.368 1_655 S
C1038 C1037 1.523 . S
H1039 C1014 0.950 . S
H1040 C1016 0.950 . S
H1041 C1017 0.949 . S
H1042 C1019 0.950 1_556 S
H1043 C1021 0.949 1_556 S
C1044 C1045 1.349 . S
C1044 C1046 1.327 . S
C1044 H1069 0.950 . S
C1045 C1044 1.349 . S
C1045 C1061 1.349 . S
C1046 C1044 1.327 . S
C1046 C1065 1.429 . S
C1046 H1070 0.950 . S
C1047 C1064 1.574 . S
C1047 C1066 1.368 . S
C1047 H1071 0.949 . S
H1048 C1052 0.949 . S
C1049 C1050 1.349 . S
C1049 C1051 1.327 . S
C1049 H1072 0.950 . S
C1050 C1049 1.349 . S
C1050 C1062 1.349 . S
C1051 C1049 1.327 . S
C1051 C1067 1.429 . S
C1051 H1073 0.950 . S
C1052 H1048 0.949 . S
C1052 C1060 1.574 1_565 S
C1052 C1068 1.368 . S
H1053 C1061 0.950 . S
H1054 C1059 0.950 . S
H1055 C1060 0.949 . S
H1056 C1062 0.950 . S
H1057 C1063 0.950 . S
H1058 C1064 0.949 . S
C1059 H1054 0.950 . S
C1059 C1061 1.327 . S
C1059 C1065 1.429 . S
C1060 C1052 1.574 1_545 S
C1060 H1055 0.949 . S
C1060 C1066 1.368 . S
C1061 C1045 1.349 . S
C1061 H1053 0.950 . S
C1061 C1059 1.327 . S
C1062 C1050 1.349 . S
C1062 H1056 0.950 . S
C1062 C1063 1.327 . S
C1063 H1057 0.950 . S
C1063 C1062 1.327 . S
C1063 C1067 1.429 . S
C1064 C1047 1.574 . S
C1064 H1058 0.949 . S
C1064 C1068 1.368 1_545 S
C1065 C1046 1.429 . S
C1065 C1059 1.429 . S
C1065 C1066 1.523 . S
C1066 C1047 1.368 . S
C1066 C1060 1.368 . S
C1066 C1065 1.523 . S
C1067 C1051 1.429 . S
C1067 C1063 1.429 . S
C1067 C1068 1.523 . S
C1068 C1052 1.368 . S
C1068 C1064 1.368 1_565 S
C1068 C1067 1.523 . S
H1069 C1044 0.950 . S
H1070 C1046 0.950 . S
H1071 C1047 0.949 . S
H1072 C1049 0.950 . S
H1073 C1051 0.950 . S
C1074 C1075 1.349 . S
C1074 C1076 1.327 . S
C1074 H1099 0.950 . S
C1075 C1074 1.349 . S
C1075 C1091 1.349 . S
C1076 C1074 1.327 . S
C1076 C1095 1.429 . S
C1076 H1100 0.950 . S
C1077 C1094 1.574 . S
C1077 C1096 1.368 . S
C1077 H1101 0.949 . S
H1078 C1082 0.949 . S
C1079 C1080 1.349 . S
C1079 C1081 1.327 . S
C1079 H1102 0.950 . S
C1080 C1079 1.349 . S
C1080 C1092 1.349 . S
C1081 C1079 1.327 . S
C1081 C1097 1.429 . S
C1081 H1103 0.950 . S
C1082 H1078 0.949 . S
C1082 C1090 1.574 . S
C1082 C1098 1.368 . S
H1083 C1091 0.950 . S
H1084 C1089 0.950 . S
H1085 C1090 0.949 . S
H1086 C1092 0.950 . S
H1087 C1093 0.950 . S
H1088 C1094 0.949 . S
C1089 H1084 0.950 . S
C1089 C1091 1.327 . S
C1089 C1095 1.429 . S
C1090 C1082 1.574 . S
C1090 H1085 0.949 . S
C1090 C1096 1.368 . S
C1091 C1075 1.349 . S
C1091 H1083 0.950 . S
C1091 C1089 1.327 . S
C1092 C1080 1.349 . S
C1092 H1086 0.950 . S
C1092 C1093 1.327 . S
C1093 H1087 0.950 . S
C1093 C1092 1.327 . S
C1093 C1097 1.429 . S
C1094 C1077 1.574 . S
C1094 H1088 0.949 . S
C1094 C1098 1.368 . S
C1095 C1076 1.429 . S
C1095 C1089 1.429 . S
C1095 C1096 1.523 . S
C1096 C1077 1.368 . S
C1096 C1090 1.368 . S
C1096 C1095 1.523 . S
C1097 C1081 1.429 . S
C1097 C1093 1.429 . S
C1097 C1098 1.523 . S
C1098 C1082 1.368 . S
C1098 C1094 1.368 . S
C1098 C1097 1.523 . S
H1099 C1074 0.950 . S
H1100 C1076 0.950 . S
H1101 C1077 0.949 . S
H1102 C1079 0.950 . S
H1103 C1081 0.950 . S
C1104 C1105 1.349 . S
C1104 C1106 1.327 . S
C1104 H1129 0.950 . S
C1105 C1104 1.349 . S
C1105 C1121 1.349 . S
C1106 C1104 1.327 . S
C1106 C1125 1.429 . S
C1106 H1130 0.950 . S
C1107 C1124 1.574 1_455 S
C1107 C1126 1.368 . S
C1107 H1131 0.949 . S
H1108 C1112 0.949 . S
C1109 C1110 1.349 . S
C1109 C1111 1.327 . S
C1109 H1132 0.950 . S
C1110 C1109 1.349 . S
C1110 C1122 1.349 . S
C1111 C1109 1.327 . S
C1111 C1127 1.429 . S
C1111 H1133 0.950 . S
C1112 H1108 0.949 . S
C1112 C1120 1.602 . S
C1112 C1128 1.368 . S
H1113 C1121 0.950 . S
H1114 C1119 0.950 . S
H1115 C1120 0.950 1_455 S
H1116 C1122 0.950 . S
H1117 C1123 0.950 . S
H1118 C1124 0.949 . S
C1119 H1114 0.950 . S
C1119 C1121 1.327 . S
C1119 C1125 1.429 . S
C1120 C1112 1.602 . S
C1120 H1115 0.950 1_655 S
C1120 C1126 1.340 1_655 S
C1121 C1105 1.349 . S
C1121 H1113 0.950 . S
C1121 C1119 1.327 . S
C1122 C1110 1.349 . S
C1122 H1116 0.950 . S
C1122 C1123 1.327 . S
C1123 H1117 0.950 . S
C1123 C1122 1.327 . S
C1123 C1127 1.429 . S
C1124 C1107 1.574 1_655 S
C1124 H1118 0.949 . S
C1124 C1128 1.368 . S
C1125 C1106 1.429 . S
C1125 C1119 1.429 . S
C1125 C1126 1.523 . S
C1126 C1107 1.368 . S
C1126 C1120 1.340 1_455 S
C1126 C1125 1.523 . S
C1127 C1111 1.429 . S
C1127 C1123 1.429 . S
C1127 C1128 1.523 . S
C1128 C1112 1.368 . S
C1128 C1124 1.368 . S
C1128 C1127 1.523 . S
H1129 C1104 0.950 . S
H1130 C1106 0.950 . S
H1131 C1107 0.949 . S
H1132 C1109 0.950 . S
H1133 C1111 0.950 . S
C1134 C1135 1.349 . S
C1134 C1136 1.327 . S
C1134 H1159 0.950 . S
C1135 C1134 1.349 . S
C1135 C1151 1.349 . S
C1136 C1134 1.327 . S
C1136 C1155 1.429 . S
C1136 H1160 0.950 . S
C1137 C1154 1.574 . S
C1137 C1156 1.368 1_565 S
C1137 H1161 0.949 . S
H1138 C1142 0.949 . S
C1139 C1140 1.349 . S
C1139 C1141 1.327 . S
C1139 H1162 0.950 . S
C1140 C1139 1.349 . S
C1140 C1152 1.349 . S
C1141 C1139 1.327 . S
C1141 C1157 1.429 . S
C1141 H1163 0.950 . S
C1142 H1138 0.949 . S
C1142 C1150 1.574 1_565 S
C1142 C1158 1.368 . S
H1143 C1151 0.950 . S
H1144 C1149 0.950 . S
H1145 C1150 0.949 . S
H1146 C1152 0.950 . S
H1147 C1153 0.950 . S
H1148 C1154 0.949 . S
C1149 H1144 0.950 . S
C1149 C1151 1.327 . S
C1149 C1155 1.429 . S
C1150 C1142 1.574 1_545 S
C1150 H1145 0.949 . S
C1150 C1156 1.368 . S
C1151 C1135 1.349 . S
C1151 H1143 0.950 . S
C1151 C1149 1.327 . S
C1152 C1140 1.349 . S
C1152 H1146 0.950 . S
C1152 C1153 1.327 . S
C1153 H1147 0.950 . S
C1153 C1152 1.327 . S
C1153 C1157 1.429 . S
C1154 C1137 1.574 . S
C1154 H1148 0.949 . S
C1154 C1158 1.368 . S
C1155 C1136 1.429 . S
C1155 C1149 1.429 . S
C1155 C1156 1.523 . S
C1156 C1137 1.368 1_545 S
C1156 C1150 1.368 . S
C1156 C1155 1.523 . S
C1157 C1141 1.429 . S
C1157 C1153 1.429 . S
C1157 C1158 1.523 . S
C1158 C1142 1.368 . S
C1158 C1154 1.368 . S
C1158 C1157 1.523 . S
H1159 C1134 0.950 . S
H1160 C1136 0.950 . S
H1161 C1137 0.949 . S
H1162 C1139 0.950 . S
H1163 C1141 0.950 . S
C1164 C1165 1.349 . S
C1164 C1166 1.327 . S
C1164 H1189 0.950 . S
C1165 C1164 1.349 . S
C1165 C1181 1.349 . S
C1166 C1164 1.327 . S
C1166 C1185 1.429 . S
C1166 H1190 0.950 . S
C1167 C1184 1.574 . S
C1167 C1186 1.368 . S
C1167 H1191 0.949 . S
H1168 C1172 0.949 . S
C1169 C1170 1.349 . S
C1169 C1171 1.327 . S
C1169 H1192 0.950 . S
C1170 C1169 1.349 . S
C1170 C1182 1.349 . S
C1171 C1169 1.327 . S
C1171 C1187 1.429 . S
C1171 H1193 0.950 . S
C1172 H1168 0.949 . S
C1172 C1180 1.574 . S
C1172 C1188 1.368 . S
H1173 C1181 0.950 . S
H1174 C1179 0.950 . S
H1175 C1180 0.949 . S
H1176 C1182 0.950 . S
H1177 C1183 0.950 . S
H1178 C1184 0.949 . S
C1179 H1174 0.950 . S
C1179 C1181 1.327 . S
C1179 C1185 1.429 . S
C1180 C1172 1.574 . S
C1180 H1175 0.949 . S
C1180 C1186 1.368 . S
C1181 C1165 1.349 . S
C1181 H1173 0.950 . S
C1181 C1179 1.327 . S
C1182 C1170 1.349 . S
C1182 H1176 0.950 . S
C1182 C1183 1.327 . S
C1183 H1177 0.950 . S
C1183 C1182 1.327 . S
C1183 C1187 1.429 . S
C1184 C1167 1.574 . S
C1184 H1178 0.949 . S
C1184 C1188 1.368 . S
C1185 C1166 1.429 . S
C1185 C1179 1.429 . S
C1185 C1186 1.523 . S
C1186 C1167 1.368 . S
C1186 C1180 1.368 . S
C1186 C1185 1.523 . S
C1187 C1171 1.429 . S
C1187 C1183 1.429 . S
C1187 C1188 1.523 . S
C1188 C1172 1.368 . S
C1188 C1184 1.368 . S
C1188 C1187 1.523 . S
H1189 C1164 0.950 . S
H1190 C1166 0.950 . S
H1191 C1167 0.949 . S
H1192 C1169 0.950 . S
H1193 C1171 0.950 . S
C1194 C1195 1.349 . S
C1194 C1196 1.327 . S
C1194 H1219 0.950 . S
C1195 C1194 1.349 . S
C1195 C1211 1.349 . S
C1196 C1194 1.327 . S
C1196 C1215 1.429 . S
C1196 H1220 0.950 . S
C1197 C1214 1.574 . S
C1197 C1216 1.368 . S
C1197 H1221 0.949 . S
H1198 C1202 0.949 . S
C1199 C1200 1.349 . S
C1199 C1201 1.327 . S
C1199 H1222 0.950 . S
C1200 C1199 1.349 . S
C1200 C1212 1.349 . S
C1201 C1199 1.327 . S
C1201 C1217 1.429 . S
C1201 H1223 0.950 . S
C1202 H1198 0.949 . S
C1202 C1210 1.574 . S
C1202 C1218 1.368 . S
H1203 C1211 0.950 . S
H1204 C1209 0.950 . S
H1205 C1210 0.949 . S
H1206 C1212 0.950 . S
H1207 C1213 0.950 . S
H1208 C1214 0.949 . S
C1209 H1204 0.950 . S
C1209 C1211 1.327 . S
C1209 C1215 1.429 . S
C1210 C1202 1.574 . S
C1210 H1205 0.949 . S
C1210 C1216 1.368 . S
C1211 C1195 1.349 . S
C1211 H1203 0.950 . S
C1211 C1209 1.327 . S
C1212 C1200 1.349 . S
C1212 H1206 0.950 . S
C1212 C1213 1.327 . S
C1213 H1207 0.950 . S
C1213 C1212 1.327 . S
C1213 C1217 1.429 . S
C1214 C1197 1.574 . S
C1214 H1208 0.949 . S
C1214 C1218 1.368 . S
C1215 C1196 1.429 . S
C1215 C1209 1.429 . S
C1215 C1216 1.523 . S
C1216 C1197 1.368 . S
C1216 C1210 1.368 . S
C1216 C1215 1.523 . S
C1217 C1201 1.429 . S
C1217 C1213 1.429 . S
C1217 C1218 1.523 . S
C1218 C1202 1.368 . S
C1218 C1214 1.368 . S
C1218 C1217 1.523 . S
H1219 C1194 0.950 . S
H1220 C1196 0.950 . S
H1221 C1197 0.949 . S
H1222 C1199 0.950 . S
H1223 C1201 0.950 . S
C1224 C1225 1.349 . S
C1224 C1226 1.327 . S
C1224 H1249 0.950 . S
C1225 C1224 1.349 . S
C1225 C1241 1.349 . S
C1226 C1224 1.327 . S
C1226 C1245 1.429 . S
C1226 H1250 0.950 . S
C1227 C1244 1.574 . S
C1227 C1246 1.368 . S
C1227 H1251 0.949 . S
H1228 C1232 0.949 . S
C1229 C1230 1.349 . S
C1229 C1231 1.327 . S
C1229 H1252 0.950 . S
C1230 C1229 1.349 . S
C1230 C1242 1.349 . S
C1231 C1229 1.327 . S
C1231 C1247 1.429 . S
C1231 H1253 0.950 . S
C1232 H1228 0.949 . S
C1232 C1240 1.574 . S
C1232 C1248 1.368 . S
H1233 C1241 0.950 . S
H1234 C1239 0.950 . S
H1235 C1240 0.949 . S
H1236 C1242 0.950 . S
H1237 C1243 0.950 . S
H1238 C1244 0.949 . S
C1239 H1234 0.950 . S
C1239 C1241 1.327 . S
C1239 C1245 1.429 . S
C1240 C1232 1.574 . S
C1240 H1235 0.949 . S
C1240 C1246 1.368 . S
C1241 C1225 1.349 . S
C1241 H1233 0.950 . S
C1241 C1239 1.327 . S
C1242 C1230 1.349 . S
C1242 H1236 0.950 . S
C1242 C1243 1.327 . S
C1243 H1237 0.950 . S
C1243 C1242 1.327 . S
C1243 C1247 1.429 . S
C1244 C1227 1.574 . S
C1244 H1238 0.949 . S
C1244 C1248 1.368 . S
C1245 C1226 1.429 . S
C1245 C1239 1.429 . S
C1245 C1246 1.523 . S
C1246 C1227 1.368 . S
C1246 C1240 1.368 . S
C1246 C1245 1.523 . S
C1247 C1231 1.429 . S
C1247 C1243 1.429 . S
C1247 C1248 1.523 . S
C1248 C1232 1.368 . S
C1248 C1244 1.368 . S
C1248 C1247 1.523 . S
H1249 C1224 0.950 . S
H1250 C1226 0.950 . S
H1251 C1227 0.949 . S
H1252 C1229 0.950 . S
H1253 C1231 0.950 . S
C1254 C1255 1.349 . S
C1254 C1256 1.327 . S
C1254 H1279 0.950 . S
C1255 C1254 1.349 . S
C1255 C1271 1.349 . S
C1256 C1254 1.327 . S
C1256 C1275 1.429 . S
C1256 H1280 0.950 . S
C1257 C1274 1.574 . S
C1257 C1276 1.368 . S
C1257 H1281 0.949 . S
H1258 C1262 0.949 . S
C1259 C1260 1.349 . S
C1259 C1261 1.327 . S
C1259 H1282 0.950 . S
C1260 C1259 1.349 . S
C1260 C1272 1.349 . S
C1261 C1259 1.327 . S
C1261 C1277 1.429 . S
C1261 H1283 0.950 . S
C1262 H1258 0.949 . S
C1262 C1270 1.574 . S
C1262 C1278 1.368 . S
H1263 C1271 0.950 . S
H1264 C1269 0.950 . S
H1265 C1270 0.949 . S
H1266 C1272 0.950 . S
H1267 C1273 0.950 . S
H1268 C1274 0.949 . S
C1269 H1264 0.950 . S
C1269 C1271 1.327 . S
C1269 C1275 1.429 . S
C1270 C1262 1.574 . S
C1270 H1265 0.949 . S
C1270 C1276 1.368 . S
C1271 C1255 1.349 . S
C1271 H1263 0.950 . S
C1271 C1269 1.327 . S
C1272 C1260 1.349 . S
C1272 H1266 0.950 . S
C1272 C1273 1.327 . S
C1273 H1267 0.950 . S
C1273 C1272 1.327 . S
C1273 C1277 1.429 . S
C1274 C1257 1.574 . S
C1274 H1268 0.949 . S
C1274 C1278 1.368 . S
C1275 C1256 1.429 . S
C1275 C1269 1.429 . S
C1275 C1276 1.523 . S
C1276 C1257 1.368 . S
C1276 C1270 1.368 . S
C1276 C1275 1.523 . S
C1277 C1261 1.429 . S
C1277 C1273 1.429 . S
C1277 C1278 1.523 . S
C1278 C1262 1.368 . S
C1278 C1274 1.368 . S
C1278 C1277 1.523 . S
H1279 C1254 0.950 . S
H1280 C1256 0.950 . S
H1281 C1257 0.949 . S
H1282 C1259 0.950 . S
H1283 C1261 0.950 . S
C1284 C1285 1.349 . S
C1284 C1286 1.327 . S
C1284 H1309 0.950 . S
C1285 C1284 1.349 . S
C1285 C1301 1.349 . S
C1286 C1284 1.327 . S
C1286 C1305 1.429 . S
C1286 H1310 0.950 . S
C1287 C1304 1.574 . S
C1287 C1306 1.368 . S
C1287 H1311 0.949 . S
H1288 C1292 0.949 . S
C1289 C1290 1.349 . S
C1289 C1291 1.304 1_554 S
C1289 H1312 0.950 . S
C1290 C1289 1.349 . S
C1290 C1302 1.349 . S
C1291 C1289 1.304 1_556 S
C1291 C1307 1.442 . S
C1291 H1313 0.960 . S
C1292 H1288 0.949 . S
C1292 C1300 1.574 . S
C1292 C1308 1.368 . S
H1293 C1301 0.950 . S
H1294 C1299 0.950 . S
H1295 C1300 0.949 . S
H1296 C1302 0.950 . S
H1297 C1303 0.950 . S
H1298 C1304 0.949 . S
C1299 H1294 0.950 . S
C1299 C1301 1.327 . S
C1299 C1305 1.429 . S
C1300 C1292 1.574 . S
C1300 H1295 0.949 . S
C1300 C1306 1.368 . S
C1301 C1285 1.349 . S
C1301 H1293 0.950 . S
C1301 C1299 1.327 . S
C1302 C1290 1.349 . S
C1302 H1296 0.950 . S
C1302 C1303 1.327 1_554 S
C1303 H1297 0.950 . S
C1303 C1302 1.327 1_556 S
C1303 C1307 1.429 . S
C1304 C1287 1.574 . S
C1304 H1298 0.949 . S
C1304 C1308 1.368 . S
C1305 C1286 1.429 . S
C1305 C1299 1.429 . S
C1305 C1306 1.523 . S
C1306 C1287 1.368 . S
C1306 C1300 1.368 . S
C1306 C1305 1.523 . S
C1307 C1291 1.442 . S
C1307 C1303 1.429 . S
C1307 C1308 1.523 . S
C1308 C1292 1.368 . S
C1308 C1304 1.368 . S
C1308 C1307 1.523 . S
H1309 C1284 0.950 . S
H1310 C1286 0.950 . S
H1311 C1287 0.949 . S
H1312 C1289 0.950 . S
H1313 C1291 0.960 . S
C1314 C1315 1.349 . S
C1314 C1316 1.327 1_556 S
C1314 H1339 0.950 . S
C1315 C1314 1.349 . S
C1315 C1331 1.349 . S
C1316 C1314 1.327 1_554 S
C1316 C1335 1.429 . S
C1316 H1340 0.950 . S
C1317 C1334 1.574 . S
C1317 C1336 1.368 . S
C1317 H1341 0.949 . S
H1318 C1322 0.949 . S
C1319 C1320 1.349 . S
C1319 C1321 1.327 . S
C1319 H1342 0.950 . S
C1320 C1319 1.349 . S
C1320 C1332 1.349 . S
C1321 C1319 1.327 . S
C1321 C1337 1.429 . S
C1321 H1343 0.950 . S
C1322 H1318 0.949 . S
C1322 C1330 1.574 . S
C1322 C1338 1.368 . S
H1323 C1331 0.950 . S
H1324 C1329 0.950 1_554 S
H1325 C1330 0.949 . S
H1326 C1332 0.950 . S
H1327 C1333 0.950 . S
H1328 C1334 0.949 . S
C1329 H1324 0.950 1_556 S
C1329 C1331 1.327 . S
C1329 C1335 1.429 1_556 S
C1330 C1322 1.574 . S
C1330 H1325 0.949 . S
C1330 C1336 1.368 . S
C1331 C1315 1.349 . S
C1331 H1323 0.950 . S
C1331 C1329 1.327 . S
C1332 C1320 1.349 . S
C1332 H1326 0.950 . S
C1332 C1333 1.327 . S
C1333 H1327 0.950 . S
C1333 C1332 1.327 . S
C1333 C1337 1.429 . S
C1334 C1317 1.574 . S
C1334 H1328 0.949 . S
C1334 C1338 1.368 . S
C1335 C1316 1.429 . S
C1335 C1329 1.429 1_554 S
C1335 C1336 1.523 . S
C1336 C1317 1.368 . S
C1336 C1330 1.368 . S
C1336 C1335 1.523 . S
C1337 C1321 1.429 . S
C1337 C1333 1.429 . S
C1337 C1338 1.523 . S
C1338 C1322 1.368 . S
C1338 C1334 1.368 . S
C1338 C1337 1.523 . S
H1339 C1314 0.950 . S
H1340 C1316 0.950 . S
H1341 C1317 0.949 . S
H1342 C1319 0.950 . S
H1343 C1321 0.950 . S
C265 C5 1.375 . S
C270 C185 1.375 . S
C295 C207 1.375 . S
C300 C31 1.375 . S
C325 C229 1.375 . S
C330 C49 1.375 . S
C355 C75 1.376 . S
C360 C251 1.376 . S
C385 C141 1.375 . S
C390 C93 1.375 . S
C415 C163 1.375 . S
C420 C119 1.375 . S
C445 C9 0.738 . S
C450 C203 0.738 . S
C475 C27 0.737 . S
C480 C225 0.737 . S
C505 C247 0.737 . S
C510 C53 0.737 . S
C535 C137 0.737 . S
C540 C71 0.737 . S
C565 C97 0.737 . S
C570 C159 0.737 . S
C595 C115 0.737 . S
C600 C181 0.737 . S
C625 C138 1.257 . S
C630 C7 1.257 1_556 S
C655 C160 1.257 1_554 S
C660 C28 1.257 . S
C685 C182 1.257 . S
C690 C51 1.257 . S
C715 C72 1.257 . S
C720 C204 1.257 . S
C745 C95 1.257 . S
C750 C226 1.257 . S
C775 C116 1.257 . S
C780 C248 1.257 . S
C805 C8 1.586 . S
C810 C118 1.581 . S
C835 C26 1.585 . S
C840 C4 1.581 . S
C865 C52 1.586 . S
C870 C30 1.581 . S
C895 C48 1.582 . S
C900 C70 1.586 . S
C925 C96 1.586 . S
C930 C74 1.582 . S
C955 C114 1.585 . S
C960 C92 1.581 . S
C985 C162 1.582 . S
C990 C136 1.586 . S
C1015 C184 1.581 . S
C1020 C158 1.586 . S
C1045 C206 1.581 . S
C1050 C180 1.585 . S
C1075 C202 1.586 . S
C1080 C228 1.581 . S
C1105 C224 1.585 . S
C1110 C250 1.581 . S
C1135 C246 1.586 . S
C1140 C140 1.581 . S
C1165 C227 0.380 . S
C1170 C6 0.380 . S
C1195 C249 0.380 . S
C1200 C29 0.380 . S
C1225 C139 0.380 . S
C1230 C50 0.380 . S
C1255 C161 0.380 . S
C1260 C73 0.380 . S
C1285 C94 0.380 . S
C1290 C183 0.380 . S
C1315 C117 0.380 . S
C1320 C205 0.380 . S
