# Generated by pormake.
# Topology unn, (4)-cn, num edge types: 1
# Building blocks:
#     Node 0, Type 0, BuildingBlock: KOZSID_clean_sbu_0, # of connection points: 4
#     Node 1, Type 0, BuildingBlock: KOZSID_clean_sbu_0, # of connection points: 4
#     Node 2, Type 0, BuildingBlock: KOZSID_clean_sbu_0, # of connection points: 4
#     Node 3, Type 0, BuildingBlock: KOZSID_clean_sbu_0, # of connection points: 4
#     Node 4, Type 0, BuildingBlock: KOZSID_clean_sbu_0, # of connection points: 4
#     Node 5, Type 0, BuildingBlock: KOZSID_clean_sbu_0, # of connection points: 4
#     Node 6, Type 0, BuildingBlock: KOZSID_clean_sbu_0, # of connection points: 4
#     Node 7, Type 0, BuildingBlock: KOZSID_clean_sbu_0, # of connection points: 4
#     Node 8, Type 0, BuildingBlock: KOZSID_clean_sbu_0, # of connection points: 4
#     Node 9, Type 0, BuildingBlock: KOZSID_clean_sbu_0, # of connection points: 4
#     Node 10, Type 0, BuildingBlock: KOZSID_clean_sbu_0, # of connection points: 4
#     Node 11, Type 0, BuildingBlock: KOZSID_clean_sbu_0, # of connection points: 4
#     Node 12, Type 0, BuildingBlock: KOZSID_clean_sbu_0, # of connection points: 4
#     Node 13, Type 0, BuildingBlock: KOZSID_clean_sbu_0, # of connection points: 4
#     Node 14, Type 0, BuildingBlock: KOZSID_clean_sbu_0, # of connection points: 4
#     Node 15, Type 0, BuildingBlock: KOZSID_clean_sbu_0, # of connection points: 4
#     Node 16, Type 0, BuildingBlock: KOZSID_clean_sbu_0, # of connection points: 4
#     Node 17, Type 0, BuildingBlock: KOZSID_clean_sbu_0, # of connection points: 4
#     Edge 18, Type (0, 0), BuildingBlock: XUDNAN_clean_linker_2, # of connection points: 2
#     Edge 19, Type (0, 0), BuildingBlock: XUDNAN_clean_linker_2, # of connection points: 2
#     Edge 20, Type (0, 0), BuildingBlock: XUDNAN_clean_linker_2, # of connection points: 2
#     Edge 21, Type (0, 0), BuildingBlock: XUDNAN_clean_linker_2, # of connection points: 2
#     Edge 22, Type (0, 0), BuildingBlock: XUDNAN_clean_linker_2, # of connection points: 2
#     Edge 23, Type (0, 0), BuildingBlock: XUDNAN_clean_linker_2, # of connection points: 2
#     Edge 24, Type (0, 0), BuildingBlock: XUDNAN_clean_linker_2, # of connection points: 2
#     Edge 25, Type (0, 0), BuildingBlock: XUDNAN_clean_linker_2, # of connection points: 2
#     Edge 26, Type (0, 0), BuildingBlock: XUDNAN_clean_linker_2, # of connection points: 2
#     Edge 27, Type (0, 0), BuildingBlock: XUDNAN_clean_linker_2, # of connection points: 2
#     Edge 28, Type (0, 0), BuildingBlock: XUDNAN_clean_linker_2, # of connection points: 2
#     Edge 29, Type (0, 0), BuildingBlock: XUDNAN_clean_linker_2, # of connection points: 2
#     Edge 30, Type (0, 0), BuildingBlock: XUDNAN_clean_linker_2, # of connection points: 2
#     Edge 31, Type (0, 0), BuildingBlock: XUDNAN_clean_linker_2, # of connection points: 2
#     Edge 32, Type (0, 0), BuildingBlock: XUDNAN_clean_linker_2, # of connection points: 2
#     Edge 33, Type (0, 0), BuildingBlock: XUDNAN_clean_linker_2, # of connection points: 2
#     Edge 34, Type (0, 0), BuildingBlock: XUDNAN_clean_linker_2, # of connection points: 2
#     Edge 35, Type (0, 0), BuildingBlock: XUDNAN_clean_linker_2, # of connection points: 2
#     Edge 36, Type (0, 0), BuildingBlock: XUDNAN_clean_linker_2, # of connection points: 2
#     Edge 37, Type (0, 0), BuildingBlock: XUDNAN_clean_linker_2, # of connection points: 2
#     Edge 38, Type (0, 0), BuildingBlock: XUDNAN_clean_linker_2, # of connection points: 2
#     Edge 39, Type (0, 0), BuildingBlock: XUDNAN_clean_linker_2, # of connection points: 2
#     Edge 40, Type (0, 0), BuildingBlock: XUDNAN_clean_linker_2, # of connection points: 2
#     Edge 41, Type (0, 0), BuildingBlock: XUDNAN_clean_linker_2, # of connection points: 2
#     Edge 42, Type (0, 0), BuildingBlock: XUDNAN_clean_linker_2, # of connection points: 2
#     Edge 43, Type (0, 0), BuildingBlock: XUDNAN_clean_linker_2, # of connection points: 2
#     Edge 44, Type (0, 0), BuildingBlock: XUDNAN_clean_linker_2, # of connection points: 2
#     Edge 45, Type (0, 0), BuildingBlock: XUDNAN_clean_linker_2, # of connection points: 2
#     Edge 46, Type (0, 0), BuildingBlock: XUDNAN_clean_linker_2, # of connection points: 2
#     Edge 47, Type (0, 0), BuildingBlock: XUDNAN_clean_linker_2, # of connection points: 2
#     Edge 48, Type (0, 0), BuildingBlock: XUDNAN_clean_linker_2, # of connection points: 2
#     Edge 49, Type (0, 0), BuildingBlock: XUDNAN_clean_linker_2, # of connection points: 2
#     Edge 50, Type (0, 0), BuildingBlock: XUDNAN_clean_linker_2, # of connection points: 2
#     Edge 51, Type (0, 0), BuildingBlock: XUDNAN_clean_linker_2, # of connection points: 2
#     Edge 52, Type (0, 0), BuildingBlock: XUDNAN_clean_linker_2, # of connection points: 2
#     Edge 53, Type (0, 0), BuildingBlock: XUDNAN_clean_linker_2, # of connection points: 2
# Relax obj value: 0.036
# Max RMSD: 0.228
# Mean RMSD: 0.203
data_MOF--net-unn--node1-KOZSID_clean_sbu_0--edge1-XUDNAN_clean_linker_2
_symmetry_space_group_name_H-M    P1
_symmetry_Int_Tables_number       1
_symmetry_cell_setting            triclinic
loop_
_symmetry_equiv_pos_as_xyz
'x, y, z'
_cell_length_a     54.737568
_cell_length_b     54.859222
_cell_length_c     50.52764
_cell_angle_alpha  89.933142
_cell_angle_beta   89.91415
_cell_angle_gamma 120.01622
loop_
_atom_site_label
_atom_site_type_symbol
_atom_site_fract_x
_atom_site_fract_y
_atom_site_fract_z
_atom_type_partial_charge
C0 C 0.99679 0.72181 0.32502 0.0
C1 C 0.98771 0.74015 0.33323 0.0
C2 C 0.98825 0.75536 0.31145 0.0
C3 C 0.99707 0.74531 0.29092 0.0
N4 N 1.00206 0.72464 0.29827 0.0
Co5 Co 0.01221 0.70292 0.27311 0.0
N6 N 0.02207 0.73052 0.24319 0.0
C7 C 0.01581 0.75135 0.24301 0.0
C8 C 0.02436 0.76727 0.22035 0.0
C9 C 0.03604 0.75532 0.20479 0.0
C10 C 0.03349 0.73222 0.21854 0.0
N11 N 0.02283 0.68098 0.24829 0.0
C12 C 0.03348 0.68618 0.22299 0.0
C13 C 0.03294 0.66237 0.21263 0.0
C14 C 0.0224 0.64217 0.23173 0.0
C15 C 0.0164 0.65416 0.25254 0.0
N16 N 1.00177 0.67491 0.30278 0.0
C17 C 0.99927 0.6493 0.30037 0.0
C18 C 0.99822 0.63678 0.32408 0.0
C19 C 0.99991 0.65539 0.3428 0.0
C20 C 1.00043 0.67789 0.32957 0.0
N21 N 0.97266 0.6829 0.25943 0.0
C22 C 0.92115 0.6714 0.23529 0.0
C23 C 0.94282 0.67114 0.22076 0.0
C24 C 0.96806 0.67704 0.23295 0.0
C25 C 0.92458 0.67418 0.26293 0.0
C26 C 0.95029 0.67946 0.27461 0.0
N27 N 0.05149 0.72428 0.28673 0.0
C28 C 0.08943 0.72642 0.31318 0.0
C29 C 0.10257 0.7559 0.315 0.0
C30 C 0.0904 0.76918 0.3011 0.0
C31 C 0.06493 0.75313 0.28746 0.0
C32 C 0.06434 0.71112 0.2985 0.0
H33 H 0.05556 0.7643 0.27866 0.0
H34 H 0.0548 0.68855 0.29769 0.0
H35 H 0.98429 0.67865 0.22011 0.0
H36 H 0.95253 0.68242 0.29575 0.0
C37 C 1.00358 0.75637 0.26522 0.0
C38 C 0.99826 0.70087 0.34294 0.0
C39 C 0.03977 0.71117 0.20649 0.0
C40 C 1.00536 0.64099 0.27656 0.0
H41 H 0.98088 0.74213 0.35279 0.0
H42 H 0.98313 0.77202 0.31079 0.0
H43 H 0.0225 0.78554 0.21572 0.0
H44 H 0.04494 0.76261 0.18532 0.0
H45 H 0.03778 0.6588 0.19281 0.0
H46 H 0.01871 0.6209 0.23031 0.0
H47 H 0.99894 0.61764 0.32738 0.0
H48 H 1.00204 0.65288 0.36369 0.0
H49 H 0.94098 0.66777 0.19957 0.0
H50 H 0.90825 0.67385 0.2753 0.0
H51 H 0.09819 0.71521 0.32346 0.0
H52 H 0.09961 0.79183 0.30204 0.0
C53 C 0.29391 0.30105 0.22 0.0
C54 C 0.27382 0.27712 0.20704 0.0
C55 C 0.26405 0.25544 0.22496 0.0
C56 C 0.27867 0.26718 0.24788 0.0
N57 N 0.29662 0.29513 0.24585 0.0
Co58 Co 0.32446 0.31838 0.27394 0.0
N59 N 0.30624 0.28867 0.30196 0.0
C60 C 0.28635 0.26178 0.29755 0.0
C61 C 0.27677 0.24625 0.32046 0.0
C62 C 0.29163 0.26449 0.34062 0.0
C63 C 0.30964 0.29023 0.32891 0.0
N64 N 0.35328 0.34125 0.30127 0.0
C65 C 0.35386 0.33754 0.32785 0.0
C66 C 0.37914 0.35799 0.33875 0.0
C67 C 0.39468 0.37545 0.31852 0.0
C68 C 0.37823 0.36459 0.29643 0.0
N69 N 0.34236 0.34899 0.2466 0.0
C70 C 0.36728 0.37298 0.24927 0.0
C71 C 0.37442 0.39074 0.22795 0.0
C72 C 0.35299 0.37696 0.21027 0.0
C73 C 0.33402 0.35129 0.2217 0.0
N74 N 0.29986 0.33335 0.28572 0.0
C75 C 0.26268 0.3503 0.30693 0.0
C76 C 0.29204 0.36879 0.30653 0.0
C77 C 0.31022 0.36004 0.29554 0.0
C78 C 0.25261 0.32341 0.29637 0.0
C79 C 0.27128 0.31538 0.28624 0.0
N80 N 0.34778 0.30172 0.26237 0.0
C81 C 0.36287 0.28309 0.22632 0.0
C82 C 0.36614 0.26463 0.24335 0.0
C83 C 0.36238 0.26736 0.27062 0.0
C84 C 0.35398 0.28634 0.27965 0.0
C85 C 0.35367 0.3011 0.23611 0.0
H86 H 0.35108 0.28733 0.30064 0.0
H87 H 0.35015 0.31352 0.222 0.0
H88 H 0.33261 0.37474 0.29533 0.0
H89 H 0.26222 0.29411 0.27944 0.0
C90 C 0.27519 0.25309 0.27207 0.0
C91 C 0.31177 0.32813 0.20612 0.0
C92 C 0.33112 0.31512 0.3436 0.0
C93 C 0.38329 0.37828 0.27215 0.0
H94 H 0.26753 0.2754 0.18652 0.0
H95 H 0.24832 0.23364 0.22158 0.0
H96 H 0.26039 0.22443 0.32239 0.0
H97 H 0.28963 0.25936 0.36148 0.0
H98 H 0.38554 0.3603 0.35928 0.0
H99 H 0.41499 0.3945 0.31998 0.0
H100 H 0.39325 0.41106 0.22536 0.0
H101 H 0.3522 0.38426 0.19054 0.0
H102 H 0.30085 0.38991 0.31431 0.0
H103 H 0.23022 0.30822 0.29645 0.0
H104 H 0.36674 0.28345 0.2053 0.0
H105 H 0.36467 0.25421 0.28518 0.0
C106 C 0.71746 0.99053 0.22051 0.0
C107 C 0.73888 0.98885 0.20742 0.0
C108 C 0.76224 1.0015 0.22336 0.0
C109 C 0.75385 0.00975 0.24557 0.0
N110 N 0.72647 1.00253 0.24503 0.0
Co111 Co 0.70682 0.01082 0.27431 0.0
N112 N 0.73844 0.02241 0.30012 0.0
C113 C 0.76491 0.02945 0.29318 0.0
C114 C 0.78341 0.03932 0.314 0.0
C115 C 0.76766 0.03853 0.33547 0.0
C116 C 0.74006 0.02767 0.32679 0.0
N117 N 0.68677 0.01851 0.30366 0.0
C118 C 0.69061 0.01983 0.3305 0.0
C119 C 0.66753 0.01853 0.34341 0.0
C120 C 0.65009 0.01887 0.32439 0.0
C121 C 0.66259 0.01905 0.30089 0.0
N122 N 0.67515 1.00012 0.24852 0.0
C123 C 0.65416 0.00592 0.25202 0.0
C124 C 0.63765 1.00115 0.23024 0.0
C125 C 0.64889 0.99197 0.21138 0.0
C126 C 0.67143 0.99087 0.22291 0.0
N127 N 0.69027 0.97135 0.28696 0.0
C128 C 0.6695 0.91682 0.30884 0.0
C129 C 0.65117 0.92696 0.30227 0.0
C130 C 0.66198 0.95435 0.29169 0.0
C131 C 0.69822 0.93442 0.30366 0.0
C132 C 0.70799 0.96109 0.29241 0.0
N133 N 0.72495 0.05052 0.26163 0.0
C134 C 0.74774 0.08321 0.22531 0.0
C135 C 0.76327 0.10566 0.24271 0.0
C136 C 0.75721 0.10006 0.26993 0.0
C137 C 0.73803 0.07259 0.27891 0.0
C138 C 0.72871 0.05626 0.23504 0.0
H139 H 0.73487 0.069 0.29995 0.0
H140 H 0.71841 0.03986 0.2207 0.0
H141 H 0.64751 0.9618 0.28753 0.0
H142 H 0.73019 0.97344 0.2884 0.0
C143 C 0.77055 0.02311 0.26781 0.0
C144 C 0.69016 0.98358 0.2078 0.0
C145 C 0.71651 0.02433 0.34421 0.0
C146 C 0.64958 0.01442 0.27645 0.0
H147 H 0.73808 0.98006 0.1881 0.0
H148 H 0.78289 0.00429 0.21921 0.0
H149 H 0.80563 0.04585 0.31375 0.0
H150 H 0.77583 0.04558 0.35516 0.0
H151 H 0.66289 0.01661 0.36432 0.0
H152 H 0.62971 0.01719 0.32736 0.0
H153 H 0.61981 0.00441 0.22816 0.0
H154 H 0.64176 0.98787 0.19111 0.0
H155 H 0.6287 0.91399 0.30569 0.0
H156 H 0.71314 0.92739 0.3078 0.0
H157 H 0.75118 0.08581 0.20416 0.0
H158 H 0.76763 0.11661 0.28443 0.0
C159 C 0.9626 0.20722 0.74923 0.0
C160 C 0.95 0.1786 0.74369 0.0
C161 C 0.967 0.16948 0.75411 0.0
C162 C 0.9888 0.19275 0.76563 0.0
N163 N 0.98688 0.21619 0.76315 0.0
Co164 Co 0.01342 0.25358 0.77912 0.0
N165 N 0.04255 0.24251 0.7862 0.0
C166 C 0.03861 0.21629 0.78436 0.0
C167 C 0.06253 0.21487 0.78891 0.0
C168 C 0.08293 0.24184 0.79443 0.0
C169 C 0.07012 0.25821 0.79339 0.0
N170 N 0.0398 0.29063 0.79577 0.0
C171 C 0.06707 0.30176 0.80388 0.0
C172 C 0.0762 0.32722 0.81674 0.0
C173 C 0.05395 0.33207 0.81688 0.0
C174 C 0.03244 0.30936 0.80424 0.0
N175 N 0.98436 0.2645 0.77139 0.0
C176 C 0.98389 0.28685 0.78181 0.0
C177 C 0.96196 0.28983 0.77258 0.0
C178 C 0.94742 0.26774 0.75558 0.0
C179 C 0.96104 0.25212 0.75561 0.0
N180 N 0.99639 0.23995 0.81452 0.0
C181 C 0.9784 0.24593 0.86498 0.0
C182 C 0.95916 0.23471 0.84399 0.0
C183 C 0.96849 0.2313 0.81898 0.0
C184 C 1.00533 0.2494 0.86111 0.0
C185 C 0.01383 0.24618 0.8359 0.0
N186 N 0.03069 0.26883 0.74429 0.0
C187 C 0.05017 0.30868 0.71464 0.0
C188 C 0.05897 0.29507 0.697 0.0
C189 C 0.05245 0.26743 0.70298 0.0
C190 C 0.03836 0.25468 0.72689 0.0
C191 C 0.03607 0.2953 0.73781 0.0
H192 H 0.03415 0.23371 0.73151 0.0
H193 H 0.03011 0.30692 0.75075 0.0
H194 H 0.95373 0.22441 0.80278 0.0
H195 H 0.03554 0.25185 0.83349 0.0
C196 C 0.01304 0.19409 0.77574 0.0
C197 C 0.94964 0.22435 0.74257 0.0
C198 C 0.08398 0.28766 0.80228 0.0
C199 C 1.00619 0.30623 0.79759 0.0
H200 H 0.93036 0.16536 0.73352 0.0
H201 H 0.9641 0.14849 0.7529 0.0
H202 H 0.06499 0.1965 0.78784 0.0
H203 H 0.10463 0.24847 0.79917 0.0
H204 H 0.09657 0.34057 0.82571 0.0
H205 H 0.0536 0.35012 0.82505 0.0
H206 H 0.95744 0.30644 0.77716 0.0
H207 H 0.92864 0.26342 0.74475 0.0
H208 H 0.93786 0.23093 0.84615 0.0
H209 H 0.02065 0.25695 0.87699 0.0
H210 H 0.05453 0.32992 0.71071 0.0
H211 H 0.05894 0.25617 0.68978 0.0
C212 C 0.82599 0.76648 0.75267 0.0
C213 C 0.85501 0.78338 0.74963 0.0
C214 C 0.86173 0.80986 0.75711 0.0
C215 C 0.83664 0.80765 0.76459 0.0
N216 N 0.81437 0.78135 0.76277 0.0
Co217 Co 0.77462 0.76927 0.77317 0.0
N218 N 0.78619 0.80614 0.7908 0.0
C219 C 0.81168 0.82962 0.78887 0.0
C220 C 0.81445 0.85133 0.80434 0.0
C221 C 0.78908 0.84115 0.81681 0.0
C222 C 0.77196 0.81377 0.80784 0.0
N223 N 0.73503 0.75756 0.78374 0.0
C224 C 0.72482 0.76963 0.80077 0.0
C225 C 0.69556 0.75477 0.80118 0.0
C226 C 0.68719 0.73282 0.7838 0.0
C227 C 0.71171 0.73547 0.77367 0.0
N228 N 0.76335 0.73252 0.75536 0.0
C229 C 0.73671 0.71317 0.74882 0.0
C230 C 0.735 0.69084 0.73499 0.0
C231 C 0.76231 0.69666 0.73213 0.0
C232 C 0.77927 0.7223 0.74442 0.0
N233 N 0.77919 0.75377 0.80687 0.0
C234 C 0.78045 0.73205 0.85742 0.0
C235 C 0.75795 0.71707 0.83993 0.0
C236 C 0.75793 0.728 0.81498 0.0
C237 C 0.80291 0.75801 0.84838 0.0
C238 C 0.8018 0.76852 0.82321 0.0
N239 N 0.76834 0.78356 0.73939 0.0
C240 C 0.75894 0.77407 0.69267 0.0
C241 C 0.73888 0.78288 0.6935 0.0
C242 C 0.73724 0.79591 0.71682 0.0
C243 C 0.7523 0.79629 0.73935 0.0
C244 C 0.77376 0.77503 0.71571 0.0
H245 H 0.74875 0.80454 0.75737 0.0
H246 H 0.78765 0.76648 0.71477 0.0
H247 H 0.73997 0.71571 0.80261 0.0
H248 H 0.81897 0.78875 0.81721 0.0
C249 C 0.83387 0.8291 0.77609 0.0
C250 C 0.81031 0.73769 0.74226 0.0
C251 C 0.74194 0.79651 0.81479 0.0
C252 C 0.71388 0.71609 0.75721 0.0
H253 H 0.86972 0.77734 0.74201 0.0
H254 H 0.8825 0.82843 0.75747 0.0
H255 H 0.83314 0.87168 0.80722 0.0
H256 H 0.78403 0.85268 0.83104 0.0
H257 H 0.68172 0.7596 0.81249 0.0
H258 H 0.66579 0.7166 0.77943 0.0
H259 H 0.71616 0.67259 0.72768 0.0
H260 H 0.7691 0.68399 0.72144 0.0
H261 H 0.7397 0.69732 0.84559 0.0
H262 H 0.82121 0.77036 0.86064 0.0
H263 H 0.76163 0.76446 0.67504 0.0
H264 H 0.72306 0.80427 0.71821 0.0
C265 C 0.21393 0.96206 0.80368 0.0
C266 C 0.18527 0.9499 0.80929 0.0
C267 C 0.17663 0.96734 0.79909 0.0
C268 C 0.20021 0.98896 0.78763 0.0
N269 N 0.22342 0.98651 0.78991 0.0
Co270 Co 0.26115 0.01273 0.77395 0.0
N271 N 0.25048 0.04211 0.76636 0.0
C272 C 0.22435 0.03857 0.76844 0.0
C273 C 0.22294 0.06218 0.76246 0.0
C274 C 0.2498 0.08197 0.75562 0.0
C275 C 0.26615 0.06919 0.75769 0.0
N276 N 0.29855 0.0388 0.75721 0.0
C277 C 0.30927 0.06536 0.7472 0.0
C278 C 0.33511 0.07433 0.735 0.0
C279 C 0.34053 0.05259 0.73682 0.0
C280 C 0.31781 0.03158 0.75004 0.0
N281 N 0.27175 0.98352 0.7823 0.0
C282 C 0.29456 0.98316 0.77275 0.0
C283 C 0.29718 0.96116 0.7823 0.0
C284 C 0.27439 0.94643 0.79863 0.0
C285 C 0.2588 0.96007 0.79792 0.0
N286 N 0.24764 0.99539 0.73867 0.0
C287 C 0.25316 0.9769 0.68829 0.0
C288 C 0.24239 0.95801 0.70963 0.0
C289 C 0.23918 0.96756 0.73456 0.0
C290 C 0.25638 1.0037 0.69186 0.0
C291 C 0.25335 0.01242 0.71702 0.0
N292 N 0.27605 0.02997 0.80885 0.0
C293 C 0.3133 0.04503 0.84119 0.0
C294 C 0.29881 0.05282 0.85889 0.0
C295 C 0.27268 0.04938 0.85082 0.0
C296 C 0.26153 0.03763 0.82582 0.0
C297 C 0.30182 0.03405 0.81646 0.0
H298 H 0.24119 0.03465 0.82032 0.0
H299 H 0.31405 0.02875 0.80362 0.0
H300 H 0.23237 0.95296 0.7509 0.0
H301 H 0.25838 0.03386 0.71906 0.0
C302 C 0.20196 0.0133 0.77742 0.0
C303 C 0.23058 0.94856 0.81024 0.0
C304 C 0.29471 0.08183 0.74648 0.0
C305 C 0.31454 0.00549 0.75735 0.0
H306 H 0.17169 0.93028 0.81937 0.0
H307 H 0.15575 0.96482 0.80033 0.0
H308 H 0.20453 0.06466 0.76283 0.0
H309 H 0.25629 0.10301 0.74865 0.0
H310 H 0.34826 0.09427 0.72515 0.0
H311 H 0.35882 0.05212 0.7293 0.0
H312 H 0.31398 0.95669 0.77834 0.0
H313 H 0.2696 0.92754 0.80948 0.0
H314 H 0.23868 0.93676 0.70774 0.0
H315 H 0.26335 0.01872 0.67569 0.0
H316 H 0.33374 0.04773 0.84628 0.0
H317 H 0.26074 0.05518 0.86389 0.0
C318 C 0.66219 0.05217 0.66107 0.0
C319 C 0.65999 0.07468 0.67081 0.0
C320 C 0.67397 0.0966 0.65349 0.0
C321 C 0.6831 0.08622 0.63353 0.0
N322 N 0.67484 0.05874 0.6366 0.0
Co323 Co 0.68186 0.0358 0.61006 0.0
N324 N 0.69644 0.06593 0.58199 0.0
C325 C 0.70349 0.09288 0.58626 0.0
C326 C 0.71358 0.10942 0.56402 0.0
C327 C 0.713 0.09191 0.54438 0.0
C328 C 0.70234 0.06541 0.5556 0.0
N329 N 0.68917 0.01281 0.58368 0.0
C330 C 0.69316 0.01555 0.55688 0.0
C331 C 0.69144 0.99143 0.54607 0.0
C332 C 0.68817 0.97394 0.56657 0.0
C333 C 0.687 0.98768 0.58868 0.0
N334 N 0.66656 0.00494 0.63779 0.0
C335 C 0.66841 0.98139 0.63599 0.0
C336 C 0.66069 0.96537 0.65837 0.0
C337 C 0.65386 0.97963 0.67602 0.0
C338 C 0.65684 1.00353 0.66322 0.0
N339 N 0.64334 0.02122 0.59514 0.0
C340 C 0.5935 0.00564 0.56576 0.0
C341 C 0.60149 0.98566 0.57235 0.0
C342 C 0.62649 0.99389 0.58704 0.0
C343 C 0.61003 0.03285 0.57567 0.0
C344 C 0.63438 0.04006 0.5902 0.0
N345 N 0.72095 0.05229 0.62499 0.0
C346 C 0.74965 0.06963 0.6645 0.0
C347 C 0.77246 0.09066 0.65032 0.0
C348 C 0.7702 0.08959 0.62256 0.0
C349 C 0.74449 0.06991 0.61031 0.0
C350 C 0.72451 0.05109 0.65172 0.0
H351 H 0.74341 0.07029 0.58904 0.0
H352 H 0.70776 0.03723 0.66438 0.0
H353 H 0.63258 0.97835 0.59099 0.0
H354 H 0.6465 0.06153 0.59629 0.0
C355 C 0.69704 0.1008 0.61044 0.0
C356 C 0.65515 0.02657 0.67723 0.0
C357 C 0.70019 0.04094 0.54099 0.0
C358 C 0.67821 0.97512 0.61322 0.0
H359 H 0.65011 0.07558 0.68906 0.0
H360 H 0.67682 0.11754 0.65513 0.0
H361 H 0.72001 0.13149 0.56213 0.0
H362 H 0.7199 0.09805 0.52417 0.0
H363 H 0.69195 0.9865 0.52544 0.0
H364 H 0.68504 0.95287 0.56531 0.0
H365 H 0.66143 0.94628 0.66193 0.0
H366 H 0.64974 0.9736 0.69649 0.0
H367 H 0.58929 0.96424 0.56525 0.0
H368 H 0.6046 0.04896 0.57156 0.0
H369 H 0.75057 0.06828 0.68583 0.0
H370 H 0.78749 0.10473 0.61043 0.0
C371 C 0.95923 0.64349 0.55278 0.0
C372 C 0.93515 0.62393 0.53951 0.0
C373 C 0.92272 0.60001 0.55474 0.0
C374 C 0.93936 0.60625 0.5768 0.0
N375 N 0.96115 0.6329 0.57687 0.0
Co376 Co 0.98957 0.64943 0.60614 0.0
N377 N 0.9675 0.61739 0.63119 0.0
C378 C 0.94565 0.59228 0.62416 0.0
C379 C 0.93371 0.57436 0.6453 0.0
C380 C 0.94909 0.58902 0.66702 0.0
C381 C 0.96981 0.61521 0.65802 0.0
N382 N 0.01812 0.66599 0.63523 0.0
C383 C 0.01642 0.65999 0.66164 0.0
C384 C 0.04203 0.67704 0.67411 0.0
C385 C 0.06025 0.69435 0.65511 0.0
C386 C 0.04491 0.68691 0.63215 0.0
N387 N 0.01229 0.68187 0.58145 0.0
C388 C 0.03982 0.70089 0.58508 0.0
C389 C 0.0522 0.7186 0.56411 0.0
C390 C 0.03151 0.71019 0.54562 0.0
C391 C 1.00705 0.68793 0.55646 0.0
N392 N 0.9695 0.66821 0.62052 0.0
C393 C 0.93899 0.69146 0.64447 0.0
C394 C 0.96809 0.70816 0.63925 0.0
C395 C 0.98305 0.69604 0.62759 0.0
C396 C 0.92563 0.66325 0.63693 0.0
C397 C 0.94098 0.6523 0.62473 0.0
N398 N 0.00825 0.62909 0.59151 0.0
C399 C 0.01736 0.60929 0.55251 0.0
C400 C 0.01972 0.58918 0.56756 0.0
C401 C 0.01897 0.59123 0.59527 0.0
C402 C 0.01335 0.61143 0.60685 0.0
C403 C 0.01182 0.62886 0.56469 0.0
H404 H 0.01158 0.61163 0.62811 0.0
H405 H 0.00862 0.64243 0.55179 0.0
H406 H 1.00549 0.70904 0.62445 0.0
H407 H 0.92944 0.63062 0.619 0.0
C408 C 0.93404 0.58849 0.59873 0.0
C409 C 0.98101 0.67062 0.54067 0.0
C410 C 0.99194 0.63698 0.67533 0.0
C411 C 0.05359 0.7016 0.60843 0.0
H412 H 0.92743 0.62635 0.52058 0.0
H413 H 0.90361 0.58049 0.55035 0.0
H414 H 0.91518 0.55358 0.64518 0.0
H415 H 0.94524 0.58136 0.68719 0.0
H416 H 0.0472 0.67687 0.69474 0.0
H417 H 0.08186 0.71098 0.65788 0.0
H418 H 0.07402 0.73502 0.5621 0.0
H419 H 0.03512 0.71859 0.52577 0.0
H420 H 0.97925 0.73025 0.64451 0.0
H421 H 0.90315 0.64971 0.64001 0.0
H422 H 0.01852 0.60917 0.5311 0.0
H423 H 0.02107 0.57638 0.60783 0.0
C424 C 0.39845 0.3628 0.6632 0.0
C425 C 0.41986 0.36184 0.67693 0.0
C426 C 0.43216 0.35186 0.65969 0.0
C427 C 0.4176 0.34711 0.63638 0.0
N428 N 0.39729 0.35416 0.6375 0.0
Co429 Co 0.36878 0.34561 0.60875 0.0
N430 N 0.38948 0.33578 0.58196 0.0
C431 C 0.41153 0.33221 0.5872 0.0
C432 C 0.42271 0.32727 0.56481 0.0
C433 C 0.40668 0.3278 0.54412 0.0
C434 C 0.38647 0.33294 0.55501 0.0
N435 N 0.33923 0.33543 0.58097 0.0
C436 C 0.33935 0.3303 0.55465 0.0
C437 C 0.31343 0.32252 0.54321 0.0
C438 C 0.29671 0.32348 0.5628 0.0
C439 C 0.31317 0.33147 0.58508 0.0
N440 N 0.34838 0.35681 0.63467 0.0
C441 C 0.3227 0.35394 0.63093 0.0
C442 C 0.31425 0.36477 0.65106 0.0
C443 C 0.33558 0.37456 0.66914 0.0
C444 C 0.35572 0.36864 0.65923 0.0
N445 N 0.39036 0.38497 0.59511 0.0
C446 C 0.42285 0.43527 0.56563 0.0
C447 C 0.3932 0.42177 0.56636 0.0
C448 C 0.37746 0.39711 0.58159 0.0
C449 C 0.43575 0.42392 0.58131 0.0
C450 C 0.41932 0.39888 0.59552 0.0
N451 N 0.34847 0.30598 0.62186 0.0
C452 C 0.3339 0.27319 0.65873 0.0
C453 C 0.33158 0.25137 0.64244 0.0
C454 C 0.33608 0.25739 0.61512 0.0
C455 C 0.3438 0.28433 0.60531 0.0
C456 C 0.34237 0.29999 0.64819 0.0
H457 H 0.3471 0.28778 0.58429 0.0
H458 H 0.34479 0.31595 0.66179 0.0
H459 H 0.3548 0.38732 0.58138 0.0
H460 H 0.43048 0.39021 0.60559 0.0
C461 C 0.42291 0.337 0.61279 0.0
C462 C 0.37802 0.36927 0.67613 0.0
C463 C 0.36359 0.33319 0.53958 0.0
C464 C 0.30704 0.34084 0.60838 0.0
H465 H 0.42543 0.36698 0.69752 0.0
H466 H 0.4494 0.3481 0.66381 0.0
H467 H 0.44089 0.32445 0.56355 0.0
H468 H 0.40943 0.3246 0.52345 0.0
H469 H 0.30748 0.3174 0.52268 0.0
H470 H 0.27563 0.32028 0.5607 0.0
H471 H 0.2946 0.36492 0.65271 0.0
H472 H 0.33548 0.38337 0.68828 0.0
H473 H 0.38219 0.42991 0.55482 0.0
H474 H 0.4585 0.43336 0.58136 0.0
H475 H 0.32959 0.26997 0.67973 0.0
H476 H 0.33472 0.24187 0.60114 0.0
C477 C 0.72781 0.60081 0.14319 0.0
C478 C 0.7384 0.58359 0.15118 0.0
C479 C 0.72132 0.55767 0.1406 0.0
C480 C 0.70144 0.56038 0.12662 0.0
N481 N 0.70453 0.58633 0.12772 0.0
Co482 Co 0.68064 0.59872 0.1084 0.0
N483 N 0.65163 0.55909 0.09926 0.0
C484 C 0.65445 0.53623 0.10239 0.0
C485 C 0.63104 0.5115 0.09526 0.0
C486 C 0.61215 0.51907 0.08672 0.0
C487 C 0.62535 0.5482 0.08878 0.0
N488 N 0.65675 0.61087 0.08876 0.0
C489 C 0.63025 0.5956 0.0785 0.0
C490 C 0.62275 0.61281 0.06484 0.0
C491 C 0.64532 0.63963 0.06628 0.0
C492 C 0.66535 0.63736 0.08064 0.0
N493 N 0.70976 0.63821 0.11765 0.0
C494 C 0.71179 0.66158 0.10674 0.0
C495 C 0.73363 0.68598 0.11677 0.0
C496 C 0.74659 0.67756 0.1348 0.0
C497 C 0.73215 0.64832 0.13457 0.0
N498 N 0.70123 0.60247 0.07506 0.0
C499 C 0.7298 0.62825 0.02778 0.0
C500 C 0.74465 0.63155 0.05138 0.0
C501 C 0.73007 0.6182 0.07463 0.0
C502 C 0.70085 0.60845 0.02769 0.0
C503 C 0.68708 0.59553 0.05144 0.0
N504 N 0.6602 0.59658 0.14142 0.0
C505 C 0.64103 0.61865 0.16934 0.0
C506 C 0.63104 0.59661 0.18765 0.0
C507 C 0.63654 0.57456 0.1826 0.0
C508 C 0.65101 0.57485 0.15923 0.0
C509 C 0.65537 0.61826 0.14674 0.0
H510 H 0.65464 0.55755 0.15555 0.0
H511 H 0.66254 0.63585 0.13358 0.0
H512 H 0.74202 0.62279 0.09265 0.0
H513 H 0.66454 0.58201 0.05091 0.0
C514 C 0.6782 0.53836 0.1144 0.0
C515 C 0.74233 0.63129 0.14842 0.0
C516 C 0.61295 0.56465 0.07858 0.0
C517 C 0.69118 0.65976 0.08916 0.0
H518 H 0.75696 0.58905 0.16284 0.0
H519 H 0.72307 0.539 0.14301 0.0
H520 H 0.62787 0.49042 0.09664 0.0
H521 H 0.59116 0.50469 0.0795 0.0
H522 H 0.60329 0.60652 0.0543 0.0
H523 H 0.64683 0.65854 0.05801 0.0
H524 H 0.73926 0.70738 0.11185 0.0
H525 H 0.76503 0.6914 0.14632 0.0
H526 H 0.76724 0.64566 0.05229 0.0
H527 H 0.68841 0.6046 1.00993 0.0
H528 H 0.63797 0.63648 0.1725 0.0
H529 H 0.62929 0.55705 0.19625 0.0
C530 C 0.43327 0.14818 0.13318 0.0
C531 C 0.44919 0.17711 0.13697 0.0
C532 C 0.47616 0.18513 0.12964 0.0
C533 C 0.47526 0.16084 0.12172 0.0
N534 N 0.44935 0.13784 0.12313 0.0
Co535 Co 0.43947 0.09866 0.11306 0.0
N536 N 0.4771 0.11198 0.09596 0.0
C537 C 0.49976 0.138 0.09803 0.0
C538 C 0.52247 0.14183 0.08335 0.0
C539 C 0.51385 0.1166 0.07129 0.0
C540 C 0.48634 0.09854 0.07964 0.0
N541 N 0.4299 0.05966 0.1028 0.0
C542 C 0.44325 0.05049 0.08615 0.0
C543 C 0.42964 0.02131 0.08586 0.0
C544 C 0.40721 0.01193 0.10295 0.0
C545 C 0.40834 0.03579 0.11279 0.0
N546 N 0.40202 0.08555 0.13046 0.0
C547 C 0.38356 0.05864 0.13706 0.0
C548 C 0.36043 0.05563 0.15056 0.0
C549 C 0.36475 0.08236 0.15316 0.0
C550 C 0.39039 0.10031 0.1411 0.0
N551 N 0.42369 0.10218 0.07909 0.0
C552 C 0.40028 0.1031 0.02962 0.0
C553 C 0.38667 0.07996 0.04657 0.0
C554 C 0.39844 0.08004 0.07104 0.0
C555 C 0.42574 0.12629 0.03825 0.0
C556 C 0.43724 0.1253 0.06297 0.0
N557 N 0.4539 0.09346 0.14721 0.0
C558 C 0.44364 0.08498 0.19392 0.0
C559 C 0.45235 0.06488 0.19402 0.0
C560 C 0.4658 0.06277 0.17115 0.0
C561 C 0.46675 0.07755 0.14815 0.0
C562 C 0.44502 0.09934 0.17046 0.0
H563 H 0.47549 0.07388 0.1305 0.0
H564 H 0.43636 0.11311 0.1707 0.0
H565 H 0.38697 0.06176 0.08328 0.0
H566 H 0.45712 0.14304 0.06888 0.0
C567 C 0.49769 0.15939 0.11058 0.0
C568 C 0.40422 0.13125 0.14296 0.0
C569 C 0.47034 0.06857 0.07259 0.0
C570 C 0.38802 0.03673 0.12897 0.0
H571 H 0.44227 0.19094 0.145 0.0
H572 H 0.49423 0.20622 0.12985 0.0
H573 H 0.5425 0.16102 0.08083 0.0
H574 H 0.5265 0.11226 0.05774 0.0
H575 H 0.43567 0.0082 0.07489 0.0
H576 H 0.39169 0.99027 0.10735 0.0
H577 H 0.34261 0.03632 0.1578 0.0
H578 H 0.35107 0.08815 0.16351 0.0
H579 H 0.36674 0.0618 0.04105 0.0
H580 H 0.43696 0.14472 0.02579 0.0
H581 H 0.43369 0.08802 0.21116 0.0
H582 H 0.4741 0.04853 0.1705 0.0
C583 C 0.8776 0.29625 0.13969 0.0
C584 C 0.8501 0.28656 0.14826 0.0
C585 C 0.84176 0.3041 0.1377 0.0
C586 C 0.86459 0.32371 0.12365 0.0
N587 N 0.88705 0.31987 0.12462 0.0
Co588 Co 0.92473 0.34487 0.10793 0.0
N589 N 0.91529 0.37513 0.10037 0.0
C590 C 0.88975 0.37284 0.10336 0.0
C591 C 0.88939 0.39708 0.09769 0.0
C592 C 0.9163 0.41594 0.09009 0.0
C593 C 0.93157 0.40197 0.09133 0.0
N594 N 0.96205 0.36974 0.09043 0.0
C595 C 0.97331 0.39616 0.07986 0.0
C596 C 0.99849 0.40388 0.06687 0.0
C597 C 1.00294 0.3815 0.06882 0.0
C598 C 0.98032 0.36135 0.08285 0.0
N599 N 0.93414 0.31483 0.11635 0.0
C600 C 0.95585 0.31303 0.10598 0.0
C601 C 0.9571 0.29004 0.11491 0.0
C602 C 0.93462 0.27629 0.13185 0.0
C603 C 0.92086 0.29173 0.13237 0.0
N604 N 0.91011 0.32721 0.07293 0.0
C605 C 0.91584 0.30857 1.02276 0.0
C606 C 0.90475 0.28966 0.04406 0.0
C607 C 0.90137 0.29929 0.06891 0.0
C608 C 0.91904 0.33537 0.02615 0.0
C609 C 0.91582 0.34412 0.05121 0.0
N610 N 0.94072 0.36232 0.14251 0.0
C611 C 0.97828 0.37628 0.17435 0.0
C612 C 0.96462 0.38479 0.19233 0.0
C613 C 0.93879 0.3823 0.18463 0.0
C614 C 0.92706 0.37076 0.15975 0.0
C615 C 0.96625 0.3655 0.14972 0.0
H616 H 0.90695 0.36853 0.1546 0.0
H617 H 0.97778 0.35951 0.13664 0.0
H618 H 0.89439 0.28474 0.0853 0.0
H619 H 0.92094 0.36555 0.05319 0.0
C620 C 0.86711 0.34835 0.11333 0.0
C621 C 0.89365 0.28207 0.14596 0.0
C622 C 0.95956 0.41342 0.0791 0.0
C623 C 0.976 0.33481 0.09012 0.0
H624 H 0.83736 0.26899 0.16121 0.0
H625 H 0.82191 0.30348 0.14103 0.0
H626 H 0.87166 0.40062 0.09891 0.0
H627 H 0.92358 0.43718 0.08319 0.0
H628 H 0.01175 0.42335 0.05636 0.0
H629 H 0.02045 0.37999 0.0607 0.0
H630 H 0.9727 0.28414 0.10999 0.0
H631 H 0.92865 0.25679 0.14217 0.0
H632 H 0.90102 0.2684 0.04226 0.0
H633 H 0.92631 0.35039 1.00998 0.0
H634 H 0.99847 0.37824 0.17914 0.0
H635 H 0.92747 0.38867 0.19791 0.0
C636 C 0.33313 0.38552 0.99662 0.0
C637 C 0.33541 0.40812 1.01091 0.0
C638 C 0.3474 0.43102 0.99436 0.0
C639 C 0.35191 0.42131 0.97088 0.0
N640 N 0.34279 0.39346 0.9712 0.0
Co641 Co 0.35071 0.37325 0.94227 0.0
N642 N 0.3635 0.40503 0.91638 0.0
C643 C 0.36931 0.43125 0.92235 0.0
C644 C 0.37613 0.44834 0.90042 0.0
C645 C 0.37447 0.4318 0.87927 0.0
C646 C 0.36679 0.40547 0.88946 0.0
N647 N 0.35984 0.35341 0.91417 0.0
C648 C 0.36523 0.35902 0.8879 0.0
C649 C 0.37114 0.33982 0.87587 0.0
C650 C 0.36875 0.32117 0.89508 0.0
C651 C 0.36176 0.3301 0.91771 0.0
N652 N 0.3366 0.34048 0.96731 0.0
C653 C 0.33811 0.317 0.96323 0.0
C654 C 0.32577 0.29728 0.9829 0.0
C655 C 0.31645 0.30924 1.00104 0.0
C656 C 0.32405 0.3359 0.9916 0.0
N657 N 0.31209 0.35806 0.92784 0.0
C658 C 0.26223 0.34262 0.89888 0.0
C659 C 0.2721 0.32358 0.90238 0.0
C660 C 0.29711 0.33174 0.91688 0.0
C661 C 0.27692 0.36868 0.91152 0.0
C662 C 0.30135 0.37581 0.92593 0.0
N663 N 0.38983 0.39019 0.95661 0.0
C664 C 0.41834 0.40709 0.99613 0.0
C665 C 0.44056 0.42899 0.98215 0.0
C666 C 0.43825 0.42883 0.95445 0.0
C667 C 0.41282 0.40903 0.94204 0.0
C668 C 0.39363 0.38791 0.98306 0.0
H669 H 0.41131 0.41031 0.92086 0.0
H670 H 0.37702 0.37265 0.99504 0.0
H671 H 0.30483 0.31715 0.91831 0.0
H672 H 0.31222 0.39649 0.93436 0.0
C673 C 0.36424 0.43751 0.94799 0.0
C674 C 0.32469 0.35786 1.00896 0.0
C675 C 0.36443 0.38183 0.87344 0.0
C676 C 0.35116 0.31413 0.94069 0.0
H677 H 0.32996 0.40827 0.03148 0.0
H678 H 0.35278 0.45236 0.99911 0.0
H679 H 0.38078 0.46996 0.89972 0.0
H680 H 0.37852 0.43835 0.85877 0.0
H681 H 0.37591 0.33896 0.85521 0.0
H682 H 0.37022 0.30236 0.89246 0.0
H683 H 0.32436 0.27692 0.98423 0.0
H684 H 0.30692 0.30018 1.01997 0.0
H685 H 0.26138 0.30314 0.89296 0.0
H686 H 0.27 0.38397 0.90963 0.0
H687 H 0.41942 0.40559 1.01744 0.0
H688 H 0.45516 0.44493 0.94262 0.0
C689 C 0.62104 0.96773 0.88746 0.0
C690 C 0.59751 0.94648 0.87482 0.0
C691 C 0.58737 0.92295 0.89048 0.0
C692 C 0.60457 0.9311 0.91225 0.0
N693 N 0.62446 0.95854 0.91177 0.0
Co694 Co 0.65178 0.9784 0.9414 0.0
N695 N 0.63157 0.94679 0.96724 0.0
C696 C 0.61257 0.9203 0.96021 0.0
C697 C 0.6042 0.90165 0.98091 0.0
C698 C 0.61889 0.91728 1.00243 0.0
C699 C 0.63517 0.945 0.99393 0.0
N700 N 0.67898 0.99858 0.971 0.0
C701 C 0.67601 0.99476 0.99784 0.0
C702 C 0.69713 0.01814 1.01083 0.0
C703 C 0.71519 0.03566 0.99193 0.0
C704 C 0.70356 0.02291 0.96837 0.0
N705 N 0.6728 0.01006 0.91559 0.0
C706 C 0.69961 0.0309 0.9192 0.0
C707 C 0.71204 0.0466 0.89709 0.0
C708 C 0.69202 0.03502 0.87794 0.0
C709 C 0.66778 0.01329 0.88964 0.0
N710 N 0.62817 0.99441 0.95338 0.0
C711 C 0.59232 0.01332 0.97387 0.0
C712 C 0.62168 0.03155 0.97211 0.0
C713 C 0.63919 0.02178 0.96148 0.0
C714 C 0.58158 0.98569 0.96508 0.0
C715 C 0.59962 0.97671 0.95525 0.0
N716 N 0.67407 0.96086 0.9294 0.0
C717 C 0.68493 0.93848 0.89358 0.0
C718 C 0.69233 0.92355 0.91129 0.0
C719 C 0.69245 0.92964 0.93843 0.0
C720 C 0.68339 0.94832 0.947 0.0
C721 C 0.67633 0.95703 0.9029 0.0
H722 H 0.68268 0.95152 0.96799 0.0
H723 H 0.66985 0.96682 0.88832 0.0
H724 H 0.66157 0.03626 0.96007 0.0
H725 H 0.59016 0.95504 0.94961 0.0
C726 C 0.6011 0.91453 0.93465 0.0
C727 C 0.64154 0.99491 0.87453 0.0
C728 C 0.65506 0.9685 1.01147 0.0
C729 C 0.71231 0.03574 0.94384 0.0
H730 H 0.58852 0.94751 0.85613 0.0
H731 H 0.5692 0.90247 0.88666 0.0
H732 H 0.58902 0.87933 0.98051 0.0
H733 H 0.618 0.9089 1.022 0.0
H734 H 0.69925 0.02283 0.03172 0.0
H735 H 0.73358 0.0562 0.99497 0.0
H736 H 0.73341 0.06397 0.89495 0.0
H737 H 0.69576 0.04135 0.85741 0.0
H738 H 0.63096 0.05322 0.97848 0.0
H739 H 0.55917 0.97072 0.9662 0.0
H740 H 0.68421 0.93491 0.87247 0.0
H741 H 0.69887 0.91963 0.95314 0.0
C742 C 0.05466 0.66075 0.88463 0.0
C743 C 0.0777 0.66329 0.87074 0.0
C744 C 0.10057 0.67657 0.88712 0.0
C745 C 0.09039 0.68145 0.91013 0.0
N746 N 0.06236 0.67154 0.9097 0.0
Co747 Co 0.04119 0.67846 0.93844 0.0
N748 N 0.07306 0.69259 0.96435 0.0
C749 C 0.09995 0.70105 0.95769 0.0
C750 C 0.1183 0.71223 0.9785 0.0
C751 C 0.10198 0.71068 0.99974 0.0
C752 C 0.07424 0.69805 0.99095 0.0
N753 N 0.02001 0.68555 0.96715 0.0
C754 C 0.02404 0.68813 0.99403 0.0
C755 C 1.00041 0.68595 1.00659 0.0
C756 C 0.98216 0.68405 0.98731 0.0
C757 C 0.99476 0.68391 0.96397 0.0
N758 N 0.00874 0.66398 0.91274 0.0
C759 C 0.98511 0.66538 0.91636 0.0
C760 C 0.96622 0.65424 0.89596 0.0
C761 C 0.97887 0.64577 0.87774 0.0
C762 C 1.005 0.65247 0.888 0.0
N763 N 0.02699 0.63983 0.95249 0.0
C764 C 0.00864 0.58647 0.97603 0.0
C765 C 0.98943 0.59544 0.96947 0.0
C766 C 0.99901 0.62218 0.95807 0.0
C767 C 0.03714 0.60469 0.97016 0.0
C768 C 0.04574 0.63086 0.95809 0.0
N769 N 0.05693 0.71755 0.92413 0.0
C770 C 0.07346 0.74668 0.8848 0.0
C771 C 0.0946 0.76934 0.89896 0.0
C772 C 0.09389 0.76671 0.92669 0.0
C773 C 0.07454 0.74084 0.93888 0.0
C774 C 0.05515 0.72135 0.89753 0.0
H775 H 0.07526 0.73933 0.96011 0.0
H776 H 0.04105 0.70451 0.88502 0.0
H777 H 0.98371 0.62852 0.95399 0.0
H778 H 0.06778 0.64389 0.9535 0.0
C779 C 0.10646 0.69554 0.9324 0.0
C780 C 0.0269 0.65125 0.87196 0.0
C781 C 0.0501 0.6934 1.00816 0.0
C782 C 0.98045 0.67529 0.94002 0.0
H783 H 0.07824 0.65739 0.85041 0.0
H784 H 0.1222 0.68266 0.88251 0.0
H785 H 0.14083 0.72026 0.97836 0.0
H786 H 0.10986 0.71847 1.01936 0.0
H787 H 0.99561 0.6842 0.02745 0.0
H788 H 0.96101 0.6805 0.99013 0.0
H789 H 0.94566 0.65246 0.89449 0.0
H790 H 0.97022 0.63662 0.85866 0.0
H791 H 0.96713 0.58202 0.97349 0.0
H792 H 0.0527 0.59852 0.97435 0.0
H793 H 0.07187 0.74788 0.86352 0.0
H794 H 0.10914 0.78383 0.9388 0.0
C795 C 0.29454 0.86701 0.41629 0.0
C796 C 0.28362 0.83891 0.40949 0.0
C797 C 0.3015 0.83075 0.41961 0.0
C798 C 0.32236 0.85422 0.43184 0.0
N799 N 0.31902 0.8769 0.43006 0.0
Co800 Co 0.34524 0.91513 0.44471 0.0
N801 N 0.37541 0.90538 0.45173 0.0
C802 C 0.37231 0.87945 0.45024 0.0
C803 C 0.39669 0.87891 0.45485 0.0
C804 C 0.41652 0.90614 0.46006 0.0
C805 C 0.40294 0.92179 0.45875 0.0
N806 N 0.37147 0.95317 0.45974 0.0
C807 C 0.39893 0.96511 0.46762 0.0
C808 C 0.40789 0.99115 0.47922 0.0
C809 C 0.38534 0.99552 0.47891 0.0
C810 C 0.36384 0.972 0.46724 0.0
N811 N 0.31495 0.92455 0.43727 0.0
C812 C 0.31397 0.94677 0.44729 0.0
C813 C 0.2903 0.94763 0.43981 0.0
C814 C 0.27517 0.92428 0.42434 0.0
C815 C 0.29048 0.9104 0.42321 0.0
N816 N 0.32958 0.90266 0.48076 0.0
C817 C 0.31272 0.91054 0.53107 0.0
C818 C 0.29284 0.89763 0.51079 0.0
C819 C 0.30163 0.89327 0.48588 0.0
C820 C 0.33986 0.91471 0.52681 0.0
C821 C 0.34777 0.91048 0.50171 0.0
N822 N 0.36106 0.92916 0.40913 0.0
C823 C 0.37485 0.96552 0.37595 0.0
C824 C 0.38414 0.95179 0.35878 0.0
C825 C 0.38136 0.92609 0.36758 0.0
C826 C 0.36965 0.9151 0.39265 0.0
C827 C 0.36383 0.95416 0.40079 0.0
H828 H 0.36768 0.89535 0.3987 0.0
H829 H 0.35746 0.96587 0.41319 0.0
H830 H 0.2863 0.88496 0.47017 0.0
H831 H 0.36954 0.9166 0.49891 0.0
C832 C 0.34714 0.85666 0.44171 0.0
C833 C 0.27964 0.8825 0.41091 0.0
C834 C 0.41618 0.9513 0.46726 0.0
C835 C 0.33687 0.96756 0.46151 0.0
H836 H 0.26457 0.82557 0.39847 0.0
H837 H 0.29998 0.8104 0.41752 0.0
H838 H 0.3998 0.86093 0.454 0.0
H839 H 0.43837 0.91346 0.4648 0.0
H840 H 0.42832 0.00514 0.48779 0.0
H841 H 0.38469 0.01367 0.4864 0.0
H842 H 0.28482 0.96349 0.44477 0.0
H843 H 0.25489 0.91782 0.41537 0.0
H844 H 0.27135 0.89319 0.51332 0.0
H845 H 0.35569 0.92349 0.54222 0.0
H846 H 0.37558 0.9849 0.37028 0.0
H847 H 0.3884 0.91457 0.3554 0.0
C848 C 0.15292 0.42922 0.41551 0.0
C849 C 0.18066 0.44764 0.40801 0.0
C850 C 0.18846 0.47273 0.42002 0.0
C851 C 0.1651 0.46847 0.43384 0.0
N852 N 0.14282 0.44228 0.4313 0.0
Co853 Co 0.10459 0.42823 0.44724 0.0
N854 N 0.11325 0.4672 0.45668 0.0
C855 C 0.13888 0.4906 0.45559 0.0
C856 C 0.13864 0.51473 0.46201 0.0
C857 C 0.11121 0.50614 0.46801 0.0
C858 C 0.09624 0.47702 0.46533 0.0
N859 N 0.06658 0.41432 0.46359 0.0
C860 C 0.05383 0.42856 0.47287 0.0
C861 C 0.02814 0.41023 0.48468 0.0
C862 C 0.02486 0.38382 0.48308 0.0
C863 C 0.04865 0.38737 0.47048 0.0
N864 N 0.09624 0.38949 0.43755 0.0
C865 C 0.07492 0.3654 0.44744 0.0
C866 C 0.07454 0.34182 0.43779 0.0
C867 C 0.09723 0.35166 0.42094 0.0
C868 C 0.11021 0.3808 0.42118 0.0
N869 N 0.11842 0.42394 0.48206 0.0
C870 C 0.12182 0.40271 0.53168 0.0
C871 C 0.13245 0.39661 0.509 0.0
C872 C 0.13116 0.40798 0.48447 0.0
C873 C 0.11195 0.4217 0.52947 0.0
C874 C 0.11047 0.43209 0.50457 0.0
N875 N 0.08944 0.43108 0.41267 0.0
C876 C 0.05299 0.40852 0.37968 0.0
C877 C 0.06627 0.43201 0.36307 0.0
C878 C 0.09139 0.45539 0.37202 0.0
C879 C 0.10279 0.4544 0.39677 0.0
C880 C 0.06464 0.40859 0.40422 0.0
H881 H 0.12235 0.47238 0.40296 0.0
H882 H 0.05335 0.39014 0.41631 0.0
H883 H 0.13886 0.40232 0.46726 0.0
H884 H 0.10111 0.44523 0.50354 0.0
C885 C 0.16204 0.48965 0.44561 0.0
C886 C 0.13736 0.39938 0.40795 0.0
C887 C 0.06673 0.45947 0.47381 0.0
C888 C 0.05399 0.36584 0.46308 0.0
H889 H 0.19396 0.44368 0.39497 0.0
H890 H 0.20837 0.49214 0.4179 0.0
H891 H 0.15621 0.5361 0.46176 0.0
H892 H 0.10332 0.51984 0.47406 0.0
H893 H 0.01369 0.41551 0.49425 0.0
H894 H 0.00722 0.36436 0.49029 0.0
H895 H 0.05932 0.32005 0.4421 0.0
H896 H 0.10384 0.3389 0.41016 0.0
H897 H 0.14097 0.38256 0.51009 0.0
H898 H 0.10407 0.42737 0.5467 0.0
H899 H 0.03332 0.39018 0.37392 0.0
H900 H 0.10239 0.47407 0.35981 0.0
C901 C 0.53823 0.62598 0.46521 0.0
C902 C 0.51011 0.61518 0.47235 0.0
C903 C 0.50434 0.63656 0.4696 0.0
C904 C 0.52909 0.65916 0.46103 0.0
N905 N 0.55014 0.65341 0.45784 0.0
Co906 Co 0.58964 0.68119 0.44732 0.0
N907 N 0.57822 0.70816 0.43396 0.0
C908 C 0.55433 0.70811 0.44043 0.0
C909 C 0.55249 0.72999 0.42944 0.0
C910 C 0.57681 0.74492 0.41516 0.0
C911 C 0.5921 0.73112 0.41818 0.0
N912 N 0.6289 0.70938 0.43646 0.0
C913 C 0.63841 0.73189 0.41972 0.0
C914 C 0.66757 0.74574 0.41778 0.0
C915 C 0.67651 0.73159 0.43404 0.0
C916 C 0.65239 0.70985 0.445 0.0
N917 N 0.60078 0.65418 0.46134 0.0
C918 C 0.62738 0.66082 0.46725 0.0
C919 C 0.62888 0.6385 0.4778 0.0
C920 C 0.60149 0.6166 0.47893 0.0
C921 C 0.58466 0.62675 0.46904 0.0
N922 N 0.58389 0.66372 0.41209 0.0
C923 C 0.57992 0.64102 0.36087 0.0
C924 C 0.60338 0.64863 0.37708 0.0
C925 C 0.60471 0.65935 0.40233 0.0
C926 C 0.55814 0.64494 0.37133 0.0
C927 C 0.56061 0.65647 0.39686 0.0
N928 N 0.59698 0.69871 0.48277 0.0
C929 C 0.62715 0.73856 0.51038 0.0
C930 C 0.61958 0.72122 0.53282 0.0
C931 C 0.59891 0.69287 0.52999 0.0
C932 C 0.58803 0.68204 0.50493 0.0
C933 C 0.6151 0.72703 0.48571 0.0
H934 H 0.57359 0.65977 0.50344 0.0
H935 H 0.6217 0.74088 0.46877 0.0
H936 H 0.62319 0.6646 0.41375 0.0
H937 H 0.54389 0.65965 0.40425 0.0
C938 C 0.53253 0.68514 0.45349 0.0
C939 C 0.55346 0.61052 0.46905 0.0
C940 C 0.62038 0.74153 0.40706 0.0
C941 C 0.65034 0.68713 0.45981 0.0
H942 H 0.49548 0.59431 0.47969 0.0
H943 H 0.48442 0.63567 0.47327 0.0
H944 H 0.53517 0.73414 0.43097 0.0
H945 H 0.5827 0.76393 0.40401 0.0
H946 H 0.68096 0.76421 0.40602 0.0
H947 H 0.69797 0.7361 0.43681 0.0
H948 H 0.64767 0.63801 0.48356 0.0
H949 H 0.59465 0.59571 0.48655 0.0
H950 H 0.62133 0.64714 0.37029 0.0
H951 H 0.53926 0.63919 0.36001 0.0
H952 H 0.64253 0.76077 0.51182 0.0
H953 H 0.5922 0.67876 0.54686 0.0
H954 H 0.01735 0.72153 0.15959 0.0
H955 H 0.08207 0.70347 0.18583 0.0
H956 H 0.09011 0.69492 0.1395 0.0
H957 H 0.99075 0.6785 0.10384 0.0
H958 H 0.98981 0.70406 0.08207 0.0
H959 H 0.9872 0.70698 0.11735 0.0
H960 H 0.03005 0.75753 0.11655 0.0
H961 H 0.03234 0.75504 0.08116 0.0
H962 H 0.06263 0.76388 0.10156 0.0
H963 H 0.08328 0.67873 0.08995 0.0
H964 H 0.07585 0.67315 0.04165 0.0
H965 H 0.03194 0.72063 0.04535 0.0
C966 C 0.0339 0.71668 0.15577 0.0
C967 C 0.04825 0.71214 0.17719 0.0
C968 C 0.06982 0.70599 0.17037 0.0
C969 C 0.07459 0.70106 0.14392 0.0
C970 C 0.05925 0.70444 0.12361 0.0
C971 C 0.04068 0.71392 0.1291 0.0
C972 C 0.02975 0.71943 0.1032 0.0
C973 C 0.99746 0.70115 0.10153 0.0
C974 C 0.03926 0.75084 0.10045 0.0
C975 C 0.04408 0.71039 0.08246 0.0
C976 C 0.06005 0.70069 0.09478 0.0
C977 C 0.07185 0.6875 0.08013 0.0
C978 C 0.06764 0.68459 0.0524 0.0
C979 C 0.05318 0.69622 0.03862 0.0
C980 C 0.04199 0.71007 0.05441 0.0
H981 H 0.28951 0.35636 0.05099 0.0
H982 H 0.36474 0.35133 0.03503 0.0
H983 H 0.36799 0.3421 0.08199 0.0
H984 H 0.31269 0.39079 0.11619 0.0
H985 H 0.27815 0.3716 0.13106 0.0
H986 H 0.28162 0.37853 0.09597 0.0
H987 H 0.25035 0.32523 0.0869 0.0
H988 H 0.24704 0.31812 0.12196 0.0
H989 H 0.26023 0.30102 0.10055 0.0
H990 H 0.36287 0.33139 0.13037 0.0
H991 H 0.35199 0.32406 0.17792 0.0
H992 H 0.28047 0.33638 0.16614 0.0
C993 C 0.30687 0.35371 0.0575 0.0
C994 C 0.32705 0.35491 0.03882 0.0
C995 C 0.34916 0.35093 0.04845 0.0
C996 C 0.35111 0.34542 0.07531 0.0
C997 C 0.33083 0.3439 0.093 0.0
C998 C 0.30924 0.34822 0.08469 0.0
C999 C 0.29044 0.34544 0.10837 0.0
C1000 C 0.29075 0.37325 0.11318 0.0
C1001 C 0.26022 0.321 0.10419 0.0
C1002 C 0.30489 0.33894 0.13108 0.0
C1003 C 0.32802 0.33796 0.12145 0.0
C1004 C 0.34483 0.33218 0.13808 0.0
C1005 C 0.33833 0.32782 0.16524 0.0
C1006 C 0.31521 0.32928 0.17612 0.0
C1007 C 0.29811 0.33477 0.15856 0.0
H1008 H 0.72187 1.00321 0.15987 0.0
H1009 H 0.63993 0.9401 0.18974 0.0
H1010 H 0.62162 0.93003 0.14404 0.0
H1011 H 0.70341 0.02779 0.10447 0.0
H1012 H 0.72893 0.02795 0.08179 0.0
H1013 H 0.73601 0.03151 0.1168 0.0
H1014 H 0.74347 0.98855 0.11624 0.0
H1015 H 0.73716 0.98531 0.08107 0.0
H1016 H 0.7165 0.9557 0.10255 0.0
H1017 H 0.61025 0.93569 0.09485 0.0
H1018 H 0.61011 0.94273 0.04656 0.0
H1019 H 0.70167 0.98565 0.04659 0.0
C1020 C 0.70038 0.98645 0.15697 0.0
C1021 C 0.68222 0.97314 0.17913 0.0
C1022 C 0.65423 0.95136 0.17358 0.0
C1023 C 0.64352 0.94551 0.14753 0.0
C1024 C 0.66149 0.95996 0.12643 0.0
C1025 C 0.6898 0.9786 0.13075 0.0
C1026 C 0.70516 0.98873 0.10422 0.0
C1027 C 0.71921 0.02091 0.10169 0.0
C1028 C 0.72686 0.97899 0.10082 0.0
C1029 C 0.68087 0.97395 0.08451 0.0
C1030 C 0.6557 0.95841 0.09782 0.0
C1031 C 0.63005 0.94669 0.08421 0.0
C1032 C 0.63018 0.95062 0.05649 0.0
C1033 C 0.65573 0.96473 0.04174 0.0
C1034 C 0.68143 0.97567 0.05647 0.0
H1035 H 0.68404 0.05748 0.49381 0.0
H1036 H 0.74116 0.03019 0.52237 0.0
H1037 H 0.75064 0.02209 0.47648 0.0
H1038 H 0.65673 0.01545 0.43703 0.0
H1039 H 0.65927 0.04252 0.41503 0.0
H1040 H 0.65565 0.04545 0.45016 0.0
H1041 H 0.70122 0.09412 0.45057 0.0
H1042 H 0.70466 0.09158 0.41533 0.0
H1043 H 0.73331 0.09765 0.43697 0.0
H1044 H 0.74561 0.00734 0.42715 0.0
H1045 H 0.7397 1.00225 0.37865 0.0
H1046 H 0.70119 0.05482 0.37988 0.0
C1047 C 0.69896 0.05031 0.49044 0.0
C1048 C 0.71046 0.04286 0.51229 0.0
C1049 C 0.73072 0.03461 0.50643 0.0
C1050 C 0.73636 0.02997 0.48025 0.0
C1051 C 0.72334 0.03568 0.45937 0.0
C1052 C 0.70643 0.04733 0.46406 0.0
C1053 C 0.69771 0.05441 0.43766 0.0
C1054 C 0.66542 0.03851 0.43482 0.0
C1055 C 0.70996 0.08634 0.43497 0.0
C1056 C 0.71124 0.04372 0.41764 0.0
C1057 C 0.72509 0.0321 0.43069 0.0
C1058 C 0.7358 0.01746 0.41673 0.0
C1059 C 0.73251 0.01482 0.38893 0.0
C1060 C 0.71986 0.02789 0.37452 0.0
C1061 C 0.70999 0.04339 0.38957 0.0
H1062 H 0.96663 0.63826 0.49314 0.0
H1063 H 0.99224 0.72229 0.5214 0.0
H1064 H 1.00107 0.73971 0.47529 0.0
H1065 H 0.00731 0.65195 0.43625 0.0
H1066 H 0.97984 0.62725 0.41475 0.0
H1067 H 0.97729 0.62113 0.44994 0.0
H1068 H 0.9287 0.61832 0.45105 0.0
H1069 H 0.93078 0.6237 0.41573 0.0
H1070 H 0.92518 0.6467 0.43718 0.0
H1071 H 0.01718 0.74879 0.42524 0.0
H1072 H 0.02213 0.74687 0.37677 0.0
H1073 H 0.9664 0.65629 0.37972 0.0
C1074 C 0.9731 0.66015 0.48988 0.0
C1075 C 0.97978 0.679 0.51172 0.0
C1076 C 0.98806 0.70743 0.50557 0.0
C1077 C 0.99318 0.71761 0.47925 0.0
C1078 C 0.9877 0.69881 0.45847 0.0
C1079 C 0.97596 0.67034 0.46345 0.0
C1080 C 0.96843 0.65417 0.4373 0.0
C1081 C 0.98415 0.63765 0.43441 0.0
C1082 C 0.93636 0.63456 0.43518 0.0
C1083 C 0.979 0.67807 0.41698 0.0
C1084 C 0.99121 0.70373 0.42964 0.0
C1085 C 1.00642 0.72872 0.41518 0.0
C1086 C 0.00894 0.72743 0.38735 0.0
C1087 C 0.99495 0.7015 0.37334 0.0
C1088 C 0.97881 0.67662 0.38893 0.0
H1089 H 0.36077 0.2964 0.49891 0.0
H1090 H 0.3635 0.37571 0.51244 0.0
H1091 H 0.35301 0.37779 0.46525 0.0
H1092 H 0.39411 0.3158 0.43173 0.0
H1093 H 0.37277 0.28071 0.41885 0.0
H1094 H 0.38151 0.28585 0.45354 0.0
H1095 H 0.32841 0.25723 0.46515 0.0
H1096 H 0.31947 0.25254 0.43049 0.0
H1097 H 0.30475 0.26812 0.45199 0.0
H1098 H 0.33806 0.36964 0.41735 0.0
H1099 H 0.3279 0.35619 0.37033 0.0
H1100 H 0.33788 0.28376 0.38469 0.0
C1101 C 0.36004 0.31462 0.49173 0.0
C1102 C 0.36342 0.33619 0.50963 0.0
C1103 C 0.36142 0.35917 0.4993 0.0
C1104 C 0.35518 0.36039 0.47246 0.0
C1105 C 0.35117 0.33858 0.45556 0.0
C1106 C 0.3542 0.31642 0.46455 0.0
C1107 C 0.3492 0.29607 0.44172 0.0
C1108 C 0.37599 0.29452 0.43612 0.0
C1109 C 0.32396 0.26675 0.44771 0.0
C1110 C 0.34258 0.31006 0.41871 0.0
C1111 C 0.34349 0.33438 0.42743 0.0
C1112 C 0.33757 0.35077 0.41034 0.0
C1113 C 0.33154 0.3428 0.3836 0.0
C1114 C 0.33164 0.31873 0.37353 0.0
C1115 C 0.33698 0.30195 0.39164 0.0
H1116 H 0.93037 0.22372 0.89764 0.0
H1117 H 0.01329 0.29716 0.88607 0.0
H1118 H 1.00568 0.31991 0.92447 0.0
H1119 H 0.89525 0.26182 0.91837 0.0
H1120 H 0.87362 0.23659 0.94325 0.0
H1121 H 0.88507 0.22526 0.9147 0.0
H1122 H 0.90722 0.2037 0.9453 0.0
H1123 H 0.89581 0.21493 0.97394 0.0
H1124 H 0.93252 0.22548 0.96995 0.0
H1125 H 0.98993 0.33567 0.96296 0.0
H1126 H 0.96709 0.34338 1.00131 0.0
H1127 H 0.8938 0.26032 0.99073 0.0
C1128 C 0.94688 0.24454 0.9033 0.0
C1129 C 0.97268 0.2584 0.88893 0.0
C1130 C 0.99367 0.28573 0.89698 0.0
C1131 C 0.98947 0.299 0.91871 0.0
C1132 C 0.96413 0.28481 0.93253 0.0
C1133 C 0.94315 0.25817 0.92539 0.0
C1134 C 0.91805 0.24791 0.94423 0.0
C1135 C 0.89142 0.24258 0.92924 0.0
C1136 C 0.91312 0.22143 0.95924 0.0
C1137 C 0.9283 0.27304 0.96282 0.0
C1138 C 0.95492 0.29403 0.95541 0.0
C1139 C 0.96904 0.31944 0.96894 0.0
C1140 C 0.95573 0.32369 0.99064 0.0
C1141 C 0.92841 0.30271 0.99894 0.0
C1142 C 0.91462 0.27683 0.98489 0.0
H1143 H 0.72249 0.61606 0.97387 0.0
H1144 H 0.7677 0.68474 0.02917 0.0
H1145 H 0.7878 0.71803 0.99192 0.0
H1146 H 0.77786 0.64289 0.92253 0.0
H1147 H 0.75285 0.63123 0.89573 0.0
H1148 H 0.74335 0.61236 0.92671 0.0
H1149 H 0.69963 0.61869 0.93012 0.0
H1150 H 0.70906 0.63767 0.89923 0.0
H1151 H 0.70427 0.6536 0.92849 0.0
H1152 H 0.79977 0.74483 0.94872 0.0
H1153 H 0.8041 0.7625 0.90319 0.0
H1154 H 0.75381 0.67636 0.87523 0.0
C1155 C 0.73684 0.63805 0.97815 0.0
C1156 C 0.74367 0.64757 1.00465 0.0
C1157 C 0.76254 0.67664 1.00919 0.0
C1158 C 0.77396 0.69584 0.9881 0.0
C1159 C 0.7666 0.68583 0.96233 0.0
C1160 C 0.74871 0.65757 0.95724 0.0
C1161 C 0.74377 0.65249 0.92767 0.0
C1162 C 0.75514 0.63363 0.91756 0.0
C1163 C 0.71232 0.63987 0.92099 0.0
C1164 C 0.76116 0.68234 0.91705 0.0
C1165 C 0.77414 0.70124 0.93737 0.0
C1166 C 0.79008 0.73013 0.93259 0.0
C1167 C 0.79262 0.73999 0.90643 0.0
C1168 C 0.7795 0.7211 0.88504 0.0
C1169 C 0.76393 0.69175 0.89075 0.0
H1170 H 0.38131 0.06131 0.99239 0.0
H1171 H 0.3894 0.14271 1.00775 0.0
H1172 H 0.36301 0.13848 0.96645 0.0
H1173 H 0.39021 0.06982 0.92094 0.0
H1174 H 0.36541 0.03326 0.91456 0.0
H1175 H 0.38521 0.04336 0.94493 0.0
H1176 H 0.33853 0.01804 0.97163 0.0
H1177 H 0.31857 0.00817 0.94135 0.0
H1178 H 0.31182 0.02758 0.96626 0.0
H1179 H 0.3325 0.12319 0.92411 0.0
H1180 H 0.30658 0.1014 0.88256 0.0
H1181 H 0.32055 0.0311 0.89464 0.0
C1182 C 0.37771 0.07836 0.98696 0.0
C1183 C 0.38737 0.10235 1.00336 0.0
C1184 C 0.3824 0.12427 0.99542 0.0
C1185 C 0.36723 0.12191 0.97209 0.0
C1186 C 0.35746 0.09765 0.95668 0.0
C1187 C 0.36299 0.07651 0.96364 0.0
C1188 C 0.35078 0.0528 0.94358 0.0
C1189 C 0.3743 0.04964 0.93021 0.0
C1190 C 0.32861 0.02501 0.95648 0.0
C1191 C 0.33723 0.06367 0.92429 0.0
C1192 C 0.34099 0.08943 0.93224 0.0
C1193 C 0.32968 0.10313 0.91769 0.0
C1194 C 0.31478 0.09051 0.89421 0.0
C1195 C 0.31158 0.0646 0.88528 0.0
C1196 C 0.32279 0.05102 0.90082 0.0
H1197 H 0.23098 0.92767 0.65768 0.0
H1198 H 0.30305 0.01215 0.66443 0.0
H1199 H 0.32478 1.00382 0.6256 0.0
H1200 H 0.27051 0.89407 0.63721 0.0
H1201 H 0.24454 0.87062 0.61383 0.0
H1202 H 0.23373 0.88278 0.64222 0.0
H1203 H 0.20933 0.90185 0.61145 0.0
H1204 H 0.22003 0.8897 0.58297 0.0
H1205 H 0.22937 0.92614 0.58533 0.0
H1206 H 0.33982 0.98716 0.58721 0.0
H1207 H 0.34699 0.96318 0.54959 0.0
H1208 H 0.2658 0.88875 0.56513 0.0
C1209 C 0.25128 0.94439 0.65089 0.0
C1210 C 0.265 0.97082 0.66403 0.0
C1211 C 0.29165 0.99203 0.65449 0.0
C1212 C 0.30437 0.98743 0.63249 0.0
C1213 C 0.29033 0.96144 0.61993 0.0
C1214 C 0.26434 0.94022 0.62855 0.0
C1215 C 0.25411 0.91434 0.61093 0.0
C1216 C 0.25051 0.88895 0.62701 0.0
C1217 C 0.22657 0.90762 0.59683 0.0
C1218 C 0.27851 0.92442 0.59132 0.0
C1219 C 0.29913 0.95166 0.59717 0.0
C1220 C 0.32388 0.96579 0.58246 0.0
C1221 C 0.32785 0.95183 0.56118 0.0
C1222 C 0.30723 0.92385 0.5545 0.0
C1223 C 0.28202 0.91006 0.56973 0.0
H1224 H 0.04638 0.28441 0.64369 0.0
H1225 H 0.10944 0.34324 0.69802 0.0
H1226 H 0.13468 0.37547 0.66089 0.0
H1227 H 0.09554 0.29886 0.58624 0.0
H1228 H 0.06966 0.29589 0.56249 0.0
H1229 H 0.05851 0.27571 0.59273 0.0
H1230 H 0.02672 0.29693 0.60348 0.0
H1231 H 0.03793 0.31733 0.57345 0.0
H1232 H 0.04211 0.33464 0.60479 0.0
H1233 H 0.14977 0.40407 0.6192 0.0
H1234 H 0.15505 0.42581 0.57498 0.0
H1235 H 0.08335 0.34878 0.54663 0.0
C1236 C 0.06603 0.30362 0.64751 0.0
C1237 C 0.07624 0.31116 0.67368 0.0
C1238 C 0.1015 0.33694 0.67809 0.0
C1239 C 0.11594 0.35541 0.65712 0.0
C1240 C 0.10498 0.34786 0.63166 0.0
C1241 C 0.08078 0.32245 0.62665 0.0
C1242 C 0.07258 0.32046 0.59765 0.0
C1243 C 0.07417 0.29629 0.58397 0.0
C1244 C 0.04309 0.31715 0.59469 0.0
C1245 C 0.09544 0.34893 0.58741 0.0
C1246 C 0.11399 0.36434 0.60738 0.0
C1247 C 0.13574 0.39198 0.60328 0.0
C1248 C 0.1386 0.4042 0.57817 0.0
C1249 C 0.11999 0.38878 0.55741 0.0
C1250 C 0.09826 0.36074 0.56207 0.0
H1251 H 0.67636 0.74833 0.54486 0.0
H1252 H 0.59378 0.71768 0.58005 0.0
H1253 H 0.61576 0.73266 0.62419 0.0
H1254 H 0.7033 0.72451 0.59692 0.0
H1255 H 0.7387 0.7541 0.59541 0.0
H1256 H 0.71695 0.74334 0.56624 0.0
H1257 H 0.72433 0.79357 0.56129 0.0
H1258 H 0.74618 0.80452 0.59043 0.0
H1259 H 0.71588 0.80918 0.58862 0.0
H1260 H 0.64626 0.74938 0.6646 0.0
H1261 H 0.68264 0.76453 0.69904 0.0
H1262 H 0.74627 0.78336 0.63868 0.0
C1263 C 0.66303 0.74529 0.56185 0.0
C1264 C 0.63333 0.73217 0.559 0.0
C1265 C 0.61651 0.72783 0.58176 0.0
C1266 C 0.62884 0.73631 0.6069 0.0
C1267 C 0.65809 0.74889 0.60911 0.0
C1268 C 0.67502 0.75325 0.58725 0.0
C1269 C 0.70572 0.76562 0.59547 0.0
C1270 C 0.71681 0.7457 0.58807 0.0
C1271 C 0.72411 0.79497 0.58322 0.0
C1272 C 0.70338 0.7674 0.62534 0.0
C1273 C 0.67572 0.75789 0.63265 0.0
C1274 C 0.66803 0.75709 0.65906 0.0
C1275 C 0.68901 0.76601 0.67854 0.0
C1276 C 0.71761 0.77562 0.67179 0.0
C1277 C 0.72473 0.77626 0.64465 0.0
H1278 H 0.40284 0.41389 0.83281 0.0
H1279 H 0.31909 0.34287 0.84629 0.0
H1280 H 0.31463 0.33173 0.79858 0.0
H1281 H 0.38655 0.43405 0.76742 0.0
H1282 H 0.42063 0.44391 0.75354 0.0
H1283 H 0.417 0.44719 0.78862 0.0
H1284 H 0.43951 0.41632 0.79766 0.0
H1285 H 0.44278 0.41255 0.76261 0.0
H1286 H 0.42408 0.38173 0.78318 0.0
H1287 H 0.32022 0.3256 0.75004 0.0
H1288 H 0.3326 0.32838 0.70288 0.0
H1289 H 0.41203 0.40475 0.71768 0.0
C1290 C 0.38327 0.39652 0.82554 0.0
C1291 C 0.36101 0.37952 0.84352 0.0
C1292 C 0.33618 0.35645 0.8331 0.0
C1293 C 0.33357 0.34982 0.80595 0.0
C1294 C 0.35593 0.36647 0.7889 0.0
C1295 C 0.38015 0.38968 0.7981 0.0
C1296 C 0.40088 0.4039 0.77512 0.0
C1297 C 0.4066 0.43406 0.77093 0.0
C1298 C 0.42845 0.40361 0.77994 0.0
C1299 C 0.3846 0.38497 0.75173 0.0
C1300 C 0.35884 0.36335 0.76042 0.0
C1301 C 0.34021 0.34265 0.74305 0.0
C1302 C 0.34756 0.34435 0.71613 0.0
C1303 C 0.37328 0.36679 0.70609 0.0
C1304 C 0.39223 0.38724 0.72447 0.0
H1305 H 0.61925 0.98284 0.71346 0.0
H1306 H 0.68617 0.0704 0.71248 0.0
H1307 H 0.68133 0.07244 0.76062 0.0
H1308 H 0.58166 0.97576 0.77301 0.0
H1309 H 0.58235 0.94533 0.78553 0.0
H1310 H 0.58372 0.95148 0.75035 0.0
H1311 H 0.63007 0.94997 0.74676 0.0
H1312 H 0.62847 0.94314 0.78179 0.0
H1313 H 0.65947 0.97255 0.76762 0.0
H1314 H 0.66236 0.06452 0.81001 0.0
H1315 H 0.65316 0.04677 0.85588 0.0
H1316 H 0.62361 0.96217 0.82652 0.0
C1317 C 0.63393 1.00236 0.72302 0.0
C1318 C 0.65253 0.02679 0.7078 0.0
C1319 C 0.67016 0.05172 0.72241 0.0
C1320 C 0.66791 0.05302 0.75019 0.0
C1321 C 0.64981 0.02853 0.76416 0.0
C1322 C 0.6349 1.00321 0.75114 0.0
C1323 C 0.62316 0.97895 0.7712 0.0
C1324 C 0.59079 0.96186 0.76993 0.0
C1325 C 0.63606 0.96003 0.76657 0.0
C1326 C 0.63305 0.99475 0.79751 0.0
C1327 C 0.64661 0.02336 0.79285 0.0
C1328 C 0.65343 0.04223 0.81376 0.0
C1329 C 0.64812 0.03182 0.83994 0.0
C1330 C 0.63899 1.00312 0.84581 0.0
C1331 C 0.63067 0.98424 0.82376 0.0
H1332 H 0.0176 0.68053 0.83135 0.0
H1333 H 0.02537 0.60681 0.84517 0.0
H1334 H 0.01588 0.59431 0.79763 0.0
H1335 H 0.96084 0.64894 0.78347 0.0
H1336 H 0.97411 0.68 0.76307 0.0
H1337 H 0.98177 0.6833 0.79799 0.0
H1338 H 0.03523 0.71211 0.78783 0.0
H1339 H 0.02772 0.70905 0.75289 0.0
H1340 H 0.05087 0.69759 0.76614 0.0
H1341 H 1.00509 0.58968 0.74739 0.0
H1342 H 0.9963 0.59444 0.7001 0.0
H1343 H 0.99498 0.67094 0.71795 0.0
C1344 C 0.01735 0.66177 0.82434 0.0
C1345 C 0.02228 0.64462 0.84234 0.0
C1346 C 0.0218 0.62035 0.83206 0.0
C1347 C 0.01629 0.61304 0.80497 0.0
C1348 C 0.01125 0.63016 0.78787 0.0
C1349 C 0.0119 0.65417 0.79718 0.0
C1350 C 1.00604 0.66912 0.77458 0.0
C1351 C 0.97909 0.67042 0.78011 0.0
C1352 C 0.03148 0.69873 0.7701 0.0
C1353 C 1.00193 0.64986 0.7511 0.0
C1354 C 1.00495 0.62744 0.75923 0.0
C1355 C 1.00249 0.60709 0.74105 0.0
C1356 C 0.99718 0.60979 0.71409 0.0
C1357 C 0.99408 0.63259 0.70501 0.0
C1358 C 0.99656 0.65287 0.7241 0.0
H1359 H 0.606 0.61196 0.34148 0.0
H1360 H 0.55322 0.64621 0.31638 0.0
H1361 H 0.55589 0.63265 0.27053 0.0
H1362 H 0.6533 0.64008 0.28777 0.0
H1363 H 0.65936 0.61076 0.28511 0.0
H1364 H 0.6498 0.61907 0.31652 0.0
H1365 H 0.60741 0.56828 0.31989 0.0
H1366 H 0.61678 0.55985 0.28837 0.0
H1367 H 0.58186 0.55457 0.29354 0.0
H1368 H 0.56721 0.61882 0.22663 0.0
H1369 H 0.58856 0.60891 0.18818 0.0
H1370 H 0.63758 0.58746 0.24074 0.0
C1371 C 0.59493 0.61681 0.32656 0.0
C1372 C 0.5793 0.63036 0.33316 0.0
C1373 C 0.56485 0.63544 0.31249 0.0
C1374 C 0.56639 0.62793 0.28615 0.0
C1375 C 0.5826 0.61542 0.28046 0.0
C1376 C 0.59674 0.61002 0.30008 0.0
C1377 C 0.61477 0.5987 0.28841 0.0
C1378 C 0.64616 0.61833 0.29483 0.0
C1379 C 0.60459 0.56855 0.29814 0.0
C1380 C 0.60905 0.59912 0.25904 0.0
C1381 C 0.59001 0.60837 0.255 0.0
C1382 C 0.58206 0.61151 0.22963 0.0
C1383 C 0.5944 0.60587 0.20787 0.0
C1384 C 0.6149 0.5975 0.21131 0.0
C1385 C 0.62174 0.59342 0.23737 0.0
H1386 H 0.4521 0.07391 0.24825 0.0
H1387 H 0.43373 0.00846 0.19047 0.0
H1388 H 0.41687 0.97307 0.22616 0.0
H1389 H 0.47538 0.04415 0.30117 0.0
H1390 H 0.45951 0.05432 0.32698 0.0
H1391 H 0.47184 0.07489 0.29704 0.0
H1392 H 0.42228 0.06882 0.28976 0.0
H1393 H 0.40977 0.04813 0.31957 0.0
H1394 H 0.39192 0.0339 0.28866 0.0
H1395 H 0.39816 0.94383 0.2679 0.0
H1396 H 0.38105 0.92373 0.31225 0.0
H1397 H 0.41374 0.00819 0.34356 0.0
C1398 C 0.44478 0.05219 0.24309 0.0
C1399 C 0.44463 0.04421 0.21637 0.0
C1400 C 0.43478 0.01542 0.2107 0.0
C1401 C 0.42489 0.99502 0.23088 0.0
C1402 C 0.42506 1.00354 0.25687 0.0
C1403 C 0.435 0.03148 0.26309 0.0
C1404 C 0.43231 0.03491 0.2926 0.0
C1405 C 0.4615 0.05315 0.30519 0.0
C1406 C 0.41291 0.04716 0.29795 0.0
C1407 C 0.41883 0.00451 0.30188 0.0
C1408 C 0.41481 0.98674 0.28097 0.0
C1409 C 0.4016 0.95764 0.2845 0.0
C1410 C 0.3921 0.94638 0.30996 0.0
C1411 C 0.3959 0.9641 0.33189 0.0
C1412 C 0.40991 0.99368 0.32751 0.0
H1413 H 0.04679 0.39052 0.32536 0.0
H1414 H 0.05575 0.47211 0.34185 0.0
H1415 H 0.02965 0.46875 0.30062 0.0
H1416 H 0.05596 0.39992 0.25405 0.0
H1417 H 0.03082 0.36356 0.2472 0.0
H1418 H 0.05048 0.37297 0.27766 0.0
H1419 H 1.00366 0.34779 0.30415 0.0
H1420 H 0.98385 0.33858 0.27379 0.0
H1421 H 0.97731 0.35785 0.29899 0.0
H1422 H 0.99942 0.45446 0.25824 0.0
H1423 H 0.97341 0.43346 0.21656 0.0
H1424 H 0.9862 0.36226 0.22745 0.0
C1425 C 0.04341 0.40778 0.32022 0.0
C1426 C 0.05327 0.43158 0.33691 0.0
C1427 C 0.04861 0.4538 0.32931 0.0
C1428 C 0.0336 0.45194 0.30601 0.0
C1429 C 0.02366 0.42788 0.29029 0.0
C1430 C 0.02884 0.40642 0.29693 0.0
C1431 C 0.01646 0.38302 0.27656 0.0
C1432 C 0.03982 0.37968 0.26306 0.0
C1433 C 0.99399 0.35517 0.28913 0.0
C1434 C 1.00327 0.39445 0.25746 0.0
C1435 C 0.00734 0.42021 0.26579 0.0
C1436 C 0.99636 0.4344 0.25152 0.0
C1437 C 0.98141 0.42223 0.22796 0.0
C1438 C 0.97783 0.39629 0.21866 0.0
C1439 C 0.98877 0.38224 0.23389 0.0
H1440 H 0.25872 0.87708 0.35981 0.0
H1441 H 0.23339 0.84836 0.44034 0.0
H1442 H 0.18579 0.81304 0.42464 0.0
H1443 H 0.18914 0.86791 0.33892 0.0
H1444 H 0.19186 0.8567 0.30607 0.0
H1445 H 0.22332 0.88075 0.32388 0.0
H1446 H 0.24277 0.8468 0.31741 0.0
H1447 H 0.2112 0.82242 0.29998 0.0
H1448 H 0.22223 0.81087 0.32866 0.0
H1449 H 0.14264 0.77718 0.39962 0.0
H1450 H 0.10456 0.74812 0.36803 0.0
H1451 H 0.15551 0.80165 0.30352 0.0
C1452 C 0.24281 0.8639 0.37413 0.0
C1453 C 0.24961 0.86573 0.40141 0.0
C1454 C 0.22846 0.84763 0.41949 0.0
C1455 C 0.20145 0.82734 0.41069 0.0
C1456 C 0.19556 0.82549 0.38365 0.0
C1457 C 0.2154 0.84372 0.36566 0.0
C1458 C 0.20347 0.83708 0.33767 0.0
C1459 C 0.20185 0.8621 0.32594 0.0
C1460 C 0.22097 0.8288 0.31989 0.0
C1461 C 0.1741 0.81203 0.34268 0.0
C1462 C 0.17017 0.80552 0.36935 0.0
C1463 C 0.14539 0.78238 0.37876 0.0
C1464 C 0.12392 0.76581 0.36063 0.0
C1465 C 0.12694 0.77251 0.3333 0.0
C1466 C 0.15248 0.79604 0.3243 0.0
H1467 H 0.26189 0.373 0.35603 0.0
H1468 H 0.21588 0.34454 0.28223 0.0
H1469 H 0.17842 0.35233 0.30035 0.0
H1470 H 0.2011 0.34063 0.39855 0.0
H1471 H 0.21448 0.36894 0.42223 0.0
H1472 H 0.23862 0.36255 0.40326 0.0
H1473 H 0.26386 0.41401 0.38626 0.0
H1474 H 0.24 0.42062 0.40542 0.0
H1475 H 0.24353 0.42744 0.37032 0.0
H1476 H 0.14515 0.36259 0.32669 0.0
H1477 H 0.12008 0.37666 0.35875 0.0
H1478 H 0.18591 0.39652 0.41637 0.0
C1479 C 0.24416 0.36889 0.34358 0.0
C1480 C 0.24198 0.35826 0.31756 0.0
C1481 C 0.21809 0.35266 0.30215 0.0
C1482 C 0.19663 0.35698 0.3123 0.0
C1483 C 0.19903 0.36682 0.33813 0.0
C1484 C 0.22223 0.37284 0.35357 0.0
C1485 C 0.21921 0.3827 0.38092 0.0
C1486 C 0.2183 0.3625 0.40251 0.0
C1487 C 0.24307 0.41299 0.38602 0.0
C1488 C 0.19082 0.38133 0.37837 0.0
C1489 C 0.17956 0.37216 0.35349 0.0
C1490 C 0.15381 0.36978 0.34623 0.0
C1491 C 0.13959 0.37764 0.36459 0.0
C1492 C 0.15102 0.38775 0.38996 0.0
C1493 C 0.17666 0.3889 0.39707 0.0
H1494 H 0.68654 0.90118 0.35435 0.0
H1495 H 0.62919 0.86662 0.28801 0.0
H1496 H 0.61437 0.81838 0.30375 0.0
H1497 H 0.70756 0.84837 0.35826 0.0
H1498 H 0.70755 0.84721 0.39391 0.0
H1499 H 0.71464 0.8791 0.37709 0.0
H1500 H 0.67394 0.87967 0.40273 0.0
H1501 H 0.66709 0.84809 0.41993 0.0
H1502 H 0.63915 0.84903 0.40196 0.0
H1503 H 0.60651 0.77359 0.32622 0.0
H1504 H 0.60048 0.73596 0.35711 0.0
H1505 H 0.66023 0.79871 0.41101 0.0
C1506 C 0.67082 0.88341 0.34319 0.0
C1507 C 0.65908 0.88775 0.3198 0.0
C1508 C 0.63837 0.86391 0.30597 0.0
C1509 C 0.63001 0.8364 0.31468 0.0
C1510 C 0.6422 0.83283 0.33758 0.0
C1511 C 0.66174 0.85569 0.35198 0.0
C1512 C 0.6702 0.84595 0.37685 0.0
C1513 C 0.70188 0.85575 0.3765 0.0
C1514 C 0.66211 0.8563 0.40185 0.0
C1515 C 0.65248 0.81406 0.37417 0.0
C1516 C 0.63686 0.80701 0.35109 0.0
C1517 C 0.6187 0.77895 0.34428 0.0
C1518 C 0.61562 0.75765 0.36183 0.0
C1519 C 0.63034 0.76421 0.3862 0.0
C1520 C 0.64937 0.79291 0.39219 0.0
H1521 H 0.7672 0.132 0.19411 0.0
H1522 H 0.81289 0.14391 0.26764 0.0
H1523 H 0.85162 0.18878 0.25056 0.0
H1524 H 0.82835 0.15886 0.15129 0.0
H1525 H 0.81564 0.17539 0.12863 0.0
H1526 H 0.79094 0.14454 0.1469 0.0
H1527 H 0.76714 0.17153 0.16557 0.0
H1528 H 0.79164 0.20238 0.14723 0.0
H1529 H 0.78833 0.20444 0.18253 0.0
H1530 H 0.88608 0.23368 0.22512 0.0
H1531 H 0.91134 0.27412 0.19431 0.0
H1532 H 0.8452 0.23123 0.13636 0.0
C1533 C 0.78535 0.14373 0.20671 0.0
C1534 C 0.78642 0.13389 0.23254 0.0
C1535 C 0.81077 0.15076 0.24812 0.0
C1536 C 0.83323 0.17633 0.23842 0.0
C1537 C 0.83151 0.18506 0.21287 0.0
C1538 C 0.80814 0.1692 0.19724 0.0
C1539 C 0.81147 0.18321 0.17043 0.0
C1540 C 0.81161 0.16437 0.14799 0.0
C1541 C 0.78826 0.19084 0.1662 0.0
C1542 C 0.84026 0.20947 0.17342 0.0
C1543 C 0.85151 0.21025 0.19808 0.0
C1544 C 0.87744 0.23311 0.20573 0.0
C1545 C 0.89178 0.25595 0.18807 0.0
C1546 C 0.88031 0.2559 0.16297 0.0
C1547 C 0.85456 0.23187 0.1554 0.0
H1548 H 0.75914 0.62439 0.19856 0.0
H1549 H 0.79204 0.66708 0.12368 0.0
H1550 H 0.8406 0.68502 0.13976 0.0
H1551 H 0.8167 0.67536 0.24211 0.0
H1552 H 0.81684 0.64817 0.26207 0.0
H1553 H 0.78465 0.64211 0.24651 0.0
H1554 H 0.77963 0.59754 0.2239 0.0
H1555 H 0.81183 0.60351 0.23925 0.0
H1556 H 0.80814 0.60032 0.20378 0.0
H1557 H 0.88539 0.69631 0.1625 0.0
H1558 H 0.92382 0.69835 0.18904 0.0
H1559 H 0.86338 0.64461 0.24856 0.0
C1560 C 0.77665 0.63817 0.1859 0.0
C1561 C 0.77167 0.64503 0.16005 0.0
C1562 C 0.79518 0.66228 0.14376 0.0
C1563 C 0.8229 0.67239 0.15269 0.0
C1564 C 0.82705 0.66473 0.17791 0.0
C1565 C 0.80464 0.64787 0.19429 0.0
C1566 C 0.81511 0.64057 0.21943 0.0
C1567 C 0.80789 0.65225 0.24399 0.0
C1568 C 0.80295 0.60858 0.22171 0.0
C1569 C 0.84687 0.65584 0.21451 0.0
C1570 C 0.85312 0.66988 0.19053 0.0
C1571 C 0.88069 0.68524 0.18122 0.0
C1572 C 0.90245 0.68602 0.19646 0.0
C1573 C 0.89691 0.67116 0.22082 0.0
C1574 C 0.86856 0.65623 0.23012 0.0
H1575 H 0.3568 0.24063 0.19255 0.0
H1576 H 0.39117 0.23785 0.26942 0.0
H1577 H 0.39934 0.20045 0.25323 0.0
H1578 H 0.3242 0.16742 0.17618 0.0
H1579 H 0.33464 0.17343 0.14186 0.0
H1580 H 0.32933 0.19883 0.15973 0.0
H1581 H 0.37995 0.2381 0.14773 0.0
H1582 H 0.38522 0.21291 0.12949 0.0
H1583 H 0.4094 0.23327 0.15544 0.0
H1584 H 0.40409 0.1627 0.22876 0.0
H1585 H 0.41067 0.13266 0.19638 0.0
H1586 H 0.37795 0.16265 0.13418 0.0
C1587 C 0.36637 0.23267 0.20616 0.0
C1588 C 0.3727 0.24255 0.23278 0.0
C1589 C 0.38499 0.2306 0.24936 0.0
C1590 C 0.39001 0.20924 0.24023 0.0
C1591 C 0.38322 0.2 0.21417 0.0
C1592 C 0.37218 0.21173 0.1972 0.0
C1593 C 0.36852 0.19928 0.16956 0.0
C1594 C 0.33731 0.18383 0.16135 0.0
C1595 C 0.38687 0.22226 0.14936 0.0
C1596 C 0.37918 0.17869 0.17366 0.0
C1597 C 0.38715 0.17917 0.1997 0.0
C1598 C 0.39787 0.16219 0.20836 0.0
C1599 C 0.40133 0.14498 0.18987 0.0
C1600 C 0.39438 0.1449 0.16288 0.0
C1601 C 0.38283 0.16179 0.15479 0.0
H1602 H 0.83091 0.1189 0.63955 0.0
H1603 H 0.7691 0.11667 0.69501 0.0
H1604 H 0.80714 0.15224 0.7224 0.0
H1605 H 0.88242 0.12732 0.68745 0.0
H1606 H 0.91265 0.15164 0.66819 0.0
H1607 H 0.88062 0.1266 0.65181 0.0
H1608 H 0.87943 0.16728 0.62691 0.0
H1609 H 0.91148 0.19244 0.64329 0.0
H1610 H 0.88041 0.19578 0.64549 0.0
H1611 H 0.85139 0.18451 0.74659 0.0
H1612 H 0.89941 0.21344 0.76453 0.0
H1613 H 0.93434 0.19975 0.69279 0.0
C1614 C 0.82538 0.12617 0.65725 0.0
C1615 C 0.79668 0.11422 0.66519 0.0
C1616 C 0.79068 0.12458 0.68865 0.0
C1617 C 0.81224 0.14511 0.70436 0.0
C1618 C 0.84012 0.15585 0.69643 0.0
C1619 C 0.84688 0.14706 0.6733 0.0
C1620 C 0.87887 0.16199 0.66991 0.0
C1621 C 0.88924 0.14061 0.6693 0.0
C1622 C 0.88809 0.18047 0.64491 0.0
C1623 C 0.8888 0.17998 0.69489 0.0
C1624 C 0.86597 0.17598 0.70987 0.0
C1625 C 0.86946 0.18841 0.73471 0.0
C1626 C 0.8969 0.20511 0.74467 0.0
C1627 C 0.92084 0.20989 0.72976 0.0
C1628 C 0.91656 0.19729 0.70432 0.0
H1629 H 0.90738 0.67497 0.69049 0.0
H1630 H 0.93078 0.73317 0.62466 0.0
H1631 H 0.89752 0.74817 0.64075 0.0
H1632 H 0.83405 0.65419 0.69402 0.0
H1633 H 0.83224 0.65347 0.72965 0.0
H1634 H 0.85754 0.64691 0.71302 0.0
H1635 H 0.89825 0.68714 0.73936 0.0
H1636 H 0.87302 0.69345 0.75641 0.0
H1637 H 0.90214 0.72178 0.73896 0.0
H1638 H 0.85948 0.75474 0.6626 0.0
H1639 H 0.82622 0.75907 0.69271 0.0
H1640 H 0.82976 0.69965 0.74685 0.0
C1641 C 0.90568 0.69111 0.67967 0.0
C1642 C 0.92177 0.70301 0.65629 0.0
C1643 C 0.91895 0.72402 0.64269 0.0
C1644 C 0.89988 0.73245 0.65158 0.0
C1645 C 0.88398 0.71998 0.6744 0.0
C1646 C 0.88718 0.70025 0.68865 0.0
C1647 C 0.86853 0.69119 0.71327 0.0
C1648 C 0.8468 0.65956 0.71243 0.0
C1649 C 0.88656 0.69885 0.7385 0.0
C1650 C 0.85421 0.70877 0.71061 0.0
C1651 C 0.86308 0.7248 0.68772 0.0
C1652 C 0.85261 0.74242 0.68062 0.0
C1653 C 0.83348 0.74455 0.69773 0.0
C1654 C 0.82521 0.72958 0.72202 0.0
C1655 C 0.83539 0.71105 0.72827 0.0
H1656 H 0.31933 0.13954 0.75449 0.0
H1657 H 0.28745 0.07603 0.69313 0.0
H1658 H 0.29351 0.11197 0.66014 0.0
H1659 H 0.28749 0.17819 0.73188 0.0
H1660 H 0.31686 0.21253 0.73934 0.0
H1661 H 0.31157 0.18232 0.75809 0.0
H1662 H 0.36207 0.19312 0.74634 0.0
H1663 H 0.36768 0.22362 0.72786 0.0
H1664 H 0.37278 0.19703 0.71211 0.0
H1665 H 0.2984 0.15394 0.63468 0.0
H1666 H 0.30688 0.19925 0.61734 0.0
H1667 H 0.34038 0.23768 0.69391 0.0
C1668 C 0.31431 0.13345 0.73397 0.0
C1669 C 0.30311 0.10495 0.72632 0.0
C1670 C 0.29626 0.09768 0.69939 0.0
C1671 C 0.29952 0.11798 0.68052 0.0
C1672 C 0.30999 0.14574 0.68872 0.0
C1673 C 0.31783 0.15366 0.7147 0.0
C1674 C 0.32847 0.18498 0.71816 0.0
C1675 C 0.30999 0.18978 0.73805 0.0
C1676 C 0.3596 0.20061 0.72662 0.0
C1677 C 0.32497 0.19329 0.69023 0.0
C1678 C 0.31405 0.17025 0.67367 0.0
C1679 C 0.3076 0.17227 0.64737 0.0
C1680 C 0.31282 0.19849 0.63758 0.0
C1681 C 0.32497 0.223 0.65374 0.0
C1682 C 0.33095 0.2199 0.68062 0.0
H1683 H 0.20494 0.93186 0.85964 0.0
H1684 H 0.21962 0.89908 0.78707 0.0
H1685 H 0.18977 0.85061 0.80373 0.0
H1686 H 0.1998 0.87644 0.9054 0.0
H1687 H 0.1712 0.87532 0.92413 0.0
H1688 H 0.19681 0.9076 0.90829 0.0
H1689 H 0.15666 0.91006 0.88373 0.0
H1690 H 0.13093 0.87774 0.89934 0.0
H1691 H 0.13231 0.88069 0.86377 0.0
H1692 H 0.15642 0.80575 0.82675 0.0
H1693 H 0.12037 0.7671 0.85349 0.0
H1694 H 0.12285 0.82734 0.9107 0.0
C1695 C 0.20245 0.91443 0.84764 0.0
C1696 C 0.21549 0.91942 0.82231 0.0
C1697 C 0.2108 0.89597 0.80681 0.0
C1698 C 0.19361 0.8683 0.81606 0.0
C1699 C 0.1807 0.86411 0.8408 0.0
C1700 C 0.18476 0.88647 0.8564 0.0
C1701 C 0.16633 0.87588 0.88119 0.0
C1702 C 0.18463 0.88432 0.90624 0.0
C1703 C 0.14531 0.88674 0.88205 0.0
C1704 C 0.15117 0.8441 0.87698 0.0
C1705 C 0.16012 0.83796 0.85362 0.0
C1706 C 0.14918 0.81036 0.845 0.0
C1707 C 0.12838 0.78846 0.86034 0.0
C1708 C 0.11803 0.79385 0.88415 0.0
C1709 C 0.1301 0.82227 0.89271 0.0
H1710 H 0.1018 0.27001 0.84585 0.0
H1711 H 0.13176 0.33519 0.78583 0.0
H1712 H 0.18031 0.35577 0.80365 0.0
H1713 H 0.14802 0.31248 0.89897 0.0
H1714 H 0.15351 0.2848 0.91148 0.0
H1715 H 0.12112 0.27616 0.89476 0.0
H1716 H 0.12949 0.24494 0.86184 0.0
H1717 H 0.16201 0.25362 0.87834 0.0
H1718 H 0.16202 0.25995 0.84332 0.0
H1719 H 0.22574 0.369 0.8279 0.0
H1720 H 0.26454 0.37441 0.85675 0.0
H1721 H 0.2062 0.29911 0.89994 0.0
C1722 C 0.11864 0.28866 0.83651 0.0
C1723 C 0.11304 0.30097 0.81428 0.0
C1724 C 0.13556 0.32546 0.80279 0.0
C1725 C 0.1632 0.33719 0.81275 0.0
C1726 C 0.16813 0.32413 0.83422 0.0
C1727 C 0.14646 0.30039 0.84598 0.0
C1728 C 0.15757 0.29008 0.86844 0.0
C1729 C 0.14426 0.29094 0.89498 0.0
C1730 C 0.15247 0.26038 0.86263 0.0
C1731 C 0.1889 0.31181 0.86761 0.0
C1732 C 0.19443 0.3313 0.84774 0.0
C1733 C 0.22159 0.35379 0.84341 0.0
C1734 C 0.24353 0.35668 0.8599 0.0
C1735 C 0.23853 0.33714 0.88051 0.0
C1736 C 0.21079 0.31417 0.88415 0.0
H1737 H 0.73756 0.84362 0.80507 0.0
H1738 H 0.71697 0.77833 0.86349 0.0
H1739 H 0.70109 0.80283 0.89445 0.0
H1740 H 0.76741 0.90022 0.85053 0.0
H1741 H 0.75495 0.92092 0.83373 0.0
H1742 H 0.76141 0.8966 0.81532 0.0
H1743 H 0.71018 0.87183 0.7976 0.0
H1744 H 0.70363 0.89624 0.81576 0.0
H1745 H 0.68116 0.85889 0.82067 0.0
H1746 H 0.68957 0.83652 0.91986 0.0
H1747 H 0.68245 0.87463 0.93679 0.0
H1748 H 0.71519 0.92019 0.86286 0.0
C1749 C 0.72924 0.83425 0.82424 0.0
C1750 C 0.72846 0.80902 0.83191 0.0
C1751 C 0.71759 0.79751 0.85718 0.0
C1752 C 0.7087 0.81141 0.87491 0.0
C1753 C 0.7109 0.83693 0.86715 0.0
C1754 C 0.72085 0.84816 0.84232 0.0
C1755 C 0.72277 0.87662 0.83927 0.0
C1756 C 0.75346 0.89997 0.83443 0.0
C1757 C 0.70327 0.87584 0.817 0.0
C1758 C 0.7123 0.87975 0.8662 0.0
C1759 C 0.70538 0.8566 0.88198 0.0
C1760 C 0.69506 0.85476 0.90762 0.0
C1761 C 0.69139 0.87685 0.91722 0.0
C1762 C 0.69824 0.90094 0.90145 0.0
C1763 C 0.70917 0.9022 0.8756 0.0
H1764 H 0.47114 0.48658 0.57617 0.0
H1765 H 0.41419 0.43827 0.51274 0.0
H1766 H 0.44404 0.47578 0.48086 0.0
H1767 H 0.48407 0.55457 0.55231 0.0
H1768 H 0.52045 0.5731 0.56263 0.0
H1769 H 0.49519 0.54196 0.58016 0.0
H1770 H 0.52659 0.51972 0.57217 0.0
H1771 H 0.55171 0.55064 0.55423 0.0
H1772 H 0.53641 0.51651 0.53883 0.0
H1773 H 0.48066 0.51842 0.45541 0.0
H1774 H 0.51712 0.56551 0.43959 0.0
H1775 H 0.5495 0.58811 0.51932 0.0
C1776 C 0.46496 0.48395 0.55556 0.0
C1777 C 0.44016 0.45932 0.54702 0.0
C1778 C 0.4328 0.45692 0.51988 0.0
C1779 C 0.44983 0.47806 0.50155 0.0
C1780 C 0.4742 0.50188 0.51053 0.0
C1781 C 0.4815 0.50521 0.53699 0.0
C1782 C 0.50792 0.53367 0.54161 0.0
C1783 C 0.50152 0.5519 0.56028 0.0
C1784 C 0.53209 0.5299 0.55235 0.0
C1785 C 0.51438 0.54579 0.51366 0.0
C1786 C 0.49485 0.52685 0.49599 0.0
C1787 C 0.49606 0.53331 0.46911 0.0
C1788 C 0.51705 0.56002 0.4602 0.0
C1789 C 0.53662 0.58029 0.478 0.0
C1790 C 0.53542 0.5728 0.50508 0.0
H1791 H 0.53671 0.96329 0.56776 0.0
H1792 H 0.59656 0.03544 0.5217 0.0
H1793 H 0.55813 0.03026 0.49257 0.0
H1794 H 0.49179 0.92273 0.51197 0.0
H1795 H 0.45944 0.90927 0.53056 0.0
H1796 H 0.49182 0.9178 0.54726 0.0
H1797 H 0.48473 0.95098 0.57875 0.0
H1798 H 0.45248 0.94274 0.56196 0.0
H1799 H 0.48027 0.97885 0.56501 0.0
H1800 H 0.51295 0.01797 0.46842 0.0
H1801 H 0.46455 0.99799 0.45038 0.0
H1802 H 0.43295 0.9349 0.5124 0.0
C1803 C 0.54172 0.97769 0.5513 0.0
C1804 C 0.56982 0.9998 0.54707 0.0
C1805 C 0.5753 0.01843 0.52547 0.0
C1806 C 0.55356 0.01567 0.50877 0.0
C1807 C 0.52607 0.99416 0.51376 0.0
C1808 C 0.52002 0.97537 0.53442 0.0
C1809 C 0.48845 0.95447 0.53555 0.0
C1810 C 0.48253 0.92428 0.53107 0.0
C1811 C 0.47574 0.95691 0.56189 0.0
C1812 C 0.47783 0.96448 0.51243 0.0
C1813 C 0.49993 0.98738 0.50009 0.0
C1814 C 0.4955 1.00004 0.47798 0.0
C1815 C 0.46793 0.98869 0.46791 0.0
C1816 C 0.44498 0.96494 0.47989 0.0
C1817 C 0.45009 0.95309 0.50279 0.0
H1818 H 0.08234 0.49065 0.52006 0.0
H1819 H 0.01899 0.45979 0.45842 0.0
H1820 H 0.99805 0.48664 0.47802 0.0
H1821 H 0.03784 0.49281 0.57418 0.0
H1822 H 0.06598 0.52508 0.58767 0.0
H1823 H 0.07396 0.50104 0.57063 0.0
H1824 H 0.10731 0.54105 0.53887 0.0
H1825 H 0.09939 0.56519 0.55572 0.0
H1826 H 0.09395 0.56009 0.52052 0.0
H1827 H 0.98643 0.51978 0.50209 0.0
H1828 H 0.98451 0.55648 0.52853 0.0
H1829 H 0.05623 0.56776 0.5746 0.0
C1830 C 0.06375 0.48922 0.51099 0.0
C1831 C 0.0522 0.47306 0.48766 0.0
C1832 C 0.02803 0.47185 0.4763 0.0
C1833 C 0.01609 0.48711 0.48729 0.0
C1834 C 0.02851 0.50354 0.50977 0.0
C1835 C 0.05177 0.50463 0.52158 0.0
C1836 C 0.06213 0.52536 0.54458 0.0
C1837 C 0.05983 0.51016 0.57082 0.0
C1838 C 0.09249 0.54934 0.53962 0.0
C1839 C 0.04129 0.53607 0.54371 0.0
C1840 C 0.022 0.52299 0.52353 0.0
C1841 C 1.00134 0.52998 0.51799 0.0
C1842 C 1.0005 0.55101 0.53312 0.0
C1843 C 0.02022 0.56519 0.55369 0.0
C1844 C 0.04065 0.55718 0.55927 0.0
H1845 H 0.49903 0.45362 0.97591 0.0
H1846 H 0.43502 0.45832 1.02267 0.0
H1847 H 0.47204 0.49585 0.04988 0.0
H1848 H 0.54459 0.46276 0.03026 0.0
H1849 H 0.57697 0.48374 1.01225 0.0
H1850 H 0.54566 0.45867 0.99495 0.0
H1851 H 0.55007 0.49824 0.96385 0.0
H1852 H 0.5814 0.52344 0.98113 0.0
H1853 H 0.55198 0.52936 0.97786 0.0
H1854 H 0.51579 0.53134 0.07392 0.0
H1855 H 0.56318 0.56076 0.09369 0.0
H1856 H 0.59968 0.534 0.03212 0.0
C1857 C 0.49291 0.46288 0.99163 0.0
C1858 C 0.46398 0.45289 0.9971 0.0
C1859 C 0.45692 0.46536 1.01816 0.0
C1860 C 0.47785 0.48685 0.03369 0.0
C1861 C 0.50606 0.49593 0.02815 0.0
C1862 C 0.5137 0.48435 1.00766 0.0
C1863 C 0.54562 0.49703 1.00698 0.0
C1864 C 0.55367 0.47419 1.01137 0.0
C1865 C 0.55799 0.51297 0.9809 0.0
C1866 C 0.55456 0.51722 0.03034 0.0
C1867 C 0.53138 0.51638 0.04215 0.0
C1868 C 0.53411 0.53231 0.06469 0.0
C1869 C 0.56109 0.54906 0.07577 0.0
C1870 C 0.58505 0.54975 0.06445 0.0
C1871 C 0.58171 0.53402 0.04108 0.0
H1872 H 0.59296 0.03858 1.02189 0.0
H1873 H 0.54542 0.00727 0.94919 0.0
H1874 H 0.50878 0.01663 0.96675 0.0
H1875 H 0.53308 0.00884 0.0654 0.0
H1876 H 0.54719 0.03815 0.08798 0.0
H1877 H 0.57072 0.03061 0.06936 0.0
H1878 H 0.59612 0.0813 0.05041 0.0
H1879 H 0.57285 0.08908 0.06921 0.0
H1880 H 0.57578 0.09437 0.03388 0.0
H1881 H 0.4764 0.02863 0.99254 0.0
H1882 H 0.45217 0.04422 1.02404 0.0
H1883 H 0.51891 0.06575 0.08104 0.0
C1884 C 0.57508 0.0342 1.00954 0.0
C1885 C 0.57224 0.02234 0.984 0.0
C1886 C 0.54815 0.01638 0.96873 0.0
C1887 C 0.52716 0.02159 0.97858 0.0
C1888 C 0.5302 0.03265 1.00397 0.0
C1889 C 0.55361 0.03902 1.01925 0.0
C1890 C 0.55126 0.05015 0.04617 0.0
C1891 C 0.55052 0.03078 0.06855 0.0
C1892 C 0.57544 0.08053 0.05014 0.0
C1893 C 0.52299 0.04903 0.04359 0.0
C1894 C 0.51123 0.03894 1.01904 0.0
C1895 C 0.48546 0.03654 1.01183 0.0
C1896 C 0.47171 0.04528 0.02987 0.0
C1897 C 0.48361 0.05627 0.05491 0.0
C1898 C 0.5093 0.05748 0.06199 0.0
H1899 H 0.02704 0.5721 1.02162 0.0
H1900 H 0.96809 0.53588 0.95659 0.0
H1901 H 0.95232 0.48816 0.97416 0.0
H1902 H 0.0457 0.51721 0.02764 0.0
H1903 H 0.04652 0.5178 0.0633 0.0
H1904 H 0.05449 0.54921 0.04508 0.0
H1905 H 0.01547 0.55286 0.07072 0.0
H1906 H 0.00758 0.52164 0.08916 0.0
H1907 H 0.98004 0.52321 0.07109 0.0
H1908 H 0.94321 0.44421 0.99827 0.0
H1909 H 0.93695 0.40736 0.02999 0.0
H1910 H 0.99913 0.47083 0.08186 0.0
C1911 C 0.0109 0.55406 1.01106 0.0
C1912 C 0.9989 0.55778 0.98754 0.0
C1913 C 0.97754 0.53364 0.97457 0.0
C1914 C 0.96857 0.50641 0.98436 0.0
C1915 C 0.98082 0.50343 1.00746 0.0
C1916 C 1.00122 0.52659 1.02093 0.0
C1917 C 0.00959 0.5174 0.04623 0.0
C1918 C 0.04094 0.52592 0.04551 0.0
C1919 C 1.00276 0.5295 0.07075 0.0
C1920 C 0.99074 0.4855 0.04487 0.0
C1921 C 0.97468 0.47799 1.02205 0.0
C1922 C 0.95566 0.4499 1.01619 0.0
C1923 C 0.95236 0.42901 0.0343 0.0
C1924 C 0.96768 0.43603 0.05835 0.0
C1925 C 0.98742 0.46474 0.0635 0.0
loop_
_geom_bond_atom_site_label_1
_geom_bond_atom_site_label_2
_geom_bond_distance
_geom_bond_site_symmetry_2
_ccdc_geom_bond_type
C0 C1 1.445 1_655 S
C0 N4 1.376 1_655 S
C0 C38 1.389 . S
C1 C0 1.445 1_455 S
C1 C2 1.339 . S
C1 H41 0.951 1_455 S
C2 C1 1.339 . S
C2 C3 1.439 . S
C2 H42 0.950 . S
C3 C2 1.439 . S
C3 N4 1.374 . S
C3 C37 1.395 . S
N4 C0 1.376 1_455 S
N4 C3 1.374 . S
N4 Co5 2.008 . S
Co5 N4 2.008 . S
Co5 N6 1.995 . S
Co5 N11 2.008 . S
Co5 N16 1.995 1_455 S
Co5 N21 2.282 1_455 S
Co5 N27 2.282 . S
N6 Co5 1.995 . S
N6 C7 1.376 . S
N6 C10 1.383 . S
C7 N6 1.376 . S
C7 C8 1.446 . S
C7 C37 1.391 . S
C8 C7 1.446 . S
C8 C9 1.339 . S
C8 H43 0.949 . S
C9 C8 1.339 . S
C9 C10 1.439 . S
C9 H44 0.950 . S
C10 N6 1.383 . S
C10 C9 1.439 . S
C10 C39 1.392 . S
N11 Co5 2.008 . S
N11 C12 1.376 . S
N11 C15 1.374 . S
C12 N11 1.376 . S
C12 C13 1.443 . S
C12 C39 1.389 . S
C13 C12 1.443 . S
C13 C14 1.340 . S
C13 H45 0.951 . S
C14 C13 1.340 . S
C14 C15 1.439 . S
C14 H46 0.950 . S
C15 N11 1.374 . S
C15 C14 1.439 . S
C15 C40 1.395 . S
N16 Co5 1.995 1_655 S
N16 C17 1.376 . S
N16 C20 1.383 . S
C17 N16 1.376 . S
C17 C18 1.446 . S
C17 C40 1.383 1_655 S
C18 C17 1.446 . S
C18 C19 1.339 . S
C18 H47 0.949 . S
C19 C18 1.339 . S
C19 C20 1.439 . S
C19 H48 0.950 . S
C20 N16 1.383 . S
C20 C19 1.439 . S
C20 C38 1.392 . S
N21 Co5 2.282 1_655 S
N21 C24 1.332 . S
N21 C26 1.332 . S
C22 C23 1.386 . S
C22 C25 1.388 . S
C23 C22 1.386 . S
C23 C24 1.382 . S
C23 H49 0.950 . S
C24 N21 1.332 . S
C24 C23 1.382 . S
C24 H35 0.952 . S
C25 C22 1.388 . S
C25 C26 1.382 . S
C25 H50 0.950 . S
C26 N21 1.332 . S
C26 C25 1.382 . S
C26 H36 0.948 . S
N27 Co5 2.282 . S
N27 C31 1.332 . S
N27 C32 1.332 . S
C28 C29 1.388 . S
C28 C32 1.382 . S
C28 H51 0.950 . S
C29 C28 1.388 . S
C29 C30 1.386 . S
C30 C29 1.386 . S
C30 C31 1.382 . S
C30 H52 0.950 . S
C31 N27 1.332 . S
C31 C30 1.382 . S
C31 H33 0.952 . S
C32 N27 1.332 . S
C32 C28 1.382 . S
C32 H34 0.948 . S
H33 C31 0.952 . S
H34 C32 0.948 . S
H35 C24 0.952 . S
H36 C26 0.948 . S
C37 C3 1.395 . S
C37 C7 1.391 . S
C38 C0 1.389 . S
C38 C20 1.392 . S
C39 C10 1.392 . S
C39 C12 1.389 . S
C40 C15 1.395 . S
C40 C17 1.383 1_455 S
H41 C1 0.951 1_655 S
H42 C2 0.950 . S
H43 C8 0.949 . S
H44 C9 0.950 . S
H45 C13 0.951 . S
H46 C14 0.950 . S
H47 C18 0.949 . S
H48 C19 0.950 . S
H49 C23 0.950 . S
H50 C25 0.950 . S
H51 C28 0.950 . S
H52 C30 0.950 . S
C53 C54 1.443 . S
C53 N57 1.376 . S
C53 C91 1.389 . S
C54 C53 1.443 . S
C54 C55 1.340 . S
C54 H94 0.951 . S
C55 C54 1.340 . S
C55 C56 1.439 . S
C55 H95 0.950 . S
C56 C55 1.439 . S
C56 N57 1.374 . S
C56 C90 1.395 . S
N57 C53 1.376 . S
N57 C56 1.374 . S
N57 Co58 2.008 . S
Co58 N57 2.008 . S
Co58 N59 1.995 . S
Co58 N64 2.008 . S
Co58 N69 1.995 . S
Co58 N74 2.282 . S
Co58 N80 2.282 . S
N59 Co58 1.995 . S
N59 C60 1.376 . S
N59 C63 1.383 . S
C60 N59 1.376 . S
C60 C61 1.446 . S
C60 C90 1.391 . S
C61 C60 1.446 . S
C61 C62 1.339 . S
C61 H96 0.949 . S
C62 C61 1.339 . S
C62 C63 1.439 . S
C62 H97 0.950 . S
C63 N59 1.383 . S
C63 C62 1.439 . S
C63 C92 1.392 . S
N64 Co58 2.008 . S
N64 C65 1.376 . S
N64 C68 1.374 . S
C65 N64 1.376 . S
C65 C66 1.443 . S
C65 C92 1.389 . S
C66 C65 1.443 . S
C66 C67 1.340 . S
C66 H98 0.951 . S
C67 C66 1.340 . S
C67 C68 1.439 . S
C67 H99 0.950 . S
C68 N64 1.374 . S
C68 C67 1.439 . S
C68 C93 1.395 . S
N69 Co58 1.995 . S
N69 C70 1.376 . S
N69 C73 1.383 . S
C70 N69 1.376 . S
C70 C71 1.446 . S
C70 C93 1.391 . S
C71 C70 1.446 . S
C71 C72 1.339 . S
C71 H100 0.949 . S
C72 C71 1.339 . S
C72 C73 1.439 . S
C72 H101 0.950 . S
C73 N69 1.383 . S
C73 C72 1.439 . S
C73 C91 1.392 . S
N74 Co58 2.282 . S
N74 C77 1.332 . S
N74 C79 1.332 . S
C75 C76 1.386 . S
C75 C78 1.388 . S
C76 C75 1.386 . S
C76 C77 1.382 . S
C76 H102 0.950 . S
C77 N74 1.332 . S
C77 C76 1.382 . S
C77 H88 0.952 . S
C78 C75 1.388 . S
C78 C79 1.382 . S
C78 H103 0.950 . S
C79 N74 1.332 . S
C79 C78 1.382 . S
C79 H89 0.948 . S
N80 Co58 2.282 . S
N80 C84 1.332 . S
N80 C85 1.332 . S
C81 C82 1.388 . S
C81 C85 1.382 . S
C81 H104 0.950 . S
C82 C81 1.388 . S
C82 C83 1.386 . S
C83 C82 1.386 . S
C83 C84 1.382 . S
C83 H105 0.950 . S
C84 N80 1.332 . S
C84 C83 1.382 . S
C84 H86 0.952 . S
C85 N80 1.332 . S
C85 C81 1.382 . S
C85 H87 0.948 . S
H86 C84 0.952 . S
H87 C85 0.948 . S
H88 C77 0.952 . S
H89 C79 0.948 . S
C90 C56 1.395 . S
C90 C60 1.391 . S
C91 C53 1.389 . S
C91 C73 1.392 . S
C92 C63 1.392 . S
C92 C65 1.389 . S
C93 C68 1.395 . S
C93 C70 1.391 . S
H94 C54 0.951 . S
H95 C55 0.950 . S
H96 C61 0.949 . S
H97 C62 0.950 . S
H98 C66 0.951 . S
H99 C67 0.950 . S
H100 C71 0.949 . S
H101 C72 0.950 . S
H102 C76 0.950 . S
H103 C78 0.950 . S
H104 C81 0.950 . S
H105 C83 0.950 . S
C106 C107 1.445 1_565 S
C106 N110 1.376 1_565 S
C106 C144 1.389 . S
C107 C106 1.445 1_545 S
C107 C108 1.339 . S
C107 H147 0.951 1_545 S
C108 C107 1.339 . S
C108 C109 1.439 . S
C108 H148 0.950 . S
C109 C108 1.439 . S
C109 N110 1.374 . S
C109 C143 1.395 . S
N110 C106 1.376 1_545 S
N110 C109 1.374 . S
N110 Co111 2.008 . S
Co111 N110 2.008 . S
Co111 N112 1.995 . S
Co111 N117 2.008 . S
Co111 N122 1.995 1_545 S
Co111 N127 2.282 1_545 S
Co111 N133 2.282 . S
N112 Co111 1.995 . S
N112 C113 1.376 . S
N112 C116 1.383 . S
C113 N112 1.376 . S
C113 C114 1.446 . S
C113 C143 1.391 . S
C114 C113 1.446 . S
C114 C115 1.339 . S
C114 H149 0.949 . S
C115 C114 1.339 . S
C115 C116 1.439 . S
C115 H150 0.950 . S
C116 N112 1.383 . S
C116 C115 1.439 . S
C116 C145 1.392 . S
N117 Co111 2.008 . S
N117 C118 1.376 . S
N117 C121 1.374 . S
C118 N117 1.376 . S
C118 C119 1.443 . S
C118 C145 1.389 . S
C119 C118 1.443 . S
C119 C120 1.340 . S
C119 H151 0.951 . S
C120 C119 1.340 . S
C120 C121 1.439 . S
C120 H152 0.950 . S
C121 N117 1.374 . S
C121 C120 1.439 . S
C121 C146 1.395 . S
N122 Co111 1.995 1_565 S
N122 C123 1.376 . S
N122 C126 1.383 . S
C123 N122 1.376 . S
C123 C124 1.446 . S
C123 C146 1.383 1_565 S
C124 C123 1.446 . S
C124 C125 1.339 . S
C124 H153 0.949 . S
C125 C124 1.339 . S
C125 C126 1.439 . S
C125 H154 0.950 . S
C126 N122 1.383 . S
C126 C125 1.439 . S
C126 C144 1.392 . S
N127 Co111 2.282 1_565 S
N127 C130 1.332 . S
N127 C132 1.332 . S
C128 C129 1.386 . S
C128 C131 1.388 . S
C129 C128 1.386 . S
C129 C130 1.382 . S
C129 H155 0.950 . S
C130 N127 1.332 . S
C130 C129 1.382 . S
C130 H141 0.952 . S
C131 C128 1.388 . S
C131 C132 1.382 . S
C131 H156 0.950 . S
C132 N127 1.332 . S
C132 C131 1.382 . S
C132 H142 0.948 . S
N133 Co111 2.282 . S
N133 C137 1.332 . S
N133 C138 1.332 . S
C134 C135 1.388 . S
C134 C138 1.382 . S
C134 H157 0.950 . S
C135 C134 1.388 . S
C135 C136 1.386 . S
C136 C135 1.386 . S
C136 C137 1.382 . S
C136 H158 0.950 . S
C137 N133 1.332 . S
C137 C136 1.382 . S
C137 H139 0.952 . S
C138 N133 1.332 . S
C138 C134 1.382 . S
C138 H140 0.948 . S
H139 C137 0.952 . S
H140 C138 0.948 . S
H141 C130 0.952 . S
H142 C132 0.948 . S
C143 C109 1.395 . S
C143 C113 1.391 . S
C144 C106 1.389 . S
C144 C126 1.392 . S
C145 C116 1.392 . S
C145 C118 1.389 . S
C146 C121 1.395 . S
C146 C123 1.383 1_545 S
H147 C107 0.951 1_565 S
H148 C108 0.950 . S
H149 C114 0.949 . S
H150 C115 0.950 . S
H151 C119 0.951 . S
H152 C120 0.950 . S
H153 C124 0.949 . S
H154 C125 0.950 . S
H155 C129 0.950 . S
H156 C131 0.950 . S
H157 C134 0.950 . S
H158 C136 0.950 . S
C159 C160 1.443 . S
C159 N163 1.376 . S
C159 C197 1.389 . S
C160 C159 1.443 . S
C160 C161 1.340 . S
C160 H200 0.951 . S
C161 C160 1.340 . S
C161 C162 1.439 . S
C161 H201 0.950 . S
C162 C161 1.439 . S
C162 N163 1.374 . S
C162 C196 1.395 1_655 S
N163 C159 1.376 . S
N163 C162 1.374 . S
N163 Co164 2.008 1_655 S
Co164 N163 2.008 1_455 S
Co164 N165 1.995 . S
Co164 N170 2.008 . S
Co164 N175 1.995 1_455 S
Co164 N180 2.282 1_455 S
Co164 N186 2.282 . S
N165 Co164 1.995 . S
N165 C166 1.376 . S
N165 C169 1.383 . S
C166 N165 1.376 . S
C166 C167 1.446 . S
C166 C196 1.391 . S
C167 C166 1.446 . S
C167 C168 1.339 . S
C167 H202 0.949 . S
C168 C167 1.339 . S
C168 C169 1.439 . S
C168 H203 0.950 . S
C169 N165 1.383 . S
C169 C168 1.439 . S
C169 C198 1.392 . S
N170 Co164 2.008 . S
N170 C171 1.376 . S
N170 C174 1.374 . S
C171 N170 1.376 . S
C171 C172 1.443 . S
C171 C198 1.389 . S
C172 C171 1.443 . S
C172 C173 1.340 . S
C172 H204 0.951 . S
C173 C172 1.340 . S
C173 C174 1.439 . S
C173 H205 0.950 . S
C174 N170 1.374 . S
C174 C173 1.439 . S
C174 C199 1.395 . S
N175 Co164 1.995 1_655 S
N175 C176 1.376 . S
N175 C179 1.383 . S
C176 N175 1.376 . S
C176 C177 1.446 . S
C176 C199 1.391 1_655 S
C177 C176 1.446 . S
C177 C178 1.339 . S
C177 H206 0.949 . S
C178 C177 1.339 . S
C178 C179 1.439 . S
C178 H207 0.950 . S
C179 N175 1.383 . S
C179 C178 1.439 . S
C179 C197 1.392 . S
N180 Co164 2.282 1_655 S
N180 C183 1.332 . S
N180 C185 1.332 . S
C181 C182 1.386 . S
C181 C184 1.388 . S
C182 C181 1.386 . S
C182 C183 1.382 . S
C182 H208 0.950 . S
C183 N180 1.332 . S
C183 C182 1.382 . S
C183 H194 0.952 . S
C184 C181 1.388 . S
C184 C185 1.382 . S
C184 H209 0.950 . S
C185 N180 1.332 . S
C185 C184 1.382 . S
C185 H195 0.948 1_655 S
N186 Co164 2.282 . S
N186 C190 1.332 . S
N186 C191 1.332 . S
C187 C188 1.388 . S
C187 C191 1.382 . S
C187 H210 0.950 . S
C188 C187 1.388 . S
C188 C189 1.386 . S
C189 C188 1.386 . S
C189 C190 1.382 . S
C189 H211 0.950 . S
C190 N186 1.332 . S
C190 C189 1.382 . S
C190 H192 0.952 . S
C191 N186 1.332 . S
C191 C187 1.382 . S
C191 H193 0.948 . S
H192 C190 0.952 . S
H193 C191 0.948 . S
H194 C183 0.952 . S
H195 C185 0.948 1_455 S
C196 C162 1.395 1_455 S
C196 C166 1.391 . S
C197 C159 1.389 . S
C197 C179 1.392 . S
C198 C169 1.392 . S
C198 C171 1.389 . S
C199 C174 1.395 . S
C199 C176 1.391 1_455 S
H200 C160 0.951 . S
H201 C161 0.950 . S
H202 C167 0.949 . S
H203 C168 0.950 . S
H204 C172 0.951 . S
H205 C173 0.950 . S
H206 C177 0.949 . S
H207 C178 0.950 . S
H208 C182 0.950 . S
H209 C184 0.950 . S
H210 C187 0.950 . S
H211 C189 0.950 . S
C212 C213 1.443 . S
C212 N216 1.376 . S
C212 C250 1.389 . S
C213 C212 1.443 . S
C213 C214 1.340 . S
C213 H253 0.951 . S
C214 C213 1.340 . S
C214 C215 1.439 . S
C214 H254 0.950 . S
C215 C214 1.439 . S
C215 N216 1.374 . S
C215 C249 1.395 . S
N216 C212 1.376 . S
N216 C215 1.374 . S
N216 Co217 2.008 . S
Co217 N216 2.008 . S
Co217 N218 1.995 . S
Co217 N223 2.008 . S
Co217 N228 1.995 . S
Co217 N233 2.282 . S
Co217 N239 2.282 . S
N218 Co217 1.995 . S
N218 C219 1.376 . S
N218 C222 1.383 . S
C219 N218 1.376 . S
C219 C220 1.446 . S
C219 C249 1.391 . S
C220 C219 1.446 . S
C220 C221 1.339 . S
C220 H255 0.949 . S
C221 C220 1.339 . S
C221 C222 1.439 . S
C221 H256 0.950 . S
C222 N218 1.383 . S
C222 C221 1.439 . S
C222 C251 1.392 . S
N223 Co217 2.008 . S
N223 C224 1.376 . S
N223 C227 1.374 . S
C224 N223 1.376 . S
C224 C225 1.443 . S
C224 C251 1.389 . S
C225 C224 1.443 . S
C225 C226 1.340 . S
C225 H257 0.951 . S
C226 C225 1.340 . S
C226 C227 1.439 . S
C226 H258 0.950 . S
C227 N223 1.374 . S
C227 C226 1.439 . S
C227 C252 1.395 . S
N228 Co217 1.995 . S
N228 C229 1.376 . S
N228 C232 1.383 . S
C229 N228 1.376 . S
C229 C230 1.446 . S
C229 C252 1.391 . S
C230 C229 1.446 . S
C230 C231 1.339 . S
C230 H259 0.949 . S
C231 C230 1.339 . S
C231 C232 1.439 . S
C231 H260 0.950 . S
C232 N228 1.383 . S
C232 C231 1.439 . S
C232 C250 1.392 . S
N233 Co217 2.282 . S
N233 C236 1.332 . S
N233 C238 1.332 . S
C234 C235 1.386 . S
C234 C237 1.388 . S
C235 C234 1.386 . S
C235 C236 1.382 . S
C235 H261 0.950 . S
C236 N233 1.332 . S
C236 C235 1.382 . S
C236 H247 0.952 . S
C237 C234 1.388 . S
C237 C238 1.382 . S
C237 H262 0.950 . S
C238 N233 1.332 . S
C238 C237 1.382 . S
C238 H248 0.948 . S
N239 Co217 2.282 . S
N239 C243 1.332 . S
N239 C244 1.332 . S
C240 C241 1.388 . S
C240 C244 1.382 . S
C240 H263 0.950 . S
C241 C240 1.388 . S
C241 C242 1.386 . S
C242 C241 1.386 . S
C242 C243 1.382 . S
C242 H264 0.950 . S
C243 N239 1.332 . S
C243 C242 1.382 . S
C243 H245 0.952 . S
C244 N239 1.332 . S
C244 C240 1.382 . S
C244 H246 0.948 . S
H245 C243 0.952 . S
H246 C244 0.948 . S
H247 C236 0.952 . S
H248 C238 0.948 . S
C249 C215 1.395 . S
C249 C219 1.391 . S
C250 C212 1.389 . S
C250 C232 1.392 . S
C251 C222 1.392 . S
C251 C224 1.389 . S
C252 C227 1.395 . S
C252 C229 1.391 . S
H253 C213 0.951 . S
H254 C214 0.950 . S
H255 C220 0.949 . S
H256 C221 0.950 . S
H257 C225 0.951 . S
H258 C226 0.950 . S
H259 C230 0.949 . S
H260 C231 0.950 . S
H261 C235 0.950 . S
H262 C237 0.950 . S
H263 C240 0.950 . S
H264 C242 0.950 . S
C265 C266 1.443 . S
C265 N269 1.376 . S
C265 C303 1.389 . S
C266 C265 1.443 . S
C266 C267 1.340 . S
C266 H306 0.951 . S
C267 C266 1.340 . S
C267 C268 1.439 . S
C267 H307 0.950 . S
C268 C267 1.439 . S
C268 N269 1.374 . S
C268 C302 1.395 1_565 S
N269 C265 1.376 . S
N269 C268 1.374 . S
N269 Co270 2.008 1_565 S
Co270 N269 2.008 1_545 S
Co270 N271 1.995 . S
Co270 N276 2.008 . S
Co270 N281 1.995 1_545 S
Co270 N286 2.282 1_545 S
Co270 N292 2.282 . S
N271 Co270 1.995 . S
N271 C272 1.376 . S
N271 C275 1.383 . S
C272 N271 1.376 . S
C272 C273 1.446 . S
C272 C302 1.391 . S
C273 C272 1.446 . S
C273 C274 1.339 . S
C273 H308 0.949 . S
C274 C273 1.339 . S
C274 C275 1.439 . S
C274 H309 0.950 . S
C275 N271 1.383 . S
C275 C274 1.439 . S
C275 C304 1.392 . S
N276 Co270 2.008 . S
N276 C277 1.376 . S
N276 C280 1.374 . S
C277 N276 1.376 . S
C277 C278 1.443 . S
C277 C304 1.389 . S
C278 C277 1.443 . S
C278 C279 1.340 . S
C278 H310 0.951 . S
C279 C278 1.340 . S
C279 C280 1.439 . S
C279 H311 0.950 . S
C280 N276 1.374 . S
C280 C279 1.439 . S
C280 C305 1.395 . S
N281 Co270 1.995 1_565 S
N281 C282 1.376 . S
N281 C285 1.383 . S
C282 N281 1.376 . S
C282 C283 1.446 . S
C282 C305 1.391 1_565 S
C283 C282 1.446 . S
C283 C284 1.339 . S
C283 H312 0.949 . S
C284 C283 1.339 . S
C284 C285 1.439 . S
C284 H313 0.950 . S
C285 N281 1.383 . S
C285 C284 1.439 . S
C285 C303 1.392 . S
N286 Co270 2.282 1_565 S
N286 C289 1.332 . S
N286 C291 1.332 . S
C287 C288 1.386 . S
C287 C290 1.388 . S
C288 C287 1.386 . S
C288 C289 1.382 . S
C288 H314 0.950 . S
C289 N286 1.332 . S
C289 C288 1.382 . S
C289 H300 0.952 . S
C290 C287 1.388 . S
C290 C291 1.382 . S
C290 H315 0.950 . S
C291 N286 1.332 . S
C291 C290 1.382 . S
C291 H301 0.948 1_565 S
N292 Co270 2.282 . S
N292 C296 1.332 . S
N292 C297 1.332 . S
C293 C294 1.388 . S
C293 C297 1.382 . S
C293 H316 0.950 . S
C294 C293 1.388 . S
C294 C295 1.386 . S
C295 C294 1.386 . S
C295 C296 1.382 . S
C295 H317 0.950 . S
C296 N292 1.332 . S
C296 C295 1.382 . S
C296 H298 0.952 . S
C297 N292 1.332 . S
C297 C293 1.382 . S
C297 H299 0.948 . S
H298 C296 0.952 . S
H299 C297 0.948 . S
H300 C289 0.952 . S
H301 C291 0.948 1_545 S
C302 C268 1.395 1_545 S
C302 C272 1.391 . S
C303 C265 1.389 . S
C303 C285 1.392 . S
C304 C275 1.392 . S
C304 C277 1.389 . S
C305 C280 1.395 . S
C305 C282 1.391 1_545 S
H306 C266 0.951 . S
H307 C267 0.950 . S
H308 C273 0.949 . S
H309 C274 0.950 . S
H310 C278 0.951 . S
H311 C279 0.950 . S
H312 C283 0.949 . S
H313 C284 0.950 . S
H314 C288 0.950 . S
H315 C290 0.950 . S
H316 C293 0.950 . S
H317 C295 0.950 . S
C318 C319 1.443 . S
C318 N322 1.376 . S
C318 C356 1.389 . S
C319 C318 1.443 . S
C319 C320 1.340 . S
C319 H359 0.951 . S
C320 C319 1.340 . S
C320 C321 1.439 . S
C320 H360 0.950 . S
C321 C320 1.439 . S
C321 N322 1.374 . S
C321 C355 1.395 . S
N322 C318 1.376 . S
N322 C321 1.374 . S
N322 Co323 2.008 . S
Co323 N322 2.008 . S
Co323 N324 1.995 . S
Co323 N329 2.008 . S
Co323 N334 1.995 . S
Co323 N339 2.282 . S
Co323 N345 2.282 . S
N324 Co323 1.995 . S
N324 C325 1.376 . S
N324 C328 1.383 . S
C325 N324 1.376 . S
C325 C326 1.446 . S
C325 C355 1.391 . S
C326 C325 1.446 . S
C326 C327 1.339 . S
C326 H361 0.949 . S
C327 C326 1.339 . S
C327 C328 1.439 . S
C327 H362 0.950 . S
C328 N324 1.383 . S
C328 C327 1.439 . S
C328 C357 1.392 . S
N329 Co323 2.008 . S
N329 C330 1.376 . S
N329 C333 1.374 . S
C330 N329 1.376 . S
C330 C331 1.443 . S
C330 C357 1.389 . S
C331 C330 1.443 . S
C331 C332 1.340 1_545 S
C331 H363 0.951 . S
C332 C331 1.340 1_565 S
C332 C333 1.439 1_565 S
C332 H364 0.950 . S
C333 N329 1.374 . S
C333 C332 1.439 1_545 S
C333 C358 1.395 1_545 S
N334 Co323 1.995 . S
N334 C335 1.376 . S
N334 C338 1.383 . S
C335 N334 1.376 . S
C335 C336 1.446 1_545 S
C335 C358 1.391 1_545 S
C336 C335 1.446 1_565 S
C336 C337 1.339 1_565 S
C336 H365 0.949 . S
C337 C336 1.339 1_545 S
C337 C338 1.439 . S
C337 H366 0.950 . S
C338 N334 1.383 . S
C338 C337 1.439 . S
C338 C356 1.392 . S
N339 Co323 2.282 . S
N339 C342 1.332 . S
N339 C344 1.332 . S
C340 C341 1.386 1_545 S
C340 C343 1.388 . S
C341 C340 1.386 1_565 S
C341 C342 1.382 1_565 S
C341 H367 0.950 . S
C342 N339 1.332 . S
C342 C341 1.382 1_545 S
C342 H353 0.979 . S
C343 C340 1.388 . S
C343 C344 1.382 . S
C343 H368 0.950 . S
C344 N339 1.332 . S
C344 C343 1.382 . S
C344 H354 0.948 . S
N345 Co323 2.282 . S
N345 C349 1.332 . S
N345 C350 1.332 . S
C346 C347 1.388 . S
C346 C350 1.382 . S
C346 H369 0.950 . S
C347 C346 1.388 . S
C347 C348 1.386 . S
C348 C347 1.386 . S
C348 C349 1.382 . S
C348 H370 0.950 . S
C349 N345 1.332 . S
C349 C348 1.382 . S
C349 H351 0.952 . S
C350 N345 1.332 . S
C350 C346 1.382 . S
C350 H352 0.948 . S
H351 C349 0.952 . S
H352 C350 0.948 . S
H353 C342 0.979 . S
H354 C344 0.948 . S
C355 C321 1.395 . S
C355 C325 1.391 . S
C356 C318 1.389 . S
C356 C338 1.392 . S
C357 C328 1.392 . S
C357 C330 1.389 . S
C358 C333 1.395 1_565 S
C358 C335 1.391 1_565 S
H359 C319 0.951 . S
H360 C320 0.950 . S
H361 C326 0.949 . S
H362 C327 0.950 . S
H363 C331 0.951 . S
H364 C332 0.950 . S
H365 C336 0.949 . S
H366 C337 0.950 . S
H367 C341 0.950 . S
H368 C343 0.950 . S
H369 C346 0.950 . S
H370 C348 0.950 . S
C371 C372 1.443 . S
C371 N375 1.376 . S
C371 C409 1.389 . S
C372 C371 1.443 . S
C372 C373 1.340 . S
C372 H412 0.951 . S
C373 C372 1.340 . S
C373 C374 1.439 . S
C373 H413 0.950 . S
C374 C373 1.439 . S
C374 N375 1.374 . S
C374 C408 1.395 . S
N375 C371 1.376 . S
N375 C374 1.374 . S
N375 Co376 2.008 . S
Co376 N375 2.008 . S
Co376 N377 1.995 . S
Co376 N382 2.008 . S
Co376 N387 1.995 . S
Co376 N392 2.282 . S
Co376 N398 2.282 . S
N377 Co376 1.995 . S
N377 C378 1.376 . S
N377 C381 1.383 . S
C378 N377 1.376 . S
C378 C379 1.446 . S
C378 C408 1.391 . S
C379 C378 1.446 . S
C379 C380 1.339 . S
C379 H414 0.949 . S
C380 C379 1.339 . S
C380 C381 1.439 . S
C380 H415 0.950 . S
C381 N377 1.383 . S
C381 C380 1.439 . S
C381 C410 1.392 . S
N382 Co376 2.008 . S
N382 C383 1.376 . S
N382 C386 1.374 1_655 S
C383 N382 1.376 . S
C383 C384 1.443 1_655 S
C383 C410 1.389 . S
C384 C383 1.443 1_455 S
C384 C385 1.340 . S
C384 H416 0.951 . S
C385 C384 1.340 . S
C385 C386 1.439 . S
C385 H417 0.950 . S
C386 N382 1.374 1_455 S
C386 C385 1.439 . S
C386 C411 1.395 . S
N387 Co376 1.995 . S
N387 C388 1.392 . S
N387 C391 1.383 . S
C388 N387 1.392 . S
C388 C389 1.444 1_655 S
C388 C411 1.379 1_655 S
C389 C388 1.444 1_455 S
C389 C390 1.339 1_455 S
C389 H418 0.949 . S
C390 C389 1.339 1_655 S
C390 C391 1.439 . S
C390 H419 0.950 . S
C391 N387 1.383 . S
C391 C390 1.439 . S
C391 C409 1.392 . S
N392 Co376 2.282 . S
N392 C395 1.332 . S
N392 C397 1.332 . S
C393 C394 1.386 . S
C393 C396 1.388 . S
C394 C393 1.386 . S
C394 C395 1.382 . S
C394 H420 0.950 . S
C395 N392 1.332 . S
C395 C394 1.382 . S
C395 H406 0.952 . S
C396 C393 1.388 . S
C396 C397 1.382 . S
C396 H421 0.950 . S
C397 N392 1.332 . S
C397 C396 1.382 . S
C397 H407 0.948 . S
N398 Co376 2.282 . S
N398 C402 1.332 . S
N398 C403 1.332 1_655 S
C399 C400 1.388 . S
C399 C403 1.382 . S
C399 H422 0.950 . S
C400 C399 1.388 . S
C400 C401 1.386 1_455 S
C401 C400 1.386 1_655 S
C401 C402 1.382 . S
C401 H423 0.950 . S
C402 N398 1.332 . S
C402 C401 1.382 . S
C402 H404 0.952 . S
C403 N398 1.332 1_455 S
C403 C399 1.382 . S
C403 H405 0.948 . S
H404 C402 0.952 . S
H405 C403 0.948 . S
H406 C395 0.952 . S
H407 C397 0.948 . S
C408 C374 1.395 . S
C408 C378 1.391 . S
C409 C371 1.389 . S
C409 C391 1.392 . S
C410 C381 1.392 . S
C410 C383 1.389 . S
C411 C386 1.395 . S
C411 C388 1.379 1_455 S
H412 C372 0.951 . S
H413 C373 0.950 . S
H414 C379 0.949 . S
H415 C380 0.950 . S
H416 C384 0.951 . S
H417 C385 0.950 . S
H418 C389 0.949 . S
H419 C390 0.950 . S
H420 C394 0.950 . S
H421 C396 0.950 . S
H422 C399 0.950 . S
H423 C401 0.950 . S
C424 C425 1.443 . S
C424 N428 1.376 . S
C424 C462 1.389 . S
C425 C424 1.443 . S
C425 C426 1.340 . S
C425 H465 0.951 . S
C426 C425 1.340 . S
C426 C427 1.439 . S
C426 H466 0.950 . S
C427 C426 1.439 . S
C427 N428 1.374 . S
C427 C461 1.395 . S
N428 C424 1.376 . S
N428 C427 1.374 . S
N428 Co429 2.008 . S
Co429 N428 2.008 . S
Co429 N430 1.995 . S
Co429 N435 2.008 . S
Co429 N440 1.995 . S
Co429 N445 2.282 . S
Co429 N451 2.282 . S
N430 Co429 1.995 . S
N430 C431 1.376 . S
N430 C434 1.383 . S
C431 N430 1.376 . S
C431 C432 1.446 . S
C431 C461 1.391 . S
C432 C431 1.446 . S
C432 C433 1.339 . S
C432 H467 0.949 . S
C433 C432 1.339 . S
C433 C434 1.439 . S
C433 H468 0.950 . S
C434 N430 1.383 . S
C434 C433 1.439 . S
C434 C463 1.392 . S
N435 Co429 2.008 . S
N435 C436 1.376 . S
N435 C439 1.374 . S
C436 N435 1.376 . S
C436 C437 1.443 . S
C436 C463 1.389 . S
C437 C436 1.443 . S
C437 C438 1.340 . S
C437 H469 0.951 . S
C438 C437 1.340 . S
C438 C439 1.439 . S
C438 H470 0.950 . S
C439 N435 1.374 . S
C439 C438 1.439 . S
C439 C464 1.395 . S
N440 Co429 1.995 . S
N440 C441 1.376 . S
N440 C444 1.383 . S
C441 N440 1.376 . S
C441 C442 1.446 . S
C441 C464 1.391 . S
C442 C441 1.446 . S
C442 C443 1.339 . S
C442 H471 0.949 . S
C443 C442 1.339 . S
C443 C444 1.439 . S
C443 H472 0.950 . S
C444 N440 1.383 . S
C444 C443 1.439 . S
C444 C462 1.392 . S
N445 Co429 2.282 . S
N445 C448 1.332 . S
N445 C450 1.332 . S
C446 C447 1.386 . S
C446 C449 1.388 . S
C447 C446 1.386 . S
C447 C448 1.382 . S
C447 H473 0.950 . S
C448 N445 1.332 . S
C448 C447 1.382 . S
C448 H459 0.952 . S
C449 C446 1.388 . S
C449 C450 1.382 . S
C449 H474 0.950 . S
C450 N445 1.332 . S
C450 C449 1.382 . S
C450 H460 0.948 . S
N451 Co429 2.282 . S
N451 C455 1.332 . S
N451 C456 1.332 . S
C452 C453 1.388 . S
C452 C456 1.382 . S
C452 H475 0.950 . S
C453 C452 1.388 . S
C453 C454 1.386 . S
C454 C453 1.386 . S
C454 C455 1.382 . S
C454 H476 0.950 . S
C455 N451 1.332 . S
C455 C454 1.382 . S
C455 H457 0.952 . S
C456 N451 1.332 . S
C456 C452 1.382 . S
C456 H458 0.948 . S
H457 C455 0.952 . S
H458 C456 0.948 . S
H459 C448 0.952 . S
H460 C450 0.948 . S
C461 C427 1.395 . S
C461 C431 1.391 . S
C462 C424 1.389 . S
C462 C444 1.392 . S
C463 C434 1.392 . S
C463 C436 1.389 . S
C464 C439 1.395 . S
C464 C441 1.391 . S
H465 C425 0.951 . S
H466 C426 0.950 . S
H467 C432 0.949 . S
H468 C433 0.950 . S
H469 C437 0.951 . S
H470 C438 0.950 . S
H471 C442 0.949 . S
H472 C443 0.950 . S
H473 C447 0.950 . S
H474 C449 0.950 . S
H475 C452 0.950 . S
H476 C454 0.950 . S
C477 C478 1.443 . S
C477 N481 1.376 . S
C477 C515 1.389 . S
C478 C477 1.443 . S
C478 C479 1.340 . S
C478 H518 0.951 . S
C479 C478 1.340 . S
C479 C480 1.439 . S
C479 H519 0.950 . S
C480 C479 1.439 . S
C480 N481 1.374 . S
C480 C514 1.395 . S
N481 C477 1.376 . S
N481 C480 1.374 . S
N481 Co482 2.008 . S
Co482 N481 2.008 . S
Co482 N483 1.995 . S
Co482 N488 2.008 . S
Co482 N493 1.995 . S
Co482 N498 2.282 . S
Co482 N504 2.282 . S
N483 Co482 1.995 . S
N483 C484 1.376 . S
N483 C487 1.383 . S
C484 N483 1.376 . S
C484 C485 1.446 . S
C484 C514 1.391 . S
C485 C484 1.446 . S
C485 C486 1.339 . S
C485 H520 0.949 . S
C486 C485 1.339 . S
C486 C487 1.439 . S
C486 H521 0.950 . S
C487 N483 1.383 . S
C487 C486 1.439 . S
C487 C516 1.392 . S
N488 Co482 2.008 . S
N488 C489 1.376 . S
N488 C492 1.374 . S
C489 N488 1.376 . S
C489 C490 1.443 . S
C489 C516 1.389 . S
C490 C489 1.443 . S
C490 C491 1.340 . S
C490 H522 0.951 . S
C491 C490 1.340 . S
C491 C492 1.439 . S
C491 H523 0.950 . S
C492 N488 1.374 . S
C492 C491 1.439 . S
C492 C517 1.395 . S
N493 Co482 1.995 . S
N493 C494 1.376 . S
N493 C497 1.383 . S
C494 N493 1.376 . S
C494 C495 1.446 . S
C494 C517 1.391 . S
C495 C494 1.446 . S
C495 C496 1.339 . S
C495 H524 0.949 . S
C496 C495 1.339 . S
C496 C497 1.439 . S
C496 H525 0.950 . S
C497 N493 1.383 . S
C497 C496 1.439 . S
C497 C515 1.392 . S
N498 Co482 2.282 . S
N498 C501 1.332 . S
N498 C503 1.332 . S
C499 C500 1.386 1_556 S
C499 C502 1.388 1_556 S
C500 C499 1.386 1_554 S
C500 C501 1.382 . S
C500 H526 0.950 1_554 S
C501 N498 1.332 . S
C501 C500 1.382 . S
C501 H512 0.952 . S
C502 C499 1.388 1_554 S
C502 C503 1.382 . S
C502 H527 0.950 1_554 S
C503 N498 1.332 . S
C503 C502 1.382 . S
C503 H513 0.948 . S
N504 Co482 2.282 . S
N504 C508 1.332 . S
N504 C509 1.332 . S
C505 C506 1.388 . S
C505 C509 1.382 . S
C505 H528 0.950 . S
C506 C505 1.388 . S
C506 C507 1.386 . S
C507 C506 1.386 . S
C507 C508 1.382 . S
C507 H529 0.950 . S
C508 N504 1.332 . S
C508 C507 1.382 . S
C508 H510 0.952 . S
C509 N504 1.332 . S
C509 C505 1.382 . S
C509 H511 0.948 . S
H510 C508 0.952 . S
H511 C509 0.948 . S
H512 C501 0.952 . S
H513 C503 0.948 . S
C514 C480 1.395 . S
C514 C484 1.391 . S
C515 C477 1.389 . S
C515 C497 1.392 . S
C516 C487 1.392 . S
C516 C489 1.389 . S
C517 C492 1.395 . S
C517 C494 1.391 . S
H518 C478 0.951 . S
H519 C479 0.950 . S
H520 C485 0.949 . S
H521 C486 0.950 . S
H522 C490 0.951 . S
H523 C491 0.950 . S
H524 C495 0.949 . S
H525 C496 0.950 . S
H526 C500 0.950 1_556 S
H527 C502 0.950 1_556 S
H528 C505 0.950 . S
H529 C507 0.950 . S
C530 C531 1.443 . S
C530 N534 1.376 . S
C530 C568 1.389 . S
C531 C530 1.443 . S
C531 C532 1.340 . S
C531 H571 0.951 . S
C532 C531 1.340 . S
C532 C533 1.439 . S
C532 H572 0.950 . S
C533 C532 1.439 . S
C533 N534 1.374 . S
C533 C567 1.395 . S
N534 C530 1.376 . S
N534 C533 1.374 . S
N534 Co535 2.008 . S
Co535 N534 2.008 . S
Co535 N536 1.995 . S
Co535 N541 2.008 . S
Co535 N546 1.995 . S
Co535 N551 2.282 . S
Co535 N557 2.282 . S
N536 Co535 1.995 . S
N536 C537 1.376 . S
N536 C540 1.383 . S
C537 N536 1.376 . S
C537 C538 1.446 . S
C537 C567 1.391 . S
C538 C537 1.446 . S
C538 C539 1.339 . S
C538 H573 0.949 . S
C539 C538 1.339 . S
C539 C540 1.439 . S
C539 H574 0.950 . S
C540 N536 1.383 . S
C540 C539 1.439 . S
C540 C569 1.392 . S
N541 Co535 2.008 . S
N541 C542 1.376 . S
N541 C545 1.374 . S
C542 N541 1.376 . S
C542 C543 1.443 . S
C542 C569 1.389 . S
C543 C542 1.443 . S
C543 C544 1.332 . S
C543 H575 0.951 1_545 S
C544 C543 1.332 . S
C544 C545 1.477 . S
C544 H576 0.927 1_545 S
C545 N541 1.374 . S
C545 C544 1.477 . S
C545 C570 1.395 . S
N546 Co535 1.995 . S
N546 C547 1.376 . S
N546 C550 1.383 . S
C547 N546 1.376 . S
C547 C548 1.446 . S
C547 C570 1.391 . S
C548 C547 1.446 . S
C548 C549 1.339 . S
C548 H577 0.949 . S
C549 C548 1.339 . S
C549 C550 1.439 . S
C549 H578 0.950 . S
C550 N546 1.383 . S
C550 C549 1.439 . S
C550 C568 1.392 . S
N551 Co535 2.282 . S
N551 C554 1.332 . S
N551 C556 1.332 . S
C552 C553 1.386 1_556 S
C552 C555 1.388 1_556 S
C553 C552 1.386 1_554 S
C553 C554 1.382 . S
C553 H579 0.950 1_554 S
C554 N551 1.332 . S
C554 C553 1.382 . S
C554 H565 0.952 . S
C555 C552 1.388 1_554 S
C555 C556 1.382 . S
C555 H580 0.950 1_554 S
C556 N551 1.332 . S
C556 C555 1.382 . S
C556 H566 0.948 . S
N557 Co535 2.282 . S
N557 C561 1.332 . S
N557 C562 1.332 . S
C558 C559 1.388 . S
C558 C562 1.382 . S
C558 H581 0.950 . S
C559 C558 1.388 . S
C559 C560 1.386 . S
C560 C559 1.386 . S
C560 C561 1.382 . S
C560 H582 0.950 . S
C561 N557 1.332 . S
C561 C560 1.382 . S
C561 H563 0.952 . S
C562 N557 1.332 . S
C562 C558 1.382 . S
C562 H564 0.948 . S
H563 C561 0.952 . S
H564 C562 0.948 . S
H565 C554 0.952 . S
H566 C556 0.948 . S
C567 C533 1.395 . S
C567 C537 1.391 . S
C568 C530 1.389 . S
C568 C550 1.392 . S
C569 C540 1.392 . S
C569 C542 1.389 . S
C570 C545 1.395 . S
C570 C547 1.391 . S
H571 C531 0.951 . S
H572 C532 0.950 . S
H573 C538 0.949 . S
H574 C539 0.950 . S
H575 C543 0.951 1_565 S
H576 C544 0.927 1_565 S
H577 C548 0.949 . S
H578 C549 0.950 . S
H579 C553 0.950 1_556 S
H580 C555 0.950 1_556 S
H581 C558 0.950 . S
H582 C560 0.950 . S
C583 C584 1.443 . S
C583 N587 1.376 . S
C583 C621 1.389 . S
C584 C583 1.443 . S
C584 C585 1.340 . S
C584 H624 0.951 . S
C585 C584 1.340 . S
C585 C586 1.439 . S
C585 H625 0.950 . S
C586 C585 1.439 . S
C586 N587 1.374 . S
C586 C620 1.395 . S
N587 C583 1.376 . S
N587 C586 1.374 . S
N587 Co588 2.008 . S
Co588 N587 2.008 . S
Co588 N589 1.995 . S
Co588 N594 2.008 . S
Co588 N599 1.995 . S
Co588 N604 2.282 . S
Co588 N610 2.282 . S
N589 Co588 1.995 . S
N589 C590 1.376 . S
N589 C593 1.383 . S
C590 N589 1.376 . S
C590 C591 1.446 . S
C590 C620 1.391 . S
C591 C590 1.446 . S
C591 C592 1.339 . S
C591 H626 0.949 . S
C592 C591 1.339 . S
C592 C593 1.439 . S
C592 H627 0.950 . S
C593 N589 1.383 . S
C593 C592 1.439 . S
C593 C622 1.392 . S
N594 Co588 2.008 . S
N594 C595 1.376 . S
N594 C598 1.374 . S
C595 N594 1.376 . S
C595 C596 1.443 1_655 S
C595 C622 1.389 . S
C596 C595 1.443 1_455 S
C596 C597 1.340 . S
C596 H628 0.951 . S
C597 C596 1.340 . S
C597 C598 1.439 1_455 S
C597 H629 0.950 . S
C598 N594 1.374 . S
C598 C597 1.439 1_655 S
C598 C623 1.395 . S
N599 Co588 1.995 . S
N599 C600 1.376 . S
N599 C603 1.383 . S
C600 N599 1.376 . S
C600 C601 1.446 . S
C600 C623 1.391 . S
C601 C600 1.446 . S
C601 C602 1.339 . S
C601 H630 0.949 . S
C602 C601 1.339 . S
C602 C603 1.439 . S
C602 H631 0.950 . S
C603 N599 1.383 . S
C603 C602 1.439 . S
C603 C621 1.392 . S
N604 Co588 2.282 . S
N604 C607 1.332 . S
N604 C609 1.332 . S
C605 C606 1.386 1_556 S
C605 C608 1.388 1_556 S
C606 C605 1.386 1_554 S
C606 C607 1.382 . S
C606 H632 0.950 1_554 S
C607 N604 1.332 . S
C607 C606 1.382 . S
C607 H618 0.952 . S
C608 C605 1.388 1_554 S
C608 C609 1.382 . S
C608 H633 0.950 1_554 S
C609 N604 1.332 . S
C609 C608 1.382 . S
C609 H619 0.948 . S
N610 Co588 2.282 . S
N610 C614 1.332 . S
N610 C615 1.332 . S
C611 C612 1.388 . S
C611 C615 1.382 . S
C611 H634 0.950 . S
C612 C611 1.388 . S
C612 C613 1.386 . S
C613 C612 1.386 . S
C613 C614 1.382 . S
C613 H635 0.950 . S
C614 N610 1.332 . S
C614 C613 1.382 . S
C614 H616 0.952 . S
C615 N610 1.332 . S
C615 C611 1.382 . S
C615 H617 0.948 . S
H616 C614 0.952 . S
H617 C615 0.948 . S
H618 C607 0.952 . S
H619 C609 0.948 . S
C620 C586 1.395 . S
C620 C590 1.391 . S
C621 C583 1.389 . S
C621 C603 1.392 . S
C622 C593 1.392 . S
C622 C595 1.389 . S
C623 C598 1.395 . S
C623 C600 1.391 . S
H624 C584 0.951 . S
H625 C585 0.950 . S
H626 C591 0.949 . S
H627 C592 0.950 . S
H628 C596 0.951 . S
H629 C597 0.950 . S
H630 C601 0.949 . S
H631 C602 0.950 . S
H632 C606 0.950 1_556 S
H633 C608 0.950 1_556 S
H634 C611 0.950 . S
H635 C613 0.950 . S
C636 C637 1.443 . S
C636 N640 1.376 . S
C636 C674 1.389 . S
C637 C636 1.443 . S
C637 C638 1.340 . S
C637 H677 0.951 . S
C638 C637 1.340 . S
C638 C639 1.439 . S
C638 H678 0.950 . S
C639 C638 1.439 . S
C639 N640 1.374 . S
C639 C673 1.395 . S
N640 C636 1.376 . S
N640 C639 1.374 . S
N640 Co641 2.008 . S
Co641 N640 2.008 . S
Co641 N642 1.995 . S
Co641 N647 2.008 . S
Co641 N652 1.995 . S
Co641 N657 2.282 . S
Co641 N663 2.282 . S
N642 Co641 1.995 . S
N642 C643 1.376 . S
N642 C646 1.383 . S
C643 N642 1.376 . S
C643 C644 1.446 . S
C643 C673 1.391 . S
C644 C643 1.446 . S
C644 C645 1.339 . S
C644 H679 0.949 . S
C645 C644 1.339 . S
C645 C646 1.439 . S
C645 H680 0.950 . S
C646 N642 1.383 . S
C646 C645 1.439 . S
C646 C675 1.392 . S
N647 Co641 2.008 . S
N647 C648 1.376 . S
N647 C651 1.374 . S
C648 N647 1.376 . S
C648 C649 1.443 . S
C648 C675 1.389 . S
C649 C648 1.443 . S
C649 C650 1.340 . S
C649 H681 0.951 . S
C650 C649 1.340 . S
C650 C651 1.439 . S
C650 H682 0.950 . S
C651 N647 1.374 . S
C651 C650 1.439 . S
C651 C676 1.395 . S
N652 Co641 1.995 . S
N652 C653 1.376 . S
N652 C656 1.383 . S
C653 N652 1.376 . S
C653 C654 1.446 . S
C653 C676 1.391 . S
C654 C653 1.446 . S
C654 C655 1.339 . S
C654 H683 0.949 . S
C655 C654 1.339 . S
C655 C656 1.439 . S
C655 H684 0.950 . S
C656 N652 1.383 . S
C656 C655 1.439 . S
C656 C674 1.392 . S
N657 Co641 2.282 . S
N657 C660 1.332 . S
N657 C662 1.332 . S
C658 C659 1.386 . S
C658 C661 1.388 . S
C659 C658 1.386 . S
C659 C660 1.382 . S
C659 H685 0.950 . S
C660 N657 1.332 . S
C660 C659 1.382 . S
C660 H671 0.952 . S
C661 C658 1.388 . S
C661 C662 1.382 . S
C661 H686 0.950 . S
C662 N657 1.332 . S
C662 C661 1.382 . S
C662 H672 0.948 . S
N663 Co641 2.282 . S
N663 C667 1.332 . S
N663 C668 1.332 . S
C664 C665 1.388 . S
C664 C668 1.382 . S
C664 H687 0.950 . S
C665 C664 1.388 . S
C665 C666 1.386 . S
C666 C665 1.386 . S
C666 C667 1.382 . S
C666 H688 0.950 . S
C667 N663 1.332 . S
C667 C666 1.382 . S
C667 H669 0.952 . S
C668 N663 1.332 . S
C668 C664 1.382 . S
C668 H670 0.948 . S
H669 C667 0.952 . S
H670 C668 0.948 . S
H671 C660 0.952 . S
H672 C662 0.948 . S
C673 C639 1.395 . S
C673 C643 1.391 . S
C674 C636 1.389 . S
C674 C656 1.392 . S
C675 C646 1.392 . S
C675 C648 1.389 . S
C676 C651 1.395 . S
C676 C653 1.391 . S
H677 C637 0.951 . S
H678 C638 0.950 . S
H679 C644 0.949 . S
H680 C645 0.950 . S
H681 C649 0.951 . S
H682 C650 0.950 . S
H683 C654 0.949 . S
H684 C655 0.950 . S
H685 C659 0.950 . S
H686 C661 0.950 . S
H687 C664 0.950 . S
H688 C666 0.950 . S
C689 C690 1.443 . S
C689 N693 1.376 . S
C689 C727 1.389 . S
C690 C689 1.443 . S
C690 C691 1.340 . S
C690 H730 0.951 . S
C691 C690 1.340 . S
C691 C692 1.439 . S
C691 H731 0.950 . S
C692 C691 1.439 . S
C692 N693 1.374 . S
C692 C726 1.395 . S
N693 C689 1.376 . S
N693 C692 1.374 . S
N693 Co694 2.008 . S
Co694 N693 2.008 . S
Co694 N695 1.995 . S
Co694 N700 2.008 . S
Co694 N705 1.995 . S
Co694 N710 2.282 . S
Co694 N716 2.282 . S
N695 Co694 1.995 . S
N695 C696 1.376 . S
N695 C699 1.383 . S
C696 N695 1.376 . S
C696 C697 1.446 . S
C696 C726 1.391 . S
C697 C696 1.446 . S
C697 C698 1.339 . S
C697 H732 0.949 . S
C698 C697 1.339 . S
C698 C699 1.439 . S
C698 H733 0.950 . S
C699 N695 1.383 . S
C699 C698 1.439 . S
C699 C728 1.392 . S
N700 Co694 2.008 . S
N700 C701 1.376 . S
N700 C704 1.374 1_565 S
C701 N700 1.376 . S
C701 C702 1.443 . S
C701 C728 1.389 . S
C702 C701 1.443 . S
C702 C703 1.340 1_565 S
C702 H734 0.951 . S
C703 C702 1.340 1_545 S
C703 C704 1.439 . S
C703 H735 0.950 . S
C704 N700 1.374 1_545 S
C704 C703 1.439 . S
C704 C729 1.395 . S
N705 Co694 1.995 . S
N705 C706 1.376 1_565 S
N705 C709 1.383 . S
C706 N705 1.376 1_545 S
C706 C707 1.446 . S
C706 C729 1.391 . S
C707 C706 1.446 . S
C707 C708 1.339 . S
C707 H736 0.949 . S
C708 C707 1.339 . S
C708 C709 1.439 1_545 S
C708 H737 0.950 . S
C709 N705 1.383 . S
C709 C708 1.439 1_565 S
C709 C727 1.392 . S
N710 Co694 2.282 . S
N710 C713 1.332 1_565 S
N710 C715 1.332 . S
C711 C712 1.386 . S
C711 C714 1.388 1_545 S
C712 C711 1.386 . S
C712 C713 1.382 . S
C712 H738 0.950 . S
C713 N710 1.332 1_545 S
C713 C712 1.382 . S
C713 H724 0.952 . S
C714 C711 1.388 1_565 S
C714 C715 1.382 . S
C714 H739 0.950 . S
C715 N710 1.332 . S
C715 C714 1.382 . S
C715 H725 0.948 . S
N716 Co694 2.282 . S
N716 C720 1.332 . S
N716 C721 1.332 . S
C717 C718 1.388 . S
C717 C721 1.382 . S
C717 H740 0.950 . S
C718 C717 1.388 . S
C718 C719 1.386 . S
C719 C718 1.386 . S
C719 C720 1.382 . S
C719 H741 0.950 . S
C720 N716 1.332 . S
C720 C719 1.382 . S
C720 H722 0.952 . S
C721 N716 1.332 . S
C721 C717 1.382 . S
C721 H723 0.948 . S
H722 C720 0.952 . S
H723 C721 0.948 . S
H724 C713 0.952 . S
H725 C715 0.948 . S
C726 C692 1.395 . S
C726 C696 1.391 . S
C727 C689 1.389 . S
C727 C709 1.392 . S
C728 C699 1.392 . S
C728 C701 1.389 . S
C729 C704 1.395 . S
C729 C706 1.391 . S
H730 C690 0.951 . S
H731 C691 0.950 . S
H732 C697 0.949 . S
H733 C698 0.950 . S
H734 C702 0.951 . S
H735 C703 0.950 . S
H736 C707 0.949 . S
H737 C708 0.950 . S
H738 C712 0.950 . S
H739 C714 0.950 . S
H740 C717 0.950 . S
H741 C719 0.950 . S
C742 C743 1.443 . S
C742 N746 1.376 . S
C742 C780 1.389 . S
C743 C742 1.443 . S
C743 C744 1.340 . S
C743 H783 0.951 . S
C744 C743 1.340 . S
C744 C745 1.439 . S
C744 H784 0.950 . S
C745 C744 1.439 . S
C745 N746 1.374 . S
C745 C779 1.395 . S
N746 C742 1.376 . S
N746 C745 1.374 . S
N746 Co747 2.008 . S
Co747 N746 2.008 . S
Co747 N748 1.995 . S
Co747 N753 2.008 . S
Co747 N758 1.995 . S
Co747 N763 2.282 . S
Co747 N769 2.282 . S
N748 Co747 1.995 . S
N748 C749 1.376 . S
N748 C752 1.383 . S
C749 N748 1.376 . S
C749 C750 1.446 . S
C749 C779 1.391 . S
C750 C749 1.446 . S
C750 C751 1.339 . S
C750 H785 0.949 . S
C751 C750 1.339 . S
C751 C752 1.439 . S
C751 H786 0.950 . S
C752 N748 1.383 . S
C752 C751 1.439 . S
C752 C781 1.392 . S
N753 Co747 2.008 . S
N753 C754 1.376 . S
N753 C757 1.374 . S
C754 N753 1.376 . S
C754 C755 1.443 . S
C754 C781 1.389 . S
C755 C754 1.443 . S
C755 C756 1.340 1_455 S
C755 H787 0.951 . S
C756 C755 1.340 1_655 S
C756 C757 1.439 1_655 S
C756 H788 0.950 . S
C757 N753 1.374 . S
C757 C756 1.439 1_455 S
C757 C782 1.395 1_455 S
N758 Co747 1.995 . S
N758 C759 1.376 . S
N758 C762 1.383 . S
C759 N758 1.376 . S
C759 C760 1.446 1_455 S
C759 C782 1.391 1_455 S
C760 C759 1.446 1_655 S
C760 C761 1.339 1_655 S
C760 H789 0.949 . S
C761 C760 1.339 1_455 S
C761 C762 1.439 . S
C761 H790 0.950 . S
C762 N758 1.383 . S
C762 C761 1.439 . S
C762 C780 1.392 . S
N763 Co747 2.282 . S
N763 C766 1.332 . S
N763 C768 1.332 . S
C764 C765 1.386 1_455 S
C764 C767 1.388 . S
C765 C764 1.386 1_655 S
C765 C766 1.382 1_655 S
C765 H791 0.950 . S
C766 N763 1.332 . S
C766 C765 1.382 1_455 S
C766 H777 0.979 . S
C767 C764 1.388 . S
C767 C768 1.382 . S
C767 H792 0.950 . S
C768 N763 1.332 . S
C768 C767 1.382 . S
C768 H778 0.948 . S
N769 Co747 2.282 . S
N769 C773 1.332 . S
N769 C774 1.332 . S
C770 C771 1.388 . S
C770 C774 1.382 . S
C770 H793 0.950 . S
C771 C770 1.388 . S
C771 C772 1.386 . S
C772 C771 1.386 . S
C772 C773 1.382 . S
C772 H794 0.950 . S
C773 N769 1.332 . S
C773 C772 1.382 . S
C773 H775 0.952 . S
C774 N769 1.332 . S
C774 C770 1.382 . S
C774 H776 0.948 . S
H775 C773 0.952 . S
H776 C774 0.948 . S
H777 C766 0.979 . S
H778 C768 0.948 . S
C779 C745 1.395 . S
C779 C749 1.391 . S
C780 C742 1.389 . S
C780 C762 1.392 . S
C781 C752 1.392 . S
C781 C754 1.389 . S
C782 C757 1.395 1_655 S
C782 C759 1.391 1_655 S
H783 C743 0.951 . S
H784 C744 0.950 . S
H785 C750 0.949 . S
H786 C751 0.950 . S
H787 C755 0.951 . S
H788 C756 0.950 . S
H789 C760 0.949 . S
H790 C761 0.950 . S
H791 C765 0.950 . S
H792 C767 0.950 . S
H793 C770 0.950 . S
H794 C772 0.950 . S
C795 C796 1.443 . S
C795 N799 1.376 . S
C795 C833 1.389 . S
C796 C795 1.443 . S
C796 C797 1.340 . S
C796 H836 0.951 . S
C797 C796 1.340 . S
C797 C798 1.439 . S
C797 H837 0.950 . S
C798 C797 1.439 . S
C798 N799 1.374 . S
C798 C832 1.395 . S
N799 C795 1.376 . S
N799 C798 1.374 . S
N799 Co800 2.008 . S
Co800 N799 2.008 . S
Co800 N801 1.995 . S
Co800 N806 2.008 . S
Co800 N811 1.995 . S
Co800 N816 2.282 . S
Co800 N822 2.282 . S
N801 Co800 1.995 . S
N801 C802 1.376 . S
N801 C805 1.383 . S
C802 N801 1.376 . S
C802 C803 1.446 . S
C802 C832 1.391 . S
C803 C802 1.446 . S
C803 C804 1.339 . S
C803 H838 0.949 . S
C804 C803 1.339 . S
C804 C805 1.439 . S
C804 H839 0.950 . S
C805 N801 1.383 . S
C805 C804 1.439 . S
C805 C834 1.392 . S
N806 Co800 2.008 . S
N806 C807 1.376 . S
N806 C810 1.374 . S
C807 N806 1.376 . S
C807 C808 1.443 1_565 S
C807 C834 1.389 . S
C808 C807 1.443 1_545 S
C808 C809 1.340 . S
C808 H840 0.951 . S
C809 C808 1.340 . S
C809 C810 1.439 1_545 S
C809 H841 0.950 . S
C810 N806 1.374 . S
C810 C809 1.439 1_565 S
C810 C835 1.395 . S
N811 Co800 1.995 . S
N811 C812 1.376 . S
N811 C815 1.383 . S
C812 N811 1.376 . S
C812 C813 1.446 . S
C812 C835 1.391 . S
C813 C812 1.446 . S
C813 C814 1.339 . S
C813 H842 0.949 . S
C814 C813 1.339 . S
C814 C815 1.439 . S
C814 H843 0.950 . S
C815 N811 1.383 . S
C815 C814 1.439 . S
C815 C833 1.392 . S
N816 Co800 2.282 . S
N816 C819 1.332 . S
N816 C821 1.332 . S
C817 C818 1.386 . S
C817 C820 1.388 . S
C818 C817 1.386 . S
C818 C819 1.382 . S
C818 H844 0.950 . S
C819 N816 1.332 . S
C819 C818 1.382 . S
C819 H830 0.952 . S
C820 C817 1.388 . S
C820 C821 1.382 . S
C820 H845 0.950 . S
C821 N816 1.332 . S
C821 C820 1.382 . S
C821 H831 0.948 . S
N822 Co800 2.282 . S
N822 C826 1.332 . S
N822 C827 1.332 . S
C823 C824 1.388 . S
C823 C827 1.382 . S
C823 H846 0.950 . S
C824 C823 1.388 . S
C824 C825 1.386 . S
C825 C824 1.386 . S
C825 C826 1.382 . S
C825 H847 0.950 . S
C826 N822 1.332 . S
C826 C825 1.382 . S
C826 H828 0.952 . S
C827 N822 1.332 . S
C827 C823 1.382 . S
C827 H829 0.948 . S
H828 C826 0.952 . S
H829 C827 0.948 . S
H830 C819 0.952 . S
H831 C821 0.948 . S
C832 C798 1.395 . S
C832 C802 1.391 . S
C833 C795 1.389 . S
C833 C815 1.392 . S
C834 C805 1.392 . S
C834 C807 1.389 . S
C835 C810 1.395 . S
C835 C812 1.391 . S
H836 C796 0.951 . S
H837 C797 0.950 . S
H838 C803 0.949 . S
H839 C804 0.950 . S
H840 C808 0.951 . S
H841 C809 0.950 . S
H842 C813 0.949 . S
H843 C814 0.950 . S
H844 C818 0.950 . S
H845 C820 0.950 . S
H846 C823 0.950 . S
H847 C825 0.950 . S
C848 C849 1.443 . S
C848 N852 1.376 . S
C848 C886 1.389 . S
C849 C848 1.443 . S
C849 C850 1.340 . S
C849 H889 0.951 . S
C850 C849 1.340 . S
C850 C851 1.439 . S
C850 H890 0.950 . S
C851 C850 1.439 . S
C851 N852 1.374 . S
C851 C885 1.395 . S
N852 C848 1.376 . S
N852 C851 1.374 . S
N852 Co853 2.008 . S
Co853 N852 2.008 . S
Co853 N854 1.995 . S
Co853 N859 2.008 . S
Co853 N864 1.995 . S
Co853 N869 2.282 . S
Co853 N875 2.282 . S
N854 Co853 1.995 . S
N854 C855 1.376 . S
N854 C858 1.383 . S
C855 N854 1.376 . S
C855 C856 1.446 . S
C855 C885 1.391 . S
C856 C855 1.446 . S
C856 C857 1.339 . S
C856 H891 0.949 . S
C857 C856 1.339 . S
C857 C858 1.439 . S
C857 H892 0.950 . S
C858 N854 1.383 . S
C858 C857 1.439 . S
C858 C887 1.392 . S
N859 Co853 2.008 . S
N859 C860 1.376 . S
N859 C863 1.374 . S
C860 N859 1.376 . S
C860 C861 1.443 . S
C860 C887 1.389 . S
C861 C860 1.443 . S
C861 C862 1.332 . S
C861 H893 0.951 1_455 S
C862 C861 1.332 . S
C862 C863 1.477 . S
C862 H894 0.927 1_455 S
C863 N859 1.374 . S
C863 C862 1.477 . S
C863 C888 1.395 . S
N864 Co853 1.995 . S
N864 C865 1.376 . S
N864 C868 1.383 . S
C865 N864 1.376 . S
C865 C866 1.446 . S
C865 C888 1.391 . S
C866 C865 1.446 . S
C866 C867 1.339 . S
C866 H895 0.949 . S
C867 C866 1.339 . S
C867 C868 1.439 . S
C867 H896 0.950 . S
C868 N864 1.383 . S
C868 C867 1.439 . S
C868 C886 1.392 . S
N869 Co853 2.282 . S
N869 C872 1.332 . S
N869 C874 1.332 . S
C870 C871 1.386 . S
C870 C873 1.388 . S
C871 C870 1.386 . S
C871 C872 1.382 . S
C871 H897 0.950 . S
C872 N869 1.332 . S
C872 C871 1.382 . S
C872 H883 0.952 . S
C873 C870 1.388 . S
C873 C874 1.382 . S
C873 H898 0.950 . S
C874 N869 1.332 . S
C874 C873 1.382 . S
C874 H884 0.948 . S
N875 Co853 2.282 . S
N875 C879 1.332 . S
N875 C880 1.332 . S
C876 C877 1.388 . S
C876 C880 1.382 . S
C876 H899 0.950 . S
C877 C876 1.388 . S
C877 C878 1.386 . S
C878 C877 1.386 . S
C878 C879 1.382 . S
C878 H900 0.950 . S
C879 N875 1.332 . S
C879 C878 1.382 . S
C879 H881 0.952 . S
C880 N875 1.332 . S
C880 C876 1.382 . S
C880 H882 0.948 . S
H881 C879 0.952 . S
H882 C880 0.948 . S
H883 C872 0.952 . S
H884 C874 0.948 . S
C885 C851 1.395 . S
C885 C855 1.391 . S
C886 C848 1.389 . S
C886 C868 1.392 . S
C887 C858 1.392 . S
C887 C860 1.389 . S
C888 C863 1.395 . S
C888 C865 1.391 . S
H889 C849 0.951 . S
H890 C850 0.950 . S
H891 C856 0.949 . S
H892 C857 0.950 . S
H893 C861 0.951 1_655 S
H894 C862 0.927 1_655 S
H895 C866 0.949 . S
H896 C867 0.950 . S
H897 C871 0.950 . S
H898 C873 0.950 . S
H899 C876 0.950 . S
H900 C878 0.950 . S
C901 C902 1.443 . S
C901 N905 1.376 . S
C901 C939 1.389 . S
C902 C901 1.443 . S
C902 C903 1.340 . S
C902 H942 0.951 . S
C903 C902 1.340 . S
C903 C904 1.439 . S
C903 H943 0.950 . S
C904 C903 1.439 . S
C904 N905 1.374 . S
C904 C938 1.395 . S
N905 C901 1.376 . S
N905 C904 1.374 . S
N905 Co906 2.008 . S
Co906 N905 2.008 . S
Co906 N907 1.995 . S
Co906 N912 2.008 . S
Co906 N917 1.995 . S
Co906 N922 2.282 . S
Co906 N928 2.282 . S
N907 Co906 1.995 . S
N907 C908 1.376 . S
N907 C911 1.383 . S
C908 N907 1.376 . S
C908 C909 1.446 . S
C908 C938 1.391 . S
C909 C908 1.446 . S
C909 C910 1.339 . S
C909 H944 0.949 . S
C910 C909 1.339 . S
C910 C911 1.439 . S
C910 H945 0.950 . S
C911 N907 1.383 . S
C911 C910 1.439 . S
C911 C940 1.392 . S
N912 Co906 2.008 . S
N912 C913 1.376 . S
N912 C916 1.374 . S
C913 N912 1.376 . S
C913 C914 1.443 . S
C913 C940 1.389 . S
C914 C913 1.443 . S
C914 C915 1.340 . S
C914 H946 0.951 . S
C915 C914 1.340 . S
C915 C916 1.439 . S
C915 H947 0.950 . S
C916 N912 1.374 . S
C916 C915 1.439 . S
C916 C941 1.395 . S
N917 Co906 1.995 . S
N917 C918 1.376 . S
N917 C921 1.383 . S
C918 N917 1.376 . S
C918 C919 1.446 . S
C918 C941 1.391 . S
C919 C918 1.446 . S
C919 C920 1.339 . S
C919 H948 0.949 . S
C920 C919 1.339 . S
C920 C921 1.439 . S
C920 H949 0.950 . S
C921 N917 1.383 . S
C921 C920 1.439 . S
C921 C939 1.392 . S
N922 Co906 2.282 . S
N922 C925 1.332 . S
N922 C927 1.332 . S
C923 C924 1.386 . S
C923 C926 1.388 . S
C924 C923 1.386 . S
C924 C925 1.382 . S
C924 H950 0.950 . S
C925 N922 1.332 . S
C925 C924 1.382 . S
C925 H936 0.952 . S
C926 C923 1.388 . S
C926 C927 1.382 . S
C926 H951 0.950 . S
C927 N922 1.332 . S
C927 C926 1.382 . S
C927 H937 0.948 . S
N928 Co906 2.282 . S
N928 C932 1.332 . S
N928 C933 1.332 . S
C929 C930 1.388 . S
C929 C933 1.382 . S
C929 H952 0.950 . S
C930 C929 1.388 . S
C930 C931 1.386 . S
C931 C930 1.386 . S
C931 C932 1.382 . S
C931 H953 0.950 . S
C932 N928 1.332 . S
C932 C931 1.382 . S
C932 H934 0.952 . S
C933 N928 1.332 . S
C933 C929 1.382 . S
C933 H935 0.948 . S
H934 C932 0.952 . S
H935 C933 0.948 . S
H936 C925 0.952 . S
H937 C927 0.948 . S
C938 C904 1.395 . S
C938 C908 1.391 . S
C939 C901 1.389 . S
C939 C921 1.392 . S
C940 C911 1.392 . S
C940 C913 1.389 . S
C941 C916 1.395 . S
C941 C918 1.391 . S
H942 C902 0.951 . S
H943 C903 0.950 . S
H944 C909 0.949 . S
H945 C910 0.950 . S
H946 C914 0.951 . S
H947 C915 0.950 . S
H948 C919 0.949 . S
H949 C920 0.950 . S
H950 C924 0.950 . S
H951 C926 0.950 . S
H952 C929 0.950 . S
H953 C931 0.950 . S
H954 C966 0.930 . S
H955 C968 0.930 . S
H956 C969 0.930 . S
H957 C973 0.959 . S
H958 C973 0.959 . S
H959 C973 0.961 . S
H960 C974 0.960 . S
H961 C974 0.961 . S
H962 C974 0.959 . S
H963 C977 0.929 . S
H964 C978 0.931 . S
H965 C980 0.930 . S
C966 H954 0.930 . S
C966 C967 1.399 . S
C966 C971 1.399 . S
C967 C966 1.399 . S
C967 C968 1.376 . S
C968 H955 0.930 . S
C968 C967 1.376 . S
C968 C969 1.388 . S
C969 H956 0.930 . S
C969 C968 1.388 . S
C969 C970 1.390 . S
C970 C969 1.390 . S
C970 C971 1.394 . S
C970 C976 1.465 . S
C971 C966 1.399 . S
C971 C970 1.394 . S
C971 C972 1.516 . S
C972 C971 1.516 . S
C972 C973 1.502 . S
C972 C974 1.561 . S
C972 C975 1.526 . S
C973 H957 0.959 . S
C973 H958 0.959 . S
C973 H959 0.961 . S
C973 C972 1.502 . S
C974 H960 0.960 . S
C974 H961 0.961 . S
C974 H962 0.959 . S
C974 C972 1.561 . S
C975 C972 1.526 . S
C975 C976 1.396 . S
C975 C980 1.390 . S
C976 C970 1.465 . S
C976 C975 1.396 . S
C976 C977 1.399 . S
C977 H963 0.929 . S
C977 C976 1.399 . S
C977 C978 1.385 . S
C978 H964 0.931 . S
C978 C977 1.385 . S
C978 C979 1.389 . S
C979 C978 1.389 . S
C979 C980 1.387 . S
C980 H965 0.930 . S
C980 C975 1.390 . S
C980 C979 1.387 . S
H981 C993 0.930 . S
H982 C995 0.930 . S
H983 C996 0.930 . S
H984 C1000 0.959 . S
H985 C1000 0.959 . S
H986 C1000 0.961 . S
H987 C1001 0.960 . S
H988 C1001 0.961 . S
H989 C1001 0.959 . S
H990 C1004 0.929 . S
H991 C1005 0.931 . S
H992 C1007 0.930 . S
C993 H981 0.930 . S
C993 C994 1.399 . S
C993 C998 1.399 . S
C994 C993 1.399 . S
C994 C995 1.376 . S
C995 H982 0.930 . S
C995 C994 1.376 . S
C995 C996 1.388 . S
C996 H983 0.930 . S
C996 C995 1.388 . S
C996 C997 1.390 . S
C997 C996 1.390 . S
C997 C998 1.394 . S
C997 C1003 1.465 . S
C998 C993 1.399 . S
C998 C997 1.394 . S
C998 C999 1.516 . S
C999 C998 1.516 . S
C999 C1000 1.502 . S
C999 C1001 1.561 . S
C999 C1002 1.526 . S
C1000 H984 0.959 . S
C1000 H985 0.959 . S
C1000 H986 0.961 . S
C1000 C999 1.502 . S
C1001 H987 0.960 . S
C1001 H988 0.961 . S
C1001 H989 0.959 . S
C1001 C999 1.561 . S
C1002 C999 1.526 . S
C1002 C1003 1.396 . S
C1002 C1007 1.390 . S
C1003 C997 1.465 . S
C1003 C1002 1.396 . S
C1003 C1004 1.399 . S
C1004 H990 0.929 . S
C1004 C1003 1.399 . S
C1004 C1005 1.385 . S
C1005 H991 0.931 . S
C1005 C1004 1.385 . S
C1005 C1006 1.389 . S
C1006 C1005 1.389 . S
C1006 C1007 1.387 . S
C1007 H992 0.930 . S
C1007 C1002 1.390 . S
C1007 C1006 1.387 . S
H1008 C1020 0.930 1_545 S
H1009 C1022 0.930 . S
H1010 C1023 0.930 . S
H1011 C1027 0.959 . S
H1012 C1027 0.959 . S
H1013 C1027 0.961 . S
H1014 C1028 0.960 1_545 S
H1015 C1028 0.949 1_545 S
H1016 C1028 0.959 . S
H1017 C1031 0.929 . S
H1018 C1032 0.931 . S
H1019 C1034 0.930 . S
C1020 H1008 0.930 1_565 S
C1020 C1021 1.399 . S
C1020 C1025 1.399 . S
C1021 C1020 1.399 . S
C1021 C1022 1.376 . S
C1022 H1009 0.930 . S
C1022 C1021 1.376 . S
C1022 C1023 1.388 . S
C1023 H1010 0.930 . S
C1023 C1022 1.388 . S
C1023 C1024 1.390 . S
C1024 C1023 1.390 . S
C1024 C1025 1.394 . S
C1024 C1030 1.465 . S
C1025 C1020 1.399 . S
C1025 C1024 1.394 . S
C1025 C1026 1.516 . S
C1026 C1025 1.516 . S
C1026 C1027 1.502 1_565 S
C1026 C1028 1.561 . S
C1026 C1029 1.526 . S
C1027 H1011 0.959 . S
C1027 H1012 0.959 . S
C1027 H1013 0.961 . S
C1027 C1026 1.502 1_545 S
C1028 H1014 0.960 1_565 S
C1028 H1015 0.949 1_565 S
C1028 H1016 0.959 . S
C1028 C1026 1.561 . S
C1029 C1026 1.526 . S
C1029 C1030 1.396 . S
C1029 C1034 1.390 . S
C1030 C1024 1.465 . S
C1030 C1029 1.396 . S
C1030 C1031 1.399 . S
C1031 H1017 0.929 . S
C1031 C1030 1.399 . S
C1031 C1032 1.385 . S
C1032 H1018 0.931 . S
C1032 C1031 1.385 . S
C1032 C1033 1.389 . S
C1033 C1032 1.389 . S
C1033 C1034 1.387 . S
C1034 H1019 0.930 . S
C1034 C1029 1.390 . S
C1034 C1033 1.387 . S
H1035 C1047 0.930 . S
H1036 C1049 0.930 . S
H1037 C1050 0.930 . S
H1038 C1054 0.959 . S
H1039 C1054 0.959 . S
H1040 C1054 0.961 . S
H1041 C1055 0.960 . S
H1042 C1055 0.961 . S
H1043 C1055 0.959 . S
H1044 C1058 0.929 1_565 S
H1045 C1059 0.931 1_565 S
H1046 C1061 0.930 . S
C1047 H1035 0.930 . S
C1047 C1048 1.399 . S
C1047 C1052 1.399 . S
C1048 C1047 1.399 . S
C1048 C1049 1.376 . S
C1049 H1036 0.930 . S
C1049 C1048 1.376 . S
C1049 C1050 1.388 . S
C1050 H1037 0.930 . S
C1050 C1049 1.388 . S
C1050 C1051 1.390 . S
C1051 C1050 1.390 . S
C1051 C1052 1.394 . S
C1051 C1057 1.465 . S
C1052 C1047 1.399 . S
C1052 C1051 1.394 . S
C1052 C1053 1.516 . S
C1053 C1052 1.516 . S
C1053 C1054 1.502 . S
C1053 C1055 1.561 . S
C1053 C1056 1.526 . S
C1054 H1038 0.959 . S
C1054 H1039 0.959 . S
C1054 H1040 0.961 . S
C1054 C1053 1.502 . S
C1055 H1041 0.960 . S
C1055 H1042 0.961 . S
C1055 H1043 0.959 . S
C1055 C1053 1.561 . S
C1056 C1053 1.526 . S
C1056 C1057 1.396 . S
C1056 C1061 1.390 . S
C1057 C1051 1.465 . S
C1057 C1056 1.396 . S
C1057 C1058 1.399 . S
C1058 H1044 0.929 1_545 S
C1058 C1057 1.399 . S
C1058 C1059 1.385 . S
C1059 H1045 0.931 1_545 S
C1059 C1058 1.385 . S
C1059 C1060 1.389 . S
C1060 C1059 1.389 . S
C1060 C1061 1.387 . S
C1061 H1046 0.930 . S
C1061 C1056 1.390 . S
C1061 C1060 1.387 . S
H1062 C1074 0.930 . S
H1063 C1076 0.930 . S
H1064 C1077 0.930 . S
H1065 C1081 0.959 1_455 S
H1066 C1081 0.959 . S
H1067 C1081 0.961 . S
H1068 C1082 0.960 . S
H1069 C1082 0.961 . S
H1070 C1082 0.959 . S
H1071 C1085 0.929 . S
H1072 C1086 0.931 . S
H1073 C1088 0.930 . S
C1074 H1062 0.930 . S
C1074 C1075 1.399 . S
C1074 C1079 1.399 . S
C1075 C1074 1.399 . S
C1075 C1076 1.376 . S
C1076 H1063 0.930 . S
C1076 C1075 1.376 . S
C1076 C1077 1.388 . S
C1077 H1064 0.930 . S
C1077 C1076 1.388 . S
C1077 C1078 1.390 . S
C1078 C1077 1.390 . S
C1078 C1079 1.394 . S
C1078 C1084 1.465 . S
C1079 C1074 1.399 . S
C1079 C1078 1.394 . S
C1079 C1080 1.516 . S
C1080 C1079 1.516 . S
C1080 C1081 1.502 . S
C1080 C1082 1.561 . S
C1080 C1083 1.526 . S
C1081 H1065 0.959 1_655 S
C1081 H1066 0.959 . S
C1081 H1067 0.961 . S
C1081 C1080 1.502 . S
C1082 H1068 0.960 . S
C1082 H1069 0.961 . S
C1082 H1070 0.959 . S
C1082 C1080 1.561 . S
C1083 C1080 1.526 . S
C1083 C1084 1.396 . S
C1083 C1088 1.390 . S
C1084 C1078 1.465 . S
C1084 C1083 1.396 . S
C1084 C1085 1.399 . S
C1085 H1071 0.929 . S
C1085 C1084 1.399 . S
C1085 C1086 1.385 . S
C1086 H1072 0.931 . S
C1086 C1085 1.385 . S
C1086 C1087 1.389 . S
C1087 C1086 1.389 . S
C1087 C1088 1.387 . S
C1088 H1073 0.930 . S
C1088 C1083 1.390 . S
C1088 C1087 1.387 . S
H1089 C1101 0.930 . S
H1090 C1103 0.930 . S
H1091 C1104 0.930 . S
H1092 C1108 0.959 . S
H1093 C1108 0.959 . S
H1094 C1108 0.961 . S
H1095 C1109 0.960 . S
H1096 C1109 0.961 . S
H1097 C1109 0.959 . S
H1098 C1112 0.929 . S
H1099 C1113 0.931 . S
H1100 C1115 0.930 . S
C1101 H1089 0.930 . S
C1101 C1102 1.399 . S
C1101 C1106 1.399 . S
C1102 C1101 1.399 . S
C1102 C1103 1.376 . S
C1103 H1090 0.930 . S
C1103 C1102 1.376 . S
C1103 C1104 1.388 . S
C1104 H1091 0.930 . S
C1104 C1103 1.388 . S
C1104 C1105 1.390 . S
C1105 C1104 1.390 . S
C1105 C1106 1.394 . S
C1105 C1111 1.465 . S
C1106 C1101 1.399 . S
C1106 C1105 1.394 . S
C1106 C1107 1.516 . S
C1107 C1106 1.516 . S
C1107 C1108 1.502 . S
C1107 C1109 1.561 . S
C1107 C1110 1.526 . S
C1108 H1092 0.959 . S
C1108 H1093 0.959 . S
C1108 H1094 0.961 . S
C1108 C1107 1.502 . S
C1109 H1095 0.960 . S
C1109 H1096 0.961 . S
C1109 H1097 0.959 . S
C1109 C1107 1.561 . S
C1110 C1107 1.526 . S
C1110 C1111 1.396 . S
C1110 C1115 1.390 . S
C1111 C1105 1.465 . S
C1111 C1110 1.396 . S
C1111 C1112 1.399 . S
C1112 H1098 0.929 . S
C1112 C1111 1.399 . S
C1112 C1113 1.385 . S
C1113 H1099 0.931 . S
C1113 C1112 1.385 . S
C1113 C1114 1.389 . S
C1114 C1113 1.389 . S
C1114 C1115 1.387 . S
C1115 H1100 0.930 . S
C1115 C1110 1.390 . S
C1115 C1114 1.387 . S
H1116 C1128 0.930 . S
H1117 C1130 0.930 1_455 S
H1118 C1131 0.930 1_455 S
H1119 C1135 0.959 . S
H1120 C1135 0.959 . S
H1121 C1135 0.961 . S
H1122 C1136 0.960 . S
H1123 C1136 0.961 . S
H1124 C1136 0.959 . S
H1125 C1139 0.929 . S
H1126 C1140 0.931 . S
H1127 C1142 0.930 . S
C1128 H1116 0.930 . S
C1128 C1129 1.399 . S
C1128 C1133 1.399 . S
C1129 C1128 1.399 . S
C1129 C1130 1.376 . S
C1130 H1117 0.930 1_655 S
C1130 C1129 1.376 . S
C1130 C1131 1.388 . S
C1131 H1118 0.930 1_655 S
C1131 C1130 1.388 . S
C1131 C1132 1.390 . S
C1132 C1131 1.390 . S
C1132 C1133 1.394 . S
C1132 C1138 1.465 . S
C1133 C1128 1.399 . S
C1133 C1132 1.394 . S
C1133 C1134 1.516 . S
C1134 C1133 1.516 . S
C1134 C1135 1.502 . S
C1134 C1136 1.561 . S
C1134 C1137 1.526 . S
C1135 H1119 0.959 . S
C1135 H1120 0.959 . S
C1135 H1121 0.961 . S
C1135 C1134 1.502 . S
C1136 H1122 0.960 . S
C1136 H1123 0.961 . S
C1136 H1124 0.959 . S
C1136 C1134 1.561 . S
C1137 C1134 1.526 . S
C1137 C1138 1.396 . S
C1137 C1142 1.390 . S
C1138 C1132 1.465 . S
C1138 C1137 1.396 . S
C1138 C1139 1.399 . S
C1139 H1125 0.929 . S
C1139 C1138 1.399 . S
C1139 C1140 1.385 . S
C1140 H1126 0.931 . S
C1140 C1139 1.385 . S
C1140 C1141 1.389 . S
C1141 C1140 1.389 . S
C1141 C1142 1.387 . S
C1142 H1127 0.930 . S
C1142 C1137 1.390 . S
C1142 C1141 1.387 . S
H1143 C1155 0.930 . S
H1144 C1157 0.930 . S
H1145 C1158 0.930 . S
H1146 C1162 0.959 . S
H1147 C1162 0.959 . S
H1148 C1162 0.961 . S
H1149 C1163 0.960 . S
H1150 C1163 0.961 . S
H1151 C1163 0.959 . S
H1152 C1166 0.929 . S
H1153 C1167 0.931 . S
H1154 C1169 0.930 . S
C1155 H1143 0.930 . S
C1155 C1156 1.399 . S
C1155 C1160 1.399 . S
C1156 C1155 1.399 . S
C1156 C1157 1.376 . S
C1157 H1144 0.930 . S
C1157 C1156 1.376 . S
C1157 C1158 1.388 . S
C1158 H1145 0.930 . S
C1158 C1157 1.388 . S
C1158 C1159 1.390 . S
C1159 C1158 1.390 . S
C1159 C1160 1.394 . S
C1159 C1165 1.465 . S
C1160 C1155 1.399 . S
C1160 C1159 1.394 . S
C1160 C1161 1.516 . S
C1161 C1160 1.516 . S
C1161 C1162 1.502 . S
C1161 C1163 1.561 . S
C1161 C1164 1.526 . S
C1162 H1146 0.959 . S
C1162 H1147 0.959 . S
C1162 H1148 0.961 . S
C1162 C1161 1.502 . S
C1163 H1149 0.960 . S
C1163 H1150 0.961 . S
C1163 H1151 0.959 . S
C1163 C1161 1.561 . S
C1164 C1161 1.526 . S
C1164 C1165 1.396 . S
C1164 C1169 1.390 . S
C1165 C1159 1.465 . S
C1165 C1164 1.396 . S
C1165 C1166 1.399 . S
C1166 H1152 0.929 . S
C1166 C1165 1.399 . S
C1166 C1167 1.385 . S
C1167 H1153 0.931 . S
C1167 C1166 1.385 . S
C1167 C1168 1.389 . S
C1168 C1167 1.389 . S
C1168 C1169 1.387 . S
C1169 H1154 0.930 . S
C1169 C1164 1.390 . S
C1169 C1168 1.387 . S
H1170 C1182 0.930 . S
H1171 C1184 0.930 . S
H1172 C1185 0.930 . S
H1173 C1189 0.959 . S
H1174 C1189 0.959 . S
H1175 C1189 0.961 . S
H1176 C1190 0.960 . S
H1177 C1190 0.972 . S
H1178 C1190 0.959 . S
H1179 C1193 0.929 . S
H1180 C1194 0.931 . S
H1181 C1196 0.930 . S
C1182 H1170 0.930 . S
C1182 C1183 1.399 . S
C1182 C1187 1.399 . S
C1183 C1182 1.399 . S
C1183 C1184 1.376 . S
C1184 H1171 0.930 . S
C1184 C1183 1.376 . S
C1184 C1185 1.388 . S
C1185 H1172 0.930 . S
C1185 C1184 1.388 . S
C1185 C1186 1.390 . S
C1186 C1185 1.390 . S
C1186 C1187 1.394 . S
C1186 C1192 1.465 . S
C1187 C1182 1.399 . S
C1187 C1186 1.394 . S
C1187 C1188 1.516 . S
C1188 C1187 1.516 . S
C1188 C1189 1.502 . S
C1188 C1190 1.561 . S
C1188 C1191 1.526 . S
C1189 H1173 0.959 . S
C1189 H1174 0.959 . S
C1189 H1175 0.961 . S
C1189 C1188 1.502 . S
C1190 H1176 0.960 . S
C1190 H1177 0.972 . S
C1190 H1178 0.959 . S
C1190 C1188 1.561 . S
C1191 C1188 1.526 . S
C1191 C1192 1.396 . S
C1191 C1196 1.390 . S
C1192 C1186 1.465 . S
C1192 C1191 1.396 . S
C1192 C1193 1.399 . S
C1193 H1179 0.929 . S
C1193 C1192 1.399 . S
C1193 C1194 1.385 . S
C1194 H1180 0.931 . S
C1194 C1193 1.385 . S
C1194 C1195 1.389 . S
C1195 C1194 1.389 . S
C1195 C1196 1.387 . S
C1196 H1181 0.930 . S
C1196 C1191 1.390 . S
C1196 C1195 1.387 . S
H1197 C1209 0.930 . S
H1198 C1211 0.930 1_545 S
H1199 C1212 0.932 . S
H1200 C1216 0.959 . S
H1201 C1216 0.959 . S
H1202 C1216 0.961 . S
H1203 C1217 0.960 . S
H1204 C1217 0.961 . S
H1205 C1217 0.959 . S
H1206 C1220 0.929 . S
H1207 C1221 0.931 . S
H1208 C1223 0.930 . S
C1209 H1197 0.930 . S
C1209 C1210 1.399 . S
C1209 C1214 1.399 . S
C1210 C1209 1.399 . S
C1210 C1211 1.376 . S
C1211 H1198 0.930 1_565 S
C1211 C1210 1.376 . S
C1211 C1212 1.388 . S
C1212 H1199 0.932 . S
C1212 C1211 1.388 . S
C1212 C1213 1.390 . S
C1213 C1212 1.390 . S
C1213 C1214 1.394 . S
C1213 C1219 1.465 . S
C1214 C1209 1.399 . S
C1214 C1213 1.394 . S
C1214 C1215 1.516 . S
C1215 C1214 1.516 . S
C1215 C1216 1.502 . S
C1215 C1217 1.561 . S
C1215 C1218 1.526 . S
C1216 H1200 0.959 . S
C1216 H1201 0.959 . S
C1216 H1202 0.961 . S
C1216 C1215 1.502 . S
C1217 H1203 0.960 . S
C1217 H1204 0.961 . S
C1217 H1205 0.959 . S
C1217 C1215 1.561 . S
C1218 C1215 1.526 . S
C1218 C1219 1.396 . S
C1218 C1223 1.390 . S
C1219 C1213 1.465 . S
C1219 C1218 1.396 . S
C1219 C1220 1.399 . S
C1220 H1206 0.929 . S
C1220 C1219 1.399 . S
C1220 C1221 1.385 . S
C1221 H1207 0.931 . S
C1221 C1220 1.385 . S
C1221 C1222 1.389 . S
C1222 C1221 1.389 . S
C1222 C1223 1.387 . S
C1223 H1208 0.930 . S
C1223 C1218 1.390 . S
C1223 C1222 1.387 . S
H1224 C1236 0.930 . S
H1225 C1238 0.930 . S
H1226 C1239 0.930 . S
H1227 C1243 0.959 . S
H1228 C1243 0.959 . S
H1229 C1243 0.961 . S
H1230 C1244 0.960 . S
H1231 C1244 0.961 . S
H1232 C1244 0.959 . S
H1233 C1247 0.929 . S
H1234 C1248 0.931 . S
H1235 C1250 0.930 . S
C1236 H1224 0.930 . S
C1236 C1237 1.399 . S
C1236 C1241 1.399 . S
C1237 C1236 1.399 . S
C1237 C1238 1.376 . S
C1238 H1225 0.930 . S
C1238 C1237 1.376 . S
C1238 C1239 1.388 . S
C1239 H1226 0.930 . S
C1239 C1238 1.388 . S
C1239 C1240 1.390 . S
C1240 C1239 1.390 . S
C1240 C1241 1.394 . S
C1240 C1246 1.465 . S
C1241 C1236 1.399 . S
C1241 C1240 1.394 . S
C1241 C1242 1.516 . S
C1242 C1241 1.516 . S
C1242 C1243 1.502 . S
C1242 C1244 1.561 . S
C1242 C1245 1.526 . S
C1243 H1227 0.959 . S
C1243 H1228 0.959 . S
C1243 H1229 0.961 . S
C1243 C1242 1.502 . S
C1244 H1230 0.960 . S
C1244 H1231 0.961 . S
C1244 H1232 0.959 . S
C1244 C1242 1.561 . S
C1245 C1242 1.526 . S
C1245 C1246 1.396 . S
C1245 C1250 1.390 . S
C1246 C1240 1.465 . S
C1246 C1245 1.396 . S
C1246 C1247 1.399 . S
C1247 H1233 0.929 . S
C1247 C1246 1.399 . S
C1247 C1248 1.385 . S
C1248 H1234 0.931 . S
C1248 C1247 1.385 . S
C1248 C1249 1.389 . S
C1249 C1248 1.389 . S
C1249 C1250 1.387 . S
C1250 H1235 0.930 . S
C1250 C1245 1.390 . S
C1250 C1249 1.387 . S
H1251 C1263 0.930 . S
H1252 C1265 0.930 . S
H1253 C1266 0.930 . S
H1254 C1270 0.959 . S
H1255 C1270 0.959 . S
H1256 C1270 0.961 . S
H1257 C1271 0.960 . S
H1258 C1271 0.961 . S
H1259 C1271 0.959 . S
H1260 C1274 0.929 . S
H1261 C1275 0.931 . S
H1262 C1277 0.930 . S
C1263 H1251 0.930 . S
C1263 C1264 1.399 . S
C1263 C1268 1.399 . S
C1264 C1263 1.399 . S
C1264 C1265 1.376 . S
C1265 H1252 0.930 . S
C1265 C1264 1.376 . S
C1265 C1266 1.388 . S
C1266 H1253 0.930 . S
C1266 C1265 1.388 . S
C1266 C1267 1.390 . S
C1267 C1266 1.390 . S
C1267 C1268 1.394 . S
C1267 C1273 1.465 . S
C1268 C1263 1.399 . S
C1268 C1267 1.394 . S
C1268 C1269 1.516 . S
C1269 C1268 1.516 . S
C1269 C1270 1.502 . S
C1269 C1271 1.561 . S
C1269 C1272 1.526 . S
C1270 H1254 0.959 . S
C1270 H1255 0.959 . S
C1270 H1256 0.961 . S
C1270 C1269 1.502 . S
C1271 H1257 0.960 . S
C1271 H1258 0.961 . S
C1271 H1259 0.959 . S
C1271 C1269 1.561 . S
C1272 C1269 1.526 . S
C1272 C1273 1.396 . S
C1272 C1277 1.390 . S
C1273 C1267 1.465 . S
C1273 C1272 1.396 . S
C1273 C1274 1.399 . S
C1274 H1260 0.929 . S
C1274 C1273 1.399 . S
C1274 C1275 1.385 . S
C1275 H1261 0.931 . S
C1275 C1274 1.385 . S
C1275 C1276 1.389 . S
C1276 C1275 1.389 . S
C1276 C1277 1.387 . S
C1277 H1262 0.930 . S
C1277 C1272 1.390 . S
C1277 C1276 1.387 . S
H1278 C1290 0.930 . S
H1279 C1292 0.930 . S
H1280 C1293 0.930 . S
H1281 C1297 0.959 . S
H1282 C1297 0.959 . S
H1283 C1297 0.961 . S
H1284 C1298 0.960 . S
H1285 C1298 0.961 . S
H1286 C1298 0.959 . S
H1287 C1301 0.929 . S
H1288 C1302 0.931 . S
H1289 C1304 0.930 . S
C1290 H1278 0.930 . S
C1290 C1291 1.399 . S
C1290 C1295 1.399 . S
C1291 C1290 1.399 . S
C1291 C1292 1.376 . S
C1292 H1279 0.930 . S
C1292 C1291 1.376 . S
C1292 C1293 1.388 . S
C1293 H1280 0.930 . S
C1293 C1292 1.388 . S
C1293 C1294 1.390 . S
C1294 C1293 1.390 . S
C1294 C1295 1.394 . S
C1294 C1300 1.465 . S
C1295 C1290 1.399 . S
C1295 C1294 1.394 . S
C1295 C1296 1.516 . S
C1296 C1295 1.516 . S
C1296 C1297 1.502 . S
C1296 C1298 1.561 . S
C1296 C1299 1.526 . S
C1297 H1281 0.959 . S
C1297 H1282 0.959 . S
C1297 H1283 0.961 . S
C1297 C1296 1.502 . S
C1298 H1284 0.960 . S
C1298 H1285 0.961 . S
C1298 H1286 0.959 . S
C1298 C1296 1.561 . S
C1299 C1296 1.526 . S
C1299 C1300 1.396 . S
C1299 C1304 1.390 . S
C1300 C1294 1.465 . S
C1300 C1299 1.396 . S
C1300 C1301 1.399 . S
C1301 H1287 0.929 . S
C1301 C1300 1.399 . S
C1301 C1302 1.385 . S
C1302 H1288 0.931 . S
C1302 C1301 1.385 . S
C1302 C1303 1.389 . S
C1303 C1302 1.389 . S
C1303 C1304 1.387 . S
C1304 H1289 0.930 . S
C1304 C1299 1.390 . S
C1304 C1303 1.387 . S
H1305 C1317 0.930 1_565 S
H1306 C1319 0.930 . S
H1307 C1320 0.930 . S
H1308 C1324 0.959 . S
H1309 C1324 0.959 . S
H1310 C1324 0.961 . S
H1311 C1325 0.960 . S
H1312 C1325 0.961 . S
H1313 C1325 0.959 . S
H1314 C1328 0.929 . S
H1315 C1329 0.931 . S
H1316 C1331 0.930 . S
C1317 H1305 0.930 1_545 S
C1317 C1318 1.399 . S
C1317 C1322 1.399 . S
C1318 C1317 1.399 . S
C1318 C1319 1.376 . S
C1319 H1306 0.930 . S
C1319 C1318 1.376 . S
C1319 C1320 1.388 . S
C1320 H1307 0.930 . S
C1320 C1319 1.388 . S
C1320 C1321 1.390 . S
C1321 C1320 1.390 . S
C1321 C1322 1.394 . S
C1321 C1327 1.465 . S
C1322 C1317 1.399 . S
C1322 C1321 1.394 . S
C1322 C1323 1.516 1_545 S
C1323 C1322 1.516 1_565 S
C1323 C1324 1.502 . S
C1323 C1325 1.561 . S
C1323 C1326 1.526 . S
C1324 H1308 0.959 . S
C1324 H1309 0.959 . S
C1324 H1310 0.961 . S
C1324 C1323 1.502 . S
C1325 H1311 0.960 . S
C1325 H1312 0.961 . S
C1325 H1313 0.959 . S
C1325 C1323 1.561 . S
C1326 C1323 1.526 . S
C1326 C1327 1.396 1_565 S
C1326 C1331 1.390 . S
C1327 C1321 1.465 . S
C1327 C1326 1.396 1_545 S
C1327 C1328 1.399 . S
C1328 H1314 0.929 . S
C1328 C1327 1.399 . S
C1328 C1329 1.385 . S
C1329 H1315 0.931 . S
C1329 C1328 1.385 . S
C1329 C1330 1.389 1_545 S
C1330 C1329 1.389 1_565 S
C1330 C1331 1.387 . S
C1331 H1316 0.930 . S
C1331 C1326 1.390 . S
C1331 C1330 1.387 . S
H1332 C1344 0.930 . S
H1333 C1346 0.930 . S
H1334 C1347 0.930 1_655 S
H1335 C1351 0.962 1_655 S
H1336 C1351 0.959 . S
H1337 C1351 0.961 . S
H1338 C1352 0.960 . S
H1339 C1352 0.961 . S
H1340 C1352 0.959 . S
H1341 C1355 0.929 . S
H1342 C1356 0.931 . S
H1343 C1358 0.930 1_455 S
C1344 H1332 0.930 . S
C1344 C1345 1.399 . S
C1344 C1349 1.399 . S
C1345 C1344 1.399 . S
C1345 C1346 1.376 . S
C1346 H1333 0.930 . S
C1346 C1345 1.376 . S
C1346 C1347 1.388 . S
C1347 H1334 0.930 1_455 S
C1347 C1346 1.388 . S
C1347 C1348 1.390 . S
C1348 C1347 1.390 . S
C1348 C1349 1.394 . S
C1348 C1354 1.465 1_455 S
C1349 C1344 1.399 . S
C1349 C1348 1.394 . S
C1349 C1350 1.516 . S
C1350 C1349 1.516 . S
C1350 C1351 1.502 . S
C1350 C1352 1.561 . S
C1350 C1353 1.526 . S
C1351 H1335 0.962 1_455 S
C1351 H1336 0.959 . S
C1351 H1337 0.961 . S
C1351 C1350 1.502 . S
C1352 H1338 0.960 . S
C1352 H1339 0.961 . S
C1352 H1340 0.959 . S
C1352 C1350 1.561 . S
C1353 C1350 1.526 . S
C1353 C1354 1.396 1_455 S
C1353 C1358 1.390 1_455 S
C1354 C1348 1.465 1_655 S
C1354 C1353 1.396 1_655 S
C1354 C1355 1.399 . S
C1355 H1341 0.929 . S
C1355 C1354 1.399 . S
C1355 C1356 1.385 . S
C1356 H1342 0.931 . S
C1356 C1355 1.385 . S
C1356 C1357 1.389 . S
C1357 C1356 1.389 . S
C1357 C1358 1.387 . S
C1358 H1343 0.930 1_655 S
C1358 C1353 1.390 1_655 S
C1358 C1357 1.387 . S
H1359 C1371 0.930 . S
H1360 C1373 0.930 . S
H1361 C1374 0.930 . S
H1362 C1378 0.959 . S
H1363 C1378 0.959 . S
H1364 C1378 0.961 . S
H1365 C1379 0.960 . S
H1366 C1379 0.961 . S
H1367 C1379 0.959 . S
H1368 C1382 0.929 . S
H1369 C1383 0.931 . S
H1370 C1385 0.930 . S
C1371 H1359 0.930 . S
C1371 C1372 1.399 . S
C1371 C1376 1.399 . S
C1372 C1371 1.399 . S
C1372 C1373 1.376 . S
C1373 H1360 0.930 . S
C1373 C1372 1.376 . S
C1373 C1374 1.388 . S
C1374 H1361 0.930 . S
C1374 C1373 1.388 . S
C1374 C1375 1.390 . S
C1375 C1374 1.390 . S
C1375 C1376 1.394 . S
C1375 C1381 1.465 . S
C1376 C1371 1.399 . S
C1376 C1375 1.394 . S
C1376 C1377 1.516 . S
C1377 C1376 1.516 . S
C1377 C1378 1.502 . S
C1377 C1379 1.561 . S
C1377 C1380 1.526 . S
C1378 H1362 0.959 . S
C1378 H1363 0.959 . S
C1378 H1364 0.961 . S
C1378 C1377 1.502 . S
C1379 H1365 0.960 . S
C1379 H1366 0.961 . S
C1379 H1367 0.959 . S
C1379 C1377 1.561 . S
C1380 C1377 1.526 . S
C1380 C1381 1.396 . S
C1380 C1385 1.390 . S
C1381 C1375 1.465 . S
C1381 C1380 1.396 . S
C1381 C1382 1.399 . S
C1382 H1368 0.929 . S
C1382 C1381 1.399 . S
C1382 C1383 1.385 . S
C1383 H1369 0.931 . S
C1383 C1382 1.385 . S
C1383 C1384 1.389 . S
C1384 C1383 1.389 . S
C1384 C1385 1.387 . S
C1385 H1370 0.930 . S
C1385 C1380 1.390 . S
C1385 C1384 1.387 . S
H1386 C1398 0.930 . S
H1387 C1400 0.930 . S
H1388 C1401 0.933 . S
H1389 C1405 0.959 . S
H1390 C1405 0.959 . S
H1391 C1405 0.961 . S
H1392 C1406 0.960 . S
H1393 C1406 0.961 . S
H1394 C1406 0.959 . S
H1395 C1409 0.929 . S
H1396 C1410 0.931 . S
H1397 C1412 0.930 . S
C1398 H1386 0.930 . S
C1398 C1399 1.399 . S
C1398 C1403 1.399 . S
C1399 C1398 1.399 . S
C1399 C1400 1.376 . S
C1400 H1387 0.930 . S
C1400 C1399 1.376 . S
C1400 C1401 1.388 . S
C1401 H1388 0.933 . S
C1401 C1400 1.388 . S
C1401 C1402 1.390 . S
C1402 C1401 1.390 . S
C1402 C1403 1.394 . S
C1402 C1408 1.465 1_545 S
C1403 C1398 1.399 . S
C1403 C1402 1.394 . S
C1403 C1404 1.516 . S
C1404 C1403 1.516 . S
C1404 C1405 1.502 . S
C1404 C1406 1.561 . S
C1404 C1407 1.526 1_545 S
C1405 H1389 0.959 . S
C1405 H1390 0.959 . S
C1405 H1391 0.961 . S
C1405 C1404 1.502 . S
C1406 H1392 0.960 . S
C1406 H1393 0.961 . S
C1406 H1394 0.959 . S
C1406 C1404 1.561 . S
C1407 C1404 1.526 1_565 S
C1407 C1408 1.396 . S
C1407 C1412 1.390 . S
C1408 C1402 1.465 1_565 S
C1408 C1407 1.396 . S
C1408 C1409 1.399 . S
C1409 H1395 0.929 . S
C1409 C1408 1.399 . S
C1409 C1410 1.385 . S
C1410 H1396 0.931 . S
C1410 C1409 1.385 . S
C1410 C1411 1.389 . S
C1411 C1410 1.389 . S
C1411 C1412 1.387 . S
C1412 H1397 0.930 . S
C1412 C1407 1.390 . S
C1412 C1411 1.387 . S
H1413 C1425 0.930 . S
H1414 C1427 0.930 . S
H1415 C1428 0.930 . S
H1416 C1432 0.959 . S
H1417 C1432 0.959 1_655 S
H1418 C1432 0.961 . S
H1419 C1433 0.960 . S
H1420 C1433 0.961 . S
H1421 C1433 0.959 . S
H1422 C1436 0.929 1_455 S
H1423 C1437 0.931 . S
H1424 C1439 0.930 . S
C1425 H1413 0.930 . S
C1425 C1426 1.399 . S
C1425 C1430 1.399 . S
C1426 C1425 1.399 . S
C1426 C1427 1.376 . S
C1427 H1414 0.930 . S
C1427 C1426 1.376 . S
C1427 C1428 1.388 . S
C1428 H1415 0.930 . S
C1428 C1427 1.388 . S
C1428 C1429 1.390 . S
C1429 C1428 1.390 . S
C1429 C1430 1.394 . S
C1429 C1435 1.447 1_455 S
C1430 C1425 1.399 . S
C1430 C1429 1.394 . S
C1430 C1431 1.516 1_455 S
C1431 C1430 1.516 1_655 S
C1431 C1432 1.502 1_655 S
C1431 C1433 1.561 . S
C1431 C1434 1.526 . S
C1432 H1416 0.959 . S
C1432 H1417 0.959 1_455 S
C1432 H1418 0.961 . S
C1432 C1431 1.502 1_455 S
C1433 H1419 0.960 . S
C1433 H1420 0.961 . S
C1433 H1421 0.959 . S
C1433 C1431 1.561 . S
C1434 C1431 1.526 . S
C1434 C1435 1.397 . S
C1434 C1439 1.390 . S
C1435 C1429 1.447 1_655 S
C1435 C1434 1.397 . S
C1435 C1436 1.415 . S
C1436 H1422 0.929 1_655 S
C1436 C1435 1.415 . S
C1436 C1437 1.385 . S
C1437 H1423 0.931 . S
C1437 C1436 1.385 . S
C1437 C1438 1.389 . S
C1438 C1437 1.389 . S
C1438 C1439 1.387 . S
C1439 H1424 0.930 . S
C1439 C1434 1.390 . S
C1439 C1438 1.387 . S
H1440 C1452 0.930 . S
H1441 C1454 0.930 . S
H1442 C1455 0.930 . S
H1443 C1459 0.959 . S
H1444 C1459 0.959 . S
H1445 C1459 0.961 . S
H1446 C1460 0.960 . S
H1447 C1460 0.961 . S
H1448 C1460 0.959 . S
H1449 C1463 0.929 . S
H1450 C1464 0.931 . S
H1451 C1466 0.930 . S
C1452 H1440 0.930 . S
C1452 C1453 1.399 . S
C1452 C1457 1.399 . S
C1453 C1452 1.399 . S
C1453 C1454 1.376 . S
C1454 H1441 0.930 . S
C1454 C1453 1.376 . S
C1454 C1455 1.388 . S
C1455 H1442 0.930 . S
C1455 C1454 1.388 . S
C1455 C1456 1.390 . S
C1456 C1455 1.390 . S
C1456 C1457 1.394 . S
C1456 C1462 1.465 . S
C1457 C1452 1.399 . S
C1457 C1456 1.394 . S
C1457 C1458 1.516 . S
C1458 C1457 1.516 . S
C1458 C1459 1.502 . S
C1458 C1460 1.561 . S
C1458 C1461 1.526 . S
C1459 H1443 0.959 . S
C1459 H1444 0.959 . S
C1459 H1445 0.961 . S
C1459 C1458 1.502 . S
C1460 H1446 0.960 . S
C1460 H1447 0.961 . S
C1460 H1448 0.959 . S
C1460 C1458 1.561 . S
C1461 C1458 1.526 . S
C1461 C1462 1.396 . S
C1461 C1466 1.390 . S
C1462 C1456 1.465 . S
C1462 C1461 1.396 . S
C1462 C1463 1.399 . S
C1463 H1449 0.929 . S
C1463 C1462 1.399 . S
C1463 C1464 1.385 . S
C1464 H1450 0.931 . S
C1464 C1463 1.385 . S
C1464 C1465 1.389 . S
C1465 C1464 1.389 . S
C1465 C1466 1.387 . S
C1466 H1451 0.930 . S
C1466 C1461 1.390 . S
C1466 C1465 1.387 . S
H1467 C1479 0.930 . S
H1468 C1481 0.930 . S
H1469 C1482 0.930 . S
H1470 C1486 0.959 . S
H1471 C1486 0.959 . S
H1472 C1486 0.961 . S
H1473 C1487 0.960 . S
H1474 C1487 0.961 . S
H1475 C1487 0.959 . S
H1476 C1490 0.929 . S
H1477 C1491 0.931 . S
H1478 C1493 0.930 . S
C1479 H1467 0.930 . S
C1479 C1480 1.399 . S
C1479 C1484 1.399 . S
C1480 C1479 1.399 . S
C1480 C1481 1.376 . S
C1481 H1468 0.930 . S
C1481 C1480 1.376 . S
C1481 C1482 1.388 . S
C1482 H1469 0.930 . S
C1482 C1481 1.388 . S
C1482 C1483 1.390 . S
C1483 C1482 1.390 . S
C1483 C1484 1.394 . S
C1483 C1489 1.465 . S
C1484 C1479 1.399 . S
C1484 C1483 1.394 . S
C1484 C1485 1.516 . S
C1485 C1484 1.516 . S
C1485 C1486 1.502 . S
C1485 C1487 1.561 . S
C1485 C1488 1.526 . S
C1486 H1470 0.959 . S
C1486 H1471 0.959 . S
C1486 H1472 0.961 . S
C1486 C1485 1.502 . S
C1487 H1473 0.960 . S
C1487 H1474 0.961 . S
C1487 H1475 0.959 . S
C1487 C1485 1.561 . S
C1488 C1485 1.526 . S
C1488 C1489 1.396 . S
C1488 C1493 1.390 . S
C1489 C1483 1.465 . S
C1489 C1488 1.396 . S
C1489 C1490 1.399 . S
C1490 H1476 0.929 . S
C1490 C1489 1.399 . S
C1490 C1491 1.385 . S
C1491 H1477 0.931 . S
C1491 C1490 1.385 . S
C1491 C1492 1.389 . S
C1492 C1491 1.389 . S
C1492 C1493 1.387 . S
C1493 H1478 0.930 . S
C1493 C1488 1.390 . S
C1493 C1492 1.387 . S
H1494 C1506 0.930 . S
H1495 C1508 0.930 . S
H1496 C1509 0.930 . S
H1497 C1513 0.959 . S
H1498 C1513 0.959 . S
H1499 C1513 0.961 . S
H1500 C1514 0.960 . S
H1501 C1514 0.961 . S
H1502 C1514 0.959 . S
H1503 C1517 0.929 . S
H1504 C1518 0.931 . S
H1505 C1520 0.930 . S
C1506 H1494 0.930 . S
C1506 C1507 1.399 . S
C1506 C1511 1.399 . S
C1507 C1506 1.399 . S
C1507 C1508 1.376 . S
C1508 H1495 0.930 . S
C1508 C1507 1.376 . S
C1508 C1509 1.388 . S
C1509 H1496 0.930 . S
C1509 C1508 1.388 . S
C1509 C1510 1.390 . S
C1510 C1509 1.390 . S
C1510 C1511 1.394 . S
C1510 C1516 1.465 . S
C1511 C1506 1.399 . S
C1511 C1510 1.394 . S
C1511 C1512 1.516 . S
C1512 C1511 1.516 . S
C1512 C1513 1.502 . S
C1512 C1514 1.561 . S
C1512 C1515 1.526 . S
C1513 H1497 0.959 . S
C1513 H1498 0.959 . S
C1513 H1499 0.961 . S
C1513 C1512 1.502 . S
C1514 H1500 0.960 . S
C1514 H1501 0.961 . S
C1514 H1502 0.959 . S
C1514 C1512 1.561 . S
C1515 C1512 1.526 . S
C1515 C1516 1.396 . S
C1515 C1520 1.390 . S
C1516 C1510 1.465 . S
C1516 C1515 1.396 . S
C1516 C1517 1.399 . S
C1517 H1503 0.929 . S
C1517 C1516 1.399 . S
C1517 C1518 1.385 . S
C1518 H1504 0.931 . S
C1518 C1517 1.385 . S
C1518 C1519 1.389 . S
C1519 C1518 1.389 . S
C1519 C1520 1.387 . S
C1520 H1505 0.930 . S
C1520 C1515 1.390 . S
C1520 C1519 1.387 . S
H1521 C1533 0.930 . S
H1522 C1535 0.930 . S
H1523 C1536 0.930 . S
H1524 C1540 0.959 . S
H1525 C1540 0.959 . S
H1526 C1540 0.961 . S
H1527 C1541 0.960 . S
H1528 C1541 0.961 . S
H1529 C1541 0.959 . S
H1530 C1544 0.929 . S
H1531 C1545 0.931 . S
H1532 C1547 0.930 . S
C1533 H1521 0.930 . S
C1533 C1534 1.399 . S
C1533 C1538 1.399 . S
C1534 C1533 1.399 . S
C1534 C1535 1.376 . S
C1535 H1522 0.930 . S
C1535 C1534 1.376 . S
C1535 C1536 1.388 . S
C1536 H1523 0.930 . S
C1536 C1535 1.388 . S
C1536 C1537 1.390 . S
C1537 C1536 1.390 . S
C1537 C1538 1.394 . S
C1537 C1543 1.465 . S
C1538 C1533 1.399 . S
C1538 C1537 1.394 . S
C1538 C1539 1.516 . S
C1539 C1538 1.516 . S
C1539 C1540 1.502 . S
C1539 C1541 1.561 . S
C1539 C1542 1.526 . S
C1540 H1524 0.959 . S
C1540 H1525 0.959 . S
C1540 H1526 0.961 . S
C1540 C1539 1.502 . S
C1541 H1527 0.960 . S
C1541 H1528 0.961 . S
C1541 H1529 0.959 . S
C1541 C1539 1.561 . S
C1542 C1539 1.526 . S
C1542 C1543 1.396 . S
C1542 C1547 1.390 . S
C1543 C1537 1.465 . S
C1543 C1542 1.396 . S
C1543 C1544 1.399 . S
C1544 H1530 0.929 . S
C1544 C1543 1.399 . S
C1544 C1545 1.385 . S
C1545 H1531 0.931 . S
C1545 C1544 1.385 . S
C1545 C1546 1.389 . S
C1546 C1545 1.389 . S
C1546 C1547 1.387 . S
C1547 H1532 0.930 . S
C1547 C1542 1.390 . S
C1547 C1546 1.387 . S
H1548 C1560 0.930 . S
H1549 C1562 0.930 . S
H1550 C1563 0.930 . S
H1551 C1567 0.959 . S
H1552 C1567 0.959 . S
H1553 C1567 0.961 . S
H1554 C1568 0.960 . S
H1555 C1568 0.961 . S
H1556 C1568 0.959 . S
H1557 C1571 0.929 . S
H1558 C1572 0.931 . S
H1559 C1574 0.930 . S
C1560 H1548 0.930 . S
C1560 C1561 1.399 . S
C1560 C1565 1.399 . S
C1561 C1560 1.399 . S
C1561 C1562 1.376 . S
C1562 H1549 0.930 . S
C1562 C1561 1.376 . S
C1562 C1563 1.388 . S
C1563 H1550 0.930 . S
C1563 C1562 1.388 . S
C1563 C1564 1.390 . S
C1564 C1563 1.390 . S
C1564 C1565 1.394 . S
C1564 C1570 1.465 . S
C1565 C1560 1.399 . S
C1565 C1564 1.394 . S
C1565 C1566 1.516 . S
C1566 C1565 1.516 . S
C1566 C1567 1.502 . S
C1566 C1568 1.561 . S
C1566 C1569 1.526 . S
C1567 H1551 0.959 . S
C1567 H1552 0.959 . S
C1567 H1553 0.961 . S
C1567 C1566 1.502 . S
C1568 H1554 0.960 . S
C1568 H1555 0.961 . S
C1568 H1556 0.959 . S
C1568 C1566 1.561 . S
C1569 C1566 1.526 . S
C1569 C1570 1.396 . S
C1569 C1574 1.390 . S
C1570 C1564 1.465 . S
C1570 C1569 1.396 . S
C1570 C1571 1.399 . S
C1571 H1557 0.929 . S
C1571 C1570 1.399 . S
C1571 C1572 1.385 . S
C1572 H1558 0.931 . S
C1572 C1571 1.385 . S
C1572 C1573 1.389 . S
C1573 C1572 1.389 . S
C1573 C1574 1.387 . S
C1574 H1559 0.930 . S
C1574 C1569 1.390 . S
C1574 C1573 1.387 . S
H1575 C1587 0.930 . S
H1576 C1589 0.930 . S
H1577 C1590 0.930 . S
H1578 C1594 0.959 . S
H1579 C1594 0.959 . S
H1580 C1594 0.961 . S
H1581 C1595 0.960 . S
H1582 C1595 0.961 . S
H1583 C1595 0.959 . S
H1584 C1598 0.929 . S
H1585 C1599 0.931 . S
H1586 C1601 0.930 . S
C1587 H1575 0.930 . S
C1587 C1588 1.399 . S
C1587 C1592 1.399 . S
C1588 C1587 1.399 . S
C1588 C1589 1.376 . S
C1589 H1576 0.930 . S
C1589 C1588 1.376 . S
C1589 C1590 1.388 . S
C1590 H1577 0.930 . S
C1590 C1589 1.388 . S
C1590 C1591 1.390 . S
C1591 C1590 1.390 . S
C1591 C1592 1.394 . S
C1591 C1597 1.465 . S
C1592 C1587 1.399 . S
C1592 C1591 1.394 . S
C1592 C1593 1.516 . S
C1593 C1592 1.516 . S
C1593 C1594 1.502 . S
C1593 C1595 1.561 . S
C1593 C1596 1.526 . S
C1594 H1578 0.959 . S
C1594 H1579 0.959 . S
C1594 H1580 0.961 . S
C1594 C1593 1.502 . S
C1595 H1581 0.960 . S
C1595 H1582 0.961 . S
C1595 H1583 0.959 . S
C1595 C1593 1.561 . S
C1596 C1593 1.526 . S
C1596 C1597 1.396 . S
C1596 C1601 1.390 . S
C1597 C1591 1.465 . S
C1597 C1596 1.396 . S
C1597 C1598 1.399 . S
C1598 H1584 0.929 . S
C1598 C1597 1.399 . S
C1598 C1599 1.385 . S
C1599 H1585 0.931 . S
C1599 C1598 1.385 . S
C1599 C1600 1.389 . S
C1600 C1599 1.389 . S
C1600 C1601 1.387 . S
C1601 H1586 0.930 . S
C1601 C1596 1.390 . S
C1601 C1600 1.387 . S
H1602 C1614 0.930 . S
H1603 C1616 0.930 . S
H1604 C1617 0.930 . S
H1605 C1621 0.959 . S
H1606 C1621 0.959 . S
H1607 C1621 0.961 . S
H1608 C1622 0.960 . S
H1609 C1622 0.961 . S
H1610 C1622 0.959 . S
H1611 C1625 0.929 . S
H1612 C1626 0.931 . S
H1613 C1628 0.930 . S
C1614 H1602 0.930 . S
C1614 C1615 1.399 . S
C1614 C1619 1.399 . S
C1615 C1614 1.399 . S
C1615 C1616 1.376 . S
C1616 H1603 0.930 . S
C1616 C1615 1.376 . S
C1616 C1617 1.388 . S
C1617 H1604 0.930 . S
C1617 C1616 1.388 . S
C1617 C1618 1.390 . S
C1618 C1617 1.390 . S
C1618 C1619 1.394 . S
C1618 C1624 1.465 . S
C1619 C1614 1.399 . S
C1619 C1618 1.394 . S
C1619 C1620 1.516 . S
C1620 C1619 1.516 . S
C1620 C1621 1.502 . S
C1620 C1622 1.561 . S
C1620 C1623 1.526 . S
C1621 H1605 0.959 . S
C1621 H1606 0.959 . S
C1621 H1607 0.961 . S
C1621 C1620 1.502 . S
C1622 H1608 0.960 . S
C1622 H1609 0.961 . S
C1622 H1610 0.959 . S
C1622 C1620 1.561 . S
C1623 C1620 1.526 . S
C1623 C1624 1.396 . S
C1623 C1628 1.390 . S
C1624 C1618 1.465 . S
C1624 C1623 1.396 . S
C1624 C1625 1.399 . S
C1625 H1611 0.929 . S
C1625 C1624 1.399 . S
C1625 C1626 1.385 . S
C1626 H1612 0.931 . S
C1626 C1625 1.385 . S
C1626 C1627 1.389 . S
C1627 C1626 1.389 . S
C1627 C1628 1.387 . S
C1628 H1613 0.930 . S
C1628 C1623 1.390 . S
C1628 C1627 1.387 . S
H1629 C1641 0.930 . S
H1630 C1643 0.930 . S
H1631 C1644 0.930 . S
H1632 C1648 0.959 . S
H1633 C1648 0.959 . S
H1634 C1648 0.961 . S
H1635 C1649 0.960 . S
H1636 C1649 0.961 . S
H1637 C1649 0.959 . S
H1638 C1652 0.929 . S
H1639 C1653 0.931 . S
H1640 C1655 0.930 . S
C1641 H1629 0.930 . S
C1641 C1642 1.399 . S
C1641 C1646 1.399 . S
C1642 C1641 1.399 . S
C1642 C1643 1.376 . S
C1643 H1630 0.930 . S
C1643 C1642 1.376 . S
C1643 C1644 1.388 . S
C1644 H1631 0.930 . S
C1644 C1643 1.388 . S
C1644 C1645 1.390 . S
C1645 C1644 1.390 . S
C1645 C1646 1.394 . S
C1645 C1651 1.465 . S
C1646 C1641 1.399 . S
C1646 C1645 1.394 . S
C1646 C1647 1.516 . S
C1647 C1646 1.516 . S
C1647 C1648 1.502 . S
C1647 C1649 1.561 . S
C1647 C1650 1.526 . S
C1648 H1632 0.959 . S
C1648 H1633 0.959 . S
C1648 H1634 0.961 . S
C1648 C1647 1.502 . S
C1649 H1635 0.960 . S
C1649 H1636 0.961 . S
C1649 H1637 0.959 . S
C1649 C1647 1.561 . S
C1650 C1647 1.526 . S
C1650 C1651 1.396 . S
C1650 C1655 1.390 . S
C1651 C1645 1.465 . S
C1651 C1650 1.396 . S
C1651 C1652 1.399 . S
C1652 H1638 0.929 . S
C1652 C1651 1.399 . S
C1652 C1653 1.385 . S
C1653 H1639 0.931 . S
C1653 C1652 1.385 . S
C1653 C1654 1.389 . S
C1654 C1653 1.389 . S
C1654 C1655 1.387 . S
C1655 H1640 0.930 . S
C1655 C1650 1.390 . S
C1655 C1654 1.387 . S
H1656 C1668 0.930 . S
H1657 C1670 0.930 . S
H1658 C1671 0.930 . S
H1659 C1675 0.959 . S
H1660 C1675 0.959 . S
H1661 C1675 0.961 . S
H1662 C1676 0.960 . S
H1663 C1676 0.961 . S
H1664 C1676 0.959 . S
H1665 C1679 0.929 . S
H1666 C1680 0.931 . S
H1667 C1682 0.930 . S
C1668 H1656 0.930 . S
C1668 C1669 1.399 . S
C1668 C1673 1.399 . S
C1669 C1668 1.399 . S
C1669 C1670 1.376 . S
C1670 H1657 0.930 . S
C1670 C1669 1.376 . S
C1670 C1671 1.388 . S
C1671 H1658 0.930 . S
C1671 C1670 1.388 . S
C1671 C1672 1.390 . S
C1672 C1671 1.390 . S
C1672 C1673 1.394 . S
C1672 C1678 1.465 . S
C1673 C1668 1.399 . S
C1673 C1672 1.394 . S
C1673 C1674 1.516 . S
C1674 C1673 1.516 . S
C1674 C1675 1.502 . S
C1674 C1676 1.561 . S
C1674 C1677 1.526 . S
C1675 H1659 0.959 . S
C1675 H1660 0.959 . S
C1675 H1661 0.961 . S
C1675 C1674 1.502 . S
C1676 H1662 0.960 . S
C1676 H1663 0.961 . S
C1676 H1664 0.959 . S
C1676 C1674 1.561 . S
C1677 C1674 1.526 . S
C1677 C1678 1.396 . S
C1677 C1682 1.390 . S
C1678 C1672 1.465 . S
C1678 C1677 1.396 . S
C1678 C1679 1.399 . S
C1679 H1665 0.929 . S
C1679 C1678 1.399 . S
C1679 C1680 1.385 . S
C1680 H1666 0.931 . S
C1680 C1679 1.385 . S
C1680 C1681 1.389 . S
C1681 C1680 1.389 . S
C1681 C1682 1.387 . S
C1682 H1667 0.930 . S
C1682 C1677 1.390 . S
C1682 C1681 1.387 . S
H1683 C1695 0.930 . S
H1684 C1697 0.930 . S
H1685 C1698 0.930 . S
H1686 C1702 0.959 . S
H1687 C1702 0.959 . S
H1688 C1702 0.961 . S
H1689 C1703 0.960 . S
H1690 C1703 0.961 . S
H1691 C1703 0.959 . S
H1692 C1706 0.929 . S
H1693 C1707 0.931 . S
H1694 C1709 0.930 . S
C1695 H1683 0.930 . S
C1695 C1696 1.399 . S
C1695 C1700 1.399 . S
C1696 C1695 1.399 . S
C1696 C1697 1.376 . S
C1697 H1684 0.930 . S
C1697 C1696 1.376 . S
C1697 C1698 1.388 . S
C1698 H1685 0.930 . S
C1698 C1697 1.388 . S
C1698 C1699 1.390 . S
C1699 C1698 1.390 . S
C1699 C1700 1.394 . S
C1699 C1705 1.465 . S
C1700 C1695 1.399 . S
C1700 C1699 1.394 . S
C1700 C1701 1.516 . S
C1701 C1700 1.516 . S
C1701 C1702 1.502 . S
C1701 C1703 1.561 . S
C1701 C1704 1.526 . S
C1702 H1686 0.959 . S
C1702 H1687 0.959 . S
C1702 H1688 0.961 . S
C1702 C1701 1.502 . S
C1703 H1689 0.960 . S
C1703 H1690 0.961 . S
C1703 H1691 0.959 . S
C1703 C1701 1.561 . S
C1704 C1701 1.526 . S
C1704 C1705 1.396 . S
C1704 C1709 1.390 . S
C1705 C1699 1.465 . S
C1705 C1704 1.396 . S
C1705 C1706 1.399 . S
C1706 H1692 0.929 . S
C1706 C1705 1.399 . S
C1706 C1707 1.385 . S
C1707 H1693 0.931 . S
C1707 C1706 1.385 . S
C1707 C1708 1.389 . S
C1708 C1707 1.389 . S
C1708 C1709 1.387 . S
C1709 H1694 0.930 . S
C1709 C1704 1.390 . S
C1709 C1708 1.387 . S
H1710 C1722 0.930 . S
H1711 C1724 0.930 . S
H1712 C1725 0.930 . S
H1713 C1729 0.959 . S
H1714 C1729 0.959 . S
H1715 C1729 0.961 . S
H1716 C1730 0.960 . S
H1717 C1730 0.961 . S
H1718 C1730 0.959 . S
H1719 C1733 0.929 . S
H1720 C1734 0.931 . S
H1721 C1736 0.930 . S
C1722 H1710 0.930 . S
C1722 C1723 1.399 . S
C1722 C1727 1.399 . S
C1723 C1722 1.399 . S
C1723 C1724 1.376 . S
C1724 H1711 0.930 . S
C1724 C1723 1.376 . S
C1724 C1725 1.388 . S
C1725 H1712 0.930 . S
C1725 C1724 1.388 . S
C1725 C1726 1.390 . S
C1726 C1725 1.390 . S
C1726 C1727 1.394 . S
C1726 C1732 1.465 . S
C1727 C1722 1.399 . S
C1727 C1726 1.394 . S
C1727 C1728 1.516 . S
C1728 C1727 1.516 . S
C1728 C1729 1.502 . S
C1728 C1730 1.561 . S
C1728 C1731 1.526 . S
C1729 H1713 0.959 . S
C1729 H1714 0.959 . S
C1729 H1715 0.961 . S
C1729 C1728 1.502 . S
C1730 H1716 0.960 . S
C1730 H1717 0.961 . S
C1730 H1718 0.959 . S
C1730 C1728 1.561 . S
C1731 C1728 1.526 . S
C1731 C1732 1.396 . S
C1731 C1736 1.390 . S
C1732 C1726 1.465 . S
C1732 C1731 1.396 . S
C1732 C1733 1.399 . S
C1733 H1719 0.929 . S
C1733 C1732 1.399 . S
C1733 C1734 1.385 . S
C1734 H1720 0.931 . S
C1734 C1733 1.385 . S
C1734 C1735 1.389 . S
C1735 C1734 1.389 . S
C1735 C1736 1.387 . S
C1736 H1721 0.930 . S
C1736 C1731 1.390 . S
C1736 C1735 1.387 . S
H1737 C1749 0.930 . S
H1738 C1751 0.930 . S
H1739 C1752 0.930 . S
H1740 C1756 0.959 . S
H1741 C1756 0.959 . S
H1742 C1756 0.961 . S
H1743 C1757 0.960 . S
H1744 C1757 0.961 . S
H1745 C1757 0.959 . S
H1746 C1760 0.929 . S
H1747 C1761 0.931 . S
H1748 C1763 0.930 . S
C1749 H1737 0.930 . S
C1749 C1750 1.399 . S
C1749 C1754 1.399 . S
C1750 C1749 1.399 . S
C1750 C1751 1.376 . S
C1751 H1738 0.930 . S
C1751 C1750 1.376 . S
C1751 C1752 1.388 . S
C1752 H1739 0.930 . S
C1752 C1751 1.388 . S
C1752 C1753 1.390 . S
C1753 C1752 1.390 . S
C1753 C1754 1.394 . S
C1753 C1759 1.465 . S
C1754 C1749 1.399 . S
C1754 C1753 1.394 . S
C1754 C1755 1.516 . S
C1755 C1754 1.516 . S
C1755 C1756 1.502 . S
C1755 C1757 1.561 . S
C1755 C1758 1.526 . S
C1756 H1740 0.959 . S
C1756 H1741 0.959 . S
C1756 H1742 0.961 . S
C1756 C1755 1.502 . S
C1757 H1743 0.960 . S
C1757 H1744 0.961 . S
C1757 H1745 0.959 . S
C1757 C1755 1.561 . S
C1758 C1755 1.526 . S
C1758 C1759 1.396 . S
C1758 C1763 1.390 . S
C1759 C1753 1.465 . S
C1759 C1758 1.396 . S
C1759 C1760 1.399 . S
C1760 H1746 0.929 . S
C1760 C1759 1.399 . S
C1760 C1761 1.385 . S
C1761 H1747 0.931 . S
C1761 C1760 1.385 . S
C1761 C1762 1.389 . S
C1762 C1761 1.389 . S
C1762 C1763 1.387 . S
C1763 H1748 0.930 . S
C1763 C1758 1.390 . S
C1763 C1762 1.387 . S
H1764 C1776 0.930 . S
H1765 C1778 0.930 . S
H1766 C1779 0.930 . S
H1767 C1783 0.959 . S
H1768 C1783 0.959 . S
H1769 C1783 0.961 . S
H1770 C1784 0.960 . S
H1771 C1784 0.961 . S
H1772 C1784 0.959 . S
H1773 C1787 0.929 . S
H1774 C1788 0.931 . S
H1775 C1790 0.930 . S
C1776 H1764 0.930 . S
C1776 C1777 1.399 . S
C1776 C1781 1.399 . S
C1777 C1776 1.399 . S
C1777 C1778 1.376 . S
C1778 H1765 0.930 . S
C1778 C1777 1.376 . S
C1778 C1779 1.388 . S
C1779 H1766 0.930 . S
C1779 C1778 1.388 . S
C1779 C1780 1.390 . S
C1780 C1779 1.390 . S
C1780 C1781 1.394 . S
C1780 C1786 1.465 . S
C1781 C1776 1.399 . S
C1781 C1780 1.394 . S
C1781 C1782 1.516 . S
C1782 C1781 1.516 . S
C1782 C1783 1.502 . S
C1782 C1784 1.561 . S
C1782 C1785 1.526 . S
C1783 H1767 0.959 . S
C1783 H1768 0.959 . S
C1783 H1769 0.961 . S
C1783 C1782 1.502 . S
C1784 H1770 0.960 . S
C1784 H1771 0.961 . S
C1784 H1772 0.959 . S
C1784 C1782 1.561 . S
C1785 C1782 1.526 . S
C1785 C1786 1.396 . S
C1785 C1790 1.390 . S
C1786 C1780 1.465 . S
C1786 C1785 1.396 . S
C1786 C1787 1.399 . S
C1787 H1773 0.929 . S
C1787 C1786 1.399 . S
C1787 C1788 1.385 . S
C1788 H1774 0.931 . S
C1788 C1787 1.385 . S
C1788 C1789 1.389 . S
C1789 C1788 1.389 . S
C1789 C1790 1.387 . S
C1790 H1775 0.930 . S
C1790 C1785 1.390 . S
C1790 C1789 1.387 . S
H1791 C1803 0.930 . S
H1792 C1805 0.930 . S
H1793 C1806 0.930 . S
H1794 C1810 0.959 . S
H1795 C1810 0.959 . S
H1796 C1810 0.961 . S
H1797 C1811 0.960 . S
H1798 C1811 0.961 . S
H1799 C1811 0.959 . S
H1800 C1814 0.929 . S
H1801 C1815 0.931 . S
H1802 C1817 0.930 . S
C1803 H1791 0.930 . S
C1803 C1804 1.399 1_565 S
C1803 C1808 1.399 . S
C1804 C1803 1.399 1_545 S
C1804 C1805 1.376 . S
C1805 H1792 0.930 . S
C1805 C1804 1.376 . S
C1805 C1806 1.388 . S
C1806 H1793 0.930 . S
C1806 C1805 1.388 . S
C1806 C1807 1.390 . S
C1807 C1806 1.390 . S
C1807 C1808 1.394 1_545 S
C1807 C1813 1.465 1_545 S
C1808 C1803 1.399 . S
C1808 C1807 1.394 1_565 S
C1808 C1809 1.516 . S
C1809 C1808 1.516 . S
C1809 C1810 1.502 . S
C1809 C1811 1.561 . S
C1809 C1812 1.526 . S
C1810 H1794 0.959 . S
C1810 H1795 0.959 . S
C1810 H1796 0.961 . S
C1810 C1809 1.502 . S
C1811 H1797 0.960 . S
C1811 H1798 0.961 . S
C1811 H1799 0.959 . S
C1811 C1809 1.561 . S
C1812 C1809 1.526 . S
C1812 C1813 1.396 . S
C1812 C1817 1.390 . S
C1813 C1807 1.465 1_565 S
C1813 C1812 1.396 . S
C1813 C1814 1.399 1_565 S
C1814 H1800 0.929 . S
C1814 C1813 1.399 1_545 S
C1814 C1815 1.385 . S
C1815 H1801 0.931 . S
C1815 C1814 1.385 . S
C1815 C1816 1.389 1_545 S
C1816 C1815 1.389 1_565 S
C1816 C1817 1.387 . S
C1817 H1802 0.930 . S
C1817 C1812 1.390 . S
C1817 C1816 1.387 . S
H1818 C1830 0.930 . S
H1819 C1832 0.930 . S
H1820 C1833 0.930 . S
H1821 C1837 0.959 . S
H1822 C1837 0.959 . S
H1823 C1837 0.961 . S
H1824 C1838 0.960 . S
H1825 C1838 0.961 . S
H1826 C1838 0.959 . S
H1827 C1841 0.929 . S
H1828 C1842 0.931 1_655 S
H1829 C1844 0.930 . S
C1830 H1818 0.930 . S
C1830 C1831 1.399 . S
C1830 C1835 1.399 . S
C1831 C1830 1.399 . S
C1831 C1832 1.376 . S
C1832 H1819 0.930 . S
C1832 C1831 1.376 . S
C1832 C1833 1.388 . S
C1833 H1820 0.930 . S
C1833 C1832 1.388 . S
C1833 C1834 1.390 . S
C1834 C1833 1.390 . S
C1834 C1835 1.394 . S
C1834 C1840 1.465 . S
C1835 C1830 1.399 . S
C1835 C1834 1.394 . S
C1835 C1836 1.516 . S
C1836 C1835 1.516 . S
C1836 C1837 1.502 . S
C1836 C1838 1.561 . S
C1836 C1839 1.526 . S
C1837 H1821 0.959 . S
C1837 H1822 0.959 . S
C1837 H1823 0.961 . S
C1837 C1836 1.502 . S
C1838 H1824 0.960 . S
C1838 H1825 0.961 . S
C1838 H1826 0.959 . S
C1838 C1836 1.561 . S
C1839 C1836 1.526 . S
C1839 C1840 1.396 . S
C1839 C1844 1.390 . S
C1840 C1834 1.465 . S
C1840 C1839 1.396 . S
C1840 C1841 1.399 . S
C1841 H1827 0.929 . S
C1841 C1840 1.399 . S
C1841 C1842 1.385 . S
C1842 H1828 0.931 1_455 S
C1842 C1841 1.385 . S
C1842 C1843 1.389 . S
C1843 C1842 1.389 . S
C1843 C1844 1.387 . S
C1844 H1829 0.930 . S
C1844 C1839 1.390 . S
C1844 C1843 1.387 . S
H1845 C1857 0.930 . S
H1846 C1859 0.930 . S
H1847 C1860 0.930 . S
H1848 C1864 0.959 . S
H1849 C1864 0.959 . S
H1850 C1864 0.961 . S
H1851 C1865 0.960 . S
H1852 C1865 0.961 . S
H1853 C1865 0.959 . S
H1854 C1868 0.929 . S
H1855 C1869 0.931 . S
H1856 C1871 0.930 . S
C1857 H1845 0.930 . S
C1857 C1858 1.399 . S
C1857 C1862 1.399 . S
C1858 C1857 1.399 . S
C1858 C1859 1.376 . S
C1859 H1846 0.930 . S
C1859 C1858 1.376 . S
C1859 C1860 1.388 . S
C1860 H1847 0.930 . S
C1860 C1859 1.388 . S
C1860 C1861 1.390 . S
C1861 C1860 1.390 . S
C1861 C1862 1.394 . S
C1861 C1867 1.465 1_556 S
C1862 C1857 1.399 . S
C1862 C1861 1.394 . S
C1862 C1863 1.515 . S
C1863 C1862 1.515 . S
C1863 C1864 1.504 1_556 S
C1863 C1865 1.558 . S
C1863 C1866 1.527 1_556 S
C1864 H1848 0.959 . S
C1864 H1849 0.959 . S
C1864 H1850 0.961 . S
C1864 C1863 1.504 1_554 S
C1865 H1851 0.960 . S
C1865 H1852 0.961 . S
C1865 H1853 0.959 . S
C1865 C1863 1.558 . S
C1866 C1863 1.527 1_554 S
C1866 C1867 1.396 . S
C1866 C1871 1.390 . S
C1867 C1861 1.465 1_554 S
C1867 C1866 1.396 . S
C1867 C1868 1.399 . S
C1868 H1854 0.929 . S
C1868 C1867 1.399 . S
C1868 C1869 1.385 . S
C1869 H1855 0.931 . S
C1869 C1868 1.385 . S
C1869 C1870 1.389 . S
C1870 C1869 1.389 . S
C1870 C1871 1.387 . S
C1871 H1856 0.930 . S
C1871 C1866 1.390 . S
C1871 C1870 1.387 . S
H1872 C1884 0.945 1_554 S
H1873 C1886 0.930 . S
H1874 C1887 0.930 . S
H1875 C1891 0.959 . S
H1876 C1891 0.959 . S
H1877 C1891 0.961 . S
H1878 C1892 0.960 . S
H1879 C1892 0.961 . S
H1880 C1892 0.959 . S
H1881 C1895 0.929 . S
H1882 C1896 0.931 . S
H1883 C1898 0.930 . S
C1884 H1872 0.945 1_556 S
C1884 C1885 1.399 . S
C1884 C1889 1.399 1_556 S
C1885 C1884 1.399 . S
C1885 C1886 1.376 . S
C1886 H1873 0.930 . S
C1886 C1885 1.376 . S
C1886 C1887 1.388 . S
C1887 H1874 0.930 . S
C1887 C1886 1.388 . S
C1887 C1888 1.390 . S
C1888 C1887 1.390 . S
C1888 C1889 1.394 1_556 S
C1888 C1894 1.465 1_556 S
C1889 C1884 1.399 1_554 S
C1889 C1888 1.394 1_554 S
C1889 C1890 1.516 . S
C1890 C1889 1.516 . S
C1890 C1891 1.502 1_545 S
C1890 C1892 1.561 . S
C1890 C1893 1.526 . S
C1891 H1875 0.959 . S
C1891 H1876 0.959 . S
C1891 H1877 0.961 . S
C1891 C1890 1.502 1_565 S
C1892 H1878 0.960 . S
C1892 H1879 0.961 . S
C1892 H1880 0.959 . S
C1892 C1890 1.561 . S
C1893 C1890 1.526 . S
C1893 C1894 1.396 . S
C1893 C1898 1.390 . S
C1894 C1888 1.465 1_554 S
C1894 C1893 1.396 . S
C1894 C1895 1.399 1_554 S
C1895 H1881 0.929 . S
C1895 C1894 1.399 1_556 S
C1895 C1896 1.385 1_556 S
C1896 H1882 0.931 . S
C1896 C1895 1.385 1_554 S
C1896 C1897 1.389 . S
C1897 C1896 1.389 . S
C1897 C1898 1.387 . S
C1898 H1883 0.930 . S
C1898 C1893 1.390 . S
C1898 C1897 1.387 . S
H1899 C1911 0.930 . S
H1900 C1913 0.930 . S
H1901 C1914 0.930 1_554 S
H1902 C1918 0.959 . S
H1903 C1918 0.959 . S
H1904 C1918 0.961 . S
H1905 C1919 0.960 . S
H1906 C1919 0.961 . S
H1907 C1919 0.959 . S
H1908 C1922 0.929 . S
H1909 C1923 0.931 . S
H1910 C1925 0.930 1_455 S
C1911 H1899 0.930 . S
C1911 C1912 1.386 1_455 S
C1911 C1916 1.399 . S
C1912 C1911 1.386 1_655 S
C1912 C1913 1.388 . S
C1913 H1900 0.930 . S
C1913 C1912 1.388 . S
C1913 C1914 1.388 . S
C1914 H1901 0.930 1_556 S
C1914 C1913 1.388 . S
C1914 C1915 1.390 1_556 S
C1915 C1914 1.390 1_554 S
C1915 C1916 1.394 1_654 S
C1915 C1921 1.465 . S
C1916 C1911 1.399 . S
C1916 C1915 1.394 1_456 S
C1916 C1917 1.516 1_556 S
C1917 C1916 1.516 1_554 S
C1917 C1918 1.502 1_554 S
C1917 C1919 1.561 . S
C1917 C1920 1.526 1_455 S
C1918 H1902 0.959 . S
C1918 H1903 0.959 . S
C1918 H1904 0.961 . S
C1918 C1917 1.502 1_556 S
C1919 H1905 0.960 . S
C1919 H1906 0.961 . S
C1919 H1907 0.959 . S
C1919 C1917 1.561 . S
C1920 C1917 1.526 1_655 S
C1920 C1921 1.396 . S
C1920 C1925 1.390 . S
C1921 C1915 1.465 . S
C1921 C1920 1.396 . S
C1921 C1922 1.399 . S
C1922 H1908 0.929 . S
C1922 C1921 1.399 . S
C1922 C1923 1.385 . S
C1923 H1909 0.931 . S
C1923 C1922 1.385 . S
C1923 C1924 1.389 . S
C1924 C1923 1.389 . S
C1924 C1925 1.387 . S
C1925 H1910 0.930 1_655 S
C1925 C1920 1.390 . S
C1925 C1924 1.387 . S
C967 C39 2.480 . S
C979 C781 2.509 1_554 S
C994 C674 2.511 1_554 S
C1006 C91 2.492 . S
C1021 C144 2.501 . S
C1033 C728 2.513 1_554 S
C1048 C357 2.480 . S
C1060 C145 2.510 . S
C1075 C409 2.499 . S
C1087 C38 2.520 . S
C1102 C463 2.485 . S
C1114 C92 2.495 . S
C1129 C181 1.635 . S
C1141 C605 1.635 . S
C1156 C499 1.605 . S
C1168 C234 1.665 . S
C1183 C552 1.606 . S
C1195 C294 1.663 . S
C1210 C287 1.631 . S
C1222 C817 1.639 . S
C1237 C188 1.588 . S
C1249 C870 1.671 . S
C1264 C930 1.665 . S
C1276 C241 1.587 . S
C1291 C675 2.485 . S
C1303 C462 2.505 . S
C1318 C356 2.514 . S
C1330 C727 2.491 . S
C1345 C780 2.508 . S
C1357 C410 2.509 . S
C1372 C923 1.679 . S
C1384 C506 1.586 . S
C1399 C559 1.602 . S
C1411 C824 1.647 . S
C1426 C877 1.639 . S
C1438 C612 1.624 . S
C1453 C833 1.553 . S
C1465 C29 1.588 . S
C1480 C75 1.557 . S
C1492 C886 1.590 . S
C1507 C128 1.586 . S
C1519 C940 1.571 . S
C1534 C135 1.582 . S
C1546 C621 1.573 . S
C1561 C515 1.554 . S
C1573 C22 1.584 . S
C1588 C82 1.591 . S
C1600 C568 1.556 . S
C1615 C347 1.571 . S
C1627 C197 1.568 . S
C1642 C393 1.590 . S
C1654 C250 1.555 . S
C1669 C304 1.590 . S
C1681 C453 1.567 . S
C1696 C303 1.554 . S
C1708 C771 1.585 . S
C1723 C198 1.576 . S
C1735 C658 1.564 . S
C1750 C251 1.591 . S
C1762 C718 1.561 . S
C1777 C446 1.585 . S
C1789 C939 1.554 . S
C1804 C340 1.554 . S
C1816 C834 1.590 . S
C1831 C887 1.569 . S
C1843 C400 1.574 . S
C1858 C665 1.560 . S
C1870 C516 1.590 . S
C1885 C711 1.583 . S
C1897 C569 1.574 . S
C1912 C764 1.589 1_655 S
C1924 C622 1.561 . S
