# Generated by pormake.
# Topology tfs, (6)-cn, num edge types: 1
# Building blocks:
#     Node 0, Type 0, BuildingBlock: BETDAH_clean_sbu_0, # of connection points: 6
#     Node 1, Type 0, BuildingBlock: BETDAH_clean_sbu_0, # of connection points: 6
#     Node 2, Type 0, BuildingBlock: BETDAH_clean_sbu_0, # of connection points: 6
#     Node 3, Type 0, BuildingBlock: BETDAH_clean_sbu_0, # of connection points: 6
#     Node 4, Type 0, BuildingBlock: BETDAH_clean_sbu_0, # of connection points: 6
#     Node 5, Type 0, BuildingBlock: BETDAH_clean_sbu_0, # of connection points: 6
#     Edge 6, Type (0, 0), BuildingBlock: ZUJKAS_clean_linker_0, # of connection points: 2
#     Edge 7, Type (0, 0), BuildingBlock: ZUJKAS_clean_linker_0, # of connection points: 2
#     Edge 8, Type (0, 0), BuildingBlock: ZUJKAS_clean_linker_0, # of connection points: 2
#     Edge 9, Type (0, 0), BuildingBlock: ZUJKAS_clean_linker_0, # of connection points: 2
#     Edge 10, Type (0, 0), BuildingBlock: ZUJKAS_clean_linker_0, # of connection points: 2
#     Edge 11, Type (0, 0), BuildingBlock: ZUJKAS_clean_linker_0, # of connection points: 2
#     Edge 12, Type (0, 0), BuildingBlock: ZUJKAS_clean_linker_0, # of connection points: 2
#     Edge 13, Type (0, 0), BuildingBlock: ZUJKAS_clean_linker_0, # of connection points: 2
#     Edge 14, Type (0, 0), BuildingBlock: ZUJKAS_clean_linker_0, # of connection points: 2
#     Edge 15, Type (0, 0), BuildingBlock: ZUJKAS_clean_linker_0, # of connection points: 2
#     Edge 16, Type (0, 0), BuildingBlock: ZUJKAS_clean_linker_0, # of connection points: 2
#     Edge 17, Type (0, 0), BuildingBlock: ZUJKAS_clean_linker_0, # of connection points: 2
#     Edge 18, Type (0, 0), BuildingBlock: ZUJKAS_clean_linker_0, # of connection points: 2
#     Edge 19, Type (0, 0), BuildingBlock: ZUJKAS_clean_linker_0, # of connection points: 2
#     Edge 20, Type (0, 0), BuildingBlock: ZUJKAS_clean_linker_0, # of connection points: 2
#     Edge 21, Type (0, 0), BuildingBlock: ZUJKAS_clean_linker_0, # of connection points: 2
#     Edge 22, Type (0, 0), BuildingBlock: ZUJKAS_clean_linker_0, # of connection points: 2
#     Edge 23, Type (0, 0), BuildingBlock: ZUJKAS_clean_linker_0, # of connection points: 2
# Relax obj value: 0.532
# Max RMSD: 0.431
# Mean RMSD: 0.345
data_MOF--net-tfs--node1-BETDAH_clean_sbu_0--edge1-ZUJKAS_clean_linker_0
_symmetry_space_group_name_H-M    P1
_symmetry_Int_Tables_number       1
_symmetry_cell_setting            triclinic
loop_
_symmetry_equiv_pos_as_xyz
'x, y, z'
_cell_length_a     63.608138
_cell_length_b     60.4724
_cell_length_c     17.03986
_cell_angle_alpha  98.00097
_cell_angle_beta   92.547019
_cell_angle_gamma 125.7833
loop_
_atom_site_label
_atom_site_type_symbol
_atom_site_fract_x
_atom_site_fract_y
_atom_site_fract_z
_atom_type_partial_charge
Ho0 Ho 0.34987 0.46414 0.70141 0.0
Ho1 Ho 0.33335 0.50199 0.76986 0.0
C2 C 0.28795 0.43748 0.66733 0.0
C3 C 0.36539 0.43237 0.67388 0.0
C4 C 0.35878 0.40468 0.63217 0.0
C5 C 0.35808 0.38619 0.6761 0.0
C6 C 0.35743 0.36331 0.63822 0.0
C7 C 0.3574 0.35784 0.55439 0.0
C8 C 0.35626 0.3755 0.5105 0.0
C9 C 0.35725 0.39843 0.54842 0.0
C10 C 0.34278 0.49007 0.60144 0.0
C11 C 0.39589 0.53257 0.78294 0.0
C12 C 0.3147 0.53051 0.7917 0.0
C13 C 0.32035 0.55846 0.81269 0.0
C14 C 0.32825 0.57616 0.75763 0.0
C15 C 0.32885 0.59997 0.77303 0.0
C16 C 0.32141 0.60698 0.84415 0.0
C17 C 0.31477 0.58957 0.90057 0.0
C18 C 0.31411 0.56581 0.88481 0.0
C19 C 0.33725 0.47312 0.87089 0.0
O20 O 0.30547 0.43213 0.67101 0.0
O21 O 0.29478 0.46297 0.69515 0.0
O22 O 0.3681 0.44951 0.62904 0.0
O23 O 0.35555 0.43427 0.73846 0.0
O24 O 0.33736 0.4656 0.57878 0.0
O25 O 0.35351 0.50031 0.67293 0.0
O26 O 0.37713 0.53599 0.78783 0.0
O27 O 0.38991 0.50701 0.75879 0.0
O28 O 0.31962 0.52092 0.84854 0.0
O29 O 0.31912 0.52315 0.72201 0.0
O30 O 0.34328 0.49788 0.8924 0.0
O31 O 0.32813 0.46454 0.79746 0.0
H32 H 0.35923 0.39011 0.7407 0.0
H33 H 0.35805 0.35074 0.67618 0.0
H34 H 0.35496 0.37219 0.44606 0.0
H35 H 0.35766 0.41187 0.5116 0.0
H36 H 0.33312 0.57115 0.70102 0.0
H37 H 0.33451 0.61202 0.72681 0.0
H38 H 0.3093 0.59327 0.95703 0.0
H39 H 0.3077 0.55251 0.9284 0.0
Ho40 Ho 0.87935 0.15702 0.11924 0.0
Ho41 Ho 0.81655 0.13184 0.08134 0.0
C42 C 0.83412 0.10229 0.1888 0.0
C43 C 0.92889 0.18259 0.17766 0.0
C44 C 0.95756 0.19739 0.21151 0.0
C45 C 0.96515 0.19736 0.29044 0.0
C46 C 0.99191 0.21247 0.32404 0.0
C47 C 1.01254 0.22812 0.27993 0.0
C48 C 1.00461 0.22711 0.19944 0.0
C49 C 0.97783 0.2124 0.16648 0.0
C50 C 0.85285 0.12135 0.97462 0.0
C51 C 0.86075 0.18646 0.02296 0.0
C52 C 0.7691 0.11371 0.01762 0.0
C53 C 0.74799 0.1185 0.0145 0.0
C54 C 0.74566 0.13196 0.95672 0.0
C55 C 0.72416 0.13334 0.94695 0.0
C56 C 0.70377 0.12105 -0.00605 0.0
C57 C 0.7063 0.10781 0.05205 0.0
C58 C 0.7278 0.10652 0.06192 0.0
C59 C 0.84429 0.17075 0.22129 0.0
O60 O 0.85921 0.12397 0.19448 0.0
O61 O 0.8147 0.0989 0.14053 0.0
O62 O 0.92123 0.18853 0.11655 0.0
O63 O 0.9094 0.16219 0.20562 0.0
O64 O 0.87815 0.13817 -0.0059 0.0
O65 O 0.8428 0.12135 0.03728 0.0
O66 O 0.8379 0.16184 0.00116 0.0
O67 O 0.87891 0.19116 0.07926 0.0
O68 O 0.77395 0.10593 0.07982 0.0
O69 O 0.79048 0.12994 -0.0121 0.0
O70 O 0.81909 0.15576 0.2007 0.0
O71 O 0.85288 0.16682 0.16003 0.0
H72 H 0.95031 0.18613 0.32747 0.0
H73 H 0.99615 0.21228 0.38591 0.0
H74 H 1.01897 0.23766 0.16069 0.0
H75 H 0.97302 0.21279 0.10515 0.0
H76 H 0.76022 0.14097 0.9173 0.0
H77 H 0.72325 0.14344 0.90064 0.0
H78 H 0.6916 0.09835 0.09076 0.0
H79 H 0.72829 0.09554 0.1062 0.0
Ho80 Ho 0.71557 0.83806 0.74832 0.0
Ho81 Ho 0.69625 0.86962 0.82756 0.0
C82 C 0.7424 0.90195 0.71952 0.0
C83 C 0.73614 0.81776 0.67063 0.0
C84 C 0.7636 0.82924 0.66427 0.0
C85 C 0.77668 0.8467 0.61001 0.0
C86 C 0.80104 0.85386 0.59502 0.0
C87 C 0.81245 0.84326 0.6329 0.0
C88 C 0.80084 0.82862 0.69405 0.0
C89 C 0.77657 0.82167 0.70961 0.0
C90 C 0.73587 0.86348 0.90475 0.0
C91 C 0.6587 0.80123 0.81265 0.0
C92 C 0.68981 0.89739 0.93854 0.0
C93 C 0.66784 0.89777 0.95523 0.0
C94 C 0.65388 0.88513 0.01625 0.0
C95 C 0.6313 0.88294 0.02663 0.0
C96 C 0.62278 0.89353 0.97629 0.0
C97 C 0.6373 0.90723 0.91772 0.0
C98 C 0.65971 0.90935 0.90714 0.0
C99 C 0.6754 0.84693 0.67225 0.0
O100 O 0.73993 0.87836 0.6993 0.0
O101 O 0.72907 0.90424 0.77364 0.0
O102 O 0.7289 0.81231 0.74029 0.0
O103 O 0.72686 0.82929 0.63785 0.0
O104 O 0.72965 0.83932 0.87346 0.0
O105 O 0.73166 0.87283 0.85017 0.0
O106 O 0.66508 0.82566 0.85178 0.0
O107 O 0.67395 0.80094 0.76129 0.0
O108 O 0.69905 0.90604 0.87355 0.0
O109 O 0.6876 0.87493 0.94691 0.0
O110 O 0.67438 0.86605 0.71363 0.0
O111 O 0.68143 0.83714 0.72134 0.0
H112 H 0.76756 0.85363 0.57584 0.0
H113 H 0.80994 0.86584 0.54915 0.0
H114 H 0.80918 0.82027 0.72478 0.0
H115 H 0.76727 0.80889 0.75356 0.0
H116 H 0.65997 0.87624 0.05408 0.0
H117 H 0.62015 0.87236 0.07228 0.0
H118 H 0.63119 0.91609 0.87966 0.0
H119 H 0.67024 0.91951 0.86007 0.0
Ho120 Ho 0.86905 0.57897 0.04404 0.0
Ho121 Ho 0.88554 0.53811 -0.00407 0.0
C122 C 0.92848 0.60201 0.09318 0.0
C123 C 0.85651 0.60818 0.12072 0.0
C124 C 0.86769 0.63745 0.14979 0.0
C125 C 0.87947 0.65007 0.23007 0.0
C126 C 0.88627 0.6763 0.26133 0.0
C127 C 0.88135 0.69023 0.21271 0.0
C128 C 0.87116 0.67835 0.13113 0.0
C129 C 0.86422 0.65207 0.09997 0.0
C130 C 0.87978 0.57445 0.89653 0.0
C131 C 0.82741 0.5175 0.95265 0.0
C132 C 0.90024 0.50848 0.93946 0.0
C133 C 0.8897 0.47907 0.9367 0.0
C134 C 0.87511 0.45874 0.86584 0.0
C135 C 0.8673 0.43157 0.86178 0.0
C136 C 0.87416 0.4245 0.92834 0.0
C137 C 0.88725 0.44427 0.00037 0.0
C138 C 0.89495 0.47124 0.00458 0.0
C139 C 0.85953 0.53121 0.12142 0.0
O140 O 0.91131 0.60762 0.08882 0.0
O141 O 0.92363 0.57773 0.06214 0.0
O142 O 0.85057 0.5993 0.04282 0.0
O143 O 0.867 0.59825 0.15667 0.0
O144 O 0.86484 0.5817 0.91647 0.0
O145 O 0.89095 0.57381 0.95745 0.0
O146 O 0.84629 0.5173 0.92439 0.0
O147 O 0.8318 0.53723 0.01036 0.0
O148 O 0.91002 0.52486 0.01079 0.0
O149 O 0.88647 0.51307 0.89407 0.0
O150 O 0.86041 0.51168 0.08354 0.0
O151 O 0.87511 0.55255 0.09634 0.0
H152 H 0.88221 0.63914 0.26983 0.0
H153 H 0.89371 0.68476 0.32481 0.0
H154 H 0.86741 0.68881 0.0923 0.0
H155 H 0.85509 0.64278 0.0378 0.0
H156 H 0.87047 0.46406 0.81288 0.0
H157 H 0.85711 0.41654 0.80568 0.0
H158 H 0.89234 0.43909 0.05291 0.0
H159 H 0.90574 0.48611 0.06062 0.0
Ho160 Ho 0.24669 0.83896 0.83131 0.0
Ho161 Ho 0.30492 0.88173 0.87439 0.0
C162 C 0.27262 0.89729 0.7768 0.0
C163 C 0.19699 0.80891 0.82861 0.0
C164 C 0.17696 0.80886 0.78265 0.0
C165 C 0.15655 0.80607 0.81959 0.0
C166 C 0.13588 0.80297 0.77436 0.0
C167 C 0.13541 0.80254 0.69166 0.0
C168 C 0.15723 0.80829 0.65661 0.0
C169 C 0.17798 0.81156 0.70202 0.0
C170 C 0.27249 0.84171 0.70943 0.0
C171 C 0.28155 0.82056 0.89792 0.0
C172 C 0.35449 0.91739 0.88804 0.0
C173 C 0.3743 0.91287 0.89903 0.0
C174 C 0.3724 0.89137 0.8471 0.0
C175 C 0.38925 0.88471 0.86469 0.0
C176 C 0.40795 0.89937 0.93429 0.0
C177 C 0.4095 0.9204 -0.01304 0.0
C178 C 0.39273 0.92716 0.96923 0.0
C179 C 0.27766 0.87924 -0.00818 0.0
O180 O 0.25043 0.87394 0.78488 0.0
O181 O 0.29563 0.90378 0.80336 0.0
O182 O 0.20855 0.80017 0.78711 0.0
O183 O 0.21328 0.83138 0.88345 0.0
O184 O 0.2491 0.83536 0.70056 0.0
O185 O 0.28032 0.84399 0.78118 0.0
O186 O 0.30215 0.8436 0.8814 0.0
O187 O 0.25842 0.81609 0.89576 0.0
O188 O 0.34178 0.91395 0.94875 0.0
O189 O 0.33921 0.90561 0.81842 0.0
O190 O 0.29962 0.88255 0.00333 0.0
O191 O 0.27134 0.87768 0.91951 0.0
H192 H 0.15601 0.80499 0.88247 0.0
H193 H 0.11934 0.79889 0.80261 0.0
H194 H 0.15728 0.80795 0.59286 0.0
H195 H 0.19411 0.81476 0.67302 0.0
H196 H 0.35768 0.87937 0.79383 0.0
H197 H 0.38781 0.86825 0.82395 0.0
H198 H 0.42406 0.93206 0.04068 0.0
H199 H 0.39377 0.94313 0.01101 0.0
Ho200 Ho 0.43557 0.13762 0.07663 0.0
Ho201 Ho 0.47144 0.19204 0.03463 0.0
C202 C 0.42768 0.18686 0.12967 0.0
C203 C 0.4024 0.09639 0.13859 0.0
C204 C 0.37374 0.07973 0.13477 0.0
C205 C 0.36246 0.08916 0.18528 0.0
C206 C 0.33674 0.07046 0.19821 0.0
C207 C 0.32253 0.04219 0.16248 0.0
C208 C 0.33193 0.03413 0.10026 0.0
C209 C 0.35766 0.05277 0.08729 0.0
C210 C 0.42149 0.13877 0.92632 0.0
C211 C 0.48819 0.14913 0.0144 0.0
C212 C 0.49786 0.22953 0.95341 0.0
C213 C 0.52551 0.24672 0.95012 0.0
C214 C 0.53403 0.25175 0.8762 0.0
C215 C 0.56065 0.26764 0.87278 0.0
C216 C 0.57859 0.27832 0.9434 0.0
C217 C 0.56991 0.2721 0.01662 0.0
C218 C 0.54338 0.25621 0.01995 0.0
C219 C 0.48409 0.18974 0.18596 0.0
O220 O 0.42399 0.16391 0.14481 0.0
O221 O 0.44259 0.19941 0.07602 0.0
O222 O 0.41102 0.09337 0.0728 0.0
O223 O 0.41601 0.12223 0.17713 0.0
O224 O 0.41847 0.11753 0.94709 0.0
O225 O 0.43032 0.15797 -0.01304 0.0
O226 O 0.49162 0.17157 -0.00468 0.0
O227 O 0.46882 0.13369 0.05503 0.0
O228 O 0.4914 0.23445 0.02201 0.0
O229 O 0.48622 0.20312 0.92469 0.0
O230 O 0.48845 0.21198 0.16665 0.0
O231 O 0.47602 0.17193 0.12302 0.0
H232 H 0.37412 0.11016 0.22069 0.0
H233 H 0.32975 0.07716 0.24596 0.0
H234 H 0.32111 1.0124 0.0715 0.0
H235 H 0.36565 0.04522 0.04608 0.0
H236 H 0.52017 0.2437 0.82175 0.0
H237 H 0.56722 0.27261 0.8159 0.0
H238 H 0.58365 0.28019 0.07139 0.0
H239 H 0.5369 0.25161 0.07715 0.0
H240 H 0.43091 0.23339 0.11138 0.0
H241 H 0.41378 0.2554 0.18757 0.0
H242 H 0.38052 0.19198 0.32916 0.0
H243 H 0.3974 0.16961 0.25164 0.0
H244 H 0.3626 0.2357 0.2084 0.0
H245 H 0.41882 0.26099 0.50748 0.0
H246 H 0.42674 0.2501 0.4165 0.0
H247 H 0.39827 0.22514 0.45659 0.0
C248 C 0.41996 0.22396 0.15864 0.0
C249 C 0.41595 0.19962 0.17535 0.0
C250 C 0.41011 0.23673 0.20268 0.0
C251 C 0.39617 0.22604 0.26627 0.0
C252 C 0.39173 0.20143 0.28238 0.0
H253 H 0.34937 0.31153 0.60873 0.0
H254 H 0.3551 0.27724 0.5432 0.0
C255 C 0.40137 0.18846 0.23756 0.0
C256 C 0.3861 0.24054 0.31335 0.0
H257 H 0.39284 0.27671 0.49924 0.0
C258 C 0.36932 0.24462 0.27205 0.0
C259 C 0.39361 0.25142 0.39751 0.0
C260 C 0.41045 0.2469 0.44745 0.0
C261 C 0.36064 0.25959 0.31098 0.0
C262 C 0.37023 0.27286 0.39348 0.0
C263 C 0.38587 0.2675 0.43585 0.0
C264 C 0.36568 0.29355 0.43469 0.0
C265 C 0.34045 0.26009 0.26306 0.0
C266 C 0.37007 0.3151 0.39812 0.0
C267 C 0.36717 0.33523 0.43605 0.0
C268 C 0.35963 0.33504 0.51316 0.0
C269 C 0.35531 0.31333 0.55013 0.0
C270 C 0.35847 0.29322 0.51202 0.0
H271 H 0.32743 0.24062 0.21685 0.0
H272 H 0.32805 0.26245 0.30191 0.0
H273 H 0.35052 0.27765 0.23114 0.0
H274 H 0.37662 0.31703 0.34028 0.0
H275 H 0.37181 0.35145 0.40438 0.0
H276 H 0.25538 0.4364 0.55137 0.0
H277 H 0.21014 0.39746 0.48877 0.0
H278 H 0.2107 0.34619 0.63949 0.0
H279 H 0.25617 0.38488 0.70043 0.0
H280 H 0.18932 0.34172 0.40331 0.0
H281 H 0.14189 0.33492 0.67415 0.0
H282 H 0.17465 0.36493 0.67004 0.0
H283 H 0.16893 0.33286 0.68181 0.0
C284 C 0.24584 0.4169 0.57163 0.0
C285 C 0.25967 0.41399 0.63133 0.0
C286 C 0.21984 0.39445 0.5354 0.0
C287 C 0.20634 0.36851 0.55919 0.0
C288 C 0.22009 0.36576 0.61977 0.0
H289 H 1.03637 0.22517 0.41814 0.0
H290 H 0.082 0.25553 0.48208 0.0
C291 C 0.24633 0.38799 0.65457 0.0
C292 C 0.17828 0.34456 0.51959 0.0
H293 H 0.11439 0.30419 0.55423 0.0
C294 C 0.17298 0.33366 0.43658 0.0
C295 C 0.15661 0.33263 0.56229 0.0
C296 C 0.1606 0.34191 0.65194 0.0
C297 C 0.14718 0.31204 0.39569 0.0
C298 C 0.12513 0.30192 0.4368 0.0
C299 C 0.13063 0.31202 0.52069 0.0
C300 C 0.09655 0.28178 0.39419 0.0
C301 C 0.14422 0.29944 0.30936 0.0
C302 C 0.08827 0.28553 0.32218 0.0
C303 C 0.06172 0.26806 0.28493 0.0
C304 C 0.04173 0.24592 0.31803 0.0
C305 C 0.0502 0.24195 0.38979 0.0
C306 C 0.07684 0.25951 0.42705 0.0
H307 H 0.16175 0.30033 0.29803 0.0
H308 H 0.12667 0.27737 0.29272 0.0
H309 H 0.14254 0.31156 0.26964 0.0
H310 H 0.10225 0.30274 0.29534 0.0
H311 H 0.05703 0.27288 0.23115 0.0
H312 H 0.78603 0.05857 0.22116 0.0
H313 H 0.7775 0.02704 0.31206 0.0
H314 H 0.86027 0.0657 0.36268 0.0
H315 H 0.86891 0.09792 0.2752 0.0
H316 H 0.78306 0.98813 0.31639 0.0
H317 H 0.85152 0.06811 0.58586 0.0
H318 H 0.8478 0.07803 0.49423 0.0
H319 H 0.86648 0.06474 0.50306 0.0
C320 C 0.80248 0.06054 0.25191 0.0
C321 C 0.82821 0.08135 0.24071 0.0
C322 C 0.7976 0.04235 0.30445 0.0
C323 C 0.81818 0.04408 0.34795 0.0
C324 C 0.84383 0.06417 0.33395 0.0
H325 H 0.783 0.9139 0.63359 0.0
H326 H 0.80461 0.94861 0.54782 0.0
C327 C 0.84876 0.0826 0.2824 0.0
C328 C 0.81222 0.0244 0.40548 0.0
H329 H 0.82455 1.02126 0.60159 0.0
C330 C 0.7922 0.99568 0.37876 0.0
C331 C 0.82496 0.03323 0.48667 0.0
C332 C 0.84881 0.06271 0.5194 0.0
C333 C 0.78385 0.97637 0.43014 0.0
C334 C 0.79449 0.98553 0.51286 0.0
C335 C 0.81544 1.01398 0.53925 0.0
C336 C 0.78333 0.96588 0.57196 0.0
C337 C 0.76388 0.94595 0.39518 0.0
C338 C 0.76456 0.96409 0.61729 0.0
C339 C 0.75246 0.94449 0.66769 0.0
C340 C 0.75827 0.92546 0.67405 0.0
C341 C 0.77769 0.92785 0.63051 0.0
C342 C 0.79011 0.9478 0.58091 0.0
H343 H 0.75808 0.94172 0.32932 0.0
H344 H 0.77242 0.93501 0.40769 0.0
H345 H 0.74618 0.93754 0.4244 0.0
H346 H 0.75868 0.97746 0.61213 0.0
H347 H 0.73755 0.94344 0.69902 0.0
H348 H 0.91986 0.73409 0.32877 0.0
H349 H 0.91758 0.76928 0.40925 0.0
H350 H 0.84491 0.737 0.26091 0.0
H351 H 0.84634 0.70118 0.18238 0.0
H352 H 0.90969 0.81031 0.36205 0.0
H353 H 0.82905 0.72706 0.4967 0.0
H354 H 0.85065 0.7225 0.44371 0.0
H355 H 0.82446 0.72024 0.38892 0.0
C356 C 0.90361 0.73479 0.31274 0.0
C357 C 0.88321 0.71485 0.24988 0.0
C358 C 0.90243 0.75488 0.35832 0.0
C359 C 0.88092 0.75519 0.34107 0.0
C360 C 0.86151 0.73668 0.27495 0.0
H361 H 0.81377 0.83235 0.47429 0.0
H362 H 0.83859 0.81781 0.41331 0.0
C363 C 0.86255 0.7165 0.22973 0.0
C364 C 0.87754 0.7733 0.39589 0.0
H365 H 0.83717 0.77131 0.52372 0.0
C366 C 0.89415 0.802 0.39851 0.0
C367 C 0.85735 0.76204 0.44347 0.0
C368 C 0.83945 0.73129 0.44381 0.0
C369 C 0.89006 0.81977 0.44484 0.0
C370 C 0.86919 0.80835 0.48946 0.0
C371 C 0.85339 0.77984 0.48982 0.0
C372 C 0.8605 0.82443 0.52572 0.0
C373 C 0.90727 0.85041 0.44403 0.0
C374 C 0.8654 0.83367 0.60895 0.0
C375 C 0.85152 0.84257 0.64444 0.0
C376 C 0.83233 0.84172 0.59678 0.0
C377 C 0.82889 0.83409 0.51279 0.0
C378 C 0.84294 0.82558 0.47761 0.0
H379 H 0.92397 0.85638 0.41113 0.0
H380 H 0.89542 0.85595 0.41502 0.0
H381 H 0.91501 0.86266 0.50655 0.0
H382 H 0.87873 0.83243 0.6465 0.0
H383 H 0.8546 0.84842 0.70921 0.0
H384 H 0.12552 0.82082 0.56602 0.0
H385 H 0.086 0.79328 0.46413 0.0
H386 H 0.05179 0.72606 0.5933 0.0
H387 H 0.0897 0.75405 0.69674 0.0
H388 H 0.07261 0.75137 0.36929 0.0
H389 H 0.98743 0.71508 0.52375 0.0
H390 H 1.02017 0.74324 0.57362 0.0
H391 H 1.00695 0.70746 0.57452 0.0
C392 C 0.10891 0.80067 0.57404 0.0
C393 C 0.11037 0.78968 0.63965 0.0
C394 C 0.08644 0.7849 0.51585 0.0
C395 C 0.06555 0.75771 0.52161 0.0
C396 C 0.06685 0.74733 0.58885 0.0
H397 H 0.95289 0.59948 0.22216 0.0
H398 H 0.98636 0.64005 0.32653 0.0
C399 C 0.08877 0.76334 0.64796 0.0
C400 C 0.04468 0.7384 0.45225 0.0
H401 H 0.98063 0.68145 0.40539 0.0
C402 C 0.05236 0.73662 0.37694 0.0
C403 C 1.01814 0.71915 0.46153 0.0
C404 C 1.00777 0.72164 0.5377 0.0
C405 C 1.03476 0.71494 0.31257 0.0
C406 C 1.00901 0.69441 0.32443 0.0
C407 C 1.00075 0.69692 0.39783 0.0
C408 C 0.9904 0.67019 0.26064 0.0
C409 C 0.04415 0.71351 0.23337 0.0
C410 C 0.98249 0.6741 0.18925 0.0
C411 C 0.96445 0.65132 0.12924 0.0
C412 C 0.95359 0.62435 0.14074 0.0
C413 C 0.96199 0.62027 0.2111 0.0
C414 C 0.98045 0.64326 0.27114 0.0
H415 H 0.06589 0.72729 0.23941 0.0
H416 H 1.03684 0.69188 0.20722 0.0
H417 H 1.03648 0.72033 0.1904 0.0
H418 H 0.98957 0.69471 0.18109 0.0
H419 H 0.95743 0.65464 0.0762 0.0
H420 H 0.23013 0.88994 0.69595 0.0
H421 H 0.2312 0.91683 0.59917 0.0
H422 H 0.31545 0.97406 0.6587 0.0
H423 H 0.31477 0.94752 0.75482 0.0
H424 H 0.26415 0.98409 0.59791 0.0
H425 H 0.29174 0.92201 0.42356 0.0
H426 H 0.27716 0.91292 0.51381 0.0
H427 H 0.3103 0.94288 0.5202 0.0
C428 C 0.2488 0.90869 0.69014 0.0
C429 C 0.27234 0.91623 0.73172 0.0
C430 C 0.24934 0.92414 0.63541 0.0
C431 C 0.27338 0.94727 0.62209 0.0
C432 C 0.29671 0.95634 0.66885 0.0
H433 H 0.34073 1.02107 0.24329 0.0
H434 H 0.32389 0.99711 0.35182 0.0
C435 C 0.29623 0.94092 0.72318 0.0
C436 C 0.27465 0.95776 0.54827 0.0
H437 H 0.28711 0.95062 0.35837 0.0
C438 C 0.26931 0.97708 0.54523 0.0
C439 C 0.28156 0.94854 0.48065 0.0
C440 C 0.29044 0.93033 0.48399 0.0
C441 C 0.27225 0.98872 0.47679 0.0
C442 C 0.27896 0.97919 0.40839 0.0
C443 C 0.28209 0.95811 0.41046 0.0
C444 C 0.28792 0.99377 0.34018 0.0
C445 C 0.2696 1.01203 0.48056 0.0
C446 C 0.27353 1.00026 0.29639 0.0
C447 C 0.28391 1.01522 0.23497 0.0
C448 C 0.30804 0.02248 0.21478 0.0
C449 C 0.32166 1.01492 0.25623 0.0
C450 C 0.31202 1.00127 0.31879 0.0
H451 H 0.26993 1.02063 0.54303 0.0
H452 H 0.28566 0.02925 0.45532 0.0
H453 H 0.2506 1.004 0.44497 0.0
H454 H 0.25461 0.99418 0.31012 0.0
H455 H 0.27345 1.02145 0.20438 0.0
H456 H 0.26239 0.78192 -0.00357 0.0
H457 H 0.27039 0.74662 -0.00211 0.0
H458 H 0.31131 0.77082 0.79499 0.0
H459 H 0.3048 0.80661 0.79655 0.0
H460 H 0.25765 0.70246 0.89715 0.0
H461 H 0.36564 0.77662 0.93571 0.0
H462 H 0.34522 0.78816 0.94499 0.0
H463 H 0.35113 0.77882 0.84761 0.0
C464 C 0.27321 0.77968 0.95277 0.0
C465 C 0.28359 0.79743 0.89783 0.0
C466 C 0.27782 0.75959 0.95354 0.0
C467 C 0.29248 0.7568 0.8986 0.0
C468 C 0.3012 0.7734 0.84064 0.0
H469 H 0.33335 0.64626 0.74777 0.0
H470 H 0.3266 0.6817 0.76568 0.0
C471 C 0.29721 0.79373 0.84115 0.0
C472 C 0.29821 0.73619 0.89947 0.0
H473 H 0.34723 0.72842 0.88872 0.0
C474 C 0.2773 0.70824 0.89651 0.0
C475 C 0.32391 0.74364 0.89864 0.0
C476 C 0.34773 0.7735 0.90779 0.0
C477 C 0.28115 0.68744 0.88974 0.0
C478 C 0.30666 0.69478 0.88631 0.0
C479 C 0.32766 0.72277 0.8906 0.0
C480 C 0.31187 0.67365 0.87791 0.0
C481 C 0.25769 0.65763 0.88384 0.0
C482 C 0.3066 0.65766 0.93625 0.0
C483 C 0.31014 0.63675 0.92638 0.0
C484 C 0.31939 0.63112 0.85771 0.0
C485 C 0.32573 0.64846 0.80111 0.0
C486 C 0.32201 0.6693 0.81116 0.0
H487 H 0.23895 0.65458 0.86699 0.0
H488 H 0.25878 0.64325 0.83908 0.0
H489 H 0.25733 0.65186 0.94306 0.0
H490 H 0.29946 0.66119 -0.01042 0.0
H491 H 0.3051 0.62513 0.97349 0.0
H492 H 0.48619 0.10224 0.0245 0.0
H493 H 0.5206 0.09559 0.00882 0.0
H494 H 0.57134 0.17745 0.95638 0.0
H495 H 0.53717 0.18411 0.97124 0.0
H496 H 0.55021 0.0974 0.88213 0.0
H497 H 0.61671 0.18174 0.14472 0.0
H498 H 0.58239 0.16703 0.12402 0.0
H499 H 0.60549 0.19228 0.06977 0.0
C500 C 0.50461 0.11885 0.0093 0.0
C501 C 0.50858 0.14387 -0.0001 0.0
C502 C 0.52443 0.11497 7e-05 0.0
C503 C 0.5492 0.13614 -0.01735 0.0
C504 C 0.55287 0.16079 0.97119 0.0
H505 H 0.70106 0.16221 0.94886 0.0
H506 H 0.66377 0.16444 0.9386 0.0
C507 C 0.53302 0.16454 0.97935 0.0
C508 C 0.57145 0.13311 0.97944 0.0
H509 H 0.63464 0.16291 0.06682 0.0
C510 C 0.56856 0.11167 0.92305 0.0
C511 C 0.59582 0.1516 0.03192 0.0
C512 C 0.60034 0.17432 0.09656 0.0
C513 C 0.5891 0.10863 0.91729 0.0
C514 C 0.61344 0.12718 0.97004 0.0
C515 C 0.61629 0.14859 0.02595 0.0
C516 C 0.63597 0.12459 0.96979 0.0
C517 C 0.58496 0.08607 0.85287 0.0
C518 C 0.63343 0.10142 -0.00965 0.0
C519 C 0.65499 0.10014 -0.00307 0.0
C520 C 0.68014 0.12195 -0.01702 0.0
C521 C 0.68238 0.14481 0.96014 0.0
C522 C 0.66085 0.14619 0.95445 0.0
H523 H 0.56715 0.0766 0.80814 0.0
H524 H 0.60225 0.09458 0.82122 0.0
H525 H 0.58272 0.06942 0.8807 0.0
H526 H 0.61481 0.08444 0.00347 0.0
H527 H 0.6518 0.08182 0.01312 0.0
H528 H 0.6304 0.75022 0.70678 0.0
H529 H 0.58731 0.70746 0.70908 0.0
H530 H 0.58419 0.74571 0.9371 0.0
H531 H 0.62634 0.78935 0.93076 0.0
H532 H 0.56624 0.66967 0.77668 0.0
H533 H 0.51262 0.71278 0.86862 0.0
H534 H 0.54517 0.73459 0.8441 0.0
H535 H 0.54026 0.72533 0.94154 0.0
C536 C 0.62051 0.74978 0.75732 0.0
C537 C 0.63236 0.77394 0.81809 0.0
C538 C 0.59545 0.72487 0.75888 0.0
C539 C 0.5809 0.72237 0.82214 0.0
C540 C 0.59333 0.74635 0.88472 0.0
H541 H 0.42269 0.57886 0.90774 0.0
H542 H 0.46654 0.62308 0.92003 0.0
C543 C 0.61813 0.77163 0.88191 0.0
C544 C 0.55373 0.69455 0.82237 0.0
H545 H 0.49046 0.6648 0.86132 0.0
C546 C 0.54978 0.66903 0.79456 0.0
C547 C 0.53144 0.69231 0.84725 0.0
C548 C 0.53246 0.71769 0.87639 0.0
C549 C 0.52544 0.64246 0.79071 0.0
C550 C 0.50298 0.64016 0.81324 0.0
C551 C 0.50696 0.66563 0.8429 0.0
C552 C 0.47562 0.61198 0.80671 0.0
C553 C 0.52477 0.61713 0.76498 0.0
C554 C 0.46467 0.58985 0.73905 0.0
C555 C 0.43987 0.56382 0.73393 0.0
C556 C 0.42411 0.55891 0.79452 0.0
C557 C 0.43433 0.58126 0.86061 0.0
C558 C 0.45959 0.60699 0.86715 0.0
H559 H 0.5445 0.62209 0.77861 0.0
H560 H 0.51102 0.59999 0.79511 0.0
H561 H 0.51864 0.60983 0.69903 0.0
H562 H 0.47499 0.59273 0.68833 0.0
H563 H 0.43245 0.54787 0.68027 0.0
H564 H 0.91112 0.41762 0.96817 0.0
H565 H 0.90556 0.37425 0.96798 0.0
H566 H 0.82317 0.32763 0.87558 0.0
H567 H 0.82894 0.37151 0.87349 0.0
H568 H 0.87505 0.33751 0.05732 0.0
H569 H 0.84325 0.28542 0.73457 0.0
H570 H 0.85626 0.32148 0.76724 0.0
H571 H 0.82325 0.29429 0.77802 0.0
C572 C 0.89185 0.39811 0.94713 0.0
C573 C 0.87038 0.39778 0.92172 0.0
C574 C 0.88871 0.37338 0.94683 0.0
C575 C 0.864 0.34775 0.92158 0.0
C576 C 0.84251 0.3472 0.89404 0.0
H577 H 0.82204 0.18428 0.93802 0.0
H578 H 0.82261 0.22289 0.91123 0.0
C579 C 0.84575 0.37217 0.89329 0.0
C580 C 0.86106 0.32216 0.93032 0.0
H581 H 0.84747 0.26173 0.82592 0.0
C582 C 0.86901 0.32091 0.0067 0.0
C583 C 0.85266 0.30034 0.86444 0.0
C584 C 0.84352 0.30041 0.78127 0.0
C585 C 0.86956 0.29886 0.01889 0.0
C586 C 0.86257 0.27777 0.95233 0.0
C587 C 0.85348 0.27834 0.87642 0.0
C588 C 0.86349 0.25435 0.96132 0.0
C589 C 0.87722 0.29823 0.10329 0.0
C590 C 0.88664 0.25908 -0.00414 0.0
C591 C 0.88634 0.23693 0.0132 0.0
C592 C 0.86302 0.2097 -0.0057 0.0
C593 C 0.84043 0.20496 0.95407 0.0
C594 C 0.84064 0.22705 0.93838 0.0
H595 H 0.87467 0.31122 0.1488 0.0
H596 H 0.86539 0.27665 0.11401 0.0
H597 H 0.89823 0.30672 0.11261 0.0
H598 H 0.90474 0.27999 0.01163 0.0
H599 H 0.90408 0.24123 0.04327 0.0
H600 H 0.42471 0.89365 0.07388 0.0
H601 H 0.46288 0.89365 0.10006 0.0
H602 H 0.47281 0.89455 0.8511 0.0
H603 H 0.43575 0.89601 0.82531 0.0
H604 H 0.47009 0.85492 0.02312 0.0
H605 H 0.54403 0.96193 0.97449 0.0
H606 H 0.51122 0.94949 -0.0096 0.0
H607 H 0.51716 0.94019 0.8934 0.0
C608 C 0.43511 0.89379 0.02507 0.0
C609 C 0.42769 0.89492 0.9479 0.0
C610 C 0.45668 0.89384 0.04002 0.0
C611 C 0.47054 0.89487 0.97769 0.0
C612 C 0.46237 0.89448 0.89978 0.0
H613 H 0.58414 0.87618 0.85603 0.0
H614 H 0.54575 0.87567 0.8679 0.0
C615 C 0.44108 0.89477 0.88498 0.0
C616 C 0.49331 0.89554 -0.00693 0.0
H617 H 0.55747 0.93209 0.97191 0.0
C618 C 0.48941 0.87201 0.01414 0.0
C619 C 0.51806 0.91799 0.98004 0.0
C620 C 0.52294 0.94394 0.95902 0.0
C621 C 0.50984 0.8697 0.01882 0.0
C622 C 0.53415 0.89155 0.00237 0.0
C623 C 0.53842 0.91559 -0.01545 0.0
C624 C 0.55507 0.88903 -0.00283 0.0
C625 C 0.50497 0.84333 0.03551 0.0
C626 C 0.57218 0.89667 0.06655 0.0
C627 C 0.59408 0.89729 0.06008 0.0
C628 C 0.59866 0.89034 -0.01585 0.0
C629 C 0.58087 0.88182 0.91498 0.0
C630 C 0.55907 0.88132 0.92154 0.0
H631 H 0.48612 0.83018 0.05836 0.0
H632 H 0.50435 0.83116 0.97909 0.0
H633 H 0.52115 0.84825 0.07993 0.0
H634 H 0.56896 0.90291 0.12484 0.0
H635 H 0.60788 0.90419 0.11368 0.0
H636 H 0.78669 0.50506 0.0295 0.0
H637 H 0.74499 0.45972 0.01328 0.0
H638 H 0.76668 0.42732 0.81726 0.0
H639 H 0.80916 0.47282 0.83357 0.0
H640 H 0.70833 0.42994 0.86705 0.0
H641 H 0.74615 0.37603 -0.01283 0.0
H642 H 0.76488 0.41348 0.00576 0.0
H643 H 0.76161 0.39468 0.90914 0.0
C644 C 0.78253 0.48854 -0.0182 0.0
C645 C 0.80099 0.49225 0.93238 0.0
C646 C 0.75889 0.46273 0.97338 0.0
C647 C 0.75353 0.44077 0.91493 0.0
C648 C 0.77122 0.44446 0.86321 0.0
H649 H 0.60814 0.2755 0.83876 0.0
H650 H 0.65227 0.31451 0.8232 0.0
C651 C 0.79509 0.4703 0.87201 0.0
C652 C 0.72879 0.41409 0.90743 0.0
H653 H 0.70048 0.35035 0.95164 0.0
C654 C 0.70642 0.41225 0.88396 0.0
C655 C 0.72715 0.39181 0.93116 0.0
C656 C 0.75118 0.39398 0.96031 0.0
C657 C 0.68181 0.38837 0.88584 0.0
C658 C 0.68018 0.36632 0.91134 0.0
C659 C 0.70244 0.36766 0.93162 0.0
C660 C 0.65558 0.34272 0.92477 0.0
C661 C 0.65794 0.38734 0.86394 0.0
C662 C 0.64425 0.34634 -0.01122 0.0
C663 C 0.6194 0.32453 -0.00256 0.0
C664 C 0.60615 0.2991 0.94248 0.0
C665 C 0.61828 0.29513 0.88124 0.0
C666 C 0.64315 0.3171 0.87235 0.0
H667 H 0.66222 0.40318 0.82815 0.0
H668 H 0.64148 0.36642 0.82939 0.0
H669 H 0.65147 0.39167 0.91971 0.0
H670 H 0.65419 0.3663 0.02967 0.0
H671 H 0.61006 0.32803 0.04419 0.0
H672 H 0.38262 0.5258 0.52972 0.0
H673 H 0.37455 0.5257 0.38885 0.0
H674 H 0.29303 0.4878 0.40495 0.0
H675 H 0.30114 0.48748 0.54576 0.0
H676 H 0.30728 0.45116 0.3494 0.0
H677 H 0.34791 0.53787 0.18474 0.0
H678 H 0.36931 0.5438 0.27064 0.0
H679 H 0.33982 0.54049 0.28444 0.0
C680 C 0.36348 0.51946 0.50448 0.0
C681 C 0.34217 0.50568 0.54577 0.0
C682 C 0.35886 0.51952 0.42401 0.0
C683 C 0.33298 0.50572 0.38639 0.0
C684 C 0.31304 0.49813 0.4332 0.0
H685 H 0.28777 0.4421 0.90396 0.0
H686 H 0.27739 0.43106 0.03564 0.0
C687 C 0.31763 0.49785 0.51344 0.0
C688 C 0.32569 0.48932 0.30492 0.0
H689 H 0.33676 0.49484 0.11343 0.0
C690 C 0.31308 0.4605 0.297 0.0
C691 C 0.33425 0.50187 0.23835 0.0
C692 C 0.34845 0.5327 0.24454 0.0
C693 C 0.30916 0.44393 0.22365 0.0
C694 C 0.31784 0.45661 0.15726 0.0
C695 C 0.33003 0.48527 0.16508 0.0
C696 C 0.31538 0.4417 0.07762 0.0
C697 C 0.29659 0.41343 0.218 0.0
C698 C 0.33879 0.44756 0.05461 0.0
C699 C 0.3451 0.45472 0.98025 0.0
C700 C 0.32737 0.45446 0.92781 0.0
C701 C 0.30177 0.44255 0.94414 0.0
C702 C 0.29565 0.4358 0.01898 0.0
H703 H 0.29212 0.40717 0.27689 0.0
H704 H 0.27809 0.40088 0.17448 0.0
H705 H 0.30982 0.40854 0.19537 0.0
H706 H 0.3541 0.45183 0.09906 0.0
H707 H 0.36484 0.46362 0.96809 0.0
H708 H 0.81182 0.11757 0.89291 0.0
H709 H 0.80803 0.11904 0.75037 0.0
H710 H 0.86272 0.09962 0.71887 0.0
H711 H 0.86725 0.09921 0.86142 0.0
H712 H 0.87254 0.16229 0.7236 0.0
H713 H 0.80124 0.06622 0.49362 0.0
H714 H 0.78815 0.07455 0.57425 0.0
H715 H 0.80933 0.06498 0.59544 0.0
C716 C 0.82213 0.11246 0.85527 0.0
C717 C 0.84046 0.10922 0.88912 0.0
C718 C 0.81983 0.1131 0.77334 0.0
C719 C 0.8353 0.10969 0.72414 0.0
C720 C 0.85051 0.10219 0.75547 0.0
H721 H 0.8873 0.17498 0.28351 0.0
H722 H 0.8904 0.16148 0.4111 0.0
C723 C 0.85311 0.10203 0.83726 0.0
C724 C 0.84189 0.12205 0.65161 0.0
H725 H 0.82591 0.1091 0.44819 0.0
C726 C 0.8625 0.1506 0.66324 0.0
C727 C 0.8287 0.10671 0.57319 0.0
C728 C 0.8057 0.07635 0.55785 0.0
C729 C 0.86977 0.16447 0.59893 0.0
C730 C 0.85643 0.14931 0.52086 0.0
C731 C 0.83637 0.12053 0.50843 0.0
C732 C 0.85986 0.1635 0.45353 0.0
C733 C 0.89078 0.19548 0.6149 0.0
C734 C 0.8432 0.17095 0.43814 0.0
C735 C 0.841 0.17761 0.3647 0.0
C736 C 0.85541 0.17683 0.30578 0.0
C737 C 0.87516 0.17402 0.32651 0.0
C738 C 0.87695 0.16654 0.39939 0.0
H739 H 0.90125 0.20378 0.67763 0.0
H740 H 0.90522 0.20069 0.57308 0.0
H741 H 0.88166 0.20601 0.60391 0.0
H742 H 0.83029 0.1693 0.48016 0.0
H743 H 0.82605 0.18048 0.35096 0.0
H744 H 0.67966 0.8115 0.56741 0.0
H745 H 0.70361 0.82296 0.45158 0.0
H746 H 0.72164 0.90467 0.50159 0.0
H747 H 0.69645 0.89288 0.61031 0.0
H748 H 0.68234 0.8594 0.35964 0.0
H749 H 0.78551 0.89394 0.39322 0.0
H750 H 0.76131 0.86259 0.42713 0.0
H751 H 0.77006 0.89539 0.4781 0.0
C752 C 0.68869 0.8318 0.55265 0.0
C753 C 0.68612 0.85127 0.59709 0.0
C754 C 0.70302 0.8386 0.48872 0.0
C755 C 0.71508 0.86502 0.47023 0.0
C756 C 0.71311 0.88451 0.51651 0.0
H757 H 0.7641 0.91428 0.00917 0.0
H758 H 0.76102 0.92223 0.15353 0.0
C759 C 0.69794 0.87736 0.57703 0.0
C760 C 0.72052 0.86912 0.38915 0.0
H761 H 0.76641 0.89079 0.26469 0.0
C762 C 0.70084 0.86646 0.33907 0.0
C763 C 0.74486 0.87888 0.36422 0.0
C764 C 0.76684 0.88309 0.4183 0.0
C765 C 0.70471 0.87342 0.26423 0.0
C766 C 0.72826 0.88143 0.23625 0.0
C767 C 0.74839 0.8847 0.28684 0.0
C768 C 0.72914 0.87902 0.14993 0.0
C769 C 0.68307 0.8712 0.21477 0.0
C770 C 0.71192 0.85246 0.10143 0.0
C771 C 0.71397 0.8479 0.02133 0.0
C772 C 0.73319 0.86986 -0.01204 0.0
C773 C 0.74948 0.89701 0.03478 0.0
C774 C 0.74773 0.90154 0.11646 0.0
H775 H 0.67169 0.87531 0.25384 0.0
H776 H 0.69101 0.88606 0.17359 0.0
H777 H 0.66929 0.84972 0.17871 0.0
H778 H 0.69746 0.83489 0.12646 0.0
H779 H 0.70072 0.82697 -0.01435 0.0
H780 H 0.83577 0.54673 0.79082 0.0
H781 H 0.8317 0.53172 0.64979 0.0
H782 H 0.90862 0.55011 0.68364 0.0
H783 H 0.91275 0.56553 0.82844 0.0
H784 H 0.90813 0.58814 0.61943 0.0
H785 H 0.8253 0.48493 0.45216 0.0
H786 H 0.81349 0.49436 0.53378 0.0
H787 H 0.83889 0.49001 0.55404 0.0
C788 C 0.85147 0.5467 0.76866 0.0
C789 C 0.87522 0.55874 0.81792 0.0
C790 C 0.84881 0.53726 0.68813 0.0
C791 C 0.87014 0.5404 0.65647 0.0
C792 C 0.89217 0.54794 0.70775 0.0
H793 H 0.89241 0.53674 0.23446 0.0
H794 H 0.90439 0.56404 0.3684 0.0
C795 C 0.8947 0.55717 0.78946 0.0
C796 C 0.87263 0.54625 0.57625 0.0
H797 H 0.83298 0.52418 0.40049 0.0
C798 C 0.89224 0.57389 0.57003 0.0
C799 C 0.85147 0.52808 0.5137 0.0
C800 C 0.83131 0.49763 0.51382 0.0
C801 C 0.89095 0.58368 0.50195 0.0
C802 C 0.86938 0.56544 0.44049 0.0
C803 C 0.84914 0.53849 0.44928 0.0
C804 C 0.8723 0.56743 0.35769 0.0
C805 C 0.91301 0.61275 0.49405 0.0
C806 C 0.85123 0.56181 0.3061 0.0
C807 C 0.84419 0.54578 0.2295 0.0
C808 C 0.85831 0.53563 0.20483 0.0
C809 C 0.88023 0.54278 0.25502 0.0
C810 C 0.88806 0.55992 0.32924 0.0
H811 H 0.92305 0.62684 0.55382 0.0
H812 H 0.92776 0.61214 0.46344 0.0
H813 H 0.90566 0.62147 0.45764 0.0
H814 H 0.83887 0.56745 0.32774 0.0
H815 H 0.82835 0.54201 0.18873 0.0
H816 H 0.2338 0.83156 0.01403 0.0
H817 H 0.22296 0.82242 0.14608 0.0
H818 H 0.27866 0.90999 0.24833 0.0
H819 H 0.28893 0.9193 0.11533 0.0
H820 H 0.27823 0.84602 0.20914 0.0
H821 H 0.23177 0.87528 0.4289 0.0
H822 H 0.21573 0.85758 0.3266 0.0
H823 H 0.24366 0.89335 0.34713 0.0
C824 C 0.24189 0.84911 0.06328 0.0
C825 C 0.26213 0.87607 0.05524 0.0
C826 C 0.23572 0.84386 0.1391 0.0
C827 C 0.25053 0.86545 0.20669 0.0
C828 C 0.26706 0.89307 0.19667 0.0
H829 H 0.31388 0.88837 0.67245 0.0
H830 H 0.31791 0.89389 0.53395 0.0
C831 C 0.27311 0.89836 0.12075 0.0
C832 C 0.25812 0.85897 0.27766 0.0
H833 H 0.25963 0.865 0.47918 0.0
C834 C 0.27407 0.85001 0.26837 0.0
C835 C 0.25268 0.86439 0.35396 0.0
C836 C 0.23499 0.87313 0.36555 0.0
C837 C 0.28542 0.84706 0.33439 0.0
C838 C 0.28072 0.8534 0.41112 0.0
C839 C 0.26399 0.86135 0.42002 0.0
C840 C 0.29074 0.84977 0.48373 0.0
C841 C 0.30227 0.83729 0.32185 0.0
C842 C 0.27648 0.82302 0.50068 0.0
C843 C 0.27408 0.81989 0.57999 0.0
C844 C 0.28627 0.8435 0.64184 0.0
C845 C 0.30459 0.86991 0.62564 0.0
C846 C 0.30685 0.87308 0.5463 0.0
H847 H 0.30738 0.83763 0.26026 0.0
H848 H 0.32062 0.85047 0.36608 0.0
H849 H 0.29145 0.81561 0.3313 0.0
H850 H 0.26393 0.80485 0.45293 0.0
H851 H 0.25979 0.79934 0.59168 0.0
H852 H 0.38069 0.09526 0.81675 0.0
H853 H 0.3757 0.09178 0.67075 0.0
H854 H 0.44108 0.17852 0.70379 0.0
H855 H 0.44423 0.1826 0.84926 0.0
H856 H 0.38738 0.14344 0.55491 0.0
H857 H 0.4463 0.10404 0.5879 0.0
H858 H 0.42351 0.09968 0.65464 0.0
H859 H 0.45554 0.13236 0.66797 0.0
C860 C 0.39341 0.11376 0.79266 0.0
C861 C 0.41384 0.13892 0.84362 0.0
C862 C 0.39047 0.11175 0.70956 0.0
C863 C 0.40842 0.13474 0.67697 0.0
C864 C 0.42707 0.16053 0.72821 0.0
H865 H 0.4785 0.21727 0.31533 0.0
H866 H 0.45522 0.19695 0.42549 0.0
C867 C 0.42928 0.16276 0.81126 0.0
C868 C 0.41152 0.13141 0.59194 0.0
H869 H 0.45462 0.13009 0.4839 0.0
C870 C 0.40154 0.13983 0.53813 0.0
C871 C 0.42901 0.1254 0.5688 0.0
C872 C 0.43903 0.1146 0.62258 0.0
C873 C 0.411 0.1454 0.46509 0.0
C874 C 0.43187 0.14399 0.44849 0.0
C875 C 0.43932 0.1322 0.49777 0.0
C876 C 0.44781 0.157 0.38544 0.0
C877 C 0.39895 0.1532 0.40713 0.0
C878 C 0.45392 0.14249 0.33168 0.0
C879 C 0.46837 0.15463 0.27135 0.0
C880 C 0.47633 0.18117 0.26251 0.0
C881 C 0.4722 0.19662 0.32013 0.0
C882 C 0.45827 0.18469 0.3817 0.0
H883 H 0.37814 0.14371 0.41335 0.0
H884 H 0.40975 0.17613 0.41962 0.0
H885 H 0.39988 0.14624 0.34447 0.0
H886 H 0.44661 0.12135 0.3342 0.0
H887 H 0.47156 0.14238 0.22795 0.0
loop_
_geom_bond_atom_site_label_1
_geom_bond_atom_site_label_2
_geom_bond_distance
_geom_bond_site_symmetry_2
_ccdc_geom_bond_type
Ho0 C3 2.811 . S
Ho0 O20 2.322 . S
Ho0 O22 2.378 . S
Ho0 O23 2.524 . S
Ho0 O24 2.381 . S
Ho0 O25 2.669 . S
Ho0 O27 2.346 . S
Ho0 O31 2.305 . S
Ho1 C12 2.811 . S
Ho1 O21 2.346 . S
Ho1 O25 2.305 . S
Ho1 O26 2.322 . S
Ho1 O28 2.378 . S
Ho1 O29 2.524 . S
Ho1 O30 2.381 . S
Ho1 O31 2.669 . S
C2 O20 1.259 . S
C2 O21 1.268 . S
C3 Ho0 2.811 . S
C3 C4 1.488 . S
C3 O22 1.215 . S
C3 O23 1.289 . S
C4 C3 1.488 . S
C4 C5 1.348 . S
C4 C9 1.413 . S
C5 C4 1.348 . S
C5 C6 1.442 . S
C5 H32 0.930 . S
C6 C5 1.442 . S
C6 C7 1.381 . S
C6 H33 0.931 . S
C7 C6 1.381 . S
C7 C8 1.321 . S
C8 C7 1.321 . S
C8 C9 1.403 . S
C8 H34 0.934 . S
C9 C4 1.413 . S
C9 C8 1.403 . S
C9 H35 0.930 . S
C10 O24 1.275 . S
C10 O25 1.256 . S
C11 O26 1.259 . S
C11 O27 1.268 . S
C12 Ho1 2.811 . S
C12 C13 1.488 . S
C12 O28 1.215 . S
C12 O29 1.289 . S
C13 C12 1.488 . S
C13 C14 1.348 . S
C13 C18 1.413 . S
C14 C13 1.348 . S
C14 C15 1.442 . S
C14 H36 0.930 . S
C15 C14 1.442 . S
C15 C16 1.381 . S
C15 H37 0.931 . S
C16 C15 1.381 . S
C16 C17 1.321 . S
C17 C16 1.321 . S
C17 C18 1.403 . S
C17 H38 0.934 1_556 S
C18 C13 1.413 . S
C18 C17 1.403 . S
C18 H39 0.931 1_556 S
C19 O30 1.275 . S
C19 O31 1.256 . S
O20 Ho0 2.322 . S
O20 C2 1.259 . S
O21 Ho1 2.346 . S
O21 C2 1.268 . S
O22 Ho0 2.378 . S
O22 C3 1.215 . S
O23 Ho0 2.524 . S
O23 C3 1.289 . S
O24 Ho0 2.381 . S
O24 C10 1.275 . S
O25 Ho0 2.669 . S
O25 Ho1 2.305 . S
O25 C10 1.256 . S
O26 Ho1 2.322 . S
O26 C11 1.259 . S
O27 Ho0 2.346 . S
O27 C11 1.268 . S
O28 Ho1 2.378 . S
O28 C12 1.215 . S
O29 Ho1 2.524 . S
O29 C12 1.289 . S
O30 Ho1 2.381 . S
O30 C19 1.275 . S
O31 Ho0 2.305 . S
O31 Ho1 2.669 . S
O31 C19 1.256 . S
H32 C5 0.930 . S
H33 C6 0.931 . S
H34 C8 0.934 . S
H35 C9 0.930 . S
H36 C14 0.930 . S
H37 C15 0.931 . S
H38 C17 0.934 1_554 S
H39 C18 0.931 1_554 S
Ho40 C43 2.811 . S
Ho40 O60 2.322 . S
Ho40 O62 2.378 . S
Ho40 O63 2.524 . S
Ho40 O64 2.381 1_554 S
Ho40 O65 2.669 1_554 S
Ho40 O67 2.346 . S
Ho40 O71 2.305 . S
Ho41 C52 2.811 1_554 S
Ho41 O61 2.346 . S
Ho41 O65 2.305 1_554 S
Ho41 O66 2.322 . S
Ho41 O68 2.378 . S
Ho41 O69 2.524 1_554 S
Ho41 O70 2.381 . S
Ho41 O71 2.669 . S
C42 O60 1.259 . S
C42 O61 1.268 . S
C43 Ho40 2.811 . S
C43 C44 1.488 . S
C43 O62 1.215 . S
C43 O63 1.289 . S
C44 C43 1.488 . S
C44 C45 1.348 . S
C44 C49 1.413 . S
C45 C44 1.348 . S
C45 C46 1.442 . S
C45 H72 0.930 . S
C46 C45 1.442 . S
C46 C47 1.381 . S
C46 H73 0.931 . S
C47 C46 1.381 . S
C47 C48 1.321 . S
C48 C47 1.321 . S
C48 C49 1.403 . S
C48 H74 0.934 . S
C49 C44 1.413 . S
C49 C48 1.403 . S
C49 H75 0.930 . S
C50 O64 1.275 . S
C50 O65 1.256 . S
C51 O66 1.259 . S
C51 O67 1.268 . S
C52 Ho41 2.811 1_556 S
C52 C53 1.488 . S
C52 O68 1.215 1_556 S
C52 O69 1.289 . S
C53 C52 1.488 . S
C53 C54 1.348 . S
C53 C58 1.413 1_556 S
C54 C53 1.348 . S
C54 C55 1.442 . S
C54 H76 0.930 . S
C55 C54 1.442 . S
C55 C56 1.381 . S
C55 H77 0.931 . S
C56 C55 1.381 . S
C56 C57 1.321 . S
C57 C56 1.321 . S
C57 C58 1.403 1_556 S
C57 H78 0.934 1_556 S
C58 C53 1.413 1_554 S
C58 C57 1.403 1_554 S
C58 H79 0.930 . S
C59 O70 1.275 . S
C59 O71 1.256 . S
O60 Ho40 2.322 . S
O60 C42 1.259 . S
O61 Ho41 2.346 . S
O61 C42 1.268 . S
O62 Ho40 2.378 . S
O62 C43 1.215 . S
O63 Ho40 2.524 . S
O63 C43 1.289 . S
O64 Ho40 2.381 1_556 S
O64 C50 1.275 . S
O65 Ho40 2.669 1_556 S
O65 Ho41 2.305 1_556 S
O65 C50 1.256 . S
O66 Ho41 2.322 . S
O66 C51 1.259 . S
O67 Ho40 2.346 . S
O67 C51 1.268 . S
O68 Ho41 2.378 . S
O68 C52 1.215 1_554 S
O69 Ho41 2.524 1_556 S
O69 C52 1.289 . S
O70 Ho41 2.381 . S
O70 C59 1.275 . S
O71 Ho40 2.305 . S
O71 Ho41 2.669 . S
O71 C59 1.256 . S
H72 C45 0.930 . S
H73 C46 0.931 . S
H74 C48 0.934 . S
H75 C49 0.930 . S
H76 C54 0.930 . S
H77 C55 0.931 . S
H78 C57 0.934 1_554 S
H79 C58 0.930 . S
Ho80 C83 2.811 . S
Ho80 O100 2.322 . S
Ho80 O102 2.378 . S
Ho80 O103 2.524 . S
Ho80 O104 2.381 1_556 S
Ho80 O105 2.669 . S
Ho80 O107 2.346 . S
Ho80 O111 2.305 . S
Ho81 C92 2.811 . S
Ho81 O101 2.346 . S
Ho81 O105 2.305 . S
Ho81 O106 2.322 . S
Ho81 O108 2.378 . S
Ho81 O109 2.524 . S
Ho81 O110 2.381 . S
Ho81 O111 2.669 . S
C82 O100 1.259 . S
C82 O101 1.268 . S
C83 Ho80 2.811 . S
C83 C84 1.488 . S
C83 O102 1.215 . S
C83 O103 1.289 . S
C84 C83 1.488 . S
C84 C85 1.348 . S
C84 C89 1.413 . S
C85 C84 1.348 . S
C85 C86 1.442 . S
C85 H112 0.930 . S
C86 C85 1.442 . S
C86 C87 1.381 . S
C86 H113 0.931 . S
C87 C86 1.381 . S
C87 C88 1.321 . S
C88 C87 1.321 . S
C88 C89 1.403 . S
C88 H114 0.934 . S
C89 C84 1.413 . S
C89 C88 1.403 . S
C89 H115 0.930 . S
C90 O104 1.275 . S
C90 O105 1.256 1_554 S
C91 O106 1.259 . S
C91 O107 1.268 . S
C92 Ho81 2.811 . S
C92 C93 1.488 . S
C92 O108 1.215 . S
C92 O109 1.289 . S
C93 C92 1.488 . S
C93 C94 1.348 1_556 S
C93 C98 1.413 . S
C94 C93 1.348 1_554 S
C94 C95 1.442 . S
C94 H116 0.930 . S
C95 C94 1.442 . S
C95 C96 1.381 1_554 S
C95 H117 0.931 . S
C96 C95 1.381 1_556 S
C96 C97 1.321 . S
C97 C96 1.321 . S
C97 C98 1.403 . S
C97 H118 0.934 . S
C98 C93 1.413 . S
C98 C97 1.403 . S
C98 H119 0.930 . S
C99 O110 1.275 . S
C99 O111 1.256 . S
O100 Ho80 2.322 . S
O100 C82 1.259 . S
O101 Ho81 2.346 . S
O101 C82 1.268 . S
O102 Ho80 2.378 . S
O102 C83 1.215 . S
O103 Ho80 2.524 . S
O103 C83 1.289 . S
O104 Ho80 2.381 1_554 S
O104 C90 1.275 . S
O105 Ho80 2.669 . S
O105 Ho81 2.305 . S
O105 C90 1.256 1_556 S
O106 Ho81 2.322 . S
O106 C91 1.259 . S
O107 Ho80 2.346 . S
O107 C91 1.268 . S
O108 Ho81 2.378 . S
O108 C92 1.215 . S
O109 Ho81 2.524 . S
O109 C92 1.289 . S
O110 Ho81 2.381 . S
O110 C99 1.275 . S
O111 Ho80 2.305 . S
O111 Ho81 2.669 . S
O111 C99 1.256 . S
H112 C85 0.930 . S
H113 C86 0.931 . S
H114 C88 0.934 . S
H115 C89 0.930 . S
H116 C94 0.930 . S
H117 C95 0.931 . S
H118 C97 0.934 . S
H119 C98 0.930 . S
Ho120 C123 2.811 . S
Ho120 O140 2.322 . S
Ho120 O142 2.378 1_554 S
Ho120 O143 2.524 . S
Ho120 O144 2.381 1_554 S
Ho120 O145 2.669 1_554 S
Ho120 O147 2.346 1_554 S
Ho120 O151 2.305 . S
Ho121 C132 2.811 1_554 S
Ho121 O141 2.346 . S
Ho121 O145 2.305 1_554 S
Ho121 O146 2.323 1_554 S
Ho121 O148 2.378 . S
Ho121 O149 2.524 1_554 S
Ho121 O150 2.381 . S
Ho121 O151 2.669 . S
C122 O140 1.259 . S
C122 O141 1.268 . S
C123 Ho120 2.811 . S
C123 C124 1.488 . S
C123 O142 1.215 1_554 S
C123 O143 1.289 . S
C124 C123 1.488 . S
C124 C125 1.348 . S
C124 C129 1.413 . S
C125 C124 1.348 . S
C125 C126 1.442 . S
C125 H152 0.930 . S
C126 C125 1.442 . S
C126 C127 1.381 . S
C126 H153 0.931 . S
C127 C126 1.381 . S
C127 C128 1.321 . S
C128 C127 1.321 . S
C128 C129 1.403 . S
C128 H154 0.934 . S
C129 C124 1.413 . S
C129 C128 1.403 . S
C129 H155 0.930 1_554 S
C130 O144 1.275 . S
C130 O145 1.256 . S
C131 O146 1.264 . S
C131 O147 1.268 . S
C132 Ho121 2.811 1_556 S
C132 C133 1.488 . S
C132 O148 1.215 1_556 S
C132 O149 1.289 . S
C133 C132 1.488 . S
C133 C134 1.348 . S
C133 C138 1.413 . S
C134 C133 1.348 . S
C134 C135 1.442 . S
C134 H156 0.930 . S
C135 C134 1.442 . S
C135 C136 1.381 . S
C135 H157 0.931 . S
C136 C135 1.381 . S
C136 C137 1.321 . S
C137 C136 1.321 . S
C137 C138 1.403 . S
C137 H158 0.934 . S
C138 C133 1.413 . S
C138 C137 1.403 . S
C138 H159 0.930 1_556 S
C139 O150 1.275 . S
C139 O151 1.256 . S
O140 Ho120 2.322 . S
O140 C122 1.259 . S
O141 Ho121 2.346 . S
O141 C122 1.268 . S
O142 Ho120 2.378 1_556 S
O142 C123 1.215 1_556 S
O143 Ho120 2.524 . S
O143 C123 1.289 . S
O144 Ho120 2.381 1_556 S
O144 C130 1.275 . S
O145 Ho120 2.669 1_556 S
O145 Ho121 2.305 1_556 S
O145 C130 1.256 . S
O146 Ho121 2.323 1_556 S
O146 C131 1.264 . S
O147 Ho120 2.346 1_556 S
O147 C131 1.268 . S
O148 Ho121 2.378 . S
O148 C132 1.215 1_554 S
O149 Ho121 2.524 1_556 S
O149 C132 1.289 . S
O150 Ho121 2.381 . S
O150 C139 1.275 . S
O151 Ho120 2.305 . S
O151 Ho121 2.669 . S
O151 C139 1.256 . S
H152 C125 0.930 . S
H153 C126 0.931 . S
H154 C128 0.934 . S
H155 C129 0.930 1_556 S
H156 C134 0.930 . S
H157 C135 0.931 . S
H158 C137 0.934 . S
H159 C138 0.930 1_554 S
Ho160 C163 2.811 . S
Ho160 O180 2.322 . S
Ho160 O182 2.378 . S
Ho160 O183 2.524 . S
Ho160 O184 2.381 . S
Ho160 O185 2.669 . S
Ho160 O187 2.346 . S
Ho160 O191 2.305 . S
Ho161 C172 2.811 . S
Ho161 O181 2.346 . S
Ho161 O185 2.305 . S
Ho161 O186 2.322 . S
Ho161 O188 2.377 . S
Ho161 O189 2.524 . S
Ho161 O190 2.381 1_556 S
Ho161 O191 2.669 . S
C162 O180 1.259 . S
C162 O181 1.268 . S
C163 Ho160 2.811 . S
C163 C164 1.488 . S
C163 O182 1.215 . S
C163 O183 1.289 . S
C164 C163 1.488 . S
C164 C165 1.348 . S
C164 C169 1.413 . S
C165 C164 1.348 . S
C165 C166 1.442 . S
C165 H192 0.930 . S
C166 C165 1.442 . S
C166 C167 1.381 . S
C166 H193 0.931 . S
C167 C166 1.381 . S
C167 C168 1.321 . S
C168 C167 1.321 . S
C168 C169 1.403 . S
C168 H194 0.934 . S
C169 C164 1.413 . S
C169 C168 1.403 . S
C169 H195 0.930 . S
C170 O184 1.275 . S
C170 O185 1.256 . S
C171 O186 1.259 . S
C171 O187 1.268 . S
C172 Ho161 2.811 . S
C172 C173 1.488 . S
C172 O188 1.215 . S
C172 O189 1.289 . S
C173 C172 1.488 . S
C173 C174 1.348 . S
C173 C178 1.413 1_556 S
C174 C173 1.348 . S
C174 C175 1.442 . S
C174 H196 0.930 . S
C175 C174 1.442 . S
C175 C176 1.381 . S
C175 H197 0.931 . S
C176 C175 1.381 . S
C176 C177 1.321 1_556 S
C177 C176 1.321 1_554 S
C177 C178 1.403 . S
C177 H198 0.934 . S
C178 C173 1.413 1_554 S
C178 C177 1.403 . S
C178 H199 0.930 . S
C179 O190 1.275 . S
C179 O191 1.256 1_554 S
O180 Ho160 2.322 . S
O180 C162 1.259 . S
O181 Ho161 2.346 . S
O181 C162 1.268 . S
O182 Ho160 2.378 . S
O182 C163 1.215 . S
O183 Ho160 2.524 . S
O183 C163 1.289 . S
O184 Ho160 2.381 . S
O184 C170 1.275 . S
O185 Ho160 2.669 . S
O185 Ho161 2.305 . S
O185 C170 1.256 . S
O186 Ho161 2.322 . S
O186 C171 1.259 . S
O187 Ho160 2.346 . S
O187 C171 1.268 . S
O188 Ho161 2.377 . S
O188 C172 1.215 . S
O189 Ho161 2.524 . S
O189 C172 1.289 . S
O190 Ho161 2.381 1_554 S
O190 C179 1.275 . S
O191 Ho160 2.305 . S
O191 Ho161 2.669 . S
O191 C179 1.256 1_556 S
H192 C165 0.930 . S
H193 C166 0.931 . S
H194 C168 0.934 . S
H195 C169 0.930 . S
H196 C174 0.930 . S
H197 C175 0.931 . S
H198 C177 0.934 . S
H199 C178 0.930 . S
Ho200 C203 2.811 . S
Ho200 O220 2.322 . S
Ho200 O222 2.378 1_554 S
Ho200 O223 2.524 . S
Ho200 O224 2.381 1_554 S
Ho200 O225 2.669 1_554 S
Ho200 O227 2.346 1_554 S
Ho200 O231 2.305 . S
Ho201 C212 2.811 1_554 S
Ho201 O221 2.346 . S
Ho201 O225 2.305 1_554 S
Ho201 O226 2.322 . S
Ho201 O228 2.378 . S
Ho201 O229 2.524 1_554 S
Ho201 O230 2.381 . S
Ho201 O231 2.669 . S
C202 O220 1.259 . S
C202 O221 1.268 . S
C203 Ho200 2.811 . S
C203 C204 1.488 . S
C203 O222 1.215 1_554 S
C203 O223 1.289 . S
C204 C203 1.488 . S
C204 C205 1.348 . S
C204 C209 1.413 . S
C205 C204 1.348 . S
C205 C206 1.442 . S
C205 H232 0.930 . S
C206 C205 1.442 . S
C206 C207 1.379 1_545 S
C206 H233 0.931 . S
C207 C206 1.379 1_565 S
C207 C208 1.323 . S
C208 C207 1.323 . S
C208 C209 1.403 1_565 S
C208 H234 0.934 1_554 S
C209 C204 1.413 . S
C209 C208 1.403 1_545 S
C209 H235 0.930 1_554 S
C210 O224 1.275 . S
C210 O225 1.256 . S
C211 O226 1.259 1_556 S
C211 O227 1.268 . S
C212 Ho201 2.811 1_556 S
C212 C213 1.488 . S
C212 O228 1.215 1_556 S
C212 O229 1.289 . S
C213 C212 1.488 . S
C213 C214 1.348 . S
C213 C218 1.413 1_556 S
C214 C213 1.348 . S
C214 C215 1.442 . S
C214 H236 0.930 . S
C215 C214 1.442 . S
C215 C216 1.381 . S
C215 H237 0.931 . S
C216 C215 1.381 . S
C216 C217 1.321 1_556 S
C217 C216 1.321 1_554 S
C217 C218 1.403 . S
C217 H238 0.934 . S
C218 C213 1.413 1_554 S
C218 C217 1.403 . S
C218 H239 0.930 . S
C219 O230 1.275 . S
C219 O231 1.256 . S
O220 Ho200 2.322 . S
O220 C202 1.259 . S
O221 Ho201 2.346 . S
O221 C202 1.268 . S
O222 Ho200 2.378 1_556 S
O222 C203 1.215 1_556 S
O223 Ho200 2.524 . S
O223 C203 1.289 . S
O224 Ho200 2.381 1_556 S
O224 C210 1.275 . S
O225 Ho200 2.669 1_556 S
O225 Ho201 2.305 1_556 S
O225 C210 1.256 . S
O226 Ho201 2.322 . S
O226 C211 1.259 1_554 S
O227 Ho200 2.346 1_556 S
O227 C211 1.268 . S
O228 Ho201 2.378 . S
O228 C212 1.215 1_554 S
O229 Ho201 2.524 1_556 S
O229 C212 1.289 . S
O230 Ho201 2.381 . S
O230 C219 1.275 . S
O231 Ho200 2.305 . S
O231 Ho201 2.669 . S
O231 C219 1.256 . S
H232 C205 0.930 . S
H233 C206 0.931 . S
H234 C208 0.934 1_556 S
H235 C209 0.930 1_556 S
H236 C214 0.930 . S
H237 C215 0.931 . S
H238 C217 0.934 . S
H239 C218 0.930 . S
H240 C248 0.929 . S
H241 C250 0.930 . S
H242 C252 0.930 . S
H243 C255 0.929 . S
H244 C258 0.930 . S
H245 C260 0.960 . S
H246 C260 0.960 . S
H247 C260 0.960 . S
C248 H240 0.929 . S
C248 C249 1.377 . S
C248 C250 1.384 . S
C249 C248 1.377 . S
C249 C255 1.390 . S
C250 H241 0.930 . S
C250 C248 1.384 . S
C250 C251 1.372 . S
C251 C250 1.372 . S
C251 C252 1.400 . S
C251 C256 1.490 . S
C252 H242 0.930 . S
C252 C251 1.400 . S
C252 C255 1.386 . S
H253 C269 0.930 . S
H254 C270 0.931 . S
C255 H243 0.929 . S
C255 C249 1.390 . S
C255 C252 1.386 . S
C256 C251 1.490 . S
C256 C258 1.395 . S
C256 C259 1.403 . S
H257 C263 0.930 . S
C258 H244 0.930 . S
C258 C256 1.395 . S
C258 C261 1.403 . S
C259 C256 1.403 . S
C259 C260 1.524 . S
C259 C263 1.400 . S
C260 H245 0.960 . S
C260 H246 0.960 . S
C260 H247 0.960 . S
C260 C259 1.524 . S
C261 C258 1.403 . S
C261 C262 1.392 . S
C261 C265 1.495 . S
C262 C261 1.392 . S
C262 C263 1.385 . S
C262 C264 1.478 . S
C263 H257 0.930 . S
C263 C259 1.400 . S
C263 C262 1.385 . S
C264 C262 1.478 . S
C264 C266 1.381 . S
C264 C270 1.383 . S
C265 C261 1.495 . S
C265 H271 0.959 . S
C265 H272 0.961 . S
C265 H273 0.960 . S
C266 C264 1.381 . S
C266 C267 1.394 . S
C266 H274 0.930 . S
C267 C266 1.394 . S
C267 C268 1.383 . S
C267 H275 0.929 . S
C268 C267 1.383 . S
C268 C269 1.377 . S
C269 H253 0.930 . S
C269 C268 1.377 . S
C269 C270 1.379 . S
C270 H254 0.931 . S
C270 C264 1.383 . S
C270 C269 1.379 . S
H271 C265 0.959 . S
H272 C265 0.961 . S
H273 C265 0.960 . S
H274 C266 0.930 . S
H275 C267 0.929 . S
H276 C284 0.929 . S
H277 C286 0.930 . S
H278 C288 0.930 . S
H279 C291 0.929 . S
H280 C294 0.930 . S
H281 C296 0.960 . S
H282 C296 0.960 . S
H283 C296 0.960 . S
C284 H276 0.929 . S
C284 C285 1.377 . S
C284 C286 1.384 . S
C285 C284 1.377 . S
C285 C291 1.390 . S
C286 H277 0.930 . S
C286 C284 1.384 . S
C286 C287 1.372 . S
C287 C286 1.372 . S
C287 C288 1.400 . S
C287 C292 1.490 . S
C288 H278 0.930 . S
C288 C287 1.400 . S
C288 C291 1.386 . S
H289 C305 0.930 . S
H290 C306 0.931 . S
C291 H279 0.929 . S
C291 C285 1.390 . S
C291 C288 1.386 . S
C292 C287 1.490 . S
C292 C294 1.395 . S
C292 C295 1.403 . S
H293 C299 0.930 . S
C294 H280 0.930 . S
C294 C292 1.395 . S
C294 C297 1.403 . S
C295 C292 1.403 . S
C295 C296 1.524 . S
C295 C299 1.400 . S
C296 H281 0.960 . S
C296 H282 0.960 . S
C296 H283 0.960 . S
C296 C295 1.524 . S
C297 C294 1.403 . S
C297 C298 1.392 . S
C297 C301 1.495 . S
C298 C297 1.392 . S
C298 C299 1.385 . S
C298 C300 1.478 . S
C299 H293 0.930 . S
C299 C295 1.400 . S
C299 C298 1.385 . S
C300 C298 1.478 . S
C300 C302 1.381 . S
C300 C306 1.383 . S
C301 C297 1.495 . S
C301 H307 0.959 . S
C301 H308 0.961 . S
C301 H309 0.960 . S
C302 C300 1.381 . S
C302 C303 1.394 . S
C302 H310 0.930 . S
C303 C302 1.394 . S
C303 C304 1.383 . S
C303 H311 0.929 . S
C304 C303 1.383 . S
C304 C305 1.377 . S
C305 H289 0.930 . S
C305 C304 1.377 . S
C305 C306 1.379 . S
C306 H290 0.931 . S
C306 C300 1.383 . S
C306 C305 1.379 . S
H307 C301 0.959 . S
H308 C301 0.961 . S
H309 C301 0.960 . S
H310 C302 0.930 . S
H311 C303 0.929 . S
H312 C320 0.929 . S
H313 C322 0.929 1_565 S
H314 C324 0.930 . S
H315 C327 0.929 . S
H316 C330 0.930 . S
H317 C332 0.960 . S
H318 C332 0.960 . S
H319 C332 0.960 . S
C320 H312 0.929 . S
C320 C321 1.377 . S
C320 C322 1.384 . S
C321 C320 1.377 . S
C321 C327 1.390 . S
C322 H313 0.929 1_545 S
C322 C320 1.384 . S
C322 C323 1.372 . S
C323 C322 1.372 . S
C323 C324 1.400 . S
C323 C328 1.490 . S
C324 H314 0.930 . S
C324 C323 1.400 . S
C324 C327 1.386 . S
H325 C341 0.930 . S
H326 C342 0.931 . S
C327 H315 0.929 . S
C327 C321 1.390 . S
C327 C324 1.386 . S
C328 C323 1.490 . S
C328 C330 1.395 1_545 S
C328 C331 1.403 . S
H329 C335 0.940 . S
C330 H316 0.930 . S
C330 C328 1.395 1_565 S
C330 C333 1.403 . S
C331 C328 1.403 . S
C331 C332 1.524 . S
C331 C335 1.422 . S
C332 H317 0.960 . S
C332 H318 0.960 . S
C332 H319 0.960 . S
C332 C331 1.524 . S
C333 C330 1.403 . S
C333 C334 1.392 . S
C333 C337 1.495 . S
C334 C333 1.392 . S
C334 C335 1.355 1_565 S
C334 C336 1.478 . S
C335 H329 0.940 . S
C335 C331 1.422 . S
C335 C334 1.355 1_545 S
C336 C334 1.478 . S
C336 C338 1.381 . S
C336 C342 1.383 . S
C337 C333 1.495 . S
C337 H343 0.959 . S
C337 H344 0.961 . S
C337 H345 0.960 . S
C338 C336 1.381 . S
C338 C339 1.394 . S
C338 H346 0.930 . S
C339 C338 1.394 . S
C339 C340 1.383 . S
C339 H347 0.929 . S
C340 C339 1.383 . S
C340 C341 1.377 . S
C341 H325 0.930 . S
C341 C340 1.377 . S
C341 C342 1.379 . S
C342 H326 0.931 . S
C342 C336 1.383 . S
C342 C341 1.379 . S
H343 C337 0.959 . S
H344 C337 0.961 . S
H345 C337 0.960 . S
H346 C338 0.930 . S
H347 C339 0.929 . S
H348 C356 0.929 . S
H349 C358 0.930 . S
H350 C360 0.930 . S
H351 C363 0.929 . S
H352 C366 0.930 . S
H353 C368 0.960 . S
H354 C368 0.960 . S
H355 C368 0.960 . S
C356 H348 0.929 . S
C356 C357 1.377 . S
C356 C358 1.384 . S
C357 C356 1.377 . S
C357 C363 1.390 . S
C358 H349 0.930 . S
C358 C356 1.384 . S
C358 C359 1.372 . S
C359 C358 1.372 . S
C359 C360 1.400 . S
C359 C364 1.490 . S
C360 H350 0.930 . S
C360 C359 1.400 . S
C360 C363 1.386 . S
H361 C377 0.930 . S
H362 C378 0.931 . S
C363 H351 0.929 . S
C363 C357 1.390 . S
C363 C360 1.386 . S
C364 C359 1.490 . S
C364 C366 1.395 . S
C364 C367 1.403 . S
H365 C371 0.930 . S
C366 H352 0.930 . S
C366 C364 1.395 . S
C366 C369 1.403 . S
C367 C364 1.403 . S
C367 C368 1.524 . S
C367 C371 1.400 . S
C368 H353 0.960 . S
C368 H354 0.960 . S
C368 H355 0.960 . S
C368 C367 1.524 . S
C369 C366 1.403 . S
C369 C370 1.392 . S
C369 C373 1.495 . S
C370 C369 1.392 . S
C370 C371 1.385 . S
C370 C372 1.478 . S
C371 H365 0.930 . S
C371 C367 1.400 . S
C371 C370 1.385 . S
C372 C370 1.478 . S
C372 C374 1.381 . S
C372 C378 1.383 . S
C373 C369 1.495 . S
C373 H379 0.959 . S
C373 H380 0.961 . S
C373 H381 0.960 . S
C374 C372 1.381 . S
C374 C375 1.394 . S
C374 H382 0.930 . S
C375 C374 1.394 . S
C375 C376 1.383 . S
C375 H383 0.929 . S
C376 C375 1.383 . S
C376 C377 1.377 . S
C377 H361 0.930 . S
C377 C376 1.377 . S
C377 C378 1.379 . S
C378 H362 0.931 . S
C378 C372 1.383 . S
C378 C377 1.379 . S
H379 C373 0.959 . S
H380 C373 0.961 . S
H381 C373 0.960 . S
H382 C374 0.930 . S
H383 C375 0.929 . S
H384 C392 0.929 . S
H385 C394 0.930 . S
H386 C396 0.930 . S
H387 C399 0.929 . S
H388 C402 0.930 . S
H389 C404 0.960 . S
H390 C404 0.960 . S
H391 C404 0.960 . S
C392 H384 0.929 . S
C392 C393 1.377 . S
C392 C394 1.384 . S
C393 C392 1.377 . S
C393 C399 1.390 . S
C394 H385 0.930 . S
C394 C392 1.384 . S
C394 C395 1.372 . S
C395 C394 1.372 . S
C395 C396 1.400 . S
C395 C400 1.490 . S
C396 H386 0.930 . S
C396 C395 1.400 . S
C396 C399 1.386 . S
H397 C413 0.930 . S
H398 C414 0.931 . S
C399 H387 0.929 . S
C399 C393 1.390 . S
C399 C396 1.386 . S
C400 C395 1.490 . S
C400 C402 1.395 . S
C400 C403 1.403 1_455 S
H401 C407 0.930 . S
C402 H388 0.930 . S
C402 C400 1.395 . S
C402 C405 1.403 1_455 S
C403 C400 1.403 1_655 S
C403 C404 1.524 . S
C403 C407 1.400 . S
C404 H389 0.960 . S
C404 H390 0.960 . S
C404 H391 0.960 . S
C404 C403 1.524 . S
C405 C402 1.403 1_655 S
C405 C406 1.392 . S
C405 C409 1.495 1_655 S
C406 C405 1.392 . S
C406 C407 1.385 . S
C406 C408 1.478 . S
C407 H401 0.930 . S
C407 C403 1.400 . S
C407 C406 1.385 . S
C408 C406 1.478 . S
C408 C410 1.381 . S
C408 C414 1.383 . S
C409 C405 1.495 1_455 S
C409 H415 0.959 . S
C409 H416 0.961 . S
C409 H417 0.960 1_455 S
C410 C408 1.381 . S
C410 C411 1.394 . S
C410 H418 0.930 . S
C411 C410 1.394 . S
C411 C412 1.383 . S
C411 H419 0.929 . S
C412 C411 1.383 . S
C412 C413 1.377 . S
C413 H397 0.930 . S
C413 C412 1.377 . S
C413 C414 1.379 . S
C414 H398 0.931 . S
C414 C408 1.383 . S
C414 C413 1.379 . S
H415 C409 0.959 . S
H416 C409 0.961 . S
H417 C409 0.960 1_655 S
H418 C410 0.930 . S
H419 C411 0.929 . S
H420 C428 0.929 . S
H421 C430 0.930 . S
H422 C432 0.930 . S
H423 C435 0.929 . S
H424 C438 0.930 . S
H425 C440 0.960 . S
H426 C440 0.960 . S
H427 C440 0.960 . S
C428 H420 0.929 . S
C428 C429 1.377 . S
C428 C430 1.384 . S
C429 C428 1.377 . S
C429 C435 1.390 . S
C430 H421 0.930 . S
C430 C428 1.384 . S
C430 C431 1.372 . S
C431 C430 1.372 . S
C431 C432 1.400 . S
C431 C436 1.490 . S
C432 H422 0.930 . S
C432 C431 1.400 . S
C432 C435 1.386 . S
H433 C449 0.930 . S
H434 C450 0.931 . S
C435 H423 0.929 . S
C435 C429 1.390 . S
C435 C432 1.386 . S
C436 C431 1.490 . S
C436 C438 1.395 . S
C436 C439 1.403 . S
H437 C443 0.930 . S
C438 H424 0.930 . S
C438 C436 1.395 . S
C438 C441 1.403 . S
C439 C436 1.403 . S
C439 C440 1.524 . S
C439 C443 1.400 . S
C440 H425 0.960 . S
C440 H426 0.960 . S
C440 H427 0.960 . S
C440 C439 1.524 . S
C441 C438 1.403 . S
C441 C442 1.392 . S
C441 C445 1.495 . S
C442 C441 1.392 . S
C442 C443 1.385 . S
C442 C444 1.478 . S
C443 H437 0.930 . S
C443 C439 1.400 . S
C443 C442 1.385 . S
C444 C442 1.478 . S
C444 C446 1.381 . S
C444 C450 1.383 . S
C445 C441 1.495 . S
C445 H451 0.959 . S
C445 H452 0.961 1_565 S
C445 H453 0.960 . S
C446 C444 1.381 . S
C446 C447 1.394 . S
C446 H454 0.930 . S
C447 C446 1.394 . S
C447 C448 1.383 . S
C447 H455 0.929 . S
C448 C447 1.383 . S
C448 C449 1.377 . S
C449 H433 0.930 . S
C449 C448 1.377 . S
C449 C450 1.379 . S
C450 H434 0.931 . S
C450 C444 1.383 . S
C450 C449 1.379 . S
H451 C445 0.959 . S
H452 C445 0.961 1_545 S
H453 C445 0.960 . S
H454 C446 0.930 . S
H455 C447 0.929 . S
H456 C464 0.929 1_554 S
H457 C466 0.930 1_554 S
H458 C468 0.930 . S
H459 C471 0.929 . S
H460 C474 0.930 . S
H461 C476 0.960 . S
H462 C476 0.960 . S
H463 C476 0.960 . S
C464 H456 0.929 1_556 S
C464 C465 1.377 . S
C464 C466 1.384 . S
C465 C464 1.377 . S
C465 C471 1.390 . S
C466 H457 0.930 1_556 S
C466 C464 1.384 . S
C466 C467 1.372 . S
C467 C466 1.372 . S
C467 C468 1.400 . S
C467 C472 1.490 . S
C468 H458 0.930 . S
C468 C467 1.400 . S
C468 C471 1.386 . S
H469 C485 0.930 . S
H470 C486 0.931 . S
C471 H459 0.929 . S
C471 C465 1.390 . S
C471 C468 1.386 . S
C472 C467 1.490 . S
C472 C474 1.395 . S
C472 C475 1.403 . S
H473 C479 0.930 . S
C474 H460 0.930 . S
C474 C472 1.395 . S
C474 C477 1.403 . S
C475 C472 1.403 . S
C475 C476 1.524 . S
C475 C479 1.400 . S
C476 H461 0.960 . S
C476 H462 0.960 . S
C476 H463 0.960 . S
C476 C475 1.524 . S
C477 C474 1.403 . S
C477 C478 1.392 . S
C477 C481 1.495 . S
C478 C477 1.392 . S
C478 C479 1.385 . S
C478 C480 1.478 . S
C479 H473 0.930 . S
C479 C475 1.400 . S
C479 C478 1.385 . S
C480 C478 1.478 . S
C480 C482 1.381 . S
C480 C486 1.383 . S
C481 C477 1.495 . S
C481 H487 0.959 . S
C481 H488 0.961 . S
C481 H489 0.960 . S
C482 C480 1.381 . S
C482 C483 1.394 . S
C482 H490 0.930 1_556 S
C483 C482 1.394 . S
C483 C484 1.383 . S
C483 H491 0.929 1_556 S
C484 C483 1.383 . S
C484 C485 1.377 . S
C485 H469 0.930 . S
C485 C484 1.377 . S
C485 C486 1.379 . S
C486 H470 0.931 . S
C486 C480 1.383 . S
C486 C485 1.379 . S
H487 C481 0.959 . S
H488 C481 0.961 . S
H489 C481 0.960 . S
H490 C482 0.930 1_554 S
H491 C483 0.929 1_554 S
H492 C500 0.929 . S
H493 C502 0.930 . S
H494 C504 0.930 . S
H495 C507 0.929 . S
H496 C510 0.930 . S
H497 C512 0.960 . S
H498 C512 0.960 . S
H499 C512 0.960 . S
C500 H492 0.929 . S
C500 C501 1.377 . S
C500 C502 1.384 . S
C501 C500 1.377 . S
C501 C507 1.390 . S
C502 H493 0.930 . S
C502 C500 1.384 . S
C502 C503 1.372 . S
C503 C502 1.372 . S
C503 C504 1.400 . S
C503 C508 1.490 . S
C504 H494 0.930 . S
C504 C503 1.400 . S
C504 C507 1.386 . S
H505 C521 0.930 . S
H506 C522 0.931 . S
C507 H495 0.929 . S
C507 C501 1.390 . S
C507 C504 1.386 . S
C508 C503 1.490 . S
C508 C510 1.395 . S
C508 C511 1.403 1_556 S
H509 C515 0.930 1_554 S
C510 H496 0.930 . S
C510 C508 1.395 . S
C510 C513 1.403 . S
C511 C508 1.403 1_554 S
C511 C512 1.524 . S
C511 C515 1.400 1_554 S
C512 H497 0.960 . S
C512 H498 0.960 . S
C512 H499 0.960 . S
C512 C511 1.524 . S
C513 C510 1.403 . S
C513 C514 1.392 . S
C513 C517 1.495 . S
C514 C513 1.392 . S
C514 C515 1.385 . S
C514 C516 1.478 . S
C515 H509 0.930 1_556 S
C515 C511 1.400 1_556 S
C515 C514 1.385 . S
C516 C514 1.478 . S
C516 C518 1.381 . S
C516 C522 1.383 . S
C517 C513 1.495 . S
C517 H523 0.959 . S
C517 H524 0.961 . S
C517 H525 0.960 . S
C518 C516 1.381 . S
C518 C519 1.394 . S
C518 H526 0.930 . S
C519 C518 1.394 . S
C519 C520 1.383 . S
C519 H527 0.929 . S
C520 C519 1.383 . S
C520 C521 1.377 . S
C521 H505 0.930 . S
C521 C520 1.377 . S
C521 C522 1.379 . S
C522 H506 0.931 . S
C522 C516 1.383 . S
C522 C521 1.379 . S
H523 C517 0.959 . S
H524 C517 0.961 . S
H525 C517 0.960 . S
H526 C518 0.930 . S
H527 C519 0.929 . S
H528 C536 0.929 . S
H529 C538 0.930 . S
H530 C540 0.930 1_554 S
H531 C543 0.929 1_554 S
H532 C546 0.930 . S
H533 C548 0.960 . S
H534 C548 0.960 . S
H535 C548 0.960 . S
C536 H528 0.929 . S
C536 C537 1.377 . S
C536 C538 1.384 . S
C537 C536 1.377 . S
C537 C543 1.390 . S
C538 H529 0.930 . S
C538 C536 1.384 . S
C538 C539 1.372 . S
C539 C538 1.372 . S
C539 C540 1.400 . S
C539 C544 1.490 . S
C540 H530 0.930 1_556 S
C540 C539 1.400 . S
C540 C543 1.386 . S
H541 C557 0.930 . S
H542 C558 0.931 . S
C543 H531 0.929 1_556 S
C543 C537 1.390 . S
C543 C540 1.386 . S
C544 C539 1.490 . S
C544 C546 1.395 . S
C544 C547 1.403 . S
H545 C551 0.930 . S
C546 H532 0.930 . S
C546 C544 1.395 . S
C546 C549 1.403 . S
C547 C544 1.403 . S
C547 C548 1.524 . S
C547 C551 1.400 . S
C548 H533 0.960 . S
C548 H534 0.960 . S
C548 H535 0.960 . S
C548 C547 1.524 . S
C549 C546 1.403 . S
C549 C550 1.392 . S
C549 C553 1.495 . S
C550 C549 1.392 . S
C550 C551 1.385 . S
C550 C552 1.478 . S
C551 H545 0.930 . S
C551 C547 1.400 . S
C551 C550 1.385 . S
C552 C550 1.478 . S
C552 C554 1.381 . S
C552 C558 1.383 . S
C553 C549 1.495 . S
C553 H559 0.959 . S
C553 H560 0.961 . S
C553 H561 0.960 . S
C554 C552 1.381 . S
C554 C555 1.394 . S
C554 H562 0.930 . S
C555 C554 1.394 . S
C555 C556 1.383 . S
C555 H563 0.929 . S
C556 C555 1.383 . S
C556 C557 1.377 . S
C557 H541 0.930 . S
C557 C556 1.377 . S
C557 C558 1.379 . S
C558 H542 0.931 . S
C558 C552 1.383 . S
C558 C557 1.379 . S
H559 C553 0.959 . S
H560 C553 0.961 . S
H561 C553 0.960 . S
H562 C554 0.930 . S
H563 C555 0.929 . S
H564 C572 0.929 . S
H565 C574 0.930 . S
H566 C576 0.930 . S
H567 C579 0.929 . S
H568 C582 0.930 . S
H569 C584 0.960 . S
H570 C584 0.960 . S
H571 C584 0.960 . S
C572 H564 0.929 . S
C572 C573 1.377 . S
C572 C574 1.384 . S
C573 C572 1.377 . S
C573 C579 1.390 . S
C574 H565 0.930 . S
C574 C572 1.384 . S
C574 C575 1.372 . S
C575 C574 1.372 . S
C575 C576 1.400 . S
C575 C580 1.490 . S
C576 H566 0.930 . S
C576 C575 1.400 . S
C576 C579 1.386 . S
H577 C593 0.930 . S
H578 C594 0.931 . S
C579 H567 0.929 . S
C579 C573 1.390 . S
C579 C576 1.386 . S
C580 C575 1.490 . S
C580 C582 1.395 1_556 S
C580 C583 1.403 . S
H581 C587 0.930 . S
C582 H568 0.930 . S
C582 C580 1.395 1_554 S
C582 C585 1.403 . S
C583 C580 1.403 . S
C583 C584 1.524 . S
C583 C587 1.400 . S
C584 H569 0.960 . S
C584 H570 0.960 . S
C584 H571 0.960 . S
C584 C583 1.524 . S
C585 C582 1.403 . S
C585 C586 1.392 1_554 S
C585 C589 1.495 . S
C586 C585 1.392 1_556 S
C586 C587 1.385 . S
C586 C588 1.478 . S
C587 H581 0.930 . S
C587 C583 1.400 . S
C587 C586 1.385 . S
C588 C586 1.478 . S
C588 C590 1.381 1_556 S
C588 C594 1.383 . S
C589 C585 1.495 . S
C589 H595 0.959 . S
C589 H596 0.961 . S
C589 H597 0.960 . S
C590 C588 1.381 1_554 S
C590 C591 1.394 . S
C590 H598 0.930 . S
C591 C590 1.394 . S
C591 C592 1.383 . S
C591 H599 0.929 . S
C592 C591 1.383 . S
C592 C593 1.377 1_554 S
C593 H577 0.930 . S
C593 C592 1.377 1_556 S
C593 C594 1.379 . S
C594 H578 0.931 . S
C594 C588 1.383 . S
C594 C593 1.379 . S
H595 C589 0.959 . S
H596 C589 0.961 . S
H597 C589 0.960 . S
H598 C590 0.930 . S
H599 C591 0.929 . S
H600 C608 0.929 . S
H601 C610 0.930 . S
H602 C612 0.930 . S
H603 C615 0.929 . S
H604 C618 0.930 . S
H605 C620 0.960 . S
H606 C620 0.960 1_554 S
H607 C620 0.960 . S
C608 H600 0.929 . S
C608 C609 1.377 1_554 S
C608 C610 1.384 . S
C609 C608 1.377 1_556 S
C609 C615 1.390 . S
C610 H601 0.930 . S
C610 C608 1.384 . S
C610 C611 1.372 1_554 S
C611 C610 1.372 1_556 S
C611 C612 1.400 . S
C611 C616 1.490 . S
C612 H602 0.930 . S
C612 C611 1.400 . S
C612 C615 1.386 . S
H613 C629 0.930 . S
H614 C630 0.931 . S
C615 H603 0.929 . S
C615 C609 1.390 . S
C615 C612 1.386 . S
C616 C611 1.490 . S
C616 C618 1.391 1_556 S
C616 C619 1.406 . S
H617 C623 0.930 . S
C618 H604 0.930 . S
C618 C616 1.391 1_554 S
C618 C621 1.403 . S
C619 C616 1.406 . S
C619 C620 1.524 . S
C619 C623 1.400 . S
C620 H605 0.960 . S
C620 H606 0.960 1_556 S
C620 H607 0.960 . S
C620 C619 1.524 . S
C621 C618 1.403 . S
C621 C622 1.392 . S
C621 C625 1.495 . S
C622 C621 1.392 . S
C622 C623 1.385 1_554 S
C622 C624 1.478 . S
C623 H617 0.930 . S
C623 C619 1.400 . S
C623 C622 1.385 1_556 S
C624 C622 1.478 . S
C624 C626 1.389 . S
C624 C630 1.374 1_554 S
C625 C621 1.495 . S
C625 H631 0.959 . S
C625 H632 0.961 1_554 S
C625 H633 0.960 . S
C626 C624 1.389 . S
C626 C627 1.394 . S
C626 H634 0.930 . S
C627 C626 1.394 . S
C627 C628 1.383 1_554 S
C627 H635 0.929 . S
C628 C627 1.383 1_556 S
C628 C629 1.377 . S
C629 H613 0.930 . S
C629 C628 1.377 . S
C629 C630 1.379 . S
C630 H614 0.931 . S
C630 C624 1.374 1_556 S
C630 C629 1.379 . S
H631 C625 0.959 . S
H632 C625 0.961 1_556 S
H633 C625 0.960 . S
H634 C626 0.930 . S
H635 C627 0.929 . S
H636 C644 0.929 . S
H637 C646 0.932 . S
H638 C648 0.930 . S
H639 C651 0.929 . S
H640 C654 0.930 . S
H641 C656 0.960 . S
H642 C656 0.960 1_554 S
H643 C656 0.960 . S
C644 H636 0.929 . S
C644 C645 1.377 1_554 S
C644 C646 1.383 . S
C645 C644 1.377 1_556 S
C645 C651 1.390 . S
C646 H637 0.932 . S
C646 C644 1.383 . S
C646 C647 1.370 1_554 S
C647 C646 1.370 1_556 S
C647 C648 1.400 . S
C647 C652 1.490 . S
C648 H638 0.930 . S
C648 C647 1.400 . S
C648 C651 1.386 . S
H649 C665 0.930 . S
H650 C666 0.931 . S
C651 H639 0.929 . S
C651 C645 1.390 . S
C651 C648 1.386 . S
C652 C647 1.490 . S
C652 C654 1.395 . S
C652 C655 1.403 . S
H653 C659 0.930 . S
C654 H640 0.930 . S
C654 C652 1.395 . S
C654 C657 1.403 . S
C655 C652 1.403 . S
C655 C656 1.524 . S
C655 C659 1.400 . S
C656 H641 0.960 . S
C656 H642 0.960 1_556 S
C656 H643 0.960 . S
C656 C655 1.524 . S
C657 C654 1.403 . S
C657 C658 1.392 . S
C657 C661 1.495 . S
C658 C657 1.392 . S
C658 C659 1.385 . S
C658 C660 1.478 . S
C659 H653 0.930 . S
C659 C655 1.400 . S
C659 C658 1.385 . S
C660 C658 1.478 . S
C660 C662 1.381 . S
C660 C666 1.383 . S
C661 C657 1.495 . S
C661 H667 0.959 . S
C661 H668 0.961 . S
C661 H669 0.960 . S
C662 C660 1.381 . S
C662 C663 1.394 . S
C662 H670 0.930 1_556 S
C663 C662 1.394 . S
C663 C664 1.383 . S
C663 H671 0.929 1_556 S
C664 C663 1.383 . S
C664 C665 1.377 . S
C665 H649 0.930 . S
C665 C664 1.377 . S
C665 C666 1.379 . S
C666 H650 0.931 . S
C666 C660 1.383 . S
C666 C665 1.379 . S
H667 C661 0.959 . S
H668 C661 0.961 . S
H669 C661 0.960 . S
H670 C662 0.930 1_554 S
H671 C663 0.929 1_554 S
H672 C680 0.929 . S
H673 C682 0.930 . S
H674 C684 0.930 . S
H675 C687 0.929 . S
H676 C690 0.930 . S
H677 C692 0.960 . S
H678 C692 0.960 . S
H679 C692 0.960 . S
C680 H672 0.929 . S
C680 C681 1.377 . S
C680 C682 1.384 . S
C681 C680 1.377 . S
C681 C687 1.390 . S
C682 H673 0.930 . S
C682 C680 1.384 . S
C682 C683 1.372 . S
C683 C682 1.372 . S
C683 C684 1.400 . S
C683 C688 1.490 . S
C684 H674 0.930 . S
C684 C683 1.400 . S
C684 C687 1.386 . S
H685 C701 0.930 1_556 S
H686 C702 0.931 . S
C687 H675 0.929 . S
C687 C681 1.390 . S
C687 C684 1.386 . S
C688 C683 1.490 . S
C688 C690 1.395 . S
C688 C691 1.403 . S
H689 C695 0.930 . S
C690 H676 0.930 . S
C690 C688 1.395 . S
C690 C693 1.403 . S
C691 C688 1.403 . S
C691 C692 1.524 . S
C691 C695 1.400 . S
C692 H677 0.960 . S
C692 H678 0.960 . S
C692 H679 0.960 . S
C692 C691 1.524 . S
C693 C690 1.403 . S
C693 C694 1.392 . S
C693 C697 1.495 . S
C694 C693 1.392 . S
C694 C695 1.385 . S
C694 C696 1.478 . S
C695 H689 0.930 . S
C695 C691 1.400 . S
C695 C694 1.385 . S
C696 C694 1.478 . S
C696 C698 1.381 . S
C696 C702 1.383 . S
C697 C693 1.495 . S
C697 H703 0.959 . S
C697 H704 0.961 . S
C697 H705 0.960 . S
C698 C696 1.381 . S
C698 C699 1.394 . S
C698 H706 0.930 . S
C699 C698 1.394 . S
C699 C700 1.383 1_554 S
C699 H707 0.929 1_554 S
C700 C699 1.383 1_556 S
C700 C701 1.377 1_556 S
C701 H685 0.930 1_554 S
C701 C700 1.377 1_554 S
C701 C702 1.379 . S
C702 H686 0.931 . S
C702 C696 1.383 . S
C702 C701 1.379 . S
H703 C697 0.959 . S
H704 C697 0.961 . S
H705 C697 0.960 . S
H706 C698 0.930 . S
H707 C699 0.929 1_556 S
H708 C716 0.929 . S
H709 C718 0.930 . S
H710 C720 0.930 . S
H711 C723 0.929 . S
H712 C726 0.930 . S
H713 C728 0.960 . S
H714 C728 0.960 . S
H715 C728 0.960 . S
C716 H708 0.929 . S
C716 C717 1.377 . S
C716 C718 1.384 . S
C717 C716 1.377 . S
C717 C723 1.390 . S
C718 H709 0.930 . S
C718 C716 1.384 . S
C718 C719 1.372 . S
C719 C718 1.372 . S
C719 C720 1.400 . S
C719 C724 1.490 . S
C720 H710 0.930 . S
C720 C719 1.400 . S
C720 C723 1.386 . S
H721 C737 0.930 . S
H722 C738 0.931 . S
C723 H711 0.929 . S
C723 C717 1.390 . S
C723 C720 1.386 . S
C724 C719 1.490 . S
C724 C726 1.395 . S
C724 C727 1.403 . S
H725 C731 0.930 . S
C726 H712 0.930 . S
C726 C724 1.395 . S
C726 C729 1.403 . S
C727 C724 1.403 . S
C727 C728 1.524 . S
C727 C731 1.400 . S
C728 H713 0.960 . S
C728 H714 0.960 . S
C728 H715 0.960 . S
C728 C727 1.524 . S
C729 C726 1.403 . S
C729 C730 1.392 . S
C729 C733 1.495 . S
C730 C729 1.392 . S
C730 C731 1.385 . S
C730 C732 1.478 . S
C731 H725 0.930 . S
C731 C727 1.400 . S
C731 C730 1.385 . S
C732 C730 1.478 . S
C732 C734 1.381 . S
C732 C738 1.383 . S
C733 C729 1.495 . S
C733 H739 0.959 . S
C733 H740 0.961 . S
C733 H741 0.960 . S
C734 C732 1.381 . S
C734 C735 1.394 . S
C734 H742 0.930 . S
C735 C734 1.394 . S
C735 C736 1.383 . S
C735 H743 0.929 . S
C736 C735 1.383 . S
C736 C737 1.377 . S
C737 H721 0.930 . S
C737 C736 1.377 . S
C737 C738 1.379 . S
C738 H722 0.931 . S
C738 C732 1.383 . S
C738 C737 1.379 . S
H739 C733 0.959 . S
H740 C733 0.961 . S
H741 C733 0.960 . S
H742 C734 0.930 . S
H743 C735 0.929 . S
H744 C752 0.929 . S
H745 C754 0.930 . S
H746 C756 0.930 . S
H747 C759 0.929 . S
H748 C762 0.930 . S
H749 C764 0.960 . S
H750 C764 0.960 . S
H751 C764 0.960 . S
C752 H744 0.929 . S
C752 C753 1.377 . S
C752 C754 1.384 . S
C753 C752 1.377 . S
C753 C759 1.390 . S
C754 H745 0.930 . S
C754 C752 1.384 . S
C754 C755 1.372 . S
C755 C754 1.372 . S
C755 C756 1.400 . S
C755 C760 1.490 . S
C756 H746 0.930 . S
C756 C755 1.400 . S
C756 C759 1.386 . S
H757 C773 0.930 . S
H758 C774 0.931 . S
C759 H747 0.929 . S
C759 C753 1.390 . S
C759 C756 1.386 . S
C760 C755 1.490 . S
C760 C762 1.395 . S
C760 C763 1.403 . S
H761 C767 0.930 . S
C762 H748 0.930 . S
C762 C760 1.395 . S
C762 C765 1.403 . S
C763 C760 1.403 . S
C763 C764 1.524 . S
C763 C767 1.400 . S
C764 H749 0.960 . S
C764 H750 0.960 . S
C764 H751 0.960 . S
C764 C763 1.524 . S
C765 C762 1.403 . S
C765 C766 1.392 . S
C765 C769 1.495 . S
C766 C765 1.392 . S
C766 C767 1.385 . S
C766 C768 1.478 . S
C767 H761 0.930 . S
C767 C763 1.400 . S
C767 C766 1.385 . S
C768 C766 1.478 . S
C768 C770 1.381 . S
C768 C774 1.383 . S
C769 C765 1.495 . S
C769 H775 0.959 . S
C769 H776 0.961 . S
C769 H777 0.960 . S
C770 C768 1.381 . S
C770 C771 1.394 . S
C770 H778 0.930 . S
C771 C770 1.394 . S
C771 C772 1.383 . S
C771 H779 0.929 . S
C772 C771 1.383 . S
C772 C773 1.377 . S
C773 H757 0.930 . S
C773 C772 1.377 . S
C773 C774 1.379 . S
C774 H758 0.931 . S
C774 C768 1.383 . S
C774 C773 1.379 . S
H775 C769 0.959 . S
H776 C769 0.961 . S
H777 C769 0.960 . S
H778 C770 0.930 . S
H779 C771 0.929 . S
H780 C788 0.929 . S
H781 C790 0.930 . S
H782 C792 0.930 . S
H783 C795 0.929 . S
H784 C798 0.930 . S
H785 C800 0.960 . S
H786 C800 0.960 . S
H787 C800 0.960 . S
C788 H780 0.929 . S
C788 C789 1.377 . S
C788 C790 1.384 . S
C789 C788 1.377 . S
C789 C795 1.390 . S
C790 H781 0.930 . S
C790 C788 1.384 . S
C790 C791 1.372 . S
C791 C790 1.372 . S
C791 C792 1.400 . S
C791 C796 1.490 . S
C792 H782 0.930 . S
C792 C791 1.400 . S
C792 C795 1.386 . S
H793 C809 0.930 . S
H794 C810 0.931 . S
C795 H783 0.929 . S
C795 C789 1.390 . S
C795 C792 1.386 . S
C796 C791 1.490 . S
C796 C798 1.395 . S
C796 C799 1.403 . S
H797 C803 0.930 . S
C798 H784 0.930 . S
C798 C796 1.395 . S
C798 C801 1.403 . S
C799 C796 1.403 . S
C799 C800 1.524 . S
C799 C803 1.400 . S
C800 H785 0.960 . S
C800 H786 0.960 . S
C800 H787 0.960 . S
C800 C799 1.524 . S
C801 C798 1.403 . S
C801 C802 1.392 . S
C801 C805 1.495 . S
C802 C801 1.392 . S
C802 C803 1.385 . S
C802 C804 1.478 . S
C803 H797 0.930 . S
C803 C799 1.400 . S
C803 C802 1.385 . S
C804 C802 1.478 . S
C804 C806 1.381 . S
C804 C810 1.383 . S
C805 C801 1.495 . S
C805 H811 0.959 . S
C805 H812 0.961 . S
C805 H813 0.960 . S
C806 C804 1.381 . S
C806 C807 1.394 . S
C806 H814 0.930 . S
C807 C806 1.394 . S
C807 C808 1.383 . S
C807 H815 0.929 . S
C808 C807 1.383 . S
C808 C809 1.377 . S
C809 H793 0.930 . S
C809 C808 1.377 . S
C809 C810 1.379 . S
C810 H794 0.931 . S
C810 C804 1.383 . S
C810 C809 1.379 . S
H811 C805 0.959 . S
H812 C805 0.961 . S
H813 C805 0.960 . S
H814 C806 0.930 . S
H815 C807 0.929 . S
H816 C824 0.929 . S
H817 C826 0.930 . S
H818 C828 0.930 . S
H819 C831 0.929 . S
H820 C834 0.930 . S
H821 C836 0.960 . S
H822 C836 0.960 . S
H823 C836 0.960 . S
C824 H816 0.929 . S
C824 C825 1.377 . S
C824 C826 1.384 . S
C825 C824 1.377 . S
C825 C831 1.390 . S
C826 H817 0.930 . S
C826 C824 1.384 . S
C826 C827 1.372 . S
C827 C826 1.372 . S
C827 C828 1.400 . S
C827 C832 1.490 . S
C828 H818 0.930 . S
C828 C827 1.400 . S
C828 C831 1.386 . S
H829 C845 0.930 . S
H830 C846 0.931 . S
C831 H819 0.929 . S
C831 C825 1.390 . S
C831 C828 1.386 . S
C832 C827 1.490 . S
C832 C834 1.395 . S
C832 C835 1.403 . S
H833 C839 0.930 . S
C834 H820 0.930 . S
C834 C832 1.395 . S
C834 C837 1.403 . S
C835 C832 1.403 . S
C835 C836 1.524 . S
C835 C839 1.400 . S
C836 H821 0.960 . S
C836 H822 0.960 . S
C836 H823 0.960 . S
C836 C835 1.524 . S
C837 C834 1.403 . S
C837 C838 1.392 . S
C837 C841 1.495 . S
C838 C837 1.392 . S
C838 C839 1.385 . S
C838 C840 1.478 . S
C839 H833 0.930 . S
C839 C835 1.400 . S
C839 C838 1.385 . S
C840 C838 1.478 . S
C840 C842 1.381 . S
C840 C846 1.383 . S
C841 C837 1.495 . S
C841 H847 0.959 . S
C841 H848 0.961 . S
C841 H849 0.960 . S
C842 C840 1.381 . S
C842 C843 1.394 . S
C842 H850 0.930 . S
C843 C842 1.394 . S
C843 C844 1.383 . S
C843 H851 0.929 . S
C844 C843 1.383 . S
C844 C845 1.377 . S
C845 H829 0.930 . S
C845 C844 1.377 . S
C845 C846 1.379 . S
C846 H830 0.931 . S
C846 C840 1.383 . S
C846 C845 1.379 . S
H847 C841 0.959 . S
H848 C841 0.961 . S
H849 C841 0.960 . S
H850 C842 0.930 . S
H851 C843 0.929 . S
H852 C860 0.929 . S
H853 C862 0.930 . S
H854 C864 0.930 . S
H855 C867 0.929 . S
H856 C870 0.930 . S
H857 C872 0.960 . S
H858 C872 0.960 . S
H859 C872 0.960 . S
C860 H852 0.929 . S
C860 C861 1.377 . S
C860 C862 1.384 . S
C861 C860 1.377 . S
C861 C867 1.390 . S
C862 H853 0.930 . S
C862 C860 1.384 . S
C862 C863 1.372 . S
C863 C862 1.372 . S
C863 C864 1.400 . S
C863 C868 1.490 . S
C864 H854 0.930 . S
C864 C863 1.400 . S
C864 C867 1.386 . S
H865 C881 0.930 . S
H866 C882 0.931 . S
C867 H855 0.929 . S
C867 C861 1.390 . S
C867 C864 1.386 . S
C868 C863 1.490 . S
C868 C870 1.395 . S
C868 C871 1.403 . S
H869 C875 0.930 . S
C870 H856 0.930 . S
C870 C868 1.395 . S
C870 C873 1.403 . S
C871 C868 1.403 . S
C871 C872 1.524 . S
C871 C875 1.400 . S
C872 H857 0.960 . S
C872 H858 0.960 . S
C872 H859 0.960 . S
C872 C871 1.524 . S
C873 C870 1.403 . S
C873 C874 1.392 . S
C873 C877 1.495 . S
C874 C873 1.392 . S
C874 C875 1.385 . S
C874 C876 1.478 . S
C875 H869 0.930 . S
C875 C871 1.400 . S
C875 C874 1.385 . S
C876 C874 1.478 . S
C876 C878 1.381 . S
C876 C882 1.383 . S
C877 C873 1.495 . S
C877 H883 0.959 . S
C877 H884 0.961 . S
C877 H885 0.960 . S
C878 C876 1.381 . S
C878 C879 1.394 . S
C878 H886 0.930 . S
C879 C878 1.394 . S
C879 C880 1.383 . S
C879 H887 0.929 . S
C880 C879 1.383 . S
C880 C881 1.377 . S
C881 H865 0.930 . S
C881 C880 1.377 . S
C881 C882 1.379 . S
C882 H866 0.931 . S
C882 C876 1.383 . S
C882 C881 1.379 . S
H883 C877 0.959 . S
H884 C877 0.961 . S
H885 C877 0.960 . S
H886 C878 0.930 . S
H887 C879 0.929 . S
C249 C202 3.583 . S
C268 C7 3.510 . S
C285 C2 3.447 . S
C304 C47 3.306 1_455 S
C321 C42 2.594 . S
C340 C82 2.569 . S
C357 C127 2.318 . S
C376 C87 2.229 . S
C393 C167 2.702 . S
C412 C122 3.029 . S
C429 C162 1.962 . S
C448 C207 1.966 . S
C465 C171 2.426 . S
C484 C16 2.370 . S
C501 C211 3.263 . S
C520 C56 3.263 . S
C537 C91 3.738 . S
C556 C11 3.760 . S
C573 C136 2.050 . S
C592 C51 2.097 . S
C609 C176 0.911 . S
C628 C96 0.914 . S
C645 C131 1.278 . S
C664 C216 1.313 . S
C681 C10 0.445 . S
C700 C19 0.528 . S
C717 C50 0.404 . S
C736 C59 0.480 . S
C753 C99 0.389 . S
C772 C90 0.364 . S
C789 C130 0.297 . S
C808 C139 0.344 . S
C825 C179 0.519 . S
C844 C170 0.569 . S
C861 C210 0.236 . S
C880 C219 0.198 . S
