# Generated by pormake.
# Topology ana-e, (6)-cn, num edge types: 1
# Building blocks:
#     Node 0, Type 0, BuildingBlock: CIFDUS_clean_sbu_1, # of connection points: 6
#     Node 1, Type 0, BuildingBlock: CIFDUS_clean_sbu_1, # of connection points: 6
#     Node 2, Type 0, BuildingBlock: CIFDUS_clean_sbu_1, # of connection points: 6
#     Node 3, Type 0, BuildingBlock: CIFDUS_clean_sbu_1, # of connection points: 6
#     Node 4, Type 0, BuildingBlock: CIFDUS_clean_sbu_1, # of connection points: 6
#     Node 5, Type 0, BuildingBlock: CIFDUS_clean_sbu_1, # of connection points: 6
#     Node 6, Type 0, BuildingBlock: CIFDUS_clean_sbu_1, # of connection points: 6
#     Node 7, Type 0, BuildingBlock: CIFDUS_clean_sbu_1, # of connection points: 6
#     Node 8, Type 0, BuildingBlock: CIFDUS_clean_sbu_1, # of connection points: 6
#     Node 9, Type 0, BuildingBlock: CIFDUS_clean_sbu_1, # of connection points: 6
#     Node 10, Type 0, BuildingBlock: CIFDUS_clean_sbu_1, # of connection points: 6
#     Node 11, Type 0, BuildingBlock: CIFDUS_clean_sbu_1, # of connection points: 6
#     Node 12, Type 0, BuildingBlock: CIFDUS_clean_sbu_1, # of connection points: 6
#     Node 13, Type 0, BuildingBlock: CIFDUS_clean_sbu_1, # of connection points: 6
#     Node 14, Type 0, BuildingBlock: CIFDUS_clean_sbu_1, # of connection points: 6
#     Node 15, Type 0, BuildingBlock: CIFDUS_clean_sbu_1, # of connection points: 6
#     Node 16, Type 0, BuildingBlock: CIFDUS_clean_sbu_1, # of connection points: 6
#     Node 17, Type 0, BuildingBlock: CIFDUS_clean_sbu_1, # of connection points: 6
#     Node 18, Type 0, BuildingBlock: CIFDUS_clean_sbu_1, # of connection points: 6
#     Node 19, Type 0, BuildingBlock: CIFDUS_clean_sbu_1, # of connection points: 6
#     Node 20, Type 0, BuildingBlock: CIFDUS_clean_sbu_1, # of connection points: 6
#     Node 21, Type 0, BuildingBlock: CIFDUS_clean_sbu_1, # of connection points: 6
#     Node 22, Type 0, BuildingBlock: CIFDUS_clean_sbu_1, # of connection points: 6
#     Node 23, Type 0, BuildingBlock: CIFDUS_clean_sbu_1, # of connection points: 6
#     Node 24, Type 0, BuildingBlock: CIFDUS_clean_sbu_1, # of connection points: 6
#     Node 25, Type 0, BuildingBlock: CIFDUS_clean_sbu_1, # of connection points: 6
#     Node 26, Type 0, BuildingBlock: CIFDUS_clean_sbu_1, # of connection points: 6
#     Node 27, Type 0, BuildingBlock: CIFDUS_clean_sbu_1, # of connection points: 6
#     Node 28, Type 0, BuildingBlock: CIFDUS_clean_sbu_1, # of connection points: 6
#     Node 29, Type 0, BuildingBlock: CIFDUS_clean_sbu_1, # of connection points: 6
#     Node 30, Type 0, BuildingBlock: CIFDUS_clean_sbu_1, # of connection points: 6
#     Node 31, Type 0, BuildingBlock: CIFDUS_clean_sbu_1, # of connection points: 6
#     Node 32, Type 0, BuildingBlock: CIFDUS_clean_sbu_1, # of connection points: 6
#     Node 33, Type 0, BuildingBlock: CIFDUS_clean_sbu_1, # of connection points: 6
#     Node 34, Type 0, BuildingBlock: CIFDUS_clean_sbu_1, # of connection points: 6
#     Node 35, Type 0, BuildingBlock: CIFDUS_clean_sbu_1, # of connection points: 6
#     Node 36, Type 0, BuildingBlock: CIFDUS_clean_sbu_1, # of connection points: 6
#     Node 37, Type 0, BuildingBlock: CIFDUS_clean_sbu_1, # of connection points: 6
#     Node 38, Type 0, BuildingBlock: CIFDUS_clean_sbu_1, # of connection points: 6
#     Node 39, Type 0, BuildingBlock: CIFDUS_clean_sbu_1, # of connection points: 6
#     Node 40, Type 0, BuildingBlock: CIFDUS_clean_sbu_1, # of connection points: 6
#     Node 41, Type 0, BuildingBlock: CIFDUS_clean_sbu_1, # of connection points: 6
#     Node 42, Type 0, BuildingBlock: CIFDUS_clean_sbu_1, # of connection points: 6
#     Node 43, Type 0, BuildingBlock: CIFDUS_clean_sbu_1, # of connection points: 6
#     Node 44, Type 0, BuildingBlock: CIFDUS_clean_sbu_1, # of connection points: 6
#     Node 45, Type 0, BuildingBlock: CIFDUS_clean_sbu_1, # of connection points: 6
#     Node 46, Type 0, BuildingBlock: CIFDUS_clean_sbu_1, # of connection points: 6
#     Node 47, Type 0, BuildingBlock: CIFDUS_clean_sbu_1, # of connection points: 6
#     Node 48, Type 0, BuildingBlock: CIFDUS_clean_sbu_1, # of connection points: 6
#     Node 49, Type 0, BuildingBlock: CIFDUS_clean_sbu_1, # of connection points: 6
#     Node 50, Type 0, BuildingBlock: CIFDUS_clean_sbu_1, # of connection points: 6
#     Node 51, Type 0, BuildingBlock: CIFDUS_clean_sbu_1, # of connection points: 6
#     Node 52, Type 0, BuildingBlock: CIFDUS_clean_sbu_1, # of connection points: 6
#     Node 53, Type 0, BuildingBlock: CIFDUS_clean_sbu_1, # of connection points: 6
#     Node 54, Type 0, BuildingBlock: CIFDUS_clean_sbu_1, # of connection points: 6
#     Node 55, Type 0, BuildingBlock: CIFDUS_clean_sbu_1, # of connection points: 6
#     Node 56, Type 0, BuildingBlock: CIFDUS_clean_sbu_1, # of connection points: 6
#     Node 57, Type 0, BuildingBlock: CIFDUS_clean_sbu_1, # of connection points: 6
#     Node 58, Type 0, BuildingBlock: CIFDUS_clean_sbu_1, # of connection points: 6
#     Node 59, Type 0, BuildingBlock: CIFDUS_clean_sbu_1, # of connection points: 6
#     Node 60, Type 0, BuildingBlock: CIFDUS_clean_sbu_1, # of connection points: 6
#     Node 61, Type 0, BuildingBlock: CIFDUS_clean_sbu_1, # of connection points: 6
#     Node 62, Type 0, BuildingBlock: CIFDUS_clean_sbu_1, # of connection points: 6
#     Node 63, Type 0, BuildingBlock: CIFDUS_clean_sbu_1, # of connection points: 6
#     Node 64, Type 0, BuildingBlock: CIFDUS_clean_sbu_1, # of connection points: 6
#     Node 65, Type 0, BuildingBlock: CIFDUS_clean_sbu_1, # of connection points: 6
#     Node 66, Type 0, BuildingBlock: CIFDUS_clean_sbu_1, # of connection points: 6
#     Node 67, Type 0, BuildingBlock: CIFDUS_clean_sbu_1, # of connection points: 6
#     Node 68, Type 0, BuildingBlock: CIFDUS_clean_sbu_1, # of connection points: 6
#     Node 69, Type 0, BuildingBlock: CIFDUS_clean_sbu_1, # of connection points: 6
#     Node 70, Type 0, BuildingBlock: CIFDUS_clean_sbu_1, # of connection points: 6
#     Node 71, Type 0, BuildingBlock: CIFDUS_clean_sbu_1, # of connection points: 6
#     Node 72, Type 0, BuildingBlock: CIFDUS_clean_sbu_1, # of connection points: 6
#     Node 73, Type 0, BuildingBlock: CIFDUS_clean_sbu_1, # of connection points: 6
#     Node 74, Type 0, BuildingBlock: CIFDUS_clean_sbu_1, # of connection points: 6
#     Node 75, Type 0, BuildingBlock: CIFDUS_clean_sbu_1, # of connection points: 6
#     Node 76, Type 0, BuildingBlock: CIFDUS_clean_sbu_1, # of connection points: 6
#     Node 77, Type 0, BuildingBlock: CIFDUS_clean_sbu_1, # of connection points: 6
#     Node 78, Type 0, BuildingBlock: CIFDUS_clean_sbu_1, # of connection points: 6
#     Node 79, Type 0, BuildingBlock: CIFDUS_clean_sbu_1, # of connection points: 6
#     Node 80, Type 0, BuildingBlock: CIFDUS_clean_sbu_1, # of connection points: 6
#     Node 81, Type 0, BuildingBlock: CIFDUS_clean_sbu_1, # of connection points: 6
#     Node 82, Type 0, BuildingBlock: CIFDUS_clean_sbu_1, # of connection points: 6
#     Node 83, Type 0, BuildingBlock: CIFDUS_clean_sbu_1, # of connection points: 6
#     Node 84, Type 0, BuildingBlock: CIFDUS_clean_sbu_1, # of connection points: 6
#     Node 85, Type 0, BuildingBlock: CIFDUS_clean_sbu_1, # of connection points: 6
#     Node 86, Type 0, BuildingBlock: CIFDUS_clean_sbu_1, # of connection points: 6
#     Node 87, Type 0, BuildingBlock: CIFDUS_clean_sbu_1, # of connection points: 6
#     Node 88, Type 0, BuildingBlock: CIFDUS_clean_sbu_1, # of connection points: 6
#     Node 89, Type 0, BuildingBlock: CIFDUS_clean_sbu_1, # of connection points: 6
#     Node 90, Type 0, BuildingBlock: CIFDUS_clean_sbu_1, # of connection points: 6
#     Node 91, Type 0, BuildingBlock: CIFDUS_clean_sbu_1, # of connection points: 6
#     Node 92, Type 0, BuildingBlock: CIFDUS_clean_sbu_1, # of connection points: 6
#     Node 93, Type 0, BuildingBlock: CIFDUS_clean_sbu_1, # of connection points: 6
#     Node 94, Type 0, BuildingBlock: CIFDUS_clean_sbu_1, # of connection points: 6
#     Node 95, Type 0, BuildingBlock: CIFDUS_clean_sbu_1, # of connection points: 6
#     Edge 96, Type (0, 0), None
#     Edge 97, Type (0, 0), None
#     Edge 98, Type (0, 0), None
#     Edge 99, Type (0, 0), None
#     Edge 100, Type (0, 0), None
#     Edge 101, Type (0, 0), None
#     Edge 102, Type (0, 0), None
#     Edge 103, Type (0, 0), None
#     Edge 104, Type (0, 0), None
#     Edge 105, Type (0, 0), None
#     Edge 106, Type (0, 0), None
#     Edge 107, Type (0, 0), None
#     Edge 108, Type (0, 0), None
#     Edge 109, Type (0, 0), None
#     Edge 110, Type (0, 0), None
#     Edge 111, Type (0, 0), None
#     Edge 112, Type (0, 0), None
#     Edge 113, Type (0, 0), None
#     Edge 114, Type (0, 0), None
#     Edge 115, Type (0, 0), None
#     Edge 116, Type (0, 0), None
#     Edge 117, Type (0, 0), None
#     Edge 118, Type (0, 0), None
#     Edge 119, Type (0, 0), None
#     Edge 120, Type (0, 0), None
#     Edge 121, Type (0, 0), None
#     Edge 122, Type (0, 0), None
#     Edge 123, Type (0, 0), None
#     Edge 124, Type (0, 0), None
#     Edge 125, Type (0, 0), None
#     Edge 126, Type (0, 0), None
#     Edge 127, Type (0, 0), None
#     Edge 128, Type (0, 0), None
#     Edge 129, Type (0, 0), None
#     Edge 130, Type (0, 0), None
#     Edge 131, Type (0, 0), None
#     Edge 132, Type (0, 0), None
#     Edge 133, Type (0, 0), None
#     Edge 134, Type (0, 0), None
#     Edge 135, Type (0, 0), None
#     Edge 136, Type (0, 0), None
#     Edge 137, Type (0, 0), None
#     Edge 138, Type (0, 0), None
#     Edge 139, Type (0, 0), None
#     Edge 140, Type (0, 0), None
#     Edge 141, Type (0, 0), None
#     Edge 142, Type (0, 0), None
#     Edge 143, Type (0, 0), None
#     Edge 144, Type (0, 0), None
#     Edge 145, Type (0, 0), None
#     Edge 146, Type (0, 0), None
#     Edge 147, Type (0, 0), None
#     Edge 148, Type (0, 0), None
#     Edge 149, Type (0, 0), None
#     Edge 150, Type (0, 0), None
#     Edge 151, Type (0, 0), None
#     Edge 152, Type (0, 0), None
#     Edge 153, Type (0, 0), None
#     Edge 154, Type (0, 0), None
#     Edge 155, Type (0, 0), None
#     Edge 156, Type (0, 0), None
#     Edge 157, Type (0, 0), None
#     Edge 158, Type (0, 0), None
#     Edge 159, Type (0, 0), None
#     Edge 160, Type (0, 0), None
#     Edge 161, Type (0, 0), None
#     Edge 162, Type (0, 0), None
#     Edge 163, Type (0, 0), None
#     Edge 164, Type (0, 0), None
#     Edge 165, Type (0, 0), None
#     Edge 166, Type (0, 0), None
#     Edge 167, Type (0, 0), None
#     Edge 168, Type (0, 0), None
#     Edge 169, Type (0, 0), None
#     Edge 170, Type (0, 0), None
#     Edge 171, Type (0, 0), None
#     Edge 172, Type (0, 0), None
#     Edge 173, Type (0, 0), None
#     Edge 174, Type (0, 0), None
#     Edge 175, Type (0, 0), None
#     Edge 176, Type (0, 0), None
#     Edge 177, Type (0, 0), None
#     Edge 178, Type (0, 0), None
#     Edge 179, Type (0, 0), None
#     Edge 180, Type (0, 0), None
#     Edge 181, Type (0, 0), None
#     Edge 182, Type (0, 0), None
#     Edge 183, Type (0, 0), None
#     Edge 184, Type (0, 0), None
#     Edge 185, Type (0, 0), None
#     Edge 186, Type (0, 0), None
#     Edge 187, Type (0, 0), None
#     Edge 188, Type (0, 0), None
#     Edge 189, Type (0, 0), None
#     Edge 190, Type (0, 0), None
#     Edge 191, Type (0, 0), None
#     Edge 192, Type (0, 0), None
#     Edge 193, Type (0, 0), None
#     Edge 194, Type (0, 0), None
#     Edge 195, Type (0, 0), None
#     Edge 196, Type (0, 0), None
#     Edge 197, Type (0, 0), None
#     Edge 198, Type (0, 0), None
#     Edge 199, Type (0, 0), None
#     Edge 200, Type (0, 0), None
#     Edge 201, Type (0, 0), None
#     Edge 202, Type (0, 0), None
#     Edge 203, Type (0, 0), None
#     Edge 204, Type (0, 0), None
#     Edge 205, Type (0, 0), None
#     Edge 206, Type (0, 0), None
#     Edge 207, Type (0, 0), None
#     Edge 208, Type (0, 0), None
#     Edge 209, Type (0, 0), None
#     Edge 210, Type (0, 0), None
#     Edge 211, Type (0, 0), None
#     Edge 212, Type (0, 0), None
#     Edge 213, Type (0, 0), None
#     Edge 214, Type (0, 0), None
#     Edge 215, Type (0, 0), None
#     Edge 216, Type (0, 0), None
#     Edge 217, Type (0, 0), None
#     Edge 218, Type (0, 0), None
#     Edge 219, Type (0, 0), None
#     Edge 220, Type (0, 0), None
#     Edge 221, Type (0, 0), None
#     Edge 222, Type (0, 0), None
#     Edge 223, Type (0, 0), None
#     Edge 224, Type (0, 0), None
#     Edge 225, Type (0, 0), None
#     Edge 226, Type (0, 0), None
#     Edge 227, Type (0, 0), None
#     Edge 228, Type (0, 0), None
#     Edge 229, Type (0, 0), None
#     Edge 230, Type (0, 0), None
#     Edge 231, Type (0, 0), None
#     Edge 232, Type (0, 0), None
#     Edge 233, Type (0, 0), None
#     Edge 234, Type (0, 0), None
#     Edge 235, Type (0, 0), None
#     Edge 236, Type (0, 0), None
#     Edge 237, Type (0, 0), None
#     Edge 238, Type (0, 0), None
#     Edge 239, Type (0, 0), None
#     Edge 240, Type (0, 0), None
#     Edge 241, Type (0, 0), None
#     Edge 242, Type (0, 0), None
#     Edge 243, Type (0, 0), None
#     Edge 244, Type (0, 0), None
#     Edge 245, Type (0, 0), None
#     Edge 246, Type (0, 0), None
#     Edge 247, Type (0, 0), None
#     Edge 248, Type (0, 0), None
#     Edge 249, Type (0, 0), None
#     Edge 250, Type (0, 0), None
#     Edge 251, Type (0, 0), None
#     Edge 252, Type (0, 0), None
#     Edge 253, Type (0, 0), None
#     Edge 254, Type (0, 0), None
#     Edge 255, Type (0, 0), None
#     Edge 256, Type (0, 0), None
#     Edge 257, Type (0, 0), None
#     Edge 258, Type (0, 0), None
#     Edge 259, Type (0, 0), None
#     Edge 260, Type (0, 0), None
#     Edge 261, Type (0, 0), None
#     Edge 262, Type (0, 0), None
#     Edge 263, Type (0, 0), None
#     Edge 264, Type (0, 0), None
#     Edge 265, Type (0, 0), None
#     Edge 266, Type (0, 0), None
#     Edge 267, Type (0, 0), None
#     Edge 268, Type (0, 0), None
#     Edge 269, Type (0, 0), None
#     Edge 270, Type (0, 0), None
#     Edge 271, Type (0, 0), None
#     Edge 272, Type (0, 0), None
#     Edge 273, Type (0, 0), None
#     Edge 274, Type (0, 0), None
#     Edge 275, Type (0, 0), None
#     Edge 276, Type (0, 0), None
#     Edge 277, Type (0, 0), None
#     Edge 278, Type (0, 0), None
#     Edge 279, Type (0, 0), None
#     Edge 280, Type (0, 0), None
#     Edge 281, Type (0, 0), None
#     Edge 282, Type (0, 0), None
#     Edge 283, Type (0, 0), None
#     Edge 284, Type (0, 0), None
#     Edge 285, Type (0, 0), None
#     Edge 286, Type (0, 0), None
#     Edge 287, Type (0, 0), None
#     Edge 288, Type (0, 0), None
#     Edge 289, Type (0, 0), None
#     Edge 290, Type (0, 0), None
#     Edge 291, Type (0, 0), None
#     Edge 292, Type (0, 0), None
#     Edge 293, Type (0, 0), None
#     Edge 294, Type (0, 0), None
#     Edge 295, Type (0, 0), None
#     Edge 296, Type (0, 0), None
#     Edge 297, Type (0, 0), None
#     Edge 298, Type (0, 0), None
#     Edge 299, Type (0, 0), None
#     Edge 300, Type (0, 0), None
#     Edge 301, Type (0, 0), None
#     Edge 302, Type (0, 0), None
#     Edge 303, Type (0, 0), None
#     Edge 304, Type (0, 0), None
#     Edge 305, Type (0, 0), None
#     Edge 306, Type (0, 0), None
#     Edge 307, Type (0, 0), None
#     Edge 308, Type (0, 0), None
#     Edge 309, Type (0, 0), None
#     Edge 310, Type (0, 0), None
#     Edge 311, Type (0, 0), None
#     Edge 312, Type (0, 0), None
#     Edge 313, Type (0, 0), None
#     Edge 314, Type (0, 0), None
#     Edge 315, Type (0, 0), None
#     Edge 316, Type (0, 0), None
#     Edge 317, Type (0, 0), None
#     Edge 318, Type (0, 0), None
#     Edge 319, Type (0, 0), None
#     Edge 320, Type (0, 0), None
#     Edge 321, Type (0, 0), None
#     Edge 322, Type (0, 0), None
#     Edge 323, Type (0, 0), None
#     Edge 324, Type (0, 0), None
#     Edge 325, Type (0, 0), None
#     Edge 326, Type (0, 0), None
#     Edge 327, Type (0, 0), None
#     Edge 328, Type (0, 0), None
#     Edge 329, Type (0, 0), None
#     Edge 330, Type (0, 0), None
#     Edge 331, Type (0, 0), None
#     Edge 332, Type (0, 0), None
#     Edge 333, Type (0, 0), None
#     Edge 334, Type (0, 0), None
#     Edge 335, Type (0, 0), None
#     Edge 336, Type (0, 0), None
#     Edge 337, Type (0, 0), None
#     Edge 338, Type (0, 0), None
#     Edge 339, Type (0, 0), None
#     Edge 340, Type (0, 0), None
#     Edge 341, Type (0, 0), None
#     Edge 342, Type (0, 0), None
#     Edge 343, Type (0, 0), None
#     Edge 344, Type (0, 0), None
#     Edge 345, Type (0, 0), None
#     Edge 346, Type (0, 0), None
#     Edge 347, Type (0, 0), None
#     Edge 348, Type (0, 0), None
#     Edge 349, Type (0, 0), None
#     Edge 350, Type (0, 0), None
#     Edge 351, Type (0, 0), None
#     Edge 352, Type (0, 0), None
#     Edge 353, Type (0, 0), None
#     Edge 354, Type (0, 0), None
#     Edge 355, Type (0, 0), None
#     Edge 356, Type (0, 0), None
#     Edge 357, Type (0, 0), None
#     Edge 358, Type (0, 0), None
#     Edge 359, Type (0, 0), None
#     Edge 360, Type (0, 0), None
#     Edge 361, Type (0, 0), None
#     Edge 362, Type (0, 0), None
#     Edge 363, Type (0, 0), None
#     Edge 364, Type (0, 0), None
#     Edge 365, Type (0, 0), None
#     Edge 366, Type (0, 0), None
#     Edge 367, Type (0, 0), None
#     Edge 368, Type (0, 0), None
#     Edge 369, Type (0, 0), None
#     Edge 370, Type (0, 0), None
#     Edge 371, Type (0, 0), None
#     Edge 372, Type (0, 0), None
#     Edge 373, Type (0, 0), None
#     Edge 374, Type (0, 0), None
#     Edge 375, Type (0, 0), None
#     Edge 376, Type (0, 0), None
#     Edge 377, Type (0, 0), None
#     Edge 378, Type (0, 0), None
#     Edge 379, Type (0, 0), None
#     Edge 380, Type (0, 0), None
#     Edge 381, Type (0, 0), None
#     Edge 382, Type (0, 0), None
#     Edge 383, Type (0, 0), None
# Relax obj value: 0.379
# Max RMSD: 0.215
# Mean RMSD: 0.215
data_MOF--net-ana-e--node1-CIFDUS_clean_sbu_1--edge1-none
_symmetry_space_group_name_H-M    P1
_symmetry_Int_Tables_number       1
_symmetry_cell_setting            triclinic
loop_
_symmetry_equiv_pos_as_xyz
'x, y, z'
_cell_length_a     35.64006
_cell_length_b     35.639584
_cell_length_c     35.639943
_cell_angle_alpha  89.999862
_cell_angle_beta   90.000089
_cell_angle_gamma 90.001521
loop_
_atom_site_label
_atom_site_type_symbol
_atom_site_fract_x
_atom_site_fract_y
_atom_site_fract_z
_atom_type_partial_charge
O0 O 0.98072 0.07067 0.3458 0.0
Mn1 Mn 0.02421 0.11217 0.35126 0.0
O2 O 0.00834 0.03834 0.38667 0.0
Mn3 Mn -0.00364 0.08469 0.40524 0.0
O4 O 0.06427 0.15136 0.35866 0.0
O5 O 0.0113 0.11795 0.29231 0.0
Mn6 Mn 0.05602 0.14157 0.28795 0.0
O7 O 0.07015 0.07587 0.3405 0.0
O8 O 0.05578 0.1875 0.31126 0.0
O9 O 0.98537 0.15175 0.3614 0.0
O10 O 0.95299 0.11156 0.39469 0.0
O11 O 0.03919 0.14353 0.24135 0.0
O12 O 0.0989 0.11228 0.29818 0.0
C13 C 0.022 0.10929 0.44688 0.0
C14 C 0.98182 0.04032 0.36423 0.0
C15 C 0.0656 0.18343 0.34476 0.0
C16 C 0.01036 0.12677 0.25586 0.0
C17 C 0.1 0.08531 0.32172 0.0
C18 C 0.95692 0.14368 0.38052 0.0
O19 O 0.03611 0.11337 0.41224 0.0
O20 O -0.00478 0.08561 0.45354 0.0
O21 O 0.16781 0.73075 0.59639 0.0
Mn22 Mn 0.12625 0.77421 0.60169 0.0
O23 O 0.19997 0.7584 0.63737 0.0
Mn24 Mn 0.15353 0.74635 0.6557 0.0
O25 O 0.08698 0.81425 0.60899 0.0
O26 O 0.12078 0.7612 0.54259 0.0
Mn27 Mn 0.09719 0.80596 0.53856 0.0
O28 O 0.16264 0.82017 0.59123 0.0
O29 O 0.0511 0.80561 0.56148 0.0
O30 O 0.08666 0.73529 0.61166 0.0
O31 O 0.12677 0.70295 0.64508 0.0
O32 O 0.09513 0.78964 0.49188 0.0
O33 O 0.12637 0.84889 0.54885 0.0
C34 C 0.12892 0.77205 0.69733 0.0
C35 C 0.19804 0.73181 0.61502 0.0
C36 C 0.05496 0.81548 0.59497 0.0
C37 C 0.11183 0.76064 0.50613 0.0
C38 C 0.15325 0.85003 0.57246 0.0
C39 C 0.0947 0.70684 0.63082 0.0
O40 O 0.12487 0.78612 0.66267 0.0
O41 O 0.15243 0.74513 0.70399 0.0
O42 O 0.5076 0.91768 0.84555 0.0
Mn43 Mn 0.46412 0.87615 0.85111 0.0
O44 O 0.48059 0.94986 0.88697 0.0
Mn45 Mn 0.49244 0.90333 0.90508 0.0
O46 O 0.42408 0.83691 0.85838 0.0
O47 O 0.47682 0.87042 0.79219 0.0
Mn48 Mn 0.432 0.84718 0.78732 0.0
O49 O 0.41817 0.91253 0.84053 0.0
O50 O 0.43187 0.80118 0.81043 0.0
O51 O 0.50288 0.83644 0.86101 0.0
O52 O 0.53568 0.87647 0.89402 0.0
O53 O 0.44913 0.84562 0.74077 0.0
O54 O 0.38933 0.87663 0.79779 0.0
C55 C 0.46673 0.87875 0.94675 0.0
C56 C 0.50671 0.94799 0.86407 0.0
C57 C 0.42235 0.80504 0.84406 0.0
C58 C 0.47798 0.86204 0.75565 0.0
C59 C 0.3883 0.90334 0.82163 0.0
C60 C 0.53153 0.84439 0.87985 0.0
O61 O 0.45245 0.87496 0.91214 0.0
O62 O 0.4939 0.90198 0.95336 0.0
O63 O 0.32051 0.25753 0.09639 0.0
Mn64 Mn 0.36215 0.21412 0.10165 0.0
O65 O 0.28857 0.23026 0.13782 0.0
Mn66 Mn 0.33517 0.24224 0.1557 0.0
O67 O 0.40149 0.17411 0.10881 0.0
O68 O 0.36752 0.22703 0.04256 0.0
Mn69 Mn 0.39073 0.18212 0.03813 0.0
O70 O 0.32568 0.16814 0.09139 0.0
O71 O 0.43694 0.18207 0.06075 0.0
O72 O 0.40184 0.25301 0.11144 0.0
O73 O 0.36183 0.2856 0.14468 0.0
O74 O 0.39247 0.19866 0.99148 0.0
O75 O 0.36143 0.13936 0.04859 0.0
C76 C 0.35986 0.21652 0.19731 0.0
C77 C 0.29033 0.25656 0.11512 0.0
C78 C 0.43331 0.17246 0.09435 0.0
C79 C 0.37613 0.22772 0.00602 0.0
C80 C 0.33481 0.13828 0.07251 0.0
C81 C 0.39387 0.28159 0.13041 0.0
O82 O 0.36364 0.20233 0.16267 0.0
O83 O 0.33668 0.24372 0.20397 0.0
O84 O 0.98059 0.91791 0.14227 0.0
Mn85 Mn 0.02409 0.87644 0.13683 0.0
O86 O 0.00812 0.95037 0.10142 0.0
Mn87 Mn -0.00367 0.90404 0.08269 0.0
O88 O 0.06418 0.83732 0.12932 0.0
O89 O 0.01105 0.87059 0.19577 0.0
Mn90 Mn 0.05558 0.84655 0.19975 0.0
O91 O 0.07001 0.91266 0.14781 0.0
O92 O 0.0549 0.80075 0.17612 0.0
O93 O 0.98524 0.83693 0.12654 0.0
O94 O 0.95296 0.87713 0.09312 0.0
O95 O 0.03893 0.84428 0.24639 0.0
O96 O 0.09865 0.87571 0.18973 0.0
C97 C 0.02207 0.8793 0.04122 0.0
C98 C 0.9816 0.94827 0.12385 0.0
C99 C 0.06504 0.80506 0.14276 0.0
C100 C 0.0102 0.86143 0.23215 0.0
C101 C 0.09984 0.90296 0.16651 0.0
C102 C 0.95686 0.84501 0.10732 0.0
O103 O 0.0361 0.87532 0.0759 0.0
O104 O -0.00459 0.90308 0.03439 0.0
O105 O 0.32044 0.73081 0.39187 0.0
Mn106 Mn 0.362 0.77425 0.3866 0.0
O107 O 0.28814 0.75862 0.35111 0.0
Mn108 Mn 0.3345 0.74666 0.33254 0.0
O109 O 0.4013 0.81428 0.37925 0.0
O110 O 0.36755 0.76111 0.44568 0.0
Mn111 Mn 0.39127 0.80584 0.44961 0.0
O112 O 0.32567 0.8202 0.39721 0.0
O113 O 0.43732 0.80541 0.42658 0.0
O114 O 0.40149 0.73528 0.37641 0.0
O115 O 0.36126 0.7032 0.34285 0.0
O116 O 0.39346 0.78949 0.49629 0.0
O117 O 0.36214 0.84886 0.43945 0.0
C118 C 0.35915 0.77236 0.29097 0.0
C119 C 0.29013 0.73195 0.37336 0.0
C120 C 0.43337 0.81539 0.39314 0.0
C121 C 0.37665 0.76053 0.48211 0.0
C122 C 0.33516 0.85005 0.41594 0.0
C123 C 0.39337 0.70699 0.35705 0.0
O124 O 0.36332 0.78633 0.32565 0.0
O125 O 0.3354 0.74566 0.28425 0.0
O126 O 0.50761 0.07046 0.64263 0.0
Mn127 Mn 0.46415 0.112 0.63711 0.0
O128 O 0.48059 0.03818 0.60127 0.0
Mn129 Mn 0.49232 0.08469 0.58304 0.0
O130 O 0.42413 0.15125 0.62981 0.0
O131 O 0.47695 0.11775 0.69604 0.0
Mn132 Mn 0.43219 0.14118 0.70073 0.0
O133 O 0.41818 0.07568 0.6478 0.0
O134 O 0.43227 0.18714 0.67752 0.0
O135 O 0.50297 0.15163 0.62707 0.0
O136 O 0.5356 0.11154 0.59394 0.0
O137 O 0.44922 0.14287 0.7473 0.0
O138 O 0.38941 0.11182 0.69035 0.0
C139 C 0.46659 0.1094 0.54149 0.0
C140 C 0.50672 0.04011 0.62416 0.0
C141 C 0.4226 0.18321 0.64395 0.0
C142 C 0.47804 0.12629 0.73255 0.0
C143 C 0.38833 0.085 0.66665 0.0
C144 C 0.53152 0.14364 0.60808 0.0
O145 O 0.45238 0.11316 0.57612 0.0
O146 O 0.49361 0.08602 0.53476 0.0
O147 O 0.16782 0.25744 0.89207 0.0
Mn148 Mn 0.1262 0.21401 0.88677 0.0
O149 O 0.19985 0.23015 0.85071 0.0
Mn150 Mn 0.15328 0.24208 0.83272 0.0
O151 O 0.08686 0.174 0.87955 0.0
O152 O 0.12081 0.22692 0.94586 0.0
Mn153 Mn 0.09741 0.1821 0.95019 0.0
O154 O 0.16262 0.16804 0.8971 0.0
O155 O 0.05125 0.18222 0.92741 0.0
O156 O 0.08655 0.2529 0.87693 0.0
O157 O 0.12658 0.28543 0.84364 0.0
O158 O 0.09563 0.1986 -0.00315 0.0
O159 O 0.12665 0.13927 0.93974 0.0
C160 C 0.12861 0.21635 0.79112 0.0
C161 C 0.19802 0.25648 0.87338 0.0
C162 C 0.05496 0.17254 0.89384 0.0
C163 C 0.11213 0.2276 0.98239 0.0
C164 C 0.15336 0.13817 0.91593 0.0
C165 C 0.09453 0.28144 0.8579 0.0
O166 O 0.12477 0.20219 0.82576 0.0
O167 O 0.15186 0.24349 0.78445 0.0
O168 O 0.34629 0.98085 0.0705 0.0
Mn169 Mn 0.35159 0.02427 0.11208 0.0
O170 O 0.38713 0.00862 0.03823 0.0
Mn171 Mn 0.4057 -0.00332 0.08458 0.0
O172 O 0.35904 0.06433 0.15126 0.0
O173 O 0.29258 0.01113 0.11776 0.0
Mn174 Mn 0.28875 0.05572 0.14176 0.0
O175 O 0.34077 0.07021 0.07583 0.0
O176 O 0.31215 0.05508 0.18767 0.0
O177 O 0.36181 0.98535 0.15157 0.0
O178 O 0.39529 0.95321 0.11133 0.0
O179 O 0.24209 0.03927 0.14409 0.0
O180 O 0.29877 0.09882 0.11265 0.0
C181 C 0.44717 0.02235 0.10942 0.0
C182 C 0.36478 0.98202 0.04018 0.0
C183 C 0.34553 0.06519 0.18349 0.0
C184 C 0.25621 0.01044 0.127 0.0
C185 C 0.32207 0.10003 0.08548 0.0
C186 C 0.38108 0.95702 0.14344 0.0
O187 O 0.41249 0.03636 0.1134 0.0
O188 O 0.454 -0.00428 0.08561 0.0
O189 O 0.25743 0.09601 0.32056 0.0
Mn190 Mn 0.21409 0.1013 0.36231 0.0
O191 O 0.23114 0.13844 0.28898 0.0
Mn192 Mn 0.24287 0.15545 0.3359 0.0
O193 O 0.17414 0.10825 0.40175 0.0
O194 O 0.2267 0.04226 0.36757 0.0
Mn195 Mn 0.18163 0.03707 0.39023 0.0
O196 O 0.16808 0.09133 0.32575 0.0
O197 O 0.18103 0.05939 0.43655 0.0
O198 O 0.25288 0.1107 0.40219 0.0
O199 O 0.28605 0.14356 0.36242 0.0
O200 O 0.19864 0.99051 0.39133 0.0
O201 O 0.13915 0.0479 0.36071 0.0
C202 C 0.21707 0.19698 0.36078 0.0
C203 C 0.25672 0.11492 0.29046 0.0
C204 C 0.17188 0.09318 0.43326 0.0
C205 C 0.22772 0.00559 0.37551 0.0
C206 C 0.1382 0.07225 0.33449 0.0
C207 C 0.28176 0.12925 0.3944 0.0
O208 O 0.20261 0.16238 0.36394 0.0
O209 O 0.2448 0.20368 0.33827 0.0
O210 O 0.14182 0.00748 0.57045 0.0
Mn211 Mn 0.13655 0.96406 0.61203 0.0
O212 O 0.10093 0.9798 0.53816 0.0
Mn213 Mn 0.08238 0.99167 0.58453 0.0
O214 O 0.12914 0.92404 0.65127 0.0
O215 O 0.19558 0.97718 0.61766 0.0
Mn216 Mn 0.19947 0.93256 0.64159 0.0
O217 O 0.1473 0.91811 0.57577 0.0
O218 O 0.17619 0.93319 0.68754 0.0
O219 O 0.12632 0.00303 0.6515 0.0
O220 O 0.09278 0.03513 0.61127 0.0
O221 O 0.24615 0.94898 0.64382 0.0
O222 O 0.18939 0.88949 0.61248 0.0
C223 C 0.04095 0.96592 0.60938 0.0
C224 C 0.12329 0.00639 0.54015 0.0
C225 C 0.14278 0.92312 0.68345 0.0
C226 C 0.23198 0.97783 0.62681 0.0
C227 C 0.16602 0.88829 0.58537 0.0
C228 C 0.107 0.03134 0.64337 0.0
O229 O 0.07565 0.95196 0.61335 0.0
O230 O 0.03409 0.99258 0.58562 0.0
O231 O 0.23087 0.89249 0.82056 0.0
Mn232 Mn 0.27426 0.88716 0.86226 0.0
O233 O 0.25729 0.85021 0.7889 0.0
Mn234 Mn 0.24552 0.83305 0.83577 0.0
O235 O 0.31423 0.88022 0.90166 0.0
O236 O 0.2617 0.94616 0.86757 0.0
Mn237 Mn 0.30671 0.95145 0.89029 0.0
O238 O 0.32026 0.89724 0.82572 0.0
O239 O 0.30728 0.92901 0.93656 0.0
O240 O 0.2355 0.87772 0.90214 0.0
O241 O 0.20234 0.84484 0.86237 0.0
O242 O 0.28956 -0.00202 0.89134 0.0
O243 O 0.34918 0.94064 0.86075 0.0
C244 C 0.27129 0.79149 0.86061 0.0
C245 C 0.23161 0.87362 0.79044 0.0
C246 C 0.31645 0.89522 0.9332 0.0
C247 C 0.26056 0.98282 0.87546 0.0
C248 C 0.35013 0.91634 0.83448 0.0
C249 C 0.20664 0.85916 0.89435 0.0
O250 O 0.28574 0.82609 0.86386 0.0
O251 O 0.24365 0.78481 0.83798 0.0
O252 O 0.34649 0.00749 0.41793 0.0
Mn253 Mn 0.35176 0.96411 0.37632 0.0
O254 O 0.38738 0.97978 0.45019 0.0
Mn255 Mn 0.40591 0.99169 0.40382 0.0
O256 O 0.35912 0.92412 0.33703 0.0
O257 O 0.29271 0.97724 0.37074 0.0
Mn258 Mn 0.28876 0.93256 0.34693 0.0
O259 O 0.34109 0.91814 0.41261 0.0
O260 O 0.3119 0.9331 0.30092 0.0
O261 O 0.36196 0.00311 0.33687 0.0
O262 O 0.39551 0.03518 0.37713 0.0
O263 O 0.24208 0.94896 0.34476 0.0
O264 O 0.29889 0.88951 0.37605 0.0
C265 C 0.44736 0.96598 0.37897 0.0
C266 C 0.36501 0.00636 0.44823 0.0
C267 C 0.34534 0.92312 0.3049 0.0
C268 C 0.25629 0.97787 0.36164 0.0
C269 C 0.32235 0.88831 0.40308 0.0
C270 C 0.3813 0.03141 0.34501 0.0
O271 O 0.41266 0.95202 0.37497 0.0
O272 O 0.4542 0.99264 0.40274 0.0
O273 O 0.23088 0.0958 0.66783 0.0
Mn274 Mn 0.27425 0.10114 0.62611 0.0
O275 O 0.25719 0.13817 0.69948 0.0
Mn276 Mn 0.24547 0.15526 0.65259 0.0
O277 O 0.3142 0.10812 0.58669 0.0
O278 O 0.26167 0.04214 0.62077 0.0
Mn279 Mn 0.30669 0.03689 0.59805 0.0
O280 O 0.32027 0.09108 0.66262 0.0
O281 O 0.30728 0.05933 0.55179 0.0
O282 O 0.23547 0.1106 0.58623 0.0
O283 O 0.20229 0.14342 0.62603 0.0
O284 O 0.28957 0.99035 0.59694 0.0
O285 O 0.34917 0.04768 0.62759 0.0
C286 C 0.27127 0.19681 0.62776 0.0
C287 C 0.23159 0.11468 0.69795 0.0
C288 C 0.31645 0.09311 0.55515 0.0
C289 C 0.26056 0.00548 0.61284 0.0
C290 C 0.35014 0.07198 0.65385 0.0
C291 C 0.20659 0.12914 0.59404 0.0
O292 O 0.28573 0.16221 0.62455 0.0
O293 O 0.24356 0.20349 0.65029 0.0
O294 O 0.14181 0.98074 0.91786 0.0
Mn295 Mn 0.13654 0.02417 0.87632 0.0
O296 O 0.10107 0.00854 0.9502 0.0
Mn297 Mn 0.08236 -0.00335 0.90388 0.0
O298 O 0.12912 0.06422 0.83713 0.0
O299 O 0.19556 0.01104 0.87068 0.0
Mn300 Mn 0.19938 0.05562 0.84666 0.0
O301 O 0.14736 0.07011 0.91258 0.0
O302 O 0.17601 0.0549 0.80074 0.0
O303 O 0.12628 0.98521 0.83687 0.0
O304 O 0.09266 0.95318 0.87711 0.0
O305 O 0.24606 0.03923 0.84436 0.0
O306 O 0.18935 0.09872 0.87575 0.0
C307 C 0.04094 0.02238 0.87904 0.0
C308 C 0.1233 0.98185 0.94816 0.0
C309 C 0.14264 0.06503 0.8049 0.0
C310 C 0.23194 0.01041 0.86146 0.0
C311 C 0.16607 0.09992 0.90294 0.0
C312 C 0.10691 0.95693 0.84501 0.0
O313 O 0.07565 0.03631 0.875 0.0
O314 O 0.03406 -0.00418 0.90291 0.0
O315 O 0.25733 0.89236 0.16781 0.0
Mn316 Mn 0.214 0.88707 0.12602 0.0
O317 O 0.23105 0.84988 0.19934 0.0
Mn318 Mn 0.24284 0.83296 0.1524 0.0
O319 O 0.1741 0.88016 0.08651 0.0
O320 O 0.22652 0.94613 0.12083 0.0
Mn321 Mn 0.18145 0.95146 0.09825 0.0
O322 O 0.16793 0.89695 0.16255 0.0
O323 O 0.18074 0.92924 0.05189 0.0
O324 O 0.25283 0.87771 0.08615 0.0
O325 O 0.28602 0.84489 0.12592 0.0
O326 O 0.19853 -0.00199 0.0973 0.0
O327 O 0.13902 0.94055 0.12778 0.0
C328 C 0.21701 0.79139 0.12759 0.0
C329 C 0.25666 0.87338 0.19786 0.0
C330 C 0.17171 0.8954 0.05508 0.0
C331 C 0.22759 0.98282 0.11305 0.0
C332 C 0.13806 0.91608 0.15388 0.0
C333 C 0.28173 0.85919 0.09394 0.0
O334 O 0.20255 0.82599 0.1244 0.0
O335 O 0.24484 0.78474 0.14997 0.0
O336 O 0.07059 0.34584 0.98109 0.0
Mn337 Mn 0.11233 0.35117 0.02444 0.0
O338 O 0.03886 0.38775 0.00795 0.0
Mn339 Mn 0.08559 0.4052 -0.00399 0.0
O340 O 0.15171 0.35829 0.06439 0.0
O341 O 0.11773 0.29215 0.01169 0.0
Mn342 Mn 0.14075 0.28731 0.05664 0.0
O343 O 0.07589 0.34098 0.07047 0.0
O344 O 0.18697 0.30993 0.05694 0.0
O345 O 0.15209 0.36077 0.98561 0.0
O346 O 0.11215 0.39372 0.95271 0.0
O347 O 0.14218 0.24072 0.03975 0.0
O348 O 0.11135 0.29793 0.0993 0.0
C349 C 0.11042 0.4468 0.02169 0.0
C350 C 0.04043 0.36463 0.98201 0.0
C351 C 0.18342 0.34363 0.0663 0.0
C352 C 0.12601 0.25555 0.01074 0.0
C353 C 0.08489 0.32202 0.10034 0.0
C354 C 0.14417 0.37945 0.95685 0.0
O355 O 0.11389 0.4122 0.03607 0.0
O356 O 0.08752 0.45345 -0.00573 0.0
O357 O 0.57026 0.14179 0.00763 0.0
Mn358 Mn 0.6118 0.13644 0.96418 0.0
O359 O 0.53785 0.10069 0.98035 0.0
Mn360 Mn 0.58431 0.08222 0.99198 0.0
O361 O 0.65111 0.12911 0.92418 0.0
O362 O 0.61744 0.19545 0.97723 0.0
Mn363 Mn 0.64128 0.19963 0.93262 0.0
O364 O 0.57556 0.14721 0.91821 0.0
O365 O 0.68724 0.17637 0.93314 0.0
O366 O 0.65129 0.1262 0.00313 0.0
O367 O 0.61111 0.09271 0.03535 0.0
O368 O 0.64329 0.24628 0.94924 0.0
O369 O 0.61213 0.18947 0.88962 0.0
C370 C 0.60906 0.04081 0.9661 0.0
C371 C 0.53994 0.12328 0.00674 0.0
C372 C 0.68323 0.14293 0.92314 0.0
C373 C 0.62637 0.23191 0.97805 0.0
C374 C 0.58512 0.16599 0.8884 0.0
C375 C 0.64321 0.10689 0.03146 0.0
O376 O 0.61296 0.07552 0.95213 0.0
O377 O 0.5855 0.03394 0.99293 0.0
O378 O 0.09624 0.32045 0.25779 0.0
Mn379 Mn 0.10165 0.36203 0.21437 0.0
O380 O 0.1375 0.28816 0.2306 0.0
Mn381 Mn 0.1558 0.33464 0.2423 0.0
O382 O 0.10893 0.40133 0.17437 0.0
O383 O 0.04267 0.36772 0.22732 0.0
Mn384 Mn 0.03814 0.39116 0.18253 0.0
O385 O 0.09097 0.3257 0.1684 0.0
O386 O 0.06122 0.43718 0.18259 0.0
O387 O 0.11179 0.40158 0.25329 0.0
O388 O 0.14511 0.3614 0.28567 0.0
O389 O 0.99156 0.39298 0.19939 0.0
O390 O 0.04842 0.36185 0.13967 0.0
C391 C 0.19728 0.35942 0.21654 0.0
C392 C 0.11469 0.2901 0.25681 0.0
C393 C 0.09477 0.43328 0.17285 0.0
C394 C 0.00617 0.3764 0.22827 0.0
C395 C 0.0721 0.33501 0.13857 0.0
C396 C 0.13096 0.39352 0.28172 0.0
O397 O 0.16261 0.36325 0.20245 0.0
O398 O 0.20408 0.33591 0.24343 0.0
O399 O 0.91797 0.84612 0.50771 0.0
Mn400 Mn 0.87649 0.85159 0.46422 0.0
O401 O 0.95041 0.88726 0.48055 0.0
Mn402 Mn 0.90396 0.90573 0.49218 0.0
O403 O 0.83727 0.85897 0.42416 0.0
O404 O 0.87073 0.79263 0.47717 0.0
Mn405 Mn 0.84695 0.78831 0.43255 0.0
O406 O 0.91276 0.84075 0.41828 0.0
O407 O 0.80106 0.81171 0.43297 0.0
O408 O 0.83693 0.86179 0.50306 0.0
O409 O 0.87707 0.89512 0.53549 0.0
O410 O 0.84499 0.7417 0.44935 0.0
O411 O 0.87619 0.79851 0.38962 0.0
C412 C 0.8793 0.94723 0.46635 0.0
C413 C 0.94833 0.86457 0.50685 0.0
C414 C 0.80515 0.84517 0.42303 0.0
C415 C 0.86188 0.75617 0.47812 0.0
C416 C 0.90322 0.82197 0.38846 0.0
C417 C 0.84496 0.88094 0.5315 0.0
O418 O 0.87542 0.91255 0.45228 0.0
O419 O 0.90281 0.95402 0.49325 0.0
O420 O 0.89204 0.168 0.25738 0.0
Mn421 Mn 0.88675 0.12631 0.21399 0.0
O422 O 0.85003 0.19982 0.23074 0.0
Mn423 Mn 0.83261 0.15303 0.24249 0.0
O424 O 0.87967 0.0869 0.17403 0.0
O425 O 0.94579 0.12101 0.22675 0.0
Mn426 Mn 0.95055 0.09776 0.18192 0.0
O427 O 0.89697 0.16272 0.16797 0.0
O428 O 0.92787 0.05156 0.18189 0.0
O429 O 0.87712 0.08654 0.25282 0.0
O430 O 0.84407 0.12641 0.28573 0.0
O431 O -0.00283 0.09636 0.19872 0.0
O432 O 0.93994 0.12707 0.13922 0.0
C433 C 0.7911 0.12821 0.21667 0.0
C434 C 0.8732 0.19814 0.25663 0.0
C435 C 0.89422 0.05512 0.17237 0.0
C436 C 0.98238 0.1127 0.22765 0.0
C437 C 0.91593 0.1536 0.13812 0.0
C438 C 0.85835 0.0944 0.28154 0.0
O439 O 0.82573 0.12482 0.20234 0.0
O440 O 0.78436 0.15099 0.24417 0.0
O441 O 0.41782 0.64239 0.48114 0.0
Mn442 Mn 0.37591 0.63709 0.52437 0.0
O443 O 0.44912 0.5995 0.5071 0.0
Mn444 Mn 0.40207 0.58298 0.49532 0.0
O445 O 0.33639 0.63014 0.56424 0.0
O446 O 0.37071 0.69615 0.51179 0.0
Mn447 Mn 0.34814 0.70141 0.55691 0.0
O448 O 0.41242 0.64691 0.57048 0.0
O449 O 0.30177 0.6792 0.55763 0.0
O450 O 0.336 0.62786 0.48557 0.0
O451 O 0.37574 0.59529 0.45216 0.0
O452 O 0.34711 0.74796 0.53986 0.0
O453 O 0.37766 0.69052 0.59936 0.0
C454 C 0.37711 0.54144 0.52115 0.0
C455 C 0.44783 0.62332 0.48179 0.0
C456 C 0.30496 0.64537 0.56664 0.0
C457 C 0.36284 0.73283 0.51076 0.0
C458 C 0.40374 0.66602 0.60036 0.0
C459 C 0.34378 0.60958 0.45653 0.0
O460 O 0.37424 0.57601 0.53574 0.0
O461 O 0.39922 0.53478 0.49309 0.0
O462 O 0.09581 0.66784 0.23062 0.0
Mn463 Mn 0.10138 0.62625 0.27403 0.0
O464 O 0.13733 0.7001 0.25749 0.0
Mn465 Mn 0.15547 0.65357 0.24583 0.0
O466 O 0.10877 0.587 0.31404 0.0
O467 O 0.04246 0.62044 0.2612 0.0
Mn468 Mn 0.03786 0.59695 0.30595 0.0
O469 O 0.09065 0.66254 0.32 0.0
O470 O 0.06114 0.55102 0.30588 0.0
O471 O 0.11146 0.58664 0.23519 0.0
O472 O 0.1445 0.62679 0.20254 0.0
O473 O 0.99129 0.59516 0.28892 0.0
O474 O 0.04815 0.62633 0.34875 0.0
C475 C 0.197 0.62881 0.27157 0.0
C476 C 0.11423 0.69823 0.23154 0.0
C477 C 0.0947 0.55501 0.31557 0.0
C478 C 0.00597 0.61181 0.26011 0.0
C479 C 0.0718 0.6532 0.34984 0.0
C480 C 0.13041 0.59467 0.20662 0.0
O481 O 0.16236 0.62514 0.28581 0.0
O482 O 0.20375 0.65213 0.2445 0.0
O483 O 0.39207 0.32038 0.73069 0.0
Mn484 Mn 0.38662 0.36196 0.77409 0.0
O485 O 0.35101 0.28798 0.75803 0.0
Mn486 Mn 0.33248 0.33438 0.74631 0.0
O487 O 0.3792 0.40125 0.81407 0.0
O488 O 0.44558 0.36775 0.76108 0.0
Mn489 Mn 0.44985 0.3915 0.80575 0.0
O490 O 0.39745 0.32575 0.82009 0.0
O491 O 0.4265 0.43742 0.80538 0.0
O492 O 0.37633 0.40142 0.73513 0.0
O493 O 0.34296 0.36114 0.7029 0.0
O494 O 0.49646 0.39353 0.78895 0.0
O495 O 0.43971 0.36229 0.84873 0.0
C496 C 0.29101 0.35915 0.77207 0.0
C497 C 0.3737 0.28999 0.73173 0.0
C498 C 0.39302 0.43335 0.81527 0.0
C499 C 0.48203 0.37665 0.76016 0.0
C500 C 0.41623 0.33527 0.84991 0.0
C501 C 0.35707 0.39329 0.70678 0.0
O502 O 0.3257 0.36309 0.7861 0.0
O503 O 0.28419 0.33547 0.74532 0.0
O504 O 0.00753 0.91767 0.64241 0.0
Mn505 Mn 0.96407 0.87611 0.63706 0.0
O506 O 0.98007 0.9498 0.6012 0.0
Mn507 Mn 0.99208 0.90332 0.583 0.0
O508 O 0.924 0.83691 0.62971 0.0
O509 O 0.97702 0.8705 0.69607 0.0
Mn510 Mn 0.93226 0.84694 0.70027 0.0
O511 O 0.91816 0.91251 0.64761 0.0
O512 O 0.93254 0.80091 0.67717 0.0
O513 O 0.00288 0.83646 0.62714 0.0
O514 O 0.03543 0.87653 0.59389 0.0
O515 O 0.94884 0.84494 0.74692 0.0
O516 O 0.88938 0.87621 0.68997 0.0
C517 C 0.96642 0.87858 0.54143 0.0
C518 C 0.00649 0.9479 0.62376 0.0
C519 C 0.92272 0.80487 0.64367 0.0
C520 C 0.97778 0.86163 0.73253 0.0
C521 C 0.8883 0.90313 0.66638 0.0
C522 C 0.03144 0.84448 0.60818 0.0
O523 O 0.95224 0.87474 0.57606 0.0
O524 O 0.99339 0.90202 0.53472 0.0
O525 O 0.82053 0.25752 0.39225 0.0
Mn526 Mn 0.86215 0.2141 0.38687 0.0
O527 O 0.78843 0.23035 0.35085 0.0
Mn528 Mn 0.83499 0.24225 0.33281 0.0
O529 O 0.9015 0.17412 0.37959 0.0
O530 O 0.86768 0.22696 0.44592 0.0
Mn531 Mn 0.89107 0.18215 0.45034 0.0
O532 O 0.82578 0.16809 0.39728 0.0
O533 O 0.93718 0.18224 0.42746 0.0
O534 O 0.90177 0.253 0.37698 0.0
O535 O 0.86171 0.28558 0.34376 0.0
O536 O 0.89284 0.19878 0.49698 0.0
O537 O 0.86179 0.13933 0.4399 0.0
C538 C 0.85967 0.21651 0.29123 0.0
C539 C 0.79029 0.2566 0.37361 0.0
C540 C 0.9334 0.17262 0.39388 0.0
C541 C 0.87633 0.22775 0.48244 0.0
C542 C 0.83507 0.13823 0.41611 0.0
C543 C 0.89378 0.28156 0.35799 0.0
O544 O 0.86347 0.20232 0.32587 0.0
O545 O 0.83641 0.24364 0.28454 0.0
O546 O 0.48061 0.07056 0.14242 0.0
Mn547 Mn 0.52412 0.11202 0.13695 0.0
O548 O 0.50819 0.03814 0.10154 0.0
Mn549 Mn 0.49626 0.08449 0.08291 0.0
O550 O 0.56422 0.15115 0.12947 0.0
O551 O 0.51112 0.11782 0.19593 0.0
Mn552 Mn 0.55575 0.14167 0.19997 0.0
O553 O 0.57002 0.07573 0.14778 0.0
O554 O 0.55526 0.18754 0.17651 0.0
O555 O 0.48529 0.15159 0.12677 0.0
O556 O 0.45291 0.11141 0.09344 0.0
O557 O 0.53913 0.14388 0.24661 0.0
O558 O 0.59872 0.11245 0.18984 0.0
C559 C 0.52196 0.10909 0.04132 0.0
C560 C 0.48166 0.04024 0.12394 0.0
C561 C 0.56527 0.18334 0.1431 0.0
C562 C 0.51032 0.12689 0.23233 0.0
C563 C 0.59987 0.08533 0.16648 0.0
C564 C 0.45685 0.14351 0.10764 0.0
O565 O 0.53604 0.11315 0.07597 0.0
O566 O 0.49518 0.08543 0.03461 0.0
O567 O 0.66256 0.82003 0.89757 0.0
Mn568 Mn 0.62627 0.77409 0.88679 0.0
O569 O 0.62599 0.84876 0.93972 0.0
Mn570 Mn 0.59678 0.8058 0.94988 0.0
O571 O 0.5868 0.73515 0.87651 0.0
O572 O 0.62516 0.78609 0.82583 0.0
Mn573 Mn 0.65399 0.74645 0.83279 0.0
O574 O 0.66775 0.73061 0.89225 0.0
O575 O 0.62709 0.70303 0.84303 0.0
O576 O 0.58704 0.81413 0.87933 0.0
O577 O 0.55083 0.80542 0.92662 0.0
O578 O 0.65333 0.74551 0.78449 0.0
O579 O 0.70025 0.75838 0.85164 0.0
C580 C 0.61147 0.76037 0.98224 0.0
C581 C 0.65303 0.84989 0.91627 0.0
C582 C 0.59494 0.70686 0.85716 0.0
C583 C 0.62945 0.77211 0.79117 0.0
C584 C 0.69815 0.73173 0.87391 0.0
C585 C 0.55493 0.81531 0.89316 0.0
O586 O 0.6205 0.7611 0.94581 0.0
O587 O 0.59461 0.78925 -0.00347 0.0
O588 O 0.00755 0.07058 0.84594 0.0
Mn589 Mn 0.96407 0.1121 0.85134 0.0
O590 O 0.97993 0.03827 0.88687 0.0
Mn591 Mn 0.99193 0.08466 0.90535 0.0
O592 O 0.92401 0.1513 0.85873 0.0
O593 O 0.97703 0.1178 0.79235 0.0
Mn594 Mn 0.9323 0.14142 0.78813 0.0
O595 O 0.91815 0.07576 0.84067 0.0
O596 O 0.93258 0.18739 0.81134 0.0
O597 O 0.00293 0.15168 0.86144 0.0
O598 O 0.03531 0.11151 0.89476 0.0
O599 O 0.94894 0.14345 0.7415 0.0
O600 O 0.8894 0.11216 0.79837 0.0
C601 C 0.96626 0.1093 0.94697 0.0
C602 C 0.00648 0.04029 0.86447 0.0
C603 C 0.92273 0.18336 0.84483 0.0
C604 C 0.97783 0.12669 0.75589 0.0
C605 C 0.88829 0.08519 0.82191 0.0
C606 C 0.03139 0.1436 0.88054 0.0
O607 O 0.95217 0.11334 0.91233 0.0
O608 O 0.99309 0.08567 0.95365 0.0
O609 O 0.66773 0.25759 0.59608 0.0
Mn610 Mn 0.62619 0.21414 0.60151 0.0
O611 O 0.70002 0.23012 0.6371 0.0
Mn612 Mn 0.65361 0.24204 0.65553 0.0
O613 O 0.5869 0.17413 0.60885 0.0
O614 O 0.62052 0.22703 0.5425 0.0
Mn615 Mn 0.59704 0.18224 0.53809 0.0
O616 O 0.66252 0.16817 0.5909 0.0
O617 O 0.55102 0.18236 0.56115 0.0
O618 O 0.58663 0.25305 0.6116 0.0
O619 O 0.6268 0.28541 0.64493 0.0
O620 O 0.59519 0.19898 0.49147 0.0
O621 O 0.62634 0.1394 0.54842 0.0
C622 C 0.629 0.21635 0.69715 0.0
C623 C 0.69806 0.25656 0.61456 0.0
C624 C 0.55494 0.17267 0.59471 0.0
C625 C 0.6118 0.22789 0.506 0.0
C626 C 0.65317 0.13831 0.5721 0.0
C627 C 0.59469 0.28148 0.63076 0.0
O628 O 0.62496 0.20226 0.6625 0.0
O629 O 0.65257 0.24322 0.70382 0.0
O630 O 0.57027 0.91262 0.34082 0.0
Mn631 Mn 0.52432 0.87619 0.35127 0.0
O632 O 0.59906 0.87662 0.2982 0.0
Mn633 Mn 0.55626 0.8473 0.28779 0.0
O634 O 0.48552 0.83647 0.36108 0.0
O635 O 0.53607 0.87478 0.4123 0.0
Mn636 Mn 0.49616 0.90324 0.40528 0.0
O637 O 0.48085 0.91777 0.34593 0.0
O638 O 0.45284 0.87647 0.39425 0.0
O639 O 0.56438 0.83696 0.3585 0.0
O640 O 0.55621 0.80122 0.31071 0.0
O641 O 0.49469 0.90184 0.45356 0.0
O642 O 0.50819 0.9498 0.38729 0.0
C643 C 0.51061 0.86201 0.25573 0.0
C644 C 0.60013 0.90337 0.32197 0.0
C645 C 0.45689 0.84444 0.37995 0.0
C646 C 0.52184 0.87859 0.44693 0.0
C647 C 0.48184 0.94795 0.36465 0.0
C648 C 0.5659 0.80504 0.34428 0.0
O649 O 0.51143 0.87067 0.29225 0.0
O650 O 0.53957 0.84551 0.24117 0.0
O651 O 0.82571 0.8203 0.09123 0.0
Mn652 Mn 0.86219 0.77432 0.10145 0.0
O653 O 0.86135 0.84915 0.04837 0.0
Mn654 Mn 0.89068 0.80644 0.03782 0.0
O655 O 0.90188 0.73542 0.11121 0.0
O656 O 0.86371 0.78609 0.16248 0.0
Mn657 Mn 0.83518 0.74622 0.15548 0.0
O658 O 0.82057 0.73089 0.09618 0.0
O659 O 0.86186 0.70286 0.1445 0.0
O660 O 0.90156 0.81432 0.10859 0.0
O661 O 0.93691 0.80658 0.06037 0.0
O662 O 0.83659 0.74477 0.20375 0.0
O663 O 0.78861 0.75824 0.13753 0.0
C664 C 0.87607 0.76079 0.00579 0.0
C665 C 0.83478 0.85019 0.07234 0.0
C666 C 0.8939 0.70686 0.13021 0.0
C667 C 0.85984 0.77191 0.19711 0.0
C668 C 0.79038 0.73188 0.1149 0.0
C669 C 0.93332 0.81607 0.09401 0.0
O670 O 0.86757 0.76149 0.04235 0.0
O671 O 0.89231 0.78988 0.99118 0.0
O672 O 0.64198 0.0073 0.91776 0.0
Mn673 Mn 0.63686 0.96395 0.87602 0.0
O674 O 0.60027 0.98013 0.94954 0.0
Mn675 Mn 0.58265 0.99206 0.90285 0.0
O676 O 0.62979 0.92397 0.83664 0.0
O677 O 0.69593 0.97683 0.87073 0.0
Mn678 Mn 0.7005 0.9319 0.84758 0.0
O679 O 0.64705 0.91797 0.9125 0.0
O680 O 0.67797 0.93178 0.80132 0.0
O681 O 0.62716 0.00286 0.83634 0.0
O682 O 0.59387 0.03544 0.87632 0.0
O683 O 0.74713 0.94849 0.84599 0.0
O684 O 0.68997 0.88915 0.87689 0.0
C685 C 0.54123 0.96636 0.87783 0.0
C686 C 0.6231 0.00632 0.94786 0.0
C687 C 0.64433 0.92226 0.80487 0.0
C688 C 0.7325 0.97756 0.86224 0.0
C689 C 0.666 0.88811 0.90345 0.0
C690 C 0.60823 0.03146 0.84431 0.0
O691 O 0.57588 0.95213 0.87433 0.0
O692 O 0.53439 0.99353 0.90099 0.0
O693 O 0.73084 0.89216 0.66773 0.0
Mn694 Mn 0.77427 0.88686 0.62613 0.0
O695 O 0.75818 0.85083 0.69975 0.0
Mn696 Mn 0.74621 0.83281 0.6532 0.0
O697 O 0.81427 0.87973 0.58677 0.0
O698 O 0.76146 0.94592 0.62071 0.0
Mn699 Mn 0.80638 0.95057 0.59756 0.0
O700 O 0.82023 0.89718 0.6626 0.0
O701 O 0.80651 0.92791 0.55137 0.0
O702 O 0.73539 0.87704 0.58646 0.0
O703 O 0.70286 0.84374 0.62649 0.0
O704 O 0.78966 -0.00282 0.596 0.0
O705 O 0.84908 0.94003 0.62693 0.0
C706 C 0.7719 0.79121 0.62851 0.0
C707 C 0.73185 0.8735 0.69795 0.0
C708 C 0.81599 0.89427 0.55499 0.0
C709 C 0.76064 0.98249 0.61227 0.0
C710 C 0.8501 0.9161 0.65352 0.0
C711 C 0.70685 0.858 0.59444 0.0
O712 O 0.78607 0.82585 0.62465 0.0
O713 O 0.74482 0.78453 0.65183 0.0
O714 O 0.84658 0.9808 0.41797 0.0
Mn715 Mn 0.8518 0.02418 0.37633 0.0
O716 O 0.88789 0.00809 0.45019 0.0
Mn717 Mn 0.90613 -0.0036 0.40368 0.0
O718 O 0.85908 0.06415 0.33701 0.0
O719 O 0.79279 0.01116 0.37077 0.0
Mn720 Mn 0.78853 0.05584 0.34704 0.0
O721 O 0.84113 0.07017 0.41261 0.0
O722 O 0.81164 0.05543 0.30101 0.0
O723 O 0.86194 0.9852 0.33685 0.0
O724 O 0.89547 0.95299 0.377 0.0
O725 O 0.74189 0.0392 0.34513 0.0
O726 O 0.79876 0.09882 0.37621 0.0
C727 C 0.94742 0.02221 0.37865 0.0
C728 C 0.86521 0.98177 0.44822 0.0
C729 C 0.84514 0.06529 0.30496 0.0
C730 C 0.75631 0.01035 0.36193 0.0
C731 C 0.8223 0.09998 0.40316 0.0
C732 C 0.88121 0.95684 0.34493 0.0
O733 O 0.9127 0.03622 0.37496 0.0
O734 O 0.95441 -0.00458 0.40223 0.0
O735 O 0.75727 0.09617 0.16791 0.0
Mn736 Mn 0.71396 0.10141 0.12612 0.0
O737 O 0.73091 0.13861 0.19951 0.0
Mn738 Mn 0.74265 0.15561 0.15259 0.0
O739 O 0.67406 0.1084 0.08665 0.0
O740 O 0.72662 0.04238 0.12087 0.0
Mn741 Mn 0.68166 0.03732 0.09795 0.0
O742 O 0.66794 0.09137 0.1626 0.0
O743 O 0.68134 0.05977 0.05166 0.0
O744 O 0.75279 0.11087 0.0863 0.0
O745 O 0.78587 0.14378 0.12612 0.0
O746 O 0.69861 0.99074 0.09681 0.0
O747 O 0.63908 0.0481 0.12738 0.0
C748 C 0.71685 0.19705 0.12756 0.0
C749 C 0.75653 0.11513 0.19798 0.0
C750 C 0.67212 0.09353 0.05503 0.0
C751 C 0.72762 0.00573 0.11283 0.0
C752 C 0.63808 0.07231 0.15373 0.0
C753 C 0.78162 0.12948 0.09413 0.0
O754 O 0.70241 0.16244 0.12448 0.0
O755 O 0.74452 0.20384 0.15013 0.0
O756 O 0.64715 0.07024 0.57584 0.0
Mn757 Mn 0.63688 0.02425 0.61227 0.0
O758 O 0.68997 0.09903 0.6116 0.0
Mn759 Mn 0.70046 0.05626 0.64091 0.0
O760 O 0.6272 0.98538 0.65199 0.0
O761 O 0.57589 0.036 0.61389 0.0
Mn762 Mn 0.58269 -0.00402 0.58549 0.0
O763 O 0.64209 0.98089 0.57055 0.0
O764 O 0.59404 0.95265 0.61204 0.0
O765 O 0.62973 0.06424 0.6516 0.0
O766 O 0.67775 0.05628 0.6871 0.0
O767 O 0.53443 -0.00555 0.58742 0.0
O768 O 0.60026 0.00785 0.53878 0.0
C769 C 0.73247 0.0106 0.62615 0.0
C770 C 0.66608 0.10009 0.58496 0.0
C771 C 0.60838 0.95671 0.64404 0.0
C772 C 0.54125 0.02172 0.61047 0.0
C773 C 0.62328 0.98182 0.5404 0.0
C774 C 0.64413 0.06586 0.68344 0.0
O775 O 0.69592 0.01139 0.61763 0.0
O776 O 0.74709 0.03959 0.64255 0.0
O777 O 0.75756 0.89233 0.32047 0.0
Mn778 Mn 0.71419 0.88694 0.36215 0.0
O779 O 0.73085 0.85042 0.28858 0.0
Mn780 Mn 0.74262 0.83282 0.33528 0.0
O781 O 0.67423 0.87977 0.40149 0.0
O782 O 0.72694 0.94591 0.36766 0.0
Mn783 Mn 0.68209 0.95076 0.39085 0.0
O784 O 0.66819 0.89731 0.32575 0.0
O785 O 0.68197 0.9279 0.43697 0.0
O786 O 0.75302 0.8772 0.40188 0.0
O787 O 0.78589 0.84421 0.36192 0.0
O788 O 0.69909 -0.00266 0.39231 0.0
O789 O 0.6394 0.94022 0.36145 0.0
C790 C 0.71684 0.7913 0.36012 0.0
C791 C 0.75673 0.87362 0.29027 0.0
C792 C 0.6725 0.89424 0.4333 0.0
C793 C 0.72799 0.98248 0.37598 0.0
C794 C 0.63835 0.91627 0.33486 0.0
C795 C 0.78174 0.85846 0.39395 0.0
O796 O 0.70252 0.82593 0.36356 0.0
O797 O 0.74422 0.78456 0.33718 0.0
O798 O 0.84614 0.00762 0.07054 0.0
Mn799 Mn 0.8515 0.96419 0.11211 0.0
O800 O 0.88711 0.98005 0.03825 0.0
Mn801 Mn 0.90564 0.99193 0.08462 0.0
O802 O 0.85891 0.92416 0.15133 0.0
O803 O 0.79249 0.97721 0.1178 0.0
Mn804 Mn 0.78842 0.93254 0.14159 0.0
O805 O 0.84076 0.91824 0.07583 0.0
O806 O 0.81171 0.93298 0.18754 0.0
O807 O 0.86167 0.00313 0.15161 0.0
O808 O 0.89512 0.03535 0.11139 0.0
O809 O 0.74177 0.9491 0.14372 0.0
O810 O 0.79857 0.88955 0.1124 0.0
C811 C 0.9471 0.96622 0.10944 0.0
C812 C 0.86463 0.00653 0.04021 0.0
C813 C 0.84516 0.92305 0.18346 0.0
C814 C 0.75606 0.97795 0.12682 0.0
C815 C 0.82201 0.88841 0.08534 0.0
C816 C 0.88089 0.03151 0.14349 0.0
O817 O 0.91242 0.95219 0.11339 0.0
O818 O 0.95394 0.99293 0.08571 0.0
O819 O 0.73085 0.09609 0.82055 0.0
Mn820 Mn 0.77425 0.10134 0.86222 0.0
O821 O 0.75789 0.13783 0.78876 0.0
Mn822 Mn 0.74592 0.15542 0.83546 0.0
O823 O 0.81427 0.10845 0.90155 0.0
O824 O 0.76143 0.04228 0.86755 0.0
Mn825 Mn 0.80636 0.03768 0.89066 0.0
O826 O 0.82021 0.09116 0.82571 0.0
O827 O 0.8065 0.06026 0.93689 0.0
O828 O 0.73543 0.11097 0.90199 0.0
O829 O 0.70262 0.14408 0.86207 0.0
O830 O 0.78974 0.99105 0.89225 0.0
O831 O 0.84906 0.04824 0.8613 0.0
C832 C 0.77164 0.197 0.86024 0.0
C833 C 0.73179 0.1149 0.7904 0.0
C834 C 0.81602 0.09389 0.93331 0.0
C835 C 0.76068 0.00571 0.87601 0.0
C836 C 0.85008 0.07222 0.83474 0.0
C837 C 0.70671 0.12974 0.89407 0.0
O838 O 0.78593 0.16238 0.86382 0.0
O839 O 0.74429 0.20368 0.83725 0.0
O840 O 0.91775 0.64231 0.00734 0.0
Mn841 Mn 0.87606 0.63705 0.96395 0.0
O842 O 0.9495 0.60059 0.98026 0.0
Mn843 Mn 0.90281 0.58303 0.99227 0.0
O844 O 0.83671 0.62996 0.92394 0.0
O845 O 0.87074 0.69611 0.97677 0.0
Mn846 Mn 0.84768 0.70076 0.93181 0.0
O847 O 0.91256 0.64721 0.91796 0.0
O848 O 0.80143 0.67823 0.93161 0.0
O849 O 0.83628 0.62745 0.00277 0.0
O850 O 0.8762 0.59436 0.03558 0.0
O851 O 0.84614 0.74738 0.94848 0.0
O852 O 0.87704 0.69017 0.88911 0.0
C853 C 0.87801 0.54141 0.96662 0.0
C854 C 0.94789 0.62351 0.00637 0.0
C855 C 0.80497 0.64457 0.92215 0.0
C856 C 0.86232 0.73268 0.97755 0.0
C857 C 0.90355 0.66614 0.88808 0.0
C858 C 0.84419 0.60867 0.03147 0.0
O859 O 0.87444 0.57601 0.95228 0.0
O860 O 0.90103 0.53476 0.99395 0.0
O861 O 0.41817 0.84661 0.98057 0.0
Mn862 Mn 0.37662 0.85205 0.02397 0.0
O863 O 0.45074 0.88785 0.00759 0.0
Mn864 Mn 0.4043 0.90642 -0.00383 0.0
O865 O 0.33733 0.85952 0.06394 0.0
O866 O 0.37077 0.79312 0.01092 0.0
Mn867 Mn 0.3467 0.78893 0.05541 0.0
O868 O 0.41274 0.84102 0.06996 0.0
O869 O 0.30088 0.81255 0.05473 0.0
O870 O 0.33723 0.86246 0.98501 0.0
O871 O 0.37747 0.89594 0.95282 0.0
O872 O 0.34463 0.74231 0.03858 0.0
O873 O 0.37584 0.79898 0.09849 0.0
C874 C 0.37933 0.94765 0.02209 0.0
C875 C 0.44855 0.86503 0.9814 0.0
C876 C 0.3051 0.84597 0.06478 0.0
C877 C 0.36178 0.7567 0.00992 0.0
C878 C 0.40303 0.82227 0.09974 0.0
C879 C 0.34535 0.88178 0.9567 0.0
O880 O 0.37563 0.91291 0.03606 0.0
O881 O 0.403 0.9547 -0.00462 0.0
O882 O 0.89227 0.66777 0.73062 0.0
Mn883 Mn 0.88681 0.62623 0.77407 0.0
O884 O 0.8511 0.70009 0.75788 0.0
Mn885 Mn 0.83273 0.65364 0.74613 0.0
O886 O 0.87944 0.587 0.81412 0.0
O887 O 0.94578 0.62045 0.7611 0.0
Mn888 Mn 0.95015 0.59692 0.80586 0.0
O889 O 0.89755 0.66255 0.82002 0.0
O890 O 0.92692 0.55096 0.80571 0.0
O891 O 0.87666 0.58665 0.73521 0.0
O892 O 0.84342 0.62683 0.70278 0.0
O893 O -0.00325 0.59493 0.78905 0.0
O894 O 0.93994 0.62623 0.84874 0.0
C895 C 0.79119 0.62895 0.77189 0.0
C896 C 0.87382 0.69812 0.7316 0.0
C897 C 0.89341 0.55496 0.81551 0.0
C898 C 0.98225 0.61163 0.76017 0.0
C899 C 0.91636 0.65316 0.84985 0.0
C900 C 0.85757 0.59472 0.70674 0.0
O901 O 0.82585 0.62507 0.786 0.0
O902 O 0.78444 0.65244 0.74497 0.0
O903 O 0.07029 0.14191 0.48056 0.0
Mn904 Mn 0.11176 0.13644 0.52402 0.0
O905 O 0.03764 0.10103 0.50794 0.0
Mn906 Mn 0.08395 0.08218 0.49634 0.0
O907 O 0.15098 0.12891 0.56405 0.0
O908 O 0.11766 0.19539 0.51095 0.0
Mn909 Mn 0.14176 0.19941 0.55545 0.0
O910 O 0.07561 0.1475 0.56997 0.0
O911 O 0.18755 0.17574 0.55474 0.0
O912 O 0.15116 0.12598 0.48508 0.0
O913 O 0.11087 0.09246 0.45297 0.0
O914 O 0.144 0.24604 0.53874 0.0
O915 O 0.11261 0.18942 0.59853 0.0
C916 C 0.10873 0.04083 0.52219 0.0
C917 C 0.0399 0.12354 0.48149 0.0
C918 C 0.18325 0.14237 0.56486 0.0
C919 C 0.1268 0.23177 0.51005 0.0
C920 C 0.08536 0.16621 0.59976 0.0
C921 C 0.14301 0.1066 0.45681 0.0
O922 O 0.11271 0.07555 0.53612 0.0
O923 O 0.0849 0.03389 0.4956 0.0
O924 O 0.09623 0.82034 0.73115 0.0
Mn925 Mn 0.10141 0.86211 0.77448 0.0
O926 O 0.13836 0.78868 0.75786 0.0
Mn927 Mn 0.15561 0.83551 0.74598 0.0
O928 O 0.10839 0.90159 0.8144 0.0
O929 O 0.04234 0.8673 0.76173 0.0
Mn930 Mn 0.03748 0.89033 0.80666 0.0
O931 O 0.09138 0.82564 0.82051 0.0
O932 O 0.05988 0.93664 0.80683 0.0
O933 O 0.1109 0.90187 0.73563 0.0
O934 O 0.14399 0.86204 0.70272 0.0
O935 O 0.99086 0.89159 0.78991 0.0
O936 O 0.04822 0.861 0.84931 0.0
C937 C 0.19706 0.86048 0.77175 0.0
C938 C 0.11522 0.7903 0.73193 0.0
C939 C 0.0936 0.93326 0.81616 0.0
C940 C 0.00571 0.87549 0.76088 0.0
C941 C 0.07239 0.83461 0.85037 0.0
C942 C 0.12961 0.89401 0.70687 0.0
O943 O 0.16243 0.86377 0.7861 0.0
O944 O 0.20385 0.83771 0.74425 0.0
O945 O 0.57034 0.34612 0.50737 0.0
Mn946 Mn 0.61207 0.35147 0.46402 0.0
O947 O 0.53853 0.38814 0.48071 0.0
Mn948 Mn 0.5853 0.40557 0.49249 0.0
O949 O 0.65147 0.3586 0.42409 0.0
O950 O 0.61745 0.29245 0.47681 0.0
Mn951 Mn 0.64069 0.28771 0.43197 0.0
O952 O 0.57569 0.34121 0.41796 0.0
O953 O 0.68687 0.31044 0.43194 0.0
O954 O 0.65181 0.36114 0.50287 0.0
O955 O 0.61188 0.39412 0.53576 0.0
O956 O 0.64215 0.2411 0.44882 0.0
O957 O 0.61139 0.29829 0.38922 0.0
C958 C 0.61015 0.44709 0.46673 0.0
C959 C 0.54016 0.36489 0.50655 0.0
C960 C 0.68327 0.34409 0.42244 0.0
C961 C 0.62581 0.25587 0.47776 0.0
C962 C 0.58483 0.32228 0.38811 0.0
C963 C 0.64391 0.37989 0.53159 0.0
O964 O 0.61353 0.41248 0.45237 0.0
O965 O 0.58731 0.45381 0.49419 0.0
O966 O 0.89211 0.32044 0.75777 0.0
Mn967 Mn 0.8867 0.36202 0.71435 0.0
O968 O 0.85083 0.28816 0.73061 0.0
Mn969 Mn 0.83255 0.33465 0.7423 0.0
O970 O 0.8794 0.40132 0.67435 0.0
O971 O 0.94567 0.36773 0.72733 0.0
Mn972 Mn 0.95016 0.39123 0.68257 0.0
O973 O 0.8974 0.32572 0.66838 0.0
O974 O 0.92703 0.43723 0.68268 0.0
O975 O 0.87656 0.40158 0.75325 0.0
O976 O 0.84327 0.36141 0.78566 0.0
O977 O -0.00325 0.3931 0.69944 0.0
O978 O 0.93992 0.36193 0.6397 0.0
C979 C 0.79107 0.3594 0.71649 0.0
C980 C 0.87364 0.2901 0.75681 0.0
C981 C 0.89349 0.43331 0.67291 0.0
C982 C 0.98216 0.37646 0.7283 0.0
C983 C 0.91626 0.33507 0.63856 0.0
C984 C 0.85743 0.39352 0.7817 0.0
O985 O 0.82575 0.36321 0.7024 0.0
O986 O 0.78427 0.33596 0.74344 0.0
O987 O 0.59617 0.66785 0.25777 0.0
Mn988 Mn 0.60161 0.62633 0.21431 0.0
O989 O 0.63707 0.70029 0.23025 0.0
Mn990 Mn 0.65572 0.65394 0.24203 0.0
O991 O 0.60908 0.58716 0.17424 0.0
O992 O 0.54263 0.62051 0.2274 0.0
Mn993 Mn 0.5386 0.5966 0.18279 0.0
O994 O 0.59067 0.66257 0.16838 0.0
O995 O 0.56208 0.55075 0.18326 0.0
O996 O 0.61193 0.58684 0.25321 0.0
O997 O 0.64532 0.6271 0.28543 0.0
O998 O 0.49198 0.59433 0.19945 0.0
O999 O 0.54861 0.6258 0.13976 0.0
C1000 C 0.69723 0.62927 0.21626 0.0
C1001 C 0.61454 0.69825 0.25669 0.0
C1002 C 0.59547 0.55497 0.17318 0.0
C1003 C 0.50624 0.61137 0.22824 0.0
C1004 C 0.57194 0.65294 0.13856 0.0
C1005 C 0.63118 0.59496 0.28156 0.0
O1006 O 0.66254 0.62524 0.20226 0.0
O1007 O 0.70402 0.65299 0.24298 0.0
O1008 O 0.48087 0.57036 0.84634 0.0
Mn1009 Mn 0.52419 0.61212 0.85168 0.0
O1010 O 0.50731 0.53852 0.88849 0.0
Mn1011 Mn 0.49566 0.58533 0.90586 0.0
O1012 O 0.56405 0.65166 0.85868 0.0
O1013 O 0.51152 0.61748 0.79267 0.0
Mn1014 Mn 0.55645 0.6404 0.78746 0.0
O1015 O 0.57028 0.57573 0.84149 0.0
O1016 O 0.55686 0.68665 0.80999 0.0
O1017 O 0.48527 0.65182 0.86137 0.0
O1018 O 0.45241 0.61188 0.89439 0.0
O1019 O 0.53933 0.64153 0.74093 0.0
O1020 O 0.59904 0.61098 0.79818 0.0
C1021 C 0.52153 0.6102 0.94733 0.0
C1022 C 0.48159 0.54019 0.86512 0.0
C1023 C 0.56608 0.68325 0.84375 0.0
C1024 C 0.51039 0.62548 0.75602 0.0
C1025 C 0.60012 0.58466 0.82242 0.0
C1026 C 0.45658 0.64392 0.88019 0.0
O1027 O 0.53583 0.61353 0.91269 0.0
O1028 O 0.49401 0.58744 0.9541 0.0
O1029 O 0.66788 0.23083 0.09584 0.0
Mn1030 Mn 0.62622 0.2742 0.10132 0.0
O1031 O 0.69986 0.25732 0.13789 0.0
Mn1032 Mn 0.65311 0.24566 0.15544 0.0
O1033 O 0.58692 0.31419 0.10853 0.0
O1034 O 0.62059 0.26144 0.04239 0.0
Mn1035 Mn 0.59733 0.30626 0.03748 0.0
O1036 O 0.66258 0.3202 0.09082 0.0
O1037 O 0.55129 0.30634 0.06052 0.0
O1038 O 0.58647 0.23545 0.11112 0.0
O1039 O 0.62643 0.20245 0.14396 0.0
O1040 O 0.59585 0.28911 0.99094 0.0
O1041 O 0.62676 0.34896 0.04797 0.0
C1042 C 0.62828 0.27148 0.19695 0.0
C1043 C 0.69811 0.23161 0.11452 0.0
C1044 C 0.55506 0.31586 0.09416 0.0
C1045 C 0.61225 0.26027 0.00584 0.0
C1046 C 0.65341 0.35004 0.07186 0.0
C1047 C 0.59438 0.20668 0.12978 0.0
O1048 O 0.62495 0.28586 0.16233 0.0
O1049 O 0.65112 0.24402 0.20369 0.0
O1050 O 0.00753 0.41807 0.34658 0.0
Mn1051 Mn 0.9642 0.37636 0.35191 0.0
O1052 O 0.98073 0.4501 0.38834 0.0
Mn1053 Mn 0.99238 0.40344 0.40614 0.0
O1054 O 0.92429 0.33693 0.35909 0.0
O1055 O 0.97708 0.37087 0.29289 0.0
Mn1056 Mn 0.93228 0.34751 0.28824 0.0
O1057 O 0.91814 0.41268 0.34146 0.0
O1058 O 0.93235 0.30138 0.31109 0.0
O1059 O 0.00315 0.33677 0.36183 0.0
O1060 O 0.03572 0.37683 0.39505 0.0
O1061 O 0.94911 0.34592 0.24164 0.0
O1062 O 0.88946 0.37678 0.29868 0.0
C1063 C 0.96654 0.37851 0.44754 0.0
C1064 C 0.00669 0.44831 0.36524 0.0
C1065 C 0.92277 0.30507 0.3447 0.0
C1066 C 0.97802 0.36238 0.25634 0.0
C1067 C 0.88832 0.40345 0.32254 0.0
C1068 C 0.0317 0.34477 0.38083 0.0
O1069 O 0.95237 0.375 0.41286 0.0
O1070 O 0.99373 0.40165 0.4544 0.0
O1071 O 0.82038 0.75742 0.59615 0.0
Mn1072 Mn 0.862 0.71403 0.6015 0.0
O1073 O 0.78828 0.73056 0.63784 0.0
Mn1074 Mn 0.83492 0.74223 0.65573 0.0
O1075 O 0.90132 0.67405 0.6087 0.0
O1076 O 0.86757 0.72688 0.54256 0.0
Mn1077 Mn 0.89105 0.68215 0.53784 0.0
O1078 O 0.82568 0.66804 0.59094 0.0
O1079 O 0.93709 0.68233 0.56093 0.0
O1080 O 0.90165 0.75286 0.61142 0.0
O1081 O 0.86163 0.78552 0.64461 0.0
O1082 O 0.89261 0.69915 0.49125 0.0
O1083 O 0.86174 0.63934 0.54827 0.0
C1084 C 0.85988 0.71643 0.69712 0.0
C1085 C 0.79017 0.7566 0.61484 0.0
C1086 C 0.93327 0.67266 0.59452 0.0
C1087 C 0.87604 0.72796 0.50603 0.0
C1088 C 0.83497 0.63822 0.57203 0.0
C1089 C 0.89368 0.78145 0.63035 0.0
O1090 O 0.86335 0.70221 0.66246 0.0
O1091 O 0.83668 0.74357 0.704 0.0
O1092 O 0.48084 0.41801 0.64209 0.0
Mn1093 Mn 0.52415 0.37626 0.63669 0.0
O1094 O 0.50719 0.44994 0.59993 0.0
Mn1095 Mn 0.49567 0.40316 0.58246 0.0
O1096 O 0.56404 0.3368 0.62955 0.0
O1097 O 0.51138 0.37079 0.69569 0.0
Mn1098 Mn 0.55621 0.34757 0.70059 0.0
O1099 O 0.57021 0.41259 0.64705 0.0
O1100 O 0.55632 0.30143 0.67781 0.0
O1101 O 0.48525 0.3366 0.62689 0.0
O1102 O 0.45242 0.37658 0.59387 0.0
O1103 O 0.53921 0.34619 0.74716 0.0
O1104 O 0.59893 0.37692 0.69003 0.0
C1105 C 0.52153 0.37822 0.54106 0.0
C1106 C 0.48157 0.44825 0.62341 0.0
C1107 C 0.56576 0.30503 0.64413 0.0
C1108 C 0.51032 0.36252 0.73228 0.0
C1109 C 0.60004 0.40346 0.66602 0.0
C1110 C 0.45659 0.34452 0.60805 0.0
O1111 O 0.53584 0.37494 0.57571 0.0
O1112 O 0.4941 0.40107 0.53422 0.0
O1113 O 0.82031 0.23083 0.89232 0.0
Mn1114 Mn 0.86195 0.27421 0.88693 0.0
O1115 O 0.78823 0.25751 0.85048 0.0
Mn1116 Mn 0.83491 0.24588 0.8327 0.0
O1117 O 0.9013 0.31416 0.87978 0.0
O1118 O 0.86753 0.26142 0.94586 0.0
Mn1119 Mn 0.89093 0.30615 0.95075 0.0
O1120 O 0.82564 0.32022 0.89749 0.0
O1121 O 0.93696 0.30606 0.92769 0.0
O1122 O 0.90161 0.23537 0.87704 0.0
O1123 O 0.86161 0.20262 0.84393 0.0
O1124 O 0.89236 0.28904 -0.00269 0.0
O1125 O 0.86159 0.34892 0.94026 0.0
C1126 C 0.85984 0.27171 0.79131 0.0
C1127 C 0.79008 0.23161 0.87364 0.0
C1128 C 0.9332 0.31565 0.89407 0.0
C1129 C 0.87587 0.26025 0.98241 0.0
C1130 C 0.83489 0.35004 0.91643 0.0
C1131 C 0.89366 0.20674 0.85817 0.0
O1132 O 0.86326 0.28597 0.82596 0.0
O1133 O 0.83675 0.24448 0.78444 0.0
O1134 O 0.00746 0.57023 0.14175 0.0
Mn1135 Mn 0.96411 0.61191 0.13643 0.0
O1136 O 0.98056 0.53805 0.10017 0.0
Mn1137 Mn 0.99213 0.58466 0.08214 0.0
O1138 O 0.92421 0.65136 0.12923 0.0
O1139 O 0.97703 0.6174 0.19545 0.0
Mn1140 Mn 0.93232 0.64096 0.19999 0.0
O1141 O 0.91806 0.57564 0.14697 0.0
O1142 O 0.93259 0.68706 0.17703 0.0
O1143 O 0.00309 0.65142 0.12639 0.0
O1144 O 0.03548 0.61131 0.093 0.0
O1145 O 0.9491 0.64259 0.24661 0.0
O1146 O 0.88943 0.61176 0.18959 0.0
C1147 C 0.96628 0.60961 0.04082 0.0
C1148 C 0.00661 0.53995 0.12316 0.0
C1149 C 0.9229 0.6833 0.14345 0.0
C1150 C 0.97794 0.62596 0.23198 0.0
C1151 C 0.88825 0.58499 0.16584 0.0
C1152 C 0.03152 0.6434 0.10719 0.0
O1153 O 0.95218 0.61321 0.07552 0.0
O1154 O 0.99329 0.58629 0.03388 0.0
O1155 O 0.66807 0.75759 0.39214 0.0
Mn1156 Mn 0.62644 0.71422 0.38672 0.0
O1157 O 0.7003 0.73074 0.35052 0.0
Mn1158 Mn 0.65372 0.74233 0.33244 0.0
O1159 O 0.58721 0.67423 0.37933 0.0
O1160 O 0.62068 0.7272 0.44563 0.0
Mn1161 Mn 0.59681 0.68262 0.44998 0.0
O1162 O 0.66264 0.66823 0.39756 0.0
O1163 O 0.55094 0.68313 0.4265 0.0
O1164 O 0.58688 0.75307 0.3766 0.0
O1165 O 0.62699 0.78564 0.34341 0.0
O1166 O 0.59488 0.69954 0.49659 0.0
O1167 O 0.62602 0.63964 0.43982 0.0
C1168 C 0.62873 0.71648 0.29113 0.0
C1169 C 0.69837 0.75673 0.37358 0.0
C1170 C 0.55505 0.6732 0.39303 0.0
C1171 C 0.61184 0.72825 0.48207 0.0
C1172 C 0.65307 0.63843 0.41636 0.0
C1173 C 0.59491 0.7816 0.35761 0.0
O1174 O 0.62527 0.70231 0.32581 0.0
O1175 O 0.65205 0.7435 0.28417 0.0
O1176 O 0.84596 0.4807 0.57049 0.0
Mn1177 Mn 0.85145 0.52415 0.61206 0.0
O1178 O 0.88755 0.50757 0.53837 0.0
Mn1179 Mn 0.90548 0.4958 0.58498 0.0
O1180 O 0.85863 0.56414 0.65141 0.0
O1181 O 0.79247 0.5114 0.61763 0.0
Mn1182 Mn 0.78763 0.55622 0.64088 0.0
O1183 O 0.84099 0.57014 0.57568 0.0
O1184 O 0.81055 0.55628 0.68696 0.0
O1185 O 0.8613 0.48534 0.65177 0.0
O1186 O 0.89437 0.45255 0.61177 0.0
O1187 O 0.74106 0.5392 0.64236 0.0
O1188 O 0.79816 0.59892 0.61148 0.0
C1189 C 0.9471 0.52159 0.60957 0.0
C1190 C 0.86455 0.48153 0.54022 0.0
C1191 C 0.84419 0.56577 0.68324 0.0
C1192 C 0.7559 0.51032 0.62598 0.0
C1193 C 0.82206 0.59998 0.58485 0.0
C1194 C 0.88017 0.4567 0.64383 0.0
O1195 O 0.91247 0.53584 0.61329 0.0
O1196 O 0.95375 0.4943 0.5865 0.0
O1197 O 0.75757 0.59636 0.82031 0.0
Mn1198 Mn 0.71415 0.60173 0.86187 0.0
O1199 O 0.73029 0.63754 0.7879 0.0
Mn1200 Mn 0.74193 0.65602 0.83434 0.0
O1201 O 0.67412 0.60918 0.90108 0.0
O1202 O 0.72724 0.54278 0.86767 0.0
Mn1203 Mn 0.68272 0.53873 0.89173 0.0
O1204 O 0.66817 0.59077 0.82571 0.0
O1205 O 0.68339 0.5623 0.93756 0.0
O1206 O 0.75306 0.61202 0.90134 0.0
O1207 O 0.78532 0.64545 0.86113 0.0
O1208 O 0.69943 0.4921 0.89393 0.0
O1209 O 0.63963 0.54874 0.86261 0.0
C1210 C 0.71613 0.69732 0.85931 0.0
C1211 C 0.75663 0.61488 0.78999 0.0
C1212 C 0.67327 0.59569 0.93333 0.0
C1213 C 0.72813 0.50639 0.87677 0.0
C1214 C 0.63839 0.57202 0.83542 0.0
C1215 C 0.78143 0.63123 0.89323 0.0
O1216 O 0.7021 0.66261 0.86303 0.0
O1217 O 0.74284 0.70431 0.83564 0.0
O1218 O 0.6425 0.50751 0.0704 0.0
Mn1219 Mn 0.63702 0.46411 0.11205 0.0
O1220 O 0.6004 0.48108 0.03852 0.0
Mn1221 Mn 0.58295 0.49278 0.08529 0.0
O1222 O 0.62988 0.42413 0.15139 0.0
O1223 O 0.69597 0.4768 0.11757 0.0
Mn1224 Mn 0.70098 0.43193 0.14067 0.0
O1225 O 0.64735 0.41811 0.07563 0.0
O1226 O 0.67813 0.43174 0.18678 0.0
O1227 O 0.62736 0.50285 0.15186 0.0
O1228 O 0.59453 0.53595 0.11199 0.0
O1229 O 0.74753 0.44905 0.14202 0.0
O1230 O 0.69036 0.3893 0.11123 0.0
C1231 C 0.54137 0.46698 0.11003 0.0
C1232 C 0.6238 0.50676 0.04018 0.0
C1233 C 0.64445 0.42231 0.18315 0.0
C1234 C 0.73256 0.47795 0.12577 0.0
C1235 C 0.66634 0.38826 0.0847 0.0
C1236 C 0.60874 0.53166 0.14401 0.0
O1237 O 0.57597 0.45256 0.11339 0.0
O1238 O 0.5347 0.49454 0.08728 0.0
O1239 O 0.73083 0.39208 0.32049 0.0
Mn1240 Mn 0.77422 0.38672 0.36213 0.0
O1241 O 0.75817 0.35087 0.28828 0.0
Mn1242 Mn 0.74636 0.33258 0.33474 0.0
O1243 O 0.81421 0.37935 0.40142 0.0
O1244 O 0.76118 0.44572 0.36781 0.0
Mn1245 Mn 0.80585 0.44992 0.39155 0.0
O1246 O 0.82023 0.39744 0.32589 0.0
O1247 O 0.80549 0.4267 0.43752 0.0
O1248 O 0.73528 0.37658 0.40164 0.0
O1249 O 0.70295 0.34325 0.36144 0.0
O1250 O 0.78918 0.49655 0.3936 0.0
O1251 O 0.84884 0.43977 0.36237 0.0
C1252 C 0.77211 0.29111 0.35956 0.0
C1253 C 0.73185 0.37355 0.29018 0.0
C1254 C 0.81539 0.39322 0.43351 0.0
C1255 C 0.76034 0.48217 0.37675 0.0
C1256 C 0.85004 0.41624 0.3354 0.0
C1257 C 0.70684 0.35745 0.39354 0.0
O1258 O 0.7862 0.32579 0.36338 0.0
O1259 O 0.74523 0.28429 0.33604 0.0
O1260 O 0.84593 0.50753 0.918 0.0
Mn1261 Mn 0.85141 0.46412 0.87639 0.0
O1262 O 0.88775 0.48089 0.95011 0.0
Mn1263 Mn 0.90551 0.49258 0.90343 0.0
O1264 O 0.85856 0.42417 0.837 0.0
O1265 O 0.79245 0.47682 0.87081 0.0
Mn1266 Mn 0.78743 0.432 0.84762 0.0
O1267 O 0.84096 0.4181 0.91275 0.0
O1268 O 0.81035 0.43188 0.80154 0.0
O1269 O 0.86124 0.50294 0.83669 0.0
O1270 O 0.89425 0.5358 0.87667 0.0
O1271 O 0.74088 0.44915 0.84628 0.0
O1272 O 0.79802 0.38934 0.87703 0.0
C1273 C 0.94707 0.46675 0.87874 0.0
C1274 C 0.86459 0.50678 0.94824 0.0
C1275 C 0.84403 0.42246 0.80521 0.0
C1276 C 0.75586 0.47799 0.8626 0.0
C1277 C 0.82198 0.38827 0.90361 0.0
C1278 C 0.88006 0.53162 0.84461 0.0
O1279 O 0.91244 0.45247 0.87518 0.0
O1280 O 0.95377 0.49413 0.9017 0.0
O1281 O 0.73076 0.59645 0.16796 0.0
Mn1282 Mn 0.77417 0.60181 0.12639 0.0
O1283 O 0.75824 0.63742 0.20041 0.0
Mn1284 Mn 0.7465 0.65603 0.15403 0.0
O1285 O 0.81414 0.60921 0.08707 0.0
O1286 O 0.76111 0.5428 0.12069 0.0
Mn1287 Mn 0.8057 0.53869 0.09679 0.0
O1288 O 0.82017 0.59099 0.16259 0.0
O1289 O 0.80514 0.56201 0.05086 0.0
O1290 O 0.73517 0.61212 0.08698 0.0
O1291 O 0.70307 0.64565 0.12725 0.0
O1292 O 0.78911 0.49205 0.09471 0.0
O1293 O 0.84875 0.54882 0.12592 0.0
C1294 C 0.77229 0.69742 0.12921 0.0
C1295 C 0.73176 0.61493 0.19829 0.0
C1296 C 0.81511 0.59545 0.05493 0.0
C1297 C 0.76031 0.50637 0.11168 0.0
C1298 C 0.84997 0.57224 0.15298 0.0
C1299 C 0.70689 0.63148 0.09512 0.0
O1300 O 0.78624 0.66271 0.12525 0.0
O1301 O 0.74562 0.70432 0.15295 0.0
O1302 O 0.64219 0.48094 0.418 0.0
Mn1303 Mn 0.63684 0.52428 0.37626 0.0
O1304 O 0.59996 0.50739 0.44977 0.0
Mn1305 Mn 0.58272 0.49564 0.40293 0.0
O1306 O 0.62979 0.56421 0.33682 0.0
O1307 O 0.69587 0.51156 0.3709 0.0
Mn1308 Mn 0.70085 0.55647 0.34787 0.0
O1309 O 0.64703 0.57033 0.41268 0.0
O1310 O 0.67827 0.55674 0.30165 0.0
O1311 O 0.62724 0.48546 0.33648 0.0
O1312 O 0.59435 0.45242 0.37635 0.0
O1313 O 0.74743 0.5395 0.34658 0.0
O1314 O 0.69019 0.5991 0.37727 0.0
C1315 C 0.54118 0.52146 0.37813 0.0
C1316 C 0.62333 0.48168 0.44813 0.0
C1317 C 0.64455 0.56607 0.30514 0.0
C1318 C 0.73249 0.51054 0.36273 0.0
C1319 C 0.66605 0.60017 0.40368 0.0
C1320 C 0.60857 0.45667 0.34433 0.0
O1321 O 0.5758 0.53586 0.37483 0.0
O1322 O 0.53449 0.49382 0.40075 0.0
O1323 O 0.7575 0.39196 0.668 0.0
Mn1324 Mn 0.71411 0.38662 0.62638 0.0
O1325 O 0.73026 0.35066 0.70027 0.0
Mn1326 Mn 0.74198 0.33237 0.65378 0.0
O1327 O 0.67413 0.37928 0.58708 0.0
O1328 O 0.72711 0.4456 0.62071 0.0
Mn1329 Mn 0.68247 0.4499 0.59693 0.0
O1330 O 0.6681 0.39738 0.66261 0.0
O1331 O 0.68287 0.42664 0.55097 0.0
O1332 O 0.75305 0.37646 0.58688 0.0
O1333 O 0.78536 0.34307 0.62705 0.0
O1334 O 0.69922 0.49652 0.59499 0.0
O1335 O 0.6395 0.43971 0.62612 0.0
C1336 C 0.71619 0.29101 0.62885 0.0
C1337 C 0.75653 0.37339 0.69828 0.0
C1338 C 0.673 0.39315 0.555 0.0
C1339 C 0.72801 0.48206 0.61186 0.0
C1340 C 0.6383 0.4162 0.6531 0.0
C1341 C 0.78146 0.35728 0.59496 0.0
O1342 O 0.70212 0.32571 0.62513 0.0
O1343 O 0.74303 0.28409 0.65239 0.0
O1344 O 0.57035 0.84633 0.48077 0.0
Mn1345 Mn 0.61198 0.85171 0.52416 0.0
O1346 O 0.53811 0.88793 0.50762 0.0
Mn1347 Mn 0.58472 0.90597 0.49604 0.0
O1348 O 0.65139 0.85892 0.56408 0.0
O1349 O 0.61758 0.79274 0.51128 0.0
Mn1350 Mn 0.6411 0.78803 0.55598 0.0
O1351 O 0.57572 0.84109 0.57017 0.0
O1352 O 0.68714 0.81111 0.55579 0.0
O1353 O 0.65153 0.86177 0.48524 0.0
O1354 O 0.61144 0.89505 0.45273 0.0
O1355 O 0.64268 0.74144 0.53901 0.0
O1356 O 0.61183 0.79843 0.59881 0.0
C1357 C 0.60957 0.94734 0.52193 0.0
C1358 C 0.54009 0.86495 0.48157 0.0
C1359 C 0.68333 0.84469 0.56544 0.0
C1360 C 0.62606 0.7562 0.51022 0.0
C1361 C 0.58506 0.82219 0.59998 0.0
C1362 C 0.64352 0.88085 0.45675 0.0
O1363 O 0.61317 0.91265 0.53605 0.0
O1364 O 0.58634 0.95423 0.49483 0.0
O1365 O 0.07061 0.64246 0.5073 0.0
Mn1366 Mn 0.11236 0.6372 0.46394 0.0
O1367 O 0.03902 0.60034 0.4806 0.0
Mn1368 Mn 0.08584 0.58315 0.49254 0.0
O1369 O 0.15178 0.63025 0.42398 0.0
O1370 O 0.11763 0.69623 0.47658 0.0
Mn1371 Mn 0.14029 0.70139 0.4315 0.0
O1372 O 0.07581 0.64719 0.41792 0.0
O1373 O 0.18661 0.67909 0.43086 0.0
O1374 O 0.15221 0.62776 0.50273 0.0
O1375 O 0.11238 0.59485 0.53579 0.0
O1376 O 0.14146 0.74794 0.44849 0.0
O1377 O 0.11078 0.6906 0.389 0.0
C1378 C 0.11068 0.54154 0.46686 0.0
C1379 C 0.0405 0.62358 0.50643 0.0
C1380 C 0.18329 0.64531 0.4217 0.0
C1381 C 0.12563 0.73289 0.47757 0.0
C1382 C 0.08456 0.66627 0.38804 0.0
C1383 C 0.14437 0.60916 0.53157 0.0
O1384 O 0.11404 0.57612 0.45241 0.0
O1385 O 0.08796 0.53491 0.49444 0.0
O1386 O 0.59649 0.82021 0.75747 0.0
Mn1387 Mn 0.60177 0.86177 0.71403 0.0
O1388 O 0.63773 0.78793 0.73018 0.0
Mn1389 Mn 0.65603 0.83443 0.74192 0.0
O1390 O 0.60905 0.90107 0.67403 0.0
O1391 O 0.54276 0.8673 0.72703 0.0
Mn1392 Mn 0.53855 0.89116 0.68244 0.0
O1393 O 0.59109 0.8255 0.66805 0.0
O1394 O 0.56174 0.93715 0.68302 0.0
O1395 O 0.61185 0.9013 0.75294 0.0
O1396 O 0.64535 0.86122 0.78527 0.0
O1397 O 0.49189 0.89307 0.69903 0.0
O1398 O 0.5488 0.86204 0.63944 0.0
C1399 C 0.69739 0.85931 0.71612 0.0
C1400 C 0.61514 0.78997 0.75657 0.0
C1401 C 0.59521 0.93318 0.67308 0.0
C1402 C 0.5063 0.87616 0.72783 0.0
C1403 C 0.5723 0.83503 0.63825 0.0
C1404 C 0.63106 0.89328 0.78135 0.0
O1405 O 0.6627 0.86307 0.70207 0.0
O1406 O 0.70431 0.83578 0.74297 0.0
O1407 O 0.41781 0.34614 0.00739 0.0
Mn1408 Mn 0.37606 0.35141 0.96405 0.0
O1409 O 0.44956 0.38799 0.98046 0.0
Mn1410 Mn 0.40284 0.40548 0.99238 0.0
O1411 O 0.33665 0.35848 0.9241 0.0
O1412 O 0.37071 0.29235 0.97687 0.0
Mn1413 Mn 0.3477 0.28759 0.9319 0.0
O1414 O 0.41252 0.34124 0.91801 0.0
O1415 O 0.30145 0.31009 0.93164 0.0
O1416 O 0.33633 0.36106 0.00292 0.0
O1417 O 0.3763 0.39412 0.0357 0.0
O1418 O 0.34621 0.24099 0.94867 0.0
O1419 O 0.37706 0.29817 0.88921 0.0
C1420 C 0.37802 0.44705 0.96665 0.0
C1421 C 0.44797 0.36493 0.00645 0.0
C1422 C 0.30495 0.34377 0.92222 0.0
C1423 C 0.36235 0.25577 0.97772 0.0
C1424 C 0.40351 0.32226 0.88815 0.0
C1425 C 0.34427 0.37985 0.03161 0.0
O1426 O 0.3745 0.41243 0.95235 0.0
O1427 O 0.40096 0.45374 0.99404 0.0
O1428 O 0.39202 0.66793 0.75781 0.0
Mn1429 Mn 0.38659 0.62642 0.71437 0.0
O1430 O 0.35119 0.70041 0.73024 0.0
Mn1431 Mn 0.33242 0.65411 0.742 0.0
O1432 O 0.37908 0.58726 0.67431 0.0
O1433 O 0.44554 0.62055 0.72748 0.0
Mn1434 Mn 0.44952 0.59653 0.68291 0.0
O1435 O 0.39762 0.6626 0.66841 0.0
O1436 O 0.42592 0.55072 0.68352 0.0
O1437 O 0.3762 0.58697 0.75329 0.0
O1438 O 0.34274 0.62726 0.78543 0.0
O1439 O 0.49614 0.59421 0.6996 0.0
O1440 O 0.43957 0.62567 0.63982 0.0
C1441 C 0.29099 0.62933 0.71626 0.0
C1442 C 0.37368 0.69834 0.75672 0.0
C1443 C 0.39255 0.55502 0.67338 0.0
C1444 C 0.48191 0.61136 0.72833 0.0
C1445 C 0.41634 0.6529 0.6386 0.0
C1446 C 0.35687 0.59512 0.7816 0.0
O1447 O 0.32569 0.62532 0.70228 0.0
O1448 O 0.28413 0.65318 0.74284 0.0
O1449 O 0.91796 0.14195 0.98069 0.0
Mn1450 Mn 0.87642 0.13657 0.02413 0.0
O1451 O 0.95034 0.10071 0.00789 0.0
Mn1452 Mn 0.90388 0.08229 -0.00377 0.0
O1453 O 0.83721 0.12915 0.06415 0.0
O1454 O 0.87066 0.19552 0.0111 0.0
Mn1455 Mn 0.84663 0.19967 0.05561 0.0
O1456 O 0.91261 0.14749 0.07008 0.0
O1457 O 0.80078 0.17612 0.05495 0.0
O1458 O 0.83691 0.12635 0.98525 0.0
O1459 O 0.87706 0.09296 0.95289 0.0
O1460 O 0.84454 0.2463 0.03888 0.0
O1461 O 0.87579 0.18958 0.09865 0.0
C1462 C 0.87897 0.04096 0.02208 0.0
C1463 C 0.94826 0.12339 0.98157 0.0
C1464 C 0.80499 0.14271 0.06499 0.0
C1465 C 0.86165 0.23194 0.01019 0.0
C1466 C 0.90295 0.16626 0.09987 0.0
C1467 C 0.84497 0.1072 0.95682 0.0
O1468 O 0.87527 0.07567 0.03613 0.0
O1469 O 0.90252 0.03401 -0.00475 0.0
O1470 O 0.59638 0.16803 0.7309 0.0
Mn1471 Mn 0.60172 0.12642 0.7743 0.0
O1472 O 0.63785 0.20023 0.75796 0.0
Mn1473 Mn 0.65594 0.15367 0.74624 0.0
O1474 O 0.60899 0.08706 0.81426 0.0
O1475 O 0.54272 0.12087 0.76137 0.0
Mn1476 Mn 0.53835 0.09714 0.806 0.0
O1477 O 0.59112 0.16268 0.82031 0.0
O1478 O 0.56149 0.05112 0.80551 0.0
O1479 O 0.61173 0.08686 0.7354 0.0
O1480 O 0.64506 0.12692 0.70292 0.0
O1481 O 0.49171 0.09536 0.7893 0.0
O1482 O 0.54868 0.12631 0.84893 0.0
C1483 C 0.69732 0.12878 0.77206 0.0
C1484 C 0.61504 0.19827 0.73176 0.0
C1485 C 0.59501 0.05501 0.81532 0.0
C1486 C 0.50623 0.11215 0.76049 0.0
C1487 C 0.57229 0.15322 0.85012 0.0
C1488 C 0.63082 0.09486 0.70691 0.0
O1489 O 0.66265 0.12514 0.78619 0.0
O1490 O 0.70421 0.15211 0.74503 0.0
O1491 O 0.89218 0.82038 0.231 0.0
Mn1492 Mn 0.88689 0.86208 0.27437 0.0
O1493 O 0.85015 0.78851 0.25762 0.0
Mn1494 Mn 0.83268 0.83529 0.24589 0.0
O1495 O 0.87987 0.90153 0.31428 0.0
O1496 O 0.94588 0.86745 0.26167 0.0
Mn1497 Mn 0.95094 0.89057 0.30652 0.0
O1498 O 0.89716 0.82568 0.32039 0.0
O1499 O 0.92826 0.93676 0.30666 0.0
O1500 O 0.87723 0.90181 0.23553 0.0
O1501 O 0.84414 0.86192 0.20265 0.0
O1502 O -0.00249 0.89176 0.28946 0.0
O1503 O 0.94026 0.86118 0.34916 0.0
C1504 C 0.79126 0.86023 0.27169 0.0
C1505 C 0.87334 0.79025 0.23174 0.0
C1506 C 0.89455 0.93325 0.31602 0.0
C1507 C 0.98249 0.87555 0.26057 0.0
C1508 C 0.91618 0.83471 0.35022 0.0
C1509 C 0.85844 0.89393 0.20682 0.0
O1510 O 0.82589 0.86356 0.28602 0.0
O1511 O 0.78444 0.83735 0.24428 0.0
O1512 O 0.5075 0.41818 0.14187 0.0
Mn1513 Mn 0.46419 0.37647 0.13653 0.0
O1514 O 0.48094 0.45027 0.09992 0.0
Mn1515 Mn 0.49244 0.40356 0.0822 0.0
O1516 O 0.42429 0.33702 0.12935 0.0
O1517 O 0.47711 0.37092 0.19551 0.0
Mn1518 Mn 0.43236 0.34749 0.20024 0.0
O1519 O 0.41814 0.41275 0.14705 0.0
O1520 O 0.43248 0.3014 0.17729 0.0
O1521 O 0.5031 0.33689 0.12655 0.0
O1522 O 0.53574 0.37694 0.09338 0.0
O1523 O 0.44932 0.34594 0.24682 0.0
O1524 O 0.38952 0.37677 0.18982 0.0
C1525 C 0.46653 0.37855 0.04091 0.0
C1526 C 0.50675 0.44842 0.12319 0.0
C1527 C 0.42287 0.30512 0.14368 0.0
C1528 C 0.47817 0.36244 0.23206 0.0
C1529 C 0.38834 0.40347 0.16599 0.0
C1530 C 0.53167 0.34488 0.10758 0.0
O1531 O 0.45233 0.3752 0.07559 0.0
O1532 O 0.49378 0.40159 0.03395 0.0
O1533 O 0.32022 0.75764 0.89224 0.0
Mn1534 Mn 0.36185 0.71428 0.88675 0.0
O1535 O 0.28789 0.73101 0.85054 0.0
Mn1536 Mn 0.33448 0.74244 0.83244 0.0
O1537 O 0.40121 0.67436 0.87946 0.0
O1538 O 0.36765 0.72713 0.94562 0.0
Mn1539 Mn 0.39121 0.68246 0.95048 0.0
O1540 O 0.32565 0.66824 0.89756 0.0
O1541 O 0.43714 0.68263 0.92715 0.0
O1542 O 0.40137 0.75317 0.87658 0.0
O1543 O 0.36123 0.78573 0.84341 0.0
O1544 O 0.39277 0.69973 -0.00298 0.0
O1545 O 0.36189 0.63962 0.94015 0.0
C1546 C 0.35947 0.71657 0.79115 0.0
C1547 C 0.28988 0.75686 0.87375 0.0
C1548 C 0.4332 0.67299 0.89356 0.0
C1549 C 0.3761 0.72842 0.98214 0.0
C1550 C 0.33504 0.63845 0.91647 0.0
C1551 C 0.39334 0.78168 0.85754 0.0
O1552 O 0.36293 0.7024 0.82583 0.0
O1553 O 0.33616 0.74359 0.78417 0.0
O1554 O 0.98098 0.57018 0.64174 0.0
Mn1555 Mn 0.02427 0.61195 0.63652 0.0
O1556 O 0.00756 0.5383 0.59966 0.0
Mn1557 Mn -0.00405 0.5851 0.5822 0.0
O1558 O 0.06416 0.65146 0.62947 0.0
O1559 O 0.0114 0.61727 0.69557 0.0
Mn1560 Mn 0.05626 0.64049 0.70035 0.0
O1561 O 0.07033 0.57558 0.64678 0.0
O1562 O 0.0563 0.68673 0.67774 0.0
O1563 O 0.98534 0.65159 0.62676 0.0
O1564 O 0.95265 0.61162 0.59355 0.0
O1565 O 0.03945 0.6419 0.74695 0.0
O1566 O 0.09902 0.61121 0.68977 0.0
C1567 C 0.02183 0.61016 0.54089 0.0
C1568 C 0.98173 0.54004 0.62291 0.0
C1569 C 0.06577 0.68322 0.64408 0.0
C1570 C 0.01049 0.62561 0.73217 0.0
C1571 C 0.10015 0.58468 0.66575 0.0
C1572 C 0.95672 0.64364 0.60784 0.0
O1573 O 0.03606 0.61344 0.57557 0.0
O1574 O -0.00552 0.58724 0.53396 0.0
O1575 O 0.1627 0.32027 0.39747 0.0
Mn1576 Mn 0.12641 0.27424 0.38691 0.0
O1577 O 0.12687 0.34897 0.44036 0.0
Mn1578 Mn 0.09749 0.30624 0.45088 0.0
O1579 O 0.08676 0.2354 0.377 0.0
O1580 O 0.12517 0.28596 0.32595 0.0
Mn1581 Mn 0.15344 0.24581 0.33263 0.0
O1582 O 0.16808 0.23088 0.39234 0.0
O1583 O 0.12675 0.20258 0.34396 0.0
O1584 O 0.087 0.31415 0.37976 0.0
O1585 O 0.05144 0.30628 0.42786 0.0
O1586 O 0.15146 0.24437 0.28438 0.0
O1587 O 0.20018 0.25728 0.3503 0.0
C1588 C 0.11256 0.26019 0.48239 0.0
C1589 C 0.1535 0.35009 0.41646 0.0
C1590 C 0.09469 0.20675 0.35815 0.0
C1591 C 0.12847 0.27167 0.29129 0.0
C1592 C 0.19834 0.2316 0.37371 0.0
C1593 C 0.05516 0.31577 0.3942 0.0
O1594 O 0.12078 0.26147 0.44582 0.0
O1595 O 0.09615 0.28897 0.4974 0.0
O1596 O 0.50723 0.57032 0.34635 0.0
Mn1597 Mn 0.46398 0.61218 0.35163 0.0
O1598 O 0.48109 0.53872 0.38896 0.0
Mn1599 Mn 0.49274 0.58568 0.40587 0.0
O1600 O 0.42415 0.65174 0.3586 0.0
O1601 O 0.47667 0.61744 0.2926 0.0
Mn1602 Mn 0.43175 0.6404 0.28745 0.0
O1603 O 0.41787 0.57579 0.34155 0.0
O1604 O 0.43144 0.68669 0.30992 0.0
O1605 O 0.50286 0.65195 0.36115 0.0
O1606 O 0.53596 0.61208 0.39397 0.0
O1607 O 0.44881 0.64151 0.24089 0.0
O1608 O 0.38915 0.61101 0.2982 0.0
C1609 C 0.46685 0.61071 0.44726 0.0
C1610 C 0.50657 0.54025 0.36532 0.0
C1611 C 0.42222 0.68335 0.34368 0.0
C1612 C 0.47776 0.62545 0.25595 0.0
C1613 C 0.38805 0.58472 0.32247 0.0
C1614 C 0.5317 0.64408 0.37972 0.0
O1615 O 0.45242 0.6137 0.41263 0.0
O1616 O 0.49464 0.5883 0.45408 0.0
O1617 O 0.16798 0.75734 0.09613 0.0
Mn1618 Mn 0.12616 0.71407 0.10145 0.0
O1619 O 0.19963 0.73141 0.13885 0.0
Mn1620 Mn 0.15267 0.7429 0.15579 0.0
O1621 O 0.08671 0.67419 0.10849 0.0
O1622 O 0.12075 0.72672 0.04251 0.0
Mn1623 Mn 0.09765 0.68188 0.0373 0.0
O1624 O 0.16251 0.668 0.09118 0.0
O1625 O 0.05148 0.68165 0.06005 0.0
O1626 O 0.08637 0.75287 0.11101 0.0
O1627 O 0.12619 0.78606 0.1438 0.0
O1628 O 0.09653 0.69914 0.99077 0.0
O1629 O 0.12707 0.63926 0.04798 0.0
C1630 C 0.12748 0.71699 0.19707 0.0
C1631 C 0.19808 0.75675 0.11506 0.0
C1632 C 0.05501 0.67235 0.09379 0.0
C1633 C 0.11273 0.72798 0.00589 0.0
C1634 C 0.15351 0.63818 0.0721 0.0
C1635 C 0.09421 0.78176 0.12951 0.0
O1636 O 0.12467 0.70252 0.16244 0.0
O1637 O 0.14995 0.74471 0.204 0.0
O1638 O 0.07023 0.41262 0.84152 0.0
Mn1639 Mn 0.02418 0.3763 0.85193 0.0
O1640 O 0.09887 0.37675 0.79869 0.0
Mn1641 Mn 0.05605 0.34749 0.78823 0.0
O1642 O 0.98525 0.33668 0.86179 0.0
O1643 O 0.03603 0.37488 0.91287 0.0
Mn1644 Mn -0.00407 0.40324 0.90626 0.0
O1645 O 0.98088 0.41805 0.84667 0.0
O1646 O 0.95261 0.3767 0.89499 0.0
O1647 O 0.06408 0.33684 0.85905 0.0
O1648 O 0.05596 0.30134 0.81103 0.0
O1649 O -0.00547 0.40117 0.9545 0.0
O1650 O 0.00751 0.45 0.88868 0.0
C1651 C 0.01032 0.36241 0.75635 0.0
C1652 C 0.10004 0.4034 0.82258 0.0
C1653 C 0.95666 0.34466 0.88073 0.0
C1654 C 0.02182 0.37818 0.94755 0.0
C1655 C 0.98167 0.44823 0.86545 0.0
C1656 C 0.06554 0.30499 0.84465 0.0
O1657 O 0.01126 0.37088 0.79291 0.0
O1658 O 0.03922 0.34595 0.74163 0.0
O1659 O 0.32571 0.3201 0.59095 0.0
Mn1660 Mn 0.36193 0.27405 0.60166 0.0
O1661 O 0.36179 0.34874 0.54823 0.0
Mn1662 Mn 0.39113 0.30595 0.53784 0.0
O1663 O 0.40153 0.23519 0.61167 0.0
O1664 O 0.3631 0.28583 0.6626 0.0
Mn1665 Mn 0.33479 0.24569 0.65597 0.0
O1666 O 0.32025 0.23071 0.5962 0.0
O1667 O 0.36148 0.20244 0.64472 0.0
O1668 O 0.40129 0.31397 0.60889 0.0
O1669 O 0.4371 0.30586 0.56106 0.0
O1670 O 0.33674 0.24435 0.70422 0.0
O1671 O 0.2881 0.25715 0.63818 0.0
C1672 C 0.37602 0.25999 0.50622 0.0
C1673 C 0.33502 0.34989 0.572 0.0
C1674 C 0.39355 0.20656 0.63054 0.0
C1675 C 0.3598 0.27158 0.69727 0.0
C1676 C 0.28997 0.23144 0.6148 0.0
C1677 C 0.43322 0.31545 0.59467 0.0
O1678 O 0.36765 0.26126 0.54276 0.0
O1679 O 0.39262 0.28871 0.49131 0.0
O1680 O 0.14239 0.50758 0.41803 0.0
Mn1681 Mn 0.13688 0.4642 0.3764 0.0
O1682 O 0.10045 0.48113 0.45019 0.0
Mn1683 Mn 0.0827 0.49268 0.40348 0.0
O1684 O 0.12976 0.42429 0.33696 0.0
O1685 O 0.19581 0.47687 0.37077 0.0
Mn1686 Mn 0.20103 0.43204 0.34767 0.0
O1687 O 0.14737 0.41815 0.41273 0.0
O1688 O 0.17811 0.4318 0.30159 0.0
O1689 O 0.12699 0.50305 0.33674 0.0
O1690 O 0.09398 0.53589 0.37674 0.0
O1691 O 0.24754 0.44938 0.34645 0.0
O1692 O 0.19043 0.38941 0.37712 0.0
C1693 C 0.04124 0.46682 0.3787 0.0
C1694 C 0.12378 0.50689 0.4483 0.0
C1695 C 0.1444 0.42246 0.30522 0.0
C1696 C 0.23241 0.47819 0.36269 0.0
C1697 C 0.16639 0.38833 0.40364 0.0
C1698 C 0.10814 0.5317 0.34467 0.0
O1699 O 0.07588 0.45254 0.37524 0.0
O1700 O 0.03445 0.49418 0.40166 0.0
O1701 O 0.23083 0.39204 0.16811 0.0
Mn1702 Mn 0.27423 0.38663 0.12653 0.0
O1703 O 0.2582 0.35097 0.20054 0.0
Mn1704 Mn 0.24645 0.33245 0.15413 0.0
O1705 O 0.31418 0.37927 0.08719 0.0
O1706 O 0.26122 0.44558 0.12079 0.0
Mn1707 Mn 0.30584 0.44994 0.09699 0.0
O1708 O 0.32026 0.39744 0.16272 0.0
O1709 O 0.30536 0.42661 0.05106 0.0
O1710 O 0.23528 0.37636 0.08709 0.0
O1711 O 0.20305 0.34294 0.12734 0.0
O1712 O 0.28901 0.49655 0.09508 0.0
O1713 O 0.34883 0.43974 0.12616 0.0
C1714 C 0.27222 0.29104 0.12933 0.0
C1715 C 0.23182 0.37357 0.19845 0.0
C1716 C 0.31523 0.39312 0.05509 0.0
C1717 C 0.26025 0.48204 0.11196 0.0
C1718 C 0.35005 0.41624 0.15315 0.0
C1719 C 0.20694 0.35709 0.09521 0.0
O1720 O 0.28624 0.32572 0.12542 0.0
O1721 O 0.24546 0.28417 0.15298 0.0
O1722 O 0.34597 0.48093 0.91797 0.0
Mn1723 Mn 0.35133 0.5243 0.87626 0.0
O1724 O 0.38807 0.50744 0.94985 0.0
Mn1725 Mn 0.40548 0.49572 0.90305 0.0
O1726 O 0.35835 0.56421 0.83679 0.0
O1727 O 0.29233 0.51162 0.87085 0.0
Mn1728 Mn 0.28715 0.55656 0.84795 0.0
O1729 O 0.34111 0.57036 0.91268 0.0
O1730 O 0.30971 0.55698 0.80173 0.0
O1731 O 0.36099 0.48546 0.83652 0.0
O1732 O 0.39397 0.4525 0.87642 0.0
O1733 O 0.24062 0.53942 0.84676 0.0
O1734 O 0.29786 0.59915 0.87739 0.0
C1735 C 0.44699 0.52154 0.87824 0.0
C1736 C 0.36476 0.48167 0.94813 0.0
C1737 C 0.34346 0.56624 0.80517 0.0
C1738 C 0.25569 0.51047 0.86281 0.0
C1739 C 0.32206 0.6002 0.90375 0.0
C1740 C 0.37972 0.45671 0.84439 0.0
O1741 O 0.41237 0.53589 0.87486 0.0
O1742 O 0.45373 0.49403 0.90101 0.0
O1743 O 0.25762 0.59635 0.66802 0.0
Mn1744 Mn 0.2142 0.60178 0.62651 0.0
O1745 O 0.22981 0.63688 0.70069 0.0
Mn1746 Mn 0.2416 0.65596 0.65449 0.0
O1747 O 0.17421 0.60932 0.58726 0.0
O1748 O 0.22736 0.54281 0.62062 0.0
Mn1749 Mn 0.18288 0.53893 0.59644 0.0
O1750 O 0.16822 0.59069 0.66262 0.0
O1751 O 0.18368 0.56259 0.55065 0.0
O1752 O 0.25321 0.61233 0.58721 0.0
O1753 O 0.28507 0.64597 0.62762 0.0
O1754 O 0.19949 0.49229 0.59408 0.0
O1755 O 0.13971 0.54886 0.62551 0.0
C1756 C 0.21586 0.69736 0.62973 0.0
C1757 C 0.25651 0.61467 0.69843 0.0
C1758 C 0.17351 0.59594 0.55496 0.0
C1759 C 0.2282 0.50645 0.61135 0.0
C1760 C 0.13843 0.57202 0.6528 0.0
C1761 C 0.28135 0.63186 0.59544 0.0
O1762 O 0.202 0.66264 0.62553 0.0
O1763 O 0.24223 0.70425 0.65382 0.0
O1764 O 0.14744 0.57012 0.07568 0.0
Mn1765 Mn 0.13684 0.52411 0.11199 0.0
O1766 O 0.19012 0.59885 0.11173 0.0
Mn1767 Mn 0.20055 0.5561 0.14109 0.0
O1768 O 0.12692 0.48531 0.15168 0.0
O1769 O 0.07583 0.5358 0.11314 0.0
Mn1770 Mn 0.08269 0.49568 0.08488 0.0
O1771 O 0.14235 0.48068 0.07042 0.0
O1772 O 0.09388 0.45247 0.11169 0.0
O1773 O 0.12957 0.56411 0.15129 0.0
O1774 O 0.17742 0.55607 0.18708 0.0
O1775 O 0.03442 0.49423 0.08656 0.0
O1776 O 0.10057 0.5073 0.03823 0.0
C1777 C 0.23233 0.51025 0.12614 0.0
C1778 C 0.16635 0.59995 0.08498 0.0
C1779 C 0.10808 0.45665 0.14375 0.0
C1780 C 0.04118 0.52153 0.1096 0.0
C1781 C 0.12375 0.48143 0.04014 0.0
C1782 C 0.14382 0.56567 0.1832 0.0
O1783 O 0.19579 0.51135 0.11768 0.0
O1784 O 0.24712 0.53906 0.1427 0.0
O1785 O 0.25753 0.39197 0.82039 0.0
Mn1786 Mn 0.21411 0.38658 0.86195 0.0
O1787 O 0.23005 0.35096 0.788 0.0
Mn1788 Mn 0.24188 0.33242 0.83439 0.0
O1789 O 0.1741 0.37911 0.9012 0.0
O1790 O 0.22722 0.44557 0.8677 0.0
Mn1791 Mn 0.18265 0.44953 0.8917 0.0
O1792 O 0.16813 0.39742 0.82576 0.0
O1793 O 0.1833 0.4261 0.93758 0.0
O1794 O 0.25303 0.37633 0.90142 0.0
O1795 O 0.28528 0.34292 0.8612 0.0
O1796 O 0.19922 0.49618 0.89394 0.0
O1797 O 0.13957 0.43947 0.86259 0.0
C1798 C 0.21612 0.29097 0.85916 0.0
C1799 C 0.2565 0.37348 0.79007 0.0
C1800 C 0.17325 0.39269 0.93341 0.0
C1801 C 0.228 0.48196 0.87686 0.0
C1802 C 0.13832 0.41614 0.83545 0.0
C1803 C 0.2814 0.35712 0.89331 0.0
O1804 O 0.20209 0.32566 0.86309 0.0
O1805 O 0.24287 0.28413 0.83551 0.0
O1806 O 0.34593 0.50735 0.57032 0.0
Mn1807 Mn 0.35137 0.46405 0.61212 0.0
O1808 O 0.38872 0.48159 0.53864 0.0
Mn1809 Mn 0.40561 0.49305 0.58562 0.0
O1810 O 0.35843 0.42416 0.65158 0.0
O1811 O 0.2924 0.47664 0.61756 0.0
Mn1812 Mn 0.28715 0.43176 0.64055 0.0
O1813 O 0.34114 0.41797 0.57575 0.0
O1814 O 0.30985 0.43141 0.68672 0.0
O1815 O 0.36088 0.50282 0.65195 0.0
O1816 O 0.39355 0.53616 0.61217 0.0
O1817 O 0.24062 0.44903 0.64166 0.0
O1818 O 0.29788 0.3892 0.61109 0.0
C1819 C 0.44701 0.46713 0.61059 0.0
C1820 C 0.36481 0.50681 0.54019 0.0
C1821 C 0.34361 0.42217 0.68323 0.0
C1822 C 0.25577 0.4779 0.62553 0.0
C1823 C 0.32207 0.38814 0.58472 0.0
C1824 C 0.37931 0.53176 0.64416 0.0
O1825 O 0.41241 0.45261 0.61348 0.0
O1826 O 0.45382 0.495 0.58828 0.0
O1827 O 0.2306 0.59648 0.32013 0.0
Mn1828 Mn 0.27402 0.60197 0.36164 0.0
O1829 O 0.25793 0.63741 0.28747 0.0
Mn1830 Mn 0.24637 0.65626 0.33378 0.0
O1831 O 0.31402 0.60958 0.40083 0.0
O1832 O 0.26087 0.54305 0.36761 0.0
Mn1833 Mn 0.30527 0.53921 0.39193 0.0
O1834 O 0.32 0.5908 0.32558 0.0
O1835 O 0.30432 0.56307 0.43763 0.0
O1836 O 0.23507 0.61249 0.40099 0.0
O1837 O 0.20298 0.64599 0.36067 0.0
O1838 O 0.2886 0.49257 0.39434 0.0
O1839 O 0.34847 0.54908 0.36287 0.0
C1840 C 0.27221 0.69755 0.35865 0.0
C1841 C 0.23156 0.6148 0.2897 0.0
C1842 C 0.31458 0.59639 0.4332 0.0
C1843 C 0.25998 0.50671 0.37693 0.0
C1844 C 0.34977 0.57214 0.33549 0.0
C1845 C 0.20682 0.63186 0.39282 0.0
O1846 O 0.28615 0.66283 0.36255 0.0
O1847 O 0.24566 0.70455 0.33479 0.0
O1848 O 0.41812 0.14182 0.50785 0.0
Mn1849 Mn 0.3766 0.13638 0.46441 0.0
O1850 O 0.45072 0.10083 0.48054 0.0
Mn1851 Mn 0.40437 0.08209 0.49212 0.0
O1852 O 0.33735 0.12892 0.42442 0.0
O1853 O 0.37073 0.1953 0.47748 0.0
Mn1854 Mn 0.34665 0.19948 0.433 0.0
O1855 O 0.41273 0.14746 0.41845 0.0
O1856 O 0.30086 0.17584 0.43368 0.0
O1857 O 0.33721 0.12593 0.50336 0.0
O1858 O 0.37748 0.09243 0.53549 0.0
O1859 O 0.34453 0.24609 0.44982 0.0
O1860 O 0.3758 0.18947 0.38992 0.0
C1861 C 0.37954 0.04078 0.46626 0.0
C1862 C 0.44851 0.12344 0.50691 0.0
C1863 C 0.30511 0.14244 0.42358 0.0
C1864 C 0.3617 0.23171 0.47847 0.0
C1865 C 0.40302 0.16621 0.38867 0.0
C1866 C 0.34535 0.10657 0.53163 0.0
O1867 O 0.37564 0.0755 0.45231 0.0
O1868 O 0.40331 0.0338 0.49289 0.0
O1869 O 0.91791 0.34607 0.48109 0.0
Mn1870 Mn 0.8762 0.35135 0.52444 0.0
O1871 O 0.94979 0.38786 0.50806 0.0
Mn1872 Mn 0.9031 0.40549 0.49617 0.0
O1873 O 0.83679 0.35847 0.56438 0.0
O1874 O 0.87079 0.29233 0.51161 0.0
Mn1875 Mn 0.84759 0.28759 0.55649 0.0
O1876 O 0.91259 0.34106 0.57047 0.0
O1877 O 0.8014 0.31028 0.55657 0.0
O1878 O 0.83651 0.36107 0.48558 0.0
O1879 O 0.87649 0.39421 0.45285 0.0
O1880 O 0.8461 0.24099 0.53966 0.0
O1881 O 0.87691 0.29815 0.59924 0.0
C1882 C 0.87819 0.44698 0.52186 0.0
C1883 C 0.94808 0.36483 0.48203 0.0
C1884 C 0.805 0.34394 0.56603 0.0
C1885 C 0.8624 0.25576 0.51069 0.0
C1886 C 0.90348 0.32212 0.60032 0.0
C1887 C 0.84446 0.37993 0.45693 0.0
O1888 O 0.87468 0.41235 0.53616 0.0
O1889 O 0.90128 0.45375 0.49461 0.0
O1890 O 0.39218 0.16801 0.23119 0.0
Mn1891 Mn 0.38691 0.12623 0.2745 0.0
O1892 O 0.34991 0.19969 0.25768 0.0
Mn1893 Mn 0.33272 0.15284 0.24588 0.0
O1894 O 0.3799 0.08673 0.31438 0.0
O1895 O 0.44593 0.12094 0.26181 0.0
Mn1896 Mn 0.45097 0.09788 0.3067 0.0
O1897 O 0.39703 0.16262 0.32058 0.0
O1898 O 0.42841 0.05163 0.30689 0.0
O1899 O 0.37738 0.08646 0.23567 0.0
O1900 O 0.34443 0.12631 0.20265 0.0
O1901 O 0.49755 0.09671 0.28971 0.0
O1902 O 0.44022 0.12724 0.34933 0.0
C1903 C 0.29127 0.12789 0.27168 0.0
C1904 C 0.37323 0.19808 0.23192 0.0
C1905 C 0.39468 0.05506 0.31618 0.0
C1906 C 0.48255 0.11285 0.26077 0.0
C1907 C 0.41605 0.15362 0.35041 0.0
C1908 C 0.35875 0.09432 0.20686 0.0
O1909 O 0.32589 0.12468 0.28608 0.0
O1910 O 0.28449 0.15054 0.24408 0.0
O1911 O 0.57035 0.64219 0.98113 0.0
Mn1912 Mn 0.61219 0.63693 0.02439 0.0
O1913 O 0.5388 0.5997 0.00747 0.0
Mn1914 Mn 0.58571 0.58273 -0.00432 0.0
O1915 O 0.6517 0.62994 0.06426 0.0
O1916 O 0.61743 0.69596 0.01175 0.0
Mn1917 Mn 0.64031 0.70106 0.05672 0.0
O1918 O 0.57574 0.64693 0.07047 0.0
O1919 O 0.68662 0.67866 0.05709 0.0
O1920 O 0.65198 0.6275 0.98554 0.0
O1921 O 0.61215 0.59462 0.95245 0.0
O1922 O 0.64143 0.74763 0.03973 0.0
O1923 O 0.6109 0.69027 0.09929 0.0
C1924 C 0.61077 0.54131 0.02143 0.0
C1925 C 0.54028 0.62322 0.98188 0.0
C1926 C 0.68328 0.64489 0.06626 0.0
C1927 C 0.62544 0.73261 0.01072 0.0
C1928 C 0.58461 0.66599 0.10032 0.0
C1929 C 0.64413 0.60893 0.95669 0.0
O1930 O 0.61384 0.57591 0.0359 0.0
O1931 O 0.5882 0.53451 0.99377 0.0
O1932 O 0.59635 0.3203 0.23068 0.0
Mn1933 Mn 0.60178 0.36194 0.27404 0.0
O1934 O 0.63794 0.288 0.25752 0.0
Mn1935 Mn 0.65607 0.33457 0.24599 0.0
O1936 O 0.60917 0.40124 0.314 0.0
O1937 O 0.54282 0.36773 0.26103 0.0
Mn1938 Mn 0.53844 0.39145 0.30569 0.0
O1939 O 0.59096 0.32573 0.32005 0.0
O1940 O 0.56178 0.43737 0.30536 0.0
O1941 O 0.61198 0.40145 0.23512 0.0
O1942 O 0.6452 0.36127 0.20265 0.0
O1943 O 0.49184 0.3934 0.28881 0.0
O1944 O 0.5486 0.36221 0.34865 0.0
C1945 C 0.6974 0.3595 0.27188 0.0
C1946 C 0.61487 0.28998 0.23153 0.0
C1947 C 0.59528 0.43332 0.3152 0.0
C1948 C 0.50636 0.37656 0.26004 0.0
C1949 C 0.57212 0.33523 0.34984 0.0
C1950 C 0.63104 0.39337 0.20663 0.0
O1951 O 0.6627 0.36305 0.28599 0.0
O1952 O 0.70434 0.33618 0.24486 0.0
O1953 O 0.07032 0.84639 0.0078 0.0
Mn1954 Mn 0.11179 0.85182 0.96433 0.0
O1955 O 0.0376 0.88692 0.98004 0.0
Mn1956 Mn 0.08379 0.90604 0.99176 0.0
O1957 O 0.151 0.85935 0.9243 0.0
O1958 O 0.1177 0.79286 0.97747 0.0
Mn1959 Mn 0.14186 0.78894 0.93299 0.0
O1960 O 0.07565 0.84068 0.9184 0.0
O1961 O 0.18764 0.81262 0.93374 0.0
O1962 O 0.15111 0.86239 0.00332 0.0
O1963 O 0.11073 0.89606 0.0352 0.0
O1964 O 0.14422 0.74231 0.94963 0.0
O1965 O 0.11275 0.79885 0.88986 0.0
C1966 C 0.10852 0.94741 0.96596 0.0
C1967 C 0.0399 0.86469 0.00672 0.0
C1968 C 0.1833 0.84597 0.92355 0.0
C1969 C 0.12695 0.75649 0.97831 0.0
C1970 C 0.08544 0.82199 0.88862 0.0
C1971 C 0.1429 0.88193 0.03147 0.0
O1972 O 0.11273 0.91268 0.95213 0.0
O1973 O 0.08444 0.95433 0.99234 0.0
O1974 O 0.39213 0.82051 0.25726 0.0
Mn1975 Mn 0.3869 0.86222 0.21388 0.0
O1976 O 0.35031 0.78872 0.23027 0.0
Mn1977 Mn 0.3328 0.83545 0.24224 0.0
O1978 O 0.37983 0.90162 0.17392 0.0
O1979 O 0.44596 0.86752 0.2267 0.0
Mn1980 Mn 0.45065 0.89072 0.18183 0.0
O1981 O 0.39708 0.82579 0.16785 0.0
O1982 O 0.42805 0.93695 0.18178 0.0
O1983 O 0.37729 0.90196 0.25272 0.0
O1984 O 0.34418 0.86205 0.28554 0.0
O1985 O 0.49727 0.8922 0.19854 0.0
O1986 O 0.44005 0.86142 0.1391 0.0
C1987 C 0.29125 0.86027 0.21649 0.0
C1988 C 0.37321 0.79044 0.2564 0.0
C1989 C 0.3944 0.9334 0.1723 0.0
C1990 C 0.48254 0.87591 0.22753 0.0
C1991 C 0.41603 0.8349 0.138 0.0
C1992 C 0.35852 0.89405 0.28143 0.0
O1993 O 0.32588 0.86378 0.20219 0.0
O1994 O 0.28455 0.83736 0.24391 0.0
O1995 O 0.09617 0.1679 0.75723 0.0
Mn1996 Mn 0.10139 0.12614 0.71389 0.0
O1997 O 0.13846 0.19954 0.73071 0.0
Mn1998 Mn 0.15558 0.15266 0.7425 0.0
O1999 O 0.10839 0.08668 0.67396 0.0
O2000 O 0.04234 0.1209 0.72662 0.0
Mn2001 Mn 0.03745 0.09782 0.68172 0.0
O2002 O 0.09132 0.16259 0.66786 0.0
O2003 O 0.05995 0.05155 0.68157 0.0
O2004 O 0.11086 0.08633 0.7527 0.0
O2005 O 0.14384 0.12614 0.78573 0.0
O2006 O 0.99084 0.09657 0.69856 0.0
O2007 O 0.04818 0.12717 0.63907 0.0
C2008 C 0.19703 0.12768 0.71671 0.0
C2009 C 0.11517 0.19795 0.7565 0.0
C2010 C 0.09366 0.05498 0.67222 0.0
C2011 C 0.00572 0.11273 0.72755 0.0
C2012 C 0.07231 0.15359 0.63801 0.0
C2013 C 0.12948 0.09417 0.78151 0.0
O2014 O 0.16241 0.12451 0.7023 0.0
O2015 O 0.20381 0.15032 0.74432 0.0
loop_
_geom_bond_atom_site_label_1
_geom_bond_atom_site_label_2
_geom_bond_distance
_geom_bond_site_symmetry_2
_ccdc_geom_bond_type
O0 Mn1 2.163 1_655 S
O0 C14 1.244 . S
Mn1 O0 2.163 1_455 S
Mn1 O4 2.160 . S
Mn1 O5 2.221 . S
Mn1 O7 2.163 . S
Mn1 O9 2.160 1_455 S
Mn1 O19 2.221 . S
O2 Mn3 2.087 . S
O2 C14 1.256 . S
Mn3 O2 2.087 . S
Mn3 O10 2.089 . S
Mn3 O19 2.290 1_655 S
Mn3 O20 2.251 1_655 S
O4 Mn1 2.160 . S
O4 C15 1.239 . S
O5 Mn1 2.221 . S
O5 Mn6 2.290 . S
O5 C16 1.278 . S
Mn6 O5 2.290 . S
Mn6 O8 2.089 . S
Mn6 O11 2.251 . S
Mn6 O12 2.087 . S
O7 Mn1 2.163 . S
O7 C17 1.244 . S
O8 Mn6 2.089 . S
O8 C15 1.256 . S
O9 Mn1 2.160 1_655 S
O9 C18 1.239 . S
O10 Mn3 2.089 . S
O10 C18 1.256 . S
O11 Mn6 2.251 . S
O11 C16 1.241 . S
O12 Mn6 2.087 . S
O12 C17 1.256 . S
C13 O19 1.278 . S
C13 O20 1.241 . S
C14 O0 1.244 . S
C14 O2 1.256 . S
C15 O4 1.239 . S
C15 O8 1.256 . S
C16 O5 1.278 . S
C16 O11 1.241 . S
C17 O7 1.244 . S
C17 O12 1.256 . S
C18 O9 1.239 . S
C18 O10 1.256 . S
O19 Mn1 2.221 . S
O19 Mn3 2.290 1_455 S
O19 C13 1.278 . S
O20 Mn3 2.251 1_455 S
O20 C13 1.241 . S
O21 Mn22 2.163 . S
O21 C35 1.244 . S
Mn22 O21 2.163 . S
Mn22 O25 2.160 . S
Mn22 O26 2.221 . S
Mn22 O28 2.163 . S
Mn22 O30 2.160 . S
Mn22 O40 2.221 . S
O23 Mn24 2.087 . S
O23 C35 1.256 . S
Mn24 O23 2.087 . S
Mn24 O31 2.089 . S
Mn24 O40 2.290 . S
Mn24 O41 2.251 . S
O25 Mn22 2.160 . S
O25 C36 1.239 . S
O26 Mn22 2.221 . S
O26 Mn27 2.290 . S
O26 C37 1.278 . S
Mn27 O26 2.290 . S
Mn27 O29 2.089 . S
Mn27 O32 2.251 . S
Mn27 O33 2.087 . S
O28 Mn22 2.163 . S
O28 C38 1.244 . S
O29 Mn27 2.089 . S
O29 C36 1.256 . S
O30 Mn22 2.160 . S
O30 C39 1.239 . S
O31 Mn24 2.089 . S
O31 C39 1.256 . S
O32 Mn27 2.251 . S
O32 C37 1.241 . S
O33 Mn27 2.087 . S
O33 C38 1.256 . S
C34 O40 1.278 . S
C34 O41 1.241 . S
C35 O21 1.244 . S
C35 O23 1.256 . S
C36 O25 1.239 . S
C36 O29 1.256 . S
C37 O26 1.278 . S
C37 O32 1.241 . S
C38 O28 1.244 . S
C38 O33 1.256 . S
C39 O30 1.239 . S
C39 O31 1.256 . S
O40 Mn22 2.221 . S
O40 Mn24 2.290 . S
O40 C34 1.278 . S
O41 Mn24 2.251 . S
O41 C34 1.241 . S
O42 Mn43 2.163 . S
O42 C56 1.244 . S
Mn43 O42 2.163 . S
Mn43 O46 2.160 . S
Mn43 O47 2.221 . S
Mn43 O49 2.163 . S
Mn43 O51 2.160 . S
Mn43 O61 2.221 . S
O44 Mn45 2.087 . S
O44 C56 1.256 . S
Mn45 O44 2.087 . S
Mn45 O52 2.089 . S
Mn45 O61 2.290 . S
Mn45 O62 2.251 . S
O46 Mn43 2.160 . S
O46 C57 1.239 . S
O47 Mn43 2.221 . S
O47 Mn48 2.290 . S
O47 C58 1.278 . S
Mn48 O47 2.290 . S
Mn48 O50 2.089 . S
Mn48 O53 2.251 . S
Mn48 O54 2.087 . S
O49 Mn43 2.163 . S
O49 C59 1.244 . S
O50 Mn48 2.089 . S
O50 C57 1.256 . S
O51 Mn43 2.160 . S
O51 C60 1.239 . S
O52 Mn45 2.089 . S
O52 C60 1.256 . S
O53 Mn48 2.251 . S
O53 C58 1.241 . S
O54 Mn48 2.087 . S
O54 C59 1.256 . S
C55 O61 1.278 . S
C55 O62 1.241 . S
C56 O42 1.244 . S
C56 O44 1.256 . S
C57 O46 1.239 . S
C57 O50 1.256 . S
C58 O47 1.278 . S
C58 O53 1.241 . S
C59 O49 1.244 . S
C59 O54 1.256 . S
C60 O51 1.239 . S
C60 O52 1.256 . S
O61 Mn43 2.221 . S
O61 Mn45 2.290 . S
O61 C55 1.278 . S
O62 Mn45 2.251 . S
O62 C55 1.241 . S
O63 Mn64 2.163 . S
O63 C77 1.244 . S
Mn64 O63 2.163 . S
Mn64 O67 2.160 . S
Mn64 O68 2.221 . S
Mn64 O70 2.163 . S
Mn64 O72 2.160 . S
Mn64 O82 2.221 . S
O65 Mn66 2.087 . S
O65 C77 1.256 . S
Mn66 O65 2.087 . S
Mn66 O73 2.089 . S
Mn66 O82 2.290 . S
Mn66 O83 2.251 . S
O67 Mn64 2.160 . S
O67 C78 1.239 . S
O68 Mn64 2.221 . S
O68 Mn69 2.290 . S
O68 C79 1.278 . S
Mn69 O68 2.290 . S
Mn69 O71 2.089 . S
Mn69 O74 2.251 1_554 S
Mn69 O75 2.087 . S
O70 Mn64 2.163 . S
O70 C80 1.244 . S
O71 Mn69 2.089 . S
O71 C78 1.256 . S
O72 Mn64 2.160 . S
O72 C81 1.239 . S
O73 Mn66 2.089 . S
O73 C81 1.256 . S
O74 Mn69 2.251 1_556 S
O74 C79 1.241 1_556 S
O75 Mn69 2.087 . S
O75 C80 1.256 . S
C76 O82 1.278 . S
C76 O83 1.241 . S
C77 O63 1.244 . S
C77 O65 1.256 . S
C78 O67 1.239 . S
C78 O71 1.256 . S
C79 O68 1.278 . S
C79 O74 1.241 1_554 S
C80 O70 1.244 . S
C80 O75 1.256 . S
C81 O72 1.239 . S
C81 O73 1.256 . S
O82 Mn64 2.221 . S
O82 Mn66 2.290 . S
O82 C76 1.278 . S
O83 Mn66 2.251 . S
O83 C76 1.241 . S
O84 Mn85 2.163 1_655 S
O84 C98 1.244 . S
Mn85 O84 2.163 1_455 S
Mn85 O88 2.160 . S
Mn85 O89 2.221 . S
Mn85 O91 2.163 . S
Mn85 O93 2.160 1_455 S
Mn85 O103 2.221 . S
O86 Mn87 2.087 . S
O86 C98 1.256 . S
Mn87 O86 2.087 . S
Mn87 O94 2.089 . S
Mn87 O103 2.290 1_655 S
Mn87 O104 2.251 1_655 S
O88 Mn85 2.160 . S
O88 C99 1.239 . S
O89 Mn85 2.221 . S
O89 Mn90 2.290 . S
O89 C100 1.278 . S
Mn90 O89 2.290 . S
Mn90 O92 2.089 . S
Mn90 O95 2.251 . S
Mn90 O96 2.087 . S
O91 Mn85 2.163 . S
O91 C101 1.244 . S
O92 Mn90 2.089 . S
O92 C99 1.256 . S
O93 Mn85 2.160 1_655 S
O93 C102 1.239 . S
O94 Mn87 2.089 . S
O94 C102 1.256 . S
O95 Mn90 2.251 . S
O95 C100 1.241 . S
O96 Mn90 2.087 . S
O96 C101 1.256 . S
C97 O103 1.278 . S
C97 O104 1.241 . S
C98 O84 1.244 . S
C98 O86 1.256 . S
C99 O88 1.239 . S
C99 O92 1.256 . S
C100 O89 1.278 . S
C100 O95 1.241 . S
C101 O91 1.244 . S
C101 O96 1.256 . S
C102 O93 1.239 . S
C102 O94 1.256 . S
O103 Mn85 2.221 . S
O103 Mn87 2.290 1_455 S
O103 C97 1.278 . S
O104 Mn87 2.251 1_455 S
O104 C97 1.241 . S
O105 Mn106 2.163 . S
O105 C119 1.244 . S
Mn106 O105 2.163 . S
Mn106 O109 2.160 . S
Mn106 O110 2.221 . S
Mn106 O112 2.163 . S
Mn106 O114 2.160 . S
Mn106 O124 2.221 . S
O107 Mn108 2.087 . S
O107 C119 1.256 . S
Mn108 O107 2.087 . S
Mn108 O115 2.089 . S
Mn108 O124 2.290 . S
Mn108 O125 2.251 . S
O109 Mn106 2.160 . S
O109 C120 1.239 . S
O110 Mn106 2.221 . S
O110 Mn111 2.290 . S
O110 C121 1.278 . S
Mn111 O110 2.290 . S
Mn111 O113 2.089 . S
Mn111 O116 2.251 . S
Mn111 O117 2.087 . S
O112 Mn106 2.163 . S
O112 C122 1.244 . S
O113 Mn111 2.089 . S
O113 C120 1.256 . S
O114 Mn106 2.160 . S
O114 C123 1.239 . S
O115 Mn108 2.089 . S
O115 C123 1.256 . S
O116 Mn111 2.251 . S
O116 C121 1.241 . S
O117 Mn111 2.087 . S
O117 C122 1.256 . S
C118 O124 1.278 . S
C118 O125 1.241 . S
C119 O105 1.244 . S
C119 O107 1.256 . S
C120 O109 1.239 . S
C120 O113 1.256 . S
C121 O110 1.278 . S
C121 O116 1.241 . S
C122 O112 1.244 . S
C122 O117 1.256 . S
C123 O114 1.239 . S
C123 O115 1.256 . S
O124 Mn106 2.221 . S
O124 Mn108 2.290 . S
O124 C118 1.278 . S
O125 Mn108 2.251 . S
O125 C118 1.241 . S
O126 Mn127 2.163 . S
O126 C140 1.244 . S
Mn127 O126 2.163 . S
Mn127 O130 2.160 . S
Mn127 O131 2.221 . S
Mn127 O133 2.163 . S
Mn127 O135 2.160 . S
Mn127 O145 2.221 . S
O128 Mn129 2.087 . S
O128 C140 1.256 . S
Mn129 O128 2.087 . S
Mn129 O136 2.089 . S
Mn129 O145 2.290 . S
Mn129 O146 2.251 . S
O130 Mn127 2.160 . S
O130 C141 1.239 . S
O131 Mn127 2.221 . S
O131 Mn132 2.290 . S
O131 C142 1.278 . S
Mn132 O131 2.290 . S
Mn132 O134 2.089 . S
Mn132 O137 2.251 . S
Mn132 O138 2.087 . S
O133 Mn127 2.163 . S
O133 C143 1.244 . S
O134 Mn132 2.089 . S
O134 C141 1.256 . S
O135 Mn127 2.160 . S
O135 C144 1.239 . S
O136 Mn129 2.089 . S
O136 C144 1.256 . S
O137 Mn132 2.251 . S
O137 C142 1.241 . S
O138 Mn132 2.087 . S
O138 C143 1.256 . S
C139 O145 1.278 . S
C139 O146 1.241 . S
C140 O126 1.244 . S
C140 O128 1.256 . S
C141 O130 1.239 . S
C141 O134 1.256 . S
C142 O131 1.278 . S
C142 O137 1.241 . S
C143 O133 1.244 . S
C143 O138 1.256 . S
C144 O135 1.239 . S
C144 O136 1.256 . S
O145 Mn127 2.221 . S
O145 Mn129 2.290 . S
O145 C139 1.278 . S
O146 Mn129 2.251 . S
O146 C139 1.241 . S
O147 Mn148 2.163 . S
O147 C161 1.244 . S
Mn148 O147 2.163 . S
Mn148 O151 2.160 . S
Mn148 O152 2.221 . S
Mn148 O154 2.163 . S
Mn148 O156 2.160 . S
Mn148 O166 2.221 . S
O149 Mn150 2.087 . S
O149 C161 1.256 . S
Mn150 O149 2.087 . S
Mn150 O157 2.089 . S
Mn150 O166 2.290 . S
Mn150 O167 2.251 . S
O151 Mn148 2.160 . S
O151 C162 1.239 . S
O152 Mn148 2.221 . S
O152 Mn153 2.290 . S
O152 C163 1.278 . S
Mn153 O152 2.290 . S
Mn153 O155 2.089 . S
Mn153 O158 2.251 1_556 S
Mn153 O159 2.087 . S
O154 Mn148 2.163 . S
O154 C164 1.244 . S
O155 Mn153 2.089 . S
O155 C162 1.256 . S
O156 Mn148 2.160 . S
O156 C165 1.239 . S
O157 Mn150 2.089 . S
O157 C165 1.256 . S
O158 Mn153 2.251 1_554 S
O158 C163 1.241 1_554 S
O159 Mn153 2.087 . S
O159 C164 1.256 . S
C160 O166 1.278 . S
C160 O167 1.241 . S
C161 O147 1.244 . S
C161 O149 1.256 . S
C162 O151 1.239 . S
C162 O155 1.256 . S
C163 O152 1.278 . S
C163 O158 1.241 1_556 S
C164 O154 1.244 . S
C164 O159 1.256 . S
C165 O156 1.239 . S
C165 O157 1.256 . S
O166 Mn148 2.221 . S
O166 Mn150 2.290 . S
O166 C160 1.278 . S
O167 Mn150 2.251 . S
O167 C160 1.241 . S
O168 Mn169 2.163 1_565 S
O168 C182 1.244 . S
Mn169 O168 2.163 1_545 S
Mn169 O172 2.160 . S
Mn169 O173 2.221 . S
Mn169 O175 2.163 . S
Mn169 O177 2.160 1_545 S
Mn169 O187 2.221 . S
O170 Mn171 2.087 . S
O170 C182 1.256 . S
Mn171 O170 2.087 . S
Mn171 O178 2.089 . S
Mn171 O187 2.290 1_565 S
Mn171 O188 2.251 1_565 S
O172 Mn169 2.160 . S
O172 C183 1.239 . S
O173 Mn169 2.221 . S
O173 Mn174 2.290 . S
O173 C184 1.278 . S
Mn174 O173 2.290 . S
Mn174 O176 2.089 . S
Mn174 O179 2.251 . S
Mn174 O180 2.087 . S
O175 Mn169 2.163 . S
O175 C185 1.244 . S
O176 Mn174 2.089 . S
O176 C183 1.256 . S
O177 Mn169 2.160 1_565 S
O177 C186 1.239 . S
O178 Mn171 2.089 . S
O178 C186 1.256 . S
O179 Mn174 2.251 . S
O179 C184 1.241 . S
O180 Mn174 2.087 . S
O180 C185 1.256 . S
C181 O187 1.278 . S
C181 O188 1.241 . S
C182 O168 1.244 . S
C182 O170 1.256 . S
C183 O172 1.239 . S
C183 O176 1.256 . S
C184 O173 1.278 . S
C184 O179 1.241 . S
C185 O175 1.244 . S
C185 O180 1.256 . S
C186 O177 1.239 . S
C186 O178 1.256 . S
O187 Mn169 2.221 . S
O187 Mn171 2.290 1_545 S
O187 C181 1.278 . S
O188 Mn171 2.251 1_545 S
O188 C181 1.241 . S
O189 Mn190 2.163 . S
O189 C203 1.244 . S
Mn190 O189 2.163 . S
Mn190 O193 2.160 . S
Mn190 O194 2.221 . S
Mn190 O196 2.163 . S
Mn190 O198 2.160 . S
Mn190 O208 2.221 . S
O191 Mn192 2.087 . S
O191 C203 1.256 . S
Mn192 O191 2.087 . S
Mn192 O199 2.089 . S
Mn192 O208 2.290 . S
Mn192 O209 2.251 . S
O193 Mn190 2.160 . S
O193 C204 1.239 . S
O194 Mn190 2.221 . S
O194 Mn195 2.290 . S
O194 C205 1.278 . S
Mn195 O194 2.290 . S
Mn195 O197 2.089 . S
Mn195 O200 2.251 1_545 S
Mn195 O201 2.087 . S
O196 Mn190 2.163 . S
O196 C206 1.244 . S
O197 Mn195 2.089 . S
O197 C204 1.256 . S
O198 Mn190 2.160 . S
O198 C207 1.239 . S
O199 Mn192 2.089 . S
O199 C207 1.256 . S
O200 Mn195 2.251 1_565 S
O200 C205 1.241 1_565 S
O201 Mn195 2.087 . S
O201 C206 1.256 . S
C202 O208 1.278 . S
C202 O209 1.241 . S
C203 O189 1.244 . S
C203 O191 1.256 . S
C204 O193 1.239 . S
C204 O197 1.256 . S
C205 O194 1.278 . S
C205 O200 1.241 1_545 S
C206 O196 1.244 . S
C206 O201 1.256 . S
C207 O198 1.239 . S
C207 O199 1.256 . S
O208 Mn190 2.221 . S
O208 Mn192 2.290 . S
O208 C202 1.278 . S
O209 Mn192 2.251 . S
O209 C202 1.241 . S
O210 Mn211 2.163 1_545 S
O210 C224 1.244 . S
Mn211 O210 2.163 1_565 S
Mn211 O214 2.160 . S
Mn211 O215 2.221 . S
Mn211 O217 2.163 . S
Mn211 O219 2.160 1_565 S
Mn211 O229 2.221 . S
O212 Mn213 2.087 . S
O212 C224 1.256 . S
Mn213 O212 2.087 . S
Mn213 O220 2.089 . S
Mn213 O229 2.290 1_545 S
Mn213 O230 2.251 1_545 S
O214 Mn211 2.160 . S
O214 C225 1.239 . S
O215 Mn211 2.221 . S
O215 Mn216 2.290 . S
O215 C226 1.278 . S
Mn216 O215 2.290 . S
Mn216 O218 2.089 . S
Mn216 O221 2.251 . S
Mn216 O222 2.087 . S
O217 Mn211 2.163 . S
O217 C227 1.244 . S
O218 Mn216 2.089 . S
O218 C225 1.256 . S
O219 Mn211 2.160 1_545 S
O219 C228 1.239 . S
O220 Mn213 2.089 . S
O220 C228 1.256 . S
O221 Mn216 2.251 . S
O221 C226 1.241 . S
O222 Mn216 2.087 . S
O222 C227 1.256 . S
C223 O229 1.278 . S
C223 O230 1.241 . S
C224 O210 1.244 . S
C224 O212 1.256 . S
C225 O214 1.239 . S
C225 O218 1.256 . S
C226 O215 1.278 . S
C226 O221 1.241 . S
C227 O217 1.244 . S
C227 O222 1.256 . S
C228 O219 1.239 . S
C228 O220 1.256 . S
O229 Mn211 2.221 . S
O229 Mn213 2.290 1_565 S
O229 C223 1.278 . S
O230 Mn213 2.251 1_565 S
O230 C223 1.241 . S
O231 Mn232 2.163 . S
O231 C245 1.244 . S
Mn232 O231 2.163 . S
Mn232 O235 2.160 . S
Mn232 O236 2.221 . S
Mn232 O238 2.163 . S
Mn232 O240 2.160 . S
Mn232 O250 2.221 . S
O233 Mn234 2.087 . S
O233 C245 1.256 . S
Mn234 O233 2.087 . S
Mn234 O241 2.089 . S
Mn234 O250 2.290 . S
Mn234 O251 2.251 . S
O235 Mn232 2.160 . S
O235 C246 1.239 . S
O236 Mn232 2.221 . S
O236 Mn237 2.290 . S
O236 C247 1.278 . S
Mn237 O236 2.290 . S
Mn237 O239 2.089 . S
Mn237 O242 2.251 1_565 S
Mn237 O243 2.087 . S
O238 Mn232 2.163 . S
O238 C248 1.244 . S
O239 Mn237 2.089 . S
O239 C246 1.256 . S
O240 Mn232 2.160 . S
O240 C249 1.239 . S
O241 Mn234 2.089 . S
O241 C249 1.256 . S
O242 Mn237 2.251 1_545 S
O242 C247 1.241 1_545 S
O243 Mn237 2.087 . S
O243 C248 1.256 . S
C244 O250 1.278 . S
C244 O251 1.241 . S
C245 O231 1.244 . S
C245 O233 1.256 . S
C246 O235 1.239 . S
C246 O239 1.256 . S
C247 O236 1.278 . S
C247 O242 1.241 1_565 S
C248 O238 1.244 . S
C248 O243 1.256 . S
C249 O240 1.239 . S
C249 O241 1.256 . S
O250 Mn232 2.221 . S
O250 Mn234 2.290 . S
O250 C244 1.278 . S
O251 Mn234 2.251 . S
O251 C244 1.241 . S
O252 Mn253 2.163 1_545 S
O252 C266 1.244 . S
Mn253 O252 2.163 1_565 S
Mn253 O256 2.160 . S
Mn253 O257 2.221 . S
Mn253 O259 2.163 . S
Mn253 O261 2.160 1_565 S
Mn253 O271 2.221 . S
O254 Mn255 2.087 . S
O254 C266 1.256 . S
Mn255 O254 2.087 . S
Mn255 O262 2.089 . S
Mn255 O271 2.290 1_545 S
Mn255 O272 2.251 1_545 S
O256 Mn253 2.160 . S
O256 C267 1.239 . S
O257 Mn253 2.221 . S
O257 Mn258 2.290 . S
O257 C268 1.278 . S
Mn258 O257 2.290 . S
Mn258 O260 2.089 . S
Mn258 O263 2.251 . S
Mn258 O264 2.087 . S
O259 Mn253 2.163 . S
O259 C269 1.244 . S
O260 Mn258 2.089 . S
O260 C267 1.256 . S
O261 Mn253 2.160 1_545 S
O261 C270 1.239 . S
O262 Mn255 2.089 . S
O262 C270 1.256 . S
O263 Mn258 2.251 . S
O263 C268 1.241 . S
O264 Mn258 2.087 . S
O264 C269 1.256 . S
C265 O271 1.278 . S
C265 O272 1.241 . S
C266 O252 1.244 . S
C266 O254 1.256 . S
C267 O256 1.239 . S
C267 O260 1.256 . S
C268 O257 1.278 . S
C268 O263 1.241 . S
C269 O259 1.244 . S
C269 O264 1.256 . S
C270 O261 1.239 . S
C270 O262 1.256 . S
O271 Mn253 2.221 . S
O271 Mn255 2.290 1_565 S
O271 C265 1.278 . S
O272 Mn255 2.251 1_565 S
O272 C265 1.241 . S
O273 Mn274 2.163 . S
O273 C287 1.244 . S
Mn274 O273 2.163 . S
Mn274 O277 2.160 . S
Mn274 O278 2.221 . S
Mn274 O280 2.163 . S
Mn274 O282 2.160 . S
Mn274 O292 2.221 . S
O275 Mn276 2.087 . S
O275 C287 1.256 . S
Mn276 O275 2.087 . S
Mn276 O283 2.089 . S
Mn276 O292 2.290 . S
Mn276 O293 2.251 . S
O277 Mn274 2.160 . S
O277 C288 1.239 . S
O278 Mn274 2.221 . S
O278 Mn279 2.290 . S
O278 C289 1.278 . S
Mn279 O278 2.290 . S
Mn279 O281 2.089 . S
Mn279 O284 2.251 1_545 S
Mn279 O285 2.087 . S
O280 Mn274 2.163 . S
O280 C290 1.244 . S
O281 Mn279 2.089 . S
O281 C288 1.256 . S
O282 Mn274 2.160 . S
O282 C291 1.239 . S
O283 Mn276 2.089 . S
O283 C291 1.256 . S
O284 Mn279 2.251 1_565 S
O284 C289 1.241 1_565 S
O285 Mn279 2.087 . S
O285 C290 1.256 . S
C286 O292 1.278 . S
C286 O293 1.241 . S
C287 O273 1.244 . S
C287 O275 1.256 . S
C288 O277 1.239 . S
C288 O281 1.256 . S
C289 O278 1.278 . S
C289 O284 1.241 1_545 S
C290 O280 1.244 . S
C290 O285 1.256 . S
C291 O282 1.239 . S
C291 O283 1.256 . S
O292 Mn274 2.221 . S
O292 Mn276 2.290 . S
O292 C286 1.278 . S
O293 Mn276 2.251 . S
O293 C286 1.241 . S
O294 Mn295 2.163 1_565 S
O294 C308 1.244 . S
Mn295 O294 2.163 1_545 S
Mn295 O298 2.160 . S
Mn295 O299 2.221 . S
Mn295 O301 2.163 . S
Mn295 O303 2.160 1_545 S
Mn295 O313 2.221 . S
O296 Mn297 2.087 . S
O296 C308 1.256 . S
Mn297 O296 2.087 . S
Mn297 O304 2.089 . S
Mn297 O313 2.290 1_565 S
Mn297 O314 2.251 1_565 S
O298 Mn295 2.160 . S
O298 C309 1.239 . S
O299 Mn295 2.221 . S
O299 Mn300 2.290 . S
O299 C310 1.278 . S
Mn300 O299 2.290 . S
Mn300 O302 2.089 . S
Mn300 O305 2.251 . S
Mn300 O306 2.087 . S
O301 Mn295 2.163 . S
O301 C311 1.244 . S
O302 Mn300 2.089 . S
O302 C309 1.256 . S
O303 Mn295 2.160 1_565 S
O303 C312 1.239 . S
O304 Mn297 2.089 . S
O304 C312 1.256 . S
O305 Mn300 2.251 . S
O305 C310 1.241 . S
O306 Mn300 2.087 . S
O306 C311 1.256 . S
C307 O313 1.278 . S
C307 O314 1.241 . S
C308 O294 1.244 . S
C308 O296 1.256 . S
C309 O298 1.239 . S
C309 O302 1.256 . S
C310 O299 1.278 . S
C310 O305 1.241 . S
C311 O301 1.244 . S
C311 O306 1.256 . S
C312 O303 1.239 . S
C312 O304 1.256 . S
O313 Mn295 2.221 . S
O313 Mn297 2.290 1_545 S
O313 C307 1.278 . S
O314 Mn297 2.251 1_545 S
O314 C307 1.241 . S
O315 Mn316 2.163 . S
O315 C329 1.244 . S
Mn316 O315 2.163 . S
Mn316 O319 2.160 . S
Mn316 O320 2.221 . S
Mn316 O322 2.163 . S
Mn316 O324 2.160 . S
Mn316 O334 2.221 . S
O317 Mn318 2.087 . S
O317 C329 1.256 . S
Mn318 O317 2.087 . S
Mn318 O325 2.089 . S
Mn318 O334 2.290 . S
Mn318 O335 2.251 . S
O319 Mn316 2.160 . S
O319 C330 1.239 . S
O320 Mn316 2.221 . S
O320 Mn321 2.290 . S
O320 C331 1.278 . S
Mn321 O320 2.290 . S
Mn321 O323 2.089 . S
Mn321 O326 2.251 1_565 S
Mn321 O327 2.087 . S
O322 Mn316 2.163 . S
O322 C332 1.244 . S
O323 Mn321 2.089 . S
O323 C330 1.256 . S
O324 Mn316 2.160 . S
O324 C333 1.239 . S
O325 Mn318 2.089 . S
O325 C333 1.256 . S
O326 Mn321 2.251 1_545 S
O326 C331 1.241 1_545 S
O327 Mn321 2.087 . S
O327 C332 1.256 . S
C328 O334 1.278 . S
C328 O335 1.241 . S
C329 O315 1.244 . S
C329 O317 1.256 . S
C330 O319 1.239 . S
C330 O323 1.256 . S
C331 O320 1.278 . S
C331 O326 1.241 1_565 S
C332 O322 1.244 . S
C332 O327 1.256 . S
C333 O324 1.239 . S
C333 O325 1.256 . S
O334 Mn316 2.221 . S
O334 Mn318 2.290 . S
O334 C328 1.278 . S
O335 Mn318 2.251 . S
O335 C328 1.241 . S
O336 Mn337 2.163 1_556 S
O336 C350 1.244 . S
Mn337 O336 2.163 1_554 S
Mn337 O340 2.160 . S
Mn337 O341 2.221 . S
Mn337 O343 2.163 . S
Mn337 O345 2.160 1_554 S
Mn337 O355 2.221 . S
O338 Mn339 2.087 . S
O338 C350 1.256 . S
Mn339 O338 2.087 . S
Mn339 O346 2.089 . S
Mn339 O355 2.290 1_556 S
Mn339 O356 2.251 1_556 S
O340 Mn337 2.160 . S
O340 C351 1.239 . S
O341 Mn337 2.221 . S
O341 Mn342 2.290 . S
O341 C352 1.278 . S
Mn342 O341 2.290 . S
Mn342 O344 2.089 . S
Mn342 O347 2.251 . S
Mn342 O348 2.087 . S
O343 Mn337 2.163 . S
O343 C353 1.244 . S
O344 Mn342 2.089 . S
O344 C351 1.256 . S
O345 Mn337 2.160 1_556 S
O345 C354 1.239 . S
O346 Mn339 2.089 . S
O346 C354 1.256 . S
O347 Mn342 2.251 . S
O347 C352 1.241 . S
O348 Mn342 2.087 . S
O348 C353 1.256 . S
C349 O355 1.278 . S
C349 O356 1.241 . S
C350 O336 1.244 . S
C350 O338 1.256 . S
C351 O340 1.239 . S
C351 O344 1.256 . S
C352 O341 1.278 . S
C352 O347 1.241 . S
C353 O343 1.244 . S
C353 O348 1.256 . S
C354 O345 1.239 . S
C354 O346 1.256 . S
O355 Mn337 2.221 . S
O355 Mn339 2.290 1_554 S
O355 C349 1.278 . S
O356 Mn339 2.251 1_554 S
O356 C349 1.241 . S
O357 Mn358 2.163 1_554 S
O357 C371 1.244 . S
Mn358 O357 2.163 1_556 S
Mn358 O361 2.160 . S
Mn358 O362 2.221 . S
Mn358 O364 2.163 . S
Mn358 O366 2.160 1_556 S
Mn358 O376 2.221 . S
O359 Mn360 2.087 . S
O359 C371 1.256 . S
Mn360 O359 2.087 . S
Mn360 O367 2.089 . S
Mn360 O376 2.290 1_554 S
Mn360 O377 2.251 1_554 S
O361 Mn358 2.160 . S
O361 C372 1.239 . S
O362 Mn358 2.221 . S
O362 Mn363 2.290 . S
O362 C373 1.278 . S
Mn363 O362 2.290 . S
Mn363 O365 2.089 . S
Mn363 O368 2.251 . S
Mn363 O369 2.087 . S
O364 Mn358 2.163 . S
O364 C374 1.244 . S
O365 Mn363 2.089 . S
O365 C372 1.256 . S
O366 Mn358 2.160 1_554 S
O366 C375 1.239 . S
O367 Mn360 2.089 . S
O367 C375 1.256 . S
O368 Mn363 2.251 . S
O368 C373 1.241 . S
O369 Mn363 2.087 . S
O369 C374 1.256 . S
C370 O376 1.278 . S
C370 O377 1.241 . S
C371 O357 1.244 . S
C371 O359 1.256 . S
C372 O361 1.239 . S
C372 O365 1.256 . S
C373 O362 1.278 . S
C373 O368 1.241 . S
C374 O364 1.244 . S
C374 O369 1.256 . S
C375 O366 1.239 . S
C375 O367 1.256 . S
O376 Mn358 2.221 . S
O376 Mn360 2.290 1_556 S
O376 C370 1.278 . S
O377 Mn360 2.251 1_556 S
O377 C370 1.241 . S
O378 Mn379 2.163 . S
O378 C392 1.244 . S
Mn379 O378 2.163 . S
Mn379 O382 2.160 . S
Mn379 O383 2.221 . S
Mn379 O385 2.163 . S
Mn379 O387 2.160 . S
Mn379 O397 2.221 . S
O380 Mn381 2.087 . S
O380 C392 1.256 . S
Mn381 O380 2.087 . S
Mn381 O388 2.089 . S
Mn381 O397 2.290 . S
Mn381 O398 2.251 . S
O382 Mn379 2.160 . S
O382 C393 1.239 . S
O383 Mn379 2.221 . S
O383 Mn384 2.290 . S
O383 C394 1.278 . S
Mn384 O383 2.290 . S
Mn384 O386 2.089 . S
Mn384 O389 2.251 1_455 S
Mn384 O390 2.087 . S
O385 Mn379 2.163 . S
O385 C395 1.244 . S
O386 Mn384 2.089 . S
O386 C393 1.256 . S
O387 Mn379 2.160 . S
O387 C396 1.239 . S
O388 Mn381 2.089 . S
O388 C396 1.256 . S
O389 Mn384 2.251 1_655 S
O389 C394 1.241 1_655 S
O390 Mn384 2.087 . S
O390 C395 1.256 . S
C391 O397 1.278 . S
C391 O398 1.241 . S
C392 O378 1.244 . S
C392 O380 1.256 . S
C393 O382 1.239 . S
C393 O386 1.256 . S
C394 O383 1.278 . S
C394 O389 1.241 1_455 S
C395 O385 1.244 . S
C395 O390 1.256 . S
C396 O387 1.239 . S
C396 O388 1.256 . S
O397 Mn379 2.221 . S
O397 Mn381 2.290 . S
O397 C391 1.278 . S
O398 Mn381 2.251 . S
O398 C391 1.241 . S
O399 Mn400 2.163 . S
O399 C413 1.244 . S
Mn400 O399 2.163 . S
Mn400 O403 2.160 . S
Mn400 O404 2.221 . S
Mn400 O406 2.163 . S
Mn400 O408 2.160 . S
Mn400 O418 2.221 . S
O401 Mn402 2.087 . S
O401 C413 1.256 . S
Mn402 O401 2.087 . S
Mn402 O409 2.089 . S
Mn402 O418 2.290 . S
Mn402 O419 2.251 . S
O403 Mn400 2.160 . S
O403 C414 1.239 . S
O404 Mn400 2.221 . S
O404 Mn405 2.290 . S
O404 C415 1.278 . S
Mn405 O404 2.290 . S
Mn405 O407 2.089 . S
Mn405 O410 2.251 . S
Mn405 O411 2.087 . S
O406 Mn400 2.163 . S
O406 C416 1.244 . S
O407 Mn405 2.089 . S
O407 C414 1.256 . S
O408 Mn400 2.160 . S
O408 C417 1.239 . S
O409 Mn402 2.089 . S
O409 C417 1.256 . S
O410 Mn405 2.251 . S
O410 C415 1.241 . S
O411 Mn405 2.087 . S
O411 C416 1.256 . S
C412 O418 1.278 . S
C412 O419 1.241 . S
C413 O399 1.244 . S
C413 O401 1.256 . S
C414 O403 1.239 . S
C414 O407 1.256 . S
C415 O404 1.278 . S
C415 O410 1.241 . S
C416 O406 1.244 . S
C416 O411 1.256 . S
C417 O408 1.239 . S
C417 O409 1.256 . S
O418 Mn400 2.221 . S
O418 Mn402 2.290 . S
O418 C412 1.278 . S
O419 Mn402 2.251 . S
O419 C412 1.241 . S
O420 Mn421 2.163 . S
O420 C434 1.244 . S
Mn421 O420 2.163 . S
Mn421 O424 2.160 . S
Mn421 O425 2.221 . S
Mn421 O427 2.163 . S
Mn421 O429 2.160 . S
Mn421 O439 2.221 . S
O422 Mn423 2.087 . S
O422 C434 1.256 . S
Mn423 O422 2.087 . S
Mn423 O430 2.089 . S
Mn423 O439 2.290 . S
Mn423 O440 2.251 . S
O424 Mn421 2.160 . S
O424 C435 1.239 . S
O425 Mn421 2.221 . S
O425 Mn426 2.290 . S
O425 C436 1.278 . S
Mn426 O425 2.290 . S
Mn426 O428 2.089 . S
Mn426 O431 2.251 1_655 S
Mn426 O432 2.087 . S
O427 Mn421 2.163 . S
O427 C437 1.244 . S
O428 Mn426 2.089 . S
O428 C435 1.256 . S
O429 Mn421 2.160 . S
O429 C438 1.239 . S
O430 Mn423 2.089 . S
O430 C438 1.256 . S
O431 Mn426 2.251 1_455 S
O431 C436 1.241 1_455 S
O432 Mn426 2.087 . S
O432 C437 1.256 . S
C433 O439 1.278 . S
C433 O440 1.241 . S
C434 O420 1.244 . S
C434 O422 1.256 . S
C435 O424 1.239 . S
C435 O428 1.256 . S
C436 O425 1.278 . S
C436 O431 1.241 1_655 S
C437 O427 1.244 . S
C437 O432 1.256 . S
C438 O429 1.239 . S
C438 O430 1.256 . S
O439 Mn421 2.221 . S
O439 Mn423 2.290 . S
O439 C433 1.278 . S
O440 Mn423 2.251 . S
O440 C433 1.241 . S
O441 Mn442 2.163 . S
O441 C455 1.244 . S
Mn442 O441 2.163 . S
Mn442 O445 2.160 . S
Mn442 O446 2.221 . S
Mn442 O448 2.163 . S
Mn442 O450 2.160 . S
Mn442 O460 2.221 . S
O443 Mn444 2.087 . S
O443 C455 1.256 . S
Mn444 O443 2.087 . S
Mn444 O451 2.089 . S
Mn444 O460 2.290 . S
Mn444 O461 2.251 . S
O445 Mn442 2.160 . S
O445 C456 1.239 . S
O446 Mn442 2.221 . S
O446 Mn447 2.290 . S
O446 C457 1.278 . S
Mn447 O446 2.290 . S
Mn447 O449 2.089 . S
Mn447 O452 2.251 . S
Mn447 O453 2.087 . S
O448 Mn442 2.163 . S
O448 C458 1.244 . S
O449 Mn447 2.089 . S
O449 C456 1.256 . S
O450 Mn442 2.160 . S
O450 C459 1.239 . S
O451 Mn444 2.089 . S
O451 C459 1.256 . S
O452 Mn447 2.251 . S
O452 C457 1.241 . S
O453 Mn447 2.087 . S
O453 C458 1.256 . S
C454 O460 1.278 . S
C454 O461 1.241 . S
C455 O441 1.244 . S
C455 O443 1.256 . S
C456 O445 1.239 . S
C456 O449 1.256 . S
C457 O446 1.278 . S
C457 O452 1.241 . S
C458 O448 1.244 . S
C458 O453 1.256 . S
C459 O450 1.239 . S
C459 O451 1.256 . S
O460 Mn442 2.221 . S
O460 Mn444 2.290 . S
O460 C454 1.278 . S
O461 Mn444 2.251 . S
O461 C454 1.241 . S
O462 Mn463 2.163 . S
O462 C476 1.244 . S
Mn463 O462 2.163 . S
Mn463 O466 2.160 . S
Mn463 O467 2.221 . S
Mn463 O469 2.163 . S
Mn463 O471 2.160 . S
Mn463 O481 2.221 . S
O464 Mn465 2.087 . S
O464 C476 1.256 . S
Mn465 O464 2.087 . S
Mn465 O472 2.089 . S
Mn465 O481 2.290 . S
Mn465 O482 2.251 . S
O466 Mn463 2.160 . S
O466 C477 1.239 . S
O467 Mn463 2.221 . S
O467 Mn468 2.290 . S
O467 C478 1.278 . S
Mn468 O467 2.290 . S
Mn468 O470 2.089 . S
Mn468 O473 2.251 1_455 S
Mn468 O474 2.087 . S
O469 Mn463 2.163 . S
O469 C479 1.244 . S
O470 Mn468 2.089 . S
O470 C477 1.256 . S
O471 Mn463 2.160 . S
O471 C480 1.239 . S
O472 Mn465 2.089 . S
O472 C480 1.256 . S
O473 Mn468 2.251 1_655 S
O473 C478 1.241 1_655 S
O474 Mn468 2.087 . S
O474 C479 1.256 . S
C475 O481 1.278 . S
C475 O482 1.241 . S
C476 O462 1.244 . S
C476 O464 1.256 . S
C477 O466 1.239 . S
C477 O470 1.256 . S
C478 O467 1.278 . S
C478 O473 1.241 1_455 S
C479 O469 1.244 . S
C479 O474 1.256 . S
C480 O471 1.239 . S
C480 O472 1.256 . S
O481 Mn463 2.221 . S
O481 Mn465 2.290 . S
O481 C475 1.278 . S
O482 Mn465 2.251 . S
O482 C475 1.241 . S
O483 Mn484 2.163 . S
O483 C497 1.244 . S
Mn484 O483 2.163 . S
Mn484 O487 2.160 . S
Mn484 O488 2.221 . S
Mn484 O490 2.163 . S
Mn484 O492 2.160 . S
Mn484 O502 2.221 . S
O485 Mn486 2.087 . S
O485 C497 1.256 . S
Mn486 O485 2.087 . S
Mn486 O493 2.089 . S
Mn486 O502 2.290 . S
Mn486 O503 2.251 . S
O487 Mn484 2.160 . S
O487 C498 1.239 . S
O488 Mn484 2.221 . S
O488 Mn489 2.290 . S
O488 C499 1.278 . S
Mn489 O488 2.290 . S
Mn489 O491 2.089 . S
Mn489 O494 2.251 . S
Mn489 O495 2.087 . S
O490 Mn484 2.163 . S
O490 C500 1.244 . S
O491 Mn489 2.089 . S
O491 C498 1.256 . S
O492 Mn484 2.160 . S
O492 C501 1.239 . S
O493 Mn486 2.089 . S
O493 C501 1.256 . S
O494 Mn489 2.251 . S
O494 C499 1.241 . S
O495 Mn489 2.087 . S
O495 C500 1.256 . S
C496 O502 1.278 . S
C496 O503 1.241 . S
C497 O483 1.244 . S
C497 O485 1.256 . S
C498 O487 1.239 . S
C498 O491 1.256 . S
C499 O488 1.278 . S
C499 O494 1.241 . S
C500 O490 1.244 . S
C500 O495 1.256 . S
C501 O492 1.239 . S
C501 O493 1.256 . S
O502 Mn484 2.221 . S
O502 Mn486 2.290 . S
O502 C496 1.278 . S
O503 Mn486 2.251 . S
O503 C496 1.241 . S
O504 Mn505 2.163 1_455 S
O504 C518 1.244 . S
Mn505 O504 2.163 1_655 S
Mn505 O508 2.160 . S
Mn505 O509 2.221 . S
Mn505 O511 2.163 . S
Mn505 O513 2.160 1_655 S
Mn505 O523 2.221 . S
O506 Mn507 2.087 . S
O506 C518 1.256 . S
Mn507 O506 2.087 . S
Mn507 O514 2.089 . S
Mn507 O523 2.290 1_455 S
Mn507 O524 2.251 1_455 S
O508 Mn505 2.160 . S
O508 C519 1.239 . S
O509 Mn505 2.221 . S
O509 Mn510 2.290 . S
O509 C520 1.278 . S
Mn510 O509 2.290 . S
Mn510 O512 2.089 . S
Mn510 O515 2.251 . S
Mn510 O516 2.087 . S
O511 Mn505 2.163 . S
O511 C521 1.244 . S
O512 Mn510 2.089 . S
O512 C519 1.256 . S
O513 Mn505 2.160 1_455 S
O513 C522 1.239 . S
O514 Mn507 2.089 . S
O514 C522 1.256 . S
O515 Mn510 2.251 . S
O515 C520 1.241 . S
O516 Mn510 2.087 . S
O516 C521 1.256 . S
C517 O523 1.278 . S
C517 O524 1.241 . S
C518 O504 1.244 . S
C518 O506 1.256 . S
C519 O508 1.239 . S
C519 O512 1.256 . S
C520 O509 1.278 . S
C520 O515 1.241 . S
C521 O511 1.244 . S
C521 O516 1.256 . S
C522 O513 1.239 . S
C522 O514 1.256 . S
O523 Mn505 2.221 . S
O523 Mn507 2.290 1_655 S
O523 C517 1.278 . S
O524 Mn507 2.251 1_655 S
O524 C517 1.241 . S
O525 Mn526 2.163 . S
O525 C539 1.244 . S
Mn526 O525 2.163 . S
Mn526 O529 2.160 . S
Mn526 O530 2.221 . S
Mn526 O532 2.163 . S
Mn526 O534 2.160 . S
Mn526 O544 2.221 . S
O527 Mn528 2.087 . S
O527 C539 1.256 . S
Mn528 O527 2.087 . S
Mn528 O535 2.089 . S
Mn528 O544 2.290 . S
Mn528 O545 2.251 . S
O529 Mn526 2.160 . S
O529 C540 1.239 . S
O530 Mn526 2.221 . S
O530 Mn531 2.290 . S
O530 C541 1.278 . S
Mn531 O530 2.290 . S
Mn531 O533 2.089 . S
Mn531 O536 2.251 . S
Mn531 O537 2.087 . S
O532 Mn526 2.163 . S
O532 C542 1.244 . S
O533 Mn531 2.089 . S
O533 C540 1.256 . S
O534 Mn526 2.160 . S
O534 C543 1.239 . S
O535 Mn528 2.089 . S
O535 C543 1.256 . S
O536 Mn531 2.251 . S
O536 C541 1.241 . S
O537 Mn531 2.087 . S
O537 C542 1.256 . S
C538 O544 1.278 . S
C538 O545 1.241 . S
C539 O525 1.244 . S
C539 O527 1.256 . S
C540 O529 1.239 . S
C540 O533 1.256 . S
C541 O530 1.278 . S
C541 O536 1.241 . S
C542 O532 1.244 . S
C542 O537 1.256 . S
C543 O534 1.239 . S
C543 O535 1.256 . S
O544 Mn526 2.221 . S
O544 Mn528 2.290 . S
O544 C538 1.278 . S
O545 Mn528 2.251 . S
O545 C538 1.241 . S
O546 Mn547 2.163 . S
O546 C560 1.244 . S
Mn547 O546 2.163 . S
Mn547 O550 2.160 . S
Mn547 O551 2.221 . S
Mn547 O553 2.163 . S
Mn547 O555 2.160 . S
Mn547 O565 2.221 . S
O548 Mn549 2.087 . S
O548 C560 1.256 . S
Mn549 O548 2.087 . S
Mn549 O556 2.089 . S
Mn549 O565 2.290 . S
Mn549 O566 2.251 . S
O550 Mn547 2.160 . S
O550 C561 1.239 . S
O551 Mn547 2.221 . S
O551 Mn552 2.290 . S
O551 C562 1.278 . S
Mn552 O551 2.290 . S
Mn552 O554 2.089 . S
Mn552 O557 2.251 . S
Mn552 O558 2.087 . S
O553 Mn547 2.163 . S
O553 C563 1.244 . S
O554 Mn552 2.089 . S
O554 C561 1.256 . S
O555 Mn547 2.160 . S
O555 C564 1.239 . S
O556 Mn549 2.089 . S
O556 C564 1.256 . S
O557 Mn552 2.251 . S
O557 C562 1.241 . S
O558 Mn552 2.087 . S
O558 C563 1.256 . S
C559 O565 1.278 . S
C559 O566 1.241 . S
C560 O546 1.244 . S
C560 O548 1.256 . S
C561 O550 1.239 . S
C561 O554 1.256 . S
C562 O551 1.278 . S
C562 O557 1.241 . S
C563 O553 1.244 . S
C563 O558 1.256 . S
C564 O555 1.239 . S
C564 O556 1.256 . S
O565 Mn547 2.221 . S
O565 Mn549 2.290 . S
O565 C559 1.278 . S
O566 Mn549 2.251 . S
O566 C559 1.241 . S
O567 Mn568 2.163 . S
O567 C581 1.244 . S
Mn568 O567 2.163 . S
Mn568 O571 2.160 . S
Mn568 O572 2.221 . S
Mn568 O574 2.163 . S
Mn568 O576 2.160 . S
Mn568 O586 2.221 . S
O569 Mn570 2.087 . S
O569 C581 1.256 . S
Mn570 O569 2.087 . S
Mn570 O577 2.089 . S
Mn570 O586 2.290 . S
Mn570 O587 2.251 1_556 S
O571 Mn568 2.160 . S
O571 C582 1.239 . S
O572 Mn568 2.221 . S
O572 Mn573 2.290 . S
O572 C583 1.278 . S
Mn573 O572 2.290 . S
Mn573 O575 2.089 . S
Mn573 O578 2.251 . S
Mn573 O579 2.087 . S
O574 Mn568 2.163 . S
O574 C584 1.244 . S
O575 Mn573 2.089 . S
O575 C582 1.256 . S
O576 Mn568 2.160 . S
O576 C585 1.239 . S
O577 Mn570 2.089 . S
O577 C585 1.256 . S
O578 Mn573 2.251 . S
O578 C583 1.241 . S
O579 Mn573 2.087 . S
O579 C584 1.256 . S
C580 O586 1.278 . S
C580 O587 1.241 1_556 S
C581 O567 1.244 . S
C581 O569 1.256 . S
C582 O571 1.239 . S
C582 O575 1.256 . S
C583 O572 1.278 . S
C583 O578 1.241 . S
C584 O574 1.244 . S
C584 O579 1.256 . S
C585 O576 1.239 . S
C585 O577 1.256 . S
O586 Mn568 2.221 . S
O586 Mn570 2.290 . S
O586 C580 1.278 . S
O587 Mn570 2.251 1_554 S
O587 C580 1.241 1_554 S
O588 Mn589 2.163 1_455 S
O588 C602 1.244 . S
Mn589 O588 2.163 1_655 S
Mn589 O592 2.160 . S
Mn589 O593 2.221 . S
Mn589 O595 2.163 . S
Mn589 O597 2.160 1_655 S
Mn589 O607 2.221 . S
O590 Mn591 2.087 . S
O590 C602 1.256 . S
Mn591 O590 2.087 . S
Mn591 O598 2.089 . S
Mn591 O607 2.290 1_455 S
Mn591 O608 2.251 1_455 S
O592 Mn589 2.160 . S
O592 C603 1.239 . S
O593 Mn589 2.221 . S
O593 Mn594 2.290 . S
O593 C604 1.278 . S
Mn594 O593 2.290 . S
Mn594 O596 2.089 . S
Mn594 O599 2.251 . S
Mn594 O600 2.087 . S
O595 Mn589 2.163 . S
O595 C605 1.244 . S
O596 Mn594 2.089 . S
O596 C603 1.256 . S
O597 Mn589 2.160 1_455 S
O597 C606 1.239 . S
O598 Mn591 2.089 . S
O598 C606 1.256 . S
O599 Mn594 2.251 . S
O599 C604 1.241 . S
O600 Mn594 2.087 . S
O600 C605 1.256 . S
C601 O607 1.278 . S
C601 O608 1.241 . S
C602 O588 1.244 . S
C602 O590 1.256 . S
C603 O592 1.239 . S
C603 O596 1.256 . S
C604 O593 1.278 . S
C604 O599 1.241 . S
C605 O595 1.244 . S
C605 O600 1.256 . S
C606 O597 1.239 . S
C606 O598 1.256 . S
O607 Mn589 2.221 . S
O607 Mn591 2.290 1_655 S
O607 C601 1.278 . S
O608 Mn591 2.251 1_655 S
O608 C601 1.241 . S
O609 Mn610 2.163 . S
O609 C623 1.244 . S
Mn610 O609 2.163 . S
Mn610 O613 2.160 . S
Mn610 O614 2.221 . S
Mn610 O616 2.163 . S
Mn610 O618 2.160 . S
Mn610 O628 2.221 . S
O611 Mn612 2.087 . S
O611 C623 1.256 . S
Mn612 O611 2.087 . S
Mn612 O619 2.089 . S
Mn612 O628 2.290 . S
Mn612 O629 2.251 . S
O613 Mn610 2.160 . S
O613 C624 1.239 . S
O614 Mn610 2.221 . S
O614 Mn615 2.290 . S
O614 C625 1.278 . S
Mn615 O614 2.290 . S
Mn615 O617 2.089 . S
Mn615 O620 2.251 . S
Mn615 O621 2.087 . S
O616 Mn610 2.163 . S
O616 C626 1.244 . S
O617 Mn615 2.089 . S
O617 C624 1.256 . S
O618 Mn610 2.160 . S
O618 C627 1.239 . S
O619 Mn612 2.089 . S
O619 C627 1.256 . S
O620 Mn615 2.251 . S
O620 C625 1.241 . S
O621 Mn615 2.087 . S
O621 C626 1.256 . S
C622 O628 1.278 . S
C622 O629 1.241 . S
C623 O609 1.244 . S
C623 O611 1.256 . S
C624 O613 1.239 . S
C624 O617 1.256 . S
C625 O614 1.278 . S
C625 O620 1.241 . S
C626 O616 1.244 . S
C626 O621 1.256 . S
C627 O618 1.239 . S
C627 O619 1.256 . S
O628 Mn610 2.221 . S
O628 Mn612 2.290 . S
O628 C622 1.278 . S
O629 Mn612 2.251 . S
O629 C622 1.241 . S
O630 Mn631 2.163 . S
O630 C644 1.244 . S
Mn631 O630 2.163 . S
Mn631 O634 2.160 . S
Mn631 O635 2.221 . S
Mn631 O637 2.163 . S
Mn631 O639 2.160 . S
Mn631 O649 2.221 . S
O632 Mn633 2.087 . S
O632 C644 1.256 . S
Mn633 O632 2.087 . S
Mn633 O640 2.089 . S
Mn633 O649 2.290 . S
Mn633 O650 2.251 . S
O634 Mn631 2.160 . S
O634 C645 1.239 . S
O635 Mn631 2.221 . S
O635 Mn636 2.290 . S
O635 C646 1.278 . S
Mn636 O635 2.290 . S
Mn636 O638 2.089 . S
Mn636 O641 2.251 . S
Mn636 O642 2.087 . S
O637 Mn631 2.163 . S
O637 C647 1.244 . S
O638 Mn636 2.089 . S
O638 C645 1.256 . S
O639 Mn631 2.160 . S
O639 C648 1.239 . S
O640 Mn633 2.089 . S
O640 C648 1.256 . S
O641 Mn636 2.251 . S
O641 C646 1.241 . S
O642 Mn636 2.087 . S
O642 C647 1.256 . S
C643 O649 1.278 . S
C643 O650 1.241 . S
C644 O630 1.244 . S
C644 O632 1.256 . S
C645 O634 1.239 . S
C645 O638 1.256 . S
C646 O635 1.278 . S
C646 O641 1.241 . S
C647 O637 1.244 . S
C647 O642 1.256 . S
C648 O639 1.239 . S
C648 O640 1.256 . S
O649 Mn631 2.221 . S
O649 Mn633 2.290 . S
O649 C643 1.278 . S
O650 Mn633 2.251 . S
O650 C643 1.241 . S
O651 Mn652 2.163 . S
O651 C665 1.244 . S
Mn652 O651 2.163 . S
Mn652 O655 2.160 . S
Mn652 O656 2.221 . S
Mn652 O658 2.163 . S
Mn652 O660 2.160 . S
Mn652 O670 2.221 . S
O653 Mn654 2.087 . S
O653 C665 1.256 . S
Mn654 O653 2.087 . S
Mn654 O661 2.089 . S
Mn654 O670 2.290 . S
Mn654 O671 2.251 1_554 S
O655 Mn652 2.160 . S
O655 C666 1.239 . S
O656 Mn652 2.221 . S
O656 Mn657 2.290 . S
O656 C667 1.278 . S
Mn657 O656 2.290 . S
Mn657 O659 2.089 . S
Mn657 O662 2.251 . S
Mn657 O663 2.087 . S
O658 Mn652 2.163 . S
O658 C668 1.244 . S
O659 Mn657 2.089 . S
O659 C666 1.256 . S
O660 Mn652 2.160 . S
O660 C669 1.239 . S
O661 Mn654 2.089 . S
O661 C669 1.256 . S
O662 Mn657 2.251 . S
O662 C667 1.241 . S
O663 Mn657 2.087 . S
O663 C668 1.256 . S
C664 O670 1.278 . S
C664 O671 1.241 1_554 S
C665 O651 1.244 . S
C665 O653 1.256 . S
C666 O655 1.239 . S
C666 O659 1.256 . S
C667 O656 1.278 . S
C667 O662 1.241 . S
C668 O658 1.244 . S
C668 O663 1.256 . S
C669 O660 1.239 . S
C669 O661 1.256 . S
O670 Mn652 2.221 . S
O670 Mn654 2.290 . S
O670 C664 1.278 . S
O671 Mn654 2.251 1_556 S
O671 C664 1.241 1_556 S
O672 Mn673 2.163 1_545 S
O672 C686 1.244 . S
Mn673 O672 2.163 1_565 S
Mn673 O676 2.160 . S
Mn673 O677 2.221 . S
Mn673 O679 2.163 . S
Mn673 O681 2.160 1_565 S
Mn673 O691 2.221 . S
O674 Mn675 2.087 . S
O674 C686 1.256 . S
Mn675 O674 2.087 . S
Mn675 O682 2.089 . S
Mn675 O691 2.290 1_545 S
Mn675 O692 2.251 1_545 S
O676 Mn673 2.160 . S
O676 C687 1.239 . S
O677 Mn673 2.221 . S
O677 Mn678 2.290 . S
O677 C688 1.278 . S
Mn678 O677 2.290 . S
Mn678 O680 2.089 . S
Mn678 O683 2.251 . S
Mn678 O684 2.087 . S
O679 Mn673 2.163 . S
O679 C689 1.244 . S
O680 Mn678 2.089 . S
O680 C687 1.256 . S
O681 Mn673 2.160 1_545 S
O681 C690 1.239 . S
O682 Mn675 2.089 . S
O682 C690 1.256 . S
O683 Mn678 2.251 . S
O683 C688 1.241 . S
O684 Mn678 2.087 . S
O684 C689 1.256 . S
C685 O691 1.278 . S
C685 O692 1.241 . S
C686 O672 1.244 . S
C686 O674 1.256 . S
C687 O676 1.239 . S
C687 O680 1.256 . S
C688 O677 1.278 . S
C688 O683 1.241 . S
C689 O679 1.244 . S
C689 O684 1.256 . S
C690 O681 1.239 . S
C690 O682 1.256 . S
O691 Mn673 2.221 . S
O691 Mn675 2.290 1_565 S
O691 C685 1.278 . S
O692 Mn675 2.251 1_565 S
O692 C685 1.241 . S
O693 Mn694 2.163 . S
O693 C707 1.244 . S
Mn694 O693 2.163 . S
Mn694 O697 2.160 . S
Mn694 O698 2.221 . S
Mn694 O700 2.163 . S
Mn694 O702 2.160 . S
Mn694 O712 2.221 . S
O695 Mn696 2.087 . S
O695 C707 1.256 . S
Mn696 O695 2.087 . S
Mn696 O703 2.089 . S
Mn696 O712 2.290 . S
Mn696 O713 2.251 . S
O697 Mn694 2.160 . S
O697 C708 1.239 . S
O698 Mn694 2.221 . S
O698 Mn699 2.290 . S
O698 C709 1.278 . S
Mn699 O698 2.290 . S
Mn699 O701 2.089 . S
Mn699 O704 2.251 1_565 S
Mn699 O705 2.087 . S
O700 Mn694 2.163 . S
O700 C710 1.244 . S
O701 Mn699 2.089 . S
O701 C708 1.256 . S
O702 Mn694 2.160 . S
O702 C711 1.239 . S
O703 Mn696 2.089 . S
O703 C711 1.256 . S
O704 Mn699 2.251 1_545 S
O704 C709 1.241 1_545 S
O705 Mn699 2.087 . S
O705 C710 1.256 . S
C706 O712 1.278 . S
C706 O713 1.241 . S
C707 O693 1.244 . S
C707 O695 1.256 . S
C708 O697 1.239 . S
C708 O701 1.256 . S
C709 O698 1.278 . S
C709 O704 1.241 1_565 S
C710 O700 1.244 . S
C710 O705 1.256 . S
C711 O702 1.239 . S
C711 O703 1.256 . S
O712 Mn694 2.221 . S
O712 Mn696 2.290 . S
O712 C706 1.278 . S
O713 Mn696 2.251 . S
O713 C706 1.241 . S
O714 Mn715 2.163 1_565 S
O714 C728 1.244 . S
Mn715 O714 2.163 1_545 S
Mn715 O718 2.160 . S
Mn715 O719 2.221 . S
Mn715 O721 2.163 . S
Mn715 O723 2.160 1_545 S
Mn715 O733 2.221 . S
O716 Mn717 2.087 . S
O716 C728 1.256 . S
Mn717 O716 2.087 . S
Mn717 O724 2.089 . S
Mn717 O733 2.290 1_565 S
Mn717 O734 2.251 1_565 S
O718 Mn715 2.160 . S
O718 C729 1.239 . S
O719 Mn715 2.221 . S
O719 Mn720 2.290 . S
O719 C730 1.278 . S
Mn720 O719 2.290 . S
Mn720 O722 2.089 . S
Mn720 O725 2.251 . S
Mn720 O726 2.087 . S
O721 Mn715 2.163 . S
O721 C731 1.244 . S
O722 Mn720 2.089 . S
O722 C729 1.256 . S
O723 Mn715 2.160 1_565 S
O723 C732 1.239 . S
O724 Mn717 2.089 . S
O724 C732 1.256 . S
O725 Mn720 2.251 . S
O725 C730 1.241 . S
O726 Mn720 2.087 . S
O726 C731 1.256 . S
C727 O733 1.278 . S
C727 O734 1.241 . S
C728 O714 1.244 . S
C728 O716 1.256 . S
C729 O718 1.239 . S
C729 O722 1.256 . S
C730 O719 1.278 . S
C730 O725 1.241 . S
C731 O721 1.244 . S
C731 O726 1.256 . S
C732 O723 1.239 . S
C732 O724 1.256 . S
O733 Mn715 2.221 . S
O733 Mn717 2.290 1_545 S
O733 C727 1.278 . S
O734 Mn717 2.251 1_545 S
O734 C727 1.241 . S
O735 Mn736 2.163 . S
O735 C749 1.244 . S
Mn736 O735 2.163 . S
Mn736 O739 2.160 . S
Mn736 O740 2.221 . S
Mn736 O742 2.163 . S
Mn736 O744 2.160 . S
Mn736 O754 2.221 . S
O737 Mn738 2.087 . S
O737 C749 1.256 . S
Mn738 O737 2.087 . S
Mn738 O745 2.089 . S
Mn738 O754 2.290 . S
Mn738 O755 2.251 . S
O739 Mn736 2.160 . S
O739 C750 1.239 . S
O740 Mn736 2.221 . S
O740 Mn741 2.290 . S
O740 C751 1.278 . S
Mn741 O740 2.290 . S
Mn741 O743 2.089 . S
Mn741 O746 2.251 1_545 S
Mn741 O747 2.087 . S
O742 Mn736 2.163 . S
O742 C752 1.244 . S
O743 Mn741 2.089 . S
O743 C750 1.256 . S
O744 Mn736 2.160 . S
O744 C753 1.239 . S
O745 Mn738 2.089 . S
O745 C753 1.256 . S
O746 Mn741 2.251 1_565 S
O746 C751 1.241 1_565 S
O747 Mn741 2.087 . S
O747 C752 1.256 . S
C748 O754 1.278 . S
C748 O755 1.241 . S
C749 O735 1.244 . S
C749 O737 1.256 . S
C750 O739 1.239 . S
C750 O743 1.256 . S
C751 O740 1.278 . S
C751 O746 1.241 1_545 S
C752 O742 1.244 . S
C752 O747 1.256 . S
C753 O744 1.239 . S
C753 O745 1.256 . S
O754 Mn736 2.221 . S
O754 Mn738 2.290 . S
O754 C748 1.278 . S
O755 Mn738 2.251 . S
O755 C748 1.241 . S
O756 Mn757 2.163 . S
O756 C770 1.244 . S
Mn757 O756 2.163 . S
Mn757 O760 2.160 1_545 S
Mn757 O761 2.221 . S
Mn757 O763 2.163 1_545 S
Mn757 O765 2.160 . S
Mn757 O775 2.221 . S
O758 Mn759 2.087 . S
O758 C770 1.256 . S
Mn759 O758 2.087 . S
Mn759 O766 2.089 . S
Mn759 O775 2.290 . S
Mn759 O776 2.251 . S
O760 Mn757 2.160 1_565 S
O760 C771 1.239 . S
O761 Mn757 2.221 . S
O761 Mn762 2.290 1_545 S
O761 C772 1.278 . S
Mn762 O761 2.290 1_565 S
Mn762 O764 2.089 . S
Mn762 O767 2.251 1_565 S
Mn762 O768 2.087 . S
O763 Mn757 2.163 1_565 S
O763 C773 1.244 . S
O764 Mn762 2.089 . S
O764 C771 1.256 . S
O765 Mn757 2.160 . S
O765 C774 1.239 . S
O766 Mn759 2.089 . S
O766 C774 1.256 . S
O767 Mn762 2.251 1_545 S
O767 C772 1.241 . S
O768 Mn762 2.087 . S
O768 C773 1.256 . S
C769 O775 1.278 . S
C769 O776 1.241 . S
C770 O756 1.244 . S
C770 O758 1.256 . S
C771 O760 1.239 . S
C771 O764 1.256 . S
C772 O761 1.278 . S
C772 O767 1.241 . S
C773 O763 1.244 . S
C773 O768 1.256 . S
C774 O765 1.239 . S
C774 O766 1.256 . S
O775 Mn757 2.221 . S
O775 Mn759 2.290 . S
O775 C769 1.278 . S
O776 Mn759 2.251 . S
O776 C769 1.241 . S
O777 Mn778 2.163 . S
O777 C791 1.244 . S
Mn778 O777 2.163 . S
Mn778 O781 2.160 . S
Mn778 O782 2.221 . S
Mn778 O784 2.163 . S
Mn778 O786 2.160 . S
Mn778 O796 2.221 . S
O779 Mn780 2.087 . S
O779 C791 1.256 . S
Mn780 O779 2.087 . S
Mn780 O787 2.089 . S
Mn780 O796 2.290 . S
Mn780 O797 2.251 . S
O781 Mn778 2.160 . S
O781 C792 1.239 . S
O782 Mn778 2.221 . S
O782 Mn783 2.290 . S
O782 C793 1.278 . S
Mn783 O782 2.290 . S
Mn783 O785 2.089 . S
Mn783 O788 2.251 1_565 S
Mn783 O789 2.087 . S
O784 Mn778 2.163 . S
O784 C794 1.244 . S
O785 Mn783 2.089 . S
O785 C792 1.256 . S
O786 Mn778 2.160 . S
O786 C795 1.239 . S
O787 Mn780 2.089 . S
O787 C795 1.256 . S
O788 Mn783 2.251 1_545 S
O788 C793 1.241 1_545 S
O789 Mn783 2.087 . S
O789 C794 1.256 . S
C790 O796 1.278 . S
C790 O797 1.241 . S
C791 O777 1.244 . S
C791 O779 1.256 . S
C792 O781 1.239 . S
C792 O785 1.256 . S
C793 O782 1.278 . S
C793 O788 1.241 1_565 S
C794 O784 1.244 . S
C794 O789 1.256 . S
C795 O786 1.239 . S
C795 O787 1.256 . S
O796 Mn778 2.221 . S
O796 Mn780 2.290 . S
O796 C790 1.278 . S
O797 Mn780 2.251 . S
O797 C790 1.241 . S
O798 Mn799 2.163 1_545 S
O798 C812 1.244 . S
Mn799 O798 2.163 1_565 S
Mn799 O802 2.160 . S
Mn799 O803 2.221 . S
Mn799 O805 2.163 . S
Mn799 O807 2.160 1_565 S
Mn799 O817 2.221 . S
O800 Mn801 2.087 . S
O800 C812 1.256 . S
Mn801 O800 2.087 . S
Mn801 O808 2.089 . S
Mn801 O817 2.290 1_545 S
Mn801 O818 2.251 1_545 S
O802 Mn799 2.160 . S
O802 C813 1.239 . S
O803 Mn799 2.221 . S
O803 Mn804 2.290 . S
O803 C814 1.278 . S
Mn804 O803 2.290 . S
Mn804 O806 2.089 . S
Mn804 O809 2.251 . S
Mn804 O810 2.087 . S
O805 Mn799 2.163 . S
O805 C815 1.244 . S
O806 Mn804 2.089 . S
O806 C813 1.256 . S
O807 Mn799 2.160 1_545 S
O807 C816 1.239 . S
O808 Mn801 2.089 . S
O808 C816 1.256 . S
O809 Mn804 2.251 . S
O809 C814 1.241 . S
O810 Mn804 2.087 . S
O810 C815 1.256 . S
C811 O817 1.278 . S
C811 O818 1.241 . S
C812 O798 1.244 . S
C812 O800 1.256 . S
C813 O802 1.239 . S
C813 O806 1.256 . S
C814 O803 1.278 . S
C814 O809 1.241 . S
C815 O805 1.244 . S
C815 O810 1.256 . S
C816 O807 1.239 . S
C816 O808 1.256 . S
O817 Mn799 2.221 . S
O817 Mn801 2.290 1_565 S
O817 C811 1.278 . S
O818 Mn801 2.251 1_565 S
O818 C811 1.241 . S
O819 Mn820 2.163 . S
O819 C833 1.244 . S
Mn820 O819 2.163 . S
Mn820 O823 2.160 . S
Mn820 O824 2.221 . S
Mn820 O826 2.163 . S
Mn820 O828 2.160 . S
Mn820 O838 2.221 . S
O821 Mn822 2.087 . S
O821 C833 1.256 . S
Mn822 O821 2.087 . S
Mn822 O829 2.089 . S
Mn822 O838 2.290 . S
Mn822 O839 2.251 . S
O823 Mn820 2.160 . S
O823 C834 1.239 . S
O824 Mn820 2.221 . S
O824 Mn825 2.290 . S
O824 C835 1.278 . S
Mn825 O824 2.290 . S
Mn825 O827 2.089 . S
Mn825 O830 2.251 1_545 S
Mn825 O831 2.087 . S
O826 Mn820 2.163 . S
O826 C836 1.244 . S
O827 Mn825 2.089 . S
O827 C834 1.256 . S
O828 Mn820 2.160 . S
O828 C837 1.239 . S
O829 Mn822 2.089 . S
O829 C837 1.256 . S
O830 Mn825 2.251 1_565 S
O830 C835 1.241 1_565 S
O831 Mn825 2.087 . S
O831 C836 1.256 . S
C832 O838 1.278 . S
C832 O839 1.241 . S
C833 O819 1.244 . S
C833 O821 1.256 . S
C834 O823 1.239 . S
C834 O827 1.256 . S
C835 O824 1.278 . S
C835 O830 1.241 1_545 S
C836 O826 1.244 . S
C836 O831 1.256 . S
C837 O828 1.239 . S
C837 O829 1.256 . S
O838 Mn820 2.221 . S
O838 Mn822 2.290 . S
O838 C832 1.278 . S
O839 Mn822 2.251 . S
O839 C832 1.241 . S
O840 Mn841 2.163 1_554 S
O840 C854 1.244 . S
Mn841 O840 2.163 1_556 S
Mn841 O844 2.160 . S
Mn841 O845 2.221 . S
Mn841 O847 2.163 . S
Mn841 O849 2.160 1_556 S
Mn841 O859 2.221 . S
O842 Mn843 2.087 . S
O842 C854 1.256 . S
Mn843 O842 2.087 . S
Mn843 O850 2.089 . S
Mn843 O859 2.290 1_554 S
Mn843 O860 2.251 1_554 S
O844 Mn841 2.160 . S
O844 C855 1.239 . S
O845 Mn841 2.221 . S
O845 Mn846 2.290 . S
O845 C856 1.278 . S
Mn846 O845 2.290 . S
Mn846 O848 2.089 . S
Mn846 O851 2.251 . S
Mn846 O852 2.087 . S
O847 Mn841 2.163 . S
O847 C857 1.244 . S
O848 Mn846 2.089 . S
O848 C855 1.256 . S
O849 Mn841 2.160 1_554 S
O849 C858 1.239 . S
O850 Mn843 2.089 . S
O850 C858 1.256 . S
O851 Mn846 2.251 . S
O851 C856 1.241 . S
O852 Mn846 2.087 . S
O852 C857 1.256 . S
C853 O859 1.278 . S
C853 O860 1.241 . S
C854 O840 1.244 . S
C854 O842 1.256 . S
C855 O844 1.239 . S
C855 O848 1.256 . S
C856 O845 1.278 . S
C856 O851 1.241 . S
C857 O847 1.244 . S
C857 O852 1.256 . S
C858 O849 1.239 . S
C858 O850 1.256 . S
O859 Mn841 2.221 . S
O859 Mn843 2.290 1_556 S
O859 C853 1.278 . S
O860 Mn843 2.251 1_556 S
O860 C853 1.241 . S
O861 Mn862 2.163 1_556 S
O861 C875 1.244 . S
Mn862 O861 2.163 1_554 S
Mn862 O865 2.160 . S
Mn862 O866 2.221 . S
Mn862 O868 2.163 . S
Mn862 O870 2.160 1_554 S
Mn862 O880 2.221 . S
O863 Mn864 2.087 . S
O863 C875 1.256 . S
Mn864 O863 2.087 . S
Mn864 O871 2.089 . S
Mn864 O880 2.290 1_556 S
Mn864 O881 2.251 1_556 S
O865 Mn862 2.160 . S
O865 C876 1.239 . S
O866 Mn862 2.221 . S
O866 Mn867 2.290 . S
O866 C877 1.278 . S
Mn867 O866 2.290 . S
Mn867 O869 2.089 . S
Mn867 O872 2.251 . S
Mn867 O873 2.087 . S
O868 Mn862 2.163 . S
O868 C878 1.244 . S
O869 Mn867 2.089 . S
O869 C876 1.256 . S
O870 Mn862 2.160 1_556 S
O870 C879 1.239 . S
O871 Mn864 2.089 . S
O871 C879 1.256 . S
O872 Mn867 2.251 . S
O872 C877 1.241 . S
O873 Mn867 2.087 . S
O873 C878 1.256 . S
C874 O880 1.278 . S
C874 O881 1.241 . S
C875 O861 1.244 . S
C875 O863 1.256 . S
C876 O865 1.239 . S
C876 O869 1.256 . S
C877 O866 1.278 . S
C877 O872 1.241 . S
C878 O868 1.244 . S
C878 O873 1.256 . S
C879 O870 1.239 . S
C879 O871 1.256 . S
O880 Mn862 2.221 . S
O880 Mn864 2.290 1_554 S
O880 C874 1.278 . S
O881 Mn864 2.251 1_554 S
O881 C874 1.241 . S
O882 Mn883 2.163 . S
O882 C896 1.244 . S
Mn883 O882 2.163 . S
Mn883 O886 2.160 . S
Mn883 O887 2.221 . S
Mn883 O889 2.163 . S
Mn883 O891 2.160 . S
Mn883 O901 2.221 . S
O884 Mn885 2.087 . S
O884 C896 1.256 . S
Mn885 O884 2.087 . S
Mn885 O892 2.089 . S
Mn885 O901 2.290 . S
Mn885 O902 2.251 . S
O886 Mn883 2.160 . S
O886 C897 1.239 . S
O887 Mn883 2.221 . S
O887 Mn888 2.290 . S
O887 C898 1.278 . S
Mn888 O887 2.290 . S
Mn888 O890 2.089 . S
Mn888 O893 2.251 1_655 S
Mn888 O894 2.087 . S
O889 Mn883 2.163 . S
O889 C899 1.244 . S
O890 Mn888 2.089 . S
O890 C897 1.256 . S
O891 Mn883 2.160 . S
O891 C900 1.239 . S
O892 Mn885 2.089 . S
O892 C900 1.256 . S
O893 Mn888 2.251 1_455 S
O893 C898 1.241 1_455 S
O894 Mn888 2.087 . S
O894 C899 1.256 . S
C895 O901 1.278 . S
C895 O902 1.241 . S
C896 O882 1.244 . S
C896 O884 1.256 . S
C897 O886 1.239 . S
C897 O890 1.256 . S
C898 O887 1.278 . S
C898 O893 1.241 1_655 S
C899 O889 1.244 . S
C899 O894 1.256 . S
C900 O891 1.239 . S
C900 O892 1.256 . S
O901 Mn883 2.221 . S
O901 Mn885 2.290 . S
O901 C895 1.278 . S
O902 Mn885 2.251 . S
O902 C895 1.241 . S
O903 Mn904 2.163 . S
O903 C917 1.244 . S
Mn904 O903 2.163 . S
Mn904 O907 2.160 . S
Mn904 O908 2.221 . S
Mn904 O910 2.163 . S
Mn904 O912 2.160 . S
Mn904 O922 2.221 . S
O905 Mn906 2.087 . S
O905 C917 1.256 . S
Mn906 O905 2.087 . S
Mn906 O913 2.089 . S
Mn906 O922 2.290 . S
Mn906 O923 2.251 . S
O907 Mn904 2.160 . S
O907 C918 1.239 . S
O908 Mn904 2.221 . S
O908 Mn909 2.290 . S
O908 C919 1.278 . S
Mn909 O908 2.290 . S
Mn909 O911 2.089 . S
Mn909 O914 2.251 . S
Mn909 O915 2.087 . S
O910 Mn904 2.163 . S
O910 C920 1.244 . S
O911 Mn909 2.089 . S
O911 C918 1.256 . S
O912 Mn904 2.160 . S
O912 C921 1.239 . S
O913 Mn906 2.089 . S
O913 C921 1.256 . S
O914 Mn909 2.251 . S
O914 C919 1.241 . S
O915 Mn909 2.087 . S
O915 C920 1.256 . S
C916 O922 1.278 . S
C916 O923 1.241 . S
C917 O903 1.244 . S
C917 O905 1.256 . S
C918 O907 1.239 . S
C918 O911 1.256 . S
C919 O908 1.278 . S
C919 O914 1.241 . S
C920 O910 1.244 . S
C920 O915 1.256 . S
C921 O912 1.239 . S
C921 O913 1.256 . S
O922 Mn904 2.221 . S
O922 Mn906 2.290 . S
O922 C916 1.278 . S
O923 Mn906 2.251 . S
O923 C916 1.241 . S
O924 Mn925 2.163 . S
O924 C938 1.244 . S
Mn925 O924 2.163 . S
Mn925 O928 2.160 . S
Mn925 O929 2.221 . S
Mn925 O931 2.163 . S
Mn925 O933 2.160 . S
Mn925 O943 2.221 . S
O926 Mn927 2.087 . S
O926 C938 1.256 . S
Mn927 O926 2.087 . S
Mn927 O934 2.089 . S
Mn927 O943 2.290 . S
Mn927 O944 2.251 . S
O928 Mn925 2.160 . S
O928 C939 1.239 . S
O929 Mn925 2.221 . S
O929 Mn930 2.290 . S
O929 C940 1.278 . S
Mn930 O929 2.290 . S
Mn930 O932 2.089 . S
Mn930 O935 2.251 1_455 S
Mn930 O936 2.087 . S
O931 Mn925 2.163 . S
O931 C941 1.244 . S
O932 Mn930 2.089 . S
O932 C939 1.256 . S
O933 Mn925 2.160 . S
O933 C942 1.239 . S
O934 Mn927 2.089 . S
O934 C942 1.256 . S
O935 Mn930 2.251 1_655 S
O935 C940 1.241 1_655 S
O936 Mn930 2.087 . S
O936 C941 1.256 . S
C937 O943 1.278 . S
C937 O944 1.241 . S
C938 O924 1.244 . S
C938 O926 1.256 . S
C939 O928 1.239 . S
C939 O932 1.256 . S
C940 O929 1.278 . S
C940 O935 1.241 1_455 S
C941 O931 1.244 . S
C941 O936 1.256 . S
C942 O933 1.239 . S
C942 O934 1.256 . S
O943 Mn925 2.221 . S
O943 Mn927 2.290 . S
O943 C937 1.278 . S
O944 Mn927 2.251 . S
O944 C937 1.241 . S
O945 Mn946 2.163 . S
O945 C959 1.244 . S
Mn946 O945 2.163 . S
Mn946 O949 2.160 . S
Mn946 O950 2.221 . S
Mn946 O952 2.163 . S
Mn946 O954 2.160 . S
Mn946 O964 2.221 . S
O947 Mn948 2.087 . S
O947 C959 1.256 . S
Mn948 O947 2.087 . S
Mn948 O955 2.089 . S
Mn948 O964 2.290 . S
Mn948 O965 2.251 . S
O949 Mn946 2.160 . S
O949 C960 1.239 . S
O950 Mn946 2.221 . S
O950 Mn951 2.290 . S
O950 C961 1.278 . S
Mn951 O950 2.290 . S
Mn951 O953 2.089 . S
Mn951 O956 2.251 . S
Mn951 O957 2.087 . S
O952 Mn946 2.163 . S
O952 C962 1.244 . S
O953 Mn951 2.089 . S
O953 C960 1.256 . S
O954 Mn946 2.160 . S
O954 C963 1.239 . S
O955 Mn948 2.089 . S
O955 C963 1.256 . S
O956 Mn951 2.251 . S
O956 C961 1.241 . S
O957 Mn951 2.087 . S
O957 C962 1.256 . S
C958 O964 1.278 . S
C958 O965 1.241 . S
C959 O945 1.244 . S
C959 O947 1.256 . S
C960 O949 1.239 . S
C960 O953 1.256 . S
C961 O950 1.278 . S
C961 O956 1.241 . S
C962 O952 1.244 . S
C962 O957 1.256 . S
C963 O954 1.239 . S
C963 O955 1.256 . S
O964 Mn946 2.221 . S
O964 Mn948 2.290 . S
O964 C958 1.278 . S
O965 Mn948 2.251 . S
O965 C958 1.241 . S
O966 Mn967 2.163 . S
O966 C980 1.244 . S
Mn967 O966 2.163 . S
Mn967 O970 2.160 . S
Mn967 O971 2.221 . S
Mn967 O973 2.163 . S
Mn967 O975 2.160 . S
Mn967 O985 2.221 . S
O968 Mn969 2.087 . S
O968 C980 1.256 . S
Mn969 O968 2.087 . S
Mn969 O976 2.089 . S
Mn969 O985 2.290 . S
Mn969 O986 2.251 . S
O970 Mn967 2.160 . S
O970 C981 1.239 . S
O971 Mn967 2.221 . S
O971 Mn972 2.290 . S
O971 C982 1.278 . S
Mn972 O971 2.290 . S
Mn972 O974 2.089 . S
Mn972 O977 2.251 1_655 S
Mn972 O978 2.087 . S
O973 Mn967 2.163 . S
O973 C983 1.244 . S
O974 Mn972 2.089 . S
O974 C981 1.256 . S
O975 Mn967 2.160 . S
O975 C984 1.239 . S
O976 Mn969 2.089 . S
O976 C984 1.256 . S
O977 Mn972 2.251 1_455 S
O977 C982 1.241 1_455 S
O978 Mn972 2.087 . S
O978 C983 1.256 . S
C979 O985 1.278 . S
C979 O986 1.241 . S
C980 O966 1.244 . S
C980 O968 1.256 . S
C981 O970 1.239 . S
C981 O974 1.256 . S
C982 O971 1.278 . S
C982 O977 1.241 1_655 S
C983 O973 1.244 . S
C983 O978 1.256 . S
C984 O975 1.239 . S
C984 O976 1.256 . S
O985 Mn967 2.221 . S
O985 Mn969 2.290 . S
O985 C979 1.278 . S
O986 Mn969 2.251 . S
O986 C979 1.241 . S
O987 Mn988 2.163 . S
O987 C1001 1.244 . S
Mn988 O987 2.163 . S
Mn988 O991 2.160 . S
Mn988 O992 2.221 . S
Mn988 O994 2.163 . S
Mn988 O996 2.160 . S
Mn988 O1006 2.221 . S
O989 Mn990 2.087 . S
O989 C1001 1.256 . S
Mn990 O989 2.087 . S
Mn990 O997 2.089 . S
Mn990 O1006 2.290 . S
Mn990 O1007 2.251 . S
O991 Mn988 2.160 . S
O991 C1002 1.239 . S
O992 Mn988 2.221 . S
O992 Mn993 2.290 . S
O992 C1003 1.278 . S
Mn993 O992 2.290 . S
Mn993 O995 2.089 . S
Mn993 O998 2.251 . S
Mn993 O999 2.087 . S
O994 Mn988 2.163 . S
O994 C1004 1.244 . S
O995 Mn993 2.089 . S
O995 C1002 1.256 . S
O996 Mn988 2.160 . S
O996 C1005 1.239 . S
O997 Mn990 2.089 . S
O997 C1005 1.256 . S
O998 Mn993 2.251 . S
O998 C1003 1.241 . S
O999 Mn993 2.087 . S
O999 C1004 1.256 . S
C1000 O1006 1.278 . S
C1000 O1007 1.241 . S
C1001 O987 1.244 . S
C1001 O989 1.256 . S
C1002 O991 1.239 . S
C1002 O995 1.256 . S
C1003 O992 1.278 . S
C1003 O998 1.241 . S
C1004 O994 1.244 . S
C1004 O999 1.256 . S
C1005 O996 1.239 . S
C1005 O997 1.256 . S
O1006 Mn988 2.221 . S
O1006 Mn990 2.290 . S
O1006 C1000 1.278 . S
O1007 Mn990 2.251 . S
O1007 C1000 1.241 . S
O1008 Mn1009 2.163 . S
O1008 C1022 1.244 . S
Mn1009 O1008 2.163 . S
Mn1009 O1012 2.160 . S
Mn1009 O1013 2.221 . S
Mn1009 O1015 2.163 . S
Mn1009 O1017 2.160 . S
Mn1009 O1027 2.221 . S
O1010 Mn1011 2.087 . S
O1010 C1022 1.256 . S
Mn1011 O1010 2.087 . S
Mn1011 O1018 2.089 . S
Mn1011 O1027 2.290 . S
Mn1011 O1028 2.251 . S
O1012 Mn1009 2.160 . S
O1012 C1023 1.239 . S
O1013 Mn1009 2.221 . S
O1013 Mn1014 2.290 . S
O1013 C1024 1.278 . S
Mn1014 O1013 2.290 . S
Mn1014 O1016 2.089 . S
Mn1014 O1019 2.251 . S
Mn1014 O1020 2.087 . S
O1015 Mn1009 2.163 . S
O1015 C1025 1.244 . S
O1016 Mn1014 2.089 . S
O1016 C1023 1.256 . S
O1017 Mn1009 2.160 . S
O1017 C1026 1.239 . S
O1018 Mn1011 2.089 . S
O1018 C1026 1.256 . S
O1019 Mn1014 2.251 . S
O1019 C1024 1.241 . S
O1020 Mn1014 2.087 . S
O1020 C1025 1.256 . S
C1021 O1027 1.278 . S
C1021 O1028 1.241 . S
C1022 O1008 1.244 . S
C1022 O1010 1.256 . S
C1023 O1012 1.239 . S
C1023 O1016 1.256 . S
C1024 O1013 1.278 . S
C1024 O1019 1.241 . S
C1025 O1015 1.244 . S
C1025 O1020 1.256 . S
C1026 O1017 1.239 . S
C1026 O1018 1.256 . S
O1027 Mn1009 2.221 . S
O1027 Mn1011 2.290 . S
O1027 C1021 1.278 . S
O1028 Mn1011 2.251 . S
O1028 C1021 1.241 . S
O1029 Mn1030 2.163 . S
O1029 C1043 1.244 . S
Mn1030 O1029 2.163 . S
Mn1030 O1033 2.160 . S
Mn1030 O1034 2.221 . S
Mn1030 O1036 2.163 . S
Mn1030 O1038 2.160 . S
Mn1030 O1048 2.221 . S
O1031 Mn1032 2.087 . S
O1031 C1043 1.256 . S
Mn1032 O1031 2.087 . S
Mn1032 O1039 2.089 . S
Mn1032 O1048 2.290 . S
Mn1032 O1049 2.251 . S
O1033 Mn1030 2.160 . S
O1033 C1044 1.239 . S
O1034 Mn1030 2.221 . S
O1034 Mn1035 2.290 . S
O1034 C1045 1.278 . S
Mn1035 O1034 2.290 . S
Mn1035 O1037 2.089 . S
Mn1035 O1040 2.251 1_554 S
Mn1035 O1041 2.087 . S
O1036 Mn1030 2.163 . S
O1036 C1046 1.244 . S
O1037 Mn1035 2.089 . S
O1037 C1044 1.256 . S
O1038 Mn1030 2.160 . S
O1038 C1047 1.239 . S
O1039 Mn1032 2.089 . S
O1039 C1047 1.256 . S
O1040 Mn1035 2.251 1_556 S
O1040 C1045 1.241 1_556 S
O1041 Mn1035 2.087 . S
O1041 C1046 1.256 . S
C1042 O1048 1.278 . S
C1042 O1049 1.241 . S
C1043 O1029 1.244 . S
C1043 O1031 1.256 . S
C1044 O1033 1.239 . S
C1044 O1037 1.256 . S
C1045 O1034 1.278 . S
C1045 O1040 1.241 1_554 S
C1046 O1036 1.244 . S
C1046 O1041 1.256 . S
C1047 O1038 1.239 . S
C1047 O1039 1.256 . S
O1048 Mn1030 2.221 . S
O1048 Mn1032 2.290 . S
O1048 C1042 1.278 . S
O1049 Mn1032 2.251 . S
O1049 C1042 1.241 . S
O1050 Mn1051 2.163 1_455 S
O1050 C1064 1.244 . S
Mn1051 O1050 2.163 1_655 S
Mn1051 O1054 2.160 . S
Mn1051 O1055 2.221 . S
Mn1051 O1057 2.163 . S
Mn1051 O1059 2.160 1_655 S
Mn1051 O1069 2.221 . S
O1052 Mn1053 2.087 . S
O1052 C1064 1.256 . S
Mn1053 O1052 2.087 . S
Mn1053 O1060 2.089 . S
Mn1053 O1069 2.290 1_455 S
Mn1053 O1070 2.251 1_455 S
O1054 Mn1051 2.160 . S
O1054 C1065 1.239 . S
O1055 Mn1051 2.221 . S
O1055 Mn1056 2.290 . S
O1055 C1066 1.278 . S
Mn1056 O1055 2.290 . S
Mn1056 O1058 2.089 . S
Mn1056 O1061 2.251 . S
Mn1056 O1062 2.087 . S
O1057 Mn1051 2.163 . S
O1057 C1067 1.244 . S
O1058 Mn1056 2.089 . S
O1058 C1065 1.256 . S
O1059 Mn1051 2.160 1_455 S
O1059 C1068 1.239 . S
O1060 Mn1053 2.089 . S
O1060 C1068 1.256 . S
O1061 Mn1056 2.251 . S
O1061 C1066 1.241 . S
O1062 Mn1056 2.087 . S
O1062 C1067 1.256 . S
C1063 O1069 1.278 . S
C1063 O1070 1.241 . S
C1064 O1050 1.244 . S
C1064 O1052 1.256 . S
C1065 O1054 1.239 . S
C1065 O1058 1.256 . S
C1066 O1055 1.278 . S
C1066 O1061 1.241 . S
C1067 O1057 1.244 . S
C1067 O1062 1.256 . S
C1068 O1059 1.239 . S
C1068 O1060 1.256 . S
O1069 Mn1051 2.221 . S
O1069 Mn1053 2.290 1_655 S
O1069 C1063 1.278 . S
O1070 Mn1053 2.251 1_655 S
O1070 C1063 1.241 . S
O1071 Mn1072 2.163 . S
O1071 C1085 1.244 . S
Mn1072 O1071 2.163 . S
Mn1072 O1075 2.160 . S
Mn1072 O1076 2.221 . S
Mn1072 O1078 2.163 . S
Mn1072 O1080 2.160 . S
Mn1072 O1090 2.221 . S
O1073 Mn1074 2.087 . S
O1073 C1085 1.256 . S
Mn1074 O1073 2.087 . S
Mn1074 O1081 2.089 . S
Mn1074 O1090 2.290 . S
Mn1074 O1091 2.251 . S
O1075 Mn1072 2.160 . S
O1075 C1086 1.239 . S
O1076 Mn1072 2.221 . S
O1076 Mn1077 2.290 . S
O1076 C1087 1.278 . S
Mn1077 O1076 2.290 . S
Mn1077 O1079 2.089 . S
Mn1077 O1082 2.251 . S
Mn1077 O1083 2.087 . S
O1078 Mn1072 2.163 . S
O1078 C1088 1.244 . S
O1079 Mn1077 2.089 . S
O1079 C1086 1.256 . S
O1080 Mn1072 2.160 . S
O1080 C1089 1.239 . S
O1081 Mn1074 2.089 . S
O1081 C1089 1.256 . S
O1082 Mn1077 2.251 . S
O1082 C1087 1.241 . S
O1083 Mn1077 2.087 . S
O1083 C1088 1.256 . S
C1084 O1090 1.278 . S
C1084 O1091 1.241 . S
C1085 O1071 1.244 . S
C1085 O1073 1.256 . S
C1086 O1075 1.239 . S
C1086 O1079 1.256 . S
C1087 O1076 1.278 . S
C1087 O1082 1.241 . S
C1088 O1078 1.244 . S
C1088 O1083 1.256 . S
C1089 O1080 1.239 . S
C1089 O1081 1.256 . S
O1090 Mn1072 2.221 . S
O1090 Mn1074 2.290 . S
O1090 C1084 1.278 . S
O1091 Mn1074 2.251 . S
O1091 C1084 1.241 . S
O1092 Mn1093 2.163 . S
O1092 C1106 1.244 . S
Mn1093 O1092 2.163 . S
Mn1093 O1096 2.160 . S
Mn1093 O1097 2.221 . S
Mn1093 O1099 2.163 . S
Mn1093 O1101 2.160 . S
Mn1093 O1111 2.221 . S
O1094 Mn1095 2.087 . S
O1094 C1106 1.256 . S
Mn1095 O1094 2.087 . S
Mn1095 O1102 2.089 . S
Mn1095 O1111 2.290 . S
Mn1095 O1112 2.251 . S
O1096 Mn1093 2.160 . S
O1096 C1107 1.239 . S
O1097 Mn1093 2.221 . S
O1097 Mn1098 2.290 . S
O1097 C1108 1.278 . S
Mn1098 O1097 2.290 . S
Mn1098 O1100 2.089 . S
Mn1098 O1103 2.251 . S
Mn1098 O1104 2.087 . S
O1099 Mn1093 2.163 . S
O1099 C1109 1.244 . S
O1100 Mn1098 2.089 . S
O1100 C1107 1.256 . S
O1101 Mn1093 2.160 . S
O1101 C1110 1.239 . S
O1102 Mn1095 2.089 . S
O1102 C1110 1.256 . S
O1103 Mn1098 2.251 . S
O1103 C1108 1.241 . S
O1104 Mn1098 2.087 . S
O1104 C1109 1.256 . S
C1105 O1111 1.278 . S
C1105 O1112 1.241 . S
C1106 O1092 1.244 . S
C1106 O1094 1.256 . S
C1107 O1096 1.239 . S
C1107 O1100 1.256 . S
C1108 O1097 1.278 . S
C1108 O1103 1.241 . S
C1109 O1099 1.244 . S
C1109 O1104 1.256 . S
C1110 O1101 1.239 . S
C1110 O1102 1.256 . S
O1111 Mn1093 2.221 . S
O1111 Mn1095 2.290 . S
O1111 C1105 1.278 . S
O1112 Mn1095 2.251 . S
O1112 C1105 1.241 . S
O1113 Mn1114 2.163 . S
O1113 C1127 1.244 . S
Mn1114 O1113 2.163 . S
Mn1114 O1117 2.160 . S
Mn1114 O1118 2.221 . S
Mn1114 O1120 2.163 . S
Mn1114 O1122 2.160 . S
Mn1114 O1132 2.221 . S
O1115 Mn1116 2.087 . S
O1115 C1127 1.256 . S
Mn1116 O1115 2.087 . S
Mn1116 O1123 2.089 . S
Mn1116 O1132 2.290 . S
Mn1116 O1133 2.251 . S
O1117 Mn1114 2.160 . S
O1117 C1128 1.239 . S
O1118 Mn1114 2.221 . S
O1118 Mn1119 2.290 . S
O1118 C1129 1.278 . S
Mn1119 O1118 2.290 . S
Mn1119 O1121 2.089 . S
Mn1119 O1124 2.251 1_556 S
Mn1119 O1125 2.087 . S
O1120 Mn1114 2.163 . S
O1120 C1130 1.244 . S
O1121 Mn1119 2.089 . S
O1121 C1128 1.256 . S
O1122 Mn1114 2.160 . S
O1122 C1131 1.239 . S
O1123 Mn1116 2.089 . S
O1123 C1131 1.256 . S
O1124 Mn1119 2.251 1_554 S
O1124 C1129 1.241 1_554 S
O1125 Mn1119 2.087 . S
O1125 C1130 1.256 . S
C1126 O1132 1.278 . S
C1126 O1133 1.241 . S
C1127 O1113 1.244 . S
C1127 O1115 1.256 . S
C1128 O1117 1.239 . S
C1128 O1121 1.256 . S
C1129 O1118 1.278 . S
C1129 O1124 1.241 1_556 S
C1130 O1120 1.244 . S
C1130 O1125 1.256 . S
C1131 O1122 1.239 . S
C1131 O1123 1.256 . S
O1132 Mn1114 2.221 . S
O1132 Mn1116 2.290 . S
O1132 C1126 1.278 . S
O1133 Mn1116 2.251 . S
O1133 C1126 1.241 . S
O1134 Mn1135 2.163 1_455 S
O1134 C1148 1.244 . S
Mn1135 O1134 2.163 1_655 S
Mn1135 O1138 2.160 . S
Mn1135 O1139 2.221 . S
Mn1135 O1141 2.163 . S
Mn1135 O1143 2.160 1_655 S
Mn1135 O1153 2.221 . S
O1136 Mn1137 2.087 . S
O1136 C1148 1.256 . S
Mn1137 O1136 2.087 . S
Mn1137 O1144 2.089 . S
Mn1137 O1153 2.290 1_455 S
Mn1137 O1154 2.251 1_455 S
O1138 Mn1135 2.160 . S
O1138 C1149 1.239 . S
O1139 Mn1135 2.221 . S
O1139 Mn1140 2.290 . S
O1139 C1150 1.278 . S
Mn1140 O1139 2.290 . S
Mn1140 O1142 2.089 . S
Mn1140 O1145 2.251 . S
Mn1140 O1146 2.087 . S
O1141 Mn1135 2.163 . S
O1141 C1151 1.244 . S
O1142 Mn1140 2.089 . S
O1142 C1149 1.256 . S
O1143 Mn1135 2.160 1_455 S
O1143 C1152 1.239 . S
O1144 Mn1137 2.089 . S
O1144 C1152 1.256 . S
O1145 Mn1140 2.251 . S
O1145 C1150 1.241 . S
O1146 Mn1140 2.087 . S
O1146 C1151 1.256 . S
C1147 O1153 1.278 . S
C1147 O1154 1.241 . S
C1148 O1134 1.244 . S
C1148 O1136 1.256 . S
C1149 O1138 1.239 . S
C1149 O1142 1.256 . S
C1150 O1139 1.278 . S
C1150 O1145 1.241 . S
C1151 O1141 1.244 . S
C1151 O1146 1.256 . S
C1152 O1143 1.239 . S
C1152 O1144 1.256 . S
O1153 Mn1135 2.221 . S
O1153 Mn1137 2.290 1_655 S
O1153 C1147 1.278 . S
O1154 Mn1137 2.251 1_655 S
O1154 C1147 1.241 . S
O1155 Mn1156 2.163 . S
O1155 C1169 1.244 . S
Mn1156 O1155 2.163 . S
Mn1156 O1159 2.160 . S
Mn1156 O1160 2.221 . S
Mn1156 O1162 2.163 . S
Mn1156 O1164 2.160 . S
Mn1156 O1174 2.221 . S
O1157 Mn1158 2.087 . S
O1157 C1169 1.256 . S
Mn1158 O1157 2.087 . S
Mn1158 O1165 2.089 . S
Mn1158 O1174 2.290 . S
Mn1158 O1175 2.251 . S
O1159 Mn1156 2.160 . S
O1159 C1170 1.239 . S
O1160 Mn1156 2.221 . S
O1160 Mn1161 2.290 . S
O1160 C1171 1.278 . S
Mn1161 O1160 2.290 . S
Mn1161 O1163 2.089 . S
Mn1161 O1166 2.251 . S
Mn1161 O1167 2.087 . S
O1162 Mn1156 2.163 . S
O1162 C1172 1.244 . S
O1163 Mn1161 2.089 . S
O1163 C1170 1.256 . S
O1164 Mn1156 2.160 . S
O1164 C1173 1.239 . S
O1165 Mn1158 2.089 . S
O1165 C1173 1.256 . S
O1166 Mn1161 2.251 . S
O1166 C1171 1.241 . S
O1167 Mn1161 2.087 . S
O1167 C1172 1.256 . S
C1168 O1174 1.278 . S
C1168 O1175 1.241 . S
C1169 O1155 1.244 . S
C1169 O1157 1.256 . S
C1170 O1159 1.239 . S
C1170 O1163 1.256 . S
C1171 O1160 1.278 . S
C1171 O1166 1.241 . S
C1172 O1162 1.244 . S
C1172 O1167 1.256 . S
C1173 O1164 1.239 . S
C1173 O1165 1.256 . S
O1174 Mn1156 2.221 . S
O1174 Mn1158 2.290 . S
O1174 C1168 1.278 . S
O1175 Mn1158 2.251 . S
O1175 C1168 1.241 . S
O1176 Mn1177 2.163 . S
O1176 C1190 1.244 . S
Mn1177 O1176 2.163 . S
Mn1177 O1180 2.160 . S
Mn1177 O1181 2.221 . S
Mn1177 O1183 2.163 . S
Mn1177 O1185 2.160 . S
Mn1177 O1195 2.221 . S
O1178 Mn1179 2.087 . S
O1178 C1190 1.256 . S
Mn1179 O1178 2.087 . S
Mn1179 O1186 2.089 . S
Mn1179 O1195 2.290 . S
Mn1179 O1196 2.251 . S
O1180 Mn1177 2.160 . S
O1180 C1191 1.239 . S
O1181 Mn1177 2.221 . S
O1181 Mn1182 2.290 . S
O1181 C1192 1.278 . S
Mn1182 O1181 2.290 . S
Mn1182 O1184 2.089 . S
Mn1182 O1187 2.251 . S
Mn1182 O1188 2.087 . S
O1183 Mn1177 2.163 . S
O1183 C1193 1.244 . S
O1184 Mn1182 2.089 . S
O1184 C1191 1.256 . S
O1185 Mn1177 2.160 . S
O1185 C1194 1.239 . S
O1186 Mn1179 2.089 . S
O1186 C1194 1.256 . S
O1187 Mn1182 2.251 . S
O1187 C1192 1.241 . S
O1188 Mn1182 2.087 . S
O1188 C1193 1.256 . S
C1189 O1195 1.278 . S
C1189 O1196 1.241 . S
C1190 O1176 1.244 . S
C1190 O1178 1.256 . S
C1191 O1180 1.239 . S
C1191 O1184 1.256 . S
C1192 O1181 1.278 . S
C1192 O1187 1.241 . S
C1193 O1183 1.244 . S
C1193 O1188 1.256 . S
C1194 O1185 1.239 . S
C1194 O1186 1.256 . S
O1195 Mn1177 2.221 . S
O1195 Mn1179 2.290 . S
O1195 C1189 1.278 . S
O1196 Mn1179 2.251 . S
O1196 C1189 1.241 . S
O1197 Mn1198 2.163 . S
O1197 C1211 1.244 . S
Mn1198 O1197 2.163 . S
Mn1198 O1201 2.160 . S
Mn1198 O1202 2.221 . S
Mn1198 O1204 2.163 . S
Mn1198 O1206 2.160 . S
Mn1198 O1216 2.221 . S
O1199 Mn1200 2.087 . S
O1199 C1211 1.256 . S
Mn1200 O1199 2.087 . S
Mn1200 O1207 2.089 . S
Mn1200 O1216 2.290 . S
Mn1200 O1217 2.251 . S
O1201 Mn1198 2.160 . S
O1201 C1212 1.239 . S
O1202 Mn1198 2.221 . S
O1202 Mn1203 2.290 . S
O1202 C1213 1.278 . S
Mn1203 O1202 2.290 . S
Mn1203 O1205 2.089 . S
Mn1203 O1208 2.251 . S
Mn1203 O1209 2.087 . S
O1204 Mn1198 2.163 . S
O1204 C1214 1.244 . S
O1205 Mn1203 2.089 . S
O1205 C1212 1.256 . S
O1206 Mn1198 2.160 . S
O1206 C1215 1.239 . S
O1207 Mn1200 2.089 . S
O1207 C1215 1.256 . S
O1208 Mn1203 2.251 . S
O1208 C1213 1.241 . S
O1209 Mn1203 2.087 . S
O1209 C1214 1.256 . S
C1210 O1216 1.278 . S
C1210 O1217 1.241 . S
C1211 O1197 1.244 . S
C1211 O1199 1.256 . S
C1212 O1201 1.239 . S
C1212 O1205 1.256 . S
C1213 O1202 1.278 . S
C1213 O1208 1.241 . S
C1214 O1204 1.244 . S
C1214 O1209 1.256 . S
C1215 O1206 1.239 . S
C1215 O1207 1.256 . S
O1216 Mn1198 2.221 . S
O1216 Mn1200 2.290 . S
O1216 C1210 1.278 . S
O1217 Mn1200 2.251 . S
O1217 C1210 1.241 . S
O1218 Mn1219 2.163 . S
O1218 C1232 1.244 . S
Mn1219 O1218 2.163 . S
Mn1219 O1222 2.160 . S
Mn1219 O1223 2.221 . S
Mn1219 O1225 2.163 . S
Mn1219 O1227 2.160 . S
Mn1219 O1237 2.221 . S
O1220 Mn1221 2.087 . S
O1220 C1232 1.256 . S
Mn1221 O1220 2.087 . S
Mn1221 O1228 2.089 . S
Mn1221 O1237 2.290 . S
Mn1221 O1238 2.251 . S
O1222 Mn1219 2.160 . S
O1222 C1233 1.239 . S
O1223 Mn1219 2.221 . S
O1223 Mn1224 2.290 . S
O1223 C1234 1.278 . S
Mn1224 O1223 2.290 . S
Mn1224 O1226 2.089 . S
Mn1224 O1229 2.251 . S
Mn1224 O1230 2.087 . S
O1225 Mn1219 2.163 . S
O1225 C1235 1.244 . S
O1226 Mn1224 2.089 . S
O1226 C1233 1.256 . S
O1227 Mn1219 2.160 . S
O1227 C1236 1.239 . S
O1228 Mn1221 2.089 . S
O1228 C1236 1.256 . S
O1229 Mn1224 2.251 . S
O1229 C1234 1.241 . S
O1230 Mn1224 2.087 . S
O1230 C1235 1.256 . S
C1231 O1237 1.278 . S
C1231 O1238 1.241 . S
C1232 O1218 1.244 . S
C1232 O1220 1.256 . S
C1233 O1222 1.239 . S
C1233 O1226 1.256 . S
C1234 O1223 1.278 . S
C1234 O1229 1.241 . S
C1235 O1225 1.244 . S
C1235 O1230 1.256 . S
C1236 O1227 1.239 . S
C1236 O1228 1.256 . S
O1237 Mn1219 2.221 . S
O1237 Mn1221 2.290 . S
O1237 C1231 1.278 . S
O1238 Mn1221 2.251 . S
O1238 C1231 1.241 . S
O1239 Mn1240 2.163 . S
O1239 C1253 1.244 . S
Mn1240 O1239 2.163 . S
Mn1240 O1243 2.160 . S
Mn1240 O1244 2.221 . S
Mn1240 O1246 2.163 . S
Mn1240 O1248 2.160 . S
Mn1240 O1258 2.221 . S
O1241 Mn1242 2.087 . S
O1241 C1253 1.256 . S
Mn1242 O1241 2.087 . S
Mn1242 O1249 2.089 . S
Mn1242 O1258 2.290 . S
Mn1242 O1259 2.251 . S
O1243 Mn1240 2.160 . S
O1243 C1254 1.239 . S
O1244 Mn1240 2.221 . S
O1244 Mn1245 2.290 . S
O1244 C1255 1.278 . S
Mn1245 O1244 2.290 . S
Mn1245 O1247 2.089 . S
Mn1245 O1250 2.251 . S
Mn1245 O1251 2.087 . S
O1246 Mn1240 2.163 . S
O1246 C1256 1.244 . S
O1247 Mn1245 2.089 . S
O1247 C1254 1.256 . S
O1248 Mn1240 2.160 . S
O1248 C1257 1.239 . S
O1249 Mn1242 2.089 . S
O1249 C1257 1.256 . S
O1250 Mn1245 2.251 . S
O1250 C1255 1.241 . S
O1251 Mn1245 2.087 . S
O1251 C1256 1.256 . S
C1252 O1258 1.278 . S
C1252 O1259 1.241 . S
C1253 O1239 1.244 . S
C1253 O1241 1.256 . S
C1254 O1243 1.239 . S
C1254 O1247 1.256 . S
C1255 O1244 1.278 . S
C1255 O1250 1.241 . S
C1256 O1246 1.244 . S
C1256 O1251 1.256 . S
C1257 O1248 1.239 . S
C1257 O1249 1.256 . S
O1258 Mn1240 2.221 . S
O1258 Mn1242 2.290 . S
O1258 C1252 1.278 . S
O1259 Mn1242 2.251 . S
O1259 C1252 1.241 . S
O1260 Mn1261 2.163 . S
O1260 C1274 1.244 . S
Mn1261 O1260 2.163 . S
Mn1261 O1264 2.160 . S
Mn1261 O1265 2.221 . S
Mn1261 O1267 2.163 . S
Mn1261 O1269 2.160 . S
Mn1261 O1279 2.221 . S
O1262 Mn1263 2.087 . S
O1262 C1274 1.256 . S
Mn1263 O1262 2.087 . S
Mn1263 O1270 2.089 . S
Mn1263 O1279 2.290 . S
Mn1263 O1280 2.251 . S
O1264 Mn1261 2.160 . S
O1264 C1275 1.239 . S
O1265 Mn1261 2.221 . S
O1265 Mn1266 2.290 . S
O1265 C1276 1.278 . S
Mn1266 O1265 2.290 . S
Mn1266 O1268 2.089 . S
Mn1266 O1271 2.251 . S
Mn1266 O1272 2.087 . S
O1267 Mn1261 2.163 . S
O1267 C1277 1.244 . S
O1268 Mn1266 2.089 . S
O1268 C1275 1.256 . S
O1269 Mn1261 2.160 . S
O1269 C1278 1.239 . S
O1270 Mn1263 2.089 . S
O1270 C1278 1.256 . S
O1271 Mn1266 2.251 . S
O1271 C1276 1.241 . S
O1272 Mn1266 2.087 . S
O1272 C1277 1.256 . S
C1273 O1279 1.278 . S
C1273 O1280 1.241 . S
C1274 O1260 1.244 . S
C1274 O1262 1.256 . S
C1275 O1264 1.239 . S
C1275 O1268 1.256 . S
C1276 O1265 1.278 . S
C1276 O1271 1.241 . S
C1277 O1267 1.244 . S
C1277 O1272 1.256 . S
C1278 O1269 1.239 . S
C1278 O1270 1.256 . S
O1279 Mn1261 2.221 . S
O1279 Mn1263 2.290 . S
O1279 C1273 1.278 . S
O1280 Mn1263 2.251 . S
O1280 C1273 1.241 . S
O1281 Mn1282 2.163 . S
O1281 C1295 1.244 . S
Mn1282 O1281 2.163 . S
Mn1282 O1285 2.160 . S
Mn1282 O1286 2.221 . S
Mn1282 O1288 2.163 . S
Mn1282 O1290 2.160 . S
Mn1282 O1300 2.221 . S
O1283 Mn1284 2.087 . S
O1283 C1295 1.256 . S
Mn1284 O1283 2.087 . S
Mn1284 O1291 2.089 . S
Mn1284 O1300 2.290 . S
Mn1284 O1301 2.251 . S
O1285 Mn1282 2.160 . S
O1285 C1296 1.239 . S
O1286 Mn1282 2.221 . S
O1286 Mn1287 2.290 . S
O1286 C1297 1.278 . S
Mn1287 O1286 2.290 . S
Mn1287 O1289 2.089 . S
Mn1287 O1292 2.251 . S
Mn1287 O1293 2.087 . S
O1288 Mn1282 2.163 . S
O1288 C1298 1.244 . S
O1289 Mn1287 2.089 . S
O1289 C1296 1.256 . S
O1290 Mn1282 2.160 . S
O1290 C1299 1.239 . S
O1291 Mn1284 2.089 . S
O1291 C1299 1.256 . S
O1292 Mn1287 2.251 . S
O1292 C1297 1.241 . S
O1293 Mn1287 2.087 . S
O1293 C1298 1.256 . S
C1294 O1300 1.278 . S
C1294 O1301 1.241 . S
C1295 O1281 1.244 . S
C1295 O1283 1.256 . S
C1296 O1285 1.239 . S
C1296 O1289 1.256 . S
C1297 O1286 1.278 . S
C1297 O1292 1.241 . S
C1298 O1288 1.244 . S
C1298 O1293 1.256 . S
C1299 O1290 1.239 . S
C1299 O1291 1.256 . S
O1300 Mn1282 2.221 . S
O1300 Mn1284 2.290 . S
O1300 C1294 1.278 . S
O1301 Mn1284 2.251 . S
O1301 C1294 1.241 . S
O1302 Mn1303 2.163 . S
O1302 C1316 1.244 . S
Mn1303 O1302 2.163 . S
Mn1303 O1306 2.160 . S
Mn1303 O1307 2.221 . S
Mn1303 O1309 2.163 . S
Mn1303 O1311 2.160 . S
Mn1303 O1321 2.221 . S
O1304 Mn1305 2.087 . S
O1304 C1316 1.256 . S
Mn1305 O1304 2.087 . S
Mn1305 O1312 2.089 . S
Mn1305 O1321 2.290 . S
Mn1305 O1322 2.251 . S
O1306 Mn1303 2.160 . S
O1306 C1317 1.239 . S
O1307 Mn1303 2.221 . S
O1307 Mn1308 2.290 . S
O1307 C1318 1.278 . S
Mn1308 O1307 2.290 . S
Mn1308 O1310 2.089 . S
Mn1308 O1313 2.251 . S
Mn1308 O1314 2.087 . S
O1309 Mn1303 2.163 . S
O1309 C1319 1.244 . S
O1310 Mn1308 2.089 . S
O1310 C1317 1.256 . S
O1311 Mn1303 2.160 . S
O1311 C1320 1.239 . S
O1312 Mn1305 2.089 . S
O1312 C1320 1.256 . S
O1313 Mn1308 2.251 . S
O1313 C1318 1.241 . S
O1314 Mn1308 2.087 . S
O1314 C1319 1.256 . S
C1315 O1321 1.278 . S
C1315 O1322 1.241 . S
C1316 O1302 1.244 . S
C1316 O1304 1.256 . S
C1317 O1306 1.239 . S
C1317 O1310 1.256 . S
C1318 O1307 1.278 . S
C1318 O1313 1.241 . S
C1319 O1309 1.244 . S
C1319 O1314 1.256 . S
C1320 O1311 1.239 . S
C1320 O1312 1.256 . S
O1321 Mn1303 2.221 . S
O1321 Mn1305 2.290 . S
O1321 C1315 1.278 . S
O1322 Mn1305 2.251 . S
O1322 C1315 1.241 . S
O1323 Mn1324 2.163 . S
O1323 C1337 1.244 . S
Mn1324 O1323 2.163 . S
Mn1324 O1327 2.160 . S
Mn1324 O1328 2.221 . S
Mn1324 O1330 2.163 . S
Mn1324 O1332 2.160 . S
Mn1324 O1342 2.221 . S
O1325 Mn1326 2.087 . S
O1325 C1337 1.256 . S
Mn1326 O1325 2.087 . S
Mn1326 O1333 2.089 . S
Mn1326 O1342 2.290 . S
Mn1326 O1343 2.251 . S
O1327 Mn1324 2.160 . S
O1327 C1338 1.239 . S
O1328 Mn1324 2.221 . S
O1328 Mn1329 2.290 . S
O1328 C1339 1.278 . S
Mn1329 O1328 2.290 . S
Mn1329 O1331 2.089 . S
Mn1329 O1334 2.251 . S
Mn1329 O1335 2.087 . S
O1330 Mn1324 2.163 . S
O1330 C1340 1.244 . S
O1331 Mn1329 2.089 . S
O1331 C1338 1.256 . S
O1332 Mn1324 2.160 . S
O1332 C1341 1.239 . S
O1333 Mn1326 2.089 . S
O1333 C1341 1.256 . S
O1334 Mn1329 2.251 . S
O1334 C1339 1.241 . S
O1335 Mn1329 2.087 . S
O1335 C1340 1.256 . S
C1336 O1342 1.278 . S
C1336 O1343 1.241 . S
C1337 O1323 1.244 . S
C1337 O1325 1.256 . S
C1338 O1327 1.239 . S
C1338 O1331 1.256 . S
C1339 O1328 1.278 . S
C1339 O1334 1.241 . S
C1340 O1330 1.244 . S
C1340 O1335 1.256 . S
C1341 O1332 1.239 . S
C1341 O1333 1.256 . S
O1342 Mn1324 2.221 . S
O1342 Mn1326 2.290 . S
O1342 C1336 1.278 . S
O1343 Mn1326 2.251 . S
O1343 C1336 1.241 . S
O1344 Mn1345 2.163 . S
O1344 C1358 1.244 . S
Mn1345 O1344 2.163 . S
Mn1345 O1348 2.160 . S
Mn1345 O1349 2.221 . S
Mn1345 O1351 2.163 . S
Mn1345 O1353 2.160 . S
Mn1345 O1363 2.221 . S
O1346 Mn1347 2.087 . S
O1346 C1358 1.256 . S
Mn1347 O1346 2.087 . S
Mn1347 O1354 2.089 . S
Mn1347 O1363 2.290 . S
Mn1347 O1364 2.251 . S
O1348 Mn1345 2.160 . S
O1348 C1359 1.239 . S
O1349 Mn1345 2.221 . S
O1349 Mn1350 2.290 . S
O1349 C1360 1.278 . S
Mn1350 O1349 2.290 . S
Mn1350 O1352 2.089 . S
Mn1350 O1355 2.251 . S
Mn1350 O1356 2.087 . S
O1351 Mn1345 2.163 . S
O1351 C1361 1.244 . S
O1352 Mn1350 2.089 . S
O1352 C1359 1.256 . S
O1353 Mn1345 2.160 . S
O1353 C1362 1.239 . S
O1354 Mn1347 2.089 . S
O1354 C1362 1.256 . S
O1355 Mn1350 2.251 . S
O1355 C1360 1.241 . S
O1356 Mn1350 2.087 . S
O1356 C1361 1.256 . S
C1357 O1363 1.278 . S
C1357 O1364 1.241 . S
C1358 O1344 1.244 . S
C1358 O1346 1.256 . S
C1359 O1348 1.239 . S
C1359 O1352 1.256 . S
C1360 O1349 1.278 . S
C1360 O1355 1.241 . S
C1361 O1351 1.244 . S
C1361 O1356 1.256 . S
C1362 O1353 1.239 . S
C1362 O1354 1.256 . S
O1363 Mn1345 2.221 . S
O1363 Mn1347 2.290 . S
O1363 C1357 1.278 . S
O1364 Mn1347 2.251 . S
O1364 C1357 1.241 . S
O1365 Mn1366 2.163 . S
O1365 C1379 1.244 . S
Mn1366 O1365 2.163 . S
Mn1366 O1369 2.160 . S
Mn1366 O1370 2.221 . S
Mn1366 O1372 2.163 . S
Mn1366 O1374 2.160 . S
Mn1366 O1384 2.221 . S
O1367 Mn1368 2.087 . S
O1367 C1379 1.256 . S
Mn1368 O1367 2.087 . S
Mn1368 O1375 2.089 . S
Mn1368 O1384 2.290 . S
Mn1368 O1385 2.251 . S
O1369 Mn1366 2.160 . S
O1369 C1380 1.239 . S
O1370 Mn1366 2.221 . S
O1370 Mn1371 2.290 . S
O1370 C1381 1.278 . S
Mn1371 O1370 2.290 . S
Mn1371 O1373 2.089 . S
Mn1371 O1376 2.251 . S
Mn1371 O1377 2.087 . S
O1372 Mn1366 2.163 . S
O1372 C1382 1.244 . S
O1373 Mn1371 2.089 . S
O1373 C1380 1.256 . S
O1374 Mn1366 2.160 . S
O1374 C1383 1.239 . S
O1375 Mn1368 2.089 . S
O1375 C1383 1.256 . S
O1376 Mn1371 2.251 . S
O1376 C1381 1.241 . S
O1377 Mn1371 2.087 . S
O1377 C1382 1.256 . S
C1378 O1384 1.278 . S
C1378 O1385 1.241 . S
C1379 O1365 1.244 . S
C1379 O1367 1.256 . S
C1380 O1369 1.239 . S
C1380 O1373 1.256 . S
C1381 O1370 1.278 . S
C1381 O1376 1.241 . S
C1382 O1372 1.244 . S
C1382 O1377 1.256 . S
C1383 O1374 1.239 . S
C1383 O1375 1.256 . S
O1384 Mn1366 2.221 . S
O1384 Mn1368 2.290 . S
O1384 C1378 1.278 . S
O1385 Mn1368 2.251 . S
O1385 C1378 1.241 . S
O1386 Mn1387 2.163 . S
O1386 C1400 1.244 . S
Mn1387 O1386 2.163 . S
Mn1387 O1390 2.160 . S
Mn1387 O1391 2.221 . S
Mn1387 O1393 2.163 . S
Mn1387 O1395 2.160 . S
Mn1387 O1405 2.221 . S
O1388 Mn1389 2.087 . S
O1388 C1400 1.256 . S
Mn1389 O1388 2.087 . S
Mn1389 O1396 2.089 . S
Mn1389 O1405 2.290 . S
Mn1389 O1406 2.251 . S
O1390 Mn1387 2.160 . S
O1390 C1401 1.239 . S
O1391 Mn1387 2.221 . S
O1391 Mn1392 2.290 . S
O1391 C1402 1.278 . S
Mn1392 O1391 2.290 . S
Mn1392 O1394 2.089 . S
Mn1392 O1397 2.251 . S
Mn1392 O1398 2.087 . S
O1393 Mn1387 2.163 . S
O1393 C1403 1.244 . S
O1394 Mn1392 2.089 . S
O1394 C1401 1.256 . S
O1395 Mn1387 2.160 . S
O1395 C1404 1.239 . S
O1396 Mn1389 2.089 . S
O1396 C1404 1.256 . S
O1397 Mn1392 2.251 . S
O1397 C1402 1.241 . S
O1398 Mn1392 2.087 . S
O1398 C1403 1.256 . S
C1399 O1405 1.278 . S
C1399 O1406 1.241 . S
C1400 O1386 1.244 . S
C1400 O1388 1.256 . S
C1401 O1390 1.239 . S
C1401 O1394 1.256 . S
C1402 O1391 1.278 . S
C1402 O1397 1.241 . S
C1403 O1393 1.244 . S
C1403 O1398 1.256 . S
C1404 O1395 1.239 . S
C1404 O1396 1.256 . S
O1405 Mn1387 2.221 . S
O1405 Mn1389 2.290 . S
O1405 C1399 1.278 . S
O1406 Mn1389 2.251 . S
O1406 C1399 1.241 . S
O1407 Mn1408 2.163 1_554 S
O1407 C1421 1.244 . S
Mn1408 O1407 2.163 1_556 S
Mn1408 O1411 2.160 . S
Mn1408 O1412 2.221 . S
Mn1408 O1414 2.163 . S
Mn1408 O1416 2.160 1_556 S
Mn1408 O1426 2.221 . S
O1409 Mn1410 2.087 . S
O1409 C1421 1.256 . S
Mn1410 O1409 2.087 . S
Mn1410 O1417 2.089 . S
Mn1410 O1426 2.290 1_554 S
Mn1410 O1427 2.251 1_554 S
O1411 Mn1408 2.160 . S
O1411 C1422 1.239 . S
O1412 Mn1408 2.221 . S
O1412 Mn1413 2.290 . S
O1412 C1423 1.278 . S
Mn1413 O1412 2.290 . S
Mn1413 O1415 2.089 . S
Mn1413 O1418 2.251 . S
Mn1413 O1419 2.087 . S
O1414 Mn1408 2.163 . S
O1414 C1424 1.244 . S
O1415 Mn1413 2.089 . S
O1415 C1422 1.256 . S
O1416 Mn1408 2.160 1_554 S
O1416 C1425 1.239 . S
O1417 Mn1410 2.089 . S
O1417 C1425 1.256 . S
O1418 Mn1413 2.251 . S
O1418 C1423 1.241 . S
O1419 Mn1413 2.087 . S
O1419 C1424 1.256 . S
C1420 O1426 1.278 . S
C1420 O1427 1.241 . S
C1421 O1407 1.244 . S
C1421 O1409 1.256 . S
C1422 O1411 1.239 . S
C1422 O1415 1.256 . S
C1423 O1412 1.278 . S
C1423 O1418 1.241 . S
C1424 O1414 1.244 . S
C1424 O1419 1.256 . S
C1425 O1416 1.239 . S
C1425 O1417 1.256 . S
O1426 Mn1408 2.221 . S
O1426 Mn1410 2.290 1_556 S
O1426 C1420 1.278 . S
O1427 Mn1410 2.251 1_556 S
O1427 C1420 1.241 . S
O1428 Mn1429 2.163 . S
O1428 C1442 1.244 . S
Mn1429 O1428 2.163 . S
Mn1429 O1432 2.160 . S
Mn1429 O1433 2.221 . S
Mn1429 O1435 2.163 . S
Mn1429 O1437 2.160 . S
Mn1429 O1447 2.221 . S
O1430 Mn1431 2.087 . S
O1430 C1442 1.256 . S
Mn1431 O1430 2.087 . S
Mn1431 O1438 2.089 . S
Mn1431 O1447 2.290 . S
Mn1431 O1448 2.251 . S
O1432 Mn1429 2.160 . S
O1432 C1443 1.239 . S
O1433 Mn1429 2.221 . S
O1433 Mn1434 2.290 . S
O1433 C1444 1.278 . S
Mn1434 O1433 2.290 . S
Mn1434 O1436 2.089 . S
Mn1434 O1439 2.251 . S
Mn1434 O1440 2.087 . S
O1435 Mn1429 2.163 . S
O1435 C1445 1.244 . S
O1436 Mn1434 2.089 . S
O1436 C1443 1.256 . S
O1437 Mn1429 2.160 . S
O1437 C1446 1.239 . S
O1438 Mn1431 2.089 . S
O1438 C1446 1.256 . S
O1439 Mn1434 2.251 . S
O1439 C1444 1.241 . S
O1440 Mn1434 2.087 . S
O1440 C1445 1.256 . S
C1441 O1447 1.278 . S
C1441 O1448 1.241 . S
C1442 O1428 1.244 . S
C1442 O1430 1.256 . S
C1443 O1432 1.239 . S
C1443 O1436 1.256 . S
C1444 O1433 1.278 . S
C1444 O1439 1.241 . S
C1445 O1435 1.244 . S
C1445 O1440 1.256 . S
C1446 O1437 1.239 . S
C1446 O1438 1.256 . S
O1447 Mn1429 2.221 . S
O1447 Mn1431 2.290 . S
O1447 C1441 1.278 . S
O1448 Mn1431 2.251 . S
O1448 C1441 1.241 . S
O1449 Mn1450 2.163 1_556 S
O1449 C1463 1.244 . S
Mn1450 O1449 2.163 1_554 S
Mn1450 O1453 2.160 . S
Mn1450 O1454 2.221 . S
Mn1450 O1456 2.163 . S
Mn1450 O1458 2.160 1_554 S
Mn1450 O1468 2.221 . S
O1451 Mn1452 2.087 . S
O1451 C1463 1.256 . S
Mn1452 O1451 2.087 . S
Mn1452 O1459 2.089 . S
Mn1452 O1468 2.290 1_556 S
Mn1452 O1469 2.251 1_556 S
O1453 Mn1450 2.160 . S
O1453 C1464 1.239 . S
O1454 Mn1450 2.221 . S
O1454 Mn1455 2.290 . S
O1454 C1465 1.278 . S
Mn1455 O1454 2.290 . S
Mn1455 O1457 2.089 . S
Mn1455 O1460 2.251 . S
Mn1455 O1461 2.087 . S
O1456 Mn1450 2.163 . S
O1456 C1466 1.244 . S
O1457 Mn1455 2.089 . S
O1457 C1464 1.256 . S
O1458 Mn1450 2.160 1_556 S
O1458 C1467 1.239 . S
O1459 Mn1452 2.089 . S
O1459 C1467 1.256 . S
O1460 Mn1455 2.251 . S
O1460 C1465 1.241 . S
O1461 Mn1455 2.087 . S
O1461 C1466 1.256 . S
C1462 O1468 1.278 . S
C1462 O1469 1.241 . S
C1463 O1449 1.244 . S
C1463 O1451 1.256 . S
C1464 O1453 1.239 . S
C1464 O1457 1.256 . S
C1465 O1454 1.278 . S
C1465 O1460 1.241 . S
C1466 O1456 1.244 . S
C1466 O1461 1.256 . S
C1467 O1458 1.239 . S
C1467 O1459 1.256 . S
O1468 Mn1450 2.221 . S
O1468 Mn1452 2.290 1_554 S
O1468 C1462 1.278 . S
O1469 Mn1452 2.251 1_554 S
O1469 C1462 1.241 . S
O1470 Mn1471 2.163 . S
O1470 C1484 1.244 . S
Mn1471 O1470 2.163 . S
Mn1471 O1474 2.160 . S
Mn1471 O1475 2.221 . S
Mn1471 O1477 2.163 . S
Mn1471 O1479 2.160 . S
Mn1471 O1489 2.221 . S
O1472 Mn1473 2.087 . S
O1472 C1484 1.256 . S
Mn1473 O1472 2.087 . S
Mn1473 O1480 2.089 . S
Mn1473 O1489 2.290 . S
Mn1473 O1490 2.251 . S
O1474 Mn1471 2.160 . S
O1474 C1485 1.239 . S
O1475 Mn1471 2.221 . S
O1475 Mn1476 2.290 . S
O1475 C1486 1.278 . S
Mn1476 O1475 2.290 . S
Mn1476 O1478 2.089 . S
Mn1476 O1481 2.251 . S
Mn1476 O1482 2.087 . S
O1477 Mn1471 2.163 . S
O1477 C1487 1.244 . S
O1478 Mn1476 2.089 . S
O1478 C1485 1.256 . S
O1479 Mn1471 2.160 . S
O1479 C1488 1.239 . S
O1480 Mn1473 2.089 . S
O1480 C1488 1.256 . S
O1481 Mn1476 2.251 . S
O1481 C1486 1.241 . S
O1482 Mn1476 2.087 . S
O1482 C1487 1.256 . S
C1483 O1489 1.278 . S
C1483 O1490 1.241 . S
C1484 O1470 1.244 . S
C1484 O1472 1.256 . S
C1485 O1474 1.239 . S
C1485 O1478 1.256 . S
C1486 O1475 1.278 . S
C1486 O1481 1.241 . S
C1487 O1477 1.244 . S
C1487 O1482 1.256 . S
C1488 O1479 1.239 . S
C1488 O1480 1.256 . S
O1489 Mn1471 2.221 . S
O1489 Mn1473 2.290 . S
O1489 C1483 1.278 . S
O1490 Mn1473 2.251 . S
O1490 C1483 1.241 . S
O1491 Mn1492 2.163 . S
O1491 C1505 1.244 . S
Mn1492 O1491 2.163 . S
Mn1492 O1495 2.160 . S
Mn1492 O1496 2.221 . S
Mn1492 O1498 2.163 . S
Mn1492 O1500 2.160 . S
Mn1492 O1510 2.221 . S
O1493 Mn1494 2.087 . S
O1493 C1505 1.256 . S
Mn1494 O1493 2.087 . S
Mn1494 O1501 2.089 . S
Mn1494 O1510 2.290 . S
Mn1494 O1511 2.251 . S
O1495 Mn1492 2.160 . S
O1495 C1506 1.239 . S
O1496 Mn1492 2.221 . S
O1496 Mn1497 2.290 . S
O1496 C1507 1.278 . S
Mn1497 O1496 2.290 . S
Mn1497 O1499 2.089 . S
Mn1497 O1502 2.251 1_655 S
Mn1497 O1503 2.087 . S
O1498 Mn1492 2.163 . S
O1498 C1508 1.244 . S
O1499 Mn1497 2.089 . S
O1499 C1506 1.256 . S
O1500 Mn1492 2.160 . S
O1500 C1509 1.239 . S
O1501 Mn1494 2.089 . S
O1501 C1509 1.256 . S
O1502 Mn1497 2.251 1_455 S
O1502 C1507 1.241 1_455 S
O1503 Mn1497 2.087 . S
O1503 C1508 1.256 . S
C1504 O1510 1.278 . S
C1504 O1511 1.241 . S
C1505 O1491 1.244 . S
C1505 O1493 1.256 . S
C1506 O1495 1.239 . S
C1506 O1499 1.256 . S
C1507 O1496 1.278 . S
C1507 O1502 1.241 1_655 S
C1508 O1498 1.244 . S
C1508 O1503 1.256 . S
C1509 O1500 1.239 . S
C1509 O1501 1.256 . S
O1510 Mn1492 2.221 . S
O1510 Mn1494 2.290 . S
O1510 C1504 1.278 . S
O1511 Mn1494 2.251 . S
O1511 C1504 1.241 . S
O1512 Mn1513 2.163 . S
O1512 C1526 1.244 . S
Mn1513 O1512 2.163 . S
Mn1513 O1516 2.160 . S
Mn1513 O1517 2.221 . S
Mn1513 O1519 2.163 . S
Mn1513 O1521 2.160 . S
Mn1513 O1531 2.221 . S
O1514 Mn1515 2.087 . S
O1514 C1526 1.256 . S
Mn1515 O1514 2.087 . S
Mn1515 O1522 2.089 . S
Mn1515 O1531 2.290 . S
Mn1515 O1532 2.251 . S
O1516 Mn1513 2.160 . S
O1516 C1527 1.239 . S
O1517 Mn1513 2.221 . S
O1517 Mn1518 2.290 . S
O1517 C1528 1.278 . S
Mn1518 O1517 2.290 . S
Mn1518 O1520 2.089 . S
Mn1518 O1523 2.251 . S
Mn1518 O1524 2.087 . S
O1519 Mn1513 2.163 . S
O1519 C1529 1.244 . S
O1520 Mn1518 2.089 . S
O1520 C1527 1.256 . S
O1521 Mn1513 2.160 . S
O1521 C1530 1.239 . S
O1522 Mn1515 2.089 . S
O1522 C1530 1.256 . S
O1523 Mn1518 2.251 . S
O1523 C1528 1.241 . S
O1524 Mn1518 2.087 . S
O1524 C1529 1.256 . S
C1525 O1531 1.278 . S
C1525 O1532 1.241 . S
C1526 O1512 1.244 . S
C1526 O1514 1.256 . S
C1527 O1516 1.239 . S
C1527 O1520 1.256 . S
C1528 O1517 1.278 . S
C1528 O1523 1.241 . S
C1529 O1519 1.244 . S
C1529 O1524 1.256 . S
C1530 O1521 1.239 . S
C1530 O1522 1.256 . S
O1531 Mn1513 2.221 . S
O1531 Mn1515 2.290 . S
O1531 C1525 1.278 . S
O1532 Mn1515 2.251 . S
O1532 C1525 1.241 . S
O1533 Mn1534 2.163 . S
O1533 C1547 1.244 . S
Mn1534 O1533 2.163 . S
Mn1534 O1537 2.160 . S
Mn1534 O1538 2.221 . S
Mn1534 O1540 2.163 . S
Mn1534 O1542 2.160 . S
Mn1534 O1552 2.221 . S
O1535 Mn1536 2.087 . S
O1535 C1547 1.256 . S
Mn1536 O1535 2.087 . S
Mn1536 O1543 2.089 . S
Mn1536 O1552 2.290 . S
Mn1536 O1553 2.251 . S
O1537 Mn1534 2.160 . S
O1537 C1548 1.239 . S
O1538 Mn1534 2.221 . S
O1538 Mn1539 2.290 . S
O1538 C1549 1.278 . S
Mn1539 O1538 2.290 . S
Mn1539 O1541 2.089 . S
Mn1539 O1544 2.251 1_556 S
Mn1539 O1545 2.087 . S
O1540 Mn1534 2.163 . S
O1540 C1550 1.244 . S
O1541 Mn1539 2.089 . S
O1541 C1548 1.256 . S
O1542 Mn1534 2.160 . S
O1542 C1551 1.239 . S
O1543 Mn1536 2.089 . S
O1543 C1551 1.256 . S
O1544 Mn1539 2.251 1_554 S
O1544 C1549 1.241 1_554 S
O1545 Mn1539 2.087 . S
O1545 C1550 1.256 . S
C1546 O1552 1.278 . S
C1546 O1553 1.241 . S
C1547 O1533 1.244 . S
C1547 O1535 1.256 . S
C1548 O1537 1.239 . S
C1548 O1541 1.256 . S
C1549 O1538 1.278 . S
C1549 O1544 1.241 1_556 S
C1550 O1540 1.244 . S
C1550 O1545 1.256 . S
C1551 O1542 1.239 . S
C1551 O1543 1.256 . S
O1552 Mn1534 2.221 . S
O1552 Mn1536 2.290 . S
O1552 C1546 1.278 . S
O1553 Mn1536 2.251 . S
O1553 C1546 1.241 . S
O1554 Mn1555 2.163 1_655 S
O1554 C1568 1.244 . S
Mn1555 O1554 2.163 1_455 S
Mn1555 O1558 2.160 . S
Mn1555 O1559 2.221 . S
Mn1555 O1561 2.163 . S
Mn1555 O1563 2.160 1_455 S
Mn1555 O1573 2.221 . S
O1556 Mn1557 2.087 . S
O1556 C1568 1.256 . S
Mn1557 O1556 2.087 . S
Mn1557 O1564 2.089 . S
Mn1557 O1573 2.290 1_655 S
Mn1557 O1574 2.251 1_655 S
O1558 Mn1555 2.160 . S
O1558 C1569 1.239 . S
O1559 Mn1555 2.221 . S
O1559 Mn1560 2.290 . S
O1559 C1570 1.278 . S
Mn1560 O1559 2.290 . S
Mn1560 O1562 2.089 . S
Mn1560 O1565 2.251 . S
Mn1560 O1566 2.087 . S
O1561 Mn1555 2.163 . S
O1561 C1571 1.244 . S
O1562 Mn1560 2.089 . S
O1562 C1569 1.256 . S
O1563 Mn1555 2.160 1_655 S
O1563 C1572 1.239 . S
O1564 Mn1557 2.089 . S
O1564 C1572 1.256 . S
O1565 Mn1560 2.251 . S
O1565 C1570 1.241 . S
O1566 Mn1560 2.087 . S
O1566 C1571 1.256 . S
C1567 O1573 1.278 . S
C1567 O1574 1.241 . S
C1568 O1554 1.244 . S
C1568 O1556 1.256 . S
C1569 O1558 1.239 . S
C1569 O1562 1.256 . S
C1570 O1559 1.278 . S
C1570 O1565 1.241 . S
C1571 O1561 1.244 . S
C1571 O1566 1.256 . S
C1572 O1563 1.239 . S
C1572 O1564 1.256 . S
O1573 Mn1555 2.221 . S
O1573 Mn1557 2.290 1_455 S
O1573 C1567 1.278 . S
O1574 Mn1557 2.251 1_455 S
O1574 C1567 1.241 . S
O1575 Mn1576 2.163 . S
O1575 C1589 1.244 . S
Mn1576 O1575 2.163 . S
Mn1576 O1579 2.160 . S
Mn1576 O1580 2.221 . S
Mn1576 O1582 2.163 . S
Mn1576 O1584 2.160 . S
Mn1576 O1594 2.221 . S
O1577 Mn1578 2.087 . S
O1577 C1589 1.256 . S
Mn1578 O1577 2.087 . S
Mn1578 O1585 2.089 . S
Mn1578 O1594 2.290 . S
Mn1578 O1595 2.251 . S
O1579 Mn1576 2.160 . S
O1579 C1590 1.239 . S
O1580 Mn1576 2.221 . S
O1580 Mn1581 2.290 . S
O1580 C1591 1.278 . S
Mn1581 O1580 2.290 . S
Mn1581 O1583 2.089 . S
Mn1581 O1586 2.251 . S
Mn1581 O1587 2.087 . S
O1582 Mn1576 2.163 . S
O1582 C1592 1.244 . S
O1583 Mn1581 2.089 . S
O1583 C1590 1.256 . S
O1584 Mn1576 2.160 . S
O1584 C1593 1.239 . S
O1585 Mn1578 2.089 . S
O1585 C1593 1.256 . S
O1586 Mn1581 2.251 . S
O1586 C1591 1.241 . S
O1587 Mn1581 2.087 . S
O1587 C1592 1.256 . S
C1588 O1594 1.278 . S
C1588 O1595 1.241 . S
C1589 O1575 1.244 . S
C1589 O1577 1.256 . S
C1590 O1579 1.239 . S
C1590 O1583 1.256 . S
C1591 O1580 1.278 . S
C1591 O1586 1.241 . S
C1592 O1582 1.244 . S
C1592 O1587 1.256 . S
C1593 O1584 1.239 . S
C1593 O1585 1.256 . S
O1594 Mn1576 2.221 . S
O1594 Mn1578 2.290 . S
O1594 C1588 1.278 . S
O1595 Mn1578 2.251 . S
O1595 C1588 1.241 . S
O1596 Mn1597 2.163 . S
O1596 C1610 1.244 . S
Mn1597 O1596 2.163 . S
Mn1597 O1600 2.160 . S
Mn1597 O1601 2.221 . S
Mn1597 O1603 2.163 . S
Mn1597 O1605 2.160 . S
Mn1597 O1615 2.221 . S
O1598 Mn1599 2.087 . S
O1598 C1610 1.256 . S
Mn1599 O1598 2.087 . S
Mn1599 O1606 2.089 . S
Mn1599 O1615 2.290 . S
Mn1599 O1616 2.251 . S
O1600 Mn1597 2.160 . S
O1600 C1611 1.239 . S
O1601 Mn1597 2.221 . S
O1601 Mn1602 2.290 . S
O1601 C1612 1.278 . S
Mn1602 O1601 2.290 . S
Mn1602 O1604 2.089 . S
Mn1602 O1607 2.251 . S
Mn1602 O1608 2.087 . S
O1603 Mn1597 2.163 . S
O1603 C1613 1.244 . S
O1604 Mn1602 2.089 . S
O1604 C1611 1.256 . S
O1605 Mn1597 2.160 . S
O1605 C1614 1.239 . S
O1606 Mn1599 2.089 . S
O1606 C1614 1.256 . S
O1607 Mn1602 2.251 . S
O1607 C1612 1.241 . S
O1608 Mn1602 2.087 . S
O1608 C1613 1.256 . S
C1609 O1615 1.278 . S
C1609 O1616 1.241 . S
C1610 O1596 1.244 . S
C1610 O1598 1.256 . S
C1611 O1600 1.239 . S
C1611 O1604 1.256 . S
C1612 O1601 1.278 . S
C1612 O1607 1.241 . S
C1613 O1603 1.244 . S
C1613 O1608 1.256 . S
C1614 O1605 1.239 . S
C1614 O1606 1.256 . S
O1615 Mn1597 2.221 . S
O1615 Mn1599 2.290 . S
O1615 C1609 1.278 . S
O1616 Mn1599 2.251 . S
O1616 C1609 1.241 . S
O1617 Mn1618 2.163 . S
O1617 C1631 1.244 . S
Mn1618 O1617 2.163 . S
Mn1618 O1621 2.160 . S
Mn1618 O1622 2.221 . S
Mn1618 O1624 2.163 . S
Mn1618 O1626 2.160 . S
Mn1618 O1636 2.221 . S
O1619 Mn1620 2.087 . S
O1619 C1631 1.256 . S
Mn1620 O1619 2.087 . S
Mn1620 O1627 2.089 . S
Mn1620 O1636 2.290 . S
Mn1620 O1637 2.251 . S
O1621 Mn1618 2.160 . S
O1621 C1632 1.239 . S
O1622 Mn1618 2.221 . S
O1622 Mn1623 2.290 . S
O1622 C1633 1.278 . S
Mn1623 O1622 2.290 . S
Mn1623 O1625 2.089 . S
Mn1623 O1628 2.251 1_554 S
Mn1623 O1629 2.087 . S
O1624 Mn1618 2.163 . S
O1624 C1634 1.244 . S
O1625 Mn1623 2.089 . S
O1625 C1632 1.256 . S
O1626 Mn1618 2.160 . S
O1626 C1635 1.239 . S
O1627 Mn1620 2.089 . S
O1627 C1635 1.256 . S
O1628 Mn1623 2.251 1_556 S
O1628 C1633 1.241 1_556 S
O1629 Mn1623 2.087 . S
O1629 C1634 1.256 . S
C1630 O1636 1.278 . S
C1630 O1637 1.241 . S
C1631 O1617 1.244 . S
C1631 O1619 1.256 . S
C1632 O1621 1.239 . S
C1632 O1625 1.256 . S
C1633 O1622 1.278 . S
C1633 O1628 1.241 1_554 S
C1634 O1624 1.244 . S
C1634 O1629 1.256 . S
C1635 O1626 1.239 . S
C1635 O1627 1.256 . S
O1636 Mn1618 2.221 . S
O1636 Mn1620 2.290 . S
O1636 C1630 1.278 . S
O1637 Mn1620 2.251 . S
O1637 C1630 1.241 . S
O1638 Mn1639 2.163 . S
O1638 C1652 1.244 . S
Mn1639 O1638 2.163 . S
Mn1639 O1642 2.160 1_455 S
Mn1639 O1643 2.221 . S
Mn1639 O1645 2.163 1_455 S
Mn1639 O1647 2.160 . S
Mn1639 O1657 2.221 . S
O1640 Mn1641 2.087 . S
O1640 C1652 1.256 . S
Mn1641 O1640 2.087 . S
Mn1641 O1648 2.089 . S
Mn1641 O1657 2.290 . S
Mn1641 O1658 2.251 . S
O1642 Mn1639 2.160 1_655 S
O1642 C1653 1.239 . S
O1643 Mn1639 2.221 . S
O1643 Mn1644 2.290 1_455 S
O1643 C1654 1.278 . S
Mn1644 O1643 2.290 1_655 S
Mn1644 O1646 2.089 . S
Mn1644 O1649 2.251 1_655 S
Mn1644 O1650 2.087 . S
O1645 Mn1639 2.163 1_655 S
O1645 C1655 1.244 . S
O1646 Mn1644 2.089 . S
O1646 C1653 1.256 . S
O1647 Mn1639 2.160 . S
O1647 C1656 1.239 . S
O1648 Mn1641 2.089 . S
O1648 C1656 1.256 . S
O1649 Mn1644 2.251 1_455 S
O1649 C1654 1.241 . S
O1650 Mn1644 2.087 . S
O1650 C1655 1.256 . S
C1651 O1657 1.278 . S
C1651 O1658 1.241 . S
C1652 O1638 1.244 . S
C1652 O1640 1.256 . S
C1653 O1642 1.239 . S
C1653 O1646 1.256 . S
C1654 O1643 1.278 . S
C1654 O1649 1.241 . S
C1655 O1645 1.244 . S
C1655 O1650 1.256 . S
C1656 O1647 1.239 . S
C1656 O1648 1.256 . S
O1657 Mn1639 2.221 . S
O1657 Mn1641 2.290 . S
O1657 C1651 1.278 . S
O1658 Mn1641 2.251 . S
O1658 C1651 1.241 . S
O1659 Mn1660 2.163 . S
O1659 C1673 1.244 . S
Mn1660 O1659 2.163 . S
Mn1660 O1663 2.160 . S
Mn1660 O1664 2.221 . S
Mn1660 O1666 2.163 . S
Mn1660 O1668 2.160 . S
Mn1660 O1678 2.221 . S
O1661 Mn1662 2.087 . S
O1661 C1673 1.256 . S
Mn1662 O1661 2.087 . S
Mn1662 O1669 2.089 . S
Mn1662 O1678 2.290 . S
Mn1662 O1679 2.251 . S
O1663 Mn1660 2.160 . S
O1663 C1674 1.239 . S
O1664 Mn1660 2.221 . S
O1664 Mn1665 2.290 . S
O1664 C1675 1.278 . S
Mn1665 O1664 2.290 . S
Mn1665 O1667 2.089 . S
Mn1665 O1670 2.251 . S
Mn1665 O1671 2.087 . S
O1666 Mn1660 2.163 . S
O1666 C1676 1.244 . S
O1667 Mn1665 2.089 . S
O1667 C1674 1.256 . S
O1668 Mn1660 2.160 . S
O1668 C1677 1.239 . S
O1669 Mn1662 2.089 . S
O1669 C1677 1.256 . S
O1670 Mn1665 2.251 . S
O1670 C1675 1.241 . S
O1671 Mn1665 2.087 . S
O1671 C1676 1.256 . S
C1672 O1678 1.278 . S
C1672 O1679 1.241 . S
C1673 O1659 1.244 . S
C1673 O1661 1.256 . S
C1674 O1663 1.239 . S
C1674 O1667 1.256 . S
C1675 O1664 1.278 . S
C1675 O1670 1.241 . S
C1676 O1666 1.244 . S
C1676 O1671 1.256 . S
C1677 O1668 1.239 . S
C1677 O1669 1.256 . S
O1678 Mn1660 2.221 . S
O1678 Mn1662 2.290 . S
O1678 C1672 1.278 . S
O1679 Mn1662 2.251 . S
O1679 C1672 1.241 . S
O1680 Mn1681 2.163 . S
O1680 C1694 1.244 . S
Mn1681 O1680 2.163 . S
Mn1681 O1684 2.160 . S
Mn1681 O1685 2.221 . S
Mn1681 O1687 2.163 . S
Mn1681 O1689 2.160 . S
Mn1681 O1699 2.221 . S
O1682 Mn1683 2.087 . S
O1682 C1694 1.256 . S
Mn1683 O1682 2.087 . S
Mn1683 O1690 2.089 . S
Mn1683 O1699 2.290 . S
Mn1683 O1700 2.251 . S
O1684 Mn1681 2.160 . S
O1684 C1695 1.239 . S
O1685 Mn1681 2.221 . S
O1685 Mn1686 2.290 . S
O1685 C1696 1.278 . S
Mn1686 O1685 2.290 . S
Mn1686 O1688 2.089 . S
Mn1686 O1691 2.251 . S
Mn1686 O1692 2.087 . S
O1687 Mn1681 2.163 . S
O1687 C1697 1.244 . S
O1688 Mn1686 2.089 . S
O1688 C1695 1.256 . S
O1689 Mn1681 2.160 . S
O1689 C1698 1.239 . S
O1690 Mn1683 2.089 . S
O1690 C1698 1.256 . S
O1691 Mn1686 2.251 . S
O1691 C1696 1.241 . S
O1692 Mn1686 2.087 . S
O1692 C1697 1.256 . S
C1693 O1699 1.278 . S
C1693 O1700 1.241 . S
C1694 O1680 1.244 . S
C1694 O1682 1.256 . S
C1695 O1684 1.239 . S
C1695 O1688 1.256 . S
C1696 O1685 1.278 . S
C1696 O1691 1.241 . S
C1697 O1687 1.244 . S
C1697 O1692 1.256 . S
C1698 O1689 1.239 . S
C1698 O1690 1.256 . S
O1699 Mn1681 2.221 . S
O1699 Mn1683 2.290 . S
O1699 C1693 1.278 . S
O1700 Mn1683 2.251 . S
O1700 C1693 1.241 . S
O1701 Mn1702 2.163 . S
O1701 C1715 1.244 . S
Mn1702 O1701 2.163 . S
Mn1702 O1705 2.160 . S
Mn1702 O1706 2.221 . S
Mn1702 O1708 2.163 . S
Mn1702 O1710 2.160 . S
Mn1702 O1720 2.221 . S
O1703 Mn1704 2.087 . S
O1703 C1715 1.256 . S
Mn1704 O1703 2.087 . S
Mn1704 O1711 2.089 . S
Mn1704 O1720 2.290 . S
Mn1704 O1721 2.251 . S
O1705 Mn1702 2.160 . S
O1705 C1716 1.239 . S
O1706 Mn1702 2.221 . S
O1706 Mn1707 2.290 . S
O1706 C1717 1.278 . S
Mn1707 O1706 2.290 . S
Mn1707 O1709 2.089 . S
Mn1707 O1712 2.251 . S
Mn1707 O1713 2.087 . S
O1708 Mn1702 2.163 . S
O1708 C1718 1.244 . S
O1709 Mn1707 2.089 . S
O1709 C1716 1.256 . S
O1710 Mn1702 2.160 . S
O1710 C1719 1.239 . S
O1711 Mn1704 2.089 . S
O1711 C1719 1.256 . S
O1712 Mn1707 2.251 . S
O1712 C1717 1.241 . S
O1713 Mn1707 2.087 . S
O1713 C1718 1.256 . S
C1714 O1720 1.278 . S
C1714 O1721 1.241 . S
C1715 O1701 1.244 . S
C1715 O1703 1.256 . S
C1716 O1705 1.239 . S
C1716 O1709 1.256 . S
C1717 O1706 1.278 . S
C1717 O1712 1.241 . S
C1718 O1708 1.244 . S
C1718 O1713 1.256 . S
C1719 O1710 1.239 . S
C1719 O1711 1.256 . S
O1720 Mn1702 2.221 . S
O1720 Mn1704 2.290 . S
O1720 C1714 1.278 . S
O1721 Mn1704 2.251 . S
O1721 C1714 1.241 . S
O1722 Mn1723 2.163 . S
O1722 C1736 1.244 . S
Mn1723 O1722 2.163 . S
Mn1723 O1726 2.160 . S
Mn1723 O1727 2.221 . S
Mn1723 O1729 2.163 . S
Mn1723 O1731 2.160 . S
Mn1723 O1741 2.221 . S
O1724 Mn1725 2.087 . S
O1724 C1736 1.256 . S
Mn1725 O1724 2.087 . S
Mn1725 O1732 2.089 . S
Mn1725 O1741 2.290 . S
Mn1725 O1742 2.251 . S
O1726 Mn1723 2.160 . S
O1726 C1737 1.239 . S
O1727 Mn1723 2.221 . S
O1727 Mn1728 2.290 . S
O1727 C1738 1.278 . S
Mn1728 O1727 2.290 . S
Mn1728 O1730 2.089 . S
Mn1728 O1733 2.251 . S
Mn1728 O1734 2.087 . S
O1729 Mn1723 2.163 . S
O1729 C1739 1.244 . S
O1730 Mn1728 2.089 . S
O1730 C1737 1.256 . S
O1731 Mn1723 2.160 . S
O1731 C1740 1.239 . S
O1732 Mn1725 2.089 . S
O1732 C1740 1.256 . S
O1733 Mn1728 2.251 . S
O1733 C1738 1.241 . S
O1734 Mn1728 2.087 . S
O1734 C1739 1.256 . S
C1735 O1741 1.278 . S
C1735 O1742 1.241 . S
C1736 O1722 1.244 . S
C1736 O1724 1.256 . S
C1737 O1726 1.239 . S
C1737 O1730 1.256 . S
C1738 O1727 1.278 . S
C1738 O1733 1.241 . S
C1739 O1729 1.244 . S
C1739 O1734 1.256 . S
C1740 O1731 1.239 . S
C1740 O1732 1.256 . S
O1741 Mn1723 2.221 . S
O1741 Mn1725 2.290 . S
O1741 C1735 1.278 . S
O1742 Mn1725 2.251 . S
O1742 C1735 1.241 . S
O1743 Mn1744 2.163 . S
O1743 C1757 1.244 . S
Mn1744 O1743 2.163 . S
Mn1744 O1747 2.160 . S
Mn1744 O1748 2.221 . S
Mn1744 O1750 2.163 . S
Mn1744 O1752 2.160 . S
Mn1744 O1762 2.221 . S
O1745 Mn1746 2.087 . S
O1745 C1757 1.256 . S
Mn1746 O1745 2.087 . S
Mn1746 O1753 2.089 . S
Mn1746 O1762 2.290 . S
Mn1746 O1763 2.251 . S
O1747 Mn1744 2.160 . S
O1747 C1758 1.239 . S
O1748 Mn1744 2.221 . S
O1748 Mn1749 2.290 . S
O1748 C1759 1.278 . S
Mn1749 O1748 2.290 . S
Mn1749 O1751 2.089 . S
Mn1749 O1754 2.251 . S
Mn1749 O1755 2.087 . S
O1750 Mn1744 2.163 . S
O1750 C1760 1.244 . S
O1751 Mn1749 2.089 . S
O1751 C1758 1.256 . S
O1752 Mn1744 2.160 . S
O1752 C1761 1.239 . S
O1753 Mn1746 2.089 . S
O1753 C1761 1.256 . S
O1754 Mn1749 2.251 . S
O1754 C1759 1.241 . S
O1755 Mn1749 2.087 . S
O1755 C1760 1.256 . S
C1756 O1762 1.278 . S
C1756 O1763 1.241 . S
C1757 O1743 1.244 . S
C1757 O1745 1.256 . S
C1758 O1747 1.239 . S
C1758 O1751 1.256 . S
C1759 O1748 1.278 . S
C1759 O1754 1.241 . S
C1760 O1750 1.244 . S
C1760 O1755 1.256 . S
C1761 O1752 1.239 . S
C1761 O1753 1.256 . S
O1762 Mn1744 2.221 . S
O1762 Mn1746 2.290 . S
O1762 C1756 1.278 . S
O1763 Mn1746 2.251 . S
O1763 C1756 1.241 . S
O1764 Mn1765 2.163 . S
O1764 C1778 1.244 . S
Mn1765 O1764 2.163 . S
Mn1765 O1768 2.160 . S
Mn1765 O1769 2.221 . S
Mn1765 O1771 2.163 . S
Mn1765 O1773 2.160 . S
Mn1765 O1783 2.221 . S
O1766 Mn1767 2.087 . S
O1766 C1778 1.256 . S
Mn1767 O1766 2.087 . S
Mn1767 O1774 2.089 . S
Mn1767 O1783 2.290 . S
Mn1767 O1784 2.251 . S
O1768 Mn1765 2.160 . S
O1768 C1779 1.239 . S
O1769 Mn1765 2.221 . S
O1769 Mn1770 2.290 . S
O1769 C1780 1.278 . S
Mn1770 O1769 2.290 . S
Mn1770 O1772 2.089 . S
Mn1770 O1775 2.251 . S
Mn1770 O1776 2.087 . S
O1771 Mn1765 2.163 . S
O1771 C1781 1.244 . S
O1772 Mn1770 2.089 . S
O1772 C1779 1.256 . S
O1773 Mn1765 2.160 . S
O1773 C1782 1.239 . S
O1774 Mn1767 2.089 . S
O1774 C1782 1.256 . S
O1775 Mn1770 2.251 . S
O1775 C1780 1.241 . S
O1776 Mn1770 2.087 . S
O1776 C1781 1.256 . S
C1777 O1783 1.278 . S
C1777 O1784 1.241 . S
C1778 O1764 1.244 . S
C1778 O1766 1.256 . S
C1779 O1768 1.239 . S
C1779 O1772 1.256 . S
C1780 O1769 1.278 . S
C1780 O1775 1.241 . S
C1781 O1771 1.244 . S
C1781 O1776 1.256 . S
C1782 O1773 1.239 . S
C1782 O1774 1.256 . S
O1783 Mn1765 2.221 . S
O1783 Mn1767 2.290 . S
O1783 C1777 1.278 . S
O1784 Mn1767 2.251 . S
O1784 C1777 1.241 . S
O1785 Mn1786 2.163 . S
O1785 C1799 1.244 . S
Mn1786 O1785 2.163 . S
Mn1786 O1789 2.160 . S
Mn1786 O1790 2.221 . S
Mn1786 O1792 2.163 . S
Mn1786 O1794 2.160 . S
Mn1786 O1804 2.221 . S
O1787 Mn1788 2.087 . S
O1787 C1799 1.256 . S
Mn1788 O1787 2.087 . S
Mn1788 O1795 2.089 . S
Mn1788 O1804 2.290 . S
Mn1788 O1805 2.251 . S
O1789 Mn1786 2.160 . S
O1789 C1800 1.239 . S
O1790 Mn1786 2.221 . S
O1790 Mn1791 2.290 . S
O1790 C1801 1.278 . S
Mn1791 O1790 2.290 . S
Mn1791 O1793 2.089 . S
Mn1791 O1796 2.251 . S
Mn1791 O1797 2.087 . S
O1792 Mn1786 2.163 . S
O1792 C1802 1.244 . S
O1793 Mn1791 2.089 . S
O1793 C1800 1.256 . S
O1794 Mn1786 2.160 . S
O1794 C1803 1.239 . S
O1795 Mn1788 2.089 . S
O1795 C1803 1.256 . S
O1796 Mn1791 2.251 . S
O1796 C1801 1.241 . S
O1797 Mn1791 2.087 . S
O1797 C1802 1.256 . S
C1798 O1804 1.278 . S
C1798 O1805 1.241 . S
C1799 O1785 1.244 . S
C1799 O1787 1.256 . S
C1800 O1789 1.239 . S
C1800 O1793 1.256 . S
C1801 O1790 1.278 . S
C1801 O1796 1.241 . S
C1802 O1792 1.244 . S
C1802 O1797 1.256 . S
C1803 O1794 1.239 . S
C1803 O1795 1.256 . S
O1804 Mn1786 2.221 . S
O1804 Mn1788 2.290 . S
O1804 C1798 1.278 . S
O1805 Mn1788 2.251 . S
O1805 C1798 1.241 . S
O1806 Mn1807 2.163 . S
O1806 C1820 1.244 . S
Mn1807 O1806 2.163 . S
Mn1807 O1810 2.160 . S
Mn1807 O1811 2.221 . S
Mn1807 O1813 2.163 . S
Mn1807 O1815 2.160 . S
Mn1807 O1825 2.221 . S
O1808 Mn1809 2.087 . S
O1808 C1820 1.256 . S
Mn1809 O1808 2.087 . S
Mn1809 O1816 2.089 . S
Mn1809 O1825 2.290 . S
Mn1809 O1826 2.251 . S
O1810 Mn1807 2.160 . S
O1810 C1821 1.239 . S
O1811 Mn1807 2.221 . S
O1811 Mn1812 2.290 . S
O1811 C1822 1.278 . S
Mn1812 O1811 2.290 . S
Mn1812 O1814 2.089 . S
Mn1812 O1817 2.251 . S
Mn1812 O1818 2.087 . S
O1813 Mn1807 2.163 . S
O1813 C1823 1.244 . S
O1814 Mn1812 2.089 . S
O1814 C1821 1.256 . S
O1815 Mn1807 2.160 . S
O1815 C1824 1.239 . S
O1816 Mn1809 2.089 . S
O1816 C1824 1.256 . S
O1817 Mn1812 2.251 . S
O1817 C1822 1.241 . S
O1818 Mn1812 2.087 . S
O1818 C1823 1.256 . S
C1819 O1825 1.278 . S
C1819 O1826 1.241 . S
C1820 O1806 1.244 . S
C1820 O1808 1.256 . S
C1821 O1810 1.239 . S
C1821 O1814 1.256 . S
C1822 O1811 1.278 . S
C1822 O1817 1.241 . S
C1823 O1813 1.244 . S
C1823 O1818 1.256 . S
C1824 O1815 1.239 . S
C1824 O1816 1.256 . S
O1825 Mn1807 2.221 . S
O1825 Mn1809 2.290 . S
O1825 C1819 1.278 . S
O1826 Mn1809 2.251 . S
O1826 C1819 1.241 . S
O1827 Mn1828 2.163 . S
O1827 C1841 1.244 . S
Mn1828 O1827 2.163 . S
Mn1828 O1831 2.160 . S
Mn1828 O1832 2.221 . S
Mn1828 O1834 2.163 . S
Mn1828 O1836 2.160 . S
Mn1828 O1846 2.221 . S
O1829 Mn1830 2.087 . S
O1829 C1841 1.256 . S
Mn1830 O1829 2.087 . S
Mn1830 O1837 2.089 . S
Mn1830 O1846 2.290 . S
Mn1830 O1847 2.251 . S
O1831 Mn1828 2.160 . S
O1831 C1842 1.239 . S
O1832 Mn1828 2.221 . S
O1832 Mn1833 2.290 . S
O1832 C1843 1.278 . S
Mn1833 O1832 2.290 . S
Mn1833 O1835 2.089 . S
Mn1833 O1838 2.251 . S
Mn1833 O1839 2.087 . S
O1834 Mn1828 2.163 . S
O1834 C1844 1.244 . S
O1835 Mn1833 2.089 . S
O1835 C1842 1.256 . S
O1836 Mn1828 2.160 . S
O1836 C1845 1.239 . S
O1837 Mn1830 2.089 . S
O1837 C1845 1.256 . S
O1838 Mn1833 2.251 . S
O1838 C1843 1.241 . S
O1839 Mn1833 2.087 . S
O1839 C1844 1.256 . S
C1840 O1846 1.278 . S
C1840 O1847 1.241 . S
C1841 O1827 1.244 . S
C1841 O1829 1.256 . S
C1842 O1831 1.239 . S
C1842 O1835 1.256 . S
C1843 O1832 1.278 . S
C1843 O1838 1.241 . S
C1844 O1834 1.244 . S
C1844 O1839 1.256 . S
C1845 O1836 1.239 . S
C1845 O1837 1.256 . S
O1846 Mn1828 2.221 . S
O1846 Mn1830 2.290 . S
O1846 C1840 1.278 . S
O1847 Mn1830 2.251 . S
O1847 C1840 1.241 . S
O1848 Mn1849 2.163 . S
O1848 C1862 1.244 . S
Mn1849 O1848 2.163 . S
Mn1849 O1852 2.160 . S
Mn1849 O1853 2.221 . S
Mn1849 O1855 2.163 . S
Mn1849 O1857 2.160 . S
Mn1849 O1867 2.221 . S
O1850 Mn1851 2.087 . S
O1850 C1862 1.256 . S
Mn1851 O1850 2.087 . S
Mn1851 O1858 2.089 . S
Mn1851 O1867 2.290 . S
Mn1851 O1868 2.251 . S
O1852 Mn1849 2.160 . S
O1852 C1863 1.239 . S
O1853 Mn1849 2.221 . S
O1853 Mn1854 2.290 . S
O1853 C1864 1.278 . S
Mn1854 O1853 2.290 . S
Mn1854 O1856 2.089 . S
Mn1854 O1859 2.251 . S
Mn1854 O1860 2.087 . S
O1855 Mn1849 2.163 . S
O1855 C1865 1.244 . S
O1856 Mn1854 2.089 . S
O1856 C1863 1.256 . S
O1857 Mn1849 2.160 . S
O1857 C1866 1.239 . S
O1858 Mn1851 2.089 . S
O1858 C1866 1.256 . S
O1859 Mn1854 2.251 . S
O1859 C1864 1.241 . S
O1860 Mn1854 2.087 . S
O1860 C1865 1.256 . S
C1861 O1867 1.278 . S
C1861 O1868 1.241 . S
C1862 O1848 1.244 . S
C1862 O1850 1.256 . S
C1863 O1852 1.239 . S
C1863 O1856 1.256 . S
C1864 O1853 1.278 . S
C1864 O1859 1.241 . S
C1865 O1855 1.244 . S
C1865 O1860 1.256 . S
C1866 O1857 1.239 . S
C1866 O1858 1.256 . S
O1867 Mn1849 2.221 . S
O1867 Mn1851 2.290 . S
O1867 C1861 1.278 . S
O1868 Mn1851 2.251 . S
O1868 C1861 1.241 . S
O1869 Mn1870 2.163 . S
O1869 C1883 1.244 . S
Mn1870 O1869 2.163 . S
Mn1870 O1873 2.160 . S
Mn1870 O1874 2.221 . S
Mn1870 O1876 2.163 . S
Mn1870 O1878 2.160 . S
Mn1870 O1888 2.221 . S
O1871 Mn1872 2.087 . S
O1871 C1883 1.256 . S
Mn1872 O1871 2.087 . S
Mn1872 O1879 2.089 . S
Mn1872 O1888 2.290 . S
Mn1872 O1889 2.251 . S
O1873 Mn1870 2.160 . S
O1873 C1884 1.239 . S
O1874 Mn1870 2.221 . S
O1874 Mn1875 2.290 . S
O1874 C1885 1.278 . S
Mn1875 O1874 2.290 . S
Mn1875 O1877 2.089 . S
Mn1875 O1880 2.251 . S
Mn1875 O1881 2.087 . S
O1876 Mn1870 2.163 . S
O1876 C1886 1.244 . S
O1877 Mn1875 2.089 . S
O1877 C1884 1.256 . S
O1878 Mn1870 2.160 . S
O1878 C1887 1.239 . S
O1879 Mn1872 2.089 . S
O1879 C1887 1.256 . S
O1880 Mn1875 2.251 . S
O1880 C1885 1.241 . S
O1881 Mn1875 2.087 . S
O1881 C1886 1.256 . S
C1882 O1888 1.278 . S
C1882 O1889 1.241 . S
C1883 O1869 1.244 . S
C1883 O1871 1.256 . S
C1884 O1873 1.239 . S
C1884 O1877 1.256 . S
C1885 O1874 1.278 . S
C1885 O1880 1.241 . S
C1886 O1876 1.244 . S
C1886 O1881 1.256 . S
C1887 O1878 1.239 . S
C1887 O1879 1.256 . S
O1888 Mn1870 2.221 . S
O1888 Mn1872 2.290 . S
O1888 C1882 1.278 . S
O1889 Mn1872 2.251 . S
O1889 C1882 1.241 . S
O1890 Mn1891 2.163 . S
O1890 C1904 1.244 . S
Mn1891 O1890 2.163 . S
Mn1891 O1894 2.160 . S
Mn1891 O1895 2.221 . S
Mn1891 O1897 2.163 . S
Mn1891 O1899 2.160 . S
Mn1891 O1909 2.221 . S
O1892 Mn1893 2.087 . S
O1892 C1904 1.256 . S
Mn1893 O1892 2.087 . S
Mn1893 O1900 2.089 . S
Mn1893 O1909 2.290 . S
Mn1893 O1910 2.251 . S
O1894 Mn1891 2.160 . S
O1894 C1905 1.239 . S
O1895 Mn1891 2.221 . S
O1895 Mn1896 2.290 . S
O1895 C1906 1.278 . S
Mn1896 O1895 2.290 . S
Mn1896 O1898 2.089 . S
Mn1896 O1901 2.251 . S
Mn1896 O1902 2.087 . S
O1897 Mn1891 2.163 . S
O1897 C1907 1.244 . S
O1898 Mn1896 2.089 . S
O1898 C1905 1.256 . S
O1899 Mn1891 2.160 . S
O1899 C1908 1.239 . S
O1900 Mn1893 2.089 . S
O1900 C1908 1.256 . S
O1901 Mn1896 2.251 . S
O1901 C1906 1.241 . S
O1902 Mn1896 2.087 . S
O1902 C1907 1.256 . S
C1903 O1909 1.278 . S
C1903 O1910 1.241 . S
C1904 O1890 1.244 . S
C1904 O1892 1.256 . S
C1905 O1894 1.239 . S
C1905 O1898 1.256 . S
C1906 O1895 1.278 . S
C1906 O1901 1.241 . S
C1907 O1897 1.244 . S
C1907 O1902 1.256 . S
C1908 O1899 1.239 . S
C1908 O1900 1.256 . S
O1909 Mn1891 2.221 . S
O1909 Mn1893 2.290 . S
O1909 C1903 1.278 . S
O1910 Mn1893 2.251 . S
O1910 C1903 1.241 . S
O1911 Mn1912 2.163 1_556 S
O1911 C1925 1.244 . S
Mn1912 O1911 2.163 1_554 S
Mn1912 O1915 2.160 . S
Mn1912 O1916 2.221 . S
Mn1912 O1918 2.163 . S
Mn1912 O1920 2.160 1_554 S
Mn1912 O1930 2.221 . S
O1913 Mn1914 2.087 . S
O1913 C1925 1.256 . S
Mn1914 O1913 2.087 . S
Mn1914 O1921 2.089 . S
Mn1914 O1930 2.290 1_556 S
Mn1914 O1931 2.251 1_556 S
O1915 Mn1912 2.160 . S
O1915 C1926 1.239 . S
O1916 Mn1912 2.221 . S
O1916 Mn1917 2.290 . S
O1916 C1927 1.278 . S
Mn1917 O1916 2.290 . S
Mn1917 O1919 2.089 . S
Mn1917 O1922 2.251 . S
Mn1917 O1923 2.087 . S
O1918 Mn1912 2.163 . S
O1918 C1928 1.244 . S
O1919 Mn1917 2.089 . S
O1919 C1926 1.256 . S
O1920 Mn1912 2.160 1_556 S
O1920 C1929 1.239 . S
O1921 Mn1914 2.089 . S
O1921 C1929 1.256 . S
O1922 Mn1917 2.251 . S
O1922 C1927 1.241 . S
O1923 Mn1917 2.087 . S
O1923 C1928 1.256 . S
C1924 O1930 1.278 . S
C1924 O1931 1.241 . S
C1925 O1911 1.244 . S
C1925 O1913 1.256 . S
C1926 O1915 1.239 . S
C1926 O1919 1.256 . S
C1927 O1916 1.278 . S
C1927 O1922 1.241 . S
C1928 O1918 1.244 . S
C1928 O1923 1.256 . S
C1929 O1920 1.239 . S
C1929 O1921 1.256 . S
O1930 Mn1912 2.221 . S
O1930 Mn1914 2.290 1_554 S
O1930 C1924 1.278 . S
O1931 Mn1914 2.251 1_554 S
O1931 C1924 1.241 . S
O1932 Mn1933 2.163 . S
O1932 C1946 1.244 . S
Mn1933 O1932 2.163 . S
Mn1933 O1936 2.160 . S
Mn1933 O1937 2.221 . S
Mn1933 O1939 2.163 . S
Mn1933 O1941 2.160 . S
Mn1933 O1951 2.221 . S
O1934 Mn1935 2.087 . S
O1934 C1946 1.256 . S
Mn1935 O1934 2.087 . S
Mn1935 O1942 2.089 . S
Mn1935 O1951 2.290 . S
Mn1935 O1952 2.251 . S
O1936 Mn1933 2.160 . S
O1936 C1947 1.239 . S
O1937 Mn1933 2.221 . S
O1937 Mn1938 2.290 . S
O1937 C1948 1.278 . S
Mn1938 O1937 2.290 . S
Mn1938 O1940 2.089 . S
Mn1938 O1943 2.251 . S
Mn1938 O1944 2.087 . S
O1939 Mn1933 2.163 . S
O1939 C1949 1.244 . S
O1940 Mn1938 2.089 . S
O1940 C1947 1.256 . S
O1941 Mn1933 2.160 . S
O1941 C1950 1.239 . S
O1942 Mn1935 2.089 . S
O1942 C1950 1.256 . S
O1943 Mn1938 2.251 . S
O1943 C1948 1.241 . S
O1944 Mn1938 2.087 . S
O1944 C1949 1.256 . S
C1945 O1951 1.278 . S
C1945 O1952 1.241 . S
C1946 O1932 1.244 . S
C1946 O1934 1.256 . S
C1947 O1936 1.239 . S
C1947 O1940 1.256 . S
C1948 O1937 1.278 . S
C1948 O1943 1.241 . S
C1949 O1939 1.244 . S
C1949 O1944 1.256 . S
C1950 O1941 1.239 . S
C1950 O1942 1.256 . S
O1951 Mn1933 2.221 . S
O1951 Mn1935 2.290 . S
O1951 C1945 1.278 . S
O1952 Mn1935 2.251 . S
O1952 C1945 1.241 . S
O1953 Mn1954 2.163 1_554 S
O1953 C1967 1.244 . S
Mn1954 O1953 2.163 1_556 S
Mn1954 O1957 2.160 . S
Mn1954 O1958 2.221 . S
Mn1954 O1960 2.163 . S
Mn1954 O1962 2.160 1_556 S
Mn1954 O1972 2.221 . S
O1955 Mn1956 2.087 . S
O1955 C1967 1.256 . S
Mn1956 O1955 2.087 . S
Mn1956 O1963 2.089 . S
Mn1956 O1972 2.290 1_554 S
Mn1956 O1973 2.251 1_554 S
O1957 Mn1954 2.160 . S
O1957 C1968 1.239 . S
O1958 Mn1954 2.221 . S
O1958 Mn1959 2.290 . S
O1958 C1969 1.278 . S
Mn1959 O1958 2.290 . S
Mn1959 O1961 2.089 . S
Mn1959 O1964 2.251 . S
Mn1959 O1965 2.087 . S
O1960 Mn1954 2.163 . S
O1960 C1970 1.244 . S
O1961 Mn1959 2.089 . S
O1961 C1968 1.256 . S
O1962 Mn1954 2.160 1_554 S
O1962 C1971 1.239 . S
O1963 Mn1956 2.089 . S
O1963 C1971 1.256 . S
O1964 Mn1959 2.251 . S
O1964 C1969 1.241 . S
O1965 Mn1959 2.087 . S
O1965 C1970 1.256 . S
C1966 O1972 1.278 . S
C1966 O1973 1.241 . S
C1967 O1953 1.244 . S
C1967 O1955 1.256 . S
C1968 O1957 1.239 . S
C1968 O1961 1.256 . S
C1969 O1958 1.278 . S
C1969 O1964 1.241 . S
C1970 O1960 1.244 . S
C1970 O1965 1.256 . S
C1971 O1962 1.239 . S
C1971 O1963 1.256 . S
O1972 Mn1954 2.221 . S
O1972 Mn1956 2.290 1_556 S
O1972 C1966 1.278 . S
O1973 Mn1956 2.251 1_556 S
O1973 C1966 1.241 . S
O1974 Mn1975 2.163 . S
O1974 C1988 1.244 . S
Mn1975 O1974 2.163 . S
Mn1975 O1978 2.160 . S
Mn1975 O1979 2.221 . S
Mn1975 O1981 2.163 . S
Mn1975 O1983 2.160 . S
Mn1975 O1993 2.221 . S
O1976 Mn1977 2.087 . S
O1976 C1988 1.256 . S
Mn1977 O1976 2.087 . S
Mn1977 O1984 2.089 . S
Mn1977 O1993 2.290 . S
Mn1977 O1994 2.251 . S
O1978 Mn1975 2.160 . S
O1978 C1989 1.239 . S
O1979 Mn1975 2.221 . S
O1979 Mn1980 2.290 . S
O1979 C1990 1.278 . S
Mn1980 O1979 2.290 . S
Mn1980 O1982 2.089 . S
Mn1980 O1985 2.251 . S
Mn1980 O1986 2.087 . S
O1981 Mn1975 2.163 . S
O1981 C1991 1.244 . S
O1982 Mn1980 2.089 . S
O1982 C1989 1.256 . S
O1983 Mn1975 2.160 . S
O1983 C1992 1.239 . S
O1984 Mn1977 2.089 . S
O1984 C1992 1.256 . S
O1985 Mn1980 2.251 . S
O1985 C1990 1.241 . S
O1986 Mn1980 2.087 . S
O1986 C1991 1.256 . S
C1987 O1993 1.278 . S
C1987 O1994 1.241 . S
C1988 O1974 1.244 . S
C1988 O1976 1.256 . S
C1989 O1978 1.239 . S
C1989 O1982 1.256 . S
C1990 O1979 1.278 . S
C1990 O1985 1.241 . S
C1991 O1981 1.244 . S
C1991 O1986 1.256 . S
C1992 O1983 1.239 . S
C1992 O1984 1.256 . S
O1993 Mn1975 2.221 . S
O1993 Mn1977 2.290 . S
O1993 C1987 1.278 . S
O1994 Mn1977 2.251 . S
O1994 C1987 1.241 . S
O1995 Mn1996 2.163 . S
O1995 C2009 1.244 . S
Mn1996 O1995 2.163 . S
Mn1996 O1999 2.160 . S
Mn1996 O2000 2.221 . S
Mn1996 O2002 2.163 . S
Mn1996 O2004 2.160 . S
Mn1996 O2014 2.221 . S
O1997 Mn1998 2.087 . S
O1997 C2009 1.256 . S
Mn1998 O1997 2.087 . S
Mn1998 O2005 2.089 . S
Mn1998 O2014 2.290 . S
Mn1998 O2015 2.251 . S
O1999 Mn1996 2.160 . S
O1999 C2010 1.239 . S
O2000 Mn1996 2.221 . S
O2000 Mn2001 2.290 . S
O2000 C2011 1.278 . S
Mn2001 O2000 2.290 . S
Mn2001 O2003 2.089 . S
Mn2001 O2006 2.251 1_455 S
Mn2001 O2007 2.087 . S
O2002 Mn1996 2.163 . S
O2002 C2012 1.244 . S
O2003 Mn2001 2.089 . S
O2003 C2010 1.256 . S
O2004 Mn1996 2.160 . S
O2004 C2013 1.239 . S
O2005 Mn1998 2.089 . S
O2005 C2013 1.256 . S
O2006 Mn2001 2.251 1_655 S
O2006 C2011 1.241 1_655 S
O2007 Mn2001 2.087 . S
O2007 C2012 1.256 . S
C2008 O2014 1.278 . S
C2008 O2015 1.241 . S
C2009 O1995 1.244 . S
C2009 O1997 1.256 . S
C2010 O1999 1.239 . S
C2010 O2003 1.256 . S
C2011 O2000 1.278 . S
C2011 O2006 1.241 1_455 S
C2012 O2002 1.244 . S
C2012 O2007 1.256 . S
C2013 O2004 1.239 . S
C2013 O2005 1.256 . S
O2014 Mn1996 2.221 . S
O2014 Mn1998 2.290 . S
O2014 C2008 1.278 . S
O2015 Mn1998 2.251 . S
O2015 C2008 1.241 . S
C1590 C15 0.955 . S
C522 C36 0.955 . S
C57 C1551 0.955 . S
C78 C564 0.955 . S
C99 C1635 0.955 . S
C645 C120 0.955 . S
C141 C1674 0.955 . S
C162 C606 0.955 . S
C183 C1908 0.955 . S
C921 C204 0.955 . S
C942 C225 0.955 . S
C879 C246 0.955 . S
C267 C1992 0.955 . S
C288 C1866 0.955 . S
C2013 C309 0.955 . S
C330 C1971 0.955 . S
C351 C1719 0.955 . S
C837 C372 0.955 . S
C1779 C393 0.955 . S
C414 C795 0.955 . S
C435 C816 0.955 . S
C456 C1761 0.955 . S
C477 C1698 0.955 . S
C1740 C498 0.955 . S
C519 C1089 0.955 . S
C540 C18 0.955 . S
C561 C1047 0.955 . S
C60 C585 0.955 . S
C1131 C603 0.955 . S
C624 C144 0.955 . S
C1173 C648 0.955 . S
C669 C102 0.955 . S
C687 C1404 0.955 . S
C708 C417 0.955 . S
C729 C438 0.955 . S
C375 C750 0.955 . S
C1488 C774 0.955 . S
C792 C1362 0.955 . S
C813 C1509 0.955 . S
C1467 C834 0.955 . S
C855 C1215 0.955 . S
C876 C333 0.955 . S
C1278 C897 0.955 . S
C918 C291 0.955 . S
C939 C312 0.955 . S
C1257 C960 0.955 . S
C1194 C981 0.955 . S
C1236 C1002 0.955 . S
C1023 C582 0.955 . S
C1530 C1044 0.955 . S
C543 C1065 0.955 . S
C1572 C1086 0.955 . S
C1107 C627 0.955 . S
C1128 C1653 0.955 . S
C666 C1149 0.955 . S
C1614 C1170 0.955 . S
C900 C1191 0.955 . S
C1212 C1929 0.955 . S
C1233 C1950 0.955 . S
C1887 C1254 0.955 . S
C984 C1275 0.955 . S
C858 C1296 0.955 . S
C1005 C1317 0.955 . S
C963 C1338 0.955 . S
C711 C1359 0.955 . S
C1845 C1380 0.955 . S
C1401 C771 0.955 . S
C1803 C1422 0.955 . S
C1824 C1443 0.955 . S
C1464 C753 0.955 . S
C1485 C690 0.955 . S
C1506 C732 0.955 . S
C1527 C81 0.955 . S
C1026 C1548 0.955 . S
C1569 C39 0.955 . S
C1593 C1068 0.955 . S
C1611 C123 0.955 . S
C1152 C1632 0.955 . S
C165 C1656 0.955 . S
C1677 C1110 0.955 . S
C396 C1695 0.955 . S
C1425 C1716 0.955 . S
C1737 C1446 0.955 . S
C1758 C1383 0.955 . S
C1782 C480 0.955 . S
C1800 C354 0.955 . S
C1821 C501 0.955 . S
C459 C1842 0.955 . S
C207 C1863 0.955 . S
C1884 C1341 0.955 . S
C1905 C270 0.955 . S
C1926 C1299 0.955 . S
C1320 C1947 0.955 . S
C249 C1968 0.955 . S
C186 C1989 0.955 . S
C2010 C228 0.955 . S
C16 C436 1.863 1_455 S
C1381 C37 1.863 . S
C58 C1402 1.863 . S
C79 C1423 1.863 1_554 S
C100 C1507 1.863 1_455 S
C121 C457 1.863 . S
C1486 C142 1.863 . S
C352 C163 1.863 1_554 S
C184 C331 1.863 1_545 S
C268 C205 1.863 1_565 S
C226 C289 1.863 1_565 S
C247 C310 1.863 1_565 S
C373 C1045 1.863 1_556 S
C394 C1066 1.863 1_455 S
C415 C1087 1.863 . S
C478 C1150 1.863 1_455 S
C1108 C499 1.863 . S
C520 C940 1.863 1_655 S
C541 C1885 1.863 . S
C1906 C562 1.863 . S
C1927 C580 1.863 1_554 S
C604 C2011 1.863 1_655 S
C625 C961 1.863 . S
C1990 C643 1.863 . S
C664 C856 1.863 1_554 S
C835 C688 1.863 1_545 S
C769 C709 1.863 1_545 S
C793 C730 1.863 1_565 S
C751 C814 1.863 1_545 S
C877 C1549 1.863 1_554 S
C1570 C898 1.863 1_455 S
C1588 C919 1.863 . S
C982 C1651 1.863 1_655 S
C1612 C1003 1.863 . S
C1444 C1024 1.863 . S
C1465 C1129 1.863 1_554 S
C1360 C1171 1.863 . S
C1192 C1339 1.863 . S
C1213 C1276 1.863 . S
C1297 C1234 1.863 . S
C1318 C1255 1.863 . S
C1528 C1948 1.863 . S
C1969 C1633 1.863 1_556 S
C1672 C1864 1.863 . S
C1696 C1843 1.863 . S
C1777 C1717 1.863 . S
C1801 C1738 1.863 . S
C1759 C1822 1.863 . S
C13 C917 1.386 . S
C938 C34 1.386 . S
C875 C55 1.386 . S
C1904 C76 1.386 . S
C97 C1967 1.386 . S
C1988 C118 1.386 . S
C139 C1862 1.386 . S
C2009 C160 1.386 . S
C560 C181 1.386 . S
C1592 C202 1.386 . S
C223 C518 1.386 . S
C1547 C244 1.386 . S
C265 C647 1.386 . S
C286 C1676 1.386 . S
C307 C602 1.386 . S
C328 C1631 1.386 . S
C349 C1781 1.386 . S
C686 C370 1.386 . S
C1715 C391 1.386 . S
C412 C728 1.386 . S
C433 C749 1.386 . S
C454 C1820 1.386 . S
C475 C1841 1.386 . S
C496 C1799 1.386 . S
C413 C517 1.386 . S
C538 C434 1.386 . S
C371 C559 1.386 . S
C583 C1400 1.386 . S
C601 C1463 1.386 . S
C1484 C622 1.386 . S
C1358 C646 1.386 . S
C667 C1505 1.386 . S
C56 C685 1.386 . S
C706 C1085 1.386 . S
C727 C14 1.386 . S
C1043 C748 1.386 . S
C140 C772 1.386 . S
C790 C1169 1.386 . S
C811 C98 1.386 . S
C1127 C832 1.386 . S
C853 C1274 1.386 . S
C874 C182 1.386 . S
C1211 C895 1.386 . S
C916 C224 1.386 . S
C245 C937 1.386 . S
C958 C1316 1.386 . S
C1337 C979 1.386 . S
C1295 C1000 1.386 . S
C1925 C1021 1.386 . S
C1946 C1042 1.386 . S
C1063 C1883 1.386 . S
C1084 C896 1.386 . S
C1105 C959 1.386 . S
C1126 C980 1.386 . S
C854 C1147 1.386 . S
C1001 C1168 1.386 . S
C1189 C1568 1.386 . S
C1210 C584 1.386 . S
C1231 C1526 1.386 . S
C1252 C539 1.386 . S
C1273 C1655 1.386 . S
C1294 C668 1.386 . S
C1315 C1610 1.386 . S
C1336 C623 1.386 . S
C773 C1357 1.386 . S
C1694 C1378 1.386 . S
C707 C1399 1.386 . S
C1736 C1420 1.386 . S
C1441 C1757 1.386 . S
C1462 C812 1.386 . S
C1483 C833 1.386 . S
C1504 C791 1.386 . S
C1421 C1525 1.386 . S
C1442 C1546 1.386 . S
C1567 C1379 1.386 . S
C1591 C392 1.386 . S
C455 C1609 1.386 . S
C1630 C476 1.386 . S
C350 C1654 1.386 . S
C497 C1675 1.386 . S
C1693 C1064 1.386 . S
C1714 C77 1.386 . S
C1735 C1022 1.386 . S
C1756 C35 1.386 . S
C1148 C1780 1.386 . S
C161 C1798 1.386 . S
C1106 C1819 1.386 . S
C1840 C119 1.386 . S
C266 C1861 1.386 . S
C1882 C1190 1.386 . S
C1903 C203 1.386 . S
C1232 C1924 1.386 . S
C1945 C1253 1.386 . S
C1966 C308 1.386 . S
C329 C1987 1.386 . S
C2008 C287 1.386 . S
C17 C206 1.530 . S
C227 C38 1.530 . S
C59 C248 1.530 . S
C185 C80 1.530 . S
C332 C101 1.530 . S
C269 C122 1.530 . S
C143 C290 1.530 . S
C164 C311 1.530 . S
C353 C395 1.530 . S
C1487 C374 1.530 . S
C416 C1508 1.530 . S
C1466 C437 1.530 . S
C1445 C458 1.530 . S
C479 C1382 1.530 . S
C500 C1424 1.530 . S
C710 C521 1.530 . S
C542 C731 1.530 . S
C563 C752 1.530 . S
C689 C581 1.530 . S
C836 C605 1.530 . S
C770 C626 1.530 . S
C794 C644 1.530 . S
C815 C665 1.530 . S
C899 C857 1.530 . S
C878 C1991 1.530 . S
C920 C2012 1.530 . S
C941 C1970 1.530 . S
C1949 C962 1.530 . S
C1886 C983 1.530 . S
C1928 C1004 1.530 . S
C1025 C1214 1.530 . S
C1046 C1235 1.530 . S
C1067 C1256 1.530 . S
C1088 C1193 1.530 . S
C1340 C1109 1.530 . S
C1130 C1277 1.530 . S
C1298 C1151 1.530 . S
C1319 C1172 1.530 . S
C1403 C1361 1.530 . S
C1529 C1718 1.530 . S
C1739 C1550 1.530 . S
C1571 C1760 1.530 . S
C1697 C1589 1.530 . S
C1613 C1844 1.530 . S
C1778 C1634 1.530 . S
C1652 C1802 1.530 . S
C1673 C1823 1.530 . S
C1865 C1907 1.530 . S
