# Generated by pormake.
# Topology uku, (4)-cn, num edge types: 1
# Building blocks:
#     Node 0, Type 0, BuildingBlock: CEKHIL_clean_sbu_0, # of connection points: 4
#     Node 1, Type 0, BuildingBlock: CEKHIL_clean_sbu_0, # of connection points: 4
#     Node 2, Type 0, BuildingBlock: CEKHIL_clean_sbu_0, # of connection points: 4
#     Node 3, Type 0, BuildingBlock: CEKHIL_clean_sbu_0, # of connection points: 4
#     Node 4, Type 0, BuildingBlock: CEKHIL_clean_sbu_0, # of connection points: 4
#     Node 5, Type 0, BuildingBlock: CEKHIL_clean_sbu_0, # of connection points: 4
#     Node 6, Type 0, BuildingBlock: CEKHIL_clean_sbu_0, # of connection points: 4
#     Node 7, Type 0, BuildingBlock: CEKHIL_clean_sbu_0, # of connection points: 4
#     Node 8, Type 0, BuildingBlock: CEKHIL_clean_sbu_0, # of connection points: 4
#     Node 9, Type 0, BuildingBlock: CEKHIL_clean_sbu_0, # of connection points: 4
#     Node 10, Type 0, BuildingBlock: CEKHIL_clean_sbu_0, # of connection points: 4
#     Node 11, Type 0, BuildingBlock: CEKHIL_clean_sbu_0, # of connection points: 4
#     Edge 12, Type (0, 0), BuildingBlock: CIFDUS_clean_linker_0, # of connection points: 2
#     Edge 13, Type (0, 0), BuildingBlock: CIFDUS_clean_linker_0, # of connection points: 2
#     Edge 14, Type (0, 0), BuildingBlock: CIFDUS_clean_linker_0, # of connection points: 2
#     Edge 15, Type (0, 0), BuildingBlock: CIFDUS_clean_linker_0, # of connection points: 2
#     Edge 16, Type (0, 0), BuildingBlock: CIFDUS_clean_linker_0, # of connection points: 2
#     Edge 17, Type (0, 0), BuildingBlock: CIFDUS_clean_linker_0, # of connection points: 2
#     Edge 18, Type (0, 0), BuildingBlock: CIFDUS_clean_linker_0, # of connection points: 2
#     Edge 19, Type (0, 0), BuildingBlock: CIFDUS_clean_linker_0, # of connection points: 2
#     Edge 20, Type (0, 0), BuildingBlock: CIFDUS_clean_linker_0, # of connection points: 2
#     Edge 21, Type (0, 0), BuildingBlock: CIFDUS_clean_linker_0, # of connection points: 2
#     Edge 22, Type (0, 0), BuildingBlock: CIFDUS_clean_linker_0, # of connection points: 2
#     Edge 23, Type (0, 0), BuildingBlock: CIFDUS_clean_linker_0, # of connection points: 2
#     Edge 24, Type (0, 0), BuildingBlock: CIFDUS_clean_linker_0, # of connection points: 2
#     Edge 25, Type (0, 0), BuildingBlock: CIFDUS_clean_linker_0, # of connection points: 2
#     Edge 26, Type (0, 0), BuildingBlock: CIFDUS_clean_linker_0, # of connection points: 2
#     Edge 27, Type (0, 0), BuildingBlock: CIFDUS_clean_linker_0, # of connection points: 2
#     Edge 28, Type (0, 0), BuildingBlock: CIFDUS_clean_linker_0, # of connection points: 2
#     Edge 29, Type (0, 0), BuildingBlock: CIFDUS_clean_linker_0, # of connection points: 2
#     Edge 30, Type (0, 0), BuildingBlock: CIFDUS_clean_linker_0, # of connection points: 2
#     Edge 31, Type (0, 0), BuildingBlock: CIFDUS_clean_linker_0, # of connection points: 2
#     Edge 32, Type (0, 0), BuildingBlock: CIFDUS_clean_linker_0, # of connection points: 2
#     Edge 33, Type (0, 0), BuildingBlock: CIFDUS_clean_linker_0, # of connection points: 2
#     Edge 34, Type (0, 0), BuildingBlock: CIFDUS_clean_linker_0, # of connection points: 2
#     Edge 35, Type (0, 0), BuildingBlock: CIFDUS_clean_linker_0, # of connection points: 2
# Relax obj value: 0.371
# Max RMSD: 0.262
# Mean RMSD: 0.262
data_MOF--net-uku--node1-CEKHIL_clean_sbu_0--edge1-CIFDUS_clean_linker_0
_symmetry_space_group_name_H-M    P1
_symmetry_Int_Tables_number       1
_symmetry_cell_setting            triclinic
loop_
_symmetry_equiv_pos_as_xyz
'x, y, z'
_cell_length_a     35.761738
_cell_length_b     36.004899
_cell_length_c     35.915768
_cell_angle_alpha  90.203553
_cell_angle_beta   89.900306
_cell_angle_gamma 89.956508
loop_
_atom_site_label
_atom_site_type_symbol
_atom_site_fract_x
_atom_site_fract_y
_atom_site_fract_z
_atom_type_partial_charge
Co0 Co 0.04991 0.16523 0.66226 0.0
O1 O 0.00395 0.17826 0.63806 0.0
O2 O 0.05674 0.16251 0.60935 0.0
C3 C 0.05096 0.21173 0.70426 0.0
O4 O 0.10253 0.15066 0.67734 0.0
Co5 Co 0.05262 0.14442 0.74629 0.0
O6 O 0.1073 0.15134 0.73973 0.0
C7 C 0.03175 0.08763 0.69014 0.0
C8 C 0.02185 0.17244 0.60706 0.0
C9 C 0.12182 0.1491 0.70741 0.0
O10 O 0.03505 0.11124 0.66352 0.0
O11 O 0.03593 0.09594 0.72458 0.0
O12 O 0.06227 0.21765 0.67037 0.0
O13 O 0.03555 0.17988 0.70992 0.0
Co14 Co 0.94476 0.82017 0.64133 0.0
O15 O 0.98025 0.80109 0.60635 0.0
O16 O 0.93622 0.84288 0.59354 0.0
C17 C 0.92668 0.76667 0.66709 0.0
O18 O 0.90355 0.84551 0.67127 0.0
Co19 Co 0.96377 0.80994 0.72531 0.0
O20 O 0.91459 0.83453 0.73219 0.0
C21 C -0.0008 0.87045 0.68389 0.0
C22 C 0.96447 0.82286 0.58241 0.0
C23 C 0.89512 0.8485 0.70601 0.0
O24 O 0.97989 0.86161 0.65505 0.0
O25 O -0.00065 0.85124 0.71379 0.0
O26 O 0.91247 0.777 0.63552 0.0
O27 O 0.95535 0.78542 0.6782 0.0
Co28 Co 0.03678 0.82527 0.30971 0.0
O29 O 0.00137 0.79986 0.34062 0.0
O30 O 0.04738 0.83611 0.36095 0.0
C31 C 0.05149 0.77878 0.27051 0.0
O32 O 0.07863 0.85537 0.28612 0.0
Co33 Co 0.01628 0.8381 0.22674 0.0
O34 O 0.06587 0.86278 0.22512 0.0
C35 C 0.97894 0.88202 0.28405 0.0
C36 C 0.01831 0.81572 0.36841 0.0
C37 C 0.0866 0.86784 0.25354 0.0
O38 O 0.0025 0.86967 0.30797 0.0
O39 O 0.97681 0.86945 0.25078 0.0
O40 O 0.06689 0.78034 0.30326 0.0
O41 O 0.02409 0.80157 0.26534 0.0
Co42 Co 0.92064 0.16986 0.34293 0.0
O43 O 0.96816 0.17634 0.36686 0.0
O44 O 0.91377 0.16903 0.39589 0.0
C45 C 0.92745 0.21531 0.30057 0.0
O46 O 0.86617 0.16321 0.32833 0.0
Co47 Co 0.91269 0.14999 0.25894 0.0
O48 O 0.86076 0.16808 0.26631 0.0
C49 C 0.92873 0.09098 0.31437 0.0
C50 C 0.94975 0.17382 0.39797 0.0
C51 C 0.84645 0.1671 0.29875 0.0
O52 O 0.92804 0.11427 0.34165 0.0
O53 O 0.92483 0.10021 0.28019 0.0
O54 O 0.91643 0.22352 0.33415 0.0
O55 O 0.93694 0.18123 0.29524 0.0
Co56 Co 0.65024 0.05928 0.17981 0.0
O57 O 0.61323 0.0222 0.19 0.0
O58 O 0.60429 0.07211 0.15498 0.0
C59 C 0.67074 0.06688 0.23856 0.0
O60 O 0.68115 0.1039 0.16407 0.0
Co61 Co 0.73439 0.04376 0.19411 0.0
O62 O 0.73938 0.09824 0.18699 0.0
C63 C 0.69874 0.01425 0.12603 0.0
C64 C 0.5908 0.04201 0.16976 0.0
C65 C 0.71392 0.11694 0.17078 0.0
O66 O 0.66799 0.03081 0.13463 0.0
O67 O 0.72743 0.01393 0.14735 0.0
O68 O 0.64059 0.08364 0.22751 0.0
O69 O 0.68467 0.04306 0.2154 0.0
Co70 Co 0.32758 0.93538 0.16049 0.0
O71 O 0.36065 0.97636 0.17068 0.0
O72 O 0.37839 0.91887 0.15645 0.0
C73 C 0.28746 0.9429 0.20845 0.0
O74 O 0.30302 0.88607 0.14881 0.0
Co75 Co 0.24332 0.9458 0.14197 0.0
O76 O 0.24042 0.89146 0.15056 0.0
C77 C 0.30036 0.95481 0.08273 0.0
C78 C 0.3876 0.95278 0.16474 0.0
C79 C 0.27008 0.87199 0.14866 0.0
O80 O 0.32693 0.94811 0.10587 0.0
O81 O 0.26581 0.95648 0.09201 0.0
O82 O 0.31955 0.92674 0.21364 0.0
O83 O 0.28315 0.95808 0.17621 0.0
Co84 Co 0.66914 0.93568 0.83613 0.0
O85 O 0.64427 0.9811 0.82254 0.0
O86 O 0.61638 0.92971 0.84259 0.0
C87 C 0.70779 0.93151 0.78674 0.0
O88 O 0.68433 0.88387 0.8522 0.0
Co89 Co 0.7543 0.93238 0.85236 0.0
O90 O 0.74675 0.87786 0.84841 0.0
C91 C 0.70227 0.96003 0.91044 0.0
C92 C 0.61358 0.96379 0.83115 0.0
C93 C 0.71423 0.86417 0.85269 0.0
O94 O 0.67416 0.95377 0.88902 0.0
O95 O 0.73629 0.955 0.90037 0.0
O96 O 0.67329 0.92054 0.78395 0.0
O97 O 0.71631 0.9481 0.81752 0.0
Co98 Co 0.34251 0.04714 0.81787 0.0
O99 O 0.37582 0.01265 0.79444 0.0
O100 O 0.39166 0.05271 0.83898 0.0
C101 C 0.31455 0.06973 0.76694 0.0
O102 O 0.3154 0.08684 0.84779 0.0
Co103 Co 0.25713 0.03202 0.81113 0.0
O104 O 0.25323 0.07791 0.84166 0.0
C105 C 0.30056 0.99088 0.86645 0.0
C106 C 0.40129 0.02599 0.8164 0.0
C107 C 0.28121 0.09549 0.85482 0.0
O108 O 0.32974 0.00962 0.85738 0.0
O109 O 0.26954 -0.00681 0.84891 0.0
O110 O 0.3471 0.08219 0.77693 0.0
O111 O 0.30322 0.0404 0.78422 0.0
Co112 Co 0.17811 0.65339 0.0364 0.0
O113 O 0.19646 0.61422 0.00524 0.0
O114 O 0.16041 0.60671 0.05521 0.0
C115 C 0.23128 0.68536 0.04391 0.0
O116 O 0.15446 0.68708 0.07534 0.0
Co117 Co 0.17836 0.73437 0.00644 0.0
O118 O 0.15777 0.74658 0.05619 0.0
C119 C 0.11581 0.68465 0.98751 0.0
C120 C 0.17856 0.59202 0.02742 0.0
C121 C 0.14845 0.72201 0.0799 0.0
O122 O 0.13169 0.65798 0.00511 0.0
O123 O 0.13047 0.71679 0.98351 0.0
O124 O 0.22497 0.65574 0.06341 0.0
O125 O 0.20854 0.69092 0.0165 0.0
Co126 Co 0.17398 0.32256 0.94608 0.0
O127 O 0.19101 0.35993 0.98017 0.0
O128 O 0.16346 0.3706 0.92573 0.0
C129 C 0.22508 0.28583 0.94593 0.0
O130 O 0.15287 0.29161 0.90374 0.0
Co131 Co 0.16285 0.24153 0.97429 0.0
O132 O 0.14712 0.23217 0.92233 0.0
C133 C 0.10275 0.29658 0.98509 0.0
C134 C 0.17849 0.38362 0.95598 0.0
C135 C 0.14328 0.25767 0.89812 0.0
O136 O 0.12309 0.32208 0.97048 0.0
O137 O 0.11392 0.26326 0.99033 0.0
O138 O 0.22429 0.31595 0.92619 0.0
O139 O 0.19768 0.28216 0.96919 0.0
Co140 Co 0.83442 0.64461 0.92318 0.0
O141 O 0.82234 0.61216 0.9638 0.0
O142 O 0.8546 0.59632 0.91318 0.0
C143 C 0.77752 0.67009 0.91529 0.0
O144 O 0.85166 0.66889 0.87565 0.0
Co145 Co 0.82801 0.73048 0.92949 0.0
O146 O 0.83512 0.72912 0.87455 0.0
C147 C 0.89539 0.69219 0.95825 0.0
C148 C 0.83969 0.58668 0.9447 0.0
C149 C 0.84846 0.70013 0.859 0.0
O150 O 0.88244 0.66046 0.9478 0.0
O151 O 0.87691 0.72255 0.95556 0.0
O152 O 0.78498 0.63761 0.90129 0.0
O153 O 0.80272 0.68368 0.93714 0.0
Co154 Co 0.82313 0.32811 0.05279 0.0
O155 O 0.80682 0.365 0.01814 0.0
O156 O 0.84215 0.37567 0.06801 0.0
C157 C 0.76855 0.29834 0.06163 0.0
O158 O 0.84497 0.29779 0.09472 0.0
Co159 Co 0.8208 0.24472 0.02994 0.0
O160 O 0.84211 0.2369 0.08032 0.0
C161 C 0.88229 0.2916 0.00295 0.0
C162 C 0.82533 0.3884 0.03866 0.0
C163 C 0.85101 0.26348 0.10211 0.0
O164 O 0.86986 0.31894 0.02252 0.0
O165 O 0.86471 0.26084 -0.00059 0.0
O166 O 0.77549 0.32918 0.07918 0.0
O167 O 0.79197 0.28984 0.03555 0.0
H168 H 0.91801 0.1802 0.46614 0.0
H169 H 0.02476 0.17085 0.41057 0.0
H170 H 0.05666 0.17051 0.47062 0.0
H171 H 0.05399 0.17084 0.53879 0.0
H172 H 0.94733 0.18131 0.59433 0.0
H173 H 0.91558 0.18342 0.53426 0.0
C174 C 0.94826 0.17817 0.46719 0.0
C175 C 0.96901 0.17532 0.43409 0.0
C176 C 0.96639 0.17816 0.50172 0.0
C177 C 0.00819 0.17306 0.43576 0.0
C178 C 0.02644 0.17279 0.47004 0.0
C179 C 0.02381 0.1737 0.53773 0.0
C180 C 0.00299 0.17569 0.57085 0.0
C181 C 0.00579 0.17501 0.50318 0.0
C182 C 0.96395 0.1797 0.56914 0.0
C183 C 0.94577 0.18083 0.53484 0.0
H184 H 0.05484 0.82916 0.43284 0.0
H185 H 0.94711 0.79853 0.3885 0.0
H186 H 0.91991 0.80078 0.45092 0.0
H187 H 0.92682 0.81196 0.51835 0.0
H188 H 0.03564 0.83713 0.56297 0.0
H189 H 0.06245 0.83713 0.5002 0.0
C190 C 0.02547 0.8228 0.43694 0.0
C191 C 0.00297 0.81377 0.40632 0.0
C192 C 0.0102 0.82365 0.47286 0.0
C193 C 0.96502 0.8053 0.41184 0.0
C194 C 0.94939 0.80684 0.44744 0.0
C195 C 0.95626 0.8178 0.51401 0.0
C196 C 0.97931 0.82514 0.54461 0.0
C197 C 0.97166 0.81623 0.47811 0.0
C198 C 0.01757 0.83177 0.53936 0.0
C199 C 0.03286 0.83161 0.50365 0.0
H200 H 0.41659 0.02132 0.15319 0.0
H201 H 0.4469 0.90864 0.18031 0.0
H202 H 0.51272 0.92636 0.18385 0.0
H203 H 0.56137 0.97389 0.17993 0.0
H204 H 0.53214 0.08592 0.14924 0.0
H205 H 0.46607 0.06843 0.14595 0.0
C206 C 0.43767 0.00078 0.16 0.0
C207 C 0.42709 0.96387 0.16684 0.0
C208 C 0.47552 0.01098 0.1611 0.0
C209 C 0.45454 0.93725 0.175 0.0
C210 C 0.49211 0.94734 0.17702 0.0
C211 C 0.54053 -0.00555 0.17242 0.0
C212 C 0.55142 0.03114 0.16507 0.0
C213 C 0.50287 0.98411 0.17018 0.0
C214 C 0.52431 0.05744 0.15493 0.0
C215 C 0.48658 0.04751 0.15323 0.0
H216 H 0.54822 0.93064 0.81589 0.0
H217 H 0.59738 0.03728 0.84007 0.0
H218 H 0.53537 0.06638 0.83863 0.0
H219 H 0.46685 0.06078 0.83152 0.0
H220 H 0.41931 0.95457 0.80221 0.0
H221 H 0.48105 0.92582 0.80462 0.0
C222 C 0.54527 0.96026 0.8208 0.0
C223 C 0.57693 0.98185 0.82839 0.0
C224 C 0.50991 0.97674 0.81906 0.0
C225 C 0.57314 0.02025 0.83412 0.0
C226 C 0.53778 0.0368 0.83343 0.0
C227 C 0.47021 0.03138 0.82569 0.0
C228 C 0.43885 0.00966 0.81696 0.0
C229 C 0.50593 0.01524 0.82613 0.0
C230 C 0.44326 0.97174 0.80889 0.0
C231 C 0.47846 0.95529 0.81035 0.0
H232 H 0.17523 0.41753 0.02279 0.0
H233 H 0.18468 0.43878 0.90506 0.0
H234 H 0.18695 0.50568 0.91712 0.0
H235 H 0.18551 0.55779 0.96117 0.0
H236 H 0.17047 0.53691 0.07841 0.0
H237 H 0.17098 0.46987 0.06666 0.0
C238 C 0.17801 0.43691 -0.00011 0.0
C239 C 0.18016 0.42362 0.96319 0.0
C240 C 0.17813 0.47515 0.00697 0.0
C241 C 0.18302 0.44868 0.93353 0.0
C242 C 0.18435 0.48679 0.94041 0.0
C243 C 0.1825 0.53847 0.9841 0.0
C244 C 0.17828 0.5519 0.02057 0.0
C245 C 0.18183 0.50028 0.977 0.0
C246 C 0.17373 0.52692 0.0501 0.0
C247 C 0.17411 0.48872 0.04341 0.0
H248 H 0.83479 0.56122 0.0154 0.0
H249 H 0.84556 0.52548 0.90109 0.0
H250 H 0.84112 0.46065 0.92026 0.0
H251 H 0.83222 0.41437 0.96923 0.0
H252 H 0.82684 0.44904 0.08407 0.0
H253 H 0.83104 0.51431 0.06514 0.0
C254 C 0.83634 0.53914 -0.00517 0.0
C255 C 0.84019 0.54787 0.95696 0.0
C256 C 0.8345 0.50196 0.00611 0.0
C257 C 0.84269 0.51924 0.93045 0.0
C258 C 0.83997 0.48225 0.94133 0.0
C259 C 0.83188 0.43632 0.99001 0.0
C260 C 0.82866 0.42739 0.0278 0.0
C261 C 0.83547 0.47336 0.97901 0.0
C262 C 0.82913 0.45565 0.05475 0.0
C263 C 0.83151 0.49281 0.04396 0.0
H264 H 0.18221 0.17844 0.742 0.0
H265 H 0.14722 0.09022 0.66856 0.0
H266 H 0.20719 0.05877 0.67686 0.0
H267 H 0.26504 0.05179 0.71335 0.0
H268 H 0.30231 0.14209 0.78294 0.0
H269 H 0.24629 0.17775 0.76756 0.0
C270 C 0.18835 0.15293 0.72702 0.0
C271 C 0.16063 0.13634 0.70503 0.0
C272 C 0.22302 0.13529 0.73154 0.0
C273 C 0.1685 0.10343 0.68549 0.0
C274 C 0.20258 0.0853 0.69046 0.0
C275 C 0.26134 0.07977 0.72401 0.0
C276 C 0.28723 0.09433 0.74934 0.0
C277 C 0.22943 0.10028 0.71458 0.0
C278 C 0.28258 0.13056 0.76317 0.0
C279 C 0.25045 0.15081 0.75467 0.0
H280 H 0.78037 0.95077 0.78791 0.0
H281 H 0.70173 0.88121 0.72935 0.0
H282 H 0.75323 0.85162 0.69522 0.0
H283 H 0.82155 0.84084 0.68758 0.0
H284 H 0.89876 0.90801 0.75054 0.0
H285 H 0.84701 0.9434 0.77729 0.0
C286 C 0.77439 0.92947 0.76732 0.0
C287 C 0.73741 0.91792 0.76143 0.0
C288 C 0.80401 0.91198 0.74879 0.0
C289 C 0.73006 0.89054 0.73443 0.0
C290 C 0.7595 0.87347 0.71507 0.0
C291 C 0.82677 0.86372 0.70659 0.0
C292 C 0.86359 0.87203 0.71727 0.0
C293 C 0.79671 0.88324 0.72281 0.0
C294 C 0.87043 0.90128 0.74221 0.0
C295 C 0.84094 0.92143 0.7575 0.0
H296 H 0.21772 0.96954 0.20007 0.0
H297 H 0.28209 0.89232 0.26546 0.0
H298 H 0.2243 0.86454 0.28919 0.0
H299 H 0.1556 0.8564 0.28373 0.0
H300 H 0.09343 0.92947 0.21175 0.0
H301 H 0.15011 0.96434 0.19779 0.0
C302 C 0.21919 0.94701 0.22001 0.0
C303 C 0.2541 0.93265 0.23052 0.0
C304 C 0.18611 0.92991 0.23171 0.0
C305 C 0.25552 0.90384 0.25681 0.0
C306 C 0.22248 0.88767 0.27006 0.0
C307 C 0.15457 0.8803 0.26546 0.0
C308 C 0.12063 0.89026 0.24848 0.0
C309 C 0.18764 0.8995 0.25649 0.0
C310 C 0.11944 0.92108 0.22469 0.0
C311 C 0.15176 0.9411 0.21683 0.0
H312 H 0.6832 0.13959 0.25104 0.0
H313 H 0.71392 0.03003 0.28796 0.0
H314 H 0.76851 0.05539 0.32006 0.0
H315 H 0.81441 0.10552 0.32398 0.0
H316 H 0.7897 0.21199 0.27569 0.0
H317 H 0.72542 0.19202 0.2629 0.0
C318 C 0.70103 0.12164 0.2675 0.0
C319 C 0.69484 0.08311 0.26734 0.0
C320 C 0.73381 0.13605 0.28334 0.0
C321 C 0.71837 0.0598 0.28792 0.0
C322 C 0.74969 0.07426 0.30593 0.0
C323 C 0.79438 0.12466 0.31191 0.0
C324 C 0.80621 0.16009 0.30092 0.0
C325 C 0.75883 0.11189 0.30183 0.0
C326 C 0.78073 0.18467 0.28454 0.0
C327 C 0.7442 0.17311 0.27702 0.0
H328 H 0.68827 0.15113 0.10878 0.0
H329 H 0.76192 0.16603 0.20251 0.0
H330 H 0.77901 0.22777 0.18031 0.0
H331 H 0.77691 0.27508 0.13168 0.0
H332 H 0.71477 0.25428 0.03117 0.0
H333 H 0.68815 0.19777 0.05866 0.0
C334 C 0.70761 0.16821 0.12455 0.0
C335 C 0.7231 0.15462 0.15777 0.0
C336 C 0.7191 0.20263 0.1103 0.0
C337 C 0.74902 0.17638 0.17739 0.0
C338 C 0.75891 0.21156 0.1646 0.0
C339 C 0.75702 0.25844 0.11613 0.0
C340 C 0.74716 0.26881 0.07985 0.0
C341 C 0.74451 0.2247 0.13084 0.0
C342 C 0.72212 0.24685 0.05944 0.0
C343 C 0.70728 0.21449 0.075 0.0
H344 H 0.22429 0.70771 0.11463 0.0
H345 H 0.27842 0.73454 0.01087 0.0
H346 H 0.30046 0.79347 0.03742 0.0
H347 H 0.29738 0.84007 0.08741 0.0
H348 H 0.23272 0.81789 0.18617 0.0
H349 H 0.22109 0.75417 0.16448 0.0
C350 C 0.24168 0.72614 0.09821 0.0
C351 C 0.2504 0.71692 0.06117 0.0
C352 C 0.25163 0.76084 0.11268 0.0
C353 C 0.27194 0.74119 0.03961 0.0
C354 C 0.28421 0.77483 0.05468 0.0
C355 C 0.28144 0.82086 0.1044 0.0
C356 C 0.26633 0.83288 0.13844 0.0
C357 C 0.27325 0.78535 0.09078 0.0
C358 C 0.24477 0.80865 0.16002 0.0
C359 C 0.23815 0.77245 0.1476 0.0
H360 H 0.73507 0.72251 0.94774 0.0
H361 H 0.765 0.67636 0.84095 0.0
H362 H 0.74356 0.73287 0.81002 0.0
H363 H 0.72845 0.79993 0.81546 0.0
H364 H 0.69577 0.84455 0.92211 0.0
H365 H 0.70575 0.78407 0.95119 0.0
C366 C 0.73534 0.72432 0.91759 0.0
C367 C 0.75187 0.69581 0.89662 0.0
C368 C 0.72327 0.75691 0.90013 0.0
C369 C 0.75213 0.69806 0.85759 0.0
C370 C 0.74042 0.73059 0.83994 0.0
C371 C 0.72249 0.79587 0.84478 0.0
C372 C 0.71186 0.82625 0.86691 0.0
C373 C 0.72785 0.76091 0.86118 0.0
C374 C 0.704 0.82119 0.9048 0.0
C375 C 0.70983 0.78677 0.92141 0.0
H376 H 0.31018 0.16502 0.85254 0.0
H377 H 0.23438 0.09479 0.91356 0.0
H378 H 0.21593 0.14715 0.95296 0.0
H379 H 0.21626 0.21361 0.96525 0.0
H380 H 0.28475 0.28603 0.89839 0.0
H381 H 0.31245 0.23216 0.86712 0.0
C382 C 0.29007 0.16131 0.87486 0.0
C383 C 0.27342 0.12647 0.88026 0.0
C384 C 0.27843 0.1919 0.89634 0.0
C385 C 0.24718 0.12165 0.90891 0.0
C386 C 0.23673 0.15148 0.93143 0.0
C387 C 0.23741 0.21773 0.94409 0.0
C388 C 0.24779 0.25379 0.9336 0.0
C389 C 0.25138 0.1869 0.92469 0.0
C390 C 0.27598 0.25848 0.90669 0.0
C391 C 0.29163 0.22772 0.88861 0.0
H392 H 0.03825 0.78946 0.19743 0.0
H393 H 0.10699 0.7263 0.2728 0.0
H394 H 0.14255 0.70124 0.21992 0.0
H395 H 0.15619 0.70054 0.15209 0.0
H396 H 0.09133 0.77042 0.07929 0.0
H397 H 0.05256 0.79045 0.13155 0.0
C398 C 0.06093 0.77022 0.20249 0.0
C399 C 0.07008 0.75993 0.23899 0.0
C400 C 0.08226 0.7576 0.17239 0.0
C401 C 0.09942 0.73464 0.24486 0.0
C402 C 0.11987 0.72051 0.2147 0.0
C403 C 0.1335 0.7201 0.14793 0.0
C404 C 0.12649 0.73417 0.1122 0.0
C405 C 0.11195 0.73234 0.17835 0.0
C406 C 0.09734 0.75967 0.10679 0.0
C407 C 0.07506 0.77091 0.13653 0.0
H408 H 0.03266 0.20164 0.77568 0.0
H409 H 0.10374 0.26761 0.70488 0.0
H410 H 0.13805 0.28995 0.7597 0.0
H411 H 0.1519 0.2848 0.82746 0.0
H412 H 0.08458 0.21142 0.89471 0.0
H413 H 0.04546 0.19694 0.84138 0.0
C414 C 0.05544 0.22121 0.77213 0.0
C415 C 0.06596 0.23259 0.73632 0.0
C416 C 0.07637 0.23175 0.80312 0.0
C417 C 0.09509 0.25844 0.73226 0.0
C418 C 0.11501 0.27081 0.76353 0.0
C419 C 0.1287 0.26561 0.83017 0.0
C420 C 0.12147 0.24866 0.86466 0.0
C421 C 0.1067 0.25659 0.79899 0.0
C422 C 0.09122 0.22406 0.86817 0.0
C423 C 0.06857 0.21608 0.83784 0.0
H424 H 0.81791 0.73082 0.79733 0.0
H425 H 0.9169 0.67663 0.83878 0.0
H426 H 0.94921 0.68812 0.77996 0.0
H427 H 0.95143 0.72022 0.71988 0.0
H428 H 0.85153 0.771 0.67645 0.0
H429 H 0.81698 0.75351 0.73247 0.0
C430 C 0.84634 0.72118 0.79307 0.0
C431 C 0.86538 0.7035 0.82209 0.0
C432 C 0.86442 0.72709 0.75892 0.0
C433 C 0.90195 0.69045 0.81653 0.0
C434 C 0.92042 0.69703 0.78305 0.0
C435 C 0.92179 0.72629 0.7223 0.0
C436 C 0.90397 0.7468 0.69448 0.0
C437 C 0.90221 0.71612 0.75443 0.0
C438 C 0.86562 0.75476 0.69755 0.0
C439 C 0.846 0.74523 0.72974 0.0
H440 H 0.95069 0.20313 0.23107 0.0
H441 H 0.88108 0.27653 0.29633 0.0
H442 H 0.85273 0.30066 0.23904 0.0
H443 H 0.84222 0.29427 0.17088 0.0
H444 H 0.90609 0.21314 0.10897 0.0
H445 H 0.94152 0.1976 0.16471 0.0
C446 C 0.92968 0.22485 0.23284 0.0
C447 C 0.91767 0.23777 0.26778 0.0
C448 C 0.91177 0.23629 0.20041 0.0
C449 C 0.89086 0.26624 0.26966 0.0
C450 C 0.87428 0.27957 0.23698 0.0
C451 C 0.86404 0.27334 0.16981 0.0
C452 C 0.87149 0.25453 0.13622 0.0
C453 C 0.88351 0.26369 0.20232 0.0
C454 C 0.89961 0.22742 0.1348 0.0
C455 C 0.92004 0.2188 0.1665 0.0
H456 H 0.05444 0.02864 0.73002 0.0
H457 H -0.00289 0.05813 0.62871 0.0
H458 H 0.98665 -0.00779 0.61494 0.0
H459 H 0.98948 0.92698 0.63462 0.0
H460 H 0.04672 0.89841 0.73649 0.0
H461 H 0.06249 0.96347 0.74652 0.0
C462 C 0.03949 0.02069 0.70496 0.0
C463 C 0.02573 0.04815 0.68084 0.0
C464 C 0.034 0.98301 0.69714 0.0
C465 C 0.00751 0.03743 0.64792 0.0
C466 C 0.00165 -0.00019 0.64002 0.0
C467 C 0.00612 0.93477 0.65862 0.0
C468 C 0.01648 0.90778 0.68502 0.0
C469 C 0.0143 0.97241 0.66476 0.0
C470 C 0.03812 0.91854 0.71587 0.0
C471 C 0.04692 0.95581 0.7218 0.0
H472 H 0.89723 0.03445 0.27736 0.0
H473 H 0.97266 0.05858 0.36775 0.0
H474 H 0.99052 -0.0072 0.37066 0.0
H475 H 0.99175 0.93121 0.34042 0.0
H476 H 0.9178 0.90904 0.24797 0.0
H477 H 0.8917 0.97131 0.25343 0.0
C478 C 0.91722 0.02518 0.29806 0.0
C479 C 0.93434 0.05118 0.32173 0.0
C480 C 0.9277 0.98781 0.29901 0.0
C481 C 0.95941 0.03893 0.34907 0.0
C482 C 0.96972 0.00143 0.35056 0.0
C483 C 0.96928 0.93966 0.32206 0.0
C484 C 0.95729 0.91578 0.29329 0.0
C485 C 0.95511 0.97595 0.32464 0.0
C486 C 0.92798 0.92709 0.26992 0.0
C487 C 0.9131 0.96273 0.27293 0.0
H488 H 0.74828 0.95181 0.96959 0.0
H489 H 0.63944 -0.00661 0.93883 0.0
H490 H 0.62756 0.01158 0.00351 0.0
H491 H 0.6491 0.01743 0.06831 0.0
H492 H 0.75784 0.9746 0.09841 0.0
H493 H 0.76836 0.95468 0.03446 0.0
C494 C 0.72202 0.96507 0.97693 0.0
C495 C 0.69501 0.9717 0.94933 0.0
C496 C 0.71519 0.97494 0.0141 0.0
C497 C 0.66082 0.98817 0.95952 0.0
C498 C 0.65397 -0.00149 -0.00351 0.0
C499 C 0.67493 0.00335 0.06105 0.0
C500 C 0.70269 -0.00218 0.08828 0.0
C501 C 0.68105 -0.00784 0.02401 0.0
C502 C 0.73597 0.97945 0.07816 0.0
C503 C 0.74215 0.96814 0.0415 0.0
H504 H 0.25753 0.93415 0.02473 0.0
H505 H 0.36411 0.9833 0.05158 0.0
H506 H 0.37654 -0.00664 0.9852 0.0
H507 H 0.35374 -0.00584 0.92068 0.0
H508 H 0.24661 0.94508 0.89469 0.0
H509 H 0.23836 0.92792 0.95971 0.0
C510 C 0.28352 0.94705 0.01603 0.0
C511 C 0.30947 0.95889 0.0429 0.0
C512 C 0.29049 0.95241 0.97807 0.0
C513 C 0.34353 0.97444 0.03132 0.0
C514 C 0.35062 0.98011 -0.00656 0.0
C515 C 0.32897 0.9789 0.92896 0.0
C516 C 0.30053 0.97154 0.9028 0.0
C517 C 0.32389 0.96996 0.96665 0.0
C518 C 0.26879 0.9515 0.91419 0.0
C519 C 0.26387 0.94192 0.95146 0.0
H520 H 0.94923 0.63835 0.95382 0.0
H521 H 0.93156 0.7527 0.98656 0.0
H522 H -0.00153 0.76083 -0.00486 0.0
H523 H 0.062 0.73642 0.99199 0.0
H524 H 0.08067 0.62163 0.96286 0.0
H525 H 0.01328 0.61294 0.95343 0.0
C526 C 0.9599 0.66491 0.96336 0.0
C527 C 0.9352 0.69487 0.96937 0.0
C528 C -0.00137 0.66959 0.96804 0.0
C529 C 0.94974 0.72911 0.98162 0.0
C530 C 0.9881 0.73393 0.9863 0.0
C531 C 0.0514 0.70967 0.98287 0.0
C532 C 0.07622 0.67993 0.97719 0.0
C533 C 0.01279 0.7046 0.97898 0.0
C534 C 0.06203 0.64506 0.96675 0.0
C535 C 0.02356 0.64005 0.9617 0.0
H536 H 0.04744 0.25492 0.95848 0.0
H537 H 0.06866 0.35558 0.02006 0.0
H538 H 0.00095 0.36572 0.02728 0.0
H539 H 0.93623 0.34283 0.01969 0.0
H540 H 0.91655 0.24288 0.95561 0.0
H541 H 0.98336 0.23623 0.94473 0.0
C542 C 0.03714 0.27898 0.97368 0.0
C543 C 0.0626 0.30389 0.98982 0.0
C544 C -0.00138 0.28495 0.97677 0.0
C545 C 0.04929 0.33572 0.00814 0.0
C546 C 0.01072 0.34154 0.01206 0.0
C547 C 0.94643 0.32003 0.00266 0.0
C548 C 0.92129 0.29306 0.98902 0.0
C549 C 0.98512 0.31599 -0.00311 0.0
C550 C 0.93515 0.26383 0.96684 0.0
C551 C 0.97342 0.25982 0.96078 0.0
loop_
_geom_bond_atom_site_label_1
_geom_bond_atom_site_label_2
_geom_bond_distance
_geom_bond_site_symmetry_2
_ccdc_geom_bond_type
Co0 O1 2.216 . S
Co0 O2 2.091 . S
Co0 O4 2.004 . S
Co0 O10 2.021 . S
Co0 O12 2.137 . S
Co0 O13 2.244 . S
O1 Co0 2.216 . S
O1 C8 1.247 . S
O2 Co0 2.091 . S
O2 C8 1.261 . S
C3 O12 1.247 . S
C3 O13 1.272 . S
O4 Co0 2.004 . S
O4 C9 1.259 . S
Co5 O6 2.061 . S
Co5 O11 2.052 . S
Co5 O13 2.135 . S
O6 Co5 2.061 . S
O6 C9 1.235 . S
C7 O10 1.238 . S
C7 O11 1.241 . S
C8 O1 1.247 . S
C8 O2 1.261 . S
C9 O4 1.259 . S
C9 O6 1.235 . S
O10 Co0 2.021 . S
O10 C7 1.238 . S
O11 Co5 2.052 . S
O11 C7 1.241 . S
O12 Co0 2.137 . S
O12 C3 1.247 . S
O13 Co0 2.244 . S
O13 C3 1.272 . S
O13 Co5 2.135 . S
Co14 O15 2.216 . S
Co14 O16 2.091 . S
Co14 O18 2.004 . S
Co14 O24 2.021 . S
Co14 O26 2.137 . S
Co14 O27 2.244 . S
O15 Co14 2.216 . S
O15 C22 1.247 . S
O16 Co14 2.091 . S
O16 C22 1.261 . S
C17 O26 1.247 . S
C17 O27 1.272 . S
O18 Co14 2.004 . S
O18 C23 1.259 . S
Co19 O20 2.061 . S
Co19 O25 2.052 . S
Co19 O27 2.135 . S
O20 Co19 2.061 . S
O20 C23 1.235 . S
C21 O24 1.238 . S
C21 O25 1.241 . S
C22 O15 1.247 . S
C22 O16 1.261 . S
C23 O18 1.259 . S
C23 O20 1.235 . S
O24 Co14 2.021 . S
O24 C21 1.238 . S
O25 Co19 2.052 . S
O25 C21 1.241 . S
O26 Co14 2.137 . S
O26 C17 1.247 . S
O27 Co14 2.244 . S
O27 C17 1.272 . S
O27 Co19 2.135 . S
Co28 O29 2.216 . S
Co28 O30 2.091 . S
Co28 O32 2.004 . S
Co28 O38 2.021 . S
Co28 O40 2.137 . S
Co28 O41 2.244 . S
O29 Co28 2.216 . S
O29 C36 1.247 . S
O30 Co28 2.091 . S
O30 C36 1.261 . S
C31 O40 1.247 . S
C31 O41 1.272 . S
O32 Co28 2.004 . S
O32 C37 1.259 . S
Co33 O34 2.061 . S
Co33 O39 2.052 . S
Co33 O41 2.135 . S
O34 Co33 2.061 . S
O34 C37 1.235 . S
C35 O38 1.238 . S
C35 O39 1.241 . S
C36 O29 1.247 . S
C36 O30 1.261 . S
C37 O32 1.259 . S
C37 O34 1.235 . S
O38 Co28 2.021 . S
O38 C35 1.238 . S
O39 Co33 2.052 . S
O39 C35 1.241 . S
O40 Co28 2.137 . S
O40 C31 1.247 . S
O41 Co28 2.244 . S
O41 C31 1.272 . S
O41 Co33 2.135 . S
Co42 O43 2.216 . S
Co42 O44 2.091 . S
Co42 O46 2.004 . S
Co42 O52 2.021 . S
Co42 O54 2.137 . S
Co42 O55 2.244 . S
O43 Co42 2.216 . S
O43 C50 1.247 . S
O44 Co42 2.091 . S
O44 C50 1.261 . S
C45 O54 1.247 . S
C45 O55 1.272 . S
O46 Co42 2.004 . S
O46 C51 1.259 . S
Co47 O48 2.061 . S
Co47 O53 2.052 . S
Co47 O55 2.135 . S
O48 Co47 2.061 . S
O48 C51 1.235 . S
C49 O52 1.238 . S
C49 O53 1.241 . S
C50 O43 1.247 . S
C50 O44 1.261 . S
C51 O46 1.259 . S
C51 O48 1.235 . S
O52 Co42 2.021 . S
O52 C49 1.238 . S
O53 Co47 2.052 . S
O53 C49 1.241 . S
O54 Co42 2.137 . S
O54 C45 1.247 . S
O55 Co42 2.244 . S
O55 C45 1.272 . S
O55 Co47 2.135 . S
Co56 O57 2.216 . S
Co56 O58 2.091 . S
Co56 O60 2.004 . S
Co56 O66 2.021 . S
Co56 O68 2.137 . S
Co56 O69 2.244 . S
O57 Co56 2.216 . S
O57 C64 1.247 . S
O58 Co56 2.091 . S
O58 C64 1.261 . S
C59 O68 1.247 . S
C59 O69 1.272 . S
O60 Co56 2.004 . S
O60 C65 1.259 . S
Co61 O62 2.061 . S
Co61 O67 2.052 . S
Co61 O69 2.135 . S
O62 Co61 2.061 . S
O62 C65 1.235 . S
C63 O66 1.238 . S
C63 O67 1.241 . S
C64 O57 1.247 . S
C64 O58 1.261 . S
C65 O60 1.259 . S
C65 O62 1.235 . S
O66 Co56 2.021 . S
O66 C63 1.238 . S
O67 Co61 2.052 . S
O67 C63 1.241 . S
O68 Co56 2.137 . S
O68 C59 1.247 . S
O69 Co56 2.244 . S
O69 C59 1.272 . S
O69 Co61 2.135 . S
Co70 O71 2.216 . S
Co70 O72 2.091 . S
Co70 O74 2.004 . S
Co70 O80 2.021 . S
Co70 O82 2.137 . S
Co70 O83 2.244 . S
O71 Co70 2.216 . S
O71 C78 1.247 . S
O72 Co70 2.091 . S
O72 C78 1.261 . S
C73 O82 1.247 . S
C73 O83 1.272 . S
O74 Co70 2.004 . S
O74 C79 1.259 . S
Co75 O76 2.061 . S
Co75 O81 2.052 . S
Co75 O83 2.135 . S
O76 Co75 2.061 . S
O76 C79 1.235 . S
C77 O80 1.238 . S
C77 O81 1.241 . S
C78 O71 1.247 . S
C78 O72 1.261 . S
C79 O74 1.259 . S
C79 O76 1.235 . S
O80 Co70 2.021 . S
O80 C77 1.238 . S
O81 Co75 2.052 . S
O81 C77 1.241 . S
O82 Co70 2.137 . S
O82 C73 1.247 . S
O83 Co70 2.244 . S
O83 C73 1.272 . S
O83 Co75 2.135 . S
Co84 O85 2.216 . S
Co84 O86 2.091 . S
Co84 O88 2.004 . S
Co84 O94 2.021 . S
Co84 O96 2.137 . S
Co84 O97 2.244 . S
O85 Co84 2.216 . S
O85 C92 1.247 . S
O86 Co84 2.091 . S
O86 C92 1.261 . S
C87 O96 1.247 . S
C87 O97 1.272 . S
O88 Co84 2.004 . S
O88 C93 1.259 . S
Co89 O90 2.061 . S
Co89 O95 2.052 . S
Co89 O97 2.135 . S
O90 Co89 2.061 . S
O90 C93 1.235 . S
C91 O94 1.238 . S
C91 O95 1.241 . S
C92 O85 1.247 . S
C92 O86 1.261 . S
C93 O88 1.259 . S
C93 O90 1.235 . S
O94 Co84 2.021 . S
O94 C91 1.238 . S
O95 Co89 2.052 . S
O95 C91 1.241 . S
O96 Co84 2.137 . S
O96 C87 1.247 . S
O97 Co84 2.244 . S
O97 C87 1.272 . S
O97 Co89 2.135 . S
Co98 O99 2.216 . S
Co98 O100 2.091 . S
Co98 O102 2.004 . S
Co98 O108 2.021 . S
Co98 O110 2.137 . S
Co98 O111 2.244 . S
O99 Co98 2.216 . S
O99 C106 1.247 . S
O100 Co98 2.091 . S
O100 C106 1.261 . S
C101 O110 1.247 . S
C101 O111 1.272 . S
O102 Co98 2.004 . S
O102 C107 1.259 . S
Co103 O104 2.061 . S
Co103 O109 2.052 . S
Co103 O111 2.135 . S
O104 Co103 2.061 . S
O104 C107 1.235 . S
C105 O108 1.238 . S
C105 O109 1.241 . S
C106 O99 1.247 . S
C106 O100 1.261 . S
C107 O102 1.259 . S
C107 O104 1.235 . S
O108 Co98 2.021 . S
O108 C105 1.238 . S
O109 Co103 2.052 . S
O109 C105 1.241 . S
O110 Co98 2.137 . S
O110 C101 1.247 . S
O111 Co98 2.244 . S
O111 C101 1.272 . S
O111 Co103 2.135 . S
Co112 O113 2.216 . S
Co112 O114 2.091 . S
Co112 O116 2.004 . S
Co112 O122 2.021 . S
Co112 O124 2.137 . S
Co112 O125 2.244 . S
O113 Co112 2.216 . S
O113 C120 1.247 . S
O114 Co112 2.091 . S
O114 C120 1.261 . S
C115 O124 1.247 . S
C115 O125 1.272 . S
O116 Co112 2.004 . S
O116 C121 1.259 . S
Co117 O118 2.061 . S
Co117 O123 2.052 . S
Co117 O125 2.135 . S
O118 Co117 2.061 . S
O118 C121 1.235 . S
C119 O122 1.238 . S
C119 O123 1.241 . S
C120 O113 1.247 . S
C120 O114 1.261 . S
C121 O116 1.259 . S
C121 O118 1.235 . S
O122 Co112 2.021 . S
O122 C119 1.238 . S
O123 Co117 2.052 . S
O123 C119 1.241 . S
O124 Co112 2.137 . S
O124 C115 1.247 . S
O125 Co112 2.244 . S
O125 C115 1.272 . S
O125 Co117 2.135 . S
Co126 O127 2.216 . S
Co126 O128 2.091 . S
Co126 O130 2.004 . S
Co126 O136 2.021 . S
Co126 O138 2.137 . S
Co126 O139 2.244 . S
O127 Co126 2.216 . S
O127 C134 1.247 . S
O128 Co126 2.091 . S
O128 C134 1.261 . S
C129 O138 1.247 . S
C129 O139 1.272 . S
O130 Co126 2.004 . S
O130 C135 1.259 . S
Co131 O132 2.061 . S
Co131 O137 2.052 . S
Co131 O139 2.135 . S
O132 Co131 2.061 . S
O132 C135 1.235 . S
C133 O136 1.238 . S
C133 O137 1.241 . S
C134 O127 1.247 . S
C134 O128 1.261 . S
C135 O130 1.259 . S
C135 O132 1.235 . S
O136 Co126 2.021 . S
O136 C133 1.238 . S
O137 Co131 2.052 . S
O137 C133 1.241 . S
O138 Co126 2.137 . S
O138 C129 1.247 . S
O139 Co126 2.244 . S
O139 C129 1.272 . S
O139 Co131 2.135 . S
Co140 O141 2.216 . S
Co140 O142 2.091 . S
Co140 O144 2.004 . S
Co140 O150 2.021 . S
Co140 O152 2.137 . S
Co140 O153 2.244 . S
O141 Co140 2.216 . S
O141 C148 1.247 . S
O142 Co140 2.091 . S
O142 C148 1.261 . S
C143 O152 1.247 . S
C143 O153 1.272 . S
O144 Co140 2.004 . S
O144 C149 1.259 . S
Co145 O146 2.061 . S
Co145 O151 2.052 . S
Co145 O153 2.135 . S
O146 Co145 2.061 . S
O146 C149 1.235 . S
C147 O150 1.238 . S
C147 O151 1.241 . S
C148 O141 1.247 . S
C148 O142 1.261 . S
C149 O144 1.259 . S
C149 O146 1.235 . S
O150 Co140 2.021 . S
O150 C147 1.238 . S
O151 Co145 2.052 . S
O151 C147 1.241 . S
O152 Co140 2.137 . S
O152 C143 1.247 . S
O153 Co140 2.244 . S
O153 C143 1.272 . S
O153 Co145 2.135 . S
Co154 O155 2.216 . S
Co154 O156 2.091 . S
Co154 O158 2.004 . S
Co154 O164 2.021 . S
Co154 O166 2.137 . S
Co154 O167 2.244 . S
O155 Co154 2.216 . S
O155 C162 1.247 . S
O156 Co154 2.091 . S
O156 C162 1.261 . S
C157 O166 1.247 . S
C157 O167 1.272 . S
O158 Co154 2.004 . S
O158 C163 1.259 . S
Co159 O160 2.061 . S
Co159 O165 2.052 . S
Co159 O167 2.135 . S
O160 Co159 2.061 . S
O160 C163 1.235 . S
C161 O164 1.238 . S
C161 O165 1.241 . S
C162 O155 1.247 . S
C162 O156 1.261 . S
C163 O158 1.259 . S
C163 O160 1.235 . S
O164 Co154 2.021 . S
O164 C161 1.238 . S
O165 Co159 2.052 . S
O165 C161 1.241 . S
O166 Co154 2.137 . S
O166 C157 1.247 . S
O167 Co154 2.244 . S
O167 C157 1.272 . S
O167 Co159 2.135 . S
H168 C174 0.930 . S
H169 C177 0.930 1_455 S
H170 C178 0.930 . S
H171 C179 0.930 . S
H172 C182 0.930 1_655 S
H173 C183 0.930 . S
C174 H168 0.930 . S
C174 C175 1.355 . S
C174 C176 1.415 . S
C175 C174 1.355 . S
C175 C177 1.419 . S
C176 C174 1.415 . S
C176 C181 1.425 1_655 S
C176 C183 1.409 . S
C177 H169 0.930 1_655 S
C177 C175 1.419 . S
C177 C178 1.362 1_655 S
C178 H170 0.930 . S
C178 C177 1.362 1_455 S
C178 C181 1.409 . S
C179 H171 0.930 . S
C179 C180 1.355 . S
C179 C181 1.415 . S
C180 C179 1.355 . S
C180 C182 1.419 . S
C181 C176 1.425 1_455 S
C181 C178 1.409 . S
C181 C179 1.415 . S
C182 H172 0.930 1_455 S
C182 C180 1.419 . S
C182 C183 1.362 1_455 S
C183 H173 0.930 . S
C183 C176 1.409 . S
C183 C182 1.362 1_655 S
H184 C190 0.930 . S
H185 C193 0.930 . S
H186 C194 0.930 . S
H187 C195 0.930 . S
H188 C198 0.930 . S
H189 C199 0.930 . S
C190 H184 0.930 . S
C190 C191 1.355 . S
C190 C192 1.415 . S
C191 C190 1.355 . S
C191 C193 1.419 . S
C192 C190 1.415 . S
C192 C197 1.425 1_455 S
C192 C199 1.409 . S
C193 H185 0.930 . S
C193 C191 1.419 . S
C193 C194 1.362 1_455 S
C194 H186 0.930 . S
C194 C193 1.362 1_655 S
C194 C197 1.409 . S
C195 H187 0.930 . S
C195 C196 1.355 . S
C195 C197 1.415 . S
C196 C195 1.355 . S
C196 C198 1.419 . S
C197 C192 1.425 1_655 S
C197 C194 1.409 . S
C197 C195 1.415 . S
C198 H188 0.930 . S
C198 C196 1.419 . S
C198 C199 1.362 1_655 S
C199 H189 0.930 . S
C199 C192 1.409 . S
C199 C198 1.362 1_455 S
H200 C206 0.930 . S
H201 C209 0.930 . S
H202 C210 0.930 . S
H203 C211 0.930 . S
H204 C214 0.930 . S
H205 C215 0.930 . S
C206 H200 0.930 . S
C206 C207 1.355 . S
C206 C208 1.415 1_565 S
C207 C206 1.355 . S
C207 C209 1.419 . S
C208 C206 1.415 1_545 S
C208 C213 1.425 1_545 S
C208 C215 1.409 . S
C209 H201 0.930 . S
C209 C207 1.419 . S
C209 C210 1.362 . S
C210 H202 0.930 . S
C210 C209 1.362 . S
C210 C213 1.409 . S
C211 H203 0.930 . S
C211 C212 1.355 . S
C211 C213 1.415 1_545 S
C212 C211 1.355 . S
C212 C214 1.419 . S
C213 C208 1.425 1_565 S
C213 C210 1.409 . S
C213 C211 1.415 1_565 S
C214 H204 0.930 . S
C214 C212 1.419 . S
C214 C215 1.362 . S
C215 H205 0.930 . S
C215 C208 1.409 . S
C215 C214 1.362 . S
H216 C222 0.930 . S
H217 C225 0.930 1_545 S
H218 C226 0.930 . S
H219 C227 0.930 . S
H220 C230 0.930 1_565 S
H221 C231 0.930 . S
C222 H216 0.930 . S
C222 C223 1.355 . S
C222 C224 1.415 . S
C223 C222 1.355 . S
C223 C225 1.419 . S
C224 C222 1.415 . S
C224 C229 1.425 1_565 S
C224 C231 1.409 . S
C225 H217 0.930 1_565 S
C225 C223 1.419 . S
C225 C226 1.362 1_565 S
C226 H218 0.930 . S
C226 C225 1.362 1_545 S
C226 C229 1.409 . S
C227 H219 0.930 . S
C227 C228 1.355 . S
C227 C229 1.415 . S
C228 C227 1.355 . S
C228 C230 1.419 . S
C229 C224 1.425 1_545 S
C229 C226 1.409 . S
C229 C227 1.415 . S
C230 H220 0.930 1_545 S
C230 C228 1.419 . S
C230 C231 1.362 1_545 S
C231 H221 0.930 . S
C231 C224 1.409 . S
C231 C230 1.362 1_565 S
H232 C238 0.930 . S
H233 C241 0.930 . S
H234 C242 0.930 . S
H235 C243 0.930 . S
H236 C246 0.930 . S
H237 C247 0.930 . S
C238 H232 0.930 . S
C238 C239 1.355 . S
C238 C240 1.415 1_556 S
C239 C238 1.355 . S
C239 C241 1.419 . S
C240 C238 1.415 1_554 S
C240 C245 1.425 1_554 S
C240 C247 1.409 . S
C241 H233 0.930 . S
C241 C239 1.419 . S
C241 C242 1.362 . S
C242 H234 0.930 . S
C242 C241 1.362 . S
C242 C245 1.409 . S
C243 H235 0.930 . S
C243 C244 1.355 . S
C243 C245 1.415 1_554 S
C244 C243 1.355 . S
C244 C246 1.419 . S
C245 C240 1.425 1_556 S
C245 C242 1.409 . S
C245 C243 1.415 1_556 S
C246 H236 0.930 . S
C246 C244 1.419 . S
C246 C247 1.362 . S
C247 H237 0.930 . S
C247 C240 1.409 . S
C247 C246 1.362 . S
H248 C254 0.930 1_554 S
H249 C257 0.930 . S
H250 C258 0.930 . S
H251 C259 0.930 1_556 S
H252 C262 0.930 . S
H253 C263 0.930 . S
C254 H248 0.930 1_556 S
C254 C255 1.355 . S
C254 C256 1.415 1_556 S
C255 C254 1.355 . S
C255 C257 1.419 . S
C256 C254 1.415 1_554 S
C256 C261 1.425 1_554 S
C256 C263 1.409 . S
C257 H249 0.930 . S
C257 C255 1.419 . S
C257 C258 1.362 . S
C258 H250 0.930 . S
C258 C257 1.362 . S
C258 C261 1.409 . S
C259 H251 0.930 1_554 S
C259 C260 1.355 . S
C259 C261 1.415 1_554 S
C260 C259 1.355 . S
C260 C262 1.419 . S
C261 C256 1.425 1_556 S
C261 C258 1.409 . S
C261 C259 1.415 1_556 S
C262 H252 0.930 . S
C262 C260 1.419 . S
C262 C263 1.362 . S
C263 H253 0.930 . S
C263 C256 1.409 . S
C263 C262 1.362 . S
H264 C270 0.930 . S
H265 C273 0.930 . S
H266 C274 0.930 . S
H267 C275 0.930 . S
H268 C278 0.930 . S
H269 C279 0.930 . S
C270 H264 0.930 . S
C270 C271 1.355 . S
C270 C272 1.415 . S
C271 C270 1.355 . S
C271 C273 1.419 . S
C272 C270 1.415 . S
C272 C277 1.425 . S
C272 C279 1.409 . S
C273 H265 0.930 . S
C273 C271 1.419 . S
C273 C274 1.362 . S
C274 H266 0.930 . S
C274 C273 1.362 . S
C274 C277 1.409 . S
C275 H267 0.930 . S
C275 C276 1.355 . S
C275 C277 1.415 . S
C276 C275 1.355 . S
C276 C278 1.419 . S
C277 C272 1.425 . S
C277 C274 1.409 . S
C277 C275 1.415 . S
C278 H268 0.930 . S
C278 C276 1.419 . S
C278 C279 1.362 . S
C279 H269 0.930 . S
C279 C272 1.409 . S
C279 C278 1.362 . S
H280 C286 0.930 . S
H281 C289 0.930 . S
H282 C290 0.930 . S
H283 C291 0.930 . S
H284 C294 0.930 . S
H285 C295 0.930 . S
C286 H280 0.930 . S
C286 C287 1.355 . S
C286 C288 1.415 . S
C287 C286 1.355 . S
C287 C289 1.419 . S
C288 C286 1.415 . S
C288 C293 1.425 . S
C288 C295 1.409 . S
C289 H281 0.930 . S
C289 C287 1.419 . S
C289 C290 1.362 . S
C290 H282 0.930 . S
C290 C289 1.362 . S
C290 C293 1.409 . S
C291 H283 0.930 . S
C291 C292 1.355 . S
C291 C293 1.415 . S
C292 C291 1.355 . S
C292 C294 1.419 . S
C293 C288 1.425 . S
C293 C290 1.409 . S
C293 C291 1.415 . S
C294 H284 0.930 . S
C294 C292 1.419 . S
C294 C295 1.362 . S
C295 H285 0.930 . S
C295 C288 1.409 . S
C295 C294 1.362 . S
H296 C302 0.930 . S
H297 C305 0.930 . S
H298 C306 0.930 . S
H299 C307 0.930 . S
H300 C310 0.930 . S
H301 C311 0.930 . S
C302 H296 0.930 . S
C302 C303 1.355 . S
C302 C304 1.415 . S
C303 C302 1.355 . S
C303 C305 1.419 . S
C304 C302 1.415 . S
C304 C309 1.425 . S
C304 C311 1.409 . S
C305 H297 0.930 . S
C305 C303 1.419 . S
C305 C306 1.362 . S
C306 H298 0.930 . S
C306 C305 1.362 . S
C306 C309 1.409 . S
C307 H299 0.930 . S
C307 C308 1.355 . S
C307 C309 1.415 . S
C308 C307 1.355 . S
C308 C310 1.419 . S
C309 C304 1.425 . S
C309 C306 1.409 . S
C309 C307 1.415 . S
C310 H300 0.930 . S
C310 C308 1.419 . S
C310 C311 1.362 . S
C311 H301 0.930 . S
C311 C304 1.409 . S
C311 C310 1.362 . S
H312 C318 0.930 . S
H313 C321 0.930 . S
H314 C322 0.930 . S
H315 C323 0.930 . S
H316 C326 0.930 . S
H317 C327 0.930 . S
C318 H312 0.930 . S
C318 C319 1.355 . S
C318 C320 1.415 . S
C319 C318 1.355 . S
C319 C321 1.419 . S
C320 C318 1.415 . S
C320 C325 1.425 . S
C320 C327 1.409 . S
C321 H313 0.930 . S
C321 C319 1.419 . S
C321 C322 1.362 . S
C322 H314 0.930 . S
C322 C321 1.362 . S
C322 C325 1.409 . S
C323 H315 0.930 . S
C323 C324 1.355 . S
C323 C325 1.415 . S
C324 C323 1.355 . S
C324 C326 1.419 . S
C325 C320 1.425 . S
C325 C322 1.409 . S
C325 C323 1.415 . S
C326 H316 0.930 . S
C326 C324 1.419 . S
C326 C327 1.362 . S
C327 H317 0.930 . S
C327 C320 1.409 . S
C327 C326 1.362 . S
H328 C334 0.930 . S
H329 C337 0.930 . S
H330 C338 0.930 . S
H331 C339 0.930 . S
H332 C342 0.930 . S
H333 C343 0.930 . S
C334 H328 0.930 . S
C334 C335 1.355 . S
C334 C336 1.415 . S
C335 C334 1.355 . S
C335 C337 1.419 . S
C336 C334 1.415 . S
C336 C341 1.425 . S
C336 C343 1.409 . S
C337 H329 0.930 . S
C337 C335 1.419 . S
C337 C338 1.362 . S
C338 H330 0.930 . S
C338 C337 1.362 . S
C338 C341 1.409 . S
C339 H331 0.930 . S
C339 C340 1.355 . S
C339 C341 1.415 . S
C340 C339 1.355 . S
C340 C342 1.419 . S
C341 C336 1.425 . S
C341 C338 1.409 . S
C341 C339 1.415 . S
C342 H332 0.930 . S
C342 C340 1.419 . S
C342 C343 1.362 . S
C343 H333 0.930 . S
C343 C336 1.409 . S
C343 C342 1.362 . S
H344 C350 0.930 . S
H345 C353 0.930 . S
H346 C354 0.930 . S
H347 C355 0.930 . S
H348 C358 0.930 . S
H349 C359 0.930 . S
C350 H344 0.930 . S
C350 C351 1.355 . S
C350 C352 1.415 . S
C351 C350 1.355 . S
C351 C353 1.419 . S
C352 C350 1.415 . S
C352 C357 1.425 . S
C352 C359 1.409 . S
C353 H345 0.930 . S
C353 C351 1.419 . S
C353 C354 1.362 . S
C354 H346 0.930 . S
C354 C353 1.362 . S
C354 C357 1.409 . S
C355 H347 0.930 . S
C355 C356 1.355 . S
C355 C357 1.415 . S
C356 C355 1.355 . S
C356 C358 1.419 . S
C357 C352 1.425 . S
C357 C354 1.409 . S
C357 C355 1.415 . S
C358 H348 0.930 . S
C358 C356 1.419 . S
C358 C359 1.362 . S
C359 H349 0.930 . S
C359 C352 1.409 . S
C359 C358 1.362 . S
H360 C366 0.930 . S
H361 C369 0.930 . S
H362 C370 0.930 . S
H363 C371 0.930 . S
H364 C374 0.930 . S
H365 C375 0.930 . S
C366 H360 0.930 . S
C366 C367 1.355 . S
C366 C368 1.415 . S
C367 C366 1.355 . S
C367 C369 1.419 . S
C368 C366 1.415 . S
C368 C373 1.425 . S
C368 C375 1.409 . S
C369 H361 0.930 . S
C369 C367 1.419 . S
C369 C370 1.362 . S
C370 H362 0.930 . S
C370 C369 1.362 . S
C370 C373 1.409 . S
C371 H363 0.930 . S
C371 C372 1.355 . S
C371 C373 1.415 . S
C372 C371 1.355 . S
C372 C374 1.419 . S
C373 C368 1.425 . S
C373 C370 1.409 . S
C373 C371 1.415 . S
C374 H364 0.930 . S
C374 C372 1.419 . S
C374 C375 1.362 . S
C375 H365 0.930 . S
C375 C368 1.409 . S
C375 C374 1.362 . S
H376 C382 0.930 . S
H377 C385 0.930 . S
H378 C386 0.930 . S
H379 C387 0.930 . S
H380 C390 0.930 . S
H381 C391 0.930 . S
C382 H376 0.930 . S
C382 C383 1.355 . S
C382 C384 1.415 . S
C383 C382 1.355 . S
C383 C385 1.419 . S
C384 C382 1.415 . S
C384 C389 1.425 . S
C384 C391 1.409 . S
C385 H377 0.930 . S
C385 C383 1.419 . S
C385 C386 1.362 . S
C386 H378 0.930 . S
C386 C385 1.362 . S
C386 C389 1.409 . S
C387 H379 0.930 . S
C387 C388 1.355 . S
C387 C389 1.415 . S
C388 C387 1.355 . S
C388 C390 1.419 . S
C389 C384 1.425 . S
C389 C386 1.409 . S
C389 C387 1.415 . S
C390 H380 0.930 . S
C390 C388 1.419 . S
C390 C391 1.362 . S
C391 H381 0.930 . S
C391 C384 1.409 . S
C391 C390 1.362 . S
H392 C398 0.930 . S
H393 C401 0.930 . S
H394 C402 0.930 . S
H395 C403 0.930 . S
H396 C406 0.930 . S
H397 C407 0.930 . S
C398 H392 0.930 . S
C398 C399 1.355 . S
C398 C400 1.415 . S
C399 C398 1.355 . S
C399 C401 1.419 . S
C400 C398 1.415 . S
C400 C405 1.425 . S
C400 C407 1.409 . S
C401 H393 0.930 . S
C401 C399 1.419 . S
C401 C402 1.362 . S
C402 H394 0.930 . S
C402 C401 1.362 . S
C402 C405 1.409 . S
C403 H395 0.930 . S
C403 C404 1.355 . S
C403 C405 1.415 . S
C404 C403 1.355 . S
C404 C406 1.419 . S
C405 C400 1.425 . S
C405 C402 1.409 . S
C405 C403 1.415 . S
C406 H396 0.930 . S
C406 C404 1.419 . S
C406 C407 1.362 . S
C407 H397 0.930 . S
C407 C400 1.409 . S
C407 C406 1.362 . S
H408 C414 0.930 . S
H409 C417 0.930 . S
H410 C418 0.930 . S
H411 C419 0.930 . S
H412 C422 0.930 . S
H413 C423 0.930 . S
C414 H408 0.930 . S
C414 C415 1.355 . S
C414 C416 1.415 . S
C415 C414 1.355 . S
C415 C417 1.419 . S
C416 C414 1.415 . S
C416 C421 1.425 . S
C416 C423 1.409 . S
C417 H409 0.930 . S
C417 C415 1.419 . S
C417 C418 1.362 . S
C418 H410 0.930 . S
C418 C417 1.362 . S
C418 C421 1.409 . S
C419 H411 0.930 . S
C419 C420 1.355 . S
C419 C421 1.415 . S
C420 C419 1.355 . S
C420 C422 1.419 . S
C421 C416 1.425 . S
C421 C418 1.409 . S
C421 C419 1.415 . S
C422 H412 0.930 . S
C422 C420 1.419 . S
C422 C423 1.362 . S
C423 H413 0.930 . S
C423 C416 1.409 . S
C423 C422 1.362 . S
H424 C430 0.930 . S
H425 C433 0.930 . S
H426 C434 0.930 . S
H427 C435 0.930 . S
H428 C438 0.930 . S
H429 C439 0.930 . S
C430 H424 0.930 . S
C430 C431 1.355 . S
C430 C432 1.415 . S
C431 C430 1.355 . S
C431 C433 1.419 . S
C432 C430 1.415 . S
C432 C437 1.425 . S
C432 C439 1.409 . S
C433 H425 0.930 . S
C433 C431 1.419 . S
C433 C434 1.362 . S
C434 H426 0.930 . S
C434 C433 1.362 . S
C434 C437 1.409 . S
C435 H427 0.930 . S
C435 C436 1.355 . S
C435 C437 1.415 . S
C436 C435 1.355 . S
C436 C438 1.419 . S
C437 C432 1.425 . S
C437 C434 1.409 . S
C437 C435 1.415 . S
C438 H428 0.930 . S
C438 C436 1.419 . S
C438 C439 1.362 . S
C439 H429 0.930 . S
C439 C432 1.409 . S
C439 C438 1.362 . S
H440 C446 0.930 . S
H441 C449 0.930 . S
H442 C450 0.930 . S
H443 C451 0.930 . S
H444 C454 0.930 . S
H445 C455 0.930 . S
C446 H440 0.930 . S
C446 C447 1.355 . S
C446 C448 1.415 . S
C447 C446 1.355 . S
C447 C449 1.419 . S
C448 C446 1.415 . S
C448 C453 1.425 . S
C448 C455 1.409 . S
C449 H441 0.930 . S
C449 C447 1.419 . S
C449 C450 1.362 . S
C450 H442 0.930 . S
C450 C449 1.362 . S
C450 C453 1.409 . S
C451 H443 0.930 . S
C451 C452 1.355 . S
C451 C453 1.415 . S
C452 C451 1.355 . S
C452 C454 1.419 . S
C453 C448 1.425 . S
C453 C450 1.409 . S
C453 C451 1.415 . S
C454 H444 0.930 . S
C454 C452 1.419 . S
C454 C455 1.362 . S
C455 H445 0.930 . S
C455 C448 1.409 . S
C455 C454 1.362 . S
H456 C462 0.932 . S
H457 C465 0.930 . S
H458 C466 0.930 . S
H459 C467 0.932 . S
H460 C470 0.930 . S
H461 C471 0.930 . S
C462 H456 0.932 . S
C462 C463 1.352 1_655 S
C462 C464 1.416 . S
C463 C462 1.352 1_455 S
C463 C465 1.419 . S
C464 C462 1.416 . S
C464 C469 1.425 1_645 S
C464 C471 1.409 . S
C465 H457 0.930 . S
C465 C463 1.419 . S
C465 C466 1.362 1_545 S
C466 H458 0.930 . S
C466 C465 1.362 1_565 S
C466 C469 1.409 . S
C467 H459 0.932 . S
C467 C468 1.352 1_455 S
C467 C469 1.416 . S
C468 C467 1.352 1_655 S
C468 C470 1.419 . S
C469 C464 1.425 1_465 S
C469 C466 1.409 . S
C469 C467 1.416 . S
C470 H460 0.930 . S
C470 C468 1.419 . S
C470 C471 1.362 1_565 S
C471 H461 0.930 . S
C471 C464 1.409 . S
C471 C470 1.362 1_545 S
H472 C478 0.930 . S
H473 C481 0.930 1_455 S
H474 C482 0.930 . S
H475 C483 0.930 . S
H476 C486 0.930 1_655 S
H477 C487 0.930 . S
C478 H472 0.930 . S
C478 C479 1.355 . S
C478 C480 1.424 . S
C479 C478 1.355 . S
C479 C481 1.419 . S
C480 C478 1.424 . S
C480 C485 1.425 1_645 S
C480 C487 1.400 1_545 S
C481 H473 0.930 1_655 S
C481 C479 1.419 . S
C481 C482 1.362 1_655 S
C482 H474 0.930 . S
C482 C481 1.362 1_455 S
C482 C485 1.400 1_545 S
C483 H475 0.930 . S
C483 C484 1.355 . S
C483 C485 1.424 . S
C484 C483 1.355 . S
C484 C486 1.419 . S
C485 C480 1.425 1_465 S
C485 C482 1.400 1_565 S
C485 C483 1.424 . S
C486 H476 0.930 1_455 S
C486 C484 1.419 . S
C486 C487 1.362 1_455 S
C487 H477 0.930 . S
C487 C480 1.400 1_565 S
C487 C486 1.362 1_655 S
H488 C494 0.930 . S
H489 C497 0.930 . S
H490 C498 0.930 . S
H491 C499 0.930 . S
H492 C502 0.930 . S
H493 C503 0.930 . S
C494 H488 0.930 . S
C494 C495 1.355 . S
C494 C496 1.415 . S
C495 C494 1.355 . S
C495 C497 1.419 . S
C496 C494 1.415 . S
C496 C501 1.425 1_566 S
C496 C503 1.409 1_556 S
C497 H489 0.930 . S
C497 C495 1.419 . S
C497 C498 1.362 1_565 S
C498 H490 0.930 . S
C498 C497 1.362 1_545 S
C498 C501 1.409 1_556 S
C499 H491 0.930 . S
C499 C500 1.355 . S
C499 C501 1.415 . S
C500 C499 1.355 . S
C500 C502 1.419 . S
C501 C496 1.425 1_544 S
C501 C498 1.409 1_554 S
C501 C499 1.415 . S
C502 H492 0.930 . S
C502 C500 1.419 . S
C502 C503 1.362 1_545 S
C503 H493 0.930 . S
C503 C496 1.409 1_554 S
C503 C502 1.362 1_565 S
H504 C510 0.930 . S
H505 C513 0.930 . S
H506 C514 0.930 . S
H507 C515 0.930 . S
H508 C518 0.930 . S
H509 C519 0.930 . S
C510 H504 0.930 . S
C510 C511 1.355 . S
C510 C512 1.415 . S
C511 C510 1.355 . S
C511 C513 1.419 . S
C512 C510 1.415 . S
C512 C517 1.425 1_564 S
C512 C519 1.409 1_554 S
C513 H505 0.930 . S
C513 C511 1.419 . S
C513 C514 1.362 1_565 S
C514 H506 0.930 . S
C514 C513 1.362 1_545 S
C514 C517 1.409 1_554 S
C515 H507 0.930 . S
C515 C516 1.355 . S
C515 C517 1.415 . S
C516 C515 1.355 . S
C516 C518 1.419 . S
C517 C512 1.425 1_546 S
C517 C514 1.409 1_556 S
C517 C515 1.415 . S
C518 H508 0.930 . S
C518 C516 1.419 . S
C518 C519 1.362 1_545 S
C519 H509 0.930 . S
C519 C512 1.409 1_556 S
C519 C518 1.362 1_565 S
H520 C526 0.930 . S
H521 C529 0.930 . S
H522 C530 0.930 . S
H523 C531 0.930 . S
H524 C534 0.930 . S
H525 C535 0.930 . S
C526 H520 0.930 . S
C526 C527 1.355 . S
C526 C528 1.412 1_556 S
C527 C526 1.355 . S
C527 C529 1.419 . S
C528 C526 1.412 1_554 S
C528 C533 1.425 1_654 S
C528 C535 1.412 1_655 S
C529 H521 0.930 . S
C529 C527 1.419 . S
C529 C530 1.362 . S
C530 H522 0.930 . S
C530 C529 1.362 . S
C530 C533 1.412 1_655 S
C531 H523 0.930 . S
C531 C532 1.355 . S
C531 C533 1.412 1_554 S
C532 C531 1.355 . S
C532 C534 1.419 . S
C533 C528 1.425 1_456 S
C533 C530 1.412 1_455 S
C533 C531 1.412 1_556 S
C534 H524 0.930 . S
C534 C532 1.419 . S
C534 C535 1.362 . S
C535 H525 0.930 . S
C535 C528 1.412 1_455 S
C535 C534 1.362 . S
H536 C542 0.930 . S
H537 C545 0.930 1_554 S
H538 C546 0.930 . S
H539 C547 0.930 . S
H540 C550 0.930 1_556 S
H541 C551 0.930 . S
C542 H536 0.930 . S
C542 C543 1.355 . S
C542 C544 1.437 . S
C543 C542 1.355 . S
C543 C545 1.419 . S
C544 C542 1.437 . S
C544 C549 1.424 1_456 S
C544 C551 1.388 1_455 S
C545 H537 0.930 1_556 S
C545 C543 1.419 . S
C545 C546 1.362 1_556 S
C546 H538 0.930 . S
C546 C545 1.362 1_554 S
C546 C549 1.388 1_455 S
C547 H539 0.930 . S
C547 C548 1.355 . S
C547 C549 1.437 . S
C548 C547 1.355 . S
C548 C550 1.419 . S
C549 C544 1.424 1_654 S
C549 C546 1.388 1_655 S
C549 C547 1.437 . S
C550 H540 0.930 1_554 S
C550 C548 1.419 . S
C550 C551 1.362 1_554 S
C551 H541 0.930 . S
C551 C544 1.388 1_655 S
C551 C550 1.362 1_556 S
C175 C50 1.041 . S
C180 C8 1.033 . S
C191 C36 1.059 . S
C196 C22 1.025 . S
C207 C78 1.046 . S
C212 C64 1.091 . S
C223 C92 1.044 . S
C228 C106 1.031 . S
C239 C134 1.045 . S
C244 C120 1.091 . S
C255 C148 1.071 . S
C260 C162 1.087 . S
C271 C9 1.080 . S
C276 C101 0.998 . S
C287 C87 1.047 . S
C292 C23 0.982 . S
C303 C73 1.059 . S
C308 C37 0.981 . S
C319 C59 1.060 . S
C324 C51 1.053 . S
C335 C65 1.046 . S
C340 C157 1.066 . S
C351 C115 1.080 . S
C356 C79 1.015 . S
C367 C143 1.015 . S
C372 C93 0.997 . S
C383 C107 1.048 . S
C388 C129 0.979 . S
C399 C31 1.002 . S
C404 C121 1.009 . S
C415 C3 1.064 . S
C420 C135 0.982 . S
C431 C149 1.065 . S
C436 C17 0.979 . S
C447 C45 1.046 . S
C452 C163 0.982 . S
C463 C7 1.252 . S
C468 C21 1.248 . S
C479 C49 1.289 . S
C484 C35 1.243 . S
C495 C91 1.287 . S
C500 C63 1.237 . S
C511 C77 1.286 . S
C516 C105 1.236 . S
C527 C147 1.238 . S
C532 C119 1.287 . S
C543 C133 1.288 . S
C548 C161 1.241 . S
