# Generated by pormake.
# Topology wjd, (6)-cn, num edge types: 1
# Building blocks:
#     Node 0, Type 0, BuildingBlock: JUFBIX_clean_sbu_0, # of connection points: 6
#     Node 1, Type 0, BuildingBlock: JUFBIX_clean_sbu_0, # of connection points: 6
#     Node 2, Type 0, BuildingBlock: JUFBIX_clean_sbu_0, # of connection points: 6
#     Node 3, Type 0, BuildingBlock: JUFBIX_clean_sbu_0, # of connection points: 6
#     Node 4, Type 0, BuildingBlock: JUFBIX_clean_sbu_0, # of connection points: 6
#     Node 5, Type 0, BuildingBlock: JUFBIX_clean_sbu_0, # of connection points: 6
#     Node 6, Type 0, BuildingBlock: JUFBIX_clean_sbu_0, # of connection points: 6
#     Node 7, Type 0, BuildingBlock: JUFBIX_clean_sbu_0, # of connection points: 6
#     Node 8, Type 0, BuildingBlock: JUFBIX_clean_sbu_0, # of connection points: 6
#     Node 9, Type 0, BuildingBlock: JUFBIX_clean_sbu_0, # of connection points: 6
#     Node 10, Type 0, BuildingBlock: JUFBIX_clean_sbu_0, # of connection points: 6
#     Node 11, Type 0, BuildingBlock: JUFBIX_clean_sbu_0, # of connection points: 6
#     Edge 12, Type (0, 0), BuildingBlock: XIVTED_clean_linker_0, # of connection points: 2
#     Edge 13, Type (0, 0), BuildingBlock: XIVTED_clean_linker_0, # of connection points: 2
#     Edge 14, Type (0, 0), BuildingBlock: XIVTED_clean_linker_0, # of connection points: 2
#     Edge 15, Type (0, 0), BuildingBlock: XIVTED_clean_linker_0, # of connection points: 2
#     Edge 16, Type (0, 0), BuildingBlock: XIVTED_clean_linker_0, # of connection points: 2
#     Edge 17, Type (0, 0), BuildingBlock: XIVTED_clean_linker_0, # of connection points: 2
#     Edge 18, Type (0, 0), BuildingBlock: XIVTED_clean_linker_0, # of connection points: 2
#     Edge 19, Type (0, 0), BuildingBlock: XIVTED_clean_linker_0, # of connection points: 2
#     Edge 20, Type (0, 0), BuildingBlock: XIVTED_clean_linker_0, # of connection points: 2
#     Edge 21, Type (0, 0), BuildingBlock: XIVTED_clean_linker_0, # of connection points: 2
#     Edge 22, Type (0, 0), BuildingBlock: XIVTED_clean_linker_0, # of connection points: 2
#     Edge 23, Type (0, 0), BuildingBlock: XIVTED_clean_linker_0, # of connection points: 2
#     Edge 24, Type (0, 0), BuildingBlock: XIVTED_clean_linker_0, # of connection points: 2
#     Edge 25, Type (0, 0), BuildingBlock: XIVTED_clean_linker_0, # of connection points: 2
#     Edge 26, Type (0, 0), BuildingBlock: XIVTED_clean_linker_0, # of connection points: 2
#     Edge 27, Type (0, 0), BuildingBlock: XIVTED_clean_linker_0, # of connection points: 2
#     Edge 28, Type (0, 0), BuildingBlock: XIVTED_clean_linker_0, # of connection points: 2
#     Edge 29, Type (0, 0), BuildingBlock: XIVTED_clean_linker_0, # of connection points: 2
#     Edge 30, Type (0, 0), BuildingBlock: XIVTED_clean_linker_0, # of connection points: 2
#     Edge 31, Type (0, 0), BuildingBlock: XIVTED_clean_linker_0, # of connection points: 2
#     Edge 32, Type (0, 0), BuildingBlock: XIVTED_clean_linker_0, # of connection points: 2
#     Edge 33, Type (0, 0), BuildingBlock: XIVTED_clean_linker_0, # of connection points: 2
#     Edge 34, Type (0, 0), BuildingBlock: XIVTED_clean_linker_0, # of connection points: 2
#     Edge 35, Type (0, 0), BuildingBlock: XIVTED_clean_linker_0, # of connection points: 2
#     Edge 36, Type (0, 0), BuildingBlock: XIVTED_clean_linker_0, # of connection points: 2
#     Edge 37, Type (0, 0), BuildingBlock: XIVTED_clean_linker_0, # of connection points: 2
#     Edge 38, Type (0, 0), BuildingBlock: XIVTED_clean_linker_0, # of connection points: 2
#     Edge 39, Type (0, 0), BuildingBlock: XIVTED_clean_linker_0, # of connection points: 2
#     Edge 40, Type (0, 0), BuildingBlock: XIVTED_clean_linker_0, # of connection points: 2
#     Edge 41, Type (0, 0), BuildingBlock: XIVTED_clean_linker_0, # of connection points: 2
#     Edge 42, Type (0, 0), BuildingBlock: XIVTED_clean_linker_0, # of connection points: 2
#     Edge 43, Type (0, 0), BuildingBlock: XIVTED_clean_linker_0, # of connection points: 2
#     Edge 44, Type (0, 0), BuildingBlock: XIVTED_clean_linker_0, # of connection points: 2
#     Edge 45, Type (0, 0), BuildingBlock: XIVTED_clean_linker_0, # of connection points: 2
#     Edge 46, Type (0, 0), BuildingBlock: XIVTED_clean_linker_0, # of connection points: 2
#     Edge 47, Type (0, 0), BuildingBlock: XIVTED_clean_linker_0, # of connection points: 2
# Relax obj value: 0.304
# Max RMSD: 0.239
# Mean RMSD: 0.238
data_MOF--net-wjd--node1-JUFBIX_clean_sbu_0--edge1-XIVTED_clean_linker_0
_symmetry_space_group_name_H-M    P1
_symmetry_Int_Tables_number       1
_symmetry_cell_setting            triclinic
loop_
_symmetry_equiv_pos_as_xyz
'x, y, z'
_cell_length_a     33.251239
_cell_length_b     33.363149
_cell_length_c     56.315958
_cell_angle_alpha  90.08569
_cell_angle_beta   89.644477
_cell_angle_gamma 119.85272
loop_
_atom_site_label
_atom_site_type_symbol
_atom_site_fract_x
_atom_site_fract_y
_atom_site_fract_z
_atom_type_partial_charge
Co0 Co 0.30074 0.11491 0.14648 0.0
C1 C 0.35108 0.12776 0.18899 0.0
Co2 Co 0.35258 0.09176 0.14572 0.0
C3 C 0.24833 0.16352 0.13865 0.0
C4 C 0.23128 0.124 0.17079 0.0
N5 N 0.25751 0.13416 0.15091 0.0
N6 N 0.21802 0.17237 0.15045 0.0
C7 C 0.20715 0.14731 0.17056 0.0
H8 H 0.26471 0.17932 0.12191 0.0
H9 H 0.23076 0.10199 0.18501 0.0
C10 C 0.30155 0.07683 0.10343 0.0
N11 N 0.39648 0.07256 0.14204 0.0
C12 C 0.44341 0.09766 0.14267 0.0
C13 C 0.38713 0.02999 0.13529 0.0
N14 N 0.46357 0.0724 0.13653 0.0
C15 C 0.42799 0.02973 0.132 0.0
C16 C 0.26482 0.02302 0.1596 0.0
O17 O 0.27974 0.0936 0.11459 0.0
O18 O 0.3353 0.07612 0.11356 0.0
O19 O 0.30524 0.02979 0.15483 0.0
O20 O 0.25704 0.05633 0.15784 0.0
O21 O 0.36932 0.10718 0.17816 0.0
H22 H 0.35279 0.00128 0.13195 0.0
H23 H 0.46243 0.13401 0.14709 0.0
O24 O 0.32191 0.13495 0.1781 0.0
O25 O 0.34462 0.17387 0.13514 0.0
O26 O 0.39821 0.15388 0.1367 0.0
C27 C 0.38684 0.18459 0.13297 0.0
H28 H 0.18325 0.14584 0.18413 0.0
H29 H 0.4311 0.00075 0.12567 0.0
Co30 Co 0.77603 0.69029 0.37825 0.0
C31 C 0.80055 0.6455 0.34476 0.0
Co32 Co 0.80196 0.6472 0.39427 0.0
C33 C 0.77012 0.77126 0.37268 0.0
C34 C 0.73443 0.7246 0.34425 0.0
N35 N 0.75663 0.72828 0.36483 0.0
N36 N 0.75786 0.79483 0.35787 0.0
C37 C 0.73551 0.76588 0.3398 0.0
H38 H 0.79146 0.78627 0.38822 0.0
H39 H 0.72052 0.69485 0.33266 0.0
C40 C 0.7769 0.69411 0.42741 0.0
N41 N 0.82436 0.61164 0.408 0.0
C42 C 0.82691 0.57548 0.39885 0.0
C43 C 0.84634 0.62019 0.42904 0.0
N44 N 0.84958 0.56129 0.41337 0.0
C45 C 0.86159 0.58923 0.43243 0.0
C46 C 0.87173 0.7352 0.3848 0.0
O47 O 0.76894 0.70971 0.40865 0.0
O48 O 0.79068 0.66477 0.42562 0.0
O49 O 0.86199 0.69698 0.39415 0.0
O50 O 0.83917 0.7406 0.37662 0.0
O51 O 0.81235 0.6306 0.36269 0.0
H52 H 0.85244 0.64822 0.44085 0.0
H53 H 0.81286 0.56016 0.38177 0.0
O54 O 0.78319 0.67137 0.34782 0.0
O55 O 0.71308 0.63858 0.37996 0.0
O56 O 0.74217 0.59691 0.39413 0.0
C57 C 0.70746 0.59984 0.38726 0.0
H58 H 0.7221 0.77436 0.32431 0.0
H59 H 0.88149 0.58846 0.44739 0.0
Co60 Co 0.88014 0.17223 0.12096 0.0
C61 C 0.87409 0.21275 0.16447 0.0
Co62 Co 0.89623 0.245 0.11943 0.0
C63 C 0.83265 0.07042 0.12473 0.0
C64 C 0.9 0.10559 0.14048 0.0
N65 N 0.87053 0.11295 0.12716 0.0
N66 N 0.83781 0.03777 0.13629 0.0
C67 C 0.88021 0.05983 0.14593 0.0
H68 H 0.80096 0.06393 0.11612 0.0
H69 H 0.93282 0.13193 0.14743 0.0
C70 C 0.90456 0.20541 0.07611 0.0
N71 N 0.9082 0.30479 0.11419 0.0
C72 C 0.87968 0.32258 0.11633 0.0
C73 C 0.94763 0.33924 0.1047 0.0
N74 N 0.89972 0.36664 0.10836 0.0
C75 C 0.94267 0.3772 0.10126 0.0
C76 C 0.97407 0.23864 0.12634 0.0
O77 O 0.88994 0.1678 0.0877 0.0
O78 O 0.90732 0.24052 0.08659 0.0
O79 O 0.96098 0.26832 0.12548 0.0
O80 O 0.94427 0.19628 0.1249 0.0
O81 O 0.88544 0.249 0.15231 0.0
H82 H 0.97773 0.3366 0.09982 0.0
H83 H 0.84433 0.30295 0.12273 0.0
O84 O 0.87144 0.17756 0.15418 0.0
O85 O 0.81559 0.14912 0.11651 0.0
O86 O 0.83137 0.22112 0.11367 0.0
C87 C 0.80163 0.17814 0.11399 0.0
H88 H 0.89514 0.04406 0.15695 0.0
H89 H 0.96873 0.40985 0.09382 0.0
Co90 Co 0.30926 0.08821 0.39737 0.0
C91 C 0.35635 0.15207 0.36305 0.0
Co92 Co 0.34836 0.15802 0.41285 0.0
C93 C 0.22694 0.00403 0.38828 0.0
C94 C 0.28463 0.0039 0.37134 0.0
N95 N 0.27326 0.02936 0.38557 0.0
N96 N 0.20862 0.96423 0.37604 0.0
C97 C 0.24475 0.96349 0.36552 0.0
H98 H 0.2068 0.0148 0.39893 0.0
H99 H 0.31935 0.01463 0.36506 0.0
C100 C 0.30072 0.09001 0.44692 0.0
N101 N 0.3832 0.21789 0.42432 0.0
C102 C 0.4217 0.25278 0.41431 0.0
C103 C 0.37214 0.23781 0.44212 0.0
N104 N 0.4348 0.29388 0.42482 0.0
C105 C 0.40375 0.28449 0.44247 0.0
C106 C 0.26155 0.13792 0.39944 0.0
O107 O 0.28811 0.06539 0.42831 0.0
O108 O 0.32771 0.13358 0.44486 0.0
O109 O 0.2981 0.16774 0.40962 0.0
O110 O 0.25859 0.10018 0.39268 0.0
O111 O 0.36811 0.18047 0.38029 0.0
H112 H 0.34188 0.21995 0.45345 0.0
H113 H 0.43843 0.24845 0.39877 0.0
O114 O 0.33021 0.10943 0.36691 0.0
O115 O 0.36092 0.07849 0.40149 0.0
O116 O 0.39934 0.14884 0.41612 0.0
C117 C 0.3981 0.1116 0.40998 0.0
H118 H 0.24231 0.93656 0.35386 0.0
H119 H 0.40328 0.30958 0.4545 0.0
Co120 Co 0.8161 0.68524 0.12508 0.0
C121 C 0.79223 0.6443 0.16976 0.0
Co122 Co 0.7411 0.6345 0.12894 0.0
C123 C 0.91398 0.75053 0.13614 0.0
C124 C 0.90144 0.73041 0.09963 0.0
N125 N 0.87949 0.72568 0.12055 0.0
N126 N 0.95637 0.76992 0.12567 0.0
C127 C 0.94834 0.75747 0.10268 0.0
H128 H 0.9083 0.75265 0.15494 0.0
H129 H 0.88458 0.71365 0.08326 0.0
C130 C 0.76323 0.67708 0.08492 0.0
N131 N 0.67791 0.59206 0.13226 0.0
C132 C 0.65755 0.54562 0.13448 0.0
C133 C 0.6423 0.60022 0.12979 0.0
N134 N 0.61082 0.52434 0.13307 0.0
C135 C 0.6012 0.55886 0.13035 0.0
C136 C 0.76593 0.72494 0.14084 0.0
O137 O 0.80384 0.69859 0.09357 0.0
O138 O 0.73081 0.6453 0.09712 0.0
O139 O 0.73178 0.68417 0.1386 0.0
O140 O 0.80697 0.73308 0.13666 0.0
O141 O 0.7516 0.62439 0.16102 0.0
H142 H 0.64592 0.63386 0.12674 0.0
H143 H 0.67682 0.52752 0.13591 0.0
O144 O 0.82646 0.67192 0.1568 0.0
O145 O 0.82504 0.637 0.11348 0.0
O146 O 0.75188 0.5862 0.11905 0.0
C147 C 0.79231 0.59545 0.11286 0.0
H148 H 0.97458 0.7669 0.08902 0.0
H149 H 0.56702 0.55473 0.12828 0.0
Co150 Co 0.91696 0.22574 0.37297 0.0
C151 C 0.85009 0.20477 0.33923 0.0
Co152 Co 0.84681 0.19726 0.3887 0.0
C153 C 0.00653 0.2364 0.37008 0.0
C154 C 0.99554 0.26762 0.33956 0.0
N155 N 0.97602 0.24708 0.36046 0.0
N156 N 0.044 0.24913 0.35627 0.0
C157 C 0.03742 0.26851 0.33683 0.0
H158 H 8e-05 0.21654 0.38624 0.0
H159 H 0.97944 0.27903 0.32664 0.0
C160 C 0.91627 0.22091 0.42222 0.0
N161 N 0.78814 0.17222 0.4023 0.0
C162 C 0.75011 0.17454 0.39612 0.0
C163 C 0.77512 0.14515 0.42186 0.0
N164 N 0.71444 0.15049 0.41137 0.0
C165 C 0.73017 0.13212 0.42755 0.0
C166 C 0.86856 0.12996 0.3778 0.0
O167 O 0.94105 0.23054 0.40371 0.0
O168 O 0.87308 0.20569 0.42005 0.0
O169 O 0.83851 0.13778 0.38716 0.0
O170 O 0.90612 0.16361 0.36995 0.0
O171 O 0.82187 0.1902 0.3568 0.0
H172 H 0.79686 0.13505 0.43135 0.0
H173 H 0.74874 0.1938 0.381 0.0
O174 O 0.89313 0.22164 0.34269 0.0
O175 O 0.92634 0.28746 0.37594 0.0
O176 O 0.85522 0.25669 0.39047 0.0
C177 C 0.89311 0.29209 0.38437 0.0
H178 H 0.06053 0.28127 0.32163 0.0
H179 H 0.71022 0.11017 0.44225 0.0
Co180 Co 0.09716 0.36217 0.62186 0.0
C181 C 0.0861 0.32734 0.57634 0.0
Co182 Co 0.12375 0.31313 0.61757 0.0
C183 C 0.10161 0.4494 0.6312 0.0
C184 C 0.03471 0.39871 0.61873 0.0
N185 N 0.07605 0.40423 0.62531 0.0
N186 N 0.07838 0.47266 0.62806 0.0
C187 C 0.03599 0.44054 0.62042 0.0
H188 H 0.1373 0.46526 0.63687 0.0
H189 H 0.0064 0.36698 0.6118 0.0
C190 C 0.13146 0.3468 0.66364 0.0
N191 N 0.14816 0.27361 0.61307 0.0
C192 C 0.15732 0.24818 0.62861 0.0
C193 C 0.16735 0.27065 0.59241 0.0
N194 N 0.18178 0.23008 0.61837 0.0
C195 C 0.18764 0.24399 0.59556 0.0
C196 C 0.19011 0.4039 0.60967 0.0
O197 O 0.11306 0.36841 0.65427 0.0
O198 O 0.13976 0.32021 0.65075 0.0
O199 O 0.18224 0.36271 0.61013 0.0
O200 O 0.15749 0.41203 0.61432 0.0
O201 O 0.10608 0.30652 0.58485 0.0
H202 H 0.16844 0.28839 0.57617 0.0
H203 H 0.14814 0.24477 0.64726 0.0
O204 O 0.08048 0.35518 0.58944 0.0
O205 O 0.03699 0.31089 0.6291 0.0
O206 O 0.06489 0.26353 0.62453 0.0
C207 C 0.03081 0.27 0.6284 0.0
H208 H 0.00863 0.44713 0.61504 0.0
H209 H 0.20584 0.23595 0.58207 0.0
Co210 Co 0.16987 0.84586 0.91166 0.0
C211 C 0.2084 0.84399 0.867 0.0
Co212 Co 0.24564 0.87973 0.91036 0.0
C213 C 0.07308 0.82477 0.91181 0.0
C214 C 0.08161 0.76595 0.90642 0.0
N215 N 0.10558 0.81177 0.91101 0.0
N216 N 0.03005 0.78865 0.9081 0.0
C217 C 0.03548 0.75171 0.90483 0.0
H218 H 0.08093 0.86011 0.91429 0.0
H219 H 0.09671 0.74429 0.90311 0.0
C220 C 0.20962 0.88603 0.95446 0.0
N221 N 0.30926 0.91012 0.91045 0.0
C222 C 0.3344 0.89128 0.90263 0.0
C223 C 0.33977 0.94937 0.92154 0.0
N224 N 0.37911 0.91596 0.90907 0.0
C225 C 0.3829 0.95292 0.92085 0.0
C226 C 0.2083 0.93571 0.89929 0.0
O227 O 0.17022 0.86527 0.94425 0.0
O228 O 0.2454 0.89247 0.943 0.0
O229 O 0.24607 0.93572 0.90298 0.0
O230 O 0.16994 0.89842 0.90125 0.0
O231 O 0.24632 0.86798 0.87778 0.0
H232 H 0.3306 0.97197 0.93099 0.0
H233 H 0.31912 0.85762 0.89433 0.0
O234 O 0.17061 0.82849 0.87871 0.0
O235 O 0.16997 0.79318 0.92254 0.0
O236 O 0.24435 0.82282 0.9177 0.0
C237 C 0.20534 0.78861 0.92316 0.0
H238 H 0.00837 0.71731 0.90012 0.0
H239 H 0.41381 0.97903 0.92959 0.0
Co240 Co 0.64273 0.745 0.62664 0.0
C241 C 0.68606 0.77983 0.58189 0.0
Co242 Co 0.69766 0.81813 0.62571 0.0
C243 C 0.55011 0.66667 0.6251 0.0
C244 C 0.60165 0.64875 0.61583 0.0
N245 N 0.59636 0.68417 0.62354 0.0
N246 N 0.52639 0.62205 0.61829 0.0
C247 C 0.55879 0.61054 0.61268 0.0
H248 H 0.53409 0.68695 0.62984 0.0
H249 H 0.63446 0.65098 0.61158 0.0
C250 C 0.65555 0.78076 0.67072 0.0
N251 N 0.7452 0.87847 0.62981 0.0
C252 C 0.75209 0.91936 0.62132 0.0
C253 C 0.7774 0.88996 0.64693 0.0
N254 N 0.7867 0.95537 0.63294 0.0
C255 C 0.80279 0.93695 0.64888 0.0
C256 C 0.61156 0.80883 0.61962 0.0
O257 O 0.63059 0.74354 0.65948 0.0
O258 O 0.68603 0.81582 0.65938 0.0
O259 O 0.65441 0.83858 0.62093 0.0
O260 O 0.5992 0.76612 0.62076 0.0
O261 O 0.7092 0.81908 0.59203 0.0
H262 H 0.78073 0.8656 0.65823 0.0
H263 H 0.73075 0.92265 0.6079 0.0
O264 O 0.6553 0.74598 0.5938 0.0
O265 O 0.68677 0.72505 0.63272 0.0
O266 O 0.74059 0.79773 0.63015 0.0
C267 C 0.72926 0.75575 0.63265 0.0
H268 H 0.55215 0.57732 0.6061 0.0
H269 H 0.83058 0.95627 0.66131 0.0
Co270 Co 0.13883 0.30851 0.88499 0.0
C271 C 0.14457 0.35284 0.84119 0.0
Co272 Co 0.10932 0.35417 0.88466 0.0
C273 C 0.15841 0.23281 0.88972 0.0
C274 C 0.21273 0.29405 0.87348 0.0
N275 N 0.1697 0.27585 0.88292 0.0
N276 N 0.19311 0.22396 0.88502 0.0
C277 C 0.22719 0.26236 0.87478 0.0
H278 H 0.12576 0.20877 0.89809 0.0
H279 H 0.2325 0.32844 0.86606 0.0
C280 C 0.09945 0.30781 0.92798 0.0
N281 N 0.08253 0.39094 0.88677 0.0
C282 C 0.10538 0.43684 0.88288 0.0
C283 C 0.04404 0.38236 0.89892 0.0
N284 N 0.08452 0.4581 0.89341 0.0
C285 C 0.0452 0.4236 0.90308 0.0
C286 C 0.04844 0.26244 0.87253 0.0
O287 O 0.11865 0.28796 0.91725 0.0
O288 O 0.0956 0.33909 0.91717 0.0
O289 O 0.05094 0.30122 0.8767 0.0
O290 O 0.08452 0.25882 0.87408 0.0
O291 O 0.12214 0.36884 0.8521 0.0
H292 H 0.01951 0.34921 0.90651 0.0
H293 H 0.13893 0.45459 0.87427 0.0
O294 O 0.15693 0.32795 0.85258 0.0
O295 O 0.19355 0.35781 0.89628 0.0
O296 O 0.16851 0.40651 0.8928 0.0
C297 C 0.20094 0.39856 0.89786 0.0
H298 H 0.25985 0.26685 0.86821 0.0
H299 H 0.02129 0.42792 0.91444 0.0
Co300 Co 0.2552 0.907 0.64495 0.0
C301 C 0.21718 0.91889 0.60272 0.0
Co302 Co 0.18112 0.88655 0.64727 0.0
C303 C 0.33842 0.89816 0.64262 0.0
C304 C 0.35097 0.96512 0.6323 0.0
N305 N 0.31754 0.92405 0.64072 0.0
N306 N 0.38348 0.92151 0.63567 0.0
C307 C 0.3913 0.96374 0.62928 0.0
H308 H 0.32064 0.8626 0.64859 0.0
H309 H 0.34596 0.99379 0.6277 0.0
C310 C 0.22005 0.87695 0.68979 0.0
N311 N 0.11942 0.8693 0.65228 0.0
C312 C 0.08022 0.83785 0.64129 0.0
C313 C 0.1046 0.88259 0.67152 0.0
N314 N 0.04186 0.83071 0.6533 0.0
C315 C 0.05718 0.85904 0.67218 0.0
C316 C 0.19382 0.8134 0.63531 0.0
O317 O 0.25803 0.89506 0.67813 0.0
O318 O 0.18333 0.86949 0.67925 0.0
O319 O 0.16379 0.82607 0.63758 0.0
O320 O 0.23656 0.84328 0.63786 0.0
O321 O 0.18015 0.90506 0.61496 0.0
H322 H 0.12696 0.90667 0.68483 0.0
H323 H 0.0798 0.81917 0.62548 0.0
O324 O 0.25204 0.91918 0.6121 0.0
O325 O 0.27198 0.97073 0.65204 0.0
O326 O 0.19802 0.94635 0.65696 0.0
C327 C 0.23949 0.97912 0.65715 0.0
H328 H 0.42334 0.99122 0.6219 0.0
H329 H 0.03554 0.86234 0.68559 0.0
Co330 Co 0.68111 0.82174 0.89312 0.0
C331 C 0.64215 0.78478 0.84832 0.0
Co332 Co 0.63865 0.74634 0.89132 0.0
C333 C 0.75512 0.91905 0.8951 0.0
C334 C 0.68786 0.90875 0.88695 0.0
N335 N 0.71041 0.88573 0.89257 0.0
N336 N 0.76069 0.96164 0.8916 0.0
C337 C 0.7184 0.95509 0.88656 0.0
H338 H 0.78305 0.91221 0.89879 0.0
H339 H 0.65161 0.89287 0.88234 0.0
C340 C 0.67866 0.78119 0.93576 0.0
N341 N 0.6053 0.68276 0.89169 0.0
C342 C 0.56092 0.65807 0.88468 0.0
C343 C 0.61308 0.65302 0.90429 0.0
N344 N 0.53946 0.6148 0.89353 0.0
C345 C 0.57252 0.61111 0.9055 0.0
C346 C 0.73322 0.7833 0.88141 0.0
O347 O 0.69876 0.8207 0.92565 0.0
O348 O 0.64988 0.74611 0.92406 0.0
O349 O 0.69489 0.74591 0.88463 0.0
O350 O 0.7345 0.82188 0.88296 0.0
O351 O 0.62774 0.74631 0.85868 0.0
H352 H 0.64454 0.66247 0.914 0.0
H353 H 0.54369 0.67307 0.87495 0.0
O354 O 0.66412 0.8218 0.86031 0.0
O355 O 0.62783 0.82138 0.90396 0.0
O356 O 0.58274 0.74771 0.89822 0.0
C357 C 0.58786 0.78641 0.90439 0.0
H358 H 0.71056 0.98178 0.88157 0.0
H359 H 0.56683 0.58195 0.91632 0.0
H360 H 0.0397 0.28437 0.16048 0.0
H361 H 0.19335 0.18363 0.10623 0.0
H362 H 0.01807 0.21928 0.09202 0.0
H363 H 0.19895 0.22586 0.17903 0.0
H364 H 0.14574 0.21879 0.09676 0.0
H365 H 0.114 0.28535 0.16346 0.0
C366 C 0.05149 0.27181 0.14578 0.0
C367 C 0.02313 0.25155 0.12606 0.0
C368 C 0.15815 0.22115 0.11472 0.0
C369 C 0.10681 0.25162 0.12938 0.0
C370 C 0.1855 0.20134 0.12005 0.0
C371 C 0.19904 0.201 0.14351 0.0
C372 C 0.14447 0.24071 0.13303 0.0
C373 C 0.18806 0.2244 0.16083 0.0
C374 C 0.09357 0.27198 0.1475 0.0
C375 C 0.03923 0.23501 0.10755 0.0
N376 N 0.16084 0.2427 0.15534 0.0
N377 N 0.07974 0.23486 0.10978 0.0
H378 H 0.1693 0.87139 0.37224 0.0
H379 H 0.90915 0.82658 0.37159 0.0
H380 H 0.13761 0.98189 0.37525 0.0
H381 H 0.94642 0.7243 0.3914 0.0
H382 H 0.99205 0.8833 0.36668 0.0
H383 H 0.08602 0.81539 0.37218 0.0
C384 C 0.14475 0.88376 0.37265 0.0
C385 C 0.16013 0.93109 0.37409 0.0
C386 C 0.98181 0.84836 0.3721 0.0
C387 C 0.06527 0.86773 0.37408 0.0
C388 C 0.93466 0.81612 0.37491 0.0
C389 C 0.92093 0.77085 0.38209 0.0
C390 C 0.01504 0.8348 0.37616 0.0
C391 C 0.95536 0.75894 0.38606 0.0
C392 C 0.09735 0.85194 0.37277 0.0
C393 C 0.12701 0.94554 0.37464 0.0
N394 N 0.00071 0.79065 0.38298 0.0
N395 N 0.08106 0.91396 0.37469 0.0
H396 H 0.81634 0.99279 0.1779 0.0
H397 H 0.70629 0.74452 0.11769 0.0
H398 H 0.78685 0.97364 0.1031 0.0
H399 H 0.80988 0.79456 0.17251 0.0
H400 H 0.70642 0.81845 0.11895 0.0
H401 H 0.78146 0.90918 0.18274 0.0
C402 C 0.80111 0.97063 0.16263 0.0
C403 C 0.80514 0.98977 0.14 0.0
C404 C 0.72806 0.81254 0.13111 0.0
C405 C 0.76566 0.89464 0.14535 0.0
C406 C 0.72782 0.77052 0.13054 0.0
C407 C 0.75814 0.76389 0.14507 0.0
C408 C 0.75794 0.84721 0.14676 0.0
C409 C 0.78608 0.79862 0.16107 0.0
C410 C 0.78142 0.92314 0.16538 0.0
C411 C 0.7845 0.9599 0.12077 0.0
N412 N 0.78536 0.83891 0.16147 0.0
N413 N 0.76637 0.91352 0.12376 0.0
H414 H 0.1974 0.10414 0.36355 0.0
H415 H 0.08914 0.26312 0.39733 0.0
H416 H 0.24531 0.20044 0.42197 0.0
H417 H 0.07799 0.2084 0.32688 0.0
H418 H 0.14094 0.23394 0.40817 0.0
H419 H 0.14582 0.13366 0.35164 0.0
C420 C 0.19648 0.13089 0.37406 0.0
C421 C 0.22554 0.14988 0.39378 0.0
C422 C 0.12769 0.22869 0.39024 0.0
C423 C 0.16737 0.18387 0.38021 0.0
C424 C 0.0984 0.24552 0.38407 0.0
C425 C 0.07991 0.23846 0.36118 0.0
C426 C 0.13793 0.20376 0.37351 0.0
C427 C 0.09231 0.21504 0.3446 0.0
C428 C 0.16755 0.14806 0.3671 0.0
C429 C 0.22352 0.18489 0.40663 0.0
N430 N 0.12028 0.198 0.35116 0.0
N431 N 0.19495 0.20067 0.39964 0.0
H432 H 0.18939 0.00068 0.18716 0.0
H433 H 0.03643 0.77283 0.11276 0.0
H434 H 0.24726 0.9407 0.1398 0.0
H435 H 0.97945 0.82935 0.16287 0.0
H436 H 0.11409 0.82642 0.12721 0.0
H437 H 0.11389 0.93067 0.18418 0.0
C438 C 0.18643 0.97208 0.17668 0.0
C439 C 0.22453 0.97652 0.16361 0.0
C440 C 0.08466 0.82684 0.13528 0.0
C441 C 0.13771 0.89671 0.15946 0.0
C442 C 0.04026 0.79643 0.12692 0.0
C443 C 0.00142 0.79727 0.1363 0.0
C444 C 0.09056 0.85879 0.15307 0.0
C445 C 0.0084 0.8277 0.15506 0.0
C446 C 0.14319 0.9322 0.17484 0.0
C447 C 0.21881 0.93856 0.15025 0.0
N448 N 0.05217 0.85773 0.16258 0.0
N449 N 0.17591 0.90056 0.14812 0.0
H450 H 0.75754 0.83796 0.39806 0.0
H451 H 0.89812 0.09185 0.34335 0.0
H452 H 0.79063 0.86057 0.32345 0.0
H453 H 0.81323 0.05835 0.40651 0.0
H454 H 0.8705 0.00889 0.33768 0.0
H455 H 0.78819 0.92088 0.40327 0.0
C456 C 0.77101 0.86058 0.38276 0.0
C457 C 0.77137 0.8427 0.3603 0.0
C458 C 0.85825 0.01996 0.35281 0.0
C459 C 0.80727 0.93747 0.3661 0.0
C460 C 0.87432 0.06712 0.35618 0.0
C461 C 0.85782 0.08171 0.3754 0.0
C462 C 0.82628 0.98773 0.36905 0.0
C463 C 0.82662 0.04844 0.3914 0.0
C464 C 0.78852 0.90777 0.38571 0.0
C465 C 0.78925 0.87321 0.34097 0.0
N466 N 0.81195 0.00306 0.38789 0.0
N467 N 0.80694 0.91939 0.34433 0.0
H468 H 0.19184 0.00634 0.6858 0.0
H469 H 0.25905 0.22711 0.6054 0.0
H470 H 0.30078 0.05794 0.63309 0.0
H471 H 0.14608 0.17096 0.65593 0.0
H472 H 0.28388 0.17434 0.62028 0.0
H473 H 0.18556 0.07568 0.68094 0.0
C474 C 0.21552 0.0331 0.67372 0.0
C475 C 0.24684 0.02638 0.65979 0.0
C476 C 0.25392 0.17377 0.62831 0.0
C477 C 0.23873 0.10532 0.6535 0.0
C478 C 0.23944 0.20372 0.61969 0.0
C479 C 0.1997 0.20283 0.62908 0.0
C480 C 0.22849 0.14237 0.64645 0.0
C481 C 0.17669 0.17272 0.64809 0.0
C482 C 0.2116 0.07251 0.67079 0.0
C483 C 0.27645 0.06193 0.64432 0.0
N484 N 0.19106 0.14329 0.65593 0.0
N485 N 0.27106 0.09952 0.64125 0.0
H486 H 0.94362 0.7188 0.91718 0.0
H487 H 0.81955 0.85589 0.8719 0.0
H488 H 0.01928 0.85892 0.89107 0.0
H489 H 0.74706 0.71 0.88829 0.0
H490 H 0.89318 0.85785 0.87762 0.0
H491 H 0.87119 0.7159 0.90706 0.0
C492 C 0.94492 0.74902 0.90934 0.0
C493 C 0.98748 0.78904 0.9048 0.0
C494 C 0.86119 0.82531 0.87966 0.0
C495 C 0.90466 0.78604 0.89314 0.0
C496 C 0.81913 0.82407 0.87628 0.0
C497 C 0.77712 0.78275 0.87984 0.0
C498 C 0.86114 0.78505 0.88682 0.0
C499 C 0.77862 0.7426 0.88542 0.0
C500 C 0.90357 0.74732 0.90351 0.0
C501 C 0.9872 0.82754 0.89504 0.0
N502 N 0.82 0.74489 0.88903 0.0
N503 N 0.94632 0.82505 0.88945 0.0
H504 H 0.81072 0.00295 0.59168 0.0
H505 H 0.95892 0.24234 0.66047 0.0
H506 H 0.804 0.01784 0.6673 0.0
H507 H 0.99693 0.20732 0.59353 0.0
H508 H 0.88461 0.16875 0.65927 0.0
H509 H 0.86013 0.08725 0.58817 0.0
C510 C 0.81843 0.02425 0.60738 0.0
C511 C 0.80424 0.0039 0.62981 0.0
C512 C 0.90898 0.17776 0.64467 0.0
C513 C 0.86058 0.09937 0.62614 0.0
C514 C 0.95113 0.21949 0.6454 0.0
C515 C 0.98396 0.22989 0.62734 0.0
C516 C 0.89982 0.14727 0.62552 0.0
C517 C 0.97259 0.19971 0.60803 0.0
C518 C 0.8468 0.07212 0.60546 0.0
C519 C 0.81515 0.03262 0.64976 0.0
N520 N 0.93157 0.15961 0.60768 0.0
N521 N 0.84331 0.07895 0.64754 0.0
H522 H 0.12022 0.13679 0.88373 0.0
H523 H 0.28158 0.02411 0.90065 0.0
H524 H 0.268 0.21577 0.89468 0.0
H525 H 0.1339 0.94523 0.88852 0.0
H526 H 0.27767 0.09515 0.89784 0.0
H527 H 0.12416 0.06567 0.88633 0.0
C528 C 0.15334 0.13904 0.88696 0.0
C529 C 0.19389 0.18197 0.8888 0.0
C530 C 0.24619 0.06226 0.89569 0.0
C531 C 0.19894 0.10139 0.89139 0.0
C532 C 0.24849 0.02179 0.89713 0.0
C533 C 0.208 0.97886 0.89493 0.0
C534 C 0.20312 0.05952 0.89203 0.0
C535 C 0.16595 0.97768 0.89047 0.0
C536 C 0.15572 0.0986 0.88821 0.0
C537 C 0.2361 0.18324 0.89274 0.0
N538 N 0.16457 0.01748 0.88928 0.0
N539 N 0.23758 0.14349 0.89382 0.0
H540 H 0.00285 0.81125 0.60967 0.0
H541 H 0.7518 0.71347 0.66758 0.0
H542 H 0.97195 0.78109 0.68408 0.0
H543 H 0.79127 0.77369 0.59776 0.0
H544 H 0.82572 0.71355 0.67021 0.0
H545 H 0.91938 0.77287 0.60158 0.0
C546 C 0.97841 0.7955 0.62418 0.0
C547 C 0.99401 0.80024 0.6476 0.0
C548 C 0.81761 0.72559 0.65407 0.0
C549 C 0.89906 0.75683 0.63867 0.0
C550 C 0.77545 0.72523 0.65256 0.0
C551 C 0.76617 0.74397 0.63254 0.0
C552 C 0.85018 0.74483 0.63541 0.0
C553 C 0.79776 0.75934 0.61356 0.0
C554 C 0.93088 0.77383 0.61963 0.0
C555 C 0.9611 0.77919 0.66584 0.0
N556 N 0.83868 0.75998 0.61555 0.0
N557 N 0.91515 0.759 0.66106 0.0
H558 H 0.03331 0.17982 0.85556 0.0
H559 H 0.77233 0.04514 0.90311 0.0
H560 H 0.96212 0.24791 0.88409 0.0
H561 H 0.84441 0.97732 0.87568 0.0
H562 H 0.84063 0.11994 0.89493 0.0
H563 H 0.96234 0.10569 0.85971 0.0
C564 C 0.00241 0.17921 0.86229 0.0
C565 C 0.00359 0.21996 0.86971 0.0
C566 C 0.84165 0.08877 0.89075 0.0
C567 C 0.92261 0.13517 0.87496 0.0
C568 C 0.80278 0.04614 0.89548 0.0
C569 C 0.80283 0.00516 0.88995 0.0
C570 C 0.8809 0.09044 0.88038 0.0
C571 C 0.84321 0.00816 0.88039 0.0
C572 C 0.96201 0.13683 0.86482 0.0
C573 C 0.96262 0.21728 0.87816 0.0
N574 N 0.88066 0.0502 0.87578 0.0
N575 N 0.92381 0.1754 0.88084 0.0
H576 H 0.40803 0.12632 0.33728 0.0
H577 H 0.32249 0.17782 0.21556 0.0
H578 H 0.33839 0.20565 0.33297 0.0
H579 H 0.40449 0.11057 0.21994 0.0
H580 H 0.33544 0.19615 0.25777 0.0
H581 H 0.41637 0.12964 0.29407 0.0
C582 C 0.39588 0.14581 0.32716 0.0
C583 C 0.37306 0.16627 0.33858 0.0
C584 C 0.35103 0.17782 0.24949 0.0
C585 C 0.38051 0.16851 0.28903 0.0
C586 C 0.34354 0.16716 0.22535 0.0
C587 C 0.36202 0.14211 0.21417 0.0
C588 C 0.37692 0.16306 0.26273 0.0
C589 C 0.38929 0.12962 0.2278 0.0
C590 C 0.40022 0.14733 0.30249 0.0
C591 C 0.35693 0.19017 0.32477 0.0
N592 N 0.39549 0.13981 0.25138 0.0
N593 N 0.3603 0.19002 0.30063 0.0
H594 H 0.73999 0.57213 0.31842 0.0
H595 H 0.87081 0.69187 0.19668 0.0
H596 H 0.87312 0.6963 0.31523 0.0
H597 H 0.72866 0.5814 0.20097 0.0
H598 H 0.87817 0.685 0.23953 0.0
H599 H 0.74175 0.56539 0.27505 0.0
C600 C 0.77029 0.59704 0.30857 0.0
C601 C 0.80687 0.63429 0.32026 0.0
C602 C 0.84552 0.66196 0.23105 0.0
C603 C 0.80854 0.62799 0.27073 0.0
C604 C 0.8413 0.66579 0.20655 0.0
C605 C 0.79889 0.63748 0.1952 0.0
C606 C 0.80713 0.62944 0.24432 0.0
C607 C 0.7619 0.60429 0.20896 0.0
C608 C 0.7711 0.59358 0.28383 0.0
C609 C 0.84471 0.66661 0.30677 0.0
N610 N 0.76679 0.6014 0.23276 0.0
N611 N 0.84445 0.66295 0.28269 0.0
H612 H 0.83856 0.13696 0.19347 0.0
H613 H 0.86738 0.27811 0.31208 0.0
H614 H 0.88253 0.28245 0.19398 0.0
H615 H 0.80445 0.12995 0.31028 0.0
H616 H 0.86562 0.27954 0.26867 0.0
H617 H 0.82057 0.13292 0.23574 0.0
C618 C 0.84445 0.16815 0.20246 0.0
C619 C 0.86259 0.21029 0.19013 0.0
C620 C 0.85105 0.24653 0.27768 0.0
C621 C 0.84176 0.20573 0.23876 0.0
C622 C 0.85155 0.24571 0.30246 0.0
C623 C 0.83517 0.20378 0.31464 0.0
C624 C 0.83514 0.20515 0.26497 0.0
C625 C 0.81641 0.16283 0.30146 0.0
C626 C 0.83385 0.16569 0.22662 0.0
C627 C 0.86895 0.24932 0.20276 0.0
N628 N 0.81751 0.16457 0.27729 0.0
N629 N 0.85892 0.24617 0.2264 0.0
H630 H 0.16299 0.30055 0.69176 0.0
H631 H 0.12773 0.40831 0.81202 0.0
H632 H 0.12191 0.40453 0.6946 0.0
H633 H 0.17706 0.31066 0.81087 0.0
H634 H 0.13081 0.41089 0.76873 0.0
H635 H 0.17326 0.30668 0.73501 0.0
C636 C 0.15647 0.32488 0.70141 0.0
C637 C 0.14122 0.35179 0.6895 0.0
C638 C 0.14137 0.38915 0.7779 0.0
C639 C 0.15278 0.35892 0.73895 0.0
C640 C 0.13969 0.38775 0.80267 0.0
C641 C 0.15189 0.35904 0.81514 0.0
C642 C 0.15498 0.36133 0.76535 0.0
C643 C 0.16726 0.33326 0.80201 0.0
C644 C 0.16232 0.32836 0.7261 0.0
C645 C 0.13337 0.38278 0.70295 0.0
N646 N 0.16793 0.33467 0.77783 0.0
N647 N 0.13897 0.38526 0.72687 0.0
H648 H 0.28347 0.86772 0.83817 0.0
H649 H 0.14293 0.83492 0.71814 0.0
H650 H 0.13517 0.8108 0.83582 0.0
H651 H 0.29145 0.89314 0.72023 0.0
H652 H 0.13894 0.82009 0.76068 0.0
H653 H 0.2862 0.87063 0.79486 0.0
C654 C 0.25131 0.85526 0.82856 0.0
C655 C 0.20899 0.83921 0.84076 0.0
C656 C 0.17242 0.83587 0.75188 0.0
C657 C 0.21207 0.84297 0.7909 0.0
C658 C 0.17481 0.84443 0.7275 0.0
C659 C 0.21772 0.86562 0.71549 0.0
C660 C 0.21322 0.84865 0.76458 0.0
C661 C 0.25766 0.87689 0.7287 0.0
C662 C 0.25298 0.85708 0.80376 0.0
C663 C 0.16856 0.82343 0.82724 0.0
N664 N 0.25446 0.86852 0.75253 0.0
N665 N 0.17116 0.82609 0.80308 0.0
H666 H 0.70161 0.85596 0.69981 0.0
H667 H 0.58869 0.71255 0.81896 0.0
H668 H 0.59667 0.71163 0.70096 0.0
H669 H 0.68486 0.85938 0.81814 0.0
H670 H 0.58814 0.71274 0.77567 0.0
H671 H 0.6937 0.8589 0.74287 0.0
C672 C 0.67677 0.82489 0.70909 0.0
C673 C 0.64992 0.78338 0.69672 0.0
C674 C 0.60908 0.74504 0.7849 0.0
C675 C 0.64074 0.78657 0.74612 0.0
C676 C 0.60936 0.74498 0.80968 0.0
C677 C 0.6371 0.78599 0.82224 0.0
C678 C 0.63705 0.78632 0.77247 0.0
C679 C 0.66298 0.82696 0.80921 0.0
C680 C 0.67222 0.82665 0.7337 0.0
C681 C 0.61822 0.74434 0.70973 0.0
N682 N 0.66268 0.82601 0.78503 0.0
N683 N 0.6147 0.74684 0.7337 0.0
H684 H 0.28141 0.90846 0.98418 0.0
H685 H 0.21715 0.0453 0.0806 0.0
H686 H 0.15519 0.91449 0.97879 0.0
H687 H 0.34983 0.05243 0.07337 0.0
H688 H 0.19018 0.99546 0.04506 0.0
H689 H 0.30175 0.95579 0.01961 0.0
C690 C 0.25753 0.91927 0.99066 0.0
C691 C 0.21652 0.90742 0.97838 0.0
C692 C 0.22527 0.00836 0.05123 0.0
C693 C 0.24031 0.96315 0.01918 0.0
C694 C 0.24083 0.03713 0.07137 0.0
C695 C 0.28588 0.05315 0.08008 0.0
C696 C 0.25495 0.99544 0.03988 0.0
C697 C 0.31479 0.04091 0.06752 0.0
C698 C 0.2694 0.94675 1.01089 0.0
C699 C 0.187 0.92251 0.98779 0.0
N700 N 0.29879 0.01279 0.04831 0.0
N701 N 0.19963 0.94995 1.00756 0.0
H702 H 0.78109 0.77614 0.43737 0.0
H703 H 0.65558 0.69545 0.56185 0.0
H704 H 0.75376 0.6483 0.47032 0.0
H705 H 0.74654 0.84072 0.54776 0.0
H706 H 0.68166 0.6768 0.52526 0.0
H707 H 0.76111 0.79985 0.47482 0.0
C708 C 0.77117 0.75315 0.45255 0.0
C709 C 0.769 0.71004 0.45071 0.0
C710 C 0.69587 0.71277 0.5301 0.0
C711 C 0.74519 0.73675 0.49341 0.0
C712 C 0.68066 0.72368 0.55094 0.0
C713 C 0.69871 0.76998 0.55802 0.0
C714 C 0.72887 0.74822 0.51572 0.0
C715 C 0.73149 0.80464 0.54302 0.0
C716 C 0.75992 0.76684 0.47389 0.0
C717 C 0.75607 0.68182 0.47096 0.0
N718 N 0.74533 0.79307 0.52246 0.0
N719 N 0.744 0.69537 0.49136 0.0
H720 H 0.07384 0.35521 0.95772 0.0
H721 H 0.93802 0.1541 0.05338 0.0
H722 H 0.07 0.22444 0.95146 0.0
H723 H 0.92268 0.27425 0.04475 0.0
H724 H 0.98796 0.17745 0.01767 0.0
H725 H 0.02381 0.32641 0.99239 0.0
C726 C 0.06295 0.32047 0.96383 0.0
C727 C 0.07621 0.29223 0.95152 0.0
C728 C 0.97308 0.19824 0.02348 0.0
C729 C 0.0175 0.25833 0.99145 0.0
C730 C 0.94415 0.18467 0.0437 0.0
C731 C 0.92601 0.21222 0.05212 0.0
C732 C 0.98409 0.23975 1.0118 0.0
C733 C 0.93587 0.25193 0.03906 0.0
C734 C 0.03389 0.30383 0.98361 0.0
C735 C 0.0609 0.24752 0.96048 0.0
N736 N 0.96437 0.26456 0.01981 0.0
N737 N 0.03207 0.23179 0.97985 0.0
H738 H 0.29034 0.12326 0.49057 0.0
H739 H 0.26086 0.90805 0.5643 0.0
H740 H 0.27853 0.00184 0.45669 0.0
H741 H 0.18914 0.97913 0.58725 0.0
H742 H 0.27952 0.9503 0.52655 0.0
H743 H 0.26532 0.07977 0.52844 0.0
C744 C 0.28264 0.08768 0.49109 0.0
C745 C 0.28641 0.06618 0.47038 0.0
C746 C 0.2593 0.95635 0.53974 0.0
C747 C 0.2587 0.01679 0.51347 0.0
C748 C 0.24845 0.93208 0.56121 0.0
C749 C 0.22263 0.93941 0.57872 0.0
C750 C 0.24566 0.98949 0.53595 0.0
C751 C 0.20823 0.97172 0.57398 0.0
C752 C 0.26812 0.06286 0.5126 0.0
C753 C 0.27586 0.01986 0.47209 0.0
N754 N 0.22045 0.99608 0.55316 0.0
N755 N 0.26306 0.99704 0.49319 0.0
H756 H 0.68065 0.63687 0.06149 0.0
H757 H 0.76066 0.83169 0.96029 0.0
H758 H 0.81999 0.75278 0.05718 0.0
H759 H 0.62463 0.71114 0.96573 0.0
H760 H 0.78285 0.80755 0.99697 0.0
H761 H 0.65997 0.66612 0.02688 0.0
C762 C 0.70712 0.6683 0.05312 0.0
C763 C 0.75222 0.69222 0.06227 0.0
C764 C 0.74801 0.78675 0.99022 0.0
C765 C 0.72845 0.72659 0.02252 0.0
C766 C 0.73521 0.80081 0.96947 0.0
C767 C 0.69075 0.77338 0.95994 0.0
C768 C 0.71602 0.74513 1.00146 0.0
C769 C 0.65935 0.73328 0.97235 0.0
C770 C 0.69519 0.68521 0.03337 0.0
C771 C 0.78487 0.733 0.05066 0.0
N772 N 0.67263 0.72034 0.99229 0.0
N773 N 0.77232 0.74898 0.03142 0.0
H774 H 0.02022 0.34502 0.55862 0.0
H775 H 0.99826 0.22604 0.43337 0.0
H776 H 0.09958 0.2787 0.54079 0.0
H777 H 0.88694 0.24046 0.46408 0.0
H778 H 0.04053 0.2521 0.47076 0.0
H779 H 0.9769 0.31581 0.52173 0.0
C780 C 0.02904 0.32487 0.54679 0.0
C781 C 0.06379 0.31447 0.55276 0.0
C782 C 0.00668 0.24915 0.4694 0.0
C783 C 0.01396 0.28066 0.51059 0.0
C784 C 0.9825 0.23426 0.44809 0.0
C785 C 0.93896 0.23102 0.44567 0.0
C786 C 0.9877 0.26186 0.48828 0.0
C787 C 0.92023 0.24215 0.46528 0.0
C788 C 0.0039 0.3078 0.52587 0.0
C789 C 0.0732 0.28768 0.53686 0.0
N790 N 0.94498 0.25764 0.48571 0.0
N791 N 0.04853 0.27183 0.51645 0.0
H792 H 0.75992 0.23124 0.11067 0.0
H793 H 0.50518 0.01999 0.13818 0.0
H794 H 0.72825 0.08982 0.11876 0.0
H795 H 0.53429 0.16005 0.12767 0.0
H796 H 0.58664 0.04524 0.13077 0.0
H797 H 0.6776 0.20602 0.11585 0.0
C798 C 0.73565 0.1948 0.11326 0.0
C799 C 0.75123 0.16263 0.11426 0.0
C800 C 0.5753 0.07053 0.13006 0.0
C801 C 0.65668 0.13357 0.12053 0.0
C802 C 0.52858 0.05607 0.13424 0.0
C803 C 0.51243 0.08779 0.13346 0.0
C804 C 0.60657 0.1172 0.12505 0.0
C805 C 0.54496 0.13434 0.12869 0.0
C806 C 0.68859 0.18046 0.11633 0.0
C807 C 0.718 0.1159 0.11779 0.0
N808 N 0.59036 0.14757 0.12462 0.0
N809 N 0.67247 0.10288 0.1209 0.0
H810 H 0.62195 0.5872 0.40107 0.0
H811 H 0.51222 0.31188 0.40004 0.0
H812 H 0.69064 0.51513 0.3749 0.0
H813 H 0.44259 0.37839 0.43229 0.0
H814 H 0.57392 0.38683 0.38684 0.0
H815 H 0.55145 0.51192 0.4083 0.0
C816 C 0.62175 0.55562 0.39635 0.0
C817 C 0.66201 0.55712 0.38753 0.0
C818 C 0.54514 0.3852 0.39676 0.0
C819 C 0.58253 0.47163 0.39593 0.0
C820 C 0.50967 0.34218 0.40425 0.0
C821 C 0.472 0.33855 0.41737 0.0
C822 C 0.54336 0.42533 0.40244 0.0
C823 C 0.47123 0.37946 0.42254 0.0
C824 C 0.58183 0.51277 0.40067 0.0
C825 C 0.66036 0.51538 0.38193 0.0
N826 N 0.50644 0.42118 0.41512 0.0
N827 N 0.62152 0.4745 0.38634 0.0
H828 H 0.82488 0.3587 0.1327 0.0
H829 H 0.86785 0.603 0.08961 0.0
H830 H 0.92694 0.44116 0.0795 0.0
H831 H 0.74078 0.5037 0.12433 0.0
H832 H 0.88994 0.54366 0.08578 0.0
H833 H 0.79309 0.4107 0.13022 0.0
C834 C 0.84045 0.38739 0.12038 0.0
C835 C 0.87919 0.39575 0.10655 0.0
C836 C 0.85693 0.53462 0.09397 0.0
C837 C 0.84319 0.45562 0.10383 0.0
C838 C 0.84433 0.56849 0.09616 0.0
C839 C 0.80257 0.55825 0.10741 0.0
C840 C 0.82796 0.4904 0.10347 0.0
C841 C 0.77329 0.51297 0.11551 0.0
C842 C 0.82226 0.41709 0.119 0.0
C843 C 0.89794 0.43381 0.091 0.0
N844 N 0.78686 0.48079 0.1137 0.0
N845 N 0.88003 0.46246 0.09023 0.0
H846 H 0.4301 0.07023 0.37898 0.0
H847 H 0.66572 0.15219 0.44921 0.0
H848 H 0.46452 0.15002 0.44353 0.0
H849 H 0.65908 0.13512 0.37323 0.0
H850 H 0.58598 0.13746 0.44946 0.0
H851 H 0.5081 0.07864 0.3788 0.0
C852 C 0.45372 0.08858 0.39335 0.0
C853 C 0.44109 0.10935 0.41136 0.0
C854 C 0.60193 0.13702 0.4327 0.0
C855 C 0.52952 0.11922 0.41119 0.0
C856 C 0.6473 0.14537 0.43257 0.0
C857 C 0.66879 0.145 0.41116 0.0
C858 C 0.5775 0.12743 0.41131 0.0
C859 C 0.64366 0.13618 0.39003 0.0
C860 C 0.49821 0.09385 0.39308 0.0
C861 C 0.47305 0.13351 0.42935 0.0
N862 N 0.59901 0.12735 0.39062 0.0
N863 N 0.51574 0.13768 0.42884 0.0
H864 H 0.48126 0.22593 0.13865 0.0
H865 H 0.52306 0.48074 0.11524 0.0
H866 H 0.37329 0.25522 0.11883 0.0
H867 H 0.62474 0.45429 0.148 0.0
H868 H 0.47032 0.39789 0.11271 0.0
H869 H 0.53731 0.30899 0.13742 0.0
C870 C 0.46946 0.24971 0.13368 0.0
C871 C 0.42244 0.23357 0.12894 0.0
C872 C 0.5042 0.41022 0.12045 0.0
C873 C 0.48625 0.32858 0.12773 0.0
C874 C 0.53439 0.45777 0.12209 0.0
C875 C 0.57871 0.47509 0.13197 0.0
C876 C 0.51822 0.37937 0.12863 0.0
C877 C 0.5913 0.44294 0.14003 0.0
C878 C 0.5014 0.29713 0.13317 0.0
C879 C 0.40911 0.26604 0.12274 0.0
N880 N 0.56125 0.39674 0.13819 0.0
N881 N 0.44076 0.3119 0.12241 0.0
H882 H 0.85882 0.50804 0.44649 0.0
H883 H 0.9253 0.36696 0.35425 0.0
H884 H 0.86605 0.53253 0.371 0.0
H885 H 0.86964 0.31923 0.42444 0.0
H886 H 0.91952 0.4371 0.36117 0.0
H887 H 0.87823 0.44747 0.43967 0.0
C888 C 0.86476 0.50081 0.42847 0.0
C889 C 0.86056 0.52518 0.40929 0.0
C890 C 0.90917 0.41142 0.3751 0.0
C891 C 0.88282 0.45574 0.40129 0.0
C892 C 0.9129 0.37184 0.37124 0.0
C893 C 0.89786 0.33763 0.38883 0.0
C894 C 0.89106 0.41665 0.39679 0.0
C895 C 0.8814 0.3449 0.41043 0.0
C896 C 0.87569 0.46613 0.42456 0.0
C897 C 0.86825 0.51405 0.38625 0.0
N898 N 0.8784 0.38353 0.41379 0.0
N899 N 0.87906 0.48007 0.38286 0.0
H900 H 0.10518 0.74298 0.62917 0.0
H901 H 0.16929 0.54138 0.62689 0.0
H902 H 0.24597 0.76977 0.63409 0.0
H903 H 0.02962 0.51803 0.6323 0.0
H904 H 0.19861 0.62455 0.62763 0.0
H905 H 0.0779 0.66053 0.62734 0.0
C906 C 0.13052 0.7316 0.62968 0.0
C907 C 0.17805 0.76358 0.63185 0.0
C908 C 0.16156 0.60117 0.62869 0.0
C909 C 0.14668 0.66842 0.62994 0.0
C910 C 0.14465 0.55345 0.62845 0.0
C911 C 0.09663 0.52211 0.62953 0.0
C912 C 0.13035 0.61794 0.62991 0.0
C913 C 0.06675 0.54047 0.63111 0.0
C914 C 0.1148 0.68431 0.62874 0.0
C915 C 0.20904 0.74645 0.6324 0.0
N916 N 0.08406 0.58697 0.6312 0.0
N917 N 0.1928 0.70002 0.63153 0.0
H918 H 0.44579 0.93223 0.94138 0.0
H919 H 0.50287 0.74703 0.88318 0.0
H920 H 0.38387 0.85867 0.87655 0.0
H921 H 0.58616 0.84417 0.93728 0.0
H922 H 0.44885 0.77712 0.88542 0.0
H923 H 0.49112 0.8931 0.94353 0.0
C924 C 0.44229 0.90846 0.92739 0.0
C925 C 0.41099 0.89868 0.90875 0.0
C926 C 0.47856 0.79123 0.89708 0.0
C927 C 0.46158 0.8527 0.9115 0.0
C928 C 0.50885 0.7736 0.89604 0.0
C929 C 0.54885 0.79351 0.90997 0.0
C930 C 0.48859 0.82857 0.91226 0.0
C931 C 0.55568 0.82826 0.92615 0.0
C932 C 0.46767 0.88562 0.9288 0.0
C933 C 0.40721 0.86678 0.89136 0.0
N934 N 0.52608 0.84505 0.9267 0.0
N935 N 0.43205 0.84475 0.8932 0.0
H936 H 0.45855 0.6311 0.64058 0.0
H937 H 0.25811 0.3991 0.58541 0.0
H938 H 0.48148 0.55038 0.58783 0.0
H939 H 0.23042 0.49331 0.62537 0.0
H940 H 0.34013 0.45671 0.58458 0.0
H941 H 0.37504 0.58337 0.63441 0.0
C942 C 0.44613 0.60359 0.62761 0.0
C943 C 0.47714 0.59441 0.61492 0.0
C944 C 0.31619 0.46519 0.59328 0.0
C945 C 0.3818 0.53969 0.60787 0.0
C946 C 0.26936 0.4323 0.59374 0.0
C947 C 0.23775 0.44146 0.60568 0.0
C948 C 0.33165 0.50725 0.60522 0.0
C949 C 0.2539 0.48504 0.61601 0.0
C950 C 0.39847 0.5764 0.62409 0.0
C951 C 0.459 0.55809 0.59846 0.0
N952 N 0.30006 0.51622 0.61589 0.0
N953 N 0.41256 0.53194 0.59553 0.0
H954 H 0.13607 0.71866 0.94784 0.0
H955 H 0.17614 0.52466 0.88866 0.0
H956 H 0.25617 0.75158 0.90455 0.0
H957 H 0.04236 0.50417 0.91086 0.0
H958 H 0.21142 0.605 0.90045 0.0
H959 H 0.10934 0.63671 0.94274 0.0
C960 C 0.15747 0.70855 0.93777 0.0
C961 C 0.19805 0.74176 0.92632 0.0
C962 C 0.17436 0.58276 0.90273 0.0
C963 C 0.16707 0.64815 0.91996 0.0
C964 C 0.15378 0.53668 0.89575 0.0
C965 C 0.10566 0.50684 0.89865 0.0
C966 C 0.14695 0.59926 0.91294 0.0
C967 C 0.07944 0.52526 0.90848 0.0
C968 C 0.14191 0.6618 0.93466 0.0
C969 C 0.22465 0.72694 0.91363 0.0
N970 N 0.10045 0.57018 0.91532 0.0
N971 N 0.20825 0.68094 0.91043 0.0
H972 H 0.47756 0.97241 0.63562 0.0
H973 H 0.51631 0.75511 0.61991 0.0
H974 H 0.36429 0.83207 0.63104 0.0
H975 H 0.62657 0.89732 0.61928 0.0
H976 H 0.45977 0.78163 0.62364 0.0
H977 H 0.53209 0.94458 0.62996 0.0
C978 C 0.464 0.9357 0.63334 0.0
C979 C 0.41599 0.90469 0.63367 0.0
C980 C 0.49632 0.80699 0.62254 0.0
C981 C 0.47885 0.87227 0.62734 0.0
C982 C 0.52866 0.79189 0.6203 0.0
C983 C 0.57641 0.824 0.61929 0.0
C984 C 0.51177 0.85456 0.62387 0.0
C985 C 0.59023 0.87122 0.61999 0.0
C986 C 0.49532 0.91976 0.63016 0.0
C987 C 0.40087 0.85732 0.63111 0.0
N988 N 0.55817 0.88497 0.62234 0.0
N989 N 0.43216 0.8426 0.62801 0.0
H990 H 0.49402 0.5227 0.90273 0.0
H991 H 0.2419 0.4914 0.88755 0.0
H992 H 0.47134 0.63724 0.88872 0.0
H993 H 0.2685 0.38889 0.91888 0.0
H994 H 0.32556 0.54672 0.88822 0.0
H995 H 0.41052 0.47277 0.90785 0.0
C996 C 0.47164 0.53738 0.90069 0.0
C997 C 0.49004 0.58423 0.8951 0.0
C998 C 0.31286 0.51227 0.89525 0.0
C999 C 0.39433 0.52733 0.9009 0.0
C1000 C 0.26518 0.48093 0.89505 0.0
C1001 C 0.2485 0.43546 0.90286 0.0
C1002 C 0.34355 0.49764 0.90319 0.0
C1003 C 0.28005 0.42347 0.91233 0.0
C1004 C 0.42395 0.50891 0.90366 0.0
C1005 C 0.45909 0.60124 0.89247 0.0
N1006 N 0.32606 0.45415 0.91194 0.0
N1007 N 0.4128 0.57277 0.89533 0.0
loop_
_geom_bond_atom_site_label_1
_geom_bond_atom_site_label_2
_geom_bond_distance
_geom_bond_site_symmetry_2
_ccdc_geom_bond_type
Co0 N5 2.057 . S
Co0 O17 2.021 . S
Co0 O20 2.062 . S
Co0 O24 2.117 . S
Co0 O25 2.020 . S
C1 O21 1.259 . S
C1 O24 1.258 . S
Co2 N11 2.057 . S
Co2 O18 2.117 . S
Co2 O19 2.020 . S
Co2 O21 2.021 . S
Co2 O26 2.062 . S
C3 N5 1.316 . S
C3 N6 1.347 . S
C3 H8 0.931 . S
C4 N5 1.375 . S
C4 C7 1.350 . S
C4 H9 0.930 . S
N5 Co0 2.057 . S
N5 C3 1.316 . S
N5 C4 1.375 . S
N6 C3 1.347 . S
N6 C7 1.373 . S
C7 C4 1.350 . S
C7 N6 1.373 . S
C7 H28 0.931 . S
H8 C3 0.931 . S
H9 C4 0.930 . S
C10 O17 1.259 . S
C10 O18 1.258 . S
N11 Co2 2.057 . S
N11 C12 1.316 . S
N11 C13 1.375 . S
C12 N11 1.316 . S
C12 N14 1.347 . S
C12 H23 0.931 . S
C13 N11 1.375 . S
C13 C15 1.350 . S
C13 H22 0.930 . S
N14 C12 1.347 . S
N14 C15 1.373 . S
C15 C13 1.350 . S
C15 N14 1.373 . S
C15 H29 0.931 . S
C16 O19 1.256 . S
C16 O20 1.255 . S
O17 Co0 2.021 . S
O17 C10 1.259 . S
O18 Co2 2.117 . S
O18 C10 1.258 . S
O19 Co2 2.020 . S
O19 C16 1.256 . S
O20 Co0 2.062 . S
O20 C16 1.255 . S
O21 C1 1.259 . S
O21 Co2 2.021 . S
H22 C13 0.930 . S
H23 C12 0.931 . S
O24 Co0 2.117 . S
O24 C1 1.258 . S
O25 Co0 2.020 . S
O25 C27 1.256 . S
O26 Co2 2.062 . S
O26 C27 1.255 . S
C27 O25 1.256 . S
C27 O26 1.255 . S
H28 C7 0.931 . S
H29 C15 0.931 . S
Co30 N35 2.057 . S
Co30 O47 2.021 . S
Co30 O50 2.062 . S
Co30 O54 2.117 . S
Co30 O55 2.020 . S
C31 O51 1.259 . S
C31 O54 1.258 . S
Co32 N41 2.057 . S
Co32 O48 2.117 . S
Co32 O49 2.020 . S
Co32 O51 2.021 . S
Co32 O56 2.062 . S
C33 N35 1.316 . S
C33 N36 1.347 . S
C33 H38 0.931 . S
C34 N35 1.375 . S
C34 C37 1.350 . S
C34 H39 0.930 . S
N35 Co30 2.057 . S
N35 C33 1.316 . S
N35 C34 1.375 . S
N36 C33 1.347 . S
N36 C37 1.373 . S
C37 C34 1.350 . S
C37 N36 1.373 . S
C37 H58 0.931 . S
H38 C33 0.931 . S
H39 C34 0.930 . S
C40 O47 1.259 . S
C40 O48 1.258 . S
N41 Co32 2.057 . S
N41 C42 1.316 . S
N41 C43 1.375 . S
C42 N41 1.316 . S
C42 N44 1.347 . S
C42 H53 0.931 . S
C43 N41 1.375 . S
C43 C45 1.350 . S
C43 H52 0.930 . S
N44 C42 1.347 . S
N44 C45 1.373 . S
C45 C43 1.350 . S
C45 N44 1.373 . S
C45 H59 0.931 . S
C46 O49 1.256 . S
C46 O50 1.255 . S
O47 Co30 2.021 . S
O47 C40 1.259 . S
O48 Co32 2.117 . S
O48 C40 1.258 . S
O49 Co32 2.020 . S
O49 C46 1.256 . S
O50 Co30 2.062 . S
O50 C46 1.255 . S
O51 C31 1.259 . S
O51 Co32 2.021 . S
H52 C43 0.930 . S
H53 C42 0.931 . S
O54 Co30 2.117 . S
O54 C31 1.258 . S
O55 Co30 2.020 . S
O55 C57 1.256 . S
O56 Co32 2.062 . S
O56 C57 1.255 . S
C57 O55 1.256 . S
C57 O56 1.255 . S
H58 C37 0.931 . S
H59 C45 0.931 . S
Co60 N65 2.057 . S
Co60 O77 2.021 . S
Co60 O80 2.062 . S
Co60 O84 2.117 . S
Co60 O85 2.020 . S
C61 O81 1.259 . S
C61 O84 1.258 . S
Co62 N71 2.057 . S
Co62 O78 2.117 . S
Co62 O79 2.020 . S
Co62 O81 2.021 . S
Co62 O86 2.062 . S
C63 N65 1.316 . S
C63 N66 1.347 . S
C63 H68 0.931 . S
C64 N65 1.375 . S
C64 C67 1.350 . S
C64 H69 0.930 . S
N65 Co60 2.057 . S
N65 C63 1.316 . S
N65 C64 1.375 . S
N66 C63 1.347 . S
N66 C67 1.373 . S
C67 C64 1.350 . S
C67 N66 1.373 . S
C67 H88 0.931 1_545 S
H68 C63 0.931 . S
H69 C64 0.930 . S
C70 O77 1.259 . S
C70 O78 1.258 . S
N71 Co62 2.057 . S
N71 C72 1.316 . S
N71 C73 1.375 . S
C72 N71 1.316 . S
C72 N74 1.347 . S
C72 H83 0.931 . S
C73 N71 1.375 . S
C73 C75 1.350 . S
C73 H82 0.930 . S
N74 C72 1.347 . S
N74 C75 1.373 . S
C75 C73 1.350 . S
C75 N74 1.373 . S
C75 H89 0.931 . S
C76 O79 1.256 . S
C76 O80 1.255 . S
O77 Co60 2.021 . S
O77 C70 1.259 . S
O78 Co62 2.117 . S
O78 C70 1.258 . S
O79 Co62 2.020 . S
O79 C76 1.256 . S
O80 Co60 2.062 . S
O80 C76 1.255 . S
O81 C61 1.259 . S
O81 Co62 2.021 . S
H82 C73 0.930 . S
H83 C72 0.931 . S
O84 Co60 2.117 . S
O84 C61 1.258 . S
O85 Co60 2.020 . S
O85 C87 1.256 . S
O86 Co62 2.062 . S
O86 C87 1.255 . S
C87 O85 1.256 . S
C87 O86 1.255 . S
H88 C67 0.931 1_565 S
H89 C75 0.931 . S
Co90 N95 2.057 . S
Co90 O107 2.021 . S
Co90 O110 2.062 . S
Co90 O114 2.117 . S
Co90 O115 2.020 . S
C91 O111 1.259 . S
C91 O114 1.258 . S
Co92 N101 2.057 . S
Co92 O108 2.117 . S
Co92 O109 2.020 . S
Co92 O111 2.021 . S
Co92 O116 2.062 . S
C93 N95 1.316 1_565 S
C93 N96 1.347 . S
C93 H98 0.931 . S
C94 N95 1.375 . S
C94 C97 1.350 1_545 S
C94 H99 0.930 . S
N95 Co90 2.057 . S
N95 C93 1.316 1_545 S
N95 C94 1.375 . S
N96 C93 1.347 . S
N96 C97 1.373 . S
C97 C94 1.350 1_565 S
C97 N96 1.373 . S
C97 H118 0.931 . S
H98 C93 0.931 . S
H99 C94 0.930 . S
C100 O107 1.259 . S
C100 O108 1.258 . S
N101 Co92 2.057 . S
N101 C102 1.316 . S
N101 C103 1.375 . S
C102 N101 1.316 . S
C102 N104 1.347 . S
C102 H113 0.931 . S
C103 N101 1.375 . S
C103 C105 1.350 . S
C103 H112 0.930 . S
N104 C102 1.347 . S
N104 C105 1.373 . S
C105 C103 1.350 . S
C105 N104 1.373 . S
C105 H119 0.931 . S
C106 O109 1.256 . S
C106 O110 1.255 . S
O107 Co90 2.021 . S
O107 C100 1.259 . S
O108 Co92 2.117 . S
O108 C100 1.258 . S
O109 Co92 2.020 . S
O109 C106 1.256 . S
O110 Co90 2.062 . S
O110 C106 1.255 . S
O111 C91 1.259 . S
O111 Co92 2.021 . S
H112 C103 0.930 . S
H113 C102 0.931 . S
O114 Co90 2.117 . S
O114 C91 1.258 . S
O115 Co90 2.020 . S
O115 C117 1.256 . S
O116 Co92 2.062 . S
O116 C117 1.255 . S
C117 O115 1.256 . S
C117 O116 1.255 . S
H118 C97 0.931 . S
H119 C105 0.931 . S
Co120 N125 2.057 . S
Co120 O137 2.021 . S
Co120 O140 2.062 . S
Co120 O144 2.117 . S
Co120 O145 2.020 . S
C121 O141 1.259 . S
C121 O144 1.258 . S
Co122 N131 2.057 . S
Co122 O138 2.117 . S
Co122 O139 2.020 . S
Co122 O141 2.021 . S
Co122 O146 2.062 . S
C123 N125 1.316 . S
C123 N126 1.347 . S
C123 H128 0.931 . S
C124 N125 1.375 . S
C124 C127 1.350 . S
C124 H129 0.930 . S
N125 Co120 2.057 . S
N125 C123 1.316 . S
N125 C124 1.375 . S
N126 C123 1.347 . S
N126 C127 1.373 . S
C127 C124 1.350 . S
C127 N126 1.373 . S
C127 H148 0.931 1_655 S
H128 C123 0.931 . S
H129 C124 0.930 . S
C130 O137 1.259 . S
C130 O138 1.258 . S
N131 Co122 2.057 . S
N131 C132 1.316 . S
N131 C133 1.375 . S
C132 N131 1.316 . S
C132 N134 1.347 . S
C132 H143 0.931 . S
C133 N131 1.375 . S
C133 C135 1.350 . S
C133 H142 0.930 . S
N134 C132 1.347 . S
N134 C135 1.373 . S
C135 C133 1.350 . S
C135 N134 1.373 . S
C135 H149 0.931 . S
C136 O139 1.256 . S
C136 O140 1.255 . S
O137 Co120 2.021 . S
O137 C130 1.259 . S
O138 Co122 2.117 . S
O138 C130 1.258 . S
O139 Co122 2.020 . S
O139 C136 1.256 . S
O140 Co120 2.062 . S
O140 C136 1.255 . S
O141 C121 1.259 . S
O141 Co122 2.021 . S
H142 C133 0.930 . S
H143 C132 0.931 . S
O144 Co120 2.117 . S
O144 C121 1.258 . S
O145 Co120 2.020 . S
O145 C147 1.256 . S
O146 Co122 2.062 . S
O146 C147 1.255 . S
C147 O145 1.256 . S
C147 O146 1.255 . S
H148 C127 0.931 1_455 S
H149 C135 0.931 . S
Co150 N155 2.057 . S
Co150 O167 2.021 . S
Co150 O170 2.062 . S
Co150 O174 2.117 . S
Co150 O175 2.020 . S
C151 O171 1.259 . S
C151 O174 1.258 . S
Co152 N161 2.057 . S
Co152 O168 2.117 . S
Co152 O169 2.020 . S
Co152 O171 2.021 . S
Co152 O176 2.062 . S
C153 N155 1.316 1_455 S
C153 N156 1.347 . S
C153 H158 0.931 . S
C154 N155 1.375 . S
C154 C157 1.350 1_655 S
C154 H159 0.930 . S
N155 Co150 2.057 . S
N155 C153 1.316 1_655 S
N155 C154 1.375 . S
N156 C153 1.347 . S
N156 C157 1.373 . S
C157 C154 1.350 1_455 S
C157 N156 1.373 . S
C157 H178 0.931 . S
H158 C153 0.931 . S
H159 C154 0.930 . S
C160 O167 1.259 . S
C160 O168 1.258 . S
N161 Co152 2.057 . S
N161 C162 1.316 . S
N161 C163 1.375 . S
C162 N161 1.316 . S
C162 N164 1.347 . S
C162 H173 0.931 . S
C163 N161 1.375 . S
C163 C165 1.350 . S
C163 H172 0.930 . S
N164 C162 1.347 . S
N164 C165 1.373 . S
C165 C163 1.350 . S
C165 N164 1.373 . S
C165 H179 0.931 . S
C166 O169 1.256 . S
C166 O170 1.255 . S
O167 Co150 2.021 . S
O167 C160 1.259 . S
O168 Co152 2.117 . S
O168 C160 1.258 . S
O169 Co152 2.020 . S
O169 C166 1.256 . S
O170 Co150 2.062 . S
O170 C166 1.255 . S
O171 C151 1.259 . S
O171 Co152 2.021 . S
H172 C163 0.930 . S
H173 C162 0.931 . S
O174 Co150 2.117 . S
O174 C151 1.258 . S
O175 Co150 2.020 . S
O175 C177 1.256 . S
O176 Co152 2.062 . S
O176 C177 1.255 . S
C177 O175 1.256 . S
C177 O176 1.255 . S
H178 C157 0.931 . S
H179 C165 0.931 . S
Co180 N185 2.057 . S
Co180 O197 2.021 . S
Co180 O200 2.062 . S
Co180 O204 2.117 . S
Co180 O205 2.020 . S
C181 O201 1.259 . S
C181 O204 1.258 . S
Co182 N191 2.057 . S
Co182 O198 2.117 . S
Co182 O199 2.020 . S
Co182 O201 2.021 . S
Co182 O206 2.062 . S
C183 N185 1.316 . S
C183 N186 1.347 . S
C183 H188 0.931 . S
C184 N185 1.375 . S
C184 C187 1.350 . S
C184 H189 0.930 . S
N185 Co180 2.057 . S
N185 C183 1.316 . S
N185 C184 1.375 . S
N186 C183 1.347 . S
N186 C187 1.373 . S
C187 C184 1.350 . S
C187 N186 1.373 . S
C187 H208 0.931 . S
H188 C183 0.931 . S
H189 C184 0.930 . S
C190 O197 1.259 . S
C190 O198 1.258 . S
N191 Co182 2.057 . S
N191 C192 1.316 . S
N191 C193 1.375 . S
C192 N191 1.316 . S
C192 N194 1.347 . S
C192 H203 0.931 . S
C193 N191 1.375 . S
C193 C195 1.350 . S
C193 H202 0.930 . S
N194 C192 1.347 . S
N194 C195 1.373 . S
C195 C193 1.350 . S
C195 N194 1.373 . S
C195 H209 0.931 . S
C196 O199 1.256 . S
C196 O200 1.255 . S
O197 Co180 2.021 . S
O197 C190 1.259 . S
O198 Co182 2.117 . S
O198 C190 1.258 . S
O199 Co182 2.020 . S
O199 C196 1.256 . S
O200 Co180 2.062 . S
O200 C196 1.255 . S
O201 C181 1.259 . S
O201 Co182 2.021 . S
H202 C193 0.930 . S
H203 C192 0.931 . S
O204 Co180 2.117 . S
O204 C181 1.258 . S
O205 Co180 2.020 . S
O205 C207 1.256 . S
O206 Co182 2.062 . S
O206 C207 1.255 . S
C207 O205 1.256 . S
C207 O206 1.255 . S
H208 C187 0.931 . S
H209 C195 0.931 . S
Co210 N215 2.057 . S
Co210 O227 2.021 . S
Co210 O230 2.062 . S
Co210 O234 2.117 . S
Co210 O235 2.020 . S
C211 O231 1.259 . S
C211 O234 1.258 . S
Co212 N221 2.057 . S
Co212 O228 2.117 . S
Co212 O229 2.020 . S
Co212 O231 2.021 . S
Co212 O236 2.062 . S
C213 N215 1.316 . S
C213 N216 1.347 . S
C213 H218 0.931 . S
C214 N215 1.375 . S
C214 C217 1.350 . S
C214 H219 0.930 . S
N215 Co210 2.057 . S
N215 C213 1.316 . S
N215 C214 1.375 . S
N216 C213 1.347 . S
N216 C217 1.373 . S
C217 C214 1.350 . S
C217 N216 1.373 . S
C217 H238 0.931 1_455 S
H218 C213 0.931 . S
H219 C214 0.930 . S
C220 O227 1.259 . S
C220 O228 1.258 . S
N221 Co212 2.057 . S
N221 C222 1.316 . S
N221 C223 1.375 . S
C222 N221 1.316 . S
C222 N224 1.347 . S
C222 H233 0.931 . S
C223 N221 1.375 . S
C223 C225 1.350 . S
C223 H232 0.930 . S
N224 C222 1.347 . S
N224 C225 1.373 . S
C225 C223 1.350 . S
C225 N224 1.373 . S
C225 H239 0.931 . S
C226 O229 1.256 . S
C226 O230 1.255 . S
O227 Co210 2.021 . S
O227 C220 1.259 . S
O228 Co212 2.117 . S
O228 C220 1.258 . S
O229 Co212 2.020 . S
O229 C226 1.256 . S
O230 Co210 2.062 . S
O230 C226 1.255 . S
O231 C211 1.259 . S
O231 Co212 2.021 . S
H232 C223 0.930 . S
H233 C222 0.931 . S
O234 Co210 2.117 . S
O234 C211 1.258 . S
O235 Co210 2.020 . S
O235 C237 1.256 . S
O236 Co212 2.062 . S
O236 C237 1.255 . S
C237 O235 1.256 . S
C237 O236 1.255 . S
H238 C217 0.931 1_655 S
H239 C225 0.931 . S
Co240 N245 2.057 . S
Co240 O257 2.021 . S
Co240 O260 2.062 . S
Co240 O264 2.117 . S
Co240 O265 2.020 . S
C241 O261 1.259 . S
C241 O264 1.258 . S
Co242 N251 2.057 . S
Co242 O258 2.117 . S
Co242 O259 2.020 . S
Co242 O261 2.021 . S
Co242 O266 2.062 . S
C243 N245 1.316 . S
C243 N246 1.347 . S
C243 H248 0.931 . S
C244 N245 1.375 . S
C244 C247 1.350 . S
C244 H249 0.930 . S
N245 Co240 2.057 . S
N245 C243 1.316 . S
N245 C244 1.375 . S
N246 C243 1.347 . S
N246 C247 1.373 . S
C247 C244 1.350 . S
C247 N246 1.373 . S
C247 H268 0.931 . S
H248 C243 0.931 . S
H249 C244 0.930 . S
C250 O257 1.259 . S
C250 O258 1.258 . S
N251 Co242 2.057 . S
N251 C252 1.316 . S
N251 C253 1.375 . S
C252 N251 1.316 . S
C252 N254 1.347 . S
C252 H263 0.931 . S
C253 N251 1.375 . S
C253 C255 1.350 . S
C253 H262 0.930 . S
N254 C252 1.347 . S
N254 C255 1.373 . S
C255 C253 1.350 . S
C255 N254 1.373 . S
C255 H269 0.931 1_565 S
C256 O259 1.256 . S
C256 O260 1.255 . S
O257 Co240 2.021 . S
O257 C250 1.259 . S
O258 Co242 2.117 . S
O258 C250 1.258 . S
O259 Co242 2.020 . S
O259 C256 1.256 . S
O260 Co240 2.062 . S
O260 C256 1.255 . S
O261 C241 1.259 . S
O261 Co242 2.021 . S
H262 C253 0.930 . S
H263 C252 0.931 . S
O264 Co240 2.117 . S
O264 C241 1.258 . S
O265 Co240 2.020 . S
O265 C267 1.256 . S
O266 Co242 2.062 . S
O266 C267 1.255 . S
C267 O265 1.256 . S
C267 O266 1.255 . S
H268 C247 0.931 . S
H269 C255 0.931 1_545 S
Co270 N275 2.057 . S
Co270 O287 2.021 . S
Co270 O290 2.062 . S
Co270 O294 2.117 . S
Co270 O295 2.020 . S
C271 O291 1.259 . S
C271 O294 1.258 . S
Co272 N281 2.057 . S
Co272 O288 2.117 . S
Co272 O289 2.020 . S
Co272 O291 2.021 . S
Co272 O296 2.062 . S
C273 N275 1.316 . S
C273 N276 1.347 . S
C273 H278 0.931 . S
C274 N275 1.375 . S
C274 C277 1.350 . S
C274 H279 0.930 . S
N275 Co270 2.057 . S
N275 C273 1.316 . S
N275 C274 1.375 . S
N276 C273 1.347 . S
N276 C277 1.373 . S
C277 C274 1.350 . S
C277 N276 1.373 . S
C277 H298 0.931 . S
H278 C273 0.931 . S
H279 C274 0.930 . S
C280 O287 1.259 . S
C280 O288 1.258 . S
N281 Co272 2.057 . S
N281 C282 1.316 . S
N281 C283 1.375 . S
C282 N281 1.316 . S
C282 N284 1.347 . S
C282 H293 0.931 . S
C283 N281 1.375 . S
C283 C285 1.350 . S
C283 H292 0.930 . S
N284 C282 1.347 . S
N284 C285 1.373 . S
C285 C283 1.350 . S
C285 N284 1.373 . S
C285 H299 0.931 . S
C286 O289 1.256 . S
C286 O290 1.255 . S
O287 Co270 2.021 . S
O287 C280 1.259 . S
O288 Co272 2.117 . S
O288 C280 1.258 . S
O289 Co272 2.020 . S
O289 C286 1.256 . S
O290 Co270 2.062 . S
O290 C286 1.255 . S
O291 C271 1.259 . S
O291 Co272 2.021 . S
H292 C283 0.930 . S
H293 C282 0.931 . S
O294 Co270 2.117 . S
O294 C271 1.258 . S
O295 Co270 2.020 . S
O295 C297 1.256 . S
O296 Co272 2.062 . S
O296 C297 1.255 . S
C297 O295 1.256 . S
C297 O296 1.255 . S
H298 C277 0.931 . S
H299 C285 0.931 . S
Co300 N305 2.057 . S
Co300 O317 2.021 . S
Co300 O320 2.062 . S
Co300 O324 2.117 . S
Co300 O325 2.020 . S
C301 O321 1.259 . S
C301 O324 1.258 . S
Co302 N311 2.057 . S
Co302 O318 2.117 . S
Co302 O319 2.020 . S
Co302 O321 2.021 . S
Co302 O326 2.062 . S
C303 N305 1.316 . S
C303 N306 1.347 . S
C303 H308 0.931 . S
C304 N305 1.375 . S
C304 C307 1.350 . S
C304 H309 0.930 . S
N305 Co300 2.057 . S
N305 C303 1.316 . S
N305 C304 1.375 . S
N306 C303 1.347 . S
N306 C307 1.373 . S
C307 C304 1.350 . S
C307 N306 1.373 . S
C307 H328 0.931 . S
H308 C303 0.931 . S
H309 C304 0.930 . S
C310 O317 1.259 . S
C310 O318 1.258 . S
N311 Co302 2.057 . S
N311 C312 1.316 . S
N311 C313 1.375 . S
C312 N311 1.316 . S
C312 N314 1.347 . S
C312 H323 0.931 . S
C313 N311 1.375 . S
C313 C315 1.350 . S
C313 H322 0.930 . S
N314 C312 1.347 . S
N314 C315 1.373 . S
C315 C313 1.350 . S
C315 N314 1.373 . S
C315 H329 0.931 1_455 S
C316 O319 1.256 . S
C316 O320 1.255 . S
O317 Co300 2.021 . S
O317 C310 1.259 . S
O318 Co302 2.117 . S
O318 C310 1.258 . S
O319 Co302 2.020 . S
O319 C316 1.256 . S
O320 Co300 2.062 . S
O320 C316 1.255 . S
O321 C301 1.259 . S
O321 Co302 2.021 . S
H322 C313 0.930 . S
H323 C312 0.931 . S
O324 Co300 2.117 . S
O324 C301 1.258 . S
O325 Co300 2.020 . S
O325 C327 1.256 . S
O326 Co302 2.062 . S
O326 C327 1.255 . S
C327 O325 1.256 . S
C327 O326 1.255 . S
H328 C307 0.931 . S
H329 C315 0.931 1_655 S
Co330 N335 2.057 . S
Co330 O347 2.021 . S
Co330 O350 2.062 . S
Co330 O354 2.117 . S
Co330 O355 2.020 . S
C331 O351 1.259 . S
C331 O354 1.258 . S
Co332 N341 2.057 . S
Co332 O348 2.117 . S
Co332 O349 2.020 . S
Co332 O351 2.021 . S
Co332 O356 2.062 . S
C333 N335 1.316 . S
C333 N336 1.347 . S
C333 H338 0.931 . S
C334 N335 1.375 . S
C334 C337 1.350 . S
C334 H339 0.930 . S
N335 Co330 2.057 . S
N335 C333 1.316 . S
N335 C334 1.375 . S
N336 C333 1.347 . S
N336 C337 1.373 . S
C337 C334 1.350 . S
C337 N336 1.373 . S
C337 H358 0.931 1_565 S
H338 C333 0.931 . S
H339 C334 0.930 . S
C340 O347 1.259 . S
C340 O348 1.258 . S
N341 Co332 2.057 . S
N341 C342 1.316 . S
N341 C343 1.375 . S
C342 N341 1.316 . S
C342 N344 1.347 . S
C342 H353 0.931 . S
C343 N341 1.375 . S
C343 C345 1.350 . S
C343 H352 0.930 . S
N344 C342 1.347 . S
N344 C345 1.373 . S
C345 C343 1.350 . S
C345 N344 1.373 . S
C345 H359 0.931 . S
C346 O349 1.256 . S
C346 O350 1.255 . S
O347 Co330 2.021 . S
O347 C340 1.259 . S
O348 Co332 2.117 . S
O348 C340 1.258 . S
O349 Co332 2.020 . S
O349 C346 1.256 . S
O350 Co330 2.062 . S
O350 C346 1.255 . S
O351 C331 1.259 . S
O351 Co332 2.021 . S
H352 C343 0.930 . S
H353 C342 0.931 . S
O354 Co330 2.117 . S
O354 C331 1.258 . S
O355 Co330 2.020 . S
O355 C357 1.256 . S
O356 Co332 2.062 . S
O356 C357 1.255 . S
C357 O355 1.256 . S
C357 O356 1.255 . S
H358 C337 0.931 1_545 S
H359 C345 0.931 . S
H360 C366 0.930 . S
H361 C370 0.930 . S
H362 C375 0.929 . S
H363 C373 0.929 . S
H364 C368 0.929 . S
H365 C374 0.929 . S
C366 H360 0.930 . S
C366 C367 1.367 1_455 S
C366 C374 1.378 . S
C367 C366 1.367 1_655 S
C367 C375 1.433 . S
C368 H364 0.929 . S
C368 C370 1.378 . S
C368 C372 1.350 . S
C369 C372 1.463 . S
C369 C374 1.350 . S
C369 N377 1.427 . S
C370 H361 0.930 . S
C370 C368 1.378 . S
C370 C371 1.367 . S
C371 C370 1.367 . S
C371 C373 1.433 . S
C372 C368 1.350 . S
C372 C369 1.463 . S
C372 N376 1.427 . S
C373 H363 0.929 . S
C373 C371 1.433 . S
C373 N376 1.384 . S
C374 H365 0.929 . S
C374 C366 1.378 . S
C374 C369 1.350 . S
C375 H362 0.929 . S
C375 C367 1.433 . S
C375 N377 1.384 1_655 S
N376 C372 1.427 . S
N376 C373 1.384 . S
N377 C369 1.427 . S
N377 C375 1.384 1_455 S
H378 C384 0.930 . S
H379 C388 0.930 . S
H380 C393 0.929 . S
H381 C391 0.929 . S
H382 C386 0.929 . S
H383 C392 0.929 . S
C384 H378 0.930 . S
C384 C385 1.367 . S
C384 C392 1.378 . S
C385 C384 1.367 . S
C385 C393 1.433 . S
C386 H382 0.929 . S
C386 C388 1.378 . S
C386 C390 1.350 1_655 S
C387 C390 1.463 . S
C387 C392 1.350 . S
C387 N395 1.427 . S
C388 H379 0.930 . S
C388 C386 1.378 . S
C388 C389 1.367 . S
C389 C388 1.367 . S
C389 C391 1.433 . S
C390 C386 1.350 1_455 S
C390 C387 1.463 . S
C390 N394 1.427 1_455 S
C391 H381 0.929 . S
C391 C389 1.433 . S
C391 N394 1.384 . S
C392 H383 0.929 . S
C392 C384 1.378 . S
C392 C387 1.350 . S
C393 H380 0.929 . S
C393 C385 1.433 . S
C393 N395 1.384 . S
N394 C390 1.427 1_655 S
N394 C391 1.384 . S
N395 C387 1.427 . S
N395 C393 1.384 . S
H396 C402 0.930 . S
H397 C406 0.930 . S
H398 C411 0.929 . S
H399 C409 0.929 . S
H400 C404 0.929 . S
H401 C410 0.929 . S
C402 H396 0.930 . S
C402 C403 1.367 . S
C402 C410 1.378 . S
C403 C402 1.367 . S
C403 C411 1.433 . S
C404 H400 0.929 . S
C404 C406 1.378 . S
C404 C408 1.350 . S
C405 C408 1.463 . S
C405 C410 1.350 . S
C405 N413 1.427 . S
C406 H397 0.930 . S
C406 C404 1.378 . S
C406 C407 1.367 . S
C407 C406 1.367 . S
C407 C409 1.433 . S
C408 C404 1.350 . S
C408 C405 1.463 . S
C408 N412 1.427 . S
C409 H399 0.929 . S
C409 C407 1.433 . S
C409 N412 1.384 . S
C410 H401 0.929 . S
C410 C402 1.378 . S
C410 C405 1.350 . S
C411 H398 0.929 . S
C411 C403 1.433 . S
C411 N413 1.384 . S
N412 C408 1.427 . S
N412 C409 1.384 . S
N413 C405 1.427 . S
N413 C411 1.384 . S
H414 C420 0.930 . S
H415 C424 0.930 . S
H416 C429 0.929 . S
H417 C427 0.929 . S
H418 C422 0.929 . S
H419 C428 0.929 . S
C420 H414 0.930 . S
C420 C421 1.367 . S
C420 C428 1.378 . S
C421 C420 1.367 . S
C421 C429 1.433 . S
C422 H418 0.929 . S
C422 C424 1.378 . S
C422 C426 1.350 . S
C423 C426 1.463 . S
C423 C428 1.350 . S
C423 N431 1.427 . S
C424 H415 0.930 . S
C424 C422 1.378 . S
C424 C425 1.367 . S
C425 C424 1.367 . S
C425 C427 1.433 . S
C426 C422 1.350 . S
C426 C423 1.463 . S
C426 N430 1.427 . S
C427 H417 0.929 . S
C427 C425 1.433 . S
C427 N430 1.384 . S
C428 H419 0.929 . S
C428 C420 1.378 . S
C428 C423 1.350 . S
C429 H416 0.929 . S
C429 C421 1.433 . S
C429 N431 1.384 . S
N430 C426 1.427 . S
N430 C427 1.384 . S
N431 C423 1.427 . S
N431 C429 1.384 . S
H432 C438 0.930 . S
H433 C442 0.930 . S
H434 C447 0.929 . S
H435 C445 0.929 . S
H436 C440 0.929 . S
H437 C446 0.929 . S
C438 H432 0.930 . S
C438 C439 1.367 . S
C438 C446 1.378 1_545 S
C439 C438 1.367 . S
C439 C447 1.433 . S
C440 H436 0.929 . S
C440 C442 1.378 . S
C440 C444 1.350 . S
C441 C444 1.463 . S
C441 C446 1.350 . S
C441 N449 1.427 . S
C442 H433 0.930 . S
C442 C440 1.378 . S
C442 C443 1.367 . S
C443 C442 1.367 . S
C443 C445 1.433 . S
C444 C440 1.350 . S
C444 C441 1.463 . S
C444 N448 1.427 . S
C445 H435 0.929 . S
C445 C443 1.433 . S
C445 N448 1.384 . S
C446 H437 0.929 . S
C446 C438 1.378 1_565 S
C446 C441 1.350 . S
C447 H434 0.929 . S
C447 C439 1.433 . S
C447 N449 1.384 1_545 S
N448 C444 1.427 . S
N448 C445 1.384 . S
N449 C441 1.427 . S
N449 C447 1.384 1_565 S
H450 C456 0.930 . S
H451 C460 0.930 . S
H452 C465 0.929 . S
H453 C463 0.929 . S
H454 C458 0.929 1_565 S
H455 C464 0.929 . S
C456 H450 0.930 . S
C456 C457 1.367 . S
C456 C464 1.378 . S
C457 C456 1.367 . S
C457 C465 1.433 . S
C458 H454 0.929 1_545 S
C458 C460 1.378 . S
C458 C462 1.350 1_545 S
C459 C462 1.463 . S
C459 C464 1.350 . S
C459 N467 1.427 . S
C460 H451 0.930 . S
C460 C458 1.378 . S
C460 C461 1.367 . S
C461 C460 1.367 . S
C461 C463 1.433 . S
C462 C458 1.350 1_565 S
C462 C459 1.463 . S
C462 N466 1.427 1_565 S
C463 H453 0.929 . S
C463 C461 1.433 . S
C463 N466 1.384 . S
C464 H455 0.929 . S
C464 C456 1.378 . S
C464 C459 1.350 . S
C465 H452 0.929 . S
C465 C457 1.433 . S
C465 N467 1.384 . S
N466 C462 1.427 1_545 S
N466 C463 1.384 . S
N467 C459 1.427 . S
N467 C465 1.384 . S
H468 C474 0.930 . S
H469 C478 0.930 . S
H470 C483 0.929 . S
H471 C481 0.929 . S
H472 C476 0.929 . S
H473 C482 0.929 . S
C474 H468 0.930 . S
C474 C475 1.367 . S
C474 C482 1.378 1_565 S
C475 C474 1.367 . S
C475 C483 1.433 1_565 S
C476 H472 0.929 . S
C476 C478 1.378 . S
C476 C480 1.350 . S
C477 C480 1.463 . S
C477 C482 1.350 . S
C477 N485 1.427 . S
C478 H469 0.930 . S
C478 C476 1.378 . S
C478 C479 1.367 . S
C479 C478 1.367 . S
C479 C481 1.433 . S
C480 C476 1.350 . S
C480 C477 1.463 . S
C480 N484 1.427 . S
C481 H471 0.929 . S
C481 C479 1.433 . S
C481 N484 1.384 . S
C482 H473 0.929 . S
C482 C474 1.378 1_545 S
C482 C477 1.350 . S
C483 H470 0.929 . S
C483 C475 1.433 1_545 S
C483 N485 1.384 . S
N484 C480 1.427 . S
N484 C481 1.384 . S
N485 C477 1.427 . S
N485 C483 1.384 . S
H486 C492 0.930 . S
H487 C496 0.930 . S
H488 C501 0.929 1_455 S
H489 C499 0.929 . S
H490 C494 0.929 . S
H491 C500 0.929 . S
C492 H486 0.930 . S
C492 C493 1.367 . S
C492 C500 1.378 . S
C493 C492 1.367 . S
C493 C501 1.433 . S
C494 H490 0.929 . S
C494 C496 1.378 . S
C494 C498 1.350 . S
C495 C498 1.463 . S
C495 C500 1.350 . S
C495 N503 1.427 . S
C496 H487 0.930 . S
C496 C494 1.378 . S
C496 C497 1.367 . S
C497 C496 1.367 . S
C497 C499 1.433 . S
C498 C494 1.350 . S
C498 C495 1.463 . S
C498 N502 1.427 . S
C499 H489 0.929 . S
C499 C497 1.433 . S
C499 N502 1.384 . S
C500 H491 0.929 . S
C500 C492 1.378 . S
C500 C495 1.350 . S
C501 H488 0.929 1_655 S
C501 C493 1.433 . S
C501 N503 1.384 . S
N502 C498 1.427 . S
N502 C499 1.384 . S
N503 C495 1.427 . S
N503 C501 1.384 . S
H504 C510 0.930 . S
H505 C514 0.930 . S
H506 C519 0.929 . S
H507 C517 0.929 . S
H508 C512 0.929 . S
H509 C518 0.929 . S
C510 H504 0.930 . S
C510 C511 1.367 . S
C510 C518 1.378 . S
C511 C510 1.367 . S
C511 C519 1.433 . S
C512 H508 0.929 . S
C512 C514 1.378 . S
C512 C516 1.350 . S
C513 C516 1.463 . S
C513 C518 1.350 . S
C513 N521 1.427 . S
C514 H505 0.930 . S
C514 C512 1.378 . S
C514 C515 1.367 1_655 S
C515 C514 1.367 1_455 S
C515 C517 1.433 . S
C516 C512 1.350 . S
C516 C513 1.463 . S
C516 N520 1.427 . S
C517 H507 0.929 . S
C517 C515 1.433 . S
C517 N520 1.384 1_455 S
C518 H509 0.929 . S
C518 C510 1.378 . S
C518 C513 1.350 . S
C519 H506 0.929 . S
C519 C511 1.433 . S
C519 N521 1.384 . S
N520 C516 1.427 . S
N520 C517 1.384 1_655 S
N521 C513 1.427 . S
N521 C519 1.384 . S
H522 C528 0.930 . S
H523 C532 0.938 . S
H524 C537 0.929 . S
H525 C535 0.929 . S
H526 C530 0.929 . S
H527 C536 0.929 . S
C528 H522 0.930 . S
C528 C529 1.367 . S
C528 C536 1.378 . S
C529 C528 1.367 . S
C529 C537 1.433 . S
C530 H526 0.929 . S
C530 C532 1.378 . S
C530 C534 1.350 . S
C531 C534 1.463 . S
C531 C536 1.350 . S
C531 N539 1.427 . S
C532 H523 0.938 . S
C532 C530 1.378 . S
C532 C533 1.367 1_545 S
C533 C532 1.367 1_565 S
C533 C535 1.433 . S
C534 C530 1.350 . S
C534 C531 1.463 . S
C534 N538 1.427 . S
C535 H525 0.929 . S
C535 C533 1.433 . S
C535 N538 1.384 1_565 S
C536 H527 0.929 . S
C536 C528 1.378 . S
C536 C531 1.350 . S
C537 H524 0.929 . S
C537 C529 1.433 . S
C537 N539 1.384 . S
N538 C534 1.427 . S
N538 C535 1.384 1_545 S
N539 C531 1.427 . S
N539 C537 1.384 . S
H540 C546 0.930 . S
H541 C550 0.930 . S
H542 C555 0.929 . S
H543 C553 0.929 . S
H544 C548 0.929 . S
H545 C554 0.929 . S
C546 H540 0.930 . S
C546 C547 1.367 . S
C546 C554 1.378 . S
C547 C546 1.367 . S
C547 C555 1.433 . S
C548 H544 0.929 . S
C548 C550 1.378 . S
C548 C552 1.350 . S
C549 C552 1.463 . S
C549 C554 1.350 . S
C549 N557 1.427 . S
C550 H541 0.930 . S
C550 C548 1.378 . S
C550 C551 1.367 . S
C551 C550 1.367 . S
C551 C553 1.433 . S
C552 C548 1.350 . S
C552 C549 1.463 . S
C552 N556 1.427 . S
C553 H543 0.929 . S
C553 C551 1.433 . S
C553 N556 1.384 . S
C554 H545 0.929 . S
C554 C546 1.378 . S
C554 C549 1.350 . S
C555 H542 0.929 . S
C555 C547 1.433 . S
C555 N557 1.384 . S
N556 C552 1.427 . S
N556 C553 1.384 . S
N557 C549 1.427 . S
N557 C555 1.384 . S
H558 C564 0.930 . S
H559 C568 0.930 . S
H560 C573 0.929 . S
H561 C571 0.929 1_565 S
H562 C566 0.929 . S
H563 C572 0.929 . S
C564 H558 0.930 . S
C564 C565 1.367 . S
C564 C572 1.378 1_455 S
C565 C564 1.367 . S
C565 C573 1.433 1_455 S
C566 H562 0.929 . S
C566 C568 1.378 . S
C566 C570 1.350 . S
C567 C570 1.463 . S
C567 C572 1.350 . S
C567 N575 1.427 . S
C568 H559 0.930 . S
C568 C566 1.378 . S
C568 C569 1.367 . S
C569 C568 1.367 . S
C569 C571 1.433 . S
C570 C566 1.350 . S
C570 C567 1.463 . S
C570 N574 1.427 . S
C571 H561 0.929 1_545 S
C571 C569 1.433 . S
C571 N574 1.384 . S
C572 H563 0.929 . S
C572 C564 1.378 1_655 S
C572 C567 1.350 . S
C573 H560 0.929 . S
C573 C565 1.433 1_655 S
C573 N575 1.384 . S
N574 C570 1.427 . S
N574 C571 1.384 . S
N575 C567 1.427 . S
N575 C573 1.384 . S
H576 C582 0.930 . S
H577 C586 0.930 . S
H578 C591 0.929 . S
H579 C589 0.929 . S
H580 C584 0.929 . S
H581 C590 0.929 . S
C582 H576 0.930 . S
C582 C583 1.367 . S
C582 C590 1.378 . S
C583 C582 1.367 . S
C583 C591 1.433 . S
C584 H580 0.929 . S
C584 C586 1.378 . S
C584 C588 1.350 . S
C585 C588 1.463 . S
C585 C590 1.350 . S
C585 N593 1.427 . S
C586 H577 0.930 . S
C586 C584 1.378 . S
C586 C587 1.367 . S
C587 C586 1.367 . S
C587 C589 1.433 . S
C588 C584 1.350 . S
C588 C585 1.463 . S
C588 N592 1.427 . S
C589 H579 0.929 . S
C589 C587 1.433 . S
C589 N592 1.384 . S
C590 H581 0.929 . S
C590 C582 1.378 . S
C590 C585 1.350 . S
C591 H578 0.929 . S
C591 C583 1.433 . S
C591 N593 1.384 . S
N592 C588 1.427 . S
N592 C589 1.384 . S
N593 C585 1.427 . S
N593 C591 1.384 . S
H594 C600 0.930 . S
H595 C604 0.930 . S
H596 C609 0.929 . S
H597 C607 0.929 . S
H598 C602 0.929 . S
H599 C608 0.929 . S
C600 H594 0.930 . S
C600 C601 1.367 . S
C600 C608 1.378 . S
C601 C600 1.367 . S
C601 C609 1.433 . S
C602 H598 0.929 . S
C602 C604 1.378 . S
C602 C606 1.350 . S
C603 C606 1.463 . S
C603 C608 1.350 . S
C603 N611 1.427 . S
C604 H595 0.930 . S
C604 C602 1.378 . S
C604 C605 1.367 . S
C605 C604 1.367 . S
C605 C607 1.433 . S
C606 C602 1.350 . S
C606 C603 1.463 . S
C606 N610 1.427 . S
C607 H597 0.929 . S
C607 C605 1.433 . S
C607 N610 1.384 . S
C608 H599 0.929 . S
C608 C600 1.378 . S
C608 C603 1.350 . S
C609 H596 0.929 . S
C609 C601 1.433 . S
C609 N611 1.384 . S
N610 C606 1.427 . S
N610 C607 1.384 . S
N611 C603 1.427 . S
N611 C609 1.384 . S
H612 C618 0.930 . S
H613 C622 0.930 . S
H614 C627 0.929 . S
H615 C625 0.929 . S
H616 C620 0.929 . S
H617 C626 0.929 . S
C618 H612 0.930 . S
C618 C619 1.367 . S
C618 C626 1.378 . S
C619 C618 1.367 . S
C619 C627 1.433 . S
C620 H616 0.929 . S
C620 C622 1.378 . S
C620 C624 1.350 . S
C621 C624 1.463 . S
C621 C626 1.350 . S
C621 N629 1.427 . S
C622 H613 0.930 . S
C622 C620 1.378 . S
C622 C623 1.367 . S
C623 C622 1.367 . S
C623 C625 1.433 . S
C624 C620 1.350 . S
C624 C621 1.463 . S
C624 N628 1.427 . S
C625 H615 0.929 . S
C625 C623 1.433 . S
C625 N628 1.384 . S
C626 H617 0.929 . S
C626 C618 1.378 . S
C626 C621 1.350 . S
C627 H614 0.929 . S
C627 C619 1.433 . S
C627 N629 1.384 . S
N628 C624 1.427 . S
N628 C625 1.384 . S
N629 C621 1.427 . S
N629 C627 1.384 . S
H630 C636 0.930 . S
H631 C640 0.930 . S
H632 C645 0.929 . S
H633 C643 0.929 . S
H634 C638 0.929 . S
H635 C644 0.929 . S
C636 H630 0.930 . S
C636 C637 1.367 . S
C636 C644 1.378 . S
C637 C636 1.367 . S
C637 C645 1.433 . S
C638 H634 0.929 . S
C638 C640 1.378 . S
C638 C642 1.350 . S
C639 C642 1.463 . S
C639 C644 1.350 . S
C639 N647 1.427 . S
C640 H631 0.930 . S
C640 C638 1.378 . S
C640 C641 1.367 . S
C641 C640 1.367 . S
C641 C643 1.433 . S
C642 C638 1.350 . S
C642 C639 1.463 . S
C642 N646 1.427 . S
C643 H633 0.929 . S
C643 C641 1.433 . S
C643 N646 1.384 . S
C644 H635 0.929 . S
C644 C636 1.378 . S
C644 C639 1.350 . S
C645 H632 0.929 . S
C645 C637 1.433 . S
C645 N647 1.384 . S
N646 C642 1.427 . S
N646 C643 1.384 . S
N647 C639 1.427 . S
N647 C645 1.384 . S
H648 C654 0.930 . S
H649 C658 0.930 . S
H650 C663 0.929 . S
H651 C661 0.929 . S
H652 C656 0.929 . S
H653 C662 0.929 . S
C654 H648 0.930 . S
C654 C655 1.367 . S
C654 C662 1.378 . S
C655 C654 1.367 . S
C655 C663 1.433 . S
C656 H652 0.929 . S
C656 C658 1.378 . S
C656 C660 1.350 . S
C657 C660 1.463 . S
C657 C662 1.350 . S
C657 N665 1.427 . S
C658 H649 0.930 . S
C658 C656 1.378 . S
C658 C659 1.367 . S
C659 C658 1.367 . S
C659 C661 1.433 . S
C660 C656 1.350 . S
C660 C657 1.463 . S
C660 N664 1.427 . S
C661 H651 0.929 . S
C661 C659 1.433 . S
C661 N664 1.384 . S
C662 H653 0.929 . S
C662 C654 1.378 . S
C662 C657 1.350 . S
C663 H650 0.929 . S
C663 C655 1.433 . S
C663 N665 1.384 . S
N664 C660 1.427 . S
N664 C661 1.384 . S
N665 C657 1.427 . S
N665 C663 1.384 . S
H666 C672 0.930 . S
H667 C676 0.930 . S
H668 C681 0.929 . S
H669 C679 0.929 . S
H670 C674 0.929 . S
H671 C680 0.929 . S
C672 H666 0.930 . S
C672 C673 1.367 . S
C672 C680 1.378 . S
C673 C672 1.367 . S
C673 C681 1.433 . S
C674 H670 0.929 . S
C674 C676 1.378 . S
C674 C678 1.350 . S
C675 C678 1.463 . S
C675 C680 1.350 . S
C675 N683 1.427 . S
C676 H667 0.930 . S
C676 C674 1.378 . S
C676 C677 1.367 . S
C677 C676 1.367 . S
C677 C679 1.433 . S
C678 C674 1.350 . S
C678 C675 1.463 . S
C678 N682 1.427 . S
C679 H669 0.929 . S
C679 C677 1.433 . S
C679 N682 1.384 . S
C680 H671 0.929 . S
C680 C672 1.378 . S
C680 C675 1.350 . S
C681 H668 0.929 . S
C681 C673 1.433 . S
C681 N683 1.384 . S
N682 C678 1.427 . S
N682 C679 1.384 . S
N683 C675 1.427 . S
N683 C681 1.384 . S
H684 C690 0.930 . S
H685 C694 0.930 . S
H686 C699 0.929 . S
H687 C697 0.929 . S
H688 C692 0.929 1_556 S
H689 C698 0.929 1_554 S
C690 H684 0.930 . S
C690 C691 1.367 . S
C690 C698 1.378 . S
C691 C690 1.367 . S
C691 C699 1.433 . S
C692 H688 0.929 1_554 S
C692 C694 1.378 . S
C692 C696 1.350 . S
C693 C696 1.463 1_566 S
C693 C698 1.350 . S
C693 N701 1.427 . S
C694 H685 0.930 . S
C694 C692 1.378 . S
C694 C695 1.367 . S
C695 C694 1.367 . S
C695 C697 1.433 . S
C696 C692 1.350 . S
C696 C693 1.463 1_544 S
C696 N700 1.427 . S
C697 H687 0.929 . S
C697 C695 1.433 . S
C697 N700 1.384 . S
C698 H689 0.929 1_556 S
C698 C690 1.378 . S
C698 C693 1.350 . S
C699 H686 0.929 . S
C699 C691 1.433 . S
C699 N701 1.384 . S
N700 C696 1.427 . S
N700 C697 1.384 . S
N701 C693 1.427 . S
N701 C699 1.384 . S
H702 C708 0.930 . S
H703 C712 0.930 . S
H704 C717 0.929 . S
H705 C715 0.929 . S
H706 C710 0.929 . S
H707 C716 0.929 . S
C708 H702 0.930 . S
C708 C709 1.367 . S
C708 C716 1.378 . S
C709 C708 1.367 . S
C709 C717 1.433 . S
C710 H706 0.929 . S
C710 C712 1.378 . S
C710 C714 1.350 . S
C711 C714 1.463 . S
C711 C716 1.350 . S
C711 N719 1.427 . S
C712 H703 0.930 . S
C712 C710 1.378 . S
C712 C713 1.367 . S
C713 C712 1.367 . S
C713 C715 1.433 . S
C714 C710 1.350 . S
C714 C711 1.463 . S
C714 N718 1.427 . S
C715 H705 0.929 . S
C715 C713 1.433 . S
C715 N718 1.384 . S
C716 H707 0.929 . S
C716 C708 1.378 . S
C716 C711 1.350 . S
C717 H704 0.929 . S
C717 C709 1.433 . S
C717 N719 1.384 . S
N718 C714 1.427 . S
N718 C715 1.384 . S
N719 C711 1.427 . S
N719 C717 1.384 . S
H720 C726 0.930 . S
H721 C730 0.930 . S
H722 C735 0.929 . S
H723 C733 0.929 . S
H724 C728 0.929 . S
H725 C734 0.929 . S
C726 H720 0.930 . S
C726 C727 1.367 . S
C726 C734 1.378 . S
C727 C726 1.367 . S
C727 C735 1.433 . S
C728 H724 0.929 . S
C728 C730 1.378 . S
C728 C732 1.350 . S
C729 C732 1.463 1_456 S
C729 C734 1.350 . S
C729 N737 1.427 . S
C730 H721 0.930 . S
C730 C728 1.378 . S
C730 C731 1.367 . S
C731 C730 1.367 . S
C731 C733 1.433 . S
C732 C728 1.350 . S
C732 C729 1.463 1_654 S
C732 N736 1.427 . S
C733 H723 0.929 . S
C733 C731 1.433 . S
C733 N736 1.384 . S
C734 H725 0.929 . S
C734 C726 1.378 . S
C734 C729 1.350 . S
C735 H722 0.929 . S
C735 C727 1.433 . S
C735 N737 1.384 . S
N736 C732 1.427 . S
N736 C733 1.384 . S
N737 C729 1.427 . S
N737 C735 1.384 . S
H738 C744 0.930 . S
H739 C748 0.930 . S
H740 C753 0.929 . S
H741 C751 0.929 . S
H742 C746 0.929 . S
H743 C752 0.929 . S
C744 H738 0.930 . S
C744 C745 1.367 . S
C744 C752 1.378 . S
C745 C744 1.367 . S
C745 C753 1.433 . S
C746 H742 0.929 . S
C746 C748 1.378 . S
C746 C750 1.350 . S
C747 C750 1.463 1_545 S
C747 C752 1.350 . S
C747 N755 1.427 . S
C748 H739 0.930 . S
C748 C746 1.378 . S
C748 C749 1.367 . S
C749 C748 1.367 . S
C749 C751 1.433 . S
C750 C746 1.350 . S
C750 C747 1.463 1_565 S
C750 N754 1.427 . S
C751 H741 0.929 . S
C751 C749 1.433 . S
C751 N754 1.384 . S
C752 H743 0.929 . S
C752 C744 1.378 . S
C752 C747 1.350 . S
C753 H740 0.929 . S
C753 C745 1.433 . S
C753 N755 1.384 . S
N754 C750 1.427 . S
N754 C751 1.384 . S
N755 C747 1.427 . S
N755 C753 1.384 . S
H756 C762 0.930 . S
H757 C766 0.930 . S
H758 C771 0.929 . S
H759 C769 0.929 . S
H760 C764 0.929 . S
H761 C770 0.929 . S
C762 H756 0.930 . S
C762 C763 1.367 . S
C762 C770 1.378 . S
C763 C762 1.367 . S
C763 C771 1.433 . S
C764 H760 0.929 . S
C764 C766 1.378 . S
C764 C768 1.350 . S
C765 C768 1.463 1_554 S
C765 C770 1.350 . S
C765 N773 1.427 . S
C766 H757 0.930 . S
C766 C764 1.378 . S
C766 C767 1.367 . S
C767 C766 1.367 . S
C767 C769 1.433 . S
C768 C764 1.350 . S
C768 C765 1.463 1_556 S
C768 N772 1.427 . S
C769 H759 0.929 . S
C769 C767 1.433 . S
C769 N772 1.384 . S
C770 H761 0.929 . S
C770 C762 1.378 . S
C770 C765 1.350 . S
C771 H758 0.929 . S
C771 C763 1.433 . S
C771 N773 1.384 . S
N772 C768 1.427 . S
N772 C769 1.384 . S
N773 C765 1.427 . S
N773 C771 1.384 . S
H774 C780 0.930 . S
H775 C784 0.930 . S
H776 C789 0.929 . S
H777 C787 0.929 . S
H778 C782 0.929 1_455 S
H779 C788 0.929 1_655 S
C780 H774 0.930 . S
C780 C781 1.367 . S
C780 C788 1.378 . S
C781 C780 1.367 . S
C781 C789 1.433 . S
C782 H778 0.929 1_655 S
C782 C784 1.378 . S
C782 C786 1.350 . S
C783 C786 1.463 1_455 S
C783 C788 1.350 . S
C783 N791 1.427 . S
C784 H775 0.930 . S
C784 C782 1.378 . S
C784 C785 1.367 . S
C785 C784 1.367 . S
C785 C787 1.433 . S
C786 C782 1.350 . S
C786 C783 1.463 1_655 S
C786 N790 1.427 . S
C787 H777 0.929 . S
C787 C785 1.433 . S
C787 N790 1.384 . S
C788 H779 0.929 1_455 S
C788 C780 1.378 . S
C788 C783 1.350 . S
C789 H776 0.929 . S
C789 C781 1.433 . S
C789 N791 1.384 . S
N790 C786 1.427 . S
N790 C787 1.384 . S
N791 C783 1.427 . S
N791 C789 1.384 . S
H792 C798 0.930 . S
H793 C802 0.930 . S
H794 C807 0.929 . S
H795 C805 0.929 . S
H796 C800 0.929 . S
H797 C806 0.929 . S
C798 H792 0.930 . S
C798 C799 1.367 . S
C798 C806 1.378 . S
C799 C798 1.367 . S
C799 C807 1.433 . S
C800 H796 0.929 . S
C800 C802 1.378 . S
C800 C804 1.350 . S
C801 C804 1.463 . S
C801 C806 1.350 . S
C801 N809 1.427 . S
C802 H793 0.930 . S
C802 C800 1.378 . S
C802 C803 1.367 . S
C803 C802 1.367 . S
C803 C805 1.433 . S
C804 C800 1.350 . S
C804 C801 1.463 . S
C804 N808 1.427 . S
C805 H795 0.929 . S
C805 C803 1.433 . S
C805 N808 1.384 . S
C806 H797 0.929 . S
C806 C798 1.378 . S
C806 C801 1.350 . S
C807 H794 0.929 . S
C807 C799 1.433 . S
C807 N809 1.384 . S
N808 C804 1.427 . S
N808 C805 1.384 . S
N809 C801 1.427 . S
N809 C807 1.384 . S
H810 C816 0.930 . S
H811 C820 0.930 . S
H812 C825 0.929 . S
H813 C823 0.929 . S
H814 C818 0.929 . S
H815 C824 0.929 . S
C816 H810 0.930 . S
C816 C817 1.367 . S
C816 C824 1.378 . S
C817 C816 1.367 . S
C817 C825 1.433 . S
C818 H814 0.929 . S
C818 C820 1.378 . S
C818 C822 1.350 . S
C819 C822 1.463 . S
C819 C824 1.350 . S
C819 N827 1.427 . S
C820 H811 0.930 . S
C820 C818 1.378 . S
C820 C821 1.367 . S
C821 C820 1.367 . S
C821 C823 1.433 . S
C822 C818 1.350 . S
C822 C819 1.463 . S
C822 N826 1.427 . S
C823 H813 0.929 . S
C823 C821 1.433 . S
C823 N826 1.384 . S
C824 H815 0.929 . S
C824 C816 1.378 . S
C824 C819 1.350 . S
C825 H812 0.929 . S
C825 C817 1.433 . S
C825 N827 1.384 . S
N826 C822 1.427 . S
N826 C823 1.384 . S
N827 C819 1.427 . S
N827 C825 1.384 . S
H828 C834 0.930 . S
H829 C838 0.930 . S
H830 C843 0.929 . S
H831 C841 0.929 . S
H832 C836 0.929 . S
H833 C842 0.929 . S
C834 H828 0.930 . S
C834 C835 1.367 . S
C834 C842 1.378 . S
C835 C834 1.367 . S
C835 C843 1.433 . S
C836 H832 0.929 . S
C836 C838 1.378 . S
C836 C840 1.350 . S
C837 C840 1.463 . S
C837 C842 1.350 . S
C837 N845 1.427 . S
C838 H829 0.930 . S
C838 C836 1.378 . S
C838 C839 1.367 . S
C839 C838 1.367 . S
C839 C841 1.433 . S
C840 C836 1.350 . S
C840 C837 1.463 . S
C840 N844 1.427 . S
C841 H831 0.929 . S
C841 C839 1.433 . S
C841 N844 1.384 . S
C842 H833 0.929 . S
C842 C834 1.378 . S
C842 C837 1.350 . S
C843 H830 0.929 . S
C843 C835 1.433 . S
C843 N845 1.384 . S
N844 C840 1.427 . S
N844 C841 1.384 . S
N845 C837 1.427 . S
N845 C843 1.384 . S
H846 C852 0.930 . S
H847 C856 0.930 . S
H848 C861 0.929 . S
H849 C859 0.929 . S
H850 C854 0.929 . S
H851 C860 0.929 . S
C852 H846 0.930 . S
C852 C853 1.367 . S
C852 C860 1.378 . S
C853 C852 1.367 . S
C853 C861 1.433 . S
C854 H850 0.929 . S
C854 C856 1.378 . S
C854 C858 1.350 . S
C855 C858 1.463 . S
C855 C860 1.350 . S
C855 N863 1.427 . S
C856 H847 0.930 . S
C856 C854 1.378 . S
C856 C857 1.367 . S
C857 C856 1.367 . S
C857 C859 1.433 . S
C858 C854 1.350 . S
C858 C855 1.463 . S
C858 N862 1.427 . S
C859 H849 0.929 . S
C859 C857 1.433 . S
C859 N862 1.384 . S
C860 H851 0.929 . S
C860 C852 1.378 . S
C860 C855 1.350 . S
C861 H848 0.929 . S
C861 C853 1.433 . S
C861 N863 1.384 . S
N862 C858 1.427 . S
N862 C859 1.384 . S
N863 C855 1.427 . S
N863 C861 1.384 . S
H864 C870 0.930 . S
H865 C874 0.930 . S
H866 C879 0.929 . S
H867 C877 0.929 . S
H868 C872 0.929 . S
H869 C878 0.929 . S
C870 H864 0.930 . S
C870 C871 1.367 . S
C870 C878 1.378 . S
C871 C870 1.367 . S
C871 C879 1.433 . S
C872 H868 0.929 . S
C872 C874 1.378 . S
C872 C876 1.350 . S
C873 C876 1.463 . S
C873 C878 1.350 . S
C873 N881 1.427 . S
C874 H865 0.930 . S
C874 C872 1.378 . S
C874 C875 1.367 . S
C875 C874 1.367 . S
C875 C877 1.433 . S
C876 C872 1.350 . S
C876 C873 1.463 . S
C876 N880 1.427 . S
C877 H867 0.929 . S
C877 C875 1.433 . S
C877 N880 1.384 . S
C878 H869 0.929 . S
C878 C870 1.378 . S
C878 C873 1.350 . S
C879 H866 0.929 . S
C879 C871 1.433 . S
C879 N881 1.384 . S
N880 C876 1.427 . S
N880 C877 1.384 . S
N881 C873 1.427 . S
N881 C879 1.384 . S
H882 C888 0.930 . S
H883 C892 0.930 . S
H884 C897 0.929 . S
H885 C895 0.929 . S
H886 C890 0.929 . S
H887 C896 0.929 . S
C888 H882 0.930 . S
C888 C889 1.367 . S
C888 C896 1.378 . S
C889 C888 1.367 . S
C889 C897 1.433 . S
C890 H886 0.929 . S
C890 C892 1.378 . S
C890 C894 1.350 . S
C891 C894 1.463 . S
C891 C896 1.350 . S
C891 N899 1.427 . S
C892 H883 0.930 . S
C892 C890 1.378 . S
C892 C893 1.367 . S
C893 C892 1.367 . S
C893 C895 1.433 . S
C894 C890 1.350 . S
C894 C891 1.463 . S
C894 N898 1.427 . S
C895 H885 0.929 . S
C895 C893 1.433 . S
C895 N898 1.384 . S
C896 H887 0.929 . S
C896 C888 1.378 . S
C896 C891 1.350 . S
C897 H884 0.929 . S
C897 C889 1.433 . S
C897 N899 1.384 . S
N898 C894 1.427 . S
N898 C895 1.384 . S
N899 C891 1.427 . S
N899 C897 1.384 . S
H900 C906 0.930 . S
H901 C910 0.930 . S
H902 C915 0.929 . S
H903 C913 0.929 . S
H904 C908 0.929 . S
H905 C914 0.929 . S
C906 H900 0.930 . S
C906 C907 1.367 . S
C906 C914 1.378 . S
C907 C906 1.367 . S
C907 C915 1.433 . S
C908 H904 0.929 . S
C908 C910 1.378 . S
C908 C912 1.350 . S
C909 C912 1.463 . S
C909 C914 1.350 . S
C909 N917 1.427 . S
C910 H901 0.930 . S
C910 C908 1.378 . S
C910 C911 1.367 . S
C911 C910 1.367 . S
C911 C913 1.433 . S
C912 C908 1.350 . S
C912 C909 1.463 . S
C912 N916 1.427 . S
C913 H903 0.929 . S
C913 C911 1.433 . S
C913 N916 1.384 . S
C914 H905 0.929 . S
C914 C906 1.378 . S
C914 C909 1.350 . S
C915 H902 0.929 . S
C915 C907 1.433 . S
C915 N917 1.384 . S
N916 C912 1.427 . S
N916 C913 1.384 . S
N917 C909 1.427 . S
N917 C915 1.384 . S
H918 C924 0.930 . S
H919 C928 0.930 . S
H920 C933 0.929 . S
H921 C931 0.929 . S
H922 C926 0.929 . S
H923 C932 0.929 . S
C924 H918 0.930 . S
C924 C925 1.367 . S
C924 C932 1.378 . S
C925 C924 1.367 . S
C925 C933 1.433 . S
C926 H922 0.929 . S
C926 C928 1.378 . S
C926 C930 1.350 . S
C927 C930 1.463 . S
C927 C932 1.350 . S
C927 N935 1.427 . S
C928 H919 0.930 . S
C928 C926 1.378 . S
C928 C929 1.367 . S
C929 C928 1.367 . S
C929 C931 1.433 . S
C930 C926 1.350 . S
C930 C927 1.463 . S
C930 N934 1.427 . S
C931 H921 0.929 . S
C931 C929 1.433 . S
C931 N934 1.384 . S
C932 H923 0.929 . S
C932 C924 1.378 . S
C932 C927 1.350 . S
C933 H920 0.929 . S
C933 C925 1.433 . S
C933 N935 1.384 . S
N934 C930 1.427 . S
N934 C931 1.384 . S
N935 C927 1.427 . S
N935 C933 1.384 . S
H936 C942 0.930 . S
H937 C946 0.930 . S
H938 C951 0.929 . S
H939 C949 0.929 . S
H940 C944 0.929 . S
H941 C950 0.929 . S
C942 H936 0.930 . S
C942 C943 1.367 . S
C942 C950 1.378 . S
C943 C942 1.367 . S
C943 C951 1.433 . S
C944 H940 0.929 . S
C944 C946 1.378 . S
C944 C948 1.350 . S
C945 C948 1.463 . S
C945 C950 1.350 . S
C945 N953 1.427 . S
C946 H937 0.930 . S
C946 C944 1.378 . S
C946 C947 1.367 . S
C947 C946 1.367 . S
C947 C949 1.433 . S
C948 C944 1.350 . S
C948 C945 1.463 . S
C948 N952 1.427 . S
C949 H939 0.929 . S
C949 C947 1.433 . S
C949 N952 1.384 . S
C950 H941 0.929 . S
C950 C942 1.378 . S
C950 C945 1.350 . S
C951 H938 0.929 . S
C951 C943 1.433 . S
C951 N953 1.384 . S
N952 C948 1.427 . S
N952 C949 1.384 . S
N953 C945 1.427 . S
N953 C951 1.384 . S
H954 C960 0.930 . S
H955 C964 0.930 . S
H956 C969 0.929 . S
H957 C967 0.929 . S
H958 C962 0.929 . S
H959 C968 0.929 . S
C960 H954 0.930 . S
C960 C961 1.367 . S
C960 C968 1.378 . S
C961 C960 1.367 . S
C961 C969 1.433 . S
C962 H958 0.929 . S
C962 C964 1.378 . S
C962 C966 1.350 . S
C963 C966 1.463 . S
C963 C968 1.350 . S
C963 N971 1.427 . S
C964 H955 0.930 . S
C964 C962 1.378 . S
C964 C965 1.367 . S
C965 C964 1.367 . S
C965 C967 1.433 . S
C966 C962 1.350 . S
C966 C963 1.463 . S
C966 N970 1.427 . S
C967 H957 0.929 . S
C967 C965 1.433 . S
C967 N970 1.384 . S
C968 H959 0.929 . S
C968 C960 1.378 . S
C968 C963 1.350 . S
C969 H956 0.929 . S
C969 C961 1.433 . S
C969 N971 1.384 . S
N970 C966 1.427 . S
N970 C967 1.384 . S
N971 C963 1.427 . S
N971 C969 1.384 . S
H972 C978 0.930 . S
H973 C982 0.930 . S
H974 C987 0.929 . S
H975 C985 0.929 . S
H976 C980 0.929 . S
H977 C986 0.929 . S
C978 H972 0.930 . S
C978 C979 1.367 . S
C978 C986 1.378 . S
C979 C978 1.367 . S
C979 C987 1.433 . S
C980 H976 0.929 . S
C980 C982 1.378 . S
C980 C984 1.350 . S
C981 C984 1.463 . S
C981 C986 1.350 . S
C981 N989 1.427 . S
C982 H973 0.930 . S
C982 C980 1.378 . S
C982 C983 1.367 . S
C983 C982 1.367 . S
C983 C985 1.433 . S
C984 C980 1.350 . S
C984 C981 1.463 . S
C984 N988 1.427 . S
C985 H975 0.929 . S
C985 C983 1.433 . S
C985 N988 1.384 . S
C986 H977 0.929 . S
C986 C978 1.378 . S
C986 C981 1.350 . S
C987 H974 0.929 . S
C987 C979 1.433 . S
C987 N989 1.384 . S
N988 C984 1.427 . S
N988 C985 1.384 . S
N989 C981 1.427 . S
N989 C987 1.384 . S
H990 C996 0.930 . S
H991 C1000 0.930 . S
H992 C1005 0.929 . S
H993 C1003 0.929 . S
H994 C998 0.929 . S
H995 C1004 0.929 . S
C996 H990 0.930 . S
C996 C997 1.367 . S
C996 C1004 1.378 . S
C997 C996 1.367 . S
C997 C1005 1.433 . S
C998 H994 0.929 . S
C998 C1000 1.378 . S
C998 C1002 1.350 . S
C999 C1002 1.463 . S
C999 C1004 1.350 . S
C999 N1007 1.427 . S
C1000 H991 0.930 . S
C1000 C998 1.378 . S
C1000 C1001 1.367 . S
C1001 C1000 1.367 . S
C1001 C1003 1.433 . S
C1002 C998 1.350 . S
C1002 C999 1.463 . S
C1002 N1006 1.427 . S
C1003 H993 0.929 . S
C1003 C1001 1.433 . S
C1003 N1006 1.384 . S
C1004 H995 0.929 . S
C1004 C996 1.378 . S
C1004 C999 1.350 . S
C1005 H992 0.929 . S
C1005 C997 1.433 . S
C1005 N1007 1.384 . S
N1006 C1002 1.427 . S
N1006 C1003 1.384 . S
N1007 C999 1.427 . S
N1007 C1005 1.384 . S
C367 C76 0.822 . S
C371 N6 0.820 . S
C385 N96 0.955 . S
C389 C46 0.958 . S
C403 N66 0.794 1_565 S
C407 C136 0.801 . S
C421 C106 0.951 . S
C425 N156 0.954 . S
C439 C16 0.817 . S
C443 N126 0.819 1_455 S
C457 N36 0.950 . S
C461 C166 0.950 . S
C475 C327 0.807 . S
C479 N194 0.808 . S
C493 N216 0.802 1_655 S
C497 C346 0.803 . S
C511 N254 0.820 1_545 S
C515 C207 0.820 . S
C529 N276 0.799 . S
C533 C226 0.810 . S
C547 N314 0.820 1_655 S
C551 C267 0.820 . S
C565 C286 0.809 . S
C569 N336 0.810 1_545 S
C583 C91 1.690 . S
C587 C1 1.672 . S
C601 C31 1.690 . S
C605 C121 1.672 . S
C619 C61 1.674 . S
C623 C151 1.690 . S
C637 C190 1.674 . S
C641 C271 1.675 . S
C655 C211 1.671 . S
C659 C310 1.677 . S
C673 C250 1.677 . S
C677 C331 1.671 . S
C691 C220 1.985 . S
C695 C10 1.985 . S
C709 C40 1.905 . S
C713 C241 1.977 . S
C727 C280 1.980 . S
C731 C70 1.978 . S
C745 C100 1.916 . S
C749 C301 1.985 . S
C763 C130 1.982 . S
C767 C340 1.980 . S
C781 C181 1.976 . S
C785 C160 1.904 . S
C799 C87 1.265 . S
C803 N14 1.232 . S
C817 C57 1.138 . S
C821 N104 1.154 . S
C835 N74 1.239 . S
C839 C147 1.267 . S
C853 C117 1.144 . S
C857 N164 1.148 . S
C871 C27 1.260 . S
C875 N134 1.224 . S
C889 N44 1.151 . S
C893 C177 1.146 . S
C907 C316 1.260 . S
C911 N186 1.225 . S
C925 N224 1.224 . S
C929 C357 1.260 . S
C943 N246 1.233 . S
C947 C196 1.264 . S
C961 C237 1.264 . S
C965 N284 1.234 . S
C979 N306 1.229 . S
C983 C256 1.263 . S
C997 N344 1.238 . S
C1001 C297 1.267 . S
