# Generated by pormake.
# Topology lcv, (4)-cn, num edge types: 1
# Building blocks:
#     Node 0, Type 0, BuildingBlock: ESEHIV_clean_sbu_0, # of connection points: 4
#     Node 1, Type 0, BuildingBlock: ESEHIV_clean_sbu_0, # of connection points: 4
#     Node 2, Type 0, BuildingBlock: ESEHIV_clean_sbu_0, # of connection points: 4
#     Node 3, Type 0, BuildingBlock: ESEHIV_clean_sbu_0, # of connection points: 4
#     Node 4, Type 0, BuildingBlock: ESEHIV_clean_sbu_0, # of connection points: 4
#     Node 5, Type 0, BuildingBlock: ESEHIV_clean_sbu_0, # of connection points: 4
#     Node 6, Type 0, BuildingBlock: ESEHIV_clean_sbu_0, # of connection points: 4
#     Node 7, Type 0, BuildingBlock: ESEHIV_clean_sbu_0, # of connection points: 4
#     Node 8, Type 0, BuildingBlock: ESEHIV_clean_sbu_0, # of connection points: 4
#     Node 9, Type 0, BuildingBlock: ESEHIV_clean_sbu_0, # of connection points: 4
#     Node 10, Type 0, BuildingBlock: ESEHIV_clean_sbu_0, # of connection points: 4
#     Node 11, Type 0, BuildingBlock: ESEHIV_clean_sbu_0, # of connection points: 4
#     Edge 12, Type (0, 0), None
#     Edge 13, Type (0, 0), None
#     Edge 14, Type (0, 0), None
#     Edge 15, Type (0, 0), None
#     Edge 16, Type (0, 0), None
#     Edge 17, Type (0, 0), None
#     Edge 18, Type (0, 0), None
#     Edge 19, Type (0, 0), None
#     Edge 20, Type (0, 0), None
#     Edge 21, Type (0, 0), None
#     Edge 22, Type (0, 0), None
#     Edge 23, Type (0, 0), None
#     Edge 24, Type (0, 0), None
#     Edge 25, Type (0, 0), None
#     Edge 26, Type (0, 0), None
#     Edge 27, Type (0, 0), None
#     Edge 28, Type (0, 0), None
#     Edge 29, Type (0, 0), None
#     Edge 30, Type (0, 0), None
#     Edge 31, Type (0, 0), None
#     Edge 32, Type (0, 0), None
#     Edge 33, Type (0, 0), None
#     Edge 34, Type (0, 0), None
#     Edge 35, Type (0, 0), None
# Relax obj value: 0.185
# Max RMSD: 0.387
# Mean RMSD: 0.314
data_MOF--net-lcv--node1-ESEHIV_clean_sbu_0--edge1-none
_symmetry_space_group_name_H-M    P1
_symmetry_Int_Tables_number       1
_symmetry_cell_setting            triclinic
loop_
_symmetry_equiv_pos_as_xyz
'x, y, z'
_cell_length_a     24.206143
_cell_length_b     24.539573
_cell_length_c     24.80435
_cell_angle_alpha  100.05246
_cell_angle_beta   89.086754
_cell_angle_gamma 112.06239
loop_
_atom_site_label
_atom_site_type_symbol
_atom_site_fract_x
_atom_site_fract_y
_atom_site_fract_z
_atom_type_partial_charge
Cu0 Cu 0.08701 0.30256 0.16204 0.0
N1 N 0.07754 0.25125 0.21177 0.0
N2 N 0.10695 0.2097 0.27286 0.0
C3 C 0.12166 0.23633 0.22876 0.0
C4 C 0.05141 0.20708 0.2841 0.0
C5 C 1.03331 0.23297 0.24612 0.0
O6 O 0.15514 0.3004 0.12096 0.0
C7 C 0.10498 0.39514 0.25485 0.0
O8 O 0.12853 0.36598 0.28067 0.0
H9 H 0.16495 0.24821 0.2113 0.0
H10 H 0.99238 0.24104 0.24551 0.0
N11 N 1.02081 0.27807 0.11328 0.0
N12 N 0.95528 0.28588 0.05598 0.0
C13 C 0.99867 0.3152 0.09586 0.0
C14 C 0.99034 0.2235 0.08351 0.0
C15 C 0.9495 0.22812 0.04802 0.0
C16 C 0.15768 0.29757 0.06926 0.0
O17 O 0.11903 0.31 0.04216 0.0
H18 H 1.01521 0.36285 0.11118 0.0
H19 H 0.99843 0.18362 0.08638 0.0
O20 O 0.0935 0.37961 0.20322 0.0
H21 H 1.02649 0.18937 0.31791 0.0
H22 H 0.91866 0.19208 0.01855 0.0
Cu23 Cu 0.07428 0.83373 0.41438 0.0
N24 N 0.07795 0.88556 0.36627 0.0
N25 N 0.11084 0.95502 0.31328 0.0
C26 C 0.12636 0.9257 0.34803 0.0
C27 C 0.05062 0.93207 0.3092 0.0
C28 C 1.03054 0.88911 0.34175 0.0
O29 O 0.15401 0.85122 0.44544 0.0
C30 C 0.05368 0.71829 0.34555 0.0
O31 O 0.11175 0.73406 0.34365 0.0
H32 H 0.17181 0.93445 0.36126 0.0
H33 H 0.9845 0.86272 0.34778 0.0
N34 N 1.02668 0.84414 0.47202 0.0
N35 N 0.95304 0.82062 0.52963 0.0
C36 C 0.98456 0.79969 0.49198 0.0
C37 C 1.02259 0.89508 0.49864 0.0
C38 C 0.97693 0.88068 0.53425 0.0
C39 C 0.16304 0.83255 0.48804 0.0
O40 O 0.11795 0.79492 0.50949 0.0
H41 H 0.97487 0.75275 0.47662 0.0
H42 H 0.04919 0.93926 0.49096 0.0
O43 O 1.03211 0.75311 0.37395 0.0
H44 H 1.02307 0.94638 0.28553 0.0
H45 H 0.96078 0.91168 0.55949 0.0
Cu46 Cu 0.58703 0.80261 0.66204 0.0
N47 N 0.57755 0.75129 0.71177 0.0
N48 N 0.60697 0.70973 0.77284 0.0
C49 C 0.62167 0.73636 0.72874 0.0
C50 C 0.55144 0.70713 0.7841 0.0
C51 C 0.53334 0.73304 0.74613 0.0
O52 O 0.65516 0.80043 0.62095 0.0
C53 C 0.60502 0.89518 0.75484 0.0
O54 O 0.62858 0.86603 0.78066 0.0
H55 H 0.66495 0.74822 0.71126 0.0
H56 H 0.49242 0.74113 0.74553 0.0
N57 N 0.52083 0.77812 0.61328 0.0
N58 N 0.45531 0.78593 0.55598 0.0
C59 C 0.49869 0.81525 0.59586 0.0
C60 C 0.49036 0.72355 0.58349 0.0
C61 C 0.44953 0.72818 0.54801 0.0
C62 C 0.65769 0.79761 0.56925 0.0
O63 O 0.61905 0.81006 0.54216 0.0
H64 H 0.51523 0.8629 0.61119 0.0
H65 H 0.49846 0.68367 0.58636 0.0
O66 O 0.59352 0.87965 0.70322 0.0
H67 H 0.52653 0.68944 0.81792 0.0
H68 H 0.41869 0.69214 0.51852 0.0
Cu69 Cu 0.57425 0.33376 0.91437 0.0
N70 N 0.57787 0.38557 0.86626 0.0
N71 N 0.61071 0.45501 0.81324 0.0
C72 C 0.62627 0.42567 0.84795 0.0
C73 C 0.55049 0.43211 0.80925 0.0
C74 C 0.53044 0.38917 0.84182 0.0
O75 O 0.654 0.35126 0.94542 0.0
C76 C 0.55366 0.21832 0.84556 0.0
O77 O 0.61174 0.23409 0.84364 0.0
H78 H 0.67173 0.43438 0.86111 0.0
H79 H 0.48441 0.36281 0.84793 0.0
N80 N 0.52666 0.34415 0.97203 0.0
N81 N 0.45304 0.32063 0.02966 0.0
C82 C 0.48456 0.2997 0.99199 0.0
C83 C 0.52257 0.39509 0.99865 0.0
C84 C 0.47693 0.38069 0.03428 0.0
C85 C 0.66304 0.3326 0.98802 0.0
O86 O 0.61794 0.29497 1.00948 0.0
H87 H 0.47487 0.25276 0.97664 0.0
H88 H 0.54917 0.43928 0.99097 0.0
O89 O 0.53209 0.25313 0.87396 0.0
H90 H 0.52292 0.44645 0.78564 0.0
H91 H 0.46078 0.41168 0.05952 0.0
Cu92 Cu 0.25605 0.10498 0.30043 0.0
N93 N 0.21034 0.15194 0.31824 0.0
N94 N 0.14385 0.19113 0.30259 0.0
C95 C 0.19093 0.17839 0.28357 0.0
C96 C 0.13366 0.17341 0.35147 0.0
C97 C 0.17501 0.14935 0.36109 0.0
O98 O 0.29462 0.119 0.23189 0.0
C99 C 0.14745 1.0029 0.29234 0.0
O100 O 0.12457 0.03334 0.26749 0.0
H101 H 0.20744 0.18358 0.24334 0.0
H102 H 0.17566 0.12644 0.39444 0.0
N103 N 0.31657 0.12224 0.35338 0.0
N104 N 0.37252 0.09834 0.40811 0.0
C105 C 0.31796 0.08275 0.38411 0.0
C106 C 0.37224 0.16451 0.35833 0.0
C107 C 0.40716 0.14985 0.39245 0.0
C108 C 0.26638 0.11152 0.18681 0.0
O109 O 0.20778 0.08801 0.18376 0.0
H110 H 0.28106 0.04097 0.38501 0.0
H111 H 0.38746 0.20073 0.33548 0.0
O112 O 0.20361 0.02277 0.30252 0.0
H113 H 0.09708 0.17444 0.37671 0.0
H114 H 0.45452 0.17329 0.40242 0.0
Cu115 Cu 0.34813 0.93403 0.52679 0.0
N116 N 0.38457 0.99134 0.4839 0.0
N117 N 0.39059 0.06273 0.43712 0.0
C118 C 0.35405 1.01425 0.45606 0.0
C119 C 0.44652 0.07108 0.45337 0.0
C120 C 0.44258 0.0267 0.48268 0.0
O121 O 0.26393 0.90096 0.50194 0.0
C122 C 0.37604 0.95942 0.64323 0.0
O123 O 0.37035 0.90346 0.6382 0.0
H124 H 0.30583 0.99757 0.45246 0.0
H125 H 0.47899 0.02232 0.50386 0.0
N126 N 0.37739 0.87215 0.51455 0.0
N127 N 0.42187 0.81055 0.52888 0.0
C128 C 0.42224 0.86652 0.54182 0.0
C129 C 0.34958 0.81856 0.48197 0.0
C130 C 0.37671 0.78033 0.49086 0.0
C131 C 0.22352 0.85473 0.51434 0.0
O132 O 0.23572 0.82733 0.55073 0.0
H133 H 0.45205 0.90151 0.57276 0.0
H134 H 0.31002 0.80703 0.45583 0.0
O135 O 0.36406 0.97856 0.60228 0.0
H136 H 0.48679 0.10718 0.44601 0.0
H137 H 0.36243 0.73343 0.47286 0.0
Cu138 Cu 0.48074 0.03105 0.79165 0.0
N139 N 0.52965 0.99092 0.80349 0.0
N140 N 0.58456 0.93542 0.78379 0.0
C141 C 0.55021 0.96022 0.76347 0.0
C142 C 0.58643 0.95183 0.83881 0.0
C143 C 0.55251 0.98644 0.85087 0.0
O144 O 0.44916 0.99866 0.7163 0.0
C145 C 0.51276 0.1584 0.81891 0.0
O146 O 0.45561 0.14721 0.81213 0.0
H147 H 0.53841 0.95447 0.72033 0.0
H148 H 0.5443 1.0061 0.8912 0.0
N149 N 0.41518 1.01093 0.8356 0.0
N150 N 0.34312 0.01979 0.88917 0.0
C151 C 0.39999 0.04657 0.8757 0.0
C152 C 0.36669 0.95966 0.82457 0.0
C153 C 0.32191 0.96502 0.85748 0.0
C154 C 0.40306 1.00094 0.69445 0.0
O155 O 0.37663 0.03508 0.72022 0.0
H156 H 0.42859 0.09215 0.89231 0.0
H157 H 0.36292 0.92248 0.79218 0.0
O158 O 0.53143 0.11593 0.8085 0.0
H159 H 0.60892 0.9382 0.86817 0.0
H160 H 0.27675 0.93249 0.85624 0.0
Cu161 Cu 0.2989 0.17883 0.03822 0.0
N162 N 0.28754 0.11374 0.9826 0.0
N163 N 0.30984 0.04713 0.92297 0.0
C164 C 0.33146 0.10068 0.95664 0.0
C165 C 0.2502 0.0255 0.92756 0.0
C166 C 0.23655 0.06693 0.96475 0.0
O167 O 0.38236 0.23054 0.03859 0.0
C168 C 0.29851 0.13606 0.14032 0.0
O169 O 0.35629 0.1498 0.13785 0.0
H170 H 0.37826 0.1291 0.96355 0.0
H171 H 0.19285 0.06266 0.97886 0.0
N172 N 0.25286 0.22132 0.02433 0.0
N173 N 0.19477 0.27386 0.0417 0.0
C174 C 0.22777 0.24846 0.06329 0.0
C175 C 0.23606 0.23053 0.97634 0.0
C176 C 0.19983 0.26292 0.98695 0.0
C177 C 0.40171 0.28735 0.05074 0.0
O178 O 0.36777 0.31327 0.07669 0.0
H179 H 0.23175 0.24739 0.1065 0.0
H180 H 0.24809 0.21365 0.93654 0.0
O181 O 0.26994 0.1471 0.104 0.0
H182 H 0.21894 0.983 0.90609 0.0
H183 H 0.17741 0.27558 0.95675 0.0
Cu184 Cu 0.84814 0.434 0.02676 0.0
N185 N 0.88466 0.4913 0.98387 0.0
N186 N 0.89061 0.56257 0.93697 0.0
C187 C 0.85413 0.51388 0.95565 0.0
C188 C 0.9465 0.57141 0.95379 0.0
C189 C 0.9426 0.5271 0.98317 0.0
O190 O 0.76395 0.40096 1.00189 0.0
C191 C 0.87605 0.4594 0.14321 0.0
O192 O 0.87037 0.40345 0.13818 0.0
H193 H 0.80592 0.49686 0.95165 0.0
H194 H 0.97894 0.52309 1.00481 0.0
N195 N 0.87737 0.37209 0.01455 0.0
N196 N 0.92184 0.31049 0.02889 0.0
C197 C 0.92222 0.36647 0.0418 0.0
C198 C 0.84953 0.31849 0.982 0.0
C199 C 0.87665 0.28025 0.99089 0.0
C200 C 0.72352 0.35476 0.01431 0.0
O201 O 0.7357 0.32737 0.05072 0.0
H202 H 0.95206 0.40146 0.07272 0.0
H203 H 0.80996 0.30695 0.95587 0.0
O204 O 0.86406 0.47854 0.10225 0.0
H205 H 0.98669 0.60783 0.94683 0.0
H206 H 0.86235 0.23335 0.97291 0.0
Cu207 Cu 0.98073 0.53103 0.29164 0.0
N208 N 1.02962 0.49089 0.30348 0.0
N209 N 0.08452 0.43538 0.28379 0.0
C210 C 0.05018 0.46018 0.26347 0.0
C211 C 0.08639 0.45179 0.33881 0.0
C212 C 0.05248 0.4864 0.35087 0.0
O213 O 0.94916 0.49865 0.21628 0.0
C214 C 1.01277 0.65839 0.3189 0.0
O215 O 0.95563 0.64721 0.31211 0.0
H216 H 1.0384 0.45443 0.22032 0.0
H217 H 1.04426 0.50606 0.39119 0.0
N218 N 0.91516 0.51092 0.33557 0.0
N219 N 0.84309 0.51979 0.38912 0.0
C220 C 0.89997 0.54656 0.37566 0.0
C221 C 0.86666 0.45966 0.32454 0.0
C222 C 0.82188 0.46502 0.35743 0.0
C223 C 0.90307 0.50093 0.19443 0.0
O224 O 0.87663 0.53507 0.22018 0.0
H225 H 0.92857 0.59214 0.39227 0.0
H226 H 0.8629 0.42247 0.29215 0.0
O227 O 1.03143 0.61591 0.30849 0.0
H228 H 0.10887 0.43815 0.36817 0.0
H229 H 0.77671 0.43251 0.35618 0.0
Cu230 Cu 0.79887 0.67884 0.53817 0.0
N231 N 0.78751 0.61376 0.48253 0.0
N232 N 0.80981 0.54714 0.42291 0.0
C233 C 0.83143 0.60068 0.45659 0.0
C234 C 0.75016 0.52553 0.42749 0.0
C235 C 0.73652 0.56696 0.46467 0.0
O236 O 0.88234 0.73054 0.53855 0.0
C237 C 0.79846 0.63603 0.64025 0.0
O238 O 0.85624 0.64975 0.63777 0.0
H239 H 0.87823 0.62909 0.46351 0.0
H240 H 0.69282 0.5627 0.47877 0.0
N241 N 0.75284 0.72135 0.52429 0.0
N242 N 0.69478 0.7739 0.54168 0.0
C243 C 0.72776 0.74848 0.56325 0.0
C244 C 0.73604 0.73057 0.47631 0.0
C245 C 0.69982 0.76297 0.48693 0.0
C246 C 0.90169 0.78735 0.5507 0.0
O247 O 0.86776 0.81327 0.57664 0.0
H248 H 0.73175 0.74741 0.60647 0.0
H249 H 0.74808 0.7137 0.4365 0.0
O250 O 0.7699 0.64709 0.60394 0.0
H251 H 0.7189 0.48304 0.406 0.0
H252 H 0.67741 0.77564 0.45674 0.0
Cu253 Cu 0.75598 0.60489 0.80033 0.0
N254 N 0.71032 0.6519 0.81818 0.0
N255 N 0.64387 0.69114 0.80256 0.0
C256 C 0.69091 0.67837 0.78352 0.0
C257 C 0.63369 0.67344 0.85145 0.0
C258 C 0.67502 0.64934 0.86104 0.0
O259 O 0.79457 0.61893 0.73181 0.0
C260 C 0.64731 0.50287 0.79227 0.0
O261 O 0.62442 0.53334 0.76749 0.0
H262 H 0.7074 0.68353 0.74327 0.0
H263 H 0.67567 0.62643 0.8944 0.0
N264 N 0.81646 0.62203 0.85328 0.0
N265 N 0.87248 0.59809 0.90788 0.0
C266 C 0.81799 0.58233 0.88369 0.0
C267 C 0.87197 0.66463 0.85865 0.0
C268 C 0.90693 0.64996 0.89273 0.0
C269 C 0.76633 0.61147 0.68673 0.0
O270 O 0.70773 0.58796 0.68368 0.0
H271 H 0.78123 0.54036 0.88429 0.0
H272 H 0.88706 0.70117 0.83619 0.0
O273 O 0.70348 0.52268 0.80237 0.0
H274 H 0.59713 0.67449 0.87671 0.0
H275 H 0.95419 0.6737 0.90306 0.0
loop_
_geom_bond_atom_site_label_1
_geom_bond_atom_site_label_2
_geom_bond_distance
_geom_bond_site_symmetry_2
_ccdc_geom_bond_type
Cu0 N1 1.999 1_655 S
Cu0 O6 1.974 1_655 S
Cu0 N11 1.985 . S
Cu0 O20 1.959 . S
N1 Cu0 1.999 1_455 S
N1 C3 1.263 . S
N1 C5 1.389 1_455 S
N2 C3 1.358 . S
N2 C4 1.400 . S
C3 N1 1.263 . S
C3 N2 1.358 . S
C3 H9 0.930 . S
C4 N2 1.400 . S
C4 C5 1.351 1_455 S
C4 H21 0.930 1_455 S
C5 N1 1.389 1_655 S
C5 C4 1.351 1_655 S
C5 H10 0.930 . S
O6 Cu0 1.974 1_455 S
O6 C16 1.282 . S
C7 O8 1.261 1_655 S
C7 O20 1.251 . S
O8 C7 1.261 1_455 S
H9 C3 0.930 . S
H10 C5 0.930 . S
N11 Cu0 1.985 . S
N11 C13 1.335 . S
N11 C14 1.390 . S
N12 C13 1.345 . S
N12 C15 1.336 . S
C13 N11 1.335 . S
C13 N12 1.345 . S
C13 H18 0.930 . S
C14 N11 1.390 . S
C14 C15 1.346 . S
C14 H19 0.930 1_655 S
C15 N12 1.336 . S
C15 C14 1.346 . S
C15 H22 0.929 1_554 S
C16 O6 1.282 . S
C16 O17 1.216 . S
O17 C16 1.216 . S
H18 C13 0.930 . S
H19 C14 0.930 1_455 S
O20 Cu0 1.959 . S
O20 C7 1.251 . S
H21 C4 0.930 1_655 S
H22 C15 0.929 1_556 S
Cu23 N24 1.999 . S
Cu23 O29 1.974 . S
Cu23 N34 1.985 1_455 S
Cu23 O43 1.959 1_455 S
N24 Cu23 1.999 . S
N24 C26 1.263 . S
N24 C28 1.389 . S
N25 C26 1.358 . S
N25 C27 1.400 . S
C26 N24 1.263 . S
C26 N25 1.358 . S
C26 H32 0.930 . S
C27 N25 1.400 . S
C27 C28 1.351 . S
C27 H44 0.930 . S
C28 N24 1.389 . S
C28 C27 1.351 . S
C28 H33 0.930 1_455 S
O29 Cu23 1.974 . S
O29 C39 1.282 . S
C30 O31 1.261 1_655 S
C30 O43 1.251 . S
O31 C30 1.261 1_455 S
H32 C26 0.930 . S
H33 C28 0.930 1_655 S
N34 Cu23 1.985 1_655 S
N34 C36 1.335 . S
N34 C37 1.390 1_655 S
N35 C36 1.345 . S
N35 C38 1.336 . S
C36 N34 1.335 . S
C36 N35 1.345 . S
C36 H41 0.930 . S
C37 N34 1.390 1_455 S
C37 C38 1.346 1_455 S
C37 H42 0.930 . S
C38 N35 1.336 . S
C38 C37 1.346 1_655 S
C38 H45 0.929 . S
C39 O29 1.282 . S
C39 O40 1.216 . S
O40 C39 1.216 . S
H41 C36 0.930 . S
H42 C37 0.930 . S
O43 Cu23 1.959 1_655 S
O43 C30 1.251 . S
H44 C27 0.930 . S
H45 C38 0.929 . S
Cu46 N47 1.999 . S
Cu46 O52 1.974 . S
Cu46 N57 1.985 . S
Cu46 O66 1.959 . S
N47 Cu46 1.999 . S
N47 C49 1.263 . S
N47 C51 1.389 . S
N48 C49 1.358 . S
N48 C50 1.400 . S
C49 N47 1.263 . S
C49 N48 1.358 . S
C49 H55 0.930 . S
C50 N48 1.400 . S
C50 C51 1.351 . S
C50 H67 0.930 . S
C51 N47 1.389 . S
C51 C50 1.351 . S
C51 H56 0.930 . S
O52 Cu46 1.974 . S
O52 C62 1.282 . S
C53 O54 1.261 . S
C53 O66 1.251 . S
O54 C53 1.261 . S
H55 C49 0.930 . S
H56 C51 0.930 . S
N57 Cu46 1.985 . S
N57 C59 1.335 . S
N57 C60 1.390 . S
N58 C59 1.345 . S
N58 C61 1.336 . S
C59 N57 1.335 . S
C59 N58 1.345 . S
C59 H64 0.930 . S
C60 N57 1.390 . S
C60 C61 1.346 . S
C60 H65 0.930 . S
C61 N58 1.336 . S
C61 C60 1.346 . S
C61 H68 0.929 . S
C62 O52 1.282 . S
C62 O63 1.216 . S
O63 C62 1.216 . S
H64 C59 0.930 . S
H65 C60 0.930 . S
O66 Cu46 1.959 . S
O66 C53 1.251 . S
H67 C50 0.930 . S
H68 C61 0.929 . S
Cu69 N70 1.999 . S
Cu69 O75 1.974 . S
Cu69 N80 1.985 . S
Cu69 O89 1.959 . S
N70 Cu69 1.999 . S
N70 C72 1.263 . S
N70 C74 1.389 . S
N71 C72 1.358 . S
N71 C73 1.400 . S
C72 N70 1.263 . S
C72 N71 1.358 . S
C72 H78 0.930 . S
C73 N71 1.400 . S
C73 C74 1.351 . S
C73 H90 0.930 . S
C74 N70 1.389 . S
C74 C73 1.351 . S
C74 H79 0.930 . S
O75 Cu69 1.974 . S
O75 C85 1.282 . S
C76 O77 1.261 . S
C76 O89 1.251 . S
O77 C76 1.261 . S
H78 C72 0.930 . S
H79 C74 0.930 . S
N80 Cu69 1.985 . S
N80 C82 1.335 . S
N80 C83 1.390 1_556 S
N81 C82 1.345 1_554 S
N81 C84 1.336 . S
C82 N80 1.335 . S
C82 N81 1.345 1_556 S
C82 H87 0.930 . S
C83 N80 1.390 1_554 S
C83 C84 1.346 . S
C83 H88 0.930 . S
C84 N81 1.336 . S
C84 C83 1.346 . S
C84 H91 0.929 . S
C85 O75 1.282 . S
C85 O86 1.216 . S
O86 C85 1.216 . S
H87 C82 0.930 . S
H88 C83 0.930 . S
O89 Cu69 1.959 . S
O89 C76 1.251 . S
H90 C73 0.930 . S
H91 C84 0.929 . S
Cu92 N93 1.999 . S
Cu92 O98 1.974 . S
Cu92 N103 1.985 . S
Cu92 O112 1.959 . S
N93 Cu92 1.999 . S
N93 C95 1.263 . S
N93 C97 1.389 . S
N94 C95 1.358 . S
N94 C96 1.400 . S
C95 N93 1.263 . S
C95 N94 1.358 . S
C95 H101 0.930 . S
C96 N94 1.400 . S
C96 C97 1.351 . S
C96 H113 0.930 . S
C97 N93 1.389 . S
C97 C96 1.351 . S
C97 H102 0.930 . S
O98 Cu92 1.974 . S
O98 C108 1.282 . S
C99 O100 1.261 1_545 S
C99 O112 1.251 . S
O100 C99 1.261 1_565 S
H101 C95 0.930 . S
H102 C97 0.930 . S
N103 Cu92 1.985 . S
N103 C105 1.335 . S
N103 C106 1.390 . S
N104 C105 1.345 . S
N104 C107 1.336 . S
C105 N103 1.335 . S
C105 N104 1.345 . S
C105 H110 0.930 . S
C106 N103 1.390 . S
C106 C107 1.346 . S
C106 H111 0.930 . S
C107 N104 1.336 . S
C107 C106 1.346 . S
C107 H114 0.929 . S
C108 O98 1.282 . S
C108 O109 1.216 . S
O109 C108 1.216 . S
H110 C105 0.930 . S
H111 C106 0.930 . S
O112 Cu92 1.959 . S
O112 C99 1.251 . S
H113 C96 0.930 . S
H114 C107 0.929 . S
Cu115 N116 1.999 . S
Cu115 O121 1.974 . S
Cu115 N126 1.985 . S
Cu115 O135 1.959 . S
N116 Cu115 1.999 . S
N116 C118 1.263 . S
N116 C120 1.389 1_565 S
N117 C118 1.358 1_545 S
N117 C119 1.400 . S
C118 N116 1.263 . S
C118 N117 1.358 1_565 S
C118 H124 0.930 . S
C119 N117 1.400 . S
C119 C120 1.351 . S
C119 H136 0.930 . S
C120 N116 1.389 1_545 S
C120 C119 1.351 . S
C120 H125 0.930 . S
O121 Cu115 1.974 . S
O121 C131 1.282 . S
C122 O123 1.261 . S
C122 O135 1.251 . S
O123 C122 1.261 . S
H124 C118 0.930 . S
H125 C120 0.930 . S
N126 Cu115 1.985 . S
N126 C128 1.335 . S
N126 C129 1.390 . S
N127 C128 1.345 . S
N127 C130 1.336 . S
C128 N126 1.335 . S
C128 N127 1.345 . S
C128 H133 0.930 . S
C129 N126 1.390 . S
C129 C130 1.346 . S
C129 H134 0.930 . S
C130 N127 1.336 . S
C130 C129 1.346 . S
C130 H137 0.929 . S
C131 O121 1.282 . S
C131 O132 1.216 . S
O132 C131 1.216 . S
H133 C128 0.930 . S
H134 C129 0.930 . S
O135 Cu115 1.959 . S
O135 C122 1.251 . S
H136 C119 0.930 . S
H137 C130 0.929 . S
Cu138 N139 1.999 1_545 S
Cu138 O144 1.974 1_545 S
Cu138 N149 1.985 . S
Cu138 O158 1.959 . S
N139 Cu138 1.999 1_565 S
N139 C141 1.263 . S
N139 C143 1.389 . S
N140 C141 1.358 . S
N140 C142 1.400 . S
C141 N139 1.263 . S
C141 N140 1.358 . S
C141 H147 0.930 . S
C142 N140 1.400 . S
C142 C143 1.351 . S
C142 H159 0.930 . S
C143 N139 1.389 . S
C143 C142 1.351 . S
C143 H148 0.930 . S
O144 Cu138 1.974 1_565 S
O144 C154 1.282 . S
C145 O146 1.261 . S
C145 O158 1.251 . S
O146 C145 1.261 . S
H147 C141 0.930 . S
H148 C143 0.930 . S
N149 Cu138 1.985 . S
N149 C151 1.335 . S
N149 C152 1.390 . S
N150 C151 1.345 . S
N150 C153 1.336 . S
C151 N149 1.335 . S
C151 N150 1.345 . S
C151 H156 0.930 . S
C152 N149 1.390 . S
C152 C153 1.346 . S
C152 H157 0.930 . S
C153 N150 1.336 . S
C153 C152 1.346 . S
C153 H160 0.929 . S
C154 O144 1.282 . S
C154 O155 1.216 1_565 S
O155 C154 1.216 1_545 S
H156 C151 0.930 . S
H157 C152 0.930 . S
O158 Cu138 1.959 . S
O158 C145 1.251 . S
H159 C142 0.930 . S
H160 C153 0.929 . S
Cu161 N162 1.999 1_554 S
Cu161 O167 1.974 1_554 S
Cu161 N172 1.985 . S
Cu161 O181 1.959 . S
N162 Cu161 1.999 1_556 S
N162 C164 1.263 . S
N162 C166 1.389 . S
N163 C164 1.358 . S
N163 C165 1.390 1_545 S
C164 N162 1.263 . S
C164 N163 1.358 . S
C164 H170 0.930 . S
C165 N163 1.390 1_565 S
C165 C166 1.336 1_565 S
C165 H182 0.951 . S
C166 N162 1.389 . S
C166 C165 1.336 1_545 S
C166 H171 0.930 . S
O167 Cu161 1.974 1_556 S
O167 C177 1.282 . S
C168 O169 1.261 . S
C168 O181 1.251 . S
O169 C168 1.261 . S
H170 C164 0.930 . S
H171 C166 0.930 . S
N172 Cu161 1.985 . S
N172 C174 1.335 . S
N172 C175 1.390 . S
N173 C174 1.345 . S
N173 C176 1.336 . S
C174 N172 1.335 . S
C174 N173 1.345 . S
C174 H179 0.930 . S
C175 N172 1.390 . S
C175 C176 1.346 . S
C175 H180 0.930 . S
C176 N173 1.336 . S
C176 C175 1.346 . S
C176 H183 0.929 . S
C177 O167 1.282 . S
C177 O178 1.216 1_556 S
O178 C177 1.216 1_554 S
H179 C174 0.930 . S
H180 C175 0.930 . S
O181 Cu161 1.959 . S
O181 C168 1.251 . S
H182 C165 0.951 . S
H183 C176 0.929 . S
Cu184 N185 1.999 . S
Cu184 O190 1.974 . S
Cu184 N195 1.985 1_556 S
Cu184 O204 1.959 1_556 S
N185 Cu184 1.999 . S
N185 C187 1.263 . S
N185 C189 1.389 . S
N186 C187 1.358 . S
N186 C188 1.400 . S
C187 N185 1.263 . S
C187 N186 1.358 . S
C187 H193 0.930 . S
C188 N186 1.400 . S
C188 C189 1.351 . S
C188 H205 0.930 . S
C189 N185 1.389 . S
C189 C188 1.351 . S
C189 H194 0.930 . S
O190 Cu184 1.974 . S
O190 C200 1.282 . S
C191 O192 1.261 . S
C191 O204 1.251 . S
O192 C191 1.261 . S
H193 C187 0.930 . S
H194 C189 0.930 . S
N195 Cu184 1.985 1_554 S
N195 C197 1.335 . S
N195 C198 1.390 . S
N196 C197 1.345 . S
N196 C199 1.336 . S
C197 N195 1.335 . S
C197 N196 1.345 . S
C197 H202 0.930 . S
C198 N195 1.390 . S
C198 C199 1.346 . S
C198 H203 0.930 1_554 S
C199 N196 1.336 . S
C199 C198 1.346 . S
C199 H206 0.929 . S
C200 O190 1.282 . S
C200 O201 1.216 . S
O201 C200 1.216 . S
H202 C197 0.930 . S
H203 C198 0.930 1_556 S
O204 Cu184 1.959 1_554 S
O204 C191 1.251 . S
H205 C188 0.930 . S
H206 C199 0.929 . S
Cu207 N208 1.999 . S
Cu207 O213 1.974 . S
Cu207 N218 1.985 . S
Cu207 O227 1.959 . S
N208 Cu207 1.999 . S
N208 C210 1.263 . S
N208 C212 1.389 1_655 S
N209 C210 1.358 1_455 S
N209 C211 1.400 . S
C210 N208 1.263 . S
C210 N209 1.358 1_655 S
C210 H216 0.930 . S
C211 N209 1.400 . S
C211 C212 1.351 . S
C211 H228 0.930 . S
C212 N208 1.389 1_455 S
C212 C211 1.351 . S
C212 H217 0.930 . S
O213 Cu207 1.974 . S
O213 C223 1.282 . S
C214 O215 1.261 . S
C214 O227 1.251 . S
O215 C214 1.261 . S
H216 C210 0.930 . S
H217 C212 0.930 . S
N218 Cu207 1.985 . S
N218 C220 1.335 . S
N218 C221 1.390 . S
N219 C220 1.345 . S
N219 C222 1.336 . S
C220 N218 1.335 . S
C220 N219 1.345 . S
C220 H225 0.930 . S
C221 N218 1.390 . S
C221 C222 1.346 . S
C221 H226 0.930 . S
C222 N219 1.336 . S
C222 C221 1.346 . S
C222 H229 0.929 . S
C223 O213 1.282 . S
C223 O224 1.216 . S
O224 C223 1.216 . S
H225 C220 0.930 . S
H226 C221 0.930 . S
O227 Cu207 1.959 . S
O227 C214 1.251 . S
H228 C211 0.930 . S
H229 C222 0.929 . S
Cu230 N231 1.999 . S
Cu230 O236 1.974 . S
Cu230 N241 1.985 . S
Cu230 O250 1.959 . S
N231 Cu230 1.999 . S
N231 C233 1.263 . S
N231 C235 1.389 . S
N232 C233 1.358 . S
N232 C234 1.400 . S
C233 N231 1.263 . S
C233 N232 1.358 . S
C233 H239 0.930 . S
C234 N232 1.400 . S
C234 C235 1.351 . S
C234 H251 0.930 . S
C235 N231 1.389 . S
C235 C234 1.351 . S
C235 H240 0.930 . S
O236 Cu230 1.974 . S
O236 C246 1.282 . S
C237 O238 1.261 . S
C237 O250 1.251 . S
O238 C237 1.261 . S
H239 C233 0.930 . S
H240 C235 0.930 . S
N241 Cu230 1.985 . S
N241 C243 1.335 . S
N241 C244 1.390 . S
N242 C243 1.345 . S
N242 C245 1.336 . S
C243 N241 1.335 . S
C243 N242 1.345 . S
C243 H248 0.930 . S
C244 N241 1.390 . S
C244 C245 1.346 . S
C244 H249 0.930 . S
C245 N242 1.336 . S
C245 C244 1.346 . S
C245 H252 0.929 . S
C246 O236 1.282 . S
C246 O247 1.216 . S
O247 C246 1.216 . S
H248 C243 0.930 . S
H249 C244 0.930 . S
O250 Cu230 1.959 . S
O250 C237 1.251 . S
H251 C234 0.930 . S
H252 C245 0.929 . S
Cu253 N254 1.999 . S
Cu253 O259 1.974 . S
Cu253 N264 1.985 . S
Cu253 O273 1.959 . S
N254 Cu253 1.999 . S
N254 C256 1.263 . S
N254 C258 1.389 . S
N255 C256 1.358 . S
N255 C257 1.400 . S
C256 N254 1.263 . S
C256 N255 1.358 . S
C256 H262 0.930 . S
C257 N255 1.400 . S
C257 C258 1.351 . S
C257 H274 0.930 . S
C258 N254 1.389 . S
C258 C257 1.351 . S
C258 H263 0.930 . S
O259 Cu253 1.974 . S
O259 C269 1.282 . S
C260 O261 1.261 . S
C260 O273 1.251 . S
O261 C260 1.261 . S
H262 C256 0.930 . S
H263 C258 0.930 . S
N264 Cu253 1.985 . S
N264 C266 1.335 . S
N264 C267 1.390 . S
N265 C266 1.345 . S
N265 C268 1.336 . S
C266 N264 1.335 . S
C266 N265 1.345 . S
C266 H271 0.930 . S
C267 N264 1.390 . S
C267 C268 1.346 . S
C267 H272 0.930 . S
C268 N265 1.336 . S
C268 C267 1.346 . S
C268 H275 0.929 . S
C269 O259 1.282 . S
C269 O270 1.216 . S
O270 C269 1.216 . S
H271 C266 0.930 . S
H272 C267 0.930 . S
O273 Cu253 1.959 . S
O273 C260 1.251 . S
H274 C257 0.930 . S
H275 C268 0.929 . S
N2 N94 1.104 . S
C131 C39 2.652 . S
N140 C53 2.413 . S
N81 C177 3.018 1_554 S
C99 N25 2.645 1_545 S
N127 N58 1.635 . S
C76 C145 3.066 . S
N173 C16 2.181 . S
C108 C168 2.606 . S
N117 N104 1.860 . S
C154 C122 2.619 . S
N150 N163 3.139 . S
C200 C85 2.652 . S
N209 C7 2.413 1_455 S
C246 N35 3.018 . S
C214 C30 3.066 . S
C260 N71 2.645 . S
N48 N255 1.103 . S
N12 N196 1.634 . S
N242 C62 2.180 . S
C269 C237 2.607 . S
N265 N186 1.860 . S
C191 C223 2.620 . S
N219 N232 3.139 . S
