# Generated by pormake.
# Topology smc, (6)-cn, num edge types: 1
# Building blocks:
#     Node 0, Type 0, BuildingBlock: BETGAK_clean_sbu_0, # of connection points: 6
#     Node 1, Type 0, BuildingBlock: BETGAK_clean_sbu_0, # of connection points: 6
#     Node 2, Type 0, BuildingBlock: BETGAK_clean_sbu_0, # of connection points: 6
#     Node 3, Type 0, BuildingBlock: BETGAK_clean_sbu_0, # of connection points: 6
#     Node 4, Type 0, BuildingBlock: BETGAK_clean_sbu_0, # of connection points: 6
#     Node 5, Type 0, BuildingBlock: BETGAK_clean_sbu_0, # of connection points: 6
#     Node 6, Type 0, BuildingBlock: BETGAK_clean_sbu_0, # of connection points: 6
#     Node 7, Type 0, BuildingBlock: BETGAK_clean_sbu_0, # of connection points: 6
#     Node 8, Type 0, BuildingBlock: BETGAK_clean_sbu_0, # of connection points: 6
#     Edge 9, Type (0, 0), BuildingBlock: EYOCIG_clean_linker_4, # of connection points: 2
#     Edge 10, Type (0, 0), BuildingBlock: EYOCIG_clean_linker_4, # of connection points: 2
#     Edge 11, Type (0, 0), BuildingBlock: EYOCIG_clean_linker_4, # of connection points: 2
#     Edge 12, Type (0, 0), BuildingBlock: EYOCIG_clean_linker_4, # of connection points: 2
#     Edge 13, Type (0, 0), BuildingBlock: EYOCIG_clean_linker_4, # of connection points: 2
#     Edge 14, Type (0, 0), BuildingBlock: EYOCIG_clean_linker_4, # of connection points: 2
#     Edge 15, Type (0, 0), BuildingBlock: EYOCIG_clean_linker_4, # of connection points: 2
#     Edge 16, Type (0, 0), BuildingBlock: EYOCIG_clean_linker_4, # of connection points: 2
#     Edge 17, Type (0, 0), BuildingBlock: EYOCIG_clean_linker_4, # of connection points: 2
#     Edge 18, Type (0, 0), BuildingBlock: EYOCIG_clean_linker_4, # of connection points: 2
#     Edge 19, Type (0, 0), BuildingBlock: EYOCIG_clean_linker_4, # of connection points: 2
#     Edge 20, Type (0, 0), BuildingBlock: EYOCIG_clean_linker_4, # of connection points: 2
#     Edge 21, Type (0, 0), BuildingBlock: EYOCIG_clean_linker_4, # of connection points: 2
#     Edge 22, Type (0, 0), BuildingBlock: EYOCIG_clean_linker_4, # of connection points: 2
#     Edge 23, Type (0, 0), BuildingBlock: EYOCIG_clean_linker_4, # of connection points: 2
#     Edge 24, Type (0, 0), BuildingBlock: EYOCIG_clean_linker_4, # of connection points: 2
#     Edge 25, Type (0, 0), BuildingBlock: EYOCIG_clean_linker_4, # of connection points: 2
#     Edge 26, Type (0, 0), BuildingBlock: EYOCIG_clean_linker_4, # of connection points: 2
#     Edge 27, Type (0, 0), BuildingBlock: EYOCIG_clean_linker_4, # of connection points: 2
#     Edge 28, Type (0, 0), BuildingBlock: EYOCIG_clean_linker_4, # of connection points: 2
#     Edge 29, Type (0, 0), BuildingBlock: EYOCIG_clean_linker_4, # of connection points: 2
#     Edge 30, Type (0, 0), BuildingBlock: EYOCIG_clean_linker_4, # of connection points: 2
#     Edge 31, Type (0, 0), BuildingBlock: EYOCIG_clean_linker_4, # of connection points: 2
#     Edge 32, Type (0, 0), BuildingBlock: EYOCIG_clean_linker_4, # of connection points: 2
#     Edge 33, Type (0, 0), BuildingBlock: EYOCIG_clean_linker_4, # of connection points: 2
#     Edge 34, Type (0, 0), BuildingBlock: EYOCIG_clean_linker_4, # of connection points: 2
#     Edge 35, Type (0, 0), BuildingBlock: EYOCIG_clean_linker_4, # of connection points: 2
# Relax obj value: 0.190
# Max RMSD: 0.330
# Mean RMSD: 0.330
data_MOF--net-smc--node1-BETGAK_clean_sbu_0--edge1-EYOCIG_clean_linker_4
_symmetry_space_group_name_H-M    P1
_symmetry_Int_Tables_number       1
_symmetry_cell_setting            triclinic
loop_
_symmetry_equiv_pos_as_xyz
'x, y, z'
_cell_length_a     33.114562
_cell_length_b     33.149948
_cell_length_c     28.16595
_cell_angle_alpha  89.983299
_cell_angle_beta   90.038374
_cell_angle_gamma 120.04859
loop_
_atom_site_label
_atom_site_type_symbol
_atom_site_fract_x
_atom_site_fract_y
_atom_site_fract_z
_atom_type_partial_charge
La0 La 0.07978 0.5085 1.06603 0.0
La1 La 1.0175 0.4062 0.08394 0.0
C2 C 0.14371 0.59224 1.06107 0.0
C3 C 0.18154 0.64164 1.0588 0.0
C4 C 0.19138 0.66679 1.01608 0.0
C5 C 0.2219 0.71513 1.01559 0.0
C6 C 0.2432 0.73894 1.05767 0.0
C7 C 0.23638 0.71343 0.09959 0.0
C8 C 0.20561 0.66513 0.1002 0.0
C9 C 1.02882 0.45539 0.99342 0.0
C10 C 0.12392 0.44401 1.0645 0.0
C11 C 0.94922 0.32396 0.07795 0.0
C12 C 0.89749 0.30018 0.08284 0.0
C13 C 0.87585 0.27277 0.12324 0.0
C14 C 0.82715 0.24876 0.128 0.0
C15 C 0.79901 0.25142 0.09235 0.0
C16 C 0.82027 0.27875 1.05198 0.0
C17 C 0.86905 0.30291 1.04719 0.0
C18 C 0.07179 0.44667 0.15571 0.0
C19 C 0.97952 0.47965 0.09378 0.0
O20 O 0.13044 0.56411 1.02448 0.0
O21 O 0.12069 0.57312 0.10022 0.0
O22 O 1.03641 0.49717 1.00112 0.0
O23 O 0.05023 0.44637 1.02408 0.0
O24 O 0.13011 0.48565 0.07314 0.0
O25 O 0.08153 0.40656 1.06012 0.0
O26 O 0.97358 0.34179 0.11668 0.0
O27 O 0.96839 0.35132 1.04124 0.0
O28 O 0.05496 0.40341 0.14428 0.0
O29 O 0.05392 0.46599 0.13022 0.0
O30 O 0.97029 0.43579 0.09076 0.0
O31 O 1.02193 0.51529 0.0897 0.0
H32 H 0.17372 0.64954 0.98355 0.0
H33 H 0.22725 0.73417 0.98273 0.0
H34 H 0.2532 0.73105 0.13231 0.0
H35 H 0.19941 0.64643 0.1334 0.0
H36 H 0.89664 0.26954 0.15109 0.0
H37 H 0.81148 0.22767 0.15933 0.0
H38 H 0.79914 0.28106 1.0239 0.0
H39 H 0.88435 0.32335 1.01542 0.0
La40 La 0.58085 0.59275 1.06579 0.0
La41 La 0.68326 0.63351 0.08365 0.0
C42 C 0.49711 0.57286 1.06052 0.0
C43 C 0.44771 0.56136 1.05868 0.0
C44 C 0.42219 0.54659 1.0161 0.0
C45 C 0.37387 0.52917 1.0161 0.0
C46 C 0.35051 0.52653 1.05854 0.0
C47 C 0.37645 0.54476 0.10032 0.0
C48 C 0.4247 0.56188 0.10042 0.0
C49 C 0.63395 0.59488 0.99329 0.0
C50 C 0.64471 0.70139 1.0641 0.0
C51 C 0.76571 0.64795 0.07764 0.0
C52 C 0.78962 0.62013 0.08232 0.0
C53 C 0.81729 0.626 0.12255 0.0
C54 C 0.84136 0.60139 0.12713 0.0
C55 C 0.83849 0.57055 0.09147 0.0
C56 C 0.8109 0.56441 1.05125 0.0
C57 C 0.7867 0.58896 1.04664 0.0
C58 C 0.64281 0.64732 0.15538 0.0
C59 C 0.6102 0.52191 0.09381 0.0
O60 O 0.52562 0.58912 1.02428 0.0
O61 O 0.51576 0.56733 0.0992 0.0
O62 O 0.5922 0.56056 1.00111 0.0
O63 O 0.64292 0.62546 1.02373 0.0
O64 O 0.60327 0.66576 0.07331 0.0
O65 O 0.68232 0.69678 1.05947 0.0
O66 O 0.74777 0.65414 0.11643 0.0
O67 O 0.73835 0.63987 1.04093 0.0
O68 O 0.68604 0.67394 0.14375 0.0
O69 O 0.62349 0.60999 0.13008 0.0
O70 O 0.65401 0.55678 0.09071 0.0
O71 O 0.57436 0.52833 0.08967 0.0
H72 H 0.43911 0.54632 0.9833 0.0
H73 H 0.35447 0.51587 0.98335 0.0
H74 H 0.3592 0.54388 0.13331 0.0
H75 H 0.44375 0.57408 0.13351 0.0
H76 H 0.82067 0.65001 0.15042 0.0
H77 H 0.86263 0.60687 0.15837 0.0
H78 H 0.80841 0.54095 1.02316 0.0
H79 H 0.76605 0.58374 1.01498 0.0
La80 La 0.49624 1.00987 1.06616 0.0
La81 La 0.45561 0.0716 0.08401 0.0
C82 C 0.51618 0.94608 1.06107 0.0
C83 C 0.52781 0.9083 1.05876 0.0
C84 C 0.54374 0.89887 1.01622 0.0
C85 C 0.56112 0.86801 1.01577 0.0
C86 C 0.5626 0.84595 1.05771 0.0
C87 C 0.54336 0.85245 0.09939 0.0
C88 C 0.52625 0.88355 0.09995 0.0
C89 C 0.49442 0.06115 0.99378 0.0
C90 C 0.3873 0.96542 1.06351 0.0
C91 C 0.44171 0.13988 0.07855 0.0
C92 C 0.46991 0.19162 0.08304 0.0
C93 C 0.46435 0.21363 0.12321 0.0
C94 C 0.48919 0.26232 0.12759 0.0
C95 C 0.52 0.29013 0.09179 0.0
C96 C 0.52593 0.26849 1.05167 0.0
C97 C 0.50113 0.2197 1.04726 0.0
C98 C 0.44162 1.01698 0.15546 0.0
C99 C 0.56715 0.10987 0.09463 0.0
O100 O 0.50284 0.96047 1.02415 0.0
O101 O 0.51863 0.96801 0.10059 0.0
O102 O 0.52874 0.05376 1.00172 0.0
O103 O 0.46372 0.03942 1.02411 0.0
O104 O 0.42287 0.95933 1.07205 0.0
O105 O 0.39205 1.00772 1.05969 0.0
O106 O 0.43589 0.11583 0.11733 0.0
O107 O 0.44907 0.12038 1.0416 0.0
O108 O 0.41491 0.03346 0.14383 0.0
O109 O 0.47905 0.03527 0.13031 0.0
O110 O 0.53244 0.11894 0.09091 0.0
O111 O 0.56054 0.06756 0.09089 0.0
H112 H 0.54488 0.91702 0.98382 0.0
H113 H 0.57523 0.86292 0.98309 0.0
H114 H 0.54336 0.83507 0.13197 0.0
H115 H 0.51322 0.88937 0.13299 0.0
H116 H 0.44034 0.19312 0.15117 0.0
H117 H 0.48389 0.27826 0.15876 0.0
H118 H 0.54937 0.28933 1.02348 0.0
H119 H 0.50617 0.20412 1.01567 0.0
La120 La 0.74617 0.84193 0.39941 0.0
La121 La 0.68419 0.73961 0.41734 0.0
C122 C 0.81003 0.92567 0.39438 0.0
C123 C 0.84785 0.97507 0.39236 0.0
C124 C 0.85814 1.00039 0.34972 0.0
C125 C 0.88876 0.04872 0.34951 0.0
C126 C 0.9097 0.07233 0.39179 0.0
C127 C 0.90245 0.04663 0.43365 0.0
C128 C 0.87159 0.99836 0.43397 0.0
C129 C 0.69533 0.78873 0.32679 0.0
C130 C 0.79069 0.77784 0.39821 0.0
C131 C 0.61616 0.65726 0.4112 0.0
C132 C 0.5644 0.63335 0.41583 0.0
C133 C 0.5426 0.6056 0.45598 0.0
C134 C 0.49389 0.58153 0.46053 0.0
C135 C 0.46588 0.58447 0.42491 0.0
C136 C 0.4873 0.61213 0.38477 0.0
C137 C 0.5361 0.63635 0.38019 0.0
C138 C 0.7384 0.78013 0.48917 0.0
C139 C 0.64582 0.81273 0.42709 0.0
O140 O 0.79748 0.89731 0.358 0.0
O141 O 0.78625 0.90681 0.43322 0.0
O142 O 0.70284 0.83048 0.33444 0.0
O143 O 0.71681 0.77981 0.35747 0.0
O144 O 0.79667 0.81936 0.40701 0.0
O145 O 0.7484 0.7403 0.39361 0.0
O146 O 0.64029 0.67517 0.45004 0.0
O147 O 0.63543 0.68462 0.37452 0.0
O148 O 0.72165 0.73689 0.47771 0.0
O149 O 0.72049 0.79942 0.46366 0.0
O150 O 0.63676 0.76893 0.42414 0.0
O151 O 0.68815 0.84847 0.42295 0.0
H152 H 0.84075 0.98329 0.31703 0.0
H153 H 0.89446 0.06792 0.3167 0.0
H154 H 0.91899 0.06409 0.46652 0.0
H155 H 0.86507 0.97951 0.46712 0.0
H156 H 0.56329 0.60218 0.48381 0.0
H157 H 0.4781 0.5602 0.4917 0.0
H158 H 0.46627 0.61466 0.35671 0.0
H159 H 0.55153 0.65706 0.3486 0.0
La160 La 0.24743 0.92622 0.39955 0.0
La161 La 0.3497 0.96674 0.41796 0.0
C162 C 0.16379 0.90655 0.39377 0.0
C163 C 0.11447 0.89522 0.39192 0.0
C164 C 0.08883 0.88034 0.34943 0.0
C165 C 1.04055 0.86313 0.34955 0.0
C166 C 1.01737 0.86081 0.39202 0.0
C167 C 1.04347 0.87922 0.43369 0.0
C168 C 0.09166 0.89613 0.43366 0.0
C169 C 0.30084 0.9285 0.32731 0.0
C170 C 0.31139 0.03485 0.39863 0.0
C171 C 0.43211 0.98108 0.41215 0.0
C172 C 0.45589 0.95313 0.41654 0.0
C173 C 0.48365 0.95884 0.45665 0.0
C174 C 0.50761 0.93411 0.46098 0.0
C175 C 0.50454 0.90331 0.42519 0.0
C176 C 0.47685 0.8973 0.3851 0.0
C177 C 0.45274 0.92197 0.38073 0.0
C178 C 0.30903 0.98041 0.48955 0.0
C179 C 0.27647 0.85521 0.42778 0.0
O180 O 0.19256 0.92321 0.35777 0.0
O181 O 0.1821 0.90042 0.43239 0.0
O182 O 0.25902 0.8942 0.33489 0.0
O183 O 0.30971 0.95899 0.35782 0.0
O184 O 0.26988 0.99921 0.40753 0.0
O185 O 0.34899 1.0302 0.39411 0.0
O186 O 0.41399 0.9869 0.45101 0.0
O187 O 0.40498 0.97345 0.37534 0.0
O188 O 0.35235 1.00694 0.47819 0.0
O189 O 0.28971 0.94319 0.46407 0.0
O190 O 0.32032 0.89 0.42483 0.0
O191 O 0.24071 0.86171 0.42346 0.0
H192 H 0.10562 0.87979 0.31663 0.0
H193 H 1.02102 0.84969 0.31688 0.0
H194 H 1.02636 0.87859 0.46669 0.0
H195 H 0.11083 0.90846 0.46667 0.0
H196 H 0.48718 0.98283 0.48462 0.0
H197 H 0.52896 0.93948 0.49212 0.0
H198 H 0.4742 0.87386 0.3569 0.0
H199 H 0.432 0.91686 0.34918 0.0
La200 La 0.16252 0.34286 0.39935 0.0
La201 La 0.12234 0.40507 0.41727 0.0
C202 C 0.18241 0.27905 0.39454 0.0
C203 C 0.19401 0.24126 0.39251 0.0
C204 C 0.20949 0.23133 0.34997 0.0
C205 C 0.22721 0.20075 0.34977 0.0
C206 C 0.22944 0.17945 0.39197 0.0
C207 C 0.21063 0.18643 0.43371 0.0
C208 C 0.19321 0.21726 0.43402 0.0
C209 C 0.16044 0.39384 0.32682 0.0
C210 C 0.05371 0.29875 0.39772 0.0
C211 C 0.10844 0.47333 0.4114 0.0
C212 C 0.13647 0.52504 0.41619 0.0
C213 C 0.13073 0.54678 0.4565 0.0
C214 C 0.1554 0.59544 0.46112 0.0
C215 C 0.18618 0.62348 0.42542 0.0
C216 C 0.19225 0.60212 0.38515 0.0
C217 C 0.16763 0.55337 0.3805 0.0
C218 C 0.1087 0.35085 0.48899 0.0
C219 C 0.23389 0.44309 0.42711 0.0
O220 O 0.16727 0.29202 0.35793 0.0
O221 O 0.18657 0.30231 0.43356 0.0
O222 O 0.19459 0.38613 0.33446 0.0
O223 O 0.12995 0.37245 0.35743 0.0
O224 O 0.08922 0.29259 0.4064 0.0
O225 O 0.05863 0.34108 0.39337 0.0
O226 O 0.1021 0.44908 0.45015 0.0
O227 O 0.11641 0.45408 0.37464 0.0
O228 O 0.08217 0.36759 0.47763 0.0
O229 O 0.14588 0.36876 0.46346 0.0
O230 O 0.1992 0.45226 0.42407 0.0
O231 O 0.22719 0.40076 0.42304 0.0
H232 H 0.21008 0.24894 0.31736 0.0
H233 H 0.241 0.19529 0.31705 0.0
H234 H 0.21121 0.16963 0.46651 0.0
H235 H 0.18056 0.22352 0.46709 0.0
H236 H 0.10673 0.52608 0.48439 0.0
H237 H 0.14999 0.61118 0.49239 0.0
H238 H 0.21568 0.62316 0.35703 0.0
H239 H 0.17276 0.538 0.34879 0.0
La240 La 0.41314 0.17522 0.73284 0.0
La241 La 0.35081 0.07287 0.75049 0.0
C242 C 0.47715 0.25889 0.72779 0.0
C243 C 0.51506 0.30824 0.72564 0.0
C244 C 0.52527 0.33346 0.68294 0.0
C245 C 0.55585 0.38179 0.68261 0.0
C246 C 0.57683 0.4055 0.72483 0.0
C247 C 0.56969 0.3799 0.76674 0.0
C248 C 0.53885 0.33163 0.76719 0.0
C249 C 0.36223 0.1223 0.66012 0.0
C250 C 0.45728 0.11083 0.7314 0.0
C251 C 0.28258 0.99067 0.74375 0.0
C252 C 0.23084 0.96676 0.74875 0.0
C253 C 0.20929 0.93927 0.78912 0.0
C254 C 0.1606 0.91516 0.79393 0.0
C255 C 0.13238 0.91781 0.75836 0.0
C256 C 0.15355 0.94518 0.718 0.0
C257 C 0.20232 0.96943 0.71315 0.0
C258 C 0.4049 0.11308 0.82249 0.0
C259 C 0.31286 0.1463 0.76076 0.0
O260 O 0.4646 0.23046 0.69147 0.0
O261 O 0.45334 0.24012 0.76663 0.0
O262 O 0.36983 0.16406 0.66792 0.0
O263 O 0.38362 0.11321 0.69075 0.0
O264 O 0.46341 0.15236 0.74052 0.0
O265 O 0.41491 0.07344 0.72659 0.0
O266 O 0.30702 1.00803 0.78253 0.0
O267 O 0.30163 1.01851 0.70737 0.0
O268 O 0.38795 0.06981 0.81101 0.0
O269 O 0.3872 0.13254 0.79694 0.0
O270 O 0.30364 0.10244 0.75781 0.0
O271 O 0.35524 0.18195 0.75647 0.0
H272 H 0.50782 0.31628 0.6503 0.0
H273 H 0.56147 0.40091 0.64976 0.0
H274 H 0.58627 0.39744 0.79957 0.0
H275 H 0.53239 0.31285 0.80038 0.0
H276 H 0.23014 0.93606 0.81691 0.0
H277 H 0.145 0.89402 0.82525 0.0
H278 H 0.13235 0.94746 0.68997 0.0
H279 H 0.21755 0.9899 0.68138 0.0
La280 La 0.91423 0.25974 0.73261 0.0
La281 La 1.01658 0.30012 0.75071 0.0
C282 C 0.8305 0.2399 0.72722 0.0
C283 C 0.78111 0.2284 0.72517 0.0
C284 C 0.75571 0.21342 0.68254 0.0
C285 C 0.70736 0.19587 0.68237 0.0
C286 C 0.68387 0.19331 0.72468 0.0
C287 C 0.70969 0.21172 0.7665 0.0
C288 C 0.75795 0.22897 0.76678 0.0
C289 C 0.96744 0.26204 0.66014 0.0
C290 C 0.97843 0.36838 0.73143 0.0
C291 C 0.09895 0.31436 0.74477 0.0
C292 C 0.1228 0.28651 0.74958 0.0
C293 C 0.1503 0.29228 0.78994 0.0
C294 C 0.17436 0.26768 0.79462 0.0
C295 C 0.17168 0.23696 0.75892 0.0
C296 C 0.14426 0.2309 0.71858 0.0
C297 C 0.12005 0.25543 0.71388 0.0
C298 C 0.97605 0.31374 0.82247 0.0
C299 C 0.94324 0.18856 0.76039 0.0
O300 O 0.85905 0.25603 0.691 0.0
O301 O 0.84914 0.23457 0.76602 0.0
O302 O 0.92562 0.22777 0.66779 0.0
O303 O 0.97643 0.29249 0.69074 0.0
O304 O 0.93686 0.3328 0.74033 0.0
O305 O 1.01596 0.36363 0.72686 0.0
O306 O 0.08106 0.3207 0.78351 0.0
O307 O 0.07159 0.30622 0.70805 0.0
O308 O 1.01935 0.34025 0.81106 0.0
O309 O 0.95669 0.27655 0.79695 0.0
O310 O 0.98711 0.22335 0.75754 0.0
O311 O 0.9075 0.19513 0.75618 0.0
H312 H 0.77273 0.21307 0.64984 0.0
H313 H 0.68806 0.1824 0.64958 0.0
H314 H 0.69232 0.21089 0.79938 0.0
H315 H 0.7769 0.2413 0.7999 0.0
H316 H 0.15355 0.31622 0.81784 0.0
H317 H 0.19551 0.2731 0.82594 0.0
H318 H 0.14192 0.20752 0.69046 0.0
H319 H 0.09955 0.25029 0.68212 0.0
La320 La 0.82937 0.67629 0.7326 0.0
La321 La 0.78894 0.73829 0.75063 0.0
C322 C 0.84945 0.61261 0.72771 0.0
C323 C 0.86114 0.57488 0.72566 0.0
C324 C 0.8767 0.56502 0.68313 0.0
C325 C 0.8944 0.53441 0.68291 0.0
C326 C 0.89654 0.51303 0.72508 0.0
C327 C 0.87768 0.51996 0.76681 0.0
C328 C 0.86028 0.55081 0.76714 0.0
C329 C 0.82733 0.72745 0.6602 0.0
C330 C 0.72052 0.63197 0.73079 0.0
C331 C 0.77491 0.80647 0.7449 0.0
C332 C 0.80296 0.85821 0.74935 0.0
C333 C 0.79714 0.8802 0.7894 0.0
C334 C 0.82188 0.92889 0.79375 0.0
C335 C 0.85282 0.95672 0.75805 0.0
C336 C 0.85897 0.9351 0.71804 0.0
C337 C 0.83429 0.88632 0.71365 0.0
C338 C 0.7752 0.68385 0.82219 0.0
C339 C 0.90049 0.77646 0.7607 0.0
O340 O 0.8344 0.62566 0.69108 0.0
O341 O 0.85342 0.63573 0.76678 0.0
O342 O 0.86152 0.71979 0.66785 0.0
O343 O 0.7968 0.70591 0.69073 0.0
O344 O 0.75608 0.62588 0.7394 0.0
O345 O 0.72531 0.67427 0.72664 0.0
O346 O 0.76904 0.78247 0.78374 0.0
O347 O 0.78246 0.787 0.70806 0.0
O348 O 0.74862 0.70054 0.81081 0.0
O349 O 0.81245 0.70191 0.79676 0.0
O350 O 0.86577 0.78557 0.75748 0.0
O351 O 0.89387 0.73417 0.75663 0.0
H352 H 0.87734 0.58268 0.65053 0.0
H353 H 0.90822 0.52899 0.65019 0.0
H354 H 0.8782 0.5031 0.79959 0.0
H355 H 0.84758 0.55702 0.8002 0.0
H356 H 0.77303 0.85967 0.81728 0.0
H357 H 0.8164 0.94481 0.82483 0.0
H358 H 0.88252 0.95596 0.68992 0.0
H359 H 0.8395 0.87075 0.68215 0.0
C360 C 0.2576 0.48024 1.05986 0.0
C361 C 0.2999 0.50142 1.05983 0.0
C362 C 0.20797 0.45623 1.05968 0.0
C363 C 0.16648 0.44248 1.06042 0.0
C364 C 0.6083 0.79879 1.05862 0.0
C365 C 0.5874 0.82016 1.0587 0.0
C366 C 0.63206 0.77294 1.05859 0.0
C367 C 0.64583 0.74525 1.05959 0.0
C368 C 0.3154 0.88138 1.05812 0.0
C369 C 0.34321 0.92283 1.05913 0.0
C370 C 0.28966 0.83179 1.05826 0.0
C371 C 0.2686 0.78952 1.05846 0.0
C372 C 0.56438 0.38293 0.09856 0.0
C373 C 0.54417 0.3407 0.09552 0.0
C374 C 0.58559 0.43247 0.09971 0.0
C375 C 0.60016 0.47412 0.09728 0.0
C376 C 0.65667 0.17462 0.10078 0.0
C377 C 0.615 0.14755 0.09819 0.0
C378 C 0.70623 0.20293 0.09966 0.0
C379 C 0.74846 0.22494 0.09647 0.0
C380 C 0.91506 0.5048 0.09968 0.0
C381 C 0.94195 0.48999 0.09725 0.0
C382 C 0.8869 0.5262 0.09855 0.0
C383 C 0.86493 0.54645 0.09546 0.0
C384 C 0.87487 0.79044 0.3935 0.0
C385 C 0.83336 0.77653 0.39416 0.0
C386 C 0.9245 0.81456 0.39365 0.0
C387 C 0.96679 0.83573 0.39352 0.0
C388 C 0.2754 0.13256 0.39324 0.0
C389 C 0.25439 0.15382 0.3931 0.0
C390 C 0.29905 0.10661 0.39337 0.0
C391 C 0.31264 0.07879 0.39433 0.0
C392 C 0.98178 0.21476 0.39267 0.0
C393 C 1.00957 0.25621 0.39351 0.0
C394 C 0.95612 0.16516 0.39281 0.0
C395 C 0.93508 0.1229 0.39285 0.0
C396 C 0.25169 0.76575 0.43374 0.0
C397 C 0.26632 0.80739 0.4313 0.0
C398 C 0.23043 0.71622 0.43256 0.0
C399 C 0.21025 0.67402 0.42941 0.0
C400 C 0.3235 0.50768 0.43307 0.0
C401 C 0.2818 0.48069 0.43061 0.0
C402 C 0.37307 0.53596 0.43195 0.0
C403 C 0.41531 0.55799 0.42886 0.0
C404 C 0.5529 0.85888 0.43191 0.0
C405 C 0.53093 0.87913 0.42892 0.0
C406 C 0.58113 0.83756 0.433 0.0
C407 C 0.60812 0.82288 0.43057 0.0
C408 C 0.59096 0.14701 0.72598 0.0
C409 C 0.63326 0.16817 0.72585 0.0
C410 C 0.54133 0.12307 0.72604 0.0
C411 C 0.49986 0.10938 0.72697 0.0
C412 C 0.96617 0.44019 0.72626 0.0
C413 C 0.97977 0.41237 0.72716 0.0
C414 C 0.94248 0.46611 0.72625 0.0
C415 C 0.92148 0.48738 0.72619 0.0
C416 C 0.64869 0.54793 0.72563 0.0
C417 C 0.67642 0.58939 0.72653 0.0
C418 C 0.6231 0.49833 0.72573 0.0
C419 C 0.60212 0.45608 0.72579 0.0
C420 C 0.89715 0.04951 0.76487 0.0
C421 C 0.87696 1.00729 0.7618 0.0
C422 C 0.91839 0.09905 0.76609 0.0
C423 C 0.93303 0.14071 0.76376 0.0
C424 C 0.99004 0.84107 0.76687 0.0
C425 C 0.94836 0.81409 0.76431 0.0
C426 C 1.03961 0.86931 0.76576 0.0
C427 C 0.08184 0.89131 0.76256 0.0
C428 C 0.24838 0.17137 0.76705 0.0
C429 C 0.27529 0.15661 0.76446 0.0
C430 C 0.22018 0.19272 0.76603 0.0
C431 C 0.19818 0.21293 0.76296 0.0
C432 C 0.14546 0.44335 0.2618 0.0
C433 C 0.15611 0.42209 0.2897 0.0
C434 C 0.12576 0.46094 0.22793 0.0
C435 C 0.10325 0.46479 0.19584 0.0
C436 C 0.64613 0.72416 0.26164 0.0
C437 C 0.66723 0.75609 0.28959 0.0
C438 C 0.62865 0.68688 0.22774 0.0
C439 C 0.62482 0.66057 0.19564 0.0
C440 C 0.40255 0.96365 0.22821 0.0
C441 C 0.42866 0.98603 0.19594 0.0
C442 C 0.3654 0.94389 0.26223 0.0
C443 C 0.33349 0.93307 0.29018 0.0
C444 C 0.47913 0.11023 0.92852 0.0
C445 C 0.49001 0.08923 0.95653 0.0
C446 C 0.45918 0.12751 0.89457 0.0
C447 C 0.43652 0.13119 0.86252 0.0
C448 C 0.97937 0.39082 0.92837 0.0
C449 C 1.00058 0.42277 0.95628 0.0
C450 C 0.96177 0.35348 0.89455 0.0
C451 C 0.9579 0.32708 0.86253 0.0
C452 C 0.73578 0.62988 0.8944 0.0
C453 C 0.76204 0.65245 0.8623 0.0
C454 C 0.69852 0.61004 0.92829 0.0
C455 C 0.66657 0.59927 0.9562 0.0
C456 C 0.79243 0.79445 0.56138 0.0
C457 C 0.76987 0.79827 0.52931 0.0
C458 C 0.81222 0.77691 0.59522 0.0
C459 C 0.82295 0.7557 0.62311 0.0
C460 C 0.29478 1.02025 0.56151 0.0
C461 C 0.29085 0.99377 0.52955 0.0
C462 C 0.3125 0.05769 0.59522 0.0
C463 C 0.33384 0.08968 0.62305 0.0
C464 C 1.03201 0.2772 0.59514 0.0
C465 C 1.00008 0.26648 0.62305 0.0
C466 C 0.06926 0.29695 0.56123 0.0
C467 C 0.09552 0.31946 0.52911 0.0
loop_
_geom_bond_atom_site_label_1
_geom_bond_atom_site_label_2
_geom_bond_distance
_geom_bond_site_symmetry_2
_ccdc_geom_bond_type
La0 C2 2.928 . S
La0 O20 2.521 . S
La0 O21 2.628 1_556 S
La0 O22 2.554 . S
La0 O23 2.757 1_455 S
La0 O24 2.470 . S
La0 O29 2.482 1_556 S
La0 O31 2.503 1_456 S
La1 C11 2.928 . S
La1 O23 2.482 1_554 S
La1 O25 2.503 1_654 S
La1 O26 2.521 . S
La1 O27 2.628 1_554 S
La1 O28 2.554 . S
La1 O29 2.757 1_655 S
La1 O30 2.470 . S
C2 La0 2.928 . S
C2 C3 1.503 . S
C2 O20 1.261 . S
C2 O21 1.243 1_556 S
C3 C2 1.503 . S
C3 C4 1.394 . S
C3 C8 1.373 1_556 S
C4 C3 1.394 . S
C4 C5 1.380 . S
C4 H32 0.930 . S
C5 C4 1.380 . S
C5 C6 1.376 . S
C5 H33 0.930 . S
C6 C5 1.376 . S
C6 C7 1.370 1_556 S
C7 C6 1.370 1_554 S
C7 C8 1.396 . S
C7 H34 0.929 . S
C8 C3 1.373 1_554 S
C8 C7 1.396 . S
C8 H35 0.929 . S
C9 O22 1.240 1_655 S
C9 O23 1.289 . S
C10 O24 1.258 . S
C10 O25 1.256 . S
C11 La1 2.928 . S
C11 C12 1.503 . S
C11 O26 1.261 . S
C11 O27 1.243 1_554 S
C12 C11 1.503 . S
C12 C13 1.394 . S
C12 C17 1.373 1_554 S
C13 C12 1.394 . S
C13 C14 1.380 . S
C13 H36 0.930 . S
C14 C13 1.380 . S
C14 C15 1.376 . S
C14 H37 0.930 . S
C15 C14 1.376 . S
C15 C16 1.370 1_554 S
C16 C15 1.370 1_556 S
C16 C17 1.396 . S
C16 H38 0.929 . S
C17 C12 1.373 1_556 S
C17 C16 1.396 . S
C17 H39 0.929 . S
C18 O28 1.240 1_455 S
C18 O29 1.289 . S
C19 O30 1.258 . S
C19 O31 1.256 . S
O20 La0 2.521 . S
O20 C2 1.261 . S
O21 La0 2.628 1_554 S
O21 C2 1.243 1_554 S
O22 La0 2.554 . S
O22 C9 1.240 1_455 S
O23 La0 2.757 1_655 S
O23 La1 2.482 1_556 S
O23 C9 1.289 . S
O24 La0 2.470 . S
O24 C10 1.258 . S
O25 La1 2.503 1_456 S
O25 C10 1.256 . S
O26 La1 2.521 . S
O26 C11 1.261 . S
O27 La1 2.628 1_556 S
O27 C11 1.243 1_556 S
O28 La1 2.554 . S
O28 C18 1.240 1_655 S
O29 La0 2.482 1_554 S
O29 La1 2.757 1_455 S
O29 C18 1.289 . S
O30 La1 2.470 . S
O30 C19 1.258 . S
O31 La0 2.503 1_654 S
O31 C19 1.256 . S
H32 C4 0.930 . S
H33 C5 0.930 . S
H34 C7 0.929 . S
H35 C8 0.929 . S
H36 C13 0.930 . S
H37 C14 0.930 . S
H38 C16 0.929 . S
H39 C17 0.929 . S
La40 C42 2.928 . S
La40 O60 2.521 . S
La40 O61 2.628 1_556 S
La40 O62 2.554 . S
La40 O63 2.757 . S
La40 O64 2.470 . S
La40 O69 2.482 1_556 S
La40 O71 2.503 1_556 S
La41 C51 2.928 . S
La41 O63 2.482 1_554 S
La41 O65 2.503 1_554 S
La41 O66 2.521 . S
La41 O67 2.628 1_554 S
La41 O68 2.554 . S
La41 O69 2.757 . S
La41 O70 2.470 . S
C42 La40 2.928 . S
C42 C43 1.503 . S
C42 O60 1.261 . S
C42 O61 1.243 1_556 S
C43 C42 1.503 . S
C43 C44 1.394 . S
C43 C48 1.373 1_556 S
C44 C43 1.394 . S
C44 C45 1.380 . S
C44 H72 0.930 . S
C45 C44 1.380 . S
C45 C46 1.376 . S
C45 H73 0.930 . S
C46 C45 1.376 . S
C46 C47 1.370 1_556 S
C47 C46 1.370 1_554 S
C47 C48 1.396 . S
C47 H74 0.929 . S
C48 C43 1.373 1_554 S
C48 C47 1.396 . S
C48 H75 0.929 . S
C49 O62 1.240 . S
C49 O63 1.289 . S
C50 O64 1.258 . S
C50 O65 1.256 . S
C51 La41 2.928 . S
C51 C52 1.503 . S
C51 O66 1.261 . S
C51 O67 1.243 1_554 S
C52 C51 1.503 . S
C52 C53 1.394 . S
C52 C57 1.373 1_554 S
C53 C52 1.394 . S
C53 C54 1.380 . S
C53 H76 0.930 . S
C54 C53 1.380 . S
C54 C55 1.376 . S
C54 H77 0.930 . S
C55 C54 1.376 . S
C55 C56 1.370 1_554 S
C56 C55 1.370 1_556 S
C56 C57 1.396 . S
C56 H78 0.929 . S
C57 C52 1.373 1_556 S
C57 C56 1.396 . S
C57 H79 0.929 . S
C58 O68 1.240 . S
C58 O69 1.289 . S
C59 O70 1.258 . S
C59 O71 1.256 . S
O60 La40 2.521 . S
O60 C42 1.261 . S
O61 La40 2.628 1_554 S
O61 C42 1.243 1_554 S
O62 La40 2.554 . S
O62 C49 1.240 . S
O63 La40 2.757 . S
O63 La41 2.482 1_556 S
O63 C49 1.289 . S
O64 La40 2.470 . S
O64 C50 1.258 . S
O65 La41 2.503 1_556 S
O65 C50 1.256 . S
O66 La41 2.521 . S
O66 C51 1.261 . S
O67 La41 2.628 1_556 S
O67 C51 1.243 1_556 S
O68 La41 2.554 . S
O68 C58 1.240 . S
O69 La40 2.482 1_554 S
O69 La41 2.757 . S
O69 C58 1.289 . S
O70 La41 2.470 . S
O70 C59 1.258 . S
O71 La40 2.503 1_554 S
O71 C59 1.256 . S
H72 C44 0.930 . S
H73 C45 0.930 . S
H74 C47 0.929 . S
H75 C48 0.929 . S
H76 C53 0.930 . S
H77 C54 0.930 . S
H78 C56 0.929 . S
H79 C57 0.929 . S
La80 C82 2.928 . S
La80 O100 2.521 . S
La80 O101 2.628 1_556 S
La80 O102 2.554 . S
La80 O103 2.757 1_565 S
La80 O104 2.470 . S
La80 O109 2.482 1_556 S
La80 O111 2.503 1_566 S
La81 C91 2.928 . S
La81 O103 2.482 1_554 S
La81 O105 2.503 1_544 S
La81 O106 2.521 . S
La81 O107 2.628 1_554 S
La81 O108 2.554 . S
La81 O109 2.757 1_545 S
La81 O110 2.470 . S
C82 La80 2.928 . S
C82 C83 1.503 . S
C82 O100 1.261 . S
C82 O101 1.243 1_556 S
C83 C82 1.503 . S
C83 C84 1.394 . S
C83 C88 1.373 1_556 S
C84 C83 1.394 . S
C84 C85 1.380 . S
C84 H112 0.930 . S
C85 C84 1.380 . S
C85 C86 1.376 . S
C85 H113 0.930 . S
C86 C85 1.376 . S
C86 C87 1.370 1_556 S
C87 C86 1.370 1_554 S
C87 C88 1.396 . S
C87 H114 0.929 . S
C88 C83 1.373 1_554 S
C88 C87 1.396 . S
C88 H115 0.929 . S
C89 O102 1.240 1_545 S
C89 O103 1.289 . S
C90 O104 1.258 . S
C90 O105 1.256 . S
C91 La81 2.928 . S
C91 C92 1.503 . S
C91 O106 1.261 . S
C91 O107 1.243 1_554 S
C92 C91 1.503 . S
C92 C93 1.394 . S
C92 C97 1.373 1_554 S
C93 C92 1.394 . S
C93 C94 1.380 . S
C93 H116 0.930 . S
C94 C93 1.380 . S
C94 C95 1.376 . S
C94 H117 0.930 . S
C95 C94 1.376 . S
C95 C96 1.370 1_554 S
C96 C95 1.370 1_556 S
C96 C97 1.396 . S
C96 H118 0.929 . S
C97 C92 1.373 1_556 S
C97 C96 1.396 . S
C97 H119 0.929 . S
C98 O108 1.240 1_565 S
C98 O109 1.289 . S
C99 O110 1.258 . S
C99 O111 1.256 . S
O100 La80 2.521 . S
O100 C82 1.261 . S
O101 La80 2.628 1_554 S
O101 C82 1.243 1_554 S
O102 La80 2.554 . S
O102 C89 1.240 1_565 S
O103 La80 2.757 1_545 S
O103 La81 2.482 1_556 S
O103 C89 1.289 . S
O104 La80 2.470 . S
O104 C90 1.258 . S
O105 La81 2.503 1_566 S
O105 C90 1.256 . S
O106 La81 2.521 . S
O106 C91 1.261 . S
O107 La81 2.628 1_556 S
O107 C91 1.243 1_556 S
O108 La81 2.554 . S
O108 C98 1.240 1_545 S
O109 La80 2.482 1_554 S
O109 La81 2.757 1_565 S
O109 C98 1.289 . S
O110 La81 2.470 . S
O110 C99 1.258 . S
O111 La80 2.503 1_544 S
O111 C99 1.256 . S
H112 C84 0.930 . S
H113 C85 0.930 . S
H114 C87 0.929 . S
H115 C88 0.929 . S
H116 C93 0.930 . S
H117 C94 0.930 . S
H118 C96 0.929 . S
H119 C97 0.929 . S
La120 C122 2.928 . S
La120 O140 2.521 . S
La120 O141 2.628 . S
La120 O142 2.554 . S
La120 O143 2.757 . S
La120 O144 2.470 . S
La120 O149 2.482 . S
La120 O151 2.503 . S
La121 C131 2.928 . S
La121 O143 2.482 . S
La121 O145 2.503 . S
La121 O146 2.521 . S
La121 O147 2.628 . S
La121 O148 2.554 . S
La121 O149 2.757 . S
La121 O150 2.470 . S
C122 La120 2.928 . S
C122 C123 1.503 . S
C122 O140 1.261 . S
C122 O141 1.243 . S
C123 C122 1.503 . S
C123 C124 1.394 . S
C123 C128 1.373 . S
C124 C123 1.394 . S
C124 C125 1.380 1_565 S
C124 H152 0.930 . S
C125 C124 1.380 1_545 S
C125 C126 1.376 . S
C125 H153 0.930 . S
C126 C125 1.376 . S
C126 C127 1.370 . S
C127 C126 1.370 . S
C127 C128 1.396 1_545 S
C127 H154 0.929 . S
C128 C123 1.373 . S
C128 C127 1.396 1_565 S
C128 H155 0.929 . S
C129 O142 1.240 . S
C129 O143 1.289 . S
C130 O144 1.258 . S
C130 O145 1.256 . S
C131 La121 2.928 . S
C131 C132 1.503 . S
C131 O146 1.261 . S
C131 O147 1.243 . S
C132 C131 1.503 . S
C132 C133 1.394 . S
C132 C137 1.373 . S
C133 C132 1.394 . S
C133 C134 1.380 . S
C133 H156 0.930 . S
C134 C133 1.380 . S
C134 C135 1.376 . S
C134 H157 0.930 . S
C135 C134 1.376 . S
C135 C136 1.370 . S
C136 C135 1.370 . S
C136 C137 1.396 . S
C136 H158 0.929 . S
C137 C132 1.373 . S
C137 C136 1.396 . S
C137 H159 0.929 . S
C138 O148 1.240 . S
C138 O149 1.289 . S
C139 O150 1.258 . S
C139 O151 1.256 . S
O140 La120 2.521 . S
O140 C122 1.261 . S
O141 La120 2.628 . S
O141 C122 1.243 . S
O142 La120 2.554 . S
O142 C129 1.240 . S
O143 La120 2.757 . S
O143 La121 2.482 . S
O143 C129 1.289 . S
O144 La120 2.470 . S
O144 C130 1.258 . S
O145 La121 2.503 . S
O145 C130 1.256 . S
O146 La121 2.521 . S
O146 C131 1.261 . S
O147 La121 2.628 . S
O147 C131 1.243 . S
O148 La121 2.554 . S
O148 C138 1.240 . S
O149 La120 2.482 . S
O149 La121 2.757 . S
O149 C138 1.289 . S
O150 La121 2.470 . S
O150 C139 1.258 . S
O151 La120 2.503 . S
O151 C139 1.256 . S
H152 C124 0.930 . S
H153 C125 0.930 . S
H154 C127 0.929 . S
H155 C128 0.929 . S
H156 C133 0.930 . S
H157 C134 0.930 . S
H158 C136 0.929 . S
H159 C137 0.929 . S
La160 C162 2.928 . S
La160 O180 2.521 . S
La160 O181 2.628 . S
La160 O182 2.554 . S
La160 O183 2.757 . S
La160 O184 2.470 . S
La160 O189 2.482 . S
La160 O191 2.503 . S
La161 C171 2.928 . S
La161 O183 2.482 . S
La161 O185 2.503 . S
La161 O186 2.521 . S
La161 O187 2.628 . S
La161 O188 2.554 . S
La161 O189 2.757 . S
La161 O190 2.470 . S
C162 La160 2.928 . S
C162 C163 1.503 . S
C162 O180 1.261 . S
C162 O181 1.243 . S
C163 C162 1.503 . S
C163 C164 1.394 . S
C163 C168 1.373 . S
C164 C163 1.394 . S
C164 C165 1.380 1_455 S
C164 H192 0.930 . S
C165 C164 1.380 1_655 S
C165 C166 1.376 . S
C165 H193 0.930 . S
C166 C165 1.376 . S
C166 C167 1.370 1_655 S
C167 C166 1.370 1_455 S
C167 C168 1.396 . S
C167 H194 0.929 . S
C168 C163 1.373 . S
C168 C167 1.396 . S
C168 H195 0.929 . S
C169 O182 1.240 . S
C169 O183 1.289 . S
C170 O184 1.258 . S
C170 O185 1.256 . S
C171 La161 2.928 . S
C171 C172 1.503 . S
C171 O186 1.261 . S
C171 O187 1.243 . S
C172 C171 1.503 . S
C172 C173 1.394 . S
C172 C177 1.373 . S
C173 C172 1.394 . S
C173 C174 1.380 . S
C173 H196 0.930 . S
C174 C173 1.380 . S
C174 C175 1.376 . S
C174 H197 0.930 . S
C175 C174 1.376 . S
C175 C176 1.370 . S
C176 C175 1.370 . S
C176 C177 1.396 . S
C176 H198 0.929 . S
C177 C172 1.373 . S
C177 C176 1.396 . S
C177 H199 0.929 . S
C178 O188 1.240 . S
C178 O189 1.289 . S
C179 O190 1.258 . S
C179 O191 1.256 . S
O180 La160 2.521 . S
O180 C162 1.261 . S
O181 La160 2.628 . S
O181 C162 1.243 . S
O182 La160 2.554 . S
O182 C169 1.240 . S
O183 La160 2.757 . S
O183 La161 2.482 . S
O183 C169 1.289 . S
O184 La160 2.470 . S
O184 C170 1.258 . S
O185 La161 2.503 . S
O185 C170 1.256 . S
O186 La161 2.521 . S
O186 C171 1.261 . S
O187 La161 2.628 . S
O187 C171 1.243 . S
O188 La161 2.554 . S
O188 C178 1.240 . S
O189 La160 2.482 . S
O189 La161 2.757 . S
O189 C178 1.289 . S
O190 La161 2.470 . S
O190 C179 1.258 . S
O191 La160 2.503 . S
O191 C179 1.256 . S
H192 C164 0.930 . S
H193 C165 0.930 . S
H194 C167 0.929 . S
H195 C168 0.929 . S
H196 C173 0.930 . S
H197 C174 0.930 . S
H198 C176 0.929 . S
H199 C177 0.929 . S
La200 C202 2.928 . S
La200 O220 2.521 . S
La200 O221 2.628 . S
La200 O222 2.554 . S
La200 O223 2.757 . S
La200 O224 2.470 . S
La200 O229 2.482 . S
La200 O231 2.503 . S
La201 C211 2.928 . S
La201 O223 2.482 . S
La201 O225 2.503 . S
La201 O226 2.521 . S
La201 O227 2.628 . S
La201 O228 2.554 . S
La201 O229 2.757 . S
La201 O230 2.470 . S
C202 La200 2.928 . S
C202 C203 1.503 . S
C202 O220 1.261 . S
C202 O221 1.243 . S
C203 C202 1.503 . S
C203 C204 1.394 . S
C203 C208 1.373 . S
C204 C203 1.394 . S
C204 C205 1.380 . S
C204 H232 0.930 . S
C205 C204 1.380 . S
C205 C206 1.376 . S
C205 H233 0.930 . S
C206 C205 1.376 . S
C206 C207 1.370 . S
C207 C206 1.370 . S
C207 C208 1.396 . S
C207 H234 0.929 . S
C208 C203 1.373 . S
C208 C207 1.396 . S
C208 H235 0.929 . S
C209 O222 1.240 . S
C209 O223 1.289 . S
C210 O224 1.258 . S
C210 O225 1.256 . S
C211 La201 2.928 . S
C211 C212 1.503 . S
C211 O226 1.261 . S
C211 O227 1.243 . S
C212 C211 1.503 . S
C212 C213 1.394 . S
C212 C217 1.373 . S
C213 C212 1.394 . S
C213 C214 1.380 . S
C213 H236 0.930 . S
C214 C213 1.380 . S
C214 C215 1.376 . S
C214 H237 0.930 . S
C215 C214 1.376 . S
C215 C216 1.370 . S
C216 C215 1.370 . S
C216 C217 1.396 . S
C216 H238 0.929 . S
C217 C212 1.373 . S
C217 C216 1.396 . S
C217 H239 0.929 . S
C218 O228 1.240 . S
C218 O229 1.289 . S
C219 O230 1.258 . S
C219 O231 1.256 . S
O220 La200 2.521 . S
O220 C202 1.261 . S
O221 La200 2.628 . S
O221 C202 1.243 . S
O222 La200 2.554 . S
O222 C209 1.240 . S
O223 La200 2.757 . S
O223 La201 2.482 . S
O223 C209 1.289 . S
O224 La200 2.470 . S
O224 C210 1.258 . S
O225 La201 2.503 . S
O225 C210 1.256 . S
O226 La201 2.521 . S
O226 C211 1.261 . S
O227 La201 2.628 . S
O227 C211 1.243 . S
O228 La201 2.554 . S
O228 C218 1.240 . S
O229 La200 2.482 . S
O229 La201 2.757 . S
O229 C218 1.289 . S
O230 La201 2.470 . S
O230 C219 1.258 . S
O231 La200 2.503 . S
O231 C219 1.256 . S
H232 C204 0.930 . S
H233 C205 0.930 . S
H234 C207 0.929 . S
H235 C208 0.929 . S
H236 C213 0.930 . S
H237 C214 0.930 . S
H238 C216 0.929 . S
H239 C217 0.929 . S
La240 C242 2.928 . S
La240 O260 2.521 . S
La240 O261 2.628 . S
La240 O262 2.554 . S
La240 O263 2.757 . S
La240 O264 2.470 . S
La240 O269 2.482 . S
La240 O271 2.503 . S
La241 C251 2.928 1_545 S
La241 O263 2.482 . S
La241 O265 2.503 . S
La241 O266 2.521 1_545 S
La241 O267 2.628 . S
La241 O268 2.554 . S
La241 O269 2.757 . S
La241 O270 2.470 . S
C242 La240 2.928 . S
C242 C243 1.503 . S
C242 O260 1.261 . S
C242 O261 1.243 . S
C243 C242 1.503 . S
C243 C244 1.394 . S
C243 C248 1.373 . S
C244 C243 1.394 . S
C244 C245 1.380 . S
C244 H272 0.930 . S
C245 C244 1.380 . S
C245 C246 1.376 . S
C245 H273 0.930 . S
C246 C245 1.376 . S
C246 C247 1.370 . S
C247 C246 1.370 . S
C247 C248 1.396 . S
C247 H274 0.929 . S
C248 C243 1.373 . S
C248 C247 1.396 . S
C248 H275 0.929 . S
C249 O262 1.240 . S
C249 O263 1.289 . S
C250 O264 1.258 . S
C250 O265 1.256 . S
C251 La241 2.928 1_565 S
C251 C252 1.503 . S
C251 O266 1.261 . S
C251 O267 1.243 1_565 S
C252 C251 1.503 . S
C252 C253 1.394 . S
C252 C257 1.373 . S
C253 C252 1.394 . S
C253 C254 1.380 . S
C253 H276 0.930 . S
C254 C253 1.380 . S
C254 C255 1.376 . S
C254 H277 0.930 . S
C255 C254 1.376 . S
C255 C256 1.370 . S
C256 C255 1.370 . S
C256 C257 1.396 . S
C256 H278 0.929 . S
C257 C252 1.373 . S
C257 C256 1.396 . S
C257 H279 0.929 . S
C258 O268 1.240 . S
C258 O269 1.289 . S
C259 O270 1.258 . S
C259 O271 1.256 . S
O260 La240 2.521 . S
O260 C242 1.261 . S
O261 La240 2.628 . S
O261 C242 1.243 . S
O262 La240 2.554 . S
O262 C249 1.240 . S
O263 La240 2.757 . S
O263 La241 2.482 . S
O263 C249 1.289 . S
O264 La240 2.470 . S
O264 C250 1.258 . S
O265 La241 2.503 . S
O265 C250 1.256 . S
O266 La241 2.521 1_565 S
O266 C251 1.261 . S
O267 La241 2.628 . S
O267 C251 1.243 1_545 S
O268 La241 2.554 . S
O268 C258 1.240 . S
O269 La240 2.482 . S
O269 La241 2.757 . S
O269 C258 1.289 . S
O270 La241 2.470 . S
O270 C259 1.258 . S
O271 La240 2.503 . S
O271 C259 1.256 . S
H272 C244 0.930 . S
H273 C245 0.930 . S
H274 C247 0.929 . S
H275 C248 0.929 . S
H276 C253 0.930 . S
H277 C254 0.930 . S
H278 C256 0.929 . S
H279 C257 0.929 . S
La280 C282 2.928 . S
La280 O300 2.521 . S
La280 O301 2.628 . S
La280 O302 2.554 . S
La280 O303 2.757 . S
La280 O304 2.470 . S
La280 O309 2.482 . S
La280 O311 2.503 . S
La281 C291 2.928 1_655 S
La281 O303 2.482 . S
La281 O305 2.503 . S
La281 O306 2.521 1_655 S
La281 O307 2.628 1_655 S
La281 O308 2.554 . S
La281 O309 2.757 . S
La281 O310 2.470 . S
C282 La280 2.928 . S
C282 C283 1.503 . S
C282 O300 1.261 . S
C282 O301 1.243 . S
C283 C282 1.503 . S
C283 C284 1.394 . S
C283 C288 1.373 . S
C284 C283 1.394 . S
C284 C285 1.380 . S
C284 H312 0.930 . S
C285 C284 1.380 . S
C285 C286 1.376 . S
C285 H313 0.930 . S
C286 C285 1.376 . S
C286 C287 1.370 . S
C287 C286 1.370 . S
C287 C288 1.396 . S
C287 H314 0.929 . S
C288 C283 1.373 . S
C288 C287 1.396 . S
C288 H315 0.929 . S
C289 O302 1.240 . S
C289 O303 1.289 . S
C290 O304 1.258 . S
C290 O305 1.256 . S
C291 La281 2.928 1_455 S
C291 C292 1.503 . S
C291 O306 1.261 . S
C291 O307 1.243 . S
C292 C291 1.503 . S
C292 C293 1.394 . S
C292 C297 1.373 . S
C293 C292 1.394 . S
C293 C294 1.380 . S
C293 H316 0.930 . S
C294 C293 1.380 . S
C294 C295 1.376 . S
C294 H317 0.930 . S
C295 C294 1.376 . S
C295 C296 1.370 . S
C296 C295 1.370 . S
C296 C297 1.396 . S
C296 H318 0.929 . S
C297 C292 1.373 . S
C297 C296 1.396 . S
C297 H319 0.929 . S
C298 O308 1.240 . S
C298 O309 1.289 . S
C299 O310 1.258 . S
C299 O311 1.256 . S
O300 La280 2.521 . S
O300 C282 1.261 . S
O301 La280 2.628 . S
O301 C282 1.243 . S
O302 La280 2.554 . S
O302 C289 1.240 . S
O303 La280 2.757 . S
O303 La281 2.482 . S
O303 C289 1.289 . S
O304 La280 2.470 . S
O304 C290 1.258 . S
O305 La281 2.503 . S
O305 C290 1.256 . S
O306 La281 2.521 1_455 S
O306 C291 1.261 . S
O307 La281 2.628 1_455 S
O307 C291 1.243 . S
O308 La281 2.554 . S
O308 C298 1.240 . S
O309 La280 2.482 . S
O309 La281 2.757 . S
O309 C298 1.289 . S
O310 La281 2.470 . S
O310 C299 1.258 . S
O311 La280 2.503 . S
O311 C299 1.256 . S
H312 C284 0.930 . S
H313 C285 0.930 . S
H314 C287 0.929 . S
H315 C288 0.929 . S
H316 C293 0.930 . S
H317 C294 0.930 . S
H318 C296 0.929 . S
H319 C297 0.929 . S
La320 C322 2.928 . S
La320 O340 2.521 . S
La320 O341 2.628 . S
La320 O342 2.554 . S
La320 O343 2.757 . S
La320 O344 2.470 . S
La320 O349 2.482 . S
La320 O351 2.503 . S
La321 C331 2.928 . S
La321 O343 2.482 . S
La321 O345 2.503 . S
La321 O346 2.521 . S
La321 O347 2.628 . S
La321 O348 2.554 . S
La321 O349 2.757 . S
La321 O350 2.470 . S
C322 La320 2.928 . S
C322 C323 1.503 . S
C322 O340 1.261 . S
C322 O341 1.243 . S
C323 C322 1.503 . S
C323 C324 1.394 . S
C323 C328 1.373 . S
C324 C323 1.394 . S
C324 C325 1.380 . S
C324 H352 0.930 . S
C325 C324 1.380 . S
C325 C326 1.376 . S
C325 H353 0.930 . S
C326 C325 1.376 . S
C326 C327 1.370 . S
C327 C326 1.370 . S
C327 C328 1.396 . S
C327 H354 0.929 . S
C328 C323 1.373 . S
C328 C327 1.396 . S
C328 H355 0.929 . S
C329 O342 1.240 . S
C329 O343 1.289 . S
C330 O344 1.258 . S
C330 O345 1.256 . S
C331 La321 2.928 . S
C331 C332 1.503 . S
C331 O346 1.261 . S
C331 O347 1.243 . S
C332 C331 1.503 . S
C332 C333 1.394 . S
C332 C337 1.373 . S
C333 C332 1.394 . S
C333 C334 1.380 . S
C333 H356 0.930 . S
C334 C333 1.380 . S
C334 C335 1.376 . S
C334 H357 0.930 . S
C335 C334 1.376 . S
C335 C336 1.370 . S
C336 C335 1.370 . S
C336 C337 1.396 . S
C336 H358 0.929 . S
C337 C332 1.373 . S
C337 C336 1.396 . S
C337 H359 0.929 . S
C338 O348 1.240 . S
C338 O349 1.289 . S
C339 O350 1.258 . S
C339 O351 1.256 . S
O340 La320 2.521 . S
O340 C322 1.261 . S
O341 La320 2.628 . S
O341 C322 1.243 . S
O342 La320 2.554 . S
O342 C329 1.240 . S
O343 La320 2.757 . S
O343 La321 2.482 . S
O343 C329 1.289 . S
O344 La320 2.470 . S
O344 C330 1.258 . S
O345 La321 2.503 . S
O345 C330 1.256 . S
O346 La321 2.521 . S
O346 C331 1.261 . S
O347 La321 2.628 . S
O347 C331 1.243 . S
O348 La321 2.554 . S
O348 C338 1.240 . S
O349 La320 2.482 . S
O349 La321 2.757 . S
O349 C338 1.289 . S
O350 La321 2.470 . S
O350 C339 1.258 . S
O351 La320 2.503 . S
O351 C339 1.256 . S
H352 C324 0.930 . S
H353 C325 0.930 . S
H354 C327 0.929 . S
H355 C328 0.929 . S
H356 C333 0.930 . S
H357 C334 0.930 . S
H358 C336 0.929 . S
H359 C337 0.929 . S
C360 C361 1.170 . S
C360 C362 1.380 . S
C361 C360 1.170 . S
C362 C360 1.380 . S
C362 C363 1.170 . S
C363 C362 1.170 . S
C364 C365 1.170 . S
C364 C366 1.380 . S
C365 C364 1.170 . S
C366 C364 1.380 . S
C366 C367 1.170 . S
C367 C366 1.170 . S
C368 C369 1.170 . S
C368 C370 1.380 . S
C369 C368 1.170 . S
C370 C368 1.380 . S
C370 C371 1.170 . S
C371 C370 1.170 . S
C372 C373 1.170 . S
C372 C374 1.380 . S
C373 C372 1.170 . S
C374 C372 1.380 . S
C374 C375 1.170 . S
C375 C374 1.170 . S
C376 C377 1.170 . S
C376 C378 1.380 . S
C377 C376 1.170 . S
C378 C376 1.380 . S
C378 C379 1.170 . S
C379 C378 1.170 . S
C380 C381 1.170 . S
C380 C382 1.380 . S
C381 C380 1.170 . S
C382 C380 1.380 . S
C382 C383 1.170 . S
C383 C382 1.170 . S
C384 C385 1.170 . S
C384 C386 1.380 . S
C385 C384 1.170 . S
C386 C384 1.380 . S
C386 C387 1.170 . S
C387 C386 1.170 . S
C388 C389 1.170 . S
C388 C390 1.380 . S
C389 C388 1.170 . S
C390 C388 1.380 . S
C390 C391 1.170 . S
C391 C390 1.170 . S
C392 C393 1.170 1_655 S
C392 C394 1.380 . S
C393 C392 1.170 1_455 S
C394 C392 1.380 . S
C394 C395 1.170 . S
C395 C394 1.170 . S
C396 C397 1.170 . S
C396 C398 1.380 . S
C397 C396 1.170 . S
C398 C396 1.380 . S
C398 C399 1.170 . S
C399 C398 1.170 . S
C400 C401 1.170 . S
C400 C402 1.380 . S
C401 C400 1.170 . S
C402 C400 1.380 . S
C402 C403 1.170 . S
C403 C402 1.170 . S
C404 C405 1.170 . S
C404 C406 1.380 . S
C405 C404 1.170 . S
C406 C404 1.380 . S
C406 C407 1.170 . S
C407 C406 1.170 . S
C408 C409 1.170 . S
C408 C410 1.380 . S
C409 C408 1.170 . S
C410 C408 1.380 . S
C410 C411 1.170 . S
C411 C410 1.170 . S
C412 C413 1.170 . S
C412 C414 1.380 . S
C413 C412 1.170 . S
C414 C412 1.380 . S
C414 C415 1.170 . S
C415 C414 1.170 . S
C416 C417 1.170 . S
C416 C418 1.380 . S
C417 C416 1.170 . S
C418 C416 1.380 . S
C418 C419 1.170 . S
C419 C418 1.170 . S
C420 C421 1.170 1_545 S
C420 C422 1.380 . S
C421 C420 1.170 1_565 S
C422 C420 1.380 . S
C422 C423 1.170 . S
C423 C422 1.170 . S
C424 C425 1.170 . S
C424 C426 1.380 . S
C425 C424 1.170 . S
C426 C424 1.380 . S
C426 C427 1.170 1_655 S
C427 C426 1.170 1_455 S
C428 C429 1.170 . S
C428 C430 1.380 . S
C429 C428 1.170 . S
C430 C428 1.380 . S
C430 C431 1.170 . S
C431 C430 1.170 . S
C432 C433 1.170 . S
C432 C434 1.380 . S
C433 C432 1.170 . S
C434 C432 1.380 . S
C434 C435 1.170 . S
C435 C434 1.170 . S
C436 C437 1.170 . S
C436 C438 1.380 . S
C437 C436 1.170 . S
C438 C436 1.380 . S
C438 C439 1.170 . S
C439 C438 1.170 . S
C440 C441 1.170 . S
C440 C442 1.380 . S
C441 C440 1.170 . S
C442 C440 1.380 . S
C442 C443 1.170 . S
C443 C442 1.170 . S
C444 C445 1.170 . S
C444 C446 1.380 . S
C445 C444 1.170 . S
C446 C444 1.380 . S
C446 C447 1.170 . S
C447 C446 1.170 . S
C448 C449 1.170 . S
C448 C450 1.380 . S
C449 C448 1.170 . S
C450 C448 1.380 . S
C450 C451 1.170 . S
C451 C450 1.170 . S
C452 C453 1.170 . S
C452 C454 1.380 . S
C453 C452 1.170 . S
C454 C452 1.380 . S
C454 C455 1.170 . S
C455 C454 1.170 . S
C456 C457 1.170 . S
C456 C458 1.380 . S
C457 C456 1.170 . S
C458 C456 1.380 . S
C458 C459 1.170 . S
C459 C458 1.170 . S
C460 C461 1.170 . S
C460 C462 1.380 1_565 S
C461 C460 1.170 . S
C462 C460 1.380 1_545 S
C462 C463 1.170 . S
C463 C462 1.170 . S
C464 C465 1.170 . S
C464 C466 1.380 1_655 S
C465 C464 1.170 . S
C466 C464 1.380 1_455 S
C466 C467 1.170 . S
C467 C466 1.170 . S
C361 C46 1.649 . S
C363 C10 1.732 . S
C365 C86 1.641 . S
C367 C50 1.712 . S
C369 C90 1.733 . S
C371 C6 1.646 . S
C373 C95 1.534 . S
C375 C59 1.491 . S
C377 C99 1.452 . S
C379 C15 1.557 . S
C381 C19 1.461 . S
C383 C55 1.566 . S
C385 C130 1.731 . S
C387 C166 1.652 . S
C389 C206 1.660 . S
C391 C170 1.728 1_545 S
C393 C210 1.732 . S
C395 C126 1.650 . S
C397 C179 1.460 . S
C399 C215 1.549 . S
C401 C219 1.480 . S
C403 C135 1.559 . S
C405 C175 1.535 . S
C407 C139 1.502 . S
C409 C286 1.632 . S
C411 C250 1.722 . S
C413 C290 1.734 . S
C415 C326 1.643 . S
C417 C330 1.708 . S
C419 C246 1.677 . S
C421 C335 1.541 . S
C423 C299 1.501 . S
C425 C339 1.490 . S
C427 C255 1.552 . S
C429 C259 1.454 . S
C431 C295 1.554 . S
C433 C209 2.698 . S
C435 C18 2.285 . S
C437 C129 2.689 . S
C439 C58 2.306 . S
C441 C98 2.328 . S
C443 C169 2.692 . S
C445 C89 2.693 . S
C447 C258 2.288 . S
C449 C9 2.689 . S
C451 C298 2.301 . S
C453 C338 2.331 . S
C455 C49 2.697 . S
C457 C138 2.311 . S
C459 C329 2.689 . S
C461 C178 2.331 . S
C463 C249 2.695 . S
C465 C289 2.691 . S
C467 C218 2.325 . S
