# Generated by pormake.
# Topology uom, (4)-cn, num edge types: 1
# Building blocks:
#     Node 0, Type 0, BuildingBlock: KOZSID_clean_sbu_0, # of connection points: 4
#     Node 1, Type 0, BuildingBlock: KOZSID_clean_sbu_0, # of connection points: 4
#     Node 2, Type 0, BuildingBlock: KOZSID_clean_sbu_0, # of connection points: 4
#     Node 3, Type 0, BuildingBlock: KOZSID_clean_sbu_0, # of connection points: 4
#     Node 4, Type 0, BuildingBlock: KOZSID_clean_sbu_0, # of connection points: 4
#     Node 5, Type 0, BuildingBlock: KOZSID_clean_sbu_0, # of connection points: 4
#     Edge 6, Type (0, 0), BuildingBlock: CIFDUS_clean_linker_0, # of connection points: 2
#     Edge 7, Type (0, 0), BuildingBlock: CIFDUS_clean_linker_0, # of connection points: 2
#     Edge 8, Type (0, 0), BuildingBlock: CIFDUS_clean_linker_0, # of connection points: 2
#     Edge 9, Type (0, 0), BuildingBlock: CIFDUS_clean_linker_0, # of connection points: 2
#     Edge 10, Type (0, 0), BuildingBlock: CIFDUS_clean_linker_0, # of connection points: 2
#     Edge 11, Type (0, 0), BuildingBlock: CIFDUS_clean_linker_0, # of connection points: 2
#     Edge 12, Type (0, 0), BuildingBlock: CIFDUS_clean_linker_0, # of connection points: 2
#     Edge 13, Type (0, 0), BuildingBlock: CIFDUS_clean_linker_0, # of connection points: 2
#     Edge 14, Type (0, 0), BuildingBlock: CIFDUS_clean_linker_0, # of connection points: 2
#     Edge 15, Type (0, 0), BuildingBlock: CIFDUS_clean_linker_0, # of connection points: 2
#     Edge 16, Type (0, 0), BuildingBlock: CIFDUS_clean_linker_0, # of connection points: 2
#     Edge 17, Type (0, 0), BuildingBlock: CIFDUS_clean_linker_0, # of connection points: 2
# Relax obj value: 0.153
# Max RMSD: 0.173
# Mean RMSD: 0.173
data_MOF--net-uom--node1-KOZSID_clean_sbu_0--edge1-CIFDUS_clean_linker_0
_symmetry_space_group_name_H-M    P1
_symmetry_Int_Tables_number       1
_symmetry_cell_setting            triclinic
loop_
_symmetry_equiv_pos_as_xyz
'x, y, z'
_cell_length_a     34.599952
_cell_length_b     34.52007
_cell_length_c     36.948279
_cell_angle_alpha  89.976468
_cell_angle_beta   90.010089
_cell_angle_gamma 120.02009
loop_
_atom_site_label
_atom_site_type_symbol
_atom_site_fract_x
_atom_site_fract_y
_atom_site_fract_z
_atom_type_partial_charge
C0 C 0.34543 0.12419 0.11929 0.0
C1 C 0.33971 0.10138 0.15158 0.0
C2 C 0.33563 0.0608 0.14277 0.0
C3 C 0.33923 0.06106 0.10571 0.0
N4 N 0.34513 0.09923 0.09084 0.0
Co5 Co 0.35247 0.11348 0.03849 0.0
N6 N 0.32482 0.04955 0.02469 0.0
C7 C 0.3201 0.01623 0.04646 0.0
C8 C 0.29787 0.97517 0.02981 0.0
C9 C 0.28828 0.9834 0.99548 0.0
C10 C 0.30553 0.02926 0.99292 0.0
N11 N 0.36032 0.12771 0.98618 0.0
C12 C 0.3388 0.10118 0.95746 0.0
C13 C 0.35461 0.12466 0.9253 0.0
C14 C 0.38692 0.16741 0.9345 0.0
C15 C 0.38921 0.16765 0.97166 0.0
N16 N 0.37959 0.17741 0.05218 0.0
C17 C 0.40565 0.2124 0.03073 0.0
C18 C 0.41878 0.25277 0.04725 0.0
C19 C 0.40004 0.24238 0.08121 0.0
C20 C 0.37665 0.19604 0.08371 0.0
N21 N 0.41102 0.11837 0.03988 0.0
C22 C 0.49363 0.123 0.04279 0.0
C23 C 0.48219 0.14504 0.06866 0.0
C24 C 0.44047 0.14193 0.06694 0.0
C25 C 0.46338 0.09909 0.0152 0.0
C26 C 0.42243 0.0976 0.01399 0.0
N27 N 0.29433 0.10837 0.03703 0.0
C28 C 0.24581 0.13325 0.01401 0.0
C29 C 0.20958 0.09807 0.03198 0.0
C30 C 0.21688 0.06839 0.05275 0.0
C31 C 0.25936 0.07381 0.05453 0.0
C32 C 0.28803 0.13824 0.01742 0.0
H33 H 0.26386 0.0499 0.06997 0.0
H34 H 0.31549 0.1659 1.00377 0.0
H35 H 0.43192 0.15828 0.0877 0.0
H36 H 0.39985 0.07935 0.99221 0.0
C37 C 0.32882 0.02383 0.08374 0.0
C38 C 0.35434 0.17054 0.11675 0.0
C39 C 0.30536 0.05326 0.95987 0.0
C40 C 0.41029 0.20583 0.99378 0.0
H41 H 0.33879 0.11295 0.17862 0.0
H42 H 0.32894 0.03368 0.16111 0.0
H43 H 0.2877 0.94282 0.04173 0.0
H44 H 0.27036 0.95836 0.975 0.0
H45 H 0.34381 0.11223 0.89813 0.0
H46 H 0.40487 0.19545 0.91633 0.0
H47 H 0.43805 0.28581 0.03553 0.0
H48 H 0.40332 0.26628 0.10161 0.0
H49 H 0.5049 0.16367 0.09045 0.0
H50 H 0.47149 0.08197 0.99459 0.0
H51 H 0.24174 0.15665 0.9972 0.0
H52 H 0.19019 0.04133 0.06781 0.0
C53 C 0.32918 0.36109 0.45352 0.0
C54 C 0.34477 0.356 0.48677 0.0
C55 C 0.37828 0.34672 0.47965 0.0
C56 C 0.38145 0.34681 0.44258 0.0
N57 N 0.35198 0.35551 0.42605 0.0
Co58 Co 0.34523 0.35846 0.37297 0.0
N59 N 0.37559 0.32372 0.36276 0.0
C60 C 0.40166 0.31728 0.38619 0.0
C61 C 0.41781 0.29141 0.37201 0.0
C62 C 0.40129 0.28142 0.3374 0.0
C63 C 0.37614 0.30215 0.33214 0.0
N64 N 0.33871 0.36185 0.31984 0.0
C65 C 0.34277 0.33771 0.29258 0.0
C66 C 0.33677 0.3525 0.25921 0.0
C67 C 0.32887 0.38703 0.26596 0.0
C68 C 0.33059 0.3916 0.30293 0.0
N69 N 0.31451 0.39277 0.38333 0.0
C70 C 0.30842 0.4188 0.35962 0.0
C71 C 0.28464 0.43715 0.37411 0.0
C72 C 0.27541 0.42179 0.40912 0.0
C73 C 0.29439 0.39503 0.41421 0.0
N74 N 0.40282 0.41418 0.37105 0.0
C75 C 0.48571 0.49319 0.36891 0.0
C76 C 0.47538 0.45881 0.34404 0.0
C77 C 0.43367 0.41987 0.34531 0.0
C78 C 0.4537 0.48737 0.3948 0.0
C79 C 0.41268 0.44748 0.39566 0.0
N80 N 0.28819 0.30327 0.37506 0.0
C81 C 0.21068 0.26079 0.35901 0.0
C82 C 0.20564 0.22562 0.38103 0.0
C83 C 0.24262 0.22973 0.39969 0.0
C84 C 0.28373 0.26865 0.39602 0.0
C85 C 0.25225 0.29957 0.35663 0.0
H86 H 0.31186 0.27085 0.41035 0.0
H87 H 0.25525 0.32667 0.34012 0.0
H88 H 0.42647 0.39435 0.3254 0.0
H89 H 0.38899 0.44354 0.41634 0.0
C90 C 0.40443 0.33014 0.42258 0.0
C91 C 0.29499 0.37422 0.44898 0.0
C92 C 0.35656 0.3039 0.29703 0.0
C93 C 0.31785 0.41804 0.32279 0.0
H94 H 0.33312 0.35865 0.51334 0.0
H95 H 0.39657 0.33872 0.49918 0.0
H96 H 0.43795 0.27989 0.38556 0.0
H97 H 0.40745 0.26146 0.31821 0.0
H98 H 0.33853 0.34009 0.23273 0.0
H99 H 0.32144 0.40562 0.24628 0.0
H100 H 0.27338 0.45744 0.36039 0.0
H101 H 0.25665 0.42931 0.4285 0.0
H102 H 0.49913 0.46231 0.32337 0.0
H103 H 0.46058 0.51318 0.41459 0.0
H104 H 0.18263 0.2585 0.34413 0.0
H105 H 0.23993 0.20274 0.41647 0.0
C106 C 0.08277 0.32138 0.78761 0.0
C107 C 0.10828 0.32633 0.81821 0.0
C108 C 0.15118 0.35911 0.81068 0.0
C109 C 0.15047 0.37149 0.77555 0.0
N110 N 0.10965 0.34809 0.76053 0.0
Co111 Co 0.0963 0.34744 0.70814 0.0
N112 N 0.1599 0.3738 0.69403 0.0
C113 C 0.19502 0.39619 0.71622 0.0
C114 C 0.23508 0.40981 0.69917 0.0
C115 C 0.22438 0.3953 0.66405 0.0
C116 C 0.17818 0.37374 0.66151 0.0
N117 N 0.08259 0.34631 0.65596 0.0
C118 C 0.10691 0.34806 0.62654 0.0
C119 C 0.08474 0.34686 0.59489 0.0
C120 C 0.04535 0.34443 0.60509 0.0
C121 C 0.04564 0.34436 0.64229 0.0
N122 N 0.03292 0.32148 0.72201 0.0
C123 C 0.00171 0.32378 0.70189 0.0
C124 C 0.96161 0.30702 0.71958 0.0
C125 C 0.96819 0.29342 0.75282 0.0
C126 C 0.01194 0.30189 0.75346 0.0
N127 N 0.10412 0.40744 0.71218 0.0
C128 C 0.10709 0.48979 0.71418 0.0
C129 C 0.12893 0.48032 0.68668 0.0
C130 C 0.12682 0.43884 0.68604 0.0
C131 C 0.08539 0.45808 0.74148 0.0
C132 C 0.08482 0.4174 0.74025 0.0
N133 N 0.08828 0.28788 0.70427 0.0
C134 C 0.04388 0.21085 0.68675 0.0
C135 C 0.0737 0.2013 0.7046 0.0
C136 C 0.11152 0.23572 0.72116 0.0
C137 C 0.11846 0.2789 0.72035 0.0
C138 C 0.05167 0.25461 0.68712 0.0
H139 H 0.14781 0.30485 0.73343 0.0
H140 H 0.0278 0.26146 0.67414 0.0
H141 H 0.14251 0.43172 0.66382 0.0
H142 H 0.06762 0.39347 0.76153 0.0
C143 C 0.18848 0.39478 0.75372 0.0
C144 C 0.03322 0.29341 0.78499 0.0
C145 C 0.1526 0.3553 0.62782 0.0
C146 C 0.00963 0.33555 0.66509 0.0
H147 H 0.09843 0.30721 0.84294 0.0
H148 H 0.18018 0.36952 0.82773 0.0
H149 H 0.26799 0.42608 0.71125 0.0
H150 H 0.24798 0.39976 0.64302 0.0
H151 H 0.09617 0.3483 0.5674 0.0
H152 H 0.01912 0.34168 0.58745 0.0
H153 H 0.93091 0.30392 0.70926 0.0
H154 H 0.94359 0.27924 0.77418 0.0
H155 H 0.146 0.50408 0.66508 0.0
H156 H 0.06862 0.46453 0.76343 0.0
H157 H 0.01449 0.18467 0.67343 0.0
H158 H 0.1355 0.22921 0.73468 0.0
C159 C 0.8582 0.09256 0.12375 0.0
C160 C 0.87464 0.1212 0.15338 0.0
C161 C 0.87687 0.16057 0.14354 0.0
C162 C 0.8637 0.15508 0.10806 0.0
N163 N 0.8541 0.11484 0.09491 0.0
Co164 Co 0.84516 0.09796 0.04295 0.0
N165 N 0.87186 0.16079 0.02687 0.0
C166 C 0.87435 0.19437 0.04696 0.0
C167 C 0.8904 0.23354 0.02783 0.0
C168 C 0.8985 0.22377 0.9936 0.0
C169 C 0.88778 0.17921 0.99393 0.0
N170 N 0.83706 0.08141 0.99084 0.0
C171 C 0.86105 0.10581 0.96168 0.0
C172 C 0.84964 0.07832 0.93139 0.0
C173 C 0.81595 0.03676 0.94166 0.0
C174 C 0.80927 0.04026 0.9778 0.0
N175 N 0.81769 0.03491 0.05902 0.0
C176 C 0.78901 0.99957 0.03902 0.0
C177 C 0.76999 0.9602 0.05807 0.0
C178 C 0.78774 0.97161 0.09222 0.0
C179 C 0.81766 0.01746 0.09204 0.0
N180 N 0.78668 0.0933 0.04414 0.0
C181 C 0.7041 0.08879 0.04631 0.0
C182 C 0.73299 0.10916 0.01714 0.0
C183 C 0.77393 0.11064 0.01638 0.0
C184 C 0.7169 0.07024 0.07421 0.0
C185 C 0.7586 0.07327 0.0728 0.0
N186 N 0.90318 0.10279 0.04156 0.0
C187 C 0.95019 0.07524 0.02032 0.0
C188 C 0.98761 0.11258 0.03504 0.0
C189 C 0.98164 0.14466 0.05346 0.0
C190 C 0.93923 0.13938 0.05603 0.0
C191 C 0.90823 0.07059 0.0245 0.0
H192 H 0.93566 0.16508 0.06948 0.0
H193 H 0.87994 0.04139 0.01324 0.0
H194 H 0.79545 0.12618 0.99341 0.0
H195 H 0.76821 0.05967 0.09503 0.0
C196 C 0.87001 0.18984 0.08465 0.0
C197 C 0.84289 0.04371 0.12422 0.0
C198 C 0.89203 0.15513 0.96241 0.0
C199 C 0.78607 0.00406 1.00153 0.0
H200 H 0.88547 0.11555 0.17924 0.0
H201 H 0.88988 0.19077 0.1596 0.0
H202 H 0.8973 0.26583 0.03788 0.0
H203 H 0.91127 0.24695 0.97114 0.0
H204 H 0.86462 0.08584 0.90491 0.0
H205 H 0.80081 0.00671 0.92532 0.0
H206 H 0.74665 0.92703 0.0482 0.0
H207 H 0.77886 0.94865 0.11471 0.0
H208 H 0.72383 0.12354 0.99499 0.0
H209 H 0.69527 0.05443 0.09725 0.0
H210 H 0.95311 0.04991 1.00529 0.0
H211 H 0.00933 0.17354 0.06602 0.0
C212 C 0.87849 0.84107 0.44412 0.0
C213 C 0.85738 0.84366 0.4752 0.0
C214 C 0.82082 0.84621 0.46409 0.0
C215 C 0.82153 0.84501 0.42694 0.0
N216 N 0.85643 0.84227 0.41405 0.0
Co217 Co 0.86867 0.83857 0.36202 0.0
N218 N 0.83048 0.86324 0.34624 0.0
C219 C 0.79733 0.86206 0.36612 0.0
C220 C 0.77299 0.87689 0.3474 0.0
C221 C 0.79203 0.88803 0.31364 0.0
C222 C 0.82775 0.88019 0.3137 0.0
N223 N 0.88109 0.83525 0.30991 0.0
C224 C 0.8799 0.85989 0.28156 0.0
C225 C 0.9015 0.85454 0.25184 0.0
C226 C 0.91283 0.82308 0.26101 0.0
C227 C 0.89962 0.81211 0.29626 0.0
N228 N 0.90675 0.81369 0.37789 0.0
C229 C 0.92023 0.79096 0.35678 0.0
C230 C 0.94691 0.77836 0.37472 0.0
C231 C 0.9501 0.79378 0.4094 0.0
C232 C 0.92482 0.81481 0.4108 0.0
N233 N 0.81684 0.77805 0.35978 0.0
C234 C 0.73747 0.69552 0.36056 0.0
C235 C 0.74689 0.72568 0.33209 0.0
C236 C 0.78701 0.7664 0.33191 0.0
C237 C 0.76936 0.70659 0.38785 0.0
C238 C 0.80867 0.74813 0.38711 0.0
N239 N 0.91976 0.89872 0.36416 0.0
C240 C 0.99464 0.95145 0.34619 0.0
C241 C 0.99053 0.98621 0.36148 0.0
C242 C 0.95095 0.97636 0.37919 0.0
C243 C 0.91574 0.9323 0.38 0.0
C244 C 0.95904 0.90785 0.3482 0.0
H245 H 0.88498 0.92548 0.39282 0.0
H246 H 0.96304 0.88169 0.3362 0.0
H247 H 0.7933 0.78901 0.30966 0.0
H248 H 0.83188 0.75648 0.4092 0.0
C249 C 0.79415 0.85249 0.4033 0.0
C250 C 0.91629 0.83269 0.44423 0.0
C251 C 0.85603 0.88585 0.28169 0.0
C252 C 0.91508 0.79058 0.31926 0.0
H253 H 0.86693 0.84292 0.50298 0.0
H254 H 0.79721 0.8496 0.48108 0.0
H255 H 0.74523 0.88005 0.35724 0.0
H256 H 0.78023 0.89978 0.29145 0.0
H257 H 0.91023 0.87242 0.22647 0.0
H258 H 0.93215 0.81264 0.24491 0.0
H259 H 0.96394 0.76197 0.36353 0.0
H260 H 0.96905 0.79005 0.43104 0.0
H261 H 0.72326 0.71793 0.31022 0.0
H262 H 0.76322 0.68402 0.41029 0.0
H263 H 0.0252 0.95794 0.33286 0.0
H264 H 0.94688 0.00261 0.39143 0.0
C265 C 0.13327 0.88077 0.78199 0.0
C266 C 0.11178 0.86358 0.81475 0.0
C267 C 0.07086 0.82733 0.80675 0.0
C268 C 0.06952 0.82419 0.76967 0.0
N269 N 0.10691 0.85647 0.75389 0.0
Co270 Co 0.11877 0.86251 0.70105 0.0
N271 N 0.0545 0.8246 0.689 0.0
C272 C 0.02251 0.79605 0.71169 0.0
C273 C 0.98074 0.7765 0.69636 0.0
C274 C 0.98704 0.79383 0.66195 0.0
C275 C 0.03254 0.82286 0.65798 0.0
N276 N 0.13047 0.8682 0.6483 0.0
C277 C 0.10246 0.86226 0.62049 0.0
C278 C 0.12442 0.86998 0.58758 0.0
C279 C 0.16774 0.88154 0.59533 0.0
C280 C 0.1698 0.88004 0.63243 0.0
N281 N 0.18308 0.90074 0.71279 0.0
C282 C 0.21708 0.91039 0.68997 0.0
C283 C 0.25806 0.93805 0.70518 0.0
C284 C 0.24929 0.94581 0.73982 0.0
C285 C 0.20321 0.922 0.74406 0.0
N286 N 0.12533 0.80944 0.70214 0.0
C287 C 0.13292 0.73258 0.7044 0.0
C288 C 0.10712 0.73767 0.67771 0.0
C289 C 0.10417 0.77654 0.67679 0.0
C290 C 0.15519 0.7668 0.72973 0.0
C291 C 0.1506 0.80473 0.72837 0.0
N292 N 0.11189 0.91486 0.69972 0.0
C293 C 0.13306 0.98698 0.67493 0.0
C294 C 0.09551 0.98536 0.6907 0.0
C295 C 0.06708 0.94838 0.71194 0.0
C296 C 0.07598 0.91359 0.71623 0.0
C297 C 0.14077 0.95144 0.67993 0.0
H298 H 0.05306 0.88507 0.73207 0.0
H299 H 0.16953 0.95307 0.66713 0.0
H300 H 0.08453 0.77986 0.65564 0.0
H301 H 0.16728 0.83007 0.74876 0.0
C302 C 0.03178 0.79628 0.74871 0.0
C303 C 0.18007 0.91711 0.77884 0.0
C304 C 0.05465 0.84713 0.62444 0.0
C305 C 0.20894 0.89852 0.65325 0.0
H306 H 0.12459 0.87554 0.84164 0.0
H307 H 0.04476 0.80658 0.8257 0.0
H308 H 0.94915 0.7544 0.70932 0.0
H309 H 0.96092 0.78631 0.64246 0.0
H310 H 0.11062 0.86774 0.56086 0.0
H311 H 0.19495 0.8921 0.57628 0.0
H312 H 0.29042 0.95214 0.69231 0.0
H313 H 0.27411 0.9663 0.7597 0.0
H314 H 0.08968 0.71195 0.65751 0.0
H315 H 0.17521 0.76381 0.75091 0.0
H316 H 0.15639 0.01553 0.65898 0.0
H317 H 0.03766 0.94587 0.72457 0.0
H318 H 0.4178 0.23655 0.15981 0.0
H319 H 0.27571 0.15202 0.14781 0.0
H320 H 0.26327 0.18484 0.20239 0.0
H321 H 0.29312 0.2381 0.25404 0.0
H322 H 0.43527 0.32366 0.26486 0.0
H323 H 0.4475 0.29063 0.21049 0.0
C324 C 0.38414 0.22586 0.16891 0.0
C325 C 0.34764 0.1925 0.14936 0.0
C326 C 0.37732 0.245 0.20036 0.0
C327 C 0.30426 0.17803 0.16211 0.0
C328 C 0.29719 0.19676 0.19336 0.0
C329 C 0.3267 0.24923 0.24448 0.0
C330 C 0.3633 0.28259 0.26394 0.0
C331 C 0.33344 0.23028 0.21281 0.0
C332 C 0.40664 0.29735 0.25086 0.0
C333 C 0.41361 0.27861 0.21964 0.0
H334 H 0.22652 0.30696 0.48716 0.0
H335 H 0.31188 0.45009 0.48494 0.0
H336 H 0.27522 0.45727 0.53918 0.0
H337 H 0.21888 0.42278 0.58784 0.0
H338 H 0.13432 0.27964 0.59119 0.0
H339 H 0.16984 0.27234 0.53608 0.0
C340 C 0.23679 0.33966 0.49854 0.0
C341 C 0.27131 0.37805 0.48166 0.0
C342 C 0.21564 0.34346 0.53006 0.0
C343 C 0.28483 0.42018 0.49701 0.0
C344 C 0.26398 0.42425 0.52813 0.0
C345 C 0.20857 0.39001 0.57659 0.0
C346 C 0.17455 0.35168 0.59393 0.0
C347 C 0.22938 0.38616 0.54497 0.0
C348 C 0.16073 0.30953 0.57856 0.0
C349 C 0.18108 0.3054 0.54706 0.0
H350 H 0.87981 0.15031 0.88662 0.0
H351 H 0.97683 0.22495 0.96958 0.0
H352 H 0.02565 0.27774 0.92386 0.0
H353 H 0.03783 0.30447 0.86047 0.0
H354 H 0.95868 0.21102 0.7768 0.0
H355 H 0.9051 0.16285 0.82256 0.0
C356 C 0.91287 0.17535 0.89506 0.0
C357 C 0.92417 0.18221 0.93226 0.0
C358 C 0.94359 0.20285 0.8682 0.0
C359 C 0.96634 0.21865 0.94153 0.0
C360 C 0.9946 0.24892 0.91531 0.0
C361 C 0.01137 0.27209 0.85181 0.0
C362 C 0.00384 0.26159 0.81453 0.0
C363 C 0.98349 0.24147 0.87848 0.0
C364 C 0.96569 0.22077 0.80496 0.0
C365 C 0.93503 0.19286 0.83122 0.0
H366 H 0.85835 0.97286 0.12846 0.0
H367 H 0.82548 0.05369 0.19658 0.0
H368 H 0.83766 0.02041 0.25024 0.0
H369 H 0.85565 0.96565 0.27822 0.0
H370 H 0.84324 0.85926 0.2093 0.0
H371 H 0.85015 0.90352 0.15595 0.0
C372 C 0.85331 0.98316 0.15493 0.0
C373 C 0.84547 0.01954 0.15786 0.0
C374 C 0.85252 0.95852 0.1858 0.0
C375 C 0.83706 0.03014 0.19282 0.0
C376 C 0.84234 0.00973 0.22383 0.0
C377 C 0.854 0.95168 0.25162 0.0
C378 C 0.85382 0.91072 0.2484 0.0
C379 C 0.85034 0.97386 0.22068 0.0
C380 C 0.84912 0.89279 0.21329 0.0
C381 C 0.85149 0.91757 0.18245 0.0
H382 H 0.98803 0.78049 0.58361 0.0
H383 H 0.06677 0.92378 0.59345 0.0
H384 H 0.03069 0.93274 0.53945 0.0
H385 H 0.97782 0.89945 0.48783 0.0
H386 H 0.89735 0.75612 0.47981 0.0
H387 H 0.93185 0.74741 0.5348 0.0
C388 C 0.99641 0.81364 0.57448 0.0
C389 C 0.0294 0.85146 0.59306 0.0
C390 C 0.97521 0.81848 0.54349 0.0
C391 C 0.04112 0.89418 0.57991 0.0
C392 C 0.02052 0.89929 0.54898 0.0
C393 C 0.96773 0.86641 0.49839 0.0
C394 C 0.93556 0.82843 0.47949 0.0
C395 C 0.98768 0.86169 0.53032 0.0
C396 C 0.92243 0.78579 0.49363 0.0
C397 C 0.94218 0.78083 0.52508 0.0
H398 H 0.30739 0.9895 0.91658 0.0
H399 H 0.2411 0.06602 0.92957 0.0
H400 H 0.1965 0.03134 0.87507 0.0
H401 H 0.17659 0.97919 0.82291 0.0
H402 H 0.24162 0.90128 0.8113 0.0
H403 H 0.28574 0.93567 0.86592 0.0
C404 C 0.28254 0.99787 0.90784 0.0
C405 C 0.27686 0.02961 0.92758 0.0
C406 C 0.2569 0.97761 0.87645 0.0
C407 C 0.24564 0.04127 0.91513 0.0
C408 C 0.2202 0.02148 0.88392 0.0
C409 C 0.2005 0.96992 0.83242 0.0
C410 C 0.20652 0.93842 0.81263 0.0
C411 C 0.22556 0.98965 0.86422 0.0
C412 C 0.23707 0.9261 0.8256 0.0
C413 C 0.26218 0.94565 0.85694 0.0
H414 H 0.18916 0.16438 0.02926 0.0
H415 H 0.12893 0.02035 0.03024 0.0
H416 H 0.05502 0.01246 0.03223 0.0
H417 H 0.00826 0.0464 0.03623 0.0
H418 H 0.06787 0.18992 0.02663 0.0
H419 H 0.14188 0.19793 0.0254 0.0
C420 C 0.15999 0.13118 0.02902 0.0
C421 C 0.1647 0.09307 0.03007 0.0
C422 C 0.11764 0.12677 0.02894 0.0
C423 C 0.12635 0.05034 0.03042 0.0
C424 C 0.08405 0.04573 0.03126 0.0
C425 C 0.03721 0.07944 0.03297 0.0
C426 C 0.0324 0.11749 0.03191 0.0
C427 C 0.07943 0.08375 0.03092 0.0
C428 C 0.07058 0.16007 0.02848 0.0
C429 C 0.11291 0.16471 0.02742 0.0
H430 H 0.03181 0.04362 0.41655 0.0
H431 H 0.03229 0.03139 0.30049 0.0
H432 H 0.09733 0.10665 0.29605 0.0
H433 H 0.15654 0.17383 0.32563 0.0
H434 H 0.15934 0.18413 0.44194 0.0
H435 H 0.09026 0.11174 0.44611 0.0
C436 C 0.04599 0.05786 0.39036 0.0
C437 C 0.0277 0.0325 0.35889 0.0
C438 C 0.08389 0.10051 0.38817 0.0
C439 C 0.04631 0.0506 0.32501 0.0
C440 C 0.08331 0.09348 0.32249 0.0
C441 C 0.14153 0.16034 0.35178 0.0
C442 C 0.16248 0.18387 0.38343 0.0
C443 C 0.10273 0.11843 0.35392 0.0
C444 C 0.1435 0.16616 0.4173 0.0
C445 C 0.10417 0.12495 0.41966 0.0
H446 H 0.07996 0.15402 0.64943 0.0
H447 H 0.05354 0.149 0.76375 0.0
H448 H 0.05454 0.07881 0.76906 0.0
H449 H 0.07092 0.02399 0.74232 0.0
H450 H 0.10062 0.0302 0.62835 0.0
H451 H 0.09095 0.09535 0.6216 0.0
C452 C 0.07341 0.13675 0.67519 0.0
C453 C 0.06641 0.15581 0.70614 0.0
C454 C 0.07553 0.09741 0.67816 0.0
C455 C 0.05871 0.13422 0.73969 0.0
C456 C 0.05957 0.09446 0.74272 0.0
C457 C 0.07444 0.0391 0.71589 0.0
C458 C 0.08672 0.02268 0.68594 0.0
C459 C 0.06916 0.07648 0.71232 0.0
C460 C 0.09186 0.04287 0.6519 0.0
C461 C 0.08608 0.07986 0.64799 0.0
H462 H 0.69093 0.15931 0.04395 0.0
H463 H 0.62151 0.01551 0.05203 0.0
H464 H 0.54958 0.01331 0.05161 0.0
H465 H 0.5068 0.05257 0.04743 0.0
H466 H 0.57634 0.1966 0.04271 0.0
H467 H 0.64826 0.1988 0.04342 0.0
C468 C 0.65993 0.12761 0.04564 0.0
C469 C 0.66103 0.0876 0.0477 0.0
C470 C 0.61904 0.12677 0.04595 0.0
C471 C 0.62105 0.04662 0.05043 0.0
C472 C 0.58011 0.04539 0.05009 0.0
C473 C 0.53783 0.08432 0.04658 0.0
C474 C 0.53675 0.12436 0.0447 0.0
C475 C 0.57875 0.08524 0.0476 0.0
C476 C 0.57679 0.16548 0.04415 0.0
C477 C 0.61772 0.16669 0.04447 0.0
H478 H 0.65527 0.6867 0.35906 0.0
H479 H 0.72255 0.61042 0.36672 0.0
H480 H 0.65045 0.54074 0.36935 0.0
H481 H 0.56806 0.50162 0.36932 0.0
H482 H 0.50111 0.57848 0.36553 0.0
H483 H 0.57313 0.6479 0.36165 0.0
C484 C 0.65398 0.65472 0.36115 0.0
C485 C 0.69393 0.65343 0.36235 0.0
C486 C 0.61252 0.61504 0.36344 0.0
C487 C 0.69209 0.61203 0.36572 0.0
C488 C 0.65095 0.57229 0.36717 0.0
C489 C 0.56941 0.53364 0.36757 0.0
C490 C 0.5295 0.53509 0.36751 0.0
C491 C 0.61094 0.57339 0.36601 0.0
C492 C 0.53149 0.57669 0.36575 0.0
C493 C 0.5726 0.6163 0.36341 0.0
H494 H 0.0646 0.64745 0.70869 0.0
H495 H 0.20811 0.72598 0.70448 0.0
H496 H 0.21312 0.65763 0.70662 0.0
H497 H 0.17623 0.57519 0.70936 0.0
H498 H 0.03283 0.49734 0.71718 0.0
H499 H 0.028 0.56558 0.71407 0.0
C500 C 0.09688 0.6494 0.70813 0.0
C501 C 0.13592 0.69138 0.70614 0.0
C502 C 0.09944 0.61014 0.71011 0.0
C503 C 0.17768 0.69385 0.70602 0.0
C504 C 0.18051 0.65485 0.70718 0.0
C505 C 0.14403 0.57337 0.71036 0.0
C506 C 0.10493 0.53152 0.71341 0.0
C507 C 0.14159 0.6128 0.70917 0.0
C508 C 0.06334 0.52935 0.71507 0.0
C509 C 0.06056 0.56827 0.71315 0.0
loop_
_geom_bond_atom_site_label_1
_geom_bond_atom_site_label_2
_geom_bond_distance
_geom_bond_site_symmetry_2
_ccdc_geom_bond_type
C0 C1 1.443 . S
C0 N4 1.376 . S
C0 C38 1.389 . S
C1 C0 1.443 . S
C1 C2 1.340 . S
C1 H41 0.951 . S
C2 C1 1.340 . S
C2 C3 1.439 . S
C2 H42 0.950 . S
C3 C2 1.439 . S
C3 N4 1.374 . S
C3 C37 1.395 . S
N4 C0 1.376 . S
N4 C3 1.374 . S
N4 Co5 2.008 . S
Co5 N4 2.008 . S
Co5 N6 1.995 . S
Co5 N11 2.008 1_554 S
Co5 N16 1.995 . S
Co5 N21 2.282 . S
Co5 N27 2.282 . S
N6 Co5 1.995 . S
N6 C7 1.376 . S
N6 C10 1.383 1_554 S
C7 N6 1.376 . S
C7 C8 1.446 . S
C7 C37 1.391 . S
C8 C7 1.446 . S
C8 C9 1.339 1_554 S
C8 H43 0.949 . S
C9 C8 1.339 1_556 S
C9 C10 1.439 . S
C9 H44 0.950 . S
C10 N6 1.383 1_556 S
C10 C9 1.439 . S
C10 C39 1.392 . S
N11 Co5 2.008 1_556 S
N11 C12 1.376 . S
N11 C15 1.374 . S
C12 N11 1.376 . S
C12 C13 1.443 . S
C12 C39 1.389 . S
C13 C12 1.443 . S
C13 C14 1.340 . S
C13 H45 0.951 . S
C14 C13 1.340 . S
C14 C15 1.439 . S
C14 H46 0.950 . S
C15 N11 1.374 . S
C15 C14 1.439 . S
C15 C40 1.395 . S
N16 Co5 1.995 . S
N16 C17 1.376 . S
N16 C20 1.383 . S
C17 N16 1.376 . S
C17 C18 1.446 . S
C17 C40 1.391 1_554 S
C18 C17 1.446 . S
C18 C19 1.339 . S
C18 H47 0.949 . S
C19 C18 1.339 . S
C19 C20 1.439 . S
C19 H48 0.950 . S
C20 N16 1.383 . S
C20 C19 1.439 . S
C20 C38 1.392 . S
N21 Co5 2.282 . S
N21 C24 1.332 . S
N21 C26 1.332 . S
C22 C23 1.386 . S
C22 C25 1.388 . S
C23 C22 1.386 . S
C23 C24 1.382 . S
C23 H49 0.950 . S
C24 N21 1.332 . S
C24 C23 1.382 . S
C24 H35 0.952 . S
C25 C22 1.388 . S
C25 C26 1.382 . S
C25 H50 0.950 . S
C26 N21 1.332 . S
C26 C25 1.382 . S
C26 H36 0.948 . S
N27 Co5 2.282 . S
N27 C31 1.332 . S
N27 C32 1.332 . S
C28 C29 1.388 . S
C28 C32 1.382 . S
C28 H51 0.950 . S
C29 C28 1.388 . S
C29 C30 1.386 . S
C30 C29 1.386 . S
C30 C31 1.382 . S
C30 H52 0.950 . S
C31 N27 1.332 . S
C31 C30 1.382 . S
C31 H33 0.952 . S
C32 N27 1.332 . S
C32 C28 1.382 . S
C32 H34 0.948 . S
H33 C31 0.952 . S
H34 C32 0.948 . S
H35 C24 0.952 . S
H36 C26 0.948 . S
C37 C3 1.395 . S
C37 C7 1.391 . S
C38 C0 1.389 . S
C38 C20 1.392 . S
C39 C10 1.392 . S
C39 C12 1.389 . S
C40 C15 1.395 . S
C40 C17 1.391 1_556 S
H41 C1 0.951 . S
H42 C2 0.950 . S
H43 C8 0.949 . S
H44 C9 0.950 . S
H45 C13 0.951 . S
H46 C14 0.950 . S
H47 C18 0.949 . S
H48 C19 0.950 . S
H49 C23 0.950 . S
H50 C25 0.950 . S
H51 C28 0.950 . S
H52 C30 0.950 . S
C53 C54 1.443 . S
C53 N57 1.376 . S
C53 C91 1.389 . S
C54 C53 1.443 . S
C54 C55 1.340 . S
C54 H94 0.951 . S
C55 C54 1.340 . S
C55 C56 1.439 . S
C55 H95 0.950 . S
C56 C55 1.439 . S
C56 N57 1.374 . S
C56 C90 1.395 . S
N57 C53 1.376 . S
N57 C56 1.374 . S
N57 Co58 2.008 . S
Co58 N57 2.008 . S
Co58 N59 1.995 . S
Co58 N64 2.008 . S
Co58 N69 1.995 . S
Co58 N74 2.282 . S
Co58 N80 2.282 . S
N59 Co58 1.995 . S
N59 C60 1.376 . S
N59 C63 1.383 . S
C60 N59 1.376 . S
C60 C61 1.446 . S
C60 C90 1.391 . S
C61 C60 1.446 . S
C61 C62 1.339 . S
C61 H96 0.949 . S
C62 C61 1.339 . S
C62 C63 1.439 . S
C62 H97 0.950 . S
C63 N59 1.383 . S
C63 C62 1.439 . S
C63 C92 1.392 . S
N64 Co58 2.008 . S
N64 C65 1.376 . S
N64 C68 1.374 . S
C65 N64 1.376 . S
C65 C66 1.443 . S
C65 C92 1.389 . S
C66 C65 1.443 . S
C66 C67 1.340 . S
C66 H98 0.951 . S
C67 C66 1.340 . S
C67 C68 1.439 . S
C67 H99 0.950 . S
C68 N64 1.374 . S
C68 C67 1.439 . S
C68 C93 1.395 . S
N69 Co58 1.995 . S
N69 C70 1.376 . S
N69 C73 1.383 . S
C70 N69 1.376 . S
C70 C71 1.446 . S
C70 C93 1.391 . S
C71 C70 1.446 . S
C71 C72 1.339 . S
C71 H100 0.949 . S
C72 C71 1.339 . S
C72 C73 1.439 . S
C72 H101 0.950 . S
C73 N69 1.383 . S
C73 C72 1.439 . S
C73 C91 1.392 . S
N74 Co58 2.282 . S
N74 C77 1.332 . S
N74 C79 1.332 . S
C75 C76 1.386 . S
C75 C78 1.388 . S
C76 C75 1.386 . S
C76 C77 1.382 . S
C76 H102 0.950 . S
C77 N74 1.332 . S
C77 C76 1.382 . S
C77 H88 0.952 . S
C78 C75 1.388 . S
C78 C79 1.382 . S
C78 H103 0.950 . S
C79 N74 1.332 . S
C79 C78 1.382 . S
C79 H89 0.948 . S
N80 Co58 2.282 . S
N80 C84 1.332 . S
N80 C85 1.332 . S
C81 C82 1.388 . S
C81 C85 1.382 . S
C81 H104 0.950 . S
C82 C81 1.388 . S
C82 C83 1.386 . S
C83 C82 1.386 . S
C83 C84 1.382 . S
C83 H105 0.950 . S
C84 N80 1.332 . S
C84 C83 1.382 . S
C84 H86 0.952 . S
C85 N80 1.332 . S
C85 C81 1.382 . S
C85 H87 0.948 . S
H86 C84 0.952 . S
H87 C85 0.948 . S
H88 C77 0.952 . S
H89 C79 0.948 . S
C90 C56 1.395 . S
C90 C60 1.391 . S
C91 C53 1.389 . S
C91 C73 1.392 . S
C92 C63 1.392 . S
C92 C65 1.389 . S
C93 C68 1.395 . S
C93 C70 1.391 . S
H94 C54 0.951 . S
H95 C55 0.950 . S
H96 C61 0.949 . S
H97 C62 0.950 . S
H98 C66 0.951 . S
H99 C67 0.950 . S
H100 C71 0.949 . S
H101 C72 0.950 . S
H102 C76 0.950 . S
H103 C78 0.950 . S
H104 C81 0.950 . S
H105 C83 0.950 . S
C106 C107 1.443 . S
C106 N110 1.376 . S
C106 C144 1.389 1_455 S
C107 C106 1.443 . S
C107 C108 1.340 . S
C107 H147 0.951 . S
C108 C107 1.340 . S
C108 C109 1.439 . S
C108 H148 0.950 . S
C109 C108 1.439 . S
C109 N110 1.374 . S
C109 C143 1.395 . S
N110 C106 1.376 . S
N110 C109 1.374 . S
N110 Co111 2.008 . S
Co111 N110 2.008 . S
Co111 N112 1.995 . S
Co111 N117 2.008 . S
Co111 N122 1.995 1_455 S
Co111 N127 2.282 . S
Co111 N133 2.282 . S
N112 Co111 1.995 . S
N112 C113 1.376 . S
N112 C116 1.383 . S
C113 N112 1.376 . S
C113 C114 1.446 . S
C113 C143 1.391 . S
C114 C113 1.446 . S
C114 C115 1.339 . S
C114 H149 0.949 . S
C115 C114 1.339 . S
C115 C116 1.439 . S
C115 H150 0.950 . S
C116 N112 1.383 . S
C116 C115 1.439 . S
C116 C145 1.392 . S
N117 Co111 2.008 . S
N117 C118 1.376 . S
N117 C121 1.374 1_455 S
C118 N117 1.376 . S
C118 C119 1.443 . S
C118 C145 1.389 . S
C119 C118 1.443 . S
C119 C120 1.340 1_455 S
C119 H151 0.951 . S
C120 C119 1.340 1_655 S
C120 C121 1.439 . S
C120 H152 0.950 . S
C121 N117 1.374 1_655 S
C121 C120 1.439 . S
C121 C146 1.395 . S
N122 Co111 1.995 1_655 S
N122 C123 1.376 . S
N122 C126 1.383 . S
C123 N122 1.376 . S
C123 C124 1.446 . S
C123 C146 1.391 . S
C124 C123 1.446 . S
C124 C125 1.339 . S
C124 H153 0.949 . S
C125 C124 1.339 . S
C125 C126 1.439 . S
C125 H154 0.950 . S
C126 N122 1.383 . S
C126 C125 1.439 . S
C126 C144 1.392 . S
N127 Co111 2.282 . S
N127 C130 1.332 1_455 S
N127 C132 1.332 . S
C128 C129 1.386 1_455 S
C128 C131 1.388 . S
C129 C128 1.386 1_655 S
C129 C130 1.382 . S
C129 H155 0.950 . S
C130 N127 1.332 1_655 S
C130 C129 1.382 . S
C130 H141 0.952 . S
C131 C128 1.388 . S
C131 C132 1.382 . S
C131 H156 0.950 . S
C132 N127 1.332 . S
C132 C131 1.382 . S
C132 H142 0.948 . S
N133 Co111 2.282 . S
N133 C137 1.332 . S
N133 C138 1.332 1_455 S
C134 C135 1.388 1_655 S
C134 C138 1.382 . S
C134 H157 0.950 . S
C135 C134 1.388 1_455 S
C135 C136 1.386 . S
C136 C135 1.386 . S
C136 C137 1.382 . S
C136 H158 0.950 . S
C137 N133 1.332 . S
C137 C136 1.382 . S
C137 H139 0.952 . S
C138 N133 1.332 1_655 S
C138 C134 1.382 . S
C138 H140 0.948 . S
H139 C137 0.952 . S
H140 C138 0.948 . S
H141 C130 0.952 . S
H142 C132 0.948 . S
C143 C109 1.395 . S
C143 C113 1.391 . S
C144 C106 1.389 1_655 S
C144 C126 1.392 . S
C145 C116 1.392 . S
C145 C118 1.389 . S
C146 C121 1.395 . S
C146 C123 1.391 . S
H147 C107 0.951 . S
H148 C108 0.950 . S
H149 C114 0.949 . S
H150 C115 0.950 . S
H151 C119 0.951 . S
H152 C120 0.950 . S
H153 C124 0.949 . S
H154 C125 0.950 . S
H155 C129 0.950 . S
H156 C131 0.950 . S
H157 C134 0.950 . S
H158 C136 0.950 . S
C159 C160 1.443 . S
C159 N163 1.376 . S
C159 C197 1.389 1_545 S
C160 C159 1.443 . S
C160 C161 1.340 . S
C160 H200 0.951 . S
C161 C160 1.340 . S
C161 C162 1.439 . S
C161 H201 0.950 . S
C162 C161 1.439 . S
C162 N163 1.374 . S
C162 C196 1.395 . S
N163 C159 1.376 . S
N163 C162 1.374 . S
N163 Co164 2.008 . S
Co164 N163 2.008 . S
Co164 N165 1.995 . S
Co164 N170 2.008 1_554 S
Co164 N175 1.995 1_545 S
Co164 N180 2.282 . S
Co164 N186 2.282 . S
N165 Co164 1.995 . S
N165 C166 1.376 . S
N165 C169 1.383 1_554 S
C166 N165 1.376 . S
C166 C167 1.446 . S
C166 C196 1.391 . S
C167 C166 1.446 . S
C167 C168 1.339 1_554 S
C167 H202 0.949 . S
C168 C167 1.339 1_556 S
C168 C169 1.439 . S
C168 H203 0.950 . S
C169 N165 1.383 1_556 S
C169 C168 1.439 . S
C169 C198 1.392 . S
N170 Co164 2.008 1_556 S
N170 C171 1.376 . S
N170 C174 1.374 1_545 S
C171 N170 1.376 . S
C171 C172 1.443 . S
C171 C198 1.389 . S
C172 C171 1.443 . S
C172 C173 1.340 1_545 S
C172 H204 0.951 . S
C173 C172 1.340 1_565 S
C173 C174 1.439 . S
C173 H205 0.950 . S
C174 N170 1.374 1_565 S
C174 C173 1.439 . S
C174 C199 1.395 . S
N175 Co164 1.995 1_565 S
N175 C176 1.376 . S
N175 C179 1.383 . S
C176 N175 1.376 . S
C176 C177 1.446 . S
C176 C199 1.391 1_554 S
C177 C176 1.446 . S
C177 C178 1.339 . S
C177 H206 0.949 . S
C178 C177 1.339 . S
C178 C179 1.439 . S
C178 H207 0.950 . S
C179 N175 1.383 . S
C179 C178 1.439 . S
C179 C197 1.392 . S
N180 Co164 2.282 . S
N180 C183 1.332 1_545 S
N180 C185 1.332 . S
C181 C182 1.386 1_545 S
C181 C184 1.388 . S
C182 C181 1.386 1_565 S
C182 C183 1.382 . S
C182 H208 0.950 . S
C183 N180 1.332 1_565 S
C183 C182 1.382 . S
C183 H194 0.952 . S
C184 C181 1.388 . S
C184 C185 1.382 . S
C184 H209 0.950 . S
C185 N180 1.332 . S
C185 C184 1.382 . S
C185 H195 0.948 . S
N186 Co164 2.282 . S
N186 C190 1.332 . S
N186 C191 1.332 1_545 S
C187 C188 1.388 1_565 S
C187 C191 1.382 . S
C187 H210 0.950 . S
C188 C187 1.388 1_545 S
C188 C189 1.386 . S
C189 C188 1.386 . S
C189 C190 1.382 . S
C189 H211 0.950 . S
C190 N186 1.332 . S
C190 C189 1.382 . S
C190 H192 0.952 . S
C191 N186 1.332 1_565 S
C191 C187 1.382 . S
C191 H193 0.948 . S
H192 C190 0.952 . S
H193 C191 0.948 . S
H194 C183 0.952 . S
H195 C185 0.948 . S
C196 C162 1.395 . S
C196 C166 1.391 . S
C197 C159 1.389 1_565 S
C197 C179 1.392 . S
C198 C169 1.392 . S
C198 C171 1.389 . S
C199 C174 1.395 . S
C199 C176 1.391 1_556 S
H200 C160 0.951 . S
H201 C161 0.950 . S
H202 C167 0.949 . S
H203 C168 0.950 . S
H204 C172 0.951 . S
H205 C173 0.950 . S
H206 C177 0.949 . S
H207 C178 0.950 . S
H208 C182 0.950 . S
H209 C184 0.950 . S
H210 C187 0.950 . S
H211 C189 0.950 . S
C212 C213 1.443 . S
C212 N216 1.376 . S
C212 C250 1.389 . S
C213 C212 1.443 . S
C213 C214 1.340 . S
C213 H253 0.951 . S
C214 C213 1.340 . S
C214 C215 1.439 . S
C214 H254 0.950 . S
C215 C214 1.439 . S
C215 N216 1.374 . S
C215 C249 1.395 . S
N216 C212 1.376 . S
N216 C215 1.374 . S
N216 Co217 2.008 . S
Co217 N216 2.008 . S
Co217 N218 1.995 . S
Co217 N223 2.008 . S
Co217 N228 1.995 . S
Co217 N233 2.282 . S
Co217 N239 2.282 . S
N218 Co217 1.995 . S
N218 C219 1.376 . S
N218 C222 1.383 . S
C219 N218 1.376 . S
C219 C220 1.446 . S
C219 C249 1.391 . S
C220 C219 1.446 . S
C220 C221 1.339 . S
C220 H255 0.949 . S
C221 C220 1.339 . S
C221 C222 1.439 . S
C221 H256 0.950 . S
C222 N218 1.383 . S
C222 C221 1.439 . S
C222 C251 1.392 . S
N223 Co217 2.008 . S
N223 C224 1.376 . S
N223 C227 1.374 . S
C224 N223 1.376 . S
C224 C225 1.443 . S
C224 C251 1.389 . S
C225 C224 1.443 . S
C225 C226 1.340 . S
C225 H257 0.951 . S
C226 C225 1.340 . S
C226 C227 1.439 . S
C226 H258 0.950 . S
C227 N223 1.374 . S
C227 C226 1.439 . S
C227 C252 1.395 . S
N228 Co217 1.995 . S
N228 C229 1.376 . S
N228 C232 1.383 . S
C229 N228 1.376 . S
C229 C230 1.446 . S
C229 C252 1.391 . S
C230 C229 1.446 . S
C230 C231 1.339 . S
C230 H259 0.949 . S
C231 C230 1.339 . S
C231 C232 1.439 . S
C231 H260 0.950 . S
C232 N228 1.383 . S
C232 C231 1.439 . S
C232 C250 1.392 . S
N233 Co217 2.282 . S
N233 C236 1.332 . S
N233 C238 1.332 . S
C234 C235 1.386 . S
C234 C237 1.388 . S
C235 C234 1.386 . S
C235 C236 1.382 . S
C235 H261 0.950 . S
C236 N233 1.332 . S
C236 C235 1.382 . S
C236 H247 0.952 . S
C237 C234 1.388 . S
C237 C238 1.382 . S
C237 H262 0.950 . S
C238 N233 1.332 . S
C238 C237 1.382 . S
C238 H248 0.948 . S
N239 Co217 2.282 . S
N239 C243 1.332 . S
N239 C244 1.332 1_655 S
C240 C241 1.388 . S
C240 C244 1.382 . S
C240 H263 0.950 . S
C241 C240 1.388 . S
C241 C242 1.386 . S
C242 C241 1.386 . S
C242 C243 1.382 1_455 S
C242 H264 0.950 . S
C243 N239 1.332 . S
C243 C242 1.382 1_655 S
C243 H245 0.952 . S
C244 N239 1.332 1_455 S
C244 C240 1.382 . S
C244 H246 0.948 . S
H245 C243 0.952 . S
H246 C244 0.948 . S
H247 C236 0.952 . S
H248 C238 0.948 . S
C249 C215 1.395 . S
C249 C219 1.391 . S
C250 C212 1.389 . S
C250 C232 1.392 . S
C251 C222 1.392 . S
C251 C224 1.389 . S
C252 C227 1.395 . S
C252 C229 1.391 . S
H253 C213 0.951 . S
H254 C214 0.950 . S
H255 C220 0.949 . S
H256 C221 0.950 . S
H257 C225 0.951 . S
H258 C226 0.950 . S
H259 C230 0.949 . S
H260 C231 0.950 . S
H261 C235 0.950 . S
H262 C237 0.950 . S
H263 C240 0.950 . S
H264 C242 0.950 . S
C265 C266 1.443 . S
C265 N269 1.376 . S
C265 C303 1.389 . S
C266 C265 1.443 . S
C266 C267 1.340 . S
C266 H306 0.951 . S
C267 C266 1.340 . S
C267 C268 1.439 . S
C267 H307 0.950 . S
C268 C267 1.439 . S
C268 N269 1.374 . S
C268 C302 1.395 . S
N269 C265 1.376 . S
N269 C268 1.374 . S
N269 Co270 2.008 . S
Co270 N269 2.008 . S
Co270 N271 1.995 . S
Co270 N276 2.008 . S
Co270 N281 1.995 . S
Co270 N286 2.282 . S
Co270 N292 2.282 . S
N271 Co270 1.995 . S
N271 C272 1.376 . S
N271 C275 1.383 . S
C272 N271 1.376 . S
C272 C273 1.446 . S
C272 C302 1.391 . S
C273 C272 1.446 . S
C273 C274 1.339 . S
C273 H308 0.949 . S
C274 C273 1.339 . S
C274 C275 1.439 . S
C274 H309 0.950 . S
C275 N271 1.383 . S
C275 C274 1.439 . S
C275 C304 1.392 . S
N276 Co270 2.008 . S
N276 C277 1.376 . S
N276 C280 1.374 . S
C277 N276 1.376 . S
C277 C278 1.443 . S
C277 C304 1.389 . S
C278 C277 1.443 . S
C278 C279 1.340 . S
C278 H310 0.951 . S
C279 C278 1.340 . S
C279 C280 1.439 . S
C279 H311 0.950 . S
C280 N276 1.374 . S
C280 C279 1.439 . S
C280 C305 1.395 . S
N281 Co270 1.995 . S
N281 C282 1.376 . S
N281 C285 1.383 . S
C282 N281 1.376 . S
C282 C283 1.446 . S
C282 C305 1.391 . S
C283 C282 1.446 . S
C283 C284 1.339 . S
C283 H312 0.949 . S
C284 C283 1.339 . S
C284 C285 1.439 . S
C284 H313 0.950 . S
C285 N281 1.383 . S
C285 C284 1.439 . S
C285 C303 1.392 . S
N286 Co270 2.282 . S
N286 C289 1.332 . S
N286 C291 1.332 . S
C287 C288 1.386 . S
C287 C290 1.388 . S
C288 C287 1.386 . S
C288 C289 1.382 . S
C288 H314 0.950 . S
C289 N286 1.332 . S
C289 C288 1.382 . S
C289 H300 0.952 . S
C290 C287 1.388 . S
C290 C291 1.382 . S
C290 H315 0.950 . S
C291 N286 1.332 . S
C291 C290 1.382 . S
C291 H301 0.948 . S
N292 Co270 2.282 . S
N292 C296 1.332 . S
N292 C297 1.332 1_565 S
C293 C294 1.388 . S
C293 C297 1.382 . S
C293 H316 0.950 . S
C294 C293 1.388 . S
C294 C295 1.386 . S
C295 C294 1.386 . S
C295 C296 1.382 1_545 S
C295 H317 0.950 . S
C296 N292 1.332 . S
C296 C295 1.382 1_565 S
C296 H298 0.952 . S
C297 N292 1.332 1_545 S
C297 C293 1.382 . S
C297 H299 0.948 . S
H298 C296 0.952 . S
H299 C297 0.948 . S
H300 C289 0.952 . S
H301 C291 0.948 . S
C302 C268 1.395 . S
C302 C272 1.391 . S
C303 C265 1.389 . S
C303 C285 1.392 . S
C304 C275 1.392 . S
C304 C277 1.389 . S
C305 C280 1.395 . S
C305 C282 1.391 . S
H306 C266 0.951 . S
H307 C267 0.950 . S
H308 C273 0.949 . S
H309 C274 0.950 . S
H310 C278 0.951 . S
H311 C279 0.950 . S
H312 C283 0.949 . S
H313 C284 0.950 . S
H314 C288 0.950 . S
H315 C290 0.950 . S
H316 C293 0.950 . S
H317 C295 0.950 . S
H318 C324 0.930 . S
H319 C327 0.930 . S
H320 C328 0.930 . S
H321 C329 0.930 . S
H322 C332 0.930 . S
H323 C333 0.930 . S
C324 H318 0.930 . S
C324 C325 1.355 . S
C324 C326 1.415 . S
C325 C324 1.355 . S
C325 C327 1.419 . S
C326 C324 1.415 . S
C326 C331 1.425 . S
C326 C333 1.409 . S
C327 H319 0.930 . S
C327 C325 1.419 . S
C327 C328 1.362 . S
C328 H320 0.930 . S
C328 C327 1.362 . S
C328 C331 1.409 . S
C329 H321 0.930 . S
C329 C330 1.355 . S
C329 C331 1.415 . S
C330 C329 1.355 . S
C330 C332 1.419 . S
C331 C326 1.425 . S
C331 C328 1.409 . S
C331 C329 1.415 . S
C332 H322 0.930 . S
C332 C330 1.419 . S
C332 C333 1.362 . S
C333 H323 0.930 . S
C333 C326 1.409 . S
C333 C332 1.362 . S
H334 C340 0.930 . S
H335 C343 0.930 . S
H336 C344 0.930 . S
H337 C345 0.930 . S
H338 C348 0.930 . S
H339 C349 0.930 . S
C340 H334 0.930 . S
C340 C341 1.355 . S
C340 C342 1.415 . S
C341 C340 1.355 . S
C341 C343 1.419 . S
C342 C340 1.415 . S
C342 C347 1.425 . S
C342 C349 1.409 . S
C343 H335 0.930 . S
C343 C341 1.419 . S
C343 C344 1.362 . S
C344 H336 0.930 . S
C344 C343 1.362 . S
C344 C347 1.409 . S
C345 H337 0.930 . S
C345 C346 1.355 . S
C345 C347 1.415 . S
C346 C345 1.355 . S
C346 C348 1.419 . S
C347 C342 1.425 . S
C347 C344 1.409 . S
C347 C345 1.415 . S
C348 H338 0.930 . S
C348 C346 1.419 . S
C348 C349 1.362 . S
C349 H339 0.930 . S
C349 C342 1.409 . S
C349 C348 1.362 . S
H350 C356 0.930 . S
H351 C359 0.930 . S
H352 C360 0.930 . S
H353 C361 0.930 . S
H354 C364 0.930 . S
H355 C365 0.930 . S
C356 H350 0.930 . S
C356 C357 1.355 . S
C356 C358 1.415 . S
C357 C356 1.355 . S
C357 C359 1.419 . S
C358 C356 1.415 . S
C358 C363 1.425 . S
C358 C365 1.409 . S
C359 H351 0.930 . S
C359 C357 1.419 . S
C359 C360 1.362 . S
C360 H352 0.930 . S
C360 C359 1.362 . S
C360 C363 1.409 . S
C361 H353 0.930 . S
C361 C362 1.355 . S
C361 C363 1.415 . S
C362 C361 1.355 . S
C362 C364 1.419 . S
C363 C358 1.425 . S
C363 C360 1.409 . S
C363 C361 1.415 . S
C364 H354 0.930 . S
C364 C362 1.419 . S
C364 C365 1.362 . S
C365 H355 0.930 . S
C365 C358 1.409 . S
C365 C364 1.362 . S
H366 C372 0.930 . S
H367 C375 0.930 . S
H368 C376 0.930 . S
H369 C377 0.930 . S
H370 C380 0.930 . S
H371 C381 0.930 . S
C372 H366 0.930 . S
C372 C373 1.355 . S
C372 C374 1.415 . S
C373 C372 1.355 . S
C373 C375 1.419 . S
C374 C372 1.415 . S
C374 C379 1.425 . S
C374 C381 1.409 . S
C375 H367 0.930 . S
C375 C373 1.419 . S
C375 C376 1.362 . S
C376 H368 0.930 . S
C376 C375 1.362 . S
C376 C379 1.409 . S
C377 H369 0.930 . S
C377 C378 1.355 . S
C377 C379 1.415 . S
C378 C377 1.355 . S
C378 C380 1.419 . S
C379 C374 1.425 . S
C379 C376 1.409 . S
C379 C377 1.415 . S
C380 H370 0.930 . S
C380 C378 1.419 . S
C380 C381 1.362 . S
C381 H371 0.930 . S
C381 C374 1.409 . S
C381 C380 1.362 . S
H382 C388 0.930 . S
H383 C391 0.930 . S
H384 C392 0.930 . S
H385 C393 0.930 . S
H386 C396 0.930 . S
H387 C397 0.930 . S
C388 H382 0.930 . S
C388 C389 1.355 . S
C388 C390 1.415 . S
C389 C388 1.355 . S
C389 C391 1.419 . S
C390 C388 1.415 . S
C390 C395 1.425 . S
C390 C397 1.409 . S
C391 H383 0.930 . S
C391 C389 1.419 . S
C391 C392 1.362 . S
C392 H384 0.930 . S
C392 C391 1.362 . S
C392 C395 1.409 . S
C393 H385 0.930 . S
C393 C394 1.355 1_455 S
C393 C395 1.415 . S
C394 C393 1.355 1_655 S
C394 C396 1.419 . S
C395 C390 1.425 . S
C395 C392 1.409 . S
C395 C393 1.415 . S
C396 H386 0.930 . S
C396 C394 1.419 . S
C396 C397 1.362 1_655 S
C397 H387 0.930 . S
C397 C390 1.409 . S
C397 C396 1.362 1_455 S
H398 C404 0.930 . S
H399 C407 0.930 . S
H400 C408 0.930 . S
H401 C409 0.930 . S
H402 C412 0.930 . S
H403 C413 0.930 . S
C404 H398 0.930 . S
C404 C405 1.355 . S
C404 C406 1.415 . S
C405 C404 1.355 . S
C405 C407 1.419 . S
C406 C404 1.415 . S
C406 C411 1.425 . S
C406 C413 1.409 1_545 S
C407 H399 0.930 . S
C407 C405 1.419 . S
C407 C408 1.362 . S
C408 H400 0.930 . S
C408 C407 1.362 . S
C408 C411 1.409 . S
C409 H401 0.930 . S
C409 C410 1.355 1_545 S
C409 C411 1.415 . S
C410 C409 1.355 1_565 S
C410 C412 1.419 . S
C411 C406 1.425 . S
C411 C408 1.409 . S
C411 C409 1.415 . S
C412 H402 0.930 . S
C412 C410 1.419 . S
C412 C413 1.362 . S
C413 H403 0.930 . S
C413 C406 1.409 1_565 S
C413 C412 1.362 . S
H414 C420 0.930 . S
H415 C423 0.930 . S
H416 C424 0.930 . S
H417 C425 0.930 . S
H418 C428 0.930 . S
H419 C429 0.930 . S
C420 H414 0.930 . S
C420 C421 1.355 . S
C420 C422 1.415 . S
C421 C420 1.355 . S
C421 C423 1.419 . S
C422 C420 1.415 . S
C422 C427 1.425 . S
C422 C429 1.409 . S
C423 H415 0.930 . S
C423 C421 1.419 . S
C423 C424 1.362 . S
C424 H416 0.930 . S
C424 C423 1.362 . S
C424 C427 1.409 . S
C425 H417 0.930 . S
C425 C426 1.355 . S
C425 C427 1.415 . S
C426 C425 1.355 . S
C426 C428 1.419 . S
C427 C422 1.425 . S
C427 C424 1.409 . S
C427 C425 1.415 . S
C428 H418 0.930 . S
C428 C426 1.419 . S
C428 C429 1.362 . S
C429 H419 0.930 . S
C429 C422 1.409 . S
C429 C428 1.362 . S
H430 C436 0.930 . S
H431 C439 0.930 . S
H432 C440 0.930 . S
H433 C441 0.930 . S
H434 C444 0.930 . S
H435 C445 0.930 . S
C436 H430 0.930 . S
C436 C437 1.355 . S
C436 C438 1.415 . S
C437 C436 1.355 . S
C437 C439 1.419 . S
C438 C436 1.415 . S
C438 C443 1.425 . S
C438 C445 1.409 . S
C439 H431 0.930 . S
C439 C437 1.419 . S
C439 C440 1.362 . S
C440 H432 0.930 . S
C440 C439 1.362 . S
C440 C443 1.409 . S
C441 H433 0.930 . S
C441 C442 1.355 . S
C441 C443 1.415 . S
C442 C441 1.355 . S
C442 C444 1.419 . S
C443 C438 1.425 . S
C443 C440 1.409 . S
C443 C441 1.415 . S
C444 H434 0.930 . S
C444 C442 1.419 . S
C444 C445 1.362 . S
C445 H435 0.930 . S
C445 C438 1.409 . S
C445 C444 1.362 . S
H446 C452 0.930 . S
H447 C455 0.930 . S
H448 C456 0.930 . S
H449 C457 0.930 . S
H450 C460 0.930 . S
H451 C461 0.930 . S
C452 H446 0.930 . S
C452 C453 1.355 . S
C452 C454 1.415 . S
C453 C452 1.355 . S
C453 C455 1.419 . S
C454 C452 1.415 . S
C454 C459 1.425 . S
C454 C461 1.409 . S
C455 H447 0.930 . S
C455 C453 1.419 . S
C455 C456 1.362 . S
C456 H448 0.930 . S
C456 C455 1.362 . S
C456 C459 1.409 . S
C457 H449 0.930 . S
C457 C458 1.355 . S
C457 C459 1.415 . S
C458 C457 1.355 . S
C458 C460 1.419 . S
C459 C454 1.425 . S
C459 C456 1.409 . S
C459 C457 1.415 . S
C460 H450 0.930 . S
C460 C458 1.419 . S
C460 C461 1.362 . S
C461 H451 0.930 . S
C461 C454 1.409 . S
C461 C460 1.362 . S
H462 C468 0.930 . S
H463 C471 0.930 . S
H464 C472 0.930 . S
H465 C473 0.930 . S
H466 C476 0.930 . S
H467 C477 0.930 . S
C468 H462 0.930 . S
C468 C469 1.355 1_556 S
C468 C470 1.416 . S
C469 C468 1.355 1_554 S
C469 C471 1.419 . S
C470 C468 1.416 . S
C470 C475 1.416 1_556 S
C470 C477 1.417 . S
C471 H463 0.930 . S
C471 C469 1.419 . S
C471 C472 1.362 . S
C472 H464 0.930 . S
C472 C471 1.362 . S
C472 C475 1.409 . S
C473 H465 0.930 . S
C473 C474 1.355 . S
C473 C475 1.415 . S
C474 C473 1.355 . S
C474 C476 1.419 1_554 S
C475 C470 1.416 1_554 S
C475 C472 1.409 . S
C475 C473 1.415 . S
C476 H466 0.930 . S
C476 C474 1.419 1_556 S
C476 C477 1.362 . S
C477 H467 0.930 . S
C477 C470 1.417 . S
C477 C476 1.362 . S
H478 C484 0.930 . S
H479 C487 0.930 . S
H480 C488 0.930 . S
H481 C489 0.930 . S
H482 C492 0.930 . S
H483 C493 0.930 . S
C484 H478 0.930 . S
C484 C485 1.355 . S
C484 C486 1.415 . S
C485 C484 1.355 . S
C485 C487 1.419 . S
C486 C484 1.415 . S
C486 C491 1.425 . S
C486 C493 1.409 . S
C487 H479 0.930 . S
C487 C485 1.419 . S
C487 C488 1.362 . S
C488 H480 0.930 . S
C488 C487 1.362 . S
C488 C491 1.409 . S
C489 H481 0.930 . S
C489 C490 1.355 . S
C489 C491 1.415 . S
C490 C489 1.355 . S
C490 C492 1.419 . S
C491 C486 1.425 . S
C491 C488 1.409 . S
C491 C489 1.415 . S
C492 H482 0.930 . S
C492 C490 1.419 . S
C492 C493 1.362 . S
C493 H483 0.930 . S
C493 C486 1.409 . S
C493 C492 1.362 . S
H494 C500 0.930 . S
H495 C503 0.930 . S
H496 C504 0.930 . S
H497 C505 0.930 . S
H498 C508 0.930 1_655 S
H499 C509 0.930 . S
C500 H494 0.930 . S
C500 C501 1.355 . S
C500 C502 1.415 . S
C501 C500 1.355 . S
C501 C503 1.419 . S
C502 C500 1.415 . S
C502 C507 1.425 . S
C502 C509 1.409 . S
C503 H495 0.930 . S
C503 C501 1.419 . S
C503 C504 1.362 . S
C504 H496 0.930 . S
C504 C503 1.362 . S
C504 C507 1.409 . S
C505 H497 0.930 . S
C505 C506 1.355 . S
C505 C507 1.415 . S
C506 C505 1.355 . S
C506 C508 1.419 . S
C507 C502 1.425 . S
C507 C504 1.409 . S
C507 C505 1.415 . S
C508 H498 0.930 1_455 S
C508 C506 1.419 . S
C508 C509 1.362 . S
C509 H499 0.930 . S
C509 C502 1.409 . S
C509 C508 1.362 . S
C325 C38 1.914 . S
C330 C92 1.884 . S
C341 C91 1.922 . S
C346 C145 1.832 . S
C357 C198 1.835 . S
C362 C144 1.912 . S
C373 C197 1.926 . S
C378 C251 1.867 . S
C389 C304 1.835 . S
C394 C250 1.923 . S
C405 C39 1.845 . S
C410 C303 1.926 . S
C421 C29 1.599 . S
C426 C188 1.594 1_455 S
C437 C241 1.645 1_545 S
C442 C82 1.659 . S
C453 C135 1.678 . S
C458 C294 1.668 . S
C469 C181 1.910 . S
C474 C22 1.923 . S
C485 C234 1.939 . S
C490 C75 1.946 . S
C501 C287 1.946 . S
C506 C128 1.946 . S
