# Generated by pormake.
# Topology ecn, (8)-cn, num edge types: 1
# Building blocks:
#     Node 0, Type 0, BuildingBlock: TAGTUT_clean_sbu_1, # of connection points: 8
#     Node 1, Type 0, BuildingBlock: TAGTUT_clean_sbu_1, # of connection points: 8
#     Node 2, Type 0, BuildingBlock: TAGTUT_clean_sbu_1, # of connection points: 8
#     Node 3, Type 0, BuildingBlock: TAGTUT_clean_sbu_1, # of connection points: 8
#     Node 4, Type 0, BuildingBlock: TAGTUT_clean_sbu_1, # of connection points: 8
#     Node 5, Type 0, BuildingBlock: TAGTUT_clean_sbu_1, # of connection points: 8
#     Node 6, Type 0, BuildingBlock: TAGTUT_clean_sbu_1, # of connection points: 8
#     Node 7, Type 0, BuildingBlock: TAGTUT_clean_sbu_1, # of connection points: 8
#     Node 8, Type 0, BuildingBlock: TAGTUT_clean_sbu_1, # of connection points: 8
#     Edge 9, Type (0, 0), BuildingBlock: KIFKEQ_clean_linker_1, # of connection points: 2
#     Edge 10, Type (0, 0), BuildingBlock: KIFKEQ_clean_linker_1, # of connection points: 2
#     Edge 11, Type (0, 0), BuildingBlock: KIFKEQ_clean_linker_1, # of connection points: 2
#     Edge 12, Type (0, 0), BuildingBlock: KIFKEQ_clean_linker_1, # of connection points: 2
#     Edge 13, Type (0, 0), BuildingBlock: KIFKEQ_clean_linker_1, # of connection points: 2
#     Edge 14, Type (0, 0), BuildingBlock: KIFKEQ_clean_linker_1, # of connection points: 2
#     Edge 15, Type (0, 0), BuildingBlock: KIFKEQ_clean_linker_1, # of connection points: 2
#     Edge 16, Type (0, 0), BuildingBlock: KIFKEQ_clean_linker_1, # of connection points: 2
#     Edge 17, Type (0, 0), BuildingBlock: KIFKEQ_clean_linker_1, # of connection points: 2
#     Edge 18, Type (0, 0), BuildingBlock: KIFKEQ_clean_linker_1, # of connection points: 2
#     Edge 19, Type (0, 0), BuildingBlock: KIFKEQ_clean_linker_1, # of connection points: 2
#     Edge 20, Type (0, 0), BuildingBlock: KIFKEQ_clean_linker_1, # of connection points: 2
#     Edge 21, Type (0, 0), BuildingBlock: KIFKEQ_clean_linker_1, # of connection points: 2
#     Edge 22, Type (0, 0), BuildingBlock: KIFKEQ_clean_linker_1, # of connection points: 2
#     Edge 23, Type (0, 0), BuildingBlock: KIFKEQ_clean_linker_1, # of connection points: 2
#     Edge 24, Type (0, 0), BuildingBlock: KIFKEQ_clean_linker_1, # of connection points: 2
#     Edge 25, Type (0, 0), BuildingBlock: KIFKEQ_clean_linker_1, # of connection points: 2
#     Edge 26, Type (0, 0), BuildingBlock: KIFKEQ_clean_linker_1, # of connection points: 2
#     Edge 27, Type (0, 0), BuildingBlock: KIFKEQ_clean_linker_1, # of connection points: 2
#     Edge 28, Type (0, 0), BuildingBlock: KIFKEQ_clean_linker_1, # of connection points: 2
#     Edge 29, Type (0, 0), BuildingBlock: KIFKEQ_clean_linker_1, # of connection points: 2
#     Edge 30, Type (0, 0), BuildingBlock: KIFKEQ_clean_linker_1, # of connection points: 2
#     Edge 31, Type (0, 0), BuildingBlock: KIFKEQ_clean_linker_1, # of connection points: 2
#     Edge 32, Type (0, 0), BuildingBlock: KIFKEQ_clean_linker_1, # of connection points: 2
#     Edge 33, Type (0, 0), BuildingBlock: KIFKEQ_clean_linker_1, # of connection points: 2
#     Edge 34, Type (0, 0), BuildingBlock: KIFKEQ_clean_linker_1, # of connection points: 2
#     Edge 35, Type (0, 0), BuildingBlock: KIFKEQ_clean_linker_1, # of connection points: 2
#     Edge 36, Type (0, 0), BuildingBlock: KIFKEQ_clean_linker_1, # of connection points: 2
#     Edge 37, Type (0, 0), BuildingBlock: KIFKEQ_clean_linker_1, # of connection points: 2
#     Edge 38, Type (0, 0), BuildingBlock: KIFKEQ_clean_linker_1, # of connection points: 2
#     Edge 39, Type (0, 0), BuildingBlock: KIFKEQ_clean_linker_1, # of connection points: 2
#     Edge 40, Type (0, 0), BuildingBlock: KIFKEQ_clean_linker_1, # of connection points: 2
#     Edge 41, Type (0, 0), BuildingBlock: KIFKEQ_clean_linker_1, # of connection points: 2
#     Edge 42, Type (0, 0), BuildingBlock: KIFKEQ_clean_linker_1, # of connection points: 2
#     Edge 43, Type (0, 0), BuildingBlock: KIFKEQ_clean_linker_1, # of connection points: 2
#     Edge 44, Type (0, 0), BuildingBlock: KIFKEQ_clean_linker_1, # of connection points: 2
# Relax obj value: 0.102
# Max RMSD: 0.219
# Mean RMSD: 0.209
data_MOF--net-ecn--node1-TAGTUT_clean_sbu_1--edge1-KIFKEQ_clean_linker_1
_symmetry_space_group_name_H-M    P1
_symmetry_Int_Tables_number       1
_symmetry_cell_setting            triclinic
loop_
_symmetry_equiv_pos_as_xyz
'x, y, z'
_cell_length_a     51.897688
_cell_length_b     51.053957
_cell_length_c     15.104782
_cell_angle_alpha  89.959331
_cell_angle_beta   90.092448
_cell_angle_gamma 117.87556
loop_
_atom_site_label
_atom_site_type_symbol
_atom_site_fract_x
_atom_site_fract_y
_atom_site_fract_z
_atom_type_partial_charge
C0 C 1.01235 0.19446 0.01936 0.0
C1 C 0.04355 0.14281 0.17011 0.0
C2 C 0.13381 0.25085 0.25077 0.0
Mg3 Mg 0.05688 0.17121 -0.01526 0.0
O4 O 0.0818 0.20785 0.03559 0.0
Mg5 Mg 0.07127 0.21794 0.15305 0.0
Mg6 Mg 0.12307 0.21811 0.06256 0.0
O7 O 0.16446 0.2284 0.0891 0.0
Mg8 Mg 0.18928 0.26649 0.12947 0.0
Mg9 Mg 0.17568 0.21653 0.97524 0.0
C10 C 0.11318 0.19194 0.86265 0.0
C11 C 0.12788 0.15733 0.07561 0.0
O12 O 0.02772 0.20858 0.08666 0.0
O13 O 0.01922 0.17855 0.96881 0.0
O14 O 0.0498 0.1683 0.20312 0.0
O15 O 0.04743 0.13965 0.08818 0.0
O16 O 0.08559 0.17549 0.87353 0.0
O17 O 0.12974 0.20809 0.92476 0.0
C18 C 0.11629 0.2779 0.04711 0.0
O19 O 0.1321 0.26553 0.02698 0.0
O20 O 0.09336 0.26475 0.09521 0.0
O21 O 0.21952 0.22538 0.04807 0.0
O22 O 0.22464 0.25707 0.15876 0.0
O23 O 0.19756 0.2643 0.91683 0.0
C24 C 0.23276 0.24018 0.1178 0.0
O25 O 0.19927 0.29622 0.02015 0.0
O26 O 0.16087 0.26746 0.23276 0.0
C27 C 0.20317 0.29048 0.94074 0.0
O28 O 0.11731 0.22872 0.202 0.0
O29 O 0.11263 0.17038 0.09367 0.0
O30 O 0.15213 0.17016 0.0339 0.0
C31 C 0.7787 0.78491 0.09687 0.0
C32 C 0.72867 0.81801 0.93513 0.0
C33 C 0.83105 0.91506 0.88849 0.0
Mg34 Mg 0.75026 0.82639 0.12826 0.0
O35 O 0.78715 0.85389 0.08765 0.0
Mg36 Mg 0.80198 0.84729 0.97292 0.0
Mg37 Mg 0.7976 0.89654 0.07651 0.0
O38 O 0.80852 0.93984 0.06729 0.0
Mg39 Mg 0.84597 0.96678 0.03049 0.0
Mg40 Mg 0.79705 0.94459 0.19064 0.0
C41 C 0.76924 0.87705 0.27162 0.0
C42 C 0.7398 0.90554 0.06517 0.0
O43 O 0.7937 0.8008 0.03106 0.0
O44 O 0.76114 0.79102 0.14097 0.0
O45 O 0.75517 0.82623 0.91241 0.0
O46 O 0.72159 0.81854 0.01604 0.0
O47 O 0.75246 0.84972 0.25233 0.0
O48 O 0.78491 0.89587 0.21357 0.0
C49 C 0.85776 0.89139 0.09174 0.0
O50 O 0.84358 0.90488 0.11733 0.0
O51 O 0.84703 0.8697 0.03714 0.0
O52 O 0.80955 0.99256 0.15332 0.0
O53 O 0.84125 0.00709 0.03928 0.0
O54 O 0.8447 0.96354 0.24783 0.0
C55 C 0.8257 0.01194 0.09654 0.0
O56 O 0.87468 0.96915 0.13496 0.0
O57 O 0.8458 0.94253 0.91074 0.0
C58 C 0.87011 0.97021 0.21744 0.0
O59 O 0.81118 0.89584 0.93804 0.0
O60 O 0.75166 0.88981 0.03774 0.0
O61 O 0.75235 0.92621 0.12291 0.0
C62 C 0.2272 0.99792 0.95816 0.0
C63 C 0.19353 0.90751 0.86125 0.0
C64 C 0.09311 0.90968 0.80057 0.0
Mg65 Mg 0.19009 0.93499 0.03714 0.0
O66 O 0.1597 0.94085 -0.00924 0.0
Mg67 Mg 0.16144 0.95241 0.865 0.0
Mg68 Mg 0.11957 0.90646 -0.00926 0.0
O69 O 0.07946 0.87146 -0.00592 0.0
Mg70 Mg 0.04715 0.87403 0.95129 0.0
Mg71 Mg 0.07909 0.86085 0.12222 0.0
C72 C 0.14434 0.91016 0.19001 0.0
C73 C 0.12386 0.84561 0.00786 0.0
O74 O 0.20738 0.993 0.89946 0.0
O75 O 0.22485 0.97868 0.01619 0.0
O76 O 0.18416 0.92397 0.82338 0.0
O77 O 0.19488 0.90599 0.94538 0.0
O78 O 0.17142 0.92222 0.16894 0.0
O79 O 0.12409 0.90196 0.13241 0.0
C80 C 0.11585 0.96751 0.97305 0.0
O81 O 0.10549 0.94212 0.01096 0.0
O82 O 0.1366 0.97631 0.91604 0.0
O83 O 0.03488 0.81979 0.09354 0.0
O84 O 0.01416 0.8284 0.97345 0.0
O85 O 0.05325 0.88641 0.16664 0.0
C86 C 0.0142 0.81148 0.03631 0.0
O87 O 0.04041 0.9015 0.04299 0.0
O88 O 0.06647 0.8952 0.82641 0.0
C89 C 0.04212 0.90101 0.12697 0.0
O90 O 0.1148 0.91229 0.84779 0.0
O91 O 0.13353 0.87086 0.9696 0.0
O92 O 0.10433 0.83736 0.06868 0.0
C93 C 0.67492 0.52041 0.36035 0.0
C94 C 0.70828 0.47165 0.51262 0.0
C95 C 0.79737 0.58043 0.58728 0.0
Mg96 Mg 0.72062 0.49863 0.32545 0.0
O97 O 0.74498 0.53606 0.37328 0.0
Mg98 Mg 0.73465 0.54644 0.49066 0.0
Mg99 Mg 0.78661 0.54746 0.39899 0.0
O100 O 0.82827 0.55867 0.42448 0.0
Mg101 Mg 0.85274 0.59681 0.46511 0.0
Mg102 Mg 0.83962 0.54686 0.31082 0.0
C103 C 0.77654 0.52068 0.20022 0.0
C104 C 0.79281 0.48723 0.41238 0.0
O105 O 0.69053 0.53549 0.42603 0.0
O106 O 0.68204 0.50453 0.31047 0.0
O107 O 0.7143 0.49738 0.54301 0.0
O108 O 0.7121 0.46773 0.43117 0.0
O109 O 0.74916 0.50345 0.21276 0.0
O110 O 0.79319 0.53737 0.26135 0.0
C111 C 0.77819 0.6065 0.38211 0.0
O112 O 0.79455 0.59471 0.36219 0.0
O113 O 0.75547 0.59293 0.43078 0.0
O114 O 0.88371 0.55642 0.3831 0.0
O115 O 0.88844 0.58791 0.49393 0.0
O116 O 0.86109 0.59481 0.25232 0.0
C117 C 0.89686 0.57129 0.45281 0.0
O118 O 0.86258 0.62655 0.35598 0.0
O119 O 0.82434 0.59738 0.56911 0.0
C120 C 0.86662 0.62096 0.27655 0.0
O121 O 0.78105 0.5583 0.5383 0.0
O122 O 0.77722 0.49989 0.43107 0.0
O123 O 0.81687 0.50044 0.36985 0.0
C124 C 0.43968 0.11273 0.40311 0.0
C125 C 0.39427 0.15315 0.25962 0.0
C126 C 0.49303 0.25024 0.23021 0.0
Mg127 Mg 0.41416 0.15545 0.45117 0.0
O128 O 0.45256 0.18297 0.42272 0.0
Mg129 Mg 0.467 0.17983 0.30359 0.0
Mg130 Mg 0.46304 0.22593 0.42327 0.0
O131 O 0.47248 0.26872 0.42454 0.0
Mg132 Mg 0.50755 0.2992 0.38276 0.0
Mg133 Mg 0.45957 0.27009 0.54821 0.0
C134 C 0.42962 0.20121 0.60936 0.0
C135 C 0.40336 0.23225 0.41977 0.0
O136 O 0.45703 0.13155 0.34631 0.0
O137 O 0.4216 0.11759 0.44901 0.0
O138 O 0.42081 0.16115 0.23826 0.0
O139 O 0.38674 0.1523 0.34044 0.0
O140 O 0.41331 0.17507 0.57881 0.0
O141 O 0.44989 0.22154 0.56377 0.0
C142 C 0.52279 0.21959 0.42961 0.0
O143 O 0.50978 0.23403 0.4581 0.0
O144 O 0.51102 0.19867 0.37279 0.0
O145 O 0.46826 0.31721 0.51816 0.0
O146 O 0.49812 0.33651 0.40155 0.0
O147 O 0.50763 0.2908 0.60258 0.0
C148 C 0.48201 0.33833 0.46327 0.0
O149 O 0.53777 0.30319 0.48571 0.0
O150 O 0.50622 0.27773 0.25386 0.0
C151 C 0.53331 0.30112 0.56926 0.0
O152 O 0.47688 0.22954 0.28363 0.0
O153 O 0.4167 0.21871 0.38681 0.0
O154 O 0.41466 0.25116 0.48264 0.0
C155 C 0.89516 0.3273 0.2857 0.0
C156 C 0.8599 0.23922 0.16599 0.0
C157 C 0.76169 0.24132 0.11704 0.0
Mg158 Mg 0.85708 0.26231 0.34817 0.0
O159 O 0.82728 0.2709 0.31326 0.0
Mg160 Mg 0.82912 0.28498 0.18949 0.0
Mg161 Mg 0.78686 0.2369 0.311 0.0
O162 O 0.74685 0.20217 0.30928 0.0
Mg163 Mg 0.71501 0.20538 0.26461 0.0
Mg164 Mg 0.74596 0.18947 0.43499 0.0
C165 C 0.81237 0.23239 0.50234 0.0
C166 C 0.79048 0.17534 0.31614 0.0
O167 O 0.87532 0.3244 0.2292 0.0
O168 O 0.89261 0.30618 0.3367 0.0
O169 O 0.85156 0.25742 0.1349 0.0
O170 O 0.86076 0.23517 0.24886 0.0
O171 O 0.83886 0.24372 0.47539 0.0
O172 O 0.79134 0.22964 0.45244 0.0
C173 C 0.7837 0.29861 0.30495 0.0
O174 O 0.77307 0.27262 0.33914 0.0
O175 O 0.80457 0.3081 0.2483 0.0
O176 O 0.70148 0.14948 0.40179 0.0
O177 O 0.68135 0.1598 0.28342 0.0
O178 O 0.72086 0.21567 0.48186 0.0
C179 C 0.68094 0.14211 0.34451 0.0
O180 O 0.70856 0.23212 0.35955 0.0
O181 O 0.7347 0.22638 0.13902 0.0
C182 C 0.70996 0.23078 0.44355 0.0
O183 O 0.78253 0.24512 0.16979 0.0
O184 O 0.80021 0.20122 0.28189 0.0
O185 O 0.77094 0.16605 0.37708 0.0
C186 C 0.34285 0.85826 0.69303 0.0
C187 C 0.37574 0.80862 0.84239 0.0
C188 C 0.46661 0.91694 0.913 0.0
Mg189 Mg 0.38744 0.83519 0.65489 0.0
O190 O 0.41268 0.87243 0.70207 0.0
Mg191 Mg 0.40339 0.88365 0.81965 0.0
Mg192 Mg 0.45425 0.88305 0.72594 0.0
O193 O 0.49592 0.89381 0.74937 0.0
Mg194 Mg 0.52062 0.93247 0.78586 0.0
Mg195 Mg 0.50622 0.88131 0.63506 0.0
C196 C 0.44254 0.85592 0.52721 0.0
C197 C 0.45953 0.8225 0.74017 0.0
O198 O 0.35911 0.87344 0.7575 0.0
O199 O 0.34921 0.84184 0.64293 0.0
O200 O 0.38231 0.83453 0.87263 0.0
O201 O 0.37919 0.80445 0.76083 0.0
O202 O 0.41505 0.83942 0.54018 0.0
O203 O 0.45963 0.87203 0.58842 0.0
C204 C 0.44733 0.94279 0.70835 0.0
O205 O 0.46287 0.93017 0.68779 0.0
O206 O 0.42485 0.93007 0.75849 0.0
O207 O 0.55083 0.89115 0.70462 0.0
O208 O 0.55681 0.92416 0.81199 0.0
O209 O 0.52744 0.92874 0.57365 0.0
C210 C 0.56477 0.90696 0.7721 0.0
O211 O 0.52922 0.96131 0.67474 0.0
O212 O 0.49341 0.9338 0.89259 0.0
C213 C 0.53288 0.95504 0.59569 0.0
O214 O 0.44979 0.89471 0.86515 0.0
O215 O 0.44428 0.83549 0.75919 0.0
O216 O 0.48342 0.83528 0.69658 0.0
C217 C 0.11208 0.45136 0.75365 0.0
C218 C 0.06149 0.48481 0.59722 0.0
C219 C 0.15979 0.58506 0.56323 0.0
Mg220 Mg 0.0823 0.49103 0.78971 0.0
O221 O 0.11994 0.51939 0.75799 0.0
Mg222 Mg 0.13475 0.51539 0.64029 0.0
Mg223 Mg 0.12962 0.56197 0.75629 0.0
O224 O 0.13848 0.60455 0.75487 0.0
Mg225 Mg 0.17373 0.63475 0.71304 0.0
Mg226 Mg 0.12589 0.60644 0.87863 0.0
C227 C 0.09652 0.53811 0.94315 0.0
C228 C 0.06945 0.56708 0.75238 0.0
O229 O 0.12706 0.46833 0.68964 0.0
O230 O 0.09393 0.45618 0.79914 0.0
O231 O 0.08825 0.49426 0.57553 0.0
O232 O 0.05395 0.48397 0.67803 0.0
O233 O 0.08031 0.51184 0.91341 0.0
O234 O 0.11685 0.55825 0.89724 0.0
C235 C 0.1903 0.55752 0.76406 0.0
O236 O 0.1767 0.57147 0.7914 0.0
O237 O 0.17894 0.53619 0.70849 0.0
O238 O 0.13407 0.65312 0.84536 0.0
O239 O 0.16413 0.67201 0.72888 0.0
O240 O 0.17403 0.62797 0.93295 0.0
C241 C 0.14778 0.67395 0.78958 0.0
O242 O 0.20411 0.63965 0.81625 0.0
O243 O 0.17299 0.61262 0.58617 0.0
C244 C 0.19971 0.63818 0.89975 0.0
O245 O 0.14305 0.56457 0.61632 0.0
O246 O 0.0829 0.55355 0.7202 0.0
O247 O 0.08084 0.58654 0.81386 0.0
C248 C 0.56263 0.66415 0.61988 0.0
C249 C 0.52836 0.57362 0.52058 0.0
C250 C 0.42907 0.57724 0.45652 0.0
Mg251 Mg 0.5248 0.60106 0.69614 0.0
O252 O 0.49486 0.60753 0.64912 0.0
Mg253 Mg 0.4972 0.6194 0.52358 0.0
Mg254 Mg 0.45465 0.57338 0.64762 0.0
O255 O 0.41445 0.53862 0.64969 0.0
Mg256 Mg 0.38253 0.5416 0.60535 0.0
Mg257 Mg 0.41351 0.52839 0.77838 0.0
C258 C 0.47869 0.57657 0.84757 0.0
C259 C 0.45828 0.51217 0.66755 0.0
O260 O 0.54313 0.65966 0.56045 0.0
O261 O 0.5599 0.64458 0.67718 0.0
O262 O 0.51959 0.59052 0.48236 0.0
O263 O 0.5294 0.57197 0.60471 0.0
O264 O 0.50578 0.5881 0.8271 0.0
O265 O 0.45862 0.56899 0.78957 0.0
C266 C 0.45134 0.63472 0.62963 0.0
O267 O 0.44069 0.60919 0.6667 0.0
O268 O 0.47241 0.6436 0.57372 0.0
O269 O 0.36924 0.48767 0.7489 0.0
O270 O 0.34909 0.49621 0.6273 0.0
O271 O 0.38811 0.55471 0.81987 0.0
C272 C 0.34879 0.4794 0.69093 0.0
O273 O 0.37574 0.56946 0.69491 0.0
O274 O 0.40235 0.56283 0.48147 0.0
C275 C 0.37719 0.56929 0.77896 0.0
O276 O 0.45054 0.57948 0.50424 0.0
O277 O 0.46828 0.5373 0.62823 0.0
O278 O 0.43857 0.50433 0.72771 0.0
H279 H 0.24456 0.2418 0.29237 0.0
H280 H 0.27356 0.22729 0.03819 0.0
H281 H 0.2826 0.23523 0.3653 0.0
H282 H 0.31343 0.22243 0.11134 0.0
H283 H 0.37245 0.19694 0.27876 0.0
H284 H 0.3298 0.19553 0.20499 0.0
H285 H 0.33184 0.26141 0.38865 0.0
H286 H 0.37265 0.26131 0.46449 0.0
C287 C 0.25945 0.23764 0.25176 0.0
C288 C 0.25636 0.23565 0.15924 0.0
C289 C 0.28148 0.23397 0.29374 0.0
C290 C 0.30177 0.22898 0.24457 0.0
C291 C 0.29824 0.22614 0.15175 0.0
C292 C 0.27555 0.22916 0.10958 0.0
C293 C 0.36326 0.21051 0.30452 0.0
C294 C 0.37586 0.22887 0.37858 0.0
C295 C 0.33903 0.21007 0.26134 0.0
C296 C 0.32704 0.22825 0.29066 0.0
C297 C 0.33971 0.24644 0.36496 0.0
C298 C 0.36346 0.24653 0.40857 0.0
H299 H 0.80273 0.17081 0.14393 0.0
H300 H 0.79906 0.13309 0.40239 0.0
H301 H 0.81621 0.13509 0.07841 0.0
H302 H 0.81283 0.09755 0.33711 0.0
H303 H 0.86049 0.05363 0.21115 0.0
H304 H 0.85582 0.09698 0.25923 0.0
H305 H 0.79027 0.07879 0.05836 0.0
H306 H 0.79509 0.03534 0.01057 0.0
C307 C 0.80514 0.15505 0.18678 0.0
C308 C 0.80015 0.15479 0.27833 0.0
C309 C 0.81269 0.13457 0.1492 0.0
C310 C 0.8158 0.11374 0.20272 0.0
C311 C 0.81108 0.11372 0.29447 0.0
C312 C 0.80304 0.13387 0.3318 0.0
C313 C 0.84588 0.05963 0.17543 0.0
C314 C 0.82845 0.04166 0.10653 0.0
C315 C 0.84295 0.08414 0.2035 0.0
C316 C 0.82244 0.091 0.16322 0.0
C317 C 0.80638 0.07411 0.09019 0.0
C318 C 0.8092 0.0494 0.06249 0.0
H319 H 0.01674 0.76202 0.08891 0.0
H320 H 0.95624 0.79329 0.00629 0.0
H321 H 0.97612 0.71354 0.12254 0.0
H322 H 0.91528 0.74465 0.04252 0.0
H323 H 0.89825 0.62381 0.12889 0.0
H324 H 0.93098 0.66853 0.04746 0.0
H325 H 0.90094 0.71975 0.20293 0.0
H326 H 0.86883 0.67539 0.28592 0.0
C327 C 0.99471 0.75834 0.07681 0.0
C328 C 0.98957 0.78137 0.04541 0.0
C329 C 0.97149 0.73055 0.0954 0.0
C330 C 0.94261 0.72538 0.08483 0.0
C331 C 0.93739 0.74811 0.05083 0.0
C332 C 0.96074 0.77582 0.03002 0.0
C333 C 0.89805 0.64444 0.14413 0.0
C334 C 0.88122 0.64614 0.21458 0.0
C335 C 0.91682 0.67 0.09764 0.0
C336 C 0.91855 0.69754 0.11939 0.0
C337 C 0.89989 0.69876 0.18451 0.0
C338 C 0.8816 0.67337 0.23226 0.0
H339 H 0.78722 0.7418 0.00895 0.0
H340 H 0.7838 0.77511 0.26876 0.0
H341 H 0.79129 0.70005 0.07773 0.0
H342 H 0.78914 0.73497 0.33657 0.0
H343 H 0.7529 0.64061 0.42796 0.0
H344 H 0.75651 0.68418 0.35434 0.0
H345 H 0.81928 0.68193 0.17095 0.0
H346 H 0.81462 0.63685 0.24348 0.0
C347 C 0.78779 0.74043 0.08042 0.0
C348 C 0.78441 0.7612 0.13354 0.0
C349 C 0.79028 0.71669 0.11989 0.0
C350 C 0.78985 0.71374 0.2129 0.0
C351 C 0.78854 0.73585 0.26499 0.0
C352 C 0.78554 0.75898 0.22599 0.0
C353 C 0.76773 0.64942 0.37252 0.0
C354 C 0.78367 0.63528 0.34235 0.0
C355 C 0.76995 0.67465 0.33033 0.0
C356 C 0.78841 0.68688 0.25693 0.0
C357 C 0.80474 0.67305 0.22698 0.0
C358 C 0.8024 0.64748 0.26934 0.0
H359 H 0.28315 0.00843 0.9655 0.0
H360 H 0.22973 0.05248 0.9722 0.0
H361 H 0.32503 0.05361 0.01593 0.0
H362 H 0.27179 0.09802 0.02472 0.0
H363 H 0.39965 0.13878 0.08817 0.0
H364 H 0.36028 0.10733 -0.01172 0.0
H365 H 0.29706 0.10663 0.17482 0.0
H366 H 0.33628 0.13792 0.27506 0.0
C367 C 0.2807 0.0282 0.9749 0.0
C368 C 0.25334 0.02709 0.96448 0.0
C369 C 0.30469 0.05412 0.00373 0.0
C370 C 0.30172 0.0794 0.02475 0.0
C371 C 0.27471 0.07886 0.00921 0.0
C372 C 0.25074 0.05295 -0.02157 0.0
C373 C 0.37741 0.13261 0.10707 0.0
C374 C 0.37115 0.14042 0.19066 0.0
C375 C 0.35485 0.1145 0.04975 0.0
C376 C 0.32555 0.10415 0.07413 0.0
C377 C 0.31939 0.11428 0.15387 0.0
C378 C 0.34192 0.1321 0.21168 0.0
H379 H 0.95745 0.15075 -0.01801 0.0
H380 H 1.00861 0.24531 0.01479 0.0
H381 H 0.91269 0.15599 -0.01933 0.0
H382 H 0.96439 0.25069 0.01076 0.0
H383 H 0.88361 0.25701 0.0008 0.0
H384 H 0.9163 0.24163 0.92637 0.0
H385 H 0.89689 0.17402 0.12449 0.0
H386 H 0.86585 0.19019 0.20084 0.0
C387 C 0.95911 0.17268 -0.01436 0.0
C388 C 0.98621 0.19761 -0.00028 0.0
C389 C 0.93364 0.17568 -0.01544 0.0
C390 C 0.93517 0.20375 -0.00487 0.0
C391 C 0.96259 0.22887 0.0011 0.0
C392 C 0.98785 0.22577 0.00447 0.0
C393 C 0.88554 0.23819 0.02651 0.0
C394 C 0.87234 0.22496 0.10705 0.0
C395 C 0.90417 0.22938 -0.01617 0.0
C396 C 0.90913 0.20672 0.01995 0.0
C397 C 0.89325 0.19131 0.09459 0.0
C398 C 0.87545 0.20067 0.13851 0.0
H399 H 0.93725 0.55776 0.37321 0.0
H400 H 0.90972 0.5745 0.62699 0.0
H401 H 0.97756 0.55354 0.44594 0.0
H402 H 0.94826 0.56869 0.69942 0.0
H403 H 0.0393 0.59702 0.79275 0.0
H404 H 0.99795 0.59601 0.71736 0.0
H405 H 0.99418 0.5271 0.54333 0.0
H406 H 0.03727 0.52932 0.61703 0.0
C407 C 0.93966 0.56027 0.44439 0.0
C408 C 0.92075 0.5672 0.494 0.0
C409 C 0.96259 0.55763 0.48629 0.0
C410 C 0.96666 0.56133 0.57875 0.0
C411 C 0.94667 0.56674 0.62802 0.0
C412 C 0.92437 0.56999 0.5863 0.0
C413 C 0.02962 0.58133 0.73914 0.0
C414 C 0.04168 0.56309 0.71169 0.0
C415 C 1.00559 0.58062 0.6958 0.0
C416 C 0.99228 0.56126 0.62433 0.0
C417 C 1.00393 0.54251 0.5975 0.0
C418 C 0.02844 0.5435 0.64052 0.0
H419 H 0.47842 0.50846 0.50364 0.0
H420 H 0.45725 0.46581 0.75955 0.0
H421 H 0.48696 0.4684 0.4459 0.0
H422 H 0.46554 0.42579 0.70173 0.0
H423 H 0.43746 0.34256 0.54211 0.0
H424 H 0.43557 0.38699 0.58881 0.0
H425 H 0.51862 0.44101 0.46392 0.0
H426 H 0.52067 0.39586 0.41649 0.0
C427 C 0.47629 0.49091 0.5481 0.0
C428 C 0.46728 0.49029 0.63625 0.0
C429 C 0.4811 0.46799 0.51489 0.0
C430 C 0.47657 0.44388 0.56905 0.0
C431 C 0.4688 0.44395 0.65818 0.0
C432 C 0.46411 0.46686 0.69136 0.0
C433 C 0.45531 0.36384 0.52378 0.0
C434 C 0.47944 0.3657 0.47666 0.0
C435 C 0.45427 0.3893 0.55109 0.0
C436 C 0.47729 0.41738 0.53202 0.0
C437 C 0.50069 0.41953 0.48004 0.0
C438 C 0.50179 0.39378 0.45259 0.0
H439 H 0.53584 0.00988 0.60222 0.0
H440 H 0.56226 0.95595 0.44465 0.0
H441 H 0.56764 0.05331 0.51507 0.0
H442 H 0.59445 0.99964 0.35853 0.0
H443 H 0.62316 0.12596 0.31936 0.0
H444 H 0.58148 0.07801 0.35718 0.0
H445 H 0.64075 0.04364 0.42545 0.0
H446 H 0.68208 0.0914 0.39004 0.0
C447 C 0.5479 0.00715 0.54766 0.0
C448 C 0.54692 0.97958 0.53131 0.0
C449 C 0.56596 0.032 0.4974 0.0
C450 C 0.58371 0.02984 0.43077 0.0
C451 C 0.5811 1.00188 0.40999 0.0
C452 C 0.56263 0.9769 0.45922 0.0
C453 C 0.62713 0.10788 0.34056 0.0
C454 C 0.65575 0.11232 0.35235 0.0
C455 C 0.60336 0.08057 0.36238 0.0
C456 C 0.60794 0.05714 0.3939 0.0
C457 C 0.63656 0.06117 0.4003 0.0
C458 C 0.66021 0.08855 0.38064 0.0
H459 H 0.48841 0.10449 0.39659 0.0
H460 H 0.39695 0.06056 0.46378 0.0
H461 H 0.49426 0.06438 0.46855 0.0
H462 H 0.40266 0.02075 0.53389 0.0
H463 H 0.47885 0.96775 0.5571 0.0
H464 H 0.47911 0.00867 0.47119 0.0
H465 H 0.42772 0.02163 0.6743 0.0
H466 H 0.42732 0.98107 0.75933 0.0
C467 C 0.46943 0.08588 0.42424 0.0
C468 C 0.44228 0.08582 0.42548 0.0
C469 C 0.47282 0.06304 0.46584 0.0
C470 C 0.44909 0.03988 0.50908 0.0
C471 C 0.42156 0.03875 0.50357 0.0
C472 C 0.41822 0.06144 0.46265 0.0
C473 C 0.46822 0.97984 0.58428 0.0
C474 C 0.45279 0.97094 0.66472 0.0
C475 C 0.46826 1.00316 0.53481 0.0
C476 C 0.45275 0.01781 0.56485 0.0
C477 C 0.43914 0.01019 0.64809 0.0
C478 C 0.43911 0.98706 0.69724 0.0
H479 H 1.00324 0.46871 0.61091 0.0
H480 H 0.06714 0.46816 0.42889 0.0
H481 H 0.96424 0.43614 0.51163 0.0
H482 H 0.02803 0.43541 0.33016 0.0
H483 H 0.89836 0.38225 0.30071 0.0
H484 H 0.93999 0.42726 0.35809 0.0
H485 H 0.99214 0.38167 0.36065 0.0
H486 H 0.9507 0.33696 0.30544 0.0
C487 C 1.00903 0.46223 0.54884 0.0
C488 C 0.03836 0.47068 0.5288 0.0
C489 C 0.98664 0.44368 0.49162 0.0
C490 C 0.99303 0.4329 0.41353 0.0
C491 C 0.02241 0.44311 0.39032 0.0
C492 C 0.04483 0.46197 0.44692 0.0
C493 C 0.91904 0.38228 0.31093 0.0
C494 C 0.92139 0.35621 0.29848 0.0
C495 C 0.94275 0.4079 0.34446 0.0
C496 C 0.96934 0.40801 0.36408 0.0
C497 C 0.97213 0.38248 0.34538 0.0
C498 C 0.94837 0.35683 0.31389 0.0
H499 H 0.54626 0.58291 0.34721 0.0
H500 H 0.53813 0.52821 0.57487 0.0
H501 H 0.57575 0.56351 0.27308 0.0
H502 H 0.56642 0.50832 0.49999 0.0
H503 H 0.61912 0.47562 0.35825 0.0
H504 H 0.57484 0.48158 0.3666 0.0
H505 H 0.62712 0.57607 0.33214 0.0
H506 H 0.67099 0.57007 0.32611 0.0
C507 C 0.54983 0.56603 0.38014 0.0
C508 C 0.54021 0.55741 0.46739 0.0
C509 C 0.56661 0.55489 0.33759 0.0
C510 C 0.5734 0.53451 0.38096 0.0
C511 C 0.56132 0.52378 0.46453 0.0
C512 C 0.54527 0.53541 0.50776 0.0
C513 C 0.62081 0.49742 0.34925 0.0
C514 C 0.64819 0.52245 0.34209 0.0
C515 C 0.59561 0.50085 0.35402 0.0
C516 C 0.59761 0.52928 0.34995 0.0
C517 C 0.62485 0.55387 0.33421 0.0
C518 C 0.64997 0.55051 0.33143 0.0
H519 H 0.6022 0.88899 0.69345 0.0
H520 H 0.58211 0.9164 0.9431 0.0
H521 H 0.6435 0.88592 0.76374 0.0
H522 H 0.62173 0.91201 0.01322 0.0
H523 H 0.714 0.94061 0.09039 0.0
H524 H 0.67226 0.93906 0.01581 0.0
H525 H 0.66059 0.8614 0.87028 0.0
H526 H 0.70392 0.86381 0.94326 0.0
C527 C 0.60646 0.89415 0.76318 0.0
C528 C 0.5893 0.90365 0.81203 0.0
C529 C 0.62995 0.89218 0.8037 0.0
C530 C 0.63641 0.89928 0.89404 0.0
C531 C 0.61822 0.90736 0.94303 0.0
C532 C 0.59532 0.90981 0.9026 0.0
C533 C 0.70254 0.92293 0.04325 0.0
C534 C 0.71234 0.90215 0.02378 0.0
C535 C 0.67832 0.92196 0.0004 0.0
C536 C 0.66261 0.89987 0.93749 0.0
C537 C 0.67221 0.87885 0.91791 0.0
C538 C 0.69687 0.88003 0.96046 0.0
H539 H 0.1877 0.73165 0.7502 0.0
H540 H 0.10168 0.6777 0.85787 0.0
H541 H 0.18552 0.7765 0.80026 0.0
H542 H 0.09972 0.72188 0.90759 0.0
H543 H 0.12192 0.79778 0.09386 0.0
H544 H 0.13006 0.75833 0.03038 0.0
H545 H 0.15343 0.80468 0.78053 0.0
H546 H 0.14479 0.84402 0.84348 0.0
C547 C 0.16816 0.72941 0.78254 0.0
C548 C 0.14504 0.70123 0.80131 0.0
C549 C 0.167 0.75496 0.8116 0.0
C550 C 0.14277 0.75243 0.85985 0.0
C551 C 0.11897 0.72436 0.87275 0.0
C552 C 0.12006 0.69909 0.84374 0.0
C553 C 0.12918 0.79977 0.02583 0.0
C554 C 0.13287 0.82404 0.97384 0.0
C555 C 0.1338 0.77722 -0.01053 0.0
C556 C 0.14211 0.77844 0.9004 0.0
C557 C 0.14717 0.80333 0.84944 0.0
C558 C 0.14234 0.82585 0.88571 0.0
H559 H 0.233 0.29245 0.78977 0.0
H560 H 0.20581 0.3451 0.95055 0.0
H561 H 0.26473 0.33663 0.70469 0.0
H562 H 0.23702 0.38896 0.86414 0.0
H563 H 0.35134 0.42971 0.73971 0.0
H564 H 0.31075 0.38144 0.77532 0.0
H565 H 0.24983 0.41334 0.70313 0.0
H566 H 0.29078 0.46178 0.66487 0.0
C567 C 0.2331 0.31321 0.80527 0.0
C568 C 0.21728 0.3154 0.87779 0.0
C569 C 0.25127 0.33846 0.75659 0.0
C570 C 0.2534 0.36615 0.77836 0.0
C571 C 0.23564 0.36784 0.84571 0.0
C572 C 0.21793 0.34275 0.89551 0.0
C573 C 0.32927 0.42621 0.72959 0.0
C574 C 0.3241 0.4494 0.69997 0.0
C575 C 0.30607 0.39856 0.74932 0.0
C576 C 0.27721 0.39371 0.74169 0.0
C577 C 0.27193 0.41657 0.70914 0.0
C578 C 0.29526 0.44415 0.68716 0.0
H579 H 0.14995 0.30513 0.90117 0.0
H580 H 0.09541 0.31519 0.09984 0.0
H581 H 0.15436 0.34958 0.82535 0.0
H582 H 0.09901 0.35846 0.02366 0.0
H583 H 0.11612 0.40549 0.66745 0.0
H584 H 0.12257 0.36544 0.73873 0.0
H585 H 0.13316 0.40875 -0.00816 0.0
H586 H 0.1256 0.44738 0.92189 0.0
C587 C 0.13936 0.31709 0.92951 0.0
C588 C 0.12249 0.30675 0.00697 0.0
C589 C 0.14156 0.34228 0.88541 0.0
C590 C 0.12708 0.35763 0.91839 0.0
C591 C 0.11088 0.34756 -0.00299 0.0
C592 C 0.10868 0.32257 0.04068 0.0
C593 C 0.12014 0.40638 0.73803 0.0
C594 C 0.11968 0.42899 0.78969 0.0
C595 C 0.12398 0.38364 0.77883 0.0
C596 C 0.12776 0.3836 0.87139 0.0
C597 C 0.12945 0.40758 0.92102 0.0
C598 C 0.12518 0.42976 0.88089 0.0
H599 H 0.67017 0.80048 0.95281 0.0
H600 H 0.73411 0.80423 0.76318 0.0
H601 H 0.6312 0.76946 0.85116 0.0
H602 H 0.69507 0.77321 0.66198 0.0
H603 H 0.61864 0.67484 0.62553 0.0
H604 H 0.6601 0.7192 0.68236 0.0
H605 H 0.60635 0.76287 0.70109 0.0
H606 H 0.56473 0.71819 0.64225 0.0
C607 C 0.67597 0.79525 0.88881 0.0
C608 C 0.70531 0.80437 0.86719 0.0
C609 C 0.6536 0.77763 0.83018 0.0
C610 C 0.66004 0.76858 0.74893 0.0
C611 C 0.68941 0.77953 0.72456 0.0
C612 C 0.71178 0.79736 0.78272 0.0
C613 C 0.61603 0.69435 0.63838 0.0
C614 C 0.58865 0.69327 0.62878 0.0
C615 C 0.63976 0.71979 0.67104 0.0
C616 C 0.63648 0.74453 0.69675 0.0
C617 C 0.60948 0.7441 0.6821 0.0
C618 C 0.58579 0.71872 0.64756 0.0
H619 H 0.33836 0.90814 0.66794 0.0
H620 H 0.28723 0.81318 0.68756 0.0
H621 H 0.29411 0.91342 0.67666 0.0
H622 H 0.2426 0.81844 0.69906 0.0
H623 H 0.21165 0.91788 0.68836 0.0
H624 H 0.24223 0.89996 0.61347 0.0
H625 H 0.23377 0.84409 0.83777 0.0
H626 H 0.20442 0.86261 0.91372 0.0
C627 C 0.31745 0.88837 0.67131 0.0
C628 C 0.31597 0.86031 0.67746 0.0
C629 C 0.29213 0.89133 0.67562 0.0
C630 C 0.26498 0.86632 0.68847 0.0
C631 C 0.2633 0.83801 0.68858 0.0
C632 C 0.2887 0.835 0.68204 0.0
C633 C 0.21565 0.90116 0.72056 0.0
C634 C 0.20595 0.89196 0.80745 0.0
C635 C 0.23305 0.89087 0.67756 0.0
C636 C 0.24035 0.87073 0.72001 0.0
C637 C 0.22825 0.85939 0.80312 0.0
C638 C 0.2116 0.87021 0.84691 0.0
H639 H 0.10507 1.00426 0.86826 0.0
H640 H 0.10449 0.97834 0.14066 0.0
H641 H 0.09729 0.04566 0.91632 0.0
H642 H 0.09752 0.02048 0.18918 0.0
H643 H 0.07673 0.11408 0.01565 0.0
H644 H 0.06267 0.06121 0.00813 0.0
H645 H 0.1391 0.07677 0.15977 0.0
H646 H 0.15321 0.12966 0.16638 0.0
C647 C 0.10253 0.00708 0.93827 0.0
C648 C 0.10553 0.98845 0.00092 0.0
C649 C 0.09784 0.03054 0.96576 0.0
C650 C 0.09679 0.03609 0.05638 0.0
C651 C 0.09812 0.01644 0.119 0.0
C652 C 0.10213 0.99249 0.0913 0.0
C653 C 0.08966 0.10588 0.05101 0.0
C654 C 0.1158 0.12557 0.09241 0.0
C655 C 0.08174 0.07576 0.04624 0.0
C656 C 0.0998 0.06509 0.08352 0.0
C657 C 0.12461 0.08446 0.1317 0.0
C658 C 0.13277 0.11464 0.13512 0.0
H659 H 0.01485 0.13584 0.3292 0.0
H660 H 0.03319 0.087 0.12766 0.0
H661 H 0.97642 0.08939 0.38787 0.0
H662 H 0.99461 0.04149 0.18174 0.0
H663 H 0.88123 0.01808 0.31778 0.0
H664 H 0.9295 0.05854 0.34403 0.0
H665 H 0.96717 1.00212 0.26723 0.0
H666 H 0.91871 0.9629 0.23199 0.0
C667 C 1.01128 0.11519 0.29884 0.0
C668 C 0.02674 0.11529 0.22236 0.0
C669 C 0.98892 0.08847 0.3318 0.0
C670 C 0.98144 0.06134 0.28849 0.0
C671 C 0.99929 0.06146 0.21815 0.0
C672 C 0.02162 0.08794 0.18607 0.0
C673 C 0.89979 0.01394 0.31035 0.0
C674 C 0.89625 0.98742 0.27207 0.0
C675 C 0.92776 0.03733 0.32523 0.0
C676 C 0.95273 0.03434 0.30416 0.0
C677 C 0.9487 1.00596 0.28017 0.0
C678 C 0.92081 0.98304 0.26192 0.0
H679 H 0.90542 0.9121 -0.01075 0.0
H680 H 0.87744 0.89337 0.26097 0.0
H681 H 0.95494 0.92451 0.03315 0.0
H682 H 0.92744 0.90526 0.30591 0.0
H683 H 1.00176 0.87283 0.25497 0.0
H684 H 0.95798 0.87874 0.27199 0.0
H685 H 0.99831 0.95974 0.12044 0.0
H686 H 0.04142 0.95313 0.10074 0.0
C687 C 0.91014 0.91115 0.05876 0.0
C688 C 0.8879 0.90186 0.1218 0.0
C689 C 0.93853 0.91852 0.08426 0.0
C690 C 0.94522 0.91619 0.17333 0.0
C691 C 0.92295 0.90742 0.23701 0.0
C692 C 0.89448 0.90064 0.21146 0.0
C693 C 1.00194 0.89282 0.23 0.0
C694 C 0.02479 0.91233 0.17555 0.0
C695 C 0.97675 0.89614 0.23929 0.0
C696 C 0.97442 0.9192 0.19499 0.0
C697 C 0.99928 0.94139 0.15358 0.0
C698 C 0.02418 0.93785 0.14332 0.0
H699 H 0.77264 0.33567 0.20297 0.0
H700 H 0.77176 0.30827 0.47381 0.0
H701 H 0.76444 0.37658 0.25327 0.0
H702 H 0.76467 0.3502 0.52472 0.0
H703 H 0.74117 0.44285 0.35861 0.0
H704 H 0.72817 0.39023 0.35086 0.0
H705 H 0.80707 0.40796 0.49174 0.0
H706 H 0.8202 0.46064 0.49833 0.0
C707 C 0.76999 0.33808 0.27316 0.0
C708 C 0.77304 0.31916 0.33469 0.0
C709 C 0.7651 0.36129 0.3019 0.0
C710 C 0.76393 0.3664 0.39275 0.0
C711 C 0.76533 0.34648 0.45434 0.0
C712 C 0.76939 0.32264 0.4253 0.0
C713 C 0.75492 0.4352 0.39179 0.0
C714 C 0.78147 0.45551 0.42991 0.0
C715 C 0.74758 0.40521 0.38686 0.0
C716 C 0.76659 0.39519 0.42101 0.0
C717 C 0.79186 0.41513 0.4662 0.0
C718 C 0.79945 0.4452 0.46958 0.0
H719 H 0.69704 0.41484 0.47758 0.0
H720 H 0.67983 0.46724 0.66993 0.0
H721 H 0.65729 0.37027 0.53595 0.0
H722 H 0.6402 0.42213 0.73095 0.0
H723 H 0.58021 0.29233 0.61137 0.0
H724 H 0.62932 0.33265 0.63738 0.0
H725 H 0.59324 0.39311 0.67108 0.0
H726 H 0.54473 0.35274 0.64591 0.0
C727 C 0.68547 0.41679 0.53468 0.0
C728 C 0.69121 0.44479 0.5673 0.0
C729 C 0.66259 0.391 0.56893 0.0
C730 C 0.64483 0.39245 0.6371 0.0
C731 C 0.65287 0.42018 0.6769 0.0
C732 C 0.67583 0.44609 0.64237 0.0
C733 C 0.58291 0.31407 0.627 0.0
C734 C 0.55891 0.31962 0.62428 0.0
C735 C 0.61101 0.33727 0.64187 0.0
C736 C 0.61555 0.36653 0.65326 0.0
C737 C 0.59091 0.37106 0.66257 0.0
C738 C 0.56288 0.34779 0.64848 0.0
H739 H 0.56948 0.27383 0.45988 0.0
H740 H 0.54174 0.18012 0.47284 0.0
H741 H 0.61874 0.28424 0.50519 0.0
H742 H 0.5907 0.19006 0.51411 0.0
H743 H 0.67525 0.20498 0.58688 0.0
H744 H 0.63026 0.20758 0.61597 0.0
H745 H 0.65757 0.28099 0.43344 0.0
H746 H 0.70265 0.27897 0.4075 0.0
C747 C 0.57383 0.25551 0.47451 0.0
C748 C 0.55185 0.22626 0.46396 0.0
C749 C 0.60206 0.26139 0.49962 0.0
C750 C 0.60885 0.23803 0.51411 0.0
C751 C 0.58637 0.20871 0.50597 0.0
C752 C 0.55831 0.20294 0.48094 0.0
C753 C 0.67236 0.22275 0.55712 0.0
C754 C 0.69207 0.24129 0.49323 0.0
C755 C 0.6463 0.22392 0.57242 0.0
C756 C 0.63964 0.24361 0.52399 0.0
C757 C 0.6616 0.26526 0.47132 0.0
C758 C 0.68763 0.26417 0.45645 0.0
H759 H 0.48581 0.79528 0.82843 0.0
H760 H 0.40805 0.77879 0.68325 0.0
H761 H 0.47261 0.74263 0.8189 0.0
H762 H 0.39519 0.72624 0.67171 0.0
H763 H 0.44462 0.67456 0.52651 0.0
H764 H 0.43567 0.71508 0.57645 0.0
H765 H 0.42717 0.68361 0.84549 0.0
H766 H 0.43503 0.64217 0.79498 0.0
C767 C 0.46529 0.7801 0.79792 0.0
C768 C 0.44773 0.79075 0.75738 0.0
C769 C 0.45768 0.75007 0.79274 0.0
C770 C 0.43289 0.7306 0.74477 0.0
C771 C 0.41421 0.74088 0.70987 0.0
C772 C 0.42148 0.77082 0.71686 0.0
C773 C 0.43997 0.67581 0.59583 0.0
C774 C 0.44075 0.65557 0.6571 0.0
C775 C 0.43462 0.69877 0.62426 0.0
C776 C 0.43069 0.70223 0.71461 0.0
C777 C 0.42992 0.68111 0.77545 0.0
C778 C 0.43447 0.65758 0.74657 0.0
H779 H 0.21126 0.69038 0.97264 0.0
H780 H 0.24656 0.62961 0.94392 0.0
H781 H 0.2598 0.73082 -0.00283 0.0
H782 H 0.29571 0.67002 0.96918 0.0
H783 H 0.3644 0.75167 0.8094 0.0
H784 H 0.32415 0.70732 0.86722 0.0
H785 H 0.30658 0.75986 0.05858 0.0
H786 H 0.3467 0.80472 -0.00193 0.0
C787 C 0.22938 0.6854 0.97634 0.0
C788 C 0.22535 0.65705 0.95416 0.0
C789 C 0.25742 0.7087 -0.00994 0.0
C790 C 0.28203 0.70405 -0.01769 0.0
C791 C 0.27743 0.67471 0.97254 0.0
C792 C 0.24931 0.65147 0.95814 0.0
C793 C 0.35259 0.7538 0.86561 0.0
C794 C 0.35837 0.78191 0.89735 0.0
C795 C 0.32943 0.72815 0.89954 0.0
C796 C 0.31143 0.72987 0.96647 0.0
C797 C 0.31945 0.7577 0.00548 0.0
C798 C 0.3427 0.78347 0.9713 0.0
H799 H 0.36918 0.61634 0.73292 0.0
H800 H 0.34402 0.54679 0.92745 0.0
H801 H 0.32455 0.61913 0.7593 0.0
H802 H 0.29944 0.55019 0.95672 0.0
H803 H 0.20961 0.51929 0.81711 0.0
H804 H 0.25888 0.53029 0.85826 0.0
H805 H 0.2865 0.62401 0.83056 0.0
H806 H 0.2369 0.61247 0.78572 0.0
C807 C 0.35479 0.60275 0.78501 0.0
C808 C 0.35964 0.58073 0.82621 0.0
C809 C 0.32903 0.60431 0.80022 0.0
C810 C 0.30773 0.58399 0.85752 0.0
C811 C 0.31495 0.56544 0.90971 0.0
C812 C 0.34077 0.56381 0.89413 0.0
C813 C 0.22616 0.54226 0.82116 0.0
C814 C 0.21951 0.56508 0.79886 0.0
C815 C 0.2544 0.54867 0.84609 0.0
C816 C 0.27684 0.57813 0.84869 0.0
C817 C 0.26985 0.60107 0.82918 0.0
C818 C 0.24143 0.59455 0.80422 0.0
H819 H 0.14722 0.24831 0.81353 0.0
H820 H 0.0972 0.15959 0.71037 0.0
H821 H 0.14573 0.26876 0.67174 0.0
H822 H 0.09822 0.18008 0.56394 0.0
H823 H 0.08124 0.2149 0.32872 0.0
H824 H 0.07629 0.20355 0.4858 0.0
H825 H 0.16138 0.2782 0.53171 0.0
H826 H 0.16486 0.29098 0.37793 0.0
C827 C 0.13729 0.23308 0.75897 0.0
C828 C 0.12235 0.20229 0.77258 0.0
C829 C 0.13611 0.24491 0.67744 0.0
C830 C 0.12109 0.22615 0.6067 0.0
C831 C 0.10879 0.19523 0.61813 0.0
C832 C 0.109 0.18338 0.70096 0.0
C833 C 0.09818 0.22967 0.37322 0.0
C834 C 0.12426 0.25268 0.34076 0.0
C835 C 0.09566 0.2228 0.46298 0.0
C836 C 0.11934 0.23866 0.52013 0.0
C837 C 0.14294 0.2649 0.48971 0.0
C838 C 0.145 0.27226 0.40075 0.0
H839 H 0.73856 0.85529 0.42559 0.0
H840 H 0.82438 0.91203 0.32043 0.0
H841 H 0.75983 0.86181 0.57421 0.0
H842 H 0.84539 0.91752 0.46515 0.0
H843 H 0.86 0.95195 0.75257 0.0
H844 H 0.84645 0.94162 0.59885 0.0
H845 H 0.79215 0.84901 0.66085 0.0
H846 H 0.80502 0.85954 0.81593 0.0
C847 C 0.76172 0.86954 0.43462 0.0
C848 C 0.77958 0.88418 0.36257 0.0
C849 C 0.774 0.87278 0.5187 0.0
C850 C 0.8043 0.89011 0.53059 0.0
C851 C 0.82197 0.90456 0.45824 0.0
C852 C 0.80973 0.90181 0.37542 0.0
C853 C 0.84593 0.9292 0.73334 0.0
C854 C 0.83254 0.90678 0.79669 0.0
C855 C 0.83812 0.92326 0.64502 0.0
C856 C 0.81735 0.8947 0.619 0.0
C857 C 0.80732 0.87144 0.6803 0.0
C858 C 0.81497 0.87745 0.76887 0.0
H859 H 0.14244 0.9561 0.73447 0.0
H860 H 0.05549 0.88986 0.66286 0.0
H861 H 0.15609 0.96345 0.57938 0.0
H862 H 0.06887 0.89803 0.50781 0.0
H863 H 0.10206 0.92373 0.23309 0.0
H864 H 0.0898 0.93429 0.37859 0.0
H865 H 0.15902 0.92048 0.4922 0.0
H866 H 0.17126 0.90944 0.34485 0.0
C867 C 0.1262 0.94341 0.68596 0.0
C868 C 0.09854 0.92114 0.71049 0.0
C869 C 0.1339 0.94797 0.5974 0.0
C870 C 0.11371 0.93062 0.5333 0.0
C871 C 0.0848 0.91148 0.55698 0.0
C872 C 0.0772 0.90676 0.64558 0.0
C873 C 0.1141 0.92201 0.28938 0.0
C874 C 0.13659 0.91423 0.27923 0.0
C875 C 0.10755 0.92886 0.37186 0.0
C876 C 0.12358 0.92826 0.44523 0.0
C877 C 0.14673 0.92144 0.43534 0.0
C878 C 0.15335 0.9146 0.35215 0.0
H879 H 0.74469 0.54426 0.66437 0.0
H880 H 0.82843 0.6199 0.71584 0.0
H881 H 0.7393 0.53253 0.8212 0.0
H882 H 0.82449 0.60678 0.86932 0.0
H883 H 0.81 0.57713 0.15022 0.0
H884 H 0.80837 0.5975 0.0086 0.0
H885 H 0.76053 0.5088 0.90125 0.0
H886 H 0.75959 0.48835 0.04776 0.0
C887 C 0.76158 0.55884 0.7093 0.0
C888 C 0.78776 0.58189 0.67752 0.0
C889 C 0.7588 0.55176 0.79893 0.0
C890 C 0.78232 0.56745 0.85675 0.0
C891 C 0.80612 0.59364 0.8269 0.0
C892 C 0.80845 0.6012 0.73808 0.0
C893 C 0.79989 0.56184 0.09589 0.0
C894 C 0.78498 0.53105 0.10967 0.0
C895 C 0.79867 0.57364 0.01439 0.0
C896 C 0.78367 0.55489 0.94364 0.0
C897 C 0.77116 0.52396 0.95536 0.0
C898 C 0.77139 0.51212 0.03826 0.0
H899 H 0.51285 0.28783 0.08765 0.0
H900 H 0.46986 0.19511 0.15828 0.0
H901 H 0.49673 0.2745 0.93529 0.0
H902 H 0.45076 0.18207 0.01221 0.0
H903 H 0.43283 0.16328 0.72442 0.0
H904 H 0.45475 0.17567 0.86902 0.0
H905 H 0.45455 0.26044 0.85558 0.0
H906 H 0.43538 0.24879 0.70511 0.0
C907 C 0.50028 0.2646 0.07071 0.0
C908 C 0.49171 0.24255 0.13597 0.0
C909 C 0.49042 0.25697 -0.01614 0.0
C910 C 0.47136 0.22729 0.96177 0.0
C911 C 0.46529 0.20519 0.0256 0.0
C912 C 0.47603 0.21274 0.11081 0.0
C913 C 0.43662 0.18417 0.7537 0.0
C914 C 0.43222 0.20503 0.70478 0.0
C915 C 0.44943 0.19146 0.83675 0.0
C916 C 0.4569 0.2193 0.87424 0.0
C917 C 0.45011 0.23922 0.82769 0.0
C918 C 0.43838 0.23234 0.74269 0.0
H919 H 0.76645 0.19325 0.5993 0.0
H920 H 0.84645 0.27581 0.61125 0.0
H921 H 0.75301 0.20321 0.74555 0.0
H922 H 0.83208 0.2872 0.75172 0.0
H923 H 0.8158 0.27251 0.04663 0.0
H924 H 0.82836 0.27277 0.89563 0.0
H925 H 0.73718 0.23369 0.82251 0.0
H926 H 0.72427 0.23168 -0.02168 0.0
C927 C 0.78128 0.21317 0.63432 0.0
C928 C 0.80772 0.23337 0.59625 0.0
C929 C 0.77329 0.21936 0.71631 0.0
C930 C 0.7913 0.24626 0.75926 0.0
C931 C 0.81796 0.26612 0.72105 0.0
C932 C 0.82639 0.2594 0.64118 0.0
C933 C 0.79831 0.26463 -0.00071 0.0
C934 C 0.76901 0.25095 0.02519 0.0
C935 C 0.8056 0.26499 0.91147 0.0
C936 C 0.78366 0.25236 0.84741 0.0
C937 C 0.75444 0.24253 0.87147 0.0
C938 C 0.7471 0.24171 0.96035 0.0
H939 H 0.47756 0.91203 0.47772 0.0
H940 H 0.42447 0.82385 0.37444 0.0
H941 H 0.47783 0.93299 0.33539 0.0
H942 H 0.42694 0.84479 0.2276 0.0
H943 H 0.41356 0.88289 -0.00912 0.0
H944 H 0.40767 0.87077 0.14748 0.0
H945 H 0.49511 0.94095 0.19608 0.0
H946 H 0.49986 0.95449 0.04267 0.0
C947 C 0.46724 0.89693 0.42316 0.0
C948 C 0.4512 0.8662 0.43671 0.0
C949 C 0.46709 0.90909 0.34133 0.0
C950 C 0.45185 0.89069 0.27025 0.0
C951 C 0.4379 0.8597 0.28196 0.0
C952 C 0.43719 0.84756 0.36508 0.0
C953 C 0.43095 0.89653 0.03584 0.0
C954 C 0.45778 0.91854 0.00413 0.0
C955 C 0.42783 0.88922 0.12529 0.0
C956 C 0.4516 0.90364 0.18314 0.0
C957 C 0.47648 0.92886 0.15347 0.0
C958 C 0.47925 0.93666 0.06477 0.0
H959 H 0.13506 0.52981 0.49225 0.0
H960 H 0.18222 0.62233 0.42085 0.0
H961 H 0.11636 0.51738 0.34552 0.0
H962 H 0.16637 0.60943 0.26815 0.0
H963 H 0.1048 0.58659 0.03906 0.0
H964 H 0.12437 0.59748 0.1892 0.0
H965 H 0.11994 0.51061 0.2023 0.0
H966 H 0.09767 0.49907 0.0583 0.0
C967 C 0.14227 0.54746 0.44439 0.0
C968 C 0.15893 0.57717 0.46943 0.0
C969 C 0.13174 0.54026 0.35891 0.0
C970 C 0.13899 0.56253 0.29491 0.0
C971 C 0.15914 0.59188 0.3169 0.0
C972 C 0.16882 0.59922 0.40396 0.0
C973 C 0.10689 0.56956 0.07649 0.0
C974 C 0.09935 0.54191 0.03857 0.0
C975 C 0.11884 0.57598 0.16127 0.0
C976 C 0.12444 0.5552 0.20754 0.0
C977 C 0.11558 0.52708 0.17016 0.0
C978 C 0.10255 0.5203 0.08743 0.0
H979 H 0.4794 0.62268 0.39118 0.0
H980 H 0.39112 0.55988 0.31941 0.0
H981 H 0.49265 0.63077 0.23612 0.0
H982 H 0.40423 0.56856 0.16451 0.0
H983 H 0.43702 0.59119 0.89001 0.0
H984 H 0.42577 0.60325 0.03487 0.0
H985 H 0.49391 0.58774 0.14904 0.0
H986 H 0.50527 0.57547 0.00238 0.0
C987 C 0.46277 0.61094 0.34277 0.0
C988 C 0.4348 0.58929 0.3671 0.0
C989 C 0.47027 0.61594 0.25416 0.0
C990 C 0.44963 0.59954 0.18987 0.0
C991 C 0.42054 0.58128 0.2137 0.0
C992 C 0.41311 0.5762 0.30232 0.0
C993 C 0.44905 0.58948 0.94634 0.0
C994 C 0.47104 0.58096 0.93655 0.0
C995 C 0.4431 0.59718 0.02842 0.0
C996 C 0.45912 0.59656 0.10179 0.0
C997 C 0.48167 0.58883 0.09221 0.0
C998 C 0.48776 0.58122 0.00943 0.0
loop_
_geom_bond_atom_site_label_1
_geom_bond_atom_site_label_2
_geom_bond_distance
_geom_bond_site_symmetry_2
_ccdc_geom_bond_type
C0 O12 1.241 . S
C0 O13 1.280 1_554 S
C1 O14 1.277 . S
C1 O15 1.245 . S
C2 O26 1.247 . S
C2 O28 1.289 . S
Mg3 O4 1.926 1_556 S
Mg3 O13 1.984 . S
Mg3 O15 1.988 1_556 S
Mg3 O16 2.061 . S
O4 Mg3 1.926 1_554 S
O4 Mg5 1.986 . S
O4 Mg6 1.917 . S
Mg5 O4 1.986 . S
Mg5 O12 2.042 . S
Mg5 O14 2.041 . S
Mg5 O20 2.038 . S
Mg5 O28 2.238 . S
Mg6 O4 1.917 . S
Mg6 O7 1.917 . S
Mg6 O17 2.106 1_554 S
Mg6 O19 2.079 . S
Mg6 O28 2.106 . S
Mg6 O29 2.079 . S
O7 Mg6 1.917 . S
O7 Mg8 1.926 . S
O7 Mg9 1.986 1_554 S
Mg8 O7 1.926 . S
Mg8 O22 1.984 . S
Mg8 O25 1.988 . S
Mg8 O26 2.061 . S
Mg9 O7 1.986 1_556 S
Mg9 O17 2.238 . S
Mg9 O21 2.042 1_556 S
Mg9 O23 2.041 . S
Mg9 O30 2.041 . S
C10 O16 1.247 . S
C10 O17 1.289 . S
C11 O29 1.245 . S
C11 O30 1.269 1_554 S
O12 C0 1.241 . S
O12 Mg5 2.042 . S
O13 C0 1.280 1_556 S
O13 Mg3 1.984 . S
O14 C1 1.277 . S
O14 Mg5 2.041 . S
O15 C1 1.245 . S
O15 Mg3 1.988 1_554 S
O16 Mg3 2.061 . S
O16 C10 1.247 . S
O17 Mg6 2.106 1_556 S
O17 Mg9 2.238 . S
O17 C10 1.289 . S
C18 O19 1.245 . S
C18 O20 1.274 . S
O19 Mg6 2.079 . S
O19 C18 1.245 . S
O20 Mg5 2.038 . S
O20 C18 1.274 . S
O21 Mg9 2.042 1_554 S
O21 C24 1.241 . S
O22 Mg8 1.984 . S
O22 C24 1.280 . S
O23 Mg9 2.041 . S
O23 C27 1.277 . S
C24 O21 1.241 . S
C24 O22 1.280 . S
O25 Mg8 1.988 . S
O25 C27 1.245 1_554 S
O26 C2 1.247 . S
O26 Mg8 2.061 . S
C27 O23 1.277 . S
C27 O25 1.245 1_556 S
O28 C2 1.289 . S
O28 Mg5 2.238 . S
O28 Mg6 2.106 . S
O29 Mg6 2.079 . S
O29 C11 1.245 . S
O30 Mg9 2.041 . S
O30 C11 1.269 1_556 S
C31 O43 1.241 . S
C31 O44 1.280 . S
C32 O45 1.277 . S
C32 O46 1.245 . S
C33 O57 1.247 . S
C33 O59 1.289 . S
Mg34 O35 1.926 . S
Mg34 O44 1.984 . S
Mg34 O46 1.988 . S
Mg34 O47 2.061 . S
O35 Mg34 1.926 . S
O35 Mg36 1.986 . S
O35 Mg37 1.917 . S
Mg36 O35 1.986 . S
Mg36 O43 2.042 . S
Mg36 O45 2.041 . S
Mg36 O51 2.038 . S
Mg36 O59 2.238 1_554 S
Mg37 O35 1.917 . S
Mg37 O38 1.917 . S
Mg37 O48 2.106 . S
Mg37 O50 2.079 . S
Mg37 O59 2.106 1_554 S
Mg37 O60 2.079 . S
O38 Mg37 1.917 . S
O38 Mg39 1.926 . S
O38 Mg40 1.986 . S
Mg39 O38 1.926 . S
Mg39 O53 1.984 . S
Mg39 O56 1.988 . S
Mg39 O57 2.061 1_554 S
Mg40 O38 1.986 . S
Mg40 O48 2.238 . S
Mg40 O52 2.042 . S
Mg40 O54 2.041 . S
Mg40 O61 2.038 . S
C41 O47 1.247 . S
C41 O48 1.289 . S
C42 O60 1.245 . S
C42 O61 1.274 . S
O43 C31 1.241 . S
O43 Mg36 2.042 . S
O44 C31 1.280 . S
O44 Mg34 1.984 . S
O45 C32 1.277 . S
O45 Mg36 2.041 . S
O46 C32 1.245 . S
O46 Mg34 1.988 . S
O47 Mg34 2.061 . S
O47 C41 1.247 . S
O48 Mg37 2.106 . S
O48 Mg40 2.238 . S
O48 C41 1.289 . S
C49 O50 1.245 . S
C49 O51 1.274 . S
O50 Mg37 2.079 . S
O50 C49 1.245 . S
O51 Mg36 2.038 . S
O51 C49 1.274 . S
O52 Mg40 2.042 . S
O52 C55 1.241 . S
O53 Mg39 1.984 . S
O53 C55 1.280 . S
O54 Mg40 2.041 . S
O54 C58 1.277 . S
C55 O52 1.241 . S
C55 O53 1.280 . S
O56 Mg39 1.988 . S
O56 C58 1.245 . S
O57 C33 1.247 . S
O57 Mg39 2.061 1_556 S
C58 O54 1.277 . S
C58 O56 1.245 . S
O59 C33 1.289 . S
O59 Mg36 2.238 1_556 S
O59 Mg37 2.106 1_556 S
O60 Mg37 2.079 . S
O60 C42 1.245 . S
O61 Mg40 2.038 . S
O61 C42 1.274 . S
C62 O74 1.241 1_554 S
C62 O75 1.280 . S
C63 O76 1.277 . S
C63 O77 1.245 1_556 S
C64 O88 1.247 . S
C64 O90 1.289 . S
Mg65 O66 1.926 . S
Mg65 O75 1.984 . S
Mg65 O77 1.988 . S
Mg65 O78 2.061 . S
O66 Mg65 1.926 . S
O66 Mg67 1.986 1_554 S
O66 Mg68 1.917 . S
Mg67 O66 1.986 1_556 S
Mg67 O74 2.042 . S
Mg67 O76 2.041 . S
Mg67 O82 2.038 . S
Mg67 O90 2.238 . S
Mg68 O66 1.917 . S
Mg68 O69 1.917 1_554 S
Mg68 O79 2.106 . S
Mg68 O81 2.079 . S
Mg68 O90 2.106 1_554 S
Mg68 O91 2.079 1_554 S
O69 Mg68 1.917 1_556 S
O69 Mg70 1.926 . S
O69 Mg71 1.986 1_556 S
Mg70 O69 1.926 . S
Mg70 O84 1.984 . S
Mg70 O87 1.988 . S
Mg70 O88 2.061 . S
Mg71 O69 1.986 1_554 S
Mg71 O79 2.238 . S
Mg71 O83 2.042 . S
Mg71 O85 2.041 . S
Mg71 O92 2.038 . S
C72 O78 1.247 . S
C72 O79 1.289 . S
C73 O91 1.245 1_554 S
C73 O92 1.274 . S
O74 C62 1.241 1_556 S
O74 Mg67 2.042 . S
O75 C62 1.280 . S
O75 Mg65 1.984 . S
O76 C63 1.277 . S
O76 Mg67 2.041 . S
O77 C63 1.245 1_554 S
O77 Mg65 1.988 . S
O78 Mg65 2.061 . S
O78 C72 1.247 . S
O79 Mg68 2.106 . S
O79 Mg71 2.238 . S
O79 C72 1.289 . S
C80 O81 1.245 1_556 S
C80 O82 1.274 . S
O81 Mg68 2.079 . S
O81 C80 1.245 1_554 S
O82 Mg67 2.038 . S
O82 C80 1.274 . S
O83 Mg71 2.042 . S
O83 C86 1.241 1_554 S
O84 Mg70 1.984 . S
O84 C86 1.280 . S
O85 Mg71 2.041 . S
O85 C89 1.277 . S
C86 O83 1.241 1_556 S
C86 O84 1.280 . S
O87 Mg70 1.988 . S
O87 C89 1.245 1_556 S
O88 C64 1.247 . S
O88 Mg70 2.061 . S
C89 O85 1.277 . S
C89 O87 1.245 1_554 S
O90 C64 1.289 . S
O90 Mg67 2.238 . S
O90 Mg68 2.106 1_556 S
O91 Mg68 2.079 1_556 S
O91 C73 1.245 1_556 S
O92 Mg71 2.038 . S
O92 C73 1.274 . S
C93 O105 1.241 . S
C93 O106 1.280 . S
C94 O107 1.277 . S
C94 O108 1.245 . S
C95 O119 1.247 . S
C95 O121 1.289 . S
Mg96 O97 1.926 . S
Mg96 O106 1.984 . S
Mg96 O108 1.988 . S
Mg96 O109 2.061 . S
O97 Mg96 1.926 . S
O97 Mg98 1.986 . S
O97 Mg99 1.917 . S
Mg98 O97 1.986 . S
Mg98 O105 2.042 . S
Mg98 O107 2.041 . S
Mg98 O113 2.038 . S
Mg98 O121 2.238 . S
Mg99 O97 1.917 . S
Mg99 O100 1.917 . S
Mg99 O110 2.106 . S
Mg99 O112 2.079 . S
Mg99 O121 2.106 . S
Mg99 O122 2.079 . S
O100 Mg99 1.917 . S
O100 Mg101 1.926 . S
O100 Mg102 1.986 . S
Mg101 O100 1.926 . S
Mg101 O115 1.984 . S
Mg101 O118 1.988 . S
Mg101 O119 2.061 . S
Mg102 O100 1.986 . S
Mg102 O110 2.238 . S
Mg102 O114 2.042 . S
Mg102 O116 2.041 . S
Mg102 O123 2.038 . S
C103 O109 1.247 . S
C103 O110 1.289 . S
C104 O122 1.245 . S
C104 O123 1.274 . S
O105 C93 1.241 . S
O105 Mg98 2.042 . S
O106 C93 1.280 . S
O106 Mg96 1.984 . S
O107 C94 1.277 . S
O107 Mg98 2.041 . S
O108 C94 1.245 . S
O108 Mg96 1.988 . S
O109 Mg96 2.061 . S
O109 C103 1.247 . S
O110 Mg99 2.106 . S
O110 Mg102 2.238 . S
O110 C103 1.289 . S
C111 O112 1.245 . S
C111 O113 1.274 . S
O112 Mg99 2.079 . S
O112 C111 1.245 . S
O113 Mg98 2.038 . S
O113 C111 1.274 . S
O114 Mg102 2.042 . S
O114 C117 1.241 . S
O115 Mg101 1.984 . S
O115 C117 1.280 . S
O116 Mg102 2.041 . S
O116 C120 1.277 . S
C117 O114 1.241 . S
C117 O115 1.280 . S
O118 Mg101 1.988 . S
O118 C120 1.245 . S
O119 C95 1.247 . S
O119 Mg101 2.061 . S
C120 O116 1.277 . S
C120 O118 1.245 . S
O121 C95 1.289 . S
O121 Mg98 2.238 . S
O121 Mg99 2.106 . S
O122 Mg99 2.079 . S
O122 C104 1.245 . S
O123 Mg102 2.038 . S
O123 C104 1.274 . S
C124 O136 1.241 . S
C124 O137 1.280 . S
C125 O138 1.277 . S
C125 O139 1.245 . S
C126 O150 1.247 . S
C126 O152 1.289 . S
Mg127 O128 1.926 . S
Mg127 O137 1.984 . S
Mg127 O139 1.988 . S
Mg127 O140 2.061 . S
O128 Mg127 1.926 . S
O128 Mg129 1.986 . S
O128 Mg130 1.917 . S
Mg129 O128 1.986 . S
Mg129 O136 2.042 . S
Mg129 O138 2.041 . S
Mg129 O144 2.038 . S
Mg129 O152 2.238 . S
Mg130 O128 1.917 . S
Mg130 O131 1.917 . S
Mg130 O141 2.106 . S
Mg130 O143 2.079 . S
Mg130 O152 2.106 . S
Mg130 O153 2.079 . S
O131 Mg130 1.917 . S
O131 Mg132 1.926 . S
O131 Mg133 1.986 . S
Mg132 O131 1.926 . S
Mg132 O146 1.984 . S
Mg132 O149 1.988 . S
Mg132 O150 2.061 . S
Mg133 O131 1.986 . S
Mg133 O141 2.238 . S
Mg133 O145 2.042 . S
Mg133 O147 2.041 . S
Mg133 O154 2.038 . S
C134 O140 1.247 . S
C134 O141 1.289 . S
C135 O153 1.245 . S
C135 O154 1.274 . S
O136 C124 1.241 . S
O136 Mg129 2.042 . S
O137 C124 1.280 . S
O137 Mg127 1.984 . S
O138 C125 1.277 . S
O138 Mg129 2.041 . S
O139 C125 1.245 . S
O139 Mg127 1.988 . S
O140 Mg127 2.061 . S
O140 C134 1.247 . S
O141 Mg130 2.106 . S
O141 Mg133 2.238 . S
O141 C134 1.289 . S
C142 O143 1.245 . S
C142 O144 1.274 . S
O143 Mg130 2.079 . S
O143 C142 1.245 . S
O144 Mg129 2.038 . S
O144 C142 1.274 . S
O145 Mg133 2.042 . S
O145 C148 1.241 . S
O146 Mg132 1.984 . S
O146 C148 1.280 . S
O147 Mg133 2.041 . S
O147 C151 1.277 . S
C148 O145 1.241 . S
C148 O146 1.280 . S
O149 Mg132 1.988 . S
O149 C151 1.245 . S
O150 C126 1.247 . S
O150 Mg132 2.061 . S
C151 O147 1.277 . S
C151 O149 1.245 . S
O152 C126 1.289 . S
O152 Mg129 2.238 . S
O152 Mg130 2.106 . S
O153 Mg130 2.079 . S
O153 C135 1.245 . S
O154 Mg133 2.038 . S
O154 C135 1.274 . S
C155 O167 1.241 . S
C155 O168 1.280 . S
C156 O169 1.277 . S
C156 O170 1.245 . S
C157 O181 1.247 . S
C157 O183 1.289 . S
Mg158 O159 1.926 . S
Mg158 O168 1.984 . S
Mg158 O170 1.988 . S
Mg158 O171 2.061 . S
O159 Mg158 1.926 . S
O159 Mg160 1.986 . S
O159 Mg161 1.917 . S
Mg160 O159 1.986 . S
Mg160 O167 2.042 . S
Mg160 O169 2.041 . S
Mg160 O175 2.038 . S
Mg160 O183 2.238 . S
Mg161 O159 1.917 . S
Mg161 O162 1.917 . S
Mg161 O172 2.106 . S
Mg161 O174 2.079 . S
Mg161 O183 2.106 . S
Mg161 O184 2.079 . S
O162 Mg161 1.917 . S
O162 Mg163 1.926 . S
O162 Mg164 1.986 . S
Mg163 O162 1.926 . S
Mg163 O177 1.984 . S
Mg163 O180 1.988 . S
Mg163 O181 2.061 . S
Mg164 O162 1.986 . S
Mg164 O172 2.238 . S
Mg164 O176 2.042 . S
Mg164 O178 2.041 . S
Mg164 O185 2.038 . S
C165 O171 1.247 . S
C165 O172 1.289 . S
C166 O184 1.245 . S
C166 O185 1.274 . S
O167 C155 1.241 . S
O167 Mg160 2.042 . S
O168 C155 1.280 . S
O168 Mg158 1.984 . S
O169 C156 1.277 . S
O169 Mg160 2.041 . S
O170 C156 1.245 . S
O170 Mg158 1.988 . S
O171 Mg158 2.061 . S
O171 C165 1.247 . S
O172 Mg161 2.106 . S
O172 Mg164 2.238 . S
O172 C165 1.289 . S
C173 O174 1.245 . S
C173 O175 1.274 . S
O174 Mg161 2.079 . S
O174 C173 1.245 . S
O175 Mg160 2.038 . S
O175 C173 1.274 . S
O176 Mg164 2.042 . S
O176 C179 1.241 . S
O177 Mg163 1.984 . S
O177 C179 1.280 . S
O178 Mg164 2.041 . S
O178 C182 1.277 . S
C179 O176 1.241 . S
C179 O177 1.280 . S
O180 Mg163 1.988 . S
O180 C182 1.245 . S
O181 C157 1.247 . S
O181 Mg163 2.061 . S
C182 O178 1.277 . S
C182 O180 1.245 . S
O183 C157 1.289 . S
O183 Mg160 2.238 . S
O183 Mg161 2.106 . S
O184 Mg161 2.079 . S
O184 C166 1.245 . S
O185 Mg164 2.038 . S
O185 C166 1.274 . S
C186 O198 1.241 . S
C186 O199 1.280 . S
C187 O200 1.277 . S
C187 O201 1.245 . S
C188 O212 1.247 . S
C188 O214 1.289 . S
Mg189 O190 1.926 . S
Mg189 O199 1.984 . S
Mg189 O201 1.988 . S
Mg189 O202 2.061 . S
O190 Mg189 1.926 . S
O190 Mg191 1.986 . S
O190 Mg192 1.917 . S
Mg191 O190 1.986 . S
Mg191 O198 2.042 . S
Mg191 O200 2.041 . S
Mg191 O206 2.038 . S
Mg191 O214 2.238 . S
Mg192 O190 1.917 . S
Mg192 O193 1.917 . S
Mg192 O203 2.106 . S
Mg192 O205 2.079 . S
Mg192 O214 2.106 . S
Mg192 O215 2.079 . S
O193 Mg192 1.917 . S
O193 Mg194 1.926 . S
O193 Mg195 1.986 . S
Mg194 O193 1.926 . S
Mg194 O208 1.984 . S
Mg194 O211 1.988 . S
Mg194 O212 2.061 . S
Mg195 O193 1.986 . S
Mg195 O203 2.238 . S
Mg195 O207 2.042 . S
Mg195 O209 2.041 . S
Mg195 O216 2.038 . S
C196 O202 1.247 . S
C196 O203 1.289 . S
C197 O215 1.245 . S
C197 O216 1.274 . S
O198 C186 1.241 . S
O198 Mg191 2.042 . S
O199 C186 1.280 . S
O199 Mg189 1.984 . S
O200 C187 1.277 . S
O200 Mg191 2.041 . S
O201 C187 1.245 . S
O201 Mg189 1.988 . S
O202 Mg189 2.061 . S
O202 C196 1.247 . S
O203 Mg192 2.106 . S
O203 Mg195 2.238 . S
O203 C196 1.289 . S
C204 O205 1.245 . S
C204 O206 1.274 . S
O205 Mg192 2.079 . S
O205 C204 1.245 . S
O206 Mg191 2.038 . S
O206 C204 1.274 . S
O207 Mg195 2.042 . S
O207 C210 1.241 . S
O208 Mg194 1.984 . S
O208 C210 1.280 . S
O209 Mg195 2.041 . S
O209 C213 1.277 . S
C210 O207 1.241 . S
C210 O208 1.280 . S
O211 Mg194 1.988 . S
O211 C213 1.245 . S
O212 C188 1.247 . S
O212 Mg194 2.061 . S
C213 O209 1.277 . S
C213 O211 1.245 . S
O214 C188 1.289 . S
O214 Mg191 2.238 . S
O214 Mg192 2.106 . S
O215 Mg192 2.079 . S
O215 C197 1.245 . S
O216 Mg195 2.038 . S
O216 C197 1.274 . S
C217 O229 1.241 . S
C217 O230 1.280 . S
C218 O231 1.277 . S
C218 O232 1.245 . S
C219 O243 1.247 . S
C219 O245 1.289 . S
Mg220 O221 1.926 . S
Mg220 O230 1.984 . S
Mg220 O232 1.988 . S
Mg220 O233 2.061 1_556 S
O221 Mg220 1.926 . S
O221 Mg222 1.986 . S
O221 Mg223 1.917 . S
Mg222 O221 1.986 . S
Mg222 O229 2.042 . S
Mg222 O231 2.041 . S
Mg222 O237 2.038 . S
Mg222 O245 2.238 . S
Mg223 O221 1.917 . S
Mg223 O224 1.917 . S
Mg223 O234 2.106 . S
Mg223 O236 2.079 . S
Mg223 O245 2.106 . S
Mg223 O246 2.079 . S
O224 Mg223 1.917 . S
O224 Mg225 1.926 . S
O224 Mg226 1.986 . S
Mg225 O224 1.926 . S
Mg225 O239 1.984 . S
Mg225 O242 1.988 . S
Mg225 O243 2.061 . S
Mg226 O224 1.986 . S
Mg226 O234 2.238 . S
Mg226 O238 2.042 . S
Mg226 O240 2.041 . S
Mg226 O247 2.038 . S
C227 O233 1.247 . S
C227 O234 1.289 1_554 S
C228 O246 1.245 . S
C228 O247 1.274 . S
O229 C217 1.241 . S
O229 Mg222 2.042 . S
O230 C217 1.280 . S
O230 Mg220 1.984 . S
O231 C218 1.277 . S
O231 Mg222 2.041 . S
O232 C218 1.245 . S
O232 Mg220 1.988 . S
O233 Mg220 2.061 1_554 S
O233 C227 1.247 . S
O234 Mg223 2.106 . S
O234 Mg226 2.238 . S
O234 C227 1.289 1_556 S
C235 O236 1.245 . S
C235 O237 1.274 . S
O236 Mg223 2.079 . S
O236 C235 1.245 . S
O237 Mg222 2.038 . S
O237 C235 1.274 . S
O238 Mg226 2.042 . S
O238 C241 1.241 . S
O239 Mg225 1.984 . S
O239 C241 1.280 . S
O240 Mg226 2.041 . S
O240 C244 1.277 . S
C241 O238 1.241 . S
C241 O239 1.280 . S
O242 Mg225 1.988 . S
O242 C244 1.245 . S
O243 C219 1.247 . S
O243 Mg225 2.061 . S
C244 O240 1.277 . S
C244 O242 1.245 . S
O245 C219 1.289 . S
O245 Mg222 2.238 . S
O245 Mg223 2.106 . S
O246 Mg223 2.079 . S
O246 C228 1.245 . S
O247 Mg226 2.038 . S
O247 C228 1.274 . S
C248 O260 1.241 . S
C248 O261 1.280 . S
C249 O262 1.277 . S
C249 O263 1.245 . S
C250 O274 1.247 . S
C250 O276 1.289 . S
Mg251 O252 1.926 . S
Mg251 O261 1.984 . S
Mg251 O263 1.988 . S
Mg251 O264 2.061 . S
O252 Mg251 1.926 . S
O252 Mg253 1.986 . S
O252 Mg254 1.917 . S
Mg253 O252 1.986 . S
Mg253 O260 2.042 . S
Mg253 O262 2.041 . S
Mg253 O268 2.038 . S
Mg253 O276 2.238 . S
Mg254 O252 1.917 . S
Mg254 O255 1.917 . S
Mg254 O265 2.106 . S
Mg254 O267 2.079 . S
Mg254 O276 2.106 . S
Mg254 O277 2.079 . S
O255 Mg254 1.917 . S
O255 Mg256 1.926 . S
O255 Mg257 1.986 . S
Mg256 O255 1.926 . S
Mg256 O270 1.984 . S
Mg256 O273 1.988 . S
Mg256 O274 2.061 . S
Mg257 O255 1.986 . S
Mg257 O265 2.238 . S
Mg257 O269 2.042 . S
Mg257 O271 2.041 . S
Mg257 O278 2.038 . S
C258 O264 1.247 . S
C258 O265 1.289 . S
C259 O277 1.245 . S
C259 O278 1.274 . S
O260 C248 1.241 . S
O260 Mg253 2.042 . S
O261 C248 1.280 . S
O261 Mg251 1.984 . S
O262 C249 1.277 . S
O262 Mg253 2.041 . S
O263 C249 1.245 . S
O263 Mg251 1.988 . S
O264 Mg251 2.061 . S
O264 C258 1.247 . S
O265 Mg254 2.106 . S
O265 Mg257 2.238 . S
O265 C258 1.289 . S
C266 O267 1.245 . S
C266 O268 1.274 . S
O267 Mg254 2.079 . S
O267 C266 1.245 . S
O268 Mg253 2.038 . S
O268 C266 1.274 . S
O269 Mg257 2.042 . S
O269 C272 1.241 . S
O270 Mg256 1.984 . S
O270 C272 1.280 . S
O271 Mg257 2.041 . S
O271 C275 1.277 . S
C272 O269 1.241 . S
C272 O270 1.280 . S
O273 Mg256 1.988 . S
O273 C275 1.245 . S
O274 C250 1.247 . S
O274 Mg256 2.061 . S
C275 O271 1.277 . S
C275 O273 1.245 . S
O276 C250 1.289 . S
O276 Mg253 2.238 . S
O276 Mg254 2.106 . S
O277 Mg254 2.079 . S
O277 C259 1.245 . S
O278 Mg257 2.038 . S
O278 C259 1.274 . S
H279 C287 0.950 . S
H280 C292 0.950 . S
H281 C289 0.950 . S
H282 C291 0.950 . S
H283 C293 0.950 . S
H284 C295 0.950 . S
H285 C297 0.950 . S
H286 C298 0.950 . S
C287 H279 0.950 . S
C287 C288 1.386 . S
C287 C289 1.391 . S
C288 C287 1.386 . S
C288 C292 1.393 . S
C289 H281 0.950 . S
C289 C287 1.391 . S
C289 C290 1.400 . S
C290 C289 1.400 . S
C290 C291 1.398 . S
C290 C296 1.491 . S
C291 H282 0.950 . S
C291 C290 1.398 . S
C291 C292 1.391 . S
C292 H280 0.950 . S
C292 C288 1.393 . S
C292 C291 1.391 . S
C293 H283 0.950 . S
C293 C294 1.386 . S
C293 C295 1.391 . S
C294 C293 1.386 . S
C294 C298 1.393 . S
C295 H284 0.950 . S
C295 C293 1.391 . S
C295 C296 1.400 . S
C296 C290 1.491 . S
C296 C295 1.400 . S
C296 C297 1.398 . S
C297 H285 0.950 . S
C297 C296 1.398 . S
C297 C298 1.391 . S
C298 H286 0.950 . S
C298 C294 1.393 . S
C298 C297 1.391 . S
H299 C307 0.950 . S
H300 C312 0.950 . S
H301 C309 0.950 . S
H302 C311 0.950 . S
H303 C313 0.950 . S
H304 C315 0.950 . S
H305 C317 0.950 . S
H306 C318 0.950 1_556 S
C307 H299 0.950 . S
C307 C308 1.386 . S
C307 C309 1.391 . S
C308 C307 1.386 . S
C308 C312 1.393 . S
C309 H301 0.950 . S
C309 C307 1.391 . S
C309 C310 1.400 . S
C310 C309 1.400 . S
C310 C311 1.398 . S
C310 C316 1.491 . S
C311 H302 0.950 . S
C311 C310 1.398 . S
C311 C312 1.391 . S
C312 H300 0.950 . S
C312 C308 1.393 . S
C312 C311 1.391 . S
C313 H303 0.950 . S
C313 C314 1.386 . S
C313 C315 1.391 . S
C314 C313 1.386 . S
C314 C318 1.393 . S
C315 H304 0.950 . S
C315 C313 1.391 . S
C315 C316 1.400 . S
C316 C310 1.491 . S
C316 C315 1.400 . S
C316 C317 1.398 . S
C317 H305 0.950 . S
C317 C316 1.398 . S
C317 C318 1.391 . S
C318 H306 0.950 1_554 S
C318 C314 1.393 . S
C318 C317 1.391 . S
H319 C327 0.950 1_455 S
H320 C332 0.950 . S
H321 C329 0.950 . S
H322 C331 0.950 . S
H323 C333 0.950 . S
H324 C335 0.950 . S
H325 C337 0.950 . S
H326 C338 0.950 . S
C327 H319 0.950 1_655 S
C327 C328 1.386 1_554 S
C327 C329 1.391 . S
C328 C327 1.386 1_556 S
C328 C332 1.393 . S
C329 H321 0.950 . S
C329 C327 1.391 . S
C329 C330 1.400 . S
C330 C329 1.400 . S
C330 C331 1.398 1_554 S
C330 C336 1.491 . S
C331 H322 0.950 . S
C331 C330 1.398 1_556 S
C331 C332 1.391 . S
C332 H320 0.950 . S
C332 C328 1.393 . S
C332 C331 1.391 . S
C333 H323 0.950 . S
C333 C334 1.386 . S
C333 C335 1.391 . S
C334 C333 1.386 . S
C334 C338 1.393 . S
C335 H324 0.950 . S
C335 C333 1.391 . S
C335 C336 1.400 . S
C336 C330 1.491 . S
C336 C335 1.400 . S
C336 C337 1.398 . S
C337 H325 0.950 . S
C337 C336 1.398 . S
C337 C338 1.391 . S
C338 H326 0.950 . S
C338 C334 1.393 . S
C338 C337 1.391 . S
H339 C347 0.950 . S
H340 C352 0.950 . S
H341 C349 0.950 . S
H342 C351 0.950 . S
H343 C353 0.950 . S
H344 C355 0.950 . S
H345 C357 0.950 . S
H346 C358 0.950 . S
C347 H339 0.950 . S
C347 C348 1.386 . S
C347 C349 1.391 . S
C348 C347 1.386 . S
C348 C352 1.393 . S
C349 H341 0.950 . S
C349 C347 1.391 . S
C349 C350 1.400 . S
C350 C349 1.400 . S
C350 C351 1.398 . S
C350 C356 1.491 . S
C351 H342 0.950 . S
C351 C350 1.398 . S
C351 C352 1.391 . S
C352 H340 0.950 . S
C352 C348 1.393 . S
C352 C351 1.391 . S
C353 H343 0.950 . S
C353 C354 1.386 . S
C353 C355 1.391 . S
C354 C353 1.386 . S
C354 C358 1.393 . S
C355 H344 0.950 . S
C355 C353 1.391 . S
C355 C356 1.400 . S
C356 C350 1.491 . S
C356 C355 1.400 . S
C356 C357 1.398 . S
C357 H345 0.950 . S
C357 C356 1.398 . S
C357 C358 1.391 . S
C358 H346 0.950 . S
C358 C354 1.393 . S
C358 C357 1.391 . S
H359 C367 0.950 . S
H360 C372 0.950 . S
H361 C369 0.950 . S
H362 C371 0.950 . S
H363 C373 0.950 . S
H364 C375 0.950 . S
H365 C377 0.950 . S
H366 C378 0.950 . S
C367 H359 0.950 . S
C367 C368 1.386 1_565 S
C367 C369 1.391 1_565 S
C368 C367 1.386 1_545 S
C368 C372 1.393 . S
C369 H361 0.950 . S
C369 C367 1.391 1_545 S
C369 C370 1.400 . S
C370 C369 1.400 . S
C370 C371 1.398 . S
C370 C376 1.491 . S
C371 H362 0.950 . S
C371 C370 1.398 . S
C371 C372 1.391 . S
C372 H360 0.950 . S
C372 C368 1.393 . S
C372 C371 1.391 . S
C373 H363 0.950 . S
C373 C374 1.386 . S
C373 C375 1.391 . S
C374 C373 1.386 . S
C374 C378 1.393 . S
C375 H364 0.950 . S
C375 C373 1.391 . S
C375 C376 1.400 . S
C376 C370 1.491 . S
C376 C375 1.400 . S
C376 C377 1.398 . S
C377 H365 0.950 . S
C377 C376 1.398 . S
C377 C378 1.391 . S
C378 H366 0.950 . S
C378 C374 1.393 . S
C378 C377 1.391 . S
H379 C387 0.950 . S
H380 C392 0.950 . S
H381 C389 0.950 . S
H382 C391 0.950 . S
H383 C393 0.950 . S
H384 C395 0.950 . S
H385 C397 0.950 . S
H386 C398 0.950 . S
C387 H379 0.950 . S
C387 C388 1.371 1_655 S
C387 C389 1.391 . S
C388 C387 1.371 1_455 S
C388 C392 1.384 . S
C389 H381 0.950 . S
C389 C387 1.391 . S
C389 C390 1.400 . S
C390 C389 1.400 . S
C390 C391 1.398 . S
C390 C396 1.491 . S
C391 H382 0.950 . S
C391 C390 1.398 . S
C391 C392 1.391 1_655 S
C392 H380 0.950 . S
C392 C388 1.384 . S
C392 C391 1.391 1_455 S
C393 H383 0.950 . S
C393 C394 1.386 . S
C393 C395 1.391 . S
C394 C393 1.386 . S
C394 C398 1.393 . S
C395 H384 0.950 . S
C395 C393 1.391 . S
C395 C396 1.400 . S
C396 C390 1.491 . S
C396 C395 1.400 . S
C396 C397 1.398 . S
C397 H385 0.950 . S
C397 C396 1.398 . S
C397 C398 1.391 . S
C398 H386 0.950 . S
C398 C394 1.393 . S
C398 C397 1.391 . S
H399 C407 0.950 . S
H400 C412 0.950 . S
H401 C409 0.950 . S
H402 C411 0.950 . S
H403 C413 0.950 . S
H404 C415 0.950 . S
H405 C417 0.950 . S
H406 C418 0.950 . S
C407 H399 0.950 . S
C407 C408 1.386 . S
C407 C409 1.391 . S
C408 C407 1.386 . S
C408 C412 1.393 . S
C409 H401 0.950 . S
C409 C407 1.391 . S
C409 C410 1.400 . S
C410 C409 1.400 . S
C410 C411 1.398 . S
C410 C416 1.491 . S
C411 H402 0.950 . S
C411 C410 1.398 . S
C411 C412 1.391 . S
C412 H400 0.950 . S
C412 C408 1.393 . S
C412 C411 1.391 . S
C413 H403 0.950 . S
C413 C414 1.386 1_655 S
C413 C415 1.391 . S
C414 C413 1.386 1_455 S
C414 C418 1.393 . S
C415 H404 0.950 . S
C415 C413 1.391 . S
C415 C416 1.400 . S
C416 C410 1.491 . S
C416 C415 1.400 . S
C416 C417 1.399 1_655 S
C417 H405 0.950 . S
C417 C416 1.399 1_455 S
C417 C418 1.390 . S
C418 H406 0.950 . S
C418 C414 1.393 . S
C418 C417 1.390 . S
H419 C427 0.950 . S
H420 C432 0.950 . S
H421 C429 0.950 . S
H422 C431 0.950 . S
H423 C433 0.950 . S
H424 C435 0.950 . S
H425 C437 0.950 . S
H426 C438 0.950 . S
C427 H419 0.950 . S
C427 C428 1.386 . S
C427 C429 1.391 . S
C428 C427 1.386 . S
C428 C432 1.393 . S
C429 H421 0.950 . S
C429 C427 1.391 . S
C429 C430 1.400 . S
C430 C429 1.400 . S
C430 C431 1.398 . S
C430 C436 1.491 . S
C431 H422 0.950 . S
C431 C430 1.398 . S
C431 C432 1.391 . S
C432 H420 0.950 . S
C432 C428 1.393 . S
C432 C431 1.391 . S
C433 H423 0.950 . S
C433 C434 1.386 . S
C433 C435 1.391 . S
C434 C433 1.386 . S
C434 C438 1.393 . S
C435 H424 0.950 . S
C435 C433 1.391 . S
C435 C436 1.400 . S
C436 C430 1.491 . S
C436 C435 1.400 . S
C436 C437 1.398 . S
C437 H425 0.950 . S
C437 C436 1.398 . S
C437 C438 1.391 . S
C438 H426 0.950 . S
C438 C434 1.393 . S
C438 C437 1.391 . S
H439 C447 0.950 . S
H440 C452 0.950 1_565 S
H441 C449 0.950 . S
H442 C451 0.950 . S
H443 C453 0.950 . S
H444 C455 0.950 . S
H445 C457 0.950 . S
H446 C458 0.950 . S
C447 H439 0.950 . S
C447 C448 1.386 . S
C447 C449 1.391 1_565 S
C448 C447 1.386 . S
C448 C452 1.393 1_565 S
C449 H441 0.950 . S
C449 C447 1.391 1_545 S
C449 C450 1.400 . S
C450 C449 1.400 . S
C450 C451 1.398 . S
C450 C456 1.491 . S
C451 H442 0.950 . S
C451 C450 1.398 . S
C451 C452 1.391 . S
C452 H440 0.950 1_545 S
C452 C448 1.393 1_545 S
C452 C451 1.391 . S
C453 H443 0.950 . S
C453 C454 1.386 . S
C453 C455 1.391 . S
C454 C453 1.386 . S
C454 C458 1.393 . S
C455 H444 0.950 . S
C455 C453 1.391 . S
C455 C456 1.400 . S
C456 C450 1.491 . S
C456 C455 1.400 . S
C456 C457 1.398 . S
C457 H445 0.950 . S
C457 C456 1.398 . S
C457 C458 1.391 . S
C458 H446 0.950 . S
C458 C454 1.393 . S
C458 C457 1.391 . S
H459 C467 0.950 . S
H460 C472 0.950 . S
H461 C469 0.950 . S
H462 C471 0.950 . S
H463 C473 0.950 . S
H464 C475 0.950 . S
H465 C477 0.950 . S
H466 C478 0.950 . S
C467 H459 0.950 . S
C467 C468 1.386 . S
C467 C469 1.391 . S
C468 C467 1.386 . S
C468 C472 1.393 . S
C469 H461 0.950 . S
C469 C467 1.391 . S
C469 C470 1.400 . S
C470 C469 1.400 . S
C470 C471 1.398 . S
C470 C476 1.491 . S
C471 H462 0.950 . S
C471 C470 1.398 . S
C471 C472 1.391 . S
C472 H460 0.950 . S
C472 C468 1.393 . S
C472 C471 1.391 . S
C473 H463 0.950 . S
C473 C474 1.386 . S
C473 C475 1.391 . S
C474 C473 1.386 . S
C474 C478 1.393 . S
C475 H464 0.950 . S
C475 C473 1.391 . S
C475 C476 1.400 1_565 S
C476 C470 1.491 . S
C476 C475 1.400 1_545 S
C476 C477 1.398 . S
C477 H465 0.950 . S
C477 C476 1.398 . S
C477 C478 1.391 1_545 S
C478 H466 0.950 . S
C478 C474 1.393 . S
C478 C477 1.391 1_565 S
H479 C487 0.950 1_455 S
H480 C492 0.950 1_455 S
H481 C489 0.950 . S
H482 C491 0.950 . S
H483 C493 0.950 . S
H484 C495 0.950 . S
H485 C497 0.950 . S
H486 C498 0.950 . S
C487 H479 0.950 1_655 S
C487 C488 1.386 1_655 S
C487 C489 1.391 . S
C488 C487 1.386 1_455 S
C488 C492 1.393 1_455 S
C489 H481 0.950 . S
C489 C487 1.391 . S
C489 C490 1.400 . S
C490 C489 1.400 . S
C490 C491 1.398 . S
C490 C496 1.491 . S
C491 H482 0.950 . S
C491 C490 1.398 . S
C491 C492 1.391 . S
C492 H480 0.950 1_655 S
C492 C488 1.393 1_655 S
C492 C491 1.391 . S
C493 H483 0.950 . S
C493 C494 1.386 . S
C493 C495 1.391 . S
C494 C493 1.386 . S
C494 C498 1.393 . S
C495 H484 0.950 . S
C495 C493 1.391 . S
C495 C496 1.400 . S
C496 C490 1.491 . S
C496 C495 1.400 . S
C496 C497 1.398 . S
C497 H485 0.950 . S
C497 C496 1.398 . S
C497 C498 1.391 . S
C498 H486 0.950 . S
C498 C494 1.393 . S
C498 C497 1.391 . S
H499 C507 0.950 . S
H500 C512 0.950 . S
H501 C509 0.950 . S
H502 C511 0.950 . S
H503 C513 0.950 . S
H504 C515 0.950 . S
H505 C517 0.950 . S
H506 C518 0.950 . S
C507 H499 0.950 . S
C507 C508 1.386 . S
C507 C509 1.391 . S
C508 C507 1.386 . S
C508 C512 1.393 . S
C509 H501 0.950 . S
C509 C507 1.391 . S
C509 C510 1.400 . S
C510 C509 1.400 . S
C510 C511 1.398 . S
C510 C516 1.491 . S
C511 H502 0.950 . S
C511 C510 1.398 . S
C511 C512 1.391 . S
C512 H500 0.950 . S
C512 C508 1.393 . S
C512 C511 1.391 . S
C513 H503 0.950 . S
C513 C514 1.386 . S
C513 C515 1.391 . S
C514 C513 1.386 . S
C514 C518 1.393 . S
C515 H504 0.950 . S
C515 C513 1.391 . S
C515 C516 1.400 . S
C516 C510 1.491 . S
C516 C515 1.400 . S
C516 C517 1.398 . S
C517 H505 0.950 . S
C517 C516 1.398 . S
C517 C518 1.391 . S
C518 H506 0.950 . S
C518 C514 1.393 . S
C518 C517 1.391 . S
H519 C527 0.950 . S
H520 C532 0.950 . S
H521 C529 0.950 . S
H522 C531 0.950 1_554 S
H523 C533 0.950 . S
H524 C535 0.950 . S
H525 C537 0.950 . S
H526 C538 0.950 1_556 S
C527 H519 0.950 . S
C527 C528 1.386 . S
C527 C529 1.391 . S
C528 C527 1.386 . S
C528 C532 1.393 . S
C529 H521 0.950 . S
C529 C527 1.391 . S
C529 C530 1.400 . S
C530 C529 1.400 . S
C530 C531 1.398 . S
C530 C536 1.491 1_556 S
C531 H522 0.950 1_556 S
C531 C530 1.398 . S
C531 C532 1.391 . S
C532 H520 0.950 . S
C532 C528 1.393 . S
C532 C531 1.391 . S
C533 H523 0.950 . S
C533 C534 1.386 . S
C533 C535 1.391 . S
C534 C533 1.386 . S
C534 C538 1.393 . S
C535 H524 0.950 . S
C535 C533 1.391 . S
C535 C536 1.400 . S
C536 C530 1.491 1_554 S
C536 C535 1.400 . S
C536 C537 1.398 1_554 S
C537 H525 0.950 . S
C537 C536 1.398 1_556 S
C537 C538 1.391 1_556 S
C538 H526 0.950 1_554 S
C538 C534 1.393 . S
C538 C537 1.391 1_554 S
H539 C547 0.950 . S
H540 C552 0.950 . S
H541 C549 0.950 . S
H542 C551 0.950 . S
H543 C553 0.950 . S
H544 C555 0.950 . S
H545 C557 0.950 . S
H546 C558 0.950 . S
C547 H539 0.950 . S
C547 C548 1.386 . S
C547 C549 1.391 . S
C548 C547 1.386 . S
C548 C552 1.393 . S
C549 H541 0.950 . S
C549 C547 1.391 . S
C549 C550 1.400 . S
C550 C549 1.400 . S
C550 C551 1.398 . S
C550 C556 1.491 . S
C551 H542 0.950 . S
C551 C550 1.398 . S
C551 C552 1.391 . S
C552 H540 0.950 . S
C552 C548 1.393 . S
C552 C551 1.391 . S
C553 H543 0.950 . S
C553 C554 1.386 . S
C553 C555 1.391 . S
C554 C553 1.386 . S
C554 C558 1.393 . S
C555 H544 0.950 . S
C555 C553 1.391 . S
C555 C556 1.400 . S
C556 C550 1.491 . S
C556 C555 1.400 . S
C556 C557 1.398 . S
C557 H545 0.950 . S
C557 C556 1.398 . S
C557 C558 1.391 . S
C558 H546 0.950 . S
C558 C554 1.393 . S
C558 C557 1.391 . S
H559 C567 0.950 . S
H560 C572 0.950 1_554 S
H561 C569 0.950 . S
H562 C571 0.950 . S
H563 C573 0.950 . S
H564 C575 0.950 . S
H565 C577 0.950 . S
H566 C578 0.950 . S
C567 H559 0.950 . S
C567 C568 1.386 . S
C567 C569 1.391 . S
C568 C567 1.386 . S
C568 C572 1.393 . S
C569 H561 0.950 . S
C569 C567 1.391 . S
C569 C570 1.400 . S
C570 C569 1.400 . S
C570 C571 1.398 . S
C570 C576 1.491 . S
C571 H562 0.950 . S
C571 C570 1.398 . S
C571 C572 1.391 . S
C572 H560 0.950 1_556 S
C572 C568 1.393 . S
C572 C571 1.391 . S
C573 H563 0.950 . S
C573 C574 1.386 . S
C573 C575 1.391 . S
C574 C573 1.386 . S
C574 C578 1.393 . S
C575 H564 0.950 . S
C575 C573 1.391 . S
C575 C576 1.400 . S
C576 C570 1.491 . S
C576 C575 1.400 . S
C576 C577 1.398 . S
C577 H565 0.950 . S
C577 C576 1.398 . S
C577 C578 1.391 . S
C578 H566 0.950 . S
C578 C574 1.393 . S
C578 C577 1.391 . S
H579 C587 0.950 . S
H580 C592 0.950 . S
H581 C589 0.950 . S
H582 C591 0.950 . S
H583 C593 0.950 . S
H584 C595 0.950 . S
H585 C597 0.950 1_554 S
H586 C598 0.950 . S
C587 H579 0.950 . S
C587 C588 1.386 . S
C587 C589 1.391 . S
C588 C587 1.386 . S
C588 C592 1.393 1_554 S
C589 H581 0.950 . S
C589 C587 1.391 . S
C589 C590 1.400 1_554 S
C590 C589 1.400 1_556 S
C590 C591 1.398 . S
C590 C596 1.491 . S
C591 H582 0.950 . S
C591 C590 1.398 . S
C591 C592 1.391 . S
C592 H580 0.950 . S
C592 C588 1.393 1_556 S
C592 C591 1.391 . S
C593 H583 0.950 . S
C593 C594 1.386 . S
C593 C595 1.391 . S
C594 C593 1.386 . S
C594 C598 1.393 . S
C595 H584 0.950 . S
C595 C593 1.391 . S
C595 C596 1.400 . S
C596 C590 1.491 . S
C596 C595 1.400 . S
C596 C597 1.398 . S
C597 H585 0.950 1_556 S
C597 C596 1.398 . S
C597 C598 1.391 . S
C598 H586 0.950 . S
C598 C594 1.393 . S
C598 C597 1.391 . S
H599 C607 0.950 . S
H600 C612 0.950 . S
H601 C609 0.950 . S
H602 C611 0.950 . S
H603 C613 0.950 . S
H604 C615 0.950 . S
H605 C617 0.950 . S
H606 C618 0.950 . S
C607 H599 0.950 . S
C607 C608 1.386 1_554 S
C607 C609 1.391 1_554 S
C608 C607 1.386 1_556 S
C608 C612 1.393 . S
C609 H601 0.950 . S
C609 C607 1.391 1_556 S
C609 C610 1.400 . S
C610 C609 1.400 . S
C610 C611 1.398 . S
C610 C616 1.491 . S
C611 H602 0.950 . S
C611 C610 1.398 . S
C611 C612 1.391 . S
C612 H600 0.950 . S
C612 C608 1.393 . S
C612 C611 1.391 . S
C613 H603 0.950 . S
C613 C614 1.386 . S
C613 C615 1.391 . S
C614 C613 1.386 . S
C614 C618 1.393 . S
C615 H604 0.950 . S
C615 C613 1.391 . S
C615 C616 1.400 . S
C616 C610 1.491 . S
C616 C615 1.400 . S
C616 C617 1.398 . S
C617 H605 0.950 . S
C617 C616 1.398 . S
C617 C618 1.391 . S
C618 H606 0.950 . S
C618 C614 1.393 . S
C618 C617 1.391 . S
H619 C627 0.950 . S
H620 C632 0.950 . S
H621 C629 0.950 . S
H622 C631 0.950 . S
H623 C633 0.950 . S
H624 C635 0.950 . S
H625 C637 0.950 . S
H626 C638 0.950 . S
C627 H619 0.950 . S
C627 C628 1.386 . S
C627 C629 1.391 . S
C628 C627 1.386 . S
C628 C632 1.393 . S
C629 H621 0.950 . S
C629 C627 1.391 . S
C629 C630 1.400 . S
C630 C629 1.400 . S
C630 C631 1.398 . S
C630 C636 1.491 . S
C631 H622 0.950 . S
C631 C630 1.398 . S
C631 C632 1.391 . S
C632 H620 0.950 . S
C632 C628 1.393 . S
C632 C631 1.391 . S
C633 H623 0.950 . S
C633 C634 1.386 . S
C633 C635 1.391 . S
C634 C633 1.386 . S
C634 C638 1.393 . S
C635 H624 0.950 . S
C635 C633 1.391 . S
C635 C636 1.400 . S
C636 C630 1.491 . S
C636 C635 1.400 . S
C636 C637 1.398 . S
C637 H625 0.950 . S
C637 C636 1.398 . S
C637 C638 1.391 . S
C638 H626 0.950 . S
C638 C634 1.393 . S
C638 C637 1.391 . S
H639 C647 0.950 . S
H640 C652 0.950 . S
H641 C649 0.950 . S
H642 C651 0.950 . S
H643 C653 0.950 . S
H644 C655 0.950 . S
H645 C657 0.950 . S
H646 C658 0.950 . S
C647 H639 0.950 . S
C647 C648 1.384 1_546 S
C647 C649 1.391 . S
C648 C647 1.384 1_564 S
C648 C652 1.396 . S
C649 H641 0.950 . S
C649 C647 1.391 . S
C649 C650 1.400 1_556 S
C650 C649 1.400 1_554 S
C650 C651 1.398 . S
C650 C656 1.491 . S
C651 H642 0.950 . S
C651 C650 1.398 . S
C651 C652 1.391 1_545 S
C652 H640 0.950 . S
C652 C648 1.396 . S
C652 C651 1.391 1_565 S
C653 H643 0.950 . S
C653 C654 1.386 . S
C653 C655 1.391 . S
C654 C653 1.386 . S
C654 C658 1.393 . S
C655 H644 0.950 . S
C655 C653 1.391 . S
C655 C656 1.400 . S
C656 C650 1.491 . S
C656 C655 1.400 . S
C656 C657 1.398 . S
C657 H645 0.950 . S
C657 C656 1.398 . S
C657 C658 1.391 . S
C658 H646 0.950 . S
C658 C654 1.393 . S
C658 C657 1.391 . S
H659 C667 0.950 . S
H660 C672 0.950 . S
H661 C669 0.950 . S
H662 C671 0.950 . S
H663 C673 0.950 . S
H664 C675 0.950 . S
H665 C677 0.950 . S
H666 C678 0.952 . S
C667 H659 0.950 . S
C667 C668 1.386 . S
C667 C669 1.391 1_455 S
C668 C667 1.386 . S
C668 C672 1.393 1_455 S
C669 H661 0.950 . S
C669 C667 1.391 1_655 S
C669 C670 1.400 . S
C670 C669 1.400 . S
C670 C671 1.398 . S
C670 C676 1.491 . S
C671 H662 0.950 . S
C671 C670 1.398 . S
C671 C672 1.391 . S
C672 H660 0.950 . S
C672 C668 1.393 1_655 S
C672 C671 1.391 . S
C673 H663 0.950 . S
C673 C674 1.386 1_545 S
C673 C675 1.391 . S
C674 C673 1.386 1_565 S
C674 C678 1.392 . S
C675 H664 0.950 . S
C675 C673 1.391 . S
C675 C676 1.400 . S
C676 C670 1.491 . S
C676 C675 1.400 . S
C676 C677 1.398 . S
C677 H665 0.950 . S
C677 C676 1.398 . S
C677 C678 1.389 1_545 S
C678 H666 0.952 . S
C678 C674 1.392 . S
C678 C677 1.389 1_565 S
H679 C687 0.950 . S
H680 C692 0.950 . S
H681 C689 0.950 . S
H682 C691 0.950 . S
H683 C693 0.950 . S
H684 C695 0.950 . S
H685 C697 0.950 . S
H686 C698 0.950 1_455 S
C687 H679 0.950 . S
C687 C688 1.386 . S
C687 C689 1.391 . S
C688 C687 1.386 . S
C688 C692 1.393 . S
C689 H681 0.950 . S
C689 C687 1.391 . S
C689 C690 1.400 . S
C690 C689 1.400 . S
C690 C691 1.398 . S
C690 C696 1.491 . S
C691 H682 0.950 . S
C691 C690 1.398 . S
C691 C692 1.391 . S
C692 H680 0.950 . S
C692 C688 1.393 . S
C692 C691 1.391 . S
C693 H683 0.950 . S
C693 C694 1.386 . S
C693 C695 1.391 . S
C694 C693 1.386 . S
C694 C698 1.393 . S
C695 H684 0.950 . S
C695 C693 1.391 . S
C695 C696 1.400 . S
C696 C690 1.491 . S
C696 C695 1.400 . S
C696 C697 1.398 . S
C697 H685 0.950 . S
C697 C696 1.398 . S
C697 C698 1.391 . S
C698 H686 0.950 1_655 S
C698 C694 1.393 . S
C698 C697 1.391 . S
H699 C707 0.950 . S
H700 C712 0.950 . S
H701 C709 0.950 . S
H702 C711 0.950 . S
H703 C713 0.950 . S
H704 C715 0.950 . S
H705 C717 0.950 . S
H706 C718 0.950 . S
C707 H699 0.950 . S
C707 C708 1.386 . S
C707 C709 1.391 . S
C708 C707 1.386 . S
C708 C712 1.393 . S
C709 H701 0.950 . S
C709 C707 1.391 . S
C709 C710 1.400 . S
C710 C709 1.400 . S
C710 C711 1.398 . S
C710 C716 1.491 . S
C711 H702 0.950 . S
C711 C710 1.398 . S
C711 C712 1.391 . S
C712 H700 0.950 . S
C712 C708 1.393 . S
C712 C711 1.391 . S
C713 H703 0.950 . S
C713 C714 1.386 . S
C713 C715 1.391 . S
C714 C713 1.386 . S
C714 C718 1.393 . S
C715 H704 0.950 . S
C715 C713 1.391 . S
C715 C716 1.400 . S
C716 C710 1.491 . S
C716 C715 1.400 . S
C716 C717 1.398 . S
C717 H705 0.950 . S
C717 C716 1.398 . S
C717 C718 1.391 . S
C718 H706 0.950 . S
C718 C714 1.393 . S
C718 C717 1.391 . S
H719 C727 0.950 . S
H720 C732 0.950 . S
H721 C729 0.950 . S
H722 C731 0.950 . S
H723 C733 0.950 . S
H724 C735 0.950 . S
H725 C737 0.950 . S
H726 C738 0.950 . S
C727 H719 0.950 . S
C727 C728 1.386 . S
C727 C729 1.391 . S
C728 C727 1.386 . S
C728 C732 1.393 . S
C729 H721 0.950 . S
C729 C727 1.391 . S
C729 C730 1.400 . S
C730 C729 1.400 . S
C730 C731 1.398 . S
C730 C736 1.491 . S
C731 H722 0.950 . S
C731 C730 1.398 . S
C731 C732 1.391 . S
C732 H720 0.950 . S
C732 C728 1.393 . S
C732 C731 1.391 . S
C733 H723 0.950 . S
C733 C734 1.386 . S
C733 C735 1.391 . S
C734 C733 1.386 . S
C734 C738 1.393 . S
C735 H724 0.950 . S
C735 C733 1.391 . S
C735 C736 1.400 . S
C736 C730 1.491 . S
C736 C735 1.400 . S
C736 C737 1.398 . S
C737 H725 0.950 . S
C737 C736 1.398 . S
C737 C738 1.391 . S
C738 H726 0.950 . S
C738 C734 1.393 . S
C738 C737 1.391 . S
H739 C747 0.950 . S
H740 C752 0.950 . S
H741 C749 0.950 . S
H742 C751 0.950 . S
H743 C753 0.950 . S
H744 C755 0.950 . S
H745 C757 0.950 . S
H746 C758 0.950 . S
C747 H739 0.950 . S
C747 C748 1.386 . S
C747 C749 1.391 . S
C748 C747 1.386 . S
C748 C752 1.393 . S
C749 H741 0.950 . S
C749 C747 1.391 . S
C749 C750 1.400 . S
C750 C749 1.400 . S
C750 C751 1.398 . S
C750 C756 1.491 . S
C751 H742 0.950 . S
C751 C750 1.398 . S
C751 C752 1.391 . S
C752 H740 0.950 . S
C752 C748 1.393 . S
C752 C751 1.391 . S
C753 H743 0.950 . S
C753 C754 1.386 . S
C753 C755 1.391 . S
C754 C753 1.386 . S
C754 C758 1.393 . S
C755 H744 0.950 . S
C755 C753 1.391 . S
C755 C756 1.400 . S
C756 C750 1.491 . S
C756 C755 1.400 . S
C756 C757 1.398 . S
C757 H745 0.950 . S
C757 C756 1.398 . S
C757 C758 1.391 . S
C758 H746 0.950 . S
C758 C754 1.393 . S
C758 C757 1.391 . S
H759 C767 0.950 . S
H760 C772 0.950 . S
H761 C769 0.950 . S
H762 C771 0.950 . S
H763 C773 0.950 . S
H764 C775 0.950 . S
H765 C777 0.950 . S
H766 C778 0.950 . S
C767 H759 0.950 . S
C767 C768 1.386 . S
C767 C769 1.391 . S
C768 C767 1.386 . S
C768 C772 1.393 . S
C769 H761 0.950 . S
C769 C767 1.391 . S
C769 C770 1.400 . S
C770 C769 1.400 . S
C770 C771 1.398 . S
C770 C776 1.491 . S
C771 H762 0.950 . S
C771 C770 1.398 . S
C771 C772 1.391 . S
C772 H760 0.950 . S
C772 C768 1.393 . S
C772 C771 1.391 . S
C773 H763 0.950 . S
C773 C774 1.386 . S
C773 C775 1.391 . S
C774 C773 1.386 . S
C774 C778 1.393 . S
C775 H764 0.950 . S
C775 C773 1.391 . S
C775 C776 1.400 . S
C776 C770 1.491 . S
C776 C775 1.400 . S
C776 C777 1.398 . S
C777 H765 0.950 . S
C777 C776 1.398 . S
C777 C778 1.391 . S
C778 H766 0.950 . S
C778 C774 1.393 . S
C778 C777 1.391 . S
H779 C787 0.950 1_554 S
H780 C792 0.950 . S
H781 C789 0.950 . S
H782 C791 0.950 . S
H783 C793 0.950 . S
H784 C795 0.950 . S
H785 C797 0.950 . S
H786 C798 0.950 . S
C787 H779 0.950 1_556 S
C787 C788 1.386 . S
C787 C789 1.391 . S
C788 C787 1.386 . S
C788 C792 1.393 . S
C789 H781 0.950 . S
C789 C787 1.391 . S
C789 C790 1.400 . S
C790 C789 1.400 . S
C790 C791 1.398 . S
C790 C796 1.491 . S
C791 H782 0.950 . S
C791 C790 1.398 . S
C791 C792 1.391 . S
C792 H780 0.950 . S
C792 C788 1.393 . S
C792 C791 1.391 . S
C793 H783 0.950 . S
C793 C794 1.386 . S
C793 C795 1.391 . S
C794 C793 1.386 . S
C794 C798 1.393 . S
C795 H784 0.950 . S
C795 C793 1.391 . S
C795 C796 1.400 . S
C796 C790 1.491 . S
C796 C795 1.400 . S
C796 C797 1.398 . S
C797 H785 0.950 . S
C797 C796 1.398 . S
C797 C798 1.391 . S
C798 H786 0.950 . S
C798 C794 1.393 . S
C798 C797 1.391 . S
H799 C807 0.950 . S
H800 C812 0.950 . S
H801 C809 0.950 . S
H802 C811 0.950 . S
H803 C813 0.950 . S
H804 C815 0.950 . S
H805 C817 0.950 . S
H806 C818 0.950 . S
C807 H799 0.950 . S
C807 C808 1.386 . S
C807 C809 1.391 . S
C808 C807 1.386 . S
C808 C812 1.393 . S
C809 H801 0.950 . S
C809 C807 1.391 . S
C809 C810 1.400 . S
C810 C809 1.400 . S
C810 C811 1.398 . S
C810 C816 1.491 . S
C811 H802 0.950 . S
C811 C810 1.398 . S
C811 C812 1.391 . S
C812 H800 0.950 . S
C812 C808 1.393 . S
C812 C811 1.391 . S
C813 H803 0.950 . S
C813 C814 1.386 . S
C813 C815 1.391 . S
C814 C813 1.386 . S
C814 C818 1.393 . S
C815 H804 0.950 . S
C815 C813 1.391 . S
C815 C816 1.400 . S
C816 C810 1.491 . S
C816 C815 1.400 . S
C816 C817 1.398 . S
C817 H805 0.950 . S
C817 C816 1.398 . S
C817 C818 1.391 . S
C818 H806 0.950 . S
C818 C814 1.393 . S
C818 C817 1.391 . S
H819 C827 0.950 . S
H820 C832 0.950 . S
H821 C829 0.950 . S
H822 C831 0.950 . S
H823 C833 0.950 . S
H824 C835 0.950 . S
H825 C837 0.950 . S
H826 C838 0.950 . S
C827 H819 0.950 . S
C827 C828 1.386 . S
C827 C829 1.391 . S
C828 C827 1.386 . S
C828 C832 1.393 . S
C829 H821 0.950 . S
C829 C827 1.391 . S
C829 C830 1.400 . S
C830 C829 1.400 . S
C830 C831 1.398 . S
C830 C836 1.491 . S
C831 H822 0.950 . S
C831 C830 1.398 . S
C831 C832 1.391 . S
C832 H820 0.950 . S
C832 C828 1.393 . S
C832 C831 1.391 . S
C833 H823 0.950 . S
C833 C834 1.386 . S
C833 C835 1.391 . S
C834 C833 1.386 . S
C834 C838 1.393 . S
C835 H824 0.950 . S
C835 C833 1.391 . S
C835 C836 1.400 . S
C836 C830 1.491 . S
C836 C835 1.400 . S
C836 C837 1.398 . S
C837 H825 0.950 . S
C837 C836 1.398 . S
C837 C838 1.391 . S
C838 H826 0.950 . S
C838 C834 1.393 . S
C838 C837 1.391 . S
H839 C847 0.950 . S
H840 C852 0.950 . S
H841 C849 0.950 . S
H842 C851 0.950 . S
H843 C853 0.950 . S
H844 C855 0.950 . S
H845 C857 0.950 . S
H846 C858 0.950 . S
C847 H839 0.950 . S
C847 C848 1.386 . S
C847 C849 1.391 . S
C848 C847 1.386 . S
C848 C852 1.393 . S
C849 H841 0.950 . S
C849 C847 1.391 . S
C849 C850 1.400 . S
C850 C849 1.400 . S
C850 C851 1.398 . S
C850 C856 1.491 . S
C851 H842 0.950 . S
C851 C850 1.398 . S
C851 C852 1.391 . S
C852 H840 0.950 . S
C852 C848 1.393 . S
C852 C851 1.391 . S
C853 H843 0.950 . S
C853 C854 1.386 . S
C853 C855 1.391 . S
C854 C853 1.386 . S
C854 C858 1.393 . S
C855 H844 0.950 . S
C855 C853 1.391 . S
C855 C856 1.400 . S
C856 C850 1.491 . S
C856 C855 1.400 . S
C856 C857 1.398 . S
C857 H845 0.950 . S
C857 C856 1.398 . S
C857 C858 1.391 . S
C858 H846 0.950 . S
C858 C854 1.393 . S
C858 C857 1.391 . S
H859 C867 0.950 . S
H860 C872 0.950 . S
H861 C869 0.950 . S
H862 C871 0.950 . S
H863 C873 0.950 . S
H864 C875 0.950 . S
H865 C877 0.950 . S
H866 C878 0.950 . S
C867 H859 0.950 . S
C867 C868 1.386 . S
C867 C869 1.391 . S
C868 C867 1.386 . S
C868 C872 1.393 . S
C869 H861 0.950 . S
C869 C867 1.391 . S
C869 C870 1.400 . S
C870 C869 1.400 . S
C870 C871 1.398 . S
C870 C876 1.491 . S
C871 H862 0.950 . S
C871 C870 1.398 . S
C871 C872 1.391 . S
C872 H860 0.950 . S
C872 C868 1.393 . S
C872 C871 1.391 . S
C873 H863 0.950 . S
C873 C874 1.386 . S
C873 C875 1.391 . S
C874 C873 1.386 . S
C874 C878 1.393 . S
C875 H864 0.950 . S
C875 C873 1.391 . S
C875 C876 1.400 . S
C876 C870 1.491 . S
C876 C875 1.400 . S
C876 C877 1.398 . S
C877 H865 0.950 . S
C877 C876 1.398 . S
C877 C878 1.391 . S
C878 H866 0.950 . S
C878 C874 1.393 . S
C878 C877 1.391 . S
H879 C887 0.950 . S
H880 C892 0.950 . S
H881 C889 0.950 . S
H882 C891 0.950 . S
H883 C893 0.950 . S
H884 C895 0.945 1_556 S
H885 C897 0.950 1_556 S
H886 C898 0.950 . S
C887 H879 0.950 . S
C887 C888 1.386 . S
C887 C889 1.391 . S
C888 C887 1.386 . S
C888 C892 1.393 . S
C889 H881 0.950 . S
C889 C887 1.391 . S
C889 C890 1.400 . S
C890 C889 1.400 . S
C890 C891 1.398 . S
C890 C896 1.491 . S
C891 H882 0.950 . S
C891 C890 1.398 . S
C891 C892 1.391 . S
C892 H880 0.950 . S
C892 C888 1.393 . S
C892 C891 1.391 . S
C893 H883 0.950 . S
C893 C894 1.386 . S
C893 C895 1.401 . S
C894 C893 1.386 . S
C894 C898 1.393 . S
C895 H884 0.945 1_554 S
C895 C893 1.401 . S
C895 C896 1.396 1_554 S
C896 C890 1.491 . S
C896 C895 1.396 1_556 S
C896 C897 1.398 1_556 S
C897 H885 0.950 1_554 S
C897 C896 1.398 1_554 S
C897 C898 1.391 . S
C898 H886 0.950 . S
C898 C894 1.393 . S
C898 C897 1.391 . S
H899 C907 0.950 . S
H900 C912 0.950 . S
H901 C909 0.950 . S
H902 C911 0.950 . S
H903 C913 0.950 . S
H904 C915 0.950 . S
H905 C917 0.950 . S
H906 C918 0.950 . S
C907 H899 0.950 . S
C907 C908 1.386 . S
C907 C909 1.391 . S
C908 C907 1.386 . S
C908 C912 1.393 . S
C909 H901 0.950 . S
C909 C907 1.391 . S
C909 C910 1.400 . S
C910 C909 1.400 . S
C910 C911 1.398 . S
C910 C916 1.491 1_554 S
C911 H902 0.950 . S
C911 C910 1.398 . S
C911 C912 1.391 . S
C912 H900 0.950 . S
C912 C908 1.393 . S
C912 C911 1.391 . S
C913 H903 0.950 . S
C913 C914 1.386 . S
C913 C915 1.391 . S
C914 C913 1.386 . S
C914 C918 1.393 . S
C915 H904 0.950 . S
C915 C913 1.391 . S
C915 C916 1.400 . S
C916 C910 1.491 1_556 S
C916 C915 1.400 . S
C916 C917 1.398 . S
C917 H905 0.950 . S
C917 C916 1.398 . S
C917 C918 1.391 . S
C918 H906 0.950 . S
C918 C914 1.393 . S
C918 C917 1.391 . S
H919 C927 0.950 . S
H920 C932 0.950 . S
H921 C929 0.950 . S
H922 C931 0.950 . S
H923 C933 0.950 . S
H924 C935 0.950 . S
H925 C937 0.950 . S
H926 C938 0.950 . S
C927 H919 0.950 . S
C927 C928 1.386 . S
C927 C929 1.391 . S
C928 C927 1.386 . S
C928 C932 1.393 . S
C929 H921 0.950 . S
C929 C927 1.391 . S
C929 C930 1.400 . S
C930 C929 1.400 . S
C930 C931 1.398 . S
C930 C936 1.491 . S
C931 H922 0.950 . S
C931 C930 1.398 . S
C931 C932 1.391 . S
C932 H920 0.950 . S
C932 C928 1.393 . S
C932 C931 1.391 . S
C933 H923 0.950 . S
C933 C934 1.386 . S
C933 C935 1.391 1_554 S
C934 C933 1.386 . S
C934 C938 1.393 . S
C935 H924 0.950 . S
C935 C933 1.391 1_556 S
C935 C936 1.400 . S
C936 C930 1.491 . S
C936 C935 1.400 . S
C936 C937 1.398 . S
C937 H925 0.950 . S
C937 C936 1.398 . S
C937 C938 1.391 1_556 S
C938 H926 0.950 . S
C938 C934 1.393 . S
C938 C937 1.391 1_554 S
H939 C947 0.950 . S
H940 C952 0.950 . S
H941 C949 0.950 . S
H942 C951 0.950 . S
H943 C953 0.950 . S
H944 C955 0.950 . S
H945 C957 0.950 . S
H946 C958 0.947 1_556 S
C947 H939 0.950 . S
C947 C948 1.386 . S
C947 C949 1.391 . S
C948 C947 1.386 . S
C948 C952 1.393 . S
C949 H941 0.950 . S
C949 C947 1.391 . S
C949 C950 1.400 . S
C950 C949 1.400 . S
C950 C951 1.398 . S
C950 C956 1.491 . S
C951 H942 0.950 . S
C951 C950 1.398 . S
C951 C952 1.391 . S
C952 H940 0.950 . S
C952 C948 1.393 . S
C952 C951 1.391 . S
C953 H943 0.950 . S
C953 C954 1.386 1_554 S
C953 C955 1.391 . S
C954 C953 1.386 1_556 S
C954 C958 1.393 1_556 S
C955 H944 0.950 . S
C955 C953 1.391 . S
C955 C956 1.400 . S
C956 C950 1.491 . S
C956 C955 1.400 . S
C956 C957 1.398 . S
C957 H945 0.950 . S
C957 C956 1.398 . S
C957 C958 1.391 . S
C958 H946 0.947 1_554 S
C958 C954 1.393 1_554 S
C958 C957 1.391 . S
H959 C967 0.950 . S
H960 C972 0.950 . S
H961 C969 0.950 . S
H962 C971 0.950 . S
H963 C973 0.950 . S
H964 C975 0.950 . S
H965 C977 0.950 . S
H966 C978 0.950 . S
C967 H959 0.950 . S
C967 C968 1.386 . S
C967 C969 1.391 . S
C968 C967 1.386 . S
C968 C972 1.393 . S
C969 H961 0.950 . S
C969 C967 1.391 . S
C969 C970 1.400 . S
C970 C969 1.400 . S
C970 C971 1.398 . S
C970 C976 1.491 . S
C971 H962 0.950 . S
C971 C970 1.398 . S
C971 C972 1.391 . S
C972 H960 0.950 . S
C972 C968 1.393 . S
C972 C971 1.391 . S
C973 H963 0.950 . S
C973 C974 1.386 . S
C973 C975 1.391 . S
C974 C973 1.386 . S
C974 C978 1.393 . S
C975 H964 0.950 . S
C975 C973 1.391 . S
C975 C976 1.400 . S
C976 C970 1.491 . S
C976 C975 1.400 . S
C976 C977 1.398 . S
C977 H965 0.950 . S
C977 C976 1.398 . S
C977 C978 1.391 . S
C978 H966 0.950 . S
C978 C974 1.393 . S
C978 C977 1.391 . S
H979 C987 0.950 . S
H980 C992 0.950 . S
H981 C989 0.950 . S
H982 C991 0.950 . S
H983 C993 0.950 . S
H984 C995 0.950 . S
H985 C997 0.950 . S
H986 C998 0.950 . S
C987 H979 0.950 . S
C987 C988 1.386 . S
C987 C989 1.391 . S
C988 C987 1.386 . S
C988 C992 1.393 . S
C989 H981 0.950 . S
C989 C987 1.391 . S
C989 C990 1.400 . S
C990 C989 1.400 . S
C990 C991 1.398 . S
C990 C996 1.491 . S
C991 H982 0.950 . S
C991 C990 1.398 . S
C991 C992 1.391 . S
C992 H980 0.950 . S
C992 C988 1.393 . S
C992 C991 1.391 . S
C993 H983 0.950 . S
C993 C994 1.386 . S
C993 C995 1.391 1_556 S
C994 C993 1.386 . S
C994 C998 1.393 . S
C995 H984 0.950 . S
C995 C993 1.391 1_554 S
C995 C996 1.400 . S
C996 C990 1.491 . S
C996 C995 1.400 . S
C996 C997 1.398 . S
C997 H985 0.950 . S
C997 C996 1.398 . S
C997 C998 1.391 1_554 S
C998 H986 0.950 . S
C998 C994 1.393 . S
C998 C997 1.391 1_556 S
C288 C24 1.901 . S
C294 C135 1.928 . S
C308 C166 1.835 . S
C314 C55 1.656 1_545 S
C328 C86 1.709 1_655 S
C334 C120 1.943 . S
C348 C31 1.586 . S
C354 C111 1.618 . S
C368 C62 1.589 1_545 S
C374 C125 1.638 . S
C388 C0 1.425 . S
C394 C156 1.545 . S
C408 C117 1.882 . S
C414 C228 1.936 . S
C428 C259 1.833 . S
C434 C148 1.666 . S
C448 C213 1.947 . S
C454 C179 1.702 . S
C468 C124 1.585 . S
C474 C204 1.619 . S
C488 C218 1.640 . S
C494 C155 1.585 . S
C508 C249 1.531 . S
C514 C93 1.423 . S
C528 C210 1.884 . S
C534 C42 1.938 . S
C548 C241 1.670 . S
C554 C73 1.835 1_556 S
C568 C27 1.954 . S
C574 C272 1.732 . S
C588 C18 1.617 . S
C594 C217 1.588 . S
C608 C32 1.640 1_556 S
C614 C248 1.591 . S
C628 C186 1.435 . S
C634 C63 1.547 . S
C648 C80 1.801 1_554 S
C654 C11 1.802 . S
C668 C1 1.537 . S
C674 C58 1.520 . S
C688 C49 1.690 . S
C694 C89 1.596 1_655 S
C708 C173 1.805 . S
C714 C104 1.800 . S
C728 C94 1.545 . S
C734 C151 1.520 . S
C748 C142 1.694 . S
C754 C182 1.589 . S
C768 C197 1.804 . S
C774 C266 1.796 . S
C788 C244 1.532 . S
C794 C187 1.528 . S
C808 C275 1.592 . S
C814 C235 1.693 . S
C828 C10 0.774 . S
C834 C2 0.774 . S
C848 C41 0.782 . S
C854 C33 0.782 . S
C868 C64 0.784 . S
C874 C72 0.784 . S
C888 C95 0.745 . S
C894 C103 0.745 . S
C908 C126 0.749 . S
C914 C134 0.749 . S
C928 C165 0.755 . S
C934 C157 0.755 . S
C948 C196 0.776 . S
C954 C188 0.776 . S
C968 C219 0.761 . S
C974 C227 0.761 . S
C988 C250 0.783 . S
C994 C258 0.783 . S
