# Generated by pormake.
# Topology fca, (5)-cn, num edge types: 1
# Building blocks:
#     Node 0, Type 0, BuildingBlock: BEQFEK_clean_sbu_0, # of connection points: 5
#     Node 1, Type 0, BuildingBlock: BEQFEK_clean_sbu_0, # of connection points: 5
#     Node 2, Type 0, BuildingBlock: BEQFEK_clean_sbu_0, # of connection points: 5
#     Node 3, Type 0, BuildingBlock: BEQFEK_clean_sbu_0, # of connection points: 5
#     Node 4, Type 0, BuildingBlock: BEQFEK_clean_sbu_0, # of connection points: 5
#     Node 5, Type 0, BuildingBlock: BEQFEK_clean_sbu_0, # of connection points: 5
#     Node 6, Type 0, BuildingBlock: BEQFEK_clean_sbu_0, # of connection points: 5
#     Node 7, Type 0, BuildingBlock: BEQFEK_clean_sbu_0, # of connection points: 5
#     Node 8, Type 0, BuildingBlock: BEQFEK_clean_sbu_0, # of connection points: 5
#     Node 9, Type 0, BuildingBlock: BEQFEK_clean_sbu_0, # of connection points: 5
#     Node 10, Type 0, BuildingBlock: BEQFEK_clean_sbu_0, # of connection points: 5
#     Node 11, Type 0, BuildingBlock: BEQFEK_clean_sbu_0, # of connection points: 5
#     Node 12, Type 0, BuildingBlock: BEQFEK_clean_sbu_0, # of connection points: 5
#     Node 13, Type 0, BuildingBlock: BEQFEK_clean_sbu_0, # of connection points: 5
#     Node 14, Type 0, BuildingBlock: BEQFEK_clean_sbu_0, # of connection points: 5
#     Node 15, Type 0, BuildingBlock: BEQFEK_clean_sbu_0, # of connection points: 5
#     Node 16, Type 0, BuildingBlock: BEQFEK_clean_sbu_0, # of connection points: 5
#     Node 17, Type 0, BuildingBlock: BEQFEK_clean_sbu_0, # of connection points: 5
#     Node 18, Type 0, BuildingBlock: BEQFEK_clean_sbu_0, # of connection points: 5
#     Node 19, Type 0, BuildingBlock: BEQFEK_clean_sbu_0, # of connection points: 5
#     Node 20, Type 0, BuildingBlock: BEQFEK_clean_sbu_0, # of connection points: 5
#     Node 21, Type 0, BuildingBlock: BEQFEK_clean_sbu_0, # of connection points: 5
#     Node 22, Type 0, BuildingBlock: BEQFEK_clean_sbu_0, # of connection points: 5
#     Node 23, Type 0, BuildingBlock: BEQFEK_clean_sbu_0, # of connection points: 5
#     Edge 24, Type (0, 0), BuildingBlock: OJICUG_clean_linker_0, # of connection points: 2
#     Edge 25, Type (0, 0), BuildingBlock: OJICUG_clean_linker_0, # of connection points: 2
#     Edge 26, Type (0, 0), BuildingBlock: OJICUG_clean_linker_0, # of connection points: 2
#     Edge 27, Type (0, 0), BuildingBlock: OJICUG_clean_linker_0, # of connection points: 2
#     Edge 28, Type (0, 0), BuildingBlock: OJICUG_clean_linker_0, # of connection points: 2
#     Edge 29, Type (0, 0), BuildingBlock: OJICUG_clean_linker_0, # of connection points: 2
#     Edge 30, Type (0, 0), BuildingBlock: OJICUG_clean_linker_0, # of connection points: 2
#     Edge 31, Type (0, 0), BuildingBlock: OJICUG_clean_linker_0, # of connection points: 2
#     Edge 32, Type (0, 0), BuildingBlock: OJICUG_clean_linker_0, # of connection points: 2
#     Edge 33, Type (0, 0), BuildingBlock: OJICUG_clean_linker_0, # of connection points: 2
#     Edge 34, Type (0, 0), BuildingBlock: OJICUG_clean_linker_0, # of connection points: 2
#     Edge 35, Type (0, 0), BuildingBlock: OJICUG_clean_linker_0, # of connection points: 2
#     Edge 36, Type (0, 0), BuildingBlock: OJICUG_clean_linker_0, # of connection points: 2
#     Edge 37, Type (0, 0), BuildingBlock: OJICUG_clean_linker_0, # of connection points: 2
#     Edge 38, Type (0, 0), BuildingBlock: OJICUG_clean_linker_0, # of connection points: 2
#     Edge 39, Type (0, 0), BuildingBlock: OJICUG_clean_linker_0, # of connection points: 2
#     Edge 40, Type (0, 0), BuildingBlock: OJICUG_clean_linker_0, # of connection points: 2
#     Edge 41, Type (0, 0), BuildingBlock: OJICUG_clean_linker_0, # of connection points: 2
#     Edge 42, Type (0, 0), BuildingBlock: OJICUG_clean_linker_0, # of connection points: 2
#     Edge 43, Type (0, 0), BuildingBlock: OJICUG_clean_linker_0, # of connection points: 2
#     Edge 44, Type (0, 0), BuildingBlock: OJICUG_clean_linker_0, # of connection points: 2
#     Edge 45, Type (0, 0), BuildingBlock: OJICUG_clean_linker_0, # of connection points: 2
#     Edge 46, Type (0, 0), BuildingBlock: OJICUG_clean_linker_0, # of connection points: 2
#     Edge 47, Type (0, 0), BuildingBlock: OJICUG_clean_linker_0, # of connection points: 2
#     Edge 48, Type (0, 0), BuildingBlock: OJICUG_clean_linker_0, # of connection points: 2
#     Edge 49, Type (0, 0), BuildingBlock: OJICUG_clean_linker_0, # of connection points: 2
#     Edge 50, Type (0, 0), BuildingBlock: OJICUG_clean_linker_0, # of connection points: 2
#     Edge 51, Type (0, 0), BuildingBlock: OJICUG_clean_linker_0, # of connection points: 2
#     Edge 52, Type (0, 0), BuildingBlock: OJICUG_clean_linker_0, # of connection points: 2
#     Edge 53, Type (0, 0), BuildingBlock: OJICUG_clean_linker_0, # of connection points: 2
#     Edge 54, Type (0, 0), BuildingBlock: OJICUG_clean_linker_0, # of connection points: 2
#     Edge 55, Type (0, 0), BuildingBlock: OJICUG_clean_linker_0, # of connection points: 2
#     Edge 56, Type (0, 0), BuildingBlock: OJICUG_clean_linker_0, # of connection points: 2
#     Edge 57, Type (0, 0), BuildingBlock: OJICUG_clean_linker_0, # of connection points: 2
#     Edge 58, Type (0, 0), BuildingBlock: OJICUG_clean_linker_0, # of connection points: 2
#     Edge 59, Type (0, 0), BuildingBlock: OJICUG_clean_linker_0, # of connection points: 2
#     Edge 60, Type (0, 0), BuildingBlock: OJICUG_clean_linker_0, # of connection points: 2
#     Edge 61, Type (0, 0), BuildingBlock: OJICUG_clean_linker_0, # of connection points: 2
#     Edge 62, Type (0, 0), BuildingBlock: OJICUG_clean_linker_0, # of connection points: 2
#     Edge 63, Type (0, 0), BuildingBlock: OJICUG_clean_linker_0, # of connection points: 2
#     Edge 64, Type (0, 0), BuildingBlock: OJICUG_clean_linker_0, # of connection points: 2
#     Edge 65, Type (0, 0), BuildingBlock: OJICUG_clean_linker_0, # of connection points: 2
#     Edge 66, Type (0, 0), BuildingBlock: OJICUG_clean_linker_0, # of connection points: 2
#     Edge 67, Type (0, 0), BuildingBlock: OJICUG_clean_linker_0, # of connection points: 2
#     Edge 68, Type (0, 0), BuildingBlock: OJICUG_clean_linker_0, # of connection points: 2
#     Edge 69, Type (0, 0), BuildingBlock: OJICUG_clean_linker_0, # of connection points: 2
#     Edge 70, Type (0, 0), BuildingBlock: OJICUG_clean_linker_0, # of connection points: 2
#     Edge 71, Type (0, 0), BuildingBlock: OJICUG_clean_linker_0, # of connection points: 2
#     Edge 72, Type (0, 0), BuildingBlock: OJICUG_clean_linker_0, # of connection points: 2
#     Edge 73, Type (0, 0), BuildingBlock: OJICUG_clean_linker_0, # of connection points: 2
#     Edge 74, Type (0, 0), BuildingBlock: OJICUG_clean_linker_0, # of connection points: 2
#     Edge 75, Type (0, 0), BuildingBlock: OJICUG_clean_linker_0, # of connection points: 2
#     Edge 76, Type (0, 0), BuildingBlock: OJICUG_clean_linker_0, # of connection points: 2
#     Edge 77, Type (0, 0), BuildingBlock: OJICUG_clean_linker_0, # of connection points: 2
#     Edge 78, Type (0, 0), BuildingBlock: OJICUG_clean_linker_0, # of connection points: 2
#     Edge 79, Type (0, 0), BuildingBlock: OJICUG_clean_linker_0, # of connection points: 2
#     Edge 80, Type (0, 0), BuildingBlock: OJICUG_clean_linker_0, # of connection points: 2
#     Edge 81, Type (0, 0), BuildingBlock: OJICUG_clean_linker_0, # of connection points: 2
#     Edge 82, Type (0, 0), BuildingBlock: OJICUG_clean_linker_0, # of connection points: 2
#     Edge 83, Type (0, 0), BuildingBlock: OJICUG_clean_linker_0, # of connection points: 2
# Relax obj value: 0.595
# Max RMSD: 0.295
# Mean RMSD: 0.295
data_MOF--net-fca--node1-BEQFEK_clean_sbu_0--edge1-OJICUG_clean_linker_0
_symmetry_space_group_name_H-M    P1
_symmetry_Int_Tables_number       1
_symmetry_cell_setting            triclinic
loop_
_symmetry_equiv_pos_as_xyz
'x, y, z'
_cell_length_a     41.707131
_cell_length_b     41.706541
_cell_length_c     41.707058
_cell_angle_alpha  89.998514
_cell_angle_beta   89.999661
_cell_angle_gamma 89.999224
loop_
_atom_site_label
_atom_site_type_symbol
_atom_site_fract_x
_atom_site_fract_y
_atom_site_fract_z
_atom_type_partial_charge
Co0 Co 0.0711 0.41089 0.28557 0.0
Co1 Co 0.10647 0.42623 0.34862 0.0
C2 C 0.13523 0.44088 0.28125 0.0
O3 O 0.11327 0.42528 0.26666 0.0
O4 O 0.13558 0.44148 0.31193 0.0
C5 C 0.04228 0.38646 0.22478 0.0
O6 O 0.07016 0.37682 0.21376 0.0
C7 C 0.15021 0.40771 0.39969 0.0
C8 C 0.13882 0.44341 0.43711 0.0
C9 C 0.15638 0.41572 0.43154 0.0
N10 N 0.12928 0.42895 0.38776 0.0
N11 N 0.12321 0.45075 0.4099 0.0
C12 C 0.16351 0.38054 0.38037 0.0
H13 H 0.14617 0.36037 0.38026 0.0
H14 H 0.18676 0.37223 0.39031 0.0
H15 H 0.16676 0.38826 0.3551 0.0
C16 C 0.04491 0.35723 0.32415 0.0
N17 N 0.06837 0.37926 0.31903 0.0
N18 N 0.08165 0.38673 0.34659 0.0
C19 C 0.06626 0.37031 0.37022 0.0
C20 C 0.04225 0.35083 0.35695 0.0
C21 C 0.02116 0.34753 0.29908 0.0
H22 H 1.0047 0.36788 0.29436 0.0
H23 H 0.03392 0.34152 0.27655 0.0
H24 H 1.00667 0.32661 0.30674 0.0
O25 O 0.05359 0.45111 0.30268 0.0
O26 O 0.07528 0.4601 0.35049 0.0
H27 H 0.06888 0.40247 0.41015 0.0
H28 H 0.05478 0.3626 0.42043 0.0
C29 C 0.07157 0.37646 0.40518 0.0
H30 H 0.09635 0.36948 0.41165 0.0
H31 H 0.1071 0.46968 0.40701 0.0
O32 O 0.0404 0.40001 0.25193 0.0
C33 C 0.05639 0.46788 0.32801 0.0
Co34 Co 0.9917 0.65197 0.28561 0.0
Co35 Co 0.95632 0.6366 0.34866 0.0
C36 C 0.92757 0.62197 0.28129 0.0
O37 O 0.94953 0.63756 0.26671 0.0
O38 O 0.92721 0.62136 0.31197 0.0
C39 C 0.02052 0.67643 0.22483 0.0
O40 O 0.99264 0.68606 0.21381 0.0
C41 C 0.91259 0.65508 0.39975 0.0
C42 C 0.924 0.61936 0.43715 0.0
C43 C 0.90643 0.64705 0.4316 0.0
N44 N 0.93352 0.63385 0.38781 0.0
N45 N 0.93961 0.61204 0.40993 0.0
C46 C 0.89928 0.68225 0.38044 0.0
H47 H 0.91661 0.70243 0.38034 0.0
H48 H 0.87603 0.69055 0.39039 0.0
H49 H 0.89602 0.67454 0.35517 0.0
C50 C 0.01787 0.70562 0.32422 0.0
N51 N 0.99442 0.68359 0.31909 0.0
N52 N 0.98114 0.6761 0.34665 0.0
C53 C 0.99652 0.69251 0.37028 0.0
C54 C 0.02053 0.71201 0.35702 0.0
C55 C 0.04163 0.71534 0.29916 0.0
H56 H 0.02887 0.72135 0.27662 0.0
H57 H 0.05611 0.73625 0.30683 0.0
H58 H 0.05808 0.69499 0.29442 0.0
O59 O 1.00922 0.61176 0.30272 0.0
O60 O 0.98752 0.60273 0.35051 0.0
H61 H 0.9939 0.66035 0.4102 0.0
H62 H 1.00799 0.70021 0.4205 0.0
C63 C 0.99121 0.68635 0.40524 0.0
H64 H 0.96643 0.69333 0.41171 0.0
H65 H 0.95572 0.59312 0.40703 0.0
O66 O 0.0224 0.66287 0.25198 0.0
C67 C 1.00643 0.59497 0.32803 0.0
Co68 Co 0.07113 0.65186 0.77719 0.0
Co69 Co 0.10651 0.63652 0.71414 0.0
C70 C 0.13525 0.62186 0.78151 0.0
O71 O 0.1133 0.63746 0.7961 0.0
O72 O 0.13561 0.62126 0.75083 0.0
C73 C 0.04229 0.67629 0.83797 0.0
O74 O 0.07017 0.68594 0.849 0.0
C75 C 0.15024 0.65506 0.66307 0.0
C76 C 0.13887 0.61936 0.62565 0.0
C77 C 0.15642 0.64705 0.63122 0.0
N78 N 0.12932 0.63381 0.675 0.0
N79 N 0.12326 0.612 0.65286 0.0
C80 C 0.16353 0.68223 0.6824 0.0
H81 H 0.14619 0.7024 0.6825 0.0
H82 H 0.18678 0.69055 0.67246 0.0
H83 H 0.16677 0.67451 0.70767 0.0
C84 C 0.04494 0.70553 0.73861 0.0
N85 N 0.0684 0.68349 0.74373 0.0
N86 N 0.08168 0.67602 0.71617 0.0
C87 C 0.0663 0.69244 0.69254 0.0
C88 C 0.04228 0.71192 0.70582 0.0
C89 C 0.0212 0.71523 0.76368 0.0
H90 H 0.03396 0.72123 0.78621 0.0
H91 H 1.00671 0.73615 0.75602 0.0
H92 H 1.00474 0.69488 0.7684 0.0
O93 O 0.05362 0.61165 0.76006 0.0
O94 O 0.07531 0.60265 0.71226 0.0
H95 H 0.06892 0.66028 0.65262 0.0
H96 H 0.0548 0.70014 0.64233 0.0
C97 C 0.07159 0.68628 0.65758 0.0
H98 H 0.09637 0.69328 0.6511 0.0
H99 H 0.10717 0.59307 0.65575 0.0
O100 O 0.04043 0.66274 0.81082 0.0
C101 C 0.05641 0.59488 0.73474 0.0
Co102 Co 0.99167 0.41081 0.77714 0.0
Co103 Co 0.9563 0.42618 0.71409 0.0
C104 C 0.92755 0.44082 0.78146 0.0
O105 O 0.94951 0.42522 0.79604 0.0
O106 O 0.92719 0.44142 0.75078 0.0
C107 C 0.02052 0.38635 0.83791 0.0
O108 O 0.99264 0.37668 0.84893 0.0
C109 C 0.91256 0.40769 0.663 0.0
C110 C 0.92397 0.4434 0.6256 0.0
C111 C 0.9064 0.41572 0.63116 0.0
N112 N 0.9335 0.42892 0.67494 0.0
N113 N 0.93957 0.45073 0.65281 0.0
C114 C 0.89926 0.38052 0.68232 0.0
H115 H 0.91659 0.36034 0.68242 0.0
H116 H 0.87601 0.37222 0.67237 0.0
H117 H 0.896 0.38823 0.70759 0.0
C118 C 0.01785 0.35716 0.73854 0.0
N119 N 0.99439 0.37919 0.74367 0.0
N120 N 0.98111 0.38667 0.71611 0.0
C121 C 0.99649 0.37026 0.69247 0.0
C122 C 0.0205 0.35077 0.70574 0.0
C123 C 0.0416 0.34744 0.7636 0.0
H124 H 0.02884 0.34143 0.78613 0.0
H125 H 0.05608 0.32653 0.75593 0.0
H126 H 0.05805 0.36779 0.76834 0.0
O127 O 1.00919 0.45102 0.76003 0.0
O128 O 0.9875 0.46005 0.71223 0.0
H129 H 0.99388 0.40243 0.65255 0.0
H130 H 1.00797 0.36257 0.64226 0.0
C131 C 0.99119 0.37643 0.65751 0.0
H132 H 0.96641 0.36945 0.65104 0.0
H133 H 0.95568 0.46965 0.65571 0.0
O134 O 0.02238 0.39992 0.81077 0.0
C135 C 1.00641 0.46781 0.73471 0.0
Co136 Co 0.28558 0.07106 0.41082 0.0
Co137 Co 0.34863 0.10644 0.42617 0.0
C138 C 0.28126 0.1352 0.4408 0.0
O139 O 0.26668 0.11323 0.42521 0.0
O140 O 0.31194 0.13555 0.4414 0.0
C141 C 0.22478 0.04226 0.38639 0.0
O142 O 0.21376 0.07016 0.37679 0.0
C143 C 0.39972 0.15017 0.40767 0.0
C144 C 0.43711 0.13876 0.44339 0.0
C145 C 0.43156 0.15632 0.41571 0.0
N146 N 0.38778 0.12924 0.42891 0.0
N147 N 0.4099 0.12316 0.45072 0.0
C148 C 0.38041 0.16348 0.3805 0.0
H149 H 0.38031 0.14614 0.36033 0.0
H150 H 0.39036 0.18672 0.3722 0.0
H151 H 0.35514 0.16673 0.38821 0.0
C152 C 0.32418 0.04487 0.35717 0.0
N153 N 0.31905 0.06833 0.37919 0.0
N154 N 0.34661 0.08161 0.38667 0.0
C155 C 0.37024 0.06623 0.37026 0.0
C156 C 0.35697 0.04221 0.35077 0.0
C157 C 0.29912 0.02112 0.34746 0.0
H158 H 0.29439 1.00466 0.36781 0.0
H159 H 0.27658 0.03387 0.34145 0.0
H160 H 0.30678 1.00663 0.32655 0.0
O161 O 0.30268 0.05355 0.45104 0.0
O162 O 0.35048 0.07525 0.46004 0.0
H163 H 0.41017 0.06885 0.40241 0.0
H164 H 0.42046 0.05475 0.36255 0.0
C165 C 0.40521 0.07154 0.37641 0.0
H166 H 0.41167 0.09632 0.36943 0.0
H167 H 0.407 0.10705 0.46964 0.0
O168 O 0.25194 0.04037 0.39992 0.0
C169 C 0.328 0.05635 0.46782 0.0
Co170 Co 0.77716 0.99159 0.41088 0.0
Co171 Co 0.71411 0.95622 0.42623 0.0
C172 C 0.78149 0.92747 0.4409 0.0
O173 O 0.79607 0.94943 0.42529 0.0
O174 O 0.75081 0.92712 0.44149 0.0
C175 C 0.83793 0.02047 0.38643 0.0
O176 O 0.84895 0.9926 0.37674 0.0
C177 C 0.66304 0.91248 0.40768 0.0
C178 C 0.62563 0.92384 0.4434 0.0
C179 C 0.63119 0.90631 0.4157 0.0
N180 N 0.67497 0.9334 0.42894 0.0
N181 N 0.65284 0.93945 0.45075 0.0
C182 C 0.68236 0.89921 0.3805 0.0
H183 H 0.68246 0.91656 0.36034 0.0
H184 H 0.67242 0.87597 0.37218 0.0
H185 H 0.70763 0.89595 0.38822 0.0
C186 C 0.73858 0.01777 0.35721 0.0
N187 N 0.74371 0.99431 0.37925 0.0
N188 N 0.71614 0.98104 0.38672 0.0
C189 C 0.69251 0.99642 0.37031 0.0
C190 C 0.70579 0.02043 0.35082 0.0
C191 C 0.76365 0.04151 0.3475 0.0
H192 H 0.78618 0.02875 0.34149 0.0
H193 H 0.75599 0.05599 0.32658 0.0
H194 H 0.76838 0.05798 0.36784 0.0
O195 O 0.76003 1.00911 0.45108 0.0
O196 O 0.71222 0.98742 0.4601 0.0
H197 H 0.6526 0.99379 0.40248 0.0
H198 H 0.6423 1.00793 0.36263 0.0
C199 C 0.65755 0.99113 0.37648 0.0
H200 H 0.65107 0.96636 0.36947 0.0
H201 H 0.65573 0.95554 0.46969 0.0
O202 O 0.81079 0.02231 0.40001 0.0
C203 C 0.7347 1.00632 0.46786 0.0
Co204 Co 0.2856 0.99174 0.65194 0.0
Co205 Co 0.34864 0.95637 0.63658 0.0
C206 C 0.28128 0.9276 0.62195 0.0
O207 O 0.26669 0.94956 0.63754 0.0
O208 O 0.31195 0.92725 0.62134 0.0
C209 C 0.22479 0.02053 0.67638 0.0
O210 O 0.21377 0.99263 0.68597 0.0
C211 C 0.39973 0.91262 0.65505 0.0
C212 C 0.43714 0.92406 0.61935 0.0
C213 C 0.43158 0.90647 0.64702 0.0
N214 N 0.3878 0.93357 0.63383 0.0
N215 N 0.40992 0.93967 0.61203 0.0
C216 C 0.38041 0.8993 0.68221 0.0
H217 H 0.38031 0.91661 0.7024 0.0
H218 H 0.39036 0.87604 0.69049 0.0
H219 H 0.35514 0.89606 0.67449 0.0
C220 C 0.3242 0.01793 0.70559 0.0
N221 N 0.31907 0.99447 0.68355 0.0
N222 N 0.34663 0.98118 0.67608 0.0
C223 C 0.37026 0.99656 0.69249 0.0
C224 C 0.35699 0.02058 0.71198 0.0
C225 C 0.29913 0.04168 0.71529 0.0
H226 H 0.2944 0.05813 0.69494 0.0
H227 H 0.2766 0.02892 0.72131 0.0
H228 H 0.3068 0.05617 0.7362 0.0
O229 O 0.30269 1.00926 0.61172 0.0
O230 O 0.35049 0.98756 0.6027 0.0
H231 H 0.41019 0.99396 0.66034 0.0
H232 H 0.42047 1.00802 0.70022 0.0
C233 C 0.40522 0.99125 0.68634 0.0
H234 H 0.41168 0.96646 0.6933 0.0
H235 H 0.40703 0.95579 0.59312 0.0
O236 O 0.25195 0.02242 0.66284 0.0
C237 C 0.32801 1.00646 0.59493 0.0
Co238 Co 0.77715 0.07113 0.65188 0.0
Co239 Co 0.7141 0.10651 0.63653 0.0
C240 C 0.78147 0.13525 0.62186 0.0
O241 O 0.79606 0.1133 0.63747 0.0
O242 O 0.75079 0.13561 0.62127 0.0
C243 C 0.83791 0.04227 0.67635 0.0
O244 O 0.84893 0.07013 0.68604 0.0
C245 C 0.66303 0.15025 0.65505 0.0
C246 C 0.62561 0.13887 0.61935 0.0
C247 C 0.63118 0.15642 0.64704 0.0
N248 N 0.67495 0.12932 0.63381 0.0
N249 N 0.65282 0.12326 0.612 0.0
C250 C 0.68236 0.16354 0.68222 0.0
H251 H 0.68246 0.14621 0.70239 0.0
H252 H 0.67243 0.1868 0.69052 0.0
H253 H 0.70763 0.16679 0.6745 0.0
C254 C 0.73856 0.04496 0.70555 0.0
N255 N 0.74369 0.06841 0.68351 0.0
N256 N 0.71612 0.08169 0.67603 0.0
C257 C 0.6925 0.06631 0.69245 0.0
C258 C 0.70577 0.0423 0.71194 0.0
C259 C 0.76363 0.02121 0.71526 0.0
H260 H 0.78616 0.03397 0.72127 0.0
H261 H 0.75596 1.00673 0.73617 0.0
H262 H 0.76836 1.00475 0.69491 0.0
O263 O 0.76002 0.05362 0.61168 0.0
O264 O 0.71222 0.0753 0.60266 0.0
H265 H 0.65257 0.06893 0.66028 0.0
H266 H 0.64228 0.05482 0.70014 0.0
C267 C 0.65753 0.07161 0.68629 0.0
H268 H 0.65106 0.09639 0.69327 0.0
H269 H 0.6557 0.10716 0.59308 0.0
O270 O 0.81078 0.04042 0.66276 0.0
C271 C 0.7347 0.0564 0.5949 0.0
Co272 Co 0.41086 0.28557 0.07116 0.0
Co273 Co 0.4262 0.34861 0.10654 0.0
C274 C 0.44086 0.28124 0.13529 0.0
O275 O 0.42526 0.26665 0.11333 0.0
O276 O 0.44145 0.31191 0.13564 0.0
C277 C 0.38644 0.22478 0.04232 0.0
O278 O 0.37681 0.21375 0.0702 0.0
C279 C 0.40765 0.3997 0.15026 0.0
C280 C 0.44339 0.43709 0.13891 0.0
C281 C 0.41568 0.43154 0.15643 0.0
N282 N 0.42891 0.38776 0.12936 0.0
N283 N 0.45074 0.40988 0.12331 0.0
C284 C 0.38046 0.38039 0.16353 0.0
H285 H 0.38816 0.35512 0.1668 0.0
H286 H 0.36031 0.38029 0.14618 0.0
H287 H 0.37213 0.39034 0.18677 0.0
C288 C 0.3572 0.32415 0.04498 0.0
N289 N 0.37923 0.31902 0.06844 0.0
N290 N 0.3867 0.34659 0.08172 0.0
C291 C 0.37029 0.37022 0.06633 0.0
C292 C 0.3508 0.35694 0.04231 0.0
C293 C 0.34749 0.29908 0.02123 0.0
H294 H 0.34149 0.27654 0.03399 0.0
H295 H 0.32657 0.30674 1.00675 0.0
H296 H 0.36783 0.29436 1.00477 0.0
O297 O 0.45107 0.30269 0.05366 0.0
O298 O 0.46007 0.35049 0.07535 0.0
H299 H 0.40246 0.41013 0.06897 0.0
H300 H 0.36262 0.42043 0.05481 0.0
C301 C 0.37645 0.40518 0.07162 0.0
H302 H 0.36944 0.41166 0.09639 0.0
H303 H 0.46968 0.40698 0.10723 0.0
O304 O 0.39998 0.25194 0.04045 0.0
C305 C 0.46785 0.32802 0.05645 0.0
Co306 Co 0.41084 0.77718 0.99161 0.0
Co307 Co 0.42618 0.71413 0.95623 0.0
C308 C 0.44084 0.78151 0.92748 0.0
O309 O 0.42524 0.79609 0.94944 0.0
O310 O 0.44143 0.75083 0.92713 0.0
C311 C 0.38641 0.83796 0.02045 0.0
O312 O 0.37677 0.84899 0.99257 0.0
C313 C 0.40765 0.66304 0.91251 0.0
C314 C 0.44339 0.62565 0.92387 0.0
C315 C 0.41568 0.6312 0.90634 0.0
N316 N 0.4289 0.67499 0.93341 0.0
N317 N 0.45073 0.65287 0.93946 0.0
C318 C 0.38045 0.68234 0.89924 0.0
H319 H 0.3603 0.68244 0.91659 0.0
H320 H 0.37213 0.67239 0.876 0.0
H321 H 0.38816 0.70762 0.89597 0.0
C322 C 0.35718 0.73859 0.01779 0.0
N323 N 0.37921 0.74372 0.99433 0.0
N324 N 0.38669 0.71615 0.98105 0.0
C325 C 0.37028 0.69252 0.99644 0.0
C326 C 0.35079 0.70579 0.02046 0.0
C327 C 0.34747 0.76366 0.04154 0.0
H328 H 0.34146 0.78619 0.02878 0.0
H329 H 0.32655 0.756 0.05602 0.0
H330 H 0.36781 0.76838 0.058 0.0
O331 O 0.45105 0.76006 1.00911 0.0
O332 O 0.46006 0.71226 0.98742 0.0
H333 H 0.40245 0.65261 0.9938 0.0
H334 H 0.36261 0.64231 1.00796 0.0
C335 C 0.37644 0.65756 0.99115 0.0
H336 H 0.36943 0.65108 0.96638 0.0
H337 H 0.46967 0.65577 0.95555 0.0
O338 O 0.39996 0.81081 0.02231 0.0
C339 C 0.46783 0.73474 1.00632 0.0
Co340 Co 0.65192 0.28563 0.99173 0.0
Co341 Co 0.63655 0.34868 0.95637 0.0
C342 C 0.62191 0.28131 0.9276 0.0
O343 O 0.63751 0.26673 0.94956 0.0
O344 O 0.62131 0.31199 0.92725 0.0
C345 C 0.67639 0.22484 0.02055 0.0
O346 O 0.68605 0.21383 0.99267 0.0
C347 C 0.65502 0.39975 0.91261 0.0
C348 C 0.61935 0.43718 0.92405 0.0
C349 C 0.64701 0.4316 0.90645 0.0
N350 N 0.63381 0.38783 0.93357 0.0
N351 N 0.61202 0.40997 0.93967 0.0
C352 C 0.68217 0.38042 0.89928 0.0
H353 H 0.70237 0.38032 0.91658 0.0
H354 H 0.69044 0.39035 0.87601 0.0
H355 H 0.67444 0.35515 0.89605 0.0
C356 C 0.70557 0.32423 0.01791 0.0
N357 N 0.68354 0.3191 0.99446 0.0
N358 N 0.67606 0.34666 0.98117 0.0
C359 C 0.69248 0.37029 0.99655 0.0
C360 C 0.71197 0.35702 0.02056 0.0
C361 C 0.71528 0.29916 0.04166 0.0
H362 H 0.7213 0.27663 0.0289 0.0
H363 H 0.73619 0.30683 0.05615 0.0
H364 H 0.69493 0.29443 0.05811 0.0
O365 O 0.61171 0.30273 1.00926 0.0
O366 O 0.60268 0.35053 0.98757 0.0
H367 H 0.66033 0.41022 0.99396 0.0
H368 H 0.70021 0.42051 1.00799 0.0
C369 C 0.68632 0.40526 0.99124 0.0
H370 H 0.69327 0.41171 0.96644 0.0
H371 H 0.59312 0.40709 0.9558 0.0
O372 O 0.66282 0.25199 0.02242 0.0
C373 C 0.59492 0.32805 1.00647 0.0
Co374 Co 0.6519 0.77715 0.07103 0.0
Co375 Co 0.63654 0.7141 0.1064 0.0
C376 C 0.6219 0.78147 0.13516 0.0
O377 O 0.63749 0.79605 0.1132 0.0
O378 O 0.62129 0.75079 0.13551 0.0
C379 C 0.67636 0.83794 0.04221 0.0
O380 O 0.686 0.84895 0.0701 0.0
C381 C 0.65502 0.66303 0.15016 0.0
C382 C 0.61935 0.6256 0.13872 0.0
C383 C 0.64701 0.63118 0.15632 0.0
N384 N 0.6338 0.67495 0.1292 0.0
N385 N 0.61201 0.65281 0.1231 0.0
C386 C 0.68216 0.68237 0.16349 0.0
H387 H 0.70236 0.68248 0.14618 0.0
H388 H 0.69044 0.67244 0.18675 0.0
H389 H 0.67443 0.70764 0.16672 0.0
C390 C 0.70556 0.73856 0.04485 0.0
N391 N 0.68352 0.74369 0.06831 0.0
N392 N 0.67605 0.71612 0.08159 0.0
C393 C 0.69246 0.69249 0.06622 0.0
C394 C 0.71195 0.70576 0.0422 0.0
C395 C 0.71526 0.76362 0.0211 0.0
H396 H 0.69491 0.76835 1.00465 0.0
H397 H 0.72128 0.78615 0.03386 0.0
H398 H 0.73617 0.75595 1.00661 0.0
O399 O 0.61169 0.76005 0.05351 0.0
O400 O 0.60267 0.71224 0.0752 0.0
H401 H 0.66032 0.65256 0.06881 0.0
H402 H 0.7002 0.64228 0.05477 0.0
C403 C 0.68631 0.65753 0.07152 0.0
H404 H 0.69327 0.65108 0.09632 0.0
H405 H 0.59311 0.65569 0.10697 0.0
O406 O 0.66279 0.81079 0.04034 0.0
C407 C 0.59491 0.73473 0.0563 0.0
Co408 Co 0.57109 0.91089 0.78557 0.0
Co409 Co 0.60647 0.92622 0.84861 0.0
C410 C 0.63522 0.94088 0.78124 0.0
O411 O 0.61326 0.92529 0.76666 0.0
O412 O 0.63557 0.94148 0.81192 0.0
C413 C 0.54227 0.88646 0.72477 0.0
O414 O 0.57016 0.87684 0.71374 0.0
C415 C 0.65021 0.90771 0.89968 0.0
C416 C 0.63882 0.94341 0.9371 0.0
C417 C 0.65637 0.91572 0.93153 0.0
N418 N 0.62928 0.92895 0.88776 0.0
N419 N 0.62321 0.95075 0.90989 0.0
C420 C 0.66351 0.88054 0.88036 0.0
H421 H 0.64618 0.86037 0.88026 0.0
H422 H 0.68676 0.87224 0.8903 0.0
H423 H 0.66675 0.88826 0.85509 0.0
C424 C 0.54491 0.85722 0.82415 0.0
N425 N 0.56837 0.87925 0.81902 0.0
N426 N 0.58165 0.88672 0.84659 0.0
C427 C 0.56627 0.87031 0.87021 0.0
C428 C 0.54225 0.85082 0.85694 0.0
C429 C 0.52116 0.84752 0.79908 0.0
H430 H 0.53392 0.84152 0.77654 0.0
H431 H 0.50667 0.8266 0.80674 0.0
H432 H 0.5047 0.86787 0.79436 0.0
O433 O 0.55358 0.9511 0.80268 0.0
O434 O 0.57527 0.9601 0.85048 0.0
H435 H 0.56888 0.90246 0.91014 0.0
H436 H 0.55479 0.86259 0.92043 0.0
C437 C 0.57157 0.87646 0.90518 0.0
H438 H 0.59635 0.86948 0.91164 0.0
H439 H 0.6071 0.96968 0.907 0.0
O440 O 0.5404 0.9 0.75193 0.0
C441 C 0.55638 0.96787 0.82801 0.0
Co442 Co 0.49169 0.15197 0.78562 0.0
Co443 Co 0.45632 0.1366 0.84867 0.0
C444 C 0.42756 0.12197 0.7813 0.0
O445 O 0.44952 0.13756 0.76672 0.0
O446 O 0.42721 0.12136 0.81198 0.0
C447 C 0.52052 0.17643 0.72484 0.0
O448 O 0.49263 0.18607 0.71382 0.0
C449 C 0.41259 0.15508 0.89976 0.0
C450 C 0.424 0.11937 0.93716 0.0
C451 C 0.40643 0.14705 0.93161 0.0
N452 N 0.43352 0.13385 0.88782 0.0
N453 N 0.43961 0.11204 0.90994 0.0
C454 C 0.39927 0.18225 0.88045 0.0
H455 H 0.4166 0.20243 0.88035 0.0
H456 H 0.37602 0.19054 0.8904 0.0
H457 H 0.39602 0.17454 0.85518 0.0
C458 C 0.51788 0.20561 0.82423 0.0
N459 N 0.49442 0.18358 0.81909 0.0
N460 N 0.48114 0.1761 0.84666 0.0
C461 C 0.49652 0.19251 0.87029 0.0
C462 C 0.52053 0.212 0.85702 0.0
C463 C 0.54163 0.21533 0.79916 0.0
H464 H 0.55808 0.19497 0.79443 0.0
H465 H 0.52887 0.22135 0.77663 0.0
H466 H 0.55612 0.23624 0.80683 0.0
O467 O 0.50921 0.11175 0.80272 0.0
O468 O 0.48752 0.10272 0.85052 0.0
H469 H 0.4939 0.16035 0.91021 0.0
H470 H 0.50799 0.20021 0.9205 0.0
C471 C 0.49121 0.18635 0.90525 0.0
H472 H 0.46643 0.19332 0.91171 0.0
H473 H 0.45572 0.09312 0.90704 0.0
O474 O 0.52239 0.16286 0.75198 0.0
C475 C 0.50642 0.09496 0.82804 0.0
Co476 Co 0.57113 0.15186 0.27719 0.0
Co477 Co 0.6065 0.13652 0.21414 0.0
C478 C 0.63525 0.12186 0.28151 0.0
O479 O 0.61329 0.13746 0.2961 0.0
O480 O 0.6356 0.12126 0.25084 0.0
C481 C 0.54228 0.1763 0.33797 0.0
O482 O 0.57016 0.18595 0.349 0.0
C483 C 0.65025 0.15506 0.16308 0.0
C484 C 0.63888 0.11935 0.12566 0.0
C485 C 0.65642 0.14705 0.13123 0.0
N486 N 0.62932 0.13381 0.175 0.0
N487 N 0.62327 0.112 0.15286 0.0
C488 C 0.66353 0.18223 0.1824 0.0
H489 H 0.64619 0.2024 0.1825 0.0
H490 H 0.68678 0.19055 0.17247 0.0
H491 H 0.66677 0.17452 0.20767 0.0
C492 C 0.54495 0.20553 0.23861 0.0
N493 N 0.5684 0.1835 0.24373 0.0
N494 N 0.58168 0.17602 0.21617 0.0
C495 C 0.5663 0.19244 0.19254 0.0
C496 C 0.54228 0.21193 0.20582 0.0
C497 C 0.5212 0.21523 0.26368 0.0
H498 H 0.53396 0.22124 0.28621 0.0
H499 H 0.50671 0.23615 0.25602 0.0
H500 H 0.50474 0.19488 0.2684 0.0
O501 O 0.55362 0.11165 0.26006 0.0
O502 O 0.57531 0.10265 0.21226 0.0
H503 H 0.56892 0.16028 0.15262 0.0
H504 H 0.55481 0.20014 0.14233 0.0
C505 C 0.5716 0.18629 0.15758 0.0
H506 H 0.59638 0.19328 0.15111 0.0
H507 H 0.60717 0.09307 0.15575 0.0
O508 O 0.54042 0.16274 0.31082 0.0
C509 C 0.55641 0.09488 0.23474 0.0
Co510 Co 0.49167 0.91081 0.27713 0.0
Co511 Co 0.4563 0.92618 0.21408 0.0
C512 C 0.42754 0.94082 0.28146 0.0
O513 O 0.4495 0.92522 0.29604 0.0
O514 O 0.42719 0.94142 0.25078 0.0
C515 C 0.52051 0.88635 0.33791 0.0
O516 O 0.49263 0.87668 0.34892 0.0
C517 C 0.41256 0.90769 0.163 0.0
C518 C 0.42396 0.9434 0.1256 0.0
C519 C 0.4064 0.91571 0.13115 0.0
N520 N 0.43349 0.92892 0.17494 0.0
N521 N 0.43957 0.95073 0.15281 0.0
C522 C 0.39926 0.88051 0.18232 0.0
H523 H 0.41659 0.86034 0.18242 0.0
H524 H 0.37601 0.87221 0.17237 0.0
H525 H 0.396 0.88823 0.20759 0.0
C526 C 0.51785 0.85716 0.23853 0.0
N527 N 0.49439 0.87919 0.24366 0.0
N528 N 0.48111 0.88668 0.2161 0.0
C529 C 0.49649 0.87027 0.19247 0.0
C530 C 0.52051 0.85077 0.20574 0.0
C531 C 0.5416 0.84745 0.2636 0.0
H532 H 0.52884 0.84143 0.28613 0.0
H533 H 0.55609 0.82654 0.25593 0.0
H534 H 0.55805 0.8678 0.26833 0.0
O535 O 0.50919 0.95103 0.26002 0.0
O536 O 0.4875 0.96005 0.21223 0.0
H537 H 0.49388 0.90243 0.15255 0.0
H538 H 0.50797 0.86257 0.14225 0.0
C539 C 0.49119 0.87643 0.15751 0.0
H540 H 0.46641 0.86945 0.15104 0.0
H541 H 0.45568 0.96965 0.15571 0.0
O542 O 0.52237 0.89992 0.31077 0.0
C543 C 0.5064 0.96781 0.23471 0.0
Co544 Co 0.78559 0.57107 0.91082 0.0
Co545 Co 0.84864 0.60644 0.92617 0.0
C546 C 0.78127 0.6352 0.94081 0.0
O547 O 0.76668 0.61324 0.92521 0.0
O548 O 0.81194 0.63555 0.94141 0.0
C549 C 0.72479 0.54226 0.88639 0.0
O550 O 0.71376 0.57016 0.87679 0.0
C551 C 0.89973 0.65017 0.90768 0.0
C552 C 0.93713 0.63876 0.94339 0.0
C553 C 0.93157 0.65633 0.91571 0.0
N554 N 0.88779 0.62924 0.92891 0.0
N555 N 0.90991 0.62316 0.95072 0.0
C556 C 0.88042 0.66348 0.8805 0.0
H557 H 0.88032 0.64615 0.86033 0.0
H558 H 0.89037 0.68673 0.87221 0.0
H559 H 0.85515 0.66674 0.88822 0.0
C560 C 0.82419 0.54488 0.85716 0.0
N561 N 0.81906 0.56833 0.87919 0.0
N562 N 0.84662 0.58162 0.88667 0.0
C563 C 0.87025 0.56624 0.87026 0.0
C564 C 0.85698 0.54222 0.85077 0.0
C565 C 0.79912 0.52112 0.84746 0.0
H566 H 0.77659 0.53388 0.84145 0.0
H567 H 0.80679 0.50664 0.82655 0.0
H568 H 0.7944 0.50467 0.86781 0.0
O569 O 0.80269 0.55355 0.95104 0.0
O570 O 0.85049 0.57525 0.96004 0.0
H571 H 0.91018 0.56885 0.90242 0.0
H572 H 0.92047 0.55476 0.86255 0.0
C573 C 0.90522 0.57154 0.87642 0.0
H574 H 0.91168 0.59632 0.86943 0.0
H575 H 0.90701 0.60705 0.96964 0.0
O576 O 0.75195 0.54037 0.89992 0.0
C577 C 0.82801 0.55635 0.96782 0.0
Co578 Co 0.27717 0.4916 0.91088 0.0
Co579 Co 0.21412 0.45622 0.92622 0.0
C580 C 0.2815 0.42748 0.94089 0.0
O581 O 0.29608 0.44943 0.92529 0.0
O582 O 0.25082 0.42713 0.94149 0.0
C583 C 0.33794 0.52046 0.88643 0.0
O584 O 0.34896 0.49259 0.87675 0.0
C585 C 0.16305 0.41249 0.90768 0.0
C586 C 0.12564 0.42384 0.9434 0.0
C587 C 0.1312 0.40631 0.9157 0.0
N588 N 0.17498 0.4334 0.92893 0.0
N589 N 0.15285 0.43945 0.95075 0.0
C590 C 0.18237 0.39921 0.8805 0.0
H591 H 0.18247 0.41656 0.86034 0.0
H592 H 0.17243 0.37597 0.87218 0.0
H593 H 0.20764 0.39596 0.88821 0.0
C594 C 0.23859 0.51777 0.85721 0.0
N595 N 0.24371 0.49432 0.87924 0.0
N596 N 0.21615 0.48104 0.88672 0.0
C597 C 0.19252 0.49643 0.87031 0.0
C598 C 0.20579 0.52044 0.85082 0.0
C599 C 0.26366 0.54152 0.8475 0.0
H600 H 0.28619 0.52876 0.84149 0.0
H601 H 0.256 0.556 0.82658 0.0
H602 H 0.26838 0.55798 0.86784 0.0
O603 O 0.26004 0.50911 0.95108 0.0
O604 O 0.21223 0.48742 0.96009 0.0
H605 H 0.1526 0.4938 0.90248 0.0
H606 H 0.14231 0.50793 0.86263 0.0
C607 C 0.15756 0.49113 0.87647 0.0
H608 H 0.15108 0.46636 0.86947 0.0
H609 H 0.15574 0.45554 0.96969 0.0
O610 O 0.3108 0.52231 0.9 0.0
C611 C 0.23471 0.50632 0.96786 0.0
Co612 Co 0.78561 0.49173 0.15193 0.0
Co613 Co 0.84865 0.45636 0.13657 0.0
C614 C 0.78129 0.42759 0.12194 0.0
O615 O 0.7667 0.44956 0.13754 0.0
O616 O 0.81196 0.42724 0.12134 0.0
C617 C 0.72481 0.52053 0.17637 0.0
O618 O 0.71379 0.49264 0.18599 0.0
C619 C 0.89974 0.41262 0.15505 0.0
C620 C 0.93714 0.42404 0.11935 0.0
C621 C 0.93158 0.40646 0.14702 0.0
N622 N 0.8878 0.43356 0.13383 0.0
N623 N 0.90993 0.43965 0.11202 0.0
C624 C 0.88042 0.39929 0.18221 0.0
H625 H 0.88031 0.41661 0.20239 0.0
H626 H 0.89037 0.37604 0.1905 0.0
H627 H 0.85515 0.39604 0.17449 0.0
C628 C 0.82421 0.51792 0.20558 0.0
N629 N 0.81908 0.49447 0.18355 0.0
N630 N 0.84664 0.48118 0.17607 0.0
C631 C 0.87027 0.49656 0.19249 0.0
C632 C 0.857 0.52058 0.21197 0.0
C633 C 0.79914 0.54168 0.21528 0.0
H634 H 0.79441 0.55813 0.19493 0.0
H635 H 0.77661 0.52892 0.2213 0.0
H636 H 0.80681 0.55617 0.23619 0.0
O637 O 0.8027 0.50925 0.11171 0.0
O638 O 0.8505 0.48755 0.1027 0.0
H639 H 0.9102 0.49395 0.16033 0.0
H640 H 0.92049 0.50801 0.20021 0.0
C641 C 0.90523 0.49125 0.18633 0.0
H642 H 0.91169 0.46646 0.1933 0.0
H643 H 0.90704 0.45578 0.09311 0.0
O644 O 0.75197 0.52242 0.16283 0.0
C645 C 0.82802 0.50645 0.09493 0.0
Co646 Co 0.27716 0.57112 0.15188 0.0
Co647 Co 0.21411 0.6065 0.13653 0.0
C648 C 0.28148 0.63524 0.12187 0.0
O649 O 0.29607 0.61329 0.13747 0.0
O650 O 0.2508 0.6356 0.12127 0.0
C651 C 0.33793 0.54227 0.17635 0.0
O652 O 0.34895 0.57014 0.18602 0.0
C653 C 0.16304 0.65024 0.15505 0.0
C654 C 0.12562 0.63885 0.11935 0.0
C655 C 0.13119 0.65641 0.14704 0.0
N656 N 0.17496 0.62931 0.13381 0.0
N657 N 0.15283 0.62324 0.112 0.0
C658 C 0.18237 0.66354 0.18221 0.0
H659 H 0.18247 0.64621 0.20239 0.0
H660 H 0.17244 0.68679 0.19051 0.0
H661 H 0.20764 0.66678 0.17449 0.0
C662 C 0.23857 0.54495 0.20555 0.0
N663 N 0.2437 0.56841 0.18351 0.0
N664 N 0.21614 0.58169 0.17604 0.0
C665 C 0.19251 0.5663 0.19245 0.0
C666 C 0.20578 0.54229 0.21194 0.0
C667 C 0.26364 0.5212 0.21526 0.0
H668 H 0.26837 0.50474 0.19491 0.0
H669 H 0.28617 0.53396 0.22127 0.0
H670 H 0.25598 0.50672 0.23618 0.0
O671 O 0.26003 0.5536 0.11168 0.0
O672 O 0.21223 0.57529 0.10266 0.0
H673 H 0.15258 0.56892 0.16029 0.0
H674 H 0.14229 0.55482 0.20015 0.0
C675 C 0.15754 0.5716 0.18629 0.0
H676 H 0.15107 0.59638 0.19327 0.0
H677 H 0.15571 0.60713 0.09308 0.0
O678 O 0.31079 0.54042 0.16277 0.0
C679 C 0.23471 0.55639 0.0949 0.0
Co680 Co 0.91085 0.78556 0.57117 0.0
Co681 Co 0.92618 0.84861 0.60655 0.0
C682 C 0.94085 0.78123 0.63529 0.0
O683 O 0.92525 0.76664 0.61333 0.0
O684 O 0.94144 0.81191 0.63565 0.0
C685 C 0.88643 0.72478 0.54231 0.0
O686 O 0.87679 0.71374 0.57019 0.0
C687 C 0.90763 0.89969 0.65027 0.0
C688 C 0.94338 0.93708 0.63893 0.0
C689 C 0.91566 0.93153 0.65644 0.0
N690 N 0.9289 0.88775 0.62937 0.0
N691 N 0.95073 0.90987 0.62333 0.0
C692 C 0.88043 0.88039 0.66353 0.0
H693 H 0.86029 0.88029 0.64616 0.0
H694 H 0.8721 0.89034 0.68676 0.0
H695 H 0.88813 0.85511 0.6668 0.0
C696 C 0.85719 0.82414 0.54498 0.0
N697 N 0.87922 0.81902 0.56844 0.0
N698 N 0.88669 0.84658 0.58172 0.0
C699 C 0.87028 0.87021 0.56633 0.0
C700 C 0.85079 0.85694 0.54232 0.0
C701 C 0.84748 0.79907 0.52123 0.0
H702 H 0.84148 0.77654 0.534 0.0
H703 H 0.82656 0.80673 0.50676 0.0
H704 H 0.86783 0.79435 0.50477 0.0
O705 O 0.95107 0.80269 0.55367 0.0
O706 O 0.96006 0.85049 0.57536 0.0
H707 H 0.86262 0.92042 0.55481 0.0
H708 H 0.86942 0.91166 0.59639 0.0
C709 C 0.87644 0.90518 0.57162 0.0
H710 H 0.90245 0.91012 0.56898 0.0
H711 H 0.96967 0.90696 0.60726 0.0
O712 O 0.89998 0.75193 0.54045 0.0
C713 C 0.96784 0.82802 0.55646 0.0
Co714 Co 0.91083 0.27719 0.4916 0.0
Co715 Co 0.92617 0.21414 0.45622 0.0
C716 C 0.94083 0.28152 0.42748 0.0
O717 O 0.92523 0.2961 0.44944 0.0
O718 O 0.94142 0.25084 0.42712 0.0
C719 C 0.8864 0.33797 0.52045 0.0
O720 O 0.87676 0.349 0.49257 0.0
C721 C 0.90763 0.16305 0.41251 0.0
C722 C 0.94338 0.12566 0.42386 0.0
C723 C 0.91566 0.13121 0.40634 0.0
N724 N 0.92889 0.175 0.43341 0.0
N725 N 0.95072 0.15288 0.43945 0.0
C726 C 0.88043 0.18235 0.39924 0.0
H727 H 0.86028 0.18245 0.4166 0.0
H728 H 0.8721 0.17239 0.37601 0.0
H729 H 0.88813 0.20762 0.39597 0.0
C730 C 0.85717 0.2386 0.51779 0.0
N731 N 0.8792 0.24373 0.49433 0.0
N732 N 0.88667 0.21616 0.48105 0.0
C733 C 0.87027 0.19253 0.49644 0.0
C734 C 0.85078 0.2058 0.52045 0.0
C735 C 0.84746 0.26367 0.54153 0.0
H736 H 0.8678 0.26839 0.558 0.0
H737 H 0.84145 0.2862 0.52877 0.0
H738 H 0.82654 0.25601 0.55601 0.0
O739 O 0.95104 0.26006 0.50911 0.0
O740 O 0.96005 0.21226 0.48741 0.0
H741 H 0.90244 0.15262 0.49379 0.0
H742 H 0.8626 0.14232 0.50796 0.0
C743 C 0.87643 0.15757 0.49115 0.0
H744 H 0.86941 0.15108 0.46638 0.0
H745 H 0.96966 0.15579 0.45553 0.0
O746 O 0.89995 0.31082 0.52231 0.0
C747 C 0.96782 0.23474 0.50631 0.0
Co748 Co 0.15191 0.78564 0.49173 0.0
Co749 Co 0.13654 0.84869 0.45637 0.0
C750 C 0.12191 0.78132 0.4276 0.0
O751 O 0.13751 0.76674 0.44956 0.0
O752 O 0.1213 0.812 0.42725 0.0
C753 C 0.17639 0.72485 0.52055 0.0
O754 O 0.18604 0.71384 0.49267 0.0
C755 C 0.15501 0.89976 0.41261 0.0
C756 C 0.11933 0.93719 0.42406 0.0
C757 C 0.14699 0.93161 0.40646 0.0
N758 N 0.13379 0.88784 0.43357 0.0
N759 N 0.11201 0.90998 0.43968 0.0
C760 C 0.18214 0.88042 0.39927 0.0
H761 H 0.20234 0.88032 0.41657 0.0
H762 H 0.19041 0.89036 0.376 0.0
H763 H 0.17441 0.85516 0.39604 0.0
C764 C 0.20556 0.82424 0.51791 0.0
N765 N 0.18353 0.81911 0.49446 0.0
N766 N 0.17605 0.84667 0.48117 0.0
C767 C 0.19246 0.8703 0.49655 0.0
C768 C 0.21196 0.85703 0.52056 0.0
C769 C 0.21527 0.79917 0.54166 0.0
H770 H 0.2213 0.77664 0.5289 0.0
H771 H 0.23618 0.80684 0.55616 0.0
H772 H 0.19492 0.79443 0.55811 0.0
O773 O 0.1117 0.80273 0.50926 0.0
O774 O 0.10267 0.85054 0.48757 0.0
H775 H 0.16032 0.91023 0.49396 0.0
H776 H 0.20021 0.92052 0.50799 0.0
C777 C 0.18631 0.90526 0.49124 0.0
H778 H 0.19326 0.91171 0.46644 0.0
H779 H 0.09311 0.9071 0.45582 0.0
O780 O 0.16281 0.75199 0.52242 0.0
C781 C 0.09491 0.82805 0.50647 0.0
Co782 Co 0.15189 0.27714 0.57103 0.0
Co783 Co 0.13653 0.21409 0.60639 0.0
C784 C 0.12189 0.28146 0.63516 0.0
O785 O 0.13749 0.29604 0.61321 0.0
O786 O 0.12128 0.25078 0.63551 0.0
C787 C 0.17635 0.33793 0.54222 0.0
O788 O 0.186 0.34894 0.5701 0.0
C789 C 0.155 0.16302 0.65016 0.0
C790 C 0.11933 0.12559 0.63871 0.0
C791 C 0.14699 0.13117 0.65631 0.0
N792 N 0.13379 0.17494 0.62919 0.0
N793 N 0.112 0.15279 0.62309 0.0
C794 C 0.18214 0.18236 0.66349 0.0
H795 H 0.20234 0.18247 0.64619 0.0
H796 H 0.19041 0.17243 0.68676 0.0
H797 H 0.1744 0.20763 0.66672 0.0
C798 C 0.20554 0.23855 0.54485 0.0
N799 N 0.18351 0.24368 0.5683 0.0
N800 N 0.17603 0.21611 0.58159 0.0
C801 C 0.19245 0.19249 0.56621 0.0
C802 C 0.21194 0.20576 0.5422 0.0
C803 C 0.21525 0.26362 0.5211 0.0
H804 H 0.22127 0.28615 0.53385 0.0
H805 H 0.23616 0.25595 0.5066 0.0
H806 H 0.19489 0.26835 0.50465 0.0
O807 O 0.11167 0.26004 0.55351 0.0
O808 O 0.10266 0.21224 0.57519 0.0
H809 H 0.16031 0.15255 0.5688 0.0
H810 H 0.2002 0.14227 0.55477 0.0
C811 C 0.1863 0.15752 0.57152 0.0
H812 H 0.19325 0.15107 0.59632 0.0
H813 H 0.0931 0.15567 0.60695 0.0
O814 O 0.16278 0.31079 0.54034 0.0
C815 C 0.09489 0.23472 0.55629 0.0
C816 C 0.16558 0.36194 0.45616 0.0
C817 C 0.16925 0.39534 0.45755 0.0
H818 H 0.16576 0.31776 0.4815 0.0
C819 C 0.17964 0.40939 0.48645 0.0
H820 H 0.15647 0.3501 0.43506 0.0
C821 C 0.1841 0.3906 0.51393 0.0
C822 C 0.17813 0.35751 0.51281 0.0
H823 H 0.18251 0.43515 0.48829 0.0
H824 H 0.19033 0.40221 0.5363 0.0
C825 C 0.1703 0.34327 0.48331 0.0
C826 C 0.89722 0.70081 0.45624 0.0
C827 C 0.89355 0.66741 0.45762 0.0
H828 H 0.89703 0.74498 0.4816 0.0
C829 C 0.88317 0.65334 0.48652 0.0
H830 H 0.90633 0.71267 0.43515 0.0
C831 C 0.87871 0.67212 0.514 0.0
C832 C 0.88466 0.70521 0.5129 0.0
H833 H 0.88031 0.62759 0.48834 0.0
H834 H 0.87248 0.66049 0.53637 0.0
C835 C 0.8925 0.71947 0.4834 0.0
C836 C 0.17968 0.65339 0.57631 0.0
C837 C 0.16929 0.66744 0.60521 0.0
H838 H 0.19037 0.66057 0.52646 0.0
C839 C 0.16561 0.70084 0.60661 0.0
H840 H 0.18255 0.62764 0.57447 0.0
C841 C 0.17033 0.71951 0.57946 0.0
C842 C 0.17817 0.70527 0.54995 0.0
H843 H 0.1565 0.71268 0.62771 0.0
H844 H 0.16578 0.74502 0.58127 0.0
C845 C 0.18414 0.67218 0.54884 0.0
C846 C 0.89719 0.36195 0.60652 0.0
C847 C 0.89352 0.39535 0.60514 0.0
H848 H 0.897 0.31778 0.58116 0.0
C849 C 0.88314 0.40941 0.57624 0.0
H850 H 0.9063 0.35009 0.62761 0.0
C851 C 0.87867 0.39063 0.54876 0.0
C852 C 0.88463 0.35754 0.54986 0.0
H853 H 0.88028 0.43517 0.57441 0.0
H854 H 0.87244 0.40225 0.52639 0.0
C855 C 0.89247 0.34329 0.57936 0.0
C856 C 0.51397 0.18404 0.39063 0.0
C857 C 0.51287 0.17807 0.35754 0.0
H858 H 0.48831 0.18245 0.43516 0.0
C859 C 0.48337 0.17024 0.34329 0.0
H860 H 0.53634 0.19027 0.40225 0.0
C861 C 0.45621 0.16553 0.36194 0.0
C862 C 0.45759 0.1692 0.39534 0.0
H863 H 0.48157 0.1657 0.31777 0.0
H864 H 0.43512 0.15642 0.35008 0.0
C865 C 0.48648 0.17958 0.40941 0.0
C866 C 0.60657 0.89715 0.36192 0.0
C867 C 0.60518 0.89345 0.39531 0.0
H868 H 0.58122 0.897 0.31774 0.0
C869 C 0.57629 0.88304 0.40936 0.0
H870 H 0.62766 0.90628 0.35007 0.0
C871 C 0.54881 0.87858 0.39057 0.0
C872 C 0.54992 0.88457 0.35749 0.0
H873 H 0.57445 0.88015 0.43511 0.0
H874 H 0.52644 0.87233 0.40218 0.0
C875 C 0.57941 0.89244 0.34325 0.0
C876 C 0.48336 0.89248 0.71945 0.0
C877 C 0.51287 0.88468 0.7052 0.0
H878 H 0.4351 0.90629 0.71266 0.0
C879 C 0.51398 0.87875 0.6721 0.0
H880 H 0.48155 0.89699 0.74496 0.0
C881 C 0.4865 0.88323 0.65332 0.0
C882 C 0.45759 0.89358 0.66739 0.0
H883 H 0.53636 0.87255 0.66048 0.0
H884 H 0.48834 0.88039 0.62756 0.0
C885 C 0.4562 0.8972 0.70079 0.0
C886 C 0.5488 0.18417 0.67216 0.0
C887 C 0.54992 0.1782 0.70525 0.0
H888 H 0.57443 0.18256 0.62762 0.0
C889 C 0.57942 0.17036 0.71949 0.0
H890 H 0.52643 0.1904 0.66056 0.0
C891 C 0.60657 0.16564 0.70082 0.0
C892 C 0.60518 0.16931 0.66742 0.0
H893 H 0.58123 0.16583 0.745 0.0
H894 H 0.62767 0.15653 0.71267 0.0
C895 C 0.57627 0.1797 0.65337 0.0
C896 C 0.34325 0.48336 0.17027 0.0
C897 C 0.35749 0.51285 0.17813 0.0
H898 H 0.35005 0.43511 0.15644 0.0
C899 C 0.39058 0.51394 0.18413 0.0
H900 H 0.31774 0.48157 0.1657 0.0
C901 C 0.40936 0.48646 0.17969 0.0
C902 C 0.3953 0.45757 0.16928 0.0
H903 H 0.40219 0.53631 0.19038 0.0
H904 H 0.43511 0.48828 0.18258 0.0
C905 C 0.3619 0.45619 0.16557 0.0
C906 C 0.40936 0.57628 0.88309 0.0
C907 C 0.3953 0.60517 0.8935 0.0
H908 H 0.4022 0.52643 0.87239 0.0
C909 C 0.3619 0.60654 0.89721 0.0
H910 H 0.43511 0.57446 0.88019 0.0
C911 C 0.34325 0.57937 0.89252 0.0
C912 C 0.3575 0.54988 0.88465 0.0
H913 H 0.35005 0.62763 0.90634 0.0
H914 H 0.31774 0.58116 0.89709 0.0
C915 C 0.39058 0.54879 0.87864 0.0
C916 C 0.71945 0.48335 0.8924 0.0
C917 C 0.7052 0.51286 0.88461 0.0
H918 H 0.71264 0.4351 0.90622 0.0
C919 C 0.6721 0.51399 0.87871 0.0
H920 H 0.74497 0.48153 0.89689 0.0
C921 C 0.65331 0.48652 0.8832 0.0
C922 C 0.66737 0.45761 0.89354 0.0
H923 H 0.66049 0.53638 0.87252 0.0
H924 H 0.62755 0.48837 0.88038 0.0
C925 C 0.70078 0.4562 0.89714 0.0
C926 C 0.70078 0.60659 0.16561 0.0
C927 C 0.66738 0.60518 0.16923 0.0
H928 H 0.74497 0.58126 0.16584 0.0
C929 C 0.65332 0.57627 0.17958 0.0
H930 H 0.71264 0.62769 0.15652 0.0
C931 C 0.67212 0.5488 0.18407 0.0
C932 C 0.70522 0.54993 0.17815 0.0
H933 H 0.62757 0.57442 0.18241 0.0
H934 H 0.66051 0.52642 0.19027 0.0
C935 C 0.71946 0.57944 0.17035 0.0
C936 C 0.99452 0.71322 0.66751 0.0
C937 C 1.0151 0.72929 0.68898 0.0
H938 H 0.95494 0.71629 0.63457 0.0
C939 C 1.00903 0.76203 0.69472 0.0
H940 H 0.99798 0.68791 0.66282 0.0
C941 C 0.98402 0.77842 0.67871 0.0
C942 C 0.96389 0.76261 0.65649 0.0
H943 H 0.02417 0.77524 0.71118 0.0
H944 H 0.98108 0.80383 0.68313 0.0
C945 C 0.96942 0.72953 0.65158 0.0
C946 C 0.05374 0.30065 0.69463 0.0
C947 C 0.04768 0.3334 0.6889 0.0
H948 H 0.08167 0.25885 0.68301 0.0
C949 C 0.06825 0.34947 0.66742 0.0
H950 H 0.0386 0.28745 0.71109 0.0
C951 C 0.09334 0.33316 0.65148 0.0
C952 C 0.09886 0.30007 0.65638 0.0
H953 H 0.0648 0.37478 0.66274 0.0
H954 H 0.10783 0.3464 0.63447 0.0
C955 C 0.07873 0.28426 0.6786 0.0
C956 C 0.96939 0.33322 0.4112 0.0
C957 C 0.96386 0.30014 0.40628 0.0
H958 H 0.99796 0.37483 0.39996 0.0
C959 C 0.98399 0.28433 0.38405 0.0
H960 H 0.95491 0.34645 0.4282 0.0
C961 C 1.009 0.30072 0.36804 0.0
C962 C 1.01506 0.33346 0.37378 0.0
H963 H 0.98104 0.25892 0.37962 0.0
H964 H 0.02413 0.28752 0.35157 0.0
C965 C 0.99449 0.34953 0.39526 0.0
C966 C 0.07876 0.77851 0.38416 0.0
C967 C 0.09889 0.7627 0.40639 0.0
H968 H 0.03863 0.77533 0.35167 0.0
C969 C 0.09336 0.72962 0.41129 0.0
H970 H 0.0817 0.80393 0.37975 0.0
C971 C 0.06827 0.71331 0.39534 0.0
C972 C 0.04771 0.72938 0.37386 0.0
H973 H 0.10784 0.71638 0.42829 0.0
H974 H 0.06482 0.688 0.40002 0.0
C975 C 0.05376 0.76213 0.36813 0.0
C976 C 0.67864 0.98405 0.77844 0.0
C977 C 0.65643 0.96392 0.76262 0.0
H978 H 0.71112 0.02419 0.77526 0.0
C979 C 0.65152 0.96944 0.72954 0.0
H980 H 0.68306 0.98111 0.80385 0.0
C981 C 0.66745 0.99454 0.71323 0.0
C982 C 0.68893 1.01512 0.72931 0.0
H983 H 0.63452 0.95496 0.7163 0.0
H984 H 0.66277 0.998 0.68793 0.0
C985 C 0.69466 1.00906 0.76205 0.0
C986 C 0.41127 0.09341 0.7296 0.0
C987 C 0.40635 0.09894 0.76268 0.0
H988 H 0.40002 0.06486 0.68798 0.0
C989 C 0.38412 0.07882 0.77848 0.0
H990 H 0.42828 0.10789 0.71636 0.0
C991 C 0.36809 0.05382 0.76209 0.0
C992 C 0.37384 0.04776 0.72935 0.0
H993 H 0.37969 0.08176 0.8039 0.0
H994 H 0.35162 0.03869 0.77529 0.0
C995 C 0.39532 0.06832 0.71328 0.0
C996 C 0.67867 0.07868 0.28432 0.0
C997 C 0.65645 0.09882 0.30013 0.0
H998 H 0.71113 0.03853 0.2875 0.0
C999 C 0.65155 0.0933 0.33322 0.0
H1000 H 0.68308 0.08162 0.2589 0.0
C1001 C 0.66748 0.0682 0.34953 0.0
C1002 C 0.68895 0.04762 0.33345 0.0
H1003 H 0.63455 0.10779 0.34646 0.0
H1004 H 0.6628 0.06474 0.37483 0.0
C1005 C 0.69468 0.05367 0.30071 0.0
C1006 C 0.3953 0.99447 0.34947 0.0
C1007 C 0.37382 1.01503 0.3334 0.0
H1008 H 0.42825 0.95489 0.3464 0.0
C1009 C 0.36808 1.00897 0.30066 0.0
H1010 H 0.39999 0.99793 0.37478 0.0
C1011 C 0.3841 0.98397 0.28427 0.0
C1012 C 0.40633 0.96385 0.30008 0.0
H1013 H 0.35161 0.0241 0.28746 0.0
H1014 H 0.37968 0.98103 0.25886 0.0
C1015 C 0.41124 0.96937 0.33316 0.0
C1016 C 0.76207 0.69466 1.00895 0.0
C1017 C 0.72932 0.68892 1.01502 0.0
H1018 H 0.80387 0.68307 0.98101 0.0
C1019 C 0.71326 0.66743 0.99446 0.0
H1020 H 0.77527 0.71113 0.02408 0.0
C1021 C 0.72957 0.65149 0.96937 0.0
C1022 C 0.76265 0.65641 0.96383 0.0
H1023 H 0.68795 0.66274 0.99792 0.0
H1024 H 0.71633 0.63448 0.95489 0.0
C1025 C 0.77845 0.67864 0.98395 0.0
C1026 C 0.77847 0.38415 0.0788 0.0
C1027 C 0.76266 0.40638 0.09892 0.0
H1028 H 0.77528 0.35166 0.03867 0.0
C1029 C 0.72958 0.4113 0.09339 0.0
H1030 H 0.80388 0.37973 0.08174 0.0
C1031 C 0.71327 0.39535 0.0683 0.0
C1032 C 0.72934 0.37387 0.04774 0.0
H1033 H 0.71635 0.42831 0.10787 0.0
H1034 H 0.68797 0.40004 0.06484 0.0
C1035 C 0.76208 0.36813 0.0538 0.0
C1036 C 0.30067 0.69469 0.05369 0.0
C1037 C 0.33342 0.68896 0.04764 0.0
H1038 H 0.25887 0.68308 0.08163 0.0
C1039 C 0.34949 0.66749 0.06822 0.0
H1040 H 0.28747 0.71114 0.03855 0.0
C1041 C 0.33318 0.65155 0.09331 0.0
C1042 C 0.3001 0.65645 0.09883 0.0
H1043 H 0.3748 0.66281 0.06476 0.0
H1044 H 0.34642 0.63455 0.1078 0.0
C1045 C 0.28429 0.67867 0.0787 0.0
C1046 C 0.3332 0.41118 0.96945 0.0
C1047 C 0.30012 0.40627 0.96393 0.0
H1048 H 0.37481 0.39993 0.998 0.0
C1049 C 0.2843 0.38406 0.98406 0.0
H1050 H 0.34643 0.42818 0.95496 0.0
C1051 C 0.30069 0.36805 1.00907 0.0
C1052 C 0.33344 0.37378 1.01513 0.0
H1053 H 0.25889 0.37964 0.98113 0.0
H1054 H 0.28749 0.35159 0.02421 0.0
C1055 C 0.34951 0.39525 0.99455 0.0
C1056 C 0.67963 0.9094 0.98645 0.0
C1057 C 0.66925 0.89534 0.95754 0.0
H1058 H 0.69032 0.90222 0.0363 0.0
C1059 C 0.66559 0.86194 0.95615 0.0
H1060 H 0.68249 0.93515 0.98829 0.0
C1061 C 0.67031 0.84328 0.98331 0.0
C1062 C 0.67814 0.85752 1.01281 0.0
H1063 H 0.65649 0.85009 0.93505 0.0
H1064 H 0.66578 0.81777 0.9815 0.0
C1065 C 0.6841 0.89061 1.01392 0.0
C1066 C 0.39248 0.21947 0.98341 0.0
C1067 C 0.38466 0.20521 1.01291 0.0
H1068 H 0.40629 0.21268 0.93515 0.0
C1069 C 0.37872 0.17211 1.01401 0.0
H1070 H 0.397 0.24498 0.98161 0.0
C1071 C 0.38318 0.15334 0.98653 0.0
C1072 C 0.39355 0.16741 0.95763 0.0
H1073 H 0.37251 0.16049 0.03639 0.0
H1074 H 0.38034 0.12758 0.98836 0.0
C1075 C 0.39719 0.20081 0.95625 0.0
C1076 C 0.67033 0.2195 0.07946 0.0
C1077 C 0.67817 0.20526 0.04996 0.0
H1078 H 0.6565 0.21268 0.12771 0.0
C1079 C 0.68415 0.17217 0.04884 0.0
H1080 H 0.66579 0.24501 0.08127 0.0
C1081 C 0.67968 0.15338 0.07632 0.0
C1082 C 0.6693 0.16743 0.10522 0.0
H1083 H 0.69038 0.16057 0.02647 0.0
H1084 H 0.68255 0.12763 0.07448 0.0
C1085 C 0.66562 0.20083 0.10661 0.0
C1086 C 0.37868 0.89063 0.04876 0.0
C1087 C 0.38464 0.85754 0.04986 0.0
H1088 H 0.38028 0.93516 0.0744 0.0
C1089 C 0.39247 0.84329 0.07936 0.0
H1090 H 0.37245 0.90224 0.02638 0.0
C1091 C 0.39719 0.86194 0.10652 0.0
C1092 C 0.39352 0.89535 0.10514 0.0
H1093 H 0.397 0.81777 0.08116 0.0
H1094 H 0.4063 0.85009 0.12761 0.0
C1095 C 0.38314 0.90941 0.07624 0.0
C1096 C 0.98338 0.67025 0.84329 0.0
C1097 C 1.01288 0.67807 0.85754 0.0
H1098 H 0.93512 0.65644 0.85008 0.0
C1099 C 1.01398 0.68403 0.89063 0.0
H1100 H 0.98158 0.66572 0.81777 0.0
C1101 C 0.9865 0.67957 0.90941 0.0
C1102 C 0.9576 0.6692 0.89534 0.0
H1103 H 0.03635 0.69025 0.90225 0.0
H1104 H 0.98833 0.68243 0.93516 0.0
C1105 C 0.95621 0.66554 0.86194 0.0
C1106 C 0.04882 0.37858 0.89057 0.0
C1107 C 0.04992 0.38457 0.85749 0.0
H1108 H 0.07446 0.38015 0.93511 0.0
C1109 C 0.07942 0.39243 0.84325 0.0
H1110 H 0.02645 0.37233 0.90218 0.0
C1111 C 0.10658 0.39714 0.86191 0.0
C1112 C 0.10519 0.39345 0.89531 0.0
H1113 H 0.08122 0.39699 0.81774 0.0
H1114 H 0.12767 0.40627 0.85007 0.0
C1115 C 0.07629 0.38304 0.90936 0.0
C1116 C 1.01398 0.37874 0.17211 0.0
C1117 C 1.01287 0.38468 0.2052 0.0
H1118 H 0.98834 0.38036 0.12757 0.0
C1119 C 0.98337 0.3925 0.21945 0.0
H1120 H 0.03636 0.37253 0.16049 0.0
C1121 C 0.95621 0.39722 0.20079 0.0
C1122 C 0.9576 0.39357 0.16739 0.0
H1123 H 0.98156 0.39701 0.24496 0.0
H1124 H 0.93511 0.40631 0.21265 0.0
C1125 C 0.9865 0.38321 0.15332 0.0
C1126 C 0.07628 0.67968 0.15336 0.0
C1127 C 0.10519 0.6693 0.16742 0.0
H1128 H 0.02643 0.69037 0.16054 0.0
C1129 C 0.10658 0.66564 0.20082 0.0
H1130 H 0.07444 0.68253 0.12761 0.0
C1131 C 0.07943 0.67037 0.21949 0.0
C1132 C 0.04993 0.6782 0.20524 0.0
H1133 H 0.12768 0.65654 0.21267 0.0
H1134 H 0.08124 0.66585 0.245 0.0
C1135 C 0.04881 0.68415 0.17215 0.0
C1136 C 0.90933 0.98645 0.6797 0.0
C1137 C 0.89527 0.95756 0.66928 0.0
H1138 H 0.90217 0.0363 0.69041 0.0
C1139 C 0.86188 0.95619 0.66555 0.0
H1140 H 0.93508 0.98827 0.68261 0.0
C1141 C 0.84323 0.98336 0.67025 0.0
C1142 C 0.85747 1.01285 0.67813 0.0
H1143 H 0.85003 0.93511 0.65642 0.0
H1144 H 0.81772 0.98157 0.66567 0.0
C1145 C 0.89055 1.01393 0.68415 0.0
C1146 C 0.90934 0.07629 0.38308 0.0
C1147 C 0.89528 0.10518 0.39349 0.0
H1148 H 0.90219 0.02644 0.37238 0.0
C1149 C 0.86189 0.10654 0.39722 0.0
H1150 H 0.93509 0.07447 0.38017 0.0
C1151 C 0.84324 0.07937 0.39252 0.0
C1152 C 0.85749 0.04988 0.38465 0.0
H1153 H 0.85003 0.12763 0.40635 0.0
H1154 H 0.81773 0.08116 0.3971 0.0
C1155 C 0.89057 0.0488 0.37864 0.0
C1156 C 0.17209 1.014 0.37871 0.0
C1157 C 0.20519 1.01287 0.38461 0.0
H1158 H 0.12754 0.98838 0.38038 0.0
C1159 C 0.21943 0.98335 0.3924 0.0
H1160 H 0.16048 0.03638 0.37252 0.0
C1161 C 0.20076 0.9562 0.39714 0.0
C1162 C 0.16736 0.95761 0.39354 0.0
H1163 H 0.24495 0.98153 0.39689 0.0
H1164 H 0.21262 0.9351 0.40622 0.0
C1165 C 0.1533 0.98653 0.3832 0.0
C1166 C 0.1533 0.07625 0.67956 0.0
C1167 C 0.16736 0.10517 0.66922 0.0
H1168 H 0.16048 0.0264 0.69024 0.0
C1169 C 0.20077 0.10658 0.66563 0.0
H1170 H 0.12754 0.0744 0.68237 0.0
C1171 C 0.21944 0.07944 0.67037 0.0
C1172 C 0.2052 0.04992 0.67816 0.0
H1173 H 0.21262 0.12769 0.65656 0.0
H1174 H 0.24496 0.08126 0.66589 0.0
C1175 C 0.1721 0.04879 0.68405 0.0
C1176 C 0.48403 0.27843 0.17871 0.0
C1177 C 0.4639 0.26261 0.15649 0.0
H1178 H 0.52417 0.27524 0.21118 0.0
C1179 C 0.46943 0.22953 0.15157 0.0
H1180 H 0.48109 0.30384 0.18313 0.0
C1181 C 0.49453 0.21322 0.16751 0.0
C1182 C 0.5151 0.2293 0.18898 0.0
H1183 H 0.45494 0.2163 0.13457 0.0
H1184 H 0.49799 0.18792 0.16282 0.0
C1185 C 0.50904 0.26204 0.19472 0.0
C1186 C 0.57874 0.78427 0.1786 0.0
C1187 C 0.59887 0.80009 0.15638 0.0
H1188 H 0.53861 0.78745 0.21108 0.0
C1189 C 0.59335 0.83317 0.15147 0.0
H1190 H 0.58168 0.75886 0.18301 0.0
C1191 C 0.56825 0.84948 0.16742 0.0
C1192 C 0.54768 0.83341 0.18889 0.0
H1193 H 0.60783 0.84641 0.13447 0.0
H1194 H 0.5648 0.87479 0.16274 0.0
C1195 C 0.55374 0.80066 0.19462 0.0
C1196 C 0.4694 0.83321 0.91119 0.0
C1197 C 0.46387 0.80013 0.90628 0.0
H1198 H 0.49796 0.87483 0.89995 0.0
C1199 C 0.484 0.78432 0.88405 0.0
H1200 H 0.45492 0.84644 0.9282 0.0
C1201 C 0.509 0.80071 0.86804 0.0
C1202 C 0.51507 0.83345 0.87378 0.0
H1203 H 0.48105 0.75891 0.87963 0.0
H1204 H 0.52414 0.78751 0.85157 0.0
C1205 C 0.4945 0.84952 0.89526 0.0
C1206 C 0.55377 0.26212 0.86813 0.0
C1207 C 0.54771 0.22937 0.87387 0.0
H1208 H 0.58171 0.30392 0.87974 0.0
C1209 C 0.56828 0.2133 0.89535 0.0
H1210 H 0.53864 0.27532 0.85167 0.0
C1211 C 0.59337 0.22961 0.91129 0.0
C1212 C 0.59889 0.26269 0.90639 0.0
H1213 H 0.56482 0.18799 0.90003 0.0
H1214 H 0.60785 0.21637 0.9283 0.0
C1215 C 0.57877 0.2785 0.88416 0.0
C1216 C 0.17865 0.48404 0.27844 0.0
C1217 C 0.15644 0.46391 0.26263 0.0
H1218 H 0.21113 0.52419 0.27526 0.0
C1219 C 0.15153 0.46944 0.22955 0.0
H1220 H 0.18307 0.48111 0.30386 0.0
C1221 C 0.16747 0.49453 0.21324 0.0
C1222 C 0.18894 0.51511 0.22931 0.0
H1223 H 0.13453 0.45495 0.21631 0.0
H1224 H 0.16278 0.49799 0.18793 0.0
C1225 C 0.19467 0.50905 0.26206 0.0
C1226 C 0.91128 0.59341 0.22959 0.0
C1227 C 0.90636 0.59894 0.26267 0.0
H1228 H 0.90003 0.56485 0.18797 0.0
C1229 C 0.88412 0.57882 0.27847 0.0
H1230 H 0.92829 0.60788 0.21635 0.0
C1231 C 0.8681 0.55382 0.26209 0.0
C1232 C 0.87385 0.54775 0.22934 0.0
H1233 H 0.8797 0.58177 0.30389 0.0
H1234 H 0.85163 0.53869 0.27528 0.0
C1235 C 0.89534 0.56832 0.21327 0.0
C1236 C 0.17867 0.57869 0.78432 0.0
C1237 C 0.15646 0.59882 0.80013 0.0
H1238 H 0.21114 0.53854 0.7875 0.0
C1239 C 0.15155 0.5933 0.83321 0.0
H1240 H 0.18309 0.58162 0.7589 0.0
C1241 C 0.16749 0.5682 0.84952 0.0
C1242 C 0.18896 0.54762 0.83345 0.0
H1243 H 0.13456 0.60779 0.84645 0.0
H1244 H 0.16281 0.56475 0.87483 0.0
C1245 C 0.19469 0.55368 0.8007 0.0
C1246 C 0.86809 0.50898 0.80066 0.0
C1247 C 0.87383 0.51504 0.8334 0.0
H1248 H 0.87969 0.48104 0.75886 0.0
C1249 C 0.89531 0.49447 0.84947 0.0
H1250 H 0.85162 0.52411 0.78746 0.0
C1251 C 0.91125 0.46938 0.83316 0.0
C1252 C 0.90634 0.46385 0.80008 0.0
H1253 H 0.9 0.49793 0.87478 0.0
H1254 H 0.92826 0.4549 0.8464 0.0
C1255 C 0.88411 0.48398 0.78427 0.0
C1256 C 0.26205 0.19466 0.50895 0.0
C1257 C 0.22931 0.18891 0.51502 0.0
H1258 H 0.30385 0.18307 0.481 0.0
C1259 C 0.21325 0.16742 0.49446 0.0
H1260 H 0.27525 0.21113 0.52408 0.0
C1261 C 0.22956 0.15148 0.46936 0.0
C1262 C 0.26264 0.15641 0.46383 0.0
H1263 H 0.18794 0.16273 0.49792 0.0
H1264 H 0.21632 0.13447 0.45489 0.0
C1265 C 0.27844 0.17864 0.48395 0.0
C1266 C 0.26207 0.86814 0.5538 0.0
C1267 C 0.22933 0.87388 0.54774 0.0
H1268 H 0.30388 0.87973 0.58174 0.0
C1269 C 0.21326 0.89537 0.5683 0.0
H1270 H 0.27527 0.85166 0.53868 0.0
C1271 C 0.22957 0.91131 0.59339 0.0
C1272 C 0.26265 0.90639 0.59892 0.0
H1273 H 0.18796 0.90006 0.56484 0.0
H1274 H 0.21634 0.92832 0.60787 0.0
C1275 C 0.27846 0.88416 0.5788 0.0
C1276 C 0.83317 0.15156 0.59331 0.0
C1277 C 0.80009 0.15646 0.59883 0.0
H1278 H 0.87479 0.16282 0.56476 0.0
C1279 C 0.78428 0.17868 0.5787 0.0
H1280 H 0.84641 0.13456 0.6078 0.0
C1281 C 0.80066 0.19469 0.55369 0.0
C1282 C 0.83341 0.18897 0.54764 0.0
H1283 H 0.75886 0.18309 0.58163 0.0
H1284 H 0.78746 0.21115 0.53855 0.0
C1285 C 0.84948 0.1675 0.56822 0.0
C1286 C 0.80068 0.86804 0.50908 0.0
C1287 C 0.83343 0.87377 0.51513 0.0
H1288 H 0.75888 0.87964 0.48113 0.0
C1289 C 0.8495 0.89524 0.49455 0.0
H1290 H 0.78748 0.85159 0.52422 0.0
C1291 C 0.83319 0.91118 0.46945 0.0
C1292 C 0.80011 0.90627 0.46393 0.0
H1293 H 0.87481 0.89992 0.49801 0.0
H1294 H 0.84643 0.92817 0.45496 0.0
C1295 C 0.78429 0.88405 0.48407 0.0
C1296 C 0.03682 0.51563 0.35787 0.0
C1297 C 0.04188 0.49965 0.3287 0.0
H1298 H 0.02155 0.55908 0.38055 0.0
C1299 C 0.03644 0.51562 0.29964 0.0
H1300 H 0.04124 0.50373 0.38054 0.0
C1301 C 0.02641 0.54726 0.29965 0.0
C1302 C 0.02095 0.56321 0.32871 0.0
H1303 H 0.04076 0.50398 0.27681 0.0
H1304 H 0.0221 0.55891 0.27682 0.0
C1305 C 0.02599 0.54721 0.35787 0.0
C1306 C 0.03645 0.54714 0.7631 0.0
C1307 C 0.04189 0.56312 0.73404 0.0
H1308 H 0.02209 0.50386 0.78592 0.0
C1309 C 0.03683 0.54714 0.70487 0.0
H1310 H 0.04077 0.55878 0.78593 0.0
C1311 C 0.02598 0.51556 0.70487 0.0
C1312 C 0.02094 0.49956 0.73403 0.0
H1313 H 0.04126 0.55903 0.6822 0.0
H1314 H 0.02154 0.50369 0.68219 0.0
C1315 C 0.0264 0.51551 0.7631 0.0
C1316 C 0.35785 0.03681 0.51558 0.0
C1317 C 0.32869 0.04185 0.49959 0.0
H1318 H 0.38053 0.02158 0.55905 0.0
C1319 C 0.29962 0.03642 0.51556 0.0
H1320 H 0.38053 0.04123 0.50369 0.0
C1321 C 0.29962 0.0264 0.5472 0.0
C1322 C 0.32869 0.02097 0.56317 0.0
H1323 H 0.2768 0.04072 0.50391 0.0
H1324 H 0.2768 0.0221 0.55885 0.0
C1325 C 0.35785 0.026 0.54717 0.0
C1326 C 0.70484 0.0368 0.54716 0.0
C1327 C 0.73401 0.04186 0.56315 0.0
H1328 H 0.68217 0.02148 0.50371 0.0
C1329 C 0.76307 0.03639 0.54719 0.0
H1330 H 0.68217 0.04124 0.55904 0.0
C1331 C 0.76307 0.02632 0.51557 0.0
C1332 C 0.73401 0.02086 0.49961 0.0
H1333 H 0.7859 0.04071 0.55883 0.0
H1334 H 0.7859 0.022 0.50393 0.0
C1335 C 0.70484 0.02592 0.51559 0.0
C1336 C 0.51559 0.35788 0.03688 0.0
C1337 C 0.49961 0.32871 0.04194 0.0
H1338 H 0.55904 0.38057 0.02161 0.0
C1339 C 0.51558 0.29965 0.03649 0.0
H1340 H 0.5037 0.38055 0.04131 0.0
C1341 C 0.54721 0.29966 0.02645 0.0
C1342 C 0.56317 0.32873 0.021 0.0
H1343 H 0.50394 0.27682 0.04081 0.0
H1344 H 0.55886 0.27684 0.02214 0.0
C1345 C 0.54717 0.35789 0.02604 0.0
C1346 C 0.54716 0.70488 0.03673 0.0
C1347 C 0.56315 0.73404 0.04177 0.0
H1348 H 0.50369 0.6822 0.02146 0.0
C1349 C 0.54719 0.76311 0.03632 0.0
H1350 H 0.55904 0.6822 0.04116 0.0
C1351 C 0.51556 0.76311 0.02628 0.0
C1352 C 0.49959 0.73404 0.02084 0.0
H1353 H 0.55883 0.78593 0.04063 0.0
H1354 H 0.50391 0.78594 0.02196 0.0
C1355 C 0.51558 0.70488 0.02588 0.0
C1356 C 0.52598 0.0472 0.85788 0.0
C1357 C 0.52094 0.0632 0.82872 0.0
H1358 H 0.54124 1.00373 0.88054 0.0
C1359 C 0.52638 0.04724 0.79965 0.0
H1360 H 0.52155 0.05908 0.88055 0.0
C1361 C 0.53642 1.01561 0.79964 0.0
C1362 C 0.54186 0.99964 0.8287 0.0
H1363 H 0.52208 0.0589 0.77682 0.0
H1364 H 0.54074 1.00397 0.77681 0.0
C1365 C 0.53681 1.01562 0.85787 0.0
C1366 C 0.52638 1.01552 0.26309 0.0
C1367 C 0.52093 0.99957 0.23402 0.0
H1368 H 0.54076 0.05878 0.28593 0.0
C1369 C 0.52598 1.01556 0.20486 0.0
H1370 H 0.52207 1.00387 0.28592 0.0
C1371 C 0.53683 0.04714 0.20487 0.0
C1372 C 0.54189 0.06312 0.23404 0.0
H1373 H 0.52154 1.00369 0.18219 0.0
H1374 H 0.54126 0.05903 0.1822 0.0
C1375 C 0.53644 0.04715 0.2631 0.0
C1376 C 0.85786 0.52599 0.04716 0.0
C1377 C 0.8287 0.52095 0.06316 0.0
H1378 H 0.88054 0.54123 1.00369 0.0
C1379 C 0.79963 0.52639 0.04719 0.0
H1380 H 0.88054 0.52157 0.05905 0.0
C1381 C 0.79963 0.53641 1.01555 0.0
C1382 C 0.8287 0.54184 0.99958 0.0
H1383 H 0.77681 0.52209 0.05884 0.0
H1384 H 0.77681 0.54071 1.00391 0.0
C1385 C 0.85786 0.53681 1.01558 0.0
C1386 C 0.20486 0.52592 1.01559 0.0
C1387 C 0.23402 0.52086 0.99961 0.0
H1388 H 0.18218 0.54123 0.05904 0.0
C1389 C 0.26309 0.52631 1.01557 0.0
H1390 H 0.18218 0.52148 1.00371 0.0
C1391 C 0.26309 0.53638 0.0472 0.0
C1392 C 0.23402 0.54185 0.06315 0.0
H1393 H 0.28591 0.52199 1.00393 0.0
H1394 H 0.28591 0.5407 0.05884 0.0
C1395 C 0.20486 0.53679 0.04717 0.0
C1396 C 1.01558 0.85788 0.53689 0.0
C1397 C 0.9996 0.82871 0.54195 0.0
H1398 H 0.05903 0.88057 0.52162 0.0
C1399 C 1.01557 0.79965 0.5365 0.0
H1400 H 1.00369 0.88055 0.54132 0.0
C1401 C 0.04721 0.79966 0.52646 0.0
C1402 C 0.06316 0.82873 0.52101 0.0
H1403 H 1.00394 0.77682 0.54082 0.0
H1404 H 0.05886 0.77684 0.52215 0.0
C1405 C 0.04716 0.85789 0.52605 0.0
C1406 C 0.04715 0.20488 0.53672 0.0
C1407 C 0.06314 0.23404 0.54177 0.0
H1408 H 1.00368 0.18221 0.52145 0.0
C1409 C 0.04718 0.26311 0.53632 0.0
H1410 H 0.05902 0.1822 0.54115 0.0
C1411 C 1.01555 0.26311 0.52627 0.0
C1412 C 0.99958 0.23405 0.52083 0.0
H1413 H 0.05882 0.28593 0.54063 0.0
H1414 H 1.0039 0.28594 0.52196 0.0
C1415 C 1.01556 0.20488 0.52588 0.0
loop_
_geom_bond_atom_site_label_1
_geom_bond_atom_site_label_2
_geom_bond_distance
_geom_bond_site_symmetry_2
_ccdc_geom_bond_type
Co0 O3 1.970 . S
Co0 N17 1.989 1_455 S
Co0 O25 1.967 . S
Co0 O32 1.920 1_455 S
Co1 O4 1.966 . S
Co1 N10 2.022 . S
Co1 N18 1.993 . S
Co1 O26 1.941 . S
C2 O3 1.258 . S
C2 O4 1.263 . S
O3 Co0 1.970 . S
O3 C2 1.258 . S
O4 Co1 1.966 . S
O4 C2 1.263 . S
C5 O6 1.235 . S
C5 O32 1.289 . S
O6 C5 1.235 . S
C7 C9 1.400 . S
C7 N10 1.351 . S
C7 C12 1.501 . S
C8 C9 1.387 . S
C8 N11 1.341 . S
C9 C7 1.400 . S
C9 C8 1.387 . S
N10 Co1 2.022 . S
N10 C7 1.351 . S
N10 N11 1.365 . S
N11 C8 1.341 . S
N11 N10 1.365 . S
N11 H31 0.862 . S
C12 C7 1.501 . S
C12 H13 0.961 . S
C12 H14 0.961 . S
C12 H15 0.960 . S
H13 C12 0.961 . S
H14 C12 0.961 . S
H15 C12 0.960 . S
C16 N17 1.342 . S
C16 C20 1.401 . S
C16 C21 1.499 . S
N17 Co0 1.989 1_655 S
N17 C16 1.342 . S
N17 N18 1.388 1_655 S
N18 Co1 1.993 . S
N18 N17 1.388 1_455 S
N18 C19 1.346 . S
C19 N18 1.346 . S
C19 C20 1.396 1_455 S
C19 C29 1.510 . S
C20 C16 1.401 . S
C20 C19 1.396 1_655 S
C21 C16 1.499 . S
C21 H22 0.959 . S
C21 H23 0.960 . S
C21 H24 0.961 . S
H22 C21 0.959 . S
H23 C21 0.960 . S
H24 C21 0.961 . S
O25 Co0 1.967 . S
O25 C33 1.258 . S
O26 Co1 1.941 . S
O26 C33 1.266 . S
H27 C29 0.959 . S
H28 C29 0.961 . S
C29 C19 1.510 . S
C29 H27 0.959 . S
C29 H28 0.961 . S
C29 H30 0.960 . S
H30 C29 0.960 . S
H31 N11 0.862 . S
O32 Co0 1.920 1_655 S
O32 C5 1.289 . S
C33 O25 1.258 . S
C33 O26 1.266 . S
Co34 O37 1.970 1_455 S
Co34 N51 1.989 . S
Co34 O59 1.967 . S
Co34 O66 1.920 . S
Co35 O38 1.966 . S
Co35 N44 2.022 . S
Co35 N52 1.993 1_655 S
Co35 O60 1.941 . S
C36 O37 1.258 . S
C36 O38 1.263 . S
O37 Co34 1.970 1_655 S
O37 C36 1.258 . S
O38 Co35 1.966 . S
O38 C36 1.263 . S
C39 O40 1.235 . S
C39 O66 1.289 . S
O40 C39 1.235 . S
C41 C43 1.400 . S
C41 N44 1.351 . S
C41 C46 1.501 . S
C42 C43 1.387 . S
C42 N45 1.341 . S
C43 C41 1.400 . S
C43 C42 1.387 . S
N44 Co35 2.022 . S
N44 C41 1.351 . S
N44 N45 1.365 . S
N45 C42 1.341 . S
N45 N44 1.365 . S
N45 H65 0.862 . S
C46 C41 1.501 . S
C46 H47 0.961 . S
C46 H48 0.961 . S
C46 H49 0.960 . S
H47 C46 0.961 . S
H48 C46 0.961 . S
H49 C46 0.960 . S
C50 N51 1.342 . S
C50 C54 1.401 . S
C50 C55 1.499 . S
N51 Co34 1.989 . S
N51 C50 1.342 . S
N51 N52 1.388 . S
N52 Co35 1.993 1_455 S
N52 N51 1.388 . S
N52 C53 1.346 . S
C53 N52 1.346 . S
C53 C54 1.396 . S
C53 C63 1.510 . S
C54 C50 1.401 . S
C54 C53 1.396 . S
C55 C50 1.499 . S
C55 H56 0.959 . S
C55 H57 0.960 . S
C55 H58 0.961 . S
H56 C55 0.959 . S
H57 C55 0.960 . S
H58 C55 0.961 . S
O59 Co34 1.967 . S
O59 C67 1.272 . S
O60 Co35 1.941 . S
O60 C67 1.251 1_655 S
H61 C63 0.959 . S
H62 C63 0.961 . S
C63 C53 1.510 . S
C63 H61 0.959 . S
C63 H62 0.961 . S
C63 H64 0.960 1_455 S
H64 C63 0.960 1_655 S
H65 N45 0.862 . S
O66 Co34 1.920 . S
O66 C39 1.289 . S
C67 O59 1.272 . S
C67 O60 1.251 1_455 S
Co68 O71 1.970 . S
Co68 N85 1.989 1_455 S
Co68 O93 1.967 . S
Co68 O100 1.920 1_455 S
Co69 O72 1.966 . S
Co69 N78 2.022 . S
Co69 N86 1.993 . S
Co69 O94 1.941 . S
C70 O71 1.258 . S
C70 O72 1.263 . S
O71 Co68 1.970 . S
O71 C70 1.258 . S
O72 Co69 1.966 . S
O72 C70 1.263 . S
C73 O74 1.235 . S
C73 O100 1.289 . S
O74 C73 1.235 . S
C75 C77 1.400 . S
C75 N78 1.351 . S
C75 C80 1.501 . S
C76 C77 1.387 . S
C76 N79 1.341 . S
C77 C75 1.400 . S
C77 C76 1.387 . S
N78 Co69 2.022 . S
N78 C75 1.351 . S
N78 N79 1.365 . S
N79 C76 1.341 . S
N79 N78 1.365 . S
N79 H99 0.862 . S
C80 C75 1.501 . S
C80 H81 0.961 . S
C80 H82 0.961 . S
C80 H83 0.960 . S
H81 C80 0.961 . S
H82 C80 0.961 . S
H83 C80 0.960 . S
C84 N85 1.342 . S
C84 C88 1.401 . S
C84 C89 1.499 . S
N85 Co68 1.989 1_655 S
N85 C84 1.342 . S
N85 N86 1.388 1_655 S
N86 Co69 1.993 . S
N86 N85 1.388 1_455 S
N86 C87 1.346 . S
C87 N86 1.346 . S
C87 C88 1.396 1_455 S
C87 C97 1.510 . S
C88 C84 1.401 . S
C88 C87 1.396 1_655 S
C89 C84 1.499 . S
C89 H90 0.959 . S
C89 H91 0.960 . S
C89 H92 0.961 . S
H90 C89 0.959 . S
H91 C89 0.960 . S
H92 C89 0.961 . S
O93 Co68 1.967 . S
O93 C101 1.258 . S
O94 Co69 1.941 . S
O94 C101 1.266 . S
H95 C97 0.959 . S
H96 C97 0.961 . S
C97 C87 1.510 . S
C97 H95 0.959 . S
C97 H96 0.961 . S
C97 H98 0.960 . S
H98 C97 0.960 . S
H99 N79 0.862 . S
O100 Co68 1.920 1_655 S
O100 C73 1.289 . S
C101 O93 1.258 . S
C101 O94 1.266 . S
Co102 O105 1.970 1_455 S
Co102 N119 1.989 . S
Co102 O127 1.967 . S
Co102 O134 1.920 . S
Co103 O106 1.966 . S
Co103 N112 2.022 . S
Co103 N120 1.993 1_655 S
Co103 O128 1.941 . S
C104 O105 1.258 . S
C104 O106 1.263 . S
O105 Co102 1.970 1_655 S
O105 C104 1.258 . S
O106 Co103 1.966 . S
O106 C104 1.263 . S
C107 O108 1.235 . S
C107 O134 1.289 . S
O108 C107 1.235 . S
C109 C111 1.400 . S
C109 N112 1.351 . S
C109 C114 1.501 . S
C110 C111 1.387 . S
C110 N113 1.341 . S
C111 C109 1.400 . S
C111 C110 1.387 . S
N112 Co103 2.022 . S
N112 C109 1.351 . S
N112 N113 1.365 . S
N113 C110 1.341 . S
N113 N112 1.365 . S
N113 H133 0.862 . S
C114 C109 1.501 . S
C114 H115 0.961 . S
C114 H116 0.961 . S
C114 H117 0.960 . S
H115 C114 0.961 . S
H116 C114 0.961 . S
H117 C114 0.960 . S
C118 N119 1.342 . S
C118 C122 1.401 . S
C118 C123 1.499 . S
N119 Co102 1.989 . S
N119 C118 1.342 . S
N119 N120 1.388 . S
N120 Co103 1.993 1_455 S
N120 N119 1.388 . S
N120 C121 1.346 . S
C121 N120 1.346 . S
C121 C122 1.396 . S
C121 C131 1.510 . S
C122 C118 1.401 . S
C122 C121 1.396 . S
C123 C118 1.499 . S
C123 H124 0.959 . S
C123 H125 0.960 . S
C123 H126 0.961 . S
H124 C123 0.959 . S
H125 C123 0.960 . S
H126 C123 0.961 . S
O127 Co102 1.967 . S
O127 C135 1.272 . S
O128 Co103 1.941 . S
O128 C135 1.251 1_655 S
H129 C131 0.959 . S
H130 C131 0.961 . S
C131 C121 1.510 . S
C131 H129 0.959 . S
C131 H130 0.961 . S
C131 H132 0.960 1_455 S
H132 C131 0.960 1_655 S
H133 N113 0.862 . S
O134 Co102 1.920 . S
O134 C107 1.289 . S
C135 O127 1.272 . S
C135 O128 1.251 1_455 S
Co136 O139 1.970 . S
Co136 N153 1.989 1_545 S
Co136 O161 1.967 . S
Co136 O168 1.920 1_545 S
Co137 O140 1.966 . S
Co137 N146 2.022 . S
Co137 N154 1.993 . S
Co137 O162 1.941 . S
C138 O139 1.258 . S
C138 O140 1.263 . S
O139 Co136 1.970 . S
O139 C138 1.258 . S
O140 Co137 1.966 . S
O140 C138 1.263 . S
C141 O142 1.235 . S
C141 O168 1.289 . S
O142 C141 1.235 . S
C143 C145 1.400 . S
C143 N146 1.351 . S
C143 C148 1.501 . S
C144 C145 1.387 . S
C144 N147 1.341 . S
C145 C143 1.400 . S
C145 C144 1.387 . S
N146 Co137 2.022 . S
N146 C143 1.351 . S
N146 N147 1.365 . S
N147 C144 1.341 . S
N147 N146 1.365 . S
N147 H167 0.862 . S
C148 C143 1.501 . S
C148 H149 0.961 . S
C148 H150 0.961 . S
C148 H151 0.960 . S
H149 C148 0.961 . S
H150 C148 0.961 . S
H151 C148 0.960 . S
C152 N153 1.342 . S
C152 C156 1.401 . S
C152 C157 1.499 . S
N153 Co136 1.989 1_565 S
N153 C152 1.342 . S
N153 N154 1.388 1_565 S
N154 Co137 1.993 . S
N154 N153 1.388 1_545 S
N154 C155 1.346 . S
C155 N154 1.346 . S
C155 C156 1.396 1_545 S
C155 C165 1.510 . S
C156 C152 1.401 . S
C156 C155 1.396 1_565 S
C157 C152 1.499 . S
C157 H158 0.959 . S
C157 H159 0.960 . S
C157 H160 0.961 . S
H158 C157 0.959 . S
H159 C157 0.960 . S
H160 C157 0.961 . S
O161 Co136 1.967 . S
O161 C169 1.258 . S
O162 Co137 1.941 . S
O162 C169 1.266 . S
H163 C165 0.959 . S
H164 C165 0.961 . S
C165 C155 1.510 . S
C165 H163 0.959 . S
C165 H164 0.961 . S
C165 H166 0.960 . S
H166 C165 0.960 . S
H167 N147 0.862 . S
O168 Co136 1.920 1_565 S
O168 C141 1.289 . S
C169 O161 1.258 . S
C169 O162 1.266 . S
Co170 O173 1.970 1_545 S
Co170 N187 1.989 . S
Co170 O195 1.967 . S
Co170 O202 1.920 . S
Co171 O174 1.966 . S
Co171 N180 2.022 . S
Co171 N188 1.993 1_565 S
Co171 O196 1.941 . S
C172 O173 1.258 . S
C172 O174 1.263 . S
O173 Co170 1.970 1_565 S
O173 C172 1.258 . S
O174 Co171 1.966 . S
O174 C172 1.263 . S
C175 O176 1.235 . S
C175 O202 1.289 . S
O176 C175 1.235 . S
C177 C179 1.400 . S
C177 N180 1.351 . S
C177 C182 1.501 . S
C178 C179 1.387 . S
C178 N181 1.341 . S
C179 C177 1.400 . S
C179 C178 1.387 . S
N180 Co171 2.022 . S
N180 C177 1.351 . S
N180 N181 1.365 . S
N181 C178 1.341 . S
N181 N180 1.365 . S
N181 H201 0.862 . S
C182 C177 1.501 . S
C182 H183 0.961 . S
C182 H184 0.961 . S
C182 H185 0.960 . S
H183 C182 0.961 . S
H184 C182 0.961 . S
H185 C182 0.960 . S
C186 N187 1.342 . S
C186 C190 1.401 . S
C186 C191 1.499 . S
N187 Co170 1.989 . S
N187 C186 1.342 . S
N187 N188 1.388 . S
N188 Co171 1.993 1_545 S
N188 N187 1.388 . S
N188 C189 1.346 . S
C189 N188 1.346 . S
C189 C190 1.396 . S
C189 C199 1.510 . S
C190 C186 1.401 . S
C190 C189 1.396 . S
C191 C186 1.499 . S
C191 H192 0.959 . S
C191 H193 0.960 . S
C191 H194 0.961 . S
H192 C191 0.959 . S
H193 C191 0.960 . S
H194 C191 0.961 . S
O195 Co170 1.967 . S
O195 C203 1.272 . S
O196 Co171 1.941 . S
O196 C203 1.251 1_565 S
H197 C199 0.959 . S
H198 C199 0.961 . S
C199 C189 1.510 . S
C199 H197 0.959 . S
C199 H198 0.961 . S
C199 H200 0.960 1_545 S
H200 C199 0.960 1_565 S
H201 N181 0.862 . S
O202 Co170 1.920 . S
O202 C175 1.289 . S
C203 O195 1.272 . S
C203 O196 1.251 1_545 S
Co204 O207 1.970 1_545 S
Co204 N221 1.989 . S
Co204 O229 1.967 . S
Co204 O236 1.920 . S
Co205 O208 1.966 . S
Co205 N214 2.022 . S
Co205 N222 1.993 1_565 S
Co205 O230 1.941 . S
C206 O207 1.258 . S
C206 O208 1.263 . S
O207 Co204 1.970 1_565 S
O207 C206 1.258 . S
O208 Co205 1.966 . S
O208 C206 1.263 . S
C209 O210 1.235 . S
C209 O236 1.289 . S
O210 C209 1.235 . S
C211 C213 1.400 . S
C211 N214 1.351 . S
C211 C216 1.501 . S
C212 C213 1.387 . S
C212 N215 1.341 . S
C213 C211 1.400 . S
C213 C212 1.387 . S
N214 Co205 2.022 . S
N214 C211 1.351 . S
N214 N215 1.365 . S
N215 C212 1.341 . S
N215 N214 1.365 . S
N215 H235 0.862 . S
C216 C211 1.501 . S
C216 H217 0.961 . S
C216 H218 0.961 . S
C216 H219 0.960 . S
H217 C216 0.961 . S
H218 C216 0.961 . S
H219 C216 0.960 . S
C220 N221 1.342 . S
C220 C224 1.401 . S
C220 C225 1.499 . S
N221 Co204 1.989 . S
N221 C220 1.342 . S
N221 N222 1.388 . S
N222 Co205 1.993 1_545 S
N222 N221 1.388 . S
N222 C223 1.346 . S
C223 N222 1.346 . S
C223 C224 1.396 . S
C223 C233 1.510 . S
C224 C220 1.401 . S
C224 C223 1.396 . S
C225 C220 1.499 . S
C225 H226 0.959 . S
C225 H227 0.960 . S
C225 H228 0.961 . S
H226 C225 0.959 . S
H227 C225 0.960 . S
H228 C225 0.961 . S
O229 Co204 1.967 . S
O229 C237 1.272 . S
O230 Co205 1.941 . S
O230 C237 1.251 1_565 S
H231 C233 0.959 . S
H232 C233 0.961 . S
C233 C223 1.510 . S
C233 H231 0.959 . S
C233 H232 0.961 . S
C233 H234 0.960 1_545 S
H234 C233 0.960 1_565 S
H235 N215 0.862 . S
O236 Co204 1.920 . S
O236 C209 1.289 . S
C237 O229 1.272 . S
C237 O230 1.251 1_545 S
Co238 O241 1.970 . S
Co238 N255 1.989 1_545 S
Co238 O263 1.967 . S
Co238 O270 1.920 1_545 S
Co239 O242 1.966 . S
Co239 N248 2.022 . S
Co239 N256 1.993 . S
Co239 O264 1.941 . S
C240 O241 1.258 . S
C240 O242 1.263 . S
O241 Co238 1.970 . S
O241 C240 1.258 . S
O242 Co239 1.966 . S
O242 C240 1.263 . S
C243 O244 1.235 . S
C243 O270 1.289 . S
O244 C243 1.235 . S
C245 C247 1.400 . S
C245 N248 1.351 . S
C245 C250 1.501 . S
C246 C247 1.387 . S
C246 N249 1.341 . S
C247 C245 1.400 . S
C247 C246 1.387 . S
N248 Co239 2.022 . S
N248 C245 1.351 . S
N248 N249 1.365 . S
N249 C246 1.341 . S
N249 N248 1.365 . S
N249 H269 0.862 . S
C250 C245 1.501 . S
C250 H251 0.961 . S
C250 H252 0.961 . S
C250 H253 0.960 . S
H251 C250 0.961 . S
H252 C250 0.961 . S
H253 C250 0.960 . S
C254 N255 1.342 . S
C254 C258 1.401 . S
C254 C259 1.499 . S
N255 Co238 1.989 1_565 S
N255 C254 1.342 . S
N255 N256 1.388 1_565 S
N256 Co239 1.993 . S
N256 N255 1.388 1_545 S
N256 C257 1.346 . S
C257 N256 1.346 . S
C257 C258 1.396 1_545 S
C257 C267 1.510 . S
C258 C254 1.401 . S
C258 C257 1.396 1_565 S
C259 C254 1.499 . S
C259 H260 0.959 . S
C259 H261 0.960 . S
C259 H262 0.961 . S
H260 C259 0.959 . S
H261 C259 0.960 . S
H262 C259 0.961 . S
O263 Co238 1.967 . S
O263 C271 1.258 . S
O264 Co239 1.941 . S
O264 C271 1.266 . S
H265 C267 0.959 . S
H266 C267 0.961 . S
C267 C257 1.510 . S
C267 H265 0.959 . S
C267 H266 0.961 . S
C267 H268 0.960 . S
H268 C267 0.960 . S
H269 N249 0.862 . S
O270 Co238 1.920 1_565 S
O270 C243 1.289 . S
C271 O263 1.258 . S
C271 O264 1.266 . S
Co272 O275 1.970 . S
Co272 N289 1.989 1_554 S
Co272 O297 1.967 . S
Co272 O304 1.920 1_554 S
Co273 O276 1.966 . S
Co273 N282 2.022 . S
Co273 N290 1.993 . S
Co273 O298 1.941 . S
C274 O275 1.258 . S
C274 O276 1.263 . S
O275 Co272 1.970 . S
O275 C274 1.258 . S
O276 Co273 1.966 . S
O276 C274 1.263 . S
C277 O278 1.235 . S
C277 O304 1.289 . S
O278 C277 1.235 . S
C279 C281 1.400 . S
C279 N282 1.351 . S
C279 C284 1.501 . S
C280 C281 1.387 . S
C280 N283 1.341 . S
C281 C279 1.400 . S
C281 C280 1.387 . S
N282 Co273 2.022 . S
N282 C279 1.351 . S
N282 N283 1.365 . S
N283 C280 1.341 . S
N283 N282 1.365 . S
N283 H303 0.862 . S
C284 C279 1.501 . S
C284 H285 0.961 . S
C284 H286 0.961 . S
C284 H287 0.960 . S
H285 C284 0.961 . S
H286 C284 0.961 . S
H287 C284 0.960 . S
C288 N289 1.342 . S
C288 C292 1.401 . S
C288 C293 1.499 . S
N289 Co272 1.989 1_556 S
N289 C288 1.342 . S
N289 N290 1.388 1_556 S
N290 Co273 1.993 . S
N290 N289 1.388 1_554 S
N290 C291 1.346 . S
C291 N290 1.346 . S
C291 C292 1.396 1_554 S
C291 C301 1.510 . S
C292 C288 1.401 . S
C292 C291 1.396 1_556 S
C293 C288 1.499 . S
C293 H294 0.959 . S
C293 H295 0.960 . S
C293 H296 0.961 . S
H294 C293 0.959 . S
H295 C293 0.960 . S
H296 C293 0.961 . S
O297 Co272 1.967 . S
O297 C305 1.258 . S
O298 Co273 1.941 . S
O298 C305 1.266 . S
H299 C301 0.959 . S
H300 C301 0.961 . S
C301 C291 1.510 . S
C301 H299 0.959 . S
C301 H300 0.961 . S
C301 H302 0.960 . S
H302 C301 0.960 . S
H303 N283 0.862 . S
O304 Co272 1.920 1_556 S
O304 C277 1.289 . S
C305 O297 1.258 . S
C305 O298 1.266 . S
Co306 O309 1.970 1_554 S
Co306 N323 1.989 . S
Co306 O331 1.967 . S
Co306 O338 1.920 . S
Co307 O310 1.966 . S
Co307 N316 2.022 . S
Co307 N324 1.993 1_556 S
Co307 O332 1.941 . S
C308 O309 1.258 . S
C308 O310 1.263 . S
O309 Co306 1.970 1_556 S
O309 C308 1.258 . S
O310 Co307 1.966 . S
O310 C308 1.263 . S
C311 O312 1.235 . S
C311 O338 1.289 . S
O312 C311 1.235 . S
C313 C315 1.400 . S
C313 N316 1.351 . S
C313 C318 1.501 . S
C314 C315 1.387 . S
C314 N317 1.341 . S
C315 C313 1.400 . S
C315 C314 1.387 . S
N316 Co307 2.022 . S
N316 C313 1.351 . S
N316 N317 1.365 . S
N317 C314 1.341 . S
N317 N316 1.365 . S
N317 H337 0.862 . S
C318 C313 1.501 . S
C318 H319 0.961 . S
C318 H320 0.961 . S
C318 H321 0.960 . S
H319 C318 0.961 . S
H320 C318 0.961 . S
H321 C318 0.960 . S
C322 N323 1.342 . S
C322 C326 1.401 . S
C322 C327 1.499 . S
N323 Co306 1.989 . S
N323 C322 1.342 . S
N323 N324 1.388 . S
N324 Co307 1.993 1_554 S
N324 N323 1.388 . S
N324 C325 1.346 . S
C325 N324 1.346 . S
C325 C326 1.396 . S
C325 C335 1.510 . S
C326 C322 1.401 . S
C326 C325 1.396 . S
C327 C322 1.499 . S
C327 H328 0.959 . S
C327 H329 0.960 . S
C327 H330 0.961 . S
H328 C327 0.959 . S
H329 C327 0.960 . S
H330 C327 0.961 . S
O331 Co306 1.967 . S
O331 C339 1.272 . S
O332 Co307 1.941 . S
O332 C339 1.251 1_556 S
H333 C335 0.959 . S
H334 C335 0.961 . S
C335 C325 1.510 . S
C335 H333 0.959 . S
C335 H334 0.961 . S
C335 H336 0.960 1_554 S
H336 C335 0.960 1_556 S
H337 N317 0.862 . S
O338 Co306 1.920 . S
O338 C311 1.289 . S
C339 O331 1.272 . S
C339 O332 1.251 1_554 S
Co340 O343 1.970 1_554 S
Co340 N357 1.989 . S
Co340 O365 1.967 . S
Co340 O372 1.920 . S
Co341 O344 1.966 . S
Co341 N350 2.022 . S
Co341 N358 1.993 1_556 S
Co341 O366 1.941 . S
C342 O343 1.258 . S
C342 O344 1.263 . S
O343 Co340 1.970 1_556 S
O343 C342 1.258 . S
O344 Co341 1.966 . S
O344 C342 1.263 . S
C345 O346 1.235 . S
C345 O372 1.289 . S
O346 C345 1.235 . S
C347 C349 1.400 . S
C347 N350 1.351 . S
C347 C352 1.501 . S
C348 C349 1.387 . S
C348 N351 1.341 . S
C349 C347 1.400 . S
C349 C348 1.387 . S
N350 Co341 2.022 . S
N350 C347 1.351 . S
N350 N351 1.365 . S
N351 C348 1.341 . S
N351 N350 1.365 . S
N351 H371 0.862 . S
C352 C347 1.501 . S
C352 H353 0.961 . S
C352 H354 0.961 . S
C352 H355 0.960 . S
H353 C352 0.961 . S
H354 C352 0.961 . S
H355 C352 0.960 . S
C356 N357 1.342 . S
C356 C360 1.401 . S
C356 C361 1.499 . S
N357 Co340 1.989 . S
N357 C356 1.342 . S
N357 N358 1.388 . S
N358 Co341 1.993 1_554 S
N358 N357 1.388 . S
N358 C359 1.346 . S
C359 N358 1.346 . S
C359 C360 1.396 . S
C359 C369 1.510 . S
C360 C356 1.401 . S
C360 C359 1.396 . S
C361 C356 1.499 . S
C361 H362 0.959 . S
C361 H363 0.960 . S
C361 H364 0.961 . S
H362 C361 0.959 . S
H363 C361 0.960 . S
H364 C361 0.961 . S
O365 Co340 1.967 . S
O365 C373 1.272 . S
O366 Co341 1.941 . S
O366 C373 1.251 1_556 S
H367 C369 0.959 . S
H368 C369 0.961 . S
C369 C359 1.510 . S
C369 H367 0.959 . S
C369 H368 0.961 . S
C369 H370 0.960 1_554 S
H370 C369 0.960 1_556 S
H371 N351 0.862 . S
O372 Co340 1.920 . S
O372 C345 1.289 . S
C373 O365 1.272 . S
C373 O366 1.251 1_554 S
Co374 O377 1.970 . S
Co374 N391 1.989 1_554 S
Co374 O399 1.967 . S
Co374 O406 1.920 1_554 S
Co375 O378 1.966 . S
Co375 N384 2.022 . S
Co375 N392 1.993 . S
Co375 O400 1.941 . S
C376 O377 1.258 . S
C376 O378 1.263 . S
O377 Co374 1.970 . S
O377 C376 1.258 . S
O378 Co375 1.966 . S
O378 C376 1.263 . S
C379 O380 1.235 . S
C379 O406 1.289 . S
O380 C379 1.235 . S
C381 C383 1.400 . S
C381 N384 1.351 . S
C381 C386 1.501 . S
C382 C383 1.387 . S
C382 N385 1.341 . S
C383 C381 1.400 . S
C383 C382 1.387 . S
N384 Co375 2.022 . S
N384 C381 1.351 . S
N384 N385 1.365 . S
N385 C382 1.341 . S
N385 N384 1.365 . S
N385 H405 0.862 . S
C386 C381 1.501 . S
C386 H387 0.961 . S
C386 H388 0.961 . S
C386 H389 0.960 . S
H387 C386 0.961 . S
H388 C386 0.961 . S
H389 C386 0.960 . S
C390 N391 1.342 . S
C390 C394 1.401 . S
C390 C395 1.499 . S
N391 Co374 1.989 1_556 S
N391 C390 1.342 . S
N391 N392 1.388 1_556 S
N392 Co375 1.993 . S
N392 N391 1.388 1_554 S
N392 C393 1.346 . S
C393 N392 1.346 . S
C393 C394 1.396 1_554 S
C393 C403 1.510 . S
C394 C390 1.401 . S
C394 C393 1.396 1_556 S
C395 C390 1.499 . S
C395 H396 0.959 . S
C395 H397 0.960 . S
C395 H398 0.961 . S
H396 C395 0.959 . S
H397 C395 0.960 . S
H398 C395 0.961 . S
O399 Co374 1.967 . S
O399 C407 1.258 . S
O400 Co375 1.941 . S
O400 C407 1.266 . S
H401 C403 0.959 . S
H402 C403 0.961 . S
C403 C393 1.510 . S
C403 H401 0.959 . S
C403 H402 0.961 . S
C403 H404 0.960 . S
H404 C403 0.960 . S
H405 N385 0.862 . S
O406 Co374 1.920 1_556 S
O406 C379 1.289 . S
C407 O399 1.258 . S
C407 O400 1.266 . S
Co408 O411 1.970 . S
Co408 N425 1.989 . S
Co408 O433 1.967 . S
Co408 O440 1.920 . S
Co409 O412 1.966 . S
Co409 N418 2.022 . S
Co409 N426 1.993 . S
Co409 O434 1.941 . S
C410 O411 1.258 . S
C410 O412 1.263 . S
O411 Co408 1.970 . S
O411 C410 1.258 . S
O412 Co409 1.966 . S
O412 C410 1.263 . S
C413 O414 1.235 . S
C413 O440 1.289 . S
O414 C413 1.235 . S
C415 C417 1.400 . S
C415 N418 1.351 . S
C415 C420 1.501 . S
C416 C417 1.387 . S
C416 N419 1.341 . S
C417 C415 1.400 . S
C417 C416 1.387 . S
N418 Co409 2.022 . S
N418 C415 1.351 . S
N418 N419 1.365 . S
N419 C416 1.341 . S
N419 N418 1.365 . S
N419 H439 0.862 . S
C420 C415 1.501 . S
C420 H421 0.961 . S
C420 H422 0.961 . S
C420 H423 0.960 . S
H421 C420 0.961 . S
H422 C420 0.961 . S
H423 C420 0.960 . S
C424 N425 1.342 . S
C424 C428 1.401 . S
C424 C429 1.499 . S
N425 Co408 1.989 . S
N425 C424 1.342 . S
N425 N426 1.388 . S
N426 Co409 1.993 . S
N426 N425 1.388 . S
N426 C427 1.346 . S
C427 N426 1.346 . S
C427 C428 1.396 . S
C427 C437 1.510 . S
C428 C424 1.401 . S
C428 C427 1.396 . S
C429 C424 1.499 . S
C429 H430 0.959 . S
C429 H431 0.960 . S
C429 H432 0.961 . S
H430 C429 0.959 . S
H431 C429 0.960 . S
H432 C429 0.961 . S
O433 Co408 1.967 . S
O433 C441 1.258 . S
O434 Co409 1.941 . S
O434 C441 1.266 . S
H435 C437 0.959 . S
H436 C437 0.961 . S
C437 C427 1.510 . S
C437 H435 0.959 . S
C437 H436 0.961 . S
C437 H438 0.960 . S
H438 C437 0.960 . S
H439 N419 0.862 . S
O440 Co408 1.920 . S
O440 C413 1.289 . S
C441 O433 1.258 . S
C441 O434 1.266 . S
Co442 O445 1.970 . S
Co442 N459 1.989 . S
Co442 O467 1.967 . S
Co442 O474 1.920 . S
Co443 O446 1.966 . S
Co443 N452 2.022 . S
Co443 N460 1.993 . S
Co443 O468 1.941 . S
C444 O445 1.258 . S
C444 O446 1.263 . S
O445 Co442 1.970 . S
O445 C444 1.258 . S
O446 Co443 1.966 . S
O446 C444 1.263 . S
C447 O448 1.235 . S
C447 O474 1.289 . S
O448 C447 1.235 . S
C449 C451 1.400 . S
C449 N452 1.351 . S
C449 C454 1.501 . S
C450 C451 1.387 . S
C450 N453 1.341 . S
C451 C449 1.400 . S
C451 C450 1.387 . S
N452 Co443 2.022 . S
N452 C449 1.351 . S
N452 N453 1.365 . S
N453 C450 1.341 . S
N453 N452 1.365 . S
N453 H473 0.862 . S
C454 C449 1.501 . S
C454 H455 0.961 . S
C454 H456 0.961 . S
C454 H457 0.960 . S
H455 C454 0.961 . S
H456 C454 0.961 . S
H457 C454 0.960 . S
C458 N459 1.342 . S
C458 C462 1.401 . S
C458 C463 1.499 . S
N459 Co442 1.989 . S
N459 C458 1.342 . S
N459 N460 1.388 . S
N460 Co443 1.993 . S
N460 N459 1.388 . S
N460 C461 1.346 . S
C461 N460 1.346 . S
C461 C462 1.396 . S
C461 C471 1.510 . S
C462 C458 1.401 . S
C462 C461 1.396 . S
C463 C458 1.499 . S
C463 H464 0.959 . S
C463 H465 0.960 . S
C463 H466 0.961 . S
H464 C463 0.959 . S
H465 C463 0.960 . S
H466 C463 0.961 . S
O467 Co442 1.967 . S
O467 C475 1.258 . S
O468 Co443 1.941 . S
O468 C475 1.266 . S
H469 C471 0.959 . S
H470 C471 0.961 . S
C471 C461 1.510 . S
C471 H469 0.959 . S
C471 H470 0.961 . S
C471 H472 0.960 . S
H472 C471 0.960 . S
H473 N453 0.862 . S
O474 Co442 1.920 . S
O474 C447 1.289 . S
C475 O467 1.258 . S
C475 O468 1.266 . S
Co476 O479 1.970 . S
Co476 N493 1.989 . S
Co476 O501 1.967 . S
Co476 O508 1.920 . S
Co477 O480 1.966 . S
Co477 N486 2.022 . S
Co477 N494 1.993 . S
Co477 O502 1.941 . S
C478 O479 1.258 . S
C478 O480 1.263 . S
O479 Co476 1.970 . S
O479 C478 1.258 . S
O480 Co477 1.966 . S
O480 C478 1.263 . S
C481 O482 1.235 . S
C481 O508 1.289 . S
O482 C481 1.235 . S
C483 C485 1.400 . S
C483 N486 1.351 . S
C483 C488 1.501 . S
C484 C485 1.387 . S
C484 N487 1.341 . S
C485 C483 1.400 . S
C485 C484 1.387 . S
N486 Co477 2.022 . S
N486 C483 1.351 . S
N486 N487 1.365 . S
N487 C484 1.341 . S
N487 N486 1.365 . S
N487 H507 0.862 . S
C488 C483 1.501 . S
C488 H489 0.961 . S
C488 H490 0.961 . S
C488 H491 0.960 . S
H489 C488 0.961 . S
H490 C488 0.961 . S
H491 C488 0.960 . S
C492 N493 1.342 . S
C492 C496 1.401 . S
C492 C497 1.499 . S
N493 Co476 1.989 . S
N493 C492 1.342 . S
N493 N494 1.388 . S
N494 Co477 1.993 . S
N494 N493 1.388 . S
N494 C495 1.346 . S
C495 N494 1.346 . S
C495 C496 1.396 . S
C495 C505 1.510 . S
C496 C492 1.401 . S
C496 C495 1.396 . S
C497 C492 1.499 . S
C497 H498 0.959 . S
C497 H499 0.960 . S
C497 H500 0.961 . S
H498 C497 0.959 . S
H499 C497 0.960 . S
H500 C497 0.961 . S
O501 Co476 1.967 . S
O501 C509 1.258 . S
O502 Co477 1.941 . S
O502 C509 1.266 . S
H503 C505 0.959 . S
H504 C505 0.961 . S
C505 C495 1.510 . S
C505 H503 0.959 . S
C505 H504 0.961 . S
C505 H506 0.960 . S
H506 C505 0.960 . S
H507 N487 0.862 . S
O508 Co476 1.920 . S
O508 C481 1.289 . S
C509 O501 1.258 . S
C509 O502 1.266 . S
Co510 O513 1.970 . S
Co510 N527 1.989 . S
Co510 O535 1.967 . S
Co510 O542 1.920 . S
Co511 O514 1.966 . S
Co511 N520 2.022 . S
Co511 N528 1.993 . S
Co511 O536 1.941 . S
C512 O513 1.258 . S
C512 O514 1.263 . S
O513 Co510 1.970 . S
O513 C512 1.258 . S
O514 Co511 1.966 . S
O514 C512 1.263 . S
C515 O516 1.235 . S
C515 O542 1.289 . S
O516 C515 1.235 . S
C517 C519 1.400 . S
C517 N520 1.351 . S
C517 C522 1.501 . S
C518 C519 1.387 . S
C518 N521 1.341 . S
C519 C517 1.400 . S
C519 C518 1.387 . S
N520 Co511 2.022 . S
N520 C517 1.351 . S
N520 N521 1.365 . S
N521 C518 1.341 . S
N521 N520 1.365 . S
N521 H541 0.862 . S
C522 C517 1.501 . S
C522 H523 0.961 . S
C522 H524 0.961 . S
C522 H525 0.960 . S
H523 C522 0.961 . S
H524 C522 0.961 . S
H525 C522 0.960 . S
C526 N527 1.342 . S
C526 C530 1.401 . S
C526 C531 1.499 . S
N527 Co510 1.989 . S
N527 C526 1.342 . S
N527 N528 1.388 . S
N528 Co511 1.993 . S
N528 N527 1.388 . S
N528 C529 1.346 . S
C529 N528 1.346 . S
C529 C530 1.396 . S
C529 C539 1.510 . S
C530 C526 1.401 . S
C530 C529 1.396 . S
C531 C526 1.499 . S
C531 H532 0.959 . S
C531 H533 0.960 . S
C531 H534 0.961 . S
H532 C531 0.959 . S
H533 C531 0.960 . S
H534 C531 0.961 . S
O535 Co510 1.967 . S
O535 C543 1.258 . S
O536 Co511 1.941 . S
O536 C543 1.266 . S
H537 C539 0.959 . S
H538 C539 0.961 . S
C539 C529 1.510 . S
C539 H537 0.959 . S
C539 H538 0.961 . S
C539 H540 0.960 . S
H540 C539 0.960 . S
H541 N521 0.862 . S
O542 Co510 1.920 . S
O542 C515 1.289 . S
C543 O535 1.258 . S
C543 O536 1.266 . S
Co544 O547 1.970 . S
Co544 N561 1.989 . S
Co544 O569 1.967 . S
Co544 O576 1.920 . S
Co545 O548 1.966 . S
Co545 N554 2.022 . S
Co545 N562 1.993 . S
Co545 O570 1.941 . S
C546 O547 1.258 . S
C546 O548 1.263 . S
O547 Co544 1.970 . S
O547 C546 1.258 . S
O548 Co545 1.966 . S
O548 C546 1.263 . S
C549 O550 1.235 . S
C549 O576 1.289 . S
O550 C549 1.235 . S
C551 C553 1.400 . S
C551 N554 1.351 . S
C551 C556 1.501 . S
C552 C553 1.387 . S
C552 N555 1.341 . S
C553 C551 1.400 . S
C553 C552 1.387 . S
N554 Co545 2.022 . S
N554 C551 1.351 . S
N554 N555 1.365 . S
N555 C552 1.341 . S
N555 N554 1.365 . S
N555 H575 0.862 . S
C556 C551 1.501 . S
C556 H557 0.961 . S
C556 H558 0.961 . S
C556 H559 0.960 . S
H557 C556 0.961 . S
H558 C556 0.961 . S
H559 C556 0.960 . S
C560 N561 1.342 . S
C560 C564 1.401 . S
C560 C565 1.499 . S
N561 Co544 1.989 . S
N561 C560 1.342 . S
N561 N562 1.388 . S
N562 Co545 1.993 . S
N562 N561 1.388 . S
N562 C563 1.346 . S
C563 N562 1.346 . S
C563 C564 1.396 . S
C563 C573 1.510 . S
C564 C560 1.401 . S
C564 C563 1.396 . S
C565 C560 1.499 . S
C565 H566 0.959 . S
C565 H567 0.960 . S
C565 H568 0.961 . S
H566 C565 0.959 . S
H567 C565 0.960 . S
H568 C565 0.961 . S
O569 Co544 1.967 . S
O569 C577 1.258 . S
O570 Co545 1.941 . S
O570 C577 1.266 . S
H571 C573 0.959 . S
H572 C573 0.961 . S
C573 C563 1.510 . S
C573 H571 0.959 . S
C573 H572 0.961 . S
C573 H574 0.960 . S
H574 C573 0.960 . S
H575 N555 0.862 . S
O576 Co544 1.920 . S
O576 C549 1.289 . S
C577 O569 1.258 . S
C577 O570 1.266 . S
Co578 O581 1.970 . S
Co578 N595 1.989 . S
Co578 O603 1.967 . S
Co578 O610 1.920 . S
Co579 O582 1.966 . S
Co579 N588 2.022 . S
Co579 N596 1.993 . S
Co579 O604 1.941 . S
C580 O581 1.258 . S
C580 O582 1.263 . S
O581 Co578 1.970 . S
O581 C580 1.258 . S
O582 Co579 1.966 . S
O582 C580 1.263 . S
C583 O584 1.235 . S
C583 O610 1.289 . S
O584 C583 1.235 . S
C585 C587 1.400 . S
C585 N588 1.351 . S
C585 C590 1.501 . S
C586 C587 1.387 . S
C586 N589 1.341 . S
C587 C585 1.400 . S
C587 C586 1.387 . S
N588 Co579 2.022 . S
N588 C585 1.351 . S
N588 N589 1.365 . S
N589 C586 1.341 . S
N589 N588 1.365 . S
N589 H609 0.862 . S
C590 C585 1.501 . S
C590 H591 0.961 . S
C590 H592 0.961 . S
C590 H593 0.960 . S
H591 C590 0.961 . S
H592 C590 0.961 . S
H593 C590 0.960 . S
C594 N595 1.342 . S
C594 C598 1.401 . S
C594 C599 1.499 . S
N595 Co578 1.989 . S
N595 C594 1.342 . S
N595 N596 1.388 . S
N596 Co579 1.993 . S
N596 N595 1.388 . S
N596 C597 1.346 . S
C597 N596 1.346 . S
C597 C598 1.396 . S
C597 C607 1.510 . S
C598 C594 1.401 . S
C598 C597 1.396 . S
C599 C594 1.499 . S
C599 H600 0.959 . S
C599 H601 0.960 . S
C599 H602 0.961 . S
H600 C599 0.959 . S
H601 C599 0.960 . S
H602 C599 0.961 . S
O603 Co578 1.967 . S
O603 C611 1.258 . S
O604 Co579 1.941 . S
O604 C611 1.266 . S
H605 C607 0.959 . S
H606 C607 0.961 . S
C607 C597 1.510 . S
C607 H605 0.959 . S
C607 H606 0.961 . S
C607 H608 0.960 . S
H608 C607 0.960 . S
H609 N589 0.862 . S
O610 Co578 1.920 . S
O610 C583 1.289 . S
C611 O603 1.258 . S
C611 O604 1.266 . S
Co612 O615 1.970 . S
Co612 N629 1.989 . S
Co612 O637 1.967 . S
Co612 O644 1.920 . S
Co613 O616 1.966 . S
Co613 N622 2.022 . S
Co613 N630 1.993 . S
Co613 O638 1.941 . S
C614 O615 1.258 . S
C614 O616 1.263 . S
O615 Co612 1.970 . S
O615 C614 1.258 . S
O616 Co613 1.966 . S
O616 C614 1.263 . S
C617 O618 1.235 . S
C617 O644 1.289 . S
O618 C617 1.235 . S
C619 C621 1.400 . S
C619 N622 1.351 . S
C619 C624 1.501 . S
C620 C621 1.387 . S
C620 N623 1.341 . S
C621 C619 1.400 . S
C621 C620 1.387 . S
N622 Co613 2.022 . S
N622 C619 1.351 . S
N622 N623 1.365 . S
N623 C620 1.341 . S
N623 N622 1.365 . S
N623 H643 0.862 . S
C624 C619 1.501 . S
C624 H625 0.961 . S
C624 H626 0.961 . S
C624 H627 0.960 . S
H625 C624 0.961 . S
H626 C624 0.961 . S
H627 C624 0.960 . S
C628 N629 1.342 . S
C628 C632 1.401 . S
C628 C633 1.499 . S
N629 Co612 1.989 . S
N629 C628 1.342 . S
N629 N630 1.388 . S
N630 Co613 1.993 . S
N630 N629 1.388 . S
N630 C631 1.346 . S
C631 N630 1.346 . S
C631 C632 1.396 . S
C631 C641 1.510 . S
C632 C628 1.401 . S
C632 C631 1.396 . S
C633 C628 1.499 . S
C633 H634 0.959 . S
C633 H635 0.960 . S
C633 H636 0.961 . S
H634 C633 0.959 . S
H635 C633 0.960 . S
H636 C633 0.961 . S
O637 Co612 1.967 . S
O637 C645 1.258 . S
O638 Co613 1.941 . S
O638 C645 1.266 . S
H639 C641 0.959 . S
H640 C641 0.961 . S
C641 C631 1.510 . S
C641 H639 0.959 . S
C641 H640 0.961 . S
C641 H642 0.960 . S
H642 C641 0.960 . S
H643 N623 0.862 . S
O644 Co612 1.920 . S
O644 C617 1.289 . S
C645 O637 1.258 . S
C645 O638 1.266 . S
Co646 O649 1.970 . S
Co646 N663 1.989 . S
Co646 O671 1.967 . S
Co646 O678 1.920 . S
Co647 O650 1.966 . S
Co647 N656 2.022 . S
Co647 N664 1.993 . S
Co647 O672 1.941 . S
C648 O649 1.258 . S
C648 O650 1.263 . S
O649 Co646 1.970 . S
O649 C648 1.258 . S
O650 Co647 1.966 . S
O650 C648 1.263 . S
C651 O652 1.235 . S
C651 O678 1.289 . S
O652 C651 1.235 . S
C653 C655 1.400 . S
C653 N656 1.351 . S
C653 C658 1.501 . S
C654 C655 1.387 . S
C654 N657 1.341 . S
C655 C653 1.400 . S
C655 C654 1.387 . S
N656 Co647 2.022 . S
N656 C653 1.351 . S
N656 N657 1.365 . S
N657 C654 1.341 . S
N657 N656 1.365 . S
N657 H677 0.862 . S
C658 C653 1.501 . S
C658 H659 0.961 . S
C658 H660 0.961 . S
C658 H661 0.960 . S
H659 C658 0.961 . S
H660 C658 0.961 . S
H661 C658 0.960 . S
C662 N663 1.342 . S
C662 C666 1.401 . S
C662 C667 1.499 . S
N663 Co646 1.989 . S
N663 C662 1.342 . S
N663 N664 1.388 . S
N664 Co647 1.993 . S
N664 N663 1.388 . S
N664 C665 1.346 . S
C665 N664 1.346 . S
C665 C666 1.396 . S
C665 C675 1.510 . S
C666 C662 1.401 . S
C666 C665 1.396 . S
C667 C662 1.499 . S
C667 H668 0.959 . S
C667 H669 0.960 . S
C667 H670 0.961 . S
H668 C667 0.959 . S
H669 C667 0.960 . S
H670 C667 0.961 . S
O671 Co646 1.967 . S
O671 C679 1.258 . S
O672 Co647 1.941 . S
O672 C679 1.266 . S
H673 C675 0.959 . S
H674 C675 0.961 . S
C675 C665 1.510 . S
C675 H673 0.959 . S
C675 H674 0.961 . S
C675 H676 0.960 . S
H676 C675 0.960 . S
H677 N657 0.862 . S
O678 Co646 1.920 . S
O678 C651 1.289 . S
C679 O671 1.258 . S
C679 O672 1.266 . S
Co680 O683 1.970 . S
Co680 N697 1.989 . S
Co680 O705 1.967 . S
Co680 O712 1.920 . S
Co681 O684 1.966 . S
Co681 N690 2.022 . S
Co681 N698 1.993 . S
Co681 O706 1.941 . S
C682 O683 1.258 . S
C682 O684 1.263 . S
O683 Co680 1.970 . S
O683 C682 1.258 . S
O684 Co681 1.966 . S
O684 C682 1.263 . S
C685 O686 1.235 . S
C685 O712 1.289 . S
O686 C685 1.235 . S
C687 C689 1.400 . S
C687 N690 1.351 . S
C687 C692 1.501 . S
C688 C689 1.387 . S
C688 N691 1.341 . S
C689 C687 1.400 . S
C689 C688 1.387 . S
N690 Co681 2.022 . S
N690 C687 1.351 . S
N690 N691 1.365 . S
N691 C688 1.341 . S
N691 N690 1.365 . S
N691 H711 0.862 . S
C692 C687 1.501 . S
C692 H693 0.961 . S
C692 H694 0.961 . S
C692 H695 0.960 . S
H693 C692 0.961 . S
H694 C692 0.961 . S
H695 C692 0.960 . S
C696 N697 1.342 . S
C696 C700 1.401 . S
C696 C701 1.499 . S
N697 Co680 1.989 . S
N697 C696 1.342 . S
N697 N698 1.388 . S
N698 Co681 1.993 . S
N698 N697 1.388 . S
N698 C699 1.346 . S
C699 N698 1.346 . S
C699 C700 1.396 . S
C699 C709 1.510 . S
C700 C696 1.401 . S
C700 C699 1.396 . S
C701 C696 1.499 . S
C701 H702 0.959 . S
C701 H703 0.960 . S
C701 H704 0.961 . S
H702 C701 0.959 . S
H703 C701 0.960 . S
H704 C701 0.961 . S
O705 Co680 1.967 . S
O705 C713 1.258 . S
O706 Co681 1.941 . S
O706 C713 1.266 . S
H707 C709 0.959 . S
H708 C709 0.961 . S
C709 C699 1.510 . S
C709 H707 0.959 . S
C709 H708 0.961 . S
C709 H710 0.960 . S
H710 C709 0.960 . S
H711 N691 0.862 . S
O712 Co680 1.920 . S
O712 C685 1.289 . S
C713 O705 1.258 . S
C713 O706 1.266 . S
Co714 O717 1.970 . S
Co714 N731 1.989 . S
Co714 O739 1.967 . S
Co714 O746 1.920 . S
Co715 O718 1.966 . S
Co715 N724 2.022 . S
Co715 N732 1.993 . S
Co715 O740 1.941 . S
C716 O717 1.258 . S
C716 O718 1.263 . S
O717 Co714 1.970 . S
O717 C716 1.258 . S
O718 Co715 1.966 . S
O718 C716 1.263 . S
C719 O720 1.235 . S
C719 O746 1.289 . S
O720 C719 1.235 . S
C721 C723 1.400 . S
C721 N724 1.351 . S
C721 C726 1.501 . S
C722 C723 1.387 . S
C722 N725 1.341 . S
C723 C721 1.400 . S
C723 C722 1.387 . S
N724 Co715 2.022 . S
N724 C721 1.351 . S
N724 N725 1.365 . S
N725 C722 1.341 . S
N725 N724 1.365 . S
N725 H745 0.862 . S
C726 C721 1.501 . S
C726 H727 0.961 . S
C726 H728 0.961 . S
C726 H729 0.960 . S
H727 C726 0.961 . S
H728 C726 0.961 . S
H729 C726 0.960 . S
C730 N731 1.342 . S
C730 C734 1.401 . S
C730 C735 1.499 . S
N731 Co714 1.989 . S
N731 C730 1.342 . S
N731 N732 1.388 . S
N732 Co715 1.993 . S
N732 N731 1.388 . S
N732 C733 1.346 . S
C733 N732 1.346 . S
C733 C734 1.396 . S
C733 C743 1.510 . S
C734 C730 1.401 . S
C734 C733 1.396 . S
C735 C730 1.499 . S
C735 H736 0.959 . S
C735 H737 0.960 . S
C735 H738 0.961 . S
H736 C735 0.959 . S
H737 C735 0.960 . S
H738 C735 0.961 . S
O739 Co714 1.967 . S
O739 C747 1.258 . S
O740 Co715 1.941 . S
O740 C747 1.266 . S
H741 C743 0.959 . S
H742 C743 0.961 . S
C743 C733 1.510 . S
C743 H741 0.959 . S
C743 H742 0.961 . S
C743 H744 0.960 . S
H744 C743 0.960 . S
H745 N725 0.862 . S
O746 Co714 1.920 . S
O746 C719 1.289 . S
C747 O739 1.258 . S
C747 O740 1.266 . S
Co748 O751 1.970 . S
Co748 N765 1.989 . S
Co748 O773 1.967 . S
Co748 O780 1.920 . S
Co749 O752 1.966 . S
Co749 N758 2.022 . S
Co749 N766 1.993 . S
Co749 O774 1.941 . S
C750 O751 1.258 . S
C750 O752 1.263 . S
O751 Co748 1.970 . S
O751 C750 1.258 . S
O752 Co749 1.966 . S
O752 C750 1.263 . S
C753 O754 1.235 . S
C753 O780 1.289 . S
O754 C753 1.235 . S
C755 C757 1.400 . S
C755 N758 1.351 . S
C755 C760 1.501 . S
C756 C757 1.387 . S
C756 N759 1.341 . S
C757 C755 1.400 . S
C757 C756 1.387 . S
N758 Co749 2.022 . S
N758 C755 1.351 . S
N758 N759 1.365 . S
N759 C756 1.341 . S
N759 N758 1.365 . S
N759 H779 0.862 . S
C760 C755 1.501 . S
C760 H761 0.961 . S
C760 H762 0.961 . S
C760 H763 0.960 . S
H761 C760 0.961 . S
H762 C760 0.961 . S
H763 C760 0.960 . S
C764 N765 1.342 . S
C764 C768 1.401 . S
C764 C769 1.499 . S
N765 Co748 1.989 . S
N765 C764 1.342 . S
N765 N766 1.388 . S
N766 Co749 1.993 . S
N766 N765 1.388 . S
N766 C767 1.346 . S
C767 N766 1.346 . S
C767 C768 1.396 . S
C767 C777 1.510 . S
C768 C764 1.401 . S
C768 C767 1.396 . S
C769 C764 1.499 . S
C769 H770 0.959 . S
C769 H771 0.960 . S
C769 H772 0.961 . S
H770 C769 0.959 . S
H771 C769 0.960 . S
H772 C769 0.961 . S
O773 Co748 1.967 . S
O773 C781 1.258 . S
O774 Co749 1.941 . S
O774 C781 1.266 . S
H775 C777 0.959 . S
H776 C777 0.961 . S
C777 C767 1.510 . S
C777 H775 0.959 . S
C777 H776 0.961 . S
C777 H778 0.960 . S
H778 C777 0.960 . S
H779 N759 0.862 . S
O780 Co748 1.920 . S
O780 C753 1.289 . S
C781 O773 1.258 . S
C781 O774 1.266 . S
Co782 O785 1.970 . S
Co782 N799 1.989 . S
Co782 O807 1.967 . S
Co782 O814 1.920 . S
Co783 O786 1.966 . S
Co783 N792 2.022 . S
Co783 N800 1.993 . S
Co783 O808 1.941 . S
C784 O785 1.258 . S
C784 O786 1.263 . S
O785 Co782 1.970 . S
O785 C784 1.258 . S
O786 Co783 1.966 . S
O786 C784 1.263 . S
C787 O788 1.235 . S
C787 O814 1.289 . S
O788 C787 1.235 . S
C789 C791 1.400 . S
C789 N792 1.351 . S
C789 C794 1.501 . S
C790 C791 1.387 . S
C790 N793 1.341 . S
C791 C789 1.400 . S
C791 C790 1.387 . S
N792 Co783 2.022 . S
N792 C789 1.351 . S
N792 N793 1.365 . S
N793 C790 1.341 . S
N793 N792 1.365 . S
N793 H813 0.862 . S
C794 C789 1.501 . S
C794 H795 0.961 . S
C794 H796 0.961 . S
C794 H797 0.960 . S
H795 C794 0.961 . S
H796 C794 0.961 . S
H797 C794 0.960 . S
C798 N799 1.342 . S
C798 C802 1.401 . S
C798 C803 1.499 . S
N799 Co782 1.989 . S
N799 C798 1.342 . S
N799 N800 1.388 . S
N800 Co783 1.993 . S
N800 N799 1.388 . S
N800 C801 1.346 . S
C801 N800 1.346 . S
C801 C802 1.396 . S
C801 C811 1.510 . S
C802 C798 1.401 . S
C802 C801 1.396 . S
C803 C798 1.499 . S
C803 H804 0.959 . S
C803 H805 0.960 . S
C803 H806 0.961 . S
H804 C803 0.959 . S
H805 C803 0.960 . S
H806 C803 0.961 . S
O807 Co782 1.967 . S
O807 C815 1.258 . S
O808 Co783 1.941 . S
O808 C815 1.266 . S
H809 C811 0.959 . S
H810 C811 0.961 . S
C811 C801 1.510 . S
C811 H809 0.959 . S
C811 H810 0.961 . S
C811 H812 0.960 . S
H812 C811 0.960 . S
H813 N793 0.862 . S
O814 Co782 1.920 . S
O814 C787 1.289 . S
C815 O807 1.258 . S
C815 O808 1.266 . S
C816 C817 1.387 . S
C816 H820 0.950 . S
C816 C825 1.390 . S
C817 C816 1.387 . S
C817 C819 1.387 . S
H818 C825 0.950 . S
C819 C817 1.387 . S
C819 C821 1.390 . S
C819 H823 0.950 . S
H820 C816 0.950 . S
C821 C819 1.390 . S
C821 C822 1.387 . S
C821 H824 0.950 . S
C822 C821 1.387 . S
C822 C825 1.387 . S
H823 C819 0.950 . S
H824 C821 0.950 . S
C825 C816 1.390 . S
C825 H818 0.950 . S
C825 C822 1.387 . S
C826 C827 1.387 . S
C826 H830 0.950 . S
C826 C835 1.390 . S
C827 C826 1.387 . S
C827 C829 1.387 . S
H828 C835 0.950 . S
C829 C827 1.387 . S
C829 C831 1.390 . S
C829 H833 0.950 . S
H830 C826 0.950 . S
C831 C829 1.390 . S
C831 C832 1.387 . S
C831 H834 0.950 . S
C832 C831 1.387 . S
C832 C835 1.387 . S
H833 C829 0.950 . S
H834 C831 0.950 . S
C835 C826 1.390 . S
C835 H828 0.950 . S
C835 C832 1.387 . S
C836 C837 1.387 . S
C836 H840 0.950 . S
C836 C845 1.390 . S
C837 C836 1.387 . S
C837 C839 1.387 . S
H838 C845 0.950 . S
C839 C837 1.387 . S
C839 C841 1.390 . S
C839 H843 0.950 . S
H840 C836 0.950 . S
C841 C839 1.390 . S
C841 C842 1.387 . S
C841 H844 0.950 . S
C842 C841 1.387 . S
C842 C845 1.387 . S
H843 C839 0.950 . S
H844 C841 0.950 . S
C845 C836 1.390 . S
C845 H838 0.950 . S
C845 C842 1.387 . S
C846 C847 1.387 . S
C846 H850 0.950 . S
C846 C855 1.390 . S
C847 C846 1.387 . S
C847 C849 1.387 . S
H848 C855 0.950 . S
C849 C847 1.387 . S
C849 C851 1.390 . S
C849 H853 0.950 . S
H850 C846 0.950 . S
C851 C849 1.390 . S
C851 C852 1.387 . S
C851 H854 0.950 . S
C852 C851 1.387 . S
C852 C855 1.387 . S
H853 C849 0.950 . S
H854 C851 0.950 . S
C855 C846 1.390 . S
C855 H848 0.950 . S
C855 C852 1.387 . S
C856 C857 1.387 . S
C856 H860 0.950 . S
C856 C865 1.390 . S
C857 C856 1.387 . S
C857 C859 1.387 . S
H858 C865 0.950 . S
C859 C857 1.387 . S
C859 C861 1.390 . S
C859 H863 0.950 . S
H860 C856 0.950 . S
C861 C859 1.390 . S
C861 C862 1.387 . S
C861 H864 0.950 . S
C862 C861 1.387 . S
C862 C865 1.387 . S
H863 C859 0.950 . S
H864 C861 0.950 . S
C865 C856 1.390 . S
C865 H858 0.950 . S
C865 C862 1.387 . S
C866 C867 1.387 . S
C866 H870 0.950 . S
C866 C875 1.390 . S
C867 C866 1.387 . S
C867 C869 1.387 . S
H868 C875 0.950 . S
C869 C867 1.387 . S
C869 C871 1.390 . S
C869 H873 0.950 . S
H870 C866 0.950 . S
C871 C869 1.390 . S
C871 C872 1.387 . S
C871 H874 0.950 . S
C872 C871 1.387 . S
C872 C875 1.387 . S
H873 C869 0.950 . S
H874 C871 0.950 . S
C875 C866 1.390 . S
C875 H868 0.950 . S
C875 C872 1.387 . S
C876 C877 1.387 . S
C876 H880 0.950 . S
C876 C885 1.390 . S
C877 C876 1.387 . S
C877 C879 1.387 . S
H878 C885 0.950 . S
C879 C877 1.387 . S
C879 C881 1.390 . S
C879 H883 0.950 . S
H880 C876 0.950 . S
C881 C879 1.390 . S
C881 C882 1.387 . S
C881 H884 0.950 . S
C882 C881 1.387 . S
C882 C885 1.387 . S
H883 C879 0.950 . S
H884 C881 0.950 . S
C885 C876 1.390 . S
C885 H878 0.950 . S
C885 C882 1.387 . S
C886 C887 1.387 . S
C886 H890 0.950 . S
C886 C895 1.390 . S
C887 C886 1.387 . S
C887 C889 1.387 . S
H888 C895 0.950 . S
C889 C887 1.387 . S
C889 C891 1.390 . S
C889 H893 0.950 . S
H890 C886 0.950 . S
C891 C889 1.390 . S
C891 C892 1.387 . S
C891 H894 0.950 . S
C892 C891 1.387 . S
C892 C895 1.387 . S
H893 C889 0.950 . S
H894 C891 0.950 . S
C895 C886 1.390 . S
C895 H888 0.950 . S
C895 C892 1.387 . S
C896 C897 1.387 . S
C896 H900 0.950 . S
C896 C905 1.390 . S
C897 C896 1.387 . S
C897 C899 1.387 . S
H898 C905 0.950 . S
C899 C897 1.387 . S
C899 C901 1.390 . S
C899 H903 0.950 . S
H900 C896 0.950 . S
C901 C899 1.390 . S
C901 C902 1.387 . S
C901 H904 0.950 . S
C902 C901 1.387 . S
C902 C905 1.387 . S
H903 C899 0.950 . S
H904 C901 0.950 . S
C905 C896 1.390 . S
C905 H898 0.950 . S
C905 C902 1.387 . S
C906 C907 1.387 . S
C906 H910 0.950 . S
C906 C915 1.390 . S
C907 C906 1.387 . S
C907 C909 1.387 . S
H908 C915 0.950 . S
C909 C907 1.387 . S
C909 C911 1.390 . S
C909 H913 0.950 . S
H910 C906 0.950 . S
C911 C909 1.390 . S
C911 C912 1.387 . S
C911 H914 0.950 . S
C912 C911 1.387 . S
C912 C915 1.387 . S
H913 C909 0.950 . S
H914 C911 0.950 . S
C915 C906 1.390 . S
C915 H908 0.950 . S
C915 C912 1.387 . S
C916 C917 1.387 . S
C916 H920 0.950 . S
C916 C925 1.390 . S
C917 C916 1.387 . S
C917 C919 1.387 . S
H918 C925 0.950 . S
C919 C917 1.387 . S
C919 C921 1.390 . S
C919 H923 0.950 . S
H920 C916 0.950 . S
C921 C919 1.390 . S
C921 C922 1.387 . S
C921 H924 0.950 . S
C922 C921 1.387 . S
C922 C925 1.387 . S
H923 C919 0.950 . S
H924 C921 0.950 . S
C925 C916 1.390 . S
C925 H918 0.950 . S
C925 C922 1.387 . S
C926 C927 1.387 . S
C926 H930 0.950 . S
C926 C935 1.390 . S
C927 C926 1.387 . S
C927 C929 1.387 . S
H928 C935 0.950 . S
C929 C927 1.387 . S
C929 C931 1.390 . S
C929 H933 0.950 . S
H930 C926 0.950 . S
C931 C929 1.390 . S
C931 C932 1.387 . S
C931 H934 0.950 . S
C932 C931 1.387 . S
C932 C935 1.387 . S
H933 C929 0.950 . S
H934 C931 0.950 . S
C935 C926 1.390 . S
C935 H928 0.950 . S
C935 C932 1.387 . S
C936 C937 1.387 . S
C936 H940 0.950 . S
C936 C945 1.390 . S
C937 C936 1.387 . S
C937 C939 1.387 . S
H938 C945 0.950 . S
C939 C937 1.387 . S
C939 C941 1.390 . S
C939 H943 0.950 . S
H940 C936 0.950 . S
C941 C939 1.390 . S
C941 C942 1.387 . S
C941 H944 0.950 . S
C942 C941 1.387 . S
C942 C945 1.387 . S
H943 C939 0.950 . S
H944 C941 0.950 . S
C945 C936 1.390 . S
C945 H938 0.950 . S
C945 C942 1.387 . S
C946 C947 1.387 . S
C946 H950 0.950 . S
C946 C955 1.390 . S
C947 C946 1.387 . S
C947 C949 1.387 . S
H948 C955 0.950 . S
C949 C947 1.387 . S
C949 C951 1.390 . S
C949 H953 0.950 . S
H950 C946 0.950 . S
C951 C949 1.390 . S
C951 C952 1.387 . S
C951 H954 0.950 . S
C952 C951 1.387 . S
C952 C955 1.387 . S
H953 C949 0.950 . S
H954 C951 0.950 . S
C955 C946 1.390 . S
C955 H948 0.950 . S
C955 C952 1.387 . S
C956 C957 1.387 . S
C956 H960 0.950 . S
C956 C965 1.390 . S
C957 C956 1.387 . S
C957 C959 1.387 . S
H958 C965 0.950 . S
C959 C957 1.387 . S
C959 C961 1.390 . S
C959 H963 0.950 . S
H960 C956 0.950 . S
C961 C959 1.390 . S
C961 C962 1.387 . S
C961 H964 0.950 . S
C962 C961 1.387 . S
C962 C965 1.387 . S
H963 C959 0.950 . S
H964 C961 0.950 . S
C965 C956 1.390 . S
C965 H958 0.950 . S
C965 C962 1.387 . S
C966 C967 1.387 . S
C966 H970 0.950 . S
C966 C975 1.390 . S
C967 C966 1.387 . S
C967 C969 1.387 . S
H968 C975 0.950 . S
C969 C967 1.387 . S
C969 C971 1.390 . S
C969 H973 0.950 . S
H970 C966 0.950 . S
C971 C969 1.390 . S
C971 C972 1.387 . S
C971 H974 0.950 . S
C972 C971 1.387 . S
C972 C975 1.387 . S
H973 C969 0.950 . S
H974 C971 0.950 . S
C975 C966 1.390 . S
C975 H968 0.950 . S
C975 C972 1.387 . S
C976 C977 1.387 . S
C976 H980 0.950 . S
C976 C985 1.390 . S
C977 C976 1.387 . S
C977 C979 1.387 . S
H978 C985 0.950 . S
C979 C977 1.387 . S
C979 C981 1.390 . S
C979 H983 0.950 . S
H980 C976 0.950 . S
C981 C979 1.390 . S
C981 C982 1.387 . S
C981 H984 0.950 . S
C982 C981 1.387 . S
C982 C985 1.387 . S
H983 C979 0.950 . S
H984 C981 0.950 . S
C985 C976 1.390 . S
C985 H978 0.950 . S
C985 C982 1.387 . S
C986 C987 1.387 . S
C986 H990 0.950 . S
C986 C995 1.390 . S
C987 C986 1.387 . S
C987 C989 1.387 . S
H988 C995 0.950 . S
C989 C987 1.387 . S
C989 C991 1.390 . S
C989 H993 0.950 . S
H990 C986 0.950 . S
C991 C989 1.390 . S
C991 C992 1.387 . S
C991 H994 0.950 . S
C992 C991 1.387 . S
C992 C995 1.387 . S
H993 C989 0.950 . S
H994 C991 0.950 . S
C995 C986 1.390 . S
C995 H988 0.950 . S
C995 C992 1.387 . S
C996 C997 1.387 . S
C996 H1000 0.950 . S
C996 C1005 1.390 . S
C997 C996 1.387 . S
C997 C999 1.387 . S
H998 C1005 0.950 . S
C999 C997 1.387 . S
C999 C1001 1.390 . S
C999 H1003 0.950 . S
H1000 C996 0.950 . S
C1001 C999 1.390 . S
C1001 C1002 1.387 . S
C1001 H1004 0.950 . S
C1002 C1001 1.387 . S
C1002 C1005 1.387 . S
H1003 C999 0.950 . S
H1004 C1001 0.950 . S
C1005 C996 1.390 . S
C1005 H998 0.950 . S
C1005 C1002 1.387 . S
C1006 C1007 1.387 . S
C1006 H1010 0.950 . S
C1006 C1015 1.390 . S
C1007 C1006 1.387 . S
C1007 C1009 1.387 . S
H1008 C1015 0.950 . S
C1009 C1007 1.387 . S
C1009 C1011 1.390 . S
C1009 H1013 0.950 . S
H1010 C1006 0.950 . S
C1011 C1009 1.390 . S
C1011 C1012 1.387 . S
C1011 H1014 0.950 . S
C1012 C1011 1.387 . S
C1012 C1015 1.387 . S
H1013 C1009 0.950 . S
H1014 C1011 0.950 . S
C1015 C1006 1.390 . S
C1015 H1008 0.950 . S
C1015 C1012 1.387 . S
C1016 C1017 1.387 . S
C1016 H1020 0.950 . S
C1016 C1025 1.390 . S
C1017 C1016 1.387 . S
C1017 C1019 1.387 . S
H1018 C1025 0.950 . S
C1019 C1017 1.387 . S
C1019 C1021 1.390 . S
C1019 H1023 0.950 . S
H1020 C1016 0.950 . S
C1021 C1019 1.390 . S
C1021 C1022 1.387 . S
C1021 H1024 0.950 . S
C1022 C1021 1.387 . S
C1022 C1025 1.387 . S
H1023 C1019 0.950 . S
H1024 C1021 0.950 . S
C1025 C1016 1.390 . S
C1025 H1018 0.950 . S
C1025 C1022 1.387 . S
C1026 C1027 1.387 . S
C1026 H1030 0.950 . S
C1026 C1035 1.390 . S
C1027 C1026 1.387 . S
C1027 C1029 1.387 . S
H1028 C1035 0.950 . S
C1029 C1027 1.387 . S
C1029 C1031 1.390 . S
C1029 H1033 0.950 . S
H1030 C1026 0.950 . S
C1031 C1029 1.390 . S
C1031 C1032 1.387 . S
C1031 H1034 0.950 . S
C1032 C1031 1.387 . S
C1032 C1035 1.387 . S
H1033 C1029 0.950 . S
H1034 C1031 0.950 . S
C1035 C1026 1.390 . S
C1035 H1028 0.950 . S
C1035 C1032 1.387 . S
C1036 C1037 1.387 . S
C1036 H1040 0.950 . S
C1036 C1045 1.390 . S
C1037 C1036 1.387 . S
C1037 C1039 1.387 . S
H1038 C1045 0.950 . S
C1039 C1037 1.387 . S
C1039 C1041 1.390 . S
C1039 H1043 0.950 . S
H1040 C1036 0.950 . S
C1041 C1039 1.390 . S
C1041 C1042 1.387 . S
C1041 H1044 0.950 . S
C1042 C1041 1.387 . S
C1042 C1045 1.387 . S
H1043 C1039 0.950 . S
H1044 C1041 0.950 . S
C1045 C1036 1.390 . S
C1045 H1038 0.950 . S
C1045 C1042 1.387 . S
C1046 C1047 1.387 . S
C1046 H1050 0.950 . S
C1046 C1055 1.390 . S
C1047 C1046 1.387 . S
C1047 C1049 1.387 . S
H1048 C1055 0.950 . S
C1049 C1047 1.387 . S
C1049 C1051 1.390 . S
C1049 H1053 0.950 . S
H1050 C1046 0.950 . S
C1051 C1049 1.390 . S
C1051 C1052 1.387 . S
C1051 H1054 0.950 . S
C1052 C1051 1.387 . S
C1052 C1055 1.387 . S
H1053 C1049 0.950 . S
H1054 C1051 0.950 . S
C1055 C1046 1.390 . S
C1055 H1048 0.950 . S
C1055 C1052 1.387 . S
C1056 C1057 1.387 . S
C1056 H1060 0.950 . S
C1056 C1065 1.390 . S
C1057 C1056 1.387 . S
C1057 C1059 1.387 . S
H1058 C1065 0.950 . S
C1059 C1057 1.387 . S
C1059 C1061 1.390 . S
C1059 H1063 0.950 . S
H1060 C1056 0.950 . S
C1061 C1059 1.390 . S
C1061 C1062 1.387 . S
C1061 H1064 0.950 . S
C1062 C1061 1.387 . S
C1062 C1065 1.387 . S
H1063 C1059 0.950 . S
H1064 C1061 0.950 . S
C1065 C1056 1.390 . S
C1065 H1058 0.950 . S
C1065 C1062 1.387 . S
C1066 C1067 1.387 . S
C1066 H1070 0.950 . S
C1066 C1075 1.390 . S
C1067 C1066 1.387 . S
C1067 C1069 1.387 . S
H1068 C1075 0.950 . S
C1069 C1067 1.387 . S
C1069 C1071 1.390 . S
C1069 H1073 0.950 . S
H1070 C1066 0.950 . S
C1071 C1069 1.390 . S
C1071 C1072 1.387 . S
C1071 H1074 0.950 . S
C1072 C1071 1.387 . S
C1072 C1075 1.387 . S
H1073 C1069 0.950 . S
H1074 C1071 0.950 . S
C1075 C1066 1.390 . S
C1075 H1068 0.950 . S
C1075 C1072 1.387 . S
C1076 C1077 1.387 . S
C1076 H1080 0.950 . S
C1076 C1085 1.390 . S
C1077 C1076 1.387 . S
C1077 C1079 1.387 . S
H1078 C1085 0.950 . S
C1079 C1077 1.387 . S
C1079 C1081 1.390 . S
C1079 H1083 0.950 . S
H1080 C1076 0.950 . S
C1081 C1079 1.390 . S
C1081 C1082 1.387 . S
C1081 H1084 0.950 . S
C1082 C1081 1.387 . S
C1082 C1085 1.387 . S
H1083 C1079 0.950 . S
H1084 C1081 0.950 . S
C1085 C1076 1.390 . S
C1085 H1078 0.950 . S
C1085 C1082 1.387 . S
C1086 C1087 1.387 . S
C1086 H1090 0.950 . S
C1086 C1095 1.390 . S
C1087 C1086 1.387 . S
C1087 C1089 1.387 . S
H1088 C1095 0.950 . S
C1089 C1087 1.387 . S
C1089 C1091 1.390 . S
C1089 H1093 0.950 . S
H1090 C1086 0.950 . S
C1091 C1089 1.390 . S
C1091 C1092 1.387 . S
C1091 H1094 0.950 . S
C1092 C1091 1.387 . S
C1092 C1095 1.387 . S
H1093 C1089 0.950 . S
H1094 C1091 0.950 . S
C1095 C1086 1.390 . S
C1095 H1088 0.950 . S
C1095 C1092 1.387 . S
C1096 C1097 1.387 . S
C1096 H1100 0.950 . S
C1096 C1105 1.390 . S
C1097 C1096 1.387 . S
C1097 C1099 1.387 . S
H1098 C1105 0.950 . S
C1099 C1097 1.387 . S
C1099 C1101 1.390 . S
C1099 H1103 0.950 . S
H1100 C1096 0.950 . S
C1101 C1099 1.390 . S
C1101 C1102 1.387 . S
C1101 H1104 0.950 . S
C1102 C1101 1.387 . S
C1102 C1105 1.387 . S
H1103 C1099 0.950 . S
H1104 C1101 0.950 . S
C1105 C1096 1.390 . S
C1105 H1098 0.950 . S
C1105 C1102 1.387 . S
C1106 C1107 1.387 . S
C1106 H1110 0.950 . S
C1106 C1115 1.390 . S
C1107 C1106 1.387 . S
C1107 C1109 1.387 . S
H1108 C1115 0.950 . S
C1109 C1107 1.387 . S
C1109 C1111 1.390 . S
C1109 H1113 0.950 . S
H1110 C1106 0.950 . S
C1111 C1109 1.390 . S
C1111 C1112 1.387 . S
C1111 H1114 0.950 . S
C1112 C1111 1.387 . S
C1112 C1115 1.387 . S
H1113 C1109 0.950 . S
H1114 C1111 0.950 . S
C1115 C1106 1.390 . S
C1115 H1108 0.950 . S
C1115 C1112 1.387 . S
C1116 C1117 1.387 . S
C1116 H1120 0.950 . S
C1116 C1125 1.390 . S
C1117 C1116 1.387 . S
C1117 C1119 1.387 . S
H1118 C1125 0.950 . S
C1119 C1117 1.387 . S
C1119 C1121 1.390 . S
C1119 H1123 0.950 . S
H1120 C1116 0.950 . S
C1121 C1119 1.390 . S
C1121 C1122 1.387 . S
C1121 H1124 0.950 . S
C1122 C1121 1.387 . S
C1122 C1125 1.387 . S
H1123 C1119 0.950 . S
H1124 C1121 0.950 . S
C1125 C1116 1.390 . S
C1125 H1118 0.950 . S
C1125 C1122 1.387 . S
C1126 C1127 1.387 . S
C1126 H1130 0.950 . S
C1126 C1135 1.390 . S
C1127 C1126 1.387 . S
C1127 C1129 1.387 . S
H1128 C1135 0.950 . S
C1129 C1127 1.387 . S
C1129 C1131 1.390 . S
C1129 H1133 0.950 . S
H1130 C1126 0.950 . S
C1131 C1129 1.390 . S
C1131 C1132 1.387 . S
C1131 H1134 0.950 . S
C1132 C1131 1.387 . S
C1132 C1135 1.387 . S
H1133 C1129 0.950 . S
H1134 C1131 0.950 . S
C1135 C1126 1.390 . S
C1135 H1128 0.950 . S
C1135 C1132 1.387 . S
C1136 C1137 1.387 . S
C1136 H1140 0.950 . S
C1136 C1145 1.390 . S
C1137 C1136 1.387 . S
C1137 C1139 1.387 . S
H1138 C1145 0.950 . S
C1139 C1137 1.387 . S
C1139 C1141 1.390 . S
C1139 H1143 0.950 . S
H1140 C1136 0.950 . S
C1141 C1139 1.390 . S
C1141 C1142 1.387 . S
C1141 H1144 0.950 . S
C1142 C1141 1.387 . S
C1142 C1145 1.387 . S
H1143 C1139 0.950 . S
H1144 C1141 0.950 . S
C1145 C1136 1.390 . S
C1145 H1138 0.950 . S
C1145 C1142 1.387 . S
C1146 C1147 1.387 . S
C1146 H1150 0.950 . S
C1146 C1155 1.390 . S
C1147 C1146 1.387 . S
C1147 C1149 1.387 . S
H1148 C1155 0.950 . S
C1149 C1147 1.387 . S
C1149 C1151 1.390 . S
C1149 H1153 0.950 . S
H1150 C1146 0.950 . S
C1151 C1149 1.390 . S
C1151 C1152 1.387 . S
C1151 H1154 0.950 . S
C1152 C1151 1.387 . S
C1152 C1155 1.387 . S
H1153 C1149 0.950 . S
H1154 C1151 0.950 . S
C1155 C1146 1.390 . S
C1155 H1148 0.950 . S
C1155 C1152 1.387 . S
C1156 C1157 1.387 . S
C1156 H1160 0.950 . S
C1156 C1165 1.390 . S
C1157 C1156 1.387 . S
C1157 C1159 1.387 . S
H1158 C1165 0.950 . S
C1159 C1157 1.387 . S
C1159 C1161 1.390 . S
C1159 H1163 0.950 . S
H1160 C1156 0.950 . S
C1161 C1159 1.390 . S
C1161 C1162 1.387 . S
C1161 H1164 0.950 . S
C1162 C1161 1.387 . S
C1162 C1165 1.387 . S
H1163 C1159 0.950 . S
H1164 C1161 0.950 . S
C1165 C1156 1.390 . S
C1165 H1158 0.950 . S
C1165 C1162 1.387 . S
C1166 C1167 1.387 . S
C1166 H1170 0.950 . S
C1166 C1175 1.390 . S
C1167 C1166 1.387 . S
C1167 C1169 1.387 . S
H1168 C1175 0.950 . S
C1169 C1167 1.387 . S
C1169 C1171 1.390 . S
C1169 H1173 0.950 . S
H1170 C1166 0.950 . S
C1171 C1169 1.390 . S
C1171 C1172 1.387 . S
C1171 H1174 0.950 . S
C1172 C1171 1.387 . S
C1172 C1175 1.387 . S
H1173 C1169 0.950 . S
H1174 C1171 0.950 . S
C1175 C1166 1.390 . S
C1175 H1168 0.950 . S
C1175 C1172 1.387 . S
C1176 C1177 1.387 . S
C1176 H1180 0.950 . S
C1176 C1185 1.390 . S
C1177 C1176 1.387 . S
C1177 C1179 1.387 . S
H1178 C1185 0.950 . S
C1179 C1177 1.387 . S
C1179 C1181 1.390 . S
C1179 H1183 0.950 . S
H1180 C1176 0.950 . S
C1181 C1179 1.390 . S
C1181 C1182 1.387 . S
C1181 H1184 0.950 . S
C1182 C1181 1.387 . S
C1182 C1185 1.387 . S
H1183 C1179 0.950 . S
H1184 C1181 0.950 . S
C1185 C1176 1.390 . S
C1185 H1178 0.950 . S
C1185 C1182 1.387 . S
C1186 C1187 1.387 . S
C1186 H1190 0.950 . S
C1186 C1195 1.390 . S
C1187 C1186 1.387 . S
C1187 C1189 1.387 . S
H1188 C1195 0.950 . S
C1189 C1187 1.387 . S
C1189 C1191 1.390 . S
C1189 H1193 0.950 . S
H1190 C1186 0.950 . S
C1191 C1189 1.390 . S
C1191 C1192 1.387 . S
C1191 H1194 0.950 . S
C1192 C1191 1.387 . S
C1192 C1195 1.387 . S
H1193 C1189 0.950 . S
H1194 C1191 0.950 . S
C1195 C1186 1.390 . S
C1195 H1188 0.950 . S
C1195 C1192 1.387 . S
C1196 C1197 1.387 . S
C1196 H1200 0.950 . S
C1196 C1205 1.390 . S
C1197 C1196 1.387 . S
C1197 C1199 1.387 . S
H1198 C1205 0.950 . S
C1199 C1197 1.387 . S
C1199 C1201 1.390 . S
C1199 H1203 0.950 . S
H1200 C1196 0.950 . S
C1201 C1199 1.390 . S
C1201 C1202 1.387 . S
C1201 H1204 0.950 . S
C1202 C1201 1.387 . S
C1202 C1205 1.387 . S
H1203 C1199 0.950 . S
H1204 C1201 0.950 . S
C1205 C1196 1.390 . S
C1205 H1198 0.950 . S
C1205 C1202 1.387 . S
C1206 C1207 1.387 . S
C1206 H1210 0.950 . S
C1206 C1215 1.390 . S
C1207 C1206 1.387 . S
C1207 C1209 1.387 . S
H1208 C1215 0.950 . S
C1209 C1207 1.387 . S
C1209 C1211 1.390 . S
C1209 H1213 0.950 . S
H1210 C1206 0.950 . S
C1211 C1209 1.390 . S
C1211 C1212 1.387 . S
C1211 H1214 0.950 . S
C1212 C1211 1.387 . S
C1212 C1215 1.387 . S
H1213 C1209 0.950 . S
H1214 C1211 0.950 . S
C1215 C1206 1.390 . S
C1215 H1208 0.950 . S
C1215 C1212 1.387 . S
C1216 C1217 1.387 . S
C1216 H1220 0.950 . S
C1216 C1225 1.390 . S
C1217 C1216 1.387 . S
C1217 C1219 1.387 . S
H1218 C1225 0.950 . S
C1219 C1217 1.387 . S
C1219 C1221 1.390 . S
C1219 H1223 0.950 . S
H1220 C1216 0.950 . S
C1221 C1219 1.390 . S
C1221 C1222 1.387 . S
C1221 H1224 0.950 . S
C1222 C1221 1.387 . S
C1222 C1225 1.387 . S
H1223 C1219 0.950 . S
H1224 C1221 0.950 . S
C1225 C1216 1.390 . S
C1225 H1218 0.950 . S
C1225 C1222 1.387 . S
C1226 C1227 1.387 . S
C1226 H1230 0.950 . S
C1226 C1235 1.390 . S
C1227 C1226 1.387 . S
C1227 C1229 1.387 . S
H1228 C1235 0.950 . S
C1229 C1227 1.387 . S
C1229 C1231 1.390 . S
C1229 H1233 0.950 . S
H1230 C1226 0.950 . S
C1231 C1229 1.390 . S
C1231 C1232 1.387 . S
C1231 H1234 0.950 . S
C1232 C1231 1.387 . S
C1232 C1235 1.387 . S
H1233 C1229 0.950 . S
H1234 C1231 0.950 . S
C1235 C1226 1.390 . S
C1235 H1228 0.950 . S
C1235 C1232 1.387 . S
C1236 C1237 1.387 . S
C1236 H1240 0.950 . S
C1236 C1245 1.390 . S
C1237 C1236 1.387 . S
C1237 C1239 1.387 . S
H1238 C1245 0.950 . S
C1239 C1237 1.387 . S
C1239 C1241 1.390 . S
C1239 H1243 0.950 . S
H1240 C1236 0.950 . S
C1241 C1239 1.390 . S
C1241 C1242 1.387 . S
C1241 H1244 0.950 . S
C1242 C1241 1.387 . S
C1242 C1245 1.387 . S
H1243 C1239 0.950 . S
H1244 C1241 0.950 . S
C1245 C1236 1.390 . S
C1245 H1238 0.950 . S
C1245 C1242 1.387 . S
C1246 C1247 1.387 . S
C1246 H1250 0.950 . S
C1246 C1255 1.390 . S
C1247 C1246 1.387 . S
C1247 C1249 1.387 . S
H1248 C1255 0.950 . S
C1249 C1247 1.387 . S
C1249 C1251 1.390 . S
C1249 H1253 0.950 . S
H1250 C1246 0.950 . S
C1251 C1249 1.390 . S
C1251 C1252 1.387 . S
C1251 H1254 0.950 . S
C1252 C1251 1.387 . S
C1252 C1255 1.387 . S
H1253 C1249 0.950 . S
H1254 C1251 0.950 . S
C1255 C1246 1.390 . S
C1255 H1248 0.950 . S
C1255 C1252 1.387 . S
C1256 C1257 1.387 . S
C1256 H1260 0.950 . S
C1256 C1265 1.390 . S
C1257 C1256 1.387 . S
C1257 C1259 1.387 . S
H1258 C1265 0.950 . S
C1259 C1257 1.387 . S
C1259 C1261 1.390 . S
C1259 H1263 0.950 . S
H1260 C1256 0.950 . S
C1261 C1259 1.390 . S
C1261 C1262 1.387 . S
C1261 H1264 0.950 . S
C1262 C1261 1.387 . S
C1262 C1265 1.387 . S
H1263 C1259 0.950 . S
H1264 C1261 0.950 . S
C1265 C1256 1.390 . S
C1265 H1258 0.950 . S
C1265 C1262 1.387 . S
C1266 C1267 1.387 . S
C1266 H1270 0.950 . S
C1266 C1275 1.390 . S
C1267 C1266 1.387 . S
C1267 C1269 1.387 . S
H1268 C1275 0.950 . S
C1269 C1267 1.387 . S
C1269 C1271 1.390 . S
C1269 H1273 0.950 . S
H1270 C1266 0.950 . S
C1271 C1269 1.390 . S
C1271 C1272 1.387 . S
C1271 H1274 0.950 . S
C1272 C1271 1.387 . S
C1272 C1275 1.387 . S
H1273 C1269 0.950 . S
H1274 C1271 0.950 . S
C1275 C1266 1.390 . S
C1275 H1268 0.950 . S
C1275 C1272 1.387 . S
C1276 C1277 1.387 . S
C1276 H1280 0.950 . S
C1276 C1285 1.390 . S
C1277 C1276 1.387 . S
C1277 C1279 1.387 . S
H1278 C1285 0.950 . S
C1279 C1277 1.387 . S
C1279 C1281 1.390 . S
C1279 H1283 0.950 . S
H1280 C1276 0.950 . S
C1281 C1279 1.390 . S
C1281 C1282 1.387 . S
C1281 H1284 0.950 . S
C1282 C1281 1.387 . S
C1282 C1285 1.387 . S
H1283 C1279 0.950 . S
H1284 C1281 0.950 . S
C1285 C1276 1.390 . S
C1285 H1278 0.950 . S
C1285 C1282 1.387 . S
C1286 C1287 1.387 . S
C1286 H1290 0.950 . S
C1286 C1295 1.390 . S
C1287 C1286 1.387 . S
C1287 C1289 1.387 . S
H1288 C1295 0.950 . S
C1289 C1287 1.387 . S
C1289 C1291 1.390 . S
C1289 H1293 0.950 . S
H1290 C1286 0.950 . S
C1291 C1289 1.390 . S
C1291 C1292 1.387 . S
C1291 H1294 0.950 . S
C1292 C1291 1.387 . S
C1292 C1295 1.387 . S
H1293 C1289 0.950 . S
H1294 C1291 0.950 . S
C1295 C1286 1.390 . S
C1295 H1288 0.950 . S
C1295 C1292 1.387 . S
C1296 C1297 1.387 . S
C1296 H1300 0.950 . S
C1296 C1305 1.390 . S
C1297 C1296 1.387 . S
C1297 C1299 1.387 . S
H1298 C1305 0.950 . S
C1299 C1297 1.387 . S
C1299 C1301 1.390 . S
C1299 H1303 0.950 . S
H1300 C1296 0.950 . S
C1301 C1299 1.390 . S
C1301 C1302 1.387 . S
C1301 H1304 0.950 . S
C1302 C1301 1.387 . S
C1302 C1305 1.387 . S
H1303 C1299 0.950 . S
H1304 C1301 0.950 . S
C1305 C1296 1.390 . S
C1305 H1298 0.950 . S
C1305 C1302 1.387 . S
C1306 C1307 1.387 . S
C1306 H1310 0.950 . S
C1306 C1315 1.390 . S
C1307 C1306 1.387 . S
C1307 C1309 1.387 . S
H1308 C1315 0.950 . S
C1309 C1307 1.387 . S
C1309 C1311 1.390 . S
C1309 H1313 0.950 . S
H1310 C1306 0.950 . S
C1311 C1309 1.390 . S
C1311 C1312 1.387 . S
C1311 H1314 0.950 . S
C1312 C1311 1.387 . S
C1312 C1315 1.387 . S
H1313 C1309 0.950 . S
H1314 C1311 0.950 . S
C1315 C1306 1.390 . S
C1315 H1308 0.950 . S
C1315 C1312 1.387 . S
C1316 C1317 1.387 . S
C1316 H1320 0.950 . S
C1316 C1325 1.390 . S
C1317 C1316 1.387 . S
C1317 C1319 1.387 . S
H1318 C1325 0.950 . S
C1319 C1317 1.387 . S
C1319 C1321 1.390 . S
C1319 H1323 0.950 . S
H1320 C1316 0.950 . S
C1321 C1319 1.390 . S
C1321 C1322 1.387 . S
C1321 H1324 0.950 . S
C1322 C1321 1.387 . S
C1322 C1325 1.387 . S
H1323 C1319 0.950 . S
H1324 C1321 0.950 . S
C1325 C1316 1.390 . S
C1325 H1318 0.950 . S
C1325 C1322 1.387 . S
C1326 C1327 1.387 . S
C1326 H1330 0.950 . S
C1326 C1335 1.390 . S
C1327 C1326 1.387 . S
C1327 C1329 1.387 . S
H1328 C1335 0.950 . S
C1329 C1327 1.387 . S
C1329 C1331 1.390 . S
C1329 H1333 0.950 . S
H1330 C1326 0.950 . S
C1331 C1329 1.390 . S
C1331 C1332 1.387 . S
C1331 H1334 0.950 . S
C1332 C1331 1.387 . S
C1332 C1335 1.387 . S
H1333 C1329 0.950 . S
H1334 C1331 0.950 . S
C1335 C1326 1.390 . S
C1335 H1328 0.950 . S
C1335 C1332 1.387 . S
C1336 C1337 1.387 . S
C1336 H1340 0.950 . S
C1336 C1345 1.390 . S
C1337 C1336 1.387 . S
C1337 C1339 1.387 . S
H1338 C1345 0.950 . S
C1339 C1337 1.387 . S
C1339 C1341 1.390 . S
C1339 H1343 0.950 . S
H1340 C1336 0.950 . S
C1341 C1339 1.390 . S
C1341 C1342 1.387 . S
C1341 H1344 0.950 . S
C1342 C1341 1.387 . S
C1342 C1345 1.387 . S
H1343 C1339 0.950 . S
H1344 C1341 0.950 . S
C1345 C1336 1.390 . S
C1345 H1338 0.950 . S
C1345 C1342 1.387 . S
C1346 C1347 1.387 . S
C1346 H1350 0.950 . S
C1346 C1355 1.390 . S
C1347 C1346 1.387 . S
C1347 C1349 1.387 . S
H1348 C1355 0.950 . S
C1349 C1347 1.387 . S
C1349 C1351 1.390 . S
C1349 H1353 0.950 . S
H1350 C1346 0.950 . S
C1351 C1349 1.390 . S
C1351 C1352 1.387 . S
C1351 H1354 0.950 . S
C1352 C1351 1.387 . S
C1352 C1355 1.387 . S
H1353 C1349 0.950 . S
H1354 C1351 0.950 . S
C1355 C1346 1.390 . S
C1355 H1348 0.950 . S
C1355 C1352 1.387 . S
C1356 C1357 1.387 . S
C1356 H1360 0.950 . S
C1356 C1365 1.390 1_545 S
C1357 C1356 1.387 . S
C1357 C1359 1.387 . S
H1358 C1365 0.950 . S
C1359 C1357 1.387 . S
C1359 C1361 1.390 1_545 S
C1359 H1363 0.950 . S
H1360 C1356 0.950 . S
C1361 C1359 1.390 1_565 S
C1361 C1362 1.387 . S
C1361 H1364 0.950 . S
C1362 C1361 1.387 . S
C1362 C1365 1.387 . S
H1363 C1359 0.950 . S
H1364 C1361 0.950 . S
C1365 C1356 1.390 1_565 S
C1365 H1358 0.950 . S
C1365 C1362 1.387 . S
C1366 C1367 1.387 . S
C1366 H1370 0.950 . S
C1366 C1375 1.390 1_565 S
C1367 C1366 1.387 . S
C1367 C1369 1.387 . S
H1368 C1375 0.950 . S
C1369 C1367 1.387 . S
C1369 C1371 1.390 1_565 S
C1369 H1373 0.950 . S
H1370 C1366 0.950 . S
C1371 C1369 1.390 1_545 S
C1371 C1372 1.387 . S
C1371 H1374 0.950 . S
C1372 C1371 1.387 . S
C1372 C1375 1.387 . S
H1373 C1369 0.950 . S
H1374 C1371 0.950 . S
C1375 C1366 1.390 1_545 S
C1375 H1368 0.950 . S
C1375 C1372 1.387 . S
C1376 C1377 1.387 . S
C1376 H1380 0.950 . S
C1376 C1385 1.390 1_554 S
C1377 C1376 1.387 . S
C1377 C1379 1.387 . S
H1378 C1385 0.950 . S
C1379 C1377 1.387 . S
C1379 C1381 1.390 1_554 S
C1379 H1383 0.950 . S
H1380 C1376 0.950 . S
C1381 C1379 1.390 1_556 S
C1381 C1382 1.387 . S
C1381 H1384 0.950 . S
C1382 C1381 1.387 . S
C1382 C1385 1.387 . S
H1383 C1379 0.950 . S
H1384 C1381 0.950 . S
C1385 C1376 1.390 1_556 S
C1385 H1378 0.950 . S
C1385 C1382 1.387 . S
C1386 C1387 1.387 . S
C1386 H1390 0.950 . S
C1386 C1395 1.390 1_556 S
C1387 C1386 1.387 . S
C1387 C1389 1.387 . S
H1388 C1395 0.950 . S
C1389 C1387 1.387 . S
C1389 C1391 1.390 1_556 S
C1389 H1393 0.950 . S
H1390 C1386 0.950 . S
C1391 C1389 1.390 1_554 S
C1391 C1392 1.387 . S
C1391 H1394 0.950 . S
C1392 C1391 1.387 . S
C1392 C1395 1.387 . S
H1393 C1389 0.950 . S
H1394 C1391 0.950 . S
C1395 C1386 1.390 1_554 S
C1395 H1388 0.950 . S
C1395 C1392 1.387 . S
C1396 C1397 1.387 . S
C1396 H1400 0.950 . S
C1396 C1405 1.390 1_655 S
C1397 C1396 1.387 . S
C1397 C1399 1.387 . S
H1398 C1405 0.950 . S
C1399 C1397 1.387 . S
C1399 C1401 1.390 1_655 S
C1399 H1403 0.950 . S
H1400 C1396 0.950 . S
C1401 C1399 1.390 1_455 S
C1401 C1402 1.387 . S
C1401 H1404 0.950 . S
C1402 C1401 1.387 . S
C1402 C1405 1.387 . S
H1403 C1399 0.950 . S
H1404 C1401 0.950 . S
C1405 C1396 1.390 1_455 S
C1405 H1398 0.950 . S
C1405 C1402 1.387 . S
C1406 C1407 1.387 . S
C1406 H1410 0.950 . S
C1406 C1415 1.390 1_455 S
C1407 C1406 1.387 . S
C1407 C1409 1.387 . S
H1408 C1415 0.950 . S
C1409 C1407 1.387 . S
C1409 C1411 1.390 1_455 S
C1409 H1413 0.950 . S
H1410 C1406 0.950 . S
C1411 C1409 1.390 1_655 S
C1411 C1412 1.387 . S
C1411 H1414 0.950 . S
C1412 C1411 1.387 . S
C1412 C1415 1.387 . S
H1413 C1409 0.950 . S
H1414 C1411 0.950 . S
C1415 C1406 1.390 1_655 S
C1415 H1408 0.950 . S
C1415 C1412 1.387 . S
C817 C9 0.819 . S
C822 C787 0.911 . S
C827 C43 0.819 . S
C832 C685 0.913 . S
C837 C77 0.827 . S
C842 C753 0.915 . S
C847 C111 0.819 . S
C852 C719 0.912 . S
C857 C481 0.914 . S
C862 C145 0.827 . S
C867 C179 0.820 . S
C872 C515 0.913 . S
C877 C413 0.912 . S
C882 C213 0.823 . S
C887 C447 0.912 . S
C892 C247 0.824 . S
C897 C651 0.913 . S
C902 C281 0.822 . S
C907 C315 0.826 . S
C912 C583 0.915 . S
C917 C549 0.912 . S
C922 C349 0.824 . S
C927 C383 0.821 . S
C932 C617 0.912 . S
C937 C88 2.346 . S
C942 C682 2.281 . S
C947 C122 2.347 . S
C952 C784 2.277 . S
C957 C716 2.281 . S
C962 C20 2.346 . S
C967 C750 2.280 . S
C972 C54 2.345 . S
C977 C410 2.279 . S
C982 C258 2.347 . S
C987 C444 2.281 . S
C992 C224 2.346 . S
C997 C478 2.280 . S
C1002 C190 2.345 . S
C1007 C156 2.346 . S
C1012 C512 2.281 . S
C1017 C394 2.346 . S
C1022 C546 2.279 . S
C1027 C614 2.279 . S
C1032 C360 2.345 . S
C1037 C326 2.346 . S
C1042 C648 2.277 . S
C1047 C580 2.280 . S
C1052 C292 2.346 . S
C1057 C417 0.828 . S
C1062 C379 0.915 . S
C1067 C277 0.911 . S
C1072 C451 0.819 . S
C1077 C345 0.911 . S
C1082 C485 0.817 . S
C1087 C311 0.914 . S
C1092 C519 0.824 . S
C1097 C73 0.912 . S
C1102 C553 0.820 . S
C1107 C107 0.913 . S
C1112 C587 0.824 . S
C1117 C5 0.912 . S
C1122 C621 0.824 . S
C1127 C655 0.825 . S
C1132 C39 0.909 . S
C1137 C689 0.827 . S
C1142 C243 0.914 . S
C1147 C723 0.828 . S
C1152 C175 0.911 . S
C1157 C141 0.912 . S
C1162 C757 0.824 . S
C1167 C791 0.823 . S
C1172 C209 0.908 . S
C1177 C274 2.279 . S
C1182 C496 2.347 . S
C1187 C376 2.279 . S
C1192 C530 2.347 . S
C1197 C308 2.281 . S
C1202 C428 2.350 . S
C1207 C462 2.347 . S
C1212 C342 2.283 . S
C1217 C2 2.280 . S
C1222 C666 2.348 . S
C1227 C36 2.281 . S
C1232 C632 2.350 . S
C1237 C70 2.279 . S
C1242 C598 2.347 . S
C1247 C564 2.347 . S
C1252 C104 2.283 . S
C1257 C802 2.347 . S
C1262 C138 2.279 . S
C1267 C768 2.348 . S
C1272 C206 2.284 . S
C1277 C240 2.281 . S
C1282 C734 2.348 . S
C1287 C700 2.348 . S
C1292 C172 2.284 . S
C1297 C33 1.634 . S
C1302 C67 1.637 . S
C1307 C101 1.634 . S
C1312 C135 1.638 . S
C1317 C169 1.634 . S
C1322 C237 1.637 . S
C1327 C271 1.634 . S
C1332 C203 1.638 . S
C1337 C305 1.634 . S
C1342 C373 1.637 . S
C1347 C407 1.634 . S
C1352 C339 1.638 . S
C1357 C475 1.634 . S
C1362 C441 1.634 . S
C1367 C543 1.634 . S
C1372 C509 1.634 . S
C1377 C645 1.634 . S
C1382 C577 1.634 . S
C1387 C611 1.634 . S
C1392 C679 1.634 . S
C1397 C713 1.634 . S
C1402 C781 1.634 . S
C1407 C815 1.634 . S
C1412 C747 1.634 . S
