# Generated by pormake.
# Topology sml, (6)-cn, num edge types: 1
# Building blocks:
#     Node 0, Type 0, BuildingBlock: KUMBUR_clean_sbu_1, # of connection points: 6
#     Node 1, Type 0, BuildingBlock: KUMBUR_clean_sbu_1, # of connection points: 6
#     Node 2, Type 0, BuildingBlock: KUMBUR_clean_sbu_1, # of connection points: 6
#     Node 3, Type 0, BuildingBlock: KUMBUR_clean_sbu_1, # of connection points: 6
#     Node 4, Type 0, BuildingBlock: KUMBUR_clean_sbu_1, # of connection points: 6
#     Node 5, Type 0, BuildingBlock: KUMBUR_clean_sbu_1, # of connection points: 6
#     Edge 6, Type (0, 0), BuildingBlock: XUDNAN_clean_linker_2, # of connection points: 2
#     Edge 7, Type (0, 0), BuildingBlock: XUDNAN_clean_linker_2, # of connection points: 2
#     Edge 8, Type (0, 0), BuildingBlock: XUDNAN_clean_linker_2, # of connection points: 2
#     Edge 9, Type (0, 0), BuildingBlock: XUDNAN_clean_linker_2, # of connection points: 2
#     Edge 10, Type (0, 0), BuildingBlock: XUDNAN_clean_linker_2, # of connection points: 2
#     Edge 11, Type (0, 0), BuildingBlock: XUDNAN_clean_linker_2, # of connection points: 2
#     Edge 12, Type (0, 0), BuildingBlock: XUDNAN_clean_linker_2, # of connection points: 2
#     Edge 13, Type (0, 0), BuildingBlock: XUDNAN_clean_linker_2, # of connection points: 2
#     Edge 14, Type (0, 0), BuildingBlock: XUDNAN_clean_linker_2, # of connection points: 2
#     Edge 15, Type (0, 0), BuildingBlock: XUDNAN_clean_linker_2, # of connection points: 2
#     Edge 16, Type (0, 0), BuildingBlock: XUDNAN_clean_linker_2, # of connection points: 2
#     Edge 17, Type (0, 0), BuildingBlock: XUDNAN_clean_linker_2, # of connection points: 2
#     Edge 18, Type (0, 0), BuildingBlock: XUDNAN_clean_linker_2, # of connection points: 2
#     Edge 19, Type (0, 0), BuildingBlock: XUDNAN_clean_linker_2, # of connection points: 2
#     Edge 20, Type (0, 0), BuildingBlock: XUDNAN_clean_linker_2, # of connection points: 2
#     Edge 21, Type (0, 0), BuildingBlock: XUDNAN_clean_linker_2, # of connection points: 2
#     Edge 22, Type (0, 0), BuildingBlock: XUDNAN_clean_linker_2, # of connection points: 2
#     Edge 23, Type (0, 0), BuildingBlock: XUDNAN_clean_linker_2, # of connection points: 2
# Relax obj value: 0.063
# Max RMSD: 0.176
# Mean RMSD: 0.176
data_MOF--net-sml--node1-KUMBUR_clean_sbu_1--edge1-XUDNAN_clean_linker_2
_symmetry_space_group_name_H-M    P1
_symmetry_Int_Tables_number       1
_symmetry_cell_setting            triclinic
loop_
_symmetry_equiv_pos_as_xyz
'x, y, z'
_cell_length_a     33.078628
_cell_length_b     33.100394
_cell_length_c     23.939126
_cell_angle_alpha  90.069892
_cell_angle_beta   89.941125
_cell_angle_gamma 119.96508
loop_
_atom_site_label
_atom_site_type_symbol
_atom_site_fract_x
_atom_site_fract_y
_atom_site_fract_z
_atom_type_partial_charge
Tb0 Tb 0.18282 0.4246 0.93554 0.0
C1 C 0.33729 0.41229 0.0717 0.0
N2 N 0.29088 0.38127 0.06872 0.0
C3 C 0.30754 0.31907 0.05511 0.0
C4 C 0.3708 0.3984 0.0634 0.0
C5 C 0.27578 0.33461 0.06474 0.0
C6 C 0.35527 0.35126 0.05323 0.0
C7 C 0.39814 0.48865 0.10142 0.0
C8 C 0.35082 0.45659 0.09048 0.0
C9 C 0.43213 0.47645 0.08852 0.0
C10 C 0.41845 0.43131 0.06946 0.0
Tb11 Tb 0.2421 0.4112 0.08294 0.0
N12 N 0.31688 0.4665 0.10358 0.0
C13 C 0.40942 0.53079 0.12785 0.0
C14 C 0.32715 0.50566 0.13342 0.0
C15 C 0.37362 0.53888 0.14502 0.0
H16 H 0.23908 0.30919 0.06838 0.0
H17 H 0.38175 0.57047 0.16742 0.0
H18 H 0.12062 0.47503 0.95607 0.0
H19 H 0.12946 0.25526 0.84298 0.0
H20 H 0.29937 0.51119 0.14782 0.0
H21 H 0.44534 0.55634 0.13723 0.0
H22 H 0.18393 0.33808 0.86231 0.0
H23 H 0.29521 0.28224 0.04991 0.0
H24 H 0.4688 0.50083 0.09569 0.0
H25 H 0.44479 0.42152 0.06238 0.0
H26 H 0.03744 0.45135 0.97116 0.0
H27 H 0.37986 0.33907 0.04703 0.0
H28 H 0.04671 0.21951 0.87159 0.0
N29 N 0.10673 0.40582 0.94393 0.0
C30 C 0.07385 0.36048 0.93712 0.0
C31 C 0.04723 0.42533 0.96209 0.0
C32 C 0.02612 0.34516 0.94468 0.0
C33 C 0.09417 0.43868 0.95379 0.0
C34 C 0.01306 0.37821 0.9584 0.0
N35 N 0.13466 0.34805 0.90916 0.0
C36 C 0.14877 0.32251 0.87826 0.0
C37 C 0.05541 0.28348 0.90734 0.0
C38 C 0.08846 0.33025 0.91964 0.0
C39 C 0.07091 0.25561 0.88191 0.0
C40 C 0.11759 0.27564 0.86581 0.0
H41 H 0.97671 0.36793 0.96453 0.0
H42 H 0.95629 0.28511 0.94262 0.0
H43 H 0.98195 0.231 0.90932 0.0
O44 O 0.17579 0.42279 0.84818 0.0
O45 O 0.14421 0.40677 1.01476 0.0
O46 O 0.17154 0.36278 0.0534 0.0
O47 O 0.20112 0.48719 0.89252 0.0
O48 O 0.22741 0.39246 0.93484 0.0
O49 O 0.21104 0.35544 0.01963 0.0
O50 O 0.20747 0.41236 0.15882 0.0
O51 O 0.28531 0.47396 0.03069 0.0
O52 O 0.25708 0.44809 0.9425 0.0
O53 O 0.24975 0.3793 0.15375 0.0
O54 O 0.2248 0.4673 0.08358 0.0
O55 O 0.19963 0.48136 0.99638 0.0
C56 C 0.14005 0.37564 0.05155 0.0
C57 C 0.16452 0.47987 0.80364 0.0
C58 C 0.14499 0.4845 0.70591 0.0
C59 C 0.12129 0.50764 0.72342 0.0
C60 C 0.14068 0.50304 0.82012 0.0
C61 C 0.11901 0.51658 0.78013 0.0
C62 C 0.16631 0.47052 0.74653 0.0
C63 C 0.22652 0.36038 0.96812 0.0
C64 C 0.18986 0.46684 0.84397 0.0
C65 C 0.99319 0.29783 0.93651 0.0
C66 C 0.00783 0.267 0.91776 0.0
C67 C 0.28728 0.4804 0.97595 0.0
C68 C 0.21456 0.373 0.24383 0.0
C69 C 0.19356 0.37864 0.34122 0.0
C70 C 0.20648 0.34535 0.35604 0.0
C71 C 0.22551 0.3389 0.26049 0.0
C72 C 0.19763 0.39221 0.28417 0.0
C73 C 0.22146 0.32529 0.31599 0.0
C74 C 0.21221 0.49095 0.04985 0.0
C75 C 0.22388 0.38918 0.1849 0.0
H76 H 0.10426 0.51856 0.69328 0.0
H77 H 0.13917 0.51111 0.86361 0.0
H78 H 0.10066 0.53443 0.79311 0.0
H79 H 0.18546 0.45339 0.73358 0.0
H80 H 0.20641 0.33529 0.399 0.0
H81 H 0.23816 0.32313 0.23066 0.0
H82 H 0.18846 0.4179 0.27111 0.0
H83 H 0.23102 0.29971 0.32832 0.0
Tb84 Tb 0.84031 0.26786 0.44284 0.0
C85 C 0.69018 0.08429 0.30614 0.0
N86 N 0.73682 0.10253 0.31358 0.0
C87 C 0.72619 0.02554 0.32114 0.0
C88 C 0.65958 0.03569 0.30586 0.0
C89 C 0.75525 0.07401 0.32071 0.0
C90 C 0.67817 0.0063 0.31358 0.0
C91 C 0.62513 0.09708 0.28913 0.0
C92 C 0.67318 0.11456 0.29783 0.0
C93 C 0.5944 0.04867 0.28924 0.0
C94 C 0.61158 0.01805 0.29759 0.0
Tb95 Tb 0.78027 0.1819 0.30988 0.0
N96 N 0.70382 0.16123 0.29906 0.0
C97 C 0.60946 0.12884 0.28069 0.0
C98 C 0.68895 0.1923 0.28896 0.0
C99 C 0.64156 0.17662 0.28033 0.0
H100 H 0.7925 0.08858 0.32505 0.0
H101 H 0.62985 0.20141 0.27303 0.0
H102 H 0.84833 0.37081 0.42474 0.0
H103 H 0.971 0.21532 0.45487 0.0
H104 H 0.71328 0.22915 0.28738 0.0
H105 H 0.57279 0.11684 0.27395 0.0
H106 H 0.89168 0.2038 0.46095 0.0
H107 H 0.74087 1.00304 0.32692 0.0
H108 H 0.55732 0.03456 0.28279 0.0
H109 H 0.5875 0.98078 0.29732 0.0
H110 H 0.91077 0.45231 0.41023 0.0
H111 H 0.65576 0.96877 0.31381 0.0
H112 H 0.03798 0.29404 0.43667 0.0
N113 N 0.89508 0.34453 0.43116 0.0
C114 C 0.94026 0.35466 0.43086 0.0
C115 C 0.91954 0.42515 0.41583 0.0
C116 C 0.97704 0.4006 0.42225 0.0
C117 C 0.88422 0.3789 0.4237 0.0
C118 C 0.96616 0.43607 0.41508 0.0
N119 N 0.91254 0.27424 0.44338 0.0
C120 C 0.9201 0.23785 0.45179 0.0
C121 C 0.99549 0.32685 0.43413 0.0
C122 C 0.94933 0.3183 0.43709 0.0
C123 C 1.0031 0.2891 0.43944 0.0
C124 C 0.96532 0.24454 0.44921 0.0
H125 H 0.9934 0.47187 0.40858 0.0
H126 H 0.05195 0.44443 0.41306 0.0
H127 H 0.06798 0.37973 0.42255 0.0
O128 O 0.8395 0.24912 0.52703 0.0
O129 O 0.87675 0.28319 0.36251 0.0
O130 O 0.85499 0.21149 0.32617 0.0
O131 O 0.83635 0.31045 0.50543 0.0
O132 O 0.8102 0.19231 0.45574 0.0
O133 O 0.8192 0.16576 0.37078 0.0
O134 O 0.79516 0.21424 0.23111 0.0
O135 O 0.73293 0.17066 0.38154 0.0
O136 O 0.76639 0.24117 0.42826 0.0
O137 O 0.78427 0.14478 0.24072 0.0
O138 O 0.79709 0.25507 0.30097 0.0
O139 O 0.79917 0.28723 0.38862 0.0
C140 C 0.88337 0.25676 0.32711 0.0
C141 C 0.86958 0.3105 0.5928 0.0
C142 C 0.88042 0.32282 0.69355 0.0
C143 C 0.92672 0.35827 0.68412 0.0
C144 C 0.9159 0.34578 0.58424 0.0
C145 C 0.94429 0.3695 0.62977 0.0
C146 C 0.85207 0.29904 0.64742 0.0
C147 C 0.80701 0.15862 0.42361 0.0
C148 C 0.8384 0.28545 0.54584 0.0
C149 C 0.02318 0.4094 0.41988 0.0
C150 C 0.03233 0.37255 0.42537 0.0
C151 C 0.73251 0.19805 0.42154 0.0
C152 C 0.76131 0.16309 0.15491 0.0
C153 C 0.75176 0.17916 0.05772 0.0
C154 C 0.70858 0.13745 0.05613 0.0
C155 C 0.71806 0.12162 0.1526 0.0
C156 C 0.77783 0.19169 0.10749 0.0
C157 C 0.69187 0.10901 0.1034 0.0
C158 C 0.79705 0.28744 0.33331 0.0
C159 C 0.79036 0.1773 0.20564 0.0
H160 H 0.94956 0.37683 0.71879 0.0
H161 H 0.93009 0.35516 0.54265 0.0
H162 H 0.98004 0.39667 0.62292 0.0
H163 H 0.8161 0.27203 0.65391 0.0
H164 H 0.6876 0.12702 0.01851 0.0
H165 H 0.70461 0.09882 0.18844 0.0
H166 H 0.81158 0.22332 0.10912 0.0
H167 H 0.65857 0.07699 0.10184 0.0
Tb168 Tb 0.58473 0.75254 0.63094 0.0
C169 C 0.57556 0.92227 0.7356 0.0
N170 N 0.61383 0.91747 0.7301 0.0
C171 C 0.65889 0.99668 0.699 0.0
C172 C 0.57738 0.96461 0.72237 0.0
C173 C 0.65541 0.954 0.71277 0.0
C174 C 0.61969 1.002 0.70363 0.0
C175 C 0.49341 0.88742 0.75873 0.0
C176 C 0.53399 0.88401 0.75308 0.0
C177 C 0.49516 0.92968 0.74622 0.0
C178 C 0.53698 0.96813 0.72789 0.0
Tb179 Tb 0.60331 0.84592 0.75211 0.0
N180 N 0.53323 0.84313 0.76308 0.0
C181 C 0.45228 0.84827 0.77685 0.0
C182 C 0.49374 0.80556 0.78333 0.0
C183 C 0.45262 0.80733 0.78972 0.0
H184 H 0.68613 0.95052 0.71033 0.0
H185 H 0.4213 0.77724 0.80521 0.0
H186 H 0.49977 0.64638 0.66642 0.0
H187 H 0.76962 0.82306 0.59505 0.0
H188 H 0.49359 0.77441 0.79599 0.0
H189 H 0.42034 0.84949 0.78182 0.0
H190 H 0.69685 0.82565 0.59882 0.0
H191 H 0.69185 0.02549 0.68504 0.0
H192 H 0.46425 0.93278 0.75065 0.0
H193 H 0.53782 1.00046 0.71809 0.0
H194 H 0.49267 0.5705 0.68952 0.0
H195 H 0.62249 0.03508 0.69281 0.0
H196 H 0.76905 0.74966 0.61627 0.0
N197 N 0.57297 0.6801 0.65173 0.0
C198 C 0.61144 0.67531 0.64869 0.0
C199 C 0.52631 0.59976 0.67832 0.0
C200 C 0.60881 0.63238 0.66071 0.0
C201 C 0.53059 0.64302 0.66592 0.0
C202 C 0.56557 0.59439 0.67574 0.0
N203 N 0.65536 0.75557 0.62632 0.0
C204 C 0.696 0.79394 0.61031 0.0
C205 C 0.69476 0.71085 0.63253 0.0
C206 C 0.65394 0.71416 0.63504 0.0
C207 C 0.73689 0.75074 0.61875 0.0
C208 C 0.7374 0.79232 0.6071 0.0
H209 H 0.56212 0.56082 0.68539 0.0
H210 H 0.64808 0.59619 0.66704 0.0
H211 H 0.72325 0.66479 0.64219 0.0
O212 O 0.59682 0.76847 0.54467 0.0
O213 O 0.62084 0.75278 0.7081 0.0
O214 O 0.65834 0.8287 0.73793 0.0
O215 O 0.54609 0.6999 0.57242 0.0
O216 O 0.62206 0.8278 0.6097 0.0
O217 O 0.65926 0.86597 0.69089 0.0
O218 O 0.59569 0.83068 0.83903 0.0
O219 O 0.56438 0.84415 0.67623 0.0
O220 O 0.52864 0.76833 0.64403 0.0
O221 O 0.64706 0.89923 0.80785 0.0
O222 O 0.56419 0.77129 0.77169 0.0
O223 O 0.5271 0.72829 0.69211 0.0
C224 C 0.65155 0.78618 0.7402 0.0
C225 C 0.53583 0.72086 0.48028 0.0
C226 C 0.52915 0.72763 0.37899 0.0
C227 C 0.48085 0.6973 0.38307 0.0
C228 C 0.48726 0.69099 0.48302 0.0
C229 C 0.46018 0.67916 0.43464 0.0
C230 C 0.55661 0.73964 0.42789 0.0
C231 C 0.65282 0.86557 0.63662 0.0
C232 C 0.5656 0.72655 0.52941 0.0
C233 C 0.64939 0.62889 0.65796 0.0
C234 C 0.69224 0.668 0.64391 0.0
C235 C 0.53341 0.81021 0.64454 0.0
C236 C 0.64437 0.88957 0.90919 0.0
C237 C 0.64208 0.87646 1.01078 0.0
C238 C 0.67792 0.92311 1.01717 0.0
C239 C 0.67961 0.936 0.91756 0.0
C240 C 0.62546 0.8599 0.95609 0.0
C241 C 0.69615 0.95251 0.97108 0.0
C242 C 0.53255 0.73261 0.74707 0.0
C243 C 0.62868 0.87273 0.8513 0.0
H244 H 0.45913 0.68716 0.34604 0.0
H245 H 0.47025 0.67553 0.52225 0.0
H246 H 0.42297 0.65524 0.437 0.0
H247 H 0.59417 0.76154 0.42472 0.0
H248 H 0.69269 0.93698 0.0578 0.0
H249 H 0.69479 0.95966 0.88261 0.0
H250 H 0.59782 0.82424 0.94995 0.0
H251 H 0.72366 0.98827 0.97684 0.0
Tb252 Tb 0.74214 0.58604 0.10814 0.0
C253 C 0.90302 0.55918 0.99083 0.0
N254 N 0.89677 0.59667 0.98755 0.0
C255 C 0.97983 0.64792 0.98809 0.0
C256 C 0.94801 0.56467 0.99517 0.0
C257 C 0.93454 0.64072 0.98411 0.0
C258 C 0.98659 0.60979 0.99467 0.0
C259 C 0.86969 0.47546 0.98273 0.0
C260 C 0.86452 0.51522 0.98451 0.0
C261 C 0.914 0.48045 0.99086 0.0
C262 C 0.95313 0.52501 0.99701 0.0
Tb263 Tb 0.82101 0.5802 0.97987 0.0
N264 N 0.82238 0.51184 0.97586 0.0
C265 C 0.83055 0.43225 0.97033 0.0
C266 C 0.78506 0.47045 0.95904 0.0
C267 C 0.78825 0.42989 0.9574 0.0
H268 H 0.92985 0.67043 0.97745 0.0
H269 H 0.75823 0.39695 0.94573 0.0
H270 H 0.63802 0.52671 0.04936 0.0
H271 H 0.82494 0.75488 0.20973 0.0
H272 H 0.75266 0.46863 0.94801 0.0
H273 H 0.83308 0.4009 0.96853 0.0
H274 H 0.81064 0.67554 0.19148 0.0
H275 H 0.00953 0.68289 0.98589 0.0
H276 H 0.91863 0.45026 0.99034 0.0
H277 H 0.98737 0.52852 1.00105 0.0
H278 H 0.57808 0.54267 1.01129 0.0
H279 H 0.02177 0.61551 0.99749 0.0
H280 H 0.77536 0.78202 0.16493 0.0
N281 N 0.68346 0.59675 0.07441 0.0
C282 C 0.68864 0.63978 0.08125 0.0
C283 C 0.60929 0.57046 0.03034 0.0
C284 C 0.65532 0.6506 0.06055 0.0
C285 C 0.64349 0.56156 0.05154 0.0
C286 C 0.61549 0.61534 0.03424 0.0
N287 N 0.75646 0.65916 0.13241 0.0
C288 C 0.79002 0.68751 0.16965 0.0
C289 C 0.73287 0.71696 0.12113 0.0
C290 C 0.7269 0.67236 0.11074 0.0
C291 C 0.76958 0.74747 0.15574 0.0
C292 C 0.79767 0.7323 0.18101 0.0
H293 H 0.58888 0.62211 0.018 0.0
H294 H 0.63742 0.70498 0.05192 0.0
H295 H 0.70526 0.76315 0.10545 0.0
O296 O 0.72632 0.58951 0.19289 0.0
O297 O 0.73848 0.60752 0.02282 0.0
O298 O 0.81413 0.64205 0.99328 0.0
O299 O 0.6936 0.52329 0.14833 0.0
O300 O 0.81916 0.62902 0.12012 0.0
O301 O 0.86046 0.6411 0.03588 0.0
O302 O 0.78643 0.57293 0.90319 0.0
O303 O 0.79807 0.52632 0.04614 0.0
O304 O 0.79718 0.56959 0.11893 0.0
O305 O 0.86034 0.60156 0.90562 0.0
O306 O 0.74492 0.54248 0.97225 0.0
O307 O 0.71087 0.52055 0.05991 0.0
C308 C 0.77368 0.64042 0.99515 0.0
C309 C 0.67316 0.52116 0.24682 0.0
C310 C 0.67269 0.51129 0.34807 0.0
C311 C 0.62912 0.47029 0.34355 0.0
C312 C 0.62976 0.48005 0.2433 0.0
C313 C 0.60772 0.45506 0.29155 0.0
C314 C 0.69424 0.53708 0.29946 0.0
C315 C 0.85772 0.65082 0.08909 0.0
C316 C 0.69829 0.54482 0.19537 0.0
C317 C 0.6623 0.69574 0.06811 0.0
C318 C 0.70102 0.72889 0.09844 0.0
C319 C 0.79506 0.53171 0.10008 0.0
C320 C 0.82105 0.55825 0.82517 0.0
C321 C 0.80054 0.53667 0.7268 0.0
C322 C 0.81897 0.5065 0.73118 0.0
C323 C 0.8388 0.52767 0.82817 0.0
C324 C 0.80147 0.56222 0.77467 0.0
C325 C 0.83749 0.50184 0.78152 0.0
C326 C 0.71132 0.51344 1.00567 0.0
C327 C 0.82408 0.58726 0.87369 0.0
H328 H 0.6116 0.45 0.38033 0.0
H329 H 0.6131 0.46701 0.20319 0.0
H330 H 0.57422 0.42341 0.28859 0.0
H331 H 0.72833 0.56816 0.3023 0.0
H332 H 0.82023 0.48715 0.69541 0.0
H333 H 0.85438 0.52424 0.86624 0.0
H334 H 0.78716 0.58535 0.77292 0.0
H335 H 0.85167 0.47866 0.78409 0.0
Tb336 Tb 0.25989 0.83477 0.2818 0.0
C337 C 0.11979 0.6477 0.38233 0.0
N338 N 0.11703 0.68726 0.38163 0.0
C339 C 0.03889 0.64418 0.34628 0.0
C340 C 0.08313 0.60517 0.36198 0.0
C341 C 0.07648 0.68562 0.36653 0.0
C342 C 0.04253 0.60395 0.34296 0.0
C343 C 0.16385 0.60999 0.40677 0.0
C344 C 0.15957 0.65021 0.40422 0.0
C345 C 0.12829 0.56774 0.38462 0.0
C346 C 0.08796 0.56533 0.36227 0.0
Tb347 Tb 0.18141 0.75377 0.41198 0.0
N348 N 0.19309 0.69174 0.42527 0.0
C349 C 0.20311 0.61325 0.43293 0.0
C350 C 0.22887 0.69372 0.4557 0.0
C351 C 0.23513 0.65493 0.45868 0.0
H352 H 0.07276 0.71607 0.37052 0.0
H353 H 0.26425 0.65681 0.48127 0.0
H354 H 0.37055 0.85736 0.29053 0.0
H355 H 0.19444 0.95186 0.24096 0.0
H356 H 0.25198 0.72475 0.47883 0.0
H357 H 0.20815 0.58345 0.43541 0.0
H358 H 0.19119 0.87546 0.24306 0.0
H359 H 0.00704 0.64325 0.33367 0.0
H360 H 0.13115 0.53652 0.3858 0.0
H361 H 0.06041 0.53236 0.34628 0.0
H362 H 0.44712 0.92495 0.31423 0.0
H363 H 0.01341 0.57193 0.32716 0.0
H364 H 0.26568 0.02294 0.27294 0.0
N365 N 0.33391 0.89486 0.29893 0.0
C366 C 0.33802 0.93766 0.30393 0.0
C367 C 0.41658 0.92888 0.31224 0.0
C368 C 0.38135 0.97754 0.31586 0.0
C369 C 0.37293 0.89049 0.2996 0.0
C370 C 0.42066 0.97242 0.32159 0.0
N371 N 0.25894 0.9031 0.27821 0.0
C372 C 0.22219 0.90634 0.25741 0.0
C373 C 0.30302 0.98632 0.29154 0.0
C374 C 0.29945 0.94209 0.29212 0.0
C375 C 0.26434 0.98957 0.27409 0.0
C376 C 0.22404 0.94951 0.256 0.0
H377 H 0.45461 1.00218 0.33075 0.0
H378 H 0.41732 0.0524 0.32875 0.0
H379 H 0.34869 0.06009 0.30735 0.0
O380 O 0.2313 0.80649 0.20266 0.0
O381 O 0.23155 0.86118 0.34633 0.0
O382 O 0.23293 0.82658 0.4285 0.0
O383 O 0.30138 0.86262 0.2099 0.0
O384 O 0.18366 0.79516 0.27213 0.0
O385 O 0.15127 0.78761 0.3606 0.0
O386 O 0.17004 0.73201 0.49636 0.0
O387 O 0.18019 0.72655 0.32752 0.0
O388 O 0.25541 0.76748 0.29625 0.0
O389 O 0.13285 0.7627 0.45918 0.0
O390 O 0.25755 0.78913 0.42514 0.0
O391 O 0.29748 0.81223 0.33929 0.0
C392 C 0.24091 0.86359 0.39988 0.0
C393 C 0.28483 0.81226 0.13293 0.0
C394 C 0.2923 0.79654 0.03405 0.0
C395 C 0.31882 0.7761 0.05114 0.0
C396 C 0.31157 0.79201 0.14829 0.0
C397 C 0.32883 0.77457 0.10748 0.0
C398 C 0.27515 0.81444 0.07582 0.0
C399 C 0.14892 0.78807 0.30545 0.0
C400 C 0.26951 0.83383 0.17582 0.0
C401 C 0.38445 0.02143 0.31898 0.0
C402 C 0.34538 0.02583 0.30669 0.0
C403 C 0.21541 0.72842 0.29977 0.0
C404 C 0.15398 0.78077 0.55507 0.0
C405 C 0.18322 0.80417 0.65104 0.0
C406 C 0.16966 0.83813 0.6491 0.0
C407 C 0.14091 0.81523 0.55482 0.0
C408 C 0.17562 0.77568 0.60357 0.0
C409 C 0.14895 0.84372 0.60129 0.0
C410 C 0.29563 0.80487 0.39399 0.0
C411 C 0.1431 0.74941 0.50565 0.0
H412 H 0.33202 0.76112 0.021 0.0
H413 H 0.31979 0.79047 0.19177 0.0
H414 H 0.35054 0.76017 0.1195 0.0
H415 H 0.2555 0.83126 0.06407 0.0
H416 H 0.17561 0.86083 0.68455 0.0
H417 H 0.12411 0.82014 0.51874 0.0
H418 H 0.18568 0.74916 0.60488 0.0
H419 H 0.13882 0.87016 0.60034 0.0
Tb420 Tb 0.43585 0.16193 0.77003 0.0
C421 C 0.45095 0.34501 0.66096 0.0
N422 N 0.41206 0.30215 0.66312 0.0
C423 C 0.36503 0.33696 0.68216 0.0
C424 C 0.44845 0.38574 0.67035 0.0
C425 C 0.3694 0.29748 0.67401 0.0
C426 C 0.40471 0.38129 0.68046 0.0
C427 C 0.5351 0.39143 0.65173 0.0
C428 C 0.49371 0.34781 0.65139 0.0
C429 C 0.53284 0.43219 0.66101 0.0
C430 C 0.4896 0.42937 0.67003 0.0
Tb431 Tb 0.42334 0.24082 0.64578 0.0
N432 N 0.49476 0.30742 0.64458 0.0
C433 C 0.57757 0.3927 0.64345 0.0
C434 C 0.5359 0.3088 0.63349 0.0
C435 C 0.57789 0.35127 0.63352 0.0
H436 H 0.33855 0.26332 0.67511 0.0
H437 H 0.61047 0.35189 0.62616 0.0
H438 H 0.52132 0.14278 0.73139 0.0
H439 H 0.25302 0.04566 0.81409 0.0
H440 H 0.53689 0.27763 0.62421 0.0
H441 H 0.61019 0.42544 0.64482 0.0
H442 H 0.32439 0.12183 0.80486 0.0
H443 H 0.33107 0.33316 0.68995 0.0
H444 H 0.56432 0.46604 0.66149 0.0
H445 H 0.48843 0.46109 0.67728 0.0
H446 H 0.52914 0.0749 0.70505 0.0
H447 H 0.40124 0.41175 0.68757 0.0
H448 H 0.25529 0.9732 0.79593 0.0
N449 N 0.44881 0.10211 0.74957 0.0
C450 C 0.41126 0.05857 0.75471 0.0
C451 C 0.49581 0.06984 0.71906 0.0
C452 C 0.41456 0.01874 0.74219 0.0
C453 C 0.49109 0.10827 0.73323 0.0
C454 C 0.45728 0.02493 0.72316 0.0
N455 N 0.36648 0.09371 0.77793 0.0
C456 C 0.3258 0.09096 0.79485 0.0
C457 C 0.32894 0.00966 0.77573 0.0
C458 C 0.36883 0.05417 0.77025 0.0
C459 C 0.28676 0.00673 0.79115 0.0
C460 C 0.28528 0.04757 0.80108 0.0
H461 H 0.46075 0.99533 0.71118 0.0
H462 H 0.37696 0.94316 0.73906 0.0
H463 H 0.30217 0.93517 0.76945 0.0
O464 O 0.42485 0.16651 0.8559 0.0
O465 O 0.39926 0.12481 0.69341 0.0
O466 O 0.36834 0.16838 0.65901 0.0
O467 O 0.47956 0.15439 0.82787 0.0
O468 O 0.39486 0.19654 0.78789 0.0
O469 O 0.36444 0.20504 0.7038 0.0
O470 O 0.43848 0.2402 0.55934 0.0
O471 O 0.45573 0.27647 0.72505 0.0
O472 O 0.48888 0.23403 0.75381 0.0
O473 O 0.38033 0.24841 0.58728 0.0
O474 O 0.46025 0.20267 0.62659 0.0
O475 O 0.4931 0.19826 0.70995 0.0
C476 C 0.37328 0.13139 0.65708 0.0
C477 C 0.49228 0.19704 0.91208 0.0
C478 C 0.50701 0.22578 1.0084 0.0
C479 C 0.54979 0.26381 0.9913 0.0
C480 C 0.53554 0.23488 0.89608 0.0
C481 C 0.56411 0.26796 0.93561 0.0
C482 C 0.47847 0.1924 0.96842 0.0
C483 C 0.36731 0.20694 0.75887 0.0
C484 C 0.4606 0.16264 0.87072 0.0
C485 C 0.37504 0.97425 0.74815 0.0
C486 C 0.33242 0.9697 0.76537 0.0
C487 C 0.48154 0.26904 0.76042 0.0
C488 C 0.3917 0.25077 0.48676 0.0
C489 C 0.40171 0.24806 0.38552 0.0
C490 C 0.36995 0.26401 0.37726 0.0
C491 C 0.35987 0.26638 0.47697 0.0
C492 C 0.41233 0.24118 0.44066 0.0
C493 C 0.34912 0.27287 0.42264 0.0
C494 C 0.48775 0.19231 0.6554 0.0
C495 C 0.40413 0.24668 0.54515 0.0
H496 H 0.5724 0.28999 0.02116 0.0
H497 H 0.54693 0.2393 0.85295 0.0
H498 H 0.5972 0.2973 0.92289 0.0
H499 H 0.44509 0.16324 0.98096 0.0
H500 H 0.36072 0.26905 0.33547 0.0
H501 H 0.34359 0.27419 0.51141 0.0
H502 H 0.43702 0.22922 0.44755 0.0
H503 H 0.3246 0.285 0.41567 0.0
H504 H 0.39403 0.29239 0.80278 0.0
H505 H 0.27494 0.15336 0.78509 0.0
H506 H 0.22767 0.17591 0.84398 0.0
H507 H 0.37182 0.31351 0.94427 0.0
H508 H 0.38927 0.37392 0.93275 0.0
H509 H 0.4149 0.34667 0.89192 0.0
H510 H 0.38968 0.36918 0.80087 0.0
H511 H 0.36483 0.39745 0.84085 0.0
H512 H 0.32924 0.35294 0.79109 0.0
H513 H 0.19482 0.21311 0.90908 0.0
H514 H 0.17419 0.26571 0.95993 0.0
H515 H 0.31113 0.38289 0.9241 0.0
C516 C 0.35794 0.26685 0.81141 0.0
C517 C 0.33806 0.22096 0.79041 0.0
C518 C 0.29077 0.18845 0.80162 0.0
C519 C 0.26379 0.20097 0.83505 0.0
C520 C 0.2845 0.2464 0.85587 0.0
C521 C 0.33019 0.27918 0.84335 0.0
C522 C 0.34325 0.32637 0.8681 0.0
C523 C 0.3821 0.34098 0.91189 0.0
C524 C 0.35756 0.36365 0.82242 0.0
C525 C 0.29739 0.31534 0.89513 0.0
C526 C 0.26445 0.26866 0.88935 0.0
C527 C 0.22011 0.24984 0.91309 0.0
C528 C 0.20868 0.27979 0.94193 0.0
C529 C 0.24078 0.32815 0.94466 0.0
C530 C 0.28581 0.34602 0.92156 0.0
H531 H 0.07655 0.28943 0.09566 0.0
H532 H 0.12763 0.43755 0.11161 0.0
H533 H 0.0697 0.42234 0.18485 0.0
H534 H 0.95567 0.25564 0.11066 0.0
H535 H 0.93941 0.20318 0.14971 0.0
H536 H 0.98757 0.22511 0.10136 0.0
H537 H 0.04203 0.22712 0.1803 0.0
H538 H 0.99399 0.20492 0.22889 0.0
H539 H 0.04703 0.25864 0.2438 0.0
H540 H 1.00544 0.39257 0.25187 0.0
H541 H 0.93676 0.34997 0.31093 0.0
H542 H 0.92224 0.21838 0.25474 0.0
C543 C 0.07588 0.3185 0.11552 0.0
C544 C 0.10701 0.36493 0.09846 0.0
C545 C 0.10434 0.40199 0.12409 0.0
C546 C 0.07154 0.39361 0.16587 0.0
C547 C 0.04088 0.34767 0.18124 0.0
C548 C 0.04237 0.31054 0.15701 0.0
C549 C 1.00304 0.26453 0.17963 0.0
C550 C 0.96944 0.23539 0.13253 0.0
C551 C 0.02271 0.23718 0.20997 0.0
C552 C 0.97961 0.28186 0.2204 0.0
C553 C 1.00245 0.33003 0.22032 0.0
C554 C 0.98752 0.35485 0.2528 0.0
C555 C 0.94833 0.33004 0.28663 0.0
C556 C 0.92419 0.28056 0.28871 0.0
C557 C 0.94001 0.25611 0.25461 0.0
H558 H 0.71811 0.08916 0.44622 0.0
H559 H 0.86288 0.12513 0.46097 0.0
H560 H 0.83907 0.05387 0.51662 0.0
H561 H 0.67981 0.04096 0.57977 0.0
H562 H 0.62422 0.99296 0.55838 0.0
H563 H 0.65151 0.04596 0.51803 0.0
H564 H 0.64772 1.00017 0.4297 0.0
H565 H 0.62006 0.94636 0.46841 0.0
H566 H 0.67288 0.96274 0.42989 0.0
H567 H 0.80006 0.98342 0.57988 0.0
H568 H 0.74776 0.91206 0.63359 0.0
H569 H 0.62742 0.91545 0.56831 0.0
C570 C 0.74462 0.08152 0.46055 0.0
C571 C 0.79243 0.11288 0.44991 0.0
C572 C 0.82621 0.10192 0.46913 0.0
C573 C 0.81294 0.06141 0.50071 0.0
C574 C 0.76562 0.03158 0.5115 0.0
C575 C 0.73181 0.04042 0.49074 0.0
C576 C 0.68329 1.00204 0.50748 0.0
C577 C 0.65824 0.02166 0.54304 0.0
C578 C 0.6543 0.97629 0.45576 0.0
C579 C 0.6952 0.97083 0.54184 0.0
C580 C 0.74295 0.98891 0.5443 0.0
C581 C 0.76261 0.96831 0.57708 0.0
C582 C 0.73274 0.92791 0.6075 0.0
C583 C 0.68377 0.90782 0.60383 0.0
C584 C 0.6648 0.92953 0.57048 0.0
H585 H 0.62754 0.70016 0.78039 0.0
H586 H 0.73616 0.84544 0.78948 0.0
H587 H 0.78069 0.82404 0.85467 0.0
H588 H 0.63115 0.6744 0.92533 0.0
H589 H 0.61893 0.61584 0.91081 0.0
H590 H 0.5978 0.64389 0.86441 0.0
H591 H 0.63883 0.62751 0.78275 0.0
H592 H 0.66199 0.60139 0.82926 0.0
H593 H 0.70087 0.64966 0.78555 0.0
H594 H 0.8146 0.78505 0.91633 0.0
H595 H 0.83107 0.7335 0.9758 0.0
H596 H 0.69667 0.61574 0.93141 0.0
C597 C 0.66087 0.72754 0.79573 0.0
C598 C 0.67871 0.77445 0.77942 0.0
C599 C 0.72198 0.80928 0.80132 0.0
C600 C 0.74751 0.7974 0.8382 0.0
C601 C 0.7289 0.75068 0.8533 0.0
C602 C 0.68625 0.71645 0.83317 0.0
C603 C 0.67278 0.66913 0.8573 0.0
C604 C 0.6275 0.64972 0.89154 0.0
C605 C 0.66841 0.63493 0.81095 0.0
C606 C 0.71454 0.68189 0.89431 0.0
C607 C 0.74696 0.72893 0.89084 0.0
C608 C 0.78926 0.74828 0.91967 0.0
C609 C 0.79845 0.71884 0.95307 0.0
C610 C 0.76506 0.67095 0.95819 0.0
C611 C 0.7226 0.65242 0.92855 0.0
H612 H 0.10231 0.71895 0.23026 0.0
H613 H 0.09432 0.82819 0.32021 0.0
H614 H 0.0207 0.80808 0.27014 0.0
H615 H 0.05583 0.72721 0.09864 0.0
H616 H 0.02492 0.66476 0.08991 0.0
H617 H 0.07707 0.69218 0.13108 0.0
H618 H 0.02853 0.63598 0.21281 0.0
H619 H 0.97714 0.61126 0.16952 0.0
H620 H 0.97658 0.63567 0.23656 0.0
H621 H 0.94958 0.77741 0.20562 0.0
H622 H 0.88207 0.73291 0.14293 0.0
H623 H 0.93263 0.63821 0.10364 0.0
C624 C 0.08491 0.73847 0.23946 0.0
C625 C 0.10391 0.77531 0.27854 0.0
C626 C 0.0801 0.79985 0.29027 0.0
C627 C 0.03849 0.78874 0.26189 0.0
C628 C 0.02076 0.75225 0.22308 0.0
C629 C 0.04271 0.72676 0.21306 0.0
C630 C 0.01557 0.68766 0.17182 0.0
C631 C 0.04514 0.69343 0.11974 0.0
C632 C 0.99847 0.63983 0.19936 0.0
C633 C 0.97521 0.69561 0.15878 0.0
C634 C 0.979 0.73326 0.18848 0.0
C635 C 0.94597 0.74747 0.18298 0.0
C636 C 0.90748 0.72177 0.14767 0.0
C637 C 0.9018 0.6819 0.11897 0.0
C638 C 0.93653 0.66913 0.12414 0.0
H639 H 0.36894 0.04655 0.64538 0.0
H640 H 0.32065 0.1342 0.57014 0.0
H641 H 0.2817 0.07552 0.49572 0.0
H642 H 0.39335 0.00625 0.51982 0.0
H643 H 0.37307 0.94783 0.54466 0.0
H644 H 0.39582 0.99578 0.5933 0.0
H645 H 0.31915 0.95423 0.65022 0.0
H646 H 0.29611 0.90587 0.60242 0.0
H647 H 0.26416 0.93578 0.61619 0.0
H648 H 0.24799 0.0068 0.42889 0.0
H649 H 0.22173 0.93333 0.37655 0.0
H650 H 0.29376 0.89218 0.49454 0.0
C651 C 0.34975 0.05333 0.6138 0.0
C652 C 0.34758 0.09498 0.61413 0.0
C653 C 0.32251 0.10246 0.57126 0.0
C654 C 0.30036 0.06937 0.52865 0.0
C655 C 0.30342 0.02885 0.52952 0.0
C656 C 0.32726 0.02061 0.5712 0.0
C657 C 0.32556 0.97442 0.56243 0.0
C658 C 0.37488 0.98152 0.55457 0.0
C659 C 0.29967 0.94056 0.61066 0.0
C660 C 0.29753 0.95821 0.50899 0.0
C661 C 0.28488 0.98994 0.49069 0.0
C662 C 0.25804 0.98194 0.44269 0.0
C663 C 0.24367 0.94038 0.41286 0.0
C664 C 0.25655 0.90765 0.43076 0.0
C665 C 0.28362 0.91674 0.47965 0.0
H666 H 0.13135 0.40375 0.65637 0.0
H667 H 0.16679 0.54582 0.61878 0.0
H668 H 0.17585 0.5325 0.51897 0.0
H669 H 0.21197 0.39843 0.56364 0.0
H670 H 0.17358 0.33851 0.54406 0.0
H671 H 0.16776 0.35905 0.61156 0.0
H672 H 0.08125 0.33064 0.59093 0.0
H673 H 0.08628 0.31077 0.52262 0.0
H674 H 0.06552 0.35165 0.5302 0.0
H675 H 0.18972 0.50552 0.42444 0.0
H676 H 0.20429 0.46746 0.34489 0.0
H677 H 0.1501 0.33995 0.44235 0.0
C678 C 0.14085 0.43201 0.62708 0.0
C679 C 0.14842 0.47585 0.64542 0.0
C680 C 0.16041 0.51181 0.60564 0.0
C681 C 0.16578 0.5046 0.54885 0.0
C682 C 0.15845 0.46104 0.53223 0.0
C683 C 0.1458 0.42525 0.57023 0.0
C684 C 0.14086 0.38203 0.54215 0.0
C685 C 0.17562 0.36875 0.56682 0.0
C686 C 0.09047 0.34136 0.54665 0.0
C687 C 0.15357 0.39927 0.48254 0.0
C688 C 0.16395 0.44499 0.4776 0.0
C689 C 0.18083 0.46947 0.42765 0.0
C690 C 0.18863 0.44719 0.3822 0.0
C691 C 0.17897 0.40041 0.38645 0.0
C692 C 0.15935 0.376 0.4371 0.0
H693 H 0.75216 0.15165 0.94966 0.0
H694 H 0.79412 0.27442 0.05235 0.0
H695 H 0.82927 0.32458 0.96969 0.0
H696 H 0.85409 0.19943 0.86656 0.0
H697 H 0.82426 0.17097 0.80297 0.0
H698 H 0.80006 0.14463 0.86948 0.0
H699 H 0.72258 0.14206 0.84447 0.0
H700 H 0.7465 0.16827 0.77774 0.0
H701 H 0.72366 0.19501 0.82409 0.0
H702 H 0.86245 0.36148 0.87651 0.0
H703 H 0.89147 0.38223 0.7796 0.0
H704 H 0.82777 0.23532 0.73807 0.0
C705 C 0.76792 0.18904 0.95454 0.0
C706 C 0.77029 0.20914 1.00742 0.0
C707 C 0.79218 0.2583 1.0123 0.0
C708 C 0.81197 0.28706 0.96554 0.0
C709 C 0.80946 0.26614 0.91415 0.0
C710 C 0.7879 0.21825 0.90833 0.0
C711 C 0.79174 0.20462 0.84898 0.0
C712 C 0.81918 0.17837 0.84691 0.0
C713 C 0.74323 0.17579 0.82225 0.0
C714 C 0.81899 0.25233 0.82236 0.0
C715 C 0.82881 0.28736 0.86061 0.0
C716 C 0.85483 0.33434 0.84614 0.0
C717 C 0.87139 0.34579 0.79115 0.0
C718 C 0.86184 0.31041 0.75131 0.0
C719 C 0.83505 0.26312 0.76733 0.0
H720 H 0.57205 0.81626 0.33461 0.0
H721 H 0.53086 0.67295 0.29567 0.0
H722 H 0.55673 0.69526 0.19788 0.0
H723 H 0.53234 0.83998 0.20872 0.0
H724 H 0.57963 0.89916 0.20178 0.0
H725 H 0.56244 0.87318 0.26994 0.0
H726 H 0.64685 0.89057 0.28978 0.0
H727 H 0.6641 0.91803 0.22224 0.0
H728 H 0.67504 0.87152 0.24046 0.0
H729 H 0.58433 0.73269 0.10321 0.0
H730 H 0.61214 0.78235 0.01918 0.0
H731 H 0.63019 0.90047 0.11805 0.0
C732 C 0.56956 0.78996 0.30564 0.0
C733 C 0.55017 0.74301 0.32265 0.0
C734 C 0.54616 0.70916 0.2834 0.0
C735 C 0.56065 0.72151 0.22782 0.0
C736 C 0.57878 0.76788 0.21188 0.0
C737 C 0.5834 0.80165 0.24963 0.0
C738 C 0.6019 0.8485 0.22093 0.0
C739 C 0.56698 0.86621 0.22562 0.0
C740 C 0.64983 0.88428 0.24475 0.0
C741 C 0.6061 0.83555 0.16114 0.0
C742 C 0.59313 0.78904 0.15692 0.0
C743 C 0.59447 0.76918 0.10599 0.0
C744 C 0.60988 0.79766 0.0582 0.0
C745 C 0.62343 0.8456 0.06126 0.0
C746 C 0.62093 0.86431 0.11378 0.0
H747 H 0.75506 0.47032 0.64465 0.0
H748 H 0.80441 0.61596 0.68328 0.0
H749 H 0.77736 0.62572 0.591 0.0
H750 H 0.79404 0.49141 0.50162 0.0
H751 H 0.74553 0.4378 0.47626 0.0
H752 H 0.76605 0.44118 0.54672 0.0
H753 H 0.68308 0.41618 0.5867 0.0
H754 H 0.66338 0.40971 0.51543 0.0
H755 H 0.65378 0.44657 0.56232 0.0
H756 H 0.7465 0.61994 0.49196 0.0
H757 H 0.7115 0.59763 0.39738 0.0
H758 H 0.68647 0.45738 0.42329 0.0
C759 C 0.76074 0.50451 0.63391 0.0
C760 C 0.78208 0.54231 0.67195 0.0
C761 C 0.78754 0.58605 0.65582 0.0
C762 C 0.77271 0.59215 0.60305 0.0
C763 C 0.75289 0.55438 0.56636 0.0
C764 C 0.74692 0.51141 0.58119 0.0
C765 C 0.72584 0.47665 0.53376 0.0
C766 C 0.75991 0.46085 0.5134 0.0
C767 C 0.67871 0.43476 0.55066 0.0
C768 C 0.71968 0.50635 0.49043 0.0
C769 C 0.73586 0.55124 0.50964 0.0
C770 C 0.73371 0.58485 0.47661 0.0
C771 C 0.71393 0.57197 0.42298 0.0
C772 C 0.69605 0.52576 0.40332 0.0
C773 C 0.69943 0.49283 0.4375 0.0
H774 H 0.1506 0.79292 0.75868 0.0
H775 H 0.26713 0.80705 0.6605 0.0
H776 H 0.30819 0.80802 0.74758 0.0
H777 H 0.2164 0.86713 0.87122 0.0
H778 H 0.17596 0.8318 0.92497 0.0
H779 H 0.15526 0.8311 0.85522 0.0
H780 H 0.11892 0.74139 0.85075 0.0
H781 H 0.13895 0.74168 0.92077 0.0
H782 H 0.15499 0.71596 0.8648 0.0
H783 H 0.33818 0.81219 0.84589 0.0
H784 H 0.35247 0.81183 0.94657 0.0
H785 H 0.21402 0.78991 0.98166 0.0
C786 C 0.18459 0.79573 0.7556 0.0
C787 C 0.2057 0.79971 0.70281 0.0
C788 C 0.25015 0.80336 0.7004 0.0
C789 C 0.2738 0.80429 0.74967 0.0
C790 C 0.25224 0.8009 0.80106 0.0
C791 C 0.20832 0.79599 0.80431 0.0
C792 C 0.19267 0.79245 0.86472 0.0
C793 C 0.18461 0.83305 0.87991 0.0
C794 C 0.14879 0.74505 0.87591 0.0
C795 C 0.2348 0.7965 0.89512 0.0
C796 C 0.26886 0.80171 0.85756 0.0
C797 C 0.31138 0.80732 0.87553 0.0
C798 C 0.31899 0.8067 0.93315 0.0
C799 C 0.28411 0.79987 0.97284 0.0
C800 C 0.2416 0.79527 0.95302 0.0
H801 H 0.44324 0.30463 0.29526 0.0
H802 H 0.40577 0.16888 0.36288 0.0
H803 H 0.43109 0.14892 0.27463 0.0
H804 H 0.40396 0.26814 0.15816 0.0
H805 H 0.45084 0.31857 0.12469 0.0
H806 H 0.43304 0.32328 0.19432 0.0
H807 H 0.5175 0.35517 0.22954 0.0
H808 H 0.53585 0.35078 0.16003 0.0
H809 H 0.54659 0.32219 0.21742 0.0
H810 H 0.45312 0.14131 0.17496 0.0
H811 H 0.47722 0.14932 0.07567 0.0
H812 H 0.50313 0.29127 0.07488 0.0
C813 C 0.44101 0.27095 0.29174 0.0
C814 C 0.42259 0.23825 0.33589 0.0
C815 C 0.42026 0.19458 0.32982 0.0
C816 C 0.43429 0.18289 0.27973 0.0
C817 C 0.4512 0.21555 0.23646 0.0
C818 C 0.45532 0.259 0.24238 0.0
C819 C 0.47373 0.28756 0.18936 0.0
C820 C 0.43827 0.3001 0.16523 0.0
C821 C 0.52126 0.33152 0.19971 0.0
C822 C 0.47857 0.25314 0.15222 0.0
C823 C 0.46519 0.2117 0.17999 0.0
C824 C 0.46428 0.17383 0.15314 0.0
C825 C 0.47773 0.17856 0.09672 0.0
C826 C 0.49232 0.22097 0.06786 0.0
C827 C 0.49281 0.25869 0.09622 0.0
H828 H 0.27453 0.56111 0.11809 0.0
H829 H 0.13681 0.50342 0.04545 0.0
H830 H 0.12224 0.5571 0.10222 0.0
H831 H 0.2429 0.57637 0.25737 0.0
H832 H 0.2964 0.63041 0.26918 0.0
H833 H 0.29573 0.58742 0.22234 0.0
H834 H 0.33034 0.64932 0.14558 0.0
H835 H 0.3291 0.6932 0.18901 0.0
H836 H 0.2992 0.67786 0.12249 0.0
H837 H 0.11938 0.61049 0.17554 0.0
H838 H 0.13373 0.6704 0.24638 0.0
H839 H 0.27611 0.69941 0.26545 0.0
C840 C 0.24143 0.55992 0.11405 0.0
C841 C 0.20684 0.52818 0.07706 0.0
C842 C 0.16425 0.52824 0.07222 0.0
C843 C 0.15537 0.55808 0.10514 0.0
C844 C 0.18973 0.5881 0.14229 0.0
C845 C 0.23224 0.58985 0.14622 0.0
C846 C 0.26378 0.62634 0.18823 0.0
C847 C 0.27537 0.60377 0.23717 0.0
C848 C 0.3083 0.66401 0.15969 0.0
C849 C 0.23251 0.64519 0.20701 0.0
C850 C 0.18945 0.62162 0.18114 0.0
C851 C 0.15334 0.62998 0.19499 0.0
C852 C 0.16179 0.66407 0.23534 0.0
C853 C 0.20637 0.69041 0.2602 0.0
C854 C 0.24205 0.68054 0.24604 0.0
H855 H 0.7247 0.24044 0.51531 0.0
H856 H 0.6438 0.12228 0.40609 0.0
H857 H 0.57246 0.10391 0.45928 0.0
H858 H 0.66036 0.18445 0.64391 0.0
H859 H 0.66582 0.238 0.67019 0.0
H860 H 0.71044 0.23959 0.62545 0.0
H861 H 0.70046 0.29502 0.55771 0.0
H862 H 0.65577 0.29353 0.602 0.0
H863 H 0.64355 0.27755 0.52943 0.0
H864 H 0.50875 0.10515 0.51773 0.0
H865 H 0.45933 0.12221 0.58018 0.0
H866 H 0.58309 0.23544 0.65578 0.0
C867 C 0.6921 0.21042 0.50256 0.0
C868 C 0.68976 0.18342 0.45544 0.0
C869 C 0.64644 0.14402 0.44116 0.0
C870 C 0.60576 0.1332 0.47143 0.0
C871 C 0.60926 0.16145 0.51671 0.0
C872 C 0.65156 0.19881 0.53273 0.0
C873 C 0.64615 0.22457 0.58196 0.0
C874 C 0.67224 0.22144 0.63342 0.0
C875 C 0.66244 0.27567 0.56684 0.0
C876 C 0.59385 0.19678 0.59031 0.0
C877 C 0.57311 0.1605 0.55222 0.0
C878 C 0.52473 0.13275 0.54843 0.0
C879 C 0.49697 0.14273 0.58385 0.0
C880 C 0.51765 0.17957 0.62307 0.0
C881 C 0.56663 0.20632 0.62705 0.0
H882 H 0.29996 0.5097 0.86617 0.0
H883 H 0.37025 0.54185 0.02645 0.0
H884 H 0.44115 0.60494 0.98295 0.0
H885 H 0.40022 0.53484 0.77953 0.0
H886 H 0.38468 0.56162 0.72446 0.0
H887 H 0.33977 0.51683 0.76716 0.0
H888 H 0.30886 0.5725 0.7931 0.0
H889 H 0.35335 0.6173 0.7501 0.0
H890 H 0.34834 0.62889 0.82261 0.0
H891 H 0.50453 0.66349 0.92258 0.0
H892 H 0.55434 0.72065 0.85246 0.0
H893 H 0.44284 0.65616 0.73008 0.0
C894 C 0.33034 0.52983 0.89216 0.0
C895 C 0.32959 0.51998 0.95006 0.0
C896 C 0.36991 0.54793 0.98234 0.0
C897 C 0.41048 0.58394 0.95778 0.0
C898 C 0.41016 0.59227 0.90072 0.0
C899 C 0.37101 0.56654 0.86834 0.0
C900 C 0.37939 0.58469 0.80853 0.0
C901 C 0.37579 0.54725 0.7675 0.0
C902 C 0.34547 0.60187 0.79267 0.0
C903 C 0.42932 0.62495 0.81255 0.0
C904 C 0.44637 0.62793 0.86607 0.0
C905 C 0.4914 0.66176 0.88074 0.0
C906 C 0.51942 0.69424 0.84034 0.0
C907 C 0.50253 0.69349 0.78558 0.0
C908 C 0.45696 0.65767 0.7713 0.0
H909 H 0.80922 0.31285 0.22197 0.0
H910 H 0.77208 0.34629 0.38276 0.0
H911 H 0.76624 0.41047 0.33928 0.0
H912 H 0.87906 0.43 0.17358 0.0
H913 H 0.85962 0.41734 0.10209 0.0
H914 H 0.86005 0.37287 0.14494 0.0
H915 H 0.77209 0.31764 0.12487 0.0
H916 H 0.77204 0.36196 0.08122 0.0
H917 H 0.73129 0.33756 0.13836 0.0
H918 H 0.768 0.47276 0.28109 0.0
H919 H 0.77468 0.52912 0.21035 0.0
H920 H 0.80674 0.45483 0.08421 0.0
C921 C 0.79951 0.33344 0.24796 0.0
C922 C 0.79167 0.32477 0.30611 0.0
C923 C 0.7791 0.35263 0.33849 0.0
C924 C 0.77539 0.38906 0.31408 0.0
C925 C 0.78391 0.39702 0.25705 0.0
C926 C 0.79541 0.36997 0.22412 0.0
C927 C 0.8032 0.38667 0.16379 0.0
C928 C 0.85348 0.40267 0.14502 0.0
C929 C 0.76752 0.3487 0.12475 0.0
C930 C 0.79469 0.42761 0.16832 0.0
C931 C 0.78369 0.43274 0.22263 0.0
C932 C 0.77608 0.46882 0.2383 0.0
C933 C 0.77989 0.5007 0.19753 0.0
C934 C 0.79067 0.49626 0.14127 0.0
C935 C 0.79794 0.45894 0.12653 0.0
H936 H 0.32135 0.7445 0.43643 0.0
H937 H 0.36667 0.89129 0.42189 0.0
H938 H 0.43442 0.91023 0.48324 0.0
H939 H 0.34849 0.75763 0.58945 0.0
H940 H 0.3596 0.70961 0.5877 0.0
H941 H 0.31789 0.71087 0.54062 0.0
H942 H 0.36437 0.70206 0.4568 0.0
H943 H 0.40517 0.70186 0.50613 0.0
H944 H 0.42571 0.74402 0.44998 0.0
H945 H 0.49608 0.91145 0.55036 0.0
H946 H 0.5451 0.89555 0.61437 0.0
H947 H 0.4528 0.74683 0.59153 0.0
C948 C 0.34505 0.78052 0.44676 0.0
C949 C 0.33913 0.81642 0.42399 0.0
C950 C 0.37163 0.86335 0.43743 0.0
C951 C 0.40971 0.87431 0.47294 0.0
C952 C 0.41368 0.83774 0.49621 0.0
C953 C 0.38156 0.79178 0.48429 0.0
C954 C 0.39084 0.75871 0.51814 0.0
C955 C 0.35191 0.73264 0.56148 0.0
C956 C 0.39695 0.72468 0.48038 0.0
C957 C 0.43573 0.79282 0.547 0.0
C958 C 0.44773 0.83838 0.53535 0.0
C959 C 0.48687 0.87586 0.55956 0.0
C960 C 0.51443 0.86643 0.59611 0.0
C961 C 0.50298 0.81988 0.6079 0.0
C962 C 0.4629 0.78279 0.58301 0.0
H963 H 0.69885 0.48984 0.89472 0.0
H964 H 0.6299 0.44613 0.05585 0.0
H965 H 0.56093 0.38159 1.00947 0.0
H966 H 0.59793 0.4624 0.81119 0.0
H967 H 0.61716 0.44142 0.7533 0.0
H968 H 0.65943 0.48572 0.79879 0.0
H969 H 0.69657 0.43429 0.81827 0.0
H970 H 0.65464 0.39003 0.77251 0.0
H971 H 0.66036 0.37561 0.84358 0.0
H972 H 0.49839 0.32246 0.9437 0.0
H973 H 0.45319 0.26772 0.86721 0.0
H974 H 0.56671 0.34728 0.7523 0.0
C975 C 0.66932 0.46703 0.92062 0.0
C976 C 0.66979 0.47369 0.97909 0.0
C977 C 0.63035 0.44224 1.01097 0.0
C978 C 0.59092 0.40554 0.98495 0.0
C979 C 0.59169 0.40043 0.92712 0.0
C980 C 0.63028 0.42994 0.8956 0.0
C981 C 0.62399 0.41544 0.83479 0.0
C982 C 0.62466 0.45352 0.79734 0.0
C983 C 0.66108 0.40309 0.81623 0.0
C984 C 0.57586 0.37274 0.83688 0.0
C985 C 0.55725 0.36519 0.8902 0.0
C986 C 0.51277 0.32805 0.90194 0.0
C987 C 0.4874 0.29718 0.85844 0.0
C988 C 0.50685 0.30354 0.80435 0.0
C989 C 0.55125 0.34197 0.79335 0.0
loop_
_geom_bond_atom_site_label_1
_geom_bond_atom_site_label_2
_geom_bond_distance
_geom_bond_site_symmetry_2
_ccdc_geom_bond_type
Tb0 N29 2.617 . S
Tb0 N35 2.572 . S
Tb0 O44 2.465 . S
Tb0 O45 2.387 1_556 S
Tb0 O47 2.428 . S
Tb0 O48 2.308 . S
Tb0 O52 2.349 . S
Tb0 O55 2.393 1_556 S
Tb0 C64 2.802 . S
C1 N2 1.379 . S
C1 C4 1.416 . S
C1 C8 1.424 . S
N2 C1 1.379 . S
N2 C5 1.334 . S
N2 Tb11 2.617 . S
C3 C5 1.390 . S
C3 C6 1.339 . S
C3 H23 0.930 . S
C4 C1 1.416 . S
C4 C6 1.416 . S
C4 C10 1.448 . S
C5 N2 1.334 . S
C5 C3 1.390 . S
C5 H16 0.930 . S
C6 C3 1.339 . S
C6 C4 1.416 . S
C6 H27 0.930 . S
C7 C8 1.413 . S
C7 C9 1.427 . S
C7 C13 1.416 . S
C8 C1 1.424 . S
C8 C7 1.413 . S
C8 N12 1.361 . S
C9 C7 1.427 . S
C9 C10 1.328 . S
C9 H24 0.929 . S
C10 C4 1.448 . S
C10 C9 1.328 . S
C10 H25 0.930 . S
Tb11 N2 2.617 . S
Tb11 N12 2.572 . S
Tb11 O46 2.349 . S
Tb11 O49 2.393 . S
Tb11 O50 2.465 . S
Tb11 O51 2.387 1_554 S
Tb11 O53 2.428 . S
Tb11 O54 2.308 . S
Tb11 C75 2.802 . S
N12 C8 1.361 . S
N12 Tb11 2.572 . S
N12 C14 1.340 . S
C13 C7 1.416 . S
C13 C15 1.332 . S
C13 H21 0.931 . S
C14 N12 1.340 . S
C14 C15 1.407 . S
C14 H20 0.930 . S
C15 C13 1.332 . S
C15 C14 1.407 . S
C15 H17 0.929 . S
H16 C5 0.930 . S
H17 C15 0.929 . S
H18 C33 0.930 . S
H19 C40 0.929 . S
H20 C14 0.930 . S
H21 C13 0.931 . S
H22 C36 0.930 . S
H23 C3 0.930 . S
H24 C9 0.929 . S
H25 C10 0.930 . S
H26 C31 0.930 . S
H27 C6 0.930 . S
H28 C39 0.931 1_655 S
N29 Tb0 2.617 . S
N29 C30 1.379 . S
N29 C33 1.334 . S
C30 N29 1.379 . S
C30 C32 1.418 1_455 S
C30 C38 1.424 . S
C31 H26 0.930 . S
C31 C33 1.390 . S
C31 C34 1.344 . S
C32 C30 1.418 1_655 S
C32 C34 1.419 1_655 S
C32 C65 1.447 . S
C33 H18 0.930 . S
C33 N29 1.334 . S
C33 C31 1.390 . S
C34 C31 1.344 . S
C34 C32 1.419 1_455 S
C34 H41 0.921 1_455 S
N35 Tb0 2.572 . S
N35 C36 1.340 . S
N35 C38 1.361 . S
C36 H22 0.930 . S
C36 N35 1.340 . S
C36 C40 1.407 . S
C37 C38 1.422 . S
C37 C39 1.426 . S
C37 C66 1.409 1_455 S
C38 C30 1.424 . S
C38 N35 1.361 . S
C38 C37 1.422 . S
C39 H28 0.931 1_455 S
C39 C37 1.426 . S
C39 C40 1.332 . S
C40 H19 0.929 . S
C40 C36 1.407 . S
C40 C39 1.332 . S
H41 C34 0.921 1_655 S
H42 C65 0.930 . S
H43 C66 0.929 . S
O44 Tb0 2.465 . S
O44 C64 1.264 . S
O45 Tb0 2.387 1_554 S
O45 C56 1.264 . S
O46 Tb11 2.349 . S
O46 C56 1.243 . S
O47 Tb0 2.428 . S
O47 C64 1.256 . S
O48 Tb0 2.308 . S
O48 C63 1.266 . S
O49 Tb11 2.393 . S
O49 C63 1.248 1_554 S
O50 Tb11 2.465 . S
O50 C75 1.264 . S
O51 Tb11 2.387 1_556 S
O51 C67 1.264 . S
O52 Tb0 2.349 . S
O52 C67 1.243 . S
O53 Tb11 2.428 . S
O53 C75 1.256 . S
O54 Tb11 2.308 . S
O54 C74 1.266 . S
O55 Tb0 2.393 1_554 S
O55 C74 1.248 . S
C56 O45 1.264 . S
C56 O46 1.243 . S
C57 C60 1.399 . S
C57 C62 1.383 . S
C57 C64 1.496 . S
C58 C59 1.399 . S
C58 C62 1.389 . S
C59 C58 1.399 . S
C59 C61 1.380 . S
C59 H76 0.929 . S
C60 C57 1.399 . S
C60 C61 1.392 . S
C60 H77 0.929 . S
C61 C59 1.380 . S
C61 C60 1.392 . S
C61 H78 0.929 . S
C62 C57 1.383 . S
C62 C58 1.389 . S
C62 H79 0.931 . S
C63 O48 1.266 . S
C63 O49 1.248 1_556 S
C64 Tb0 2.802 . S
C64 O44 1.264 . S
C64 O47 1.256 . S
C64 C57 1.496 . S
C65 C32 1.447 . S
C65 H42 0.930 . S
C65 C66 1.328 . S
C66 C37 1.409 1_655 S
C66 H43 0.929 . S
C66 C65 1.328 . S
C67 O51 1.264 . S
C67 O52 1.243 . S
C68 C71 1.399 . S
C68 C72 1.383 . S
C68 C75 1.496 . S
C69 C70 1.399 . S
C69 C72 1.389 . S
C70 C69 1.399 . S
C70 C73 1.380 . S
C70 H80 0.929 . S
C71 C68 1.399 . S
C71 C73 1.392 . S
C71 H81 0.929 . S
C72 C68 1.383 . S
C72 C69 1.389 . S
C72 H82 0.931 . S
C73 C70 1.380 . S
C73 C71 1.392 . S
C73 H83 0.929 . S
C74 O54 1.266 . S
C74 O55 1.248 . S
C75 Tb11 2.802 . S
C75 O50 1.264 . S
C75 O53 1.256 . S
C75 C68 1.496 . S
H76 C59 0.929 . S
H77 C60 0.929 . S
H78 C61 0.929 . S
H79 C62 0.931 . S
H80 C70 0.929 . S
H81 C71 0.929 . S
H82 C72 0.931 . S
H83 C73 0.929 . S
Tb84 N113 2.617 . S
Tb84 N119 2.572 . S
Tb84 O128 2.465 . S
Tb84 O129 2.387 . S
Tb84 O131 2.428 . S
Tb84 O132 2.308 . S
Tb84 O136 2.349 . S
Tb84 O139 2.393 . S
Tb84 C148 2.802 . S
C85 N86 1.379 . S
C85 C88 1.416 . S
C85 C92 1.424 . S
N86 C85 1.379 . S
N86 C89 1.334 . S
N86 Tb95 2.617 . S
C87 C89 1.390 . S
C87 C90 1.350 1_545 S
C87 H107 0.930 1_545 S
C88 C85 1.416 . S
C88 C90 1.393 1_545 S
C88 C94 1.448 . S
C89 N86 1.334 . S
C89 C87 1.390 . S
C89 H100 0.930 . S
C90 C87 1.350 1_565 S
C90 C88 1.393 1_565 S
C90 H111 0.942 . S
C91 C92 1.413 . S
C91 C93 1.427 . S
C91 C97 1.416 . S
C92 C85 1.424 . S
C92 C91 1.413 . S
C92 N96 1.361 . S
C93 C91 1.427 . S
C93 C94 1.328 . S
C93 H108 0.929 . S
C94 C88 1.448 . S
C94 C93 1.328 . S
C94 H109 0.930 . S
Tb95 N86 2.617 . S
Tb95 N96 2.572 . S
Tb95 O130 2.349 . S
Tb95 O133 2.393 . S
Tb95 O134 2.465 . S
Tb95 O135 2.387 . S
Tb95 O137 2.428 . S
Tb95 O138 2.308 . S
Tb95 C159 2.802 . S
N96 C92 1.361 . S
N96 Tb95 2.572 . S
N96 C98 1.340 . S
C97 C91 1.416 . S
C97 C99 1.332 . S
C97 H105 0.931 . S
C98 N96 1.340 . S
C98 C99 1.407 . S
C98 H104 0.930 . S
C99 C97 1.332 . S
C99 C98 1.407 . S
C99 H101 0.929 . S
H100 C89 0.930 . S
H101 C99 0.929 . S
H102 C117 0.930 . S
H103 C124 0.929 . S
H104 C98 0.930 . S
H105 C97 0.931 . S
H106 C120 0.930 . S
H107 C87 0.930 1_565 S
H108 C93 0.929 . S
H109 C94 0.930 . S
H110 C115 0.930 . S
H111 C90 0.942 . S
H112 C123 0.931 1_455 S
N113 Tb84 2.617 . S
N113 C114 1.379 . S
N113 C117 1.334 . S
C114 N113 1.379 . S
C114 C116 1.417 1_655 S
C114 C122 1.424 . S
C115 H110 0.930 . S
C115 C117 1.390 . S
C115 C118 1.348 . S
C116 C114 1.417 1_455 S
C116 C118 1.413 1_455 S
C116 C149 1.446 . S
C117 H102 0.930 . S
C117 N113 1.334 . S
C117 C115 1.390 . S
C118 C115 1.348 . S
C118 C116 1.413 1_655 S
C118 H125 0.925 1_655 S
N119 Tb84 2.572 . S
N119 C120 1.340 . S
N119 C122 1.361 . S
C120 H106 0.930 . S
C120 N119 1.340 . S
C120 C124 1.407 . S
C121 C122 1.431 . S
C121 C123 1.408 . S
C121 C150 1.418 1_655 S
C122 C114 1.424 . S
C122 N119 1.361 . S
C122 C121 1.431 . S
C123 H112 0.931 1_655 S
C123 C121 1.408 . S
C123 C124 1.332 . S
C124 H103 0.929 . S
C124 C120 1.407 . S
C124 C123 1.332 . S
H125 C118 0.925 1_455 S
H126 C149 0.930 . S
H127 C150 0.929 . S
O128 Tb84 2.465 . S
O128 C148 1.264 . S
O129 Tb84 2.387 . S
O129 C140 1.264 . S
O130 Tb95 2.349 . S
O130 C140 1.243 . S
O131 Tb84 2.428 . S
O131 C148 1.256 . S
O132 Tb84 2.308 . S
O132 C147 1.266 . S
O133 Tb95 2.393 . S
O133 C147 1.248 . S
O134 Tb95 2.465 . S
O134 C159 1.264 . S
O135 Tb95 2.387 . S
O135 C151 1.264 . S
O136 Tb84 2.349 . S
O136 C151 1.243 . S
O137 Tb95 2.428 . S
O137 C159 1.256 . S
O138 Tb95 2.308 . S
O138 C158 1.266 . S
O139 Tb84 2.393 . S
O139 C158 1.248 . S
C140 O129 1.264 . S
C140 O130 1.243 . S
C141 C144 1.399 . S
C141 C146 1.383 . S
C141 C148 1.496 . S
C142 C143 1.399 . S
C142 C146 1.389 . S
C143 C142 1.399 . S
C143 C145 1.380 . S
C143 H160 0.929 . S
C144 C141 1.399 . S
C144 C145 1.392 . S
C144 H161 0.929 . S
C145 C143 1.380 . S
C145 C144 1.392 . S
C145 H162 0.929 . S
C146 C141 1.383 . S
C146 C142 1.389 . S
C146 H163 0.931 . S
C147 O132 1.266 . S
C147 O133 1.248 . S
C148 Tb84 2.802 . S
C148 O128 1.264 . S
C148 O131 1.256 . S
C148 C141 1.496 . S
C149 C116 1.446 . S
C149 H126 0.930 . S
C149 C150 1.328 . S
C150 C121 1.418 1_455 S
C150 H127 0.929 . S
C150 C149 1.328 . S
C151 O135 1.264 . S
C151 O136 1.243 . S
C152 C155 1.399 . S
C152 C156 1.383 . S
C152 C159 1.496 . S
C153 C154 1.399 . S
C153 C156 1.389 . S
C154 C153 1.399 . S
C154 C157 1.380 . S
C154 H164 0.929 1_554 S
C155 C152 1.399 . S
C155 C157 1.392 . S
C155 H165 0.929 . S
C156 C152 1.383 . S
C156 C153 1.389 . S
C156 H166 0.931 . S
C157 C154 1.380 . S
C157 C155 1.392 . S
C157 H167 0.929 . S
C158 O138 1.266 . S
C158 O139 1.248 . S
C159 Tb95 2.802 . S
C159 O134 1.264 . S
C159 O137 1.256 . S
C159 C152 1.496 . S
H160 C143 0.929 . S
H161 C144 0.929 . S
H162 C145 0.929 . S
H163 C146 0.931 . S
H164 C154 0.929 1_556 S
H165 C155 0.929 . S
H166 C156 0.931 . S
H167 C157 0.929 . S
Tb168 N197 2.617 . S
Tb168 N203 2.572 . S
Tb168 O212 2.465 . S
Tb168 O213 2.387 . S
Tb168 O215 2.428 . S
Tb168 O216 2.308 . S
Tb168 O220 2.349 . S
Tb168 O223 2.393 . S
Tb168 C232 2.802 . S
C169 N170 1.379 . S
C169 C172 1.416 . S
C169 C176 1.424 . S
N170 C169 1.379 . S
N170 C173 1.334 . S
N170 Tb179 2.617 . S
C171 C173 1.390 . S
C171 C174 1.326 1_565 S
C171 H191 0.930 1_565 S
C172 C169 1.416 . S
C172 C174 1.405 1_565 S
C172 C178 1.448 . S
C173 N170 1.334 . S
C173 C171 1.390 . S
C173 H184 0.930 . S
C174 C171 1.326 1_545 S
C174 C172 1.405 1_545 S
C174 H195 0.954 . S
C175 C176 1.413 . S
C175 C177 1.427 . S
C175 C181 1.416 . S
C176 C169 1.424 . S
C176 C175 1.413 . S
C176 N180 1.361 . S
C177 C175 1.427 . S
C177 C178 1.328 . S
C177 H192 0.929 . S
C178 C172 1.448 . S
C178 C177 1.328 . S
C178 H193 0.930 . S
Tb179 N170 2.617 . S
Tb179 N180 2.572 . S
Tb179 O214 2.349 . S
Tb179 O217 2.393 . S
Tb179 O218 2.465 . S
Tb179 O219 2.387 . S
Tb179 O221 2.428 . S
Tb179 O222 2.308 . S
Tb179 C243 2.802 . S
N180 C176 1.361 . S
N180 Tb179 2.572 . S
N180 C182 1.340 . S
C181 C175 1.416 . S
C181 C183 1.332 . S
C181 H189 0.931 . S
C182 N180 1.340 . S
C182 C183 1.407 . S
C182 H188 0.930 . S
C183 C181 1.332 . S
C183 C182 1.407 . S
C183 H185 0.929 . S
H184 C173 0.930 . S
H185 C183 0.929 . S
H186 C201 0.930 . S
H187 C208 0.929 . S
H188 C182 0.930 . S
H189 C181 0.931 . S
H190 C204 0.930 . S
H191 C171 0.930 1_545 S
H192 C177 0.929 . S
H193 C178 0.930 . S
H194 C199 0.930 . S
H195 C174 0.954 . S
H196 C207 0.931 . S
N197 Tb168 2.617 . S
N197 C198 1.379 . S
N197 C201 1.334 . S
C198 N197 1.379 . S
C198 C200 1.416 . S
C198 C206 1.424 . S
C199 H194 0.930 . S
C199 C201 1.390 . S
C199 C202 1.339 . S
C200 C198 1.416 . S
C200 C202 1.416 . S
C200 C233 1.448 . S
C201 H186 0.930 . S
C201 N197 1.334 . S
C201 C199 1.390 . S
C202 C199 1.339 . S
C202 C200 1.416 . S
C202 H209 0.930 . S
N203 Tb168 2.572 . S
N203 C204 1.340 . S
N203 C206 1.361 . S
C204 H190 0.930 . S
C204 N203 1.340 . S
C204 C208 1.407 . S
C205 C206 1.413 . S
C205 C207 1.416 . S
C205 C234 1.427 . S
C206 C198 1.424 . S
C206 N203 1.361 . S
C206 C205 1.413 . S
C207 H196 0.931 . S
C207 C205 1.416 . S
C207 C208 1.332 . S
C208 H187 0.929 . S
C208 C204 1.407 . S
C208 C207 1.332 . S
H209 C202 0.930 . S
H210 C233 0.930 . S
H211 C234 0.929 . S
O212 Tb168 2.465 . S
O212 C232 1.264 . S
O213 Tb168 2.387 . S
O213 C224 1.264 . S
O214 Tb179 2.349 . S
O214 C224 1.243 . S
O215 Tb168 2.428 . S
O215 C232 1.256 . S
O216 Tb168 2.308 . S
O216 C231 1.266 . S
O217 Tb179 2.393 . S
O217 C231 1.248 . S
O218 Tb179 2.465 . S
O218 C243 1.264 . S
O219 Tb179 2.387 . S
O219 C235 1.264 . S
O220 Tb168 2.349 . S
O220 C235 1.243 . S
O221 Tb179 2.428 . S
O221 C243 1.256 . S
O222 Tb179 2.308 . S
O222 C242 1.266 . S
O223 Tb168 2.393 . S
O223 C242 1.248 . S
C224 O213 1.264 . S
C224 O214 1.243 . S
C225 C228 1.399 . S
C225 C230 1.383 . S
C225 C232 1.496 . S
C226 C227 1.399 . S
C226 C230 1.389 . S
C227 C226 1.399 . S
C227 C229 1.380 . S
C227 H244 0.929 . S
C228 C225 1.399 . S
C228 C229 1.392 . S
C228 H245 0.929 . S
C229 C227 1.380 . S
C229 C228 1.392 . S
C229 H246 0.929 . S
C230 C225 1.383 . S
C230 C226 1.389 . S
C230 H247 0.931 . S
C231 O216 1.266 . S
C231 O217 1.248 . S
C232 Tb168 2.802 . S
C232 O212 1.264 . S
C232 O215 1.256 . S
C232 C225 1.496 . S
C233 C200 1.448 . S
C233 H210 0.930 . S
C233 C234 1.328 . S
C234 C205 1.427 . S
C234 H211 0.929 . S
C234 C233 1.328 . S
C235 O219 1.264 . S
C235 O220 1.243 . S
C236 C239 1.399 . S
C236 C240 1.383 . S
C236 C243 1.496 . S
C237 C238 1.399 1_556 S
C237 C240 1.389 . S
C238 C237 1.399 1_554 S
C238 C241 1.380 1_554 S
C238 H248 0.929 . S
C239 C236 1.399 . S
C239 C241 1.392 . S
C239 H249 0.929 . S
C240 C236 1.383 . S
C240 C237 1.389 . S
C240 H250 0.931 . S
C241 C238 1.380 1_556 S
C241 C239 1.392 . S
C241 H251 0.929 . S
C242 O222 1.266 . S
C242 O223 1.248 . S
C243 Tb179 2.802 . S
C243 O218 1.264 . S
C243 O221 1.256 . S
C243 C236 1.496 . S
H244 C227 0.929 . S
H245 C228 0.929 . S
H246 C229 0.929 . S
H247 C230 0.931 . S
H248 C238 0.929 . S
H249 C239 0.929 . S
H250 C240 0.931 . S
H251 C241 0.929 . S
Tb252 N281 2.617 . S
Tb252 N287 2.572 . S
Tb252 O296 2.465 . S
Tb252 O297 2.387 . S
Tb252 O299 2.428 . S
Tb252 O300 2.308 . S
Tb252 O304 2.349 . S
Tb252 O307 2.393 . S
Tb252 C316 2.802 . S
C253 N254 1.379 . S
C253 C256 1.416 . S
C253 C260 1.424 . S
N254 C253 1.379 . S
N254 C257 1.334 . S
N254 Tb263 2.617 . S
C255 C257 1.390 . S
C255 C258 1.326 1_655 S
C255 H275 0.930 1_655 S
C256 C253 1.416 . S
C256 C258 1.405 1_655 S
C256 C262 1.448 . S
C257 N254 1.334 . S
C257 C255 1.390 . S
C257 H268 0.930 . S
C258 C255 1.326 1_455 S
C258 C256 1.405 1_455 S
C258 H279 0.953 . S
C259 C260 1.413 . S
C259 C261 1.427 . S
C259 C265 1.416 . S
C260 C253 1.424 . S
C260 C259 1.413 . S
C260 N264 1.361 . S
C261 C259 1.427 . S
C261 C262 1.328 . S
C261 H276 0.929 . S
C262 C256 1.448 . S
C262 C261 1.328 . S
C262 H277 0.930 . S
Tb263 N254 2.617 . S
Tb263 N264 2.572 . S
Tb263 O298 2.349 . S
Tb263 O301 2.393 1_556 S
Tb263 O302 2.465 . S
Tb263 O303 2.387 1_556 S
Tb263 O305 2.428 . S
Tb263 O306 2.308 . S
Tb263 C327 2.802 . S
N264 C260 1.361 . S
N264 Tb263 2.572 . S
N264 C266 1.340 . S
C265 C259 1.416 . S
C265 C267 1.332 . S
C265 H273 0.931 . S
C266 N264 1.340 . S
C266 C267 1.407 . S
C266 H272 0.930 . S
C267 C265 1.332 . S
C267 C266 1.407 . S
C267 H269 0.929 . S
H268 C257 0.930 . S
H269 C267 0.929 . S
H270 C285 0.930 . S
H271 C292 0.929 . S
H272 C266 0.930 . S
H273 C265 0.931 . S
H274 C288 0.930 . S
H275 C255 0.930 1_455 S
H276 C261 0.929 . S
H277 C262 0.930 . S
H278 C283 0.930 . S
H279 C258 0.953 . S
H280 C291 0.931 . S
N281 Tb252 2.617 . S
N281 C282 1.379 . S
N281 C285 1.334 . S
C282 N281 1.379 . S
C282 C284 1.416 . S
C282 C290 1.424 . S
C283 H278 0.930 . S
C283 C285 1.390 . S
C283 C286 1.339 . S
C284 C282 1.416 . S
C284 C286 1.416 . S
C284 C317 1.448 . S
C285 H270 0.930 . S
C285 N281 1.334 . S
C285 C283 1.390 . S
C286 C283 1.339 . S
C286 C284 1.416 . S
C286 H293 0.930 . S
N287 Tb252 2.572 . S
N287 C288 1.340 . S
N287 C290 1.361 . S
C288 H274 0.930 . S
C288 N287 1.340 . S
C288 C292 1.407 . S
C289 C290 1.413 . S
C289 C291 1.416 . S
C289 C318 1.427 . S
C290 C282 1.424 . S
C290 N287 1.361 . S
C290 C289 1.413 . S
C291 H280 0.931 . S
C291 C289 1.416 . S
C291 C292 1.332 . S
C292 H271 0.929 . S
C292 C288 1.407 . S
C292 C291 1.332 . S
H293 C286 0.930 . S
H294 C317 0.930 . S
H295 C318 0.929 . S
O296 Tb252 2.465 . S
O296 C316 1.264 . S
O297 Tb252 2.387 . S
O297 C308 1.264 1_554 S
O298 Tb263 2.349 . S
O298 C308 1.243 . S
O299 Tb252 2.428 . S
O299 C316 1.256 . S
O300 Tb252 2.308 . S
O300 C315 1.266 . S
O301 Tb263 2.393 1_554 S
O301 C315 1.248 . S
O302 Tb263 2.465 . S
O302 C327 1.264 . S
O303 Tb263 2.387 1_554 S
O303 C319 1.264 . S
O304 Tb252 2.349 . S
O304 C319 1.243 . S
O305 Tb263 2.428 . S
O305 C327 1.256 . S
O306 Tb263 2.308 . S
O306 C326 1.266 . S
O307 Tb252 2.393 . S
O307 C326 1.248 1_554 S
C308 O297 1.264 1_556 S
C308 O298 1.243 . S
C309 C312 1.399 . S
C309 C314 1.383 . S
C309 C316 1.496 . S
C310 C311 1.399 . S
C310 C314 1.389 . S
C311 C310 1.399 . S
C311 C313 1.380 . S
C311 H328 0.929 . S
C312 C309 1.399 . S
C312 C313 1.392 . S
C312 H329 0.929 . S
C313 C311 1.380 . S
C313 C312 1.392 . S
C313 H330 0.929 . S
C314 C309 1.383 . S
C314 C310 1.389 . S
C314 H331 0.931 . S
C315 O300 1.266 . S
C315 O301 1.248 . S
C316 Tb252 2.802 . S
C316 O296 1.264 . S
C316 O299 1.256 . S
C316 C309 1.496 . S
C317 C284 1.448 . S
C317 H294 0.930 . S
C317 C318 1.328 . S
C318 C289 1.427 . S
C318 H295 0.929 . S
C318 C317 1.328 . S
C319 O303 1.264 . S
C319 O304 1.243 . S
C320 C323 1.399 . S
C320 C324 1.383 . S
C320 C327 1.496 . S
C321 C322 1.399 . S
C321 C324 1.389 . S
C322 C321 1.399 . S
C322 C325 1.380 . S
C322 H332 0.929 . S
C323 C320 1.399 . S
C323 C325 1.392 . S
C323 H333 0.929 . S
C324 C320 1.383 . S
C324 C321 1.389 . S
C324 H334 0.931 . S
C325 C322 1.380 . S
C325 C323 1.392 . S
C325 H335 0.929 . S
C326 O306 1.266 . S
C326 O307 1.248 1_556 S
C327 Tb263 2.802 . S
C327 O302 1.264 . S
C327 O305 1.256 . S
C327 C320 1.496 . S
H328 C311 0.929 . S
H329 C312 0.929 . S
H330 C313 0.929 . S
H331 C314 0.931 . S
H332 C322 0.929 . S
H333 C323 0.929 . S
H334 C324 0.931 . S
H335 C325 0.929 . S
Tb336 N365 2.617 . S
Tb336 N371 2.572 . S
Tb336 O380 2.465 . S
Tb336 O381 2.387 . S
Tb336 O383 2.428 . S
Tb336 O384 2.308 . S
Tb336 O388 2.349 . S
Tb336 O391 2.393 . S
Tb336 C400 2.802 . S
C337 N338 1.379 . S
C337 C340 1.416 . S
C337 C344 1.424 . S
N338 C337 1.379 . S
N338 C341 1.334 . S
N338 Tb347 2.617 . S
C339 C341 1.390 . S
C339 C342 1.350 1_455 S
C339 H359 0.930 1_455 S
C340 C337 1.416 . S
C340 C342 1.394 1_455 S
C340 C346 1.448 . S
C341 N338 1.334 . S
C341 C339 1.390 . S
C341 H352 0.930 . S
C342 C339 1.350 1_655 S
C342 C340 1.394 1_655 S
C342 H363 0.941 . S
C343 C344 1.413 . S
C343 C345 1.427 . S
C343 C349 1.416 . S
C344 C337 1.424 . S
C344 C343 1.413 . S
C344 N348 1.361 . S
C345 C343 1.427 . S
C345 C346 1.328 . S
C345 H360 0.929 . S
C346 C340 1.448 . S
C346 C345 1.328 . S
C346 H361 0.930 . S
Tb347 N338 2.617 . S
Tb347 N348 2.572 . S
Tb347 O382 2.349 . S
Tb347 O385 2.393 . S
Tb347 O386 2.465 . S
Tb347 O387 2.387 . S
Tb347 O389 2.428 . S
Tb347 O390 2.308 . S
Tb347 C411 2.802 . S
N348 C344 1.361 . S
N348 Tb347 2.572 . S
N348 C350 1.340 . S
C349 C343 1.416 . S
C349 C351 1.332 . S
C349 H357 0.931 . S
C350 N348 1.340 . S
C350 C351 1.407 . S
C350 H356 0.930 . S
C351 C349 1.332 . S
C351 C350 1.407 . S
C351 H353 0.929 . S
H352 C341 0.930 . S
H353 C351 0.929 . S
H354 C369 0.930 . S
H355 C376 0.929 . S
H356 C350 0.930 . S
H357 C349 0.931 . S
H358 C372 0.930 . S
H359 C339 0.930 1_655 S
H360 C345 0.929 . S
H361 C346 0.930 . S
H362 C367 0.930 . S
H363 C342 0.941 . S
H364 C375 0.931 1_545 S
N365 Tb336 2.617 . S
N365 C366 1.379 . S
N365 C369 1.334 . S
C366 N365 1.379 . S
C366 C368 1.414 . S
C366 C374 1.424 . S
C367 H362 0.930 . S
C367 C369 1.390 . S
C367 C370 1.349 . S
C368 C366 1.414 . S
C368 C370 1.410 . S
C368 C401 1.451 1_565 S
C369 H354 0.930 . S
C369 N365 1.334 . S
C369 C367 1.390 . S
C370 C367 1.349 . S
C370 C368 1.410 . S
C370 H377 0.925 1_565 S
N371 Tb336 2.572 . S
N371 C372 1.340 . S
N371 C374 1.361 . S
C372 H358 0.930 . S
C372 N371 1.340 . S
C372 C376 1.407 . S
C373 C374 1.432 . S
C373 C375 1.408 . S
C373 C402 1.417 1_565 S
C374 C366 1.424 . S
C374 N371 1.361 . S
C374 C373 1.432 . S
C375 H364 0.931 1_565 S
C375 C373 1.408 . S
C375 C376 1.332 . S
C376 H355 0.929 . S
C376 C372 1.407 . S
C376 C375 1.332 . S
H377 C370 0.925 1_545 S
H378 C401 0.930 . S
H379 C402 0.929 . S
O380 Tb336 2.465 . S
O380 C400 1.264 . S
O381 Tb336 2.387 . S
O381 C392 1.264 . S
O382 Tb347 2.349 . S
O382 C392 1.243 . S
O383 Tb336 2.428 . S
O383 C400 1.256 . S
O384 Tb336 2.308 . S
O384 C399 1.266 . S
O385 Tb347 2.393 . S
O385 C399 1.248 . S
O386 Tb347 2.465 . S
O386 C411 1.264 . S
O387 Tb347 2.387 . S
O387 C403 1.264 . S
O388 Tb336 2.349 . S
O388 C403 1.243 . S
O389 Tb347 2.428 . S
O389 C411 1.256 . S
O390 Tb347 2.308 . S
O390 C410 1.266 . S
O391 Tb336 2.393 . S
O391 C410 1.248 . S
C392 O381 1.264 . S
C392 O382 1.243 . S
C393 C396 1.399 . S
C393 C398 1.383 . S
C393 C400 1.496 . S
C394 C395 1.399 1_554 S
C394 C398 1.389 . S
C395 C394 1.399 1_556 S
C395 C397 1.380 1_556 S
C395 H412 0.929 . S
C396 C393 1.399 . S
C396 C397 1.392 . S
C396 H413 0.929 . S
C397 C395 1.380 1_554 S
C397 C396 1.392 . S
C397 H414 0.929 . S
C398 C393 1.383 . S
C398 C394 1.389 . S
C398 H415 0.931 . S
C399 O384 1.266 . S
C399 O385 1.248 . S
C400 Tb336 2.802 . S
C400 O380 1.264 . S
C400 O383 1.256 . S
C400 C393 1.496 . S
C401 C368 1.451 1_545 S
C401 H378 0.930 . S
C401 C402 1.328 . S
C402 C373 1.417 1_545 S
C402 H379 0.929 . S
C402 C401 1.328 . S
C403 O387 1.264 . S
C403 O388 1.243 . S
C404 C407 1.399 . S
C404 C408 1.383 . S
C404 C411 1.496 . S
C405 C406 1.399 . S
C405 C408 1.389 . S
C406 C405 1.399 . S
C406 C409 1.380 . S
C406 H416 0.929 . S
C407 C404 1.399 . S
C407 C409 1.392 . S
C407 H417 0.929 . S
C408 C404 1.383 . S
C408 C405 1.389 . S
C408 H418 0.931 . S
C409 C406 1.380 . S
C409 C407 1.392 . S
C409 H419 0.929 . S
C410 O390 1.266 . S
C410 O391 1.248 . S
C411 Tb347 2.802 . S
C411 O386 1.264 . S
C411 O389 1.256 . S
C411 C404 1.496 . S
H412 C395 0.929 . S
H413 C396 0.929 . S
H414 C397 0.929 . S
H415 C398 0.931 . S
H416 C406 0.929 . S
H417 C407 0.929 . S
H418 C408 0.931 . S
H419 C409 0.929 . S
Tb420 N449 2.617 . S
Tb420 N455 2.572 . S
Tb420 O464 2.465 . S
Tb420 O465 2.387 . S
Tb420 O467 2.428 . S
Tb420 O468 2.308 . S
Tb420 O472 2.349 . S
Tb420 O475 2.393 . S
Tb420 C484 2.802 . S
C421 N422 1.379 . S
C421 C424 1.416 . S
C421 C428 1.424 . S
N422 C421 1.379 . S
N422 C425 1.334 . S
N422 Tb431 2.617 . S
C423 C425 1.390 . S
C423 C426 1.339 . S
C423 H443 0.930 . S
C424 C421 1.416 . S
C424 C426 1.416 . S
C424 C430 1.448 . S
C425 N422 1.334 . S
C425 C423 1.390 . S
C425 H436 0.930 . S
C426 C423 1.339 . S
C426 C424 1.416 . S
C426 H447 0.930 . S
C427 C428 1.413 . S
C427 C429 1.427 . S
C427 C433 1.416 . S
C428 C421 1.424 . S
C428 C427 1.413 . S
C428 N432 1.361 . S
C429 C427 1.427 . S
C429 C430 1.328 . S
C429 H444 0.929 . S
C430 C424 1.448 . S
C430 C429 1.328 . S
C430 H445 0.930 . S
Tb431 N422 2.617 . S
Tb431 N432 2.572 . S
Tb431 O466 2.349 . S
Tb431 O469 2.393 . S
Tb431 O470 2.465 . S
Tb431 O471 2.387 . S
Tb431 O473 2.428 . S
Tb431 O474 2.308 . S
Tb431 C495 2.802 . S
N432 C428 1.361 . S
N432 Tb431 2.572 . S
N432 C434 1.340 . S
C433 C427 1.416 . S
C433 C435 1.332 . S
C433 H441 0.931 . S
C434 N432 1.340 . S
C434 C435 1.407 . S
C434 H440 0.930 . S
C435 C433 1.332 . S
C435 C434 1.407 . S
C435 H437 0.929 . S
H436 C425 0.930 . S
H437 C435 0.929 . S
H438 C453 0.930 . S
H439 C460 0.929 . S
H440 C434 0.930 . S
H441 C433 0.931 . S
H442 C456 0.930 . S
H443 C423 0.930 . S
H444 C429 0.929 . S
H445 C430 0.930 . S
H446 C451 0.930 . S
H447 C426 0.930 . S
H448 C459 0.931 1_565 S
N449 Tb420 2.617 . S
N449 C450 1.379 . S
N449 C453 1.334 . S
C450 N449 1.379 . S
C450 C452 1.419 1_545 S
C450 C458 1.424 . S
C451 H446 0.930 . S
C451 C453 1.390 . S
C451 C454 1.344 . S
C452 C450 1.419 1_565 S
C452 C454 1.419 1_565 S
C452 C485 1.447 . S
C453 H438 0.930 . S
C453 N449 1.334 . S
C453 C451 1.390 . S
C454 C451 1.344 . S
C454 C452 1.419 1_545 S
C454 H461 0.920 1_545 S
N455 Tb420 2.572 . S
N455 C456 1.340 . S
N455 C458 1.361 . S
C456 H442 0.930 . S
C456 N455 1.340 . S
C456 C460 1.407 . S
C457 C458 1.422 . S
C457 C459 1.426 . S
C457 C486 1.408 1_545 S
C458 C450 1.424 . S
C458 N455 1.361 . S
C458 C457 1.422 . S
C459 H448 0.931 1_545 S
C459 C457 1.426 . S
C459 C460 1.332 . S
C460 H439 0.929 . S
C460 C456 1.407 . S
C460 C459 1.332 . S
H461 C454 0.920 1_565 S
H462 C485 0.930 . S
H463 C486 0.929 . S
O464 Tb420 2.465 . S
O464 C484 1.264 . S
O465 Tb420 2.387 . S
O465 C476 1.264 . S
O466 Tb431 2.349 . S
O466 C476 1.243 . S
O467 Tb420 2.428 . S
O467 C484 1.256 . S
O468 Tb420 2.308 . S
O468 C483 1.266 . S
O469 Tb431 2.393 . S
O469 C483 1.248 . S
O470 Tb431 2.465 . S
O470 C495 1.264 . S
O471 Tb431 2.387 . S
O471 C487 1.264 . S
O472 Tb420 2.349 . S
O472 C487 1.243 . S
O473 Tb431 2.428 . S
O473 C495 1.256 . S
O474 Tb431 2.308 . S
O474 C494 1.266 . S
O475 Tb420 2.393 . S
O475 C494 1.248 . S
C476 O465 1.264 . S
C476 O466 1.243 . S
C477 C480 1.399 . S
C477 C482 1.383 . S
C477 C484 1.496 . S
C478 C479 1.399 . S
C478 C482 1.389 1_554 S
C479 C478 1.399 . S
C479 C481 1.380 1_554 S
C479 H496 0.929 . S
C480 C477 1.399 . S
C480 C481 1.392 . S
C480 H497 0.929 . S
C481 C479 1.380 1_556 S
C481 C480 1.392 . S
C481 H498 0.929 1_556 S
C482 C477 1.383 . S
C482 C478 1.389 1_556 S
C482 H499 0.931 . S
C483 O468 1.266 . S
C483 O469 1.248 . S
C484 Tb420 2.802 . S
C484 O464 1.264 . S
C484 O467 1.256 . S
C484 C477 1.496 . S
C485 C452 1.447 . S
C485 H462 0.930 . S
C485 C486 1.328 . S
C486 C457 1.408 1_565 S
C486 H463 0.929 . S
C486 C485 1.328 . S
C487 O471 1.264 . S
C487 O472 1.243 . S
C488 C491 1.399 . S
C488 C492 1.383 . S
C488 C495 1.496 . S
C489 C490 1.399 . S
C489 C492 1.389 . S
C490 C489 1.399 . S
C490 C493 1.380 . S
C490 H500 0.929 . S
C491 C488 1.399 . S
C491 C493 1.392 . S
C491 H501 0.929 . S
C492 C488 1.383 . S
C492 C489 1.389 . S
C492 H502 0.931 . S
C493 C490 1.380 . S
C493 C491 1.392 . S
C493 H503 0.929 . S
C494 O474 1.266 . S
C494 O475 1.248 . S
C495 Tb431 2.802 . S
C495 O470 1.264 . S
C495 O473 1.256 . S
C495 C488 1.496 . S
H496 C479 0.929 . S
H497 C480 0.929 . S
H498 C481 0.929 1_554 S
H499 C482 0.931 . S
H500 C490 0.929 . S
H501 C491 0.929 . S
H502 C492 0.931 . S
H503 C493 0.929 . S
H504 C516 0.930 . S
H505 C518 0.930 . S
H506 C519 0.930 . S
H507 C523 0.959 . S
H508 C523 0.959 . S
H509 C523 0.961 . S
H510 C524 0.960 . S
H511 C524 0.961 . S
H512 C524 0.959 . S
H513 C527 0.929 . S
H514 C528 0.931 . S
H515 C530 0.930 . S
C516 H504 0.930 . S
C516 C517 1.399 . S
C516 C521 1.399 . S
C517 C516 1.399 . S
C517 C518 1.376 . S
C518 H505 0.930 . S
C518 C517 1.376 . S
C518 C519 1.388 . S
C519 H506 0.930 . S
C519 C518 1.388 . S
C519 C520 1.390 . S
C520 C519 1.390 . S
C520 C521 1.394 . S
C520 C526 1.465 . S
C521 C516 1.399 . S
C521 C520 1.394 . S
C521 C522 1.516 . S
C522 C521 1.516 . S
C522 C523 1.502 . S
C522 C524 1.561 . S
C522 C525 1.526 . S
C523 H507 0.959 . S
C523 H508 0.959 . S
C523 H509 0.961 . S
C523 C522 1.502 . S
C524 H510 0.960 . S
C524 H511 0.961 . S
C524 H512 0.959 . S
C524 C522 1.561 . S
C525 C522 1.526 . S
C525 C526 1.396 . S
C525 C530 1.390 . S
C526 C520 1.465 . S
C526 C525 1.396 . S
C526 C527 1.399 . S
C527 H513 0.929 . S
C527 C526 1.399 . S
C527 C528 1.385 . S
C528 H514 0.931 . S
C528 C527 1.385 . S
C528 C529 1.389 . S
C529 C528 1.389 . S
C529 C530 1.387 . S
C530 H515 0.930 . S
C530 C525 1.390 . S
C530 C529 1.387 . S
H531 C543 0.930 . S
H532 C545 0.930 . S
H533 C546 0.930 . S
H534 C550 0.959 . S
H535 C550 0.959 . S
H536 C550 0.961 . S
H537 C551 0.960 . S
H538 C551 0.961 . S
H539 C551 0.959 . S
H540 C554 0.929 . S
H541 C555 0.931 . S
H542 C557 0.930 . S
C543 H531 0.930 . S
C543 C544 1.399 . S
C543 C548 1.399 . S
C544 C543 1.399 . S
C544 C545 1.376 . S
C545 H532 0.930 . S
C545 C544 1.376 . S
C545 C546 1.388 . S
C546 H533 0.930 . S
C546 C545 1.388 . S
C546 C547 1.390 . S
C547 C546 1.390 . S
C547 C548 1.394 . S
C547 C553 1.465 1_455 S
C548 C543 1.399 . S
C548 C547 1.394 . S
C548 C549 1.516 1_455 S
C549 C548 1.516 1_655 S
C549 C550 1.502 . S
C549 C551 1.561 1_655 S
C549 C552 1.526 . S
C550 H534 0.959 . S
C550 H535 0.959 . S
C550 H536 0.961 . S
C550 C549 1.502 . S
C551 H537 0.960 . S
C551 H538 0.961 . S
C551 H539 0.959 . S
C551 C549 1.561 1_455 S
C552 C549 1.526 . S
C552 C553 1.396 . S
C552 C557 1.390 . S
C553 C547 1.465 1_655 S
C553 C552 1.396 . S
C553 C554 1.399 . S
C554 H540 0.929 . S
C554 C553 1.399 . S
C554 C555 1.385 . S
C555 H541 0.931 . S
C555 C554 1.385 . S
C555 C556 1.389 . S
C556 C555 1.389 . S
C556 C557 1.387 . S
C557 H542 0.930 . S
C557 C552 1.390 . S
C557 C556 1.387 . S
H558 C570 0.930 . S
H559 C572 0.930 . S
H560 C573 0.930 . S
H561 C577 0.959 . S
H562 C577 0.959 . S
H563 C577 0.961 . S
H564 C578 0.960 . S
H565 C578 0.961 . S
H566 C578 0.959 . S
H567 C581 0.929 1_545 S
H568 C582 0.931 . S
H569 C584 0.930 . S
C570 H558 0.930 . S
C570 C571 1.399 . S
C570 C575 1.399 . S
C571 C570 1.399 . S
C571 C572 1.376 . S
C572 H559 0.930 . S
C572 C571 1.376 . S
C572 C573 1.388 . S
C573 H560 0.930 . S
C573 C572 1.388 . S
C573 C574 1.390 . S
C574 C573 1.390 . S
C574 C575 1.394 . S
C574 C580 1.465 1_545 S
C575 C570 1.399 . S
C575 C574 1.394 . S
C575 C576 1.516 1_545 S
C576 C575 1.516 1_565 S
C576 C577 1.502 . S
C576 C578 1.561 . S
C576 C579 1.526 . S
C577 H561 0.959 . S
C577 H562 0.959 . S
C577 H563 0.961 . S
C577 C576 1.502 . S
C578 H564 0.960 . S
C578 H565 0.961 . S
C578 H566 0.959 . S
C578 C576 1.561 . S
C579 C576 1.526 . S
C579 C580 1.396 . S
C579 C584 1.390 . S
C580 C574 1.465 1_565 S
C580 C579 1.396 . S
C580 C581 1.399 . S
C581 H567 0.929 1_565 S
C581 C580 1.399 . S
C581 C582 1.385 . S
C582 H568 0.931 . S
C582 C581 1.385 . S
C582 C583 1.389 . S
C583 C582 1.389 . S
C583 C584 1.387 . S
C584 H569 0.930 . S
C584 C579 1.390 . S
C584 C583 1.387 . S
H585 C597 0.930 . S
H586 C599 0.930 . S
H587 C600 0.930 . S
H588 C604 0.959 . S
H589 C604 0.959 . S
H590 C604 0.961 . S
H591 C605 0.960 . S
H592 C605 0.961 . S
H593 C605 0.959 . S
H594 C608 0.929 . S
H595 C609 0.931 . S
H596 C611 0.930 . S
C597 H585 0.930 . S
C597 C598 1.399 . S
C597 C602 1.399 . S
C598 C597 1.399 . S
C598 C599 1.376 . S
C599 H586 0.930 . S
C599 C598 1.376 . S
C599 C600 1.388 . S
C600 H587 0.930 . S
C600 C599 1.388 . S
C600 C601 1.390 . S
C601 C600 1.390 . S
C601 C602 1.394 . S
C601 C607 1.465 . S
C602 C597 1.399 . S
C602 C601 1.394 . S
C602 C603 1.516 . S
C603 C602 1.516 . S
C603 C604 1.502 . S
C603 C605 1.561 . S
C603 C606 1.526 . S
C604 H588 0.959 . S
C604 H589 0.959 . S
C604 H590 0.961 . S
C604 C603 1.502 . S
C605 H591 0.960 . S
C605 H592 0.961 . S
C605 H593 0.959 . S
C605 C603 1.561 . S
C606 C603 1.526 . S
C606 C607 1.396 . S
C606 C611 1.390 . S
C607 C601 1.465 . S
C607 C606 1.396 . S
C607 C608 1.399 . S
C608 H594 0.929 . S
C608 C607 1.399 . S
C608 C609 1.385 . S
C609 H595 0.931 . S
C609 C608 1.385 . S
C609 C610 1.389 . S
C610 C609 1.389 . S
C610 C611 1.387 . S
C611 H596 0.930 . S
C611 C606 1.390 . S
C611 C610 1.387 . S
H612 C624 0.930 . S
H613 C626 0.930 . S
H614 C627 0.930 . S
H615 C631 0.959 . S
H616 C631 0.959 . S
H617 C631 0.961 . S
H618 C632 0.960 1_455 S
H619 C632 0.961 . S
H620 C632 0.959 . S
H621 C635 0.929 . S
H622 C636 0.931 . S
H623 C638 0.930 . S
C624 H612 0.930 . S
C624 C625 1.399 . S
C624 C629 1.399 . S
C625 C624 1.399 . S
C625 C626 1.376 . S
C626 H613 0.930 . S
C626 C625 1.376 . S
C626 C627 1.388 . S
C627 H614 0.930 . S
C627 C626 1.388 . S
C627 C628 1.390 . S
C628 C627 1.390 . S
C628 C629 1.394 . S
C628 C634 1.465 1_455 S
C629 C624 1.399 . S
C629 C628 1.394 . S
C629 C630 1.516 . S
C630 C629 1.516 . S
C630 C631 1.502 . S
C630 C632 1.561 1_455 S
C630 C633 1.526 1_455 S
C631 H615 0.959 . S
C631 H616 0.959 . S
C631 H617 0.961 . S
C631 C630 1.502 . S
C632 H618 0.960 1_655 S
C632 H619 0.961 . S
C632 H620 0.959 . S
C632 C630 1.561 1_655 S
C633 C630 1.526 1_655 S
C633 C634 1.396 . S
C633 C638 1.390 . S
C634 C628 1.465 1_655 S
C634 C633 1.396 . S
C634 C635 1.399 . S
C635 H621 0.929 . S
C635 C634 1.399 . S
C635 C636 1.385 . S
C636 H622 0.931 . S
C636 C635 1.385 . S
C636 C637 1.389 . S
C637 C636 1.389 . S
C637 C638 1.387 . S
C638 H623 0.930 . S
C638 C633 1.390 . S
C638 C637 1.387 . S
H639 C651 0.930 . S
H640 C653 0.930 . S
H641 C654 0.930 . S
H642 C658 0.959 . S
H643 C658 0.959 . S
H644 C658 0.961 . S
H645 C659 0.960 . S
H646 C659 0.961 . S
H647 C659 0.959 . S
H648 C662 0.929 1_545 S
H649 C663 0.931 . S
H650 C665 0.930 . S
C651 H639 0.930 . S
C651 C652 1.399 . S
C651 C656 1.399 . S
C652 C651 1.399 . S
C652 C653 1.376 . S
C653 H640 0.930 . S
C653 C652 1.376 . S
C653 C654 1.388 . S
C654 H641 0.930 . S
C654 C653 1.388 . S
C654 C655 1.390 . S
C655 C654 1.390 . S
C655 C656 1.394 . S
C655 C661 1.465 1_545 S
C656 C651 1.399 . S
C656 C655 1.394 . S
C656 C657 1.516 1_545 S
C657 C656 1.516 1_565 S
C657 C658 1.502 . S
C657 C659 1.561 . S
C657 C660 1.526 . S
C658 H642 0.959 . S
C658 H643 0.959 . S
C658 H644 0.961 . S
C658 C657 1.502 . S
C659 H645 0.960 . S
C659 H646 0.961 . S
C659 H647 0.959 . S
C659 C657 1.561 . S
C660 C657 1.526 . S
C660 C661 1.396 . S
C660 C665 1.390 . S
C661 C655 1.465 1_565 S
C661 C660 1.396 . S
C661 C662 1.399 . S
C662 H648 0.929 1_565 S
C662 C661 1.399 . S
C662 C663 1.385 . S
C663 H649 0.931 . S
C663 C662 1.385 . S
C663 C664 1.389 . S
C664 C663 1.389 . S
C664 C665 1.387 . S
C665 H650 0.930 . S
C665 C660 1.390 . S
C665 C664 1.387 . S
H666 C678 0.930 . S
H667 C680 0.930 . S
H668 C681 0.930 . S
H669 C685 0.959 . S
H670 C685 0.959 . S
H671 C685 0.961 . S
H672 C686 0.960 . S
H673 C686 0.961 . S
H674 C686 0.959 . S
H675 C689 0.929 . S
H676 C690 0.931 . S
H677 C692 0.930 . S
C678 H666 0.930 . S
C678 C679 1.399 . S
C678 C683 1.399 . S
C679 C678 1.399 . S
C679 C680 1.376 . S
C680 H667 0.930 . S
C680 C679 1.376 . S
C680 C681 1.388 . S
C681 H668 0.930 . S
C681 C680 1.388 . S
C681 C682 1.390 . S
C682 C681 1.390 . S
C682 C683 1.394 . S
C682 C688 1.465 . S
C683 C678 1.399 . S
C683 C682 1.394 . S
C683 C684 1.516 . S
C684 C683 1.516 . S
C684 C685 1.502 . S
C684 C686 1.561 . S
C684 C687 1.526 . S
C685 H669 0.959 . S
C685 H670 0.959 . S
C685 H671 0.961 . S
C685 C684 1.502 . S
C686 H672 0.960 . S
C686 H673 0.961 . S
C686 H674 0.959 . S
C686 C684 1.561 . S
C687 C684 1.526 . S
C687 C688 1.396 . S
C687 C692 1.390 . S
C688 C682 1.465 . S
C688 C687 1.396 . S
C688 C689 1.399 . S
C689 H675 0.929 . S
C689 C688 1.399 . S
C689 C690 1.385 . S
C690 H676 0.931 . S
C690 C689 1.385 . S
C690 C691 1.389 . S
C691 C690 1.389 . S
C691 C692 1.387 . S
C692 H677 0.930 . S
C692 C687 1.390 . S
C692 C691 1.387 . S
H693 C705 0.930 . S
H694 C707 0.930 1_554 S
H695 C708 0.930 . S
H696 C712 0.959 . S
H697 C712 0.959 . S
H698 C712 0.961 . S
H699 C713 0.960 . S
H700 C713 0.961 . S
H701 C713 0.959 . S
H702 C716 0.929 . S
H703 C717 0.931 . S
H704 C719 0.930 . S
C705 H693 0.930 . S
C705 C706 1.399 . S
C705 C710 1.399 . S
C706 C705 1.399 . S
C706 C707 1.376 . S
C707 H694 0.930 1_556 S
C707 C706 1.376 . S
C707 C708 1.388 . S
C708 H695 0.930 . S
C708 C707 1.388 . S
C708 C709 1.390 . S
C709 C708 1.390 . S
C709 C710 1.394 . S
C709 C715 1.465 . S
C710 C705 1.399 . S
C710 C709 1.394 . S
C710 C711 1.516 . S
C711 C710 1.516 . S
C711 C712 1.502 . S
C711 C713 1.561 . S
C711 C714 1.526 . S
C712 H696 0.959 . S
C712 H697 0.959 . S
C712 H698 0.961 . S
C712 C711 1.502 . S
C713 H699 0.960 . S
C713 H700 0.961 . S
C713 H701 0.959 . S
C713 C711 1.561 . S
C714 C711 1.526 . S
C714 C715 1.396 . S
C714 C719 1.390 . S
C715 C709 1.465 . S
C715 C714 1.396 . S
C715 C716 1.399 . S
C716 H702 0.929 . S
C716 C715 1.399 . S
C716 C717 1.385 . S
C717 H703 0.931 . S
C717 C716 1.385 . S
C717 C718 1.389 . S
C718 C717 1.389 . S
C718 C719 1.387 . S
C719 H704 0.930 . S
C719 C714 1.390 . S
C719 C718 1.387 . S
H720 C732 0.930 . S
H721 C734 0.930 . S
H722 C735 0.930 . S
H723 C739 0.959 . S
H724 C739 0.959 . S
H725 C739 0.961 . S
H726 C740 0.960 . S
H727 C740 0.961 . S
H728 C740 0.959 . S
H729 C743 0.929 . S
H730 C744 0.931 . S
H731 C746 0.930 . S
C732 H720 0.930 . S
C732 C733 1.399 . S
C732 C737 1.399 . S
C733 C732 1.399 . S
C733 C734 1.376 . S
C734 H721 0.930 . S
C734 C733 1.376 . S
C734 C735 1.388 . S
C735 H722 0.930 . S
C735 C734 1.388 . S
C735 C736 1.390 . S
C736 C735 1.390 . S
C736 C737 1.394 . S
C736 C742 1.465 . S
C737 C732 1.399 . S
C737 C736 1.394 . S
C737 C738 1.516 . S
C738 C737 1.516 . S
C738 C739 1.502 . S
C738 C740 1.561 . S
C738 C741 1.526 . S
C739 H723 0.959 . S
C739 H724 0.959 . S
C739 H725 0.961 . S
C739 C738 1.502 . S
C740 H726 0.960 . S
C740 H727 0.961 . S
C740 H728 0.959 . S
C740 C738 1.561 . S
C741 C738 1.526 . S
C741 C742 1.396 . S
C741 C746 1.390 . S
C742 C736 1.465 . S
C742 C741 1.396 . S
C742 C743 1.399 . S
C743 H729 0.929 . S
C743 C742 1.399 . S
C743 C744 1.385 . S
C744 H730 0.931 . S
C744 C743 1.385 . S
C744 C745 1.389 . S
C745 C744 1.389 . S
C745 C746 1.387 . S
C746 H731 0.930 . S
C746 C741 1.390 . S
C746 C745 1.387 . S
H747 C759 0.930 . S
H748 C761 0.930 . S
H749 C762 0.930 . S
H750 C766 0.959 . S
H751 C766 0.959 . S
H752 C766 0.961 . S
H753 C767 0.960 . S
H754 C767 0.961 . S
H755 C767 0.959 . S
H756 C770 0.929 . S
H757 C771 0.931 . S
H758 C773 0.930 . S
C759 H747 0.930 . S
C759 C760 1.399 . S
C759 C764 1.399 . S
C760 C759 1.399 . S
C760 C761 1.376 . S
C761 H748 0.930 . S
C761 C760 1.376 . S
C761 C762 1.388 . S
C762 H749 0.930 . S
C762 C761 1.388 . S
C762 C763 1.390 . S
C763 C762 1.390 . S
C763 C764 1.394 . S
C763 C769 1.465 . S
C764 C759 1.399 . S
C764 C763 1.394 . S
C764 C765 1.516 . S
C765 C764 1.516 . S
C765 C766 1.502 . S
C765 C767 1.561 . S
C765 C768 1.526 . S
C766 H750 0.959 . S
C766 H751 0.959 . S
C766 H752 0.961 . S
C766 C765 1.502 . S
C767 H753 0.960 . S
C767 H754 0.961 . S
C767 H755 0.959 . S
C767 C765 1.561 . S
C768 C765 1.526 . S
C768 C769 1.396 . S
C768 C773 1.390 . S
C769 C763 1.465 . S
C769 C768 1.396 . S
C769 C770 1.399 . S
C770 H756 0.929 . S
C770 C769 1.399 . S
C770 C771 1.385 . S
C771 H757 0.931 . S
C771 C770 1.385 . S
C771 C772 1.389 . S
C772 C771 1.389 . S
C772 C773 1.387 . S
C773 H758 0.930 . S
C773 C768 1.390 . S
C773 C772 1.387 . S
H774 C786 0.930 . S
H775 C788 0.930 . S
H776 C789 0.930 . S
H777 C793 0.959 . S
H778 C793 0.959 . S
H779 C793 0.961 . S
H780 C794 0.960 . S
H781 C794 0.961 . S
H782 C794 0.959 . S
H783 C797 0.929 . S
H784 C798 0.931 . S
H785 C800 0.930 . S
C786 H774 0.930 . S
C786 C787 1.399 . S
C786 C791 1.399 . S
C787 C786 1.399 . S
C787 C788 1.376 . S
C788 H775 0.930 . S
C788 C787 1.376 . S
C788 C789 1.388 . S
C789 H776 0.930 . S
C789 C788 1.388 . S
C789 C790 1.390 . S
C790 C789 1.390 . S
C790 C791 1.394 . S
C790 C796 1.465 . S
C791 C786 1.399 . S
C791 C790 1.394 . S
C791 C792 1.516 . S
C792 C791 1.516 . S
C792 C793 1.502 . S
C792 C794 1.561 . S
C792 C795 1.526 . S
C793 H777 0.959 . S
C793 H778 0.959 . S
C793 H779 0.961 . S
C793 C792 1.502 . S
C794 H780 0.960 . S
C794 H781 0.961 . S
C794 H782 0.959 . S
C794 C792 1.561 . S
C795 C792 1.526 . S
C795 C796 1.396 . S
C795 C800 1.390 . S
C796 C790 1.465 . S
C796 C795 1.396 . S
C796 C797 1.399 . S
C797 H783 0.929 . S
C797 C796 1.399 . S
C797 C798 1.385 . S
C798 H784 0.931 . S
C798 C797 1.385 . S
C798 C799 1.389 . S
C799 C798 1.389 . S
C799 C800 1.387 . S
C800 H785 0.930 . S
C800 C795 1.390 . S
C800 C799 1.387 . S
H801 C813 0.930 . S
H802 C815 0.930 . S
H803 C816 0.930 . S
H804 C820 0.959 . S
H805 C820 0.959 . S
H806 C820 0.961 . S
H807 C821 0.960 . S
H808 C821 0.961 . S
H809 C821 0.959 . S
H810 C824 0.929 . S
H811 C825 0.931 . S
H812 C827 0.930 . S
C813 H801 0.930 . S
C813 C814 1.399 . S
C813 C818 1.399 . S
C814 C813 1.399 . S
C814 C815 1.376 . S
C815 H802 0.930 . S
C815 C814 1.376 . S
C815 C816 1.388 . S
C816 H803 0.930 . S
C816 C815 1.388 . S
C816 C817 1.390 . S
C817 C816 1.390 . S
C817 C818 1.394 . S
C817 C823 1.465 . S
C818 C813 1.399 . S
C818 C817 1.394 . S
C818 C819 1.516 . S
C819 C818 1.516 . S
C819 C820 1.502 . S
C819 C821 1.561 . S
C819 C822 1.526 . S
C820 H804 0.959 . S
C820 H805 0.959 . S
C820 H806 0.961 . S
C820 C819 1.502 . S
C821 H807 0.960 . S
C821 H808 0.961 . S
C821 H809 0.959 . S
C821 C819 1.561 . S
C822 C819 1.526 . S
C822 C823 1.396 . S
C822 C827 1.390 . S
C823 C817 1.465 . S
C823 C822 1.396 . S
C823 C824 1.399 . S
C824 H810 0.929 . S
C824 C823 1.399 . S
C824 C825 1.385 . S
C825 H811 0.931 . S
C825 C824 1.385 . S
C825 C826 1.389 . S
C826 C825 1.389 . S
C826 C827 1.387 . S
C827 H812 0.930 . S
C827 C822 1.390 . S
C827 C826 1.387 . S
H828 C840 0.930 . S
H829 C842 0.930 . S
H830 C843 0.930 . S
H831 C847 0.959 . S
H832 C847 0.959 . S
H833 C847 0.961 . S
H834 C848 0.960 . S
H835 C848 0.961 . S
H836 C848 0.959 . S
H837 C851 0.929 . S
H838 C852 0.931 . S
H839 C854 0.930 . S
C840 H828 0.930 . S
C840 C841 1.399 . S
C840 C845 1.399 . S
C841 C840 1.399 . S
C841 C842 1.376 . S
C842 H829 0.930 . S
C842 C841 1.376 . S
C842 C843 1.388 . S
C843 H830 0.930 . S
C843 C842 1.388 . S
C843 C844 1.390 . S
C844 C843 1.390 . S
C844 C845 1.394 . S
C844 C850 1.465 . S
C845 C840 1.399 . S
C845 C844 1.394 . S
C845 C846 1.516 . S
C846 C845 1.516 . S
C846 C847 1.502 . S
C846 C848 1.561 . S
C846 C849 1.526 . S
C847 H831 0.959 . S
C847 H832 0.959 . S
C847 H833 0.961 . S
C847 C846 1.502 . S
C848 H834 0.960 . S
C848 H835 0.961 . S
C848 H836 0.959 . S
C848 C846 1.561 . S
C849 C846 1.526 . S
C849 C850 1.396 . S
C849 C854 1.390 . S
C850 C844 1.465 . S
C850 C849 1.396 . S
C850 C851 1.399 . S
C851 H837 0.929 . S
C851 C850 1.399 . S
C851 C852 1.385 . S
C852 H838 0.931 . S
C852 C851 1.385 . S
C852 C853 1.389 . S
C853 C852 1.389 . S
C853 C854 1.387 . S
C854 H839 0.930 . S
C854 C849 1.390 . S
C854 C853 1.387 . S
H855 C867 0.930 . S
H856 C869 0.930 . S
H857 C870 0.930 . S
H858 C874 0.959 . S
H859 C874 0.959 . S
H860 C874 0.961 . S
H861 C875 0.960 . S
H862 C875 0.961 . S
H863 C875 0.959 . S
H864 C878 0.929 . S
H865 C879 0.931 . S
H866 C881 0.930 . S
C867 H855 0.930 . S
C867 C868 1.399 . S
C867 C872 1.399 . S
C868 C867 1.399 . S
C868 C869 1.376 . S
C869 H856 0.930 . S
C869 C868 1.376 . S
C869 C870 1.388 . S
C870 H857 0.930 . S
C870 C869 1.388 . S
C870 C871 1.390 . S
C871 C870 1.390 . S
C871 C872 1.394 . S
C871 C877 1.465 . S
C872 C867 1.399 . S
C872 C871 1.394 . S
C872 C873 1.516 . S
C873 C872 1.516 . S
C873 C874 1.502 . S
C873 C875 1.561 . S
C873 C876 1.526 . S
C874 H858 0.959 . S
C874 H859 0.959 . S
C874 H860 0.961 . S
C874 C873 1.502 . S
C875 H861 0.960 . S
C875 H862 0.961 . S
C875 H863 0.959 . S
C875 C873 1.561 . S
C876 C873 1.526 . S
C876 C877 1.396 . S
C876 C881 1.390 . S
C877 C871 1.465 . S
C877 C876 1.396 . S
C877 C878 1.399 . S
C878 H864 0.929 . S
C878 C877 1.399 . S
C878 C879 1.385 . S
C879 H865 0.931 . S
C879 C878 1.385 . S
C879 C880 1.389 . S
C880 C879 1.389 . S
C880 C881 1.387 . S
C881 H866 0.930 . S
C881 C876 1.390 . S
C881 C880 1.387 . S
H882 C894 0.930 . S
H883 C896 0.930 . S
H884 C897 0.930 . S
H885 C901 0.959 . S
H886 C901 0.959 . S
H887 C901 0.961 . S
H888 C902 0.960 . S
H889 C902 0.961 . S
H890 C902 0.959 . S
H891 C905 0.929 . S
H892 C906 0.931 . S
H893 C908 0.930 . S
C894 H882 0.930 . S
C894 C895 1.399 . S
C894 C899 1.399 . S
C895 C894 1.399 . S
C895 C896 1.376 . S
C896 H883 0.930 . S
C896 C895 1.376 . S
C896 C897 1.388 . S
C897 H884 0.930 . S
C897 C896 1.388 . S
C897 C898 1.390 . S
C898 C897 1.390 . S
C898 C899 1.394 . S
C898 C904 1.465 . S
C899 C894 1.399 . S
C899 C898 1.394 . S
C899 C900 1.516 . S
C900 C899 1.516 . S
C900 C901 1.502 . S
C900 C902 1.561 . S
C900 C903 1.526 . S
C901 H885 0.959 . S
C901 H886 0.959 . S
C901 H887 0.961 . S
C901 C900 1.502 . S
C902 H888 0.960 . S
C902 H889 0.961 . S
C902 H890 0.959 . S
C902 C900 1.561 . S
C903 C900 1.526 . S
C903 C904 1.396 . S
C903 C908 1.390 . S
C904 C898 1.465 . S
C904 C903 1.396 . S
C904 C905 1.399 . S
C905 H891 0.929 . S
C905 C904 1.399 . S
C905 C906 1.385 . S
C906 H892 0.931 . S
C906 C905 1.385 . S
C906 C907 1.389 . S
C907 C906 1.389 . S
C907 C908 1.387 . S
C908 H893 0.930 . S
C908 C903 1.390 . S
C908 C907 1.387 . S
H909 C921 0.930 . S
H910 C923 0.930 . S
H911 C924 0.930 . S
H912 C928 0.959 . S
H913 C928 0.959 . S
H914 C928 0.961 . S
H915 C929 0.960 . S
H916 C929 0.961 . S
H917 C929 0.959 . S
H918 C932 0.929 . S
H919 C933 0.931 . S
H920 C935 0.930 . S
C921 H909 0.930 . S
C921 C922 1.399 . S
C921 C926 1.399 . S
C922 C921 1.399 . S
C922 C923 1.376 . S
C923 H910 0.930 . S
C923 C922 1.376 . S
C923 C924 1.388 . S
C924 H911 0.930 . S
C924 C923 1.388 . S
C924 C925 1.390 . S
C925 C924 1.390 . S
C925 C926 1.394 . S
C925 C931 1.465 . S
C926 C921 1.399 . S
C926 C925 1.394 . S
C926 C927 1.516 . S
C927 C926 1.516 . S
C927 C928 1.502 . S
C927 C929 1.561 . S
C927 C930 1.526 . S
C928 H912 0.959 . S
C928 H913 0.959 . S
C928 H914 0.961 . S
C928 C927 1.502 . S
C929 H915 0.960 . S
C929 H916 0.961 . S
C929 H917 0.959 . S
C929 C927 1.561 . S
C930 C927 1.526 . S
C930 C931 1.396 . S
C930 C935 1.390 . S
C931 C925 1.465 . S
C931 C930 1.396 . S
C931 C932 1.399 . S
C932 H918 0.929 . S
C932 C931 1.399 . S
C932 C933 1.385 . S
C933 H919 0.931 . S
C933 C932 1.385 . S
C933 C934 1.389 . S
C934 C933 1.389 . S
C934 C935 1.387 . S
C935 H920 0.930 . S
C935 C930 1.390 . S
C935 C934 1.387 . S
H936 C948 0.930 . S
H937 C950 0.930 . S
H938 C951 0.930 . S
H939 C955 0.959 . S
H940 C955 0.959 . S
H941 C955 0.961 . S
H942 C956 0.960 . S
H943 C956 0.961 . S
H944 C956 0.959 . S
H945 C959 0.929 . S
H946 C960 0.931 . S
H947 C962 0.930 . S
C948 H936 0.930 . S
C948 C949 1.399 . S
C948 C953 1.399 . S
C949 C948 1.399 . S
C949 C950 1.376 . S
C950 H937 0.930 . S
C950 C949 1.376 . S
C950 C951 1.388 . S
C951 H938 0.930 . S
C951 C950 1.388 . S
C951 C952 1.390 . S
C952 C951 1.390 . S
C952 C953 1.394 . S
C952 C958 1.465 . S
C953 C948 1.399 . S
C953 C952 1.394 . S
C953 C954 1.516 . S
C954 C953 1.516 . S
C954 C955 1.502 . S
C954 C956 1.561 . S
C954 C957 1.526 . S
C955 H939 0.959 . S
C955 H940 0.959 . S
C955 H941 0.961 . S
C955 C954 1.502 . S
C956 H942 0.960 . S
C956 H943 0.961 . S
C956 H944 0.959 . S
C956 C954 1.561 . S
C957 C954 1.526 . S
C957 C958 1.396 . S
C957 C962 1.390 . S
C958 C952 1.465 . S
C958 C957 1.396 . S
C958 C959 1.399 . S
C959 H945 0.929 . S
C959 C958 1.399 . S
C959 C960 1.385 . S
C960 H946 0.931 . S
C960 C959 1.385 . S
C960 C961 1.389 . S
C961 C960 1.389 . S
C961 C962 1.387 . S
C962 H947 0.930 . S
C962 C957 1.390 . S
C962 C961 1.387 . S
H963 C975 0.930 . S
H964 C977 0.927 1_554 S
H965 C978 0.930 . S
H966 C982 0.959 . S
H967 C982 0.959 . S
H968 C982 0.961 . S
H969 C983 0.960 . S
H970 C983 0.961 . S
H971 C983 0.959 . S
H972 C986 0.929 . S
H973 C987 0.931 . S
H974 C989 0.930 . S
C975 H963 0.930 . S
C975 C976 1.399 . S
C975 C980 1.399 . S
C976 C975 1.399 . S
C976 C977 1.376 . S
C977 H964 0.927 1_556 S
C977 C976 1.376 . S
C977 C978 1.388 . S
C978 H965 0.930 . S
C978 C977 1.388 . S
C978 C979 1.390 . S
C979 C978 1.390 . S
C979 C980 1.394 . S
C979 C985 1.465 . S
C980 C975 1.399 . S
C980 C979 1.394 . S
C980 C981 1.516 . S
C981 C980 1.516 . S
C981 C982 1.502 . S
C981 C983 1.561 . S
C981 C984 1.526 . S
C982 H966 0.959 . S
C982 H967 0.959 . S
C982 H968 0.961 . S
C982 C981 1.502 . S
C983 H969 0.960 . S
C983 H970 0.961 . S
C983 H971 0.959 . S
C983 C981 1.561 . S
C984 C981 1.526 . S
C984 C985 1.396 . S
C984 C989 1.390 . S
C985 C979 1.465 . S
C985 C984 1.396 . S
C985 C986 1.399 . S
C986 H972 0.929 . S
C986 C985 1.399 . S
C986 C987 1.385 . S
C987 H973 0.931 . S
C987 C986 1.385 . S
C987 C988 1.389 . S
C988 C987 1.389 . S
C988 C989 1.387 . S
C989 H974 0.930 . S
C989 C984 1.390 . S
C989 C988 1.387 . S
C517 C483 1.359 . S
C529 C63 1.382 . S
C544 C56 1.279 . S
C556 C140 1.291 . S
C571 C147 1.376 . S
C583 C231 1.345 . S
C598 C224 1.300 . S
C610 C308 1.321 . S
C625 C399 1.361 . S
C637 C315 1.383 . S
C652 C476 1.353 . S
C664 C392 1.362 . S
C679 C58 1.044 . S
C691 C69 1.169 . S
C706 C153 1.165 1_556 S
C718 C142 1.047 . S
C733 C226 1.075 . S
C745 C237 1.158 1_554 S
C760 C321 1.084 . S
C772 C310 1.152 . S
C787 C405 1.163 . S
C799 C394 1.070 1_556 S
C814 C489 1.162 . S
C826 C478 1.072 . S
C841 C74 1.632 . S
C853 C403 1.627 . S
C868 C151 1.633 . S
C880 C494 1.637 . S
C895 C67 1.631 . S
C907 C242 1.621 . S
C922 C158 1.608 . S
C934 C319 1.619 . S
C949 C410 1.622 . S
C961 C235 1.617 . S
C976 C326 1.604 . S
C988 C487 1.613 . S
