# Generated by pormake.
# Topology pem, (4)-cn, num edge types: 1
# Building blocks:
#     Node 0, Type 0, BuildingBlock: QUQFOY_clean_sbu_3, # of connection points: 4
#     Node 1, Type 0, BuildingBlock: QUQFOY_clean_sbu_3, # of connection points: 4
#     Node 2, Type 0, BuildingBlock: QUQFOY_clean_sbu_3, # of connection points: 4
#     Node 3, Type 0, BuildingBlock: QUQFOY_clean_sbu_3, # of connection points: 4
#     Node 4, Type 0, BuildingBlock: QUQFOY_clean_sbu_3, # of connection points: 4
#     Node 5, Type 0, BuildingBlock: QUQFOY_clean_sbu_3, # of connection points: 4
#     Node 6, Type 0, BuildingBlock: QUQFOY_clean_sbu_3, # of connection points: 4
#     Node 7, Type 0, BuildingBlock: QUQFOY_clean_sbu_3, # of connection points: 4
#     Node 8, Type 0, BuildingBlock: QUQFOY_clean_sbu_3, # of connection points: 4
#     Node 9, Type 0, BuildingBlock: QUQFOY_clean_sbu_3, # of connection points: 4
#     Node 10, Type 0, BuildingBlock: QUQFOY_clean_sbu_3, # of connection points: 4
#     Node 11, Type 0, BuildingBlock: QUQFOY_clean_sbu_3, # of connection points: 4
#     Node 12, Type 0, BuildingBlock: QUQFOY_clean_sbu_3, # of connection points: 4
#     Node 13, Type 0, BuildingBlock: QUQFOY_clean_sbu_3, # of connection points: 4
#     Node 14, Type 0, BuildingBlock: QUQFOY_clean_sbu_3, # of connection points: 4
#     Node 15, Type 0, BuildingBlock: QUQFOY_clean_sbu_3, # of connection points: 4
#     Node 16, Type 0, BuildingBlock: QUQFOY_clean_sbu_3, # of connection points: 4
#     Node 17, Type 0, BuildingBlock: QUQFOY_clean_sbu_3, # of connection points: 4
#     Node 18, Type 0, BuildingBlock: QUQFOY_clean_sbu_3, # of connection points: 4
#     Node 19, Type 0, BuildingBlock: QUQFOY_clean_sbu_3, # of connection points: 4
#     Node 20, Type 0, BuildingBlock: QUQFOY_clean_sbu_3, # of connection points: 4
#     Node 21, Type 0, BuildingBlock: QUQFOY_clean_sbu_3, # of connection points: 4
#     Node 22, Type 0, BuildingBlock: QUQFOY_clean_sbu_3, # of connection points: 4
#     Node 23, Type 0, BuildingBlock: QUQFOY_clean_sbu_3, # of connection points: 4
#     Node 24, Type 0, BuildingBlock: QUQFOY_clean_sbu_3, # of connection points: 4
#     Node 25, Type 0, BuildingBlock: QUQFOY_clean_sbu_3, # of connection points: 4
#     Node 26, Type 0, BuildingBlock: QUQFOY_clean_sbu_3, # of connection points: 4
#     Node 27, Type 0, BuildingBlock: QUQFOY_clean_sbu_3, # of connection points: 4
#     Node 28, Type 0, BuildingBlock: QUQFOY_clean_sbu_3, # of connection points: 4
#     Node 29, Type 0, BuildingBlock: QUQFOY_clean_sbu_3, # of connection points: 4
#     Node 30, Type 0, BuildingBlock: QUQFOY_clean_sbu_3, # of connection points: 4
#     Node 31, Type 0, BuildingBlock: QUQFOY_clean_sbu_3, # of connection points: 4
#     Edge 32, Type (0, 0), None
#     Edge 33, Type (0, 0), None
#     Edge 34, Type (0, 0), None
#     Edge 35, Type (0, 0), None
#     Edge 36, Type (0, 0), None
#     Edge 37, Type (0, 0), None
#     Edge 38, Type (0, 0), None
#     Edge 39, Type (0, 0), None
#     Edge 40, Type (0, 0), None
#     Edge 41, Type (0, 0), None
#     Edge 42, Type (0, 0), None
#     Edge 43, Type (0, 0), None
#     Edge 44, Type (0, 0), None
#     Edge 45, Type (0, 0), None
#     Edge 46, Type (0, 0), None
#     Edge 47, Type (0, 0), None
#     Edge 48, Type (0, 0), None
#     Edge 49, Type (0, 0), None
#     Edge 50, Type (0, 0), None
#     Edge 51, Type (0, 0), None
#     Edge 52, Type (0, 0), None
#     Edge 53, Type (0, 0), None
#     Edge 54, Type (0, 0), None
#     Edge 55, Type (0, 0), None
#     Edge 56, Type (0, 0), None
#     Edge 57, Type (0, 0), None
#     Edge 58, Type (0, 0), None
#     Edge 59, Type (0, 0), None
#     Edge 60, Type (0, 0), None
#     Edge 61, Type (0, 0), None
#     Edge 62, Type (0, 0), None
#     Edge 63, Type (0, 0), None
#     Edge 64, Type (0, 0), None
#     Edge 65, Type (0, 0), None
#     Edge 66, Type (0, 0), None
#     Edge 67, Type (0, 0), None
#     Edge 68, Type (0, 0), None
#     Edge 69, Type (0, 0), None
#     Edge 70, Type (0, 0), None
#     Edge 71, Type (0, 0), None
#     Edge 72, Type (0, 0), None
#     Edge 73, Type (0, 0), None
#     Edge 74, Type (0, 0), None
#     Edge 75, Type (0, 0), None
#     Edge 76, Type (0, 0), None
#     Edge 77, Type (0, 0), None
#     Edge 78, Type (0, 0), None
#     Edge 79, Type (0, 0), None
#     Edge 80, Type (0, 0), None
#     Edge 81, Type (0, 0), None
#     Edge 82, Type (0, 0), None
#     Edge 83, Type (0, 0), None
#     Edge 84, Type (0, 0), None
#     Edge 85, Type (0, 0), None
#     Edge 86, Type (0, 0), None
#     Edge 87, Type (0, 0), None
#     Edge 88, Type (0, 0), None
#     Edge 89, Type (0, 0), None
#     Edge 90, Type (0, 0), None
#     Edge 91, Type (0, 0), None
#     Edge 92, Type (0, 0), None
#     Edge 93, Type (0, 0), None
#     Edge 94, Type (0, 0), None
#     Edge 95, Type (0, 0), None
# Relax obj value: 0.212
# Max RMSD: 0.159
# Mean RMSD: 0.156
data_MOF--net-pem--node1-QUQFOY_clean_sbu_3--edge1-none
_symmetry_space_group_name_H-M    P1
_symmetry_Int_Tables_number       1
_symmetry_cell_setting            triclinic
loop_
_symmetry_equiv_pos_as_xyz
'x, y, z'
_cell_length_a     23.479996
_cell_length_b     20.92792
_cell_length_c     20.92806
_cell_angle_alpha  89.999513
_cell_angle_beta   90.000017
_cell_angle_gamma 90.000259
loop_
_atom_site_label
_atom_site_type_symbol
_atom_site_fract_x
_atom_site_fract_y
_atom_site_fract_z
_atom_type_partial_charge
C0 C 0.14546 0.02758 0.90294 0.0
O1 O 0.1319 -0.02959 0.89009 0.0
Cd2 Cd 0.04933 0.91787 0.92847 0.0
O3 O 0.11688 0.05977 -0.05514 0.0
Cd4 Cd 0.03304 0.03128 0.0253 0.0
C5 C 0.07726 0.88449 0.08577 0.0
O6 O -0.02221 -0.00283 -0.05842 0.0
O7 O -0.03762 -0.04897 0.03285 0.0
O8 O 0.95859 0.11876 0.01628 0.0
C9 C 0.94278 -0.02543 -0.0184 0.0
O10 O 0.06923 0.86469 0.02901 0.0
C11 C 0.94563 0.11808 0.07513 0.0
O12 O 0.07261 -0.05597 0.09882 0.0
O13 O -0.02073 0.0868 0.11131 0.0
C14 C 0.02429 0.65291 0.27768 0.0
O15 O 0.03786 0.64004 0.22051 0.0
Cd16 Cd 0.12043 0.6784 0.16796 0.0
O17 O 0.05288 0.69483 0.30986 0.0
Cd18 Cd 0.13673 0.77523 0.28135 0.0
C19 C 0.09248 0.8357 0.13457 0.0
O20 O 0.19198 0.69152 0.24723 0.0
O21 O 0.20735 0.78278 0.20106 0.0
O22 O 0.21119 0.76623 0.36883 0.0
C23 C 0.22698 0.73155 0.22461 0.0
O24 O 0.10051 0.77893 0.11477 0.0
C25 C 0.22418 0.82507 0.36811 0.0
O26 O 0.09714 0.84875 0.19411 0.0
O27 O 0.19056 0.86125 0.3368 0.0
C28 C 0.27442 0.85186 0.40293 0.0
O29 O 0.28801 0.90901 0.39001 0.0
Cd30 Cd 0.37051 -0.03831 0.42838 0.0
O31 O 0.30296 0.81971 0.44492 0.0
Cd32 Cd 0.3868 0.84833 0.52534 0.0
C33 C 0.34248 -0.00483 0.58564 0.0
O34 O 0.44207 0.88244 0.44165 0.0
O35 O 0.45735 0.92868 0.53289 0.0
O36 O 0.46133 0.76096 0.51641 0.0
C37 C 0.47702 0.90518 0.48166 0.0
O38 O 0.35051 0.01495 0.52887 0.0
C39 C 0.47431 0.7617 0.57526 0.0
O40 O 0.34717 0.93564 0.59873 0.0
O41 O 0.44065 0.79299 0.61142 0.0
C42 C 0.39533 0.22683 0.77765 0.0
O43 O 0.38176 0.23969 0.72048 0.0
Cd44 Cd 0.29924 0.20124 0.66788 0.0
O45 O 0.36679 0.18484 0.80981 0.0
Cd46 Cd 0.28302 0.10432 0.78129 0.0
C47 C 0.32724 0.04396 0.63443 0.0
O48 O 0.22777 0.18803 0.74724 0.0
O49 O 0.2123 0.09679 0.7011 0.0
O50 O 0.20853 0.11326 0.86868 0.0
C51 C 0.19273 0.14807 0.72461 0.0
O52 O 0.3192 0.10073 0.61464 0.0
C53 C 0.19566 0.05439 0.86809 0.0
O54 O 0.32258 0.0309 0.69396 0.0
O55 O 0.22937 0.01823 0.83687 0.0
C56 C 0.14545 0.8523 0.47693 0.0
O57 O 0.13189 0.90948 0.48977 0.0
Cd58 Cd 0.04932 -0.03798 0.45137 0.0
O59 O 0.11687 0.82011 0.43501 0.0
Cd60 Cd 0.03306 0.84858 0.35453 0.0
C61 C 0.07727 -0.00462 0.29406 0.0
O62 O -0.02218 0.88268 0.43824 0.0
O63 O -0.03759 0.92883 0.34698 0.0
O64 O 0.95858 0.76113 0.36355 0.0
C65 C 0.94281 0.90532 0.39824 0.0
O66 O 0.06923 0.01518 0.35083 0.0
C67 C 0.94561 0.76182 0.3047 0.0
O68 O 0.07262 0.93583 0.28101 0.0
O69 O -0.02073 0.79309 0.26852 0.0
C70 C 0.39529 0.65312 0.60232 0.0
O71 O 0.38171 0.64024 0.65949 0.0
Cd72 Cd 0.29919 0.67869 0.71207 0.0
O73 O 0.36675 0.6951 0.57016 0.0
Cd74 Cd 0.28297 0.7756 0.59866 0.0
C75 C 0.32722 0.83596 0.74551 0.0
O76 O 0.22769 0.6919 0.63274 0.0
O77 O 0.21225 0.78317 0.67885 0.0
O78 O 0.2085 0.76662 0.51124 0.0
C79 C 0.19267 0.73189 0.65537 0.0
O80 O 0.31917 0.77919 0.7653 0.0
C81 C 0.19564 0.8255 0.51181 0.0
O82 O 0.32255 0.84902 0.68597 0.0
O83 O 0.22934 0.86167 0.54304 0.0
C84 C 0.27446 0.02802 -0.02303 0.0
O85 O 0.28806 -0.02913 -0.01009 0.0
Cd86 Cd 0.37058 0.9182 -0.04846 0.0
O87 O 0.30301 0.06016 0.93498 0.0
Cd88 Cd 0.38686 0.03156 0.85459 0.0
C89 C 0.34249 0.88475 0.79428 0.0
O90 O 0.44216 -0.00258 0.93825 0.0
O91 O 0.4574 -0.0488 0.84699 0.0
O92 O 0.46136 0.11897 0.86355 0.0
C93 C 0.4771 -0.02531 0.89822 0.0
O94 O 0.35054 0.86496 0.85106 0.0
C95 C 0.47433 0.11825 0.8047 0.0
O96 O 0.3472 -0.05572 0.7812 0.0
O97 O 0.44068 0.08695 0.76853 0.0
C98 C 0.0243 0.22699 0.10216 0.0
O99 O 0.03787 0.23985 0.15933 0.0
Cd100 Cd 0.12043 0.20148 0.21189 0.0
O101 O 0.05288 0.18506 0.06997 0.0
Cd102 Cd 0.13672 0.10461 0.09847 0.0
C103 C 0.09248 0.04417 0.24526 0.0
O104 O 0.19195 0.18832 0.13259 0.0
O105 O 0.2073 0.09706 0.17877 0.0
O106 O 0.21121 0.11363 0.01104 0.0
C107 C 0.22694 0.14831 0.15526 0.0
O108 O 0.10051 0.10094 0.26506 0.0
C109 C 0.22421 0.05479 0.01176 0.0
O110 O 0.09713 0.03111 0.18572 0.0
O111 O 0.19056 0.01861 0.04305 0.0
C112 C 0.64525 0.35198 -0.02312 0.0
O113 O 0.63165 0.40912 -0.01018 0.0
Cd114 Cd 0.54915 0.46181 -0.04859 0.0
O115 O 0.61672 0.31985 0.93486 0.0
Cd116 Cd 0.5329 0.34847 0.85443 0.0
C117 C 0.57724 0.49533 0.79417 0.0
O118 O 0.4776 0.38255 0.93811 0.0
O119 O 0.46227 0.42875 0.84686 0.0
O120 O 0.4584 0.26108 0.86334 0.0
C121 C 0.44263 0.40526 0.89811 0.0
O122 O 0.56919 0.5151 0.85095 0.0
C123 C 0.4455 0.26172 0.80447 0.0
O124 O 0.57253 0.4358 0.78108 0.0
O125 O 0.47919 0.29299 0.76832 0.0
C126 C 0.8954 0.15291 0.10192 0.0
O127 O 0.88181 0.14001 0.15907 0.0
Cd128 Cd 0.79928 0.17836 0.21171 0.0
O129 O 0.86683 0.19487 0.06975 0.0
Cd130 Cd 0.78299 0.27529 0.09834 0.0
C131 C 0.82729 0.33564 0.24516 0.0
O132 O 0.72773 0.1916 0.13246 0.0
O133 O 0.71244 0.28284 0.17869 0.0
O134 O 0.70847 0.26634 0.01094 0.0
C135 C 0.69277 0.23161 0.15518 0.0
O136 O 0.81925 0.27887 0.26494 0.0
C137 C 0.69548 0.32518 0.01169 0.0
O138 O 0.82261 0.34872 0.18563 0.0
O139 O 0.72912 0.36134 0.043 0.0
C140 C 0.77436 0.52759 0.47685 0.0
O141 O 0.78791 0.47041 0.48969 0.0
Cd142 Cd 0.87046 0.41785 0.45125 0.0
O143 O 0.80292 0.55976 0.43488 0.0
Cd144 Cd 0.8867 0.53126 0.35437 0.0
C145 C 0.84251 0.38443 0.29396 0.0
O146 O 0.94193 0.49721 0.43811 0.0
O147 O 0.95742 0.45108 0.34686 0.0
O148 O -0.03882 0.61869 0.36335 0.0
C149 C -0.02302 0.47459 0.39815 0.0
O150 O 0.85054 0.36463 0.35073 0.0
C151 C -0.02593 0.61808 0.30448 0.0
O152 O 0.84716 0.44397 0.2809 0.0
O153 O 0.94038 0.58684 0.26831 0.0
C154 C 0.89537 0.72702 0.27793 0.0
O155 O 0.88177 0.73993 0.22078 0.0
Cd156 Cd 0.79924 0.70158 0.16814 0.0
O157 O 0.8668 0.68506 0.31009 0.0
Cd158 Cd 0.78294 0.60467 0.28151 0.0
C159 C 0.82727 0.5443 0.13472 0.0
O160 O 0.72766 0.68834 0.24736 0.0
O161 O 0.7124 0.59707 0.20116 0.0
O162 O 0.70845 0.61366 0.36894 0.0
C163 C 0.69271 0.64829 0.22466 0.0
O164 O 0.81923 0.60108 0.11493 0.0
C165 C 0.69544 0.55482 0.36821 0.0
O166 O 0.82259 0.53123 0.19426 0.0
O167 O 0.72908 0.51865 0.3369 0.0
C168 C 0.52453 0.15311 0.77789 0.0
O169 O 0.53812 0.14021 0.72074 0.0
Cd170 Cd 0.6206 0.17866 0.66807 0.0
O171 O 0.55305 0.19513 0.81003 0.0
Cd172 Cd 0.63683 0.27564 0.78145 0.0
C173 C 0.59252 0.33591 0.63458 0.0
O174 O 0.6921 0.19196 0.74737 0.0
O175 O 0.70747 0.28321 0.7012 0.0
O176 O 0.71135 0.26672 0.8688 0.0
C177 C 0.7271 0.23193 0.72466 0.0
O178 O 0.60057 0.27914 0.61479 0.0
C179 C 0.72422 0.32559 0.86818 0.0
O180 O 0.59721 0.34899 0.69411 0.0
O181 O 0.69051 0.36175 0.83696 0.0
C182 C 0.77076 0.78057 -0.00369 0.0
O183 O 0.81626 0.76902 0.02743 0.0
Cd184 Cd 0.90912 0.81537 0.02411 0.0
O185 O 0.77055 0.81531 -0.05483 0.0
Cd186 Cd 0.84424 0.87483 0.87165 0.0
C187 C -0.03109 0.77044 0.88161 0.0
O188 O 0.87065 0.90173 -0.02777 0.0
O189 O 0.86898 -0.01833 0.9094 0.0
O190 O 0.79072 -0.05953 0.79017 0.0
C191 C 0.88791 -0.04341 -0.04036 0.0
O192 O -0.03098 0.76928 -0.05761 0.0
C193 C 0.83568 -0.03553 0.76492 0.0
O194 O 0.93129 0.80232 0.85019 0.0
O195 O 0.88284 -0.05773 0.78457 0.0
C196 C 0.8989 0.24629 0.53043 0.0
O197 O 0.85341 0.2774 0.51882 0.0
Cd198 Cd 0.76045 0.27415 0.56497 0.0
O199 O 0.89908 0.19516 0.56518 0.0
Cd200 Cd 0.82533 0.12169 0.62465 0.0
C201 C 0.70068 0.13161 0.52021 0.0
O202 O 0.79881 0.22224 0.65136 0.0
O203 O 0.80088 0.15968 0.7315 0.0
O204 O 0.87875 0.04021 0.69033 0.0
C205 C 0.78183 0.20985 0.70637 0.0
O206 O 0.70058 0.19239 0.51891 0.0
C207 C 0.83377 0.01501 0.71436 0.0
O208 O 0.73826 0.10023 0.55218 0.0
O209 O 0.78662 0.0347 0.69217 0.0
C210 C 0.64885 0.09941 0.49621 0.0
O211 O 0.60335 0.11098 0.52733 0.0
Cd212 Cd 0.51043 0.06475 0.52405 0.0
O213 O 0.64904 0.06468 0.44507 0.0
Cd214 Cd 0.57534 0.00518 0.3716 0.0
C215 C 0.45068 0.1096 0.38152 0.0
O216 O 0.54882 -0.02161 0.47213 0.0
O217 O 0.55086 0.8983 0.4095 0.0
O218 O 0.62879 0.9395 0.29014 0.0
C219 C 0.5318 0.92341 0.45966 0.0
O220 O 0.45058 0.11085 0.4423 0.0
C221 C 0.58382 0.91548 0.26493 0.0
O222 O 0.48827 0.07765 0.35013 0.0
O223 O 0.53666 0.93769 0.28458 0.0
C224 C 0.52081 0.63359 0.03047 0.0
O225 O 0.56631 0.60249 0.01888 0.0
Cd226 Cd 0.65922 0.60582 0.06517 0.0
O227 O 0.52061 0.68471 0.06522 0.0
Cd228 Cd 0.59428 0.75823 0.12472 0.0
C229 C 0.71894 0.74836 0.02032 0.0
O230 O 0.62081 0.6577 0.15155 0.0
O231 O 0.61883 0.7204 0.23159 0.0
O232 O 0.54077 0.83971 0.19035 0.0
C233 C 0.63789 0.67023 0.20649 0.0
O234 O 0.71908 0.68758 0.01909 0.0
C235 C 0.58573 0.86493 0.21439 0.0
O236 O 0.68133 0.77974 0.05225 0.0
O237 O 0.6329 0.84526 0.19221 0.0
C238 C 0.77087 0.09934 0.38365 0.0
O239 O 0.81637 0.11092 0.35254 0.0
Cd240 Cd 0.90928 0.0647 0.35585 0.0
O241 O 0.77067 0.06462 0.4348 0.0
Cd242 Cd 0.84439 0.00515 0.50832 0.0
C243 C -0.03099 0.10962 0.49837 0.0
O244 O 0.87086 -0.02166 0.40776 0.0
O245 O 0.86903 0.89831 0.47047 0.0
O246 O 0.79092 0.93946 0.58978 0.0
C247 C 0.888 0.92342 0.42026 0.0
O248 O -0.03088 0.11083 0.4376 0.0
C249 C 0.83589 0.91545 0.61501 0.0
O250 O 0.93142 0.07768 0.52978 0.0
O251 O 0.88305 0.93767 0.59536 0.0
C252 C 0.52091 0.24619 0.34939 0.0
O253 O 0.5664 0.27732 0.36093 0.0
Cd254 Cd 0.65932 0.27404 0.3147 0.0
O255 O 0.52072 0.19504 0.31466 0.0
Cd256 Cd 0.59442 0.12157 0.25515 0.0
C257 C 0.71904 0.13152 0.35961 0.0
O258 O 0.62093 0.22211 0.22834 0.0
O259 O 0.61893 0.15944 0.14828 0.0
O260 O 0.54096 0.04012 0.18947 0.0
C261 C 0.63798 0.20962 0.17338 0.0
O262 O 0.71916 0.1923 0.36084 0.0
C263 C 0.58593 0.0149 0.16546 0.0
O264 O 0.68147 0.10011 0.32765 0.0
O265 O 0.63309 0.03454 0.18767 0.0
C266 C 0.64896 0.78043 0.88359 0.0
O267 O 0.60346 0.76882 0.85249 0.0
Cd268 Cd 0.51054 0.81509 0.85581 0.0
O269 O 0.64916 0.81519 0.9347 0.0
Cd270 Cd 0.57548 0.87469 0.00821 0.0
C271 C 0.4508 0.7703 -0.00164 0.0
O272 O 0.54892 0.90149 0.90769 0.0
O273 O 0.55098 -0.01843 -0.02967 0.0
O274 O 0.62898 -0.05968 0.08969 0.0
C275 C 0.53189 -0.04354 0.92018 0.0
O276 O 0.45067 0.76904 0.93759 0.0
C277 C 0.58402 -0.03564 0.1149 0.0
O278 O 0.48842 0.80223 0.02973 0.0
O279 O 0.53685 -0.05781 0.09523 0.0
C280 C 0.89902 0.6336 0.84949 0.0
O281 O 0.85353 0.60247 0.86108 0.0
Cd282 Cd 0.76062 0.60573 0.8148 0.0
O283 O 0.8992 0.68472 0.81474 0.0
Cd284 Cd 0.82548 0.75818 0.75522 0.0
C285 C 0.7008 0.74824 0.85959 0.0
O286 O 0.79901 0.65762 0.72841 0.0
O287 O 0.80094 0.72027 0.64838 0.0
O288 O 0.87895 0.83968 0.68958 0.0
C289 C 0.78192 0.67006 0.67346 0.0
O290 O 0.70069 0.68746 0.86083 0.0
C291 C 0.83399 0.8649 0.66556 0.0
O292 O 0.7384 0.77965 0.82767 0.0
O293 O 0.78682 0.84522 0.68774 0.0
C294 C 0.27077 0.5995 0.88362 0.0
O295 O 0.31626 0.61109 0.8525 0.0
Cd296 Cd 0.40918 0.5648 0.85575 0.0
O297 O 0.27059 0.56474 0.93475 0.0
Cd298 Cd 0.3443 0.50522 0.0082 0.0
C299 C 0.46898 0.60959 -0.00173 0.0
O300 O 0.37078 0.47842 0.90765 0.0
O301 O 0.36881 0.39835 -0.02969 0.0
O302 O 0.29082 0.43959 0.0897 0.0
C303 C 0.38784 0.42346 0.92012 0.0
O304 O 0.46909 0.61083 0.93749 0.0
C305 C 0.33578 0.41556 0.11491 0.0
O306 O 0.43137 0.57767 0.02967 0.0
O307 O 0.38295 0.43773 0.09524 0.0
C308 C 0.02075 0.74641 0.84945 0.0
O309 O 0.06625 0.7775 0.86106 0.0
Cd310 Cd 0.15916 0.77421 0.81481 0.0
O311 O 0.02055 0.69528 0.8147 0.0
Cd312 Cd 0.09427 0.62175 0.75523 0.0
C313 C 0.21893 0.63169 0.85964 0.0
O314 O 0.12074 0.72233 0.72843 0.0
O315 O 0.1189 0.65963 0.64839 0.0
O316 O 0.04079 0.54025 0.68959 0.0
C317 C 0.13787 0.70984 0.6735 0.0
O318 O 0.21906 0.69247 0.86086 0.0
C319 C 0.08575 0.51503 0.66557 0.0
O320 O 0.18133 0.60029 0.82772 0.0
O321 O 0.13291 0.53471 0.68775 0.0
C322 C 0.14893 0.28059 0.38369 0.0
O323 O 0.10345 0.26903 0.35255 0.0
Cd324 Cd 0.01054 0.31525 0.3558 0.0
O325 O 0.14912 0.3153 0.43485 0.0
Cd326 Cd 0.07536 0.37478 0.50832 0.0
C327 C 0.95075 0.27031 0.49829 0.0
O328 O 0.04895 0.4016 0.40773 0.0
O329 O 0.0507 0.48162 0.47046 0.0
O330 O 0.12882 0.44048 0.58979 0.0
C331 C 0.03178 0.45651 0.42022 0.0
O332 O 0.95065 0.26912 0.43752 0.0
C333 C 0.08385 0.46447 0.61503 0.0
O334 O -0.01168 0.30226 0.52973 0.0
O335 O 0.03669 0.44225 0.59538 0.0
C336 C 0.02084 0.13365 0.53055 0.0
O337 O 0.06633 0.10252 0.51897 0.0
Cd338 Cd 0.15925 0.10578 0.56519 0.0
O339 O 0.02065 0.1848 0.56527 0.0
Cd340 Cd 0.09441 0.25827 0.62476 0.0
C341 C 0.21905 0.24828 0.52033 0.0
O342 O 0.12082 0.15768 0.65155 0.0
O343 O 0.119 0.22037 0.7316 0.0
O344 O 0.04097 0.33975 0.69045 0.0
C345 C 0.13794 0.17014 0.70648 0.0
O346 O 0.21914 0.1875 0.5191 0.0
C347 C 0.08594 0.36497 0.71446 0.0
O348 O 0.18147 0.27969 0.55227 0.0
O349 O 0.1331 0.34531 0.69224 0.0
C350 C 0.39899 0.74629 0.03059 0.0
O351 O 0.35349 0.7774 0.01904 0.0
Cd352 Cd 0.26062 0.77408 0.06538 0.0
O353 O 0.3992 0.69515 0.06532 0.0
Cd354 Cd 0.32552 0.62162 0.12484 0.0
C355 C 0.20086 0.63156 0.02045 0.0
O356 O 0.29909 0.72219 0.15174 0.0
O357 O 0.3008 0.65937 0.23169 0.0
O358 O 0.37906 0.54016 0.19049 0.0
C359 C 0.28185 0.7096 0.2066 0.0
O360 O 0.20073 0.69234 0.01928 0.0
C361 C 0.3341 0.51491 0.21449 0.0
O362 O 0.23848 0.60014 0.05234 0.0
O363 O 0.28693 0.53455 0.19229 0.0
C364 C 0.64522 0.52804 0.40304 0.0
O365 O 0.63162 0.47089 0.39013 0.0
Cd366 Cd 0.54914 0.4182 0.42856 0.0
O367 O 0.61671 0.56017 0.44507 0.0
Cd368 Cd 0.53292 0.53157 0.52556 0.0
C369 C 0.57725 0.3847 0.5858 0.0
O370 O 0.47762 0.49747 0.4419 0.0
O371 O 0.46232 0.45127 0.53315 0.0
O372 O 0.45838 0.61891 0.51664 0.0
C373 C 0.44266 0.47472 0.48189 0.0
O374 O 0.5692 0.36492 0.52902 0.0
C375 C 0.44548 0.61826 0.57551 0.0
O376 O 0.57255 0.44422 0.59889 0.0
O377 O 0.47918 0.58702 0.61166 0.0
C378 C 0.7744 0.35241 0.90305 0.0
O379 O 0.78797 0.40958 0.8902 0.0
Cd380 Cd 0.87052 0.46213 0.92864 0.0
O381 O 0.80296 0.32023 -0.05499 0.0
Cd382 Cd 0.88675 0.34871 0.0255 0.0
C383 C 0.84252 0.49552 0.08593 0.0
O384 O 0.94202 0.3828 -0.0582 0.0
O385 O 0.95746 0.4289 0.03308 0.0
O386 O -0.03879 0.26126 0.0165 0.0
C387 C -0.02295 0.4054 -0.0182 0.0
O388 O 0.85057 0.51533 0.02916 0.0
C389 C -0.0259 0.26185 0.07537 0.0
O390 O 0.84718 0.43598 0.09898 0.0
O391 O 0.94042 0.29309 0.11154 0.0
C392 C 0.52452 0.72687 0.60207 0.0
O393 O 0.53812 0.73979 0.65922 0.0
Cd394 Cd 0.62061 0.70135 0.71189 0.0
O395 O 0.55305 0.68485 0.56994 0.0
Cd396 Cd 0.63684 0.60438 0.59853 0.0
C397 C 0.59252 0.54411 0.7454 0.0
O398 O 0.69214 0.68806 0.63261 0.0
O399 O 0.70751 0.59677 0.67876 0.0
O400 O 0.71134 0.61329 0.51114 0.0
C401 C 0.72712 0.64804 0.65529 0.0
O402 O 0.60057 0.60088 0.76518 0.0
C403 C 0.7242 0.55441 0.51174 0.0
O404 O 0.59722 0.53103 0.68587 0.0
O405 O 0.69049 0.51827 0.54298 0.0
C406 C 0.2709 0.28043 0.49632 0.0
O407 O 0.3164 0.26881 0.52742 0.0
Cd408 Cd 0.40936 0.31496 0.52414 0.0
O409 O 0.27071 0.31517 0.44518 0.0
Cd410 Cd 0.34444 0.37463 0.3717 0.0
C411 C 0.46908 0.27017 0.3816 0.0
O412 O 0.37102 0.40134 0.47222 0.0
O413 O 0.36883 0.48151 0.40969 0.0
O414 O 0.29103 0.44031 0.29021 0.0
C415 C 0.38793 0.45638 0.45983 0.0
O416 O 0.4692 0.26888 0.44237 0.0
C417 C 0.336 0.46435 0.26503 0.0
O418 O 0.43151 0.30217 0.35023 0.0
O419 O 0.38316 0.44216 0.28472 0.0
C420 C 0.14903 0.59939 -0.00359 0.0
O421 O 0.10352 0.61099 0.0275 0.0
Cd422 Cd 0.01062 0.56472 0.02419 0.0
O423 O 0.14923 0.56464 -0.05473 0.0
Cd424 Cd 0.07552 0.50518 0.87173 0.0
C425 C 0.95086 0.6096 0.88167 0.0
O426 O 0.04907 0.47835 -0.02769 0.0
O427 O 0.05082 0.39835 0.90956 0.0
O428 O 0.12901 0.43953 0.79024 0.0
C429 C 0.03188 0.42345 -0.04021 0.0
O430 O 0.95073 0.6108 -0.05755 0.0
C431 C 0.08404 0.41552 0.76501 0.0
O432 O -0.01153 0.57769 0.85026 0.0
O433 O 0.03688 0.4377 0.78468 0.0
C434 C 0.39887 0.13364 0.34933 0.0
O435 O 0.35336 0.10254 0.3609 0.0
Cd436 Cd 0.26044 0.10587 0.31471 0.0
O437 O 0.39907 0.1848 0.31462 0.0
Cd438 Cd 0.32537 0.25834 0.25517 0.0
C439 C 0.20076 0.24841 0.35966 0.0
O440 O 0.29884 0.1578 0.22835 0.0
O441 O 0.30076 0.2205 0.14831 0.0
O442 O 0.37884 0.33979 0.18948 0.0
C443 C 0.28174 0.17031 0.17342 0.0
O444 O 0.20063 0.18763 0.36087 0.0
C445 C 0.33387 0.36502 0.16547 0.0
O446 O 0.23834 0.27981 0.3277 0.0
O447 O 0.28671 0.34537 0.18768 0.0
loop_
_geom_bond_atom_site_label_1
_geom_bond_atom_site_label_2
_geom_bond_distance
_geom_bond_site_symmetry_2
_ccdc_geom_bond_type
C0 O1 1.306 1_554 S
C0 O3 1.160 . S
O1 C0 1.306 1_556 S
O1 Cd2 2.228 1_546 S
Cd2 O1 2.228 1_564 S
Cd2 O6 2.273 1_565 S
Cd2 O10 2.277 . S
O3 C0 1.160 . S
O3 Cd4 2.203 . S
Cd4 O3 2.203 . S
Cd4 O6 2.411 . S
Cd4 O7 2.333 1_455 S
Cd4 O8 2.352 . S
Cd4 O12 2.277 . S
Cd4 O13 2.356 . S
C5 O10 1.209 1_545 S
C5 O12 1.226 . S
O6 Cd2 2.273 1_545 S
O6 Cd4 2.411 . S
O6 C9 1.320 . S
O7 Cd4 2.333 1_655 S
O7 C9 1.214 1_655 S
O8 Cd4 2.352 . S
O8 C11 1.253 1_455 S
C9 O6 1.320 . S
C9 O7 1.214 1_455 S
O10 Cd2 2.277 . S
O10 C5 1.209 1_565 S
C11 O8 1.253 1_655 S
C11 O13 1.280 1_655 S
O12 Cd4 2.277 . S
O12 C5 1.226 . S
O13 Cd4 2.356 . S
O13 C11 1.280 1_455 S
C14 O15 1.306 . S
C14 O17 1.160 . S
O15 C14 1.306 . S
O15 Cd16 2.228 . S
Cd16 O15 2.228 . S
Cd16 O20 2.273 . S
Cd16 O24 2.277 . S
O17 C14 1.160 . S
O17 Cd18 2.203 . S
Cd18 O17 2.203 . S
Cd18 O20 2.411 . S
Cd18 O21 2.333 . S
Cd18 O22 2.352 . S
Cd18 O26 2.277 . S
Cd18 O27 2.356 . S
C19 O24 1.209 . S
C19 O26 1.226 . S
O20 Cd16 2.273 . S
O20 Cd18 2.411 . S
O20 C23 1.320 . S
O21 Cd18 2.333 . S
O21 C23 1.214 . S
O22 Cd18 2.352 . S
O22 C25 1.258 . S
C23 O20 1.320 . S
C23 O21 1.214 . S
O24 Cd16 2.277 . S
O24 C19 1.209 . S
C25 O22 1.258 . S
C25 O27 1.282 . S
O26 Cd18 2.277 . S
O26 C19 1.226 . S
O27 Cd18 2.356 . S
O27 C25 1.282 . S
C28 O29 1.306 . S
C28 O31 1.160 . S
O29 C28 1.306 . S
O29 Cd30 2.228 1_565 S
Cd30 O29 2.228 1_545 S
Cd30 O34 2.273 1_545 S
Cd30 O38 2.277 . S
O31 C28 1.160 . S
O31 Cd32 2.203 . S
Cd32 O31 2.203 . S
Cd32 O34 2.411 . S
Cd32 O35 2.333 . S
Cd32 O36 2.352 . S
Cd32 O40 2.277 . S
Cd32 O41 2.356 . S
C33 O38 1.209 1_565 S
C33 O40 1.226 . S
O34 Cd30 2.273 1_565 S
O34 Cd32 2.411 . S
O34 C37 1.320 . S
O35 Cd32 2.333 . S
O35 C37 1.214 . S
O36 Cd32 2.352 . S
O36 C39 1.258 . S
C37 O34 1.320 . S
C37 O35 1.214 . S
O38 Cd30 2.277 . S
O38 C33 1.209 1_545 S
C39 O36 1.258 . S
C39 O41 1.282 . S
O40 Cd32 2.277 . S
O40 C33 1.226 . S
O41 Cd32 2.356 . S
O41 C39 1.282 . S
C42 O43 1.306 . S
C42 O45 1.160 . S
O43 C42 1.306 . S
O43 Cd44 2.228 . S
Cd44 O43 2.228 . S
Cd44 O48 2.273 . S
Cd44 O52 2.277 . S
O45 C42 1.160 . S
O45 Cd46 2.203 . S
Cd46 O45 2.203 . S
Cd46 O48 2.411 . S
Cd46 O49 2.333 . S
Cd46 O50 2.352 . S
Cd46 O54 2.277 . S
Cd46 O55 2.356 . S
C47 O52 1.209 . S
C47 O54 1.226 . S
O48 Cd44 2.273 . S
O48 Cd46 2.411 . S
O48 C51 1.320 . S
O49 Cd46 2.333 . S
O49 C51 1.214 . S
O50 Cd46 2.352 . S
O50 C53 1.258 . S
C51 O48 1.320 . S
C51 O49 1.214 . S
O52 Cd44 2.277 . S
O52 C47 1.209 . S
C53 O50 1.258 . S
C53 O55 1.282 . S
O54 Cd46 2.277 . S
O54 C47 1.226 . S
O55 Cd46 2.356 . S
O55 C53 1.282 . S
C56 O57 1.306 . S
C56 O59 1.160 . S
O57 C56 1.306 . S
O57 Cd58 2.228 1_565 S
Cd58 O57 2.228 1_545 S
Cd58 O62 2.273 1_545 S
Cd58 O66 2.277 . S
O59 C56 1.160 . S
O59 Cd60 2.203 . S
Cd60 O59 2.203 . S
Cd60 O62 2.411 . S
Cd60 O63 2.333 1_455 S
Cd60 O64 2.352 . S
Cd60 O68 2.277 . S
Cd60 O69 2.356 . S
C61 O66 1.209 1_565 S
C61 O68 1.226 . S
O62 Cd58 2.273 1_565 S
O62 Cd60 2.411 . S
O62 C65 1.320 . S
O63 Cd60 2.333 1_655 S
O63 C65 1.214 1_655 S
O64 Cd60 2.352 . S
O64 C67 1.253 1_455 S
C65 O62 1.320 . S
C65 O63 1.214 1_455 S
O66 Cd58 2.277 . S
O66 C61 1.209 1_545 S
C67 O64 1.253 1_655 S
C67 O69 1.280 1_655 S
O68 Cd60 2.277 . S
O68 C61 1.226 . S
O69 Cd60 2.356 . S
O69 C67 1.280 1_455 S
C70 O71 1.306 . S
C70 O73 1.160 . S
O71 C70 1.306 . S
O71 Cd72 2.228 . S
Cd72 O71 2.228 . S
Cd72 O76 2.273 . S
Cd72 O80 2.277 . S
O73 C70 1.160 . S
O73 Cd74 2.203 . S
Cd74 O73 2.203 . S
Cd74 O76 2.411 . S
Cd74 O77 2.333 . S
Cd74 O78 2.352 . S
Cd74 O82 2.277 . S
Cd74 O83 2.356 . S
C75 O80 1.209 . S
C75 O82 1.226 . S
O76 Cd72 2.273 . S
O76 Cd74 2.411 . S
O76 C79 1.320 . S
O77 Cd74 2.333 . S
O77 C79 1.214 . S
O78 Cd74 2.352 . S
O78 C81 1.258 . S
C79 O76 1.320 . S
C79 O77 1.214 . S
O80 Cd72 2.277 . S
O80 C75 1.209 . S
C81 O78 1.258 . S
C81 O83 1.282 . S
O82 Cd74 2.277 . S
O82 C75 1.226 . S
O83 Cd74 2.356 . S
O83 C81 1.282 . S
C84 O85 1.306 1_556 S
C84 O87 1.160 . S
O85 C84 1.306 1_554 S
O85 Cd86 2.228 1_544 S
Cd86 O85 2.228 1_566 S
Cd86 O90 2.273 1_565 S
Cd86 O94 2.277 . S
O87 C84 1.160 . S
O87 Cd88 2.203 . S
Cd88 O87 2.203 . S
Cd88 O90 2.411 . S
Cd88 O91 2.333 . S
Cd88 O92 2.352 . S
Cd88 O96 2.277 . S
Cd88 O97 2.356 . S
C89 O94 1.209 1_545 S
C89 O96 1.226 . S
O90 Cd86 2.273 1_545 S
O90 Cd88 2.411 . S
O90 C93 1.320 . S
O91 Cd88 2.333 . S
O91 C93 1.214 . S
O92 Cd88 2.352 . S
O92 C95 1.258 . S
C93 O90 1.320 . S
C93 O91 1.214 . S
O94 Cd86 2.277 . S
O94 C89 1.209 1_565 S
C95 O92 1.258 . S
C95 O97 1.282 . S
O96 Cd88 2.277 . S
O96 C89 1.226 . S
O97 Cd88 2.356 . S
O97 C95 1.282 . S
C98 O99 1.306 . S
C98 O101 1.160 . S
O99 C98 1.306 . S
O99 Cd100 2.228 . S
Cd100 O99 2.228 . S
Cd100 O104 2.273 . S
Cd100 O108 2.277 . S
O101 C98 1.160 . S
O101 Cd102 2.203 . S
Cd102 O101 2.203 . S
Cd102 O104 2.411 . S
Cd102 O105 2.333 . S
Cd102 O106 2.352 . S
Cd102 O110 2.277 . S
Cd102 O111 2.356 . S
C103 O108 1.209 . S
C103 O110 1.226 . S
O104 Cd100 2.273 . S
O104 Cd102 2.411 . S
O104 C107 1.320 . S
O105 Cd102 2.333 . S
O105 C107 1.214 . S
O106 Cd102 2.352 . S
O106 C109 1.258 . S
C107 O104 1.320 . S
C107 O105 1.214 . S
O108 Cd100 2.277 . S
O108 C103 1.209 . S
C109 O106 1.258 . S
C109 O111 1.282 . S
O110 Cd102 2.277 . S
O110 C103 1.226 . S
O111 Cd102 2.356 . S
O111 C109 1.282 . S
C112 O113 1.306 1_556 S
C112 O115 1.160 . S
O113 C112 1.306 1_554 S
O113 Cd114 2.228 1_554 S
Cd114 O113 2.228 1_556 S
Cd114 O118 2.273 . S
Cd114 O122 2.277 . S
O115 C112 1.160 . S
O115 Cd116 2.203 . S
Cd116 O115 2.203 . S
Cd116 O118 2.411 . S
Cd116 O119 2.333 . S
Cd116 O120 2.352 . S
Cd116 O124 2.277 . S
Cd116 O125 2.356 . S
C117 O122 1.209 . S
C117 O124 1.226 . S
O118 Cd114 2.273 . S
O118 Cd116 2.411 . S
O118 C121 1.320 . S
O119 Cd116 2.333 . S
O119 C121 1.214 . S
O120 Cd116 2.352 . S
O120 C123 1.258 . S
C121 O118 1.320 . S
C121 O119 1.214 . S
O122 Cd114 2.277 . S
O122 C117 1.209 . S
C123 O120 1.258 . S
C123 O125 1.282 . S
O124 Cd116 2.277 . S
O124 C117 1.226 . S
O125 Cd116 2.356 . S
O125 C123 1.282 . S
C126 O127 1.306 . S
C126 O129 1.160 . S
O127 C126 1.306 . S
O127 Cd128 2.228 . S
Cd128 O127 2.228 . S
Cd128 O132 2.273 . S
Cd128 O136 2.277 . S
O129 C126 1.160 . S
O129 Cd130 2.203 . S
Cd130 O129 2.203 . S
Cd130 O132 2.411 . S
Cd130 O133 2.333 . S
Cd130 O134 2.352 . S
Cd130 O138 2.277 . S
Cd130 O139 2.356 . S
C131 O136 1.209 . S
C131 O138 1.226 . S
O132 Cd128 2.273 . S
O132 Cd130 2.411 . S
O132 C135 1.320 . S
O133 Cd130 2.333 . S
O133 C135 1.214 . S
O134 Cd130 2.352 . S
O134 C137 1.258 . S
C135 O132 1.320 . S
C135 O133 1.214 . S
O136 Cd128 2.277 . S
O136 C131 1.209 . S
C137 O134 1.258 . S
C137 O139 1.282 . S
O138 Cd130 2.277 . S
O138 C131 1.226 . S
O139 Cd130 2.356 . S
O139 C137 1.282 . S
C140 O141 1.306 . S
C140 O143 1.160 . S
O141 C140 1.306 . S
O141 Cd142 2.228 . S
Cd142 O141 2.228 . S
Cd142 O146 2.273 . S
Cd142 O150 2.277 . S
O143 C140 1.160 . S
O143 Cd144 2.203 . S
Cd144 O143 2.203 . S
Cd144 O146 2.411 . S
Cd144 O147 2.333 1_655 S
Cd144 O148 2.352 . S
Cd144 O152 2.277 . S
Cd144 O153 2.356 . S
C145 O150 1.209 . S
C145 O152 1.226 . S
O146 Cd142 2.273 . S
O146 Cd144 2.411 . S
O146 C149 1.320 . S
O147 Cd144 2.333 1_455 S
O147 C149 1.214 1_455 S
O148 Cd144 2.352 . S
O148 C151 1.253 1_655 S
C149 O146 1.320 . S
C149 O147 1.214 1_655 S
O150 Cd142 2.277 . S
O150 C145 1.209 . S
C151 O148 1.253 1_455 S
C151 O153 1.280 1_455 S
O152 Cd144 2.277 . S
O152 C145 1.226 . S
O153 Cd144 2.356 . S
O153 C151 1.280 1_655 S
C154 O155 1.306 . S
C154 O157 1.160 . S
O155 C154 1.306 . S
O155 Cd156 2.228 . S
Cd156 O155 2.228 . S
Cd156 O160 2.273 . S
Cd156 O164 2.277 . S
O157 C154 1.160 . S
O157 Cd158 2.203 . S
Cd158 O157 2.203 . S
Cd158 O160 2.411 . S
Cd158 O161 2.333 . S
Cd158 O162 2.352 . S
Cd158 O166 2.277 . S
Cd158 O167 2.356 . S
C159 O164 1.209 . S
C159 O166 1.226 . S
O160 Cd156 2.273 . S
O160 Cd158 2.411 . S
O160 C163 1.320 . S
O161 Cd158 2.333 . S
O161 C163 1.214 . S
O162 Cd158 2.352 . S
O162 C165 1.258 . S
C163 O160 1.320 . S
C163 O161 1.214 . S
O164 Cd156 2.277 . S
O164 C159 1.209 . S
C165 O162 1.258 . S
C165 O167 1.282 . S
O166 Cd158 2.277 . S
O166 C159 1.226 . S
O167 Cd158 2.356 . S
O167 C165 1.282 . S
C168 O169 1.306 . S
C168 O171 1.160 . S
O169 C168 1.306 . S
O169 Cd170 2.228 . S
Cd170 O169 2.228 . S
Cd170 O174 2.273 . S
Cd170 O178 2.277 . S
O171 C168 1.160 . S
O171 Cd172 2.203 . S
Cd172 O171 2.203 . S
Cd172 O174 2.411 . S
Cd172 O175 2.333 . S
Cd172 O176 2.352 . S
Cd172 O180 2.277 . S
Cd172 O181 2.356 . S
C173 O178 1.209 . S
C173 O180 1.226 . S
O174 Cd170 2.273 . S
O174 Cd172 2.411 . S
O174 C177 1.320 . S
O175 Cd172 2.333 . S
O175 C177 1.214 . S
O176 Cd172 2.352 . S
O176 C179 1.258 . S
C177 O174 1.320 . S
C177 O175 1.214 . S
O178 Cd170 2.277 . S
O178 C173 1.209 . S
C179 O176 1.258 . S
C179 O181 1.282 . S
O180 Cd172 2.277 . S
O180 C173 1.226 . S
O181 Cd172 2.356 . S
O181 C179 1.282 . S
C182 O183 1.306 1_556 S
C182 O185 1.160 . S
O183 C182 1.306 1_554 S
O183 Cd184 2.228 . S
Cd184 O183 2.228 . S
Cd184 O188 2.273 . S
Cd184 O192 2.277 1_554 S
O185 C182 1.160 . S
O185 Cd186 2.203 . S
Cd186 O185 2.203 . S
Cd186 O188 2.411 1_556 S
Cd186 O189 2.335 . S
Cd186 O190 2.352 . S
Cd186 O194 2.277 . S
Cd186 O195 2.356 . S
C187 O192 1.209 . S
C187 O194 1.226 . S
O188 Cd184 2.273 . S
O188 Cd186 2.411 1_554 S
O188 C191 1.320 1_554 S
O189 Cd186 2.335 . S
O189 C191 1.214 . S
O190 Cd186 2.352 . S
O190 C193 1.258 . S
C191 O188 1.320 1_556 S
C191 O189 1.214 . S
O192 Cd184 2.277 1_556 S
O192 C187 1.209 . S
C193 O190 1.258 . S
C193 O195 1.282 . S
O194 Cd186 2.277 . S
O194 C187 1.226 . S
O195 Cd186 2.356 . S
O195 C193 1.282 . S
C196 O197 1.306 . S
C196 O199 1.160 . S
O197 C196 1.306 . S
O197 Cd198 2.228 . S
Cd198 O197 2.228 . S
Cd198 O202 2.273 . S
Cd198 O206 2.277 . S
O199 C196 1.160 . S
O199 Cd200 2.203 . S
Cd200 O199 2.203 . S
Cd200 O202 2.411 . S
Cd200 O203 2.333 . S
Cd200 O204 2.352 . S
Cd200 O208 2.277 . S
Cd200 O209 2.356 . S
C201 O206 1.209 . S
C201 O208 1.226 . S
O202 Cd198 2.273 . S
O202 Cd200 2.411 . S
O202 C205 1.320 . S
O203 Cd200 2.333 . S
O203 C205 1.214 . S
O204 Cd200 2.352 . S
O204 C207 1.258 . S
C205 O202 1.320 . S
C205 O203 1.214 . S
O206 Cd198 2.277 . S
O206 C201 1.209 . S
C207 O204 1.258 . S
C207 O209 1.282 . S
O208 Cd200 2.277 . S
O208 C201 1.226 . S
O209 Cd200 2.356 . S
O209 C207 1.282 . S
C210 O211 1.306 . S
C210 O213 1.160 . S
O211 C210 1.306 . S
O211 Cd212 2.228 . S
Cd212 O211 2.228 . S
Cd212 O216 2.273 . S
Cd212 O220 2.277 . S
O213 C210 1.160 . S
O213 Cd214 2.203 . S
Cd214 O213 2.203 . S
Cd214 O216 2.411 . S
Cd214 O217 2.333 . S
Cd214 O218 2.352 . S
Cd214 O222 2.277 . S
Cd214 O223 2.356 . S
C215 O220 1.209 . S
C215 O222 1.226 . S
O216 Cd212 2.273 . S
O216 Cd214 2.411 . S
O216 C219 1.320 . S
O217 Cd214 2.333 . S
O217 C219 1.214 . S
O218 Cd214 2.352 . S
O218 C221 1.258 . S
C219 O216 1.320 . S
C219 O217 1.214 . S
O220 Cd212 2.277 . S
O220 C215 1.209 . S
C221 O218 1.258 . S
C221 O223 1.282 . S
O222 Cd214 2.277 . S
O222 C215 1.226 . S
O223 Cd214 2.356 . S
O223 C221 1.282 . S
C224 O225 1.306 . S
C224 O227 1.160 . S
O225 C224 1.306 . S
O225 Cd226 2.228 . S
Cd226 O225 2.228 . S
Cd226 O230 2.273 . S
Cd226 O234 2.277 . S
O227 C224 1.160 . S
O227 Cd228 2.203 . S
Cd228 O227 2.203 . S
Cd228 O230 2.411 . S
Cd228 O231 2.333 . S
Cd228 O232 2.352 . S
Cd228 O236 2.277 . S
Cd228 O237 2.356 . S
C229 O234 1.209 . S
C229 O236 1.226 . S
O230 Cd226 2.273 . S
O230 Cd228 2.411 . S
O230 C233 1.320 . S
O231 Cd228 2.333 . S
O231 C233 1.214 . S
O232 Cd228 2.352 . S
O232 C235 1.258 . S
C233 O230 1.320 . S
C233 O231 1.214 . S
O234 Cd226 2.277 . S
O234 C229 1.209 . S
C235 O232 1.258 . S
C235 O237 1.282 . S
O236 Cd228 2.277 . S
O236 C229 1.226 . S
O237 Cd228 2.356 . S
O237 C235 1.282 . S
C238 O239 1.306 . S
C238 O241 1.160 . S
O239 C238 1.306 . S
O239 Cd240 2.228 . S
Cd240 O239 2.228 . S
Cd240 O244 2.273 . S
Cd240 O248 2.277 . S
O241 C238 1.160 . S
O241 Cd242 2.203 . S
Cd242 O241 2.203 . S
Cd242 O244 2.411 . S
Cd242 O245 2.335 . S
Cd242 O246 2.352 . S
Cd242 O250 2.277 . S
Cd242 O251 2.356 . S
C243 O248 1.209 . S
C243 O250 1.226 . S
O244 Cd240 2.273 . S
O244 Cd242 2.411 . S
O244 C247 1.320 . S
O245 Cd242 2.335 . S
O245 C247 1.214 . S
O246 Cd242 2.352 . S
O246 C249 1.258 . S
C247 O244 1.320 . S
C247 O245 1.214 . S
O248 Cd240 2.277 . S
O248 C243 1.209 . S
C249 O246 1.258 . S
C249 O251 1.282 . S
O250 Cd242 2.277 . S
O250 C243 1.226 . S
O251 Cd242 2.356 . S
O251 C249 1.282 . S
C252 O253 1.306 . S
C252 O255 1.160 . S
O253 C252 1.306 . S
O253 Cd254 2.228 . S
Cd254 O253 2.228 . S
Cd254 O258 2.273 . S
Cd254 O262 2.277 . S
O255 C252 1.160 . S
O255 Cd256 2.203 . S
Cd256 O255 2.203 . S
Cd256 O258 2.411 . S
Cd256 O259 2.333 . S
Cd256 O260 2.352 . S
Cd256 O264 2.277 . S
Cd256 O265 2.356 . S
C257 O262 1.209 . S
C257 O264 1.226 . S
O258 Cd254 2.273 . S
O258 Cd256 2.411 . S
O258 C261 1.320 . S
O259 Cd256 2.333 . S
O259 C261 1.214 . S
O260 Cd256 2.352 . S
O260 C263 1.258 . S
C261 O258 1.320 . S
C261 O259 1.214 . S
O262 Cd254 2.277 . S
O262 C257 1.209 . S
C263 O260 1.258 . S
C263 O265 1.282 . S
O264 Cd256 2.277 . S
O264 C257 1.226 . S
O265 Cd256 2.356 . S
O265 C263 1.282 . S
C266 O267 1.306 1_554 S
C266 O269 1.160 . S
O267 C266 1.306 1_556 S
O267 Cd268 2.228 . S
Cd268 O267 2.228 . S
Cd268 O272 2.273 . S
Cd268 O276 2.277 1_556 S
O269 C266 1.160 . S
O269 Cd270 2.203 . S
Cd270 O269 2.203 . S
Cd270 O272 2.411 1_554 S
Cd270 O273 2.333 . S
Cd270 O274 2.352 . S
Cd270 O278 2.277 . S
Cd270 O279 2.356 . S
C271 O276 1.209 . S
C271 O278 1.226 . S
O272 Cd268 2.273 . S
O272 Cd270 2.411 1_556 S
O272 C275 1.320 1_556 S
O273 Cd270 2.333 . S
O273 C275 1.214 . S
O274 Cd270 2.352 . S
O274 C277 1.258 . S
C275 O272 1.320 1_554 S
C275 O273 1.214 . S
O276 Cd268 2.277 1_554 S
O276 C271 1.209 . S
C277 O274 1.258 . S
C277 O279 1.282 . S
O278 Cd270 2.277 . S
O278 C271 1.226 . S
O279 Cd270 2.356 . S
O279 C277 1.282 . S
C280 O281 1.306 . S
C280 O283 1.160 . S
O281 C280 1.306 . S
O281 Cd282 2.228 . S
Cd282 O281 2.228 . S
Cd282 O286 2.273 . S
Cd282 O290 2.277 . S
O283 C280 1.160 . S
O283 Cd284 2.203 . S
Cd284 O283 2.203 . S
Cd284 O286 2.411 . S
Cd284 O287 2.333 . S
Cd284 O288 2.352 . S
Cd284 O292 2.277 . S
Cd284 O293 2.356 . S
C285 O290 1.209 . S
C285 O292 1.226 . S
O286 Cd282 2.273 . S
O286 Cd284 2.411 . S
O286 C289 1.320 . S
O287 Cd284 2.333 . S
O287 C289 1.214 . S
O288 Cd284 2.352 . S
O288 C291 1.258 . S
C289 O286 1.320 . S
C289 O287 1.214 . S
O290 Cd282 2.277 . S
O290 C285 1.209 . S
C291 O288 1.258 . S
C291 O293 1.282 . S
O292 Cd284 2.277 . S
O292 C285 1.226 . S
O293 Cd284 2.356 . S
O293 C291 1.282 . S
C294 O295 1.306 1_554 S
C294 O297 1.160 . S
O295 C294 1.306 1_556 S
O295 Cd296 2.228 . S
Cd296 O295 2.228 . S
Cd296 O300 2.273 . S
Cd296 O304 2.277 1_556 S
O297 C294 1.160 . S
O297 Cd298 2.203 . S
Cd298 O297 2.203 . S
Cd298 O300 2.411 1_554 S
Cd298 O301 2.333 . S
Cd298 O302 2.352 . S
Cd298 O306 2.277 . S
Cd298 O307 2.356 . S
C299 O304 1.209 . S
C299 O306 1.226 . S
O300 Cd296 2.273 . S
O300 Cd298 2.411 1_556 S
O300 C303 1.320 1_556 S
O301 Cd298 2.333 . S
O301 C303 1.214 . S
O302 Cd298 2.352 . S
O302 C305 1.258 . S
C303 O300 1.320 1_554 S
C303 O301 1.214 . S
O304 Cd296 2.277 1_554 S
O304 C299 1.209 . S
C305 O302 1.258 . S
C305 O307 1.282 . S
O306 Cd298 2.277 . S
O306 C299 1.226 . S
O307 Cd298 2.356 . S
O307 C305 1.282 . S
C308 O309 1.306 . S
C308 O311 1.160 . S
O309 C308 1.306 . S
O309 Cd310 2.228 . S
Cd310 O309 2.228 . S
Cd310 O314 2.273 . S
Cd310 O318 2.277 . S
O311 C308 1.160 . S
O311 Cd312 2.203 . S
Cd312 O311 2.203 . S
Cd312 O314 2.411 . S
Cd312 O315 2.333 . S
Cd312 O316 2.352 . S
Cd312 O320 2.277 . S
Cd312 O321 2.356 . S
C313 O318 1.209 . S
C313 O320 1.226 . S
O314 Cd310 2.273 . S
O314 Cd312 2.411 . S
O314 C317 1.320 . S
O315 Cd312 2.333 . S
O315 C317 1.214 . S
O316 Cd312 2.352 . S
O316 C319 1.258 . S
C317 O314 1.320 . S
C317 O315 1.214 . S
O318 Cd310 2.277 . S
O318 C313 1.209 . S
C319 O316 1.258 . S
C319 O321 1.282 . S
O320 Cd312 2.277 . S
O320 C313 1.226 . S
O321 Cd312 2.356 . S
O321 C319 1.282 . S
C322 O323 1.306 . S
C322 O325 1.160 . S
O323 C322 1.306 . S
O323 Cd324 2.228 . S
Cd324 O323 2.228 . S
Cd324 O328 2.273 . S
Cd324 O332 2.277 . S
O325 C322 1.160 . S
O325 Cd326 2.203 . S
Cd326 O325 2.203 . S
Cd326 O328 2.411 . S
Cd326 O329 2.335 . S
Cd326 O330 2.352 . S
Cd326 O334 2.277 . S
Cd326 O335 2.356 . S
C327 O332 1.209 . S
C327 O334 1.226 . S
O328 Cd324 2.273 . S
O328 Cd326 2.411 . S
O328 C331 1.320 . S
O329 Cd326 2.335 . S
O329 C331 1.214 . S
O330 Cd326 2.352 . S
O330 C333 1.258 . S
C331 O328 1.320 . S
C331 O329 1.214 . S
O332 Cd324 2.277 . S
O332 C327 1.209 . S
C333 O330 1.258 . S
C333 O335 1.282 . S
O334 Cd326 2.277 . S
O334 C327 1.226 . S
O335 Cd326 2.356 . S
O335 C333 1.282 . S
C336 O337 1.306 . S
C336 O339 1.160 . S
O337 C336 1.306 . S
O337 Cd338 2.228 . S
Cd338 O337 2.228 . S
Cd338 O342 2.273 . S
Cd338 O346 2.277 . S
O339 C336 1.160 . S
O339 Cd340 2.203 . S
Cd340 O339 2.203 . S
Cd340 O342 2.411 . S
Cd340 O343 2.333 . S
Cd340 O344 2.352 . S
Cd340 O348 2.277 . S
Cd340 O349 2.356 . S
C341 O346 1.209 . S
C341 O348 1.226 . S
O342 Cd338 2.273 . S
O342 Cd340 2.411 . S
O342 C345 1.320 . S
O343 Cd340 2.333 . S
O343 C345 1.214 . S
O344 Cd340 2.352 . S
O344 C347 1.258 . S
C345 O342 1.320 . S
C345 O343 1.214 . S
O346 Cd338 2.277 . S
O346 C341 1.209 . S
C347 O344 1.258 . S
C347 O349 1.282 . S
O348 Cd340 2.277 . S
O348 C341 1.226 . S
O349 Cd340 2.356 . S
O349 C347 1.282 . S
C350 O351 1.306 . S
C350 O353 1.160 . S
O351 C350 1.306 . S
O351 Cd352 2.228 . S
Cd352 O351 2.228 . S
Cd352 O356 2.273 . S
Cd352 O360 2.277 . S
O353 C350 1.160 . S
O353 Cd354 2.203 . S
Cd354 O353 2.203 . S
Cd354 O356 2.411 . S
Cd354 O357 2.333 . S
Cd354 O358 2.352 . S
Cd354 O362 2.277 . S
Cd354 O363 2.356 . S
C355 O360 1.209 . S
C355 O362 1.226 . S
O356 Cd352 2.273 . S
O356 Cd354 2.411 . S
O356 C359 1.320 . S
O357 Cd354 2.333 . S
O357 C359 1.214 . S
O358 Cd354 2.352 . S
O358 C361 1.258 . S
C359 O356 1.320 . S
C359 O357 1.214 . S
O360 Cd352 2.277 . S
O360 C355 1.209 . S
C361 O358 1.258 . S
C361 O363 1.282 . S
O362 Cd354 2.277 . S
O362 C355 1.226 . S
O363 Cd354 2.356 . S
O363 C361 1.282 . S
C364 O365 1.306 . S
C364 O367 1.160 . S
O365 C364 1.306 . S
O365 Cd366 2.228 . S
Cd366 O365 2.228 . S
Cd366 O370 2.273 . S
Cd366 O374 2.277 . S
O367 C364 1.160 . S
O367 Cd368 2.203 . S
Cd368 O367 2.203 . S
Cd368 O370 2.411 . S
Cd368 O371 2.333 . S
Cd368 O372 2.352 . S
Cd368 O376 2.277 . S
Cd368 O377 2.356 . S
C369 O374 1.209 . S
C369 O376 1.226 . S
O370 Cd366 2.273 . S
O370 Cd368 2.411 . S
O370 C373 1.320 . S
O371 Cd368 2.333 . S
O371 C373 1.214 . S
O372 Cd368 2.352 . S
O372 C375 1.258 . S
C373 O370 1.320 . S
C373 O371 1.214 . S
O374 Cd366 2.277 . S
O374 C369 1.209 . S
C375 O372 1.258 . S
C375 O377 1.282 . S
O376 Cd368 2.277 . S
O376 C369 1.226 . S
O377 Cd368 2.356 . S
O377 C375 1.282 . S
C378 O379 1.306 1_554 S
C378 O381 1.160 . S
O379 C378 1.306 1_556 S
O379 Cd380 2.228 1_556 S
Cd380 O379 2.228 1_554 S
Cd380 O384 2.273 . S
Cd380 O388 2.277 . S
O381 C378 1.160 . S
O381 Cd382 2.203 . S
Cd382 O381 2.203 . S
Cd382 O384 2.411 . S
Cd382 O385 2.333 1_655 S
Cd382 O386 2.352 . S
Cd382 O390 2.277 . S
Cd382 O391 2.356 . S
C383 O388 1.209 . S
C383 O390 1.226 . S
O384 Cd380 2.273 . S
O384 Cd382 2.411 . S
O384 C387 1.320 . S
O385 Cd382 2.333 1_455 S
O385 C387 1.214 1_455 S
O386 Cd382 2.352 . S
O386 C389 1.253 1_655 S
C387 O384 1.320 . S
C387 O385 1.214 1_655 S
O388 Cd380 2.277 . S
O388 C383 1.209 . S
C389 O386 1.253 1_455 S
C389 O391 1.280 1_455 S
O390 Cd382 2.277 . S
O390 C383 1.226 . S
O391 Cd382 2.356 . S
O391 C389 1.280 1_655 S
C392 O393 1.306 . S
C392 O395 1.160 . S
O393 C392 1.306 . S
O393 Cd394 2.228 . S
Cd394 O393 2.228 . S
Cd394 O398 2.273 . S
Cd394 O402 2.277 . S
O395 C392 1.160 . S
O395 Cd396 2.203 . S
Cd396 O395 2.203 . S
Cd396 O398 2.411 . S
Cd396 O399 2.333 . S
Cd396 O400 2.352 . S
Cd396 O404 2.277 . S
Cd396 O405 2.356 . S
C397 O402 1.209 . S
C397 O404 1.226 . S
O398 Cd394 2.273 . S
O398 Cd396 2.411 . S
O398 C401 1.320 . S
O399 Cd396 2.333 . S
O399 C401 1.214 . S
O400 Cd396 2.352 . S
O400 C403 1.258 . S
C401 O398 1.320 . S
C401 O399 1.214 . S
O402 Cd394 2.277 . S
O402 C397 1.209 . S
C403 O400 1.258 . S
C403 O405 1.282 . S
O404 Cd396 2.277 . S
O404 C397 1.226 . S
O405 Cd396 2.356 . S
O405 C403 1.282 . S
C406 O407 1.306 . S
C406 O409 1.160 . S
O407 C406 1.306 . S
O407 Cd408 2.228 . S
Cd408 O407 2.228 . S
Cd408 O412 2.273 . S
Cd408 O416 2.277 . S
O409 C406 1.160 . S
O409 Cd410 2.203 . S
Cd410 O409 2.203 . S
Cd410 O412 2.411 . S
Cd410 O413 2.333 . S
Cd410 O414 2.352 . S
Cd410 O418 2.277 . S
Cd410 O419 2.356 . S
C411 O416 1.209 . S
C411 O418 1.226 . S
O412 Cd408 2.273 . S
O412 Cd410 2.411 . S
O412 C415 1.320 . S
O413 Cd410 2.333 . S
O413 C415 1.214 . S
O414 Cd410 2.352 . S
O414 C417 1.258 . S
C415 O412 1.320 . S
C415 O413 1.214 . S
O416 Cd408 2.277 . S
O416 C411 1.209 . S
C417 O414 1.258 . S
C417 O419 1.282 . S
O418 Cd410 2.277 . S
O418 C411 1.226 . S
O419 Cd410 2.356 . S
O419 C417 1.282 . S
C420 O421 1.306 1_556 S
C420 O423 1.160 . S
O421 C420 1.306 1_554 S
O421 Cd422 2.228 . S
Cd422 O421 2.228 . S
Cd422 O426 2.273 . S
Cd422 O430 2.277 1_554 S
O423 C420 1.160 . S
O423 Cd424 2.203 . S
Cd424 O423 2.203 . S
Cd424 O426 2.411 1_556 S
Cd424 O427 2.335 . S
Cd424 O428 2.352 . S
Cd424 O432 2.277 . S
Cd424 O433 2.356 . S
C425 O430 1.209 . S
C425 O432 1.226 . S
O426 Cd422 2.273 . S
O426 Cd424 2.411 1_554 S
O426 C429 1.320 1_554 S
O427 Cd424 2.335 . S
O427 C429 1.214 . S
O428 Cd424 2.352 . S
O428 C431 1.258 . S
C429 O426 1.320 1_556 S
C429 O427 1.214 . S
O430 Cd422 2.277 1_556 S
O430 C425 1.209 . S
C431 O428 1.258 . S
C431 O433 1.282 . S
O432 Cd424 2.277 . S
O432 C425 1.226 . S
O433 Cd424 2.356 . S
O433 C431 1.282 . S
C434 O435 1.306 . S
C434 O437 1.160 . S
O435 C434 1.306 . S
O435 Cd436 2.228 . S
Cd436 O435 2.228 . S
Cd436 O440 2.273 . S
Cd436 O444 2.277 . S
O437 C434 1.160 . S
O437 Cd438 2.203 . S
Cd438 O437 2.203 . S
Cd438 O440 2.411 . S
Cd438 O441 2.333 . S
Cd438 O442 2.352 . S
Cd438 O446 2.277 . S
Cd438 O447 2.356 . S
C439 O444 1.209 . S
C439 O446 1.226 . S
O440 Cd436 2.273 . S
O440 Cd438 2.411 . S
O440 C443 1.320 . S
O441 Cd438 2.333 . S
O441 C443 1.214 . S
O442 Cd438 2.352 . S
O442 C445 1.258 . S
C443 O440 1.320 . S
C443 O441 1.214 . S
O444 Cd436 2.277 . S
O444 C439 1.209 . S
C445 O442 1.258 . S
C445 O447 1.282 . S
O446 Cd438 2.277 . S
O446 C439 1.226 . S
O447 Cd438 2.356 . S
O447 C445 1.282 . S
C9 C191 1.429 1_444 S
C359 C23 1.429 . S
C37 C219 1.429 1_565 S
C51 C345 1.429 . S
C65 C247 1.429 1_465 S
C79 C317 1.429 . S
C93 C275 1.429 1_546 S
C443 C107 1.429 . S
C303 C121 1.429 1_554 S
C135 C261 1.429 . S
C331 C149 1.429 1_455 S
C163 C233 1.429 . S
C205 C177 1.429 . S
C289 C401 1.429 . S
C415 C373 1.429 . S
C429 C387 1.429 1_456 S
C5 C19 1.977 1_545 S
C28 C25 1.599 . S
C47 C33 1.977 1_545 S
C53 C0 1.599 1_556 S
C103 C61 1.977 1_545 S
C81 C56 1.599 . S
C89 C75 1.977 1_545 S
C84 C109 1.599 1_556 S
C126 C11 1.611 . S
C123 C42 1.599 . S
C151 C14 1.611 . S
C389 C98 1.611 . S
C392 C39 1.599 . S
C154 C67 1.611 . S
C95 C168 1.599 . S
C207 C193 1.840 1_545 S
C210 C201 1.870 . S
C235 C221 1.840 1_565 S
C182 C229 1.870 1_556 S
C249 C291 1.840 1_545 S
C238 C257 1.870 . S
C277 C263 1.840 1_565 S
C266 C285 1.870 1_554 S
C187 C308 1.870 1_655 S
C299 C224 1.870 . S
C327 C196 1.870 1_455 S
C425 C280 1.870 1_455 S
C434 C215 1.870 . S
C243 C336 1.870 1_655 S
C350 C271 1.870 . S
C173 C369 1.977 . S
C378 C179 1.599 1_554 S
C159 C383 1.977 . S
C165 C364 1.599 . S
C117 C397 1.977 . S
C137 C112 1.599 1_554 S
C145 C131 1.977 . S
C140 C403 1.599 . S
C375 C70 1.599 . S
C361 C417 1.840 . S
C355 C420 1.870 1_554 S
C431 C347 1.840 . S
C341 C406 1.870 . S
C445 C305 1.840 . S
C294 C313 1.870 1_554 S
C333 C319 1.840 . S
C322 C439 1.870 . S
C411 C252 1.870 . S
