# Generated by pormake.
# Topology svm, (7)-cn, num edge types: 1
# Building blocks:
#     Node 0, Type 0, BuildingBlock: NUHQUE_clean_sbu_2, # of connection points: 7
#     Node 1, Type 0, BuildingBlock: NUHQUE_clean_sbu_2, # of connection points: 7
#     Node 2, Type 0, BuildingBlock: NUHQUE_clean_sbu_2, # of connection points: 7
#     Node 3, Type 0, BuildingBlock: NUHQUE_clean_sbu_2, # of connection points: 7
#     Node 4, Type 0, BuildingBlock: NUHQUE_clean_sbu_2, # of connection points: 7
#     Node 5, Type 0, BuildingBlock: NUHQUE_clean_sbu_2, # of connection points: 7
#     Node 6, Type 0, BuildingBlock: NUHQUE_clean_sbu_2, # of connection points: 7
#     Node 7, Type 0, BuildingBlock: NUHQUE_clean_sbu_2, # of connection points: 7
#     Node 8, Type 0, BuildingBlock: NUHQUE_clean_sbu_2, # of connection points: 7
#     Node 9, Type 0, BuildingBlock: NUHQUE_clean_sbu_2, # of connection points: 7
#     Node 10, Type 0, BuildingBlock: NUHQUE_clean_sbu_2, # of connection points: 7
#     Node 11, Type 0, BuildingBlock: NUHQUE_clean_sbu_2, # of connection points: 7
#     Node 12, Type 0, BuildingBlock: NUHQUE_clean_sbu_2, # of connection points: 7
#     Node 13, Type 0, BuildingBlock: NUHQUE_clean_sbu_2, # of connection points: 7
#     Node 14, Type 0, BuildingBlock: NUHQUE_clean_sbu_2, # of connection points: 7
#     Node 15, Type 0, BuildingBlock: NUHQUE_clean_sbu_2, # of connection points: 7
#     Node 16, Type 0, BuildingBlock: NUHQUE_clean_sbu_2, # of connection points: 7
#     Node 17, Type 0, BuildingBlock: NUHQUE_clean_sbu_2, # of connection points: 7
#     Node 18, Type 0, BuildingBlock: NUHQUE_clean_sbu_2, # of connection points: 7
#     Node 19, Type 0, BuildingBlock: NUHQUE_clean_sbu_2, # of connection points: 7
#     Node 20, Type 0, BuildingBlock: NUHQUE_clean_sbu_2, # of connection points: 7
#     Node 21, Type 0, BuildingBlock: NUHQUE_clean_sbu_2, # of connection points: 7
#     Node 22, Type 0, BuildingBlock: NUHQUE_clean_sbu_2, # of connection points: 7
#     Node 23, Type 0, BuildingBlock: NUHQUE_clean_sbu_2, # of connection points: 7
#     Node 24, Type 0, BuildingBlock: NUHQUE_clean_sbu_2, # of connection points: 7
#     Node 25, Type 0, BuildingBlock: NUHQUE_clean_sbu_2, # of connection points: 7
#     Node 26, Type 0, BuildingBlock: NUHQUE_clean_sbu_2, # of connection points: 7
#     Node 27, Type 0, BuildingBlock: NUHQUE_clean_sbu_2, # of connection points: 7
#     Node 28, Type 0, BuildingBlock: NUHQUE_clean_sbu_2, # of connection points: 7
#     Node 29, Type 0, BuildingBlock: NUHQUE_clean_sbu_2, # of connection points: 7
#     Node 30, Type 0, BuildingBlock: NUHQUE_clean_sbu_2, # of connection points: 7
#     Node 31, Type 0, BuildingBlock: NUHQUE_clean_sbu_2, # of connection points: 7
#     Node 32, Type 0, BuildingBlock: NUHQUE_clean_sbu_2, # of connection points: 7
#     Node 33, Type 0, BuildingBlock: NUHQUE_clean_sbu_2, # of connection points: 7
#     Node 34, Type 0, BuildingBlock: NUHQUE_clean_sbu_2, # of connection points: 7
#     Node 35, Type 0, BuildingBlock: NUHQUE_clean_sbu_2, # of connection points: 7
#     Node 36, Type 0, BuildingBlock: NUHQUE_clean_sbu_2, # of connection points: 7
#     Node 37, Type 0, BuildingBlock: NUHQUE_clean_sbu_2, # of connection points: 7
#     Node 38, Type 0, BuildingBlock: NUHQUE_clean_sbu_2, # of connection points: 7
#     Node 39, Type 0, BuildingBlock: NUHQUE_clean_sbu_2, # of connection points: 7
#     Node 40, Type 0, BuildingBlock: NUHQUE_clean_sbu_2, # of connection points: 7
#     Node 41, Type 0, BuildingBlock: NUHQUE_clean_sbu_2, # of connection points: 7
#     Node 42, Type 0, BuildingBlock: NUHQUE_clean_sbu_2, # of connection points: 7
#     Node 43, Type 0, BuildingBlock: NUHQUE_clean_sbu_2, # of connection points: 7
#     Node 44, Type 0, BuildingBlock: NUHQUE_clean_sbu_2, # of connection points: 7
#     Node 45, Type 0, BuildingBlock: NUHQUE_clean_sbu_2, # of connection points: 7
#     Node 46, Type 0, BuildingBlock: NUHQUE_clean_sbu_2, # of connection points: 7
#     Node 47, Type 0, BuildingBlock: NUHQUE_clean_sbu_2, # of connection points: 7
#     Node 48, Type 0, BuildingBlock: NUHQUE_clean_sbu_2, # of connection points: 7
#     Node 49, Type 0, BuildingBlock: NUHQUE_clean_sbu_2, # of connection points: 7
#     Node 50, Type 0, BuildingBlock: NUHQUE_clean_sbu_2, # of connection points: 7
#     Node 51, Type 0, BuildingBlock: NUHQUE_clean_sbu_2, # of connection points: 7
#     Node 52, Type 0, BuildingBlock: NUHQUE_clean_sbu_2, # of connection points: 7
#     Node 53, Type 0, BuildingBlock: NUHQUE_clean_sbu_2, # of connection points: 7
#     Node 54, Type 0, BuildingBlock: NUHQUE_clean_sbu_2, # of connection points: 7
#     Node 55, Type 0, BuildingBlock: NUHQUE_clean_sbu_2, # of connection points: 7
#     Node 56, Type 0, BuildingBlock: NUHQUE_clean_sbu_2, # of connection points: 7
#     Node 57, Type 0, BuildingBlock: NUHQUE_clean_sbu_2, # of connection points: 7
#     Node 58, Type 0, BuildingBlock: NUHQUE_clean_sbu_2, # of connection points: 7
#     Node 59, Type 0, BuildingBlock: NUHQUE_clean_sbu_2, # of connection points: 7
#     Node 60, Type 0, BuildingBlock: NUHQUE_clean_sbu_2, # of connection points: 7
#     Node 61, Type 0, BuildingBlock: NUHQUE_clean_sbu_2, # of connection points: 7
#     Node 62, Type 0, BuildingBlock: NUHQUE_clean_sbu_2, # of connection points: 7
#     Node 63, Type 0, BuildingBlock: NUHQUE_clean_sbu_2, # of connection points: 7
#     Node 64, Type 0, BuildingBlock: NUHQUE_clean_sbu_2, # of connection points: 7
#     Node 65, Type 0, BuildingBlock: NUHQUE_clean_sbu_2, # of connection points: 7
#     Node 66, Type 0, BuildingBlock: NUHQUE_clean_sbu_2, # of connection points: 7
#     Node 67, Type 0, BuildingBlock: NUHQUE_clean_sbu_2, # of connection points: 7
#     Node 68, Type 0, BuildingBlock: NUHQUE_clean_sbu_2, # of connection points: 7
#     Node 69, Type 0, BuildingBlock: NUHQUE_clean_sbu_2, # of connection points: 7
#     Node 70, Type 0, BuildingBlock: NUHQUE_clean_sbu_2, # of connection points: 7
#     Node 71, Type 0, BuildingBlock: NUHQUE_clean_sbu_2, # of connection points: 7
#     Node 72, Type 0, BuildingBlock: NUHQUE_clean_sbu_2, # of connection points: 7
#     Node 73, Type 0, BuildingBlock: NUHQUE_clean_sbu_2, # of connection points: 7
#     Node 74, Type 0, BuildingBlock: NUHQUE_clean_sbu_2, # of connection points: 7
#     Node 75, Type 0, BuildingBlock: NUHQUE_clean_sbu_2, # of connection points: 7
#     Node 76, Type 0, BuildingBlock: NUHQUE_clean_sbu_2, # of connection points: 7
#     Node 77, Type 0, BuildingBlock: NUHQUE_clean_sbu_2, # of connection points: 7
#     Node 78, Type 0, BuildingBlock: NUHQUE_clean_sbu_2, # of connection points: 7
#     Node 79, Type 0, BuildingBlock: NUHQUE_clean_sbu_2, # of connection points: 7
#     Node 80, Type 0, BuildingBlock: NUHQUE_clean_sbu_2, # of connection points: 7
#     Node 81, Type 0, BuildingBlock: NUHQUE_clean_sbu_2, # of connection points: 7
#     Node 82, Type 0, BuildingBlock: NUHQUE_clean_sbu_2, # of connection points: 7
#     Node 83, Type 0, BuildingBlock: NUHQUE_clean_sbu_2, # of connection points: 7
#     Node 84, Type 0, BuildingBlock: NUHQUE_clean_sbu_2, # of connection points: 7
#     Node 85, Type 0, BuildingBlock: NUHQUE_clean_sbu_2, # of connection points: 7
#     Node 86, Type 0, BuildingBlock: NUHQUE_clean_sbu_2, # of connection points: 7
#     Node 87, Type 0, BuildingBlock: NUHQUE_clean_sbu_2, # of connection points: 7
#     Node 88, Type 0, BuildingBlock: NUHQUE_clean_sbu_2, # of connection points: 7
#     Node 89, Type 0, BuildingBlock: NUHQUE_clean_sbu_2, # of connection points: 7
#     Node 90, Type 0, BuildingBlock: NUHQUE_clean_sbu_2, # of connection points: 7
#     Node 91, Type 0, BuildingBlock: NUHQUE_clean_sbu_2, # of connection points: 7
#     Node 92, Type 0, BuildingBlock: NUHQUE_clean_sbu_2, # of connection points: 7
#     Node 93, Type 0, BuildingBlock: NUHQUE_clean_sbu_2, # of connection points: 7
#     Node 94, Type 0, BuildingBlock: NUHQUE_clean_sbu_2, # of connection points: 7
#     Node 95, Type 0, BuildingBlock: NUHQUE_clean_sbu_2, # of connection points: 7
#     Edge 96, Type (0, 0), None
#     Edge 97, Type (0, 0), None
#     Edge 98, Type (0, 0), None
#     Edge 99, Type (0, 0), None
#     Edge 100, Type (0, 0), None
#     Edge 101, Type (0, 0), None
#     Edge 102, Type (0, 0), None
#     Edge 103, Type (0, 0), None
#     Edge 104, Type (0, 0), None
#     Edge 105, Type (0, 0), None
#     Edge 106, Type (0, 0), None
#     Edge 107, Type (0, 0), None
#     Edge 108, Type (0, 0), None
#     Edge 109, Type (0, 0), None
#     Edge 110, Type (0, 0), None
#     Edge 111, Type (0, 0), None
#     Edge 112, Type (0, 0), None
#     Edge 113, Type (0, 0), None
#     Edge 114, Type (0, 0), None
#     Edge 115, Type (0, 0), None
#     Edge 116, Type (0, 0), None
#     Edge 117, Type (0, 0), None
#     Edge 118, Type (0, 0), None
#     Edge 119, Type (0, 0), None
#     Edge 120, Type (0, 0), None
#     Edge 121, Type (0, 0), None
#     Edge 122, Type (0, 0), None
#     Edge 123, Type (0, 0), None
#     Edge 124, Type (0, 0), None
#     Edge 125, Type (0, 0), None
#     Edge 126, Type (0, 0), None
#     Edge 127, Type (0, 0), None
#     Edge 128, Type (0, 0), None
#     Edge 129, Type (0, 0), None
#     Edge 130, Type (0, 0), None
#     Edge 131, Type (0, 0), None
#     Edge 132, Type (0, 0), None
#     Edge 133, Type (0, 0), None
#     Edge 134, Type (0, 0), None
#     Edge 135, Type (0, 0), None
#     Edge 136, Type (0, 0), None
#     Edge 137, Type (0, 0), None
#     Edge 138, Type (0, 0), None
#     Edge 139, Type (0, 0), None
#     Edge 140, Type (0, 0), None
#     Edge 141, Type (0, 0), None
#     Edge 142, Type (0, 0), None
#     Edge 143, Type (0, 0), None
#     Edge 144, Type (0, 0), None
#     Edge 145, Type (0, 0), None
#     Edge 146, Type (0, 0), None
#     Edge 147, Type (0, 0), None
#     Edge 148, Type (0, 0), None
#     Edge 149, Type (0, 0), None
#     Edge 150, Type (0, 0), None
#     Edge 151, Type (0, 0), None
#     Edge 152, Type (0, 0), None
#     Edge 153, Type (0, 0), None
#     Edge 154, Type (0, 0), None
#     Edge 155, Type (0, 0), None
#     Edge 156, Type (0, 0), None
#     Edge 157, Type (0, 0), None
#     Edge 158, Type (0, 0), None
#     Edge 159, Type (0, 0), None
#     Edge 160, Type (0, 0), None
#     Edge 161, Type (0, 0), None
#     Edge 162, Type (0, 0), None
#     Edge 163, Type (0, 0), None
#     Edge 164, Type (0, 0), None
#     Edge 165, Type (0, 0), None
#     Edge 166, Type (0, 0), None
#     Edge 167, Type (0, 0), None
#     Edge 168, Type (0, 0), None
#     Edge 169, Type (0, 0), None
#     Edge 170, Type (0, 0), None
#     Edge 171, Type (0, 0), None
#     Edge 172, Type (0, 0), None
#     Edge 173, Type (0, 0), None
#     Edge 174, Type (0, 0), None
#     Edge 175, Type (0, 0), None
#     Edge 176, Type (0, 0), None
#     Edge 177, Type (0, 0), None
#     Edge 178, Type (0, 0), None
#     Edge 179, Type (0, 0), None
#     Edge 180, Type (0, 0), None
#     Edge 181, Type (0, 0), None
#     Edge 182, Type (0, 0), None
#     Edge 183, Type (0, 0), None
#     Edge 184, Type (0, 0), None
#     Edge 185, Type (0, 0), None
#     Edge 186, Type (0, 0), None
#     Edge 187, Type (0, 0), None
#     Edge 188, Type (0, 0), None
#     Edge 189, Type (0, 0), None
#     Edge 190, Type (0, 0), None
#     Edge 191, Type (0, 0), None
#     Edge 192, Type (0, 0), None
#     Edge 193, Type (0, 0), None
#     Edge 194, Type (0, 0), None
#     Edge 195, Type (0, 0), None
#     Edge 196, Type (0, 0), None
#     Edge 197, Type (0, 0), None
#     Edge 198, Type (0, 0), None
#     Edge 199, Type (0, 0), None
#     Edge 200, Type (0, 0), None
#     Edge 201, Type (0, 0), None
#     Edge 202, Type (0, 0), None
#     Edge 203, Type (0, 0), None
#     Edge 204, Type (0, 0), None
#     Edge 205, Type (0, 0), None
#     Edge 206, Type (0, 0), None
#     Edge 207, Type (0, 0), None
#     Edge 208, Type (0, 0), None
#     Edge 209, Type (0, 0), None
#     Edge 210, Type (0, 0), None
#     Edge 211, Type (0, 0), None
#     Edge 212, Type (0, 0), None
#     Edge 213, Type (0, 0), None
#     Edge 214, Type (0, 0), None
#     Edge 215, Type (0, 0), None
#     Edge 216, Type (0, 0), None
#     Edge 217, Type (0, 0), None
#     Edge 218, Type (0, 0), None
#     Edge 219, Type (0, 0), None
#     Edge 220, Type (0, 0), None
#     Edge 221, Type (0, 0), None
#     Edge 222, Type (0, 0), None
#     Edge 223, Type (0, 0), None
#     Edge 224, Type (0, 0), None
#     Edge 225, Type (0, 0), None
#     Edge 226, Type (0, 0), None
#     Edge 227, Type (0, 0), None
#     Edge 228, Type (0, 0), None
#     Edge 229, Type (0, 0), None
#     Edge 230, Type (0, 0), None
#     Edge 231, Type (0, 0), None
#     Edge 232, Type (0, 0), None
#     Edge 233, Type (0, 0), None
#     Edge 234, Type (0, 0), None
#     Edge 235, Type (0, 0), None
#     Edge 236, Type (0, 0), None
#     Edge 237, Type (0, 0), None
#     Edge 238, Type (0, 0), None
#     Edge 239, Type (0, 0), None
#     Edge 240, Type (0, 0), None
#     Edge 241, Type (0, 0), None
#     Edge 242, Type (0, 0), None
#     Edge 243, Type (0, 0), None
#     Edge 244, Type (0, 0), None
#     Edge 245, Type (0, 0), None
#     Edge 246, Type (0, 0), None
#     Edge 247, Type (0, 0), None
#     Edge 248, Type (0, 0), None
#     Edge 249, Type (0, 0), None
#     Edge 250, Type (0, 0), None
#     Edge 251, Type (0, 0), None
#     Edge 252, Type (0, 0), None
#     Edge 253, Type (0, 0), None
#     Edge 254, Type (0, 0), None
#     Edge 255, Type (0, 0), None
#     Edge 256, Type (0, 0), None
#     Edge 257, Type (0, 0), None
#     Edge 258, Type (0, 0), None
#     Edge 259, Type (0, 0), None
#     Edge 260, Type (0, 0), None
#     Edge 261, Type (0, 0), None
#     Edge 262, Type (0, 0), None
#     Edge 263, Type (0, 0), None
#     Edge 264, Type (0, 0), None
#     Edge 265, Type (0, 0), None
#     Edge 266, Type (0, 0), None
#     Edge 267, Type (0, 0), None
#     Edge 268, Type (0, 0), None
#     Edge 269, Type (0, 0), None
#     Edge 270, Type (0, 0), None
#     Edge 271, Type (0, 0), None
#     Edge 272, Type (0, 0), None
#     Edge 273, Type (0, 0), None
#     Edge 274, Type (0, 0), None
#     Edge 275, Type (0, 0), None
#     Edge 276, Type (0, 0), None
#     Edge 277, Type (0, 0), None
#     Edge 278, Type (0, 0), None
#     Edge 279, Type (0, 0), None
#     Edge 280, Type (0, 0), None
#     Edge 281, Type (0, 0), None
#     Edge 282, Type (0, 0), None
#     Edge 283, Type (0, 0), None
#     Edge 284, Type (0, 0), None
#     Edge 285, Type (0, 0), None
#     Edge 286, Type (0, 0), None
#     Edge 287, Type (0, 0), None
#     Edge 288, Type (0, 0), None
#     Edge 289, Type (0, 0), None
#     Edge 290, Type (0, 0), None
#     Edge 291, Type (0, 0), None
#     Edge 292, Type (0, 0), None
#     Edge 293, Type (0, 0), None
#     Edge 294, Type (0, 0), None
#     Edge 295, Type (0, 0), None
#     Edge 296, Type (0, 0), None
#     Edge 297, Type (0, 0), None
#     Edge 298, Type (0, 0), None
#     Edge 299, Type (0, 0), None
#     Edge 300, Type (0, 0), None
#     Edge 301, Type (0, 0), None
#     Edge 302, Type (0, 0), None
#     Edge 303, Type (0, 0), None
#     Edge 304, Type (0, 0), None
#     Edge 305, Type (0, 0), None
#     Edge 306, Type (0, 0), None
#     Edge 307, Type (0, 0), None
#     Edge 308, Type (0, 0), None
#     Edge 309, Type (0, 0), None
#     Edge 310, Type (0, 0), None
#     Edge 311, Type (0, 0), None
#     Edge 312, Type (0, 0), None
#     Edge 313, Type (0, 0), None
#     Edge 314, Type (0, 0), None
#     Edge 315, Type (0, 0), None
#     Edge 316, Type (0, 0), None
#     Edge 317, Type (0, 0), None
#     Edge 318, Type (0, 0), None
#     Edge 319, Type (0, 0), None
#     Edge 320, Type (0, 0), None
#     Edge 321, Type (0, 0), None
#     Edge 322, Type (0, 0), None
#     Edge 323, Type (0, 0), None
#     Edge 324, Type (0, 0), None
#     Edge 325, Type (0, 0), None
#     Edge 326, Type (0, 0), None
#     Edge 327, Type (0, 0), None
#     Edge 328, Type (0, 0), None
#     Edge 329, Type (0, 0), None
#     Edge 330, Type (0, 0), None
#     Edge 331, Type (0, 0), None
#     Edge 332, Type (0, 0), None
#     Edge 333, Type (0, 0), None
#     Edge 334, Type (0, 0), None
#     Edge 335, Type (0, 0), None
#     Edge 336, Type (0, 0), None
#     Edge 337, Type (0, 0), None
#     Edge 338, Type (0, 0), None
#     Edge 339, Type (0, 0), None
#     Edge 340, Type (0, 0), None
#     Edge 341, Type (0, 0), None
#     Edge 342, Type (0, 0), None
#     Edge 343, Type (0, 0), None
#     Edge 344, Type (0, 0), None
#     Edge 345, Type (0, 0), None
#     Edge 346, Type (0, 0), None
#     Edge 347, Type (0, 0), None
#     Edge 348, Type (0, 0), None
#     Edge 349, Type (0, 0), None
#     Edge 350, Type (0, 0), None
#     Edge 351, Type (0, 0), None
#     Edge 352, Type (0, 0), None
#     Edge 353, Type (0, 0), None
#     Edge 354, Type (0, 0), None
#     Edge 355, Type (0, 0), None
#     Edge 356, Type (0, 0), None
#     Edge 357, Type (0, 0), None
#     Edge 358, Type (0, 0), None
#     Edge 359, Type (0, 0), None
#     Edge 360, Type (0, 0), None
#     Edge 361, Type (0, 0), None
#     Edge 362, Type (0, 0), None
#     Edge 363, Type (0, 0), None
#     Edge 364, Type (0, 0), None
#     Edge 365, Type (0, 0), None
#     Edge 366, Type (0, 0), None
#     Edge 367, Type (0, 0), None
#     Edge 368, Type (0, 0), None
#     Edge 369, Type (0, 0), None
#     Edge 370, Type (0, 0), None
#     Edge 371, Type (0, 0), None
#     Edge 372, Type (0, 0), None
#     Edge 373, Type (0, 0), None
#     Edge 374, Type (0, 0), None
#     Edge 375, Type (0, 0), None
#     Edge 376, Type (0, 0), None
#     Edge 377, Type (0, 0), None
#     Edge 378, Type (0, 0), None
#     Edge 379, Type (0, 0), None
#     Edge 380, Type (0, 0), None
#     Edge 381, Type (0, 0), None
#     Edge 382, Type (0, 0), None
#     Edge 383, Type (0, 0), None
#     Edge 384, Type (0, 0), None
#     Edge 385, Type (0, 0), None
#     Edge 386, Type (0, 0), None
#     Edge 387, Type (0, 0), None
#     Edge 388, Type (0, 0), None
#     Edge 389, Type (0, 0), None
#     Edge 390, Type (0, 0), None
#     Edge 391, Type (0, 0), None
#     Edge 392, Type (0, 0), None
#     Edge 393, Type (0, 0), None
#     Edge 394, Type (0, 0), None
#     Edge 395, Type (0, 0), None
#     Edge 396, Type (0, 0), None
#     Edge 397, Type (0, 0), None
#     Edge 398, Type (0, 0), None
#     Edge 399, Type (0, 0), None
#     Edge 400, Type (0, 0), None
#     Edge 401, Type (0, 0), None
#     Edge 402, Type (0, 0), None
#     Edge 403, Type (0, 0), None
#     Edge 404, Type (0, 0), None
#     Edge 405, Type (0, 0), None
#     Edge 406, Type (0, 0), None
#     Edge 407, Type (0, 0), None
#     Edge 408, Type (0, 0), None
#     Edge 409, Type (0, 0), None
#     Edge 410, Type (0, 0), None
#     Edge 411, Type (0, 0), None
#     Edge 412, Type (0, 0), None
#     Edge 413, Type (0, 0), None
#     Edge 414, Type (0, 0), None
#     Edge 415, Type (0, 0), None
#     Edge 416, Type (0, 0), None
#     Edge 417, Type (0, 0), None
#     Edge 418, Type (0, 0), None
#     Edge 419, Type (0, 0), None
#     Edge 420, Type (0, 0), None
#     Edge 421, Type (0, 0), None
#     Edge 422, Type (0, 0), None
#     Edge 423, Type (0, 0), None
#     Edge 424, Type (0, 0), None
#     Edge 425, Type (0, 0), None
#     Edge 426, Type (0, 0), None
#     Edge 427, Type (0, 0), None
#     Edge 428, Type (0, 0), None
#     Edge 429, Type (0, 0), None
#     Edge 430, Type (0, 0), None
#     Edge 431, Type (0, 0), None
# Relax obj value: 0.295
# Max RMSD: 0.260
# Mean RMSD: 0.260
data_MOF--net-svm--node1-NUHQUE_clean_sbu_2--edge1-none
_symmetry_space_group_name_H-M    P1
_symmetry_Int_Tables_number       1
_symmetry_cell_setting            triclinic
loop_
_symmetry_equiv_pos_as_xyz
'x, y, z'
_cell_length_a     44.758224
_cell_length_b     44.75812
_cell_length_c     44.758857
_cell_angle_alpha  90.000415
_cell_angle_beta   89.999741
_cell_angle_gamma 90.000082
loop_
_atom_site_label
_atom_site_type_symbol
_atom_site_fract_x
_atom_site_fract_y
_atom_site_fract_z
_atom_type_partial_charge
O0 O 0.06231 0.37439 0.20496 0.0
Tb1 Tb 0.1004 0.40504 0.20539 0.0
Eu2 Eu 0.11039 0.40866 0.12755 0.0
C3 C 1.04139 0.37567 0.18433 0.0
O4 O 1.04489 0.3929 0.16097 0.0
C5 C 0.06543 0.45323 0.16385 0.0
O6 O 0.13054 0.41677 0.08173 0.0
C7 C 0.09114 0.35372 0.12976 0.0
C8 C 0.13544 0.44314 0.06943 0.0
O9 O 0.12745 0.4676 0.08351 0.0
C10 C 0.16327 0.40214 0.17499 0.0
C11 C 0.10041 0.32223 0.12754 0.0
C12 C 0.08239 0.29991 0.14105 0.0
C13 C 0.09348 0.27041 0.14311 0.0
C14 C 0.12474 0.26843 0.13938 0.0
C15 C 0.13567 0.28304 0.11365 0.0
C16 C 0.12581 0.31302 0.11092 0.0
O17 O 0.07634 0.44454 0.18986 0.0
O18 O 0.07405 0.44241 0.1377 0.0
O19 O 0.10096 0.39366 0.25307 0.0
O20 O 0.11726 0.43595 0.23902 0.0
C21 C 0.11279 0.41868 0.26188 0.0
O22 O 0.15487 0.41592 0.15042 0.0
O23 O 0.14398 0.38764 0.19173 0.0
O24 O 0.09085 0.36988 0.10525 0.0
O25 O 0.10111 0.36842 0.15309 0.0
H26 H 0.05982 0.30521 0.148 0.0
H27 H 0.13633 0.24899 0.14771 0.0
H28 H 0.13606 0.32815 0.09507 0.0
O29 O 0.29615 0.98408 0.20496 0.0
Tb30 Tb 0.25807 0.95343 0.20539 0.0
Eu31 Eu 0.24807 0.9498 0.12755 0.0
C32 C 0.31708 0.98279 0.18433 0.0
O33 O 0.31358 0.96557 0.16097 0.0
C34 C 0.29304 0.90524 0.16385 0.0
O35 O 0.22792 0.94169 0.08173 0.0
C36 C 0.26733 1.00475 0.12976 0.0
C37 C 0.22302 0.91533 0.06944 0.0
O38 O 0.23101 0.89087 0.08352 0.0
C39 C 0.19519 0.95633 0.175 0.0
C40 C 0.25806 1.03624 0.12754 0.0
C41 C 0.27607 0.05856 0.14105 0.0
C42 C 0.26499 0.08805 0.14311 0.0
C43 C 0.23373 0.09004 0.13938 0.0
C44 C 0.22279 0.07543 0.11365 0.0
C45 C 0.23265 1.04545 0.11092 0.0
O46 O 0.28213 0.91392 0.18987 0.0
O47 O 0.28442 0.91605 0.1377 0.0
O48 O 0.25751 0.96481 0.25307 0.0
O49 O 0.24121 0.92251 0.23902 0.0
C50 C 0.24567 0.93979 0.26188 0.0
O51 O 0.20359 0.94255 0.15042 0.0
O52 O 0.21449 0.97082 0.19173 0.0
O53 O 0.26762 0.98859 0.10525 0.0
O54 O 0.25736 0.99005 0.15309 0.0
H55 H 0.29865 1.05326 0.148 0.0
H56 H 0.22213 0.10948 0.14771 0.0
H57 H 0.2224 1.03031 0.09507 0.0
O58 O 0.06232 0.98408 0.1535 0.0
Tb59 Tb 0.1004 0.95343 0.15306 0.0
Eu60 Eu 0.11039 0.94981 0.2309 0.0
C61 C 1.04139 0.9828 0.17413 0.0
O62 O 1.04489 0.96557 0.19748 0.0
C63 C 0.06543 0.90524 0.1946 0.0
O64 O 0.13054 0.9417 0.27672 0.0
C65 C 0.09114 1.00475 0.22869 0.0
C66 C 0.13544 0.91533 0.28902 0.0
O67 O 0.12745 0.89087 0.27494 0.0
C68 C 0.16327 0.95633 0.18345 0.0
C69 C 0.10041 1.03624 0.23091 0.0
C70 C 0.08239 0.05856 0.2174 0.0
C71 C 0.09348 0.08806 0.21534 0.0
C72 C 0.12474 0.09004 0.21907 0.0
C73 C 0.13567 0.07543 0.2448 0.0
C74 C 0.12581 1.04545 0.24753 0.0
O75 O 0.07634 0.91393 0.16859 0.0
O76 O 0.07405 0.91606 0.22075 0.0
O77 O 0.10096 0.96481 0.10538 0.0
O78 O 0.11726 0.92251 0.11943 0.0
C79 C 0.11279 0.93979 0.09657 0.0
O80 O 0.15487 0.94255 0.20803 0.0
O81 O 0.14398 0.97082 0.16672 0.0
O82 O 0.09085 0.98859 0.2532 0.0
O83 O 0.10111 0.99005 0.20536 0.0
H84 H 0.05982 1.05326 0.21045 0.0
H85 H 0.13633 0.10948 0.21074 0.0
H86 H 0.13606 1.03031 0.26337 0.0
O87 O 0.29615 0.37439 0.15349 0.0
Tb88 Tb 0.25807 0.40504 0.15306 0.0
Eu89 Eu 0.24807 0.40866 0.2309 0.0
C90 C 0.31708 0.37567 0.17412 0.0
O91 O 0.31357 0.3929 0.19748 0.0
C92 C 0.29304 0.45322 0.1946 0.0
O93 O 0.22792 0.41677 0.27672 0.0
C94 C 0.26732 0.35372 0.22869 0.0
C95 C 0.22302 0.44313 0.28902 0.0
O96 O 0.23102 0.46759 0.27494 0.0
C97 C 0.19519 0.40214 0.18345 0.0
C98 C 0.25806 0.32223 0.23091 0.0
C99 C 0.27607 0.29991 0.2174 0.0
C100 C 0.26498 0.27041 0.21534 0.0
C101 C 0.23373 0.26842 0.21907 0.0
C102 C 0.22279 0.28303 0.2448 0.0
C103 C 0.23265 0.31302 0.24753 0.0
O104 O 0.28212 0.44454 0.16859 0.0
O105 O 0.28441 0.44241 0.22075 0.0
O106 O 0.25751 0.39366 0.10538 0.0
O107 O 0.2412 0.43595 0.11943 0.0
C108 C 0.24567 0.41868 0.09657 0.0
O109 O 0.20359 0.41591 0.20803 0.0
O110 O 0.21449 0.38764 0.16672 0.0
O111 O 0.26762 0.36988 0.2532 0.0
O112 O 0.25735 0.36841 0.20536 0.0
H113 H 0.29865 0.3052 0.21045 0.0
H114 H 0.22213 0.24899 0.21074 0.0
H115 H 0.2224 0.32815 0.26338 0.0
O116 O 0.20497 0.06232 0.37438 0.0
Tb117 Tb 0.2054 0.1004 0.40502 0.0
Eu118 Eu 0.12756 0.1104 0.40865 0.0
C119 C 0.18433 1.04139 0.37566 0.0
O120 O 0.16098 1.0449 0.39288 0.0
C121 C 0.16386 0.06543 0.45321 0.0
O122 O 0.08174 0.13054 0.41676 0.0
C123 C 0.12975 0.09115 0.3537 0.0
C124 C 0.06944 0.13544 0.44313 0.0
O125 O 0.08353 0.12745 0.46759 0.0
C126 C 0.175 0.16328 0.40212 0.0
C127 C 0.12754 0.10041 0.32221 0.0
C128 C 0.14103 0.08238 0.2999 0.0
C129 C 0.14308 0.09348 0.27041 0.0
C130 C 0.13939 0.12473 0.2684 0.0
C131 C 0.11367 0.13569 0.28302 0.0
C132 C 0.11093 0.12583 0.313 0.0
O133 O 0.18987 0.07635 0.44453 0.0
O134 O 0.13771 0.07405 0.4424 0.0
O135 O 0.25308 0.10096 0.39365 0.0
O136 O 0.23902 0.11727 0.43594 0.0
C137 C 0.26189 0.1128 0.41867 0.0
O138 O 0.15043 0.15488 0.4159 0.0
O139 O 0.19174 0.14398 0.38763 0.0
O140 O 0.10525 0.09086 0.36987 0.0
O141 O 0.15309 0.10111 0.3684 0.0
H142 H 0.14796 0.0598 0.30519 0.0
H143 H 0.14772 0.13632 0.24896 0.0
H144 H 0.0951 0.1361 0.32814 0.0
O145 O 0.1535 0.29615 0.37438 0.0
Tb146 Tb 0.15307 0.25807 0.40503 0.0
Eu147 Eu 0.23091 0.24807 0.40865 0.0
C148 C 0.17413 0.31708 0.37566 0.0
O149 O 0.19749 0.31357 0.39288 0.0
C150 C 0.19461 0.29304 0.45321 0.0
O151 O 0.27673 0.22793 0.41676 0.0
C152 C 0.22871 0.26733 0.3537 0.0
C153 C 0.28903 0.22304 0.44313 0.0
O154 O 0.27494 0.23103 0.46759 0.0
C155 C 0.18346 0.1952 0.40212 0.0
C156 C 0.23093 0.25806 0.32221 0.0
C157 C 0.21744 0.27609 0.2999 0.0
C158 C 0.21538 0.26499 0.27041 0.0
C159 C 0.21908 0.23373 0.2684 0.0
C160 C 0.2448 0.22278 0.28302 0.0
C161 C 0.24753 0.23264 0.313 0.0
O162 O 0.16859 0.28213 0.44453 0.0
O163 O 0.22076 0.28442 0.4424 0.0
O164 O 0.10539 0.25751 0.39365 0.0
O165 O 0.11944 0.2412 0.43594 0.0
C166 C 0.09657 0.24567 0.41867 0.0
O167 O 0.20804 0.20359 0.4159 0.0
O168 O 0.16673 0.21449 0.38763 0.0
O169 O 0.25321 0.26761 0.36987 0.0
O170 O 0.20538 0.25736 0.3684 0.0
H171 H 0.21051 0.29867 0.30519 0.0
H172 H 0.21074 0.22215 0.24896 0.0
H173 H 0.26336 0.22237 0.32814 0.0
O174 O 0.20497 0.29615 0.98407 0.0
Tb175 Tb 0.2054 0.25807 0.95342 0.0
Eu176 Eu 0.12756 0.24807 0.9498 0.0
C177 C 0.18433 0.31708 0.98279 0.0
O178 O 0.16098 0.31357 0.96557 0.0
C179 C 0.16386 0.29304 0.90524 0.0
O180 O 0.08174 0.22793 0.94169 0.0
C181 C 0.12975 0.26732 1.00475 0.0
C182 C 0.06944 0.22303 0.91532 0.0
O183 O 0.08353 0.23102 0.89086 0.0
C184 C 0.175 0.19519 0.95633 0.0
C185 C 0.12754 0.25806 1.03624 0.0
C186 C 0.14103 0.27609 0.05855 0.0
C187 C 0.14309 0.26499 0.08804 0.0
C188 C 0.13939 0.23374 0.09005 0.0
C189 C 0.11367 0.22278 0.07543 0.0
C190 C 0.11094 0.23264 1.04545 0.0
O191 O 0.18987 0.28212 0.91392 0.0
O192 O 0.13771 0.28442 0.91605 0.0
O193 O 0.25308 0.25751 0.9648 0.0
O194 O 0.23902 0.2412 0.92251 0.0
C195 C 0.26189 0.24567 0.93978 0.0
O196 O 0.15043 0.20359 0.94255 0.0
O197 O 0.19174 0.21449 0.97082 0.0
O198 O 0.10525 0.26761 0.98858 0.0
O199 O 0.15309 0.25736 0.99005 0.0
H200 H 0.14796 0.29867 1.05326 0.0
H201 H 0.14772 0.22215 0.10949 0.0
H202 H 0.0951 0.22237 1.03031 0.0
O203 O 0.1535 0.06232 0.98407 0.0
Tb204 Tb 0.15307 0.1004 0.95343 0.0
Eu205 Eu 0.2309 0.11039 0.9498 0.0
C206 C 0.17413 1.04139 0.98279 0.0
O207 O 0.19749 1.04489 0.96557 0.0
C208 C 0.1946 0.06542 0.90524 0.0
O209 O 0.27673 0.13054 0.94169 0.0
C210 C 0.22871 0.09114 1.00474 0.0
C211 C 0.28902 0.13543 0.91532 0.0
O212 O 0.27494 0.12744 0.89086 0.0
C213 C 0.18346 0.16327 0.95633 0.0
C214 C 0.23093 0.1004 1.03624 0.0
C215 C 0.21744 0.08237 0.05855 0.0
C216 C 0.21538 0.09347 0.08804 0.0
C217 C 0.21908 0.12473 0.09004 0.0
C218 C 0.2448 0.13568 0.07543 0.0
C219 C 0.24753 0.12583 1.04545 0.0
O220 O 0.16859 0.07634 0.91392 0.0
O221 O 0.22076 0.07405 0.91605 0.0
O222 O 0.10539 0.10096 0.9648 0.0
O223 O 0.11944 0.11727 0.92251 0.0
C224 C 0.09657 0.1128 0.93978 0.0
O225 O 0.20804 0.15487 0.94255 0.0
O226 O 0.16673 0.14398 0.97082 0.0
O227 O 0.25321 0.09085 0.98858 0.0
O228 O 0.20538 0.10111 0.99005 0.0
H229 H 0.21051 0.05979 1.05326 0.0
H230 H 0.21075 0.13631 0.10949 0.0
H231 H 0.26337 0.13609 1.03031 0.0
O232 O 0.37438 0.20496 0.06231 0.0
Tb233 Tb 0.40503 0.20539 0.10039 0.0
Eu234 Eu 0.40865 0.12756 0.11039 0.0
C235 C 0.37566 0.18433 1.04138 0.0
O236 O 0.39288 0.16097 1.04489 0.0
C237 C 0.45321 0.16386 0.06542 0.0
O238 O 0.41677 0.08174 0.13053 0.0
C239 C 0.35371 0.12975 0.09113 0.0
C240 C 0.44313 0.06944 0.13543 0.0
O241 O 0.46759 0.08353 0.12745 0.0
C242 C 0.40212 0.175 0.16326 0.0
C243 C 0.32221 0.12753 0.10039 0.0
C244 C 0.2999 0.14104 0.08237 0.0
C245 C 0.2704 0.1431 0.09347 0.0
C246 C 0.2684 0.13938 0.12473 0.0
C247 C 0.28302 0.11365 0.13565 0.0
C248 C 0.313 0.11091 0.1258 0.0
O249 O 0.44453 0.18987 0.07633 0.0
O250 O 0.4424 0.13771 0.07405 0.0
O251 O 0.39365 0.25308 0.10095 0.0
O252 O 0.43594 0.23902 0.11726 0.0
C253 C 0.41867 0.26189 0.11279 0.0
O254 O 0.4159 0.15043 0.15487 0.0
O255 O 0.38763 0.19174 0.14397 0.0
O256 O 0.36987 0.10525 0.09084 0.0
O257 O 0.3684 0.15309 0.1011 0.0
H258 H 0.30519 0.14799 0.0598 0.0
H259 H 0.24896 0.1477 0.13632 0.0
H260 H 0.32814 0.09506 0.13605 0.0
O261 O 0.37438 0.1535 0.29614 0.0
Tb262 Tb 0.40503 0.15307 0.25806 0.0
Eu263 Eu 0.40865 0.23091 0.24806 0.0
C264 C 0.37566 0.17414 0.31707 0.0
O265 O 0.39288 0.1975 0.31356 0.0
C266 C 0.45321 0.19461 0.29303 0.0
O267 O 0.41676 0.27673 0.22792 0.0
C268 C 0.3537 0.22871 0.26732 0.0
C269 C 0.44313 0.28902 0.22302 0.0
O270 O 0.46759 0.27494 0.23101 0.0
C271 C 0.40212 0.18346 0.19519 0.0
C272 C 0.32221 0.23093 0.25806 0.0
C273 C 0.2999 0.21742 0.27608 0.0
C274 C 0.2704 0.21537 0.26498 0.0
C275 C 0.2684 0.21909 0.23372 0.0
C276 C 0.28302 0.24481 0.2228 0.0
C277 C 0.313 0.24756 0.23265 0.0
O278 O 0.44453 0.1686 0.28212 0.0
O279 O 0.4424 0.22076 0.2844 0.0
O280 O 0.39365 0.10539 0.2575 0.0
O281 O 0.43595 0.11944 0.2412 0.0
C282 C 0.41867 0.09658 0.24566 0.0
O283 O 0.4159 0.20804 0.20358 0.0
O284 O 0.38763 0.16673 0.21448 0.0
O285 O 0.36987 0.25322 0.26761 0.0
O286 O 0.3684 0.20538 0.25735 0.0
H287 H 0.30519 0.21048 0.29865 0.0
H288 H 0.24896 0.21077 0.22213 0.0
H289 H 0.32814 0.2634 0.2224 0.0
O290 O 0.98408 0.20497 0.29614 0.0
Tb291 Tb 0.95344 0.2054 0.25806 0.0
Eu292 Eu 0.94981 0.12756 0.24807 0.0
C293 C 0.9828 0.18433 0.31707 0.0
O294 O 0.96558 0.16098 0.31356 0.0
C295 C 0.90525 0.16386 0.29304 0.0
O296 O 0.9417 0.08174 0.22792 0.0
C297 C 1.00476 0.12976 0.26732 0.0
C298 C 0.91533 0.06945 0.22302 0.0
O299 O 0.89087 0.08354 0.23101 0.0
C300 C 0.95634 0.17501 0.19519 0.0
C301 C 1.03625 0.12754 0.25806 0.0
C302 C 0.05857 0.14105 0.27608 0.0
C303 C 0.08806 0.1431 0.26498 0.0
C304 C 0.09006 0.13938 0.23372 0.0
C305 C 0.07544 0.11366 0.2228 0.0
C306 C 1.04546 0.11091 0.23265 0.0
O307 O 0.91393 0.18988 0.28212 0.0
O308 O 0.91606 0.13771 0.28441 0.0
O309 O 0.96481 0.25308 0.2575 0.0
O310 O 0.92252 0.23903 0.2412 0.0
C311 C 0.93979 0.26189 0.24566 0.0
O312 O 0.94256 0.15043 0.20358 0.0
O313 O 0.97083 0.19174 0.21448 0.0
O314 O 0.98859 0.10526 0.26761 0.0
O315 O 0.99007 0.15309 0.25735 0.0
H316 H 1.05328 0.14799 0.29865 0.0
H317 H 0.10951 0.1477 0.22213 0.0
H318 H 1.03033 0.09506 0.2224 0.0
O319 O 0.98409 0.1535 0.06231 0.0
Tb320 Tb 0.95344 0.15307 0.10039 0.0
Eu321 Eu 0.94982 0.23091 0.11039 0.0
C322 C 0.9828 0.17414 1.04138 0.0
O323 O 0.96558 0.1975 1.04489 0.0
C324 C 0.90525 0.19461 0.06542 0.0
O325 O 0.9417 0.27673 0.13053 0.0
C326 C 1.00476 0.22871 0.09113 0.0
C327 C 0.91533 0.28902 0.13543 0.0
O328 O 0.89088 0.27493 0.12744 0.0
C329 C 0.95634 0.18346 0.16326 0.0
C330 C 1.03625 0.23093 0.10039 0.0
C331 C 0.05857 0.21742 0.08237 0.0
C332 C 0.08806 0.21537 0.09347 0.0
C333 C 0.09007 0.21909 0.12473 0.0
C334 C 0.07544 0.24481 0.13565 0.0
C335 C 1.04546 0.24756 0.1258 0.0
O336 O 0.91393 0.16859 0.07633 0.0
O337 O 0.91606 0.22076 0.07404 0.0
O338 O 0.96481 0.10539 0.10095 0.0
O339 O 0.92252 0.11944 0.11725 0.0
C340 C 0.93979 0.09658 0.11279 0.0
O341 O 0.94257 0.20804 0.15487 0.0
O342 O 0.97083 0.16673 0.14397 0.0
O343 O 0.9886 0.25321 0.09084 0.0
O344 O 0.99007 0.20538 0.1011 0.0
H345 H 1.05328 0.21048 0.0598 0.0
H346 H 0.10951 0.21077 0.13632 0.0
H347 H 1.03033 0.26341 0.13605 0.0
O348 O 1.04615 0.73408 0.9035 0.0
Tb349 Tb 1.00807 0.70343 0.90306 0.0
Eu350 Eu 0.99807 0.69981 0.9809 0.0
C351 C 0.06708 0.7328 0.92413 0.0
O352 O 0.06357 0.71557 0.94748 0.0
C353 C 1.04304 0.65524 0.9446 0.0
O354 O 0.97792 0.6917 1.02672 0.0
C355 C 1.01733 0.75475 0.9787 0.0
C356 C 0.97303 0.66533 1.03902 0.0
O357 O 0.98102 0.64087 1.02494 0.0
C358 C 0.94519 0.70633 0.93346 0.0
C359 C 1.00806 0.78624 0.98091 0.0
C360 C 1.02608 0.80856 0.9674 0.0
C361 C 1.015 0.83806 0.96535 0.0
C362 C 0.98374 0.84005 0.96907 0.0
C363 C 0.9728 0.82544 0.9948 0.0
C364 C 0.98266 0.79545 0.99753 0.0
O365 O 1.03213 0.66393 0.91859 0.0
O366 O 1.03441 0.66606 0.97075 0.0
O367 O 1.00751 0.71481 0.85538 0.0
O368 O 0.99121 0.67252 0.86943 0.0
C369 C 0.99567 0.68979 0.84657 0.0
O370 O 0.95359 0.69255 0.95803 0.0
O371 O 0.96449 0.72083 0.91672 0.0
O372 O 1.01762 0.73859 1.0032 0.0
O373 O 1.00736 0.74005 0.95536 0.0
H374 H 1.04865 0.80326 0.96046 0.0
H375 H 0.97214 0.85948 0.96075 0.0
H376 H 0.9724 0.78032 1.01338 0.0
O377 O 0.81232 0.12439 0.90349 0.0
Tb378 Tb 0.8504 0.15504 0.90306 0.0
Eu379 Eu 0.8604 0.15867 0.98089 0.0
C380 C 0.79139 0.12567 0.92412 0.0
O381 O 0.79489 0.1429 0.94748 0.0
C382 C 0.81543 0.20323 0.94459 0.0
O383 O 0.88055 0.16678 1.02672 0.0
C384 C 0.84114 0.10372 0.9787 0.0
C385 C 0.88545 0.19315 1.03901 0.0
O386 O 0.87747 0.21761 1.02493 0.0
C387 C 0.91327 0.15214 0.93345 0.0
C388 C 0.85041 0.07223 0.98091 0.0
C389 C 0.8324 1.04992 0.9674 0.0
C390 C 0.84348 1.02042 0.96535 0.0
C391 C 0.87474 1.01843 0.96908 0.0
C392 C 0.88568 1.03304 0.99481 0.0
C393 C 0.87582 0.06303 0.99754 0.0
O394 O 0.82634 0.19454 0.91858 0.0
O395 O 0.82406 0.19242 0.97075 0.0
O396 O 0.85096 0.14366 0.85538 0.0
O397 O 0.86726 0.18595 0.86943 0.0
C398 C 0.8628 0.16868 0.84656 0.0
O399 O 0.90488 0.16592 0.95802 0.0
O400 O 0.89398 0.13764 0.91671 0.0
O401 O 0.84085 0.11989 1.0032 0.0
O402 O 0.85111 0.11842 0.95536 0.0
H403 H 0.80982 0.05521 0.96045 0.0
H404 H 0.88634 0.999 0.96076 0.0
H405 H 0.88606 0.07816 1.01338 0.0
O406 O 1.04614 0.12438 0.95495 0.0
Tb407 Tb 1.00807 0.15503 0.95538 0.0
Eu408 Eu 0.99807 0.15867 0.87755 0.0
C409 C 0.06707 0.12567 0.93432 0.0
O410 O 0.06359 0.14291 0.91097 0.0
C411 C 1.04303 0.20324 0.91386 0.0
O412 O 0.97793 0.16678 0.83172 0.0
C413 C 1.01733 0.10373 0.87975 0.0
C414 C 0.97303 0.19314 0.81943 0.0
O415 O 0.98102 0.2176 0.83351 0.0
C416 C 0.9452 0.15214 0.92499 0.0
C417 C 1.00807 0.07224 0.87754 0.0
C418 C 1.02608 1.04992 0.89105 0.0
C419 C 1.01499 1.02042 0.89311 0.0
C420 C 0.98373 1.01844 0.88938 0.0
C421 C 0.9728 1.03305 0.86365 0.0
C422 C 0.98266 0.06303 0.86092 0.0
O423 O 1.03213 0.19454 0.93987 0.0
O424 O 1.03441 0.19243 0.8877 0.0
O425 O 1.0075 0.14365 1.00306 0.0
O426 O 0.99118 0.18594 0.98901 0.0
C427 C 0.99562 0.16865 1.01186 0.0
O428 O 0.95359 0.16592 0.90041 0.0
O429 O 0.96449 0.13764 0.94172 0.0
O430 O 1.01763 0.11989 0.85525 0.0
O431 O 1.00736 0.11843 0.90308 0.0
H432 H 1.04866 0.05522 0.898 0.0
H433 H 0.97214 0.999 0.89771 0.0
H434 H 0.97241 0.07816 0.84507 0.0
O435 O 0.81232 0.73408 0.95496 0.0
Tb436 Tb 0.8504 0.70343 0.95539 0.0
Eu437 Eu 0.8604 0.69981 0.87755 0.0
C438 C 0.79139 0.7328 0.93433 0.0
O439 O 0.79489 0.71558 0.91097 0.0
C440 C 0.81543 0.65525 0.91385 0.0
O441 O 0.88054 0.6917 0.83173 0.0
C442 C 0.84114 0.75475 0.87976 0.0
C443 C 0.88544 0.66533 0.81944 0.0
O444 O 0.87745 0.64087 0.83352 0.0
C445 C 0.91327 0.70633 0.925 0.0
C446 C 0.85041 0.78624 0.87754 0.0
C447 C 0.83239 0.80856 0.89105 0.0
C448 C 0.84348 0.83806 0.89311 0.0
C449 C 0.87474 0.84004 0.88938 0.0
C450 C 0.88567 0.82543 0.86365 0.0
C451 C 0.87582 0.79545 0.86092 0.0
O452 O 0.82634 0.66393 0.93987 0.0
O453 O 0.82405 0.66606 0.8877 0.0
O454 O 0.85096 0.71481 1.00307 0.0
O455 O 0.86726 0.67252 0.98902 0.0
C456 C 0.86279 0.68979 1.01189 0.0
O457 O 0.90487 0.69255 0.90042 0.0
O458 O 0.89398 0.72083 0.94173 0.0
O459 O 0.84085 0.73859 0.85525 0.0
O460 O 0.85111 0.74005 0.90309 0.0
H461 H 0.80982 0.80326 0.898 0.0
H462 H 0.88633 0.85948 0.8977 0.0
H463 H 0.88606 0.78031 0.84507 0.0
O464 O 0.9035 1.04615 0.73407 0.0
Tb465 Tb 0.90307 1.00807 0.70343 0.0
Eu466 Eu 0.98091 0.99807 0.6998 0.0
C467 C 0.92413 0.06708 0.73279 0.0
O468 O 0.94749 0.06357 0.71557 0.0
C469 C 0.94461 1.04304 0.65524 0.0
O470 O 1.02673 0.97793 0.69169 0.0
C471 C 0.97871 1.01732 0.75475 0.0
C472 C 1.03902 0.97303 0.66532 0.0
O473 O 1.02494 0.98102 0.64086 0.0
C474 C 0.93346 0.94519 0.70633 0.0
C475 C 0.98093 1.00807 0.78624 0.0
C476 C 0.96744 1.0261 0.80855 0.0
C477 C 0.96539 1.015 0.83805 0.0
C478 C 0.96908 0.98375 0.84005 0.0
C479 C 0.9948 0.97279 0.82544 0.0
C480 C 0.99753 0.98264 0.79545 0.0
O481 O 0.91859 1.03212 0.66392 0.0
O482 O 0.97076 1.03442 0.66605 0.0
O483 O 0.85539 1.00751 0.7148 0.0
O484 O 0.86944 0.9912 0.67251 0.0
C485 C 0.84658 0.99567 0.68978 0.0
O486 O 0.95804 0.95359 0.69255 0.0
O487 O 0.91673 0.96449 0.72082 0.0
O488 O 1.00322 1.01761 0.73858 0.0
O489 O 0.95538 1.00736 0.74005 0.0
H490 H 0.96051 1.04868 0.80326 0.0
H491 H 0.96075 0.97216 0.85949 0.0
H492 H 1.01337 0.97238 0.78031 0.0
O493 O 0.95497 0.81232 0.73407 0.0
Tb494 Tb 0.9554 0.8504 0.70343 0.0
Eu495 Eu 0.87756 0.86039 0.6998 0.0
C496 C 0.93434 0.79139 0.73279 0.0
O497 O 0.91098 0.79489 0.71557 0.0
C498 C 0.91386 0.81542 0.65524 0.0
O499 O 0.83174 0.88054 0.69168 0.0
C500 C 0.87975 0.84114 0.75474 0.0
C501 C 0.81944 0.88543 0.66532 0.0
O502 O 0.83353 0.87744 0.64086 0.0
C503 C 0.925 0.91327 0.70633 0.0
C504 C 0.87754 0.85041 0.78623 0.0
C505 C 0.89103 0.83238 0.80855 0.0
C506 C 0.89308 0.84347 0.83804 0.0
C507 C 0.88939 0.87473 0.84004 0.0
C508 C 0.86367 0.88569 0.82543 0.0
C509 C 0.86093 0.87583 0.79544 0.0
O510 O 0.93988 0.82634 0.66392 0.0
O511 O 0.88771 0.82405 0.66605 0.0
O512 O 1.00308 0.85096 0.7148 0.0
O513 O 0.98903 0.86727 0.67251 0.0
C514 C 1.01189 0.8628 0.68978 0.0
O515 O 0.90043 0.90487 0.69255 0.0
O516 O 0.94174 0.89398 0.72082 0.0
O517 O 0.85525 0.84085 0.73858 0.0
O518 O 0.90309 0.85111 0.74005 0.0
H519 H 0.89796 0.8098 0.80326 0.0
H520 H 0.89772 0.88632 0.85948 0.0
H521 H 0.8451 0.88609 0.78031 0.0
O522 O 0.9035 0.81232 0.12438 0.0
Tb523 Tb 0.90307 0.8504 0.15502 0.0
Eu524 Eu 0.9809 0.8604 0.15865 0.0
C525 C 0.92413 0.79139 0.12566 0.0
O526 O 0.94749 0.7949 0.14288 0.0
C527 C 0.9446 0.81543 0.20321 0.0
O528 O 1.02672 0.88055 0.16677 0.0
C529 C 0.97871 0.84115 0.10371 0.0
C530 C 1.03902 0.88544 0.19314 0.0
O531 O 1.02493 0.87746 0.2176 0.0
C532 C 0.93346 0.91328 0.15212 0.0
C533 C 0.98093 0.85041 0.07222 0.0
C534 C 0.96744 0.83238 1.0499 0.0
C535 C 0.96539 0.84348 1.02041 0.0
C536 C 0.96909 0.87474 1.01841 0.0
C537 C 0.99481 0.88569 1.03302 0.0
C538 C 0.99754 0.87583 0.06301 0.0
O539 O 0.91859 0.82635 0.19453 0.0
O540 O 0.97075 0.82406 0.1924 0.0
O541 O 0.85539 0.85097 0.14365 0.0
O542 O 0.86944 0.86727 0.18594 0.0
C543 C 0.84657 0.86281 0.16867 0.0
O544 O 0.95803 0.90488 0.1659 0.0
O545 O 0.91672 0.89398 0.13763 0.0
O546 O 1.00321 0.84086 0.11987 0.0
O547 O 0.95538 0.85111 0.1184 0.0
H548 H 0.96051 0.8098 0.05519 0.0
H549 H 0.96076 0.88632 0.99897 0.0
H550 H 1.01337 0.8861 0.07815 0.0
O551 O 0.95496 1.04615 0.12437 0.0
Tb552 Tb 0.95539 1.00807 0.15502 0.0
Eu553 Eu 0.87756 0.99808 0.15866 0.0
C554 C 0.93433 0.06708 0.12565 0.0
O555 O 0.91098 0.06359 0.1429 0.0
C556 C 0.91387 1.04304 0.20322 0.0
O557 O 0.83173 0.97794 0.16677 0.0
C558 C 0.87975 1.01734 0.10372 0.0
C559 C 0.81944 0.97304 0.19314 0.0
O560 O 0.83352 0.98103 0.2176 0.0
C561 C 0.92499 0.9452 0.15212 0.0
C562 C 0.87753 1.00808 0.07222 0.0
C563 C 0.89102 1.0261 1.04991 0.0
C564 C 0.89308 1.01501 1.02042 0.0
C565 C 0.88939 0.98375 1.01842 0.0
C566 C 0.86367 0.97279 1.03303 0.0
C567 C 0.86093 0.98265 0.06301 0.0
O568 O 0.93988 1.03214 0.19452 0.0
O569 O 0.88771 1.03442 0.19241 0.0
O570 O 1.00307 1.0075 0.14364 0.0
O571 O 0.98901 0.99117 0.18593 0.0
C572 C 1.01187 0.99562 0.16864 0.0
O573 O 0.90042 0.9536 0.16591 0.0
O574 O 0.94172 0.9645 0.13762 0.0
O575 O 0.85525 1.01762 0.11988 0.0
O576 O 0.90308 1.00737 0.11841 0.0
H577 H 0.89795 1.04868 0.0552 0.0
H578 H 0.89772 0.97216 0.99898 0.0
H579 H 0.84509 0.97239 0.07815 0.0
O580 O 0.73409 0.90351 1.04614 0.0
Tb581 Tb 0.70344 0.90308 1.00806 0.0
Eu582 Eu 0.69982 0.98091 0.99806 0.0
C583 C 0.7328 0.92414 0.06707 0.0
O584 O 0.71558 0.9475 0.06356 0.0
C585 C 0.65525 0.94461 1.04303 0.0
O586 O 0.6917 1.02673 0.97792 0.0
C587 C 0.75476 0.97872 1.01732 0.0
C588 C 0.66533 1.03902 0.97302 0.0
O589 O 0.64088 1.02494 0.981 0.0
C590 C 0.70635 0.93347 0.94519 0.0
C591 C 0.78625 0.98094 1.00806 0.0
C592 C 0.80857 0.96743 1.02608 0.0
C593 C 0.83806 0.96538 1.01499 0.0
C594 C 0.84007 0.9691 0.98373 0.0
C595 C 0.82545 0.99482 0.9728 0.0
C596 C 0.79546 0.99756 0.98265 0.0
O597 O 0.66393 0.9186 1.03212 0.0
O598 O 0.66606 0.97076 1.0344 0.0
O599 O 0.71481 0.85539 1.0075 0.0
O600 O 0.67252 0.86945 0.9912 0.0
C601 C 0.6898 0.84658 0.99566 0.0
O602 O 0.69257 0.95804 0.95358 0.0
O603 O 0.72084 0.91673 0.96448 0.0
O604 O 0.73859 1.00322 1.01761 0.0
O605 O 0.74007 0.95538 1.00735 0.0
H606 H 0.80327 0.96049 1.04866 0.0
H607 H 0.85951 0.96078 0.97214 0.0
H608 H 0.78033 1.01341 0.9724 0.0
O609 O 0.73409 0.95497 0.81231 0.0
Tb610 Tb 0.70344 0.9554 0.85039 0.0
Eu611 Eu 0.69982 0.87756 0.86039 0.0
C612 C 0.7328 0.93433 0.79138 0.0
O613 O 0.71558 0.91097 0.79489 0.0
C614 C 0.65525 0.91386 0.81542 0.0
O615 O 0.6917 0.83174 0.88053 0.0
C616 C 0.75476 0.87976 0.84113 0.0
C617 C 0.66533 0.81945 0.88543 0.0
O618 O 0.64087 0.83354 0.87744 0.0
C619 C 0.70635 0.92501 0.91326 0.0
C620 C 0.78625 0.87754 0.85039 0.0
C621 C 0.80857 0.89105 0.83237 0.0
C622 C 0.83806 0.8931 0.84347 0.0
C623 C 0.84007 0.88938 0.87473 0.0
C624 C 0.82544 0.86366 0.88565 0.0
C625 C 0.79546 0.86091 0.8758 0.0
O626 O 0.66394 0.93988 0.82633 0.0
O627 O 0.66606 0.88771 0.82404 0.0
O628 O 0.71481 1.00308 0.85095 0.0
O629 O 0.67252 0.98903 0.86725 0.0
C630 C 0.6898 1.01189 0.86279 0.0
O631 O 0.69257 0.90043 0.90487 0.0
O632 O 0.72084 0.94174 0.89397 0.0
O633 O 0.73859 0.85525 0.84084 0.0
O634 O 0.74007 0.90309 0.8511 0.0
H635 H 0.80328 0.89799 0.8098 0.0
H636 H 0.85951 0.8977 0.88632 0.0
H637 H 0.78033 0.84506 0.88605 0.0
O638 O 0.12438 0.9035 0.81231 0.0
Tb639 Tb 0.15503 0.90307 0.85039 0.0
Eu640 Eu 0.15865 0.9809 0.86039 0.0
C641 C 0.12566 0.92413 0.79138 0.0
O642 O 0.14288 0.94749 0.79489 0.0
C643 C 0.20322 0.9446 0.81542 0.0
O644 O 0.16677 1.02672 0.88054 0.0
C645 C 0.10371 0.97872 0.84113 0.0
C646 C 0.19314 1.03902 0.88544 0.0
O647 O 0.2176 1.02493 0.87746 0.0
C648 C 0.15212 0.93346 0.91327 0.0
C649 C 0.07222 0.98094 0.85039 0.0
C650 C 1.0499 0.96743 0.83238 0.0
C651 C 1.02041 0.96538 0.84348 0.0
C652 C 1.0184 0.9691 0.87473 0.0
C653 C 1.03303 0.99482 0.88566 0.0
C654 C 0.06301 0.99757 0.8758 0.0
O655 O 0.19453 0.91859 0.82633 0.0
O656 O 0.19241 0.97075 0.82405 0.0
O657 O 0.14365 0.85539 0.85095 0.0
O658 O 0.18594 0.86944 0.86726 0.0
C659 C 0.16867 0.84657 0.86279 0.0
O660 O 0.1659 0.95803 0.90487 0.0
O661 O 0.13763 0.91672 0.89397 0.0
O662 O 0.11988 1.00321 0.84084 0.0
O663 O 0.1184 0.95538 0.8511 0.0
H664 H 0.05519 0.96048 0.8098 0.0
H665 H 0.99896 0.96078 0.88633 0.0
H666 H 0.07814 1.01341 0.88605 0.0
O667 O 0.12437 0.95496 1.04614 0.0
Tb668 Tb 0.15502 0.95539 1.00806 0.0
Eu669 Eu 0.15866 0.87756 0.99807 0.0
C670 C 0.12566 0.93433 0.06707 0.0
O671 O 0.1429 0.91098 0.06358 0.0
C672 C 0.20323 0.91387 1.04302 0.0
O673 O 0.16677 0.83174 0.97792 0.0
C674 C 0.10372 0.87975 1.01733 0.0
C675 C 0.19314 0.81944 0.97302 0.0
O676 O 0.2176 0.83353 0.98101 0.0
C677 C 0.15212 0.925 0.94519 0.0
C678 C 0.07222 0.87753 1.00807 0.0
C679 C 1.04991 0.89104 1.02608 0.0
C680 C 1.02042 0.8931 1.01498 0.0
C681 C 1.01841 0.88938 0.98373 0.0
C682 C 1.03303 0.86365 0.9728 0.0
C683 C 0.06301 0.86091 0.98266 0.0
O684 O 0.19453 0.93988 1.03213 0.0
O685 O 0.19242 0.88771 1.0344 0.0
O686 O 0.14364 1.00307 1.00749 0.0
O687 O 0.18593 0.98901 0.99117 0.0
C688 C 0.16864 1.01187 0.99561 0.0
O689 O 0.1659 0.90042 0.95359 0.0
O690 O 0.13762 0.94173 0.96448 0.0
O691 O 0.11988 0.85525 1.01762 0.0
O692 O 0.11841 0.90309 1.00736 0.0
H693 H 0.0552 0.89799 1.04866 0.0
H694 H 0.99897 0.8977 0.97214 0.0
H695 H 0.07815 0.84506 0.97241 0.0
O696 O 0.06232 0.87438 0.70495 0.0
Tb697 Tb 0.1004 0.90503 0.70538 0.0
Eu698 Eu 0.11039 0.90867 0.62755 0.0
C699 C 1.04139 0.87567 0.68432 0.0
O700 O 1.04488 0.89291 0.66097 0.0
C701 C 0.06544 0.95324 0.66386 0.0
O702 O 0.13054 0.91678 0.58172 0.0
C703 C 0.09113 0.85373 0.62975 0.0
C704 C 0.13544 0.94314 0.56943 0.0
O705 O 0.12745 0.9676 0.58351 0.0
C706 C 0.16327 0.90214 0.67499 0.0
C707 C 0.1004 0.82224 0.62754 0.0
C708 C 0.08238 0.79992 0.64105 0.0
C709 C 0.09347 0.77042 0.6431 0.0
C710 C 0.12473 0.76844 0.63938 0.0
C711 C 0.13567 0.78305 0.61365 0.0
C712 C 0.12581 0.81303 0.61091 0.0
O713 O 0.07633 0.94454 0.68987 0.0
O714 O 0.07406 0.94243 0.6377 0.0
O715 O 0.10097 0.89365 0.75306 0.0
O716 O 0.11729 0.93594 0.73901 0.0
C717 C 0.11285 0.91865 0.76186 0.0
O718 O 0.15487 0.91592 0.65041 0.0
O719 O 0.14398 0.88764 0.69172 0.0
O720 O 0.09084 0.86989 0.60525 0.0
O721 O 0.1011 0.86842 0.65308 0.0
H722 H 0.05981 0.80522 0.64799 0.0
H723 H 0.13633 0.749 0.64771 0.0
H724 H 0.13606 0.82816 0.59507 0.0
O725 O 0.29615 0.48408 0.70496 0.0
Tb726 Tb 0.25807 0.45343 0.70539 0.0
Eu727 Eu 0.24807 0.44981 0.62755 0.0
C728 C 0.31708 0.4828 0.68433 0.0
O729 O 0.31357 0.46557 0.66097 0.0
C730 C 0.29304 0.40524 0.66385 0.0
O731 O 0.22792 0.4417 0.58173 0.0
C732 C 0.26732 0.50475 0.62976 0.0
C733 C 0.22302 0.41534 0.56943 0.0
O734 O 0.23102 0.39088 0.58351 0.0
C735 C 0.19519 0.45633 0.675 0.0
C736 C 0.25806 0.53624 0.62754 0.0
C737 C 0.27607 0.55856 0.64105 0.0
C738 C 0.26499 0.58806 0.64311 0.0
C739 C 0.23373 0.59005 0.63938 0.0
C740 C 0.22279 0.57544 0.61365 0.0
C741 C 0.23265 0.54545 0.61092 0.0
O742 O 0.28212 0.41392 0.68986 0.0
O743 O 0.28441 0.41606 0.6377 0.0
O744 O 0.25751 0.46481 0.75307 0.0
O745 O 0.2412 0.42251 0.73902 0.0
C746 C 0.24567 0.43979 0.76188 0.0
O747 O 0.20359 0.44256 0.65042 0.0
O748 O 0.21449 0.47082 0.69173 0.0
O749 O 0.26762 0.48859 0.60525 0.0
O750 O 0.25735 0.49006 0.65309 0.0
H751 H 0.29865 0.55326 0.648 0.0
H752 H 0.22213 0.60948 0.64771 0.0
H753 H 0.2224 0.53032 0.59507 0.0
O754 O 0.06231 0.48408 0.6535 0.0
Tb755 Tb 0.1004 0.45343 0.65306 0.0
Eu756 Eu 0.11039 0.44981 0.7309 0.0
C757 C 1.04139 0.4828 0.67413 0.0
O758 O 1.04489 0.46557 0.69748 0.0
C759 C 0.06543 0.40524 0.6946 0.0
O760 O 0.13054 0.4417 0.77672 0.0
C761 C 0.09114 0.50475 0.7287 0.0
C762 C 0.13544 0.41533 0.78902 0.0
O763 O 0.12745 0.39087 0.77494 0.0
C764 C 0.16327 0.45633 0.68346 0.0
C765 C 0.1004 0.53624 0.73091 0.0
C766 C 0.08238 0.55856 0.7174 0.0
C767 C 0.09347 0.58806 0.71535 0.0
C768 C 0.12473 0.59004 0.71907 0.0
C769 C 0.13567 0.57544 0.7448 0.0
C770 C 0.12581 0.54545 0.74754 0.0
O771 O 0.07634 0.41393 0.66859 0.0
O772 O 0.07405 0.41605 0.72075 0.0
O773 O 0.10096 0.46481 0.60538 0.0
O774 O 0.11726 0.42252 0.61943 0.0
C775 C 0.11279 0.43979 0.59657 0.0
O776 O 0.15487 0.44255 0.70803 0.0
O777 O 0.14398 0.47083 0.66672 0.0
O778 O 0.09085 0.48859 0.7532 0.0
O779 O 0.10111 0.49005 0.70536 0.0
H780 H 0.05981 0.55326 0.71046 0.0
H781 H 0.13632 0.60948 0.71075 0.0
H782 H 0.13606 0.53032 0.76338 0.0
O783 O 0.29615 0.87439 0.65349 0.0
Tb784 Tb 0.25807 0.90504 0.65306 0.0
Eu785 Eu 0.24806 0.90866 0.7309 0.0
C786 C 0.31707 0.87568 0.67412 0.0
O787 O 0.31357 0.8929 0.69748 0.0
C788 C 0.29303 0.95323 0.6946 0.0
O789 O 0.22792 0.91678 0.77672 0.0
C790 C 0.26732 0.85372 0.7287 0.0
C791 C 0.22302 0.94314 0.78901 0.0
O792 O 0.23101 0.9676 0.77493 0.0
C793 C 0.19519 0.90214 0.68345 0.0
C794 C 0.25806 0.82223 0.73091 0.0
C795 C 0.27607 0.79991 0.7174 0.0
C796 C 0.26498 0.77041 0.71535 0.0
C797 C 0.23372 0.76843 0.71908 0.0
C798 C 0.22279 0.78304 0.74481 0.0
C799 C 0.23265 0.81302 0.74754 0.0
O800 O 0.28212 0.94455 0.66858 0.0
O801 O 0.28441 0.94242 0.72075 0.0
O802 O 0.25751 0.89367 0.60538 0.0
O803 O 0.2412 0.93596 0.61943 0.0
C804 C 0.24567 0.91868 0.59656 0.0
O805 O 0.20359 0.91591 0.70802 0.0
O806 O 0.21449 0.88764 0.66671 0.0
O807 O 0.26761 0.86988 0.7532 0.0
O808 O 0.25735 0.86842 0.70536 0.0
H809 H 0.29864 0.80521 0.71045 0.0
H810 H 0.22213 0.74899 0.71076 0.0
H811 H 0.2224 0.82816 0.76338 0.0
O812 O 0.20497 0.56232 0.87438 0.0
Tb813 Tb 0.2054 0.6004 0.90503 0.0
Eu814 Eu 0.12756 0.6104 0.90865 0.0
C815 C 0.18434 0.54139 0.87566 0.0
O816 O 0.16098 0.5449 0.89288 0.0
C817 C 0.16386 0.56543 0.95321 0.0
O818 O 0.08174 0.63055 0.91677 0.0
C819 C 0.12975 0.59115 0.85371 0.0
C820 C 0.06945 0.63544 0.94314 0.0
O821 O 0.08353 0.62746 0.9676 0.0
C822 C 0.17501 0.66328 0.90212 0.0
C823 C 0.12753 0.60041 0.82222 0.0
C824 C 0.14102 0.58238 0.7999 0.0
C825 C 0.14308 0.59348 0.77041 0.0
C826 C 0.13938 0.62473 0.76841 0.0
C827 C 0.11366 0.63569 0.78302 0.0
C828 C 0.11093 0.62583 0.81301 0.0
O829 O 0.18988 0.57634 0.94453 0.0
O830 O 0.13771 0.57406 0.9424 0.0
O831 O 0.25308 0.60096 0.89365 0.0
O832 O 0.23903 0.61727 0.93594 0.0
C833 C 0.26189 0.6128 0.91867 0.0
O834 O 0.15043 0.65488 0.9159 0.0
O835 O 0.19174 0.64398 0.88763 0.0
O836 O 0.10525 0.59086 0.86987 0.0
O837 O 0.15309 0.60111 0.8684 0.0
H838 H 0.14795 0.5598 0.80519 0.0
H839 H 0.14771 0.63632 0.74897 0.0
H840 H 0.09509 0.63609 0.82815 0.0
O841 O 0.15351 0.79614 0.87437 0.0
Tb842 Tb 0.15308 0.75807 0.90502 0.0
Eu843 Eu 0.23091 0.74807 0.90866 0.0
C844 C 0.17414 0.81707 0.87566 0.0
O845 O 0.19748 0.81359 0.8929 0.0
C846 C 0.1946 0.79303 0.95323 0.0
O847 O 0.27673 0.72793 0.91677 0.0
C848 C 0.22872 0.76733 0.85371 0.0
C849 C 0.28903 0.72304 0.94314 0.0
O850 O 0.27495 0.73103 0.96759 0.0
C851 C 0.18347 0.6952 0.90212 0.0
C852 C 0.23093 0.75807 0.82222 0.0
C853 C 0.21744 0.7761 0.79991 0.0
C854 C 0.21538 0.765 0.77042 0.0
C855 C 0.21908 0.73374 0.76842 0.0
C856 C 0.2448 0.72279 0.78303 0.0
C857 C 0.24753 0.73264 0.81301 0.0
O858 O 0.16859 0.78213 0.94453 0.0
O859 O 0.22076 0.78441 0.94241 0.0
O860 O 0.1054 0.7575 0.89364 0.0
O861 O 0.11945 0.74117 0.93593 0.0
C862 C 0.0966 0.74561 0.91864 0.0
O863 O 0.20804 0.70359 0.9159 0.0
O864 O 0.16674 0.71449 0.88762 0.0
O865 O 0.25322 0.76762 0.86988 0.0
O866 O 0.20538 0.75737 0.86841 0.0
H867 H 0.21051 0.79868 0.8052 0.0
H868 H 0.21074 0.72216 0.74898 0.0
H869 H 0.26337 0.72238 0.82815 0.0
O870 O 0.20497 0.79615 0.48407 0.0
Tb871 Tb 0.20539 0.75807 0.45342 0.0
Eu872 Eu 0.12756 0.74807 0.4498 0.0
C873 C 0.18433 0.81708 0.48279 0.0
O874 O 0.16097 0.81357 0.46557 0.0
C875 C 0.16386 0.79304 0.40524 0.0
O876 O 0.08174 0.72793 0.44169 0.0
C877 C 0.12975 0.76733 0.50474 0.0
C878 C 0.06944 0.72303 0.41532 0.0
O879 O 0.08353 0.73103 0.39086 0.0
C880 C 0.175 0.6952 0.45633 0.0
C881 C 0.12753 0.75807 0.53624 0.0
C882 C 0.14102 0.7761 0.55855 0.0
C883 C 0.14308 0.765 0.58804 0.0
C884 C 0.13938 0.73375 0.59005 0.0
C885 C 0.11367 0.72279 0.57543 0.0
C886 C 0.11093 0.73264 0.54545 0.0
O887 O 0.18987 0.78213 0.41392 0.0
O888 O 0.13771 0.78442 0.41605 0.0
O889 O 0.25308 0.75751 0.4648 0.0
O890 O 0.23902 0.7412 0.42251 0.0
C891 C 0.26189 0.74567 0.43978 0.0
O892 O 0.15043 0.70359 0.44255 0.0
O893 O 0.19174 0.71449 0.47082 0.0
O894 O 0.10525 0.76761 0.48858 0.0
O895 O 0.15309 0.75736 0.49005 0.0
H896 H 0.14795 0.79868 0.55326 0.0
H897 H 0.14772 0.72217 0.60949 0.0
H898 H 0.0951 0.72238 0.53031 0.0
O899 O 0.1535 0.56232 0.48407 0.0
Tb900 Tb 0.15307 0.6004 0.45342 0.0
Eu901 Eu 0.23091 0.6104 0.4498 0.0
C902 C 0.17413 0.54139 0.48279 0.0
O903 O 0.19749 0.5449 0.46557 0.0
C904 C 0.19461 0.56543 0.40524 0.0
O905 O 0.27673 0.63054 0.44169 0.0
C906 C 0.22871 0.59115 0.50475 0.0
C907 C 0.28902 0.63544 0.41532 0.0
O908 O 0.27494 0.62745 0.39086 0.0
C909 C 0.18346 0.66327 0.45633 0.0
C910 C 0.23093 0.60041 0.53624 0.0
C911 C 0.21744 0.58238 0.55855 0.0
C912 C 0.21538 0.59348 0.58804 0.0
C913 C 0.21908 0.62473 0.59005 0.0
C914 C 0.2448 0.63569 0.57543 0.0
C915 C 0.24753 0.62583 0.54545 0.0
O916 O 0.16859 0.57634 0.41392 0.0
O917 O 0.22076 0.57405 0.41605 0.0
O918 O 0.10539 0.60096 0.4648 0.0
O919 O 0.11944 0.61727 0.42251 0.0
C920 C 0.09658 0.6128 0.43978 0.0
O921 O 0.20804 0.65488 0.44255 0.0
O922 O 0.16673 0.64398 0.47082 0.0
O923 O 0.25321 0.59086 0.48858 0.0
O924 O 0.20538 0.60111 0.49005 0.0
H925 H 0.21051 0.5598 0.55326 0.0
H926 H 0.21075 0.63632 0.60949 0.0
H927 H 0.26337 0.6361 0.53031 0.0
O928 O 0.37438 0.70497 0.56231 0.0
Tb929 Tb 0.40503 0.7054 0.60039 0.0
Eu930 Eu 0.40865 0.62756 0.61039 0.0
C931 C 0.37566 0.68434 0.54138 0.0
O932 O 0.39288 0.66098 0.54489 0.0
C933 C 0.45321 0.66386 0.56542 0.0
O934 O 0.41676 0.58174 0.63053 0.0
C935 C 0.35371 0.62976 0.59113 0.0
C936 C 0.44313 0.56945 0.63543 0.0
O937 O 0.46759 0.58353 0.62744 0.0
C938 C 0.40212 0.67501 0.66326 0.0
C939 C 0.32221 0.62754 0.60039 0.0
C940 C 0.2999 0.64105 0.58237 0.0
C941 C 0.2704 0.6431 0.59347 0.0
C942 C 0.2684 0.63938 0.62473 0.0
C943 C 0.28302 0.61366 0.63565 0.0
C944 C 0.313 0.61091 0.6258 0.0
O945 O 0.44453 0.68988 0.57633 0.0
O946 O 0.4424 0.63771 0.57404 0.0
O947 O 0.39365 0.75308 0.60095 0.0
O948 O 0.43594 0.73903 0.61726 0.0
C949 C 0.41867 0.76189 0.61279 0.0
O950 O 0.4159 0.65043 0.65487 0.0
O951 O 0.38763 0.69174 0.64397 0.0
O952 O 0.36987 0.60525 0.59084 0.0
O953 O 0.3684 0.65309 0.6011 0.0
H954 H 0.30519 0.64799 0.5598 0.0
H955 H 0.24896 0.6477 0.63632 0.0
H956 H 0.32814 0.59506 0.63605 0.0
O957 O 0.37438 0.65351 0.79614 0.0
Tb958 Tb 0.40503 0.65307 0.75806 0.0
Eu959 Eu 0.40865 0.73091 0.74806 0.0
C960 C 0.37566 0.67414 0.81707 0.0
O961 O 0.39288 0.6975 0.81356 0.0
C962 C 0.45321 0.69461 0.79303 0.0
O963 O 0.41676 0.77673 0.72791 0.0
C964 C 0.3537 0.72872 0.76732 0.0
C965 C 0.44313 0.78903 0.72302 0.0
O966 O 0.46759 0.77494 0.73101 0.0
C967 C 0.40212 0.68347 0.69519 0.0
C968 C 0.32221 0.73094 0.75806 0.0
C969 C 0.2999 0.71743 0.77608 0.0
C970 C 0.2704 0.71537 0.76499 0.0
C971 C 0.2684 0.71909 0.73373 0.0
C972 C 0.28302 0.74482 0.7228 0.0
C973 C 0.313 0.74756 0.73265 0.0
O974 O 0.44453 0.6686 0.78212 0.0
O975 O 0.4424 0.72076 0.7844 0.0
O976 O 0.39365 0.60539 0.7575 0.0
O977 O 0.43594 0.61944 0.74119 0.0
C978 C 0.41867 0.59658 0.74566 0.0
O979 O 0.4159 0.70804 0.70358 0.0
O980 O 0.38763 0.66673 0.71448 0.0
O981 O 0.36987 0.75322 0.76761 0.0
O982 O 0.3684 0.70538 0.75735 0.0
H983 H 0.30519 0.71048 0.79866 0.0
H984 H 0.24895 0.71077 0.72214 0.0
H985 H 0.32813 0.76341 0.7224 0.0
O986 O 0.9841 0.70496 0.79614 0.0
Tb987 Tb 0.95344 0.70539 0.75806 0.0
Eu988 Eu 0.94981 0.62756 0.74807 0.0
C989 C 0.98281 0.68433 0.81707 0.0
O990 O 0.96556 0.66098 0.81358 0.0
C991 C 0.90524 0.66387 0.79302 0.0
O992 O 0.94169 0.58173 0.72792 0.0
C993 C 1.00475 0.62975 0.76733 0.0
C994 C 0.91533 0.56944 0.72302 0.0
O995 O 0.89087 0.58353 0.73101 0.0
C996 C 0.95635 0.67499 0.69519 0.0
C997 C 1.03624 0.62753 0.75807 0.0
C998 C 0.05856 0.64104 0.77609 0.0
C999 C 0.08805 0.6431 0.76498 0.0
C1000 C 0.09005 0.63938 0.73373 0.0
C1001 C 0.07543 0.61365 0.72281 0.0
C1002 C 1.04545 0.61091 0.73266 0.0
O1003 O 0.91394 0.68988 0.78213 0.0
O1004 O 0.91605 0.63771 0.7844 0.0
O1005 O 0.96482 0.75307 0.75749 0.0
O1006 O 0.92253 0.73901 0.74117 0.0
C1007 C 0.93982 0.76187 0.74561 0.0
O1008 O 0.94256 0.65042 0.70359 0.0
O1009 O 0.97084 0.69173 0.71448 0.0
O1010 O 0.98858 0.60525 0.76762 0.0
O1011 O 0.99006 0.65309 0.75736 0.0
H1012 H 1.05327 0.64799 0.79866 0.0
H1013 H 0.10949 0.6477 0.72214 0.0
H1014 H 1.03032 0.59506 0.72241 0.0
O1015 O 0.98409 0.6535 0.56231 0.0
Tb1016 Tb 0.95344 0.65307 0.60039 0.0
Eu1017 Eu 0.94981 0.7309 0.61039 0.0
C1018 C 0.9828 0.67413 0.54138 0.0
O1019 O 0.96558 0.69749 0.54489 0.0
C1020 C 0.90525 0.6946 0.56542 0.0
O1021 O 0.94169 0.77672 0.63054 0.0
C1022 C 1.00476 0.72871 0.59113 0.0
C1023 C 0.91533 0.78901 0.63544 0.0
O1024 O 0.89087 0.77493 0.62746 0.0
C1025 C 0.95635 0.68346 0.66327 0.0
C1026 C 1.03625 0.73094 0.60039 0.0
C1027 C 0.05857 0.71743 0.58238 0.0
C1028 C 0.08806 0.71538 0.59348 0.0
C1029 C 0.09006 0.7191 0.62473 0.0
C1030 C 0.07544 0.74482 0.63565 0.0
C1031 C 1.04546 0.74756 0.6258 0.0
O1032 O 0.91394 0.66859 0.57633 0.0
O1033 O 0.91606 0.72075 0.57405 0.0
O1034 O 0.96481 0.60539 0.60095 0.0
O1035 O 0.92252 0.61944 0.61726 0.0
C1036 C 0.9398 0.59657 0.61279 0.0
O1037 O 0.94257 0.70803 0.65487 0.0
O1038 O 0.97084 0.66672 0.64397 0.0
O1039 O 0.98859 0.75321 0.59084 0.0
O1040 O 0.99007 0.70538 0.6011 0.0
H1041 H 1.05327 0.71048 0.5598 0.0
H1042 H 0.1095 0.71078 0.63632 0.0
H1043 H 1.03032 0.76341 0.63605 0.0
O1044 O 1.04614 0.23409 0.40351 0.0
Tb1045 Tb 1.00807 0.20344 0.40307 0.0
Eu1046 Eu 0.99807 0.1998 0.4809 0.0
C1047 C 0.06707 0.2328 0.42413 0.0
O1048 O 0.06359 0.21556 0.44748 0.0
C1049 C 1.04303 0.15523 0.44459 0.0
O1050 O 0.97793 0.19169 0.52673 0.0
C1051 C 1.01734 0.25474 0.4787 0.0
C1052 C 0.97303 0.16533 0.53902 0.0
O1053 O 0.98102 0.14087 0.52494 0.0
C1054 C 0.9452 0.20633 0.43347 0.0
C1055 C 1.00807 0.28623 0.48092 0.0
C1056 C 1.02609 0.30855 0.46741 0.0
C1057 C 1.015 0.33805 0.46535 0.0
C1058 C 0.98374 0.34003 0.46908 0.0
C1059 C 0.9728 0.32543 0.49481 0.0
C1060 C 0.98266 0.29544 0.49754 0.0
O1061 O 1.03213 0.16393 0.41858 0.0
O1062 O 1.03441 0.16604 0.47075 0.0
O1063 O 1.0075 0.21482 0.35539 0.0
O1064 O 0.99118 0.17253 0.36944 0.0
C1065 C 0.99562 0.18982 0.34659 0.0
O1066 O 0.95359 0.19255 0.45804 0.0
O1067 O 0.96449 0.22083 0.41673 0.0
O1068 O 1.01763 0.23858 0.5032 0.0
O1069 O 1.00736 0.24005 0.45537 0.0
H1070 H 1.04866 0.30325 0.46046 0.0
H1071 H 0.97215 0.35947 0.46075 0.0
H1072 H 0.97241 0.28031 0.51338 0.0
O1073 O 0.81232 0.62439 0.40349 0.0
Tb1074 Tb 0.8504 0.65504 0.40306 0.0
Eu1075 Eu 0.8604 0.65866 0.4809 0.0
C1076 C 0.79139 0.62567 0.42412 0.0
O1077 O 0.7949 0.6429 0.44748 0.0
C1078 C 0.81543 0.70323 0.4446 0.0
O1079 O 0.88055 0.66678 0.52672 0.0
C1080 C 0.84114 0.60372 0.4787 0.0
C1081 C 0.88545 0.69314 0.53901 0.0
O1082 O 0.87746 0.7176 0.52493 0.0
C1083 C 0.91328 0.65213 0.43345 0.0
C1084 C 0.85041 0.57223 0.48091 0.0
C1085 C 0.8324 0.54991 0.4674 0.0
C1086 C 0.84348 0.52041 0.46535 0.0
C1087 C 0.87474 0.51843 0.46908 0.0
C1088 C 0.88568 0.53304 0.49481 0.0
C1089 C 0.87582 0.56302 0.49754 0.0
O1090 O 0.82635 0.69454 0.41858 0.0
O1091 O 0.82406 0.69242 0.47075 0.0
O1092 O 0.85096 0.64366 0.35538 0.0
O1093 O 0.86727 0.68595 0.36943 0.0
C1094 C 0.8628 0.66868 0.34656 0.0
O1095 O 0.90488 0.66591 0.45802 0.0
O1096 O 0.89398 0.63764 0.41671 0.0
O1097 O 0.84085 0.61988 0.5032 0.0
O1098 O 0.85111 0.61842 0.45536 0.0
H1099 H 0.80982 0.55521 0.46045 0.0
H1100 H 0.88634 0.49899 0.46076 0.0
H1101 H 0.88607 0.57816 0.51338 0.0
O1102 O 1.04615 0.62438 0.45494 0.0
Tb1103 Tb 1.00807 0.65503 0.45538 0.0
Eu1104 Eu 0.99807 0.65867 0.37755 0.0
C1105 C 0.06708 0.62567 0.43432 0.0
O1106 O 0.06359 0.64291 0.41097 0.0
C1107 C 1.04303 0.70324 0.41386 0.0
O1108 O 0.97793 0.66678 0.33172 0.0
C1109 C 1.01734 0.60373 0.37975 0.0
C1110 C 0.97303 0.69314 0.31943 0.0
O1111 O 0.98102 0.7176 0.33351 0.0
C1112 C 0.9452 0.65213 0.42499 0.0
C1113 C 1.00807 0.57224 0.37753 0.0
C1114 C 1.02609 0.54992 0.39104 0.0
C1115 C 1.015 0.52042 0.3931 0.0
C1116 C 0.98374 0.51844 0.38938 0.0
C1117 C 0.97281 0.53304 0.36365 0.0
C1118 C 0.98266 0.56303 0.36091 0.0
O1119 O 1.03213 0.69454 0.43987 0.0
O1120 O 1.03441 0.69243 0.3877 0.0
O1121 O 1.0075 0.64365 0.50306 0.0
O1122 O 0.99118 0.68594 0.48901 0.0
C1123 C 0.99562 0.66865 0.51186 0.0
O1124 O 0.95359 0.66592 0.40041 0.0
O1125 O 0.96449 0.63763 0.44171 0.0
O1126 O 1.01763 0.61989 0.35524 0.0
O1127 O 1.00737 0.61842 0.40308 0.0
H1128 H 1.04866 0.55522 0.39799 0.0
H1129 H 0.97215 0.499 0.3977 0.0
H1130 H 0.97241 0.57816 0.34507 0.0
O1131 O 0.81232 0.23408 0.45496 0.0
Tb1132 Tb 0.8504 0.20343 0.45539 0.0
Eu1133 Eu 0.8604 0.1998 0.37756 0.0
C1134 C 0.79139 0.2328 0.43433 0.0
O1135 O 0.79489 0.21557 0.41097 0.0
C1136 C 0.81543 0.15524 0.41386 0.0
O1137 O 0.88055 0.19169 0.33174 0.0
C1138 C 0.84114 0.25475 0.37976 0.0
C1139 C 0.88545 0.16532 0.31944 0.0
O1140 O 0.87746 0.14086 0.33352 0.0
C1141 C 0.91327 0.20633 0.425 0.0
C1142 C 0.85041 0.28624 0.37754 0.0
C1143 C 0.83239 0.30856 0.39105 0.0
C1144 C 0.84348 0.33805 0.3931 0.0
C1145 C 0.87474 0.34004 0.38937 0.0
C1146 C 0.88568 0.32543 0.36364 0.0
C1147 C 0.87581 0.29545 0.36091 0.0
O1148 O 0.82634 0.16393 0.43987 0.0
O1149 O 0.82406 0.16605 0.3877 0.0
O1150 O 0.85096 0.21481 0.50307 0.0
O1151 O 0.86726 0.17252 0.48902 0.0
C1152 C 0.8628 0.18979 0.51189 0.0
O1153 O 0.90488 0.19255 0.40043 0.0
O1154 O 0.89398 0.22083 0.44174 0.0
O1155 O 0.84085 0.23858 0.35525 0.0
O1156 O 0.85111 0.24005 0.40309 0.0
H1157 H 0.80982 0.30326 0.398 0.0
H1158 H 0.88634 0.35948 0.39769 0.0
H1159 H 0.88606 0.28031 0.34507 0.0
O1160 O 0.9035 0.54615 0.23407 0.0
Tb1161 Tb 0.90307 0.50807 0.20343 0.0
Eu1162 Eu 0.9809 0.49807 0.1998 0.0
C1163 C 0.92413 0.56708 0.23279 0.0
O1164 O 0.94749 0.56357 0.21557 0.0
C1165 C 0.9446 0.54304 0.15524 0.0
O1166 O 1.02672 0.47792 0.19168 0.0
C1167 C 0.97872 0.51732 0.25474 0.0
C1168 C 1.03902 0.47303 0.16531 0.0
O1169 O 1.02493 0.48101 0.14085 0.0
C1170 C 0.93346 0.44519 0.20633 0.0
C1171 C 0.98094 0.50806 0.28623 0.0
C1172 C 0.96745 0.5261 0.30855 0.0
C1173 C 0.96539 0.515 0.33804 0.0
C1174 C 0.96909 0.48374 0.34004 0.0
C1175 C 0.99481 0.47279 0.32543 0.0
C1176 C 0.99754 0.48264 0.29544 0.0
O1177 O 0.91859 0.53213 0.16392 0.0
O1178 O 0.97076 0.53441 0.16605 0.0
O1179 O 0.85539 0.50751 0.2148 0.0
O1180 O 0.86944 0.4912 0.17251 0.0
C1181 C 0.84657 0.49567 0.18978 0.0
O1182 O 0.95803 0.45359 0.19255 0.0
O1183 O 0.91672 0.46449 0.22082 0.0
O1184 O 1.00322 0.51761 0.23858 0.0
O1185 O 0.95538 0.50736 0.24005 0.0
H1186 H 0.96052 0.54868 0.30325 0.0
H1187 H 0.96076 0.47216 0.35949 0.0
H1188 H 1.01337 0.47238 0.2803 0.0
O1189 O 0.95496 0.31232 0.23408 0.0
Tb1190 Tb 0.95539 0.3504 0.20343 0.0
Eu1191 Eu 0.87756 0.36039 0.19979 0.0
C1192 C 0.93433 0.29139 0.2328 0.0
O1193 O 0.91098 0.29488 0.21555 0.0
C1194 C 0.91387 0.31544 0.15523 0.0
O1195 O 0.83173 0.38054 0.19168 0.0
C1196 C 0.87975 0.34113 0.25473 0.0
C1197 C 0.81944 0.38543 0.16531 0.0
O1198 O 0.83353 0.37745 0.14085 0.0
C1199 C 0.92499 0.41327 0.20633 0.0
C1200 C 0.87753 0.3504 0.28622 0.0
C1201 C 0.89102 0.33237 0.30854 0.0
C1202 C 0.89308 0.34347 0.33803 0.0
C1203 C 0.88939 0.37472 0.34003 0.0
C1204 C 0.86367 0.38568 0.32542 0.0
C1205 C 0.86093 0.37582 0.29543 0.0
O1206 O 0.93988 0.32633 0.16393 0.0
O1207 O 0.88771 0.32405 0.16604 0.0
O1208 O 1.00307 0.35097 0.21481 0.0
O1209 O 0.98901 0.3673 0.17252 0.0
C1210 C 1.01187 0.36285 0.18981 0.0
O1211 O 0.90042 0.40487 0.19254 0.0
O1212 O 0.94172 0.39398 0.22083 0.0
O1213 O 0.85525 0.34085 0.23857 0.0
O1214 O 0.90308 0.3511 0.24004 0.0
H1215 H 0.89795 0.30979 0.30325 0.0
H1216 H 0.89772 0.38631 0.35947 0.0
H1217 H 0.84509 0.38609 0.2803 0.0
O1218 O 0.9035 0.31232 0.62438 0.0
Tb1219 Tb 0.90307 0.3504 0.65502 0.0
Eu1220 Eu 0.9809 0.3604 0.65865 0.0
C1221 C 0.92413 0.29139 0.62566 0.0
O1222 O 0.94749 0.2949 0.64288 0.0
C1223 C 0.9446 0.31543 0.70321 0.0
O1224 O 1.02673 0.38055 0.66677 0.0
C1225 C 0.97872 0.34114 0.60371 0.0
C1226 C 1.03902 0.38544 0.69314 0.0
O1227 O 1.02494 0.37746 0.7176 0.0
C1228 C 0.93346 0.41328 0.65212 0.0
C1229 C 0.98094 0.3504 0.57222 0.0
C1230 C 0.96745 0.33237 0.5499 0.0
C1231 C 0.96539 0.34347 0.52041 0.0
C1232 C 0.96909 0.37473 0.51841 0.0
C1233 C 0.99481 0.38568 0.53302 0.0
C1234 C 0.99754 0.37583 0.56301 0.0
O1235 O 0.91859 0.32634 0.69453 0.0
O1236 O 0.97076 0.32406 0.6924 0.0
O1237 O 0.85539 0.35096 0.64365 0.0
O1238 O 0.86944 0.36727 0.68594 0.0
C1239 C 0.84657 0.3628 0.66867 0.0
O1240 O 0.95803 0.40488 0.6659 0.0
O1241 O 0.91672 0.39398 0.63762 0.0
O1242 O 1.00322 0.34086 0.61987 0.0
O1243 O 0.95538 0.35111 0.6184 0.0
H1244 H 0.96052 0.30979 0.5552 0.0
H1245 H 0.96076 0.38631 0.49896 0.0
H1246 H 1.01337 0.38609 0.57815 0.0
O1247 O 0.95496 0.54614 0.62437 0.0
Tb1248 Tb 0.95539 0.50807 0.65502 0.0
Eu1249 Eu 0.87756 0.49807 0.65866 0.0
C1250 C 0.93433 0.56707 0.62566 0.0
O1251 O 0.91098 0.56359 0.6429 0.0
C1252 C 0.91386 0.54303 0.70323 0.0
O1253 O 0.83173 0.47793 0.66677 0.0
C1254 C 0.87975 0.51733 0.60371 0.0
C1255 C 0.81944 0.47303 0.69314 0.0
O1256 O 0.83352 0.48102 0.71759 0.0
C1257 C 0.92499 0.4452 0.65212 0.0
C1258 C 0.87753 0.50807 0.57222 0.0
C1259 C 0.89103 0.5261 0.54991 0.0
C1260 C 0.89308 0.515 0.52042 0.0
C1261 C 0.88939 0.48374 0.51842 0.0
C1262 C 0.86367 0.47279 0.53303 0.0
C1263 C 0.86093 0.48264 0.56301 0.0
O1264 O 0.93988 0.53213 0.69453 0.0
O1265 O 0.88771 0.53441 0.69241 0.0
O1266 O 1.00307 0.5075 0.64364 0.0
O1267 O 0.98901 0.49117 0.68593 0.0
C1268 C 1.01187 0.49561 0.66864 0.0
O1269 O 0.90042 0.45359 0.6659 0.0
O1270 O 0.94172 0.46449 0.63762 0.0
O1271 O 0.85525 0.51762 0.61988 0.0
O1272 O 0.90308 0.50737 0.61841 0.0
H1273 H 0.89795 0.54868 0.5552 0.0
H1274 H 0.89772 0.47216 0.49898 0.0
H1275 H 0.84509 0.47238 0.57815 0.0
O1276 O 0.73409 0.4035 0.54614 0.0
Tb1277 Tb 0.70344 0.40307 0.50806 0.0
Eu1278 Eu 0.69982 0.48091 0.49806 0.0
C1279 C 0.7328 0.42414 0.56707 0.0
O1280 O 0.71558 0.4475 0.56356 0.0
C1281 C 0.65525 0.44461 0.54303 0.0
O1282 O 0.6917 0.52673 0.47792 0.0
C1283 C 0.75476 0.47872 0.51732 0.0
C1284 C 0.66534 0.53902 0.47302 0.0
O1285 O 0.64088 0.52494 0.48101 0.0
C1286 C 0.70635 0.43346 0.44519 0.0
C1287 C 0.78625 0.48094 0.50806 0.0
C1288 C 0.80857 0.46742 0.52608 0.0
C1289 C 0.83806 0.46537 0.51499 0.0
C1290 C 0.84007 0.46909 0.48373 0.0
C1291 C 0.82545 0.49481 0.4728 0.0
C1292 C 0.79546 0.49756 0.48265 0.0
O1293 O 0.66393 0.41859 0.53212 0.0
O1294 O 0.66606 0.47076 0.53441 0.0
O1295 O 0.71481 0.35539 0.5075 0.0
O1296 O 0.67252 0.36944 0.4912 0.0
C1297 C 0.6898 0.34658 0.49566 0.0
O1298 O 0.69257 0.45804 0.45358 0.0
O1299 O 0.72084 0.41673 0.46448 0.0
O1300 O 0.73859 0.50322 0.51761 0.0
O1301 O 0.74007 0.45538 0.50735 0.0
H1302 H 0.80327 0.46048 0.54866 0.0
H1303 H 0.85951 0.46077 0.47214 0.0
H1304 H 0.78033 0.51341 0.4724 0.0
O1305 O 0.73409 0.45496 0.31231 0.0
Tb1306 Tb 0.70344 0.4554 0.35039 0.0
Eu1307 Eu 0.69982 0.37756 0.36039 0.0
C1308 C 0.7328 0.43433 0.29138 0.0
O1309 O 0.71558 0.41097 0.29489 0.0
C1310 C 0.65525 0.41386 0.31542 0.0
O1311 O 0.6917 0.33174 0.38053 0.0
C1312 C 0.75476 0.37975 0.34113 0.0
C1313 C 0.66533 0.31945 0.38543 0.0
O1314 O 0.64088 0.33353 0.37744 0.0
C1315 C 0.70635 0.425 0.41326 0.0
C1316 C 0.78625 0.37753 0.35038 0.0
C1317 C 0.80857 0.39104 0.33237 0.0
C1318 C 0.83806 0.39309 0.34346 0.0
C1319 C 0.84007 0.38938 0.37472 0.0
C1320 C 0.82545 0.36365 0.38564 0.0
C1321 C 0.79546 0.36091 0.37579 0.0
O1322 O 0.66394 0.43988 0.32633 0.0
O1323 O 0.66606 0.38771 0.32404 0.0
O1324 O 0.71482 0.50308 0.35095 0.0
O1325 O 0.67252 0.48903 0.36725 0.0
C1326 C 0.6898 0.51189 0.36279 0.0
O1327 O 0.69257 0.40043 0.40487 0.0
O1328 O 0.72084 0.44174 0.39397 0.0
O1329 O 0.73859 0.35525 0.34084 0.0
O1330 O 0.74007 0.40309 0.3511 0.0
H1331 H 0.80327 0.39799 0.30979 0.0
H1332 H 0.85951 0.39769 0.38631 0.0
H1333 H 0.78033 0.34506 0.38605 0.0
O1334 O 0.12437 0.40351 0.31231 0.0
Tb1335 Tb 0.15502 0.40308 0.35039 0.0
Eu1336 Eu 0.15866 0.48091 0.36039 0.0
C1337 C 0.12566 0.42414 0.29139 0.0
O1338 O 0.1429 0.44749 0.29487 0.0
C1339 C 0.20323 0.4446 0.31543 0.0
O1340 O 0.16678 0.52673 0.38053 0.0
C1341 C 0.10372 0.47872 0.34112 0.0
C1342 C 0.19315 0.53902 0.38544 0.0
O1343 O 0.21761 0.52493 0.37746 0.0
C1344 C 0.15212 0.43347 0.41326 0.0
C1345 C 0.07223 0.48094 0.35038 0.0
C1346 C 1.04991 0.46743 0.33237 0.0
C1347 C 1.02042 0.46538 0.34347 0.0
C1348 C 1.01842 0.4691 0.37472 0.0
C1349 C 1.03304 0.49482 0.38565 0.0
C1350 C 0.06302 0.49757 0.37579 0.0
O1351 O 0.19452 0.41858 0.32632 0.0
O1352 O 0.19242 0.47075 0.32405 0.0
O1353 O 0.14364 0.3554 0.35096 0.0
O1354 O 0.18593 0.36945 0.36729 0.0
C1355 C 0.16864 0.3466 0.36284 0.0
O1356 O 0.1659 0.45804 0.40487 0.0
O1357 O 0.13762 0.41674 0.39397 0.0
O1358 O 0.11989 0.50322 0.34083 0.0
O1359 O 0.11841 0.45538 0.35109 0.0
H1360 H 0.0552 0.46048 0.30979 0.0
H1361 H 0.99898 0.46078 0.38632 0.0
H1362 H 0.07815 0.51342 0.38604 0.0
O1363 O 0.12437 0.45496 0.54614 0.0
Tb1364 Tb 0.15502 0.4554 0.50806 0.0
Eu1365 Eu 0.15866 0.37756 0.49806 0.0
C1366 C 0.12566 0.43433 0.56707 0.0
O1367 O 0.1429 0.41098 0.56358 0.0
C1368 C 0.20323 0.41387 0.54302 0.0
O1369 O 0.16678 0.33174 0.47792 0.0
C1370 C 0.10372 0.37975 0.51733 0.0
C1371 C 0.19315 0.31945 0.47301 0.0
O1372 O 0.21761 0.33354 0.48099 0.0
C1373 C 0.15212 0.425 0.44519 0.0
C1374 C 0.07223 0.37753 0.50807 0.0
C1375 C 1.04991 0.39104 0.52608 0.0
C1376 C 1.02042 0.39309 0.51498 0.0
C1377 C 1.01842 0.38937 0.48373 0.0
C1378 C 1.03304 0.36365 0.4728 0.0
C1379 C 0.06302 0.3609 0.48266 0.0
O1380 O 0.19452 0.43989 0.53213 0.0
O1381 O 0.19242 0.38772 0.5344 0.0
O1382 O 0.14364 0.50308 0.50749 0.0
O1383 O 0.18593 0.48902 0.49116 0.0
C1384 C 0.16864 0.51188 0.49561 0.0
O1385 O 0.1659 0.40043 0.45358 0.0
O1386 O 0.13762 0.44173 0.46448 0.0
O1387 O 0.11989 0.35525 0.51761 0.0
O1388 O 0.11841 0.40309 0.50736 0.0
H1389 H 0.0552 0.39799 0.54866 0.0
H1390 H 0.99897 0.39769 0.47213 0.0
H1391 H 0.07815 0.34505 0.47241 0.0
O1392 O 0.56232 0.37439 0.70496 0.0
Tb1393 Tb 0.6004 0.40504 0.70539 0.0
Eu1394 Eu 0.6104 0.40867 0.62755 0.0
C1395 C 0.54139 0.37568 0.68433 0.0
O1396 O 0.54489 0.3929 0.66097 0.0
C1397 C 0.56543 0.45323 0.66385 0.0
O1398 O 0.63055 0.41678 0.58173 0.0
C1399 C 0.59114 0.35372 0.62975 0.0
C1400 C 0.63545 0.44315 0.56944 0.0
O1401 O 0.62746 0.46761 0.58352 0.0
C1402 C 0.66327 0.40214 0.675 0.0
C1403 C 0.60041 0.32223 0.62754 0.0
C1404 C 0.5824 0.29992 0.64105 0.0
C1405 C 0.59348 0.27042 0.6431 0.0
C1406 C 0.62474 0.26843 0.63937 0.0
C1407 C 0.63568 0.28304 0.61364 0.0
C1408 C 0.62582 0.31302 0.61091 0.0
O1409 O 0.57634 0.44455 0.68987 0.0
O1410 O 0.57406 0.44242 0.6377 0.0
O1411 O 0.60096 0.39367 0.75307 0.0
O1412 O 0.61726 0.43596 0.73902 0.0
C1413 C 0.6128 0.41868 0.76189 0.0
O1414 O 0.65488 0.41592 0.65043 0.0
O1415 O 0.64398 0.38764 0.69174 0.0
O1416 O 0.59085 0.36989 0.60525 0.0
O1417 O 0.60111 0.36842 0.65309 0.0
H1418 H 0.55982 0.30521 0.648 0.0
H1419 H 0.63634 0.249 0.64769 0.0
H1420 H 0.63607 0.32816 0.59507 0.0
O1421 O 0.79615 0.98409 0.70494 0.0
Tb1422 Tb 0.75807 0.95344 0.70538 0.0
Eu1423 Eu 0.74808 0.9498 0.62755 0.0
C1424 C 0.81708 0.9828 0.68432 0.0
O1425 O 0.81359 0.96555 0.66097 0.0
C1426 C 0.79303 0.90523 0.66385 0.0
O1427 O 0.72793 0.94169 0.58172 0.0
C1428 C 0.76734 1.00474 0.62975 0.0
C1429 C 0.72303 0.91532 0.56943 0.0
O1430 O 0.73101 0.89086 0.58351 0.0
C1431 C 0.6952 0.95633 0.67499 0.0
C1432 C 0.75807 1.03623 0.62753 0.0
C1433 C 0.77609 0.05855 0.64105 0.0
C1434 C 0.765 0.08804 0.6431 0.0
C1435 C 0.73374 0.09003 0.63938 0.0
C1436 C 0.72281 0.07542 0.61365 0.0
C1437 C 0.73266 1.04544 0.61091 0.0
O1438 O 0.78213 0.91393 0.68987 0.0
O1439 O 0.78441 0.91604 0.6377 0.0
O1440 O 0.7575 0.96482 0.75306 0.0
O1441 O 0.74118 0.92253 0.73901 0.0
C1442 C 0.74562 0.93982 0.76186 0.0
O1443 O 0.7036 0.94255 0.65041 0.0
O1444 O 0.71449 0.97083 0.69172 0.0
O1445 O 0.76763 0.98858 0.60524 0.0
O1446 O 0.75737 0.99004 0.65308 0.0
H1447 H 0.79866 1.05325 0.64799 0.0
H1448 H 0.72215 0.10947 0.6477 0.0
H1449 H 0.72241 1.0303 0.59507 0.0
O1450 O 0.56232 0.98408 0.65349 0.0
Tb1451 Tb 0.6004 0.95343 0.65306 0.0
Eu1452 Eu 0.6104 0.9498 0.73089 0.0
C1453 C 0.54139 0.98279 0.67412 0.0
O1454 O 0.54489 0.96557 0.69748 0.0
C1455 C 0.56543 0.90524 0.6946 0.0
O1456 O 0.63055 0.94169 0.77672 0.0
C1457 C 0.59115 1.00475 0.7287 0.0
C1458 C 0.63545 0.91532 0.78901 0.0
O1459 O 0.62746 0.89086 0.77493 0.0
C1460 C 0.66328 0.95633 0.68345 0.0
C1461 C 0.60041 1.03624 0.73091 0.0
C1462 C 0.5824 0.05855 0.7174 0.0
C1463 C 0.59348 0.08805 0.71535 0.0
C1464 C 0.62474 0.09004 0.71908 0.0
C1465 C 0.63568 0.07543 0.74481 0.0
C1466 C 0.62582 1.04545 0.74754 0.0
O1467 O 0.57634 0.91393 0.66859 0.0
O1468 O 0.57406 0.91605 0.72075 0.0
O1469 O 0.60096 0.9648 0.60538 0.0
O1470 O 0.61726 0.92251 0.61943 0.0
C1471 C 0.6128 0.93979 0.59657 0.0
O1472 O 0.65488 0.94255 0.70802 0.0
O1473 O 0.64398 0.97083 0.66671 0.0
O1474 O 0.59086 0.98858 0.7532 0.0
O1475 O 0.60111 0.99005 0.70536 0.0
H1476 H 0.55982 1.05326 0.71045 0.0
H1477 H 0.63634 0.10948 0.71075 0.0
H1478 H 0.63607 1.03031 0.76338 0.0
O1479 O 0.79614 0.37438 0.65351 0.0
Tb1480 Tb 0.75807 0.40503 0.65307 0.0
Eu1481 Eu 0.74807 0.40867 0.73091 0.0
C1482 C 0.81707 0.37567 0.67413 0.0
O1483 O 0.81359 0.39291 0.69748 0.0
C1484 C 0.79303 0.45324 0.6946 0.0
O1485 O 0.72792 0.41678 0.77673 0.0
C1486 C 0.76733 0.35373 0.7287 0.0
C1487 C 0.72303 0.44314 0.78902 0.0
O1488 O 0.73102 0.4676 0.77494 0.0
C1489 C 0.6952 0.40214 0.68346 0.0
C1490 C 0.75807 0.32224 0.73092 0.0
C1491 C 0.77609 0.29992 0.7174 0.0
C1492 C 0.765 0.27042 0.71535 0.0
C1493 C 0.73374 0.26843 0.71907 0.0
C1494 C 0.7228 0.28304 0.7448 0.0
C1495 C 0.73266 0.31302 0.74754 0.0
O1496 O 0.78213 0.44454 0.66858 0.0
O1497 O 0.78441 0.44243 0.72075 0.0
O1498 O 0.7575 0.39365 0.60539 0.0
O1499 O 0.74118 0.43594 0.61944 0.0
C1500 C 0.74562 0.41865 0.59659 0.0
O1501 O 0.70359 0.41592 0.70804 0.0
O1502 O 0.71449 0.38763 0.66674 0.0
O1503 O 0.76762 0.36989 0.75321 0.0
O1504 O 0.75736 0.36842 0.70537 0.0
H1505 H 0.79866 0.30522 0.71046 0.0
H1506 H 0.72215 0.249 0.71075 0.0
H1507 H 0.72241 0.32816 0.76338 0.0
O1508 O 0.70496 0.06232 0.87437 0.0
Tb1509 Tb 0.70539 0.1004 0.90502 0.0
Eu1510 Eu 0.62756 0.11039 0.90865 0.0
C1511 C 0.68433 1.0414 0.87565 0.0
O1512 O 0.66098 1.04488 0.89289 0.0
C1513 C 0.66387 0.06544 0.95322 0.0
O1514 O 0.58173 0.13054 0.91677 0.0
C1515 C 0.62975 0.09113 0.85371 0.0
C1516 C 0.56944 0.13543 0.94313 0.0
O1517 O 0.58352 0.12744 0.96759 0.0
C1518 C 0.67499 0.16327 0.90212 0.0
C1519 C 0.62753 0.1004 0.82222 0.0
C1520 C 0.64103 0.08237 0.79991 0.0
C1521 C 0.64309 0.09347 0.77042 0.0
C1522 C 0.63939 0.12473 0.76842 0.0
C1523 C 0.61367 0.13568 0.78303 0.0
C1524 C 0.61093 0.12582 0.81301 0.0
O1525 O 0.68988 0.07634 0.94452 0.0
O1526 O 0.63771 0.07405 0.94241 0.0
O1527 O 0.75307 0.10097 0.89364 0.0
O1528 O 0.73901 0.1173 0.93593 0.0
C1529 C 0.76187 0.11286 0.91864 0.0
O1530 O 0.65042 0.15487 0.9159 0.0
O1531 O 0.69172 0.14398 0.88762 0.0
O1532 O 0.60525 0.09085 0.86988 0.0
O1533 O 0.65309 0.1011 0.86841 0.0
H1534 H 0.64796 0.05979 0.8052 0.0
H1535 H 0.64772 0.13631 0.74898 0.0
H1536 H 0.5951 0.13609 0.82815 0.0
O1537 O 0.6535 0.29615 0.87438 0.0
Tb1538 Tb 0.65307 0.25807 0.90502 0.0
Eu1539 Eu 0.7309 0.24807 0.90865 0.0
C1540 C 0.67413 0.31708 0.87566 0.0
O1541 O 0.69749 0.31357 0.89288 0.0
C1542 C 0.6946 0.29304 0.95321 0.0
O1543 O 0.77672 0.22792 0.91677 0.0
C1544 C 0.72872 0.26732 0.85371 0.0
C1545 C 0.78902 0.22303 0.94313 0.0
O1546 O 0.77494 0.23102 0.9676 0.0
C1547 C 0.68346 0.19519 0.90212 0.0
C1548 C 0.73093 0.25806 0.82222 0.0
C1549 C 0.71744 0.27609 0.7999 0.0
C1550 C 0.71539 0.265 0.77041 0.0
C1551 C 0.71909 0.23374 0.7684 0.0
C1552 C 0.74481 0.22279 0.78302 0.0
C1553 C 0.74754 0.23264 0.81301 0.0
O1554 O 0.66859 0.28212 0.94453 0.0
O1555 O 0.72075 0.28441 0.9424 0.0
O1556 O 0.60538 0.25751 0.89365 0.0
O1557 O 0.61944 0.2412 0.93594 0.0
C1558 C 0.59657 0.24566 0.91867 0.0
O1559 O 0.70803 0.20359 0.9159 0.0
O1560 O 0.66672 0.21449 0.88762 0.0
O1561 O 0.75322 0.26761 0.86987 0.0
O1562 O 0.70538 0.25736 0.8684 0.0
H1563 H 0.71051 0.29867 0.8052 0.0
H1564 H 0.71076 0.22216 0.74896 0.0
H1565 H 0.76337 0.22238 0.82814 0.0
O1566 O 0.70496 0.29615 0.48408 0.0
Tb1567 Tb 0.70539 0.25807 0.45343 0.0
Eu1568 Eu 0.62756 0.24808 0.44979 0.0
C1569 C 0.68433 0.31708 0.4828 0.0
O1570 O 0.66098 0.31359 0.46555 0.0
C1571 C 0.66387 0.29303 0.40523 0.0
O1572 O 0.58173 0.22793 0.44168 0.0
C1573 C 0.62975 0.26734 0.50474 0.0
C1574 C 0.56944 0.22304 0.41532 0.0
O1575 O 0.58352 0.23103 0.39086 0.0
C1576 C 0.67499 0.1952 0.45633 0.0
C1577 C 0.62753 0.25807 0.53623 0.0
C1578 C 0.64103 0.2761 0.55854 0.0
C1579 C 0.64309 0.265 0.58803 0.0
C1580 C 0.63939 0.23374 0.59003 0.0
C1581 C 0.61367 0.22279 0.57542 0.0
C1582 C 0.61093 0.23265 0.54544 0.0
O1583 O 0.68988 0.28213 0.41393 0.0
O1584 O 0.63771 0.28441 0.41604 0.0
O1585 O 0.75307 0.2575 0.46481 0.0
O1586 O 0.73901 0.24117 0.42252 0.0
C1587 C 0.76187 0.24561 0.43981 0.0
O1588 O 0.65042 0.20359 0.44255 0.0
O1589 O 0.69172 0.21449 0.47083 0.0
O1590 O 0.60525 0.26762 0.48857 0.0
O1591 O 0.65309 0.25737 0.49004 0.0
H1592 H 0.64796 0.29868 0.55325 0.0
H1593 H 0.64772 0.22216 0.60947 0.0
H1594 H 0.5951 0.22238 0.5303 0.0
O1595 O 0.6535 0.06232 0.48408 0.0
Tb1596 Tb 0.65307 0.1004 0.45343 0.0
Eu1597 Eu 0.7309 0.1104 0.4498 0.0
C1598 C 0.67413 1.04139 0.48279 0.0
O1599 O 0.69749 1.0449 0.46557 0.0
C1600 C 0.6946 0.06543 0.40524 0.0
O1601 O 0.77672 0.13055 0.44168 0.0
C1602 C 0.72872 0.09114 0.50474 0.0
C1603 C 0.78902 0.13544 0.41532 0.0
O1604 O 0.77494 0.12745 0.39085 0.0
C1605 C 0.68346 0.16327 0.45633 0.0
C1606 C 0.73094 0.1004 0.53623 0.0
C1607 C 0.71745 0.08237 0.55855 0.0
C1608 C 0.71539 0.09347 0.58804 0.0
C1609 C 0.71909 0.12472 0.59005 0.0
C1610 C 0.74481 0.13568 0.57543 0.0
C1611 C 0.74754 0.12583 0.54544 0.0
O1612 O 0.66859 0.07634 0.41393 0.0
O1613 O 0.72075 0.07405 0.41605 0.0
O1614 O 0.60538 0.10096 0.4648 0.0
O1615 O 0.61944 0.11727 0.42251 0.0
C1616 C 0.59657 0.1128 0.43979 0.0
O1617 O 0.70803 0.15488 0.44255 0.0
O1618 O 0.66672 0.14398 0.47083 0.0
O1619 O 0.75321 0.09086 0.48858 0.0
O1620 O 0.70538 0.10111 0.49005 0.0
H1621 H 0.71052 0.05979 0.55325 0.0
H1622 H 0.71076 0.1363 0.60949 0.0
H1623 H 0.76337 0.13609 0.53031 0.0
O1624 O 0.87437 0.20496 0.56232 0.0
Tb1625 Tb 0.90502 0.20539 0.60039 0.0
Eu1626 Eu 0.90866 0.12756 0.61039 0.0
C1627 C 0.87566 0.18433 0.54139 0.0
O1628 O 0.8929 0.16098 0.54488 0.0
C1629 C 0.95323 0.16387 0.56543 0.0
O1630 O 0.91678 0.08174 0.63054 0.0
C1631 C 0.85372 0.12974 0.59112 0.0
C1632 C 0.94315 0.06945 0.63544 0.0
O1633 O 0.96761 0.08353 0.62746 0.0
C1634 C 0.90212 0.175 0.66327 0.0
C1635 C 0.82223 0.12752 0.60038 0.0
C1636 C 0.79991 0.14104 0.58237 0.0
C1637 C 0.77042 0.14309 0.59347 0.0
C1638 C 0.76842 0.13937 0.62473 0.0
C1639 C 0.78304 0.11364 0.63565 0.0
C1640 C 0.81302 0.1109 0.62579 0.0
O1641 O 0.94453 0.18988 0.57633 0.0
O1642 O 0.94242 0.13771 0.57405 0.0
O1643 O 0.89364 0.25307 0.60096 0.0
O1644 O 0.93593 0.23901 0.61729 0.0
C1645 C 0.91864 0.26187 0.61284 0.0
O1646 O 0.9159 0.15043 0.65487 0.0
O1647 O 0.88762 0.19173 0.64397 0.0
O1648 O 0.86989 0.10525 0.59084 0.0
O1649 O 0.86841 0.15308 0.60109 0.0
H1650 H 0.8052 0.14798 0.55979 0.0
H1651 H 0.74898 0.14769 0.63632 0.0
H1652 H 0.82815 0.09505 0.63604 0.0
O1653 O 0.87437 0.15351 0.79614 0.0
Tb1654 Tb 0.90502 0.15308 0.75806 0.0
Eu1655 Eu 0.90866 0.23091 0.74806 0.0
C1656 C 0.87566 0.17414 0.81706 0.0
O1657 O 0.8929 0.19749 0.81357 0.0
C1658 C 0.95323 0.1946 0.79302 0.0
O1659 O 0.91678 0.27673 0.72791 0.0
C1660 C 0.85372 0.22872 0.76733 0.0
C1661 C 0.94314 0.28902 0.72302 0.0
O1662 O 0.9676 0.27494 0.731 0.0
C1663 C 0.90212 0.18347 0.69519 0.0
C1664 C 0.82223 0.23094 0.75807 0.0
C1665 C 0.79991 0.21743 0.77608 0.0
C1666 C 0.77042 0.21538 0.76498 0.0
C1667 C 0.76841 0.2191 0.73373 0.0
C1668 C 0.78304 0.24482 0.7228 0.0
C1669 C 0.81302 0.24757 0.73266 0.0
O1670 O 0.94453 0.16859 0.78212 0.0
O1671 O 0.94242 0.22076 0.7844 0.0
O1672 O 0.89365 0.10539 0.75749 0.0
O1673 O 0.93593 0.11945 0.74116 0.0
C1674 C 0.91864 0.09659 0.74561 0.0
O1675 O 0.9159 0.20804 0.70358 0.0
O1676 O 0.88762 0.16674 0.71448 0.0
O1677 O 0.86989 0.25322 0.76761 0.0
O1678 O 0.86841 0.20538 0.75736 0.0
H1679 H 0.8052 0.21048 0.79866 0.0
H1680 H 0.74897 0.21078 0.72213 0.0
H1681 H 0.82815 0.26342 0.72241 0.0
O1682 O 0.48408 0.20497 0.79614 0.0
Tb1683 Tb 0.45344 0.2054 0.75806 0.0
Eu1684 Eu 0.44982 0.12756 0.74806 0.0
C1685 C 0.4828 0.18433 0.81707 0.0
O1686 O 0.46558 0.16097 0.81356 0.0
C1687 C 0.40525 0.16386 0.79303 0.0
O1688 O 0.4417 0.08174 0.72791 0.0
C1689 C 0.50476 0.12975 0.76732 0.0
C1690 C 0.41534 0.06944 0.72302 0.0
O1691 O 0.39088 0.08353 0.73101 0.0
C1692 C 0.45635 0.175 0.69519 0.0
C1693 C 0.53625 0.12753 0.75806 0.0
C1694 C 0.55857 0.14104 0.77608 0.0
C1695 C 0.58806 0.14309 0.76498 0.0
C1696 C 0.59007 0.13938 0.73373 0.0
C1697 C 0.57545 0.11365 0.7228 0.0
C1698 C 0.54547 0.11091 0.73265 0.0
O1699 O 0.41393 0.18987 0.78212 0.0
O1700 O 0.41606 0.13771 0.7844 0.0
O1701 O 0.46481 0.25308 0.7575 0.0
O1702 O 0.42252 0.23903 0.74119 0.0
C1703 C 0.43979 0.26189 0.74566 0.0
O1704 O 0.44257 0.15043 0.70358 0.0
O1705 O 0.47084 0.19174 0.71448 0.0
O1706 O 0.4886 0.10525 0.76761 0.0
O1707 O 0.49007 0.15309 0.75735 0.0
H1708 H 0.55327 0.14799 0.79866 0.0
H1709 H 0.60951 0.14769 0.72214 0.0
H1710 H 0.53033 0.09506 0.7224 0.0
O1711 O 0.48408 0.15351 0.56231 0.0
Tb1712 Tb 0.45344 0.15307 0.60039 0.0
Eu1713 Eu 0.44982 0.23091 0.61039 0.0
C1714 C 0.4828 0.17414 0.54138 0.0
O1715 O 0.46558 0.1975 0.54489 0.0
C1716 C 0.40525 0.19461 0.56542 0.0
O1717 O 0.4417 0.27673 0.63054 0.0
C1718 C 0.50476 0.22872 0.59113 0.0
C1719 C 0.41534 0.28903 0.63543 0.0
O1720 O 0.39088 0.27494 0.62744 0.0
C1721 C 0.45635 0.18347 0.66326 0.0
C1722 C 0.53625 0.23094 0.60039 0.0
C1723 C 0.55857 0.21743 0.58237 0.0
C1724 C 0.58806 0.21538 0.59346 0.0
C1725 C 0.59007 0.2191 0.62472 0.0
C1726 C 0.57545 0.24482 0.63565 0.0
C1727 C 0.54546 0.24756 0.6258 0.0
O1728 O 0.41393 0.1686 0.57633 0.0
O1729 O 0.41606 0.22076 0.57405 0.0
O1730 O 0.46481 0.10539 0.60095 0.0
O1731 O 0.42252 0.11944 0.61726 0.0
C1732 C 0.43979 0.09658 0.61279 0.0
O1733 O 0.44257 0.20804 0.65487 0.0
O1734 O 0.47084 0.16673 0.64397 0.0
O1735 O 0.4886 0.25322 0.59084 0.0
O1736 O 0.49007 0.20538 0.6011 0.0
H1737 H 0.55327 0.21048 0.55979 0.0
H1738 H 0.60951 0.21078 0.63631 0.0
H1739 H 0.53033 0.26341 0.63605 0.0
O1740 O 0.54615 0.73408 0.40349 0.0
Tb1741 Tb 0.50807 0.70343 0.40306 0.0
Eu1742 Eu 0.49806 0.6998 0.4809 0.0
C1743 C 0.56708 0.73279 0.42412 0.0
O1744 O 0.56357 0.71557 0.44748 0.0
C1745 C 0.54304 0.65524 0.4446 0.0
O1746 O 0.47792 0.69169 0.52672 0.0
C1747 C 0.51732 0.75475 0.4787 0.0
C1748 C 0.47302 0.66532 0.53901 0.0
O1749 O 0.481 0.64086 0.52493 0.0
C1750 C 0.44519 0.70633 0.43345 0.0
C1751 C 0.50806 0.78624 0.48092 0.0
C1752 C 0.52608 0.80855 0.46741 0.0
C1753 C 0.51499 0.83805 0.46536 0.0
C1754 C 0.48373 0.84004 0.46908 0.0
C1755 C 0.4728 0.82543 0.49481 0.0
C1756 C 0.48265 0.79545 0.49754 0.0
O1757 O 0.53212 0.66392 0.41859 0.0
O1758 O 0.53441 0.66605 0.47075 0.0
O1759 O 0.50751 0.7148 0.35538 0.0
O1760 O 0.4912 0.67251 0.36943 0.0
C1761 C 0.49567 0.68979 0.34657 0.0
O1762 O 0.45359 0.69255 0.45802 0.0
O1763 O 0.46449 0.72083 0.41672 0.0
O1764 O 0.51761 0.73858 0.5032 0.0
O1765 O 0.50735 0.74005 0.45536 0.0
H1766 H 0.54865 0.80326 0.46046 0.0
H1767 H 0.47214 0.85948 0.46076 0.0
H1768 H 0.4724 0.78031 0.51339 0.0
O1769 O 0.31232 0.12438 0.40351 0.0
Tb1770 Tb 0.3504 0.15503 0.40307 0.0
Eu1771 Eu 0.3604 0.15868 0.4809 0.0
C1772 C 0.29139 0.12567 0.42413 0.0
O1773 O 0.29488 0.14292 0.44748 0.0
C1774 C 0.31544 0.20324 0.44459 0.0
O1775 O 0.38054 0.16679 0.52672 0.0
C1776 C 0.34113 0.10373 0.47871 0.0
C1777 C 0.38545 0.19315 0.53902 0.0
O1778 O 0.37746 0.21762 0.52493 0.0
C1779 C 0.41327 0.15213 0.43346 0.0
C1780 C 0.35039 0.07224 0.48092 0.0
C1781 C 0.33238 1.04993 0.46741 0.0
C1782 C 0.34347 1.02043 0.46536 0.0
C1783 C 0.37473 1.01844 0.46908 0.0
C1784 C 0.38566 1.03305 0.49481 0.0
C1785 C 0.3758 0.06303 0.49755 0.0
O1786 O 0.32633 0.19454 0.41858 0.0
O1787 O 0.32406 0.19243 0.47075 0.0
O1788 O 0.35097 0.14365 0.35539 0.0
O1789 O 0.36729 0.18594 0.36944 0.0
C1790 C 0.36285 0.16865 0.34659 0.0
O1791 O 0.40488 0.16592 0.45803 0.0
O1792 O 0.39397 0.13763 0.41673 0.0
O1793 O 0.34084 0.1199 0.50321 0.0
O1794 O 0.3511 0.11843 0.45537 0.0
H1795 H 0.30981 0.05522 0.46046 0.0
H1796 H 0.38632 0.99901 0.46076 0.0
H1797 H 0.38605 0.07817 0.51339 0.0
O1798 O 0.54614 0.12438 0.45495 0.0
Tb1799 Tb 0.50806 0.15503 0.45538 0.0
Eu1800 Eu 0.49807 0.15867 0.37755 0.0
C1801 C 0.56707 0.12567 0.43432 0.0
O1802 O 0.56359 0.14292 0.41098 0.0
C1803 C 0.54302 0.20324 0.41386 0.0
O1804 O 0.47792 0.16679 0.33173 0.0
C1805 C 0.51733 0.10373 0.37975 0.0
C1806 C 0.47302 0.19315 0.31944 0.0
O1807 O 0.481 0.21761 0.33352 0.0
C1808 C 0.44519 0.15214 0.42499 0.0
C1809 C 0.50806 0.07224 0.37753 0.0
C1810 C 0.52608 1.04992 0.39105 0.0
C1811 C 0.51499 1.02043 0.3931 0.0
C1812 C 0.48373 1.01844 0.38937 0.0
C1813 C 0.47279 1.03305 0.36364 0.0
C1814 C 0.48266 0.06303 0.36091 0.0
O1815 O 0.53213 0.19454 0.43987 0.0
O1816 O 0.5344 0.19243 0.3877 0.0
O1817 O 0.5075 0.14365 0.50306 0.0
O1818 O 0.49117 0.18594 0.48901 0.0
C1819 C 0.49562 0.16865 0.51186 0.0
O1820 O 0.45359 0.16592 0.40042 0.0
O1821 O 0.46449 0.13763 0.44172 0.0
O1822 O 0.51762 0.11989 0.35525 0.0
O1823 O 0.50736 0.11843 0.40308 0.0
H1824 H 0.54865 0.05522 0.39799 0.0
H1825 H 0.47213 0.99901 0.3977 0.0
H1826 H 0.47241 0.07817 0.34506 0.0
O1827 O 0.31232 0.73409 0.45494 0.0
Tb1828 Tb 0.3504 0.70344 0.45538 0.0
Eu1829 Eu 0.36039 0.6998 0.37755 0.0
C1830 C 0.29139 0.7328 0.43432 0.0
O1831 O 0.29488 0.71556 0.41097 0.0
C1832 C 0.31544 0.65523 0.41386 0.0
O1833 O 0.38054 0.69169 0.33172 0.0
C1834 C 0.34113 0.75474 0.37975 0.0
C1835 C 0.38544 0.66532 0.31943 0.0
O1836 O 0.37745 0.64086 0.33351 0.0
C1837 C 0.41327 0.70633 0.42499 0.0
C1838 C 0.35039 0.78623 0.37753 0.0
C1839 C 0.33238 0.80855 0.39104 0.0
C1840 C 0.34346 0.83805 0.3931 0.0
C1841 C 0.37472 0.84003 0.38938 0.0
C1842 C 0.38566 0.82543 0.36365 0.0
C1843 C 0.3758 0.79544 0.36091 0.0
O1844 O 0.32633 0.66393 0.43987 0.0
O1845 O 0.32406 0.66604 0.3877 0.0
O1846 O 0.35097 0.71482 0.50306 0.0
O1847 O 0.36729 0.67253 0.48901 0.0
C1848 C 0.36285 0.68982 0.51186 0.0
O1849 O 0.40487 0.69255 0.40041 0.0
O1850 O 0.39397 0.72084 0.44172 0.0
O1851 O 0.34084 0.73858 0.35525 0.0
O1852 O 0.3511 0.74005 0.40308 0.0
H1853 H 0.3098 0.80325 0.39799 0.0
H1854 H 0.38632 0.85947 0.3977 0.0
H1855 H 0.38605 0.78031 0.34507 0.0
O1856 O 0.40351 1.04615 0.23409 0.0
Tb1857 Tb 0.40308 1.00807 0.20343 0.0
Eu1858 Eu 0.48091 0.99808 0.1998 0.0
C1859 C 0.42414 0.06707 0.2328 0.0
O1860 O 0.44748 0.06359 0.21556 0.0
C1861 C 0.4446 1.04303 0.15523 0.0
O1862 O 0.52673 0.97793 0.19168 0.0
C1863 C 0.47872 1.01734 0.25474 0.0
C1864 C 0.53903 0.97304 0.16532 0.0
O1865 O 0.52495 0.98103 0.14086 0.0
C1866 C 0.43347 0.9452 0.20633 0.0
C1867 C 0.48093 1.00808 0.28623 0.0
C1868 C 0.46744 1.02611 0.30854 0.0
C1869 C 0.46538 1.01501 0.33803 0.0
C1870 C 0.46908 0.98375 0.34004 0.0
C1871 C 0.4948 0.9728 0.32543 0.0
C1872 C 0.49754 0.98265 0.29544 0.0
O1873 O 0.41858 1.03213 0.16393 0.0
O1874 O 0.47075 1.03441 0.16604 0.0
O1875 O 0.3554 1.0075 0.21481 0.0
O1876 O 0.36945 0.99117 0.17252 0.0
C1877 C 0.3466 0.99561 0.18981 0.0
O1878 O 0.45804 0.95359 0.19255 0.0
O1879 O 0.41674 0.96449 0.22083 0.0
O1880 O 0.50322 1.01762 0.23857 0.0
O1881 O 0.45538 1.00737 0.24004 0.0
H1882 H 0.46051 1.04869 0.30325 0.0
H1883 H 0.46075 0.97217 0.35948 0.0
H1884 H 0.51337 0.97239 0.2803 0.0
O1885 O 0.45497 0.81232 0.23408 0.0
Tb1886 Tb 0.4554 0.8504 0.20343 0.0
Eu1887 Eu 0.37757 0.8604 0.1998 0.0
C1888 C 0.43434 0.79139 0.23279 0.0
O1889 O 0.41098 0.7949 0.21557 0.0
C1890 C 0.41387 0.81543 0.15524 0.0
O1891 O 0.33174 0.88054 0.19168 0.0
C1892 C 0.37975 0.84114 0.25474 0.0
C1893 C 0.31945 0.88544 0.16531 0.0
O1894 O 0.33353 0.87746 0.14085 0.0
C1895 C 0.42501 0.91327 0.20633 0.0
C1896 C 0.37753 0.8504 0.28623 0.0
C1897 C 0.39102 0.83237 0.30855 0.0
C1898 C 0.39307 0.84347 0.33804 0.0
C1899 C 0.38937 0.87473 0.34004 0.0
C1900 C 0.36366 0.88568 0.32543 0.0
C1901 C 0.36093 0.87583 0.29544 0.0
O1902 O 0.43988 0.82634 0.16393 0.0
O1903 O 0.38772 0.82405 0.16605 0.0
O1904 O 0.50308 0.85096 0.2148 0.0
O1905 O 0.48903 0.86727 0.17251 0.0
C1906 C 0.51189 0.8628 0.18979 0.0
O1907 O 0.40044 0.90488 0.19255 0.0
O1908 O 0.44174 0.89398 0.22083 0.0
O1909 O 0.35525 0.84086 0.23857 0.0
O1910 O 0.40309 0.85111 0.24005 0.0
H1911 H 0.39795 0.80979 0.30325 0.0
H1912 H 0.3977 0.88631 0.35949 0.0
H1913 H 0.34509 0.88609 0.2803 0.0
O1914 O 0.40351 0.81233 0.62436 0.0
Tb1915 Tb 0.40307 0.85041 0.65502 0.0
Eu1916 Eu 0.48091 0.8604 0.65866 0.0
C1917 C 0.42414 0.7914 0.62565 0.0
O1918 O 0.44748 0.79488 0.6429 0.0
C1919 C 0.44459 0.81544 0.70322 0.0
O1920 O 0.52673 0.88054 0.66678 0.0
C1921 C 0.47872 0.84114 0.60372 0.0
C1922 C 0.53902 0.88544 0.69314 0.0
O1923 O 0.52494 0.87745 0.7176 0.0
C1924 C 0.43347 0.91328 0.65212 0.0
C1925 C 0.48094 0.8504 0.57223 0.0
C1926 C 0.46744 0.83237 0.54991 0.0
C1927 C 0.46539 0.84347 0.52042 0.0
C1928 C 0.46909 0.87473 0.51842 0.0
C1929 C 0.49481 0.88568 0.53303 0.0
C1930 C 0.49754 0.87582 0.56302 0.0
O1931 O 0.41858 0.82634 0.69452 0.0
O1932 O 0.47075 0.82406 0.69241 0.0
O1933 O 0.35539 0.85097 0.64364 0.0
O1934 O 0.36945 0.8673 0.68592 0.0
C1935 C 0.34659 0.86286 0.66863 0.0
O1936 O 0.45804 0.90488 0.6659 0.0
O1937 O 0.41674 0.89398 0.63761 0.0
O1938 O 0.50322 0.84085 0.61988 0.0
O1939 O 0.45538 0.8511 0.61841 0.0
H1940 H 0.46051 0.80979 0.5552 0.0
H1941 H 0.46075 0.88631 0.49898 0.0
H1942 H 0.51338 0.88609 0.57816 0.0
O1943 O 0.45496 1.04615 0.62436 0.0
Tb1944 Tb 0.45539 1.00807 0.65501 0.0
Eu1945 Eu 0.37756 0.99807 0.65866 0.0
C1946 C 0.43433 0.06708 0.62565 0.0
O1947 O 0.41098 0.06359 0.6429 0.0
C1948 C 0.41387 1.04303 0.70322 0.0
O1949 O 0.33174 0.97793 0.66677 0.0
C1950 C 0.37974 1.01734 0.60372 0.0
C1951 C 0.31944 0.97303 0.69314 0.0
O1952 O 0.33352 0.98101 0.7176 0.0
C1953 C 0.425 0.9452 0.65212 0.0
C1954 C 0.37752 1.00808 0.57223 0.0
C1955 C 0.39102 1.02611 0.54991 0.0
C1956 C 0.39307 1.01501 0.52042 0.0
C1957 C 0.38937 0.98375 0.51842 0.0
C1958 C 0.36365 0.9728 0.53303 0.0
C1959 C 0.36092 0.98265 0.56302 0.0
O1960 O 0.43989 1.03213 0.69452 0.0
O1961 O 0.38772 1.03441 0.69241 0.0
O1962 O 0.50307 1.0075 0.64364 0.0
O1963 O 0.48901 0.99117 0.68592 0.0
C1964 C 0.51187 0.99561 0.66863 0.0
O1965 O 0.40043 0.95359 0.6659 0.0
O1966 O 0.44172 0.96449 0.63761 0.0
O1967 O 0.35524 1.01762 0.61988 0.0
O1968 O 0.40308 1.00737 0.61841 0.0
H1969 H 0.39795 1.04869 0.55521 0.0
H1970 H 0.39771 0.97217 0.49898 0.0
H1971 H 0.34509 0.97239 0.57815 0.0
O1972 O 0.23409 0.90352 0.54613 0.0
Tb1973 Tb 0.20344 0.90308 0.50806 0.0
Eu1974 Eu 0.1998 0.98091 0.49806 0.0
C1975 C 0.2328 0.92415 0.56706 0.0
O1976 O 0.21556 0.94749 0.56357 0.0
C1977 C 0.15523 0.9446 0.54302 0.0
O1978 O 0.19169 1.02673 0.47792 0.0
C1979 C 0.25475 0.97873 0.51733 0.0
C1980 C 0.16532 1.03902 0.47301 0.0
O1981 O 0.14086 1.02494 0.48099 0.0
C1982 C 0.20635 0.93347 0.44518 0.0
C1983 C 0.28624 0.98095 0.50807 0.0
C1984 C 0.30855 0.96744 0.52609 0.0
C1985 C 0.33805 0.96539 0.51499 0.0
C1986 C 0.34005 0.96911 0.48373 0.0
C1987 C 0.32543 0.99483 0.47281 0.0
C1988 C 0.29545 0.99757 0.48266 0.0
O1989 O 0.16394 0.91859 0.53212 0.0
O1990 O 0.16605 0.97076 0.5344 0.0
O1991 O 0.21482 0.8554 0.50749 0.0
O1992 O 0.17253 0.86946 0.49116 0.0
C1993 C 0.18982 0.8466 0.49561 0.0
O1994 O 0.19256 0.95804 0.45358 0.0
O1995 O 0.22085 0.91674 0.46448 0.0
O1996 O 0.23858 1.00323 0.51761 0.0
O1997 O 0.24006 0.95539 0.50736 0.0
H1998 H 0.30326 0.96049 0.54866 0.0
H1999 H 0.35949 0.96079 0.47214 0.0
H2000 H 0.28032 1.01342 0.47241 0.0
O2001 O 0.2341 0.95496 0.31231 0.0
Tb2002 Tb 0.20344 0.9554 0.35039 0.0
Eu2003 Eu 0.1998 0.87756 0.36039 0.0
C2004 C 0.23281 0.93433 0.29139 0.0
O2005 O 0.21556 0.91098 0.29487 0.0
C2006 C 0.15524 0.91387 0.31543 0.0
O2007 O 0.19169 0.83174 0.38053 0.0
C2008 C 0.25475 0.87975 0.34112 0.0
C2009 C 0.16532 0.81945 0.38544 0.0
O2010 O 0.14086 0.83354 0.37746 0.0
C2011 C 0.20635 0.925 0.41326 0.0
C2012 C 0.28624 0.87752 0.35038 0.0
C2013 C 0.30856 0.89104 0.33237 0.0
C2014 C 0.33805 0.89309 0.34347 0.0
C2015 C 0.34005 0.88937 0.37472 0.0
C2016 C 0.32543 0.86365 0.38565 0.0
C2017 C 0.29545 0.8609 0.37579 0.0
O2018 O 0.16394 0.93989 0.32632 0.0
O2019 O 0.16605 0.88772 0.32405 0.0
O2020 O 0.21482 1.00308 0.35096 0.0
O2021 O 0.17253 0.98902 0.36729 0.0
C2022 C 0.18982 1.01188 0.36284 0.0
O2023 O 0.19256 0.90043 0.40487 0.0
O2024 O 0.22085 0.94173 0.39397 0.0
O2025 O 0.23858 0.85525 0.34083 0.0
O2026 O 0.24006 0.90309 0.35109 0.0
H2027 H 0.30326 0.89798 0.30979 0.0
H2028 H 0.35949 0.89769 0.38632 0.0
H2029 H 0.28031 0.84505 0.38604 0.0
O2030 O 0.62438 0.9035 0.31231 0.0
Tb2031 Tb 0.65503 0.90307 0.35039 0.0
Eu2032 Eu 0.65865 0.98091 0.36039 0.0
C2033 C 0.62567 0.92414 0.29138 0.0
O2034 O 0.64289 0.94749 0.29489 0.0
C2035 C 0.70322 0.94461 0.31543 0.0
O2036 O 0.66677 1.02673 0.38054 0.0
C2037 C 0.60371 0.97872 0.34113 0.0
C2038 C 0.69314 1.03902 0.38544 0.0
O2039 O 0.7176 1.02494 0.37745 0.0
C2040 C 0.65212 0.93346 0.41327 0.0
C2041 C 0.57222 0.98094 0.35039 0.0
C2042 C 0.5499 0.96743 0.33237 0.0
C2043 C 0.52041 0.96538 0.34347 0.0
C2044 C 0.5184 0.9691 0.37472 0.0
C2045 C 0.53302 0.99483 0.38565 0.0
C2046 C 0.56301 0.99757 0.3758 0.0
O2047 O 0.69453 0.91859 0.32634 0.0
O2048 O 0.69241 0.97076 0.32405 0.0
O2049 O 0.64366 0.85539 0.35095 0.0
O2050 O 0.68594 0.86944 0.36726 0.0
C2051 C 0.66867 0.84657 0.36279 0.0
O2052 O 0.6659 0.95804 0.40487 0.0
O2053 O 0.63763 0.91672 0.39397 0.0
O2054 O 0.61988 1.00322 0.34084 0.0
O2055 O 0.6184 0.95538 0.3511 0.0
H2056 H 0.55519 0.96049 0.3098 0.0
H2057 H 0.49896 0.96079 0.38631 0.0
H2058 H 0.57814 1.01342 0.38605 0.0
O2059 O 0.62437 0.95495 0.54614 0.0
Tb2060 Tb 0.65502 0.95539 0.50806 0.0
Eu2061 Eu 0.65866 0.87755 0.49807 0.0
C2062 C 0.62566 0.93432 0.56706 0.0
O2063 O 0.6429 0.91098 0.56358 0.0
C2064 C 0.70323 0.91386 0.54302 0.0
O2065 O 0.66677 0.83173 0.47792 0.0
C2066 C 0.60371 0.87974 0.51733 0.0
C2067 C 0.69314 0.81944 0.47302 0.0
O2068 O 0.71759 0.83352 0.48101 0.0
C2069 C 0.65212 0.92499 0.44519 0.0
C2070 C 0.57222 0.87752 0.50807 0.0
C2071 C 0.54991 0.89104 0.52609 0.0
C2072 C 0.52041 0.89309 0.51499 0.0
C2073 C 0.51841 0.88937 0.48374 0.0
C2074 C 0.53303 0.86365 0.47281 0.0
C2075 C 0.56301 0.8609 0.48266 0.0
O2076 O 0.69453 0.93988 0.53212 0.0
O2077 O 0.69242 0.88771 0.5344 0.0
O2078 O 0.64364 1.00307 0.50749 0.0
O2079 O 0.68593 0.98901 0.49116 0.0
C2080 C 0.66864 1.01187 0.49561 0.0
O2081 O 0.6659 0.90042 0.45358 0.0
O2082 O 0.63762 0.94173 0.46449 0.0
O2083 O 0.61988 0.85524 0.51762 0.0
O2084 O 0.61841 0.90308 0.50736 0.0
H2085 H 0.5552 0.89798 0.54867 0.0
H2086 H 0.49897 0.8977 0.47215 0.0
H2087 H 0.57814 0.84505 0.47241 0.0
O2088 O 0.56232 0.87438 0.20495 0.0
Tb2089 Tb 0.6004 0.90504 0.20538 0.0
Eu2090 Eu 0.6104 0.90867 0.12755 0.0
C2091 C 0.54139 0.87567 0.18432 0.0
O2092 O 0.54488 0.89292 0.16098 0.0
C2093 C 0.56544 0.95324 0.16386 0.0
O2094 O 0.63055 0.91679 0.08173 0.0
C2095 C 0.59114 0.85373 0.12975 0.0
C2096 C 0.63545 0.94315 0.06944 0.0
O2097 O 0.62746 0.96762 0.08352 0.0
C2098 C 0.66327 0.90213 0.17499 0.0
C2099 C 0.6004 0.82224 0.12753 0.0
C2100 C 0.58239 0.79992 0.14105 0.0
C2101 C 0.59348 0.77043 0.1431 0.0
C2102 C 0.62474 0.76844 0.13937 0.0
C2103 C 0.63567 0.78305 0.11364 0.0
C2104 C 0.62581 0.81303 0.11091 0.0
O2105 O 0.57634 0.94454 0.18987 0.0
O2106 O 0.57406 0.94243 0.1377 0.0
O2107 O 0.60097 0.89365 0.25306 0.0
O2108 O 0.61729 0.93594 0.23901 0.0
C2109 C 0.61285 0.91865 0.26187 0.0
O2110 O 0.65488 0.91592 0.15042 0.0
O2111 O 0.64398 0.88763 0.19172 0.0
O2112 O 0.59085 0.8699 0.10525 0.0
O2113 O 0.6011 0.86843 0.15308 0.0
H2114 H 0.55982 0.80522 0.14799 0.0
H2115 H 0.63634 0.74901 0.1477 0.0
H2116 H 0.63606 0.82817 0.09506 0.0
O2117 O 0.79614 0.48409 0.20494 0.0
Tb2118 Tb 0.75807 0.45343 0.20538 0.0
Eu2119 Eu 0.74807 0.4498 0.12754 0.0
C2120 C 0.81707 0.4828 0.18431 0.0
O2121 O 0.81359 0.46555 0.16097 0.0
C2122 C 0.79303 0.40523 0.16385 0.0
O2123 O 0.72792 0.44169 0.08172 0.0
C2124 C 0.76734 0.50474 0.12975 0.0
C2125 C 0.72302 0.41533 0.06942 0.0
O2126 O 0.73101 0.39087 0.08351 0.0
C2127 C 0.6952 0.45633 0.17498 0.0
C2128 C 0.75807 0.53623 0.12753 0.0
C2129 C 0.77609 0.55855 0.14104 0.0
C2130 C 0.765 0.58805 0.1431 0.0
C2131 C 0.73374 0.59003 0.13938 0.0
C2132 C 0.7228 0.57543 0.11365 0.0
C2133 C 0.73266 0.54544 0.11091 0.0
O2134 O 0.78213 0.41393 0.18986 0.0
O2135 O 0.78441 0.41604 0.1377 0.0
O2136 O 0.7575 0.46482 0.25306 0.0
O2137 O 0.74118 0.42253 0.239 0.0
C2138 C 0.74562 0.43982 0.26186 0.0
O2139 O 0.70359 0.44255 0.15041 0.0
O2140 O 0.71449 0.47083 0.19171 0.0
O2141 O 0.76763 0.48858 0.10524 0.0
O2142 O 0.75736 0.49004 0.15308 0.0
H2143 H 0.79866 0.55325 0.14799 0.0
H2144 H 0.72215 0.60947 0.14771 0.0
H2145 H 0.72241 0.53031 0.09507 0.0
O2146 O 0.56232 0.48408 0.15349 0.0
Tb2147 Tb 0.6004 0.45343 0.15306 0.0
Eu2148 Eu 0.6104 0.4498 0.2309 0.0
C2149 C 0.54139 0.48279 0.17413 0.0
O2150 O 0.54489 0.46557 0.19748 0.0
C2151 C 0.56543 0.40524 0.1946 0.0
O2152 O 0.63055 0.44169 0.27672 0.0
C2153 C 0.59114 0.50474 0.2287 0.0
C2154 C 0.63545 0.41532 0.28901 0.0
O2155 O 0.62746 0.39086 0.27493 0.0
C2156 C 0.66327 0.45633 0.18345 0.0
C2157 C 0.60041 0.53624 0.23092 0.0
C2158 C 0.58239 0.55855 0.21741 0.0
C2159 C 0.59348 0.58805 0.21536 0.0
C2160 C 0.62473 0.59004 0.21908 0.0
C2161 C 0.63567 0.57543 0.24481 0.0
C2162 C 0.62581 0.54545 0.24754 0.0
O2163 O 0.57634 0.41392 0.16858 0.0
O2164 O 0.57406 0.41605 0.22075 0.0
O2165 O 0.60096 0.46481 0.10538 0.0
O2166 O 0.61726 0.42251 0.11943 0.0
C2167 C 0.61279 0.43979 0.09657 0.0
O2168 O 0.65488 0.44255 0.20802 0.0
O2169 O 0.64398 0.47083 0.16671 0.0
O2170 O 0.59085 0.48858 0.2532 0.0
O2171 O 0.60111 0.49005 0.20536 0.0
H2172 H 0.55982 0.55325 0.21046 0.0
H2173 H 0.63633 0.60948 0.21076 0.0
H2174 H 0.63606 0.53031 0.26338 0.0
O2175 O 0.79614 0.87438 0.1535 0.0
Tb2176 Tb 0.75807 0.90504 0.15307 0.0
Eu2177 Eu 0.74807 0.90867 0.2309 0.0
C2178 C 0.81707 0.87567 0.17413 0.0
O2179 O 0.81359 0.89292 0.19748 0.0
C2180 C 0.79302 0.95324 0.1946 0.0
O2181 O 0.72792 0.91678 0.27673 0.0
C2182 C 0.76733 0.85373 0.22871 0.0
C2183 C 0.72302 0.94315 0.28902 0.0
O2184 O 0.731 0.96761 0.27494 0.0
C2185 C 0.69519 0.90213 0.18346 0.0
C2186 C 0.75807 0.82224 0.23092 0.0
C2187 C 0.77608 0.79992 0.21741 0.0
C2188 C 0.765 0.77043 0.21536 0.0
C2189 C 0.73374 0.76844 0.21908 0.0
C2190 C 0.7228 0.78305 0.24481 0.0
C2191 C 0.73266 0.81303 0.24754 0.0
O2192 O 0.78213 0.94454 0.16858 0.0
O2193 O 0.7844 0.94243 0.22075 0.0
O2194 O 0.7575 0.89365 0.10539 0.0
O2195 O 0.74117 0.93594 0.11944 0.0
C2196 C 0.74562 0.91865 0.09659 0.0
O2197 O 0.70359 0.91592 0.20803 0.0
O2198 O 0.71449 0.88763 0.16673 0.0
O2199 O 0.76762 0.86989 0.25321 0.0
O2200 O 0.75736 0.86843 0.20537 0.0
H2201 H 0.79866 0.80522 0.21046 0.0
H2202 H 0.72214 0.749 0.21076 0.0
H2203 H 0.72241 0.82817 0.26339 0.0
O2204 O 0.70496 0.56232 0.37436 0.0
Tb2205 Tb 0.70539 0.6004 0.40502 0.0
Eu2206 Eu 0.62756 0.6104 0.40866 0.0
C2207 C 0.68433 0.54139 0.37565 0.0
O2208 O 0.66099 0.54488 0.3929 0.0
C2209 C 0.66387 0.56544 0.45322 0.0
O2210 O 0.58174 0.63054 0.41678 0.0
C2211 C 0.62975 0.59113 0.35372 0.0
C2212 C 0.56944 0.63544 0.44314 0.0
O2213 O 0.58352 0.62745 0.4676 0.0
C2214 C 0.675 0.66327 0.40212 0.0
C2215 C 0.62753 0.6004 0.32223 0.0
C2216 C 0.64102 0.58237 0.29991 0.0
C2217 C 0.64308 0.59347 0.27042 0.0
C2218 C 0.63938 0.62473 0.26842 0.0
C2219 C 0.61366 0.63568 0.28304 0.0
C2220 C 0.61093 0.62582 0.31302 0.0
O2221 O 0.68989 0.57633 0.44452 0.0
O2222 O 0.63772 0.57406 0.44241 0.0
O2223 O 0.75307 0.60097 0.39364 0.0
O2224 O 0.73902 0.6173 0.43593 0.0
C2225 C 0.76187 0.61286 0.41864 0.0
O2226 O 0.65043 0.65488 0.4159 0.0
O2227 O 0.69173 0.64397 0.38761 0.0
O2228 O 0.60525 0.59085 0.36988 0.0
O2229 O 0.65309 0.6011 0.36841 0.0
H2230 H 0.64795 0.55979 0.3052 0.0
H2231 H 0.64771 0.63631 0.24898 0.0
H2232 H 0.59509 0.63608 0.32816 0.0
O2233 O 0.65351 0.79614 0.37437 0.0
Tb2234 Tb 0.65307 0.75806 0.40502 0.0
Eu2235 Eu 0.73091 0.74807 0.40866 0.0
C2236 C 0.67414 0.81707 0.37565 0.0
O2237 O 0.69748 0.81358 0.3929 0.0
C2238 C 0.6946 0.79302 0.45322 0.0
O2239 O 0.77673 0.72792 0.41677 0.0
C2240 C 0.72872 0.76733 0.35372 0.0
C2241 C 0.78903 0.72303 0.44314 0.0
O2242 O 0.77494 0.73101 0.4676 0.0
C2243 C 0.68347 0.69519 0.40212 0.0
C2244 C 0.73094 0.75807 0.32223 0.0
C2245 C 0.71745 0.7761 0.29991 0.0
C2246 C 0.71539 0.76501 0.27042 0.0
C2247 C 0.71909 0.73375 0.26842 0.0
C2248 C 0.74481 0.72279 0.28303 0.0
C2249 C 0.74754 0.73265 0.31301 0.0
O2250 O 0.66858 0.78213 0.44452 0.0
O2251 O 0.72075 0.78441 0.44241 0.0
O2252 O 0.60539 0.7575 0.39364 0.0
O2253 O 0.61945 0.74117 0.43593 0.0
C2254 C 0.59659 0.74561 0.41864 0.0
O2255 O 0.70804 0.70359 0.4159 0.0
O2256 O 0.66674 0.71449 0.38761 0.0
O2257 O 0.75322 0.76761 0.36988 0.0
O2258 O 0.70538 0.75737 0.36841 0.0
H2259 H 0.71052 0.79868 0.30521 0.0
H2260 H 0.71076 0.72217 0.24897 0.0
H2261 H 0.76338 0.72238 0.32815 0.0
O2262 O 0.70496 0.79615 0.98408 0.0
Tb2263 Tb 0.70539 0.75807 0.95343 0.0
Eu2264 Eu 0.62756 0.74808 0.94979 0.0
C2265 C 0.68433 0.81708 0.9828 0.0
O2266 O 0.66098 0.81359 0.96555 0.0
C2267 C 0.66387 0.79304 0.90523 0.0
O2268 O 0.58173 0.72794 0.94168 0.0
C2269 C 0.62975 0.76734 1.00474 0.0
C2270 C 0.56944 0.72304 0.91532 0.0
O2271 O 0.58352 0.73103 0.89086 0.0
C2272 C 0.67499 0.6952 0.95633 0.0
C2273 C 0.62753 0.75808 1.03623 0.0
C2274 C 0.64102 0.77611 0.05854 0.0
C2275 C 0.64308 0.76501 0.08803 0.0
C2276 C 0.63939 0.73375 0.09003 0.0
C2277 C 0.61367 0.7228 0.07542 0.0
C2278 C 0.61093 0.73265 1.04544 0.0
O2279 O 0.68988 0.78214 0.91393 0.0
O2280 O 0.63771 0.78442 0.91604 0.0
O2281 O 0.75307 0.7575 0.96481 0.0
O2282 O 0.73901 0.74117 0.92252 0.0
C2283 C 0.76187 0.74562 0.93981 0.0
O2284 O 0.65042 0.7036 0.94255 0.0
O2285 O 0.69172 0.7145 0.97083 0.0
O2286 O 0.60525 0.76763 0.98857 0.0
O2287 O 0.65308 0.75737 0.99004 0.0
H2288 H 0.64795 0.79869 1.05325 0.0
H2289 H 0.64772 0.72217 0.10948 0.0
H2290 H 0.5951 0.72239 1.0303 0.0
O2291 O 0.6535 0.56232 0.98407 0.0
Tb2292 Tb 0.65307 0.60041 0.95343 0.0
Eu2293 Eu 0.7309 0.6104 0.9498 0.0
C2294 C 0.67413 0.54139 0.98279 0.0
O2295 O 0.69749 0.5449 0.96557 0.0
C2296 C 0.6946 0.56543 0.90524 0.0
O2297 O 0.77672 0.63055 0.94168 0.0
C2298 C 0.72872 0.59115 1.00474 0.0
C2299 C 0.78902 0.63544 0.91532 0.0
O2300 O 0.77493 0.62746 0.89085 0.0
C2301 C 0.68346 0.66328 0.95633 0.0
C2302 C 0.73093 0.60041 1.03623 0.0
C2303 C 0.71745 0.58238 0.05855 0.0
C2304 C 0.71539 0.59347 0.08804 0.0
C2305 C 0.71909 0.62473 0.09005 0.0
C2306 C 0.74481 0.63568 0.07543 0.0
C2307 C 0.74754 0.62583 1.04545 0.0
O2308 O 0.66859 0.57635 0.91392 0.0
O2309 O 0.72075 0.57406 0.91605 0.0
O2310 O 0.60539 0.60097 0.9648 0.0
O2311 O 0.61944 0.61727 0.92251 0.0
C2312 C 0.59657 0.61281 0.93978 0.0
O2313 O 0.70803 0.65488 0.94255 0.0
O2314 O 0.66672 0.64398 0.97083 0.0
O2315 O 0.75322 0.59086 0.98858 0.0
O2316 O 0.70538 0.60111 0.99005 0.0
H2317 H 0.71052 0.5598 1.05325 0.0
H2318 H 0.71076 0.63631 0.10949 0.0
H2319 H 0.76337 0.63609 1.03031 0.0
O2320 O 0.87437 0.70496 0.06231 0.0
Tb2321 Tb 0.90502 0.7054 0.10039 0.0
Eu2322 Eu 0.90866 0.62756 0.11039 0.0
C2323 C 0.87566 0.68433 1.04139 0.0
O2324 O 0.8929 0.66098 1.04487 0.0
C2325 C 0.95323 0.66387 0.06543 0.0
O2326 O 0.91678 0.58174 0.13053 0.0
C2327 C 0.85372 0.62975 0.09112 0.0
C2328 C 0.94314 0.56945 0.13543 0.0
O2329 O 0.96761 0.58353 0.12745 0.0
C2330 C 0.90212 0.675 0.16326 0.0
C2331 C 0.82223 0.62753 0.10038 0.0
C2332 C 0.79991 0.64104 0.08237 0.0
C2333 C 0.77042 0.64309 0.09347 0.0
C2334 C 0.76842 0.63937 0.12473 0.0
C2335 C 0.78304 0.61365 0.13565 0.0
C2336 C 0.81302 0.6109 0.12579 0.0
O2337 O 0.94453 0.68989 0.07632 0.0
O2338 O 0.94242 0.63772 0.07405 0.0
O2339 O 0.89364 0.75308 0.10096 0.0
O2340 O 0.93593 0.73902 0.11729 0.0
C2341 C 0.91864 0.76188 0.11284 0.0
O2342 O 0.9159 0.65043 0.15487 0.0
O2343 O 0.88762 0.69173 0.14397 0.0
O2344 O 0.86989 0.60525 0.09083 0.0
O2345 O 0.86841 0.65309 0.10109 0.0
H2346 H 0.8052 0.64799 0.05979 0.0
H2347 H 0.74898 0.64769 0.13632 0.0
H2348 H 0.82815 0.59505 0.13604 0.0
O2349 O 0.87437 0.65351 0.29614 0.0
Tb2350 Tb 0.90502 0.65308 0.25806 0.0
Eu2351 Eu 0.90866 0.73091 0.24806 0.0
C2352 C 0.87566 0.67414 0.31706 0.0
O2353 O 0.8929 0.69749 0.31357 0.0
C2354 C 0.95323 0.6946 0.29301 0.0
O2355 O 0.91677 0.77673 0.22791 0.0
C2356 C 0.85372 0.72872 0.26733 0.0
C2357 C 0.94314 0.78903 0.22301 0.0
O2358 O 0.9676 0.77494 0.231 0.0
C2359 C 0.90212 0.68347 0.19519 0.0
C2360 C 0.82223 0.73095 0.25807 0.0
C2361 C 0.79991 0.71743 0.27609 0.0
C2362 C 0.77042 0.71538 0.26499 0.0
C2363 C 0.76841 0.7191 0.23373 0.0
C2364 C 0.78303 0.74483 0.22281 0.0
C2365 C 0.81302 0.74757 0.23266 0.0
O2366 O 0.94453 0.66859 0.28212 0.0
O2367 O 0.94242 0.72076 0.28439 0.0
O2368 O 0.89364 0.6054 0.25749 0.0
O2369 O 0.93593 0.61945 0.24116 0.0
C2370 C 0.91864 0.5966 0.24561 0.0
O2371 O 0.9159 0.70804 0.20358 0.0
O2372 O 0.88762 0.66674 0.21448 0.0
O2373 O 0.86989 0.75322 0.26761 0.0
O2374 O 0.86841 0.70539 0.25736 0.0
H2375 H 0.8052 0.71049 0.29866 0.0
H2376 H 0.74897 0.71078 0.22214 0.0
H2377 H 0.82815 0.76342 0.22241 0.0
O2378 O 0.48409 0.70495 0.29614 0.0
Tb2379 Tb 0.45344 0.70539 0.25806 0.0
Eu2380 Eu 0.44981 0.62755 0.24807 0.0
C2381 C 0.48281 0.68432 0.31707 0.0
O2382 O 0.46556 0.66098 0.31358 0.0
C2383 C 0.40524 0.66386 0.29302 0.0
O2384 O 0.4417 0.58173 0.22792 0.0
C2385 C 0.50475 0.62974 0.26733 0.0
C2386 C 0.41533 0.56944 0.22302 0.0
O2387 O 0.39087 0.58352 0.23101 0.0
C2388 C 0.45635 0.67499 0.19519 0.0
C2389 C 0.53624 0.62752 0.25807 0.0
C2390 C 0.55856 0.64104 0.27609 0.0
C2391 C 0.58805 0.64309 0.26499 0.0
C2392 C 0.59006 0.63937 0.23374 0.0
C2393 C 0.57544 0.61365 0.22281 0.0
C2394 C 0.54546 0.6109 0.23266 0.0
O2395 O 0.41394 0.68988 0.28212 0.0
O2396 O 0.41605 0.63771 0.2844 0.0
O2397 O 0.46482 0.75307 0.25749 0.0
O2398 O 0.42254 0.73901 0.24116 0.0
C2399 C 0.43983 0.76187 0.24561 0.0
O2400 O 0.44257 0.65042 0.20358 0.0
O2401 O 0.47085 0.69173 0.21449 0.0
O2402 O 0.48859 0.60524 0.26762 0.0
O2403 O 0.49006 0.65308 0.25736 0.0
H2404 H 0.55327 0.64798 0.29867 0.0
H2405 H 0.6095 0.64769 0.22215 0.0
H2406 H 0.53032 0.59505 0.22241 0.0
O2407 O 0.48409 0.6535 0.06231 0.0
Tb2408 Tb 0.45344 0.65307 0.10039 0.0
Eu2409 Eu 0.44982 0.73091 0.11039 0.0
C2410 C 0.4828 0.67414 1.04138 0.0
O2411 O 0.46558 0.69749 1.04489 0.0
C2412 C 0.40525 0.69461 0.06543 0.0
O2413 O 0.4417 0.77673 0.13054 0.0
C2414 C 0.50476 0.72872 0.09113 0.0
C2415 C 0.41533 0.78902 0.13544 0.0
O2416 O 0.39087 0.77494 0.12745 0.0
C2417 C 0.45635 0.68346 0.16327 0.0
C2418 C 0.53625 0.73094 0.10039 0.0
C2419 C 0.55857 0.71743 0.08237 0.0
C2420 C 0.58806 0.71538 0.09347 0.0
C2421 C 0.59007 0.7191 0.12472 0.0
C2422 C 0.57545 0.74483 0.13565 0.0
C2423 C 0.54546 0.74757 0.1258 0.0
O2424 O 0.41394 0.66859 0.07634 0.0
O2425 O 0.41606 0.72076 0.07405 0.0
O2426 O 0.46481 0.60539 0.10095 0.0
O2427 O 0.42252 0.61944 0.11726 0.0
C2428 C 0.4398 0.59657 0.11279 0.0
O2429 O 0.44257 0.70803 0.15487 0.0
O2430 O 0.47084 0.66672 0.14397 0.0
O2431 O 0.48859 0.75322 0.09084 0.0
O2432 O 0.49007 0.70538 0.1011 0.0
H2433 H 0.55328 0.71049 0.0598 0.0
H2434 H 0.60951 0.71079 0.13631 0.0
H2435 H 0.53033 0.76341 0.13605 0.0
O2436 O 0.54614 0.23409 0.9035 0.0
Tb2437 Tb 0.50806 0.20344 0.90307 0.0
Eu2438 Eu 0.49807 0.1998 0.9809 0.0
C2439 C 0.56707 0.2328 0.92413 0.0
O2440 O 0.56359 0.21555 0.94748 0.0
C2441 C 0.54302 0.15523 0.94459 0.0
O2442 O 0.47792 0.19168 1.02672 0.0
C2443 C 0.51733 0.25474 0.9787 0.0
C2444 C 0.47302 0.16532 1.03901 0.0
O2445 O 0.481 0.14085 1.02493 0.0
C2446 C 0.44519 0.20634 0.93346 0.0
C2447 C 0.50807 0.28623 0.98092 0.0
C2448 C 0.52608 0.30854 0.96741 0.0
C2449 C 0.51499 0.33804 0.96536 0.0
C2450 C 0.48373 0.34003 0.96908 0.0
C2451 C 0.4728 0.32542 0.99481 0.0
C2452 C 0.48266 0.29544 0.99754 0.0
O2453 O 0.53213 0.16393 0.91858 0.0
O2454 O 0.5344 0.16604 0.97075 0.0
O2455 O 0.5075 0.21482 0.85539 0.0
O2456 O 0.49117 0.17253 0.86944 0.0
C2457 C 0.49562 0.18982 0.84659 0.0
O2458 O 0.45359 0.19255 0.95803 0.0
O2459 O 0.46449 0.22083 0.91673 0.0
O2460 O 0.51762 0.23857 1.00321 0.0
O2461 O 0.50736 0.24004 0.95537 0.0
H2462 H 0.54865 0.30325 0.96046 0.0
H2463 H 0.47214 0.35946 0.96076 0.0
H2464 H 0.47241 0.2803 1.01339 0.0
O2465 O 0.31232 0.62438 0.90351 0.0
Tb2466 Tb 0.3504 0.65503 0.90307 0.0
Eu2467 Eu 0.3604 0.65867 0.9809 0.0
C2468 C 0.29139 0.62567 0.92414 0.0
O2469 O 0.29488 0.64292 0.94748 0.0
C2470 C 0.31544 0.70324 0.9446 0.0
O2471 O 0.38055 0.66678 1.02673 0.0
C2472 C 0.34113 0.60373 0.97871 0.0
C2473 C 0.38545 0.69315 1.03902 0.0
O2474 O 0.37746 0.71761 1.02494 0.0
C2475 C 0.41327 0.65213 0.93346 0.0
C2476 C 0.3504 0.57224 0.98092 0.0
C2477 C 0.33238 0.54992 0.96741 0.0
C2478 C 0.34347 0.52043 0.96536 0.0
C2479 C 0.37473 0.51844 0.96908 0.0
C2480 C 0.38566 0.53305 0.99481 0.0
C2481 C 0.3758 0.56303 0.99755 0.0
O2482 O 0.32634 0.69454 0.91858 0.0
O2483 O 0.32406 0.69243 0.97075 0.0
O2484 O 0.35097 0.64365 0.85539 0.0
O2485 O 0.36729 0.68594 0.86945 0.0
C2486 C 0.36285 0.66865 0.84659 0.0
O2487 O 0.40488 0.66592 0.95803 0.0
O2488 O 0.39398 0.63763 0.91673 0.0
O2489 O 0.34085 0.61989 1.00321 0.0
O2490 O 0.3511 0.61843 0.95537 0.0
H2491 H 0.30981 0.55522 0.96047 0.0
H2492 H 0.38632 0.499 0.96076 0.0
H2493 H 0.38605 0.57817 1.01339 0.0
O2494 O 0.54614 0.62438 0.95495 0.0
Tb2495 Tb 0.50807 0.65504 0.95538 0.0
Eu2496 Eu 0.49807 0.65868 0.87755 0.0
C2497 C 0.56707 0.62567 0.93432 0.0
O2498 O 0.56359 0.64292 0.91097 0.0
C2499 C 0.54302 0.70324 0.91386 0.0
O2500 O 0.47792 0.66679 0.83173 0.0
C2501 C 0.51733 0.60373 0.87974 0.0
C2502 C 0.47302 0.69315 0.81943 0.0
O2503 O 0.481 0.71762 0.83352 0.0
C2504 C 0.44519 0.65213 0.92499 0.0
C2505 C 0.50807 0.57224 0.87753 0.0
C2506 C 0.52608 0.54993 0.89104 0.0
C2507 C 0.515 0.52043 0.89309 0.0
C2508 C 0.48374 0.51844 0.88937 0.0
C2509 C 0.4728 0.53305 0.86364 0.0
C2510 C 0.48266 0.56303 0.8609 0.0
O2511 O 0.53213 0.69454 0.93987 0.0
O2512 O 0.5344 0.69243 0.8877 0.0
O2513 O 0.5075 0.64365 1.00306 0.0
O2514 O 0.49117 0.68594 0.98901 0.0
C2515 C 0.49562 0.66865 1.01187 0.0
O2516 O 0.45359 0.66592 0.90042 0.0
O2517 O 0.46449 0.63763 0.94172 0.0
O2518 O 0.51762 0.6199 0.85524 0.0
O2519 O 0.50736 0.61843 0.90308 0.0
H2520 H 0.54866 0.55522 0.89799 0.0
H2521 H 0.47214 0.49901 0.89769 0.0
H2522 H 0.47241 0.57817 0.84506 0.0
O2523 O 0.31232 0.23409 0.95495 0.0
Tb2524 Tb 0.3504 0.20344 0.95538 0.0
Eu2525 Eu 0.3604 0.19979 0.87755 0.0
C2526 C 0.29139 0.2328 0.93432 0.0
O2527 O 0.29488 0.21555 0.91097 0.0
C2528 C 0.31544 0.15523 0.91386 0.0
O2529 O 0.38054 0.19168 0.83173 0.0
C2530 C 0.34113 0.25474 0.87975 0.0
C2531 C 0.38545 0.16532 0.81943 0.0
O2532 O 0.37746 0.14085 0.83352 0.0
C2533 C 0.41327 0.20633 0.92499 0.0
C2534 C 0.35039 0.28623 0.87753 0.0
C2535 C 0.33238 0.30854 0.89104 0.0
C2536 C 0.34347 0.33804 0.89309 0.0
C2537 C 0.37472 0.34003 0.88937 0.0
C2538 C 0.38566 0.32542 0.86364 0.0
C2539 C 0.3758 0.29544 0.8609 0.0
O2540 O 0.32633 0.16393 0.93987 0.0
O2541 O 0.32406 0.16604 0.8877 0.0
O2542 O 0.35096 0.21482 1.00306 0.0
O2543 O 0.36729 0.17253 0.98901 0.0
C2544 C 0.36285 0.18982 1.01186 0.0
O2545 O 0.40488 0.19255 0.90042 0.0
O2546 O 0.39397 0.22084 0.94172 0.0
O2547 O 0.34084 0.23857 0.85524 0.0
O2548 O 0.3511 0.24004 0.90308 0.0
H2549 H 0.3098 0.30325 0.89799 0.0
H2550 H 0.38632 0.35946 0.89769 0.0
H2551 H 0.38605 0.2803 0.84506 0.0
O2552 O 0.40351 0.54615 0.73409 0.0
Tb2553 Tb 0.40307 0.50807 0.70343 0.0
Eu2554 Eu 0.48091 0.49807 0.69979 0.0
C2555 C 0.42414 0.56708 0.7328 0.0
O2556 O 0.44748 0.56359 0.71555 0.0
C2557 C 0.44459 0.54303 0.65523 0.0
O2558 O 0.52673 0.47793 0.69168 0.0
C2559 C 0.47872 0.51734 0.75473 0.0
C2560 C 0.53902 0.47303 0.66531 0.0
O2561 O 0.52494 0.48102 0.64085 0.0
C2562 C 0.43347 0.4452 0.70634 0.0
C2563 C 0.48094 0.50808 0.78622 0.0
C2564 C 0.46745 0.52611 0.80854 0.0
C2565 C 0.46539 0.51501 0.83803 0.0
C2566 C 0.46909 0.48375 0.84003 0.0
C2567 C 0.49481 0.4728 0.82542 0.0
C2568 C 0.49754 0.48265 0.79543 0.0
O2569 O 0.41858 0.53214 0.66393 0.0
O2570 O 0.47075 0.53441 0.66604 0.0
O2571 O 0.35539 0.5075 0.71481 0.0
O2572 O 0.36945 0.49117 0.67252 0.0
C2573 C 0.34659 0.49561 0.68981 0.0
O2574 O 0.45804 0.45359 0.69255 0.0
O2575 O 0.41674 0.46449 0.72084 0.0
O2576 O 0.50322 0.51762 0.73857 0.0
O2577 O 0.45538 0.50737 0.74004 0.0
H2578 H 0.46052 0.54869 0.80324 0.0
H2579 H 0.46076 0.47217 0.85947 0.0
H2580 H 0.51338 0.47239 0.7803 0.0
O2581 O 0.45496 0.31233 0.73409 0.0
Tb2582 Tb 0.45539 0.3504 0.70344 0.0
Eu2583 Eu 0.37756 0.3604 0.69979 0.0
C2584 C 0.43433 0.2914 0.7328 0.0
O2585 O 0.41098 0.29488 0.71555 0.0
C2586 C 0.41387 0.31544 0.65523 0.0
O2587 O 0.33174 0.38054 0.69167 0.0
C2588 C 0.37974 0.34114 0.75473 0.0
C2589 C 0.31944 0.38544 0.66531 0.0
O2590 O 0.33353 0.37746 0.64085 0.0
C2591 C 0.425 0.41328 0.70633 0.0
C2592 C 0.37752 0.3504 0.78622 0.0
C2593 C 0.39101 0.33237 0.80854 0.0
C2594 C 0.39307 0.34346 0.83803 0.0
C2595 C 0.38937 0.37472 0.84003 0.0
C2596 C 0.36365 0.38568 0.82542 0.0
C2597 C 0.36092 0.37582 0.79543 0.0
O2598 O 0.43989 0.32634 0.66393 0.0
O2599 O 0.38772 0.32406 0.66604 0.0
O2600 O 0.50307 0.35097 0.71481 0.0
O2601 O 0.48901 0.3673 0.67253 0.0
C2602 C 0.51187 0.36286 0.68982 0.0
O2603 O 0.40043 0.40488 0.69255 0.0
O2604 O 0.44172 0.39398 0.72084 0.0
O2605 O 0.35524 0.34085 0.73856 0.0
O2606 O 0.40308 0.3511 0.74004 0.0
H2607 H 0.39794 0.30979 0.80324 0.0
H2608 H 0.39771 0.3863 0.85947 0.0
H2609 H 0.34509 0.38608 0.7803 0.0
O2610 O 0.40351 0.31232 0.12436 0.0
Tb2611 Tb 0.40307 0.3504 0.15502 0.0
Eu2612 Eu 0.48091 0.3604 0.15866 0.0
C2613 C 0.42414 0.29139 0.12565 0.0
O2614 O 0.44748 0.29488 0.1429 0.0
C2615 C 0.44459 0.31544 0.20322 0.0
O2616 O 0.52673 0.38054 0.16677 0.0
C2617 C 0.47872 0.34113 0.10372 0.0
C2618 C 0.53902 0.38544 0.19314 0.0
O2619 O 0.52494 0.37745 0.2176 0.0
C2620 C 0.43347 0.41327 0.15211 0.0
C2621 C 0.48094 0.35039 0.07223 0.0
C2622 C 0.46745 0.33236 1.04991 0.0
C2623 C 0.46539 0.34346 1.02042 0.0
C2624 C 0.46909 0.37472 1.01842 0.0
C2625 C 0.49481 0.38567 1.03303 0.0
C2626 C 0.49754 0.37582 0.06302 0.0
O2627 O 0.41858 0.32633 0.19452 0.0
O2628 O 0.47075 0.32406 0.19241 0.0
O2629 O 0.35539 0.35097 0.14364 0.0
O2630 O 0.36945 0.3673 0.18592 0.0
C2631 C 0.34659 0.36285 0.16864 0.0
O2632 O 0.45804 0.40488 0.1659 0.0
O2633 O 0.41674 0.39397 0.13761 0.0
O2634 O 0.50322 0.34085 0.11988 0.0
O2635 O 0.45538 0.3511 0.11841 0.0
H2636 H 0.46052 0.30978 0.05521 0.0
H2637 H 0.46075 0.3863 0.99898 0.0
H2638 H 0.51338 0.38608 0.07815 0.0
O2639 O 0.45496 0.54614 0.12437 0.0
Tb2640 Tb 0.45539 0.50806 0.15502 0.0
Eu2641 Eu 0.37756 0.49807 0.15866 0.0
C2642 C 0.43433 0.56707 0.12565 0.0
O2643 O 0.41098 0.56358 0.1429 0.0
C2644 C 0.41387 0.54303 0.20323 0.0
O2645 O 0.33174 0.47792 0.16678 0.0
C2646 C 0.37974 0.51733 0.10372 0.0
C2647 C 0.31944 0.47303 0.19314 0.0
O2648 O 0.33353 0.48101 0.2176 0.0
C2649 C 0.425 0.44519 0.15211 0.0
C2650 C 0.37752 0.50807 0.07223 0.0
C2651 C 0.39102 0.5261 1.04991 0.0
C2652 C 0.39307 0.51501 1.02042 0.0
C2653 C 0.38937 0.48375 1.01842 0.0
C2654 C 0.36365 0.47279 1.03303 0.0
C2655 C 0.36092 0.48265 0.06301 0.0
O2656 O 0.43988 0.53213 0.19452 0.0
O2657 O 0.38771 0.53441 0.19241 0.0
O2658 O 0.50307 0.5075 0.14364 0.0
O2659 O 0.48901 0.49116 0.18593 0.0
C2660 C 0.51187 0.49561 0.16864 0.0
O2661 O 0.40043 0.45359 0.1659 0.0
O2662 O 0.44173 0.46449 0.13761 0.0
O2663 O 0.35524 0.51761 0.11988 0.0
O2664 O 0.40308 0.50737 0.11841 0.0
H2665 H 0.39795 0.54868 0.05521 0.0
H2666 H 0.39771 0.47217 0.99897 0.0
H2667 H 0.34509 0.47238 0.07815 0.0
O2668 O 0.2341 0.40351 1.04614 0.0
Tb2669 Tb 0.20344 0.40308 1.00806 0.0
Eu2670 Eu 0.1998 0.48091 0.99806 0.0
C2671 C 0.23281 0.42414 0.06706 0.0
O2672 O 0.21556 0.44749 0.06358 0.0
C2673 C 0.15524 0.4446 1.04302 0.0
O2674 O 0.19169 0.52673 0.97792 0.0
C2675 C 0.25475 0.47872 1.01733 0.0
C2676 C 0.16532 0.53902 0.97302 0.0
O2677 O 0.14086 0.52494 0.981 0.0
C2678 C 0.20635 0.43347 0.94519 0.0
C2679 C 0.28624 0.48095 1.00807 0.0
C2680 C 0.30855 0.46743 1.02609 0.0
C2681 C 0.33805 0.46538 1.01499 0.0
C2682 C 0.34005 0.4691 0.98373 0.0
C2683 C 0.32543 0.49483 0.97281 0.0
C2684 C 0.29545 0.49757 0.98266 0.0
O2685 O 0.16394 0.41858 1.03213 0.0
O2686 O 0.16605 0.47075 1.0344 0.0
O2687 O 0.21482 0.35539 1.00749 0.0
O2688 O 0.17253 0.36945 0.99116 0.0
C2689 C 0.18982 0.34659 0.99561 0.0
O2690 O 0.19256 0.45804 0.95358 0.0
O2691 O 0.22085 0.41674 0.96448 0.0
O2692 O 0.23858 0.50322 1.01762 0.0
O2693 O 0.24006 0.45539 1.00736 0.0
H2694 H 0.30326 0.46049 1.04866 0.0
H2695 H 0.35949 0.46078 0.97214 0.0
H2696 H 0.28031 0.51342 0.97241 0.0
O2697 O 0.2341 0.45496 0.81231 0.0
Tb2698 Tb 0.20345 0.45539 0.85039 0.0
Eu2699 Eu 0.1998 0.37756 0.86039 0.0
C2700 C 0.23281 0.43433 0.79139 0.0
O2701 O 0.21556 0.41098 0.79487 0.0
C2702 C 0.15524 0.41387 0.81543 0.0
O2703 O 0.19169 0.33174 0.88053 0.0
C2704 C 0.25474 0.37975 0.84112 0.0
C2705 C 0.16532 0.31945 0.88544 0.0
O2706 O 0.14086 0.33353 0.87746 0.0
C2707 C 0.20635 0.425 0.91326 0.0
C2708 C 0.28624 0.37752 0.85038 0.0
C2709 C 0.30855 0.39103 0.83236 0.0
C2710 C 0.33805 0.39309 0.84346 0.0
C2711 C 0.34005 0.38937 0.87472 0.0
C2712 C 0.32543 0.36364 0.88564 0.0
C2713 C 0.29545 0.3609 0.87579 0.0
O2714 O 0.16394 0.43989 0.82632 0.0
O2715 O 0.16605 0.38772 0.82405 0.0
O2716 O 0.21482 0.50307 0.85096 0.0
O2717 O 0.17254 0.48902 0.86729 0.0
C2718 C 0.18983 0.51188 0.86284 0.0
O2719 O 0.19256 0.40043 0.90487 0.0
O2720 O 0.22085 0.44173 0.89397 0.0
O2721 O 0.23858 0.35525 0.84083 0.0
O2722 O 0.24006 0.40308 0.85109 0.0
H2723 H 0.30326 0.39798 0.80979 0.0
H2724 H 0.35949 0.39768 0.88631 0.0
H2725 H 0.28031 0.34505 0.88604 0.0
O2726 O 0.62437 0.40352 0.81231 0.0
Tb2727 Tb 0.65502 0.40308 0.85039 0.0
Eu2728 Eu 0.65866 0.48091 0.86039 0.0
C2729 C 0.62566 0.42415 0.79139 0.0
O2730 O 0.6429 0.44749 0.79488 0.0
C2731 C 0.70323 0.4446 0.81544 0.0
O2732 O 0.66677 0.52673 0.88054 0.0
C2733 C 0.60372 0.47873 0.84112 0.0
C2734 C 0.69314 0.53903 0.88544 0.0
O2735 O 0.7176 0.52494 0.87745 0.0
C2736 C 0.65211 0.43347 0.91326 0.0
C2737 C 0.57223 0.48095 0.85038 0.0
C2738 C 0.54991 0.46744 0.83236 0.0
C2739 C 0.52042 0.46539 0.84346 0.0
C2740 C 0.51841 0.46911 0.87471 0.0
C2741 C 0.53303 0.49483 0.88564 0.0
C2742 C 0.56301 0.49758 0.87579 0.0
O2743 O 0.69453 0.41859 0.82633 0.0
O2744 O 0.69242 0.47076 0.82406 0.0
O2745 O 0.64364 0.3554 0.85096 0.0
O2746 O 0.68593 0.36946 0.86729 0.0
C2747 C 0.66864 0.3466 0.86284 0.0
O2748 O 0.6659 0.45804 0.90487 0.0
O2749 O 0.63761 0.41674 0.89397 0.0
O2750 O 0.61989 0.50323 0.84084 0.0
O2751 O 0.61841 0.45539 0.85109 0.0
H2752 H 0.5552 0.46049 0.80979 0.0
H2753 H 0.49897 0.46079 0.88631 0.0
H2754 H 0.57815 0.51342 0.88604 0.0
O2755 O 0.62437 0.45496 1.04614 0.0
Tb2756 Tb 0.65502 0.4554 1.00806 0.0
Eu2757 Eu 0.65866 0.37756 0.99806 0.0
C2758 C 0.62566 0.43433 0.06706 0.0
O2759 O 0.6429 0.41098 0.06357 0.0
C2760 C 0.70323 0.41387 1.04301 0.0
O2761 O 0.66677 0.33174 0.97791 0.0
C2762 C 0.60372 0.37974 1.01733 0.0
C2763 C 0.69314 0.31945 0.97301 0.0
O2764 O 0.7176 0.33353 0.981 0.0
C2765 C 0.65211 0.425 0.94519 0.0
C2766 C 0.57222 0.37752 1.00807 0.0
C2767 C 0.54991 0.39103 1.02609 0.0
C2768 C 0.52041 0.39309 1.01499 0.0
C2769 C 0.51841 0.38937 0.98373 0.0
C2770 C 0.53303 0.36364 0.97281 0.0
C2771 C 0.56301 0.3609 0.98266 0.0
O2772 O 0.69452 0.43988 1.03212 0.0
O2773 O 0.69242 0.38771 1.03439 0.0
O2774 O 0.64364 0.50308 1.00749 0.0
O2775 O 0.68593 0.48902 0.99116 0.0
C2776 C 0.66864 0.51188 0.99561 0.0
O2777 O 0.6659 0.40043 0.95358 0.0
O2778 O 0.63761 0.44173 0.96448 0.0
O2779 O 0.61988 0.35525 1.01761 0.0
O2780 O 0.6184 0.40308 1.00736 0.0
H2781 H 0.5552 0.39798 1.04866 0.0
H2782 H 0.49897 0.39768 0.97214 0.0
H2783 H 0.57815 0.34505 0.97241 0.0
loop_
_geom_bond_atom_site_label_1
_geom_bond_atom_site_label_2
_geom_bond_distance
_geom_bond_site_symmetry_2
_ccdc_geom_bond_type
O0 Tb1 2.292 1_655 S
O0 C3 1.255 . S
Tb1 O0 2.292 1_455 S
Tb1 O17 2.326 . S
Tb1 O19 2.500 . S
Tb1 O20 2.473 . S
Tb1 O23 2.324 . S
Eu2 O6 2.292 . S
Eu2 C7 2.852 . S
Eu2 O18 2.324 . S
Eu2 O22 2.326 . S
Eu2 O24 2.500 . S
Eu2 O25 2.473 . S
C3 O0 1.255 . S
C3 O4 1.247 . S
O4 C3 1.247 . S
C5 O17 1.242 . S
C5 O18 1.258 . S
O6 Eu2 2.292 . S
O6 C8 1.255 . S
C7 Eu2 2.852 . S
C7 C11 1.503 . S
C7 O24 1.273 . S
C7 O25 1.257 . S
C8 O6 1.255 . S
C8 O9 1.247 . S
O9 C8 1.247 . S
C10 O22 1.242 . S
C10 O23 1.258 . S
C11 C7 1.503 . S
C11 C12 1.379 . S
C11 C16 1.392 . S
C12 C11 1.379 . S
C12 C13 1.404 . S
C12 H26 0.929 . S
C13 C12 1.404 . S
C13 C14 1.389 . S
C14 C13 1.389 . S
C14 C15 1.399 . S
C14 H27 0.931 . S
C15 C14 1.399 . S
C15 C16 1.390 . S
C16 C11 1.392 . S
C16 C15 1.390 . S
C16 H28 0.929 . S
O17 Tb1 2.326 . S
O17 C5 1.242 . S
O18 Eu2 2.324 . S
O18 C5 1.258 . S
O19 Tb1 2.500 . S
O19 C21 1.273 . S
O20 Tb1 2.473 . S
O20 C21 1.257 . S
C21 O19 1.273 . S
C21 O20 1.257 . S
O22 Eu2 2.326 . S
O22 C10 1.242 . S
O23 Tb1 2.324 . S
O23 C10 1.258 . S
O24 Eu2 2.500 . S
O24 C7 1.273 . S
O25 Eu2 2.473 . S
O25 C7 1.257 . S
H26 C12 0.929 . S
H27 C14 0.931 . S
H28 C16 0.929 . S
O29 Tb30 2.292 . S
O29 C32 1.255 . S
Tb30 O29 2.292 . S
Tb30 O46 2.326 . S
Tb30 O48 2.500 . S
Tb30 O49 2.473 . S
Tb30 O52 2.324 . S
Eu31 O35 2.292 . S
Eu31 C36 2.852 . S
Eu31 O47 2.324 . S
Eu31 O51 2.326 . S
Eu31 O53 2.500 . S
Eu31 O54 2.473 . S
C32 O29 1.255 . S
C32 O33 1.247 . S
O33 C32 1.247 . S
C34 O46 1.242 . S
C34 O47 1.258 . S
O35 Eu31 2.292 . S
O35 C37 1.255 . S
C36 Eu31 2.852 . S
C36 C40 1.503 . S
C36 O53 1.273 . S
C36 O54 1.257 . S
C37 O35 1.255 . S
C37 O38 1.247 . S
O38 C37 1.247 . S
C39 O51 1.242 . S
C39 O52 1.258 . S
C40 C36 1.503 . S
C40 C41 1.379 . S
C40 C45 1.392 . S
C41 C40 1.379 . S
C41 C42 1.404 1_565 S
C41 H55 0.929 . S
C42 C41 1.404 1_545 S
C42 C43 1.389 . S
C43 C42 1.389 . S
C43 C44 1.388 1_545 S
C43 H56 0.931 . S
C44 C43 1.388 1_565 S
C44 C45 1.408 . S
C45 C40 1.392 . S
C45 C44 1.408 . S
C45 H57 0.929 . S
O46 Tb30 2.326 . S
O46 C34 1.242 . S
O47 Eu31 2.324 . S
O47 C34 1.258 . S
O48 Tb30 2.500 . S
O48 C50 1.273 . S
O49 Tb30 2.473 . S
O49 C50 1.257 . S
C50 O48 1.273 . S
C50 O49 1.257 . S
O51 Eu31 2.326 . S
O51 C39 1.242 . S
O52 Tb30 2.324 . S
O52 C39 1.258 . S
O53 Eu31 2.500 . S
O53 C36 1.273 . S
O54 Eu31 2.473 . S
O54 C36 1.257 . S
H55 C41 0.929 . S
H56 C43 0.931 . S
H57 C45 0.929 . S
O58 Tb59 2.292 1_655 S
O58 C61 1.255 . S
Tb59 O58 2.292 1_455 S
Tb59 O75 2.326 . S
Tb59 O77 2.500 . S
Tb59 O78 2.473 . S
Tb59 O81 2.324 . S
Eu60 O64 2.292 . S
Eu60 C65 2.852 . S
Eu60 O76 2.324 . S
Eu60 O80 2.326 . S
Eu60 O82 2.500 . S
Eu60 O83 2.473 . S
C61 O58 1.255 . S
C61 O62 1.247 . S
O62 C61 1.247 . S
C63 O75 1.242 . S
C63 O76 1.258 . S
O64 Eu60 2.292 . S
O64 C66 1.255 . S
C65 Eu60 2.852 . S
C65 C69 1.503 . S
C65 O82 1.273 . S
C65 O83 1.257 . S
C66 O64 1.255 . S
C66 O67 1.247 . S
O67 C66 1.247 . S
C68 O80 1.242 . S
C68 O81 1.258 . S
C69 C65 1.503 . S
C69 C70 1.379 . S
C69 C74 1.392 . S
C70 C69 1.379 . S
C70 C71 1.404 1_565 S
C70 H84 0.929 . S
C71 C70 1.404 1_545 S
C71 C72 1.389 . S
C72 C71 1.389 . S
C72 C73 1.388 1_545 S
C72 H85 0.931 . S
C73 C72 1.388 1_565 S
C73 C74 1.408 . S
C74 C69 1.392 . S
C74 C73 1.408 . S
C74 H86 0.929 . S
O75 Tb59 2.326 . S
O75 C63 1.242 . S
O76 Eu60 2.324 . S
O76 C63 1.258 . S
O77 Tb59 2.500 . S
O77 C79 1.273 . S
O78 Tb59 2.473 . S
O78 C79 1.257 . S
C79 O77 1.273 . S
C79 O78 1.257 . S
O80 Eu60 2.326 . S
O80 C68 1.242 . S
O81 Tb59 2.324 . S
O81 C68 1.258 . S
O82 Eu60 2.500 . S
O82 C65 1.273 . S
O83 Eu60 2.473 . S
O83 C65 1.257 . S
H84 C70 0.929 . S
H85 C72 0.931 . S
H86 C74 0.929 . S
O87 Tb88 2.292 . S
O87 C90 1.255 . S
Tb88 O87 2.292 . S
Tb88 O104 2.326 . S
Tb88 O106 2.500 . S
Tb88 O107 2.473 . S
Tb88 O110 2.324 . S
Eu89 O93 2.292 . S
Eu89 C94 2.852 . S
Eu89 O105 2.324 . S
Eu89 O109 2.326 . S
Eu89 O111 2.500 . S
Eu89 O112 2.473 . S
C90 O87 1.255 . S
C90 O91 1.247 . S
O91 C90 1.247 . S
C92 O104 1.242 . S
C92 O105 1.258 . S
O93 Eu89 2.292 . S
O93 C95 1.255 . S
C94 Eu89 2.852 . S
C94 C98 1.503 . S
C94 O111 1.273 . S
C94 O112 1.257 . S
C95 O93 1.255 . S
C95 O96 1.247 . S
O96 C95 1.247 . S
C97 O109 1.242 . S
C97 O110 1.258 . S
C98 C94 1.503 . S
C98 C99 1.379 . S
C98 C103 1.392 . S
C99 C98 1.379 . S
C99 C100 1.404 . S
C99 H113 0.929 . S
C100 C99 1.404 . S
C100 C101 1.389 . S
C101 C100 1.389 . S
C101 C102 1.399 . S
C101 H114 0.931 . S
C102 C101 1.399 . S
C102 C103 1.390 . S
C103 C98 1.392 . S
C103 C102 1.390 . S
C103 H115 0.929 . S
O104 Tb88 2.326 . S
O104 C92 1.242 . S
O105 Eu89 2.324 . S
O105 C92 1.258 . S
O106 Tb88 2.500 . S
O106 C108 1.273 . S
O107 Tb88 2.473 . S
O107 C108 1.257 . S
C108 O106 1.273 . S
C108 O107 1.257 . S
O109 Eu89 2.326 . S
O109 C97 1.242 . S
O110 Tb88 2.324 . S
O110 C97 1.258 . S
O111 Eu89 2.500 . S
O111 C94 1.273 . S
O112 Eu89 2.473 . S
O112 C94 1.257 . S
H113 C99 0.929 . S
H114 C101 0.931 . S
H115 C103 0.929 . S
O116 Tb117 2.292 1_565 S
O116 C119 1.255 . S
Tb117 O116 2.292 1_545 S
Tb117 O133 2.326 . S
Tb117 O135 2.500 . S
Tb117 O136 2.473 . S
Tb117 O139 2.324 . S
Eu118 O122 2.292 . S
Eu118 C123 2.852 . S
Eu118 O134 2.324 . S
Eu118 O138 2.326 . S
Eu118 O140 2.500 . S
Eu118 O141 2.473 . S
C119 O116 1.255 . S
C119 O120 1.247 . S
O120 C119 1.247 . S
C121 O133 1.242 . S
C121 O134 1.258 . S
O122 Eu118 2.292 . S
O122 C124 1.255 . S
C123 Eu118 2.852 . S
C123 C127 1.503 . S
C123 O140 1.273 . S
C123 O141 1.257 . S
C124 O122 1.255 . S
C124 O125 1.247 . S
O125 C124 1.247 . S
C126 O138 1.242 . S
C126 O139 1.258 . S
C127 C123 1.503 . S
C127 C128 1.379 . S
C127 C132 1.392 . S
C128 C127 1.379 . S
C128 C129 1.404 . S
C128 H142 0.929 . S
C129 C128 1.404 . S
C129 C130 1.389 . S
C130 C129 1.389 . S
C130 C131 1.399 . S
C130 H143 0.931 . S
C131 C130 1.399 . S
C131 C132 1.390 . S
C132 C127 1.392 . S
C132 C131 1.390 . S
C132 H144 0.929 . S
O133 Tb117 2.326 . S
O133 C121 1.242 . S
O134 Eu118 2.324 . S
O134 C121 1.258 . S
O135 Tb117 2.500 . S
O135 C137 1.273 . S
O136 Tb117 2.473 . S
O136 C137 1.257 . S
C137 O135 1.273 . S
C137 O136 1.257 . S
O138 Eu118 2.326 . S
O138 C126 1.242 . S
O139 Tb117 2.324 . S
O139 C126 1.258 . S
O140 Eu118 2.500 . S
O140 C123 1.273 . S
O141 Eu118 2.473 . S
O141 C123 1.257 . S
H142 C128 0.929 . S
H143 C130 0.931 . S
H144 C132 0.929 . S
O145 Tb146 2.292 . S
O145 C148 1.255 . S
Tb146 O145 2.292 . S
Tb146 O162 2.326 . S
Tb146 O164 2.500 . S
Tb146 O165 2.473 . S
Tb146 O168 2.324 . S
Eu147 O151 2.292 . S
Eu147 C152 2.852 . S
Eu147 O163 2.324 . S
Eu147 O167 2.326 . S
Eu147 O169 2.500 . S
Eu147 O170 2.473 . S
C148 O145 1.255 . S
C148 O149 1.247 . S
O149 C148 1.247 . S
C150 O162 1.242 . S
C150 O163 1.258 . S
O151 Eu147 2.292 . S
O151 C153 1.255 . S
C152 Eu147 2.852 . S
C152 C156 1.503 . S
C152 O169 1.273 . S
C152 O170 1.257 . S
C153 O151 1.255 . S
C153 O154 1.247 . S
O154 C153 1.247 . S
C155 O167 1.242 . S
C155 O168 1.258 . S
C156 C152 1.503 . S
C156 C157 1.379 . S
C156 C161 1.392 . S
C157 C156 1.379 . S
C157 C158 1.404 . S
C157 H171 0.929 . S
C158 C157 1.404 . S
C158 C159 1.389 . S
C159 C158 1.389 . S
C159 C160 1.399 . S
C159 H172 0.931 . S
C160 C159 1.399 . S
C160 C161 1.390 . S
C161 C156 1.392 . S
C161 C160 1.390 . S
C161 H173 0.929 . S
O162 Tb146 2.326 . S
O162 C150 1.242 . S
O163 Eu147 2.324 . S
O163 C150 1.258 . S
O164 Tb146 2.500 . S
O164 C166 1.273 . S
O165 Tb146 2.473 . S
O165 C166 1.257 . S
C166 O164 1.273 . S
C166 O165 1.257 . S
O167 Eu147 2.326 . S
O167 C155 1.242 . S
O168 Tb146 2.324 . S
O168 C155 1.258 . S
O169 Eu147 2.500 . S
O169 C152 1.273 . S
O170 Eu147 2.473 . S
O170 C152 1.257 . S
H171 C157 0.929 . S
H172 C159 0.931 . S
H173 C161 0.929 . S
O174 Tb175 2.292 . S
O174 C177 1.255 . S
Tb175 O174 2.292 . S
Tb175 O191 2.326 . S
Tb175 O193 2.500 . S
Tb175 O194 2.473 . S
Tb175 O197 2.324 . S
Eu176 O180 2.292 . S
Eu176 C181 2.852 . S
Eu176 O192 2.324 . S
Eu176 O196 2.326 . S
Eu176 O198 2.500 . S
Eu176 O199 2.473 . S
C177 O174 1.255 . S
C177 O178 1.247 . S
O178 C177 1.247 . S
C179 O191 1.242 . S
C179 O192 1.258 . S
O180 Eu176 2.292 . S
O180 C182 1.255 . S
C181 Eu176 2.852 . S
C181 C185 1.503 . S
C181 O198 1.273 . S
C181 O199 1.257 . S
C182 O180 1.255 . S
C182 O183 1.247 . S
O183 C182 1.247 . S
C184 O196 1.242 . S
C184 O197 1.258 . S
C185 C181 1.503 . S
C185 C186 1.379 . S
C185 C190 1.392 . S
C186 C185 1.379 . S
C186 C187 1.404 1_556 S
C186 H200 0.929 . S
C187 C186 1.404 1_554 S
C187 C188 1.389 . S
C188 C187 1.389 . S
C188 C189 1.388 1_554 S
C188 H201 0.931 . S
C189 C188 1.388 1_556 S
C189 C190 1.408 . S
C190 C185 1.392 . S
C190 C189 1.408 . S
C190 H202 0.929 . S
O191 Tb175 2.326 . S
O191 C179 1.242 . S
O192 Eu176 2.324 . S
O192 C179 1.258 . S
O193 Tb175 2.500 . S
O193 C195 1.273 . S
O194 Tb175 2.473 . S
O194 C195 1.257 . S
C195 O193 1.273 . S
C195 O194 1.257 . S
O196 Eu176 2.326 . S
O196 C184 1.242 . S
O197 Tb175 2.324 . S
O197 C184 1.258 . S
O198 Eu176 2.500 . S
O198 C181 1.273 . S
O199 Eu176 2.473 . S
O199 C181 1.257 . S
H200 C186 0.929 . S
H201 C188 0.931 . S
H202 C190 0.929 . S
O203 Tb204 2.292 1_565 S
O203 C206 1.255 . S
Tb204 O203 2.292 1_545 S
Tb204 O220 2.326 . S
Tb204 O222 2.500 . S
Tb204 O223 2.473 . S
Tb204 O226 2.324 . S
Eu205 O209 2.292 . S
Eu205 C210 2.852 . S
Eu205 O221 2.324 . S
Eu205 O225 2.326 . S
Eu205 O227 2.500 . S
Eu205 O228 2.473 . S
C206 O203 1.255 . S
C206 O207 1.247 . S
O207 C206 1.247 . S
C208 O220 1.242 . S
C208 O221 1.258 . S
O209 Eu205 2.292 . S
O209 C211 1.255 . S
C210 Eu205 2.852 . S
C210 C214 1.503 . S
C210 O227 1.273 . S
C210 O228 1.257 . S
C211 O209 1.255 . S
C211 O212 1.247 . S
O212 C211 1.247 . S
C213 O225 1.242 . S
C213 O226 1.258 . S
C214 C210 1.503 . S
C214 C215 1.379 . S
C214 C219 1.392 . S
C215 C214 1.379 . S
C215 C216 1.404 1_556 S
C215 H229 0.929 . S
C216 C215 1.404 1_554 S
C216 C217 1.389 . S
C217 C216 1.389 . S
C217 C218 1.388 1_554 S
C217 H230 0.931 . S
C218 C217 1.388 1_556 S
C218 C219 1.408 . S
C219 C214 1.392 . S
C219 C218 1.408 . S
C219 H231 0.929 . S
O220 Tb204 2.326 . S
O220 C208 1.242 . S
O221 Eu205 2.324 . S
O221 C208 1.258 . S
O222 Tb204 2.500 . S
O222 C224 1.273 . S
O223 Tb204 2.473 . S
O223 C224 1.257 . S
C224 O222 1.273 . S
C224 O223 1.257 . S
O225 Eu205 2.326 . S
O225 C213 1.242 . S
O226 Tb204 2.324 . S
O226 C213 1.258 . S
O227 Eu205 2.500 . S
O227 C210 1.273 . S
O228 Eu205 2.473 . S
O228 C210 1.257 . S
H229 C215 0.929 . S
H230 C217 0.931 . S
H231 C219 0.929 . S
O232 Tb233 2.292 1_556 S
O232 C235 1.255 . S
Tb233 O232 2.292 1_554 S
Tb233 O249 2.326 . S
Tb233 O251 2.500 . S
Tb233 O252 2.473 . S
Tb233 O255 2.324 . S
Eu234 O238 2.292 . S
Eu234 C239 2.852 . S
Eu234 O250 2.324 . S
Eu234 O254 2.326 . S
Eu234 O256 2.500 . S
Eu234 O257 2.473 . S
C235 O232 1.255 . S
C235 O236 1.247 . S
O236 C235 1.247 . S
C237 O249 1.242 . S
C237 O250 1.258 . S
O238 Eu234 2.292 . S
O238 C240 1.255 . S
C239 Eu234 2.852 . S
C239 C243 1.503 . S
C239 O256 1.273 . S
C239 O257 1.257 . S
C240 O238 1.255 . S
C240 O241 1.247 . S
O241 C240 1.247 . S
C242 O254 1.242 . S
C242 O255 1.258 . S
C243 C239 1.503 . S
C243 C244 1.379 . S
C243 C248 1.392 . S
C244 C243 1.379 . S
C244 C245 1.404 . S
C244 H258 0.929 . S
C245 C244 1.404 . S
C245 C246 1.389 . S
C246 C245 1.389 . S
C246 C247 1.399 . S
C246 H259 0.931 . S
C247 C246 1.399 . S
C247 C248 1.390 . S
C248 C243 1.392 . S
C248 C247 1.390 . S
C248 H260 0.929 . S
O249 Tb233 2.326 . S
O249 C237 1.242 . S
O250 Eu234 2.324 . S
O250 C237 1.258 . S
O251 Tb233 2.500 . S
O251 C253 1.273 . S
O252 Tb233 2.473 . S
O252 C253 1.257 . S
C253 O251 1.273 . S
C253 O252 1.257 . S
O254 Eu234 2.326 . S
O254 C242 1.242 . S
O255 Tb233 2.324 . S
O255 C242 1.258 . S
O256 Eu234 2.500 . S
O256 C239 1.273 . S
O257 Eu234 2.473 . S
O257 C239 1.257 . S
H258 C244 0.929 . S
H259 C246 0.931 . S
H260 C248 0.929 . S
O261 Tb262 2.292 . S
O261 C264 1.255 . S
Tb262 O261 2.292 . S
Tb262 O278 2.326 . S
Tb262 O280 2.500 . S
Tb262 O281 2.473 . S
Tb262 O284 2.324 . S
Eu263 O267 2.292 . S
Eu263 C268 2.852 . S
Eu263 O279 2.324 . S
Eu263 O283 2.326 . S
Eu263 O285 2.500 . S
Eu263 O286 2.473 . S
C264 O261 1.255 . S
C264 O265 1.247 . S
O265 C264 1.247 . S
C266 O278 1.242 . S
C266 O279 1.258 . S
O267 Eu263 2.292 . S
O267 C269 1.255 . S
C268 Eu263 2.852 . S
C268 C272 1.503 . S
C268 O285 1.273 . S
C268 O286 1.257 . S
C269 O267 1.255 . S
C269 O270 1.247 . S
O270 C269 1.247 . S
C271 O283 1.242 . S
C271 O284 1.258 . S
C272 C268 1.503 . S
C272 C273 1.379 . S
C272 C277 1.392 . S
C273 C272 1.379 . S
C273 C274 1.404 . S
C273 H287 0.929 . S
C274 C273 1.404 . S
C274 C275 1.389 . S
C275 C274 1.389 . S
C275 C276 1.399 . S
C275 H288 0.931 . S
C276 C275 1.399 . S
C276 C277 1.390 . S
C277 C272 1.392 . S
C277 C276 1.390 . S
C277 H289 0.929 . S
O278 Tb262 2.326 . S
O278 C266 1.242 . S
O279 Eu263 2.324 . S
O279 C266 1.258 . S
O280 Tb262 2.500 . S
O280 C282 1.273 . S
O281 Tb262 2.473 . S
O281 C282 1.257 . S
C282 O280 1.273 . S
C282 O281 1.257 . S
O283 Eu263 2.326 . S
O283 C271 1.242 . S
O284 Tb262 2.324 . S
O284 C271 1.258 . S
O285 Eu263 2.500 . S
O285 C268 1.273 . S
O286 Eu263 2.473 . S
O286 C268 1.257 . S
H287 C273 0.929 . S
H288 C275 0.931 . S
H289 C277 0.929 . S
O290 Tb291 2.292 . S
O290 C293 1.255 . S
Tb291 O290 2.292 . S
Tb291 O307 2.326 . S
Tb291 O309 2.500 . S
Tb291 O310 2.473 . S
Tb291 O313 2.324 . S
Eu292 O296 2.292 . S
Eu292 C297 2.852 . S
Eu292 O308 2.324 . S
Eu292 O312 2.326 . S
Eu292 O314 2.500 . S
Eu292 O315 2.473 . S
C293 O290 1.255 . S
C293 O294 1.247 . S
O294 C293 1.247 . S
C295 O307 1.242 . S
C295 O308 1.258 . S
O296 Eu292 2.292 . S
O296 C298 1.255 . S
C297 Eu292 2.852 . S
C297 C301 1.503 . S
C297 O314 1.273 . S
C297 O315 1.257 . S
C298 O296 1.255 . S
C298 O299 1.247 . S
O299 C298 1.247 . S
C300 O312 1.242 . S
C300 O313 1.258 . S
C301 C297 1.503 . S
C301 C302 1.379 . S
C301 C306 1.392 . S
C302 C301 1.379 . S
C302 C303 1.404 1_655 S
C302 H316 0.929 . S
C303 C302 1.404 1_455 S
C303 C304 1.389 . S
C304 C303 1.389 . S
C304 C305 1.388 1_455 S
C304 H317 0.931 . S
C305 C304 1.388 1_655 S
C305 C306 1.408 . S
C306 C301 1.392 . S
C306 C305 1.408 . S
C306 H318 0.929 . S
O307 Tb291 2.326 . S
O307 C295 1.242 . S
O308 Eu292 2.324 . S
O308 C295 1.258 . S
O309 Tb291 2.500 . S
O309 C311 1.273 . S
O310 Tb291 2.473 . S
O310 C311 1.257 . S
C311 O309 1.273 . S
C311 O310 1.257 . S
O312 Eu292 2.326 . S
O312 C300 1.242 . S
O313 Tb291 2.324 . S
O313 C300 1.258 . S
O314 Eu292 2.500 . S
O314 C297 1.273 . S
O315 Eu292 2.473 . S
O315 C297 1.257 . S
H316 C302 0.929 . S
H317 C304 0.931 . S
H318 C306 0.929 . S
O319 Tb320 2.292 1_556 S
O319 C322 1.255 . S
Tb320 O319 2.292 1_554 S
Tb320 O336 2.326 . S
Tb320 O338 2.500 . S
Tb320 O339 2.473 . S
Tb320 O342 2.324 . S
Eu321 O325 2.292 . S
Eu321 C326 2.852 . S
Eu321 O337 2.324 . S
Eu321 O341 2.326 . S
Eu321 O343 2.500 . S
Eu321 O344 2.473 . S
C322 O319 1.255 . S
C322 O323 1.247 . S
O323 C322 1.247 . S
C324 O336 1.242 . S
C324 O337 1.258 . S
O325 Eu321 2.292 . S
O325 C327 1.255 . S
C326 Eu321 2.852 . S
C326 C330 1.503 . S
C326 O343 1.273 . S
C326 O344 1.257 . S
C327 O325 1.255 . S
C327 O328 1.247 . S
O328 C327 1.247 . S
C329 O341 1.242 . S
C329 O342 1.258 . S
C330 C326 1.503 . S
C330 C331 1.379 . S
C330 C335 1.392 . S
C331 C330 1.379 . S
C331 C332 1.404 1_655 S
C331 H345 0.929 . S
C332 C331 1.404 1_455 S
C332 C333 1.389 . S
C333 C332 1.389 . S
C333 C334 1.388 1_455 S
C333 H346 0.931 . S
C334 C333 1.388 1_655 S
C334 C335 1.408 . S
C335 C330 1.392 . S
C335 C334 1.408 . S
C335 H347 0.929 . S
O336 Tb320 2.326 . S
O336 C324 1.242 . S
O337 Eu321 2.324 . S
O337 C324 1.258 . S
O338 Tb320 2.500 . S
O338 C340 1.273 . S
O339 Tb320 2.473 . S
O339 C340 1.257 . S
C340 O338 1.273 . S
C340 O339 1.257 . S
O341 Eu321 2.326 . S
O341 C329 1.242 . S
O342 Tb320 2.324 . S
O342 C329 1.258 . S
O343 Eu321 2.500 . S
O343 C326 1.273 . S
O344 Eu321 2.473 . S
O344 C326 1.257 . S
H345 C331 0.929 . S
H346 C333 0.931 . S
H347 C335 0.929 . S
O348 Tb349 2.292 1_455 S
O348 C351 1.255 . S
Tb349 O348 2.292 1_655 S
Tb349 O365 2.326 . S
Tb349 O367 2.500 . S
Tb349 O368 2.473 . S
Tb349 O371 2.324 . S
Eu350 O354 2.292 . S
Eu350 C355 2.852 . S
Eu350 O366 2.324 . S
Eu350 O370 2.326 . S
Eu350 O372 2.500 . S
Eu350 O373 2.473 . S
C351 O348 1.255 . S
C351 O352 1.247 . S
O352 C351 1.247 . S
C353 O365 1.242 . S
C353 O366 1.258 . S
O354 Eu350 2.292 . S
O354 C356 1.255 . S
C355 Eu350 2.852 . S
C355 C359 1.503 . S
C355 O372 1.273 . S
C355 O373 1.257 . S
C356 O354 1.255 . S
C356 O357 1.247 . S
O357 C356 1.247 . S
C358 O370 1.242 . S
C358 O371 1.258 . S
C359 C355 1.503 . S
C359 C360 1.379 . S
C359 C364 1.392 . S
C360 C359 1.379 . S
C360 C361 1.404 . S
C360 H374 0.929 . S
C361 C360 1.404 . S
C361 C362 1.389 . S
C362 C361 1.389 . S
C362 C363 1.399 . S
C362 H375 0.931 . S
C363 C362 1.399 . S
C363 C364 1.390 . S
C364 C359 1.392 . S
C364 C363 1.390 . S
C364 H376 0.929 . S
O365 Tb349 2.326 . S
O365 C353 1.242 . S
O366 Eu350 2.324 . S
O366 C353 1.258 . S
O367 Tb349 2.500 . S
O367 C369 1.273 . S
O368 Tb349 2.473 . S
O368 C369 1.257 . S
C369 O367 1.273 . S
C369 O368 1.257 . S
O370 Eu350 2.326 . S
O370 C358 1.242 . S
O371 Tb349 2.324 . S
O371 C358 1.258 . S
O372 Eu350 2.500 . S
O372 C355 1.273 . S
O373 Eu350 2.473 . S
O373 C355 1.257 . S
H374 C360 0.929 . S
H375 C362 0.931 . S
H376 C364 0.929 . S
O377 Tb378 2.292 . S
O377 C380 1.255 . S
Tb378 O377 2.292 . S
Tb378 O394 2.326 . S
Tb378 O396 2.500 . S
Tb378 O397 2.473 . S
Tb378 O400 2.324 . S
Eu379 O383 2.292 . S
Eu379 C384 2.852 . S
Eu379 O395 2.324 . S
Eu379 O399 2.326 . S
Eu379 O401 2.500 . S
Eu379 O402 2.473 . S
C380 O377 1.255 . S
C380 O381 1.247 . S
O381 C380 1.247 . S
C382 O394 1.242 . S
C382 O395 1.258 . S
O383 Eu379 2.292 . S
O383 C385 1.255 . S
C384 Eu379 2.852 . S
C384 C388 1.503 . S
C384 O401 1.273 . S
C384 O402 1.257 . S
C385 O383 1.255 . S
C385 O386 1.247 . S
O386 C385 1.247 . S
C387 O399 1.242 . S
C387 O400 1.258 . S
C388 C384 1.503 . S
C388 C389 1.379 . S
C388 C393 1.392 . S
C389 C388 1.379 . S
C389 C390 1.404 1_545 S
C389 H403 0.929 . S
C390 C389 1.404 1_565 S
C390 C391 1.389 . S
C391 C390 1.389 . S
C391 C392 1.388 1_565 S
C391 H404 0.931 . S
C392 C391 1.388 1_545 S
C392 C393 1.408 . S
C393 C388 1.392 . S
C393 C392 1.408 . S
C393 H405 0.929 . S
O394 Tb378 2.326 . S
O394 C382 1.242 . S
O395 Eu379 2.324 . S
O395 C382 1.258 . S
O396 Tb378 2.500 . S
O396 C398 1.273 . S
O397 Tb378 2.473 . S
O397 C398 1.257 . S
C398 O396 1.273 . S
C398 O397 1.257 . S
O399 Eu379 2.326 . S
O399 C387 1.242 . S
O400 Tb378 2.324 . S
O400 C387 1.258 . S
O401 Eu379 2.500 . S
O401 C384 1.273 . S
O402 Eu379 2.473 . S
O402 C384 1.257 . S
H403 C389 0.929 . S
H404 C391 0.931 . S
H405 C393 0.929 . S
O406 Tb407 2.292 1_455 S
O406 C409 1.255 . S
Tb407 O406 2.292 1_655 S
Tb407 O423 2.326 . S
Tb407 O425 2.500 . S
Tb407 O426 2.473 . S
Tb407 O429 2.324 . S
Eu408 O412 2.292 . S
Eu408 C413 2.852 . S
Eu408 O424 2.324 . S
Eu408 O428 2.326 . S
Eu408 O430 2.500 . S
Eu408 O431 2.473 . S
C409 O406 1.255 . S
C409 O410 1.247 . S
O410 C409 1.247 . S
C411 O423 1.242 . S
C411 O424 1.258 . S
O412 Eu408 2.292 . S
O412 C414 1.255 . S
C413 Eu408 2.852 . S
C413 C417 1.503 . S
C413 O430 1.273 . S
C413 O431 1.257 . S
C414 O412 1.255 . S
C414 O415 1.247 . S
O415 C414 1.247 . S
C416 O428 1.242 . S
C416 O429 1.258 . S
C417 C413 1.503 . S
C417 C418 1.379 . S
C417 C422 1.392 . S
C418 C417 1.379 . S
C418 C419 1.404 1_545 S
C418 H432 0.929 . S
C419 C418 1.404 1_565 S
C419 C420 1.389 . S
C420 C419 1.389 . S
C420 C421 1.388 1_565 S
C420 H433 0.931 . S
C421 C420 1.388 1_545 S
C421 C422 1.408 . S
C422 C417 1.392 . S
C422 C421 1.408 . S
C422 H434 0.929 . S
O423 Tb407 2.326 . S
O423 C411 1.242 . S
O424 Eu408 2.324 . S
O424 C411 1.258 . S
O425 Tb407 2.500 . S
O425 C427 1.273 . S
O426 Tb407 2.473 . S
O426 C427 1.257 . S
C427 O425 1.273 . S
C427 O426 1.257 . S
O428 Eu408 2.326 . S
O428 C416 1.242 . S
O429 Tb407 2.324 . S
O429 C416 1.258 . S
O430 Eu408 2.500 . S
O430 C413 1.273 . S
O431 Eu408 2.473 . S
O431 C413 1.257 . S
H432 C418 0.929 . S
H433 C420 0.931 . S
H434 C422 0.929 . S
O435 Tb436 2.292 . S
O435 C438 1.255 . S
Tb436 O435 2.292 . S
Tb436 O452 2.326 . S
Tb436 O454 2.500 . S
Tb436 O455 2.473 . S
Tb436 O458 2.324 . S
Eu437 O441 2.292 . S
Eu437 C442 2.852 . S
Eu437 O453 2.324 . S
Eu437 O457 2.326 . S
Eu437 O459 2.500 . S
Eu437 O460 2.473 . S
C438 O435 1.255 . S
C438 O439 1.247 . S
O439 C438 1.247 . S
C440 O452 1.242 . S
C440 O453 1.258 . S
O441 Eu437 2.292 . S
O441 C443 1.255 . S
C442 Eu437 2.852 . S
C442 C446 1.503 . S
C442 O459 1.273 . S
C442 O460 1.257 . S
C443 O441 1.255 . S
C443 O444 1.247 . S
O444 C443 1.247 . S
C445 O457 1.242 . S
C445 O458 1.258 . S
C446 C442 1.503 . S
C446 C447 1.379 . S
C446 C451 1.392 . S
C447 C446 1.379 . S
C447 C448 1.404 . S
C447 H461 0.929 . S
C448 C447 1.404 . S
C448 C449 1.389 . S
C449 C448 1.389 . S
C449 C450 1.399 . S
C449 H462 0.931 . S
C450 C449 1.399 . S
C450 C451 1.390 . S
C451 C446 1.392 . S
C451 C450 1.390 . S
C451 H463 0.929 . S
O452 Tb436 2.326 . S
O452 C440 1.242 . S
O453 Eu437 2.324 . S
O453 C440 1.258 . S
O454 Tb436 2.500 . S
O454 C456 1.273 . S
O455 Tb436 2.473 . S
O455 C456 1.257 . S
C456 O454 1.273 . S
C456 O455 1.257 . S
O457 Eu437 2.326 . S
O457 C445 1.242 . S
O458 Tb436 2.324 . S
O458 C445 1.258 . S
O459 Eu437 2.500 . S
O459 C442 1.273 . S
O460 Eu437 2.473 . S
O460 C442 1.257 . S
H461 C447 0.929 . S
H462 C449 0.931 . S
H463 C451 0.929 . S
O464 Tb465 2.292 1_545 S
O464 C467 1.255 . S
Tb465 O464 2.292 1_565 S
Tb465 O481 2.326 . S
Tb465 O483 2.500 . S
Tb465 O484 2.473 . S
Tb465 O487 2.324 . S
Eu466 O470 2.292 . S
Eu466 C471 2.852 . S
Eu466 O482 2.324 . S
Eu466 O486 2.326 . S
Eu466 O488 2.500 . S
Eu466 O489 2.473 . S
C467 O464 1.255 . S
C467 O468 1.247 . S
O468 C467 1.247 . S
C469 O481 1.242 . S
C469 O482 1.258 . S
O470 Eu466 2.292 . S
O470 C472 1.255 . S
C471 Eu466 2.852 . S
C471 C475 1.503 . S
C471 O488 1.273 . S
C471 O489 1.257 . S
C472 O470 1.255 . S
C472 O473 1.247 . S
O473 C472 1.247 . S
C474 O486 1.242 . S
C474 O487 1.258 . S
C475 C471 1.503 . S
C475 C476 1.379 . S
C475 C480 1.392 . S
C476 C475 1.379 . S
C476 C477 1.404 . S
C476 H490 0.929 . S
C477 C476 1.404 . S
C477 C478 1.389 . S
C478 C477 1.389 . S
C478 C479 1.399 . S
C478 H491 0.931 . S
C479 C478 1.399 . S
C479 C480 1.390 . S
C480 C475 1.392 . S
C480 C479 1.390 . S
C480 H492 0.929 . S
O481 Tb465 2.326 . S
O481 C469 1.242 . S
O482 Eu466 2.324 . S
O482 C469 1.258 . S
O483 Tb465 2.500 . S
O483 C485 1.273 . S
O484 Tb465 2.473 . S
O484 C485 1.257 . S
C485 O483 1.273 . S
C485 O484 1.257 . S
O486 Eu466 2.326 . S
O486 C474 1.242 . S
O487 Tb465 2.324 . S
O487 C474 1.258 . S
O488 Eu466 2.500 . S
O488 C471 1.273 . S
O489 Eu466 2.473 . S
O489 C471 1.257 . S
H490 C476 0.929 . S
H491 C478 0.931 . S
H492 C480 0.929 . S
O493 Tb494 2.292 . S
O493 C496 1.255 . S
Tb494 O493 2.292 . S
Tb494 O510 2.326 . S
Tb494 O512 2.500 . S
Tb494 O513 2.473 . S
Tb494 O516 2.324 . S
Eu495 O499 2.292 . S
Eu495 C500 2.852 . S
Eu495 O511 2.324 . S
Eu495 O515 2.326 . S
Eu495 O517 2.500 . S
Eu495 O518 2.473 . S
C496 O493 1.255 . S
C496 O497 1.247 . S
O497 C496 1.247 . S
C498 O510 1.242 . S
C498 O511 1.258 . S
O499 Eu495 2.292 . S
O499 C501 1.255 . S
C500 Eu495 2.852 . S
C500 C504 1.503 . S
C500 O517 1.273 . S
C500 O518 1.257 . S
C501 O499 1.255 . S
C501 O502 1.247 . S
O502 C501 1.247 . S
C503 O515 1.242 . S
C503 O516 1.258 . S
C504 C500 1.503 . S
C504 C505 1.379 . S
C504 C509 1.392 . S
C505 C504 1.379 . S
C505 C506 1.404 . S
C505 H519 0.929 . S
C506 C505 1.404 . S
C506 C507 1.389 . S
C507 C506 1.389 . S
C507 C508 1.399 . S
C507 H520 0.931 . S
C508 C507 1.399 . S
C508 C509 1.390 . S
C509 C504 1.392 . S
C509 C508 1.390 . S
C509 H521 0.929 . S
O510 Tb494 2.326 . S
O510 C498 1.242 . S
O511 Eu495 2.324 . S
O511 C498 1.258 . S
O512 Tb494 2.500 . S
O512 C514 1.273 . S
O513 Tb494 2.473 . S
O513 C514 1.257 . S
C514 O512 1.273 . S
C514 O513 1.257 . S
O515 Eu495 2.326 . S
O515 C503 1.242 . S
O516 Tb494 2.324 . S
O516 C503 1.258 . S
O517 Eu495 2.500 . S
O517 C500 1.273 . S
O518 Eu495 2.473 . S
O518 C500 1.257 . S
H519 C505 0.929 . S
H520 C507 0.931 . S
H521 C509 0.929 . S
O522 Tb523 2.292 . S
O522 C525 1.255 . S
Tb523 O522 2.292 . S
Tb523 O539 2.326 . S
Tb523 O541 2.500 . S
Tb523 O542 2.473 . S
Tb523 O545 2.324 . S
Eu524 O528 2.292 . S
Eu524 C529 2.852 . S
Eu524 O540 2.324 . S
Eu524 O544 2.326 . S
Eu524 O546 2.500 . S
Eu524 O547 2.473 . S
C525 O522 1.255 . S
C525 O526 1.247 . S
O526 C525 1.247 . S
C527 O539 1.242 . S
C527 O540 1.258 . S
O528 Eu524 2.292 . S
O528 C530 1.255 . S
C529 Eu524 2.852 . S
C529 C533 1.503 . S
C529 O546 1.273 . S
C529 O547 1.257 . S
C530 O528 1.255 . S
C530 O531 1.247 . S
O531 C530 1.247 . S
C532 O544 1.242 . S
C532 O545 1.258 . S
C533 C529 1.503 . S
C533 C534 1.379 . S
C533 C538 1.392 . S
C534 C533 1.379 . S
C534 C535 1.404 1_554 S
C534 H548 0.929 . S
C535 C534 1.404 1_556 S
C535 C536 1.389 . S
C536 C535 1.389 . S
C536 C537 1.388 1_556 S
C536 H549 0.931 . S
C537 C536 1.388 1_554 S
C537 C538 1.408 . S
C538 C533 1.392 . S
C538 C537 1.408 . S
C538 H550 0.929 . S
O539 Tb523 2.326 . S
O539 C527 1.242 . S
O540 Eu524 2.324 . S
O540 C527 1.258 . S
O541 Tb523 2.500 . S
O541 C543 1.273 . S
O542 Tb523 2.473 . S
O542 C543 1.257 . S
C543 O541 1.273 . S
C543 O542 1.257 . S
O544 Eu524 2.326 . S
O544 C532 1.242 . S
O545 Tb523 2.324 . S
O545 C532 1.258 . S
O546 Eu524 2.500 . S
O546 C529 1.273 . S
O547 Eu524 2.473 . S
O547 C529 1.257 . S
H548 C534 0.929 . S
H549 C536 0.931 . S
H550 C538 0.929 . S
O551 Tb552 2.292 1_545 S
O551 C554 1.255 . S
Tb552 O551 2.292 1_565 S
Tb552 O568 2.326 . S
Tb552 O570 2.500 . S
Tb552 O571 2.473 . S
Tb552 O574 2.324 . S
Eu553 O557 2.292 . S
Eu553 C558 2.852 . S
Eu553 O569 2.324 . S
Eu553 O573 2.326 . S
Eu553 O575 2.500 . S
Eu553 O576 2.473 . S
C554 O551 1.255 . S
C554 O555 1.247 . S
O555 C554 1.247 . S
C556 O568 1.242 . S
C556 O569 1.258 . S
O557 Eu553 2.292 . S
O557 C559 1.255 . S
C558 Eu553 2.852 . S
C558 C562 1.503 . S
C558 O575 1.273 . S
C558 O576 1.257 . S
C559 O557 1.255 . S
C559 O560 1.247 . S
O560 C559 1.247 . S
C561 O573 1.242 . S
C561 O574 1.258 . S
C562 C558 1.503 . S
C562 C563 1.379 . S
C562 C567 1.392 . S
C563 C562 1.379 . S
C563 C564 1.404 1_554 S
C563 H577 0.929 . S
C564 C563 1.404 1_556 S
C564 C565 1.389 . S
C565 C564 1.389 . S
C565 C566 1.388 1_556 S
C565 H578 0.931 . S
C566 C565 1.388 1_554 S
C566 C567 1.408 . S
C567 C562 1.392 . S
C567 C566 1.408 . S
C567 H579 0.929 . S
O568 Tb552 2.326 . S
O568 C556 1.242 . S
O569 Eu553 2.324 . S
O569 C556 1.258 . S
O570 Tb552 2.500 . S
O570 C572 1.273 . S
O571 Tb552 2.473 . S
O571 C572 1.257 . S
C572 O570 1.273 . S
C572 O571 1.257 . S
O573 Eu553 2.326 . S
O573 C561 1.242 . S
O574 Tb552 2.324 . S
O574 C561 1.258 . S
O575 Eu553 2.500 . S
O575 C558 1.273 . S
O576 Eu553 2.473 . S
O576 C558 1.257 . S
H577 C563 0.929 . S
H578 C565 0.931 . S
H579 C567 0.929 . S
O580 Tb581 2.292 1_554 S
O580 C583 1.255 . S
Tb581 O580 2.292 1_556 S
Tb581 O597 2.326 . S
Tb581 O599 2.500 . S
Tb581 O600 2.473 . S
Tb581 O603 2.324 . S
Eu582 O586 2.292 . S
Eu582 C587 2.852 . S
Eu582 O598 2.324 . S
Eu582 O602 2.326 . S
Eu582 O604 2.500 . S
Eu582 O605 2.473 . S
C583 O580 1.255 . S
C583 O584 1.247 . S
O584 C583 1.247 . S
C585 O597 1.242 . S
C585 O598 1.258 . S
O586 Eu582 2.292 . S
O586 C588 1.255 . S
C587 Eu582 2.852 . S
C587 C591 1.503 . S
C587 O604 1.273 . S
C587 O605 1.257 . S
C588 O586 1.255 . S
C588 O589 1.247 . S
O589 C588 1.247 . S
C590 O602 1.242 . S
C590 O603 1.258 . S
C591 C587 1.503 . S
C591 C592 1.379 . S
C591 C596 1.392 . S
C592 C591 1.379 . S
C592 C593 1.404 . S
C592 H606 0.929 . S
C593 C592 1.404 . S
C593 C594 1.389 . S
C594 C593 1.389 . S
C594 C595 1.399 . S
C594 H607 0.931 . S
C595 C594 1.399 . S
C595 C596 1.390 . S
C596 C591 1.392 . S
C596 C595 1.390 . S
C596 H608 0.929 . S
O597 Tb581 2.326 . S
O597 C585 1.242 . S
O598 Eu582 2.324 . S
O598 C585 1.258 . S
O599 Tb581 2.500 . S
O599 C601 1.273 . S
O600 Tb581 2.473 . S
O600 C601 1.257 . S
C601 O599 1.273 . S
C601 O600 1.257 . S
O602 Eu582 2.326 . S
O602 C590 1.242 . S
O603 Tb581 2.324 . S
O603 C590 1.258 . S
O604 Eu582 2.500 . S
O604 C587 1.273 . S
O605 Eu582 2.473 . S
O605 C587 1.257 . S
H606 C592 0.929 . S
H607 C594 0.931 . S
H608 C596 0.929 . S
O609 Tb610 2.292 . S
O609 C612 1.255 . S
Tb610 O609 2.292 . S
Tb610 O626 2.326 . S
Tb610 O628 2.500 . S
Tb610 O629 2.473 . S
Tb610 O632 2.324 . S
Eu611 O615 2.292 . S
Eu611 C616 2.852 . S
Eu611 O627 2.324 . S
Eu611 O631 2.326 . S
Eu611 O633 2.500 . S
Eu611 O634 2.473 . S
C612 O609 1.255 . S
C612 O613 1.247 . S
O613 C612 1.247 . S
C614 O626 1.242 . S
C614 O627 1.258 . S
O615 Eu611 2.292 . S
O615 C617 1.255 . S
C616 Eu611 2.852 . S
C616 C620 1.503 . S
C616 O633 1.273 . S
C616 O634 1.257 . S
C617 O615 1.255 . S
C617 O618 1.247 . S
O618 C617 1.247 . S
C619 O631 1.242 . S
C619 O632 1.258 . S
C620 C616 1.503 . S
C620 C621 1.379 . S
C620 C625 1.392 . S
C621 C620 1.379 . S
C621 C622 1.404 . S
C621 H635 0.929 . S
C622 C621 1.404 . S
C622 C623 1.389 . S
C623 C622 1.389 . S
C623 C624 1.399 . S
C623 H636 0.931 . S
C624 C623 1.399 . S
C624 C625 1.390 . S
C625 C620 1.392 . S
C625 C624 1.390 . S
C625 H637 0.929 . S
O626 Tb610 2.326 . S
O626 C614 1.242 . S
O627 Eu611 2.324 . S
O627 C614 1.258 . S
O628 Tb610 2.500 . S
O628 C630 1.273 . S
O629 Tb610 2.473 . S
O629 C630 1.257 . S
C630 O628 1.273 . S
C630 O629 1.257 . S
O631 Eu611 2.326 . S
O631 C619 1.242 . S
O632 Tb610 2.324 . S
O632 C619 1.258 . S
O633 Eu611 2.500 . S
O633 C616 1.273 . S
O634 Eu611 2.473 . S
O634 C616 1.257 . S
H635 C621 0.929 . S
H636 C623 0.931 . S
H637 C625 0.929 . S
O638 Tb639 2.292 . S
O638 C641 1.255 . S
Tb639 O638 2.292 . S
Tb639 O655 2.326 . S
Tb639 O657 2.500 . S
Tb639 O658 2.473 . S
Tb639 O661 2.324 . S
Eu640 O644 2.292 . S
Eu640 C645 2.852 . S
Eu640 O656 2.324 . S
Eu640 O660 2.326 . S
Eu640 O662 2.500 . S
Eu640 O663 2.473 . S
C641 O638 1.255 . S
C641 O642 1.247 . S
O642 C641 1.247 . S
C643 O655 1.242 . S
C643 O656 1.258 . S
O644 Eu640 2.292 . S
O644 C646 1.255 . S
C645 Eu640 2.852 . S
C645 C649 1.503 . S
C645 O662 1.273 . S
C645 O663 1.257 . S
C646 O644 1.255 . S
C646 O647 1.247 . S
O647 C646 1.247 . S
C648 O660 1.242 . S
C648 O661 1.258 . S
C649 C645 1.503 . S
C649 C650 1.379 . S
C649 C654 1.392 . S
C650 C649 1.379 . S
C650 C651 1.404 1_455 S
C650 H664 0.929 . S
C651 C650 1.404 1_655 S
C651 C652 1.389 . S
C652 C651 1.389 . S
C652 C653 1.388 1_655 S
C652 H665 0.931 . S
C653 C652 1.388 1_455 S
C653 C654 1.408 . S
C654 C649 1.392 . S
C654 C653 1.408 . S
C654 H666 0.929 . S
O655 Tb639 2.326 . S
O655 C643 1.242 . S
O656 Eu640 2.324 . S
O656 C643 1.258 . S
O657 Tb639 2.500 . S
O657 C659 1.273 . S
O658 Tb639 2.473 . S
O658 C659 1.257 . S
C659 O657 1.273 . S
C659 O658 1.257 . S
O660 Eu640 2.326 . S
O660 C648 1.242 . S
O661 Tb639 2.324 . S
O661 C648 1.258 . S
O662 Eu640 2.500 . S
O662 C645 1.273 . S
O663 Eu640 2.473 . S
O663 C645 1.257 . S
H664 C650 0.929 . S
H665 C652 0.931 . S
H666 C654 0.929 . S
O667 Tb668 2.292 1_554 S
O667 C670 1.255 . S
Tb668 O667 2.292 1_556 S
Tb668 O684 2.326 . S
Tb668 O686 2.500 . S
Tb668 O687 2.473 . S
Tb668 O690 2.324 . S
Eu669 O673 2.292 . S
Eu669 C674 2.852 . S
Eu669 O685 2.324 . S
Eu669 O689 2.326 . S
Eu669 O691 2.500 . S
Eu669 O692 2.473 . S
C670 O667 1.255 . S
C670 O671 1.247 . S
O671 C670 1.247 . S
C672 O684 1.242 . S
C672 O685 1.258 . S
O673 Eu669 2.292 . S
O673 C675 1.255 . S
C674 Eu669 2.852 . S
C674 C678 1.503 . S
C674 O691 1.273 . S
C674 O692 1.257 . S
C675 O673 1.255 . S
C675 O676 1.247 . S
O676 C675 1.247 . S
C677 O689 1.242 . S
C677 O690 1.258 . S
C678 C674 1.503 . S
C678 C679 1.379 . S
C678 C683 1.392 . S
C679 C678 1.379 . S
C679 C680 1.404 1_455 S
C679 H693 0.929 . S
C680 C679 1.404 1_655 S
C680 C681 1.389 . S
C681 C680 1.389 . S
C681 C682 1.388 1_655 S
C681 H694 0.931 . S
C682 C681 1.388 1_455 S
C682 C683 1.408 . S
C683 C678 1.392 . S
C683 C682 1.408 . S
C683 H695 0.929 . S
O684 Tb668 2.326 . S
O684 C672 1.242 . S
O685 Eu669 2.324 . S
O685 C672 1.258 . S
O686 Tb668 2.500 . S
O686 C688 1.273 . S
O687 Tb668 2.473 . S
O687 C688 1.257 . S
C688 O686 1.273 . S
C688 O687 1.257 . S
O689 Eu669 2.326 . S
O689 C677 1.242 . S
O690 Tb668 2.324 . S
O690 C677 1.258 . S
O691 Eu669 2.500 . S
O691 C674 1.273 . S
O692 Eu669 2.473 . S
O692 C674 1.257 . S
H693 C679 0.929 . S
H694 C681 0.931 . S
H695 C683 0.929 . S
O696 Tb697 2.292 1_655 S
O696 C699 1.255 . S
Tb697 O696 2.292 1_455 S
Tb697 O713 2.326 . S
Tb697 O715 2.500 . S
Tb697 O716 2.473 . S
Tb697 O719 2.324 . S
Eu698 O702 2.292 . S
Eu698 C703 2.852 . S
Eu698 O714 2.324 . S
Eu698 O718 2.326 . S
Eu698 O720 2.500 . S
Eu698 O721 2.473 . S
C699 O696 1.255 . S
C699 O700 1.247 . S
O700 C699 1.247 . S
C701 O713 1.242 . S
C701 O714 1.258 . S
O702 Eu698 2.292 . S
O702 C704 1.255 . S
C703 Eu698 2.852 . S
C703 C707 1.503 . S
C703 O720 1.273 . S
C703 O721 1.257 . S
C704 O702 1.255 . S
C704 O705 1.247 . S
O705 C704 1.247 . S
C706 O718 1.242 . S
C706 O719 1.258 . S
C707 C703 1.503 . S
C707 C708 1.379 . S
C707 C712 1.392 . S
C708 C707 1.379 . S
C708 C709 1.404 . S
C708 H722 0.929 . S
C709 C708 1.404 . S
C709 C710 1.389 . S
C710 C709 1.389 . S
C710 C711 1.399 . S
C710 H723 0.931 . S
C711 C710 1.399 . S
C711 C712 1.390 . S
C712 C707 1.392 . S
C712 C711 1.390 . S
C712 H724 0.929 . S
O713 Tb697 2.326 . S
O713 C701 1.242 . S
O714 Eu698 2.324 . S
O714 C701 1.258 . S
O715 Tb697 2.500 . S
O715 C717 1.273 . S
O716 Tb697 2.473 . S
O716 C717 1.257 . S
C717 O715 1.273 . S
C717 O716 1.257 . S
O718 Eu698 2.326 . S
O718 C706 1.242 . S
O719 Tb697 2.324 . S
O719 C706 1.258 . S
O720 Eu698 2.500 . S
O720 C703 1.273 . S
O721 Eu698 2.473 . S
O721 C703 1.257 . S
H722 C708 0.929 . S
H723 C710 0.931 . S
H724 C712 0.929 . S
O725 Tb726 2.292 . S
O725 C728 1.255 . S
Tb726 O725 2.292 . S
Tb726 O742 2.326 . S
Tb726 O744 2.500 . S
Tb726 O745 2.473 . S
Tb726 O748 2.324 . S
Eu727 O731 2.292 . S
Eu727 C732 2.852 . S
Eu727 O743 2.324 . S
Eu727 O747 2.326 . S
Eu727 O749 2.500 . S
Eu727 O750 2.473 . S
C728 O725 1.255 . S
C728 O729 1.247 . S
O729 C728 1.247 . S
C730 O742 1.242 . S
C730 O743 1.258 . S
O731 Eu727 2.292 . S
O731 C733 1.255 . S
C732 Eu727 2.852 . S
C732 C736 1.503 . S
C732 O749 1.273 . S
C732 O750 1.257 . S
C733 O731 1.255 . S
C733 O734 1.247 . S
O734 C733 1.247 . S
C735 O747 1.242 . S
C735 O748 1.258 . S
C736 C732 1.503 . S
C736 C737 1.379 . S
C736 C741 1.392 . S
C737 C736 1.379 . S
C737 C738 1.404 . S
C737 H751 0.929 . S
C738 C737 1.404 . S
C738 C739 1.389 . S
C739 C738 1.389 . S
C739 C740 1.399 . S
C739 H752 0.931 . S
C740 C739 1.399 . S
C740 C741 1.390 . S
C741 C736 1.392 . S
C741 C740 1.390 . S
C741 H753 0.929 . S
O742 Tb726 2.326 . S
O742 C730 1.242 . S
O743 Eu727 2.324 . S
O743 C730 1.258 . S
O744 Tb726 2.500 . S
O744 C746 1.273 . S
O745 Tb726 2.473 . S
O745 C746 1.257 . S
C746 O744 1.273 . S
C746 O745 1.257 . S
O747 Eu727 2.326 . S
O747 C735 1.242 . S
O748 Tb726 2.324 . S
O748 C735 1.258 . S
O749 Eu727 2.500 . S
O749 C732 1.273 . S
O750 Eu727 2.473 . S
O750 C732 1.257 . S
H751 C737 0.929 . S
H752 C739 0.931 . S
H753 C741 0.929 . S
O754 Tb755 2.292 1_655 S
O754 C757 1.255 . S
Tb755 O754 2.292 1_455 S
Tb755 O771 2.326 . S
Tb755 O773 2.500 . S
Tb755 O774 2.473 . S
Tb755 O777 2.324 . S
Eu756 O760 2.292 . S
Eu756 C761 2.852 . S
Eu756 O772 2.324 . S
Eu756 O776 2.326 . S
Eu756 O778 2.500 . S
Eu756 O779 2.473 . S
C757 O754 1.255 . S
C757 O758 1.247 . S
O758 C757 1.247 . S
C759 O771 1.242 . S
C759 O772 1.258 . S
O760 Eu756 2.292 . S
O760 C762 1.255 . S
C761 Eu756 2.852 . S
C761 C765 1.503 . S
C761 O778 1.273 . S
C761 O779 1.257 . S
C762 O760 1.255 . S
C762 O763 1.247 . S
O763 C762 1.247 . S
C764 O776 1.242 . S
C764 O777 1.258 . S
C765 C761 1.503 . S
C765 C766 1.379 . S
C765 C770 1.392 . S
C766 C765 1.379 . S
C766 C767 1.404 . S
C766 H780 0.929 . S
C767 C766 1.404 . S
C767 C768 1.389 . S
C768 C767 1.389 . S
C768 C769 1.399 . S
C768 H781 0.931 . S
C769 C768 1.399 . S
C769 C770 1.390 . S
C770 C765 1.392 . S
C770 C769 1.390 . S
C770 H782 0.929 . S
O771 Tb755 2.326 . S
O771 C759 1.242 . S
O772 Eu756 2.324 . S
O772 C759 1.258 . S
O773 Tb755 2.500 . S
O773 C775 1.273 . S
O774 Tb755 2.473 . S
O774 C775 1.257 . S
C775 O773 1.273 . S
C775 O774 1.257 . S
O776 Eu756 2.326 . S
O776 C764 1.242 . S
O777 Tb755 2.324 . S
O777 C764 1.258 . S
O778 Eu756 2.500 . S
O778 C761 1.273 . S
O779 Eu756 2.473 . S
O779 C761 1.257 . S
H780 C766 0.929 . S
H781 C768 0.931 . S
H782 C770 0.929 . S
O783 Tb784 2.292 . S
O783 C786 1.255 . S
Tb784 O783 2.292 . S
Tb784 O800 2.326 . S
Tb784 O802 2.500 . S
Tb784 O803 2.473 . S
Tb784 O806 2.324 . S
Eu785 O789 2.292 . S
Eu785 C790 2.852 . S
Eu785 O801 2.324 . S
Eu785 O805 2.326 . S
Eu785 O807 2.500 . S
Eu785 O808 2.473 . S
C786 O783 1.255 . S
C786 O787 1.247 . S
O787 C786 1.247 . S
C788 O800 1.242 . S
C788 O801 1.258 . S
O789 Eu785 2.292 . S
O789 C791 1.255 . S
C790 Eu785 2.852 . S
C790 C794 1.503 . S
C790 O807 1.273 . S
C790 O808 1.257 . S
C791 O789 1.255 . S
C791 O792 1.247 . S
O792 C791 1.247 . S
C793 O805 1.242 . S
C793 O806 1.258 . S
C794 C790 1.503 . S
C794 C795 1.379 . S
C794 C799 1.392 . S
C795 C794 1.379 . S
C795 C796 1.404 . S
C795 H809 0.929 . S
C796 C795 1.404 . S
C796 C797 1.389 . S
C797 C796 1.389 . S
C797 C798 1.399 . S
C797 H810 0.931 . S
C798 C797 1.399 . S
C798 C799 1.390 . S
C799 C794 1.392 . S
C799 C798 1.390 . S
C799 H811 0.929 . S
O800 Tb784 2.326 . S
O800 C788 1.242 . S
O801 Eu785 2.324 . S
O801 C788 1.258 . S
O802 Tb784 2.500 . S
O802 C804 1.273 . S
O803 Tb784 2.473 . S
O803 C804 1.257 . S
C804 O802 1.273 . S
C804 O803 1.257 . S
O805 Eu785 2.326 . S
O805 C793 1.242 . S
O806 Tb784 2.324 . S
O806 C793 1.258 . S
O807 Eu785 2.500 . S
O807 C790 1.273 . S
O808 Eu785 2.473 . S
O808 C790 1.257 . S
H809 C795 0.929 . S
H810 C797 0.931 . S
H811 C799 0.929 . S
O812 Tb813 2.292 . S
O812 C815 1.255 . S
Tb813 O812 2.292 . S
Tb813 O829 2.326 . S
Tb813 O831 2.500 . S
Tb813 O832 2.473 . S
Tb813 O835 2.324 . S
Eu814 O818 2.292 . S
Eu814 C819 2.852 . S
Eu814 O830 2.324 . S
Eu814 O834 2.326 . S
Eu814 O836 2.500 . S
Eu814 O837 2.473 . S
C815 O812 1.255 . S
C815 O816 1.247 . S
O816 C815 1.247 . S
C817 O829 1.242 . S
C817 O830 1.258 . S
O818 Eu814 2.292 . S
O818 C820 1.255 . S
C819 Eu814 2.852 . S
C819 C823 1.503 . S
C819 O836 1.273 . S
C819 O837 1.257 . S
C820 O818 1.255 . S
C820 O821 1.247 . S
O821 C820 1.247 . S
C822 O834 1.242 . S
C822 O835 1.258 . S
C823 C819 1.503 . S
C823 C824 1.379 . S
C823 C828 1.392 . S
C824 C823 1.379 . S
C824 C825 1.404 . S
C824 H838 0.929 . S
C825 C824 1.404 . S
C825 C826 1.389 . S
C826 C825 1.389 . S
C826 C827 1.399 . S
C826 H839 0.931 . S
C827 C826 1.399 . S
C827 C828 1.390 . S
C828 C823 1.392 . S
C828 C827 1.390 . S
C828 H840 0.929 . S
O829 Tb813 2.326 . S
O829 C817 1.242 . S
O830 Eu814 2.324 . S
O830 C817 1.258 . S
O831 Tb813 2.500 . S
O831 C833 1.273 . S
O832 Tb813 2.473 . S
O832 C833 1.257 . S
C833 O831 1.273 . S
C833 O832 1.257 . S
O834 Eu814 2.326 . S
O834 C822 1.242 . S
O835 Tb813 2.324 . S
O835 C822 1.258 . S
O836 Eu814 2.500 . S
O836 C819 1.273 . S
O837 Eu814 2.473 . S
O837 C819 1.257 . S
H838 C824 0.929 . S
H839 C826 0.931 . S
H840 C828 0.929 . S
O841 Tb842 2.292 . S
O841 C844 1.255 . S
Tb842 O841 2.292 . S
Tb842 O858 2.326 . S
Tb842 O860 2.500 . S
Tb842 O861 2.473 . S
Tb842 O864 2.324 . S
Eu843 O847 2.292 . S
Eu843 C848 2.852 . S
Eu843 O859 2.324 . S
Eu843 O863 2.326 . S
Eu843 O865 2.500 . S
Eu843 O866 2.473 . S
C844 O841 1.255 . S
C844 O845 1.247 . S
O845 C844 1.247 . S
C846 O858 1.242 . S
C846 O859 1.258 . S
O847 Eu843 2.292 . S
O847 C849 1.255 . S
C848 Eu843 2.852 . S
C848 C852 1.503 . S
C848 O865 1.273 . S
C848 O866 1.257 . S
C849 O847 1.255 . S
C849 O850 1.247 . S
O850 C849 1.247 . S
C851 O863 1.242 . S
C851 O864 1.258 . S
C852 C848 1.503 . S
C852 C853 1.379 . S
C852 C857 1.392 . S
C853 C852 1.379 . S
C853 C854 1.404 . S
C853 H867 0.929 . S
C854 C853 1.404 . S
C854 C855 1.389 . S
C855 C854 1.389 . S
C855 C856 1.399 . S
C855 H868 0.931 . S
C856 C855 1.399 . S
C856 C857 1.390 . S
C857 C852 1.392 . S
C857 C856 1.390 . S
C857 H869 0.929 . S
O858 Tb842 2.326 . S
O858 C846 1.242 . S
O859 Eu843 2.324 . S
O859 C846 1.258 . S
O860 Tb842 2.500 . S
O860 C862 1.273 . S
O861 Tb842 2.473 . S
O861 C862 1.257 . S
C862 O860 1.273 . S
C862 O861 1.257 . S
O863 Eu843 2.326 . S
O863 C851 1.242 . S
O864 Tb842 2.324 . S
O864 C851 1.258 . S
O865 Eu843 2.500 . S
O865 C848 1.273 . S
O866 Eu843 2.473 . S
O866 C848 1.257 . S
H867 C853 0.929 . S
H868 C855 0.931 . S
H869 C857 0.929 . S
O870 Tb871 2.292 . S
O870 C873 1.255 . S
Tb871 O870 2.292 . S
Tb871 O887 2.326 . S
Tb871 O889 2.500 . S
Tb871 O890 2.473 . S
Tb871 O893 2.324 . S
Eu872 O876 2.292 . S
Eu872 C877 2.852 . S
Eu872 O888 2.324 . S
Eu872 O892 2.326 . S
Eu872 O894 2.500 . S
Eu872 O895 2.473 . S
C873 O870 1.255 . S
C873 O874 1.247 . S
O874 C873 1.247 . S
C875 O887 1.242 . S
C875 O888 1.258 . S
O876 Eu872 2.292 . S
O876 C878 1.255 . S
C877 Eu872 2.852 . S
C877 C881 1.503 . S
C877 O894 1.273 . S
C877 O895 1.257 . S
C878 O876 1.255 . S
C878 O879 1.247 . S
O879 C878 1.247 . S
C880 O892 1.242 . S
C880 O893 1.258 . S
C881 C877 1.503 . S
C881 C882 1.379 . S
C881 C886 1.392 . S
C882 C881 1.379 . S
C882 C883 1.404 . S
C882 H896 0.929 . S
C883 C882 1.404 . S
C883 C884 1.389 . S
C884 C883 1.389 . S
C884 C885 1.399 . S
C884 H897 0.931 . S
C885 C884 1.399 . S
C885 C886 1.390 . S
C886 C881 1.392 . S
C886 C885 1.390 . S
C886 H898 0.929 . S
O887 Tb871 2.326 . S
O887 C875 1.242 . S
O888 Eu872 2.324 . S
O888 C875 1.258 . S
O889 Tb871 2.500 . S
O889 C891 1.273 . S
O890 Tb871 2.473 . S
O890 C891 1.257 . S
C891 O889 1.273 . S
C891 O890 1.257 . S
O892 Eu872 2.326 . S
O892 C880 1.242 . S
O893 Tb871 2.324 . S
O893 C880 1.258 . S
O894 Eu872 2.500 . S
O894 C877 1.273 . S
O895 Eu872 2.473 . S
O895 C877 1.257 . S
H896 C882 0.929 . S
H897 C884 0.931 . S
H898 C886 0.929 . S
O899 Tb900 2.292 . S
O899 C902 1.255 . S
Tb900 O899 2.292 . S
Tb900 O916 2.326 . S
Tb900 O918 2.500 . S
Tb900 O919 2.473 . S
Tb900 O922 2.324 . S
Eu901 O905 2.292 . S
Eu901 C906 2.852 . S
Eu901 O917 2.324 . S
Eu901 O921 2.326 . S
Eu901 O923 2.500 . S
Eu901 O924 2.473 . S
C902 O899 1.255 . S
C902 O903 1.247 . S
O903 C902 1.247 . S
C904 O916 1.242 . S
C904 O917 1.258 . S
O905 Eu901 2.292 . S
O905 C907 1.255 . S
C906 Eu901 2.852 . S
C906 C910 1.503 . S
C906 O923 1.273 . S
C906 O924 1.257 . S
C907 O905 1.255 . S
C907 O908 1.247 . S
O908 C907 1.247 . S
C909 O921 1.242 . S
C909 O922 1.258 . S
C910 C906 1.503 . S
C910 C911 1.379 . S
C910 C915 1.392 . S
C911 C910 1.379 . S
C911 C912 1.404 . S
C911 H925 0.929 . S
C912 C911 1.404 . S
C912 C913 1.389 . S
C913 C912 1.389 . S
C913 C914 1.399 . S
C913 H926 0.931 . S
C914 C913 1.399 . S
C914 C915 1.390 . S
C915 C910 1.392 . S
C915 C914 1.390 . S
C915 H927 0.929 . S
O916 Tb900 2.326 . S
O916 C904 1.242 . S
O917 Eu901 2.324 . S
O917 C904 1.258 . S
O918 Tb900 2.500 . S
O918 C920 1.273 . S
O919 Tb900 2.473 . S
O919 C920 1.257 . S
C920 O918 1.273 . S
C920 O919 1.257 . S
O921 Eu901 2.326 . S
O921 C909 1.242 . S
O922 Tb900 2.324 . S
O922 C909 1.258 . S
O923 Eu901 2.500 . S
O923 C906 1.273 . S
O924 Eu901 2.473 . S
O924 C906 1.257 . S
H925 C911 0.929 . S
H926 C913 0.931 . S
H927 C915 0.929 . S
O928 Tb929 2.292 . S
O928 C931 1.255 . S
Tb929 O928 2.292 . S
Tb929 O945 2.326 . S
Tb929 O947 2.500 . S
Tb929 O948 2.473 . S
Tb929 O951 2.324 . S
Eu930 O934 2.292 . S
Eu930 C935 2.852 . S
Eu930 O946 2.324 . S
Eu930 O950 2.326 . S
Eu930 O952 2.500 . S
Eu930 O953 2.473 . S
C931 O928 1.255 . S
C931 O932 1.247 . S
O932 C931 1.247 . S
C933 O945 1.242 . S
C933 O946 1.258 . S
O934 Eu930 2.292 . S
O934 C936 1.255 . S
C935 Eu930 2.852 . S
C935 C939 1.503 . S
C935 O952 1.273 . S
C935 O953 1.257 . S
C936 O934 1.255 . S
C936 O937 1.247 . S
O937 C936 1.247 . S
C938 O950 1.242 . S
C938 O951 1.258 . S
C939 C935 1.503 . S
C939 C940 1.379 . S
C939 C944 1.392 . S
C940 C939 1.379 . S
C940 C941 1.404 . S
C940 H954 0.929 . S
C941 C940 1.404 . S
C941 C942 1.389 . S
C942 C941 1.389 . S
C942 C943 1.399 . S
C942 H955 0.931 . S
C943 C942 1.399 . S
C943 C944 1.390 . S
C944 C939 1.392 . S
C944 C943 1.390 . S
C944 H956 0.929 . S
O945 Tb929 2.326 . S
O945 C933 1.242 . S
O946 Eu930 2.324 . S
O946 C933 1.258 . S
O947 Tb929 2.500 . S
O947 C949 1.273 . S
O948 Tb929 2.473 . S
O948 C949 1.257 . S
C949 O947 1.273 . S
C949 O948 1.257 . S
O950 Eu930 2.326 . S
O950 C938 1.242 . S
O951 Tb929 2.324 . S
O951 C938 1.258 . S
O952 Eu930 2.500 . S
O952 C935 1.273 . S
O953 Eu930 2.473 . S
O953 C935 1.257 . S
H954 C940 0.929 . S
H955 C942 0.931 . S
H956 C944 0.929 . S
O957 Tb958 2.292 . S
O957 C960 1.255 . S
Tb958 O957 2.292 . S
Tb958 O974 2.326 . S
Tb958 O976 2.500 . S
Tb958 O977 2.473 . S
Tb958 O980 2.324 . S
Eu959 O963 2.292 . S
Eu959 C964 2.852 . S
Eu959 O975 2.324 . S
Eu959 O979 2.326 . S
Eu959 O981 2.500 . S
Eu959 O982 2.473 . S
C960 O957 1.255 . S
C960 O961 1.247 . S
O961 C960 1.247 . S
C962 O974 1.242 . S
C962 O975 1.258 . S
O963 Eu959 2.292 . S
O963 C965 1.255 . S
C964 Eu959 2.852 . S
C964 C968 1.503 . S
C964 O981 1.273 . S
C964 O982 1.257 . S
C965 O963 1.255 . S
C965 O966 1.247 . S
O966 C965 1.247 . S
C967 O979 1.242 . S
C967 O980 1.258 . S
C968 C964 1.503 . S
C968 C969 1.379 . S
C968 C973 1.392 . S
C969 C968 1.379 . S
C969 C970 1.404 . S
C969 H983 0.929 . S
C970 C969 1.404 . S
C970 C971 1.389 . S
C971 C970 1.389 . S
C971 C972 1.399 . S
C971 H984 0.931 . S
C972 C971 1.399 . S
C972 C973 1.390 . S
C973 C968 1.392 . S
C973 C972 1.390 . S
C973 H985 0.929 . S
O974 Tb958 2.326 . S
O974 C962 1.242 . S
O975 Eu959 2.324 . S
O975 C962 1.258 . S
O976 Tb958 2.500 . S
O976 C978 1.273 . S
O977 Tb958 2.473 . S
O977 C978 1.257 . S
C978 O976 1.273 . S
C978 O977 1.257 . S
O979 Eu959 2.326 . S
O979 C967 1.242 . S
O980 Tb958 2.324 . S
O980 C967 1.258 . S
O981 Eu959 2.500 . S
O981 C964 1.273 . S
O982 Eu959 2.473 . S
O982 C964 1.257 . S
H983 C969 0.929 . S
H984 C971 0.931 . S
H985 C973 0.929 . S
O986 Tb987 2.292 . S
O986 C989 1.255 . S
Tb987 O986 2.292 . S
Tb987 O1003 2.326 . S
Tb987 O1005 2.500 . S
Tb987 O1006 2.473 . S
Tb987 O1009 2.324 . S
Eu988 O992 2.292 . S
Eu988 C993 2.852 . S
Eu988 O1004 2.324 . S
Eu988 O1008 2.326 . S
Eu988 O1010 2.500 . S
Eu988 O1011 2.473 . S
C989 O986 1.255 . S
C989 O990 1.247 . S
O990 C989 1.247 . S
C991 O1003 1.242 . S
C991 O1004 1.258 . S
O992 Eu988 2.292 . S
O992 C994 1.255 . S
C993 Eu988 2.852 . S
C993 C997 1.503 . S
C993 O1010 1.273 . S
C993 O1011 1.257 . S
C994 O992 1.255 . S
C994 O995 1.247 . S
O995 C994 1.247 . S
C996 O1008 1.242 . S
C996 O1009 1.258 . S
C997 C993 1.503 . S
C997 C998 1.379 . S
C997 C1002 1.392 . S
C998 C997 1.379 . S
C998 C999 1.404 1_655 S
C998 H1012 0.929 . S
C999 C998 1.404 1_455 S
C999 C1000 1.389 . S
C1000 C999 1.389 . S
C1000 C1001 1.388 1_455 S
C1000 H1013 0.931 . S
C1001 C1000 1.388 1_655 S
C1001 C1002 1.408 . S
C1002 C997 1.392 . S
C1002 C1001 1.408 . S
C1002 H1014 0.929 . S
O1003 Tb987 2.326 . S
O1003 C991 1.242 . S
O1004 Eu988 2.324 . S
O1004 C991 1.258 . S
O1005 Tb987 2.500 . S
O1005 C1007 1.273 . S
O1006 Tb987 2.473 . S
O1006 C1007 1.257 . S
C1007 O1005 1.273 . S
C1007 O1006 1.257 . S
O1008 Eu988 2.326 . S
O1008 C996 1.242 . S
O1009 Tb987 2.324 . S
O1009 C996 1.258 . S
O1010 Eu988 2.500 . S
O1010 C993 1.273 . S
O1011 Eu988 2.473 . S
O1011 C993 1.257 . S
H1012 C998 0.929 . S
H1013 C1000 0.931 . S
H1014 C1002 0.929 . S
O1015 Tb1016 2.292 . S
O1015 C1018 1.255 . S
Tb1016 O1015 2.292 . S
Tb1016 O1032 2.326 . S
Tb1016 O1034 2.500 . S
Tb1016 O1035 2.473 . S
Tb1016 O1038 2.324 . S
Eu1017 O1021 2.292 . S
Eu1017 C1022 2.852 . S
Eu1017 O1033 2.324 . S
Eu1017 O1037 2.326 . S
Eu1017 O1039 2.500 . S
Eu1017 O1040 2.473 . S
C1018 O1015 1.255 . S
C1018 O1019 1.247 . S
O1019 C1018 1.247 . S
C1020 O1032 1.242 . S
C1020 O1033 1.258 . S
O1021 Eu1017 2.292 . S
O1021 C1023 1.255 . S
C1022 Eu1017 2.852 . S
C1022 C1026 1.503 . S
C1022 O1039 1.273 . S
C1022 O1040 1.257 . S
C1023 O1021 1.255 . S
C1023 O1024 1.247 . S
O1024 C1023 1.247 . S
C1025 O1037 1.242 . S
C1025 O1038 1.258 . S
C1026 C1022 1.503 . S
C1026 C1027 1.379 . S
C1026 C1031 1.392 . S
C1027 C1026 1.379 . S
C1027 C1028 1.404 1_655 S
C1027 H1041 0.929 . S
C1028 C1027 1.404 1_455 S
C1028 C1029 1.389 . S
C1029 C1028 1.389 . S
C1029 C1030 1.388 1_455 S
C1029 H1042 0.931 . S
C1030 C1029 1.388 1_655 S
C1030 C1031 1.408 . S
C1031 C1026 1.392 . S
C1031 C1030 1.408 . S
C1031 H1043 0.929 . S
O1032 Tb1016 2.326 . S
O1032 C1020 1.242 . S
O1033 Eu1017 2.324 . S
O1033 C1020 1.258 . S
O1034 Tb1016 2.500 . S
O1034 C1036 1.273 . S
O1035 Tb1016 2.473 . S
O1035 C1036 1.257 . S
C1036 O1034 1.273 . S
C1036 O1035 1.257 . S
O1037 Eu1017 2.326 . S
O1037 C1025 1.242 . S
O1038 Tb1016 2.324 . S
O1038 C1025 1.258 . S
O1039 Eu1017 2.500 . S
O1039 C1022 1.273 . S
O1040 Eu1017 2.473 . S
O1040 C1022 1.257 . S
H1041 C1027 0.929 . S
H1042 C1029 0.931 . S
H1043 C1031 0.929 . S
O1044 Tb1045 2.292 1_455 S
O1044 C1047 1.255 . S
Tb1045 O1044 2.292 1_655 S
Tb1045 O1061 2.326 . S
Tb1045 O1063 2.500 . S
Tb1045 O1064 2.473 . S
Tb1045 O1067 2.324 . S
Eu1046 O1050 2.292 . S
Eu1046 C1051 2.852 . S
Eu1046 O1062 2.324 . S
Eu1046 O1066 2.326 . S
Eu1046 O1068 2.500 . S
Eu1046 O1069 2.473 . S
C1047 O1044 1.255 . S
C1047 O1048 1.247 . S
O1048 C1047 1.247 . S
C1049 O1061 1.242 . S
C1049 O1062 1.258 . S
O1050 Eu1046 2.292 . S
O1050 C1052 1.255 . S
C1051 Eu1046 2.852 . S
C1051 C1055 1.503 . S
C1051 O1068 1.273 . S
C1051 O1069 1.257 . S
C1052 O1050 1.255 . S
C1052 O1053 1.247 . S
O1053 C1052 1.247 . S
C1054 O1066 1.242 . S
C1054 O1067 1.258 . S
C1055 C1051 1.503 . S
C1055 C1056 1.379 . S
C1055 C1060 1.392 . S
C1056 C1055 1.379 . S
C1056 C1057 1.404 . S
C1056 H1070 0.929 . S
C1057 C1056 1.404 . S
C1057 C1058 1.389 . S
C1058 C1057 1.389 . S
C1058 C1059 1.399 . S
C1058 H1071 0.931 . S
C1059 C1058 1.399 . S
C1059 C1060 1.390 . S
C1060 C1055 1.392 . S
C1060 C1059 1.390 . S
C1060 H1072 0.929 . S
O1061 Tb1045 2.326 . S
O1061 C1049 1.242 . S
O1062 Eu1046 2.324 . S
O1062 C1049 1.258 . S
O1063 Tb1045 2.500 . S
O1063 C1065 1.273 . S
O1064 Tb1045 2.473 . S
O1064 C1065 1.257 . S
C1065 O1063 1.273 . S
C1065 O1064 1.257 . S
O1066 Eu1046 2.326 . S
O1066 C1054 1.242 . S
O1067 Tb1045 2.324 . S
O1067 C1054 1.258 . S
O1068 Eu1046 2.500 . S
O1068 C1051 1.273 . S
O1069 Eu1046 2.473 . S
O1069 C1051 1.257 . S
H1070 C1056 0.929 . S
H1071 C1058 0.931 . S
H1072 C1060 0.929 . S
O1073 Tb1074 2.292 . S
O1073 C1076 1.255 . S
Tb1074 O1073 2.292 . S
Tb1074 O1090 2.326 . S
Tb1074 O1092 2.500 . S
Tb1074 O1093 2.473 . S
Tb1074 O1096 2.324 . S
Eu1075 O1079 2.292 . S
Eu1075 C1080 2.852 . S
Eu1075 O1091 2.324 . S
Eu1075 O1095 2.326 . S
Eu1075 O1097 2.500 . S
Eu1075 O1098 2.473 . S
C1076 O1073 1.255 . S
C1076 O1077 1.247 . S
O1077 C1076 1.247 . S
C1078 O1090 1.242 . S
C1078 O1091 1.258 . S
O1079 Eu1075 2.292 . S
O1079 C1081 1.255 . S
C1080 Eu1075 2.852 . S
C1080 C1084 1.503 . S
C1080 O1097 1.273 . S
C1080 O1098 1.257 . S
C1081 O1079 1.255 . S
C1081 O1082 1.247 . S
O1082 C1081 1.247 . S
C1083 O1095 1.242 . S
C1083 O1096 1.258 . S
C1084 C1080 1.503 . S
C1084 C1085 1.379 . S
C1084 C1089 1.392 . S
C1085 C1084 1.379 . S
C1085 C1086 1.404 . S
C1085 H1099 0.929 . S
C1086 C1085 1.404 . S
C1086 C1087 1.389 . S
C1087 C1086 1.389 . S
C1087 C1088 1.399 . S
C1087 H1100 0.931 . S
C1088 C1087 1.399 . S
C1088 C1089 1.390 . S
C1089 C1084 1.392 . S
C1089 C1088 1.390 . S
C1089 H1101 0.929 . S
O1090 Tb1074 2.326 . S
O1090 C1078 1.242 . S
O1091 Eu1075 2.324 . S
O1091 C1078 1.258 . S
O1092 Tb1074 2.500 . S
O1092 C1094 1.273 . S
O1093 Tb1074 2.473 . S
O1093 C1094 1.257 . S
C1094 O1092 1.273 . S
C1094 O1093 1.257 . S
O1095 Eu1075 2.326 . S
O1095 C1083 1.242 . S
O1096 Tb1074 2.324 . S
O1096 C1083 1.258 . S
O1097 Eu1075 2.500 . S
O1097 C1080 1.273 . S
O1098 Eu1075 2.473 . S
O1098 C1080 1.257 . S
H1099 C1085 0.929 . S
H1100 C1087 0.931 . S
H1101 C1089 0.929 . S
O1102 Tb1103 2.292 1_455 S
O1102 C1105 1.255 . S
Tb1103 O1102 2.292 1_655 S
Tb1103 O1119 2.326 . S
Tb1103 O1121 2.500 . S
Tb1103 O1122 2.473 . S
Tb1103 O1125 2.324 . S
Eu1104 O1108 2.292 . S
Eu1104 C1109 2.852 . S
Eu1104 O1120 2.324 . S
Eu1104 O1124 2.326 . S
Eu1104 O1126 2.500 . S
Eu1104 O1127 2.473 . S
C1105 O1102 1.255 . S
C1105 O1106 1.247 . S
O1106 C1105 1.247 . S
C1107 O1119 1.242 . S
C1107 O1120 1.258 . S
O1108 Eu1104 2.292 . S
O1108 C1110 1.255 . S
C1109 Eu1104 2.852 . S
C1109 C1113 1.503 . S
C1109 O1126 1.273 . S
C1109 O1127 1.257 . S
C1110 O1108 1.255 . S
C1110 O1111 1.247 . S
O1111 C1110 1.247 . S
C1112 O1124 1.242 . S
C1112 O1125 1.258 . S
C1113 C1109 1.503 . S
C1113 C1114 1.379 . S
C1113 C1118 1.392 . S
C1114 C1113 1.379 . S
C1114 C1115 1.404 . S
C1114 H1128 0.929 . S
C1115 C1114 1.404 . S
C1115 C1116 1.389 . S
C1116 C1115 1.389 . S
C1116 C1117 1.399 . S
C1116 H1129 0.931 . S
C1117 C1116 1.399 . S
C1117 C1118 1.390 . S
C1118 C1113 1.392 . S
C1118 C1117 1.390 . S
C1118 H1130 0.929 . S
O1119 Tb1103 2.326 . S
O1119 C1107 1.242 . S
O1120 Eu1104 2.324 . S
O1120 C1107 1.258 . S
O1121 Tb1103 2.500 . S
O1121 C1123 1.273 . S
O1122 Tb1103 2.473 . S
O1122 C1123 1.257 . S
C1123 O1121 1.273 . S
C1123 O1122 1.257 . S
O1124 Eu1104 2.326 . S
O1124 C1112 1.242 . S
O1125 Tb1103 2.324 . S
O1125 C1112 1.258 . S
O1126 Eu1104 2.500 . S
O1126 C1109 1.273 . S
O1127 Eu1104 2.473 . S
O1127 C1109 1.257 . S
H1128 C1114 0.929 . S
H1129 C1116 0.931 . S
H1130 C1118 0.929 . S
O1131 Tb1132 2.292 . S
O1131 C1134 1.255 . S
Tb1132 O1131 2.292 . S
Tb1132 O1148 2.326 . S
Tb1132 O1150 2.500 . S
Tb1132 O1151 2.473 . S
Tb1132 O1154 2.324 . S
Eu1133 O1137 2.292 . S
Eu1133 C1138 2.852 . S
Eu1133 O1149 2.324 . S
Eu1133 O1153 2.326 . S
Eu1133 O1155 2.500 . S
Eu1133 O1156 2.473 . S
C1134 O1131 1.255 . S
C1134 O1135 1.247 . S
O1135 C1134 1.247 . S
C1136 O1148 1.242 . S
C1136 O1149 1.258 . S
O1137 Eu1133 2.292 . S
O1137 C1139 1.255 . S
C1138 Eu1133 2.852 . S
C1138 C1142 1.503 . S
C1138 O1155 1.273 . S
C1138 O1156 1.257 . S
C1139 O1137 1.255 . S
C1139 O1140 1.247 . S
O1140 C1139 1.247 . S
C1141 O1153 1.242 . S
C1141 O1154 1.258 . S
C1142 C1138 1.503 . S
C1142 C1143 1.379 . S
C1142 C1147 1.392 . S
C1143 C1142 1.379 . S
C1143 C1144 1.404 . S
C1143 H1157 0.929 . S
C1144 C1143 1.404 . S
C1144 C1145 1.389 . S
C1145 C1144 1.389 . S
C1145 C1146 1.399 . S
C1145 H1158 0.931 . S
C1146 C1145 1.399 . S
C1146 C1147 1.390 . S
C1147 C1142 1.392 . S
C1147 C1146 1.390 . S
C1147 H1159 0.929 . S
O1148 Tb1132 2.326 . S
O1148 C1136 1.242 . S
O1149 Eu1133 2.324 . S
O1149 C1136 1.258 . S
O1150 Tb1132 2.500 . S
O1150 C1152 1.273 . S
O1151 Tb1132 2.473 . S
O1151 C1152 1.257 . S
C1152 O1150 1.273 . S
C1152 O1151 1.257 . S
O1153 Eu1133 2.326 . S
O1153 C1141 1.242 . S
O1154 Tb1132 2.324 . S
O1154 C1141 1.258 . S
O1155 Eu1133 2.500 . S
O1155 C1138 1.273 . S
O1156 Eu1133 2.473 . S
O1156 C1138 1.257 . S
H1157 C1143 0.929 . S
H1158 C1145 0.931 . S
H1159 C1147 0.929 . S
O1160 Tb1161 2.292 . S
O1160 C1163 1.255 . S
Tb1161 O1160 2.292 . S
Tb1161 O1177 2.326 . S
Tb1161 O1179 2.500 . S
Tb1161 O1180 2.473 . S
Tb1161 O1183 2.324 . S
Eu1162 O1166 2.292 . S
Eu1162 C1167 2.852 . S
Eu1162 O1178 2.324 . S
Eu1162 O1182 2.326 . S
Eu1162 O1184 2.500 . S
Eu1162 O1185 2.473 . S
C1163 O1160 1.255 . S
C1163 O1164 1.247 . S
O1164 C1163 1.247 . S
C1165 O1177 1.242 . S
C1165 O1178 1.258 . S
O1166 Eu1162 2.292 . S
O1166 C1168 1.255 . S
C1167 Eu1162 2.852 . S
C1167 C1171 1.503 . S
C1167 O1184 1.273 . S
C1167 O1185 1.257 . S
C1168 O1166 1.255 . S
C1168 O1169 1.247 . S
O1169 C1168 1.247 . S
C1170 O1182 1.242 . S
C1170 O1183 1.258 . S
C1171 C1167 1.503 . S
C1171 C1172 1.379 . S
C1171 C1176 1.392 . S
C1172 C1171 1.379 . S
C1172 C1173 1.404 . S
C1172 H1186 0.929 . S
C1173 C1172 1.404 . S
C1173 C1174 1.389 . S
C1174 C1173 1.389 . S
C1174 C1175 1.399 . S
C1174 H1187 0.931 . S
C1175 C1174 1.399 . S
C1175 C1176 1.390 . S
C1176 C1171 1.392 . S
C1176 C1175 1.390 . S
C1176 H1188 0.929 . S
O1177 Tb1161 2.326 . S
O1177 C1165 1.242 . S
O1178 Eu1162 2.324 . S
O1178 C1165 1.258 . S
O1179 Tb1161 2.500 . S
O1179 C1181 1.273 . S
O1180 Tb1161 2.473 . S
O1180 C1181 1.257 . S
C1181 O1179 1.273 . S
C1181 O1180 1.257 . S
O1182 Eu1162 2.326 . S
O1182 C1170 1.242 . S
O1183 Tb1161 2.324 . S
O1183 C1170 1.258 . S
O1184 Eu1162 2.500 . S
O1184 C1167 1.273 . S
O1185 Eu1162 2.473 . S
O1185 C1167 1.257 . S
H1186 C1172 0.929 . S
H1187 C1174 0.931 . S
H1188 C1176 0.929 . S
O1189 Tb1190 2.292 . S
O1189 C1192 1.255 . S
Tb1190 O1189 2.292 . S
Tb1190 O1206 2.326 . S
Tb1190 O1208 2.500 . S
Tb1190 O1209 2.473 . S
Tb1190 O1212 2.324 . S
Eu1191 O1195 2.292 . S
Eu1191 C1196 2.852 . S
Eu1191 O1207 2.324 . S
Eu1191 O1211 2.326 . S
Eu1191 O1213 2.500 . S
Eu1191 O1214 2.473 . S
C1192 O1189 1.255 . S
C1192 O1193 1.247 . S
O1193 C1192 1.247 . S
C1194 O1206 1.242 . S
C1194 O1207 1.258 . S
O1195 Eu1191 2.292 . S
O1195 C1197 1.255 . S
C1196 Eu1191 2.852 . S
C1196 C1200 1.503 . S
C1196 O1213 1.273 . S
C1196 O1214 1.257 . S
C1197 O1195 1.255 . S
C1197 O1198 1.247 . S
O1198 C1197 1.247 . S
C1199 O1211 1.242 . S
C1199 O1212 1.258 . S
C1200 C1196 1.503 . S
C1200 C1201 1.379 . S
C1200 C1205 1.392 . S
C1201 C1200 1.379 . S
C1201 C1202 1.404 . S
C1201 H1215 0.929 . S
C1202 C1201 1.404 . S
C1202 C1203 1.389 . S
C1203 C1202 1.389 . S
C1203 C1204 1.399 . S
C1203 H1216 0.931 . S
C1204 C1203 1.399 . S
C1204 C1205 1.390 . S
C1205 C1200 1.392 . S
C1205 C1204 1.390 . S
C1205 H1217 0.929 . S
O1206 Tb1190 2.326 . S
O1206 C1194 1.242 . S
O1207 Eu1191 2.324 . S
O1207 C1194 1.258 . S
O1208 Tb1190 2.500 . S
O1208 C1210 1.273 . S
O1209 Tb1190 2.473 . S
O1209 C1210 1.257 . S
C1210 O1208 1.273 . S
C1210 O1209 1.257 . S
O1211 Eu1191 2.326 . S
O1211 C1199 1.242 . S
O1212 Tb1190 2.324 . S
O1212 C1199 1.258 . S
O1213 Eu1191 2.500 . S
O1213 C1196 1.273 . S
O1214 Eu1191 2.473 . S
O1214 C1196 1.257 . S
H1215 C1201 0.929 . S
H1216 C1203 0.931 . S
H1217 C1205 0.929 . S
O1218 Tb1219 2.292 . S
O1218 C1221 1.255 . S
Tb1219 O1218 2.292 . S
Tb1219 O1235 2.326 . S
Tb1219 O1237 2.500 . S
Tb1219 O1238 2.473 . S
Tb1219 O1241 2.324 . S
Eu1220 O1224 2.292 . S
Eu1220 C1225 2.852 . S
Eu1220 O1236 2.324 . S
Eu1220 O1240 2.326 . S
Eu1220 O1242 2.500 . S
Eu1220 O1243 2.473 . S
C1221 O1218 1.255 . S
C1221 O1222 1.247 . S
O1222 C1221 1.247 . S
C1223 O1235 1.242 . S
C1223 O1236 1.258 . S
O1224 Eu1220 2.292 . S
O1224 C1226 1.255 . S
C1225 Eu1220 2.852 . S
C1225 C1229 1.503 . S
C1225 O1242 1.273 . S
C1225 O1243 1.257 . S
C1226 O1224 1.255 . S
C1226 O1227 1.247 . S
O1227 C1226 1.247 . S
C1228 O1240 1.242 . S
C1228 O1241 1.258 . S
C1229 C1225 1.503 . S
C1229 C1230 1.379 . S
C1229 C1234 1.392 . S
C1230 C1229 1.379 . S
C1230 C1231 1.404 . S
C1230 H1244 0.929 . S
C1231 C1230 1.404 . S
C1231 C1232 1.389 . S
C1232 C1231 1.389 . S
C1232 C1233 1.399 . S
C1232 H1245 0.931 . S
C1233 C1232 1.399 . S
C1233 C1234 1.390 . S
C1234 C1229 1.392 . S
C1234 C1233 1.390 . S
C1234 H1246 0.929 . S
O1235 Tb1219 2.326 . S
O1235 C1223 1.242 . S
O1236 Eu1220 2.324 . S
O1236 C1223 1.258 . S
O1237 Tb1219 2.500 . S
O1237 C1239 1.273 . S
O1238 Tb1219 2.473 . S
O1238 C1239 1.257 . S
C1239 O1237 1.273 . S
C1239 O1238 1.257 . S
O1240 Eu1220 2.326 . S
O1240 C1228 1.242 . S
O1241 Tb1219 2.324 . S
O1241 C1228 1.258 . S
O1242 Eu1220 2.500 . S
O1242 C1225 1.273 . S
O1243 Eu1220 2.473 . S
O1243 C1225 1.257 . S
H1244 C1230 0.929 . S
H1245 C1232 0.931 . S
H1246 C1234 0.929 . S
O1247 Tb1248 2.292 . S
O1247 C1250 1.255 . S
Tb1248 O1247 2.292 . S
Tb1248 O1264 2.326 . S
Tb1248 O1266 2.500 . S
Tb1248 O1267 2.473 . S
Tb1248 O1270 2.324 . S
Eu1249 O1253 2.292 . S
Eu1249 C1254 2.852 . S
Eu1249 O1265 2.324 . S
Eu1249 O1269 2.326 . S
Eu1249 O1271 2.500 . S
Eu1249 O1272 2.473 . S
C1250 O1247 1.255 . S
C1250 O1251 1.247 . S
O1251 C1250 1.247 . S
C1252 O1264 1.242 . S
C1252 O1265 1.258 . S
O1253 Eu1249 2.292 . S
O1253 C1255 1.255 . S
C1254 Eu1249 2.852 . S
C1254 C1258 1.503 . S
C1254 O1271 1.273 . S
C1254 O1272 1.257 . S
C1255 O1253 1.255 . S
C1255 O1256 1.247 . S
O1256 C1255 1.247 . S
C1257 O1269 1.242 . S
C1257 O1270 1.258 . S
C1258 C1254 1.503 . S
C1258 C1259 1.379 . S
C1258 C1263 1.392 . S
C1259 C1258 1.379 . S
C1259 C1260 1.404 . S
C1259 H1273 0.929 . S
C1260 C1259 1.404 . S
C1260 C1261 1.389 . S
C1261 C1260 1.389 . S
C1261 C1262 1.399 . S
C1261 H1274 0.931 . S
C1262 C1261 1.399 . S
C1262 C1263 1.390 . S
C1263 C1258 1.392 . S
C1263 C1262 1.390 . S
C1263 H1275 0.929 . S
O1264 Tb1248 2.326 . S
O1264 C1252 1.242 . S
O1265 Eu1249 2.324 . S
O1265 C1252 1.258 . S
O1266 Tb1248 2.500 . S
O1266 C1268 1.273 . S
O1267 Tb1248 2.473 . S
O1267 C1268 1.257 . S
C1268 O1266 1.273 . S
C1268 O1267 1.257 . S
O1269 Eu1249 2.326 . S
O1269 C1257 1.242 . S
O1270 Tb1248 2.324 . S
O1270 C1257 1.258 . S
O1271 Eu1249 2.500 . S
O1271 C1254 1.273 . S
O1272 Eu1249 2.473 . S
O1272 C1254 1.257 . S
H1273 C1259 0.929 . S
H1274 C1261 0.931 . S
H1275 C1263 0.929 . S
O1276 Tb1277 2.292 . S
O1276 C1279 1.255 . S
Tb1277 O1276 2.292 . S
Tb1277 O1293 2.326 . S
Tb1277 O1295 2.500 . S
Tb1277 O1296 2.473 . S
Tb1277 O1299 2.324 . S
Eu1278 O1282 2.292 . S
Eu1278 C1283 2.852 . S
Eu1278 O1294 2.324 . S
Eu1278 O1298 2.326 . S
Eu1278 O1300 2.500 . S
Eu1278 O1301 2.473 . S
C1279 O1276 1.255 . S
C1279 O1280 1.247 . S
O1280 C1279 1.247 . S
C1281 O1293 1.242 . S
C1281 O1294 1.258 . S
O1282 Eu1278 2.292 . S
O1282 C1284 1.255 . S
C1283 Eu1278 2.852 . S
C1283 C1287 1.503 . S
C1283 O1300 1.273 . S
C1283 O1301 1.257 . S
C1284 O1282 1.255 . S
C1284 O1285 1.247 . S
O1285 C1284 1.247 . S
C1286 O1298 1.242 . S
C1286 O1299 1.258 . S
C1287 C1283 1.503 . S
C1287 C1288 1.379 . S
C1287 C1292 1.392 . S
C1288 C1287 1.379 . S
C1288 C1289 1.404 . S
C1288 H1302 0.929 . S
C1289 C1288 1.404 . S
C1289 C1290 1.389 . S
C1290 C1289 1.389 . S
C1290 C1291 1.399 . S
C1290 H1303 0.931 . S
C1291 C1290 1.399 . S
C1291 C1292 1.390 . S
C1292 C1287 1.392 . S
C1292 C1291 1.390 . S
C1292 H1304 0.929 . S
O1293 Tb1277 2.326 . S
O1293 C1281 1.242 . S
O1294 Eu1278 2.324 . S
O1294 C1281 1.258 . S
O1295 Tb1277 2.500 . S
O1295 C1297 1.273 . S
O1296 Tb1277 2.473 . S
O1296 C1297 1.257 . S
C1297 O1295 1.273 . S
C1297 O1296 1.257 . S
O1298 Eu1278 2.326 . S
O1298 C1286 1.242 . S
O1299 Tb1277 2.324 . S
O1299 C1286 1.258 . S
O1300 Eu1278 2.500 . S
O1300 C1283 1.273 . S
O1301 Eu1278 2.473 . S
O1301 C1283 1.257 . S
H1302 C1288 0.929 . S
H1303 C1290 0.931 . S
H1304 C1292 0.929 . S
O1305 Tb1306 2.292 . S
O1305 C1308 1.255 . S
Tb1306 O1305 2.292 . S
Tb1306 O1322 2.326 . S
Tb1306 O1324 2.500 . S
Tb1306 O1325 2.473 . S
Tb1306 O1328 2.324 . S
Eu1307 O1311 2.292 . S
Eu1307 C1312 2.852 . S
Eu1307 O1323 2.324 . S
Eu1307 O1327 2.326 . S
Eu1307 O1329 2.500 . S
Eu1307 O1330 2.473 . S
C1308 O1305 1.255 . S
C1308 O1309 1.247 . S
O1309 C1308 1.247 . S
C1310 O1322 1.242 . S
C1310 O1323 1.258 . S
O1311 Eu1307 2.292 . S
O1311 C1313 1.255 . S
C1312 Eu1307 2.852 . S
C1312 C1316 1.503 . S
C1312 O1329 1.273 . S
C1312 O1330 1.257 . S
C1313 O1311 1.255 . S
C1313 O1314 1.247 . S
O1314 C1313 1.247 . S
C1315 O1327 1.242 . S
C1315 O1328 1.258 . S
C1316 C1312 1.503 . S
C1316 C1317 1.379 . S
C1316 C1321 1.392 . S
C1317 C1316 1.379 . S
C1317 C1318 1.404 . S
C1317 H1331 0.929 . S
C1318 C1317 1.404 . S
C1318 C1319 1.389 . S
C1319 C1318 1.389 . S
C1319 C1320 1.399 . S
C1319 H1332 0.931 . S
C1320 C1319 1.399 . S
C1320 C1321 1.390 . S
C1321 C1316 1.392 . S
C1321 C1320 1.390 . S
C1321 H1333 0.929 . S
O1322 Tb1306 2.326 . S
O1322 C1310 1.242 . S
O1323 Eu1307 2.324 . S
O1323 C1310 1.258 . S
O1324 Tb1306 2.500 . S
O1324 C1326 1.273 . S
O1325 Tb1306 2.473 . S
O1325 C1326 1.257 . S
C1326 O1324 1.273 . S
C1326 O1325 1.257 . S
O1327 Eu1307 2.326 . S
O1327 C1315 1.242 . S
O1328 Tb1306 2.324 . S
O1328 C1315 1.258 . S
O1329 Eu1307 2.500 . S
O1329 C1312 1.273 . S
O1330 Eu1307 2.473 . S
O1330 C1312 1.257 . S
H1331 C1317 0.929 . S
H1332 C1319 0.931 . S
H1333 C1321 0.929 . S
O1334 Tb1335 2.292 . S
O1334 C1337 1.255 . S
Tb1335 O1334 2.292 . S
Tb1335 O1351 2.326 . S
Tb1335 O1353 2.500 . S
Tb1335 O1354 2.473 . S
Tb1335 O1357 2.324 . S
Eu1336 O1340 2.292 . S
Eu1336 C1341 2.852 . S
Eu1336 O1352 2.324 . S
Eu1336 O1356 2.326 . S
Eu1336 O1358 2.500 . S
Eu1336 O1359 2.473 . S
C1337 O1334 1.255 . S
C1337 O1338 1.247 . S
O1338 C1337 1.247 . S
C1339 O1351 1.242 . S
C1339 O1352 1.258 . S
O1340 Eu1336 2.292 . S
O1340 C1342 1.255 . S
C1341 Eu1336 2.852 . S
C1341 C1345 1.503 . S
C1341 O1358 1.273 . S
C1341 O1359 1.257 . S
C1342 O1340 1.255 . S
C1342 O1343 1.247 . S
O1343 C1342 1.247 . S
C1344 O1356 1.242 . S
C1344 O1357 1.258 . S
C1345 C1341 1.503 . S
C1345 C1346 1.379 . S
C1345 C1350 1.392 . S
C1346 C1345 1.379 . S
C1346 C1347 1.404 1_455 S
C1346 H1360 0.929 . S
C1347 C1346 1.404 1_655 S
C1347 C1348 1.389 . S
C1348 C1347 1.389 . S
C1348 C1349 1.388 1_655 S
C1348 H1361 0.931 . S
C1349 C1348 1.388 1_455 S
C1349 C1350 1.408 . S
C1350 C1345 1.392 . S
C1350 C1349 1.408 . S
C1350 H1362 0.929 . S
O1351 Tb1335 2.326 . S
O1351 C1339 1.242 . S
O1352 Eu1336 2.324 . S
O1352 C1339 1.258 . S
O1353 Tb1335 2.500 . S
O1353 C1355 1.273 . S
O1354 Tb1335 2.473 . S
O1354 C1355 1.257 . S
C1355 O1353 1.273 . S
C1355 O1354 1.257 . S
O1356 Eu1336 2.326 . S
O1356 C1344 1.242 . S
O1357 Tb1335 2.324 . S
O1357 C1344 1.258 . S
O1358 Eu1336 2.500 . S
O1358 C1341 1.273 . S
O1359 Eu1336 2.473 . S
O1359 C1341 1.257 . S
H1360 C1346 0.929 . S
H1361 C1348 0.931 . S
H1362 C1350 0.929 . S
O1363 Tb1364 2.292 . S
O1363 C1366 1.255 . S
Tb1364 O1363 2.292 . S
Tb1364 O1380 2.326 . S
Tb1364 O1382 2.500 . S
Tb1364 O1383 2.473 . S
Tb1364 O1386 2.324 . S
Eu1365 O1369 2.292 . S
Eu1365 C1370 2.852 . S
Eu1365 O1381 2.324 . S
Eu1365 O1385 2.326 . S
Eu1365 O1387 2.500 . S
Eu1365 O1388 2.473 . S
C1366 O1363 1.255 . S
C1366 O1367 1.247 . S
O1367 C1366 1.247 . S
C1368 O1380 1.242 . S
C1368 O1381 1.258 . S
O1369 Eu1365 2.292 . S
O1369 C1371 1.255 . S
C1370 Eu1365 2.852 . S
C1370 C1374 1.503 . S
C1370 O1387 1.273 . S
C1370 O1388 1.257 . S
C1371 O1369 1.255 . S
C1371 O1372 1.247 . S
O1372 C1371 1.247 . S
C1373 O1385 1.242 . S
C1373 O1386 1.258 . S
C1374 C1370 1.503 . S
C1374 C1375 1.379 . S
C1374 C1379 1.392 . S
C1375 C1374 1.379 . S
C1375 C1376 1.404 1_455 S
C1375 H1389 0.929 . S
C1376 C1375 1.404 1_655 S
C1376 C1377 1.389 . S
C1377 C1376 1.389 . S
C1377 C1378 1.388 1_655 S
C1377 H1390 0.931 . S
C1378 C1377 1.388 1_455 S
C1378 C1379 1.408 . S
C1379 C1374 1.392 . S
C1379 C1378 1.408 . S
C1379 H1391 0.929 . S
O1380 Tb1364 2.326 . S
O1380 C1368 1.242 . S
O1381 Eu1365 2.324 . S
O1381 C1368 1.258 . S
O1382 Tb1364 2.500 . S
O1382 C1384 1.273 . S
O1383 Tb1364 2.473 . S
O1383 C1384 1.257 . S
C1384 O1382 1.273 . S
C1384 O1383 1.257 . S
O1385 Eu1365 2.326 . S
O1385 C1373 1.242 . S
O1386 Tb1364 2.324 . S
O1386 C1373 1.258 . S
O1387 Eu1365 2.500 . S
O1387 C1370 1.273 . S
O1388 Eu1365 2.473 . S
O1388 C1370 1.257 . S
H1389 C1375 0.929 . S
H1390 C1377 0.931 . S
H1391 C1379 0.929 . S
O1392 Tb1393 2.292 . S
O1392 C1395 1.255 . S
Tb1393 O1392 2.292 . S
Tb1393 O1409 2.326 . S
Tb1393 O1411 2.500 . S
Tb1393 O1412 2.473 . S
Tb1393 O1415 2.324 . S
Eu1394 O1398 2.292 . S
Eu1394 C1399 2.852 . S
Eu1394 O1410 2.324 . S
Eu1394 O1414 2.326 . S
Eu1394 O1416 2.500 . S
Eu1394 O1417 2.473 . S
C1395 O1392 1.255 . S
C1395 O1396 1.247 . S
O1396 C1395 1.247 . S
C1397 O1409 1.242 . S
C1397 O1410 1.258 . S
O1398 Eu1394 2.292 . S
O1398 C1400 1.255 . S
C1399 Eu1394 2.852 . S
C1399 C1403 1.503 . S
C1399 O1416 1.273 . S
C1399 O1417 1.257 . S
C1400 O1398 1.255 . S
C1400 O1401 1.247 . S
O1401 C1400 1.247 . S
C1402 O1414 1.242 . S
C1402 O1415 1.258 . S
C1403 C1399 1.503 . S
C1403 C1404 1.379 . S
C1403 C1408 1.392 . S
C1404 C1403 1.379 . S
C1404 C1405 1.404 . S
C1404 H1418 0.929 . S
C1405 C1404 1.404 . S
C1405 C1406 1.389 . S
C1406 C1405 1.389 . S
C1406 C1407 1.399 . S
C1406 H1419 0.931 . S
C1407 C1406 1.399 . S
C1407 C1408 1.390 . S
C1408 C1403 1.392 . S
C1408 C1407 1.390 . S
C1408 H1420 0.929 . S
O1409 Tb1393 2.326 . S
O1409 C1397 1.242 . S
O1410 Eu1394 2.324 . S
O1410 C1397 1.258 . S
O1411 Tb1393 2.500 . S
O1411 C1413 1.273 . S
O1412 Tb1393 2.473 . S
O1412 C1413 1.257 . S
C1413 O1411 1.273 . S
C1413 O1412 1.257 . S
O1414 Eu1394 2.326 . S
O1414 C1402 1.242 . S
O1415 Tb1393 2.324 . S
O1415 C1402 1.258 . S
O1416 Eu1394 2.500 . S
O1416 C1399 1.273 . S
O1417 Eu1394 2.473 . S
O1417 C1399 1.257 . S
H1418 C1404 0.929 . S
H1419 C1406 0.931 . S
H1420 C1408 0.929 . S
O1421 Tb1422 2.292 . S
O1421 C1424 1.255 . S
Tb1422 O1421 2.292 . S
Tb1422 O1438 2.326 . S
Tb1422 O1440 2.500 . S
Tb1422 O1441 2.473 . S
Tb1422 O1444 2.324 . S
Eu1423 O1427 2.292 . S
Eu1423 C1428 2.852 . S
Eu1423 O1439 2.324 . S
Eu1423 O1443 2.326 . S
Eu1423 O1445 2.500 . S
Eu1423 O1446 2.473 . S
C1424 O1421 1.255 . S
C1424 O1425 1.247 . S
O1425 C1424 1.247 . S
C1426 O1438 1.242 . S
C1426 O1439 1.258 . S
O1427 Eu1423 2.292 . S
O1427 C1429 1.255 . S
C1428 Eu1423 2.852 . S
C1428 C1432 1.503 . S
C1428 O1445 1.273 . S
C1428 O1446 1.257 . S
C1429 O1427 1.255 . S
C1429 O1430 1.247 . S
O1430 C1429 1.247 . S
C1431 O1443 1.242 . S
C1431 O1444 1.258 . S
C1432 C1428 1.503 . S
C1432 C1433 1.379 . S
C1432 C1437 1.392 . S
C1433 C1432 1.379 . S
C1433 C1434 1.404 1_565 S
C1433 H1447 0.929 . S
C1434 C1433 1.404 1_545 S
C1434 C1435 1.389 . S
C1435 C1434 1.389 . S
C1435 C1436 1.388 1_545 S
C1435 H1448 0.931 . S
C1436 C1435 1.388 1_565 S
C1436 C1437 1.408 . S
C1437 C1432 1.392 . S
C1437 C1436 1.408 . S
C1437 H1449 0.929 . S
O1438 Tb1422 2.326 . S
O1438 C1426 1.242 . S
O1439 Eu1423 2.324 . S
O1439 C1426 1.258 . S
O1440 Tb1422 2.500 . S
O1440 C1442 1.273 . S
O1441 Tb1422 2.473 . S
O1441 C1442 1.257 . S
C1442 O1440 1.273 . S
C1442 O1441 1.257 . S
O1443 Eu1423 2.326 . S
O1443 C1431 1.242 . S
O1444 Tb1422 2.324 . S
O1444 C1431 1.258 . S
O1445 Eu1423 2.500 . S
O1445 C1428 1.273 . S
O1446 Eu1423 2.473 . S
O1446 C1428 1.257 . S
H1447 C1433 0.929 . S
H1448 C1435 0.931 . S
H1449 C1437 0.929 . S
O1450 Tb1451 2.292 . S
O1450 C1453 1.255 . S
Tb1451 O1450 2.292 . S
Tb1451 O1467 2.326 . S
Tb1451 O1469 2.500 . S
Tb1451 O1470 2.473 . S
Tb1451 O1473 2.324 . S
Eu1452 O1456 2.292 . S
Eu1452 C1457 2.852 . S
Eu1452 O1468 2.324 . S
Eu1452 O1472 2.326 . S
Eu1452 O1474 2.500 . S
Eu1452 O1475 2.473 . S
C1453 O1450 1.255 . S
C1453 O1454 1.247 . S
O1454 C1453 1.247 . S
C1455 O1467 1.242 . S
C1455 O1468 1.258 . S
O1456 Eu1452 2.292 . S
O1456 C1458 1.255 . S
C1457 Eu1452 2.852 . S
C1457 C1461 1.503 . S
C1457 O1474 1.273 . S
C1457 O1475 1.257 . S
C1458 O1456 1.255 . S
C1458 O1459 1.247 . S
O1459 C1458 1.247 . S
C1460 O1472 1.242 . S
C1460 O1473 1.258 . S
C1461 C1457 1.503 . S
C1461 C1462 1.379 . S
C1461 C1466 1.392 . S
C1462 C1461 1.379 . S
C1462 C1463 1.404 1_565 S
C1462 H1476 0.929 . S
C1463 C1462 1.404 1_545 S
C1463 C1464 1.389 . S
C1464 C1463 1.389 . S
C1464 C1465 1.388 1_545 S
C1464 H1477 0.931 . S
C1465 C1464 1.388 1_565 S
C1465 C1466 1.408 . S
C1466 C1461 1.392 . S
C1466 C1465 1.408 . S
C1466 H1478 0.929 . S
O1467 Tb1451 2.326 . S
O1467 C1455 1.242 . S
O1468 Eu1452 2.324 . S
O1468 C1455 1.258 . S
O1469 Tb1451 2.500 . S
O1469 C1471 1.273 . S
O1470 Tb1451 2.473 . S
O1470 C1471 1.257 . S
C1471 O1469 1.273 . S
C1471 O1470 1.257 . S
O1472 Eu1452 2.326 . S
O1472 C1460 1.242 . S
O1473 Tb1451 2.324 . S
O1473 C1460 1.258 . S
O1474 Eu1452 2.500 . S
O1474 C1457 1.273 . S
O1475 Eu1452 2.473 . S
O1475 C1457 1.257 . S
H1476 C1462 0.929 . S
H1477 C1464 0.931 . S
H1478 C1466 0.929 . S
O1479 Tb1480 2.292 . S
O1479 C1482 1.255 . S
Tb1480 O1479 2.292 . S
Tb1480 O1496 2.326 . S
Tb1480 O1498 2.500 . S
Tb1480 O1499 2.473 . S
Tb1480 O1502 2.324 . S
Eu1481 O1485 2.292 . S
Eu1481 C1486 2.852 . S
Eu1481 O1497 2.324 . S
Eu1481 O1501 2.326 . S
Eu1481 O1503 2.500 . S
Eu1481 O1504 2.473 . S
C1482 O1479 1.255 . S
C1482 O1483 1.247 . S
O1483 C1482 1.247 . S
C1484 O1496 1.242 . S
C1484 O1497 1.258 . S
O1485 Eu1481 2.292 . S
O1485 C1487 1.255 . S
C1486 Eu1481 2.852 . S
C1486 C1490 1.503 . S
C1486 O1503 1.273 . S
C1486 O1504 1.257 . S
C1487 O1485 1.255 . S
C1487 O1488 1.247 . S
O1488 C1487 1.247 . S
C1489 O1501 1.242 . S
C1489 O1502 1.258 . S
C1490 C1486 1.503 . S
C1490 C1491 1.379 . S
C1490 C1495 1.392 . S
C1491 C1490 1.379 . S
C1491 C1492 1.404 . S
C1491 H1505 0.929 . S
C1492 C1491 1.404 . S
C1492 C1493 1.389 . S
C1493 C1492 1.389 . S
C1493 C1494 1.399 . S
C1493 H1506 0.931 . S
C1494 C1493 1.399 . S
C1494 C1495 1.390 . S
C1495 C1490 1.392 . S
C1495 C1494 1.390 . S
C1495 H1507 0.929 . S
O1496 Tb1480 2.326 . S
O1496 C1484 1.242 . S
O1497 Eu1481 2.324 . S
O1497 C1484 1.258 . S
O1498 Tb1480 2.500 . S
O1498 C1500 1.273 . S
O1499 Tb1480 2.473 . S
O1499 C1500 1.257 . S
C1500 O1498 1.273 . S
C1500 O1499 1.257 . S
O1501 Eu1481 2.326 . S
O1501 C1489 1.242 . S
O1502 Tb1480 2.324 . S
O1502 C1489 1.258 . S
O1503 Eu1481 2.500 . S
O1503 C1486 1.273 . S
O1504 Eu1481 2.473 . S
O1504 C1486 1.257 . S
H1505 C1491 0.929 . S
H1506 C1493 0.931 . S
H1507 C1495 0.929 . S
O1508 Tb1509 2.292 1_565 S
O1508 C1511 1.255 . S
Tb1509 O1508 2.292 1_545 S
Tb1509 O1525 2.326 . S
Tb1509 O1527 2.500 . S
Tb1509 O1528 2.473 . S
Tb1509 O1531 2.324 . S
Eu1510 O1514 2.292 . S
Eu1510 C1515 2.852 . S
Eu1510 O1526 2.324 . S
Eu1510 O1530 2.326 . S
Eu1510 O1532 2.500 . S
Eu1510 O1533 2.473 . S
C1511 O1508 1.255 . S
C1511 O1512 1.247 . S
O1512 C1511 1.247 . S
C1513 O1525 1.242 . S
C1513 O1526 1.258 . S
O1514 Eu1510 2.292 . S
O1514 C1516 1.255 . S
C1515 Eu1510 2.852 . S
C1515 C1519 1.503 . S
C1515 O1532 1.273 . S
C1515 O1533 1.257 . S
C1516 O1514 1.255 . S
C1516 O1517 1.247 . S
O1517 C1516 1.247 . S
C1518 O1530 1.242 . S
C1518 O1531 1.258 . S
C1519 C1515 1.503 . S
C1519 C1520 1.379 . S
C1519 C1524 1.392 . S
C1520 C1519 1.379 . S
C1520 C1521 1.404 . S
C1520 H1534 0.929 . S
C1521 C1520 1.404 . S
C1521 C1522 1.389 . S
C1522 C1521 1.389 . S
C1522 C1523 1.399 . S
C1522 H1535 0.931 . S
C1523 C1522 1.399 . S
C1523 C1524 1.390 . S
C1524 C1519 1.392 . S
C1524 C1523 1.390 . S
C1524 H1536 0.929 . S
O1525 Tb1509 2.326 . S
O1525 C1513 1.242 . S
O1526 Eu1510 2.324 . S
O1526 C1513 1.258 . S
O1527 Tb1509 2.500 . S
O1527 C1529 1.273 . S
O1528 Tb1509 2.473 . S
O1528 C1529 1.257 . S
C1529 O1527 1.273 . S
C1529 O1528 1.257 . S
O1530 Eu1510 2.326 . S
O1530 C1518 1.242 . S
O1531 Tb1509 2.324 . S
O1531 C1518 1.258 . S
O1532 Eu1510 2.500 . S
O1532 C1515 1.273 . S
O1533 Eu1510 2.473 . S
O1533 C1515 1.257 . S
H1534 C1520 0.929 . S
H1535 C1522 0.931 . S
H1536 C1524 0.929 . S
O1537 Tb1538 2.292 . S
O1537 C1540 1.255 . S
Tb1538 O1537 2.292 . S
Tb1538 O1554 2.326 . S
Tb1538 O1556 2.500 . S
Tb1538 O1557 2.473 . S
Tb1538 O1560 2.324 . S
Eu1539 O1543 2.292 . S
Eu1539 C1544 2.852 . S
Eu1539 O1555 2.324 . S
Eu1539 O1559 2.326 . S
Eu1539 O1561 2.500 . S
Eu1539 O1562 2.473 . S
C1540 O1537 1.255 . S
C1540 O1541 1.247 . S
O1541 C1540 1.247 . S
C1542 O1554 1.242 . S
C1542 O1555 1.258 . S
O1543 Eu1539 2.292 . S
O1543 C1545 1.255 . S
C1544 Eu1539 2.852 . S
C1544 C1548 1.503 . S
C1544 O1561 1.273 . S
C1544 O1562 1.257 . S
C1545 O1543 1.255 . S
C1545 O1546 1.247 . S
O1546 C1545 1.247 . S
C1547 O1559 1.242 . S
C1547 O1560 1.258 . S
C1548 C1544 1.503 . S
C1548 C1549 1.379 . S
C1548 C1553 1.392 . S
C1549 C1548 1.379 . S
C1549 C1550 1.404 . S
C1549 H1563 0.929 . S
C1550 C1549 1.404 . S
C1550 C1551 1.389 . S
C1551 C1550 1.389 . S
C1551 C1552 1.399 . S
C1551 H1564 0.931 . S
C1552 C1551 1.399 . S
C1552 C1553 1.390 . S
C1553 C1548 1.392 . S
C1553 C1552 1.390 . S
C1553 H1565 0.929 . S
O1554 Tb1538 2.326 . S
O1554 C1542 1.242 . S
O1555 Eu1539 2.324 . S
O1555 C1542 1.258 . S
O1556 Tb1538 2.500 . S
O1556 C1558 1.273 . S
O1557 Tb1538 2.473 . S
O1557 C1558 1.257 . S
C1558 O1556 1.273 . S
C1558 O1557 1.257 . S
O1559 Eu1539 2.326 . S
O1559 C1547 1.242 . S
O1560 Tb1538 2.324 . S
O1560 C1547 1.258 . S
O1561 Eu1539 2.500 . S
O1561 C1544 1.273 . S
O1562 Eu1539 2.473 . S
O1562 C1544 1.257 . S
H1563 C1549 0.929 . S
H1564 C1551 0.931 . S
H1565 C1553 0.929 . S
O1566 Tb1567 2.292 . S
O1566 C1569 1.255 . S
Tb1567 O1566 2.292 . S
Tb1567 O1583 2.326 . S
Tb1567 O1585 2.500 . S
Tb1567 O1586 2.473 . S
Tb1567 O1589 2.324 . S
Eu1568 O1572 2.292 . S
Eu1568 C1573 2.852 . S
Eu1568 O1584 2.324 . S
Eu1568 O1588 2.326 . S
Eu1568 O1590 2.500 . S
Eu1568 O1591 2.473 . S
C1569 O1566 1.255 . S
C1569 O1570 1.247 . S
O1570 C1569 1.247 . S
C1571 O1583 1.242 . S
C1571 O1584 1.258 . S
O1572 Eu1568 2.292 . S
O1572 C1574 1.255 . S
C1573 Eu1568 2.852 . S
C1573 C1577 1.503 . S
C1573 O1590 1.273 . S
C1573 O1591 1.257 . S
C1574 O1572 1.255 . S
C1574 O1575 1.247 . S
O1575 C1574 1.247 . S
C1576 O1588 1.242 . S
C1576 O1589 1.258 . S
C1577 C1573 1.503 . S
C1577 C1578 1.379 . S
C1577 C1582 1.392 . S
C1578 C1577 1.379 . S
C1578 C1579 1.404 . S
C1578 H1592 0.929 . S
C1579 C1578 1.404 . S
C1579 C1580 1.389 . S
C1580 C1579 1.389 . S
C1580 C1581 1.399 . S
C1580 H1593 0.931 . S
C1581 C1580 1.399 . S
C1581 C1582 1.390 . S
C1582 C1577 1.392 . S
C1582 C1581 1.390 . S
C1582 H1594 0.929 . S
O1583 Tb1567 2.326 . S
O1583 C1571 1.242 . S
O1584 Eu1568 2.324 . S
O1584 C1571 1.258 . S
O1585 Tb1567 2.500 . S
O1585 C1587 1.273 . S
O1586 Tb1567 2.473 . S
O1586 C1587 1.257 . S
C1587 O1585 1.273 . S
C1587 O1586 1.257 . S
O1588 Eu1568 2.326 . S
O1588 C1576 1.242 . S
O1589 Tb1567 2.324 . S
O1589 C1576 1.258 . S
O1590 Eu1568 2.500 . S
O1590 C1573 1.273 . S
O1591 Eu1568 2.473 . S
O1591 C1573 1.257 . S
H1592 C1578 0.929 . S
H1593 C1580 0.931 . S
H1594 C1582 0.929 . S
O1595 Tb1596 2.292 1_565 S
O1595 C1598 1.255 . S
Tb1596 O1595 2.292 1_545 S
Tb1596 O1612 2.326 . S
Tb1596 O1614 2.500 . S
Tb1596 O1615 2.473 . S
Tb1596 O1618 2.324 . S
Eu1597 O1601 2.292 . S
Eu1597 C1602 2.852 . S
Eu1597 O1613 2.324 . S
Eu1597 O1617 2.326 . S
Eu1597 O1619 2.500 . S
Eu1597 O1620 2.473 . S
C1598 O1595 1.255 . S
C1598 O1599 1.247 . S
O1599 C1598 1.247 . S
C1600 O1612 1.242 . S
C1600 O1613 1.258 . S
O1601 Eu1597 2.292 . S
O1601 C1603 1.255 . S
C1602 Eu1597 2.852 . S
C1602 C1606 1.503 . S
C1602 O1619 1.273 . S
C1602 O1620 1.257 . S
C1603 O1601 1.255 . S
C1603 O1604 1.247 . S
O1604 C1603 1.247 . S
C1605 O1617 1.242 . S
C1605 O1618 1.258 . S
C1606 C1602 1.503 . S
C1606 C1607 1.379 . S
C1606 C1611 1.392 . S
C1607 C1606 1.379 . S
C1607 C1608 1.404 . S
C1607 H1621 0.929 . S
C1608 C1607 1.404 . S
C1608 C1609 1.389 . S
C1609 C1608 1.389 . S
C1609 C1610 1.399 . S
C1609 H1622 0.931 . S
C1610 C1609 1.399 . S
C1610 C1611 1.390 . S
C1611 C1606 1.392 . S
C1611 C1610 1.390 . S
C1611 H1623 0.929 . S
O1612 Tb1596 2.326 . S
O1612 C1600 1.242 . S
O1613 Eu1597 2.324 . S
O1613 C1600 1.258 . S
O1614 Tb1596 2.500 . S
O1614 C1616 1.273 . S
O1615 Tb1596 2.473 . S
O1615 C1616 1.257 . S
C1616 O1614 1.273 . S
C1616 O1615 1.257 . S
O1617 Eu1597 2.326 . S
O1617 C1605 1.242 . S
O1618 Tb1596 2.324 . S
O1618 C1605 1.258 . S
O1619 Eu1597 2.500 . S
O1619 C1602 1.273 . S
O1620 Eu1597 2.473 . S
O1620 C1602 1.257 . S
H1621 C1607 0.929 . S
H1622 C1609 0.931 . S
H1623 C1611 0.929 . S
O1624 Tb1625 2.292 . S
O1624 C1627 1.255 . S
Tb1625 O1624 2.292 . S
Tb1625 O1641 2.326 . S
Tb1625 O1643 2.500 . S
Tb1625 O1644 2.473 . S
Tb1625 O1647 2.324 . S
Eu1626 O1630 2.292 . S
Eu1626 C1631 2.852 . S
Eu1626 O1642 2.324 . S
Eu1626 O1646 2.326 . S
Eu1626 O1648 2.500 . S
Eu1626 O1649 2.473 . S
C1627 O1624 1.255 . S
C1627 O1628 1.247 . S
O1628 C1627 1.247 . S
C1629 O1641 1.242 . S
C1629 O1642 1.258 . S
O1630 Eu1626 2.292 . S
O1630 C1632 1.255 . S
C1631 Eu1626 2.852 . S
C1631 C1635 1.503 . S
C1631 O1648 1.273 . S
C1631 O1649 1.257 . S
C1632 O1630 1.255 . S
C1632 O1633 1.247 . S
O1633 C1632 1.247 . S
C1634 O1646 1.242 . S
C1634 O1647 1.258 . S
C1635 C1631 1.503 . S
C1635 C1636 1.379 . S
C1635 C1640 1.392 . S
C1636 C1635 1.379 . S
C1636 C1637 1.404 . S
C1636 H1650 0.929 . S
C1637 C1636 1.404 . S
C1637 C1638 1.389 . S
C1638 C1637 1.389 . S
C1638 C1639 1.399 . S
C1638 H1651 0.931 . S
C1639 C1638 1.399 . S
C1639 C1640 1.390 . S
C1640 C1635 1.392 . S
C1640 C1639 1.390 . S
C1640 H1652 0.929 . S
O1641 Tb1625 2.326 . S
O1641 C1629 1.242 . S
O1642 Eu1626 2.324 . S
O1642 C1629 1.258 . S
O1643 Tb1625 2.500 . S
O1643 C1645 1.273 . S
O1644 Tb1625 2.473 . S
O1644 C1645 1.257 . S
C1645 O1643 1.273 . S
C1645 O1644 1.257 . S
O1646 Eu1626 2.326 . S
O1646 C1634 1.242 . S
O1647 Tb1625 2.324 . S
O1647 C1634 1.258 . S
O1648 Eu1626 2.500 . S
O1648 C1631 1.273 . S
O1649 Eu1626 2.473 . S
O1649 C1631 1.257 . S
H1650 C1636 0.929 . S
H1651 C1638 0.931 . S
H1652 C1640 0.929 . S
O1653 Tb1654 2.292 . S
O1653 C1656 1.255 . S
Tb1654 O1653 2.292 . S
Tb1654 O1670 2.326 . S
Tb1654 O1672 2.500 . S
Tb1654 O1673 2.473 . S
Tb1654 O1676 2.324 . S
Eu1655 O1659 2.292 . S
Eu1655 C1660 2.852 . S
Eu1655 O1671 2.324 . S
Eu1655 O1675 2.326 . S
Eu1655 O1677 2.500 . S
Eu1655 O1678 2.473 . S
C1656 O1653 1.255 . S
C1656 O1657 1.247 . S
O1657 C1656 1.247 . S
C1658 O1670 1.242 . S
C1658 O1671 1.258 . S
O1659 Eu1655 2.292 . S
O1659 C1661 1.255 . S
C1660 Eu1655 2.852 . S
C1660 C1664 1.503 . S
C1660 O1677 1.273 . S
C1660 O1678 1.257 . S
C1661 O1659 1.255 . S
C1661 O1662 1.247 . S
O1662 C1661 1.247 . S
C1663 O1675 1.242 . S
C1663 O1676 1.258 . S
C1664 C1660 1.503 . S
C1664 C1665 1.379 . S
C1664 C1669 1.392 . S
C1665 C1664 1.379 . S
C1665 C1666 1.404 . S
C1665 H1679 0.929 . S
C1666 C1665 1.404 . S
C1666 C1667 1.389 . S
C1667 C1666 1.389 . S
C1667 C1668 1.399 . S
C1667 H1680 0.931 . S
C1668 C1667 1.399 . S
C1668 C1669 1.390 . S
C1669 C1664 1.392 . S
C1669 C1668 1.390 . S
C1669 H1681 0.929 . S
O1670 Tb1654 2.326 . S
O1670 C1658 1.242 . S
O1671 Eu1655 2.324 . S
O1671 C1658 1.258 . S
O1672 Tb1654 2.500 . S
O1672 C1674 1.273 . S
O1673 Tb1654 2.473 . S
O1673 C1674 1.257 . S
C1674 O1672 1.273 . S
C1674 O1673 1.257 . S
O1675 Eu1655 2.326 . S
O1675 C1663 1.242 . S
O1676 Tb1654 2.324 . S
O1676 C1663 1.258 . S
O1677 Eu1655 2.500 . S
O1677 C1660 1.273 . S
O1678 Eu1655 2.473 . S
O1678 C1660 1.257 . S
H1679 C1665 0.929 . S
H1680 C1667 0.931 . S
H1681 C1669 0.929 . S
O1682 Tb1683 2.292 . S
O1682 C1685 1.255 . S
Tb1683 O1682 2.292 . S
Tb1683 O1699 2.326 . S
Tb1683 O1701 2.500 . S
Tb1683 O1702 2.473 . S
Tb1683 O1705 2.324 . S
Eu1684 O1688 2.292 . S
Eu1684 C1689 2.852 . S
Eu1684 O1700 2.324 . S
Eu1684 O1704 2.326 . S
Eu1684 O1706 2.500 . S
Eu1684 O1707 2.473 . S
C1685 O1682 1.255 . S
C1685 O1686 1.247 . S
O1686 C1685 1.247 . S
C1687 O1699 1.242 . S
C1687 O1700 1.258 . S
O1688 Eu1684 2.292 . S
O1688 C1690 1.255 . S
C1689 Eu1684 2.852 . S
C1689 C1693 1.503 . S
C1689 O1706 1.273 . S
C1689 O1707 1.257 . S
C1690 O1688 1.255 . S
C1690 O1691 1.247 . S
O1691 C1690 1.247 . S
C1692 O1704 1.242 . S
C1692 O1705 1.258 . S
C1693 C1689 1.503 . S
C1693 C1694 1.379 . S
C1693 C1698 1.392 . S
C1694 C1693 1.379 . S
C1694 C1695 1.404 . S
C1694 H1708 0.929 . S
C1695 C1694 1.404 . S
C1695 C1696 1.389 . S
C1696 C1695 1.389 . S
C1696 C1697 1.399 . S
C1696 H1709 0.931 . S
C1697 C1696 1.399 . S
C1697 C1698 1.390 . S
C1698 C1693 1.392 . S
C1698 C1697 1.390 . S
C1698 H1710 0.929 . S
O1699 Tb1683 2.326 . S
O1699 C1687 1.242 . S
O1700 Eu1684 2.324 . S
O1700 C1687 1.258 . S
O1701 Tb1683 2.500 . S
O1701 C1703 1.273 . S
O1702 Tb1683 2.473 . S
O1702 C1703 1.257 . S
C1703 O1701 1.273 . S
C1703 O1702 1.257 . S
O1704 Eu1684 2.326 . S
O1704 C1692 1.242 . S
O1705 Tb1683 2.324 . S
O1705 C1692 1.258 . S
O1706 Eu1684 2.500 . S
O1706 C1689 1.273 . S
O1707 Eu1684 2.473 . S
O1707 C1689 1.257 . S
H1708 C1694 0.929 . S
H1709 C1696 0.931 . S
H1710 C1698 0.929 . S
O1711 Tb1712 2.292 . S
O1711 C1714 1.255 . S
Tb1712 O1711 2.292 . S
Tb1712 O1728 2.326 . S
Tb1712 O1730 2.500 . S
Tb1712 O1731 2.473 . S
Tb1712 O1734 2.324 . S
Eu1713 O1717 2.292 . S
Eu1713 C1718 2.852 . S
Eu1713 O1729 2.324 . S
Eu1713 O1733 2.326 . S
Eu1713 O1735 2.500 . S
Eu1713 O1736 2.473 . S
C1714 O1711 1.255 . S
C1714 O1715 1.247 . S
O1715 C1714 1.247 . S
C1716 O1728 1.242 . S
C1716 O1729 1.258 . S
O1717 Eu1713 2.292 . S
O1717 C1719 1.255 . S
C1718 Eu1713 2.852 . S
C1718 C1722 1.503 . S
C1718 O1735 1.273 . S
C1718 O1736 1.257 . S
C1719 O1717 1.255 . S
C1719 O1720 1.247 . S
O1720 C1719 1.247 . S
C1721 O1733 1.242 . S
C1721 O1734 1.258 . S
C1722 C1718 1.503 . S
C1722 C1723 1.379 . S
C1722 C1727 1.392 . S
C1723 C1722 1.379 . S
C1723 C1724 1.404 . S
C1723 H1737 0.929 . S
C1724 C1723 1.404 . S
C1724 C1725 1.389 . S
C1725 C1724 1.389 . S
C1725 C1726 1.399 . S
C1725 H1738 0.931 . S
C1726 C1725 1.399 . S
C1726 C1727 1.390 . S
C1727 C1722 1.392 . S
C1727 C1726 1.390 . S
C1727 H1739 0.929 . S
O1728 Tb1712 2.326 . S
O1728 C1716 1.242 . S
O1729 Eu1713 2.324 . S
O1729 C1716 1.258 . S
O1730 Tb1712 2.500 . S
O1730 C1732 1.273 . S
O1731 Tb1712 2.473 . S
O1731 C1732 1.257 . S
C1732 O1730 1.273 . S
C1732 O1731 1.257 . S
O1733 Eu1713 2.326 . S
O1733 C1721 1.242 . S
O1734 Tb1712 2.324 . S
O1734 C1721 1.258 . S
O1735 Eu1713 2.500 . S
O1735 C1718 1.273 . S
O1736 Eu1713 2.473 . S
O1736 C1718 1.257 . S
H1737 C1723 0.929 . S
H1738 C1725 0.931 . S
H1739 C1727 0.929 . S
O1740 Tb1741 2.292 . S
O1740 C1743 1.255 . S
Tb1741 O1740 2.292 . S
Tb1741 O1757 2.326 . S
Tb1741 O1759 2.500 . S
Tb1741 O1760 2.473 . S
Tb1741 O1763 2.324 . S
Eu1742 O1746 2.292 . S
Eu1742 C1747 2.852 . S
Eu1742 O1758 2.324 . S
Eu1742 O1762 2.326 . S
Eu1742 O1764 2.500 . S
Eu1742 O1765 2.473 . S
C1743 O1740 1.255 . S
C1743 O1744 1.247 . S
O1744 C1743 1.247 . S
C1745 O1757 1.242 . S
C1745 O1758 1.258 . S
O1746 Eu1742 2.292 . S
O1746 C1748 1.255 . S
C1747 Eu1742 2.852 . S
C1747 C1751 1.503 . S
C1747 O1764 1.273 . S
C1747 O1765 1.257 . S
C1748 O1746 1.255 . S
C1748 O1749 1.247 . S
O1749 C1748 1.247 . S
C1750 O1762 1.242 . S
C1750 O1763 1.258 . S
C1751 C1747 1.503 . S
C1751 C1752 1.379 . S
C1751 C1756 1.392 . S
C1752 C1751 1.379 . S
C1752 C1753 1.404 . S
C1752 H1766 0.929 . S
C1753 C1752 1.404 . S
C1753 C1754 1.389 . S
C1754 C1753 1.389 . S
C1754 C1755 1.399 . S
C1754 H1767 0.931 . S
C1755 C1754 1.399 . S
C1755 C1756 1.390 . S
C1756 C1751 1.392 . S
C1756 C1755 1.390 . S
C1756 H1768 0.929 . S
O1757 Tb1741 2.326 . S
O1757 C1745 1.242 . S
O1758 Eu1742 2.324 . S
O1758 C1745 1.258 . S
O1759 Tb1741 2.500 . S
O1759 C1761 1.273 . S
O1760 Tb1741 2.473 . S
O1760 C1761 1.257 . S
C1761 O1759 1.273 . S
C1761 O1760 1.257 . S
O1762 Eu1742 2.326 . S
O1762 C1750 1.242 . S
O1763 Tb1741 2.324 . S
O1763 C1750 1.258 . S
O1764 Eu1742 2.500 . S
O1764 C1747 1.273 . S
O1765 Eu1742 2.473 . S
O1765 C1747 1.257 . S
H1766 C1752 0.929 . S
H1767 C1754 0.931 . S
H1768 C1756 0.929 . S
O1769 Tb1770 2.292 . S
O1769 C1772 1.255 . S
Tb1770 O1769 2.292 . S
Tb1770 O1786 2.326 . S
Tb1770 O1788 2.500 . S
Tb1770 O1789 2.473 . S
Tb1770 O1792 2.324 . S
Eu1771 O1775 2.292 . S
Eu1771 C1776 2.852 . S
Eu1771 O1787 2.324 . S
Eu1771 O1791 2.326 . S
Eu1771 O1793 2.500 . S
Eu1771 O1794 2.473 . S
C1772 O1769 1.255 . S
C1772 O1773 1.247 . S
O1773 C1772 1.247 . S
C1774 O1786 1.242 . S
C1774 O1787 1.258 . S
O1775 Eu1771 2.292 . S
O1775 C1777 1.255 . S
C1776 Eu1771 2.852 . S
C1776 C1780 1.503 . S
C1776 O1793 1.273 . S
C1776 O1794 1.257 . S
C1777 O1775 1.255 . S
C1777 O1778 1.247 . S
O1778 C1777 1.247 . S
C1779 O1791 1.242 . S
C1779 O1792 1.258 . S
C1780 C1776 1.503 . S
C1780 C1781 1.379 . S
C1780 C1785 1.392 . S
C1781 C1780 1.379 . S
C1781 C1782 1.404 1_545 S
C1781 H1795 0.929 . S
C1782 C1781 1.404 1_565 S
C1782 C1783 1.389 . S
C1783 C1782 1.389 . S
C1783 C1784 1.388 1_565 S
C1783 H1796 0.931 . S
C1784 C1783 1.388 1_545 S
C1784 C1785 1.408 . S
C1785 C1780 1.392 . S
C1785 C1784 1.408 . S
C1785 H1797 0.929 . S
O1786 Tb1770 2.326 . S
O1786 C1774 1.242 . S
O1787 Eu1771 2.324 . S
O1787 C1774 1.258 . S
O1788 Tb1770 2.500 . S
O1788 C1790 1.273 . S
O1789 Tb1770 2.473 . S
O1789 C1790 1.257 . S
C1790 O1788 1.273 . S
C1790 O1789 1.257 . S
O1791 Eu1771 2.326 . S
O1791 C1779 1.242 . S
O1792 Tb1770 2.324 . S
O1792 C1779 1.258 . S
O1793 Eu1771 2.500 . S
O1793 C1776 1.273 . S
O1794 Eu1771 2.473 . S
O1794 C1776 1.257 . S
H1795 C1781 0.929 . S
H1796 C1783 0.931 . S
H1797 C1785 0.929 . S
O1798 Tb1799 2.292 . S
O1798 C1801 1.255 . S
Tb1799 O1798 2.292 . S
Tb1799 O1815 2.326 . S
Tb1799 O1817 2.500 . S
Tb1799 O1818 2.473 . S
Tb1799 O1821 2.324 . S
Eu1800 O1804 2.292 . S
Eu1800 C1805 2.852 . S
Eu1800 O1816 2.324 . S
Eu1800 O1820 2.326 . S
Eu1800 O1822 2.500 . S
Eu1800 O1823 2.473 . S
C1801 O1798 1.255 . S
C1801 O1802 1.247 . S
O1802 C1801 1.247 . S
C1803 O1815 1.242 . S
C1803 O1816 1.258 . S
O1804 Eu1800 2.292 . S
O1804 C1806 1.255 . S
C1805 Eu1800 2.852 . S
C1805 C1809 1.503 . S
C1805 O1822 1.273 . S
C1805 O1823 1.257 . S
C1806 O1804 1.255 . S
C1806 O1807 1.247 . S
O1807 C1806 1.247 . S
C1808 O1820 1.242 . S
C1808 O1821 1.258 . S
C1809 C1805 1.503 . S
C1809 C1810 1.379 . S
C1809 C1814 1.392 . S
C1810 C1809 1.379 . S
C1810 C1811 1.404 1_545 S
C1810 H1824 0.929 . S
C1811 C1810 1.404 1_565 S
C1811 C1812 1.389 . S
C1812 C1811 1.389 . S
C1812 C1813 1.388 1_565 S
C1812 H1825 0.931 . S
C1813 C1812 1.388 1_545 S
C1813 C1814 1.408 . S
C1814 C1809 1.392 . S
C1814 C1813 1.408 . S
C1814 H1826 0.929 . S
O1815 Tb1799 2.326 . S
O1815 C1803 1.242 . S
O1816 Eu1800 2.324 . S
O1816 C1803 1.258 . S
O1817 Tb1799 2.500 . S
O1817 C1819 1.273 . S
O1818 Tb1799 2.473 . S
O1818 C1819 1.257 . S
C1819 O1817 1.273 . S
C1819 O1818 1.257 . S
O1820 Eu1800 2.326 . S
O1820 C1808 1.242 . S
O1821 Tb1799 2.324 . S
O1821 C1808 1.258 . S
O1822 Eu1800 2.500 . S
O1822 C1805 1.273 . S
O1823 Eu1800 2.473 . S
O1823 C1805 1.257 . S
H1824 C1810 0.929 . S
H1825 C1812 0.931 . S
H1826 C1814 0.929 . S
O1827 Tb1828 2.292 . S
O1827 C1830 1.255 . S
Tb1828 O1827 2.292 . S
Tb1828 O1844 2.326 . S
Tb1828 O1846 2.500 . S
Tb1828 O1847 2.473 . S
Tb1828 O1850 2.324 . S
Eu1829 O1833 2.292 . S
Eu1829 C1834 2.852 . S
Eu1829 O1845 2.324 . S
Eu1829 O1849 2.326 . S
Eu1829 O1851 2.500 . S
Eu1829 O1852 2.473 . S
C1830 O1827 1.255 . S
C1830 O1831 1.247 . S
O1831 C1830 1.247 . S
C1832 O1844 1.242 . S
C1832 O1845 1.258 . S
O1833 Eu1829 2.292 . S
O1833 C1835 1.255 . S
C1834 Eu1829 2.852 . S
C1834 C1838 1.503 . S
C1834 O1851 1.273 . S
C1834 O1852 1.257 . S
C1835 O1833 1.255 . S
C1835 O1836 1.247 . S
O1836 C1835 1.247 . S
C1837 O1849 1.242 . S
C1837 O1850 1.258 . S
C1838 C1834 1.503 . S
C1838 C1839 1.379 . S
C1838 C1843 1.392 . S
C1839 C1838 1.379 . S
C1839 C1840 1.404 . S
C1839 H1853 0.929 . S
C1840 C1839 1.404 . S
C1840 C1841 1.389 . S
C1841 C1840 1.389 . S
C1841 C1842 1.399 . S
C1841 H1854 0.931 . S
C1842 C1841 1.399 . S
C1842 C1843 1.390 . S
C1843 C1838 1.392 . S
C1843 C1842 1.390 . S
C1843 H1855 0.929 . S
O1844 Tb1828 2.326 . S
O1844 C1832 1.242 . S
O1845 Eu1829 2.324 . S
O1845 C1832 1.258 . S
O1846 Tb1828 2.500 . S
O1846 C1848 1.273 . S
O1847 Tb1828 2.473 . S
O1847 C1848 1.257 . S
C1848 O1846 1.273 . S
C1848 O1847 1.257 . S
O1849 Eu1829 2.326 . S
O1849 C1837 1.242 . S
O1850 Tb1828 2.324 . S
O1850 C1837 1.258 . S
O1851 Eu1829 2.500 . S
O1851 C1834 1.273 . S
O1852 Eu1829 2.473 . S
O1852 C1834 1.257 . S
H1853 C1839 0.929 . S
H1854 C1841 0.931 . S
H1855 C1843 0.929 . S
O1856 Tb1857 2.292 1_545 S
O1856 C1859 1.255 . S
Tb1857 O1856 2.292 1_565 S
Tb1857 O1873 2.326 . S
Tb1857 O1875 2.500 . S
Tb1857 O1876 2.473 . S
Tb1857 O1879 2.324 . S
Eu1858 O1862 2.292 . S
Eu1858 C1863 2.852 . S
Eu1858 O1874 2.324 . S
Eu1858 O1878 2.326 . S
Eu1858 O1880 2.500 . S
Eu1858 O1881 2.473 . S
C1859 O1856 1.255 . S
C1859 O1860 1.247 . S
O1860 C1859 1.247 . S
C1861 O1873 1.242 . S
C1861 O1874 1.258 . S
O1862 Eu1858 2.292 . S
O1862 C1864 1.255 . S
C1863 Eu1858 2.852 . S
C1863 C1867 1.503 . S
C1863 O1880 1.273 . S
C1863 O1881 1.257 . S
C1864 O1862 1.255 . S
C1864 O1865 1.247 . S
O1865 C1864 1.247 . S
C1866 O1878 1.242 . S
C1866 O1879 1.258 . S
C1867 C1863 1.503 . S
C1867 C1868 1.379 . S
C1867 C1872 1.392 . S
C1868 C1867 1.379 . S
C1868 C1869 1.404 . S
C1868 H1882 0.929 . S
C1869 C1868 1.404 . S
C1869 C1870 1.389 . S
C1870 C1869 1.389 . S
C1870 C1871 1.399 . S
C1870 H1883 0.931 . S
C1871 C1870 1.399 . S
C1871 C1872 1.390 . S
C1872 C1867 1.392 . S
C1872 C1871 1.390 . S
C1872 H1884 0.929 . S
O1873 Tb1857 2.326 . S
O1873 C1861 1.242 . S
O1874 Eu1858 2.324 . S
O1874 C1861 1.258 . S
O1875 Tb1857 2.500 . S
O1875 C1877 1.273 . S
O1876 Tb1857 2.473 . S
O1876 C1877 1.257 . S
C1877 O1875 1.273 . S
C1877 O1876 1.257 . S
O1878 Eu1858 2.326 . S
O1878 C1866 1.242 . S
O1879 Tb1857 2.324 . S
O1879 C1866 1.258 . S
O1880 Eu1858 2.500 . S
O1880 C1863 1.273 . S
O1881 Eu1858 2.473 . S
O1881 C1863 1.257 . S
H1882 C1868 0.929 . S
H1883 C1870 0.931 . S
H1884 C1872 0.929 . S
O1885 Tb1886 2.292 . S
O1885 C1888 1.255 . S
Tb1886 O1885 2.292 . S
Tb1886 O1902 2.326 . S
Tb1886 O1904 2.500 . S
Tb1886 O1905 2.473 . S
Tb1886 O1908 2.324 . S
Eu1887 O1891 2.292 . S
Eu1887 C1892 2.852 . S
Eu1887 O1903 2.324 . S
Eu1887 O1907 2.326 . S
Eu1887 O1909 2.500 . S
Eu1887 O1910 2.473 . S
C1888 O1885 1.255 . S
C1888 O1889 1.247 . S
O1889 C1888 1.247 . S
C1890 O1902 1.242 . S
C1890 O1903 1.258 . S
O1891 Eu1887 2.292 . S
O1891 C1893 1.255 . S
C1892 Eu1887 2.852 . S
C1892 C1896 1.503 . S
C1892 O1909 1.273 . S
C1892 O1910 1.257 . S
C1893 O1891 1.255 . S
C1893 O1894 1.247 . S
O1894 C1893 1.247 . S
C1895 O1907 1.242 . S
C1895 O1908 1.258 . S
C1896 C1892 1.503 . S
C1896 C1897 1.379 . S
C1896 C1901 1.392 . S
C1897 C1896 1.379 . S
C1897 C1898 1.404 . S
C1897 H1911 0.929 . S
C1898 C1897 1.404 . S
C1898 C1899 1.389 . S
C1899 C1898 1.389 . S
C1899 C1900 1.399 . S
C1899 H1912 0.931 . S
C1900 C1899 1.399 . S
C1900 C1901 1.390 . S
C1901 C1896 1.392 . S
C1901 C1900 1.390 . S
C1901 H1913 0.929 . S
O1902 Tb1886 2.326 . S
O1902 C1890 1.242 . S
O1903 Eu1887 2.324 . S
O1903 C1890 1.258 . S
O1904 Tb1886 2.500 . S
O1904 C1906 1.273 . S
O1905 Tb1886 2.473 . S
O1905 C1906 1.257 . S
C1906 O1904 1.273 . S
C1906 O1905 1.257 . S
O1907 Eu1887 2.326 . S
O1907 C1895 1.242 . S
O1908 Tb1886 2.324 . S
O1908 C1895 1.258 . S
O1909 Eu1887 2.500 . S
O1909 C1892 1.273 . S
O1910 Eu1887 2.473 . S
O1910 C1892 1.257 . S
H1911 C1897 0.929 . S
H1912 C1899 0.931 . S
H1913 C1901 0.929 . S
O1914 Tb1915 2.292 . S
O1914 C1917 1.255 . S
Tb1915 O1914 2.292 . S
Tb1915 O1931 2.326 . S
Tb1915 O1933 2.500 . S
Tb1915 O1934 2.473 . S
Tb1915 O1937 2.324 . S
Eu1916 O1920 2.292 . S
Eu1916 C1921 2.852 . S
Eu1916 O1932 2.324 . S
Eu1916 O1936 2.326 . S
Eu1916 O1938 2.500 . S
Eu1916 O1939 2.473 . S
C1917 O1914 1.255 . S
C1917 O1918 1.247 . S
O1918 C1917 1.247 . S
C1919 O1931 1.242 . S
C1919 O1932 1.258 . S
O1920 Eu1916 2.292 . S
O1920 C1922 1.255 . S
C1921 Eu1916 2.852 . S
C1921 C1925 1.503 . S
C1921 O1938 1.273 . S
C1921 O1939 1.257 . S
C1922 O1920 1.255 . S
C1922 O1923 1.247 . S
O1923 C1922 1.247 . S
C1924 O1936 1.242 . S
C1924 O1937 1.258 . S
C1925 C1921 1.503 . S
C1925 C1926 1.379 . S
C1925 C1930 1.392 . S
C1926 C1925 1.379 . S
C1926 C1927 1.404 . S
C1926 H1940 0.929 . S
C1927 C1926 1.404 . S
C1927 C1928 1.389 . S
C1928 C1927 1.389 . S
C1928 C1929 1.399 . S
C1928 H1941 0.931 . S
C1929 C1928 1.399 . S
C1929 C1930 1.390 . S
C1930 C1925 1.392 . S
C1930 C1929 1.390 . S
C1930 H1942 0.929 . S
O1931 Tb1915 2.326 . S
O1931 C1919 1.242 . S
O1932 Eu1916 2.324 . S
O1932 C1919 1.258 . S
O1933 Tb1915 2.500 . S
O1933 C1935 1.273 . S
O1934 Tb1915 2.473 . S
O1934 C1935 1.257 . S
C1935 O1933 1.273 . S
C1935 O1934 1.257 . S
O1936 Eu1916 2.326 . S
O1936 C1924 1.242 . S
O1937 Tb1915 2.324 . S
O1937 C1924 1.258 . S
O1938 Eu1916 2.500 . S
O1938 C1921 1.273 . S
O1939 Eu1916 2.473 . S
O1939 C1921 1.257 . S
H1940 C1926 0.929 . S
H1941 C1928 0.931 . S
H1942 C1930 0.929 . S
O1943 Tb1944 2.292 1_545 S
O1943 C1946 1.255 . S
Tb1944 O1943 2.292 1_565 S
Tb1944 O1960 2.326 . S
Tb1944 O1962 2.500 . S
Tb1944 O1963 2.473 . S
Tb1944 O1966 2.324 . S
Eu1945 O1949 2.292 . S
Eu1945 C1950 2.852 . S
Eu1945 O1961 2.324 . S
Eu1945 O1965 2.326 . S
Eu1945 O1967 2.500 . S
Eu1945 O1968 2.473 . S
C1946 O1943 1.255 . S
C1946 O1947 1.247 . S
O1947 C1946 1.247 . S
C1948 O1960 1.242 . S
C1948 O1961 1.258 . S
O1949 Eu1945 2.292 . S
O1949 C1951 1.255 . S
C1950 Eu1945 2.852 . S
C1950 C1954 1.503 . S
C1950 O1967 1.273 . S
C1950 O1968 1.257 . S
C1951 O1949 1.255 . S
C1951 O1952 1.247 . S
O1952 C1951 1.247 . S
C1953 O1965 1.242 . S
C1953 O1966 1.258 . S
C1954 C1950 1.503 . S
C1954 C1955 1.379 . S
C1954 C1959 1.392 . S
C1955 C1954 1.379 . S
C1955 C1956 1.404 . S
C1955 H1969 0.929 . S
C1956 C1955 1.404 . S
C1956 C1957 1.389 . S
C1957 C1956 1.389 . S
C1957 C1958 1.399 . S
C1957 H1970 0.931 . S
C1958 C1957 1.399 . S
C1958 C1959 1.390 . S
C1959 C1954 1.392 . S
C1959 C1958 1.390 . S
C1959 H1971 0.929 . S
O1960 Tb1944 2.326 . S
O1960 C1948 1.242 . S
O1961 Eu1945 2.324 . S
O1961 C1948 1.258 . S
O1962 Tb1944 2.500 . S
O1962 C1964 1.273 . S
O1963 Tb1944 2.473 . S
O1963 C1964 1.257 . S
C1964 O1962 1.273 . S
C1964 O1963 1.257 . S
O1965 Eu1945 2.326 . S
O1965 C1953 1.242 . S
O1966 Tb1944 2.324 . S
O1966 C1953 1.258 . S
O1967 Eu1945 2.500 . S
O1967 C1950 1.273 . S
O1968 Eu1945 2.473 . S
O1968 C1950 1.257 . S
H1969 C1955 0.929 . S
H1970 C1957 0.931 . S
H1971 C1959 0.929 . S
O1972 Tb1973 2.292 . S
O1972 C1975 1.255 . S
Tb1973 O1972 2.292 . S
Tb1973 O1989 2.326 . S
Tb1973 O1991 2.500 . S
Tb1973 O1992 2.473 . S
Tb1973 O1995 2.324 . S
Eu1974 O1978 2.292 . S
Eu1974 C1979 2.852 . S
Eu1974 O1990 2.324 . S
Eu1974 O1994 2.326 . S
Eu1974 O1996 2.500 . S
Eu1974 O1997 2.473 . S
C1975 O1972 1.255 . S
C1975 O1976 1.247 . S
O1976 C1975 1.247 . S
C1977 O1989 1.242 . S
C1977 O1990 1.258 . S
O1978 Eu1974 2.292 . S
O1978 C1980 1.255 . S
C1979 Eu1974 2.852 . S
C1979 C1983 1.503 . S
C1979 O1996 1.273 . S
C1979 O1997 1.257 . S
C1980 O1978 1.255 . S
C1980 O1981 1.247 . S
O1981 C1980 1.247 . S
C1982 O1994 1.242 . S
C1982 O1995 1.258 . S
C1983 C1979 1.503 . S
C1983 C1984 1.379 . S
C1983 C1988 1.392 . S
C1984 C1983 1.379 . S
C1984 C1985 1.404 . S
C1984 H1998 0.929 . S
C1985 C1984 1.404 . S
C1985 C1986 1.389 . S
C1986 C1985 1.389 . S
C1986 C1987 1.399 . S
C1986 H1999 0.931 . S
C1987 C1986 1.399 . S
C1987 C1988 1.390 . S
C1988 C1983 1.392 . S
C1988 C1987 1.390 . S
C1988 H2000 0.929 . S
O1989 Tb1973 2.326 . S
O1989 C1977 1.242 . S
O1990 Eu1974 2.324 . S
O1990 C1977 1.258 . S
O1991 Tb1973 2.500 . S
O1991 C1993 1.273 . S
O1992 Tb1973 2.473 . S
O1992 C1993 1.257 . S
C1993 O1991 1.273 . S
C1993 O1992 1.257 . S
O1994 Eu1974 2.326 . S
O1994 C1982 1.242 . S
O1995 Tb1973 2.324 . S
O1995 C1982 1.258 . S
O1996 Eu1974 2.500 . S
O1996 C1979 1.273 . S
O1997 Eu1974 2.473 . S
O1997 C1979 1.257 . S
H1998 C1984 0.929 . S
H1999 C1986 0.931 . S
H2000 C1988 0.929 . S
O2001 Tb2002 2.292 . S
O2001 C2004 1.255 . S
Tb2002 O2001 2.292 . S
Tb2002 O2018 2.326 . S
Tb2002 O2020 2.500 . S
Tb2002 O2021 2.473 . S
Tb2002 O2024 2.324 . S
Eu2003 O2007 2.292 . S
Eu2003 C2008 2.852 . S
Eu2003 O2019 2.324 . S
Eu2003 O2023 2.326 . S
Eu2003 O2025 2.500 . S
Eu2003 O2026 2.473 . S
C2004 O2001 1.255 . S
C2004 O2005 1.247 . S
O2005 C2004 1.247 . S
C2006 O2018 1.242 . S
C2006 O2019 1.258 . S
O2007 Eu2003 2.292 . S
O2007 C2009 1.255 . S
C2008 Eu2003 2.852 . S
C2008 C2012 1.503 . S
C2008 O2025 1.273 . S
C2008 O2026 1.257 . S
C2009 O2007 1.255 . S
C2009 O2010 1.247 . S
O2010 C2009 1.247 . S
C2011 O2023 1.242 . S
C2011 O2024 1.258 . S
C2012 C2008 1.503 . S
C2012 C2013 1.379 . S
C2012 C2017 1.392 . S
C2013 C2012 1.379 . S
C2013 C2014 1.404 . S
C2013 H2027 0.929 . S
C2014 C2013 1.404 . S
C2014 C2015 1.389 . S
C2015 C2014 1.389 . S
C2015 C2016 1.399 . S
C2015 H2028 0.931 . S
C2016 C2015 1.399 . S
C2016 C2017 1.390 . S
C2017 C2012 1.392 . S
C2017 C2016 1.390 . S
C2017 H2029 0.929 . S
O2018 Tb2002 2.326 . S
O2018 C2006 1.242 . S
O2019 Eu2003 2.324 . S
O2019 C2006 1.258 . S
O2020 Tb2002 2.500 . S
O2020 C2022 1.273 . S
O2021 Tb2002 2.473 . S
O2021 C2022 1.257 . S
C2022 O2020 1.273 . S
C2022 O2021 1.257 . S
O2023 Eu2003 2.326 . S
O2023 C2011 1.242 . S
O2024 Tb2002 2.324 . S
O2024 C2011 1.258 . S
O2025 Eu2003 2.500 . S
O2025 C2008 1.273 . S
O2026 Eu2003 2.473 . S
O2026 C2008 1.257 . S
H2027 C2013 0.929 . S
H2028 C2015 0.931 . S
H2029 C2017 0.929 . S
O2030 Tb2031 2.292 . S
O2030 C2033 1.255 . S
Tb2031 O2030 2.292 . S
Tb2031 O2047 2.326 . S
Tb2031 O2049 2.500 . S
Tb2031 O2050 2.473 . S
Tb2031 O2053 2.324 . S
Eu2032 O2036 2.292 . S
Eu2032 C2037 2.852 . S
Eu2032 O2048 2.324 . S
Eu2032 O2052 2.326 . S
Eu2032 O2054 2.500 . S
Eu2032 O2055 2.473 . S
C2033 O2030 1.255 . S
C2033 O2034 1.247 . S
O2034 C2033 1.247 . S
C2035 O2047 1.242 . S
C2035 O2048 1.258 . S
O2036 Eu2032 2.292 . S
O2036 C2038 1.255 . S
C2037 Eu2032 2.852 . S
C2037 C2041 1.503 . S
C2037 O2054 1.273 . S
C2037 O2055 1.257 . S
C2038 O2036 1.255 . S
C2038 O2039 1.247 . S
O2039 C2038 1.247 . S
C2040 O2052 1.242 . S
C2040 O2053 1.258 . S
C2041 C2037 1.503 . S
C2041 C2042 1.379 . S
C2041 C2046 1.392 . S
C2042 C2041 1.379 . S
C2042 C2043 1.404 . S
C2042 H2056 0.929 . S
C2043 C2042 1.404 . S
C2043 C2044 1.389 . S
C2044 C2043 1.389 . S
C2044 C2045 1.399 . S
C2044 H2057 0.931 . S
C2045 C2044 1.399 . S
C2045 C2046 1.390 . S
C2046 C2041 1.392 . S
C2046 C2045 1.390 . S
C2046 H2058 0.929 . S
O2047 Tb2031 2.326 . S
O2047 C2035 1.242 . S
O2048 Eu2032 2.324 . S
O2048 C2035 1.258 . S
O2049 Tb2031 2.500 . S
O2049 C2051 1.273 . S
O2050 Tb2031 2.473 . S
O2050 C2051 1.257 . S
C2051 O2049 1.273 . S
C2051 O2050 1.257 . S
O2052 Eu2032 2.326 . S
O2052 C2040 1.242 . S
O2053 Tb2031 2.324 . S
O2053 C2040 1.258 . S
O2054 Eu2032 2.500 . S
O2054 C2037 1.273 . S
O2055 Eu2032 2.473 . S
O2055 C2037 1.257 . S
H2056 C2042 0.929 . S
H2057 C2044 0.931 . S
H2058 C2046 0.929 . S
O2059 Tb2060 2.292 . S
O2059 C2062 1.255 . S
Tb2060 O2059 2.292 . S
Tb2060 O2076 2.326 . S
Tb2060 O2078 2.500 . S
Tb2060 O2079 2.473 . S
Tb2060 O2082 2.324 . S
Eu2061 O2065 2.292 . S
Eu2061 C2066 2.852 . S
Eu2061 O2077 2.324 . S
Eu2061 O2081 2.326 . S
Eu2061 O2083 2.500 . S
Eu2061 O2084 2.473 . S
C2062 O2059 1.255 . S
C2062 O2063 1.247 . S
O2063 C2062 1.247 . S
C2064 O2076 1.242 . S
C2064 O2077 1.258 . S
O2065 Eu2061 2.292 . S
O2065 C2067 1.255 . S
C2066 Eu2061 2.852 . S
C2066 C2070 1.503 . S
C2066 O2083 1.273 . S
C2066 O2084 1.257 . S
C2067 O2065 1.255 . S
C2067 O2068 1.247 . S
O2068 C2067 1.247 . S
C2069 O2081 1.242 . S
C2069 O2082 1.258 . S
C2070 C2066 1.503 . S
C2070 C2071 1.379 . S
C2070 C2075 1.392 . S
C2071 C2070 1.379 . S
C2071 C2072 1.404 . S
C2071 H2085 0.929 . S
C2072 C2071 1.404 . S
C2072 C2073 1.389 . S
C2073 C2072 1.389 . S
C2073 C2074 1.399 . S
C2073 H2086 0.931 . S
C2074 C2073 1.399 . S
C2074 C2075 1.390 . S
C2075 C2070 1.392 . S
C2075 C2074 1.390 . S
C2075 H2087 0.929 . S
O2076 Tb2060 2.326 . S
O2076 C2064 1.242 . S
O2077 Eu2061 2.324 . S
O2077 C2064 1.258 . S
O2078 Tb2060 2.500 . S
O2078 C2080 1.273 . S
O2079 Tb2060 2.473 . S
O2079 C2080 1.257 . S
C2080 O2078 1.273 . S
C2080 O2079 1.257 . S
O2081 Eu2061 2.326 . S
O2081 C2069 1.242 . S
O2082 Tb2060 2.324 . S
O2082 C2069 1.258 . S
O2083 Eu2061 2.500 . S
O2083 C2066 1.273 . S
O2084 Eu2061 2.473 . S
O2084 C2066 1.257 . S
H2085 C2071 0.929 . S
H2086 C2073 0.931 . S
H2087 C2075 0.929 . S
O2088 Tb2089 2.292 . S
O2088 C2091 1.255 . S
Tb2089 O2088 2.292 . S
Tb2089 O2105 2.326 . S
Tb2089 O2107 2.500 . S
Tb2089 O2108 2.473 . S
Tb2089 O2111 2.324 . S
Eu2090 O2094 2.292 . S
Eu2090 C2095 2.852 . S
Eu2090 O2106 2.324 . S
Eu2090 O2110 2.326 . S
Eu2090 O2112 2.500 . S
Eu2090 O2113 2.473 . S
C2091 O2088 1.255 . S
C2091 O2092 1.247 . S
O2092 C2091 1.247 . S
C2093 O2105 1.242 . S
C2093 O2106 1.258 . S
O2094 Eu2090 2.292 . S
O2094 C2096 1.255 . S
C2095 Eu2090 2.852 . S
C2095 C2099 1.503 . S
C2095 O2112 1.273 . S
C2095 O2113 1.257 . S
C2096 O2094 1.255 . S
C2096 O2097 1.247 . S
O2097 C2096 1.247 . S
C2098 O2110 1.242 . S
C2098 O2111 1.258 . S
C2099 C2095 1.503 . S
C2099 C2100 1.379 . S
C2099 C2104 1.392 . S
C2100 C2099 1.379 . S
C2100 C2101 1.404 . S
C2100 H2114 0.929 . S
C2101 C2100 1.404 . S
C2101 C2102 1.389 . S
C2102 C2101 1.389 . S
C2102 C2103 1.399 . S
C2102 H2115 0.931 . S
C2103 C2102 1.399 . S
C2103 C2104 1.390 . S
C2104 C2099 1.392 . S
C2104 C2103 1.390 . S
C2104 H2116 0.929 . S
O2105 Tb2089 2.326 . S
O2105 C2093 1.242 . S
O2106 Eu2090 2.324 . S
O2106 C2093 1.258 . S
O2107 Tb2089 2.500 . S
O2107 C2109 1.273 . S
O2108 Tb2089 2.473 . S
O2108 C2109 1.257 . S
C2109 O2107 1.273 . S
C2109 O2108 1.257 . S
O2110 Eu2090 2.326 . S
O2110 C2098 1.242 . S
O2111 Tb2089 2.324 . S
O2111 C2098 1.258 . S
O2112 Eu2090 2.500 . S
O2112 C2095 1.273 . S
O2113 Eu2090 2.473 . S
O2113 C2095 1.257 . S
H2114 C2100 0.929 . S
H2115 C2102 0.931 . S
H2116 C2104 0.929 . S
O2117 Tb2118 2.292 . S
O2117 C2120 1.255 . S
Tb2118 O2117 2.292 . S
Tb2118 O2134 2.326 . S
Tb2118 O2136 2.500 . S
Tb2118 O2137 2.473 . S
Tb2118 O2140 2.324 . S
Eu2119 O2123 2.292 . S
Eu2119 C2124 2.852 . S
Eu2119 O2135 2.324 . S
Eu2119 O2139 2.326 . S
Eu2119 O2141 2.500 . S
Eu2119 O2142 2.473 . S
C2120 O2117 1.255 . S
C2120 O2121 1.247 . S
O2121 C2120 1.247 . S
C2122 O2134 1.242 . S
C2122 O2135 1.258 . S
O2123 Eu2119 2.292 . S
O2123 C2125 1.255 . S
C2124 Eu2119 2.852 . S
C2124 C2128 1.503 . S
C2124 O2141 1.273 . S
C2124 O2142 1.257 . S
C2125 O2123 1.255 . S
C2125 O2126 1.247 . S
O2126 C2125 1.247 . S
C2127 O2139 1.242 . S
C2127 O2140 1.258 . S
C2128 C2124 1.503 . S
C2128 C2129 1.379 . S
C2128 C2133 1.392 . S
C2129 C2128 1.379 . S
C2129 C2130 1.404 . S
C2129 H2143 0.929 . S
C2130 C2129 1.404 . S
C2130 C2131 1.389 . S
C2131 C2130 1.389 . S
C2131 C2132 1.399 . S
C2131 H2144 0.931 . S
C2132 C2131 1.399 . S
C2132 C2133 1.390 . S
C2133 C2128 1.392 . S
C2133 C2132 1.390 . S
C2133 H2145 0.929 . S
O2134 Tb2118 2.326 . S
O2134 C2122 1.242 . S
O2135 Eu2119 2.324 . S
O2135 C2122 1.258 . S
O2136 Tb2118 2.500 . S
O2136 C2138 1.273 . S
O2137 Tb2118 2.473 . S
O2137 C2138 1.257 . S
C2138 O2136 1.273 . S
C2138 O2137 1.257 . S
O2139 Eu2119 2.326 . S
O2139 C2127 1.242 . S
O2140 Tb2118 2.324 . S
O2140 C2127 1.258 . S
O2141 Eu2119 2.500 . S
O2141 C2124 1.273 . S
O2142 Eu2119 2.473 . S
O2142 C2124 1.257 . S
H2143 C2129 0.929 . S
H2144 C2131 0.931 . S
H2145 C2133 0.929 . S
O2146 Tb2147 2.292 . S
O2146 C2149 1.255 . S
Tb2147 O2146 2.292 . S
Tb2147 O2163 2.326 . S
Tb2147 O2165 2.500 . S
Tb2147 O2166 2.473 . S
Tb2147 O2169 2.324 . S
Eu2148 O2152 2.292 . S
Eu2148 C2153 2.852 . S
Eu2148 O2164 2.324 . S
Eu2148 O2168 2.326 . S
Eu2148 O2170 2.500 . S
Eu2148 O2171 2.473 . S
C2149 O2146 1.255 . S
C2149 O2150 1.247 . S
O2150 C2149 1.247 . S
C2151 O2163 1.242 . S
C2151 O2164 1.258 . S
O2152 Eu2148 2.292 . S
O2152 C2154 1.255 . S
C2153 Eu2148 2.852 . S
C2153 C2157 1.503 . S
C2153 O2170 1.273 . S
C2153 O2171 1.257 . S
C2154 O2152 1.255 . S
C2154 O2155 1.247 . S
O2155 C2154 1.247 . S
C2156 O2168 1.242 . S
C2156 O2169 1.258 . S
C2157 C2153 1.503 . S
C2157 C2158 1.379 . S
C2157 C2162 1.392 . S
C2158 C2157 1.379 . S
C2158 C2159 1.404 . S
C2158 H2172 0.929 . S
C2159 C2158 1.404 . S
C2159 C2160 1.389 . S
C2160 C2159 1.389 . S
C2160 C2161 1.399 . S
C2160 H2173 0.931 . S
C2161 C2160 1.399 . S
C2161 C2162 1.390 . S
C2162 C2157 1.392 . S
C2162 C2161 1.390 . S
C2162 H2174 0.929 . S
O2163 Tb2147 2.326 . S
O2163 C2151 1.242 . S
O2164 Eu2148 2.324 . S
O2164 C2151 1.258 . S
O2165 Tb2147 2.500 . S
O2165 C2167 1.273 . S
O2166 Tb2147 2.473 . S
O2166 C2167 1.257 . S
C2167 O2165 1.273 . S
C2167 O2166 1.257 . S
O2168 Eu2148 2.326 . S
O2168 C2156 1.242 . S
O2169 Tb2147 2.324 . S
O2169 C2156 1.258 . S
O2170 Eu2148 2.500 . S
O2170 C2153 1.273 . S
O2171 Eu2148 2.473 . S
O2171 C2153 1.257 . S
H2172 C2158 0.929 . S
H2173 C2160 0.931 . S
H2174 C2162 0.929 . S
O2175 Tb2176 2.292 . S
O2175 C2178 1.255 . S
Tb2176 O2175 2.292 . S
Tb2176 O2192 2.326 . S
Tb2176 O2194 2.500 . S
Tb2176 O2195 2.473 . S
Tb2176 O2198 2.324 . S
Eu2177 O2181 2.292 . S
Eu2177 C2182 2.852 . S
Eu2177 O2193 2.324 . S
Eu2177 O2197 2.326 . S
Eu2177 O2199 2.500 . S
Eu2177 O2200 2.473 . S
C2178 O2175 1.255 . S
C2178 O2179 1.247 . S
O2179 C2178 1.247 . S
C2180 O2192 1.242 . S
C2180 O2193 1.258 . S
O2181 Eu2177 2.292 . S
O2181 C2183 1.255 . S
C2182 Eu2177 2.852 . S
C2182 C2186 1.503 . S
C2182 O2199 1.273 . S
C2182 O2200 1.257 . S
C2183 O2181 1.255 . S
C2183 O2184 1.247 . S
O2184 C2183 1.247 . S
C2185 O2197 1.242 . S
C2185 O2198 1.258 . S
C2186 C2182 1.503 . S
C2186 C2187 1.379 . S
C2186 C2191 1.392 . S
C2187 C2186 1.379 . S
C2187 C2188 1.404 . S
C2187 H2201 0.929 . S
C2188 C2187 1.404 . S
C2188 C2189 1.389 . S
C2189 C2188 1.389 . S
C2189 C2190 1.399 . S
C2189 H2202 0.931 . S
C2190 C2189 1.399 . S
C2190 C2191 1.390 . S
C2191 C2186 1.392 . S
C2191 C2190 1.390 . S
C2191 H2203 0.929 . S
O2192 Tb2176 2.326 . S
O2192 C2180 1.242 . S
O2193 Eu2177 2.324 . S
O2193 C2180 1.258 . S
O2194 Tb2176 2.500 . S
O2194 C2196 1.273 . S
O2195 Tb2176 2.473 . S
O2195 C2196 1.257 . S
C2196 O2194 1.273 . S
C2196 O2195 1.257 . S
O2197 Eu2177 2.326 . S
O2197 C2185 1.242 . S
O2198 Tb2176 2.324 . S
O2198 C2185 1.258 . S
O2199 Eu2177 2.500 . S
O2199 C2182 1.273 . S
O2200 Eu2177 2.473 . S
O2200 C2182 1.257 . S
H2201 C2187 0.929 . S
H2202 C2189 0.931 . S
H2203 C2191 0.929 . S
O2204 Tb2205 2.292 . S
O2204 C2207 1.255 . S
Tb2205 O2204 2.292 . S
Tb2205 O2221 2.326 . S
Tb2205 O2223 2.500 . S
Tb2205 O2224 2.473 . S
Tb2205 O2227 2.324 . S
Eu2206 O2210 2.292 . S
Eu2206 C2211 2.852 . S
Eu2206 O2222 2.324 . S
Eu2206 O2226 2.326 . S
Eu2206 O2228 2.500 . S
Eu2206 O2229 2.473 . S
C2207 O2204 1.255 . S
C2207 O2208 1.247 . S
O2208 C2207 1.247 . S
C2209 O2221 1.242 . S
C2209 O2222 1.258 . S
O2210 Eu2206 2.292 . S
O2210 C2212 1.255 . S
C2211 Eu2206 2.852 . S
C2211 C2215 1.503 . S
C2211 O2228 1.273 . S
C2211 O2229 1.257 . S
C2212 O2210 1.255 . S
C2212 O2213 1.247 . S
O2213 C2212 1.247 . S
C2214 O2226 1.242 . S
C2214 O2227 1.258 . S
C2215 C2211 1.503 . S
C2215 C2216 1.379 . S
C2215 C2220 1.392 . S
C2216 C2215 1.379 . S
C2216 C2217 1.404 . S
C2216 H2230 0.929 . S
C2217 C2216 1.404 . S
C2217 C2218 1.389 . S
C2218 C2217 1.389 . S
C2218 C2219 1.399 . S
C2218 H2231 0.931 . S
C2219 C2218 1.399 . S
C2219 C2220 1.390 . S
C2220 C2215 1.392 . S
C2220 C2219 1.390 . S
C2220 H2232 0.929 . S
O2221 Tb2205 2.326 . S
O2221 C2209 1.242 . S
O2222 Eu2206 2.324 . S
O2222 C2209 1.258 . S
O2223 Tb2205 2.500 . S
O2223 C2225 1.273 . S
O2224 Tb2205 2.473 . S
O2224 C2225 1.257 . S
C2225 O2223 1.273 . S
C2225 O2224 1.257 . S
O2226 Eu2206 2.326 . S
O2226 C2214 1.242 . S
O2227 Tb2205 2.324 . S
O2227 C2214 1.258 . S
O2228 Eu2206 2.500 . S
O2228 C2211 1.273 . S
O2229 Eu2206 2.473 . S
O2229 C2211 1.257 . S
H2230 C2216 0.929 . S
H2231 C2218 0.931 . S
H2232 C2220 0.929 . S
O2233 Tb2234 2.292 . S
O2233 C2236 1.255 . S
Tb2234 O2233 2.292 . S
Tb2234 O2250 2.326 . S
Tb2234 O2252 2.500 . S
Tb2234 O2253 2.473 . S
Tb2234 O2256 2.324 . S
Eu2235 O2239 2.292 . S
Eu2235 C2240 2.852 . S
Eu2235 O2251 2.324 . S
Eu2235 O2255 2.326 . S
Eu2235 O2257 2.500 . S
Eu2235 O2258 2.473 . S
C2236 O2233 1.255 . S
C2236 O2237 1.247 . S
O2237 C2236 1.247 . S
C2238 O2250 1.242 . S
C2238 O2251 1.258 . S
O2239 Eu2235 2.292 . S
O2239 C2241 1.255 . S
C2240 Eu2235 2.852 . S
C2240 C2244 1.503 . S
C2240 O2257 1.273 . S
C2240 O2258 1.257 . S
C2241 O2239 1.255 . S
C2241 O2242 1.247 . S
O2242 C2241 1.247 . S
C2243 O2255 1.242 . S
C2243 O2256 1.258 . S
C2244 C2240 1.503 . S
C2244 C2245 1.379 . S
C2244 C2249 1.392 . S
C2245 C2244 1.379 . S
C2245 C2246 1.404 . S
C2245 H2259 0.929 . S
C2246 C2245 1.404 . S
C2246 C2247 1.389 . S
C2247 C2246 1.389 . S
C2247 C2248 1.399 . S
C2247 H2260 0.931 . S
C2248 C2247 1.399 . S
C2248 C2249 1.390 . S
C2249 C2244 1.392 . S
C2249 C2248 1.390 . S
C2249 H2261 0.929 . S
O2250 Tb2234 2.326 . S
O2250 C2238 1.242 . S
O2251 Eu2235 2.324 . S
O2251 C2238 1.258 . S
O2252 Tb2234 2.500 . S
O2252 C2254 1.273 . S
O2253 Tb2234 2.473 . S
O2253 C2254 1.257 . S
C2254 O2252 1.273 . S
C2254 O2253 1.257 . S
O2255 Eu2235 2.326 . S
O2255 C2243 1.242 . S
O2256 Tb2234 2.324 . S
O2256 C2243 1.258 . S
O2257 Eu2235 2.500 . S
O2257 C2240 1.273 . S
O2258 Eu2235 2.473 . S
O2258 C2240 1.257 . S
H2259 C2245 0.929 . S
H2260 C2247 0.931 . S
H2261 C2249 0.929 . S
O2262 Tb2263 2.292 . S
O2262 C2265 1.255 . S
Tb2263 O2262 2.292 . S
Tb2263 O2279 2.326 . S
Tb2263 O2281 2.500 . S
Tb2263 O2282 2.473 . S
Tb2263 O2285 2.324 . S
Eu2264 O2268 2.292 . S
Eu2264 C2269 2.852 . S
Eu2264 O2280 2.324 . S
Eu2264 O2284 2.326 . S
Eu2264 O2286 2.500 . S
Eu2264 O2287 2.473 . S
C2265 O2262 1.255 . S
C2265 O2266 1.247 . S
O2266 C2265 1.247 . S
C2267 O2279 1.242 . S
C2267 O2280 1.258 . S
O2268 Eu2264 2.292 . S
O2268 C2270 1.255 . S
C2269 Eu2264 2.852 . S
C2269 C2273 1.503 . S
C2269 O2286 1.273 . S
C2269 O2287 1.257 . S
C2270 O2268 1.255 . S
C2270 O2271 1.247 . S
O2271 C2270 1.247 . S
C2272 O2284 1.242 . S
C2272 O2285 1.258 . S
C2273 C2269 1.503 . S
C2273 C2274 1.379 . S
C2273 C2278 1.392 . S
C2274 C2273 1.379 . S
C2274 C2275 1.404 1_556 S
C2274 H2288 0.929 . S
C2275 C2274 1.404 1_554 S
C2275 C2276 1.389 . S
C2276 C2275 1.389 . S
C2276 C2277 1.388 1_554 S
C2276 H2289 0.931 . S
C2277 C2276 1.388 1_556 S
C2277 C2278 1.408 . S
C2278 C2273 1.392 . S
C2278 C2277 1.408 . S
C2278 H2290 0.929 . S
O2279 Tb2263 2.326 . S
O2279 C2267 1.242 . S
O2280 Eu2264 2.324 . S
O2280 C2267 1.258 . S
O2281 Tb2263 2.500 . S
O2281 C2283 1.273 . S
O2282 Tb2263 2.473 . S
O2282 C2283 1.257 . S
C2283 O2281 1.273 . S
C2283 O2282 1.257 . S
O2284 Eu2264 2.326 . S
O2284 C2272 1.242 . S
O2285 Tb2263 2.324 . S
O2285 C2272 1.258 . S
O2286 Eu2264 2.500 . S
O2286 C2269 1.273 . S
O2287 Eu2264 2.473 . S
O2287 C2269 1.257 . S
H2288 C2274 0.929 . S
H2289 C2276 0.931 . S
H2290 C2278 0.929 . S
O2291 Tb2292 2.292 . S
O2291 C2294 1.255 . S
Tb2292 O2291 2.292 . S
Tb2292 O2308 2.326 . S
Tb2292 O2310 2.500 . S
Tb2292 O2311 2.473 . S
Tb2292 O2314 2.324 . S
Eu2293 O2297 2.292 . S
Eu2293 C2298 2.852 . S
Eu2293 O2309 2.324 . S
Eu2293 O2313 2.326 . S
Eu2293 O2315 2.500 . S
Eu2293 O2316 2.473 . S
C2294 O2291 1.255 . S
C2294 O2295 1.247 . S
O2295 C2294 1.247 . S
C2296 O2308 1.242 . S
C2296 O2309 1.258 . S
O2297 Eu2293 2.292 . S
O2297 C2299 1.255 . S
C2298 Eu2293 2.852 . S
C2298 C2302 1.503 . S
C2298 O2315 1.273 . S
C2298 O2316 1.257 . S
C2299 O2297 1.255 . S
C2299 O2300 1.247 . S
O2300 C2299 1.247 . S
C2301 O2313 1.242 . S
C2301 O2314 1.258 . S
C2302 C2298 1.503 . S
C2302 C2303 1.379 . S
C2302 C2307 1.392 . S
C2303 C2302 1.379 . S
C2303 C2304 1.404 1_556 S
C2303 H2317 0.929 . S
C2304 C2303 1.404 1_554 S
C2304 C2305 1.389 . S
C2305 C2304 1.389 . S
C2305 C2306 1.388 1_554 S
C2305 H2318 0.931 . S
C2306 C2305 1.388 1_556 S
C2306 C2307 1.408 . S
C2307 C2302 1.392 . S
C2307 C2306 1.408 . S
C2307 H2319 0.929 . S
O2308 Tb2292 2.326 . S
O2308 C2296 1.242 . S
O2309 Eu2293 2.324 . S
O2309 C2296 1.258 . S
O2310 Tb2292 2.500 . S
O2310 C2312 1.273 . S
O2311 Tb2292 2.473 . S
O2311 C2312 1.257 . S
C2312 O2310 1.273 . S
C2312 O2311 1.257 . S
O2313 Eu2293 2.326 . S
O2313 C2301 1.242 . S
O2314 Tb2292 2.324 . S
O2314 C2301 1.258 . S
O2315 Eu2293 2.500 . S
O2315 C2298 1.273 . S
O2316 Eu2293 2.473 . S
O2316 C2298 1.257 . S
H2317 C2303 0.929 . S
H2318 C2305 0.931 . S
H2319 C2307 0.929 . S
O2320 Tb2321 2.292 1_556 S
O2320 C2323 1.255 . S
Tb2321 O2320 2.292 1_554 S
Tb2321 O2337 2.326 . S
Tb2321 O2339 2.500 . S
Tb2321 O2340 2.473 . S
Tb2321 O2343 2.324 . S
Eu2322 O2326 2.292 . S
Eu2322 C2327 2.852 . S
Eu2322 O2338 2.324 . S
Eu2322 O2342 2.326 . S
Eu2322 O2344 2.500 . S
Eu2322 O2345 2.473 . S
C2323 O2320 1.255 . S
C2323 O2324 1.247 . S
O2324 C2323 1.247 . S
C2325 O2337 1.242 . S
C2325 O2338 1.258 . S
O2326 Eu2322 2.292 . S
O2326 C2328 1.255 . S
C2327 Eu2322 2.852 . S
C2327 C2331 1.503 . S
C2327 O2344 1.273 . S
C2327 O2345 1.257 . S
C2328 O2326 1.255 . S
C2328 O2329 1.247 . S
O2329 C2328 1.247 . S
C2330 O2342 1.242 . S
C2330 O2343 1.258 . S
C2331 C2327 1.503 . S
C2331 C2332 1.379 . S
C2331 C2336 1.392 . S
C2332 C2331 1.379 . S
C2332 C2333 1.404 . S
C2332 H2346 0.929 . S
C2333 C2332 1.404 . S
C2333 C2334 1.389 . S
C2334 C2333 1.389 . S
C2334 C2335 1.399 . S
C2334 H2347 0.931 . S
C2335 C2334 1.399 . S
C2335 C2336 1.390 . S
C2336 C2331 1.392 . S
C2336 C2335 1.390 . S
C2336 H2348 0.929 . S
O2337 Tb2321 2.326 . S
O2337 C2325 1.242 . S
O2338 Eu2322 2.324 . S
O2338 C2325 1.258 . S
O2339 Tb2321 2.500 . S
O2339 C2341 1.273 . S
O2340 Tb2321 2.473 . S
O2340 C2341 1.257 . S
C2341 O2339 1.273 . S
C2341 O2340 1.257 . S
O2342 Eu2322 2.326 . S
O2342 C2330 1.242 . S
O2343 Tb2321 2.324 . S
O2343 C2330 1.258 . S
O2344 Eu2322 2.500 . S
O2344 C2327 1.273 . S
O2345 Eu2322 2.473 . S
O2345 C2327 1.257 . S
H2346 C2332 0.929 . S
H2347 C2334 0.931 . S
H2348 C2336 0.929 . S
O2349 Tb2350 2.292 . S
O2349 C2352 1.255 . S
Tb2350 O2349 2.292 . S
Tb2350 O2366 2.326 . S
Tb2350 O2368 2.500 . S
Tb2350 O2369 2.473 . S
Tb2350 O2372 2.324 . S
Eu2351 O2355 2.292 . S
Eu2351 C2356 2.852 . S
Eu2351 O2367 2.324 . S
Eu2351 O2371 2.326 . S
Eu2351 O2373 2.500 . S
Eu2351 O2374 2.473 . S
C2352 O2349 1.255 . S
C2352 O2353 1.247 . S
O2353 C2352 1.247 . S
C2354 O2366 1.242 . S
C2354 O2367 1.258 . S
O2355 Eu2351 2.292 . S
O2355 C2357 1.255 . S
C2356 Eu2351 2.852 . S
C2356 C2360 1.503 . S
C2356 O2373 1.273 . S
C2356 O2374 1.257 . S
C2357 O2355 1.255 . S
C2357 O2358 1.247 . S
O2358 C2357 1.247 . S
C2359 O2371 1.242 . S
C2359 O2372 1.258 . S
C2360 C2356 1.503 . S
C2360 C2361 1.379 . S
C2360 C2365 1.392 . S
C2361 C2360 1.379 . S
C2361 C2362 1.404 . S
C2361 H2375 0.929 . S
C2362 C2361 1.404 . S
C2362 C2363 1.389 . S
C2363 C2362 1.389 . S
C2363 C2364 1.399 . S
C2363 H2376 0.931 . S
C2364 C2363 1.399 . S
C2364 C2365 1.390 . S
C2365 C2360 1.392 . S
C2365 C2364 1.390 . S
C2365 H2377 0.929 . S
O2366 Tb2350 2.326 . S
O2366 C2354 1.242 . S
O2367 Eu2351 2.324 . S
O2367 C2354 1.258 . S
O2368 Tb2350 2.500 . S
O2368 C2370 1.273 . S
O2369 Tb2350 2.473 . S
O2369 C2370 1.257 . S
C2370 O2368 1.273 . S
C2370 O2369 1.257 . S
O2371 Eu2351 2.326 . S
O2371 C2359 1.242 . S
O2372 Tb2350 2.324 . S
O2372 C2359 1.258 . S
O2373 Eu2351 2.500 . S
O2373 C2356 1.273 . S
O2374 Eu2351 2.473 . S
O2374 C2356 1.257 . S
H2375 C2361 0.929 . S
H2376 C2363 0.931 . S
H2377 C2365 0.929 . S
O2378 Tb2379 2.292 . S
O2378 C2381 1.255 . S
Tb2379 O2378 2.292 . S
Tb2379 O2395 2.326 . S
Tb2379 O2397 2.500 . S
Tb2379 O2398 2.473 . S
Tb2379 O2401 2.324 . S
Eu2380 O2384 2.292 . S
Eu2380 C2385 2.852 . S
Eu2380 O2396 2.324 . S
Eu2380 O2400 2.326 . S
Eu2380 O2402 2.500 . S
Eu2380 O2403 2.473 . S
C2381 O2378 1.255 . S
C2381 O2382 1.247 . S
O2382 C2381 1.247 . S
C2383 O2395 1.242 . S
C2383 O2396 1.258 . S
O2384 Eu2380 2.292 . S
O2384 C2386 1.255 . S
C2385 Eu2380 2.852 . S
C2385 C2389 1.503 . S
C2385 O2402 1.273 . S
C2385 O2403 1.257 . S
C2386 O2384 1.255 . S
C2386 O2387 1.247 . S
O2387 C2386 1.247 . S
C2388 O2400 1.242 . S
C2388 O2401 1.258 . S
C2389 C2385 1.503 . S
C2389 C2390 1.379 . S
C2389 C2394 1.392 . S
C2390 C2389 1.379 . S
C2390 C2391 1.404 . S
C2390 H2404 0.929 . S
C2391 C2390 1.404 . S
C2391 C2392 1.389 . S
C2392 C2391 1.389 . S
C2392 C2393 1.399 . S
C2392 H2405 0.931 . S
C2393 C2392 1.399 . S
C2393 C2394 1.390 . S
C2394 C2389 1.392 . S
C2394 C2393 1.390 . S
C2394 H2406 0.929 . S
O2395 Tb2379 2.326 . S
O2395 C2383 1.242 . S
O2396 Eu2380 2.324 . S
O2396 C2383 1.258 . S
O2397 Tb2379 2.500 . S
O2397 C2399 1.273 . S
O2398 Tb2379 2.473 . S
O2398 C2399 1.257 . S
C2399 O2397 1.273 . S
C2399 O2398 1.257 . S
O2400 Eu2380 2.326 . S
O2400 C2388 1.242 . S
O2401 Tb2379 2.324 . S
O2401 C2388 1.258 . S
O2402 Eu2380 2.500 . S
O2402 C2385 1.273 . S
O2403 Eu2380 2.473 . S
O2403 C2385 1.257 . S
H2404 C2390 0.929 . S
H2405 C2392 0.931 . S
H2406 C2394 0.929 . S
O2407 Tb2408 2.292 1_556 S
O2407 C2410 1.255 . S
Tb2408 O2407 2.292 1_554 S
Tb2408 O2424 2.326 . S
Tb2408 O2426 2.500 . S
Tb2408 O2427 2.473 . S
Tb2408 O2430 2.324 . S
Eu2409 O2413 2.292 . S
Eu2409 C2414 2.852 . S
Eu2409 O2425 2.324 . S
Eu2409 O2429 2.326 . S
Eu2409 O2431 2.500 . S
Eu2409 O2432 2.473 . S
C2410 O2407 1.255 . S
C2410 O2411 1.247 . S
O2411 C2410 1.247 . S
C2412 O2424 1.242 . S
C2412 O2425 1.258 . S
O2413 Eu2409 2.292 . S
O2413 C2415 1.255 . S
C2414 Eu2409 2.852 . S
C2414 C2418 1.503 . S
C2414 O2431 1.273 . S
C2414 O2432 1.257 . S
C2415 O2413 1.255 . S
C2415 O2416 1.247 . S
O2416 C2415 1.247 . S
C2417 O2429 1.242 . S
C2417 O2430 1.258 . S
C2418 C2414 1.503 . S
C2418 C2419 1.379 . S
C2418 C2423 1.392 . S
C2419 C2418 1.379 . S
C2419 C2420 1.404 . S
C2419 H2433 0.929 . S
C2420 C2419 1.404 . S
C2420 C2421 1.389 . S
C2421 C2420 1.389 . S
C2421 C2422 1.399 . S
C2421 H2434 0.931 . S
C2422 C2421 1.399 . S
C2422 C2423 1.390 . S
C2423 C2418 1.392 . S
C2423 C2422 1.390 . S
C2423 H2435 0.929 . S
O2424 Tb2408 2.326 . S
O2424 C2412 1.242 . S
O2425 Eu2409 2.324 . S
O2425 C2412 1.258 . S
O2426 Tb2408 2.500 . S
O2426 C2428 1.273 . S
O2427 Tb2408 2.473 . S
O2427 C2428 1.257 . S
C2428 O2426 1.273 . S
C2428 O2427 1.257 . S
O2429 Eu2409 2.326 . S
O2429 C2417 1.242 . S
O2430 Tb2408 2.324 . S
O2430 C2417 1.258 . S
O2431 Eu2409 2.500 . S
O2431 C2414 1.273 . S
O2432 Eu2409 2.473 . S
O2432 C2414 1.257 . S
H2433 C2419 0.929 . S
H2434 C2421 0.931 . S
H2435 C2423 0.929 . S
O2436 Tb2437 2.292 . S
O2436 C2439 1.255 . S
Tb2437 O2436 2.292 . S
Tb2437 O2453 2.326 . S
Tb2437 O2455 2.500 . S
Tb2437 O2456 2.473 . S
Tb2437 O2459 2.324 . S
Eu2438 O2442 2.292 . S
Eu2438 C2443 2.852 . S
Eu2438 O2454 2.324 . S
Eu2438 O2458 2.326 . S
Eu2438 O2460 2.500 . S
Eu2438 O2461 2.473 . S
C2439 O2436 1.255 . S
C2439 O2440 1.247 . S
O2440 C2439 1.247 . S
C2441 O2453 1.242 . S
C2441 O2454 1.258 . S
O2442 Eu2438 2.292 . S
O2442 C2444 1.255 . S
C2443 Eu2438 2.852 . S
C2443 C2447 1.503 . S
C2443 O2460 1.273 . S
C2443 O2461 1.257 . S
C2444 O2442 1.255 . S
C2444 O2445 1.247 . S
O2445 C2444 1.247 . S
C2446 O2458 1.242 . S
C2446 O2459 1.258 . S
C2447 C2443 1.503 . S
C2447 C2448 1.379 . S
C2447 C2452 1.392 . S
C2448 C2447 1.379 . S
C2448 C2449 1.404 . S
C2448 H2462 0.929 . S
C2449 C2448 1.404 . S
C2449 C2450 1.389 . S
C2450 C2449 1.389 . S
C2450 C2451 1.399 . S
C2450 H2463 0.931 . S
C2451 C2450 1.399 . S
C2451 C2452 1.390 . S
C2452 C2447 1.392 . S
C2452 C2451 1.390 . S
C2452 H2464 0.929 . S
O2453 Tb2437 2.326 . S
O2453 C2441 1.242 . S
O2454 Eu2438 2.324 . S
O2454 C2441 1.258 . S
O2455 Tb2437 2.500 . S
O2455 C2457 1.273 . S
O2456 Tb2437 2.473 . S
O2456 C2457 1.257 . S
C2457 O2455 1.273 . S
C2457 O2456 1.257 . S
O2458 Eu2438 2.326 . S
O2458 C2446 1.242 . S
O2459 Tb2437 2.324 . S
O2459 C2446 1.258 . S
O2460 Eu2438 2.500 . S
O2460 C2443 1.273 . S
O2461 Eu2438 2.473 . S
O2461 C2443 1.257 . S
H2462 C2448 0.929 . S
H2463 C2450 0.931 . S
H2464 C2452 0.929 . S
O2465 Tb2466 2.292 . S
O2465 C2468 1.255 . S
Tb2466 O2465 2.292 . S
Tb2466 O2482 2.326 . S
Tb2466 O2484 2.500 . S
Tb2466 O2485 2.473 . S
Tb2466 O2488 2.324 . S
Eu2467 O2471 2.292 . S
Eu2467 C2472 2.852 . S
Eu2467 O2483 2.324 . S
Eu2467 O2487 2.326 . S
Eu2467 O2489 2.500 . S
Eu2467 O2490 2.473 . S
C2468 O2465 1.255 . S
C2468 O2469 1.247 . S
O2469 C2468 1.247 . S
C2470 O2482 1.242 . S
C2470 O2483 1.258 . S
O2471 Eu2467 2.292 . S
O2471 C2473 1.255 . S
C2472 Eu2467 2.852 . S
C2472 C2476 1.503 . S
C2472 O2489 1.273 . S
C2472 O2490 1.257 . S
C2473 O2471 1.255 . S
C2473 O2474 1.247 . S
O2474 C2473 1.247 . S
C2475 O2487 1.242 . S
C2475 O2488 1.258 . S
C2476 C2472 1.503 . S
C2476 C2477 1.379 . S
C2476 C2481 1.392 . S
C2477 C2476 1.379 . S
C2477 C2478 1.404 . S
C2477 H2491 0.929 . S
C2478 C2477 1.404 . S
C2478 C2479 1.389 . S
C2479 C2478 1.389 . S
C2479 C2480 1.399 . S
C2479 H2492 0.931 . S
C2480 C2479 1.399 . S
C2480 C2481 1.390 . S
C2481 C2476 1.392 . S
C2481 C2480 1.390 . S
C2481 H2493 0.929 . S
O2482 Tb2466 2.326 . S
O2482 C2470 1.242 . S
O2483 Eu2467 2.324 . S
O2483 C2470 1.258 . S
O2484 Tb2466 2.500 . S
O2484 C2486 1.273 . S
O2485 Tb2466 2.473 . S
O2485 C2486 1.257 . S
C2486 O2484 1.273 . S
C2486 O2485 1.257 . S
O2487 Eu2467 2.326 . S
O2487 C2475 1.242 . S
O2488 Tb2466 2.324 . S
O2488 C2475 1.258 . S
O2489 Eu2467 2.500 . S
O2489 C2472 1.273 . S
O2490 Eu2467 2.473 . S
O2490 C2472 1.257 . S
H2491 C2477 0.929 . S
H2492 C2479 0.931 . S
H2493 C2481 0.929 . S
O2494 Tb2495 2.292 . S
O2494 C2497 1.255 . S
Tb2495 O2494 2.292 . S
Tb2495 O2511 2.326 . S
Tb2495 O2513 2.500 . S
Tb2495 O2514 2.473 . S
Tb2495 O2517 2.324 . S
Eu2496 O2500 2.292 . S
Eu2496 C2501 2.852 . S
Eu2496 O2512 2.324 . S
Eu2496 O2516 2.326 . S
Eu2496 O2518 2.500 . S
Eu2496 O2519 2.473 . S
C2497 O2494 1.255 . S
C2497 O2498 1.247 . S
O2498 C2497 1.247 . S
C2499 O2511 1.242 . S
C2499 O2512 1.258 . S
O2500 Eu2496 2.292 . S
O2500 C2502 1.255 . S
C2501 Eu2496 2.852 . S
C2501 C2505 1.503 . S
C2501 O2518 1.273 . S
C2501 O2519 1.257 . S
C2502 O2500 1.255 . S
C2502 O2503 1.247 . S
O2503 C2502 1.247 . S
C2504 O2516 1.242 . S
C2504 O2517 1.258 . S
C2505 C2501 1.503 . S
C2505 C2506 1.379 . S
C2505 C2510 1.392 . S
C2506 C2505 1.379 . S
C2506 C2507 1.404 . S
C2506 H2520 0.929 . S
C2507 C2506 1.404 . S
C2507 C2508 1.389 . S
C2508 C2507 1.389 . S
C2508 C2509 1.399 . S
C2508 H2521 0.931 . S
C2509 C2508 1.399 . S
C2509 C2510 1.390 . S
C2510 C2505 1.392 . S
C2510 C2509 1.390 . S
C2510 H2522 0.929 . S
O2511 Tb2495 2.326 . S
O2511 C2499 1.242 . S
O2512 Eu2496 2.324 . S
O2512 C2499 1.258 . S
O2513 Tb2495 2.500 . S
O2513 C2515 1.273 . S
O2514 Tb2495 2.473 . S
O2514 C2515 1.257 . S
C2515 O2513 1.273 . S
C2515 O2514 1.257 . S
O2516 Eu2496 2.326 . S
O2516 C2504 1.242 . S
O2517 Tb2495 2.324 . S
O2517 C2504 1.258 . S
O2518 Eu2496 2.500 . S
O2518 C2501 1.273 . S
O2519 Eu2496 2.473 . S
O2519 C2501 1.257 . S
H2520 C2506 0.929 . S
H2521 C2508 0.931 . S
H2522 C2510 0.929 . S
O2523 Tb2524 2.292 . S
O2523 C2526 1.255 . S
Tb2524 O2523 2.292 . S
Tb2524 O2540 2.326 . S
Tb2524 O2542 2.500 . S
Tb2524 O2543 2.473 . S
Tb2524 O2546 2.324 . S
Eu2525 O2529 2.292 . S
Eu2525 C2530 2.852 . S
Eu2525 O2541 2.324 . S
Eu2525 O2545 2.326 . S
Eu2525 O2547 2.500 . S
Eu2525 O2548 2.473 . S
C2526 O2523 1.255 . S
C2526 O2527 1.247 . S
O2527 C2526 1.247 . S
C2528 O2540 1.242 . S
C2528 O2541 1.258 . S
O2529 Eu2525 2.292 . S
O2529 C2531 1.255 . S
C2530 Eu2525 2.852 . S
C2530 C2534 1.503 . S
C2530 O2547 1.273 . S
C2530 O2548 1.257 . S
C2531 O2529 1.255 . S
C2531 O2532 1.247 . S
O2532 C2531 1.247 . S
C2533 O2545 1.242 . S
C2533 O2546 1.258 . S
C2534 C2530 1.503 . S
C2534 C2535 1.379 . S
C2534 C2539 1.392 . S
C2535 C2534 1.379 . S
C2535 C2536 1.404 . S
C2535 H2549 0.929 . S
C2536 C2535 1.404 . S
C2536 C2537 1.389 . S
C2537 C2536 1.389 . S
C2537 C2538 1.399 . S
C2537 H2550 0.931 . S
C2538 C2537 1.399 . S
C2538 C2539 1.390 . S
C2539 C2534 1.392 . S
C2539 C2538 1.390 . S
C2539 H2551 0.929 . S
O2540 Tb2524 2.326 . S
O2540 C2528 1.242 . S
O2541 Eu2525 2.324 . S
O2541 C2528 1.258 . S
O2542 Tb2524 2.500 . S
O2542 C2544 1.273 . S
O2543 Tb2524 2.473 . S
O2543 C2544 1.257 . S
C2544 O2542 1.273 . S
C2544 O2543 1.257 . S
O2545 Eu2525 2.326 . S
O2545 C2533 1.242 . S
O2546 Tb2524 2.324 . S
O2546 C2533 1.258 . S
O2547 Eu2525 2.500 . S
O2547 C2530 1.273 . S
O2548 Eu2525 2.473 . S
O2548 C2530 1.257 . S
H2549 C2535 0.929 . S
H2550 C2537 0.931 . S
H2551 C2539 0.929 . S
O2552 Tb2553 2.292 . S
O2552 C2555 1.255 . S
Tb2553 O2552 2.292 . S
Tb2553 O2569 2.326 . S
Tb2553 O2571 2.500 . S
Tb2553 O2572 2.473 . S
Tb2553 O2575 2.324 . S
Eu2554 O2558 2.292 . S
Eu2554 C2559 2.852 . S
Eu2554 O2570 2.324 . S
Eu2554 O2574 2.326 . S
Eu2554 O2576 2.500 . S
Eu2554 O2577 2.473 . S
C2555 O2552 1.255 . S
C2555 O2556 1.247 . S
O2556 C2555 1.247 . S
C2557 O2569 1.242 . S
C2557 O2570 1.258 . S
O2558 Eu2554 2.292 . S
O2558 C2560 1.255 . S
C2559 Eu2554 2.852 . S
C2559 C2563 1.503 . S
C2559 O2576 1.273 . S
C2559 O2577 1.257 . S
C2560 O2558 1.255 . S
C2560 O2561 1.247 . S
O2561 C2560 1.247 . S
C2562 O2574 1.242 . S
C2562 O2575 1.258 . S
C2563 C2559 1.503 . S
C2563 C2564 1.379 . S
C2563 C2568 1.392 . S
C2564 C2563 1.379 . S
C2564 C2565 1.404 . S
C2564 H2578 0.929 . S
C2565 C2564 1.404 . S
C2565 C2566 1.389 . S
C2566 C2565 1.389 . S
C2566 C2567 1.399 . S
C2566 H2579 0.931 . S
C2567 C2566 1.399 . S
C2567 C2568 1.390 . S
C2568 C2563 1.392 . S
C2568 C2567 1.390 . S
C2568 H2580 0.929 . S
O2569 Tb2553 2.326 . S
O2569 C2557 1.242 . S
O2570 Eu2554 2.324 . S
O2570 C2557 1.258 . S
O2571 Tb2553 2.500 . S
O2571 C2573 1.273 . S
O2572 Tb2553 2.473 . S
O2572 C2573 1.257 . S
C2573 O2571 1.273 . S
C2573 O2572 1.257 . S
O2574 Eu2554 2.326 . S
O2574 C2562 1.242 . S
O2575 Tb2553 2.324 . S
O2575 C2562 1.258 . S
O2576 Eu2554 2.500 . S
O2576 C2559 1.273 . S
O2577 Eu2554 2.473 . S
O2577 C2559 1.257 . S
H2578 C2564 0.929 . S
H2579 C2566 0.931 . S
H2580 C2568 0.929 . S
O2581 Tb2582 2.292 . S
O2581 C2584 1.255 . S
Tb2582 O2581 2.292 . S
Tb2582 O2598 2.326 . S
Tb2582 O2600 2.500 . S
Tb2582 O2601 2.473 . S
Tb2582 O2604 2.324 . S
Eu2583 O2587 2.292 . S
Eu2583 C2588 2.852 . S
Eu2583 O2599 2.324 . S
Eu2583 O2603 2.326 . S
Eu2583 O2605 2.500 . S
Eu2583 O2606 2.473 . S
C2584 O2581 1.255 . S
C2584 O2585 1.247 . S
O2585 C2584 1.247 . S
C2586 O2598 1.242 . S
C2586 O2599 1.258 . S
O2587 Eu2583 2.292 . S
O2587 C2589 1.255 . S
C2588 Eu2583 2.852 . S
C2588 C2592 1.503 . S
C2588 O2605 1.273 . S
C2588 O2606 1.257 . S
C2589 O2587 1.255 . S
C2589 O2590 1.247 . S
O2590 C2589 1.247 . S
C2591 O2603 1.242 . S
C2591 O2604 1.258 . S
C2592 C2588 1.503 . S
C2592 C2593 1.379 . S
C2592 C2597 1.392 . S
C2593 C2592 1.379 . S
C2593 C2594 1.404 . S
C2593 H2607 0.929 . S
C2594 C2593 1.404 . S
C2594 C2595 1.389 . S
C2595 C2594 1.389 . S
C2595 C2596 1.399 . S
C2595 H2608 0.931 . S
C2596 C2595 1.399 . S
C2596 C2597 1.390 . S
C2597 C2592 1.392 . S
C2597 C2596 1.390 . S
C2597 H2609 0.929 . S
O2598 Tb2582 2.326 . S
O2598 C2586 1.242 . S
O2599 Eu2583 2.324 . S
O2599 C2586 1.258 . S
O2600 Tb2582 2.500 . S
O2600 C2602 1.273 . S
O2601 Tb2582 2.473 . S
O2601 C2602 1.257 . S
C2602 O2600 1.273 . S
C2602 O2601 1.257 . S
O2603 Eu2583 2.326 . S
O2603 C2591 1.242 . S
O2604 Tb2582 2.324 . S
O2604 C2591 1.258 . S
O2605 Eu2583 2.500 . S
O2605 C2588 1.273 . S
O2606 Eu2583 2.473 . S
O2606 C2588 1.257 . S
H2607 C2593 0.929 . S
H2608 C2595 0.931 . S
H2609 C2597 0.929 . S
O2610 Tb2611 2.292 . S
O2610 C2613 1.255 . S
Tb2611 O2610 2.292 . S
Tb2611 O2627 2.326 . S
Tb2611 O2629 2.500 . S
Tb2611 O2630 2.473 . S
Tb2611 O2633 2.324 . S
Eu2612 O2616 2.292 . S
Eu2612 C2617 2.852 . S
Eu2612 O2628 2.324 . S
Eu2612 O2632 2.326 . S
Eu2612 O2634 2.500 . S
Eu2612 O2635 2.473 . S
C2613 O2610 1.255 . S
C2613 O2614 1.247 . S
O2614 C2613 1.247 . S
C2615 O2627 1.242 . S
C2615 O2628 1.258 . S
O2616 Eu2612 2.292 . S
O2616 C2618 1.255 . S
C2617 Eu2612 2.852 . S
C2617 C2621 1.503 . S
C2617 O2634 1.273 . S
C2617 O2635 1.257 . S
C2618 O2616 1.255 . S
C2618 O2619 1.247 . S
O2619 C2618 1.247 . S
C2620 O2632 1.242 . S
C2620 O2633 1.258 . S
C2621 C2617 1.503 . S
C2621 C2622 1.379 . S
C2621 C2626 1.392 . S
C2622 C2621 1.379 . S
C2622 C2623 1.404 1_554 S
C2622 H2636 0.929 . S
C2623 C2622 1.404 1_556 S
C2623 C2624 1.389 . S
C2624 C2623 1.389 . S
C2624 C2625 1.388 1_556 S
C2624 H2637 0.931 . S
C2625 C2624 1.388 1_554 S
C2625 C2626 1.408 . S
C2626 C2621 1.392 . S
C2626 C2625 1.408 . S
C2626 H2638 0.929 . S
O2627 Tb2611 2.326 . S
O2627 C2615 1.242 . S
O2628 Eu2612 2.324 . S
O2628 C2615 1.258 . S
O2629 Tb2611 2.500 . S
O2629 C2631 1.273 . S
O2630 Tb2611 2.473 . S
O2630 C2631 1.257 . S
C2631 O2629 1.273 . S
C2631 O2630 1.257 . S
O2632 Eu2612 2.326 . S
O2632 C2620 1.242 . S
O2633 Tb2611 2.324 . S
O2633 C2620 1.258 . S
O2634 Eu2612 2.500 . S
O2634 C2617 1.273 . S
O2635 Eu2612 2.473 . S
O2635 C2617 1.257 . S
H2636 C2622 0.929 . S
H2637 C2624 0.931 . S
H2638 C2626 0.929 . S
O2639 Tb2640 2.292 . S
O2639 C2642 1.255 . S
Tb2640 O2639 2.292 . S
Tb2640 O2656 2.326 . S
Tb2640 O2658 2.500 . S
Tb2640 O2659 2.473 . S
Tb2640 O2662 2.324 . S
Eu2641 O2645 2.292 . S
Eu2641 C2646 2.852 . S
Eu2641 O2657 2.324 . S
Eu2641 O2661 2.326 . S
Eu2641 O2663 2.500 . S
Eu2641 O2664 2.473 . S
C2642 O2639 1.255 . S
C2642 O2643 1.247 . S
O2643 C2642 1.247 . S
C2644 O2656 1.242 . S
C2644 O2657 1.258 . S
O2645 Eu2641 2.292 . S
O2645 C2647 1.255 . S
C2646 Eu2641 2.852 . S
C2646 C2650 1.503 . S
C2646 O2663 1.273 . S
C2646 O2664 1.257 . S
C2647 O2645 1.255 . S
C2647 O2648 1.247 . S
O2648 C2647 1.247 . S
C2649 O2661 1.242 . S
C2649 O2662 1.258 . S
C2650 C2646 1.503 . S
C2650 C2651 1.379 . S
C2650 C2655 1.392 . S
C2651 C2650 1.379 . S
C2651 C2652 1.404 1_554 S
C2651 H2665 0.929 . S
C2652 C2651 1.404 1_556 S
C2652 C2653 1.389 . S
C2653 C2652 1.389 . S
C2653 C2654 1.388 1_556 S
C2653 H2666 0.931 . S
C2654 C2653 1.388 1_554 S
C2654 C2655 1.408 . S
C2655 C2650 1.392 . S
C2655 C2654 1.408 . S
C2655 H2667 0.929 . S
O2656 Tb2640 2.326 . S
O2656 C2644 1.242 . S
O2657 Eu2641 2.324 . S
O2657 C2644 1.258 . S
O2658 Tb2640 2.500 . S
O2658 C2660 1.273 . S
O2659 Tb2640 2.473 . S
O2659 C2660 1.257 . S
C2660 O2658 1.273 . S
C2660 O2659 1.257 . S
O2661 Eu2641 2.326 . S
O2661 C2649 1.242 . S
O2662 Tb2640 2.324 . S
O2662 C2649 1.258 . S
O2663 Eu2641 2.500 . S
O2663 C2646 1.273 . S
O2664 Eu2641 2.473 . S
O2664 C2646 1.257 . S
H2665 C2651 0.929 . S
H2666 C2653 0.931 . S
H2667 C2655 0.929 . S
O2668 Tb2669 2.292 1_554 S
O2668 C2671 1.255 . S
Tb2669 O2668 2.292 1_556 S
Tb2669 O2685 2.326 . S
Tb2669 O2687 2.500 . S
Tb2669 O2688 2.473 . S
Tb2669 O2691 2.324 . S
Eu2670 O2674 2.292 . S
Eu2670 C2675 2.852 . S
Eu2670 O2686 2.324 . S
Eu2670 O2690 2.326 . S
Eu2670 O2692 2.500 . S
Eu2670 O2693 2.473 . S
C2671 O2668 1.255 . S
C2671 O2672 1.247 . S
O2672 C2671 1.247 . S
C2673 O2685 1.242 . S
C2673 O2686 1.258 . S
O2674 Eu2670 2.292 . S
O2674 C2676 1.255 . S
C2675 Eu2670 2.852 . S
C2675 C2679 1.503 . S
C2675 O2692 1.273 . S
C2675 O2693 1.257 . S
C2676 O2674 1.255 . S
C2676 O2677 1.247 . S
O2677 C2676 1.247 . S
C2678 O2690 1.242 . S
C2678 O2691 1.258 . S
C2679 C2675 1.503 . S
C2679 C2680 1.379 . S
C2679 C2684 1.392 . S
C2680 C2679 1.379 . S
C2680 C2681 1.404 . S
C2680 H2694 0.929 . S
C2681 C2680 1.404 . S
C2681 C2682 1.389 . S
C2682 C2681 1.389 . S
C2682 C2683 1.399 . S
C2682 H2695 0.931 . S
C2683 C2682 1.399 . S
C2683 C2684 1.390 . S
C2684 C2679 1.392 . S
C2684 C2683 1.390 . S
C2684 H2696 0.929 . S
O2685 Tb2669 2.326 . S
O2685 C2673 1.242 . S
O2686 Eu2670 2.324 . S
O2686 C2673 1.258 . S
O2687 Tb2669 2.500 . S
O2687 C2689 1.273 . S
O2688 Tb2669 2.473 . S
O2688 C2689 1.257 . S
C2689 O2687 1.273 . S
C2689 O2688 1.257 . S
O2690 Eu2670 2.326 . S
O2690 C2678 1.242 . S
O2691 Tb2669 2.324 . S
O2691 C2678 1.258 . S
O2692 Eu2670 2.500 . S
O2692 C2675 1.273 . S
O2693 Eu2670 2.473 . S
O2693 C2675 1.257 . S
H2694 C2680 0.929 . S
H2695 C2682 0.931 . S
H2696 C2684 0.929 . S
O2697 Tb2698 2.292 . S
O2697 C2700 1.255 . S
Tb2698 O2697 2.292 . S
Tb2698 O2714 2.326 . S
Tb2698 O2716 2.500 . S
Tb2698 O2717 2.473 . S
Tb2698 O2720 2.324 . S
Eu2699 O2703 2.292 . S
Eu2699 C2704 2.852 . S
Eu2699 O2715 2.324 . S
Eu2699 O2719 2.326 . S
Eu2699 O2721 2.500 . S
Eu2699 O2722 2.473 . S
C2700 O2697 1.255 . S
C2700 O2701 1.247 . S
O2701 C2700 1.247 . S
C2702 O2714 1.242 . S
C2702 O2715 1.258 . S
O2703 Eu2699 2.292 . S
O2703 C2705 1.255 . S
C2704 Eu2699 2.852 . S
C2704 C2708 1.503 . S
C2704 O2721 1.273 . S
C2704 O2722 1.257 . S
C2705 O2703 1.255 . S
C2705 O2706 1.247 . S
O2706 C2705 1.247 . S
C2707 O2719 1.242 . S
C2707 O2720 1.258 . S
C2708 C2704 1.503 . S
C2708 C2709 1.379 . S
C2708 C2713 1.392 . S
C2709 C2708 1.379 . S
C2709 C2710 1.404 . S
C2709 H2723 0.929 . S
C2710 C2709 1.404 . S
C2710 C2711 1.389 . S
C2711 C2710 1.389 . S
C2711 C2712 1.399 . S
C2711 H2724 0.931 . S
C2712 C2711 1.399 . S
C2712 C2713 1.390 . S
C2713 C2708 1.392 . S
C2713 C2712 1.390 . S
C2713 H2725 0.929 . S
O2714 Tb2698 2.326 . S
O2714 C2702 1.242 . S
O2715 Eu2699 2.324 . S
O2715 C2702 1.258 . S
O2716 Tb2698 2.500 . S
O2716 C2718 1.273 . S
O2717 Tb2698 2.473 . S
O2717 C2718 1.257 . S
C2718 O2716 1.273 . S
C2718 O2717 1.257 . S
O2719 Eu2699 2.326 . S
O2719 C2707 1.242 . S
O2720 Tb2698 2.324 . S
O2720 C2707 1.258 . S
O2721 Eu2699 2.500 . S
O2721 C2704 1.273 . S
O2722 Eu2699 2.473 . S
O2722 C2704 1.257 . S
H2723 C2709 0.929 . S
H2724 C2711 0.931 . S
H2725 C2713 0.929 . S
O2726 Tb2727 2.292 . S
O2726 C2729 1.255 . S
Tb2727 O2726 2.292 . S
Tb2727 O2743 2.326 . S
Tb2727 O2745 2.500 . S
Tb2727 O2746 2.473 . S
Tb2727 O2749 2.324 . S
Eu2728 O2732 2.292 . S
Eu2728 C2733 2.852 . S
Eu2728 O2744 2.324 . S
Eu2728 O2748 2.326 . S
Eu2728 O2750 2.500 . S
Eu2728 O2751 2.473 . S
C2729 O2726 1.255 . S
C2729 O2730 1.247 . S
O2730 C2729 1.247 . S
C2731 O2743 1.242 . S
C2731 O2744 1.258 . S
O2732 Eu2728 2.292 . S
O2732 C2734 1.255 . S
C2733 Eu2728 2.852 . S
C2733 C2737 1.503 . S
C2733 O2750 1.273 . S
C2733 O2751 1.257 . S
C2734 O2732 1.255 . S
C2734 O2735 1.247 . S
O2735 C2734 1.247 . S
C2736 O2748 1.242 . S
C2736 O2749 1.258 . S
C2737 C2733 1.503 . S
C2737 C2738 1.379 . S
C2737 C2742 1.392 . S
C2738 C2737 1.379 . S
C2738 C2739 1.404 . S
C2738 H2752 0.929 . S
C2739 C2738 1.404 . S
C2739 C2740 1.389 . S
C2740 C2739 1.389 . S
C2740 C2741 1.399 . S
C2740 H2753 0.931 . S
C2741 C2740 1.399 . S
C2741 C2742 1.390 . S
C2742 C2737 1.392 . S
C2742 C2741 1.390 . S
C2742 H2754 0.929 . S
O2743 Tb2727 2.326 . S
O2743 C2731 1.242 . S
O2744 Eu2728 2.324 . S
O2744 C2731 1.258 . S
O2745 Tb2727 2.500 . S
O2745 C2747 1.273 . S
O2746 Tb2727 2.473 . S
O2746 C2747 1.257 . S
C2747 O2745 1.273 . S
C2747 O2746 1.257 . S
O2748 Eu2728 2.326 . S
O2748 C2736 1.242 . S
O2749 Tb2727 2.324 . S
O2749 C2736 1.258 . S
O2750 Eu2728 2.500 . S
O2750 C2733 1.273 . S
O2751 Eu2728 2.473 . S
O2751 C2733 1.257 . S
H2752 C2738 0.929 . S
H2753 C2740 0.931 . S
H2754 C2742 0.929 . S
O2755 Tb2756 2.292 1_554 S
O2755 C2758 1.255 . S
Tb2756 O2755 2.292 1_556 S
Tb2756 O2772 2.326 . S
Tb2756 O2774 2.500 . S
Tb2756 O2775 2.473 . S
Tb2756 O2778 2.324 . S
Eu2757 O2761 2.292 . S
Eu2757 C2762 2.852 . S
Eu2757 O2773 2.324 . S
Eu2757 O2777 2.326 . S
Eu2757 O2779 2.500 . S
Eu2757 O2780 2.473 . S
C2758 O2755 1.255 . S
C2758 O2759 1.247 . S
O2759 C2758 1.247 . S
C2760 O2772 1.242 . S
C2760 O2773 1.258 . S
O2761 Eu2757 2.292 . S
O2761 C2763 1.255 . S
C2762 Eu2757 2.852 . S
C2762 C2766 1.503 . S
C2762 O2779 1.273 . S
C2762 O2780 1.257 . S
C2763 O2761 1.255 . S
C2763 O2764 1.247 . S
O2764 C2763 1.247 . S
C2765 O2777 1.242 . S
C2765 O2778 1.258 . S
C2766 C2762 1.503 . S
C2766 C2767 1.379 . S
C2766 C2771 1.392 . S
C2767 C2766 1.379 . S
C2767 C2768 1.404 . S
C2767 H2781 0.929 . S
C2768 C2767 1.404 . S
C2768 C2769 1.389 . S
C2769 C2768 1.389 . S
C2769 C2770 1.399 . S
C2769 H2782 0.931 . S
C2770 C2769 1.399 . S
C2770 C2771 1.390 . S
C2771 C2766 1.392 . S
C2771 C2770 1.390 . S
C2771 H2783 0.929 . S
O2772 Tb2756 2.326 . S
O2772 C2760 1.242 . S
O2773 Eu2757 2.324 . S
O2773 C2760 1.258 . S
O2774 Tb2756 2.500 . S
O2774 C2776 1.273 . S
O2775 Tb2756 2.473 . S
O2775 C2776 1.257 . S
C2776 O2774 1.273 . S
C2776 O2775 1.257 . S
O2777 Eu2757 2.326 . S
O2777 C2765 1.242 . S
O2778 Tb2756 2.324 . S
O2778 C2765 1.258 . S
O2779 Eu2757 2.500 . S
O2779 C2762 1.273 . S
O2780 Eu2757 2.473 . S
O2780 C2762 1.257 . S
H2781 C2767 0.929 . S
H2782 C2769 0.931 . S
H2783 C2771 0.929 . S
C10 C97 3.721 . S
C39 C68 3.721 . S
C155 C126 3.721 . S
C184 C213 3.721 . S
C271 C242 3.721 . S
C329 C300 3.721 . S
C358 C445 3.721 . S
C387 C416 3.721 . S
C474 C503 3.721 . S
C532 C561 3.721 . S
C590 C619 3.721 . S
C677 C648 3.721 . S
C706 C793 3.721 . S
C764 C735 3.721 . S
C851 C822 3.721 . S
C880 C909 3.721 . S
C938 C967 3.721 . S
C996 C1025 3.721 . S
C1054 C1141 3.721 . S
C1112 C1083 3.721 . S
C1199 C1170 3.721 . S
C1228 C1257 3.721 . S
C1315 C1286 3.721 . S
C1373 C1344 3.721 . S
C1402 C1489 3.721 . S
C1460 C1431 3.721 . S
C1518 C1547 3.721 . S
C1605 C1576 3.721 . S
C1663 C1634 3.721 . S
C1692 C1721 3.721 . S
C1750 C1837 3.721 . S
C1779 C1808 3.721 . S
C1866 C1895 3.721 . S
C1924 C1953 3.721 . S
C2011 C1982 3.721 . S
C2040 C2069 3.721 . S
C2185 C2098 3.721 . S
C2156 C2127 3.721 . S
C2214 C2243 3.721 . S
C2272 C2301 3.721 . S
C2359 C2330 3.721 . S
C2417 C2388 3.721 . S
C2446 C2533 3.721 . S
C2504 C2475 3.721 . S
C2591 C2562 3.721 . S
C2649 C2620 3.721 . S
C2707 C2678 3.721 . S
C2765 C2736 3.721 . S
C187 C15 1.226 . S
C216 C44 1.212 1_545 S
C73 C129 1.212 1_565 S
C158 C102 1.226 . S
C131 C303 1.226 . S
C160 C274 1.226 . S
C189 C332 1.212 1_556 S
C218 C245 1.212 1_556 S
C42 C247 1.226 . S
C276 C100 1.226 . S
C71 C305 1.212 1_455 S
C334 C13 1.212 1_655 S
C363 C535 1.226 . S
C392 C564 1.212 1_545 S
C477 C421 1.212 1_565 S
C506 C450 1.226 . S
C651 C479 1.226 . S
C508 C622 1.226 . S
C680 C537 1.212 1_556 S
C566 C593 1.212 1_554 S
C595 C390 1.226 . S
C624 C448 1.226 . S
C653 C419 1.212 1_455 S
C361 C682 1.212 1_655 S
C883 C711 1.226 . S
C740 C912 1.226 . S
C825 C769 1.226 . S
C854 C798 1.226 . S
C827 C999 1.226 . S
C856 C970 1.226 . S
C1028 C885 1.226 . S
C941 C914 1.226 . S
C738 C943 1.226 . S
C796 C972 1.226 . S
C1001 C767 1.212 1_655 S
C1030 C709 1.212 1_655 S
C1231 C1059 1.226 . S
C1260 C1088 1.226 . S
C1173 C1117 1.226 . S
C1202 C1146 1.226 . S
C1175 C1347 1.226 . S
C1318 C1204 1.226 . S
C1233 C1376 1.226 . S
C1289 C1262 1.226 . S
C1086 C1291 1.226 . S
C1320 C1144 1.226 . S
C1115 C1349 1.212 1_655 S
C1378 C1057 1.212 1_455 S
C1407 C1579 1.226 . S
C1608 C1436 1.212 1_545 S
C1465 C1521 1.212 1_565 S
C1550 C1494 1.226 . S
C1523 C1695 1.226 . S
C1552 C1666 1.226 . S
C1581 C1724 1.226 . S
C1610 C1637 1.226 . S
C1434 C1639 1.226 . S
C1668 C1492 1.226 . S
C1697 C1463 1.226 . S
C1405 C1726 1.226 . S
C1927 C1755 1.226 . S
C1784 C1956 1.212 1_545 S
C1813 C1869 1.212 1_545 S
C1842 C1898 1.226 . S
C2043 C1871 1.226 . S
C1900 C2014 1.226 . S
C2072 C1929 1.226 . S
C1985 C1958 1.226 . S
C1987 C1782 1.226 . S
C2016 C1840 1.226 . S
C2045 C1811 1.226 . S
C2074 C1753 1.226 . S
C2103 C2275 1.226 . S
C2132 C2304 1.226 . S
C2161 C2217 1.226 . S
C2190 C2246 1.226 . S
C2391 C2219 1.226 . S
C2362 C2248 1.226 . S
C2277 C2420 1.212 1_556 S
C2306 C2333 1.212 1_556 S
C2335 C2130 1.226 . S
C2364 C2188 1.226 . S
C2159 C2393 1.226 . S
C2422 C2101 1.226 . S
C2451 C2623 1.226 . S
C2652 C2480 1.226 . S
C2509 C2565 1.226 . S
C2538 C2594 1.226 . S
C2567 C2739 1.226 . S
C2710 C2596 1.226 . S
C2625 C2768 1.212 1_554 S
C2654 C2681 1.212 1_554 S
C2683 C2478 1.226 . S
C2712 C2536 1.226 . S
C2507 C2741 1.226 . S
C2449 C2770 1.226 . S
C1337 C21 3.044 . S
C50 C2004 3.044 . S
C79 C670 3.044 . S
C108 C2671 3.044 . S
C137 C1772 3.044 . S
C1047 C166 3.044 . S
C2526 C195 3.044 . S
C224 C409 3.044 . S
C253 C2613 3.044 . S
C282 C1859 3.044 . S
C311 C1192 3.044 . S
C340 C554 3.044 . S
C369 C989 3.044 . S
C398 C1656 3.044 . S
C322 C427 3.044 . S
C456 C2323 3.044 . S
C485 C1424 3.044 . S
C699 C514 3.044 . S
C543 C2178 3.044 . S
C572 C61 3.044 . S
C601 C2265 3.044 . S
C1511 C630 3.044 . S
C844 C659 3.044 . S
C688 C206 3.044 . S
C641 C717 3.044 . S
C2700 C746 3.044 . S
C1366 C775 3.044 . S
C1975 C804 3.044 . S
C833 C2468 3.044 . S
C351 C862 3.044 . S
C1830 C891 3.044 . S
C920 C1105 3.044 . S
C1917 C949 3.044 . S
C978 C2555 3.044 . S
C1007 C496 3.044 . S
C1250 C1036 3.044 . S
C1065 C293 3.044 . S
C2352 C1094 3.044 . S
C1018 C1123 3.044 . S
C1627 C1152 3.044 . S
C1181 C2120 3.044 . S
C1210 C3 3.044 . S
C1482 C1239 3.044 . S
C757 C1268 3.044 . S
C1297 C1569 3.044 . S
C2207 C1326 3.044 . S
C148 C1355 3.044 . S
C1384 C902 3.044 . S
C2729 C1413 3.044 . S
C612 C1442 3.044 . S
C2062 C1471 3.044 . S
C1500 C1279 3.044 . S
C380 C1529 3.044 . S
C1558 C2439 3.044 . S
C1134 C1587 3.044 . S
C1616 C1801 3.044 . S
C1221 C1645 3.044 . S
C467 C1674 3.044 . S
C1703 C2584 3.044 . S
C1732 C1946 3.044 . S
C1761 C2381 3.044 . S
C1790 C264 3.044 . S
C1714 C1819 3.044 . S
C931 C1848 3.044 . S
C32 C1877 3.044 . S
C1906 C2091 3.044 . S
C1935 C786 3.044 . S
C1453 C1964 3.044 . S
C873 C1993 3.044 . S
C119 C2022 3.044 . S
C2236 C2051 3.044 . S
C2080 C1598 3.044 . S
C2109 C2033 3.044 . S
C2138 C1308 3.044 . S
C2167 C2758 3.044 . S
C583 C2196 3.044 . S
C1076 C2225 3.044 . S
C1743 C2254 3.044 . S
C2283 C438 3.044 . S
C2312 C2497 3.044 . S
C2341 C525 3.044 . S
C1163 C2370 3.044 . S
C2399 C1888 3.044 . S
C2428 C2642 3.044 . S
C2457 C1685 3.044 . S
C960 C2486 3.044 . S
C2410 C2515 3.044 . S
C235 C2544 3.044 . S
C2573 C728 3.044 . S
C1395 C2602 3.044 . S
C2631 C90 3.044 . S
C2149 C2660 3.044 . S
C2689 C177 3.044 . S
C815 C2718 3.044 . S
C1540 C2747 3.044 . S
C2294 C2776 3.044 . S
C8 C2673 3.592 1_554 S
C37 C672 3.592 1_554 S
C2006 C66 3.592 . S
C1339 C95 3.592 . S
C1049 C124 3.592 1_655 S
C153 C1774 3.592 . S
C411 C182 3.592 1_655 S
C211 C2528 3.592 . S
C1861 C240 3.592 1_565 S
C269 C2615 3.592 . S
C556 C298 3.592 1_565 S
C327 C1194 3.592 . S
C356 C2325 3.592 1_556 S
C385 C324 3.592 1_556 S
C414 C1658 3.592 . S
C991 C443 3.592 . S
C701 C472 3.592 1_455 S
C1426 C501 3.592 . S
C530 C63 3.592 1_655 S
C2180 C559 3.592 . S
C1513 C588 3.592 1_545 S
C2267 C617 3.592 . S
C208 C646 3.592 1_545 S
C675 C846 3.592 . S
C704 C1977 3.592 . S
C733 C1368 3.592 . S
C762 C2702 3.592 . S
C643 C791 3.592 . S
C353 C820 3.592 1_655 S
C2470 C849 3.592 . S
C878 C1107 3.592 1_455 S
C907 C1832 3.592 . S
C2557 C936 3.592 . S
C965 C1919 3.592 . S
C1252 C994 3.592 . S
C498 C1023 3.592 . S
C1052 C1629 3.592 . S
C1020 C1081 3.592 . S
C2354 C1110 3.592 . S
C295 C1139 3.592 . S
C5 C1168 3.592 1_455 S
C1197 C2122 3.592 . S
C759 C1226 3.592 1_455 S
C1484 C1255 3.592 . S
C2209 C1284 3.592 . S
C1313 C1571 3.592 . S
C904 C1342 3.592 . S
C150 C1371 3.592 . S
C1400 C1281 3.592 . S
C2064 C1429 3.592 . S
C614 C1458 3.592 . S
C1487 C2731 3.592 . S
C2441 C1516 3.592 . S
C1545 C382 3.592 . S
C1574 C1803 3.592 . S
C1603 C1136 3.592 . S
C469 C1632 3.592 1_565 S
C1661 C1223 3.592 . S
C1948 C1690 3.592 1_565 S
C2586 C1719 3.592 . S
C1748 C933 3.592 . S
C1777 C1716 3.592 . S
C1806 C266 3.592 . S
C1835 C2383 3.592 . S
C1864 C2093 3.592 . S
C1893 C34 3.592 . S
C1455 C1922 3.592 . S
C1951 C788 3.592 . S
C1980 C121 3.592 1_565 S
C2009 C875 3.592 . S
C2038 C1600 3.592 1_565 S
C2067 C2238 3.592 . S
C2096 C585 3.592 1_554 S
C2125 C2760 3.592 1_554 S
C2154 C1310 3.592 . S
C2183 C2035 3.592 . S
C2212 C1745 3.592 . S
C2241 C1078 3.592 . S
C2270 C2499 3.592 . S
C2299 C440 3.592 . S
C1165 C2328 3.592 . S
C2357 C527 3.592 . S
C2644 C2386 3.592 . S
C2415 C1890 3.592 . S
C237 C2444 3.592 1_554 S
C2412 C2473 3.592 1_554 S
C962 C2502 3.592 . S
C2531 C1687 3.592 . S
C2560 C1397 3.592 . S
C2589 C730 3.592 . S
C2151 C2618 3.592 . S
C2647 C92 3.592 . S
C2676 C817 3.592 . S
C179 C2705 3.592 . S
C2296 C2734 3.592 . S
C1542 C2763 3.592 . S
