# Generated by pormake.
# Topology vbi, (5)-cn, num edge types: 1
# Building blocks:
#     Node 0, Type 0, BuildingBlock: BEQFEK_clean_sbu_0, # of connection points: 5
#     Node 1, Type 0, BuildingBlock: BEQFEK_clean_sbu_0, # of connection points: 5
#     Node 2, Type 0, BuildingBlock: BEQFEK_clean_sbu_0, # of connection points: 5
#     Node 3, Type 0, BuildingBlock: BEQFEK_clean_sbu_0, # of connection points: 5
#     Node 4, Type 0, BuildingBlock: BEQFEK_clean_sbu_0, # of connection points: 5
#     Node 5, Type 0, BuildingBlock: BEQFEK_clean_sbu_0, # of connection points: 5
#     Node 6, Type 0, BuildingBlock: BEQFEK_clean_sbu_0, # of connection points: 5
#     Node 7, Type 0, BuildingBlock: BEQFEK_clean_sbu_0, # of connection points: 5
#     Node 8, Type 0, BuildingBlock: BEQFEK_clean_sbu_0, # of connection points: 5
#     Node 9, Type 0, BuildingBlock: BEQFEK_clean_sbu_0, # of connection points: 5
#     Node 10, Type 0, BuildingBlock: BEQFEK_clean_sbu_0, # of connection points: 5
#     Node 11, Type 0, BuildingBlock: BEQFEK_clean_sbu_0, # of connection points: 5
#     Node 12, Type 0, BuildingBlock: BEQFEK_clean_sbu_0, # of connection points: 5
#     Node 13, Type 0, BuildingBlock: BEQFEK_clean_sbu_0, # of connection points: 5
#     Node 14, Type 0, BuildingBlock: BEQFEK_clean_sbu_0, # of connection points: 5
#     Node 15, Type 0, BuildingBlock: BEQFEK_clean_sbu_0, # of connection points: 5
#     Node 16, Type 0, BuildingBlock: BEQFEK_clean_sbu_0, # of connection points: 5
#     Node 17, Type 0, BuildingBlock: BEQFEK_clean_sbu_0, # of connection points: 5
#     Node 18, Type 0, BuildingBlock: BEQFEK_clean_sbu_0, # of connection points: 5
#     Node 19, Type 0, BuildingBlock: BEQFEK_clean_sbu_0, # of connection points: 5
#     Node 20, Type 0, BuildingBlock: BEQFEK_clean_sbu_0, # of connection points: 5
#     Node 21, Type 0, BuildingBlock: BEQFEK_clean_sbu_0, # of connection points: 5
#     Node 22, Type 0, BuildingBlock: BEQFEK_clean_sbu_0, # of connection points: 5
#     Node 23, Type 0, BuildingBlock: BEQFEK_clean_sbu_0, # of connection points: 5
#     Node 24, Type 0, BuildingBlock: BEQFEK_clean_sbu_0, # of connection points: 5
#     Node 25, Type 0, BuildingBlock: BEQFEK_clean_sbu_0, # of connection points: 5
#     Node 26, Type 0, BuildingBlock: BEQFEK_clean_sbu_0, # of connection points: 5
#     Node 27, Type 0, BuildingBlock: BEQFEK_clean_sbu_0, # of connection points: 5
#     Node 28, Type 0, BuildingBlock: BEQFEK_clean_sbu_0, # of connection points: 5
#     Node 29, Type 0, BuildingBlock: BEQFEK_clean_sbu_0, # of connection points: 5
#     Node 30, Type 0, BuildingBlock: BEQFEK_clean_sbu_0, # of connection points: 5
#     Node 31, Type 0, BuildingBlock: BEQFEK_clean_sbu_0, # of connection points: 5
#     Edge 32, Type (0, 0), None
#     Edge 33, Type (0, 0), None
#     Edge 34, Type (0, 0), None
#     Edge 35, Type (0, 0), None
#     Edge 36, Type (0, 0), None
#     Edge 37, Type (0, 0), None
#     Edge 38, Type (0, 0), None
#     Edge 39, Type (0, 0), None
#     Edge 40, Type (0, 0), None
#     Edge 41, Type (0, 0), None
#     Edge 42, Type (0, 0), None
#     Edge 43, Type (0, 0), None
#     Edge 44, Type (0, 0), None
#     Edge 45, Type (0, 0), None
#     Edge 46, Type (0, 0), None
#     Edge 47, Type (0, 0), None
#     Edge 48, Type (0, 0), None
#     Edge 49, Type (0, 0), None
#     Edge 50, Type (0, 0), None
#     Edge 51, Type (0, 0), None
#     Edge 52, Type (0, 0), None
#     Edge 53, Type (0, 0), None
#     Edge 54, Type (0, 0), None
#     Edge 55, Type (0, 0), None
#     Edge 56, Type (0, 0), None
#     Edge 57, Type (0, 0), None
#     Edge 58, Type (0, 0), None
#     Edge 59, Type (0, 0), None
#     Edge 60, Type (0, 0), None
#     Edge 61, Type (0, 0), None
#     Edge 62, Type (0, 0), None
#     Edge 63, Type (0, 0), None
#     Edge 64, Type (0, 0), None
#     Edge 65, Type (0, 0), None
#     Edge 66, Type (0, 0), None
#     Edge 67, Type (0, 0), None
#     Edge 68, Type (0, 0), None
#     Edge 69, Type (0, 0), None
#     Edge 70, Type (0, 0), None
#     Edge 71, Type (0, 0), None
#     Edge 72, Type (0, 0), None
#     Edge 73, Type (0, 0), None
#     Edge 74, Type (0, 0), None
#     Edge 75, Type (0, 0), None
#     Edge 76, Type (0, 0), None
#     Edge 77, Type (0, 0), None
#     Edge 78, Type (0, 0), None
#     Edge 79, Type (0, 0), None
#     Edge 80, Type (0, 0), None
#     Edge 81, Type (0, 0), None
#     Edge 82, Type (0, 0), None
#     Edge 83, Type (0, 0), None
#     Edge 84, Type (0, 0), None
#     Edge 85, Type (0, 0), None
#     Edge 86, Type (0, 0), None
#     Edge 87, Type (0, 0), None
#     Edge 88, Type (0, 0), None
#     Edge 89, Type (0, 0), None
#     Edge 90, Type (0, 0), None
#     Edge 91, Type (0, 0), None
#     Edge 92, Type (0, 0), None
#     Edge 93, Type (0, 0), None
#     Edge 94, Type (0, 0), None
#     Edge 95, Type (0, 0), None
#     Edge 96, Type (0, 0), None
#     Edge 97, Type (0, 0), None
#     Edge 98, Type (0, 0), None
#     Edge 99, Type (0, 0), None
#     Edge 100, Type (0, 0), None
#     Edge 101, Type (0, 0), None
#     Edge 102, Type (0, 0), None
#     Edge 103, Type (0, 0), None
#     Edge 104, Type (0, 0), None
#     Edge 105, Type (0, 0), None
#     Edge 106, Type (0, 0), None
#     Edge 107, Type (0, 0), None
#     Edge 108, Type (0, 0), None
#     Edge 109, Type (0, 0), None
#     Edge 110, Type (0, 0), None
#     Edge 111, Type (0, 0), None
# Relax obj value: 0.850
# Max RMSD: 0.270
# Mean RMSD: 0.270
data_MOF--net-vbi--node1-BEQFEK_clean_sbu_0--edge1-none
_symmetry_space_group_name_H-M    P1
_symmetry_Int_Tables_number       1
_symmetry_cell_setting            triclinic
loop_
_symmetry_equiv_pos_as_xyz
'x, y, z'
_cell_length_a     16.880501
_cell_length_b     26.016664
_cell_length_c     41.010974
_cell_angle_alpha  90.000002
_cell_angle_beta   90.000004
_cell_angle_gamma 89.999683
loop_
_atom_site_label
_atom_site_type_symbol
_atom_site_fract_x
_atom_site_fract_y
_atom_site_fract_z
_atom_type_partial_charge
Co0 Co 0.42955 0.17918 0.03221 0.0
Co1 Co 0.26405 0.14388 0.00936 0.0
C2 C 0.33601 0.24144 -0.01609 0.0
O3 O 0.39826 0.22929 -0.00057 0.0
O4 O 0.27377 0.21287 -0.0153 0.0
C5 C 0.58093 0.17612 0.01224 0.0
O6 O 0.54217 0.17479 -0.01552 0.0
C7 C 0.13928 0.08076 -0.02644 0.0
C8 C 0.09557 1.03399 0.01442 0.0
C9 C 0.09283 1.03746 -0.01919 0.0
N10 N 0.17026 0.10019 0.00128 0.0
N11 N 0.14053 0.07302 0.02567 0.0
C12 C 0.15454 0.10257 0.94036 0.0
H13 H 0.19932 0.13376 0.94157 0.0
H14 H 0.1739 0.07219 0.92316 0.0
H15 H 0.09832 0.11848 0.93063 0.0
C16 C 0.4757 0.08004 0.01392 0.0
N17 N 0.41357 0.11039 0.02084 0.0
N18 N 0.3584 0.10499 -0.00107 0.0
C19 C 0.38761 0.07475 -0.02496 0.0
C20 C 0.46692 0.06092 -0.01769 0.0
C21 C 0.51526 0.05187 0.04147 0.0
H22 H 0.47168 1.0451 0.06131 0.0
H23 H 0.56276 0.07591 0.05227 0.0
H24 H 0.53855 1.01396 0.03367 0.0
O25 O 0.3732 0.19692 0.06998 0.0
O26 O 0.26273 0.15398 0.05954 0.0
H27 H 0.36208 1.02141 0.93691 0.0
H28 H 0.32388 0.08561 0.93066 0.0
C29 C 0.33591 0.05483 0.94869 0.0
H30 H 0.27964 1.04181 0.95957 0.0
H31 H 0.15664 0.07807 0.05001 0.0
O32 O 0.54359 0.18348 0.03868 0.0
C33 C 0.3078 0.17833 0.07931 0.0
Co34 Co 0.81761 0.16701 0.03224 0.0
Co35 Co 0.98308 0.20235 0.00935 0.0
C36 C 0.91118 0.10476 -0.01606 0.0
O37 O 0.84896 0.11688 -0.0005 0.0
O38 O 0.97338 0.13336 -0.01531 0.0
C39 C 0.66626 0.16997 0.01225 0.0
O40 O 0.70505 0.17128 -0.0155 0.0
C41 C 0.10783 0.26547 -0.02648 0.0
C42 C 0.15158 0.31225 0.01438 0.0
C43 C 0.15429 0.30877 -0.01923 0.0
N44 N 0.07685 0.24605 0.00125 0.0
N45 N 0.10661 0.27323 0.02563 0.0
C46 C 0.09254 0.24366 0.94033 0.0
H47 H 0.04777 0.21247 0.94155 0.0
H48 H 0.07316 0.27404 0.92313 0.0
H49 H 0.14876 0.22775 0.93059 0.0
C50 C 0.77136 0.26612 0.0139 0.0
N51 N 0.83351 0.23579 0.02082 0.0
N52 N 0.8887 0.24122 -0.00107 0.0
C53 C 0.85949 0.27147 -0.02496 0.0
C54 C 0.78016 0.28528 -0.0177 0.0
C55 C 0.73168 0.29422 0.04145 0.0
H56 H 0.77517 0.30093 0.06133 0.0
H57 H 0.68414 0.27014 0.0522 0.0
H58 H 0.70841 0.33213 0.03368 0.0
O59 O 0.87398 0.14939 0.07003 0.0
O60 O 0.98447 0.19225 0.05952 0.0
H61 H 0.88504 0.32486 0.93694 0.0
H62 H 0.92322 0.26066 0.93066 0.0
C63 C 0.9112 0.29142 0.9487 0.0
H64 H 0.96747 0.30442 0.95959 0.0
H65 H 0.09052 0.26818 0.04998 0.0
O66 O 0.70357 0.16266 0.0387 0.0
C67 C 0.93942 0.16796 0.07932 0.0
Co68 Co 0.42965 0.16707 0.16131 0.0
Co69 Co 0.26415 0.20239 0.18418 0.0
C70 C 0.33609 0.10483 0.20962 0.0
O71 O 0.39833 0.11697 0.19408 0.0
O72 O 0.27386 0.13341 0.20884 0.0
C73 C 0.58101 0.17007 0.1813 0.0
O74 O 0.54223 0.17139 0.20906 0.0
C75 C 0.13938 0.26551 0.21999 0.0
C76 C 0.09567 0.31229 0.17913 0.0
C77 C 0.09293 0.30881 0.21274 0.0
N78 N 0.17038 0.24608 0.19227 0.0
N79 N 0.14065 0.27327 0.16788 0.0
C80 C 0.15464 0.24369 0.25318 0.0
H81 H 0.19939 0.21249 0.25197 0.0
H82 H 0.17402 0.27406 0.27038 0.0
H83 H 0.09841 0.22779 0.26291 0.0
C84 C 0.47584 0.26619 0.17962 0.0
N85 N 0.4137 0.23587 0.17269 0.0
N86 N 0.35853 0.24126 0.19459 0.0
C87 C 0.38776 0.27148 0.2185 0.0
C88 C 0.46707 0.2853 0.21123 0.0
C89 C 0.51544 0.29436 0.15208 0.0
H90 H 0.47189 0.30113 0.13223 0.0
H91 H 0.56294 0.27032 0.14129 0.0
H92 H 0.53873 0.33226 0.15988 0.0
O93 O 0.37329 0.14936 0.12354 0.0
O94 O 0.26277 0.19225 0.134 0.0
H95 H 0.36225 0.32476 0.25668 0.0
H96 H 0.32405 0.26054 0.26288 0.0
C97 C 0.33608 0.29135 0.24487 0.0
H98 H 0.2798 0.3044 0.234 0.0
H99 H 0.15676 0.26822 0.14353 0.0
O100 O 0.54369 0.16274 0.15486 0.0
C101 C 0.30783 0.16789 0.11424 0.0
Co102 Co 0.81772 0.17922 0.16133 0.0
Co103 Co 0.98322 0.14388 0.18417 0.0
C104 C 0.91128 0.24143 0.20964 0.0
O105 O 0.84902 0.22929 0.19412 0.0
O106 O 0.97353 0.21287 0.20884 0.0
C107 C 0.66635 0.17621 0.18131 0.0
O108 O 0.70511 0.17487 0.20907 0.0
C109 C 0.10801 0.08075 0.21997 0.0
C110 C 0.1517 1.03397 0.1791 0.0
C111 C 0.15445 1.03745 0.21271 0.0
N112 N 0.077 0.10018 0.19225 0.0
N113 N 0.10672 0.073 0.16786 0.0
C114 C 0.09276 0.10256 0.25317 0.0
H115 H 0.048 0.13376 0.25196 0.0
H116 H 0.07339 0.07218 0.27036 0.0
H117 H 0.14899 0.11846 0.26289 0.0
C118 C 0.77154 0.08009 0.17962 0.0
N119 N 0.83368 0.11041 0.17269 0.0
N120 N 0.88885 0.10501 0.19459 0.0
C121 C 0.85963 0.07479 0.21849 0.0
C122 C 0.78031 0.06097 0.21123 0.0
C123 C 0.73193 0.05192 0.15207 0.0
H124 H 0.77547 1.04516 0.13222 0.0
H125 H 0.68442 0.07597 0.14129 0.0
H126 H 0.70864 1.01402 0.15987 0.0
O127 O 0.8741 0.197 0.12357 0.0
O128 O 0.98455 0.154 0.134 0.0
H129 H 0.88515 1.02148 0.25665 0.0
H130 H 0.92335 0.08569 0.26287 0.0
C131 C 0.91132 0.05489 0.24485 0.0
H132 H 0.96759 1.04186 0.23398 0.0
H133 H 0.0906 0.07805 0.14351 0.0
O134 O 0.70368 0.18355 0.15487 0.0
C135 C 0.93951 0.17841 0.11425 0.0
Co136 Co 0.56758 0.91708 0.91129 0.0
Co137 Co 0.73309 0.95236 0.93417 0.0
C138 C 0.66114 0.85479 0.95958 0.0
O139 O 0.59891 0.86694 0.94405 0.0
O140 O 0.72336 0.88338 0.95882 0.0
C141 C 0.41623 0.92013 0.9313 0.0
O142 O 0.45503 0.92143 0.95905 0.0
C143 C 0.85773 1.01551 0.97 0.0
C144 C 0.90161 0.06225 0.92913 0.0
C145 C 0.90405 0.05885 0.96274 0.0
N146 N 0.8269 0.99603 0.94227 0.0
N147 N 0.85674 1.02317 0.91788 0.0
C148 C 0.84244 0.99371 0.0032 0.0
H149 H 0.79767 0.96252 0.00199 0.0
H150 H 0.82308 1.0241 0.0204 0.0
H151 H 0.89865 0.97779 0.01294 0.0
C152 C 0.52142 1.0162 0.92961 0.0
N153 N 0.58356 0.98587 0.92269 0.0
N154 N 0.63873 0.99126 0.94459 0.0
C155 C 0.60949 1.0215 0.96849 0.0
C156 C 0.53017 1.0353 0.96122 0.0
C157 C 0.48184 1.04438 0.90206 0.0
H158 H 0.52541 0.05114 0.88222 0.0
H159 H 0.43434 1.02034 0.89126 0.0
H160 H 0.45856 0.08228 0.90986 0.0
O161 O 0.62392 0.89943 0.8735 0.0
O162 O 0.73446 0.94225 0.88399 0.0
H163 H 0.63498 0.07487 0.00661 0.0
H164 H 0.67321 1.01068 0.01287 0.0
C165 C 0.66117 1.04145 -0.00517 0.0
H166 H 0.71743 0.05449 -0.01605 0.0
H167 H 0.84077 1.01805 0.89352 0.0
O168 O 0.45353 0.91278 0.90484 0.0
C169 C 0.68938 0.91797 0.8642 0.0
Co170 Co 0.17951 0.92929 0.91134 0.0
Co171 Co 0.01403 0.89391 0.93417 0.0
C172 C 0.08589 0.99151 0.95962 0.0
O173 O 0.14819 0.97939 0.94412 0.0
O174 O 0.02367 0.96292 0.95881 0.0
C175 C 0.3309 0.92629 0.93131 0.0
O176 O 0.29215 0.92496 0.95907 0.0
C177 C 0.88926 0.83078 0.96998 0.0
C178 C 0.84556 0.78399 0.92912 0.0
C179 C 0.84282 0.78747 0.96273 0.0
N180 N 0.92026 0.85021 0.94226 0.0
N181 N 0.89053 0.82302 0.91787 0.0
C182 C 0.90453 0.85259 0.00318 0.0
H183 H 0.9493 0.88378 0.00196 0.0
H184 H 0.92389 0.82221 0.02038 0.0
H185 H 0.84831 0.86851 0.0129 0.0
C186 C 0.22575 0.83017 0.92965 0.0
N187 N 0.16361 0.8605 0.92273 0.0
N188 N 0.10841 0.85506 0.94461 0.0
C189 C 0.13761 0.8248 0.9685 0.0
C190 C 0.21694 0.811 0.96124 0.0
C191 C 0.2654 0.80206 0.90209 0.0
H192 H 0.22189 0.79534 0.88222 0.0
H193 H 0.31293 0.82612 0.89134 0.0
H194 H 0.28866 0.76414 0.90987 0.0
O195 O 0.12313 0.947 0.87356 0.0
O196 O 0.01273 0.90399 0.884 0.0
H197 H 0.11206 0.7714 0.00659 0.0
H198 H 0.07385 0.83559 0.01288 0.0
C199 C 0.0859 0.80484 -0.00517 0.0
H200 H 0.02963 0.79183 -0.01607 0.0
H201 H 0.90664 0.82807 0.89352 0.0
O202 O 0.29355 0.93364 0.90487 0.0
C203 C 0.05777 0.92836 0.86423 0.0
Co204 Co 0.56771 0.92919 0.78218 0.0
Co205 Co 0.73321 0.89387 0.75935 0.0
C206 C 0.66128 0.99142 0.73389 0.0
O207 O 0.599 0.97927 0.74939 0.0
O208 O 0.72352 0.96286 0.73469 0.0
C209 C 0.41633 0.92617 0.76221 0.0
O210 O 0.45509 0.92483 0.73445 0.0
C211 C 0.85801 0.83074 0.72357 0.0
C212 C 0.90168 0.78396 0.76443 0.0
C213 C 0.90445 0.78744 0.73083 0.0
N214 N 0.827 0.85017 0.75128 0.0
N215 N 0.85671 0.82299 0.77568 0.0
C216 C 0.84277 0.85256 0.69037 0.0
H217 H 0.79801 0.88375 0.69158 0.0
H218 H 0.82341 0.82218 0.67317 0.0
H219 H 0.899 0.86846 0.68064 0.0
C220 C 0.52154 0.83006 0.7639 0.0
N221 N 0.58368 0.86039 0.77083 0.0
N222 N 0.63885 0.85499 0.74893 0.0
C223 C 0.60963 0.82478 0.72502 0.0
C224 C 0.53031 0.81095 0.73229 0.0
C225 C 0.48196 0.80188 0.79145 0.0
H226 H 0.52553 0.7951 0.81129 0.0
H227 H 0.43447 0.82592 0.80224 0.0
H228 H 0.45867 0.76398 0.78364 0.0
O229 O 0.62406 0.94698 0.81995 0.0
O230 O 0.73452 0.90399 0.80953 0.0
H231 H 0.63515 0.77149 0.68685 0.0
H232 H 0.67334 0.8357 0.68065 0.0
C233 C 0.66131 0.80489 0.69866 0.0
H234 H 0.71759 0.79186 0.70953 0.0
H235 H 0.84057 0.82804 0.80002 0.0
O236 O 0.45367 0.93351 0.78865 0.0
C237 C 0.68946 0.9284 0.82927 0.0
Co238 Co 0.17965 0.91706 0.78223 0.0
Co239 Co 0.01416 0.95238 0.75935 0.0
C240 C 0.08607 0.85481 0.73393 0.0
O241 O 0.1483 0.86694 0.74947 0.0
O242 O 0.02385 0.8834 0.73469 0.0
C243 C 0.33099 0.92003 0.76222 0.0
O244 O 0.29219 0.92135 0.73447 0.0
C245 C 0.88939 1.01551 0.72355 0.0
C246 C 0.84568 0.06229 0.7644 0.0
C247 C 0.84294 0.05881 0.7308 0.0
N248 N 0.92039 0.99608 0.75127 0.0
N249 N 0.89066 1.02327 0.77566 0.0
C250 C 0.90464 0.99368 0.69035 0.0
H251 H 0.9494 0.96248 0.69156 0.0
H252 H 0.92402 1.02406 0.67315 0.0
H253 H 0.84841 0.97778 0.68062 0.0
C254 C 0.22586 1.01617 0.76391 0.0
N255 N 0.16372 0.98585 0.77084 0.0
N256 N 0.10854 0.99125 0.74893 0.0
C257 C 0.13777 1.02147 0.72503 0.0
C258 C 0.21709 1.03529 0.73229 0.0
C259 C 0.26549 1.04433 0.79145 0.0
H260 H 0.22195 0.05109 0.8113 0.0
H261 H 0.313 1.02028 0.80223 0.0
H262 H 0.28877 0.08223 0.78365 0.0
O263 O 0.12332 0.8994 0.82002 0.0
O264 O 0.01277 0.94225 0.80953 0.0
H265 H 0.11225 0.07476 0.68686 0.0
H266 H 0.07405 1.01055 0.68065 0.0
C267 C 0.08608 1.04135 0.69867 0.0
H268 H 0.02981 0.05439 0.70954 0.0
H269 H 0.90678 1.01822 0.8 0.0
O270 O 0.29369 0.91272 0.78867 0.0
C271 C 0.05785 0.91792 0.8293 0.0
Co272 Co 0.42954 0.67918 0.5322 0.0
Co273 Co 0.26404 0.64388 0.50935 0.0
C274 C 0.33599 0.74144 0.48391 0.0
O275 O 0.39825 0.72929 0.49943 0.0
O276 O 0.27375 0.71288 0.48469 0.0
C277 C 0.58091 0.67611 0.51223 0.0
O278 O 0.54216 0.67478 0.48447 0.0
C279 C 0.13928 0.58076 0.47354 0.0
C280 C 0.09556 0.53399 0.5144 0.0
C281 C 0.09283 0.53746 0.4808 0.0
N282 N 0.17026 0.6002 0.50127 0.0
N283 N 0.14052 0.57302 0.52566 0.0
C284 C 0.15455 0.60257 0.44035 0.0
H285 H 0.19932 0.63376 0.44156 0.0
H286 H 0.1739 0.57219 0.42315 0.0
H287 H 0.09833 0.61849 0.43062 0.0
C288 C 0.47568 0.58004 0.51392 0.0
N289 N 0.41356 0.61039 0.52083 0.0
N290 N 0.35839 0.60499 0.49893 0.0
C291 C 0.38761 0.57475 0.47503 0.0
C292 C 0.46692 0.56092 0.48231 0.0
C293 C 0.51523 0.55186 0.54147 0.0
H294 H 0.47164 0.5451 0.5613 0.0
H295 H 0.56272 0.5759 0.55227 0.0
H296 H 0.53852 0.51396 0.53367 0.0
O297 O 0.37319 0.69692 0.56997 0.0
O298 O 0.26273 0.65398 0.55953 0.0
H299 H 0.36209 0.52142 0.43689 0.0
H300 H 0.32389 0.58562 0.43065 0.0
C301 C 0.33592 0.55484 0.44868 0.0
H302 H 0.27965 0.54181 0.45956 0.0
H303 H 0.15663 0.57807 0.55 0.0
O304 O 0.54358 0.68348 0.53867 0.0
C305 C 0.3078 0.67832 0.5793 0.0
Co306 Co 0.81759 0.66702 0.53225 0.0
Co307 Co 0.98306 0.70236 0.50935 0.0
C308 C 0.91118 0.60476 0.48396 0.0
O309 O 0.84896 0.61687 0.49952 0.0
O310 O 0.97337 0.63337 0.4847 0.0
C311 C 0.66625 0.66996 0.51225 0.0
O312 O 0.70505 0.67127 0.4845 0.0
C313 C 0.10781 0.76548 0.47352 0.0
C314 C 0.15156 0.81226 0.51437 0.0
C315 C 0.15427 0.80878 0.48077 0.0
N316 N 0.07683 0.74606 0.50125 0.0
N317 N 0.10659 0.77324 0.52563 0.0
C318 C 0.09252 0.74366 0.44033 0.0
H319 H 0.04775 0.71247 0.44155 0.0
H320 H 0.07314 0.77403 0.42313 0.0
H321 H 0.14874 0.72775 0.43059 0.0
C322 C 0.77134 0.76612 0.5139 0.0
N323 N 0.83348 0.73579 0.52082 0.0
N324 N 0.88867 0.74122 0.49893 0.0
C325 C 0.85946 0.77147 0.47504 0.0
C326 C 0.78014 0.78528 0.4823 0.0
C327 C 0.73164 0.79422 0.54145 0.0
H328 H 0.77514 0.80093 0.56133 0.0
H329 H 0.68411 0.77014 0.55219 0.0
H330 H 0.70838 0.83214 0.53367 0.0
O331 O 0.87393 0.64943 0.57005 0.0
O332 O 0.98446 0.69226 0.55953 0.0
H333 H 0.88501 0.82485 0.43693 0.0
H334 H 0.92319 0.76066 0.43066 0.0
C335 C 0.91117 0.79142 0.4487 0.0
H336 H 0.96744 0.80442 0.45959 0.0
H337 H 0.09049 0.76819 0.54998 0.0
O338 O 0.70355 0.66266 0.5387 0.0
C339 C 0.93939 0.66798 0.57933 0.0
Co340 Co 0.42966 0.66711 0.66131 0.0
Co341 Co 0.26413 0.7024 0.68417 0.0
C342 C 0.33611 0.60484 0.70961 0.0
O343 O 0.39836 0.617 0.69408 0.0
O344 O 0.27387 0.63341 0.70883 0.0
C345 C 0.58101 0.67019 0.6813 0.0
O346 O 0.54221 0.67151 0.70905 0.0
C347 C 0.1395 0.76556 0.71999 0.0
C348 C 0.09562 0.81229 0.67911 0.0
C349 C 0.09318 0.8089 0.71272 0.0
N350 N 0.17032 0.74606 0.69226 0.0
N351 N 0.14049 0.77321 0.66787 0.0
C352 C 0.15479 0.74376 0.7532 0.0
H353 H 0.19956 0.71257 0.75198 0.0
H354 H 0.17414 0.77415 0.77039 0.0
H355 H 0.09858 0.72784 0.76293 0.0
C356 C 0.4758 0.76624 0.67959 0.0
N357 N 0.41366 0.7359 0.67267 0.0
N358 N 0.35849 0.7413 0.69458 0.0
C359 C 0.38773 0.77155 0.71847 0.0
C360 C 0.46705 0.78535 0.7112 0.0
C361 C 0.51534 0.79443 0.65204 0.0
H362 H 0.47175 0.80121 0.6322 0.0
H363 H 0.56282 0.77039 0.64123 0.0
H364 H 0.53865 0.83232 0.65984 0.0
O365 O 0.3733 0.64938 0.62353 0.0
O366 O 0.26275 0.69225 0.63399 0.0
H367 H 0.36225 0.82493 0.75658 0.0
H368 H 0.32401 0.76074 0.76285 0.0
C369 C 0.33605 0.7915 0.74481 0.0
H370 H 0.27979 0.80454 0.73393 0.0
H371 H 0.15646 0.76808 0.64351 0.0
O372 O 0.54371 0.66282 0.65486 0.0
C373 C 0.30783 0.6679 0.61423 0.0
Co374 Co 0.81773 0.67932 0.66135 0.0
Co375 Co 0.98323 0.64389 0.68417 0.0
C376 C 0.91138 0.74149 0.70964 0.0
O377 O 0.84906 0.72938 0.69415 0.0
O378 O 0.97359 0.7129 0.70882 0.0
C379 C 0.66635 0.67636 0.68132 0.0
O380 O 0.7051 0.67502 0.70908 0.0
C381 C 0.10799 0.58074 0.71997 0.0
C382 C 0.15168 0.53396 0.67911 0.0
C383 C 0.15443 0.53743 0.71272 0.0
N384 N 0.07699 0.60017 0.69225 0.0
N385 N 0.10671 0.57299 0.66786 0.0
C386 C 0.09272 0.60255 0.75317 0.0
H387 H 0.04795 0.63374 0.75196 0.0
H388 H 0.07336 0.57216 0.77036 0.0
H389 H 0.14894 0.61846 0.7629 0.0
C390 C 0.77146 0.5802 0.67964 0.0
N391 N 0.83361 0.61052 0.67272 0.0
N392 N 0.88883 0.60505 0.6946 0.0
C393 C 0.85963 0.57477 0.71848 0.0
C394 C 0.78029 0.561 0.71123 0.0
C395 C 0.73173 0.55214 0.65209 0.0
H396 H 0.7752 0.54545 0.63219 0.0
H397 H 0.68419 0.57623 0.64137 0.0
H398 H 0.70848 0.51421 0.65985 0.0
O399 O 0.87416 0.69707 0.62359 0.0
O400 O 0.98453 0.65399 0.634 0.0
H401 H 0.8852 0.52131 0.75653 0.0
H402 H 0.92341 0.58549 0.76286 0.0
C403 C 0.91137 0.55477 0.74479 0.0
H404 H 0.96763 0.54178 0.73388 0.0
H405 H 0.09059 0.57804 0.64351 0.0
O406 O 0.70369 0.68369 0.65488 0.0
C407 C 0.93952 0.67844 0.61426 0.0
Co408 Co 0.5676 0.41708 0.4113 0.0
Co409 Co 0.7331 0.45236 0.43418 0.0
C410 C 0.66115 0.35479 0.45959 0.0
O411 O 0.59892 0.36694 0.44405 0.0
O412 O 0.72338 0.38337 0.45883 0.0
C413 C 0.41625 0.42013 0.4313 0.0
O414 O 0.45504 0.42144 0.45905 0.0
C415 C 0.85773 0.51551 0.47001 0.0
C416 C 0.90162 0.56225 0.42914 0.0
C417 C 0.90405 0.55885 0.46275 0.0
N418 N 0.82691 0.49602 0.44228 0.0
N419 N 0.85676 0.52317 0.41789 0.0
C420 C 0.84243 0.49371 0.50321 0.0
H421 H 0.79766 0.46252 0.50199 0.0
H422 H 0.82307 0.52409 0.52041 0.0
H423 H 0.89864 0.47779 0.51295 0.0
C424 C 0.52143 0.5162 0.42961 0.0
N425 N 0.58357 0.48587 0.42269 0.0
N426 N 0.63874 0.49126 0.4446 0.0
C427 C 0.60949 0.5215 0.46849 0.0
C428 C 0.53017 0.5353 0.46122 0.0
C429 C 0.48187 0.54438 0.40206 0.0
H430 H 0.52545 0.55115 0.38222 0.0
H431 H 0.43438 0.52034 0.39126 0.0
H432 H 0.45858 0.58228 0.40986 0.0
O433 O 0.62393 0.39942 0.37351 0.0
O434 O 0.73447 0.44226 0.384 0.0
H435 H 0.63497 0.57486 0.50662 0.0
H436 H 0.6732 0.51068 0.51288 0.0
C437 C 0.66116 0.54144 0.49484 0.0
H438 H 0.71743 0.55448 0.48396 0.0
H439 H 0.84079 0.51805 0.39353 0.0
O440 O 0.45355 0.41278 0.40485 0.0
C441 C 0.68938 0.41797 0.36421 0.0
Co442 Co 0.17954 0.42929 0.41134 0.0
Co443 Co 0.01405 0.3939 0.43417 0.0
C444 C 0.08589 0.49151 0.45961 0.0
O445 O 0.14819 0.47939 0.4441 0.0
O446 O 0.02368 0.46291 0.45881 0.0
C447 C 0.33091 0.4263 0.43131 0.0
O448 O 0.29215 0.42497 0.45907 0.0
C449 C 0.88929 0.33077 0.46998 0.0
C450 C 0.84558 0.28398 0.42912 0.0
C451 C 0.84284 0.28746 0.46273 0.0
N452 N 0.92028 0.3502 0.44226 0.0
N453 N 0.89055 0.32301 0.41787 0.0
C454 C 0.90455 0.35259 0.50318 0.0
H455 H 0.94932 0.38378 0.50196 0.0
H456 H 0.92392 0.32221 0.52038 0.0
H457 H 0.84833 0.36851 0.5129 0.0
C458 C 0.22578 0.33017 0.42965 0.0
N459 N 0.16363 0.3605 0.42273 0.0
N460 N 0.10843 0.35506 0.44461 0.0
C461 C 0.13764 0.3248 0.4685 0.0
C462 C 0.21697 0.311 0.46124 0.0
C463 C 0.26543 0.30206 0.40209 0.0
H464 H 0.22192 0.29534 0.38222 0.0
H465 H 0.31297 0.32612 0.39134 0.0
H466 H 0.28869 0.26414 0.40987 0.0
O467 O 0.12318 0.44695 0.37354 0.0
O468 O 0.01275 0.40398 0.384 0.0
H469 H 0.11209 0.2714 0.5066 0.0
H470 H 0.07388 0.33559 0.51288 0.0
C471 C 0.08592 0.30484 0.49483 0.0
H472 H 0.02966 0.29183 0.48394 0.0
H473 H 0.90666 0.32805 0.39352 0.0
O474 O 0.29357 0.43363 0.40487 0.0
C475 C 0.0578 0.42833 0.36422 0.0
Co476 Co 0.5677 0.42916 0.28219 0.0
Co477 Co 0.73324 0.39386 0.25937 0.0
C478 C 0.66125 0.4914 0.23389 0.0
O479 O 0.59897 0.47924 0.2494 0.0
O480 O 0.72351 0.46285 0.2347 0.0
C481 C 0.41633 0.42604 0.26221 0.0
O482 O 0.4551 0.42471 0.23445 0.0
C483 C 0.8579 0.3307 0.22356 0.0
C484 C 0.90173 0.28396 0.26445 0.0
C485 C 0.9042 0.28735 0.23084 0.0
N486 N 0.82705 0.3502 0.25129 0.0
N487 N 0.85687 0.32305 0.27569 0.0
C488 C 0.84262 0.35248 0.19036 0.0
H489 H 0.79784 0.38367 0.19156 0.0
H490 H 0.82329 0.32209 0.17316 0.0
H491 H 0.89883 0.36841 0.18063 0.0
C492 C 0.52159 0.33001 0.26394 0.0
N493 N 0.58372 0.36035 0.27085 0.0
N494 N 0.63889 0.35495 0.24895 0.0
C495 C 0.60965 0.32471 0.22505 0.0
C496 C 0.53033 0.3109 0.23232 0.0
C497 C 0.48206 0.30181 0.29149 0.0
H498 H 0.52567 0.29503 0.31131 0.0
H499 H 0.43458 0.32585 0.3023 0.0
H500 H 0.45876 0.26392 0.28368 0.0
O501 O 0.62406 0.44696 0.31995 0.0
O502 O 0.73454 0.40399 0.30954 0.0
H503 H 0.63514 0.27131 0.18695 0.0
H504 H 0.67339 0.3355 0.18067 0.0
C505 C 0.66134 0.30474 0.19872 0.0
H506 H 0.7176 0.29171 0.20961 0.0
H507 H 0.84087 0.32818 0.30004 0.0
O508 O 0.45365 0.43344 0.28865 0.0
C509 C 0.68947 0.42839 0.32928 0.0
Co510 Co 0.17965 0.41695 0.28221 0.0
Co511 Co 0.01415 0.45237 0.25935 0.0
C512 C 0.08597 0.35475 0.23393 0.0
O513 O 0.14826 0.36685 0.24945 0.0
O514 O 0.02378 0.38337 0.23471 0.0
C515 C 0.331 0.41988 0.26221 0.0
O516 O 0.29221 0.4212 0.23446 0.0
C517 C 0.8894 0.51551 0.22354 0.0
C518 C 0.8457 0.5623 0.2644 0.0
C519 C 0.84296 0.55882 0.23079 0.0
N520 N 0.9204 0.49609 0.25126 0.0
N521 N 0.89067 0.52328 0.27565 0.0
C522 C 0.90468 0.4937 0.19034 0.0
H523 H 0.94945 0.46251 0.19156 0.0
H524 H 0.92404 0.52408 0.17315 0.0
H525 H 0.84846 0.47778 0.18062 0.0
C526 C 0.22594 0.51606 0.26388 0.0
N527 N 0.16378 0.48574 0.2708 0.0
N528 N 0.10857 0.49121 0.24892 0.0
C529 C 0.13776 0.52148 0.22504 0.0
C530 C 0.21711 0.53526 0.23229 0.0
C531 C 0.26568 0.54411 0.29144 0.0
H532 H 0.22222 0.5508 0.31133 0.0
H533 H 0.31323 0.52003 0.30215 0.0
H534 H 0.28893 0.58204 0.28367 0.0
O535 O 0.12327 0.39932 0.32 0.0
O536 O 0.01279 0.44226 0.30953 0.0
H537 H 0.11219 0.57493 0.18698 0.0
H538 H 0.07399 0.51075 0.18066 0.0
C539 C 0.08603 0.54147 0.19873 0.0
H540 H 0.02977 0.55447 0.20963 0.0
H541 H 0.90678 0.51823 0.3 0.0
O542 O 0.29368 0.41258 0.28866 0.0
C543 C 0.05783 0.41789 0.32929 0.0
Co544 Co 0.92954 0.17931 0.5322 0.0
Co545 Co 0.76405 0.1439 0.50936 0.0
C546 C 0.83589 0.24152 0.48393 0.0
O547 O 0.89819 0.22942 0.49943 0.0
O548 O 0.7737 0.21291 0.48472 0.0
C549 C 0.08091 0.17631 0.51223 0.0
O550 O 0.04215 0.17498 0.48447 0.0
C551 C 0.63929 0.08075 0.47355 0.0
C552 C 0.59559 1.03397 0.51442 0.0
C553 C 0.59286 1.03744 0.48081 0.0
N554 N 0.67028 0.10019 0.50128 0.0
N555 N 0.64055 0.07301 0.52567 0.0
C556 C 0.65458 0.10255 0.44035 0.0
H557 H 0.69938 0.13372 0.44157 0.0
H558 H 0.67392 0.07215 0.42316 0.0
H559 H 0.59837 0.11848 0.43062 0.0
C560 C 0.9758 0.08018 0.51388 0.0
N561 N 0.91366 0.11052 0.52079 0.0
N562 N 0.85844 0.10505 0.49892 0.0
C563 C 0.88761 0.07474 0.47505 0.0
C564 C 0.96695 0.06095 0.4823 0.0
C565 C 0.01551 0.05213 0.54145 0.0
H566 H 0.97203 1.04546 0.56134 0.0
H567 H 0.06306 0.07622 0.55217 0.0
H568 H 0.03876 1.0142 0.5337 0.0
O569 O 0.87317 0.19695 0.56999 0.0
O570 O 0.76275 0.15398 0.55954 0.0
H571 H 0.86201 1.0212 0.43706 0.0
H572 H 0.8238 0.08536 0.43067 0.0
C573 C 0.83585 0.05468 0.44877 0.0
H574 H 0.7796 1.04172 0.4597 0.0
H575 H 0.65666 0.07807 0.55001 0.0
O576 O 0.04358 0.18366 0.53867 0.0
C577 C 0.8078 0.17833 0.57931 0.0
Co578 Co 0.31759 0.16707 0.53223 0.0
Co579 Co 0.4831 0.20237 0.50935 0.0
C580 C 0.41114 0.10478 0.48394 0.0
O581 O 0.34891 0.11692 0.49948 0.0
O582 O 0.47336 0.13337 0.4847 0.0
C583 C 0.16624 0.17013 0.51224 0.0
O584 O 0.20504 0.17144 0.48449 0.0
C585 C 0.60772 0.26553 0.47352 0.0
C586 C 0.65161 0.31226 0.5144 0.0
C587 C 0.65404 0.30887 0.48079 0.0
N588 N 0.57691 0.24603 0.50125 0.0
N589 N 0.60676 0.27317 0.52565 0.0
C590 C 0.5924 0.24375 0.44032 0.0
H591 H 0.54761 0.21257 0.44153 0.0
H592 H 0.57307 0.27415 0.42313 0.0
H593 H 0.6486 0.22781 0.43058 0.0
C594 C 0.27142 0.26619 0.51392 0.0
N595 N 0.33355 0.23584 0.52083 0.0
N596 N 0.38873 0.24127 0.49894 0.0
C597 C 0.35952 0.27156 0.47506 0.0
C598 C 0.2802 0.28535 0.48233 0.0
C599 C 0.2318 0.29431 0.54149 0.0
H600 H 0.27535 0.30104 0.56134 0.0
H601 H 0.1843 0.27025 0.55226 0.0
H602 H 0.20852 0.33223 0.53371 0.0
O603 O 0.37394 0.14942 0.57002 0.0
O604 O 0.48447 0.19226 0.55953 0.0
H605 H 0.38505 0.32506 0.43703 0.0
H606 H 0.42328 0.2609 0.43067 0.0
C607 C 0.41124 0.29159 0.44876 0.0
H608 H 0.46749 0.30459 0.45967 0.0
H609 H 0.5908 0.26803 0.55 0.0
O610 O 0.20354 0.16277 0.53869 0.0
C611 C 0.43939 0.16797 0.57932 0.0
Co612 Co 0.92964 0.16695 0.66132 0.0
Co613 Co 0.76415 0.20237 0.68418 0.0
C614 C 0.83597 0.10475 0.7096 0.0
O615 O 0.89826 0.11685 0.69408 0.0
O616 O 0.77379 0.13337 0.70882 0.0
C617 C 0.081 0.16988 0.68132 0.0
O618 O 0.04221 0.1712 0.70907 0.0
C619 C 0.6394 0.26552 0.71999 0.0
C620 C 0.5957 0.3123 0.67913 0.0
C621 C 0.59296 0.30883 0.71274 0.0
N622 N 0.67039 0.24609 0.69227 0.0
N623 N 0.64066 0.27327 0.66788 0.0
C624 C 0.65468 0.24371 0.75319 0.0
H625 H 0.69946 0.21252 0.75197 0.0
H626 H 0.67404 0.27409 0.77038 0.0
H627 H 0.59846 0.22779 0.76292 0.0
C628 C 0.97594 0.26606 0.67965 0.0
N629 N 0.91378 0.23573 0.67273 0.0
N630 N 0.85856 0.24121 0.69461 0.0
C631 C 0.88776 0.27149 0.71849 0.0
C632 C 0.9671 0.28527 0.71124 0.0
C633 C 0.01569 0.2941 0.65209 0.0
H634 H 0.97224 0.30078 0.63219 0.0
H635 H 0.06324 0.27001 0.64138 0.0
H636 H 0.03894 0.33203 0.65985 0.0
O637 O 0.87326 0.14932 0.62353 0.0
O638 O 0.76278 0.19226 0.63401 0.0
H639 H 0.86217 0.32497 0.75653 0.0
H640 H 0.82397 0.26079 0.76286 0.0
C641 C 0.83601 0.2915 0.74479 0.0
H642 H 0.77976 0.30449 0.73388 0.0
H643 H 0.65677 0.26822 0.64353 0.0
O644 O 0.04368 0.16257 0.65487 0.0
C645 C 0.80782 0.16788 0.61424 0.0
Co646 Co 0.3177 0.17916 0.66134 0.0
Co647 Co 0.48324 0.14386 0.68416 0.0
C648 C 0.41125 0.24141 0.70964 0.0
O649 O 0.34897 0.22925 0.69413 0.0
O650 O 0.47351 0.21285 0.70883 0.0
C651 C 0.16633 0.17604 0.68132 0.0
O652 O 0.2051 0.17471 0.70908 0.0
C653 C 0.6079 0.08069 0.71997 0.0
C654 C 0.65173 1.03396 0.67908 0.0
C655 C 0.6542 1.03735 0.71269 0.0
N656 N 0.57706 0.1002 0.69224 0.0
N657 N 0.60687 0.07306 0.66784 0.0
C658 C 0.59262 0.10247 0.75317 0.0
H659 H 0.54783 0.13365 0.75197 0.0
H660 H 0.57329 0.07207 0.77036 0.0
H661 H 0.64883 0.1184 0.7629 0.0
C662 C 0.27159 0.08001 0.67959 0.0
N663 N 0.33372 0.11036 0.67268 0.0
N664 N 0.38889 0.10495 0.69458 0.0
C665 C 0.35966 0.0747 0.71847 0.0
C666 C 0.28034 0.0609 0.7112 0.0
C667 C 0.23205 0.05183 0.65204 0.0
H668 H 0.27565 1.04505 0.63221 0.0
H669 H 0.18457 0.07587 0.64123 0.0
H670 H 0.20875 1.01393 0.65984 0.0
O671 O 0.37406 0.19696 0.62358 0.0
O672 O 0.48454 0.154 0.63399 0.0
H673 H 0.38516 1.02128 0.75656 0.0
H674 H 0.42341 0.08545 0.76286 0.0
C675 C 0.41136 0.05471 0.7448 0.0
H676 H 0.46761 1.04169 0.7339 0.0
H677 H 0.59088 0.07819 0.64349 0.0
O678 O 0.20365 0.18344 0.65488 0.0
C679 C 0.43947 0.1784 0.61425 0.0
Co680 Co 0.06759 0.91696 0.4113 0.0
Co681 Co 0.23309 0.95235 0.43417 0.0
C682 C 0.16125 0.85472 0.45957 0.0
O683 O 0.09898 0.86682 0.44405 0.0
O684 O 0.22343 0.88334 0.4588 0.0
C685 C 0.91625 0.91994 0.43131 0.0
O686 O 0.95505 0.92124 0.45906 0.0
C687 C 0.35771 1.01552 0.47 0.0
C688 C 0.40159 0.06226 0.42913 0.0
C689 C 0.40402 0.05887 0.46274 0.0
N690 N 0.32689 0.99603 0.44227 0.0
N691 N 0.35673 1.02318 0.41788 0.0
C692 C 0.34239 0.99373 0.5032 0.0
H693 H 0.2976 0.96256 0.50199 0.0
H694 H 0.32306 1.02413 0.5204 0.0
H695 H 0.39859 0.9778 0.51294 0.0
C696 C 0.02132 1.01606 0.42964 0.0
N697 N 0.08347 0.98573 0.42273 0.0
N698 N 0.13869 0.99121 0.4446 0.0
C699 C 0.1095 1.02151 0.46847 0.0
C700 C 0.03014 1.03527 0.46122 0.0
C701 C 0.9816 1.04411 0.40207 0.0
H702 H 0.02506 0.05079 0.38218 0.0
H703 H 0.93404 1.02002 0.39136 0.0
H704 H 0.95835 0.08205 0.40983 0.0
O705 O 0.12395 0.89939 0.3735 0.0
O706 O 0.23445 0.94226 0.384 0.0
H707 H 0.13505 0.07509 0.50645 0.0
H708 H 0.1733 1.01094 0.51286 0.0
C709 C 0.16124 1.0416 0.49475 0.0
H710 H 0.21748 0.05458 0.48382 0.0
H711 H 0.34076 1.01805 0.39352 0.0
O712 O 0.95354 0.91261 0.40486 0.0
C713 C 0.18938 0.91796 0.3642 0.0
Co714 Co 0.67953 0.92924 0.41135 0.0
Co715 Co 0.51401 0.89389 0.43417 0.0
C716 C 0.58592 0.99148 0.45962 0.0
O717 O 0.64824 0.97935 0.44414 0.0
O718 O 0.52369 0.96291 0.4588 0.0
C719 C 0.83092 0.92613 0.43132 0.0
O720 O 0.79216 0.9248 0.45908 0.0
C721 C 0.38937 0.83072 0.46998 0.0
C722 C 0.34553 0.78398 0.4291 0.0
C723 C 0.34308 0.78737 0.46271 0.0
N724 N 0.4202 0.85022 0.44225 0.0
N725 N 0.39038 0.82308 0.41785 0.0
C726 C 0.40467 0.8525 0.50318 0.0
H727 H 0.44947 0.88367 0.50198 0.0
H728 H 0.42399 0.8221 0.52038 0.0
H729 H 0.34847 0.86844 0.51291 0.0
C730 C 0.7257 0.8301 0.42962 0.0
N731 N 0.66357 0.86045 0.42272 0.0
N732 N 0.60837 0.85501 0.44461 0.0
C733 C 0.63758 0.82471 0.46848 0.0
C734 C 0.71691 0.81093 0.46122 0.0
C735 C 0.76528 0.80196 0.40206 0.0
H736 H 0.72171 0.79523 0.38221 0.0
H737 H 0.81278 0.82601 0.39128 0.0
H738 H 0.78855 0.76405 0.40984 0.0
O739 O 0.62317 0.94696 0.37357 0.0
O740 O 0.51274 0.90398 0.38399 0.0
H741 H 0.61205 0.77119 0.5065 0.0
H742 H 0.57379 0.83535 0.51286 0.0
C743 C 0.58586 0.80466 0.49478 0.0
H744 H 0.52961 0.79166 0.48386 0.0
H745 H 0.40635 0.82821 0.3935 0.0
O746 O 0.79358 0.93353 0.40489 0.0
C747 C 0.55781 0.92835 0.36423 0.0
Co748 Co 0.06771 0.92932 0.28217 0.0
Co749 Co 0.23321 0.89389 0.25936 0.0
C750 C 0.16139 0.9915 0.2339 0.0
O751 O 0.09908 0.97939 0.24939 0.0
O752 O 0.22359 0.9629 0.23471 0.0
C753 C 0.91635 0.92636 0.26219 0.0
O754 O 0.9551 0.92502 0.23443 0.0
C755 C 0.35799 0.83073 0.22357 0.0
C756 C 0.40165 0.78395 0.26443 0.0
C757 C 0.40442 0.78742 0.23083 0.0
N758 N 0.32698 0.85017 0.25128 0.0
N759 N 0.35669 0.82298 0.27568 0.0
C760 C 0.34273 0.85253 0.19036 0.0
H761 H 0.29794 0.88372 0.19157 0.0
H762 H 0.32339 0.82214 0.17317 0.0
H763 H 0.39895 0.86845 0.18064 0.0
C764 C 0.02144 0.8302 0.26387 0.0
N765 N 0.08359 0.86052 0.27079 0.0
N766 N 0.13882 0.85505 0.24892 0.0
C767 C 0.10963 0.82476 0.22504 0.0
C768 C 0.03028 0.81099 0.23229 0.0
C769 C 0.98171 0.80214 0.29143 0.0
H770 H 0.02518 0.79545 0.31132 0.0
H771 H 0.93416 0.82623 0.30215 0.0
H772 H 0.95846 0.76421 0.28367 0.0
O773 O 0.12409 0.94702 0.31995 0.0
O774 O 0.23451 0.90399 0.30953 0.0
H775 H 0.13522 0.77127 0.18701 0.0
H776 H 0.17343 0.83545 0.18066 0.0
C777 C 0.16138 0.80474 0.19874 0.0
H778 H 0.21763 0.79176 0.20965 0.0
H779 H 0.34056 0.82804 0.30002 0.0
O780 O 0.95368 0.93369 0.28863 0.0
C781 C 0.18947 0.92841 0.32927 0.0
Co782 Co 0.67967 0.91712 0.28222 0.0
Co783 Co 0.51414 0.9524 0.25936 0.0
C784 C 0.5861 0.85484 0.23393 0.0
O785 O 0.64834 0.86698 0.24946 0.0
O786 O 0.52387 0.88341 0.2347 0.0
C787 C 0.83101 0.92019 0.26221 0.0
O788 O 0.79221 0.92151 0.23446 0.0
C789 C 0.3895 1.01557 0.22354 0.0
C790 C 0.34565 0.0623 0.26443 0.0
C791 C 0.34319 0.05891 0.23082 0.0
N792 N 0.42033 0.99607 0.25127 0.0
N793 N 0.39051 1.02321 0.27567 0.0
C794 C 0.40478 0.99377 0.19034 0.0
H795 H 0.44956 0.96259 0.19155 0.0
H796 H 0.42412 1.02417 0.17315 0.0
H797 H 0.34857 0.97785 0.18061 0.0
C798 C 0.72581 1.01625 0.26393 0.0
N799 N 0.66368 0.9859 0.27085 0.0
N800 N 0.6085 0.99131 0.24894 0.0
C801 C 0.63773 1.02156 0.22505 0.0
C802 C 0.71705 1.03536 0.23232 0.0
C803 C 0.76536 1.04443 0.29148 0.0
H804 H 0.72177 0.0512 0.31131 0.0
H805 H 0.81284 1.02039 0.30229 0.0
H806 H 0.78866 0.08233 0.28368 0.0
O807 O 0.62336 0.89943 0.32001 0.0
O808 O 0.51278 0.94226 0.30953 0.0
H809 H 0.61224 0.07496 0.18695 0.0
H810 H 0.57399 1.01078 0.18067 0.0
C811 C 0.58604 1.04153 0.19872 0.0
H812 H 0.52979 0.05456 0.20961 0.0
H813 H 0.40649 1.01808 0.30003 0.0
O814 O 0.79372 0.91283 0.28866 0.0
C815 C 0.55788 0.91793 0.3293 0.0
Co816 Co 0.92953 0.67931 0.03219 0.0
Co817 Co 0.76404 0.6439 0.00935 0.0
C818 C 0.83588 0.74152 -0.01608 0.0
O819 O 0.89818 0.72942 -0.00058 0.0
O820 O 0.77368 0.71291 -0.01528 0.0
C821 C 0.0809 0.6763 0.01222 0.0
O822 O 0.04215 0.67497 -0.01554 0.0
C823 C 0.6393 0.58075 -0.02646 0.0
C824 C 0.59559 0.53397 0.0144 0.0
C825 C 0.59286 0.53744 -0.0192 0.0
N826 N 0.67027 0.60019 0.00127 0.0
N827 N 0.64054 0.57301 0.02565 0.0
C828 C 0.65459 0.60255 0.94034 0.0
H829 H 0.69939 0.63373 0.94156 0.0
H830 H 0.67393 0.57216 0.92315 0.0
H831 H 0.59838 0.61848 0.93061 0.0
C832 C 0.97578 0.58018 0.01388 0.0
N833 N 0.91365 0.61052 0.02079 0.0
N834 N 0.85843 0.60505 -0.00109 0.0
C835 C 0.88761 0.57474 -0.02495 0.0
C836 C 0.96694 0.56095 -0.0177 0.0
C837 C 0.01548 0.55213 0.04145 0.0
H838 H 0.972 0.54545 0.06134 0.0
H839 H 0.06303 0.57621 0.05217 0.0
H840 H 0.03873 0.51419 0.0337 0.0
O841 O 0.87316 0.69696 0.06998 0.0
O842 O 0.76274 0.65398 0.05953 0.0
H843 H 0.86202 0.5212 0.93705 0.0
H844 H 0.82381 0.58537 0.93066 0.0
C845 C 0.83586 0.55469 0.94876 0.0
H846 H 0.7796 0.54172 0.95968 0.0
H847 H 0.65664 0.57807 0.05 0.0
O848 O 0.04356 0.68366 0.03866 0.0
C849 C 0.80779 0.67833 0.0793 0.0
Co850 Co 0.31757 0.66707 0.03224 0.0
Co851 Co 0.48308 0.70238 0.00936 0.0
C852 C 0.41114 0.60478 -0.01605 0.0
O853 O 0.34892 0.61692 -0.0005 0.0
O854 O 0.47335 0.63338 -0.0153 0.0
C855 C 0.16623 0.67013 0.01224 0.0
O856 O 0.20504 0.67143 -0.01551 0.0
C857 C 0.6077 0.76554 -0.02648 0.0
C858 C 0.65159 0.81227 0.0144 0.0
C859 C 0.65402 0.80888 -0.01921 0.0
N860 N 0.57689 0.74604 0.00126 0.0
N861 N 0.60674 0.77318 0.02565 0.0
C862 C 0.59238 0.74375 0.94032 0.0
H863 H 0.54759 0.71257 0.94153 0.0
H864 H 0.57304 0.77415 0.92313 0.0
H865 H 0.64858 0.72781 0.93058 0.0
C866 C 0.27139 0.7662 0.01392 0.0
N867 N 0.33352 0.73585 0.02083 0.0
N868 N 0.38871 0.74128 -0.00106 0.0
C869 C 0.3595 0.77156 -0.02494 0.0
C870 C 0.28017 0.78535 -0.01767 0.0
C871 C 0.23177 0.79432 0.04148 0.0
H872 H 0.27532 0.80105 0.06134 0.0
H873 H 0.18427 0.77025 0.05225 0.0
H874 H 0.20849 0.83223 0.03371 0.0
O875 O 0.37389 0.64946 0.07004 0.0
O876 O 0.48445 0.69226 0.05953 0.0
H877 H 0.38502 0.82506 0.93703 0.0
H878 H 0.42325 0.76089 0.93067 0.0
C879 C 0.41121 0.79159 0.94875 0.0
H880 H 0.46746 0.80459 0.95966 0.0
H881 H 0.59078 0.76805 0.05 0.0
O882 O 0.20352 0.66277 0.03869 0.0
C883 C 0.43936 0.66799 0.07933 0.0
Co884 Co 0.92965 0.66698 0.16132 0.0
Co885 Co 0.76413 0.70238 0.18417 0.0
C886 C 0.836 0.60476 0.2096 0.0
O887 O 0.89828 0.61687 0.19408 0.0
O888 O 0.7738 0.63338 0.20881 0.0
C889 C 0.081 0.67001 0.18132 0.0
O890 O 0.0422 0.67132 0.20906 0.0
C891 C 0.63951 0.76557 0.22 0.0
C892 C 0.59565 0.81231 0.17911 0.0
C893 C 0.59321 0.80891 0.21272 0.0
N894 N 0.67034 0.74607 0.19226 0.0
N895 N 0.6405 0.77321 0.16787 0.0
C896 C 0.65483 0.74378 0.2532 0.0
H897 H 0.69963 0.71261 0.25198 0.0
H898 H 0.67417 0.77418 0.27039 0.0
H899 H 0.59863 0.72784 0.26293 0.0
C900 C 0.97589 0.7661 0.17962 0.0
N901 N 0.91375 0.73577 0.17271 0.0
N902 N 0.85853 0.74125 0.19459 0.0
C903 C 0.88773 0.77156 0.21845 0.0
C904 C 0.96708 0.78532 0.2112 0.0
C905 C 0.01559 0.79416 0.15205 0.0
H906 H 0.9721 0.80085 0.13217 0.0
H907 H 0.06312 0.77007 0.14132 0.0
H908 H 0.03886 0.83209 0.15981 0.0
O909 O 0.87327 0.64933 0.12353 0.0
O910 O 0.76277 0.69226 0.134 0.0
H911 H 0.86218 0.82514 0.25643 0.0
H912 H 0.82392 0.761 0.26284 0.0
C913 C 0.83599 0.79165 0.24473 0.0
H914 H 0.77975 0.80464 0.2338 0.0
H915 H 0.65647 0.76808 0.14351 0.0
O916 O 0.0437 0.66265 0.15487 0.0
C917 C 0.80782 0.66789 0.11423 0.0
Co918 Co 0.31771 0.67927 0.16136 0.0
Co919 Co 0.48324 0.64387 0.18416 0.0
C920 C 0.41134 0.74147 0.20964 0.0
O921 O 0.34902 0.72934 0.19416 0.0
O922 O 0.47357 0.71289 0.20881 0.0
C923 C 0.16633 0.67619 0.18133 0.0
O924 O 0.20508 0.67485 0.20909 0.0
C925 C 0.60788 0.58068 0.21997 0.0
C926 C 0.65171 0.53395 0.17908 0.0
C927 C 0.65417 0.53733 0.21269 0.0
N928 N 0.57705 0.60019 0.19224 0.0
N929 N 0.60686 0.57305 0.16785 0.0
C930 C 0.59258 0.60246 0.25318 0.0
H931 H 0.54778 0.63363 0.25197 0.0
H932 H 0.57326 0.57205 0.27037 0.0
H933 H 0.64878 0.6184 0.26291 0.0
C934 C 0.27151 0.58013 0.17962 0.0
N935 N 0.33365 0.61047 0.17271 0.0
N936 N 0.38886 0.60499 0.19459 0.0
C937 C 0.35967 0.57468 0.21846 0.0
C938 C 0.28032 0.56093 0.21121 0.0
C939 C 0.23186 0.55204 0.15205 0.0
H940 H 0.27538 0.54534 0.13218 0.0
H941 H 0.18434 0.57612 0.14131 0.0
H942 H 0.20859 0.51412 0.15982 0.0
O943 O 0.37411 0.69704 0.1236 0.0
O944 O 0.48453 0.65399 0.13399 0.0
H945 H 0.38522 0.5211 0.25644 0.0
H946 H 0.42347 0.58525 0.26285 0.0
C947 C 0.41141 0.55459 0.24474 0.0
H948 H 0.46764 0.54161 0.23381 0.0
H949 H 0.59088 0.57818 0.14349 0.0
O950 O 0.20366 0.68359 0.15489 0.0
C951 C 0.43949 0.67842 0.11426 0.0
Co952 Co 0.06761 0.41696 0.91131 0.0
Co953 Co 0.2331 0.45235 0.93418 0.0
C954 C 0.16126 0.35471 0.95958 0.0
O955 O 0.09899 0.36682 0.94406 0.0
O956 O 0.22345 0.38334 0.95881 0.0
C957 C 0.91626 0.41994 0.93131 0.0
O958 O 0.95506 0.42125 0.95906 0.0
C959 C 0.35771 0.51552 0.97002 0.0
C960 C 0.40159 0.56226 0.92914 0.0
C961 C 0.40402 0.55887 0.96275 0.0
N962 N 0.32689 0.49603 0.94228 0.0
N963 N 0.35674 0.52318 0.91789 0.0
C964 C 0.34239 0.49373 0.00321 0.0
H965 H 0.29759 0.46255 0.002 0.0
H966 H 0.32305 0.52412 0.02041 0.0
H967 H 0.39858 0.47779 0.01295 0.0
C968 C 0.02133 0.51607 0.92964 0.0
N969 N 0.08348 0.48573 0.92273 0.0
N970 N 0.1387 0.49121 0.94461 0.0
C971 C 0.1095 0.52151 0.96848 0.0
C972 C 0.03015 0.53527 0.96122 0.0
C973 C 0.98162 0.54411 0.90207 0.0
H974 H 0.0251 0.5508 0.88218 0.0
H975 H 0.93408 0.52003 0.89135 0.0
H976 H 0.95837 0.58205 0.90983 0.0
O977 O 0.12396 0.39938 0.87351 0.0
O978 O 0.23445 0.44226 0.884 0.0
H979 H 0.13504 0.57508 0.00646 0.0
H980 H 0.17329 0.51093 0.01286 0.0
C981 C 0.16123 0.54159 -0.00524 0.0
H982 H 0.21747 0.55458 -0.01616 0.0
H983 H 0.34078 0.51805 0.89353 0.0
O984 O 0.95356 0.41261 0.90486 0.0
C985 C 0.18939 0.41796 0.86421 0.0
Co986 Co 0.67955 0.42923 0.91135 0.0
Co987 Co 0.51403 0.39389 0.93416 0.0
C988 C 0.58592 0.49149 0.95961 0.0
O989 O 0.64823 0.47935 0.94412 0.0
O990 O 0.5237 0.4629 0.9588 0.0
C991 C 0.83093 0.42614 0.93133 0.0
O992 O 0.79217 0.42481 0.95908 0.0
C993 C 0.3894 0.33071 0.96998 0.0
C994 C 0.34555 0.28397 0.9291 0.0
C995 C 0.3431 0.28736 0.96271 0.0
N996 N 0.42022 0.35021 0.94225 0.0
N997 N 0.3904 0.32307 0.91786 0.0
C998 C 0.40469 0.3525 0.00318 0.0
H999 H 0.44949 0.38368 0.00197 0.0
H1000 H 0.42401 0.3221 0.02038 0.0
H1001 H 0.34849 0.36844 0.01291 0.0
C1002 C 0.72572 0.33009 0.92962 0.0
N1003 N 0.66359 0.36044 0.92272 0.0
N1004 N 0.6084 0.355 0.94461 0.0
C1005 C 0.6376 0.32471 0.96848 0.0
C1006 C 0.71693 0.31093 0.96122 0.0
C1007 C 0.76531 0.30196 0.90206 0.0
H1008 H 0.72174 0.29523 0.88221 0.0
H1009 H 0.81281 0.32601 0.89128 0.0
H1010 H 0.78858 0.26404 0.90984 0.0
O1011 O 0.62322 0.44692 0.87355 0.0
O1012 O 0.51275 0.40398 0.88399 0.0
H1013 H 0.61208 0.27119 0.0065 0.0
H1014 H 0.57382 0.33535 0.01287 0.0
C1015 C 0.58588 0.30466 -0.00522 0.0
H1016 H 0.52964 0.29166 -0.01614 0.0
H1017 H 0.40638 0.32819 0.8935 0.0
O1018 O 0.7936 0.43353 0.90489 0.0
C1019 C 0.55783 0.42832 0.86422 0.0
Co1020 Co 0.06771 0.42928 0.78218 0.0
Co1021 Co 0.23324 0.39388 0.75937 0.0
C1022 C 0.16136 0.49148 0.7339 0.0
O1023 O 0.09905 0.47936 0.74939 0.0
O1024 O 0.22358 0.46289 0.73472 0.0
C1025 C 0.91635 0.42623 0.76219 0.0
O1026 O 0.95512 0.42489 0.73444 0.0
C1027 C 0.35788 0.33068 0.72356 0.0
C1028 C 0.4017 0.28395 0.76445 0.0
C1029 C 0.40417 0.28733 0.73084 0.0
N1030 N 0.32704 0.35019 0.75129 0.0
N1031 N 0.35685 0.32305 0.77569 0.0
C1032 C 0.34258 0.35246 0.69035 0.0
H1033 H 0.29777 0.38363 0.69156 0.0
H1034 H 0.32326 0.32205 0.67317 0.0
H1035 H 0.39878 0.3684 0.68063 0.0
C1036 C 0.02149 0.33015 0.7639 0.0
N1037 N 0.08363 0.36048 0.77081 0.0
N1038 N 0.13885 0.35501 0.74894 0.0
C1039 C 0.10966 0.32469 0.72507 0.0
C1040 C 0.03031 0.31094 0.73232 0.0
C1041 C 0.98181 0.30208 0.79147 0.0
H1042 H 0.02532 0.29538 0.81135 0.0
H1043 H 0.93429 0.32616 0.80221 0.0
H1044 H 0.95855 0.26415 0.78371 0.0
O1045 O 0.12408 0.447 0.81996 0.0
O1046 O 0.23452 0.40399 0.80954 0.0
H1047 H 0.13521 0.2711 0.6871 0.0
H1048 H 0.17347 0.33525 0.68068 0.0
C1049 C 0.1614 0.30459 0.6988 0.0
H1050 H 0.21764 0.29162 0.70973 0.0
H1051 H 0.34086 0.32818 0.80004 0.0
O1052 O 0.95366 0.43361 0.78863 0.0
C1053 C 0.18947 0.4284 0.82928 0.0
Co1054 Co 0.67966 0.41701 0.7822 0.0
Co1055 Co 0.51414 0.45239 0.75936 0.0
C1056 C 0.58601 0.35478 0.73393 0.0
O1057 O 0.6483 0.36689 0.74943 0.0
O1058 O 0.5238 0.38338 0.73472 0.0
C1059 C 0.83101 0.42004 0.7622 0.0
O1060 O 0.79222 0.42136 0.73445 0.0
C1061 C 0.38951 0.51557 0.72354 0.0
C1062 C 0.34567 0.56231 0.76442 0.0
C1063 C 0.34322 0.55892 0.73081 0.0
N1064 N 0.42034 0.49608 0.75127 0.0
N1065 N 0.39052 0.52322 0.77567 0.0
C1066 C 0.40482 0.49379 0.69034 0.0
H1067 H 0.44962 0.46261 0.69155 0.0
H1068 H 0.42414 0.52419 0.67314 0.0
H1069 H 0.34862 0.47784 0.68061 0.0
C1070 C 0.72589 0.51613 0.7639 0.0
N1071 N 0.66375 0.48579 0.77081 0.0
N1072 N 0.60853 0.49126 0.74893 0.0
C1073 C 0.63773 0.52157 0.72506 0.0
C1074 C 0.71707 0.53533 0.73232 0.0
C1075 C 0.76556 0.54421 0.79147 0.0
H1076 H 0.72205 0.55091 0.81134 0.0
H1077 H 0.81308 0.52013 0.80221 0.0
H1078 H 0.78883 0.58213 0.7837 0.0
O1079 O 0.62331 0.39936 0.81999 0.0
O1080 O 0.51279 0.44226 0.80953 0.0
H1081 H 0.61218 0.57514 0.68708 0.0
H1082 H 0.57393 0.51099 0.68068 0.0
C1083 C 0.58599 0.54165 0.69878 0.0
H1084 H 0.52975 0.55464 0.70971 0.0
H1085 H 0.40649 0.51809 0.80002 0.0
O1086 O 0.79371 0.41268 0.78865 0.0
C1087 C 0.55786 0.4179 0.82929 0.0
loop_
_geom_bond_atom_site_label_1
_geom_bond_atom_site_label_2
_geom_bond_distance
_geom_bond_site_symmetry_2
_ccdc_geom_bond_type
Co0 O3 1.970 . S
Co0 N17 1.989 . S
Co0 O25 1.967 . S
Co0 O32 1.920 . S
Co1 O4 1.966 . S
Co1 N10 2.022 . S
Co1 N18 1.993 . S
Co1 O26 1.941 . S
C2 O3 1.258 . S
C2 O4 1.263 . S
O3 Co0 1.970 . S
O3 C2 1.258 . S
O4 Co1 1.966 . S
O4 C2 1.263 . S
C5 O6 1.235 . S
C5 O32 1.289 . S
O6 C5 1.235 . S
C7 C9 1.400 . S
C7 N10 1.351 1_556 S
C7 C12 1.501 . S
C8 C9 1.387 1_554 S
C8 N11 1.341 . S
C9 C7 1.400 . S
C9 C8 1.387 1_556 S
N10 Co1 2.022 . S
N10 C7 1.351 1_554 S
N10 N11 1.365 . S
N11 C8 1.341 . S
N11 N10 1.365 . S
N11 H31 0.862 . S
C12 C7 1.501 . S
C12 H13 0.961 . S
C12 H14 0.961 . S
C12 H15 0.960 . S
H13 C12 0.961 . S
H14 C12 0.961 . S
H15 C12 0.960 . S
C16 N17 1.342 . S
C16 C20 1.401 1_545 S
C16 C21 1.499 . S
N17 Co0 1.989 . S
N17 C16 1.342 . S
N17 N18 1.388 . S
N18 Co1 1.993 . S
N18 N17 1.388 . S
N18 C19 1.346 . S
C19 N18 1.346 . S
C19 C20 1.396 1_545 S
C19 C29 1.510 1_544 S
C20 C16 1.401 1_565 S
C20 C19 1.396 1_565 S
C21 C16 1.499 . S
C21 H22 0.959 . S
C21 H23 0.960 . S
C21 H24 0.961 . S
H22 C21 0.959 . S
H23 C21 0.960 . S
H24 C21 0.961 . S
O25 Co0 1.967 . S
O25 C33 1.258 . S
O26 Co1 1.941 . S
O26 C33 1.266 . S
H27 C29 0.959 1_554 S
H28 C29 0.961 . S
C29 C19 1.510 1_566 S
C29 H27 0.959 1_556 S
C29 H28 0.961 . S
C29 H30 0.960 1_566 S
H30 C29 0.960 1_544 S
H31 N11 0.862 . S
O32 Co0 1.920 . S
O32 C5 1.289 . S
C33 O25 1.258 . S
C33 O26 1.266 . S
Co34 O37 1.970 . S
Co34 N51 1.989 . S
Co34 O59 1.967 . S
Co34 O66 1.920 . S
Co35 O38 1.966 . S
Co35 N44 2.022 1_655 S
Co35 N52 1.993 . S
Co35 O60 1.941 . S
C36 O37 1.258 . S
C36 O38 1.263 . S
O37 Co34 1.970 . S
O37 C36 1.258 . S
O38 Co35 1.966 . S
O38 C36 1.263 . S
C39 O40 1.235 . S
C39 O66 1.289 . S
O40 C39 1.235 . S
C41 C43 1.400 . S
C41 N44 1.351 1_556 S
C41 C46 1.501 . S
C42 C43 1.387 1_554 S
C42 N45 1.341 . S
C43 C41 1.400 . S
C43 C42 1.387 1_556 S
N44 Co35 2.022 1_455 S
N44 C41 1.351 1_554 S
N44 N45 1.365 . S
N45 C42 1.341 . S
N45 N44 1.365 . S
N45 H65 0.862 . S
C46 C41 1.501 . S
C46 H47 0.961 . S
C46 H48 0.961 . S
C46 H49 0.960 . S
H47 C46 0.961 . S
H48 C46 0.961 . S
H49 C46 0.960 . S
C50 N51 1.342 . S
C50 C54 1.401 . S
C50 C55 1.499 . S
N51 Co34 1.989 . S
N51 C50 1.342 . S
N51 N52 1.388 . S
N52 Co35 1.993 . S
N52 N51 1.388 . S
N52 C53 1.346 . S
C53 N52 1.346 . S
C53 C54 1.396 . S
C53 C63 1.510 1_554 S
C54 C50 1.401 . S
C54 C53 1.396 . S
C55 C50 1.499 . S
C55 H56 0.959 . S
C55 H57 0.960 . S
C55 H58 0.961 . S
H56 C55 0.959 . S
H57 C55 0.960 . S
H58 C55 0.961 . S
O59 Co34 1.967 . S
O59 C67 1.258 . S
O60 Co35 1.941 . S
O60 C67 1.266 . S
H61 C63 0.959 1_554 S
H62 C63 0.961 . S
C63 C53 1.510 1_556 S
C63 H61 0.959 1_556 S
C63 H62 0.961 . S
C63 H64 0.960 1_656 S
H64 C63 0.960 1_454 S
H65 N45 0.862 . S
O66 Co34 1.920 . S
O66 C39 1.289 . S
C67 O59 1.258 . S
C67 O60 1.266 . S
Co68 O71 1.970 . S
Co68 N85 1.989 . S
Co68 O93 1.967 . S
Co68 O100 1.920 . S
Co69 O72 1.966 . S
Co69 N78 2.022 . S
Co69 N86 1.993 . S
Co69 O94 1.941 . S
C70 O71 1.258 . S
C70 O72 1.263 . S
O71 Co68 1.970 . S
O71 C70 1.258 . S
O72 Co69 1.966 . S
O72 C70 1.263 . S
C73 O74 1.235 . S
C73 O100 1.289 . S
O74 C73 1.235 . S
C75 C77 1.400 . S
C75 N78 1.351 . S
C75 C80 1.501 . S
C76 C77 1.387 . S
C76 N79 1.341 . S
C77 C75 1.400 . S
C77 C76 1.387 . S
N78 Co69 2.022 . S
N78 C75 1.351 . S
N78 N79 1.365 . S
N79 C76 1.341 . S
N79 N78 1.365 . S
N79 H99 0.862 . S
C80 C75 1.501 . S
C80 H81 0.961 . S
C80 H82 0.961 . S
C80 H83 0.960 . S
H81 C80 0.961 . S
H82 C80 0.961 . S
H83 C80 0.960 . S
C84 N85 1.342 . S
C84 C88 1.401 . S
C84 C89 1.499 . S
N85 Co68 1.989 . S
N85 C84 1.342 . S
N85 N86 1.388 . S
N86 Co69 1.993 . S
N86 N85 1.388 . S
N86 C87 1.346 . S
C87 N86 1.346 . S
C87 C88 1.396 . S
C87 C97 1.510 . S
C88 C84 1.401 . S
C88 C87 1.396 . S
C89 C84 1.499 . S
C89 H90 0.959 . S
C89 H91 0.960 . S
C89 H92 0.961 . S
H90 C89 0.959 . S
H91 C89 0.960 . S
H92 C89 0.961 . S
O93 Co68 1.967 . S
O93 C101 1.258 . S
O94 Co69 1.941 . S
O94 C101 1.266 . S
H95 C97 0.959 . S
H96 C97 0.961 . S
C97 C87 1.510 . S
C97 H95 0.959 . S
C97 H96 0.961 . S
C97 H98 0.960 . S
H98 C97 0.960 . S
H99 N79 0.862 . S
O100 Co68 1.920 . S
O100 C73 1.289 . S
C101 O93 1.258 . S
C101 O94 1.266 . S
Co102 O105 1.970 . S
Co102 N119 1.989 . S
Co102 O127 1.967 . S
Co102 O134 1.920 . S
Co103 O106 1.966 . S
Co103 N112 2.022 1_655 S
Co103 N120 1.993 . S
Co103 O128 1.941 . S
C104 O105 1.258 . S
C104 O106 1.263 . S
O105 Co102 1.970 . S
O105 C104 1.258 . S
O106 Co103 1.966 . S
O106 C104 1.263 . S
C107 O108 1.235 . S
C107 O134 1.289 . S
O108 C107 1.235 . S
C109 C111 1.400 . S
C109 N112 1.351 . S
C109 C114 1.501 . S
C110 C111 1.387 . S
C110 N113 1.341 . S
C111 C109 1.400 . S
C111 C110 1.387 . S
N112 Co103 2.022 1_455 S
N112 C109 1.351 . S
N112 N113 1.365 . S
N113 C110 1.341 . S
N113 N112 1.365 . S
N113 H133 0.862 . S
C114 C109 1.501 . S
C114 H115 0.961 . S
C114 H116 0.961 . S
C114 H117 0.960 . S
H115 C114 0.961 . S
H116 C114 0.961 . S
H117 C114 0.960 . S
C118 N119 1.342 . S
C118 C122 1.401 1_545 S
C118 C123 1.499 . S
N119 Co102 1.989 . S
N119 C118 1.342 . S
N119 N120 1.388 . S
N120 Co103 1.993 . S
N120 N119 1.388 . S
N120 C121 1.346 . S
C121 N120 1.346 . S
C121 C122 1.396 1_545 S
C121 C131 1.510 1_545 S
C122 C118 1.401 1_565 S
C122 C121 1.396 1_565 S
C123 C118 1.499 . S
C123 H124 0.959 . S
C123 H125 0.960 . S
C123 H126 0.961 . S
H124 C123 0.959 . S
H125 C123 0.960 . S
H126 C123 0.961 . S
O127 Co102 1.967 . S
O127 C135 1.258 . S
O128 Co103 1.941 . S
O128 C135 1.266 . S
H129 C131 0.959 . S
H130 C131 0.961 . S
C131 C121 1.510 1_565 S
C131 H129 0.959 . S
C131 H130 0.961 . S
C131 H132 0.960 1_665 S
H132 C131 0.960 1_445 S
H133 N113 0.862 . S
O134 Co102 1.920 . S
O134 C107 1.289 . S
C135 O127 1.258 . S
C135 O128 1.266 . S
Co136 O139 1.970 . S
Co136 N153 1.989 . S
Co136 O161 1.967 . S
Co136 O168 1.920 . S
Co137 O140 1.966 . S
Co137 N146 2.022 . S
Co137 N154 1.993 . S
Co137 O162 1.941 . S
C138 O139 1.258 . S
C138 O140 1.263 . S
O139 Co136 1.970 . S
O139 C138 1.258 . S
O140 Co137 1.966 . S
O140 C138 1.263 . S
C141 O142 1.235 . S
C141 O168 1.289 . S
O142 C141 1.235 . S
C143 C145 1.400 . S
C143 N146 1.351 1_554 S
C143 C148 1.501 . S
C144 C145 1.387 1_556 S
C144 N147 1.341 . S
C145 C143 1.400 . S
C145 C144 1.387 1_554 S
N146 Co137 2.022 . S
N146 C143 1.351 1_556 S
N146 N147 1.365 . S
N147 C144 1.341 . S
N147 N146 1.365 . S
N147 H167 0.862 . S
C148 C143 1.501 . S
C148 H149 0.961 . S
C148 H150 0.961 . S
C148 H151 0.960 . S
H149 C148 0.961 . S
H150 C148 0.961 . S
H151 C148 0.960 . S
C152 N153 1.342 . S
C152 C156 1.401 1_565 S
C152 C157 1.499 . S
N153 Co136 1.989 . S
N153 C152 1.342 . S
N153 N154 1.388 . S
N154 Co137 1.993 . S
N154 N153 1.388 . S
N154 C155 1.346 . S
C155 N154 1.346 . S
C155 C156 1.396 1_565 S
C155 C165 1.510 1_566 S
C156 C152 1.401 1_545 S
C156 C155 1.396 1_545 S
C157 C152 1.499 . S
C157 H158 0.959 . S
C157 H159 0.960 . S
C157 H160 0.961 . S
H158 C157 0.959 . S
H159 C157 0.960 . S
H160 C157 0.961 . S
O161 Co136 1.967 . S
O161 C169 1.258 . S
O162 Co137 1.941 . S
O162 C169 1.266 . S
H163 C165 0.959 1_556 S
H164 C165 0.961 . S
C165 C155 1.510 1_544 S
C165 H163 0.959 1_554 S
C165 H164 0.961 . S
C165 H166 0.960 1_544 S
H166 C165 0.960 1_566 S
H167 N147 0.862 . S
O168 Co136 1.920 . S
O168 C141 1.289 . S
C169 O161 1.258 . S
C169 O162 1.266 . S
Co170 O173 1.970 . S
Co170 N187 1.989 . S
Co170 O195 1.967 . S
Co170 O202 1.920 . S
Co171 O174 1.966 . S
Co171 N180 2.022 1_455 S
Co171 N188 1.993 . S
Co171 O196 1.941 . S
C172 O173 1.258 . S
C172 O174 1.263 . S
O173 Co170 1.970 . S
O173 C172 1.258 . S
O174 Co171 1.966 . S
O174 C172 1.263 . S
C175 O176 1.235 . S
C175 O202 1.289 . S
O176 C175 1.235 . S
C177 C179 1.400 . S
C177 N180 1.351 1_554 S
C177 C182 1.501 . S
C178 C179 1.387 1_556 S
C178 N181 1.341 . S
C179 C177 1.400 . S
C179 C178 1.387 1_554 S
N180 Co171 2.022 1_655 S
N180 C177 1.351 1_556 S
N180 N181 1.365 . S
N181 C178 1.341 . S
N181 N180 1.365 . S
N181 H201 0.862 . S
C182 C177 1.501 . S
C182 H183 0.961 . S
C182 H184 0.961 . S
C182 H185 0.960 . S
H183 C182 0.961 . S
H184 C182 0.961 . S
H185 C182 0.960 . S
C186 N187 1.342 . S
C186 C190 1.401 . S
C186 C191 1.499 . S
N187 Co170 1.989 . S
N187 C186 1.342 . S
N187 N188 1.388 . S
N188 Co171 1.993 . S
N188 N187 1.388 . S
N188 C189 1.346 . S
C189 N188 1.346 . S
C189 C190 1.396 . S
C189 C199 1.510 1_556 S
C190 C186 1.401 . S
C190 C189 1.396 . S
C191 C186 1.499 . S
C191 H192 0.959 . S
C191 H193 0.960 . S
C191 H194 0.961 . S
H192 C191 0.959 . S
H193 C191 0.960 . S
H194 C191 0.961 . S
O195 Co170 1.967 . S
O195 C203 1.258 . S
O196 Co171 1.941 . S
O196 C203 1.266 . S
H197 C199 0.959 1_556 S
H198 C199 0.961 . S
C199 C189 1.510 1_554 S
C199 H197 0.959 1_554 S
C199 H198 0.961 . S
C199 H200 0.960 1_454 S
H200 C199 0.960 1_656 S
H201 N181 0.862 . S
O202 Co170 1.920 . S
O202 C175 1.289 . S
C203 O195 1.258 . S
C203 O196 1.266 . S
Co204 O207 1.970 . S
Co204 N221 1.989 . S
Co204 O229 1.967 . S
Co204 O236 1.920 . S
Co205 O208 1.966 . S
Co205 N214 2.022 . S
Co205 N222 1.993 . S
Co205 O230 1.941 . S
C206 O207 1.258 . S
C206 O208 1.263 . S
O207 Co204 1.970 . S
O207 C206 1.258 . S
O208 Co205 1.966 . S
O208 C206 1.263 . S
C209 O210 1.235 . S
C209 O236 1.289 . S
O210 C209 1.235 . S
C211 C213 1.400 . S
C211 N214 1.351 . S
C211 C216 1.501 . S
C212 C213 1.387 . S
C212 N215 1.341 . S
C213 C211 1.400 . S
C213 C212 1.387 . S
N214 Co205 2.022 . S
N214 C211 1.351 . S
N214 N215 1.365 . S
N215 C212 1.341 . S
N215 N214 1.365 . S
N215 H235 0.862 . S
C216 C211 1.501 . S
C216 H217 0.961 . S
C216 H218 0.961 . S
C216 H219 0.960 . S
H217 C216 0.961 . S
H218 C216 0.961 . S
H219 C216 0.960 . S
C220 N221 1.342 . S
C220 C224 1.401 . S
C220 C225 1.499 . S
N221 Co204 1.989 . S
N221 C220 1.342 . S
N221 N222 1.388 . S
N222 Co205 1.993 . S
N222 N221 1.388 . S
N222 C223 1.346 . S
C223 N222 1.346 . S
C223 C224 1.396 . S
C223 C233 1.510 . S
C224 C220 1.401 . S
C224 C223 1.396 . S
C225 C220 1.499 . S
C225 H226 0.959 . S
C225 H227 0.960 . S
C225 H228 0.961 . S
H226 C225 0.959 . S
H227 C225 0.960 . S
H228 C225 0.961 . S
O229 Co204 1.967 . S
O229 C237 1.258 . S
O230 Co205 1.941 . S
O230 C237 1.266 . S
H231 C233 0.959 . S
H232 C233 0.961 . S
C233 C223 1.510 . S
C233 H231 0.959 . S
C233 H232 0.961 . S
C233 H234 0.960 . S
H234 C233 0.960 . S
H235 N215 0.862 . S
O236 Co204 1.920 . S
O236 C209 1.289 . S
C237 O229 1.258 . S
C237 O230 1.266 . S
Co238 O241 1.970 . S
Co238 N255 1.989 . S
Co238 O263 1.967 . S
Co238 O270 1.920 . S
Co239 O242 1.966 . S
Co239 N248 2.022 1_455 S
Co239 N256 1.993 . S
Co239 O264 1.941 . S
C240 O241 1.258 . S
C240 O242 1.263 . S
O241 Co238 1.970 . S
O241 C240 1.258 . S
O242 Co239 1.966 . S
O242 C240 1.263 . S
C243 O244 1.235 . S
C243 O270 1.289 . S
O244 C243 1.235 . S
C245 C247 1.400 . S
C245 N248 1.351 . S
C245 C250 1.501 . S
C246 C247 1.387 . S
C246 N249 1.341 . S
C247 C245 1.400 . S
C247 C246 1.387 . S
N248 Co239 2.022 1_655 S
N248 C245 1.351 . S
N248 N249 1.365 . S
N249 C246 1.341 . S
N249 N248 1.365 . S
N249 H269 0.862 . S
C250 C245 1.501 . S
C250 H251 0.961 . S
C250 H252 0.961 . S
C250 H253 0.960 . S
H251 C250 0.961 . S
H252 C250 0.961 . S
H253 C250 0.960 . S
C254 N255 1.342 . S
C254 C258 1.401 1_565 S
C254 C259 1.499 . S
N255 Co238 1.989 . S
N255 C254 1.342 . S
N255 N256 1.388 . S
N256 Co239 1.993 . S
N256 N255 1.388 . S
N256 C257 1.346 . S
C257 N256 1.346 . S
C257 C258 1.396 1_565 S
C257 C267 1.510 1_565 S
C258 C254 1.401 1_545 S
C258 C257 1.396 1_545 S
C259 C254 1.499 . S
C259 H260 0.959 . S
C259 H261 0.960 . S
C259 H262 0.961 . S
H260 C259 0.959 . S
H261 C259 0.960 . S
H262 C259 0.961 . S
O263 Co238 1.967 . S
O263 C271 1.258 . S
O264 Co239 1.941 . S
O264 C271 1.266 . S
H265 C267 0.959 . S
H266 C267 0.961 . S
C267 C257 1.510 1_545 S
C267 H265 0.959 . S
C267 H266 0.961 . S
C267 H268 0.960 1_445 S
H268 C267 0.960 1_665 S
H269 N249 0.862 . S
O270 Co238 1.920 . S
O270 C243 1.289 . S
C271 O263 1.258 . S
C271 O264 1.266 . S
Co272 O275 1.970 . S
Co272 N289 1.989 . S
Co272 O297 1.967 . S
Co272 O304 1.920 . S
Co273 O276 1.966 . S
Co273 N282 2.022 . S
Co273 N290 1.993 . S
Co273 O298 1.941 . S
C274 O275 1.258 . S
C274 O276 1.263 . S
O275 Co272 1.970 . S
O275 C274 1.258 . S
O276 Co273 1.966 . S
O276 C274 1.263 . S
C277 O278 1.235 . S
C277 O304 1.289 . S
O278 C277 1.235 . S
C279 C281 1.400 . S
C279 N282 1.351 . S
C279 C284 1.501 . S
C280 C281 1.387 . S
C280 N283 1.341 . S
C281 C279 1.400 . S
C281 C280 1.387 . S
N282 Co273 2.022 . S
N282 C279 1.351 . S
N282 N283 1.365 . S
N283 C280 1.341 . S
N283 N282 1.365 . S
N283 H303 0.862 . S
C284 C279 1.501 . S
C284 H285 0.961 . S
C284 H286 0.961 . S
C284 H287 0.960 . S
H285 C284 0.961 . S
H286 C284 0.961 . S
H287 C284 0.960 . S
C288 N289 1.342 . S
C288 C292 1.401 . S
C288 C293 1.499 . S
N289 Co272 1.989 . S
N289 C288 1.342 . S
N289 N290 1.388 . S
N290 Co273 1.993 . S
N290 N289 1.388 . S
N290 C291 1.346 . S
C291 N290 1.346 . S
C291 C292 1.396 . S
C291 C301 1.510 . S
C292 C288 1.401 . S
C292 C291 1.396 . S
C293 C288 1.499 . S
C293 H294 0.959 . S
C293 H295 0.960 . S
C293 H296 0.961 . S
H294 C293 0.959 . S
H295 C293 0.960 . S
H296 C293 0.961 . S
O297 Co272 1.967 . S
O297 C305 1.258 . S
O298 Co273 1.941 . S
O298 C305 1.266 . S
H299 C301 0.959 . S
H300 C301 0.961 . S
C301 C291 1.510 . S
C301 H299 0.959 . S
C301 H300 0.961 . S
C301 H302 0.960 . S
H302 C301 0.960 . S
H303 N283 0.862 . S
O304 Co272 1.920 . S
O304 C277 1.289 . S
C305 O297 1.258 . S
C305 O298 1.266 . S
Co306 O309 1.970 . S
Co306 N323 1.989 . S
Co306 O331 1.967 . S
Co306 O338 1.920 . S
Co307 O310 1.966 . S
Co307 N316 2.022 1_655 S
Co307 N324 1.993 . S
Co307 O332 1.941 . S
C308 O309 1.258 . S
C308 O310 1.263 . S
O309 Co306 1.970 . S
O309 C308 1.258 . S
O310 Co307 1.966 . S
O310 C308 1.263 . S
C311 O312 1.235 . S
C311 O338 1.289 . S
O312 C311 1.235 . S
C313 C315 1.400 . S
C313 N316 1.351 . S
C313 C318 1.501 . S
C314 C315 1.387 . S
C314 N317 1.341 . S
C315 C313 1.400 . S
C315 C314 1.387 . S
N316 Co307 2.022 1_455 S
N316 C313 1.351 . S
N316 N317 1.365 . S
N317 C314 1.341 . S
N317 N316 1.365 . S
N317 H337 0.862 . S
C318 C313 1.501 . S
C318 H319 0.961 . S
C318 H320 0.961 . S
C318 H321 0.960 . S
H319 C318 0.961 . S
H320 C318 0.961 . S
H321 C318 0.960 . S
C322 N323 1.342 . S
C322 C326 1.401 . S
C322 C327 1.499 . S
N323 Co306 1.989 . S
N323 C322 1.342 . S
N323 N324 1.388 . S
N324 Co307 1.993 . S
N324 N323 1.388 . S
N324 C325 1.346 . S
C325 N324 1.346 . S
C325 C326 1.396 . S
C325 C335 1.510 . S
C326 C322 1.401 . S
C326 C325 1.396 . S
C327 C322 1.499 . S
C327 H328 0.959 . S
C327 H329 0.960 . S
C327 H330 0.961 . S
H328 C327 0.959 . S
H329 C327 0.960 . S
H330 C327 0.961 . S
O331 Co306 1.967 . S
O331 C339 1.258 . S
O332 Co307 1.941 . S
O332 C339 1.266 . S
H333 C335 0.959 . S
H334 C335 0.961 . S
C335 C325 1.510 . S
C335 H333 0.959 . S
C335 H334 0.961 . S
C335 H336 0.960 1_655 S
H336 C335 0.960 1_455 S
H337 N317 0.862 . S
O338 Co306 1.920 . S
O338 C311 1.289 . S
C339 O331 1.258 . S
C339 O332 1.266 . S
Co340 O343 1.970 . S
Co340 N357 1.989 . S
Co340 O365 1.967 . S
Co340 O372 1.920 . S
Co341 O344 1.966 . S
Co341 N350 2.022 . S
Co341 N358 1.993 . S
Co341 O366 1.941 . S
C342 O343 1.258 . S
C342 O344 1.263 . S
O343 Co340 1.970 . S
O343 C342 1.258 . S
O344 Co341 1.966 . S
O344 C342 1.263 . S
C345 O346 1.235 . S
C345 O372 1.289 . S
O346 C345 1.235 . S
C347 C349 1.400 . S
C347 N350 1.351 . S
C347 C352 1.501 . S
C348 C349 1.387 . S
C348 N351 1.341 . S
C349 C347 1.400 . S
C349 C348 1.387 . S
N350 Co341 2.022 . S
N350 C347 1.351 . S
N350 N351 1.365 . S
N351 C348 1.341 . S
N351 N350 1.365 . S
N351 H371 0.862 . S
C352 C347 1.501 . S
C352 H353 0.961 . S
C352 H354 0.961 . S
C352 H355 0.960 . S
H353 C352 0.961 . S
H354 C352 0.961 . S
H355 C352 0.960 . S
C356 N357 1.342 . S
C356 C360 1.401 . S
C356 C361 1.499 . S
N357 Co340 1.989 . S
N357 C356 1.342 . S
N357 N358 1.388 . S
N358 Co341 1.993 . S
N358 N357 1.388 . S
N358 C359 1.346 . S
C359 N358 1.346 . S
C359 C360 1.396 . S
C359 C369 1.510 . S
C360 C356 1.401 . S
C360 C359 1.396 . S
C361 C356 1.499 . S
C361 H362 0.959 . S
C361 H363 0.960 . S
C361 H364 0.961 . S
H362 C361 0.959 . S
H363 C361 0.960 . S
H364 C361 0.961 . S
O365 Co340 1.967 . S
O365 C373 1.258 . S
O366 Co341 1.941 . S
O366 C373 1.266 . S
H367 C369 0.959 . S
H368 C369 0.961 . S
C369 C359 1.510 . S
C369 H367 0.959 . S
C369 H368 0.961 . S
C369 H370 0.960 . S
H370 C369 0.960 . S
H371 N351 0.862 . S
O372 Co340 1.920 . S
O372 C345 1.289 . S
C373 O365 1.258 . S
C373 O366 1.266 . S
Co374 O377 1.970 . S
Co374 N391 1.989 . S
Co374 O399 1.967 . S
Co374 O406 1.920 . S
Co375 O378 1.966 . S
Co375 N384 2.022 1_655 S
Co375 N392 1.993 . S
Co375 O400 1.941 . S
C376 O377 1.258 . S
C376 O378 1.263 . S
O377 Co374 1.970 . S
O377 C376 1.258 . S
O378 Co375 1.966 . S
O378 C376 1.263 . S
C379 O380 1.235 . S
C379 O406 1.289 . S
O380 C379 1.235 . S
C381 C383 1.400 . S
C381 N384 1.351 . S
C381 C386 1.501 . S
C382 C383 1.387 . S
C382 N385 1.341 . S
C383 C381 1.400 . S
C383 C382 1.387 . S
N384 Co375 2.022 1_455 S
N384 C381 1.351 . S
N384 N385 1.365 . S
N385 C382 1.341 . S
N385 N384 1.365 . S
N385 H405 0.862 . S
C386 C381 1.501 . S
C386 H387 0.961 . S
C386 H388 0.961 . S
C386 H389 0.960 . S
H387 C386 0.961 . S
H388 C386 0.961 . S
H389 C386 0.960 . S
C390 N391 1.342 . S
C390 C394 1.401 . S
C390 C395 1.499 . S
N391 Co374 1.989 . S
N391 C390 1.342 . S
N391 N392 1.388 . S
N392 Co375 1.993 . S
N392 N391 1.388 . S
N392 C393 1.346 . S
C393 N392 1.346 . S
C393 C394 1.396 . S
C393 C403 1.510 . S
C394 C390 1.401 . S
C394 C393 1.396 . S
C395 C390 1.499 . S
C395 H396 0.959 . S
C395 H397 0.960 . S
C395 H398 0.961 . S
H396 C395 0.959 . S
H397 C395 0.960 . S
H398 C395 0.961 . S
O399 Co374 1.967 . S
O399 C407 1.258 . S
O400 Co375 1.941 . S
O400 C407 1.266 . S
H401 C403 0.959 . S
H402 C403 0.961 . S
C403 C393 1.510 . S
C403 H401 0.959 . S
C403 H402 0.961 . S
C403 H404 0.960 1_655 S
H404 C403 0.960 1_455 S
H405 N385 0.862 . S
O406 Co374 1.920 . S
O406 C379 1.289 . S
C407 O399 1.258 . S
C407 O400 1.266 . S
Co408 O411 1.970 . S
Co408 N425 1.989 . S
Co408 O433 1.967 . S
Co408 O440 1.920 . S
Co409 O412 1.966 . S
Co409 N418 2.022 . S
Co409 N426 1.993 . S
Co409 O434 1.941 . S
C410 O411 1.258 . S
C410 O412 1.263 . S
O411 Co408 1.970 . S
O411 C410 1.258 . S
O412 Co409 1.966 . S
O412 C410 1.263 . S
C413 O414 1.235 . S
C413 O440 1.289 . S
O414 C413 1.235 . S
C415 C417 1.400 . S
C415 N418 1.351 . S
C415 C420 1.501 . S
C416 C417 1.387 . S
C416 N419 1.341 . S
C417 C415 1.400 . S
C417 C416 1.387 . S
N418 Co409 2.022 . S
N418 C415 1.351 . S
N418 N419 1.365 . S
N419 C416 1.341 . S
N419 N418 1.365 . S
N419 H439 0.862 . S
C420 C415 1.501 . S
C420 H421 0.961 . S
C420 H422 0.961 . S
C420 H423 0.960 . S
H421 C420 0.961 . S
H422 C420 0.961 . S
H423 C420 0.960 . S
C424 N425 1.342 . S
C424 C428 1.401 . S
C424 C429 1.499 . S
N425 Co408 1.989 . S
N425 C424 1.342 . S
N425 N426 1.388 . S
N426 Co409 1.993 . S
N426 N425 1.388 . S
N426 C427 1.346 . S
C427 N426 1.346 . S
C427 C428 1.396 . S
C427 C437 1.510 . S
C428 C424 1.401 . S
C428 C427 1.396 . S
C429 C424 1.499 . S
C429 H430 0.959 . S
C429 H431 0.960 . S
C429 H432 0.961 . S
H430 C429 0.959 . S
H431 C429 0.960 . S
H432 C429 0.961 . S
O433 Co408 1.967 . S
O433 C441 1.258 . S
O434 Co409 1.941 . S
O434 C441 1.266 . S
H435 C437 0.959 . S
H436 C437 0.961 . S
C437 C427 1.510 . S
C437 H435 0.959 . S
C437 H436 0.961 . S
C437 H438 0.960 . S
H438 C437 0.960 . S
H439 N419 0.862 . S
O440 Co408 1.920 . S
O440 C413 1.289 . S
C441 O433 1.258 . S
C441 O434 1.266 . S
Co442 O445 1.970 . S
Co442 N459 1.989 . S
Co442 O467 1.967 . S
Co442 O474 1.920 . S
Co443 O446 1.966 . S
Co443 N452 2.022 1_455 S
Co443 N460 1.993 . S
Co443 O468 1.941 . S
C444 O445 1.258 . S
C444 O446 1.263 . S
O445 Co442 1.970 . S
O445 C444 1.258 . S
O446 Co443 1.966 . S
O446 C444 1.263 . S
C447 O448 1.235 . S
C447 O474 1.289 . S
O448 C447 1.235 . S
C449 C451 1.400 . S
C449 N452 1.351 . S
C449 C454 1.501 . S
C450 C451 1.387 . S
C450 N453 1.341 . S
C451 C449 1.400 . S
C451 C450 1.387 . S
N452 Co443 2.022 1_655 S
N452 C449 1.351 . S
N452 N453 1.365 . S
N453 C450 1.341 . S
N453 N452 1.365 . S
N453 H473 0.862 . S
C454 C449 1.501 . S
C454 H455 0.961 . S
C454 H456 0.961 . S
C454 H457 0.960 . S
H455 C454 0.961 . S
H456 C454 0.961 . S
H457 C454 0.960 . S
C458 N459 1.342 . S
C458 C462 1.401 . S
C458 C463 1.499 . S
N459 Co442 1.989 . S
N459 C458 1.342 . S
N459 N460 1.388 . S
N460 Co443 1.993 . S
N460 N459 1.388 . S
N460 C461 1.346 . S
C461 N460 1.346 . S
C461 C462 1.396 . S
C461 C471 1.510 . S
C462 C458 1.401 . S
C462 C461 1.396 . S
C463 C458 1.499 . S
C463 H464 0.959 . S
C463 H465 0.960 . S
C463 H466 0.961 . S
H464 C463 0.959 . S
H465 C463 0.960 . S
H466 C463 0.961 . S
O467 Co442 1.967 . S
O467 C475 1.258 . S
O468 Co443 1.941 . S
O468 C475 1.266 . S
H469 C471 0.959 . S
H470 C471 0.961 . S
C471 C461 1.510 . S
C471 H469 0.959 . S
C471 H470 0.961 . S
C471 H472 0.960 1_455 S
H472 C471 0.960 1_655 S
H473 N453 0.862 . S
O474 Co442 1.920 . S
O474 C447 1.289 . S
C475 O467 1.258 . S
C475 O468 1.266 . S
Co476 O479 1.970 . S
Co476 N493 1.989 . S
Co476 O501 1.967 . S
Co476 O508 1.920 . S
Co477 O480 1.966 . S
Co477 N486 2.022 . S
Co477 N494 1.993 . S
Co477 O502 1.941 . S
C478 O479 1.258 . S
C478 O480 1.263 . S
O479 Co476 1.970 . S
O479 C478 1.258 . S
O480 Co477 1.966 . S
O480 C478 1.263 . S
C481 O482 1.235 . S
C481 O508 1.289 . S
O482 C481 1.235 . S
C483 C485 1.400 . S
C483 N486 1.351 . S
C483 C488 1.501 . S
C484 C485 1.387 . S
C484 N487 1.341 . S
C485 C483 1.400 . S
C485 C484 1.387 . S
N486 Co477 2.022 . S
N486 C483 1.351 . S
N486 N487 1.365 . S
N487 C484 1.341 . S
N487 N486 1.365 . S
N487 H507 0.862 . S
C488 C483 1.501 . S
C488 H489 0.961 . S
C488 H490 0.961 . S
C488 H491 0.960 . S
H489 C488 0.961 . S
H490 C488 0.961 . S
H491 C488 0.960 . S
C492 N493 1.342 . S
C492 C496 1.401 . S
C492 C497 1.499 . S
N493 Co476 1.989 . S
N493 C492 1.342 . S
N493 N494 1.388 . S
N494 Co477 1.993 . S
N494 N493 1.388 . S
N494 C495 1.346 . S
C495 N494 1.346 . S
C495 C496 1.396 . S
C495 C505 1.510 . S
C496 C492 1.401 . S
C496 C495 1.396 . S
C497 C492 1.499 . S
C497 H498 0.959 . S
C497 H499 0.960 . S
C497 H500 0.961 . S
H498 C497 0.959 . S
H499 C497 0.960 . S
H500 C497 0.961 . S
O501 Co476 1.967 . S
O501 C509 1.258 . S
O502 Co477 1.941 . S
O502 C509 1.266 . S
H503 C505 0.959 . S
H504 C505 0.961 . S
C505 C495 1.510 . S
C505 H503 0.959 . S
C505 H504 0.961 . S
C505 H506 0.960 . S
H506 C505 0.960 . S
H507 N487 0.862 . S
O508 Co476 1.920 . S
O508 C481 1.289 . S
C509 O501 1.258 . S
C509 O502 1.266 . S
Co510 O513 1.970 . S
Co510 N527 1.989 . S
Co510 O535 1.967 . S
Co510 O542 1.920 . S
Co511 O514 1.966 . S
Co511 N520 2.022 1_455 S
Co511 N528 1.993 . S
Co511 O536 1.941 . S
C512 O513 1.258 . S
C512 O514 1.263 . S
O513 Co510 1.970 . S
O513 C512 1.258 . S
O514 Co511 1.966 . S
O514 C512 1.263 . S
C515 O516 1.235 . S
C515 O542 1.289 . S
O516 C515 1.235 . S
C517 C519 1.400 . S
C517 N520 1.351 . S
C517 C522 1.501 . S
C518 C519 1.387 . S
C518 N521 1.341 . S
C519 C517 1.400 . S
C519 C518 1.387 . S
N520 Co511 2.022 1_655 S
N520 C517 1.351 . S
N520 N521 1.365 . S
N521 C518 1.341 . S
N521 N520 1.365 . S
N521 H541 0.862 . S
C522 C517 1.501 . S
C522 H523 0.961 . S
C522 H524 0.961 . S
C522 H525 0.960 . S
H523 C522 0.961 . S
H524 C522 0.961 . S
H525 C522 0.960 . S
C526 N527 1.342 . S
C526 C530 1.401 . S
C526 C531 1.499 . S
N527 Co510 1.989 . S
N527 C526 1.342 . S
N527 N528 1.388 . S
N528 Co511 1.993 . S
N528 N527 1.388 . S
N528 C529 1.346 . S
C529 N528 1.346 . S
C529 C530 1.396 . S
C529 C539 1.510 . S
C530 C526 1.401 . S
C530 C529 1.396 . S
C531 C526 1.499 . S
C531 H532 0.959 . S
C531 H533 0.960 . S
C531 H534 0.961 . S
H532 C531 0.959 . S
H533 C531 0.960 . S
H534 C531 0.961 . S
O535 Co510 1.967 . S
O535 C543 1.258 . S
O536 Co511 1.941 . S
O536 C543 1.266 . S
H537 C539 0.959 . S
H538 C539 0.961 . S
C539 C529 1.510 . S
C539 H537 0.959 . S
C539 H538 0.961 . S
C539 H540 0.960 1_455 S
H540 C539 0.960 1_655 S
H541 N521 0.862 . S
O542 Co510 1.920 . S
O542 C515 1.289 . S
C543 O535 1.258 . S
C543 O536 1.266 . S
Co544 O547 1.970 . S
Co544 N561 1.989 . S
Co544 O569 1.967 . S
Co544 O576 1.920 1_655 S
Co545 O548 1.966 . S
Co545 N554 2.022 . S
Co545 N562 1.993 . S
Co545 O570 1.941 . S
C546 O547 1.258 . S
C546 O548 1.263 . S
O547 Co544 1.970 . S
O547 C546 1.258 . S
O548 Co545 1.966 . S
O548 C546 1.263 . S
C549 O550 1.235 . S
C549 O576 1.289 . S
O550 C549 1.235 . S
C551 C553 1.400 . S
C551 N554 1.351 . S
C551 C556 1.501 . S
C552 C553 1.387 . S
C552 N555 1.341 . S
C553 C551 1.400 . S
C553 C552 1.387 . S
N554 Co545 2.022 . S
N554 C551 1.351 . S
N554 N555 1.365 . S
N555 C552 1.341 . S
N555 N554 1.365 . S
N555 H575 0.862 . S
C556 C551 1.501 . S
C556 H557 0.961 . S
C556 H558 0.961 . S
C556 H559 0.960 . S
H557 C556 0.961 . S
H558 C556 0.961 . S
H559 C556 0.960 . S
C560 N561 1.342 . S
C560 C564 1.401 1_545 S
C560 C565 1.499 1_655 S
N561 Co544 1.989 . S
N561 C560 1.342 . S
N561 N562 1.388 . S
N562 Co545 1.993 . S
N562 N561 1.388 . S
N562 C563 1.346 . S
C563 N562 1.346 . S
C563 C564 1.396 1_545 S
C563 C573 1.510 1_545 S
C564 C560 1.401 1_565 S
C564 C563 1.396 1_565 S
C565 C560 1.499 1_455 S
C565 H566 0.959 . S
C565 H567 0.960 . S
C565 H568 0.961 . S
H566 C565 0.959 . S
H567 C565 0.960 . S
H568 C565 0.961 . S
O569 Co544 1.967 . S
O569 C577 1.258 . S
O570 Co545 1.941 . S
O570 C577 1.266 . S
H571 C573 0.959 . S
H572 C573 0.961 . S
C573 C563 1.510 1_565 S
C573 H571 0.959 . S
C573 H572 0.961 . S
C573 H574 0.960 1_565 S
H574 C573 0.960 1_545 S
H575 N555 0.862 . S
O576 Co544 1.920 1_455 S
O576 C549 1.289 . S
C577 O569 1.258 . S
C577 O570 1.266 . S
Co578 O581 1.970 . S
Co578 N595 1.989 . S
Co578 O603 1.967 . S
Co578 O610 1.920 . S
Co579 O582 1.966 . S
Co579 N588 2.022 . S
Co579 N596 1.993 . S
Co579 O604 1.941 . S
C580 O581 1.258 . S
C580 O582 1.263 . S
O581 Co578 1.970 . S
O581 C580 1.258 . S
O582 Co579 1.966 . S
O582 C580 1.263 . S
C583 O584 1.235 . S
C583 O610 1.289 . S
O584 C583 1.235 . S
C585 C587 1.400 . S
C585 N588 1.351 . S
C585 C590 1.501 . S
C586 C587 1.387 . S
C586 N589 1.341 . S
C587 C585 1.400 . S
C587 C586 1.387 . S
N588 Co579 2.022 . S
N588 C585 1.351 . S
N588 N589 1.365 . S
N589 C586 1.341 . S
N589 N588 1.365 . S
N589 H609 0.862 . S
C590 C585 1.501 . S
C590 H591 0.961 . S
C590 H592 0.961 . S
C590 H593 0.960 . S
H591 C590 0.961 . S
H592 C590 0.961 . S
H593 C590 0.960 . S
C594 N595 1.342 . S
C594 C598 1.401 . S
C594 C599 1.499 . S
N595 Co578 1.989 . S
N595 C594 1.342 . S
N595 N596 1.388 . S
N596 Co579 1.993 . S
N596 N595 1.388 . S
N596 C597 1.346 . S
C597 N596 1.346 . S
C597 C598 1.396 . S
C597 C607 1.510 . S
C598 C594 1.401 . S
C598 C597 1.396 . S
C599 C594 1.499 . S
C599 H600 0.959 . S
C599 H601 0.960 . S
C599 H602 0.961 . S
H600 C599 0.959 . S
H601 C599 0.960 . S
H602 C599 0.961 . S
O603 Co578 1.967 . S
O603 C611 1.258 . S
O604 Co579 1.941 . S
O604 C611 1.266 . S
H605 C607 0.959 . S
H606 C607 0.961 . S
C607 C597 1.510 . S
C607 H605 0.959 . S
C607 H606 0.961 . S
C607 H608 0.960 . S
H608 C607 0.960 . S
H609 N589 0.862 . S
O610 Co578 1.920 . S
O610 C583 1.289 . S
C611 O603 1.258 . S
C611 O604 1.266 . S
Co612 O615 1.970 . S
Co612 N629 1.989 . S
Co612 O637 1.967 . S
Co612 O644 1.920 1_655 S
Co613 O616 1.966 . S
Co613 N622 2.022 . S
Co613 N630 1.993 . S
Co613 O638 1.941 . S
C614 O615 1.258 . S
C614 O616 1.263 . S
O615 Co612 1.970 . S
O615 C614 1.258 . S
O616 Co613 1.966 . S
O616 C614 1.263 . S
C617 O618 1.235 . S
C617 O644 1.289 . S
O618 C617 1.235 . S
C619 C621 1.400 . S
C619 N622 1.351 . S
C619 C624 1.501 . S
C620 C621 1.387 . S
C620 N623 1.341 . S
C621 C619 1.400 . S
C621 C620 1.387 . S
N622 Co613 2.022 . S
N622 C619 1.351 . S
N622 N623 1.365 . S
N623 C620 1.341 . S
N623 N622 1.365 . S
N623 H643 0.862 . S
C624 C619 1.501 . S
C624 H625 0.961 . S
C624 H626 0.961 . S
C624 H627 0.960 . S
H625 C624 0.961 . S
H626 C624 0.961 . S
H627 C624 0.960 . S
C628 N629 1.342 . S
C628 C632 1.401 . S
C628 C633 1.499 1_655 S
N629 Co612 1.989 . S
N629 C628 1.342 . S
N629 N630 1.388 . S
N630 Co613 1.993 . S
N630 N629 1.388 . S
N630 C631 1.346 . S
C631 N630 1.346 . S
C631 C632 1.396 . S
C631 C641 1.510 . S
C632 C628 1.401 . S
C632 C631 1.396 . S
C633 C628 1.499 1_455 S
C633 H634 0.959 . S
C633 H635 0.960 . S
C633 H636 0.961 . S
H634 C633 0.959 . S
H635 C633 0.960 . S
H636 C633 0.961 . S
O637 Co612 1.967 . S
O637 C645 1.258 . S
O638 Co613 1.941 . S
O638 C645 1.266 . S
H639 C641 0.959 . S
H640 C641 0.961 . S
C641 C631 1.510 . S
C641 H639 0.959 . S
C641 H640 0.961 . S
C641 H642 0.960 . S
H642 C641 0.960 . S
H643 N623 0.862 . S
O644 Co612 1.920 1_455 S
O644 C617 1.289 . S
C645 O637 1.258 . S
C645 O638 1.266 . S
Co646 O649 1.970 . S
Co646 N663 1.989 . S
Co646 O671 1.967 . S
Co646 O678 1.920 . S
Co647 O650 1.966 . S
Co647 N656 2.022 . S
Co647 N664 1.993 . S
Co647 O672 1.941 . S
C648 O649 1.258 . S
C648 O650 1.263 . S
O649 Co646 1.970 . S
O649 C648 1.258 . S
O650 Co647 1.966 . S
O650 C648 1.263 . S
C651 O652 1.235 . S
C651 O678 1.289 . S
O652 C651 1.235 . S
C653 C655 1.400 . S
C653 N656 1.351 . S
C653 C658 1.501 . S
C654 C655 1.387 . S
C654 N657 1.341 . S
C655 C653 1.400 . S
C655 C654 1.387 . S
N656 Co647 2.022 . S
N656 C653 1.351 . S
N656 N657 1.365 . S
N657 C654 1.341 . S
N657 N656 1.365 . S
N657 H677 0.862 . S
C658 C653 1.501 . S
C658 H659 0.961 . S
C658 H660 0.961 . S
C658 H661 0.960 . S
H659 C658 0.961 . S
H660 C658 0.961 . S
H661 C658 0.960 . S
C662 N663 1.342 . S
C662 C666 1.401 1_545 S
C662 C667 1.499 . S
N663 Co646 1.989 . S
N663 C662 1.342 . S
N663 N664 1.388 . S
N664 Co647 1.993 . S
N664 N663 1.388 . S
N664 C665 1.346 . S
C665 N664 1.346 . S
C665 C666 1.396 1_545 S
C665 C675 1.510 1_545 S
C666 C662 1.401 1_565 S
C666 C665 1.396 1_565 S
C667 C662 1.499 . S
C667 H668 0.959 . S
C667 H669 0.960 . S
C667 H670 0.961 . S
H668 C667 0.959 . S
H669 C667 0.960 . S
H670 C667 0.961 . S
O671 Co646 1.967 . S
O671 C679 1.258 . S
O672 Co647 1.941 . S
O672 C679 1.266 . S
H673 C675 0.959 . S
H674 C675 0.961 . S
C675 C665 1.510 1_565 S
C675 H673 0.959 . S
C675 H674 0.961 . S
C675 H676 0.960 1_565 S
H676 C675 0.960 1_545 S
H677 N657 0.862 . S
O678 Co646 1.920 . S
O678 C651 1.289 . S
C679 O671 1.258 . S
C679 O672 1.266 . S
Co680 O683 1.970 . S
Co680 N697 1.989 . S
Co680 O705 1.967 . S
Co680 O712 1.920 1_455 S
Co681 O684 1.966 . S
Co681 N690 2.022 . S
Co681 N698 1.993 . S
Co681 O706 1.941 . S
C682 O683 1.258 . S
C682 O684 1.263 . S
O683 Co680 1.970 . S
O683 C682 1.258 . S
O684 Co681 1.966 . S
O684 C682 1.263 . S
C685 O686 1.235 . S
C685 O712 1.289 . S
O686 C685 1.235 . S
C687 C689 1.400 . S
C687 N690 1.351 . S
C687 C692 1.501 . S
C688 C689 1.387 . S
C688 N691 1.341 . S
C689 C687 1.400 . S
C689 C688 1.387 . S
N690 Co681 2.022 . S
N690 C687 1.351 . S
N690 N691 1.365 . S
N691 C688 1.341 . S
N691 N690 1.365 . S
N691 H711 0.862 . S
C692 C687 1.501 . S
C692 H693 0.961 . S
C692 H694 0.961 . S
C692 H695 0.960 . S
H693 C692 0.961 . S
H694 C692 0.961 . S
H695 C692 0.960 . S
C696 N697 1.342 . S
C696 C700 1.401 1_565 S
C696 C701 1.499 1_455 S
N697 Co680 1.989 . S
N697 C696 1.342 . S
N697 N698 1.388 . S
N698 Co681 1.993 . S
N698 N697 1.388 . S
N698 C699 1.346 . S
C699 N698 1.346 . S
C699 C700 1.396 1_565 S
C699 C709 1.510 1_565 S
C700 C696 1.401 1_545 S
C700 C699 1.396 1_545 S
C701 C696 1.499 1_655 S
C701 H702 0.959 . S
C701 H703 0.960 . S
C701 H704 0.961 . S
H702 C701 0.959 . S
H703 C701 0.960 . S
H704 C701 0.961 . S
O705 Co680 1.967 . S
O705 C713 1.258 . S
O706 Co681 1.941 . S
O706 C713 1.266 . S
H707 C709 0.959 . S
H708 C709 0.961 . S
C709 C699 1.510 1_545 S
C709 H707 0.959 . S
C709 H708 0.961 . S
C709 H710 0.960 1_545 S
H710 C709 0.960 1_565 S
H711 N691 0.862 . S
O712 Co680 1.920 1_655 S
O712 C685 1.289 . S
C713 O705 1.258 . S
C713 O706 1.266 . S
Co714 O717 1.970 . S
Co714 N731 1.989 . S
Co714 O739 1.967 . S
Co714 O746 1.920 . S
Co715 O718 1.966 . S
Co715 N724 2.022 . S
Co715 N732 1.993 . S
Co715 O740 1.941 . S
C716 O717 1.258 . S
C716 O718 1.263 . S
O717 Co714 1.970 . S
O717 C716 1.258 . S
O718 Co715 1.966 . S
O718 C716 1.263 . S
C719 O720 1.235 . S
C719 O746 1.289 . S
O720 C719 1.235 . S
C721 C723 1.400 . S
C721 N724 1.351 . S
C721 C726 1.501 . S
C722 C723 1.387 . S
C722 N725 1.341 . S
C723 C721 1.400 . S
C723 C722 1.387 . S
N724 Co715 2.022 . S
N724 C721 1.351 . S
N724 N725 1.365 . S
N725 C722 1.341 . S
N725 N724 1.365 . S
N725 H745 0.862 . S
C726 C721 1.501 . S
C726 H727 0.961 . S
C726 H728 0.961 . S
C726 H729 0.960 . S
H727 C726 0.961 . S
H728 C726 0.961 . S
H729 C726 0.960 . S
C730 N731 1.342 . S
C730 C734 1.401 . S
C730 C735 1.499 . S
N731 Co714 1.989 . S
N731 C730 1.342 . S
N731 N732 1.388 . S
N732 Co715 1.993 . S
N732 N731 1.388 . S
N732 C733 1.346 . S
C733 N732 1.346 . S
C733 C734 1.396 . S
C733 C743 1.510 . S
C734 C730 1.401 . S
C734 C733 1.396 . S
C735 C730 1.499 . S
C735 H736 0.959 . S
C735 H737 0.960 . S
C735 H738 0.961 . S
H736 C735 0.959 . S
H737 C735 0.960 . S
H738 C735 0.961 . S
O739 Co714 1.967 . S
O739 C747 1.258 . S
O740 Co715 1.941 . S
O740 C747 1.266 . S
H741 C743 0.959 . S
H742 C743 0.961 . S
C743 C733 1.510 . S
C743 H741 0.959 . S
C743 H742 0.961 . S
C743 H744 0.960 . S
H744 C743 0.960 . S
H745 N725 0.862 . S
O746 Co714 1.920 . S
O746 C719 1.289 . S
C747 O739 1.258 . S
C747 O740 1.266 . S
Co748 O751 1.970 . S
Co748 N765 1.989 . S
Co748 O773 1.967 . S
Co748 O780 1.920 1_455 S
Co749 O752 1.966 . S
Co749 N758 2.022 . S
Co749 N766 1.993 . S
Co749 O774 1.941 . S
C750 O751 1.258 . S
C750 O752 1.263 . S
O751 Co748 1.970 . S
O751 C750 1.258 . S
O752 Co749 1.966 . S
O752 C750 1.263 . S
C753 O754 1.235 . S
C753 O780 1.289 . S
O754 C753 1.235 . S
C755 C757 1.400 . S
C755 N758 1.351 . S
C755 C760 1.501 . S
C756 C757 1.387 . S
C756 N759 1.341 . S
C757 C755 1.400 . S
C757 C756 1.387 . S
N758 Co749 2.022 . S
N758 C755 1.351 . S
N758 N759 1.365 . S
N759 C756 1.341 . S
N759 N758 1.365 . S
N759 H779 0.862 . S
C760 C755 1.501 . S
C760 H761 0.961 . S
C760 H762 0.961 . S
C760 H763 0.960 . S
H761 C760 0.961 . S
H762 C760 0.961 . S
H763 C760 0.960 . S
C764 N765 1.342 . S
C764 C768 1.401 . S
C764 C769 1.499 1_455 S
N765 Co748 1.989 . S
N765 C764 1.342 . S
N765 N766 1.388 . S
N766 Co749 1.993 . S
N766 N765 1.388 . S
N766 C767 1.346 . S
C767 N766 1.346 . S
C767 C768 1.396 . S
C767 C777 1.510 . S
C768 C764 1.401 . S
C768 C767 1.396 . S
C769 C764 1.499 1_655 S
C769 H770 0.959 . S
C769 H771 0.960 . S
C769 H772 0.961 . S
H770 C769 0.959 . S
H771 C769 0.960 . S
H772 C769 0.961 . S
O773 Co748 1.967 . S
O773 C781 1.258 . S
O774 Co749 1.941 . S
O774 C781 1.266 . S
H775 C777 0.959 . S
H776 C777 0.961 . S
C777 C767 1.510 . S
C777 H775 0.959 . S
C777 H776 0.961 . S
C777 H778 0.960 . S
H778 C777 0.960 . S
H779 N759 0.862 . S
O780 Co748 1.920 1_655 S
O780 C753 1.289 . S
C781 O773 1.258 . S
C781 O774 1.266 . S
Co782 O785 1.970 . S
Co782 N799 1.989 . S
Co782 O807 1.967 . S
Co782 O814 1.920 . S
Co783 O786 1.966 . S
Co783 N792 2.022 . S
Co783 N800 1.993 . S
Co783 O808 1.941 . S
C784 O785 1.258 . S
C784 O786 1.263 . S
O785 Co782 1.970 . S
O785 C784 1.258 . S
O786 Co783 1.966 . S
O786 C784 1.263 . S
C787 O788 1.235 . S
C787 O814 1.289 . S
O788 C787 1.235 . S
C789 C791 1.400 . S
C789 N792 1.351 . S
C789 C794 1.501 . S
C790 C791 1.387 . S
C790 N793 1.341 . S
C791 C789 1.400 . S
C791 C790 1.387 . S
N792 Co783 2.022 . S
N792 C789 1.351 . S
N792 N793 1.365 . S
N793 C790 1.341 . S
N793 N792 1.365 . S
N793 H813 0.862 . S
C794 C789 1.501 . S
C794 H795 0.961 . S
C794 H796 0.961 . S
C794 H797 0.960 . S
H795 C794 0.961 . S
H796 C794 0.961 . S
H797 C794 0.960 . S
C798 N799 1.342 . S
C798 C802 1.401 1_565 S
C798 C803 1.499 . S
N799 Co782 1.989 . S
N799 C798 1.342 . S
N799 N800 1.388 . S
N800 Co783 1.993 . S
N800 N799 1.388 . S
N800 C801 1.346 . S
C801 N800 1.346 . S
C801 C802 1.396 1_565 S
C801 C811 1.510 1_565 S
C802 C798 1.401 1_545 S
C802 C801 1.396 1_545 S
C803 C798 1.499 . S
C803 H804 0.959 . S
C803 H805 0.960 . S
C803 H806 0.961 . S
H804 C803 0.959 . S
H805 C803 0.960 . S
H806 C803 0.961 . S
O807 Co782 1.967 . S
O807 C815 1.258 . S
O808 Co783 1.941 . S
O808 C815 1.266 . S
H809 C811 0.959 . S
H810 C811 0.961 . S
C811 C801 1.510 1_545 S
C811 H809 0.959 . S
C811 H810 0.961 . S
C811 H812 0.960 1_545 S
H812 C811 0.960 1_565 S
H813 N793 0.862 . S
O814 Co782 1.920 . S
O814 C787 1.289 . S
C815 O807 1.258 . S
C815 O808 1.266 . S
Co816 O819 1.970 . S
Co816 N833 1.989 . S
Co816 O841 1.967 . S
Co816 O848 1.920 1_655 S
Co817 O820 1.966 . S
Co817 N826 2.022 . S
Co817 N834 1.993 . S
Co817 O842 1.941 . S
C818 O819 1.258 . S
C818 O820 1.263 . S
O819 Co816 1.970 . S
O819 C818 1.258 . S
O820 Co817 1.966 . S
O820 C818 1.263 . S
C821 O822 1.235 . S
C821 O848 1.289 . S
O822 C821 1.235 . S
C823 C825 1.400 . S
C823 N826 1.351 1_556 S
C823 C828 1.501 . S
C824 C825 1.387 1_554 S
C824 N827 1.341 . S
C825 C823 1.400 . S
C825 C824 1.387 1_556 S
N826 Co817 2.022 . S
N826 C823 1.351 1_554 S
N826 N827 1.365 . S
N827 C824 1.341 . S
N827 N826 1.365 . S
N827 H847 0.862 . S
C828 C823 1.501 . S
C828 H829 0.961 . S
C828 H830 0.961 . S
C828 H831 0.960 . S
H829 C828 0.961 . S
H830 C828 0.961 . S
H831 C828 0.960 . S
C832 N833 1.342 . S
C832 C836 1.401 . S
C832 C837 1.499 1_655 S
N833 Co816 1.989 . S
N833 C832 1.342 . S
N833 N834 1.388 . S
N834 Co817 1.993 . S
N834 N833 1.388 . S
N834 C835 1.346 . S
C835 N834 1.346 . S
C835 C836 1.396 . S
C835 C845 1.510 1_554 S
C836 C832 1.401 . S
C836 C835 1.396 . S
C837 C832 1.499 1_455 S
C837 H838 0.959 . S
C837 H839 0.960 . S
C837 H840 0.961 . S
H838 C837 0.959 . S
H839 C837 0.960 . S
H840 C837 0.961 . S
O841 Co816 1.967 . S
O841 C849 1.258 . S
O842 Co817 1.941 . S
O842 C849 1.266 . S
H843 C845 0.959 1_554 S
H844 C845 0.961 . S
C845 C835 1.510 1_556 S
C845 H843 0.959 1_556 S
C845 H844 0.961 . S
C845 H846 0.960 1_556 S
H846 C845 0.960 1_554 S
H847 N827 0.862 . S
O848 Co816 1.920 1_455 S
O848 C821 1.289 . S
C849 O841 1.258 . S
C849 O842 1.266 . S
Co850 O853 1.970 . S
Co850 N867 1.989 . S
Co850 O875 1.967 . S
Co850 O882 1.920 . S
Co851 O854 1.966 . S
Co851 N860 2.022 . S
Co851 N868 1.993 . S
Co851 O876 1.941 . S
C852 O853 1.258 . S
C852 O854 1.263 . S
O853 Co850 1.970 . S
O853 C852 1.258 . S
O854 Co851 1.966 . S
O854 C852 1.263 . S
C855 O856 1.235 . S
C855 O882 1.289 . S
O856 C855 1.235 . S
C857 C859 1.400 . S
C857 N860 1.351 1_556 S
C857 C862 1.501 . S
C858 C859 1.387 1_554 S
C858 N861 1.341 . S
C859 C857 1.400 . S
C859 C858 1.387 1_556 S
N860 Co851 2.022 . S
N860 C857 1.351 1_554 S
N860 N861 1.365 . S
N861 C858 1.341 . S
N861 N860 1.365 . S
N861 H881 0.862 . S
C862 C857 1.501 . S
C862 H863 0.961 . S
C862 H864 0.961 . S
C862 H865 0.960 . S
H863 C862 0.961 . S
H864 C862 0.961 . S
H865 C862 0.960 . S
C866 N867 1.342 . S
C866 C870 1.401 . S
C866 C871 1.499 . S
N867 Co850 1.989 . S
N867 C866 1.342 . S
N867 N868 1.388 . S
N868 Co851 1.993 . S
N868 N867 1.388 . S
N868 C869 1.346 . S
C869 N868 1.346 . S
C869 C870 1.396 . S
C869 C879 1.510 1_554 S
C870 C866 1.401 . S
C870 C869 1.396 . S
C871 C866 1.499 . S
C871 H872 0.959 . S
C871 H873 0.960 . S
C871 H874 0.961 . S
H872 C871 0.959 . S
H873 C871 0.960 . S
H874 C871 0.961 . S
O875 Co850 1.967 . S
O875 C883 1.258 . S
O876 Co851 1.941 . S
O876 C883 1.266 . S
H877 C879 0.959 1_554 S
H878 C879 0.961 . S
C879 C869 1.510 1_556 S
C879 H877 0.959 1_556 S
C879 H878 0.961 . S
C879 H880 0.960 1_556 S
H880 C879 0.960 1_554 S
H881 N861 0.862 . S
O882 Co850 1.920 . S
O882 C855 1.289 . S
C883 O875 1.258 . S
C883 O876 1.266 . S
Co884 O887 1.970 . S
Co884 N901 1.989 . S
Co884 O909 1.967 . S
Co884 O916 1.920 1_655 S
Co885 O888 1.966 . S
Co885 N894 2.022 . S
Co885 N902 1.993 . S
Co885 O910 1.941 . S
C886 O887 1.258 . S
C886 O888 1.263 . S
O887 Co884 1.970 . S
O887 C886 1.258 . S
O888 Co885 1.966 . S
O888 C886 1.263 . S
C889 O890 1.235 . S
C889 O916 1.289 . S
O890 C889 1.235 . S
C891 C893 1.400 . S
C891 N894 1.351 . S
C891 C896 1.501 . S
C892 C893 1.387 . S
C892 N895 1.341 . S
C893 C891 1.400 . S
C893 C892 1.387 . S
N894 Co885 2.022 . S
N894 C891 1.351 . S
N894 N895 1.365 . S
N895 C892 1.341 . S
N895 N894 1.365 . S
N895 H915 0.862 . S
C896 C891 1.501 . S
C896 H897 0.961 . S
C896 H898 0.961 . S
C896 H899 0.960 . S
H897 C896 0.961 . S
H898 C896 0.961 . S
H899 C896 0.960 . S
C900 N901 1.342 . S
C900 C904 1.401 . S
C900 C905 1.499 1_655 S
N901 Co884 1.989 . S
N901 C900 1.342 . S
N901 N902 1.388 . S
N902 Co885 1.993 . S
N902 N901 1.388 . S
N902 C903 1.346 . S
C903 N902 1.346 . S
C903 C904 1.396 . S
C903 C913 1.510 . S
C904 C900 1.401 . S
C904 C903 1.396 . S
C905 C900 1.499 1_455 S
C905 H906 0.959 . S
C905 H907 0.960 . S
C905 H908 0.961 . S
H906 C905 0.959 . S
H907 C905 0.960 . S
H908 C905 0.961 . S
O909 Co884 1.967 . S
O909 C917 1.258 . S
O910 Co885 1.941 . S
O910 C917 1.266 . S
H911 C913 0.959 . S
H912 C913 0.961 . S
C913 C903 1.510 . S
C913 H911 0.959 . S
C913 H912 0.961 . S
C913 H914 0.960 . S
H914 C913 0.960 . S
H915 N895 0.862 . S
O916 Co884 1.920 1_455 S
O916 C889 1.289 . S
C917 O909 1.258 . S
C917 O910 1.266 . S
Co918 O921 1.970 . S
Co918 N935 1.989 . S
Co918 O943 1.967 . S
Co918 O950 1.920 . S
Co919 O922 1.966 . S
Co919 N928 2.022 . S
Co919 N936 1.993 . S
Co919 O944 1.941 . S
C920 O921 1.258 . S
C920 O922 1.263 . S
O921 Co918 1.970 . S
O921 C920 1.258 . S
O922 Co919 1.966 . S
O922 C920 1.263 . S
C923 O924 1.235 . S
C923 O950 1.289 . S
O924 C923 1.235 . S
C925 C927 1.400 . S
C925 N928 1.351 . S
C925 C930 1.501 . S
C926 C927 1.387 . S
C926 N929 1.341 . S
C927 C925 1.400 . S
C927 C926 1.387 . S
N928 Co919 2.022 . S
N928 C925 1.351 . S
N928 N929 1.365 . S
N929 C926 1.341 . S
N929 N928 1.365 . S
N929 H949 0.862 . S
C930 C925 1.501 . S
C930 H931 0.961 . S
C930 H932 0.961 . S
C930 H933 0.960 . S
H931 C930 0.961 . S
H932 C930 0.961 . S
H933 C930 0.960 . S
C934 N935 1.342 . S
C934 C938 1.401 . S
C934 C939 1.499 . S
N935 Co918 1.989 . S
N935 C934 1.342 . S
N935 N936 1.388 . S
N936 Co919 1.993 . S
N936 N935 1.388 . S
N936 C937 1.346 . S
C937 N936 1.346 . S
C937 C938 1.396 . S
C937 C947 1.510 . S
C938 C934 1.401 . S
C938 C937 1.396 . S
C939 C934 1.499 . S
C939 H940 0.959 . S
C939 H941 0.960 . S
C939 H942 0.961 . S
H940 C939 0.959 . S
H941 C939 0.960 . S
H942 C939 0.961 . S
O943 Co918 1.967 . S
O943 C951 1.258 . S
O944 Co919 1.941 . S
O944 C951 1.266 . S
H945 C947 0.959 . S
H946 C947 0.961 . S
C947 C937 1.510 . S
C947 H945 0.959 . S
C947 H946 0.961 . S
C947 H948 0.960 . S
H948 C947 0.960 . S
H949 N929 0.862 . S
O950 Co918 1.920 . S
O950 C923 1.289 . S
C951 O943 1.258 . S
C951 O944 1.266 . S
Co952 O955 1.970 . S
Co952 N969 1.989 . S
Co952 O977 1.967 . S
Co952 O984 1.920 1_455 S
Co953 O956 1.966 . S
Co953 N962 2.022 . S
Co953 N970 1.993 . S
Co953 O978 1.941 . S
C954 O955 1.258 . S
C954 O956 1.263 . S
O955 Co952 1.970 . S
O955 C954 1.258 . S
O956 Co953 1.966 . S
O956 C954 1.263 . S
C957 O958 1.235 . S
C957 O984 1.289 . S
O958 C957 1.235 . S
C959 C961 1.400 . S
C959 N962 1.351 1_554 S
C959 C964 1.501 . S
C960 C961 1.387 1_556 S
C960 N963 1.341 . S
C961 C959 1.400 . S
C961 C960 1.387 1_554 S
N962 Co953 2.022 . S
N962 C959 1.351 1_556 S
N962 N963 1.365 . S
N963 C960 1.341 . S
N963 N962 1.365 . S
N963 H983 0.862 . S
C964 C959 1.501 . S
C964 H965 0.961 . S
C964 H966 0.961 . S
C964 H967 0.960 . S
H965 C964 0.961 . S
H966 C964 0.961 . S
H967 C964 0.960 . S
C968 N969 1.342 . S
C968 C972 1.401 . S
C968 C973 1.499 1_455 S
N969 Co952 1.989 . S
N969 C968 1.342 . S
N969 N970 1.388 . S
N970 Co953 1.993 . S
N970 N969 1.388 . S
N970 C971 1.346 . S
C971 N970 1.346 . S
C971 C972 1.396 . S
C971 C981 1.510 1_556 S
C972 C968 1.401 . S
C972 C971 1.396 . S
C973 C968 1.499 1_655 S
C973 H974 0.959 . S
C973 H975 0.960 . S
C973 H976 0.961 . S
H974 C973 0.959 . S
H975 C973 0.960 . S
H976 C973 0.961 . S
O977 Co952 1.967 . S
O977 C985 1.258 . S
O978 Co953 1.941 . S
O978 C985 1.266 . S
H979 C981 0.959 1_556 S
H980 C981 0.961 . S
C981 C971 1.510 1_554 S
C981 H979 0.959 1_554 S
C981 H980 0.961 . S
C981 H982 0.960 1_554 S
H982 C981 0.960 1_556 S
H983 N963 0.862 . S
O984 Co952 1.920 1_655 S
O984 C957 1.289 . S
C985 O977 1.258 . S
C985 O978 1.266 . S
Co986 O989 1.970 . S
Co986 N1003 1.989 . S
Co986 O1011 1.967 . S
Co986 O1018 1.920 . S
Co987 O990 1.966 . S
Co987 N996 2.022 . S
Co987 N1004 1.993 . S
Co987 O1012 1.941 . S
C988 O989 1.258 . S
C988 O990 1.263 . S
O989 Co986 1.970 . S
O989 C988 1.258 . S
O990 Co987 1.966 . S
O990 C988 1.263 . S
C991 O992 1.235 . S
C991 O1018 1.289 . S
O992 C991 1.235 . S
C993 C995 1.400 . S
C993 N996 1.351 1_554 S
C993 C998 1.501 . S
C994 C995 1.387 1_556 S
C994 N997 1.341 . S
C995 C993 1.400 . S
C995 C994 1.387 1_554 S
N996 Co987 2.022 . S
N996 C993 1.351 1_556 S
N996 N997 1.365 . S
N997 C994 1.341 . S
N997 N996 1.365 . S
N997 H1017 0.862 . S
C998 C993 1.501 . S
C998 H999 0.961 . S
C998 H1000 0.961 . S
C998 H1001 0.960 . S
H999 C998 0.961 . S
H1000 C998 0.961 . S
H1001 C998 0.960 . S
C1002 N1003 1.342 . S
C1002 C1006 1.401 . S
C1002 C1007 1.499 . S
N1003 Co986 1.989 . S
N1003 C1002 1.342 . S
N1003 N1004 1.388 . S
N1004 Co987 1.993 . S
N1004 N1003 1.388 . S
N1004 C1005 1.346 . S
C1005 N1004 1.346 . S
C1005 C1006 1.396 . S
C1005 C1015 1.510 1_556 S
C1006 C1002 1.401 . S
C1006 C1005 1.396 . S
C1007 C1002 1.499 . S
C1007 H1008 0.959 . S
C1007 H1009 0.960 . S
C1007 H1010 0.961 . S
H1008 C1007 0.959 . S
H1009 C1007 0.960 . S
H1010 C1007 0.961 . S
O1011 Co986 1.967 . S
O1011 C1019 1.258 . S
O1012 Co987 1.941 . S
O1012 C1019 1.266 . S
H1013 C1015 0.959 1_556 S
H1014 C1015 0.961 . S
C1015 C1005 1.510 1_554 S
C1015 H1013 0.959 1_554 S
C1015 H1014 0.961 . S
C1015 H1016 0.960 1_554 S
H1016 C1015 0.960 1_556 S
H1017 N997 0.862 . S
O1018 Co986 1.920 . S
O1018 C991 1.289 . S
C1019 O1011 1.258 . S
C1019 O1012 1.266 . S
Co1020 O1023 1.970 . S
Co1020 N1037 1.989 . S
Co1020 O1045 1.967 . S
Co1020 O1052 1.920 1_455 S
Co1021 O1024 1.966 . S
Co1021 N1030 2.022 . S
Co1021 N1038 1.993 . S
Co1021 O1046 1.941 . S
C1022 O1023 1.258 . S
C1022 O1024 1.263 . S
O1023 Co1020 1.970 . S
O1023 C1022 1.258 . S
O1024 Co1021 1.966 . S
O1024 C1022 1.263 . S
C1025 O1026 1.235 . S
C1025 O1052 1.289 . S
O1026 C1025 1.235 . S
C1027 C1029 1.400 . S
C1027 N1030 1.351 . S
C1027 C1032 1.501 . S
C1028 C1029 1.387 . S
C1028 N1031 1.341 . S
C1029 C1027 1.400 . S
C1029 C1028 1.387 . S
N1030 Co1021 2.022 . S
N1030 C1027 1.351 . S
N1030 N1031 1.365 . S
N1031 C1028 1.341 . S
N1031 N1030 1.365 . S
N1031 H1051 0.862 . S
C1032 C1027 1.501 . S
C1032 H1033 0.961 . S
C1032 H1034 0.961 . S
C1032 H1035 0.960 . S
H1033 C1032 0.961 . S
H1034 C1032 0.961 . S
H1035 C1032 0.960 . S
C1036 N1037 1.342 . S
C1036 C1040 1.401 . S
C1036 C1041 1.499 1_455 S
N1037 Co1020 1.989 . S
N1037 C1036 1.342 . S
N1037 N1038 1.388 . S
N1038 Co1021 1.993 . S
N1038 N1037 1.388 . S
N1038 C1039 1.346 . S
C1039 N1038 1.346 . S
C1039 C1040 1.396 . S
C1039 C1049 1.510 . S
C1040 C1036 1.401 . S
C1040 C1039 1.396 . S
C1041 C1036 1.499 1_655 S
C1041 H1042 0.959 . S
C1041 H1043 0.960 . S
C1041 H1044 0.961 . S
H1042 C1041 0.959 . S
H1043 C1041 0.960 . S
H1044 C1041 0.961 . S
O1045 Co1020 1.967 . S
O1045 C1053 1.258 . S
O1046 Co1021 1.941 . S
O1046 C1053 1.266 . S
H1047 C1049 0.959 . S
H1048 C1049 0.961 . S
C1049 C1039 1.510 . S
C1049 H1047 0.959 . S
C1049 H1048 0.961 . S
C1049 H1050 0.960 . S
H1050 C1049 0.960 . S
H1051 N1031 0.862 . S
O1052 Co1020 1.920 1_655 S
O1052 C1025 1.289 . S
C1053 O1045 1.258 . S
C1053 O1046 1.266 . S
Co1054 O1057 1.970 . S
Co1054 N1071 1.989 . S
Co1054 O1079 1.967 . S
Co1054 O1086 1.920 . S
Co1055 O1058 1.966 . S
Co1055 N1064 2.022 . S
Co1055 N1072 1.993 . S
Co1055 O1080 1.941 . S
C1056 O1057 1.258 . S
C1056 O1058 1.263 . S
O1057 Co1054 1.970 . S
O1057 C1056 1.258 . S
O1058 Co1055 1.966 . S
O1058 C1056 1.263 . S
C1059 O1060 1.235 . S
C1059 O1086 1.289 . S
O1060 C1059 1.235 . S
C1061 C1063 1.400 . S
C1061 N1064 1.351 . S
C1061 C1066 1.501 . S
C1062 C1063 1.387 . S
C1062 N1065 1.341 . S
C1063 C1061 1.400 . S
C1063 C1062 1.387 . S
N1064 Co1055 2.022 . S
N1064 C1061 1.351 . S
N1064 N1065 1.365 . S
N1065 C1062 1.341 . S
N1065 N1064 1.365 . S
N1065 H1085 0.862 . S
C1066 C1061 1.501 . S
C1066 H1067 0.961 . S
C1066 H1068 0.961 . S
C1066 H1069 0.960 . S
H1067 C1066 0.961 . S
H1068 C1066 0.961 . S
H1069 C1066 0.960 . S
C1070 N1071 1.342 . S
C1070 C1074 1.401 . S
C1070 C1075 1.499 . S
N1071 Co1054 1.989 . S
N1071 C1070 1.342 . S
N1071 N1072 1.388 . S
N1072 Co1055 1.993 . S
N1072 N1071 1.388 . S
N1072 C1073 1.346 . S
C1073 N1072 1.346 . S
C1073 C1074 1.396 . S
C1073 C1083 1.510 . S
C1074 C1070 1.401 . S
C1074 C1073 1.396 . S
C1075 C1070 1.499 . S
C1075 H1076 0.959 . S
C1075 H1077 0.960 . S
C1075 H1078 0.961 . S
H1076 C1075 0.959 . S
H1077 C1075 0.960 . S
H1078 C1075 0.961 . S
O1079 Co1054 1.967 . S
O1079 C1087 1.258 . S
O1080 Co1055 1.941 . S
O1080 C1087 1.266 . S
H1081 C1083 0.959 . S
H1082 C1083 0.961 . S
C1083 C1073 1.510 . S
C1083 H1081 0.959 . S
C1083 H1082 0.961 . S
C1083 H1084 0.960 . S
H1084 C1083 0.960 . S
H1085 N1065 0.862 . S
O1086 Co1054 1.920 . S
O1086 C1059 1.289 . S
C1087 O1079 1.258 . S
C1087 O1080 1.266 . S
C20 C156 2.395 1_564 S
C1006 C54 2.395 1_556 S
C496 C88 2.395 . S
C122 C802 2.395 1_565 S
C870 C190 2.395 1_554 S
C224 C360 2.395 . S
C666 C258 2.395 1_565 S
C428 C292 2.395 . S
C326 C734 2.395 . S
C394 C1074 2.395 . S
C462 C598 2.395 . S
C938 C530 2.395 . S
C700 C564 2.395 1_445 S
C1040 C632 2.395 1_455 S
C768 C904 2.395 1_455 S
C972 C836 2.395 1_456 S
C33 C101 1.588 . S
C67 C135 1.589 . S
C237 C169 1.588 . S
C271 C203 1.589 . S
C373 C305 1.588 . S
C339 C407 1.589 . S
C441 C509 1.588 . S
C475 C543 1.589 . S
C645 C577 1.588 . S
C611 C679 1.589 . S
C713 C781 1.588 . S
C747 C815 1.589 . S
C849 C917 1.588 . S
C951 C883 1.589 . S
C985 C1053 1.588 . S
C1087 C1019 1.589 . S
C5 C39 1.824 . S
C107 C73 1.824 . S
C175 C141 1.824 . S
C209 C243 1.824 . S
C277 C311 1.824 . S
C345 C379 1.824 . S
C447 C413 1.824 . S
C515 C481 1.824 . S
C583 C549 1.824 . S
C617 C651 1.824 . S
C719 C685 1.824 . S
C753 C787 1.824 . S
C821 C855 1.824 . S
C923 C889 1.824 . S
C957 C991 1.824 . S
C1025 C1059 1.824 . S
C9 C172 2.850 1_545 S
C954 C43 2.850 . S
C512 C77 2.850 . S
C111 C750 2.850 1_545 S
C36 C145 2.850 1_545 S
C179 C818 2.850 . S
C213 C376 2.850 . S
C614 C247 2.850 1_545 S
C281 C444 2.850 . S
C315 C682 2.850 . S
C349 C240 2.850 . S
C1022 C383 2.850 . S
C417 C308 2.850 . S
C451 C546 2.850 . S
C485 C104 2.850 . S
C886 C519 2.850 . S
C716 C553 2.850 1_565 S
C587 C410 2.850 . S
C621 C1056 2.850 . S
C655 C206 2.850 1_545 S
C689 C580 2.850 1_565 S
C723 C274 2.850 . S
C920 C757 2.850 . S
C70 C791 2.850 1_545 S
C825 C988 2.850 . S
C859 C138 2.850 . S
C893 C784 2.850 . S
C478 C927 2.850 . S
C961 C852 2.850 . S
C2 C995 2.850 . S
C648 C1029 2.850 . S
C342 C1063 2.850 . S
