# Generated by pormake.
# Topology lcy-e, (6)-cn, num edge types: 1
# Building blocks:
#     Node 0, Type 0, BuildingBlock: OJICUG_clean_sbu_0, # of connection points: 6
#     Node 1, Type 0, BuildingBlock: OJICUG_clean_sbu_0, # of connection points: 6
#     Node 2, Type 0, BuildingBlock: OJICUG_clean_sbu_0, # of connection points: 6
#     Node 3, Type 0, BuildingBlock: OJICUG_clean_sbu_0, # of connection points: 6
#     Node 4, Type 0, BuildingBlock: OJICUG_clean_sbu_0, # of connection points: 6
#     Node 5, Type 0, BuildingBlock: OJICUG_clean_sbu_0, # of connection points: 6
#     Node 6, Type 0, BuildingBlock: OJICUG_clean_sbu_0, # of connection points: 6
#     Node 7, Type 0, BuildingBlock: OJICUG_clean_sbu_0, # of connection points: 6
#     Node 8, Type 0, BuildingBlock: OJICUG_clean_sbu_0, # of connection points: 6
#     Node 9, Type 0, BuildingBlock: OJICUG_clean_sbu_0, # of connection points: 6
#     Node 10, Type 0, BuildingBlock: OJICUG_clean_sbu_0, # of connection points: 6
#     Node 11, Type 0, BuildingBlock: OJICUG_clean_sbu_0, # of connection points: 6
#     Edge 12, Type (0, 0), BuildingBlock: ZUJKAS_clean_linker_0, # of connection points: 2
#     Edge 13, Type (0, 0), BuildingBlock: ZUJKAS_clean_linker_0, # of connection points: 2
#     Edge 14, Type (0, 0), BuildingBlock: ZUJKAS_clean_linker_0, # of connection points: 2
#     Edge 15, Type (0, 0), BuildingBlock: ZUJKAS_clean_linker_0, # of connection points: 2
#     Edge 16, Type (0, 0), BuildingBlock: ZUJKAS_clean_linker_0, # of connection points: 2
#     Edge 17, Type (0, 0), BuildingBlock: ZUJKAS_clean_linker_0, # of connection points: 2
#     Edge 18, Type (0, 0), BuildingBlock: ZUJKAS_clean_linker_0, # of connection points: 2
#     Edge 19, Type (0, 0), BuildingBlock: ZUJKAS_clean_linker_0, # of connection points: 2
#     Edge 20, Type (0, 0), BuildingBlock: ZUJKAS_clean_linker_0, # of connection points: 2
#     Edge 21, Type (0, 0), BuildingBlock: ZUJKAS_clean_linker_0, # of connection points: 2
#     Edge 22, Type (0, 0), BuildingBlock: ZUJKAS_clean_linker_0, # of connection points: 2
#     Edge 23, Type (0, 0), BuildingBlock: ZUJKAS_clean_linker_0, # of connection points: 2
#     Edge 24, Type (0, 0), BuildingBlock: ZUJKAS_clean_linker_0, # of connection points: 2
#     Edge 25, Type (0, 0), BuildingBlock: ZUJKAS_clean_linker_0, # of connection points: 2
#     Edge 26, Type (0, 0), BuildingBlock: ZUJKAS_clean_linker_0, # of connection points: 2
#     Edge 27, Type (0, 0), BuildingBlock: ZUJKAS_clean_linker_0, # of connection points: 2
#     Edge 28, Type (0, 0), BuildingBlock: ZUJKAS_clean_linker_0, # of connection points: 2
#     Edge 29, Type (0, 0), BuildingBlock: ZUJKAS_clean_linker_0, # of connection points: 2
#     Edge 30, Type (0, 0), BuildingBlock: ZUJKAS_clean_linker_0, # of connection points: 2
#     Edge 31, Type (0, 0), BuildingBlock: ZUJKAS_clean_linker_0, # of connection points: 2
#     Edge 32, Type (0, 0), BuildingBlock: ZUJKAS_clean_linker_0, # of connection points: 2
#     Edge 33, Type (0, 0), BuildingBlock: ZUJKAS_clean_linker_0, # of connection points: 2
#     Edge 34, Type (0, 0), BuildingBlock: ZUJKAS_clean_linker_0, # of connection points: 2
#     Edge 35, Type (0, 0), BuildingBlock: ZUJKAS_clean_linker_0, # of connection points: 2
#     Edge 36, Type (0, 0), BuildingBlock: ZUJKAS_clean_linker_0, # of connection points: 2
#     Edge 37, Type (0, 0), BuildingBlock: ZUJKAS_clean_linker_0, # of connection points: 2
#     Edge 38, Type (0, 0), BuildingBlock: ZUJKAS_clean_linker_0, # of connection points: 2
#     Edge 39, Type (0, 0), BuildingBlock: ZUJKAS_clean_linker_0, # of connection points: 2
#     Edge 40, Type (0, 0), BuildingBlock: ZUJKAS_clean_linker_0, # of connection points: 2
#     Edge 41, Type (0, 0), BuildingBlock: ZUJKAS_clean_linker_0, # of connection points: 2
#     Edge 42, Type (0, 0), BuildingBlock: ZUJKAS_clean_linker_0, # of connection points: 2
#     Edge 43, Type (0, 0), BuildingBlock: ZUJKAS_clean_linker_0, # of connection points: 2
#     Edge 44, Type (0, 0), BuildingBlock: ZUJKAS_clean_linker_0, # of connection points: 2
#     Edge 45, Type (0, 0), BuildingBlock: ZUJKAS_clean_linker_0, # of connection points: 2
#     Edge 46, Type (0, 0), BuildingBlock: ZUJKAS_clean_linker_0, # of connection points: 2
#     Edge 47, Type (0, 0), BuildingBlock: ZUJKAS_clean_linker_0, # of connection points: 2
# Relax obj value: 0.285
# Max RMSD: 0.291
# Mean RMSD: 0.291
data_MOF--net-lcy-e--node1-OJICUG_clean_sbu_0--edge1-ZUJKAS_clean_linker_0
_symmetry_space_group_name_H-M    P1
_symmetry_Int_Tables_number       1
_symmetry_cell_setting            triclinic
loop_
_symmetry_equiv_pos_as_xyz
'x, y, z'
_cell_length_a     47.225553
_cell_length_b     47.206435
_cell_length_c     47.269415
_cell_angle_alpha  89.95241
_cell_angle_beta   89.842614
_cell_angle_gamma 89.953106
loop_
_atom_site_label
_atom_site_type_symbol
_atom_site_fract_x
_atom_site_fract_y
_atom_site_fract_z
_atom_type_partial_charge
Sc0 Sc 0.14839 0.16457 0.41779 0.0
Sc1 Sc 0.16796 0.20673 0.4737 0.0
Sc2 Sc 0.10664 0.22208 0.43589 0.0
O3 O 0.14056 0.19781 0.44305 0.0
C4 C 0.13582 0.21393 0.37637 0.0
C5 C 0.20928 0.18677 0.42688 0.0
C6 C 0.15231 0.26853 0.45035 0.0
C7 C 0.15725 0.13977 0.47758 0.0
C8 C 0.08173 0.16333 0.42113 0.0
C9 C 0.10955 0.21928 0.50358 0.0
O10 O 0.15288 0.19424 0.38353 0.0
O11 O 0.20221 0.20671 0.44335 0.0
O12 O 0.13104 0.26073 0.43585 0.0
O13 O 0.14453 0.13729 0.4539 0.0
O14 O 0.07968 0.1854 0.43629 0.0
O15 O 0.13462 0.20935 0.50476 0.0
O16 O 0.10435 0.15719 0.40789 0.0
O17 O 0.17155 0.16181 0.48429 0.0
O18 O 0.09775 0.22661 0.48047 0.0
O19 O 0.19362 0.1653 0.42359 0.0
O20 O 0.11336 0.2195 0.39045 0.0
O21 O 0.16599 0.25171 0.46635 0.0
Sc22 Sc 0.07672 0.85219 0.65869 0.0
Sc23 Sc 0.01149 0.83347 0.6847 0.0
Sc24 Sc 0.05027 0.88649 0.71808 0.0
O25 O 0.04584 0.85808 0.68728 0.0
C26 C 0.10949 0.85307 0.71582 0.0
C27 C 0.05929 0.79134 0.67205 0.0
C28 C 0.01813 0.8382 0.75137 0.0
C29 C 0.02381 0.85187 0.62167 0.0
C30 C 0.08201 0.91824 0.66923 0.0
C31 C 0.98524 0.89314 0.69828 0.0
O32 O 0.10519 0.84057 0.69227 0.0
O33 O 0.03888 0.79703 0.68854 0.0
O34 O 0.03756 0.85686 0.75092 0.0
O35 O 0.04716 0.8644 0.62644 0.0
O36 O 0.06319 0.91915 0.6885 0.0
O37 O 0.98395 0.8701 0.6841 0.0
O38 O 0.09184 0.89502 0.65996 0.0
O39 O 0.01323 0.83383 0.63879 0.0
O40 O 0.00697 0.90051 0.71259 0.0
O41 O 0.06589 0.8083 0.65236 0.0
O42 O 0.09363 0.87297 0.72524 0.0
O43 O 0.00542 0.83018 0.72922 0.0
Sc44 Sc 0.4206 0.75598 0.91508 0.0
Sc45 Sc 0.37283 0.79455 0.95557 0.0
Sc46 Sc 0.39265 0.8185 0.88974 0.0
O47 O 0.39545 0.78948 0.92054 0.0
C48 C 0.45581 0.80524 0.8904 0.0
C49 C 0.42992 0.77143 0.98015 0.0
C50 C 0.398 0.85605 0.9422 0.0
C51 C 0.36835 0.72773 0.94461 0.0
C52 C 0.38662 0.76174 0.85812 0.0
C53 C 0.3306 0.81508 0.91009 0.0
O54 O 0.4551 0.7851 0.90814 0.0
O55 O 0.4098 0.7894 0.98207 0.0
O56 O 0.40899 0.84993 0.91829 0.0
O57 O 0.38673 0.72645 0.92478 0.0
O58 O 0.3755 0.78579 0.86328 0.0
O59 O 0.33511 0.79772 0.93008 0.0
O60 O 0.40908 0.75325 0.87058 0.0
O61 O 0.36381 0.75015 0.95888 0.0
O62 O 0.35015 0.83098 0.90079 0.0
O63 O 0.43385 0.75593 0.95847 0.0
O64 O 0.43481 0.80981 0.87441 0.0
O65 O 0.38034 0.84 0.95504 0.0
Sc66 Sc 0.41664 0.11931 0.14447 0.0
Sc67 Sc 0.4796 0.14005 0.17406 0.0
Sc68 Sc 0.4361 0.09248 0.20919 0.0
O69 O 0.44434 0.11733 0.17637 0.0
C70 C 0.37874 0.12557 0.19701 0.0
C71 C 0.4351 0.18094 0.14995 0.0
C72 C 0.46268 0.14497 0.23954 0.0
C73 C 0.47375 0.11121 0.11419 0.0
C74 C 0.41465 0.05629 0.1594 0.0
C75 C 0.50251 0.08335 0.19956 0.0
O76 O 0.38641 0.13698 0.17373 0.0
O77 O 0.45359 0.17727 0.16901 0.0
O78 O 0.44299 0.12646 0.23913 0.0
O79 O 0.44891 0.10115 0.11772 0.0
O80 O 0.43155 0.0576 0.18015 0.0
O81 O 0.50572 0.10311 0.18138 0.0
O82 O 0.39987 0.07757 0.15241 0.0
O83 O 0.483 0.13202 0.1288 0.0
O84 O 0.47953 0.07952 0.21319 0.0
O85 O 0.42983 0.16137 0.1324 0.0
O86 O 0.39147 0.10412 0.20765 0.0
O87 O 0.47906 0.14949 0.21855 0.0
Sc88 Sc 0.63402 0.29245 0.51886 0.0
Sc89 Sc 0.58024 0.25707 0.55704 0.0
Sc90 Sc 0.60293 0.32516 0.57794 0.0
O91 O 0.60568 0.29152 0.55125 0.0
C92 C 0.66955 0.32052 0.56861 0.0
C93 C 0.63867 0.22817 0.53875 0.0
C94 C 0.59834 0.27244 0.62007 0.0
C95 C 0.57961 0.26428 0.48998 0.0
C96 C 0.6108 0.356 0.51866 0.0
C97 C 0.53808 0.30792 0.57115 0.0
O98 O 0.66837 0.30585 0.54608 0.0
O99 O 0.61458 0.22702 0.55085 0.0
O100 O 0.60472 0.29811 0.61485 0.0
O101 O 0.60262 0.27834 0.48847 0.0
O102 O 0.60122 0.35551 0.54382 0.0
O103 O 0.5425 0.28246 0.56358 0.0
O104 O 0.62365 0.33515 0.50754 0.0
O105 O 0.56945 0.25524 0.5132 0.0
O106 O 0.55785 0.32495 0.57732 0.0
O107 O 0.64778 0.2502 0.52641 0.0
O108 O 0.64774 0.3296 0.58139 0.0
O109 O 0.58875 0.25562 0.60145 0.0
Sc110 Sc 0.95768 0.40152 0.75946 0.0
Sc111 Sc 0.98545 0.35705 0.81084 0.0
Sc112 Sc 0.9191 0.38715 0.81963 0.0
O113 O 0.95397 0.38119 0.79636 0.0
C114 C 0.9311 0.44797 0.79706 0.0
C115 C 0.01968 0.40683 0.78388 0.0
C116 C 0.96612 0.39191 0.86509 0.0
C117 C 0.98275 0.34252 0.74439 0.0
C118 C 0.89355 0.3806 0.76012 0.0
C119 C 0.93411 0.32228 0.83218 0.0
O120 O 0.95183 0.44112 0.78136 0.0
O121 O 0.0154 0.39132 0.80543 0.0
O122 O 0.94458 0.40349 0.85375 0.0
O123 O 0.96557 0.36231 0.73786 0.0
O124 O 0.89383 0.37122 0.78539 0.0
O125 O 0.95716 0.32202 0.81817 0.0
O126 O 0.91292 0.39674 0.75036 0.0
O127 O 0.99386 0.34025 0.76891 0.0
O128 O 0.92051 0.345 0.83729 0.0
O129 O 0.00244 0.40839 0.7634 0.0
O130 O 0.91267 0.42999 0.80483 0.0
O131 O 0.97966 0.37147 0.8538 0.0
Sc132 Sc 0.87687 0.72232 0.05719 0.0
Sc133 Sc 0.82915 0.68671 0.01387 0.0
Sc134 Sc 0.85227 0.65591 0.07557 0.0
O135 O 0.85317 0.68862 0.04858 0.0
C136 C 0.91577 0.67495 0.08082 0.0
C137 C 0.88552 0.7134 0.99046 0.0
C138 C 0.85862 0.6267 0.01786 0.0
C139 C 0.82218 0.75111 0.032 0.0
C140 C 0.84596 0.70722 0.11549 0.0
C141 C 0.79026 0.66122 0.05937 0.0
O142 O 0.91345 0.69558 0.06373 0.0
O143 O 0.86512 0.69601 0.98686 0.0
O144 O 0.86966 0.63007 0.04222 0.0
O145 O 0.84187 0.75142 0.05037 0.0
O146 O 0.83529 0.6837 0.10756 0.0
O147 O 0.79277 0.68039 0.04079 0.0
O148 O 0.86496 0.72053 0.1015 0.0
O149 O 0.81783 0.73043 0.01546 0.0
O150 O 0.81018 0.64369 0.06311 0.0
O151 O 0.89016 0.726 0.01384 0.0
O152 O 0.89435 0.66284 0.09163 0.0
O153 O 0.83798 0.64181 0.00909 0.0
Sc154 Sc 0.50536 0.66826 0.28905 0.0
Sc155 Sc 0.55923 0.61915 0.27535 0.0
Sc156 Sc 0.56269 0.66253 0.33516 0.0
O157 O 0.54217 0.64967 0.29997 0.0
C158 C 0.54095 0.72056 0.31007 0.0
C159 C 0.5376 0.66298 0.2299 0.0
C160 C 0.6129 0.65627 0.29221 0.0
C161 C 0.49297 0.60484 0.27217 0.0
C162 C 0.49958 0.66033 0.35623 0.0
C163 C 0.57255 0.59549 0.33576 0.0
O164 O 0.52452 0.70949 0.29203 0.0
O165 O 0.55627 0.64523 0.2378 0.0
O166 O 0.60047 0.67121 0.31086 0.0
O167 O 0.48428 0.62808 0.28283 0.0
O168 O 0.52566 0.6551 0.36055 0.0
O169 O 0.5634 0.59109 0.31089 0.0
O170 O 0.49002 0.66816 0.33226 0.0
O171 O 0.51893 0.6 0.26688 0.0
O172 O 0.57643 0.62023 0.34563 0.0
O173 O 0.51691 0.67056 0.24536 0.0
O174 O 0.55187 0.7065 0.33015 0.0
O175 O 0.60167 0.63462 0.28089 0.0
Sc176 Sc 0.23272 0.43429 0.0978 0.0
Sc177 Sc 0.21173 0.48271 0.14938 0.0
Sc178 Sc 0.16995 0.42468 0.13435 0.0
O179 O 0.20502 0.44756 0.12703 0.0
C180 C 0.17565 0.42053 0.06872 0.0
C181 C 0.23385 0.5015 0.08925 0.0
C182 C 0.14615 0.48584 0.13208 0.0
C183 C 0.27327 0.45442 0.14641 0.0
C184 C 0.21604 0.37834 0.13155 0.0
C185 C 0.18542 0.44346 0.19544 0.0
O186 O 0.19909 0.43354 0.06707 0.0
O187 O 0.22014 0.50769 0.11172 0.0
O188 O 0.14448 0.46056 0.12271 0.0
O189 O 0.26798 0.43641 0.12704 0.0
O190 O 0.19638 0.38947 0.14634 0.0
O191 O 0.20607 0.45899 0.1881 0.0
O192 O 0.22652 0.39026 0.10964 0.0
O193 O 0.25582 0.47341 0.15425 0.0
O194 O 0.1662 0.43661 0.17813 0.0
O195 O 0.24155 0.47638 0.08333 0.0
O196 O 0.1674 0.40906 0.09158 0.0
O197 O 0.16739 0.4949 0.14616 0.0
Sc198 Sc 0.69288 0.02618 0.85554 0.0
Sc199 Sc 0.74454 0.02836 0.90772 0.0
Sc200 Sc 0.69076 0.07762 0.90744 0.0
O201 O 0.70999 0.04438 0.8895 0.0
C202 C 0.68141 0.08914 0.84186 0.0
C203 C 0.76007 0.02167 0.84384 0.0
C204 C 0.75352 0.09557 0.90892 0.0
C205 C 0.71092 0.97288 0.89041 0.0
C206 C 0.64013 0.03779 0.89532 0.0
C207 C 0.70786 0.04319 0.96016 0.0
O208 O 0.69256 0.06607 0.83346 0.0
O209 O 0.76772 0.02963 0.86845 0.0
O210 O 0.72845 0.1019 0.90122 0.0
O211 O 0.69165 0.98543 0.87646 0.0
O212 O 0.65352 0.05191 0.91395 0.0
O213 O 0.72095 0.0239 0.94682 0.0
O214 O 0.6501 0.03324 0.87063 0.0
O215 O 0.73298 0.98522 0.89945 0.0
O216 O 0.70475 0.06764 0.94962 0.0
O217 O 0.7342 0.01735 0.8373 0.0
O218 O 0.67494 0.09345 0.86765 0.0
O219 O 0.76046 0.07069 0.91715 0.0
Sc220 Sc 0.82456 0.91327 0.36338 0.0
Sc221 Sc 0.75931 0.9321 0.38962 0.0
Sc222 Sc 0.7944 0.97608 0.34243 0.0
O223 O 0.79284 0.9412 0.36578 0.0
C224 C 0.85649 0.96957 0.36939 0.0
C225 C 0.8073 0.91036 0.42713 0.0
C226 C 0.76587 -0.00091 0.39751 0.0
C227 C 0.77181 0.8759 0.35731 0.0
C228 C 0.82009 0.9318 0.30169 0.0
C229 C 0.7307 0.95555 0.33483 0.0
O230 O 0.85277 0.9449 0.37993 0.0
O231 O 0.78715 0.92809 0.42535 0.0
O232 O 0.78502 0.00245 0.37871 0.0
O233 O 0.7948 0.88372 0.34552 0.0
O234 O 0.80094 0.95024 0.30533 0.0
O235 O 0.73094 0.93667 0.35412 0.0
O236 O 0.83711 0.92595 0.32146 0.0
O237 O 0.76288 0.88729 0.38009 0.0
O238 O 0.75041 0.97364 0.33149 0.0
O239 O 0.81678 0.89725 0.40561 0.0
O240 O 0.83929 0.98083 0.35172 0.0
O241 O 0.75294 0.9757 0.40124 0.0
Sc242 Sc 0.31181 0.55828 0.64291 0.0
Sc243 Sc 0.25053 0.57167 0.60501 0.0
Sc244 Sc 0.2558 0.51235 0.64829 0.0
O245 O 0.27278 0.54704 0.63118 0.0
C246 C 0.31931 0.49441 0.63308 0.0
C247 C 0.30995 0.57899 0.57861 0.0
C248 C 0.2357 0.50811 0.58546 0.0
C249 C 0.27839 0.61468 0.64824 0.0
C250 C 0.28673 0.53773 0.69969 0.0
C251 C 0.20359 0.55456 0.64856 0.0
O252 O 0.3277 0.51915 0.62616 0.0
O253 O 0.28435 0.57183 0.57448 0.0
O254 O 0.24659 0.49611 0.60702 0.0
O255 O 0.2944 0.59665 0.66035 0.0
O256 O 0.26308 0.52978 0.68987 0.0
O257 O 0.21566 0.57409 0.63458 0.0
O258 O 0.30856 0.53858 0.68405 0.0
O259 O 0.26665 0.61008 0.62439 0.0
O260 O 0.21396 0.52993 0.65143 0.0
O261 O 0.32106 0.579 0.60312 0.0
O262 O 0.29616 0.4901 0.64647 0.0
O263 O 0.2328 0.53498 0.58334 0.0
H264 H 0.1228 0.31449 0.42987 0.0
H265 H 0.13475 0.36467 0.43629 0.0
H266 H 0.21273 0.34057 0.47712 0.0
H267 H 0.20131 0.29094 0.47055 0.0
H268 H 0.14038 0.38805 0.48853 0.0
H269 H 0.23924 0.40614 0.4294 0.0
H270 H 0.21612 0.3766 0.42191 0.0
H271 H 0.24218 0.37418 0.44964 0.0
C272 C 0.1428 0.31994 0.4396 0.0
C273 C 0.16092 0.2987 0.45006 0.0
C274 C 0.1496 0.3486 0.4432 0.0
C275 C 0.1748 0.35638 0.45686 0.0
C276 C 0.19351 0.33516 0.4659 0.0
H277 H 0.24761 0.45222 0.57716 0.0
H278 H 0.23051 0.42142 0.53959 0.0
C279 C 0.18673 0.30669 0.46245 0.0
C280 C 0.17997 0.38598 0.46585 0.0
H281 H 0.23434 0.43276 0.47412 0.0
C282 C 0.16047 0.39846 0.48456 0.0
C283 C 0.20609 0.39965 0.46053 0.0
C284 C 0.22692 0.38853 0.439 0.0
C285 C 0.16772 0.42251 0.50038 0.0
C286 C 0.19503 0.43425 0.49727 0.0
C287 C 0.21348 0.42346 0.47663 0.0
C288 C 0.20639 0.45411 0.51848 0.0
C289 C 0.14717 0.43373 0.52215 0.0
C290 C 0.1986 0.48277 0.51882 0.0
C291 C 0.20841 0.50059 0.54035 0.0
C292 C 0.22594 0.48986 0.56193 0.0
C293 C 0.23396 0.46118 0.56109 0.0
C294 C 0.22436 0.44355 0.53953 0.0
H295 H 0.12659 0.42236 0.52175 0.0
H296 H 0.15646 0.43163 0.54361 0.0
H297 H 0.14323 0.45659 0.5183 0.0
H298 H 0.18471 0.49121 0.50267 0.0
H299 H 0.20187 0.52258 0.54036 0.0
H300 H 0.75275 0.00869 0.78781 0.0
H301 H 0.78839 0.99068 0.75473 0.0
H302 H 0.85279 0.00013 0.81841 0.0
H303 H 0.81747 0.01825 0.85173 0.0
H304 H 0.84835 0.01561 0.73826 0.0
H305 H 0.84499 0.91166 0.79387 0.0
H306 H 0.81622 0.93685 0.79566 0.0
H307 H 0.84789 0.94278 0.81567 0.0
C308 C 0.77456 0.00737 0.79472 0.0
C309 C 0.78216 0.01466 0.82259 0.0
C310 C 0.79487 0.99715 0.77572 0.0
C311 C 0.82305 0.99393 0.78429 0.0
C312 C 0.83104 0.00243 0.81154 0.0
H313 H 0.98206 0.94801 0.71612 0.0
H314 H 0.93969 0.9736 0.7308 0.0
C315 C 0.81081 0.01281 0.83051 0.0
C316 C 0.84369 0.9795 0.76571 0.0
H317 H 0.8806 0.91775 0.75922 0.0
C318 C 0.8553 0.99414 0.7426 0.0
C319 C 0.85223 0.95137 0.77123 0.0
C320 C 0.83963 0.93453 0.79532 0.0
C321 C 0.87626 0.98163 0.7255 0.0
C322 C 0.88579 0.95394 0.7319 0.0
C323 C 0.87323 0.93896 0.7543 0.0
C324 C 0.91051 0.9409 0.7176 0.0
C325 C 0.8882 -0.00181 0.70094 0.0
C326 C 0.90818 0.91418 0.70477 0.0
C327 C 0.93247 0.89937 0.69637 0.0
C328 C 0.9595 0.9109 0.70111 0.0
C329 C 0.96158 0.93843 0.71231 0.0
C330 C 0.93733 0.95324 0.72052 0.0
H331 H 0.87313 0.0147 0.69359 0.0
H332 H 0.90791 0.00898 0.70773 0.0
H333 H 0.89346 0.98404 0.68291 0.0
H334 H 0.88765 0.90422 0.7025 0.0
H335 H 0.93011 0.8782 0.68787 0.0
H336 H 0.32761 0.72442 0.98521 0.0
H337 H 0.30203 0.68308 0.00133 0.0
H338 H 0.34395 0.63195 0.93827 0.0
H339 H 0.37064 0.67366 0.92209 0.0
H340 H 0.26544 0.64683 0.97503 0.0
H341 H 0.36245 0.59077 0.01194 0.0
H342 H 0.36289 0.62754 0.00155 0.0
H343 H 0.36152 0.60025 0.97513 0.0
C344 C 0.33156 0.7045 0.97455 0.0
C345 C 0.3516 0.70237 0.95253 0.0
C346 C 0.31668 0.68085 0.98379 0.0
C347 C 0.32132 0.6544 0.97128 0.0
C348 C 0.34046 0.65215 0.94855 0.0
H349 H 0.25751 0.49465 0.03706 0.0
H350 H 0.27597 0.53096 0.00556 0.0
C351 C 0.3556 0.67598 0.93927 0.0
C352 C 0.30678 0.62941 0.98343 0.0
H353 H 0.31872 0.56969 0.02234 0.0
C354 C 0.27706 0.62975 0.98509 0.0
C355 C 0.32203 0.6073 -0.00331 0.0
C356 C 0.35398 0.60638 0.99652 0.0
C357 C 0.26221 0.60896 0.00029 0.0
C358 C 0.27753 0.58744 0.01426 0.0
C359 C 0.30712 0.58641 0.01167 0.0
C360 C 0.26349 0.56598 0.03223 0.0
C361 C 0.23033 0.61027 0.00154 0.0
C362 C 0.25003 0.57374 0.05761 0.0
C363 C 0.23944 0.55294 0.07594 0.0
C364 C 0.24236 0.52409 0.06916 0.0
C365 C 0.25507 0.51662 0.0432 0.0
C366 C 0.26562 0.53733 0.02503 0.0
H367 H 0.22151 0.62392 0.98454 0.0
H368 H 0.22102 0.58876 -0.00031 0.0
H369 H 0.22372 0.61924 0.02223 0.0
H370 H 0.24857 0.59582 0.06368 0.0
H371 H 0.22983 0.55941 0.09574 0.0
H372 H 0.5055 0.04536 0.24274 0.0
H373 H 0.54527 0.01582 0.25619 0.0
H374 H 0.59322 0.04695 0.18487 0.0
H375 H 0.55337 0.07751 0.17141 0.0
H376 H 0.57574 0.97349 0.23026 0.0
H377 H 0.64233 0.06832 0.25201 0.0
H378 H 0.60493 0.07095 0.24502 0.0
H379 H 0.62945 0.06524 0.21644 0.0
C380 C 0.52438 0.04595 0.22969 0.0
C381 C 0.5264 0.06421 0.20621 0.0
C382 C 0.54707 0.02884 0.23738 0.0
C383 C 0.57227 0.02945 0.22176 0.0
C384 C 0.57405 0.04659 0.19749 0.0
H385 H 0.73435 0.96807 0.27937 0.0
H386 H 0.69564 0.97964 0.24737 0.0
C387 C 0.55132 0.06403 0.18985 0.0
C388 C 0.59707 0.01379 0.23262 0.0
H389 H 0.66154 0.02407 0.26305 0.0
C390 C 0.59471 0.98443 0.23711 0.0
C391 C 0.62159 0.02822 0.24179 0.0
C392 C 0.62478 0.05993 0.23884 0.0
C393 C 0.6161 0.9692 0.25104 0.0
C394 C 0.64023 0.98383 0.26075 0.0
C395 C 0.64297 0.01295 0.25542 0.0
C396 C 0.66261 0.9701 0.27768 0.0
C397 C 0.61264 0.93775 0.2555 0.0
C398 C 0.65674 0.95979 0.305 0.0
C399 C 0.67894 0.95297 0.32338 0.0
C400 C 0.70708 0.95698 0.31469 0.0
C401 C 0.71276 0.96532 0.28671 0.0
C402 C 0.69072 0.97176 0.26836 0.0
H403 H 0.5971 0.92855 0.24048 0.0
H404 H 0.63319 0.92656 0.25301 0.0
H405 H 0.6048 0.93386 0.27731 0.0
H406 H 0.63516 0.9588 0.31272 0.0
H407 H 0.67413 0.94653 0.34487 0.0
H408 H 0.62171 0.1726 0.53831 0.0
H409 H 0.65016 0.13213 0.52234 0.0
H410 H 0.72388 0.18573 0.51694 0.0
H411 H 0.69575 0.2261 0.53273 0.0
H412 H 0.70699 0.16005 0.4655 0.0
H413 H 0.71592 0.08168 0.55271 0.0
H414 H 0.68096 0.09566 0.54694 0.0
H415 H 0.70864 0.11878 0.55885 0.0
C416 C 0.64418 0.17549 0.5347 0.0
C417 C 0.65643 0.20254 0.53635 0.0
C418 C 0.66042 0.15237 0.52561 0.0
C419 C 0.68909 0.15604 0.51845 0.0
C420 C 0.7018 0.18252 0.52235 0.0
H421 H 0.79444 0.04898 0.40726 0.0
H422 H 0.77972 0.08787 0.43849 0.0
C423 C 0.68565 0.20554 0.53131 0.0
C424 C 0.70452 0.13382 0.5027 0.0
H425 H 0.72784 0.06559 0.50638 0.0
C426 C 0.71194 0.13949 0.47449 0.0
C427 C 0.71077 0.10713 0.51457 0.0
C428 C 0.7039 0.1004 0.54501 0.0
C429 C 0.72435 0.11869 0.45734 0.0
C430 C 0.73014 0.09171 0.469 0.0
C431 C 0.72349 0.08634 0.49753 0.0
C432 C 0.74039 0.06797 0.45127 0.0
C433 C 0.72976 0.12536 0.42655 0.0
C434 C 0.72355 0.04372 0.44871 0.0
C435 C 0.732 0.02152 0.43127 0.0
C436 C 0.75749 0.02307 0.41585 0.0
C437 C 0.77455 0.0473 0.4186 0.0
C438 C 0.76615 0.06951 0.43639 0.0
H439 H 0.71837 0.14476 0.41962 0.0
H440 H 0.75275 0.12893 0.42325 0.0
H441 H 0.72313 0.10748 0.41284 0.0
H442 H 0.70356 0.04213 0.4599 0.0
H443 H 0.71825 0.00324 0.42965 0.0
H444 H 0.05634 0.41323 0.74066 0.0
H445 H 0.08789 0.4535 0.73277 0.0
H446 H 0.06705 0.48629 0.81537 0.0
H447 H 0.03573 0.4453 0.8237 0.0
H448 H 0.05613 0.51818 0.74958 0.0
H449 H 0.16325 0.48683 0.78677 0.0
H450 H 0.14165 0.45932 0.77158 0.0
H451 H 0.13107 0.47546 0.80429 0.0
C452 C 0.05937 0.42843 0.75755 0.0
C453 C 0.04398 0.42615 0.78285 0.0
C454 C 0.07719 0.45146 0.75299 0.0
C455 C 0.07957 0.47278 0.77345 0.0
C456 C 0.06549 0.46987 0.79946 0.0
H457 H 0.2012 0.58566 0.69641 0.0
H458 H 0.16627 0.57839 0.73429 0.0
C459 C 0.04791 0.44641 0.80426 0.0
C460 C 0.09435 0.49911 0.76554 0.0
H461 H 0.16104 0.52126 0.74969 0.0
C462 C 0.07904 0.51963 0.75046 0.0
C463 C 0.12408 0.50098 0.76698 0.0
C464 C 0.14112 0.47961 0.78343 0.0
C465 C 0.09302 0.54015 0.73413 0.0
C466 C 0.12289 0.53982 0.7328 0.0
C467 C 0.13809 0.52148 0.75064 0.0
C468 C 0.1384 0.55263 0.70876 0.0
C469 C 0.07577 0.56055 0.7167 0.0
C470 C 0.13355 0.54172 0.68155 0.0
C471 C 0.15356 0.54554 0.66016 0.0
C472 C 0.17841 0.56073 0.66555 0.0
C473 C 0.1818 0.57437 0.69172 0.0
C474 C 0.16198 0.5701 0.71337 0.0
H475 H 0.0553 0.56543 0.72727 0.0
H476 H 0.08745 0.58062 0.7129 0.0
H477 H 0.07097 0.55073 0.69593 0.0
H478 H 0.11586 0.52767 0.67767 0.0
H479 H 0.15094 0.53436 0.64033 0.0
H480 H 0.74516 0.92885 0.87884 0.0
H481 H 0.74948 0.88603 0.90746 0.0
H482 H 0.6746 0.90963 0.95439 0.0
H483 H 0.67002 0.95253 0.92523 0.0
H484 H 0.72547 0.9048 0.98683 0.0
H485 H 0.70896 0.8098 0.9205 0.0
H486 H 0.73034 0.83608 0.9032 0.0
H487 H 0.69404 0.84399 0.91178 0.0
C488 C 0.7288 0.92406 0.89424 0.0
C489 C 0.70709 0.94357 0.89969 0.0
C490 C 0.73129 0.89968 0.91065 0.0
C491 C 0.71231 0.89465 0.93298 0.0
C492 C 0.6893 0.91307 0.93709 0.0
H493 H 0.76543 0.74801 0.03002 0.0
H494 H 0.733 0.78442 0.01283 0.0
C495 C 0.68653 0.93734 0.92029 0.0
C496 C 0.71981 0.87318 0.95445 0.0
H497 H 0.74086 0.80444 0.96008 0.0
C498 C 0.72815 0.88265 0.98134 0.0
C499 C 0.72318 0.84438 0.94727 0.0
C500 C 0.71339 0.83288 0.91919 0.0
C501 C 0.74167 0.86439 0.0005 0.0
C502 C 0.74716 0.83614 0.99233 0.0
C503 C 0.73694 0.82622 0.96625 0.0
C504 C 0.76515 0.81684 0.00927 0.0
C505 C 0.75063 0.8757 0.02891 0.0
C506 C 0.79379 0.8234 0.01423 0.0
C507 C 0.81237 0.80263 0.02443 0.0
C508 C 0.80248 0.77506 0.02929 0.0
C509 C 0.77348 0.7692 0.02633 0.0
C510 C 0.75496 0.78992 0.01649 0.0
H511 H 0.73729 0.89396 0.03546 0.0
H512 H 0.7494 0.85905 0.04548 0.0
H513 H 0.77287 0.88315 0.02751 0.0
H514 H 0.80222 0.8439 0.0083 0.0
H515 H 0.83471 0.80744 0.02622 0.0
H516 H 0.43505 0.60936 0.2694 0.0
H517 H 0.40198 0.57469 0.24974 0.0
H518 H 0.47094 0.51652 0.2353 0.0
H519 H 0.50404 0.55066 0.25515 0.0
H520 H 0.40655 0.55421 0.19373 0.0
H521 H 0.40966 0.46634 0.27205 0.0
H522 H 0.42142 0.50178 0.28028 0.0
H523 H 0.4435 0.47866 0.25965 0.0
C524 C 0.44311 0.589 0.26256 0.0
C525 C 0.47223 0.5829 0.26372 0.0
C526 C 0.42421 0.56925 0.25127 0.0
C527 C 0.43404 0.54301 0.24123 0.0
C528 C 0.46287 0.53646 0.2433 0.0
H529 H 0.32593 0.45001 0.12227 0.0
H530 H 0.3705 0.46525 0.14443 0.0
C531 C 0.48178 0.55615 0.25451 0.0
C532 C 0.41453 0.52356 0.22645 0.0
H533 H 0.38361 0.4583 0.23012 0.0
C534 C 0.40162 0.53317 0.20155 0.0
C535 C 0.40838 0.49611 0.23673 0.0
C536 C 0.42125 0.48507 0.26375 0.0
C537 C 0.38205 0.51637 0.187 0.0
C538 C 0.37561 0.48898 0.19739 0.0
C539 C 0.38903 0.47909 0.22196 0.0
C540 C 0.35171 0.47257 0.18562 0.0
C541 C 0.36736 0.52866 0.16142 0.0
C542 C 0.32711 0.46976 0.20199 0.0
C543 C 0.30194 0.46107 0.18949 0.0
C544 C 0.301 0.45482 0.16046 0.0
C545 C 0.32623 0.45465 0.1447 0.0
C546 C 0.35155 0.46356 0.15727 0.0
H547 H 0.37162 0.55167 0.15887 0.0
H548 H 0.37495 0.51766 0.1421 0.0
H549 H 0.34411 0.52552 0.16298 0.0
H550 H 0.32681 0.47648 0.22391 0.0
H551 H 0.28272 0.46114 0.20209 0.0
H552 H 0.49259 0.19391 0.24381 0.0
H553 H 0.50778 0.21785 0.28675 0.0
H554 H 0.46089 0.15795 0.33729 0.0
H555 H 0.4454 0.1335 0.29409 0.0
H556 H 0.45976 0.22273 0.35281 0.0
H557 H 0.56592 0.17293 0.33997 0.0
H558 H 0.55095 0.18938 0.30909 0.0
H559 H 0.53444 0.15849 0.32387 0.0
C560 C 0.4852 0.18587 0.26399 0.0
C561 C 0.46816 0.16145 0.26556 0.0
C562 C 0.49387 0.19968 0.28848 0.0
C563 C 0.48574 0.18939 0.31503 0.0
C564 C 0.4674 0.16607 0.31684 0.0
H565 H 0.53035 0.2344 0.48555 0.0
H566 H 0.50655 0.21898 0.44278 0.0
C567 C 0.45859 0.15216 0.2922 0.0
C568 C 0.4984 0.20181 0.34067 0.0
H569 H 0.56101 0.20699 0.37605 0.0
C570 C 0.48183 0.21926 0.35807 0.0
C571 C 0.52726 0.19737 0.34712 0.0
C572 C 0.54576 0.17839 0.32921 0.0
C573 C 0.49359 0.23274 0.38177 0.0
C574 C 0.52246 0.2281 0.38838 0.0
C575 C 0.53895 0.21067 0.37084 0.0
C576 C 0.53576 0.23974 0.4142 0.0
C577 C 0.47514 0.2522 0.39918 0.0
C578 C 0.56045 0.25623 0.41238 0.0
C579 C 0.57448 0.2649 0.43694 0.0
C580 C 0.5641 0.25704 0.46373 0.0
C581 C 0.53902 0.24096 0.46534 0.0
C582 C 0.52513 0.23229 0.44087 0.0
H583 H 0.45699 0.26038 0.38668 0.0
H584 H 0.46643 0.24026 0.41746 0.0
H585 H 0.48742 0.27046 0.40741 0.0
H586 H 0.56911 0.26201 0.39193 0.0
H587 H 0.5937 0.27725 0.4349 0.0
H588 H 0.05979 0.24795 0.51076 0.0
H589 H 0.03632 0.25978 0.55515 0.0
H590 H 0.09934 0.21258 0.60129 0.0
H591 H 0.12351 0.20105 0.5569 0.0
H592 H 0.01344 0.2281 0.59924 0.0
H593 H 0.10587 0.29198 0.63449 0.0
H594 H 0.10258 0.27896 0.5988 0.0
H595 H 0.11333 0.25549 0.62674 0.0
C596 C 0.06862 0.23983 0.53028 0.0
C597 C 0.09383 0.22392 0.53029 0.0
C598 C 0.05508 0.24657 0.55564 0.0
C599 C 0.06639 0.23747 0.58148 0.0
C600 C 0.09065 0.2203 0.58156 0.0
H601 H 0.02028 0.29859 0.7493 0.0
H602 H 0.03842 0.26824 0.7116 0.0
C603 C 0.10438 0.2137 0.55618 0.0
C604 C 0.05364 0.24764 0.6082 0.0
H605 H 0.06641 0.29064 0.66467 0.0
C606 C 0.02506 0.24156 0.61373 0.0
C607 C 0.06888 0.26527 0.62694 0.0
C608 C 0.09928 0.27357 0.62144 0.0
C609 C 0.01114 0.25306 0.63734 0.0
C610 C 0.02621 0.27126 0.65561 0.0
C611 C 0.055 0.27656 0.65061 0.0
C612 C 0.01228 0.28674 0.67895 0.0
C613 C 0.98044 0.24587 0.64242 0.0
C614 C 0.99136 0.30699 0.67304 0.0
C615 C 0.98098 0.3245 0.6945 0.0
C616 C 0.99152 0.32216 0.72222 0.0
C617 C 0.01176 0.3011 0.7282 0.0
C618 C 0.02213 0.28365 0.70672 0.0
H619 H 0.9744 0.22584 0.6317 0.0
H620 H 0.97586 0.24385 0.66539 0.0
H621 H 0.96698 0.2631 0.6338 0.0
H622 H 0.98391 0.31008 0.65161 0.0
H623 H 0.96538 0.34043 0.68913 0.0
H624 H 0.97368 0.80259 0.75946 0.0
H625 H 0.95904 0.77907 0.80261 0.0
H626 H 0.02795 0.81816 0.84773 0.0
H627 H 0.04294 0.84243 0.80411 0.0
H628 H 0.98963 0.74115 0.83674 0.0
H629 H 0.95674 0.83876 0.89442 0.0
H630 H 0.96327 0.83862 0.85678 0.0
H631 H 0.99242 0.83776 0.88105 0.0
C632 C 0.9859 0.80636 0.77845 0.0
C633 C 0.00952 0.82456 0.77828 0.0
C634 C 0.97747 0.79274 0.80312 0.0
C635 C 0.99233 0.79693 0.82831 0.0
C636 C 0.01604 0.81491 0.82846 0.0
H637 H 0.93732 0.73828 0.99359 0.0
H638 H 0.96671 0.75531 0.95482 0.0
C639 C 0.02456 0.82874 0.80358 0.0
C640 C 0.98209 0.78264 0.8542 0.0
H641 H 0.94784 0.79518 0.91651 0.0
C642 C 0.9808 0.75291 0.85439 0.0
C643 C 0.97049 0.7981 0.87703 0.0
C644 C 0.97053 0.83008 0.87743 0.0
C645 C 0.96761 0.73821 0.8766 0.0
C646 C 0.95515 0.75373 0.89892 0.0
C647 C 0.95736 0.78339 0.89924 0.0
C648 C 0.93901 0.7399 0.92193 0.0
C649 C 0.96694 0.70627 0.87591 0.0
C650 C 0.91388 0.72506 0.91622 0.0
C651 C 0.89688 0.71519 0.93844 0.0
C652 C 0.90465 0.72038 0.96663 0.0
C653 C 0.93046 0.73424 0.97212 0.0
C654 C 0.94739 0.74394 0.95001 0.0
H655 H 0.98369 0.69754 0.86184 0.0
H656 H 0.96968 0.69727 0.89745 0.0
H657 H 0.94612 0.69918 0.8677 0.0
H658 H 0.90684 0.72214 0.89463 0.0
H659 H 0.87714 0.70463 0.93354 0.0
H660 H 0.55665 0.64007 0.17988 0.0
H661 H 0.55179 0.66139 0.13256 0.0
H662 H 0.51813 0.73752 0.17036 0.0
H663 H 0.52295 0.71661 0.21707 0.0
H664 H 0.49841 0.67625 0.11353 0.0
H665 H 0.56862 0.76968 0.10852 0.0
H666 H 0.57397 0.74115 0.13348 0.0
H667 H 0.54877 0.76884 0.1409 0.0
C668 C 0.54899 0.66162 0.17798 0.0
C669 C 0.53975 0.67657 0.20194 0.0
C670 C 0.54625 0.67376 0.15106 0.0
C671 C 0.53488 0.70114 0.14803 0.0
C672 C 0.52749 0.71664 0.17219 0.0
H673 H 0.42015 0.78194 0.03645 0.0
H674 H 0.44979 0.76656 0.07627 0.0
C675 C 0.52991 0.70449 0.19887 0.0
C676 C 0.52599 0.71197 0.1201 0.0
H677 H 0.52635 0.77165 0.07916 0.0
C678 C 0.50503 0.69679 0.10562 0.0
C679 C 0.53453 0.73886 0.10996 0.0
C680 C 0.55793 0.75543 0.12391 0.0
C681 C 0.49119 0.70853 0.08223 0.0
C682 C 0.49852 0.73608 0.07322 0.0
C683 C 0.5205 0.75071 0.08662 0.0
C684 C 0.48319 0.74966 0.04978 0.0
C685 C 0.46808 0.69192 0.0678 0.0
C686 C 0.49274 0.74585 0.02204 0.0
C687 C 0.4759 0.75436 -0.00057 0.0
C688 C 0.44924 0.76689 0.00423 0.0
C689 C 0.44056 0.77237 0.03214 0.0
C690 C 0.45742 0.76362 0.05483 0.0
H691 H 0.46594 0.67015 0.07649 0.0
H692 H 0.44756 0.70312 0.07041 0.0
H693 H 0.47252 0.69047 0.04476 0.0
H694 H 0.51259 0.73507 0.01789 0.0
H695 H 0.48334 0.7502 0.97813 0.0
H696 H 0.18867 0.22147 0.35334 0.0
H697 H 0.20493 0.2628 0.3265 0.0
H698 H 0.11932 0.29442 0.32322 0.0
H699 H 0.10289 0.25353 0.35018 0.0
H700 H 0.18958 0.2872 0.27382 0.0
H701 H 0.16347 0.35812 0.36338 0.0
H702 H 0.16556 0.3201 0.36707 0.0
H703 H 0.13409 0.33638 0.35312 0.0
C704 C 0.17317 0.23685 0.34631 0.0
C705 C 0.14449 0.23436 0.3542 0.0
C706 C 0.18257 0.26057 0.33118 0.0
C707 C 0.16343 0.28205 0.32375 0.0
C708 C 0.13453 0.27844 0.32954 0.0
H709 H 0.14021 0.4259 0.22639 0.0
H710 H 0.14051 0.38893 0.26256 0.0
C711 C 0.12513 0.25489 0.3447 0.0
C712 C 0.1734 0.3087 0.31058 0.0
H713 H 0.16973 0.38057 0.31796 0.0
C714 C 0.18582 0.30763 0.28364 0.0
C715 C 0.16885 0.33526 0.32373 0.0
C716 C 0.15755 0.33759 0.35355 0.0
C717 C 0.19184 0.33256 0.26857 0.0
C718 C 0.18541 0.35911 0.28095 0.0
C719 C 0.17453 0.36017 0.30854 0.0
C720 C 0.18615 0.38545 0.26404 0.0
C721 C 0.20348 0.33036 0.23888 0.0
C722 C 0.2118 0.39681 0.25417 0.0
C723 C 0.21169 0.41827 0.23371 0.0
C724 C 0.1859 0.42832 0.22273 0.0
C725 C 0.16036 0.41853 0.23448 0.0
C726 C 0.16051 0.39738 0.25508 0.0
H727 H 0.20469 0.3081 0.23137 0.0
H728 H 0.19011 0.34268 0.22399 0.0
H729 H 0.22511 0.33951 0.23826 0.0
H730 H 0.2318 0.38796 0.26106 0.0
H731 H 0.23168 0.42521 0.2248 0.0
H732 H 0.98825 0.81856 0.59153 0.0
H733 H 0.95102 0.83448 0.55952 0.0
H734 H 0.98076 0.92054 0.56717 0.0
H735 H 0.01877 0.90449 0.59853 0.0
H736 H 0.90978 0.87051 0.57727 0.0
H737 H 0.96504 0.91517 0.48315 0.0
H738 H 0.98274 0.89265 0.50842 0.0
H739 H 0.97609 0.92921 0.51665 0.0
C740 C 0.9874 0.84073 0.58563 0.0
C741 C 0.00635 0.86031 0.59738 0.0
C742 C 0.96605 0.84983 0.56751 0.0
C743 C 0.96307 0.87868 0.56107 0.0
C744 C 0.98295 0.89812 0.57151 0.0
H745 H 0.82006 0.95098 0.46588 0.0
H746 H 0.85571 0.94708 0.5035 0.0
C747 C 0.00468 0.88893 0.58935 0.0
C748 C 0.93762 0.88831 0.54567 0.0
H749 H 0.91522 0.91902 0.48432 0.0
C750 C 0.91098 0.88131 0.55703 0.0
C751 C 0.93927 0.90271 0.51948 0.0
C752 C 0.96729 0.91022 0.50602 0.0
C753 C 0.886 0.88719 0.54228 0.0
C754 C 0.88776 0.90054 0.51569 0.0
C755 C 0.91416 0.9089 0.50492 0.0
C756 C 0.86304 0.90234 0.49693 0.0
C757 C 0.8579 0.87827 0.55459 0.0
C758 C 0.85507 0.87828 0.4816 0.0
C759 C 0.83512 0.88049 0.46008 0.0
C760 C 0.82262 0.90674 0.45387 0.0
C761 C 0.82913 0.93044 0.47061 0.0
C762 C 0.84956 0.92831 0.49188 0.0
H763 H 0.85961 0.8726 0.57734 0.0
H764 H 0.84206 0.8955 0.55217 0.0
H765 H 0.84996 0.85952 0.54288 0.0
H766 H 0.86546 0.85813 0.48524 0.0
H767 H 0.83049 0.86198 0.44736 0.0
H768 H 0.33326 0.5449 0.73255 0.0
H769 H 0.33951 0.5814 0.7683 0.0
H770 H 0.2505 0.60145 0.76424 0.0
H771 H 0.24403 0.56469 0.72826 0.0
H772 H 0.2865 0.64636 0.74975 0.0
H773 H 0.32057 0.59884 0.85081 0.0
H774 H 0.339 0.5836 0.82127 0.0
H775 H 0.30125 0.5791 0.8244 0.0
C776 C 0.31477 0.55623 0.7401 0.0
C777 C 0.28824 0.55214 0.72738 0.0
C778 C 0.31835 0.57706 0.76066 0.0
C779 C 0.29548 0.59416 0.76893 0.0
C780 C 0.26838 0.58835 0.75825 0.0
H781 H 0.33057 0.76254 0.84332 0.0
H782 H 0.30358 0.72365 0.82237 0.0
C783 C 0.2647 0.56721 0.73782 0.0
C784 C 0.3013 0.62078 0.7844 0.0
H785 H 0.33809 0.64617 0.84087 0.0
C786 C 0.29704 0.64651 0.77006 0.0
C787 C 0.31516 0.62086 0.81082 0.0
C788 C 0.319 0.59411 0.82784 0.0
C789 C 0.3083 0.67202 0.78034 0.0
C790 C 0.32396 0.67169 0.80578 0.0
C791 C 0.32645 0.64629 0.82111 0.0
C792 C 0.34008 0.69666 0.81576 0.0
C793 C 0.30494 0.69866 0.76298 0.0
C794 C 0.36958 0.6946 0.81856 0.0
C795 C 0.38503 0.71664 0.8306 0.0
C796 C 0.37129 0.7413 0.84006 0.0
C797 C 0.34188 0.74399 0.83589 0.0
C798 C 0.32637 0.72173 0.824 0.0
H799 H 0.29662 0.69421 0.74146 0.0
H800 H 0.28986 0.71312 0.77377 0.0
H801 H 0.3255 0.70987 0.76091 0.0
H802 H 0.38059 0.67548 0.81216 0.0
H803 H 0.40761 0.71389 0.8335 0.0
H804 H 0.52309 0.13232 0.09311 0.0
H805 H 0.56096 0.10606 0.06986 0.0
H806 H 0.50919 0.03088 0.06936 0.0
H807 H 0.47078 0.05717 0.09272 0.0
H808 H 0.58428 0.05349 0.09724 0.0
H809 H 0.54549 0.03843 0.98688 0.0
H810 H 0.53271 0.06747 0.00828 0.0
H811 H 0.52224 0.03194 0.01653 0.0
C812 C 0.51942 0.11037 0.08757 0.0
C813 C 0.49392 0.09684 0.09488 0.0
C814 C 0.54116 0.09536 0.07437 0.0
C815 C 0.53792 0.06654 0.06811 0.0
C816 C 0.51202 0.05318 0.07395 0.0
H817 H 0.67837 0.99454 0.97036 0.0
H818 H 0.63741 0.99033 0.00214 0.0
C819 C 0.49007 0.06828 0.08716 0.0
C820 C 0.56269 0.05066 0.05725 0.0
H821 H 0.59346 0.02887 0.99568 0.0
C822 C 0.58614 0.04744 0.07517 0.0
C823 C 0.56486 0.04235 0.02864 0.0
C824 C 0.54009 0.04513 0.00877 0.0
C825 C 0.61237 0.03822 0.06469 0.0
C826 C 0.61531 0.03257 0.03548 0.0
C827 C 0.59121 0.03331 0.01808 0.0
C828 C 0.64352 0.03129 0.02169 0.0
C829 C 0.63705 0.03593 0.08474 0.0
C830 C 0.66113 0.0552 0.02295 0.0
C831 C 0.68433 0.05769 0.00483 0.0
C832 C 0.69044 0.03628 0.98516 0.0
C833 C 0.67444 0.01116 0.98569 0.0
C834 C 0.65089 0.00882 0.00365 0.0
H835 H 0.62976 0.03036 0.10641 0.0
H836 H 0.65259 0.0198 0.0775 0.0
H837 H 0.64791 0.05673 0.08597 0.0
H838 H 0.6556 0.07304 0.03627 0.0
H839 H 0.69617 0.07735 0.00467 0.0
H840 H 0.57621 0.22449 0.64312 0.0
H841 H 0.59112 0.20065 0.68624 0.0
H842 H 0.64909 0.26884 0.70414 0.0
H843 H 0.63445 0.29293 0.66055 0.0
H844 H 0.67408 0.2151 0.70463 0.0
H845 H 0.57675 0.21602 0.77 0.0
H846 H 0.5702 0.2039 0.73466 0.0
H847 H 0.58191 0.23971 0.7404 0.0
C848 C 0.59178 0.23474 0.65644 0.0
C849 C 0.60423 0.26057 0.64837 0.0
C850 C 0.60012 0.22115 0.6812 0.0
C851 C 0.62096 0.23314 0.69848 0.0
C852 C 0.63279 0.2594 0.69111 0.0
H853 H 0.66457 0.14319 0.85334 0.0
H854 H 0.65288 0.18059 0.81983 0.0
C855 C 0.62432 0.27316 0.66631 0.0
C856 C 0.63211 0.21663 0.72256 0.0
H857 H 0.61094 0.1797 0.78086 0.0
C858 C 0.66046 0.20773 0.72162 0.0
C859 C 0.61434 0.20731 0.74478 0.0
C860 C 0.58418 0.21747 0.74772 0.0
C861 C 0.67113 0.18852 0.74158 0.0
C862 C 0.65278 0.17765 0.76262 0.0
C863 C 0.62486 0.18773 0.76441 0.0
C864 C 0.66179 0.15538 0.78268 0.0
C865 C 0.70184 0.17986 0.73979 0.0
C866 C 0.67066 0.12874 0.77284 0.0
C867 C 0.67746 0.10719 0.79198 0.0
C868 C 0.67514 0.11189 0.82126 0.0
C869 C 0.66642 0.13872 0.83094 0.0
C870 C 0.65979 0.16021 0.81184 0.0
H871 H 0.71469 0.19596 0.72838 0.0
H872 H 0.71097 0.17664 0.76118 0.0
H873 H 0.70352 0.15963 0.72797 0.0
H874 H 0.67174 0.1244 0.75037 0.0
H875 H 0.68401 0.08677 0.78383 0.0
H876 H 0.17542 0.45683 0.02338 0.0
H877 H 0.13701 0.46331 0.9891 0.0
H878 H 0.09212 0.39288 0.02615 0.0
H879 H 0.12995 0.38647 0.06049 0.0
H880 H 0.11292 0.42741 0.94934 0.0
H881 H 0.03388 0.45677 0.03057 0.0
H882 H 0.07147 0.45629 0.03757 0.0
H883 H 0.05116 0.42404 0.03917 0.0
C884 C 0.15758 0.44243 0.02388 0.0
C885 C 0.1556 0.42127 0.04478 0.0
C886 C 0.13557 0.44634 0.00447 0.0
C887 C 0.11135 0.42918 0.00577 0.0
C888 C 0.11021 0.40697 0.02545 0.0
H889 H 0.98337 0.36332 0.91138 0.0
H890 H 0.01605 0.38071 0.94745 0.0
C891 C 0.13201 0.40313 0.04485 0.0
C892 C 0.0872 0.43383 0.98645 0.0
H893 H 0.01504 0.43866 0.98632 0.0
C894 C 0.0916 0.43067 0.95729 0.0
C895 C 0.05945 0.43853 -0.00311 0.0
C896 C 0.05373 0.44442 0.02775 0.0
C897 C 0.06866 0.42961 0.93854 0.0
C898 C 0.04081 0.43171 0.94938 0.0
C899 C 0.03649 0.43693 0.97821 0.0
C900 C 0.01639 0.42376 0.93177 0.0
C901 C 0.07409 0.42427 0.90753 0.0
C902 C 0.00488 0.44266 0.91199 0.0
C903 C 0.98576 0.43284 0.89164 0.0
C904 C 0.97845 0.40401 0.89081 0.0
C905 C 0.98855 0.38568 0.91186 0.0
C906 C 0.00721 0.39555 0.93235 0.0
H907 H 0.09704 0.42406 0.90233 0.0
H908 H 0.06481 0.40357 0.90137 0.0
H909 H 0.0636 0.4409 0.89465 0.0
H910 H 0.01198 0.46446 0.91122 0.0
H911 H 0.97866 0.44715 0.87518 0.0
H912 H 0.77593 0.9241 0.26483 0.0
H913 H 0.76887 0.88306 0.23386 0.0
H914 H 0.85272 0.85313 0.25394 0.0
H915 H 0.85998 0.89376 0.28483 0.0
H916 H 0.80064 0.85966 0.18699 0.0
H917 H 0.79868 0.78847 0.27985 0.0
H918 H 0.79553 0.82646 0.28292 0.0
H919 H 0.82982 0.81025 0.27927 0.0
C920 C 0.79317 0.90922 0.26201 0.0
C921 C 0.81842 0.91199 0.27756 0.0
C922 C 0.78897 0.88567 0.24452 0.0
C923 C 0.80994 0.86472 0.24245 0.0
C924 C 0.83599 0.86873 0.25599 0.0
H925 H 0.8756 0.72979 0.15867 0.0
H926 H 0.85829 0.76498 0.19252 0.0
C927 C 0.8402 0.89211 0.2734 0.0
C928 C 0.80483 0.83811 0.22686 0.0
H929 H 0.8099 0.76643 0.2348 0.0
C930 C 0.80185 0.83922 0.19741 0.0
C931 C 0.80602 0.81153 0.24068 0.0
C932 C 0.80738 0.80906 0.27247 0.0
C933 C 0.8027 0.81438 0.18113 0.0
C934 C 0.80639 0.78798 0.19484 0.0
C935 C 0.80713 0.78675 0.22443 0.0
C936 C 0.81471 0.76256 0.17872 0.0
C937 C 0.80187 0.81663 0.14929 0.0
C938 C 0.7956 0.7487 0.16078 0.0
C939 C 0.80548 0.72838 0.14161 0.0
C940 C 0.83445 0.72181 0.14033 0.0
C941 C 0.85312 0.73433 0.15961 0.0
C942 C 0.84326 0.75441 0.17884 0.0
H943 H 0.80047 0.83895 0.14193 0.0
H944 H 0.82113 0.80681 0.13997 0.0
H945 H 0.78324 0.80492 0.14113 0.0
H946 H 0.77346 0.75474 0.16049 0.0
H947 H 0.79093 0.71939 0.12645 0.0
H948 H 0.36193 0.60409 0.58052 0.0
H949 H 0.39098 0.62007 0.54092 0.0
H950 H 0.32729 0.59169 0.4823 0.0
H951 H 0.29776 0.57554 0.52192 0.0
H952 H 0.38639 0.57382 0.47125 0.0
H953 H 0.37405 0.6897 0.48802 0.0
H954 H 0.38279 0.66952 0.51908 0.0
H955 H 0.34932 0.66403 0.50201 0.0
C956 C 0.35396 0.60123 0.55925 0.0
C957 C 0.32745 0.58855 0.5544 0.0
C958 C 0.37056 0.61055 0.53667 0.0
C959 C 0.36105 0.60736 0.50883 0.0
C960 C 0.3348 0.5945 0.50375 0.0
H961 H 0.44329 0.67437 0.35777 0.0
H962 H 0.40869 0.66207 0.39436 0.0
C963 C 0.318 0.58531 0.52638 0.0
C964 C 0.37918 0.61665 0.48512 0.0
H965 H 0.41028 0.67511 0.45606 0.0
C966 C 0.39144 0.59596 0.46771 0.0
C967 C 0.38552 0.64556 0.4806 0.0
C968 C 0.37209 0.66858 0.49823 0.0
C969 C 0.4107 0.60342 0.44634 0.0
C970 C 0.41787 0.63224 0.44254 0.0
C971 C 0.40488 0.65302 0.45931 0.0
C972 C 0.43907 0.64108 0.42134 0.0
C973 C 0.42339 0.58047 0.42806 0.0
C974 C 0.46765 0.63393 0.42491 0.0
C975 C 0.48753 0.64103 0.40419 0.0
C976 C 0.4791 0.65534 0.37947 0.0
C977 C 0.4505 0.66323 0.37646 0.0
C978 C 0.43069 0.65625 0.39731 0.0
H979 H 0.41148 0.56026 0.42985 0.0
H980 H 0.4238 0.58713 0.40553 0.0
H981 H 0.44555 0.57653 0.43477 0.0
H982 H 0.47449 0.62249 0.44357 0.0
H983 H 0.50934 0.63462 0.40723 0.0
H984 H 0.24385 0.14516 0.40765 0.0
H985 H 0.2766 0.14808 0.36771 0.0
H986 H 0.26082 0.23783 0.3609 0.0
H987 H 0.22817 0.23508 0.4014 0.0
H988 H 0.25082 0.20451 0.31005 0.0
H989 H 0.35631 0.18327 0.35607 0.0
H990 H 0.32959 0.15962 0.36925 0.0
H991 H 0.32704 0.19691 0.37673 0.0
C992 C 0.24811 0.16567 0.39827 0.0
C993 C 0.23374 0.18992 0.40775 0.0
C994 C 0.2668 0.16734 0.37547 0.0
C995 C 0.27126 0.19321 0.36152 0.0
C996 C 0.25785 0.21775 0.37161 0.0
H997 H 0.36224 0.18132 0.19729 0.0
H998 H 0.33479 0.20499 0.2347 0.0
C999 C 0.23945 0.21618 0.39486 0.0
C1000 C 0.28748 0.19334 0.33471 0.0
H1001 H 0.34983 0.16953 0.30717 0.0
C1002 C 0.27275 0.19772 0.30928 0.0
C1003 C 0.31608 0.18466 0.33386 0.0
C1004 C 0.33328 0.18111 0.36046 0.0
C1005 C 0.28521 0.19104 0.28306 0.0
C1006 C 0.31292 0.17987 0.28253 0.0
C1007 C 0.32841 0.17785 0.30775 0.0
C1008 C 0.32491 0.1662 0.25707 0.0
C1009 C 0.26812 0.19386 0.25633 0.0
C1010 C 0.32744 0.13663 0.25681 0.0
C1011 C 0.34305 0.12317 0.23572 0.0
C1012 C 0.35647 0.13905 0.21442 0.0
C1013 C 0.35204 0.16854 0.21339 0.0
C1014 C 0.33648 0.1821 0.23476 0.0
H1015 H 0.24684 0.20312 0.26031 0.0
H1016 H 0.27958 0.20751 0.24098 0.0
H1017 H 0.26549 0.17271 0.2464 0.0
H1018 H 0.3185 0.12405 0.27382 0.0
H1019 H 0.34591 0.10043 0.237 0.0
H1020 H 0.13427 0.08682 0.47083 0.0
H1021 H 0.12284 0.05252 0.50791 0.0
H1022 H 0.1584 0.10828 0.57068 0.0
H1023 H 0.17066 0.1423 0.53378 0.0
H1024 H 0.17305 0.05481 0.58082 0.0
H1025 H 0.0575 0.05994 0.56241 0.0
H1026 H 0.07657 0.05002 0.53109 0.0
H1027 H 0.08194 0.08455 0.54633 0.0
C1028 C 0.13994 0.09167 0.49248 0.0
C1029 C 0.15332 0.11739 0.49928 0.0
C1030 C 0.1331 0.07217 0.5137 0.0
C1031 C 0.13904 0.07819 0.54217 0.0
C1032 C 0.15337 0.1033 0.54889 0.0
H1033 H 0.06119 0.97259 0.67486 0.0
H1034 H 0.07598 0.01471 0.64809 0.0
C1035 C 0.16047 0.12268 0.52769 0.0
C1036 C 0.13047 0.05826 0.56493 0.0
H1037 H 0.07395 0.0215 0.59119 0.0
C1038 C 0.15133 0.04775 0.58326 0.0
C1039 C 0.10199 0.04964 0.56869 0.0
C1040 C 0.07817 0.06187 0.55129 0.0
C1041 C 0.14473 0.02781 0.6043 0.0
C1042 C 0.11666 0.01759 0.60662 0.0
C1043 C 0.09554 0.02913 0.58924 0.0
C1044 C 0.10928 0.99318 0.62499 0.0
C1045 C 0.16799 0.01782 0.62374 0.0
C1046 C 0.1231 0.96723 0.62095 0.0
C1047 C 0.11486 0.94335 0.63618 0.0
C1048 C 0.09227 0.94467 0.65565 0.0
C1049 C 0.07874 0.97085 0.66016 0.0
C1050 C 0.0871 0.9949 0.64483 0.0
H1051 H 0.18458 0.0343 0.62625 0.0
H1052 H 0.1596 0.0122 0.64499 0.0
H1053 H 0.17823 -0.0012 0.61447 0.0
H1054 H 0.13974 0.96515 0.60527 0.0
H1055 H 0.12581 0.9236 0.63205 0.0
H1056 H 0.1381 0.80234 0.7137 0.0
H1057 H 0.17251 0.78438 0.74825 0.0
H1058 H 0.16733 0.86322 0.794 0.0
H1059 H 0.13293 0.88109 0.7602 0.0
H1060 H 0.22487 0.80492 0.7643 0.0
H1061 H 0.15215 0.80507 0.85582 0.0
H1062 H 0.13973 0.80746 0.81977 0.0
H1063 H 0.1515 0.8387 0.83819 0.0
C1064 C 0.1445 0.8159 0.73101 0.0
C1065 C 0.13263 0.84308 0.73434 0.0
C1066 C 0.16398 0.80553 0.75078 0.0
C1067 C 0.17177 0.82217 0.77409 0.0
C1068 C 0.16086 0.84968 0.77669 0.0
H1069 H 0.31202 0.85311 0.87104 0.0
H1070 H 0.2723 0.84773 0.83878 0.0
C1071 C 0.14139 0.85996 0.75717 0.0
C1072 C 0.19214 0.81176 0.79541 0.0
H1073 H 0.20236 0.81005 0.86685 0.0
C1074 C 0.21981 0.80534 0.7867 0.0
C1075 C 0.18536 0.8115 0.82461 0.0
C1076 C 0.15546 0.81573 0.83511 0.0
C1077 C 0.24147 0.80149 0.80657 0.0
C1078 C 0.23524 0.80465 0.83568 0.0
C1079 C 0.20713 0.80825 0.84446 0.0
C1080 C 0.25801 0.80806 0.8567 0.0
C1081 C 0.27112 0.79535 0.7963 0.0
C1082 C 0.26218 0.78818 0.87836 0.0
C1083 C 0.28491 0.79125 0.89708 0.0
C1084 C 0.30357 0.81436 0.89441 0.0
C1085 C 0.2982 0.83497 0.87362 0.0
C1086 C 0.27566 0.83183 0.85498 0.0
H1087 H 0.27097 0.78536 0.77502 0.0
H1088 H 0.28308 0.81552 0.79474 0.0
H1089 H 0.28246 0.78118 0.81124 0.0
H1090 H 0.24847 0.76987 0.88015 0.0
H1091 H 0.28858 0.77491 0.91276 0.0
H1092 H 0.37487 0.0399 0.12125 0.0
H1093 H 0.38117 0.00663 0.0822 0.0
H1094 H 0.46525 0.98697 0.11183 0.0
H1095 H 0.4588 0.01969 0.15146 0.0
H1096 H 0.42205 0.01198 0.04061 0.0
H1097 H 0.43252 0.90871 0.09674 0.0
H1098 H 0.41883 0.94 0.11393 0.0
H1099 H 0.4562 0.93631 0.10782 0.0
C1100 C 0.39441 0.02793 0.11988 0.0
C1101 C 0.41623 0.03222 0.13954 0.0
C1102 C 0.39808 0.00911 0.09745 0.0
C1103 C 0.42366 0.99434 0.09413 0.0
C1104 C 0.44516 -0.00222 0.11427 0.0
H1105 H 0.45146 0.87482 0.9527 0.0
H1106 H 0.46465 0.91213 0.98663 0.0
C1107 C 0.44138 0.0164 0.13697 0.0
C1108 C 0.42794 0.97649 0.06874 0.0
H1109 H 0.43473 0.90788 0.04707 0.0
C1110 C 0.4252 0.98925 0.04201 0.0
C1111 C 0.4324 0.94692 0.07064 0.0
C1112 C 0.43498 0.93203 0.09878 0.0
C1113 C 0.42521 0.97299 0.01721 0.0
C1114 C 0.42813 0.94335 0.01927 0.0
C1115 C 0.4327 0.93073 0.04574 0.0
C1116 C 0.42141 0.92472 0.99522 0.0
C1117 C 0.42085 0.9873 0.98904 0.0
C1118 C 0.39289 0.92012 0.98854 0.0
C1119 C 0.3854 0.89883 0.96964 0.0
C1120 C 0.40635 0.88213 0.95679 0.0
C1121 C 0.43503 0.88786 0.96206 0.0
C1122 C 0.44255 0.90894 0.98147 0.0
H1123 H 0.42478 0.01046 0.99024 0.0
H1124 H 0.43505 0.97792 0.97276 0.0
H1125 H 0.39868 0.98392 0.98208 0.0
H1126 H 0.37634 0.93195 -0.00079 0.0
H1127 H 0.36316 0.89453 0.96602 0.0
H1128 H 0.85762 0.33527 0.76517 0.0
H1129 H 0.82269 0.31903 0.73053 0.0
H1130 H 0.84254 0.39046 0.67707 0.0
H1131 H 0.87786 0.40632 0.71099 0.0
H1132 H 0.77596 0.34309 0.71095 0.0
H1133 H 0.84924 0.32675 0.62122 0.0
H1134 H 0.86157 0.33231 0.6569 0.0
H1135 H 0.85227 0.36204 0.63485 0.0
C1136 C 0.85445 0.34754 0.74606 0.0
C1137 C 0.87063 0.37197 0.74073 0.0
C1138 C 0.83463 0.33815 0.72623 0.0
C1139 C 0.83063 0.35307 0.70083 0.0
C1140 C 0.84601 0.37802 0.69601 0.0
H1141 H 0.68414 0.36635 0.59963 0.0
H1142 H 0.72517 0.37129 0.63041 0.0
C1143 C 0.86599 0.38723 0.7156 0.0
C1144 C 0.80941 0.34355 0.67987 0.0
H1145 H 0.79973 0.33223 0.60917 0.0
C1146 C 0.78126 0.34028 0.68878 0.0
C1147 C 0.8164 0.33921 0.65102 0.0
C1148 C 0.84658 0.33994 0.64051 0.0
C1149 C 0.75966 0.33451 0.66938 0.0
C1150 C 0.76631 0.33275 0.64022 0.0
C1151 C 0.79465 0.33422 0.63147 0.0
C1152 C 0.74381 0.33111 0.6186 0.0
C1153 C 0.72982 0.33072 0.68029 0.0
C1154 C 0.74178 0.30776 0.60031 0.0
C1155 C 0.71848 0.30511 0.58222 0.0
C1156 C 0.697 0.32574 0.58241 0.0
C1157 C 0.70022 0.34997 0.59933 0.0
C1158 C 0.72352 0.35272 0.61707 0.0
H1159 H 0.72967 0.32372 0.70274 0.0
H1160 H 0.71848 0.35128 0.67912 0.0
H1161 H 0.71801 0.31498 0.66747 0.0
H1162 H 0.75748 0.29103 0.60099 0.0
H1163 H 0.71641 0.28617 0.56946 0.0
H1164 H 0.97629 0.47933 0.81441 0.0
H1165 H 0.97497 0.51713 0.85002 0.0
H1166 H 0.88369 0.51587 0.84827 0.0
H1167 H 0.88483 0.47808 0.81303 0.0
H1168 H 0.91225 0.57281 0.85433 0.0
H1169 H 0.94645 0.48928 0.93066 0.0
H1170 H 0.96741 0.49597 0.8995 0.0
H1171 H 0.93307 0.4802 0.89609 0.0
C1172 C 0.95598 0.48795 0.82079 0.0
C1173 C 0.93061 0.47579 0.81109 0.0
C1174 C 0.95528 0.50932 0.84129 0.0
C1175 C 0.92923 0.51891 0.85194 0.0
C1176 C 0.90398 0.50865 0.84029 0.0
H1177 H 0.83279 0.60142 0.9733 0.0
H1178 H 0.85552 0.57682 0.93404 0.0
C1179 C 0.90465 0.48713 0.82015 0.0
C1180 C 0.92759 0.53673 0.87753 0.0
H1181 H 0.92728 0.53102 0.94955 0.0
C1182 C 0.91614 0.564 0.87517 0.0
C1183 C 0.93294 0.52517 0.90463 0.0
C1184 C 0.94556 0.49601 0.90815 0.0
C1185 C 0.90835 0.57942 0.89929 0.0
C1186 C 0.91129 0.56679 0.9263 0.0
C1187 C 0.92473 0.54043 0.92877 0.0
C1188 C 0.89771 0.57924 0.95163 0.0
C1189 C 0.89621 0.60877 0.89557 0.0
C1190 C 0.91365 0.58694 0.97543 0.0
C1191 C 0.90056 0.60064 -0.00173 0.0
C1192 C 0.87141 0.60676 -0.00253 0.0
C1193 C 0.85533 0.59726 0.9744 0.0
C1194 C 0.86833 0.58348 0.95181 0.0
H1195 H 0.90421 0.61884 0.87586 0.0
H1196 H 0.87282 0.60731 0.89393 0.0
H1197 H 0.90149 0.62262 0.91379 0.0
H1198 H 0.93631 0.5834 0.97583 0.0
H1199 H 0.91351 0.60788 0.01571 0.0
H1200 H 0.75464 0.70612 0.06912 0.0
H1201 H 0.72768 0.71524 0.11245 0.0
H1202 H 0.7501 0.63246 0.14391 0.0
H1203 H 0.77737 0.62327 0.10098 0.0
H1204 H 0.68392 0.68985 0.13976 0.0
H1205 H 0.78014 0.68497 0.20483 0.0
H1206 H 0.78162 0.68097 0.16695 0.0
H1207 H 0.77422 0.65093 0.18919 0.0
C1208 C 0.75331 0.68958 0.08496 0.0
C1209 C 0.76848 0.66408 0.08176 0.0
C1210 C 0.73806 0.69494 0.10981 0.0
C1211 C 0.73782 0.67495 0.13179 0.0
C1212 C 0.75089 0.64858 0.1276 0.0
H1213 H 0.6572 0.62408 0.27556 0.0
H1214 H 0.69203 0.63713 0.23971 0.0
C1215 C 0.7662 0.64324 0.1029 0.0
C1216 C 0.72417 0.68148 0.15927 0.0
H1217 H 0.73522 0.67847 0.23056 0.0
C1218 C 0.6952 0.68802 0.15963 0.0
C1219 C 0.73909 0.67945 0.18516 0.0
C1220 C 0.77055 0.67399 0.18642 0.0
C1221 C 0.68021 0.69014 0.18523 0.0
C1222 C 0.69481 0.68614 0.21107 0.0
C1223 C 0.72413 0.68161 0.21072 0.0
C1224 C 0.67924 0.68113 0.23777 0.0
C1225 C 0.64854 0.6945 0.18435 0.0
C1226 C 0.66193 0.70205 0.24996 0.0
C1227 C 0.64212 0.69464 0.27078 0.0
C1228 C 0.63944 0.66622 0.27931 0.0
C1229 C 0.65889 0.6461 0.26926 0.0
C1230 C 0.67872 0.65354 0.24874 0.0
H1231 H 0.64011 0.69404 0.16243 0.0
H1232 H 0.63761 0.67789 0.19693 0.0
H1233 H 0.64321 0.71535 0.19379 0.0
H1234 H 0.66233 0.72356 0.24196 0.0
H1235 H 0.62717 0.71048 0.27807 0.0
H1236 H 0.58153 0.40457 0.5321 0.0
H1237 H 0.57489 0.44653 0.50227 0.0
H1238 H 0.62405 0.40737 0.43597 0.0
H1239 H 0.63107 0.36567 0.46541 0.0
H1240 H 0.63942 0.46405 0.44832 0.0
H1241 H 0.52365 0.45094 0.43105 0.0
H1242 H 0.53517 0.45085 0.46728 0.0
H1243 H 0.5458 0.42264 0.44412 0.0
C1244 C 0.59095 0.4049 0.51119 0.0
C1245 C 0.60678 0.3817 0.50116 0.0
C1246 C 0.587 0.4288 0.49415 0.0
C1247 C 0.59875 0.42981 0.46688 0.0
C1248 C 0.61477 0.4069 0.45696 0.0
H1249 H 0.56388 0.53913 0.32466 0.0
H1250 H 0.571 0.49919 0.35688 0.0
C1251 C 0.61869 0.38306 0.47386 0.0
C1252 C 0.59479 0.45478 0.44851 0.0
H1253 H 0.54515 0.49153 0.41115 0.0
C1254 C 0.61883 0.47018 0.44025 0.0
C1255 C 0.56791 0.46234 0.43782 0.0
C1256 C 0.54162 0.44576 0.44527 0.0
C1257 C 0.6167 0.49307 0.4215 0.0
C1258 C 0.58977 0.50087 0.41108 0.0
C1259 C 0.56573 0.48546 0.41931 0.0
C1260 C 0.58614 0.52494 0.39151 0.0
C1261 C 0.6433 0.50835 0.4125 0.0
C1262 C 0.59226 0.55254 0.40045 0.0
C1263 C 0.58831 0.57537 0.38215 0.0
C1264 C 0.578 0.57102 0.35457 0.0
C1265 C 0.57197 0.54325 0.34567 0.0
C1266 C 0.57592 0.52041 0.36406 0.0
H1267 H 0.66262 0.49572 0.41706 0.0
H1268 H 0.64281 0.51329 0.38953 0.0
H1269 H 0.64487 0.52864 0.42422 0.0
H1270 H 0.59975 0.55645 0.42173 0.0
H1271 H 0.59305 0.59645 0.3898 0.0
H1272 H 0.23494 0.33497 0.09912 0.0
H1273 H 0.26825 0.298 0.11331 0.0
H1274 H 0.26402 0.32717 0.19964 0.0
H1275 H 0.23 0.36403 0.18558 0.0
H1276 H 0.32012 0.3277 0.17063 0.0
H1277 H 0.26541 0.22411 0.16367 0.0
H1278 H 0.25757 0.248 0.13507 0.0
H1279 H 0.24691 0.25699 0.17047 0.0
C1280 C 0.2403 0.33281 0.12129 0.0
C1281 C 0.22988 0.35217 0.14129 0.0
C1282 C 0.25927 0.3117 0.12939 0.0
C1283 C 0.26844 0.30984 0.15751 0.0
C1284 C 0.25691 0.32815 0.17789 0.0
H1285 H 0.42603 0.21614 0.19515 0.0
H1286 H 0.38599 0.24845 0.20181 0.0
C1287 C 0.2374 0.34901 0.16988 0.0
C1288 C 0.29302 0.29166 0.16413 0.0
H1289 H 0.31601 0.22344 0.15851 0.0
C1290 C 0.31925 0.30482 0.16871 0.0
C1291 C 0.29167 0.26193 0.16151 0.0
C1292 C 0.26384 0.24682 0.15766 0.0
C1293 C 0.34453 0.28913 0.16857 0.0
C1294 C 0.34332 0.25955 0.16417 0.0
C1295 C 0.31688 0.24621 0.16152 0.0
C1296 C 0.36913 0.24229 0.15976 0.0
C1297 C 0.37239 0.30451 0.17126 0.0
C1298 C 0.37314 0.22852 0.13377 0.0
C1299 C 0.39588 0.21007 0.1299 0.0
C1300 C 0.41509 0.20497 0.15198 0.0
C1301 C 0.41186 0.21991 0.17756 0.0
C1302 C 0.38892 0.23831 0.18148 0.0
H1303 H 0.36983 0.32786 0.16968 0.0
H1304 H 0.38192 0.29957 0.19212 0.0
H1305 H 0.38743 0.29742 0.15461 0.0
H1306 H 0.35816 0.23147 0.11669 0.0
H1307 H 0.39773 0.19888 0.10997 0.0
H1308 H 0.94948 0.26764 0.81862 0.0
H1309 H 0.92645 0.22377 0.83455 0.0
H1310 H 0.86865 0.27259 0.88582 0.0
H1311 H 0.8914 0.31614 0.87043 0.0
H1312 H 0.89078 0.22269 0.91274 0.0
H1313 H 0.84583 0.20299 0.80559 0.0
H1314 H 0.88358 0.20732 0.80822 0.0
H1315 H 0.86066 0.23679 0.8154 0.0
C1316 C 0.93205 0.26897 0.8335 0.0
C1317 C 0.92207 0.29542 0.84297 0.0
C1318 C 0.91891 0.24393 0.84251 0.0
C1319 C 0.89573 0.24507 0.86113 0.0
C1320 C 0.88652 0.27131 0.87143 0.0
H1321 H 0.74761 0.15066 0.89198 0.0
H1322 H 0.78517 0.1847 0.88212 0.0
C1323 C 0.89948 0.29621 0.86243 0.0
C1324 C 0.87952 0.21943 0.86876 0.0
H1325 H 0.83049 0.17351 0.84246 0.0
C1326 C 0.87794 0.21153 0.89737 0.0
C1327 C 0.86262 0.20527 0.8486 0.0
C1328 C 0.86297 0.21349 0.81773 0.0
C1329 C 0.85909 0.19043 0.90651 0.0
C1330 C 0.84161 0.17691 0.88645 0.0
C1331 C 0.84398 0.18404 0.85773 0.0
C1332 C 0.81918 0.15682 0.89489 0.0
C1333 C 0.85694 0.18371 0.93765 0.0
C1334 C 0.82594 0.13005 0.9058 0.0
C1335 C 0.80449 0.11048 0.91157 0.0
C1336 C 0.77593 0.11736 0.90637 0.0
C1337 C 0.7693 0.14459 0.89626 0.0
C1338 C 0.79074 0.16408 0.89051 0.0
H1339 H 0.86893 0.19903 0.95082 0.0
H1340 H 0.83445 0.18378 0.94456 0.0
H1341 H 0.86558 0.1622 0.94157 0.0
H1342 H 0.84783 0.12401 0.90903 0.0
H1343 H 0.81039 0.08967 0.91922 0.0
H1344 H 0.10554 0.48156 0.09104 0.0
H1345 H 0.06935 0.51658 0.07881 0.0
H1346 H 0.098 0.57037 0.14669 0.0
H1347 H 0.13468 0.53598 0.1585 0.0
H1348 H 0.02608 0.53614 0.10825 0.0
H1349 H 0.09649 0.62612 0.08264 0.0
H1350 H 0.1096 0.59048 0.08716 0.0
H1351 H 0.10312 0.61268 0.11748 0.0
C1352 C 0.10411 0.50084 0.10339 0.0
C1353 C 0.12307 0.50604 0.12569 0.0
C1354 C 0.08352 0.52089 0.09628 0.0
C1355 C 0.08143 0.54643 0.11138 0.0
C1356 C 0.09982 0.55129 0.13412 0.0
H1357 H 0.93223 0.64791 0.12869 0.0
H1358 H 0.97434 0.61857 0.13498 0.0
C1359 C 0.1206 0.53144 0.14103 0.0
C1360 C 0.05909 0.56737 0.10437 0.0
H1361 H 0.04755 0.63765 0.09126 0.0
C1362 C 0.03083 0.55827 0.10425 0.0
C1363 C 0.0653 0.59617 0.09858 0.0
C1364 C 0.0953 0.60687 0.09615 0.0
C1365 C 0.00856 0.57732 0.09961 0.0
C1366 C 0.01466 0.60644 0.09586 0.0
C1367 C 0.04293 0.61542 0.09475 0.0
C1368 C 0.99174 0.62773 0.09358 0.0
C1369 C 0.97868 0.56599 0.09868 0.0
C1370 C 0.98866 0.6442 0.06902 0.0
C1371 C 0.9648 0.66151 0.06559 0.0
C1372 C 0.94374 0.66234 0.08665 0.0
C1373 C 0.94799 0.64739 0.112 0.0
C1374 C 0.97191 0.63047 0.11553 0.0
H1375 H 0.97832 0.54308 0.09333 0.0
H1376 H 0.96871 0.56856 0.11981 0.0
H1377 H 0.96569 0.57762 0.08294 0.0
H1378 H 0.00393 0.64257 0.05195 0.0
H1379 H 0.96197 0.67272 0.04579 0.0
H1380 H 0.73249 0.84121 0.38088 0.0
H1381 H 0.69215 0.8198 0.35683 0.0
H1382 H 0.72527 0.84725 0.27628 0.0
H1383 H 0.76597 0.86878 0.30035 0.0
H1384 H 0.65823 0.86247 0.31462 0.0
H1385 H 0.6939 0.75757 0.27379 0.0
H1386 H 0.70925 0.77101 0.30603 0.0
H1387 H 0.71667 0.78835 0.2731 0.0
C1388 C 0.73167 0.84194 0.35799 0.0
C1389 C 0.75234 0.85664 0.34245 0.0
C1390 C 0.70858 0.82983 0.34431 0.0
C1391 C 0.70574 0.83225 0.31491 0.0
C1392 C 0.72723 0.84519 0.29901 0.0
H1393 H 0.55595 0.74152 0.25869 0.0
H1394 H 0.59309 0.77676 0.25062 0.0
C1395 C 0.75054 0.85723 0.31275 0.0
C1396 C 0.67873 0.8237 0.30194 0.0
H1397 H 0.64449 0.76499 0.27824 0.0
C1398 C 0.6552 0.84145 0.30586 0.0
C1399 C 0.67508 0.79652 0.29021 0.0
C1400 C 0.69999 0.77713 0.28533 0.0
C1401 C 0.62768 0.83169 0.30067 0.0
C1402 C 0.62377 0.80343 0.29174 0.0
C1403 C 0.64753 0.78667 0.28517 0.0
C1404 C 0.59611 0.78903 0.29457 0.0
C1405 C 0.60296 0.85111 0.30635 0.0
C1406 C 0.58463 0.78528 0.32175 0.0
C1407 C 0.56368 0.765 0.32647 0.0
C1408 C 0.55372 0.74836 0.30402 0.0
C1409 C 0.56293 0.75437 0.27632 0.0
C1410 C 0.58431 0.77434 0.27168 0.0
H1411 H 0.60897 0.87363 0.30307 0.0
H1412 H 0.58472 0.84598 0.2925 0.0
H1413 H 0.59616 0.84865 0.32871 0.0
H1414 H 0.59374 0.79604 0.33979 0.0
H1415 H 0.55711 0.76058 0.34801 0.0
H1416 H 0.52221 0.36247 0.56444 0.0
H1417 H 0.47545 0.38294 0.57097 0.0
H1418 H 0.44085 0.29999 0.58733 0.0
H1419 H 0.48825 0.27897 0.58071 0.0
H1420 H 0.4206 0.36869 0.54313 0.0
H1421 H 0.42453 0.35113 0.65986 0.0
H1422 H 0.45643 0.35018 0.63876 0.0
H1423 H 0.43109 0.32208 0.63597 0.0
C1424 C 0.5047 0.34844 0.56926 0.0
C1425 C 0.50894 0.31914 0.57247 0.0
C1426 C 0.47795 0.36018 0.57279 0.0
C1427 C 0.45486 0.34299 0.5798 0.0
C1428 C 0.45858 0.31355 0.58203 0.0
H1429 H 0.30881 0.4385 0.64468 0.0
H1430 H 0.33659 0.39737 0.62992 0.0
C1431 C 0.48553 0.30162 0.57819 0.0
C1432 C 0.42773 0.35696 0.58655 0.0
H1433 H 0.39232 0.38491 0.64297 0.0
C1434 C 0.41381 0.37166 0.56487 0.0
C1435 C 0.41899 0.36066 0.61492 0.0
C1436 C 0.43343 0.34529 0.63888 0.0
C1437 C 0.39263 0.39155 0.57103 0.0
C1438 C 0.38573 0.39717 0.5996 0.0
C1439 C 0.39794 0.38073 0.6211 0.0
C1440 C 0.3683 0.42189 0.60776 0.0
C1441 C 0.37862 0.40714 0.54697 0.0
C1442 C 0.37732 0.44933 0.60067 0.0
C1443 C 0.36163 0.47292 0.60914 0.0
C1444 C 0.33668 0.46952 0.62506 0.0
C1445 C 0.32792 0.44195 0.63244 0.0
C1446 C 0.34368 0.41837 0.62396 0.0
H1447 H 0.37896 0.39433 0.52725 0.0
H1448 H 0.35633 0.41261 0.55216 0.0
H1449 H 0.39036 0.42706 0.54274 0.0
H1450 H 0.39671 0.45251 0.58879 0.0
H1451 H 0.36904 0.49378 0.60313 0.0
H1452 H 0.26395 0.66641 0.62749 0.0
H1453 H 0.23212 0.70005 0.65036 0.0
H1454 H 0.23537 0.65116 0.72742 0.0
H1455 H 0.26789 0.61772 0.70461 0.0
H1456 H 0.18176 0.65433 0.70254 0.0
H1457 H 0.22737 0.76144 0.71177 0.0
H1458 H 0.23634 0.7457 0.67837 0.0
H1459 H 0.24901 0.72981 0.71062 0.0
C1460 C 0.259 0.66362 0.64971 0.0
C1461 C 0.2682 0.63942 0.66429 0.0
C1462 C 0.24087 0.68291 0.66284 0.0
C1463 C 0.23143 0.67814 0.69063 0.0
C1464 C 0.24262 0.65536 0.70606 0.0
H1465 H 0.06872 0.76654 0.72363 0.0
H1466 H 0.10965 0.7371 0.73659 0.0
C1467 C 0.26126 0.63633 0.69305 0.0
C1468 C 0.20576 0.69314 0.70053 0.0
H1469 H 0.17674 0.75921 0.70015 0.0
C1470 C 0.18071 0.67728 0.70323 0.0
C1471 C 0.20446 0.723 0.7015 0.0
C1472 C 0.23083 0.74095 0.70071 0.0
C1473 C 0.15416 0.69062 0.70369 0.0
C1474 C 0.15284 0.72038 0.70148 0.0
C1475 C 0.17791 0.73631 0.70164 0.0
C1476 C 0.12627 0.73493 0.69399 0.0
C1477 C 0.12763 0.67288 0.70391 0.0
C1478 C 0.12184 0.74253 0.6657 0.0
C1479 C 0.09863 0.75912 0.65823 0.0
C1480 C 0.0794 0.76841 0.67896 0.0
C1481 C 0.08296 0.75935 0.70713 0.0
C1482 C 0.10641 0.74279 0.71463 0.0
H1483 H 0.13219 0.6501 0.70774 0.0
H1484 H 0.1129 0.68062 0.72055 0.0
H1485 H 0.1167 0.67502 0.68325 0.0
H1486 H 0.13698 0.73648 0.64952 0.0
H1487 H 0.09648 0.76579 0.63641 0.0
H1488 H 0.49367 0.81275 0.93359 0.0
H1489 H 0.52214 0.85498 0.94288 0.0
H1490 H 0.4953 0.89098 0.86348 0.0
H1491 H 0.4664 0.84915 0.85422 0.0
H1492 H 0.56546 0.88118 0.91488 0.0
H1493 H 0.47235 0.95169 0.9201 0.0
H1494 H 0.46902 0.9137 0.91779 0.0
H1495 H 0.47436 0.93452 0.88632 0.0
C1496 C 0.49424 0.82939 0.91781 0.0
C1497 C 0.4776 0.82762 0.89319 0.0
C1498 C 0.51036 0.85362 0.92329 0.0
C1499 C 0.51014 0.87646 0.90428 0.0
C1500 C 0.49506 0.87396 0.87886 0.0
H1501 H 0.59745 0.02186 0.86041 0.0
H1502 H 0.56262 0.98485 0.86967 0.0
C1503 C 0.47883 0.84987 0.87343 0.0
C1504 C 0.52563 0.90297 0.91081 0.0
H1505 H 0.51776 0.97489 0.91294 0.0
C1506 C 0.55499 0.90163 0.91505 0.0
C1507 C 0.51183 0.92963 0.91142 0.0
C1508 C 0.48011 0.93244 0.90897 0.0
C1509 C 0.57122 0.92639 0.91782 0.0
C1510 C 0.5576 0.95307 0.91658 0.0
C1511 C 0.52808 0.95437 0.9139 0.0
C1512 C 0.57411 0.97949 0.9136 0.0
C1513 C 0.60301 0.92395 0.92029 0.0
C1514 C 0.5909 0.98985 0.93577 0.0
C1515 C 0.6107 0.01133 0.93058 0.0
C1516 C 0.6141 0.02232 0.90312 0.0
C1517 C 0.59543 0.01363 0.88173 0.0
C1518 C 0.57554 0.99247 0.88698 0.0
H1519 H 0.61048 0.90171 0.91829 0.0
H1520 H 0.61352 0.93693 0.90371 0.0
H1521 H 0.60985 0.93218 0.94117 0.0
H1522 H 0.58983 0.98025 0.95657 0.0
H1523 H 0.62482 0.01763 0.94742 0.0
H1524 H 0.8888 0.96394 0.41735 0.0
H1525 H 0.92651 0.99589 0.43343 0.0
H1526 H 0.9177 0.04508 0.35701 0.0
H1527 H 0.87996 0.0139 0.34115 0.0
H1528 H 0.97782 0.01095 0.41048 0.0
H1529 H 0.90848 0.10495 0.41773 0.0
H1530 H 0.89467 0.0695 0.41409 0.0
H1531 H 0.90638 0.08896 0.38341 0.0
C1532 C 0.8951 0.98146 0.40393 0.0
C1533 C 0.88121 0.9866 0.37813 0.0
C1534 C 0.91651 -0.00026 0.41318 0.0
C1535 C 0.92428 0.02331 0.39676 0.0
C1536 C 0.91137 0.02758 0.37044 0.0
H1537 H 0.07429 0.12046 0.3832 0.0
H1538 H 0.03594 0.08603 0.38166 0.0
C1539 C 0.88992 0.00958 0.36132 0.0
C1540 C 0.94609 0.0435 0.40658 0.0
H1541 H 0.95861 0.11427 0.41394 0.0
C1542 C 0.97357 0.03351 0.4117 0.0
C1543 C 0.94035 0.07284 0.40892 0.0
C1544 C 0.91078 0.08465 0.40606 0.0
C1545 C 0.99588 0.05231 0.41724 0.0
C1546 C 0.9906 0.08185 0.41688 0.0
C1547 C 0.96276 0.09167 0.41365 0.0
C1548 C 0.0138 0.10291 0.41811 0.0
C1549 C 0.02489 0.04032 0.42315 0.0
C1550 C 0.01342 0.12471 0.43829 0.0
C1551 C 0.03511 0.14487 0.4389 0.0
C1552 C 0.05755 0.14351 0.41931 0.0
C1553 C 0.05749 0.12198 0.39877 0.0
C1554 C 0.03572 0.10206 0.39804 0.0
H1555 H 0.02345 0.01872 0.4324 0.0
H1556 H 0.03687 0.03864 0.40299 0.0
H1557 H 0.03698 0.05404 0.43786 0.0
H1558 H 0.9965 0.12596 0.45377 0.0
H1559 H 0.03458 0.16112 0.45505 0.0
loop_
_geom_bond_atom_site_label_1
_geom_bond_atom_site_label_2
_geom_bond_distance
_geom_bond_site_symmetry_2
_ccdc_geom_bond_type
Sc0 O3 2.025 . S
Sc0 O10 2.105 . S
Sc0 O13 2.105 . S
Sc0 O16 2.105 . S
Sc0 O19 2.105 . S
Sc1 O3 2.025 . S
Sc1 O11 2.105 . S
Sc1 O15 2.105 . S
Sc1 O17 2.105 . S
Sc1 O21 2.105 . S
Sc2 O3 2.025 . S
Sc2 O12 2.105 . S
Sc2 O14 2.105 . S
Sc2 O18 2.105 . S
Sc2 O20 2.105 . S
O3 Sc0 2.025 . S
O3 Sc1 2.025 . S
O3 Sc2 2.025 . S
C4 O10 1.268 . S
C4 O20 1.268 . S
C5 O11 1.268 . S
C5 O19 1.268 . S
C6 O12 1.268 . S
C6 O21 1.268 . S
C7 O13 1.268 . S
C7 O17 1.268 . S
C8 O14 1.268 . S
C8 O16 1.268 . S
C9 O15 1.268 . S
C9 O18 1.268 . S
O10 Sc0 2.105 . S
O10 C4 1.268 . S
O11 Sc1 2.105 . S
O11 C5 1.268 . S
O12 Sc2 2.105 . S
O12 C6 1.268 . S
O13 Sc0 2.105 . S
O13 C7 1.268 . S
O14 Sc2 2.105 . S
O14 C8 1.268 . S
O15 Sc1 2.105 . S
O15 C9 1.268 . S
O16 Sc0 2.105 . S
O16 C8 1.268 . S
O17 Sc1 2.105 . S
O17 C7 1.268 . S
O18 Sc2 2.105 . S
O18 C9 1.268 . S
O19 Sc0 2.105 . S
O19 C5 1.268 . S
O20 Sc2 2.105 . S
O20 C4 1.268 . S
O21 Sc1 2.105 . S
O21 C6 1.268 . S
Sc22 O25 2.025 . S
Sc22 O32 2.105 . S
Sc22 O35 2.105 . S
Sc22 O38 2.105 . S
Sc22 O41 2.105 . S
Sc23 O25 2.025 . S
Sc23 O33 2.105 . S
Sc23 O37 2.105 1_455 S
Sc23 O39 2.105 . S
Sc23 O43 2.105 . S
Sc24 O25 2.025 . S
Sc24 O34 2.105 . S
Sc24 O36 2.105 . S
Sc24 O40 2.105 . S
Sc24 O42 2.105 . S
O25 Sc22 2.025 . S
O25 Sc23 2.025 . S
O25 Sc24 2.025 . S
C26 O32 1.268 . S
C26 O42 1.268 . S
C27 O33 1.268 . S
C27 O41 1.268 . S
C28 O34 1.268 . S
C28 O43 1.268 . S
C29 O35 1.268 . S
C29 O39 1.268 . S
C30 O36 1.268 . S
C30 O38 1.268 . S
C31 O37 1.268 . S
C31 O40 1.268 1_655 S
O32 Sc22 2.105 . S
O32 C26 1.268 . S
O33 Sc23 2.105 . S
O33 C27 1.268 . S
O34 Sc24 2.105 . S
O34 C28 1.268 . S
O35 Sc22 2.105 . S
O35 C29 1.268 . S
O36 Sc24 2.105 . S
O36 C30 1.268 . S
O37 Sc23 2.105 1_655 S
O37 C31 1.268 . S
O38 Sc22 2.105 . S
O38 C30 1.268 . S
O39 Sc23 2.105 . S
O39 C29 1.268 . S
O40 Sc24 2.105 . S
O40 C31 1.268 1_455 S
O41 Sc22 2.105 . S
O41 C27 1.268 . S
O42 Sc24 2.105 . S
O42 C26 1.268 . S
O43 Sc23 2.105 . S
O43 C28 1.268 . S
Sc44 O47 2.025 . S
Sc44 O54 2.105 . S
Sc44 O57 2.105 . S
Sc44 O60 2.105 . S
Sc44 O63 2.105 . S
Sc45 O47 2.025 . S
Sc45 O55 2.105 1_556 S
Sc45 O59 2.105 . S
Sc45 O61 2.105 . S
Sc45 O65 2.105 . S
Sc46 O47 2.025 . S
Sc46 O56 2.105 . S
Sc46 O58 2.105 . S
Sc46 O62 2.105 . S
Sc46 O64 2.105 . S
O47 Sc44 2.025 . S
O47 Sc45 2.025 . S
O47 Sc46 2.025 . S
C48 O54 1.268 . S
C48 O64 1.268 . S
C49 O55 1.268 . S
C49 O63 1.268 1_554 S
C50 O56 1.268 . S
C50 O65 1.268 . S
C51 O57 1.268 . S
C51 O61 1.268 . S
C52 O58 1.268 . S
C52 O60 1.268 . S
C53 O59 1.268 . S
C53 O62 1.268 . S
O54 Sc44 2.105 . S
O54 C48 1.268 . S
O55 Sc45 2.105 1_554 S
O55 C49 1.268 . S
O56 Sc46 2.105 . S
O56 C50 1.268 . S
O57 Sc44 2.105 . S
O57 C51 1.268 . S
O58 Sc46 2.105 . S
O58 C52 1.268 . S
O59 Sc45 2.105 . S
O59 C53 1.268 . S
O60 Sc44 2.105 . S
O60 C52 1.268 . S
O61 Sc45 2.105 . S
O61 C51 1.268 . S
O62 Sc46 2.105 . S
O62 C53 1.268 . S
O63 Sc44 2.105 . S
O63 C49 1.268 1_556 S
O64 Sc46 2.105 . S
O64 C48 1.268 . S
O65 Sc45 2.105 . S
O65 C50 1.268 . S
Sc66 O69 2.025 . S
Sc66 O76 2.105 . S
Sc66 O79 2.105 . S
Sc66 O82 2.105 . S
Sc66 O85 2.105 . S
Sc67 O69 2.025 . S
Sc67 O77 2.105 . S
Sc67 O81 2.105 . S
Sc67 O83 2.105 . S
Sc67 O87 2.105 . S
Sc68 O69 2.025 . S
Sc68 O78 2.105 . S
Sc68 O80 2.105 . S
Sc68 O84 2.105 . S
Sc68 O86 2.105 . S
O69 Sc66 2.025 . S
O69 Sc67 2.025 . S
O69 Sc68 2.025 . S
C70 O76 1.268 . S
C70 O86 1.268 . S
C71 O77 1.268 . S
C71 O85 1.268 . S
C72 O78 1.268 . S
C72 O87 1.268 . S
C73 O79 1.268 . S
C73 O83 1.268 . S
C74 O80 1.268 . S
C74 O82 1.268 . S
C75 O81 1.268 . S
C75 O84 1.268 . S
O76 Sc66 2.105 . S
O76 C70 1.268 . S
O77 Sc67 2.105 . S
O77 C71 1.268 . S
O78 Sc68 2.105 . S
O78 C72 1.268 . S
O79 Sc66 2.105 . S
O79 C73 1.268 . S
O80 Sc68 2.105 . S
O80 C74 1.268 . S
O81 Sc67 2.105 . S
O81 C75 1.268 . S
O82 Sc66 2.105 . S
O82 C74 1.268 . S
O83 Sc67 2.105 . S
O83 C73 1.268 . S
O84 Sc68 2.105 . S
O84 C75 1.268 . S
O85 Sc66 2.105 . S
O85 C71 1.268 . S
O86 Sc68 2.105 . S
O86 C70 1.268 . S
O87 Sc67 2.105 . S
O87 C72 1.268 . S
Sc88 O91 2.025 . S
Sc88 O98 2.105 . S
Sc88 O101 2.105 . S
Sc88 O104 2.105 . S
Sc88 O107 2.105 . S
Sc89 O91 2.025 . S
Sc89 O99 2.105 . S
Sc89 O103 2.105 . S
Sc89 O105 2.105 . S
Sc89 O109 2.105 . S
Sc90 O91 2.025 . S
Sc90 O100 2.105 . S
Sc90 O102 2.105 . S
Sc90 O106 2.105 . S
Sc90 O108 2.105 . S
O91 Sc88 2.025 . S
O91 Sc89 2.025 . S
O91 Sc90 2.025 . S
C92 O98 1.268 . S
C92 O108 1.268 . S
C93 O99 1.268 . S
C93 O107 1.268 . S
C94 O100 1.268 . S
C94 O109 1.268 . S
C95 O101 1.268 . S
C95 O105 1.268 . S
C96 O102 1.268 . S
C96 O104 1.268 . S
C97 O103 1.268 . S
C97 O106 1.268 . S
O98 Sc88 2.105 . S
O98 C92 1.268 . S
O99 Sc89 2.105 . S
O99 C93 1.268 . S
O100 Sc90 2.105 . S
O100 C94 1.268 . S
O101 Sc88 2.105 . S
O101 C95 1.268 . S
O102 Sc90 2.105 . S
O102 C96 1.268 . S
O103 Sc89 2.105 . S
O103 C97 1.268 . S
O104 Sc88 2.105 . S
O104 C96 1.268 . S
O105 Sc89 2.105 . S
O105 C95 1.268 . S
O106 Sc90 2.105 . S
O106 C97 1.268 . S
O107 Sc88 2.105 . S
O107 C93 1.268 . S
O108 Sc90 2.105 . S
O108 C92 1.268 . S
O109 Sc89 2.105 . S
O109 C94 1.268 . S
Sc110 O113 2.025 . S
Sc110 O120 2.105 . S
Sc110 O123 2.105 . S
Sc110 O126 2.105 . S
Sc110 O129 2.105 . S
Sc111 O113 2.025 . S
Sc111 O121 2.105 1_655 S
Sc111 O125 2.105 . S
Sc111 O127 2.105 . S
Sc111 O131 2.105 . S
Sc112 O113 2.025 . S
Sc112 O122 2.105 . S
Sc112 O124 2.105 . S
Sc112 O128 2.105 . S
Sc112 O130 2.105 . S
O113 Sc110 2.025 . S
O113 Sc111 2.025 . S
O113 Sc112 2.025 . S
C114 O120 1.268 . S
C114 O130 1.268 . S
C115 O121 1.268 . S
C115 O129 1.268 1_455 S
C116 O122 1.268 . S
C116 O131 1.268 . S
C117 O123 1.268 . S
C117 O127 1.268 . S
C118 O124 1.268 . S
C118 O126 1.268 . S
C119 O125 1.268 . S
C119 O128 1.268 . S
O120 Sc110 2.105 . S
O120 C114 1.268 . S
O121 Sc111 2.105 1_455 S
O121 C115 1.268 . S
O122 Sc112 2.105 . S
O122 C116 1.268 . S
O123 Sc110 2.105 . S
O123 C117 1.268 . S
O124 Sc112 2.105 . S
O124 C118 1.268 . S
O125 Sc111 2.105 . S
O125 C119 1.268 . S
O126 Sc110 2.105 . S
O126 C118 1.268 . S
O127 Sc111 2.105 . S
O127 C117 1.268 . S
O128 Sc112 2.105 . S
O128 C119 1.268 . S
O129 Sc110 2.105 . S
O129 C115 1.268 1_655 S
O130 Sc112 2.105 . S
O130 C114 1.268 . S
O131 Sc111 2.105 . S
O131 C116 1.268 . S
Sc132 O135 2.025 . S
Sc132 O142 2.105 . S
Sc132 O145 2.105 . S
Sc132 O148 2.105 . S
Sc132 O151 2.105 . S
Sc133 O135 2.025 . S
Sc133 O143 2.105 1_554 S
Sc133 O147 2.105 . S
Sc133 O149 2.105 . S
Sc133 O153 2.105 . S
Sc134 O135 2.025 . S
Sc134 O144 2.105 . S
Sc134 O146 2.105 . S
Sc134 O150 2.105 . S
Sc134 O152 2.105 . S
O135 Sc132 2.025 . S
O135 Sc133 2.025 . S
O135 Sc134 2.025 . S
C136 O142 1.268 . S
C136 O152 1.268 . S
C137 O143 1.268 . S
C137 O151 1.268 1_556 S
C138 O144 1.268 . S
C138 O153 1.268 . S
C139 O145 1.268 . S
C139 O149 1.268 . S
C140 O146 1.268 . S
C140 O148 1.268 . S
C141 O147 1.268 . S
C141 O150 1.268 . S
O142 Sc132 2.105 . S
O142 C136 1.268 . S
O143 Sc133 2.105 1_556 S
O143 C137 1.268 . S
O144 Sc134 2.105 . S
O144 C138 1.268 . S
O145 Sc132 2.105 . S
O145 C139 1.268 . S
O146 Sc134 2.105 . S
O146 C140 1.268 . S
O147 Sc133 2.105 . S
O147 C141 1.268 . S
O148 Sc132 2.105 . S
O148 C140 1.268 . S
O149 Sc133 2.105 . S
O149 C139 1.268 . S
O150 Sc134 2.105 . S
O150 C141 1.268 . S
O151 Sc132 2.105 . S
O151 C137 1.268 1_554 S
O152 Sc134 2.105 . S
O152 C136 1.268 . S
O153 Sc133 2.105 . S
O153 C138 1.268 . S
Sc154 O157 2.025 . S
Sc154 O164 2.105 . S
Sc154 O167 2.105 . S
Sc154 O170 2.105 . S
Sc154 O173 2.105 . S
Sc155 O157 2.025 . S
Sc155 O165 2.105 . S
Sc155 O169 2.105 . S
Sc155 O171 2.105 . S
Sc155 O175 2.105 . S
Sc156 O157 2.025 . S
Sc156 O166 2.105 . S
Sc156 O168 2.105 . S
Sc156 O172 2.105 . S
Sc156 O174 2.105 . S
O157 Sc154 2.025 . S
O157 Sc155 2.025 . S
O157 Sc156 2.025 . S
C158 O164 1.268 . S
C158 O174 1.268 . S
C159 O165 1.268 . S
C159 O173 1.268 . S
C160 O166 1.268 . S
C160 O175 1.268 . S
C161 O167 1.268 . S
C161 O171 1.268 . S
C162 O168 1.268 . S
C162 O170 1.268 . S
C163 O169 1.268 . S
C163 O172 1.268 . S
O164 Sc154 2.105 . S
O164 C158 1.268 . S
O165 Sc155 2.105 . S
O165 C159 1.268 . S
O166 Sc156 2.105 . S
O166 C160 1.268 . S
O167 Sc154 2.105 . S
O167 C161 1.268 . S
O168 Sc156 2.105 . S
O168 C162 1.268 . S
O169 Sc155 2.105 . S
O169 C163 1.268 . S
O170 Sc154 2.105 . S
O170 C162 1.268 . S
O171 Sc155 2.105 . S
O171 C161 1.268 . S
O172 Sc156 2.105 . S
O172 C163 1.268 . S
O173 Sc154 2.105 . S
O173 C159 1.268 . S
O174 Sc156 2.105 . S
O174 C158 1.268 . S
O175 Sc155 2.105 . S
O175 C160 1.268 . S
Sc176 O179 2.025 . S
Sc176 O186 2.105 . S
Sc176 O189 2.105 . S
Sc176 O192 2.105 . S
Sc176 O195 2.105 . S
Sc177 O179 2.025 . S
Sc177 O187 2.105 . S
Sc177 O191 2.105 . S
Sc177 O193 2.105 . S
Sc177 O197 2.105 . S
Sc178 O179 2.025 . S
Sc178 O188 2.105 . S
Sc178 O190 2.105 . S
Sc178 O194 2.105 . S
Sc178 O196 2.105 . S
O179 Sc176 2.025 . S
O179 Sc177 2.025 . S
O179 Sc178 2.025 . S
C180 O186 1.268 . S
C180 O196 1.268 . S
C181 O187 1.268 . S
C181 O195 1.268 . S
C182 O188 1.268 . S
C182 O197 1.268 . S
C183 O189 1.268 . S
C183 O193 1.268 . S
C184 O190 1.268 . S
C184 O192 1.268 . S
C185 O191 1.268 . S
C185 O194 1.268 . S
O186 Sc176 2.105 . S
O186 C180 1.268 . S
O187 Sc177 2.105 . S
O187 C181 1.268 . S
O188 Sc178 2.105 . S
O188 C182 1.268 . S
O189 Sc176 2.105 . S
O189 C183 1.268 . S
O190 Sc178 2.105 . S
O190 C184 1.268 . S
O191 Sc177 2.105 . S
O191 C185 1.268 . S
O192 Sc176 2.105 . S
O192 C184 1.268 . S
O193 Sc177 2.105 . S
O193 C183 1.268 . S
O194 Sc178 2.105 . S
O194 C185 1.268 . S
O195 Sc176 2.105 . S
O195 C181 1.268 . S
O196 Sc178 2.105 . S
O196 C180 1.268 . S
O197 Sc177 2.105 . S
O197 C182 1.268 . S
Sc198 O201 2.025 . S
Sc198 O208 2.105 . S
Sc198 O211 2.105 1_545 S
Sc198 O214 2.105 . S
Sc198 O217 2.105 . S
Sc199 O201 2.025 . S
Sc199 O209 2.105 . S
Sc199 O213 2.105 . S
Sc199 O215 2.105 . S
Sc199 O219 2.105 . S
Sc200 O201 2.025 . S
Sc200 O210 2.105 . S
Sc200 O212 2.105 . S
Sc200 O216 2.105 . S
Sc200 O218 2.105 . S
O201 Sc198 2.025 . S
O201 Sc199 2.025 . S
O201 Sc200 2.025 . S
C202 O208 1.268 . S
C202 O218 1.268 . S
C203 O209 1.268 . S
C203 O217 1.268 . S
C204 O210 1.268 . S
C204 O219 1.268 . S
C205 O211 1.268 . S
C205 O215 1.268 1_565 S
C206 O212 1.268 . S
C206 O214 1.268 . S
C207 O213 1.268 . S
C207 O216 1.268 . S
O208 Sc198 2.105 . S
O208 C202 1.268 . S
O209 Sc199 2.105 . S
O209 C203 1.268 . S
O210 Sc200 2.105 . S
O210 C204 1.268 . S
O211 Sc198 2.105 1_565 S
O211 C205 1.268 . S
O212 Sc200 2.105 . S
O212 C206 1.268 . S
O213 Sc199 2.105 . S
O213 C207 1.268 . S
O214 Sc198 2.105 . S
O214 C206 1.268 . S
O215 Sc199 2.105 . S
O215 C205 1.268 1_545 S
O216 Sc200 2.105 . S
O216 C207 1.268 . S
O217 Sc198 2.105 . S
O217 C203 1.268 . S
O218 Sc200 2.105 . S
O218 C202 1.268 . S
O219 Sc199 2.105 . S
O219 C204 1.268 . S
Sc220 O223 2.025 . S
Sc220 O230 2.105 . S
Sc220 O233 2.105 . S
Sc220 O236 2.105 . S
Sc220 O239 2.105 . S
Sc221 O223 2.025 . S
Sc221 O231 2.105 . S
Sc221 O235 2.105 . S
Sc221 O237 2.105 . S
Sc221 O241 2.105 . S
Sc222 O223 2.025 . S
Sc222 O232 2.105 1_565 S
Sc222 O234 2.105 . S
Sc222 O238 2.105 . S
Sc222 O240 2.105 . S
O223 Sc220 2.025 . S
O223 Sc221 2.025 . S
O223 Sc222 2.025 . S
C224 O230 1.268 . S
C224 O240 1.268 . S
C225 O231 1.268 . S
C225 O239 1.268 . S
C226 O232 1.268 . S
C226 O241 1.268 1_545 S
C227 O233 1.268 . S
C227 O237 1.268 . S
C228 O234 1.268 . S
C228 O236 1.268 . S
C229 O235 1.268 . S
C229 O238 1.268 . S
O230 Sc220 2.105 . S
O230 C224 1.268 . S
O231 Sc221 2.105 . S
O231 C225 1.268 . S
O232 Sc222 2.105 1_545 S
O232 C226 1.268 . S
O233 Sc220 2.105 . S
O233 C227 1.268 . S
O234 Sc222 2.105 . S
O234 C228 1.268 . S
O235 Sc221 2.105 . S
O235 C229 1.268 . S
O236 Sc220 2.105 . S
O236 C228 1.268 . S
O237 Sc221 2.105 . S
O237 C227 1.268 . S
O238 Sc222 2.105 . S
O238 C229 1.268 . S
O239 Sc220 2.105 . S
O239 C225 1.268 . S
O240 Sc222 2.105 . S
O240 C224 1.268 . S
O241 Sc221 2.105 . S
O241 C226 1.268 1_565 S
Sc242 O245 2.025 . S
Sc242 O252 2.105 . S
Sc242 O255 2.105 . S
Sc242 O258 2.105 . S
Sc242 O261 2.105 . S
Sc243 O245 2.025 . S
Sc243 O253 2.105 . S
Sc243 O257 2.105 . S
Sc243 O259 2.105 . S
Sc243 O263 2.105 . S
Sc244 O245 2.025 . S
Sc244 O254 2.105 . S
Sc244 O256 2.105 . S
Sc244 O260 2.105 . S
Sc244 O262 2.105 . S
O245 Sc242 2.025 . S
O245 Sc243 2.025 . S
O245 Sc244 2.025 . S
C246 O252 1.268 . S
C246 O262 1.268 . S
C247 O253 1.268 . S
C247 O261 1.268 . S
C248 O254 1.268 . S
C248 O263 1.268 . S
C249 O255 1.268 . S
C249 O259 1.268 . S
C250 O256 1.268 . S
C250 O258 1.268 . S
C251 O257 1.268 . S
C251 O260 1.268 . S
O252 Sc242 2.105 . S
O252 C246 1.268 . S
O253 Sc243 2.105 . S
O253 C247 1.268 . S
O254 Sc244 2.105 . S
O254 C248 1.268 . S
O255 Sc242 2.105 . S
O255 C249 1.268 . S
O256 Sc244 2.105 . S
O256 C250 1.268 . S
O257 Sc243 2.105 . S
O257 C251 1.268 . S
O258 Sc242 2.105 . S
O258 C250 1.268 . S
O259 Sc243 2.105 . S
O259 C249 1.268 . S
O260 Sc244 2.105 . S
O260 C251 1.268 . S
O261 Sc242 2.105 . S
O261 C247 1.268 . S
O262 Sc244 2.105 . S
O262 C246 1.268 . S
O263 Sc243 2.105 . S
O263 C248 1.268 . S
H264 C272 0.929 . S
H265 C274 0.930 . S
H266 C276 0.930 . S
H267 C279 0.929 . S
H268 C282 0.930 . S
H269 C284 0.960 . S
H270 C284 0.960 . S
H271 C284 0.960 . S
C272 H264 0.929 . S
C272 C273 1.377 . S
C272 C274 1.384 . S
C273 C272 1.377 . S
C273 C279 1.390 . S
C274 H265 0.930 . S
C274 C272 1.384 . S
C274 C275 1.372 . S
C275 C274 1.372 . S
C275 C276 1.400 . S
C275 C280 1.490 . S
C276 H266 0.930 . S
C276 C275 1.400 . S
C276 C279 1.386 . S
H277 C293 0.930 . S
H278 C294 0.931 . S
C279 H267 0.929 . S
C279 C273 1.390 . S
C279 C276 1.386 . S
C280 C275 1.490 . S
C280 C282 1.395 . S
C280 C283 1.403 . S
H281 C287 0.930 . S
C282 H268 0.930 . S
C282 C280 1.395 . S
C282 C285 1.403 . S
C283 C280 1.403 . S
C283 C284 1.524 . S
C283 C287 1.400 . S
C284 H269 0.960 . S
C284 H270 0.960 . S
C284 H271 0.960 . S
C284 C283 1.524 . S
C285 C282 1.403 . S
C285 C286 1.392 . S
C285 C289 1.495 . S
C286 C285 1.392 . S
C286 C287 1.385 . S
C286 C288 1.478 . S
C287 H281 0.930 . S
C287 C283 1.400 . S
C287 C286 1.385 . S
C288 C286 1.478 . S
C288 C290 1.381 . S
C288 C294 1.383 . S
C289 C285 1.495 . S
C289 H295 0.959 . S
C289 H296 0.961 . S
C289 H297 0.960 . S
C290 C288 1.381 . S
C290 C291 1.394 . S
C290 H298 0.930 . S
C291 C290 1.394 . S
C291 C292 1.383 . S
C291 H299 0.929 . S
C292 C291 1.383 . S
C292 C293 1.377 . S
C293 H277 0.930 . S
C293 C292 1.377 . S
C293 C294 1.379 . S
C294 H278 0.931 . S
C294 C288 1.383 . S
C294 C293 1.379 . S
H295 C289 0.959 . S
H296 C289 0.961 . S
H297 C289 0.960 . S
H298 C290 0.930 . S
H299 C291 0.929 . S
H300 C308 0.929 . S
H301 C310 0.930 . S
H302 C312 0.930 . S
H303 C315 0.929 . S
H304 C318 0.930 . S
H305 C320 0.960 . S
H306 C320 0.960 1_565 S
H307 C320 0.960 . S
C308 H300 0.929 . S
C308 C309 1.377 1_565 S
C308 C310 1.384 . S
C309 C308 1.377 1_545 S
C309 C315 1.390 . S
C310 H301 0.930 . S
C310 C308 1.384 . S
C310 C311 1.372 . S
C311 C310 1.372 . S
C311 C312 1.400 1_565 S
C311 C316 1.490 . S
C312 H302 0.930 . S
C312 C311 1.400 1_545 S
C312 C315 1.386 . S
H313 C329 0.930 . S
H314 C330 0.931 . S
C315 H303 0.929 . S
C315 C309 1.390 . S
C315 C312 1.386 . S
C316 C311 1.490 . S
C316 C318 1.395 . S
C316 C319 1.403 . S
H317 C323 0.930 . S
C318 H304 0.930 . S
C318 C316 1.395 . S
C318 C321 1.403 . S
C319 C316 1.403 . S
C319 C320 1.524 1_565 S
C319 C323 1.400 . S
C320 H305 0.960 . S
C320 H306 0.960 1_545 S
C320 H307 0.960 . S
C320 C319 1.524 1_545 S
C321 C318 1.403 . S
C321 C322 1.392 . S
C321 C325 1.495 . S
C322 C321 1.392 . S
C322 C323 1.385 . S
C322 C324 1.478 . S
C323 H317 0.930 . S
C323 C319 1.400 . S
C323 C322 1.385 . S
C324 C322 1.478 . S
C324 C326 1.381 . S
C324 C330 1.383 . S
C325 C321 1.495 . S
C325 H331 0.959 . S
C325 H332 0.961 . S
C325 H333 0.960 . S
C326 C324 1.381 . S
C326 C327 1.394 . S
C326 H334 0.930 . S
C327 C326 1.394 . S
C327 C328 1.383 . S
C327 H335 0.929 . S
C328 C327 1.383 . S
C328 C329 1.377 . S
C329 H313 0.930 . S
C329 C328 1.377 . S
C329 C330 1.379 . S
C330 H314 0.931 . S
C330 C324 1.383 . S
C330 C329 1.379 . S
H331 C325 0.959 . S
H332 C325 0.961 . S
H333 C325 0.960 . S
H334 C326 0.930 . S
H335 C327 0.929 . S
H336 C344 0.914 1_554 S
H337 C346 0.930 . S
H338 C348 0.930 . S
H339 C351 0.929 . S
H340 C354 0.930 . S
H341 C356 0.960 . S
H342 C356 0.960 . S
H343 C356 0.960 . S
C344 H336 0.914 1_556 S
C344 C345 1.411 . S
C344 C346 1.366 1_556 S
C345 C344 1.411 . S
C345 C351 1.390 . S
C346 H337 0.930 . S
C346 C344 1.366 1_554 S
C346 C347 1.372 . S
C347 C346 1.372 . S
C347 C348 1.400 1_554 S
C347 C352 1.490 . S
C348 H338 0.930 . S
C348 C347 1.400 1_556 S
C348 C351 1.386 . S
H349 C365 0.930 . S
H350 C366 0.931 . S
C351 H339 0.929 . S
C351 C345 1.390 . S
C351 C348 1.386 . S
C352 C347 1.490 . S
C352 C354 1.395 . S
C352 C355 1.403 . S
H353 C359 0.930 . S
C354 H340 0.930 . S
C354 C352 1.395 . S
C354 C357 1.403 . S
C355 C352 1.403 . S
C355 C356 1.524 . S
C355 C359 1.400 . S
C356 H341 0.960 . S
C356 H342 0.960 . S
C356 H343 0.960 . S
C356 C355 1.524 . S
C357 C354 1.403 . S
C357 C358 1.392 . S
C357 C361 1.495 . S
C358 C357 1.392 . S
C358 C359 1.385 . S
C358 C360 1.478 . S
C359 H353 0.930 . S
C359 C355 1.400 . S
C359 C358 1.385 . S
C360 C358 1.478 . S
C360 C362 1.381 . S
C360 C366 1.383 . S
C361 C357 1.495 . S
C361 H367 0.959 . S
C361 H368 0.961 . S
C361 H369 0.960 . S
C362 C360 1.381 . S
C362 C363 1.394 . S
C362 H370 0.930 . S
C363 C362 1.394 . S
C363 C364 1.383 . S
C363 H371 0.929 . S
C364 C363 1.383 . S
C364 C365 1.377 . S
C365 H349 0.930 . S
C365 C364 1.377 . S
C365 C366 1.379 . S
C366 H350 0.931 . S
C366 C360 1.383 . S
C366 C365 1.379 . S
H367 C361 0.959 . S
H368 C361 0.961 . S
H369 C361 0.960 . S
H370 C362 0.930 . S
H371 C363 0.929 . S
H372 C380 0.929 . S
H373 C382 0.930 . S
H374 C384 0.930 . S
H375 C387 0.929 . S
H376 C390 0.930 . S
H377 C392 0.960 . S
H378 C392 0.960 . S
H379 C392 0.960 . S
C380 H372 0.929 . S
C380 C381 1.377 . S
C380 C382 1.384 . S
C381 C380 1.377 . S
C381 C387 1.390 . S
C382 H373 0.930 . S
C382 C380 1.384 . S
C382 C383 1.372 . S
C383 C382 1.372 . S
C383 C384 1.400 . S
C383 C388 1.490 . S
C384 H374 0.930 . S
C384 C383 1.400 . S
C384 C387 1.386 . S
H385 C401 0.930 . S
H386 C402 0.931 . S
C387 H375 0.929 . S
C387 C381 1.390 . S
C387 C384 1.386 . S
C388 C383 1.490 . S
C388 C390 1.395 . S
C388 C391 1.403 . S
H389 C395 0.930 . S
C390 H376 0.930 . S
C390 C388 1.395 . S
C390 C393 1.403 1_545 S
C391 C388 1.403 . S
C391 C392 1.524 . S
C391 C395 1.400 . S
C392 H377 0.960 . S
C392 H378 0.960 . S
C392 H379 0.960 . S
C392 C391 1.524 . S
C393 C390 1.403 1_565 S
C393 C394 1.392 1_565 S
C393 C397 1.495 . S
C394 C393 1.392 1_545 S
C394 C395 1.385 . S
C394 C396 1.478 1_545 S
C395 H389 0.930 . S
C395 C391 1.400 . S
C395 C394 1.385 . S
C396 C394 1.478 1_565 S
C396 C398 1.381 . S
C396 C402 1.383 . S
C397 C393 1.495 . S
C397 H403 0.959 . S
C397 H404 0.961 . S
C397 H405 0.960 . S
C398 C396 1.381 . S
C398 C399 1.394 . S
C398 H406 0.930 . S
C399 C398 1.394 . S
C399 C400 1.383 . S
C399 H407 0.929 . S
C400 C399 1.383 . S
C400 C401 1.377 . S
C401 H385 0.930 . S
C401 C400 1.377 . S
C401 C402 1.379 . S
C402 H386 0.931 . S
C402 C396 1.383 . S
C402 C401 1.379 . S
H403 C397 0.959 . S
H404 C397 0.961 . S
H405 C397 0.960 . S
H406 C398 0.930 . S
H407 C399 0.929 . S
H408 C416 0.929 . S
H409 C418 0.930 . S
H410 C420 0.930 . S
H411 C423 0.929 . S
H412 C426 0.930 . S
H413 C428 0.960 . S
H414 C428 0.960 . S
H415 C428 0.960 . S
C416 H408 0.929 . S
C416 C417 1.377 . S
C416 C418 1.384 . S
C417 C416 1.377 . S
C417 C423 1.390 . S
C418 H409 0.930 . S
C418 C416 1.384 . S
C418 C419 1.372 . S
C419 C418 1.372 . S
C419 C420 1.400 . S
C419 C424 1.490 . S
C420 H410 0.930 . S
C420 C419 1.400 . S
C420 C423 1.386 . S
H421 C437 0.930 . S
H422 C438 0.931 . S
C423 H411 0.929 . S
C423 C417 1.390 . S
C423 C420 1.386 . S
C424 C419 1.490 . S
C424 C426 1.395 . S
C424 C427 1.403 . S
H425 C431 0.930 . S
C426 H412 0.930 . S
C426 C424 1.395 . S
C426 C429 1.403 . S
C427 C424 1.403 . S
C427 C428 1.524 . S
C427 C431 1.400 . S
C428 H413 0.960 . S
C428 H414 0.960 . S
C428 H415 0.960 . S
C428 C427 1.524 . S
C429 C426 1.403 . S
C429 C430 1.392 . S
C429 C433 1.495 . S
C430 C429 1.392 . S
C430 C431 1.385 . S
C430 C432 1.478 . S
C431 H425 0.930 . S
C431 C427 1.400 . S
C431 C430 1.385 . S
C432 C430 1.478 . S
C432 C434 1.381 . S
C432 C438 1.383 . S
C433 C429 1.495 . S
C433 H439 0.959 . S
C433 H440 0.961 . S
C433 H441 0.960 . S
C434 C432 1.381 . S
C434 C435 1.394 . S
C434 H442 0.930 . S
C435 C434 1.394 . S
C435 C436 1.383 . S
C435 H443 0.929 . S
C436 C435 1.383 . S
C436 C437 1.377 . S
C437 H421 0.930 . S
C437 C436 1.377 . S
C437 C438 1.379 . S
C438 H422 0.931 . S
C438 C432 1.383 . S
C438 C437 1.379 . S
H439 C433 0.959 . S
H440 C433 0.961 . S
H441 C433 0.960 . S
H442 C434 0.930 . S
H443 C435 0.929 . S
H444 C452 0.929 . S
H445 C454 0.930 . S
H446 C456 0.930 . S
H447 C459 0.929 . S
H448 C462 0.930 . S
H449 C464 0.960 . S
H450 C464 0.960 . S
H451 C464 0.960 . S
C452 H444 0.929 . S
C452 C453 1.377 . S
C452 C454 1.384 . S
C453 C452 1.377 . S
C453 C459 1.390 . S
C454 H445 0.930 . S
C454 C452 1.384 . S
C454 C455 1.372 . S
C455 C454 1.372 . S
C455 C456 1.400 . S
C455 C460 1.490 . S
C456 H446 0.930 . S
C456 C455 1.400 . S
C456 C459 1.386 . S
H457 C473 0.930 . S
H458 C474 0.931 . S
C459 H447 0.929 . S
C459 C453 1.390 . S
C459 C456 1.386 . S
C460 C455 1.490 . S
C460 C462 1.395 . S
C460 C463 1.403 . S
H461 C467 0.930 . S
C462 H448 0.930 . S
C462 C460 1.395 . S
C462 C465 1.403 . S
C463 C460 1.403 . S
C463 C464 1.524 . S
C463 C467 1.400 . S
C464 H449 0.960 . S
C464 H450 0.960 . S
C464 H451 0.960 . S
C464 C463 1.524 . S
C465 C462 1.403 . S
C465 C466 1.392 . S
C465 C469 1.495 . S
C466 C465 1.392 . S
C466 C467 1.385 . S
C466 C468 1.478 . S
C467 H461 0.930 . S
C467 C463 1.400 . S
C467 C466 1.385 . S
C468 C466 1.478 . S
C468 C470 1.381 . S
C468 C474 1.383 . S
C469 C465 1.495 . S
C469 H475 0.959 . S
C469 H476 0.961 . S
C469 H477 0.960 . S
C470 C468 1.381 . S
C470 C471 1.394 . S
C470 H478 0.930 . S
C471 C470 1.394 . S
C471 C472 1.383 . S
C471 H479 0.929 . S
C472 C471 1.383 . S
C472 C473 1.377 . S
C473 H457 0.930 . S
C473 C472 1.377 . S
C473 C474 1.379 . S
C474 H458 0.931 . S
C474 C468 1.383 . S
C474 C473 1.379 . S
H475 C469 0.959 . S
H476 C469 0.961 . S
H477 C469 0.960 . S
H478 C470 0.930 . S
H479 C471 0.929 . S
H480 C488 0.929 . S
H481 C490 0.930 . S
H482 C492 0.930 . S
H483 C495 0.929 . S
H484 C498 0.930 . S
H485 C500 0.960 . S
H486 C500 0.960 . S
H487 C500 0.960 . S
C488 H480 0.929 . S
C488 C489 1.377 . S
C488 C490 1.384 . S
C489 C488 1.377 . S
C489 C495 1.390 . S
C490 H481 0.930 . S
C490 C488 1.384 . S
C490 C491 1.372 . S
C491 C490 1.372 . S
C491 C492 1.400 . S
C491 C496 1.490 . S
C492 H482 0.930 . S
C492 C491 1.400 . S
C492 C495 1.386 . S
H493 C509 0.930 . S
H494 C510 0.931 . S
C495 H483 0.929 . S
C495 C489 1.390 . S
C495 C492 1.386 . S
C496 C491 1.490 . S
C496 C498 1.395 . S
C496 C499 1.403 . S
H497 C503 0.930 . S
C498 H484 0.930 . S
C498 C496 1.395 . S
C498 C501 1.403 . S
C499 C496 1.403 . S
C499 C500 1.524 . S
C499 C503 1.400 . S
C500 H485 0.960 . S
C500 H486 0.960 . S
C500 H487 0.960 . S
C500 C499 1.524 . S
C501 C498 1.403 . S
C501 C502 1.392 . S
C501 C505 1.495 1_556 S
C502 C501 1.392 . S
C502 C503 1.385 . S
C502 C504 1.478 1_556 S
C503 H497 0.930 . S
C503 C499 1.400 . S
C503 C502 1.385 . S
C504 C502 1.478 1_554 S
C504 C506 1.381 1_554 S
C504 C510 1.383 . S
C505 C501 1.495 1_554 S
C505 H511 0.959 . S
C505 H512 0.961 . S
C505 H513 0.960 . S
C506 C504 1.381 1_556 S
C506 C507 1.394 1_556 S
C506 H514 0.930 . S
C507 C506 1.394 1_554 S
C507 C508 1.383 . S
C507 H515 0.929 . S
C508 C507 1.383 . S
C508 C509 1.377 . S
C509 H493 0.930 . S
C509 C508 1.377 . S
C509 C510 1.379 . S
C510 H494 0.931 . S
C510 C504 1.383 . S
C510 C509 1.379 . S
H511 C505 0.959 . S
H512 C505 0.961 . S
H513 C505 0.960 . S
H514 C506 0.930 . S
H515 C507 0.929 . S
H516 C524 0.929 . S
H517 C526 0.930 . S
H518 C528 0.930 . S
H519 C531 0.929 . S
H520 C534 0.930 . S
H521 C536 0.960 . S
H522 C536 0.960 . S
H523 C536 0.960 . S
C524 H516 0.929 . S
C524 C525 1.377 . S
C524 C526 1.384 . S
C525 C524 1.377 . S
C525 C531 1.390 . S
C526 H517 0.930 . S
C526 C524 1.384 . S
C526 C527 1.372 . S
C527 C526 1.372 . S
C527 C528 1.400 . S
C527 C532 1.490 . S
C528 H518 0.930 . S
C528 C527 1.400 . S
C528 C531 1.386 . S
H529 C545 0.930 . S
H530 C546 0.931 . S
C531 H519 0.929 . S
C531 C525 1.390 . S
C531 C528 1.386 . S
C532 C527 1.490 . S
C532 C534 1.395 . S
C532 C535 1.403 . S
H533 C539 0.930 . S
C534 H520 0.930 . S
C534 C532 1.395 . S
C534 C537 1.403 . S
C535 C532 1.403 . S
C535 C536 1.524 . S
C535 C539 1.400 . S
C536 H521 0.960 . S
C536 H522 0.960 . S
C536 H523 0.960 . S
C536 C535 1.524 . S
C537 C534 1.403 . S
C537 C538 1.392 . S
C537 C541 1.495 . S
C538 C537 1.392 . S
C538 C539 1.385 . S
C538 C540 1.478 . S
C539 H533 0.930 . S
C539 C535 1.400 . S
C539 C538 1.385 . S
C540 C538 1.478 . S
C540 C542 1.381 . S
C540 C546 1.383 . S
C541 C537 1.495 . S
C541 H547 0.959 . S
C541 H548 0.961 . S
C541 H549 0.960 . S
C542 C540 1.381 . S
C542 C543 1.394 . S
C542 H550 0.930 . S
C543 C542 1.394 . S
C543 C544 1.383 . S
C543 H551 0.929 . S
C544 C543 1.383 . S
C544 C545 1.377 . S
C545 H529 0.930 . S
C545 C544 1.377 . S
C545 C546 1.379 . S
C546 H530 0.931 . S
C546 C540 1.383 . S
C546 C545 1.379 . S
H547 C541 0.959 . S
H548 C541 0.961 . S
H549 C541 0.960 . S
H550 C542 0.930 . S
H551 C543 0.929 . S
H552 C560 0.929 . S
H553 C562 0.930 . S
H554 C564 0.930 . S
H555 C567 0.929 . S
H556 C570 0.930 . S
H557 C572 0.960 . S
H558 C572 0.960 . S
H559 C572 0.960 . S
C560 H552 0.929 . S
C560 C561 1.377 . S
C560 C562 1.384 . S
C561 C560 1.377 . S
C561 C567 1.390 . S
C562 H553 0.930 . S
C562 C560 1.384 . S
C562 C563 1.372 . S
C563 C562 1.372 . S
C563 C564 1.400 . S
C563 C568 1.490 . S
C564 H554 0.930 . S
C564 C563 1.400 . S
C564 C567 1.386 . S
H565 C581 0.930 . S
H566 C582 0.931 . S
C567 H555 0.929 . S
C567 C561 1.390 . S
C567 C564 1.386 . S
C568 C563 1.490 . S
C568 C570 1.395 . S
C568 C571 1.403 . S
H569 C575 0.930 . S
C570 H556 0.930 . S
C570 C568 1.395 . S
C570 C573 1.403 . S
C571 C568 1.403 . S
C571 C572 1.524 . S
C571 C575 1.400 . S
C572 H557 0.960 . S
C572 H558 0.960 . S
C572 H559 0.960 . S
C572 C571 1.524 . S
C573 C570 1.403 . S
C573 C574 1.392 . S
C573 C577 1.495 . S
C574 C573 1.392 . S
C574 C575 1.385 . S
C574 C576 1.478 . S
C575 H569 0.930 . S
C575 C571 1.400 . S
C575 C574 1.385 . S
C576 C574 1.478 . S
C576 C578 1.381 . S
C576 C582 1.383 . S
C577 C573 1.495 . S
C577 H583 0.959 . S
C577 H584 0.961 . S
C577 H585 0.960 . S
C578 C576 1.381 . S
C578 C579 1.394 . S
C578 H586 0.930 . S
C579 C578 1.394 . S
C579 C580 1.383 . S
C579 H587 0.929 . S
C580 C579 1.383 . S
C580 C581 1.377 . S
C581 H565 0.930 . S
C581 C580 1.377 . S
C581 C582 1.379 . S
C582 H566 0.931 . S
C582 C576 1.383 . S
C582 C581 1.379 . S
H583 C577 0.959 . S
H584 C577 0.961 . S
H585 C577 0.960 . S
H586 C578 0.930 . S
H587 C579 0.929 . S
H588 C596 0.929 . S
H589 C598 0.930 . S
H590 C600 0.930 . S
H591 C603 0.929 . S
H592 C606 0.930 . S
H593 C608 0.960 . S
H594 C608 0.960 . S
H595 C608 0.960 . S
C596 H588 0.929 . S
C596 C597 1.377 . S
C596 C598 1.384 . S
C597 C596 1.377 . S
C597 C603 1.390 . S
C598 H589 0.930 . S
C598 C596 1.384 . S
C598 C599 1.372 . S
C599 C598 1.372 . S
C599 C600 1.400 . S
C599 C604 1.490 . S
C600 H590 0.930 . S
C600 C599 1.400 . S
C600 C603 1.386 . S
H601 C617 0.930 . S
H602 C618 0.931 . S
C603 H591 0.929 . S
C603 C597 1.390 . S
C603 C600 1.386 . S
C604 C599 1.490 . S
C604 C606 1.395 . S
C604 C607 1.403 . S
H605 C611 0.930 . S
C606 H592 0.930 . S
C606 C604 1.395 . S
C606 C609 1.403 1_455 S
C607 C604 1.403 . S
C607 C608 1.524 . S
C607 C611 1.400 . S
C608 H593 0.960 . S
C608 H594 0.960 . S
C608 H595 0.960 . S
C608 C607 1.524 . S
C609 C606 1.403 1_655 S
C609 C610 1.392 1_655 S
C609 C613 1.495 . S
C610 C609 1.392 1_455 S
C610 C611 1.385 . S
C610 C612 1.478 1_455 S
C611 H605 0.930 . S
C611 C607 1.400 . S
C611 C610 1.385 . S
C612 C610 1.478 1_655 S
C612 C614 1.381 . S
C612 C618 1.383 1_655 S
C613 C609 1.495 . S
C613 H619 0.959 . S
C613 H620 0.961 . S
C613 H621 0.960 . S
C614 C612 1.381 . S
C614 C615 1.394 . S
C614 H622 0.930 . S
C615 C614 1.394 . S
C615 C616 1.383 . S
C615 H623 0.929 . S
C616 C615 1.383 . S
C616 C617 1.377 . S
C617 H601 0.930 . S
C617 C616 1.377 . S
C617 C618 1.379 1_655 S
C618 H602 0.931 . S
C618 C612 1.383 1_455 S
C618 C617 1.379 1_455 S
H619 C613 0.959 . S
H620 C613 0.961 . S
H621 C613 0.960 . S
H622 C614 0.930 . S
H623 C615 0.929 . S
H624 C632 0.917 1_655 S
H625 C634 0.930 . S
H626 C636 0.930 . S
H627 C639 0.929 . S
H628 C642 0.930 . S
H629 C644 0.960 . S
H630 C644 0.960 . S
H631 C644 0.960 . S
C632 H624 0.917 1_455 S
C632 C633 1.404 . S
C632 C634 1.370 1_455 S
C633 C632 1.404 . S
C633 C639 1.390 . S
C634 H625 0.930 . S
C634 C632 1.370 1_655 S
C634 C635 1.372 . S
C635 C634 1.372 . S
C635 C636 1.400 1_655 S
C635 C640 1.490 . S
C636 H626 0.930 . S
C636 C635 1.400 1_455 S
C636 C639 1.386 . S
H637 C653 0.930 . S
H638 C654 0.931 . S
C639 H627 0.929 . S
C639 C633 1.390 . S
C639 C636 1.386 . S
C640 C635 1.490 . S
C640 C642 1.395 . S
C640 C643 1.403 . S
H641 C647 0.930 . S
C642 H628 0.930 . S
C642 C640 1.395 . S
C642 C645 1.403 . S
C643 C640 1.403 . S
C643 C644 1.524 . S
C643 C647 1.400 . S
C644 H629 0.960 . S
C644 H630 0.960 . S
C644 H631 0.960 . S
C644 C643 1.524 . S
C645 C642 1.403 . S
C645 C646 1.392 . S
C645 C649 1.495 . S
C646 C645 1.392 . S
C646 C647 1.385 . S
C646 C648 1.478 . S
C647 H641 0.930 . S
C647 C643 1.400 . S
C647 C646 1.385 . S
C648 C646 1.478 . S
C648 C650 1.381 . S
C648 C654 1.383 . S
C649 C645 1.495 . S
C649 H655 0.959 . S
C649 H656 0.961 . S
C649 H657 0.960 . S
C650 C648 1.381 . S
C650 C651 1.394 . S
C650 H658 0.930 . S
C651 C650 1.394 . S
C651 C652 1.383 . S
C651 H659 0.929 . S
C652 C651 1.383 . S
C652 C653 1.377 . S
C653 H637 0.930 . S
C653 C652 1.377 . S
C653 C654 1.379 . S
C654 H638 0.931 . S
C654 C648 1.383 . S
C654 C653 1.379 . S
H655 C649 0.959 . S
H656 C649 0.961 . S
H657 C649 0.960 . S
H658 C650 0.930 . S
H659 C651 0.929 . S
H660 C668 0.929 . S
H661 C670 0.930 . S
H662 C672 0.930 . S
H663 C675 0.929 . S
H664 C678 0.930 . S
H665 C680 0.960 . S
H666 C680 0.960 . S
H667 C680 0.960 . S
C668 H660 0.929 . S
C668 C669 1.377 . S
C668 C670 1.384 . S
C669 C668 1.377 . S
C669 C675 1.390 . S
C670 H661 0.930 . S
C670 C668 1.384 . S
C670 C671 1.372 . S
C671 C670 1.372 . S
C671 C672 1.400 . S
C671 C676 1.490 . S
C672 H662 0.930 . S
C672 C671 1.400 . S
C672 C675 1.386 . S
H673 C689 0.930 . S
H674 C690 0.931 . S
C675 H663 0.929 . S
C675 C669 1.390 . S
C675 C672 1.386 . S
C676 C671 1.490 . S
C676 C678 1.395 . S
C676 C679 1.403 . S
H677 C683 0.930 . S
C678 H664 0.930 . S
C678 C676 1.395 . S
C678 C681 1.403 . S
C679 C676 1.403 . S
C679 C680 1.524 . S
C679 C683 1.400 . S
C680 H665 0.960 . S
C680 H666 0.960 . S
C680 H667 0.960 . S
C680 C679 1.524 . S
C681 C678 1.403 . S
C681 C682 1.392 . S
C681 C685 1.495 . S
C682 C681 1.392 . S
C682 C683 1.385 . S
C682 C684 1.478 . S
C683 H677 0.930 . S
C683 C679 1.400 . S
C683 C682 1.385 . S
C684 C682 1.478 . S
C684 C686 1.381 . S
C684 C690 1.383 . S
C685 C681 1.495 . S
C685 H691 0.959 . S
C685 H692 0.961 . S
C685 H693 0.960 . S
C686 C684 1.381 . S
C686 C687 1.394 . S
C686 H694 0.930 . S
C687 C686 1.394 . S
C687 C688 1.383 . S
C687 H695 0.929 . S
C688 C687 1.383 . S
C688 C689 1.377 . S
C689 H673 0.930 . S
C689 C688 1.377 . S
C689 C690 1.379 . S
C690 H674 0.931 . S
C690 C684 1.383 . S
C690 C689 1.379 . S
H691 C685 0.959 . S
H692 C685 0.961 . S
H693 C685 0.960 . S
H694 C686 0.930 . S
H695 C687 0.929 . S
H696 C704 0.929 . S
H697 C706 0.930 . S
H698 C708 0.930 . S
H699 C711 0.929 . S
H700 C714 0.930 . S
H701 C716 0.960 . S
H702 C716 0.960 . S
H703 C716 0.960 . S
C704 H696 0.929 . S
C704 C705 1.377 . S
C704 C706 1.384 . S
C705 C704 1.377 . S
C705 C711 1.390 . S
C706 H697 0.930 . S
C706 C704 1.384 . S
C706 C707 1.372 . S
C707 C706 1.372 . S
C707 C708 1.400 . S
C707 C712 1.490 . S
C708 H698 0.930 . S
C708 C707 1.400 . S
C708 C711 1.386 . S
H709 C725 0.930 . S
H710 C726 0.931 . S
C711 H699 0.929 . S
C711 C705 1.390 . S
C711 C708 1.386 . S
C712 C707 1.490 . S
C712 C714 1.395 . S
C712 C715 1.403 . S
H713 C719 0.930 . S
C714 H700 0.930 . S
C714 C712 1.395 . S
C714 C717 1.403 . S
C715 C712 1.403 . S
C715 C716 1.524 . S
C715 C719 1.400 . S
C716 H701 0.960 . S
C716 H702 0.960 . S
C716 H703 0.960 . S
C716 C715 1.524 . S
C717 C714 1.403 . S
C717 C718 1.392 . S
C717 C721 1.495 . S
C718 C717 1.392 . S
C718 C719 1.385 . S
C718 C720 1.478 . S
C719 H713 0.930 . S
C719 C715 1.400 . S
C719 C718 1.385 . S
C720 C718 1.478 . S
C720 C722 1.381 . S
C720 C726 1.383 . S
C721 C717 1.495 . S
C721 H727 0.959 . S
C721 H728 0.961 . S
C721 H729 0.960 . S
C722 C720 1.381 . S
C722 C723 1.394 . S
C722 H730 0.930 . S
C723 C722 1.394 . S
C723 C724 1.383 . S
C723 H731 0.929 . S
C724 C723 1.383 . S
C724 C725 1.377 . S
C725 H709 0.930 . S
C725 C724 1.377 . S
C725 C726 1.379 . S
C726 H710 0.931 . S
C726 C720 1.383 . S
C726 C725 1.379 . S
H727 C721 0.959 . S
H728 C721 0.961 . S
H729 C721 0.960 . S
H730 C722 0.930 . S
H731 C723 0.929 . S
H732 C740 0.929 . S
H733 C742 0.930 . S
H734 C744 0.930 . S
H735 C747 0.929 . S
H736 C750 0.930 . S
H737 C752 0.960 . S
H738 C752 0.960 . S
H739 C752 0.960 . S
C740 H732 0.929 . S
C740 C741 1.377 1_655 S
C740 C742 1.384 . S
C741 C740 1.377 1_455 S
C741 C747 1.390 . S
C742 H733 0.930 . S
C742 C740 1.384 . S
C742 C743 1.372 . S
C743 C742 1.372 . S
C743 C744 1.400 . S
C743 C748 1.490 . S
C744 H734 0.930 . S
C744 C743 1.400 . S
C744 C747 1.386 1_655 S
H745 C761 0.930 . S
H746 C762 0.931 . S
C747 H735 0.929 . S
C747 C741 1.390 . S
C747 C744 1.386 1_455 S
C748 C743 1.490 . S
C748 C750 1.395 . S
C748 C751 1.403 . S
H749 C755 0.930 . S
C750 H736 0.930 . S
C750 C748 1.395 . S
C750 C753 1.403 . S
C751 C748 1.403 . S
C751 C752 1.524 . S
C751 C755 1.400 . S
C752 H737 0.960 . S
C752 H738 0.960 . S
C752 H739 0.960 . S
C752 C751 1.524 . S
C753 C750 1.403 . S
C753 C754 1.392 . S
C753 C757 1.495 . S
C754 C753 1.392 . S
C754 C755 1.385 . S
C754 C756 1.478 . S
C755 H749 0.930 . S
C755 C751 1.400 . S
C755 C754 1.385 . S
C756 C754 1.478 . S
C756 C758 1.381 . S
C756 C762 1.383 . S
C757 C753 1.495 . S
C757 H763 0.959 . S
C757 H764 0.961 . S
C757 H765 0.960 . S
C758 C756 1.381 . S
C758 C759 1.394 . S
C758 H766 0.930 . S
C759 C758 1.394 . S
C759 C760 1.383 . S
C759 H767 0.929 . S
C760 C759 1.383 . S
C760 C761 1.377 . S
C761 H745 0.930 . S
C761 C760 1.377 . S
C761 C762 1.379 . S
C762 H746 0.931 . S
C762 C756 1.383 . S
C762 C761 1.379 . S
H763 C757 0.959 . S
H764 C757 0.961 . S
H765 C757 0.960 . S
H766 C758 0.930 . S
H767 C759 0.929 . S
H768 C776 0.929 . S
H769 C778 0.930 . S
H770 C780 0.930 . S
H771 C783 0.929 . S
H772 C786 0.930 . S
H773 C788 0.960 . S
H774 C788 0.960 . S
H775 C788 0.960 . S
C776 H768 0.929 . S
C776 C777 1.377 . S
C776 C778 1.384 . S
C777 C776 1.377 . S
C777 C783 1.390 . S
C778 H769 0.930 . S
C778 C776 1.384 . S
C778 C779 1.372 . S
C779 C778 1.372 . S
C779 C780 1.400 . S
C779 C784 1.490 . S
C780 H770 0.930 . S
C780 C779 1.400 . S
C780 C783 1.386 . S
H781 C797 0.930 . S
H782 C798 0.931 . S
C783 H771 0.929 . S
C783 C777 1.390 . S
C783 C780 1.386 . S
C784 C779 1.490 . S
C784 C786 1.395 . S
C784 C787 1.403 . S
H785 C791 0.930 . S
C786 H772 0.930 . S
C786 C784 1.395 . S
C786 C789 1.403 . S
C787 C784 1.403 . S
C787 C788 1.524 . S
C787 C791 1.400 . S
C788 H773 0.960 . S
C788 H774 0.960 . S
C788 H775 0.960 . S
C788 C787 1.524 . S
C789 C786 1.403 . S
C789 C790 1.392 . S
C789 C793 1.495 . S
C790 C789 1.392 . S
C790 C791 1.385 . S
C790 C792 1.478 . S
C791 H785 0.930 . S
C791 C787 1.400 . S
C791 C790 1.385 . S
C792 C790 1.478 . S
C792 C794 1.381 . S
C792 C798 1.383 . S
C793 C789 1.495 . S
C793 H799 0.959 . S
C793 H800 0.961 . S
C793 H801 0.960 . S
C794 C792 1.381 . S
C794 C795 1.394 . S
C794 H802 0.930 . S
C795 C794 1.394 . S
C795 C796 1.383 . S
C795 H803 0.929 . S
C796 C795 1.383 . S
C796 C797 1.377 . S
C797 H781 0.930 . S
C797 C796 1.377 . S
C797 C798 1.379 . S
C798 H782 0.931 . S
C798 C792 1.383 . S
C798 C797 1.379 . S
H799 C793 0.959 . S
H800 C793 0.961 . S
H801 C793 0.960 . S
H802 C794 0.930 . S
H803 C795 0.929 . S
H804 C812 0.929 . S
H805 C814 0.930 . S
H806 C816 0.930 . S
H807 C819 0.929 . S
H808 C822 0.930 . S
H809 C824 0.960 . S
H810 C824 0.960 . S
H811 C824 0.960 . S
C812 H804 0.929 . S
C812 C813 1.377 . S
C812 C814 1.384 . S
C813 C812 1.377 . S
C813 C819 1.390 . S
C814 H805 0.930 . S
C814 C812 1.384 . S
C814 C815 1.372 . S
C815 C814 1.372 . S
C815 C816 1.400 . S
C815 C820 1.490 . S
C816 H806 0.930 . S
C816 C815 1.400 . S
C816 C819 1.386 . S
H817 C833 0.930 . S
H818 C834 0.931 . S
C819 H807 0.929 . S
C819 C813 1.390 . S
C819 C816 1.386 . S
C820 C815 1.490 . S
C820 C822 1.395 . S
C820 C823 1.403 . S
H821 C827 0.930 1_556 S
C822 H808 0.930 . S
C822 C820 1.395 . S
C822 C825 1.403 . S
C823 C820 1.403 . S
C823 C824 1.524 . S
C823 C827 1.400 . S
C824 H809 0.960 . S
C824 H810 0.960 . S
C824 H811 0.960 . S
C824 C823 1.524 . S
C825 C822 1.403 . S
C825 C826 1.392 . S
C825 C829 1.495 . S
C826 C825 1.392 . S
C826 C827 1.385 . S
C826 C828 1.478 . S
C827 H821 0.930 1_554 S
C827 C823 1.400 . S
C827 C826 1.385 . S
C828 C826 1.478 . S
C828 C830 1.381 . S
C828 C834 1.383 1_554 S
C829 C825 1.495 . S
C829 H835 0.959 . S
C829 H836 0.961 . S
C829 H837 0.960 . S
C830 C828 1.381 . S
C830 C831 1.394 1_554 S
C830 H838 0.930 . S
C831 C830 1.394 1_556 S
C831 C832 1.383 . S
C831 H839 0.929 . S
C832 C831 1.383 . S
C832 C833 1.377 . S
C833 H817 0.930 . S
C833 C832 1.377 . S
C833 C834 1.379 . S
C834 H818 0.931 . S
C834 C828 1.383 1_556 S
C834 C833 1.379 . S
H835 C829 0.959 . S
H836 C829 0.961 . S
H837 C829 0.960 . S
H838 C830 0.930 . S
H839 C831 0.929 . S
H840 C848 0.929 . S
H841 C850 0.930 . S
H842 C852 0.930 . S
H843 C855 0.929 . S
H844 C858 0.930 . S
H845 C860 0.960 . S
H846 C860 0.960 . S
H847 C860 0.960 . S
C848 H840 0.929 . S
C848 C849 1.377 . S
C848 C850 1.384 . S
C849 C848 1.377 . S
C849 C855 1.390 . S
C850 H841 0.930 . S
C850 C848 1.384 . S
C850 C851 1.372 . S
C851 C850 1.372 . S
C851 C852 1.400 . S
C851 C856 1.490 . S
C852 H842 0.930 . S
C852 C851 1.400 . S
C852 C855 1.386 . S
H853 C869 0.930 . S
H854 C870 0.931 . S
C855 H843 0.929 . S
C855 C849 1.390 . S
C855 C852 1.386 . S
C856 C851 1.490 . S
C856 C858 1.395 . S
C856 C859 1.403 . S
H857 C863 0.930 . S
C858 H844 0.930 . S
C858 C856 1.395 . S
C858 C861 1.403 . S
C859 C856 1.403 . S
C859 C860 1.524 . S
C859 C863 1.400 . S
C860 H845 0.960 . S
C860 H846 0.960 . S
C860 H847 0.960 . S
C860 C859 1.524 . S
C861 C858 1.403 . S
C861 C862 1.392 . S
C861 C865 1.495 . S
C862 C861 1.392 . S
C862 C863 1.385 . S
C862 C864 1.478 . S
C863 H857 0.930 . S
C863 C859 1.400 . S
C863 C862 1.385 . S
C864 C862 1.478 . S
C864 C866 1.381 . S
C864 C870 1.383 . S
C865 C861 1.495 . S
C865 H871 0.959 . S
C865 H872 0.961 . S
C865 H873 0.960 . S
C866 C864 1.381 . S
C866 C867 1.394 . S
C866 H874 0.930 . S
C867 C866 1.394 . S
C867 C868 1.383 . S
C867 H875 0.929 . S
C868 C867 1.383 . S
C868 C869 1.377 . S
C869 H853 0.930 . S
C869 C868 1.377 . S
C869 C870 1.379 . S
C870 H854 0.931 . S
C870 C864 1.383 . S
C870 C869 1.379 . S
H871 C865 0.959 . S
H872 C865 0.961 . S
H873 C865 0.960 . S
H874 C866 0.930 . S
H875 C867 0.929 . S
H876 C884 0.929 . S
H877 C886 0.930 . S
H878 C888 0.930 . S
H879 C891 0.929 . S
H880 C894 0.930 . S
H881 C896 0.960 . S
H882 C896 0.960 . S
H883 C896 0.960 . S
C884 H876 0.929 . S
C884 C885 1.377 . S
C884 C886 1.384 1_554 S
C885 C884 1.377 . S
C885 C891 1.390 . S
C886 H877 0.930 . S
C886 C884 1.384 1_556 S
C886 C887 1.372 . S
C887 C886 1.372 . S
C887 C888 1.400 1_556 S
C887 C892 1.490 . S
C888 H878 0.930 . S
C888 C887 1.400 1_554 S
C888 C891 1.386 . S
H889 C905 0.930 . S
H890 C906 0.931 . S
C891 H879 0.929 . S
C891 C885 1.390 . S
C891 C888 1.386 . S
C892 C887 1.490 . S
C892 C894 1.395 . S
C892 C895 1.403 . S
H893 C899 0.930 . S
C894 H880 0.930 . S
C894 C892 1.395 . S
C894 C897 1.403 . S
C895 C892 1.403 . S
C895 C896 1.524 1_556 S
C895 C899 1.400 . S
C896 H881 0.960 . S
C896 H882 0.960 . S
C896 H883 0.960 . S
C896 C895 1.524 1_554 S
C897 C894 1.403 . S
C897 C898 1.392 . S
C897 C901 1.495 . S
C898 C897 1.392 . S
C898 C899 1.385 . S
C898 C900 1.478 . S
C899 H893 0.930 . S
C899 C895 1.400 . S
C899 C898 1.385 . S
C900 C898 1.478 . S
C900 C902 1.381 . S
C900 C906 1.383 . S
C901 C897 1.495 . S
C901 H907 0.959 . S
C901 H908 0.961 . S
C901 H909 0.960 . S
C902 C900 1.381 . S
C902 C903 1.394 . S
C902 H910 0.930 . S
C903 C902 1.394 . S
C903 C904 1.383 1_455 S
C903 H911 0.929 . S
C904 C903 1.383 1_655 S
C904 C905 1.377 . S
C905 H889 0.930 . S
C905 C904 1.377 . S
C905 C906 1.379 1_655 S
C906 H890 0.931 . S
C906 C900 1.383 . S
C906 C905 1.379 1_455 S
H907 C901 0.959 . S
H908 C901 0.961 . S
H909 C901 0.960 . S
H910 C902 0.930 . S
H911 C903 0.929 . S
H912 C920 0.929 . S
H913 C922 0.930 . S
H914 C924 0.930 . S
H915 C927 0.929 . S
H916 C930 0.930 . S
H917 C932 0.960 . S
H918 C932 0.960 . S
H919 C932 0.960 . S
C920 H912 0.929 . S
C920 C921 1.377 . S
C920 C922 1.384 . S
C921 C920 1.377 . S
C921 C927 1.390 . S
C922 H913 0.930 . S
C922 C920 1.384 . S
C922 C923 1.372 . S
C923 C922 1.372 . S
C923 C924 1.400 . S
C923 C928 1.490 . S
C924 H914 0.930 . S
C924 C923 1.400 . S
C924 C927 1.386 . S
H925 C941 0.930 . S
H926 C942 0.931 . S
C927 H915 0.929 . S
C927 C921 1.390 . S
C927 C924 1.386 . S
C928 C923 1.490 . S
C928 C930 1.395 . S
C928 C931 1.403 . S
H929 C935 0.930 . S
C930 H916 0.930 . S
C930 C928 1.395 . S
C930 C933 1.403 . S
C931 C928 1.403 . S
C931 C932 1.524 . S
C931 C935 1.400 . S
C932 H917 0.960 . S
C932 H918 0.960 . S
C932 H919 0.960 . S
C932 C931 1.524 . S
C933 C930 1.403 . S
C933 C934 1.392 . S
C933 C937 1.495 . S
C934 C933 1.392 . S
C934 C935 1.385 . S
C934 C936 1.478 . S
C935 H929 0.930 . S
C935 C931 1.400 . S
C935 C934 1.385 . S
C936 C934 1.478 . S
C936 C938 1.381 . S
C936 C942 1.383 . S
C937 C933 1.495 . S
C937 H943 0.959 . S
C937 H944 0.961 . S
C937 H945 0.960 . S
C938 C936 1.381 . S
C938 C939 1.394 . S
C938 H946 0.930 . S
C939 C938 1.394 . S
C939 C940 1.383 . S
C939 H947 0.929 . S
C940 C939 1.383 . S
C940 C941 1.377 . S
C941 H925 0.930 . S
C941 C940 1.377 . S
C941 C942 1.379 . S
C942 H926 0.931 . S
C942 C936 1.383 . S
C942 C941 1.379 . S
H943 C937 0.959 . S
H944 C937 0.961 . S
H945 C937 0.960 . S
H946 C938 0.930 . S
H947 C939 0.929 . S
H948 C956 0.929 . S
H949 C958 0.930 . S
H950 C960 0.930 . S
H951 C963 0.929 . S
H952 C966 0.930 . S
H953 C968 0.960 . S
H954 C968 0.960 . S
H955 C968 0.960 . S
C956 H948 0.929 . S
C956 C957 1.377 . S
C956 C958 1.384 . S
C957 C956 1.377 . S
C957 C963 1.390 . S
C958 H949 0.930 . S
C958 C956 1.384 . S
C958 C959 1.372 . S
C959 C958 1.372 . S
C959 C960 1.400 . S
C959 C964 1.490 . S
C960 H950 0.930 . S
C960 C959 1.400 . S
C960 C963 1.386 . S
H961 C977 0.930 . S
H962 C978 0.931 . S
C963 H951 0.929 . S
C963 C957 1.390 . S
C963 C960 1.386 . S
C964 C959 1.490 . S
C964 C966 1.395 . S
C964 C967 1.403 . S
H965 C971 0.930 . S
C966 H952 0.930 . S
C966 C964 1.395 . S
C966 C969 1.403 . S
C967 C964 1.403 . S
C967 C968 1.524 . S
C967 C971 1.400 . S
C968 H953 0.960 . S
C968 H954 0.960 . S
C968 H955 0.960 . S
C968 C967 1.524 . S
C969 C966 1.403 . S
C969 C970 1.392 . S
C969 C973 1.495 . S
C970 C969 1.392 . S
C970 C971 1.385 . S
C970 C972 1.478 . S
C971 H965 0.930 . S
C971 C967 1.400 . S
C971 C970 1.385 . S
C972 C970 1.478 . S
C972 C974 1.381 . S
C972 C978 1.383 . S
C973 C969 1.495 . S
C973 H979 0.959 . S
C973 H980 0.961 . S
C973 H981 0.960 . S
C974 C972 1.381 . S
C974 C975 1.394 . S
C974 H982 0.930 . S
C975 C974 1.394 . S
C975 C976 1.383 . S
C975 H983 0.929 . S
C976 C975 1.383 . S
C976 C977 1.377 . S
C977 H961 0.930 . S
C977 C976 1.377 . S
C977 C978 1.379 . S
C978 H962 0.931 . S
C978 C972 1.383 . S
C978 C977 1.379 . S
H979 C973 0.959 . S
H980 C973 0.961 . S
H981 C973 0.960 . S
H982 C974 0.930 . S
H983 C975 0.929 . S
H984 C992 0.929 . S
H985 C994 0.930 . S
H986 C996 0.930 . S
H987 C999 0.929 . S
H988 C1002 0.930 . S
H989 C1004 0.960 . S
H990 C1004 0.960 . S
H991 C1004 0.960 . S
C992 H984 0.929 . S
C992 C993 1.377 . S
C992 C994 1.384 . S
C993 C992 1.377 . S
C993 C999 1.390 . S
C994 H985 0.930 . S
C994 C992 1.384 . S
C994 C995 1.372 . S
C995 C994 1.372 . S
C995 C996 1.400 . S
C995 C1000 1.490 . S
C996 H986 0.930 . S
C996 C995 1.400 . S
C996 C999 1.386 . S
H997 C1013 0.930 . S
H998 C1014 0.931 . S
C999 H987 0.929 . S
C999 C993 1.390 . S
C999 C996 1.386 . S
C1000 C995 1.490 . S
C1000 C1002 1.395 . S
C1000 C1003 1.403 . S
H1001 C1007 0.930 . S
C1002 H988 0.930 . S
C1002 C1000 1.395 . S
C1002 C1005 1.403 . S
C1003 C1000 1.403 . S
C1003 C1004 1.524 . S
C1003 C1007 1.400 . S
C1004 H989 0.960 . S
C1004 H990 0.960 . S
C1004 H991 0.960 . S
C1004 C1003 1.524 . S
C1005 C1002 1.403 . S
C1005 C1006 1.392 . S
C1005 C1009 1.495 . S
C1006 C1005 1.392 . S
C1006 C1007 1.385 . S
C1006 C1008 1.478 . S
C1007 H1001 0.930 . S
C1007 C1003 1.400 . S
C1007 C1006 1.385 . S
C1008 C1006 1.478 . S
C1008 C1010 1.381 . S
C1008 C1014 1.383 . S
C1009 C1005 1.495 . S
C1009 H1015 0.959 . S
C1009 H1016 0.961 . S
C1009 H1017 0.960 . S
C1010 C1008 1.381 . S
C1010 C1011 1.394 . S
C1010 H1018 0.930 . S
C1011 C1010 1.394 . S
C1011 C1012 1.383 . S
C1011 H1019 0.929 . S
C1012 C1011 1.383 . S
C1012 C1013 1.377 . S
C1013 H997 0.930 . S
C1013 C1012 1.377 . S
C1013 C1014 1.379 . S
C1014 H998 0.931 . S
C1014 C1008 1.383 . S
C1014 C1013 1.379 . S
H1015 C1009 0.959 . S
H1016 C1009 0.961 . S
H1017 C1009 0.960 . S
H1018 C1010 0.930 . S
H1019 C1011 0.929 . S
H1020 C1028 0.929 . S
H1021 C1030 0.930 . S
H1022 C1032 0.930 . S
H1023 C1035 0.929 . S
H1024 C1038 0.930 . S
H1025 C1040 0.960 . S
H1026 C1040 0.960 . S
H1027 C1040 0.960 . S
C1028 H1020 0.929 . S
C1028 C1029 1.377 . S
C1028 C1030 1.384 . S
C1029 C1028 1.377 . S
C1029 C1035 1.390 . S
C1030 H1021 0.930 . S
C1030 C1028 1.384 . S
C1030 C1031 1.372 . S
C1031 C1030 1.372 . S
C1031 C1032 1.400 . S
C1031 C1036 1.490 . S
C1032 H1022 0.930 . S
C1032 C1031 1.400 . S
C1032 C1035 1.386 . S
H1033 C1049 0.930 . S
H1034 C1050 0.931 . S
C1035 H1023 0.929 . S
C1035 C1029 1.390 . S
C1035 C1032 1.386 . S
C1036 C1031 1.490 . S
C1036 C1038 1.395 . S
C1036 C1039 1.403 . S
H1037 C1043 0.930 . S
C1038 H1024 0.930 . S
C1038 C1036 1.395 . S
C1038 C1041 1.403 . S
C1039 C1036 1.403 . S
C1039 C1040 1.524 . S
C1039 C1043 1.400 . S
C1040 H1025 0.960 . S
C1040 H1026 0.960 . S
C1040 H1027 0.960 . S
C1040 C1039 1.524 . S
C1041 C1038 1.403 . S
C1041 C1042 1.392 . S
C1041 C1045 1.495 1_545 S
C1042 C1041 1.392 . S
C1042 C1043 1.385 . S
C1042 C1044 1.478 1_545 S
C1043 H1037 0.930 . S
C1043 C1039 1.400 . S
C1043 C1042 1.385 . S
C1044 C1042 1.478 1_565 S
C1044 C1046 1.381 . S
C1044 C1050 1.383 1_565 S
C1045 C1041 1.495 1_565 S
C1045 H1051 0.959 1_565 S
C1045 H1052 0.957 1_565 S
C1045 H1053 0.960 . S
C1046 C1044 1.381 . S
C1046 C1047 1.394 . S
C1046 H1054 0.930 . S
C1047 C1046 1.394 . S
C1047 C1048 1.383 . S
C1047 H1055 0.929 . S
C1048 C1047 1.383 . S
C1048 C1049 1.377 . S
C1049 H1033 0.930 . S
C1049 C1048 1.377 . S
C1049 C1050 1.379 1_565 S
C1050 H1034 0.931 . S
C1050 C1044 1.383 1_545 S
C1050 C1049 1.379 1_545 S
H1051 C1045 0.959 1_545 S
H1052 C1045 0.957 1_545 S
H1053 C1045 0.960 . S
H1054 C1046 0.930 . S
H1055 C1047 0.929 . S
H1056 C1064 0.929 . S
H1057 C1066 0.930 . S
H1058 C1068 0.930 . S
H1059 C1071 0.929 . S
H1060 C1074 0.930 . S
H1061 C1076 0.960 . S
H1062 C1076 0.960 . S
H1063 C1076 0.960 . S
C1064 H1056 0.929 . S
C1064 C1065 1.377 . S
C1064 C1066 1.384 . S
C1065 C1064 1.377 . S
C1065 C1071 1.390 . S
C1066 H1057 0.930 . S
C1066 C1064 1.384 . S
C1066 C1067 1.372 . S
C1067 C1066 1.372 . S
C1067 C1068 1.400 . S
C1067 C1072 1.490 . S
C1068 H1058 0.930 . S
C1068 C1067 1.400 . S
C1068 C1071 1.386 . S
H1069 C1085 0.930 . S
H1070 C1086 0.931 . S
C1071 H1059 0.929 . S
C1071 C1065 1.390 . S
C1071 C1068 1.386 . S
C1072 C1067 1.490 . S
C1072 C1074 1.395 . S
C1072 C1075 1.403 . S
H1073 C1079 0.930 . S
C1074 H1060 0.930 . S
C1074 C1072 1.395 . S
C1074 C1077 1.403 . S
C1075 C1072 1.403 . S
C1075 C1076 1.524 . S
C1075 C1079 1.400 . S
C1076 H1061 0.960 . S
C1076 H1062 0.960 . S
C1076 H1063 0.960 . S
C1076 C1075 1.524 . S
C1077 C1074 1.403 . S
C1077 C1078 1.392 . S
C1077 C1081 1.495 . S
C1078 C1077 1.392 . S
C1078 C1079 1.385 . S
C1078 C1080 1.478 . S
C1079 H1073 0.930 . S
C1079 C1075 1.400 . S
C1079 C1078 1.385 . S
C1080 C1078 1.478 . S
C1080 C1082 1.381 . S
C1080 C1086 1.383 . S
C1081 C1077 1.495 . S
C1081 H1087 0.959 . S
C1081 H1088 0.961 . S
C1081 H1089 0.960 . S
C1082 C1080 1.381 . S
C1082 C1083 1.394 . S
C1082 H1090 0.930 . S
C1083 C1082 1.394 . S
C1083 C1084 1.383 . S
C1083 H1091 0.929 . S
C1084 C1083 1.383 . S
C1084 C1085 1.377 . S
C1085 H1069 0.930 . S
C1085 C1084 1.377 . S
C1085 C1086 1.379 . S
C1086 H1070 0.931 . S
C1086 C1080 1.383 . S
C1086 C1085 1.379 . S
H1087 C1081 0.959 . S
H1088 C1081 0.961 . S
H1089 C1081 0.960 . S
H1090 C1082 0.930 . S
H1091 C1083 0.929 . S
H1092 C1100 0.929 . S
H1093 C1102 0.930 . S
H1094 C1104 0.931 . S
H1095 C1107 0.929 . S
H1096 C1110 0.930 1_545 S
H1097 C1112 0.960 . S
H1098 C1112 0.960 . S
H1099 C1112 0.960 . S
C1100 H1092 0.929 . S
C1100 C1101 1.377 . S
C1100 C1102 1.384 . S
C1101 C1100 1.377 . S
C1101 C1107 1.390 . S
C1102 H1093 0.930 . S
C1102 C1100 1.384 . S
C1102 C1103 1.372 . S
C1103 C1102 1.372 . S
C1103 C1104 1.400 1_545 S
C1103 C1108 1.490 1_545 S
C1104 H1094 0.931 . S
C1104 C1103 1.400 1_565 S
C1104 C1107 1.385 1_565 S
H1105 C1121 0.930 1_556 S
H1106 C1122 0.931 . S
C1107 H1095 0.929 . S
C1107 C1101 1.390 . S
C1107 C1104 1.385 1_545 S
C1108 C1103 1.490 1_565 S
C1108 C1110 1.395 . S
C1108 C1111 1.403 . S
H1109 C1115 0.930 . S
C1110 H1096 0.930 1_565 S
C1110 C1108 1.395 . S
C1110 C1113 1.403 . S
C1111 C1108 1.403 . S
C1111 C1112 1.524 . S
C1111 C1115 1.400 . S
C1112 H1097 0.960 . S
C1112 H1098 0.960 . S
C1112 H1099 0.960 . S
C1112 C1111 1.524 . S
C1113 C1110 1.403 . S
C1113 C1114 1.392 . S
C1113 C1117 1.495 . S
C1114 C1113 1.392 . S
C1114 C1115 1.385 . S
C1114 C1116 1.478 . S
C1115 H1109 0.930 . S
C1115 C1111 1.400 . S
C1115 C1114 1.385 . S
C1116 C1114 1.478 . S
C1116 C1118 1.381 . S
C1116 C1122 1.383 . S
C1117 C1113 1.495 . S
C1117 H1123 0.959 1_565 S
C1117 H1124 0.961 . S
C1117 H1125 0.960 . S
C1118 C1116 1.381 . S
C1118 C1119 1.394 . S
C1118 H1126 0.930 . S
C1119 C1118 1.394 . S
C1119 C1120 1.383 1_554 S
C1119 H1127 0.929 1_554 S
C1120 C1119 1.383 1_556 S
C1120 C1121 1.377 1_556 S
C1121 H1105 0.930 1_554 S
C1121 C1120 1.377 1_554 S
C1121 C1122 1.379 . S
C1122 H1106 0.931 . S
C1122 C1116 1.383 . S
C1122 C1121 1.379 . S
H1123 C1117 0.959 1_545 S
H1124 C1117 0.961 . S
H1125 C1117 0.960 . S
H1126 C1118 0.930 . S
H1127 C1119 0.929 1_556 S
H1128 C1136 0.929 . S
H1129 C1138 0.930 . S
H1130 C1140 0.930 . S
H1131 C1143 0.929 . S
H1132 C1146 0.930 . S
H1133 C1148 0.960 . S
H1134 C1148 0.960 . S
H1135 C1148 0.960 . S
C1136 H1128 0.929 . S
C1136 C1137 1.377 . S
C1136 C1138 1.384 . S
C1137 C1136 1.377 . S
C1137 C1143 1.390 . S
C1138 H1129 0.930 . S
C1138 C1136 1.384 . S
C1138 C1139 1.372 . S
C1139 C1138 1.372 . S
C1139 C1140 1.400 . S
C1139 C1144 1.490 . S
C1140 H1130 0.930 . S
C1140 C1139 1.400 . S
C1140 C1143 1.386 . S
H1141 C1157 0.930 . S
H1142 C1158 0.931 . S
C1143 H1131 0.929 . S
C1143 C1137 1.390 . S
C1143 C1140 1.386 . S
C1144 C1139 1.490 . S
C1144 C1146 1.395 . S
C1144 C1147 1.403 . S
H1145 C1151 0.930 . S
C1146 H1132 0.930 . S
C1146 C1144 1.395 . S
C1146 C1149 1.403 . S
C1147 C1144 1.403 . S
C1147 C1148 1.524 . S
C1147 C1151 1.400 . S
C1148 H1133 0.960 . S
C1148 H1134 0.960 . S
C1148 H1135 0.960 . S
C1148 C1147 1.524 . S
C1149 C1146 1.403 . S
C1149 C1150 1.392 . S
C1149 C1153 1.495 . S
C1150 C1149 1.392 . S
C1150 C1151 1.385 . S
C1150 C1152 1.478 . S
C1151 H1145 0.930 . S
C1151 C1147 1.400 . S
C1151 C1150 1.385 . S
C1152 C1150 1.478 . S
C1152 C1154 1.381 . S
C1152 C1158 1.383 . S
C1153 C1149 1.495 . S
C1153 H1159 0.959 . S
C1153 H1160 0.961 . S
C1153 H1161 0.960 . S
C1154 C1152 1.381 . S
C1154 C1155 1.394 . S
C1154 H1162 0.930 . S
C1155 C1154 1.394 . S
C1155 C1156 1.383 . S
C1155 H1163 0.929 . S
C1156 C1155 1.383 . S
C1156 C1157 1.377 . S
C1157 H1141 0.930 . S
C1157 C1156 1.377 . S
C1157 C1158 1.379 . S
C1158 H1142 0.931 . S
C1158 C1152 1.383 . S
C1158 C1157 1.379 . S
H1159 C1153 0.959 . S
H1160 C1153 0.961 . S
H1161 C1153 0.960 . S
H1162 C1154 0.930 . S
H1163 C1155 0.929 . S
H1164 C1172 0.929 . S
H1165 C1174 0.930 . S
H1166 C1176 0.930 . S
H1167 C1179 0.929 . S
H1168 C1182 0.930 . S
H1169 C1184 0.960 . S
H1170 C1184 0.960 . S
H1171 C1184 0.960 . S
C1172 H1164 0.929 . S
C1172 C1173 1.377 . S
C1172 C1174 1.384 . S
C1173 C1172 1.377 . S
C1173 C1179 1.390 . S
C1174 H1165 0.930 . S
C1174 C1172 1.384 . S
C1174 C1175 1.372 . S
C1175 C1174 1.372 . S
C1175 C1176 1.400 . S
C1175 C1180 1.490 . S
C1176 H1166 0.930 . S
C1176 C1175 1.400 . S
C1176 C1179 1.386 . S
H1177 C1193 0.930 1_554 S
H1178 C1194 0.931 . S
C1179 H1167 0.929 . S
C1179 C1173 1.390 . S
C1179 C1176 1.386 . S
C1180 C1175 1.490 . S
C1180 C1182 1.395 . S
C1180 C1183 1.403 . S
H1181 C1187 0.930 . S
C1182 H1168 0.930 . S
C1182 C1180 1.395 . S
C1182 C1185 1.403 . S
C1183 C1180 1.403 . S
C1183 C1184 1.524 . S
C1183 C1187 1.400 . S
C1184 H1169 0.960 . S
C1184 H1170 0.960 . S
C1184 H1171 0.960 . S
C1184 C1183 1.524 . S
C1185 C1182 1.403 . S
C1185 C1186 1.392 . S
C1185 C1189 1.495 . S
C1186 C1185 1.392 . S
C1186 C1187 1.385 . S
C1186 C1188 1.478 . S
C1187 H1181 0.930 . S
C1187 C1183 1.400 . S
C1187 C1186 1.385 . S
C1188 C1186 1.478 . S
C1188 C1190 1.381 . S
C1188 C1194 1.383 . S
C1189 C1185 1.495 . S
C1189 H1195 0.959 . S
C1189 H1196 0.961 . S
C1189 H1197 0.960 . S
C1190 C1188 1.381 . S
C1190 C1191 1.394 . S
C1190 H1198 0.930 . S
C1191 C1190 1.394 . S
C1191 C1192 1.383 1_556 S
C1191 H1199 0.929 . S
C1192 C1191 1.383 1_554 S
C1192 C1193 1.377 1_554 S
C1193 H1177 0.930 1_556 S
C1193 C1192 1.377 1_556 S
C1193 C1194 1.379 . S
C1194 H1178 0.931 . S
C1194 C1188 1.383 . S
C1194 C1193 1.379 . S
H1195 C1189 0.959 . S
H1196 C1189 0.961 . S
H1197 C1189 0.960 . S
H1198 C1190 0.930 . S
H1199 C1191 0.929 . S
H1200 C1208 0.929 . S
H1201 C1210 0.930 . S
H1202 C1212 0.930 . S
H1203 C1215 0.929 . S
H1204 C1218 0.930 . S
H1205 C1220 0.960 . S
H1206 C1220 0.960 . S
H1207 C1220 0.960 . S
C1208 H1200 0.929 . S
C1208 C1209 1.377 . S
C1208 C1210 1.384 . S
C1209 C1208 1.377 . S
C1209 C1215 1.390 . S
C1210 H1201 0.930 . S
C1210 C1208 1.384 . S
C1210 C1211 1.372 . S
C1211 C1210 1.372 . S
C1211 C1212 1.400 . S
C1211 C1216 1.490 . S
C1212 H1202 0.930 . S
C1212 C1211 1.400 . S
C1212 C1215 1.386 . S
H1213 C1229 0.930 . S
H1214 C1230 0.931 . S
C1215 H1203 0.929 . S
C1215 C1209 1.390 . S
C1215 C1212 1.386 . S
C1216 C1211 1.490 . S
C1216 C1218 1.395 . S
C1216 C1219 1.403 . S
H1217 C1223 0.930 . S
C1218 H1204 0.930 . S
C1218 C1216 1.395 . S
C1218 C1221 1.403 . S
C1219 C1216 1.403 . S
C1219 C1220 1.524 . S
C1219 C1223 1.400 . S
C1220 H1205 0.960 . S
C1220 H1206 0.960 . S
C1220 H1207 0.960 . S
C1220 C1219 1.524 . S
C1221 C1218 1.403 . S
C1221 C1222 1.392 . S
C1221 C1225 1.495 . S
C1222 C1221 1.392 . S
C1222 C1223 1.385 . S
C1222 C1224 1.478 . S
C1223 H1217 0.930 . S
C1223 C1219 1.400 . S
C1223 C1222 1.385 . S
C1224 C1222 1.478 . S
C1224 C1226 1.381 . S
C1224 C1230 1.383 . S
C1225 C1221 1.495 . S
C1225 H1231 0.959 . S
C1225 H1232 0.961 . S
C1225 H1233 0.960 . S
C1226 C1224 1.381 . S
C1226 C1227 1.394 . S
C1226 H1234 0.930 . S
C1227 C1226 1.394 . S
C1227 C1228 1.383 . S
C1227 H1235 0.929 . S
C1228 C1227 1.383 . S
C1228 C1229 1.377 . S
C1229 H1213 0.930 . S
C1229 C1228 1.377 . S
C1229 C1230 1.379 . S
C1230 H1214 0.931 . S
C1230 C1224 1.383 . S
C1230 C1229 1.379 . S
H1231 C1225 0.959 . S
H1232 C1225 0.961 . S
H1233 C1225 0.960 . S
H1234 C1226 0.930 . S
H1235 C1227 0.929 . S
H1236 C1244 0.929 . S
H1237 C1246 0.930 . S
H1238 C1248 0.930 . S
H1239 C1251 0.929 . S
H1240 C1254 0.930 . S
H1241 C1256 0.960 . S
H1242 C1256 0.960 . S
H1243 C1256 0.960 . S
C1244 H1236 0.929 . S
C1244 C1245 1.377 . S
C1244 C1246 1.384 . S
C1245 C1244 1.377 . S
C1245 C1251 1.390 . S
C1246 H1237 0.930 . S
C1246 C1244 1.384 . S
C1246 C1247 1.372 . S
C1247 C1246 1.372 . S
C1247 C1248 1.400 . S
C1247 C1252 1.490 . S
C1248 H1238 0.930 . S
C1248 C1247 1.400 . S
C1248 C1251 1.386 . S
H1249 C1265 0.930 . S
H1250 C1266 0.931 . S
C1251 H1239 0.929 . S
C1251 C1245 1.390 . S
C1251 C1248 1.386 . S
C1252 C1247 1.490 . S
C1252 C1254 1.395 . S
C1252 C1255 1.403 . S
H1253 C1259 0.930 . S
C1254 H1240 0.930 . S
C1254 C1252 1.395 . S
C1254 C1257 1.403 . S
C1255 C1252 1.403 . S
C1255 C1256 1.524 . S
C1255 C1259 1.400 . S
C1256 H1241 0.960 . S
C1256 H1242 0.960 . S
C1256 H1243 0.960 . S
C1256 C1255 1.524 . S
C1257 C1254 1.403 . S
C1257 C1258 1.392 . S
C1257 C1261 1.495 . S
C1258 C1257 1.392 . S
C1258 C1259 1.385 . S
C1258 C1260 1.478 . S
C1259 H1253 0.930 . S
C1259 C1255 1.400 . S
C1259 C1258 1.385 . S
C1260 C1258 1.478 . S
C1260 C1262 1.381 . S
C1260 C1266 1.383 . S
C1261 C1257 1.495 . S
C1261 H1267 0.959 . S
C1261 H1268 0.961 . S
C1261 H1269 0.960 . S
C1262 C1260 1.381 . S
C1262 C1263 1.394 . S
C1262 H1270 0.930 . S
C1263 C1262 1.394 . S
C1263 C1264 1.383 . S
C1263 H1271 0.929 . S
C1264 C1263 1.383 . S
C1264 C1265 1.377 . S
C1265 H1249 0.930 . S
C1265 C1264 1.377 . S
C1265 C1266 1.379 . S
C1266 H1250 0.931 . S
C1266 C1260 1.383 . S
C1266 C1265 1.379 . S
H1267 C1261 0.959 . S
H1268 C1261 0.961 . S
H1269 C1261 0.960 . S
H1270 C1262 0.930 . S
H1271 C1263 0.929 . S
H1272 C1280 0.929 . S
H1273 C1282 0.930 . S
H1274 C1284 0.930 . S
H1275 C1287 0.929 . S
H1276 C1290 0.930 . S
H1277 C1292 0.960 . S
H1278 C1292 0.960 . S
H1279 C1292 0.960 . S
C1280 H1272 0.929 . S
C1280 C1281 1.377 . S
C1280 C1282 1.384 . S
C1281 C1280 1.377 . S
C1281 C1287 1.390 . S
C1282 H1273 0.930 . S
C1282 C1280 1.384 . S
C1282 C1283 1.372 . S
C1283 C1282 1.372 . S
C1283 C1284 1.400 . S
C1283 C1288 1.490 . S
C1284 H1274 0.930 . S
C1284 C1283 1.400 . S
C1284 C1287 1.386 . S
H1285 C1301 0.930 . S
H1286 C1302 0.931 . S
C1287 H1275 0.929 . S
C1287 C1281 1.390 . S
C1287 C1284 1.386 . S
C1288 C1283 1.490 . S
C1288 C1290 1.395 . S
C1288 C1291 1.403 . S
H1289 C1295 0.930 . S
C1290 H1276 0.930 . S
C1290 C1288 1.395 . S
C1290 C1293 1.403 . S
C1291 C1288 1.403 . S
C1291 C1292 1.524 . S
C1291 C1295 1.400 . S
C1292 H1277 0.960 . S
C1292 H1278 0.960 . S
C1292 H1279 0.960 . S
C1292 C1291 1.524 . S
C1293 C1290 1.403 . S
C1293 C1294 1.392 . S
C1293 C1297 1.495 . S
C1294 C1293 1.392 . S
C1294 C1295 1.385 . S
C1294 C1296 1.478 . S
C1295 H1289 0.930 . S
C1295 C1291 1.400 . S
C1295 C1294 1.385 . S
C1296 C1294 1.478 . S
C1296 C1298 1.381 . S
C1296 C1302 1.383 . S
C1297 C1293 1.495 . S
C1297 H1303 0.959 . S
C1297 H1304 0.961 . S
C1297 H1305 0.960 . S
C1298 C1296 1.381 . S
C1298 C1299 1.394 . S
C1298 H1306 0.930 . S
C1299 C1298 1.394 . S
C1299 C1300 1.383 . S
C1299 H1307 0.929 . S
C1300 C1299 1.383 . S
C1300 C1301 1.377 . S
C1301 H1285 0.930 . S
C1301 C1300 1.377 . S
C1301 C1302 1.379 . S
C1302 H1286 0.931 . S
C1302 C1296 1.383 . S
C1302 C1301 1.379 . S
H1303 C1297 0.959 . S
H1304 C1297 0.961 . S
H1305 C1297 0.960 . S
H1306 C1298 0.930 . S
H1307 C1299 0.929 . S
H1308 C1316 0.929 . S
H1309 C1318 0.930 . S
H1310 C1320 0.930 . S
H1311 C1323 0.929 . S
H1312 C1326 0.930 . S
H1313 C1328 0.960 . S
H1314 C1328 0.960 . S
H1315 C1328 0.960 . S
C1316 H1308 0.929 . S
C1316 C1317 1.377 . S
C1316 C1318 1.384 . S
C1317 C1316 1.377 . S
C1317 C1323 1.390 . S
C1318 H1309 0.930 . S
C1318 C1316 1.384 . S
C1318 C1319 1.372 . S
C1319 C1318 1.372 . S
C1319 C1320 1.400 . S
C1319 C1324 1.490 . S
C1320 H1310 0.930 . S
C1320 C1319 1.400 . S
C1320 C1323 1.386 . S
H1321 C1337 0.930 . S
H1322 C1338 0.931 . S
C1323 H1311 0.929 . S
C1323 C1317 1.390 . S
C1323 C1320 1.386 . S
C1324 C1319 1.490 . S
C1324 C1326 1.395 . S
C1324 C1327 1.403 . S
H1325 C1331 0.930 . S
C1326 H1312 0.930 . S
C1326 C1324 1.395 . S
C1326 C1329 1.403 . S
C1327 C1324 1.403 . S
C1327 C1328 1.524 . S
C1327 C1331 1.400 . S
C1328 H1313 0.960 . S
C1328 H1314 0.960 . S
C1328 H1315 0.960 . S
C1328 C1327 1.524 . S
C1329 C1326 1.403 . S
C1329 C1330 1.392 . S
C1329 C1333 1.495 . S
C1330 C1329 1.392 . S
C1330 C1331 1.385 . S
C1330 C1332 1.478 . S
C1331 H1325 0.930 . S
C1331 C1327 1.400 . S
C1331 C1330 1.385 . S
C1332 C1330 1.478 . S
C1332 C1334 1.381 . S
C1332 C1338 1.383 . S
C1333 C1329 1.495 . S
C1333 H1339 0.959 . S
C1333 H1340 0.961 . S
C1333 H1341 0.960 . S
C1334 C1332 1.381 . S
C1334 C1335 1.394 . S
C1334 H1342 0.930 . S
C1335 C1334 1.394 . S
C1335 C1336 1.383 . S
C1335 H1343 0.929 . S
C1336 C1335 1.383 . S
C1336 C1337 1.377 . S
C1337 H1321 0.930 . S
C1337 C1336 1.377 . S
C1337 C1338 1.379 . S
C1338 H1322 0.931 . S
C1338 C1332 1.383 . S
C1338 C1337 1.379 . S
H1339 C1333 0.959 . S
H1340 C1333 0.961 . S
H1341 C1333 0.960 . S
H1342 C1334 0.930 . S
H1343 C1335 0.929 . S
H1344 C1352 0.929 . S
H1345 C1354 0.930 . S
H1346 C1356 0.930 . S
H1347 C1359 0.929 . S
H1348 C1362 0.930 . S
H1349 C1364 0.960 . S
H1350 C1364 0.960 . S
H1351 C1364 0.960 . S
C1352 H1344 0.929 . S
C1352 C1353 1.377 . S
C1352 C1354 1.384 . S
C1353 C1352 1.377 . S
C1353 C1359 1.390 . S
C1354 H1345 0.930 . S
C1354 C1352 1.384 . S
C1354 C1355 1.372 . S
C1355 C1354 1.372 . S
C1355 C1356 1.400 . S
C1355 C1360 1.490 . S
C1356 H1346 0.930 . S
C1356 C1355 1.400 . S
C1356 C1359 1.386 . S
H1357 C1373 0.930 . S
H1358 C1374 0.931 1_455 S
C1359 H1347 0.929 . S
C1359 C1353 1.390 . S
C1359 C1356 1.386 . S
C1360 C1355 1.490 . S
C1360 C1362 1.395 . S
C1360 C1363 1.403 . S
H1361 C1367 0.930 . S
C1362 H1348 0.930 . S
C1362 C1360 1.395 . S
C1362 C1365 1.403 . S
C1363 C1360 1.403 . S
C1363 C1364 1.524 . S
C1363 C1367 1.400 . S
C1364 H1349 0.960 . S
C1364 H1350 0.960 . S
C1364 H1351 0.960 . S
C1364 C1363 1.524 . S
C1365 C1362 1.403 . S
C1365 C1366 1.392 . S
C1365 C1369 1.495 1_455 S
C1366 C1365 1.392 . S
C1366 C1367 1.385 . S
C1366 C1368 1.478 1_455 S
C1367 H1361 0.930 . S
C1367 C1363 1.400 . S
C1367 C1366 1.385 . S
C1368 C1366 1.478 1_655 S
C1368 C1370 1.381 . S
C1368 C1374 1.383 . S
C1369 C1365 1.495 1_655 S
C1369 H1375 0.959 . S
C1369 H1376 0.961 . S
C1369 H1377 0.960 . S
C1370 C1368 1.381 . S
C1370 C1371 1.394 . S
C1370 H1378 0.930 . S
C1371 C1370 1.394 . S
C1371 C1372 1.383 . S
C1371 H1379 0.929 . S
C1372 C1371 1.383 . S
C1372 C1373 1.377 . S
C1373 H1357 0.930 . S
C1373 C1372 1.377 . S
C1373 C1374 1.379 . S
C1374 H1358 0.931 1_655 S
C1374 C1368 1.383 . S
C1374 C1373 1.379 . S
H1375 C1369 0.959 . S
H1376 C1369 0.961 . S
H1377 C1369 0.960 . S
H1378 C1370 0.930 . S
H1379 C1371 0.929 . S
H1380 C1388 0.929 . S
H1381 C1390 0.930 . S
H1382 C1392 0.930 . S
H1383 C1395 0.929 . S
H1384 C1398 0.930 . S
H1385 C1400 0.960 . S
H1386 C1400 0.960 . S
H1387 C1400 0.960 . S
C1388 H1380 0.929 . S
C1388 C1389 1.377 . S
C1388 C1390 1.384 . S
C1389 C1388 1.377 . S
C1389 C1395 1.390 . S
C1390 H1381 0.930 . S
C1390 C1388 1.384 . S
C1390 C1391 1.372 . S
C1391 C1390 1.372 . S
C1391 C1392 1.400 . S
C1391 C1396 1.490 . S
C1392 H1382 0.930 . S
C1392 C1391 1.400 . S
C1392 C1395 1.386 . S
H1393 C1409 0.930 . S
H1394 C1410 0.931 . S
C1395 H1383 0.929 . S
C1395 C1389 1.390 . S
C1395 C1392 1.386 . S
C1396 C1391 1.490 . S
C1396 C1398 1.395 . S
C1396 C1399 1.403 . S
H1397 C1403 0.930 . S
C1398 H1384 0.930 . S
C1398 C1396 1.395 . S
C1398 C1401 1.403 . S
C1399 C1396 1.403 . S
C1399 C1400 1.524 . S
C1399 C1403 1.400 . S
C1400 H1385 0.960 . S
C1400 H1386 0.960 . S
C1400 H1387 0.960 . S
C1400 C1399 1.524 . S
C1401 C1398 1.403 . S
C1401 C1402 1.392 . S
C1401 C1405 1.495 . S
C1402 C1401 1.392 . S
C1402 C1403 1.385 . S
C1402 C1404 1.478 . S
C1403 H1397 0.930 . S
C1403 C1399 1.400 . S
C1403 C1402 1.385 . S
C1404 C1402 1.478 . S
C1404 C1406 1.381 . S
C1404 C1410 1.383 . S
C1405 C1401 1.495 . S
C1405 H1411 0.959 . S
C1405 H1412 0.961 . S
C1405 H1413 0.960 . S
C1406 C1404 1.381 . S
C1406 C1407 1.394 . S
C1406 H1414 0.930 . S
C1407 C1406 1.394 . S
C1407 C1408 1.383 . S
C1407 H1415 0.929 . S
C1408 C1407 1.383 . S
C1408 C1409 1.377 . S
C1409 H1393 0.930 . S
C1409 C1408 1.377 . S
C1409 C1410 1.379 . S
C1410 H1394 0.931 . S
C1410 C1404 1.383 . S
C1410 C1409 1.379 . S
H1411 C1405 0.959 . S
H1412 C1405 0.961 . S
H1413 C1405 0.960 . S
H1414 C1406 0.930 . S
H1415 C1407 0.929 . S
H1416 C1424 0.929 . S
H1417 C1426 0.930 . S
H1418 C1428 0.930 . S
H1419 C1431 0.929 . S
H1420 C1434 0.930 . S
H1421 C1436 0.960 . S
H1422 C1436 0.960 . S
H1423 C1436 0.960 . S
C1424 H1416 0.929 . S
C1424 C1425 1.377 . S
C1424 C1426 1.384 . S
C1425 C1424 1.377 . S
C1425 C1431 1.390 . S
C1426 H1417 0.930 . S
C1426 C1424 1.384 . S
C1426 C1427 1.372 . S
C1427 C1426 1.372 . S
C1427 C1428 1.400 . S
C1427 C1432 1.490 . S
C1428 H1418 0.930 . S
C1428 C1427 1.400 . S
C1428 C1431 1.386 . S
H1429 C1445 0.930 . S
H1430 C1446 0.931 . S
C1431 H1419 0.929 . S
C1431 C1425 1.390 . S
C1431 C1428 1.386 . S
C1432 C1427 1.490 . S
C1432 C1434 1.395 . S
C1432 C1435 1.403 . S
H1433 C1439 0.930 . S
C1434 H1420 0.930 . S
C1434 C1432 1.395 . S
C1434 C1437 1.403 . S
C1435 C1432 1.403 . S
C1435 C1436 1.524 . S
C1435 C1439 1.400 . S
C1436 H1421 0.960 . S
C1436 H1422 0.960 . S
C1436 H1423 0.960 . S
C1436 C1435 1.524 . S
C1437 C1434 1.403 . S
C1437 C1438 1.392 . S
C1437 C1441 1.495 . S
C1438 C1437 1.392 . S
C1438 C1439 1.385 . S
C1438 C1440 1.478 . S
C1439 H1433 0.930 . S
C1439 C1435 1.400 . S
C1439 C1438 1.385 . S
C1440 C1438 1.478 . S
C1440 C1442 1.381 . S
C1440 C1446 1.383 . S
C1441 C1437 1.495 . S
C1441 H1447 0.959 . S
C1441 H1448 0.961 . S
C1441 H1449 0.960 . S
C1442 C1440 1.381 . S
C1442 C1443 1.394 . S
C1442 H1450 0.930 . S
C1443 C1442 1.394 . S
C1443 C1444 1.383 . S
C1443 H1451 0.929 . S
C1444 C1443 1.383 . S
C1444 C1445 1.377 . S
C1445 H1429 0.930 . S
C1445 C1444 1.377 . S
C1445 C1446 1.379 . S
C1446 H1430 0.931 . S
C1446 C1440 1.383 . S
C1446 C1445 1.379 . S
H1447 C1441 0.959 . S
H1448 C1441 0.961 . S
H1449 C1441 0.960 . S
H1450 C1442 0.930 . S
H1451 C1443 0.929 . S
H1452 C1460 0.929 . S
H1453 C1462 0.930 . S
H1454 C1464 0.930 . S
H1455 C1467 0.929 . S
H1456 C1470 0.930 . S
H1457 C1472 0.960 . S
H1458 C1472 0.960 . S
H1459 C1472 0.960 . S
C1460 H1452 0.929 . S
C1460 C1461 1.377 . S
C1460 C1462 1.384 . S
C1461 C1460 1.377 . S
C1461 C1467 1.390 . S
C1462 H1453 0.930 . S
C1462 C1460 1.384 . S
C1462 C1463 1.372 . S
C1463 C1462 1.372 . S
C1463 C1464 1.400 . S
C1463 C1468 1.490 . S
C1464 H1454 0.930 . S
C1464 C1463 1.400 . S
C1464 C1467 1.386 . S
H1465 C1481 0.930 . S
H1466 C1482 0.931 . S
C1467 H1455 0.929 . S
C1467 C1461 1.390 . S
C1467 C1464 1.386 . S
C1468 C1463 1.490 . S
C1468 C1470 1.395 . S
C1468 C1471 1.403 . S
H1469 C1475 0.930 . S
C1470 H1456 0.930 . S
C1470 C1468 1.395 . S
C1470 C1473 1.403 . S
C1471 C1468 1.403 . S
C1471 C1472 1.524 . S
C1471 C1475 1.400 . S
C1472 H1457 0.960 . S
C1472 H1458 0.960 . S
C1472 H1459 0.960 . S
C1472 C1471 1.524 . S
C1473 C1470 1.403 . S
C1473 C1474 1.392 . S
C1473 C1477 1.495 . S
C1474 C1473 1.392 . S
C1474 C1475 1.385 . S
C1474 C1476 1.478 . S
C1475 H1469 0.930 . S
C1475 C1471 1.400 . S
C1475 C1474 1.385 . S
C1476 C1474 1.478 . S
C1476 C1478 1.381 . S
C1476 C1482 1.383 . S
C1477 C1473 1.495 . S
C1477 H1483 0.959 . S
C1477 H1484 0.961 . S
C1477 H1485 0.960 . S
C1478 C1476 1.381 . S
C1478 C1479 1.394 . S
C1478 H1486 0.930 . S
C1479 C1478 1.394 . S
C1479 C1480 1.383 . S
C1479 H1487 0.929 . S
C1480 C1479 1.383 . S
C1480 C1481 1.377 . S
C1481 H1465 0.930 . S
C1481 C1480 1.377 . S
C1481 C1482 1.379 . S
C1482 H1466 0.931 . S
C1482 C1476 1.383 . S
C1482 C1481 1.379 . S
H1483 C1477 0.959 . S
H1484 C1477 0.961 . S
H1485 C1477 0.960 . S
H1486 C1478 0.930 . S
H1487 C1479 0.929 . S
H1488 C1496 0.929 . S
H1489 C1498 0.930 . S
H1490 C1500 0.930 . S
H1491 C1503 0.929 . S
H1492 C1506 0.930 . S
H1493 C1508 0.960 . S
H1494 C1508 0.960 . S
H1495 C1508 0.960 . S
C1496 H1488 0.929 . S
C1496 C1497 1.377 . S
C1496 C1498 1.384 . S
C1497 C1496 1.377 . S
C1497 C1503 1.390 . S
C1498 H1489 0.930 . S
C1498 C1496 1.384 . S
C1498 C1499 1.372 . S
C1499 C1498 1.372 . S
C1499 C1500 1.400 . S
C1499 C1504 1.490 . S
C1500 H1490 0.930 . S
C1500 C1499 1.400 . S
C1500 C1503 1.386 . S
H1501 C1517 0.930 1_545 S
H1502 C1518 0.931 . S
C1503 H1491 0.929 . S
C1503 C1497 1.390 . S
C1503 C1500 1.386 . S
C1504 C1499 1.490 . S
C1504 C1506 1.395 . S
C1504 C1507 1.403 . S
H1505 C1511 0.930 . S
C1506 H1492 0.930 . S
C1506 C1504 1.395 . S
C1506 C1509 1.403 . S
C1507 C1504 1.403 . S
C1507 C1508 1.524 . S
C1507 C1511 1.400 . S
C1508 H1493 0.960 . S
C1508 H1494 0.960 . S
C1508 H1495 0.960 . S
C1508 C1507 1.524 . S
C1509 C1506 1.403 . S
C1509 C1510 1.392 . S
C1509 C1513 1.495 . S
C1510 C1509 1.392 . S
C1510 C1511 1.385 . S
C1510 C1512 1.478 . S
C1511 H1505 0.930 . S
C1511 C1507 1.400 . S
C1511 C1510 1.385 . S
C1512 C1510 1.478 . S
C1512 C1514 1.381 . S
C1512 C1518 1.383 . S
C1513 C1509 1.495 . S
C1513 H1519 0.959 . S
C1513 H1520 0.961 . S
C1513 H1521 0.960 . S
C1514 C1512 1.381 . S
C1514 C1515 1.394 . S
C1514 H1522 0.930 . S
C1515 C1514 1.394 . S
C1515 C1516 1.383 1_565 S
C1515 H1523 0.929 . S
C1516 C1515 1.383 1_545 S
C1516 C1517 1.377 1_545 S
C1517 H1501 0.930 1_565 S
C1517 C1516 1.377 1_565 S
C1517 C1518 1.379 . S
C1518 H1502 0.931 . S
C1518 C1512 1.383 . S
C1518 C1517 1.379 . S
H1519 C1513 0.959 . S
H1520 C1513 0.961 . S
H1521 C1513 0.960 . S
H1522 C1514 0.930 . S
H1523 C1515 0.929 . S
H1524 C1532 0.929 1_565 S
H1525 C1534 0.930 . S
H1526 C1536 0.930 . S
H1527 C1539 0.929 . S
H1528 C1542 0.930 . S
H1529 C1544 0.960 . S
H1530 C1544 0.960 . S
H1531 C1544 0.960 . S
C1532 H1524 0.929 1_545 S
C1532 C1533 1.377 1_545 S
C1532 C1534 1.384 . S
C1533 C1532 1.377 1_565 S
C1533 C1539 1.390 1_565 S
C1534 H1525 0.930 . S
C1534 C1532 1.384 . S
C1534 C1535 1.372 . S
C1535 C1534 1.372 . S
C1535 C1536 1.400 . S
C1535 C1540 1.490 . S
C1536 H1526 0.930 . S
C1536 C1535 1.400 . S
C1536 C1539 1.386 . S
H1537 C1553 0.930 . S
H1538 C1554 0.931 . S
C1539 H1527 0.929 . S
C1539 C1533 1.390 1_545 S
C1539 C1536 1.386 . S
C1540 C1535 1.490 . S
C1540 C1542 1.395 . S
C1540 C1543 1.403 . S
H1541 C1547 0.930 . S
C1542 H1528 0.930 . S
C1542 C1540 1.395 . S
C1542 C1545 1.403 . S
C1543 C1540 1.403 . S
C1543 C1544 1.524 . S
C1543 C1547 1.400 . S
C1544 H1529 0.960 . S
C1544 H1530 0.960 . S
C1544 H1531 0.960 . S
C1544 C1543 1.524 . S
C1545 C1542 1.403 . S
C1545 C1546 1.392 . S
C1545 C1549 1.495 1_655 S
C1546 C1545 1.392 . S
C1546 C1547 1.385 . S
C1546 C1548 1.478 1_655 S
C1547 H1541 0.930 . S
C1547 C1543 1.400 . S
C1547 C1546 1.385 . S
C1548 C1546 1.478 1_455 S
C1548 C1550 1.381 . S
C1548 C1554 1.383 . S
C1549 C1545 1.495 1_455 S
C1549 H1555 0.959 . S
C1549 H1556 0.961 . S
C1549 H1557 0.960 . S
C1550 C1548 1.381 . S
C1550 C1551 1.394 . S
C1550 H1558 0.930 1_455 S
C1551 C1550 1.394 . S
C1551 C1552 1.383 . S
C1551 H1559 0.929 . S
C1552 C1551 1.383 . S
C1552 C1553 1.377 . S
C1553 H1537 0.930 . S
C1553 C1552 1.377 . S
C1553 C1554 1.379 . S
C1554 H1538 0.931 . S
C1554 C1548 1.383 . S
C1554 C1553 1.379 . S
H1555 C1549 0.959 . S
H1556 C1549 0.961 . S
H1557 C1549 0.960 . S
H1558 C1550 0.930 1_655 S
H1559 C1551 0.929 . S
C273 C6 0.980 . S
C292 C248 0.928 . S
C309 C203 0.965 . S
C328 C31 0.998 . S
C345 C51 0.963 . S
C364 C181 1.010 . S
C381 C75 0.963 . S
C400 C229 1.006 . S
C417 C93 0.977 . S
C436 C226 0.937 . S
C453 C115 0.964 . S
C472 C251 1.005 . S
C489 C205 0.967 . S
C508 C139 0.987 . S
C525 C161 0.977 . S
C544 C183 0.950 . S
C561 C72 0.972 . S
C580 C95 0.978 . S
C597 C9 0.963 . S
C616 C117 1.012 . S
C633 C28 0.963 . S
C652 C137 1.010 . S
C669 C159 0.978 . S
C688 C49 0.933 . S
C705 C4 1.256 . S
C724 C185 1.219 . S
C741 C29 1.260 . S
C760 C225 1.258 . S
C777 C250 1.240 . S
C796 C52 1.264 . S
C813 C73 1.257 . S
C832 C207 1.262 . S
C849 C94 1.255 . S
C868 C202 1.253 . S
C885 C180 1.239 . S
C904 C116 1.239 . S
C921 C228 1.230 . S
C940 C140 1.253 . S
C957 C247 1.229 . S
C976 C162 1.262 . S
C993 C5 1.231 . S
C1012 C70 1.273 . S
C1029 C7 1.262 . S
C1048 C30 1.211 . S
C1065 C26 1.260 . S
C1084 C53 1.203 . S
C1101 C74 1.236 . S
C1120 C50 1.274 . S
C1137 C118 1.259 . S
C1156 C92 1.204 . S
C1173 C114 1.236 . S
C1192 C138 1.238 . S
C1209 C141 1.232 . S
C1228 C160 1.245 . S
C1245 C96 1.262 . S
C1264 C163 1.209 . S
C1281 C184 1.258 . S
C1300 C71 1.262 . S
C1317 C119 1.241 . S
C1336 C204 1.252 . S
C1353 C182 1.260 . S
C1372 C136 1.203 . S
C1389 C227 1.260 . S
C1408 C158 1.258 . S
C1425 C97 1.230 . S
C1444 C246 1.255 . S
C1461 C249 1.262 . S
C1480 C27 1.246 . S
C1497 C48 1.238 . S
C1516 C206 1.237 . S
C1533 C224 1.256 . S
C1552 C8 1.221 . S
