# Generated by pormake.
# Topology yfw, (5)-cn, num edge types: 1
# Building blocks:
#     Node 0, Type 0, BuildingBlock: BEQFEK_clean_sbu_0, # of connection points: 5
#     Node 1, Type 0, BuildingBlock: BEQFEK_clean_sbu_0, # of connection points: 5
#     Node 2, Type 0, BuildingBlock: BEQFEK_clean_sbu_0, # of connection points: 5
#     Node 3, Type 0, BuildingBlock: BEQFEK_clean_sbu_0, # of connection points: 5
#     Node 4, Type 0, BuildingBlock: BEQFEK_clean_sbu_0, # of connection points: 5
#     Node 5, Type 0, BuildingBlock: BEQFEK_clean_sbu_0, # of connection points: 5
#     Node 6, Type 0, BuildingBlock: BEQFEK_clean_sbu_0, # of connection points: 5
#     Node 7, Type 0, BuildingBlock: BEQFEK_clean_sbu_0, # of connection points: 5
#     Node 8, Type 0, BuildingBlock: BEQFEK_clean_sbu_0, # of connection points: 5
#     Node 9, Type 0, BuildingBlock: BEQFEK_clean_sbu_0, # of connection points: 5
#     Node 10, Type 0, BuildingBlock: BEQFEK_clean_sbu_0, # of connection points: 5
#     Node 11, Type 0, BuildingBlock: BEQFEK_clean_sbu_0, # of connection points: 5
#     Node 12, Type 0, BuildingBlock: BEQFEK_clean_sbu_0, # of connection points: 5
#     Node 13, Type 0, BuildingBlock: BEQFEK_clean_sbu_0, # of connection points: 5
#     Node 14, Type 0, BuildingBlock: BEQFEK_clean_sbu_0, # of connection points: 5
#     Node 15, Type 0, BuildingBlock: BEQFEK_clean_sbu_0, # of connection points: 5
#     Edge 16, Type (0, 0), BuildingBlock: ZUJKAS_clean_linker_0, # of connection points: 2
#     Edge 17, Type (0, 0), BuildingBlock: ZUJKAS_clean_linker_0, # of connection points: 2
#     Edge 18, Type (0, 0), BuildingBlock: ZUJKAS_clean_linker_0, # of connection points: 2
#     Edge 19, Type (0, 0), BuildingBlock: ZUJKAS_clean_linker_0, # of connection points: 2
#     Edge 20, Type (0, 0), BuildingBlock: ZUJKAS_clean_linker_0, # of connection points: 2
#     Edge 21, Type (0, 0), BuildingBlock: ZUJKAS_clean_linker_0, # of connection points: 2
#     Edge 22, Type (0, 0), BuildingBlock: ZUJKAS_clean_linker_0, # of connection points: 2
#     Edge 23, Type (0, 0), BuildingBlock: ZUJKAS_clean_linker_0, # of connection points: 2
#     Edge 24, Type (0, 0), BuildingBlock: ZUJKAS_clean_linker_0, # of connection points: 2
#     Edge 25, Type (0, 0), BuildingBlock: ZUJKAS_clean_linker_0, # of connection points: 2
#     Edge 26, Type (0, 0), BuildingBlock: ZUJKAS_clean_linker_0, # of connection points: 2
#     Edge 27, Type (0, 0), BuildingBlock: ZUJKAS_clean_linker_0, # of connection points: 2
#     Edge 28, Type (0, 0), BuildingBlock: ZUJKAS_clean_linker_0, # of connection points: 2
#     Edge 29, Type (0, 0), BuildingBlock: ZUJKAS_clean_linker_0, # of connection points: 2
#     Edge 30, Type (0, 0), BuildingBlock: ZUJKAS_clean_linker_0, # of connection points: 2
#     Edge 31, Type (0, 0), BuildingBlock: ZUJKAS_clean_linker_0, # of connection points: 2
#     Edge 32, Type (0, 0), BuildingBlock: ZUJKAS_clean_linker_0, # of connection points: 2
#     Edge 33, Type (0, 0), BuildingBlock: ZUJKAS_clean_linker_0, # of connection points: 2
#     Edge 34, Type (0, 0), BuildingBlock: ZUJKAS_clean_linker_0, # of connection points: 2
#     Edge 35, Type (0, 0), BuildingBlock: ZUJKAS_clean_linker_0, # of connection points: 2
#     Edge 36, Type (0, 0), BuildingBlock: ZUJKAS_clean_linker_0, # of connection points: 2
#     Edge 37, Type (0, 0), BuildingBlock: ZUJKAS_clean_linker_0, # of connection points: 2
#     Edge 38, Type (0, 0), BuildingBlock: ZUJKAS_clean_linker_0, # of connection points: 2
#     Edge 39, Type (0, 0), BuildingBlock: ZUJKAS_clean_linker_0, # of connection points: 2
#     Edge 40, Type (0, 0), BuildingBlock: ZUJKAS_clean_linker_0, # of connection points: 2
#     Edge 41, Type (0, 0), BuildingBlock: ZUJKAS_clean_linker_0, # of connection points: 2
#     Edge 42, Type (0, 0), BuildingBlock: ZUJKAS_clean_linker_0, # of connection points: 2
#     Edge 43, Type (0, 0), BuildingBlock: ZUJKAS_clean_linker_0, # of connection points: 2
#     Edge 44, Type (0, 0), BuildingBlock: ZUJKAS_clean_linker_0, # of connection points: 2
#     Edge 45, Type (0, 0), BuildingBlock: ZUJKAS_clean_linker_0, # of connection points: 2
#     Edge 46, Type (0, 0), BuildingBlock: ZUJKAS_clean_linker_0, # of connection points: 2
#     Edge 47, Type (0, 0), BuildingBlock: ZUJKAS_clean_linker_0, # of connection points: 2
#     Edge 48, Type (0, 0), BuildingBlock: ZUJKAS_clean_linker_0, # of connection points: 2
#     Edge 49, Type (0, 0), BuildingBlock: ZUJKAS_clean_linker_0, # of connection points: 2
#     Edge 50, Type (0, 0), BuildingBlock: ZUJKAS_clean_linker_0, # of connection points: 2
#     Edge 51, Type (0, 0), BuildingBlock: ZUJKAS_clean_linker_0, # of connection points: 2
#     Edge 52, Type (0, 0), BuildingBlock: ZUJKAS_clean_linker_0, # of connection points: 2
#     Edge 53, Type (0, 0), BuildingBlock: ZUJKAS_clean_linker_0, # of connection points: 2
#     Edge 54, Type (0, 0), BuildingBlock: ZUJKAS_clean_linker_0, # of connection points: 2
#     Edge 55, Type (0, 0), BuildingBlock: ZUJKAS_clean_linker_0, # of connection points: 2
# Relax obj value: 0.081
# Max RMSD: 0.128
# Mean RMSD: 0.128
data_MOF--net-yfw--node1-BEQFEK_clean_sbu_0--edge1-ZUJKAS_clean_linker_0
_symmetry_space_group_name_H-M    P1
_symmetry_Int_Tables_number       1
_symmetry_cell_setting            triclinic
loop_
_symmetry_equiv_pos_as_xyz
'x, y, z'
_cell_length_a     69.515565
_cell_length_b     69.530319
_cell_length_c     35.394109
_cell_angle_alpha  89.995081
_cell_angle_beta   89.979346
_cell_angle_gamma 90.010864
loop_
_atom_site_label
_atom_site_type_symbol
_atom_site_fract_x
_atom_site_fract_y
_atom_site_fract_z
_atom_type_partial_charge
Co0 Co 0.12041 0.06813 0.02027 0.0
Co1 Co 0.1644 0.07867 0.01976 0.0
C2 C 0.13369 0.10899 0.02511 0.0
O3 O 0.12009 0.09667 0.02408 0.0
O4 O 0.15126 0.10386 0.02303 0.0
C5 C 0.08025 0.06253 0.9948 0.0
O6 O 0.08275 0.07677 0.97089 0.0
C7 C 0.2004 0.094 0.98809 0.0
C8 C 0.22192 0.07627 0.01801 0.0
C9 C 0.21999 0.09009 0.99003 0.0
N10 N 0.19129 0.08273 0.01325 0.0
N11 N 0.20427 0.07247 0.03157 0.0
C12 C 0.19016 0.10662 0.96035 0.0
H13 H 0.17475 0.10253 0.95837 0.0
H14 H 0.19699 0.10563 0.93207 0.0
H15 H 0.19105 0.12176 0.97007 0.0
C16 C 0.13197 0.04786 0.94986 0.0
N17 N 0.13589 0.05934 0.97956 0.0
N18 N 0.15444 0.06326 0.97982 0.0
C19 C 0.1629 0.05417 0.95049 0.0
C20 C 0.1489 0.04432 0.9305 0.0
C21 C 0.11275 0.03907 0.94188 0.0
H22 H 0.10663 0.03302 0.96825 0.0
H23 H 0.10291 0.05034 0.9311 0.0
H24 H 0.11376 0.02744 0.92051 0.0
O25 O 0.13039 0.05743 0.06803 0.0
O26 O 0.16133 0.06521 0.06852 0.0
H27 H 0.19235 0.05192 0.96785 0.0
H28 H 0.18808 0.04408 0.91999 0.0
C29 C 0.18398 0.05474 0.94182 0.0
H30 H 0.18777 0.06917 0.93098 0.0
H31 H 0.20099 0.06224 0.05216 0.0
O32 O 0.09392 0.05762 0.01658 0.0
C33 C 0.14679 0.05735 0.08392 0.0
Co34 Co 0.92978 0.61822 0.26826 0.0
Co35 Co 0.91951 0.66225 0.26293 0.0
C36 C 0.8899 0.63215 0.28289 0.0
O37 O 0.90189 0.61835 0.27981 0.0
O38 O 0.89491 0.64953 0.27699 0.0
C39 C 0.93389 0.57708 0.2485 0.0
O40 O 0.91835 0.57866 0.22763 0.0
C41 C 0.90188 0.69737 0.23056 0.0
C42 C 0.92181 0.71959 0.25204 0.0
C43 C 0.90588 0.71695 0.22911 0.0
N44 N 0.91515 0.68885 0.25262 0.0
N45 N 0.92683 0.70228 0.26575 0.0
C46 C 0.88543 0.68697 0.2124 0.0
H47 H 0.88136 0.67421 0.22936 0.0
H48 H 0.88973 0.6819 0.18394 0.0
H49 H 0.87283 0.69664 0.20933 0.0
C50 C 0.94488 0.62627 0.19127 0.0
N51 N 0.93543 0.63162 0.22284 0.0
N52 N 0.9315 0.65014 0.22083 0.0
C53 C 0.93856 0.65715 0.18808 0.0
C54 C 0.94702 0.64221 0.16824 0.0
C55 C 0.95358 0.60684 0.185 0.0
H56 H 0.96119 0.6021 0.21089 0.0
H57 H 0.94199 0.5964 0.17856 0.0
H58 H 0.96394 0.60692 0.16114 0.0
O59 O 0.9437 0.63029 0.31059 0.0
O60 O 0.93698 0.6614 0.30692 0.0
H61 H 0.94356 0.68696 0.19981 0.0
H62 H 0.94631 0.68066 0.15057 0.0
C63 C 0.93791 0.67787 0.17661 0.0
H64 H 0.92283 0.68205 0.17105 0.0
H65 H 0.93857 0.69954 0.2833 0.0
O66 O 0.94003 0.59159 0.2667 0.0
C67 C 0.94551 0.64739 0.32283 0.0
Co68 Co 0.37496 0.42982 0.51806 0.0
Co69 Co 0.33146 0.41778 0.5228 0.0
C70 C 0.36441 0.38915 0.52894 0.0
O71 O 0.37757 0.40172 0.52449 0.0
O72 O 0.34667 0.39378 0.52864 0.0
C73 C 0.41646 0.43541 0.50415 0.0
O74 O 0.41797 0.41666 0.50057 0.0
C75 C 0.29772 0.4007 0.48705 0.0
C76 C 0.27409 0.41057 0.524 0.0
C77 C 0.27788 0.40053 0.491 0.0
N78 N 0.30526 0.41071 0.51594 0.0
N79 N 0.29109 0.41638 0.5382 0.0
C80 C 0.30949 0.39095 0.45721 0.0
H81 H 0.32406 0.38759 0.46815 0.0
H82 H 0.31118 0.40059 0.43252 0.0
H83 H 0.30229 0.37757 0.44757 0.0
C84 C 0.36153 0.4464 0.44619 0.0
N85 N 0.35841 0.43602 0.47765 0.0
N86 N 0.33988 0.43261 0.48107 0.0
C87 C 0.33048 0.4415 0.45269 0.0
C88 C 0.34391 0.45028 0.42939 0.0
C89 C 0.38105 0.45231 0.43266 0.0
H90 H 0.3915 0.44056 0.4379 0.0
H91 H 0.38094 0.45575 0.40205 0.0
H92 H 0.38581 0.46518 0.44867 0.0
O93 O 0.3647 0.441 0.56546 0.0
O94 O 0.33383 0.433 0.56943 0.0
H95 H 0.30555 0.45849 0.43861 0.0
H96 H 0.30255 0.43308 0.43309 0.0
C97 C 0.30912 0.4443 0.45116 0.0
H98 H 0.30281 0.44348 0.47985 0.0
H99 H 0.29299 0.42464 0.56253 0.0
O100 O 0.40012 0.44284 0.51083 0.0
C101 C 0.34861 0.44145 0.58267 0.0
Co102 Co 0.5718 0.87941 0.75818 0.0
Co103 Co 0.58049 0.83517 0.76315 0.0
C104 C 0.61111 0.86584 0.77485 0.0
O105 O 0.59967 0.87982 0.76871 0.0
O106 O 0.60533 0.84845 0.77346 0.0
C107 C 0.5594 0.91774 0.77489 0.0
O108 O 0.56551 0.91347 0.809 0.0
C109 C 0.59701 0.80026 0.73085 0.0
C110 C 0.5813 0.77741 0.76134 0.0
C111 C 0.59448 0.78044 0.73251 0.0
N112 N 0.58549 0.80846 0.75675 0.0
N113 N 0.57634 0.79473 0.77525 0.0
C114 C 0.61037 0.8114 0.70587 0.0
H115 H 0.61486 0.82491 0.71992 0.0
H116 H 0.60286 0.81535 0.67935 0.0
H117 H 0.62327 0.80273 0.69873 0.0
C118 C 0.55701 0.86766 0.68372 0.0
N119 N 0.56597 0.86358 0.71643 0.0
N120 N 0.56828 0.84487 0.71923 0.0
C121 C 0.56016 0.83635 0.6889 0.0
C122 C 0.55294 0.85054 0.66527 0.0
C123 C 0.55243 0.88761 0.67067 0.0
H124 H 0.56447 0.89743 0.6778 0.0
H125 H 0.54991 0.88806 0.63973 0.0
H126 H 0.53931 0.89272 0.68545 0.0
O127 O 0.55815 0.87007 0.80386 0.0
O128 O 0.56351 0.83863 0.80726 0.0
H129 H 0.55487 0.80854 0.71341 0.0
H130 H 0.5438 0.81217 0.66795 0.0
C131 C 0.55679 0.81515 0.6852 0.0
H132 H 0.56928 0.8084 0.67098 0.0
H133 H 0.56624 0.79721 0.79653 0.0
O134 O 0.5616 0.90557 0.74849 0.0
C135 C 0.55584 0.8539 0.82018 0.0
Co136 Co 0.87889 0.06917 0.52485 0.0
Co137 Co 0.83487 0.0796 0.52297 0.0
C138 C 0.86583 0.1098 0.53081 0.0
O139 O 0.87954 0.09763 0.52954 0.0
O140 O 0.84832 0.10454 0.52837 0.0
C141 C 0.91957 0.0642 0.50289 0.0
O142 O 0.918 0.07985 0.48232 0.0
C143 C 0.79979 0.09546 0.48832 0.0
C144 C 0.77725 0.07907 0.51836 0.0
C145 C 0.78004 0.09234 0.48966 0.0
N146 N 0.8082 0.08416 0.51438 0.0
N147 N 0.79462 0.07462 0.53257 0.0
C148 C 0.81057 0.1093 0.46374 0.0
H149 H 0.82384 0.11423 0.47805 0.0
H150 H 0.81487 0.10209 0.43713 0.0
H151 H 0.80146 0.12191 0.45668 0.0
C152 C 0.86819 0.04976 0.45328 0.0
N153 N 0.86387 0.06095 0.48318 0.0
N154 N 0.84531 0.06479 0.4828 0.0
C155 C 0.83725 0.056 0.4527 0.0
C156 C 0.8515 0.0464 0.43304 0.0
C157 C 0.88788 0.04234 0.4444 0.0
H158 H 0.89345 0.03407 0.46885 0.0
H159 H 0.89762 0.05468 0.43927 0.0
H160 H 0.88795 0.03304 0.41896 0.0
O161 O 0.86815 0.05808 0.5716 0.0
O162 O 0.83707 0.06538 0.57114 0.0
H163 H 0.80808 0.05299 0.4717 0.0
H164 H 0.81264 0.04284 0.42567 0.0
C165 C 0.8161 0.05495 0.44494 0.0
H166 H 0.81133 0.06845 0.43131 0.0
H167 H 0.79726 0.06463 0.55395 0.0
O168 O 0.90518 0.05824 0.52171 0.0
C169 C 0.85156 0.05752 0.58674 0.0
Co170 Co 0.92799 0.37934 0.77053 0.0
Co171 Co 0.91827 0.33521 0.76728 0.0
C172 C 0.88772 0.36586 0.77799 0.0
O173 O 0.89964 0.37978 0.77612 0.0
O174 O 0.89324 0.34844 0.77502 0.0
C175 C 0.93295 0.42065 0.75202 0.0
O176 O 0.91669 0.42008 0.73315 0.0
C177 C 0.90189 0.30034 0.73249 0.0
C178 C 0.91932 0.27767 0.75975 0.0
C179 C 0.90525 0.28063 0.73266 0.0
N180 N 0.91382 0.30861 0.75763 0.0
N181 N 0.92399 0.29494 0.77418 0.0
C182 C 0.8873 0.31115 0.70973 0.0
H183 H 0.8824 0.32408 0.72525 0.0
H184 H 0.89384 0.31601 0.68281 0.0
H185 H 0.87475 0.30187 0.70315 0.0
C186 C 0.94646 0.3698 0.69732 0.0
N187 N 0.93582 0.36496 0.72769 0.0
N188 N 0.9325 0.34631 0.72701 0.0
C189 C 0.94136 0.33864 0.69661 0.0
C190 C 0.95027 0.35331 0.67672 0.0
C191 C 0.95422 0.38953 0.68995 0.0
H192 H 0.96228 0.39459 0.71508 0.0
H193 H 0.94206 0.39953 0.68495 0.0
H194 H 0.96394 0.3898 0.6651 0.0
O195 O 0.93939 0.3681 0.81662 0.0
O196 O 0.93335 0.33681 0.81437 0.0
H197 H 0.94535 0.30924 0.71309 0.0
H198 H 0.95238 0.31423 0.66495 0.0
C199 C 0.9418 0.31762 0.68739 0.0
H200 H 0.92747 0.31309 0.67719 0.0
H201 H 0.93452 0.29747 0.79459 0.0
O202 O 0.93903 0.4056 0.76847 0.0
C203 C 0.94076 0.35132 0.8307 0.0
Co204 Co 0.6188 0.42802 0.02334 0.0
Co205 Co 0.6631 0.41943 0.01852 0.0
C206 C 0.63324 0.38798 0.02771 0.0
O207 O 0.61908 0.39965 0.02748 0.0
O208 O 0.65054 0.39387 0.0242 0.0
C209 C 0.57699 0.43225 0.00781 0.0
O210 O 0.57721 0.41557 0.99038 0.0
C211 C 0.69787 0.40536 0.98057 0.0
C212 C 0.72052 0.42188 0.01001 0.0
C213 C 0.71752 0.40907 0.98058 0.0
N214 N 0.68972 0.41573 0.00835 0.0
N215 N 0.70337 0.4253 0.02625 0.0
C216 C 0.68661 0.39384 0.95253 0.0
H217 H 0.67123 0.3981 0.95302 0.0
H218 H 0.69256 0.39577 0.92366 0.0
H219 H 0.6876 0.37839 0.96006 0.0
C220 C 0.62724 0.44686 0.9501 0.0
N221 N 0.63275 0.43663 0.98054 0.0
N222 N 0.6515 0.43406 0.97937 0.0
C223 C 0.65858 0.44309 0.94863 0.0
C224 C 0.64343 0.45132 0.92894 0.0
C225 C 0.60676 0.45146 0.9408 0.0
H226 H 0.59807 0.43814 0.94255 0.0
H227 H 0.60519 0.4575 0.91198 0.0
H228 H 0.60107 0.46189 0.96174 0.0
O229 O 0.63 0.43899 0.06992 0.0
O230 O 0.66135 0.43346 0.06677 0.0
H231 H 0.6821 0.45852 0.92259 0.0
H232 H 0.68478 0.43285 0.92425 0.0
C233 C 0.67954 0.44554 0.94013 0.0
H234 H 0.68784 0.44692 0.96669 0.0
H235 H 0.70087 0.43479 0.04855 0.0
O236 O 0.59238 0.4388 0.02228 0.0
C237 C 0.64681 0.44035 0.08385 0.0
Co238 Co 0.56958 0.12195 0.27158 0.0
Co239 Co 0.58074 0.16578 0.272 0.0
C240 C 0.61001 0.13355 0.28142 0.0
O241 O 0.59773 0.12004 0.27814 0.0
O242 O 0.60504 0.15118 0.27953 0.0
C243 C 0.56324 0.08109 0.25181 0.0
O244 O 0.58034 0.08096 0.23598 0.0
C245 C 0.59819 0.19919 0.23519 0.0
C246 C 0.58485 0.22332 0.26623 0.0
C247 C 0.59688 0.21914 0.23605 0.0
N248 N 0.58708 0.19203 0.26292 0.0
N249 N 0.57935 0.20651 0.2817 0.0
C250 C 0.61008 0.18699 0.20931 0.0
H251 H 0.61415 0.17337 0.22347 0.0
H252 H 0.60159 0.18324 0.18385 0.0
H253 H 0.62325 0.19478 0.20032 0.0
C254 C 0.55283 0.13341 0.19799 0.0
N255 N 0.56292 0.13741 0.22948 0.0
N256 N 0.56635 0.15601 0.23083 0.0
C257 C 0.55793 0.16454 0.20088 0.0
C258 C 0.5493 0.15048 0.1789 0.0
C259 C 0.54717 0.11355 0.1861 0.0
H260 H 0.55982 0.10394 0.1882 0.0
H261 H 0.54181 0.11318 0.15661 0.0
H262 H 0.53583 0.10806 0.20536 0.0
O263 O 0.55847 0.13305 0.31826 0.0
O264 O 0.56532 0.16423 0.31866 0.0
H265 H 0.54262 0.18935 0.17977 0.0
H266 H 0.56832 0.19151 0.17997 0.0
C267 C 0.55584 0.18584 0.19593 0.0
H268 H 0.5551 0.19306 0.22378 0.0
H269 H 0.56986 0.20492 0.30433 0.0
O270 O 0.55708 0.09639 0.26727 0.0
C271 C 0.5575 0.14956 0.33371 0.0
Co272 Co 0.61989 0.57065 0.5151 0.0
Co273 Co 0.66437 0.5786 0.52079 0.0
C274 C 0.63488 0.61031 0.52693 0.0
O275 O 0.62069 0.59887 0.52277 0.0
O276 O 0.6522 0.60427 0.52619 0.0
C277 C 0.58126 0.55911 0.53123 0.0
O278 O 0.58594 0.5644 0.56566 0.0
C279 C 0.70156 0.59304 0.49366 0.0
C280 C 0.72181 0.57439 0.52483 0.0
C281 C 0.72099 0.5886 0.49737 0.0
N282 N 0.69152 0.58174 0.51735 0.0
N283 N 0.70373 0.5709 0.53641 0.0
C284 C 0.69234 0.60624 0.46559 0.0
H285 H 0.67688 0.60265 0.46211 0.0
H286 H 0.69977 0.60533 0.43789 0.0
H287 H 0.69344 0.62125 0.47601 0.0
C288 C 0.63221 0.55292 0.44339 0.0
N289 N 0.63614 0.56289 0.47504 0.0
N290 N 0.65487 0.5653 0.47788 0.0
C291 C 0.6635 0.55646 0.44847 0.0
C292 C 0.6494 0.54853 0.42557 0.0
C293 C 0.61251 0.54622 0.43255 0.0
H294 H 0.60703 0.5363 0.45463 0.0
H295 H 0.60266 0.55875 0.43116 0.0
H296 H 0.61248 0.53861 0.40501 0.0
O297 O 0.62787 0.55785 0.56248 0.0
O298 O 0.65923 0.56336 0.56675 0.0
H299 H 0.69195 0.55163 0.46989 0.0
H300 H 0.68874 0.54429 0.42136 0.0
C301 C 0.68481 0.55521 0.44281 0.0
H302 H 0.69023 0.56928 0.43282 0.0
H303 H 0.69965 0.56053 0.55617 0.0
O304 O 0.59331 0.56157 0.50466 0.0
C305 C 0.64381 0.55604 0.57977 0.0
Co306 Co 0.42969 0.12192 0.77301 0.0
Co307 Co 0.42041 0.1661 0.77186 0.0
C308 C 0.38949 0.13624 0.78239 0.0
O309 O 0.40141 0.12235 0.77983 0.0
O310 O 0.39496 0.15368 0.77949 0.0
C311 C 0.43382 0.08089 0.75081 0.0
O312 O 0.41883 0.08266 0.72848 0.0
C313 C 0.40581 0.20246 0.74034 0.0
C314 C 0.42516 0.22332 0.76819 0.0
C315 C 0.41078 0.22183 0.74123 0.0
N316 N 0.41709 0.19302 0.76501 0.0
N317 N 0.42829 0.20564 0.78216 0.0
C318 C 0.39217 0.19263 0.71394 0.0
H319 H 0.39527 0.17699 0.71261 0.0
H320 H 0.39312 0.19901 0.68525 0.0
H321 H 0.37726 0.1946 0.72445 0.0
C322 C 0.4481 0.13204 0.69989 0.0
N323 N 0.43755 0.13663 0.73056 0.0
N324 N 0.43415 0.15528 0.73041 0.0
C325 C 0.44275 0.16315 0.69991 0.0
C326 C 0.45165 0.14866 0.67952 0.0
C327 C 0.4561 0.11247 0.69205 0.0
H328 H 0.46311 0.10676 0.71784 0.0
H329 H 0.44417 0.10268 0.68413 0.0
H330 H 0.46677 0.11274 0.66874 0.0
O331 O 0.44201 0.13212 0.81906 0.0
O332 O 0.43575 0.16334 0.81833 0.0
H333 H 0.44655 0.19259 0.71632 0.0
H334 H 0.45318 0.18774 0.66797 0.0
C335 C 0.44285 0.18418 0.69076 0.0
H336 H 0.42837 0.18847 0.68096 0.0
H337 H 0.43876 0.20205 0.80207 0.0
O338 O 0.43955 0.09523 0.76998 0.0
C339 C 0.44345 0.14875 0.83373 0.0
Co340 Co 0.87786 0.92866 0.02246 0.0
Co341 Co 0.83365 0.91911 0.02313 0.0
C342 C 0.86385 0.88824 0.03007 0.0
O343 O 0.8778 0.90015 0.02814 0.0
O344 O 0.84642 0.89383 0.02799 0.0
C345 C 0.91869 0.93334 -0.00102 0.0
O346 O 0.91723 0.91761 0.97862 0.0
C347 C 0.79759 0.90455 0.99083 0.0
C348 C 0.77614 0.92163 0.02241 0.0
C349 C 0.77801 0.90843 0.99329 0.0
N350 N 0.80676 0.91524 0.01686 0.0
N351 N 0.79383 0.92511 0.03612 0.0
C352 C 0.80776 0.89255 0.96196 0.0
H353 H 0.82319 0.8966 0.96032 0.0
H354 H 0.80092 0.89422 0.93382 0.0
H355 H 0.8068 0.8772 0.97031 0.0
C356 C 0.86658 0.94816 0.95141 0.0
N357 N 0.86246 0.93695 0.98139 0.0
N358 N 0.84382 0.93347 0.98197 0.0
C359 C 0.83553 0.94248 0.95237 0.0
C360 C 0.8497 0.95187 0.93206 0.0
C361 C 0.8862 0.95561 0.94205 0.0
H362 H 0.89592 0.94328 0.93668 0.0
H363 H 0.88606 0.96493 0.91662 0.0
H364 H 0.89192 0.96388 0.96637 0.0
O365 O 0.86806 0.94051 0.06922 0.0
O366 O 0.83692 0.93357 0.07075 0.0
H367 H 0.80667 0.94589 0.97289 0.0
H368 H 0.81082 0.95622 0.92685 0.0
C369 C 0.81432 0.94396 0.94571 0.0
H370 H 0.80917 0.9306 0.932 0.0
H371 H 0.79715 0.93489 0.05751 0.0
O372 O 0.9043 0.9392 0.01789 0.0
C373 C 0.8517 0.94143 0.0852 0.0
Co374 Co 0.06962 0.3756 0.26736 0.0
Co375 Co 0.07817 0.33122 0.26919 0.0
C376 C 0.10944 0.3617 0.27634 0.0
O377 O 0.09796 0.37587 0.27233 0.0
O378 O 0.10339 0.34438 0.27561 0.0
C379 C 0.0645 0.41686 0.24687 0.0
O380 O 0.08108 0.41653 0.22905 0.0
C381 C 0.09316 0.29629 0.23389 0.0
C382 C 0.07758 0.27359 0.26507 0.0
C383 C 0.09006 0.27655 0.23505 0.0
N384 N 0.08277 0.30451 0.26153 0.0
N385 N 0.07378 0.29085 0.28054 0.0
C386 C 0.10399 0.3075 0.2047 0.0
H387 H 0.0995 0.32281 0.20496 0.0
H388 H 0.10166 0.30127 0.17619 0.0
H389 H 0.11959 0.30681 0.21116 0.0
C390 C 0.0514 0.36449 0.19492 0.0
N391 N 0.0615 0.36017 0.22625 0.0
N392 N 0.06398 0.34142 0.22799 0.0
C393 C 0.05497 0.33318 0.19837 0.0
C394 C 0.0469 0.34753 0.1763 0.0
C395 C 0.04678 0.38455 0.18262 0.0
H396 H 0.05999 0.39343 0.18395 0.0
H397 H 0.04116 0.38502 0.15332 0.0
H398 H 0.03598 0.39083 0.20213 0.0
O399 O 0.05847 0.36565 0.31503 0.0
O400 O 0.06333 0.33414 0.31619 0.0
H401 H 0.0389 0.3089 0.17704 0.0
H402 H 0.06454 0.3059 0.17778 0.0
C403 C 0.05215 0.31197 0.19345 0.0
H404 H 0.05103 0.30482 0.22132 0.0
H405 H 0.06434 0.29338 0.30291 0.0
O406 O 0.05837 0.40177 0.26316 0.0
C407 C 0.05662 0.34937 0.33107 0.0
Co408 Co 0.37611 0.5676 0.02679 0.0
Co409 Co 0.33221 0.57792 0.0207 0.0
C410 C 0.36203 0.60838 0.03209 0.0
O411 O 0.37565 0.59607 0.03156 0.0
O412 O 0.34454 0.60331 0.02798 0.0
C413 C 0.41651 0.56265 0.00345 0.0
O414 O 0.41354 0.5759 0.97764 0.0
C415 C 0.29597 0.59342 0.98943 0.0
C416 C 0.27526 0.57198 0.01118 0.0
C417 C 0.27671 0.58801 0.98808 0.0
N418 N 0.30538 0.58088 0.0117 0.0
N419 N 0.29284 0.56837 0.02519 0.0
C420 C 0.30574 0.60886 0.96705 0.0
H421 H 0.32145 0.60612 0.96539 0.0
H422 H 0.2996 0.6097 0.93815 0.0
H423 H 0.30344 0.62291 0.98122 0.0
C424 C 0.36699 0.54737 0.95492 0.0
N425 N 0.36215 0.55895 0.98395 0.0
N426 N 0.34389 0.56374 0.98077 0.0
C427 C 0.33665 0.5556 0.9492 0.0
C428 C 0.35106 0.54501 0.93187 0.0
C429 C 0.38581 0.53706 0.95134 0.0
H430 H 0.39093 0.53245 0.97956 0.0
H431 H 0.39657 0.5469 0.93864 0.0
H432 H 0.38452 0.52419 0.93299 0.0
O433 O 0.36497 0.55616 0.07261 0.0
O434 O 0.33396 0.56317 0.06836 0.0
H435 H 0.30626 0.55244 0.95664 0.0
H436 H 0.31392 0.55119 0.90789 0.0
C437 C 0.31647 0.55828 0.93547 0.0
H438 H 0.3136 0.5738 0.93187 0.0
H439 H 0.29644 0.55685 0.04271 0.0
O440 O 0.40295 0.55798 0.02572 0.0
C441 C 0.34796 0.55537 0.08567 0.0
Co442 Co 0.42938 0.88012 0.26452 0.0
Co443 Co 0.42094 0.83579 0.26082 0.0
C444 C 0.38951 0.86473 0.27426 0.0
O445 O 0.40114 0.87889 0.27219 0.0
O446 O 0.3953 0.84746 0.27011 0.0
C447 C 0.43268 0.9211 0.24241 0.0
O448 O 0.41826 0.9186 0.21893 0.0
C449 C 0.40611 0.79951 0.22906 0.0
C450 C 0.42672 0.7787 0.25332 0.0
C451 C 0.41133 0.78019 0.22859 0.0
N452 N 0.41814 0.8089 0.25239 0.0
N453 N 0.43016 0.79632 0.26735 0.0
C454 C 0.39134 0.80936 0.20515 0.0
H455 H 0.39428 0.82504 0.20366 0.0
H456 H 0.39115 0.80316 0.17626 0.0
H457 H 0.37693 0.80724 0.21799 0.0
C458 C 0.44749 0.87147 0.19019 0.0
N459 N 0.43727 0.86625 0.22092 0.0
N460 N 0.43391 0.84761 0.21945 0.0
C461 C 0.44201 0.84041 0.18779 0.0
C462 C 0.45069 0.85533 0.1682 0.0
C463 C 0.45567 0.89111 0.18368 0.0
H464 H 0.46197 0.8967 0.21025 0.0
H465 H 0.44401 0.9009 0.17447 0.0
H466 H 0.46698 0.89094 0.16155 0.0
O467 O 0.4423 0.86952 0.3095 0.0
O468 O 0.4367 0.83818 0.30703 0.0
H469 H 0.44657 0.81064 0.20052 0.0
H470 H 0.45079 0.81672 0.15162 0.0
C471 C 0.44164 0.81965 0.1766 0.0
H472 H 0.42673 0.81553 0.16932 0.0
H473 H 0.44124 0.79989 0.28594 0.0
O474 O 0.43847 0.90713 0.26257 0.0
C475 C 0.44421 0.8527 0.3231 0.0
Co476 Co 0.12194 0.92987 0.52126 0.0
Co477 Co 0.16575 0.91868 0.51951 0.0
C478 C 0.1343 0.88893 0.52557 0.0
O479 O 0.12094 0.90147 0.52396 0.0
O480 O 0.15198 0.89375 0.52387 0.0
C481 C 0.08155 0.93568 0.49838 0.0
O482 O 0.08331 0.92064 0.47619 0.0
C483 C 0.201 0.90326 0.48493 0.0
C484 C 0.22333 0.91879 0.51723 0.0
C485 C 0.22076 0.90625 0.48719 0.0
N486 N 0.19243 0.91383 0.51194 0.0
N487 N 0.20588 0.92277 0.53159 0.0
C488 C 0.19016 0.8922 0.45559 0.0
H489 H 0.17489 0.89685 0.45474 0.0
H490 H 0.19686 0.89412 0.42737 0.0
H491 H 0.19058 0.87668 0.46284 0.0
C492 C 0.13339 0.9506 0.45162 0.0
N493 N 0.13734 0.93865 0.48057 0.0
N494 N 0.15578 0.93424 0.47985 0.0
C495 C 0.1641 0.94336 0.45041 0.0
C496 C 0.15017 0.95382 0.43158 0.0
C497 C 0.11398 0.95892 0.44355 0.0
H498 H 0.10849 0.96638 0.46907 0.0
H499 H 0.10392 0.94711 0.43639 0.0
H500 H 0.11433 0.96918 0.41957 0.0
O501 O 0.13239 0.93963 0.56935 0.0
O502 O 0.16347 0.93248 0.56813 0.0
H503 H 0.19343 0.94481 0.46918 0.0
H504 H 0.18911 0.9562 0.42418 0.0
C505 C 0.18524 0.9438 0.44242 0.0
H506 H 0.18942 0.93045 0.42747 0.0
H507 H 0.2031 0.93225 0.55378 0.0
O508 O 0.09575 0.94106 0.51836 0.0
C509 C 0.14897 0.9399 0.58453 0.0
Co510 Co 0.07051 0.62193 0.75875 0.0
Co511 Co 0.07753 0.66636 0.76656 0.0
C512 C 0.10927 0.63694 0.77701 0.0
O513 O 0.09829 0.62267 0.77018 0.0
O514 O 0.10296 0.65416 0.77624 0.0
C515 C 0.05843 0.58372 0.77454 0.0
O516 O 0.06309 0.58878 0.80911 0.0
C517 C 0.09214 0.70286 0.73766 0.0
C518 C 0.07441 0.72387 0.76897 0.0
C519 C 0.08804 0.72237 0.74049 0.0
N520 N 0.08121 0.69339 0.76283 0.0
N521 N 0.07094 0.70604 0.78201 0.0
C522 C 0.10452 0.69302 0.70895 0.0
H523 H 0.10097 0.67748 0.70731 0.0
H524 H 0.10273 0.69978 0.68077 0.0
H525 H 0.11982 0.69444 0.71743 0.0
C526 C 0.05607 0.63418 0.68436 0.0
N527 N 0.06439 0.63813 0.71776 0.0
N528 N 0.06598 0.65687 0.72166 0.0
C529 C 0.05803 0.6655 0.69128 0.0
C530 C 0.0517 0.65139 0.66651 0.0
C531 C 0.0525 0.61424 0.67002 0.0
H532 H 0.06487 0.60485 0.67722 0.0
H533 H 0.05037 0.61412 0.63896 0.0
H534 H 0.03947 0.60833 0.68392 0.0
O535 O 0.05595 0.62999 0.80422 0.0
O536 O 0.06045 0.66144 0.8099 0.0
H537 H 0.04126 0.68941 0.67051 0.0
H538 H 0.0666 0.6938 0.67468 0.0
C539 C 0.05414 0.68662 0.68819 0.0
H540 H 0.05175 0.69293 0.71653 0.0
H541 H 0.06085 0.70242 0.80266 0.0
O542 O 0.06153 0.59543 0.74764 0.0
C543 C 0.05302 0.64579 0.82145 0.0
H544 H 0.94903 0.9309 0.94942 0.0
H545 H 0.97656 0.95282 0.94452 0.0
H546 H 0.95529 0.98511 0.03982 0.0
H547 H 0.92765 0.96368 0.04433 0.0
H548 H 0.96555 0.00844 0.98208 0.0
H549 H 0.02381 0.95584 0.01123 0.0
H550 H 0.00849 0.94951 0.97234 0.0
H551 H 0.99877 0.95042 0.01939 0.0
C552 C 0.95034 0.94255 0.96956 0.0
C553 C 0.93617 0.94551 -0.00268 0.0
C554 C 0.96611 0.95504 0.96679 0.0
C555 C 0.96809 0.97051 0.99205 0.0
C556 C 0.95406 0.97331 0.01999 0.0
H557 H 0.06801 0.03706 0.048 0.0
H558 H 0.04033 0.01555 0.0449 0.0
C559 C 0.93828 0.96097 0.02259 0.0
C560 C 0.98445 0.98417 0.98919 0.0
H561 H 0.03337 0.98737 0.99488 0.0
C562 C 0.9804 0.00385 0.98479 0.0
C563 C 0.00379 0.97816 0.99303 0.0
C564 C 0.00904 0.95736 -0.0004 0.0
C565 C 0.99511 0.0177 0.9847 0.0
C566 C 0.01446 0.01167 0.98821 0.0
C567 C 0.01853 0.99197 0.99201 0.0
C568 C 0.03069 0.02555 0.99019 0.0
C569 C 0.9897 0.03869 0.98226 0.0
C570 C 0.03442 0.03849 0.96057 0.0
C571 C 0.05016 0.05105 0.96251 0.0
C572 C 0.06259 0.05063 0.99382 0.0
C573 C 0.05872 0.03774 0.02347 0.0
C574 C 0.04293 0.02538 0.02169 0.0
H575 H 0.97433 0.04108 0.98955 0.0
H576 H 0.99873 0.04753 0.00143 0.0
H577 H 0.99199 0.04382 0.95292 0.0
H578 H 0.02543 0.03861 0.93561 0.0
H579 H 0.0529 0.06065 0.93902 0.0
H580 H 0.96142 0.56614 0.29873 0.0
H581 H 0.98331 0.53882 0.29412 0.0
H582 H 0.95615 0.5214 0.19003 0.0
H583 H 0.93368 0.54847 0.19517 0.0
H584 H 0.96363 0.491 0.23318 0.0
H585 H 0.02913 0.53588 0.2256 0.0
H586 H 0.01555 0.54094 0.26749 0.0
H587 H 0.00528 0.54592 0.22178 0.0
C588 C 0.96002 0.55644 0.27493 0.0
C589 C 0.9459 0.55952 0.24717 0.0
C590 C 0.97268 0.54092 0.27214 0.0
C591 C 0.97179 0.52839 0.24112 0.0
C592 C 0.95725 0.53102 0.21401 0.0
H593 H 0.06631 0.44742 0.19787 0.0
H594 H 0.04358 0.4743 0.19295 0.0
C595 C 0.94438 0.54644 0.21704 0.0
C596 C 0.98589 0.51244 0.23745 0.0
H597 H 0.034 0.50247 0.23986 0.0
C598 C 0.97902 0.49353 0.23425 0.0
C599 C 0.00601 0.51572 0.23788 0.0
C600 C 0.01443 0.53574 0.23793 0.0
C601 C 0.99166 0.47779 0.23311 0.0
C602 C 0.01172 0.48101 0.23646 0.0
C603 C 0.01863 0.49996 0.23798 0.0
C604 C 0.0257 0.46491 0.23956 0.0
C605 C 0.98335 0.4579 0.22805 0.0
C606 C 0.02354 0.45101 0.26799 0.0
C607 C 0.03634 0.43562 0.2706 0.0
C608 C 0.05187 0.43398 0.24533 0.0
C609 C 0.05451 0.4483 0.21777 0.0
C610 C 0.0415 0.46362 0.21487 0.0
H611 H 0.96926 0.45843 0.21326 0.0
H612 H 0.99322 0.44848 0.21173 0.0
H613 H 0.98091 0.45132 0.25621 0.0
H614 H 0.01189 0.45204 0.28821 0.0
H615 H 0.03404 0.42496 0.29246 0.0
H616 H 0.55265 0.55094 0.58179 0.0
H617 H 0.52483 0.52999 0.57236 0.0
H618 H 0.54166 0.52087 0.45647 0.0
H619 H 0.56934 0.54212 0.46538 0.0
H620 H 0.50259 0.52615 0.46427 0.0
H621 H 0.52889 0.47161 0.56609 0.0
H622 H 0.52688 0.49521 0.58627 0.0
H623 H 0.54388 0.49091 0.54885 0.0
C624 C 0.55037 0.54462 0.55418 0.0
C625 C 0.56334 0.54807 0.52445 0.0
C626 C 0.53453 0.53252 0.54893 0.0
C627 C 0.53145 0.52349 0.51399 0.0
C628 C 0.54388 0.52755 0.48378 0.0
H629 H 0.4539 0.42498 0.4902 0.0
H630 H 0.4822 0.44599 0.48842 0.0
C631 C 0.55969 0.53972 0.48894 0.0
C632 C 0.51539 0.50964 0.50916 0.0
H633 H 0.49654 0.46809 0.54491 0.0
C634 C 0.50131 0.51339 0.48172 0.0
C635 C 0.51397 0.49276 0.53137 0.0
C636 C 0.52931 0.48724 0.55953 0.0
C637 C 0.48548 0.50107 0.47683 0.0
C638 C 0.48352 0.48477 0.5005 0.0
C639 C 0.49795 0.48068 0.52703 0.0
C640 C 0.46628 0.47217 0.4993 0.0
C641 C 0.4711 0.50558 0.44616 0.0
C642 C 0.44797 0.47987 0.50618 0.0
C643 C 0.43181 0.46795 0.50707 0.0
C644 C 0.43363 0.44799 0.50155 0.0
C645 C 0.45199 0.44028 0.49453 0.0
C646 C 0.46817 0.45226 0.49352 0.0
H647 H 0.47763 0.51449 0.42346 0.0
H648 H 0.46523 0.49223 0.43336 0.0
H649 H 0.45898 0.51386 0.45848 0.0
H650 H 0.4462 0.49509 0.51168 0.0
H651 H 0.41792 0.47439 0.51272 0.0
H652 H 0.53931 0.92771 0.71133 0.0
H653 H 0.51814 0.95549 0.70273 0.0
H654 H 0.53237 0.97548 0.81456 0.0
H655 H 0.55347 0.94768 0.82364 0.0
H656 H 0.48559 0.96484 0.75452 0.0
H657 H 0.54018 0.02291 0.74152 0.0
H658 H 0.54564 0.99794 0.7322 0.0
H659 H 0.54357 0.00633 0.77998 0.0
C660 C 0.53813 0.93811 0.73398 0.0
C661 C 0.54807 0.93546 0.76823 0.0
C662 C 0.52598 0.95394 0.72901 0.0
C663 C 0.5238 0.96753 0.75793 0.0
C664 C 0.53404 0.96521 0.79178 0.0
H665 H 0.46092 0.07073 0.80247 0.0
H666 H 0.48166 0.04249 0.80203 0.0
C667 C 0.54605 0.9493 0.79692 0.0
C668 C 0.51014 0.98368 0.75356 0.0
H669 H 0.50773 0.0326 0.74885 0.0
C670 C 0.49036 0.97968 0.75293 0.0
C671 C 0.51651 0.00294 0.75155 0.0
C672 C 0.53763 0.00789 0.75104 0.0
C673 C 0.47668 0.99454 0.75181 0.0
C674 C 0.48303 0.01387 0.75037 0.0
C675 C 0.50287 0.01779 0.75005 0.0
C676 C 0.46947 0.03035 0.75108 0.0
C677 C 0.45561 0.98943 0.75374 0.0
C678 C 0.45556 0.03288 0.72271 0.0
C679 C 0.44346 0.04899 0.72311 0.0
C680 C 0.44531 0.06298 0.75157 0.0
C681 C 0.45914 0.06027 0.78006 0.0
C682 C 0.47105 0.04414 0.77983 0.0
H683 H 0.45334 0.97454 0.76426 0.0
H684 H 0.4477 -0.00047 0.77243 0.0
H685 H 0.44929 0.9904 0.72502 0.0
H686 H 0.45434 0.02263 0.6998 0.0
H687 H 0.43307 0.05078 0.70057 0.0
H688 H 0.07093 0.96301 0.54929 0.0
H689 H 0.04316 0.9844 0.54655 0.0
H690 H 0.0252 0.95784 0.44221 0.0
H691 H 0.05276 0.93591 0.44537 0.0
H692 H 0.03453 0.01089 0.49433 0.0
H693 H 0.97583 0.95688 0.50196 0.0
H694 H 0.00058 0.95089 0.51171 0.0
H695 H 0.99236 0.95308 0.46372 0.0
C696 C 0.06096 0.96155 0.52594 0.0
C697 C 0.06399 0.94769 0.49763 0.0
C698 C 0.04512 0.97384 0.52436 0.0
C699 C 0.03198 0.97263 0.49438 0.0
C700 C 0.0349 0.95877 0.46606 0.0
H701 H 0.94897 0.06563 0.45121 0.0
H702 H 0.97654 0.0438 0.44649 0.0
C703 C 0.05069 0.94628 0.46784 0.0
C704 C 0.01564 0.98635 0.49257 0.0
H705 H 0.96662 0.98917 0.49133 0.0
C706 C 0.01967 0.00615 0.49363 0.0
C707 C 0.99626 0.98014 0.49192 0.0
C708 C 0.99093 0.9591 0.49262 0.0
C709 C 0.00488 0.0199 0.49467 0.0
C710 C 0.98551 0.01369 0.4936 0.0
C711 C 0.98148 0.99391 0.49194 0.0
C712 C 0.96914 0.02734 0.49639 0.0
C713 C 0.01018 0.04087 0.49831 0.0
C714 C 0.95566 0.02519 0.52559 0.0
C715 C 0.93982 0.03744 0.52803 0.0
C716 C 0.93714 0.0522 0.5014 0.0
C717 C 0.95077 0.05455 0.47242 0.0
C718 C 0.96656 0.04211 0.46975 0.0
H719 H 0.02516 0.04277 0.50859 0.0
H720 H 0.00909 0.04785 0.4702 0.0
H721 H 0.0003 0.04843 0.51798 0.0
H722 H 0.95736 0.01393 0.54648 0.0
H723 H 0.92959 0.03524 0.55073 0.0
H724 H 0.92801 0.45396 0.71128 0.0
H725 H 0.94972 0.48179 0.70885 0.0
H726 H 0.98711 0.45454 0.78994 0.0
H727 H 0.96581 0.42674 0.79221 0.0
H728 H 0.96183 0.50636 0.76665 0.0
H729 H 0.02401 0.46792 0.70419 0.0
H730 H 2e-05 0.45794 0.70455 0.0
H731 H 0.01491 0.45652 0.74603 0.0
C732 C 0.94084 0.45393 0.72862 0.0
C733 C 0.94524 0.43807 0.75173 0.0
C734 C 0.95324 0.46981 0.72713 0.0
C735 C 0.97024 0.47002 0.74857 0.0
C736 C 0.97435 0.45445 0.77238 0.0
H737 H 0.04727 0.55696 0.82662 0.0
H738 H 0.02594 0.52943 0.81679 0.0
C739 C 0.96205 0.43861 0.77382 0.0
C740 C 0.98355 0.48666 0.74703 0.0
H741 H 0.03057 0.49879 0.73154 0.0
C742 C 0.97679 0.50476 0.75853 0.0
C743 C 0.00305 0.48457 0.73613 0.0
C744 C 0.01091 0.46573 0.72166 0.0
C745 C 0.98923 0.52062 0.76096 0.0
C746 C 0.00885 0.51827 0.75173 0.0
C747 C 0.01551 0.50042 0.73889 0.0
C748 C 0.02275 0.53412 0.75675 0.0
C749 C 0.98149 0.53976 0.77399 0.0
C750 C 0.02829 0.54554 0.72598 0.0
C751 C 0.04048 0.56132 0.73145 0.0
C752 C 0.04733 0.56585 0.76781 0.0
C753 C 0.04224 0.5539 0.79829 0.0
C754 C 0.03003 0.5382 0.79278 0.0
H755 H 0.96556 0.53973 0.77647 0.0
H756 H 0.98773 0.54335 0.80198 0.0
H757 H 0.98586 0.55126 0.75395 0.0
H758 H 0.0228 0.54252 0.69796 0.0
H759 H 0.0441 0.57023 0.70738 0.0
H760 H 0.57015 0.46386 0.05111 0.0
H761 H 0.5427 0.48563 0.04826 0.0
H762 H 0.51753 0.45112 0.95987 0.0
H763 H 0.54483 0.42887 0.9633 0.0
H764 H 0.53089 0.50754 0.9903 0.0
H765 H 0.47271 0.45701 0.03145 0.0
H766 H 0.49784 0.45117 0.03675 0.0
H767 H 0.48645 0.4493 0.99128 0.0
C768 C 0.55869 0.46075 0.03131 0.0
C769 C 0.55963 0.44457 0.00753 0.0
C770 C 0.54302 0.47326 0.02965 0.0
C771 C 0.52796 0.46994 0.0041 0.0
C772 C 0.52878 0.45375 0.98037 0.0
H773 H 0.44334 0.55913 0.94707 0.0
H774 H 0.4708 0.53705 0.94532 0.0
C775 C 0.54441 0.44107 0.98229 0.0
C776 C 0.5118 0.48385 0.00185 0.0
H777 H 0.46314 0.48809 0.01175 0.0
C778 C 0.51606 0.5033 0.99497 0.0
C779 C 0.49249 0.47832 0.00828 0.0
C780 C 0.48706 0.45786 0.01771 0.0
C781 C 0.50159 0.5174 0.99473 0.0
C782 C 0.48225 0.51182 0.00058 0.0
C783 C 0.47797 0.49234 0.00707 0.0
C784 C 0.46627 0.52597 0.00182 0.0
C785 C 0.50727 0.53818 0.98947 0.0
C786 C 0.45449 0.52698 0.03395 0.0
C787 C 0.4387 0.53937 0.03482 0.0
C788 C 0.43439 0.5511 0.00361 0.0
C789 C 0.44645 0.55045 0.97174 0.0
C790 C 0.46217 0.53786 0.97073 0.0
H791 H 0.52278 0.54053 0.99552 0.0
H792 H 0.5046 0.54244 0.95972 0.0
H793 H 0.49868 0.54775 0.00808 0.0
H794 H 0.45738 0.51797 0.05828 0.0
H795 H 0.4297 0.53953 0.05981 0.0
H796 H 0.4347 0.94841 0.18661 0.0
H797 H 0.45695 0.97577 0.18337 0.0
H798 H 0.47848 0.96166 0.29425 0.0
H799 H 0.45682 0.93409 0.29716 0.0
H800 H 0.4622 0.00758 0.2252 0.0
H801 H 0.52753 0.9625 0.23404 0.0
H802 H 0.50393 0.95242 0.22647 0.0
H803 H 0.51185 0.95846 0.27347 0.0
C804 C 0.44407 0.95127 0.2104 0.0
C805 C 0.44416 0.93901 0.24198 0.0
C806 C 0.45683 0.96684 0.20846 0.0
C807 C 0.46978 0.97042 0.23811 0.0
C808 C 0.4691 0.95879 0.27048 0.0
H809 H 0.53041 0.0745 0.29176 0.0
H810 H 0.50803 0.04771 0.28531 0.0
C811 C 0.45658 0.94314 0.27224 0.0
C812 C 0.48405 0.98627 0.23548 0.0
H813 H 0.53188 0.9962 0.24572 0.0
C814 C 0.47746 0.00508 0.2293 0.0
C815 C 0.50403 0.98296 0.23988 0.0
C816 C 0.51228 0.96296 0.2434 0.0
C817 C 0.4902 0.02076 0.22907 0.0
C818 C 0.50999 0.01759 0.2363 0.0
C819 C 0.51668 0.99869 0.24081 0.0
C820 C 0.52389 0.03368 0.24045 0.0
C821 C 0.48229 0.04053 0.22081 0.0
C822 C 0.54079 0.03428 0.21866 0.0
C823 C 0.55389 0.04944 0.22286 0.0
C824 C 0.55026 0.06429 0.24885 0.0
C825 C 0.53354 0.0634 0.27117 0.0
C826 C 0.52061 0.04818 0.26726 0.0
H827 H 0.46893 0.03971 0.20366 0.0
H828 H 0.47864 0.04776 0.24782 0.0
H829 H 0.49293 0.04954 0.20548 0.0
H830 H 0.54373 0.02314 0.19806 0.0
H831 H 0.56662 0.04973 0.20522 0.0
H832 H 0.16003 0.94257 0.36113 0.0
H833 H 0.16233 0.96271 0.30448 0.0
H834 H 0.14915 0.01294 0.37144 0.0
H835 H 0.146 0.99255 0.42773 0.0
H836 H 0.12816 0.01268 0.31099 0.0
H837 H 0.20305 0.99823 0.26746 0.0
H838 H 0.18981 0.97623 0.27179 0.0
H839 H 0.19383 0.99098 0.31294 0.0
C840 C 0.15782 0.95795 0.36356 0.0
C841 C 0.15278 0.96615 0.3983 0.0
C842 C 0.15931 0.96946 0.33139 0.0
C843 C 0.15629 0.98941 0.33382 0.0
C844 C 0.15163 0.99761 0.36893 0.0
H845 H 0.17581 0.06209 0.13529 0.0
H846 H 0.1785 0.04729 0.19783 0.0
C847 C 0.14983 0.98604 0.40096 0.0
C848 C 0.15644 0.00142 0.29926 0.0
H849 H 0.18207 0.01098 0.21921 0.0
C850 C 0.14008 0.01251 0.2912 0.0
C851 C 0.17212 0.00152 0.27374 0.0
C852 C 0.19076 0.99127 0.28216 0.0
C853 C 0.13864 0.02309 0.25764 0.0
C854 C 0.15368 0.02196 0.23078 0.0
C855 C 0.17039 0.01155 0.23953 0.0
C856 C 0.15207 0.03098 0.19304 0.0
C857 C 0.12103 0.0354 0.25149 0.0
C858 C 0.13653 0.02644 0.16938 0.0
C859 C 0.13482 0.03506 0.13398 0.0
C860 C 0.14887 0.04805 0.12118 0.0
C861 C 0.16474 0.05215 0.14442 0.0
C862 C 0.1663 0.04372 0.18013 0.0
H863 H 0.11454 0.03989 0.2788 0.0
H864 H 0.12449 0.0485 0.23486 0.0
H865 H 0.11005 0.02696 0.23592 0.0
H866 H 0.12573 0.01616 0.17824 0.0
H867 H 0.12256 0.03139 0.1165 0.0
H868 H 0.0184 0.63424 0.64441 0.0
H869 H 0.00171 0.63802 0.58399 0.0
H870 H 0.0443 0.67938 0.54834 0.0
H871 H 0.06142 0.67512 0.60841 0.0
H872 H 0.98616 0.67119 0.55039 0.0
H873 H 0.04464 0.63893 0.46354 0.0
H874 H 0.04389 0.63669 0.51432 0.0
H875 H 0.05143 0.65888 0.49296 0.0
C876 C 0.02429 0.64397 0.62347 0.0
C877 C 0.04131 0.65416 0.63061 0.0
C878 C 0.01468 0.64626 0.58921 0.0
C879 C 0.02193 0.65879 0.56162 0.0
C880 C 0.03866 0.66941 0.56909 0.0
H881 H 0.9537 0.68189 0.35694 0.0
H882 H 0.97317 0.68717 0.41369 0.0
C883 C 0.04833 0.66707 0.60338 0.0
C884 C 0.01206 0.66029 0.52482 0.0
H885 H 0.01679 0.64903 0.43148 0.0
C886 C 0.99287 0.66655 0.52426 0.0
C887 C 0.02091 0.65409 0.49098 0.0
C888 C 0.0413 0.64662 0.49027 0.0
C889 C 0.98207 0.66625 0.49081 0.0
C890 C 0.99085 0.65979 0.45709 0.0
C891 C 0.0102 0.65408 0.45744 0.0
C892 C 0.97971 0.65704 0.42199 0.0
C893 C 0.96114 0.67197 0.49217 0.0
C894 C 0.97739 0.63843 0.40751 0.0
C895 C 0.96642 0.63536 0.37513 0.0
C896 C 0.95757 0.65089 0.35653 0.0
C897 C 0.96022 0.66961 0.37074 0.0
C898 C 0.97126 0.67266 0.4032 0.0
H899 H 0.95574 0.67321 0.52162 0.0
H900 H 0.95932 0.68614 0.47819 0.0
H901 H 0.95213 0.66135 0.47682 0.0
H902 H 0.98384 0.62621 0.42165 0.0
H903 H 0.96475 0.62077 0.36495 0.0
H904 H 0.31879 0.4414 0.6334 0.0
H905 H 0.31706 0.45874 0.69365 0.0
H906 H 0.37341 0.48256 0.67372 0.0
H907 H 0.3754 0.46534 0.61378 0.0
H908 H 0.34718 0.45617 0.75607 0.0
H909 H 0.33558 0.52928 0.69643 0.0
H910 H 0.3298 0.50758 0.6707 0.0
H911 H 0.35437 0.51519 0.67503 0.0
C912 C 0.33078 0.45038 0.64178 0.0
C913 C 0.34722 0.45201 0.61879 0.0
C914 C 0.32977 0.46022 0.67616 0.0
C915 C 0.34504 0.47197 0.68772 0.0
C916 C 0.36142 0.47366 0.66493 0.0
H917 H 0.3746 0.54692 0.87096 0.0
H918 H 0.37251 0.52811 0.81253 0.0
C919 C 0.36253 0.46375 0.63078 0.0
C920 C 0.34419 0.48229 0.72401 0.0
H921 H 0.34267 0.52734 0.76177 0.0
C922 C 0.34599 0.47171 0.75753 0.0
C923 C 0.34275 0.50252 0.72543 0.0
C924 C 0.34037 0.51439 0.69005 0.0
C925 C 0.34706 0.48098 0.79267 0.0
C926 C 0.34585 0.50128 0.7941 0.0
C927 C 0.34364 0.51178 0.76052 0.0
C928 C 0.34736 0.51202 0.82999 0.0
C929 C 0.35022 0.46902 0.82772 0.0
C930 C 0.33391 0.50916 0.85903 0.0
C931 C 0.33524 0.51972 0.89248 0.0
C932 C 0.34981 0.5335 0.897 0.0
C933 C 0.36327 0.53632 0.868 0.0
C934 C 0.36203 0.52568 0.8347 0.0
H935 H 0.35576 0.45445 0.82079 0.0
H936 H 0.36052 0.47613 0.84719 0.0
H937 H 0.33634 0.46727 0.84279 0.0
H938 H 0.32229 0.49893 0.85569 0.0
H939 H 0.32485 0.51719 0.91476 0.0
H940 H 0.44292 0.87422 0.10307 0.0
H941 H 0.46089 0.87254 0.04337 0.0
H942 H 0.50084 0.83269 0.09405 0.0
H943 H 0.48295 0.83448 0.15384 0.0
H944 H 0.5177 0.86479 0.05319 0.0
H945 H 0.46251 0.82518 0.97029 0.0
H946 H 0.45399 0.84604 0.99524 0.0
H947 H 0.46262 0.82565 0.02134 0.0
C948 C 0.45552 0.86509 0.10124 0.0
C949 C 0.46151 0.85427 0.13252 0.0
C950 C 0.46567 0.86406 0.06726 0.0
C951 C 0.48196 0.85226 0.0643 0.0
C952 C 0.48818 0.84172 0.09581 0.0
H953 H 0.54529 0.82195 0.86056 0.0
H954 H 0.52756 0.82099 0.92036 0.0
C955 C 0.47797 0.84269 0.12974 0.0
C956 C 0.49281 0.8513 0.02852 0.0
H957 H 0.48924 0.83753 0.93625 0.0
C958 C 0.51155 0.85876 0.02763 0.0
C959 C 0.48474 0.84323 0.99548 0.0
C960 C 0.46491 0.83441 0.99548 0.0
C961 C 0.5223 0.8588 0.99412 0.0
C962 C 0.514 0.85129 0.9608 0.0
C963 C 0.49545 0.84339 0.9619 0.0
C964 C 0.52429 0.85185 0.92437 0.0
C965 C 0.54247 0.86683 0.99454 0.0
C966 C 0.52796 0.86951 0.90675 0.0
C967 C 0.53796 0.87014 0.87261 0.0
C968 C 0.54451 0.85308 0.85552 0.0
C969 C 0.54051 0.83535 0.87304 0.0
C970 C 0.53039 0.83475 0.90713 0.0
H971 H 0.54818 0.8682 0.02374 0.0
H972 H 0.55233 0.85756 0.97789 0.0
H973 H 0.54242 0.88133 0.98144 0.0
H974 H 0.5231 0.88282 0.91949 0.0
H975 H 0.54075 0.88403 0.85989 0.0
H976 H 0.82276 0.06214 0.63873 0.0
H977 H 0.82018 0.04675 0.70083 0.0
H978 H 0.87205 0.01463 0.67835 0.0
H979 H 0.87513 0.03044 0.6172 0.0
H980 H 0.81615 0.01042 0.72215 0.0
H981 H 0.88499 0.03781 0.77848 0.0
H982 H 0.87464 0.04677 0.73519 0.0
H983 H 0.88871 0.02499 0.7352 0.0
C984 C 0.83363 0.05182 0.64714 0.0
C985 C 0.84928 0.04767 0.62337 0.0
C986 C 0.83214 0.04306 0.68258 0.0
C987 C 0.8462 0.02993 0.6946 0.0
C988 C 0.86141 0.02523 0.67023 0.0
H989 H 0.83856 0.94102 0.86207 0.0
H990 H 0.83593 0.96136 0.80573 0.0
C991 C 0.86308 0.03418 0.63516 0.0
C992 C 0.84491 0.02079 0.73229 0.0
H993 H 0.8714 0.01061 0.81078 0.0
C994 C 0.82812 0.01066 0.7418 0.0
C995 C 0.86034 0.02151 0.7583 0.0
C996 C 0.87808 0.03355 0.75144 0.0
C997 C 0.8267 0.0005 0.77593 0.0
C998 C 0.84275 -5e-05 0.80051 0.0
C999 C 0.85919 0.01077 0.7917 0.0
C1000 C 0.84317 0.98781 0.83491 0.0
C1001 C 0.80797 0.99059 0.78526 0.0
C1002 C 0.84865 0.99578 0.86976 0.0
C1003 C 0.85068 0.98407 0.90154 0.0
C1004 C 0.8471 0.96429 0.89892 0.0
C1005 C 0.84128 0.95631 0.86445 0.0
C1006 C 0.83958 0.96795 0.83249 0.0
H1007 H 0.79562 0.9979 0.77144 0.0
H1008 H 0.80843 0.9756 0.77453 0.0
H1009 H 0.80536 0.9902 0.8162 0.0
H1010 H 0.85158 0.01103 0.87226 0.0
H1011 H 0.85511 0.99041 0.92811 0.0
H1012 H 0.94939 0.31758 0.86717 0.0
H1013 H 0.96749 0.31371 0.92603 0.0
H1014 H 0.97389 0.37527 0.93426 0.0
H1015 H 0.95617 0.37931 0.87542 0.0
H1016 H 0.008 0.35522 0.94497 0.0
H1017 H 0.9489 0.32572 0.03372 0.0
H1018 H 0.95345 0.31309 0.99033 0.0
H1019 H 0.94456 0.33732 0.98889 0.0
C1020 C 0.95458 0.3303 0.8816 0.0
C1021 C 0.95131 0.34876 0.86661 0.0
C1022 C 0.96482 0.32805 0.91529 0.0
C1023 C 0.97181 0.34422 0.93461 0.0
C1024 C 0.96857 0.36262 0.91974 0.0
H1025 H 0.01192 0.36299 0.16005 0.0
H1026 H 0.99402 0.36042 0.10062 0.0
C1027 C 0.95842 0.36489 0.88611 0.0
C1028 C 0.98295 0.34217 0.9699 0.0
H1029 H 0.97953 0.32828 0.06213 0.0
C1030 C 0.00185 0.34923 0.97057 0.0
C1031 C 0.97475 0.33448 0.00319 0.0
C1032 C 0.95425 0.32735 0.00431 0.0
C1033 C 0.01272 0.34913 0.00388 0.0
C1034 C 0.00455 0.34138 0.03716 0.0
C1035 C 0.98575 0.33406 0.03641 0.0
C1036 C 0.01492 0.34189 0.07356 0.0
C1037 C 0.03256 0.35796 0.00348 0.0
C1038 C 0.03237 0.33203 0.07813 0.0
C1039 C 0.04268 0.33369 0.11181 0.0
C1040 C 0.03561 0.34514 0.14136 0.0
C1041 C 0.01781 0.3544 0.13728 0.0
C1042 C 0.00754 0.35281 0.10357 0.0
H1043 H 0.03494 0.36703 0.97807 0.0
H1044 H 0.03493 0.36691 0.02904 0.0
H1045 H 0.04349 0.34633 0.00335 0.0
H1046 H 0.03811 0.32326 0.05549 0.0
H1047 H 0.05637 0.32636 0.11448 0.0
H1048 H 0.66774 0.51418 0.41949 0.0
H1049 H 0.6715 0.49448 0.36232 0.0
H1050 H 0.63997 0.53683 0.29823 0.0
H1051 H 0.63653 0.55664 0.35521 0.0
H1052 H 0.64193 0.47911 0.31856 0.0
H1053 H 0.68824 0.52759 0.23371 0.0
H1054 H 0.68511 0.53035 0.28409 0.0
H1055 H 0.66712 0.5392 0.25199 0.0
C1056 C 0.66189 0.51931 0.39297 0.0
C1057 C 0.65205 0.5369 0.39127 0.0
C1058 C 0.66398 0.5081 0.36052 0.0
C1059 C 0.65631 0.5144 0.32601 0.0
C1060 C 0.64638 0.53196 0.32442 0.0
H1061 H 0.61886 0.45508 0.12965 0.0
H1062 H 0.623 0.4716 0.18984 0.0
C1063 C 0.64429 0.54315 0.35687 0.0
C1064 C 0.65767 0.50215 0.29205 0.0
H1065 H 0.6724 0.5022 0.20011 0.0
C1066 C 0.64879 0.48404 0.29278 0.0
C1067 C 0.66688 0.50852 0.25871 0.0
C1068 C 0.67755 0.5274 0.25707 0.0
C1069 C 0.64811 0.47247 0.2604 0.0
C1070 C 0.65629 0.47936 0.22644 0.0
C1071 C 0.66597 0.49707 0.22617 0.0
C1072 C 0.654 0.46893 0.19042 0.0
C1073 C 0.63847 0.45306 0.26268 0.0
C1074 C 0.67014 0.46233 0.17049 0.0
C1075 C 0.66786 0.45291 0.1359 0.0
C1076 C 0.64938 0.45013 0.12059 0.0
C1077 C 0.63328 0.45691 0.14065 0.0
C1078 C 0.63559 0.46625 0.17519 0.0
H1079 H 0.63794 0.44765 0.29221 0.0
H1080 H 0.62346 0.45433 0.25232 0.0
H1081 H 0.64606 0.44232 0.24486 0.0
H1082 H 0.68448 0.46443 0.18177 0.0
H1083 H 0.68055 0.44793 0.12111 0.0
H1084 H 0.54884 0.18266 0.37236 0.0
H1085 H 0.53205 0.18538 0.43308 0.0
H1086 H 0.52626 0.1237 0.43785 0.0
H1087 H 0.54292 0.12075 0.37751 0.0
H1088 H 0.49363 0.17029 0.45102 0.0
H1089 H 0.55164 0.13964 0.54048 0.0
H1090 H 0.55601 0.1492 0.49378 0.0
H1091 H 0.54578 0.12564 0.49936 0.0
C1092 C 0.54404 0.16968 0.38639 0.0
C1093 C 0.54727 0.15149 0.37014 0.0
C1094 C 0.53446 0.17127 0.42099 0.0
C1095 C 0.5282 0.15472 0.43998 0.0
C1096 C 0.53127 0.1366 0.42378 0.0
H1097 H 0.4445 0.13209 0.61177 0.0
H1098 H 0.46342 0.13529 0.55348 0.0
C1099 C 0.54071 0.13498 0.38919 0.0
C1100 C 0.51799 0.15621 0.47639 0.0
H1101 H 0.52061 0.14237 0.56868 0.0
C1102 C 0.49957 0.1644 0.47688 0.0
C1103 C 0.52593 0.14866 0.51001 0.0
C1104 C 0.546 0.14043 0.51115 0.0
C1105 C 0.4885 0.16453 0.51002 0.0
C1106 C 0.49608 0.15611 0.54318 0.0
C1107 C 0.51481 0.14864 0.54304 0.0
C1108 C 0.48458 0.1544 0.57808 0.0
C1109 C 0.46878 0.17356 0.50927 0.0
C1110 C 0.49055 0.1637 0.61123 0.0
C1111 C 0.47983 0.16181 0.64439 0.0
C1112 C 0.46309 0.15056 0.64474 0.0
C1113 C 0.45731 0.14097 0.61181 0.0
C1114 C 0.468 0.14289 0.57863 0.0
H1115 H 0.46711 0.18358 0.48503 0.0
H1116 H 0.45778 0.16208 0.50645 0.0
H1117 H 0.46588 0.18153 0.53586 0.0
H1118 H 0.50344 0.17245 0.61137 0.0
H1119 H 0.48462 0.16907 0.66978 0.0
H1120 H 0.62765 0.4864 0.91469 0.0
H1121 H 0.62823 0.50425 0.85494 0.0
H1122 H 0.66293 0.45959 0.80473 0.0
H1123 H 0.66177 0.4414 0.86402 0.0
H1124 H 0.65894 0.51842 0.81389 0.0
H1125 H 0.61798 0.46435 0.73115 0.0
H1126 H 0.61933 0.46376 0.78205 0.0
H1127 H 0.63899 0.45488 0.75402 0.0
C1128 C 0.63522 0.48036 0.89071 0.0
C1129 C 0.64442 0.46246 0.89355 0.0
C1130 C 0.63566 0.49058 0.85679 0.0
C1131 C 0.64534 0.48305 0.8253 0.0
C1132 C 0.65504 0.46543 0.82849 0.0
H1133 H 0.67544 0.54622 0.62161 0.0
H1134 H 0.67611 0.52865 0.68141 0.0
C1135 C 0.65452 0.45516 0.86236 0.0
C1136 C 0.64524 0.49366 0.78914 0.0
H1137 H 0.63167 0.49024 0.69678 0.0
C1138 C 0.65297 0.5123 0.78826 0.0
C1139 C 0.63718 0.4857 0.75597 0.0
C1140 C 0.62773 0.46615 0.75577 0.0
C1141 C 0.65302 0.52316 0.75487 0.0
C1142 C 0.64549 0.51496 0.72143 0.0
C1143 C 0.63761 0.49639 0.72243 0.0
C1144 C 0.64519 0.52556 0.68524 0.0
C1145 C 0.66075 0.54344 0.75591 0.0
C1146 C 0.62762 0.52916 0.66714 0.0
C1147 C 0.62718 0.53899 0.63279 0.0
C1148 C 0.64434 0.5454 0.61591 0.0
C1149 C 0.66196 0.54161 0.63399 0.0
C1150 C 0.66237 0.53168 0.66827 0.0
H1151 H 0.6612 0.54921 0.78517 0.0
H1152 H 0.67564 0.54354 0.74459 0.0
H1153 H 0.65186 0.5532 0.73825 0.0
H1154 H 0.61421 0.52445 0.67974 0.0
H1155 H 0.61337 0.54165 0.61964 0.0
H1156 H 0.55996 0.17094 0.11701 0.0
H1157 H 0.54191 0.17505 0.05802 0.0
H1158 H 0.49603 0.14 0.10289 0.0
H1159 H 0.51372 0.13648 0.16229 0.0
H1160 H 0.53107 0.1466 0.0097 0.0
H1161 H 0.46693 0.18593 0.06102 0.0
H1162 H 0.48862 0.18362 0.08873 0.0
H1163 H 0.47137 0.16432 0.08731 0.0
C1164 C 0.54589 0.16438 0.11434 0.0
C1165 C 0.53821 0.1533 0.14386 0.0
C1166 C 0.53565 0.16668 0.08073 0.0
C1167 C 0.51755 0.15804 0.07634 0.0
C1168 C 0.5098 0.14711 0.10601 0.0
H1169 H 0.46007 0.12061 0.87652 0.0
H1170 H 0.47867 0.12453 0.93442 0.0
C1171 C 0.52 0.14488 0.13965 0.0
C1172 C 0.50732 0.1593 0.03985 0.0
H1173 H 0.46411 0.17082 0.00024 0.0
C1174 C 0.51651 0.15211 0.00751 0.0
C1175 C 0.48846 0.16677 0.03701 0.0
C1176 C 0.47834 0.17578 0.07031 0.0
C1177 C 0.50703 0.15144 0.97264 0.0
C1178 C 0.48774 0.15777 0.97035 0.0
C1179 C 0.47882 0.16574 0.00228 0.0
C1180 C 0.47635 0.15556 0.93541 0.0
C1181 C 0.51772 0.14389 0.93862 0.0
C1182 C 0.46841 0.1717 0.9175 0.0
C1183 C 0.45761 0.16951 0.88451 0.0
C1184 C 0.45452 0.15113 0.86904 0.0
C1185 C 0.46229 0.13499 0.88748 0.0
C1186 C 0.47302 0.13719 0.92046 0.0
H1187 H 0.53355 0.14513 0.94231 0.0
H1188 H 0.51423 0.12845 0.93471 0.0
H1189 H 0.51351 0.15173 0.91256 0.0
H1190 H 0.47073 0.18598 0.92886 0.0
H1191 H 0.4518 0.18224 0.87105 0.0
H1192 H 0.85756 0.00807 0.42529 0.0
H1193 H 0.85511 0.98902 0.36711 0.0
H1194 H 0.8385 0.04002 0.30558 0.0
H1195 H 0.84015 0.05881 0.36418 0.0
H1196 H 0.81788 0.00985 0.28341 0.0
H1197 H 0.89509 0.98997 0.28565 0.0
H1198 H 0.8825 0.98221 0.32715 0.0
H1199 H 0.88504 0.00752 0.3175 0.0
C1200 C 0.85332 0.01507 0.39924 0.0
C1201 C 0.84929 0.03481 0.39864 0.0
C1202 C 0.85203 0.00428 0.3661 0.0
C1203 C 0.84711 0.01321 0.33185 0.0
C1204 C 0.84245 0.03287 0.33165 0.0
H1205 H 0.87515 0.96977 0.11113 0.0
H1206 H 0.87262 0.98734 0.17054 0.0
C1207 C 0.84344 0.04358 0.36493 0.0
C1208 C 0.84721 0.00223 0.29605 0.0
H1209 H 0.87576 0.97469 0.23943 0.0
C1210 C 0.83053 0.00219 0.27368 0.0
C1211 C 0.86385 0.99252 0.28318 0.0
C1212 C 0.88269 0.9932 0.30441 0.0
C1213 C 0.83004 0.9927 0.23871 0.0
C1214 C 0.84649 0.98243 0.22649 0.0
C1215 C 0.86311 0.98243 0.24898 0.0
C1216 C 0.84719 0.97223 0.18979 0.0
C1217 C 0.81214 0.99431 0.2148 0.0
C1218 C 0.83372 0.95789 0.1808 0.0
C1219 C 0.83492 0.94806 0.14643 0.0
C1220 C 0.84994 0.95207 0.12103 0.0
C1221 C 0.86349 0.96629 0.13027 0.0
C1222 C 0.86206 0.97635 0.16419 0.0
H1223 H 0.80339 0.00705 0.22279 0.0
H1224 H 0.81577 0.99539 0.18432 0.0
H1225 H 0.80312 0.98133 0.21909 0.0
H1226 H 0.82245 0.95409 0.20055 0.0
H1227 H 0.82439 0.93704 0.14015 0.0
H1228 H 0.0431 0.37925 0.37349 0.0
H1229 H 0.02645 0.37763 0.43407 0.0
H1230 H 0.03063 0.31576 0.43276 0.0
H1231 H 0.04731 0.31715 0.37183 0.0
H1232 H 0.99311 0.33103 0.44961 0.0
H1233 H 0.05055 0.36359 0.53781 0.0
H1234 H 0.04458 0.37715 0.49622 0.0
H1235 H 0.05511 0.35367 0.49149 0.0
C1236 C 0.04056 0.36526 0.38604 0.0
C1237 C 0.04658 0.34831 0.36784 0.0
C1238 C 0.03114 0.3644 0.42077 0.0
C1239 C 0.0276 0.34661 0.438 0.0
C1240 C 0.0334 0.32963 0.4199 0.0
H1241 H 0.98368 0.33359 0.66757 0.0
H1242 H 0.00278 0.33053 0.60943 0.0
C1243 C 0.04291 0.33047 0.38515 0.0
C1244 C 0.01723 0.34582 0.47433 0.0
H1245 H 0.01947 0.36096 0.5659 0.0
C1246 C 0.99891 0.3374 0.47516 0.0
C1247 C 0.02499 0.35399 0.50757 0.0
C1248 C 0.04496 0.36247 0.50849 0.0
C1249 C 0.9878 0.33753 0.50822 0.0
C1250 C 0.99521 0.34648 0.54098 0.0
C1251 C 0.01381 0.35429 0.54053 0.0
C1252 C 0.9837 0.34821 0.57584 0.0
C1253 C 0.96823 0.32815 0.50785 0.0
C1254 C 0.96691 0.35941 0.57612 0.0
C1255 C 0.95607 0.36114 0.60914 0.0
C1256 C 0.9619 0.35168 0.64217 0.0
C1257 C 0.97886 0.34076 0.6421 0.0
C1258 C 0.98974 0.33907 0.60911 0.0
H1259 H 0.96667 0.31795 0.48388 0.0
H1260 H 0.96554 0.3203 0.53467 0.0
H1261 H 0.95703 0.33942 0.50489 0.0
H1262 H 0.96226 0.36686 0.55085 0.0
H1263 H 0.94308 0.36974 0.60888 0.0
H1264 H 0.37444 0.53748 0.13039 0.0
H1265 H 0.36866 0.51947 0.18834 0.0
H1266 H 0.3079 0.53122 0.17985 0.0
H1267 H 0.31352 0.54952 0.12173 0.0
H1268 H 0.32366 0.53706 0.25292 0.0
H1269 H 0.3435 0.46593 0.19407 0.0
H1270 H 0.36147 0.484 0.1859 0.0
H1271 H 0.33811 0.48644 0.1646 0.0
C1272 C 0.35982 0.53626 0.14071 0.0
C1273 C 0.34442 0.54486 0.12128 0.0
C1274 C 0.35655 0.52587 0.17374 0.0
C1275 C 0.33783 0.52376 0.18785 0.0
C1276 C 0.32243 0.5326 0.1691 0.0
H1277 H 0.32059 0.44105 0.37061 0.0
H1278 H 0.31528 0.45952 0.31255 0.0
C1279 C 0.32568 0.54303 0.13595 0.0
C1280 C 0.33458 0.51251 0.22261 0.0
H1281 H 0.34294 0.46849 0.26156 0.0
C1282 C 0.32759 0.52199 0.25479 0.0
C1283 C 0.33939 0.4928 0.22465 0.0
C1284 C 0.34585 0.48163 0.19036 0.0
C1285 C 0.3263 0.51247 0.28963 0.0
C1286 C 0.33245 0.49313 0.29223 0.0
C1287 C 0.33843 0.48339 0.25956 0.0
C1288 C 0.33398 0.483 0.32878 0.0
C1289 C 0.31857 0.52326 0.32335 0.0
C1290 C 0.3462 0.49014 0.35705 0.0
C1291 C 0.34914 0.47969 0.39019 0.0
C1292 C 0.3401 0.46184 0.39529 0.0
C1293 C 0.32762 0.45485 0.36732 0.0
C1294 C 0.32462 0.46534 0.33422 0.0
H1295 H 0.30892 0.53518 0.31454 0.0
H1296 H 0.31053 0.51355 0.34264 0.0
H1297 H 0.33076 0.52964 0.33925 0.0
H1298 H 0.35388 0.50354 0.35306 0.0
H1299 H 0.35861 0.48548 0.41164 0.0
H1300 H 0.45316 0.81892 0.35909 0.0
H1301 H 0.47222 0.81492 0.41673 0.0
H1302 H 0.47972 0.87638 0.42389 0.0
H1303 H 0.46099 0.88057 0.36626 0.0
H1304 H 0.5138 0.85537 0.43324 0.0
H1305 H 0.4548 0.82804 0.52504 0.0
H1306 H 0.45858 0.81523 0.48156 0.0
H1307 H 0.4503 0.83968 0.48031 0.0
C1308 C 0.45882 0.8316 0.373 0.0
C1309 C 0.4555 0.85008 0.35812 0.0
C1310 C 0.46963 0.82927 0.40598 0.0
C1311 C 0.47717 0.84538 0.42468 0.0
C1312 C 0.47397 0.86379 0.40983 0.0
H1313 H 0.51857 0.86676 0.64708 0.0
H1314 H 0.50079 0.86349 0.58776 0.0
C1315 C 0.46323 0.86614 0.37691 0.0
C1316 C 0.48864 0.84325 0.45953 0.0
H1317 H 0.48561 0.83057 0.55247 0.0
C1318 C 0.50772 0.84981 0.45928 0.0
C1319 C 0.48054 0.83611 0.49338 0.0
C1320 C 0.45989 0.82948 0.49541 0.0
C1321 C 0.51886 0.84982 0.49228 0.0
C1322 C 0.51074 0.84276 0.52618 0.0
C1323 C 0.49178 0.83584 0.52628 0.0
C1324 C 0.5212 0.84384 0.56242 0.0
C1325 C 0.53892 0.8581 0.49093 0.0
C1326 C 0.53839 0.83364 0.5679 0.0
C1327 C 0.54867 0.83569 0.60158 0.0
C1328 C 0.54183 0.8479 0.63016 0.0
C1329 C 0.52433 0.85761 0.62507 0.0
C1330 C 0.5141 0.8556 0.59143 0.0
H1331 H 0.54151 0.86645 0.46466 0.0
H1332 H 0.54154 0.86762 0.51559 0.0
H1333 H 0.54955 0.8462 0.49197 0.0
H1334 H 0.54392 0.82425 0.54603 0.0
H1335 H 0.56211 0.828 0.60504 0.0
H1336 H 0.18249 0.94736 0.62266 0.0
H1337 H 0.18595 0.96293 0.68442 0.0
H1338 H 0.12433 0.96861 0.69252 0.0
H1339 H 0.12065 0.95313 0.63114 0.0
H1340 H 0.17181 0.00077 0.70397 0.0
H1341 H 0.14077 0.94324 0.794 0.0
H1342 H 0.14953 0.93884 0.74669 0.0
H1343 H 0.12625 0.94949 0.75384 0.0
C1344 C 0.16967 0.95181 0.6377 0.0
C1345 C 0.15129 0.94899 0.622 0.0
C1346 C 0.17169 0.96069 0.67291 0.0
C1347 C 0.15538 0.96662 0.69308 0.0
C1348 C 0.13706 0.9638 0.67758 0.0
H1349 H 0.13248 0.05036 0.86233 0.0
H1350 H 0.13625 0.03091 0.80493 0.0
C1351 C 0.13501 0.95506 0.64238 0.0
C1352 C 0.15736 0.97666 0.72958 0.0
H1353 H 0.14363 0.97442 0.822 0.0
C1354 C 0.1659 0.99493 0.72993 0.0
C1355 C 0.14979 0.96887 0.76333 0.0
C1356 C 0.14122 0.94895 0.76469 0.0
C1357 C 0.16625 0.00604 0.76296 0.0
C1358 C 0.15771 0.99868 0.79618 0.0
C1359 C 0.15 0.98005 0.79629 0.0
C1360 C 0.15578 0.01048 0.83059 0.0
C1361 C 0.17549 0.02567 0.76198 0.0
C1362 C 0.16521 0.00513 0.864 0.0
C1363 C 0.16305 0.01619 0.89665 0.0
C1364 C 0.15134 0.03263 0.89622 0.0
C1365 C 0.14168 0.03779 0.86299 0.0
C1366 C 0.14391 0.0268 0.83033 0.0
H1367 H 0.18549 0.02719 0.73767 0.0
H1368 H 0.16412 0.03678 0.75916 0.0
H1369 H 0.18352 0.02853 0.78852 0.0
H1370 H 0.17425 0.99244 0.86472 0.0
H1371 H 0.17038 0.01188 0.9223 0.0
H1372 H 0.93842 0.62299 0.10395 0.0
H1373 H 0.95605 0.62383 0.04374 0.0
H1374 H 0.9965 0.66409 0.09161 0.0
H1375 H 0.97892 0.66319 0.15183 0.0
H1376 H 0.96545 0.65874 -0.00169 0.0
H1377 H 0.02893 0.61741 0.04919 0.0
H1378 H 0.00589 0.61665 0.07279 0.0
H1379 H 0.02126 0.63721 0.07826 0.0
C1380 C 0.95105 0.63203 0.10137 0.0
C1381 C 0.95733 0.64315 0.13201 0.0
C1382 C 0.96104 0.63253 0.06718 0.0
C1383 C 0.97756 0.64395 0.06351 0.0
C1384 C 0.98383 0.65511 0.09413 0.0
H1385 H 0.04155 0.67679 0.86354 0.0
H1386 H 0.0225 0.67646 0.92168 0.0
C1387 C 0.97377 0.65469 0.12826 0.0
C1388 C 0.98831 0.64414 0.02762 0.0
H1389 H 0.03076 0.63043 0.98757 0.0
C1390 C 0.97973 0.65257 0.99583 0.0
C1391 C 0.00681 0.63588 0.0247 0.0
C1392 C 0.0163 0.62613 0.0579 0.0
C1393 C 0.98936 0.65318 0.96104 0.0
C1394 C 0.00802 0.64525 0.9583 0.0
C1395 C 0.01648 0.6366 0.98999 0.0
C1396 C 0.01897 0.64556 0.92261 0.0
C1397 C 0.97947 0.66206 0.92735 0.0
C1398 C 0.02338 0.62826 0.90428 0.0
C1399 C 0.03424 0.62836 0.87112 0.0
C1400 C 0.04102 0.64579 0.85594 0.0
C1401 C 0.03653 0.66313 0.87445 0.0
C1402 C 0.02558 0.66299 0.90754 0.0
H1403 H 0.9638 0.66398 0.93222 0.0
H1404 H 0.98586 0.67639 0.92163 0.0
H1405 H 0.98157 0.65303 0.9018 0.0
H1406 H 0.01843 0.61466 0.91568 0.0
H1407 H 0.03746 0.61475 0.85767 0.0
H1408 H 0.12463 0.27267 0.19785 0.0
H1409 H 0.13342 0.24785 0.15175 0.0
H1410 H 0.07758 0.22168 0.165 0.0
H1411 H 0.06858 0.24658 0.21033 0.0
H1412 H 0.13393 0.20776 0.16565 0.0
H1413 H 0.08369 0.2258 0.04941 0.0
H1414 H 0.08972 0.24259 0.08653 0.0
H1415 H 0.07225 0.22397 0.09477 0.0
C1416 C 0.1141 0.26188 0.19032 0.0
C1417 C 0.0958 0.26175 0.20722 0.0
C1418 C 0.11918 0.24765 0.16417 0.0
C1419 C 0.10599 0.23321 0.15436 0.0
C1420 C 0.0878 0.23298 0.17147 0.0
H1421 H 0.09921 0.12431 0.04728 0.0
H1422 H 0.09369 0.15634 0.07346 0.0
C1423 C 0.08276 0.24709 0.19768 0.0
C1424 C 0.11154 0.21749 0.12835 0.0
H1425 H 0.09772 0.19431 0.04775 0.0
C1426 C 0.12628 0.20497 0.13951 0.0
C1427 C 0.10144 0.21392 0.09439 0.0
C1428 C 0.08601 0.22738 0.08031 0.0
C1429 C 0.13054 0.18836 0.11863 0.0
C1430 C 0.12004 0.18445 0.0852 0.0
C1431 C 0.10574 0.19735 0.07335 0.0
C1432 C 0.12278 0.16631 0.06394 0.0
C1433 C 0.14554 0.17464 0.13365 0.0
C1434 C 0.14072 0.16162 0.04829 0.0
C1435 C 0.14397 0.14328 0.03351 0.0
C1436 C 0.12926 0.12935 0.03379 0.0
C1437 C 0.11088 0.13463 0.04677 0.0
C1438 C 0.10769 0.15295 0.06177 0.0
H1439 H 0.14921 0.17767 0.16362 0.0
H1440 H 0.1405 0.15952 0.13148 0.0
H1441 H 0.15888 0.17607 0.11668 0.0
H1442 H 0.15241 0.17191 0.04885 0.0
H1443 H 0.15824 0.13977 0.02327 0.0
H1444 H 0.87518 0.59763 0.30628 0.0
H1445 H 0.84463 0.59201 0.33855 0.0
H1446 H 0.82982 0.65186 0.32575 0.0
H1447 H 0.86032 0.65769 0.29324 0.0
H1448 H 0.83512 0.61233 0.40713 0.0
H1449 H 0.78002 0.62236 0.29479 0.0
H1450 H 0.80487 0.61691 0.28423 0.0
H1451 H 0.79816 0.64071 0.29871 0.0
C1452 C 0.8653 0.60956 0.30961 0.0
C1453 C 0.87028 0.62815 0.29734 0.0
C1454 C 0.84786 0.6063 0.32813 0.0
C1455 C 0.83498 0.6215 0.33437 0.0
C1456 C 0.83948 0.6399 0.32076 0.0
H1457 H 0.72821 0.62434 0.46643 0.0
H1458 H 0.75566 0.63358 0.42683 0.0
C1459 C 0.85696 0.6432 0.30232 0.0
C1460 C 0.81777 0.61839 0.35819 0.0
H1461 H 0.76866 0.61741 0.35703 0.0
C1462 C 0.82058 0.61343 0.3962 0.0
C1463 C 0.79887 0.62014 0.34391 0.0
C1464 C 0.79517 0.62519 0.30312 0.0
C1465 C 0.80498 0.60996 0.42032 0.0
C1466 C 0.78606 0.61109 0.4058 0.0
C1467 C 0.7832 0.61653 0.36801 0.0
C1468 C 0.7692 0.60559 0.42897 0.0
C1469 C 0.80889 0.60522 0.46122 0.0
C1470 C 0.76764 0.58677 0.4428 0.0
C1471 C 0.752 0.58145 0.46513 0.0
C1472 C 0.73743 0.59477 0.47368 0.0
C1473 C 0.73894 0.61362 0.45962 0.0
C1474 C 0.75467 0.61896 0.43722 0.0
H1475 H 0.82328 0.61042 0.47027 0.0
H1476 H 0.79781 0.61163 0.48 0.0
H1477 H 0.80857 0.58938 0.46499 0.0
H1478 H 0.77853 0.57614 0.43619 0.0
H1479 H 0.7512 0.56677 0.47529 0.0
H1480 H 0.4003 0.3749 0.54419 0.0
H1481 H 0.40798 0.34377 0.57251 0.0
H1482 H 0.34825 0.32735 0.5665 0.0
H1483 H 0.3404 0.35831 0.5379 0.0
H1484 H 0.39061 0.33381 0.64245 0.0
H1485 H 0.37704 0.27815 0.53292 0.0
H1486 H 0.38131 0.30311 0.52138 0.0
H1487 H 0.35827 0.29566 0.53902 0.0
C1488 C 0.38886 0.3645 0.54795 0.0
C1489 C 0.3697 0.36919 0.53915 0.0
C1490 C 0.39328 0.34673 0.56416 0.0
C1491 C 0.37869 0.33328 0.57144 0.0
C1492 C 0.35976 0.33743 0.5606 0.0
H1493 H 0.3751 0.22956 0.71077 0.0
H1494 H 0.36666 0.25616 0.66824 0.0
C1495 C 0.35529 0.35521 0.54447 0.0
C1496 C 0.38283 0.31617 0.59486 0.0
H1497 H 0.38231 0.26706 0.59561 0.0
C1498 C 0.38892 0.31921 0.63214 0.0
C1499 C 0.38025 0.29719 0.58145 0.0
C1500 C 0.37399 0.29323 0.54142 0.0
C1501 C 0.39251 0.30377 0.65652 0.0
C1502 C 0.39033 0.28477 0.64297 0.0
C1503 C 0.38398 0.28167 0.60582 0.0
C1504 C 0.39543 0.26804 0.66671 0.0
C1505 C 0.39836 0.30795 0.69677 0.0
C1506 C 0.4144 0.26579 0.67924 0.0
C1507 C 0.41922 0.25072 0.70335 0.0
C1508 C 0.40521 0.2374 0.71499 0.0
C1509 C 0.38626 0.23939 0.70177 0.0
C1510 C 0.38141 0.25461 0.67765 0.0
H1511 H 0.39417 0.32272 0.7055 0.0
H1512 H 0.39175 0.29751 0.71665 0.0
H1513 H 0.41423 0.30678 0.69926 0.0
H1514 H 0.42549 0.27582 0.67057 0.0
H1515 H 0.434 0.24943 0.71273 0.0
H1516 H 0.62684 0.90068 0.79326 0.0
H1517 H 0.65766 0.90648 0.82438 0.0
H1518 H 0.67102 0.84603 0.81793 0.0
H1519 H 0.64022 0.84 0.78672 0.0
H1520 H 0.66586 0.88598 0.8958 0.0
H1521 H 0.72187 0.87504 0.7853 0.0
H1522 H 0.69741 0.88168 0.77384 0.0
H1523 H 0.70279 0.85757 0.78836 0.0
C1524 C 0.63648 0.88865 0.79765 0.0
C1525 C 0.63097 0.86984 0.78779 0.0
C1526 C 0.65408 0.892 0.81546 0.0
C1527 C 0.66658 0.87669 0.82328 0.0
C1528 C 0.66163 0.85806 0.81172 0.0
H1529 H 0.77192 0.87335 0.95903 0.0
H1530 H 0.74523 0.86457 0.91703 0.0
C1531 C 0.64398 0.85465 0.79406 0.0
C1532 C 0.68361 0.87992 0.8474 0.0
H1533 H 0.7327 0.88083 0.84759 0.0
C1534 C 0.68049 0.88487 0.88529 0.0
C1535 C 0.70259 0.87812 0.83364 0.0
C1536 C 0.70652 0.87291 0.79301 0.0
C1537 C 0.6959 0.88828 0.90987 0.0
C1538 C 0.71493 0.88716 0.89587 0.0
C1539 C 0.71808 0.88174 0.85814 0.0
C1540 C 0.73158 0.89251 0.91967 0.0
C1541 C 0.69164 0.89289 0.9507 0.0
C1542 C 0.73288 0.91117 0.93439 0.0
C1543 C 0.74802 0.91619 0.95823 0.0
C1544 C 0.76236 0.90273 0.96734 0.0
C1545 C 0.76129 0.88412 0.95197 0.0
C1546 C 0.74601 0.87906 0.92817 0.0
H1547 H 0.67722 0.88756 0.95929 0.0
H1548 H 0.7026 0.8865 0.96976 0.0
H1549 H 0.6918 0.90873 0.95463 0.0
H1550 H 0.7221 0.92187 0.92756 0.0
H1551 H 0.74856 0.9307 0.96933 0.0
H1552 H 0.89664 0.28345 0.65706 0.0
H1553 H 0.88679 0.2575 0.61468 0.0
H1554 H 0.88907 0.21735 0.70746 0.0
H1555 H 0.89819 0.24336 0.75027 0.0
H1556 H 0.90744 0.22523 0.5976 0.0
H1557 H 0.83744 0.2047 0.66006 0.0
H1558 H 0.8493 0.22709 0.67122 0.0
H1559 H 0.85629 0.20519 0.69464 0.0
C1560 C 0.89432 0.26927 0.66878 0.0
C1561 C 0.89762 0.26555 0.70729 0.0
C1562 C 0.88896 0.2544 0.64437 0.0
C1563 C 0.88684 0.23558 0.65805 0.0
C1564 C 0.89012 0.23186 0.69648 0.0
H1565 H 0.89942 0.12528 0.55729 0.0
H1566 H 0.90424 0.15775 0.58169 0.0
C1567 C 0.89544 0.2467 0.72086 0.0
C1568 C 0.88248 0.21952 0.63194 0.0
H1569 H 0.85258 0.18112 0.62034 0.0
C1570 C 0.89528 0.21573 0.60216 0.0
C1571 C 0.86644 0.20734 0.63751 0.0
C1572 C 0.85147 0.21139 0.66735 0.0
C1573 C 0.893 0.1995 0.57897 0.0
C1574 C 0.87774 0.18657 0.58633 0.0
C1575 C 0.86441 0.19092 0.61491 0.0
C1576 C 0.87583 0.1679 0.56644 0.0
C1577 C 0.90702 0.19634 0.54704 0.0
C1578 C 0.85829 0.16279 0.5496 0.0
C1579 C 0.8554 0.14414 0.53612 0.0
C1580 C 0.87001 0.13023 0.53922 0.0
C1581 C 0.88792 0.13567 0.55425 0.0
C1582 C 0.89074 0.15429 0.56804 0.0
H1583 H 0.91327 0.21017 0.53715 0.0
H1584 H 0.91904 0.18719 0.55715 0.0
H1585 H 0.90005 0.18905 0.52272 0.0
H1586 H 0.84659 0.17305 0.54811 0.0
H1587 H 0.84146 0.14045 0.52452 0.0
H1588 H 0.87162 0.40005 0.79982 0.0
H1589 H 0.83928 0.40512 0.82498 0.0
H1590 H 0.82522 0.3458 0.80268 0.0
H1591 H 0.85764 0.34043 0.77811 0.0
H1592 H 0.80185 0.39988 0.79672 0.0
H1593 H 0.81734 0.35056 0.9168 0.0
H1594 H 0.83591 0.35918 0.88547 0.0
H1595 H 0.82002 0.34026 0.87058 0.0
C1596 C 0.86159 0.38812 0.79975 0.0
C1597 C 0.86734 0.36976 0.78751 0.0
C1598 C 0.8431 0.39106 0.81413 0.0
C1599 C 0.83003 0.37573 0.81644 0.0
C1600 C 0.83526 0.3577 0.80194 0.0
H1601 H 0.7219 0.37409 0.94511 0.0
H1602 H 0.74717 0.36495 0.90016 0.0
C1603 C 0.85378 0.35471 0.78776 0.0
C1604 C 0.81146 0.37841 0.83627 0.0
H1605 H 0.78696 0.36532 0.91587 0.0
C1606 C 0.7985 0.39221 0.82259 0.0
C1607 C 0.80714 0.36834 0.87002 0.0
C1608 C 0.82086 0.35386 0.88687 0.0
C1609 C 0.78147 0.39649 0.84216 0.0
C1610 C 0.77747 0.38689 0.87649 0.0
C1611 C 0.79007 0.37259 0.88945 0.0
C1612 C 0.76132 0.39267 0.90123 0.0
C1613 C 0.76798 0.4114 0.82615 0.0
C1614 C 0.76108 0.41116 0.91697 0.0
C1615 C 0.74672 0.41639 0.94249 0.0
C1616 C 0.73228 0.40325 0.95273 0.0
C1617 C 0.73252 0.38469 0.937 0.0
C1618 C 0.74701 0.37941 0.91153 0.0
H1619 H 0.76995 0.41309 0.79518 0.0
H1620 H 0.75274 0.40759 0.83189 0.0
H1621 H 0.771 0.4255 0.83961 0.0
H1622 H 0.77226 0.42145 0.91013 0.0
H1623 H 0.74694 0.43078 0.95425 0.0
H1624 H 0.60199 0.21554 0.15916 0.0
H1625 H 0.61212 0.24042 0.11484 0.0
H1626 H 0.61646 0.281 0.20661 0.0
H1627 H 0.60738 0.25589 0.25138 0.0
H1628 H 0.5938 0.27272 0.09834 0.0
H1629 H 0.66593 0.29154 0.15198 0.0
H1630 H 0.65347 0.27002 0.16663 0.0
H1631 H 0.64841 0.29274 0.18906 0.0
C1632 C 0.60591 0.22948 0.17022 0.0
C1633 C 0.60449 0.23354 0.20906 0.0
C1634 C 0.61142 0.24381 0.14468 0.0
C1635 C 0.61547 0.26248 0.15744 0.0
C1636 C 0.61401 0.26656 0.19618 0.0
H1637 H 0.60056 0.37165 0.05617 0.0
H1638 H 0.59687 0.33915 0.08074 0.0
C1639 C 0.60864 0.25223 0.22172 0.0
C1640 C 0.61968 0.27814 0.13019 0.0
H1641 H 0.64996 0.3159 0.11473 0.0
C1642 C 0.60626 0.28197 0.10149 0.0
C1643 C 0.63613 0.28997 0.13367 0.0
C1644 C 0.6519 0.28572 0.16175 0.0
C1645 C 0.60829 0.29798 0.07765 0.0
C1646 C 0.62385 0.31077 0.08339 0.0
C1647 C 0.63785 0.30628 0.1106 0.0
C1648 C 0.62523 0.32958 0.0637 0.0
C1649 C 0.59363 0.30106 0.04683 0.0
C1650 C 0.64243 0.33513 0.04598 0.0
C1651 C 0.64472 0.35389 0.03248 0.0
C1652 C 0.62982 0.36743 0.03637 0.0
C1653 C 0.61227 0.36155 0.05242 0.0
C1654 C 0.61008 0.34288 0.0663 0.0
H1655 H 0.58751 0.28716 0.0371 0.0
H1656 H 0.58158 0.30984 0.05806 0.0
H1657 H 0.59996 0.30864 0.02216 0.0
H1658 H 0.65433 0.32514 0.04373 0.0
H1659 H 0.65839 0.35794 0.02013 0.0
H1660 H 0.62384 0.09986 0.31047 0.0
H1661 H 0.65548 0.09446 0.33851 0.0
H1662 H 0.67336 0.15117 0.30371 0.0
H1663 H 0.64152 0.15695 0.27665 0.0
H1664 H 0.69264 0.0948 0.31461 0.0
H1665 H 0.67993 0.15399 0.41705 0.0
H1666 H 0.66129 0.14497 0.38642 0.0
H1667 H 0.67914 0.16134 0.36848 0.0
C1668 C 0.63459 0.11108 0.30823 0.0
C1669 C 0.63008 0.12895 0.29191 0.0
C1670 C 0.65267 0.10798 0.32431 0.0
C1671 C 0.66658 0.12261 0.32408 0.0
C1672 C 0.66263 0.1399 0.30518 0.0
H1673 H 0.78227 0.10041 0.4135 0.0
H1674 H 0.75601 0.10963 0.37157 0.0
C1675 C 0.64447 0.14312 0.28953 0.0
C1676 C 0.68464 0.12015 0.34578 0.0
H1677 H 0.70984 0.13821 0.4206 0.0
C1678 C 0.69649 0.10434 0.33764 0.0
C1679 C 0.68945 0.13248 0.3762 0.0
C1680 C 0.67672 0.14904 0.38788 0.0
C1681 C 0.71289 0.10036 0.35942 0.0
C1682 C 0.71781 0.11283 0.38953 0.0
C1683 C 0.70612 0.12879 0.39727 0.0
C1684 C 0.73418 0.10883 0.41515 0.0
C1685 C 0.72431 0.0824 0.35095 0.0
C1686 C 0.73079 0.10616 0.45388 0.0
C1687 C 0.74588 0.10145 0.47814 0.0
C1688 C 0.7647 0.09944 0.46423 0.0
C1689 C 0.76814 0.10249 0.42552 0.0
C1690 C 0.75303 0.10735 0.40127 0.0
H1691 H 0.71602 0.07208 0.33338 0.0
H1692 H 0.73751 0.08637 0.33513 0.0
H1693 H 0.72872 0.07505 0.37742 0.0
H1694 H 0.71635 0.10726 0.46521 0.0
H1695 H 0.74276 0.09908 0.50777 0.0
H1696 H 0.6023 0.74334 0.75065 0.0
H1697 H 0.61174 0.7173 0.70821 0.0
H1698 H 0.61268 0.75697 0.61455 0.0
H1699 H 0.60216 0.78278 0.65631 0.0
H1700 H 0.5938 0.72521 0.59653 0.0
H1701 H 0.66291 0.70452 0.66194 0.0
H1702 H 0.64376 0.70422 0.69587 0.0
H1703 H 0.65064 0.72656 0.67389 0.0
C1704 C 0.60477 0.74657 0.7211 0.0
C1705 C 0.60206 0.76529 0.70716 0.0
C1706 C 0.61034 0.7317 0.69693 0.0
C1707 C 0.61343 0.73528 0.65836 0.0
C1708 C 0.61071 0.75396 0.64433 0.0
H1709 H 0.66045 0.64021 0.52576 0.0
H1710 H 0.65559 0.67261 0.55083 0.0
C1711 C 0.60499 0.76881 0.66845 0.0
C1712 C 0.61815 0.71924 0.63237 0.0
H1713 H 0.64817 0.68086 0.62157 0.0
C1714 C 0.60586 0.71567 0.60165 0.0
C1715 C 0.6341 0.70701 0.63852 0.0
C1716 C 0.64871 0.7109 0.66911 0.0
C1717 C 0.60856 0.69967 0.57806 0.0
C1718 C 0.62363 0.68662 0.58607 0.0
C1719 C 0.63646 0.69072 0.61564 0.0
C1720 C 0.62575 0.66804 0.56584 0.0
C1721 C 0.5952 0.69694 0.54492 0.0
C1722 C 0.61049 0.65481 0.56523 0.0
C1723 C 0.61314 0.63637 0.55047 0.0
C1724 C 0.63125 0.63067 0.53677 0.0
C1725 C 0.64634 0.64414 0.53623 0.0
C1726 C 0.6436 0.66266 0.55058 0.0
H1727 H 0.58952 0.71095 0.53473 0.0
H1728 H 0.6025 0.68958 0.52107 0.0
H1729 H 0.58272 0.68809 0.55389 0.0
H1730 H 0.59674 0.65841 0.57774 0.0
H1731 H 0.60127 0.6263 0.55165 0.0
H1732 H 0.3603 0.16205 0.79458 0.0
H1733 H 0.32911 0.15557 0.82406 0.0
H1734 H 0.34186 0.09492 0.82542 0.0
H1735 H 0.37307 0.10114 0.79613 0.0
H1736 H 0.29662 0.12794 0.8054 0.0
H1737 H 0.33594 0.1132 0.93914 0.0
H1738 H 0.34668 0.12607 0.90015 0.0
H1739 H 0.34436 0.10037 0.89825 0.0
C1740 C 0.35635 0.14728 0.80046 0.0
C1741 C 0.36934 0.13213 0.79351 0.0
C1742 C 0.3385 0.14363 0.81724 0.0
C1743 C 0.3334 0.12482 0.82735 0.0
C1744 C 0.34571 0.10956 0.81812 0.0
H1745 H 0.24974 0.06849 0.96503 0.0
H1746 H 0.27615 0.07816 0.92385 0.0
C1747 C 0.36352 0.11316 0.80133 0.0
C1748 C 0.31614 0.12127 0.8507 0.0
H1749 H 0.30257 0.10682 0.93884 0.0
C1750 C 0.29782 0.12342 0.83464 0.0
C1751 C 0.31789 0.11556 0.88887 0.0
C1752 C 0.33725 0.11379 0.90787 0.0
C1753 C 0.28112 0.11924 0.85552 0.0
C1754 C 0.28291 0.11312 0.89349 0.0
C1755 C 0.30125 0.11145 0.90968 0.0
C1756 C 0.26613 0.10738 0.91666 0.0
C1757 C 0.26177 0.12077 0.83651 0.0
C1758 C 0.25175 0.12067 0.92645 0.0
C1759 C 0.23656 0.11516 0.95011 0.0
C1760 C 0.23561 0.09631 0.96438 0.0
C1761 C 0.25009 0.08313 0.95456 0.0
C1762 C 0.26515 0.0886 0.93091 0.0
H1763 H 0.26311 0.1217 0.80528 0.0
H1764 H 0.2526 0.10822 0.84372 0.0
H1765 H 0.25435 0.13394 0.84659 0.0
H1766 H 0.25251 0.13538 0.91653 0.0
H1767 H 0.22591 0.12577 0.958 0.0
H1768 H 0.89774 0.87198 0.05333 0.0
H1769 H 0.90234 0.83958 0.07835 0.0
H1770 H 0.8433 0.82578 0.05247 0.0
H1771 H 0.83844 0.85826 0.02805 0.0
H1772 H 0.85185 0.81826 0.12495 0.0
H1773 H 0.90788 0.78647 0.03321 0.0
H1774 H 0.91493 0.80948 0.05145 0.0
H1775 H 0.89462 0.80778 0.02008 0.0
C1776 C 0.88585 0.86193 0.05211 0.0
C1777 C 0.86768 0.86778 0.03894 0.0
C1778 C 0.88853 0.84335 0.06628 0.0
C1779 C 0.8732 0.8302 0.06701 0.0
C1780 C 0.85533 0.83569 0.05213 0.0
H1781 H 0.89247 0.71406 0.15629 0.0
H1782 H 0.88161 0.74028 0.11545 0.0
C1783 C 0.85259 0.85428 0.03818 0.0
C1784 C 0.87522 0.81159 0.08709 0.0
H1785 H 0.90353 0.77166 0.09418 0.0
C1786 C 0.86297 0.80793 0.11784 0.0
C1787 C 0.88955 0.79799 0.07757 0.0
C1788 C 0.90236 0.80052 0.04352 0.0
C1789 C 0.86524 0.79149 0.14035 0.0
C1790 C 0.88038 0.77856 0.13233 0.0
C1791 C 0.89205 0.78171 0.10053 0.0
C1792 C 0.88513 0.76238 0.15792 0.0
C1793 C 0.85151 0.78823 0.17277 0.0
C1794 C 0.89061 0.76611 0.19535 0.0
C1795 C 0.89659 0.75114 0.21884 0.0
C1796 C 0.89719 0.73215 0.20539 0.0
C1797 C 0.89148 0.72839 0.16799 0.0
C1798 C 0.88553 0.74341 0.14444 0.0
H1799 H 0.83759 0.7957 0.16801 0.0
H1800 H 0.84867 0.77267 0.17707 0.0
H1801 H 0.85793 0.7941 0.19906 0.0
H1802 H 0.89086 0.7807 0.20607 0.0
H1803 H 0.90116 0.75449 0.24736 0.0
H1804 H 0.24431 0.38257 0.50768 0.0
H1805 H 0.21814 0.37443 0.46423 0.0
H1806 H 0.25142 0.39655 0.3709 0.0
H1807 H 0.27769 0.40431 0.41409 0.0
H1808 H 0.19804 0.3994 0.4237 0.0
H1809 H 0.23196 0.34695 0.32632 0.0
H1810 H 0.24283 0.35386 0.37058 0.0
H1811 H 0.24492 0.36919 0.32984 0.0
C1812 C 0.24616 0.38528 0.47775 0.0
C1813 C 0.26316 0.39366 0.46413 0.0
C1814 C 0.23123 0.38068 0.45298 0.0
C1815 C 0.23292 0.3846 0.41418 0.0
C1816 C 0.25 0.39282 0.40047 0.0
H1817 H 0.12855 0.39625 0.2783 0.0
H1818 H 0.16006 0.40258 0.30646 0.0
C1819 C 0.26504 0.39722 0.42522 0.0
C1820 C 0.21618 0.38162 0.38888 0.0
H1821 H 0.20124 0.35901 0.30838 0.0
C1822 C 0.19874 0.39053 0.39852 0.0
C1823 C 0.2171 0.37 0.3561 0.0
C1824 C 0.23515 0.3593 0.34523 0.0
C1825 C 0.18215 0.38801 0.37662 0.0
C1826 C 0.18315 0.37674 0.34336 0.0
C1827 C 0.2006 0.36788 0.33355 0.0
C1828 C 0.16579 0.3728 0.32028 0.0
C1829 C 0.16355 0.39688 0.39018 0.0
C1830 C 0.1592 0.35384 0.31638 0.0
C1831 C 0.14138 0.35014 0.29975 0.0
C1832 C 0.12973 0.36536 0.28692 0.0
C1833 C 0.13702 0.38422 0.28836 0.0
C1834 C 0.15497 0.38788 0.30466 0.0
H1835 H 0.16425 0.40091 0.42052 0.0
H1836 H 0.16062 0.41014 0.37372 0.0
H1837 H 0.1513 0.38684 0.38616 0.0
H1838 H 0.16739 0.34197 0.32795 0.0
H1839 H 0.13631 0.33541 0.29886 0.0
H1840 H 0.43298 0.75178 0.1984 0.0
H1841 H 0.42252 0.72496 0.15912 0.0
H1842 H 0.36415 0.74581 0.16334 0.0
H1843 H 0.3745 0.77274 0.20322 0.0
H1844 H 0.39476 0.6975 0.18169 0.0
H1845 H 0.37384 0.73507 0.04898 0.0
H1846 H 0.38922 0.74604 0.08402 0.0
H1847 H 0.36383 0.74419 0.09233 0.0
C1848 C 0.41791 0.75075 0.19087 0.0
C1849 C 0.4046 0.76452 0.20358 0.0
C1850 C 0.41199 0.73546 0.16827 0.0
C1851 C 0.39264 0.73357 0.1579 0.0
C1852 C 0.37924 0.74729 0.17034 0.0
H1853 H 0.3366 0.63801 0.04287 0.0
H1854 H 0.3435 0.6695 0.07056 0.0
C1855 C 0.38519 0.76269 0.19304 0.0
C1856 C 0.38654 0.71641 0.13634 0.0
H1857 H 0.36943 0.70134 0.05083 0.0
C1858 C 0.38918 0.69834 0.15311 0.0
C1859 C 0.37916 0.71762 0.09919 0.0
C1860 C 0.37642 0.73673 0.07979 0.0
C1861 C 0.38485 0.68137 0.13361 0.0
C1862 C 0.37801 0.68251 0.09605 0.0
C1863 C 0.37486 0.70058 0.07952 0.0
C1864 C 0.37421 0.66491 0.07385 0.0
C1865 C 0.38753 0.66233 0.15345 0.0
C1866 C 0.38931 0.65231 0.06509 0.0
C1867 C 0.38547 0.6343 0.04941 0.0
C1868 C 0.36641 0.6286 0.0421 0.0
C1869 C 0.35143 0.64186 0.04841 0.0
C1870 C 0.35532 0.65988 0.06418 0.0
H1871 H 0.38837 0.66408 0.18461 0.0
H1872 H 0.37555 0.65233 0.14675 0.0
H1873 H 0.40115 0.65564 0.14371 0.0
H1874 H 0.40403 0.65612 0.07185 0.0
H1875 H 0.39737 0.62455 0.04457 0.0
H1876 H 0.25173 0.9272 0.46612 0.0
H1877 H 0.27784 0.91792 0.42391 0.0
H1878 H 0.25118 0.86261 0.40661 0.0
H1879 H 0.22491 0.8718 0.44921 0.0
H1880 H 0.3025 0.88692 0.43474 0.0
H1881 H 0.26334 0.88094 0.29808 0.0
H1882 H 0.25343 0.89338 0.33843 0.0
H1883 H 0.25356 0.86758 0.33713 0.0
C1884 C 0.25134 0.91307 0.45325 0.0
C1885 C 0.23611 0.90033 0.46064 0.0
C1886 C 0.26624 0.90783 0.42901 0.0
C1887 C 0.2663 0.8897 0.4117 0.0
C1888 C 0.25115 0.87685 0.41898 0.0
H1889 H 0.36062 0.83825 0.28351 0.0
H1890 H 0.32935 0.84346 0.31367 0.0
C1891 C 0.23613 0.88214 0.44326 0.0
C1892 C 0.28292 0.88411 0.38794 0.0
H1893 H 0.29658 0.87359 0.29748 0.0
C1894 C 0.30119 0.88393 0.40477 0.0
C1895 C 0.28112 0.88015 0.34888 0.0
C1896 C 0.26185 0.88062 0.32933 0.0
C1897 C 0.31776 0.88021 0.3835 0.0
C1898 C 0.31603 0.87675 0.34432 0.0
C1899 C 0.29777 0.87636 0.32754 0.0
C1900 C 0.33332 0.87408 0.32063 0.0
C1901 C 0.33707 0.88014 0.40298 0.0
C1902 C 0.3455 0.88973 0.31345 0.0
C1903 C 0.36335 0.88686 0.29625 0.0
C1904 C 0.36935 0.86824 0.28609 0.0
C1905 C 0.35652 0.85276 0.2912 0.0
C1906 C 0.33863 0.85568 0.30834 0.0
H1907 H 0.33564 0.87954 0.43422 0.0
H1908 H 0.34583 0.86769 0.39344 0.0
H1909 H 0.345 0.89346 0.39549 0.0
H1910 H 0.34153 0.90405 0.32263 0.0
H1911 H 0.37278 0.89912 0.29259 0.0
H1912 H 0.09848 0.8737 0.53751 0.0
H1913 H 0.09102 0.84284 0.56707 0.0
H1914 H 0.15117 0.82784 0.56635 0.0
H1915 H 0.15887 0.85862 0.53656 0.0
H1916 H 0.12282 0.79609 0.55014 0.0
H1917 H 0.10889 0.83828 0.68088 0.0
H1918 H 0.09615 0.84605 0.6394 0.0
H1919 H 0.12189 0.84804 0.64109 0.0
C1920 C 0.11011 0.86369 0.54276 0.0
C1921 C 0.12932 0.86881 0.53528 0.0
C1922 C 0.1058 0.84608 0.55972 0.0
C1923 C 0.1206 0.83331 0.56943 0.0
C1924 C 0.13959 0.83761 0.55919 0.0
H1925 H 0.12325 0.72888 0.7071 0.0
H1926 H 0.13172 0.75498 0.66364 0.0
C1927 C 0.14394 0.85523 0.54222 0.0
C1928 C 0.11651 0.8166 0.59394 0.0
H1929 H 0.10255 0.805 0.68347 0.0
C1930 C 0.11842 0.79795 0.57931 0.0
C1931 C 0.11096 0.8192 0.63203 0.0
C1932 C 0.10947 0.83894 0.64954 0.0
C1933 C 0.11432 0.78174 0.60166 0.0
C1934 C 0.10855 0.78438 0.63966 0.0
C1935 C 0.10693 0.80305 0.6543 0.0
C1936 C 0.10348 0.76808 0.66465 0.0
C1937 C 0.11569 0.762 0.5842 0.0
C1938 C 0.08498 0.76709 0.6803 0.0
C1939 C 0.08015 0.75228 0.7051 0.0
C1940 C 0.0937 0.73811 0.71468 0.0
C1941 C 0.11233 0.73924 0.69937 0.0
C1942 C 0.11719 0.75414 0.67456 0.0
H1943 H 0.11593 0.76267 0.55284 0.0
H1944 H 0.12917 0.75498 0.59375 0.0
H1945 H 0.10342 0.75285 0.5932 0.0
H1946 H 0.07424 0.77779 0.67324 0.0
H1947 H 0.06567 0.75179 0.71642 0.0
H1948 H 0.26867 0.62534 0.96675 0.0
H1949 H 0.24195 0.63624 0.92672 0.0
H1950 H 0.22287 0.57758 0.9142 0.0
H1951 H 0.24939 0.56661 0.95371 0.0
H1952 H 0.2311 0.62512 0.85047 0.0
H1953 H 0.17568 0.60617 0.95687 0.0
H1954 H 0.20088 0.60827 0.9685 0.0
H1955 H 0.19187 0.58678 0.94643 0.0
C1956 C 0.25896 0.61477 0.95496 0.0
C1957 C 0.26116 0.59511 0.96324 0.0
C1958 C 0.24366 0.62102 0.93231 0.0
C1959 C 0.23035 0.60771 0.91797 0.0
C1960 C 0.23281 0.58809 0.92556 0.0
H1961 H 0.12677 0.60223 0.78897 0.0
H1962 H 0.15767 0.59647 0.8197 0.0
C1963 C 0.24797 0.58187 0.94816 0.0
C1964 C 0.21354 0.6141 0.89569 0.0
H1965 H 0.16453 0.61221 0.89432 0.0
C1966 C 0.21652 0.62254 0.86013 0.0
C1967 C 0.19458 0.61076 0.90856 0.0
C1968 C 0.1905 0.60267 0.94734 0.0
C1969 C 0.20093 0.62698 0.83637 0.0
C1970 C 0.18204 0.62295 0.84878 0.0
C1971 C 0.17909 0.61505 0.88476 0.0
C1972 C 0.16494 0.62659 0.82505 0.0
C1973 C 0.20474 0.63532 0.79776 0.0
C1974 C 0.15904 0.64545 0.81721 0.0
C1975 C 0.14134 0.64883 0.79969 0.0
C1976 C 0.12922 0.63337 0.78992 0.0
C1977 C 0.13568 0.61447 0.79615 0.0
C1978 C 0.15334 0.61113 0.81373 0.0
H1979 H 0.22018 0.63444 0.78988 0.0
H1980 H 0.19607 0.62773 0.77603 0.0
H1981 H 0.2004 0.65068 0.79753 0.0
H1982 H 0.1677 0.65757 0.82619 0.0
H1983 H 0.13683 0.66357 0.79526 0.0
loop_
_geom_bond_atom_site_label_1
_geom_bond_atom_site_label_2
_geom_bond_distance
_geom_bond_site_symmetry_2
_ccdc_geom_bond_type
Co0 O3 1.970 . S
Co0 N17 1.989 1_554 S
Co0 O25 1.967 . S
Co0 O32 1.920 . S
Co1 O4 1.966 . S
Co1 N10 2.022 . S
Co1 N18 1.993 1_554 S
Co1 O26 1.941 . S
C2 O3 1.258 . S
C2 O4 1.263 . S
O3 Co0 1.970 . S
O3 C2 1.258 . S
O4 Co1 1.966 . S
O4 C2 1.263 . S
C5 O6 1.235 1_554 S
C5 O32 1.289 . S
O6 C5 1.235 1_556 S
C7 C9 1.400 . S
C7 N10 1.351 1_556 S
C7 C12 1.501 . S
C8 C9 1.387 . S
C8 N11 1.341 . S
C9 C7 1.400 . S
C9 C8 1.387 . S
N10 Co1 2.022 . S
N10 C7 1.351 1_554 S
N10 N11 1.365 1_554 S
N11 C8 1.341 . S
N11 N10 1.365 1_556 S
N11 H31 0.862 1_556 S
C12 C7 1.501 . S
C12 H13 0.961 1_556 S
C12 H14 0.961 . S
C12 H15 0.960 1_556 S
H13 C12 0.961 1_554 S
H14 C12 0.961 . S
H15 C12 0.960 1_554 S
C16 N17 1.342 . S
C16 C20 1.401 . S
C16 C21 1.499 . S
N17 Co0 1.989 1_556 S
N17 C16 1.342 . S
N17 N18 1.388 . S
N18 Co1 1.993 1_556 S
N18 N17 1.388 . S
N18 C19 1.346 . S
C19 N18 1.346 . S
C19 C20 1.396 . S
C19 C29 1.510 . S
C20 C16 1.401 . S
C20 C19 1.396 . S
C21 C16 1.499 . S
C21 H22 0.959 . S
C21 H23 0.960 . S
C21 H24 0.961 . S
H22 C21 0.959 . S
H23 C21 0.960 . S
H24 C21 0.961 . S
O25 Co0 1.967 . S
O25 C33 1.258 . S
O26 Co1 1.941 . S
O26 C33 1.266 . S
H27 C29 0.959 . S
H28 C29 0.961 . S
C29 C19 1.510 . S
C29 H27 0.959 . S
C29 H28 0.961 . S
C29 H30 0.960 . S
H30 C29 0.960 . S
H31 N11 0.862 1_554 S
O32 Co0 1.920 . S
O32 C5 1.289 . S
C33 O25 1.258 . S
C33 O26 1.266 . S
Co34 O37 1.970 . S
Co34 N51 1.989 . S
Co34 O59 1.967 . S
Co34 O66 1.920 . S
Co35 O38 1.966 . S
Co35 N44 2.022 . S
Co35 N52 1.993 . S
Co35 O60 1.941 . S
C36 O37 1.258 . S
C36 O38 1.263 . S
O37 Co34 1.970 . S
O37 C36 1.258 . S
O38 Co35 1.966 . S
O38 C36 1.263 . S
C39 O40 1.235 . S
C39 O66 1.289 . S
O40 C39 1.235 . S
C41 C43 1.400 . S
C41 N44 1.351 . S
C41 C46 1.501 . S
C42 C43 1.387 . S
C42 N45 1.341 . S
C43 C41 1.400 . S
C43 C42 1.387 . S
N44 Co35 2.022 . S
N44 C41 1.351 . S
N44 N45 1.365 . S
N45 C42 1.341 . S
N45 N44 1.365 . S
N45 H65 0.862 . S
C46 C41 1.501 . S
C46 H47 0.961 . S
C46 H48 0.961 . S
C46 H49 0.960 . S
H47 C46 0.961 . S
H48 C46 0.961 . S
H49 C46 0.960 . S
C50 N51 1.342 . S
C50 C54 1.401 . S
C50 C55 1.499 . S
N51 Co34 1.989 . S
N51 C50 1.342 . S
N51 N52 1.388 . S
N52 Co35 1.993 . S
N52 N51 1.388 . S
N52 C53 1.346 . S
C53 N52 1.346 . S
C53 C54 1.396 . S
C53 C63 1.510 . S
C54 C50 1.401 . S
C54 C53 1.396 . S
C55 C50 1.499 . S
C55 H56 0.959 . S
C55 H57 0.960 . S
C55 H58 0.961 . S
H56 C55 0.959 . S
H57 C55 0.960 . S
H58 C55 0.961 . S
O59 Co34 1.967 . S
O59 C67 1.258 . S
O60 Co35 1.941 . S
O60 C67 1.266 . S
H61 C63 0.959 . S
H62 C63 0.961 . S
C63 C53 1.510 . S
C63 H61 0.959 . S
C63 H62 0.961 . S
C63 H64 0.960 . S
H64 C63 0.960 . S
H65 N45 0.862 . S
O66 Co34 1.920 . S
O66 C39 1.289 . S
C67 O59 1.258 . S
C67 O60 1.266 . S
Co68 O71 1.970 . S
Co68 N85 1.989 . S
Co68 O93 1.967 . S
Co68 O100 1.920 . S
Co69 O72 1.966 . S
Co69 N78 2.022 . S
Co69 N86 1.993 . S
Co69 O94 1.941 . S
C70 O71 1.258 . S
C70 O72 1.263 . S
O71 Co68 1.970 . S
O71 C70 1.258 . S
O72 Co69 1.966 . S
O72 C70 1.263 . S
C73 O74 1.235 . S
C73 O100 1.289 . S
O74 C73 1.235 . S
C75 C77 1.400 . S
C75 N78 1.351 . S
C75 C80 1.501 . S
C76 C77 1.387 . S
C76 N79 1.341 . S
C77 C75 1.400 . S
C77 C76 1.387 . S
N78 Co69 2.022 . S
N78 C75 1.351 . S
N78 N79 1.365 . S
N79 C76 1.341 . S
N79 N78 1.365 . S
N79 H99 0.862 . S
C80 C75 1.501 . S
C80 H81 0.961 . S
C80 H82 0.961 . S
C80 H83 0.960 . S
H81 C80 0.961 . S
H82 C80 0.961 . S
H83 C80 0.960 . S
C84 N85 1.342 . S
C84 C88 1.401 . S
C84 C89 1.499 . S
N85 Co68 1.989 . S
N85 C84 1.342 . S
N85 N86 1.388 . S
N86 Co69 1.993 . S
N86 N85 1.388 . S
N86 C87 1.346 . S
C87 N86 1.346 . S
C87 C88 1.396 . S
C87 C97 1.510 . S
C88 C84 1.401 . S
C88 C87 1.396 . S
C89 C84 1.499 . S
C89 H90 0.959 . S
C89 H91 0.960 . S
C89 H92 0.961 . S
H90 C89 0.959 . S
H91 C89 0.960 . S
H92 C89 0.961 . S
O93 Co68 1.967 . S
O93 C101 1.258 . S
O94 Co69 1.941 . S
O94 C101 1.266 . S
H95 C97 0.959 . S
H96 C97 0.961 . S
C97 C87 1.510 . S
C97 H95 0.959 . S
C97 H96 0.961 . S
C97 H98 0.960 . S
H98 C97 0.960 . S
H99 N79 0.862 . S
O100 Co68 1.920 . S
O100 C73 1.289 . S
C101 O93 1.258 . S
C101 O94 1.266 . S
Co102 O105 1.970 . S
Co102 N119 1.989 . S
Co102 O127 1.967 . S
Co102 O134 1.920 . S
Co103 O106 1.966 . S
Co103 N112 2.022 . S
Co103 N120 1.993 . S
Co103 O128 1.941 . S
C104 O105 1.258 . S
C104 O106 1.263 . S
O105 Co102 1.970 . S
O105 C104 1.258 . S
O106 Co103 1.966 . S
O106 C104 1.263 . S
C107 O108 1.235 . S
C107 O134 1.289 . S
O108 C107 1.235 . S
C109 C111 1.400 . S
C109 N112 1.351 . S
C109 C114 1.501 . S
C110 C111 1.387 . S
C110 N113 1.341 . S
C111 C109 1.400 . S
C111 C110 1.387 . S
N112 Co103 2.022 . S
N112 C109 1.351 . S
N112 N113 1.365 . S
N113 C110 1.341 . S
N113 N112 1.365 . S
N113 H133 0.862 . S
C114 C109 1.501 . S
C114 H115 0.961 . S
C114 H116 0.961 . S
C114 H117 0.960 . S
H115 C114 0.961 . S
H116 C114 0.961 . S
H117 C114 0.960 . S
C118 N119 1.342 . S
C118 C122 1.401 . S
C118 C123 1.499 . S
N119 Co102 1.989 . S
N119 C118 1.342 . S
N119 N120 1.388 . S
N120 Co103 1.993 . S
N120 N119 1.388 . S
N120 C121 1.346 . S
C121 N120 1.346 . S
C121 C122 1.396 . S
C121 C131 1.510 . S
C122 C118 1.401 . S
C122 C121 1.396 . S
C123 C118 1.499 . S
C123 H124 0.959 . S
C123 H125 0.960 . S
C123 H126 0.961 . S
H124 C123 0.959 . S
H125 C123 0.960 . S
H126 C123 0.961 . S
O127 Co102 1.967 . S
O127 C135 1.258 . S
O128 Co103 1.941 . S
O128 C135 1.266 . S
H129 C131 0.959 . S
H130 C131 0.961 . S
C131 C121 1.510 . S
C131 H129 0.959 . S
C131 H130 0.961 . S
C131 H132 0.960 . S
H132 C131 0.960 . S
H133 N113 0.862 . S
O134 Co102 1.920 . S
O134 C107 1.289 . S
C135 O127 1.258 . S
C135 O128 1.266 . S
Co136 O139 1.970 . S
Co136 N153 1.989 . S
Co136 O161 1.967 . S
Co136 O168 1.920 . S
Co137 O140 1.966 . S
Co137 N146 2.022 . S
Co137 N154 1.993 . S
Co137 O162 1.941 . S
C138 O139 1.258 . S
C138 O140 1.263 . S
O139 Co136 1.970 . S
O139 C138 1.258 . S
O140 Co137 1.966 . S
O140 C138 1.263 . S
C141 O142 1.235 . S
C141 O168 1.289 . S
O142 C141 1.235 . S
C143 C145 1.400 . S
C143 N146 1.351 . S
C143 C148 1.501 . S
C144 C145 1.387 . S
C144 N147 1.341 . S
C145 C143 1.400 . S
C145 C144 1.387 . S
N146 Co137 2.022 . S
N146 C143 1.351 . S
N146 N147 1.365 . S
N147 C144 1.341 . S
N147 N146 1.365 . S
N147 H167 0.862 . S
C148 C143 1.501 . S
C148 H149 0.961 . S
C148 H150 0.961 . S
C148 H151 0.960 . S
H149 C148 0.961 . S
H150 C148 0.961 . S
H151 C148 0.960 . S
C152 N153 1.342 . S
C152 C156 1.401 . S
C152 C157 1.499 . S
N153 Co136 1.989 . S
N153 C152 1.342 . S
N153 N154 1.388 . S
N154 Co137 1.993 . S
N154 N153 1.388 . S
N154 C155 1.346 . S
C155 N154 1.346 . S
C155 C156 1.396 . S
C155 C165 1.510 . S
C156 C152 1.401 . S
C156 C155 1.396 . S
C157 C152 1.499 . S
C157 H158 0.959 . S
C157 H159 0.960 . S
C157 H160 0.961 . S
H158 C157 0.959 . S
H159 C157 0.960 . S
H160 C157 0.961 . S
O161 Co136 1.967 . S
O161 C169 1.258 . S
O162 Co137 1.941 . S
O162 C169 1.266 . S
H163 C165 0.959 . S
H164 C165 0.961 . S
C165 C155 1.510 . S
C165 H163 0.959 . S
C165 H164 0.961 . S
C165 H166 0.960 . S
H166 C165 0.960 . S
H167 N147 0.862 . S
O168 Co136 1.920 . S
O168 C141 1.289 . S
C169 O161 1.258 . S
C169 O162 1.266 . S
Co170 O173 1.970 . S
Co170 N187 1.989 . S
Co170 O195 1.967 . S
Co170 O202 1.920 . S
Co171 O174 1.966 . S
Co171 N180 2.022 . S
Co171 N188 1.993 . S
Co171 O196 1.941 . S
C172 O173 1.258 . S
C172 O174 1.263 . S
O173 Co170 1.970 . S
O173 C172 1.258 . S
O174 Co171 1.966 . S
O174 C172 1.263 . S
C175 O176 1.235 . S
C175 O202 1.289 . S
O176 C175 1.235 . S
C177 C179 1.400 . S
C177 N180 1.351 . S
C177 C182 1.501 . S
C178 C179 1.387 . S
C178 N181 1.341 . S
C179 C177 1.400 . S
C179 C178 1.387 . S
N180 Co171 2.022 . S
N180 C177 1.351 . S
N180 N181 1.365 . S
N181 C178 1.341 . S
N181 N180 1.365 . S
N181 H201 0.862 . S
C182 C177 1.501 . S
C182 H183 0.961 . S
C182 H184 0.961 . S
C182 H185 0.960 . S
H183 C182 0.961 . S
H184 C182 0.961 . S
H185 C182 0.960 . S
C186 N187 1.342 . S
C186 C190 1.401 . S
C186 C191 1.499 . S
N187 Co170 1.989 . S
N187 C186 1.342 . S
N187 N188 1.388 . S
N188 Co171 1.993 . S
N188 N187 1.388 . S
N188 C189 1.346 . S
C189 N188 1.346 . S
C189 C190 1.396 . S
C189 C199 1.510 . S
C190 C186 1.401 . S
C190 C189 1.396 . S
C191 C186 1.499 . S
C191 H192 0.959 . S
C191 H193 0.960 . S
C191 H194 0.961 . S
H192 C191 0.959 . S
H193 C191 0.960 . S
H194 C191 0.961 . S
O195 Co170 1.967 . S
O195 C203 1.258 . S
O196 Co171 1.941 . S
O196 C203 1.266 . S
H197 C199 0.959 . S
H198 C199 0.961 . S
C199 C189 1.510 . S
C199 H197 0.959 . S
C199 H198 0.961 . S
C199 H200 0.960 . S
H200 C199 0.960 . S
H201 N181 0.862 . S
O202 Co170 1.920 . S
O202 C175 1.289 . S
C203 O195 1.258 . S
C203 O196 1.266 . S
Co204 O207 1.970 . S
Co204 N221 1.989 1_554 S
Co204 O229 1.967 . S
Co204 O236 1.920 . S
Co205 O208 1.966 . S
Co205 N214 2.022 . S
Co205 N222 1.993 1_554 S
Co205 O230 1.941 . S
C206 O207 1.258 . S
C206 O208 1.263 . S
O207 Co204 1.970 . S
O207 C206 1.258 . S
O208 Co205 1.966 . S
O208 C206 1.263 . S
C209 O210 1.235 1_554 S
C209 O236 1.289 . S
O210 C209 1.235 1_556 S
C211 C213 1.400 . S
C211 N214 1.351 1_556 S
C211 C216 1.501 . S
C212 C213 1.387 . S
C212 N215 1.341 . S
C213 C211 1.400 . S
C213 C212 1.387 . S
N214 Co205 2.022 . S
N214 C211 1.351 1_554 S
N214 N215 1.365 1_554 S
N215 C212 1.341 . S
N215 N214 1.365 1_556 S
N215 H235 0.862 1_556 S
C216 C211 1.501 . S
C216 H217 0.961 1_556 S
C216 H218 0.961 . S
C216 H219 0.960 1_556 S
H217 C216 0.961 1_554 S
H218 C216 0.961 . S
H219 C216 0.960 1_554 S
C220 N221 1.342 . S
C220 C224 1.401 . S
C220 C225 1.499 . S
N221 Co204 1.989 1_556 S
N221 C220 1.342 . S
N221 N222 1.388 . S
N222 Co205 1.993 1_556 S
N222 N221 1.388 . S
N222 C223 1.346 . S
C223 N222 1.346 . S
C223 C224 1.396 . S
C223 C233 1.510 . S
C224 C220 1.401 . S
C224 C223 1.396 . S
C225 C220 1.499 . S
C225 H226 0.959 . S
C225 H227 0.960 . S
C225 H228 0.961 . S
H226 C225 0.959 . S
H227 C225 0.960 . S
H228 C225 0.961 . S
O229 Co204 1.967 . S
O229 C237 1.258 . S
O230 Co205 1.941 . S
O230 C237 1.266 . S
H231 C233 0.959 . S
H232 C233 0.961 . S
C233 C223 1.510 . S
C233 H231 0.959 . S
C233 H232 0.961 . S
C233 H234 0.960 . S
H234 C233 0.960 . S
H235 N215 0.862 1_554 S
O236 Co204 1.920 . S
O236 C209 1.289 . S
C237 O229 1.258 . S
C237 O230 1.266 . S
Co238 O241 1.970 . S
Co238 N255 1.989 . S
Co238 O263 1.967 . S
Co238 O270 1.920 . S
Co239 O242 1.966 . S
Co239 N248 2.022 . S
Co239 N256 1.993 . S
Co239 O264 1.941 . S
C240 O241 1.258 . S
C240 O242 1.263 . S
O241 Co238 1.970 . S
O241 C240 1.258 . S
O242 Co239 1.966 . S
O242 C240 1.263 . S
C243 O244 1.235 . S
C243 O270 1.289 . S
O244 C243 1.235 . S
C245 C247 1.400 . S
C245 N248 1.351 . S
C245 C250 1.501 . S
C246 C247 1.387 . S
C246 N249 1.341 . S
C247 C245 1.400 . S
C247 C246 1.387 . S
N248 Co239 2.022 . S
N248 C245 1.351 . S
N248 N249 1.365 . S
N249 C246 1.341 . S
N249 N248 1.365 . S
N249 H269 0.862 . S
C250 C245 1.501 . S
C250 H251 0.961 . S
C250 H252 0.961 . S
C250 H253 0.960 . S
H251 C250 0.961 . S
H252 C250 0.961 . S
H253 C250 0.960 . S
C254 N255 1.342 . S
C254 C258 1.401 . S
C254 C259 1.499 . S
N255 Co238 1.989 . S
N255 C254 1.342 . S
N255 N256 1.388 . S
N256 Co239 1.993 . S
N256 N255 1.388 . S
N256 C257 1.346 . S
C257 N256 1.346 . S
C257 C258 1.396 . S
C257 C267 1.510 . S
C258 C254 1.401 . S
C258 C257 1.396 . S
C259 C254 1.499 . S
C259 H260 0.959 . S
C259 H261 0.960 . S
C259 H262 0.961 . S
H260 C259 0.959 . S
H261 C259 0.960 . S
H262 C259 0.961 . S
O263 Co238 1.967 . S
O263 C271 1.258 . S
O264 Co239 1.941 . S
O264 C271 1.266 . S
H265 C267 0.959 . S
H266 C267 0.961 . S
C267 C257 1.510 . S
C267 H265 0.959 . S
C267 H266 0.961 . S
C267 H268 0.960 . S
H268 C267 0.960 . S
H269 N249 0.862 . S
O270 Co238 1.920 . S
O270 C243 1.289 . S
C271 O263 1.258 . S
C271 O264 1.266 . S
Co272 O275 1.970 . S
Co272 N289 1.989 . S
Co272 O297 1.967 . S
Co272 O304 1.920 . S
Co273 O276 1.966 . S
Co273 N282 2.022 . S
Co273 N290 1.993 . S
Co273 O298 1.941 . S
C274 O275 1.258 . S
C274 O276 1.263 . S
O275 Co272 1.970 . S
O275 C274 1.258 . S
O276 Co273 1.966 . S
O276 C274 1.263 . S
C277 O278 1.235 . S
C277 O304 1.289 . S
O278 C277 1.235 . S
C279 C281 1.400 . S
C279 N282 1.351 . S
C279 C284 1.501 . S
C280 C281 1.387 . S
C280 N283 1.341 . S
C281 C279 1.400 . S
C281 C280 1.387 . S
N282 Co273 2.022 . S
N282 C279 1.351 . S
N282 N283 1.365 . S
N283 C280 1.341 . S
N283 N282 1.365 . S
N283 H303 0.862 . S
C284 C279 1.501 . S
C284 H285 0.961 . S
C284 H286 0.961 . S
C284 H287 0.960 . S
H285 C284 0.961 . S
H286 C284 0.961 . S
H287 C284 0.960 . S
C288 N289 1.342 . S
C288 C292 1.401 . S
C288 C293 1.499 . S
N289 Co272 1.989 . S
N289 C288 1.342 . S
N289 N290 1.388 . S
N290 Co273 1.993 . S
N290 N289 1.388 . S
N290 C291 1.346 . S
C291 N290 1.346 . S
C291 C292 1.396 . S
C291 C301 1.510 . S
C292 C288 1.401 . S
C292 C291 1.396 . S
C293 C288 1.499 . S
C293 H294 0.959 . S
C293 H295 0.960 . S
C293 H296 0.961 . S
H294 C293 0.959 . S
H295 C293 0.960 . S
H296 C293 0.961 . S
O297 Co272 1.967 . S
O297 C305 1.258 . S
O298 Co273 1.941 . S
O298 C305 1.266 . S
H299 C301 0.959 . S
H300 C301 0.961 . S
C301 C291 1.510 . S
C301 H299 0.959 . S
C301 H300 0.961 . S
C301 H302 0.960 . S
H302 C301 0.960 . S
H303 N283 0.862 . S
O304 Co272 1.920 . S
O304 C277 1.289 . S
C305 O297 1.258 . S
C305 O298 1.266 . S
Co306 O309 1.970 . S
Co306 N323 1.989 . S
Co306 O331 1.967 . S
Co306 O338 1.920 . S
Co307 O310 1.966 . S
Co307 N316 2.022 . S
Co307 N324 1.993 . S
Co307 O332 1.941 . S
C308 O309 1.258 . S
C308 O310 1.263 . S
O309 Co306 1.970 . S
O309 C308 1.258 . S
O310 Co307 1.966 . S
O310 C308 1.263 . S
C311 O312 1.235 . S
C311 O338 1.289 . S
O312 C311 1.235 . S
C313 C315 1.400 . S
C313 N316 1.351 . S
C313 C318 1.501 . S
C314 C315 1.387 . S
C314 N317 1.341 . S
C315 C313 1.400 . S
C315 C314 1.387 . S
N316 Co307 2.022 . S
N316 C313 1.351 . S
N316 N317 1.365 . S
N317 C314 1.341 . S
N317 N316 1.365 . S
N317 H337 0.862 . S
C318 C313 1.501 . S
C318 H319 0.961 . S
C318 H320 0.961 . S
C318 H321 0.960 . S
H319 C318 0.961 . S
H320 C318 0.961 . S
H321 C318 0.960 . S
C322 N323 1.342 . S
C322 C326 1.401 . S
C322 C327 1.499 . S
N323 Co306 1.989 . S
N323 C322 1.342 . S
N323 N324 1.388 . S
N324 Co307 1.993 . S
N324 N323 1.388 . S
N324 C325 1.346 . S
C325 N324 1.346 . S
C325 C326 1.396 . S
C325 C335 1.510 . S
C326 C322 1.401 . S
C326 C325 1.396 . S
C327 C322 1.499 . S
C327 H328 0.959 . S
C327 H329 0.960 . S
C327 H330 0.961 . S
H328 C327 0.959 . S
H329 C327 0.960 . S
H330 C327 0.961 . S
O331 Co306 1.967 . S
O331 C339 1.258 . S
O332 Co307 1.941 . S
O332 C339 1.266 . S
H333 C335 0.959 . S
H334 C335 0.961 . S
C335 C325 1.510 . S
C335 H333 0.959 . S
C335 H334 0.961 . S
C335 H336 0.960 . S
H336 C335 0.960 . S
H337 N317 0.862 . S
O338 Co306 1.920 . S
O338 C311 1.289 . S
C339 O331 1.258 . S
C339 O332 1.266 . S
Co340 O343 1.970 . S
Co340 N357 1.989 1_554 S
Co340 O365 1.967 . S
Co340 O372 1.920 . S
Co341 O344 1.966 . S
Co341 N350 2.022 . S
Co341 N358 1.993 1_554 S
Co341 O366 1.941 . S
C342 O343 1.258 . S
C342 O344 1.263 . S
O343 Co340 1.970 . S
O343 C342 1.258 . S
O344 Co341 1.966 . S
O344 C342 1.263 . S
C345 O346 1.235 1_554 S
C345 O372 1.289 . S
O346 C345 1.235 1_556 S
C347 C349 1.400 . S
C347 N350 1.351 1_556 S
C347 C352 1.501 . S
C348 C349 1.387 . S
C348 N351 1.341 . S
C349 C347 1.400 . S
C349 C348 1.387 . S
N350 Co341 2.022 . S
N350 C347 1.351 1_554 S
N350 N351 1.365 1_554 S
N351 C348 1.341 . S
N351 N350 1.365 1_556 S
N351 H371 0.862 1_556 S
C352 C347 1.501 . S
C352 H353 0.961 1_556 S
C352 H354 0.961 . S
C352 H355 0.960 1_556 S
H353 C352 0.961 1_554 S
H354 C352 0.961 . S
H355 C352 0.960 1_554 S
C356 N357 1.342 . S
C356 C360 1.401 . S
C356 C361 1.499 . S
N357 Co340 1.989 1_556 S
N357 C356 1.342 . S
N357 N358 1.388 . S
N358 Co341 1.993 1_556 S
N358 N357 1.388 . S
N358 C359 1.346 . S
C359 N358 1.346 . S
C359 C360 1.396 . S
C359 C369 1.510 . S
C360 C356 1.401 . S
C360 C359 1.396 . S
C361 C356 1.499 . S
C361 H362 0.959 . S
C361 H363 0.960 . S
C361 H364 0.961 . S
H362 C361 0.959 . S
H363 C361 0.960 . S
H364 C361 0.961 . S
O365 Co340 1.967 . S
O365 C373 1.258 . S
O366 Co341 1.941 . S
O366 C373 1.266 . S
H367 C369 0.959 . S
H368 C369 0.961 . S
C369 C359 1.510 . S
C369 H367 0.959 . S
C369 H368 0.961 . S
C369 H370 0.960 . S
H370 C369 0.960 . S
H371 N351 0.862 1_554 S
O372 Co340 1.920 . S
O372 C345 1.289 . S
C373 O365 1.258 . S
C373 O366 1.266 . S
Co374 O377 1.970 . S
Co374 N391 1.989 . S
Co374 O399 1.967 . S
Co374 O406 1.920 . S
Co375 O378 1.966 . S
Co375 N384 2.022 . S
Co375 N392 1.993 . S
Co375 O400 1.941 . S
C376 O377 1.258 . S
C376 O378 1.263 . S
O377 Co374 1.970 . S
O377 C376 1.258 . S
O378 Co375 1.966 . S
O378 C376 1.263 . S
C379 O380 1.235 . S
C379 O406 1.289 . S
O380 C379 1.235 . S
C381 C383 1.400 . S
C381 N384 1.351 . S
C381 C386 1.501 . S
C382 C383 1.387 . S
C382 N385 1.341 . S
C383 C381 1.400 . S
C383 C382 1.387 . S
N384 Co375 2.022 . S
N384 C381 1.351 . S
N384 N385 1.365 . S
N385 C382 1.341 . S
N385 N384 1.365 . S
N385 H405 0.862 . S
C386 C381 1.501 . S
C386 H387 0.961 . S
C386 H388 0.961 . S
C386 H389 0.960 . S
H387 C386 0.961 . S
H388 C386 0.961 . S
H389 C386 0.960 . S
C390 N391 1.342 . S
C390 C394 1.401 . S
C390 C395 1.499 . S
N391 Co374 1.989 . S
N391 C390 1.342 . S
N391 N392 1.388 . S
N392 Co375 1.993 . S
N392 N391 1.388 . S
N392 C393 1.346 . S
C393 N392 1.346 . S
C393 C394 1.396 . S
C393 C403 1.510 . S
C394 C390 1.401 . S
C394 C393 1.396 . S
C395 C390 1.499 . S
C395 H396 0.959 . S
C395 H397 0.960 . S
C395 H398 0.961 . S
H396 C395 0.959 . S
H397 C395 0.960 . S
H398 C395 0.961 . S
O399 Co374 1.967 . S
O399 C407 1.258 . S
O400 Co375 1.941 . S
O400 C407 1.266 . S
H401 C403 0.959 . S
H402 C403 0.961 . S
C403 C393 1.510 . S
C403 H401 0.959 . S
C403 H402 0.961 . S
C403 H404 0.960 . S
H404 C403 0.960 . S
H405 N385 0.862 . S
O406 Co374 1.920 . S
O406 C379 1.289 . S
C407 O399 1.258 . S
C407 O400 1.266 . S
Co408 O411 1.970 . S
Co408 N425 1.989 1_554 S
Co408 O433 1.967 . S
Co408 O440 1.920 . S
Co409 O412 1.966 . S
Co409 N418 2.022 . S
Co409 N426 1.993 1_554 S
Co409 O434 1.941 . S
C410 O411 1.258 . S
C410 O412 1.263 . S
O411 Co408 1.970 . S
O411 C410 1.258 . S
O412 Co409 1.966 . S
O412 C410 1.263 . S
C413 O414 1.235 1_554 S
C413 O440 1.289 . S
O414 C413 1.235 1_556 S
C415 C417 1.400 . S
C415 N418 1.351 1_556 S
C415 C420 1.501 . S
C416 C417 1.387 . S
C416 N419 1.341 . S
C417 C415 1.400 . S
C417 C416 1.387 . S
N418 Co409 2.022 . S
N418 C415 1.351 1_554 S
N418 N419 1.365 1_554 S
N419 C416 1.341 . S
N419 N418 1.365 1_556 S
N419 H439 0.862 1_556 S
C420 C415 1.501 . S
C420 H421 0.961 1_556 S
C420 H422 0.961 . S
C420 H423 0.960 1_556 S
H421 C420 0.961 1_554 S
H422 C420 0.961 . S
H423 C420 0.960 1_554 S
C424 N425 1.342 . S
C424 C428 1.401 . S
C424 C429 1.499 . S
N425 Co408 1.989 1_556 S
N425 C424 1.342 . S
N425 N426 1.388 . S
N426 Co409 1.993 1_556 S
N426 N425 1.388 . S
N426 C427 1.346 . S
C427 N426 1.346 . S
C427 C428 1.396 . S
C427 C437 1.510 . S
C428 C424 1.401 . S
C428 C427 1.396 . S
C429 C424 1.499 . S
C429 H430 0.959 . S
C429 H431 0.960 . S
C429 H432 0.961 . S
H430 C429 0.959 . S
H431 C429 0.960 . S
H432 C429 0.961 . S
O433 Co408 1.967 . S
O433 C441 1.258 . S
O434 Co409 1.941 . S
O434 C441 1.266 . S
H435 C437 0.959 . S
H436 C437 0.961 . S
C437 C427 1.510 . S
C437 H435 0.959 . S
C437 H436 0.961 . S
C437 H438 0.960 . S
H438 C437 0.960 . S
H439 N419 0.862 1_554 S
O440 Co408 1.920 . S
O440 C413 1.289 . S
C441 O433 1.258 . S
C441 O434 1.266 . S
Co442 O445 1.970 . S
Co442 N459 1.989 . S
Co442 O467 1.967 . S
Co442 O474 1.920 . S
Co443 O446 1.966 . S
Co443 N452 2.022 . S
Co443 N460 1.993 . S
Co443 O468 1.941 . S
C444 O445 1.258 . S
C444 O446 1.263 . S
O445 Co442 1.970 . S
O445 C444 1.258 . S
O446 Co443 1.966 . S
O446 C444 1.263 . S
C447 O448 1.235 . S
C447 O474 1.289 . S
O448 C447 1.235 . S
C449 C451 1.400 . S
C449 N452 1.351 . S
C449 C454 1.501 . S
C450 C451 1.387 . S
C450 N453 1.341 . S
C451 C449 1.400 . S
C451 C450 1.387 . S
N452 Co443 2.022 . S
N452 C449 1.351 . S
N452 N453 1.365 . S
N453 C450 1.341 . S
N453 N452 1.365 . S
N453 H473 0.862 . S
C454 C449 1.501 . S
C454 H455 0.961 . S
C454 H456 0.961 . S
C454 H457 0.960 . S
H455 C454 0.961 . S
H456 C454 0.961 . S
H457 C454 0.960 . S
C458 N459 1.342 . S
C458 C462 1.401 . S
C458 C463 1.499 . S
N459 Co442 1.989 . S
N459 C458 1.342 . S
N459 N460 1.388 . S
N460 Co443 1.993 . S
N460 N459 1.388 . S
N460 C461 1.346 . S
C461 N460 1.346 . S
C461 C462 1.396 . S
C461 C471 1.510 . S
C462 C458 1.401 . S
C462 C461 1.396 . S
C463 C458 1.499 . S
C463 H464 0.959 . S
C463 H465 0.960 . S
C463 H466 0.961 . S
H464 C463 0.959 . S
H465 C463 0.960 . S
H466 C463 0.961 . S
O467 Co442 1.967 . S
O467 C475 1.258 . S
O468 Co443 1.941 . S
O468 C475 1.266 . S
H469 C471 0.959 . S
H470 C471 0.961 . S
C471 C461 1.510 . S
C471 H469 0.959 . S
C471 H470 0.961 . S
C471 H472 0.960 . S
H472 C471 0.960 . S
H473 N453 0.862 . S
O474 Co442 1.920 . S
O474 C447 1.289 . S
C475 O467 1.258 . S
C475 O468 1.266 . S
Co476 O479 1.970 . S
Co476 N493 1.989 . S
Co476 O501 1.967 . S
Co476 O508 1.920 . S
Co477 O480 1.966 . S
Co477 N486 2.022 . S
Co477 N494 1.993 . S
Co477 O502 1.941 . S
C478 O479 1.258 . S
C478 O480 1.263 . S
O479 Co476 1.970 . S
O479 C478 1.258 . S
O480 Co477 1.966 . S
O480 C478 1.263 . S
C481 O482 1.235 . S
C481 O508 1.289 . S
O482 C481 1.235 . S
C483 C485 1.400 . S
C483 N486 1.351 . S
C483 C488 1.501 . S
C484 C485 1.387 . S
C484 N487 1.341 . S
C485 C483 1.400 . S
C485 C484 1.387 . S
N486 Co477 2.022 . S
N486 C483 1.351 . S
N486 N487 1.365 . S
N487 C484 1.341 . S
N487 N486 1.365 . S
N487 H507 0.862 . S
C488 C483 1.501 . S
C488 H489 0.961 . S
C488 H490 0.961 . S
C488 H491 0.960 . S
H489 C488 0.961 . S
H490 C488 0.961 . S
H491 C488 0.960 . S
C492 N493 1.342 . S
C492 C496 1.401 . S
C492 C497 1.499 . S
N493 Co476 1.989 . S
N493 C492 1.342 . S
N493 N494 1.388 . S
N494 Co477 1.993 . S
N494 N493 1.388 . S
N494 C495 1.346 . S
C495 N494 1.346 . S
C495 C496 1.396 . S
C495 C505 1.510 . S
C496 C492 1.401 . S
C496 C495 1.396 . S
C497 C492 1.499 . S
C497 H498 0.959 . S
C497 H499 0.960 . S
C497 H500 0.961 . S
H498 C497 0.959 . S
H499 C497 0.960 . S
H500 C497 0.961 . S
O501 Co476 1.967 . S
O501 C509 1.258 . S
O502 Co477 1.941 . S
O502 C509 1.266 . S
H503 C505 0.959 . S
H504 C505 0.961 . S
C505 C495 1.510 . S
C505 H503 0.959 . S
C505 H504 0.961 . S
C505 H506 0.960 . S
H506 C505 0.960 . S
H507 N487 0.862 . S
O508 Co476 1.920 . S
O508 C481 1.289 . S
C509 O501 1.258 . S
C509 O502 1.266 . S
Co510 O513 1.970 . S
Co510 N527 1.989 . S
Co510 O535 1.967 . S
Co510 O542 1.920 . S
Co511 O514 1.966 . S
Co511 N520 2.022 . S
Co511 N528 1.993 . S
Co511 O536 1.941 . S
C512 O513 1.258 . S
C512 O514 1.263 . S
O513 Co510 1.970 . S
O513 C512 1.258 . S
O514 Co511 1.966 . S
O514 C512 1.263 . S
C515 O516 1.235 . S
C515 O542 1.289 . S
O516 C515 1.235 . S
C517 C519 1.400 . S
C517 N520 1.351 . S
C517 C522 1.501 . S
C518 C519 1.387 . S
C518 N521 1.341 . S
C519 C517 1.400 . S
C519 C518 1.387 . S
N520 Co511 2.022 . S
N520 C517 1.351 . S
N520 N521 1.365 . S
N521 C518 1.341 . S
N521 N520 1.365 . S
N521 H541 0.862 . S
C522 C517 1.501 . S
C522 H523 0.961 . S
C522 H524 0.961 . S
C522 H525 0.960 . S
H523 C522 0.961 . S
H524 C522 0.961 . S
H525 C522 0.960 . S
C526 N527 1.342 . S
C526 C530 1.401 . S
C526 C531 1.499 . S
N527 Co510 1.989 . S
N527 C526 1.342 . S
N527 N528 1.388 . S
N528 Co511 1.993 . S
N528 N527 1.388 . S
N528 C529 1.346 . S
C529 N528 1.346 . S
C529 C530 1.396 . S
C529 C539 1.510 . S
C530 C526 1.401 . S
C530 C529 1.396 . S
C531 C526 1.499 . S
C531 H532 0.959 . S
C531 H533 0.960 . S
C531 H534 0.961 . S
H532 C531 0.959 . S
H533 C531 0.960 . S
H534 C531 0.961 . S
O535 Co510 1.967 . S
O535 C543 1.258 . S
O536 Co511 1.941 . S
O536 C543 1.266 . S
H537 C539 0.959 . S
H538 C539 0.961 . S
C539 C529 1.510 . S
C539 H537 0.959 . S
C539 H538 0.961 . S
C539 H540 0.960 . S
H540 C539 0.960 . S
H541 N521 0.862 . S
O542 Co510 1.920 . S
O542 C515 1.289 . S
C543 O535 1.258 . S
C543 O536 1.266 . S
H544 C552 0.929 . S
H545 C554 0.930 . S
H546 C556 0.930 . S
H547 C559 0.929 . S
H548 C562 0.930 . S
H549 C564 0.960 1_455 S
H550 C564 0.960 . S
H551 C564 0.960 . S
C552 H544 0.929 . S
C552 C553 1.377 1_556 S
C552 C554 1.384 . S
C553 C552 1.377 1_554 S
C553 C559 1.390 . S
C554 H545 0.930 . S
C554 C552 1.384 . S
C554 C555 1.372 1_556 S
C555 C554 1.372 1_554 S
C555 C556 1.400 . S
C555 C560 1.490 . S
C556 H546 0.930 . S
C556 C555 1.400 . S
C556 C559 1.386 . S
H557 C573 0.930 . S
H558 C574 0.931 . S
C559 H547 0.929 . S
C559 C553 1.390 . S
C559 C556 1.386 . S
C560 C555 1.490 . S
C560 C562 1.395 1_564 S
C560 C563 1.403 . S
H561 C567 0.930 . S
C562 H548 0.930 . S
C562 C560 1.395 1_546 S
C562 C565 1.403 1_655 S
C563 C560 1.403 . S
C563 C564 1.524 . S
C563 C567 1.400 1_655 S
C564 H549 0.960 1_655 S
C564 H550 0.960 . S
C564 H551 0.960 . S
C564 C563 1.524 . S
C565 C562 1.403 1_455 S
C565 C566 1.392 1_556 S
C565 C569 1.495 . S
C566 C565 1.392 1_554 S
C566 C567 1.385 1_545 S
C566 C568 1.478 . S
C567 H561 0.930 . S
C567 C563 1.400 1_455 S
C567 C566 1.385 1_565 S
C568 C566 1.478 . S
C568 C570 1.381 1_554 S
C568 C574 1.383 . S
C569 C565 1.495 . S
C569 H575 0.959 1_455 S
C569 H576 0.961 . S
C569 H577 0.960 . S
C570 C568 1.381 1_556 S
C570 C571 1.394 . S
C570 H578 0.930 . S
C571 C570 1.394 . S
C571 C572 1.383 1_556 S
C571 H579 0.929 . S
C572 C571 1.383 1_554 S
C572 C573 1.377 . S
C573 H557 0.930 . S
C573 C572 1.377 . S
C573 C574 1.379 . S
C574 H558 0.931 . S
C574 C568 1.383 . S
C574 C573 1.379 . S
H575 C569 0.959 1_655 S
H576 C569 0.961 . S
H577 C569 0.960 . S
H578 C570 0.930 . S
H579 C571 0.929 . S
H580 C588 0.929 . S
H581 C590 0.930 . S
H582 C592 0.930 . S
H583 C595 0.929 . S
H584 C598 0.930 . S
H585 C600 0.960 . S
H586 C600 0.960 . S
H587 C600 0.960 . S
C588 H580 0.929 . S
C588 C589 1.377 . S
C588 C590 1.384 . S
C589 C588 1.377 . S
C589 C595 1.390 . S
C590 H581 0.930 . S
C590 C588 1.384 . S
C590 C591 1.372 . S
C591 C590 1.372 . S
C591 C592 1.400 . S
C591 C596 1.490 . S
C592 H582 0.930 . S
C592 C591 1.400 . S
C592 C595 1.386 . S
H593 C609 0.930 . S
H594 C610 0.931 . S
C595 H583 0.929 . S
C595 C589 1.390 . S
C595 C592 1.386 . S
C596 C591 1.490 . S
C596 C598 1.395 . S
C596 C599 1.403 1_655 S
H597 C603 0.930 . S
C598 H584 0.930 . S
C598 C596 1.395 . S
C598 C601 1.403 . S
C599 C596 1.403 1_455 S
C599 C600 1.524 . S
C599 C603 1.400 . S
C600 H585 0.960 . S
C600 H586 0.960 . S
C600 H587 0.960 . S
C600 C599 1.524 . S
C601 C598 1.403 . S
C601 C602 1.392 1_655 S
C601 C605 1.495 . S
C602 C601 1.392 1_455 S
C602 C603 1.385 . S
C602 C604 1.478 . S
C603 H597 0.930 . S
C603 C599 1.400 . S
C603 C602 1.385 . S
C604 C602 1.478 . S
C604 C606 1.381 . S
C604 C610 1.383 . S
C605 C601 1.495 . S
C605 H611 0.959 . S
C605 H612 0.961 . S
C605 H613 0.960 . S
C606 C604 1.381 . S
C606 C607 1.394 . S
C606 H614 0.930 . S
C607 C606 1.394 . S
C607 C608 1.383 . S
C607 H615 0.929 . S
C608 C607 1.383 . S
C608 C609 1.377 . S
C609 H593 0.930 . S
C609 C608 1.377 . S
C609 C610 1.379 . S
C610 H594 0.931 . S
C610 C604 1.383 . S
C610 C609 1.379 . S
H611 C605 0.959 . S
H612 C605 0.961 . S
H613 C605 0.960 . S
H614 C606 0.930 . S
H615 C607 0.929 . S
H616 C624 0.929 . S
H617 C626 0.930 . S
H618 C628 0.930 . S
H619 C631 0.929 . S
H620 C634 0.930 . S
H621 C636 0.960 . S
H622 C636 0.960 . S
H623 C636 0.960 . S
C624 H616 0.929 . S
C624 C625 1.377 . S
C624 C626 1.384 . S
C625 C624 1.377 . S
C625 C631 1.390 . S
C626 H617 0.930 . S
C626 C624 1.384 . S
C626 C627 1.372 . S
C627 C626 1.372 . S
C627 C628 1.400 . S
C627 C632 1.490 . S
C628 H618 0.930 . S
C628 C627 1.400 . S
C628 C631 1.386 . S
H629 C645 0.930 . S
H630 C646 0.931 . S
C631 H619 0.929 . S
C631 C625 1.390 . S
C631 C628 1.386 . S
C632 C627 1.490 . S
C632 C634 1.395 . S
C632 C635 1.403 . S
H633 C639 0.930 . S
C634 H620 0.930 . S
C634 C632 1.395 . S
C634 C637 1.403 . S
C635 C632 1.403 . S
C635 C636 1.524 . S
C635 C639 1.400 . S
C636 H621 0.960 . S
C636 H622 0.960 . S
C636 H623 0.960 . S
C636 C635 1.524 . S
C637 C634 1.403 . S
C637 C638 1.392 . S
C637 C641 1.495 . S
C638 C637 1.392 . S
C638 C639 1.385 . S
C638 C640 1.478 . S
C639 H633 0.930 . S
C639 C635 1.400 . S
C639 C638 1.385 . S
C640 C638 1.478 . S
C640 C642 1.381 . S
C640 C646 1.383 . S
C641 C637 1.495 . S
C641 H647 0.959 . S
C641 H648 0.961 . S
C641 H649 0.960 . S
C642 C640 1.381 . S
C642 C643 1.394 . S
C642 H650 0.930 . S
C643 C642 1.394 . S
C643 C644 1.383 . S
C643 H651 0.929 . S
C644 C643 1.383 . S
C644 C645 1.377 . S
C645 H629 0.930 . S
C645 C644 1.377 . S
C645 C646 1.379 . S
C646 H630 0.931 . S
C646 C640 1.383 . S
C646 C645 1.379 . S
H647 C641 0.959 . S
H648 C641 0.961 . S
H649 C641 0.960 . S
H650 C642 0.930 . S
H651 C643 0.929 . S
H652 C660 0.929 . S
H653 C662 0.930 . S
H654 C664 0.930 . S
H655 C667 0.929 . S
H656 C670 0.930 . S
H657 C672 0.917 1_545 S
H658 C672 0.983 . S
H659 C672 0.981 . S
C660 H652 0.929 . S
C660 C661 1.377 . S
C660 C662 1.384 . S
C661 C660 1.377 . S
C661 C667 1.390 . S
C662 H653 0.930 . S
C662 C660 1.384 . S
C662 C663 1.372 . S
C663 C662 1.372 . S
C663 C664 1.400 . S
C663 C668 1.490 . S
C664 H654 0.930 . S
C664 C663 1.400 . S
C664 C667 1.386 . S
H665 C681 0.930 . S
H666 C682 0.931 . S
C667 H655 0.929 . S
C667 C661 1.390 . S
C667 C664 1.386 . S
C668 C663 1.490 . S
C668 C670 1.395 . S
C668 C671 1.403 . S
H669 C675 0.930 . S
C670 H656 0.930 . S
C670 C668 1.395 . S
C670 C673 1.419 . S
C671 C668 1.403 . S
C671 C672 1.525 . S
C671 C675 1.400 1_565 S
C672 H657 0.917 1_565 S
C672 H658 0.983 . S
C672 H659 0.981 . S
C672 C671 1.525 . S
C673 C670 1.419 . S
C673 C674 1.377 1_565 S
C673 C677 1.495 . S
C674 C673 1.377 1_545 S
C674 C675 1.385 . S
C674 C676 1.478 . S
C675 H669 0.930 . S
C675 C671 1.400 1_545 S
C675 C674 1.385 . S
C676 C674 1.478 . S
C676 C678 1.381 . S
C676 C682 1.383 . S
C677 C673 1.495 . S
C677 H683 0.992 . S
C677 H684 0.945 1_565 S
C677 H685 0.945 1_565 S
C678 C676 1.381 . S
C678 C679 1.394 . S
C678 H686 0.930 . S
C679 C678 1.394 . S
C679 C680 1.383 . S
C679 H687 0.929 . S
C680 C679 1.383 . S
C680 C681 1.377 . S
C681 H665 0.930 . S
C681 C680 1.377 . S
C681 C682 1.379 . S
C682 H666 0.931 . S
C682 C676 1.383 . S
C682 C681 1.379 . S
H683 C677 0.992 . S
H684 C677 0.945 1_545 S
H685 C677 0.945 1_545 S
H686 C678 0.930 . S
H687 C679 0.929 . S
H688 C696 0.929 . S
H689 C698 0.930 . S
H690 C700 0.930 . S
H691 C703 0.929 . S
H692 C706 0.930 . S
H693 C708 0.922 1_655 S
H694 C708 0.979 . S
H695 C708 0.979 . S
C696 H688 0.929 . S
C696 C697 1.377 . S
C696 C698 1.384 . S
C697 C696 1.377 . S
C697 C703 1.390 . S
C698 H689 0.930 . S
C698 C696 1.384 . S
C698 C699 1.372 . S
C699 C698 1.372 . S
C699 C700 1.400 . S
C699 C704 1.490 . S
C700 H690 0.930 . S
C700 C699 1.400 . S
C700 C703 1.386 . S
H701 C717 0.930 . S
H702 C718 0.931 . S
C703 H691 0.929 . S
C703 C697 1.390 . S
C703 C700 1.386 . S
C704 C699 1.490 . S
C704 C706 1.395 1_565 S
C704 C707 1.403 . S
H705 C711 0.930 . S
C706 H692 0.930 . S
C706 C704 1.395 1_545 S
C706 C709 1.420 . S
C707 C704 1.403 . S
C707 C708 1.525 . S
C707 C711 1.400 1_455 S
C708 H693 0.922 1_455 S
C708 H694 0.979 . S
C708 H695 0.979 . S
C708 C707 1.525 . S
C709 C706 1.420 . S
C709 C710 1.376 1_455 S
C709 C713 1.495 . S
C710 C709 1.376 1_655 S
C710 C711 1.385 1_545 S
C710 C712 1.478 . S
C711 H705 0.930 . S
C711 C707 1.400 1_655 S
C711 C710 1.385 1_565 S
C712 C710 1.478 . S
C712 C714 1.381 . S
C712 C718 1.383 . S
C713 C709 1.495 . S
C713 H719 0.995 . S
C713 H720 0.943 1_455 S
C713 H721 0.943 1_455 S
C714 C712 1.381 . S
C714 C715 1.394 . S
C714 H722 0.930 . S
C715 C714 1.394 . S
C715 C716 1.383 . S
C715 H723 0.929 . S
C716 C715 1.383 . S
C716 C717 1.377 . S
C717 H701 0.930 . S
C717 C716 1.377 . S
C717 C718 1.379 . S
C718 H702 0.931 . S
C718 C712 1.383 . S
C718 C717 1.379 . S
H719 C713 0.995 . S
H720 C713 0.943 1_655 S
H721 C713 0.943 1_655 S
H722 C714 0.930 . S
H723 C715 0.929 . S
H724 C732 0.929 . S
H725 C734 0.930 . S
H726 C736 0.956 . S
H727 C739 0.929 . S
H728 C742 0.930 . S
H729 C744 0.960 . S
H730 C744 0.960 . S
H731 C744 0.960 . S
C732 H724 0.929 . S
C732 C733 1.377 . S
C732 C734 1.384 . S
C733 C732 1.377 . S
C733 C739 1.390 . S
C734 H725 0.930 . S
C734 C732 1.384 . S
C734 C735 1.372 . S
C735 C734 1.372 . S
C735 C736 1.400 . S
C735 C740 1.490 . S
C736 H726 0.956 . S
C736 C735 1.400 . S
C736 C739 1.386 . S
H737 C753 0.930 . S
H738 C754 0.931 . S
C739 H727 0.929 . S
C739 C733 1.390 . S
C739 C736 1.386 . S
C740 C735 1.490 . S
C740 C742 1.395 . S
C740 C743 1.403 1_655 S
H741 C747 0.930 . S
C742 H728 0.930 . S
C742 C740 1.395 . S
C742 C745 1.403 . S
C743 C740 1.403 1_455 S
C743 C744 1.524 . S
C743 C747 1.400 . S
C744 H729 0.960 . S
C744 H730 0.960 . S
C744 H731 0.960 . S
C744 C743 1.524 . S
C745 C742 1.403 . S
C745 C746 1.392 1_655 S
C745 C749 1.495 . S
C746 C745 1.392 1_455 S
C746 C747 1.385 . S
C746 C748 1.478 . S
C747 H741 0.930 . S
C747 C743 1.400 . S
C747 C746 1.385 . S
C748 C746 1.478 . S
C748 C750 1.381 . S
C748 C754 1.383 . S
C749 C745 1.495 . S
C749 H755 0.959 . S
C749 H756 0.961 . S
C749 H757 0.960 . S
C750 C748 1.381 . S
C750 C751 1.394 . S
C750 H758 0.928 1_455 S
C751 C750 1.394 . S
C751 C752 1.383 . S
C751 H759 0.929 . S
C752 C751 1.383 . S
C752 C753 1.377 . S
C753 H737 0.930 . S
C753 C752 1.377 . S
C753 C754 1.379 . S
C754 H738 0.931 . S
C754 C748 1.383 . S
C754 C753 1.379 . S
H755 C749 0.959 . S
H756 C749 0.961 . S
H757 C749 0.960 . S
H758 C750 0.928 1_655 S
H759 C751 0.929 . S
H760 C768 0.929 . S
H761 C770 0.930 . S
H762 C772 0.930 . S
H763 C775 0.929 . S
H764 C778 0.930 . S
H765 C780 0.960 . S
H766 C780 0.960 1_554 S
H767 C780 0.960 . S
C768 H760 0.929 . S
C768 C769 1.377 . S
C768 C770 1.384 . S
C769 C768 1.377 . S
C769 C775 1.390 1_554 S
C770 H761 0.930 . S
C770 C768 1.384 . S
C770 C771 1.372 . S
C771 C770 1.372 . S
C771 C772 1.400 1_554 S
C771 C776 1.490 . S
C772 H762 0.930 . S
C772 C771 1.400 1_556 S
C772 C775 1.386 . S
H773 C789 0.930 . S
H774 C790 0.931 . S
C775 H763 0.929 . S
C775 C769 1.390 1_556 S
C775 C772 1.386 . S
C776 C771 1.490 . S
C776 C778 1.395 . S
C776 C779 1.403 . S
H777 C783 0.930 1_556 S
C778 H764 0.930 . S
C778 C776 1.395 . S
C778 C781 1.403 . S
C779 C776 1.403 . S
C779 C780 1.524 1_554 S
C779 C783 1.400 . S
C780 H765 0.960 . S
C780 H766 0.960 1_556 S
C780 H767 0.960 . S
C780 C779 1.524 1_556 S
C781 C778 1.403 . S
C781 C782 1.392 . S
C781 C785 1.495 . S
C782 C781 1.392 . S
C782 C783 1.385 . S
C782 C784 1.478 . S
C783 H777 0.930 1_554 S
C783 C779 1.400 . S
C783 C782 1.385 . S
C784 C782 1.478 . S
C784 C786 1.381 . S
C784 C790 1.383 1_554 S
C785 C781 1.495 . S
C785 H791 0.959 . S
C785 H792 0.961 . S
C785 H793 0.960 . S
C786 C784 1.381 . S
C786 C787 1.394 . S
C786 H794 0.930 . S
C787 C786 1.394 . S
C787 C788 1.383 . S
C787 H795 0.929 . S
C788 C787 1.383 . S
C788 C789 1.377 1_554 S
C789 H773 0.930 . S
C789 C788 1.377 1_556 S
C789 C790 1.379 . S
C790 H774 0.931 . S
C790 C784 1.383 1_556 S
C790 C789 1.379 . S
H791 C785 0.959 . S
H792 C785 0.961 . S
H793 C785 0.960 . S
H794 C786 0.930 . S
H795 C787 0.929 . S
H796 C804 0.929 . S
H797 C806 0.930 . S
H798 C808 0.930 . S
H799 C811 0.929 . S
H800 C814 0.930 . S
H801 C816 0.960 . S
H802 C816 0.960 . S
H803 C816 0.960 . S
C804 H796 0.929 . S
C804 C805 1.377 . S
C804 C806 1.384 . S
C805 C804 1.377 . S
C805 C811 1.390 . S
C806 H797 0.930 . S
C806 C804 1.384 . S
C806 C807 1.372 . S
C807 C806 1.372 . S
C807 C808 1.400 . S
C807 C812 1.490 . S
C808 H798 0.930 . S
C808 C807 1.400 . S
C808 C811 1.386 . S
H809 C825 0.930 . S
H810 C826 0.931 . S
C811 H799 0.929 . S
C811 C805 1.390 . S
C811 C808 1.386 . S
C812 C807 1.490 . S
C812 C814 1.395 . S
C812 C815 1.403 . S
H813 C819 0.930 . S
C814 H800 0.930 . S
C814 C812 1.395 . S
C814 C817 1.403 1_565 S
C815 C812 1.403 . S
C815 C816 1.524 . S
C815 C819 1.400 1_565 S
C816 H801 0.960 . S
C816 H802 0.960 . S
C816 H803 0.960 . S
C816 C815 1.524 . S
C817 C814 1.403 1_545 S
C817 C818 1.392 . S
C817 C821 1.495 . S
C818 C817 1.392 . S
C818 C819 1.385 . S
C818 C820 1.478 . S
C819 H813 0.930 . S
C819 C815 1.400 1_545 S
C819 C818 1.385 . S
C820 C818 1.478 . S
C820 C822 1.381 . S
C820 C826 1.383 . S
C821 C817 1.495 . S
C821 H827 0.959 . S
C821 H828 0.961 . S
C821 H829 0.960 . S
C822 C820 1.381 . S
C822 C823 1.394 . S
C822 H830 0.930 . S
C823 C822 1.394 . S
C823 C824 1.383 . S
C823 H831 0.929 . S
C824 C823 1.383 . S
C824 C825 1.377 . S
C825 H809 0.930 . S
C825 C824 1.377 . S
C825 C826 1.379 . S
C826 H810 0.931 . S
C826 C820 1.383 . S
C826 C825 1.379 . S
H827 C821 0.959 . S
H828 C821 0.961 . S
H829 C821 0.960 . S
H830 C822 0.930 . S
H831 C823 0.929 . S
H832 C840 0.929 . S
H833 C842 0.930 . S
H834 C844 0.945 . S
H835 C847 0.929 1_545 S
H836 C850 0.930 . S
H837 C852 0.960 . S
H838 C852 0.929 1_565 S
H839 C852 0.960 . S
C840 H832 0.929 . S
C840 C841 1.377 . S
C840 C842 1.384 . S
C841 C840 1.377 . S
C841 C847 1.390 . S
C842 H833 0.930 . S
C842 C840 1.384 . S
C842 C843 1.372 . S
C843 C842 1.372 . S
C843 C844 1.390 1_565 S
C843 C848 1.490 . S
C844 H834 0.945 . S
C844 C843 1.390 1_545 S
C844 C847 1.380 1_545 S
H845 C861 0.930 . S
H846 C862 0.931 . S
C847 H835 0.929 1_565 S
C847 C841 1.390 . S
C847 C844 1.380 1_565 S
C848 C843 1.490 . S
C848 C850 1.395 . S
C848 C851 1.403 1_565 S
H849 C855 0.930 . S
C850 H836 0.930 . S
C850 C848 1.395 . S
C850 C853 1.403 . S
C851 C848 1.403 1_545 S
C851 C852 1.524 . S
C851 C855 1.400 . S
C852 H837 0.960 . S
C852 H838 0.929 1_545 S
C852 H839 0.960 . S
C852 C851 1.524 . S
C853 C850 1.403 . S
C853 C854 1.392 1_565 S
C853 C857 1.495 . S
C854 C853 1.392 1_545 S
C854 C855 1.385 . S
C854 C856 1.478 . S
C855 H849 0.930 . S
C855 C851 1.400 . S
C855 C854 1.385 . S
C856 C854 1.478 . S
C856 C858 1.381 . S
C856 C862 1.383 . S
C857 C853 1.495 . S
C857 H863 0.959 . S
C857 H864 0.961 1_565 S
C857 H865 0.960 . S
C858 C856 1.381 . S
C858 C859 1.394 . S
C858 H866 0.930 1_545 S
C859 C858 1.394 . S
C859 C860 1.383 . S
C859 H867 0.929 . S
C860 C859 1.383 . S
C860 C861 1.377 . S
C861 H845 0.930 . S
C861 C860 1.377 . S
C861 C862 1.379 . S
C862 H846 0.931 . S
C862 C856 1.383 . S
C862 C861 1.379 . S
H863 C857 0.959 . S
H864 C857 0.961 1_545 S
H865 C857 0.960 . S
H866 C858 0.930 1_565 S
H867 C859 0.929 . S
H868 C876 0.929 . S
H869 C878 0.930 1_655 S
H870 C880 0.930 . S
H871 C883 0.929 . S
H872 C886 0.930 . S
H873 C888 0.960 . S
H874 C888 0.960 . S
H875 C888 0.960 . S
C876 H868 0.929 . S
C876 C877 1.377 . S
C876 C878 1.384 . S
C877 C876 1.377 . S
C877 C883 1.390 . S
C878 H869 0.930 1_455 S
C878 C876 1.384 . S
C878 C879 1.372 . S
C879 C878 1.372 . S
C879 C880 1.400 . S
C879 C884 1.490 . S
C880 H870 0.930 . S
C880 C879 1.400 . S
C880 C883 1.386 . S
H881 C897 0.930 . S
H882 C898 0.931 . S
C883 H871 0.929 . S
C883 C877 1.390 . S
C883 C880 1.386 . S
C884 C879 1.490 . S
C884 C886 1.395 1_455 S
C884 C887 1.403 . S
H885 C891 0.930 . S
C886 H872 0.930 . S
C886 C884 1.395 1_655 S
C886 C889 1.403 . S
C887 C884 1.403 . S
C887 C888 1.524 . S
C887 C891 1.400 . S
C888 H873 0.960 . S
C888 H874 0.960 . S
C888 H875 0.960 . S
C888 C887 1.524 . S
C889 C886 1.403 . S
C889 C890 1.392 . S
C889 C893 1.495 . S
C890 C889 1.392 . S
C890 C891 1.385 1_655 S
C890 C892 1.478 . S
C891 H885 0.930 . S
C891 C887 1.400 . S
C891 C890 1.385 1_455 S
C892 C890 1.478 . S
C892 C894 1.381 . S
C892 C898 1.383 . S
C893 C889 1.495 . S
C893 H899 0.959 . S
C893 H900 0.961 . S
C893 H901 0.960 . S
C894 C892 1.381 . S
C894 C895 1.394 . S
C894 H902 0.930 . S
C895 C894 1.394 . S
C895 C896 1.383 . S
C895 H903 0.929 . S
C896 C895 1.383 . S
C896 C897 1.377 . S
C897 H881 0.930 . S
C897 C896 1.377 . S
C897 C898 1.379 . S
C898 H882 0.931 . S
C898 C892 1.383 . S
C898 C897 1.379 . S
H899 C893 0.959 . S
H900 C893 0.961 . S
H901 C893 0.960 . S
H902 C894 0.930 . S
H903 C895 0.929 . S
H904 C912 0.929 . S
H905 C914 0.930 . S
H906 C916 0.930 . S
H907 C919 0.929 . S
H908 C922 0.930 . S
H909 C924 0.960 . S
H910 C924 0.960 . S
H911 C924 0.960 . S
C912 H904 0.929 . S
C912 C913 1.377 . S
C912 C914 1.384 . S
C913 C912 1.377 . S
C913 C919 1.390 . S
C914 H905 0.930 . S
C914 C912 1.384 . S
C914 C915 1.372 . S
C915 C914 1.372 . S
C915 C916 1.400 . S
C915 C920 1.490 . S
C916 H906 0.930 . S
C916 C915 1.400 . S
C916 C919 1.386 . S
H917 C933 0.930 . S
H918 C934 0.931 . S
C919 H907 0.929 . S
C919 C913 1.390 . S
C919 C916 1.386 . S
C920 C915 1.490 . S
C920 C922 1.395 . S
C920 C923 1.403 . S
H921 C927 0.930 . S
C922 H908 0.930 . S
C922 C920 1.395 . S
C922 C925 1.403 . S
C923 C920 1.403 . S
C923 C924 1.524 . S
C923 C927 1.400 . S
C924 H909 0.960 . S
C924 H910 0.960 . S
C924 H911 0.960 . S
C924 C923 1.524 . S
C925 C922 1.403 . S
C925 C926 1.392 . S
C925 C929 1.495 . S
C926 C925 1.392 . S
C926 C927 1.385 . S
C926 C928 1.478 . S
C927 H921 0.930 . S
C927 C923 1.400 . S
C927 C926 1.385 . S
C928 C926 1.478 . S
C928 C930 1.381 . S
C928 C934 1.383 . S
C929 C925 1.495 . S
C929 H935 0.959 . S
C929 H936 0.961 . S
C929 H937 0.960 . S
C930 C928 1.381 . S
C930 C931 1.394 . S
C930 H938 0.930 . S
C931 C930 1.394 . S
C931 C932 1.383 . S
C931 H939 0.929 . S
C932 C931 1.383 . S
C932 C933 1.377 . S
C933 H917 0.930 . S
C933 C932 1.377 . S
C933 C934 1.379 . S
C934 H918 0.931 . S
C934 C928 1.383 . S
C934 C933 1.379 . S
H935 C929 0.959 . S
H936 C929 0.961 . S
H937 C929 0.960 . S
H938 C930 0.930 . S
H939 C931 0.929 . S
H940 C948 0.929 . S
H941 C950 0.930 . S
H942 C952 0.930 . S
H943 C955 0.929 . S
H944 C958 0.930 . S
H945 C960 0.960 1_556 S
H946 C960 0.960 . S
H947 C960 0.960 . S
C948 H940 0.929 . S
C948 C949 1.377 . S
C948 C950 1.384 . S
C949 C948 1.377 . S
C949 C955 1.390 . S
C950 H941 0.930 . S
C950 C948 1.384 . S
C950 C951 1.372 . S
C951 C950 1.372 . S
C951 C952 1.400 . S
C951 C956 1.490 . S
C952 H942 0.930 . S
C952 C951 1.400 . S
C952 C955 1.386 . S
H953 C969 0.930 . S
H954 C970 0.931 . S
C955 H943 0.929 . S
C955 C949 1.390 . S
C955 C952 1.386 . S
C956 C951 1.490 . S
C956 C958 1.395 . S
C956 C959 1.403 . S
H957 C963 0.930 . S
C958 H944 0.930 . S
C958 C956 1.395 . S
C958 C961 1.403 1_554 S
C959 C956 1.403 . S
C959 C960 1.524 . S
C959 C963 1.400 1_554 S
C960 H945 0.960 1_554 S
C960 H946 0.960 . S
C960 H947 0.960 . S
C960 C959 1.524 . S
C961 C958 1.403 1_556 S
C961 C962 1.392 . S
C961 C965 1.495 . S
C962 C961 1.392 . S
C962 C963 1.385 . S
C962 C964 1.478 . S
C963 H957 0.930 . S
C963 C959 1.400 1_556 S
C963 C962 1.385 . S
C964 C962 1.478 . S
C964 C966 1.381 . S
C964 C970 1.383 . S
C965 C961 1.495 . S
C965 H971 0.959 1_556 S
C965 H972 0.961 . S
C965 H973 0.960 . S
C966 C964 1.381 . S
C966 C967 1.394 . S
C966 H974 0.930 . S
C967 C966 1.394 . S
C967 C968 1.383 . S
C967 H975 0.929 . S
C968 C967 1.383 . S
C968 C969 1.377 . S
C969 H953 0.930 . S
C969 C968 1.377 . S
C969 C970 1.379 . S
C970 H954 0.931 . S
C970 C964 1.383 . S
C970 C969 1.379 . S
H971 C965 0.959 1_554 S
H972 C965 0.961 . S
H973 C965 0.960 . S
H974 C966 0.930 . S
H975 C967 0.929 . S
H976 C984 0.929 . S
H977 C986 0.930 . S
H978 C988 0.930 1_565 S
H979 C991 0.929 . S
H980 C994 0.930 . S
H981 C996 0.960 . S
H982 C996 0.968 . S
H983 C996 0.960 . S
C984 H976 0.929 . S
C984 C985 1.377 . S
C984 C986 1.384 . S
C985 C984 1.377 . S
C985 C991 1.390 . S
C986 H977 0.930 . S
C986 C984 1.384 . S
C986 C987 1.372 . S
C987 C986 1.372 . S
C987 C988 1.400 . S
C987 C992 1.490 . S
C988 H978 0.930 1_545 S
C988 C987 1.400 . S
C988 C991 1.386 . S
H989 C1005 0.930 . S
H990 C1006 0.931 . S
C991 H979 0.929 . S
C991 C985 1.390 . S
C991 C988 1.386 . S
C992 C987 1.490 . S
C992 C994 1.395 . S
C992 C995 1.403 1_545 S
H993 C999 0.930 . S
C994 H980 0.930 . S
C994 C992 1.395 . S
C994 C997 1.403 . S
C995 C992 1.403 1_565 S
C995 C996 1.524 . S
C995 C999 1.400 . S
C996 H981 0.960 . S
C996 H982 0.968 . S
C996 H983 0.960 . S
C996 C995 1.524 . S
C997 C994 1.403 . S
C997 C998 1.383 1_545 S
C997 C1001 1.495 . S
C998 C997 1.383 1_565 S
C998 C999 1.390 . S
C998 C1000 1.483 . S
C999 H993 0.930 . S
C999 C995 1.400 . S
C999 C998 1.390 . S
C1000 C998 1.483 . S
C1000 C1002 1.381 1_565 S
C1000 C1006 1.383 . S
C1001 C997 1.495 . S
C1001 H1007 0.959 . S
C1001 H1008 0.961 . S
C1001 H1009 0.960 . S
C1002 C1000 1.381 1_545 S
C1002 C1003 1.394 1_545 S
C1002 H1010 0.930 . S
C1003 C1002 1.394 1_565 S
C1003 C1004 1.383 . S
C1003 H1011 0.914 1_565 S
C1004 C1003 1.383 . S
C1004 C1005 1.377 . S
C1005 H989 0.930 . S
C1005 C1004 1.377 . S
C1005 C1006 1.379 . S
C1006 H990 0.931 . S
C1006 C1000 1.383 . S
C1006 C1005 1.379 . S
H1007 C1001 0.959 . S
H1008 C1001 0.961 . S
H1009 C1001 0.960 . S
H1010 C1002 0.930 . S
H1011 C1003 0.914 1_545 S
H1012 C1020 0.929 . S
H1013 C1022 0.930 . S
H1014 C1024 0.930 . S
H1015 C1027 0.929 . S
H1016 C1030 0.930 . S
H1017 C1032 0.960 1_554 S
H1018 C1032 0.960 . S
H1019 C1032 0.960 . S
C1020 H1012 0.929 . S
C1020 C1021 1.377 . S
C1020 C1022 1.384 . S
C1021 C1020 1.377 . S
C1021 C1027 1.390 . S
C1022 H1013 0.930 . S
C1022 C1020 1.384 . S
C1022 C1023 1.372 . S
C1023 C1022 1.372 . S
C1023 C1024 1.400 . S
C1023 C1028 1.490 . S
C1024 H1014 0.930 . S
C1024 C1023 1.400 . S
C1024 C1027 1.386 . S
H1025 C1041 0.930 . S
H1026 C1042 0.892 1_655 S
C1027 H1015 0.929 . S
C1027 C1021 1.390 . S
C1027 C1024 1.386 . S
C1028 C1023 1.490 . S
C1028 C1030 1.395 1_655 S
C1028 C1031 1.403 . S
H1029 C1035 0.930 . S
C1030 H1016 0.930 . S
C1030 C1028 1.395 1_455 S
C1030 C1033 1.403 1_556 S
C1031 C1028 1.403 . S
C1031 C1032 1.524 . S
C1031 C1035 1.400 1_556 S
C1032 H1017 0.960 1_556 S
C1032 H1018 0.960 . S
C1032 H1019 0.960 . S
C1032 C1031 1.524 . S
C1033 C1030 1.403 1_554 S
C1033 C1034 1.392 . S
C1033 C1037 1.495 . S
C1034 C1033 1.392 . S
C1034 C1035 1.385 1_455 S
C1034 C1036 1.478 . S
C1035 H1029 0.930 . S
C1035 C1031 1.400 1_554 S
C1035 C1034 1.385 1_655 S
C1036 C1034 1.478 . S
C1036 C1038 1.381 . S
C1036 C1042 1.383 . S
C1037 C1033 1.495 . S
C1037 H1043 0.959 1_554 S
C1037 H1044 0.961 . S
C1037 H1045 0.960 . S
C1038 C1036 1.381 . S
C1038 C1039 1.394 . S
C1038 H1046 0.930 . S
C1039 C1038 1.394 . S
C1039 C1040 1.383 . S
C1039 H1047 0.929 . S
C1040 C1039 1.383 . S
C1040 C1041 1.377 . S
C1041 H1025 0.930 . S
C1041 C1040 1.377 . S
C1041 C1042 1.379 . S
C1042 H1026 0.892 1_455 S
C1042 C1036 1.383 . S
C1042 C1041 1.379 . S
H1043 C1037 0.959 1_556 S
H1044 C1037 0.961 . S
H1045 C1037 0.960 . S
H1046 C1038 0.930 . S
H1047 C1039 0.929 . S
H1048 C1056 0.929 . S
H1049 C1058 0.930 . S
H1050 C1060 0.930 . S
H1051 C1063 0.929 . S
H1052 C1066 0.930 . S
H1053 C1068 0.960 . S
H1054 C1068 0.960 . S
H1055 C1068 0.960 . S
C1056 H1048 0.929 . S
C1056 C1057 1.377 . S
C1056 C1058 1.384 . S
C1057 C1056 1.377 . S
C1057 C1063 1.390 . S
C1058 H1049 0.930 . S
C1058 C1056 1.384 . S
C1058 C1059 1.372 . S
C1059 C1058 1.372 . S
C1059 C1060 1.400 . S
C1059 C1064 1.490 . S
C1060 H1050 0.930 . S
C1060 C1059 1.400 . S
C1060 C1063 1.386 . S
H1061 C1077 0.930 . S
H1062 C1078 0.931 . S
C1063 H1051 0.929 . S
C1063 C1057 1.390 . S
C1063 C1060 1.386 . S
C1064 C1059 1.490 . S
C1064 C1066 1.395 . S
C1064 C1067 1.403 . S
H1065 C1071 0.930 . S
C1066 H1052 0.930 . S
C1066 C1064 1.395 . S
C1066 C1069 1.403 . S
C1067 C1064 1.403 . S
C1067 C1068 1.524 . S
C1067 C1071 1.400 . S
C1068 H1053 0.960 . S
C1068 H1054 0.960 . S
C1068 H1055 0.960 . S
C1068 C1067 1.524 . S
C1069 C1066 1.403 . S
C1069 C1070 1.392 . S
C1069 C1073 1.495 . S
C1070 C1069 1.392 . S
C1070 C1071 1.385 . S
C1070 C1072 1.478 . S
C1071 H1065 0.930 . S
C1071 C1067 1.400 . S
C1071 C1070 1.385 . S
C1072 C1070 1.478 . S
C1072 C1074 1.381 . S
C1072 C1078 1.383 . S
C1073 C1069 1.495 . S
C1073 H1079 0.959 . S
C1073 H1080 0.961 . S
C1073 H1081 0.960 . S
C1074 C1072 1.381 . S
C1074 C1075 1.394 . S
C1074 H1082 0.930 . S
C1075 C1074 1.394 . S
C1075 C1076 1.383 . S
C1075 H1083 0.929 . S
C1076 C1075 1.383 . S
C1076 C1077 1.377 . S
C1077 H1061 0.930 . S
C1077 C1076 1.377 . S
C1077 C1078 1.379 . S
C1078 H1062 0.931 . S
C1078 C1072 1.383 . S
C1078 C1077 1.379 . S
H1079 C1073 0.959 . S
H1080 C1073 0.961 . S
H1081 C1073 0.960 . S
H1082 C1074 0.930 . S
H1083 C1075 0.929 . S
H1084 C1092 0.929 . S
H1085 C1094 0.930 . S
H1086 C1096 0.930 . S
H1087 C1099 0.929 . S
H1088 C1102 0.930 . S
H1089 C1104 0.960 . S
H1090 C1104 0.960 . S
H1091 C1104 0.960 . S
C1092 H1084 0.929 . S
C1092 C1093 1.377 . S
C1092 C1094 1.384 . S
C1093 C1092 1.377 . S
C1093 C1099 1.390 . S
C1094 H1085 0.930 . S
C1094 C1092 1.384 . S
C1094 C1095 1.372 . S
C1095 C1094 1.372 . S
C1095 C1096 1.400 . S
C1095 C1100 1.490 . S
C1096 H1086 0.930 . S
C1096 C1095 1.400 . S
C1096 C1099 1.386 . S
H1097 C1113 0.930 . S
H1098 C1114 0.931 . S
C1099 H1087 0.929 . S
C1099 C1093 1.390 . S
C1099 C1096 1.386 . S
C1100 C1095 1.490 . S
C1100 C1102 1.395 . S
C1100 C1103 1.403 . S
H1101 C1107 0.930 . S
C1102 H1088 0.930 . S
C1102 C1100 1.395 . S
C1102 C1105 1.403 . S
C1103 C1100 1.403 . S
C1103 C1104 1.524 . S
C1103 C1107 1.400 . S
C1104 H1089 0.960 . S
C1104 H1090 0.960 . S
C1104 H1091 0.960 . S
C1104 C1103 1.524 . S
C1105 C1102 1.403 . S
C1105 C1106 1.392 . S
C1105 C1109 1.495 . S
C1106 C1105 1.392 . S
C1106 C1107 1.385 . S
C1106 C1108 1.478 . S
C1107 H1101 0.930 . S
C1107 C1103 1.400 . S
C1107 C1106 1.385 . S
C1108 C1106 1.478 . S
C1108 C1110 1.381 . S
C1108 C1114 1.383 . S
C1109 C1105 1.495 . S
C1109 H1115 0.959 . S
C1109 H1116 0.961 . S
C1109 H1117 0.960 . S
C1110 C1108 1.381 . S
C1110 C1111 1.394 . S
C1110 H1118 0.930 . S
C1111 C1110 1.394 . S
C1111 C1112 1.383 . S
C1111 H1119 0.929 . S
C1112 C1111 1.383 . S
C1112 C1113 1.377 . S
C1113 H1097 0.930 . S
C1113 C1112 1.377 . S
C1113 C1114 1.379 . S
C1114 H1098 0.931 . S
C1114 C1108 1.383 . S
C1114 C1113 1.379 . S
H1115 C1109 0.959 . S
H1116 C1109 0.961 . S
H1117 C1109 0.960 . S
H1118 C1110 0.930 . S
H1119 C1111 0.929 . S
H1120 C1128 0.929 . S
H1121 C1130 0.930 . S
H1122 C1132 0.930 . S
H1123 C1135 0.929 . S
H1124 C1138 0.930 . S
H1125 C1140 0.960 . S
H1126 C1140 0.960 . S
H1127 C1140 0.960 . S
C1128 H1120 0.929 . S
C1128 C1129 1.377 . S
C1128 C1130 1.384 . S
C1129 C1128 1.377 . S
C1129 C1135 1.390 . S
C1130 H1121 0.930 . S
C1130 C1128 1.384 . S
C1130 C1131 1.372 . S
C1131 C1130 1.372 . S
C1131 C1132 1.400 . S
C1131 C1136 1.490 . S
C1132 H1122 0.930 . S
C1132 C1131 1.400 . S
C1132 C1135 1.386 . S
H1133 C1149 0.930 . S
H1134 C1150 0.931 . S
C1135 H1123 0.929 . S
C1135 C1129 1.390 . S
C1135 C1132 1.386 . S
C1136 C1131 1.490 . S
C1136 C1138 1.395 . S
C1136 C1139 1.403 . S
H1137 C1143 0.930 . S
C1138 H1124 0.930 . S
C1138 C1136 1.395 . S
C1138 C1141 1.403 . S
C1139 C1136 1.403 . S
C1139 C1140 1.524 . S
C1139 C1143 1.400 . S
C1140 H1125 0.960 . S
C1140 H1126 0.960 . S
C1140 H1127 0.960 . S
C1140 C1139 1.524 . S
C1141 C1138 1.403 . S
C1141 C1142 1.392 . S
C1141 C1145 1.495 . S
C1142 C1141 1.392 . S
C1142 C1143 1.385 . S
C1142 C1144 1.478 . S
C1143 H1137 0.930 . S
C1143 C1139 1.400 . S
C1143 C1142 1.385 . S
C1144 C1142 1.478 . S
C1144 C1146 1.381 . S
C1144 C1150 1.383 . S
C1145 C1141 1.495 . S
C1145 H1151 0.959 . S
C1145 H1152 0.961 . S
C1145 H1153 0.960 . S
C1146 C1144 1.381 . S
C1146 C1147 1.394 . S
C1146 H1154 0.930 . S
C1147 C1146 1.394 . S
C1147 C1148 1.383 . S
C1147 H1155 0.929 . S
C1148 C1147 1.383 . S
C1148 C1149 1.377 . S
C1149 H1133 0.930 . S
C1149 C1148 1.377 . S
C1149 C1150 1.379 . S
C1150 H1134 0.931 . S
C1150 C1144 1.383 . S
C1150 C1149 1.379 . S
H1151 C1145 0.959 . S
H1152 C1145 0.961 . S
H1153 C1145 0.960 . S
H1154 C1146 0.930 . S
H1155 C1147 0.929 . S
H1156 C1164 0.929 . S
H1157 C1166 0.930 . S
H1158 C1168 0.930 . S
H1159 C1171 0.929 . S
H1160 C1174 0.930 . S
H1161 C1176 0.960 . S
H1162 C1176 0.960 . S
H1163 C1176 0.960 . S
C1164 H1156 0.929 . S
C1164 C1165 1.377 . S
C1164 C1166 1.384 . S
C1165 C1164 1.377 . S
C1165 C1171 1.390 . S
C1166 H1157 0.930 . S
C1166 C1164 1.384 . S
C1166 C1167 1.372 . S
C1167 C1166 1.372 . S
C1167 C1168 1.400 . S
C1167 C1172 1.490 . S
C1168 H1158 0.930 . S
C1168 C1167 1.400 . S
C1168 C1171 1.386 . S
H1169 C1185 0.930 . S
H1170 C1186 0.931 . S
C1171 H1159 0.929 . S
C1171 C1165 1.390 . S
C1171 C1168 1.386 . S
C1172 C1167 1.490 . S
C1172 C1174 1.395 . S
C1172 C1175 1.403 . S
H1173 C1179 0.930 . S
C1174 H1160 0.930 . S
C1174 C1172 1.395 . S
C1174 C1177 1.403 1_554 S
C1175 C1172 1.403 . S
C1175 C1176 1.524 . S
C1175 C1179 1.400 1_554 S
C1176 H1161 0.960 . S
C1176 H1162 0.960 . S
C1176 H1163 0.960 . S
C1176 C1175 1.524 . S
C1177 C1174 1.403 1_556 S
C1177 C1178 1.392 . S
C1177 C1181 1.495 . S
C1178 C1177 1.392 . S
C1178 C1179 1.385 . S
C1178 C1180 1.478 . S
C1179 H1173 0.930 . S
C1179 C1175 1.400 1_556 S
C1179 C1178 1.385 . S
C1180 C1178 1.478 . S
C1180 C1182 1.381 . S
C1180 C1186 1.383 . S
C1181 C1177 1.495 . S
C1181 H1187 0.959 . S
C1181 H1188 0.961 . S
C1181 H1189 0.960 . S
C1182 C1180 1.381 . S
C1182 C1183 1.394 . S
C1182 H1190 0.930 . S
C1183 C1182 1.394 . S
C1183 C1184 1.383 . S
C1183 H1191 0.929 . S
C1184 C1183 1.383 . S
C1184 C1185 1.377 . S
C1185 H1169 0.930 . S
C1185 C1184 1.377 . S
C1185 C1186 1.379 . S
C1186 H1170 0.931 . S
C1186 C1180 1.383 . S
C1186 C1185 1.379 . S
H1187 C1181 0.959 . S
H1188 C1181 0.961 . S
H1189 C1181 0.960 . S
H1190 C1182 0.930 . S
H1191 C1183 0.929 . S
H1192 C1200 0.931 1_565 S
H1193 C1202 0.957 . S
H1194 C1204 0.930 . S
H1195 C1207 0.929 . S
H1196 C1210 0.930 . S
H1197 C1212 0.960 . S
H1198 C1212 0.960 . S
H1199 C1212 0.960 . S
C1200 H1192 0.931 1_545 S
C1200 C1201 1.377 . S
C1200 C1202 1.373 1_545 S
C1201 C1200 1.377 . S
C1201 C1207 1.390 . S
C1202 H1193 0.957 . S
C1202 C1200 1.373 1_565 S
C1202 C1203 1.357 1_565 S
C1203 C1202 1.357 1_545 S
C1203 C1204 1.400 . S
C1203 C1208 1.490 . S
C1204 H1194 0.930 . S
C1204 C1203 1.400 . S
C1204 C1207 1.386 . S
H1205 C1221 0.930 . S
H1206 C1222 0.928 1_545 S
C1207 H1195 0.929 . S
C1207 C1201 1.390 . S
C1207 C1204 1.386 . S
C1208 C1203 1.490 . S
C1208 C1210 1.395 1_545 S
C1208 C1211 1.403 . S
H1209 C1215 0.934 . S
C1210 H1196 0.930 . S
C1210 C1208 1.395 1_565 S
C1210 C1213 1.403 . S
C1211 C1208 1.403 . S
C1211 C1212 1.524 . S
C1211 C1215 1.404 . S
C1212 H1197 0.960 . S
C1212 H1198 0.960 . S
C1212 H1199 0.960 . S
C1212 C1211 1.524 . S
C1213 C1210 1.403 . S
C1213 C1214 1.392 . S
C1213 C1217 1.495 . S
C1214 C1213 1.392 . S
C1214 C1215 1.378 1_565 S
C1214 C1216 1.478 . S
C1215 H1209 0.934 . S
C1215 C1211 1.404 . S
C1215 C1214 1.378 1_545 S
C1216 C1214 1.478 . S
C1216 C1218 1.381 . S
C1216 C1222 1.383 . S
C1217 C1213 1.495 . S
C1217 H1223 0.959 . S
C1217 H1224 0.961 . S
C1217 H1225 0.960 . S
C1218 C1216 1.381 . S
C1218 C1219 1.394 . S
C1218 H1226 0.930 . S
C1219 C1218 1.394 . S
C1219 C1220 1.383 . S
C1219 H1227 0.929 . S
C1220 C1219 1.383 . S
C1220 C1221 1.377 . S
C1221 H1205 0.930 . S
C1221 C1220 1.377 . S
C1221 C1222 1.379 . S
C1222 H1206 0.928 1_565 S
C1222 C1216 1.383 . S
C1222 C1221 1.379 . S
H1223 C1217 0.959 . S
H1224 C1217 0.961 . S
H1225 C1217 0.960 . S
H1226 C1218 0.930 . S
H1227 C1219 0.929 . S
H1228 C1236 0.929 . S
H1229 C1238 0.930 1_655 S
H1230 C1240 0.930 . S
H1231 C1243 0.929 . S
H1232 C1246 0.930 . S
H1233 C1248 0.960 . S
H1234 C1248 0.960 . S
H1235 C1248 0.960 . S
C1236 H1228 0.929 . S
C1236 C1237 1.377 . S
C1236 C1238 1.384 . S
C1237 C1236 1.377 . S
C1237 C1243 1.390 . S
C1238 H1229 0.930 1_455 S
C1238 C1236 1.384 . S
C1238 C1239 1.372 . S
C1239 C1238 1.372 . S
C1239 C1240 1.400 . S
C1239 C1244 1.490 . S
C1240 H1230 0.930 . S
C1240 C1239 1.400 . S
C1240 C1243 1.386 . S
H1241 C1257 0.930 . S
H1242 C1258 0.931 1_455 S
C1243 H1231 0.929 . S
C1243 C1237 1.390 . S
C1243 C1240 1.386 . S
C1244 C1239 1.490 . S
C1244 C1246 1.395 1_455 S
C1244 C1247 1.403 . S
H1245 C1251 0.930 . S
C1246 H1232 0.930 . S
C1246 C1244 1.395 1_655 S
C1246 C1249 1.403 . S
C1247 C1244 1.403 . S
C1247 C1248 1.524 . S
C1247 C1251 1.400 . S
C1248 H1233 0.960 . S
C1248 H1234 0.960 . S
C1248 H1235 0.960 . S
C1248 C1247 1.524 . S
C1249 C1246 1.403 . S
C1249 C1250 1.392 . S
C1249 C1253 1.495 . S
C1250 C1249 1.392 . S
C1250 C1251 1.385 1_655 S
C1250 C1252 1.478 . S
C1251 H1245 0.930 . S
C1251 C1247 1.400 . S
C1251 C1250 1.385 1_455 S
C1252 C1250 1.478 . S
C1252 C1254 1.381 . S
C1252 C1258 1.383 . S
C1253 C1249 1.495 . S
C1253 H1259 0.959 . S
C1253 H1260 0.961 . S
C1253 H1261 0.960 . S
C1254 C1252 1.381 . S
C1254 C1255 1.394 . S
C1254 H1262 0.930 . S
C1255 C1254 1.394 . S
C1255 C1256 1.383 . S
C1255 H1263 0.929 . S
C1256 C1255 1.383 . S
C1256 C1257 1.377 . S
C1257 H1241 0.930 . S
C1257 C1256 1.377 . S
C1257 C1258 1.379 . S
C1258 H1242 0.931 1_655 S
C1258 C1252 1.383 . S
C1258 C1257 1.379 . S
H1259 C1253 0.959 . S
H1260 C1253 0.961 . S
H1261 C1253 0.960 . S
H1262 C1254 0.930 . S
H1263 C1255 0.929 . S
H1264 C1272 0.929 . S
H1265 C1274 0.930 . S
H1266 C1276 0.930 . S
H1267 C1279 0.929 . S
H1268 C1282 0.930 . S
H1269 C1284 0.960 . S
H1270 C1284 0.960 . S
H1271 C1284 0.960 . S
C1272 H1264 0.929 . S
C1272 C1273 1.377 . S
C1272 C1274 1.384 . S
C1273 C1272 1.377 . S
C1273 C1279 1.390 . S
C1274 H1265 0.930 . S
C1274 C1272 1.384 . S
C1274 C1275 1.372 . S
C1275 C1274 1.372 . S
C1275 C1276 1.400 . S
C1275 C1280 1.490 . S
C1276 H1266 0.930 . S
C1276 C1275 1.400 . S
C1276 C1279 1.386 . S
H1277 C1293 0.930 . S
H1278 C1294 0.931 . S
C1279 H1267 0.929 . S
C1279 C1273 1.390 . S
C1279 C1276 1.386 . S
C1280 C1275 1.490 . S
C1280 C1282 1.395 . S
C1280 C1283 1.403 . S
H1281 C1287 0.930 . S
C1282 H1268 0.930 . S
C1282 C1280 1.395 . S
C1282 C1285 1.403 . S
C1283 C1280 1.403 . S
C1283 C1284 1.524 . S
C1283 C1287 1.400 . S
C1284 H1269 0.960 . S
C1284 H1270 0.960 . S
C1284 H1271 0.960 . S
C1284 C1283 1.524 . S
C1285 C1282 1.403 . S
C1285 C1286 1.392 . S
C1285 C1289 1.495 . S
C1286 C1285 1.392 . S
C1286 C1287 1.385 . S
C1286 C1288 1.478 . S
C1287 H1281 0.930 . S
C1287 C1283 1.400 . S
C1287 C1286 1.385 . S
C1288 C1286 1.478 . S
C1288 C1290 1.381 . S
C1288 C1294 1.383 . S
C1289 C1285 1.495 . S
C1289 H1295 0.959 . S
C1289 H1296 0.961 . S
C1289 H1297 0.960 . S
C1290 C1288 1.381 . S
C1290 C1291 1.394 . S
C1290 H1298 0.930 . S
C1291 C1290 1.394 . S
C1291 C1292 1.383 . S
C1291 H1299 0.929 . S
C1292 C1291 1.383 . S
C1292 C1293 1.377 . S
C1293 H1277 0.930 . S
C1293 C1292 1.377 . S
C1293 C1294 1.379 . S
C1294 H1278 0.931 . S
C1294 C1288 1.383 . S
C1294 C1293 1.379 . S
H1295 C1289 0.959 . S
H1296 C1289 0.961 . S
H1297 C1289 0.960 . S
H1298 C1290 0.930 . S
H1299 C1291 0.929 . S
H1300 C1308 0.929 . S
H1301 C1310 0.930 . S
H1302 C1312 0.930 . S
H1303 C1315 0.929 . S
H1304 C1318 0.930 . S
H1305 C1320 0.960 . S
H1306 C1320 0.960 . S
H1307 C1320 0.960 . S
C1308 H1300 0.929 . S
C1308 C1309 1.377 . S
C1308 C1310 1.384 . S
C1309 C1308 1.377 . S
C1309 C1315 1.390 . S
C1310 H1301 0.930 . S
C1310 C1308 1.384 . S
C1310 C1311 1.372 . S
C1311 C1310 1.372 . S
C1311 C1312 1.400 . S
C1311 C1316 1.490 . S
C1312 H1302 0.930 . S
C1312 C1311 1.400 . S
C1312 C1315 1.386 . S
H1313 C1329 0.930 . S
H1314 C1330 0.931 . S
C1315 H1303 0.929 . S
C1315 C1309 1.390 . S
C1315 C1312 1.386 . S
C1316 C1311 1.490 . S
C1316 C1318 1.395 . S
C1316 C1319 1.403 . S
H1317 C1323 0.930 . S
C1318 H1304 0.930 . S
C1318 C1316 1.395 . S
C1318 C1321 1.403 . S
C1319 C1316 1.403 . S
C1319 C1320 1.524 . S
C1319 C1323 1.400 . S
C1320 H1305 0.960 . S
C1320 H1306 0.960 . S
C1320 H1307 0.960 . S
C1320 C1319 1.524 . S
C1321 C1318 1.403 . S
C1321 C1322 1.392 . S
C1321 C1325 1.495 . S
C1322 C1321 1.392 . S
C1322 C1323 1.385 . S
C1322 C1324 1.478 . S
C1323 H1317 0.930 . S
C1323 C1319 1.400 . S
C1323 C1322 1.385 . S
C1324 C1322 1.478 . S
C1324 C1326 1.381 . S
C1324 C1330 1.383 . S
C1325 C1321 1.495 . S
C1325 H1331 0.959 . S
C1325 H1332 0.961 . S
C1325 H1333 0.960 . S
C1326 C1324 1.381 . S
C1326 C1327 1.394 . S
C1326 H1334 0.930 . S
C1327 C1326 1.394 . S
C1327 C1328 1.383 . S
C1327 H1335 0.929 . S
C1328 C1327 1.383 . S
C1328 C1329 1.377 . S
C1329 H1313 0.930 . S
C1329 C1328 1.377 . S
C1329 C1330 1.379 . S
C1330 H1314 0.931 . S
C1330 C1324 1.383 . S
C1330 C1329 1.379 . S
H1331 C1325 0.959 . S
H1332 C1325 0.961 . S
H1333 C1325 0.960 . S
H1334 C1326 0.930 . S
H1335 C1327 0.929 . S
H1336 C1344 0.929 . S
H1337 C1346 0.930 . S
H1338 C1348 0.930 . S
H1339 C1351 0.929 . S
H1340 C1354 0.937 . S
H1341 C1356 0.960 . S
H1342 C1356 0.960 . S
H1343 C1356 0.960 . S
C1344 H1336 0.929 . S
C1344 C1345 1.377 . S
C1344 C1346 1.384 . S
C1345 C1344 1.377 . S
C1345 C1351 1.390 . S
C1346 H1337 0.930 . S
C1346 C1344 1.384 . S
C1346 C1347 1.372 . S
C1347 C1346 1.372 . S
C1347 C1348 1.400 . S
C1347 C1352 1.490 . S
C1348 H1338 0.930 . S
C1348 C1347 1.400 . S
C1348 C1351 1.386 . S
H1349 C1365 0.930 . S
H1350 C1366 0.931 . S
C1351 H1339 0.929 . S
C1351 C1345 1.390 . S
C1351 C1348 1.386 . S
C1352 C1347 1.490 . S
C1352 C1354 1.375 1_565 S
C1352 C1355 1.403 . S
H1353 C1359 0.930 . S
C1354 H1340 0.937 . S
C1354 C1352 1.375 1_545 S
C1354 C1357 1.417 . S
C1355 C1352 1.403 . S
C1355 C1356 1.524 . S
C1355 C1359 1.400 . S
C1356 H1341 0.960 . S
C1356 H1342 0.960 . S
C1356 H1343 0.960 . S
C1356 C1355 1.524 . S
C1357 C1354 1.417 . S
C1357 C1358 1.392 . S
C1357 C1361 1.495 . S
C1358 C1357 1.392 . S
C1358 C1359 1.385 1_545 S
C1358 C1360 1.478 . S
C1359 H1353 0.930 . S
C1359 C1355 1.400 . S
C1359 C1358 1.385 1_565 S
C1360 C1358 1.478 . S
C1360 C1362 1.381 . S
C1360 C1366 1.383 . S
C1361 C1357 1.495 . S
C1361 H1367 0.959 . S
C1361 H1368 0.961 . S
C1361 H1369 0.960 . S
C1362 C1360 1.381 . S
C1362 C1363 1.394 . S
C1362 H1370 0.961 . S
C1363 C1362 1.394 . S
C1363 C1364 1.383 . S
C1363 H1371 0.929 . S
C1364 C1363 1.383 . S
C1364 C1365 1.377 . S
C1365 H1349 0.930 . S
C1365 C1364 1.377 . S
C1365 C1366 1.379 . S
C1366 H1350 0.931 . S
C1366 C1360 1.383 . S
C1366 C1365 1.379 . S
H1367 C1361 0.959 . S
H1368 C1361 0.961 . S
H1369 C1361 0.960 . S
H1370 C1362 0.961 . S
H1371 C1363 0.929 . S
H1372 C1380 0.929 . S
H1373 C1382 0.930 . S
H1374 C1384 0.934 . S
H1375 C1387 0.929 1_455 S
H1376 C1390 0.930 . S
H1377 C1392 0.960 . S
H1378 C1392 0.960 . S
H1379 C1392 0.960 . S
C1380 H1372 0.929 . S
C1380 C1381 1.377 . S
C1380 C1382 1.384 . S
C1381 C1380 1.377 . S
C1381 C1387 1.390 . S
C1382 H1373 0.930 . S
C1382 C1380 1.384 . S
C1382 C1383 1.372 . S
C1383 C1382 1.372 . S
C1383 C1384 1.397 1_655 S
C1383 C1388 1.490 . S
C1384 H1374 0.934 . S
C1384 C1383 1.397 1_455 S
C1384 C1387 1.384 1_455 S
H1385 C1401 0.930 . S
H1386 C1402 0.931 . S
C1387 H1375 0.929 1_655 S
C1387 C1381 1.390 . S
C1387 C1384 1.384 1_655 S
C1388 C1383 1.490 . S
C1388 C1390 1.395 . S
C1388 C1391 1.403 1_655 S
H1389 C1395 0.930 . S
C1390 H1376 0.930 . S
C1390 C1388 1.395 . S
C1390 C1393 1.403 1_554 S
C1391 C1388 1.403 1_455 S
C1391 C1392 1.524 . S
C1391 C1395 1.400 1_554 S
C1392 H1377 0.960 . S
C1392 H1378 0.960 . S
C1392 H1379 0.960 . S
C1392 C1391 1.524 . S
C1393 C1390 1.403 1_556 S
C1393 C1394 1.392 1_655 S
C1393 C1397 1.495 . S
C1394 C1393 1.392 1_455 S
C1394 C1395 1.385 . S
C1394 C1396 1.478 . S
C1395 H1389 0.930 . S
C1395 C1391 1.400 1_556 S
C1395 C1394 1.385 . S
C1396 C1394 1.478 . S
C1396 C1398 1.381 . S
C1396 C1402 1.383 . S
C1397 C1393 1.495 . S
C1397 H1403 0.959 . S
C1397 H1404 0.961 . S
C1397 H1405 0.960 . S
C1398 C1396 1.381 . S
C1398 C1399 1.394 . S
C1398 H1406 0.930 1_455 S
C1399 C1398 1.394 . S
C1399 C1400 1.383 . S
C1399 H1407 0.929 . S
C1400 C1399 1.383 . S
C1400 C1401 1.377 . S
C1401 H1385 0.930 . S
C1401 C1400 1.377 . S
C1401 C1402 1.379 . S
C1402 H1386 0.931 . S
C1402 C1396 1.383 . S
C1402 C1401 1.379 . S
H1403 C1397 0.959 . S
H1404 C1397 0.961 . S
H1405 C1397 0.960 . S
H1406 C1398 0.930 1_655 S
H1407 C1399 0.929 . S
H1408 C1416 0.929 . S
H1409 C1418 0.930 . S
H1410 C1420 0.930 . S
H1411 C1423 0.929 . S
H1412 C1426 0.930 . S
H1413 C1428 0.960 . S
H1414 C1428 0.960 . S
H1415 C1428 0.960 . S
C1416 H1408 0.929 . S
C1416 C1417 1.377 . S
C1416 C1418 1.384 . S
C1417 C1416 1.377 . S
C1417 C1423 1.390 . S
C1418 H1409 0.930 . S
C1418 C1416 1.384 . S
C1418 C1419 1.372 . S
C1419 C1418 1.372 . S
C1419 C1420 1.400 . S
C1419 C1424 1.490 . S
C1420 H1410 0.930 . S
C1420 C1419 1.400 . S
C1420 C1423 1.386 . S
H1421 C1437 0.930 . S
H1422 C1438 0.931 . S
C1423 H1411 0.929 . S
C1423 C1417 1.390 . S
C1423 C1420 1.386 . S
C1424 C1419 1.490 . S
C1424 C1426 1.395 . S
C1424 C1427 1.403 . S
H1425 C1431 0.930 . S
C1426 H1412 0.930 . S
C1426 C1424 1.395 . S
C1426 C1429 1.403 . S
C1427 C1424 1.403 . S
C1427 C1428 1.524 . S
C1427 C1431 1.400 . S
C1428 H1413 0.960 . S
C1428 H1414 0.960 . S
C1428 H1415 0.960 . S
C1428 C1427 1.524 . S
C1429 C1426 1.403 . S
C1429 C1430 1.392 . S
C1429 C1433 1.495 . S
C1430 C1429 1.392 . S
C1430 C1431 1.385 . S
C1430 C1432 1.478 . S
C1431 H1425 0.930 . S
C1431 C1427 1.400 . S
C1431 C1430 1.385 . S
C1432 C1430 1.478 . S
C1432 C1434 1.381 . S
C1432 C1438 1.383 . S
C1433 C1429 1.495 . S
C1433 H1439 0.959 . S
C1433 H1440 0.961 . S
C1433 H1441 0.960 . S
C1434 C1432 1.381 . S
C1434 C1435 1.394 . S
C1434 H1442 0.930 . S
C1435 C1434 1.394 . S
C1435 C1436 1.383 . S
C1435 H1443 0.929 . S
C1436 C1435 1.383 . S
C1436 C1437 1.377 . S
C1437 H1421 0.930 . S
C1437 C1436 1.377 . S
C1437 C1438 1.379 . S
C1438 H1422 0.931 . S
C1438 C1432 1.383 . S
C1438 C1437 1.379 . S
H1439 C1433 0.959 . S
H1440 C1433 0.961 . S
H1441 C1433 0.960 . S
H1442 C1434 0.930 . S
H1443 C1435 0.929 . S
H1444 C1452 0.929 . S
H1445 C1454 0.930 . S
H1446 C1456 0.930 . S
H1447 C1459 0.929 . S
H1448 C1462 0.930 . S
H1449 C1464 0.960 . S
H1450 C1464 0.960 . S
H1451 C1464 0.960 . S
C1452 H1444 0.929 . S
C1452 C1453 1.377 . S
C1452 C1454 1.384 . S
C1453 C1452 1.377 . S
C1453 C1459 1.390 . S
C1454 H1445 0.930 . S
C1454 C1452 1.384 . S
C1454 C1455 1.372 . S
C1455 C1454 1.372 . S
C1455 C1456 1.400 . S
C1455 C1460 1.490 . S
C1456 H1446 0.930 . S
C1456 C1455 1.400 . S
C1456 C1459 1.386 . S
H1457 C1473 0.930 . S
H1458 C1474 0.931 . S
C1459 H1447 0.929 . S
C1459 C1453 1.390 . S
C1459 C1456 1.386 . S
C1460 C1455 1.490 . S
C1460 C1462 1.395 . S
C1460 C1463 1.403 . S
H1461 C1467 0.930 . S
C1462 H1448 0.930 . S
C1462 C1460 1.395 . S
C1462 C1465 1.403 . S
C1463 C1460 1.403 . S
C1463 C1464 1.524 . S
C1463 C1467 1.400 . S
C1464 H1449 0.960 . S
C1464 H1450 0.960 . S
C1464 H1451 0.960 . S
C1464 C1463 1.524 . S
C1465 C1462 1.403 . S
C1465 C1466 1.392 . S
C1465 C1469 1.495 . S
C1466 C1465 1.392 . S
C1466 C1467 1.385 . S
C1466 C1468 1.478 . S
C1467 H1461 0.930 . S
C1467 C1463 1.400 . S
C1467 C1466 1.385 . S
C1468 C1466 1.478 . S
C1468 C1470 1.381 . S
C1468 C1474 1.383 . S
C1469 C1465 1.495 . S
C1469 H1475 0.959 . S
C1469 H1476 0.961 . S
C1469 H1477 0.960 . S
C1470 C1468 1.381 . S
C1470 C1471 1.394 . S
C1470 H1478 0.930 . S
C1471 C1470 1.394 . S
C1471 C1472 1.383 . S
C1471 H1479 0.929 . S
C1472 C1471 1.383 . S
C1472 C1473 1.377 . S
C1473 H1457 0.930 . S
C1473 C1472 1.377 . S
C1473 C1474 1.379 . S
C1474 H1458 0.931 . S
C1474 C1468 1.383 . S
C1474 C1473 1.379 . S
H1475 C1469 0.959 . S
H1476 C1469 0.961 . S
H1477 C1469 0.960 . S
H1478 C1470 0.930 . S
H1479 C1471 0.929 . S
H1480 C1488 0.929 . S
H1481 C1490 0.930 . S
H1482 C1492 0.930 . S
H1483 C1495 0.929 . S
H1484 C1498 0.930 . S
H1485 C1500 0.960 . S
H1486 C1500 0.960 . S
H1487 C1500 0.960 . S
C1488 H1480 0.929 . S
C1488 C1489 1.377 . S
C1488 C1490 1.384 . S
C1489 C1488 1.377 . S
C1489 C1495 1.390 . S
C1490 H1481 0.930 . S
C1490 C1488 1.384 . S
C1490 C1491 1.372 . S
C1491 C1490 1.372 . S
C1491 C1492 1.400 . S
C1491 C1496 1.490 . S
C1492 H1482 0.930 . S
C1492 C1491 1.400 . S
C1492 C1495 1.386 . S
H1493 C1509 0.930 . S
H1494 C1510 0.931 . S
C1495 H1483 0.929 . S
C1495 C1489 1.390 . S
C1495 C1492 1.386 . S
C1496 C1491 1.490 . S
C1496 C1498 1.395 . S
C1496 C1499 1.403 . S
H1497 C1503 0.930 . S
C1498 H1484 0.930 . S
C1498 C1496 1.395 . S
C1498 C1501 1.403 . S
C1499 C1496 1.403 . S
C1499 C1500 1.524 . S
C1499 C1503 1.400 . S
C1500 H1485 0.960 . S
C1500 H1486 0.960 . S
C1500 H1487 0.960 . S
C1500 C1499 1.524 . S
C1501 C1498 1.403 . S
C1501 C1502 1.392 . S
C1501 C1505 1.495 . S
C1502 C1501 1.392 . S
C1502 C1503 1.385 . S
C1502 C1504 1.478 . S
C1503 H1497 0.930 . S
C1503 C1499 1.400 . S
C1503 C1502 1.385 . S
C1504 C1502 1.478 . S
C1504 C1506 1.381 . S
C1504 C1510 1.383 . S
C1505 C1501 1.495 . S
C1505 H1511 0.959 . S
C1505 H1512 0.961 . S
C1505 H1513 0.960 . S
C1506 C1504 1.381 . S
C1506 C1507 1.394 . S
C1506 H1514 0.930 . S
C1507 C1506 1.394 . S
C1507 C1508 1.383 . S
C1507 H1515 0.929 . S
C1508 C1507 1.383 . S
C1508 C1509 1.377 . S
C1509 H1493 0.930 . S
C1509 C1508 1.377 . S
C1509 C1510 1.379 . S
C1510 H1494 0.931 . S
C1510 C1504 1.383 . S
C1510 C1509 1.379 . S
H1511 C1505 0.959 . S
H1512 C1505 0.961 . S
H1513 C1505 0.960 . S
H1514 C1506 0.930 . S
H1515 C1507 0.929 . S
H1516 C1524 0.929 . S
H1517 C1526 0.930 . S
H1518 C1528 0.930 . S
H1519 C1531 0.929 . S
H1520 C1534 0.930 . S
H1521 C1536 0.960 . S
H1522 C1536 0.960 . S
H1523 C1536 0.960 . S
C1524 H1516 0.929 . S
C1524 C1525 1.377 . S
C1524 C1526 1.384 . S
C1525 C1524 1.377 . S
C1525 C1531 1.390 . S
C1526 H1517 0.930 . S
C1526 C1524 1.384 . S
C1526 C1527 1.372 . S
C1527 C1526 1.372 . S
C1527 C1528 1.400 . S
C1527 C1532 1.490 . S
C1528 H1518 0.930 . S
C1528 C1527 1.400 . S
C1528 C1531 1.386 . S
H1529 C1545 0.930 . S
H1530 C1546 0.931 . S
C1531 H1519 0.929 . S
C1531 C1525 1.390 . S
C1531 C1528 1.386 . S
C1532 C1527 1.490 . S
C1532 C1534 1.395 . S
C1532 C1535 1.403 . S
H1533 C1539 0.930 . S
C1534 H1520 0.930 . S
C1534 C1532 1.395 . S
C1534 C1537 1.403 . S
C1535 C1532 1.403 . S
C1535 C1536 1.524 . S
C1535 C1539 1.400 . S
C1536 H1521 0.960 . S
C1536 H1522 0.960 . S
C1536 H1523 0.960 . S
C1536 C1535 1.524 . S
C1537 C1534 1.403 . S
C1537 C1538 1.392 . S
C1537 C1541 1.495 . S
C1538 C1537 1.392 . S
C1538 C1539 1.385 . S
C1538 C1540 1.478 . S
C1539 H1533 0.930 . S
C1539 C1535 1.400 . S
C1539 C1538 1.385 . S
C1540 C1538 1.478 . S
C1540 C1542 1.381 . S
C1540 C1546 1.383 . S
C1541 C1537 1.495 . S
C1541 H1547 0.959 . S
C1541 H1548 0.961 . S
C1541 H1549 0.960 . S
C1542 C1540 1.381 . S
C1542 C1543 1.394 . S
C1542 H1550 0.930 . S
C1543 C1542 1.394 . S
C1543 C1544 1.383 . S
C1543 H1551 0.929 . S
C1544 C1543 1.383 . S
C1544 C1545 1.377 . S
C1545 H1529 0.930 . S
C1545 C1544 1.377 . S
C1545 C1546 1.379 . S
C1546 H1530 0.931 . S
C1546 C1540 1.383 . S
C1546 C1545 1.379 . S
H1547 C1541 0.959 . S
H1548 C1541 0.961 . S
H1549 C1541 0.960 . S
H1550 C1542 0.930 . S
H1551 C1543 0.929 . S
H1552 C1560 0.929 . S
H1553 C1562 0.930 . S
H1554 C1564 0.930 . S
H1555 C1567 0.929 . S
H1556 C1570 0.930 . S
H1557 C1572 0.960 . S
H1558 C1572 0.960 . S
H1559 C1572 0.960 . S
C1560 H1552 0.929 . S
C1560 C1561 1.377 . S
C1560 C1562 1.384 . S
C1561 C1560 1.377 . S
C1561 C1567 1.390 . S
C1562 H1553 0.930 . S
C1562 C1560 1.384 . S
C1562 C1563 1.372 . S
C1563 C1562 1.372 . S
C1563 C1564 1.400 . S
C1563 C1568 1.490 . S
C1564 H1554 0.930 . S
C1564 C1563 1.400 . S
C1564 C1567 1.386 . S
H1565 C1581 0.930 . S
H1566 C1582 0.931 . S
C1567 H1555 0.929 . S
C1567 C1561 1.390 . S
C1567 C1564 1.386 . S
C1568 C1563 1.490 . S
C1568 C1570 1.395 . S
C1568 C1571 1.403 . S
H1569 C1575 0.930 . S
C1570 H1556 0.930 . S
C1570 C1568 1.395 . S
C1570 C1573 1.403 . S
C1571 C1568 1.403 . S
C1571 C1572 1.524 . S
C1571 C1575 1.400 . S
C1572 H1557 0.960 . S
C1572 H1558 0.960 . S
C1572 H1559 0.960 . S
C1572 C1571 1.524 . S
C1573 C1570 1.403 . S
C1573 C1574 1.392 . S
C1573 C1577 1.495 . S
C1574 C1573 1.392 . S
C1574 C1575 1.385 . S
C1574 C1576 1.478 . S
C1575 H1569 0.930 . S
C1575 C1571 1.400 . S
C1575 C1574 1.385 . S
C1576 C1574 1.478 . S
C1576 C1578 1.381 . S
C1576 C1582 1.383 . S
C1577 C1573 1.495 . S
C1577 H1583 0.959 . S
C1577 H1584 0.961 . S
C1577 H1585 0.960 . S
C1578 C1576 1.381 . S
C1578 C1579 1.394 . S
C1578 H1586 0.930 . S
C1579 C1578 1.394 . S
C1579 C1580 1.383 . S
C1579 H1587 0.929 . S
C1580 C1579 1.383 . S
C1580 C1581 1.377 . S
C1581 H1565 0.930 . S
C1581 C1580 1.377 . S
C1581 C1582 1.379 . S
C1582 H1566 0.931 . S
C1582 C1576 1.383 . S
C1582 C1581 1.379 . S
H1583 C1577 0.959 . S
H1584 C1577 0.961 . S
H1585 C1577 0.960 . S
H1586 C1578 0.930 . S
H1587 C1579 0.929 . S
H1588 C1596 0.929 . S
H1589 C1598 0.930 . S
H1590 C1600 0.930 . S
H1591 C1603 0.929 . S
H1592 C1606 0.930 . S
H1593 C1608 0.960 . S
H1594 C1608 0.960 . S
H1595 C1608 0.960 . S
C1596 H1588 0.929 . S
C1596 C1597 1.377 . S
C1596 C1598 1.384 . S
C1597 C1596 1.377 . S
C1597 C1603 1.390 . S
C1598 H1589 0.930 . S
C1598 C1596 1.384 . S
C1598 C1599 1.372 . S
C1599 C1598 1.372 . S
C1599 C1600 1.400 . S
C1599 C1604 1.490 . S
C1600 H1590 0.930 . S
C1600 C1599 1.400 . S
C1600 C1603 1.386 . S
H1601 C1617 0.930 . S
H1602 C1618 0.931 . S
C1603 H1591 0.929 . S
C1603 C1597 1.390 . S
C1603 C1600 1.386 . S
C1604 C1599 1.490 . S
C1604 C1606 1.395 . S
C1604 C1607 1.403 . S
H1605 C1611 0.930 . S
C1606 H1592 0.930 . S
C1606 C1604 1.395 . S
C1606 C1609 1.403 . S
C1607 C1604 1.403 . S
C1607 C1608 1.524 . S
C1607 C1611 1.400 . S
C1608 H1593 0.960 . S
C1608 H1594 0.960 . S
C1608 H1595 0.960 . S
C1608 C1607 1.524 . S
C1609 C1606 1.403 . S
C1609 C1610 1.392 . S
C1609 C1613 1.495 . S
C1610 C1609 1.392 . S
C1610 C1611 1.385 . S
C1610 C1612 1.478 . S
C1611 H1605 0.930 . S
C1611 C1607 1.400 . S
C1611 C1610 1.385 . S
C1612 C1610 1.478 . S
C1612 C1614 1.381 . S
C1612 C1618 1.383 . S
C1613 C1609 1.495 . S
C1613 H1619 0.959 . S
C1613 H1620 0.961 . S
C1613 H1621 0.960 . S
C1614 C1612 1.381 . S
C1614 C1615 1.394 . S
C1614 H1622 0.930 . S
C1615 C1614 1.394 . S
C1615 C1616 1.383 . S
C1615 H1623 0.929 . S
C1616 C1615 1.383 . S
C1616 C1617 1.377 . S
C1617 H1601 0.930 . S
C1617 C1616 1.377 . S
C1617 C1618 1.379 . S
C1618 H1602 0.931 . S
C1618 C1612 1.383 . S
C1618 C1617 1.379 . S
H1619 C1613 0.959 . S
H1620 C1613 0.961 . S
H1621 C1613 0.960 . S
H1622 C1614 0.930 . S
H1623 C1615 0.929 . S
H1624 C1632 0.929 . S
H1625 C1634 0.930 . S
H1626 C1636 0.930 . S
H1627 C1639 0.929 . S
H1628 C1642 0.930 . S
H1629 C1644 0.960 . S
H1630 C1644 0.960 . S
H1631 C1644 0.960 . S
C1632 H1624 0.929 . S
C1632 C1633 1.377 . S
C1632 C1634 1.384 . S
C1633 C1632 1.377 . S
C1633 C1639 1.390 . S
C1634 H1625 0.930 . S
C1634 C1632 1.384 . S
C1634 C1635 1.372 . S
C1635 C1634 1.372 . S
C1635 C1636 1.400 . S
C1635 C1640 1.490 . S
C1636 H1626 0.930 . S
C1636 C1635 1.400 . S
C1636 C1639 1.386 . S
H1637 C1653 0.930 . S
H1638 C1654 0.931 . S
C1639 H1627 0.929 . S
C1639 C1633 1.390 . S
C1639 C1636 1.386 . S
C1640 C1635 1.490 . S
C1640 C1642 1.395 . S
C1640 C1643 1.403 . S
H1641 C1647 0.930 . S
C1642 H1628 0.930 . S
C1642 C1640 1.395 . S
C1642 C1645 1.403 . S
C1643 C1640 1.403 . S
C1643 C1644 1.524 . S
C1643 C1647 1.400 . S
C1644 H1629 0.960 . S
C1644 H1630 0.960 . S
C1644 H1631 0.960 . S
C1644 C1643 1.524 . S
C1645 C1642 1.403 . S
C1645 C1646 1.392 . S
C1645 C1649 1.495 . S
C1646 C1645 1.392 . S
C1646 C1647 1.385 . S
C1646 C1648 1.478 . S
C1647 H1641 0.930 . S
C1647 C1643 1.400 . S
C1647 C1646 1.385 . S
C1648 C1646 1.478 . S
C1648 C1650 1.381 . S
C1648 C1654 1.383 . S
C1649 C1645 1.495 . S
C1649 H1655 0.959 . S
C1649 H1656 0.961 . S
C1649 H1657 0.960 . S
C1650 C1648 1.381 . S
C1650 C1651 1.394 . S
C1650 H1658 0.930 . S
C1651 C1650 1.394 . S
C1651 C1652 1.383 . S
C1651 H1659 0.929 . S
C1652 C1651 1.383 . S
C1652 C1653 1.377 . S
C1653 H1637 0.930 . S
C1653 C1652 1.377 . S
C1653 C1654 1.379 . S
C1654 H1638 0.931 . S
C1654 C1648 1.383 . S
C1654 C1653 1.379 . S
H1655 C1649 0.959 . S
H1656 C1649 0.961 . S
H1657 C1649 0.960 . S
H1658 C1650 0.930 . S
H1659 C1651 0.929 . S
H1660 C1668 0.929 . S
H1661 C1670 0.930 . S
H1662 C1672 0.930 . S
H1663 C1675 0.929 . S
H1664 C1678 0.930 . S
H1665 C1680 0.960 . S
H1666 C1680 0.960 . S
H1667 C1680 0.960 . S
C1668 H1660 0.929 . S
C1668 C1669 1.377 . S
C1668 C1670 1.384 . S
C1669 C1668 1.377 . S
C1669 C1675 1.390 . S
C1670 H1661 0.930 . S
C1670 C1668 1.384 . S
C1670 C1671 1.372 . S
C1671 C1670 1.372 . S
C1671 C1672 1.400 . S
C1671 C1676 1.490 . S
C1672 H1662 0.930 . S
C1672 C1671 1.400 . S
C1672 C1675 1.386 . S
H1673 C1689 0.930 . S
H1674 C1690 0.931 . S
C1675 H1663 0.929 . S
C1675 C1669 1.390 . S
C1675 C1672 1.386 . S
C1676 C1671 1.490 . S
C1676 C1678 1.395 . S
C1676 C1679 1.403 . S
H1677 C1683 0.930 . S
C1678 H1664 0.930 . S
C1678 C1676 1.395 . S
C1678 C1681 1.403 . S
C1679 C1676 1.403 . S
C1679 C1680 1.524 . S
C1679 C1683 1.400 . S
C1680 H1665 0.960 . S
C1680 H1666 0.960 . S
C1680 H1667 0.960 . S
C1680 C1679 1.524 . S
C1681 C1678 1.403 . S
C1681 C1682 1.392 . S
C1681 C1685 1.495 . S
C1682 C1681 1.392 . S
C1682 C1683 1.385 . S
C1682 C1684 1.478 . S
C1683 H1677 0.930 . S
C1683 C1679 1.400 . S
C1683 C1682 1.385 . S
C1684 C1682 1.478 . S
C1684 C1686 1.381 . S
C1684 C1690 1.383 . S
C1685 C1681 1.495 . S
C1685 H1691 0.959 . S
C1685 H1692 0.961 . S
C1685 H1693 0.960 . S
C1686 C1684 1.381 . S
C1686 C1687 1.394 . S
C1686 H1694 0.930 . S
C1687 C1686 1.394 . S
C1687 C1688 1.383 . S
C1687 H1695 0.929 . S
C1688 C1687 1.383 . S
C1688 C1689 1.377 . S
C1689 H1673 0.930 . S
C1689 C1688 1.377 . S
C1689 C1690 1.379 . S
C1690 H1674 0.931 . S
C1690 C1684 1.383 . S
C1690 C1689 1.379 . S
H1691 C1685 0.959 . S
H1692 C1685 0.961 . S
H1693 C1685 0.960 . S
H1694 C1686 0.930 . S
H1695 C1687 0.929 . S
H1696 C1704 0.929 . S
H1697 C1706 0.930 . S
H1698 C1708 0.930 . S
H1699 C1711 0.929 . S
H1700 C1714 0.930 . S
H1701 C1716 0.960 . S
H1702 C1716 0.960 . S
H1703 C1716 0.960 . S
C1704 H1696 0.929 . S
C1704 C1705 1.377 . S
C1704 C1706 1.384 . S
C1705 C1704 1.377 . S
C1705 C1711 1.390 . S
C1706 H1697 0.930 . S
C1706 C1704 1.384 . S
C1706 C1707 1.372 . S
C1707 C1706 1.372 . S
C1707 C1708 1.400 . S
C1707 C1712 1.490 . S
C1708 H1698 0.930 . S
C1708 C1707 1.400 . S
C1708 C1711 1.386 . S
H1709 C1725 0.930 . S
H1710 C1726 0.931 . S
C1711 H1699 0.929 . S
C1711 C1705 1.390 . S
C1711 C1708 1.386 . S
C1712 C1707 1.490 . S
C1712 C1714 1.395 . S
C1712 C1715 1.403 . S
H1713 C1719 0.930 . S
C1714 H1700 0.930 . S
C1714 C1712 1.395 . S
C1714 C1717 1.403 . S
C1715 C1712 1.403 . S
C1715 C1716 1.524 . S
C1715 C1719 1.400 . S
C1716 H1701 0.960 . S
C1716 H1702 0.960 . S
C1716 H1703 0.960 . S
C1716 C1715 1.524 . S
C1717 C1714 1.403 . S
C1717 C1718 1.392 . S
C1717 C1721 1.495 . S
C1718 C1717 1.392 . S
C1718 C1719 1.385 . S
C1718 C1720 1.478 . S
C1719 H1713 0.930 . S
C1719 C1715 1.400 . S
C1719 C1718 1.385 . S
C1720 C1718 1.478 . S
C1720 C1722 1.381 . S
C1720 C1726 1.383 . S
C1721 C1717 1.495 . S
C1721 H1727 0.959 . S
C1721 H1728 0.961 . S
C1721 H1729 0.960 . S
C1722 C1720 1.381 . S
C1722 C1723 1.394 . S
C1722 H1730 0.930 . S
C1723 C1722 1.394 . S
C1723 C1724 1.383 . S
C1723 H1731 0.929 . S
C1724 C1723 1.383 . S
C1724 C1725 1.377 . S
C1725 H1709 0.930 . S
C1725 C1724 1.377 . S
C1725 C1726 1.379 . S
C1726 H1710 0.931 . S
C1726 C1720 1.383 . S
C1726 C1725 1.379 . S
H1727 C1721 0.959 . S
H1728 C1721 0.961 . S
H1729 C1721 0.960 . S
H1730 C1722 0.930 . S
H1731 C1723 0.929 . S
H1732 C1740 0.929 . S
H1733 C1742 0.930 . S
H1734 C1744 0.930 . S
H1735 C1747 0.929 . S
H1736 C1750 0.930 . S
H1737 C1752 0.960 . S
H1738 C1752 0.960 . S
H1739 C1752 0.960 . S
C1740 H1732 0.929 . S
C1740 C1741 1.377 . S
C1740 C1742 1.384 . S
C1741 C1740 1.377 . S
C1741 C1747 1.390 . S
C1742 H1733 0.930 . S
C1742 C1740 1.384 . S
C1742 C1743 1.372 . S
C1743 C1742 1.372 . S
C1743 C1744 1.400 . S
C1743 C1748 1.490 . S
C1744 H1734 0.930 . S
C1744 C1743 1.400 . S
C1744 C1747 1.386 . S
H1745 C1761 0.930 . S
H1746 C1762 0.931 . S
C1747 H1735 0.929 . S
C1747 C1741 1.390 . S
C1747 C1744 1.386 . S
C1748 C1743 1.490 . S
C1748 C1750 1.395 . S
C1748 C1751 1.403 . S
H1749 C1755 0.930 . S
C1750 H1736 0.930 . S
C1750 C1748 1.395 . S
C1750 C1753 1.403 . S
C1751 C1748 1.403 . S
C1751 C1752 1.524 . S
C1751 C1755 1.400 . S
C1752 H1737 0.960 . S
C1752 H1738 0.960 . S
C1752 H1739 0.960 . S
C1752 C1751 1.524 . S
C1753 C1750 1.403 . S
C1753 C1754 1.392 . S
C1753 C1757 1.495 . S
C1754 C1753 1.392 . S
C1754 C1755 1.385 . S
C1754 C1756 1.478 . S
C1755 H1749 0.930 . S
C1755 C1751 1.400 . S
C1755 C1754 1.385 . S
C1756 C1754 1.478 . S
C1756 C1758 1.381 . S
C1756 C1762 1.383 . S
C1757 C1753 1.495 . S
C1757 H1763 0.959 . S
C1757 H1764 0.961 . S
C1757 H1765 0.960 . S
C1758 C1756 1.381 . S
C1758 C1759 1.394 . S
C1758 H1766 0.930 . S
C1759 C1758 1.394 . S
C1759 C1760 1.383 . S
C1759 H1767 0.929 . S
C1760 C1759 1.383 . S
C1760 C1761 1.377 . S
C1761 H1745 0.930 . S
C1761 C1760 1.377 . S
C1761 C1762 1.379 . S
C1762 H1746 0.931 . S
C1762 C1756 1.383 . S
C1762 C1761 1.379 . S
H1763 C1757 0.959 . S
H1764 C1757 0.961 . S
H1765 C1757 0.960 . S
H1766 C1758 0.930 . S
H1767 C1759 0.929 . S
H1768 C1776 0.929 . S
H1769 C1778 0.930 . S
H1770 C1780 0.930 . S
H1771 C1783 0.929 . S
H1772 C1786 0.930 . S
H1773 C1788 0.960 . S
H1774 C1788 0.960 . S
H1775 C1788 0.960 . S
C1776 H1768 0.929 . S
C1776 C1777 1.377 . S
C1776 C1778 1.384 . S
C1777 C1776 1.377 . S
C1777 C1783 1.390 . S
C1778 H1769 0.930 . S
C1778 C1776 1.384 . S
C1778 C1779 1.372 . S
C1779 C1778 1.372 . S
C1779 C1780 1.400 . S
C1779 C1784 1.490 . S
C1780 H1770 0.930 . S
C1780 C1779 1.400 . S
C1780 C1783 1.386 . S
H1781 C1797 0.930 . S
H1782 C1798 0.931 . S
C1783 H1771 0.929 . S
C1783 C1777 1.390 . S
C1783 C1780 1.386 . S
C1784 C1779 1.490 . S
C1784 C1786 1.395 . S
C1784 C1787 1.403 . S
H1785 C1791 0.930 . S
C1786 H1772 0.930 . S
C1786 C1784 1.395 . S
C1786 C1789 1.403 . S
C1787 C1784 1.403 . S
C1787 C1788 1.524 . S
C1787 C1791 1.400 . S
C1788 H1773 0.960 . S
C1788 H1774 0.960 . S
C1788 H1775 0.960 . S
C1788 C1787 1.524 . S
C1789 C1786 1.403 . S
C1789 C1790 1.392 . S
C1789 C1793 1.495 . S
C1790 C1789 1.392 . S
C1790 C1791 1.385 . S
C1790 C1792 1.478 . S
C1791 H1785 0.930 . S
C1791 C1787 1.400 . S
C1791 C1790 1.385 . S
C1792 C1790 1.478 . S
C1792 C1794 1.381 . S
C1792 C1798 1.383 . S
C1793 C1789 1.495 . S
C1793 H1799 0.959 . S
C1793 H1800 0.961 . S
C1793 H1801 0.960 . S
C1794 C1792 1.381 . S
C1794 C1795 1.394 . S
C1794 H1802 0.930 . S
C1795 C1794 1.394 . S
C1795 C1796 1.383 . S
C1795 H1803 0.929 . S
C1796 C1795 1.383 . S
C1796 C1797 1.377 . S
C1797 H1781 0.930 . S
C1797 C1796 1.377 . S
C1797 C1798 1.379 . S
C1798 H1782 0.931 . S
C1798 C1792 1.383 . S
C1798 C1797 1.379 . S
H1799 C1793 0.959 . S
H1800 C1793 0.961 . S
H1801 C1793 0.960 . S
H1802 C1794 0.930 . S
H1803 C1795 0.929 . S
H1804 C1812 0.929 . S
H1805 C1814 0.930 . S
H1806 C1816 0.930 . S
H1807 C1819 0.929 . S
H1808 C1822 0.930 . S
H1809 C1824 0.960 . S
H1810 C1824 0.960 . S
H1811 C1824 0.960 . S
C1812 H1804 0.929 . S
C1812 C1813 1.377 . S
C1812 C1814 1.384 . S
C1813 C1812 1.377 . S
C1813 C1819 1.390 . S
C1814 H1805 0.930 . S
C1814 C1812 1.384 . S
C1814 C1815 1.372 . S
C1815 C1814 1.372 . S
C1815 C1816 1.400 . S
C1815 C1820 1.490 . S
C1816 H1806 0.930 . S
C1816 C1815 1.400 . S
C1816 C1819 1.386 . S
H1817 C1833 0.930 . S
H1818 C1834 0.931 . S
C1819 H1807 0.929 . S
C1819 C1813 1.390 . S
C1819 C1816 1.386 . S
C1820 C1815 1.490 . S
C1820 C1822 1.395 . S
C1820 C1823 1.403 . S
H1821 C1827 0.930 . S
C1822 H1808 0.930 . S
C1822 C1820 1.395 . S
C1822 C1825 1.403 . S
C1823 C1820 1.403 . S
C1823 C1824 1.524 . S
C1823 C1827 1.400 . S
C1824 H1809 0.960 . S
C1824 H1810 0.960 . S
C1824 H1811 0.960 . S
C1824 C1823 1.524 . S
C1825 C1822 1.403 . S
C1825 C1826 1.392 . S
C1825 C1829 1.495 . S
C1826 C1825 1.392 . S
C1826 C1827 1.385 . S
C1826 C1828 1.478 . S
C1827 H1821 0.930 . S
C1827 C1823 1.400 . S
C1827 C1826 1.385 . S
C1828 C1826 1.478 . S
C1828 C1830 1.381 . S
C1828 C1834 1.383 . S
C1829 C1825 1.495 . S
C1829 H1835 0.959 . S
C1829 H1836 0.961 . S
C1829 H1837 0.960 . S
C1830 C1828 1.381 . S
C1830 C1831 1.394 . S
C1830 H1838 0.930 . S
C1831 C1830 1.394 . S
C1831 C1832 1.383 . S
C1831 H1839 0.929 . S
C1832 C1831 1.383 . S
C1832 C1833 1.377 . S
C1833 H1817 0.930 . S
C1833 C1832 1.377 . S
C1833 C1834 1.379 . S
C1834 H1818 0.931 . S
C1834 C1828 1.383 . S
C1834 C1833 1.379 . S
H1835 C1829 0.959 . S
H1836 C1829 0.961 . S
H1837 C1829 0.960 . S
H1838 C1830 0.930 . S
H1839 C1831 0.929 . S
H1840 C1848 0.929 . S
H1841 C1850 0.930 . S
H1842 C1852 0.930 . S
H1843 C1855 0.929 . S
H1844 C1858 0.930 . S
H1845 C1860 0.960 . S
H1846 C1860 0.960 . S
H1847 C1860 0.960 . S
C1848 H1840 0.929 . S
C1848 C1849 1.377 . S
C1848 C1850 1.384 . S
C1849 C1848 1.377 . S
C1849 C1855 1.390 . S
C1850 H1841 0.930 . S
C1850 C1848 1.384 . S
C1850 C1851 1.372 . S
C1851 C1850 1.372 . S
C1851 C1852 1.400 . S
C1851 C1856 1.490 . S
C1852 H1842 0.930 . S
C1852 C1851 1.400 . S
C1852 C1855 1.386 . S
H1853 C1869 0.930 . S
H1854 C1870 0.931 . S
C1855 H1843 0.929 . S
C1855 C1849 1.390 . S
C1855 C1852 1.386 . S
C1856 C1851 1.490 . S
C1856 C1858 1.395 . S
C1856 C1859 1.403 . S
H1857 C1863 0.930 . S
C1858 H1844 0.930 . S
C1858 C1856 1.395 . S
C1858 C1861 1.403 . S
C1859 C1856 1.403 . S
C1859 C1860 1.524 . S
C1859 C1863 1.400 . S
C1860 H1845 0.960 . S
C1860 H1846 0.960 . S
C1860 H1847 0.960 . S
C1860 C1859 1.524 . S
C1861 C1858 1.403 . S
C1861 C1862 1.392 . S
C1861 C1865 1.495 . S
C1862 C1861 1.392 . S
C1862 C1863 1.385 . S
C1862 C1864 1.478 . S
C1863 H1857 0.930 . S
C1863 C1859 1.400 . S
C1863 C1862 1.385 . S
C1864 C1862 1.478 . S
C1864 C1866 1.381 . S
C1864 C1870 1.383 . S
C1865 C1861 1.495 . S
C1865 H1871 0.959 . S
C1865 H1872 0.961 . S
C1865 H1873 0.960 . S
C1866 C1864 1.381 . S
C1866 C1867 1.394 . S
C1866 H1874 0.930 . S
C1867 C1866 1.394 . S
C1867 C1868 1.383 . S
C1867 H1875 0.929 . S
C1868 C1867 1.383 . S
C1868 C1869 1.377 . S
C1869 H1853 0.930 . S
C1869 C1868 1.377 . S
C1869 C1870 1.379 . S
C1870 H1854 0.931 . S
C1870 C1864 1.383 . S
C1870 C1869 1.379 . S
H1871 C1865 0.959 . S
H1872 C1865 0.961 . S
H1873 C1865 0.960 . S
H1874 C1866 0.930 . S
H1875 C1867 0.929 . S
H1876 C1884 0.929 . S
H1877 C1886 0.930 . S
H1878 C1888 0.930 . S
H1879 C1891 0.929 . S
H1880 C1894 0.930 . S
H1881 C1896 0.960 . S
H1882 C1896 0.960 . S
H1883 C1896 0.960 . S
C1884 H1876 0.929 . S
C1884 C1885 1.377 . S
C1884 C1886 1.384 . S
C1885 C1884 1.377 . S
C1885 C1891 1.390 . S
C1886 H1877 0.930 . S
C1886 C1884 1.384 . S
C1886 C1887 1.372 . S
C1887 C1886 1.372 . S
C1887 C1888 1.400 . S
C1887 C1892 1.490 . S
C1888 H1878 0.930 . S
C1888 C1887 1.400 . S
C1888 C1891 1.386 . S
H1889 C1905 0.930 . S
H1890 C1906 0.931 . S
C1891 H1879 0.929 . S
C1891 C1885 1.390 . S
C1891 C1888 1.386 . S
C1892 C1887 1.490 . S
C1892 C1894 1.395 . S
C1892 C1895 1.403 . S
H1893 C1899 0.930 . S
C1894 H1880 0.930 . S
C1894 C1892 1.395 . S
C1894 C1897 1.403 . S
C1895 C1892 1.403 . S
C1895 C1896 1.524 . S
C1895 C1899 1.400 . S
C1896 H1881 0.960 . S
C1896 H1882 0.960 . S
C1896 H1883 0.960 . S
C1896 C1895 1.524 . S
C1897 C1894 1.403 . S
C1897 C1898 1.392 . S
C1897 C1901 1.495 . S
C1898 C1897 1.392 . S
C1898 C1899 1.385 . S
C1898 C1900 1.478 . S
C1899 H1893 0.930 . S
C1899 C1895 1.400 . S
C1899 C1898 1.385 . S
C1900 C1898 1.478 . S
C1900 C1902 1.381 . S
C1900 C1906 1.383 . S
C1901 C1897 1.495 . S
C1901 H1907 0.959 . S
C1901 H1908 0.961 . S
C1901 H1909 0.960 . S
C1902 C1900 1.381 . S
C1902 C1903 1.394 . S
C1902 H1910 0.930 . S
C1903 C1902 1.394 . S
C1903 C1904 1.383 . S
C1903 H1911 0.929 . S
C1904 C1903 1.383 . S
C1904 C1905 1.377 . S
C1905 H1889 0.930 . S
C1905 C1904 1.377 . S
C1905 C1906 1.379 . S
C1906 H1890 0.931 . S
C1906 C1900 1.383 . S
C1906 C1905 1.379 . S
H1907 C1901 0.959 . S
H1908 C1901 0.961 . S
H1909 C1901 0.960 . S
H1910 C1902 0.930 . S
H1911 C1903 0.929 . S
H1912 C1920 0.929 . S
H1913 C1922 0.930 . S
H1914 C1924 0.930 . S
H1915 C1927 0.929 . S
H1916 C1930 0.930 . S
H1917 C1932 0.960 . S
H1918 C1932 0.960 . S
H1919 C1932 0.960 . S
C1920 H1912 0.929 . S
C1920 C1921 1.377 . S
C1920 C1922 1.384 . S
C1921 C1920 1.377 . S
C1921 C1927 1.390 . S
C1922 H1913 0.930 . S
C1922 C1920 1.384 . S
C1922 C1923 1.372 . S
C1923 C1922 1.372 . S
C1923 C1924 1.400 . S
C1923 C1928 1.490 . S
C1924 H1914 0.930 . S
C1924 C1923 1.400 . S
C1924 C1927 1.386 . S
H1925 C1941 0.930 . S
H1926 C1942 0.931 . S
C1927 H1915 0.929 . S
C1927 C1921 1.390 . S
C1927 C1924 1.386 . S
C1928 C1923 1.490 . S
C1928 C1930 1.395 . S
C1928 C1931 1.403 . S
H1929 C1935 0.930 . S
C1930 H1916 0.930 . S
C1930 C1928 1.395 . S
C1930 C1933 1.403 . S
C1931 C1928 1.403 . S
C1931 C1932 1.524 . S
C1931 C1935 1.400 . S
C1932 H1917 0.960 . S
C1932 H1918 0.960 . S
C1932 H1919 0.960 . S
C1932 C1931 1.524 . S
C1933 C1930 1.403 . S
C1933 C1934 1.392 . S
C1933 C1937 1.495 . S
C1934 C1933 1.392 . S
C1934 C1935 1.385 . S
C1934 C1936 1.478 . S
C1935 H1929 0.930 . S
C1935 C1931 1.400 . S
C1935 C1934 1.385 . S
C1936 C1934 1.478 . S
C1936 C1938 1.381 . S
C1936 C1942 1.383 . S
C1937 C1933 1.495 . S
C1937 H1943 0.959 . S
C1937 H1944 0.961 . S
C1937 H1945 0.960 . S
C1938 C1936 1.381 . S
C1938 C1939 1.394 . S
C1938 H1946 0.930 . S
C1939 C1938 1.394 . S
C1939 C1940 1.383 . S
C1939 H1947 0.929 . S
C1940 C1939 1.383 . S
C1940 C1941 1.377 . S
C1941 H1925 0.930 . S
C1941 C1940 1.377 . S
C1941 C1942 1.379 . S
C1942 H1926 0.931 . S
C1942 C1936 1.383 . S
C1942 C1941 1.379 . S
H1943 C1937 0.959 . S
H1944 C1937 0.961 . S
H1945 C1937 0.960 . S
H1946 C1938 0.930 . S
H1947 C1939 0.929 . S
H1948 C1956 0.929 . S
H1949 C1958 0.930 . S
H1950 C1960 0.930 . S
H1951 C1963 0.929 . S
H1952 C1966 0.930 . S
H1953 C1968 0.960 . S
H1954 C1968 0.960 . S
H1955 C1968 0.960 . S
C1956 H1948 0.929 . S
C1956 C1957 1.377 . S
C1956 C1958 1.384 . S
C1957 C1956 1.377 . S
C1957 C1963 1.390 . S
C1958 H1949 0.930 . S
C1958 C1956 1.384 . S
C1958 C1959 1.372 . S
C1959 C1958 1.372 . S
C1959 C1960 1.400 . S
C1959 C1964 1.490 . S
C1960 H1950 0.930 . S
C1960 C1959 1.400 . S
C1960 C1963 1.386 . S
H1961 C1977 0.930 . S
H1962 C1978 0.931 . S
C1963 H1951 0.929 . S
C1963 C1957 1.390 . S
C1963 C1960 1.386 . S
C1964 C1959 1.490 . S
C1964 C1966 1.395 . S
C1964 C1967 1.403 . S
H1965 C1971 0.930 . S
C1966 H1952 0.930 . S
C1966 C1964 1.395 . S
C1966 C1969 1.403 . S
C1967 C1964 1.403 . S
C1967 C1968 1.524 . S
C1967 C1971 1.400 . S
C1968 H1953 0.960 . S
C1968 H1954 0.960 . S
C1968 H1955 0.960 . S
C1968 C1967 1.524 . S
C1969 C1966 1.403 . S
C1969 C1970 1.392 . S
C1969 C1973 1.495 . S
C1970 C1969 1.392 . S
C1970 C1971 1.385 . S
C1970 C1972 1.478 . S
C1971 H1965 0.930 . S
C1971 C1967 1.400 . S
C1971 C1970 1.385 . S
C1972 C1970 1.478 . S
C1972 C1974 1.381 . S
C1972 C1978 1.383 . S
C1973 C1969 1.495 . S
C1973 H1979 0.959 . S
C1973 H1980 0.961 . S
C1973 H1981 0.960 . S
C1974 C1972 1.381 . S
C1974 C1975 1.394 . S
C1974 H1982 0.930 . S
C1975 C1974 1.394 . S
C1975 C1976 1.383 . S
C1975 H1983 0.929 . S
C1976 C1975 1.383 . S
C1976 C1977 1.377 . S
C1977 H1961 0.930 . S
C1977 C1976 1.377 . S
C1977 C1978 1.379 . S
C1978 H1962 0.931 . S
C1978 C1972 1.383 . S
C1978 C1977 1.379 . S
H1979 C1973 0.959 . S
H1980 C1973 0.961 . S
H1981 C1973 0.960 . S
H1982 C1974 0.930 . S
H1983 C1975 0.929 . S
C553 C345 1.825 . S
C572 C5 1.816 . S
C589 C39 1.827 . S
C608 C379 1.828 . S
C625 C277 1.828 . S
C644 C73 1.818 . S
C661 C107 1.824 . S
C680 C311 1.823 . S
C697 C481 1.828 . S
C716 C141 1.819 . S
C733 C175 1.824 . S
C752 C515 1.826 . S
C769 C209 1.827 . S
C788 C413 1.824 . S
C805 C447 1.824 . S
C824 C243 1.822 . S
C841 C496 0.890 . S
C860 C33 0.883 . S
C877 C530 0.888 . S
C896 C67 0.880 . S
C913 C101 0.895 . S
C932 C428 0.909 . S
C949 C462 0.887 . S
C968 C135 0.874 . S
C985 C169 0.888 . S
C1004 C360 0.908 . S
C1021 C203 0.894 . S
C1040 C394 0.870 . S
C1057 C292 0.890 . S
C1076 C237 0.880 . S
C1093 C271 0.891 . S
C1112 C326 0.876 . S
C1129 C224 0.889 . S
C1148 C305 0.887 . S
C1165 C258 0.893 . S
C1184 C339 0.895 . S
C1201 C156 0.890 . S
C1220 C373 0.891 . S
C1237 C407 0.890 . S
C1256 C190 0.884 . S
C1273 C441 0.889 . S
C1292 C88 0.910 . S
C1309 C475 0.895 . S
C1328 C122 0.870 . S
C1345 C509 0.889 . S
C1364 C20 0.886 . S
C1381 C54 0.888 . S
C1400 C543 0.909 . S
C1417 C383 1.573 . S
C1436 C2 1.628 . S
C1453 C36 1.632 . S
C1472 C281 1.557 . S
C1489 C70 1.632 . S
C1508 C315 1.550 . S
C1525 C104 1.633 . S
C1544 C349 1.540 . S
C1561 C179 1.574 . S
C1580 C138 1.628 . S
C1597 C172 1.631 . S
C1616 C213 1.573 . S
C1633 C247 1.574 . S
C1652 C206 1.627 . S
C1669 C240 1.632 . S
C1688 C145 1.541 . S
C1705 C111 1.567 . S
C1724 C274 1.628 . S
C1741 C308 1.632 . S
C1760 C9 1.592 . S
C1777 C342 1.632 . S
C1796 C43 1.567 . S
C1813 C77 1.574 . S
C1832 C376 1.623 . S
C1849 C451 1.569 . S
C1868 C410 1.623 . S
C1885 C485 1.565 . S
C1904 C444 1.625 . S
C1921 C478 1.631 . S
C1940 C519 1.580 . S
C1957 C417 1.566 . S
C1976 C512 1.633 . S
