# Generated by pormake.
# Topology whk, (6)-cn, num edge types: 1
# Building blocks:
#     Node 0, Type 0, BuildingBlock: VOLQOD_clean_sbu_1, # of connection points: 6
#     Node 1, Type 0, BuildingBlock: VOLQOD_clean_sbu_1, # of connection points: 6
#     Node 2, Type 0, BuildingBlock: VOLQOD_clean_sbu_1, # of connection points: 6
#     Node 3, Type 0, BuildingBlock: VOLQOD_clean_sbu_1, # of connection points: 6
#     Node 4, Type 0, BuildingBlock: VOLQOD_clean_sbu_1, # of connection points: 6
#     Node 5, Type 0, BuildingBlock: VOLQOD_clean_sbu_1, # of connection points: 6
#     Node 6, Type 0, BuildingBlock: VOLQOD_clean_sbu_1, # of connection points: 6
#     Node 7, Type 0, BuildingBlock: VOLQOD_clean_sbu_1, # of connection points: 6
#     Node 8, Type 0, BuildingBlock: VOLQOD_clean_sbu_1, # of connection points: 6
#     Node 9, Type 0, BuildingBlock: VOLQOD_clean_sbu_1, # of connection points: 6
#     Node 10, Type 0, BuildingBlock: VOLQOD_clean_sbu_1, # of connection points: 6
#     Node 11, Type 0, BuildingBlock: VOLQOD_clean_sbu_1, # of connection points: 6
#     Node 12, Type 0, BuildingBlock: VOLQOD_clean_sbu_1, # of connection points: 6
#     Node 13, Type 0, BuildingBlock: VOLQOD_clean_sbu_1, # of connection points: 6
#     Node 14, Type 0, BuildingBlock: VOLQOD_clean_sbu_1, # of connection points: 6
#     Node 15, Type 0, BuildingBlock: VOLQOD_clean_sbu_1, # of connection points: 6
#     Edge 16, Type (0, 0), BuildingBlock: XIVTED_clean_linker_0, # of connection points: 2
#     Edge 17, Type (0, 0), BuildingBlock: XIVTED_clean_linker_0, # of connection points: 2
#     Edge 18, Type (0, 0), BuildingBlock: XIVTED_clean_linker_0, # of connection points: 2
#     Edge 19, Type (0, 0), BuildingBlock: XIVTED_clean_linker_0, # of connection points: 2
#     Edge 20, Type (0, 0), BuildingBlock: XIVTED_clean_linker_0, # of connection points: 2
#     Edge 21, Type (0, 0), BuildingBlock: XIVTED_clean_linker_0, # of connection points: 2
#     Edge 22, Type (0, 0), BuildingBlock: XIVTED_clean_linker_0, # of connection points: 2
#     Edge 23, Type (0, 0), BuildingBlock: XIVTED_clean_linker_0, # of connection points: 2
#     Edge 24, Type (0, 0), BuildingBlock: XIVTED_clean_linker_0, # of connection points: 2
#     Edge 25, Type (0, 0), BuildingBlock: XIVTED_clean_linker_0, # of connection points: 2
#     Edge 26, Type (0, 0), BuildingBlock: XIVTED_clean_linker_0, # of connection points: 2
#     Edge 27, Type (0, 0), BuildingBlock: XIVTED_clean_linker_0, # of connection points: 2
#     Edge 28, Type (0, 0), BuildingBlock: XIVTED_clean_linker_0, # of connection points: 2
#     Edge 29, Type (0, 0), BuildingBlock: XIVTED_clean_linker_0, # of connection points: 2
#     Edge 30, Type (0, 0), BuildingBlock: XIVTED_clean_linker_0, # of connection points: 2
#     Edge 31, Type (0, 0), BuildingBlock: XIVTED_clean_linker_0, # of connection points: 2
#     Edge 32, Type (0, 0), BuildingBlock: XIVTED_clean_linker_0, # of connection points: 2
#     Edge 33, Type (0, 0), BuildingBlock: XIVTED_clean_linker_0, # of connection points: 2
#     Edge 34, Type (0, 0), BuildingBlock: XIVTED_clean_linker_0, # of connection points: 2
#     Edge 35, Type (0, 0), BuildingBlock: XIVTED_clean_linker_0, # of connection points: 2
#     Edge 36, Type (0, 0), BuildingBlock: XIVTED_clean_linker_0, # of connection points: 2
#     Edge 37, Type (0, 0), BuildingBlock: XIVTED_clean_linker_0, # of connection points: 2
#     Edge 38, Type (0, 0), BuildingBlock: XIVTED_clean_linker_0, # of connection points: 2
#     Edge 39, Type (0, 0), BuildingBlock: XIVTED_clean_linker_0, # of connection points: 2
#     Edge 40, Type (0, 0), BuildingBlock: XIVTED_clean_linker_0, # of connection points: 2
#     Edge 41, Type (0, 0), BuildingBlock: XIVTED_clean_linker_0, # of connection points: 2
#     Edge 42, Type (0, 0), BuildingBlock: XIVTED_clean_linker_0, # of connection points: 2
#     Edge 43, Type (0, 0), BuildingBlock: XIVTED_clean_linker_0, # of connection points: 2
#     Edge 44, Type (0, 0), BuildingBlock: XIVTED_clean_linker_0, # of connection points: 2
#     Edge 45, Type (0, 0), BuildingBlock: XIVTED_clean_linker_0, # of connection points: 2
#     Edge 46, Type (0, 0), BuildingBlock: XIVTED_clean_linker_0, # of connection points: 2
#     Edge 47, Type (0, 0), BuildingBlock: XIVTED_clean_linker_0, # of connection points: 2
#     Edge 48, Type (0, 0), BuildingBlock: XIVTED_clean_linker_0, # of connection points: 2
#     Edge 49, Type (0, 0), BuildingBlock: XIVTED_clean_linker_0, # of connection points: 2
#     Edge 50, Type (0, 0), BuildingBlock: XIVTED_clean_linker_0, # of connection points: 2
#     Edge 51, Type (0, 0), BuildingBlock: XIVTED_clean_linker_0, # of connection points: 2
#     Edge 52, Type (0, 0), BuildingBlock: XIVTED_clean_linker_0, # of connection points: 2
#     Edge 53, Type (0, 0), BuildingBlock: XIVTED_clean_linker_0, # of connection points: 2
#     Edge 54, Type (0, 0), BuildingBlock: XIVTED_clean_linker_0, # of connection points: 2
#     Edge 55, Type (0, 0), BuildingBlock: XIVTED_clean_linker_0, # of connection points: 2
#     Edge 56, Type (0, 0), BuildingBlock: XIVTED_clean_linker_0, # of connection points: 2
#     Edge 57, Type (0, 0), BuildingBlock: XIVTED_clean_linker_0, # of connection points: 2
#     Edge 58, Type (0, 0), BuildingBlock: XIVTED_clean_linker_0, # of connection points: 2
#     Edge 59, Type (0, 0), BuildingBlock: XIVTED_clean_linker_0, # of connection points: 2
#     Edge 60, Type (0, 0), BuildingBlock: XIVTED_clean_linker_0, # of connection points: 2
#     Edge 61, Type (0, 0), BuildingBlock: XIVTED_clean_linker_0, # of connection points: 2
#     Edge 62, Type (0, 0), BuildingBlock: XIVTED_clean_linker_0, # of connection points: 2
#     Edge 63, Type (0, 0), BuildingBlock: XIVTED_clean_linker_0, # of connection points: 2
# Relax obj value: 0.404
# Max RMSD: 0.246
# Mean RMSD: 0.242
data_MOF--net-whk--node1-VOLQOD_clean_sbu_1--edge1-XIVTED_clean_linker_0
_symmetry_space_group_name_H-M    P1
_symmetry_Int_Tables_number       1
_symmetry_cell_setting            triclinic
loop_
_symmetry_equiv_pos_as_xyz
'x, y, z'
_cell_length_a     37.451448
_cell_length_b     37.422816
_cell_length_c     55.450227
_cell_angle_alpha  90.136715
_cell_angle_beta   90.047094
_cell_angle_gamma 89.758487
loop_
_atom_site_label
_atom_site_type_symbol
_atom_site_fract_x
_atom_site_fract_y
_atom_site_fract_z
_atom_type_partial_charge
O0 O 0.57878 0.21217 0.4262 0.0
Zn1 Zn 0.56983 0.20335 0.39143 0.0
O2 O 0.55091 0.15742 0.38577 0.0
Zn3 Zn 0.58756 0.12753 0.37239 0.0
Zn4 Zn 0.53411 0.14049 0.41655 0.0
Zn5 Zn 0.51382 0.16164 0.36216 0.0
O6 O 0.56864 0.10027 0.34391 0.0
O7 O 0.53022 0.14096 0.33012 0.0
O8 O 0.61202 0.21232 0.3712 0.0
O9 O 0.62635 0.158 0.35823 0.0
O10 O 0.60894 0.09681 0.39866 0.0
O11 O 0.5709 0.10526 0.42905 0.0
O12 O 0.48517 0.11759 0.41187 0.0
O13 O 0.53399 0.23951 0.38333 0.0
O14 O 0.47468 0.13087 0.3733 0.0
O15 O 0.49339 0.21235 0.36086 0.0
C16 C 0.55585 0.20688 0.44274 0.0
C17 C 0.54953 0.11309 0.32689 0.0
C18 C 0.59928 0.09115 0.42039 0.0
C19 C 0.63164 0.19156 0.35876 0.0
C20 C 0.46581 0.11572 0.39289 0.0
C21 C 0.5051 0.24026 0.37144 0.0
O22 O 0.53265 0.18207 0.44079 0.0
O23 O 0.27457 0.57867 0.43629 0.0
Zn24 Zn 0.28675 0.57626 0.40136 0.0
O25 O 0.3312 0.55176 0.39686 0.0
Zn26 Zn 0.36706 0.58439 0.38566 0.0
Zn27 Zn 0.34565 0.53131 0.42728 0.0
Zn28 Zn 0.32431 0.51576 0.3728 0.0
O29 O 0.39247 0.56461 0.35653 0.0
O30 O 0.34959 0.52935 0.3422 0.0
O31 O 0.28688 0.62413 0.38536 0.0
O32 O 0.34359 0.62923 0.37412 0.0
O33 O 0.39882 0.60012 0.41306 0.0
O34 O 0.38087 0.56507 0.44296 0.0
O35 O 0.36681 0.48157 0.42154 0.0
O36 O 0.24644 0.54763 0.3885 0.0
O37 O 0.34766 0.47159 0.3841 0.0
O38 O 0.27234 0.50354 0.36828 0.0
C39 C 0.27791 0.5534 0.45153 0.0
C40 C 0.37892 0.54613 0.33946 0.0
C41 C 0.39961 0.59105 0.4352 0.0
C42 C 0.31186 0.64134 0.3751 0.0
C43 C 0.36372 0.46132 0.40305 0.0
C44 C 0.24439 0.51892 0.37635 0.0
O45 O 0.30225 0.52959 0.44934 0.0
O46 O 0.91617 0.27242 0.42865 0.0
Zn47 Zn 0.91868 0.28399 0.39382 0.0
O48 O 0.93926 0.32963 0.38855 0.0
Zn49 Zn 0.90323 0.36122 0.37561 0.0
Zn50 Zn 0.95671 0.34739 0.41912 0.0
Zn51 Zn 0.97662 0.32436 0.36512 0.0
O52 O 0.92262 0.38846 0.34729 0.0
O53 O 0.96139 0.34771 0.33387 0.0
O54 O 0.87298 0.27858 0.37662 0.0
O55 O 0.86333 0.33245 0.36126 0.0
O56 O 0.88177 0.39145 0.40236 0.0
O57 O 0.91931 0.38106 0.4327 0.0
O58 O 0.00466 0.37231 0.41365 0.0
O59 O 0.94941 0.24583 0.38089 0.0
O60 O 0.01789 0.35201 0.37688 0.0
O61 O -0.00699 0.27268 0.3611 0.0
C62 C 0.93896 0.27948 0.44503 0.0
C63 C 0.94231 0.37567 0.33054 0.0
C64 C 0.89098 0.39562 0.42436 0.0
C65 C 0.85502 0.29971 0.36341 0.0
C66 C 0.02576 0.37012 0.39556 0.0
C67 C 0.97797 0.24439 0.36871 0.0
O68 O 0.96033 0.30589 0.44315 0.0
O69 O 0.14313 0.95159 0.34269 0.0
Zn70 Zn 0.1785 0.94579 0.36959 0.0
O71 O 0.15482 0.94095 0.40063 0.0
Zn72 Zn 0.16406 0.98264 0.42013 0.0
Zn73 Zn 0.1038 0.93513 0.39491 0.0
Zn74 Zn 0.17447 0.9012 0.41769 0.0
O75 O 0.18056 0.97214 0.45403 0.0
O76 O 0.19687 0.91547 0.44916 0.0
O77 O 0.21531 0.98501 0.37045 0.0
O78 O 0.20563 0.0081 0.40671 0.0
O79 O 0.12255 0.01557 0.41806 0.0
O80 O 0.07939 0.98283 0.40158 0.0
O81 O 0.084 0.89262 0.41438 0.0
O82 O 0.20597 0.90117 0.36171 0.0
O83 O 0.13556 0.86714 0.42492 0.0
O84 O 0.21079 0.87569 0.39777 0.0
C85 C 0.11194 0.93841 0.34066 0.0
C86 C 0.19579 0.94392 0.46174 0.0
C87 C 0.09096 0.01253 0.40983 0.0
C88 C 0.22343 0.00676 0.38727 0.0
C89 C 0.10164 0.86679 0.42377 0.0
C90 C 0.21885 0.87734 0.37553 0.0
O91 O 0.09506 0.9267 0.35902 0.0
O92 O 0.03209 0.84576 0.16874 0.0
Zn93 Zn 0.03985 0.80927 0.1424 0.0
O94 O 0.05188 0.83275 0.1121 0.0
Zn95 Zn 0.01572 0.82521 0.08782 0.0
Zn96 Zn 0.05767 0.88352 0.11772 0.0
Zn97 Zn 0.09391 0.8118 0.09905 0.0
O98 O 0.03359 0.80611 0.05577 0.0
O99 O 0.08277 0.7813 0.07041 0.0
O100 O -0.00138 0.77504 0.13733 0.0
O101 O 0.9849 0.78581 0.09905 0.0
O102 O 0.98461 0.86812 0.0851 0.0
O103 O 0.01151 0.90857 0.10819 0.0
O104 O 0.10178 0.90216 0.09948 0.0
O105 O 0.08134 0.77948 0.15449 0.0
O106 O 0.12731 0.85027 0.08955 0.0
O107 O 0.11793 0.78088 0.12298 0.0
C108 C 0.04744 0.87591 0.17149 0.0
C109 C 0.0592 0.78376 0.05396 0.0
C110 C 0.98518 0.89871 0.09518 0.0
C111 C 0.98044 0.76828 0.11839 0.0
C112 C 0.12754 0.88427 0.09017 0.0
C113 C 0.1102 0.77038 0.14407 0.0
O114 O 0.06241 0.89178 0.15381 0.0
O115 O 0.64934 0.03391 0.15815 0.0
Zn116 Zn 0.68408 0.04118 0.13111 0.0
O117 O 0.66003 0.04027 0.10013 0.0
Zn118 Zn 0.67182 -0.00384 0.0838 0.0
Zn119 Zn 0.60898 0.04442 0.10553 0.0
Zn120 Zn 0.67697 0.07916 0.08108 0.0
O121 O 0.68725 0.00358 0.04915 0.0
O122 O 0.69897 0.06179 0.05032 0.0
O123 O 0.72621 0.00722 0.13153 0.0
O124 O 0.71586 0.97573 0.09837 0.0
O125 O 0.63174 0.96142 0.08809 0.0
O126 O 0.58658 -0.00424 0.1005 0.0
O127 O 0.58688 0.08401 0.08452 0.0
O128 O 0.70567 0.08913 0.13688 0.0
O129 O 0.63648 0.11137 0.07251 0.0
O130 O 0.7124 0.10839 0.09928 0.0
C131 C 0.61734 0.04551 0.15967 0.0
C132 C 0.69982 0.03176 0.03953 0.0
C133 C 0.59941 0.96517 0.0949 0.0
C134 C 0.73521 0.98296 0.11655 0.0
C135 C 0.60263 0.10984 0.07394 0.0
C136 C 0.71849 0.11107 0.12178 0.0
O137 O 0.59991 0.05518 0.14096 0.0
O138 O 0.40864 0.71789 0.07767 0.0
Zn139 Zn 0.40993 0.70347 0.11227 0.0
O140 O 0.43241 0.65762 0.11544 0.0
Zn141 Zn 0.39811 0.62322 0.12675 0.0
Zn142 Zn 0.45129 0.64258 0.08458 0.0
Zn143 Zn 0.46998 0.66202 0.13875 0.0
O144 O 0.41794 0.59638 0.15525 0.0
O145 O 0.45584 0.63717 0.1694 0.0
O146 O 0.36214 0.70504 0.12842 0.0
O147 O 0.35484 0.64858 0.13959 0.0
O148 O 0.38018 0.59244 0.0992 0.0
O149 O 0.41611 0.60861 0.06929 0.0
O150 O 0.50014 0.61879 0.08911 0.0
O151 O 0.43986 0.7418 0.12652 0.0
O152 O 0.51218 0.63573 0.12672 0.0
O153 O 0.48552 0.71343 0.14327 0.0
C154 C 0.43202 0.71226 0.06136 0.0
C155 C 0.43768 0.60864 0.17212 0.0
C156 C 0.38937 0.59102 0.07706 0.0
C157 C 0.34416 0.68086 0.13895 0.0
C158 C 0.52094 0.61964 0.10739 0.0
C159 C 0.46981 0.74231 0.13723 0.0
O160 O 0.45374 0.68589 0.06252 0.0
O161 O 0.77543 0.41596 0.06311 0.0
Zn162 Zn 0.7866 0.41756 0.09817 0.0
O163 O 0.83171 0.4397 0.10363 0.0
Zn164 Zn 0.86602 0.40521 0.11501 0.0
Zn165 Zn 0.84743 0.46106 0.07368 0.0
Zn166 Zn 0.82548 0.47419 0.12872 0.0
O167 O 0.89061 0.42197 0.14537 0.0
O168 O 0.84745 0.45703 0.15978 0.0
O169 O 0.78417 0.36959 0.11369 0.0
O170 O 0.84052 0.36092 0.12495 0.0
O171 O 0.8985 0.38975 0.08798 0.0
O172 O 0.88308 0.42681 0.0584 0.0
O173 O 0.86864 0.51058 0.0808 0.0
O174 O 0.74726 0.4479 0.11061 0.0
O175 O 0.85312 0.51638 0.11941 0.0
O176 O 0.77393 0.49026 0.13184 0.0
C177 C 0.78055 0.44047 0.04759 0.0
C178 C 0.87628 0.43924 0.16276 0.0
C179 C 0.90065 0.39976 0.06607 0.0
C180 C 0.80827 0.35064 0.12366 0.0
C181 C 0.86853 0.52813 0.10065 0.0
C182 C 0.74577 0.47647 0.12295 0.0
O183 O 0.8053 0.46358 0.05021 0.0
O184 O 0.40028 0.77805 0.57497 0.0
Zn185 Zn 0.41203 0.78436 0.60956 0.0
O186 O 0.43225 0.8297 0.61539 0.0
Zn187 Zn 0.39691 0.85937 0.63016 0.0
Zn188 Zn 0.447 0.84744 0.5842 0.0
Zn189 Zn 0.47062 0.82387 0.63784 0.0
O190 O 0.41745 0.88591 0.65826 0.0
O191 O 0.45686 0.84506 0.67047 0.0
O192 O 0.3706 0.77531 0.63062 0.0
O193 O 0.35794 0.82948 0.64456 0.0
O194 O 0.37446 0.89038 0.60496 0.0
O195 O 0.40878 0.88253 0.57252 0.0
O196 O 0.49619 0.87064 0.58818 0.0
O197 O 0.44772 0.74701 0.61564 0.0
O198 O 0.51045 0.85259 0.62529 0.0
O199 O 0.48909 0.77253 0.63836 0.0
C200 C 0.42392 0.78114 0.55864 0.0
C201 C 0.43767 0.8728 0.67455 0.0
C202 C 0.38144 0.89633 0.58283 0.0
C203 C 0.35179 0.79612 0.64358 0.0
C204 C 0.51789 0.86935 0.60602 0.0
C205 C 0.47688 0.74535 0.6272 0.0
O206 O 0.44812 0.80506 0.56032 0.0
O207 O 0.7108 0.40643 0.56823 0.0
Zn208 Zn 0.6984 0.41375 0.6027 0.0
O209 O 0.65271 0.43495 0.60679 0.0
Zn210 Zn 0.62015 0.39951 0.61917 0.0
Zn211 Zn 0.63832 0.45267 0.57545 0.0
Zn212 Zn 0.65704 0.47215 0.63043 0.0
O213 O 0.59175 0.41905 0.64721 0.0
O214 O 0.63094 0.45886 0.66084 0.0
O215 O 0.70325 0.37003 0.62209 0.0
O216 O 0.64782 0.35872 0.63385 0.0
O217 O 0.59048 0.37984 0.59174 0.0
O218 O 0.60276 0.41744 0.56179 0.0
O219 O 0.61681 0.5028 0.57944 0.0
O220 O 0.73568 0.44624 0.61414 0.0
O221 O 0.63299 0.51464 0.61732 0.0
O222 O 0.70813 0.48703 0.63636 0.0
C223 C 0.70633 0.42888 0.55126 0.0
C224 C 0.60318 0.4397 0.66386 0.0
C225 C 0.58692 0.38975 0.56984 0.0
C226 C 0.68104 0.35145 0.63389 0.0
C227 C 0.61826 0.52384 0.59763 0.0
C228 C 0.73656 0.47384 0.6274 0.0
O229 O 0.68136 0.45228 0.55224 0.0
O230 O 0.0754 0.69296 0.55984 0.0
Zn231 Zn 0.06804 0.69315 0.59559 0.0
O232 O 0.04696 0.65019 0.60623 0.0
Zn233 Zn 0.08262 0.62063 0.62064 0.0
Zn234 Zn 0.02745 0.62896 0.57771 0.0
Zn235 Zn 0.012 0.66028 0.63038 0.0
O236 O 0.06338 0.5967 0.65013 0.0
O237 O 0.02796 0.64074 0.66289 0.0
O238 O 0.11189 0.70324 0.61444 0.0
O239 O 0.12211 0.65165 0.63299 0.0
O240 O 0.10254 0.58686 0.59577 0.0
O241 O 0.06285 0.59185 0.56604 0.0
O242 O 0.97936 0.60762 0.58584 0.0
O243 O 0.03453 0.7329 0.60185 0.0
O244 O 0.9689 0.63276 0.62166 0.0
O245 O -0.00225 0.71264 0.63001 0.0
C246 C 0.05025 0.68637 0.54501 0.0
C247 C 0.0454 0.61187 0.66683 0.0
C248 C 0.09167 0.57868 0.57466 0.0
C249 C 0.12977 0.68423 0.62914 0.0
C250 C 0.95942 0.61281 0.60421 0.0
C251 C 0.00853 0.73761 0.61621 0.0
O252 O 0.02423 0.66621 0.55081 0.0
O253 O 0.77801 0.0795 0.56178 0.0
Zn254 Zn 0.78439 0.06972 0.59657 0.0
O255 O 0.82996 0.05056 0.60343 0.0
Zn256 Zn 0.8588 0.08743 0.6174 0.0
Zn257 Zn 0.84864 0.03387 0.57297 0.0
Zn258 Zn 0.82414 0.0136 0.62695 0.0
O259 O 0.88621 0.06832 0.64567 0.0
O260 O 0.84694 0.02828 0.65876 0.0
O261 O 0.77403 0.11152 0.61709 0.0
O262 O 0.82725 0.12553 0.63186 0.0
O263 O 0.88993 0.10922 0.59169 0.0
O264 O 0.88437 0.07048 0.56134 0.0
O265 O 0.87146 0.98477 0.57807 0.0
O266 O 0.7475 0.03427 0.60366 0.0
O267 O 0.85198 0.97238 0.61511 0.0
O268 O 0.7726 -0.00358 0.62926 0.0
C269 C 0.78354 0.05614 0.54548 0.0
C270 C 0.8744 0.04788 0.66221 0.0
C271 C 0.89733 0.09918 0.57025 0.0
C272 C 0.79369 0.13068 0.63052 0.0
C273 C 0.86929 0.96384 0.59622 0.0
C274 C 0.7456 0.0071 0.61718 0.0
O275 O 0.80804 0.03251 0.54791 0.0
O276 O 0.90011 0.21018 0.92704 0.0
Zn277 Zn 0.91321 0.20225 0.89279 0.0
O278 O 0.9334 0.15644 0.888 0.0
Zn279 Zn 0.8987 0.12643 0.87302 0.0
Zn280 Zn 0.94716 0.13953 0.91965 0.0
Zn281 Zn 0.97235 0.16137 0.86595 0.0
O282 O 0.92027 0.0989 0.84562 0.0
O283 O 0.96007 0.13901 0.83351 0.0
O284 O 0.87299 0.21089 0.87051 0.0
O285 O 0.86043 0.15628 0.85744 0.0
O286 O 0.87591 0.0956 0.89813 0.0
O287 O 0.90953 0.10385 0.93087 0.0
O288 O -0.00322 0.11669 0.91691 0.0
O289 O 0.94924 0.23901 0.88674 0.0
O290 O 0.01185 0.13326 0.87967 0.0
O291 O 0.99068 0.21245 0.8645 0.0
C292 C 0.92281 0.20687 0.944 0.0
C293 C 0.94116 0.11123 0.82953 0.0
C294 C 0.88273 0.0896 0.92029 0.0
C295 C 0.85468 0.18981 0.85752 0.0
C296 C 0.01893 0.11736 0.89936 0.0
C297 C 0.97846 0.24006 0.87525 0.0
O298 O 0.94676 0.18241 0.94313 0.0
O299 O 0.29358 0.91331 0.95195 0.0
Zn300 Zn 0.29124 0.91994 0.9163 0.0
O301 O 0.33424 0.93866 0.90399 0.0
Zn302 Zn 0.36118 0.90078 0.8898 0.0
Zn303 Zn 0.35788 0.95893 0.93144 0.0
Zn304 Zn 0.32367 0.97213 0.87905 0.0
O305 O 0.38539 0.91736 0.85975 0.0
O306 O 0.34323 0.95473 0.84675 0.0
O307 O 0.27779 0.8763 0.89839 0.0
O308 O 0.32752 0.86272 0.87854 0.0
O309 O 0.39485 0.88058 0.91446 0.0
O310 O 0.39513 0.92318 0.94257 0.0
O311 O 0.37881 0.00673 0.92174 0.0
O312 O 0.25237 0.95451 0.91051 0.0
O313 O 0.35082 0.01581 0.88673 0.0
O314 O 0.27126 0.98631 0.8793 0.0
C315 C 0.30238 0.93828 0.96639 0.0
C316 C 0.37117 0.93575 0.84293 0.0
C317 C 0.40569 0.89283 0.93464 0.0
C318 C 0.29481 0.8571 0.88332 0.0
C319 C 0.37187 0.02608 0.90334 0.0
C320 C 0.24712 0.97825 0.89457 0.0
O321 O 0.32288 0.96357 0.9597 0.0
O322 O 0.5719 0.27554 0.9325 0.0
Zn323 Zn 0.56926 0.28633 0.89741 0.0
O324 O 0.54945 0.33235 0.89097 0.0
Zn325 Zn 0.58548 0.36234 0.87667 0.0
Zn326 Zn 0.53285 0.35242 0.92122 0.0
Zn327 Zn 0.51181 0.32678 0.86759 0.0
O328 O 0.56602 0.38887 0.84793 0.0
O329 O 0.52495 0.34987 0.83598 0.0
O330 O 0.61431 0.27868 0.87962 0.0
O331 O 0.62454 0.33157 0.86295 0.0
O332 O 0.60711 0.39449 0.902 0.0
O333 O 0.56915 0.3886 0.93258 0.0
O334 O 0.48378 0.3751 0.91608 0.0
O335 O 0.53719 0.24895 0.88567 0.0
O336 O 0.47017 0.35332 0.87978 0.0
O337 O 0.49577 0.27557 0.86358 0.0
C338 C 0.55122 0.28583 0.94939 0.0
C339 C 0.54459 0.37699 0.83193 0.0
C340 C 0.59744 0.40191 0.92349 0.0
C341 C 0.63225 0.29871 0.86573 0.0
C342 C 0.46214 0.37144 0.89842 0.0
C343 C 0.50937 0.24748 0.87272 0.0
O344 O 0.53137 0.3135 0.94719 0.0
O345 O 0.21079 0.57938 0.93241 0.0
Zn346 Zn 0.19952 0.57211 0.89775 0.0
O347 O 0.15433 0.55063 0.89325 0.0
Zn348 Zn 0.12113 0.58607 0.88156 0.0
Zn349 Zn 0.14049 0.5318 0.92427 0.0
Zn350 Zn 0.15931 0.51436 0.86904 0.0
O351 O 0.0938 0.56769 0.85289 0.0
O352 O 0.13435 0.52967 0.83832 0.0
O353 O 0.20383 0.61623 0.87873 0.0
O354 O 0.1478 0.62824 0.86835 0.0
O355 O 0.09073 0.60402 0.90905 0.0
O356 O 0.10492 0.5665 0.93871 0.0
O357 O 0.11922 0.48204 0.91938 0.0
O358 O 0.23749 0.53966 0.88702 0.0
O359 O 0.13425 0.47184 0.88106 0.0
O360 O 0.21083 0.49876 0.86453 0.0
C361 C 0.20753 0.55586 0.94882 0.0
C362 C 0.10617 0.54866 0.83565 0.0
C363 C 0.08809 0.59393 0.93095 0.0
C364 C 0.18093 0.63554 0.86795 0.0
C365 C 0.11987 0.46195 0.90068 0.0
C366 C 0.23889 0.51176 0.87408 0.0
O367 O 0.18372 0.53155 0.94727 0.0
H368 H 0.58849 0.05434 0.31343 0.0
H369 H 0.55696 0.08323 0.17212 0.0
H370 H 0.51822 0.13552 0.28461 0.0
H371 H 0.64107 0.01803 0.20244 0.0
H372 H 0.53474 0.095 0.21292 0.0
H373 H 0.59976 0.03298 0.27263 0.0
C374 C 0.5751 0.0675 0.29856 0.0
C375 C 0.55272 0.09715 0.3025 0.0
C376 C 0.55786 0.07788 0.21058 0.0
C377 C 0.56576 0.07278 0.25556 0.0
C378 C 0.57051 0.07104 0.1873 0.0
C379 C 0.60119 0.04992 0.18386 0.0
C380 C 0.57587 0.06327 0.2305 0.0
C381 C 0.6176 0.03481 0.20421 0.0
C382 C 0.58164 0.05529 0.27522 0.0
C383 C 0.53591 0.1128 0.28245 0.0
N384 N 0.60485 0.04193 0.22663 0.0
N385 N 0.54304 0.10063 0.25981 0.0
H386 H 0.39924 0.54994 0.18592 0.0
H387 H 0.43841 0.58312 0.32539 0.0
H388 H 0.47438 0.62766 0.21292 0.0
H389 H 0.35761 0.51127 0.29844 0.0
H390 H 0.46003 0.59116 0.28429 0.0
H391 H 0.39198 0.52714 0.22678 0.0
C392 C 0.41457 0.56195 0.20036 0.0
C393 C 0.43696 0.59123 0.19602 0.0
C394 C 0.43784 0.5733 0.28741 0.0
C395 C 0.42859 0.56533 0.24288 0.0
C396 C 0.42549 0.56864 0.3109 0.0
C397 C 0.39569 0.547 0.31535 0.0
C398 C 0.42022 0.55628 0.26822 0.0
C399 C 0.38031 0.52865 0.29585 0.0
C400 C 0.41038 0.54891 0.22371 0.0
C401 C 0.45642 0.6054 0.21544 0.0
N402 N 0.39247 0.53406 0.2731 0.0
N403 N 0.45144 0.59261 0.23807 0.0
H404 H 0.97806 0.3549 0.28962 0.0
H405 H 0.85518 0.47421 0.20384 0.0
H406 H 0.901 0.43208 0.31557 0.0
H407 H 0.93289 0.39794 0.17757 0.0
H408 H 0.87699 0.46445 0.24476 0.0
H409 H 0.96747 0.37577 0.24855 0.0
C410 C 0.95924 0.37654 0.28676 0.0
C411 C 0.94004 0.39141 0.3061 0.0
C412 C 0.88952 0.45009 0.23003 0.0
C413 C 0.9276 0.41524 0.25903 0.0
C414 C 0.87705 0.45563 0.20662 0.0
C415 C 0.8919 0.43653 0.18722 0.0
C416 C 0.91692 0.4251 0.23415 0.0
C417 C 0.92041 0.41306 0.19196 0.0
C418 C 0.95317 0.38841 0.26326 0.0
C419 C 0.91619 0.41955 0.30124 0.0
N420 N 0.93173 0.40773 0.21497 0.0
N421 N 0.91037 0.43025 0.27818 0.0
H422 H 0.05324 0.89947 0.32678 0.0
H423 H 0.08561 0.93461 0.18603 0.0
H424 H 0.13532 0.96845 0.29862 0.0
H425 H 0.01706 0.85153 0.21337 0.0
H426 H 0.09641 0.95455 0.22735 0.0
H427 H 0.03229 0.88883 0.28554 0.0
C428 C 0.06661 0.91272 0.31199 0.0
C429 C 0.09636 0.93459 0.31619 0.0
C430 C 0.07876 0.93214 0.22429 0.0
C431 C 0.07251 0.92249 0.26897 0.0
C432 C 0.07246 0.92079 0.20066 0.0
C433 C 0.05069 0.89106 0.19615 0.0
C434 C 0.06313 0.91373 0.24362 0.0
C435 C 0.03432 0.87435 0.21593 0.0
C436 C 0.0547 0.90653 0.28844 0.0
C437 C 0.11255 0.95106 0.29628 0.0
N438 N 0.04108 0.88575 0.23879 0.0
N439 N 0.10056 0.94452 0.27357 0.0
H440 H 0.34871 0.96964 0.80164 0.0
H441 H 0.47134 0.84952 0.71576 0.0
H442 H 0.42772 0.8948 0.82787 0.0
H443 H 0.39826 0.93034 0.68978 0.0
H444 H 0.46007 0.86983 0.757 0.0
H445 H 0.37043 0.95954 0.76063 0.0
C446 C 0.37081 0.95133 0.79884 0.0
C447 C 0.3861 0.93277 0.81826 0.0
C448 C 0.44681 0.88337 0.74224 0.0
C449 C 0.41101 0.92091 0.7713 0.0
C450 C 0.45331 0.87182 0.71866 0.0
C451 C 0.4354 0.8879 0.69924 0.0
C452 C 0.42208 0.91106 0.74645 0.0
C453 C 0.41243 0.91682 0.70416 0.0
C454 C 0.38323 0.94558 0.7754 0.0
C455 C 0.41485 0.90952 0.81349 0.0
N456 N 0.40614 0.92718 0.72725 0.0
N457 N 0.42611 0.90401 0.7905 0.0
H458 H 0.50659 0.35614 0.79201 0.0
H459 H 0.61964 0.47982 0.70372 0.0
H460 H 0.58356 0.43417 0.81605 0.0
H461 H 0.54875 0.39647 0.67929 0.0
H462 H 0.59849 0.47076 0.74481 0.0
H463 H 0.5137 0.37776 0.7508 0.0
C464 C 0.52467 0.37811 0.78871 0.0
C465 C 0.54493 0.39297 0.80752 0.0
C466 C 0.58724 0.45473 0.73043 0.0
C467 C 0.55328 0.41773 0.7603 0.0
C468 C 0.59927 0.45992 0.70691 0.0
C469 C 0.5864 0.43847 0.68802 0.0
C470 C 0.56226 0.42778 0.73517 0.0
C471 C 0.55974 0.41339 0.69328 0.0
C472 C 0.52873 0.39041 0.76513 0.0
C473 C 0.5677 0.42157 0.80212 0.0
N474 N 0.54889 0.40843 0.71641 0.0
N475 N 0.57153 0.43274 0.77898 0.0
H476 H 0.07984 0.5511 0.68165 0.0
H477 H 0.05062 0.592 0.82171 0.0
H478 H 0.01567 0.63873 0.70846 0.0
H479 H 0.12442 0.51284 0.7942 0.0
H480 H 0.02974 0.60286 0.78065 0.0
H481 H 0.08852 0.53055 0.72289 0.0
C482 C 0.06726 0.56589 0.69618 0.0
C483 C 0.04734 0.59702 0.69154 0.0
C484 C 0.05024 0.58286 0.78364 0.0
C485 C 0.05738 0.57356 0.73897 0.0
C486 C 0.06214 0.57652 0.80711 0.0
C487 C 0.0897 0.55175 0.81143 0.0
C488 C 0.06595 0.56429 0.76432 0.0
C489 C 0.1034 0.53244 0.79175 0.0
C490 C 0.07229 0.55411 0.71976 0.0
C491 C 0.03148 0.61479 0.71116 0.0
N492 N 0.09161 0.53935 0.76905 0.0
N493 N 0.03712 0.60299 0.73403 0.0
H494 H 0.85585 0.011 0.70309 0.0
H495 H 0.97562 0.13355 0.7885 0.0
H496 H 0.93077 0.08914 0.67672 0.0
H497 H 0.90354 0.05261 0.81462 0.0
H498 H 0.96562 0.11213 0.74739 0.0
H499 H 0.87879 0.02039 0.74385 0.0
C500 C 0.87739 0.02982 0.70579 0.0
C501 C 0.89102 0.04966 0.68644 0.0
C502 C 0.95233 0.09878 0.76216 0.0
C503 C 0.91725 0.06074 0.73315 0.0
C504 C 0.95811 0.11096 0.78567 0.0
C505 C 0.93999 0.09524 0.80506 0.0
C506 C 0.92815 0.0708 0.75799 0.0
C507 C 0.91776 0.0659 0.80024 0.0
C508 C 0.89048 0.03519 0.7291 0.0
C509 C 0.91913 0.07349 0.69108 0.0
N510 N 0.91215 0.05494 0.77719 0.0
N511 N 0.93101 0.07865 0.71397 0.0
H512 H 0.4219 0.10197 0.43145 0.0
H513 H 0.27193 0.00928 0.3502 0.0
H514 H 0.43135 0.08725 0.35446 0.0
H515 H 0.25261 0.04886 0.42233 0.0
H516 H 0.33194 0.03455 0.35192 0.0
H517 H 0.36148 0.0769 0.42952 0.0
C518 C 0.41144 0.09306 0.41425 0.0
C519 C 0.43142 0.09688 0.39308 0.0
C520 C 0.31438 0.03792 0.36728 0.0
C521 C 0.36273 0.0687 0.39066 0.0
C522 C 0.28006 0.02371 0.36623 0.0
C523 C 0.25722 0.02681 0.38615 0.0
C524 C 0.32598 0.05502 0.38846 0.0
C525 C 0.26928 0.04571 0.40652 0.0
C526 C 0.37693 0.07913 0.41309 0.0
C527 C 0.41664 0.08512 0.37119 0.0
N528 N 0.30296 0.0588 0.40723 0.0
N529 N 0.38317 0.07163 0.37054 0.0
H530 H 0.4234 0.43843 0.42731 0.0
H531 H 0.43514 0.25126 0.35745 0.0
H532 H 0.34377 0.40425 0.37599 0.0
H533 H 0.52516 0.30397 0.39068 0.0
H534 H 0.39797 0.30346 0.36742 0.0
H535 H 0.4571 0.38339 0.41923 0.0
C536 C 0.41271 0.41904 0.41473 0.0
C537 C 0.38106 0.42596 0.40212 0.0
C538 C 0.42595 0.30349 0.37235 0.0
C539 C 0.41941 0.36353 0.39253 0.0
C540 C 0.4472 0.2739 0.36647 0.0
C541 C 0.48328 0.27314 0.37328 0.0
C542 C 0.44091 0.33213 0.3853 0.0
C543 C 0.49744 0.30317 0.38515 0.0
C544 C 0.43207 0.38788 0.4099 0.0
C545 C 0.36838 0.40006 0.38587 0.0
N546 N 0.47618 0.33122 0.39095 0.0
N547 N 0.3877 0.37004 0.38142 0.0
H548 H 0.08467 0.35453 0.36916 0.0
H549 H 0.18125 0.53972 0.39703 0.0
H550 H 0.04284 0.43246 0.41934 0.0
H551 H 0.22891 0.45444 0.35521 0.0
H552 H 0.12823 0.50317 0.40271 0.0
H553 H 0.13653 0.39209 0.36266 0.0
C554 C 0.0866 0.37948 0.37902 0.0
C555 C 0.05934 0.39049 0.39477 0.0
C556 C 0.15017 0.49259 0.39214 0.0
C557 C 0.11861 0.43398 0.38709 0.0
C558 C 0.18039 0.51357 0.38864 0.0
C559 C 0.20978 0.50008 0.37568 0.0
C560 C 0.14922 0.45793 0.38254 0.0
C561 C 0.20701 0.46595 0.36536 0.0
C562 C 0.11621 0.40098 0.37522 0.0
C563 C 0.06336 0.42292 0.40715 0.0
N564 N 0.17736 0.44598 0.36914 0.0
N565 N 0.09238 0.44376 0.40289 0.0
H566 H 0.02437 0.0201 0.38924 0.0
H567 H 0.04953 0.23017 0.37033 0.0
H568 H 0.11193 0.08107 0.41879 0.0
H569 H 0.94665 0.17924 0.36545 0.0
H570 H 0.07651 0.17209 0.37985 0.0
H571 H -0.00248 0.0759 0.37468 0.0
C572 C 0.03766 0.04515 0.39303 0.0
C573 C 0.07052 0.04578 0.40525 0.0
C574 C 0.0481 0.17361 0.37631 0.0
C575 C 0.04062 0.1093 0.38793 0.0
C576 C 0.03285 0.20658 0.37049 0.0
C577 C -0.00413 0.20939 0.36725 0.0
C578 C 0.02617 0.1434 0.37865 0.0
C579 C 0.9753 0.1781 0.368 0.0
C580 C 0.02251 0.07689 0.3845 0.0
C581 C 0.08661 0.0791 0.40947 0.0
N582 N 0.99068 0.14638 0.37383 0.0
N583 N 0.07171 0.10942 0.4006 0.0
H584 H 0.9647 0.95127 0.12712 0.0
H585 H 0.76016 0.92562 0.0913 0.0
H586 H 0.92776 0.89122 0.06543 0.0
H587 H 0.79364 0.00636 0.14219 0.0
H588 H 0.82226 0.90924 0.08488 0.0
H589 H 0.90331 0.97174 0.13421 0.0
C590 C 0.94392 0.94315 0.11469 0.0
C591 C 0.95134 0.91916 0.09579 0.0
C592 C 0.81611 0.93043 0.09757 0.0
C593 C 0.88117 0.94155 0.10426 0.0
C594 C 0.78056 0.93953 0.10146 0.0
C595 C 0.77163 0.9676 0.11718 0.0
C596 C 0.84316 0.9494 0.10949 0.0
C597 C 0.7993 0.98451 0.12993 0.0
C598 C 0.90884 0.9545 0.11894 0.0
C599 C 0.92328 0.90935 0.08039 0.0
N600 N 0.83394 0.97533 0.12566 0.0
N601 N 0.88945 0.92019 0.08516 0.0
H602 H 0.54197 0.75304 0.1404 0.0
H603 H 0.52869 0.96085 0.10775 0.0
H604 H 0.4417 0.80963 0.13417 0.0
H605 H 0.62238 0.89569 0.09525 0.0
H606 H 0.49729 0.90785 0.1222 0.0
H607 H 0.57339 0.80834 0.13074 0.0
C608 C 0.52659 0.77728 0.13765 0.0
C609 C 0.48914 0.77665 0.1379 0.0
C610 C 0.52467 0.9052 0.11617 0.0
C611 C 0.52486 0.83973 0.12633 0.0
C612 C 0.54254 0.93538 0.10775 0.0
C613 C 0.57824 0.93278 0.10017 0.0
C614 C 0.54274 0.87229 0.1173 0.0
C615 C 0.59484 0.89904 0.10075 0.0
C616 C 0.54452 0.80871 0.13179 0.0
C617 C 0.47061 0.80885 0.13397 0.0
N618 N 0.57704 0.87022 0.10932 0.0
N619 N 0.48864 0.83902 0.12814 0.0
H620 H 0.54178 0.56278 0.07905 0.0
H621 H 0.73051 0.54025 0.14552 0.0
H622 H 0.57815 0.63213 0.13626 0.0
H623 H 0.68335 0.45865 0.10051 0.0
H624 H 0.67638 0.57634 0.1406 0.0
H625 H 0.59651 0.5271 0.08368 0.0
C626 C 0.56145 0.57075 0.09232 0.0
C627 C 0.55534 0.60026 0.10738 0.0
C628 C 0.67785 0.55039 0.13197 0.0
C629 C 0.61753 0.55961 0.11297 0.0
C630 C 0.70865 0.52969 0.13491 0.0
C631 C 0.71156 0.49636 0.12345 0.0
C632 C 0.64995 0.53781 0.11728 0.0
C633 C 0.68239 0.48415 0.10976 0.0
C634 C 0.59247 0.55024 0.09514 0.0
C635 C 0.58161 0.60934 0.12442 0.0
N636 N 0.65296 0.50498 0.1069 0.0
N637 N 0.61147 0.58907 0.12678 0.0
H638 H 0.94025 0.74503 0.08033 0.0
H639 H 0.8929 0.55892 0.14166 0.0
H640 H 0.9702 0.71719 0.1532 0.0
H641 H 0.88361 0.57728 0.06506 0.0
H642 H 0.91643 0.61877 0.1468 0.0
H643 H 0.91281 0.68655 0.07561 0.0
C644 C 0.94062 0.72687 0.09551 0.0
C645 C 0.95791 0.736 0.11719 0.0
C646 C 0.90941 0.60979 0.12884 0.0
C647 C 0.92676 0.6688 0.11166 0.0
C648 C 0.89596 0.57556 0.12583 0.0
C649 C 0.88613 0.56315 0.10285 0.0
C650 C 0.91292 0.63209 0.10876 0.0
C651 C 0.89101 0.58579 0.08305 0.0
C652 C 0.92517 0.69335 0.09267 0.0
C653 C 0.95731 0.71134 0.13617 0.0
N654 N 0.9039 0.61939 0.08648 0.0
N655 N 0.94221 0.67875 0.1329 0.0
H656 H 0.72961 0.94463 0.64101 0.0
H657 H 0.53901 0.92431 0.57636 0.0
H658 H 0.68512 0.02245 0.59184 0.0
H659 H 0.57573 0.85647 0.63428 0.0
H660 H 0.59521 0.95758 0.57897 0.0
H661 H 0.67496 0.90939 0.63685 0.0
C662 C 0.70833 0.95444 0.62953 0.0
C663 C 0.71199 0.98655 0.61683 0.0
C664 C 0.5909 0.93531 0.59103 0.0
C665 C 0.64979 0.94627 0.61168 0.0
C666 C 0.55897 0.91623 0.58942 0.0
C667 C 0.55256 0.88788 0.60526 0.0
C668 C 0.61651 0.92568 0.60848 0.0
C669 C 0.57933 0.87849 0.6219 0.0
C670 C 0.67723 0.93428 0.62705 0.0
C671 C 0.68358 -0.00211 0.60205 0.0
N672 N 0.61003 0.8974 0.62312 0.0
N673 N 0.6538 0.97772 0.59983 0.0
H674 H 0.55846 0.54504 0.57267 0.0
H675 H 0.54555 0.73231 0.64282 0.0
H676 H 0.6385 0.58259 0.62258 0.0
H677 H 0.45777 0.68385 0.60429 0.0
H678 H 0.58265 0.68036 0.63263 0.0
H679 H 0.52454 0.60042 0.57947 0.0
C680 C 0.56921 0.56526 0.58462 0.0
C681 C 0.601 0.55921 0.59728 0.0
C682 C 0.55519 0.68116 0.62653 0.0
C683 C 0.56242 0.62193 0.60547 0.0
C684 C 0.53394 0.71063 0.63253 0.0
C685 C 0.4985 0.71248 0.62447 0.0
C686 C 0.54088 0.65356 0.61226 0.0
C687 C 0.48496 0.68369 0.61094 0.0
C688 C 0.54973 0.59662 0.58874 0.0
C689 C 0.61377 0.58611 0.61271 0.0
N690 N 0.5062 0.65557 0.60518 0.0
N691 N 0.59431 0.61618 0.61652 0.0
H692 H 0.93846 0.5518 0.58096 0.0
H693 H 0.74885 0.54131 0.64528 0.0
H694 H 0.90354 0.62991 0.63344 0.0
H695 H 0.80181 0.45064 0.61245 0.0
H696 H 0.80342 0.57624 0.63977 0.0
H697 H 0.88469 0.51702 0.58915 0.0
C698 C 0.91929 0.56181 0.59397 0.0
C699 C 0.92546 0.5936 0.60663 0.0
C700 C 0.80306 0.54855 0.63405 0.0
C701 C 0.86439 0.55398 0.61626 0.0
C702 C 0.77208 0.52856 0.63736 0.0
C703 C 0.77064 0.49317 0.62906 0.0
C704 C 0.83243 0.53301 0.6222 0.0
C705 C 0.80151 0.47799 0.61886 0.0
C706 C 0.88886 0.54181 0.59884 0.0
C707 C 0.89988 0.60533 0.62343 0.0
N708 N 0.83097 0.49814 0.61543 0.0
N709 N 0.8704 0.58549 0.62778 0.0
H710 H 0.92607 0.94168 0.56832 0.0
H711 H 0.94747 0.75728 0.64031 0.0
H712 H 0.8555 0.90732 0.62522 0.0
H713 H 0.02412 0.7954 0.58825 0.0
H714 H 0.91226 0.81156 0.63402 0.0
H715 H 0.96051 0.88626 0.57333 0.0
C716 C 0.9176 0.92234 0.58162 0.0
C717 C 0.88815 0.92922 0.59651 0.0
C718 C 0.93689 0.80806 0.62405 0.0
C719 C 0.92734 0.8663 0.60252 0.0
C720 C 0.95708 0.77717 0.62776 0.0
C721 C 0.98875 0.77172 0.6148 0.0
C722 C 0.94842 0.83359 0.60722 0.0
C723 C -0.00016 0.79839 0.59865 0.0
C724 C 0.93737 0.89089 0.58462 0.0
C725 C 0.87833 0.90333 0.61354 0.0
N726 N 0.97961 0.82808 0.59524 0.0
N727 N 0.89796 0.87314 0.61614 0.0
H728 H 0.07739 0.13011 0.87198 0.0
H729 H 0.18996 0.96635 0.92399 0.0
H730 H 0.03989 0.06313 0.92993 0.0
H731 H 0.22647 0.0354 0.86681 0.0
H732 H 0.13527 0.00143 0.92683 0.0
H733 H 0.13286 0.09657 0.87103 0.0
C734 C 0.08089 0.10834 0.88463 0.0
C735 C 0.05379 0.09912 0.90093 0.0
C736 C 0.1552 0.00888 0.91365 0.0
C737 C 0.11752 0.06038 0.89979 0.0
C738 C 0.18645 0.9888 0.91191 0.0
C739 C 0.21293 -0.00204 0.89509 0.0
C740 C 0.15031 0.03836 0.89847 0.0
C741 C 0.2068 0.0273 0.87998 0.0
C742 C 0.11266 0.08918 0.88404 0.0
C743 C 0.06009 0.07106 0.91708 0.0
N744 N 0.17612 0.0465 0.88207 0.0
N745 N 0.09132 0.05241 0.91597 0.0
H746 H 0.34932 0.08214 0.87616 0.0
H747 H 0.53569 0.18211 0.88467 0.0
H748 H 0.43636 0.04724 0.9216 0.0
H749 H 0.43978 0.23475 0.85956 0.0
H750 H 0.50141 0.12827 0.89214 0.0
H751 H 0.3833 0.13536 0.86561 0.0
C752 C 0.3755 0.08588 0.88409 0.0
C753 C 0.3902 0.06027 0.89973 0.0
C754 C 0.48791 0.15151 0.88484 0.0
C755 C 0.42925 0.1206 0.88737 0.0
C756 C 0.50747 0.18218 0.88035 0.0
C757 C 0.49042 0.21315 0.87178 0.0
C758 C 0.45106 0.15164 0.88059 0.0
C759 C 0.45393 0.21151 0.86624 0.0
C760 C 0.39483 0.11617 0.878 0.0
C761 C 0.42404 0.06643 0.90958 0.0
N762 N 0.4353 0.18125 0.87096 0.0
N763 N 0.44263 0.09591 0.90303 0.0
H764 H 0.44363 0.43431 0.92081 0.0
H765 H 0.2514 0.44335 0.85791 0.0
H766 H 0.4025 0.35129 0.87443 0.0
H767 H 0.30349 0.53417 0.89067 0.0
H768 H 0.30513 0.40764 0.86545 0.0
H769 H 0.38904 0.46913 0.91356 0.0
C770 C 0.42285 0.42319 0.90949 0.0
C771 C 0.42757 0.39013 0.89805 0.0
C772 C 0.30481 0.43549 0.87078 0.0
C773 C 0.36574 0.4297 0.88936 0.0
C774 C 0.2743 0.45595 0.86625 0.0
C775 C 0.27285 0.4917 0.87379 0.0
C776 C 0.33381 0.45092 0.88303 0.0
C777 C 0.30327 0.5066 0.88469 0.0
C778 C 0.39196 0.44317 0.9051 0.0
C779 C 0.4 0.37693 0.88338 0.0
N780 N 0.33235 0.48605 0.8892 0.0
N781 N 0.37033 0.39683 0.87936 0.0
H782 H 0.06294 0.43953 0.92785 0.0
H783 H 0.04569 0.25324 0.85729 0.0
H784 H 0.1368 0.40483 0.87276 0.0
H785 H 0.96063 0.30138 0.89899 0.0
H786 H 0.08276 0.30558 0.86583 0.0
H787 H 0.0291 0.38419 0.9219 0.0
C788 C 0.07233 0.42001 0.91484 0.0
C789 C 0.10238 0.42683 0.9006 0.0
C790 C 0.05589 0.30461 0.87299 0.0
C791 C 0.0639 0.36406 0.89349 0.0
C792 C 0.03467 0.27489 0.86797 0.0
C793 C -0.0 0.27288 0.87737 0.0
C794 C 0.04237 0.33223 0.88765 0.0
C795 C 0.98719 0.30166 0.8913 0.0
C796 C 0.0529 0.38866 0.91126 0.0
C797 C 0.11343 0.40076 0.88389 0.0
N798 N 0.00843 0.33 0.89612 0.0
N799 N 0.09409 0.37062 0.8807 0.0
H800 H 0.68967 0.1565 0.33992 0.0
H801 H 0.79759 0.33647 0.34521 0.0
H802 H 0.64305 0.26157 0.34812 0.0
H803 H 0.84263 0.23051 0.35147 0.0
H804 H 0.74216 0.31015 0.33009 0.0
H805 H 0.74559 0.18419 0.32741 0.0
C806 C 0.69097 0.18535 0.33861 0.0
C807 C 0.66235 0.20689 0.34607 0.0
C808 C 0.7645 0.29277 0.3343 0.0
C809 C 0.72589 0.23854 0.33198 0.0
C810 C 0.796 0.30775 0.343 0.0
C811 C 0.82399 0.28545 0.35049 0.0
C812 C 0.76127 0.25538 0.3332 0.0
C813 C 0.82103 0.24852 0.34676 0.0
C814 C 0.72284 0.20113 0.33144 0.0
C815 C 0.66507 0.24405 0.34344 0.0
N816 N 0.78993 0.23457 0.33877 0.0
N817 N 0.69663 0.25879 0.33712 0.0
H818 H 0.35793 0.6972 0.37158 0.0
H819 H 0.20435 0.83538 0.33678 0.0
H820 H 0.24896 0.66674 0.35705 0.0
H821 H 0.28263 0.85411 0.39238 0.0
H822 H 0.23389 0.77821 0.32733 0.0
H823 H 0.34235 0.7593 0.36214 0.0
C824 C 0.33098 0.70345 0.36582 0.0
C825 C 0.3044 0.67716 0.36558 0.0
C826 C 0.24518 0.79553 0.34101 0.0
C827 C 0.28692 0.74739 0.35433 0.0
C828 C 0.22854 0.828 0.34632 0.0
C829 C 0.24108 0.84883 0.36552 0.0
C830 C 0.27476 0.78465 0.35472 0.0
C831 C 0.27216 0.83832 0.37761 0.0
C832 C 0.32222 0.73874 0.36042 0.0
C833 C 0.26995 0.68651 0.35793 0.0
N834 N 0.28788 0.80665 0.37214 0.0
N835 N 0.26205 0.72107 0.3528 0.0
H836 H 0.32202 0.74634 0.15481 0.0
H837 H 0.15124 0.79019 0.18209 0.0
H838 H 0.28782 0.63676 0.14811 0.0
H839 H 0.13115 0.70336 0.13286 0.0
H840 H 0.2096 0.76359 0.19174 0.0
H841 H 0.26213 0.76291 0.16801 0.0
C842 C 0.30201 0.72568 0.15654 0.0
C843 C 0.30961 0.69028 0.14996 0.0
C844 C 0.19197 0.74989 0.17933 0.0
C845 C 0.2412 0.70888 0.16537 0.0
C846 C 0.15859 0.76472 0.17414 0.0
C847 C 0.13692 0.74886 0.15659 0.0
C848 C 0.20334 0.71934 0.16665 0.0
C849 C 0.14748 0.71625 0.14644 0.0
C850 C 0.26796 0.73503 0.16447 0.0
C851 C 0.2829 0.66445 0.15281 0.0
N852 N 0.18031 0.70274 0.15135 0.0
N853 N 0.24953 0.67444 0.15969 0.0
H854 H 0.74399 0.32806 0.14069 0.0
H855 H 0.70596 0.15077 0.16217 0.0
H856 H 0.85167 0.29232 0.1264 0.0
H857 H 0.77609 0.14147 0.10076 0.0
H858 H 0.73263 0.20909 0.17161 0.0
H859 H 0.72714 0.26636 0.14947 0.0
C860 C 0.76418 0.30727 0.13988 0.0
C861 C 0.79908 0.31498 0.13253 0.0
C862 C 0.74252 0.1938 0.15639 0.0
C863 C 0.78015 0.24492 0.1425 0.0
C864 C 0.72756 0.16065 0.15108 0.0
C865 C 0.73855 0.14198 0.13042 0.0
C866 C 0.76885 0.20762 0.14109 0.0
C867 C 0.76657 0.1556 0.11658 0.0
C868 C 0.7547 0.27225 0.14518 0.0
C869 C 0.82441 0.28731 0.1319 0.0
N870 N 0.7807 0.18784 0.1221 0.0
N871 N 0.81417 0.25319 0.13613 0.0
H872 H 0.1845 0.65077 0.65303 0.0
H873 H 0.2919 0.83196 0.65847 0.0
H874 H 0.14239 0.75517 0.63554 0.0
H875 H 0.33965 0.72682 0.65578 0.0
H876 H 0.23425 0.80459 0.6673 0.0
H877 H 0.23755 0.67924 0.67011 0.0
C878 C 0.1862 0.67966 0.65308 0.0
C879 C 0.15974 0.70066 0.6421 0.0
C880 C 0.25758 0.78761 0.6654 0.0
C881 C 0.21973 0.73317 0.66179 0.0
C882 C 0.29046 0.8032 0.66041 0.0
C883 C 0.32009 0.78143 0.65546 0.0
C884 C 0.25466 0.7502 0.66531 0.0
C885 C 0.31701 0.74442 0.65863 0.0
C886 C 0.21632 0.69585 0.66294 0.0
C887 C 0.16282 0.73796 0.64309 0.0
N888 N 0.2846 0.72984 0.66285 0.0
N889 N 0.19259 0.75303 0.65243 0.0
H890 H 0.82619 0.18746 0.65275 0.0
H891 H 0.64412 0.29202 0.64811 0.0
H892 H 0.72294 0.14015 0.63981 0.0
H893 H 0.74861 0.34019 0.64999 0.0
H894 H 0.6707 0.2356 0.66145 0.0
H895 H 0.79639 0.24116 0.66798 0.0
C896 C 0.79729 0.18814 0.65351 0.0
C897 C 0.77693 0.1601 0.64403 0.0
C898 C 0.68766 0.25878 0.65948 0.0
C899 C 0.74285 0.22109 0.66129 0.0
C900 C 0.6725 0.2909 0.65185 0.0
C901 C 0.69453 0.32014 0.64696 0.0
C902 C 0.72494 0.25618 0.66203 0.0
C903 C 0.73095 0.3177 0.65261 0.0
C904 C 0.7803 0.2187 0.66227 0.0
C905 C 0.73962 0.16186 0.64604 0.0
N906 N 0.74519 0.28598 0.65936 0.0
N907 N 0.72373 0.19222 0.65397 0.0
H908 H 0.84508 0.25849 0.84275 0.0
H909 H 0.64167 0.22892 0.85374 0.0
H910 H 0.7951 0.1548 0.84176 0.0
H911 H 0.6903 0.33272 0.84668 0.0
H912 H 0.69524 0.20154 0.83708 0.0
H913 H 0.78853 0.28563 0.83104 0.0
C914 C 0.82228 0.24137 0.83959 0.0
C915 C 0.82417 0.2046 0.84422 0.0
C916 C 0.6941 0.23037 0.83875 0.0
C917 C 0.75944 0.23542 0.8313 0.0
C918 C 0.66364 0.24597 0.84849 0.0
C919 C 0.6623 0.28295 0.85246 0.0
C920 C 0.72373 0.25184 0.83357 0.0
C921 C 0.69077 0.30397 0.84451 0.0
C922 C 0.79003 0.25685 0.8328 0.0
C923 C 0.7944 0.18343 0.83904 0.0
N924 N 0.72081 0.28799 0.83598 0.0
N925 N 0.76284 0.19931 0.83352 0.0
H926 H 0.22287 0.849 0.87917 0.0
H927 H 0.24602 0.64777 0.84825 0.0
H928 H 0.32307 0.80073 0.85811 0.0
H929 H 0.14411 0.69804 0.86185 0.0
H930 H 0.2716 0.7061 0.83989 0.0
H931 H 0.19136 0.79809 0.86227 0.0
C932 C 0.23825 0.82769 0.87088 0.0
C933 C 0.27568 0.82833 0.87083 0.0
C934 C 0.24344 0.70444 0.84415 0.0
C935 C 0.23979 0.77004 0.85144 0.0
C936 C 0.22888 0.67115 0.84898 0.0
C937 C 0.19334 0.66851 0.85661 0.0
C938 C 0.22248 0.73516 0.84767 0.0
C939 C 0.17191 0.69921 0.85657 0.0
C940 C 0.2202 0.7988 0.86098 0.0
C941 C 0.2942 0.80076 0.85908 0.0
N942 N 0.18711 0.73157 0.85288 0.0
N943 N 0.27606 0.77227 0.8503 0.0
H944 H 0.58732 0.07171 0.46719 0.0
H945 H 0.79253 0.03207 0.4985 0.0
H946 H 0.66873 0.06982 0.41207 0.0
H947 H 0.71384 0.07408 0.54793 0.0
H948 H 0.74634 0.03097 0.46661 0.0
H949 H 0.63222 0.05508 0.49694 0.0
C950 C 0.6145 0.06717 0.46122 0.0
C951 C 0.62431 0.07292 0.43713 0.0
C952 C 0.73939 0.04018 0.48453 0.0
C953 C 0.67609 0.05429 0.47131 0.0
C954 C 0.76563 0.04085 0.50264 0.0
C955 C 0.75713 0.05384 0.52571 0.0
C956 C 0.70445 0.05167 0.48989 0.0
C957 C 0.72182 0.06461 0.53026 0.0
C958 C 0.6402 0.05784 0.47827 0.0
C959 C 0.65999 0.0661 0.43049 0.0
N960 N 0.69692 0.06326 0.51258 0.0
N961 N 0.68477 0.05768 0.44758 0.0
H962 H 0.39587 0.71475 0.56149 0.0
H963 H 0.43183 0.65601 0.42704 0.0
H964 H 0.45716 0.78186 0.51387 0.0
H965 H 0.40452 0.58278 0.48414 0.0
H966 H 0.44414 0.70202 0.45739 0.0
H967 H 0.39928 0.66674 0.53227 0.0
C968 C 0.40988 0.71956 0.54473 0.0
C969 C 0.42582 0.75271 0.54001 0.0
C970 C 0.43618 0.67564 0.46323 0.0
C971 C 0.43005 0.69708 0.50622 0.0
C972 C 0.42929 0.64922 0.44594 0.0
C973 C 0.41644 0.61551 0.45298 0.0
C974 C 0.42988 0.66836 0.48767 0.0
C975 C 0.41381 0.60842 0.47775 0.0
C976 C 0.41216 0.69183 0.52811 0.0
C977 C 0.44425 0.75684 0.51814 0.0
N978 N 0.41983 0.63476 0.49411 0.0
N979 N 0.4455 0.72943 0.50185 0.0
H980 H 0.82229 0.41964 0.41593 0.0
H981 H 0.77462 0.40543 0.55425 0.0
H982 H 0.90083 0.40843 0.4725 0.0
H983 H 0.70076 0.45455 0.50443 0.0
H984 H 0.82025 0.40564 0.5233 0.0
H985 H 0.77711 0.43385 0.44656 0.0
C986 C 0.83029 0.42093 0.43468 0.0
C987 C 0.86544 0.41225 0.44162 0.0
C988 C 0.79419 0.41658 0.51903 0.0
C989 C 0.81368 0.42787 0.47667 0.0
C990 C 0.76788 0.41615 0.53668 0.0
C991 C 0.73357 0.42961 0.53187 0.0
C992 C 0.78631 0.43003 0.49604 0.0
C993 C 0.72681 0.44376 0.50885 0.0
C994 C 0.8044 0.42893 0.45215 0.0
C995 C 0.8741 0.41443 0.46622 0.0
N996 N 0.75286 0.44319 0.49162 0.0
N997 N 0.84834 0.42144 0.48279 0.0
H998 H 0.10496 0.68879 0.51338 0.0
H999 H 0.03848 0.86392 0.44957 0.0
H1000 H -0.00243 0.72711 0.52444 0.0
H1001 H 0.12505 0.79859 0.42292 0.0
H1002 H 0.01918 0.81357 0.47498 0.0
H1003 H 0.1103 0.72775 0.4784 0.0
C1004 C 0.08226 0.70501 0.50806 0.0
C1005 C 0.05079 0.70475 0.5216 0.0
C1006 C 0.04186 0.81009 0.4631 0.0
C1007 C 0.05693 0.75044 0.48208 0.0
C1008 C 0.05274 0.83872 0.44855 0.0
C1009 C 0.08373 0.83552 0.4345 0.0
C1010 C 0.06234 0.77844 0.46351 0.0
C1011 C 0.1014 0.8024 0.43388 0.0
C1012 C 0.08523 0.7273 0.48811 0.0
C1013 C 0.02215 0.72643 0.51418 0.0
N1014 N 0.09081 0.77544 0.44843 0.0
N1015 N 0.02612 0.74906 0.49514 0.0
H1016 H 0.30562 0.88563 0.99946 0.0
H1017 H 0.12993 0.94839 0.06552 0.0
H1018 H 0.26043 0.98996 0.98693 0.0
H1019 H 0.19551 0.85997 0.08885 0.0
H1020 H 0.17945 0.96879 0.03983 0.0
H1021 H 0.26844 0.87965 0.03529 0.0
C1022 C 0.28836 0.90764 0.0047 0.0
C1023 C 0.2861 0.93835 0.99048 0.0
C1024 C 0.18318 0.94539 0.05102 0.0
C1025 C 0.24226 0.93133 0.03088 0.0
C1026 C 0.155 0.93386 0.06572 0.0
C1027 C 0.15847 0.9021 0.07893 0.0
C1028 C 0.21473 0.92486 0.04964 0.0
C1029 C 0.19145 0.8842 0.07854 0.0
C1030 C 0.26701 0.90426 0.02509 0.0
C1031 C 0.26307 0.96603 0.99772 0.0
N1032 N 0.21801 0.89552 0.0639 0.0
N1033 N 0.2414 0.96159 0.01722 0.0
H1034 H 0.61342 0.18116 0.07735 0.0
H1035 H 0.53966 0.21482 0.94883 0.0
H1036 H 0.54758 0.10298 0.04174 0.0
H1037 H 0.55553 0.30317 0.9976 0.0
H1038 H 0.54093 0.17371 0.983 0.0
H1039 H 0.59075 0.22704 0.04985 0.0
C1040 C 0.59339 0.17394 0.06411 0.0
C1041 C 0.58229 0.13834 0.06172 0.0
C1042 C 0.54351 0.2021 0.98636 0.0
C1043 C 0.55725 0.19031 0.02974 0.0
C1044 C 0.54303 0.22552 0.96687 0.0
C1045 C 0.54779 0.26228 0.97051 0.0
C1046 C 0.5499 0.2154 0.00963 0.0
C1047 C 0.55181 0.27494 0.99415 0.0
C1048 C 0.5805 0.2001 0.04843 0.0
C1049 C 0.55657 0.1302 0.04422 0.0
N1050 N 0.55356 0.25139 0.01285 0.0
N1051 N 0.54552 0.15586 0.02847 0.0
H1052 H 0.27453 0.58237 0.9465 0.0
H1053 H 0.32265 0.56202 0.0845 0.0
H1054 H 0.20342 0.52727 0.99488 0.0
H1055 H 0.40028 0.58206 0.02866 0.0
H1056 H 0.27863 0.54714 0.05331 0.0
H1057 H 0.32016 0.58243 0.97749 0.0
C1058 C 0.2684 0.57037 0.96376 0.0
C1059 C 0.23485 0.55518 0.96818 0.0
C1060 C 0.30552 0.55414 0.04798 0.0
C1061 C 0.28757 0.55507 0.00405 0.0
C1062 C 0.33076 0.56251 0.06576 0.0
C1063 C 0.36519 0.5739 0.05923 0.0
C1064 C 0.31472 0.55749 0.02355 0.0
C1065 C 0.37403 0.57395 0.03464 0.0
C1066 C 0.29472 0.57011 0.98144 0.0
C1067 C 0.22887 0.53943 0.99079 0.0
N1068 N 0.34886 0.56648 0.01777 0.0
N1069 N 0.25487 0.54019 0.00807 0.0
H1070 H 0.93413 0.33518 0.07428 0.0
H1071 H 0.89178 0.27242 0.94154 0.0
H1072 H 0.90344 0.40692 0.01693 0.0
H1073 H 0.95759 0.20754 0.98824 0.0
H1074 H 0.89546 0.32109 0.97024 0.0
H1075 H 0.94522 0.28835 0.04425 0.0
C1076 C 0.93058 0.34147 0.05537 0.0
C1077 C 0.91716 0.37502 0.04822 0.0
C1078 C 0.90926 0.29633 0.9743 0.0
C1079 C 0.92914 0.3212 0.0139 0.0
C1080 C 0.90682 0.2682 0.95799 0.0
C1081 C 0.92407 0.2355 0.96256 0.0
C1082 C 0.92863 0.29194 0.99573 0.0
C1083 C 0.94367 0.23217 0.98407 0.0
C1084 C 0.93678 0.31458 0.03826 0.0
C1085 C 0.91328 0.38147 0.02343 0.0
N1086 N 0.94512 0.25996 1.00004 0.0
N1087 N 0.91858 0.35465 0.00726 0.0
H1088 H 0.38893 0.92908 0.53866 0.0
H1089 H 0.19532 0.89727 0.49933 0.0
H1090 H 0.31057 0.90302 0.59286 0.0
H1091 H 0.24704 0.9922 0.47311 0.0
H1092 H 0.23949 0.89383 0.53205 0.0
H1093 H 0.34023 0.94863 0.51188 0.0
C1094 C 0.36164 0.9281 0.54509 0.0
C1095 C 0.35383 0.91432 0.568 0.0
C1096 C 0.24067 0.9158 0.5194 0.0
C1097 C 0.2984 0.93553 0.53737 0.0
C1098 C 0.21553 0.91778 0.50085 0.0
C1099 C 0.21743 0.9453 0.48386 0.0
C1100 C 0.26862 0.94065 0.52026 0.0
C1101 C 0.24448 0.97094 0.4862 0.0
C1102 C 0.33398 0.93928 0.52986 0.0
C1103 C 0.31792 0.91353 0.57539 0.0
N1104 N 0.26963 0.96756 0.50379 0.0
N1105 N 0.29149 0.92316 0.55991 0.0
H1106 H 0.57209 0.40243 0.52232 0.0
H1107 H 0.52855 0.19895 0.48885 0.0
H1108 H 0.56279 0.32112 0.57709 0.0
H1109 H 0.57781 0.2756 0.44144 0.0
H1110 H 0.52681 0.24504 0.52081 0.0
H1111 H 0.55722 0.35806 0.49179 0.0
C1112 C 0.56627 0.37541 0.52803 0.0
C1113 C 0.56943 0.36542 0.55232 0.0
C1114 C 0.5378 0.25157 0.50332 0.0
C1115 C 0.55282 0.31424 0.51725 0.0
C1116 C 0.53887 0.22537 0.48517 0.0
C1117 C 0.5539 0.23328 0.46262 0.0
C1118 C 0.55104 0.28596 0.49853 0.0
C1119 C 0.56662 0.26801 0.45868 0.0
C1120 C 0.55798 0.35001 0.51053 0.0
C1121 C 0.56106 0.32998 0.55856 0.0
N1122 N 0.56484 0.29294 0.47638 0.0
N1123 N 0.55366 0.30547 0.54107 0.0
H1124 H 0.20876 0.57334 0.44751 0.0
H1125 H 0.15961 0.55389 0.58395 0.0
H1126 H 0.28279 0.52393 0.49705 0.0
H1127 H 0.08073 0.56124 0.52728 0.0
H1128 H 0.20485 0.53918 0.55367 0.0
H1129 H 0.16173 0.56797 0.47737 0.0
C1130 C 0.21516 0.5615 0.46481 0.0
C1131 C 0.24987 0.54962 0.47 0.0
C1132 C 0.17746 0.54319 0.54799 0.0
C1133 C 0.19585 0.5432 0.50439 0.0
C1134 C 0.15152 0.55149 0.56526 0.0
C1135 C 0.11639 0.5597 0.55811 0.0
C1136 C 0.16818 0.54351 0.52347 0.0
C1137 C 0.10754 0.55583 0.53365 0.0
C1138 C 0.18814 0.55802 0.48176 0.0
C1139 C 0.2564 0.53369 0.49248 0.0
N1140 N 0.13341 0.54878 0.51719 0.0
N1141 N 0.22969 0.53145 0.50909 0.0
H1142 H 0.92269 0.08554 0.5249 0.0
H1143 H 0.95555 0.29146 0.49304 0.0
H1144 H 0.91574 0.16932 0.57841 0.0
H1145 H 0.93095 0.20815 0.44184 0.0
H1146 H 0.95576 0.24628 0.52547 0.0
H1147 H 0.94248 0.12938 0.49547 0.0
C1148 C 0.92589 0.11305 0.53061 0.0
C1149 C 0.91681 0.12382 0.55407 0.0
C1150 C 0.95072 0.23803 0.50705 0.0
C1151 C 0.93899 0.17439 0.52023 0.0
C1152 C 0.95063 0.2637 0.48863 0.0
C1153 C 0.94255 0.25352 0.46489 0.0
C1154 C 0.94343 0.20209 0.50141 0.0
C1155 C 0.93655 0.21725 0.46 0.0
C1156 C 0.93707 0.13814 0.51374 0.0
C1157 C 0.92204 0.15985 0.56044 0.0
N1158 N 0.93701 0.19297 0.47806 0.0
N1159 N 0.93222 0.18402 0.54349 0.0
H1160 H 0.89137 0.05724 0.96447 0.0
H1161 H 0.6931 0.07237 0.99919 0.0
H1162 H 0.81275 0.07817 0.90923 0.0
H1163 H 0.75604 0.98771 0.03052 0.0
H1164 H 0.73711 0.07756 0.96665 0.0
H1165 H 0.84378 0.03363 0.99035 0.0
C1166 C 0.86429 0.05632 0.95764 0.0
C1167 C 0.85602 0.06989 0.93472 0.0
C1168 C 0.74082 0.05724 0.98032 0.0
C1169 C 0.80168 0.04378 0.9643 0.0
C1170 C 0.71572 0.05423 0.99877 0.0
C1171 C 0.72088 0.02928 0.01723 0.0
C1172 C 0.77192 0.03617 0.98097 0.0
C1173 C 0.75096 0.00685 0.01629 0.0
C1174 C 0.83723 0.04276 0.97235 0.0
C1175 C 0.82041 0.06802 0.92676 0.0
N1176 N 0.77591 0.01139 0.99874 0.0
N1177 N 0.79444 0.05598 0.94173 0.0
H1178 H 0.42778 0.82365 0.92643 0.0
H1179 H 0.41613 0.78268 0.0647 0.0
H1180 H 0.42603 0.9058 0.98128 0.0
H1181 H 0.45759 0.70393 0.015 0.0
H1182 H 0.42129 0.828 0.03364 0.0
H1183 H 0.44281 0.77962 0.95738 0.0
C1184 C 0.43145 0.83267 0.94484 0.0
C1185 C 0.42476 0.86844 0.95132 0.0
C1186 C 0.42957 0.80092 0.02947 0.0
C1187 C 0.44133 0.81804 0.98677 0.0
C1188 C 0.42623 0.77489 0.04714 0.0
C1189 C 0.4359 0.73937 0.04227 0.0
C1190 C 0.44203 0.79139 0.00648 0.0
C1191 C 0.44958 0.731 0.01937 0.0
C1192 C 0.43994 0.80743 0.9625 0.0
C1193 C 0.43027 0.8785 0.97543 0.0
N1194 N 0.45172 0.75678 0.00211 0.0
N1195 N 0.43748 0.85331 0.99233 0.0
H1196 H 0.7907 0.46062 1.00013 0.0
H1197 H 0.58471 0.42657 0.96916 0.0
H1198 H 0.70981 0.42895 0.05101 0.0
H1199 H 0.66722 0.42097 0.9149 0.0
H1200 H 0.62923 0.44537 0.99856 0.0
H1201 H 0.74473 0.46172 0.96812 0.0
C1202 C 0.76329 0.45429 0.00456 0.0
C1203 C 0.75403 0.44403 0.02805 0.0
C1204 C 0.63753 0.44051 0.98013 0.0
C1205 C 0.70169 0.44606 0.99207 0.0
C1206 C 0.61206 0.42992 0.96328 0.0
C1207 C 0.6223 0.42142 0.93961 0.0
C1208 C 0.67361 0.4425 0.97338 0.0
C1209 C 0.65816 0.42682 0.93302 0.0
C1210 C 0.73718 0.4549 0.98639 0.0
C1211 C 0.71819 0.43626 0.033 0.0
N1212 N 0.6827 0.43644 0.94994 0.0
N1213 N 0.69343 0.43739 0.0152 0.0
H1214 H 0.02297 0.78472 0.01045 0.0
H1215 H 0.08189 0.58444 0.97966 0.0
H1216 H 0.09447 0.72028 0.05352 0.0
H1217 H 0.05687 0.65971 0.92309 0.0
H1218 H 0.06925 0.63067 0.00947 0.0
H1219 H 0.02134 0.73635 0.98016 0.0
C1220 C 0.03838 0.76059 0.01349 0.0
C1221 C 0.0592 0.75672 0.03443 0.0
C1222 C 0.06604 0.63689 0.99052 0.0
C1223 C 0.0564 0.70129 1.00052 0.0
C1224 C 0.07298 0.61041 0.97345 0.0
C1225 C 0.07122 0.61833 0.94875 0.0
C1226 C 0.05707 0.67152 0.98293 0.0
C1227 C 0.05907 0.6525 0.94193 0.0
C1228 C 0.03729 0.73306 0.99631 0.0
C1229 C 0.07841 0.72476 0.03756 0.0
N1230 N 0.05292 0.67809 0.95894 0.0
N1231 N 0.07635 0.69831 0.02091 0.0
loop_
_geom_bond_atom_site_label_1
_geom_bond_atom_site_label_2
_geom_bond_distance
_geom_bond_site_symmetry_2
_ccdc_geom_bond_type
O0 Zn1 1.953 . S
O0 C16 1.225 . S
Zn1 O0 1.953 . S
Zn1 O2 1.949 . S
Zn1 O8 1.919 . S
Zn1 O13 1.924 . S
O2 Zn1 1.949 . S
O2 Zn3 1.923 . S
O2 Zn4 1.950 . S
O2 Zn5 1.945 . S
Zn3 O2 1.923 . S
Zn3 O6 1.933 . S
Zn3 O9 1.941 . S
Zn3 O10 1.965 . S
Zn4 O2 1.950 . S
Zn4 O11 1.938 . S
Zn4 O12 1.906 . S
Zn4 O22 1.953 . S
Zn5 O2 1.945 . S
Zn5 O7 1.932 . S
Zn5 O14 1.977 . S
Zn5 O15 1.910 . S
O6 Zn3 1.933 . S
O6 C17 1.226 . S
O7 Zn5 1.932 . S
O7 C17 1.307 . S
O8 Zn1 1.919 . S
O8 C19 1.253 . S
O9 Zn3 1.941 . S
O9 C19 1.283 . S
O10 Zn3 1.965 . S
O10 C18 1.303 . S
O11 Zn4 1.938 . S
O11 C18 1.247 . S
O12 Zn4 1.906 . S
O12 C20 1.304 . S
O13 Zn1 1.924 . S
O13 C21 1.311 . S
O14 Zn5 1.977 . S
O14 C20 1.272 . S
O15 Zn5 1.910 . S
O15 C21 1.231 . S
C16 O0 1.225 . S
C16 O22 1.298 . S
C17 O6 1.226 . S
C17 O7 1.307 . S
C18 O10 1.303 . S
C18 O11 1.247 . S
C19 O8 1.253 . S
C19 O9 1.283 . S
C20 O12 1.304 . S
C20 O14 1.272 . S
C21 O13 1.311 . S
C21 O15 1.231 . S
O22 Zn4 1.953 . S
O22 C16 1.298 . S
O23 Zn24 1.953 . S
O23 C39 1.225 . S
Zn24 O23 1.953 . S
Zn24 O25 1.949 . S
Zn24 O31 1.919 . S
Zn24 O36 1.924 . S
O25 Zn24 1.949 . S
O25 Zn26 1.923 . S
O25 Zn27 1.950 . S
O25 Zn28 1.945 . S
Zn26 O25 1.923 . S
Zn26 O29 1.933 . S
Zn26 O32 1.941 . S
Zn26 O33 1.965 . S
Zn27 O25 1.950 . S
Zn27 O34 1.938 . S
Zn27 O35 1.906 . S
Zn27 O45 1.953 . S
Zn28 O25 1.945 . S
Zn28 O30 1.932 . S
Zn28 O37 1.977 . S
Zn28 O38 1.910 . S
O29 Zn26 1.933 . S
O29 C40 1.226 . S
O30 Zn28 1.932 . S
O30 C40 1.307 . S
O31 Zn24 1.919 . S
O31 C42 1.253 . S
O32 Zn26 1.941 . S
O32 C42 1.283 . S
O33 Zn26 1.965 . S
O33 C41 1.303 . S
O34 Zn27 1.938 . S
O34 C41 1.247 . S
O35 Zn27 1.906 . S
O35 C43 1.304 . S
O36 Zn24 1.924 . S
O36 C44 1.311 . S
O37 Zn28 1.977 . S
O37 C43 1.272 . S
O38 Zn28 1.910 . S
O38 C44 1.231 . S
C39 O23 1.225 . S
C39 O45 1.298 . S
C40 O29 1.226 . S
C40 O30 1.307 . S
C41 O33 1.303 . S
C41 O34 1.247 . S
C42 O31 1.253 . S
C42 O32 1.283 . S
C43 O35 1.304 . S
C43 O37 1.272 . S
C44 O36 1.311 . S
C44 O38 1.231 . S
O45 Zn27 1.953 . S
O45 C39 1.298 . S
O46 Zn47 1.953 . S
O46 C62 1.225 . S
Zn47 O46 1.953 . S
Zn47 O48 1.949 . S
Zn47 O54 1.919 . S
Zn47 O59 1.924 . S
O48 Zn47 1.949 . S
O48 Zn49 1.923 . S
O48 Zn50 1.950 . S
O48 Zn51 1.945 . S
Zn49 O48 1.923 . S
Zn49 O52 1.933 . S
Zn49 O55 1.941 . S
Zn49 O56 1.965 . S
Zn50 O48 1.950 . S
Zn50 O57 1.938 . S
Zn50 O58 1.907 1_655 S
Zn50 O68 1.953 . S
Zn51 O48 1.945 . S
Zn51 O53 1.932 . S
Zn51 O60 1.977 1_655 S
Zn51 O61 1.910 . S
O52 Zn49 1.933 . S
O52 C63 1.226 . S
O53 Zn51 1.932 . S
O53 C63 1.307 . S
O54 Zn47 1.919 . S
O54 C65 1.253 . S
O55 Zn49 1.941 . S
O55 C65 1.283 . S
O56 Zn49 1.965 . S
O56 C64 1.303 . S
O57 Zn50 1.938 . S
O57 C64 1.247 . S
O58 Zn50 1.907 1_455 S
O58 C66 1.303 . S
O59 Zn47 1.924 . S
O59 C67 1.311 . S
O60 Zn51 1.977 1_455 S
O60 C66 1.272 . S
O61 Zn51 1.910 . S
O61 C67 1.231 . S
C62 O46 1.225 . S
C62 O68 1.298 . S
C63 O52 1.226 . S
C63 O53 1.307 . S
C64 O56 1.303 . S
C64 O57 1.247 . S
C65 O54 1.253 . S
C65 O55 1.283 . S
C66 O58 1.303 . S
C66 O60 1.272 . S
C67 O59 1.311 . S
C67 O61 1.231 . S
O68 Zn50 1.953 . S
O68 C62 1.298 . S
O69 Zn70 1.953 . S
O69 C85 1.225 . S
Zn70 O69 1.953 . S
Zn70 O71 1.949 . S
Zn70 O77 1.919 . S
Zn70 O82 1.924 . S
O71 Zn70 1.949 . S
O71 Zn72 1.923 . S
O71 Zn73 1.950 . S
O71 Zn74 1.945 . S
Zn72 O71 1.923 . S
Zn72 O75 1.933 . S
Zn72 O78 1.941 1_565 S
Zn72 O79 1.965 1_565 S
Zn73 O71 1.950 . S
Zn73 O80 1.938 . S
Zn73 O81 1.906 . S
Zn73 O91 1.953 . S
Zn74 O71 1.945 . S
Zn74 O76 1.932 . S
Zn74 O83 1.977 . S
Zn74 O84 1.910 . S
O75 Zn72 1.933 . S
O75 C86 1.226 . S
O76 Zn74 1.932 . S
O76 C86 1.307 . S
O77 Zn70 1.919 . S
O77 C88 1.253 . S
O78 Zn72 1.941 1_545 S
O78 C88 1.283 1_545 S
O79 Zn72 1.965 1_545 S
O79 C87 1.303 . S
O80 Zn73 1.938 . S
O80 C87 1.247 1_565 S
O81 Zn73 1.906 . S
O81 C89 1.304 . S
O82 Zn70 1.924 . S
O82 C90 1.311 . S
O83 Zn74 1.977 . S
O83 C89 1.272 . S
O84 Zn74 1.910 . S
O84 C90 1.231 . S
C85 O69 1.225 . S
C85 O91 1.298 . S
C86 O75 1.226 . S
C86 O76 1.307 . S
C87 O79 1.303 . S
C87 O80 1.247 1_545 S
C88 O77 1.253 . S
C88 O78 1.283 1_565 S
C89 O81 1.304 . S
C89 O83 1.272 . S
C90 O82 1.311 . S
C90 O84 1.231 . S
O91 Zn73 1.953 . S
O91 C85 1.298 . S
O92 Zn93 1.953 . S
O92 C108 1.225 . S
Zn93 O92 1.953 . S
Zn93 O94 1.949 . S
Zn93 O100 1.919 . S
Zn93 O105 1.924 . S
O94 Zn93 1.949 . S
O94 Zn95 1.923 . S
O94 Zn96 1.950 . S
O94 Zn97 1.945 . S
Zn95 O94 1.923 . S
Zn95 O98 1.933 . S
Zn95 O101 1.941 1_455 S
Zn95 O102 1.965 1_455 S
Zn96 O94 1.950 . S
Zn96 O103 1.938 . S
Zn96 O104 1.906 . S
Zn96 O114 1.953 . S
Zn97 O94 1.945 . S
Zn97 O99 1.932 . S
Zn97 O106 1.977 . S
Zn97 O107 1.910 . S
O98 Zn95 1.933 . S
O98 C109 1.226 . S
O99 Zn97 1.932 . S
O99 C109 1.307 . S
O100 Zn93 1.919 . S
O100 C111 1.253 . S
O101 Zn95 1.941 1_655 S
O101 C111 1.283 1_655 S
O102 Zn95 1.965 1_655 S
O102 C110 1.303 . S
O103 Zn96 1.938 . S
O103 C110 1.247 1_455 S
O104 Zn96 1.906 . S
O104 C112 1.304 . S
O105 Zn93 1.924 . S
O105 C113 1.311 . S
O106 Zn97 1.977 . S
O106 C112 1.272 . S
O107 Zn97 1.910 . S
O107 C113 1.231 . S
C108 O92 1.225 . S
C108 O114 1.298 . S
C109 O98 1.226 . S
C109 O99 1.307 . S
C110 O102 1.303 . S
C110 O103 1.247 1_655 S
C111 O100 1.253 . S
C111 O101 1.283 1_455 S
C112 O104 1.304 . S
C112 O106 1.272 . S
C113 O105 1.311 . S
C113 O107 1.231 . S
O114 Zn96 1.953 . S
O114 C108 1.298 . S
O115 Zn116 1.953 . S
O115 C131 1.225 . S
Zn116 O115 1.953 . S
Zn116 O117 1.949 . S
Zn116 O123 1.919 . S
Zn116 O128 1.924 . S
O117 Zn116 1.949 . S
O117 Zn118 1.923 . S
O117 Zn119 1.950 . S
O117 Zn120 1.945 . S
Zn118 O117 1.923 . S
Zn118 O121 1.933 . S
Zn118 O124 1.941 1_545 S
Zn118 O125 1.965 1_545 S
Zn119 O117 1.950 . S
Zn119 O126 1.938 . S
Zn119 O127 1.906 . S
Zn119 O137 1.953 . S
Zn120 O117 1.945 . S
Zn120 O122 1.932 . S
Zn120 O129 1.977 . S
Zn120 O130 1.910 . S
O121 Zn118 1.933 . S
O121 C132 1.226 . S
O122 Zn120 1.932 . S
O122 C132 1.307 . S
O123 Zn116 1.919 . S
O123 C134 1.253 . S
O124 Zn118 1.941 1_565 S
O124 C134 1.283 1_565 S
O125 Zn118 1.965 1_565 S
O125 C133 1.303 . S
O126 Zn119 1.938 . S
O126 C133 1.247 1_545 S
O127 Zn119 1.906 . S
O127 C135 1.304 . S
O128 Zn116 1.924 . S
O128 C136 1.311 . S
O129 Zn120 1.977 . S
O129 C135 1.272 . S
O130 Zn120 1.910 . S
O130 C136 1.231 . S
C131 O115 1.225 . S
C131 O137 1.298 . S
C132 O121 1.226 . S
C132 O122 1.307 . S
C133 O125 1.303 . S
C133 O126 1.247 1_565 S
C134 O123 1.253 . S
C134 O124 1.283 1_545 S
C135 O127 1.304 . S
C135 O129 1.272 . S
C136 O128 1.311 . S
C136 O130 1.231 . S
O137 Zn119 1.953 . S
O137 C131 1.298 . S
O138 Zn139 1.953 . S
O138 C154 1.225 . S
Zn139 O138 1.953 . S
Zn139 O140 1.949 . S
Zn139 O146 1.919 . S
Zn139 O151 1.924 . S
O140 Zn139 1.949 . S
O140 Zn141 1.923 . S
O140 Zn142 1.950 . S
O140 Zn143 1.945 . S
Zn141 O140 1.923 . S
Zn141 O144 1.933 . S
Zn141 O147 1.941 . S
Zn141 O148 1.965 . S
Zn142 O140 1.950 . S
Zn142 O149 1.938 . S
Zn142 O150 1.906 . S
Zn142 O160 1.953 . S
Zn143 O140 1.945 . S
Zn143 O145 1.932 . S
Zn143 O152 1.977 . S
Zn143 O153 1.910 . S
O144 Zn141 1.933 . S
O144 C155 1.226 . S
O145 Zn143 1.932 . S
O145 C155 1.307 . S
O146 Zn139 1.919 . S
O146 C157 1.253 . S
O147 Zn141 1.941 . S
O147 C157 1.283 . S
O148 Zn141 1.965 . S
O148 C156 1.303 . S
O149 Zn142 1.938 . S
O149 C156 1.247 . S
O150 Zn142 1.906 . S
O150 C158 1.304 . S
O151 Zn139 1.924 . S
O151 C159 1.311 . S
O152 Zn143 1.977 . S
O152 C158 1.272 . S
O153 Zn143 1.910 . S
O153 C159 1.231 . S
C154 O138 1.225 . S
C154 O160 1.298 . S
C155 O144 1.226 . S
C155 O145 1.307 . S
C156 O148 1.303 . S
C156 O149 1.247 . S
C157 O146 1.253 . S
C157 O147 1.283 . S
C158 O150 1.304 . S
C158 O152 1.272 . S
C159 O151 1.311 . S
C159 O153 1.231 . S
O160 Zn142 1.953 . S
O160 C154 1.298 . S
O161 Zn162 1.953 . S
O161 C177 1.225 . S
Zn162 O161 1.953 . S
Zn162 O163 1.949 . S
Zn162 O169 1.919 . S
Zn162 O174 1.924 . S
O163 Zn162 1.949 . S
O163 Zn164 1.923 . S
O163 Zn165 1.950 . S
O163 Zn166 1.945 . S
Zn164 O163 1.923 . S
Zn164 O167 1.933 . S
Zn164 O170 1.941 . S
Zn164 O171 1.965 . S
Zn165 O163 1.950 . S
Zn165 O172 1.938 . S
Zn165 O173 1.906 . S
Zn165 O183 1.953 . S
Zn166 O163 1.945 . S
Zn166 O168 1.932 . S
Zn166 O175 1.977 . S
Zn166 O176 1.910 . S
O167 Zn164 1.933 . S
O167 C178 1.226 . S
O168 Zn166 1.932 . S
O168 C178 1.307 . S
O169 Zn162 1.919 . S
O169 C180 1.253 . S
O170 Zn164 1.941 . S
O170 C180 1.283 . S
O171 Zn164 1.965 . S
O171 C179 1.303 . S
O172 Zn165 1.938 . S
O172 C179 1.247 . S
O173 Zn165 1.906 . S
O173 C181 1.304 . S
O174 Zn162 1.924 . S
O174 C182 1.311 . S
O175 Zn166 1.977 . S
O175 C181 1.272 . S
O176 Zn166 1.910 . S
O176 C182 1.231 . S
C177 O161 1.225 . S
C177 O183 1.298 . S
C178 O167 1.226 . S
C178 O168 1.307 . S
C179 O171 1.303 . S
C179 O172 1.247 . S
C180 O169 1.253 . S
C180 O170 1.283 . S
C181 O173 1.304 . S
C181 O175 1.272 . S
C182 O174 1.311 . S
C182 O176 1.231 . S
O183 Zn165 1.953 . S
O183 C177 1.298 . S
O184 Zn185 1.953 . S
O184 C200 1.225 . S
Zn185 O184 1.953 . S
Zn185 O186 1.949 . S
Zn185 O192 1.919 . S
Zn185 O197 1.924 . S
O186 Zn185 1.949 . S
O186 Zn187 1.923 . S
O186 Zn188 1.950 . S
O186 Zn189 1.945 . S
Zn187 O186 1.923 . S
Zn187 O190 1.933 . S
Zn187 O193 1.941 . S
Zn187 O194 1.965 . S
Zn188 O186 1.950 . S
Zn188 O195 1.938 . S
Zn188 O196 1.906 . S
Zn188 O206 1.953 . S
Zn189 O186 1.945 . S
Zn189 O191 1.932 . S
Zn189 O198 1.977 . S
Zn189 O199 1.910 . S
O190 Zn187 1.933 . S
O190 C201 1.226 . S
O191 Zn189 1.932 . S
O191 C201 1.307 . S
O192 Zn185 1.919 . S
O192 C203 1.253 . S
O193 Zn187 1.941 . S
O193 C203 1.283 . S
O194 Zn187 1.965 . S
O194 C202 1.303 . S
O195 Zn188 1.938 . S
O195 C202 1.247 . S
O196 Zn188 1.906 . S
O196 C204 1.304 . S
O197 Zn185 1.924 . S
O197 C205 1.311 . S
O198 Zn189 1.977 . S
O198 C204 1.272 . S
O199 Zn189 1.910 . S
O199 C205 1.231 . S
C200 O184 1.225 . S
C200 O206 1.298 . S
C201 O190 1.226 . S
C201 O191 1.307 . S
C202 O194 1.303 . S
C202 O195 1.247 . S
C203 O192 1.253 . S
C203 O193 1.283 . S
C204 O196 1.304 . S
C204 O198 1.272 . S
C205 O197 1.311 . S
C205 O199 1.231 . S
O206 Zn188 1.953 . S
O206 C200 1.298 . S
O207 Zn208 1.953 . S
O207 C223 1.225 . S
Zn208 O207 1.953 . S
Zn208 O209 1.949 . S
Zn208 O215 1.919 . S
Zn208 O220 1.924 . S
O209 Zn208 1.949 . S
O209 Zn210 1.923 . S
O209 Zn211 1.950 . S
O209 Zn212 1.945 . S
Zn210 O209 1.923 . S
Zn210 O213 1.933 . S
Zn210 O216 1.941 . S
Zn210 O217 1.965 . S
Zn211 O209 1.950 . S
Zn211 O218 1.938 . S
Zn211 O219 1.906 . S
Zn211 O229 1.953 . S
Zn212 O209 1.945 . S
Zn212 O214 1.932 . S
Zn212 O221 1.977 . S
Zn212 O222 1.910 . S
O213 Zn210 1.933 . S
O213 C224 1.226 . S
O214 Zn212 1.932 . S
O214 C224 1.307 . S
O215 Zn208 1.919 . S
O215 C226 1.253 . S
O216 Zn210 1.941 . S
O216 C226 1.283 . S
O217 Zn210 1.965 . S
O217 C225 1.303 . S
O218 Zn211 1.938 . S
O218 C225 1.247 . S
O219 Zn211 1.906 . S
O219 C227 1.304 . S
O220 Zn208 1.924 . S
O220 C228 1.311 . S
O221 Zn212 1.977 . S
O221 C227 1.272 . S
O222 Zn212 1.910 . S
O222 C228 1.231 . S
C223 O207 1.225 . S
C223 O229 1.298 . S
C224 O213 1.226 . S
C224 O214 1.307 . S
C225 O217 1.303 . S
C225 O218 1.247 . S
C226 O215 1.253 . S
C226 O216 1.283 . S
C227 O219 1.304 . S
C227 O221 1.272 . S
C228 O220 1.311 . S
C228 O222 1.231 . S
O229 Zn211 1.953 . S
O229 C223 1.298 . S
O230 Zn231 1.953 . S
O230 C246 1.225 . S
Zn231 O230 1.953 . S
Zn231 O232 1.949 . S
Zn231 O238 1.919 . S
Zn231 O243 1.924 . S
O232 Zn231 1.949 . S
O232 Zn233 1.923 . S
O232 Zn234 1.950 . S
O232 Zn235 1.945 . S
Zn233 O232 1.923 . S
Zn233 O236 1.933 . S
Zn233 O239 1.941 . S
Zn233 O240 1.965 . S
Zn234 O232 1.950 . S
Zn234 O241 1.938 . S
Zn234 O242 1.912 . S
Zn234 O252 1.953 . S
Zn235 O232 1.945 . S
Zn235 O237 1.932 . S
Zn235 O244 1.977 1_455 S
Zn235 O245 1.910 . S
O236 Zn233 1.933 . S
O236 C247 1.226 . S
O237 Zn235 1.932 . S
O237 C247 1.307 . S
O238 Zn231 1.919 . S
O238 C249 1.253 . S
O239 Zn233 1.941 . S
O239 C249 1.283 . S
O240 Zn233 1.965 . S
O240 C248 1.303 . S
O241 Zn234 1.938 . S
O241 C248 1.247 . S
O242 Zn234 1.912 . S
O242 C250 1.300 1_455 S
O243 Zn231 1.924 . S
O243 C251 1.311 . S
O244 Zn235 1.977 1_655 S
O244 C250 1.272 . S
O245 Zn235 1.910 . S
O245 C251 1.231 . S
C246 O230 1.225 . S
C246 O252 1.298 . S
C247 O236 1.226 . S
C247 O237 1.307 . S
C248 O240 1.303 . S
C248 O241 1.247 . S
C249 O238 1.253 . S
C249 O239 1.283 . S
C250 O242 1.300 1_655 S
C250 O244 1.272 . S
C251 O243 1.311 . S
C251 O245 1.231 . S
O252 Zn234 1.953 . S
O252 C246 1.298 . S
O253 Zn254 1.953 . S
O253 C269 1.225 . S
Zn254 O253 1.953 . S
Zn254 O255 1.949 . S
Zn254 O261 1.919 . S
Zn254 O266 1.924 . S
O255 Zn254 1.949 . S
O255 Zn256 1.923 . S
O255 Zn257 1.950 . S
O255 Zn258 1.945 . S
Zn256 O255 1.923 . S
Zn256 O259 1.933 . S
Zn256 O262 1.941 . S
Zn256 O263 1.965 . S
Zn257 O255 1.950 . S
Zn257 O264 1.938 . S
Zn257 O265 1.920 . S
Zn257 O275 1.953 . S
Zn258 O255 1.945 . S
Zn258 O260 1.932 . S
Zn258 O267 1.977 1_545 S
Zn258 O268 1.910 . S
O259 Zn256 1.933 . S
O259 C270 1.226 . S
O260 Zn258 1.932 . S
O260 C270 1.307 . S
O261 Zn254 1.919 . S
O261 C272 1.253 . S
O262 Zn256 1.941 . S
O262 C272 1.283 . S
O263 Zn256 1.965 . S
O263 C271 1.303 . S
O264 Zn257 1.938 . S
O264 C271 1.247 . S
O265 Zn257 1.920 . S
O265 C273 1.295 1_545 S
O266 Zn254 1.924 . S
O266 C274 1.311 . S
O267 Zn258 1.977 1_565 S
O267 C273 1.272 . S
O268 Zn258 1.910 . S
O268 C274 1.231 . S
C269 O253 1.225 . S
C269 O275 1.298 . S
C270 O259 1.226 . S
C270 O260 1.307 . S
C271 O263 1.303 . S
C271 O264 1.247 . S
C272 O261 1.253 . S
C272 O262 1.283 . S
C273 O265 1.295 1_565 S
C273 O267 1.272 . S
C274 O266 1.311 . S
C274 O268 1.231 . S
O275 Zn257 1.953 . S
O275 C269 1.298 . S
O276 Zn277 1.953 . S
O276 C292 1.225 . S
Zn277 O276 1.953 . S
Zn277 O278 1.949 . S
Zn277 O284 1.919 . S
Zn277 O289 1.924 . S
O278 Zn277 1.949 . S
O278 Zn279 1.923 . S
O278 Zn280 1.950 . S
O278 Zn281 1.945 . S
Zn279 O278 1.923 . S
Zn279 O282 1.933 . S
Zn279 O285 1.941 . S
Zn279 O286 1.965 . S
Zn280 O278 1.950 . S
Zn280 O287 1.938 . S
Zn280 O288 1.906 1_655 S
Zn280 O298 1.953 . S
Zn281 O278 1.945 . S
Zn281 O283 1.932 . S
Zn281 O290 1.977 1_655 S
Zn281 O291 1.910 . S
O282 Zn279 1.933 . S
O282 C293 1.226 . S
O283 Zn281 1.932 . S
O283 C293 1.307 . S
O284 Zn277 1.919 . S
O284 C295 1.253 . S
O285 Zn279 1.941 . S
O285 C295 1.283 . S
O286 Zn279 1.965 . S
O286 C294 1.303 . S
O287 Zn280 1.938 . S
O287 C294 1.247 . S
O288 Zn280 1.906 1_455 S
O288 C296 1.304 . S
O289 Zn277 1.924 . S
O289 C297 1.311 . S
O290 Zn281 1.977 1_455 S
O290 C296 1.272 . S
O291 Zn281 1.910 . S
O291 C297 1.231 . S
C292 O276 1.225 . S
C292 O298 1.298 . S
C293 O282 1.226 . S
C293 O283 1.307 . S
C294 O286 1.303 . S
C294 O287 1.247 . S
C295 O284 1.253 . S
C295 O285 1.283 . S
C296 O288 1.304 . S
C296 O290 1.272 . S
C297 O289 1.311 . S
C297 O291 1.231 . S
O298 Zn280 1.953 . S
O298 C292 1.298 . S
O299 Zn300 1.953 . S
O299 C315 1.225 . S
Zn300 O299 1.953 . S
Zn300 O301 1.949 . S
Zn300 O307 1.919 . S
Zn300 O312 1.924 . S
O301 Zn300 1.949 . S
O301 Zn302 1.923 . S
O301 Zn303 1.950 . S
O301 Zn304 1.945 . S
Zn302 O301 1.923 . S
Zn302 O305 1.933 . S
Zn302 O308 1.941 . S
Zn302 O309 1.965 . S
Zn303 O301 1.950 . S
Zn303 O310 1.938 . S
Zn303 O311 1.914 . S
Zn303 O321 1.953 . S
Zn304 O301 1.945 . S
Zn304 O306 1.932 . S
Zn304 O313 1.977 1_565 S
Zn304 O314 1.910 . S
O305 Zn302 1.933 . S
O305 C316 1.226 . S
O306 Zn304 1.932 . S
O306 C316 1.307 . S
O307 Zn300 1.919 . S
O307 C318 1.253 . S
O308 Zn302 1.941 . S
O308 C318 1.283 . S
O309 Zn302 1.965 . S
O309 C317 1.303 . S
O310 Zn303 1.938 . S
O310 C317 1.247 . S
O311 Zn303 1.914 . S
O311 C319 1.299 1_565 S
O312 Zn300 1.924 . S
O312 C320 1.311 . S
O313 Zn304 1.977 1_545 S
O313 C319 1.272 . S
O314 Zn304 1.910 . S
O314 C320 1.231 . S
C315 O299 1.225 . S
C315 O321 1.298 . S
C316 O305 1.226 . S
C316 O306 1.307 . S
C317 O309 1.303 . S
C317 O310 1.247 . S
C318 O307 1.253 . S
C318 O308 1.283 . S
C319 O311 1.299 1_545 S
C319 O313 1.272 . S
C320 O312 1.311 . S
C320 O314 1.231 . S
O321 Zn303 1.953 . S
O321 C315 1.298 . S
O322 Zn323 1.953 . S
O322 C338 1.225 . S
Zn323 O322 1.953 . S
Zn323 O324 1.949 . S
Zn323 O330 1.919 . S
Zn323 O335 1.924 . S
O324 Zn323 1.949 . S
O324 Zn325 1.923 . S
O324 Zn326 1.950 . S
O324 Zn327 1.945 . S
Zn325 O324 1.923 . S
Zn325 O328 1.933 . S
Zn325 O331 1.941 . S
Zn325 O332 1.965 . S
Zn326 O324 1.950 . S
Zn326 O333 1.938 . S
Zn326 O334 1.906 . S
Zn326 O344 1.953 . S
Zn327 O324 1.945 . S
Zn327 O329 1.932 . S
Zn327 O336 1.977 . S
Zn327 O337 1.910 . S
O328 Zn325 1.933 . S
O328 C339 1.226 . S
O329 Zn327 1.932 . S
O329 C339 1.307 . S
O330 Zn323 1.919 . S
O330 C341 1.253 . S
O331 Zn325 1.941 . S
O331 C341 1.283 . S
O332 Zn325 1.965 . S
O332 C340 1.303 . S
O333 Zn326 1.938 . S
O333 C340 1.247 . S
O334 Zn326 1.906 . S
O334 C342 1.304 . S
O335 Zn323 1.924 . S
O335 C343 1.311 . S
O336 Zn327 1.977 . S
O336 C342 1.272 . S
O337 Zn327 1.910 . S
O337 C343 1.231 . S
C338 O322 1.225 . S
C338 O344 1.298 . S
C339 O328 1.226 . S
C339 O329 1.307 . S
C340 O332 1.303 . S
C340 O333 1.247 . S
C341 O330 1.253 . S
C341 O331 1.283 . S
C342 O334 1.304 . S
C342 O336 1.272 . S
C343 O335 1.311 . S
C343 O337 1.231 . S
O344 Zn326 1.953 . S
O344 C338 1.298 . S
O345 Zn346 1.953 . S
O345 C361 1.225 . S
Zn346 O345 1.953 . S
Zn346 O347 1.949 . S
Zn346 O353 1.919 . S
Zn346 O358 1.924 . S
O347 Zn346 1.949 . S
O347 Zn348 1.923 . S
O347 Zn349 1.950 . S
O347 Zn350 1.945 . S
Zn348 O347 1.923 . S
Zn348 O351 1.933 . S
Zn348 O354 1.941 . S
Zn348 O355 1.965 . S
Zn349 O347 1.950 . S
Zn349 O356 1.938 . S
Zn349 O357 1.906 . S
Zn349 O367 1.953 . S
Zn350 O347 1.945 . S
Zn350 O352 1.932 . S
Zn350 O359 1.977 . S
Zn350 O360 1.910 . S
O351 Zn348 1.933 . S
O351 C362 1.226 . S
O352 Zn350 1.932 . S
O352 C362 1.307 . S
O353 Zn346 1.919 . S
O353 C364 1.253 . S
O354 Zn348 1.941 . S
O354 C364 1.283 . S
O355 Zn348 1.965 . S
O355 C363 1.303 . S
O356 Zn349 1.938 . S
O356 C363 1.247 . S
O357 Zn349 1.906 . S
O357 C365 1.304 . S
O358 Zn346 1.924 . S
O358 C366 1.311 . S
O359 Zn350 1.977 . S
O359 C365 1.272 . S
O360 Zn350 1.910 . S
O360 C366 1.231 . S
C361 O345 1.225 . S
C361 O367 1.298 . S
C362 O351 1.226 . S
C362 O352 1.307 . S
C363 O355 1.303 . S
C363 O356 1.247 . S
C364 O353 1.253 . S
C364 O354 1.283 . S
C365 O357 1.304 . S
C365 O359 1.272 . S
C366 O358 1.311 . S
C366 O360 1.231 . S
O367 Zn349 1.953 . S
O367 C361 1.298 . S
H368 C374 0.930 . S
H369 C378 0.930 . S
H370 C383 0.929 . S
H371 C381 0.929 . S
H372 C376 0.929 . S
H373 C382 0.929 . S
C374 H368 0.930 . S
C374 C375 1.367 . S
C374 C382 1.378 . S
C375 C374 1.367 . S
C375 C383 1.433 . S
C376 H372 0.929 . S
C376 C378 1.378 . S
C376 C380 1.350 . S
C377 C380 1.463 . S
C377 C382 1.350 . S
C377 N385 1.427 . S
C378 H369 0.930 . S
C378 C376 1.378 . S
C378 C379 1.367 . S
C379 C378 1.367 . S
C379 C381 1.433 . S
C380 C376 1.350 . S
C380 C377 1.463 . S
C380 N384 1.427 . S
C381 H371 0.929 . S
C381 C379 1.433 . S
C381 N384 1.384 . S
C382 H373 0.929 . S
C382 C374 1.378 . S
C382 C377 1.350 . S
C383 H370 0.929 . S
C383 C375 1.433 . S
C383 N385 1.384 . S
N384 C380 1.427 . S
N384 C381 1.384 . S
N385 C377 1.427 . S
N385 C383 1.384 . S
H386 C392 0.930 . S
H387 C396 0.930 . S
H388 C401 0.929 . S
H389 C399 0.929 . S
H390 C394 0.929 . S
H391 C400 0.929 . S
C392 H386 0.930 . S
C392 C393 1.367 . S
C392 C400 1.378 . S
C393 C392 1.367 . S
C393 C401 1.433 . S
C394 H390 0.929 . S
C394 C396 1.378 . S
C394 C398 1.350 . S
C395 C398 1.463 . S
C395 C400 1.350 . S
C395 N403 1.427 . S
C396 H387 0.930 . S
C396 C394 1.378 . S
C396 C397 1.367 . S
C397 C396 1.367 . S
C397 C399 1.433 . S
C398 C394 1.350 . S
C398 C395 1.463 . S
C398 N402 1.427 . S
C399 H389 0.929 . S
C399 C397 1.433 . S
C399 N402 1.384 . S
C400 H391 0.929 . S
C400 C392 1.378 . S
C400 C395 1.350 . S
C401 H388 0.929 . S
C401 C393 1.433 . S
C401 N403 1.384 . S
N402 C398 1.427 . S
N402 C399 1.384 . S
N403 C395 1.427 . S
N403 C401 1.384 . S
H404 C410 0.930 . S
H405 C414 0.930 . S
H406 C419 0.929 . S
H407 C417 0.929 . S
H408 C412 0.929 . S
H409 C418 0.929 . S
C410 H404 0.930 . S
C410 C411 1.367 . S
C410 C418 1.378 . S
C411 C410 1.367 . S
C411 C419 1.433 . S
C412 H408 0.929 . S
C412 C414 1.378 . S
C412 C416 1.350 . S
C413 C416 1.463 . S
C413 C418 1.350 . S
C413 N421 1.427 . S
C414 H405 0.930 . S
C414 C412 1.378 . S
C414 C415 1.367 . S
C415 C414 1.367 . S
C415 C417 1.433 . S
C416 C412 1.350 . S
C416 C413 1.463 . S
C416 N420 1.427 . S
C417 H407 0.929 . S
C417 C415 1.433 . S
C417 N420 1.384 . S
C418 H409 0.929 . S
C418 C410 1.378 . S
C418 C413 1.350 . S
C419 H406 0.929 . S
C419 C411 1.433 . S
C419 N421 1.384 . S
N420 C416 1.427 . S
N420 C417 1.384 . S
N421 C413 1.427 . S
N421 C419 1.384 . S
H422 C428 0.930 . S
H423 C432 0.930 . S
H424 C437 0.929 . S
H425 C435 0.929 . S
H426 C430 0.929 . S
H427 C436 0.929 . S
C428 H422 0.930 . S
C428 C429 1.367 . S
C428 C436 1.378 . S
C429 C428 1.367 . S
C429 C437 1.433 . S
C430 H426 0.929 . S
C430 C432 1.378 . S
C430 C434 1.350 . S
C431 C434 1.463 . S
C431 C436 1.350 . S
C431 N439 1.427 . S
C432 H423 0.930 . S
C432 C430 1.378 . S
C432 C433 1.367 . S
C433 C432 1.367 . S
C433 C435 1.433 . S
C434 C430 1.350 . S
C434 C431 1.463 . S
C434 N438 1.427 . S
C435 H425 0.929 . S
C435 C433 1.433 . S
C435 N438 1.384 . S
C436 H427 0.929 . S
C436 C428 1.378 . S
C436 C431 1.350 . S
C437 H424 0.929 . S
C437 C429 1.433 . S
C437 N439 1.384 . S
N438 C434 1.427 . S
N438 C435 1.384 . S
N439 C431 1.427 . S
N439 C437 1.384 . S
H440 C446 0.930 . S
H441 C450 0.930 . S
H442 C455 0.929 . S
H443 C453 0.929 . S
H444 C448 0.929 . S
H445 C454 0.929 . S
C446 H440 0.930 . S
C446 C447 1.367 . S
C446 C454 1.378 . S
C447 C446 1.367 . S
C447 C455 1.433 . S
C448 H444 0.929 . S
C448 C450 1.378 . S
C448 C452 1.350 . S
C449 C452 1.463 . S
C449 C454 1.350 . S
C449 N457 1.427 . S
C450 H441 0.930 . S
C450 C448 1.378 . S
C450 C451 1.367 . S
C451 C450 1.367 . S
C451 C453 1.433 . S
C452 C448 1.350 . S
C452 C449 1.463 . S
C452 N456 1.427 . S
C453 H443 0.929 . S
C453 C451 1.433 . S
C453 N456 1.384 . S
C454 H445 0.929 . S
C454 C446 1.378 . S
C454 C449 1.350 . S
C455 H442 0.929 . S
C455 C447 1.433 . S
C455 N457 1.384 . S
N456 C452 1.427 . S
N456 C453 1.384 . S
N457 C449 1.427 . S
N457 C455 1.384 . S
H458 C464 0.930 . S
H459 C468 0.930 . S
H460 C473 0.929 . S
H461 C471 0.929 . S
H462 C466 0.929 . S
H463 C472 0.929 . S
C464 H458 0.930 . S
C464 C465 1.367 . S
C464 C472 1.378 . S
C465 C464 1.367 . S
C465 C473 1.433 . S
C466 H462 0.929 . S
C466 C468 1.378 . S
C466 C470 1.350 . S
C467 C470 1.463 . S
C467 C472 1.350 . S
C467 N475 1.427 . S
C468 H459 0.930 . S
C468 C466 1.378 . S
C468 C469 1.367 . S
C469 C468 1.367 . S
C469 C471 1.433 . S
C470 C466 1.350 . S
C470 C467 1.463 . S
C470 N474 1.427 . S
C471 H461 0.929 . S
C471 C469 1.433 . S
C471 N474 1.384 . S
C472 H463 0.929 . S
C472 C464 1.378 . S
C472 C467 1.350 . S
C473 H460 0.929 . S
C473 C465 1.433 . S
C473 N475 1.384 . S
N474 C470 1.427 . S
N474 C471 1.384 . S
N475 C467 1.427 . S
N475 C473 1.384 . S
H476 C482 0.930 . S
H477 C486 0.930 . S
H478 C491 0.929 . S
H479 C489 0.929 . S
H480 C484 0.929 . S
H481 C490 0.929 . S
C482 H476 0.930 . S
C482 C483 1.367 . S
C482 C490 1.378 . S
C483 C482 1.367 . S
C483 C491 1.433 . S
C484 H480 0.929 . S
C484 C486 1.378 . S
C484 C488 1.350 . S
C485 C488 1.463 . S
C485 C490 1.350 . S
C485 N493 1.427 . S
C486 H477 0.930 . S
C486 C484 1.378 . S
C486 C487 1.367 . S
C487 C486 1.367 . S
C487 C489 1.433 . S
C488 C484 1.350 . S
C488 C485 1.463 . S
C488 N492 1.427 . S
C489 H479 0.929 . S
C489 C487 1.433 . S
C489 N492 1.384 . S
C490 H481 0.929 . S
C490 C482 1.378 . S
C490 C485 1.350 . S
C491 H478 0.929 . S
C491 C483 1.433 . S
C491 N493 1.384 . S
N492 C488 1.427 . S
N492 C489 1.384 . S
N493 C485 1.427 . S
N493 C491 1.384 . S
H494 C500 0.930 . S
H495 C504 0.930 . S
H496 C509 0.929 . S
H497 C507 0.929 . S
H498 C502 0.929 . S
H499 C508 0.929 . S
C500 H494 0.930 . S
C500 C501 1.367 . S
C500 C508 1.378 . S
C501 C500 1.367 . S
C501 C509 1.433 . S
C502 H498 0.929 . S
C502 C504 1.378 . S
C502 C506 1.350 . S
C503 C506 1.463 . S
C503 C508 1.350 . S
C503 N511 1.427 . S
C504 H495 0.930 . S
C504 C502 1.378 . S
C504 C505 1.367 . S
C505 C504 1.367 . S
C505 C507 1.433 . S
C506 C502 1.350 . S
C506 C503 1.463 . S
C506 N510 1.427 . S
C507 H497 0.929 . S
C507 C505 1.433 . S
C507 N510 1.384 . S
C508 H499 0.929 . S
C508 C500 1.378 . S
C508 C503 1.350 . S
C509 H496 0.929 . S
C509 C501 1.433 . S
C509 N511 1.384 . S
N510 C506 1.427 . S
N510 C507 1.384 . S
N511 C503 1.427 . S
N511 C509 1.384 . S
H512 C518 0.930 . S
H513 C522 0.930 . S
H514 C527 0.929 . S
H515 C525 0.929 . S
H516 C520 0.929 . S
H517 C526 0.929 . S
C518 H512 0.930 . S
C518 C519 1.367 . S
C518 C526 1.378 . S
C519 C518 1.367 . S
C519 C527 1.433 . S
C520 H516 0.929 . S
C520 C522 1.378 . S
C520 C524 1.350 . S
C521 C524 1.463 . S
C521 C526 1.350 . S
C521 N529 1.427 . S
C522 H513 0.930 . S
C522 C520 1.378 . S
C522 C523 1.367 . S
C523 C522 1.367 . S
C523 C525 1.433 . S
C524 C520 1.350 . S
C524 C521 1.463 . S
C524 N528 1.427 . S
C525 H515 0.929 . S
C525 C523 1.433 . S
C525 N528 1.384 . S
C526 H517 0.929 . S
C526 C518 1.378 . S
C526 C521 1.350 . S
C527 H514 0.929 . S
C527 C519 1.433 . S
C527 N529 1.384 . S
N528 C524 1.427 . S
N528 C525 1.384 . S
N529 C521 1.427 . S
N529 C527 1.384 . S
H530 C536 0.930 . S
H531 C540 0.930 . S
H532 C545 0.929 . S
H533 C543 0.929 . S
H534 C538 0.929 . S
H535 C544 0.929 . S
C536 H530 0.930 . S
C536 C537 1.367 . S
C536 C544 1.378 . S
C537 C536 1.367 . S
C537 C545 1.433 . S
C538 H534 0.929 . S
C538 C540 1.378 . S
C538 C542 1.350 . S
C539 C542 1.463 . S
C539 C544 1.350 . S
C539 N547 1.427 . S
C540 H531 0.930 . S
C540 C538 1.378 . S
C540 C541 1.367 . S
C541 C540 1.367 . S
C541 C543 1.433 . S
C542 C538 1.350 . S
C542 C539 1.463 . S
C542 N546 1.427 . S
C543 H533 0.929 . S
C543 C541 1.433 . S
C543 N546 1.384 . S
C544 H535 0.929 . S
C544 C536 1.378 . S
C544 C539 1.350 . S
C545 H532 0.929 . S
C545 C537 1.433 . S
C545 N547 1.384 . S
N546 C542 1.427 . S
N546 C543 1.384 . S
N547 C539 1.427 . S
N547 C545 1.384 . S
H548 C554 0.930 . S
H549 C558 0.930 . S
H550 C563 0.929 . S
H551 C561 0.929 . S
H552 C556 0.929 . S
H553 C562 0.929 . S
C554 H548 0.930 . S
C554 C555 1.367 . S
C554 C562 1.378 . S
C555 C554 1.367 . S
C555 C563 1.433 . S
C556 H552 0.929 . S
C556 C558 1.378 . S
C556 C560 1.350 . S
C557 C560 1.463 . S
C557 C562 1.350 . S
C557 N565 1.427 . S
C558 H549 0.930 . S
C558 C556 1.378 . S
C558 C559 1.367 . S
C559 C558 1.367 . S
C559 C561 1.433 . S
C560 C556 1.350 . S
C560 C557 1.463 . S
C560 N564 1.427 . S
C561 H551 0.929 . S
C561 C559 1.433 . S
C561 N564 1.384 . S
C562 H553 0.929 . S
C562 C554 1.378 . S
C562 C557 1.350 . S
C563 H550 0.929 . S
C563 C555 1.433 . S
C563 N565 1.384 . S
N564 C560 1.427 . S
N564 C561 1.384 . S
N565 C557 1.427 . S
N565 C563 1.384 . S
H566 C572 0.930 . S
H567 C576 0.930 . S
H568 C581 0.929 . S
H569 C579 0.929 . S
H570 C574 0.929 . S
H571 C580 0.929 . S
C572 H566 0.930 . S
C572 C573 1.367 . S
C572 C580 1.378 . S
C573 C572 1.367 . S
C573 C581 1.433 . S
C574 H570 0.929 . S
C574 C576 1.378 . S
C574 C578 1.350 . S
C575 C578 1.463 . S
C575 C580 1.350 . S
C575 N583 1.427 . S
C576 H567 0.930 . S
C576 C574 1.378 . S
C576 C577 1.367 . S
C577 C576 1.367 . S
C577 C579 1.433 . S
C578 C574 1.350 . S
C578 C575 1.463 . S
C578 N582 1.427 . S
C579 H569 0.929 . S
C579 C577 1.433 . S
C579 N582 1.384 . S
C580 H571 0.929 . S
C580 C572 1.378 . S
C580 C575 1.350 . S
C581 H568 0.929 . S
C581 C573 1.433 . S
C581 N583 1.384 . S
N582 C578 1.427 . S
N582 C579 1.384 . S
N583 C575 1.427 . S
N583 C581 1.384 . S
H584 C590 0.930 . S
H585 C594 0.930 . S
H586 C599 0.929 . S
H587 C597 0.918 1_545 S
H588 C592 0.929 . S
H589 C598 0.929 . S
C590 H584 0.930 . S
C590 C591 1.367 . S
C590 C598 1.378 . S
C591 C590 1.367 . S
C591 C599 1.433 . S
C592 H588 0.929 . S
C592 C594 1.378 . S
C592 C596 1.350 . S
C593 C596 1.463 . S
C593 C598 1.350 . S
C593 N601 1.427 . S
C594 H585 0.930 . S
C594 C592 1.378 . S
C594 C595 1.367 . S
C595 C594 1.367 . S
C595 C597 1.433 . S
C596 C592 1.350 . S
C596 C593 1.463 . S
C596 N600 1.427 . S
C597 H587 0.918 1_565 S
C597 C595 1.433 . S
C597 N600 1.384 . S
C598 H589 0.929 . S
C598 C590 1.378 . S
C598 C593 1.350 . S
C599 H586 0.929 . S
C599 C591 1.433 . S
C599 N601 1.384 . S
N600 C596 1.427 . S
N600 C597 1.384 . S
N601 C593 1.427 . S
N601 C599 1.384 . S
H602 C608 0.930 . S
H603 C612 0.930 . S
H604 C617 0.929 . S
H605 C615 0.929 . S
H606 C610 0.929 . S
H607 C616 0.929 . S
C608 H602 0.930 . S
C608 C609 1.367 . S
C608 C616 1.378 . S
C609 C608 1.367 . S
C609 C617 1.433 . S
C610 H606 0.929 . S
C610 C612 1.378 . S
C610 C614 1.350 . S
C611 C614 1.463 . S
C611 C616 1.350 . S
C611 N619 1.427 . S
C612 H603 0.930 . S
C612 C610 1.378 . S
C612 C613 1.367 . S
C613 C612 1.367 . S
C613 C615 1.433 . S
C614 C610 1.350 . S
C614 C611 1.463 . S
C614 N618 1.427 . S
C615 H605 0.929 . S
C615 C613 1.433 . S
C615 N618 1.384 . S
C616 H607 0.929 . S
C616 C608 1.378 . S
C616 C611 1.350 . S
C617 H604 0.929 . S
C617 C609 1.433 . S
C617 N619 1.384 . S
N618 C614 1.427 . S
N618 C615 1.384 . S
N619 C611 1.427 . S
N619 C617 1.384 . S
H620 C626 0.930 . S
H621 C630 0.930 . S
H622 C635 0.929 . S
H623 C633 0.929 . S
H624 C628 0.929 . S
H625 C634 0.929 . S
C626 H620 0.930 . S
C626 C627 1.367 . S
C626 C634 1.378 . S
C627 C626 1.367 . S
C627 C635 1.433 . S
C628 H624 0.929 . S
C628 C630 1.378 . S
C628 C632 1.350 . S
C629 C632 1.463 . S
C629 C634 1.350 . S
C629 N637 1.427 . S
C630 H621 0.930 . S
C630 C628 1.378 . S
C630 C631 1.367 . S
C631 C630 1.367 . S
C631 C633 1.433 . S
C632 C628 1.350 . S
C632 C629 1.463 . S
C632 N636 1.427 . S
C633 H623 0.929 . S
C633 C631 1.433 . S
C633 N636 1.384 . S
C634 H625 0.929 . S
C634 C626 1.378 . S
C634 C629 1.350 . S
C635 H622 0.929 . S
C635 C627 1.433 . S
C635 N637 1.384 . S
N636 C632 1.427 . S
N636 C633 1.384 . S
N637 C629 1.427 . S
N637 C635 1.384 . S
H638 C644 0.930 1_455 S
H639 C648 0.930 . S
H640 C653 0.929 . S
H641 C651 0.929 . S
H642 C646 0.929 . S
H643 C652 0.929 . S
C644 H638 0.930 1_655 S
C644 C645 1.367 . S
C644 C652 1.378 . S
C645 C644 1.367 . S
C645 C653 1.433 . S
C646 H642 0.929 . S
C646 C648 1.378 . S
C646 C650 1.350 . S
C647 C650 1.463 . S
C647 C652 1.350 . S
C647 N655 1.427 . S
C648 H639 0.930 . S
C648 C646 1.378 . S
C648 C649 1.367 . S
C649 C648 1.367 . S
C649 C651 1.433 . S
C650 C646 1.350 . S
C650 C647 1.463 . S
C650 N654 1.427 . S
C651 H641 0.929 . S
C651 C649 1.433 . S
C651 N654 1.384 . S
C652 H643 0.929 . S
C652 C644 1.378 . S
C652 C647 1.350 . S
C653 H640 0.929 . S
C653 C645 1.433 . S
C653 N655 1.384 . S
N654 C650 1.427 . S
N654 C651 1.384 . S
N655 C647 1.427 . S
N655 C653 1.384 . S
H656 C662 0.930 . S
H657 C666 0.930 . S
H658 C671 0.906 1_545 S
H659 C669 0.929 . S
H660 C664 0.929 . S
H661 C670 0.929 . S
C662 H656 0.930 . S
C662 C663 1.367 . S
C662 C670 1.378 . S
C663 C662 1.367 . S
C663 C671 1.439 . S
C664 H660 0.929 . S
C664 C666 1.378 . S
C664 C668 1.350 . S
C665 C668 1.463 . S
C665 C670 1.350 . S
C665 N673 1.427 . S
C666 H657 0.930 . S
C666 C664 1.378 . S
C666 C667 1.367 . S
C667 C666 1.367 . S
C667 C669 1.433 . S
C668 C664 1.350 . S
C668 C665 1.463 . S
C668 N672 1.427 . S
C669 H659 0.929 . S
C669 C667 1.433 . S
C669 N672 1.384 . S
C670 H661 0.929 . S
C670 C662 1.378 . S
C670 C665 1.350 . S
C671 H658 0.906 1_565 S
C671 C663 1.439 . S
C671 N673 1.402 . S
N672 C668 1.427 . S
N672 C669 1.384 . S
N673 C665 1.427 . S
N673 C671 1.402 . S
H674 C680 0.930 . S
H675 C684 0.930 . S
H676 C689 0.929 . S
H677 C687 0.929 . S
H678 C682 0.929 . S
H679 C688 0.929 . S
C680 H674 0.930 . S
C680 C681 1.367 . S
C680 C688 1.378 . S
C681 C680 1.367 . S
C681 C689 1.433 . S
C682 H678 0.929 . S
C682 C684 1.378 . S
C682 C686 1.350 . S
C683 C686 1.463 . S
C683 C688 1.350 . S
C683 N691 1.427 . S
C684 H675 0.930 . S
C684 C682 1.378 . S
C684 C685 1.367 . S
C685 C684 1.367 . S
C685 C687 1.433 . S
C686 C682 1.350 . S
C686 C683 1.463 . S
C686 N690 1.427 . S
C687 H677 0.929 . S
C687 C685 1.433 . S
C687 N690 1.384 . S
C688 H679 0.929 . S
C688 C680 1.378 . S
C688 C683 1.350 . S
C689 H676 0.929 . S
C689 C681 1.433 . S
C689 N691 1.384 . S
N690 C686 1.427 . S
N690 C687 1.384 . S
N691 C683 1.427 . S
N691 C689 1.384 . S
H692 C698 0.930 . S
H693 C702 0.930 . S
H694 C707 0.929 . S
H695 C705 0.929 . S
H696 C700 0.929 . S
H697 C706 0.929 . S
C698 H692 0.930 . S
C698 C699 1.367 . S
C698 C706 1.378 . S
C699 C698 1.367 . S
C699 C707 1.433 . S
C700 H696 0.929 . S
C700 C702 1.378 . S
C700 C704 1.350 . S
C701 C704 1.463 . S
C701 C706 1.350 . S
C701 N709 1.427 . S
C702 H693 0.930 . S
C702 C700 1.378 . S
C702 C703 1.367 . S
C703 C702 1.367 . S
C703 C705 1.433 . S
C704 C700 1.350 . S
C704 C701 1.463 . S
C704 N708 1.427 . S
C705 H695 0.929 . S
C705 C703 1.433 . S
C705 N708 1.384 . S
C706 H697 0.929 . S
C706 C698 1.378 . S
C706 C701 1.350 . S
C707 H694 0.929 . S
C707 C699 1.433 . S
C707 N709 1.384 . S
N708 C704 1.427 . S
N708 C705 1.384 . S
N709 C701 1.427 . S
N709 C707 1.384 . S
H710 C716 0.930 . S
H711 C720 0.930 . S
H712 C725 0.929 . S
H713 C723 0.929 1_455 S
H714 C718 0.929 . S
H715 C724 0.929 . S
C716 H710 0.930 . S
C716 C717 1.367 . S
C716 C724 1.378 . S
C717 C716 1.367 . S
C717 C725 1.433 . S
C718 H714 0.929 . S
C718 C720 1.378 . S
C718 C722 1.350 . S
C719 C722 1.463 . S
C719 C724 1.350 . S
C719 N727 1.427 . S
C720 H711 0.930 . S
C720 C718 1.378 . S
C720 C721 1.367 . S
C721 C720 1.367 . S
C721 C723 1.433 . S
C722 C718 1.350 . S
C722 C719 1.463 . S
C722 N726 1.427 . S
C723 H713 0.929 1_655 S
C723 C721 1.433 . S
C723 N726 1.384 . S
C724 H715 0.929 . S
C724 C716 1.378 . S
C724 C719 1.350 . S
C725 H712 0.929 . S
C725 C717 1.433 . S
C725 N727 1.384 . S
N726 C722 1.427 . S
N726 C723 1.384 . S
N727 C719 1.427 . S
N727 C725 1.384 . S
H728 C734 0.930 . S
H729 C738 0.930 1_565 S
H730 C743 0.929 . S
H731 C741 0.929 . S
H732 C736 0.929 . S
H733 C742 0.929 . S
C734 H728 0.930 . S
C734 C735 1.367 . S
C734 C742 1.378 . S
C735 C734 1.367 . S
C735 C743 1.433 . S
C736 H732 0.929 . S
C736 C738 1.378 . S
C736 C740 1.350 . S
C737 C740 1.463 . S
C737 C742 1.350 . S
C737 N745 1.427 . S
C738 H729 0.930 1_545 S
C738 C736 1.378 . S
C738 C739 1.367 . S
C739 C738 1.367 . S
C739 C741 1.433 . S
C740 C736 1.350 . S
C740 C737 1.463 . S
C740 N744 1.427 . S
C741 H731 0.929 . S
C741 C739 1.433 . S
C741 N744 1.384 . S
C742 H733 0.929 . S
C742 C734 1.378 . S
C742 C737 1.350 . S
C743 H730 0.929 . S
C743 C735 1.433 . S
C743 N745 1.384 . S
N744 C740 1.427 . S
N744 C741 1.384 . S
N745 C737 1.427 . S
N745 C743 1.384 . S
H746 C752 0.930 . S
H747 C756 0.930 . S
H748 C761 0.929 . S
H749 C759 0.929 . S
H750 C754 0.929 . S
H751 C760 0.929 . S
C752 H746 0.930 . S
C752 C753 1.367 . S
C752 C760 1.378 . S
C753 C752 1.367 . S
C753 C761 1.433 . S
C754 H750 0.929 . S
C754 C756 1.378 . S
C754 C758 1.350 . S
C755 C758 1.463 . S
C755 C760 1.350 . S
C755 N763 1.427 . S
C756 H747 0.930 . S
C756 C754 1.378 . S
C756 C757 1.367 . S
C757 C756 1.367 . S
C757 C759 1.433 . S
C758 C754 1.350 . S
C758 C755 1.463 . S
C758 N762 1.427 . S
C759 H749 0.929 . S
C759 C757 1.433 . S
C759 N762 1.384 . S
C760 H751 0.929 . S
C760 C752 1.378 . S
C760 C755 1.350 . S
C761 H748 0.929 . S
C761 C753 1.433 . S
C761 N763 1.384 . S
N762 C758 1.427 . S
N762 C759 1.384 . S
N763 C755 1.427 . S
N763 C761 1.384 . S
H764 C770 0.930 . S
H765 C774 0.930 . S
H766 C779 0.929 . S
H767 C777 0.929 . S
H768 C772 0.929 . S
H769 C778 0.929 . S
C770 H764 0.930 . S
C770 C771 1.367 . S
C770 C778 1.378 . S
C771 C770 1.367 . S
C771 C779 1.433 . S
C772 H768 0.929 . S
C772 C774 1.378 . S
C772 C776 1.350 . S
C773 C776 1.463 . S
C773 C778 1.350 . S
C773 N781 1.427 . S
C774 H765 0.930 . S
C774 C772 1.378 . S
C774 C775 1.367 . S
C775 C774 1.367 . S
C775 C777 1.433 . S
C776 C772 1.350 . S
C776 C773 1.463 . S
C776 N780 1.427 . S
C777 H767 0.929 . S
C777 C775 1.433 . S
C777 N780 1.384 . S
C778 H769 0.929 . S
C778 C770 1.378 . S
C778 C773 1.350 . S
C779 H766 0.929 . S
C779 C771 1.433 . S
C779 N781 1.384 . S
N780 C776 1.427 . S
N780 C777 1.384 . S
N781 C773 1.427 . S
N781 C779 1.384 . S
H782 C788 0.930 . S
H783 C792 0.930 . S
H784 C797 0.929 . S
H785 C795 0.929 . S
H786 C790 0.929 . S
H787 C796 0.929 . S
C788 H782 0.930 . S
C788 C789 1.367 . S
C788 C796 1.378 . S
C789 C788 1.367 . S
C789 C797 1.433 . S
C790 H786 0.929 . S
C790 C792 1.378 . S
C790 C794 1.350 . S
C791 C794 1.463 . S
C791 C796 1.350 . S
C791 N799 1.427 . S
C792 H783 0.930 . S
C792 C790 1.378 . S
C792 C793 1.367 . S
C793 C792 1.367 . S
C793 C795 1.433 1_455 S
C794 C790 1.350 . S
C794 C791 1.463 . S
C794 N798 1.427 . S
C795 H785 0.929 . S
C795 C793 1.433 1_655 S
C795 N798 1.384 1_655 S
C796 H787 0.929 . S
C796 C788 1.378 . S
C796 C791 1.350 . S
C797 H784 0.929 . S
C797 C789 1.433 . S
C797 N799 1.384 . S
N798 C794 1.427 . S
N798 C795 1.384 1_455 S
N799 C791 1.427 . S
N799 C797 1.384 . S
H800 C806 0.930 . S
H801 C810 0.930 . S
H802 C815 0.929 . S
H803 C813 0.929 . S
H804 C808 0.929 . S
H805 C814 0.929 . S
C806 H800 0.930 . S
C806 C807 1.367 . S
C806 C814 1.378 . S
C807 C806 1.367 . S
C807 C815 1.433 . S
C808 H804 0.929 . S
C808 C810 1.378 . S
C808 C812 1.350 . S
C809 C812 1.463 . S
C809 C814 1.350 . S
C809 N817 1.427 . S
C810 H801 0.930 . S
C810 C808 1.378 . S
C810 C811 1.367 . S
C811 C810 1.367 . S
C811 C813 1.433 . S
C812 C808 1.350 . S
C812 C809 1.463 . S
C812 N816 1.427 . S
C813 H803 0.929 . S
C813 C811 1.433 . S
C813 N816 1.384 . S
C814 H805 0.929 . S
C814 C806 1.378 . S
C814 C809 1.350 . S
C815 H802 0.929 . S
C815 C807 1.433 . S
C815 N817 1.384 . S
N816 C812 1.427 . S
N816 C813 1.384 . S
N817 C809 1.427 . S
N817 C815 1.384 . S
H818 C824 0.930 . S
H819 C828 0.930 . S
H820 C833 0.929 . S
H821 C831 0.929 . S
H822 C826 0.929 . S
H823 C832 0.929 . S
C824 H818 0.930 . S
C824 C825 1.367 . S
C824 C832 1.378 . S
C825 C824 1.367 . S
C825 C833 1.433 . S
C826 H822 0.929 . S
C826 C828 1.378 . S
C826 C830 1.350 . S
C827 C830 1.463 . S
C827 C832 1.350 . S
C827 N835 1.427 . S
C828 H819 0.930 . S
C828 C826 1.378 . S
C828 C829 1.367 . S
C829 C828 1.367 . S
C829 C831 1.433 . S
C830 C826 1.350 . S
C830 C827 1.463 . S
C830 N834 1.427 . S
C831 H821 0.929 . S
C831 C829 1.433 . S
C831 N834 1.384 . S
C832 H823 0.929 . S
C832 C824 1.378 . S
C832 C827 1.350 . S
C833 H820 0.929 . S
C833 C825 1.433 . S
C833 N835 1.384 . S
N834 C830 1.427 . S
N834 C831 1.384 . S
N835 C827 1.427 . S
N835 C833 1.384 . S
H836 C842 0.930 . S
H837 C846 0.930 . S
H838 C851 0.929 . S
H839 C849 0.929 . S
H840 C844 0.929 . S
H841 C850 0.929 . S
C842 H836 0.930 . S
C842 C843 1.367 . S
C842 C850 1.378 . S
C843 C842 1.367 . S
C843 C851 1.433 . S
C844 H840 0.929 . S
C844 C846 1.378 . S
C844 C848 1.350 . S
C845 C848 1.463 . S
C845 C850 1.350 . S
C845 N853 1.427 . S
C846 H837 0.930 . S
C846 C844 1.378 . S
C846 C847 1.367 . S
C847 C846 1.367 . S
C847 C849 1.433 . S
C848 C844 1.350 . S
C848 C845 1.463 . S
C848 N852 1.427 . S
C849 H839 0.929 . S
C849 C847 1.433 . S
C849 N852 1.384 . S
C850 H841 0.929 . S
C850 C842 1.378 . S
C850 C845 1.350 . S
C851 H838 0.929 . S
C851 C843 1.433 . S
C851 N853 1.384 . S
N852 C848 1.427 . S
N852 C849 1.384 . S
N853 C845 1.427 . S
N853 C851 1.384 . S
H854 C860 0.930 . S
H855 C864 0.930 . S
H856 C869 0.929 . S
H857 C867 0.929 . S
H858 C862 0.929 . S
H859 C868 0.929 . S
C860 H854 0.930 . S
C860 C861 1.367 . S
C860 C868 1.378 . S
C861 C860 1.367 . S
C861 C869 1.433 . S
C862 H858 0.929 . S
C862 C864 1.378 . S
C862 C866 1.350 . S
C863 C866 1.463 . S
C863 C868 1.350 . S
C863 N871 1.427 . S
C864 H855 0.930 . S
C864 C862 1.378 . S
C864 C865 1.367 . S
C865 C864 1.367 . S
C865 C867 1.433 . S
C866 C862 1.350 . S
C866 C863 1.463 . S
C866 N870 1.427 . S
C867 H857 0.929 . S
C867 C865 1.433 . S
C867 N870 1.384 . S
C868 H859 0.929 . S
C868 C860 1.378 . S
C868 C863 1.350 . S
C869 H856 0.929 . S
C869 C861 1.433 . S
C869 N871 1.384 . S
N870 C866 1.427 . S
N870 C867 1.384 . S
N871 C863 1.427 . S
N871 C869 1.384 . S
H872 C878 0.930 . S
H873 C882 0.930 . S
H874 C887 0.929 . S
H875 C885 0.929 . S
H876 C880 0.929 . S
H877 C886 0.929 . S
C878 H872 0.930 . S
C878 C879 1.367 . S
C878 C886 1.378 . S
C879 C878 1.367 . S
C879 C887 1.433 . S
C880 H876 0.929 . S
C880 C882 1.378 . S
C880 C884 1.350 . S
C881 C884 1.463 . S
C881 C886 1.350 . S
C881 N889 1.427 . S
C882 H873 0.930 . S
C882 C880 1.378 . S
C882 C883 1.367 . S
C883 C882 1.367 . S
C883 C885 1.433 . S
C884 C880 1.350 . S
C884 C881 1.463 . S
C884 N888 1.427 . S
C885 H875 0.929 . S
C885 C883 1.433 . S
C885 N888 1.384 . S
C886 H877 0.929 . S
C886 C878 1.378 . S
C886 C881 1.350 . S
C887 H874 0.929 . S
C887 C879 1.433 . S
C887 N889 1.384 . S
N888 C884 1.427 . S
N888 C885 1.384 . S
N889 C881 1.427 . S
N889 C887 1.384 . S
H890 C896 0.930 . S
H891 C900 0.930 . S
H892 C905 0.929 . S
H893 C903 0.929 . S
H894 C898 0.929 . S
H895 C904 0.929 . S
C896 H890 0.930 . S
C896 C897 1.367 . S
C896 C904 1.378 . S
C897 C896 1.367 . S
C897 C905 1.433 . S
C898 H894 0.929 . S
C898 C900 1.378 . S
C898 C902 1.350 . S
C899 C902 1.463 . S
C899 C904 1.350 . S
C899 N907 1.427 . S
C900 H891 0.930 . S
C900 C898 1.378 . S
C900 C901 1.367 . S
C901 C900 1.367 . S
C901 C903 1.433 . S
C902 C898 1.350 . S
C902 C899 1.463 . S
C902 N906 1.427 . S
C903 H893 0.929 . S
C903 C901 1.433 . S
C903 N906 1.384 . S
C904 H895 0.929 . S
C904 C896 1.378 . S
C904 C899 1.350 . S
C905 H892 0.929 . S
C905 C897 1.433 . S
C905 N907 1.384 . S
N906 C902 1.427 . S
N906 C903 1.384 . S
N907 C899 1.427 . S
N907 C905 1.384 . S
H908 C914 0.930 . S
H909 C918 0.930 . S
H910 C923 0.929 . S
H911 C921 0.929 . S
H912 C916 0.929 . S
H913 C922 0.929 . S
C914 H908 0.930 . S
C914 C915 1.367 . S
C914 C922 1.378 . S
C915 C914 1.367 . S
C915 C923 1.433 . S
C916 H912 0.929 . S
C916 C918 1.378 . S
C916 C920 1.350 . S
C917 C920 1.463 . S
C917 C922 1.350 . S
C917 N925 1.427 . S
C918 H909 0.930 . S
C918 C916 1.378 . S
C918 C919 1.367 . S
C919 C918 1.367 . S
C919 C921 1.433 . S
C920 C916 1.350 . S
C920 C917 1.463 . S
C920 N924 1.427 . S
C921 H911 0.929 . S
C921 C919 1.433 . S
C921 N924 1.384 . S
C922 H913 0.929 . S
C922 C914 1.378 . S
C922 C917 1.350 . S
C923 H910 0.929 . S
C923 C915 1.433 . S
C923 N925 1.384 . S
N924 C920 1.427 . S
N924 C921 1.384 . S
N925 C917 1.427 . S
N925 C923 1.384 . S
H926 C932 0.930 . S
H927 C936 0.930 . S
H928 C941 0.929 . S
H929 C939 0.929 . S
H930 C934 0.929 . S
H931 C940 0.929 . S
C932 H926 0.930 . S
C932 C933 1.367 . S
C932 C940 1.378 . S
C933 C932 1.367 . S
C933 C941 1.433 . S
C934 H930 0.929 . S
C934 C936 1.378 . S
C934 C938 1.350 . S
C935 C938 1.463 . S
C935 C940 1.350 . S
C935 N943 1.427 . S
C936 H927 0.930 . S
C936 C934 1.378 . S
C936 C937 1.367 . S
C937 C936 1.367 . S
C937 C939 1.433 . S
C938 C934 1.350 . S
C938 C935 1.463 . S
C938 N942 1.427 . S
C939 H929 0.929 . S
C939 C937 1.433 . S
C939 N942 1.384 . S
C940 H931 0.929 . S
C940 C932 1.378 . S
C940 C935 1.350 . S
C941 H928 0.929 . S
C941 C933 1.433 . S
C941 N943 1.384 . S
N942 C938 1.427 . S
N942 C939 1.384 . S
N943 C935 1.427 . S
N943 C941 1.384 . S
H944 C950 0.930 . S
H945 C954 0.930 . S
H946 C959 0.929 . S
H947 C957 0.929 . S
H948 C952 0.929 . S
H949 C958 0.929 . S
C950 H944 0.930 . S
C950 C951 1.367 . S
C950 C958 1.378 . S
C951 C950 1.367 . S
C951 C959 1.433 . S
C952 H948 0.929 . S
C952 C954 1.378 . S
C952 C956 1.350 . S
C953 C956 1.463 . S
C953 C958 1.350 . S
C953 N961 1.427 . S
C954 H945 0.930 . S
C954 C952 1.378 . S
C954 C955 1.367 . S
C955 C954 1.367 . S
C955 C957 1.433 . S
C956 C952 1.350 . S
C956 C953 1.463 . S
C956 N960 1.427 . S
C957 H947 0.929 . S
C957 C955 1.433 . S
C957 N960 1.384 . S
C958 H949 0.929 . S
C958 C950 1.378 . S
C958 C953 1.350 . S
C959 H946 0.929 . S
C959 C951 1.433 . S
C959 N961 1.384 . S
N960 C956 1.427 . S
N960 C957 1.384 . S
N961 C953 1.427 . S
N961 C959 1.384 . S
H962 C968 0.930 . S
H963 C972 0.930 . S
H964 C977 0.929 . S
H965 C975 0.929 . S
H966 C970 0.929 . S
H967 C976 0.929 . S
C968 H962 0.930 . S
C968 C969 1.367 . S
C968 C976 1.378 . S
C969 C968 1.367 . S
C969 C977 1.433 . S
C970 H966 0.929 . S
C970 C972 1.378 . S
C970 C974 1.350 . S
C971 C974 1.463 . S
C971 C976 1.350 . S
C971 N979 1.427 . S
C972 H963 0.930 . S
C972 C970 1.378 . S
C972 C973 1.367 . S
C973 C972 1.367 . S
C973 C975 1.433 . S
C974 C970 1.350 . S
C974 C971 1.463 . S
C974 N978 1.427 . S
C975 H965 0.929 . S
C975 C973 1.433 . S
C975 N978 1.384 . S
C976 H967 0.929 . S
C976 C968 1.378 . S
C976 C971 1.350 . S
C977 H964 0.929 . S
C977 C969 1.433 . S
C977 N979 1.384 . S
N978 C974 1.427 . S
N978 C975 1.384 . S
N979 C971 1.427 . S
N979 C977 1.384 . S
H980 C986 0.930 . S
H981 C990 0.930 . S
H982 C995 0.929 . S
H983 C993 0.929 . S
H984 C988 0.929 . S
H985 C994 0.929 . S
C986 H980 0.930 . S
C986 C987 1.367 . S
C986 C994 1.378 . S
C987 C986 1.367 . S
C987 C995 1.433 . S
C988 H984 0.929 . S
C988 C990 1.378 . S
C988 C992 1.350 . S
C989 C992 1.463 . S
C989 C994 1.350 . S
C989 N997 1.427 . S
C990 H981 0.930 . S
C990 C988 1.378 . S
C990 C991 1.367 . S
C991 C990 1.367 . S
C991 C993 1.433 . S
C992 C988 1.350 . S
C992 C989 1.463 . S
C992 N996 1.427 . S
C993 H983 0.929 . S
C993 C991 1.433 . S
C993 N996 1.384 . S
C994 H985 0.929 . S
C994 C986 1.378 . S
C994 C989 1.350 . S
C995 H982 0.929 . S
C995 C987 1.433 . S
C995 N997 1.384 . S
N996 C992 1.427 . S
N996 C993 1.384 . S
N997 C989 1.427 . S
N997 C995 1.384 . S
H998 C1004 0.930 . S
H999 C1008 0.930 . S
H1000 C1013 0.929 . S
H1001 C1011 0.929 . S
H1002 C1006 0.929 . S
H1003 C1012 0.929 . S
C1004 H998 0.930 . S
C1004 C1005 1.367 . S
C1004 C1012 1.378 . S
C1005 C1004 1.367 . S
C1005 C1013 1.433 . S
C1006 H1002 0.929 . S
C1006 C1008 1.378 . S
C1006 C1010 1.350 . S
C1007 C1010 1.463 . S
C1007 C1012 1.350 . S
C1007 N1015 1.427 . S
C1008 H999 0.930 . S
C1008 C1006 1.378 . S
C1008 C1009 1.367 . S
C1009 C1008 1.367 . S
C1009 C1011 1.433 . S
C1010 C1006 1.350 . S
C1010 C1007 1.463 . S
C1010 N1014 1.427 . S
C1011 H1001 0.929 . S
C1011 C1009 1.433 . S
C1011 N1014 1.384 . S
C1012 H1003 0.929 . S
C1012 C1004 1.378 . S
C1012 C1007 1.350 . S
C1013 H1000 0.929 . S
C1013 C1005 1.433 . S
C1013 N1015 1.384 . S
N1014 C1010 1.427 . S
N1014 C1011 1.384 . S
N1015 C1007 1.427 . S
N1015 C1013 1.384 . S
H1016 C1022 0.930 . S
H1017 C1026 0.930 . S
H1018 C1031 0.929 . S
H1019 C1029 0.929 . S
H1020 C1024 0.929 . S
H1021 C1030 0.927 1_554 S
C1022 H1016 0.930 . S
C1022 C1023 1.367 . S
C1022 C1030 1.378 . S
C1023 C1022 1.367 . S
C1023 C1031 1.433 . S
C1024 H1020 0.929 . S
C1024 C1026 1.378 . S
C1024 C1028 1.350 . S
C1025 C1028 1.463 . S
C1025 C1030 1.350 1_554 S
C1025 N1033 1.427 1_554 S
C1026 H1017 0.930 . S
C1026 C1024 1.378 . S
C1026 C1027 1.367 . S
C1027 C1026 1.367 . S
C1027 C1029 1.433 . S
C1028 C1024 1.350 . S
C1028 C1025 1.463 . S
C1028 N1032 1.427 . S
C1029 H1019 0.929 . S
C1029 C1027 1.433 . S
C1029 N1032 1.384 . S
C1030 H1021 0.927 1_556 S
C1030 C1022 1.378 . S
C1030 C1025 1.350 1_556 S
C1031 H1018 0.929 . S
C1031 C1023 1.433 . S
C1031 N1033 1.384 . S
N1032 C1028 1.427 . S
N1032 C1029 1.384 . S
N1033 C1025 1.427 1_556 S
N1033 C1031 1.384 . S
H1034 C1040 0.930 . S
H1035 C1044 0.930 . S
H1036 C1049 0.929 . S
H1037 C1047 0.929 . S
H1038 C1042 0.929 . S
H1039 C1048 0.929 . S
C1040 H1034 0.930 . S
C1040 C1041 1.367 . S
C1040 C1048 1.378 . S
C1041 C1040 1.367 . S
C1041 C1049 1.433 . S
C1042 H1038 0.929 . S
C1042 C1044 1.378 . S
C1042 C1046 1.350 1_556 S
C1043 C1046 1.463 . S
C1043 C1048 1.350 . S
C1043 N1051 1.427 . S
C1044 H1035 0.930 . S
C1044 C1042 1.378 . S
C1044 C1045 1.367 . S
C1045 C1044 1.367 . S
C1045 C1047 1.433 . S
C1046 C1042 1.350 1_554 S
C1046 C1043 1.463 . S
C1046 N1050 1.427 . S
C1047 H1037 0.929 . S
C1047 C1045 1.433 . S
C1047 N1050 1.384 1_556 S
C1048 H1039 0.929 . S
C1048 C1040 1.378 . S
C1048 C1043 1.350 . S
C1049 H1036 0.929 . S
C1049 C1041 1.433 . S
C1049 N1051 1.384 . S
N1050 C1046 1.427 . S
N1050 C1047 1.384 1_554 S
N1051 C1043 1.427 . S
N1051 C1049 1.384 . S
H1052 C1058 0.930 . S
H1053 C1062 0.930 . S
H1054 C1067 0.929 . S
H1055 C1065 0.929 . S
H1056 C1060 0.929 . S
H1057 C1066 0.936 . S
C1058 H1052 0.930 . S
C1058 C1059 1.367 . S
C1058 C1066 1.378 . S
C1059 C1058 1.367 . S
C1059 C1067 1.433 . S
C1060 H1056 0.929 . S
C1060 C1062 1.378 . S
C1060 C1064 1.350 . S
C1061 C1064 1.463 . S
C1061 C1066 1.350 1_554 S
C1061 N1069 1.427 1_554 S
C1062 H1053 0.930 . S
C1062 C1060 1.378 . S
C1062 C1063 1.367 . S
C1063 C1062 1.367 . S
C1063 C1065 1.433 . S
C1064 C1060 1.350 . S
C1064 C1061 1.463 . S
C1064 N1068 1.427 . S
C1065 H1055 0.929 . S
C1065 C1063 1.433 . S
C1065 N1068 1.384 . S
C1066 H1057 0.936 . S
C1066 C1058 1.378 . S
C1066 C1061 1.350 1_556 S
C1067 H1054 0.929 . S
C1067 C1059 1.433 . S
C1067 N1069 1.384 . S
N1068 C1064 1.427 . S
N1068 C1065 1.384 . S
N1069 C1061 1.427 1_556 S
N1069 C1067 1.384 . S
H1070 C1076 0.930 . S
H1071 C1080 0.930 . S
H1072 C1085 0.929 . S
H1073 C1083 0.929 . S
H1074 C1078 0.929 . S
H1075 C1084 0.929 . S
C1076 H1070 0.930 . S
C1076 C1077 1.367 . S
C1076 C1084 1.378 . S
C1077 C1076 1.367 . S
C1077 C1085 1.433 . S
C1078 H1074 0.929 . S
C1078 C1080 1.378 . S
C1078 C1082 1.350 1_556 S
C1079 C1082 1.463 . S
C1079 C1084 1.350 . S
C1079 N1087 1.427 . S
C1080 H1071 0.930 . S
C1080 C1078 1.378 . S
C1080 C1081 1.367 . S
C1081 C1080 1.367 . S
C1081 C1083 1.433 . S
C1082 C1078 1.350 1_554 S
C1082 C1079 1.463 . S
C1082 N1086 1.427 . S
C1083 H1073 0.929 . S
C1083 C1081 1.433 . S
C1083 N1086 1.384 1_556 S
C1084 H1075 0.929 . S
C1084 C1076 1.378 . S
C1084 C1079 1.350 . S
C1085 H1072 0.929 . S
C1085 C1077 1.433 . S
C1085 N1087 1.384 . S
N1086 C1082 1.427 . S
N1086 C1083 1.384 1_554 S
N1087 C1079 1.427 . S
N1087 C1085 1.384 . S
H1088 C1094 0.930 . S
H1089 C1098 0.930 . S
H1090 C1103 0.929 . S
H1091 C1101 0.929 . S
H1092 C1096 0.929 . S
H1093 C1102 0.929 . S
C1094 H1088 0.930 . S
C1094 C1095 1.367 . S
C1094 C1102 1.378 . S
C1095 C1094 1.367 . S
C1095 C1103 1.433 . S
C1096 H1092 0.929 . S
C1096 C1098 1.378 . S
C1096 C1100 1.350 . S
C1097 C1100 1.463 . S
C1097 C1102 1.350 . S
C1097 N1105 1.427 . S
C1098 H1089 0.930 . S
C1098 C1096 1.378 . S
C1098 C1099 1.367 . S
C1099 C1098 1.367 . S
C1099 C1101 1.433 . S
C1100 C1096 1.350 . S
C1100 C1097 1.463 . S
C1100 N1104 1.427 . S
C1101 H1091 0.929 . S
C1101 C1099 1.433 . S
C1101 N1104 1.384 . S
C1102 H1093 0.929 . S
C1102 C1094 1.378 . S
C1102 C1097 1.350 . S
C1103 H1090 0.929 . S
C1103 C1095 1.433 . S
C1103 N1105 1.384 . S
N1104 C1100 1.427 . S
N1104 C1101 1.384 . S
N1105 C1097 1.427 . S
N1105 C1103 1.384 . S
H1106 C1112 0.930 . S
H1107 C1116 0.930 . S
H1108 C1121 0.929 . S
H1109 C1119 0.929 . S
H1110 C1114 0.929 . S
H1111 C1120 0.929 . S
C1112 H1106 0.930 . S
C1112 C1113 1.367 . S
C1112 C1120 1.378 . S
C1113 C1112 1.367 . S
C1113 C1121 1.433 . S
C1114 H1110 0.929 . S
C1114 C1116 1.378 . S
C1114 C1118 1.350 . S
C1115 C1118 1.463 . S
C1115 C1120 1.350 . S
C1115 N1123 1.427 . S
C1116 H1107 0.930 . S
C1116 C1114 1.378 . S
C1116 C1117 1.367 . S
C1117 C1116 1.367 . S
C1117 C1119 1.433 . S
C1118 C1114 1.350 . S
C1118 C1115 1.463 . S
C1118 N1122 1.427 . S
C1119 H1109 0.929 . S
C1119 C1117 1.433 . S
C1119 N1122 1.384 . S
C1120 H1111 0.929 . S
C1120 C1112 1.378 . S
C1120 C1115 1.350 . S
C1121 H1108 0.929 . S
C1121 C1113 1.433 . S
C1121 N1123 1.384 . S
N1122 C1118 1.427 . S
N1122 C1119 1.384 . S
N1123 C1115 1.427 . S
N1123 C1121 1.384 . S
H1124 C1130 0.930 . S
H1125 C1134 0.930 . S
H1126 C1139 0.929 . S
H1127 C1137 0.929 . S
H1128 C1132 0.929 . S
H1129 C1138 0.929 . S
C1130 H1124 0.930 . S
C1130 C1131 1.367 . S
C1130 C1138 1.378 . S
C1131 C1130 1.367 . S
C1131 C1139 1.433 . S
C1132 H1128 0.929 . S
C1132 C1134 1.378 . S
C1132 C1136 1.350 . S
C1133 C1136 1.463 . S
C1133 C1138 1.350 . S
C1133 N1141 1.427 . S
C1134 H1125 0.930 . S
C1134 C1132 1.378 . S
C1134 C1135 1.367 . S
C1135 C1134 1.367 . S
C1135 C1137 1.433 . S
C1136 C1132 1.350 . S
C1136 C1133 1.463 . S
C1136 N1140 1.427 . S
C1137 H1127 0.929 . S
C1137 C1135 1.433 . S
C1137 N1140 1.384 . S
C1138 H1129 0.929 . S
C1138 C1130 1.378 . S
C1138 C1133 1.350 . S
C1139 H1126 0.929 . S
C1139 C1131 1.433 . S
C1139 N1141 1.384 . S
N1140 C1136 1.427 . S
N1140 C1137 1.384 . S
N1141 C1133 1.427 . S
N1141 C1139 1.384 . S
H1142 C1148 0.930 . S
H1143 C1152 0.930 . S
H1144 C1157 0.929 . S
H1145 C1155 0.929 . S
H1146 C1150 0.929 . S
H1147 C1156 0.929 . S
C1148 H1142 0.930 . S
C1148 C1149 1.367 . S
C1148 C1156 1.378 . S
C1149 C1148 1.367 . S
C1149 C1157 1.433 . S
C1150 H1146 0.929 . S
C1150 C1152 1.378 . S
C1150 C1154 1.350 . S
C1151 C1154 1.463 . S
C1151 C1156 1.350 . S
C1151 N1159 1.427 . S
C1152 H1143 0.930 . S
C1152 C1150 1.378 . S
C1152 C1153 1.367 . S
C1153 C1152 1.367 . S
C1153 C1155 1.433 . S
C1154 C1150 1.350 . S
C1154 C1151 1.463 . S
C1154 N1158 1.427 . S
C1155 H1145 0.929 . S
C1155 C1153 1.433 . S
C1155 N1158 1.384 . S
C1156 H1147 0.929 . S
C1156 C1148 1.378 . S
C1156 C1151 1.350 . S
C1157 H1144 0.929 . S
C1157 C1149 1.433 . S
C1157 N1159 1.384 . S
N1158 C1154 1.427 . S
N1158 C1155 1.384 . S
N1159 C1151 1.427 . S
N1159 C1157 1.384 . S
H1160 C1166 0.930 . S
H1161 C1170 0.930 . S
H1162 C1175 0.929 . S
H1163 C1173 0.929 . S
H1164 C1168 0.944 . S
H1165 C1174 0.929 . S
C1166 H1160 0.930 . S
C1166 C1167 1.367 . S
C1166 C1174 1.378 . S
C1167 C1166 1.367 . S
C1167 C1175 1.433 . S
C1168 H1164 0.944 . S
C1168 C1170 1.361 1_556 S
C1168 C1172 1.352 . S
C1169 C1172 1.463 . S
C1169 C1174 1.350 . S
C1169 N1177 1.427 . S
C1170 H1161 0.930 . S
C1170 C1168 1.361 1_554 S
C1170 C1171 1.367 . S
C1171 C1170 1.367 . S
C1171 C1173 1.433 . S
C1172 C1168 1.352 . S
C1172 C1169 1.463 . S
C1172 N1176 1.427 1_556 S
C1173 H1163 0.929 . S
C1173 C1171 1.433 . S
C1173 N1176 1.384 . S
C1174 H1165 0.929 . S
C1174 C1166 1.378 . S
C1174 C1169 1.350 . S
C1175 H1162 0.929 . S
C1175 C1167 1.433 . S
C1175 N1177 1.384 . S
N1176 C1172 1.427 1_554 S
N1176 C1173 1.384 . S
N1177 C1169 1.427 . S
N1177 C1175 1.384 . S
H1178 C1184 0.930 . S
H1179 C1188 0.930 . S
H1180 C1193 0.929 . S
H1181 C1191 0.929 . S
H1182 C1186 0.929 . S
H1183 C1192 0.929 . S
C1184 H1178 0.930 . S
C1184 C1185 1.367 . S
C1184 C1192 1.378 . S
C1185 C1184 1.367 . S
C1185 C1193 1.433 . S
C1186 H1182 0.929 . S
C1186 C1188 1.378 . S
C1186 C1190 1.350 1_554 S
C1187 C1190 1.463 . S
C1187 C1192 1.350 . S
C1187 N1195 1.427 . S
C1188 H1179 0.930 . S
C1188 C1186 1.378 . S
C1188 C1189 1.367 . S
C1189 C1188 1.367 . S
C1189 C1191 1.433 . S
C1190 C1186 1.350 1_556 S
C1190 C1187 1.463 . S
C1190 N1194 1.424 1_556 S
C1191 H1181 0.929 . S
C1191 C1189 1.433 . S
C1191 N1194 1.410 . S
C1192 H1183 0.929 . S
C1192 C1184 1.378 . S
C1192 C1187 1.350 . S
C1193 H1180 0.929 . S
C1193 C1185 1.433 . S
C1193 N1195 1.384 . S
N1194 C1190 1.424 1_554 S
N1194 C1191 1.410 . S
N1195 C1187 1.427 . S
N1195 C1193 1.384 . S
H1196 C1202 0.930 . S
H1197 C1206 0.930 . S
H1198 C1211 0.929 . S
H1199 C1209 0.929 . S
H1200 C1204 0.929 . S
H1201 C1210 0.929 . S
C1202 H1196 0.930 . S
C1202 C1203 1.367 . S
C1202 C1210 1.378 . S
C1203 C1202 1.367 . S
C1203 C1211 1.433 . S
C1204 H1200 0.929 . S
C1204 C1206 1.378 . S
C1204 C1208 1.350 . S
C1205 C1208 1.463 . S
C1205 C1210 1.350 1_556 S
C1205 N1213 1.427 1_556 S
C1206 H1197 0.930 . S
C1206 C1204 1.378 . S
C1206 C1207 1.367 . S
C1207 C1206 1.367 . S
C1207 C1209 1.433 . S
C1208 C1204 1.350 . S
C1208 C1205 1.463 . S
C1208 N1212 1.427 . S
C1209 H1199 0.929 . S
C1209 C1207 1.433 . S
C1209 N1212 1.384 . S
C1210 H1201 0.929 . S
C1210 C1202 1.378 . S
C1210 C1205 1.350 1_554 S
C1211 H1198 0.929 . S
C1211 C1203 1.433 . S
C1211 N1213 1.384 . S
N1212 C1208 1.427 . S
N1212 C1209 1.384 . S
N1213 C1205 1.427 1_554 S
N1213 C1211 1.384 . S
H1214 C1220 0.930 . S
H1215 C1224 0.930 . S
H1216 C1229 0.929 . S
H1217 C1227 0.929 . S
H1218 C1222 0.929 . S
H1219 C1228 0.929 . S
C1220 H1214 0.930 . S
C1220 C1221 1.367 . S
C1220 C1228 1.378 1_554 S
C1221 C1220 1.367 . S
C1221 C1229 1.433 . S
C1222 H1218 0.929 . S
C1222 C1224 1.378 . S
C1222 C1226 1.350 . S
C1223 C1226 1.463 . S
C1223 C1228 1.350 . S
C1223 N1231 1.427 1_556 S
C1224 H1215 0.930 . S
C1224 C1222 1.378 . S
C1224 C1225 1.367 . S
C1225 C1224 1.367 . S
C1225 C1227 1.433 . S
C1226 C1222 1.350 . S
C1226 C1223 1.463 . S
C1226 N1230 1.427 . S
C1227 H1217 0.929 . S
C1227 C1225 1.433 . S
C1227 N1230 1.384 . S
C1228 H1219 0.929 . S
C1228 C1220 1.378 1_556 S
C1228 C1223 1.350 . S
C1229 H1216 0.929 . S
C1229 C1221 1.433 . S
C1229 N1231 1.384 . S
N1230 C1226 1.427 . S
N1230 C1227 1.384 . S
N1231 C1223 1.427 1_554 S
N1231 C1229 1.384 . S
C375 C17 1.702 . S
C379 C131 1.690 . S
C393 C155 1.665 . S
C397 C40 1.661 . S
C411 C63 1.672 . S
C415 C178 1.666 . S
C429 C85 1.717 . S
C433 C108 1.720 . S
C447 C316 1.697 . S
C451 C201 1.695 . S
C465 C339 1.697 . S
C469 C224 1.693 . S
C483 C247 1.694 . S
C487 C362 1.698 . S
C501 C270 1.693 . S
C505 C293 1.688 . S
C519 C20 1.551 . S
C523 C88 1.551 1_545 S
C537 C43 1.521 . S
C541 C21 1.526 . S
C555 C66 1.533 . S
C559 C44 1.537 . S
C573 C87 1.559 . S
C577 C67 1.565 1_455 S
C591 C110 1.583 . S
C595 C134 1.579 1_565 S
C609 C159 1.577 . S
C613 C133 1.562 . S
C627 C158 1.523 . S
C631 C182 1.530 . S
C645 C111 1.540 1_655 S
C649 C181 1.541 . S
C663 C274 1.533 1_565 S
C667 C204 1.527 . S
C681 C227 1.528 . S
C685 C205 1.535 . S
C699 C250 1.525 . S
C703 C228 1.533 . S
C717 C273 1.526 . S
C721 C251 1.533 1_655 S
C735 C296 1.518 . S
C739 C320 1.523 1_545 S
C753 C319 1.516 . S
C757 C343 1.522 . S
C771 C342 1.522 . S
C775 C366 1.526 . S
C789 C365 1.524 . S
C793 C297 1.530 1_455 S
C807 C19 0.593 . S
C811 C65 0.629 . S
C825 C42 0.609 . S
C829 C90 0.550 . S
C843 C157 0.584 . S
C847 C113 0.595 . S
C861 C180 0.580 . S
C865 C136 0.591 . S
C879 C249 0.621 . S
C883 C203 0.592 . S
C897 C272 0.578 . S
C901 C226 0.610 . S
C915 C295 0.628 . S
C919 C341 0.598 . S
C933 C318 0.608 . S
C937 C364 0.623 . S
C951 C18 1.222 . S
C955 C269 1.196 . S
C969 C200 1.162 . S
C973 C41 1.205 . S
C987 C64 1.223 . S
C991 C223 1.182 . S
C1005 C246 1.148 . S
C1009 C89 1.161 . S
C1023 C315 1.159 . S
C1027 C112 1.172 . S
C1041 C135 1.156 . S
C1045 C338 1.155 . S
C1059 C361 1.190 . S
C1063 C156 1.220 . S
C1077 C179 1.214 . S
C1081 C292 1.177 . S
C1095 C202 1.190 . S
C1099 C86 1.166 . S
C1113 C225 1.210 . S
C1117 C16 1.184 . S
C1131 C39 1.177 . S
C1135 C248 1.221 . S
C1149 C271 1.212 . S
C1153 C62 1.187 . S
C1167 C294 1.188 . S
C1171 C132 1.166 . S
C1185 C317 1.223 . S
C1189 C154 1.190 . S
C1203 C177 1.176 . S
C1207 C340 1.216 . S
C1221 C109 1.162 . S
C1225 C363 1.182 . S
