# Generated by pormake.
# Topology ukk, (4)-cn, num edge types: 1
# Building blocks:
#     Node 0, Type 0, BuildingBlock: QUQFOY_clean_sbu_3, # of connection points: 4
#     Node 1, Type 0, BuildingBlock: QUQFOY_clean_sbu_3, # of connection points: 4
#     Node 2, Type 0, BuildingBlock: QUQFOY_clean_sbu_3, # of connection points: 4
#     Node 3, Type 0, BuildingBlock: QUQFOY_clean_sbu_3, # of connection points: 4
#     Node 4, Type 0, BuildingBlock: QUQFOY_clean_sbu_3, # of connection points: 4
#     Node 5, Type 0, BuildingBlock: QUQFOY_clean_sbu_3, # of connection points: 4
#     Node 6, Type 0, BuildingBlock: QUQFOY_clean_sbu_3, # of connection points: 4
#     Node 7, Type 0, BuildingBlock: QUQFOY_clean_sbu_3, # of connection points: 4
#     Node 8, Type 0, BuildingBlock: QUQFOY_clean_sbu_3, # of connection points: 4
#     Node 9, Type 0, BuildingBlock: QUQFOY_clean_sbu_3, # of connection points: 4
#     Node 10, Type 0, BuildingBlock: QUQFOY_clean_sbu_3, # of connection points: 4
#     Node 11, Type 0, BuildingBlock: QUQFOY_clean_sbu_3, # of connection points: 4
#     Node 12, Type 0, BuildingBlock: QUQFOY_clean_sbu_3, # of connection points: 4
#     Node 13, Type 0, BuildingBlock: QUQFOY_clean_sbu_3, # of connection points: 4
#     Node 14, Type 0, BuildingBlock: QUQFOY_clean_sbu_3, # of connection points: 4
#     Node 15, Type 0, BuildingBlock: QUQFOY_clean_sbu_3, # of connection points: 4
#     Edge 16, Type (0, 0), BuildingBlock: KIFKEQ_clean_linker_1, # of connection points: 2
#     Edge 17, Type (0, 0), BuildingBlock: KIFKEQ_clean_linker_1, # of connection points: 2
#     Edge 18, Type (0, 0), BuildingBlock: KIFKEQ_clean_linker_1, # of connection points: 2
#     Edge 19, Type (0, 0), BuildingBlock: KIFKEQ_clean_linker_1, # of connection points: 2
#     Edge 20, Type (0, 0), BuildingBlock: KIFKEQ_clean_linker_1, # of connection points: 2
#     Edge 21, Type (0, 0), BuildingBlock: KIFKEQ_clean_linker_1, # of connection points: 2
#     Edge 22, Type (0, 0), BuildingBlock: KIFKEQ_clean_linker_1, # of connection points: 2
#     Edge 23, Type (0, 0), BuildingBlock: KIFKEQ_clean_linker_1, # of connection points: 2
#     Edge 24, Type (0, 0), BuildingBlock: KIFKEQ_clean_linker_1, # of connection points: 2
#     Edge 25, Type (0, 0), BuildingBlock: KIFKEQ_clean_linker_1, # of connection points: 2
#     Edge 26, Type (0, 0), BuildingBlock: KIFKEQ_clean_linker_1, # of connection points: 2
#     Edge 27, Type (0, 0), BuildingBlock: KIFKEQ_clean_linker_1, # of connection points: 2
#     Edge 28, Type (0, 0), BuildingBlock: KIFKEQ_clean_linker_1, # of connection points: 2
#     Edge 29, Type (0, 0), BuildingBlock: KIFKEQ_clean_linker_1, # of connection points: 2
#     Edge 30, Type (0, 0), BuildingBlock: KIFKEQ_clean_linker_1, # of connection points: 2
#     Edge 31, Type (0, 0), BuildingBlock: KIFKEQ_clean_linker_1, # of connection points: 2
#     Edge 32, Type (0, 0), BuildingBlock: KIFKEQ_clean_linker_1, # of connection points: 2
#     Edge 33, Type (0, 0), BuildingBlock: KIFKEQ_clean_linker_1, # of connection points: 2
#     Edge 34, Type (0, 0), BuildingBlock: KIFKEQ_clean_linker_1, # of connection points: 2
#     Edge 35, Type (0, 0), BuildingBlock: KIFKEQ_clean_linker_1, # of connection points: 2
#     Edge 36, Type (0, 0), BuildingBlock: KIFKEQ_clean_linker_1, # of connection points: 2
#     Edge 37, Type (0, 0), BuildingBlock: KIFKEQ_clean_linker_1, # of connection points: 2
#     Edge 38, Type (0, 0), BuildingBlock: KIFKEQ_clean_linker_1, # of connection points: 2
#     Edge 39, Type (0, 0), BuildingBlock: KIFKEQ_clean_linker_1, # of connection points: 2
#     Edge 40, Type (0, 0), BuildingBlock: KIFKEQ_clean_linker_1, # of connection points: 2
#     Edge 41, Type (0, 0), BuildingBlock: KIFKEQ_clean_linker_1, # of connection points: 2
#     Edge 42, Type (0, 0), BuildingBlock: KIFKEQ_clean_linker_1, # of connection points: 2
#     Edge 43, Type (0, 0), BuildingBlock: KIFKEQ_clean_linker_1, # of connection points: 2
#     Edge 44, Type (0, 0), BuildingBlock: KIFKEQ_clean_linker_1, # of connection points: 2
#     Edge 45, Type (0, 0), BuildingBlock: KIFKEQ_clean_linker_1, # of connection points: 2
#     Edge 46, Type (0, 0), BuildingBlock: KIFKEQ_clean_linker_1, # of connection points: 2
#     Edge 47, Type (0, 0), BuildingBlock: KIFKEQ_clean_linker_1, # of connection points: 2
# Relax obj value: 0.124
# Max RMSD: 0.294
# Mean RMSD: 0.294
data_MOF--net-ukk--node1-QUQFOY_clean_sbu_3--edge1-KIFKEQ_clean_linker_1
_symmetry_space_group_name_H-M    P1
_symmetry_Int_Tables_number       1
_symmetry_cell_setting            triclinic
loop_
_symmetry_equiv_pos_as_xyz
'x, y, z'
_cell_length_a     56.972647
_cell_length_b     57.051367
_cell_length_c     17.849299
_cell_angle_alpha  89.6387
_cell_angle_beta   90.247896
_cell_angle_gamma 89.874542
loop_
_atom_site_label
_atom_site_type_symbol
_atom_site_fract_x
_atom_site_fract_y
_atom_site_fract_z
_atom_type_partial_charge
C0 C 0.34001 0.06333 0.30149 0.0
O1 O 0.34188 0.08046 0.34605 0.0
Cd2 Cd 0.34653 0.11929 0.29165 0.0
O3 O 0.33875 0.06699 0.23129 0.0
Cd4 Cd 0.33698 0.09813 0.13627 0.0
C5 C 0.39336 0.1092 0.17317 0.0
O6 O 0.31762 0.13159 0.19997 0.0
O7 O 0.33647 0.13799 0.09646 0.0
O8 O 0.30112 0.07876 0.10091 0.0
C9 C 0.3232 0.14576 0.14744 0.0
O10 O 0.38456 0.11793 0.23224 0.0
C11 C 0.30539 0.0776 0.03139 0.0
O12 O 0.38031 0.09892 0.12526 0.0
O13 O 0.32524 0.08522 0.00968 0.0
C14 C 0.07179 0.61994 0.68808 0.0
O15 O 0.0898 0.61153 0.65632 0.0
Cd16 Cd 0.12725 0.60911 0.72305 0.0
O17 O 0.07278 0.62669 0.75569 0.0
Cd18 Cd 0.0999 0.62919 0.86183 0.0
C19 C 0.11042 0.5707 0.85987 0.0
O20 O 0.136 0.64264 0.799 0.0
O21 O 0.13846 0.63164 0.91537 0.0
O22 O 0.08174 0.66714 0.88042 0.0
C23 C 0.14835 0.64037 0.85826 0.0
O24 O 0.12383 0.57547 0.80506 0.0
C25 C 0.07794 0.66454 0.94994 0.0
O26 O 0.09713 0.58633 0.88834 0.0
O27 O 0.08336 0.64478 0.97874 0.0
C28 C 0.61426 0.89779 0.30289 0.0
O29 O 0.60601 0.88065 0.33991 0.0
Cd30 Cd 0.60321 0.84219 0.28089 0.0
O31 O 0.62084 0.89502 0.23563 0.0
Cd32 Cd 0.62394 0.86569 0.13723 0.0
C33 C 0.56566 0.8555 0.13638 0.0
O34 O 0.63627 0.83004 0.20677 0.0
O35 O 0.62474 0.82653 0.09112 0.0
O36 O 0.66378 0.87848 0.11714 0.0
C37 C 0.63343 0.81709 0.14946 0.0
O38 O 0.57014 0.84417 0.19637 0.0
C39 C 0.66124 0.88439 0.04899 0.0
O40 O 0.5814 0.86773 0.10374 0.0
O41 O 0.64069 0.8826 0.02129 0.0
C42 C 0.89382 0.34286 0.68772 0.0
O43 O 0.87562 0.3509 0.65533 0.0
Cd44 Cd 0.83875 0.35309 0.7242 0.0
O45 O 0.89304 0.33636 0.75582 0.0
Cd46 Cd 0.86612 0.33378 0.86164 0.0
C47 C 0.85607 0.39191 0.85797 0.0
O48 O 0.82955 0.3197 0.8021 0.0
O49 O 0.82761 0.33339 0.91484 0.0
O50 O 0.88438 0.29595 0.88208 0.0
C51 C 0.81743 0.32325 0.86079 0.0
O52 O 0.84226 0.38703 0.80407 0.0
C53 C 0.88834 0.2986 0.95146 0.0
O54 O 0.86963 0.37636 0.88642 0.0
O55 O 0.88278 0.31829 0.97952 0.0
C56 C 0.34064 0.39876 0.96096 0.0
O57 O 0.33396 0.38174 0.92089 0.0
Cd58 Cd 0.33965 0.34395 0.98088 0.0
O59 O 0.34321 0.39602 0.03126 0.0
Cd60 Cd 0.33379 0.36689 0.12938 0.0
C61 C 0.3889 0.35436 0.09235 0.0
O62 O 0.31291 0.33243 0.07737 0.0
O63 O 0.33429 0.32787 0.17753 0.0
O64 O 0.29803 0.38843 0.14973 0.0
C65 C 0.31987 0.31921 0.13103 0.0
O66 O 0.37889 0.34594 0.0345 0.0
C67 C 0.30065 0.39102 0.21983 0.0
O68 O 0.37687 0.36463 0.14268 0.0
O69 O 0.31975 0.38341 0.24867 0.0
C70 C 0.39987 0.61403 0.05913 0.0
O71 O 0.38154 0.60723 0.09309 0.0
Cd72 Cd 0.34366 0.60622 0.02866 0.0
O73 O 0.39872 0.62041 0.99085 0.0
Cd74 Cd 0.37085 0.62484 0.88689 0.0
C75 C 0.35714 0.56727 0.89017 0.0
O76 O 0.3358 0.64008 0.95198 0.0
O77 O 0.33213 0.62932 0.83615 0.0
O78 O 0.39053 0.66189 0.86588 0.0
C79 C 0.32299 0.63842 0.89362 0.0
O80 O 0.3448 0.57266 0.94679 0.0
C81 C 0.3935 0.6593 0.79603 0.0
O82 O 0.37093 0.58213 0.85973 0.0
O83 O 0.387 0.63986 0.76819 0.0
C84 C 0.61412 0.56521 0.96729 0.0
O85 O 0.60569 0.58313 0.93427 0.0
Cd86 Cd 0.60407 0.62063 -0.00076 0.0
O87 O 0.62149 0.56652 0.03443 0.0
Cd88 Cd 0.62626 0.59346 0.13943 0.0
C89 C 0.56793 0.60432 0.14404 0.0
O90 O 0.63844 0.62933 0.07229 0.0
O91 O 0.62981 0.63212 0.19016 0.0
O92 O 0.66451 0.57512 0.15123 0.0
C93 C 0.63707 0.64193 0.13079 0.0
O94 O 0.57202 0.61692 0.08649 0.0
C95 C 0.66349 0.57124 0.22118 0.0
O96 O 0.58383 0.59127 0.17317 0.0
O97 O 0.64445 0.5768 0.25376 0.0
C98 C 0.56194 0.33564 0.05265 0.0
O99 O 0.57946 0.33863 0.0955 0.0
Cd100 Cd 0.61726 0.34553 0.03692 0.0
O101 O 0.56462 0.33498 0.98209 0.0
Cd102 Cd 0.59399 0.33633 0.88257 0.0
C103 C 0.60205 0.39284 0.92381 0.0
O104 O 0.62961 0.31873 0.94043 0.0
O105 O 0.63322 0.33931 0.83849 0.0
O106 O 0.57643 0.29943 0.8499 0.0
C107 C 0.64263 0.32601 0.88721 0.0
O108 O 0.61246 0.38374 0.98022 0.0
C109 C 0.57403 0.30359 0.78046 0.0
O110 O 0.59154 0.37989 0.87616 0.0
O111 O 0.58004 0.32387 0.75737 0.0
C112 C 0.85161 0.56059 0.7765 0.0
O113 O 0.84741 0.57841 0.81641 0.0
Cd114 Cd 0.85148 0.61614 0.75526 0.0
O115 O 0.85253 0.56249 0.70554 0.0
Cd116 Cd 0.84433 0.5913 0.60513 0.0
C117 C 0.89956 0.6059 0.63912 0.0
O118 O 0.823 0.62483 0.66045 0.0
O119 O 0.8429 0.63065 0.55868 0.0
O120 O 0.80918 0.56915 0.58048 0.0
C121 C 0.82872 0.63856 0.60696 0.0
O122 O 0.88991 0.61502 0.69631 0.0
C123 C 0.81195 0.56756 0.51021 0.0
O124 O 0.88738 0.59416 0.59233 0.0
O125 O 0.83094 0.5758 0.48338 0.0
C126 C 0.56602 0.12743 0.18786 0.0
O127 O 0.58342 0.12327 0.14596 0.0
Cd128 Cd 0.62091 0.11569 0.20679 0.0
O129 O 0.5687 0.12896 0.25833 0.0
Cd130 Cd 0.59746 0.12818 0.36051 0.0
C131 C 0.60307 0.07081 0.32592 0.0
O132 O 0.63341 0.14342 0.30059 0.0
O133 O 0.63665 0.12512 0.40709 0.0
O134 O 0.58077 0.16607 0.38695 0.0
C135 C 0.64638 0.1368 0.35522 0.0
O136 O 0.6137 0.07861 0.26834 0.0
C137 C 0.57751 0.16269 0.45638 0.0
O138 O 0.59363 0.08486 0.37247 0.0
O139 O 0.58282 0.1425 0.48236 0.0
C140 C 0.11518 0.40207 0.77785 0.0
O141 O 0.12027 0.38433 0.8179 0.0
Cd142 Cd 0.11452 0.34696 0.75689 0.0
O143 O 0.11319 0.40001 0.70722 0.0
Cd144 Cd 0.12133 0.37071 0.60934 0.0
C145 C 0.06593 0.35799 0.64275 0.0
O146 O 0.1419 0.33581 0.66217 0.0
O147 O 0.12037 0.33162 0.56249 0.0
O148 O 0.15749 0.39137 0.58737 0.0
C149 C 0.13492 0.32278 0.60871 0.0
O150 O 0.07563 0.34879 0.70035 0.0
C151 C 0.15485 0.39393 0.51718 0.0
O152 O 0.07822 0.36925 0.59496 0.0
O153 O 0.13555 0.38682 0.48901 0.0
C154 C 0.3973 0.84342 0.21376 0.0
O155 O 0.37891 0.84803 0.17603 0.0
Cd156 Cd 0.3409 0.84931 0.23816 0.0
O157 O 0.39589 0.83901 0.28347 0.0
Cd158 Cd 0.36755 0.83532 0.38563 0.0
C159 C 0.35226 0.89194 0.36897 0.0
O160 O 0.33295 0.81755 0.32342 0.0
O161 O 0.32852 0.83273 0.43342 0.0
O162 O 0.38814 0.7991 0.41202 0.0
C163 C 0.3197 0.82137 0.37944 0.0
O164 O 0.34087 0.88462 0.31227 0.0
C165 C 0.3908 0.80242 0.48171 0.0
O166 O 0.36632 0.87845 0.40495 0.0
O167 O 0.3835 0.82188 0.50739 0.0
C168 C 0.83608 0.89422 0.44302 0.0
O169 O 0.83815 0.87711 0.39848 0.0
Cd170 Cd 0.84406 0.83859 0.45444 0.0
O171 O 0.83491 0.89059 0.51321 0.0
Cd172 Cd 0.83335 0.86067 0.61155 0.0
C173 C 0.89025 0.85259 0.57392 0.0
O174 O 0.81656 0.82607 0.54902 0.0
O175 O 0.83525 0.8211 0.6543 0.0
O176 O 0.79521 0.87579 0.6409 0.0
C177 C 0.82295 0.81237 0.60211 0.0
O178 O 0.88176 0.84344 0.51485 0.0
C179 C 0.79923 0.88041 0.70913 0.0
O180 O 0.87684 0.86172 0.62302 0.0
O181 O 0.82002 0.87669 0.73316 0.0
C182 C 0.90218 0.12045 0.53702 0.0
O183 O 0.88458 0.11733 0.57912 0.0
Cd184 Cd 0.84722 0.10991 0.51859 0.0
O185 O 0.8995 0.1217 0.46636 0.0
Cd186 Cd 0.87024 0.12195 0.36504 0.0
C187 C 0.86397 0.0649 0.40005 0.0
O188 O 0.83486 0.13839 0.42547 0.0
O189 O 0.8308 0.1202 0.31988 0.0
O190 O 0.88836 0.15898 0.33569 0.0
C191 C 0.82159 0.13231 0.3713 0.0
O192 O 0.85409 0.07258 0.45888 0.0
C193 C 0.89084 0.15542 0.26615 0.0
O194 O 0.87287 0.0789 0.352 0.0
O195 O 0.8844 0.13553 0.24156 0.0
C196 C 0.12074 0.06764 0.4422 0.0
O197 O 0.1138 0.08499 0.4032 0.0
Cd198 Cd 0.11223 0.12367 0.46141 0.0
O199 O 0.12666 0.07043 0.51019 0.0
Cd200 Cd 0.13008 0.10032 0.60672 0.0
C201 C 0.07255 0.11254 0.6005 0.0
O202 O 0.14505 0.13535 0.53857 0.0
O203 O 0.13087 0.13966 0.65021 0.0
O204 O 0.16806 0.08286 0.63139 0.0
C205 C 0.14129 0.14865 0.59447 0.0
O206 O 0.07819 0.1238 0.54153 0.0
C207 C 0.16519 0.07993 0.70122 0.0
O208 O 0.08735 0.09937 0.63447 0.0
O209 O 0.14533 0.08574 0.72779 0.0
C210 C 0.06363 0.83737 0.54181 0.0
O211 O 0.0808 0.8403 0.58613 0.0
Cd212 Cd 0.11892 0.84706 0.52946 0.0
O213 O 0.06693 0.83671 0.4715 0.0
Cd214 Cd 0.09681 0.83786 0.37333 0.0
C215 C 0.1049 0.89441 0.41486 0.0
O216 O 0.13146 0.81955 0.43486 0.0
O217 O 0.13655 0.83947 0.33233 0.0
O218 O 0.07807 0.80166 0.33883 0.0
C219 C 0.14516 0.82618 0.38256 0.0
O220 O 0.11468 0.88542 0.47256 0.0
C221 C 0.07638 0.80595 0.26926 0.0
O222 O 0.09498 0.88138 0.36619 0.0
O223 O 0.08348 0.82595 0.24686 0.0
H224 H 0.31179 0.91634 0.36534 0.0
H225 H 0.38553 0.92355 0.41626 0.0
H226 H 0.3071 0.95871 0.36779 0.0
H227 H 0.38092 0.96643 0.41723 0.0
H228 H 0.35802 0.0454 0.43356 0.0
H229 H 0.36006 0.00382 0.47108 0.0
H230 H 0.32339 -0.01503 0.26804 0.0
H231 H 0.32146 0.02586 0.23088 0.0
C232 C 0.32691 0.92704 0.37877 0.0
C233 C 0.34909 0.91676 0.38946 0.0
C234 C 0.32423 0.95129 0.38002 0.0
C235 C 0.34373 0.96586 0.39108 0.0
C236 C 0.36558 0.95558 0.40862 0.0
C237 C 0.36824 0.93109 0.40804 0.0
C238 C 0.35014 0.03231 0.39773 0.0
C239 C 0.33959 0.03885 0.32927 0.0
C240 C 0.35144 0.00858 0.41896 0.0
C241 C 0.34175 -0.0088 0.37275 0.0
C242 C 0.33071 -0.00204 0.30546 0.0
C243 C 0.32973 0.02142 0.28389 0.0
H244 H 0.04152 0.65631 0.68097 0.0
H245 H 0.04995 0.58431 0.61406 0.0
H246 H -2e-05 0.65467 0.64882 0.0
H247 H 0.00787 0.58207 0.58563 0.0
H248 H 0.9288 0.5883 0.52905 0.0
H249 H 0.97149 0.59371 0.51911 0.0
H250 H 0.97048 0.63564 0.71986 0.0
H251 H 0.92866 0.63085 0.72866 0.0
C252 C 0.03449 0.64028 0.65766 0.0
C253 C 0.04877 0.62041 0.65033 0.0
C254 C 0.01067 0.63922 0.63991 0.0
C255 C 0.00043 0.61802 0.61683 0.0
C256 C 0.01516 0.59867 0.60326 0.0
C257 C 0.03925 0.59992 0.61951 0.0
C258 C 0.93778 0.59884 0.57045 0.0
C259 C 0.92523 0.60914 0.62956 0.0
C260 C 0.9622 0.60189 0.56487 0.0
C261 C 0.97441 0.61541 0.61802 0.0
C262 C 0.9617 0.62568 0.67658 0.0
C263 C 0.93757 0.62268 0.6821 0.0
H264 H 0.64745 0.93052 0.27855 0.0
H265 H 0.58204 0.9192 0.39428 0.0
H266 H 0.6442 0.97244 0.3004 0.0
H267 H 0.57848 0.9617 0.41485 0.0
H268 H 0.59505 0.04477 0.45532 0.0
H269 H 0.5986 0.00178 0.46895 0.0
H270 H 0.61236 -0.00364 0.23211 0.0
H271 H 0.60892 0.03835 0.21839 0.0
C272 C 0.63265 0.93699 0.31036 0.0
C273 C 0.61485 0.92171 0.33383 0.0
C274 C 0.63075 0.96097 0.32272 0.0
C275 C 0.61082 0.97032 0.35781 0.0
C276 C 0.594 0.95491 0.3876 0.0
C277 C 0.59605 0.93065 0.37587 0.0
C278 C 0.59856 0.03425 0.4063 0.0
C279 C 0.60214 0.04502 0.33607 0.0
C280 C 0.60063 0.00975 0.41415 0.0
C281 C 0.60637 -0.00411 0.35189 0.0
C282 C 0.60861 0.00666 0.28148 0.0
C283 C 0.60655 0.03079 0.27368 0.0
H284 H 0.03655 0.33493 0.7365 0.0
H285 H 0.03679 0.37455 0.52917 0.0
H286 H -0.00525 0.32994 0.72655 0.0
H287 H -0.00593 0.36904 0.51846 0.0
H288 H 0.91502 0.37843 0.61049 0.0
H289 H 0.95712 0.38122 0.58334 0.0
H290 H 0.96617 0.30917 0.6541 0.0
H291 H 0.92462 0.30695 0.68455 0.0
C292 C 0.02773 0.34245 0.68811 0.0
C293 C 0.04018 0.35513 0.6335 0.0
C294 C 0.00362 0.33934 0.68203 0.0
C295 C -0.00896 0.34867 0.62092 0.0
C296 C 0.0033 0.36154 0.56609 0.0
C297 C 0.02772 0.36467 0.57217 0.0
C298 C 0.92598 0.36303 0.61775 0.0
C299 C 0.91678 0.34254 0.65022 0.0
C300 C 0.95006 0.3646 0.60228 0.0
C301 C 0.9651 0.3456 0.61843 0.0
C302 C 0.9552 0.32435 0.64308 0.0
C303 C 0.93138 0.32296 0.6599 0.0
H304 H 0.3725 0.43029 0.00985 0.0
H305 H 0.32044 0.41948 0.83704 0.0
H306 H 0.3788 0.47011 0.96468 0.0
H307 H 0.32645 0.4599 0.79244 0.0
H308 H 0.31829 0.54089 0.87176 0.0
H309 H 0.31655 0.49825 0.86481 0.0
H310 H 0.39213 0.49531 0.85093 0.0
H311 H 0.39379 0.53829 0.85643 0.0
C312 C 0.36259 0.43639 0.96156 0.0
C313 C 0.34578 0.42192 0.92747 0.0
C314 C 0.36641 0.4591 0.93514 0.0
C315 C 0.3532 0.46805 0.87484 0.0
C316 C 0.33694 0.45334 0.83885 0.0
C317 C 0.33348 0.43031 0.86436 0.0
C318 C 0.33446 0.53116 0.8643 0.0
C319 C 0.35618 0.54276 0.86494 0.0
C320 C 0.33346 0.50677 0.86002 0.0
C321 C 0.35421 0.4935 0.85791 0.0
C322 C 0.37588 0.50519 0.85267 0.0
C323 C 0.37684 0.52972 0.85538 0.0
H324 H 0.43677 0.64193 0.02673 0.0
H325 H 0.41553 0.58577 0.17472 0.0
H326 H 0.47651 0.63935 0.07513 0.0
H327 H 0.45592 0.58304 0.22361 0.0
H328 H 0.538 0.56735 0.1618 0.0
H329 H 0.49503 0.57039 0.16409 0.0
H330 H 0.50055 0.64541 0.18907 0.0
H331 H 0.5432 0.64234 0.18461 0.0
C332 C 0.44055 0.62924 0.07058 0.0
C333 C 0.42306 0.61401 0.09674 0.0
C334 C 0.46333 0.62787 0.09885 0.0
C335 C 0.46936 0.61106 0.15361 0.0
C336 C 0.45175 0.59617 0.18151 0.0
C337 C 0.42867 0.59781 0.15386 0.0
C338 C 0.52995 0.58429 0.17121 0.0
C339 C 0.54376 0.60463 0.17269 0.0
C340 C 0.50538 0.58607 0.17233 0.0
C341 C 0.49445 0.60821 0.17516 0.0
C342 C 0.50847 0.62818 0.18543 0.0
C343 C 0.53286 0.62642 0.18349 0.0
H344 H 0.58746 0.42106 0.80473 0.0
H345 H 0.61823 0.42356 0.0265 0.0
H346 H 0.59147 0.46403 0.79461 0.0
H347 H 0.62197 0.46545 0.01637 0.0
H348 H 0.64941 0.53373 0.97012 0.0
H349 H 0.64684 0.49218 0.94127 0.0
H350 H 0.57596 0.50209 0.86018 0.0
H351 H 0.57897 0.54424 0.88669 0.0
C352 C 0.59496 0.43067 0.85113 0.0
C353 C 0.60278 0.41876 0.91598 0.0
C354 C 0.59726 0.45519 0.84529 0.0
C355 C 0.60757 0.468 0.90397 0.0
C356 C 0.61464 0.45606 0.96919 0.0
C357 C 0.61232 0.43191 0.97508 0.0
C358 C 0.63357 0.52718 0.94379 0.0
C359 C 0.61431 0.54204 0.93133 0.0
C360 C 0.63203 0.50339 0.92759 0.0
C361 C 0.61097 0.4938 0.90032 0.0
C362 C 0.59239 0.50901 0.88123 0.0
C363 C 0.5941 0.53308 0.89638 0.0
H364 H 0.41889 0.34471 0.97988 0.0
H365 H 0.4175 0.35868 0.21753 0.0
H366 H 0.46066 0.33812 0.98612 0.0
H367 H 0.46011 0.35147 0.2241 0.0
H368 H 0.54129 0.36343 0.1582 0.0
H369 H 0.4989 0.36732 0.17984 0.0
H370 H 0.48645 0.30823 0.03478 0.0
H371 H 0.52834 0.30522 0.01077 0.0
C372 C 0.4275 0.34622 0.03387 0.0
C373 C 0.41474 0.35193 0.09844 0.0
C374 C 0.45153 0.34224 0.03753 0.0
C375 C 0.46367 0.34361 0.106 0.0
C376 C 0.45119 0.35011 0.17061 0.0
C377 C 0.42686 0.35425 0.16686 0.0
C378 C 0.52942 0.35093 0.13286 0.0
C379 C 0.5379 0.3342 0.08219 0.0
C380 C 0.5052 0.35315 0.14514 0.0
C381 C 0.48928 0.33848 0.10741 0.0
C382 C 0.49818 0.32027 0.06289 0.0
C383 C 0.52217 0.31838 0.04959 0.0
H384 H 0.81964 0.42157 0.87825 0.0
H385 H 0.89526 0.41794 0.886 0.0
H386 H 0.82139 0.46426 0.88248 0.0
H387 H 0.89707 0.46092 0.88859 0.0
H388 H 0.87982 0.52611 0.72522 0.0
H389 H 0.88372 0.48619 0.77289 0.0
H390 H 0.83582 0.50216 0.9523 0.0
H391 H 0.83232 0.54264 0.90527 0.0
C392 C 0.83661 0.42995 0.88342 0.0
C393 C 0.85732 0.41658 0.88141 0.0
C394 C 0.83761 0.45436 0.88617 0.0
C395 C 0.85936 0.46585 0.88531 0.0
C396 C 0.88009 0.45242 0.88921 0.0
C397 C 0.87906 0.42789 0.8881 0.0
C398 C 0.87043 0.52124 0.77561 0.0
C399 C 0.85557 0.53734 0.81113 0.0
C400 C 0.87288 0.49847 0.80339 0.0
C401 C 0.86017 0.49115 0.86648 0.0
C402 C 0.8459 0.50746 0.90377 0.0
C403 C 0.84387 0.53052 0.87687 0.0
H404 H 0.53353 0.16014 0.22026 0.0
H405 H 0.54425 0.09737 0.09131 0.0
H406 H 0.49135 0.15717 0.20038 0.0
H407 H 0.50162 0.09367 0.07395 0.0
H408 H 0.41957 0.10205 0.04474 0.0
H409 H 0.46192 0.10912 0.0293 0.0
H410 H 0.46687 0.12824 0.26259 0.0
H411 H 0.4254 0.12164 0.27766 0.0
C412 C 0.52681 0.14604 0.18594 0.0
C413 C 0.54198 0.12891 0.1577 0.0
C414 C 0.50267 0.14418 0.17505 0.0
C415 C 0.49312 0.12479 0.13751 0.0
C416 C 0.50845 0.10877 0.10324 0.0
C417 C 0.53281 0.1109 0.11304 0.0
C418 C 0.42983 0.1077 0.0925 0.0
C419 C 0.41902 0.11157 0.16214 0.0
C420 C 0.454 0.11178 0.08364 0.0
C421 C 0.46761 0.11984 0.14422 0.0
C422 C 0.45681 0.12284 0.21405 0.0
C423 C 0.43295 0.11885 0.22281 0.0
H424 H 0.07127 0.54438 0.88531 0.0
H425 H 0.14692 0.54121 0.8834 0.0
H426 H 0.06968 0.50138 0.88672 0.0
H427 H 0.1454 0.49848 0.88634 0.0
H428 H 0.13484 0.41982 0.9063 0.0
H429 H 0.13133 0.46012 0.95299 0.0
H430 H 0.08315 0.4766 0.77283 0.0
H431 H 0.087 0.43684 0.72561 0.0
C432 C 0.0875 0.5345 0.88857 0.0
C433 C 0.10921 0.54599 0.88395 0.0
C434 C 0.08662 0.50995 0.88886 0.0
C435 C 0.10743 0.49664 0.88609 0.0
C436 C 0.1291 0.50825 0.88908 0.0
C437 C 0.12997 0.5327 0.8872 0.0
C438 C 0.12325 0.43201 0.87757 0.0
C439 C 0.11142 0.42533 0.81184 0.0
C440 C 0.12122 0.45499 0.90428 0.0
C441 C 0.10684 0.47141 0.8668 0.0
C442 C 0.09408 0.46426 0.80352 0.0
C443 C 0.09651 0.44156 0.77599 0.0
H444 H 0.43516 0.81813 0.25724 0.0
H445 H 0.41256 0.86926 0.09258 0.0
H446 H 0.47507 0.82089 0.21137 0.0
H447 H 0.45314 0.87225 0.04645 0.0
H448 H 0.53483 0.89154 0.11085 0.0
H449 H 0.49191 0.88762 0.10743 0.0
H450 H 0.49924 0.81235 0.09813 0.0
H451 H 0.54181 0.81633 0.10337 0.0
C452 C 0.4387 0.82976 0.21042 0.0
C453 C 0.42076 0.84351 0.17861 0.0
C454 C 0.46157 0.83123 0.18369 0.0
C455 C 0.46723 0.84669 0.12491 0.0
C456 C 0.44923 0.86015 0.0917 0.0
C457 C 0.42607 0.85836 0.1178 0.0
C458 C 0.52719 0.87429 0.10465 0.0
C459 C 0.54146 0.85422 0.1077 0.0
C460 C 0.50266 0.87201 0.10286 0.0
C461 C 0.49227 0.84964 0.10401 0.0
C462 C 0.50676 0.82978 0.09849 0.0
C463 C 0.5311 0.83205 0.10096 0.0
H464 H 0.85861 0.91201 0.31888 0.0
H465 H 0.81623 0.93186 0.50835 0.0
H466 H 0.86743 0.95362 0.29473 0.0
H467 H 0.82474 0.97288 0.48388 0.0
H468 H 0.87293 0.03294 0.50722 0.0
H469 H 0.86562 -0.00895 0.50257 0.0
H470 H 0.84811 -0.00326 0.26759 0.0
H471 H 0.85587 0.03927 0.27211 0.0
C472 C 0.85063 0.92525 0.3538 0.0
C473 C 0.83704 0.91874 0.4162 0.0
C474 C 0.85573 0.94898 0.34011 0.0
C475 C 0.84722 0.96631 0.38863 0.0
C476 C 0.83197 0.9598 0.4467 0.0
C477 C 0.82702 0.93632 0.46051 0.0
C478 C 0.86801 0.02521 0.45411 0.0
C479 C 0.86468 0.03929 0.39027 0.0
C480 C 0.8637 0.00128 0.45153 0.0
C481 C 0.85569 -0.00917 0.38523 0.0
C482 C 0.85413 0.00448 0.31947 0.0
C483 C 0.85865 0.02869 0.32197 0.0
H484 H 0.93875 0.14384 0.47682 0.0
H485 H 0.91991 0.1003 0.66589 0.0
H486 H 0.97948 0.1431 0.51669 0.0
H487 H 0.96129 0.09941 0.70615 0.0
H488 H 0.04204 0.07778 0.64274 0.0
H489 H -0.0009 0.08163 0.6481 0.0
H490 H 0.00549 0.15658 0.61997 0.0
H491 H 0.04798 0.15261 0.61268 0.0
C492 C 0.94331 0.13437 0.52767 0.0
C493 C 0.92618 0.12211 0.56818 0.0
C494 C 0.96665 0.13406 0.55088 0.0
C495 C 0.97358 0.12129 0.61485 0.0
C496 C 0.95641 0.1094 0.65669 0.0
C497 C 0.93278 0.11004 0.63396 0.0
C498 C 0.03421 0.09509 0.64052 0.0
C499 C 0.04814 0.11487 0.62627 0.0
C500 C 0.00968 0.09732 0.64359 0.0
C501 C -0.00102 0.11937 0.63288 0.0
C502 C 0.01323 0.13933 0.6269 0.0
C503 C 0.03753 0.13708 0.623 0.0
H504 H 0.09546 0.92197 0.28945 0.0
H505 H 0.11586 0.92563 0.52267 0.0
H506 H 0.10049 0.96479 0.27839 0.0
H507 H 0.12059 0.9675 0.51166 0.0
H508 H 0.15339 0.03431 0.46814 0.0
H509 H 0.14967 -0.00756 0.44639 0.0
H510 H 0.08377 0.00417 0.33161 0.0
H511 H 0.08797 0.04661 0.35151 0.0
C512 C 0.10081 0.93184 0.33823 0.0
C513 C 0.10562 0.9203 0.40659 0.0
C514 C 0.1037 0.95628 0.33187 0.0
C515 C 0.11152 0.96938 0.39368 0.0
C516 C 0.11527 0.95784 0.46235 0.0
C517 C 0.11242 0.93375 0.46868 0.0
C518 C 0.13844 0.02804 0.43637 0.0
C519 C 0.12084 0.04359 0.41225 0.0
C520 C 0.13623 0.00406 0.42423 0.0
C521 C 0.11612 -0.00502 0.38906 0.0
C522 C 0.09942 0.01068 0.35902 0.0
C523 C 0.10183 0.03492 0.37034 0.0
H524 H 0.91724 0.85306 0.70362 0.0
H525 H 0.92175 0.85186 0.46211 0.0
H526 H 0.96016 0.84736 0.71176 0.0
H527 H 0.96376 0.84656 0.47018 0.0
H528 H 0.02957 0.80912 0.4895 0.0
H529 H -0.01238 0.81244 0.51164 0.0
H530 H 0.00028 0.86669 0.67446 0.0
H531 H 0.04279 0.86272 0.6538 0.0
C532 C 0.92738 0.85193 0.65257 0.0
C533 C 0.9161 0.85247 0.58227 0.0
C534 C 0.95184 0.84861 0.65721 0.0
C535 C 0.96517 0.84582 0.5916 0.0
C536 C 0.9539 0.84783 0.5218 0.0
C537 C 0.92978 0.85101 0.51721 0.0
C538 C 0.02346 0.8213 0.53152 0.0
C539 C 0.03931 0.83586 0.56927 0.0
C540 C -0.00055 0.82332 0.54395 0.0
C541 C -0.00934 0.8403 0.59325 0.0
C542 C 0.00658 0.85352 0.63598 0.0
C543 C 0.03085 0.85124 0.62422 0.0
H544 H 0.29647 0.29213 0.02829 0.0
H545 H 0.32809 0.28988 0.24869 0.0
H546 H 0.29038 0.24968 0.03434 0.0
H547 H 0.32245 0.24777 0.25411 0.0
H548 H 0.30369 0.17187 0.26042 0.0
H549 H 0.29597 0.21418 0.25853 0.0
H550 H 0.31845 0.21757 0.0278 0.0
H551 H 0.32572 0.17571 0.02939 0.0
C552 C 0.30177 0.28266 0.07838 0.0
C553 C 0.31307 0.29428 0.13746 0.0
C554 C 0.29837 0.25837 0.0818 0.0
C555 C 0.30611 0.24531 0.1445 0.0
C556 C 0.31606 0.25725 0.20535 0.0
C557 C 0.31952 0.28142 0.20183 0.0
C558 C 0.30653 0.18166 0.20907 0.0
C559 C 0.31562 0.17055 0.14545 0.0
C560 C 0.3022 0.20586 0.20798 0.0
C561 C 0.3067 0.21927 0.14307 0.0
C562 C 0.31451 0.2078 0.07842 0.0
C563 C 0.31894 0.18378 0.07965 0.0
H564 H 0.18019 0.63704 0.74521 0.0
H565 H 0.17318 0.65589 0.97768 0.0
H566 H 0.22267 0.64047 0.75571 0.0
H567 H 0.21546 0.66104 0.98759 0.0
H568 H 0.29138 0.63443 0.00723 0.0
H569 H 0.24892 0.63868 0.99769 0.0
H570 H 0.25612 0.66248 0.76811 0.0
H571 H 0.29834 0.65648 0.77688 0.0
C572 C 0.18778 0.64259 0.79796 0.0
C573 C 0.17355 0.646 0.86075 0.0
C574 C 0.21216 0.6447 0.80416 0.0
C575 C 0.22275 0.65084 0.87291 0.0
C576 C 0.20816 0.65562 0.93437 0.0
C577 C 0.18388 0.65291 0.92859 0.0
C578 C 0.2838 0.6409 0.95529 0.0
C579 C 0.29798 0.64494 0.89266 0.0
C580 C 0.25943 0.64347 0.94963 0.0
C581 C 0.24883 0.65068 0.88163 0.0
C582 C 0.26342 0.6562 0.82063 0.0
C583 C 0.28766 0.65302 0.8258 0.0
H584 H 0.649 0.79152 0.03254 0.0
H585 H 0.63046 0.78603 0.26599 0.0
H586 H 0.65477 0.74933 0.02705 0.0
H587 H 0.63454 0.74354 0.25996 0.0
H588 H 0.65357 0.66805 0.24566 0.0
H589 H 0.65749 0.71046 0.25072 0.0
H590 H 0.63314 0.71545 0.02105 0.0
H591 H 0.63089 0.67288 0.01521 0.0
C592 C 0.64618 0.78117 0.08279 0.0
C593 C 0.63921 0.79192 0.14964 0.0
C594 C 0.64925 0.75693 0.07955 0.0
C595 C 0.64479 0.74275 0.14263 0.0
C596 C 0.63851 0.75374 0.21032 0.0
C597 C 0.63604 0.77812 0.21396 0.0
C598 C 0.64947 0.67829 0.19596 0.0
C599 C 0.64188 0.66729 0.13008 0.0
C600 C 0.65147 0.70265 0.199 0.0
C601 C 0.64532 0.71665 0.13676 0.0
C602 C 0.63842 0.70542 0.06996 0.0
C603 C 0.637 0.68097 0.06644 0.0
H604 H 0.67171 0.33573 0.77125 0.0
H605 H 0.67062 0.30315 0.99041 0.0
H606 H 0.71377 0.32991 0.76459 0.0
H607 H 0.71311 0.29683 0.98304 0.0
H608 H 0.78919 0.32722 0.98235 0.0
H609 H 0.74688 0.32282 0.98787 0.0
H610 H 0.7458 0.30208 0.75546 0.0
H611 H 0.7884 0.30703 0.74944 0.0
C612 C 0.68043 0.32701 0.81776 0.0
C613 C 0.66786 0.32015 0.88185 0.0
C614 C 0.70458 0.32344 0.81349 0.0
C615 C 0.71684 0.31292 0.87325 0.0
C616 C 0.70417 0.30521 0.93634 0.0
C617 C 0.67986 0.30874 0.94053 0.0
C618 C 0.78 0.32148 0.93251 0.0
C619 C 0.7921 0.31781 0.86508 0.0
C620 C 0.75572 0.31872 0.93597 0.0
C621 C 0.74291 0.31222 0.87206 0.0
C622 C 0.75515 0.30742 0.80545 0.0
C623 C 0.77953 0.31017 0.802 0.0
H624 H 0.83456 0.66897 0.49101 0.0
H625 H 0.80576 0.66411 0.71409 0.0
H626 H 0.8272 0.71088 0.48921 0.0
H627 H 0.79793 0.70633 0.71176 0.0
H628 H 0.82928 0.7819 0.71775 0.0
H629 H 0.82458 0.73968 0.7174 0.0
H630 H 0.79886 0.74308 0.48948 0.0
H631 H 0.80398 0.78571 0.48943 0.0
C632 C 0.82626 0.67681 0.53929 0.0
C633 C 0.82108 0.66331 0.60323 0.0
C634 C 0.82181 0.70085 0.53789 0.0
C635 C 0.8121 0.71198 0.60047 0.0
C636 C 0.8057 0.69826 0.66297 0.0
C637 C 0.81009 0.67411 0.66427 0.0
C638 C 0.82236 0.77373 0.66771 0.0
C639 C 0.81732 0.7871 0.60317 0.0
C640 C 0.81941 0.74949 0.66785 0.0
C641 C 0.8114 0.73798 0.60338 0.0
C642 C 0.80529 0.75146 0.53981 0.0
C643 C 0.80815 0.77584 0.53979 0.0
H644 H 0.79426 0.1525 0.47989 0.0
H645 H 0.79176 0.12532 0.25459 0.0
H646 H 0.75174 0.15885 0.47561 0.0
H647 H 0.74959 0.13123 0.25084 0.0
H648 H 0.67463 0.15542 0.24562 0.0
H649 H 0.71741 0.15955 0.24967 0.0
H650 H 0.7182 0.1323 0.47608 0.0
H651 H 0.6758 0.12859 0.47255 0.0
C652 C 0.7847 0.14811 0.42933 0.0
C653 C 0.79631 0.13818 0.36796 0.0
C654 C 0.76037 0.15166 0.4269 0.0
C655 C 0.74727 0.14547 0.36291 0.0
C656 C 0.75913 0.13648 0.30058 0.0
C657 C 0.78333 0.13286 0.30311 0.0
C658 C 0.68397 0.15064 0.29648 0.0
C659 C 0.67188 0.14145 0.3584 0.0
C660 C 0.70843 0.15293 0.29878 0.0
C661 C 0.72121 0.14617 0.36316 0.0
C662 C 0.70893 0.13795 0.42601 0.0
C663 C 0.68459 0.1356 0.42362 0.0
H664 H 0.12425 0.29304 0.49528 0.0
H665 H 0.16151 0.29624 0.70631 0.0
H666 H 0.13155 0.2512 0.48904 0.0
H667 H 0.16936 0.25411 0.69918 0.0
H668 H 0.14045 0.17794 0.71339 0.0
H669 H 0.14443 0.2202 0.71334 0.0
H670 H 0.15938 0.21926 0.4762 0.0
H671 H 0.15485 0.17655 0.47602 0.0
C672 C 0.13436 0.28486 0.5399 0.0
C673 C 0.14201 0.29791 0.60194 0.0
C674 C 0.13877 0.26085 0.53583 0.0
C675 C 0.15095 0.24924 0.59372 0.0
C676 C 0.15965 0.2625 0.65408 0.0
C677 C 0.15523 0.28662 0.65813 0.0
C678 C 0.14487 0.18665 0.66125 0.0
C679 C 0.147 0.17393 0.59441 0.0
C680 C 0.14741 0.21094 0.66144 0.0
C681 C 0.15213 0.22318 0.59475 0.0
C682 C 0.15546 0.21035 0.5284 0.0
C683 C 0.15298 0.18591 0.52827 0.0
H684 H 0.17591 0.83529 0.27041 0.0
H685 H 0.17123 0.80219 0.48822 0.0
H686 H 0.21786 0.8283 0.26886 0.0
H687 H 0.21357 0.79466 0.48597 0.0
H688 H 0.28996 0.82403 0.49742 0.0
H689 H 0.24763 0.81972 0.49675 0.0
H690 H 0.2497 0.80024 0.26328 0.0
H691 H 0.29239 0.80513 0.26356 0.0
C692 C 0.18381 0.82619 0.31767 0.0
C693 C 0.17028 0.81958 0.37999 0.0
C694 C 0.2079 0.82194 0.31633 0.0
C695 C 0.21914 0.81095 0.37729 0.0
C696 C 0.20546 0.80341 0.43842 0.0
C697 C 0.18123 0.80765 0.4397 0.0
C698 C 0.28147 0.81853 0.44605 0.0
C699 C 0.29449 0.81528 0.38016 0.0
C700 C 0.25716 0.81582 0.44593 0.0
C701 C 0.24521 0.80979 0.37987 0.0
C702 C 0.25837 0.80523 0.31487 0.0
C703 C 0.28281 0.80791 0.31504 0.0
H704 H 0.20741 0.06227 0.65709 0.0
H705 H 0.16789 0.0808 0.85411 0.0
H706 H 0.24213 0.05542 0.73442 0.0
H707 H 0.20273 0.07465 0.93123 0.0
H708 H 0.26523 0.05395 0.06392 0.0
H709 H 0.2313 0.04835 0.98257 0.0
H710 H 0.26913 0.08028 0.79911 0.0
H711 H 0.3033 0.08516 0.88006 0.0
C712 C 0.20607 0.06461 0.7171 0.0
C713 C 0.18497 0.07229 0.74949 0.0
C714 C 0.22602 0.06082 0.76135 0.0
C715 C 0.22537 0.06474 0.83895 0.0
C716 C 0.20387 0.0712 0.87178 0.0
C717 C 0.18387 0.07484 0.82754 0.0
C718 C 0.26646 0.05931 0.00573 0.0
C719 C 0.28684 0.07023 0.9785 0.0
C720 C 0.24695 0.05625 0.95925 0.0
C721 C 0.24729 0.06422 0.88462 0.0
C722 C 0.26825 0.07375 0.85612 0.0
C723 C 0.28787 0.07663 0.90255 0.0
H724 H 0.0522 0.76625 0.30327 0.0
H725 H 0.08421 0.80323 0.11843 0.0
H726 H 0.04623 0.73219 0.224 0.0
H727 H 0.07904 0.76887 0.0396 0.0
H728 H 0.07766 0.66781 0.10258 0.0
H729 H 0.07177 0.703 0.17644 0.0
H730 H 0.05443 0.7419 0.97498 0.0
H731 H 0.06111 0.70679 0.9009 0.0
C732 C 0.05767 0.7672 0.24527 0.0
C733 C 0.06889 0.78732 0.2172 0.0
C734 C 0.05441 0.7476 0.19998 0.0
C735 C 0.06252 0.74755 0.12573 0.0
C736 C 0.07239 0.76827 0.0963 0.0
C737 C 0.07543 0.788 0.14151 0.0
C738 C 0.07214 0.68375 0.07424 0.0
C739 C 0.0701 0.68457 0.99588 0.0
C740 C 0.06865 0.70398 0.11663 0.0
C741 C 0.06284 0.72545 0.08165 0.0
C742 C 0.05936 0.72583 0.00363 0.0
C743 C 0.06302 0.70565 0.96122 0.0
H744 H 0.70719 0.87783 0.08453 0.0
H745 H 0.66194 0.90491 0.90954 0.0
H746 H 0.74087 0.88211 0.00353 0.0
H747 H 0.69601 0.91071 0.8292 0.0
H748 H 0.75279 0.88107 0.67527 0.0
H749 H 0.72017 0.88725 0.75871 0.0
H750 H 0.76857 0.90358 0.93837 0.0
H751 H 0.80152 0.89589 0.85473 0.0
C752 C 0.70453 0.88532 0.0292 0.0
C753 C 0.68184 0.89072 0.003 0.0
C754 C 0.72398 0.88798 0.98268 0.0
C755 C 0.72133 0.89653 0.90903 0.0
C756 C 0.69874 0.90346 0.88474 0.0
C757 C 0.67918 0.90032 0.93092 0.0
C758 C 0.75655 0.88625 0.73236 0.0
C759 C 0.77978 0.8877 0.75862 0.0
C760 C 0.73771 0.89005 0.78038 0.0
C761 C 0.74153 0.89582 0.85594 0.0
C762 C 0.76486 0.89864 0.88109 0.0
C763 C 0.7838 0.89442 0.83309 0.0
H764 H 0.91342 0.1955 0.30562 0.0
H765 H 0.88492 0.1591 0.11449 0.0
H766 H 0.91954 0.2303 0.2285 0.0
H767 H 0.89017 0.19414 0.0378 0.0
H768 H 0.90735 0.25744 0.9038 0.0
H769 H 0.91467 0.22216 0.97802 0.0
H770 H 0.89393 0.25915 0.17788 0.0
H771 H 0.88748 0.29456 0.10395 0.0
C772 C 0.90876 0.19485 0.24676 0.0
C773 C 0.89846 0.17467 0.21619 0.0
C774 C 0.91211 0.21486 0.20268 0.0
C775 C 0.90499 0.21524 0.12719 0.0
C776 C 0.89607 0.1945 0.09552 0.0
C777 C 0.89296 0.17438 0.13951 0.0
C778 C 0.90483 0.25813 0.96387 0.0
C779 C 0.89662 0.2787 -0.00198 0.0
C780 C 0.90887 0.23786 0.00634 0.0
C781 C 0.90457 0.23763 0.08383 0.0
C782 C 0.89769 0.25866 0.1185 0.0
C783 C 0.89387 0.279 0.07608 0.0
H784 H 0.15993 0.39025 0.36531 0.0
H785 H 0.1951 0.41507 0.5643 0.0
H786 H 0.19594 0.39556 0.29417 0.0
H787 H 0.23095 0.42102 0.49285 0.0
H788 H 0.29539 0.38793 0.37191 0.0
H789 H 0.25954 0.39471 0.44253 0.0
H790 H 0.22533 0.42064 0.24182 0.0
H791 H 0.261 0.41323 0.17096 0.0
C792 C 0.17514 0.39751 0.39332 0.0
C793 C 0.17473 0.40197 0.47055 0.0
C794 C 0.19584 0.40062 0.35252 0.0
C795 C 0.21652 0.40842 0.38801 0.0
C796 C 0.21554 0.4145 0.4641 0.0
C797 C 0.19491 0.41125 0.50492 0.0
C798 C 0.2804 0.3956 0.34329 0.0
C799 C 0.28095 0.39978 0.26575 0.0
C800 C 0.2598 0.39955 0.38379 0.0
C801 C 0.23937 0.40794 0.34766 0.0
C802 C 0.24054 0.4137 0.27111 0.0
C803 C 0.26106 0.4096 0.23061 0.0
H804 H 0.3867 0.79855 0.6338 0.0
H805 H 0.41376 0.76265 0.4401 0.0
H806 H 0.39343 0.76357 0.70978 0.0
H807 H 0.42132 0.7279 0.51649 0.0
H808 H 0.39131 0.66327 0.64356 0.0
H809 H 0.39667 0.6987 0.5692 0.0
H810 H 0.41907 0.73581 0.76739 0.0
H811 H 0.41289 0.70048 0.84214 0.0
C812 C 0.39475 0.78341 0.60798 0.0
C813 C 0.39941 0.78325 0.53084 0.0
C814 C 0.39871 0.76332 0.65159 0.0
C815 C 0.40764 0.74271 0.61909 0.0
C816 C 0.41392 0.74323 0.54302 0.0
C817 C 0.40974 0.76322 0.49933 0.0
C818 C 0.39787 0.67884 0.67095 0.0
C819 C 0.4014 0.67915 0.74881 0.0
C820 C 0.40105 0.69921 0.62825 0.0
C821 C 0.40804 0.72029 0.66238 0.0
C822 C 0.41318 0.72007 0.7395 0.0
C823 C 0.4098 0.69975 0.78227 0.0
H824 H 0.67046 0.57064 0.37284 0.0
H825 H 0.70417 0.55371 0.16376 0.0
H826 H 0.70726 0.56376 0.43922 0.0
H827 H 0.74086 0.54607 0.23032 0.0
H828 H 0.806 0.57479 0.35972 0.0
H829 H 0.76981 0.57 0.28843 0.0
H830 H 0.73716 0.53756 0.48099 0.0
H831 H 0.77315 0.54311 0.55284 0.0
C832 C 0.68558 0.56484 0.34131 0.0
C833 C 0.68446 0.56297 0.26301 0.0
C834 C 0.70672 0.56078 0.3794 0.0
C835 C 0.72719 0.55456 0.34009 0.0
C836 C 0.72561 0.55128 0.26223 0.0
C837 C 0.70452 0.55551 0.22413 0.0
C838 C 0.79129 0.56609 0.38619 0.0
C839 C 0.79234 0.55959 0.46211 0.0
C840 C 0.77048 0.56329 0.34528 0.0
C841 C 0.75035 0.55373 0.37929 0.0
C842 C 0.7521 0.54552 0.45353 0.0
C843 C 0.77281 0.54851 0.49455 0.0
H844 H 0.57997 0.16547 0.60923 0.0
H845 H 0.5586 0.20445 0.41222 0.0
H846 H 0.57398 0.20024 0.68546 0.0
H847 H 0.55184 0.23902 0.48856 0.0
H848 H 0.58036 0.30136 0.62878 0.0
H849 H 0.57622 0.26683 0.55015 0.0
H850 H 0.54777 0.22816 0.73789 0.0
H851 H 0.55268 0.26247 0.81684 0.0
C852 C 0.57341 0.18129 0.58255 0.0
C853 C 0.57 0.18228 0.5047 0.0
C854 C 0.56988 0.20126 0.62625 0.0
C855 C 0.56265 0.22259 0.59308 0.0
C856 C 0.55789 0.22308 0.51576 0.0
C857 C 0.56161 0.2032 0.47208 0.0
C858 C 0.57275 0.28564 0.65272 0.0
C859 C 0.5671 0.28455 0.7291 0.0
C860 C 0.57031 0.2658 0.60764 0.0
C861 C 0.56196 0.24453 0.63791 0.0
C862 C 0.55479 0.24404 0.71314 0.0
C863 C 0.55743 0.26377 0.75825 0.0
loop_
_geom_bond_atom_site_label_1
_geom_bond_atom_site_label_2
_geom_bond_distance
_geom_bond_site_symmetry_2
_ccdc_geom_bond_type
C0 O1 1.306 . S
C0 O3 1.160 . S
O1 C0 1.306 . S
O1 Cd2 2.228 . S
Cd2 O1 2.228 . S
Cd2 O6 2.273 . S
Cd2 O10 2.277 . S
O3 C0 1.160 . S
O3 Cd4 2.203 . S
Cd4 O3 2.203 . S
Cd4 O6 2.411 . S
Cd4 O7 2.333 . S
Cd4 O8 2.352 . S
Cd4 O12 2.277 . S
Cd4 O13 2.356 1_554 S
C5 O10 1.209 . S
C5 O12 1.226 . S
O6 Cd2 2.273 . S
O6 Cd4 2.411 . S
O6 C9 1.320 . S
O7 Cd4 2.333 . S
O7 C9 1.214 . S
O8 Cd4 2.352 . S
O8 C11 1.258 . S
C9 O6 1.320 . S
C9 O7 1.214 . S
O10 Cd2 2.277 . S
O10 C5 1.209 . S
C11 O8 1.258 . S
C11 O13 1.282 1_554 S
O12 Cd4 2.277 . S
O12 C5 1.226 . S
O13 Cd4 2.356 1_556 S
O13 C11 1.282 1_556 S
C14 O15 1.306 . S
C14 O17 1.160 . S
O15 C14 1.306 . S
O15 Cd16 2.228 . S
Cd16 O15 2.228 . S
Cd16 O20 2.273 . S
Cd16 O24 2.277 . S
O17 C14 1.160 . S
O17 Cd18 2.203 . S
Cd18 O17 2.203 . S
Cd18 O20 2.411 . S
Cd18 O21 2.333 . S
Cd18 O22 2.352 . S
Cd18 O26 2.277 . S
Cd18 O27 2.356 1_556 S
C19 O24 1.209 . S
C19 O26 1.226 . S
O20 Cd16 2.273 . S
O20 Cd18 2.411 . S
O20 C23 1.320 . S
O21 Cd18 2.333 . S
O21 C23 1.214 . S
O22 Cd18 2.352 . S
O22 C25 1.258 . S
C23 O20 1.320 . S
C23 O21 1.214 . S
O24 Cd16 2.277 . S
O24 C19 1.209 . S
C25 O22 1.258 . S
C25 O27 1.282 1_556 S
O26 Cd18 2.277 . S
O26 C19 1.226 . S
O27 Cd18 2.356 1_554 S
O27 C25 1.282 1_554 S
C28 O29 1.306 . S
C28 O31 1.160 . S
O29 C28 1.306 . S
O29 Cd30 2.228 . S
Cd30 O29 2.228 . S
Cd30 O34 2.273 . S
Cd30 O38 2.277 . S
O31 C28 1.160 . S
O31 Cd32 2.203 . S
Cd32 O31 2.203 . S
Cd32 O34 2.411 . S
Cd32 O35 2.333 . S
Cd32 O36 2.352 . S
Cd32 O40 2.277 . S
Cd32 O41 2.356 1_554 S
C33 O38 1.209 . S
C33 O40 1.226 . S
O34 Cd30 2.273 . S
O34 Cd32 2.411 . S
O34 C37 1.320 . S
O35 Cd32 2.333 . S
O35 C37 1.214 . S
O36 Cd32 2.352 . S
O36 C39 1.258 . S
C37 O34 1.320 . S
C37 O35 1.214 . S
O38 Cd30 2.277 . S
O38 C33 1.209 . S
C39 O36 1.258 . S
C39 O41 1.282 1_554 S
O40 Cd32 2.277 . S
O40 C33 1.226 . S
O41 Cd32 2.356 1_556 S
O41 C39 1.282 1_556 S
C42 O43 1.306 . S
C42 O45 1.160 . S
O43 C42 1.306 . S
O43 Cd44 2.228 . S
Cd44 O43 2.228 . S
Cd44 O48 2.273 . S
Cd44 O52 2.277 . S
O45 C42 1.160 . S
O45 Cd46 2.203 . S
Cd46 O45 2.203 . S
Cd46 O48 2.411 . S
Cd46 O49 2.333 . S
Cd46 O50 2.352 . S
Cd46 O54 2.277 . S
Cd46 O55 2.356 1_556 S
C47 O52 1.209 . S
C47 O54 1.226 . S
O48 Cd44 2.273 . S
O48 Cd46 2.411 . S
O48 C51 1.320 . S
O49 Cd46 2.333 . S
O49 C51 1.214 . S
O50 Cd46 2.352 . S
O50 C53 1.258 . S
C51 O48 1.320 . S
C51 O49 1.214 . S
O52 Cd44 2.277 . S
O52 C47 1.209 . S
C53 O50 1.258 . S
C53 O55 1.282 1_556 S
O54 Cd46 2.277 . S
O54 C47 1.226 . S
O55 Cd46 2.356 1_554 S
O55 C53 1.282 1_554 S
C56 O57 1.306 1_554 S
C56 O59 1.160 . S
O57 C56 1.306 1_556 S
O57 Cd58 2.228 . S
Cd58 O57 2.228 . S
Cd58 O62 2.273 1_556 S
Cd58 O66 2.277 1_556 S
O59 C56 1.160 . S
O59 Cd60 2.203 . S
Cd60 O59 2.203 . S
Cd60 O62 2.411 . S
Cd60 O63 2.333 . S
Cd60 O64 2.352 . S
Cd60 O68 2.277 . S
Cd60 O69 2.356 . S
C61 O66 1.209 . S
C61 O68 1.226 . S
O62 Cd58 2.273 1_554 S
O62 Cd60 2.411 . S
O62 C65 1.320 . S
O63 Cd60 2.333 . S
O63 C65 1.214 . S
O64 Cd60 2.352 . S
O64 C67 1.258 . S
C65 O62 1.320 . S
C65 O63 1.214 . S
O66 Cd58 2.277 1_554 S
O66 C61 1.209 . S
C67 O64 1.258 . S
C67 O69 1.282 . S
O68 Cd60 2.277 . S
O68 C61 1.226 . S
O69 Cd60 2.356 . S
O69 C67 1.282 . S
C70 O71 1.306 1_556 S
C70 O73 1.160 . S
O71 C70 1.306 1_554 S
O71 Cd72 2.228 . S
Cd72 O71 2.228 . S
Cd72 O76 2.273 1_554 S
Cd72 O80 2.277 1_554 S
O73 C70 1.160 . S
O73 Cd74 2.203 . S
Cd74 O73 2.203 . S
Cd74 O76 2.411 . S
Cd74 O77 2.333 . S
Cd74 O78 2.352 . S
Cd74 O82 2.277 . S
Cd74 O83 2.356 . S
C75 O80 1.209 . S
C75 O82 1.226 . S
O76 Cd72 2.273 1_556 S
O76 Cd74 2.411 . S
O76 C79 1.320 . S
O77 Cd74 2.333 . S
O77 C79 1.214 . S
O78 Cd74 2.352 . S
O78 C81 1.258 . S
C79 O76 1.320 . S
C79 O77 1.214 . S
O80 Cd72 2.277 1_556 S
O80 C75 1.209 . S
C81 O78 1.258 . S
C81 O83 1.282 . S
O82 Cd74 2.277 . S
O82 C75 1.226 . S
O83 Cd74 2.356 . S
O83 C81 1.282 . S
C84 O85 1.306 1_554 S
C84 O87 1.160 . S
O85 C84 1.306 1_556 S
O85 Cd86 2.228 . S
Cd86 O85 2.228 . S
Cd86 O90 2.273 1_556 S
Cd86 O94 2.277 1_556 S
O87 C84 1.160 . S
O87 Cd88 2.203 . S
Cd88 O87 2.203 . S
Cd88 O90 2.411 . S
Cd88 O91 2.333 . S
Cd88 O92 2.352 . S
Cd88 O96 2.277 . S
Cd88 O97 2.356 . S
C89 O94 1.209 . S
C89 O96 1.226 . S
O90 Cd86 2.273 1_554 S
O90 Cd88 2.411 . S
O90 C93 1.320 . S
O91 Cd88 2.333 . S
O91 C93 1.214 . S
O92 Cd88 2.352 . S
O92 C95 1.258 . S
C93 O90 1.320 . S
C93 O91 1.214 . S
O94 Cd86 2.277 1_554 S
O94 C89 1.209 . S
C95 O92 1.258 . S
C95 O97 1.282 . S
O96 Cd88 2.277 . S
O96 C89 1.226 . S
O97 Cd88 2.356 . S
O97 C95 1.282 . S
C98 O99 1.306 1_556 S
C98 O101 1.160 . S
O99 C98 1.306 1_554 S
O99 Cd100 2.228 . S
Cd100 O99 2.228 . S
Cd100 O104 2.273 1_554 S
Cd100 O108 2.277 1_554 S
O101 C98 1.160 . S
O101 Cd102 2.203 . S
Cd102 O101 2.203 . S
Cd102 O104 2.411 . S
Cd102 O105 2.333 . S
Cd102 O106 2.352 . S
Cd102 O110 2.277 . S
Cd102 O111 2.356 . S
C103 O108 1.209 . S
C103 O110 1.226 . S
O104 Cd100 2.273 1_556 S
O104 Cd102 2.411 . S
O104 C107 1.320 . S
O105 Cd102 2.333 . S
O105 C107 1.214 . S
O106 Cd102 2.352 . S
O106 C109 1.258 . S
C107 O104 1.320 . S
C107 O105 1.214 . S
O108 Cd100 2.277 1_556 S
O108 C103 1.209 . S
C109 O106 1.258 . S
C109 O111 1.282 . S
O110 Cd102 2.277 . S
O110 C103 1.226 . S
O111 Cd102 2.356 . S
O111 C109 1.282 . S
C112 O113 1.306 . S
C112 O115 1.160 . S
O113 C112 1.306 . S
O113 Cd114 2.228 . S
Cd114 O113 2.228 . S
Cd114 O118 2.273 . S
Cd114 O122 2.277 . S
O115 C112 1.160 . S
O115 Cd116 2.203 . S
Cd116 O115 2.203 . S
Cd116 O118 2.411 . S
Cd116 O119 2.333 . S
Cd116 O120 2.352 . S
Cd116 O124 2.277 . S
Cd116 O125 2.356 . S
C117 O122 1.209 . S
C117 O124 1.226 . S
O118 Cd114 2.273 . S
O118 Cd116 2.411 . S
O118 C121 1.320 . S
O119 Cd116 2.333 . S
O119 C121 1.214 . S
O120 Cd116 2.352 . S
O120 C123 1.258 . S
C121 O118 1.320 . S
C121 O119 1.214 . S
O122 Cd114 2.277 . S
O122 C117 1.209 . S
C123 O120 1.258 . S
C123 O125 1.282 . S
O124 Cd116 2.277 . S
O124 C117 1.226 . S
O125 Cd116 2.356 . S
O125 C123 1.282 . S
C126 O127 1.306 . S
C126 O129 1.160 . S
O127 C126 1.306 . S
O127 Cd128 2.228 . S
Cd128 O127 2.228 . S
Cd128 O132 2.273 . S
Cd128 O136 2.277 . S
O129 C126 1.160 . S
O129 Cd130 2.203 . S
Cd130 O129 2.203 . S
Cd130 O132 2.411 . S
Cd130 O133 2.333 . S
Cd130 O134 2.352 . S
Cd130 O138 2.277 . S
Cd130 O139 2.356 . S
C131 O136 1.209 . S
C131 O138 1.226 . S
O132 Cd128 2.273 . S
O132 Cd130 2.411 . S
O132 C135 1.320 . S
O133 Cd130 2.333 . S
O133 C135 1.214 . S
O134 Cd130 2.352 . S
O134 C137 1.258 . S
C135 O132 1.320 . S
C135 O133 1.214 . S
O136 Cd128 2.277 . S
O136 C131 1.209 . S
C137 O134 1.258 . S
C137 O139 1.282 . S
O138 Cd130 2.277 . S
O138 C131 1.226 . S
O139 Cd130 2.356 . S
O139 C137 1.282 . S
C140 O141 1.306 . S
C140 O143 1.160 . S
O141 C140 1.306 . S
O141 Cd142 2.228 . S
Cd142 O141 2.228 . S
Cd142 O146 2.273 . S
Cd142 O150 2.277 . S
O143 C140 1.160 . S
O143 Cd144 2.203 . S
Cd144 O143 2.203 . S
Cd144 O146 2.411 . S
Cd144 O147 2.333 . S
Cd144 O148 2.352 . S
Cd144 O152 2.277 . S
Cd144 O153 2.356 . S
C145 O150 1.209 . S
C145 O152 1.226 . S
O146 Cd142 2.273 . S
O146 Cd144 2.411 . S
O146 C149 1.320 . S
O147 Cd144 2.333 . S
O147 C149 1.214 . S
O148 Cd144 2.352 . S
O148 C151 1.258 . S
C149 O146 1.320 . S
C149 O147 1.214 . S
O150 Cd142 2.277 . S
O150 C145 1.209 . S
C151 O148 1.258 . S
C151 O153 1.282 . S
O152 Cd144 2.277 . S
O152 C145 1.226 . S
O153 Cd144 2.356 . S
O153 C151 1.282 . S
C154 O155 1.306 . S
C154 O157 1.160 . S
O155 C154 1.306 . S
O155 Cd156 2.228 . S
Cd156 O155 2.228 . S
Cd156 O160 2.273 . S
Cd156 O164 2.277 . S
O157 C154 1.160 . S
O157 Cd158 2.203 . S
Cd158 O157 2.203 . S
Cd158 O160 2.411 . S
Cd158 O161 2.333 . S
Cd158 O162 2.352 . S
Cd158 O166 2.277 . S
Cd158 O167 2.356 . S
C159 O164 1.209 . S
C159 O166 1.226 . S
O160 Cd156 2.273 . S
O160 Cd158 2.411 . S
O160 C163 1.320 . S
O161 Cd158 2.333 . S
O161 C163 1.214 . S
O162 Cd158 2.352 . S
O162 C165 1.258 . S
C163 O160 1.320 . S
C163 O161 1.214 . S
O164 Cd156 2.277 . S
O164 C159 1.209 . S
C165 O162 1.258 . S
C165 O167 1.282 . S
O166 Cd158 2.277 . S
O166 C159 1.226 . S
O167 Cd158 2.356 . S
O167 C165 1.282 . S
C168 O169 1.306 . S
C168 O171 1.160 . S
O169 C168 1.306 . S
O169 Cd170 2.228 . S
Cd170 O169 2.228 . S
Cd170 O174 2.273 . S
Cd170 O178 2.277 . S
O171 C168 1.160 . S
O171 Cd172 2.203 . S
Cd172 O171 2.203 . S
Cd172 O174 2.411 . S
Cd172 O175 2.333 . S
Cd172 O176 2.352 . S
Cd172 O180 2.277 . S
Cd172 O181 2.356 . S
C173 O178 1.209 . S
C173 O180 1.226 . S
O174 Cd170 2.273 . S
O174 Cd172 2.411 . S
O174 C177 1.320 . S
O175 Cd172 2.333 . S
O175 C177 1.214 . S
O176 Cd172 2.352 . S
O176 C179 1.258 . S
C177 O174 1.320 . S
C177 O175 1.214 . S
O178 Cd170 2.277 . S
O178 C173 1.209 . S
C179 O176 1.258 . S
C179 O181 1.282 . S
O180 Cd172 2.277 . S
O180 C173 1.226 . S
O181 Cd172 2.356 . S
O181 C179 1.282 . S
C182 O183 1.306 . S
C182 O185 1.160 . S
O183 C182 1.306 . S
O183 Cd184 2.228 . S
Cd184 O183 2.228 . S
Cd184 O188 2.273 . S
Cd184 O192 2.277 . S
O185 C182 1.160 . S
O185 Cd186 2.203 . S
Cd186 O185 2.203 . S
Cd186 O188 2.411 . S
Cd186 O189 2.333 . S
Cd186 O190 2.352 . S
Cd186 O194 2.277 . S
Cd186 O195 2.356 . S
C187 O192 1.209 . S
C187 O194 1.226 . S
O188 Cd184 2.273 . S
O188 Cd186 2.411 . S
O188 C191 1.320 . S
O189 Cd186 2.333 . S
O189 C191 1.214 . S
O190 Cd186 2.352 . S
O190 C193 1.258 . S
C191 O188 1.320 . S
C191 O189 1.214 . S
O192 Cd184 2.277 . S
O192 C187 1.209 . S
C193 O190 1.258 . S
C193 O195 1.282 . S
O194 Cd186 2.277 . S
O194 C187 1.226 . S
O195 Cd186 2.356 . S
O195 C193 1.282 . S
C196 O197 1.306 . S
C196 O199 1.160 . S
O197 C196 1.306 . S
O197 Cd198 2.228 . S
Cd198 O197 2.228 . S
Cd198 O202 2.273 . S
Cd198 O206 2.277 . S
O199 C196 1.160 . S
O199 Cd200 2.203 . S
Cd200 O199 2.203 . S
Cd200 O202 2.411 . S
Cd200 O203 2.333 . S
Cd200 O204 2.352 . S
Cd200 O208 2.277 . S
Cd200 O209 2.356 . S
C201 O206 1.209 . S
C201 O208 1.226 . S
O202 Cd198 2.273 . S
O202 Cd200 2.411 . S
O202 C205 1.320 . S
O203 Cd200 2.333 . S
O203 C205 1.214 . S
O204 Cd200 2.352 . S
O204 C207 1.258 . S
C205 O202 1.320 . S
C205 O203 1.214 . S
O206 Cd198 2.277 . S
O206 C201 1.209 . S
C207 O204 1.258 . S
C207 O209 1.282 . S
O208 Cd200 2.277 . S
O208 C201 1.226 . S
O209 Cd200 2.356 . S
O209 C207 1.282 . S
C210 O211 1.306 . S
C210 O213 1.160 . S
O211 C210 1.306 . S
O211 Cd212 2.228 . S
Cd212 O211 2.228 . S
Cd212 O216 2.273 . S
Cd212 O220 2.277 . S
O213 C210 1.160 . S
O213 Cd214 2.203 . S
Cd214 O213 2.203 . S
Cd214 O216 2.411 . S
Cd214 O217 2.333 . S
Cd214 O218 2.352 . S
Cd214 O222 2.277 . S
Cd214 O223 2.356 . S
C215 O220 1.209 . S
C215 O222 1.226 . S
O216 Cd212 2.273 . S
O216 Cd214 2.411 . S
O216 C219 1.320 . S
O217 Cd214 2.333 . S
O217 C219 1.214 . S
O218 Cd214 2.352 . S
O218 C221 1.258 . S
C219 O216 1.320 . S
C219 O217 1.214 . S
O220 Cd212 2.277 . S
O220 C215 1.209 . S
C221 O218 1.258 . S
C221 O223 1.282 . S
O222 Cd214 2.277 . S
O222 C215 1.226 . S
O223 Cd214 2.356 . S
O223 C221 1.282 . S
H224 C232 0.950 . S
H225 C237 0.950 . S
H226 C234 0.950 . S
H227 C236 0.950 . S
H228 C238 0.950 . S
H229 C240 0.950 . S
H230 C242 0.950 . S
H231 C243 0.950 . S
C232 H224 0.950 . S
C232 C233 1.386 . S
C232 C234 1.391 . S
C233 C232 1.386 . S
C233 C237 1.393 . S
C234 H226 0.950 . S
C234 C232 1.391 . S
C234 C235 1.400 . S
C235 C234 1.400 . S
C235 C236 1.398 . S
C235 C241 1.491 1_565 S
C236 H227 0.950 . S
C236 C235 1.398 . S
C236 C237 1.391 . S
C237 H225 0.950 . S
C237 C233 1.393 . S
C237 C236 1.391 . S
C238 H228 0.950 . S
C238 C239 1.386 . S
C238 C240 1.391 . S
C239 C238 1.386 . S
C239 C243 1.393 . S
C240 H229 0.950 . S
C240 C238 1.391 . S
C240 C241 1.400 . S
C241 C235 1.491 1_545 S
C241 C240 1.400 . S
C241 C242 1.398 . S
C242 H230 0.950 . S
C242 C241 1.398 . S
C242 C243 1.391 . S
C243 H231 0.950 . S
C243 C239 1.393 . S
C243 C242 1.391 . S
H244 C252 0.950 . S
H245 C257 0.950 . S
H246 C254 0.950 . S
H247 C256 0.950 . S
H248 C258 0.950 . S
H249 C260 0.950 . S
H250 C262 0.950 . S
H251 C263 0.950 . S
C252 H244 0.950 . S
C252 C253 1.386 . S
C252 C254 1.391 . S
C253 C252 1.386 . S
C253 C257 1.393 . S
C254 H246 0.950 . S
C254 C252 1.391 . S
C254 C255 1.400 . S
C255 C254 1.400 . S
C255 C256 1.398 . S
C255 C261 1.491 1_455 S
C256 H247 0.950 . S
C256 C255 1.398 . S
C256 C257 1.391 . S
C257 H245 0.950 . S
C257 C253 1.393 . S
C257 C256 1.391 . S
C258 H248 0.950 . S
C258 C259 1.386 . S
C258 C260 1.391 . S
C259 C258 1.386 . S
C259 C263 1.393 . S
C260 H249 0.950 . S
C260 C258 1.391 . S
C260 C261 1.400 . S
C261 C255 1.491 1_655 S
C261 C260 1.400 . S
C261 C262 1.398 . S
C262 H250 0.950 . S
C262 C261 1.398 . S
C262 C263 1.391 . S
C263 H251 0.950 . S
C263 C259 1.393 . S
C263 C262 1.391 . S
H264 C272 0.950 . S
H265 C277 0.950 . S
H266 C274 0.950 . S
H267 C276 0.950 . S
H268 C278 0.950 . S
H269 C280 0.950 . S
H270 C282 0.950 . S
H271 C283 0.950 . S
C272 H264 0.950 . S
C272 C273 1.386 . S
C272 C274 1.391 . S
C273 C272 1.386 . S
C273 C277 1.393 . S
C274 H266 0.950 . S
C274 C272 1.391 . S
C274 C275 1.400 . S
C275 C274 1.400 . S
C275 C276 1.398 . S
C275 C281 1.491 1_565 S
C276 H267 0.950 . S
C276 C275 1.398 . S
C276 C277 1.391 . S
C277 H265 0.950 . S
C277 C273 1.393 . S
C277 C276 1.391 . S
C278 H268 0.950 . S
C278 C279 1.386 . S
C278 C280 1.391 . S
C279 C278 1.386 . S
C279 C283 1.393 . S
C280 H269 0.950 . S
C280 C278 1.391 . S
C280 C281 1.400 . S
C281 C275 1.491 1_545 S
C281 C280 1.400 . S
C281 C282 1.398 . S
C282 H270 0.950 . S
C282 C281 1.398 . S
C282 C283 1.391 . S
C283 H271 0.950 . S
C283 C279 1.393 . S
C283 C282 1.391 . S
H284 C292 0.950 . S
H285 C297 0.950 . S
H286 C294 0.950 . S
H287 C296 0.950 . S
H288 C298 0.950 . S
H289 C300 0.950 . S
H290 C302 0.950 . S
H291 C303 0.950 . S
C292 H284 0.950 . S
C292 C293 1.386 . S
C292 C294 1.391 . S
C293 C292 1.386 . S
C293 C297 1.393 . S
C294 H286 0.950 . S
C294 C292 1.391 . S
C294 C295 1.400 . S
C295 C294 1.400 . S
C295 C296 1.398 . S
C295 C301 1.491 1_455 S
C296 H287 0.950 . S
C296 C295 1.398 . S
C296 C297 1.391 . S
C297 H285 0.950 . S
C297 C293 1.393 . S
C297 C296 1.391 . S
C298 H288 0.950 . S
C298 C299 1.386 . S
C298 C300 1.391 . S
C299 C298 1.386 . S
C299 C303 1.393 . S
C300 H289 0.950 . S
C300 C298 1.391 . S
C300 C301 1.400 . S
C301 C295 1.491 1_655 S
C301 C300 1.400 . S
C301 C302 1.398 . S
C302 H290 0.950 . S
C302 C301 1.398 . S
C302 C303 1.391 . S
C303 H291 0.950 . S
C303 C299 1.393 . S
C303 C302 1.391 . S
H304 C312 0.950 1_554 S
H305 C317 0.950 . S
H306 C314 0.950 . S
H307 C316 0.950 . S
H308 C318 0.950 . S
H309 C320 0.950 . S
H310 C322 0.950 . S
H311 C323 0.950 . S
C312 H304 0.950 1_556 S
C312 C313 1.386 . S
C312 C314 1.391 . S
C313 C312 1.386 . S
C313 C317 1.393 . S
C314 H306 0.950 . S
C314 C312 1.391 . S
C314 C315 1.400 . S
C315 C314 1.400 . S
C315 C316 1.398 . S
C315 C321 1.491 . S
C316 H307 0.950 . S
C316 C315 1.398 . S
C316 C317 1.391 . S
C317 H305 0.950 . S
C317 C313 1.393 . S
C317 C316 1.391 . S
C318 H308 0.950 . S
C318 C319 1.386 . S
C318 C320 1.391 . S
C319 C318 1.386 . S
C319 C323 1.393 . S
C320 H309 0.950 . S
C320 C318 1.391 . S
C320 C321 1.400 . S
C321 C315 1.491 . S
C321 C320 1.400 . S
C321 C322 1.398 . S
C322 H310 0.950 . S
C322 C321 1.398 . S
C322 C323 1.391 . S
C323 H311 0.950 . S
C323 C319 1.393 . S
C323 C322 1.391 . S
H324 C332 0.950 . S
H325 C337 0.950 . S
H326 C334 0.950 . S
H327 C336 0.950 . S
H328 C338 0.950 . S
H329 C340 0.950 . S
H330 C342 0.950 . S
H331 C343 0.950 . S
C332 H324 0.950 . S
C332 C333 1.386 . S
C332 C334 1.391 . S
C333 C332 1.386 . S
C333 C337 1.393 . S
C334 H326 0.950 . S
C334 C332 1.391 . S
C334 C335 1.400 . S
C335 C334 1.400 . S
C335 C336 1.398 . S
C335 C341 1.491 . S
C336 H327 0.950 . S
C336 C335 1.398 . S
C336 C337 1.391 . S
C337 H325 0.950 . S
C337 C333 1.393 . S
C337 C336 1.391 . S
C338 H328 0.950 . S
C338 C339 1.386 . S
C338 C340 1.391 . S
C339 C338 1.386 . S
C339 C343 1.393 . S
C340 H329 0.950 . S
C340 C338 1.391 . S
C340 C341 1.400 . S
C341 C335 1.491 . S
C341 C340 1.400 . S
C341 C342 1.398 . S
C342 H330 0.950 . S
C342 C341 1.398 . S
C342 C343 1.391 . S
C343 H331 0.950 . S
C343 C339 1.393 . S
C343 C342 1.391 . S
H344 C352 0.950 . S
H345 C357 0.950 1_554 S
H346 C354 0.950 . S
H347 C356 0.950 1_554 S
H348 C358 0.950 . S
H349 C360 0.950 . S
H350 C362 0.950 . S
H351 C363 0.950 . S
C352 H344 0.950 . S
C352 C353 1.386 . S
C352 C354 1.391 . S
C353 C352 1.386 . S
C353 C357 1.393 . S
C354 H346 0.950 . S
C354 C352 1.391 . S
C354 C355 1.400 . S
C355 C354 1.400 . S
C355 C356 1.398 . S
C355 C361 1.491 . S
C356 H347 0.950 1_556 S
C356 C355 1.398 . S
C356 C357 1.391 . S
C357 H345 0.950 1_556 S
C357 C353 1.393 . S
C357 C356 1.391 . S
C358 H348 0.950 . S
C358 C359 1.386 1_554 S
C358 C360 1.391 . S
C359 C358 1.386 1_556 S
C359 C363 1.393 . S
C360 H349 0.950 . S
C360 C358 1.391 . S
C360 C361 1.400 1_554 S
C361 C355 1.491 . S
C361 C360 1.400 1_556 S
C361 C362 1.398 . S
C362 H350 0.950 . S
C362 C361 1.398 . S
C362 C363 1.391 . S
C363 H351 0.950 . S
C363 C359 1.393 . S
C363 C362 1.391 . S
H364 C372 0.950 1_556 S
H365 C377 0.950 . S
H366 C374 0.950 1_556 S
H367 C376 0.950 . S
H368 C378 0.950 . S
H369 C380 0.950 . S
H370 C382 0.950 . S
H371 C383 0.950 . S
C372 H364 0.950 1_554 S
C372 C373 1.386 . S
C372 C374 1.391 . S
C373 C372 1.386 . S
C373 C377 1.393 . S
C374 H366 0.950 1_554 S
C374 C372 1.391 . S
C374 C375 1.400 . S
C375 C374 1.400 . S
C375 C376 1.398 . S
C375 C381 1.491 . S
C376 H367 0.950 . S
C376 C375 1.398 . S
C376 C377 1.391 . S
C377 H365 0.950 . S
C377 C373 1.393 . S
C377 C376 1.391 . S
C378 H368 0.950 . S
C378 C379 1.386 . S
C378 C380 1.391 . S
C379 C378 1.386 . S
C379 C383 1.393 1_554 S
C380 H369 0.950 . S
C380 C378 1.391 . S
C380 C381 1.400 . S
C381 C375 1.491 . S
C381 C380 1.400 . S
C381 C382 1.398 1_554 S
C382 H370 0.950 . S
C382 C381 1.398 1_556 S
C382 C383 1.391 . S
C383 H371 0.950 . S
C383 C379 1.393 1_556 S
C383 C382 1.391 . S
H384 C392 0.950 . S
H385 C397 0.950 . S
H386 C394 0.950 . S
H387 C396 0.950 . S
H388 C398 0.950 . S
H389 C400 0.950 . S
H390 C402 0.950 . S
H391 C403 0.950 . S
C392 H384 0.950 . S
C392 C393 1.386 . S
C392 C394 1.391 . S
C393 C392 1.386 . S
C393 C397 1.393 . S
C394 H386 0.950 . S
C394 C392 1.391 . S
C394 C395 1.400 . S
C395 C394 1.400 . S
C395 C396 1.398 . S
C395 C401 1.491 . S
C396 H387 0.950 . S
C396 C395 1.398 . S
C396 C397 1.391 . S
C397 H385 0.950 . S
C397 C393 1.393 . S
C397 C396 1.391 . S
C398 H388 0.950 . S
C398 C399 1.386 . S
C398 C400 1.391 . S
C399 C398 1.386 . S
C399 C403 1.393 . S
C400 H389 0.950 . S
C400 C398 1.391 . S
C400 C401 1.400 . S
C401 C395 1.491 . S
C401 C400 1.400 . S
C401 C402 1.398 . S
C402 H390 0.950 . S
C402 C401 1.398 . S
C402 C403 1.391 . S
C403 H391 0.950 . S
C403 C399 1.393 . S
C403 C402 1.391 . S
H404 C412 0.950 . S
H405 C417 0.950 . S
H406 C414 0.950 . S
H407 C416 0.950 . S
H408 C418 0.950 . S
H409 C420 0.950 . S
H410 C422 0.950 . S
H411 C423 0.950 . S
C412 H404 0.950 . S
C412 C413 1.386 . S
C412 C414 1.391 . S
C413 C412 1.386 . S
C413 C417 1.393 . S
C414 H406 0.950 . S
C414 C412 1.391 . S
C414 C415 1.400 . S
C415 C414 1.400 . S
C415 C416 1.398 . S
C415 C421 1.491 . S
C416 H407 0.950 . S
C416 C415 1.398 . S
C416 C417 1.391 . S
C417 H405 0.950 . S
C417 C413 1.393 . S
C417 C416 1.391 . S
C418 H408 0.950 . S
C418 C419 1.386 . S
C418 C420 1.391 . S
C419 C418 1.386 . S
C419 C423 1.393 . S
C420 H409 0.950 . S
C420 C418 1.391 . S
C420 C421 1.400 . S
C421 C415 1.491 . S
C421 C420 1.400 . S
C421 C422 1.398 . S
C422 H410 0.950 . S
C422 C421 1.398 . S
C422 C423 1.391 . S
C423 H411 0.950 . S
C423 C419 1.393 . S
C423 C422 1.391 . S
H424 C432 0.950 . S
H425 C437 0.950 . S
H426 C434 0.950 . S
H427 C436 0.950 . S
H428 C438 0.950 . S
H429 C440 0.950 . S
H430 C442 0.950 . S
H431 C443 0.950 . S
C432 H424 0.950 . S
C432 C433 1.386 . S
C432 C434 1.391 . S
C433 C432 1.386 . S
C433 C437 1.393 . S
C434 H426 0.950 . S
C434 C432 1.391 . S
C434 C435 1.400 . S
C435 C434 1.400 . S
C435 C436 1.398 . S
C435 C441 1.491 . S
C436 H427 0.950 . S
C436 C435 1.398 . S
C436 C437 1.391 . S
C437 H425 0.950 . S
C437 C433 1.393 . S
C437 C436 1.391 . S
C438 H428 0.950 . S
C438 C439 1.386 . S
C438 C440 1.391 . S
C439 C438 1.386 . S
C439 C443 1.393 . S
C440 H429 0.950 . S
C440 C438 1.391 . S
C440 C441 1.400 . S
C441 C435 1.491 . S
C441 C440 1.400 . S
C441 C442 1.398 . S
C442 H430 0.950 . S
C442 C441 1.398 . S
C442 C443 1.391 . S
C443 H431 0.950 . S
C443 C439 1.393 . S
C443 C442 1.391 . S
H444 C452 0.950 . S
H445 C457 0.950 . S
H446 C454 0.950 . S
H447 C456 0.950 . S
H448 C458 0.950 . S
H449 C460 0.950 . S
H450 C462 0.950 . S
H451 C463 0.950 . S
C452 H444 0.950 . S
C452 C453 1.386 . S
C452 C454 1.391 . S
C453 C452 1.386 . S
C453 C457 1.393 . S
C454 H446 0.950 . S
C454 C452 1.391 . S
C454 C455 1.400 . S
C455 C454 1.400 . S
C455 C456 1.398 . S
C455 C461 1.491 . S
C456 H447 0.950 . S
C456 C455 1.398 . S
C456 C457 1.391 . S
C457 H445 0.950 . S
C457 C453 1.393 . S
C457 C456 1.391 . S
C458 H448 0.950 . S
C458 C459 1.386 . S
C458 C460 1.391 . S
C459 C458 1.386 . S
C459 C463 1.393 . S
C460 H449 0.950 . S
C460 C458 1.391 . S
C460 C461 1.400 . S
C461 C455 1.491 . S
C461 C460 1.400 . S
C461 C462 1.398 . S
C462 H450 0.950 . S
C462 C461 1.398 . S
C462 C463 1.391 . S
C463 H451 0.950 . S
C463 C459 1.393 . S
C463 C462 1.391 . S
H464 C472 0.950 . S
H465 C477 0.950 . S
H466 C474 0.950 . S
H467 C476 0.950 . S
H468 C478 0.950 . S
H469 C480 0.950 . S
H470 C482 0.950 . S
H471 C483 0.950 . S
C472 H464 0.950 . S
C472 C473 1.386 . S
C472 C474 1.391 . S
C473 C472 1.386 . S
C473 C477 1.393 . S
C474 H466 0.950 . S
C474 C472 1.391 . S
C474 C475 1.400 . S
C475 C474 1.400 . S
C475 C476 1.398 . S
C475 C481 1.491 1_565 S
C476 H467 0.950 . S
C476 C475 1.398 . S
C476 C477 1.391 . S
C477 H465 0.950 . S
C477 C473 1.393 . S
C477 C476 1.391 . S
C478 H468 0.950 . S
C478 C479 1.386 . S
C478 C480 1.391 . S
C479 C478 1.386 . S
C479 C483 1.393 . S
C480 H469 0.950 . S
C480 C478 1.391 . S
C480 C481 1.400 . S
C481 C475 1.491 1_545 S
C481 C480 1.400 . S
C481 C482 1.398 . S
C482 H470 0.950 . S
C482 C481 1.398 . S
C482 C483 1.391 . S
C483 H471 0.950 . S
C483 C479 1.393 . S
C483 C482 1.391 . S
H484 C492 0.950 . S
H485 C497 0.950 . S
H486 C494 0.950 . S
H487 C496 0.950 . S
H488 C498 0.950 . S
H489 C500 0.950 . S
H490 C502 0.950 . S
H491 C503 0.950 . S
C492 H484 0.950 . S
C492 C493 1.386 . S
C492 C494 1.391 . S
C493 C492 1.386 . S
C493 C497 1.393 . S
C494 H486 0.950 . S
C494 C492 1.391 . S
C494 C495 1.400 . S
C495 C494 1.400 . S
C495 C496 1.398 . S
C495 C501 1.491 1_655 S
C496 H487 0.950 . S
C496 C495 1.398 . S
C496 C497 1.391 . S
C497 H485 0.950 . S
C497 C493 1.393 . S
C497 C496 1.391 . S
C498 H488 0.950 . S
C498 C499 1.386 . S
C498 C500 1.391 . S
C499 C498 1.386 . S
C499 C503 1.393 . S
C500 H489 0.950 . S
C500 C498 1.391 . S
C500 C501 1.400 . S
C501 C495 1.491 1_455 S
C501 C500 1.400 . S
C501 C502 1.398 . S
C502 H490 0.950 . S
C502 C501 1.398 . S
C502 C503 1.391 . S
C503 H491 0.950 . S
C503 C499 1.393 . S
C503 C502 1.391 . S
H504 C512 0.950 . S
H505 C517 0.950 . S
H506 C514 0.950 . S
H507 C516 0.950 . S
H508 C518 0.950 . S
H509 C520 0.950 . S
H510 C522 0.950 . S
H511 C523 0.950 . S
C512 H504 0.950 . S
C512 C513 1.386 . S
C512 C514 1.391 . S
C513 C512 1.386 . S
C513 C517 1.393 . S
C514 H506 0.950 . S
C514 C512 1.391 . S
C514 C515 1.400 . S
C515 C514 1.400 . S
C515 C516 1.398 . S
C515 C521 1.491 1_565 S
C516 H507 0.950 . S
C516 C515 1.398 . S
C516 C517 1.391 . S
C517 H505 0.950 . S
C517 C513 1.393 . S
C517 C516 1.391 . S
C518 H508 0.950 . S
C518 C519 1.386 . S
C518 C520 1.391 . S
C519 C518 1.386 . S
C519 C523 1.393 . S
C520 H509 0.950 . S
C520 C518 1.391 . S
C520 C521 1.400 . S
C521 C515 1.491 1_545 S
C521 C520 1.400 . S
C521 C522 1.398 . S
C522 H510 0.950 . S
C522 C521 1.398 . S
C522 C523 1.391 . S
C523 H511 0.950 . S
C523 C519 1.393 . S
C523 C522 1.391 . S
H524 C532 0.950 . S
H525 C537 0.950 . S
H526 C534 0.950 . S
H527 C536 0.950 . S
H528 C538 0.950 . S
H529 C540 0.950 . S
H530 C542 0.950 . S
H531 C543 0.950 . S
C532 H524 0.950 . S
C532 C533 1.386 . S
C532 C534 1.391 . S
C533 C532 1.386 . S
C533 C537 1.393 . S
C534 H526 0.950 . S
C534 C532 1.391 . S
C534 C535 1.400 . S
C535 C534 1.400 . S
C535 C536 1.398 . S
C535 C541 1.491 1_655 S
C536 H527 0.950 . S
C536 C535 1.398 . S
C536 C537 1.391 . S
C537 H525 0.950 . S
C537 C533 1.393 . S
C537 C536 1.391 . S
C538 H528 0.950 . S
C538 C539 1.386 . S
C538 C540 1.391 . S
C539 C538 1.386 . S
C539 C543 1.393 . S
C540 H529 0.950 . S
C540 C538 1.391 . S
C540 C541 1.400 . S
C541 C535 1.491 1_455 S
C541 C540 1.400 . S
C541 C542 1.398 . S
C542 H530 0.950 . S
C542 C541 1.398 . S
C542 C543 1.391 . S
C543 H531 0.950 . S
C543 C539 1.393 . S
C543 C542 1.391 . S
H544 C552 0.950 . S
H545 C557 0.950 . S
H546 C554 0.950 . S
H547 C556 0.950 . S
H548 C558 0.950 . S
H549 C560 0.950 . S
H550 C562 0.950 . S
H551 C563 0.950 . S
C552 H544 0.950 . S
C552 C553 1.386 . S
C552 C554 1.391 . S
C553 C552 1.386 . S
C553 C557 1.393 . S
C554 H546 0.950 . S
C554 C552 1.391 . S
C554 C555 1.400 . S
C555 C554 1.400 . S
C555 C556 1.398 . S
C555 C561 1.491 . S
C556 H547 0.950 . S
C556 C555 1.398 . S
C556 C557 1.391 . S
C557 H545 0.950 . S
C557 C553 1.393 . S
C557 C556 1.391 . S
C558 H548 0.950 . S
C558 C559 1.386 . S
C558 C560 1.391 . S
C559 C558 1.386 . S
C559 C563 1.393 . S
C560 H549 0.950 . S
C560 C558 1.391 . S
C560 C561 1.400 . S
C561 C555 1.491 . S
C561 C560 1.400 . S
C561 C562 1.398 . S
C562 H550 0.950 . S
C562 C561 1.398 . S
C562 C563 1.391 . S
C563 H551 0.950 . S
C563 C559 1.393 . S
C563 C562 1.391 . S
H564 C572 0.950 . S
H565 C577 0.950 . S
H566 C574 0.950 . S
H567 C576 0.950 . S
H568 C578 0.950 1_554 S
H569 C580 0.940 1_554 S
H570 C582 0.950 . S
H571 C583 0.950 . S
C572 H564 0.950 . S
C572 C573 1.386 . S
C572 C574 1.391 . S
C573 C572 1.386 . S
C573 C577 1.393 . S
C574 H566 0.950 . S
C574 C572 1.391 . S
C574 C575 1.400 . S
C575 C574 1.400 . S
C575 C576 1.398 . S
C575 C581 1.491 . S
C576 H567 0.950 . S
C576 C575 1.398 . S
C576 C577 1.391 . S
C577 H565 0.950 . S
C577 C573 1.393 . S
C577 C576 1.391 . S
C578 H568 0.950 1_556 S
C578 C579 1.386 . S
C578 C580 1.391 . S
C579 C578 1.386 . S
C579 C583 1.393 . S
C580 H569 0.940 1_556 S
C580 C578 1.391 . S
C580 C581 1.400 . S
C581 C575 1.491 . S
C581 C580 1.400 . S
C581 C582 1.398 . S
C582 H570 0.950 . S
C582 C581 1.398 . S
C582 C583 1.391 . S
C583 H571 0.950 . S
C583 C579 1.393 . S
C583 C582 1.391 . S
H584 C592 0.950 . S
H585 C597 0.950 . S
H586 C594 0.950 . S
H587 C596 0.950 . S
H588 C598 0.950 . S
H589 C600 0.950 . S
H590 C602 0.950 . S
H591 C603 0.950 1_556 S
C592 H584 0.950 . S
C592 C593 1.386 . S
C592 C594 1.391 . S
C593 C592 1.386 . S
C593 C597 1.393 . S
C594 H586 0.950 . S
C594 C592 1.391 . S
C594 C595 1.400 . S
C595 C594 1.400 . S
C595 C596 1.398 . S
C595 C601 1.491 . S
C596 H587 0.950 . S
C596 C595 1.398 . S
C596 C597 1.391 . S
C597 H585 0.950 . S
C597 C593 1.393 . S
C597 C596 1.391 . S
C598 H588 0.950 . S
C598 C599 1.386 . S
C598 C600 1.391 . S
C599 C598 1.386 . S
C599 C603 1.393 . S
C600 H589 0.950 . S
C600 C598 1.391 . S
C600 C601 1.400 . S
C601 C595 1.491 . S
C601 C600 1.400 . S
C601 C602 1.398 . S
C602 H590 0.950 . S
C602 C601 1.398 . S
C602 C603 1.391 . S
C603 H591 0.950 1_554 S
C603 C599 1.393 . S
C603 C602 1.391 . S
H604 C612 0.950 . S
H605 C617 0.950 1_554 S
H606 C614 0.950 . S
H607 C616 0.950 . S
H608 C618 0.950 . S
H609 C620 0.950 . S
H610 C622 0.950 . S
H611 C623 0.950 . S
C612 H604 0.950 . S
C612 C613 1.386 . S
C612 C614 1.391 . S
C613 C612 1.386 . S
C613 C617 1.393 . S
C614 H606 0.950 . S
C614 C612 1.391 . S
C614 C615 1.400 . S
C615 C614 1.400 . S
C615 C616 1.398 . S
C615 C621 1.491 . S
C616 H607 0.950 . S
C616 C615 1.398 . S
C616 C617 1.391 . S
C617 H605 0.950 1_556 S
C617 C613 1.393 . S
C617 C616 1.391 . S
C618 H608 0.950 . S
C618 C619 1.386 . S
C618 C620 1.391 . S
C619 C618 1.386 . S
C619 C623 1.393 . S
C620 H609 0.950 . S
C620 C618 1.391 . S
C620 C621 1.400 . S
C621 C615 1.491 . S
C621 C620 1.400 . S
C621 C622 1.398 . S
C622 H610 0.950 . S
C622 C621 1.398 . S
C622 C623 1.391 . S
C623 H611 0.950 . S
C623 C619 1.393 . S
C623 C622 1.391 . S
H624 C632 0.950 . S
H625 C637 0.950 . S
H626 C634 0.950 . S
H627 C636 0.950 . S
H628 C638 0.950 . S
H629 C640 0.950 . S
H630 C642 0.950 . S
H631 C643 0.950 . S
C632 H624 0.950 . S
C632 C633 1.386 . S
C632 C634 1.391 . S
C633 C632 1.386 . S
C633 C637 1.393 . S
C634 H626 0.950 . S
C634 C632 1.391 . S
C634 C635 1.400 . S
C635 C634 1.400 . S
C635 C636 1.398 . S
C635 C641 1.491 . S
C636 H627 0.950 . S
C636 C635 1.398 . S
C636 C637 1.391 . S
C637 H625 0.950 . S
C637 C633 1.393 . S
C637 C636 1.391 . S
C638 H628 0.950 . S
C638 C639 1.386 . S
C638 C640 1.391 . S
C639 C638 1.386 . S
C639 C643 1.393 . S
C640 H629 0.950 . S
C640 C638 1.391 . S
C640 C641 1.400 . S
C641 C635 1.491 . S
C641 C640 1.400 . S
C641 C642 1.398 . S
C642 H630 0.950 . S
C642 C641 1.398 . S
C642 C643 1.391 . S
C643 H631 0.950 . S
C643 C639 1.393 . S
C643 C642 1.391 . S
H644 C652 0.950 . S
H645 C657 0.950 . S
H646 C654 0.950 . S
H647 C656 0.950 . S
H648 C658 0.950 . S
H649 C660 0.950 . S
H650 C662 0.950 . S
H651 C663 0.950 . S
C652 H644 0.950 . S
C652 C653 1.386 . S
C652 C654 1.391 . S
C653 C652 1.386 . S
C653 C657 1.393 . S
C654 H646 0.950 . S
C654 C652 1.391 . S
C654 C655 1.400 . S
C655 C654 1.400 . S
C655 C656 1.398 . S
C655 C661 1.491 . S
C656 H647 0.950 . S
C656 C655 1.398 . S
C656 C657 1.391 . S
C657 H645 0.950 . S
C657 C653 1.393 . S
C657 C656 1.391 . S
C658 H648 0.950 . S
C658 C659 1.386 . S
C658 C660 1.391 . S
C659 C658 1.386 . S
C659 C663 1.393 . S
C660 H649 0.950 . S
C660 C658 1.391 . S
C660 C661 1.400 . S
C661 C655 1.491 . S
C661 C660 1.400 . S
C661 C662 1.398 . S
C662 H650 0.950 . S
C662 C661 1.398 . S
C662 C663 1.391 . S
C663 H651 0.950 . S
C663 C659 1.393 . S
C663 C662 1.391 . S
H664 C672 0.950 . S
H665 C677 0.950 . S
H666 C674 0.950 . S
H667 C676 0.950 . S
H668 C678 0.950 . S
H669 C680 0.950 . S
H670 C682 0.950 . S
H671 C683 0.950 . S
C672 H664 0.950 . S
C672 C673 1.386 . S
C672 C674 1.391 . S
C673 C672 1.386 . S
C673 C677 1.393 . S
C674 H666 0.950 . S
C674 C672 1.391 . S
C674 C675 1.400 . S
C675 C674 1.400 . S
C675 C676 1.398 . S
C675 C681 1.491 . S
C676 H667 0.950 . S
C676 C675 1.398 . S
C676 C677 1.391 . S
C677 H665 0.950 . S
C677 C673 1.393 . S
C677 C676 1.391 . S
C678 H668 0.950 . S
C678 C679 1.386 . S
C678 C680 1.391 . S
C679 C678 1.386 . S
C679 C683 1.393 . S
C680 H669 0.950 . S
C680 C678 1.391 . S
C680 C681 1.400 . S
C681 C675 1.491 . S
C681 C680 1.400 . S
C681 C682 1.398 . S
C682 H670 0.950 . S
C682 C681 1.398 . S
C682 C683 1.391 . S
C683 H671 0.950 . S
C683 C679 1.393 . S
C683 C682 1.391 . S
H684 C692 0.950 . S
H685 C697 0.950 . S
H686 C694 0.950 . S
H687 C696 0.950 . S
H688 C698 0.950 . S
H689 C700 0.950 . S
H690 C702 0.950 . S
H691 C703 0.950 . S
C692 H684 0.950 . S
C692 C693 1.386 . S
C692 C694 1.391 . S
C693 C692 1.386 . S
C693 C697 1.393 . S
C694 H686 0.950 . S
C694 C692 1.391 . S
C694 C695 1.400 . S
C695 C694 1.400 . S
C695 C696 1.398 . S
C695 C701 1.491 . S
C696 H687 0.950 . S
C696 C695 1.398 . S
C696 C697 1.391 . S
C697 H685 0.950 . S
C697 C693 1.393 . S
C697 C696 1.391 . S
C698 H688 0.950 . S
C698 C699 1.386 . S
C698 C700 1.391 . S
C699 C698 1.386 . S
C699 C703 1.393 . S
C700 H689 0.950 . S
C700 C698 1.391 . S
C700 C701 1.400 . S
C701 C695 1.491 . S
C701 C700 1.400 . S
C701 C702 1.398 . S
C702 H690 0.950 . S
C702 C701 1.398 . S
C702 C703 1.391 . S
C703 H691 0.950 . S
C703 C699 1.393 . S
C703 C702 1.391 . S
H704 C712 0.950 . S
H705 C717 0.950 . S
H706 C714 0.950 . S
H707 C716 0.950 . S
H708 C718 0.950 . S
H709 C720 0.950 . S
H710 C722 0.950 . S
H711 C723 0.950 . S
C712 H704 0.950 . S
C712 C713 1.386 . S
C712 C714 1.391 . S
C713 C712 1.386 . S
C713 C717 1.393 . S
C714 H706 0.950 . S
C714 C712 1.391 . S
C714 C715 1.400 . S
C715 C714 1.400 . S
C715 C716 1.398 . S
C715 C721 1.491 . S
C716 H707 0.950 . S
C716 C715 1.398 . S
C716 C717 1.391 . S
C717 H705 0.950 . S
C717 C713 1.393 . S
C717 C716 1.391 . S
C718 H708 0.950 . S
C718 C719 1.386 1_554 S
C718 C720 1.391 1_554 S
C719 C718 1.386 1_556 S
C719 C723 1.393 . S
C720 H709 0.950 . S
C720 C718 1.391 1_556 S
C720 C721 1.400 . S
C721 C715 1.491 . S
C721 C720 1.400 . S
C721 C722 1.398 . S
C722 H710 0.950 . S
C722 C721 1.398 . S
C722 C723 1.391 . S
C723 H711 0.950 . S
C723 C719 1.393 . S
C723 C722 1.391 . S
H724 C732 0.950 . S
H725 C737 0.950 . S
H726 C734 0.950 . S
H727 C736 0.950 . S
H728 C738 0.950 . S
H729 C740 0.950 . S
H730 C742 0.950 . S
H731 C743 0.950 . S
C732 H724 0.950 . S
C732 C733 1.386 . S
C732 C734 1.391 . S
C733 C732 1.386 . S
C733 C737 1.393 . S
C734 H726 0.950 . S
C734 C732 1.391 . S
C734 C735 1.400 . S
C735 C734 1.400 . S
C735 C736 1.398 . S
C735 C741 1.491 . S
C736 H727 0.950 . S
C736 C735 1.398 . S
C736 C737 1.391 . S
C737 H725 0.950 . S
C737 C733 1.393 . S
C737 C736 1.391 . S
C738 H728 0.950 . S
C738 C739 1.386 . S
C738 C740 1.391 . S
C739 C738 1.386 . S
C739 C743 1.393 . S
C740 H729 0.950 . S
C740 C738 1.391 . S
C740 C741 1.400 . S
C741 C735 1.491 . S
C741 C740 1.400 . S
C741 C742 1.398 . S
C742 H730 0.950 . S
C742 C741 1.398 . S
C742 C743 1.391 . S
C743 H731 0.950 . S
C743 C739 1.393 . S
C743 C742 1.391 . S
H744 C752 0.950 1_554 S
H745 C757 0.950 . S
H746 C754 0.950 . S
H747 C756 0.950 . S
H748 C758 0.950 . S
H749 C760 0.950 . S
H750 C762 0.950 . S
H751 C763 0.950 . S
C752 H744 0.950 1_556 S
C752 C753 1.386 . S
C752 C754 1.391 . S
C753 C752 1.386 . S
C753 C757 1.393 . S
C754 H746 0.950 . S
C754 C752 1.391 . S
C754 C755 1.400 . S
C755 C754 1.400 . S
C755 C756 1.398 . S
C755 C761 1.491 . S
C756 H747 0.950 . S
C756 C755 1.398 . S
C756 C757 1.391 . S
C757 H745 0.950 . S
C757 C753 1.393 . S
C757 C756 1.391 . S
C758 H748 0.950 . S
C758 C759 1.386 . S
C758 C760 1.391 . S
C759 C758 1.386 . S
C759 C763 1.393 . S
C760 H749 0.950 . S
C760 C758 1.391 . S
C760 C761 1.400 . S
C761 C755 1.491 . S
C761 C760 1.400 . S
C761 C762 1.398 . S
C762 H750 0.950 . S
C762 C761 1.398 . S
C762 C763 1.391 . S
C763 H751 0.950 . S
C763 C759 1.393 . S
C763 C762 1.391 . S
H764 C772 0.950 . S
H765 C777 0.950 . S
H766 C774 0.950 . S
H767 C776 0.950 . S
H768 C778 0.950 . S
H769 C780 0.950 . S
H770 C782 0.950 . S
H771 C783 0.950 . S
C772 H764 0.950 . S
C772 C773 1.386 . S
C772 C774 1.391 . S
C773 C772 1.386 . S
C773 C777 1.393 . S
C774 H766 0.950 . S
C774 C772 1.391 . S
C774 C775 1.400 . S
C775 C774 1.400 . S
C775 C776 1.398 . S
C775 C781 1.491 . S
C776 H767 0.950 . S
C776 C775 1.398 . S
C776 C777 1.391 . S
C777 H765 0.950 . S
C777 C773 1.393 . S
C777 C776 1.391 . S
C778 H768 0.950 . S
C778 C779 1.386 1_556 S
C778 C780 1.391 1_556 S
C779 C778 1.386 1_554 S
C779 C783 1.393 . S
C780 H769 0.950 . S
C780 C778 1.391 1_554 S
C780 C781 1.400 . S
C781 C775 1.491 . S
C781 C780 1.400 . S
C781 C782 1.398 . S
C782 H770 0.950 . S
C782 C781 1.398 . S
C782 C783 1.391 . S
C783 H771 0.950 . S
C783 C779 1.393 . S
C783 C782 1.391 . S
H784 C792 0.950 . S
H785 C797 0.950 . S
H786 C794 0.950 . S
H787 C796 0.950 . S
H788 C798 0.950 . S
H789 C800 0.950 . S
H790 C802 0.950 . S
H791 C803 0.950 . S
C792 H784 0.950 . S
C792 C793 1.386 . S
C792 C794 1.391 . S
C793 C792 1.386 . S
C793 C797 1.393 . S
C794 H786 0.950 . S
C794 C792 1.391 . S
C794 C795 1.400 . S
C795 C794 1.400 . S
C795 C796 1.398 . S
C795 C801 1.491 . S
C796 H787 0.950 . S
C796 C795 1.398 . S
C796 C797 1.391 . S
C797 H785 0.950 . S
C797 C793 1.393 . S
C797 C796 1.391 . S
C798 H788 0.950 . S
C798 C799 1.386 . S
C798 C800 1.391 . S
C799 C798 1.386 . S
C799 C803 1.393 . S
C800 H789 0.950 . S
C800 C798 1.391 . S
C800 C801 1.400 . S
C801 C795 1.491 . S
C801 C800 1.400 . S
C801 C802 1.398 . S
C802 H790 0.950 . S
C802 C801 1.398 . S
C802 C803 1.391 . S
C803 H791 0.950 . S
C803 C799 1.393 . S
C803 C802 1.391 . S
H804 C812 0.950 . S
H805 C817 0.950 . S
H806 C814 0.950 . S
H807 C816 0.950 . S
H808 C818 0.950 . S
H809 C820 0.950 . S
H810 C822 0.950 . S
H811 C823 0.950 . S
C812 H804 0.950 . S
C812 C813 1.386 . S
C812 C814 1.391 . S
C813 C812 1.386 . S
C813 C817 1.393 . S
C814 H806 0.950 . S
C814 C812 1.391 . S
C814 C815 1.400 . S
C815 C814 1.400 . S
C815 C816 1.398 . S
C815 C821 1.491 . S
C816 H807 0.950 . S
C816 C815 1.398 . S
C816 C817 1.391 . S
C817 H805 0.950 . S
C817 C813 1.393 . S
C817 C816 1.391 . S
C818 H808 0.950 . S
C818 C819 1.386 . S
C818 C820 1.391 . S
C819 C818 1.386 . S
C819 C823 1.393 . S
C820 H809 0.950 . S
C820 C818 1.391 . S
C820 C821 1.400 . S
C821 C815 1.491 . S
C821 C820 1.400 . S
C821 C822 1.398 . S
C822 H810 0.950 . S
C822 C821 1.398 . S
C822 C823 1.391 . S
C823 H811 0.950 . S
C823 C819 1.393 . S
C823 C822 1.391 . S
H824 C832 0.950 . S
H825 C837 0.950 . S
H826 C834 0.950 . S
H827 C836 0.950 . S
H828 C838 0.950 . S
H829 C840 0.950 . S
H830 C842 0.950 . S
H831 C843 0.950 . S
C832 H824 0.950 . S
C832 C833 1.386 . S
C832 C834 1.391 . S
C833 C832 1.386 . S
C833 C837 1.393 . S
C834 H826 0.950 . S
C834 C832 1.391 . S
C834 C835 1.400 . S
C835 C834 1.400 . S
C835 C836 1.398 . S
C835 C841 1.491 . S
C836 H827 0.950 . S
C836 C835 1.398 . S
C836 C837 1.391 . S
C837 H825 0.950 . S
C837 C833 1.393 . S
C837 C836 1.391 . S
C838 H828 0.950 . S
C838 C839 1.386 . S
C838 C840 1.391 . S
C839 C838 1.386 . S
C839 C843 1.393 . S
C840 H829 0.950 . S
C840 C838 1.391 . S
C840 C841 1.400 . S
C841 C835 1.491 . S
C841 C840 1.400 . S
C841 C842 1.398 . S
C842 H830 0.950 . S
C842 C841 1.398 . S
C842 C843 1.391 . S
C843 H831 0.950 . S
C843 C839 1.393 . S
C843 C842 1.391 . S
H844 C852 0.950 . S
H845 C857 0.950 . S
H846 C854 0.950 . S
H847 C856 0.950 . S
H848 C858 0.950 . S
H849 C860 0.950 . S
H850 C862 0.950 . S
H851 C863 0.950 . S
C852 H844 0.950 . S
C852 C853 1.386 . S
C852 C854 1.391 . S
C853 C852 1.386 . S
C853 C857 1.393 . S
C854 H846 0.950 . S
C854 C852 1.391 . S
C854 C855 1.400 . S
C855 C854 1.400 . S
C855 C856 1.398 . S
C855 C861 1.491 . S
C856 H847 0.950 . S
C856 C855 1.398 . S
C856 C857 1.391 . S
C857 H845 0.950 . S
C857 C853 1.393 . S
C857 C856 1.391 . S
C858 H848 0.950 . S
C858 C859 1.386 . S
C858 C860 1.391 . S
C859 C858 1.386 . S
C859 C863 1.393 . S
C860 H849 0.950 . S
C860 C858 1.391 . S
C860 C861 1.400 . S
C861 C855 1.491 . S
C861 C860 1.400 . S
C861 C862 1.398 . S
C862 H850 0.950 . S
C862 C861 1.398 . S
C862 C863 1.391 . S
C863 H851 0.950 . S
C863 C859 1.393 . S
C863 C862 1.391 . S
C233 C159 1.283 . S
C239 C0 1.255 . S
C253 C14 1.279 . S
C259 C117 1.284 . S
C273 C28 1.266 . S
C279 C131 1.275 . S
C293 C145 1.291 . S
C299 C42 1.275 . S
C313 C56 1.272 1_556 S
C319 C75 1.276 . S
C333 C70 1.271 1_554 S
C339 C89 1.276 . S
C353 C103 1.289 . S
C359 C84 1.277 1_556 S
C373 C61 1.290 . S
C379 C98 1.277 1_554 S
C393 C47 1.292 . S
C399 C112 1.270 . S
C413 C126 1.273 . S
C419 C5 1.291 . S
C433 C19 1.275 . S
C439 C140 1.267 . S
C453 C154 1.279 . S
C459 C33 1.283 . S
C473 C168 1.270 . S
C479 C187 1.292 . S
C493 C182 1.272 . S
C499 C201 1.276 . S
C513 C215 1.291 . S
C519 C196 1.274 . S
C533 C173 1.275 . S
C539 C210 1.263 . S
C553 C65 1.198 . S
C559 C9 1.198 . S
C573 C23 1.177 . S
C579 C79 1.169 . S
C593 C37 1.178 . S
C599 C93 1.169 . S
C613 C107 1.183 . S
C619 C51 1.190 . S
C633 C121 1.198 . S
C639 C177 1.198 . S
C653 C191 1.158 . S
C659 C135 1.155 . S
C673 C149 1.159 . S
C679 C205 1.155 . S
C693 C219 1.185 . S
C699 C163 1.192 . S
C713 C207 1.374 . S
C719 C11 1.380 1_556 S
C733 C221 1.379 . S
C739 C25 1.381 1_554 S
C753 C39 1.376 1_556 S
C759 C179 1.381 . S
C773 C193 1.379 . S
C779 C53 1.372 1_554 S
C793 C151 1.371 . S
C799 C67 1.366 . S
C813 C165 1.366 . S
C819 C81 1.372 . S
C833 C95 1.369 . S
C839 C123 1.365 . S
C853 C137 1.373 . S
C859 C109 1.380 . S
