# Generated by pormake.
# Topology uoz, (4)-cn, num edge types: 1
# Building blocks:
#     Node 0, Type 0, BuildingBlock: KUFVIS_clean_sbu_0, # of connection points: 4
#     Node 1, Type 0, BuildingBlock: KUFVIS_clean_sbu_0, # of connection points: 4
#     Node 2, Type 0, BuildingBlock: KUFVIS_clean_sbu_0, # of connection points: 4
#     Node 3, Type 0, BuildingBlock: KUFVIS_clean_sbu_0, # of connection points: 4
#     Node 4, Type 0, BuildingBlock: KUFVIS_clean_sbu_0, # of connection points: 4
#     Node 5, Type 0, BuildingBlock: KUFVIS_clean_sbu_0, # of connection points: 4
#     Node 6, Type 0, BuildingBlock: KUFVIS_clean_sbu_0, # of connection points: 4
#     Node 7, Type 0, BuildingBlock: KUFVIS_clean_sbu_0, # of connection points: 4
#     Node 8, Type 0, BuildingBlock: KUFVIS_clean_sbu_0, # of connection points: 4
#     Node 9, Type 0, BuildingBlock: KUFVIS_clean_sbu_0, # of connection points: 4
#     Node 10, Type 0, BuildingBlock: KUFVIS_clean_sbu_0, # of connection points: 4
#     Node 11, Type 0, BuildingBlock: KUFVIS_clean_sbu_0, # of connection points: 4
#     Node 12, Type 0, BuildingBlock: KUFVIS_clean_sbu_0, # of connection points: 4
#     Node 13, Type 0, BuildingBlock: KUFVIS_clean_sbu_0, # of connection points: 4
#     Node 14, Type 0, BuildingBlock: KUFVIS_clean_sbu_0, # of connection points: 4
#     Node 15, Type 0, BuildingBlock: KUFVIS_clean_sbu_0, # of connection points: 4
#     Edge 16, Type (0, 0), BuildingBlock: KIFKEQ_clean_linker_1, # of connection points: 2
#     Edge 17, Type (0, 0), BuildingBlock: KIFKEQ_clean_linker_1, # of connection points: 2
#     Edge 18, Type (0, 0), BuildingBlock: KIFKEQ_clean_linker_1, # of connection points: 2
#     Edge 19, Type (0, 0), BuildingBlock: KIFKEQ_clean_linker_1, # of connection points: 2
#     Edge 20, Type (0, 0), BuildingBlock: KIFKEQ_clean_linker_1, # of connection points: 2
#     Edge 21, Type (0, 0), BuildingBlock: KIFKEQ_clean_linker_1, # of connection points: 2
#     Edge 22, Type (0, 0), BuildingBlock: KIFKEQ_clean_linker_1, # of connection points: 2
#     Edge 23, Type (0, 0), BuildingBlock: KIFKEQ_clean_linker_1, # of connection points: 2
#     Edge 24, Type (0, 0), BuildingBlock: KIFKEQ_clean_linker_1, # of connection points: 2
#     Edge 25, Type (0, 0), BuildingBlock: KIFKEQ_clean_linker_1, # of connection points: 2
#     Edge 26, Type (0, 0), BuildingBlock: KIFKEQ_clean_linker_1, # of connection points: 2
#     Edge 27, Type (0, 0), BuildingBlock: KIFKEQ_clean_linker_1, # of connection points: 2
#     Edge 28, Type (0, 0), BuildingBlock: KIFKEQ_clean_linker_1, # of connection points: 2
#     Edge 29, Type (0, 0), BuildingBlock: KIFKEQ_clean_linker_1, # of connection points: 2
#     Edge 30, Type (0, 0), BuildingBlock: KIFKEQ_clean_linker_1, # of connection points: 2
#     Edge 31, Type (0, 0), BuildingBlock: KIFKEQ_clean_linker_1, # of connection points: 2
#     Edge 32, Type (0, 0), BuildingBlock: KIFKEQ_clean_linker_1, # of connection points: 2
#     Edge 33, Type (0, 0), BuildingBlock: KIFKEQ_clean_linker_1, # of connection points: 2
#     Edge 34, Type (0, 0), BuildingBlock: KIFKEQ_clean_linker_1, # of connection points: 2
#     Edge 35, Type (0, 0), BuildingBlock: KIFKEQ_clean_linker_1, # of connection points: 2
#     Edge 36, Type (0, 0), BuildingBlock: KIFKEQ_clean_linker_1, # of connection points: 2
#     Edge 37, Type (0, 0), BuildingBlock: KIFKEQ_clean_linker_1, # of connection points: 2
#     Edge 38, Type (0, 0), BuildingBlock: KIFKEQ_clean_linker_1, # of connection points: 2
#     Edge 39, Type (0, 0), BuildingBlock: KIFKEQ_clean_linker_1, # of connection points: 2
#     Edge 40, Type (0, 0), BuildingBlock: KIFKEQ_clean_linker_1, # of connection points: 2
#     Edge 41, Type (0, 0), BuildingBlock: KIFKEQ_clean_linker_1, # of connection points: 2
#     Edge 42, Type (0, 0), BuildingBlock: KIFKEQ_clean_linker_1, # of connection points: 2
#     Edge 43, Type (0, 0), BuildingBlock: KIFKEQ_clean_linker_1, # of connection points: 2
#     Edge 44, Type (0, 0), BuildingBlock: KIFKEQ_clean_linker_1, # of connection points: 2
#     Edge 45, Type (0, 0), BuildingBlock: KIFKEQ_clean_linker_1, # of connection points: 2
#     Edge 46, Type (0, 0), BuildingBlock: KIFKEQ_clean_linker_1, # of connection points: 2
#     Edge 47, Type (0, 0), BuildingBlock: KIFKEQ_clean_linker_1, # of connection points: 2
# Relax obj value: 0.154
# Max RMSD: 0.147
# Mean RMSD: 0.147
data_MOF--net-uoz--node1-KUFVIS_clean_sbu_0--edge1-KIFKEQ_clean_linker_1
_symmetry_space_group_name_H-M    P1
_symmetry_Int_Tables_number       1
_symmetry_cell_setting            triclinic
loop_
_symmetry_equiv_pos_as_xyz
'x, y, z'
_cell_length_a     61.692777
_cell_length_b     61.698107
_cell_length_c     21.285361
_cell_angle_alpha  90.010409
_cell_angle_beta   89.952882
_cell_angle_gamma 90.003381
loop_
_atom_site_label
_atom_site_type_symbol
_atom_site_fract_x
_atom_site_fract_y
_atom_site_fract_z
_atom_type_partial_charge
Mn0 Mn 0.05061 0.57986 0.31649 0.0
Mn1 Mn 0.06159 0.59108 0.1635 0.0
C2 C 0.03754 0.55819 0.23612 0.0
C3 C 0.05881 0.56006 0.40899 0.0
C4 C 0.02719 0.6148 0.23859 0.0
O5 O 0.07628 0.60127 0.32348 0.0
O6 O 0.08196 0.60605 0.21934 0.0
C7 C 0.10419 0.56917 0.15442 0.0
N8 N 0.08368 0.5722 0.13264 0.0
C9 C 0.09054 0.54968 0.04257 0.0
C10 C 0.1118 0.5464 0.06378 0.0
C11 C 0.11859 0.55602 0.1203 0.0
C12 C 0.0768 0.56251 0.07935 0.0
H13 H 0.1095 0.57679 0.19731 0.0
C14 C 0.08662 0.60951 0.27685 0.0
O15 O 0.0462 0.57695 0.41035 0.0
O16 O 0.06789 0.55589 0.35558 0.0
N17 N 0.04318 0.57757 0.10271 0.0
C18 C 0.02176 0.58115 0.09109 0.0
C19 C 0.01211 0.57186 0.03775 0.0
C20 C 0.0247 0.55944 0.99614 0.0
C21 C 0.04677 0.5562 1.0087 0.0
C22 C 0.05538 0.5655 0.0632 0.0
H23 H 0.01209 0.59088 0.12253 0.0
O24 O 0.02824 0.55794 0.29064 0.0
O25 O 0.05416 0.5708 0.23024 0.0
O26 O 0.02983 0.60497 0.29122 0.0
O27 O 0.03853 0.61082 0.18982 0.0
C28 C 0.06058 0.54412 0.96928 0.0
C29 C 0.08242 0.54074 0.98641 0.0
H30 H 0.12302 0.53646 0.03722 0.0
H31 H 0.13494 0.55351 0.13714 0.0
H32 H 0.99507 0.57443 0.02844 0.0
H33 H 0.01724 0.55241 0.95482 0.0
H34 H 0.05444 0.53691 0.92643 0.0
H35 H 0.09274 0.53096 0.9565 0.0
Mn36 Mn 0.71837 0.75392 0.57149 0.0
Mn37 Mn 0.70407 0.76374 0.41976 0.0
C38 C 0.73859 0.74073 0.48816 0.0
C39 C 0.73946 0.76243 0.6613 0.0
C40 C 0.68285 0.72915 0.49931 0.0
O41 O 0.6969 0.77941 0.58102 0.0
O42 O 0.68897 0.78327 0.47791 0.0
C43 C 0.72411 0.80727 0.41042 0.0
N44 N 0.72174 0.78673 0.38807 0.0
C45 C 0.74464 0.79446 0.29931 0.0
C46 C 0.74718 0.81575 0.32112 0.0
C47 C 0.737 0.82213 0.37722 0.0
C48 C 0.73194 0.78026 0.3351 0.0
H49 H 0.7162 0.81226 0.45319 0.0
C50 C 0.68682 0.78857 0.53549 0.0
O51 O 0.72265 0.74977 0.66483 0.0
O52 O 0.74286 0.77141 0.60725 0.0
N53 N 0.7175 0.74621 0.35647 0.0
C54 C 0.71346 0.7251 0.34172 0.0
C55 C 0.72278 0.71605 0.28753 0.0
C56 C 0.73561 0.72896 0.24793 0.0
C57 C 0.73896 0.75083 0.26286 0.0
C58 C 0.72949 0.75887 0.31796 0.0
H59 H 0.70311 0.7153 0.37084 0.0
O60 O 0.74 0.73169 0.5429 0.0
O61 O 0.72571 0.75717 0.48372 0.0
O62 O 0.69312 0.73284 0.55058 0.0
O63 O 0.68584 0.73961 0.44832 0.0
C64 C 0.75119 0.765 0.22498 0.0
C65 C 0.75416 0.78677 0.24343 0.0
H66 H 0.75695 0.8273 0.29531 0.0
H67 H 0.73895 0.8385 0.39456 0.0
H68 H 0.71988 0.69921 0.27596 0.0
H69 H 0.74269 0.72195 0.206 0.0
H70 H 0.75864 0.75926 0.182 0.0
H71 H 0.76392 0.79741 0.21446 0.0
Mn72 Mn 0.54602 0.42384 0.79798 0.0
Mn73 Mn 0.53726 0.41551 0.64272 0.0
C74 C 0.56241 0.44545 0.72233 0.0
C75 C 0.53651 0.44363 0.88991 0.0
C76 C 0.56777 0.38776 0.72065 0.0
O77 O 0.51898 0.40406 0.79795 0.0
O78 O 0.5141 0.40206 0.69275 0.0
C79 C 0.49739 0.44174 0.62808 0.0
N80 N 0.5181 0.43712 0.61053 0.0
C81 C 0.51598 0.46163 0.52296 0.0
C82 C 0.49457 0.4666 0.53983 0.0
C83 C 0.48532 0.45679 0.59307 0.0
C84 C 0.52741 0.44704 0.56079 0.0
H85 H 0.49014 0.4339 0.66824 0.0
C86 C 0.50844 0.39788 0.74915 0.0
O87 O 0.54779 0.42584 0.89328 0.0
O88 O 0.52946 0.44863 0.8347 0.0
N89 N 0.55848 0.42781 0.58768 0.0
C90 C 0.57949 0.42171 0.57881 0.0
C91 C 0.59144 0.43083 0.52921 0.0
C92 C 0.58148 0.44562 0.48819 0.0
C93 C 0.5597 0.45129 0.49746 0.0
C94 C 0.54878 0.44207 0.54856 0.0
H95 H 0.58707 0.40996 0.60927 0.0
O96 O 0.57038 0.44452 0.7785 0.0
O97 O 0.54522 0.43399 0.71266 0.0
O98 O 0.56551 0.39758 0.77356 0.0
O99 O 0.55743 0.39306 0.67107 0.0
C100 C 0.54831 0.46546 0.45748 0.0
C101 C 0.5264 0.47048 0.46992 0.0
H102 H 0.48511 0.47795 0.51237 0.0
H103 H 0.46883 0.46057 0.60653 0.0
H104 H 0.60819 0.42625 0.52212 0.0
H105 H 0.59066 0.45243 0.44956 0.0
H106 H 0.55626 0.47271 0.41726 0.0
H107 H 0.51787 0.48156 0.43918 0.0
Mn108 Mn 0.87483 0.25309 0.05722 0.0
Mn109 Mn 0.88184 0.24774 0.90029 0.0
C110 C 0.85401 0.273 0.98628 0.0
C111 C 0.85473 0.24255 0.14775 0.0
C112 C 0.91251 0.27329 0.9839 0.0
O113 O 0.89278 0.22484 0.04978 0.0
O114 O 0.8928 0.22191 0.94379 0.0
C115 C 0.85163 0.21141 0.87617 0.0
N116 N 0.8583 0.23203 0.86413 0.0
C117 C 0.83399 0.23503 0.77634 0.0
C118 C 0.82697 0.21374 0.78738 0.0
C119 C 0.83561 0.20199 0.83807 0.0
C120 C 0.84945 0.24377 0.81713 0.0
H121 H 0.85861 0.20222 0.91423 0.0
C122 C 0.89725 0.21475 0.99855 0.0
O123 O 0.8733 0.25241 0.15271 0.0
O124 O 0.84905 0.23733 0.09138 0.0
N125 N 0.87178 0.27174 0.85149 0.0
C126 C 0.88006 0.29218 0.8479 0.0
C127 C 0.87229 0.30646 0.80175 0.0
C128 C 0.85655 0.29939 0.75869 0.0
C129 C 0.84862 0.27813 0.76248 0.0
C130 C 0.8566 0.2648 0.81039 0.0
H131 H 0.89257 0.29752 0.87979 0.0
O132 O 0.85574 0.27924 0.04412 0.0
O133 O 0.86439 0.25545 0.97254 0.0
O134 O 0.90224 0.27123 0.0361 0.0
O135 O 0.90642 0.26443 0.93266 0.0
C136 C 0.83336 0.26954 0.72004 0.0
C137 C 0.82627 0.24791 0.72648 0.0
H138 H 0.81484 0.20632 0.75753 0.0
H139 H 0.83019 0.1856 0.84712 0.0
H140 H 0.87863 0.32278 0.7988 0.0
H141 H 0.85079 0.31036 0.72267 0.0
H142 H 0.82699 0.2794 0.68222 0.0
H143 H 0.81454 0.24148 0.69354 0.0
Mn144 Mn 0.04987 0.42185 0.83269 0.0
Mn145 Mn 0.06009 0.41341 0.98713 0.0
C146 C 0.03436 0.44351 0.90976 0.0
C147 C 0.05849 0.44129 0.73978 0.0
C148 C 0.02911 0.38559 0.91098 0.0
O149 O 0.0768 0.40189 0.83065 0.0
O150 O 0.08309 0.40057 0.93538 0.0
C151 C 0.09955 0.44034 1.00038 0.0
N152 N 0.07908 0.43522 0.01901 0.0
C153 C 0.08145 0.45918 0.10784 0.0
C154 C 0.10264 0.46464 0.08991 0.0
C155 C 0.11163 0.45537 0.03548 0.0
C156 C 0.06998 0.44467 0.06985 0.0
H157 H 0.1066 0.43293 0.95927 0.0
C158 C 0.08808 0.39618 0.87858 0.0
O159 O 0.0468 0.42374 0.73803 0.0
O160 O 0.06639 0.44639 0.79398 0.0
N161 N 0.03901 0.42518 0.04358 0.0
C162 C 0.01812 0.41879 0.05312 0.0
C163 C 0.00636 0.42745 0.10377 0.0
C164 C 0.01639 0.44209 0.14513 0.0
C165 C 0.03804 0.44807 0.1351 0.0
C166 C 0.04877 0.43932 0.08297 0.0
H167 H 0.0105 0.40713 0.02243 0.0
O168 O 0.02588 0.44274 0.85421 0.0
O169 O 0.05155 0.43193 0.91793 0.0
O170 O 0.03046 0.3958 0.85852 0.0
O171 O 0.04014 0.39065 0.95949 0.0
C172 C 0.04951 0.46214 0.17526 0.0
C173 C 0.07127 0.4675 0.16199 0.0
H174 H 0.1121 0.47598 0.1174 0.0
H175 H 0.12794 0.45956 0.02115 0.0
H176 H 0.9897 0.42263 0.11143 0.0
H177 H 0.00736 0.44853 0.18458 0.0
H178 H 0.04171 0.46903 0.21628 0.0
H179 H 0.07985 0.47849 0.19291 0.0
Mn180 Mn 0.87634 0.75118 0.08391 0.0
Mn181 Mn 0.88421 0.75822 0.24013 0.0
C182 C 0.85186 0.73827 0.15726 0.0
C183 C 0.85916 0.76137 0.98884 0.0
C184 C 0.90655 0.72312 0.1666 0.0
O185 O 0.89952 0.7753 0.08426 0.0
O186 O 0.90423 0.77569 0.18945 0.0
C187 C 0.86932 0.80386 0.24304 0.0
N188 N 0.86801 0.78318 0.26511 0.0
C189 C 0.84283 0.79384 0.34567 0.0
C190 C 0.84391 0.81526 0.3239 0.0
C191 C 0.85708 0.82025 0.27199 0.0
C192 C 0.85487 0.77809 0.31369 0.0
H193 H 0.87972 0.80785 0.20392 0.0
C194 C 0.90921 0.78184 0.1341 0.0
O195 O 0.87549 0.74803 0.98931 0.0
O196 O 0.85434 0.7702 0.04211 0.0
N197 N 0.86604 0.74251 0.29705 0.0
C198 C 0.86711 0.72116 0.31307 0.0
C199 C 0.85493 0.71348 0.3642 0.0
C200 C 0.8423 0.72796 0.39961 0.0
C201 C 0.84196 0.74998 0.38346 0.0
C202 C 0.85408 0.7566 0.33125 0.0
H203 H 0.8771 0.71006 0.28682 0.0
O204 O 0.85271 0.72975 0.10182 0.0
O205 O 0.86516 0.75403 0.16837 0.0
O206 O 0.89979 0.72899 0.1121 0.0
O207 O 0.90082 0.73221 0.2179 0.0
C208 C 0.83039 0.76569 0.41786 0.0
C209 C 0.83056 0.78755 0.39845 0.0
H210 H 0.83477 0.82801 0.34681 0.0
H211 H 0.85802 0.83674 0.25491 0.0
H212 H 0.85544 0.69649 0.37666 0.0
H213 H 0.83306 0.72203 0.43935 0.0
H214 H 0.82102 0.76107 0.45881 0.0
H215 H 0.82126 0.79941 0.42463 0.0
Mn216 Mn 0.54763 0.58092 0.31966 0.0
Mn217 Mn 0.54157 0.59526 0.47281 0.0
C218 C 0.56416 0.56152 0.39985 0.0
C219 C 0.5373 0.55908 0.23287 0.0
C220 C 0.57107 0.61905 0.38265 0.0
O221 O 0.52075 0.60106 0.31764 0.0
O222 O 0.51794 0.60739 0.42227 0.0
C223 C 0.50134 0.57108 0.50212 0.0
N224 N 0.52253 0.57552 0.51447 0.0
C225 C 0.52176 0.55365 0.60799 0.0
C226 C 0.4999 0.54888 0.59641 0.0
C227 C 0.48971 0.55747 0.54291 0.0
C228 C 0.53264 0.56688 0.56489 0.0
H229 H 0.49339 0.57796 0.46166 0.0
C230 C 0.51127 0.60937 0.3658 0.0
O231 O 0.54862 0.57667 0.22546 0.0
O232 O 0.53051 0.55533 0.28939 0.0
N233 N 0.56355 0.58422 0.52754 0.0
C234 C 0.58496 0.58955 0.53026 0.0
C235 C 0.5978 0.58133 0.57919 0.0
C236 C 0.5884 0.56812 0.62556 0.0
C237 C 0.56626 0.56313 0.62228 0.0
C238 C 0.55437 0.57148 0.57182 0.0
H239 H 0.59217 0.60003 0.49545 0.0
O240 O 0.57165 0.5603 0.34306 0.0
O241 O 0.54757 0.574 0.40761 0.0
O242 O 0.56802 0.60714 0.33416 0.0
O243 O 0.56164 0.6162 0.43525 0.0
C244 C 0.55549 0.55031 0.66729 0.0
C245 C 0.5332 0.54577 0.66049 0.0
H246 H 0.49082 0.53856 0.62811 0.0
H247 H 0.47286 0.55382 0.53354 0.0
H248 H 0.61486 0.58533 0.58152 0.0
H249 H 0.59832 0.56194 0.6635 0.0
H250 H 0.56421 0.54374 0.70711 0.0
H251 H 0.52513 0.53577 0.69517 0.0
Mn252 Mn 0.71932 0.24979 0.58631 0.0
Mn253 Mn 0.706 0.23967 0.73849 0.0
C254 C 0.73843 0.26541 0.66864 0.0
C255 C 0.7411 0.24168 0.49701 0.0
C256 C 0.68087 0.2708 0.65583 0.0
O257 O 0.7 0.22247 0.57937 0.0
O258 O 0.69426 0.21715 0.68327 0.0
C259 C 0.73136 0.19947 0.75772 0.0
N260 N 0.7261 0.21999 0.77564 0.0
C261 C 0.74685 0.21666 0.87073 0.0
C262 C 0.75245 0.19545 0.85348 0.0
C263 C 0.74484 0.1869 0.79639 0.0
C264 C 0.73381 0.22858 0.82955 0.0
H265 H 0.72521 0.19277 0.71445 0.0
C266 C 0.69216 0.21172 0.62579 0.0
O267 O 0.72325 0.25277 0.49209 0.0
O268 O 0.74529 0.23409 0.55233 0.0
N269 N 0.71641 0.26025 0.79844 0.0
C270 C 0.71071 0.28143 0.80596 0.0
C271 C 0.71805 0.29283 0.85893 0.0
C272 C 0.73063 0.28218 0.90445 0.0
C273 C 0.73596 0.26027 0.89618 0.0
C274 C 0.72862 0.2499 0.84174 0.0
H275 H 0.7006 0.28953 0.77185 0.0
O276 O 0.73911 0.27405 0.61319 0.0
O277 O 0.72687 0.24804 0.67413 0.0
O278 O 0.69229 0.2689 0.60565 0.0
O279 O 0.68468 0.26019 0.70598 0.0
C280 C 0.74818 0.24827 0.93988 0.0
C281 C 0.75367 0.22648 0.9271 0.0
H282 H 0.76264 0.18563 0.88354 0.0
H283 H 0.74914 0.17056 0.78264 0.0
H284 H 0.71379 0.30971 0.8651 0.0
H285 H 0.73609 0.29096 0.94557 0.0
H286 H 0.75388 0.25576 0.98283 0.0
H287 H 0.76352 0.21758 0.96038 0.0
Mn288 Mn 0.3791 0.24846 0.57238 0.0
Mn289 Mn 0.39013 0.25528 0.72687 0.0
C290 C 0.35966 0.22995 0.64925 0.0
C291 C 0.35759 0.25842 0.48448 0.0
C292 C 0.4184 0.22894 0.63869 0.0
O293 O 0.39755 0.27652 0.57425 0.0
O294 O 0.39967 0.28094 0.67982 0.0
C295 C 0.36047 0.29155 0.75693 0.0
N296 N 0.36748 0.27096 0.76774 0.0
C297 C 0.34482 0.26775 0.85926 0.0
C298 C 0.33742 0.28897 0.84936 0.0
C299 C 0.34509 0.30082 0.79754 0.0
C300 C 0.35969 0.25918 0.81628 0.0
H301 H 0.36668 0.30082 0.71788 0.0
C302 C 0.40293 0.28733 0.62351 0.0
O303 O 0.37587 0.24817 0.47757 0.0
O304 O 0.35292 0.26431 0.54118 0.0
N305 N 0.38139 0.23132 0.77802 0.0
C306 C 0.38939 0.21074 0.77913 0.0
C307 C 0.38237 0.19631 0.82594 0.0
C308 C 0.36758 0.20333 0.87186 0.0
C309 C 0.35979 0.22467 0.87019 0.0
C310 C 0.36704 0.23818 0.8217 0.0
H311 H 0.4011 0.20539 0.74475 0.0
O312 O 0.35975 0.22292 0.59189 0.0
O313 O 0.37087 0.24728 0.65895 0.0
O314 O 0.40645 0.22991 0.5895 0.0
O315 O 0.41411 0.23869 0.69005 0.0
C316 C 0.34522 0.23311 0.91493 0.0
C317 C 0.33797 0.25472 0.90992 0.0
H318 H 0.32573 0.29625 0.88097 0.0
H319 H 0.33939 0.31717 0.78942 0.0
H320 H 0.38853 0.17989 0.82704 0.0
H321 H 0.36236 0.19221 0.90824 0.0
H322 H 0.33945 0.22311 0.95327 0.0
H323 H 0.32673 0.26102 0.94453 0.0
Mn324 Mn 0.22184 0.75137 0.08874 0.0
Mn325 Mn 0.21119 0.74584 0.24418 0.0
C326 C 0.2425 0.76916 0.16431 0.0
C327 C 0.24228 0.74037 0.99956 0.0
C328 C 0.1841 0.7736 0.15656 0.0
O329 O 0.20209 0.72418 0.09213 0.0
O330 O 0.19978 0.7208 0.19795 0.0
C331 C 0.23861 0.70778 0.27347 0.0
N332 N 0.23283 0.72871 0.28465 0.0
C333 C 0.25513 0.73022 0.37715 0.0
C334 C 0.26124 0.70861 0.36694 0.0
C335 C 0.25316 0.69743 0.31441 0.0
C336 C 0.24114 0.73986 0.33368 0.0
H337 H 0.23207 0.69906 0.23385 0.0
C338 C 0.19613 0.71412 0.14218 0.0
O339 O 0.22444 0.75142 0.99379 0.0
O340 O 0.24708 0.7343 0.05602 0.0
N341 N 0.22161 0.76919 0.29499 0.0
C342 C 0.21496 0.79024 0.29625 0.0
C343 C 0.2227 0.8041 0.34355 0.0
C344 C 0.23672 0.79601 0.38997 0.0
C345 C 0.24304 0.7742 0.38825 0.0
C346 C 0.23523 0.76131 0.33911 0.0
H347 H 0.20378 0.79641 0.26161 0.0
O348 O 0.24246 0.77604 0.1068 0.0
O349 O 0.23065 0.75235 0.17515 0.0
O350 O 0.19545 0.77125 0.1065 0.0
O351 O 0.18832 0.76399 0.20817 0.0
C352 C 0.2566 0.76466 0.43374 0.0
C353 C 0.26237 0.7426 0.42867 0.0
H354 H 0.27223 0.70049 0.39889 0.0
H355 H 0.25787 0.68078 0.30602 0.0
H356 H 0.21765 0.82089 0.34474 0.0
H357 H 0.24245 0.80668 0.42682 0.0
H358 H 0.26274 0.77415 0.47267 0.0
H359 H 0.27291 0.73548 0.46373 0.0
Mn360 Mn 0.22233 0.25065 0.04864 0.0
Mn361 Mn 0.2121 0.2606 0.89477 0.0
C362 C 0.24315 0.23509 0.96973 0.0
C363 C 0.24279 0.25935 0.13983 0.0
C364 C 0.18551 0.22931 0.97342 0.0
O365 O 0.20254 0.27766 0.05246 0.0
O366 O 0.19908 0.28312 0.94782 0.0
C367 C 0.23766 0.3009 0.8799 0.0
N368 N 0.23293 0.28034 0.86124 0.0
C369 C 0.25563 0.28375 0.76992 0.0
C370 C 0.26066 0.30504 0.78785 0.0
C371 C 0.25183 0.31356 0.84351 0.0
C372 C 0.24193 0.27173 0.80904 0.0
H373 H 0.23059 0.30757 0.92202 0.0
C374 C 0.19563 0.28842 1.0049 0.0
O375 O 0.22506 0.24799 0.14344 0.0
O376 O 0.24745 0.26688 0.08483 0.0
N377 N 0.22391 0.24003 0.83688 0.0
C378 C 0.2183 0.21889 0.82807 0.0
C379 C 0.22683 0.20751 0.77652 0.0
C380 C 0.24047 0.21816 0.73357 0.0
C381 C 0.24564 0.24005 0.74297 0.0
C382 C 0.23713 0.25038 0.79606 0.0
H383 H 0.2074 0.21079 0.86008 0.0
O384 O 0.24285 0.22655 0.02531 0.0
O385 O 0.23154 0.25233 0.96234 0.0
O386 O 0.19585 0.23129 0.0255 0.0
O387 O 0.19029 0.23997 0.92397 0.0
C388 C 0.2587 0.25211 0.70141 0.0
C389 C 0.2636 0.27399 0.71472 0.0
H390 H 0.27134 0.31495 0.75942 0.0
H391 H 0.25569 0.32994 0.85784 0.0
H392 H 0.22265 0.19065 0.7694 0.0
H393 H 0.2468 0.20941 0.69344 0.0
H394 H 0.26533 0.24464 0.65952 0.0
H395 H 0.27397 0.28299 0.68296 0.0
Mn396 Mn 0.37749 0.74988 0.56441 0.0
Mn397 Mn 0.38919 0.74446 0.40962 0.0
C398 C 0.35788 0.76843 0.48808 0.0
C399 C 0.35628 0.73921 0.65235 0.0
C400 C 0.41663 0.7706 0.50021 0.0
O401 O 0.39651 0.72215 0.56101 0.0
O402 O 0.39891 0.7186 0.45515 0.0
C403 C 0.3604 0.70793 0.37542 0.0
N404 N 0.3671 0.72872 0.3665 0.0
C405 C 0.3454 0.73218 0.27323 0.0
C406 C 0.33828 0.71076 0.28125 0.0
C407 C 0.34563 0.69867 0.33298 0.0
C408 C 0.35961 0.74071 0.31803 0.0
H409 H 0.36642 0.69848 0.41435 0.0
C410 C 0.40214 0.71181 0.51104 0.0
O411 O 0.37441 0.74971 0.65913 0.0
O412 O 0.35157 0.73344 0.59552 0.0
N413 N 0.38031 0.7687 0.35989 0.0
C414 C 0.38781 0.78947 0.36095 0.0
C415 C 0.38091 0.80414 0.31466 0.0
C416 C 0.3668 0.79718 0.26699 0.0
C417 C 0.35952 0.77565 0.26646 0.0
C418 C 0.36656 0.7619 0.31461 0.0
H419 H 0.39903 0.79478 0.39666 0.0
O420 O 0.35764 0.77514 0.54578 0.0
O421 O 0.36944 0.75139 0.47762 0.0
O422 O 0.40447 0.76909 0.54882 0.0
O423 O 0.41275 0.76111 0.44823 0.0
C424 C 0.34569 0.76724 0.21981 0.0
C425 C 0.3389 0.74543 0.22272 0.0
H426 H 0.32709 0.70349 0.2482 0.0
H427 H 0.34017 0.68216 0.3396 0.0
H428 H 0.38668 0.82071 0.31528 0.0
H429 H 0.3617 0.80848 0.23098 0.0
H430 H 0.34013 0.77741 0.18162 0.0
H431 H 0.3282 0.73917 0.18669 0.0
Mn432 Mn 0.54975 0.07839 0.81191 0.0
Mn433 Mn 0.55628 0.09033 0.65757 0.0
C434 C 0.53159 0.05903 0.73426 0.0
C435 C 0.55988 0.05716 0.90033 0.0
C436 C 0.52966 0.11773 0.74717 0.0
O437 O 0.57756 0.09731 0.81032 0.0
O438 O 0.58185 0.09984 0.70473 0.0
C439 C 0.59297 0.06157 0.62453 0.0
N440 N 0.57225 0.06834 0.61469 0.0
C441 C 0.56952 0.04728 0.51994 0.0
C442 C 0.59085 0.04007 0.52893 0.0
C443 C 0.60254 0.04706 0.58186 0.0
C444 C 0.56064 0.06119 0.56503 0.0
H445 H 0.60213 0.06734 0.66434 0.0
C446 C 0.58827 0.10295 0.76104 0.0
O447 O 0.54932 0.07528 0.90662 0.0
O448 O 0.5659 0.05241 0.84373 0.0
N449 N 0.53237 0.08167 0.60624 0.0
C450 C 0.51159 0.08917 0.60649 0.0
C451 C 0.49725 0.08253 0.55903 0.0
C452 C 0.50456 0.06872 0.51101 0.0
C453 C 0.5261 0.06146 0.51132 0.0
C454 C 0.53948 0.06818 0.56068 0.0
H455 H 0.50603 0.10018 0.64247 0.0
O456 O 0.52452 0.05869 0.79162 0.0
O457 O 0.5488 0.07045 0.72484 0.0
O458 O 0.53075 0.10549 0.79567 0.0
O459 O 0.53947 0.11385 0.69569 0.0
C460 C 0.53488 0.04799 0.46431 0.0
C461 C 0.55668 0.0412 0.46812 0.0
H462 H 0.59837 0.0291 0.49569 0.0
H463 H 0.61899 0.04153 0.58921 0.0
H464 H 0.48068 0.08828 0.559 0.0
H465 H 0.49353 0.06384 0.47405 0.0
H466 H 0.52501 0.0427 0.42515 0.0
H467 H 0.56322 0.03076 0.43182 0.0
Mn468 Mn 0.04807 0.92277 0.31635 0.0
Mn469 Mn 0.03632 0.91412 0.16269 0.0
C470 C 0.05962 0.94646 0.2391 0.0
C471 C 0.03949 0.94077 0.41171 0.0
C472 C 0.07245 0.89059 0.23087 0.0
O473 O 0.02391 0.89968 0.32174 0.0
O474 O 0.01778 0.89654 0.21742 0.0
C475 C 0.99235 0.93331 0.16292 0.0
N476 N 0.01275 0.93233 0.1386 0.0
C477 C 0.00341 0.95699 0.05548 0.0
C478 C 0.98228 0.95829 0.07954 0.0
C479 C 0.97678 0.94654 0.13384 0.0
C480 C 0.01837 0.94403 0.08751 0.0
H481 H 0.98798 0.92395 0.2039 0.0
C482 C 0.01392 0.89153 0.27444 0.0
O483 O 0.05297 0.92454 0.41041 0.0
O484 O 0.0298 0.94509 0.35944 0.0
N485 N 0.053 0.93001 0.10255 0.0
C486 C 0.07414 0.92719 0.08587 0.0
C487 C 0.08238 0.93815 0.03317 0.0
C488 C 0.06863 0.95133 0.99705 0.0
C489 C 0.0468 0.95353 0.01421 0.0
C490 C 0.03963 0.9426 0.06796 0.0
H491 H 0.08465 0.91669 0.11262 0.0
O492 O 0.06919 0.94615 0.29312 0.0
O493 O 0.04347 0.93331 0.23207 0.0
O494 O 0.06969 0.89913 0.2854 0.0
O495 O 0.06083 0.89526 0.18315 0.0
C496 C 0.03179 0.96593 0.97966 0.0
C497 C 0.01016 0.96784 1.00062 0.0
H498 H 0.97014 0.96822 0.05668 0.0
H499 H 0.96051 0.94744 0.1527 0.0
H500 H 0.09921 0.93624 0.01999 0.0
H501 H 0.07498 0.95961 0.9561 0.0
H502 H 0.03681 0.9744 0.9375 0.0
H503 H 0.99889 0.97778 0.97435 0.0
Mn504 Mn 0.54739 0.92326 0.33768 0.0
Mn505 Mn 0.55144 0.91293 0.49348 0.0
C506 C 0.52803 0.94349 0.41136 0.0
C507 C 0.55884 0.94391 0.24942 0.0
C508 C 0.52652 0.88443 0.40269 0.0
O509 O 0.57516 0.90438 0.34449 0.0
O510 O 0.57784 0.90314 0.45069 0.0
C511 C 0.58732 0.94234 0.52875 0.0
N512 N 0.5665 0.93554 0.53634 0.0
C513 C 0.56197 0.95776 0.62822 0.0
C514 C 0.58344 0.9649 0.62176 0.0
C515 C 0.59608 0.95737 0.57131 0.0
C516 C 0.55397 0.94325 0.5834 0.0
H517 H 0.59719 0.93619 0.49084 0.0
C518 C 0.58513 0.89935 0.39559 0.0
O519 O 0.54848 0.92569 0.2428 0.0
O520 O 0.56404 0.94901 0.30641 0.0
N521 N 0.52661 0.92195 0.54059 0.0
C522 C 0.50594 0.91422 0.53835 0.0
C523 C 0.49075 0.92129 0.58305 0.0
C524 C 0.4971 0.93583 0.6304 0.0
C525 C 0.51854 0.94334 0.63219 0.0
C526 C 0.53282 0.93612 0.58553 0.0
H527 H 0.5011 0.90267 0.50294 0.0
O528 O 0.52189 0.94317 0.35316 0.0
O529 O 0.54496 0.93202 0.42374 0.0
O530 O 0.52823 0.89626 0.35348 0.0
O531 O 0.53546 0.88886 0.4551 0.0
C532 C 0.52636 0.95759 0.67867 0.0
C533 C 0.54814 0.96453 0.6772 0.0
H534 H 0.59032 0.9763 0.65492 0.0
H535 H 0.61262 0.9629 0.56579 0.0
H536 H 0.47426 0.91534 0.5815 0.0
H537 H 0.4854 0.94106 0.66522 0.0
H538 H 0.51576 0.96333 0.7157 0.0
H539 H 0.55396 0.97551 0.71316 0.0
Mn540 Mn 0.04491 0.0818 0.82945 0.0
Mn541 Mn 0.03339 0.09374 0.98156 0.0
C542 C 0.05846 0.06109 0.91115 0.0
C543 C 0.03716 0.06109 0.7382 0.0
C544 C 0.06683 0.11828 0.90495 0.0
O545 O 0.0187 0.10255 0.82139 0.0
O546 O 0.0122 0.10727 0.92523 0.0
C547 C 0.9919 0.06993 0.99302 0.0
N548 N 0.0124 0.07387 0.01368 0.0
C549 C 0.00729 0.05071 0.10332 0.0
C550 C 0.98607 0.04645 0.08321 0.0
C551 C 0.97842 0.05595 0.02748 0.0
C552 C 0.02012 0.06435 0.06624 0.0
H553 H 0.98589 0.07746 0.95076 0.0
C554 C 0.00771 0.11036 0.86742 0.0
O555 O 0.04935 0.07827 0.7357 0.0
O556 O 0.0282 0.05714 0.79191 0.0
N557 N 0.05268 0.08151 0.04231 0.0
C558 C 0.07378 0.08667 0.05395 0.0
C559 C 0.0842 0.07777 0.10663 0.0
C560 C 0.07266 0.06415 0.14764 0.0
C561 C 0.05084 0.05945 0.13538 0.0
C562 C 0.04143 0.06848 0.08159 0.0
H563 H 0.08259 0.09748 0.02333 0.0
O564 O 0.06778 0.06059 0.85665 0.0
O565 O 0.0416 0.07339 0.91599 0.0
O566 O 0.06503 0.10754 0.85351 0.0
O567 O 0.05533 0.11451 0.95357 0.0
C568 C 0.038 0.04628 0.17461 0.0
C569 C 0.01622 0.04196 0.15868 0.0
H570 H 0.97556 0.03586 0.11004 0.0
H571 H 0.96208 0.0527 1.01153 0.0
H572 H 0.10101 0.08158 0.11596 0.0
H573 H 0.08071 0.05744 0.18845 0.0
H574 H 0.04478 0.03917 0.21676 0.0
H575 H 0.0066 0.03156 0.18876 0.0
H576 H 0.20719 0.6745 0.18432 0.0
H577 H 0.15424 0.71055 0.10415 0.0
H578 H 0.18189 0.64908 0.23094 0.0
H579 H 0.12859 0.68432 0.1475 0.0
H580 H 0.08573 0.65309 0.28879 0.0
H581 H 0.11382 0.67687 0.24683 0.0
H582 H 0.15654 0.62171 0.2271 0.0
H583 H 0.12888 0.59853 0.27287 0.0
C584 C 0.19012 0.67627 0.17376 0.0
C585 C 0.18272 0.6944 0.1401 0.0
C586 C 0.17549 0.66178 0.20118 0.0
C587 C 0.153 0.66491 0.19495 0.0
C588 C 0.14573 0.68178 0.15541 0.0
C589 C 0.16044 0.69646 0.1286 0.0
C590 C 0.10162 0.64639 0.2791 0.0
C591 C 0.10525 0.62404 0.28514 0.0
C592 C 0.11752 0.65985 0.25283 0.0
C593 C 0.13729 0.65117 0.23105 0.0
C594 C 0.1416 0.62913 0.24286 0.0
C595 C 0.12581 0.61579 0.27004 0.0
H596 H 0.59054 0.85827 0.35216 0.0
H597 H 0.6234 0.91031 0.44763 0.0
H598 H 0.61606 0.83232 0.39744 0.0
H599 H 0.64815 0.8846 0.49558 0.0
H600 H 0.69817 0.8308 0.54014 0.0
H601 H 0.67609 0.85926 0.49353 0.0
H602 H 0.6205 0.81661 0.49774 0.0
H603 H 0.64316 0.78787 0.54085 0.0
C604 C 0.60386 0.86427 0.38042 0.0
C605 C 0.60514 0.88633 0.39575 0.0
C606 C 0.61808 0.84935 0.40821 0.0
C607 C 0.63375 0.85619 0.45233 0.0
C608 C 0.63634 0.87857 0.46233 0.0
C609 C 0.62227 0.89342 0.43413 0.0
C610 C 0.68098 0.82791 0.53392 0.0
C611 C 0.67234 0.80719 0.54475 0.0
C612 C 0.66832 0.84414 0.50611 0.0
C613 C 0.6466 0.84007 0.48948 0.0
C614 C 0.63737 0.82012 0.50742 0.0
C615 C 0.65014 0.80384 0.53436 0.0
H616 H 0.50824 0.35489 0.77356 0.0
H617 H 0.46682 0.40852 0.72505 0.0
H618 H 0.48111 0.32956 0.73323 0.0
H619 H 0.4399 0.38347 0.68318 0.0
H620 H 0.38998 0.32715 0.65975 0.0
H621 H 0.4141 0.35497 0.70119 0.0
H622 H 0.46919 0.31985 0.62793 0.0
H623 H 0.44484 0.29176 0.5879 0.0
C624 C 0.49286 0.36119 0.75711 0.0
C625 C 0.48942 0.38362 0.75366 0.0
C626 C 0.47758 0.34675 0.73219 0.0
C627 C 0.45858 0.3545 0.70312 0.0
C628 C 0.45433 0.37689 0.70489 0.0
C629 C 0.46963 0.39127 0.72974 0.0
C630 C 0.40717 0.32596 0.64988 0.0
C631 C 0.41552 0.30751 0.61961 0.0
C632 C 0.42106 0.34175 0.67446 0.0
C633 C 0.44366 0.33936 0.66955 0.0
C634 C 0.45188 0.32189 0.63412 0.0
C635 C 0.43794 0.3061 0.60944 0.0
H636 H 0.93865 0.20978 0.03964 0.0
H637 H 0.88629 0.17622 0.94766 0.0
H638 H 0.96442 0.18358 0.99634 0.0
H639 H 0.91183 0.15051 0.90265 0.0
H640 H 0.9656 0.09872 0.8716 0.0
H641 H 0.93727 0.12199 0.91418 0.0
H642 H 0.97945 0.17746 0.89348 0.0
H643 H 0.00799 0.1538 0.85312 0.0
C644 C 0.93255 0.19621 0.01261 0.0
C645 C 0.91045 0.19485 0.99781 0.0
C646 C 0.94735 0.18155 0.98613 0.0
C647 C 0.94032 0.16529 0.94419 0.0
C648 C 0.91793 0.16279 0.93436 0.0
C649 C 0.9032 0.1774 0.96085 0.0
C650 C 0.96837 0.11605 0.87313 0.0
C651 C 0.98886 0.12451 0.85798 0.0
C652 C 0.95225 0.1294 0.89861 0.0
C653 C 0.95626 0.15155 0.90928 0.0
C654 C 0.97601 0.16035 0.8879 0.0
C655 C 0.99215 0.14695 0.86272 0.0
H656 H 0.08945 0.35342 0.84966 0.0
H657 H 0.12927 0.40756 0.90415 0.0
H658 H 0.11677 0.32842 0.89038 0.0
H659 H 0.15598 0.383 0.9481 0.0
H660 H 0.20699 0.32992 0.98359 0.0
H661 H 0.18256 0.35675 0.93952 0.0
H662 H 0.12786 0.31664 0.99089 0.0
H663 H 0.15274 0.28924 0.03156 0.0
C664 C 0.10453 0.35993 0.86767 0.0
C665 C 0.1074 0.3824 0.87286 0.0
C666 C 0.11989 0.34566 0.89305 0.0
C667 C 0.13833 0.35363 0.92477 0.0
C668 C 0.14207 0.37612 0.9244 0.0
C669 C 0.12684 0.39029 0.89843 0.0
C670 C 0.18969 0.32731 0.98792 0.0
C671 C 0.18176 0.30761 1.01167 0.0
C672 C 0.17561 0.3426 0.96186 0.0
C673 C 0.15315 0.33866 0.95962 0.0
C674 C 0.14509 0.31994 0.98962 0.0
C675 C 0.15927 0.30451 0.01503 0.0
H676 H 0.02389 0.84965 0.26443 0.0
H677 H 0.97007 0.89335 0.28656 0.0
H678 H 1.00033 0.82298 0.21714 0.0
H679 H 0.9456 0.86594 0.24413 0.0
H680 H 0.94975 0.77251 0.16758 0.0
H681 H 0.97455 0.79777 0.2157 0.0
H682 H 0.93493 0.85115 0.15055 0.0
H683 H 0.90904 0.82517 0.10706 0.0
C684 C 0.00662 0.85291 0.26317 0.0
C685 C 0.99874 0.87336 0.28067 0.0
C686 C 0.99299 0.83767 0.23495 0.0
C687 C 0.97087 0.84224 0.2249 0.0
C688 C 0.9626 0.86195 0.24862 0.0
C689 C 0.97646 0.87745 0.27532 0.0
C690 C 0.94688 0.78971 0.16117 0.0
C691 C 0.92768 0.79688 0.13254 0.0
C692 C 0.96105 0.80436 0.18956 0.0
C693 C 0.95675 0.82677 0.18882 0.0
C694 C 0.93854 0.83404 0.15442 0.0
C695 C 0.92401 0.81922 0.12728 0.0
H696 H 0.44406 0.70793 0.54689 0.0
H697 H 0.39021 0.6721 0.47085 0.0
H698 H 0.4692 0.68173 0.50095 0.0
H699 H 0.41512 0.64627 0.42313 0.0
H700 H 0.46998 0.59606 0.38203 0.0
H701 H 0.44205 0.6186 0.43016 0.0
H702 H 0.48106 0.67547 0.39461 0.0
H703 H 0.50921 0.65262 0.3486 0.0
C704 C 0.43757 0.69381 0.52317 0.0
C705 C 0.41518 0.69186 0.51334 0.0
C706 C 0.45197 0.67915 0.49502 0.0
C707 C 0.44424 0.66228 0.4563 0.0
C708 C 0.42173 0.65908 0.45216 0.0
C709 C 0.40738 0.67371 0.4804 0.0
C710 C 0.47203 0.6135 0.38159 0.0
C711 C 0.49159 0.62263 0.3605 0.0
C712 C 0.45618 0.62643 0.41025 0.0
C713 C 0.45958 0.64882 0.4183 0.0
C714 C 0.47819 0.65819 0.39118 0.0
C715 C 0.49405 0.64522 0.3628 0.0
H716 H 0.7051 0.17021 0.63912 0.0
H717 H 0.64913 0.21008 0.60401 0.0
H718 H 0.68201 0.1423 0.68477 0.0
H719 H 0.62572 0.1819 0.64737 0.0
H720 H 0.59207 0.14482 0.79747 0.0
H721 H 0.61863 0.16987 0.75289 0.0
H722 H 0.65433 0.11566 0.67654 0.0
H723 H 0.62817 0.09085 0.72306 0.0
C724 C 0.68768 0.17242 0.6377 0.0
C725 C 0.67889 0.19219 0.6172 0.0
C726 C 0.67443 0.15656 0.66494 0.0
C727 C 0.65203 0.16013 0.67192 0.0
C728 C 0.64299 0.1789 0.64483 0.0
C729 C 0.6563 0.19478 0.61791 0.0
C730 C 0.60631 0.13828 0.77442 0.0
C731 C 0.60824 0.11589 0.76462 0.0
C732 C 0.62118 0.15263 0.74699 0.0
C733 C 0.63824 0.14484 0.70902 0.0
C734 C 0.64139 0.12232 0.70499 0.0
C735 C 0.62657 0.10803 0.73256 0.0
H736 H 0.02224 0.3618 0.01714 0.0
H737 H 0.99937 0.36906 0.82615 0.0
H738 H 0.99493 0.33452 0.03664 0.0
H739 H 0.97173 0.34136 0.84641 0.0
H740 H 0.94161 0.27507 0.88789 0.0
H741 H 0.96966 0.30182 0.86951 0.0
H742 H 0.95491 0.33193 0.04757 0.0
H743 H 0.92642 0.30498 0.06634 0.0
C744 C 0.01146 0.35757 0.97892 0.0
C745 C 0.01312 0.36777 0.91973 0.0
C746 C 0.99563 0.34197 0.9906 0.0
C747 C 0.98106 0.33589 0.94341 0.0
C748 C 0.98285 0.34567 0.88373 0.0
C749 C 0.99868 0.36152 0.87204 0.0
C750 C 0.94432 0.28728 0.92362 0.0
C751 C 0.93158 0.2879 0.97866 0.0
C752 C 0.96035 0.30274 0.9126 0.0
C753 C 0.96429 0.31918 0.95647 0.0
C754 C 0.95223 0.3194 0.0128 0.0
C755 C 0.93599 0.30391 0.02378 0.0
H756 H 0.53868 0.15809 0.70598 0.0
H757 H 0.48673 0.1184 0.77777 0.0
H758 H 0.51257 0.18564 0.67376 0.0
H759 H 0.46037 0.14602 0.74518 0.0
H760 H 0.41986 0.18628 0.60521 0.0
H761 H 0.44741 0.15991 0.63826 0.0
H762 H 0.48564 0.21182 0.71724 0.0
H763 H 0.45818 0.23794 0.68453 0.0
C764 C 0.52168 0.15563 0.71668 0.0
C765 C 0.51471 0.13633 0.74531 0.0
C766 C 0.50672 0.1713 0.69774 0.0
C767 C 0.48441 0.16783 0.70603 0.0
C768 C 0.47747 0.14896 0.73734 0.0
C769 C 0.49253 0.13338 0.7572 0.0
C770 C 0.43453 0.19204 0.62762 0.0
C771 C 0.43711 0.21413 0.64147 0.0
C772 C 0.45006 0.17696 0.64772 0.0
C773 C 0.46851 0.18379 0.68122 0.0
C774 C 0.47163 0.20605 0.69156 0.0
C775 C 0.45601 0.22102 0.67236 0.0
H776 H 0.61398 0.61145 0.3875 0.0
H777 H 0.56668 0.66275 0.38758 0.0
H778 H 0.64156 0.6366 0.42408 0.0
H779 H 0.5945 0.68864 0.41947 0.0
H780 H 0.64074 0.72687 0.53814 0.0
H781 H 0.61406 0.69977 0.50551 0.0
H782 H 0.66465 0.66463 0.40781 0.0
H783 H 0.69113 0.6906 0.44559 0.0
C784 C 0.60983 0.62844 0.3923 0.0
C785 C 0.58843 0.63534 0.38322 0.0
C786 C 0.6256 0.64294 0.41384 0.0
C787 C 0.62041 0.66482 0.4258 0.0
C788 C 0.59913 0.67188 0.41277 0.0
C789 C 0.58325 0.65722 0.39279 0.0
C790 C 0.6461 0.71283 0.51179 0.0
C791 C 0.66791 0.71065 0.49468 0.0
C792 C 0.63079 0.69754 0.49158 0.0
C793 C 0.63694 0.68008 0.45245 0.0
C794 C 0.65908 0.67758 0.43806 0.0
C795 C 0.67435 0.69257 0.45945 0.0
H796 H 0.17769 0.80966 0.08248 0.0
H797 H 0.15051 0.77431 0.23907 0.0
H798 H 0.15175 0.83902 0.10135 0.0
H799 H 0.12476 0.80335 0.25749 0.0
H800 H 0.09775 0.86893 0.31786 0.0
H801 H 0.12484 0.84079 0.29656 0.0
H802 H 0.11312 0.84725 0.09746 0.0
H803 H 0.08665 0.87523 0.11807 0.0
C804 C 0.16593 0.80793 0.11994 0.0
C805 C 0.16624 0.78966 0.15926 0.0
C806 C 0.15116 0.8248 0.13112 0.0
C807 C 0.13645 0.8237 0.18179 0.0
C808 C 0.13623 0.80501 0.21923 0.0
C809 C 0.15087 0.78823 0.20808 0.0
C810 C 0.10111 0.86446 0.26963 0.0
C811 C 0.08986 0.87433 0.21996 0.0
C812 C 0.11652 0.84825 0.25735 0.0
C813 C 0.12107 0.84171 0.19519 0.0
C814 C 0.11021 0.852 0.14573 0.0
C815 C 0.09484 0.86801 0.15788 0.0
H816 H 0.01167 0.63025 0.12783 0.0
H817 H 1.00209 0.63555 0.32849 0.0
H818 H 0.98202 0.65459 0.10949 0.0
H819 H 0.97286 0.66162 0.30995 0.0
H820 H 0.90862 0.69208 0.25695 0.0
H821 H 0.93733 0.66596 0.27524 0.0
H822 H 0.97115 0.69004 0.11128 0.0
H823 H 0.94154 0.71528 0.09131 0.0
C824 C 0.0034 0.63681 0.16848 0.0
C825 C 0.00936 0.63076 0.22995 0.0
C826 C 0.98638 0.65112 0.1577 0.0
C827 C 0.97496 0.66039 0.20797 0.0
C828 C 0.981 0.65458 0.26978 0.0
C829 C 0.9979 0.63976 0.28063 0.0
C830 C 0.92202 0.69152 0.22425 0.0
C831 C 0.92274 0.70558 0.17231 0.0
C832 C 0.93871 0.67671 0.23525 0.0
C833 C 0.95683 0.67586 0.1953 0.0
C834 C 0.95735 0.68982 0.14268 0.0
C835 C 0.94037 0.70433 0.13096 0.0
H836 H 0.09993 0.12937 0.82331 0.0
H837 H 0.07267 0.14536 1.00482 0.0
H838 H 0.12916 0.15546 0.84203 0.0
H839 H 0.10155 0.17115 0.02284 0.0
H840 H 0.16919 0.2001 0.06059 0.0
H841 H 0.14096 0.17272 0.04301 0.0
H842 H 0.13361 0.19483 0.85179 0.0
H843 H 0.16139 0.22171 0.86852 0.0
C844 C 0.1 0.13851 0.86675 0.0
C845 C 0.08385 0.13519 0.91227 0.0
C846 C 0.11678 0.15342 0.87763 0.0
C847 C 0.11778 0.16524 0.93431 0.0
C848 C 0.10152 0.16204 0.97933 0.0
C849 C 0.0848 0.14732 0.96844 0.0
C850 C 0.16147 0.19916 0.015 0.0
C851 C 0.16767 0.21322 0.96628 0.0
C852 C 0.14532 0.18348 1.00484 0.0
C853 C 0.13519 0.18148 0.94569 0.0
C854 C 0.14133 0.19562 0.89744 0.0
C855 C 0.15723 0.21124 0.90755 0.0
H856 H 0.67092 0.30454 0.57503 0.0
H857 H 0.65058 0.27416 0.74845 0.0
H858 H 0.64396 0.33319 0.59202 0.0
H859 H 0.62409 0.3025 0.76497 0.0
H860 H 0.59544 0.36973 0.80898 0.0
H861 H 0.62289 0.34163 0.79106 0.0
H862 H 0.60419 0.3379 0.59598 0.0
H863 H 0.57715 0.36559 0.61312 0.0
C864 C 0.6606 0.30378 0.61616 0.0
C865 C 0.66307 0.28702 0.66025 0.0
C866 C 0.64523 0.32022 0.62612 0.0
C867 C 0.6321 0.32027 0.68046 0.0
C868 C 0.63424 0.30324 0.72349 0.0
C869 C 0.64939 0.28685 0.71345 0.0
C870 C 0.59713 0.36284 0.76244 0.0
C871 C 0.58394 0.37001 0.71283 0.0
C872 C 0.61285 0.34675 0.75208 0.0
C873 C 0.61581 0.33764 0.69185 0.0
C874 C 0.60261 0.34479 0.64258 0.0
C875 C 0.5869 0.36063 0.65289 0.0
H876 H 0.45689 0.76258 0.45612 0.0
H877 H 0.41704 0.81308 0.53551 0.0
H878 H 0.48418 0.78939 0.42656 0.0
H879 H 0.44435 0.84013 0.5054 0.0
H880 H 0.48397 0.88278 0.36853 0.0
H881 H 0.45792 0.85449 0.39852 0.0
H882 H 0.51018 0.81611 0.47472 0.0
H883 H 0.53599 0.84436 0.4453 0.0
C884 C 0.45433 0.77938 0.46894 0.0
C885 C 0.43507 0.78576 0.499 0.0
C886 C 0.46984 0.79474 0.45155 0.0
C887 C 0.46623 0.81687 0.46278 0.0
C888 C 0.44738 0.82318 0.49535 0.0
C889 C 0.43198 0.80771 0.51374 0.0
C890 C 0.48988 0.86795 0.38967 0.0
C891 C 0.51197 0.86552 0.40367 0.0
C892 C 0.47498 0.85198 0.40799 0.0
C893 C 0.48201 0.83325 0.43979 0.0
C894 C 0.50428 0.83034 0.45031 0.0
C895 C 0.51907 0.8464 0.43299 0.0
H896 H 0.06782 0.53183 0.19225 0.0
H897 H 0.99933 0.54511 0.18174 0.0
H898 H 0.06477 0.50595 0.10924 0.0
H899 H 0.99578 0.51853 0.09636 0.0
H900 H 0.99783 0.45496 0.97646 0.0
H901 H 0.99627 0.48322 0.05768 0.0
H902 H 0.06165 0.50232 1.00783 0.0
H903 H 0.06314 0.47419 0.93093 0.0
C904 C 0.05198 0.52894 0.17187 0.0
C905 C 0.03395 0.54075 0.19136 0.0
C906 C 0.05011 0.51401 0.12392 0.0
C907 C 0.03001 0.51011 0.09482 0.0
C908 C 0.01152 0.52099 0.1176 0.0
C909 C 0.01347 0.53618 0.16624 0.0
C910 C 0.01155 0.46567 0.98298 0.0
C911 C 0.03083 0.46228 0.94964 0.0
C912 C 0.0107 0.48189 0.02903 0.0
C913 C 0.029 0.49499 0.04064 0.0
C914 C 0.04736 0.49251 1.00212 0.0
C915 C 0.04829 0.47633 0.95752 0.0
H916 H 0.83652 0.70125 0.21267 0.0
H917 H 0.82386 0.76929 0.18593 0.0
H918 H 0.80826 0.6997 0.29321 0.0
H919 H 0.79485 0.76781 0.26056 0.0
H920 H 0.74982 0.70324 0.42685 0.0
H921 H 0.775 0.7005 0.33808 0.0
H922 H 0.79047 0.76864 0.36129 0.0
H923 H 0.76527 0.77102 0.44626 0.0
C924 C 0.82714 0.71566 0.22302 0.0
C925 C 0.83264 0.73557 0.1959 0.0
C926 C 0.81085 0.71483 0.26875 0.0
C927 C 0.7995 0.73381 0.28569 0.0
C928 C 0.80364 0.753 0.2519 0.0
C929 C 0.82021 0.75393 0.20832 0.0
C930 C 0.75902 0.71737 0.41262 0.0
C931 C 0.75544 0.73745 0.44136 0.0
C932 C 0.77346 0.71589 0.36198 0.0
C933 C 0.78474 0.73442 0.34096 0.0
C934 C 0.78189 0.75403 0.37377 0.0
C935 C 0.76749 0.75549 0.42327 0.0
H936 H 0.53365 0.5348 0.43868 0.0
H937 H 0.60188 0.54832 0.45835 0.0
H938 H 0.53554 0.50858 0.52079 0.0
H939 H 0.60418 0.52132 0.5433 0.0
H940 H 0.59994 0.45693 0.66042 0.0
H941 H 0.60296 0.48559 0.58066 0.0
H942 H 0.53696 0.5049 0.62257 0.0
H943 H 0.53405 0.47629 0.6978 0.0
C944 C 0.54921 0.53184 0.46077 0.0
C945 C 0.56749 0.54376 0.44381 0.0
C946 C 0.55038 0.51674 0.50834 0.0
C947 C 0.56998 0.5128 0.53998 0.0
C948 C 0.5888 0.52383 0.52001 0.0
C949 C 0.58756 0.53924 0.47163 0.0
C950 C 0.58637 0.46772 0.65241 0.0
C951 C 0.56655 0.46425 0.68294 0.0
C952 C 0.58807 0.48418 0.60723 0.0
C953 C 0.57006 0.49746 0.59375 0.0
C954 C 0.55107 0.49489 0.62965 0.0
C955 C 0.54932 0.47845 0.67326 0.0
H956 H 0.82039 0.24695 0.98109 0.0
H957 H 0.84291 0.30922 0.9165 0.0
H958 H 0.79062 0.24849 0.90941 0.0
H959 H 0.81279 0.31061 0.84061 0.0
H960 H 0.74937 0.30504 0.71983 0.0
H961 H 0.77526 0.31095 0.80654 0.0
H962 H 0.78961 0.24225 0.80585 0.0
H963 H 0.76501 0.23693 0.72039 0.0
C964 C 0.81855 0.26124 0.95191 0.0
C965 C 0.83411 0.2776 0.95222 0.0
C966 C 0.80139 0.26219 0.91058 0.0
C967 C 0.79945 0.27939 0.86774 0.0
C968 C 0.81384 0.29705 0.87269 0.0
C969 C 0.83113 0.29622 0.91549 0.0
C970 C 0.75847 0.29146 0.73838 0.0
C971 C 0.7549 0.27043 0.71555 0.0
C972 C 0.77316 0.29477 0.78782 0.0
C973 C 0.78429 0.27704 0.81418 0.0
C974 C 0.78112 0.25632 0.78832 0.0
C975 C 0.76698 0.25316 0.73903 0.0
H976 H 0.25484 0.19644 0.91415 0.0
H977 H 0.27171 0.26401 0.93074 0.0
H978 H 0.28248 0.19204 0.83143 0.0
H979 H 0.29867 0.26005 0.85082 0.0
H980 H 0.32888 0.25846 0.66995 0.0
H981 H 0.30103 0.25723 0.74767 0.0
H982 H 0.31955 0.19179 0.79727 0.0
H983 H 0.34822 0.19327 0.71655 0.0
C984 C 0.26474 0.21016 0.90062 0.0
C985 C 0.26096 0.23069 0.92667 0.0
C986 C 0.28052 0.2077 0.85362 0.0
C987 C 0.29267 0.22574 0.83338 0.0
C988 C 0.28951 0.24579 0.86351 0.0
C989 C 0.27401 0.24817 0.90969 0.0
C990 C 0.32673 0.24362 0.69658 0.0
C991 C 0.34081 0.22617 0.68885 0.0
C992 C 0.31066 0.24284 0.74144 0.0
C993 C 0.30802 0.22453 0.77982 0.0
C994 C 0.32108 0.20617 0.76852 0.0
C995 C 0.33747 0.20697 0.72272 0.0
H996 H 0.32825 0.73974 0.45695 0.0
H997 H 0.34647 0.80643 0.42743 0.0
H998 H 0.30151 0.74232 0.37643 0.0
H999 H 0.3189 0.80945 0.34413 0.0
H1000 H 0.25476 0.80702 0.22408 0.0
H1001 H 0.28262 0.8097 0.30661 0.0
H1002 H 0.29909 0.74236 0.27379 0.0
H1003 H 0.27185 0.74004 0.19455 0.0
C1004 C 0.32612 0.75518 0.43335 0.0
C1005 C 0.33956 0.77273 0.44685 0.0
C1006 C 0.31072 0.75675 0.38672 0.0
C1007 C 0.30803 0.77605 0.35253 0.0
C1008 C 0.32046 0.79433 0.3695 0.0
C1009 C 0.3362 0.79267 0.4169 0.0
C1010 C 0.26486 0.79312 0.23441 0.0
C1011 C 0.26106 0.77318 0.20485 0.0
C1012 C 0.28078 0.79459 0.28134 0.0
C1013 C 0.29301 0.77616 0.29804 0.0
C1014 C 0.28996 0.75688 0.26392 0.0
C1015 C 0.2743 0.75546 0.21797 0.0
H1016 H 0.55672 0.97385 0.43522 0.0
H1017 H 0.49053 0.95575 0.47375 0.0
H1018 H 0.55502 1.00148 0.51345 0.0
H1019 H 0.48846 0.98428 0.55471 0.0
H1020 H 0.49303 0.0483 0.67547 0.0
H1021 H 0.48903 0.02114 0.59116 0.0
H1022 H 0.55638 0.00337 0.61664 0.0
H1023 H 0.55993 0.02968 0.69816 0.0
C1024 C 0.54155 0.97627 0.46004 0.0
C1025 C 0.52394 0.96255 0.44997 0.0
C1026 C 0.54048 0.99222 0.50525 0.0
C1027 C 0.52166 0.99515 0.54154 0.0
C1028 C 0.50321 0.98253 0.52763 0.0
C1029 C 0.50434 0.96623 0.48162 0.0
C1030 C 0.50665 0.03808 0.66308 0.0
C1031 C 0.52691 0.04118 0.69152 0.0
C1032 C 0.50443 0.0226 0.61509 0.0
C1033 C 0.52246 0.01018 0.59599 0.0
C1034 C 0.54215 0.0127 0.62837 0.0
C1035 C 0.54427 0.02781 0.67565 0.0
H1036 H 0.02837 0.03317 0.94654 0.0
H1037 H 0.09562 0.04953 0.97381 0.0
H1038 H 0.03037 0.00676 0.02835 0.0
H1039 H 0.09796 0.02285 0.05906 0.0
H1040 H 0.09655 0.96029 0.17996 0.0
H1041 H 0.09844 0.98819 0.09819 0.0
H1042 H 0.03041 1.00219 0.12953 0.0
H1043 H 0.02872 0.97412 0.20697 0.0
C1044 C 0.04371 0.03084 0.97041 0.0
C1045 C 0.06167 0.04355 0.9557 0.0
C1046 C 0.04496 0.01566 0.01784 0.0
C1047 C 0.06428 0.01263 0.05178 0.0
C1048 C 0.08281 0.02455 0.03401 0.0
C1049 C 0.08154 0.03984 0.98551 0.0
C1050 C 0.08224 0.96974 0.1691 0.0
C1051 C 0.06233 0.96486 0.19729 0.0
C1052 C 0.08327 0.98578 0.12271 0.0
C1053 C 0.06448 0.99739 0.10579 0.0
C1054 C 0.04516 0.99345 0.13914 0.0
C1055 C 0.04409 0.97733 0.18403 0.0
H1056 H 0.0912 0.47001 0.71602 0.0
H1057 H 0.02952 0.44849 0.64399 0.0
H1058 H 0.09207 0.49905 0.63751 0.0
H1059 H 0.03007 0.47807 0.56667 0.0
H1060 H 0.02901 0.55164 0.50179 0.0
H1061 H 0.02948 0.52182 0.57828 0.0
H1062 H 0.09263 0.50252 0.51188 0.0
H1063 H 0.09188 0.53182 0.43411 0.0
C1064 C 0.07796 0.47128 0.68282 0.0
C1065 C 0.06041 0.45672 0.68592 0.0
C1066 C 0.07843 0.488 0.638 0.0
C1067 C 0.06105 0.49104 0.59618 0.0
C1068 C 0.04363 0.47628 0.59854 0.0
C1069 C 0.04344 0.45917 0.64234 0.0
C1070 C 0.04314 0.54125 0.50416 0.0
C1071 C 0.06049 0.54428 0.46207 0.0
C1072 C 0.04329 0.524 0.54748 0.0
C1073 C 0.06103 0.50967 0.5509 0.0
C1074 C 0.07873 0.51324 0.51051 0.0
C1075 C 0.07833 0.5301 0.46612 0.0
H1076 H 0.83229 0.79535 0.96114 0.0
H1077 H 0.85087 0.7319 0.8953 0.0
H1078 H 0.80328 0.7966 0.88255 0.0
H1079 H 0.82136 0.73287 0.81803 0.0
H1080 H 0.74773 0.73356 0.75641 0.0
H1081 H 0.77796 0.73406 0.83125 0.0
H1082 H 0.79892 0.79562 0.75712 0.0
H1083 H 0.76912 0.79482 0.68089 0.0
C1084 C 0.83043 0.78182 0.92918 0.0
C1085 C 0.84412 0.76363 0.93417 0.0
C1086 C 0.81372 0.7825 0.88432 0.0
C1087 C 0.80983 0.76475 0.8444 0.0
C1088 C 0.8238 0.74675 0.84841 0.0
C1089 C 0.84089 0.7463 0.89219 0.0
C1090 C 0.75859 0.74736 0.75659 0.0
C1091 C 0.75585 0.76423 0.7128 0.0
C1092 C 0.77607 0.74752 0.79904 0.0
C1093 C 0.79098 0.76481 0.79989 0.0
C1094 C 0.78776 0.78207 0.75773 0.0
C1095 C 0.77062 0.78164 0.7142 0.0
H1096 H 0.52305 0.51722 0.24424 0.0
H1097 H 0.54624 0.56296 0.10634 0.0
H1098 H 0.52189 0.4889 0.16404 0.0
H1099 H 0.54482 0.53461 0.02579 0.0
H1100 H 0.51892 0.48416 0.88591 0.0
H1101 H 0.51804 0.51172 0.96768 0.0
H1102 H 0.54789 0.46704 0.09721 0.0
H1103 H 0.54904 0.43925 0.01449 0.0
C1104 C 0.52765 0.52136 0.19661 0.0
C1105 C 0.53462 0.54253 0.1819 0.0
C1106 C 0.52717 0.50499 0.15068 0.0
C1107 C 0.53332 0.50933 0.08827 0.0
C1108 C 0.53981 0.53064 0.07319 0.0
C1109 C 0.54063 0.54695 0.11942 0.0
C1110 C 0.52514 0.48001 0.93192 0.0
C1111 C 0.53402 0.45931 0.94331 0.0
C1112 C 0.52479 0.49598 0.97881 0.0
C1113 C 0.53303 0.49179 0.03913 0.0
C1114 C 0.5413 0.47087 0.0514 0.0
C1115 C 0.54195 0.45489 1.00397 0.0
H1116 H 0.86037 0.25194 0.27415 0.0
H1117 H 0.8131 0.22766 0.14239 0.0
H1118 H 0.83295 0.2507 0.35782 0.0
H1119 H 0.78589 0.22658 0.22527 0.0
H1120 H 0.73678 0.2533 0.37224 0.0
H1121 H 0.76452 0.25235 0.28977 0.0
H1122 H 0.81027 0.22531 0.4214 0.0
H1123 H 0.7826 0.22611 0.50343 0.0
C1124 C 0.84426 0.24609 0.26309 0.0
C1125 C 0.83911 0.23983 0.20129 0.0
C1126 C 0.82849 0.24538 0.3111 0.0
C1127 C 0.80703 0.2387 0.29845 0.0
C1128 C 0.80206 0.23211 0.23686 0.0
C1129 C 0.81783 0.23255 0.18928 0.0
C1130 C 0.75267 0.24694 0.38344 0.0
C1131 C 0.75729 0.23967 0.44465 0.0
C1132 C 0.76863 0.24637 0.33607 0.0
C1133 C 0.7898 0.23882 0.3487 0.0
C1134 C 0.79432 0.23145 0.40986 0.0
C1135 C 0.7783 0.23174 0.45688 0.0
H1136 H 0.36228 0.24984 0.35766 0.0
H1137 H 0.31557 0.27207 0.49431 0.0
H1138 H 0.33424 0.25114 0.27608 0.0
H1139 H 0.28766 0.27315 0.41327 0.0
H1140 H 0.23857 0.24644 0.26391 0.0
H1141 H 0.26635 0.24737 0.34643 0.0
H1142 H 0.3111 0.27737 0.21712 0.0
H1143 H 0.2835 0.27664 0.13538 0.0
C1144 C 0.34613 0.25522 0.37025 0.0
C1145 C 0.34134 0.26096 0.4327 0.0
C1146 C 0.33001 0.25596 0.32345 0.0
C1147 C 0.30854 0.26214 0.33796 0.0
C1148 C 0.30386 0.26807 0.40031 0.0
C1149 C 0.32001 0.26763 0.44677 0.0
C1150 C 0.25423 0.25348 0.25336 0.0
C1151 C 0.25864 0.26153 0.19282 0.0
C1152 C 0.27021 0.25402 0.30068 0.0
C1153 C 0.29113 0.26231 0.28849 0.0
C1154 C 0.29536 0.2706 0.22819 0.0
C1155 C 0.27936 0.27035 0.18135 0.0
H1156 H 0.31453 0.72442 0.64434 0.0
H1157 H 0.36113 0.74833 0.77862 0.0
H1158 H 0.28686 0.72324 0.72628 0.0
H1159 H 0.33337 0.74704 0.86097 0.0
H1160 H 0.28326 0.72358 1.00574 0.0
H1161 H 0.31072 0.72182 0.92343 0.0
H1162 H 0.26519 0.74879 0.79101 0.0
H1163 H 0.2376 0.75066 0.87384 0.0
C1164 C 0.31901 0.72919 0.69156 0.0
C1165 C 0.34022 0.73639 0.70465 0.0
C1166 C 0.303 0.7287 0.73856 0.0
C1167 C 0.30771 0.73514 0.80049 0.0
C1168 C 0.3291 0.74178 0.81404 0.0
C1169 C 0.34508 0.74254 0.76674 0.0
C1170 C 0.27894 0.72893 0.95894 0.0
C1171 C 0.25806 0.7372 0.94668 0.0
C1172 C 0.29484 0.7281 0.91172 0.0
C1173 C 0.29036 0.73528 0.85035 0.0
C1174 C 0.26927 0.74296 0.83751 0.0
C1175 C 0.25339 0.74405 0.88507 0.0
H1176 H 0.57442 0.98539 0.25622 0.0
H1177 H 0.54995 0.93868 0.12307 0.0
H1178 H 0.57618 0.0127 0.17355 0.0
H1179 H 0.55177 0.96611 0.03996 0.0
H1180 H 0.57552 0.01568 0.89378 0.0
H1181 H 0.57686 0.98827 0.97633 0.0
H1182 H 0.55127 0.0346 0.10897 0.0
H1183 H 0.54989 0.0621 0.02605 0.0
C1184 C 0.56965 0.98081 0.2091 0.0
C1185 C 0.56211 0.95967 0.19657 0.0
C1186 C 0.57047 0.99662 0.16164 0.0
C1187 C 0.564 0.9918 0.0998 0.0
C1188 C 0.55706 0.97047 0.08679 0.0
C1189 C 0.556 0.95467 0.13454 0.0
C1190 C 0.57038 0.02017 0.94068 0.0
C1191 C 0.56266 0.04126 0.95302 0.0
C1192 C 0.57097 0.00431 0.98805 0.0
C1193 C 0.56407 0.00904 0.0496 0.0
C1194 C 0.55689 0.03031 0.06239 0.0
C1195 C 0.55607 0.04614 0.01474 0.0
H1196 H 0.06653 0.05335 0.64355 0.0
H1197 H 0.00527 0.03116 0.71716 0.0
H1198 H 0.06671 0.02307 0.56861 0.0
H1199 H 0.00518 1.00132 0.64123 0.0
H1200 H 0.0052 0.9668 0.44177 0.0
H1201 H 0.00395 0.99612 0.51925 0.0
H1202 H 0.06888 0.98027 0.57833 0.0
H1203 H 0.06992 0.95046 0.5018 0.0
C1204 C 0.05288 0.04231 0.64288 0.0
C1205 C 0.0358 0.04485 0.68615 0.0
C1206 C 0.05312 0.02479 0.60045 0.0
C1207 C 0.03604 0.00962 0.59917 0.0
C1208 C 0.01858 0.01266 0.64084 0.0
C1209 C 0.0186 0.02984 0.68423 0.0
C1210 C 0.01905 0.96923 0.47224 0.0
C1211 C 0.03756 0.95606 0.46595 0.0
C1212 C 0.01835 0.98612 0.5165 0.0
C1213 C 0.03639 0.99073 0.55466 0.0
C1214 C 0.05478 0.9773 0.54929 0.0
C1215 C 0.05527 0.96003 0.506 0.0
loop_
_geom_bond_atom_site_label_1
_geom_bond_atom_site_label_2
_geom_bond_distance
_geom_bond_site_symmetry_2
_ccdc_geom_bond_type
Mn0 O5 2.095 . S
Mn0 O15 2.162 . S
Mn0 O16 2.297 . S
Mn0 O24 2.385 . S
Mn0 O25 2.209 . S
Mn0 O26 2.094 . S
Mn1 O6 2.121 . S
Mn1 N8 2.257 . S
Mn1 N17 2.282 . S
Mn1 O25 2.215 . S
Mn1 O27 2.117 . S
C2 O24 1.234 . S
C2 O25 1.283 . S
C3 O15 1.281 . S
C3 O16 1.236 . S
C4 O26 1.240 . S
C4 O27 1.264 . S
O5 Mn0 2.095 . S
O5 C14 1.250 . S
O6 Mn1 2.121 . S
O6 C14 1.258 . S
C7 N8 1.326 . S
C7 C11 1.460 . S
C7 H13 0.929 . S
N8 Mn1 2.257 . S
N8 C7 1.326 . S
N8 C12 1.362 . S
C9 C10 1.258 . S
C9 C12 1.431 1_556 S
C9 C29 1.449 . S
C10 C9 1.258 . S
C10 C11 1.477 1_556 S
C10 H30 0.931 . S
C11 C7 1.460 . S
C11 C10 1.477 1_554 S
C11 H31 0.930 . S
C12 N8 1.362 . S
C12 C9 1.431 1_554 S
C12 C22 1.476 . S
H13 C7 0.929 . S
C14 O5 1.250 . S
C14 O6 1.258 . S
O15 Mn0 2.162 . S
O15 C3 1.281 . S
O16 Mn0 2.297 . S
O16 C3 1.236 . S
N17 Mn1 2.282 . S
N17 C18 1.328 . S
N17 C22 1.318 . S
C18 N17 1.328 . S
C18 C19 1.457 . S
C18 H23 0.929 . S
C19 C18 1.457 . S
C19 C20 1.291 1_554 S
C19 H32 0.931 1_455 S
C20 C19 1.291 1_556 S
C20 C21 1.373 . S
C20 H33 0.929 . S
C21 C20 1.373 . S
C21 C22 1.396 1_556 S
C21 C28 1.403 . S
C22 C12 1.476 . S
C22 N17 1.318 . S
C22 C21 1.396 1_554 S
H23 C18 0.929 . S
O24 Mn0 2.385 . S
O24 C2 1.234 . S
O25 Mn0 2.209 . S
O25 Mn1 2.215 . S
O25 C2 1.283 . S
O26 Mn0 2.094 . S
O26 C4 1.240 . S
O27 Mn1 2.117 . S
O27 C4 1.264 . S
C28 C21 1.403 . S
C28 C29 1.399 . S
C28 H34 0.929 . S
C29 C9 1.449 . S
C29 C28 1.399 . S
C29 H35 0.930 . S
H30 C10 0.931 . S
H31 C11 0.930 . S
H32 C19 0.931 1_655 S
H33 C20 0.929 . S
H34 C28 0.929 . S
H35 C29 0.930 . S
Mn36 O41 2.095 . S
Mn36 O51 2.162 . S
Mn36 O52 2.297 . S
Mn36 O60 2.385 . S
Mn36 O61 2.209 . S
Mn36 O62 2.094 . S
Mn37 O42 2.121 . S
Mn37 N44 2.257 . S
Mn37 N53 2.282 . S
Mn37 O61 2.215 . S
Mn37 O63 2.117 . S
C38 O60 1.234 . S
C38 O61 1.283 . S
C39 O51 1.281 . S
C39 O52 1.236 . S
C40 O62 1.240 . S
C40 O63 1.264 . S
O41 Mn36 2.095 . S
O41 C50 1.250 . S
O42 Mn37 2.121 . S
O42 C50 1.258 . S
C43 N44 1.326 . S
C43 C47 1.460 . S
C43 H49 0.929 . S
N44 Mn37 2.257 . S
N44 C43 1.326 . S
N44 C48 1.362 . S
C45 C46 1.258 . S
C45 C48 1.431 . S
C45 C65 1.449 . S
C46 C45 1.258 . S
C46 C47 1.477 . S
C46 H66 0.931 . S
C47 C43 1.460 . S
C47 C46 1.477 . S
C47 H67 0.930 . S
C48 N44 1.362 . S
C48 C45 1.431 . S
C48 C58 1.476 . S
H49 C43 0.929 . S
C50 O41 1.250 . S
C50 O42 1.258 . S
O51 Mn36 2.162 . S
O51 C39 1.281 . S
O52 Mn36 2.297 . S
O52 C39 1.236 . S
N53 Mn37 2.282 . S
N53 C54 1.328 . S
N53 C58 1.318 . S
C54 N53 1.328 . S
C54 C55 1.457 . S
C54 H59 0.929 . S
C55 C54 1.457 . S
C55 C56 1.291 . S
C55 H68 0.931 . S
C56 C55 1.291 . S
C56 C57 1.373 . S
C56 H69 0.929 . S
C57 C56 1.373 . S
C57 C58 1.396 . S
C57 C64 1.403 . S
C58 C48 1.476 . S
C58 N53 1.318 . S
C58 C57 1.396 . S
H59 C54 0.929 . S
O60 Mn36 2.385 . S
O60 C38 1.234 . S
O61 Mn36 2.209 . S
O61 Mn37 2.215 . S
O61 C38 1.283 . S
O62 Mn36 2.094 . S
O62 C40 1.240 . S
O63 Mn37 2.117 . S
O63 C40 1.264 . S
C64 C57 1.403 . S
C64 C65 1.399 . S
C64 H70 0.929 . S
C65 C45 1.449 . S
C65 C64 1.399 . S
C65 H71 0.930 . S
H66 C46 0.931 . S
H67 C47 0.930 . S
H68 C55 0.931 . S
H69 C56 0.929 . S
H70 C64 0.929 . S
H71 C65 0.930 . S
Mn72 O77 2.095 . S
Mn72 O87 2.162 . S
Mn72 O88 2.297 . S
Mn72 O96 2.385 . S
Mn72 O97 2.209 . S
Mn72 O98 2.094 . S
Mn73 O78 2.121 . S
Mn73 N80 2.257 . S
Mn73 N89 2.282 . S
Mn73 O97 2.215 . S
Mn73 O99 2.117 . S
C74 O96 1.234 . S
C74 O97 1.283 . S
C75 O87 1.281 . S
C75 O88 1.236 . S
C76 O98 1.240 . S
C76 O99 1.264 . S
O77 Mn72 2.095 . S
O77 C86 1.250 . S
O78 Mn73 2.121 . S
O78 C86 1.258 . S
C79 N80 1.326 . S
C79 C83 1.460 . S
C79 H85 0.929 . S
N80 Mn73 2.257 . S
N80 C79 1.326 . S
N80 C84 1.362 . S
C81 C82 1.258 . S
C81 C84 1.431 . S
C81 C101 1.449 . S
C82 C81 1.258 . S
C82 C83 1.477 . S
C82 H102 0.931 . S
C83 C79 1.460 . S
C83 C82 1.477 . S
C83 H103 0.930 . S
C84 N80 1.362 . S
C84 C81 1.431 . S
C84 C94 1.476 . S
H85 C79 0.929 . S
C86 O77 1.250 . S
C86 O78 1.258 . S
O87 Mn72 2.162 . S
O87 C75 1.281 . S
O88 Mn72 2.297 . S
O88 C75 1.236 . S
N89 Mn73 2.282 . S
N89 C90 1.328 . S
N89 C94 1.318 . S
C90 N89 1.328 . S
C90 C91 1.457 . S
C90 H95 0.929 . S
C91 C90 1.457 . S
C91 C92 1.291 . S
C91 H104 0.931 . S
C92 C91 1.291 . S
C92 C93 1.373 . S
C92 H105 0.929 . S
C93 C92 1.373 . S
C93 C94 1.396 . S
C93 C100 1.403 . S
C94 C84 1.476 . S
C94 N89 1.318 . S
C94 C93 1.396 . S
H95 C90 0.929 . S
O96 Mn72 2.385 . S
O96 C74 1.234 . S
O97 Mn72 2.209 . S
O97 Mn73 2.215 . S
O97 C74 1.283 . S
O98 Mn72 2.094 . S
O98 C76 1.240 . S
O99 Mn73 2.117 . S
O99 C76 1.264 . S
C100 C93 1.403 . S
C100 C101 1.399 . S
C100 H106 0.929 . S
C101 C81 1.449 . S
C101 C100 1.399 . S
C101 H107 0.930 . S
H102 C82 0.931 . S
H103 C83 0.930 . S
H104 C91 0.931 . S
H105 C92 0.929 . S
H106 C100 0.929 . S
H107 C101 0.930 . S
Mn108 O113 2.095 . S
Mn108 O123 2.162 . S
Mn108 O124 2.297 . S
Mn108 O132 2.385 1_554 S
Mn108 O133 2.209 1_554 S
Mn108 O134 2.094 . S
Mn109 O114 2.121 . S
Mn109 N116 2.257 . S
Mn109 N125 2.282 . S
Mn109 O133 2.215 . S
Mn109 O135 2.117 . S
C110 O132 1.234 . S
C110 O133 1.283 . S
C111 O123 1.281 . S
C111 O124 1.236 . S
C112 O134 1.240 1_556 S
C112 O135 1.264 . S
O113 Mn108 2.095 . S
O113 C122 1.250 1_554 S
O114 Mn109 2.121 . S
O114 C122 1.258 . S
C115 N116 1.326 . S
C115 C119 1.460 . S
C115 H121 0.929 . S
N116 Mn109 2.257 . S
N116 C115 1.326 . S
N116 C120 1.362 . S
C117 C118 1.258 . S
C117 C120 1.431 . S
C117 C137 1.449 . S
C118 C117 1.258 . S
C118 C119 1.477 . S
C118 H138 0.931 . S
C119 C115 1.460 . S
C119 C118 1.477 . S
C119 H139 0.930 . S
C120 N116 1.362 . S
C120 C117 1.431 . S
C120 C130 1.476 . S
H121 C115 0.929 . S
C122 O113 1.250 1_556 S
C122 O114 1.258 . S
O123 Mn108 2.162 . S
O123 C111 1.281 . S
O124 Mn108 2.297 . S
O124 C111 1.236 . S
N125 Mn109 2.282 . S
N125 C126 1.328 . S
N125 C130 1.318 . S
C126 N125 1.328 . S
C126 C127 1.457 . S
C126 H131 0.929 . S
C127 C126 1.457 . S
C127 C128 1.291 . S
C127 H140 0.931 . S
C128 C127 1.291 . S
C128 C129 1.373 . S
C128 H141 0.929 . S
C129 C128 1.373 . S
C129 C130 1.396 . S
C129 C136 1.403 . S
C130 C120 1.476 . S
C130 N125 1.318 . S
C130 C129 1.396 . S
H131 C126 0.929 . S
O132 Mn108 2.385 1_556 S
O132 C110 1.234 . S
O133 Mn108 2.209 1_556 S
O133 Mn109 2.215 . S
O133 C110 1.283 . S
O134 Mn108 2.094 . S
O134 C112 1.240 1_554 S
O135 Mn109 2.117 . S
O135 C112 1.264 . S
C136 C129 1.403 . S
C136 C137 1.399 . S
C136 H142 0.929 . S
C137 C117 1.449 . S
C137 C136 1.399 . S
C137 H143 0.930 . S
H138 C118 0.931 . S
H139 C119 0.930 . S
H140 C127 0.931 . S
H141 C128 0.929 . S
H142 C136 0.929 . S
H143 C137 0.930 . S
Mn144 O149 2.095 . S
Mn144 O159 2.162 . S
Mn144 O160 2.297 . S
Mn144 O168 2.385 . S
Mn144 O169 2.209 . S
Mn144 O170 2.094 . S
Mn145 O150 2.121 . S
Mn145 N152 2.257 1_556 S
Mn145 N161 2.282 1_556 S
Mn145 O169 2.215 . S
Mn145 O171 2.117 . S
C146 O168 1.234 . S
C146 O169 1.283 . S
C147 O159 1.281 . S
C147 O160 1.236 . S
C148 O170 1.240 . S
C148 O171 1.264 . S
O149 Mn144 2.095 . S
O149 C158 1.250 . S
O150 Mn145 2.121 . S
O150 C158 1.258 . S
C151 N152 1.326 . S
C151 C155 1.460 . S
C151 H157 0.929 . S
N152 Mn145 2.257 1_554 S
N152 C151 1.326 . S
N152 C156 1.362 . S
C153 C154 1.258 . S
C153 C156 1.431 . S
C153 C173 1.449 . S
C154 C153 1.258 . S
C154 C155 1.477 . S
C154 H174 0.931 . S
C155 C151 1.460 . S
C155 C154 1.477 . S
C155 H175 0.930 . S
C156 N152 1.362 . S
C156 C153 1.431 . S
C156 C166 1.476 . S
H157 C151 0.929 . S
C158 O149 1.250 . S
C158 O150 1.258 . S
O159 Mn144 2.162 . S
O159 C147 1.281 . S
O160 Mn144 2.297 . S
O160 C147 1.236 . S
N161 Mn145 2.282 1_554 S
N161 C162 1.328 . S
N161 C166 1.318 . S
C162 N161 1.328 . S
C162 C163 1.457 . S
C162 H167 0.929 . S
C163 C162 1.457 . S
C163 C164 1.291 . S
C163 H176 0.931 1_455 S
C164 C163 1.291 . S
C164 C165 1.373 . S
C164 H177 0.929 . S
C165 C164 1.373 . S
C165 C166 1.396 . S
C165 C172 1.403 . S
C166 C156 1.476 . S
C166 N161 1.318 . S
C166 C165 1.396 . S
H167 C162 0.929 . S
O168 Mn144 2.385 . S
O168 C146 1.234 . S
O169 Mn144 2.209 . S
O169 Mn145 2.215 . S
O169 C146 1.283 . S
O170 Mn144 2.094 . S
O170 C148 1.240 . S
O171 Mn145 2.117 . S
O171 C148 1.264 . S
C172 C165 1.403 . S
C172 C173 1.399 . S
C172 H178 0.929 . S
C173 C153 1.449 . S
C173 C172 1.399 . S
C173 H179 0.930 . S
H174 C154 0.931 . S
H175 C155 0.930 . S
H176 C163 0.931 1_655 S
H177 C164 0.929 . S
H178 C172 0.929 . S
H179 C173 0.930 . S
Mn180 O185 2.095 . S
Mn180 O195 2.162 1_554 S
Mn180 O196 2.297 . S
Mn180 O204 2.385 . S
Mn180 O205 2.209 . S
Mn180 O206 2.094 . S
Mn181 O186 2.121 . S
Mn181 N188 2.257 . S
Mn181 N197 2.282 . S
Mn181 O205 2.215 . S
Mn181 O207 2.117 . S
C182 O204 1.234 . S
C182 O205 1.283 . S
C183 O195 1.281 . S
C183 O196 1.236 1_556 S
C184 O206 1.240 . S
C184 O207 1.264 . S
O185 Mn180 2.095 . S
O185 C194 1.250 . S
O186 Mn181 2.121 . S
O186 C194 1.258 . S
C187 N188 1.326 . S
C187 C191 1.460 . S
C187 H193 0.929 . S
N188 Mn181 2.257 . S
N188 C187 1.326 . S
N188 C192 1.362 . S
C189 C190 1.258 . S
C189 C192 1.431 . S
C189 C209 1.449 . S
C190 C189 1.258 . S
C190 C191 1.477 . S
C190 H210 0.931 . S
C191 C187 1.460 . S
C191 C190 1.477 . S
C191 H211 0.930 . S
C192 N188 1.362 . S
C192 C189 1.431 . S
C192 C202 1.476 . S
H193 C187 0.929 . S
C194 O185 1.250 . S
C194 O186 1.258 . S
O195 Mn180 2.162 1_556 S
O195 C183 1.281 . S
O196 Mn180 2.297 . S
O196 C183 1.236 1_554 S
N197 Mn181 2.282 . S
N197 C198 1.328 . S
N197 C202 1.318 . S
C198 N197 1.328 . S
C198 C199 1.457 . S
C198 H203 0.929 . S
C199 C198 1.457 . S
C199 C200 1.291 . S
C199 H212 0.931 . S
C200 C199 1.291 . S
C200 C201 1.373 . S
C200 H213 0.929 . S
C201 C200 1.373 . S
C201 C202 1.396 . S
C201 C208 1.403 . S
C202 C192 1.476 . S
C202 N197 1.318 . S
C202 C201 1.396 . S
H203 C198 0.929 . S
O204 Mn180 2.385 . S
O204 C182 1.234 . S
O205 Mn180 2.209 . S
O205 Mn181 2.215 . S
O205 C182 1.283 . S
O206 Mn180 2.094 . S
O206 C184 1.240 . S
O207 Mn181 2.117 . S
O207 C184 1.264 . S
C208 C201 1.403 . S
C208 C209 1.399 . S
C208 H214 0.929 . S
C209 C189 1.449 . S
C209 C208 1.399 . S
C209 H215 0.930 . S
H210 C190 0.931 . S
H211 C191 0.930 . S
H212 C199 0.931 . S
H213 C200 0.929 . S
H214 C208 0.929 . S
H215 C209 0.930 . S
Mn216 O221 2.095 . S
Mn216 O231 2.162 . S
Mn216 O232 2.297 . S
Mn216 O240 2.385 . S
Mn216 O241 2.209 . S
Mn216 O242 2.094 . S
Mn217 O222 2.121 . S
Mn217 N224 2.257 . S
Mn217 N233 2.282 . S
Mn217 O241 2.215 . S
Mn217 O243 2.117 . S
C218 O240 1.234 . S
C218 O241 1.283 . S
C219 O231 1.281 . S
C219 O232 1.236 . S
C220 O242 1.240 . S
C220 O243 1.264 . S
O221 Mn216 2.095 . S
O221 C230 1.250 . S
O222 Mn217 2.121 . S
O222 C230 1.258 . S
C223 N224 1.326 . S
C223 C227 1.460 . S
C223 H229 0.929 . S
N224 Mn217 2.257 . S
N224 C223 1.326 . S
N224 C228 1.362 . S
C225 C226 1.258 . S
C225 C228 1.431 . S
C225 C245 1.449 . S
C226 C225 1.258 . S
C226 C227 1.477 . S
C226 H246 0.931 . S
C227 C223 1.460 . S
C227 C226 1.477 . S
C227 H247 0.930 . S
C228 N224 1.362 . S
C228 C225 1.431 . S
C228 C238 1.476 . S
H229 C223 0.929 . S
C230 O221 1.250 . S
C230 O222 1.258 . S
O231 Mn216 2.162 . S
O231 C219 1.281 . S
O232 Mn216 2.297 . S
O232 C219 1.236 . S
N233 Mn217 2.282 . S
N233 C234 1.328 . S
N233 C238 1.318 . S
C234 N233 1.328 . S
C234 C235 1.457 . S
C234 H239 0.929 . S
C235 C234 1.457 . S
C235 C236 1.291 . S
C235 H248 0.931 . S
C236 C235 1.291 . S
C236 C237 1.373 . S
C236 H249 0.929 . S
C237 C236 1.373 . S
C237 C238 1.396 . S
C237 C244 1.403 . S
C238 C228 1.476 . S
C238 N233 1.318 . S
C238 C237 1.396 . S
H239 C234 0.929 . S
O240 Mn216 2.385 . S
O240 C218 1.234 . S
O241 Mn216 2.209 . S
O241 Mn217 2.215 . S
O241 C218 1.283 . S
O242 Mn216 2.094 . S
O242 C220 1.240 . S
O243 Mn217 2.117 . S
O243 C220 1.264 . S
C244 C237 1.403 . S
C244 C245 1.399 . S
C244 H250 0.929 . S
C245 C225 1.449 . S
C245 C244 1.399 . S
C245 H251 0.930 . S
H246 C226 0.931 . S
H247 C227 0.930 . S
H248 C235 0.931 . S
H249 C236 0.929 . S
H250 C244 0.929 . S
H251 C245 0.930 . S
Mn252 O257 2.095 . S
Mn252 O267 2.162 . S
Mn252 O268 2.297 . S
Mn252 O276 2.385 . S
Mn252 O277 2.209 . S
Mn252 O278 2.094 . S
Mn253 O258 2.121 . S
Mn253 N260 2.257 . S
Mn253 N269 2.282 . S
Mn253 O277 2.215 . S
Mn253 O279 2.117 . S
C254 O276 1.234 . S
C254 O277 1.283 . S
C255 O267 1.281 . S
C255 O268 1.236 . S
C256 O278 1.240 . S
C256 O279 1.264 . S
O257 Mn252 2.095 . S
O257 C266 1.250 . S
O258 Mn253 2.121 . S
O258 C266 1.258 . S
C259 N260 1.326 . S
C259 C263 1.460 . S
C259 H265 0.929 . S
N260 Mn253 2.257 . S
N260 C259 1.326 . S
N260 C264 1.362 . S
C261 C262 1.258 . S
C261 C264 1.431 . S
C261 C281 1.449 . S
C262 C261 1.258 . S
C262 C263 1.477 . S
C262 H282 0.931 . S
C263 C259 1.460 . S
C263 C262 1.477 . S
C263 H283 0.930 . S
C264 N260 1.362 . S
C264 C261 1.431 . S
C264 C274 1.476 . S
H265 C259 0.929 . S
C266 O257 1.250 . S
C266 O258 1.258 . S
O267 Mn252 2.162 . S
O267 C255 1.281 . S
O268 Mn252 2.297 . S
O268 C255 1.236 . S
N269 Mn253 2.282 . S
N269 C270 1.328 . S
N269 C274 1.318 . S
C270 N269 1.328 . S
C270 C271 1.457 . S
C270 H275 0.929 . S
C271 C270 1.457 . S
C271 C272 1.291 . S
C271 H284 0.931 . S
C272 C271 1.291 . S
C272 C273 1.373 . S
C272 H285 0.929 . S
C273 C272 1.373 . S
C273 C274 1.396 . S
C273 C280 1.403 . S
C274 C264 1.476 . S
C274 N269 1.318 . S
C274 C273 1.396 . S
H275 C270 0.929 . S
O276 Mn252 2.385 . S
O276 C254 1.234 . S
O277 Mn252 2.209 . S
O277 Mn253 2.215 . S
O277 C254 1.283 . S
O278 Mn252 2.094 . S
O278 C256 1.240 . S
O279 Mn253 2.117 . S
O279 C256 1.264 . S
C280 C273 1.403 . S
C280 C281 1.399 . S
C280 H286 0.929 . S
C281 C261 1.449 . S
C281 C280 1.399 . S
C281 H287 0.930 . S
H282 C262 0.931 . S
H283 C263 0.930 . S
H284 C271 0.931 . S
H285 C272 0.929 . S
H286 C280 0.929 . S
H287 C281 0.930 . S
Mn288 O293 2.095 . S
Mn288 O303 2.162 . S
Mn288 O304 2.297 . S
Mn288 O312 2.385 . S
Mn288 O313 2.209 . S
Mn288 O314 2.094 . S
Mn289 O294 2.121 . S
Mn289 N296 2.257 . S
Mn289 N305 2.282 . S
Mn289 O313 2.215 . S
Mn289 O315 2.117 . S
C290 O312 1.234 . S
C290 O313 1.283 . S
C291 O303 1.281 . S
C291 O304 1.236 . S
C292 O314 1.240 . S
C292 O315 1.264 . S
O293 Mn288 2.095 . S
O293 C302 1.250 . S
O294 Mn289 2.121 . S
O294 C302 1.258 . S
C295 N296 1.326 . S
C295 C299 1.460 . S
C295 H301 0.929 . S
N296 Mn289 2.257 . S
N296 C295 1.326 . S
N296 C300 1.362 . S
C297 C298 1.258 . S
C297 C300 1.431 . S
C297 C317 1.449 . S
C298 C297 1.258 . S
C298 C299 1.477 . S
C298 H318 0.931 . S
C299 C295 1.460 . S
C299 C298 1.477 . S
C299 H319 0.930 . S
C300 N296 1.362 . S
C300 C297 1.431 . S
C300 C310 1.476 . S
H301 C295 0.929 . S
C302 O293 1.250 . S
C302 O294 1.258 . S
O303 Mn288 2.162 . S
O303 C291 1.281 . S
O304 Mn288 2.297 . S
O304 C291 1.236 . S
N305 Mn289 2.282 . S
N305 C306 1.328 . S
N305 C310 1.318 . S
C306 N305 1.328 . S
C306 C307 1.457 . S
C306 H311 0.929 . S
C307 C306 1.457 . S
C307 C308 1.291 . S
C307 H320 0.931 . S
C308 C307 1.291 . S
C308 C309 1.373 . S
C308 H321 0.929 . S
C309 C308 1.373 . S
C309 C310 1.396 . S
C309 C316 1.403 . S
C310 C300 1.476 . S
C310 N305 1.318 . S
C310 C309 1.396 . S
H311 C306 0.929 . S
O312 Mn288 2.385 . S
O312 C290 1.234 . S
O313 Mn288 2.209 . S
O313 Mn289 2.215 . S
O313 C290 1.283 . S
O314 Mn288 2.094 . S
O314 C292 1.240 . S
O315 Mn289 2.117 . S
O315 C292 1.264 . S
C316 C309 1.403 . S
C316 C317 1.399 . S
C316 H322 0.929 . S
C317 C297 1.449 . S
C317 C316 1.399 . S
C317 H323 0.930 . S
H318 C298 0.931 . S
H319 C299 0.930 . S
H320 C307 0.931 . S
H321 C308 0.929 . S
H322 C316 0.929 . S
H323 C317 0.930 . S
Mn324 O329 2.095 . S
Mn324 O339 2.162 1_554 S
Mn324 O340 2.297 . S
Mn324 O348 2.385 . S
Mn324 O349 2.209 . S
Mn324 O350 2.094 . S
Mn325 O330 2.121 . S
Mn325 N332 2.257 . S
Mn325 N341 2.282 . S
Mn325 O349 2.215 . S
Mn325 O351 2.117 . S
C326 O348 1.234 . S
C326 O349 1.283 . S
C327 O339 1.281 . S
C327 O340 1.236 1_556 S
C328 O350 1.240 . S
C328 O351 1.264 . S
O329 Mn324 2.095 . S
O329 C338 1.250 . S
O330 Mn325 2.121 . S
O330 C338 1.258 . S
C331 N332 1.326 . S
C331 C335 1.460 . S
C331 H337 0.929 . S
N332 Mn325 2.257 . S
N332 C331 1.326 . S
N332 C336 1.362 . S
C333 C334 1.258 . S
C333 C336 1.431 . S
C333 C353 1.449 . S
C334 C333 1.258 . S
C334 C335 1.477 . S
C334 H354 0.931 . S
C335 C331 1.460 . S
C335 C334 1.477 . S
C335 H355 0.930 . S
C336 N332 1.362 . S
C336 C333 1.431 . S
C336 C346 1.476 . S
H337 C331 0.929 . S
C338 O329 1.250 . S
C338 O330 1.258 . S
O339 Mn324 2.162 1_556 S
O339 C327 1.281 . S
O340 Mn324 2.297 . S
O340 C327 1.236 1_554 S
N341 Mn325 2.282 . S
N341 C342 1.328 . S
N341 C346 1.318 . S
C342 N341 1.328 . S
C342 C343 1.457 . S
C342 H347 0.929 . S
C343 C342 1.457 . S
C343 C344 1.291 . S
C343 H356 0.931 . S
C344 C343 1.291 . S
C344 C345 1.373 . S
C344 H357 0.929 . S
C345 C344 1.373 . S
C345 C346 1.396 . S
C345 C352 1.403 . S
C346 C336 1.476 . S
C346 N341 1.318 . S
C346 C345 1.396 . S
H347 C342 0.929 . S
O348 Mn324 2.385 . S
O348 C326 1.234 . S
O349 Mn324 2.209 . S
O349 Mn325 2.215 . S
O349 C326 1.283 . S
O350 Mn324 2.094 . S
O350 C328 1.240 . S
O351 Mn325 2.117 . S
O351 C328 1.264 . S
C352 C345 1.403 . S
C352 C353 1.399 . S
C352 H358 0.929 . S
C353 C333 1.449 . S
C353 C352 1.399 . S
C353 H359 0.930 . S
H354 C334 0.931 . S
H355 C335 0.930 . S
H356 C343 0.931 . S
H357 C344 0.929 . S
H358 C352 0.929 . S
H359 C353 0.930 . S
Mn360 O365 2.095 . S
Mn360 O375 2.162 . S
Mn360 O376 2.297 . S
Mn360 O384 2.385 1_554 S
Mn360 O385 2.209 1_554 S
Mn360 O386 2.094 . S
Mn361 O366 2.121 . S
Mn361 N368 2.257 . S
Mn361 N377 2.282 . S
Mn361 O385 2.215 . S
Mn361 O387 2.117 . S
C362 O384 1.234 . S
C362 O385 1.283 . S
C363 O375 1.281 . S
C363 O376 1.236 . S
C364 O386 1.240 1_556 S
C364 O387 1.264 . S
O365 Mn360 2.095 . S
O365 C374 1.250 1_554 S
O366 Mn361 2.121 . S
O366 C374 1.258 . S
C367 N368 1.326 . S
C367 C371 1.460 . S
C367 H373 0.929 . S
N368 Mn361 2.257 . S
N368 C367 1.326 . S
N368 C372 1.362 . S
C369 C370 1.258 . S
C369 C372 1.431 . S
C369 C389 1.449 . S
C370 C369 1.258 . S
C370 C371 1.477 . S
C370 H390 0.931 . S
C371 C367 1.460 . S
C371 C370 1.477 . S
C371 H391 0.930 . S
C372 N368 1.362 . S
C372 C369 1.431 . S
C372 C382 1.476 . S
H373 C367 0.929 . S
C374 O365 1.250 1_556 S
C374 O366 1.258 . S
O375 Mn360 2.162 . S
O375 C363 1.281 . S
O376 Mn360 2.297 . S
O376 C363 1.236 . S
N377 Mn361 2.282 . S
N377 C378 1.328 . S
N377 C382 1.318 . S
C378 N377 1.328 . S
C378 C379 1.457 . S
C378 H383 0.929 . S
C379 C378 1.457 . S
C379 C380 1.291 . S
C379 H392 0.931 . S
C380 C379 1.291 . S
C380 C381 1.373 . S
C380 H393 0.929 . S
C381 C380 1.373 . S
C381 C382 1.396 . S
C381 C388 1.403 . S
C382 C372 1.476 . S
C382 N377 1.318 . S
C382 C381 1.396 . S
H383 C378 0.929 . S
O384 Mn360 2.385 1_556 S
O384 C362 1.234 . S
O385 Mn360 2.209 1_556 S
O385 Mn361 2.215 . S
O385 C362 1.283 . S
O386 Mn360 2.094 . S
O386 C364 1.240 1_554 S
O387 Mn361 2.117 . S
O387 C364 1.264 . S
C388 C381 1.403 . S
C388 C389 1.399 . S
C388 H394 0.929 . S
C389 C369 1.449 . S
C389 C388 1.399 . S
C389 H395 0.930 . S
H390 C370 0.931 . S
H391 C371 0.930 . S
H392 C379 0.931 . S
H393 C380 0.929 . S
H394 C388 0.929 . S
H395 C389 0.930 . S
Mn396 O401 2.095 . S
Mn396 O411 2.162 . S
Mn396 O412 2.297 . S
Mn396 O420 2.385 . S
Mn396 O421 2.209 . S
Mn396 O422 2.094 . S
Mn397 O402 2.121 . S
Mn397 N404 2.257 . S
Mn397 N413 2.282 . S
Mn397 O421 2.215 . S
Mn397 O423 2.117 . S
C398 O420 1.234 . S
C398 O421 1.283 . S
C399 O411 1.281 . S
C399 O412 1.236 . S
C400 O422 1.240 . S
C400 O423 1.264 . S
O401 Mn396 2.095 . S
O401 C410 1.250 . S
O402 Mn397 2.121 . S
O402 C410 1.258 . S
C403 N404 1.326 . S
C403 C407 1.460 . S
C403 H409 0.929 . S
N404 Mn397 2.257 . S
N404 C403 1.326 . S
N404 C408 1.362 . S
C405 C406 1.258 . S
C405 C408 1.431 . S
C405 C425 1.449 . S
C406 C405 1.258 . S
C406 C407 1.477 . S
C406 H426 0.931 . S
C407 C403 1.460 . S
C407 C406 1.477 . S
C407 H427 0.930 . S
C408 N404 1.362 . S
C408 C405 1.431 . S
C408 C418 1.476 . S
H409 C403 0.929 . S
C410 O401 1.250 . S
C410 O402 1.258 . S
O411 Mn396 2.162 . S
O411 C399 1.281 . S
O412 Mn396 2.297 . S
O412 C399 1.236 . S
N413 Mn397 2.282 . S
N413 C414 1.328 . S
N413 C418 1.318 . S
C414 N413 1.328 . S
C414 C415 1.457 . S
C414 H419 0.929 . S
C415 C414 1.457 . S
C415 C416 1.291 . S
C415 H428 0.931 . S
C416 C415 1.291 . S
C416 C417 1.373 . S
C416 H429 0.929 . S
C417 C416 1.373 . S
C417 C418 1.396 . S
C417 C424 1.403 . S
C418 C408 1.476 . S
C418 N413 1.318 . S
C418 C417 1.396 . S
H419 C414 0.929 . S
O420 Mn396 2.385 . S
O420 C398 1.234 . S
O421 Mn396 2.209 . S
O421 Mn397 2.215 . S
O421 C398 1.283 . S
O422 Mn396 2.094 . S
O422 C400 1.240 . S
O423 Mn397 2.117 . S
O423 C400 1.264 . S
C424 C417 1.403 . S
C424 C425 1.399 . S
C424 H430 0.929 . S
C425 C405 1.449 . S
C425 C424 1.399 . S
C425 H431 0.930 . S
H426 C406 0.931 . S
H427 C407 0.930 . S
H428 C415 0.931 . S
H429 C416 0.929 . S
H430 C424 0.929 . S
H431 C425 0.930 . S
Mn432 O437 2.095 . S
Mn432 O447 2.162 . S
Mn432 O448 2.297 . S
Mn432 O456 2.385 . S
Mn432 O457 2.209 . S
Mn432 O458 2.094 . S
Mn433 O438 2.121 . S
Mn433 N440 2.257 . S
Mn433 N449 2.282 . S
Mn433 O457 2.215 . S
Mn433 O459 2.117 . S
C434 O456 1.234 . S
C434 O457 1.283 . S
C435 O447 1.281 . S
C435 O448 1.236 . S
C436 O458 1.240 . S
C436 O459 1.264 . S
O437 Mn432 2.095 . S
O437 C446 1.250 . S
O438 Mn433 2.121 . S
O438 C446 1.258 . S
C439 N440 1.326 . S
C439 C443 1.460 . S
C439 H445 0.929 . S
N440 Mn433 2.257 . S
N440 C439 1.326 . S
N440 C444 1.362 . S
C441 C442 1.258 . S
C441 C444 1.431 . S
C441 C461 1.449 . S
C442 C441 1.258 . S
C442 C443 1.477 . S
C442 H462 0.931 . S
C443 C439 1.460 . S
C443 C442 1.477 . S
C443 H463 0.930 . S
C444 N440 1.362 . S
C444 C441 1.431 . S
C444 C454 1.476 . S
H445 C439 0.929 . S
C446 O437 1.250 . S
C446 O438 1.258 . S
O447 Mn432 2.162 . S
O447 C435 1.281 . S
O448 Mn432 2.297 . S
O448 C435 1.236 . S
N449 Mn433 2.282 . S
N449 C450 1.328 . S
N449 C454 1.318 . S
C450 N449 1.328 . S
C450 C451 1.457 . S
C450 H455 0.929 . S
C451 C450 1.457 . S
C451 C452 1.291 . S
C451 H464 0.931 . S
C452 C451 1.291 . S
C452 C453 1.373 . S
C452 H465 0.929 . S
C453 C452 1.373 . S
C453 C454 1.396 . S
C453 C460 1.403 . S
C454 C444 1.476 . S
C454 N449 1.318 . S
C454 C453 1.396 . S
H455 C450 0.929 . S
O456 Mn432 2.385 . S
O456 C434 1.234 . S
O457 Mn432 2.209 . S
O457 Mn433 2.215 . S
O457 C434 1.283 . S
O458 Mn432 2.094 . S
O458 C436 1.240 . S
O459 Mn433 2.117 . S
O459 C436 1.264 . S
C460 C453 1.403 . S
C460 C461 1.399 . S
C460 H466 0.929 . S
C461 C441 1.449 . S
C461 C460 1.399 . S
C461 H467 0.930 . S
H462 C442 0.931 . S
H463 C443 0.930 . S
H464 C451 0.931 . S
H465 C452 0.929 . S
H466 C460 0.929 . S
H467 C461 0.930 . S
Mn468 O473 2.095 . S
Mn468 O483 2.162 . S
Mn468 O484 2.297 . S
Mn468 O492 2.385 . S
Mn468 O493 2.209 . S
Mn468 O494 2.094 . S
Mn469 O474 2.121 . S
Mn469 N476 2.257 . S
Mn469 N485 2.282 . S
Mn469 O493 2.215 . S
Mn469 O495 2.117 . S
C470 O492 1.234 . S
C470 O493 1.283 . S
C471 O483 1.281 . S
C471 O484 1.236 . S
C472 O494 1.240 . S
C472 O495 1.264 . S
O473 Mn468 2.095 . S
O473 C482 1.250 . S
O474 Mn469 2.121 . S
O474 C482 1.258 . S
C475 N476 1.326 1_655 S
C475 C479 1.460 . S
C475 H481 0.929 . S
N476 Mn469 2.257 . S
N476 C475 1.326 1_455 S
N476 C480 1.362 . S
C477 C478 1.258 1_455 S
C477 C480 1.431 1_556 S
C477 C497 1.449 . S
C478 C477 1.258 1_655 S
C478 C479 1.477 1_556 S
C478 H498 0.931 . S
C479 C475 1.460 . S
C479 C478 1.477 1_554 S
C479 H499 0.930 . S
C480 N476 1.362 . S
C480 C477 1.431 1_554 S
C480 C490 1.476 . S
H481 C475 0.929 . S
C482 O473 1.250 . S
C482 O474 1.258 . S
O483 Mn468 2.162 . S
O483 C471 1.281 . S
O484 Mn468 2.297 . S
O484 C471 1.236 . S
N485 Mn469 2.282 . S
N485 C486 1.328 . S
N485 C490 1.318 . S
C486 N485 1.328 . S
C486 C487 1.457 . S
C486 H491 0.929 . S
C487 C486 1.457 . S
C487 C488 1.291 1_554 S
C487 H500 0.931 . S
C488 C487 1.291 1_556 S
C488 C489 1.373 . S
C488 H501 0.929 . S
C489 C488 1.373 . S
C489 C490 1.396 1_556 S
C489 C496 1.403 . S
C490 C480 1.476 . S
C490 N485 1.318 . S
C490 C489 1.396 1_554 S
H491 C486 0.929 . S
O492 Mn468 2.385 . S
O492 C470 1.234 . S
O493 Mn468 2.209 . S
O493 Mn469 2.215 . S
O493 C470 1.283 . S
O494 Mn468 2.094 . S
O494 C472 1.240 . S
O495 Mn469 2.117 . S
O495 C472 1.264 . S
C496 C489 1.403 . S
C496 C497 1.399 . S
C496 H502 0.929 . S
C497 C477 1.449 . S
C497 C496 1.399 . S
C497 H503 0.930 . S
H498 C478 0.931 . S
H499 C479 0.930 . S
H500 C487 0.931 . S
H501 C488 0.929 . S
H502 C496 0.929 . S
H503 C497 0.930 . S
Mn504 O509 2.095 . S
Mn504 O519 2.162 . S
Mn504 O520 2.297 . S
Mn504 O528 2.385 . S
Mn504 O529 2.209 . S
Mn504 O530 2.094 . S
Mn505 O510 2.121 . S
Mn505 N512 2.257 . S
Mn505 N521 2.282 . S
Mn505 O529 2.215 . S
Mn505 O531 2.117 . S
C506 O528 1.234 . S
C506 O529 1.283 . S
C507 O519 1.281 . S
C507 O520 1.236 . S
C508 O530 1.240 . S
C508 O531 1.264 . S
O509 Mn504 2.095 . S
O509 C518 1.250 . S
O510 Mn505 2.121 . S
O510 C518 1.258 . S
C511 N512 1.326 . S
C511 C515 1.460 . S
C511 H517 0.929 . S
N512 Mn505 2.257 . S
N512 C511 1.326 . S
N512 C516 1.362 . S
C513 C514 1.258 . S
C513 C516 1.431 . S
C513 C533 1.449 . S
C514 C513 1.258 . S
C514 C515 1.477 . S
C514 H534 0.931 . S
C515 C511 1.460 . S
C515 C514 1.477 . S
C515 H535 0.930 . S
C516 N512 1.362 . S
C516 C513 1.431 . S
C516 C526 1.476 . S
H517 C511 0.929 . S
C518 O509 1.250 . S
C518 O510 1.258 . S
O519 Mn504 2.162 . S
O519 C507 1.281 . S
O520 Mn504 2.297 . S
O520 C507 1.236 . S
N521 Mn505 2.282 . S
N521 C522 1.328 . S
N521 C526 1.318 . S
C522 N521 1.328 . S
C522 C523 1.457 . S
C522 H527 0.929 . S
C523 C522 1.457 . S
C523 C524 1.291 . S
C523 H536 0.931 . S
C524 C523 1.291 . S
C524 C525 1.373 . S
C524 H537 0.929 . S
C525 C524 1.373 . S
C525 C526 1.396 . S
C525 C532 1.403 . S
C526 C516 1.476 . S
C526 N521 1.318 . S
C526 C525 1.396 . S
H527 C522 0.929 . S
O528 Mn504 2.385 . S
O528 C506 1.234 . S
O529 Mn504 2.209 . S
O529 Mn505 2.215 . S
O529 C506 1.283 . S
O530 Mn504 2.094 . S
O530 C508 1.240 . S
O531 Mn505 2.117 . S
O531 C508 1.264 . S
C532 C525 1.403 . S
C532 C533 1.399 . S
C532 H538 0.929 . S
C533 C513 1.449 . S
C533 C532 1.399 . S
C533 H539 0.930 . S
H534 C514 0.931 . S
H535 C515 0.930 . S
H536 C523 0.931 . S
H537 C524 0.929 . S
H538 C532 0.929 . S
H539 C533 0.930 . S
Mn540 O545 2.095 . S
Mn540 O555 2.162 . S
Mn540 O556 2.297 . S
Mn540 O564 2.385 . S
Mn540 O565 2.209 . S
Mn540 O566 2.094 . S
Mn541 O546 2.121 . S
Mn541 N548 2.257 1_556 S
Mn541 N557 2.282 1_556 S
Mn541 O565 2.215 . S
Mn541 O567 2.117 . S
C542 O564 1.234 . S
C542 O565 1.283 . S
C543 O555 1.281 . S
C543 O556 1.236 . S
C544 O566 1.240 . S
C544 O567 1.264 . S
O545 Mn540 2.095 . S
O545 C554 1.250 . S
O546 Mn541 2.121 . S
O546 C554 1.258 . S
C547 N548 1.326 1_655 S
C547 C551 1.460 . S
C547 H553 0.929 . S
N548 Mn541 2.257 1_554 S
N548 C547 1.326 1_455 S
N548 C552 1.362 . S
C549 C550 1.258 1_455 S
C549 C552 1.431 . S
C549 C569 1.449 . S
C550 C549 1.258 1_655 S
C550 C551 1.477 . S
C550 H570 0.931 . S
C551 C547 1.460 . S
C551 C550 1.477 . S
C551 H571 0.930 . S
C552 N548 1.362 . S
C552 C549 1.431 . S
C552 C562 1.476 . S
H553 C547 0.929 . S
C554 O545 1.250 . S
C554 O546 1.258 . S
O555 Mn540 2.162 . S
O555 C543 1.281 . S
O556 Mn540 2.297 . S
O556 C543 1.236 . S
N557 Mn541 2.282 1_554 S
N557 C558 1.328 . S
N557 C562 1.318 . S
C558 N557 1.328 . S
C558 C559 1.457 . S
C558 H563 0.929 . S
C559 C558 1.457 . S
C559 C560 1.291 . S
C559 H572 0.931 . S
C560 C559 1.291 . S
C560 C561 1.373 . S
C560 H573 0.929 . S
C561 C560 1.373 . S
C561 C562 1.396 . S
C561 C568 1.403 . S
C562 C552 1.476 . S
C562 N557 1.318 . S
C562 C561 1.396 . S
H563 C558 0.929 . S
O564 Mn540 2.385 . S
O564 C542 1.234 . S
O565 Mn540 2.209 . S
O565 Mn541 2.215 . S
O565 C542 1.283 . S
O566 Mn540 2.094 . S
O566 C544 1.240 . S
O567 Mn541 2.117 . S
O567 C544 1.264 . S
C568 C561 1.403 . S
C568 C569 1.399 . S
C568 H574 0.929 . S
C569 C549 1.449 . S
C569 C568 1.399 . S
C569 H575 0.930 . S
H570 C550 0.931 . S
H571 C551 0.930 . S
H572 C559 0.931 . S
H573 C560 0.929 . S
H574 C568 0.929 . S
H575 C569 0.930 . S
H576 C584 0.950 . S
H577 C589 0.950 . S
H578 C586 0.950 . S
H579 C588 0.950 . S
H580 C590 0.950 . S
H581 C592 0.950 . S
H582 C594 0.950 . S
H583 C595 0.950 . S
C584 H576 0.950 . S
C584 C585 1.386 . S
C584 C586 1.391 . S
C585 C584 1.386 . S
C585 C589 1.393 . S
C586 H578 0.950 . S
C586 C584 1.391 . S
C586 C587 1.400 . S
C587 C586 1.400 . S
C587 C588 1.398 . S
C587 C593 1.491 . S
C588 H579 0.950 . S
C588 C587 1.398 . S
C588 C589 1.391 . S
C589 H577 0.950 . S
C589 C585 1.393 . S
C589 C588 1.391 . S
C590 H580 0.950 . S
C590 C591 1.386 . S
C590 C592 1.391 . S
C591 C590 1.386 . S
C591 C595 1.393 . S
C592 H581 0.950 . S
C592 C590 1.391 . S
C592 C593 1.400 . S
C593 C587 1.491 . S
C593 C592 1.400 . S
C593 C594 1.398 . S
C594 H582 0.950 . S
C594 C593 1.398 . S
C594 C595 1.391 . S
C595 H583 0.950 . S
C595 C591 1.393 . S
C595 C594 1.391 . S
H596 C604 0.950 . S
H597 C609 0.950 . S
H598 C606 0.950 . S
H599 C608 0.950 . S
H600 C610 0.950 . S
H601 C612 0.950 . S
H602 C614 0.950 . S
H603 C615 0.950 . S
C604 H596 0.950 . S
C604 C605 1.386 . S
C604 C606 1.391 . S
C605 C604 1.386 . S
C605 C609 1.393 . S
C606 H598 0.950 . S
C606 C604 1.391 . S
C606 C607 1.400 . S
C607 C606 1.400 . S
C607 C608 1.398 . S
C607 C613 1.491 . S
C608 H599 0.950 . S
C608 C607 1.398 . S
C608 C609 1.391 . S
C609 H597 0.950 . S
C609 C605 1.393 . S
C609 C608 1.391 . S
C610 H600 0.950 . S
C610 C611 1.386 . S
C610 C612 1.391 . S
C611 C610 1.386 . S
C611 C615 1.393 . S
C612 H601 0.950 . S
C612 C610 1.391 . S
C612 C613 1.400 . S
C613 C607 1.491 . S
C613 C612 1.400 . S
C613 C614 1.398 . S
C614 H602 0.950 . S
C614 C613 1.398 . S
C614 C615 1.391 . S
C615 H603 0.950 . S
C615 C611 1.393 . S
C615 C614 1.391 . S
H616 C624 0.950 . S
H617 C629 0.950 . S
H618 C626 0.950 . S
H619 C628 0.950 . S
H620 C630 0.950 . S
H621 C632 0.950 . S
H622 C634 0.950 . S
H623 C635 0.950 . S
C624 H616 0.950 . S
C624 C625 1.386 . S
C624 C626 1.391 . S
C625 C624 1.386 . S
C625 C629 1.393 . S
C626 H618 0.950 . S
C626 C624 1.391 . S
C626 C627 1.400 . S
C627 C626 1.400 . S
C627 C628 1.398 . S
C627 C633 1.491 . S
C628 H619 0.950 . S
C628 C627 1.398 . S
C628 C629 1.391 . S
C629 H617 0.950 . S
C629 C625 1.393 . S
C629 C628 1.391 . S
C630 H620 0.950 . S
C630 C631 1.386 . S
C630 C632 1.391 . S
C631 C630 1.386 . S
C631 C635 1.393 . S
C632 H621 0.950 . S
C632 C630 1.391 . S
C632 C633 1.400 . S
C633 C627 1.491 . S
C633 C632 1.400 . S
C633 C634 1.398 . S
C634 H622 0.950 . S
C634 C633 1.398 . S
C634 C635 1.391 . S
C635 H623 0.950 . S
C635 C631 1.393 . S
C635 C634 1.391 . S
H636 C644 0.946 1_554 S
H637 C649 0.950 . S
H638 C646 0.950 . S
H639 C648 0.950 . S
H640 C650 0.950 . S
H641 C652 0.950 . S
H642 C654 0.950 . S
H643 C655 0.950 1_455 S
C644 H636 0.946 1_556 S
C644 C645 1.386 . S
C644 C646 1.391 . S
C645 C644 1.386 . S
C645 C649 1.393 . S
C646 H638 0.950 . S
C646 C644 1.391 . S
C646 C647 1.400 . S
C647 C646 1.400 . S
C647 C648 1.398 . S
C647 C653 1.491 . S
C648 H639 0.950 . S
C648 C647 1.398 . S
C648 C649 1.391 . S
C649 H637 0.950 . S
C649 C645 1.393 . S
C649 C648 1.391 . S
C650 H640 0.950 . S
C650 C651 1.386 . S
C650 C652 1.391 . S
C651 C650 1.386 . S
C651 C655 1.393 . S
C652 H641 0.950 . S
C652 C650 1.391 . S
C652 C653 1.400 . S
C653 C647 1.491 . S
C653 C652 1.400 . S
C653 C654 1.398 . S
C654 H642 0.950 . S
C654 C653 1.398 . S
C654 C655 1.391 . S
C655 H643 0.950 1_655 S
C655 C651 1.393 . S
C655 C654 1.391 . S
H656 C664 0.950 . S
H657 C669 0.950 . S
H658 C666 0.950 . S
H659 C668 0.950 . S
H660 C670 0.950 . S
H661 C672 0.950 1_554 S
H662 C674 0.950 . S
H663 C675 0.950 . S
C664 H656 0.950 . S
C664 C665 1.386 . S
C664 C666 1.391 . S
C665 C664 1.386 . S
C665 C669 1.393 . S
C666 H658 0.950 . S
C666 C664 1.391 . S
C666 C667 1.400 . S
C667 C666 1.400 . S
C667 C668 1.398 . S
C667 C673 1.491 . S
C668 H659 0.950 . S
C668 C667 1.398 . S
C668 C669 1.391 . S
C669 H657 0.950 . S
C669 C665 1.393 . S
C669 C668 1.391 . S
C670 H660 0.950 . S
C670 C671 1.386 1_554 S
C670 C672 1.391 1_554 S
C671 C670 1.386 1_556 S
C671 C675 1.393 . S
C672 H661 0.950 1_556 S
C672 C670 1.391 1_556 S
C672 C673 1.400 . S
C673 C667 1.491 . S
C673 C672 1.400 . S
C673 C674 1.398 . S
C674 H662 0.950 . S
C674 C673 1.398 . S
C674 C675 1.391 . S
C675 H663 0.950 . S
C675 C671 1.393 . S
C675 C674 1.391 . S
H676 C684 0.950 . S
H677 C689 0.950 . S
H678 C686 0.950 . S
H679 C688 0.950 . S
H680 C690 0.950 . S
H681 C692 0.950 . S
H682 C694 0.950 . S
H683 C695 0.950 . S
C684 H676 0.950 . S
C684 C685 1.386 . S
C684 C686 1.391 . S
C685 C684 1.386 . S
C685 C689 1.393 . S
C686 H678 0.950 . S
C686 C684 1.391 . S
C686 C687 1.400 . S
C687 C686 1.400 . S
C687 C688 1.398 . S
C687 C693 1.491 . S
C688 H679 0.950 . S
C688 C687 1.398 . S
C688 C689 1.391 . S
C689 H677 0.950 . S
C689 C685 1.393 . S
C689 C688 1.391 . S
C690 H680 0.950 . S
C690 C691 1.386 . S
C690 C692 1.391 . S
C691 C690 1.386 . S
C691 C695 1.393 . S
C692 H681 0.950 . S
C692 C690 1.391 . S
C692 C693 1.400 . S
C693 C687 1.491 . S
C693 C692 1.400 . S
C693 C694 1.398 . S
C694 H682 0.950 . S
C694 C693 1.398 . S
C694 C695 1.391 . S
C695 H683 0.950 . S
C695 C691 1.393 . S
C695 C694 1.391 . S
H696 C704 0.950 . S
H697 C709 0.950 . S
H698 C706 0.950 . S
H699 C708 0.950 . S
H700 C710 0.950 . S
H701 C712 0.950 . S
H702 C714 0.950 . S
H703 C715 0.950 . S
C704 H696 0.950 . S
C704 C705 1.386 . S
C704 C706 1.391 . S
C705 C704 1.386 . S
C705 C709 1.393 . S
C706 H698 0.950 . S
C706 C704 1.391 . S
C706 C707 1.400 . S
C707 C706 1.400 . S
C707 C708 1.398 . S
C707 C713 1.491 . S
C708 H699 0.950 . S
C708 C707 1.398 . S
C708 C709 1.391 . S
C709 H697 0.950 . S
C709 C705 1.393 . S
C709 C708 1.391 . S
C710 H700 0.950 . S
C710 C711 1.386 . S
C710 C712 1.391 . S
C711 C710 1.386 . S
C711 C715 1.393 . S
C712 H701 0.950 . S
C712 C710 1.391 . S
C712 C713 1.400 . S
C713 C707 1.491 . S
C713 C712 1.400 . S
C713 C714 1.398 . S
C714 H702 0.950 . S
C714 C713 1.398 . S
C714 C715 1.391 . S
C715 H703 0.950 . S
C715 C711 1.393 . S
C715 C714 1.391 . S
H716 C724 0.950 . S
H717 C729 0.950 . S
H718 C726 0.950 . S
H719 C728 0.950 . S
H720 C730 0.950 . S
H721 C732 0.950 . S
H722 C734 0.950 . S
H723 C735 0.950 . S
C724 H716 0.950 . S
C724 C725 1.386 . S
C724 C726 1.391 . S
C725 C724 1.386 . S
C725 C729 1.393 . S
C726 H718 0.950 . S
C726 C724 1.391 . S
C726 C727 1.400 . S
C727 C726 1.400 . S
C727 C728 1.398 . S
C727 C733 1.491 . S
C728 H719 0.950 . S
C728 C727 1.398 . S
C728 C729 1.391 . S
C729 H717 0.950 . S
C729 C725 1.393 . S
C729 C728 1.391 . S
C730 H720 0.950 . S
C730 C731 1.386 . S
C730 C732 1.391 . S
C731 C730 1.386 . S
C731 C735 1.393 . S
C732 H721 0.950 . S
C732 C730 1.391 . S
C732 C733 1.400 . S
C733 C727 1.491 . S
C733 C732 1.400 . S
C733 C734 1.398 . S
C734 H722 0.950 . S
C734 C733 1.398 . S
C734 C735 1.391 . S
C735 H723 0.950 . S
C735 C731 1.393 . S
C735 C734 1.391 . S
H736 C744 0.950 1_455 S
H737 C749 0.950 . S
H738 C746 0.950 1_554 S
H739 C748 0.950 . S
H740 C750 0.950 . S
H741 C752 0.950 . S
H742 C754 0.950 1_554 S
H743 C755 0.950 . S
C744 H736 0.950 1_655 S
C744 C745 1.386 . S
C744 C746 1.391 . S
C745 C744 1.386 . S
C745 C749 1.393 . S
C746 H738 0.950 1_556 S
C746 C744 1.391 . S
C746 C747 1.400 . S
C747 C746 1.400 . S
C747 C748 1.398 . S
C747 C753 1.491 . S
C748 H739 0.950 . S
C748 C747 1.398 . S
C748 C749 1.391 . S
C749 H737 0.950 . S
C749 C745 1.393 . S
C749 C748 1.391 . S
C750 H740 0.950 . S
C750 C751 1.386 . S
C750 C752 1.391 . S
C751 C750 1.386 . S
C751 C755 1.393 1_556 S
C752 H741 0.950 . S
C752 C750 1.391 . S
C752 C753 1.400 . S
C753 C747 1.491 . S
C753 C752 1.400 . S
C753 C754 1.398 . S
C754 H742 0.950 1_556 S
C754 C753 1.398 . S
C754 C755 1.391 1_556 S
C755 H743 0.950 . S
C755 C751 1.393 1_554 S
C755 C754 1.391 1_554 S
H756 C764 0.950 . S
H757 C769 0.950 . S
H758 C766 0.950 . S
H759 C768 0.950 . S
H760 C770 0.950 . S
H761 C772 0.950 . S
H762 C774 0.950 . S
H763 C775 0.950 . S
C764 H756 0.950 . S
C764 C765 1.386 . S
C764 C766 1.391 . S
C765 C764 1.386 . S
C765 C769 1.393 . S
C766 H758 0.950 . S
C766 C764 1.391 . S
C766 C767 1.400 . S
C767 C766 1.400 . S
C767 C768 1.398 . S
C767 C773 1.491 . S
C768 H759 0.950 . S
C768 C767 1.398 . S
C768 C769 1.391 . S
C769 H757 0.950 . S
C769 C765 1.393 . S
C769 C768 1.391 . S
C770 H760 0.950 . S
C770 C771 1.386 . S
C770 C772 1.391 . S
C771 C770 1.386 . S
C771 C775 1.393 . S
C772 H761 0.950 . S
C772 C770 1.391 . S
C772 C773 1.400 . S
C773 C767 1.491 . S
C773 C772 1.400 . S
C773 C774 1.398 . S
C774 H762 0.950 . S
C774 C773 1.398 . S
C774 C775 1.391 . S
C775 H763 0.950 . S
C775 C771 1.393 . S
C775 C774 1.391 . S
H776 C784 0.950 . S
H777 C789 0.950 . S
H778 C786 0.950 . S
H779 C788 0.950 . S
H780 C790 0.950 . S
H781 C792 0.950 . S
H782 C794 0.950 . S
H783 C795 0.950 . S
C784 H776 0.950 . S
C784 C785 1.386 . S
C784 C786 1.391 . S
C785 C784 1.386 . S
C785 C789 1.393 . S
C786 H778 0.950 . S
C786 C784 1.391 . S
C786 C787 1.400 . S
C787 C786 1.400 . S
C787 C788 1.398 . S
C787 C793 1.491 . S
C788 H779 0.950 . S
C788 C787 1.398 . S
C788 C789 1.391 . S
C789 H777 0.950 . S
C789 C785 1.393 . S
C789 C788 1.391 . S
C790 H780 0.950 . S
C790 C791 1.386 . S
C790 C792 1.391 . S
C791 C790 1.386 . S
C791 C795 1.393 . S
C792 H781 0.950 . S
C792 C790 1.391 . S
C792 C793 1.400 . S
C793 C787 1.491 . S
C793 C792 1.400 . S
C793 C794 1.398 . S
C794 H782 0.950 . S
C794 C793 1.398 . S
C794 C795 1.391 . S
C795 H783 0.950 . S
C795 C791 1.393 . S
C795 C794 1.391 . S
H796 C804 0.950 . S
H797 C809 0.950 . S
H798 C806 0.950 . S
H799 C808 0.950 . S
H800 C810 0.950 . S
H801 C812 0.950 . S
H802 C814 0.950 . S
H803 C815 0.950 . S
C804 H796 0.950 . S
C804 C805 1.386 . S
C804 C806 1.391 . S
C805 C804 1.386 . S
C805 C809 1.393 . S
C806 H798 0.950 . S
C806 C804 1.391 . S
C806 C807 1.400 . S
C807 C806 1.400 . S
C807 C808 1.398 . S
C807 C813 1.491 . S
C808 H799 0.950 . S
C808 C807 1.398 . S
C808 C809 1.391 . S
C809 H797 0.950 . S
C809 C805 1.393 . S
C809 C808 1.391 . S
C810 H800 0.950 . S
C810 C811 1.386 . S
C810 C812 1.391 . S
C811 C810 1.386 . S
C811 C815 1.393 . S
C812 H801 0.950 . S
C812 C810 1.391 . S
C812 C813 1.400 . S
C813 C807 1.491 . S
C813 C812 1.400 . S
C813 C814 1.398 . S
C814 H802 0.950 . S
C814 C813 1.398 . S
C814 C815 1.391 . S
C815 H803 0.950 . S
C815 C811 1.393 . S
C815 C814 1.391 . S
H816 C824 0.950 1_455 S
H817 C829 0.950 . S
H818 C826 0.950 . S
H819 C828 0.950 . S
H820 C830 0.950 . S
H821 C832 0.950 . S
H822 C834 0.950 . S
H823 C835 0.950 . S
C824 H816 0.950 1_655 S
C824 C825 1.386 . S
C824 C826 1.391 . S
C825 C824 1.386 . S
C825 C829 1.393 . S
C826 H818 0.950 . S
C826 C824 1.391 . S
C826 C827 1.400 . S
C827 C826 1.400 . S
C827 C828 1.398 . S
C827 C833 1.491 . S
C828 H819 0.950 . S
C828 C827 1.398 . S
C828 C829 1.391 . S
C829 H817 0.950 . S
C829 C825 1.393 . S
C829 C828 1.391 . S
C830 H820 0.950 . S
C830 C831 1.386 . S
C830 C832 1.391 . S
C831 C830 1.386 . S
C831 C835 1.393 . S
C832 H821 0.950 . S
C832 C830 1.391 . S
C832 C833 1.400 . S
C833 C827 1.491 . S
C833 C832 1.400 . S
C833 C834 1.398 . S
C834 H822 0.950 . S
C834 C833 1.398 . S
C834 C835 1.391 . S
C835 H823 0.950 . S
C835 C831 1.393 . S
C835 C834 1.391 . S
H836 C844 0.950 . S
H837 C849 0.950 . S
H838 C846 0.950 . S
H839 C848 0.950 . S
H840 C850 0.942 1_554 S
H841 C852 0.950 . S
H842 C854 0.950 . S
H843 C855 0.950 . S
C844 H836 0.950 . S
C844 C845 1.386 . S
C844 C846 1.391 . S
C845 C844 1.386 . S
C845 C849 1.393 . S
C846 H838 0.950 . S
C846 C844 1.391 . S
C846 C847 1.400 . S
C847 C846 1.400 . S
C847 C848 1.398 . S
C847 C853 1.491 . S
C848 H839 0.950 . S
C848 C847 1.398 . S
C848 C849 1.391 . S
C849 H837 0.950 . S
C849 C845 1.393 . S
C849 C848 1.391 . S
C850 H840 0.942 1_556 S
C850 C851 1.386 . S
C850 C852 1.391 . S
C851 C850 1.386 . S
C851 C855 1.393 . S
C852 H841 0.950 . S
C852 C850 1.391 . S
C852 C853 1.400 . S
C853 C847 1.491 . S
C853 C852 1.400 . S
C853 C854 1.398 . S
C854 H842 0.950 . S
C854 C853 1.398 . S
C854 C855 1.391 . S
C855 H843 0.950 . S
C855 C851 1.393 . S
C855 C854 1.391 . S
H856 C864 0.950 . S
H857 C869 0.950 . S
H858 C866 0.950 . S
H859 C868 0.950 . S
H860 C870 0.950 . S
H861 C872 0.950 . S
H862 C874 0.950 . S
H863 C875 0.950 . S
C864 H856 0.950 . S
C864 C865 1.386 . S
C864 C866 1.391 . S
C865 C864 1.386 . S
C865 C869 1.393 . S
C866 H858 0.950 . S
C866 C864 1.391 . S
C866 C867 1.400 . S
C867 C866 1.400 . S
C867 C868 1.398 . S
C867 C873 1.491 . S
C868 H859 0.950 . S
C868 C867 1.398 . S
C868 C869 1.391 . S
C869 H857 0.950 . S
C869 C865 1.393 . S
C869 C868 1.391 . S
C870 H860 0.950 . S
C870 C871 1.386 . S
C870 C872 1.391 . S
C871 C870 1.386 . S
C871 C875 1.393 . S
C872 H861 0.950 . S
C872 C870 1.391 . S
C872 C873 1.400 . S
C873 C867 1.491 . S
C873 C872 1.400 . S
C873 C874 1.398 . S
C874 H862 0.950 . S
C874 C873 1.398 . S
C874 C875 1.391 . S
C875 H863 0.950 . S
C875 C871 1.393 . S
C875 C874 1.391 . S
H876 C884 0.950 . S
H877 C889 0.950 . S
H878 C886 0.950 . S
H879 C888 0.950 . S
H880 C890 0.950 . S
H881 C892 0.950 . S
H882 C894 0.950 . S
H883 C895 0.950 . S
C884 H876 0.950 . S
C884 C885 1.386 . S
C884 C886 1.391 . S
C885 C884 1.386 . S
C885 C889 1.393 . S
C886 H878 0.950 . S
C886 C884 1.391 . S
C886 C887 1.400 . S
C887 C886 1.400 . S
C887 C888 1.398 . S
C887 C893 1.491 . S
C888 H879 0.950 . S
C888 C887 1.398 . S
C888 C889 1.391 . S
C889 H877 0.950 . S
C889 C885 1.393 . S
C889 C888 1.391 . S
C890 H880 0.950 . S
C890 C891 1.386 . S
C890 C892 1.391 . S
C891 C890 1.386 . S
C891 C895 1.393 . S
C892 H881 0.950 . S
C892 C890 1.391 . S
C892 C893 1.400 . S
C893 C887 1.491 . S
C893 C892 1.400 . S
C893 C894 1.398 . S
C894 H882 0.950 . S
C894 C893 1.398 . S
C894 C895 1.391 . S
C895 H883 0.950 . S
C895 C891 1.393 . S
C895 C894 1.391 . S
H896 C904 0.950 . S
H897 C909 0.950 . S
H898 C906 0.950 . S
H899 C908 0.950 . S
H900 C910 0.950 . S
H901 C912 0.950 . S
H902 C914 0.950 1_554 S
H903 C915 0.950 . S
C904 H896 0.950 . S
C904 C905 1.386 . S
C904 C906 1.391 . S
C905 C904 1.386 . S
C905 C909 1.393 . S
C906 H898 0.950 . S
C906 C904 1.391 . S
C906 C907 1.400 . S
C907 C906 1.400 . S
C907 C908 1.398 . S
C907 C913 1.491 . S
C908 H899 0.950 . S
C908 C907 1.398 . S
C908 C909 1.391 . S
C909 H897 0.950 . S
C909 C905 1.393 . S
C909 C908 1.391 . S
C910 H900 0.950 . S
C910 C911 1.386 . S
C910 C912 1.391 1_556 S
C911 C910 1.386 . S
C911 C915 1.393 . S
C912 H901 0.950 . S
C912 C910 1.391 1_554 S
C912 C913 1.400 . S
C913 C907 1.491 . S
C913 C912 1.400 . S
C913 C914 1.398 1_554 S
C914 H902 0.950 1_556 S
C914 C913 1.398 1_556 S
C914 C915 1.391 . S
C915 H903 0.950 . S
C915 C911 1.393 . S
C915 C914 1.391 . S
H916 C924 0.950 . S
H917 C929 0.950 . S
H918 C926 0.950 . S
H919 C928 0.950 . S
H920 C930 0.950 . S
H921 C932 0.950 . S
H922 C934 0.950 . S
H923 C935 0.950 . S
C924 H916 0.950 . S
C924 C925 1.386 . S
C924 C926 1.391 . S
C925 C924 1.386 . S
C925 C929 1.393 . S
C926 H918 0.950 . S
C926 C924 1.391 . S
C926 C927 1.400 . S
C927 C926 1.400 . S
C927 C928 1.398 . S
C927 C933 1.491 . S
C928 H919 0.950 . S
C928 C927 1.398 . S
C928 C929 1.391 . S
C929 H917 0.950 . S
C929 C925 1.393 . S
C929 C928 1.391 . S
C930 H920 0.950 . S
C930 C931 1.386 . S
C930 C932 1.391 . S
C931 C930 1.386 . S
C931 C935 1.393 . S
C932 H921 0.950 . S
C932 C930 1.391 . S
C932 C933 1.400 . S
C933 C927 1.491 . S
C933 C932 1.400 . S
C933 C934 1.398 . S
C934 H922 0.950 . S
C934 C933 1.398 . S
C934 C935 1.391 . S
C935 H923 0.950 . S
C935 C931 1.393 . S
C935 C934 1.391 . S
H936 C944 0.950 . S
H937 C949 0.950 . S
H938 C946 0.950 . S
H939 C948 0.950 . S
H940 C950 0.950 . S
H941 C952 0.950 . S
H942 C954 0.950 . S
H943 C955 0.950 . S
C944 H936 0.950 . S
C944 C945 1.386 . S
C944 C946 1.391 . S
C945 C944 1.386 . S
C945 C949 1.393 . S
C946 H938 0.950 . S
C946 C944 1.391 . S
C946 C947 1.400 . S
C947 C946 1.400 . S
C947 C948 1.398 . S
C947 C953 1.491 . S
C948 H939 0.950 . S
C948 C947 1.398 . S
C948 C949 1.391 . S
C949 H937 0.950 . S
C949 C945 1.393 . S
C949 C948 1.391 . S
C950 H940 0.950 . S
C950 C951 1.386 . S
C950 C952 1.391 . S
C951 C950 1.386 . S
C951 C955 1.393 . S
C952 H941 0.950 . S
C952 C950 1.391 . S
C952 C953 1.400 . S
C953 C947 1.491 . S
C953 C952 1.400 . S
C953 C954 1.398 . S
C954 H942 0.950 . S
C954 C953 1.398 . S
C954 C955 1.391 . S
C955 H943 0.950 . S
C955 C951 1.393 . S
C955 C954 1.391 . S
H956 C964 0.950 . S
H957 C969 0.950 . S
H958 C966 0.950 . S
H959 C968 0.950 . S
H960 C970 0.950 . S
H961 C972 0.950 . S
H962 C974 0.950 . S
H963 C975 0.950 . S
C964 H956 0.950 . S
C964 C965 1.386 . S
C964 C966 1.391 . S
C965 C964 1.386 . S
C965 C969 1.393 . S
C966 H958 0.950 . S
C966 C964 1.391 . S
C966 C967 1.400 . S
C967 C966 1.400 . S
C967 C968 1.398 . S
C967 C973 1.491 . S
C968 H959 0.950 . S
C968 C967 1.398 . S
C968 C969 1.391 . S
C969 H957 0.950 . S
C969 C965 1.393 . S
C969 C968 1.391 . S
C970 H960 0.950 . S
C970 C971 1.386 . S
C970 C972 1.391 . S
C971 C970 1.386 . S
C971 C975 1.393 . S
C972 H961 0.950 . S
C972 C970 1.391 . S
C972 C973 1.400 . S
C973 C967 1.491 . S
C973 C972 1.400 . S
C973 C974 1.398 . S
C974 H962 0.950 . S
C974 C973 1.398 . S
C974 C975 1.391 . S
C975 H963 0.950 . S
C975 C971 1.393 . S
C975 C974 1.391 . S
H976 C984 0.950 . S
H977 C989 0.950 . S
H978 C986 0.950 . S
H979 C988 0.950 . S
H980 C990 0.950 . S
H981 C992 0.950 . S
H982 C994 0.950 . S
H983 C995 0.950 . S
C984 H976 0.950 . S
C984 C985 1.386 . S
C984 C986 1.391 . S
C985 C984 1.386 . S
C985 C989 1.393 . S
C986 H978 0.950 . S
C986 C984 1.391 . S
C986 C987 1.400 . S
C987 C986 1.400 . S
C987 C988 1.398 . S
C987 C993 1.491 . S
C988 H979 0.950 . S
C988 C987 1.398 . S
C988 C989 1.391 . S
C989 H977 0.950 . S
C989 C985 1.393 . S
C989 C988 1.391 . S
C990 H980 0.950 . S
C990 C991 1.386 . S
C990 C992 1.391 . S
C991 C990 1.386 . S
C991 C995 1.393 . S
C992 H981 0.950 . S
C992 C990 1.391 . S
C992 C993 1.400 . S
C993 C987 1.491 . S
C993 C992 1.400 . S
C993 C994 1.398 . S
C994 H982 0.950 . S
C994 C993 1.398 . S
C994 C995 1.391 . S
C995 H983 0.950 . S
C995 C991 1.393 . S
C995 C994 1.391 . S
H996 C1004 0.950 . S
H997 C1009 0.950 . S
H998 C1006 0.950 . S
H999 C1008 0.950 . S
H1000 C1010 0.950 . S
H1001 C1012 0.950 . S
H1002 C1014 0.950 . S
H1003 C1015 0.950 . S
C1004 H996 0.950 . S
C1004 C1005 1.386 . S
C1004 C1006 1.391 . S
C1005 C1004 1.386 . S
C1005 C1009 1.393 . S
C1006 H998 0.950 . S
C1006 C1004 1.391 . S
C1006 C1007 1.400 . S
C1007 C1006 1.400 . S
C1007 C1008 1.398 . S
C1007 C1013 1.491 . S
C1008 H999 0.950 . S
C1008 C1007 1.398 . S
C1008 C1009 1.391 . S
C1009 H997 0.950 . S
C1009 C1005 1.393 . S
C1009 C1008 1.391 . S
C1010 H1000 0.950 . S
C1010 C1011 1.386 . S
C1010 C1012 1.391 . S
C1011 C1010 1.386 . S
C1011 C1015 1.393 . S
C1012 H1001 0.950 . S
C1012 C1010 1.391 . S
C1012 C1013 1.400 . S
C1013 C1007 1.491 . S
C1013 C1012 1.400 . S
C1013 C1014 1.398 . S
C1014 H1002 0.950 . S
C1014 C1013 1.398 . S
C1014 C1015 1.391 . S
C1015 H1003 0.950 . S
C1015 C1011 1.393 . S
C1015 C1014 1.391 . S
H1016 C1024 0.950 . S
H1017 C1029 0.950 . S
H1018 C1026 0.950 . S
H1019 C1028 0.950 . S
H1020 C1030 0.950 . S
H1021 C1032 0.950 . S
H1022 C1034 0.950 . S
H1023 C1035 0.950 . S
C1024 H1016 0.950 . S
C1024 C1025 1.386 . S
C1024 C1026 1.391 . S
C1025 C1024 1.386 . S
C1025 C1029 1.393 . S
C1026 H1018 0.950 . S
C1026 C1024 1.391 . S
C1026 C1027 1.400 . S
C1027 C1026 1.400 . S
C1027 C1028 1.398 . S
C1027 C1033 1.491 1_565 S
C1028 H1019 0.950 . S
C1028 C1027 1.398 . S
C1028 C1029 1.391 . S
C1029 H1017 0.950 . S
C1029 C1025 1.393 . S
C1029 C1028 1.391 . S
C1030 H1020 0.950 . S
C1030 C1031 1.386 . S
C1030 C1032 1.391 . S
C1031 C1030 1.386 . S
C1031 C1035 1.393 . S
C1032 H1021 0.950 . S
C1032 C1030 1.391 . S
C1032 C1033 1.400 . S
C1033 C1027 1.491 1_545 S
C1033 C1032 1.400 . S
C1033 C1034 1.398 . S
C1034 H1022 0.950 . S
C1034 C1033 1.398 . S
C1034 C1035 1.391 . S
C1035 H1023 0.950 . S
C1035 C1031 1.393 . S
C1035 C1034 1.391 . S
H1036 C1044 0.950 . S
H1037 C1049 0.950 . S
H1038 C1046 0.950 . S
H1039 C1048 0.951 . S
H1040 C1050 0.950 . S
H1041 C1052 0.950 . S
H1042 C1054 0.950 . S
H1043 C1055 0.950 . S
C1044 H1036 0.950 . S
C1044 C1045 1.386 . S
C1044 C1046 1.391 1_556 S
C1045 C1044 1.386 . S
C1045 C1049 1.393 . S
C1046 H1038 0.950 . S
C1046 C1044 1.391 1_554 S
C1046 C1047 1.400 . S
C1047 C1046 1.400 . S
C1047 C1048 1.398 1_554 S
C1047 C1053 1.491 1_545 S
C1048 H1039 0.951 . S
C1048 C1047 1.398 1_556 S
C1048 C1049 1.391 . S
C1049 H1037 0.950 . S
C1049 C1045 1.393 . S
C1049 C1048 1.391 . S
C1050 H1040 0.950 . S
C1050 C1051 1.386 . S
C1050 C1052 1.391 . S
C1051 C1050 1.386 . S
C1051 C1055 1.393 . S
C1052 H1041 0.950 . S
C1052 C1050 1.391 . S
C1052 C1053 1.400 . S
C1053 C1047 1.491 1_565 S
C1053 C1052 1.400 . S
C1053 C1054 1.398 . S
C1054 H1042 0.950 . S
C1054 C1053 1.398 . S
C1054 C1055 1.391 . S
C1055 H1043 0.950 . S
C1055 C1051 1.393 . S
C1055 C1054 1.391 . S
H1056 C1064 0.950 . S
H1057 C1069 0.950 . S
H1058 C1066 0.950 . S
H1059 C1068 0.950 . S
H1060 C1070 0.950 . S
H1061 C1072 0.950 . S
H1062 C1074 0.950 . S
H1063 C1075 0.950 . S
C1064 H1056 0.950 . S
C1064 C1065 1.386 . S
C1064 C1066 1.391 . S
C1065 C1064 1.386 . S
C1065 C1069 1.393 . S
C1066 H1058 0.950 . S
C1066 C1064 1.391 . S
C1066 C1067 1.400 . S
C1067 C1066 1.400 . S
C1067 C1068 1.398 . S
C1067 C1073 1.491 . S
C1068 H1059 0.950 . S
C1068 C1067 1.398 . S
C1068 C1069 1.391 . S
C1069 H1057 0.950 . S
C1069 C1065 1.393 . S
C1069 C1068 1.391 . S
C1070 H1060 0.950 . S
C1070 C1071 1.386 . S
C1070 C1072 1.391 . S
C1071 C1070 1.386 . S
C1071 C1075 1.393 . S
C1072 H1061 0.950 . S
C1072 C1070 1.391 . S
C1072 C1073 1.400 . S
C1073 C1067 1.491 . S
C1073 C1072 1.400 . S
C1073 C1074 1.398 . S
C1074 H1062 0.950 . S
C1074 C1073 1.398 . S
C1074 C1075 1.391 . S
C1075 H1063 0.950 . S
C1075 C1071 1.393 . S
C1075 C1074 1.391 . S
H1076 C1084 0.950 . S
H1077 C1089 0.950 . S
H1078 C1086 0.950 . S
H1079 C1088 0.950 . S
H1080 C1090 0.950 . S
H1081 C1092 0.950 . S
H1082 C1094 0.950 . S
H1083 C1095 0.950 . S
C1084 H1076 0.950 . S
C1084 C1085 1.386 . S
C1084 C1086 1.391 . S
C1085 C1084 1.386 . S
C1085 C1089 1.393 . S
C1086 H1078 0.950 . S
C1086 C1084 1.391 . S
C1086 C1087 1.400 . S
C1087 C1086 1.400 . S
C1087 C1088 1.398 . S
C1087 C1093 1.491 . S
C1088 H1079 0.950 . S
C1088 C1087 1.398 . S
C1088 C1089 1.391 . S
C1089 H1077 0.950 . S
C1089 C1085 1.393 . S
C1089 C1088 1.391 . S
C1090 H1080 0.950 . S
C1090 C1091 1.386 . S
C1090 C1092 1.391 . S
C1091 C1090 1.386 . S
C1091 C1095 1.393 . S
C1092 H1081 0.950 . S
C1092 C1090 1.391 . S
C1092 C1093 1.400 . S
C1093 C1087 1.491 . S
C1093 C1092 1.400 . S
C1093 C1094 1.398 . S
C1094 H1082 0.950 . S
C1094 C1093 1.398 . S
C1094 C1095 1.391 . S
C1095 H1083 0.950 . S
C1095 C1091 1.393 . S
C1095 C1094 1.391 . S
H1096 C1104 0.950 . S
H1097 C1109 0.950 . S
H1098 C1106 0.950 . S
H1099 C1108 0.950 . S
H1100 C1110 0.950 . S
H1101 C1112 0.950 . S
H1102 C1114 0.950 . S
H1103 C1115 0.952 . S
C1104 H1096 0.950 . S
C1104 C1105 1.386 . S
C1104 C1106 1.391 . S
C1105 C1104 1.386 . S
C1105 C1109 1.393 . S
C1106 H1098 0.950 . S
C1106 C1104 1.391 . S
C1106 C1107 1.400 . S
C1107 C1106 1.400 . S
C1107 C1108 1.398 . S
C1107 C1113 1.491 . S
C1108 H1099 0.950 . S
C1108 C1107 1.398 . S
C1108 C1109 1.391 . S
C1109 H1097 0.950 . S
C1109 C1105 1.393 . S
C1109 C1108 1.391 . S
C1110 H1100 0.950 . S
C1110 C1111 1.386 . S
C1110 C1112 1.391 . S
C1111 C1110 1.386 . S
C1111 C1115 1.393 . S
C1112 H1101 0.950 . S
C1112 C1110 1.391 . S
C1112 C1113 1.400 1_556 S
C1113 C1107 1.491 . S
C1113 C1112 1.400 1_554 S
C1113 C1114 1.398 . S
C1114 H1102 0.950 . S
C1114 C1113 1.398 . S
C1114 C1115 1.391 1_554 S
C1115 H1103 0.952 . S
C1115 C1111 1.393 . S
C1115 C1114 1.391 1_556 S
H1116 C1124 0.950 . S
H1117 C1129 0.950 . S
H1118 C1126 0.950 . S
H1119 C1128 0.950 . S
H1120 C1130 0.950 . S
H1121 C1132 0.950 . S
H1122 C1134 0.950 . S
H1123 C1135 0.950 . S
C1124 H1116 0.950 . S
C1124 C1125 1.386 . S
C1124 C1126 1.391 . S
C1125 C1124 1.386 . S
C1125 C1129 1.393 . S
C1126 H1118 0.950 . S
C1126 C1124 1.391 . S
C1126 C1127 1.400 . S
C1127 C1126 1.400 . S
C1127 C1128 1.398 . S
C1127 C1133 1.491 . S
C1128 H1119 0.950 . S
C1128 C1127 1.398 . S
C1128 C1129 1.391 . S
C1129 H1117 0.950 . S
C1129 C1125 1.393 . S
C1129 C1128 1.391 . S
C1130 H1120 0.950 . S
C1130 C1131 1.386 . S
C1130 C1132 1.391 . S
C1131 C1130 1.386 . S
C1131 C1135 1.393 . S
C1132 H1121 0.950 . S
C1132 C1130 1.391 . S
C1132 C1133 1.400 . S
C1133 C1127 1.491 . S
C1133 C1132 1.400 . S
C1133 C1134 1.398 . S
C1134 H1122 0.950 . S
C1134 C1133 1.398 . S
C1134 C1135 1.391 . S
C1135 H1123 0.950 . S
C1135 C1131 1.393 . S
C1135 C1134 1.391 . S
H1136 C1144 0.950 . S
H1137 C1149 0.950 . S
H1138 C1146 0.950 . S
H1139 C1148 0.950 . S
H1140 C1150 0.950 . S
H1141 C1152 0.950 . S
H1142 C1154 0.950 . S
H1143 C1155 0.950 . S
C1144 H1136 0.950 . S
C1144 C1145 1.386 . S
C1144 C1146 1.391 . S
C1145 C1144 1.386 . S
C1145 C1149 1.393 . S
C1146 H1138 0.950 . S
C1146 C1144 1.391 . S
C1146 C1147 1.400 . S
C1147 C1146 1.400 . S
C1147 C1148 1.398 . S
C1147 C1153 1.491 . S
C1148 H1139 0.950 . S
C1148 C1147 1.398 . S
C1148 C1149 1.391 . S
C1149 H1137 0.950 . S
C1149 C1145 1.393 . S
C1149 C1148 1.391 . S
C1150 H1140 0.950 . S
C1150 C1151 1.386 . S
C1150 C1152 1.391 . S
C1151 C1150 1.386 . S
C1151 C1155 1.393 . S
C1152 H1141 0.950 . S
C1152 C1150 1.391 . S
C1152 C1153 1.400 . S
C1153 C1147 1.491 . S
C1153 C1152 1.400 . S
C1153 C1154 1.398 . S
C1154 H1142 0.950 . S
C1154 C1153 1.398 . S
C1154 C1155 1.391 . S
C1155 H1143 0.950 . S
C1155 C1151 1.393 . S
C1155 C1154 1.391 . S
H1156 C1164 0.950 . S
H1157 C1169 0.950 . S
H1158 C1166 0.950 . S
H1159 C1168 0.950 . S
H1160 C1170 0.950 . S
H1161 C1172 0.950 . S
H1162 C1174 0.950 . S
H1163 C1175 0.950 . S
C1164 H1156 0.950 . S
C1164 C1165 1.386 . S
C1164 C1166 1.391 . S
C1165 C1164 1.386 . S
C1165 C1169 1.393 . S
C1166 H1158 0.950 . S
C1166 C1164 1.391 . S
C1166 C1167 1.400 . S
C1167 C1166 1.400 . S
C1167 C1168 1.398 . S
C1167 C1173 1.491 . S
C1168 H1159 0.950 . S
C1168 C1167 1.398 . S
C1168 C1169 1.391 . S
C1169 H1157 0.950 . S
C1169 C1165 1.393 . S
C1169 C1168 1.391 . S
C1170 H1160 0.950 . S
C1170 C1171 1.386 . S
C1170 C1172 1.391 . S
C1171 C1170 1.386 . S
C1171 C1175 1.393 . S
C1172 H1161 0.950 . S
C1172 C1170 1.391 . S
C1172 C1173 1.400 . S
C1173 C1167 1.491 . S
C1173 C1172 1.400 . S
C1173 C1174 1.398 . S
C1174 H1162 0.950 . S
C1174 C1173 1.398 . S
C1174 C1175 1.391 . S
C1175 H1163 0.950 . S
C1175 C1171 1.393 . S
C1175 C1174 1.391 . S
H1176 C1184 0.950 . S
H1177 C1189 0.950 . S
H1178 C1186 0.926 1_545 S
H1179 C1188 0.950 . S
H1180 C1190 0.950 . S
H1181 C1192 0.926 1_565 S
H1182 C1194 0.950 . S
H1183 C1195 0.947 1_554 S
C1184 H1176 0.950 . S
C1184 C1185 1.386 . S
C1184 C1186 1.407 . S
C1185 C1184 1.386 . S
C1185 C1189 1.393 . S
C1186 H1178 0.926 1_565 S
C1186 C1184 1.407 . S
C1186 C1187 1.408 . S
C1187 C1186 1.408 . S
C1187 C1188 1.398 . S
C1187 C1193 1.491 1_565 S
C1188 H1179 0.950 . S
C1188 C1187 1.398 . S
C1188 C1189 1.391 . S
C1189 H1177 0.950 . S
C1189 C1185 1.393 . S
C1189 C1188 1.391 . S
C1190 H1180 0.950 . S
C1190 C1191 1.386 . S
C1190 C1192 1.407 . S
C1191 C1190 1.386 . S
C1191 C1195 1.393 . S
C1192 H1181 0.926 1_545 S
C1192 C1190 1.407 . S
C1192 C1193 1.408 1_556 S
C1193 C1187 1.491 1_545 S
C1193 C1192 1.408 1_554 S
C1193 C1194 1.398 . S
C1194 H1182 0.950 . S
C1194 C1193 1.398 . S
C1194 C1195 1.391 1_554 S
C1195 H1183 0.947 1_556 S
C1195 C1191 1.393 . S
C1195 C1194 1.391 1_556 S
H1196 C1204 0.950 . S
H1197 C1209 0.950 . S
H1198 C1206 0.950 . S
H1199 C1208 0.950 . S
H1200 C1210 0.996 . S
H1201 C1212 0.950 . S
H1202 C1214 0.950 . S
H1203 C1215 0.950 . S
C1204 H1196 0.950 . S
C1204 C1205 1.386 . S
C1204 C1206 1.391 . S
C1205 C1204 1.386 . S
C1205 C1209 1.393 . S
C1206 H1198 0.950 . S
C1206 C1204 1.391 . S
C1206 C1207 1.400 . S
C1207 C1206 1.400 . S
C1207 C1208 1.398 . S
C1207 C1213 1.491 1_545 S
C1208 H1199 0.950 . S
C1208 C1207 1.398 . S
C1208 C1209 1.391 . S
C1209 H1197 0.950 . S
C1209 C1205 1.393 . S
C1209 C1208 1.391 . S
C1210 H1200 0.996 . S
C1210 C1211 1.386 . S
C1210 C1212 1.391 . S
C1211 C1210 1.386 . S
C1211 C1215 1.393 . S
C1212 H1201 0.950 . S
C1212 C1210 1.391 . S
C1212 C1213 1.400 . S
C1213 C1207 1.491 1_565 S
C1213 C1212 1.400 . S
C1213 C1214 1.398 . S
C1214 H1202 0.950 . S
C1214 C1213 1.398 . S
C1214 C1215 1.391 . S
C1215 H1203 0.950 . S
C1215 C1211 1.393 . S
C1215 C1214 1.391 . S
C585 C338 1.353 . S
C591 C14 1.352 . S
C605 C518 1.390 . S
C611 C50 1.377 . S
C625 C86 1.372 . S
C631 C302 1.387 . S
C645 C122 1.392 . S
C651 C554 1.388 1_655 S
C665 C158 1.389 . S
C671 C374 1.376 . S
C685 C482 1.366 1_655 S
C691 C194 1.382 . S
C705 C410 1.385 . S
C711 C230 1.392 . S
C725 C266 1.352 . S
C731 C446 1.353 . S
C745 C148 1.476 1_655 S
C751 C112 1.470 . S
C765 C436 1.473 . S
C771 C292 1.469 . S
C785 C220 1.475 . S
C791 C40 1.476 . S
C805 C328 1.470 . S
C811 C472 1.476 . S
C825 C4 1.476 1_655 S
C831 C184 1.470 . S
C845 C544 1.474 . S
C851 C364 1.477 . S
C865 C256 1.470 . S
C871 C76 1.476 . S
C885 C400 1.471 . S
C891 C508 1.470 . S
C905 C2 0.547 . S
C911 C146 0.544 . S
C925 C182 0.545 . S
C931 C38 0.557 . S
C945 C218 0.546 . S
C951 C74 0.545 . S
C965 C110 0.542 . S
C971 C254 0.552 . S
C985 C362 0.548 . S
C991 C290 0.557 . S
C1005 C398 0.545 . S
C1011 C326 0.546 . S
C1025 C506 0.546 . S
C1031 C434 0.544 . S
C1045 C542 0.547 . S
C1051 C470 0.544 . S
C1065 C147 1.721 . S
C1071 C3 1.723 . S
C1085 C183 1.724 . S
C1091 C39 1.720 . S
C1105 C219 1.725 . S
C1111 C75 1.719 . S
C1125 C111 1.718 . S
C1131 C255 1.724 . S
C1145 C291 1.718 . S
C1151 C363 1.724 . S
C1165 C399 1.724 . S
C1171 C327 1.720 . S
C1185 C507 1.724 . S
C1191 C435 1.718 . S
C1205 C543 1.719 . S
C1211 C471 1.720 . S
