# Generated by pormake.
# Topology crr, (4)-cn, num edge types: 1
# Building blocks:
#     Node 0, Type 0, BuildingBlock: MUDLON_clean_sbu_0, # of connection points: 4
#     Node 1, Type 0, BuildingBlock: MUDLON_clean_sbu_0, # of connection points: 4
#     Node 2, Type 0, BuildingBlock: MUDLON_clean_sbu_0, # of connection points: 4
#     Node 3, Type 0, BuildingBlock: MUDLON_clean_sbu_0, # of connection points: 4
#     Node 4, Type 0, BuildingBlock: MUDLON_clean_sbu_0, # of connection points: 4
#     Node 5, Type 0, BuildingBlock: MUDLON_clean_sbu_0, # of connection points: 4
#     Node 6, Type 0, BuildingBlock: MUDLON_clean_sbu_0, # of connection points: 4
#     Node 7, Type 0, BuildingBlock: MUDLON_clean_sbu_0, # of connection points: 4
#     Node 8, Type 0, BuildingBlock: MUDLON_clean_sbu_0, # of connection points: 4
#     Node 9, Type 0, BuildingBlock: MUDLON_clean_sbu_0, # of connection points: 4
#     Node 10, Type 0, BuildingBlock: MUDLON_clean_sbu_0, # of connection points: 4
#     Node 11, Type 0, BuildingBlock: MUDLON_clean_sbu_0, # of connection points: 4
#     Edge 12, Type (0, 0), BuildingBlock: TEMPAE_clean_linker_10, # of connection points: 2
#     Edge 13, Type (0, 0), BuildingBlock: TEMPAE_clean_linker_10, # of connection points: 2
#     Edge 14, Type (0, 0), BuildingBlock: TEMPAE_clean_linker_10, # of connection points: 2
#     Edge 15, Type (0, 0), BuildingBlock: TEMPAE_clean_linker_10, # of connection points: 2
#     Edge 16, Type (0, 0), BuildingBlock: TEMPAE_clean_linker_10, # of connection points: 2
#     Edge 17, Type (0, 0), BuildingBlock: TEMPAE_clean_linker_10, # of connection points: 2
#     Edge 18, Type (0, 0), BuildingBlock: TEMPAE_clean_linker_10, # of connection points: 2
#     Edge 19, Type (0, 0), BuildingBlock: TEMPAE_clean_linker_10, # of connection points: 2
#     Edge 20, Type (0, 0), BuildingBlock: TEMPAE_clean_linker_10, # of connection points: 2
#     Edge 21, Type (0, 0), BuildingBlock: TEMPAE_clean_linker_10, # of connection points: 2
#     Edge 22, Type (0, 0), BuildingBlock: TEMPAE_clean_linker_10, # of connection points: 2
#     Edge 23, Type (0, 0), BuildingBlock: TEMPAE_clean_linker_10, # of connection points: 2
#     Edge 24, Type (0, 0), BuildingBlock: TEMPAE_clean_linker_10, # of connection points: 2
#     Edge 25, Type (0, 0), BuildingBlock: TEMPAE_clean_linker_10, # of connection points: 2
#     Edge 26, Type (0, 0), BuildingBlock: TEMPAE_clean_linker_10, # of connection points: 2
#     Edge 27, Type (0, 0), BuildingBlock: TEMPAE_clean_linker_10, # of connection points: 2
#     Edge 28, Type (0, 0), BuildingBlock: TEMPAE_clean_linker_10, # of connection points: 2
#     Edge 29, Type (0, 0), BuildingBlock: TEMPAE_clean_linker_10, # of connection points: 2
#     Edge 30, Type (0, 0), BuildingBlock: TEMPAE_clean_linker_10, # of connection points: 2
#     Edge 31, Type (0, 0), BuildingBlock: TEMPAE_clean_linker_10, # of connection points: 2
#     Edge 32, Type (0, 0), BuildingBlock: TEMPAE_clean_linker_10, # of connection points: 2
#     Edge 33, Type (0, 0), BuildingBlock: TEMPAE_clean_linker_10, # of connection points: 2
#     Edge 34, Type (0, 0), BuildingBlock: TEMPAE_clean_linker_10, # of connection points: 2
#     Edge 35, Type (0, 0), BuildingBlock: TEMPAE_clean_linker_10, # of connection points: 2
# Relax obj value: 0.157
# Max RMSD: 0.159
# Mean RMSD: 0.145
data_MOF--net-crr--node1-MUDLON_clean_sbu_0--edge1-TEMPAE_clean_linker_10
_symmetry_space_group_name_H-M    P1
_symmetry_Int_Tables_number       1
_symmetry_cell_setting            triclinic
loop_
_symmetry_equiv_pos_as_xyz
'x, y, z'
_cell_length_a     39.868109
_cell_length_b     39.894847
_cell_length_c     39.852906
_cell_angle_alpha  90.073167
_cell_angle_beta   89.977244
_cell_angle_gamma 90.151557
loop_
_atom_site_label
_atom_site_type_symbol
_atom_site_fract_x
_atom_site_fract_y
_atom_site_fract_z
_atom_type_partial_charge
Mg0 Mg 0.14955 0.38621 0.38159 0.0
C1 C 0.21132 0.35832 0.41649 0.0
O2 O 0.19165 0.35599 0.44283 0.0
C3 C 0.13677 0.45413 0.35006 0.0
O4 O 0.14628 0.43789 0.32299 0.0
C5 C 0.16014 0.33657 0.32654 0.0
O6 O 0.17178 0.31965 0.35225 0.0
O7 O 0.14531 0.36427 0.3319 0.0
O8 O 0.20188 0.37608 0.39182 0.0
O9 O 0.11712 0.36429 0.41982 0.0
C10 C 0.11843 0.33444 0.43094 0.0
O11 O 0.13961 0.3131 0.41753 0.0
O12 O 0.1374 0.43911 0.37818 0.0
Mg13 Mg 0.36422 0.8533 0.60071 0.0
C14 C 0.39693 0.79394 0.63254 0.0
O15 O 0.41964 0.81688 0.63935 0.0
C16 C 0.35503 0.89837 0.54484 0.0
O17 O 0.36102 0.91754 0.57101 0.0
C18 C 0.31372 0.84626 0.65557 0.0
O19 O 0.34036 0.83401 0.67053 0.0
O20 O 0.31724 0.86027 0.62714 0.0
O21 O 0.37404 0.80095 0.61149 0.0
O22 O 0.40577 0.88419 0.61802 0.0
C23 C 0.40487 0.90467 0.64243 0.0
O24 O 0.37707 0.90784 0.65984 0.0
O25 O 0.35481 0.86676 0.54887 0.0
Mg26 Mg 0.92628 0.69475 0.34275 0.0
C27 C 0.94154 0.768 0.3346 0.0
O28 O 0.95163 0.7648 0.36581 0.0
C29 C 0.99437 0.66121 0.33635 0.0
O30 O 0.00482 0.69119 0.34526 0.0
C31 C 0.85559 0.70438 0.32136 0.0
O32 O 0.86186 0.73272 0.33701 0.0
O33 O 0.87775 0.68147 0.32183 0.0
O34 O 0.93607 0.74164 0.31755 0.0
O35 O 0.92357 0.70446 0.39643 0.0
C36 C 0.93853 0.68525 0.41692 0.0
O37 O 0.95372 0.65845 0.40532 0.0
O38 O 0.96312 0.65617 0.33234 0.0
Mg39 Mg 0.62249 0.07482 0.66284 0.0
C40 C 0.60962 0.02248 0.60862 0.0
O41 O 0.62224 0.0026 0.63158 0.0
C42 C 0.58331 0.1117 0.71558 0.0
O43 O 0.58904 0.08371 0.7319 0.0
C44 C 0.62308 0.01176 0.71292 0.0
O45 O 0.63983 0.99512 0.73587 0.0
O46 O 0.63671 0.03796 0.70066 0.0
O47 O 0.60598 0.05347 0.61521 0.0
O48 O 0.66739 0.10417 0.65322 0.0
C49 C 0.67988 0.11996 0.67802 0.0
O50 O 0.66605 0.11636 0.70774 0.0
O51 O 0.59025 0.11292 0.68447 0.0
Mg52 Mg 0.02983 0.70124 0.71253 0.0
C53 C 0.99525 0.63553 0.70989 0.0
O54 O 0.97024 0.65678 0.71236 0.0
C55 C 0.08803 0.74718 0.71179 0.0
O56 O 0.06563 0.76359 0.72951 0.0
C57 C 0.00498 0.73832 0.65165 0.0
O58 O 0.03565 0.75031 0.65321 0.0
O59 O 0.99442 0.72005 0.67557 0.0
O60 O 0.02508 0.64698 0.70952 0.0
O61 O 0.02487 0.71739 0.76444 0.0
C62 C 0.02421 0.69551 0.7876 0.0
O63 O 0.01589 0.66462 0.7797 0.0
O64 O 0.08013 0.7186 0.69986 0.0
Mg65 Mg 0.68215 0.94209 0.31275 0.0
C66 C 0.74617 0.91343 0.33386 0.0
O67 O 0.72433 0.90054 0.35495 0.0
C68 C 0.65986 0.0133 0.31745 0.0
O69 O 0.67189 0.00951 0.3479 0.0
C70 C 0.66689 0.87474 0.27902 0.0
O71 O 0.68286 0.86244 0.30504 0.0
O72 O 0.6617 0.90611 0.27746 0.0
O73 O 0.73599 0.93484 0.31264 0.0
O74 O 0.66332 0.93715 0.36366 0.0
C75 C 0.63329 0.94429 0.37172 0.0
O76 O 0.61161 0.95141 0.34797 0.0
O77 O 0.66543 0.99057 0.29581 0.0
Mg78 Mg 0.93351 0.31636 0.68916 0.0
C79 C 0.94942 0.38635 0.71123 0.0
O80 O 0.96063 0.36894 0.73682 0.0
C81 C 0.88572 0.26624 0.66123 0.0
O82 O 0.91478 0.2517 0.6559 0.0
C83 C 0.99909 0.31408 0.65117 0.0
O84 O 0.00589 0.33902 0.67165 0.0
O85 O 0.97169 0.29813 0.65485 0.0
O86 O 0.93543 0.37091 0.68701 0.0
O87 O 0.93682 0.30212 0.74182 0.0
C88 C 0.92532 0.27406 0.75171 0.0
O89 O 0.91854 0.25094 0.72923 0.0
O90 O 0.88545 0.29582 0.67318 0.0
Mg91 Mg 0.35212 0.09298 0.30094 0.0
C92 C 0.32119 0.07828 0.23034 0.0
O93 O 0.32694 0.04636 0.2359 0.0
C94 C 0.31603 0.03987 0.34377 0.0
O95 O 0.29249 0.06271 0.34638 0.0
C96 C 0.30764 0.146 0.32983 0.0
O97 O 0.2863 0.13039 0.31008 0.0
O98 O 0.33746 0.13509 0.33195 0.0
O99 O 0.32878 0.09986 0.25258 0.0
O100 O 0.40602 0.09506 0.29523 0.0
C101 C 0.42117 0.0675 0.29049 0.0
O102 O 0.40338 0.03987 0.28763 0.0
O103 O 0.34141 0.04572 0.32542 0.0
Mg104 Mg 0.33232 0.28542 0.05713 0.0
C105 C 0.40412 0.27498 0.04016 0.0
O106 O 0.38882 0.25704 0.01708 0.0
C107 C 0.27591 0.29524 0.10591 0.0
O108 O 0.25921 0.29102 0.07782 0.0
C109 C 0.33451 0.33576 1.00066 0.0
O110 O 0.36553 0.32492 0.99953 0.0
O111 O 0.31404 0.32193 0.02089 0.0
O112 O 0.38656 0.2904 0.06188 0.0
O113 O 0.32379 0.2329 0.04609 0.0
C114 C 0.29601 0.21806 0.04093 0.0
O115 O 0.2689 0.23595 0.0358 0.0
O116 O 0.30781 0.29515 0.10503 0.0
Mg117 Mg 0.30295 0.64094 0.90059 0.0
C118 C 0.2325 0.67526 0.91373 0.0
O119 O 0.24262 0.68425 0.9438 0.0
C120 C 0.34605 0.68833 0.94453 0.0
O121 O 0.34015 0.71034 0.92079 0.0
C122 C 0.32212 0.68302 0.84233 0.0
O123 O 0.30186 0.70289 0.85905 0.0
O124 O 0.32817 0.65402 0.85402 0.0
O125 O 0.25199 0.65878 0.89464 0.0
O126 O 0.30105 0.58685 0.90605 0.0
C127 C 0.30058 0.57532 0.93577 0.0
O128 O 0.30067 0.59647 0.96107 0.0
O129 O 0.33207 0.65969 0.94294 0.0
Mg130 Mg 0.6375 0.69272 0.08093 0.0
C131 C 0.57366 0.69581 0.04667 0.0
O132 O 0.59644 0.69041 0.02347 0.0
C133 C 0.69188 0.69824 0.13038 0.0
O134 O 0.70729 0.69925 0.10124 0.0
C135 C 0.66115 0.64075 0.03077 0.0
O136 O 0.66832 0.66795 0.01364 0.0
O137 O 0.64857 0.64364 0.05997 0.0
O138 O 0.58334 0.6989 0.07694 0.0
O139 O 0.66091 0.72978 0.04838 0.0
C140 C 0.67239 0.75814 0.05744 0.0
O141 O 0.68858 0.77658 0.03545 0.0
O142 O 0.6601 0.69522 0.13077 0.0
Mg143 Mg 0.67588 0.33825 0.92007 0.0
C144 C 0.74967 0.30828 0.92143 0.0
O145 O 0.74189 0.29067 0.94816 0.0
C146 C 0.63947 0.33603 0.98572 0.0
O147 O 0.64681 0.36808 0.984 0.0
C148 C 0.66069 0.28963 0.86676 0.0
O149 O 0.68833 0.27814 0.88042 0.0
O150 O 0.64822 0.31668 0.87813 0.0
O151 O 0.72821 0.32808 0.90875 0.0
O152 O 0.67053 0.3923 0.92338 0.0
C153 C 0.69448 0.4083 0.93719 0.0
O154 O 0.72139 0.39171 0.94633 0.0
O155 O 0.65252 0.31621 0.96437 0.0
C156 C 0.24044 0.30523 0.4327 0.0
C157 C 0.23646 0.33174 0.40995 0.0
C158 C 0.25654 0.27546 0.42303 0.0
C159 C 0.26882 0.27219 0.38985 0.0
C160 C 0.2675 0.29992 0.36777 0.0
C161 C 0.25165 0.32947 0.37822 0.0
C162 C 0.25782 0.24659 0.44743 0.0
C163 C 0.27981 0.29736 0.332 0.0
C164 C 0.32173 0.19761 0.36302 0.0
C165 C 0.29764 0.17716 0.34737 0.0
C166 C 0.3127 0.22837 0.37764 0.0
C167 C 0.27881 0.23876 0.37671 0.0
C168 C 0.25429 0.21777 0.36176 0.0
C169 C 0.26401 0.18727 0.34727 0.0
C170 C 0.3395 0.25012 0.3933 0.0
C171 C 0.21772 0.22757 0.36088 0.0
H172 H 0.22902 0.30676 0.45734 0.0
H173 H 0.24896 0.34985 0.36047 0.0
H174 H 0.23873 0.22761 0.44026 0.0
H175 H 0.28268 0.23419 0.44669 0.0
H176 H 0.25263 0.2548 0.47357 0.0
H177 H 0.28105 0.32222 0.31952 0.0
H178 H 0.30501 0.28569 0.33108 0.0
H179 H 0.26247 0.28111 0.31742 0.0
H180 H 0.3478 0.18998 0.36319 0.0
H181 H 0.24519 0.17148 0.33554 0.0
H182 H 0.33233 0.25699 0.41931 0.0
H183 H 0.34195 0.27378 0.37889 0.0
H184 H 0.36431 0.23753 0.39387 0.0
H185 H 0.20734 0.22685 0.3867 0.0
H186 H 0.20255 0.21059 0.34476 0.0
H187 H 0.21488 0.25356 0.35157 0.0
C188 C 0.27616 0.81759 0.69685 0.0
C189 C 0.27979 0.83695 0.66771 0.0
C190 C 0.24506 0.80368 0.70578 0.0
C191 C 0.21677 0.80951 0.68517 0.0
C192 C 0.21987 0.83039 0.65662 0.0
C193 C 0.25134 0.84388 0.64823 0.0
C194 C 0.24279 0.78172 0.73655 0.0
C195 C 0.19021 0.83741 0.63416 0.0
C196 C 0.14524 0.74623 0.68541 0.0
C197 C 0.12139 0.76245 0.7055 0.0
C198 C 0.17657 0.76111 0.67892 0.0
C199 C 0.18416 0.79295 0.69281 0.0
C200 C 0.16037 0.80922 0.71346 0.0
C201 C 0.12931 0.79379 0.71956 0.0
C202 C 0.20144 0.74292 0.6569 0.0
C203 C 0.1676 0.84309 0.72886 0.0
H204 H 0.2979 0.81234 0.71216 0.0
H205 H 0.25383 0.85884 0.62568 0.0
H206 H 0.22239 0.79054 0.75328 0.0
H207 H 0.23656 0.75567 0.72897 0.0
H208 H 0.26662 0.78133 0.75099 0.0
H209 H 0.19637 0.85558 0.61395 0.0
H210 H 0.18147 0.81372 0.62241 0.0
H211 H 0.16904 0.84749 0.64912 0.0
H212 H 0.13937 0.722 0.67455 0.0
H213 H 0.11113 0.80648 0.73527 0.0
H214 H 0.22538 0.73931 0.6706 0.0
H215 H 0.2071 0.75822 0.63436 0.0
H216 H 0.19199 0.71803 0.64861 0.0
H217 H 0.19078 0.84193 0.7442 0.0
H218 H 0.14672 0.85204 0.74499 0.0
H219 H 0.172 0.86182 0.70877 0.0
C220 C 0.80479 0.91319 0.3105 0.0
C221 C 0.78053 0.8996 0.33215 0.0
C222 C 0.83641 0.898 0.3069 0.0
C223 C 0.84351 0.8683 0.32491 0.0
C224 C 0.81936 0.85502 0.34737 0.0
C225 C 0.78838 0.87099 0.35091 0.0
C226 C 0.86169 0.91314 0.28313 0.0
C227 C 0.82571 0.82315 0.36685 0.0
C228 C 0.90059 0.7983 0.29844 0.0
C229 C 0.92435 0.79927 0.32444 0.0
C230 C 0.87565 0.82286 0.296 0.0
C231 C 0.87517 0.84948 0.3195 0.0
C232 C 0.90197 0.8532 0.34252 0.0
C233 C 0.92619 0.82783 0.34492 0.0
C234 C 0.84752 0.81785 0.2711 0.0
C235 C 0.90297 0.88187 0.36722 0.0
H236 H 0.79891 0.93535 0.29597 0.0
H237 H 0.76983 0.86027 0.36767 0.0
H238 H 0.88705 0.91354 0.29459 0.0
H239 H 0.86316 0.89761 0.26007 0.0
H240 H 0.85481 0.93908 0.27576 0.0
H241 H 0.80443 0.81641 0.38355 0.0
H242 H 0.83003 0.80204 0.34922 0.0
H243 H 0.8486 0.82591 0.38244 0.0
H244 H 0.89923 0.77662 0.28207 0.0
H245 H 0.94489 0.82913 0.36463 0.0
H246 H 0.84122 0.84177 0.2585 0.0
H247 H 0.82472 0.80917 0.28456 0.0
H248 H 0.8539 0.7989 0.25168 0.0
H249 H 0.89496 0.9056 0.35518 0.0
H250 H 0.92846 0.88537 0.37794 0.0
H251 H 0.88536 0.87658 0.38814 0.0
C252 C 0.8561 0.21122 0.65714 0.0
C253 C 0.85437 0.2463 0.65905 0.0
C254 C 0.82706 0.19139 0.65883 0.0
C255 C 0.79536 0.20699 0.66184 0.0
C256 C 0.79328 0.24243 0.66245 0.0
C257 C 0.82286 0.26169 0.66139 0.0
C258 C 0.83044 0.15368 0.65868 0.0
C259 C 0.75987 0.25997 0.66499 0.0
C260 C 0.7199 0.15206 0.64154 0.0
C261 C 0.70903 0.14268 0.67367 0.0
C262 C 0.74736 0.17382 0.6373 0.0
C263 C 0.76468 0.186 0.66585 0.0
C264 C 0.75366 0.1768 0.69836 0.0
C265 C 0.72583 0.15548 0.70186 0.0
C266 C 0.75799 0.18357 0.60228 0.0
C267 C 0.77171 0.18888 0.72946 0.0
H268 H 0.88033 0.19906 0.65557 0.0
H269 H 0.82134 0.28878 0.6628 0.0
H270 H 0.8209 0.14334 0.68271 0.0
H271 H 0.81506 0.14267 0.63826 0.0
H272 H 0.85684 0.14548 0.65532 0.0
H273 H 0.76232 0.2876 0.66248 0.0
H274 H 0.74259 0.25061 0.64525 0.0
H275 H 0.74811 0.25434 0.68959 0.0
H276 H 0.70683 0.14257 0.61965 0.0
H277 H 0.71755 0.14844 0.7268 0.0
H278 H 0.78357 0.17397 0.59712 0.0
H279 H 0.75904 0.21127 0.60002 0.0
H280 H 0.74068 0.17359 0.58282 0.0
H281 H 0.79799 0.17978 0.7292 0.0
H282 H 0.75945 0.1801 0.75291 0.0
H283 H 0.77268 0.21667 0.72987 0.0
C284 C 0.26251 0.17025 0.06403 0.0
C285 C 0.29325 0.18284 0.05231 0.0
C286 C 0.26173 0.1435 0.08693 0.0
C287 C 0.29232 0.12982 0.0985 0.0
C288 C 0.32262 0.13849 0.08215 0.0
C289 C 0.32267 0.16481 0.05894 0.0
C290 C 0.22864 0.13304 0.102 0.0
C291 C 0.35572 0.12362 0.09276 0.0
C292 C 0.30488 0.12467 0.19213 0.0
C293 C 0.30911 0.09018 0.19727 0.0
C294 C 0.29779 0.1375 0.16032 0.0
C295 C 0.29415 0.11526 0.13279 0.0
C296 C 0.2959 0.08022 0.13816 0.0
C297 C 0.30374 0.06805 0.17037 0.0
C298 C 0.29602 0.17516 0.15603 0.0
C299 C 0.29103 0.05546 0.10993 0.0
H300 H 0.23944 0.18335 0.05825 0.0
H301 H 0.34641 0.17365 0.04896 0.0
H302 H 0.22853 0.10584 0.10787 0.0
H303 H 0.22453 0.14695 0.12577 0.0
H304 H 0.20746 0.13869 0.08483 0.0
H305 H 0.37601 0.12919 0.07445 0.0
H306 H 0.36308 0.13419 0.11748 0.0
H307 H 0.35354 0.09607 0.09559 0.0
H308 H 0.3084 0.14199 0.21281 0.0
H309 H 0.30654 0.0413 0.17417 0.0
H310 H 0.27148 0.18236 0.14518 0.0
H311 H 0.31587 0.18367 0.13844 0.0
H312 H 0.29926 0.18883 0.18013 0.0
H313 H 0.27502 0.06569 0.08963 0.0
H314 H 0.27955 0.03188 0.11936 0.0
H315 H 0.31582 0.049 0.09908 0.0
C316 C 0.18965 0.67553 0.86826 0.0
C317 C 0.19843 0.68373 0.90136 0.0
C318 C 0.15756 0.68206 0.85575 0.0
C319 C 0.13333 0.69729 0.87677 0.0
C320 C 0.14207 0.70634 0.91003 0.0
C321 C 0.17458 0.69938 0.92201 0.0
C322 C 0.14952 0.67215 0.81999 0.0
C323 C 0.11698 0.72282 0.93306 0.0
C324 C 0.06462 0.73009 0.82115 0.0
C325 C 0.04429 0.70141 0.81843 0.0
C326 C 0.09194 0.73089 0.84337 0.0
C327 C 0.09885 0.70245 0.8634 0.0
C328 C 0.07565 0.67552 0.86412 0.0
C329 C 0.04858 0.67534 0.84162 0.0
C330 C 0.11563 0.76044 0.84222 0.0
C331 C 0.08166 0.64493 0.88551 0.0
H332 H 0.20787 0.66369 0.85194 0.0
H333 H 0.18117 0.70589 0.94759 0.0
H334 H 0.12866 0.65369 0.81971 0.0
H335 H 0.1412 0.6944 0.80557 0.0
H336 H 0.17137 0.66092 0.80686 0.0
H337 H 0.1287 0.7317 0.95676 0.0
H338 H 0.10495 0.74441 0.92037 0.0
H339 H 0.09682 0.7047 0.9394 0.0
H340 H 0.06121 0.75071 0.8038 0.0
H341 H 0.03257 0.65337 0.84024 0.0
H342 H 0.13719 0.75426 0.82572 0.0
H343 H 0.12567 0.76628 0.86751 0.0
H344 H 0.10319 0.78312 0.83199 0.0
H345 H 0.10113 0.62912 0.87348 0.0
H346 H 0.05852 0.62962 0.88842 0.0
H347 H 0.09095 0.6521 0.91075 0.0
C348 C 0.63849 0.76691 0.10943 0.0
C349 C 0.669 0.77003 0.09228 0.0
C350 C 0.63453 0.78041 0.14178 0.0
C351 C 0.66179 0.79729 0.15715 0.0
C352 C 0.69307 0.79918 0.14036 0.0
C353 C 0.69614 0.78589 0.10793 0.0
C354 C 0.60092 0.77758 0.15899 0.0
C355 C 0.72308 0.81603 0.15628 0.0
C356 C 0.64958 0.86825 0.21908 0.0
C357 C 0.66009 0.85347 0.24923 0.0
C358 C 0.64827 0.84969 0.18921 0.0
C359 C 0.65729 0.81541 0.18951 0.0
C360 C 0.66539 0.79975 0.22028 0.0
C361 C 0.66703 0.81902 0.24977 0.0
C362 C 0.63927 0.86735 0.15695 0.0
C363 C 0.67435 0.76314 0.22177 0.0
H364 H 0.61743 0.75488 0.09712 0.0
H365 H 0.71984 0.78794 0.09472 0.0
H366 H 0.60405 0.76798 0.18491 0.0
H367 H 0.58934 0.80276 0.1609 0.0
H368 H 0.58343 0.76076 0.14522 0.0
H369 H 0.74592 0.81416 0.14041 0.0
H370 H 0.71757 0.84292 0.16074 0.0
H371 H 0.72849 0.80446 0.18099 0.0
H372 H 0.6439 0.89479 0.2184 0.0
H373 H 0.6749 0.80727 0.27298 0.0
H374 H 0.61986 0.85297 0.14309 0.0
H375 H 0.66176 0.86891 0.14061 0.0
H376 H 0.62982 0.89315 0.16141 0.0
H377 H 0.65756 0.74802 0.20551 0.0
H378 H 0.67297 0.75318 0.24774 0.0
H379 H 0.70032 0.75997 0.21239 0.0
C380 C 0.78507 0.31549 0.87041 0.0
C381 C 0.78136 0.30226 0.90282 0.0
C382 C 0.81315 0.3081 0.85072 0.0
C383 C 0.83873 0.28736 0.86384 0.0
C384 C 0.83591 0.27487 0.897 0.0
C385 C 0.80703 0.2822 0.91604 0.0
C386 C 0.81486 0.32175 0.81537 0.0
C387 C 0.86298 0.25324 0.91203 0.0
C388 C 0.8856 0.24728 0.79211 0.0
C389 C 0.91014 0.27173 0.78563 0.0
C390 C 0.86393 0.25025 0.8197 0.0
C391 C 0.86731 0.27797 0.84167 0.0
C392 C 0.89464 0.30036 0.83758 0.0
C393 C 0.91561 0.29713 0.80942 0.0
C394 C 0.8351 0.22584 0.82294 0.0
C395 C 0.89972 0.32971 0.86096 0.0
H396 H 0.76544 0.33096 0.85983 0.0
H397 H 0.80444 0.27198 0.94109 0.0
H398 H 0.83796 0.33694 0.81208 0.0
H399 H 0.81598 0.30075 0.79712 0.0
H400 H 0.79291 0.33764 0.80907 0.0
H401 H 0.85905 0.24899 0.9393 0.0
H402 H 0.86335 0.22856 0.89919 0.0
H403 H 0.88798 0.26494 0.90826 0.0
H404 H 0.88133 0.22735 0.77409 0.0
H405 H 0.93486 0.31585 0.80492 0.0
H406 H 0.8117 0.23804 0.81417 0.0
H407 H 0.83126 0.21848 0.84948 0.0
H408 H 0.83913 0.20285 0.8077 0.0
H409 H 0.88163 0.34979 0.85452 0.0
H410 H 0.92548 0.3402 0.85892 0.0
H411 H 0.89505 0.32231 0.88738 0.0
C412 C 0.41508 0.76008 0.68203 0.0
C413 C 0.39115 0.76657 0.65707 0.0
C414 C 0.40675 0.7413 0.71064 0.0
C415 C 0.37366 0.7289 0.71444 0.0
C416 C 0.35029 0.7329 0.68799 0.0
C417 C 0.35941 0.75141 0.65948 0.0
C418 C 0.43253 0.73733 0.73806 0.0
C419 C 0.31455 0.72068 0.69128 0.0
C420 C 0.35053 0.67143 0.78723 0.0
C421 C 0.33684 0.69436 0.81016 0.0
C422 C 0.36296 0.68222 0.756 0.0
C423 C 0.36196 0.71672 0.74776 0.0
C424 C 0.34888 0.73998 0.77122 0.0
C425 C 0.3364 0.7285 0.802 0.0
C426 C 0.37674 0.65674 0.73164 0.0
C427 C 0.34845 0.77718 0.7642 0.0
H428 H 0.43974 0.77146 0.68027 0.0
H429 H 0.34068 0.75625 0.64039 0.0
H430 H 0.42671 0.75491 0.75884 0.0
H431 H 0.43193 0.71157 0.74848 0.0
H432 H 0.45831 0.74282 0.72895 0.0
H433 H 0.30074 0.72196 0.66711 0.0
H434 H 0.31391 0.69449 0.70058 0.0
H435 H 0.30117 0.73647 0.7099 0.0
H436 H 0.35091 0.64498 0.79341 0.0
H437 H 0.32634 0.74644 0.81979 0.0
H438 H 0.40267 0.66368 0.72422 0.0
H439 H 0.36133 0.65652 0.70847 0.0
H440 H 0.37701 0.63104 0.74234 0.0
H441 H 0.37419 0.78739 0.7672 0.0
H442 H 0.33155 0.79091 0.78158 0.0
H443 H 0.34048 0.78231 0.7381 0.0
C444 C 0.69957 0.68815 0.19216 0.0
C445 C 0.71173 0.7008 0.16167 0.0
C446 C 0.71956 0.68888 0.22129 0.0
C447 C 0.75239 0.7025 0.21975 0.0
C448 C 0.76429 0.71617 0.1892 0.0
C449 C 0.74386 0.71512 0.1606 0.0
C450 C 0.70572 0.67481 0.25358 0.0
C451 C 0.799 0.73123 0.18647 0.0
C452 C 0.80351 0.72851 0.29604 0.0
C453 C 0.82599 0.70164 0.29893 0.0
C454 C 0.7783 0.72854 0.27142 0.0
C455 C 0.77533 0.70091 0.24925 0.0
C456 C 0.79685 0.67297 0.2532 0.0
C457 C 0.82185 0.67364 0.27801 0.0
C458 C 0.7556 0.75863 0.2685 0.0
C459 C 0.79476 0.64313 0.22992 0.0
H460 H 0.67467 0.67721 0.19312 0.0
H461 H 0.75323 0.72536 0.13721 0.0
H462 H 0.72092 0.65299 0.26159 0.0
H463 H 0.70742 0.6939 0.27378 0.0
H464 H 0.67916 0.66672 0.25106 0.0
H465 H 0.80407 0.74169 0.16114 0.0
H466 H 0.80216 0.75155 0.20524 0.0
H467 H 0.81811 0.71183 0.19198 0.0
H468 H 0.8063 0.75015 0.31228 0.0
H469 H 0.83903 0.65273 0.28008 0.0
H470 H 0.72938 0.7509 0.27365 0.0
H471 H 0.75641 0.76892 0.24267 0.0
H472 H 0.7625 0.7789 0.28637 0.0
H473 H 0.76864 0.63356 0.22869 0.0
H474 H 0.81146 0.62237 0.23792 0.0
H475 H 0.80202 0.65088 0.20418 0.0
C476 C 0.58707 0.17424 0.71948 0.0
C477 C 0.57993 0.14334 0.7348 0.0
C478 C 0.59406 0.20283 0.73886 0.0
C479 C 0.59375 0.20039 0.77428 0.0
C480 C 0.58266 0.17038 0.78968 0.0
C481 C 0.57583 0.14219 0.76972 0.0
C482 C 0.60517 0.23452 0.72141 0.0
C483 C 0.58149 0.16683 0.82737 0.0
C484 C 0.66167 0.24423 0.82405 0.0
C485 C 0.64383 0.26977 0.84028 0.0
C486 C 0.64583 0.22249 0.80145 0.0
C487 C 0.61111 0.2262 0.79498 0.0
C488 C 0.5932 0.2529 0.81004 0.0
C489 C 0.60984 0.27449 0.83256 0.0
C490 C 0.6661 0.1947 0.7855 0.0
C491 C 0.55628 0.25784 0.80347 0.0
H492 H 0.58993 0.17555 0.69246 0.0
H493 H 0.56976 0.11858 0.78175 0.0
H494 H 0.59519 0.25703 0.73432 0.0
H495 H 0.63296 0.23612 0.722 0.0
H496 H 0.59701 0.23495 0.69476 0.0
H497 H 0.56737 0.14411 0.83525 0.0
H498 H 0.60746 0.16493 0.83721 0.0
H499 H 0.56975 0.18914 0.83907 0.0
H500 H 0.68807 0.24073 0.82953 0.0
H501 H 0.59594 0.29424 0.84501 0.0
H502 H 0.66357 0.19552 0.75779 0.0
H503 H 0.65645 0.17001 0.794 0.0
H504 H 0.69318 0.19634 0.7919 0.0
H505 H 0.55083 0.256 0.77623 0.0
H506 H 0.54728 0.28246 0.81287 0.0
H507 H 0.54179 0.23777 0.81619 0.0
C508 C 0.27397 0.31131 0.16675 0.0
C509 C 0.25756 0.29937 0.13799 0.0
C510 C 0.25644 0.31596 0.197 0.0
C511 C 0.22181 0.30799 0.19864 0.0
C512 C 0.20532 0.29521 0.1699 0.0
C513 C 0.22332 0.29131 0.13987 0.0
C514 C 0.27485 0.32989 0.22708 0.0
C515 C 0.16862 0.2858 0.17083 0.0
C516 C 0.18565 0.29608 0.28608 0.0
C517 C 0.17114 0.32748 0.2922 0.0
C518 C 0.20139 0.28897 0.25537 0.0
C519 C 0.20271 0.31394 0.2302 0.0
C520 C 0.18683 0.34519 0.23568 0.0
C521 C 0.17106 0.35152 0.26655 0.0
C522 C 0.21762 0.25516 0.25039 0.0
C523 C 0.18787 0.37256 0.20955 0.0
H524 H 0.30041 0.31758 0.16548 0.0
H525 H 0.21053 0.2817 0.11786 0.0
H526 H 0.26302 0.35371 0.23522 0.0
H527 H 0.27305 0.31214 0.24841 0.0
H528 H 0.30177 0.33473 0.22173 0.0
H529 H 0.15984 0.27491 0.1467 0.0
H530 H 0.16399 0.26734 0.19112 0.0
H531 H 0.15328 0.30826 0.17653 0.0
H532 H 0.18547 0.27728 0.30564 0.0
H533 H 0.16007 0.37593 0.27111 0.0
H534 H 0.2452 0.25826 0.2483 0.0
H535 H 0.20874 0.24359 0.22666 0.0
H536 H 0.21225 0.23771 0.27144 0.0
H537 H 0.21424 0.38043 0.20525 0.0
H538 H 0.1731 0.3949 0.21712 0.0
H539 H 0.17799 0.3631 0.1853 0.0
C540 C 0.00723 0.28983 0.59369 0.0
C541 C 0.01964 0.30903 0.62054 0.0
C542 C 0.0236 0.28957 0.56247 0.0
C543 C 0.05324 0.30868 0.55809 0.0
C544 C 0.06706 0.32628 0.58573 0.0
C545 C 0.05003 0.32636 0.61657 0.0
C546 C 0.00801 0.27053 0.53364 0.0
C547 C 0.0989 0.34657 0.58225 0.0
C548 C 0.10864 0.29763 0.48102 0.0
C549 C 0.09946 0.32553 0.46168 0.0
C550 C 0.0933 0.29126 0.51216 0.0
C551 C 0.06798 0.31311 0.52402 0.0
C552 C 0.05768 0.34047 0.50392 0.0
C553 C 0.07364 0.34643 0.47313 0.0
C554 C 0.10507 0.26195 0.53292 0.0
C555 C 0.03046 0.36413 0.51543 0.0
H556 H 0.98378 0.27631 0.5965 0.0
H557 H 0.05994 0.34103 0.63723 0.0
H558 H 0.99788 0.28855 0.51506 0.0
H559 H 0.02713 0.25514 0.52059 0.0
H560 H 0.98726 0.25388 0.54201 0.0
H561 H 0.10825 0.35583 0.60684 0.0
H562 H 0.11884 0.33135 0.57025 0.0
H563 H 0.09423 0.36849 0.56581 0.0
H564 H 0.12868 0.28144 0.47243 0.0
H565 H 0.06625 0.3679 0.45824 0.0
H566 H 0.08341 0.24634 0.54084 0.0
H567 H 0.11742 0.2713 0.55606 0.0
H568 H 0.12311 0.24587 0.51908 0.0
H569 H 0.00746 0.34985 0.522 0.0
H570 H 0.02399 0.38297 0.49599 0.0
H571 H 0.03876 0.37758 0.53836 0.0
C572 C 0.34469 0.98954 0.3675 0.0
C573 C 0.31659 0.01068 0.36675 0.0
C574 C 0.34904 0.96621 0.3934 0.0
C575 C 0.32457 0.96375 0.41901 0.0
C576 C 0.2947 0.98275 0.41665 0.0
C577 C 0.2911 0.00611 0.39057 0.0
C578 C 0.38126 0.94644 0.39492 0.0
C579 C 0.26775 0.98044 0.44316 0.0
C580 C 0.33289 0.89594 0.48579 0.0
C581 C 0.34816 0.91398 0.51192 0.0
C582 C 0.3249 0.91169 0.45524 0.0
C583 C 0.33276 0.94604 0.45076 0.0
C584 C 0.34876 0.96407 0.47688 0.0
C585 C 0.35607 0.94788 0.50711 0.0
C586 C 0.30762 0.8918 0.42801 0.0
C587 C 0.35804 0.00063 0.47301 0.0
H588 H 0.36437 0.99255 0.34896 0.0
H589 H 0.26909 0.022 0.38995 0.0
H590 H 0.3977 0.95717 0.4147 0.0
H591 H 0.37623 0.91994 0.40165 0.0
H592 H 0.39508 0.9471 0.37072 0.0
H593 H 0.24397 0.9923 0.43489 0.0
H594 H 0.26265 0.95391 0.44977 0.0
H595 H 0.27643 0.99335 0.46627 0.0
H596 H 0.32659 0.86976 0.48946 0.0
H597 H 0.36809 0.96193 0.52709 0.0
H598 H 0.32237 0.893 0.40443 0.0
H599 H 0.2827 0.90289 0.42266 0.0
H600 H 0.3041 0.86509 0.43504 0.0
H601 H 0.37473 0.00396 0.45098 0.0
H602 H 0.37099 0.01081 0.49552 0.0
H603 H 0.33515 0.01571 0.46848 0.0
C604 C 0.00123 0.75459 0.59127 0.0
C605 C 0.98674 0.7388 0.6192 0.0
C606 C 0.98882 0.74895 0.5588 0.0
C607 C 0.96107 0.72723 0.55417 0.0
C608 C 0.94445 0.71369 0.5825 0.0
C609 C 0.95753 0.71958 0.61473 0.0
C610 C 0.00721 0.76405 0.5293 0.0
C611 C 0.91441 0.69091 0.57867 0.0
C612 C 0.92485 0.72255 0.46588 0.0
C613 C 0.94173 0.69458 0.45281 0.0
C614 C 0.92989 0.73292 0.49925 0.0
C615 C 0.95264 0.71512 0.51982 0.0
C616 C 0.96905 0.68639 0.50698 0.0
C617 C 0.96326 0.67638 0.47375 0.0
C618 C 0.91158 0.76337 0.5122 0.0
C619 C 0.99367 0.66677 0.52801 0.0
H620 H 0.02357 0.76979 0.59445 0.0
H621 H 0.94594 0.70749 0.63616 0.0
H622 H 0.02091 0.74401 0.51571 0.0
H623 H 0.98929 0.77543 0.51138 0.0
H624 H 0.02558 0.7835 0.5372 0.0
H625 H 0.90108 0.6871 0.60286 0.0
H626 H 0.89651 0.70123 0.56008 0.0
H627 H 0.92275 0.6661 0.56927 0.0
H628 H 0.90806 0.73668 0.4499 0.0
H629 H 0.97642 0.65476 0.46392 0.0
H630 H 0.92976 0.78393 0.51692 0.0
H631 H 0.89915 0.75762 0.53644 0.0
H632 H 0.89238 0.77245 0.4942 0.0
H633 H 0.0151 0.6831 0.53511 0.0
H634 H 0.00359 0.64447 0.5146 0.0
H635 H 0.98151 0.65829 0.55157 0.0
C636 C 0.59966 0.97529 0.56852 0.0
C637 C 0.60421 0.00969 0.57419 0.0
C638 C 0.59906 0.96221 0.53578 0.0
C639 C 0.60415 0.98395 0.50818 0.0
C640 C 0.60707 0.01893 0.51373 0.0
C641 C 0.60665 0.03142 0.54668 0.0
C642 C 0.5947 0.92493 0.53091 0.0
C643 C 0.61295 0.04297 0.48506 0.0
C644 C 0.65027 0.95139 0.43163 0.0
C645 C 0.62474 0.9503 0.40744 0.0
C646 C 0.64363 0.96144 0.46468 0.0
C647 C 0.61049 0.97004 0.47407 0.0
C648 C 0.58425 0.96732 0.45027 0.0
C649 C 0.59174 0.95782 0.41711 0.0
C650 C 0.67244 0.96433 0.48915 0.0
C651 C 0.54848 0.9755 0.45953 0.0
H652 H 0.59736 0.95844 0.58973 0.0
H653 H 0.61022 0.05803 0.55093 0.0
H654 H 0.57708 0.91969 0.50999 0.0
H655 H 0.61919 0.91359 0.52423 0.0
H656 H 0.5852 0.91248 0.55397 0.0
H657 H 0.61209 0.06957 0.49329 0.0
H658 H 0.63792 0.03808 0.47376 0.0
H659 H 0.59395 0.03913 0.46511 0.0
H660 H 0.67586 0.9457 0.42445 0.0
H661 H 0.57183 0.95695 0.39861 0.0
H662 H 0.66727 0.94914 0.51186 0.0
H663 H 0.67526 0.99079 0.49734 0.0
H664 H 0.6966 0.95592 0.47812 0.0
H665 H 0.54143 0.96294 0.48335 0.0
H666 H 0.5305 0.9678 0.43965 0.0
H667 H 0.54598 0.00289 0.46357 0.0
C668 C 0.47419 0.0348 0.29356 0.0
C669 C 0.45822 0.06594 0.29123 0.0
C670 C 0.50909 0.03261 0.29669 0.0
C671 C 0.52863 0.06232 0.29702 0.0
C672 C 0.51282 0.09385 0.29374 0.0
C673 C 0.4777 0.09532 0.2911 0.0
C674 C 0.52497 0.99844 0.30038 0.0
C675 C 0.53293 0.12595 0.29357 0.0
C676 C 0.61164 0.04629 0.33925 0.0
C677 C 0.63101 0.03578 0.31183 0.0
C678 C 0.57884 0.058 0.33462 0.0
C679 C 0.56549 0.05975 0.30175 0.0
C680 C 0.58638 0.05306 0.27383 0.0
C681 C 0.61891 0.04092 0.27921 0.0
C682 C 0.55741 0.06476 0.36512 0.0
C683 C 0.57333 0.05536 0.23836 0.0
H684 H 0.45935 0.01199 0.29378 0.0
H685 H 0.46549 0.11949 0.28918 0.0
H686 H 0.54354 0.99432 0.28006 0.0
H687 H 0.53862 0.99695 0.32459 0.0
H688 H 0.5062 0.97782 0.2995 0.0
H689 H 0.51709 0.14823 0.28841 0.0
H690 H 0.54533 0.12944 0.31824 0.0
H691 H 0.55303 0.12462 0.27436 0.0
H692 H 0.6208 0.04247 0.36457 0.0
H693 H 0.63397 0.03319 0.25791 0.0
H694 H 0.54002 0.04334 0.36905 0.0
H695 H 0.54195 0.08753 0.36153 0.0
H696 H 0.57277 0.06791 0.38817 0.0
H697 H 0.55729 0.03323 0.23297 0.0
H698 H 0.59405 0.05589 0.21972 0.0
H699 H 0.55769 0.07807 0.23504 0.0
C700 C 0.0142 0.57615 0.70143 0.0
C701 C 0.98848 0.599 0.70858 0.0
C702 C 0.00782 0.54149 0.70045 0.0
C703 C 0.97505 0.5294 0.70715 0.0
C704 C 0.94899 0.55236 0.71421 0.0
C705 C 0.95598 0.58684 0.71467 0.0
C706 C 0.0362 0.51778 0.69252 0.0
C707 C 0.9138 0.54048 0.72186 0.0
C708 C 0.95048 0.44108 0.68023 0.0
C709 C 0.95489 0.4231 0.71013 0.0
C710 C 0.9572 0.47567 0.67878 0.0
C711 C 0.96821 0.49269 0.708 0.0
C712 C 0.97229 0.47473 0.73832 0.0
C713 C 0.96574 0.44016 0.73897 0.0
C714 C 0.95279 0.49395 0.64594 0.0
C715 C 0.98357 0.49202 0.77013 0.0
H716 H 0.03933 0.58535 0.69653 0.0
H717 H 0.93594 0.60429 0.72028 0.0
H718 H 0.04077 0.50104 0.71425 0.0
H719 H 0.02935 0.50159 0.67091 0.0
H720 H 0.05988 0.53122 0.6865 0.0
H721 H 0.89622 0.5616 0.72622 0.0
H722 H 0.90412 0.52503 0.7008 0.0
H723 H 0.914 0.52435 0.74452 0.0
H724 H 0.9423 0.42804 0.65779 0.0
H725 H 0.96912 0.4265 0.76221 0.0
H726 H 0.97682 0.50587 0.63842 0.0
H727 H 0.9341 0.51428 0.64889 0.0
H728 H 0.9444 0.47703 0.62541 0.0
H729 H 0.00854 0.50374 0.76625 0.0
H730 H 0.98523 0.4745 0.79171 0.0
H731 H 0.96583 0.5124 0.77667 0.0
C732 C 0.56723 0.01905 0.68398 0.0
C733 C 0.58987 0.99897 0.70181 0.0
C734 C 0.53613 0.00628 0.67324 0.0
C735 C 0.5273 0.97276 0.68092 0.0
C736 C 0.54982 0.95253 0.69932 0.0
C737 C 0.58074 0.96586 0.70948 0.0
C738 C 0.51285 0.02858 0.6535 0.0
C739 C 0.54138 0.91664 0.70806 0.0
C740 C 0.4368 0.94263 0.68124 0.0
C741 C 0.43531 0.92421 0.65128 0.0
C742 C 0.46624 0.95963 0.69066 0.0
C743 C 0.49478 0.95834 0.66951 0.0
C744 C 0.49302 0.94085 0.63864 0.0
C745 C 0.46337 0.9239 0.62997 0.0
C746 C 0.4672 0.97799 0.7238 0.0
C747 C 0.52279 0.93921 0.61523 0.0
H748 H 0.57366 0.0447 0.67835 0.0
H749 H 0.59798 0.95004 0.72325 0.0
H750 H 0.50838 0.01759 0.6283 0.0
H751 H 0.48818 0.03025 0.66625 0.0
H752 H 0.5231 0.0543 0.6503 0.0
H753 H 0.56139 0.90446 0.72309 0.0
H754 H 0.51761 0.91564 0.72251 0.0
H755 H 0.53753 0.90187 0.68476 0.0
H756 H 0.41522 0.94311 0.69779 0.0
H757 H 0.46236 0.91005 0.60658 0.0
H758 H 0.47626 0.00405 0.72016 0.0
H759 H 0.48511 0.96541 0.74095 0.0
H760 H 0.44223 0.97878 0.73615 0.0
H761 H 0.53207 0.96484 0.60961 0.0
H762 H 0.51669 0.92646 0.59119 0.0
H763 H 0.54362 0.92548 0.62748 0.0
C764 C 0.00614 0.60001 0.32956 0.0
C765 C 0.01815 0.63272 0.33456 0.0
C766 C 0.02781 0.57239 0.33072 0.0
C767 C 0.06242 0.57756 0.33681 0.0
C768 C 0.07494 0.61058 0.34072 0.0
C769 C 0.05263 0.63778 0.33965 0.0
C770 C 0.01344 0.53757 0.32646 0.0
C771 C 0.11173 0.61709 0.34694 0.0
C772 C 0.10723 0.50328 0.37555 0.0
C773 C 0.12137 0.48783 0.34726 0.0
C774 C 0.08904 0.53321 0.37265 0.0
C775 C 0.085 0.54816 0.34071 0.0
C776 C 0.10055 0.53358 0.31231 0.0
C777 C 0.1185 0.50355 0.3159 0.0
C778 C 0.07288 0.54799 0.40357 0.0
C779 C 0.09706 0.54894 0.27788 0.0
H780 H 0.97957 0.59581 0.32557 0.0
H781 H 0.06216 0.66297 0.34341 0.0
H782 H 0.02675 0.52414 0.30604 0.0
H783 H 0.01719 0.52299 0.34985 0.0
H784 H 0.98621 0.5379 0.32056 0.0
H785 H 0.11784 0.64427 0.347 0.0
H786 H 0.11909 0.60636 0.37151 0.0
H787 H 0.12713 0.60454 0.32745 0.0
H788 H 0.1094 0.49143 0.39991 0.0
H789 H 0.12947 0.49191 0.29392 0.0
H790 H 0.04518 0.54672 0.40111 0.0
H791 H 0.07981 0.57481 0.4062 0.0
H792 H 0.08026 0.53461 0.42685 0.0
H793 H 0.07061 0.54695 0.26946 0.0
H794 H 0.11328 0.53642 0.25901 0.0
H795 H 0.10355 0.57599 0.27868 0.0
C796 C 0.29302 0.38057 0.98583 0.0
C797 C 0.32554 0.36741 0.98345 0.0
C798 C 0.28586 0.41305 0.97431 0.0
C799 C 0.31193 0.4329 0.96052 0.0
C800 C 0.34426 0.41898 0.95621 0.0
C801 C 0.3506 0.38634 0.9675 0.0
C802 C 0.25089 0.42678 0.97869 0.0
C803 C 0.37283 0.43935 0.94183 0.0
C804 C 0.29555 0.51568 0.91618 0.0
C805 C 0.30166 0.53877 0.94207 0.0
C806 C 0.29765 0.48099 0.92199 0.0
C807 C 0.30666 0.46926 0.95426 0.0
C808 C 0.31242 0.49249 0.98054 0.0
C809 C 0.3096 0.5269 0.97418 0.0
C810 C 0.29077 0.45694 0.89353 0.0
C811 C 0.3225 0.48105 0.01522 0.0
H812 H 0.27342 0.36601 0.99784 0.0
H813 H 0.37577 0.37637 0.96535 0.0
H814 H 0.25086 0.44568 0.99914 0.0
H815 H 0.24249 0.43957 0.95547 0.0
H816 H 0.23249 0.40683 0.98512 0.0
H817 H 0.39555 0.42393 0.93726 0.0
H818 H 0.36525 0.45123 0.91788 0.0
H819 H 0.3795 0.45979 0.95955 0.0
H820 H 0.28916 0.5247 0.89135 0.0
H821 H 0.31444 0.54457 0.9943 0.0
H822 H 0.27182 0.43806 0.90129 0.0
H823 H 0.31402 0.44314 0.88707 0.0
H824 H 0.28161 0.46994 0.87068 0.0
H825 H 0.30341 0.46354 0.02544 0.0
H826 H 0.32549 0.5023 0.03302 0.0
H827 H 0.3466 0.46724 0.01389 0.0
C828 C 0.39197 0.72411 0.9686 0.0
C829 C 0.37362 0.69404 0.96896 0.0
C830 C 0.42207 0.72729 0.98668 0.0
C831 C 0.43422 0.69968 0.00535 0.0
C832 C 0.41435 0.67034 0.00811 0.0
C833 C 0.38424 0.66792 0.98999 0.0
C834 C 0.44221 0.75922 0.9835 0.0
C835 C 0.42627 0.6403 0.02774 0.0
C836 C 0.52836 0.68711 0.00462 0.0
C837 C 0.53775 0.6971 0.03704 0.0
C838 C 0.49483 0.68785 0.99427 0.0
C839 C 0.46982 0.69918 0.01676 0.0
C840 C 0.47899 0.70948 0.04956 0.0
C841 C 0.51292 0.70814 0.05942 0.0
C842 C 0.48622 0.6763 0.95916 0.0
C843 C 0.45303 0.72199 0.07408 0.0
H844 H 0.38379 0.74461 0.9528 0.0
H845 H 0.3701 0.64469 0.99079 0.0
H846 H 0.45251 0.76692 0.00819 0.0
H847 H 0.46374 0.7549 0.96639 0.0
H848 H 0.42696 0.78009 0.97323 0.0
H849 H 0.40587 0.62173 0.03185 0.0
H850 H 0.44682 0.62781 0.01373 0.0
H851 H 0.43647 0.64806 0.05245 0.0
H852 H 0.54729 0.67836 0.98717 0.0
H853 H 0.52002 0.716 0.08448 0.0
H854 H 0.47414 0.69696 0.94507 0.0
H855 H 0.46803 0.65522 0.96025 0.0
H856 H 0.50863 0.6679 0.9449 0.0
H857 H 0.4399 0.74403 0.06343 0.0
H858 H 0.46423 0.72923 0.09857 0.0
H859 H 0.43381 0.70233 0.07847 0.0
C860 C 0.71686 0.46081 0.96317 0.0
C861 C 0.69057 0.44394 0.94688 0.0
C862 C 0.71267 0.49347 0.9755 0.0
C863 C 0.68143 0.50972 0.97142 0.0
C864 C 0.65511 0.49328 0.95407 0.0
C865 C 0.65999 0.46056 0.94198 0.0
C866 C 0.74137 0.51022 0.99377 0.0
C867 C 0.62148 0.50988 0.94912 0.0
C868 C 0.65923 0.57807 0.03396 0.0
C869 C 0.66655 0.60722 0.0157 0.0
C870 C 0.66381 0.5462 0.01976 0.0
C871 C 0.67595 0.54339 0.98649 0.0
C872 C 0.68335 0.57268 0.96789 0.0
C873 C 0.6786 0.60425 0.98273 0.0
C874 C 0.65574 0.5155 0.04042 0.0
C875 C 0.69632 0.57067 0.93234 0.0
H876 H 0.74061 0.44823 0.96699 0.0
H877 H 0.63954 0.44772 0.92943 0.0
H878 H 0.74702 0.53491 0.98228 0.0
H879 H 0.7342 0.51488 0.02027 0.0
H880 H 0.76454 0.49481 0.99345 0.0
H881 H 0.60425 0.49446 0.93352 0.0
H882 H 0.60948 0.51431 0.97385 0.0
H883 H 0.62479 0.53467 0.93697 0.0
H884 H 0.64989 0.58012 0.05943 0.0
H885 H 0.68426 0.62662 0.96839 0.0
H886 H 0.6785 0.49981 0.04321 0.0
H887 H 0.63656 0.50002 0.02743 0.0
H888 H 0.64624 0.52198 0.06582 0.0
H889 H 0.72032 0.55669 0.93178 0.0
H890 H 0.70049 0.59583 0.92114 0.0
H891 H 0.67825 0.55668 0.9164 0.0
C892 C 0.46023 0.28594 0.06646 0.0
C893 C 0.44062 0.28074 0.03773 0.0
C894 C 0.49489 0.2922 0.06378 0.0
C895 C 0.50979 0.29465 0.03158 0.0
C896 C 0.48995 0.28929 0.00257 0.0
C897 C 0.45578 0.28182 0.00605 0.0
C898 C 0.51545 0.29653 0.09527 0.0
C899 C 0.50452 0.29262 0.9677 0.0
C900 C 0.5855 0.3492 0.01424 0.0
C901 C 0.60948 0.32524 0.0049 0.0
C902 C 0.55343 0.33955 0.025 0.0
C903 C 0.54546 0.30505 0.02759 0.0
C904 C 0.57064 0.2808 0.02148 0.0
C905 C 0.60225 0.29115 0.00964 0.0
C906 C 0.52721 0.36629 0.03046 0.0
C907 C 0.56355 0.24383 0.02528 0.0
H908 H 0.44852 0.28481 0.09099 0.0
H909 H 0.44058 0.27806 0.9838 0.0
H910 H 0.53815 0.28052 0.09415 0.0
H911 H 0.5241 0.32288 0.09742 0.0
H912 H 0.50098 0.29009 0.11821 0.0
H913 H 0.48557 0.28801 0.94779 0.0
H914 H 0.51501 0.31819 0.96426 0.0
H915 H 0.52538 0.27462 0.96427 0.0
H916 H 0.59081 0.37562 0.01069 0.0
H917 H 0.62079 0.27251 0.00281 0.0
H918 H 0.51377 0.3622 0.05446 0.0
H919 H 0.50833 0.36493 0.01003 0.0
H920 H 0.53821 0.3919 0.03068 0.0
H921 H 0.5488 0.23895 0.0484 0.0
H922 H 0.58702 0.22891 0.02621 0.0
H923 H 0.54844 0.23495 0.00364 0.0
loop_
_geom_bond_atom_site_label_1
_geom_bond_atom_site_label_2
_geom_bond_distance
_geom_bond_site_symmetry_2
_ccdc_geom_bond_type
Mg0 O7 2.141 . S
Mg0 O8 2.048 . S
Mg0 O9 2.048 . S
Mg0 O12 2.141 . S
C1 O2 1.313 . S
C1 O8 1.195 . S
O2 C1 1.313 . S
C3 O4 1.245 1_455 S
C3 O12 1.289 . S
O4 C3 1.245 1_655 S
C5 O6 1.245 . S
C5 O7 1.289 . S
O6 C5 1.245 . S
O7 Mg0 2.141 . S
O7 C5 1.289 . S
O8 Mg0 2.048 . S
O8 C1 1.195 . S
O9 Mg0 2.048 . S
O9 C10 1.195 . S
C10 O9 1.195 . S
C10 O11 1.313 1_455 S
O11 C10 1.313 1_655 S
O12 Mg0 2.141 . S
O12 C3 1.289 . S
Mg13 O20 2.141 . S
Mg13 O21 2.048 . S
Mg13 O22 2.048 . S
Mg13 O25 2.141 . S
C14 O15 1.313 . S
C14 O21 1.195 . S
O15 C14 1.313 . S
C16 O17 1.245 1_565 S
C16 O25 1.289 . S
O17 C16 1.245 1_545 S
C18 O19 1.245 . S
C18 O20 1.289 . S
O19 C18 1.245 . S
O20 Mg13 2.141 . S
O20 C18 1.289 . S
O21 Mg13 2.048 . S
O21 C14 1.195 . S
O22 Mg13 2.048 . S
O22 C23 1.195 . S
C23 O22 1.195 . S
C23 O24 1.313 1_565 S
O24 C23 1.313 1_545 S
O25 Mg13 2.141 . S
O25 C16 1.289 . S
Mg26 O33 2.141 . S
Mg26 O34 2.048 . S
Mg26 O35 2.048 . S
Mg26 O38 2.141 . S
C27 O28 1.313 . S
C27 O34 1.195 . S
O28 C27 1.313 . S
C29 O30 1.245 1_655 S
C29 O38 1.289 . S
O30 C29 1.245 1_455 S
C31 O32 1.245 . S
C31 O33 1.289 . S
O32 C31 1.245 . S
O33 Mg26 2.141 . S
O33 C31 1.289 . S
O34 Mg26 2.048 . S
O34 C27 1.195 . S
O35 Mg26 2.048 . S
O35 C36 1.195 . S
C36 O35 1.195 . S
C36 O37 1.313 . S
O37 C36 1.313 . S
O38 Mg26 2.141 . S
O38 C29 1.289 . S
Mg39 O46 2.141 . S
Mg39 O47 2.048 . S
Mg39 O48 2.048 . S
Mg39 O51 2.141 . S
C40 O41 1.313 . S
C40 O47 1.195 1_565 S
O41 C40 1.313 . S
C42 O43 1.245 . S
C42 O51 1.289 . S
O43 C42 1.245 . S
C44 O45 1.245 . S
C44 O46 1.289 1_565 S
O45 C44 1.245 . S
O46 Mg39 2.141 . S
O46 C44 1.289 1_545 S
O47 Mg39 2.048 . S
O47 C40 1.195 1_545 S
O48 Mg39 2.048 . S
O48 C49 1.195 . S
C49 O48 1.195 . S
C49 O50 1.313 . S
O50 C49 1.313 . S
O51 Mg39 2.141 . S
O51 C42 1.289 . S
Mg52 O59 2.141 . S
Mg52 O60 2.048 . S
Mg52 O61 2.048 . S
Mg52 O64 2.141 . S
C53 O54 1.313 1_455 S
C53 O60 1.195 . S
O54 C53 1.313 1_655 S
C55 O56 1.245 . S
C55 O64 1.289 . S
O56 C55 1.245 . S
C57 O58 1.245 . S
C57 O59 1.289 1_655 S
O58 C57 1.245 . S
O59 Mg52 2.141 . S
O59 C57 1.289 1_455 S
O60 Mg52 2.048 . S
O60 C53 1.195 . S
O61 Mg52 2.048 . S
O61 C62 1.195 . S
C62 O61 1.195 . S
C62 O63 1.313 . S
O63 C62 1.313 . S
O64 Mg52 2.141 . S
O64 C55 1.289 . S
Mg65 O72 2.141 . S
Mg65 O73 2.048 . S
Mg65 O74 2.048 . S
Mg65 O77 2.127 1_565 S
C66 O67 1.313 . S
C66 O73 1.195 . S
O67 C66 1.313 . S
C68 O69 1.245 . S
C68 O77 1.281 1_565 S
O69 C68 1.245 . S
C70 O71 1.245 . S
C70 O72 1.289 . S
O71 C70 1.245 . S
O72 Mg65 2.141 . S
O72 C70 1.289 . S
O73 Mg65 2.048 . S
O73 C66 1.195 . S
O74 Mg65 2.048 . S
O74 C75 1.195 . S
C75 O74 1.195 . S
C75 O76 1.313 . S
O76 C75 1.313 . S
O77 Mg65 2.127 1_545 S
O77 C68 1.281 1_545 S
Mg78 O85 2.141 . S
Mg78 O86 2.048 . S
Mg78 O87 2.048 . S
Mg78 O90 2.141 . S
C79 O80 1.313 1_655 S
C79 O86 1.195 . S
O80 C79 1.313 1_455 S
C81 O82 1.245 . S
C81 O90 1.289 . S
O82 C81 1.245 . S
C83 O84 1.245 1_655 S
C83 O85 1.289 . S
O84 C83 1.245 1_455 S
O85 Mg78 2.141 . S
O85 C83 1.289 . S
O86 Mg78 2.048 . S
O86 C79 1.195 . S
O87 Mg78 2.048 . S
O87 C88 1.195 . S
C88 O87 1.195 . S
C88 O89 1.313 . S
O89 C88 1.313 . S
O90 Mg78 2.141 . S
O90 C81 1.289 . S
Mg91 O98 2.141 . S
Mg91 O99 2.048 . S
Mg91 O100 2.048 . S
Mg91 O103 2.141 . S
C92 O93 1.313 . S
C92 O99 1.195 . S
O93 C92 1.313 . S
C94 O95 1.246 . S
C94 O103 1.289 . S
O95 C94 1.246 . S
C96 O97 1.245 . S
C96 O98 1.289 . S
O97 C96 1.245 . S
O98 Mg91 2.141 . S
O98 C96 1.289 . S
O99 Mg91 2.048 . S
O99 C92 1.195 . S
O100 Mg91 2.048 . S
O100 C101 1.195 . S
C101 O100 1.195 . S
C101 O102 1.313 . S
O102 C101 1.313 . S
O103 Mg91 2.141 . S
O103 C94 1.289 . S
Mg104 O111 2.141 . S
Mg104 O112 2.048 . S
Mg104 O113 2.048 . S
Mg104 O116 2.141 . S
C105 O106 1.313 1_554 S
C105 O112 1.195 . S
O106 C105 1.313 1_556 S
C107 O108 1.245 . S
C107 O116 1.289 . S
O108 C107 1.245 . S
C109 O110 1.245 1_554 S
C109 O111 1.289 . S
O110 C109 1.245 1_556 S
O111 Mg104 2.141 . S
O111 C109 1.289 . S
O112 Mg104 2.048 . S
O112 C105 1.195 . S
O113 Mg104 2.048 . S
O113 C114 1.195 . S
C114 O113 1.195 . S
C114 O115 1.313 . S
O115 C114 1.313 . S
O116 Mg104 2.141 . S
O116 C107 1.289 . S
Mg117 O124 2.141 . S
Mg117 O125 2.048 . S
Mg117 O126 2.048 . S
Mg117 O129 2.141 . S
C118 O119 1.313 . S
C118 O125 1.195 . S
O119 C118 1.313 . S
C120 O121 1.245 1_556 S
C120 O129 1.289 . S
O121 C120 1.245 1_554 S
C122 O123 1.245 . S
C122 O124 1.289 . S
O123 C122 1.245 . S
O124 Mg117 2.141 . S
O124 C122 1.289 . S
O125 Mg117 2.048 . S
O125 C118 1.195 . S
O126 Mg117 2.048 . S
O126 C127 1.195 . S
C127 O126 1.195 . S
C127 O128 1.313 1_556 S
O128 C127 1.313 1_554 S
O129 Mg117 2.141 . S
O129 C120 1.289 . S
Mg130 O137 2.141 . S
Mg130 O138 2.048 . S
Mg130 O139 2.048 . S
Mg130 O142 2.141 . S
C131 O132 1.313 1_554 S
C131 O138 1.195 . S
O132 C131 1.313 1_556 S
C133 O134 1.245 . S
C133 O142 1.289 . S
O134 C133 1.245 . S
C135 O136 1.245 1_554 S
C135 O137 1.289 . S
O136 C135 1.245 1_556 S
O137 Mg130 2.141 . S
O137 C135 1.289 . S
O138 Mg130 2.048 . S
O138 C131 1.195 . S
O139 Mg130 2.048 . S
O139 C140 1.195 . S
C140 O139 1.195 . S
C140 O141 1.313 . S
O141 C140 1.313 . S
O142 Mg130 2.141 . S
O142 C133 1.289 . S
Mg143 O150 2.141 . S
Mg143 O151 2.048 . S
Mg143 O152 2.048 . S
Mg143 O155 2.141 . S
C144 O145 1.313 . S
C144 O151 1.195 . S
O145 C144 1.313 . S
C146 O147 1.245 1_556 S
C146 O155 1.289 . S
O147 C146 1.245 1_554 S
C148 O149 1.245 . S
C148 O150 1.289 . S
O149 C148 1.245 . S
O150 Mg143 2.141 . S
O150 C148 1.289 . S
O151 Mg143 2.048 . S
O151 C144 1.195 . S
O152 Mg143 2.048 . S
O152 C153 1.195 . S
C153 O152 1.195 . S
C153 O154 1.313 1_556 S
O154 C153 1.313 1_554 S
O155 Mg143 2.141 . S
O155 C146 1.289 . S
C156 C157 1.391 . S
C156 C158 1.394 . S
C156 H172 0.931 . S
C157 C156 1.391 . S
C157 C161 1.376 . S
C158 C156 1.394 . S
C158 C159 1.369 . S
C158 C162 1.531 . S
C159 C158 1.369 . S
C159 C160 1.410 . S
C159 C167 1.503 . S
C160 C159 1.410 . S
C160 C161 1.392 . S
C160 C163 1.511 . S
C161 C157 1.376 . S
C161 C160 1.392 . S
C161 H173 0.929 . S
C162 C158 1.531 . S
C162 H174 0.960 . S
C162 H175 0.962 . S
C162 H176 0.960 . S
C163 C160 1.511 . S
C163 H177 0.961 . S
C163 H178 0.961 . S
C163 H179 0.961 . S
C164 C165 1.370 . S
C164 C166 1.363 . S
C164 H180 0.931 . S
C165 C164 1.370 . S
C165 C169 1.408 . S
C166 C164 1.363 . S
C166 C167 1.370 . S
C166 C170 1.524 . S
C167 C159 1.503 . S
C167 C166 1.370 . S
C167 C168 1.403 . S
C168 C167 1.403 . S
C168 C169 1.404 . S
C168 C171 1.539 . S
C169 C165 1.408 . S
C169 C168 1.404 . S
C169 H181 0.930 . S
C170 C166 1.524 . S
C170 H182 0.956 . S
C170 H183 0.961 . S
C170 H184 0.961 . S
C171 C168 1.539 . S
C171 H185 0.958 . S
C171 H186 0.961 . S
C171 H187 0.960 . S
H172 C156 0.931 . S
H173 C161 0.929 . S
H174 C162 0.960 . S
H175 C162 0.962 . S
H176 C162 0.960 . S
H177 C163 0.961 . S
H178 C163 0.961 . S
H179 C163 0.961 . S
H180 C164 0.931 . S
H181 C169 0.930 . S
H182 C170 0.956 . S
H183 C170 0.961 . S
H184 C170 0.961 . S
H185 C171 0.958 . S
H186 C171 0.961 . S
H187 C171 0.960 . S
C188 C189 1.391 . S
C188 C190 1.394 . S
C188 H204 0.931 . S
C189 C188 1.391 . S
C189 C193 1.376 . S
C190 C188 1.394 . S
C190 C191 1.369 . S
C190 C194 1.531 . S
C191 C190 1.369 . S
C191 C192 1.410 . S
C191 C199 1.503 . S
C192 C191 1.410 . S
C192 C193 1.392 . S
C192 C195 1.511 . S
C193 C189 1.376 . S
C193 C192 1.392 . S
C193 H205 0.929 . S
C194 C190 1.531 . S
C194 H206 0.960 . S
C194 H207 0.962 . S
C194 H208 0.960 . S
C195 C192 1.511 . S
C195 H209 0.961 . S
C195 H210 0.961 . S
C195 H211 0.961 . S
C196 C197 1.370 . S
C196 C198 1.363 . S
C196 H212 0.931 . S
C197 C196 1.370 . S
C197 C201 1.408 . S
C198 C196 1.363 . S
C198 C199 1.370 . S
C198 C202 1.524 . S
C199 C191 1.503 . S
C199 C198 1.370 . S
C199 C200 1.403 . S
C200 C199 1.403 . S
C200 C201 1.404 . S
C200 C203 1.539 . S
C201 C197 1.408 . S
C201 C200 1.404 . S
C201 H213 0.930 . S
C202 C198 1.524 . S
C202 H214 0.956 . S
C202 H215 0.961 . S
C202 H216 0.961 . S
C203 C200 1.539 . S
C203 H217 0.958 . S
C203 H218 0.961 . S
C203 H219 0.960 . S
H204 C188 0.931 . S
H205 C193 0.929 . S
H206 C194 0.960 . S
H207 C194 0.962 . S
H208 C194 0.960 . S
H209 C195 0.961 . S
H210 C195 0.961 . S
H211 C195 0.961 . S
H212 C196 0.931 . S
H213 C201 0.930 . S
H214 C202 0.956 . S
H215 C202 0.961 . S
H216 C202 0.961 . S
H217 C203 0.958 . S
H218 C203 0.961 . S
H219 C203 0.960 . S
C220 C221 1.391 . S
C220 C222 1.394 . S
C220 H236 0.931 . S
C221 C220 1.391 . S
C221 C225 1.376 . S
C222 C220 1.394 . S
C222 C223 1.369 . S
C222 C226 1.531 . S
C223 C222 1.369 . S
C223 C224 1.410 . S
C223 C231 1.503 . S
C224 C223 1.410 . S
C224 C225 1.392 . S
C224 C227 1.511 . S
C225 C221 1.376 . S
C225 C224 1.392 . S
C225 H237 0.929 . S
C226 C222 1.531 . S
C226 H238 0.960 . S
C226 H239 0.962 . S
C226 H240 0.960 . S
C227 C224 1.511 . S
C227 H241 0.961 . S
C227 H242 0.961 . S
C227 H243 0.961 . S
C228 C229 1.370 . S
C228 C230 1.363 . S
C228 H244 0.931 . S
C229 C228 1.370 . S
C229 C233 1.408 . S
C230 C228 1.363 . S
C230 C231 1.370 . S
C230 C234 1.524 . S
C231 C223 1.503 . S
C231 C230 1.370 . S
C231 C232 1.403 . S
C232 C231 1.403 . S
C232 C233 1.404 . S
C232 C235 1.539 . S
C233 C229 1.408 . S
C233 C232 1.404 . S
C233 H245 0.930 . S
C234 C230 1.524 . S
C234 H246 0.956 . S
C234 H247 0.961 . S
C234 H248 0.961 . S
C235 C232 1.539 . S
C235 H249 0.958 . S
C235 H250 0.961 . S
C235 H251 0.960 . S
H236 C220 0.931 . S
H237 C225 0.929 . S
H238 C226 0.960 . S
H239 C226 0.962 . S
H240 C226 0.960 . S
H241 C227 0.961 . S
H242 C227 0.961 . S
H243 C227 0.961 . S
H244 C228 0.931 . S
H245 C233 0.930 . S
H246 C234 0.956 . S
H247 C234 0.961 . S
H248 C234 0.961 . S
H249 C235 0.958 . S
H250 C235 0.961 . S
H251 C235 0.960 . S
C252 C253 1.391 . S
C252 C254 1.394 . S
C252 H268 0.931 . S
C253 C252 1.391 . S
C253 C257 1.376 . S
C254 C252 1.394 . S
C254 C255 1.369 . S
C254 C258 1.531 . S
C255 C254 1.369 . S
C255 C256 1.410 . S
C255 C263 1.503 . S
C256 C255 1.410 . S
C256 C257 1.392 . S
C256 C259 1.511 . S
C257 C253 1.376 . S
C257 C256 1.392 . S
C257 H269 0.929 . S
C258 C254 1.531 . S
C258 H270 0.960 . S
C258 H271 0.962 . S
C258 H272 0.960 . S
C259 C256 1.511 . S
C259 H273 0.961 . S
C259 H274 0.961 . S
C259 H275 0.961 . S
C260 C261 1.370 . S
C260 C262 1.363 . S
C260 H276 0.931 . S
C261 C260 1.370 . S
C261 C265 1.408 . S
C262 C260 1.363 . S
C262 C263 1.370 . S
C262 C266 1.524 . S
C263 C255 1.503 . S
C263 C262 1.370 . S
C263 C264 1.403 . S
C264 C263 1.403 . S
C264 C265 1.404 . S
C264 C267 1.539 . S
C265 C261 1.408 . S
C265 C264 1.404 . S
C265 H277 0.930 . S
C266 C262 1.524 . S
C266 H278 0.956 . S
C266 H279 0.961 . S
C266 H280 0.961 . S
C267 C264 1.539 . S
C267 H281 0.958 . S
C267 H282 0.961 . S
C267 H283 0.960 . S
H268 C252 0.931 . S
H269 C257 0.929 . S
H270 C258 0.960 . S
H271 C258 0.962 . S
H272 C258 0.960 . S
H273 C259 0.961 . S
H274 C259 0.961 . S
H275 C259 0.961 . S
H276 C260 0.931 . S
H277 C265 0.930 . S
H278 C266 0.956 . S
H279 C266 0.961 . S
H280 C266 0.961 . S
H281 C267 0.958 . S
H282 C267 0.961 . S
H283 C267 0.960 . S
C284 C285 1.391 . S
C284 C286 1.394 . S
C284 H300 0.931 . S
C285 C284 1.391 . S
C285 C289 1.376 . S
C286 C284 1.394 . S
C286 C287 1.369 . S
C286 C290 1.531 . S
C287 C286 1.369 . S
C287 C288 1.410 . S
C287 C295 1.503 . S
C288 C287 1.410 . S
C288 C289 1.392 . S
C288 C291 1.511 . S
C289 C285 1.376 . S
C289 C288 1.392 . S
C289 H301 0.929 . S
C290 C286 1.531 . S
C290 H302 0.960 . S
C290 H303 0.962 . S
C290 H304 0.960 . S
C291 C288 1.511 . S
C291 H305 0.961 . S
C291 H306 0.961 . S
C291 H307 0.961 . S
C292 C293 1.370 . S
C292 C294 1.363 . S
C292 H308 0.931 . S
C293 C292 1.370 . S
C293 C297 1.408 . S
C294 C292 1.363 . S
C294 C295 1.370 . S
C294 C298 1.524 . S
C295 C287 1.503 . S
C295 C294 1.370 . S
C295 C296 1.403 . S
C296 C295 1.403 . S
C296 C297 1.404 . S
C296 C299 1.539 . S
C297 C293 1.408 . S
C297 C296 1.404 . S
C297 H309 0.930 . S
C298 C294 1.524 . S
C298 H310 0.956 . S
C298 H311 0.961 . S
C298 H312 0.961 . S
C299 C296 1.539 . S
C299 H313 0.958 . S
C299 H314 0.961 . S
C299 H315 0.960 . S
H300 C284 0.931 . S
H301 C289 0.929 . S
H302 C290 0.960 . S
H303 C290 0.962 . S
H304 C290 0.960 . S
H305 C291 0.961 . S
H306 C291 0.961 . S
H307 C291 0.961 . S
H308 C292 0.931 . S
H309 C297 0.930 . S
H310 C298 0.956 . S
H311 C298 0.961 . S
H312 C298 0.961 . S
H313 C299 0.958 . S
H314 C299 0.961 . S
H315 C299 0.960 . S
C316 C317 1.391 . S
C316 C318 1.394 . S
C316 H332 0.931 . S
C317 C316 1.391 . S
C317 C321 1.376 . S
C318 C316 1.394 . S
C318 C319 1.369 . S
C318 C322 1.531 . S
C319 C318 1.369 . S
C319 C320 1.410 . S
C319 C327 1.503 . S
C320 C319 1.410 . S
C320 C321 1.392 . S
C320 C323 1.511 . S
C321 C317 1.376 . S
C321 C320 1.392 . S
C321 H333 0.929 . S
C322 C318 1.531 . S
C322 H334 0.960 . S
C322 H335 0.962 . S
C322 H336 0.960 . S
C323 C320 1.511 . S
C323 H337 0.961 . S
C323 H338 0.961 . S
C323 H339 0.961 . S
C324 C325 1.370 . S
C324 C326 1.363 . S
C324 H340 0.931 . S
C325 C324 1.370 . S
C325 C329 1.408 . S
C326 C324 1.363 . S
C326 C327 1.370 . S
C326 C330 1.524 . S
C327 C319 1.503 . S
C327 C326 1.370 . S
C327 C328 1.403 . S
C328 C327 1.403 . S
C328 C329 1.404 . S
C328 C331 1.539 . S
C329 C325 1.408 . S
C329 C328 1.404 . S
C329 H341 0.930 . S
C330 C326 1.524 . S
C330 H342 0.956 . S
C330 H343 0.961 . S
C330 H344 0.961 . S
C331 C328 1.539 . S
C331 H345 0.958 . S
C331 H346 0.961 . S
C331 H347 0.960 . S
H332 C316 0.931 . S
H333 C321 0.929 . S
H334 C322 0.960 . S
H335 C322 0.962 . S
H336 C322 0.960 . S
H337 C323 0.961 . S
H338 C323 0.961 . S
H339 C323 0.961 . S
H340 C324 0.931 . S
H341 C329 0.930 . S
H342 C330 0.956 . S
H343 C330 0.961 . S
H344 C330 0.961 . S
H345 C331 0.958 . S
H346 C331 0.961 . S
H347 C331 0.960 . S
C348 C349 1.391 . S
C348 C350 1.394 . S
C348 H364 0.931 . S
C349 C348 1.391 . S
C349 C353 1.376 . S
C350 C348 1.394 . S
C350 C351 1.369 . S
C350 C354 1.531 . S
C351 C350 1.369 . S
C351 C352 1.410 . S
C351 C359 1.503 . S
C352 C351 1.410 . S
C352 C353 1.392 . S
C352 C355 1.511 . S
C353 C349 1.376 . S
C353 C352 1.392 . S
C353 H365 0.929 . S
C354 C350 1.531 . S
C354 H366 0.960 . S
C354 H367 0.962 . S
C354 H368 0.960 . S
C355 C352 1.511 . S
C355 H369 0.961 . S
C355 H370 0.961 . S
C355 H371 0.961 . S
C356 C357 1.370 . S
C356 C358 1.363 . S
C356 H372 0.931 . S
C357 C356 1.370 . S
C357 C361 1.408 . S
C358 C356 1.363 . S
C358 C359 1.370 . S
C358 C362 1.524 . S
C359 C351 1.503 . S
C359 C358 1.370 . S
C359 C360 1.403 . S
C360 C359 1.403 . S
C360 C361 1.404 . S
C360 C363 1.539 . S
C361 C357 1.408 . S
C361 C360 1.404 . S
C361 H373 0.930 . S
C362 C358 1.524 . S
C362 H374 0.956 . S
C362 H375 0.961 . S
C362 H376 0.961 . S
C363 C360 1.539 . S
C363 H377 0.958 . S
C363 H378 0.961 . S
C363 H379 0.960 . S
H364 C348 0.931 . S
H365 C353 0.929 . S
H366 C354 0.960 . S
H367 C354 0.962 . S
H368 C354 0.960 . S
H369 C355 0.961 . S
H370 C355 0.961 . S
H371 C355 0.961 . S
H372 C356 0.931 . S
H373 C361 0.930 . S
H374 C362 0.956 . S
H375 C362 0.961 . S
H376 C362 0.961 . S
H377 C363 0.958 . S
H378 C363 0.961 . S
H379 C363 0.960 . S
C380 C381 1.391 . S
C380 C382 1.394 . S
C380 H396 0.931 . S
C381 C380 1.391 . S
C381 C385 1.376 . S
C382 C380 1.394 . S
C382 C383 1.369 . S
C382 C386 1.531 . S
C383 C382 1.369 . S
C383 C384 1.410 . S
C383 C391 1.503 . S
C384 C383 1.410 . S
C384 C385 1.392 . S
C384 C387 1.511 . S
C385 C381 1.376 . S
C385 C384 1.392 . S
C385 H397 0.929 . S
C386 C382 1.531 . S
C386 H398 0.960 . S
C386 H399 0.962 . S
C386 H400 0.960 . S
C387 C384 1.511 . S
C387 H401 0.961 . S
C387 H402 0.961 . S
C387 H403 0.961 . S
C388 C389 1.370 . S
C388 C390 1.363 . S
C388 H404 0.931 . S
C389 C388 1.370 . S
C389 C393 1.408 . S
C390 C388 1.363 . S
C390 C391 1.370 . S
C390 C394 1.524 . S
C391 C383 1.503 . S
C391 C390 1.370 . S
C391 C392 1.403 . S
C392 C391 1.403 . S
C392 C393 1.404 . S
C392 C395 1.539 . S
C393 C389 1.408 . S
C393 C392 1.404 . S
C393 H405 0.930 . S
C394 C390 1.524 . S
C394 H406 0.956 . S
C394 H407 0.961 . S
C394 H408 0.961 . S
C395 C392 1.539 . S
C395 H409 0.958 . S
C395 H410 0.961 . S
C395 H411 0.960 . S
H396 C380 0.931 . S
H397 C385 0.929 . S
H398 C386 0.960 . S
H399 C386 0.962 . S
H400 C386 0.960 . S
H401 C387 0.961 . S
H402 C387 0.961 . S
H403 C387 0.961 . S
H404 C388 0.931 . S
H405 C393 0.930 . S
H406 C394 0.956 . S
H407 C394 0.961 . S
H408 C394 0.961 . S
H409 C395 0.958 . S
H410 C395 0.961 . S
H411 C395 0.960 . S
C412 C413 1.391 . S
C412 C414 1.394 . S
C412 H428 0.931 . S
C413 C412 1.391 . S
C413 C417 1.376 . S
C414 C412 1.394 . S
C414 C415 1.369 . S
C414 C418 1.531 . S
C415 C414 1.369 . S
C415 C416 1.410 . S
C415 C423 1.503 . S
C416 C415 1.410 . S
C416 C417 1.392 . S
C416 C419 1.511 . S
C417 C413 1.376 . S
C417 C416 1.392 . S
C417 H429 0.929 . S
C418 C414 1.531 . S
C418 H430 0.960 . S
C418 H431 0.962 . S
C418 H432 0.960 . S
C419 C416 1.511 . S
C419 H433 0.961 . S
C419 H434 0.961 . S
C419 H435 0.961 . S
C420 C421 1.370 . S
C420 C422 1.363 . S
C420 H436 0.931 . S
C421 C420 1.370 . S
C421 C425 1.408 . S
C422 C420 1.363 . S
C422 C423 1.370 . S
C422 C426 1.524 . S
C423 C415 1.503 . S
C423 C422 1.370 . S
C423 C424 1.403 . S
C424 C423 1.403 . S
C424 C425 1.404 . S
C424 C427 1.539 . S
C425 C421 1.408 . S
C425 C424 1.404 . S
C425 H437 0.930 . S
C426 C422 1.524 . S
C426 H438 0.956 . S
C426 H439 0.961 . S
C426 H440 0.961 . S
C427 C424 1.539 . S
C427 H441 0.958 . S
C427 H442 0.961 . S
C427 H443 0.960 . S
H428 C412 0.931 . S
H429 C417 0.929 . S
H430 C418 0.960 . S
H431 C418 0.962 . S
H432 C418 0.960 . S
H433 C419 0.961 . S
H434 C419 0.961 . S
H435 C419 0.961 . S
H436 C420 0.931 . S
H437 C425 0.930 . S
H438 C426 0.956 . S
H439 C426 0.961 . S
H440 C426 0.961 . S
H441 C427 0.958 . S
H442 C427 0.961 . S
H443 C427 0.960 . S
C444 C445 1.391 . S
C444 C446 1.394 . S
C444 H460 0.931 . S
C445 C444 1.391 . S
C445 C449 1.376 . S
C446 C444 1.394 . S
C446 C447 1.369 . S
C446 C450 1.531 . S
C447 C446 1.369 . S
C447 C448 1.410 . S
C447 C455 1.503 . S
C448 C447 1.410 . S
C448 C449 1.392 . S
C448 C451 1.511 . S
C449 C445 1.376 . S
C449 C448 1.392 . S
C449 H461 0.929 . S
C450 C446 1.531 . S
C450 H462 0.960 . S
C450 H463 0.962 . S
C450 H464 0.960 . S
C451 C448 1.511 . S
C451 H465 0.961 . S
C451 H466 0.961 . S
C451 H467 0.961 . S
C452 C453 1.370 . S
C452 C454 1.363 . S
C452 H468 0.931 . S
C453 C452 1.370 . S
C453 C457 1.408 . S
C454 C452 1.363 . S
C454 C455 1.370 . S
C454 C458 1.524 . S
C455 C447 1.503 . S
C455 C454 1.370 . S
C455 C456 1.403 . S
C456 C455 1.403 . S
C456 C457 1.404 . S
C456 C459 1.539 . S
C457 C453 1.408 . S
C457 C456 1.404 . S
C457 H469 0.930 . S
C458 C454 1.524 . S
C458 H470 0.956 . S
C458 H471 0.961 . S
C458 H472 0.961 . S
C459 C456 1.539 . S
C459 H473 0.958 . S
C459 H474 0.961 . S
C459 H475 0.960 . S
H460 C444 0.931 . S
H461 C449 0.929 . S
H462 C450 0.960 . S
H463 C450 0.962 . S
H464 C450 0.960 . S
H465 C451 0.961 . S
H466 C451 0.961 . S
H467 C451 0.961 . S
H468 C452 0.931 . S
H469 C457 0.930 . S
H470 C458 0.956 . S
H471 C458 0.961 . S
H472 C458 0.961 . S
H473 C459 0.958 . S
H474 C459 0.961 . S
H475 C459 0.960 . S
C476 C477 1.391 . S
C476 C478 1.394 . S
C476 H492 0.931 . S
C477 C476 1.391 . S
C477 C481 1.376 . S
C478 C476 1.394 . S
C478 C479 1.369 . S
C478 C482 1.531 . S
C479 C478 1.369 . S
C479 C480 1.410 . S
C479 C487 1.503 . S
C480 C479 1.410 . S
C480 C481 1.392 . S
C480 C483 1.511 . S
C481 C477 1.376 . S
C481 C480 1.392 . S
C481 H493 0.929 . S
C482 C478 1.531 . S
C482 H494 0.960 . S
C482 H495 0.962 . S
C482 H496 0.960 . S
C483 C480 1.511 . S
C483 H497 0.961 . S
C483 H498 0.961 . S
C483 H499 0.961 . S
C484 C485 1.370 . S
C484 C486 1.363 . S
C484 H500 0.931 . S
C485 C484 1.370 . S
C485 C489 1.408 . S
C486 C484 1.363 . S
C486 C487 1.370 . S
C486 C490 1.524 . S
C487 C479 1.503 . S
C487 C486 1.370 . S
C487 C488 1.403 . S
C488 C487 1.403 . S
C488 C489 1.404 . S
C488 C491 1.539 . S
C489 C485 1.408 . S
C489 C488 1.404 . S
C489 H501 0.930 . S
C490 C486 1.524 . S
C490 H502 0.956 . S
C490 H503 0.961 . S
C490 H504 0.961 . S
C491 C488 1.539 . S
C491 H505 0.958 . S
C491 H506 0.961 . S
C491 H507 0.960 . S
H492 C476 0.931 . S
H493 C481 0.929 . S
H494 C482 0.960 . S
H495 C482 0.962 . S
H496 C482 0.960 . S
H497 C483 0.961 . S
H498 C483 0.961 . S
H499 C483 0.961 . S
H500 C484 0.931 . S
H501 C489 0.930 . S
H502 C490 0.956 . S
H503 C490 0.961 . S
H504 C490 0.961 . S
H505 C491 0.958 . S
H506 C491 0.961 . S
H507 C491 0.960 . S
C508 C509 1.391 . S
C508 C510 1.394 . S
C508 H524 0.931 . S
C509 C508 1.391 . S
C509 C513 1.376 . S
C510 C508 1.394 . S
C510 C511 1.369 . S
C510 C514 1.531 . S
C511 C510 1.369 . S
C511 C512 1.410 . S
C511 C519 1.503 . S
C512 C511 1.410 . S
C512 C513 1.392 . S
C512 C515 1.511 . S
C513 C509 1.376 . S
C513 C512 1.392 . S
C513 H525 0.929 . S
C514 C510 1.531 . S
C514 H526 0.960 . S
C514 H527 0.962 . S
C514 H528 0.960 . S
C515 C512 1.511 . S
C515 H529 0.961 . S
C515 H530 0.961 . S
C515 H531 0.961 . S
C516 C517 1.370 . S
C516 C518 1.363 . S
C516 H532 0.931 . S
C517 C516 1.370 . S
C517 C521 1.408 . S
C518 C516 1.363 . S
C518 C519 1.370 . S
C518 C522 1.524 . S
C519 C511 1.503 . S
C519 C518 1.370 . S
C519 C520 1.403 . S
C520 C519 1.403 . S
C520 C521 1.404 . S
C520 C523 1.539 . S
C521 C517 1.408 . S
C521 C520 1.404 . S
C521 H533 0.930 . S
C522 C518 1.524 . S
C522 H534 0.956 . S
C522 H535 0.961 . S
C522 H536 0.961 . S
C523 C520 1.539 . S
C523 H537 0.958 . S
C523 H538 0.961 . S
C523 H539 0.960 . S
H524 C508 0.931 . S
H525 C513 0.929 . S
H526 C514 0.960 . S
H527 C514 0.962 . S
H528 C514 0.960 . S
H529 C515 0.961 . S
H530 C515 0.961 . S
H531 C515 0.961 . S
H532 C516 0.931 . S
H533 C521 0.930 . S
H534 C522 0.956 . S
H535 C522 0.961 . S
H536 C522 0.961 . S
H537 C523 0.958 . S
H538 C523 0.961 . S
H539 C523 0.960 . S
C540 C541 1.391 1_655 S
C540 C542 1.394 . S
C540 H556 0.931 . S
C541 C540 1.391 1_455 S
C541 C545 1.376 . S
C542 C540 1.394 . S
C542 C543 1.369 1_655 S
C542 C546 1.531 . S
C543 C542 1.369 1_455 S
C543 C544 1.410 . S
C543 C551 1.503 . S
C544 C543 1.410 . S
C544 C545 1.392 . S
C544 C547 1.511 . S
C545 C541 1.376 . S
C545 C544 1.392 . S
C545 H557 0.929 . S
C546 C542 1.531 . S
C546 H558 0.960 . S
C546 H559 0.962 . S
C546 H560 0.960 . S
C547 C544 1.511 . S
C547 H561 0.961 . S
C547 H562 0.961 . S
C547 H563 0.961 . S
C548 C549 1.370 1_655 S
C548 C550 1.363 . S
C548 H564 0.931 . S
C549 C548 1.370 1_455 S
C549 C553 1.408 . S
C550 C548 1.363 . S
C550 C551 1.370 1_655 S
C550 C554 1.524 . S
C551 C543 1.503 . S
C551 C550 1.370 1_455 S
C551 C552 1.403 . S
C552 C551 1.403 . S
C552 C553 1.404 . S
C552 C555 1.539 . S
C553 C549 1.408 . S
C553 C552 1.404 . S
C553 H565 0.930 . S
C554 C550 1.524 . S
C554 H566 0.956 . S
C554 H567 0.961 . S
C554 H568 0.961 . S
C555 C552 1.539 . S
C555 H569 0.958 . S
C555 H570 0.961 . S
C555 H571 0.960 . S
H556 C540 0.931 . S
H557 C545 0.929 . S
H558 C546 0.960 . S
H559 C546 0.962 . S
H560 C546 0.960 . S
H561 C547 0.961 . S
H562 C547 0.961 . S
H563 C547 0.961 . S
H564 C548 0.931 . S
H565 C553 0.930 . S
H566 C554 0.956 . S
H567 C554 0.961 . S
H568 C554 0.961 . S
H569 C555 0.958 . S
H570 C555 0.961 . S
H571 C555 0.960 . S
C572 C573 1.391 . S
C572 C574 1.394 . S
C572 H588 0.931 . S
C573 C572 1.391 . S
C573 C577 1.376 . S
C574 C572 1.394 . S
C574 C575 1.369 . S
C574 C578 1.531 . S
C575 C574 1.369 . S
C575 C576 1.410 . S
C575 C583 1.503 . S
C576 C575 1.410 . S
C576 C577 1.392 . S
C576 C579 1.511 . S
C577 C573 1.376 . S
C577 C576 1.392 . S
C577 H589 0.929 . S
C578 C574 1.531 . S
C578 H590 0.960 . S
C578 H591 0.962 1_545 S
C578 H592 0.960 . S
C579 C576 1.511 . S
C579 H593 0.961 . S
C579 H594 0.961 . S
C579 H595 0.961 . S
C580 C581 1.370 . S
C580 C582 1.363 . S
C580 H596 0.931 . S
C581 C580 1.370 . S
C581 C585 1.408 1_565 S
C582 C580 1.363 . S
C582 C583 1.370 1_565 S
C582 C586 1.524 . S
C583 C575 1.503 . S
C583 C582 1.370 1_545 S
C583 C584 1.403 . S
C584 C583 1.403 . S
C584 C585 1.404 . S
C584 C587 1.539 . S
C585 C581 1.408 1_545 S
C585 C584 1.404 . S
C585 H597 0.930 . S
C586 C582 1.524 . S
C586 H598 0.956 . S
C586 H599 0.961 . S
C586 H600 0.961 . S
C587 C584 1.539 . S
C587 H601 0.958 . S
C587 H602 0.961 . S
C587 H603 0.960 . S
H588 C572 0.931 . S
H589 C577 0.929 . S
H590 C578 0.960 . S
H591 C578 0.962 1_565 S
H592 C578 0.960 . S
H593 C579 0.961 . S
H594 C579 0.961 . S
H595 C579 0.961 . S
H596 C580 0.931 . S
H597 C585 0.930 . S
H598 C586 0.956 . S
H599 C586 0.961 . S
H600 C586 0.961 . S
H601 C587 0.958 . S
H602 C587 0.961 . S
H603 C587 0.960 . S
C604 C605 1.391 . S
C604 C606 1.394 . S
C604 H620 0.931 . S
C605 C604 1.391 . S
C605 C609 1.376 1_655 S
C606 C604 1.394 . S
C606 C607 1.369 . S
C606 C610 1.531 . S
C607 C606 1.369 . S
C607 C608 1.410 1_655 S
C607 C615 1.503 . S
C608 C607 1.410 1_455 S
C608 C609 1.392 . S
C608 C611 1.511 . S
C609 C605 1.376 1_455 S
C609 C608 1.392 . S
C609 H621 0.929 . S
C610 C606 1.531 . S
C610 H622 0.960 . S
C610 H623 0.962 . S
C610 H624 0.960 . S
C611 C608 1.511 . S
C611 H625 0.961 . S
C611 H626 0.961 . S
C611 H627 0.961 . S
C612 C613 1.370 . S
C612 C614 1.363 . S
C612 H628 0.931 . S
C613 C612 1.370 . S
C613 C617 1.408 1_655 S
C614 C612 1.363 . S
C614 C615 1.370 . S
C614 C618 1.524 . S
C615 C607 1.503 . S
C615 C614 1.370 . S
C615 C616 1.403 1_655 S
C616 C615 1.403 1_455 S
C616 C617 1.404 . S
C616 C619 1.539 . S
C617 C613 1.408 1_455 S
C617 C616 1.404 . S
C617 H629 0.930 . S
C618 C614 1.524 . S
C618 H630 0.956 . S
C618 H631 0.961 . S
C618 H632 0.961 . S
C619 C616 1.539 . S
C619 H633 0.958 . S
C619 H634 0.961 . S
C619 H635 0.960 . S
H620 C604 0.931 . S
H621 C609 0.929 . S
H622 C610 0.960 . S
H623 C610 0.962 . S
H624 C610 0.960 . S
H625 C611 0.961 . S
H626 C611 0.961 . S
H627 C611 0.961 . S
H628 C612 0.931 . S
H629 C617 0.930 . S
H630 C618 0.956 . S
H631 C618 0.961 . S
H632 C618 0.961 . S
H633 C619 0.958 . S
H634 C619 0.961 . S
H635 C619 0.960 . S
C636 C637 1.391 . S
C636 C638 1.394 . S
C636 H652 0.931 . S
C637 C636 1.391 . S
C637 C641 1.376 . S
C638 C636 1.394 . S
C638 C639 1.369 . S
C638 C642 1.531 . S
C639 C638 1.369 . S
C639 C640 1.410 . S
C639 C647 1.503 . S
C640 C639 1.410 . S
C640 C641 1.392 . S
C640 C643 1.511 . S
C641 C637 1.376 . S
C641 C640 1.392 . S
C641 H653 0.929 . S
C642 C638 1.531 . S
C642 H654 0.960 . S
C642 H655 0.962 1_565 S
C642 H656 0.960 . S
C643 C640 1.511 . S
C643 H657 0.961 1_565 S
C643 H658 0.961 1_565 S
C643 H659 0.961 . S
C644 C645 1.370 1_545 S
C644 C646 1.363 . S
C644 H660 0.931 . S
C645 C644 1.370 1_565 S
C645 C649 1.408 . S
C646 C644 1.363 . S
C646 C647 1.370 1_545 S
C646 C650 1.524 . S
C647 C639 1.503 . S
C647 C646 1.370 1_565 S
C647 C648 1.403 . S
C648 C647 1.403 . S
C648 C649 1.404 . S
C648 C651 1.539 . S
C649 C645 1.408 . S
C649 C648 1.404 . S
C649 H661 0.930 . S
C650 C646 1.524 . S
C650 H662 0.956 . S
C650 H663 0.961 . S
C650 H664 0.961 . S
C651 C648 1.539 . S
C651 H665 0.958 . S
C651 H666 0.961 . S
C651 H667 0.960 . S
H652 C636 0.931 . S
H653 C641 0.929 . S
H654 C642 0.960 . S
H655 C642 0.962 1_545 S
H656 C642 0.960 . S
H657 C643 0.961 1_545 S
H658 C643 0.961 1_545 S
H659 C643 0.961 . S
H660 C644 0.931 . S
H661 C649 0.930 . S
H662 C650 0.956 . S
H663 C650 0.961 . S
H664 C650 0.961 . S
H665 C651 0.958 . S
H666 C651 0.961 . S
H667 C651 0.960 . S
C668 C669 1.391 . S
C668 C670 1.394 . S
C668 H684 0.931 1_545 S
C669 C668 1.391 . S
C669 C673 1.376 . S
C670 C668 1.394 . S
C670 C671 1.369 . S
C670 C674 1.531 1_545 S
C671 C670 1.369 . S
C671 C672 1.410 . S
C671 C679 1.503 . S
C672 C671 1.410 . S
C672 C673 1.392 . S
C672 C675 1.511 . S
C673 C669 1.376 . S
C673 C672 1.392 . S
C673 H685 0.929 . S
C674 C670 1.531 1_565 S
C674 H686 0.960 . S
C674 H687 0.962 . S
C674 H688 0.960 . S
C675 C672 1.511 . S
C675 H689 0.961 . S
C675 H690 0.961 . S
C675 H691 0.961 . S
C676 C677 1.370 1_565 S
C676 C678 1.363 . S
C676 H692 0.931 . S
C677 C676 1.370 1_545 S
C677 C681 1.408 . S
C678 C676 1.363 . S
C678 C679 1.370 1_565 S
C678 C682 1.524 . S
C679 C671 1.503 . S
C679 C678 1.370 1_545 S
C679 C680 1.403 . S
C680 C679 1.403 . S
C680 C681 1.404 . S
C680 C683 1.539 . S
C681 C677 1.408 . S
C681 C680 1.404 . S
C681 H693 0.930 . S
C682 C678 1.524 . S
C682 H694 0.956 . S
C682 H695 0.961 . S
C682 H696 0.961 . S
C683 C680 1.539 . S
C683 H697 0.958 . S
C683 H698 0.961 . S
C683 H699 0.960 . S
H684 C668 0.931 1_565 S
H685 C673 0.929 . S
H686 C674 0.960 . S
H687 C674 0.962 . S
H688 C674 0.960 . S
H689 C675 0.961 . S
H690 C675 0.961 . S
H691 C675 0.961 . S
H692 C676 0.931 . S
H693 C681 0.930 . S
H694 C682 0.956 . S
H695 C682 0.961 . S
H696 C682 0.961 . S
H697 C683 0.958 . S
H698 C683 0.961 . S
H699 C683 0.960 . S
C700 C701 1.391 1_455 S
C700 C702 1.394 . S
C700 H716 0.931 . S
C701 C700 1.391 1_655 S
C701 C705 1.376 . S
C702 C700 1.394 . S
C702 C703 1.370 1_455 S
C702 C706 1.531 . S
C703 C702 1.370 1_655 S
C703 C704 1.408 . S
C703 C711 1.503 . S
C704 C703 1.408 . S
C704 C705 1.392 . S
C704 C707 1.511 . S
C705 C701 1.376 . S
C705 C704 1.392 . S
C705 H717 0.929 . S
C706 C702 1.531 . S
C706 H718 0.960 . S
C706 H719 0.962 . S
C706 H720 0.960 . S
C707 C704 1.511 . S
C707 H721 0.961 . S
C707 H722 0.961 . S
C707 H723 0.961 . S
C708 C709 1.370 . S
C708 C710 1.363 . S
C708 H724 0.931 . S
C709 C708 1.370 . S
C709 C713 1.408 1_655 S
C710 C708 1.363 . S
C710 C711 1.380 . S
C710 C714 1.524 . S
C711 C703 1.503 . S
C711 C710 1.380 . S
C711 C712 1.394 1_655 S
C712 C711 1.394 1_455 S
C712 C713 1.404 . S
C712 C715 1.539 . S
C713 C709 1.408 1_455 S
C713 C712 1.404 . S
C713 H725 0.930 . S
C714 C710 1.524 . S
C714 H726 0.956 . S
C714 H727 0.961 . S
C714 H728 0.961 . S
C715 C712 1.539 . S
C715 H729 0.958 . S
C715 H730 0.961 . S
C715 H731 0.960 . S
H716 C700 0.931 . S
H717 C705 0.929 . S
H718 C706 0.960 . S
H719 C706 0.962 . S
H720 C706 0.960 . S
H721 C707 0.961 . S
H722 C707 0.961 . S
H723 C707 0.961 . S
H724 C708 0.931 . S
H725 C713 0.930 . S
H726 C714 0.956 . S
H727 C714 0.961 . S
H728 C714 0.961 . S
H729 C715 0.958 . S
H730 C715 0.961 . S
H731 C715 0.960 . S
C732 C733 1.391 1_545 S
C732 C734 1.394 . S
C732 H748 0.931 . S
C733 C732 1.391 1_565 S
C733 C737 1.376 . S
C734 C732 1.394 . S
C734 C735 1.369 1_545 S
C734 C738 1.531 . S
C735 C734 1.369 1_565 S
C735 C736 1.410 . S
C735 C743 1.503 . S
C736 C735 1.410 . S
C736 C737 1.392 . S
C736 C739 1.511 . S
C737 C733 1.376 . S
C737 C736 1.392 . S
C737 H749 0.929 . S
C738 C734 1.531 . S
C738 H750 0.960 . S
C738 H751 0.962 . S
C738 H752 0.960 . S
C739 C736 1.511 . S
C739 H753 0.961 . S
C739 H754 0.961 . S
C739 H755 0.961 . S
C740 C741 1.368 1_545 S
C740 C742 1.363 1_545 S
C740 H756 0.933 . S
C741 C740 1.368 1_565 S
C741 C745 1.408 . S
C742 C740 1.363 1_565 S
C742 C743 1.370 . S
C742 C746 1.524 1_565 S
C743 C735 1.503 . S
C743 C742 1.370 . S
C743 C744 1.403 . S
C744 C743 1.403 . S
C744 C745 1.404 . S
C744 C747 1.539 . S
C745 C741 1.408 . S
C745 C744 1.404 . S
C745 H757 0.930 . S
C746 C742 1.524 1_545 S
C746 H758 0.956 . S
C746 H759 0.961 1_545 S
C746 H760 0.961 . S
C747 C744 1.539 . S
C747 H761 0.958 . S
C747 H762 0.961 . S
C747 H763 0.960 . S
H748 C732 0.931 . S
H749 C737 0.929 . S
H750 C738 0.960 . S
H751 C738 0.962 . S
H752 C738 0.960 . S
H753 C739 0.961 . S
H754 C739 0.961 . S
H755 C739 0.961 . S
H756 C740 0.933 . S
H757 C745 0.930 . S
H758 C746 0.956 . S
H759 C746 0.961 1_565 S
H760 C746 0.961 . S
H761 C747 0.958 . S
H762 C747 0.961 . S
H763 C747 0.960 . S
C764 C765 1.391 . S
C764 C766 1.394 . S
C764 H780 0.931 . S
C765 C764 1.391 . S
C765 C769 1.376 1_655 S
C766 C764 1.394 . S
C766 C767 1.369 . S
C766 C770 1.531 . S
C767 C766 1.369 . S
C767 C768 1.410 1_655 S
C767 C775 1.503 . S
C768 C767 1.410 1_455 S
C768 C769 1.392 . S
C768 C771 1.511 . S
C769 C765 1.376 1_455 S
C769 C768 1.392 . S
C769 H781 0.929 . S
C770 C766 1.531 . S
C770 H782 0.960 . S
C770 H783 0.962 . S
C770 H784 0.960 . S
C771 C768 1.511 . S
C771 H785 0.961 . S
C771 H786 0.961 . S
C771 H787 0.961 . S
C772 C773 1.370 1_655 S
C772 C774 1.363 . S
C772 H788 0.931 . S
C773 C772 1.370 1_455 S
C773 C777 1.408 . S
C774 C772 1.363 . S
C774 C775 1.370 . S
C774 C778 1.524 . S
C775 C767 1.503 . S
C775 C774 1.370 . S
C775 C776 1.403 1_655 S
C776 C775 1.403 1_455 S
C776 C777 1.404 . S
C776 C779 1.539 . S
C777 C773 1.408 . S
C777 C776 1.404 . S
C777 H789 0.930 . S
C778 C774 1.524 . S
C778 H790 0.956 . S
C778 H791 0.961 1_655 S
C778 H792 0.961 . S
C779 C776 1.539 . S
C779 H793 0.958 1_455 S
C779 H794 0.961 . S
C779 H795 0.960 . S
H780 C764 0.931 . S
H781 C769 0.929 . S
H782 C770 0.960 . S
H783 C770 0.962 . S
H784 C770 0.960 . S
H785 C771 0.961 . S
H786 C771 0.961 . S
H787 C771 0.961 . S
H788 C772 0.931 . S
H789 C777 0.930 . S
H790 C778 0.956 . S
H791 C778 0.961 1_455 S
H792 C778 0.961 . S
H793 C779 0.958 1_655 S
H794 C779 0.961 . S
H795 C779 0.960 . S
C796 C797 1.391 . S
C796 C798 1.394 . S
C796 H812 0.931 . S
C797 C796 1.391 . S
C797 C801 1.376 1_554 S
C798 C796 1.394 . S
C798 C799 1.369 . S
C798 C802 1.531 . S
C799 C798 1.369 . S
C799 C800 1.410 1_554 S
C799 C807 1.503 . S
C800 C799 1.410 1_556 S
C800 C801 1.392 . S
C800 C803 1.511 . S
C801 C797 1.376 1_556 S
C801 C800 1.392 . S
C801 H813 0.929 . S
C802 C798 1.531 . S
C802 H814 0.960 . S
C802 H815 0.962 . S
C802 H816 0.960 . S
C803 C800 1.511 . S
C803 H817 0.961 . S
C803 H818 0.961 . S
C803 H819 0.961 . S
C804 C805 1.370 . S
C804 C806 1.363 . S
C804 H820 0.931 . S
C805 C804 1.370 . S
C805 C809 1.408 1_556 S
C806 C804 1.363 . S
C806 C807 1.373 1_556 S
C806 C810 1.524 . S
C807 C799 1.503 . S
C807 C806 1.373 1_554 S
C807 C808 1.400 . S
C808 C807 1.400 . S
C808 C809 1.404 . S
C808 C811 1.539 . S
C809 C805 1.408 1_554 S
C809 C808 1.404 . S
C809 H821 0.930 . S
C810 C806 1.524 . S
C810 H822 0.956 . S
C810 H823 0.961 . S
C810 H824 0.961 . S
C811 C808 1.539 . S
C811 H825 0.958 . S
C811 H826 0.961 . S
C811 H827 0.960 . S
H812 C796 0.931 . S
H813 C801 0.929 . S
H814 C802 0.960 . S
H815 C802 0.962 . S
H816 C802 0.960 . S
H817 C803 0.961 . S
H818 C803 0.961 . S
H819 C803 0.961 . S
H820 C804 0.931 . S
H821 C809 0.930 . S
H822 C810 0.956 . S
H823 C810 0.961 . S
H824 C810 0.961 . S
H825 C811 0.958 . S
H826 C811 0.961 . S
H827 C811 0.960 . S
C828 C829 1.391 1_554 S
C828 C830 1.394 . S
C828 H844 0.931 . S
C829 C828 1.391 1_556 S
C829 C833 1.376 . S
C830 C828 1.394 . S
C830 C831 1.369 . S
C830 C834 1.531 . S
C831 C830 1.369 . S
C831 C832 1.410 1_554 S
C831 C839 1.504 . S
C832 C831 1.410 1_556 S
C832 C833 1.392 . S
C832 C835 1.511 . S
C833 C829 1.376 . S
C833 C832 1.392 . S
C833 H845 0.929 . S
C834 C830 1.531 . S
C834 H846 0.960 . S
C834 H847 0.962 1_554 S
C834 H848 0.960 . S
C835 C832 1.511 . S
C835 H849 0.961 . S
C835 H850 0.961 . S
C835 H851 0.961 1_556 S
C836 C837 1.370 . S
C836 C838 1.363 . S
C836 H852 0.931 . S
C837 C836 1.370 . S
C837 C841 1.408 1_556 S
C838 C836 1.363 . S
C838 C839 1.353 1_556 S
C838 C842 1.524 . S
C839 C831 1.504 . S
C839 C838 1.353 1_554 S
C839 C840 1.420 . S
C840 C839 1.420 . S
C840 C841 1.404 . S
C840 C843 1.539 . S
C841 C837 1.408 1_554 S
C841 C840 1.404 . S
C841 H853 0.930 . S
C842 C838 1.524 . S
C842 H854 0.956 . S
C842 H855 0.961 . S
C842 H856 0.961 . S
C843 C840 1.539 . S
C843 H857 0.958 . S
C843 H858 0.961 . S
C843 H859 0.960 . S
H844 C828 0.931 . S
H845 C833 0.929 . S
H846 C834 0.960 . S
H847 C834 0.962 1_556 S
H848 C834 0.960 . S
H849 C835 0.961 . S
H850 C835 0.961 . S
H851 C835 0.961 1_554 S
H852 C836 0.931 . S
H853 C841 0.930 . S
H854 C842 0.956 . S
H855 C842 0.961 . S
H856 C842 0.961 . S
H857 C843 0.958 . S
H858 C843 0.961 . S
H859 C843 0.960 . S
C860 C861 1.391 . S
C860 C862 1.394 . S
C860 H876 0.931 . S
C861 C860 1.391 . S
C861 C865 1.382 . S
C862 C860 1.394 . S
C862 C863 1.369 . S
C862 C866 1.531 . S
C863 C862 1.369 . S
C863 C864 1.410 . S
C863 C871 1.503 . S
C864 C863 1.410 . S
C864 C865 1.394 . S
C864 C867 1.511 1_556 S
C865 C861 1.382 . S
C865 C864 1.394 . S
C865 H877 0.922 1_556 S
C866 C862 1.531 . S
C866 H878 0.960 . S
C866 H879 0.962 . S
C866 H880 0.960 . S
C867 C864 1.511 1_554 S
C867 H881 0.961 . S
C867 H882 0.961 . S
C867 H883 0.961 1_554 S
C868 C869 1.370 1_554 S
C868 C870 1.363 . S
C868 H884 0.931 . S
C869 C868 1.370 1_556 S
C869 C873 1.408 . S
C870 C868 1.363 . S
C870 C871 1.370 1_554 S
C870 C874 1.524 . S
C871 C863 1.503 . S
C871 C870 1.370 1_556 S
C871 C872 1.403 . S
C872 C871 1.403 . S
C872 C873 1.404 . S
C872 C875 1.539 . S
C873 C869 1.408 . S
C873 C872 1.404 . S
C873 H885 0.930 . S
C874 C870 1.524 . S
C874 H886 0.956 . S
C874 H887 0.961 . S
C874 H888 0.961 . S
C875 C872 1.539 . S
C875 H889 0.958 . S
C875 H890 0.961 . S
C875 H891 0.960 . S
H876 C860 0.931 . S
H877 C865 0.922 1_554 S
H878 C866 0.960 . S
H879 C866 0.962 . S
H880 C866 0.960 . S
H881 C867 0.961 . S
H882 C867 0.961 . S
H883 C867 0.961 1_556 S
H884 C868 0.931 . S
H885 C873 0.930 . S
H886 C874 0.956 . S
H887 C874 0.961 . S
H888 C874 0.961 . S
H889 C875 0.958 . S
H890 C875 0.961 . S
H891 C875 0.960 . S
C892 C893 1.410 . S
C892 C894 1.394 . S
C892 H908 0.931 . S
C893 C892 1.410 . S
C893 C897 1.354 1_554 S
C894 C892 1.394 . S
C894 C895 1.369 1_554 S
C894 C898 1.531 . S
C895 C894 1.369 1_556 S
C895 C896 1.410 . S
C895 C903 1.503 . S
C896 C895 1.410 . S
C896 C897 1.392 . S
C896 C899 1.511 . S
C897 C893 1.354 1_556 S
C897 C896 1.392 . S
C897 H909 0.929 . S
C898 C894 1.531 . S
C898 H910 0.960 . S
C898 H911 0.962 . S
C898 H912 0.960 . S
C899 C896 1.511 . S
C899 H913 0.961 . S
C899 H914 0.961 . S
C899 H915 0.961 . S
C900 C901 1.370 1_554 S
C900 C902 1.363 . S
C900 H916 0.931 . S
C901 C900 1.370 1_556 S
C901 C905 1.408 . S
C902 C900 1.363 . S
C902 C903 1.370 1_554 S
C902 C906 1.524 . S
C903 C895 1.503 . S
C903 C902 1.370 1_556 S
C903 C904 1.403 . S
C904 C903 1.403 . S
C904 C905 1.404 . S
C904 C907 1.539 . S
C905 C901 1.408 . S
C905 C904 1.404 . S
C905 H917 0.930 . S
C906 C902 1.524 . S
C906 H918 0.956 . S
C906 H919 0.961 . S
C906 H920 0.961 . S
C907 C904 1.539 . S
C907 H921 0.958 . S
C907 H922 0.961 . S
C907 H923 0.960 . S
H908 C892 0.931 . S
H909 C897 0.929 . S
H910 C898 0.960 . S
H911 C898 0.962 . S
H912 C898 0.960 . S
H913 C899 0.961 . S
H914 C899 0.961 . S
H915 C899 0.961 . S
H916 C900 0.931 . S
H917 C905 0.930 . S
H918 C906 0.956 . S
H919 C906 0.961 . S
H920 C906 0.961 . S
H921 C907 0.958 . S
H922 C907 0.961 . S
H923 C907 0.960 . S
C157 C1 0.989 . S
C165 C96 0.999 . S
C189 C18 1.367 . S
C197 C55 1.375 . S
C221 C66 1.047 . S
C229 C27 1.061 . S
C253 C81 1.400 . S
C261 C49 1.403 . S
C285 C114 1.043 . S
C293 C92 1.033 . S
C317 C118 1.260 . S
C325 C62 1.252 . S
C349 C140 1.372 . S
C357 C70 1.325 . S
C381 C144 1.200 . S
C389 C88 1.197 . S
C413 C14 1.023 . S
C421 C122 1.026 . S
C445 C133 1.212 . S
C453 C31 1.213 . S
C477 C42 1.381 . S
C485 C148 1.394 . S
C509 C107 1.227 . S
C517 C5 1.224 . S
C541 C83 1.705 1_455 S
C549 C10 1.691 . S
C573 C94 1.650 . S
C581 C16 1.666 . S
C605 C57 1.696 . S
C613 C36 1.721 . S
C637 C40 1.762 . S
C645 C75 1.665 . S
C669 C101 1.759 . S
C677 C68 1.710 1_545 S
C701 C53 1.638 1_655 S
C709 C79 1.650 . S
C733 C44 1.632 . S
C741 C23 1.619 . S
C765 C29 1.746 . S
C773 C3 1.752 . S
C797 C109 1.862 . S
C805 C127 1.872 . S
C829 C120 1.712 . S
C837 C131 1.688 1_556 S
C861 C153 1.506 . S
C869 C135 1.535 1_556 S
C893 C105 1.703 . S
C901 C146 1.693 . S
