# Generated by pormake.
# Topology rob, (6)-cn, num edge types: 1
# Building blocks:
#     Node 0, Type 0, BuildingBlock: FUNLAD_clean_sbu_0, # of connection points: 6
#     Node 1, Type 0, BuildingBlock: FUNLAD_clean_sbu_0, # of connection points: 6
#     Node 2, Type 0, BuildingBlock: FUNLAD_clean_sbu_0, # of connection points: 6
#     Node 3, Type 0, BuildingBlock: FUNLAD_clean_sbu_0, # of connection points: 6
#     Edge 4, Type (0, 0), BuildingBlock: TEMPAE_clean_linker_10, # of connection points: 2
#     Edge 5, Type (0, 0), BuildingBlock: TEMPAE_clean_linker_10, # of connection points: 2
#     Edge 6, Type (0, 0), BuildingBlock: TEMPAE_clean_linker_10, # of connection points: 2
#     Edge 7, Type (0, 0), BuildingBlock: TEMPAE_clean_linker_10, # of connection points: 2
#     Edge 8, Type (0, 0), BuildingBlock: TEMPAE_clean_linker_10, # of connection points: 2
#     Edge 9, Type (0, 0), BuildingBlock: TEMPAE_clean_linker_10, # of connection points: 2
#     Edge 10, Type (0, 0), BuildingBlock: TEMPAE_clean_linker_10, # of connection points: 2
#     Edge 11, Type (0, 0), BuildingBlock: TEMPAE_clean_linker_10, # of connection points: 2
#     Edge 12, Type (0, 0), BuildingBlock: TEMPAE_clean_linker_10, # of connection points: 2
#     Edge 13, Type (0, 0), BuildingBlock: TEMPAE_clean_linker_10, # of connection points: 2
#     Edge 14, Type (0, 0), BuildingBlock: TEMPAE_clean_linker_10, # of connection points: 2
#     Edge 15, Type (0, 0), BuildingBlock: TEMPAE_clean_linker_10, # of connection points: 2
# Relax obj value: 0.138
# Max RMSD: 0.158
# Mean RMSD: 0.158
data_MOF--net-rob--node1-FUNLAD_clean_sbu_0--edge1-TEMPAE_clean_linker_10
_symmetry_space_group_name_H-M    P1
_symmetry_Int_Tables_number       1
_symmetry_cell_setting            triclinic
loop_
_symmetry_equiv_pos_as_xyz
'x, y, z'
_cell_length_a     15.991101
_cell_length_b     40.972793
_cell_length_c     23.51578
_cell_angle_alpha  92.020374
_cell_angle_beta   90.006724
_cell_angle_gamma 89.989787
loop_
_atom_site_label
_atom_site_type_symbol
_atom_site_fract_x
_atom_site_fract_y
_atom_site_fract_z
_atom_type_partial_charge
C0 C 0.2977 0.25341 0.8804 0.0
N1 N 0.32517 0.33632 0.98811 0.0
C2 C 0.40236 0.34146 0.96576 0.0
C3 C 0.43561 0.37299 0.96514 0.0
C4 C 0.38887 0.39949 0.98757 0.0
C5 C 0.30926 0.39343 0.0101 0.0
C6 C 0.27856 0.36154 0.01 0.0
Zn7 Zn 0.27788 0.28997 0.99022 0.0
C8 C 0.09982 0.28714 0.95399 0.0
N9 N 0.17731 0.19339 -0.00513 0.0
C10 C 0.22382 0.16815 0.97291 0.0
C11 C 0.10022 0.18826 0.01738 0.0
C12 C 0.06697 0.15673 0.01811 0.0
C13 C 0.11361 0.13023 -0.00438 0.0
C14 C 0.19311 0.13627 0.9729 0.0
Zn15 Zn 0.22462 0.23972 -0.00726 0.0
O16 O 0.31403 0.28063 0.90547 0.0
C17 C 0.40269 0.24253 0.02895 0.0
O18 O 0.26042 0.23128 0.9071 0.0
H19 H 0.06434 0.20865 0.03473 0.0
H20 H 0.43832 0.32108 0.94847 0.0
H21 H 0.28479 0.17278 0.955 0.0
O22 O 0.39332 0.27247 0.01824 0.0
O23 O 0.34173 0.22295 0.02155 0.0
H24 H 0.21752 0.35691 0.02779 0.0
O25 O 0.18857 0.24903 0.07744 0.0
O26 O 0.24187 0.29844 0.0759 0.0
O27 O 0.10918 0.25722 0.96485 0.0
O28 O 0.16079 0.30674 0.96126 0.0
C29 C 0.20463 0.27627 0.10253 0.0
H30 H 0.49689 0.37662 0.9468 0.0
H31 H 0.27157 0.41307 0.02847 0.0
H32 H 0.00579 0.15312 0.0366 0.0
H33 H 0.23072 0.11662 0.95447 0.0
C34 C 0.79691 0.75396 0.88107 0.0
N35 N 0.82338 0.83663 0.98945 0.0
C36 C 0.89892 0.84234 0.96508 0.0
C37 C 0.93118 0.87403 0.96457 0.0
C38 C 0.88546 0.90004 0.98966 0.0
C39 C 0.80754 0.89342 0.01424 0.0
C40 C 0.7775 0.86143 0.01357 0.0
Zn41 Zn 0.77757 0.79005 -0.00868 0.0
C42 C 0.59914 0.78655 0.95597 0.0
N43 N 0.67989 0.693 -0.00446 0.0
C44 C 0.72578 0.66819 0.97145 0.0
C45 C 0.60424 0.6873 0.01977 0.0
C46 C 0.57185 0.65563 0.02011 0.0
C47 C 0.61757 0.62961 -0.00498 0.0
C48 C 0.69562 0.63622 0.97062 0.0
Zn49 Zn 0.72573 0.73957 -0.0063 0.0
O50 O 0.81278 0.78118 0.90626 0.0
C51 C 0.90416 0.74304 0.02907 0.0
O52 O 0.76072 0.7316 0.90782 0.0
H53 H 0.56863 0.70738 0.03851 0.0
H54 H 0.93451 0.82226 0.94631 0.0
H55 H 0.78589 0.67322 0.95261 0.0
O56 O 0.89392 0.77297 0.01852 0.0
O57 O 0.84365 0.72323 0.02173 0.0
H58 H 0.71747 0.85639 0.03251 0.0
O59 O 0.69047 0.74843 0.0787 0.0
O60 O 0.74253 0.79802 0.07724 0.0
O61 O 0.60944 0.75664 0.96654 0.0
O62 O 0.65961 0.80639 0.96326 0.0
C63 C 0.70625 0.77565 0.10392 0.0
H64 H 0.99189 0.87803 0.94564 0.0
H65 H 0.76981 0.91282 0.03339 0.0
H66 H 0.51103 0.65164 0.0389 0.0
H67 H 0.73336 0.61682 0.95149 0.0
C68 C 0.29822 0.77532 0.60366 0.0
N69 N 0.325 0.6924 0.4959 0.0
C70 C 0.40214 0.68711 0.51823 0.0
C71 C 0.43503 0.65552 0.51881 0.0
C72 C 0.38798 0.62912 0.49636 0.0
C73 C 0.30843 0.63533 0.47385 0.0
C74 C 0.27809 0.66727 0.47398 0.0
Zn75 Zn 0.27819 0.73882 0.49384 0.0
C76 C 0.10007 0.74188 0.53003 0.0
N77 N 0.17833 0.83551 0.48923 0.0
C78 C 0.22504 0.86067 0.51126 0.0
C79 C 0.10131 0.84076 0.46669 0.0
C80 C 0.06833 0.87233 0.46599 0.0
C81 C 0.11515 0.89876 0.48857 0.0
C82 C 0.19459 0.8926 0.51131 0.0
Zn83 Zn 0.22521 0.78911 0.49132 0.0
O84 O 0.31443 0.74808 0.57859 0.0
C85 C 0.40334 0.78608 0.45518 0.0
O86 O 0.26102 0.79747 0.57698 0.0
H87 H 0.06528 0.82043 0.44928 0.0
H88 H 0.43833 0.70742 0.53554 0.0
H89 H 0.28595 0.85595 0.52919 0.0
O90 O 0.39377 0.75615 0.46587 0.0
O91 O 0.3425 0.80573 0.46257 0.0
H92 H 0.21711 0.67202 0.4562 0.0
O93 O 0.18912 0.77989 0.40661 0.0
O94 O 0.24216 0.73044 0.40814 0.0
O95 O 0.10959 0.77178 0.51916 0.0
O96 O 0.16094 0.72222 0.52277 0.0
C97 C 0.20509 0.75265 0.3815 0.0
H98 H 0.49627 0.65177 0.53714 0.0
H99 H 0.27051 0.61576 0.45546 0.0
H100 H 0.00719 0.87604 0.44748 0.0
H101 H 0.23233 0.91218 0.5298 0.0
C102 C 0.7967 0.27489 0.603 0.0
N103 N 0.82386 0.19221 0.49478 0.0
C104 C 0.89956 0.18665 0.51907 0.0
C105 C 0.93227 0.15503 0.51955 0.0
C106 C 0.88685 0.12892 0.49452 0.0
C107 C 0.80877 0.13538 0.47001 0.0
C108 C 0.77827 0.16731 0.47072 0.0
Zn109 Zn 0.77739 0.23868 0.49289 0.0
C110 C 0.59906 0.24185 0.52848 0.0
N111 N 0.67843 0.33552 0.48857 0.0
C112 C 0.72417 0.36039 0.51257 0.0
C113 C 0.60263 0.34111 0.46445 0.0
C114 C 0.56993 0.37274 0.46412 0.0
C115 C 0.6155 0.39882 0.48911 0.0
C116 C 0.69371 0.39232 0.5134 0.0
Zn117 Zn 0.72487 0.28904 0.49042 0.0
O118 O 0.81285 0.24767 0.57787 0.0
C119 C 0.90319 0.28589 0.4548 0.0
O120 O 0.76007 0.29715 0.57623 0.0
H121 H 0.56715 0.32097 0.44578 0.0
H122 H 0.93492 0.2068 0.53779 0.0
H123 H 0.78441 0.35545 0.53132 0.0
O124 O 0.89341 0.25596 0.46544 0.0
O125 O 0.84244 0.30559 0.46217 0.0
H126 H 0.7181 0.17223 0.45184 0.0
O127 O 0.68939 0.28006 0.4055 0.0
O128 O 0.74207 0.23057 0.40703 0.0
O129 O 0.6089 0.27178 0.51778 0.0
O130 O 0.65979 0.22213 0.52121 0.0
C131 C 0.70539 0.25284 0.38034 0.0
H132 H 0.99309 0.15114 0.53843 0.0
H133 H 0.77127 0.11591 0.45091 0.0
H134 H 0.50902 0.37665 0.44541 0.0
H135 H 0.73134 0.41178 0.53245 0.0
C136 C 0.58982 0.57591 0.94422 0.0
C137 C 0.58392 0.5958 -0.00614 0.0
C138 C 0.55849 0.5439 0.94241 0.0
C139 C 0.52057 0.53142 -0.0085 0.0
C140 C 0.51446 0.55134 0.04177 0.0
C141 C 0.54603 0.58333 0.0423 0.0
C142 C 0.56565 0.52348 0.8879 0.0
C143 C 0.47484 0.53883 0.09506 0.0
C144 C 0.37183 0.4595 0.97343 0.0
C145 C 0.42299 0.43324 0.9879 0.0
C146 C 0.40281 0.49156 0.97432 0.0
C147 C 0.48698 0.49753 0.99018 0.0
C148 C 0.53905 0.47114 0.00469 0.0
C149 C 0.50646 0.4393 0.00331 0.0
C150 C 0.34551 0.51904 0.95822 0.0
C151 C 0.62904 0.47656 0.02204 0.0
H152 H 0.61804 0.58557 0.90642 0.0
H153 H 0.54216 0.59846 0.08097 0.0
H154 H 0.60155 0.50089 0.89558 0.0
H155 H 0.50253 0.5159 0.87296 0.0
H156 H 0.59699 0.5368 0.85351 0.0
H157 H 0.47518 0.55738 0.13068 0.0
H158 H 0.40922 0.53145 0.0863 0.0
H159 H 0.50868 0.51681 0.10881 0.0
H160 H 0.30759 0.45492 0.96077 0.0
H161 H 0.54601 0.41918 0.01524 0.0
H162 H 0.37196 0.53184 0.92151 0.0
H163 H 0.34041 0.53724 -0.00589 0.0
H164 H 0.28173 0.51029 0.94679 0.0
H165 H 0.66366 0.48838 0.98745 0.0
H166 H 0.66129 0.45342 0.03191 0.0
H167 H 0.63203 0.49331 0.06011 0.0
C168 C 0.50507 0.58909 0.48053 0.0
C169 C 0.4217 0.59531 0.49599 0.0
C170 C 0.53731 0.5572 0.47915 0.0
C171 C 0.48499 0.53091 0.49372 0.0
C172 C 0.4009 0.53703 0.50961 0.0
C173 C 0.37026 0.56914 0.51049 0.0
C174 C 0.62723 0.55162 0.46176 0.0
C175 C 0.34333 0.50965 0.52578 0.0
C176 C 0.54361 0.44502 0.44182 0.0
C177 C 0.5816 0.43259 0.49027 0.0
C178 C 0.51205 0.47701 0.44229 0.0
C179 C 0.51827 0.49698 0.49251 0.0
C180 C 0.55619 0.48452 0.54163 0.0
C181 C 0.58751 0.4525 0.53988 0.0
C182 C 0.47242 0.48951 0.38897 0.0
C183 C 0.56345 0.50497 0.59609 0.0
H184 H 0.54483 0.60915 0.46857 0.0
H185 H 0.30609 0.57384 0.52318 0.0
H186 H 0.66179 0.5398 0.4964 0.0
H187 H 0.63002 0.53481 0.42377 0.0
H188 H 0.65968 0.57469 0.45177 0.0
H189 H 0.27963 0.51852 0.53714 0.0
H190 H 0.33809 0.49142 0.48994 0.0
H191 H 0.36964 0.49686 0.56253 0.0
H192 H 0.53972 0.42987 0.40318 0.0
H193 H 0.6158 0.44287 0.57768 0.0
H194 H 0.50647 0.51143 0.37508 0.0
H195 H 0.4069 0.49702 0.39777 0.0
H196 H 0.47248 0.4709 0.35345 0.0
H197 H 0.59963 0.52749 0.58837 0.0
H198 H 0.59457 0.49163 0.63055 0.0
H199 H 0.50039 0.51269 0.61095 0.0
C200 C 0.99596 0.09039 0.98036 0.0
C201 C 0.07953 0.09648 -0.00453 0.0
C202 C 0.96338 0.05855 0.97919 0.0
C203 C 0.01558 0.03218 -0.00638 0.0
C204 C 0.09986 0.03817 0.00917 0.0
C205 C 0.13082 0.07023 0.00986 0.0
C206 C 0.87327 0.05311 0.96216 0.0
C207 C 0.1573 1.01071 0.02517 0.0
C208 C 0.91328 0.95382 0.04018 0.0
C209 C 0.91894 0.93388 0.99059 0.0
C210 C 0.9445 0.98585 0.04176 0.0
C211 C 0.98203 0.99829 -0.0075 0.0
C212 C 0.98784 0.97832 0.94227 0.0
C213 C 0.9564 0.94631 0.94197 0.0
C214 C 0.93768 1.00632 0.09624 0.0
C215 C 0.027 0.99079 0.8888 0.0
H216 H 0.9563 0.1105 0.9685 0.0
H217 H 0.19514 0.07483 0.0223 0.0
H218 H 0.87001 0.03633 0.92416 0.0
H219 H 0.83892 0.04132 -0.00309 0.0
H220 H 0.84092 0.07624 0.95234 0.0
H221 H 0.22115 0.01948 0.03634 0.0
H222 H 0.13113 0.99795 0.062 0.0
H223 H 0.16216 0.99248 0.98931 0.0
H224 H 0.88538 0.94419 0.0781 0.0
H225 H 0.96007 0.93114 0.90335 0.0
H226 H 0.90169 0.0289 0.08859 0.0
H227 H 0.00088 0.01393 0.11096 0.0
H228 H 0.90658 0.99303 0.13076 0.0
H229 H 0.99304 1.01279 0.87513 0.0
H230 H 0.02639 0.97221 0.85323 0.0
H231 H 0.09269 0.99817 0.89731 0.0
C232 C 0.91535 0.07522 0.44396 0.0
C233 C 0.92077 0.09516 0.49357 0.0
C234 C 0.94679 0.04322 0.4424 0.0
C235 C 0.98428 0.03081 0.4917 0.0
C236 C 0.98995 0.05079 0.54193 0.0
C237 C 0.95832 0.08277 0.54221 0.0
C238 C 0.94014 0.02274 0.38792 0.0
C239 C 0.02908 0.03834 0.59544 0.0
C240 C 0.99776 0.93871 0.50387 0.0
C241 C 0.08131 0.93255 0.48879 0.0
C242 C 0.96537 0.97057 0.50506 0.0
C243 C 0.01772 0.9969 0.49068 0.0
C244 C 0.10199 0.99084 0.47519 0.0
C245 C 0.13277 0.95875 0.47448 0.0
C246 C 0.87525 0.9761 0.52201 0.0
C247 C 0.1596 0.01825 0.45925 0.0
H248 H 0.88739 0.08482 0.40603 0.0
H249 H 0.96182 0.09794 0.58083 0.0
H250 H 0.00337 0.01507 0.37336 0.0
H251 H 0.90399 1.0002 0.39551 0.0
H252 H 0.90928 0.03605 0.35331 0.0
H253 H 0.02856 0.05696 0.63095 0.0
H254 H 0.99501 0.01639 0.60917 0.0
H255 H 0.09474 0.03089 0.58696 0.0
H256 H 0.95798 0.91864 0.51568 0.0
H257 H 0.19708 0.9541 0.46208 0.0
H258 H 0.84099 0.98787 0.4872 0.0
H259 H 0.872 0.99292 0.55997 0.0
H260 H 0.84281 0.953 0.53188 0.0
H261 H 0.1336 0.03101 0.42235 0.0
H262 H 0.22346 1.00943 0.4482 0.0
H263 H 0.16439 0.0365 0.49509 0.0
C264 C 0.60867 0.26322 0.30094 0.0
C265 C 0.67886 0.24692 0.3211 0.0
C266 C 0.57975 0.25722 0.24552 0.0
C267 C 0.62361 0.23493 0.2089 0.0
C268 C 0.69603 0.219 0.22854 0.0
C269 C 0.72243 0.22495 0.2849 0.0
C270 C 0.50122 0.27439 0.22665 0.0
C271 C 0.74611 0.19614 0.19004 0.0
C272 C 0.47094 0.2066 0.09784 0.0
C273 C 0.47717 0.2325 0.06072 0.0
C274 C 0.52652 0.20428 0.14352 0.0
C275 C 0.59013 0.22806 0.15102 0.0
C276 C 0.60511 0.25063 0.10806 0.0
C277 C 0.54758 0.25286 0.06346 0.0
C278 C 0.50917 0.17948 0.18801 0.0
C279 C 0.67492 0.27532 0.11314 0.0
H280 H 0.5749 0.28011 0.3291 0.0
H281 H 0.77763 0.21275 0.30046 0.0
H282 H 0.51532 0.28977 0.18998 0.0
H283 H 0.45354 0.25617 0.21252 0.0
H284 H 0.47357 0.29024 0.26106 0.0
H285 H 0.79341 0.18225 0.21396 0.0
H286 H 0.70468 0.17859 0.16667 0.0
H287 H 0.77917 0.2105 0.15785 0.0
H288 H 0.41734 0.1904 0.09529 0.0
H289 H 0.55379 0.27239 0.03379 0.0
H290 H 0.47561 0.19162 0.22428 0.0
H291 H 0.56814 0.16927 0.20467 0.0
H292 H 0.46966 0.1591 0.17094 0.0
H293 H 0.65489 0.296 0.14171 0.0
H294 H 0.69106 0.28518 0.07112 0.0
H295 H 0.73172 0.26441 0.13179 0.0
C296 C 0.72344 0.80342 0.19944 0.0
C297 C 0.67984 0.78149 0.1632 0.0
C298 C 0.69707 0.80934 0.25582 0.0
C299 C 0.62462 0.79341 0.27541 0.0
C300 C 0.58077 0.77114 0.23875 0.0
C301 C 0.60968 0.76517 0.18333 0.0
C302 C 0.74716 0.83216 0.29436 0.0
C303 C 0.50221 0.75399 0.25758 0.0
C304 C 0.54822 0.77562 0.4208 0.0
C305 C 0.4779 0.79604 0.42345 0.0
C306 C 0.60585 0.77778 0.37625 0.0
C307 C 0.59102 0.80034 0.33323 0.0
C308 C 0.52748 0.82416 0.34063 0.0
C309 C 0.47183 0.82192 0.38628 0.0
C310 C 0.67557 0.75304 0.37129 0.0
C311 C 0.51027 0.84893 0.29606 0.0
H312 H 0.77862 0.81563 0.1839 0.0
H313 H 0.5759 0.7483 0.15514 0.0
H314 H 0.70575 0.84984 0.31746 0.0
H315 H 0.77973 0.8178 0.32679 0.0
H316 H 0.79483 0.8459 0.27054 0.0
H317 H 0.4746 0.73814 0.22315 0.0
H318 H 0.51627 0.73862 0.29427 0.0
H319 H 0.45452 0.77222 0.27167 0.0
H320 H 0.55431 0.7561 0.45052 0.0
H321 H 0.41829 0.83815 0.38875 0.0
H322 H 0.7324 0.76387 0.35258 0.0
H323 H 0.65544 0.73233 0.34283 0.0
H324 H 0.69168 0.74324 0.41337 0.0
H325 H 0.5693 0.85911 0.27944 0.0
H326 H 0.47077 0.86935 0.31304 0.0
H327 H 0.47677 0.83679 0.25977 0.0
C328 C 0.45499 0.77538 0.92078 0.0
C329 C 0.52436 0.79626 0.92416 0.0
C330 C 0.39787 0.77734 0.87588 0.0
C331 C 0.41216 0.80021 0.83329 0.0
C332 C 0.47448 0.82445 0.84145 0.0
C333 C 0.52967 0.82237 0.88741 0.0
C334 C 0.32948 0.75209 0.87007 0.0
C335 C 0.49104 0.84957 0.79739 0.0
C336 C 0.39579 0.76556 0.68288 0.0
C337 C 0.32473 0.78136 0.66287 0.0
C338 C 0.42439 0.7716 0.73837 0.0
C339 C 0.37932 0.79339 0.77522 0.0
C340 C 0.30613 0.80884 0.75569 0.0
C341 C 0.28008 0.80288 0.69925 0.0
C342 C 0.50378 0.75499 0.75713 0.0
C343 C 0.25484 0.83115 0.79439 0.0
H344 H 0.44944 0.75567 0.95015 0.0
H345 H 0.58243 0.83896 0.89043 0.0
H346 H 0.27231 0.76259 0.85123 0.0
H347 H 0.35097 0.73169 0.84137 0.0
H348 H 0.3134 0.74191 0.91186 0.0
H349 H 0.52917 0.87023 0.81498 0.0
H350 H 0.52577 0.83788 0.76123 0.0
H351 H 0.43176 0.85935 0.78044 0.0
H352 H 0.43039 0.74902 0.65457 0.0
H353 H 0.22424 0.81469 0.68379 0.0
H354 H 0.49041 0.73933 0.79357 0.0
H355 H 0.55044 0.77353 0.77159 0.0
H356 H 0.53234 0.73952 0.72256 0.0
H357 H 0.22329 0.81646 0.82681 0.0
H358 H 0.20625 0.8445 0.7707 0.0
H359 H 0.29531 0.84916 0.8175 0.0
C360 C 0.4544 0.2526 0.56306 0.0
C361 C 0.52444 0.23203 0.56031 0.0
C362 C 0.39703 0.25061 0.60779 0.0
C363 C 0.41186 0.22812 0.65091 0.0
C364 C 0.47485 0.20411 0.64337 0.0
C365 C 0.53031 0.20617 0.59756 0.0
C366 C 0.32726 0.27533 0.61276 0.0
C367 C 0.49131 0.17921 0.68779 0.0
C368 C 0.39426 0.26353 0.80075 0.0
C369 C 0.324 0.24738 0.82112 0.0
C370 C 0.42286 0.2574 0.74528 0.0
C371 C 0.37847 0.23522 0.70876 0.0
C372 C 0.30553 0.21968 0.72848 0.0
C373 C 0.27996 0.2255 0.78504 0.0
C374 C 0.50165 0.27431 0.72624 0.0
C375 C 0.2552 0.19654 0.69068 0.0
H376 H 0.44836 0.27207 0.53326 0.0
H377 H 0.58354 0.18979 0.59496 0.0
H378 H 0.27012 0.26427 0.6307 0.0
H379 H 0.3468 0.2958 0.64195 0.0
H380 H 0.31188 0.28549 0.57083 0.0
H381 H 0.53236 0.15914 0.67134 0.0
H382 H 0.52251 0.19136 0.72504 0.0
H383 H 0.43189 0.16858 0.70282 0.0
H384 H 0.42839 0.28036 0.8288 0.0
H385 H 0.22499 0.21323 0.8008 0.0
H386 H 0.48775 0.28963 0.68944 0.0
H387 H 0.549 0.25593 0.71222 0.0
H388 H 0.5296 0.29017 0.76052 0.0
H389 H 0.25575 0.20395 0.64575 0.0
H390 H 0.18926 0.1951 0.70528 0.0
H391 H 0.28259 0.17171 0.69216 0.0
C392 C 0.97384 0.70685 0.09696 0.0
C393 C 0.97894 0.73325 0.06082 0.0
C394 C 0.02903 0.70448 0.14285 0.0
C395 C 0.09114 0.72874 0.1516 0.0
C396 C 0.10523 0.75198 0.10957 0.0
C397 C 0.04813 0.75421 0.06472 0.0
C398 C 0.01266 0.67898 0.18629 0.0
C399 C 0.17342 0.77728 0.11601 0.0
C400 C 0.10706 0.76246 0.30261 0.0
C401 C 0.17838 0.74671 0.32231 0.0
C402 C 0.07846 0.75667 0.24706 0.0
C403 C 0.12379 0.73519 0.20984 0.0
C404 C 0.19716 0.71974 0.22909 0.0
C405 C 0.2232 0.72543 0.28561 0.0
C406 C -0.00113 0.77326 0.22862 0.0
C407 C 0.2487 0.69774 0.19 0.0
H408 H 0.92125 0.69019 0.09352 0.0
H409 H 0.05355 0.77415 0.03581 0.0
H410 H 0.07202 0.66918 0.20309 0.0
H411 H 0.97769 0.69035 0.22265 0.0
H412 H 0.97482 0.65838 0.16818 0.0
H413 H 0.18939 0.78783 0.0745 0.0
H414 H 0.15176 0.79741 0.1452 0.0
H415 H 0.23068 0.76669 0.13457 0.0
H416 H 0.07233 0.7788 0.33119 0.0
H417 H 0.27923 0.71366 0.30085 0.0
H418 H 0.95248 0.75472 0.2137 0.0
H419 H 0.01209 0.78923 0.19258 0.0
H420 H 0.97004 0.78841 0.2635 0.0
H421 H 0.20842 0.67989 0.16638 0.0
H422 H 0.29723 0.68424 0.21348 0.0
H423 H 0.28037 0.71271 0.15803 0.0
C424 C 0.97209 0.32208 0.38658 0.0
C425 C 0.97775 0.29581 0.42296 0.0
C426 C 0.02727 0.3245 0.3407 0.0
C427 C 0.08993 0.30042 0.33221 0.0
C428 C 0.10449 0.27735 0.37445 0.0
C429 C 0.04738 0.27506 0.41928 0.0
C430 C 0.0104 0.34982 0.29703 0.0
C431 C 0.17327 0.25227 0.36829 0.0
C432 C 0.10676 0.26635 0.18146 0.0
C433 C 0.17777 0.28227 0.16168 0.0
C434 C 0.07798 0.2722 0.23695 0.0
C435 C 0.1228 0.29392 0.27404 0.0
C436 C 0.19584 0.30955 0.25472 0.0
C437 C 0.22209 0.30378 0.19827 0.0
C438 C -0.00126 0.2554 0.25547 0.0
C439 C 0.24684 0.33183 0.29366 0.0
H440 H 0.91914 0.33858 0.38984 0.0
H441 H 0.05322 0.25522 0.44837 0.0
H442 H 0.06958 0.35979 0.28027 0.0
H443 H 0.97585 0.33823 0.26068 0.0
H444 H 0.97199 0.37032 0.31491 0.0
H445 H 0.18934 0.24185 0.4099 0.0
H446 H 0.15219 0.23201 0.33916 0.0
H447 H 0.23034 0.26302 0.34979 0.0
H448 H 0.07239 0.24983 0.15298 0.0
H449 H 0.27788 0.31569 0.18299 0.0
H450 H 0.95192 0.27382 0.27019 0.0
H451 H 0.01228 0.23958 0.29166 0.0
H452 H 0.9703 0.24005 0.22069 0.0
H453 H 0.20612 0.34947 0.3174 0.0
H454 H 0.2947 0.34558 0.27004 0.0
H455 H 0.2793 0.31702 0.32553 0.0
C456 C 0.89192 0.26416 0.68315 0.0
C457 C 0.82273 0.28083 0.66236 0.0
C458 C 0.92078 0.27041 0.73852 0.0
C459 C 0.87772 0.29327 0.77452 0.0
C460 C 0.80561 0.30926 0.75449 0.0
C461 C 0.77978 0.30327 0.69803 0.0
C462 C -0.00137 0.25298 0.75793 0.0
C463 C 0.7566 0.33311 0.79177 0.0
C464 C 0.95443 0.27698 0.92045 0.0
C465 C 0.02537 0.29708 0.92214 0.0
C466 C 0.89661 0.2789 0.87596 0.0
C467 C 0.912 0.30077 0.83198 0.0
C468 C 0.97618 0.32438 0.83834 0.0
C469 C 0.03201 0.32245 0.88397 0.0
C470 C 0.82558 0.2547 0.87226 0.0
C471 C 0.99334 0.34861 0.79292 0.0
H472 H 0.92519 0.24687 0.65545 0.0
H473 H 0.72559 0.31593 0.68198 0.0
H474 H 0.04712 0.27105 0.77126 0.0
H475 H 0.98401 0.23819 0.79526 0.0
H476 H 0.02547 0.23652 0.72407 0.0
H477 H 0.69058 0.33479 0.7774 0.0
H478 H 0.7573 0.32622 0.83697 0.0
H479 H 0.78492 0.35773 0.78927 0.0
H480 H 0.94788 0.25791 0.95097 0.0
H481 H 0.08603 0.33845 0.88574 0.0
H482 H 0.84383 0.23372 0.84378 0.0
H483 H 0.76883 0.26596 0.85412 0.0
H484 H 0.81009 0.24521 0.91467 0.0
H485 H 0.02326 0.33578 0.75585 0.0
H486 H 0.03576 0.36848 0.80837 0.0
H487 H 0.93429 0.35959 0.77796 0.0
C488 C 0.03212 0.70663 0.60004 0.0
C489 C 0.02557 0.73201 0.56188 0.0
C490 C 0.97627 0.70472 0.64565 0.0
C491 C 0.91215 0.72837 0.65202 0.0
C492 C 0.89688 0.75027 0.60805 0.0
C493 C 0.95472 0.75216 0.56358 0.0
C494 C 0.99336 0.68048 0.69107 0.0
C495 C 0.82591 0.77451 0.61175 0.0
C496 C 0.7799 0.72574 0.78591 0.0
C497 C 0.82285 0.74813 0.82167 0.0
C498 C 0.8057 0.71984 0.72943 0.0
C499 C 0.87781 0.73584 0.70947 0.0
C500 C 0.92086 0.75866 0.74556 0.0
C501 C 0.89201 0.76484 0.80095 0.0
C502 C 0.75667 0.69605 0.69205 0.0
C503 C -0.00129 0.7761 0.72623 0.0
H504 H 0.08606 0.69059 0.59827 0.0
H505 H 0.94825 0.77125 0.53307 0.0
H506 H 0.02324 0.69329 0.72817 0.0
H507 H 0.93428 0.66951 0.70597 0.0
H508 H 0.03577 0.66059 0.67563 0.0
H509 H 0.81047 0.78401 0.56933 0.0
H510 H 0.76912 0.76327 0.62985 0.0
H511 H 0.84419 0.79547 0.64025 0.0
H512 H 0.72572 0.71306 0.80191 0.0
H513 H 0.92528 0.78209 0.82873 0.0
H514 H 0.78496 0.67142 0.69446 0.0
H515 H 0.75739 0.703 0.64687 0.0
H516 H 0.69065 0.69437 0.7064 0.0
H517 H 0.04721 0.75803 0.71286 0.0
H518 H 0.02554 0.79251 0.76015 0.0
H519 H 0.98411 0.79093 0.68895 0.0
loop_
_geom_bond_atom_site_label_1
_geom_bond_atom_site_label_2
_geom_bond_distance
_geom_bond_site_symmetry_2
_ccdc_geom_bond_type
C0 O16 1.251 . S
C0 O18 1.254 . S
N1 C2 1.333 1_554 S
N1 C6 1.307 . S
N1 Zn7 2.020 . S
C2 N1 1.333 1_556 S
C2 C3 1.379 . S
C2 H20 0.952 . S
C3 C2 1.379 . S
C3 C4 1.390 1_556 S
C3 H30 0.949 . S
C4 C3 1.390 1_554 S
C4 C5 1.357 . S
C5 C4 1.357 . S
C5 C6 1.370 . S
C5 H31 0.950 . S
C6 N1 1.307 . S
C6 C5 1.370 . S
C6 H24 0.948 . S
Zn7 N1 2.020 . S
Zn7 O16 2.039 1_554 S
Zn7 O22 2.034 . S
Zn7 O26 2.025 . S
Zn7 O28 2.024 1_554 S
C8 O27 1.246 . S
C8 O28 1.249 . S
N9 C10 1.307 . S
N9 C11 1.333 1_556 S
N9 Zn15 2.020 . S
C10 N9 1.307 . S
C10 C14 1.370 . S
C10 H21 0.948 . S
C11 N9 1.333 1_554 S
C11 C12 1.379 . S
C11 H19 0.952 . S
C12 C11 1.379 . S
C12 C13 1.390 1_554 S
C12 H32 0.949 . S
C13 C12 1.390 1_556 S
C13 C14 1.357 . S
C14 C10 1.370 . S
C14 C13 1.357 . S
C14 H33 0.950 . S
Zn15 N9 2.020 . S
Zn15 O18 2.025 . S
Zn15 O23 2.024 1_556 S
Zn15 O25 2.039 1_556 S
Zn15 O27 2.034 . S
O16 C0 1.251 . S
O16 Zn7 2.039 1_556 S
C17 O22 1.246 . S
C17 O23 1.249 . S
O18 C0 1.254 . S
O18 Zn15 2.025 . S
H19 C11 0.952 . S
H20 C2 0.952 . S
H21 C10 0.948 . S
O22 Zn7 2.034 . S
O22 C17 1.246 . S
O23 Zn15 2.024 1_554 S
O23 C17 1.249 . S
H24 C6 0.948 . S
O25 Zn15 2.039 1_554 S
O25 C29 1.251 . S
O26 Zn7 2.025 . S
O26 C29 1.254 . S
O27 C8 1.246 . S
O27 Zn15 2.034 . S
O28 Zn7 2.024 1_556 S
O28 C8 1.249 . S
C29 O25 1.251 . S
C29 O26 1.254 . S
H30 C3 0.949 . S
H31 C5 0.950 . S
H32 C12 0.949 . S
H33 C14 0.950 . S
C34 O50 1.251 . S
C34 O52 1.254 . S
N35 C36 1.333 1_554 S
N35 C40 1.307 . S
N35 Zn41 2.020 . S
C36 N35 1.333 1_556 S
C36 C37 1.379 . S
C36 H54 0.952 . S
C37 C36 1.379 . S
C37 C38 1.390 1_556 S
C37 H64 0.949 . S
C38 C37 1.390 1_554 S
C38 C39 1.357 . S
C39 C38 1.357 . S
C39 C40 1.370 . S
C39 H65 0.950 . S
C40 N35 1.307 . S
C40 C39 1.370 . S
C40 H58 0.948 . S
Zn41 N35 2.020 . S
Zn41 O50 2.039 1_554 S
Zn41 O56 2.034 . S
Zn41 O60 2.025 . S
Zn41 O62 2.024 1_554 S
C42 O61 1.246 . S
C42 O62 1.249 . S
N43 C44 1.307 . S
N43 C45 1.333 1_556 S
N43 Zn49 2.020 . S
C44 N43 1.307 . S
C44 C48 1.370 . S
C44 H55 0.948 . S
C45 N43 1.333 1_554 S
C45 C46 1.379 . S
C45 H53 0.952 . S
C46 C45 1.379 . S
C46 C47 1.390 1_554 S
C46 H66 0.949 . S
C47 C46 1.390 1_556 S
C47 C48 1.357 . S
C48 C44 1.370 . S
C48 C47 1.357 . S
C48 H67 0.950 . S
Zn49 N43 2.020 . S
Zn49 O52 2.025 . S
Zn49 O57 2.024 1_556 S
Zn49 O59 2.039 1_556 S
Zn49 O61 2.034 . S
O50 C34 1.251 . S
O50 Zn41 2.039 1_556 S
C51 O56 1.246 . S
C51 O57 1.249 . S
O52 C34 1.254 . S
O52 Zn49 2.025 . S
H53 C45 0.952 . S
H54 C36 0.952 . S
H55 C44 0.948 . S
O56 Zn41 2.034 . S
O56 C51 1.246 . S
O57 Zn49 2.024 1_554 S
O57 C51 1.249 . S
H58 C40 0.948 . S
O59 Zn49 2.039 1_554 S
O59 C63 1.251 . S
O60 Zn41 2.025 . S
O60 C63 1.254 . S
O61 C42 1.246 . S
O61 Zn49 2.034 . S
O62 Zn41 2.024 1_556 S
O62 C42 1.249 . S
C63 O59 1.251 . S
C63 O60 1.254 . S
H64 C37 0.949 . S
H65 C39 0.950 . S
H66 C46 0.949 . S
H67 C48 0.950 . S
C68 O84 1.251 . S
C68 O86 1.254 . S
N69 C70 1.333 . S
N69 C74 1.307 . S
N69 Zn75 2.020 . S
C70 N69 1.333 . S
C70 C71 1.379 . S
C70 H88 0.952 . S
C71 C70 1.379 . S
C71 C72 1.390 . S
C71 H98 0.949 . S
C72 C71 1.390 . S
C72 C73 1.357 . S
C73 C72 1.357 . S
C73 C74 1.370 . S
C73 H99 0.950 . S
C74 N69 1.307 . S
C74 C73 1.370 . S
C74 H92 0.948 . S
Zn75 N69 2.020 . S
Zn75 O84 2.039 . S
Zn75 O90 2.034 . S
Zn75 O94 2.025 . S
Zn75 O96 2.024 . S
C76 O95 1.246 . S
C76 O96 1.249 . S
N77 C78 1.307 . S
N77 C79 1.333 . S
N77 Zn83 2.020 . S
C78 N77 1.307 . S
C78 C82 1.370 . S
C78 H89 0.948 . S
C79 N77 1.333 . S
C79 C80 1.379 . S
C79 H87 0.952 . S
C80 C79 1.379 . S
C80 C81 1.390 . S
C80 H100 0.949 . S
C81 C80 1.390 . S
C81 C82 1.357 . S
C82 C78 1.370 . S
C82 C81 1.357 . S
C82 H101 0.950 . S
Zn83 N77 2.020 . S
Zn83 O86 2.025 . S
Zn83 O91 2.024 . S
Zn83 O93 2.039 . S
Zn83 O95 2.034 . S
O84 C68 1.251 . S
O84 Zn75 2.039 . S
C85 O90 1.246 . S
C85 O91 1.249 . S
O86 C68 1.254 . S
O86 Zn83 2.025 . S
H87 C79 0.952 . S
H88 C70 0.952 . S
H89 C78 0.948 . S
O90 Zn75 2.034 . S
O90 C85 1.246 . S
O91 Zn83 2.024 . S
O91 C85 1.249 . S
H92 C74 0.948 . S
O93 Zn83 2.039 . S
O93 C97 1.251 . S
O94 Zn75 2.025 . S
O94 C97 1.254 . S
O95 C76 1.246 . S
O95 Zn83 2.034 . S
O96 Zn75 2.024 . S
O96 C76 1.249 . S
C97 O93 1.251 . S
C97 O94 1.254 . S
H98 C71 0.949 . S
H99 C73 0.950 . S
H100 C80 0.949 . S
H101 C82 0.950 . S
C102 O118 1.251 . S
C102 O120 1.254 . S
N103 C104 1.333 . S
N103 C108 1.307 . S
N103 Zn109 2.020 . S
C104 N103 1.333 . S
C104 C105 1.379 . S
C104 H122 0.952 . S
C105 C104 1.379 . S
C105 C106 1.390 . S
C105 H132 0.949 . S
C106 C105 1.390 . S
C106 C107 1.357 . S
C107 C106 1.357 . S
C107 C108 1.370 . S
C107 H133 0.950 . S
C108 N103 1.307 . S
C108 C107 1.370 . S
C108 H126 0.948 . S
Zn109 N103 2.020 . S
Zn109 O118 2.039 . S
Zn109 O124 2.034 . S
Zn109 O128 2.025 . S
Zn109 O130 2.024 . S
C110 O129 1.246 . S
C110 O130 1.249 . S
N111 C112 1.307 . S
N111 C113 1.333 . S
N111 Zn117 2.020 . S
C112 N111 1.307 . S
C112 C116 1.370 . S
C112 H123 0.948 . S
C113 N111 1.333 . S
C113 C114 1.379 . S
C113 H121 0.952 . S
C114 C113 1.379 . S
C114 C115 1.390 . S
C114 H134 0.949 . S
C115 C114 1.390 . S
C115 C116 1.357 . S
C116 C112 1.370 . S
C116 C115 1.357 . S
C116 H135 0.950 . S
Zn117 N111 2.020 . S
Zn117 O120 2.025 . S
Zn117 O125 2.024 . S
Zn117 O127 2.039 . S
Zn117 O129 2.034 . S
O118 C102 1.251 . S
O118 Zn109 2.039 . S
C119 O124 1.246 . S
C119 O125 1.249 . S
O120 C102 1.254 . S
O120 Zn117 2.025 . S
H121 C113 0.952 . S
H122 C104 0.952 . S
H123 C112 0.948 . S
O124 Zn109 2.034 . S
O124 C119 1.246 . S
O125 Zn117 2.024 . S
O125 C119 1.249 . S
H126 C108 0.948 . S
O127 Zn117 2.039 . S
O127 C131 1.251 . S
O128 Zn109 2.025 . S
O128 C131 1.254 . S
O129 C110 1.246 . S
O129 Zn117 2.034 . S
O130 Zn109 2.024 . S
O130 C110 1.249 . S
C131 O127 1.251 . S
C131 O128 1.254 . S
H132 C105 0.949 . S
H133 C107 0.950 . S
H134 C114 0.949 . S
H135 C116 0.950 . S
C136 C137 1.391 1_556 S
C136 C138 1.394 . S
C136 H152 0.931 . S
C137 C136 1.391 1_554 S
C137 C141 1.376 . S
C138 C136 1.394 . S
C138 C139 1.369 1_556 S
C138 C142 1.531 . S
C139 C138 1.369 1_554 S
C139 C140 1.410 . S
C139 C147 1.503 . S
C140 C139 1.410 . S
C140 C141 1.392 . S
C140 C143 1.511 . S
C141 C137 1.376 . S
C141 C140 1.392 . S
C141 H153 0.929 . S
C142 C138 1.531 . S
C142 H154 0.966 . S
C142 H155 0.962 . S
C142 H156 0.960 . S
C143 C140 1.511 . S
C143 H157 0.961 . S
C143 H158 0.961 . S
C143 H159 0.961 . S
C144 C145 1.370 1_556 S
C144 C146 1.363 . S
C144 H160 0.931 . S
C145 C144 1.370 1_554 S
C145 C149 1.408 . S
C146 C144 1.363 . S
C146 C147 1.370 1_556 S
C146 C150 1.524 . S
C147 C139 1.503 . S
C147 C146 1.370 1_554 S
C147 C148 1.403 . S
C148 C147 1.403 . S
C148 C149 1.404 . S
C148 C151 1.539 . S
C149 C145 1.408 . S
C149 C148 1.404 . S
C149 H161 0.930 . S
C150 C146 1.524 . S
C150 H162 0.956 . S
C150 H163 0.961 . S
C150 H164 0.961 . S
C151 C148 1.539 . S
C151 H165 0.958 . S
C151 H166 0.961 . S
C151 H167 0.960 . S
H152 C136 0.931 . S
H153 C141 0.929 . S
H154 C142 0.966 . S
H155 C142 0.962 . S
H156 C142 0.960 . S
H157 C143 0.961 . S
H158 C143 0.961 . S
H159 C143 0.961 . S
H160 C144 0.931 . S
H161 C149 0.930 . S
H162 C150 0.956 . S
H163 C150 0.961 . S
H164 C150 0.961 . S
H165 C151 0.958 . S
H166 C151 0.961 . S
H167 C151 0.960 . S
C168 C169 1.391 . S
C168 C170 1.394 . S
C168 H184 0.931 . S
C169 C168 1.391 . S
C169 C173 1.376 . S
C170 C168 1.394 . S
C170 C171 1.369 . S
C170 C174 1.531 . S
C171 C170 1.369 . S
C171 C172 1.410 . S
C171 C179 1.503 . S
C172 C171 1.410 . S
C172 C173 1.392 . S
C172 C175 1.511 . S
C173 C169 1.376 . S
C173 C172 1.392 . S
C173 H185 0.929 . S
C174 C170 1.531 . S
C174 H186 0.960 . S
C174 H187 0.962 . S
C174 H188 0.960 . S
C175 C172 1.511 . S
C175 H189 0.961 . S
C175 H190 0.961 . S
C175 H191 0.961 . S
C176 C177 1.370 . S
C176 C178 1.363 . S
C176 H192 0.931 . S
C177 C176 1.370 . S
C177 C181 1.408 . S
C178 C176 1.363 . S
C178 C179 1.370 . S
C178 C182 1.524 . S
C179 C171 1.503 . S
C179 C178 1.370 . S
C179 C180 1.403 . S
C180 C179 1.403 . S
C180 C181 1.404 . S
C180 C183 1.539 . S
C181 C177 1.408 . S
C181 C180 1.404 . S
C181 H193 0.930 . S
C182 C178 1.524 . S
C182 H194 0.956 . S
C182 H195 0.961 . S
C182 H196 0.961 . S
C183 C180 1.539 . S
C183 H197 0.958 . S
C183 H198 0.961 . S
C183 H199 0.960 . S
H184 C168 0.931 . S
H185 C173 0.929 . S
H186 C174 0.960 . S
H187 C174 0.962 . S
H188 C174 0.960 . S
H189 C175 0.961 . S
H190 C175 0.961 . S
H191 C175 0.961 . S
H192 C176 0.931 . S
H193 C181 0.930 . S
H194 C182 0.956 . S
H195 C182 0.961 . S
H196 C182 0.961 . S
H197 C183 0.958 . S
H198 C183 0.961 . S
H199 C183 0.960 . S
C200 C201 1.391 . S
C200 C202 1.394 . S
C200 H216 0.931 . S
C201 C200 1.391 . S
C201 C205 1.376 1_556 S
C202 C200 1.394 . S
C202 C203 1.369 . S
C202 C206 1.531 1_455 S
C203 C202 1.369 . S
C203 C204 1.410 1_556 S
C203 C211 1.503 1_445 S
C204 C203 1.410 1_554 S
C204 C205 1.392 . S
C204 C207 1.511 1_545 S
C205 C201 1.376 1_554 S
C205 C204 1.392 . S
C205 H217 0.929 . S
C206 C202 1.531 1_655 S
C206 H218 0.960 . S
C206 H219 0.962 . S
C206 H220 0.960 . S
C207 C204 1.511 1_565 S
C207 H221 0.961 . S
C207 H222 0.961 . S
C207 H223 0.961 . S
C208 C209 1.370 1_554 S
C208 C210 1.363 . S
C208 H224 0.931 . S
C209 C208 1.370 1_556 S
C209 C213 1.408 . S
C210 C208 1.363 . S
C210 C211 1.370 1_554 S
C210 C214 1.524 1_565 S
C211 C203 1.503 1_665 S
C211 C210 1.370 1_556 S
C211 C212 1.401 1_655 S
C212 C211 1.401 1_455 S
C212 C213 1.399 1_455 S
C212 C215 1.546 . S
C213 C209 1.408 . S
C213 C212 1.399 1_655 S
C213 H225 0.930 . S
C214 C210 1.524 1_545 S
C214 H226 0.956 . S
C214 H227 0.961 . S
C214 H228 0.961 . S
C215 C212 1.546 . S
C215 H229 0.958 . S
C215 H230 0.961 . S
C215 H231 0.960 . S
H216 C200 0.931 . S
H217 C205 0.929 . S
H218 C206 0.960 . S
H219 C206 0.962 . S
H220 C206 0.960 . S
H221 C207 0.961 . S
H222 C207 0.961 . S
H223 C207 0.961 . S
H224 C208 0.931 . S
H225 C213 0.930 . S
H226 C214 0.956 . S
H227 C214 0.961 . S
H228 C214 0.961 . S
H229 C215 0.958 . S
H230 C215 0.961 . S
H231 C215 0.960 . S
C232 C233 1.391 . S
C232 C234 1.394 . S
C232 H248 0.931 . S
C233 C232 1.391 . S
C233 C237 1.376 . S
C234 C232 1.394 . S
C234 C235 1.369 . S
C234 C238 1.531 . S
C235 C234 1.369 . S
C235 C236 1.410 . S
C235 C243 1.503 1_645 S
C236 C235 1.410 . S
C236 C237 1.392 . S
C236 C239 1.511 1_655 S
C237 C233 1.376 . S
C237 C236 1.392 . S
C237 H249 0.929 . S
C238 C234 1.531 . S
C238 H250 0.960 1_655 S
C238 H251 0.962 1_545 S
C238 H252 0.960 . S
C239 C236 1.511 1_455 S
C239 H253 0.961 1_455 S
C239 H254 0.961 . S
C239 H255 0.961 . S
C240 C241 1.370 . S
C240 C242 1.363 1_455 S
C240 H256 0.931 . S
C241 C240 1.370 . S
C241 C245 1.408 . S
C242 C240 1.363 1_655 S
C242 C243 1.370 1_655 S
C242 C246 1.524 . S
C243 C235 1.503 1_465 S
C243 C242 1.370 1_455 S
C243 C244 1.403 . S
C244 C243 1.403 . S
C244 C245 1.404 . S
C244 C247 1.539 1_565 S
C245 C241 1.408 . S
C245 C244 1.404 . S
C245 H257 0.930 . S
C246 C242 1.524 . S
C246 H258 0.956 . S
C246 H259 0.961 . S
C246 H260 0.961 . S
C247 C244 1.539 1_545 S
C247 H261 0.958 . S
C247 H262 0.961 . S
C247 H263 0.960 . S
H248 C232 0.931 . S
H249 C237 0.929 . S
H250 C238 0.960 1_455 S
H251 C238 0.962 1_565 S
H252 C238 0.960 . S
H253 C239 0.961 1_655 S
H254 C239 0.961 . S
H255 C239 0.961 . S
H256 C240 0.931 . S
H257 C245 0.930 . S
H258 C246 0.956 . S
H259 C246 0.961 . S
H260 C246 0.961 . S
H261 C247 0.958 . S
H262 C247 0.961 . S
H263 C247 0.960 . S
C264 C265 1.391 . S
C264 C266 1.394 . S
C264 H280 0.931 . S
C265 C264 1.391 . S
C265 C269 1.376 . S
C266 C264 1.394 . S
C266 C267 1.369 . S
C266 C270 1.531 . S
C267 C266 1.369 . S
C267 C268 1.410 . S
C267 C275 1.503 . S
C268 C267 1.410 . S
C268 C269 1.392 . S
C268 C271 1.511 . S
C269 C265 1.376 . S
C269 C268 1.392 . S
C269 H281 0.929 . S
C270 C266 1.531 . S
C270 H282 0.960 . S
C270 H283 0.962 . S
C270 H284 0.960 . S
C271 C268 1.511 . S
C271 H285 0.961 . S
C271 H286 0.961 . S
C271 H287 0.961 . S
C272 C273 1.370 . S
C272 C274 1.363 . S
C272 H288 0.931 . S
C273 C272 1.370 . S
C273 C277 1.408 . S
C274 C272 1.363 . S
C274 C275 1.370 . S
C274 C278 1.524 . S
C275 C267 1.503 . S
C275 C274 1.370 . S
C275 C276 1.403 . S
C276 C275 1.403 . S
C276 C277 1.404 . S
C276 C279 1.539 . S
C277 C273 1.408 . S
C277 C276 1.404 . S
C277 H289 0.930 . S
C278 C274 1.524 . S
C278 H290 0.956 . S
C278 H291 0.961 . S
C278 H292 0.961 . S
C279 C276 1.539 . S
C279 H293 0.958 . S
C279 H294 0.961 . S
C279 H295 0.960 . S
H280 C264 0.931 . S
H281 C269 0.929 . S
H282 C270 0.960 . S
H283 C270 0.962 . S
H284 C270 0.960 . S
H285 C271 0.961 . S
H286 C271 0.961 . S
H287 C271 0.961 . S
H288 C272 0.931 . S
H289 C277 0.930 . S
H290 C278 0.956 . S
H291 C278 0.961 . S
H292 C278 0.961 . S
H293 C279 0.958 . S
H294 C279 0.961 . S
H295 C279 0.960 . S
C296 C297 1.391 . S
C296 C298 1.394 . S
C296 H312 0.931 . S
C297 C296 1.391 . S
C297 C301 1.376 . S
C298 C296 1.394 . S
C298 C299 1.369 . S
C298 C302 1.531 . S
C299 C298 1.369 . S
C299 C300 1.410 . S
C299 C307 1.503 . S
C300 C299 1.410 . S
C300 C301 1.392 . S
C300 C303 1.511 . S
C301 C297 1.376 . S
C301 C300 1.392 . S
C301 H313 0.929 . S
C302 C298 1.531 . S
C302 H314 0.960 . S
C302 H315 0.962 . S
C302 H316 0.960 . S
C303 C300 1.511 . S
C303 H317 0.961 . S
C303 H318 0.961 . S
C303 H319 0.961 . S
C304 C305 1.370 . S
C304 C306 1.363 . S
C304 H320 0.931 . S
C305 C304 1.370 . S
C305 C309 1.408 . S
C306 C304 1.363 . S
C306 C307 1.370 . S
C306 C310 1.524 . S
C307 C299 1.503 . S
C307 C306 1.370 . S
C307 C308 1.403 . S
C308 C307 1.403 . S
C308 C309 1.404 . S
C308 C311 1.539 . S
C309 C305 1.408 . S
C309 C308 1.404 . S
C309 H321 0.930 . S
C310 C306 1.524 . S
C310 H322 0.956 . S
C310 H323 0.961 . S
C310 H324 0.961 . S
C311 C308 1.539 . S
C311 H325 0.958 . S
C311 H326 0.961 . S
C311 H327 0.960 . S
H312 C296 0.931 . S
H313 C301 0.929 . S
H314 C302 0.960 . S
H315 C302 0.962 . S
H316 C302 0.960 . S
H317 C303 0.961 . S
H318 C303 0.961 . S
H319 C303 0.961 . S
H320 C304 0.931 . S
H321 C309 0.930 . S
H322 C310 0.956 . S
H323 C310 0.961 . S
H324 C310 0.961 . S
H325 C311 0.958 . S
H326 C311 0.961 . S
H327 C311 0.960 . S
C328 C329 1.391 . S
C328 C330 1.394 . S
C328 H344 0.931 . S
C329 C328 1.391 . S
C329 C333 1.376 . S
C330 C328 1.394 . S
C330 C331 1.369 . S
C330 C334 1.531 . S
C331 C330 1.369 . S
C331 C332 1.410 . S
C331 C339 1.503 . S
C332 C331 1.410 . S
C332 C333 1.392 . S
C332 C335 1.511 . S
C333 C329 1.376 . S
C333 C332 1.392 . S
C333 H345 0.929 . S
C334 C330 1.531 . S
C334 H346 0.960 . S
C334 H347 0.962 . S
C334 H348 0.960 . S
C335 C332 1.511 . S
C335 H349 0.961 . S
C335 H350 0.961 . S
C335 H351 0.961 . S
C336 C337 1.370 . S
C336 C338 1.363 . S
C336 H352 0.931 . S
C337 C336 1.370 . S
C337 C341 1.408 . S
C338 C336 1.363 . S
C338 C339 1.370 . S
C338 C342 1.524 . S
C339 C331 1.503 . S
C339 C338 1.370 . S
C339 C340 1.403 . S
C340 C339 1.403 . S
C340 C341 1.404 . S
C340 C343 1.539 . S
C341 C337 1.408 . S
C341 C340 1.404 . S
C341 H353 0.930 . S
C342 C338 1.524 . S
C342 H354 0.956 . S
C342 H355 0.961 . S
C342 H356 0.961 . S
C343 C340 1.539 . S
C343 H357 0.958 . S
C343 H358 0.961 . S
C343 H359 0.960 . S
H344 C328 0.931 . S
H345 C333 0.929 . S
H346 C334 0.960 . S
H347 C334 0.962 . S
H348 C334 0.960 . S
H349 C335 0.961 . S
H350 C335 0.961 . S
H351 C335 0.961 . S
H352 C336 0.931 . S
H353 C341 0.930 . S
H354 C342 0.956 . S
H355 C342 0.961 . S
H356 C342 0.961 . S
H357 C343 0.958 . S
H358 C343 0.961 . S
H359 C343 0.960 . S
C360 C361 1.391 . S
C360 C362 1.394 . S
C360 H376 0.931 . S
C361 C360 1.391 . S
C361 C365 1.376 . S
C362 C360 1.394 . S
C362 C363 1.369 . S
C362 C366 1.531 . S
C363 C362 1.369 . S
C363 C364 1.410 . S
C363 C371 1.503 . S
C364 C363 1.410 . S
C364 C365 1.392 . S
C364 C367 1.511 . S
C365 C361 1.376 . S
C365 C364 1.392 . S
C365 H377 0.929 . S
C366 C362 1.531 . S
C366 H378 0.960 . S
C366 H379 0.962 . S
C366 H380 0.960 . S
C367 C364 1.511 . S
C367 H381 0.961 . S
C367 H382 0.961 . S
C367 H383 0.961 . S
C368 C369 1.370 . S
C368 C370 1.363 . S
C368 H384 0.931 . S
C369 C368 1.370 . S
C369 C373 1.408 . S
C370 C368 1.363 . S
C370 C371 1.370 . S
C370 C374 1.524 . S
C371 C363 1.503 . S
C371 C370 1.370 . S
C371 C372 1.403 . S
C372 C371 1.403 . S
C372 C373 1.404 . S
C372 C375 1.539 . S
C373 C369 1.408 . S
C373 C372 1.404 . S
C373 H385 0.930 . S
C374 C370 1.524 . S
C374 H386 0.956 . S
C374 H387 0.961 . S
C374 H388 0.961 . S
C375 C372 1.539 . S
C375 H389 0.958 . S
C375 H390 0.961 . S
C375 H391 0.960 . S
H376 C360 0.931 . S
H377 C365 0.929 . S
H378 C366 0.960 . S
H379 C366 0.962 . S
H380 C366 0.960 . S
H381 C367 0.961 . S
H382 C367 0.961 . S
H383 C367 0.961 . S
H384 C368 0.931 . S
H385 C373 0.930 . S
H386 C374 0.956 . S
H387 C374 0.961 . S
H388 C374 0.961 . S
H389 C375 0.958 . S
H390 C375 0.961 . S
H391 C375 0.960 . S
C392 C393 1.391 . S
C392 C394 1.394 . S
C392 H408 0.931 . S
C393 C392 1.391 . S
C393 C397 1.376 . S
C394 C392 1.394 . S
C394 C395 1.369 . S
C394 C398 1.531 . S
C395 C394 1.369 . S
C395 C396 1.410 1_655 S
C395 C403 1.503 1_655 S
C396 C395 1.410 1_455 S
C396 C397 1.392 1_455 S
C396 C399 1.511 . S
C397 C393 1.376 . S
C397 C396 1.392 1_655 S
C397 H409 0.929 . S
C398 C394 1.531 . S
C398 H410 0.960 . S
C398 H411 0.962 . S
C398 H412 0.960 . S
C399 C396 1.511 . S
C399 H413 0.961 . S
C399 H414 0.961 . S
C399 H415 0.961 . S
C400 C401 1.370 . S
C400 C402 1.359 1_455 S
C400 H416 0.931 . S
C401 C400 1.370 . S
C401 C405 1.408 . S
C402 C400 1.359 1_655 S
C402 C403 1.367 1_655 S
C402 C406 1.532 . S
C403 C395 1.503 1_455 S
C403 C402 1.367 1_455 S
C403 C404 1.403 . S
C404 C403 1.403 . S
C404 C405 1.404 . S
C404 C407 1.539 . S
C405 C401 1.408 . S
C405 C404 1.404 . S
C405 H417 0.930 . S
C406 C402 1.532 . S
C406 H418 0.956 . S
C406 H419 0.961 . S
C406 H420 0.961 . S
C407 C404 1.539 . S
C407 H421 0.958 . S
C407 H422 0.961 . S
C407 H423 0.960 . S
H408 C392 0.931 . S
H409 C397 0.929 . S
H410 C398 0.960 . S
H411 C398 0.962 . S
H412 C398 0.960 . S
H413 C399 0.961 . S
H414 C399 0.961 . S
H415 C399 0.961 . S
H416 C400 0.931 . S
H417 C405 0.930 . S
H418 C406 0.956 . S
H419 C406 0.961 . S
H420 C406 0.961 . S
H421 C407 0.958 . S
H422 C407 0.961 . S
H423 C407 0.960 . S
C424 C425 1.391 . S
C424 C426 1.394 . S
C424 H440 0.931 . S
C425 C424 1.391 . S
C425 C429 1.376 . S
C426 C424 1.394 . S
C426 C427 1.369 . S
C426 C430 1.531 . S
C427 C426 1.369 . S
C427 C428 1.410 1_655 S
C427 C435 1.503 1_655 S
C428 C427 1.410 1_455 S
C428 C429 1.392 1_455 S
C428 C431 1.511 . S
C429 C425 1.376 . S
C429 C428 1.392 1_655 S
C429 H441 0.929 . S
C430 C426 1.531 . S
C430 H442 0.960 . S
C430 H443 0.962 . S
C430 H444 0.960 . S
C431 C428 1.511 . S
C431 H445 0.961 . S
C431 H446 0.961 . S
C431 H447 0.961 . S
C432 C433 1.370 . S
C432 C434 1.363 1_455 S
C432 H448 0.931 . S
C433 C432 1.370 . S
C433 C437 1.408 . S
C434 C432 1.363 1_655 S
C434 C435 1.370 1_655 S
C434 C438 1.524 . S
C435 C427 1.503 1_455 S
C435 C434 1.370 1_455 S
C435 C436 1.403 . S
C436 C435 1.403 . S
C436 C437 1.404 . S
C436 C439 1.539 . S
C437 C433 1.408 . S
C437 C436 1.404 . S
C437 H449 0.930 . S
C438 C434 1.524 . S
C438 H450 0.956 . S
C438 H451 0.961 . S
C438 H452 0.961 . S
C439 C436 1.539 . S
C439 H453 0.958 . S
C439 H454 0.961 . S
C439 H455 0.960 . S
H440 C424 0.931 . S
H441 C429 0.929 . S
H442 C430 0.960 . S
H443 C430 0.962 . S
H444 C430 0.960 . S
H445 C431 0.961 . S
H446 C431 0.961 . S
H447 C431 0.961 . S
H448 C432 0.931 . S
H449 C437 0.930 . S
H450 C438 0.956 . S
H451 C438 0.961 . S
H452 C438 0.961 . S
H453 C439 0.958 . S
H454 C439 0.961 . S
H455 C439 0.960 . S
C456 C457 1.391 . S
C456 C458 1.394 . S
C456 H472 0.931 . S
C457 C456 1.391 . S
C457 C461 1.376 . S
C458 C456 1.394 . S
C458 C459 1.369 . S
C458 C462 1.531 . S
C459 C458 1.369 . S
C459 C460 1.410 1_655 S
C459 C467 1.503 1_655 S
C460 C459 1.410 1_455 S
C460 C461 1.392 1_455 S
C460 C463 1.511 . S
C461 C457 1.376 . S
C461 C460 1.392 1_655 S
C461 H473 0.929 . S
C462 C458 1.531 . S
C462 H474 0.960 . S
C462 H475 0.962 . S
C462 H476 0.960 . S
C463 C460 1.511 . S
C463 H477 0.961 . S
C463 H478 0.961 . S
C463 H479 0.961 . S
C464 C465 1.370 . S
C464 C466 1.363 1_455 S
C464 H480 0.931 1_455 S
C465 C464 1.370 . S
C465 C469 1.408 . S
C466 C464 1.363 1_655 S
C466 C467 1.370 1_655 S
C466 C470 1.524 . S
C467 C459 1.503 1_455 S
C467 C466 1.370 1_455 S
C467 C468 1.403 . S
C468 C467 1.403 . S
C468 C469 1.404 . S
C468 C471 1.539 . S
C469 C465 1.408 . S
C469 C468 1.404 . S
C469 H481 0.930 . S
C470 C466 1.524 . S
C470 H482 0.956 . S
C470 H483 0.961 . S
C470 H484 0.961 . S
C471 C468 1.539 . S
C471 H485 0.958 . S
C471 H486 0.961 . S
C471 H487 0.960 . S
H472 C456 0.931 . S
H473 C461 0.929 . S
H474 C462 0.960 . S
H475 C462 0.962 . S
H476 C462 0.960 . S
H477 C463 0.961 . S
H478 C463 0.961 . S
H479 C463 0.961 . S
H480 C464 0.931 1_655 S
H481 C469 0.930 . S
H482 C470 0.956 . S
H483 C470 0.961 . S
H484 C470 0.961 . S
H485 C471 0.958 . S
H486 C471 0.961 . S
H487 C471 0.960 . S
C488 C489 1.391 . S
C488 C490 1.394 . S
C488 H504 0.931 . S
C489 C488 1.391 . S
C489 C493 1.376 . S
C490 C488 1.394 . S
C490 C491 1.369 . S
C490 C494 1.531 . S
C491 C490 1.369 . S
C491 C492 1.410 1_455 S
C491 C499 1.503 1_455 S
C492 C491 1.410 1_655 S
C492 C493 1.392 1_655 S
C492 C495 1.511 . S
C493 C489 1.376 . S
C493 C492 1.392 1_455 S
C493 H505 0.925 1_455 S
C494 C490 1.531 . S
C494 H506 0.960 . S
C494 H507 0.962 . S
C494 H508 0.960 . S
C495 C492 1.511 . S
C495 H509 0.961 . S
C495 H510 0.961 . S
C495 H511 0.961 . S
C496 C497 1.370 . S
C496 C498 1.363 . S
C496 H512 0.931 . S
C497 C496 1.370 . S
C497 C501 1.408 . S
C498 C496 1.363 . S
C498 C499 1.370 . S
C498 C502 1.524 1_655 S
C499 C491 1.503 1_655 S
C499 C498 1.370 . S
C499 C500 1.403 . S
C500 C499 1.403 . S
C500 C501 1.404 . S
C500 C503 1.539 . S
C501 C497 1.408 . S
C501 C500 1.404 . S
C501 H513 0.930 . S
C502 C498 1.524 1_455 S
C502 H514 0.956 . S
C502 H515 0.961 . S
C502 H516 0.961 . S
C503 C500 1.539 . S
C503 H517 0.958 . S
C503 H518 0.961 . S
C503 H519 0.960 . S
H504 C488 0.931 . S
H505 C493 0.925 1_655 S
H506 C494 0.960 . S
H507 C494 0.962 . S
H508 C494 0.960 . S
H509 C495 0.961 . S
H510 C495 0.961 . S
H511 C495 0.961 . S
H512 C496 0.931 . S
H513 C501 0.930 . S
H514 C502 0.956 . S
H515 C502 0.961 . S
H516 C502 0.961 . S
H517 C503 0.958 . S
H518 C503 0.961 . S
H519 C503 0.960 . S
C137 C47 1.638 1_554 S
C145 C4 1.631 . S
C169 C72 1.622 . S
C177 C115 1.636 . S
C201 C13 1.637 . S
C209 C38 1.630 1_556 S
C233 C106 1.614 . S
C241 C81 1.640 . S
C265 C131 1.006 . S
C273 C17 1.009 . S
C297 C63 1.019 . S
C305 C85 1.012 . S
C329 C42 1.022 . S
C337 C68 1.003 . S
C361 C110 1.005 . S
C369 C0 1.019 . S
C393 C51 1.022 . S
C401 C97 1.003 . S
C425 C119 1.023 . S
C433 C29 1.003 . S
C457 C102 1.021 . S
C465 C8 1.008 . S
C489 C76 1.013 . S
C497 C34 1.002 . S
