# Generated by pormake.
# Topology wjc, (7)-cn, num edge types: 1
# Building blocks:
#     Node 0, Type 0, BuildingBlock: NUHQUE_clean_sbu_2, # of connection points: 7
#     Node 1, Type 0, BuildingBlock: NUHQUE_clean_sbu_2, # of connection points: 7
#     Node 2, Type 0, BuildingBlock: NUHQUE_clean_sbu_2, # of connection points: 7
#     Node 3, Type 0, BuildingBlock: NUHQUE_clean_sbu_2, # of connection points: 7
#     Node 4, Type 0, BuildingBlock: NUHQUE_clean_sbu_2, # of connection points: 7
#     Node 5, Type 0, BuildingBlock: NUHQUE_clean_sbu_2, # of connection points: 7
#     Node 6, Type 0, BuildingBlock: NUHQUE_clean_sbu_2, # of connection points: 7
#     Node 7, Type 0, BuildingBlock: NUHQUE_clean_sbu_2, # of connection points: 7
#     Node 8, Type 0, BuildingBlock: NUHQUE_clean_sbu_2, # of connection points: 7
#     Node 9, Type 0, BuildingBlock: NUHQUE_clean_sbu_2, # of connection points: 7
#     Node 10, Type 0, BuildingBlock: NUHQUE_clean_sbu_2, # of connection points: 7
#     Node 11, Type 0, BuildingBlock: NUHQUE_clean_sbu_2, # of connection points: 7
#     Node 12, Type 0, BuildingBlock: NUHQUE_clean_sbu_2, # of connection points: 7
#     Node 13, Type 0, BuildingBlock: NUHQUE_clean_sbu_2, # of connection points: 7
#     Node 14, Type 0, BuildingBlock: NUHQUE_clean_sbu_2, # of connection points: 7
#     Node 15, Type 0, BuildingBlock: NUHQUE_clean_sbu_2, # of connection points: 7
#     Node 16, Type 0, BuildingBlock: NUHQUE_clean_sbu_2, # of connection points: 7
#     Node 17, Type 0, BuildingBlock: NUHQUE_clean_sbu_2, # of connection points: 7
#     Node 18, Type 0, BuildingBlock: NUHQUE_clean_sbu_2, # of connection points: 7
#     Node 19, Type 0, BuildingBlock: NUHQUE_clean_sbu_2, # of connection points: 7
#     Node 20, Type 0, BuildingBlock: NUHQUE_clean_sbu_2, # of connection points: 7
#     Node 21, Type 0, BuildingBlock: NUHQUE_clean_sbu_2, # of connection points: 7
#     Node 22, Type 0, BuildingBlock: NUHQUE_clean_sbu_2, # of connection points: 7
#     Node 23, Type 0, BuildingBlock: NUHQUE_clean_sbu_2, # of connection points: 7
#     Edge 24, Type (0, 0), BuildingBlock: OJICUG_clean_linker_0, # of connection points: 2
#     Edge 25, Type (0, 0), BuildingBlock: OJICUG_clean_linker_0, # of connection points: 2
#     Edge 26, Type (0, 0), BuildingBlock: OJICUG_clean_linker_0, # of connection points: 2
#     Edge 27, Type (0, 0), BuildingBlock: OJICUG_clean_linker_0, # of connection points: 2
#     Edge 28, Type (0, 0), BuildingBlock: OJICUG_clean_linker_0, # of connection points: 2
#     Edge 29, Type (0, 0), BuildingBlock: OJICUG_clean_linker_0, # of connection points: 2
#     Edge 30, Type (0, 0), BuildingBlock: OJICUG_clean_linker_0, # of connection points: 2
#     Edge 31, Type (0, 0), BuildingBlock: OJICUG_clean_linker_0, # of connection points: 2
#     Edge 32, Type (0, 0), BuildingBlock: OJICUG_clean_linker_0, # of connection points: 2
#     Edge 33, Type (0, 0), BuildingBlock: OJICUG_clean_linker_0, # of connection points: 2
#     Edge 34, Type (0, 0), BuildingBlock: OJICUG_clean_linker_0, # of connection points: 2
#     Edge 35, Type (0, 0), BuildingBlock: OJICUG_clean_linker_0, # of connection points: 2
#     Edge 36, Type (0, 0), BuildingBlock: OJICUG_clean_linker_0, # of connection points: 2
#     Edge 37, Type (0, 0), BuildingBlock: OJICUG_clean_linker_0, # of connection points: 2
#     Edge 38, Type (0, 0), BuildingBlock: OJICUG_clean_linker_0, # of connection points: 2
#     Edge 39, Type (0, 0), BuildingBlock: OJICUG_clean_linker_0, # of connection points: 2
#     Edge 40, Type (0, 0), BuildingBlock: OJICUG_clean_linker_0, # of connection points: 2
#     Edge 41, Type (0, 0), BuildingBlock: OJICUG_clean_linker_0, # of connection points: 2
#     Edge 42, Type (0, 0), BuildingBlock: OJICUG_clean_linker_0, # of connection points: 2
#     Edge 43, Type (0, 0), BuildingBlock: OJICUG_clean_linker_0, # of connection points: 2
#     Edge 44, Type (0, 0), BuildingBlock: OJICUG_clean_linker_0, # of connection points: 2
#     Edge 45, Type (0, 0), BuildingBlock: OJICUG_clean_linker_0, # of connection points: 2
#     Edge 46, Type (0, 0), BuildingBlock: OJICUG_clean_linker_0, # of connection points: 2
#     Edge 47, Type (0, 0), BuildingBlock: OJICUG_clean_linker_0, # of connection points: 2
#     Edge 48, Type (0, 0), BuildingBlock: OJICUG_clean_linker_0, # of connection points: 2
#     Edge 49, Type (0, 0), BuildingBlock: OJICUG_clean_linker_0, # of connection points: 2
#     Edge 50, Type (0, 0), BuildingBlock: OJICUG_clean_linker_0, # of connection points: 2
#     Edge 51, Type (0, 0), BuildingBlock: OJICUG_clean_linker_0, # of connection points: 2
#     Edge 52, Type (0, 0), BuildingBlock: OJICUG_clean_linker_0, # of connection points: 2
#     Edge 53, Type (0, 0), BuildingBlock: OJICUG_clean_linker_0, # of connection points: 2
#     Edge 54, Type (0, 0), BuildingBlock: OJICUG_clean_linker_0, # of connection points: 2
#     Edge 55, Type (0, 0), BuildingBlock: OJICUG_clean_linker_0, # of connection points: 2
#     Edge 56, Type (0, 0), BuildingBlock: OJICUG_clean_linker_0, # of connection points: 2
#     Edge 57, Type (0, 0), BuildingBlock: OJICUG_clean_linker_0, # of connection points: 2
#     Edge 58, Type (0, 0), BuildingBlock: OJICUG_clean_linker_0, # of connection points: 2
#     Edge 59, Type (0, 0), BuildingBlock: OJICUG_clean_linker_0, # of connection points: 2
#     Edge 60, Type (0, 0), BuildingBlock: OJICUG_clean_linker_0, # of connection points: 2
#     Edge 61, Type (0, 0), BuildingBlock: OJICUG_clean_linker_0, # of connection points: 2
#     Edge 62, Type (0, 0), BuildingBlock: OJICUG_clean_linker_0, # of connection points: 2
#     Edge 63, Type (0, 0), BuildingBlock: OJICUG_clean_linker_0, # of connection points: 2
#     Edge 64, Type (0, 0), BuildingBlock: OJICUG_clean_linker_0, # of connection points: 2
#     Edge 65, Type (0, 0), BuildingBlock: OJICUG_clean_linker_0, # of connection points: 2
#     Edge 66, Type (0, 0), BuildingBlock: OJICUG_clean_linker_0, # of connection points: 2
#     Edge 67, Type (0, 0), BuildingBlock: OJICUG_clean_linker_0, # of connection points: 2
#     Edge 68, Type (0, 0), BuildingBlock: OJICUG_clean_linker_0, # of connection points: 2
#     Edge 69, Type (0, 0), BuildingBlock: OJICUG_clean_linker_0, # of connection points: 2
#     Edge 70, Type (0, 0), BuildingBlock: OJICUG_clean_linker_0, # of connection points: 2
#     Edge 71, Type (0, 0), BuildingBlock: OJICUG_clean_linker_0, # of connection points: 2
#     Edge 72, Type (0, 0), BuildingBlock: OJICUG_clean_linker_0, # of connection points: 2
#     Edge 73, Type (0, 0), BuildingBlock: OJICUG_clean_linker_0, # of connection points: 2
#     Edge 74, Type (0, 0), BuildingBlock: OJICUG_clean_linker_0, # of connection points: 2
#     Edge 75, Type (0, 0), BuildingBlock: OJICUG_clean_linker_0, # of connection points: 2
#     Edge 76, Type (0, 0), BuildingBlock: OJICUG_clean_linker_0, # of connection points: 2
#     Edge 77, Type (0, 0), BuildingBlock: OJICUG_clean_linker_0, # of connection points: 2
#     Edge 78, Type (0, 0), BuildingBlock: OJICUG_clean_linker_0, # of connection points: 2
#     Edge 79, Type (0, 0), BuildingBlock: OJICUG_clean_linker_0, # of connection points: 2
#     Edge 80, Type (0, 0), BuildingBlock: OJICUG_clean_linker_0, # of connection points: 2
#     Edge 81, Type (0, 0), BuildingBlock: OJICUG_clean_linker_0, # of connection points: 2
#     Edge 82, Type (0, 0), BuildingBlock: OJICUG_clean_linker_0, # of connection points: 2
#     Edge 83, Type (0, 0), BuildingBlock: OJICUG_clean_linker_0, # of connection points: 2
#     Edge 84, Type (0, 0), BuildingBlock: OJICUG_clean_linker_0, # of connection points: 2
#     Edge 85, Type (0, 0), BuildingBlock: OJICUG_clean_linker_0, # of connection points: 2
#     Edge 86, Type (0, 0), BuildingBlock: OJICUG_clean_linker_0, # of connection points: 2
#     Edge 87, Type (0, 0), BuildingBlock: OJICUG_clean_linker_0, # of connection points: 2
#     Edge 88, Type (0, 0), BuildingBlock: OJICUG_clean_linker_0, # of connection points: 2
#     Edge 89, Type (0, 0), BuildingBlock: OJICUG_clean_linker_0, # of connection points: 2
#     Edge 90, Type (0, 0), BuildingBlock: OJICUG_clean_linker_0, # of connection points: 2
#     Edge 91, Type (0, 0), BuildingBlock: OJICUG_clean_linker_0, # of connection points: 2
#     Edge 92, Type (0, 0), BuildingBlock: OJICUG_clean_linker_0, # of connection points: 2
#     Edge 93, Type (0, 0), BuildingBlock: OJICUG_clean_linker_0, # of connection points: 2
#     Edge 94, Type (0, 0), BuildingBlock: OJICUG_clean_linker_0, # of connection points: 2
#     Edge 95, Type (0, 0), BuildingBlock: OJICUG_clean_linker_0, # of connection points: 2
#     Edge 96, Type (0, 0), BuildingBlock: OJICUG_clean_linker_0, # of connection points: 2
#     Edge 97, Type (0, 0), BuildingBlock: OJICUG_clean_linker_0, # of connection points: 2
#     Edge 98, Type (0, 0), BuildingBlock: OJICUG_clean_linker_0, # of connection points: 2
#     Edge 99, Type (0, 0), BuildingBlock: OJICUG_clean_linker_0, # of connection points: 2
#     Edge 100, Type (0, 0), BuildingBlock: OJICUG_clean_linker_0, # of connection points: 2
#     Edge 101, Type (0, 0), BuildingBlock: OJICUG_clean_linker_0, # of connection points: 2
#     Edge 102, Type (0, 0), BuildingBlock: OJICUG_clean_linker_0, # of connection points: 2
#     Edge 103, Type (0, 0), BuildingBlock: OJICUG_clean_linker_0, # of connection points: 2
#     Edge 104, Type (0, 0), BuildingBlock: OJICUG_clean_linker_0, # of connection points: 2
#     Edge 105, Type (0, 0), BuildingBlock: OJICUG_clean_linker_0, # of connection points: 2
#     Edge 106, Type (0, 0), BuildingBlock: OJICUG_clean_linker_0, # of connection points: 2
#     Edge 107, Type (0, 0), BuildingBlock: OJICUG_clean_linker_0, # of connection points: 2
# Relax obj value: 0.266
# Max RMSD: 0.226
# Mean RMSD: 0.226
data_MOF--net-wjc--node1-NUHQUE_clean_sbu_2--edge1-OJICUG_clean_linker_0
_symmetry_space_group_name_H-M    P1
_symmetry_Int_Tables_number       1
_symmetry_cell_setting            triclinic
loop_
_symmetry_equiv_pos_as_xyz
'x, y, z'
_cell_length_a     40.35978
_cell_length_b     40.368104
_cell_length_c     40.730657
_cell_angle_alpha  90.068185
_cell_angle_beta   90.059336
_cell_angle_gamma 120.13869
loop_
_atom_site_label
_atom_site_type_symbol
_atom_site_fract_x
_atom_site_fract_y
_atom_site_fract_z
_atom_type_partial_charge
O0 O 0.50038 0.25989 0.11637 0.0
Tb1 Tb 0.44234 0.21321 0.12385 0.0
Eu2 Eu 0.40292 0.11618 0.13502 0.0
C3 C 0.52163 0.28087 0.14101 0.0
O4 O 0.51046 0.26904 0.17115 0.0
C5 C 0.40935 0.17309 0.18828 0.0
O6 O 0.36826 0.05162 0.13326 0.0
C7 C 0.47454 0.13719 0.14463 0.0
C8 C 0.33077 0.03251 0.1296 0.0
O9 O 0.31223 0.05142 0.12717 0.0
C10 C 0.41048 0.15441 0.0649 0.0
C11 C 0.50567 0.13052 0.13438 0.0
C12 C 0.54347 0.16136 0.13564 0.0
C13 C 0.57416 0.15562 0.12858 0.0
C14 C 0.56706 0.11885 0.12072 0.0
C15 C 0.52964 0.08753 0.12026 0.0
C16 C 0.49879 0.0936 0.12641 0.0
O17 O 0.44233 0.19385 0.17346 0.0
O18 O 0.38298 0.14158 0.17401 0.0
O19 O 0.43633 0.2638 0.12477 0.0
O20 O 0.386 0.20912 0.12093 0.0
C21 C 0.39926 0.24596 0.12255 0.0
O22 O 0.38834 0.12457 0.0833 0.0
O23 O 0.43955 0.18585 0.07712 0.0
O24 O 0.44616 0.10975 0.16122 0.0
O25 O 0.46347 0.15445 0.12375 0.0
H26 H 0.54906 0.18961 0.14276 0.0
H27 H 0.59101 0.11434 0.11621 0.0
H28 H 0.46976 0.06948 0.12659 0.0
O29 O 0.23204 0.49225 0.12301 0.0
Tb30 Tb 0.22388 0.43504 0.12306 0.0
Eu31 Eu 0.29882 0.39415 0.13159 0.0
C32 C 0.23383 0.50881 0.09481 0.0
O33 O 0.23495 0.49187 0.06761 0.0
C34 C 0.24183 0.39577 0.17749 0.0
O35 O 0.33097 0.36219 0.1271 0.0
C36 C 0.34572 0.46775 0.13604 0.0
C37 C 0.31269 0.32456 0.12563 0.0
O38 O 0.27506 0.30552 0.12634 0.0
C39 C 0.25123 0.39885 0.06942 0.0
C40 C 0.38547 0.49764 0.1293 0.0
C41 C 0.39382 0.53569 0.12566 0.0
C42 C 0.43137 0.56492 0.11911 0.0
C43 C 0.46066 0.55598 0.117 0.0
C44 C 0.45296 0.51834 0.12124 0.0
C45 C 0.41505 0.48895 0.12682 0.0
O46 O 0.25704 0.42729 0.16026 0.0
O47 O 0.25517 0.37278 0.17207 0.0
O48 O 0.17143 0.39708 0.09584 0.0
O49 O 0.16871 0.40026 0.14768 0.0
C50 C 0.14878 0.38492 0.12117 0.0
O51 O 0.26175 0.37729 0.0858 0.0
O52 O 0.25545 0.43109 0.08152 0.0
O53 O 0.34011 0.44366 0.15993 0.0
O54 O 0.32399 0.45126 0.11039 0.0
H55 H 0.37112 0.54252 0.12778 0.0
H56 H 0.48987 0.57869 0.11266 0.0
H57 H 0.40876 0.45971 0.13011 0.0
O58 O 0.75537 0.23882 0.12524 0.0
Tb59 Tb 0.80246 0.22835 0.13229 0.0
Eu60 Eu 0.89947 0.28176 0.13998 0.0
C61 C 0.734 0.23779 0.14996 0.0
O62 O 0.74503 0.23634 0.18003 0.0
C63 C 0.84408 0.23916 0.19622 0.0
O64 O 0.96255 0.30071 0.14111 0.0
C65 C 0.88937 0.34016 0.14835 0.0
C66 C 0.98383 0.31292 0.11451 0.0
O67 O 0.96779 0.31331 0.08655 0.0
C68 C 0.85754 0.25628 0.07108 0.0
C69 C 0.89504 0.37626 0.13381 0.0
C70 C 0.86374 0.38261 0.13263 0.0
C71 C 0.86878 0.4179 0.12185 0.0
C72 C 0.90542 0.44707 0.11288 0.0
C73 C 0.93701 0.4417 0.11477 0.0
C74 C 0.93169 0.40596 0.12452 0.0
O75 O 0.8242 0.25167 0.18055 0.0
O76 O 0.87272 0.23909 0.18114 0.0
O77 O 0.80697 0.17635 0.1277 0.0
O78 O 0.75258 0.17107 0.13603 0.0
C79 C 0.77046 0.15218 0.13173 0.0
O80 O 0.88705 0.25987 0.0879 0.0
O81 O 0.8276 0.25464 0.08556 0.0
O82 O 0.91972 0.33924 0.15877 0.0
O83 O 0.86358 0.3079 0.13482 0.0
H84 H 0.83571 0.36048 0.14082 0.0
H85 H 0.90978 0.47492 0.1059 0.0
H86 H 0.95631 0.40208 0.12649 0.0
O87 O 0.53468 0.7447 0.10316 0.0
Tb88 Tb 0.58897 0.79281 0.11871 0.0
Eu89 Eu 0.62367 0.90101 0.13063 0.0
C90 C 0.50564 0.7273 0.12346 0.0
O91 O 0.50683 0.74361 0.1517 0.0
C92 C 0.6124 0.83992 0.17923 0.0
O93 O 0.65529 0.96581 0.13142 0.0
C94 C 0.54978 0.87338 0.12766 0.0
C95 C 0.69284 0.98611 0.12841 0.0
O96 O 0.71221 0.96818 0.12468 0.0
C97 C 0.62995 0.85782 0.0654 0.0
C98 C 0.5208 0.88401 0.11939 0.0
C99 C 0.48216 0.85511 0.11709 0.0
C100 C 0.45372 0.86455 0.11085 0.0
C101 C 0.46408 0.90313 0.10752 0.0
C102 C 0.50244 0.93255 0.11037 0.0
C103 C 0.53087 0.92259 0.11583 0.0
O104 O 0.58339 0.82365 0.15906 0.0
O105 O 0.6388 0.87522 0.17289 0.0
O106 O 0.59856 0.74754 0.13733 0.0
O107 O 0.64522 0.79662 0.11582 0.0
C108 C 0.63447 0.76341 0.12924 0.0
O109 O 0.64777 0.88739 0.08562 0.0
O110 O 0.59997 0.82455 0.07348 0.0
O111 O 0.57047 0.88939 0.15402 0.0
O112 O 0.56978 0.87099 0.10336 0.0
H113 H 0.47418 0.82538 0.12054 0.0
H114 H 0.44164 0.91019 0.10463 0.0
H115 H 0.5607 0.94472 0.11795 0.0
O116 O 0.78771 0.51853 0.11265 0.0
Tb117 Tb 0.79722 0.57576 0.12149 0.0
Eu118 Eu 0.73496 0.61362 0.13464 0.0
C119 C 0.78688 0.49693 0.13718 0.0
O120 O 0.78574 0.50785 0.16735 0.0
C121 C 0.78207 0.60146 0.18646 0.0
O122 O 0.70331 0.64669 0.13679 0.0
C123 C 0.68701 0.54012 0.13787 0.0
C124 C 0.72026 0.68332 0.12914 0.0
O125 O 0.75628 0.70082 0.11984 0.0
C126 C 0.77354 0.61346 0.06615 0.0
C127 C 0.64745 0.5101 0.13067 0.0
C128 C 0.63848 0.47171 0.13059 0.0
C129 C 0.60068 0.44232 0.12543 0.0
C130 C 0.57173 0.4514 0.12097 0.0
C131 C 0.57996 0.48958 0.12157 0.0
C132 C 0.61828 0.51899 0.12595 0.0
O133 O 0.77114 0.57051 0.16882 0.0
O134 O 0.77931 0.62999 0.17416 0.0
O135 O 0.8548 0.58386 0.12317 0.0
O136 O 0.84873 0.63311 0.12324 0.0
C137 C 0.87324 0.62102 0.12371 0.0
O138 O 0.7654 0.63411 0.08612 0.0
O139 O 0.77409 0.58261 0.07578 0.0
O140 O 0.69168 0.5643 0.16143 0.0
O141 O 0.7098 0.55651 0.11284 0.0
H142 H 0.66077 0.46467 0.13488 0.0
H143 H 0.54233 0.42825 0.11873 0.0
H144 H 0.62546 0.54872 0.12625 0.0
O145 O 0.27037 0.78451 0.0997 0.0
Tb146 Tb 0.22167 0.79162 0.11084 0.0
Eu147 Eu 0.12384 0.72744 0.11949 0.0
C148 C 0.29122 0.78184 0.12328 0.0
O149 O 0.27865 0.77701 0.15362 0.0
C150 C 0.1787 0.76936 0.1755 0.0
O151 O 0.05919 0.69491 0.11956 0.0
C152 C 0.14764 0.67829 0.12081 0.0
C153 C 0.03896 0.71221 0.12156 0.0
O154 O 0.05681 0.74978 0.12314 0.0
C155 C 0.16239 0.76849 0.05198 0.0
C156 C 0.13752 0.63974 0.10924 0.0
C157 C 0.16691 0.63135 0.10419 0.0
C158 C 0.15795 0.59403 0.09618 0.0
C159 C 0.11959 0.56491 0.09388 0.0
C160 C 0.08967 0.57243 0.09945 0.0
C161 C 0.09899 0.61039 0.1064 0.0
O162 O 0.20142 0.76245 0.15742 0.0
O163 O 0.14867 0.76814 0.16188 0.0
O164 O 0.27115 0.84845 0.11801 0.0
O165 O 0.21615 0.8431 0.11507 0.0
C166 C 0.25275 0.86711 0.11875 0.0
O167 O 0.13234 0.75744 0.07109 0.0
O168 O 0.1953 0.77306 0.06272 0.0
O169 O 0.1251 0.68 0.1431 0.0
O170 O 0.15931 0.70563 0.09887 0.0
H171 H 0.19662 0.65353 0.10729 0.0
H172 H 0.11332 0.53579 0.08978 0.0
H173 H 0.07644 0.61701 0.1106 0.0
O174 O 0.74238 0.51465 0.39419 0.0
Tb175 Tb 0.78826 0.57143 0.38148 0.0
Eu176 Eu 0.88695 0.6046 0.37064 0.0
C177 C 0.72076 0.49038 0.37132 0.0
O178 O 0.73159 0.49805 0.34052 0.0
C179 C 0.83101 0.59631 0.31763 0.0
O180 O 0.95122 0.63409 0.37274 0.0
C181 C 0.86031 0.53119 0.36892 0.0
C182 C 0.97261 0.67082 0.37932 0.0
O183 O 0.95629 0.69162 0.3837 0.0
C184 C 0.84978 0.61013 0.43828 0.0
C185 C 0.86924 0.50189 0.38017 0.0
C186 C 0.83881 0.4647 0.38578 0.0
C187 C 0.84617 0.43538 0.39387 0.0
C188 C 0.88399 0.44303 0.39584 0.0
C189 C 0.91502 0.47984 0.38982 0.0
C190 C 0.90733 0.50952 0.38251 0.0
O191 O 0.81041 0.56529 0.33502 0.0
O192 O 0.86317 0.62355 0.32995 0.0
O193 O 0.73745 0.57618 0.37359 0.0
O194 O 0.79144 0.62728 0.37764 0.0
C195 C 0.75475 0.61331 0.37334 0.0
O196 O 0.87934 0.62733 0.41844 0.0
O197 O 0.81575 0.58232 0.42915 0.0
O198 O 0.88285 0.55493 0.34628 0.0
O199 O 0.84987 0.54764 0.39123 0.0
H200 H 0.80945 0.45834 0.383 0.0
H201 H 0.88888 0.4193 0.40002 0.0
H202 H 0.93072 0.53824 0.37784 0.0
O203 O 0.21906 0.71345 0.38954 0.0
Tb204 Tb 0.21138 0.76219 0.38163 0.0
Eu205 Eu 0.25898 0.85236 0.36421 0.0
C206 C 0.22496 0.69549 0.36534 0.0
O207 O 0.23255 0.7108 0.33592 0.0
C208 C 0.21068 0.79331 0.31395 0.0
O209 O 0.27812 0.91486 0.36504 0.0
C210 C 0.31478 0.84048 0.34943 0.0
C211 C 0.26722 0.9306 0.34248 0.0
O212 O 0.24608 0.9098 0.31773 0.0
C213 C 0.24589 0.82372 0.43755 0.0
C214 C 0.35427 0.84954 0.35666 0.0
C215 C 0.3626 0.81966 0.35591 0.0
C216 C 0.40035 0.82756 0.35986 0.0
C217 C 0.4299 0.86543 0.36426 0.0
C218 C 0.42244 0.89581 0.36378 0.0
C219 C 0.38428 0.88759 0.36064 0.0
O220 O 0.22468 0.77467 0.32975 0.0
O221 O 0.21093 0.82228 0.32856 0.0
O222 O 0.16276 0.77204 0.38636 0.0
O223 O 0.15279 0.71506 0.38564 0.0
C224 C 0.13661 0.73585 0.38728 0.0
O225 O 0.24543 0.84902 0.41773 0.0
O226 O 0.24217 0.79144 0.42627 0.0
O227 O 0.31007 0.86742 0.3359 0.0
O228 O 0.28789 0.81923 0.37061 0.0
H229 H 0.33993 0.79045 0.35148 0.0
H230 H 0.45913 0.87132 0.36674 0.0
H231 H 0.37816 0.91081 0.35966 0.0
O232 O 0.43522 0.1742 0.33079 0.0
Tb233 Tb 0.38188 0.16729 0.35016 0.0
Eu234 Eu 0.39083 0.28367 0.36581 0.0
C235 C 0.46705 0.1906 0.3482 0.0
O236 O 0.46818 0.20868 0.37538 0.0
C237 C 0.3778 0.2285 0.30829 0.0
O238 O 0.35647 0.31394 0.3651 0.0
C239 C 0.46108 0.32756 0.38534 0.0
C240 C 0.31884 0.29507 0.36784 0.0
O241 O 0.30077 0.25762 0.37085 0.0
C242 C 0.38782 0.2181 0.40952 0.0
C243 C 0.49185 0.36774 0.3872 0.0
C244 C 0.53007 0.37602 0.38793 0.0
C245 C 0.56006 0.41408 0.38954 0.0
C246 C 0.55171 0.44381 0.38988 0.0
C247 C 0.51377 0.43604 0.38806 0.0
C248 C 0.48374 0.39776 0.38721 0.0
O249 O 0.36291 0.20575 0.33345 0.0
O250 O 0.38909 0.26487 0.31296 0.0
O251 O 0.33945 0.11532 0.32499 0.0
O252 O 0.34957 0.11316 0.37603 0.0
C253 C 0.33039 0.09319 0.35059 0.0
O254 O 0.36594 0.22655 0.39154 0.0
O255 O 0.39588 0.19192 0.39925 0.0
O256 O 0.45201 0.31242 0.35586 0.0
O257 O 0.43121 0.31709 0.40443 0.0
H258 H 0.53649 0.35296 0.38718 0.0
H259 H 0.57505 0.47327 0.3906 0.0
H260 H 0.45429 0.39135 0.38546 0.0
O261 O 0.25036 0.47875 0.36692 0.0
Tb262 Tb 0.20248 0.42074 0.36191 0.0
Eu263 Eu 0.10473 0.37071 0.35169 0.0
C264 C 0.27249 0.49684 0.34175 0.0
O265 O 0.26143 0.48232 0.31219 0.0
C266 C 0.16309 0.3881 0.29625 0.0
O267 O 0.04229 0.32416 0.3505 0.0
C268 C 0.10951 0.43688 0.34298 0.0
C269 C 0.02027 0.31847 0.37619 0.0
O270 O 0.03584 0.33846 0.40301 0.0
C271 C 0.14514 0.39294 0.42081 0.0
C272 C 0.10458 0.46745 0.35813 0.0
C273 C 0.13708 0.50409 0.36156 0.0
C274 C 0.13346 0.53494 0.37269 0.0
C275 C 0.09709 0.52933 0.37989 0.0
C276 C 0.0643 0.49337 0.37593 0.0
C277 C 0.06807 0.46215 0.36559 0.0
O278 O 0.18248 0.42045 0.31242 0.0
O279 O 0.13409 0.35845 0.3103 0.0
O280 O 0.19909 0.3646 0.36661 0.0
O281 O 0.25339 0.41517 0.36307 0.0
C282 C 0.23608 0.37822 0.36579 0.0
O283 O 0.11895 0.36377 0.4038 0.0
O284 O 0.17409 0.42265 0.40667 0.0
O285 O 0.07889 0.40413 0.33559 0.0
O286 O 0.13807 0.43304 0.35358 0.0
H287 H 0.16514 0.50889 0.35478 0.0
H288 H 0.09408 0.55353 0.38729 0.0
H289 H 0.04259 0.43446 0.36191 0.0
O290 O 0.77327 0.26209 0.36529 0.0
Tb291 Tb 0.78066 0.21271 0.36495 0.0
Eu292 Eu 0.69883 0.09313 0.35101 0.0
C293 C 0.76793 0.27481 0.39332 0.0
O294 O 0.76367 0.25503 0.42015 0.0
C295 C 0.75904 0.15619 0.30897 0.0
O296 O 0.6674 0.02876 0.34835 0.0
C297 C 0.6515 0.11948 0.34989 0.0
C298 C 0.68624 0.01026 0.35208 0.0
O299 O 0.72336 0.02994 0.35739 0.0
C300 C 0.75044 0.14428 0.41219 0.0
C301 C 0.61008 0.10579 0.35004 0.0
C302 C 0.59721 0.13203 0.34509 0.0
C303 C 0.55778 0.11919 0.34406 0.0
C304 C 0.5315 0.08025 0.34887 0.0
C305 C 0.54378 0.05389 0.35465 0.0
C306 C 0.58329 0.06676 0.35477 0.0
O307 O 0.74524 0.17183 0.32858 0.0
O308 O 0.74334 0.119 0.31092 0.0
O309 O 0.83525 0.22782 0.34122 0.0
O310 O 0.83223 0.22703 0.39332 0.0
C311 C 0.85478 0.23383 0.36826 0.0
O312 O 0.7366 0.11106 0.3967 0.0
O313 O 0.74384 0.17102 0.40109 0.0
O314 O 0.665 0.112 0.32335 0.0
O315 O 0.66607 0.11448 0.37699 0.0
H316 H 0.61774 0.16217 0.34161 0.0
H317 H 0.50107 0.07041 0.34819 0.0
H318 H 0.59323 0.04665 0.35889 0.0
O319 O 0.50573 0.75291 0.36158 0.0
Tb320 Tb 0.56499 0.7687 0.35427 0.0
Eu321 Eu 0.60497 0.71109 0.35194 0.0
C322 C 0.48441 0.75273 0.33713 0.0
O323 O 0.49712 0.75563 0.30697 0.0
C324 C 0.60236 0.75712 0.29523 0.0
O325 O 0.63707 0.67914 0.35721 0.0
C326 C 0.53204 0.66342 0.34322 0.0
C327 C 0.67464 0.69774 0.35982 0.0
O328 O 0.6933 0.73538 0.35949 0.0
C329 C 0.59881 0.75062 0.41729 0.0
C330 C 0.5019 0.62503 0.35336 0.0
C331 C 0.46329 0.61534 0.35163 0.0
C332 C 0.43421 0.5784 0.36025 0.0
C333 C 0.44394 0.55101 0.36988 0.0
C334 C 0.48234 0.55998 0.37097 0.0
C335 C 0.51128 0.59748 0.36336 0.0
O336 O 0.56825 0.74407 0.30801 0.0
O337 O 0.62877 0.75554 0.31255 0.0
O338 O 0.56873 0.82365 0.34503 0.0
O339 O 0.61956 0.82291 0.3574 0.0
C340 C 0.60534 0.84473 0.35012 0.0
O341 O 0.62055 0.74071 0.40087 0.0
O342 O 0.56981 0.75187 0.40377 0.0
O343 O 0.55893 0.66499 0.32402 0.0
O344 O 0.54544 0.68999 0.36594 0.0
H345 H 0.45589 0.63635 0.3434 0.0
H346 H 0.42122 0.52197 0.37475 0.0
H347 H 0.54113 0.60515 0.36455 0.0
O348 O 0.52126 0.754 0.8856 0.0
Tb349 Tb 0.57829 0.80063 0.87413 0.0
Eu350 Eu 0.61749 0.90193 0.86135 0.0
C351 C 0.49761 0.73303 0.86208 0.0
O352 O 0.50626 0.74465 0.83155 0.0
C353 C 0.60228 0.84112 0.80924 0.0
O354 O 0.65023 0.9665 0.85938 0.0
C355 C 0.544 0.87624 0.86231 0.0
C356 C 0.68698 0.98634 0.86661 0.0
O357 O 0.70511 0.96802 0.87443 0.0
C358 C 0.62252 0.8625 0.9276 0.0
C359 C 0.51406 0.88611 0.86831 0.0
C360 C 0.47565 0.85651 0.86703 0.0
C361 C 0.44603 0.86472 0.87052 0.0
C362 C 0.45489 0.90268 0.87494 0.0
C363 C 0.49298 0.93279 0.87506 0.0
C364 C 0.52277 0.92434 0.87239 0.0
O365 O 0.57175 0.82193 0.82749 0.0
O366 O 0.63121 0.873 0.82063 0.0
O367 O 0.58487 0.75033 0.87113 0.0
O368 O 0.63482 0.80531 0.86947 0.0
C369 C 0.62195 0.76853 0.86897 0.0
O370 O 0.64191 0.89115 0.90723 0.0
O371 O 0.58971 0.83209 0.91962 0.0
O372 O 0.56552 0.89147 0.83632 0.0
O373 O 0.563 0.87444 0.88772 0.0
H374 H 0.46879 0.82721 0.86273 0.0
H375 H 0.43178 0.90895 0.87688 0.0
H376 H 0.55236 0.94734 0.87198 0.0
O377 O 0.78008 0.52736 0.87377 0.0
Tb378 Tb 0.7896 0.58446 0.86455 0.0
Eu379 Eu 0.72554 0.62248 0.86386 0.0
C380 C 0.77803 0.50484 0.84952 0.0
O381 O 0.77576 0.51479 0.81926 0.0
C382 C 0.76606 0.6124 0.8055 0.0
O383 O 0.69357 0.65479 0.86787 0.0
C384 C 0.67678 0.54928 0.86074 0.0
C385 C 0.71081 0.69214 0.86383 0.0
O386 O 0.74782 0.71128 0.85805 0.0
C387 C 0.77206 0.6203 0.92638 0.0
C388 C 0.6375 0.5199 0.86952 0.0
C389 C 0.62837 0.48152 0.87004 0.0
C390 C 0.59076 0.45239 0.87615 0.0
C391 C 0.5621 0.46175 0.88134 0.0
C392 C 0.57042 0.49998 0.88042 0.0
C393 C 0.60865 0.52915 0.87494 0.0
O394 O 0.75697 0.58064 0.82115 0.0
O395 O 0.76569 0.64057 0.8211 0.0
O396 O 0.84519 0.59129 0.85176 0.0
O397 O 0.84242 0.64089 0.86415 0.0
C398 C 0.86519 0.62817 0.8556 0.0
O399 O 0.76168 0.64155 0.90965 0.0
O400 O 0.77264 0.59057 0.91359 0.0
O401 O 0.68039 0.57364 0.8378 0.0
O402 O 0.7015 0.56513 0.88476 0.0
H403 H 0.65037 0.47425 0.86513 0.0
H404 H 0.53274 0.43874 0.88412 0.0
H405 H 0.61594 0.55889 0.87421 0.0
O406 O 0.26536 0.79044 0.86563 0.0
Tb407 Tb 0.21795 0.79872 0.85283 0.0
Eu408 Eu 0.11544 0.72784 0.84359 0.0
C409 C 0.28706 0.78738 0.84324 0.0
O410 O 0.27689 0.78419 0.81223 0.0
C411 C 0.17224 0.7799 0.79082 0.0
O412 O 0.05062 0.69624 0.84548 0.0
C413 C 0.13901 0.67855 0.83879 0.0
C414 C 0.03132 0.71428 0.84975 0.0
O415 O 0.05027 0.75169 0.85337 0.0
C416 C 0.15803 0.76895 0.91125 0.0
C417 C 0.12948 0.63998 0.85004 0.0
C418 C 0.15854 0.6305 0.85156 0.0
C419 C 0.14975 0.59331 0.86021 0.0
C420 C 0.11163 0.56544 0.86664 0.0
C421 C 0.08199 0.57398 0.8646 0.0
C422 C 0.09137 0.61176 0.85689 0.0
O423 O 0.19335 0.76947 0.80724 0.0
O424 O 0.13874 0.77133 0.80286 0.0
O425 O 0.26552 0.85595 0.84228 0.0
O426 O 0.21265 0.85023 0.85778 0.0
C427 C 0.24784 0.87456 0.84912 0.0
O428 O 0.12669 0.75675 0.89332 0.0
O429 O 0.19072 0.77431 0.89935 0.0
O430 O 0.11485 0.68023 0.81819 0.0
O431 O 0.15241 0.70612 0.86073 0.0
H432 H 0.18782 0.6518 0.84556 0.0
H433 H 0.10495 0.5363 0.87133 0.0
H434 H 0.06902 0.61912 0.85545 0.0
O435 O 0.49128 0.26944 0.87902 0.0
Tb436 Tb 0.43544 0.22148 0.86686 0.0
Eu437 Eu 0.39893 0.12516 0.85185 0.0
C438 C 0.51485 0.29151 0.85606 0.0
O439 O 0.50718 0.28066 0.82524 0.0
C440 C 0.41603 0.18561 0.79925 0.0
O441 O 0.36248 0.06055 0.84782 0.0
C442 C 0.47032 0.14292 0.8471 0.0
C443 C 0.32587 0.04067 0.85554 0.0
O444 O 0.30843 0.05868 0.86618 0.0
C445 C 0.40426 0.15964 0.92367 0.0
C446 C 0.49944 0.13422 0.85951 0.0
C447 C 0.5377 0.16397 0.86106 0.0
C448 C 0.56681 0.15624 0.86945 0.0
C449 C 0.5576 0.11847 0.87598 0.0
C450 C 0.51966 0.08809 0.87378 0.0
C451 C 0.49048 0.09639 0.86619 0.0
O452 O 0.44526 0.2055 0.81874 0.0
O453 O 0.38608 0.15457 0.81067 0.0
O454 O 0.42793 0.27122 0.86526 0.0
O455 O 0.3782 0.21596 0.86555 0.0
C456 C 0.39076 0.25278 0.86494 0.0
O457 O 0.38275 0.13054 0.90405 0.0
O458 O 0.43192 0.19266 0.91262 0.0
O459 O 0.44258 0.11653 0.82916 0.0
O460 O 0.45894 0.16105 0.8667 0.0
H461 H 0.54499 0.19297 0.85481 0.0
H462 H 0.58062 0.11256 0.88046 0.0
H463 H 0.46099 0.07337 0.86441 0.0
O464 O 0.22876 0.48994 0.87564 0.0
Tb465 Tb 0.21899 0.43215 0.87008 0.0
Eu466 Eu 0.28795 0.4004 0.86148 0.0
C467 C 0.22801 0.50944 0.85006 0.0
O468 O 0.22768 0.49628 0.82047 0.0
C469 C 0.23466 0.40155 0.80726 0.0
O470 O 0.32027 0.3681 0.86441 0.0
C471 C 0.33622 0.47357 0.85613 0.0
C472 C 0.30253 0.33039 0.86304 0.0
O473 O 0.26501 0.31103 0.86043 0.0
C474 C 0.24733 0.4015 0.92874 0.0
C475 C 0.37441 0.5039 0.86724 0.0
C476 C 0.38182 0.54183 0.86942 0.0
C477 C 0.41866 0.57178 0.87743 0.0
C478 C 0.44817 0.56368 0.88269 0.0
C479 C 0.44165 0.52631 0.87968 0.0
C480 C 0.40441 0.49622 0.8727 0.0
O481 O 0.24235 0.43349 0.82208 0.0
O482 O 0.24495 0.37851 0.82054 0.0
O483 O 0.16198 0.4252 0.86792 0.0
O484 O 0.16675 0.37525 0.87065 0.0
C485 C 0.14287 0.38808 0.86888 0.0
O486 O 0.2582 0.38173 0.91039 0.0
O487 O 0.24308 0.42959 0.91704 0.0
O488 O 0.33532 0.44763 0.83608 0.0
O489 O 0.30852 0.45927 0.87786 0.0
H490 H 0.3592 0.54813 0.86423 0.0
H491 H 0.47694 0.58697 0.88777 0.0
H492 H 0.39923 0.46729 0.86991 0.0
O493 O 0.74916 0.23817 0.8772 0.0
Tb494 Tb 0.79641 0.2281 0.86922 0.0
Eu495 Eu 0.89354 0.28901 0.85952 0.0
C496 C 0.72803 0.23824 0.85268 0.0
O497 O 0.73962 0.23866 0.82248 0.0
C498 C 0.83895 0.23854 0.80585 0.0
O499 O 0.95803 0.31955 0.862 0.0
C500 C 0.87222 0.33937 0.84938 0.0
C501 C 0.9771 0.30108 0.86419 0.0
O502 O 0.95814 0.26346 0.86503 0.0
C503 C 0.85406 0.25831 0.92917 0.0
C504 C 0.88049 0.37825 0.85857 0.0
C505 C 0.85016 0.38604 0.85945 0.0
C506 C 0.85754 0.4234 0.86544 0.0
C507 C 0.89536 0.45305 0.86989 0.0
C508 C 0.926 0.44612 0.8681 0.0
C509 C 0.91841 0.40843 0.86322 0.0
O510 O 0.81789 0.25026 0.82079 0.0
O511 O 0.8699 0.24328 0.82059 0.0
O512 O 0.80084 0.17611 0.87375 0.0
O513 O 0.74671 0.171 0.86408 0.0
C514 C 0.7645 0.15209 0.86864 0.0
O515 O 0.88413 0.26592 0.91113 0.0
O516 O 0.82195 0.25336 0.91625 0.0
O517 O 0.89817 0.33699 0.83175 0.0
O518 O 0.85617 0.31221 0.87147 0.0
H519 H 0.82103 0.36327 0.85485 0.0
H520 H 0.90112 0.48211 0.87348 0.0
H521 H 0.94205 0.40297 0.86138 0.0
O522 O 0.25996 0.47883 0.591 0.0
Tb523 Tb 0.22319 0.41877 0.60408 0.0
Eu524 Eu 0.13958 0.42434 0.63262 0.0
C525 C 0.27723 0.50575 0.61345 0.0
O526 O 0.2644 0.49877 0.64372 0.0
C527 C 0.19081 0.40108 0.67426 0.0
O528 O 0.07491 0.39046 0.62849 0.0
C529 C 0.16217 0.49187 0.65718 0.0
C530 C 0.05719 0.35297 0.62455 0.0
O531 O 0.07779 0.33611 0.62304 0.0
C532 C 0.15425 0.40396 0.56111 0.0
C533 C 0.15194 0.52191 0.65264 0.0
C534 C 0.17854 0.56057 0.6595 0.0
C535 C 0.16703 0.58821 0.65857 0.0
C536 C 0.12887 0.57678 0.65063 0.0
C537 C 0.10227 0.53849 0.64306 0.0
C538 C 0.11434 0.51139 0.64358 0.0
O539 O 0.22062 0.42412 0.65659 0.0
O540 O 0.15577 0.38847 0.66368 0.0
O541 O 0.26849 0.4146 0.57832 0.0
O542 O 0.23858 0.37555 0.61678 0.0
C543 C 0.26574 0.38606 0.59522 0.0
O544 O 0.14696 0.42742 0.57775 0.0
O545 O 0.17123 0.38714 0.57501 0.0
O546 O 0.13518 0.45986 0.67022 0.0
O547 O 0.18013 0.48611 0.63287 0.0
H548 H 0.20771 0.56893 0.66625 0.0
H549 H 0.11987 0.59795 0.65055 0.0
H550 H 0.09421 0.48174 0.63757 0.0
O551 O 0.80216 0.27078 0.5995 0.0
Tb552 Tb 0.81507 0.22545 0.6083 0.0
Eu553 Eu 0.75013 0.12648 0.6206 0.0
C554 C 0.79411 0.28701 0.62383 0.0
O555 O 0.7864 0.27071 0.65286 0.0
C556 C 0.79858 0.18345 0.67316 0.0
O557 O 0.71456 0.06165 0.621 0.0
C558 C 0.70294 0.15253 0.62584 0.0
C559 C 0.72902 0.03892 0.61791 0.0
O560 O 0.76619 0.05402 0.61436 0.0
C561 C 0.78507 0.1633 0.55023 0.0
C562 C 0.66438 0.14412 0.61583 0.0
C563 C 0.65648 0.17424 0.61483 0.0
C564 C 0.61931 0.16671 0.60804 0.0
C565 C 0.5899 0.12893 0.60289 0.0
C566 C 0.59687 0.09821 0.60436 0.0
C567 C 0.63466 0.10622 0.61027 0.0
O568 O 0.7883 0.20374 0.65534 0.0
O569 O 0.79428 0.15146 0.66091 0.0
O570 O 0.8698 0.27857 0.61285 0.0
O571 O 0.87002 0.22615 0.61103 0.0
C572 C 0.89147 0.26335 0.61344 0.0
O573 O 0.775 0.13363 0.56974 0.0
O574 O 0.79403 0.19767 0.56106 0.0
O575 O 0.7045 0.12868 0.64679 0.0
O576 O 0.72939 0.16413 0.60307 0.0
H577 H 0.67897 0.20334 0.62 0.0
H578 H 0.56091 0.12351 0.5998 0.0
H579 H 0.64087 0.08307 0.61144 0.0
O580 O 0.52168 0.79341 0.60429 0.0
Tb581 Tb 0.57649 0.79884 0.61545 0.0
Eu582 Eu 0.60529 0.73216 0.62678 0.0
C583 C 0.49517 0.78445 0.6267 0.0
O584 O 0.49995 0.77393 0.65599 0.0
C585 C 0.5976 0.77996 0.68077 0.0
O586 O 0.64156 0.70461 0.62233 0.0
C587 C 0.53325 0.67957 0.63054 0.0
C588 C 0.65404 0.69456 0.64809 0.0
O589 O 0.64492 0.70039 0.67764 0.0
C590 C 0.60316 0.76674 0.55733 0.0
C591 C 0.5052 0.64192 0.61639 0.0
C592 C 0.46653 0.63193 0.61333 0.0
C593 C 0.43889 0.59508 0.60262 0.0
C594 C 0.45015 0.56807 0.59582 0.0
C595 C 0.48843 0.57715 0.59916 0.0
C596 C 0.51601 0.61463 0.60875 0.0
O597 O 0.56755 0.77181 0.66285 0.0
O598 O 0.62438 0.77451 0.66835 0.0
O599 O 0.58975 0.85806 0.62055 0.0
O600 O 0.63578 0.84734 0.61419 0.0
C601 C 0.62674 0.87398 0.61804 0.0
O602 O 0.62364 0.7577 0.57647 0.0
O603 O 0.57657 0.77327 0.56885 0.0
O604 O 0.56025 0.68037 0.64921 0.0
O605 O 0.54565 0.70983 0.61159 0.0
H606 H 0.45784 0.65251 0.61986 0.0
H607 H 0.4283 0.53898 0.58988 0.0
H608 H 0.54579 0.6224 0.61114 0.0
O609 O 0.75124 0.53478 0.60009 0.0
Tb610 Tb 0.7895 0.59208 0.61863 0.0
Eu611 Eu 0.89644 0.60882 0.64488 0.0
C612 C 0.73213 0.52984 0.57265 0.0
O613 O 0.74296 0.55929 0.55303 0.0
C614 C 0.83112 0.60969 0.68282 0.0
O615 O 0.95881 0.65333 0.64265 0.0
C616 C 0.88534 0.54159 0.65936 0.0
C617 C 0.98095 0.65369 0.61884 0.0
O618 O 0.96657 0.62682 0.59623 0.0
C619 C 0.86322 0.62096 0.57773 0.0
C620 C 0.89546 0.51396 0.64566 0.0
C621 C 0.86635 0.47623 0.63893 0.0
C622 C 0.87555 0.44921 0.62698 0.0
C623 C 0.91413 0.45998 0.62243 0.0
C624 C 0.94348 0.49717 0.62991 0.0
C625 C 0.93396 0.52432 0.64076 0.0
O626 O 0.812 0.58106 0.66257 0.0
O627 O 0.86844 0.62954 0.68032 0.0
O628 O 0.75998 0.62123 0.60025 0.0
O629 O 0.76082 0.61259 0.65163 0.0
C630 C 0.74882 0.62647 0.62874 0.0
O631 O 0.88608 0.61032 0.59099 0.0
O632 O 0.84379 0.63209 0.59594 0.0
O633 O 0.91344 0.57348 0.67182 0.0
O634 O 0.86053 0.54672 0.64243 0.0
H635 H 0.83665 0.46777 0.64336 0.0
H636 H 0.92145 0.4388 0.61444 0.0
H637 H 0.95668 0.55299 0.64687 0.0
O638 O 0.22886 0.76761 0.66703 0.0
Tb639 Tb 0.21608 0.80436 0.63719 0.0
Eu640 Eu 0.30526 0.92023 0.63516 0.0
C641 C 0.24573 0.75049 0.65314 0.0
O642 O 0.26343 0.76398 0.62508 0.0
C643 C 0.23906 0.87705 0.67821 0.0
O644 O 0.33047 0.98024 0.61567 0.0
C645 C 0.36109 0.90783 0.64753 0.0
C646 C 0.31681 1.00278 0.62317 0.0
O647 O 0.28578 0.98942 0.64124 0.0
C648 C 0.26273 0.85415 0.57731 0.0
C649 C 0.39532 0.91039 0.63195 0.0
C650 C 0.39733 0.87685 0.62851 0.0
C651 C 0.43069 0.87861 0.6166 0.0
C652 C 0.46247 0.91418 0.6086 0.0
C653 C 0.4613 0.948 0.61247 0.0
C654 C 0.42738 0.946 0.62355 0.0
O655 O 0.2335 0.86229 0.64892 0.0
O656 O 0.26978 0.91042 0.68053 0.0
O657 O 0.15719 0.78632 0.64964 0.0
O658 O 0.16863 0.76701 0.60457 0.0
C659 C 0.14188 0.76537 0.62365 0.0
O660 O 0.27337 0.88929 0.58815 0.0
O661 O 0.25666 0.82535 0.59667 0.0
O662 O 0.36222 0.94015 0.65452 0.0
O663 O 0.32745 0.88091 0.63686 0.0
H664 H 0.37333 0.84947 0.6359 0.0
H665 H 0.4889 0.91576 0.60073 0.0
H666 H 0.42677 0.97229 0.62714 0.0
O667 O 0.51751 0.24645 0.59651 0.0
Tb668 Tb 0.46102 0.2399 0.60186 0.0
Eu669 Eu 0.41768 0.2912 0.6137 0.0
C670 C 0.53725 0.24556 0.62187 0.0
O671 O 0.52484 0.24564 0.65164 0.0
C672 C 0.43141 0.24671 0.66842 0.0
O673 O 0.37236 0.30791 0.61268 0.0
C674 C 0.4848 0.35227 0.61944 0.0
C675 C 0.37418 0.33273 0.59088 0.0
O676 O 0.40261 0.34723 0.56977 0.0
C677 C 0.42978 0.26592 0.54341 0.0
C678 C 0.50939 0.3899 0.6036 0.0
C679 C 0.54668 0.39991 0.59353 0.0
C680 C 0.57177 0.43667 0.58108 0.0
C681 C 0.55955 0.46358 0.5794 0.0
C682 C 0.52298 0.45439 0.58987 0.0
C683 C 0.4976 0.41735 0.60134 0.0
O684 O 0.46366 0.2588 0.6523 0.0
O685 O 0.40323 0.24861 0.65435 0.0
O686 O 0.44779 0.18079 0.5967 0.0
O687 O 0.40191 0.19155 0.60399 0.0
C688 C 0.41093 0.165 0.6 0.0
O689 O 0.40449 0.26789 0.56234 0.0
O690 O 0.4604 0.26699 0.55587 0.0
O691 O 0.45414 0.34742 0.63496 0.0
O692 O 0.47921 0.32155 0.60352 0.0
H693 H 0.55647 0.37947 0.5961 0.0
H694 H 0.57931 0.49261 0.57143 0.0
H695 H 0.46951 0.41069 0.60995 0.0
C696 C 0.26993 0.96865 0.12359 0.0
C697 C 0.31002 0.99002 0.12757 0.0
H698 H 0.2201 0.91276 0.11775 0.0
C699 C 0.33051 0.97039 0.1292 0.0
H700 H 0.25327 0.98287 0.12227 0.0
C701 C 0.31158 0.93054 0.1266 0.0
C702 C 0.27166 0.9092 0.12235 0.0
H703 H 0.36135 0.9858 0.13227 0.0
H704 H 0.32838 0.91644 0.12774 0.0
C705 C 0.2509 0.92854 0.12103 0.0
C706 C 0.31546 0.2637 0.12261 0.0
C707 C 0.33445 0.30399 0.12406 0.0
H708 H 0.32112 0.21354 0.12092 0.0
C709 C 0.37469 0.32465 0.12448 0.0
H710 H 0.28446 0.24694 0.12224 0.0
C711 C 0.39547 0.30555 0.12377 0.0
C712 C 0.37654 0.26537 0.12256 0.0
H713 H 0.39028 0.35565 0.12557 0.0
H714 H 0.42647 0.32236 0.12433 0.0
C715 C 0.33636 0.24455 0.12184 0.0
C716 C 0.04782 0.33773 0.08744 0.0
C717 C 0.02579 0.32816 0.11629 0.0
H718 H 0.10395 0.36259 0.06641 0.0
C719 C 0.04453 0.3348 0.14679 0.0
H720 H 0.03433 0.33282 0.06354 0.0
C721 C 0.0845 0.35204 0.14839 0.0
C722 C 0.10648 0.36263 0.11954 0.0
H723 H 0.02845 0.32773 0.16949 0.0
H724 H 0.09827 0.35794 0.17224 0.0
C725 C 0.08771 0.35464 0.08905 0.0
C726 C 0.77206 0.09086 0.12638 0.0
C727 C 0.75128 0.10982 0.13108 0.0
H728 H 0.76996 0.0369 0.12185 0.0
C729 C 0.71132 0.08789 0.13499 0.0
H730 H 0.80287 0.10705 0.1233 0.0
C731 C 0.69244 0.04785 0.13411 0.0
C732 C 0.71307 0.0287 0.12935 0.0
H733 H 0.69449 0.10168 0.13865 0.0
H734 H 0.66163 0.03195 0.13716 0.0
C735 C 0.75315 0.05069 0.12554 0.0
C736 C 0.71596 0.74271 0.11956 0.0
C737 C 0.69894 0.70453 0.13052 0.0
H738 H 0.70903 0.79135 0.11066 0.0
C739 C 0.66117 0.68673 0.14243 0.0
H740 H 0.74501 0.75737 0.11027 0.0
C741 C 0.64076 0.70636 0.14287 0.0
C742 C 0.65751 0.74418 0.13126 0.0
H743 H 0.64718 0.65746 0.15118 0.0
H744 H 0.61152 0.6916 0.15175 0.0
C745 C 0.69543 0.76228 0.11986 0.0
C746 C 0.97778 0.64907 0.12214 0.0
C747 C 0.99646 0.68929 0.1223 0.0
H748 H 0.9244 0.59626 0.12263 0.0
C749 C 0.97409 0.7071 0.12327 0.0
H750 H 0.99399 0.63434 0.12147 0.0
C751 C 0.93394 0.6851 0.1239 0.0
C752 C 0.9155 0.64493 0.12367 0.0
H753 H 0.98755 0.73803 0.12343 0.0
H754 H 0.91739 0.69947 0.12448 0.0
C755 C 0.93782 0.6272 0.12286 0.0
C756 C 0.07048 0.68015 0.38449 0.0
C757 C 0.09478 0.71994 0.38693 0.0
H758 H 0.01311 0.63357 0.38001 0.0
C759 C 0.07875 0.74378 0.38747 0.0
H760 H 0.08206 0.66106 0.38395 0.0
C761 C 0.03894 0.72795 0.38529 0.0
C762 C 0.01466 0.68807 0.38227 0.0
H763 H 0.09694 0.77459 0.38924 0.0
H764 H 0.02726 0.74694 0.38556 0.0
C765 C 0.03092 0.6644 0.38208 0.0
C766 C 0.30877 0.03035 0.37712 0.0
C767 C 0.30894 0.05112 0.3495 0.0
H768 H 0.29563 0.97596 0.39643 0.0
C769 C 0.29254 0.03161 0.32002 0.0
H770 H 0.32128 0.04473 0.40014 0.0
C771 C 0.27764 0.99202 0.31788 0.0
C772 C 0.27942 0.9716 0.34508 0.0
H773 H 0.29246 0.0471 0.29835 0.0
H774 H 0.26612 0.97774 0.29464 0.0
C775 C 0.29434 0.99101 0.3749 0.0
C776 C 0.23662 0.3161 0.36907 0.0
C777 C 0.25641 0.35621 0.36681 0.0
H778 H 0.24079 0.26517 0.37119 0.0
C779 C 0.29664 0.37591 0.36505 0.0
H780 H 0.20564 0.3002 0.37041 0.0
C781 C 0.31674 0.35606 0.36541 0.0
C782 C 0.29715 0.31591 0.36758 0.0
H783 H 0.31275 0.40687 0.36326 0.0
H784 H 0.34771 0.3723 0.36396 0.0
C785 C 0.25681 0.29612 0.36948 0.0
C786 C 0.95942 0.27957 0.34377 0.0
C787 C 0.97801 0.29293 0.37421 0.0
H788 H 0.90571 0.25036 0.31797 0.0
C789 C 0.95554 0.28384 0.40277 0.0
H790 H 0.97583 0.2861 0.32129 0.0
C791 C 0.9155 0.26313 0.40087 0.0
C792 C 0.89695 0.2513 0.37035 0.0
H793 H 0.96886 0.29348 0.42664 0.0
H794 H 0.89908 0.25752 0.42326 0.0
C795 C 0.91927 0.25912 0.34185 0.0
C796 C 0.66609 0.90776 0.35578 0.0
C797 C 0.62658 0.88697 0.34947 0.0
H798 H 0.71604 0.96314 0.36151 0.0
C799 C 0.60696 0.90688 0.34341 0.0
H800 H 0.68185 0.89306 0.36053 0.0
C801 C 0.62637 0.94689 0.34407 0.0
C802 C 0.66588 0.96785 0.35072 0.0
H803 H 0.57644 0.89153 0.3385 0.0
H804 H 0.61032 0.96134 0.33955 0.0
C805 C 0.68559 0.94786 0.35635 0.0
C806 C 0.67544 0.63622 0.36265 0.0
C807 C 0.69556 0.67646 0.36305 0.0
H808 H 0.67852 0.58493 0.36551 0.0
C809 C 0.7357 0.69597 0.36657 0.0
H810 H 0.64456 0.62025 0.35994 0.0
C811 C 0.75522 0.6756 0.36979 0.0
C812 C 0.73493 0.63541 0.36949 0.0
H813 H 0.75207 0.72698 0.36695 0.0
H814 H 0.78609 0.69126 0.3726 0.0
C815 C 0.69491 0.61595 0.36582 0.0
C816 C 0.7061 0.08817 0.86091 0.0
C817 C 0.74548 0.10983 0.86788 0.0
H818 H 0.65688 0.03249 0.85492 0.0
C819 C 0.76581 0.09071 0.87412 0.0
H820 H 0.68966 0.10214 0.85597 0.0
C821 C 0.74692 0.05055 0.87358 0.0
C822 C 0.7074 0.02885 0.86669 0.0
H823 H 0.79618 0.10673 0.87954 0.0
H824 H 0.76328 0.03655 0.87863 0.0
C825 C 0.68729 0.0482 0.86027 0.0
C826 C 0.62701 0.70953 0.86942 0.0
C827 C 0.64516 0.74962 0.86734 0.0
H828 H 0.63337 0.66005 0.87012 0.0
C829 C 0.68516 0.77091 0.86411 0.0
H830 H 0.59618 0.69235 0.87196 0.0
C831 C 0.70662 0.75233 0.86295 0.0
C832 C 0.68843 0.71214 0.86517 0.0
H833 H 0.69984 0.80186 0.86247 0.0
H834 H 0.73744 0.76947 0.8604 0.0
C835 C 0.64837 0.69101 0.86843 0.0
C836 C 0.96781 0.71129 0.85713 0.0
C837 C 0.98869 0.69263 0.85054 0.0
H838 H 0.91235 0.70562 0.86388 0.0
C839 C 0.96836 0.65291 0.84481 0.0
H840 H 0.98251 0.74187 0.86163 0.0
C841 C 0.92829 0.63234 0.84593 0.0
C842 C 0.9075 0.65089 0.85293 0.0
H843 H 0.98337 0.63756 0.83956 0.0
H844 H 0.91359 0.60171 0.84166 0.0
C845 C 0.92763 0.6906 0.85838 0.0
C846 C 0.26608 0.97585 0.86178 0.0
C847 C 0.30492 0.99809 0.85278 0.0
H848 H 0.21736 0.91926 0.86756 0.0
C849 C 0.324 0.97916 0.84151 0.0
H850 H 0.25045 0.98944 0.87051 0.0
C851 C 0.30504 0.93916 0.83979 0.0
C852 C 0.26649 0.91694 0.84927 0.0
H853 H 0.35382 0.9952 0.83429 0.0
H854 H 0.32083 0.9256 0.83138 0.0
C855 C 0.24705 0.93566 0.86004 0.0
C856 C 0.30611 0.2697 0.86305 0.0
C857 C 0.32471 0.31005 0.86381 0.0
H858 H 0.3123 0.21976 0.86284 0.0
C859 C 0.36493 0.33091 0.86501 0.0
H860 H 0.27514 0.2527 0.86212 0.0
C861 C 0.38602 0.31204 0.86531 0.0
C862 C 0.3675 0.27182 0.86451 0.0
H863 H 0.38027 0.36193 0.8656 0.0
H864 H 0.41699 0.32911 0.86619 0.0
C865 C 0.32731 0.25077 0.86344 0.0
C866 C 0.03937 0.36301 0.86466 0.0
C867 C 0.01961 0.32279 0.86555 0.0
H868 H 0.09357 0.41484 0.86502 0.0
C869 C 0.04089 0.30389 0.86767 0.0
H870 H 0.02401 0.37857 0.86304 0.0
C871 C 0.08108 0.32488 0.86881 0.0
C872 C 0.10059 0.36507 0.86787 0.0
H873 H 0.02655 0.27292 0.86841 0.0
H874 H 0.09683 0.30973 0.87039 0.0
C875 C 0.07932 0.38385 0.8658 0.0
C876 C 0.95246 0.32584 0.61971 0.0
C877 C 0.93379 0.28574 0.61641 0.0
H878 H 1.00577 0.37844 0.62492 0.0
C879 C 0.95592 0.26785 0.61591 0.0
H880 H 0.93616 0.34049 0.6202 0.0
C881 C 0.99596 0.28967 0.61855 0.0
C882 C 0.01471 0.32986 0.62183 0.0
H883 H 0.94232 0.23703 0.61341 0.0
H884 H 0.01221 0.27499 0.61803 0.0
C885 C 0.99241 0.34764 0.62243 0.0
C886 C 0.63898 0.94095 0.62227 0.0
C887 C 0.65349 0.91597 0.61855 0.0
H888 H 0.65115 0.99894 0.62496 0.0
C889 C 0.69319 0.93161 0.61489 0.0
H890 H 0.6085 0.9298 0.62513 0.0
C891 C 0.71784 0.97151 0.61478 0.0
C892 C 0.70325 0.99655 0.61832 0.0
H893 H 0.70517 0.91305 0.61196 0.0
H894 H 0.7483 0.9827 0.6118 0.0
C895 C 0.6635 0.98068 0.62215 0.0
C896 C 0.69155 0.66528 0.67056 0.0
C897 C 0.67846 0.67718 0.6435 0.0
H898 H 0.72424 0.63984 0.68706 0.0
C899 C 0.68904 0.67245 0.61171 0.0
H900 H 0.68391 0.66852 0.69535 0.0
C901 C 0.71213 0.6562 0.60704 0.0
C902 C 0.72507 0.64425 0.63402 0.0
H903 H 0.67951 0.6813 0.59031 0.0
H904 H 0.7197 0.65285 0.58224 0.0
C905 C 0.71463 0.6489 0.66584 0.0
C906 C 0.03633 0.71285 0.64207 0.0
C907 C 0.02182 0.68382 0.61814 0.0
H908 H 0.08564 0.76164 0.66215 0.0
C909 C 0.04685 0.68361 0.59423 0.0
H910 H 0.01783 0.71407 0.66069 0.0
C911 C 0.0859 0.71119 0.595 0.0
C912 C 0.1004 0.73929 0.61969 0.0
H913 H 0.03649 0.6617 0.57537 0.0
H914 H 0.10487 0.70979 0.57696 0.0
C915 C 0.07519 0.74025 0.64284 0.0
C916 C 0.32492 0.06885 0.62138 0.0
C917 C 0.33877 0.04387 0.61409 0.0
H918 H 0.33686 0.12708 0.62218 0.0
C919 C 0.37519 0.05896 0.59975 0.0
H920 H 0.29695 0.05811 0.63236 0.0
C921 C 0.39793 0.09823 0.5942 0.0
C922 C 0.38468 0.1233 0.60251 0.0
H923 H 0.38678 0.04064 0.59374 0.0
H924 H 0.42636 0.10908 0.58409 0.0
C925 C 0.34766 0.10827 0.61548 0.0
C926 C 0.32197 0.38604 0.56978 0.0
C927 C 0.29191 0.37069 0.59262 0.0
H928 H 0.37163 0.38609 0.55128 0.0
C929 C 0.28827 0.34193 0.61413 0.0
H930 H 0.32545 0.40835 0.55298 0.0
C931 C 0.31471 0.32922 0.61325 0.0
C932 C 0.34529 0.34504 0.59082 0.0
H933 H 0.26537 0.3297 0.63204 0.0
H934 H 0.31142 0.30733 0.63045 0.0
C935 C 0.34842 0.37333 0.56887 0.0
C936 C 0.41755 0.18845 0.01263 0.0
C937 C 0.40418 0.15351 0.02902 0.0
H938 H 0.42693 0.2174 0.96709 0.0
C939 C 0.38667 0.11929 0.01064 0.0
H940 H 0.4303 0.21528 0.02605 0.0
C941 C 0.38483 0.12049 0.97614 0.0
C942 C 0.4003 0.15592 0.95985 0.0
H943 H 0.37587 0.0919 0.02273 0.0
H944 H 0.37283 0.09403 0.96228 0.0
C945 C 0.41552 0.18963 0.97867 0.0
C946 C 0.26012 0.3746 0.01512 0.0
C947 C 0.24498 0.3933 0.03369 0.0
H948 H 0.27294 0.36258 0.96695 0.0
C949 C 0.22693 0.41059 0.01743 0.0
H950 H 0.27413 0.36093 0.02704 0.0
C951 C 0.22638 0.41167 0.98333 0.0
C952 C 0.24385 0.39542 0.96461 0.0
H953 H 0.21432 0.42453 0.0311 0.0
H954 H 0.21321 0.42632 0.97169 0.0
C955 C 0.25956 0.37567 0.98075 0.0
C956 C 0.89093 0.26518 0.01656 0.0
C957 C 0.8578 0.25603 0.03476 0.0
H958 H 0.91604 0.27334 0.96859 0.0
C959 C 0.82389 0.24685 0.01789 0.0
H960 H 0.91749 0.2723 0.02888 0.0
C961 C 0.82304 0.2474 0.98384 0.0
C962 C 0.85611 0.2572 0.96542 0.0
H963 H 0.79764 0.2392 0.03095 0.0
H964 H 0.79617 0.24018 0.97203 0.0
C965 C 0.8901 0.26581 0.98209 0.0
C966 C 0.64781 0.89901 0.98011 0.0
C967 C 0.63501 0.86526 0.96176 0.0
H968 H 0.65654 0.9233 0.02849 0.0
C969 C 0.62854 0.83169 0.97747 0.0
H970 H 0.65301 0.92523 0.9683 0.0
C971 C 0.63089 0.83065 0.0114 0.0
C972 C 0.63934 0.86308 0.03026 0.0
H973 H 0.61931 0.80551 0.96364 0.0
H974 H 0.62336 0.80364 0.02304 0.0
C975 C 0.6499 0.89791 0.01441 0.0
C976 C 0.76106 0.64047 0.01516 0.0
C977 C 0.77844 0.62208 0.03085 0.0
H978 H 0.74535 0.6545 0.96905 0.0
C979 C 0.79821 0.60848 0.01201 0.0
H980 H 0.74583 0.65139 0.02924 0.0
C981 C 0.79806 0.61034 0.97801 0.0
C982 C 0.77806 0.62577 0.96205 0.0
H983 H 0.81265 0.59499 0.02351 0.0
H984 H 0.81231 0.59816 0.96417 0.0
C985 C 0.76084 0.64229 0.98082 0.0
C986 C 0.1924 0.79531 -0.00179 0.0
C987 C 0.15898 0.77272 0.01634 0.0
H988 H 0.21789 0.81244 0.951 0.0
C989 C 0.12373 0.7523 -0.0003 0.0
H990 H 0.21986 0.812 0.01033 0.0
C991 C 0.12257 0.7524 0.96523 0.0
C992 C 0.15665 0.77299 0.9472 0.0
H993 H 0.09748 0.73475 0.01316 0.0
H994 H 0.09549 0.73491 0.95279 0.0
C995 C 0.19123 0.79553 0.96413 0.0
C996 C 0.89186 0.62485 0.52275 0.0
C997 C 0.86229 0.62361 0.54185 0.0
H998 H 0.91139 0.6226 0.47439 0.0
C999 C 0.83066 0.62236 0.52632 0.0
H1000 H 0.91684 0.62635 0.53415 0.0
C1001 C 0.82713 0.61922 0.49226 0.0
C1002 C 0.85592 0.6188 0.47334 0.0
H1003 H 0.80789 0.62211 0.54052 0.0
H1004 H 0.80158 0.61631 0.48075 0.0
C1005 C 0.88891 0.62297 0.48864 0.0
C1006 C 0.26297 0.87519 0.5192 0.0
C1007 C 0.25928 0.84694 0.54143 0.0
H1008 H 0.26165 0.89007 0.46902 0.0
C1009 C 0.25173 0.81122 0.52907 0.0
H1010 H 0.26875 0.90299 0.52782 0.0
C1011 C 0.24779 0.80386 0.49538 0.0
C1012 C 0.25111 0.83194 0.47319 0.0
H1013 H 0.24872 0.78871 0.5454 0.0
H1014 H 0.24177 0.77596 0.4868 0.0
C1015 C 0.25885 0.86774 0.48546 0.0
C1016 C 0.44346 0.24712 0.4889 0.0
C1017 C 0.4224 0.25931 0.50775 0.0
H1018 H 0.44897 0.2246 0.44303 0.0
C1019 C 0.39232 0.26183 0.49276 0.0
H1020 H 0.4669 0.24497 0.49959 0.0
C1021 C 0.3823 0.25046 0.46005 0.0
C1022 C 0.40184 0.23591 0.44201 0.0
H1023 H 0.37575 0.2714 0.50657 0.0
H1024 H 0.35812 0.25132 0.44944 0.0
C1025 C 0.43312 0.2353 0.45647 0.0
C1026 C 0.15115 0.43014 0.50664 0.0
C1027 C 0.1468 0.39917 0.52554 0.0
H1028 H 0.15457 0.4524 0.45826 0.0
C1029 C 0.13836 0.36478 0.5098 0.0
H1030 H 0.15785 0.457 0.51818 0.0
C1031 C 0.13539 0.36181 0.47557 0.0
C1032 C 0.14205 0.39359 0.45669 0.0
H1033 H 0.13479 0.34048 0.52393 0.0
H1034 H 0.1299 0.33544 0.46381 0.0
C1035 C 0.1494 0.42757 0.47245 0.0
C1036 C 0.7843 0.18494 0.46044 0.0
C1037 C 0.7645 0.1483 0.44634 0.0
H1038 H 0.8074 0.21842 0.50361 0.0
C1039 C 0.75554 0.11628 0.46608 0.0
H1040 H 0.79177 0.21023 0.44604 0.0
C1041 C 0.76391 0.1209 0.49982 0.0
C1042 C 0.78172 0.15764 0.51414 0.0
H1043 H 0.74028 0.08762 0.45589 0.0
H1044 H 0.75488 0.09568 0.51483 0.0
C1045 C 0.79312 0.1896 0.49371 0.0
C1046 C 0.58895 0.77832 0.46795 0.0
C1047 C 0.60453 0.75798 0.4528 0.0
H1048 H 0.57703 0.79755 0.51262 0.0
C1049 C 0.62337 0.74361 0.47208 0.0
H1050 H 0.575 0.79049 0.45368 0.0
C1051 C 0.62451 0.74764 0.5063 0.0
C1052 C 0.60691 0.76618 0.52142 0.0
H1053 H 0.63581 0.72799 0.46092 0.0
H1054 H 0.63776 0.73501 0.52088 0.0
C1055 C 0.59017 0.78241 0.5018 0.0
C1056 C 0.36888 0.16328 0.23803 0.0
C1057 C 0.40166 0.18691 0.21944 0.0
H1058 H 0.33547 0.15852 0.28046 0.0
C1059 C 0.42659 0.22461 0.23031 0.0
H1060 H 0.34896 0.13426 0.23019 0.0
C1061 C 0.41881 0.23843 0.25906 0.0
C1062 C 0.38629 0.2146 0.27775 0.0
H1063 H 0.45191 0.24372 0.2164 0.0
H1064 H 0.43841 0.26757 0.26683 0.0
C1065 C 0.36136 0.17701 0.26694 0.0
C1066 C 0.19825 0.35639 0.22353 0.0
C1067 C 0.21579 0.39035 0.20501 0.0
H1068 H 0.16649 0.32857 0.26719 0.0
C1069 C 0.21107 0.42114 0.21467 0.0
H1070 H 0.20137 0.3322 0.21655 0.0
C1071 C 0.19158 0.41912 0.2434 0.0
C1072 C 0.1759 0.38612 0.26291 0.0
H1073 H 0.22404 0.44765 0.20091 0.0
H1074 H 0.19015 0.44408 0.25109 0.0
C1075 C 0.1781 0.35418 0.25227 0.0
C1076 C 0.82595 0.18513 0.23566 0.0
C1077 C 0.82992 0.22095 0.22832 0.0
H1078 H 0.79968 0.13581 0.26722 0.0
C1079 C 0.81421 0.2367 0.24957 0.0
H1080 H 0.83742 0.17225 0.21925 0.0
C1081 C 0.79308 0.21626 0.27677 0.0
C1082 C 0.78674 0.17932 0.28315 0.0
H1083 H 0.81683 0.26423 0.24431 0.0
H1084 H 0.78015 0.22881 0.29188 0.0
C1085 C 0.80414 0.16422 0.26285 0.0
C1086 C 0.58559 0.77922 0.21029 0.0
C1087 C 0.61478 0.81757 0.20677 0.0
H1088 H 0.55912 0.73005 0.24132 0.0
C1089 C 0.64351 0.83421 0.23089 0.0
H1090 H 0.56336 0.76528 0.192 0.0
C1091 C 0.64144 0.81336 0.25909 0.0
C1092 C 0.61043 0.77605 0.26333 0.0
H1093 H 0.6664 0.86367 0.22871 0.0
H1094 H 0.66247 0.82718 0.27842 0.0
C1095 C 0.58321 0.75884 0.23842 0.0
C1096 C 0.81983 0.63553 0.23661 0.0
C1097 C 0.79345 0.60153 0.22065 0.0
H1098 H 0.85335 0.66053 0.28016 0.0
C1099 C 0.77937 0.56639 0.23688 0.0
H1100 H 0.83122 0.66291 0.22436 0.0
C1101 C 0.79159 0.56503 0.26843 0.0
C1102 C 0.81865 0.59875 0.28426 0.0
H1103 H 0.75886 0.53974 0.22513 0.0
H1104 H 0.7802 0.53737 0.2802 0.0
C1105 C 0.83269 0.63411 0.26824 0.0
C1106 C 0.17056 0.7933 0.2299 0.0
C1107 C 0.1849 0.77405 0.21121 0.0
H1108 H 0.168 0.81501 0.27734 0.0
C1109 C 0.20657 0.76013 0.22674 0.0
H1110 H 0.15388 0.80438 0.21844 0.0
C1111 C 0.21406 0.7656 0.26031 0.0
C1112 C 0.20073 0.7858 0.27889 0.0
H1113 H 0.21781 0.74498 0.21295 0.0
H1114 H 0.23109 0.75477 0.27151 0.0
C1115 C 0.17876 0.79949 0.26348 0.0
C1116 C 0.63543 0.8188 0.72948 0.0
C1117 C 0.60004 0.79486 0.71416 0.0
H1118 H 0.6641 0.85339 0.77181 0.0
C1119 C 0.56606 0.78689 0.73011 0.0
H1120 H 0.66202 0.82561 0.71743 0.0
C1121 C 0.56723 0.80238 0.76081 0.0
C1122 C 0.60243 0.8267 0.77613 0.0
H1123 H 0.53837 0.76853 0.71887 0.0
H1124 H 0.54039 0.79548 0.77245 0.0
C1125 C 0.63663 0.83499 0.76026 0.0
C1126 C 0.81385 0.64772 0.7618 0.0
C1127 C 0.77906 0.61609 0.77162 0.0
H1128 H 0.85827 0.67032 0.72548 0.0
C1129 C 0.75953 0.58473 0.7505 0.0
H1130 H 0.82943 0.67198 0.77808 0.0
C1131 C 0.77555 0.58389 0.72057 0.0
C1132 C 0.81183 0.61407 0.71167 0.0
H1133 H 0.73261 0.56007 0.75781 0.0
H1134 H 0.76043 0.55856 0.70534 0.0
C1135 C 0.83039 0.64657 0.73199 0.0
C1136 C 0.24507 0.84918 0.73053 0.0
C1137 C 0.22174 0.85332 0.7074 0.0
H1138 H 0.24757 0.82233 0.77481 0.0
C1139 C 0.18193 0.8341 0.71209 0.0
H1140 H 0.27588 0.86385 0.72734 0.0
C1141 C 0.16555 0.81046 0.73948 0.0
C1142 C 0.18885 0.80547 0.76224 0.0
H1143 H 0.16357 0.83752 0.69467 0.0
H1144 H 0.13474 0.79571 0.74257 0.0
C1145 C 0.22877 0.82522 0.75754 0.0
C1146 C 0.38618 0.19052 0.74651 0.0
C1147 C 0.41879 0.1984 0.76487 0.0
H1148 H 0.36461 0.20039 0.70158 0.0
C1149 C 0.45524 0.22153 0.75102 0.0
H1150 H 0.35779 0.17301 0.75671 0.0
C1151 C 0.45917 0.23689 0.71969 0.0
C1152 C 0.42676 0.23003 0.70158 0.0
H1153 H 0.48096 0.22804 0.76453 0.0
H1154 H 0.48772 0.25474 0.70991 0.0
C1155 C 0.39016 0.20651 0.71517 0.0
C1156 C 0.23747 0.38643 0.74845 0.0
C1157 C 0.21949 0.39504 0.77374 0.0
H1158 H 0.24253 0.38226 0.69638 0.0
C1159 C 0.18913 0.40135 0.76636 0.0
H1160 H 0.26114 0.38178 0.75372 0.0
C1161 C 0.17769 0.40039 0.73386 0.0
C1162 C 0.19739 0.39439 0.70837 0.0
H1163 H 0.17498 0.40807 0.78569 0.0
H1164 H 0.15514 0.40674 0.72855 0.0
C1165 C 0.22691 0.38678 0.71584 0.0
C1166 C 0.79983 0.22577 0.75545 0.0
C1167 C 0.82827 0.22238 0.77241 0.0
H1168 H 0.76807 0.21563 0.71116 0.0
C1169 C 0.84532 0.2033 0.75722 0.0
H1170 H 0.78592 0.24007 0.7664 0.0
C1171 C 0.83449 0.18857 0.72526 0.0
C1172 C 0.80697 0.19337 0.70814 0.0
H1173 H 0.86708 0.19997 0.76989 0.0
H1174 H 0.84854 0.17481 0.71355 0.0
C1175 C 0.78952 0.21168 0.72372 0.0
C1176 C 0.49654 0.02234 0.09401 0.0
C1177 C 0.52362 0.04836 0.1163 0.0
H1178 H 0.46996 0.96602 0.07333 0.0
C1179 C 0.54521 0.03682 0.13522 0.0
H1180 H 0.47989 0.0307 0.07886 0.0
C1181 C 0.53923 0.99973 0.13252 0.0
C1182 C 0.51171 0.97328 0.11059 0.0
H1183 H 0.56605 0.05624 0.15288 0.0
H1184 H 0.55525 0.99147 0.14856 0.0
C1185 C 0.49092 0.98532 0.09093 0.0
C1186 C 0.51533 0.47564 0.1006 0.0
C1187 C 0.54803 0.49803 0.12011 0.0
H1188 H 0.45936 0.46412 0.08603 0.0
C1189 C 0.5489 0.52704 0.13988 0.0
H1190 H 0.51381 0.45342 0.08468 0.0
C1191 C 0.51794 0.53337 0.14023 0.0
C1192 C 0.48519 0.51065 0.1211 0.0
H1193 H 0.57308 0.54429 0.15579 0.0
H1194 H 0.51935 0.55574 0.15592 0.0
C1195 C 0.48409 0.48167 0.10132 0.0
C1196 C 1.00059 0.47465 0.08618 0.0
C1197 C 0.97577 0.47508 0.10997 0.0
H1198 H 0.05518 0.5058 0.06277 0.0
C1199 C 0.98766 0.50818 0.12903 0.0
H1200 H 0.99175 0.44958 0.07092 0.0
C1201 C 0.02411 0.54007 0.12498 0.0
C1202 C 0.04941 0.53986 0.10137 0.0
H1203 H 0.96895 0.50906 0.14765 0.0
H1204 H 0.03277 0.56435 0.14118 0.0
C1205 C 0.03688 0.50689 0.08164 0.0
C1206 C 0.01633 0.51243 0.36062 0.0
C1207 C 0.02629 0.48995 0.37995 0.0
H1208 H 0.9735 0.52657 0.34809 0.0
C1209 C 1.00063 0.46584 0.40385 0.0
H1210 H 0.03586 0.53138 0.34208 0.0
C1211 C 0.96537 0.46404 0.40819 0.0
C1212 C 0.95458 0.48558 0.38811 0.0
H1213 H 0.00809 0.44881 0.41943 0.0
H1214 H 0.94646 0.44549 0.42721 0.0
C1215 C 0.98078 0.51006 0.36444 0.0
C1216 C 0.51747 0.98409 0.3429 0.0
C1217 C 0.51473 0.01295 0.35971 0.0
H1218 H 0.49015 0.92471 0.33039 0.0
C1219 C 0.48239 1.00275 0.37945 0.0
H1220 H 0.54178 0.99111 0.32721 0.0
C1221 C 0.45274 0.96469 0.38134 0.0
C1222 C 0.45486 0.93596 0.36364 0.0
H1223 H 0.47975 0.02435 0.39311 0.0
H1224 H 0.42807 0.9578 0.39649 0.0
C1225 C 0.48782 0.94604 0.34475 0.0
C1226 C 0.47765 0.46943 0.40354 0.0
C1227 C 0.50614 0.46815 0.3848 0.0
H1228 H 0.44866 0.50022 0.41484 0.0
C1229 C 0.52756 0.49782 0.36247 0.0
H1230 H 0.461 0.44709 0.42115 0.0
C1231 C 0.52039 0.52795 0.35862 0.0
C1232 C 0.49174 0.52931 0.37715 0.0
H1233 H 0.54933 0.49726 0.34732 0.0
H1234 H 0.53656 0.54955 0.34032 0.0
C1235 C 0.47065 0.49985 0.3999 0.0
C1236 C 0.53219 0.03744 0.89739 0.0
C1237 C 0.51164 0.04782 0.8757 0.0
H1238 H 0.54282 0.99304 0.91396 0.0
C1239 C 0.48543 0.02003 0.85383 0.0
H1240 H 0.55243 0.05799 0.91475 0.0
C1241 C 0.47989 0.98304 0.85361 0.0
C1242 C 0.50051 0.97276 0.87511 0.0
H1243 H 0.46986 0.02707 0.83615 0.0
H1244 H 0.45972 0.96247 0.83619 0.0
C1245 C 0.52685 1.00034 0.89693 0.0
C1246 C 0.47429 0.49151 0.90099 0.0
C1247 C 0.47475 0.5199 0.88089 0.0
H1248 H 0.5048 0.46421 0.918 0.0
C1249 C 0.50744 0.54284 0.86185 0.0
H1250 H 0.44961 0.47376 0.91618 0.0
C1251 C 0.5388 0.53709 0.86239 0.0
C1252 C 0.53845 0.50847 0.88227 0.0
H1253 H 0.5084 0.56474 0.84587 0.0
H1254 H 0.56274 0.55433 0.84636 0.0
C1255 C 0.50594 0.48611 0.90194 0.0
C1256 C 0.03106 0.51137 0.88905 0.0
C1257 C 0.04133 0.54245 0.86756 0.0
H1258 H 0.98672 0.45627 0.90573 0.0
C1259 C 0.01294 0.54158 0.84694 0.0
H1260 H 0.0519 0.51122 0.9057 0.0
C1261 C 0.97561 0.51042 0.84744 0.0
C1262 C 0.96573 0.4791 0.8683 0.0
H1263 H 0.01973 0.56437 0.82955 0.0
H1264 H 0.95459 0.51039 0.83086 0.0
C1265 C 0.99376 0.47986 0.88916 0.0
C1266 C 0.01298 0.54066 0.61663 0.0
C1267 C 0.98389 0.50636 0.63016 0.0
H1268 H 0.07317 0.57715 0.60897 0.0
C1269 C 0.99378 0.48173 0.64615 0.0
H1270 H 1.00604 0.56001 0.60398 0.0
C1271 C 0.03207 0.49175 0.64956 0.0
C1272 C 0.06143 0.52651 0.63677 0.0
H1273 H 0.97196 0.45539 0.65729 0.0
H1274 H 0.03861 0.47286 0.66342 0.0
C1275 C 0.05138 0.55051 0.61968 0.0
C1276 C 0.56297 0.02966 0.62364 0.0
C1277 C 0.56379 0.05812 0.60317 0.0
H1278 H 0.52985 0.97263 0.64248 0.0
C1279 C 0.53101 0.04892 0.58413 0.0
H1280 H 0.58718 0.0356 0.63909 0.0
C1281 C 0.4977 0.01314 0.58697 0.0
C1282 C 0.49679 0.98539 0.60815 0.0
H1283 H 0.53073 0.06963 0.56745 0.0
H1284 H 0.47262 0.00718 0.57271 0.0
C1285 C 0.52995 0.99364 0.62588 0.0
C1286 C 0.48604 0.48565 0.57139 0.0
C1287 C 0.5135 0.4852 0.59211 0.0
H1288 H 0.45795 0.51598 0.55602 0.0
C1289 C 0.53366 0.5155 0.61425 0.0
H1290 H 0.47061 0.46275 0.55382 0.0
C1291 C 0.52602 0.54557 0.61614 0.0
C1292 C 0.49847 0.54639 0.59546 0.0
H1293 H 0.55508 0.51564 0.63041 0.0
H1294 H 0.54113 0.56765 0.63441 0.0
C1295 C 0.47887 0.51615 0.57278 0.0
C1296 C 0.679 0.21716 0.11136 0.0
C1297 C 0.69376 0.22707 0.14345 0.0
H1298 H 0.62875 0.18637 0.08155 0.0
C1299 C 0.66833 0.22013 0.16957 0.0
H1300 H 0.69774 0.22237 0.09061 0.0
C1301 C 0.62875 0.20003 0.16414 0.0
C1302 C 0.61421 0.1865 0.13259 0.0
H1303 H 0.67882 0.22764 0.19452 0.0
H1304 H 0.60958 0.19222 0.18496 0.0
C1305 C 0.63952 0.19665 0.10606 0.0
C1306 C 0.43466 0.6238 0.14257 0.0
C1307 C 0.44147 0.60546 0.11632 0.0
H1308 H 0.44948 0.67736 0.16535 0.0
C1309 C 0.46357 0.62739 0.08967 0.0
H1310 H 0.41775 0.60741 0.16342 0.0
C1311 C 0.48153 0.66727 0.0906 0.0
C1312 C 0.47813 0.686 0.11842 0.0
H1313 H 0.4689 0.61377 0.06902 0.0
H1314 H 0.50031 0.68338 0.07053 0.0
C1315 C 0.45293 0.66384 0.14366 0.0
C1316 C 0.81041 0.46366 0.10012 0.0
C1317 C 0.79769 0.46731 0.13132 0.0
H1318 H 0.84281 0.44439 0.07261 0.0
C1319 C 0.80154 0.44712 0.15782 0.0
H1320 H 0.80766 0.47852 0.0791 0.0
C1321 C 0.82134 0.42714 0.15392 0.0
C1322 C 0.83772 0.42724 0.12352 0.0
H1323 H 0.79177 0.44905 0.18213 0.0
H1324 H 0.82676 0.41461 0.1753 0.0
C1325 C 0.83047 0.44402 0.09632 0.0
C1326 C 0.3493 0.81309 0.08746 0.0
C1327 C 0.33204 0.79442 0.11701 0.0
H1328 H 0.40185 0.85005 0.06241 0.0
C1329 C 0.35539 0.79345 0.14224 0.0
H1330 H 0.33225 0.81433 0.06746 0.0
C1331 C 0.39534 0.81355 0.13906 0.0
C1332 C 0.41251 0.83521 0.11074 0.0
H1333 H 0.34297 0.77916 0.16523 0.0
H1334 H 0.4128 0.81459 0.15969 0.0
C1335 C 0.38917 0.83358 0.0845 0.0
C1336 C 0.59132 0.38554 0.15728 0.0
C1337 C 0.58986 0.4016 0.12717 0.0
H1338 H 0.57091 0.33405 0.18533 0.0
C1339 C 0.57165 0.37751 0.10027 0.0
H1340 H 0.60506 0.40373 0.17838 0.0
C1341 C 0.55256 0.33779 0.10403 0.0
C1342 C 0.55061 0.3215 0.135 0.0
H1343 H 0.57018 0.38944 0.07686 0.0
H1344 H 0.53684 0.32007 0.08324 0.0
C1345 C 0.57168 0.34571 0.16122 0.0
C1346 C 0.2045 0.57941 0.12269 0.0
C1347 C 0.18769 0.58322 0.09387 0.0
H1348 H 0.23294 0.55276 0.14559 0.0
C1349 C 0.19256 0.5684 0.0643 0.0
H1350 H 0.20061 0.59031 0.14582 0.0
C1351 C 0.21126 0.54722 0.06402 0.0
C1352 C 0.22452 0.53982 0.0935 0.0
H1353 H 0.17943 0.57082 0.04189 0.0
H1354 H 0.21233 0.53401 0.04119 0.0
C1355 C 0.22272 0.55772 0.12255 0.0
C1356 C 0.79789 0.37518 0.36716 0.0
C1357 C 0.81523 0.39527 0.39611 0.0
H1358 H 0.7686 0.32036 0.34361 0.0
C1359 C 0.80994 0.37509 0.42544 0.0
H1360 H 0.80208 0.39037 0.34423 0.0
C1361 C 0.79053 0.33512 0.42524 0.0
C1362 C 0.77705 0.31499 0.3955 0.0
H1363 H 0.82349 0.39026 0.44793 0.0
H1364 H 0.78935 0.32033 0.44776 0.0
C1365 C 0.77903 0.33521 0.36681 0.0
C1366 C 0.43327 0.76635 0.31838 0.0
C1367 C 0.45327 0.76097 0.34418 0.0
H1368 H 0.39959 0.79136 0.30357 0.0
C1369 C 0.44823 0.77035 0.37639 0.0
H1370 H 0.43635 0.75923 0.29335 0.0
C1371 C 0.42754 0.78899 0.38207 0.0
C1372 C 0.41078 0.79767 0.35581 0.0
H1373 H 0.46296 0.76637 0.39691 0.0
H1374 H 0.42702 0.79916 0.40659 0.0
C1375 C 0.41207 0.78454 0.3242 0.0
C1376 C 0.66495 0.46379 0.40961 0.0
C1377 C 0.6804 0.46209 0.37911 0.0
H1378 H 0.61403 0.44958 0.43674 0.0
C1379 C 0.6555 0.43796 0.35445 0.0
H1380 H 0.68324 0.48192 0.42921 0.0
C1381 C 0.61579 0.41893 0.35911 0.0
C1382 C 0.60054 0.42403 0.38834 0.0
H1383 H 0.6665 0.43587 0.33077 0.0
H1384 H 0.59705 0.40284 0.33892 0.0
C1385 C 0.62533 0.44526 0.41403 0.0
C1386 C 0.18563 0.59161 0.34403 0.0
C1387 C 0.16646 0.57431 0.37331 0.0
H1388 H 0.22012 0.64435 0.31852 0.0
C1389 C 0.17376 0.59682 0.40155 0.0
H1390 H 0.18029 0.57469 0.32193 0.0
C1391 C 0.19667 0.63654 0.39975 0.0
C1392 C 0.21207 0.6544 0.36949 0.0
H1393 H 0.1594 0.58391 0.42443 0.0
H1394 H 0.1995 0.65328 0.42147 0.0
C1395 C 0.2083 0.63149 0.3421 0.0
C1396 C 0.55046 0.1743 0.36265 0.0
C1397 C 0.54265 0.14558 0.33941 0.0
H1398 H 0.53272 0.21165 0.38351 0.0
C1399 C 0.5145 0.13726 0.31539 0.0
H1400 H 0.57189 0.18106 0.38151 0.0
C1401 C 0.49208 0.15466 0.31643 0.0
C1402 C 0.49711 0.18049 0.34175 0.0
H1403 H 0.50809 0.1153 0.29712 0.0
H1404 H 0.46903 0.14573 0.29878 0.0
C1405 C 0.52783 0.19161 0.36384 0.0
C1406 C 0.37762 0.56515 0.32576 0.0
C1407 C 0.39323 0.56646 0.35686 0.0
H1408 H 0.32661 0.54208 0.29648 0.0
C1409 C 0.36859 0.55027 0.38376 0.0
H1410 H 0.39616 0.57726 0.30463 0.0
C1411 C 0.32891 0.5306 0.37927 0.0
C1412 C 0.31316 0.52604 0.34763 0.0
H1413 H 0.3801 0.55096 0.40796 0.0
H1414 H 0.31081 0.51657 0.40027 0.0
C1415 C 0.33785 0.54491 0.32113 0.0
C1416 C 0.39201 0.819 0.83504 0.0
C1417 C 0.4055 0.83506 0.8662 0.0
H1418 H 0.34329 0.79071 0.80318 0.0
C1419 C 0.37916 0.82893 0.89116 0.0
H1420 H 0.41198 0.82374 0.81538 0.0
C1421 C 0.33998 0.80987 0.88437 0.0
C1422 C 0.32655 0.79733 0.85227 0.0
H1423 H 0.38909 0.84123 0.91533 0.0
H1424 H 0.32061 0.80772 0.90371 0.0
C1425 C 0.35275 0.80031 0.82807 0.0
C1426 C 0.55895 0.38655 0.89947 0.0
C1427 C 0.57981 0.41166 0.87394 0.0
H1428 H 0.52301 0.32848 0.91423 0.0
C1429 C 0.58485 0.39678 0.84441 0.0
H1430 H 0.55491 0.39753 0.92249 0.0
C1431 C 0.56616 0.35716 0.83939 0.0
C1432 C 0.5425 0.33197 0.86397 0.0
H1433 H 0.60077 0.41572 0.82436 0.0
H1434 H 0.56826 0.34642 0.81556 0.0
C1435 C 0.54077 0.34703 0.89467 0.0
C1436 C 0.19604 0.58058 0.82998 0.0
C1437 C 0.17892 0.58136 0.85972 0.0
H1438 H 0.22553 0.5572 0.80356 0.0
C1439 C 0.18401 0.56386 0.88751 0.0
H1440 H 0.19216 0.59361 0.80816 0.0
C1441 C 0.20333 0.54334 0.88505 0.0
C1442 C 0.21725 0.53931 0.85454 0.0
H1443 H 0.17091 0.56403 0.91067 0.0
H1444 H 0.20469 0.52826 0.90652 0.0
C1445 C 0.21493 0.55956 0.82736 0.0
C1446 C 0.66318 0.22346 0.83294 0.0
C1447 C 0.68757 0.22678 0.85899 0.0
H1448 H 0.60508 0.19875 0.81622 0.0
C1449 C 0.6716 0.21288 0.89014 0.0
H1450 H 0.67462 0.23406 0.80872 0.0
C1451 C 0.63192 0.19237 0.89424 0.0
C1452 C 0.60759 0.18616 0.86749 0.0
H1453 H 0.68951 0.21512 0.91082 0.0
H1454 H 0.6202 0.1793 0.9178 0.0
C1455 C 0.62342 0.20342 0.83723 0.0
C1456 C 0.42544 0.62867 0.84731 0.0
C1457 C 0.42861 0.61241 0.87674 0.0
H1458 H 0.44472 0.68018 0.81958 0.0
C1459 C 0.44851 0.63653 0.90326 0.0
H1460 H 0.41043 0.61061 0.82646 0.0
C1461 C 0.46796 0.67629 0.89948 0.0
C1462 C 0.46837 0.69262 0.86889 0.0
H1463 H 0.45128 0.62456 0.9262 0.0
H1464 H 0.48516 0.69395 0.91976 0.0
C1465 C 0.44528 0.6685 0.84337 0.0
C1466 C 0.79103 0.45356 0.82952 0.0
C1467 C 0.78853 0.47503 0.85567 0.0
H1468 H 0.81445 0.4192 0.8125 0.0
C1469 C 0.80212 0.47227 0.88678 0.0
H1470 H 0.78064 0.45486 0.80529 0.0
C1471 C 0.82157 0.45205 0.89075 0.0
C1472 C 0.82715 0.43362 0.86389 0.0
H1473 H 0.80049 0.48818 0.90754 0.0
H1474 H 0.83467 0.4531 0.91426 0.0
C1475 C 0.81013 0.43291 0.83364 0.0
C1476 C 0.18387 0.65045 0.6856 0.0
C1477 C 0.19424 0.6295 0.66458 0.0
H1478 H 0.19285 0.70553 0.69928 0.0
C1479 C 0.22709 0.64937 0.64507 0.0
H1480 H 0.15888 0.63576 0.7012 0.0
C1481 C 0.24658 0.68947 0.64383 0.0
C1482 C 0.23356 0.71033 0.66216 0.0
H1483 H 0.23571 0.63392 0.62867 0.0
H1484 H 0.26994 0.70387 0.62657 0.0
C1485 C 0.20345 0.69048 0.68454 0.0
C1486 C 0.58686 0.23131 0.64373 0.0
C1487 C 0.56719 0.23512 0.61678 0.0
H1488 H 0.62006 0.20704 0.6617 0.0
C1489 C 0.57194 0.22305 0.58561 0.0
H1490 H 0.584 0.24054 0.66801 0.0
C1491 C 0.59234 0.20375 0.58215 0.0
C1492 C 0.60897 0.1969 0.60963 0.0
H1493 H 0.55739 0.22572 0.56428 0.0
H1494 H 0.5928 0.19176 0.55846 0.0
C1495 C 0.60773 0.21241 0.64014 0.0
C1496 C 0.37883 0.58434 0.63022 0.0
C1497 C 0.39734 0.58216 0.60183 0.0
H1498 H 0.32571 0.56214 0.65606 0.0
C1499 C 0.37498 0.56094 0.57484 0.0
H1500 H 0.39536 0.60041 0.65141 0.0
C1501 C 0.33511 0.539 0.57741 0.0
C1502 C 0.31681 0.53758 0.60716 0.0
H1503 H 0.38857 0.55909 0.55253 0.0
H1504 H 0.31908 0.52079 0.55695 0.0
C1505 C 0.33888 0.56221 0.63288 0.0
C1506 C 0.80238 0.34762 0.64839 0.0
C1507 C 0.80522 0.32786 0.62104 0.0
H1508 H 0.82242 0.4022 0.67148 0.0
C1509 C 0.82515 0.3489 0.59314 0.0
H1510 H 0.78698 0.33225 0.67017 0.0
C1511 C 0.84558 0.38887 0.59404 0.0
C1512 C 0.84594 0.40849 0.62263 0.0
H1513 H 0.82763 0.33465 0.57152 0.0
H1514 H 0.86316 0.40441 0.57319 0.0
C1515 C 0.82254 0.38768 0.64913 0.0
C1516 C 0.46559 0.81252 0.59098 0.0
C1517 C 0.46713 0.79722 0.62157 0.0
H1518 H 0.45222 0.85064 0.56543 0.0
C1519 C 0.44779 0.80154 0.64844 0.0
H1520 H 0.47958 0.80907 0.56963 0.0
C1521 C 0.43179 0.82512 0.64583 0.0
C1522 C 0.43504 0.84452 0.61637 0.0
H1523 H 0.44812 0.78975 0.67223 0.0
H1524 H 0.42035 0.83111 0.66765 0.0
C1525 C 0.4499 0.83625 0.58847 0.0
C1526 C 0.63609 0.44785 0.59814 0.0
C1527 C 0.6125 0.44981 0.57378 0.0
H1528 H 0.6932 0.47143 0.61663 0.0
C1529 C 0.62951 0.4716 0.54544 0.0
H1530 H 0.62372 0.4313 0.62025 0.0
C1531 C 0.66929 0.49472 0.54335 0.0
C1532 C 0.69274 0.49661 0.56967 0.0
H1533 H 0.61189 0.4732 0.52612 0.0
H1534 H 0.68128 0.51354 0.52238 0.0
C1535 C 0.67595 0.47105 0.59608 0.0
loop_
_geom_bond_atom_site_label_1
_geom_bond_atom_site_label_2
_geom_bond_distance
_geom_bond_site_symmetry_2
_ccdc_geom_bond_type
O0 Tb1 2.292 . S
O0 C3 1.255 . S
Tb1 O0 2.292 . S
Tb1 O17 2.326 . S
Tb1 O19 2.500 . S
Tb1 O20 2.473 . S
Tb1 O23 2.324 . S
Eu2 O6 2.292 . S
Eu2 C7 2.852 . S
Eu2 O18 2.324 . S
Eu2 O22 2.326 . S
Eu2 O24 2.500 . S
Eu2 O25 2.473 . S
C3 O0 1.255 . S
C3 O4 1.247 . S
O4 C3 1.247 . S
C5 O17 1.242 . S
C5 O18 1.258 . S
O6 Eu2 2.292 . S
O6 C8 1.255 . S
C7 Eu2 2.852 . S
C7 C11 1.503 . S
C7 O24 1.273 . S
C7 O25 1.257 . S
C8 O6 1.255 . S
C8 O9 1.247 . S
O9 C8 1.247 . S
C10 O22 1.242 . S
C10 O23 1.258 . S
C11 C7 1.503 . S
C11 C12 1.379 . S
C11 C16 1.392 . S
C12 C11 1.379 . S
C12 C13 1.404 . S
C12 H26 0.929 . S
C13 C12 1.404 . S
C13 C14 1.389 . S
C14 C13 1.389 . S
C14 C15 1.399 . S
C14 H27 0.931 . S
C15 C14 1.399 . S
C15 C16 1.390 . S
C16 C11 1.392 . S
C16 C15 1.390 . S
C16 H28 0.929 . S
O17 Tb1 2.326 . S
O17 C5 1.242 . S
O18 Eu2 2.324 . S
O18 C5 1.258 . S
O19 Tb1 2.500 . S
O19 C21 1.273 . S
O20 Tb1 2.473 . S
O20 C21 1.257 . S
C21 O19 1.273 . S
C21 O20 1.257 . S
O22 Eu2 2.326 . S
O22 C10 1.242 . S
O23 Tb1 2.324 . S
O23 C10 1.258 . S
O24 Eu2 2.500 . S
O24 C7 1.273 . S
O25 Eu2 2.473 . S
O25 C7 1.257 . S
H26 C12 0.929 . S
H27 C14 0.931 . S
H28 C16 0.929 . S
O29 Tb30 2.292 . S
O29 C32 1.255 . S
Tb30 O29 2.292 . S
Tb30 O46 2.326 . S
Tb30 O48 2.500 . S
Tb30 O49 2.473 . S
Tb30 O52 2.324 . S
Eu31 O35 2.292 . S
Eu31 C36 2.852 . S
Eu31 O47 2.324 . S
Eu31 O51 2.326 . S
Eu31 O53 2.500 . S
Eu31 O54 2.473 . S
C32 O29 1.255 . S
C32 O33 1.247 . S
O33 C32 1.247 . S
C34 O46 1.242 . S
C34 O47 1.258 . S
O35 Eu31 2.292 . S
O35 C37 1.255 . S
C36 Eu31 2.852 . S
C36 C40 1.503 . S
C36 O53 1.273 . S
C36 O54 1.257 . S
C37 O35 1.255 . S
C37 O38 1.247 . S
O38 C37 1.247 . S
C39 O51 1.242 . S
C39 O52 1.258 . S
C40 C36 1.503 . S
C40 C41 1.379 . S
C40 C45 1.392 . S
C41 C40 1.379 . S
C41 C42 1.404 . S
C41 H55 0.929 . S
C42 C41 1.404 . S
C42 C43 1.389 . S
C43 C42 1.389 . S
C43 C44 1.399 . S
C43 H56 0.931 . S
C44 C43 1.399 . S
C44 C45 1.390 . S
C45 C40 1.392 . S
C45 C44 1.390 . S
C45 H57 0.929 . S
O46 Tb30 2.326 . S
O46 C34 1.242 . S
O47 Eu31 2.324 . S
O47 C34 1.258 . S
O48 Tb30 2.500 . S
O48 C50 1.273 . S
O49 Tb30 2.473 . S
O49 C50 1.257 . S
C50 O48 1.273 . S
C50 O49 1.257 . S
O51 Eu31 2.326 . S
O51 C39 1.242 . S
O52 Tb30 2.324 . S
O52 C39 1.258 . S
O53 Eu31 2.500 . S
O53 C36 1.273 . S
O54 Eu31 2.473 . S
O54 C36 1.257 . S
H55 C41 0.929 . S
H56 C43 0.931 . S
H57 C45 0.929 . S
O58 Tb59 2.292 . S
O58 C61 1.255 . S
Tb59 O58 2.292 . S
Tb59 O75 2.326 . S
Tb59 O77 2.500 . S
Tb59 O78 2.473 . S
Tb59 O81 2.324 . S
Eu60 O64 2.292 . S
Eu60 C65 2.852 . S
Eu60 O76 2.324 . S
Eu60 O80 2.326 . S
Eu60 O82 2.500 . S
Eu60 O83 2.473 . S
C61 O58 1.255 . S
C61 O62 1.247 . S
O62 C61 1.247 . S
C63 O75 1.242 . S
C63 O76 1.258 . S
O64 Eu60 2.292 . S
O64 C66 1.255 . S
C65 Eu60 2.852 . S
C65 C69 1.503 . S
C65 O82 1.273 . S
C65 O83 1.257 . S
C66 O64 1.255 . S
C66 O67 1.247 . S
O67 C66 1.247 . S
C68 O80 1.242 . S
C68 O81 1.258 . S
C69 C65 1.503 . S
C69 C70 1.379 . S
C69 C74 1.392 . S
C70 C69 1.379 . S
C70 C71 1.404 . S
C70 H84 0.929 . S
C71 C70 1.404 . S
C71 C72 1.389 . S
C72 C71 1.389 . S
C72 C73 1.399 . S
C72 H85 0.931 . S
C73 C72 1.399 . S
C73 C74 1.390 . S
C74 C69 1.392 . S
C74 C73 1.390 . S
C74 H86 0.929 . S
O75 Tb59 2.326 . S
O75 C63 1.242 . S
O76 Eu60 2.324 . S
O76 C63 1.258 . S
O77 Tb59 2.500 . S
O77 C79 1.273 . S
O78 Tb59 2.473 . S
O78 C79 1.257 . S
C79 O77 1.273 . S
C79 O78 1.257 . S
O80 Eu60 2.326 . S
O80 C68 1.242 . S
O81 Tb59 2.324 . S
O81 C68 1.258 . S
O82 Eu60 2.500 . S
O82 C65 1.273 . S
O83 Eu60 2.473 . S
O83 C65 1.257 . S
H84 C70 0.929 . S
H85 C72 0.931 . S
H86 C74 0.929 . S
O87 Tb88 2.292 . S
O87 C90 1.255 . S
Tb88 O87 2.292 . S
Tb88 O104 2.326 . S
Tb88 O106 2.500 . S
Tb88 O107 2.473 . S
Tb88 O110 2.324 . S
Eu89 O93 2.292 . S
Eu89 C94 2.852 . S
Eu89 O105 2.324 . S
Eu89 O109 2.326 . S
Eu89 O111 2.500 . S
Eu89 O112 2.473 . S
C90 O87 1.255 . S
C90 O91 1.247 . S
O91 C90 1.247 . S
C92 O104 1.242 . S
C92 O105 1.258 . S
O93 Eu89 2.292 . S
O93 C95 1.255 . S
C94 Eu89 2.852 . S
C94 C98 1.503 . S
C94 O111 1.273 . S
C94 O112 1.257 . S
C95 O93 1.255 . S
C95 O96 1.247 . S
O96 C95 1.247 . S
C97 O109 1.242 . S
C97 O110 1.258 . S
C98 C94 1.503 . S
C98 C99 1.379 . S
C98 C103 1.392 . S
C99 C98 1.379 . S
C99 C100 1.404 . S
C99 H113 0.929 . S
C100 C99 1.404 . S
C100 C101 1.389 . S
C101 C100 1.389 . S
C101 C102 1.399 . S
C101 H114 0.931 . S
C102 C101 1.399 . S
C102 C103 1.390 . S
C103 C98 1.392 . S
C103 C102 1.390 . S
C103 H115 0.929 . S
O104 Tb88 2.326 . S
O104 C92 1.242 . S
O105 Eu89 2.324 . S
O105 C92 1.258 . S
O106 Tb88 2.500 . S
O106 C108 1.273 . S
O107 Tb88 2.473 . S
O107 C108 1.257 . S
C108 O106 1.273 . S
C108 O107 1.257 . S
O109 Eu89 2.326 . S
O109 C97 1.242 . S
O110 Tb88 2.324 . S
O110 C97 1.258 . S
O111 Eu89 2.500 . S
O111 C94 1.273 . S
O112 Eu89 2.473 . S
O112 C94 1.257 . S
H113 C99 0.929 . S
H114 C101 0.931 . S
H115 C103 0.929 . S
O116 Tb117 2.292 . S
O116 C119 1.255 . S
Tb117 O116 2.292 . S
Tb117 O133 2.326 . S
Tb117 O135 2.500 . S
Tb117 O136 2.473 . S
Tb117 O139 2.324 . S
Eu118 O122 2.292 . S
Eu118 C123 2.852 . S
Eu118 O134 2.324 . S
Eu118 O138 2.326 . S
Eu118 O140 2.500 . S
Eu118 O141 2.473 . S
C119 O116 1.255 . S
C119 O120 1.247 . S
O120 C119 1.247 . S
C121 O133 1.242 . S
C121 O134 1.258 . S
O122 Eu118 2.292 . S
O122 C124 1.255 . S
C123 Eu118 2.852 . S
C123 C127 1.503 . S
C123 O140 1.273 . S
C123 O141 1.257 . S
C124 O122 1.255 . S
C124 O125 1.247 . S
O125 C124 1.247 . S
C126 O138 1.242 . S
C126 O139 1.258 . S
C127 C123 1.503 . S
C127 C128 1.379 . S
C127 C132 1.392 . S
C128 C127 1.379 . S
C128 C129 1.404 . S
C128 H142 0.929 . S
C129 C128 1.404 . S
C129 C130 1.389 . S
C130 C129 1.389 . S
C130 C131 1.399 . S
C130 H143 0.931 . S
C131 C130 1.399 . S
C131 C132 1.390 . S
C132 C127 1.392 . S
C132 C131 1.390 . S
C132 H144 0.929 . S
O133 Tb117 2.326 . S
O133 C121 1.242 . S
O134 Eu118 2.324 . S
O134 C121 1.258 . S
O135 Tb117 2.500 . S
O135 C137 1.273 . S
O136 Tb117 2.473 . S
O136 C137 1.257 . S
C137 O135 1.273 . S
C137 O136 1.257 . S
O138 Eu118 2.326 . S
O138 C126 1.242 . S
O139 Tb117 2.324 . S
O139 C126 1.258 . S
O140 Eu118 2.500 . S
O140 C123 1.273 . S
O141 Eu118 2.473 . S
O141 C123 1.257 . S
H142 C128 0.929 . S
H143 C130 0.931 . S
H144 C132 0.929 . S
O145 Tb146 2.292 . S
O145 C148 1.255 . S
Tb146 O145 2.292 . S
Tb146 O162 2.326 . S
Tb146 O164 2.500 . S
Tb146 O165 2.473 . S
Tb146 O168 2.324 . S
Eu147 O151 2.292 . S
Eu147 C152 2.852 . S
Eu147 O163 2.324 . S
Eu147 O167 2.326 . S
Eu147 O169 2.500 . S
Eu147 O170 2.473 . S
C148 O145 1.255 . S
C148 O149 1.247 . S
O149 C148 1.247 . S
C150 O162 1.242 . S
C150 O163 1.258 . S
O151 Eu147 2.292 . S
O151 C153 1.255 . S
C152 Eu147 2.852 . S
C152 C156 1.503 . S
C152 O169 1.273 . S
C152 O170 1.257 . S
C153 O151 1.255 . S
C153 O154 1.247 . S
O154 C153 1.247 . S
C155 O167 1.242 . S
C155 O168 1.258 . S
C156 C152 1.503 . S
C156 C157 1.379 . S
C156 C161 1.392 . S
C157 C156 1.379 . S
C157 C158 1.404 . S
C157 H171 0.929 . S
C158 C157 1.404 . S
C158 C159 1.389 . S
C159 C158 1.389 . S
C159 C160 1.399 . S
C159 H172 0.931 . S
C160 C159 1.399 . S
C160 C161 1.390 . S
C161 C156 1.392 . S
C161 C160 1.390 . S
C161 H173 0.929 . S
O162 Tb146 2.326 . S
O162 C150 1.242 . S
O163 Eu147 2.324 . S
O163 C150 1.258 . S
O164 Tb146 2.500 . S
O164 C166 1.273 . S
O165 Tb146 2.473 . S
O165 C166 1.257 . S
C166 O164 1.273 . S
C166 O165 1.257 . S
O167 Eu147 2.326 . S
O167 C155 1.242 . S
O168 Tb146 2.324 . S
O168 C155 1.258 . S
O169 Eu147 2.500 . S
O169 C152 1.273 . S
O170 Eu147 2.473 . S
O170 C152 1.257 . S
H171 C157 0.929 . S
H172 C159 0.931 . S
H173 C161 0.929 . S
O174 Tb175 2.292 . S
O174 C177 1.255 . S
Tb175 O174 2.292 . S
Tb175 O191 2.326 . S
Tb175 O193 2.500 . S
Tb175 O194 2.473 . S
Tb175 O197 2.324 . S
Eu176 O180 2.292 . S
Eu176 C181 2.852 . S
Eu176 O192 2.324 . S
Eu176 O196 2.326 . S
Eu176 O198 2.500 . S
Eu176 O199 2.473 . S
C177 O174 1.255 . S
C177 O178 1.247 . S
O178 C177 1.247 . S
C179 O191 1.242 . S
C179 O192 1.258 . S
O180 Eu176 2.292 . S
O180 C182 1.255 . S
C181 Eu176 2.852 . S
C181 C185 1.503 . S
C181 O198 1.273 . S
C181 O199 1.257 . S
C182 O180 1.255 . S
C182 O183 1.247 . S
O183 C182 1.247 . S
C184 O196 1.242 . S
C184 O197 1.258 . S
C185 C181 1.503 . S
C185 C186 1.379 . S
C185 C190 1.392 . S
C186 C185 1.379 . S
C186 C187 1.404 . S
C186 H200 0.929 . S
C187 C186 1.404 . S
C187 C188 1.389 . S
C188 C187 1.389 . S
C188 C189 1.399 . S
C188 H201 0.931 . S
C189 C188 1.399 . S
C189 C190 1.390 . S
C190 C185 1.392 . S
C190 C189 1.390 . S
C190 H202 0.929 . S
O191 Tb175 2.326 . S
O191 C179 1.242 . S
O192 Eu176 2.324 . S
O192 C179 1.258 . S
O193 Tb175 2.500 . S
O193 C195 1.273 . S
O194 Tb175 2.473 . S
O194 C195 1.257 . S
C195 O193 1.273 . S
C195 O194 1.257 . S
O196 Eu176 2.326 . S
O196 C184 1.242 . S
O197 Tb175 2.324 . S
O197 C184 1.258 . S
O198 Eu176 2.500 . S
O198 C181 1.273 . S
O199 Eu176 2.473 . S
O199 C181 1.257 . S
H200 C186 0.929 . S
H201 C188 0.931 . S
H202 C190 0.929 . S
O203 Tb204 2.292 . S
O203 C206 1.255 . S
Tb204 O203 2.292 . S
Tb204 O220 2.326 . S
Tb204 O222 2.500 . S
Tb204 O223 2.473 . S
Tb204 O226 2.324 . S
Eu205 O209 2.292 . S
Eu205 C210 2.852 . S
Eu205 O221 2.324 . S
Eu205 O225 2.326 . S
Eu205 O227 2.500 . S
Eu205 O228 2.473 . S
C206 O203 1.255 . S
C206 O207 1.247 . S
O207 C206 1.247 . S
C208 O220 1.242 . S
C208 O221 1.258 . S
O209 Eu205 2.292 . S
O209 C211 1.255 . S
C210 Eu205 2.852 . S
C210 C214 1.503 . S
C210 O227 1.273 . S
C210 O228 1.257 . S
C211 O209 1.255 . S
C211 O212 1.247 . S
O212 C211 1.247 . S
C213 O225 1.242 . S
C213 O226 1.258 . S
C214 C210 1.503 . S
C214 C215 1.379 . S
C214 C219 1.392 . S
C215 C214 1.379 . S
C215 C216 1.404 . S
C215 H229 0.929 . S
C216 C215 1.404 . S
C216 C217 1.389 . S
C217 C216 1.389 . S
C217 C218 1.399 . S
C217 H230 0.931 . S
C218 C217 1.399 . S
C218 C219 1.390 . S
C219 C214 1.392 . S
C219 C218 1.390 . S
C219 H231 0.929 . S
O220 Tb204 2.326 . S
O220 C208 1.242 . S
O221 Eu205 2.324 . S
O221 C208 1.258 . S
O222 Tb204 2.500 . S
O222 C224 1.273 . S
O223 Tb204 2.473 . S
O223 C224 1.257 . S
C224 O222 1.273 . S
C224 O223 1.257 . S
O225 Eu205 2.326 . S
O225 C213 1.242 . S
O226 Tb204 2.324 . S
O226 C213 1.258 . S
O227 Eu205 2.500 . S
O227 C210 1.273 . S
O228 Eu205 2.473 . S
O228 C210 1.257 . S
H229 C215 0.929 . S
H230 C217 0.931 . S
H231 C219 0.929 . S
O232 Tb233 2.292 . S
O232 C235 1.255 . S
Tb233 O232 2.292 . S
Tb233 O249 2.326 . S
Tb233 O251 2.500 . S
Tb233 O252 2.473 . S
Tb233 O255 2.324 . S
Eu234 O238 2.292 . S
Eu234 C239 2.852 . S
Eu234 O250 2.324 . S
Eu234 O254 2.326 . S
Eu234 O256 2.500 . S
Eu234 O257 2.473 . S
C235 O232 1.255 . S
C235 O236 1.247 . S
O236 C235 1.247 . S
C237 O249 1.242 . S
C237 O250 1.258 . S
O238 Eu234 2.292 . S
O238 C240 1.255 . S
C239 Eu234 2.852 . S
C239 C243 1.503 . S
C239 O256 1.273 . S
C239 O257 1.257 . S
C240 O238 1.255 . S
C240 O241 1.247 . S
O241 C240 1.247 . S
C242 O254 1.242 . S
C242 O255 1.258 . S
C243 C239 1.503 . S
C243 C244 1.379 . S
C243 C248 1.392 . S
C244 C243 1.379 . S
C244 C245 1.404 . S
C244 H258 0.929 . S
C245 C244 1.404 . S
C245 C246 1.389 . S
C246 C245 1.389 . S
C246 C247 1.399 . S
C246 H259 0.931 . S
C247 C246 1.399 . S
C247 C248 1.390 . S
C248 C243 1.392 . S
C248 C247 1.390 . S
C248 H260 0.929 . S
O249 Tb233 2.326 . S
O249 C237 1.242 . S
O250 Eu234 2.324 . S
O250 C237 1.258 . S
O251 Tb233 2.500 . S
O251 C253 1.273 . S
O252 Tb233 2.473 . S
O252 C253 1.257 . S
C253 O251 1.273 . S
C253 O252 1.257 . S
O254 Eu234 2.326 . S
O254 C242 1.242 . S
O255 Tb233 2.324 . S
O255 C242 1.258 . S
O256 Eu234 2.500 . S
O256 C239 1.273 . S
O257 Eu234 2.473 . S
O257 C239 1.257 . S
H258 C244 0.929 . S
H259 C246 0.931 . S
H260 C248 0.929 . S
O261 Tb262 2.292 . S
O261 C264 1.255 . S
Tb262 O261 2.292 . S
Tb262 O278 2.326 . S
Tb262 O280 2.500 . S
Tb262 O281 2.473 . S
Tb262 O284 2.324 . S
Eu263 O267 2.292 . S
Eu263 C268 2.852 . S
Eu263 O279 2.324 . S
Eu263 O283 2.326 . S
Eu263 O285 2.500 . S
Eu263 O286 2.473 . S
C264 O261 1.255 . S
C264 O265 1.247 . S
O265 C264 1.247 . S
C266 O278 1.242 . S
C266 O279 1.258 . S
O267 Eu263 2.292 . S
O267 C269 1.255 . S
C268 Eu263 2.852 . S
C268 C272 1.503 . S
C268 O285 1.273 . S
C268 O286 1.257 . S
C269 O267 1.255 . S
C269 O270 1.247 . S
O270 C269 1.247 . S
C271 O283 1.242 . S
C271 O284 1.258 . S
C272 C268 1.503 . S
C272 C273 1.379 . S
C272 C277 1.392 . S
C273 C272 1.379 . S
C273 C274 1.404 . S
C273 H287 0.929 . S
C274 C273 1.404 . S
C274 C275 1.389 . S
C275 C274 1.389 . S
C275 C276 1.399 . S
C275 H288 0.931 . S
C276 C275 1.399 . S
C276 C277 1.390 . S
C277 C272 1.392 . S
C277 C276 1.390 . S
C277 H289 0.929 . S
O278 Tb262 2.326 . S
O278 C266 1.242 . S
O279 Eu263 2.324 . S
O279 C266 1.258 . S
O280 Tb262 2.500 . S
O280 C282 1.273 . S
O281 Tb262 2.473 . S
O281 C282 1.257 . S
C282 O280 1.273 . S
C282 O281 1.257 . S
O283 Eu263 2.326 . S
O283 C271 1.242 . S
O284 Tb262 2.324 . S
O284 C271 1.258 . S
O285 Eu263 2.500 . S
O285 C268 1.273 . S
O286 Eu263 2.473 . S
O286 C268 1.257 . S
H287 C273 0.929 . S
H288 C275 0.931 . S
H289 C277 0.929 . S
O290 Tb291 2.292 . S
O290 C293 1.255 . S
Tb291 O290 2.292 . S
Tb291 O307 2.326 . S
Tb291 O309 2.500 . S
Tb291 O310 2.473 . S
Tb291 O313 2.324 . S
Eu292 O296 2.292 . S
Eu292 C297 2.852 . S
Eu292 O308 2.324 . S
Eu292 O312 2.326 . S
Eu292 O314 2.500 . S
Eu292 O315 2.473 . S
C293 O290 1.255 . S
C293 O294 1.247 . S
O294 C293 1.247 . S
C295 O307 1.242 . S
C295 O308 1.258 . S
O296 Eu292 2.292 . S
O296 C298 1.255 . S
C297 Eu292 2.852 . S
C297 C301 1.503 . S
C297 O314 1.273 . S
C297 O315 1.257 . S
C298 O296 1.255 . S
C298 O299 1.247 . S
O299 C298 1.247 . S
C300 O312 1.242 . S
C300 O313 1.258 . S
C301 C297 1.503 . S
C301 C302 1.379 . S
C301 C306 1.392 . S
C302 C301 1.379 . S
C302 C303 1.404 . S
C302 H316 0.929 . S
C303 C302 1.404 . S
C303 C304 1.389 . S
C304 C303 1.389 . S
C304 C305 1.399 . S
C304 H317 0.931 . S
C305 C304 1.399 . S
C305 C306 1.390 . S
C306 C301 1.392 . S
C306 C305 1.390 . S
C306 H318 0.929 . S
O307 Tb291 2.326 . S
O307 C295 1.242 . S
O308 Eu292 2.324 . S
O308 C295 1.258 . S
O309 Tb291 2.500 . S
O309 C311 1.273 . S
O310 Tb291 2.473 . S
O310 C311 1.257 . S
C311 O309 1.273 . S
C311 O310 1.257 . S
O312 Eu292 2.326 . S
O312 C300 1.242 . S
O313 Tb291 2.324 . S
O313 C300 1.258 . S
O314 Eu292 2.500 . S
O314 C297 1.273 . S
O315 Eu292 2.473 . S
O315 C297 1.257 . S
H316 C302 0.929 . S
H317 C304 0.931 . S
H318 C306 0.929 . S
O319 Tb320 2.292 . S
O319 C322 1.255 . S
Tb320 O319 2.292 . S
Tb320 O336 2.326 . S
Tb320 O338 2.500 . S
Tb320 O339 2.473 . S
Tb320 O342 2.324 . S
Eu321 O325 2.292 . S
Eu321 C326 2.852 . S
Eu321 O337 2.324 . S
Eu321 O341 2.326 . S
Eu321 O343 2.500 . S
Eu321 O344 2.473 . S
C322 O319 1.255 . S
C322 O323 1.247 . S
O323 C322 1.247 . S
C324 O336 1.242 . S
C324 O337 1.258 . S
O325 Eu321 2.292 . S
O325 C327 1.255 . S
C326 Eu321 2.852 . S
C326 C330 1.503 . S
C326 O343 1.273 . S
C326 O344 1.257 . S
C327 O325 1.255 . S
C327 O328 1.247 . S
O328 C327 1.247 . S
C329 O341 1.242 . S
C329 O342 1.258 . S
C330 C326 1.503 . S
C330 C331 1.379 . S
C330 C335 1.392 . S
C331 C330 1.379 . S
C331 C332 1.404 . S
C331 H345 0.929 . S
C332 C331 1.404 . S
C332 C333 1.389 . S
C333 C332 1.389 . S
C333 C334 1.399 . S
C333 H346 0.931 . S
C334 C333 1.399 . S
C334 C335 1.390 . S
C335 C330 1.392 . S
C335 C334 1.390 . S
C335 H347 0.929 . S
O336 Tb320 2.326 . S
O336 C324 1.242 . S
O337 Eu321 2.324 . S
O337 C324 1.258 . S
O338 Tb320 2.500 . S
O338 C340 1.273 . S
O339 Tb320 2.473 . S
O339 C340 1.257 . S
C340 O338 1.273 . S
C340 O339 1.257 . S
O341 Eu321 2.326 . S
O341 C329 1.242 . S
O342 Tb320 2.324 . S
O342 C329 1.258 . S
O343 Eu321 2.500 . S
O343 C326 1.273 . S
O344 Eu321 2.473 . S
O344 C326 1.257 . S
H345 C331 0.929 . S
H346 C333 0.931 . S
H347 C335 0.929 . S
O348 Tb349 2.292 . S
O348 C351 1.255 . S
Tb349 O348 2.292 . S
Tb349 O365 2.326 . S
Tb349 O367 2.500 . S
Tb349 O368 2.473 . S
Tb349 O371 2.324 . S
Eu350 O354 2.292 . S
Eu350 C355 2.852 . S
Eu350 O366 2.324 . S
Eu350 O370 2.326 . S
Eu350 O372 2.500 . S
Eu350 O373 2.473 . S
C351 O348 1.255 . S
C351 O352 1.247 . S
O352 C351 1.247 . S
C353 O365 1.242 . S
C353 O366 1.258 . S
O354 Eu350 2.292 . S
O354 C356 1.255 . S
C355 Eu350 2.852 . S
C355 C359 1.503 . S
C355 O372 1.273 . S
C355 O373 1.257 . S
C356 O354 1.255 . S
C356 O357 1.247 . S
O357 C356 1.247 . S
C358 O370 1.242 . S
C358 O371 1.258 . S
C359 C355 1.503 . S
C359 C360 1.379 . S
C359 C364 1.392 . S
C360 C359 1.379 . S
C360 C361 1.404 . S
C360 H374 0.929 . S
C361 C360 1.404 . S
C361 C362 1.389 . S
C362 C361 1.389 . S
C362 C363 1.399 . S
C362 H375 0.931 . S
C363 C362 1.399 . S
C363 C364 1.390 . S
C364 C359 1.392 . S
C364 C363 1.390 . S
C364 H376 0.929 . S
O365 Tb349 2.326 . S
O365 C353 1.242 . S
O366 Eu350 2.324 . S
O366 C353 1.258 . S
O367 Tb349 2.500 . S
O367 C369 1.273 . S
O368 Tb349 2.473 . S
O368 C369 1.257 . S
C369 O367 1.273 . S
C369 O368 1.257 . S
O370 Eu350 2.326 . S
O370 C358 1.242 . S
O371 Tb349 2.324 . S
O371 C358 1.258 . S
O372 Eu350 2.500 . S
O372 C355 1.273 . S
O373 Eu350 2.473 . S
O373 C355 1.257 . S
H374 C360 0.929 . S
H375 C362 0.931 . S
H376 C364 0.929 . S
O377 Tb378 2.292 . S
O377 C380 1.255 . S
Tb378 O377 2.292 . S
Tb378 O394 2.326 . S
Tb378 O396 2.500 . S
Tb378 O397 2.473 . S
Tb378 O400 2.324 . S
Eu379 O383 2.292 . S
Eu379 C384 2.852 . S
Eu379 O395 2.324 . S
Eu379 O399 2.326 . S
Eu379 O401 2.500 . S
Eu379 O402 2.473 . S
C380 O377 1.255 . S
C380 O381 1.247 . S
O381 C380 1.247 . S
C382 O394 1.242 . S
C382 O395 1.258 . S
O383 Eu379 2.292 . S
O383 C385 1.255 . S
C384 Eu379 2.852 . S
C384 C388 1.503 . S
C384 O401 1.273 . S
C384 O402 1.257 . S
C385 O383 1.255 . S
C385 O386 1.247 . S
O386 C385 1.247 . S
C387 O399 1.242 . S
C387 O400 1.258 . S
C388 C384 1.503 . S
C388 C389 1.379 . S
C388 C393 1.392 . S
C389 C388 1.379 . S
C389 C390 1.404 . S
C389 H403 0.929 . S
C390 C389 1.404 . S
C390 C391 1.389 . S
C391 C390 1.389 . S
C391 C392 1.399 . S
C391 H404 0.931 . S
C392 C391 1.399 . S
C392 C393 1.390 . S
C393 C388 1.392 . S
C393 C392 1.390 . S
C393 H405 0.929 . S
O394 Tb378 2.326 . S
O394 C382 1.242 . S
O395 Eu379 2.324 . S
O395 C382 1.258 . S
O396 Tb378 2.500 . S
O396 C398 1.273 . S
O397 Tb378 2.473 . S
O397 C398 1.257 . S
C398 O396 1.273 . S
C398 O397 1.257 . S
O399 Eu379 2.326 . S
O399 C387 1.242 . S
O400 Tb378 2.324 . S
O400 C387 1.258 . S
O401 Eu379 2.500 . S
O401 C384 1.273 . S
O402 Eu379 2.473 . S
O402 C384 1.257 . S
H403 C389 0.929 . S
H404 C391 0.931 . S
H405 C393 0.929 . S
O406 Tb407 2.292 . S
O406 C409 1.255 . S
Tb407 O406 2.292 . S
Tb407 O423 2.326 . S
Tb407 O425 2.500 . S
Tb407 O426 2.473 . S
Tb407 O429 2.324 . S
Eu408 O412 2.292 . S
Eu408 C413 2.852 . S
Eu408 O424 2.324 . S
Eu408 O428 2.326 . S
Eu408 O430 2.500 . S
Eu408 O431 2.473 . S
C409 O406 1.255 . S
C409 O410 1.247 . S
O410 C409 1.247 . S
C411 O423 1.242 . S
C411 O424 1.258 . S
O412 Eu408 2.292 . S
O412 C414 1.255 . S
C413 Eu408 2.852 . S
C413 C417 1.503 . S
C413 O430 1.273 . S
C413 O431 1.257 . S
C414 O412 1.255 . S
C414 O415 1.247 . S
O415 C414 1.247 . S
C416 O428 1.242 . S
C416 O429 1.258 . S
C417 C413 1.503 . S
C417 C418 1.379 . S
C417 C422 1.392 . S
C418 C417 1.379 . S
C418 C419 1.404 . S
C418 H432 0.929 . S
C419 C418 1.404 . S
C419 C420 1.389 . S
C420 C419 1.389 . S
C420 C421 1.399 . S
C420 H433 0.931 . S
C421 C420 1.399 . S
C421 C422 1.390 . S
C422 C417 1.392 . S
C422 C421 1.390 . S
C422 H434 0.929 . S
O423 Tb407 2.326 . S
O423 C411 1.242 . S
O424 Eu408 2.324 . S
O424 C411 1.258 . S
O425 Tb407 2.500 . S
O425 C427 1.273 . S
O426 Tb407 2.473 . S
O426 C427 1.257 . S
C427 O425 1.273 . S
C427 O426 1.257 . S
O428 Eu408 2.326 . S
O428 C416 1.242 . S
O429 Tb407 2.324 . S
O429 C416 1.258 . S
O430 Eu408 2.500 . S
O430 C413 1.273 . S
O431 Eu408 2.473 . S
O431 C413 1.257 . S
H432 C418 0.929 . S
H433 C420 0.931 . S
H434 C422 0.929 . S
O435 Tb436 2.292 . S
O435 C438 1.255 . S
Tb436 O435 2.292 . S
Tb436 O452 2.326 . S
Tb436 O454 2.500 . S
Tb436 O455 2.473 . S
Tb436 O458 2.324 . S
Eu437 O441 2.292 . S
Eu437 C442 2.852 . S
Eu437 O453 2.324 . S
Eu437 O457 2.326 . S
Eu437 O459 2.500 . S
Eu437 O460 2.473 . S
C438 O435 1.255 . S
C438 O439 1.247 . S
O439 C438 1.247 . S
C440 O452 1.242 . S
C440 O453 1.258 . S
O441 Eu437 2.292 . S
O441 C443 1.255 . S
C442 Eu437 2.852 . S
C442 C446 1.503 . S
C442 O459 1.273 . S
C442 O460 1.257 . S
C443 O441 1.255 . S
C443 O444 1.247 . S
O444 C443 1.247 . S
C445 O457 1.242 . S
C445 O458 1.258 . S
C446 C442 1.503 . S
C446 C447 1.379 . S
C446 C451 1.392 . S
C447 C446 1.379 . S
C447 C448 1.404 . S
C447 H461 0.929 . S
C448 C447 1.404 . S
C448 C449 1.389 . S
C449 C448 1.389 . S
C449 C450 1.399 . S
C449 H462 0.931 . S
C450 C449 1.399 . S
C450 C451 1.390 . S
C451 C446 1.392 . S
C451 C450 1.390 . S
C451 H463 0.929 . S
O452 Tb436 2.326 . S
O452 C440 1.242 . S
O453 Eu437 2.324 . S
O453 C440 1.258 . S
O454 Tb436 2.500 . S
O454 C456 1.273 . S
O455 Tb436 2.473 . S
O455 C456 1.257 . S
C456 O454 1.273 . S
C456 O455 1.257 . S
O457 Eu437 2.326 . S
O457 C445 1.242 . S
O458 Tb436 2.324 . S
O458 C445 1.258 . S
O459 Eu437 2.500 . S
O459 C442 1.273 . S
O460 Eu437 2.473 . S
O460 C442 1.257 . S
H461 C447 0.929 . S
H462 C449 0.931 . S
H463 C451 0.929 . S
O464 Tb465 2.292 . S
O464 C467 1.255 . S
Tb465 O464 2.292 . S
Tb465 O481 2.326 . S
Tb465 O483 2.500 . S
Tb465 O484 2.473 . S
Tb465 O487 2.324 . S
Eu466 O470 2.292 . S
Eu466 C471 2.852 . S
Eu466 O482 2.324 . S
Eu466 O486 2.326 . S
Eu466 O488 2.500 . S
Eu466 O489 2.473 . S
C467 O464 1.255 . S
C467 O468 1.247 . S
O468 C467 1.247 . S
C469 O481 1.242 . S
C469 O482 1.258 . S
O470 Eu466 2.292 . S
O470 C472 1.255 . S
C471 Eu466 2.852 . S
C471 C475 1.503 . S
C471 O488 1.273 . S
C471 O489 1.257 . S
C472 O470 1.255 . S
C472 O473 1.247 . S
O473 C472 1.247 . S
C474 O486 1.242 . S
C474 O487 1.258 . S
C475 C471 1.503 . S
C475 C476 1.379 . S
C475 C480 1.392 . S
C476 C475 1.379 . S
C476 C477 1.404 . S
C476 H490 0.929 . S
C477 C476 1.404 . S
C477 C478 1.389 . S
C478 C477 1.389 . S
C478 C479 1.399 . S
C478 H491 0.931 . S
C479 C478 1.399 . S
C479 C480 1.390 . S
C480 C475 1.392 . S
C480 C479 1.390 . S
C480 H492 0.929 . S
O481 Tb465 2.326 . S
O481 C469 1.242 . S
O482 Eu466 2.324 . S
O482 C469 1.258 . S
O483 Tb465 2.500 . S
O483 C485 1.273 . S
O484 Tb465 2.473 . S
O484 C485 1.257 . S
C485 O483 1.273 . S
C485 O484 1.257 . S
O486 Eu466 2.326 . S
O486 C474 1.242 . S
O487 Tb465 2.324 . S
O487 C474 1.258 . S
O488 Eu466 2.500 . S
O488 C471 1.273 . S
O489 Eu466 2.473 . S
O489 C471 1.257 . S
H490 C476 0.929 . S
H491 C478 0.931 . S
H492 C480 0.929 . S
O493 Tb494 2.292 . S
O493 C496 1.255 . S
Tb494 O493 2.292 . S
Tb494 O510 2.326 . S
Tb494 O512 2.500 . S
Tb494 O513 2.473 . S
Tb494 O516 2.324 . S
Eu495 O499 2.292 . S
Eu495 C500 2.852 . S
Eu495 O511 2.324 . S
Eu495 O515 2.326 . S
Eu495 O517 2.500 . S
Eu495 O518 2.473 . S
C496 O493 1.255 . S
C496 O497 1.247 . S
O497 C496 1.247 . S
C498 O510 1.242 . S
C498 O511 1.258 . S
O499 Eu495 2.292 . S
O499 C501 1.255 . S
C500 Eu495 2.852 . S
C500 C504 1.503 . S
C500 O517 1.273 . S
C500 O518 1.257 . S
C501 O499 1.255 . S
C501 O502 1.247 . S
O502 C501 1.247 . S
C503 O515 1.242 . S
C503 O516 1.258 . S
C504 C500 1.503 . S
C504 C505 1.379 . S
C504 C509 1.392 . S
C505 C504 1.379 . S
C505 C506 1.404 . S
C505 H519 0.929 . S
C506 C505 1.404 . S
C506 C507 1.389 . S
C507 C506 1.389 . S
C507 C508 1.399 . S
C507 H520 0.931 . S
C508 C507 1.399 . S
C508 C509 1.390 . S
C509 C504 1.392 . S
C509 C508 1.390 . S
C509 H521 0.929 . S
O510 Tb494 2.326 . S
O510 C498 1.242 . S
O511 Eu495 2.324 . S
O511 C498 1.258 . S
O512 Tb494 2.500 . S
O512 C514 1.273 . S
O513 Tb494 2.473 . S
O513 C514 1.257 . S
C514 O512 1.273 . S
C514 O513 1.257 . S
O515 Eu495 2.326 . S
O515 C503 1.242 . S
O516 Tb494 2.324 . S
O516 C503 1.258 . S
O517 Eu495 2.500 . S
O517 C500 1.273 . S
O518 Eu495 2.473 . S
O518 C500 1.257 . S
H519 C505 0.929 . S
H520 C507 0.931 . S
H521 C509 0.929 . S
O522 Tb523 2.292 . S
O522 C525 1.255 . S
Tb523 O522 2.292 . S
Tb523 O539 2.326 . S
Tb523 O541 2.500 . S
Tb523 O542 2.473 . S
Tb523 O545 2.324 . S
Eu524 O528 2.292 . S
Eu524 C529 2.852 . S
Eu524 O540 2.324 . S
Eu524 O544 2.326 . S
Eu524 O546 2.500 . S
Eu524 O547 2.473 . S
C525 O522 1.255 . S
C525 O526 1.247 . S
O526 C525 1.247 . S
C527 O539 1.242 . S
C527 O540 1.258 . S
O528 Eu524 2.292 . S
O528 C530 1.255 . S
C529 Eu524 2.852 . S
C529 C533 1.503 . S
C529 O546 1.273 . S
C529 O547 1.257 . S
C530 O528 1.255 . S
C530 O531 1.247 . S
O531 C530 1.247 . S
C532 O544 1.242 . S
C532 O545 1.258 . S
C533 C529 1.503 . S
C533 C534 1.379 . S
C533 C538 1.392 . S
C534 C533 1.379 . S
C534 C535 1.404 . S
C534 H548 0.929 . S
C535 C534 1.404 . S
C535 C536 1.389 . S
C536 C535 1.389 . S
C536 C537 1.399 . S
C536 H549 0.931 . S
C537 C536 1.399 . S
C537 C538 1.390 . S
C538 C533 1.392 . S
C538 C537 1.390 . S
C538 H550 0.929 . S
O539 Tb523 2.326 . S
O539 C527 1.242 . S
O540 Eu524 2.324 . S
O540 C527 1.258 . S
O541 Tb523 2.500 . S
O541 C543 1.273 . S
O542 Tb523 2.473 . S
O542 C543 1.257 . S
C543 O541 1.273 . S
C543 O542 1.257 . S
O544 Eu524 2.326 . S
O544 C532 1.242 . S
O545 Tb523 2.324 . S
O545 C532 1.258 . S
O546 Eu524 2.500 . S
O546 C529 1.273 . S
O547 Eu524 2.473 . S
O547 C529 1.257 . S
H548 C534 0.929 . S
H549 C536 0.931 . S
H550 C538 0.929 . S
O551 Tb552 2.292 . S
O551 C554 1.255 . S
Tb552 O551 2.292 . S
Tb552 O568 2.326 . S
Tb552 O570 2.500 . S
Tb552 O571 2.473 . S
Tb552 O574 2.324 . S
Eu553 O557 2.292 . S
Eu553 C558 2.852 . S
Eu553 O569 2.324 . S
Eu553 O573 2.326 . S
Eu553 O575 2.500 . S
Eu553 O576 2.473 . S
C554 O551 1.255 . S
C554 O555 1.247 . S
O555 C554 1.247 . S
C556 O568 1.242 . S
C556 O569 1.258 . S
O557 Eu553 2.292 . S
O557 C559 1.255 . S
C558 Eu553 2.852 . S
C558 C562 1.503 . S
C558 O575 1.273 . S
C558 O576 1.257 . S
C559 O557 1.255 . S
C559 O560 1.247 . S
O560 C559 1.247 . S
C561 O573 1.242 . S
C561 O574 1.258 . S
C562 C558 1.503 . S
C562 C563 1.379 . S
C562 C567 1.392 . S
C563 C562 1.379 . S
C563 C564 1.404 . S
C563 H577 0.929 . S
C564 C563 1.404 . S
C564 C565 1.389 . S
C565 C564 1.389 . S
C565 C566 1.399 . S
C565 H578 0.931 . S
C566 C565 1.399 . S
C566 C567 1.390 . S
C567 C562 1.392 . S
C567 C566 1.390 . S
C567 H579 0.929 . S
O568 Tb552 2.326 . S
O568 C556 1.242 . S
O569 Eu553 2.324 . S
O569 C556 1.258 . S
O570 Tb552 2.500 . S
O570 C572 1.273 . S
O571 Tb552 2.473 . S
O571 C572 1.257 . S
C572 O570 1.273 . S
C572 O571 1.257 . S
O573 Eu553 2.326 . S
O573 C561 1.242 . S
O574 Tb552 2.324 . S
O574 C561 1.258 . S
O575 Eu553 2.500 . S
O575 C558 1.273 . S
O576 Eu553 2.473 . S
O576 C558 1.257 . S
H577 C563 0.929 . S
H578 C565 0.931 . S
H579 C567 0.929 . S
O580 Tb581 2.292 . S
O580 C583 1.255 . S
Tb581 O580 2.292 . S
Tb581 O597 2.326 . S
Tb581 O599 2.500 . S
Tb581 O600 2.473 . S
Tb581 O603 2.324 . S
Eu582 O586 2.292 . S
Eu582 C587 2.852 . S
Eu582 O598 2.324 . S
Eu582 O602 2.326 . S
Eu582 O604 2.500 . S
Eu582 O605 2.473 . S
C583 O580 1.255 . S
C583 O584 1.247 . S
O584 C583 1.247 . S
C585 O597 1.242 . S
C585 O598 1.258 . S
O586 Eu582 2.292 . S
O586 C588 1.255 . S
C587 Eu582 2.852 . S
C587 C591 1.503 . S
C587 O604 1.273 . S
C587 O605 1.257 . S
C588 O586 1.255 . S
C588 O589 1.247 . S
O589 C588 1.247 . S
C590 O602 1.242 . S
C590 O603 1.258 . S
C591 C587 1.503 . S
C591 C592 1.379 . S
C591 C596 1.392 . S
C592 C591 1.379 . S
C592 C593 1.404 . S
C592 H606 0.929 . S
C593 C592 1.404 . S
C593 C594 1.389 . S
C594 C593 1.389 . S
C594 C595 1.399 . S
C594 H607 0.931 . S
C595 C594 1.399 . S
C595 C596 1.390 . S
C596 C591 1.392 . S
C596 C595 1.390 . S
C596 H608 0.929 . S
O597 Tb581 2.326 . S
O597 C585 1.242 . S
O598 Eu582 2.324 . S
O598 C585 1.258 . S
O599 Tb581 2.500 . S
O599 C601 1.273 . S
O600 Tb581 2.473 . S
O600 C601 1.257 . S
C601 O599 1.273 . S
C601 O600 1.257 . S
O602 Eu582 2.326 . S
O602 C590 1.242 . S
O603 Tb581 2.324 . S
O603 C590 1.258 . S
O604 Eu582 2.500 . S
O604 C587 1.273 . S
O605 Eu582 2.473 . S
O605 C587 1.257 . S
H606 C592 0.929 . S
H607 C594 0.931 . S
H608 C596 0.929 . S
O609 Tb610 2.292 . S
O609 C612 1.255 . S
Tb610 O609 2.292 . S
Tb610 O626 2.326 . S
Tb610 O628 2.500 . S
Tb610 O629 2.473 . S
Tb610 O632 2.324 . S
Eu611 O615 2.292 . S
Eu611 C616 2.852 . S
Eu611 O627 2.324 . S
Eu611 O631 2.326 . S
Eu611 O633 2.500 . S
Eu611 O634 2.473 . S
C612 O609 1.255 . S
C612 O613 1.247 . S
O613 C612 1.247 . S
C614 O626 1.242 . S
C614 O627 1.258 . S
O615 Eu611 2.292 . S
O615 C617 1.255 . S
C616 Eu611 2.852 . S
C616 C620 1.503 . S
C616 O633 1.273 . S
C616 O634 1.257 . S
C617 O615 1.255 . S
C617 O618 1.247 . S
O618 C617 1.247 . S
C619 O631 1.242 . S
C619 O632 1.258 . S
C620 C616 1.503 . S
C620 C621 1.379 . S
C620 C625 1.392 . S
C621 C620 1.379 . S
C621 C622 1.404 . S
C621 H635 0.929 . S
C622 C621 1.404 . S
C622 C623 1.389 . S
C623 C622 1.389 . S
C623 C624 1.399 . S
C623 H636 0.931 . S
C624 C623 1.399 . S
C624 C625 1.390 . S
C625 C620 1.392 . S
C625 C624 1.390 . S
C625 H637 0.929 . S
O626 Tb610 2.326 . S
O626 C614 1.242 . S
O627 Eu611 2.324 . S
O627 C614 1.258 . S
O628 Tb610 2.500 . S
O628 C630 1.273 . S
O629 Tb610 2.473 . S
O629 C630 1.257 . S
C630 O628 1.273 . S
C630 O629 1.257 . S
O631 Eu611 2.326 . S
O631 C619 1.242 . S
O632 Tb610 2.324 . S
O632 C619 1.258 . S
O633 Eu611 2.500 . S
O633 C616 1.273 . S
O634 Eu611 2.473 . S
O634 C616 1.257 . S
H635 C621 0.929 . S
H636 C623 0.931 . S
H637 C625 0.929 . S
O638 Tb639 2.292 . S
O638 C641 1.255 . S
Tb639 O638 2.292 . S
Tb639 O655 2.326 . S
Tb639 O657 2.500 . S
Tb639 O658 2.473 . S
Tb639 O661 2.324 . S
Eu640 O644 2.292 . S
Eu640 C645 2.852 . S
Eu640 O656 2.324 . S
Eu640 O660 2.326 . S
Eu640 O662 2.500 . S
Eu640 O663 2.473 . S
C641 O638 1.255 . S
C641 O642 1.247 . S
O642 C641 1.247 . S
C643 O655 1.242 . S
C643 O656 1.258 . S
O644 Eu640 2.292 . S
O644 C646 1.255 . S
C645 Eu640 2.852 . S
C645 C649 1.503 . S
C645 O662 1.273 . S
C645 O663 1.257 . S
C646 O644 1.255 . S
C646 O647 1.247 . S
O647 C646 1.247 . S
C648 O660 1.242 . S
C648 O661 1.258 . S
C649 C645 1.503 . S
C649 C650 1.379 . S
C649 C654 1.392 . S
C650 C649 1.379 . S
C650 C651 1.404 . S
C650 H664 0.929 . S
C651 C650 1.404 . S
C651 C652 1.389 . S
C652 C651 1.389 . S
C652 C653 1.399 . S
C652 H665 0.931 . S
C653 C652 1.399 . S
C653 C654 1.390 . S
C654 C649 1.392 . S
C654 C653 1.390 . S
C654 H666 0.929 . S
O655 Tb639 2.326 . S
O655 C643 1.242 . S
O656 Eu640 2.324 . S
O656 C643 1.258 . S
O657 Tb639 2.500 . S
O657 C659 1.273 . S
O658 Tb639 2.473 . S
O658 C659 1.257 . S
C659 O657 1.273 . S
C659 O658 1.257 . S
O660 Eu640 2.326 . S
O660 C648 1.242 . S
O661 Tb639 2.324 . S
O661 C648 1.258 . S
O662 Eu640 2.500 . S
O662 C645 1.273 . S
O663 Eu640 2.473 . S
O663 C645 1.257 . S
H664 C650 0.929 . S
H665 C652 0.931 . S
H666 C654 0.929 . S
O667 Tb668 2.292 . S
O667 C670 1.255 . S
Tb668 O667 2.292 . S
Tb668 O684 2.326 . S
Tb668 O686 2.500 . S
Tb668 O687 2.473 . S
Tb668 O690 2.324 . S
Eu669 O673 2.292 . S
Eu669 C674 2.852 . S
Eu669 O685 2.324 . S
Eu669 O689 2.326 . S
Eu669 O691 2.500 . S
Eu669 O692 2.473 . S
C670 O667 1.255 . S
C670 O671 1.247 . S
O671 C670 1.247 . S
C672 O684 1.242 . S
C672 O685 1.258 . S
O673 Eu669 2.292 . S
O673 C675 1.255 . S
C674 Eu669 2.852 . S
C674 C678 1.503 . S
C674 O691 1.273 . S
C674 O692 1.257 . S
C675 O673 1.255 . S
C675 O676 1.247 . S
O676 C675 1.247 . S
C677 O689 1.242 . S
C677 O690 1.258 . S
C678 C674 1.503 . S
C678 C679 1.379 . S
C678 C683 1.392 . S
C679 C678 1.379 . S
C679 C680 1.404 . S
C679 H693 0.929 . S
C680 C679 1.404 . S
C680 C681 1.389 . S
C681 C680 1.389 . S
C681 C682 1.399 . S
C681 H694 0.931 . S
C682 C681 1.399 . S
C682 C683 1.390 . S
C683 C678 1.392 . S
C683 C682 1.390 . S
C683 H695 0.929 . S
O684 Tb668 2.326 . S
O684 C672 1.242 . S
O685 Eu669 2.324 . S
O685 C672 1.258 . S
O686 Tb668 2.500 . S
O686 C688 1.273 . S
O687 Tb668 2.473 . S
O687 C688 1.257 . S
C688 O686 1.273 . S
C688 O687 1.257 . S
O689 Eu669 2.326 . S
O689 C677 1.242 . S
O690 Tb668 2.324 . S
O690 C677 1.258 . S
O691 Eu669 2.500 . S
O691 C674 1.273 . S
O692 Eu669 2.473 . S
O692 C674 1.257 . S
H693 C679 0.929 . S
H694 C681 0.931 . S
H695 C683 0.929 . S
C696 C697 1.387 . S
C696 H700 0.950 . S
C696 C705 1.390 . S
C697 C696 1.387 . S
C697 C699 1.387 . S
H698 C705 0.950 . S
C699 C697 1.387 . S
C699 C701 1.390 . S
C699 H703 0.950 . S
H700 C696 0.950 . S
C701 C699 1.390 . S
C701 C702 1.387 . S
C701 H704 0.950 . S
C702 C701 1.387 . S
C702 C705 1.387 . S
H703 C699 0.950 . S
H704 C701 0.950 . S
C705 C696 1.390 . S
C705 H698 0.950 . S
C705 C702 1.387 . S
C706 C707 1.387 . S
C706 H710 0.950 . S
C706 C715 1.390 . S
C707 C706 1.387 . S
C707 C709 1.387 . S
H708 C715 0.950 . S
C709 C707 1.387 . S
C709 C711 1.390 . S
C709 H713 0.950 . S
H710 C706 0.950 . S
C711 C709 1.390 . S
C711 C712 1.387 . S
C711 H714 0.950 . S
C712 C711 1.387 . S
C712 C715 1.387 . S
H713 C709 0.950 . S
H714 C711 0.950 . S
C715 C706 1.390 . S
C715 H708 0.950 . S
C715 C712 1.387 . S
C716 C717 1.387 . S
C716 H720 0.950 . S
C716 C725 1.390 . S
C717 C716 1.387 . S
C717 C719 1.387 . S
H718 C725 0.950 . S
C719 C717 1.387 . S
C719 C721 1.390 . S
C719 H723 0.950 . S
H720 C716 0.950 . S
C721 C719 1.390 . S
C721 C722 1.387 . S
C721 H724 0.950 . S
C722 C721 1.387 . S
C722 C725 1.387 . S
H723 C719 0.950 . S
H724 C721 0.950 . S
C725 C716 1.390 . S
C725 H718 0.950 . S
C725 C722 1.387 . S
C726 C727 1.387 . S
C726 H730 0.950 . S
C726 C735 1.390 . S
C727 C726 1.387 . S
C727 C729 1.387 . S
H728 C735 0.950 . S
C729 C727 1.387 . S
C729 C731 1.390 . S
C729 H733 0.950 . S
H730 C726 0.950 . S
C731 C729 1.390 . S
C731 C732 1.387 . S
C731 H734 0.950 . S
C732 C731 1.387 . S
C732 C735 1.387 . S
H733 C729 0.950 . S
H734 C731 0.950 . S
C735 C726 1.390 . S
C735 H728 0.950 . S
C735 C732 1.387 . S
C736 C737 1.387 . S
C736 H740 0.950 . S
C736 C745 1.390 . S
C737 C736 1.387 . S
C737 C739 1.387 . S
H738 C745 0.950 . S
C739 C737 1.387 . S
C739 C741 1.390 . S
C739 H743 0.950 . S
H740 C736 0.950 . S
C741 C739 1.390 . S
C741 C742 1.387 . S
C741 H744 0.950 . S
C742 C741 1.387 . S
C742 C745 1.387 . S
H743 C739 0.950 . S
H744 C741 0.950 . S
C745 C736 1.390 . S
C745 H738 0.950 . S
C745 C742 1.387 . S
C746 C747 1.387 . S
C746 H750 0.950 . S
C746 C755 1.390 . S
C747 C746 1.387 . S
C747 C749 1.387 . S
H748 C755 0.950 . S
C749 C747 1.387 . S
C749 C751 1.390 . S
C749 H753 0.950 . S
H750 C746 0.950 . S
C751 C749 1.390 . S
C751 C752 1.387 . S
C751 H754 0.950 . S
C752 C751 1.387 . S
C752 C755 1.387 . S
H753 C749 0.950 . S
H754 C751 0.950 . S
C755 C746 1.390 . S
C755 H748 0.950 . S
C755 C752 1.387 . S
C756 C757 1.387 . S
C756 H760 0.950 . S
C756 C765 1.390 . S
C757 C756 1.387 . S
C757 C759 1.387 . S
H758 C765 0.950 . S
C759 C757 1.387 . S
C759 C761 1.390 . S
C759 H763 0.950 . S
H760 C756 0.950 . S
C761 C759 1.390 . S
C761 C762 1.387 . S
C761 H764 0.950 . S
C762 C761 1.387 . S
C762 C765 1.387 . S
H763 C759 0.950 . S
H764 C761 0.950 . S
C765 C756 1.390 . S
C765 H758 0.950 . S
C765 C762 1.387 . S
C766 C767 1.387 . S
C766 H770 0.950 . S
C766 C775 1.390 . S
C767 C766 1.387 . S
C767 C769 1.387 . S
H768 C775 0.950 . S
C769 C767 1.387 . S
C769 C771 1.390 . S
C769 H773 0.950 . S
H770 C766 0.950 . S
C771 C769 1.390 . S
C771 C772 1.387 . S
C771 H774 0.950 . S
C772 C771 1.387 . S
C772 C775 1.387 . S
H773 C769 0.950 . S
H774 C771 0.950 . S
C775 C766 1.390 . S
C775 H768 0.950 . S
C775 C772 1.387 . S
C776 C777 1.387 . S
C776 H780 0.950 . S
C776 C785 1.390 . S
C777 C776 1.387 . S
C777 C779 1.387 . S
H778 C785 0.950 . S
C779 C777 1.387 . S
C779 C781 1.390 . S
C779 H783 0.950 . S
H780 C776 0.950 . S
C781 C779 1.390 . S
C781 C782 1.387 . S
C781 H784 0.950 . S
C782 C781 1.387 . S
C782 C785 1.387 . S
H783 C779 0.950 . S
H784 C781 0.950 . S
C785 C776 1.390 . S
C785 H778 0.950 . S
C785 C782 1.387 . S
C786 C787 1.387 . S
C786 H790 0.950 . S
C786 C795 1.390 . S
C787 C786 1.387 . S
C787 C789 1.387 . S
H788 C795 0.950 . S
C789 C787 1.387 . S
C789 C791 1.390 . S
C789 H793 0.950 . S
H790 C786 0.950 . S
C791 C789 1.390 . S
C791 C792 1.387 . S
C791 H794 0.950 . S
C792 C791 1.387 . S
C792 C795 1.387 . S
H793 C789 0.950 . S
H794 C791 0.950 . S
C795 C786 1.390 . S
C795 H788 0.950 . S
C795 C792 1.387 . S
C796 C797 1.387 . S
C796 H800 0.950 . S
C796 C805 1.390 . S
C797 C796 1.387 . S
C797 C799 1.387 . S
H798 C805 0.950 . S
C799 C797 1.387 . S
C799 C801 1.390 . S
C799 H803 0.950 . S
H800 C796 0.950 . S
C801 C799 1.390 . S
C801 C802 1.387 . S
C801 H804 0.950 . S
C802 C801 1.387 . S
C802 C805 1.387 . S
H803 C799 0.950 . S
H804 C801 0.950 . S
C805 C796 1.390 . S
C805 H798 0.950 . S
C805 C802 1.387 . S
C806 C807 1.387 . S
C806 H810 0.950 . S
C806 C815 1.390 . S
C807 C806 1.387 . S
C807 C809 1.387 . S
H808 C815 0.950 . S
C809 C807 1.387 . S
C809 C811 1.390 . S
C809 H813 0.950 . S
H810 C806 0.950 . S
C811 C809 1.390 . S
C811 C812 1.387 . S
C811 H814 0.950 . S
C812 C811 1.387 . S
C812 C815 1.387 . S
H813 C809 0.950 . S
H814 C811 0.950 . S
C815 C806 1.390 . S
C815 H808 0.950 . S
C815 C812 1.387 . S
C816 C817 1.387 . S
C816 H820 0.950 . S
C816 C825 1.390 . S
C817 C816 1.387 . S
C817 C819 1.387 . S
H818 C825 0.950 . S
C819 C817 1.387 . S
C819 C821 1.390 . S
C819 H823 0.950 . S
H820 C816 0.950 . S
C821 C819 1.390 . S
C821 C822 1.387 . S
C821 H824 0.950 . S
C822 C821 1.387 . S
C822 C825 1.387 . S
H823 C819 0.950 . S
H824 C821 0.950 . S
C825 C816 1.390 . S
C825 H818 0.950 . S
C825 C822 1.387 . S
C826 C827 1.387 . S
C826 H830 0.950 . S
C826 C835 1.390 . S
C827 C826 1.387 . S
C827 C829 1.387 . S
H828 C835 0.950 . S
C829 C827 1.387 . S
C829 C831 1.390 . S
C829 H833 0.950 . S
H830 C826 0.950 . S
C831 C829 1.390 . S
C831 C832 1.387 . S
C831 H834 0.950 . S
C832 C831 1.387 . S
C832 C835 1.387 . S
H833 C829 0.950 . S
H834 C831 0.950 . S
C835 C826 1.390 . S
C835 H828 0.950 . S
C835 C832 1.387 . S
C836 C837 1.387 . S
C836 H840 0.950 . S
C836 C845 1.390 . S
C837 C836 1.387 . S
C837 C839 1.387 . S
H838 C845 0.950 . S
C839 C837 1.387 . S
C839 C841 1.390 . S
C839 H843 0.950 . S
H840 C836 0.950 . S
C841 C839 1.390 . S
C841 C842 1.387 . S
C841 H844 0.950 . S
C842 C841 1.387 . S
C842 C845 1.387 . S
H843 C839 0.950 . S
H844 C841 0.950 . S
C845 C836 1.390 . S
C845 H838 0.950 . S
C845 C842 1.387 . S
C846 C847 1.387 . S
C846 H850 0.950 . S
C846 C855 1.390 . S
C847 C846 1.387 . S
C847 C849 1.387 . S
H848 C855 0.950 . S
C849 C847 1.387 . S
C849 C851 1.390 . S
C849 H853 0.950 . S
H850 C846 0.950 . S
C851 C849 1.390 . S
C851 C852 1.387 . S
C851 H854 0.950 . S
C852 C851 1.387 . S
C852 C855 1.387 . S
H853 C849 0.950 . S
H854 C851 0.950 . S
C855 C846 1.390 . S
C855 H848 0.950 . S
C855 C852 1.387 . S
C856 C857 1.387 . S
C856 H860 0.950 . S
C856 C865 1.390 . S
C857 C856 1.387 . S
C857 C859 1.387 . S
H858 C865 0.950 . S
C859 C857 1.387 . S
C859 C861 1.390 . S
C859 H863 0.950 . S
H860 C856 0.950 . S
C861 C859 1.390 . S
C861 C862 1.387 . S
C861 H864 0.950 . S
C862 C861 1.387 . S
C862 C865 1.387 . S
H863 C859 0.950 . S
H864 C861 0.950 . S
C865 C856 1.390 . S
C865 H858 0.950 . S
C865 C862 1.387 . S
C866 C867 1.387 . S
C866 H870 0.950 . S
C866 C875 1.390 . S
C867 C866 1.387 . S
C867 C869 1.387 . S
H868 C875 0.950 . S
C869 C867 1.387 . S
C869 C871 1.390 . S
C869 H873 0.950 . S
H870 C866 0.950 . S
C871 C869 1.390 . S
C871 C872 1.387 . S
C871 H874 0.950 . S
C872 C871 1.387 . S
C872 C875 1.387 . S
H873 C869 0.950 . S
H874 C871 0.950 . S
C875 C866 1.390 . S
C875 H868 0.950 . S
C875 C872 1.387 . S
C876 C877 1.387 . S
C876 H880 0.950 . S
C876 C885 1.390 . S
C877 C876 1.387 . S
C877 C879 1.387 . S
H878 C885 0.950 . S
C879 C877 1.387 . S
C879 C881 1.390 . S
C879 H883 0.950 . S
H880 C876 0.950 . S
C881 C879 1.390 . S
C881 C882 1.387 . S
C881 H884 0.950 . S
C882 C881 1.387 . S
C882 C885 1.387 . S
H883 C879 0.950 . S
H884 C881 0.950 . S
C885 C876 1.390 . S
C885 H878 0.950 . S
C885 C882 1.387 . S
C886 C887 1.387 . S
C886 H890 0.950 . S
C886 C895 1.390 . S
C887 C886 1.387 . S
C887 C889 1.387 . S
H888 C895 0.950 . S
C889 C887 1.387 . S
C889 C891 1.390 . S
C889 H893 0.950 . S
H890 C886 0.950 . S
C891 C889 1.390 . S
C891 C892 1.387 . S
C891 H894 0.950 . S
C892 C891 1.387 . S
C892 C895 1.387 . S
H893 C889 0.950 . S
H894 C891 0.950 . S
C895 C886 1.390 . S
C895 H888 0.950 . S
C895 C892 1.387 . S
C896 C897 1.387 . S
C896 H900 0.950 . S
C896 C905 1.390 . S
C897 C896 1.387 . S
C897 C899 1.387 . S
H898 C905 0.950 . S
C899 C897 1.387 . S
C899 C901 1.390 . S
C899 H903 0.950 . S
H900 C896 0.950 . S
C901 C899 1.390 . S
C901 C902 1.387 . S
C901 H904 0.950 . S
C902 C901 1.387 . S
C902 C905 1.387 . S
H903 C899 0.950 . S
H904 C901 0.950 . S
C905 C896 1.390 . S
C905 H898 0.950 . S
C905 C902 1.387 . S
C906 C907 1.387 . S
C906 H910 0.950 . S
C906 C915 1.390 . S
C907 C906 1.387 . S
C907 C909 1.387 . S
H908 C915 0.950 . S
C909 C907 1.387 . S
C909 C911 1.390 . S
C909 H913 0.950 . S
H910 C906 0.950 . S
C911 C909 1.390 . S
C911 C912 1.387 . S
C911 H914 0.950 . S
C912 C911 1.387 . S
C912 C915 1.387 . S
H913 C909 0.950 . S
H914 C911 0.950 . S
C915 C906 1.390 . S
C915 H908 0.950 . S
C915 C912 1.387 . S
C916 C917 1.387 . S
C916 H920 0.950 . S
C916 C925 1.390 . S
C917 C916 1.387 . S
C917 C919 1.387 . S
H918 C925 0.950 . S
C919 C917 1.387 . S
C919 C921 1.390 . S
C919 H923 0.950 . S
H920 C916 0.950 . S
C921 C919 1.390 . S
C921 C922 1.387 . S
C921 H924 0.950 . S
C922 C921 1.387 . S
C922 C925 1.387 . S
H923 C919 0.950 . S
H924 C921 0.950 . S
C925 C916 1.390 . S
C925 H918 0.950 . S
C925 C922 1.387 . S
C926 C927 1.387 . S
C926 H930 0.950 . S
C926 C935 1.390 . S
C927 C926 1.387 . S
C927 C929 1.387 . S
H928 C935 0.950 . S
C929 C927 1.387 . S
C929 C931 1.390 . S
C929 H933 0.950 . S
H930 C926 0.950 . S
C931 C929 1.390 . S
C931 C932 1.387 . S
C931 H934 0.950 . S
C932 C931 1.387 . S
C932 C935 1.387 . S
H933 C929 0.950 . S
H934 C931 0.950 . S
C935 C926 1.390 . S
C935 H928 0.950 . S
C935 C932 1.387 . S
C936 C937 1.387 . S
C936 H940 0.950 . S
C936 C945 1.390 1_554 S
C937 C936 1.387 . S
C937 C939 1.387 . S
H938 C945 0.950 . S
C939 C937 1.387 . S
C939 C941 1.390 1_554 S
C939 H943 0.950 . S
H940 C936 0.950 . S
C941 C939 1.390 1_556 S
C941 C942 1.387 . S
C941 H944 0.950 . S
C942 C941 1.387 . S
C942 C945 1.387 . S
H943 C939 0.950 . S
H944 C941 0.950 . S
C945 C936 1.390 1_556 S
C945 H938 0.950 . S
C945 C942 1.387 . S
C946 C947 1.387 . S
C946 H950 0.950 . S
C946 C955 1.390 1_554 S
C947 C946 1.387 . S
C947 C949 1.387 . S
H948 C955 0.950 . S
C949 C947 1.387 . S
C949 C951 1.390 1_554 S
C949 H953 0.950 . S
H950 C946 0.950 . S
C951 C949 1.390 1_556 S
C951 C952 1.387 . S
C951 H954 0.950 . S
C952 C951 1.387 . S
C952 C955 1.387 . S
H953 C949 0.950 . S
H954 C951 0.950 . S
C955 C946 1.390 1_556 S
C955 H948 0.950 . S
C955 C952 1.387 . S
C956 C957 1.387 . S
C956 H960 0.950 . S
C956 C965 1.390 1_554 S
C957 C956 1.387 . S
C957 C959 1.387 . S
H958 C965 0.950 . S
C959 C957 1.387 . S
C959 C961 1.390 1_554 S
C959 H963 0.950 . S
H960 C956 0.950 . S
C961 C959 1.390 1_556 S
C961 C962 1.387 . S
C961 H964 0.950 . S
C962 C961 1.387 . S
C962 C965 1.387 . S
H963 C959 0.950 . S
H964 C961 0.950 . S
C965 C956 1.390 1_556 S
C965 H958 0.950 . S
C965 C962 1.387 . S
C966 C967 1.387 . S
C966 H970 0.950 . S
C966 C975 1.390 1_556 S
C967 C966 1.387 . S
C967 C969 1.387 . S
H968 C975 0.950 . S
C969 C967 1.387 . S
C969 C971 1.390 1_556 S
C969 H973 0.950 . S
H970 C966 0.950 . S
C971 C969 1.390 1_554 S
C971 C972 1.387 . S
C971 H974 0.950 . S
C972 C971 1.387 . S
C972 C975 1.387 . S
H973 C969 0.950 . S
H974 C971 0.950 . S
C975 C966 1.390 1_554 S
C975 H968 0.950 . S
C975 C972 1.387 . S
C976 C977 1.387 . S
C976 H980 0.950 . S
C976 C985 1.390 1_554 S
C977 C976 1.387 . S
C977 C979 1.387 . S
H978 C985 0.950 . S
C979 C977 1.387 . S
C979 C981 1.390 1_554 S
C979 H983 0.950 . S
H980 C976 0.950 . S
C981 C979 1.390 1_556 S
C981 C982 1.387 . S
C981 H984 0.950 . S
C982 C981 1.387 . S
C982 C985 1.387 . S
H983 C979 0.950 . S
H984 C981 0.950 . S
C985 C976 1.390 1_556 S
C985 H978 0.950 . S
C985 C982 1.387 . S
C986 C987 1.387 . S
C986 H990 0.950 . S
C986 C995 1.390 1_554 S
C987 C986 1.387 . S
C987 C989 1.387 . S
H988 C995 0.950 . S
C989 C987 1.387 . S
C989 C991 1.390 1_554 S
C989 H993 0.950 . S
H990 C986 0.950 . S
C991 C989 1.390 1_556 S
C991 C992 1.387 . S
C991 H994 0.950 . S
C992 C991 1.387 . S
C992 C995 1.387 . S
H993 C989 0.950 . S
H994 C991 0.950 . S
C995 C986 1.390 1_556 S
C995 H988 0.950 . S
C995 C992 1.387 . S
C996 C997 1.387 . S
C996 H1000 0.950 . S
C996 C1005 1.390 . S
C997 C996 1.387 . S
C997 C999 1.387 . S
H998 C1005 0.950 . S
C999 C997 1.387 . S
C999 C1001 1.390 . S
C999 H1003 0.950 . S
H1000 C996 0.950 . S
C1001 C999 1.390 . S
C1001 C1002 1.387 . S
C1001 H1004 0.950 . S
C1002 C1001 1.387 . S
C1002 C1005 1.387 . S
H1003 C999 0.950 . S
H1004 C1001 0.950 . S
C1005 C996 1.390 . S
C1005 H998 0.950 . S
C1005 C1002 1.387 . S
C1006 C1007 1.387 . S
C1006 H1010 0.950 . S
C1006 C1015 1.390 . S
C1007 C1006 1.387 . S
C1007 C1009 1.387 . S
H1008 C1015 0.950 . S
C1009 C1007 1.387 . S
C1009 C1011 1.390 . S
C1009 H1013 0.950 . S
H1010 C1006 0.950 . S
C1011 C1009 1.390 . S
C1011 C1012 1.387 . S
C1011 H1014 0.950 . S
C1012 C1011 1.387 . S
C1012 C1015 1.387 . S
H1013 C1009 0.950 . S
H1014 C1011 0.950 . S
C1015 C1006 1.390 . S
C1015 H1008 0.950 . S
C1015 C1012 1.387 . S
C1016 C1017 1.387 . S
C1016 H1020 0.950 . S
C1016 C1025 1.390 . S
C1017 C1016 1.387 . S
C1017 C1019 1.387 . S
H1018 C1025 0.950 . S
C1019 C1017 1.387 . S
C1019 C1021 1.390 . S
C1019 H1023 0.950 . S
H1020 C1016 0.950 . S
C1021 C1019 1.390 . S
C1021 C1022 1.387 . S
C1021 H1024 0.950 . S
C1022 C1021 1.387 . S
C1022 C1025 1.387 . S
H1023 C1019 0.950 . S
H1024 C1021 0.950 . S
C1025 C1016 1.390 . S
C1025 H1018 0.950 . S
C1025 C1022 1.387 . S
C1026 C1027 1.387 . S
C1026 H1030 0.950 . S
C1026 C1035 1.390 . S
C1027 C1026 1.387 . S
C1027 C1029 1.387 . S
H1028 C1035 0.950 . S
C1029 C1027 1.387 . S
C1029 C1031 1.390 . S
C1029 H1033 0.950 . S
H1030 C1026 0.950 . S
C1031 C1029 1.390 . S
C1031 C1032 1.387 . S
C1031 H1034 0.950 . S
C1032 C1031 1.387 . S
C1032 C1035 1.387 . S
H1033 C1029 0.950 . S
H1034 C1031 0.950 . S
C1035 C1026 1.390 . S
C1035 H1028 0.950 . S
C1035 C1032 1.387 . S
C1036 C1037 1.387 . S
C1036 H1040 0.950 . S
C1036 C1045 1.390 . S
C1037 C1036 1.387 . S
C1037 C1039 1.387 . S
H1038 C1045 0.950 . S
C1039 C1037 1.387 . S
C1039 C1041 1.390 . S
C1039 H1043 0.950 . S
H1040 C1036 0.950 . S
C1041 C1039 1.390 . S
C1041 C1042 1.387 . S
C1041 H1044 0.950 . S
C1042 C1041 1.387 . S
C1042 C1045 1.387 . S
H1043 C1039 0.950 . S
H1044 C1041 0.950 . S
C1045 C1036 1.390 . S
C1045 H1038 0.950 . S
C1045 C1042 1.387 . S
C1046 C1047 1.387 . S
C1046 H1050 0.950 . S
C1046 C1055 1.390 . S
C1047 C1046 1.387 . S
C1047 C1049 1.387 . S
H1048 C1055 0.950 . S
C1049 C1047 1.387 . S
C1049 C1051 1.390 . S
C1049 H1053 0.950 . S
H1050 C1046 0.950 . S
C1051 C1049 1.390 . S
C1051 C1052 1.387 . S
C1051 H1054 0.950 . S
C1052 C1051 1.387 . S
C1052 C1055 1.387 . S
H1053 C1049 0.950 . S
H1054 C1051 0.950 . S
C1055 C1046 1.390 . S
C1055 H1048 0.950 . S
C1055 C1052 1.387 . S
C1056 C1057 1.387 . S
C1056 H1060 0.950 . S
C1056 C1065 1.390 . S
C1057 C1056 1.387 . S
C1057 C1059 1.387 . S
H1058 C1065 0.950 . S
C1059 C1057 1.387 . S
C1059 C1061 1.390 . S
C1059 H1063 0.950 . S
H1060 C1056 0.950 . S
C1061 C1059 1.390 . S
C1061 C1062 1.387 . S
C1061 H1064 0.950 . S
C1062 C1061 1.387 . S
C1062 C1065 1.387 . S
H1063 C1059 0.950 . S
H1064 C1061 0.950 . S
C1065 C1056 1.390 . S
C1065 H1058 0.950 . S
C1065 C1062 1.387 . S
C1066 C1067 1.387 . S
C1066 H1070 0.950 . S
C1066 C1075 1.390 . S
C1067 C1066 1.387 . S
C1067 C1069 1.387 . S
H1068 C1075 0.950 . S
C1069 C1067 1.387 . S
C1069 C1071 1.390 . S
C1069 H1073 0.950 . S
H1070 C1066 0.950 . S
C1071 C1069 1.390 . S
C1071 C1072 1.387 . S
C1071 H1074 0.950 . S
C1072 C1071 1.387 . S
C1072 C1075 1.387 . S
H1073 C1069 0.950 . S
H1074 C1071 0.950 . S
C1075 C1066 1.390 . S
C1075 H1068 0.950 . S
C1075 C1072 1.387 . S
C1076 C1077 1.387 . S
C1076 H1080 0.950 . S
C1076 C1085 1.390 . S
C1077 C1076 1.387 . S
C1077 C1079 1.387 . S
H1078 C1085 0.950 . S
C1079 C1077 1.387 . S
C1079 C1081 1.390 . S
C1079 H1083 0.950 . S
H1080 C1076 0.950 . S
C1081 C1079 1.390 . S
C1081 C1082 1.387 . S
C1081 H1084 0.950 . S
C1082 C1081 1.387 . S
C1082 C1085 1.387 . S
H1083 C1079 0.950 . S
H1084 C1081 0.950 . S
C1085 C1076 1.390 . S
C1085 H1078 0.950 . S
C1085 C1082 1.387 . S
C1086 C1087 1.387 . S
C1086 H1090 0.950 . S
C1086 C1095 1.390 . S
C1087 C1086 1.387 . S
C1087 C1089 1.387 . S
H1088 C1095 0.950 . S
C1089 C1087 1.387 . S
C1089 C1091 1.390 . S
C1089 H1093 0.950 . S
H1090 C1086 0.950 . S
C1091 C1089 1.390 . S
C1091 C1092 1.387 . S
C1091 H1094 0.950 . S
C1092 C1091 1.387 . S
C1092 C1095 1.387 . S
H1093 C1089 0.950 . S
H1094 C1091 0.950 . S
C1095 C1086 1.390 . S
C1095 H1088 0.950 . S
C1095 C1092 1.387 . S
C1096 C1097 1.387 . S
C1096 H1100 0.950 . S
C1096 C1105 1.390 . S
C1097 C1096 1.387 . S
C1097 C1099 1.387 . S
H1098 C1105 0.950 . S
C1099 C1097 1.387 . S
C1099 C1101 1.390 . S
C1099 H1103 0.950 . S
H1100 C1096 0.950 . S
C1101 C1099 1.390 . S
C1101 C1102 1.387 . S
C1101 H1104 0.950 . S
C1102 C1101 1.387 . S
C1102 C1105 1.387 . S
H1103 C1099 0.950 . S
H1104 C1101 0.950 . S
C1105 C1096 1.390 . S
C1105 H1098 0.950 . S
C1105 C1102 1.387 . S
C1106 C1107 1.387 . S
C1106 H1110 0.950 . S
C1106 C1115 1.390 . S
C1107 C1106 1.387 . S
C1107 C1109 1.387 . S
H1108 C1115 0.950 . S
C1109 C1107 1.387 . S
C1109 C1111 1.390 . S
C1109 H1113 0.950 . S
H1110 C1106 0.950 . S
C1111 C1109 1.390 . S
C1111 C1112 1.387 . S
C1111 H1114 0.950 . S
C1112 C1111 1.387 . S
C1112 C1115 1.387 . S
H1113 C1109 0.950 . S
H1114 C1111 0.950 . S
C1115 C1106 1.390 . S
C1115 H1108 0.950 . S
C1115 C1112 1.387 . S
C1116 C1117 1.387 . S
C1116 H1120 0.950 . S
C1116 C1125 1.390 . S
C1117 C1116 1.387 . S
C1117 C1119 1.387 . S
H1118 C1125 0.950 . S
C1119 C1117 1.387 . S
C1119 C1121 1.390 . S
C1119 H1123 0.950 . S
H1120 C1116 0.950 . S
C1121 C1119 1.390 . S
C1121 C1122 1.387 . S
C1121 H1124 0.950 . S
C1122 C1121 1.387 . S
C1122 C1125 1.387 . S
H1123 C1119 0.950 . S
H1124 C1121 0.950 . S
C1125 C1116 1.390 . S
C1125 H1118 0.950 . S
C1125 C1122 1.387 . S
C1126 C1127 1.387 . S
C1126 H1130 0.950 . S
C1126 C1135 1.390 . S
C1127 C1126 1.387 . S
C1127 C1129 1.387 . S
H1128 C1135 0.950 . S
C1129 C1127 1.387 . S
C1129 C1131 1.390 . S
C1129 H1133 0.950 . S
H1130 C1126 0.950 . S
C1131 C1129 1.390 . S
C1131 C1132 1.387 . S
C1131 H1134 0.950 . S
C1132 C1131 1.387 . S
C1132 C1135 1.387 . S
H1133 C1129 0.950 . S
H1134 C1131 0.950 . S
C1135 C1126 1.390 . S
C1135 H1128 0.950 . S
C1135 C1132 1.387 . S
C1136 C1137 1.387 . S
C1136 H1140 0.950 . S
C1136 C1145 1.390 . S
C1137 C1136 1.387 . S
C1137 C1139 1.387 . S
H1138 C1145 0.950 . S
C1139 C1137 1.387 . S
C1139 C1141 1.390 . S
C1139 H1143 0.950 . S
H1140 C1136 0.950 . S
C1141 C1139 1.390 . S
C1141 C1142 1.387 . S
C1141 H1144 0.950 . S
C1142 C1141 1.387 . S
C1142 C1145 1.387 . S
H1143 C1139 0.950 . S
H1144 C1141 0.950 . S
C1145 C1136 1.390 . S
C1145 H1138 0.950 . S
C1145 C1142 1.387 . S
C1146 C1147 1.387 . S
C1146 H1150 0.950 . S
C1146 C1155 1.390 . S
C1147 C1146 1.387 . S
C1147 C1149 1.387 . S
H1148 C1155 0.950 . S
C1149 C1147 1.387 . S
C1149 C1151 1.390 . S
C1149 H1153 0.950 . S
H1150 C1146 0.950 . S
C1151 C1149 1.390 . S
C1151 C1152 1.387 . S
C1151 H1154 0.950 . S
C1152 C1151 1.387 . S
C1152 C1155 1.387 . S
H1153 C1149 0.950 . S
H1154 C1151 0.950 . S
C1155 C1146 1.390 . S
C1155 H1148 0.950 . S
C1155 C1152 1.387 . S
C1156 C1157 1.387 . S
C1156 H1160 0.950 . S
C1156 C1165 1.390 . S
C1157 C1156 1.387 . S
C1157 C1159 1.387 . S
H1158 C1165 0.950 . S
C1159 C1157 1.387 . S
C1159 C1161 1.390 . S
C1159 H1163 0.950 . S
H1160 C1156 0.950 . S
C1161 C1159 1.390 . S
C1161 C1162 1.387 . S
C1161 H1164 0.950 . S
C1162 C1161 1.387 . S
C1162 C1165 1.387 . S
H1163 C1159 0.950 . S
H1164 C1161 0.950 . S
C1165 C1156 1.390 . S
C1165 H1158 0.950 . S
C1165 C1162 1.387 . S
C1166 C1167 1.387 . S
C1166 H1170 0.950 . S
C1166 C1175 1.390 . S
C1167 C1166 1.387 . S
C1167 C1169 1.387 . S
H1168 C1175 0.950 . S
C1169 C1167 1.387 . S
C1169 C1171 1.390 . S
C1169 H1173 0.950 . S
H1170 C1166 0.950 . S
C1171 C1169 1.390 . S
C1171 C1172 1.387 . S
C1171 H1174 0.950 . S
C1172 C1171 1.387 . S
C1172 C1175 1.387 . S
H1173 C1169 0.950 . S
H1174 C1171 0.950 . S
C1175 C1166 1.390 . S
C1175 H1168 0.950 . S
C1175 C1172 1.387 . S
C1176 C1177 1.387 . S
C1176 H1180 0.950 . S
C1176 C1185 1.390 1_545 S
C1177 C1176 1.387 . S
C1177 C1179 1.387 . S
H1178 C1185 0.950 . S
C1179 C1177 1.387 . S
C1179 C1181 1.390 1_545 S
C1179 H1183 0.950 . S
H1180 C1176 0.950 . S
C1181 C1179 1.390 1_565 S
C1181 C1182 1.387 . S
C1181 H1184 0.950 . S
C1182 C1181 1.387 . S
C1182 C1185 1.387 . S
H1183 C1179 0.950 . S
H1184 C1181 0.950 . S
C1185 C1176 1.390 1_565 S
C1185 H1178 0.950 . S
C1185 C1182 1.387 . S
C1186 C1187 1.387 . S
C1186 H1190 0.950 . S
C1186 C1195 1.390 . S
C1187 C1186 1.387 . S
C1187 C1189 1.387 . S
H1188 C1195 0.950 . S
C1189 C1187 1.387 . S
C1189 C1191 1.390 . S
C1189 H1193 0.950 . S
H1190 C1186 0.950 . S
C1191 C1189 1.390 . S
C1191 C1192 1.387 . S
C1191 H1194 0.950 . S
C1192 C1191 1.387 . S
C1192 C1195 1.387 . S
H1193 C1189 0.950 . S
H1194 C1191 0.950 . S
C1195 C1186 1.390 . S
C1195 H1188 0.950 . S
C1195 C1192 1.387 . S
C1196 C1197 1.387 1_455 S
C1196 H1200 0.950 . S
C1196 C1205 1.390 . S
C1197 C1196 1.387 1_655 S
C1197 C1199 1.387 . S
H1198 C1205 0.950 . S
C1199 C1197 1.387 . S
C1199 C1201 1.390 . S
C1199 H1203 0.950 . S
H1200 C1196 0.950 . S
C1201 C1199 1.390 . S
C1201 C1202 1.387 1_655 S
C1201 H1204 0.950 . S
C1202 C1201 1.387 1_455 S
C1202 C1205 1.387 . S
H1203 C1199 0.950 . S
H1204 C1201 0.950 . S
C1205 C1196 1.390 . S
C1205 H1198 0.950 . S
C1205 C1202 1.387 . S
C1206 C1207 1.387 . S
C1206 H1210 0.950 . S
C1206 C1215 1.390 1_455 S
C1207 C1206 1.387 . S
C1207 C1209 1.387 . S
H1208 C1215 0.950 . S
C1209 C1207 1.387 . S
C1209 C1211 1.390 1_455 S
C1209 H1213 0.950 . S
H1210 C1206 0.950 . S
C1211 C1209 1.390 1_655 S
C1211 C1212 1.387 . S
C1211 H1214 0.950 . S
C1212 C1211 1.387 . S
C1212 C1215 1.387 . S
H1213 C1209 0.950 . S
H1214 C1211 0.950 . S
C1215 C1206 1.390 1_655 S
C1215 H1208 0.950 . S
C1215 C1212 1.387 . S
C1216 C1217 1.387 . S
C1216 H1220 0.950 . S
C1216 C1225 1.390 1_545 S
C1217 C1216 1.387 . S
C1217 C1219 1.387 . S
H1218 C1225 0.950 . S
C1219 C1217 1.387 . S
C1219 C1221 1.390 1_545 S
C1219 H1223 0.950 . S
H1220 C1216 0.950 . S
C1221 C1219 1.390 1_565 S
C1221 C1222 1.387 . S
C1221 H1224 0.950 . S
C1222 C1221 1.387 . S
C1222 C1225 1.387 . S
H1223 C1219 0.950 . S
H1224 C1221 0.950 . S
C1225 C1216 1.390 1_565 S
C1225 H1218 0.950 . S
C1225 C1222 1.387 . S
C1226 C1227 1.387 . S
C1226 H1230 0.950 . S
C1226 C1235 1.390 . S
C1227 C1226 1.387 . S
C1227 C1229 1.387 . S
H1228 C1235 0.950 . S
C1229 C1227 1.387 . S
C1229 C1231 1.390 . S
C1229 H1233 0.950 . S
H1230 C1226 0.950 . S
C1231 C1229 1.390 . S
C1231 C1232 1.387 . S
C1231 H1234 0.950 . S
C1232 C1231 1.387 . S
C1232 C1235 1.387 . S
H1233 C1229 0.950 . S
H1234 C1231 0.950 . S
C1235 C1226 1.390 . S
C1235 H1228 0.950 . S
C1235 C1232 1.387 . S
C1236 C1237 1.387 . S
C1236 H1240 0.950 . S
C1236 C1245 1.390 . S
C1237 C1236 1.387 . S
C1237 C1239 1.387 1_545 S
H1238 C1245 0.950 . S
C1239 C1237 1.387 1_565 S
C1239 C1241 1.390 . S
C1239 H1243 0.950 . S
H1240 C1236 0.950 . S
C1241 C1239 1.390 . S
C1241 C1242 1.387 . S
C1241 H1244 0.950 . S
C1242 C1241 1.387 . S
C1242 C1245 1.387 1_565 S
H1243 C1239 0.950 . S
H1244 C1241 0.950 . S
C1245 C1236 1.390 . S
C1245 H1238 0.950 . S
C1245 C1242 1.387 1_545 S
C1246 C1247 1.387 . S
C1246 H1250 0.950 . S
C1246 C1255 1.390 . S
C1247 C1246 1.387 . S
C1247 C1249 1.387 . S
H1248 C1255 0.950 . S
C1249 C1247 1.387 . S
C1249 C1251 1.390 . S
C1249 H1253 0.950 . S
H1250 C1246 0.950 . S
C1251 C1249 1.390 . S
C1251 C1252 1.387 . S
C1251 H1254 0.950 . S
C1252 C1251 1.387 . S
C1252 C1255 1.387 . S
H1253 C1249 0.950 . S
H1254 C1251 0.950 . S
C1255 C1246 1.390 . S
C1255 H1248 0.950 . S
C1255 C1252 1.387 . S
C1256 C1257 1.387 . S
C1256 H1260 0.950 . S
C1256 C1265 1.390 1_455 S
C1257 C1256 1.387 . S
C1257 C1259 1.387 . S
H1258 C1265 0.950 . S
C1259 C1257 1.387 . S
C1259 C1261 1.390 1_455 S
C1259 H1263 0.950 . S
H1260 C1256 0.950 . S
C1261 C1259 1.390 1_655 S
C1261 C1262 1.387 . S
C1261 H1264 0.950 . S
C1262 C1261 1.387 . S
C1262 C1265 1.387 . S
H1263 C1259 0.950 . S
H1264 C1261 0.950 . S
C1265 C1256 1.390 1_655 S
C1265 H1258 0.950 . S
C1265 C1262 1.387 . S
C1266 C1267 1.387 1_455 S
C1266 H1270 0.950 . S
C1266 C1275 1.390 . S
C1267 C1266 1.387 1_655 S
C1267 C1269 1.387 . S
H1268 C1275 0.950 . S
C1269 C1267 1.387 . S
C1269 C1271 1.390 . S
C1269 H1273 0.950 . S
H1270 C1266 0.950 . S
C1271 C1269 1.390 . S
C1271 C1272 1.387 1_655 S
C1271 H1274 0.950 . S
C1272 C1271 1.387 1_455 S
C1272 C1275 1.387 . S
H1273 C1269 0.950 . S
H1274 C1271 0.950 . S
C1275 C1266 1.390 . S
C1275 H1268 0.950 . S
C1275 C1272 1.387 . S
C1276 C1277 1.387 . S
C1276 H1280 0.950 . S
C1276 C1285 1.390 1_545 S
C1277 C1276 1.387 . S
C1277 C1279 1.387 . S
H1278 C1285 0.950 . S
C1279 C1277 1.387 . S
C1279 C1281 1.390 1_545 S
C1279 H1283 0.950 . S
H1280 C1276 0.950 . S
C1281 C1279 1.390 1_565 S
C1281 C1282 1.387 . S
C1281 H1284 0.950 . S
C1282 C1281 1.387 . S
C1282 C1285 1.387 . S
H1283 C1279 0.950 . S
H1284 C1281 0.950 . S
C1285 C1276 1.390 1_565 S
C1285 H1278 0.950 . S
C1285 C1282 1.387 . S
C1286 C1287 1.387 . S
C1286 H1290 0.950 . S
C1286 C1295 1.390 . S
C1287 C1286 1.387 . S
C1287 C1289 1.387 . S
H1288 C1295 0.950 . S
C1289 C1287 1.387 . S
C1289 C1291 1.390 . S
C1289 H1293 0.950 . S
H1290 C1286 0.950 . S
C1291 C1289 1.390 . S
C1291 C1292 1.387 . S
C1291 H1294 0.950 . S
C1292 C1291 1.387 . S
C1292 C1295 1.387 . S
H1293 C1289 0.950 . S
H1294 C1291 0.950 . S
C1295 C1286 1.390 . S
C1295 H1288 0.950 . S
C1295 C1292 1.387 . S
C1296 C1297 1.387 . S
C1296 H1300 0.950 . S
C1296 C1305 1.390 . S
C1297 C1296 1.387 . S
C1297 C1299 1.387 . S
H1298 C1305 0.950 . S
C1299 C1297 1.387 . S
C1299 C1301 1.390 . S
C1299 H1303 0.950 . S
H1300 C1296 0.950 . S
C1301 C1299 1.390 . S
C1301 C1302 1.387 . S
C1301 H1304 0.950 . S
C1302 C1301 1.387 . S
C1302 C1305 1.387 . S
H1303 C1299 0.950 . S
H1304 C1301 0.950 . S
C1305 C1296 1.390 . S
C1305 H1298 0.950 . S
C1305 C1302 1.387 . S
C1306 C1307 1.387 . S
C1306 H1310 0.950 . S
C1306 C1315 1.390 . S
C1307 C1306 1.387 . S
C1307 C1309 1.387 . S
H1308 C1315 0.950 . S
C1309 C1307 1.387 . S
C1309 C1311 1.390 . S
C1309 H1313 0.950 . S
H1310 C1306 0.950 . S
C1311 C1309 1.390 . S
C1311 C1312 1.387 . S
C1311 H1314 0.950 . S
C1312 C1311 1.387 . S
C1312 C1315 1.387 . S
H1313 C1309 0.950 . S
H1314 C1311 0.950 . S
C1315 C1306 1.390 . S
C1315 H1308 0.950 . S
C1315 C1312 1.387 . S
C1316 C1317 1.387 . S
C1316 H1320 0.950 . S
C1316 C1325 1.390 . S
C1317 C1316 1.387 . S
C1317 C1319 1.387 . S
H1318 C1325 0.950 . S
C1319 C1317 1.387 . S
C1319 C1321 1.390 . S
C1319 H1323 0.950 . S
H1320 C1316 0.950 . S
C1321 C1319 1.390 . S
C1321 C1322 1.387 . S
C1321 H1324 0.950 . S
C1322 C1321 1.387 . S
C1322 C1325 1.387 . S
H1323 C1319 0.950 . S
H1324 C1321 0.950 . S
C1325 C1316 1.390 . S
C1325 H1318 0.950 . S
C1325 C1322 1.387 . S
C1326 C1327 1.387 . S
C1326 H1330 0.950 . S
C1326 C1335 1.390 . S
C1327 C1326 1.387 . S
C1327 C1329 1.387 . S
H1328 C1335 0.950 . S
C1329 C1327 1.387 . S
C1329 C1331 1.390 . S
C1329 H1333 0.950 . S
H1330 C1326 0.950 . S
C1331 C1329 1.390 . S
C1331 C1332 1.387 . S
C1331 H1334 0.950 . S
C1332 C1331 1.387 . S
C1332 C1335 1.387 . S
H1333 C1329 0.950 . S
H1334 C1331 0.950 . S
C1335 C1326 1.390 . S
C1335 H1328 0.950 . S
C1335 C1332 1.387 . S
C1336 C1337 1.387 . S
C1336 H1340 0.950 . S
C1336 C1345 1.390 . S
C1337 C1336 1.387 . S
C1337 C1339 1.387 . S
H1338 C1345 0.950 . S
C1339 C1337 1.387 . S
C1339 C1341 1.390 . S
C1339 H1343 0.950 . S
H1340 C1336 0.950 . S
C1341 C1339 1.390 . S
C1341 C1342 1.387 . S
C1341 H1344 0.950 . S
C1342 C1341 1.387 . S
C1342 C1345 1.387 . S
H1343 C1339 0.950 . S
H1344 C1341 0.950 . S
C1345 C1336 1.390 . S
C1345 H1338 0.950 . S
C1345 C1342 1.387 . S
C1346 C1347 1.387 . S
C1346 H1350 0.950 . S
C1346 C1355 1.390 . S
C1347 C1346 1.387 . S
C1347 C1349 1.387 . S
H1348 C1355 0.950 . S
C1349 C1347 1.387 . S
C1349 C1351 1.390 . S
C1349 H1353 0.950 . S
H1350 C1346 0.950 . S
C1351 C1349 1.390 . S
C1351 C1352 1.387 . S
C1351 H1354 0.950 . S
C1352 C1351 1.387 . S
C1352 C1355 1.387 . S
H1353 C1349 0.950 . S
H1354 C1351 0.950 . S
C1355 C1346 1.390 . S
C1355 H1348 0.950 . S
C1355 C1352 1.387 . S
C1356 C1357 1.387 . S
C1356 H1360 0.950 . S
C1356 C1365 1.390 . S
C1357 C1356 1.387 . S
C1357 C1359 1.387 . S
H1358 C1365 0.950 . S
C1359 C1357 1.387 . S
C1359 C1361 1.390 . S
C1359 H1363 0.950 . S
H1360 C1356 0.950 . S
C1361 C1359 1.390 . S
C1361 C1362 1.387 . S
C1361 H1364 0.950 . S
C1362 C1361 1.387 . S
C1362 C1365 1.387 . S
H1363 C1359 0.950 . S
H1364 C1361 0.950 . S
C1365 C1356 1.390 . S
C1365 H1358 0.950 . S
C1365 C1362 1.387 . S
C1366 C1367 1.387 . S
C1366 H1370 0.950 . S
C1366 C1375 1.390 . S
C1367 C1366 1.387 . S
C1367 C1369 1.387 . S
H1368 C1375 0.950 . S
C1369 C1367 1.387 . S
C1369 C1371 1.390 . S
C1369 H1373 0.950 . S
H1370 C1366 0.950 . S
C1371 C1369 1.390 . S
C1371 C1372 1.387 . S
C1371 H1374 0.950 . S
C1372 C1371 1.387 . S
C1372 C1375 1.387 . S
H1373 C1369 0.950 . S
H1374 C1371 0.950 . S
C1375 C1366 1.390 . S
C1375 H1368 0.950 . S
C1375 C1372 1.387 . S
C1376 C1377 1.387 . S
C1376 H1380 0.950 . S
C1376 C1385 1.390 . S
C1377 C1376 1.387 . S
C1377 C1379 1.387 . S
H1378 C1385 0.950 . S
C1379 C1377 1.387 . S
C1379 C1381 1.390 . S
C1379 H1383 0.950 . S
H1380 C1376 0.950 . S
C1381 C1379 1.390 . S
C1381 C1382 1.387 . S
C1381 H1384 0.950 . S
C1382 C1381 1.387 . S
C1382 C1385 1.387 . S
H1383 C1379 0.950 . S
H1384 C1381 0.950 . S
C1385 C1376 1.390 . S
C1385 H1378 0.950 . S
C1385 C1382 1.387 . S
C1386 C1387 1.387 . S
C1386 H1390 0.950 . S
C1386 C1395 1.390 . S
C1387 C1386 1.387 . S
C1387 C1389 1.387 . S
H1388 C1395 0.950 . S
C1389 C1387 1.387 . S
C1389 C1391 1.390 . S
C1389 H1393 0.950 . S
H1390 C1386 0.950 . S
C1391 C1389 1.390 . S
C1391 C1392 1.387 . S
C1391 H1394 0.950 . S
C1392 C1391 1.387 . S
C1392 C1395 1.387 . S
H1393 C1389 0.950 . S
H1394 C1391 0.950 . S
C1395 C1386 1.390 . S
C1395 H1388 0.950 . S
C1395 C1392 1.387 . S
C1396 C1397 1.387 . S
C1396 H1400 0.950 . S
C1396 C1405 1.390 . S
C1397 C1396 1.387 . S
C1397 C1399 1.387 . S
H1398 C1405 0.950 . S
C1399 C1397 1.387 . S
C1399 C1401 1.390 . S
C1399 H1403 0.950 . S
H1400 C1396 0.950 . S
C1401 C1399 1.390 . S
C1401 C1402 1.387 . S
C1401 H1404 0.950 . S
C1402 C1401 1.387 . S
C1402 C1405 1.387 . S
H1403 C1399 0.950 . S
H1404 C1401 0.950 . S
C1405 C1396 1.390 . S
C1405 H1398 0.950 . S
C1405 C1402 1.387 . S
C1406 C1407 1.387 . S
C1406 H1410 0.950 . S
C1406 C1415 1.390 . S
C1407 C1406 1.387 . S
C1407 C1409 1.387 . S
H1408 C1415 0.950 . S
C1409 C1407 1.387 . S
C1409 C1411 1.390 . S
C1409 H1413 0.950 . S
H1410 C1406 0.950 . S
C1411 C1409 1.390 . S
C1411 C1412 1.387 . S
C1411 H1414 0.950 . S
C1412 C1411 1.387 . S
C1412 C1415 1.387 . S
H1413 C1409 0.950 . S
H1414 C1411 0.950 . S
C1415 C1406 1.390 . S
C1415 H1408 0.950 . S
C1415 C1412 1.387 . S
C1416 C1417 1.387 . S
C1416 H1420 0.950 . S
C1416 C1425 1.390 . S
C1417 C1416 1.387 . S
C1417 C1419 1.387 . S
H1418 C1425 0.950 . S
C1419 C1417 1.387 . S
C1419 C1421 1.390 . S
C1419 H1423 0.950 . S
H1420 C1416 0.950 . S
C1421 C1419 1.390 . S
C1421 C1422 1.387 . S
C1421 H1424 0.950 . S
C1422 C1421 1.387 . S
C1422 C1425 1.387 . S
H1423 C1419 0.950 . S
H1424 C1421 0.950 . S
C1425 C1416 1.390 . S
C1425 H1418 0.950 . S
C1425 C1422 1.387 . S
C1426 C1427 1.387 . S
C1426 H1430 0.950 . S
C1426 C1435 1.390 . S
C1427 C1426 1.387 . S
C1427 C1429 1.387 . S
H1428 C1435 0.950 . S
C1429 C1427 1.387 . S
C1429 C1431 1.390 . S
C1429 H1433 0.950 . S
H1430 C1426 0.950 . S
C1431 C1429 1.390 . S
C1431 C1432 1.387 . S
C1431 H1434 0.950 . S
C1432 C1431 1.387 . S
C1432 C1435 1.387 . S
H1433 C1429 0.950 . S
H1434 C1431 0.950 . S
C1435 C1426 1.390 . S
C1435 H1428 0.950 . S
C1435 C1432 1.387 . S
C1436 C1437 1.387 . S
C1436 H1440 0.950 . S
C1436 C1445 1.390 . S
C1437 C1436 1.387 . S
C1437 C1439 1.387 . S
H1438 C1445 0.950 . S
C1439 C1437 1.387 . S
C1439 C1441 1.390 . S
C1439 H1443 0.950 . S
H1440 C1436 0.950 . S
C1441 C1439 1.390 . S
C1441 C1442 1.387 . S
C1441 H1444 0.950 . S
C1442 C1441 1.387 . S
C1442 C1445 1.387 . S
H1443 C1439 0.950 . S
H1444 C1441 0.950 . S
C1445 C1436 1.390 . S
C1445 H1438 0.950 . S
C1445 C1442 1.387 . S
C1446 C1447 1.387 . S
C1446 H1450 0.950 . S
C1446 C1455 1.390 . S
C1447 C1446 1.387 . S
C1447 C1449 1.387 . S
H1448 C1455 0.950 . S
C1449 C1447 1.387 . S
C1449 C1451 1.390 . S
C1449 H1453 0.950 . S
H1450 C1446 0.950 . S
C1451 C1449 1.390 . S
C1451 C1452 1.387 . S
C1451 H1454 0.950 . S
C1452 C1451 1.387 . S
C1452 C1455 1.387 . S
H1453 C1449 0.950 . S
H1454 C1451 0.950 . S
C1455 C1446 1.390 . S
C1455 H1448 0.950 . S
C1455 C1452 1.387 . S
C1456 C1457 1.387 . S
C1456 H1460 0.950 . S
C1456 C1465 1.390 . S
C1457 C1456 1.387 . S
C1457 C1459 1.387 . S
H1458 C1465 0.950 . S
C1459 C1457 1.387 . S
C1459 C1461 1.390 . S
C1459 H1463 0.950 . S
H1460 C1456 0.950 . S
C1461 C1459 1.390 . S
C1461 C1462 1.387 . S
C1461 H1464 0.950 . S
C1462 C1461 1.387 . S
C1462 C1465 1.387 . S
H1463 C1459 0.950 . S
H1464 C1461 0.950 . S
C1465 C1456 1.390 . S
C1465 H1458 0.950 . S
C1465 C1462 1.387 . S
C1466 C1467 1.387 . S
C1466 H1470 0.950 . S
C1466 C1475 1.390 . S
C1467 C1466 1.387 . S
C1467 C1469 1.387 . S
H1468 C1475 0.950 . S
C1469 C1467 1.387 . S
C1469 C1471 1.390 . S
C1469 H1473 0.950 . S
H1470 C1466 0.950 . S
C1471 C1469 1.390 . S
C1471 C1472 1.387 . S
C1471 H1474 0.950 . S
C1472 C1471 1.387 . S
C1472 C1475 1.387 . S
H1473 C1469 0.950 . S
H1474 C1471 0.950 . S
C1475 C1466 1.390 . S
C1475 H1468 0.950 . S
C1475 C1472 1.387 . S
C1476 C1477 1.387 . S
C1476 H1480 0.950 . S
C1476 C1485 1.390 . S
C1477 C1476 1.387 . S
C1477 C1479 1.387 . S
H1478 C1485 0.950 . S
C1479 C1477 1.387 . S
C1479 C1481 1.390 . S
C1479 H1483 0.950 . S
H1480 C1476 0.950 . S
C1481 C1479 1.390 . S
C1481 C1482 1.387 . S
C1481 H1484 0.950 . S
C1482 C1481 1.387 . S
C1482 C1485 1.387 . S
H1483 C1479 0.950 . S
H1484 C1481 0.950 . S
C1485 C1476 1.390 . S
C1485 H1478 0.950 . S
C1485 C1482 1.387 . S
C1486 C1487 1.387 . S
C1486 H1490 0.950 . S
C1486 C1495 1.390 . S
C1487 C1486 1.387 . S
C1487 C1489 1.387 . S
H1488 C1495 0.950 . S
C1489 C1487 1.387 . S
C1489 C1491 1.390 . S
C1489 H1493 0.950 . S
H1490 C1486 0.950 . S
C1491 C1489 1.390 . S
C1491 C1492 1.387 . S
C1491 H1494 0.950 . S
C1492 C1491 1.387 . S
C1492 C1495 1.387 . S
H1493 C1489 0.950 . S
H1494 C1491 0.950 . S
C1495 C1486 1.390 . S
C1495 H1488 0.950 . S
C1495 C1492 1.387 . S
C1496 C1497 1.387 . S
C1496 H1500 0.950 . S
C1496 C1505 1.390 . S
C1497 C1496 1.387 . S
C1497 C1499 1.387 . S
H1498 C1505 0.950 . S
C1499 C1497 1.387 . S
C1499 C1501 1.390 . S
C1499 H1503 0.950 . S
H1500 C1496 0.950 . S
C1501 C1499 1.390 . S
C1501 C1502 1.387 . S
C1501 H1504 0.950 . S
C1502 C1501 1.387 . S
C1502 C1505 1.387 . S
H1503 C1499 0.950 . S
H1504 C1501 0.950 . S
C1505 C1496 1.390 . S
C1505 H1498 0.950 . S
C1505 C1502 1.387 . S
C1506 C1507 1.387 . S
C1506 H1510 0.950 . S
C1506 C1515 1.390 . S
C1507 C1506 1.387 . S
C1507 C1509 1.387 . S
H1508 C1515 0.950 . S
C1509 C1507 1.387 . S
C1509 C1511 1.390 . S
C1509 H1513 0.950 . S
H1510 C1506 0.950 . S
C1511 C1509 1.390 . S
C1511 C1512 1.387 . S
C1511 H1514 0.950 . S
C1512 C1511 1.387 . S
C1512 C1515 1.387 . S
H1513 C1509 0.950 . S
H1514 C1511 0.950 . S
C1515 C1506 1.390 . S
C1515 H1508 0.950 . S
C1515 C1512 1.387 . S
C1516 C1517 1.387 . S
C1516 H1520 0.950 . S
C1516 C1525 1.390 . S
C1517 C1516 1.387 . S
C1517 C1519 1.387 . S
H1518 C1525 0.950 . S
C1519 C1517 1.387 . S
C1519 C1521 1.390 . S
C1519 H1523 0.950 . S
H1520 C1516 0.950 . S
C1521 C1519 1.390 . S
C1521 C1522 1.387 . S
C1521 H1524 0.950 . S
C1522 C1521 1.387 . S
C1522 C1525 1.387 . S
H1523 C1519 0.950 . S
H1524 C1521 0.950 . S
C1525 C1516 1.390 . S
C1525 H1518 0.950 . S
C1525 C1522 1.387 . S
C1526 C1527 1.387 . S
C1526 H1530 0.950 . S
C1526 C1535 1.390 . S
C1527 C1526 1.387 . S
C1527 C1529 1.387 . S
H1528 C1535 0.950 . S
C1529 C1527 1.387 . S
C1529 C1531 1.390 . S
C1529 H1533 0.950 . S
H1530 C1526 0.950 . S
C1531 C1529 1.390 . S
C1531 C1532 1.387 . S
C1531 H1534 0.950 . S
C1532 C1531 1.387 . S
C1532 C1535 1.387 . S
H1533 C1529 0.950 . S
H1534 C1531 0.950 . S
C1535 C1526 1.390 . S
C1535 H1528 0.950 . S
C1535 C1532 1.387 . S
C697 C8 1.306 1_565 S
C702 C166 1.252 . S
C707 C37 1.307 . S
C712 C21 1.250 . S
C717 C66 1.308 1_455 S
C722 C50 1.251 . S
C727 C79 1.250 . S
C732 C95 1.306 1_545 S
C737 C124 1.306 . S
C742 C108 1.251 . S
C747 C153 1.308 1_655 S
C752 C137 1.254 . S
C757 C224 1.253 . S
C762 C182 1.309 1_455 S
C767 C253 1.253 . S
C772 C211 1.308 1_545 S
C777 C282 1.251 . S
C782 C240 1.307 . S
C787 C269 1.308 1_655 S
C792 C311 1.255 . S
C797 C340 1.252 . S
C802 C298 1.306 1_565 S
C807 C327 1.308 . S
C812 C195 1.251 . S
C817 C514 1.250 . S
C822 C356 1.307 1_545 S
C827 C369 1.251 . S
C832 C385 1.306 . S
C837 C414 1.308 1_655 S
C842 C398 1.252 . S
C847 C443 1.309 1_565 S
C852 C427 1.253 . S
C857 C472 1.308 . S
C862 C456 1.255 . S
C867 C501 1.306 1_455 S
C872 C485 1.251 . S
C877 C572 1.250 . S
C882 C530 1.306 1_655 S
C887 C601 1.251 . S
C892 C559 1.306 1_565 S
C897 C588 1.308 . S
C902 C630 1.251 . S
C907 C617 1.307 1_455 S
C912 C659 1.250 . S
C917 C646 1.308 1_545 S
C922 C688 1.255 . S
C927 C543 1.254 . S
C932 C675 1.307 . S
C937 C10 1.508 . S
C942 C445 1.511 . S
C947 C39 1.511 . S
C952 C474 1.508 . S
C957 C68 1.509 . S
C962 C503 1.511 . S
C967 C358 1.511 . S
C972 C97 1.509 . S
C977 C126 1.511 . S
C982 C387 1.508 . S
C987 C155 1.511 . S
C992 C416 1.508 . S
C997 C619 1.512 . S
C1002 C184 1.508 . S
C1007 C648 1.510 . S
C1012 C213 1.510 . S
C1017 C677 1.509 . S
C1022 C242 1.511 . S
C1027 C532 1.512 . S
C1032 C271 1.508 . S
C1037 C300 1.509 . S
C1042 C561 1.511 . S
C1047 C329 1.509 . S
C1052 C590 1.511 . S
C1057 C5 1.554 . S
C1062 C237 1.555 . S
C1067 C34 1.555 . S
C1072 C266 1.555 . S
C1077 C63 1.555 . S
C1082 C295 1.555 . S
C1087 C92 1.555 . S
C1092 C324 1.554 . S
C1097 C121 1.555 . S
C1102 C179 1.555 . S
C1107 C150 1.555 . S
C1112 C208 1.555 . S
C1117 C585 1.554 . S
C1122 C353 1.553 . S
C1127 C382 1.552 . S
C1132 C614 1.552 . S
C1137 C643 1.555 . S
C1142 C411 1.554 . S
C1147 C440 1.552 . S
C1152 C672 1.552 . S
C1157 C469 1.554 . S
C1162 C527 1.553 . S
C1167 C498 1.554 . S
C1172 C556 1.555 . S
C1177 C15 1.227 . S
C1182 C102 1.227 . S
C1187 C131 1.228 . S
C1192 C44 1.225 . S
C1197 C73 1.225 . S
C1202 C160 1.228 . S
C1207 C276 1.225 . S
C1212 C189 1.225 . S
C1217 C305 1.225 . S
C1222 C218 1.225 . S
C1227 C247 1.225 . S
C1232 C334 1.228 . S
C1237 C450 1.225 . S
C1242 C363 1.228 . S
C1247 C479 1.225 . S
C1252 C392 1.225 . S
C1257 C421 1.225 . S
C1262 C508 1.225 . S
C1267 C624 1.228 . S
C1272 C537 1.225 . S
C1277 C566 1.227 . S
C1282 C653 1.227 . S
C1287 C682 1.225 . S
C1292 C595 1.225 . S
C1297 C61 2.140 . S
C1302 C13 2.074 . S
C1307 C42 2.076 . S
C1312 C90 2.141 . S
C1317 C119 2.140 . S
C1322 C71 2.073 . S
C1327 C148 2.140 . S
C1332 C100 2.074 . S
C1337 C129 2.076 . S
C1342 C3 2.141 . S
C1347 C158 2.075 . S
C1352 C32 2.139 . S
C1357 C187 2.075 . S
C1362 C293 2.139 . S
C1367 C322 2.140 . S
C1372 C216 2.076 . S
C1377 C177 2.139 . S
C1382 C245 2.073 . S
C1387 C274 2.076 . S
C1392 C206 2.140 . S
C1397 C303 2.075 . S
C1402 C235 2.141 . S
C1407 C332 2.076 . S
C1412 C264 2.140 . S
C1417 C361 2.074 . S
C1422 C409 2.140 . S
C1427 C390 2.076 . S
C1432 C438 2.141 . S
C1437 C419 2.073 . S
C1442 C467 2.139 . S
C1447 C496 2.139 . S
C1452 C448 2.074 . S
C1457 C477 2.074 . S
C1462 C351 2.140 . S
C1467 C380 2.140 . S
C1472 C506 2.074 . S
C1477 C535 2.075 . S
C1482 C641 2.141 . S
C1487 C670 2.140 . S
C1492 C564 2.074 . S
C1497 C593 2.073 . S
C1502 C525 2.139 . S
C1507 C554 2.140 . S
C1512 C622 2.074 . S
C1517 C583 2.140 . S
C1522 C651 2.076 . S
C1527 C680 2.075 . S
C1532 C612 2.141 . S
