# Generated by pormake.
# Topology vbb, (4)-cn, num edge types: 1
# Building blocks:
#     Node 0, Type 0, BuildingBlock: QUQFOY_clean_sbu_1, # of connection points: 4
#     Node 1, Type 0, BuildingBlock: QUQFOY_clean_sbu_1, # of connection points: 4
#     Node 2, Type 0, BuildingBlock: QUQFOY_clean_sbu_1, # of connection points: 4
#     Node 3, Type 0, BuildingBlock: QUQFOY_clean_sbu_1, # of connection points: 4
#     Node 4, Type 0, BuildingBlock: QUQFOY_clean_sbu_1, # of connection points: 4
#     Node 5, Type 0, BuildingBlock: QUQFOY_clean_sbu_1, # of connection points: 4
#     Node 6, Type 0, BuildingBlock: QUQFOY_clean_sbu_1, # of connection points: 4
#     Node 7, Type 0, BuildingBlock: QUQFOY_clean_sbu_1, # of connection points: 4
#     Node 8, Type 0, BuildingBlock: QUQFOY_clean_sbu_1, # of connection points: 4
#     Node 9, Type 0, BuildingBlock: QUQFOY_clean_sbu_1, # of connection points: 4
#     Node 10, Type 0, BuildingBlock: QUQFOY_clean_sbu_1, # of connection points: 4
#     Node 11, Type 0, BuildingBlock: QUQFOY_clean_sbu_1, # of connection points: 4
#     Node 12, Type 0, BuildingBlock: QUQFOY_clean_sbu_1, # of connection points: 4
#     Node 13, Type 0, BuildingBlock: QUQFOY_clean_sbu_1, # of connection points: 4
#     Node 14, Type 0, BuildingBlock: QUQFOY_clean_sbu_1, # of connection points: 4
#     Node 15, Type 0, BuildingBlock: QUQFOY_clean_sbu_1, # of connection points: 4
#     Node 16, Type 0, BuildingBlock: QUQFOY_clean_sbu_1, # of connection points: 4
#     Node 17, Type 0, BuildingBlock: QUQFOY_clean_sbu_1, # of connection points: 4
#     Node 18, Type 0, BuildingBlock: QUQFOY_clean_sbu_1, # of connection points: 4
#     Node 19, Type 0, BuildingBlock: QUQFOY_clean_sbu_1, # of connection points: 4
#     Node 20, Type 0, BuildingBlock: QUQFOY_clean_sbu_1, # of connection points: 4
#     Node 21, Type 0, BuildingBlock: QUQFOY_clean_sbu_1, # of connection points: 4
#     Node 22, Type 0, BuildingBlock: QUQFOY_clean_sbu_1, # of connection points: 4
#     Node 23, Type 0, BuildingBlock: QUQFOY_clean_sbu_1, # of connection points: 4
#     Node 24, Type 0, BuildingBlock: QUQFOY_clean_sbu_1, # of connection points: 4
#     Node 25, Type 0, BuildingBlock: QUQFOY_clean_sbu_1, # of connection points: 4
#     Node 26, Type 0, BuildingBlock: QUQFOY_clean_sbu_1, # of connection points: 4
#     Node 27, Type 0, BuildingBlock: QUQFOY_clean_sbu_1, # of connection points: 4
#     Node 28, Type 0, BuildingBlock: QUQFOY_clean_sbu_1, # of connection points: 4
#     Node 29, Type 0, BuildingBlock: QUQFOY_clean_sbu_1, # of connection points: 4
#     Node 30, Type 0, BuildingBlock: QUQFOY_clean_sbu_1, # of connection points: 4
#     Node 31, Type 0, BuildingBlock: QUQFOY_clean_sbu_1, # of connection points: 4
#     Edge 32, Type (0, 0), BuildingBlock: AJUNOK_clean_linker_0, # of connection points: 2
#     Edge 33, Type (0, 0), BuildingBlock: AJUNOK_clean_linker_0, # of connection points: 2
#     Edge 34, Type (0, 0), BuildingBlock: AJUNOK_clean_linker_0, # of connection points: 2
#     Edge 35, Type (0, 0), BuildingBlock: AJUNOK_clean_linker_0, # of connection points: 2
#     Edge 36, Type (0, 0), BuildingBlock: AJUNOK_clean_linker_0, # of connection points: 2
#     Edge 37, Type (0, 0), BuildingBlock: AJUNOK_clean_linker_0, # of connection points: 2
#     Edge 38, Type (0, 0), BuildingBlock: AJUNOK_clean_linker_0, # of connection points: 2
#     Edge 39, Type (0, 0), BuildingBlock: AJUNOK_clean_linker_0, # of connection points: 2
#     Edge 40, Type (0, 0), BuildingBlock: AJUNOK_clean_linker_0, # of connection points: 2
#     Edge 41, Type (0, 0), BuildingBlock: AJUNOK_clean_linker_0, # of connection points: 2
#     Edge 42, Type (0, 0), BuildingBlock: AJUNOK_clean_linker_0, # of connection points: 2
#     Edge 43, Type (0, 0), BuildingBlock: AJUNOK_clean_linker_0, # of connection points: 2
#     Edge 44, Type (0, 0), BuildingBlock: AJUNOK_clean_linker_0, # of connection points: 2
#     Edge 45, Type (0, 0), BuildingBlock: AJUNOK_clean_linker_0, # of connection points: 2
#     Edge 46, Type (0, 0), BuildingBlock: AJUNOK_clean_linker_0, # of connection points: 2
#     Edge 47, Type (0, 0), BuildingBlock: AJUNOK_clean_linker_0, # of connection points: 2
#     Edge 48, Type (0, 0), BuildingBlock: AJUNOK_clean_linker_0, # of connection points: 2
#     Edge 49, Type (0, 0), BuildingBlock: AJUNOK_clean_linker_0, # of connection points: 2
#     Edge 50, Type (0, 0), BuildingBlock: AJUNOK_clean_linker_0, # of connection points: 2
#     Edge 51, Type (0, 0), BuildingBlock: AJUNOK_clean_linker_0, # of connection points: 2
#     Edge 52, Type (0, 0), BuildingBlock: AJUNOK_clean_linker_0, # of connection points: 2
#     Edge 53, Type (0, 0), BuildingBlock: AJUNOK_clean_linker_0, # of connection points: 2
#     Edge 54, Type (0, 0), BuildingBlock: AJUNOK_clean_linker_0, # of connection points: 2
#     Edge 55, Type (0, 0), BuildingBlock: AJUNOK_clean_linker_0, # of connection points: 2
#     Edge 56, Type (0, 0), BuildingBlock: AJUNOK_clean_linker_0, # of connection points: 2
#     Edge 57, Type (0, 0), BuildingBlock: AJUNOK_clean_linker_0, # of connection points: 2
#     Edge 58, Type (0, 0), BuildingBlock: AJUNOK_clean_linker_0, # of connection points: 2
#     Edge 59, Type (0, 0), BuildingBlock: AJUNOK_clean_linker_0, # of connection points: 2
#     Edge 60, Type (0, 0), BuildingBlock: AJUNOK_clean_linker_0, # of connection points: 2
#     Edge 61, Type (0, 0), BuildingBlock: AJUNOK_clean_linker_0, # of connection points: 2
#     Edge 62, Type (0, 0), BuildingBlock: AJUNOK_clean_linker_0, # of connection points: 2
#     Edge 63, Type (0, 0), BuildingBlock: AJUNOK_clean_linker_0, # of connection points: 2
#     Edge 64, Type (0, 0), BuildingBlock: AJUNOK_clean_linker_0, # of connection points: 2
#     Edge 65, Type (0, 0), BuildingBlock: AJUNOK_clean_linker_0, # of connection points: 2
#     Edge 66, Type (0, 0), BuildingBlock: AJUNOK_clean_linker_0, # of connection points: 2
#     Edge 67, Type (0, 0), BuildingBlock: AJUNOK_clean_linker_0, # of connection points: 2
#     Edge 68, Type (0, 0), BuildingBlock: AJUNOK_clean_linker_0, # of connection points: 2
#     Edge 69, Type (0, 0), BuildingBlock: AJUNOK_clean_linker_0, # of connection points: 2
#     Edge 70, Type (0, 0), BuildingBlock: AJUNOK_clean_linker_0, # of connection points: 2
#     Edge 71, Type (0, 0), BuildingBlock: AJUNOK_clean_linker_0, # of connection points: 2
#     Edge 72, Type (0, 0), BuildingBlock: AJUNOK_clean_linker_0, # of connection points: 2
#     Edge 73, Type (0, 0), BuildingBlock: AJUNOK_clean_linker_0, # of connection points: 2
#     Edge 74, Type (0, 0), BuildingBlock: AJUNOK_clean_linker_0, # of connection points: 2
#     Edge 75, Type (0, 0), BuildingBlock: AJUNOK_clean_linker_0, # of connection points: 2
#     Edge 76, Type (0, 0), BuildingBlock: AJUNOK_clean_linker_0, # of connection points: 2
#     Edge 77, Type (0, 0), BuildingBlock: AJUNOK_clean_linker_0, # of connection points: 2
#     Edge 78, Type (0, 0), BuildingBlock: AJUNOK_clean_linker_0, # of connection points: 2
#     Edge 79, Type (0, 0), BuildingBlock: AJUNOK_clean_linker_0, # of connection points: 2
#     Edge 80, Type (0, 0), BuildingBlock: AJUNOK_clean_linker_0, # of connection points: 2
#     Edge 81, Type (0, 0), BuildingBlock: AJUNOK_clean_linker_0, # of connection points: 2
#     Edge 82, Type (0, 0), BuildingBlock: AJUNOK_clean_linker_0, # of connection points: 2
#     Edge 83, Type (0, 0), BuildingBlock: AJUNOK_clean_linker_0, # of connection points: 2
#     Edge 84, Type (0, 0), BuildingBlock: AJUNOK_clean_linker_0, # of connection points: 2
#     Edge 85, Type (0, 0), BuildingBlock: AJUNOK_clean_linker_0, # of connection points: 2
#     Edge 86, Type (0, 0), BuildingBlock: AJUNOK_clean_linker_0, # of connection points: 2
#     Edge 87, Type (0, 0), BuildingBlock: AJUNOK_clean_linker_0, # of connection points: 2
#     Edge 88, Type (0, 0), BuildingBlock: AJUNOK_clean_linker_0, # of connection points: 2
#     Edge 89, Type (0, 0), BuildingBlock: AJUNOK_clean_linker_0, # of connection points: 2
#     Edge 90, Type (0, 0), BuildingBlock: AJUNOK_clean_linker_0, # of connection points: 2
#     Edge 91, Type (0, 0), BuildingBlock: AJUNOK_clean_linker_0, # of connection points: 2
#     Edge 92, Type (0, 0), BuildingBlock: AJUNOK_clean_linker_0, # of connection points: 2
#     Edge 93, Type (0, 0), BuildingBlock: AJUNOK_clean_linker_0, # of connection points: 2
#     Edge 94, Type (0, 0), BuildingBlock: AJUNOK_clean_linker_0, # of connection points: 2
#     Edge 95, Type (0, 0), BuildingBlock: AJUNOK_clean_linker_0, # of connection points: 2
# Relax obj value: 0.078
# Max RMSD: 0.233
# Mean RMSD: 0.233
data_MOF--net-vbb--node1-QUQFOY_clean_sbu_1--edge1-AJUNOK_clean_linker_0
_symmetry_space_group_name_H-M    P1
_symmetry_Int_Tables_number       1
_symmetry_cell_setting            triclinic
loop_
_symmetry_equiv_pos_as_xyz
'x, y, z'
_cell_length_a     32.34254
_cell_length_b     28.377655
_cell_length_c     77.976089
_cell_angle_alpha  89.940552
_cell_angle_beta   90.003686
_cell_angle_gamma 89.997549
loop_
_atom_site_label
_atom_site_type_symbol
_atom_site_fract_x
_atom_site_fract_y
_atom_site_fract_z
_atom_type_partial_charge
O0 O 0.51784 1.01778 0.08764 0.0
Cd1 Cd 0.50602 1.01665 0.11318 0.0
Cd2 Cd 0.47307 0.09873 0.10911 0.0
O3 O 0.46752 0.06942 0.08409 0.0
O4 O 0.49131 0.9515 0.12233 0.0
O5 O 0.44502 1.00535 0.11555 0.0
C6 C 0.45282 0.96344 0.12088 0.0
C7 C 0.42992 0.11421 0.13273 0.0
C8 C 0.49382 0.04041 0.07772 0.0
C9 C 0.55392 0.10315 0.12386 0.0
O10 O 0.52979 0.12507 0.11381 0.0
O11 O 0.54686 0.05989 0.12759 0.0
O12 O 0.42944 0.1418 0.11947 0.0
O13 O 0.4523 0.0769 0.13186 0.0
O14 O 0.74766 0.28226 0.08725 0.0
Cd15 Cd 0.75835 0.28429 0.11293 0.0
Cd16 Cd 0.79055 0.20099 0.10868 0.0
O17 O 0.79699 0.22942 0.08365 0.0
O18 O 0.77225 0.35031 0.12137 0.0
O19 O 0.81891 0.29556 0.11626 0.0
C20 C 0.8108 0.33814 0.1207 0.0
C21 C 0.83377 0.18112 0.13183 0.0
C22 C 0.7712 0.25908 0.07731 0.0
C23 C 0.7087 0.19973 0.1235 0.0
O24 O 0.7328 0.17742 0.11357 0.0
O25 O 0.71657 0.24264 0.1274 0.0
O26 O 0.83154 0.15386 0.11854 0.0
O27 O 0.81466 0.22077 0.13108 0.0
O28 O 0.51398 0.2832 0.24493 0.0
Cd29 Cd 0.50356 0.28563 0.21922 0.0
Cd30 Cd 0.47195 0.20086 0.22353 0.0
O31 O 0.4662 0.22851 0.24869 0.0
O32 O 0.48782 0.35125 0.21076 0.0
O33 O 0.44295 0.29445 0.21564 0.0
C34 C 0.44972 0.33726 0.21114 0.0
C35 C 0.4279 0.17801 0.20106 0.0
C36 C 0.49139 0.25895 0.25494 0.0
C37 C 0.55364 0.20196 0.20815 0.0
O38 O 0.52987 0.17895 0.21801 0.0
O39 O 0.5459 0.24518 0.20469 0.0
O40 O 0.4323 0.15126 0.21441 0.0
O41 O 0.44507 0.2188 0.20146 0.0
O42 O 0.74587 1.02185 0.24532 0.0
Cd43 Cd 0.75745 1.02059 0.21972 0.0
Cd44 Cd 0.78986 0.10311 0.22398 0.0
O45 O 0.79572 0.07401 0.24897 0.0
O46 O 0.77158 0.95519 0.21067 0.0
O47 O 0.81828 1.00889 0.21703 0.0
C48 C 0.81015 0.96694 0.21186 0.0
C49 C 0.83314 0.11971 0.20051 0.0
C50 C 0.76957 0.04472 0.25529 0.0
C51 C 0.70876 0.10651 0.20917 0.0
O52 O 0.73274 0.12845 0.21927 0.0
O53 O 0.71653 0.06358 0.20522 0.0
O54 O 0.83272 0.14741 0.21371 0.0
O55 O 0.81162 0.08175 0.20137 0.0
O56 O 0.49458 0.0332 0.99315 0.0
Cd57 Cd 0.50774 0.03279 0.96769 0.0
Cd58 Cd 0.53859 0.94952 0.97354 0.0
O59 O 0.54287 0.98015 0.99836 0.0
O60 O 0.52252 0.09785 0.95846 0.0
O61 O 0.56866 0.04386 0.96522 0.0
C62 C 0.56097 0.08579 0.95989 0.0
C63 C 0.58275 0.92878 0.95085 0.0
C64 C 0.51681 1.0108 1.00383 0.0
C65 C 0.4587 0.9474 0.95728 0.0
O66 O 0.48132 0.92579 0.968 0.0
O67 O 0.46698 0.99006 0.95314 0.0
O68 O 0.58029 0.90221 0.96434 0.0
O69 O 0.56346 0.96833 0.95119 0.0
O70 O 0.26799 0.76515 0.99331 0.0
Cd71 Cd 0.25606 0.76412 0.96779 0.0
Cd72 Cd 0.22349 0.84629 0.97165 0.0
O73 O 0.21803 0.8173 0.99673 0.0
O74 O 0.23981 0.69952 0.95854 0.0
O75 O 0.19483 0.75448 0.96564 0.0
C76 C 0.20164 0.7127 0.96002 0.0
C77 C 0.18029 0.8617 0.94799 0.0
C78 C 0.24422 0.78824 1.00317 0.0
C79 C 0.30449 0.85052 0.95715 0.0
O80 O 0.28022 0.87261 0.96709 0.0
O81 O 0.297 0.80742 0.95334 0.0
O82 O 0.17958 0.88908 0.96128 0.0
O83 O 0.20313 0.82474 0.94878 0.0
O84 O 0.49243 0.76658 0.83902 0.0
Cd85 Cd 0.50652 0.76816 0.86429 0.0
Cd86 Cd 0.53786 0.84981 0.85893 0.0
O87 O 0.54221 0.81806 0.83419 0.0
O88 O 0.52399 0.7047 0.87422 0.0
O89 O 0.56805 0.75894 0.86548 0.0
C90 C 0.56193 0.71781 0.87187 0.0
C91 C 0.58106 0.86578 0.88256 0.0
C92 C 0.51569 0.78818 0.82851 0.0
C93 C 0.45817 0.8552 0.87425 0.0
O94 O 0.48127 0.8763 0.86356 0.0
O95 O 0.46646 0.8127 0.87868 0.0
O96 O 0.58222 0.8925 0.86907 0.0
O97 O 0.55777 0.82917 0.88201 0.0
O98 O 0.2663 0.03553 0.83859 0.0
Cd99 Cd 0.25359 0.03519 0.86412 0.0
Cd100 Cd 0.2239 0.95013 0.85804 0.0
O101 O 0.22001 0.98033 0.83317 0.0
O102 O 0.23769 0.10014 0.87318 0.0
O103 O 0.19274 0.04438 0.86703 0.0
C104 C 0.19954 0.08659 0.87219 0.0
C105 C 0.1786 0.92652 0.87996 0.0
C106 C 0.24519 1.0121 0.82784 0.0
C107 C 0.30385 0.95106 0.87485 0.0
O108 O 0.28152 0.92864 0.86426 0.0
O109 O 0.29512 0.99375 0.87874 0.0
O110 O 0.18356 0.90028 0.86652 0.0
O111 O 0.19598 0.9672 0.87989 0.0
O112 O 0.51664 0.51428 0.58922 0.0
Cd113 Cd 0.5041 0.51428 0.61475 0.0
Cd114 Cd 0.47421 0.59918 0.60887 0.0
O115 O 0.46997 0.56922 0.58397 0.0
O116 O 0.488 0.44931 0.62376 0.0
O117 O 0.44321 0.5053 0.61762 0.0
C118 C 0.44989 0.463 0.62275 0.0
C119 C 0.42939 0.62252 0.63099 0.0
C120 C 0.49523 0.53768 0.57853 0.0
C121 C 0.55432 0.59832 0.62546 0.0
O122 O 0.53188 0.62079 0.61491 0.0
O123 O 0.54569 0.55559 0.62935 0.0
O124 O 0.43394 0.64884 0.61753 0.0
O125 O 0.44688 0.5819 0.63086 0.0
O126 O 0.74008 0.7872 0.58981 0.0
Cd127 Cd 0.75471 0.7846 0.61499 0.0
Cd128 Cd 0.78701 0.70393 0.60951 0.0
O129 O 0.79055 0.73671 0.58486 0.0
O130 O 0.77247 0.8474 0.62532 0.0
O131 O 0.81631 0.79406 0.61574 0.0
C132 C 0.81034 0.83465 0.62257 0.0
C133 C 0.8303 0.68935 0.63327 0.0
C134 C 0.76364 0.76629 0.57925 0.0
C135 C 0.70771 0.69608 0.62473 0.0
O136 O 0.73108 0.67565 0.61399 0.0
O137 O 0.71542 0.73863 0.62924 0.0
O138 O 0.83262 0.663 0.61973 0.0
O139 O 0.80565 0.7248 0.63275 0.0
O140 O 0.51747 0.78376 0.74467 0.0
Cd141 Cd 0.50572 0.78516 0.71913 0.0
Cd142 Cd 0.47364 0.70275 0.72288 0.0
O143 O 0.46764 0.7314 0.74797 0.0
O144 O 0.48939 0.84989 0.70999 0.0
O145 O 0.44448 0.79461 0.71686 0.0
C146 C 0.45124 0.83656 0.71137 0.0
C147 C 0.43078 0.68708 0.69914 0.0
C148 C 0.49363 0.76052 0.75449 0.0
C149 C 0.55467 0.6994 0.70837 0.0
O150 O 0.53064 0.67706 0.71834 0.0
O151 O 0.54686 0.74246 0.70458 0.0
O152 O 0.43027 0.65951 0.7124 0.0
O153 O 0.45315 0.72439 0.70002 0.0
O154 O 0.74764 0.52042 0.74394 0.0
Cd155 Cd 0.7601 0.52032 0.71839 0.0
Cd156 Cd 0.79012 0.60458 0.72415 0.0
O157 O 0.79473 0.57489 0.74909 0.0
O158 O 0.77451 0.45479 0.70956 0.0
O159 O 0.82084 0.50934 0.71536 0.0
C160 C 0.81299 0.46701 0.71054 0.0
C161 C 0.83426 0.62667 0.70163 0.0
C162 C 0.76931 0.54358 0.75458 0.0
C163 C 0.70981 0.60447 0.70782 0.0
O164 O 0.73242 0.62669 0.71836 0.0
O165 O 0.71843 0.56182 0.70383 0.0
O166 O 0.83051 0.65343 0.71499 0.0
O167 O 0.81647 0.58621 0.70208 0.0
O168 O 0.49477 0.53045 0.49472 0.0
Cd169 Cd 0.50689 0.53137 0.4692 0.0
Cd170 Cd 0.53962 0.44954 0.47344 0.0
O171 O 0.54525 0.47909 0.49838 0.0
O172 O 0.52175 0.59645 0.46003 0.0
O173 O 0.56793 0.5427 0.467 0.0
C174 C 0.56021 0.58458 0.46163 0.0
C175 C 0.58279 0.4338 0.44984 0.0
C176 C 0.51884 0.50805 0.50469 0.0
C177 C 0.45875 0.44496 0.45871 0.0
O178 O 0.48278 0.42327 0.46887 0.0
O179 O 0.46635 0.4879 0.45468 0.0
O180 O 0.58313 0.40624 0.46311 0.0
O181 O 0.56049 0.47119 0.45067 0.0
O182 O 0.26478 0.267 0.49431 0.0
Cd183 Cd 0.25413 0.26458 0.46866 0.0
Cd184 Cd 0.22231 0.34879 0.47257 0.0
O185 O 0.21646 0.32119 0.49778 0.0
O186 O 0.23799 0.19915 0.46016 0.0
O187 O 0.19331 0.25586 0.46548 0.0
C188 C 0.19992 0.21316 0.46082 0.0
C189 C 0.17851 0.36981 0.44974 0.0
C190 C 0.24183 0.29114 0.50419 0.0
C191 C 0.30395 0.34872 0.4575 0.0
O192 O 0.28 0.37172 0.46728 0.0
O193 O 0.29635 0.30543 0.4541 0.0
O194 O 0.18159 0.39676 0.46308 0.0
O195 O 0.19707 0.32982 0.45027 0.0
O196 O 0.49364 0.26724 0.33948 0.0
Cd197 Cd 0.50772 0.26917 0.3648 0.0
Cd198 Cd 0.53818 0.35178 0.35861 0.0
O199 O 0.54232 0.31961 0.33402 0.0
O200 O 0.5243 0.20527 0.37462 0.0
O201 O 0.56903 0.25953 0.36656 0.0
C202 C 0.56241 0.21817 0.37265 0.0
C203 C 0.58216 0.37185 0.38149 0.0
C204 C 0.51602 0.28902 0.3287 0.0
C205 C 0.45851 0.35528 0.3746 0.0
O206 O 0.48106 0.37635 0.36371 0.0
O207 O 0.46737 0.31309 0.3792 0.0
O208 O 0.58094 0.39793 0.36784 0.0
O209 O 0.56135 0.33331 0.38134 0.0
O210 O 0.26867 0.53736 0.33903 0.0
Cd211 Cd 0.25517 0.53681 0.36443 0.0
Cd212 Cd 0.2246 0.4534 0.35886 0.0
O213 O 0.22054 0.48403 0.334 0.0
O214 O 0.23992 0.60159 0.37376 0.0
O215 O 0.19409 0.54771 0.36657 0.0
C216 C 0.20154 0.58945 0.37211 0.0
C217 C 0.1799 0.43497 0.38165 0.0
C218 C 0.24646 0.51472 0.32843 0.0
C219 C 0.30427 0.45129 0.3751 0.0
O220 O 0.28166 0.42931 0.36449 0.0
O221 O 0.29592 0.49407 0.37905 0.0
O222 O 0.18167 0.40781 0.36831 0.0
O223 O 0.20077 0.47343 0.38121 0.0
O224 O 0.01665 1.01437 0.58897 0.0
Cd225 Cd 1.00383 1.0147 0.61445 0.0
Cd226 Cd 0.97338 0.09856 0.60876 0.0
O227 O 0.96896 0.06823 0.58391 0.0
O228 O 0.98921 0.94962 0.62374 0.0
O229 O 0.94293 1.00355 0.61709 0.0
C230 C 0.95074 0.96169 0.62245 0.0
C231 C 0.929 0.11762 0.63157 0.0
C232 C 0.99464 0.03729 0.57836 0.0
C233 C 0.05342 0.0999 0.62489 0.0
O234 O 0.03068 0.122 0.61434 0.0
O235 O 0.04503 0.05716 0.6289 0.0
O236 O 0.93109 0.14486 0.61825 0.0
O237 O 0.94926 0.07874 0.63109 0.0
O238 O 0.24288 0.28398 0.58871 0.0
Cd239 Cd 0.2566 0.28227 0.61408 0.0
Cd240 Cd 0.28758 0.19981 0.60814 0.0
O241 O 0.29182 0.23175 0.58351 0.0
O242 O 0.27164 0.34655 0.62389 0.0
O243 O 0.31771 0.29364 0.61603 0.0
C244 C 0.31006 0.3349 0.62198 0.0
C245 C 0.33186 0.18201 0.63116 0.0
C246 C 0.26558 0.26223 0.57805 0.0
C247 C 0.20782 0.19578 0.62401 0.0
O248 O 0.23064 0.17461 0.61325 0.0
O249 O 0.21638 0.23814 0.62846 0.0
O250 O 0.33114 0.15514 0.61773 0.0
O251 O 0.30999 0.21975 0.63078 0.0
O252 O 0.01695 0.2837 0.74431 0.0
Cd253 Cd 0.00614 0.28592 0.71866 0.0
Cd254 Cd 0.97333 0.20253 0.72261 0.0
O255 O 0.96756 0.23078 0.74774 0.0
O256 O 0.99041 0.35125 0.7099 0.0
O257 O 0.94532 0.29526 0.71566 0.0
C258 C 0.95223 0.33769 0.71073 0.0
C259 C 0.92944 0.18247 0.69968 0.0
C260 C 0.99335 0.26028 0.75417 0.0
C261 C 0.05475 0.20078 0.70758 0.0
O262 O 0.03068 0.17829 0.71748 0.0
O263 O 0.04758 0.24413 0.7041 0.0
O264 O 0.93172 0.15561 0.7131 0.0
O265 O 0.94894 0.22189 0.70016 0.0
O266 O 0.24657 1.01931 0.74407 0.0
Cd267 Cd 0.25816 1.01815 0.71848 0.0
Cd268 Cd 0.29048 0.10063 0.72288 0.0
O269 O 0.29642 0.07142 0.74784 0.0
O270 O 0.27304 0.95278 0.70961 0.0
O271 O 0.31908 1.00735 0.71582 0.0
C272 C 0.31147 0.9651 0.71085 0.0
C273 C 0.33345 0.1195 0.69954 0.0
C274 C 0.27025 0.04205 0.75409 0.0
C275 C 0.2092 0.10373 0.70807 0.0
O276 O 0.23317 0.12551 0.71821 0.0
O277 O 0.21699 0.0609 0.70401 0.0
O278 O 0.33245 0.14647 0.71294 0.0
O279 O 0.31315 0.08063 0.70023 0.0
O280 O 0.99371 0.03192 0.49454 0.0
Cd281 Cd 0.00584 0.03273 0.46905 0.0
Cd282 Cd 0.03867 0.9514 0.473 0.0
O283 O 0.0445 0.98085 0.49798 0.0
O284 O 0.02127 0.09744 0.45969 0.0
O285 O 0.06706 0.04361 0.46706 0.0
C286 C 0.05964 0.08534 0.46145 0.0
C287 C 0.0809 0.93723 0.44896 0.0
C288 C 0.018 1.00951 0.50442 0.0
C289 C 0.95777 0.94595 0.45871 0.0
O290 O 0.98206 0.92435 0.46878 0.0
O291 O 0.96522 0.98892 0.45465 0.0
O292 O 0.08268 0.90964 0.4622 0.0
O293 O 0.05762 0.97378 0.45001 0.0
O294 O 0.76304 0.76953 0.49545 0.0
Cd295 Cd 0.75259 0.76661 0.46977 0.0
Cd296 Cd 0.72104 0.85136 0.47349 0.0
O297 O 0.71533 0.82447 0.49881 0.0
O298 O 0.73736 0.70078 0.46139 0.0
O299 O 0.69194 0.75696 0.46633 0.0
C300 C 0.69914 0.71429 0.46179 0.0
C301 C 0.6768 0.87105 0.45065 0.0
C302 C 0.74042 0.79423 0.50528 0.0
C303 C 0.80259 0.85045 0.45827 0.0
O304 O 0.77873 0.87394 0.46793 0.0
O305 O 0.79491 0.80703 0.45513 0.0
O306 O 0.68011 0.89882 0.46376 0.0
O307 O 0.69564 0.83127 0.45139 0.0
O308 O 0.99272 0.76658 0.339 0.0
Cd309 Cd 0.00602 0.7671 0.36446 0.0
Cd310 Cd 0.036 0.85148 0.35853 0.0
O311 O 0.03987 0.82093 0.3337 0.0
O312 O 0.02285 0.70263 0.37374 0.0
O313 O 0.06712 0.75846 0.3668 0.0
C314 C 0.06086 0.71645 0.37232 0.0
C315 C 0.08101 0.87428 0.38066 0.0
C316 C 0.01431 0.78966 0.32829 0.0
C317 C 0.95641 0.8518 0.37523 0.0
O318 O 0.97861 0.87395 0.36451 0.0
O319 O 0.96505 0.8091 0.37918 0.0
O320 O 0.07699 0.90043 0.36713 0.0
O321 O 0.06276 0.83409 0.38065 0.0
O322 O 0.76851 0.03671 0.33981 0.0
Cd323 Cd 0.75483 0.03579 0.3652 0.0
Cd324 Cd 0.72301 0.95382 0.35931 0.0
O325 O 0.71886 0.9854 0.33461 0.0
O326 O 0.74021 0.10064 0.37464 0.0
O327 O 0.69383 0.0476 0.36721 0.0
C328 C 0.70171 0.08917 0.37282 0.0
C329 C 0.6791 0.9351 0.38237 0.0
C330 C 0.74558 1.01533 0.32914 0.0
C331 C 0.80291 0.94912 0.37517 0.0
O332 O 0.7799 0.92838 0.36438 0.0
O333 O 0.79472 0.99152 0.37969 0.0
O334 O 0.67983 0.90864 0.36883 0.0
O335 O 0.7003 0.97336 0.38197 0.0
O336 O 0.01549 0.52087 0.0867 0.0
Cd337 Cd 1.00384 0.51946 0.11229 0.0
Cd338 Cd 0.97197 0.60291 0.10796 0.0
O339 O 0.96646 0.57402 0.0829 0.0
O340 O 0.98787 0.45446 0.12126 0.0
O341 O 0.94287 0.51013 0.11496 0.0
C342 C 0.9497 0.46792 0.12016 0.0
C343 C 0.92831 0.62258 0.131 0.0
C344 C 0.99225 0.5442 0.07667 0.0
C345 C 0.05283 0.6045 0.12327 0.0
O346 O 0.02934 0.62693 0.11312 0.0
O347 O 0.04509 0.56137 0.12692 0.0
O348 O 0.93023 0.64953 0.1176 0.0
O349 O 0.94806 0.58333 0.13046 0.0
O350 O 0.24623 0.78409 0.08768 0.0
Cd351 Cd 0.25896 0.78344 0.11315 0.0
Cd352 Cd 0.2888 0.69977 0.10752 0.0
O353 O 0.29404 0.73033 0.08271 0.0
O354 O 0.27518 0.848 0.12246 0.0
O355 O 0.32008 0.7927 0.11566 0.0
C356 C 0.31333 0.83465 0.12112 0.0
C357 C 0.33207 0.67864 0.13051 0.0
C358 C 0.26841 0.76129 0.07711 0.0
C359 C 0.20825 0.69882 0.12313 0.0
O360 O 0.23107 0.67691 0.11258 0.0
O361 O 0.21735 0.74107 0.12752 0.0
O362 O 0.32999 0.65216 0.117 0.0
O363 O 0.3127 0.71814 0.1301 0.0
O364 O 0.01443 0.7837 0.24452 0.0
Cd365 Cd 1.00297 0.78526 0.21897 0.0
Cd366 Cd 0.97098 0.70208 0.22293 0.0
O367 O 0.96508 0.7308 0.24802 0.0
O368 O 0.98708 0.85034 0.21005 0.0
O369 O 0.94192 0.79488 0.21641 0.0
C370 C 0.94887 0.83708 0.21122 0.0
C371 C 0.92777 0.68483 0.19949 0.0
C372 C 0.99088 0.76036 0.25442 0.0
C373 C 0.05213 0.69997 0.20814 0.0
O374 O 0.02822 0.67741 0.21809 0.0
O375 O 0.04456 0.74318 0.20451 0.0
O376 O 0.92849 0.65722 0.21274 0.0
O377 O 0.9489 0.72307 0.20028 0.0
O378 O 0.24513 0.52017 0.24464 0.0
Cd379 Cd 0.25664 0.51888 0.21909 0.0
Cd380 Cd 0.28891 0.60106 0.22294 0.0
O381 O 0.29526 0.57212 0.24798 0.0
O382 O 0.27156 0.45373 0.21007 0.0
O383 O 0.31767 0.50795 0.21661 0.0
C384 C 0.31001 0.46591 0.21142 0.0
C385 C 0.33145 0.61672 0.19912 0.0
C386 C 0.26917 0.54304 0.25447 0.0
C387 C 0.20754 0.6046 0.20862 0.0
O388 O 0.23178 0.62674 0.21854 0.0
O389 O 0.2153 0.56165 0.20468 0.0
O390 O 0.33194 0.64449 0.21231 0.0
O391 O 0.30935 0.57921 0.20014 0.0
O392 O 0.99304 0.53391 0.99211 0.0
Cd393 Cd 0.0075 0.53232 0.96681 0.0
Cd394 Cd 0.03872 0.45067 0.97293 0.0
O395 O 0.04276 0.48285 0.99754 0.0
O396 O 0.02329 0.59663 0.95718 0.0
O397 O 0.06876 0.54327 0.96529 0.0
C398 C 0.06157 0.58475 0.95939 0.0
C399 C 0.08228 0.43154 0.9498 0.0
C400 C 0.01593 0.51281 1.00289 0.0
C401 C 0.95927 0.44572 0.95694 0.0
O402 O 0.98184 0.42519 0.96796 0.0
O403 O 0.96782 0.48792 0.95226 0.0
O404 O 0.08178 0.40535 0.96343 0.0
O405 O 0.06112 0.46985 0.95013 0.0
O406 O 0.76816 0.26522 0.99274 0.0
Cd407 Cd 0.7553 0.26524 0.96722 0.0
Cd408 Cd 0.72567 0.35034 0.97318 0.0
O409 O 0.72189 0.3205 0.99811 0.0
O410 O 0.73899 0.20023 0.95835 0.0
O411 O 0.69439 0.25646 0.96436 0.0
C412 C 0.70092 0.21406 0.95935 0.0
C413 C 0.68019 0.37467 0.95143 0.0
C414 C 0.74711 0.2888 1.00348 0.0
C415 C 0.80554 0.34904 0.95624 0.0
O416 O 0.78328 0.3716 0.96681 0.0
O417 O 0.79681 0.30629 0.95246 0.0
O418 O 0.68569 0.40075 0.96487 0.0
O419 O 0.69704 0.33369 0.95142 0.0
O420 O 0.99287 0.26734 0.83876 0.0
Cd421 Cd 0.0066 0.26813 0.86412 0.0
Cd422 Cd 0.03816 0.35055 0.8585 0.0
O423 O 0.04206 0.31937 0.8337 0.0
O424 O 0.02155 0.2035 0.87368 0.0
O425 O 0.06767 0.25664 0.86603 0.0
C426 C 0.05999 0.21516 0.87181 0.0
C427 C 0.08241 0.36806 0.88156 0.0
C428 C 0.01559 0.28928 0.82815 0.0
C429 C 0.95856 0.35463 0.87451 0.0
O430 O 0.98143 0.37603 0.86382 0.0
O431 O 0.96646 0.31184 0.87863 0.0
O432 O 0.08167 0.39509 0.86816 0.0
O433 O 0.06078 0.33014 0.88109 0.0
O434 O 0.76845 0.53789 0.83841 0.0
Cd435 Cd 0.75637 0.53856 0.86393 0.0
Cd436 Cd 0.72392 0.45658 0.85979 0.0
O437 O 0.71842 0.48594 0.83478 0.0
O438 O 0.74107 0.60335 0.87321 0.0
O439 O 0.69524 0.54928 0.86617 0.0
C440 C 0.70269 0.59109 0.87165 0.0
C441 C 0.68098 0.44088 0.88348 0.0
C442 C 0.74467 0.5151 0.82844 0.0
C443 C 0.80476 0.45221 0.87445 0.0
O444 O 0.78071 0.43037 0.86436 0.0
O445 O 0.79717 0.49519 0.8784 0.0
O446 O 0.68029 0.4135 0.87018 0.0
O447 O 0.70349 0.4781 0.88262 0.0
C448 C 0.40852 0.1766 0.15349 0.0
C449 C 0.41289 0.12852 0.14963 0.0
C450 C 0.40798 0.19221 0.17056 0.0
C451 C 0.41186 0.16032 0.18439 0.0
H452 H 0.40976 0.20274 0.14337 0.0
H453 H 0.40843 0.22986 0.17286 0.0
S454 S 0.41193 0.02998 0.181 0.0
N455 N 0.41172 0.04855 0.16093 0.0
N456 N 0.41122 0.07794 0.19297 0.0
C457 C 0.41017 0.11191 0.18068 0.0
C458 C 0.41063 0.096 0.16329 0.0
C459 C 0.85197 0.18258 0.17951 0.0
C460 C 0.84998 0.13444 0.18362 0.0
C461 C 0.85198 0.19759 0.16235 0.0
C462 C 0.85001 0.16502 0.1487 0.0
H463 H 0.8492 0.20894 0.18948 0.0
H464 H 0.84965 0.23506 0.15985 0.0
S465 S 0.85651 0.03502 0.15282 0.0
N466 N 0.85536 0.0543 0.17279 0.0
N467 N 0.85503 0.08252 0.14058 0.0
C468 C 0.85409 0.11693 0.15267 0.0
C469 C 0.8541 0.10164 0.17015 0.0
C470 C 0.60175 0.92854 0.90326 0.0
C471 C 0.59844 0.88039 0.89935 0.0
C472 C 0.6021 0.94398 0.92036 0.0
C473 C 0.5992 0.91183 0.93414 0.0
H474 H 0.59965 0.95471 0.89317 0.0
H475 H 0.60068 0.98157 0.92271 0.0
S476 S 0.6021 0.78158 0.93056 0.0
N477 N 0.60154 0.80039 0.91052 0.0
N478 N 0.60194 0.82941 0.94261 0.0
C479 C 0.60205 0.86353 0.93037 0.0
C480 C 0.60166 0.84781 0.91296 0.0
C481 C 0.15726 0.93988 0.9103 0.0
C482 C 0.16187 0.90831 0.89644 0.0
C483 C 0.15782 0.92398 0.92735 0.0
C484 C 0.16292 0.87594 0.93113 0.0
H485 H 0.15726 0.97757 0.90806 0.0
H486 H 0.15861 0.94996 0.93751 0.0
S487 S 0.16343 0.77793 0.89961 0.0
N488 N 0.16228 0.8261 0.88771 0.0
N489 N 0.1628 0.79615 0.91971 0.0
C490 C 0.16114 0.84361 0.91742 0.0
C491 C 0.16066 0.85982 0.90005 0.0
C492 C 0.40852 0.60889 0.6614 0.0
C493 C 0.41289 0.64056 0.64754 0.0
C494 C 0.40899 0.6247 0.67845 0.0
C495 C 0.41375 0.67277 0.68223 0.0
H496 H 0.40872 0.57121 0.65916 0.0
H497 H 0.4099 0.59867 0.68861 0.0
S498 S 0.41379 0.77094 0.6507 0.0
N499 N 0.4129 0.72283 0.63881 0.0
N500 N 0.41323 0.75261 0.6708 0.0
C501 C 0.41184 0.70515 0.66852 0.0
C502 C 0.41147 0.68903 0.65115 0.0
C503 C 0.85387 0.61206 0.67112 0.0
C504 C 0.85017 0.64413 0.68488 0.0
C505 C 0.85291 0.62742 0.65401 0.0
C506 C 0.8482 0.6754 0.65005 0.0
H507 H 0.85353 0.57444 0.67352 0.0
H508 H 0.85146 0.60116 0.64395 0.0
S509 S 0.84937 0.77442 0.68113 0.0
N510 N 0.85068 0.72665 0.69324 0.0
N511 N 0.84914 0.75551 0.66111 0.0
C512 C 0.85062 0.70813 0.66361 0.0
C513 C 0.85161 0.69249 0.68104 0.0
C514 C 0.60258 0.3712 0.42894 0.0
C515 C 0.5997 0.41933 0.43295 0.0
C516 C 0.60238 0.35601 0.41181 0.0
C517 C 0.59934 0.38839 0.39811 0.0
H518 H 0.60056 0.34489 0.43898 0.0
H519 H 0.60062 0.31847 0.40938 0.0
S520 S 0.6034 0.51853 0.4019 0.0
N521 N 0.60326 0.49947 0.42191 0.0
N522 N 0.60251 0.47086 0.38977 0.0
C523 C 0.60269 0.43659 0.40195 0.0
C524 C 0.60289 0.45208 0.4194 0.0
C525 C 0.16071 0.37076 0.40205 0.0
C526 C 0.16249 0.41913 0.39831 0.0
C527 C 0.16049 0.35481 0.4191 0.0
C528 C 0.16215 0.38665 0.43299 0.0
H529 H 0.16387 0.34498 0.3919 0.0
H530 H 0.16299 0.31722 0.42133 0.0
S531 S 0.15468 0.51677 0.42981 0.0
N532 N 0.15623 0.49861 0.40971 0.0
N533 N 0.15638 0.46862 0.4417 0.0
C534 C 0.15774 0.4349 0.42936 0.0
C535 C 0.15783 0.45114 0.41199 0.0
C536 C 0.91108 0.18209 0.65202 0.0
C537 C 0.91207 0.1337 0.64827 0.0
C538 C 0.91136 0.19795 0.66907 0.0
C539 C 0.91271 0.16602 0.68296 0.0
H540 H 0.91447 0.20785 0.64186 0.0
H541 H 0.91445 0.23547 0.67129 0.0
S542 S 0.90337 0.03606 0.67981 0.0
N543 N 0.90486 0.0543 0.65971 0.0
N544 N 0.90592 0.08412 0.6917 0.0
C545 C 0.90756 0.11788 0.67934 0.0
C546 C 0.90715 0.10172 0.66198 0.0
C547 C 0.35054 0.11827 0.65181 0.0
C548 C 0.34942 0.16652 0.64782 0.0
C549 C 0.3507 0.10297 0.66893 0.0
C550 C 0.34977 0.13537 0.68266 0.0
H551 H 0.34684 0.09219 0.64179 0.0
H552 H 0.34761 0.06554 0.67137 0.0
S553 S 0.35889 0.26522 0.67879 0.0
N554 N 0.35679 0.2463 0.65879 0.0
N555 N 0.35678 0.21757 0.69094 0.0
C556 C 0.35482 0.18339 0.67877 0.0
C557 C 0.35466 0.19896 0.66133 0.0
C558 C 0.1031 0.86028 0.41088 0.0
C559 C 0.0979 0.89218 0.39715 0.0
C560 C 0.10296 0.8757 0.42798 0.0
C561 C 0.09764 0.9236 0.43193 0.0
H562 H 0.10331 0.82265 0.40853 0.0
H563 H 0.10271 0.84944 0.43808 0.0
S564 S 0.09497 1.02243 0.4007 0.0
N565 N 0.09628 0.9746 0.38866 0.0
N566 N 0.09652 1.00368 0.42074 0.0
C567 C 0.09863 0.95631 0.41831 0.0
C568 C 0.09872 0.94058 0.40089 0.0
C569 C 0.66049 0.93567 0.42999 0.0
C570 C 0.6604 0.88732 0.43386 0.0
C571 C 0.66123 0.95133 0.41292 0.0
C572 C 0.66191 0.91924 0.3991 0.0
H573 H 0.66436 0.96147 0.4401 0.0
H574 H 0.66519 0.98873 0.41062 0.0
S575 S 0.64966 0.78964 0.4025 0.0
N576 N 0.65152 0.80802 0.42257 0.0
N577 N 0.65333 0.83749 0.39052 0.0
C578 C 0.65567 0.87131 0.40281 0.0
C579 C 0.65486 0.85534 0.42021 0.0
C580 C 0.90944 0.62153 0.17862 0.0
C581 C 0.91111 0.66974 0.18261 0.0
C582 C 0.90968 0.60631 0.1615 0.0
C583 C 0.91163 0.63873 0.14777 0.0
H584 H 0.91227 0.59532 0.18866 0.0
H585 H 0.91224 0.56882 0.15908 0.0
S586 S 0.90432 0.76872 0.15156 0.0
N587 N 0.90535 0.7497 0.17157 0.0
N588 N 0.90622 0.72107 0.13943 0.0
C589 C 0.9072 0.68682 0.15162 0.0
C590 C 0.90691 0.70233 0.16906 0.0
C591 C 0.35156 0.67902 0.17807 0.0
C592 C 0.34814 0.63095 0.18214 0.0
C593 C 0.35171 0.69417 0.16092 0.0
C594 C 0.34846 0.66181 0.14725 0.0
H595 H 0.34985 0.70539 0.18807 0.0
H596 H 0.3505 0.73173 0.15845 0.0
S597 S 0.35087 0.53161 0.1512 0.0
N598 N 0.35077 0.55073 0.17119 0.0
N599 N 0.35064 0.57925 0.13901 0.0
C600 C 0.3511 0.61356 0.15116 0.0
C601 C 0.35096 0.59812 0.16862 0.0
C602 C 0.10077 0.43193 0.90217 0.0
C603 C 0.09951 0.38363 0.8983 0.0
C604 C 0.10054 0.44748 0.91925 0.0
C605 C 0.09909 0.41531 0.93306 0.0
H606 H 0.09749 0.4579 0.89206 0.0
H607 H 0.09756 0.48497 0.92158 0.0
S608 S 0.10742 0.28534 0.92959 0.0
N609 N 0.10605 0.30395 0.90953 0.0
N610 N 0.10528 0.33319 0.9416 0.0
C611 C 0.10393 0.36719 0.92933 0.0
C612 C 0.10417 0.35135 0.91192 0.0
C613 C 0.6585 0.36205 0.92108 0.0
C614 C 0.66348 0.39332 0.935 0.0
C615 C 0.65883 0.37828 0.90407 0.0
C616 C 0.66405 0.42637 0.90039 0.0
H617 H 0.65833 0.32432 0.92322 0.0
H618 H 0.65928 0.35249 0.89384 0.0
S619 S 0.66573 0.52374 0.93217 0.0
N620 N 0.66455 0.47535 0.94394 0.0
N621 N 0.66456 0.50593 0.91202 0.0
C622 C 0.66271 0.45844 0.91419 0.0
C623 C 0.6625 0.44189 0.93152 0.0
C624 C 0.34302 0.91604 0.12349 0.0
C625 C 0.34874 0.86701 0.12419 0.0
C626 C 0.37694 0.94691 0.12331 0.0
C627 C 0.41801 0.93009 0.12392 0.0
H628 H 0.31224 0.93067 0.12219 0.0
H629 H 0.3708 0.98428 0.12205 0.0
S630 S 0.44946 0.80499 0.12854 0.0
N631 N 0.3985 0.80323 0.1275 0.0
N632 N 0.46206 0.86125 0.12713 0.0
C633 C 0.42404 0.88133 0.12585 0.0
C634 C 0.38948 0.84983 0.12597 0.0
C635 C 0.88658 0.35538 0.12298 0.0
C636 C 0.84542 0.37192 0.12347 0.0
C637 C 0.92033 0.38648 0.12293 0.0
C638 C 0.91436 0.43548 0.12329 0.0
H639 H 0.89295 0.318 0.12198 0.0
H640 H 0.95118 0.37198 0.12176 0.0
S641 S 0.81329 0.49702 0.12716 0.0
N642 N 0.801 0.44061 0.12616 0.0
N643 N 0.86423 0.49908 0.12612 0.0
C644 C 0.87352 0.45247 0.12492 0.0
C645 C 0.83913 0.42074 0.12502 0.0
C646 C 0.41991 0.41869 0.20914 0.0
C647 C 0.41428 0.36969 0.20815 0.0
C648 C 0.38596 0.44951 0.20931 0.0
C649 C 0.34492 0.43268 0.20844 0.0
H650 H 0.45063 0.43333 0.21063 0.0
H651 H 0.39204 0.48683 0.21078 0.0
S652 S 0.3137 0.30776 0.20308 0.0
N653 N 0.36463 0.306 0.20431 0.0
N654 N 0.30103 0.36394 0.20471 0.0
C655 C 0.33899 0.384 0.20625 0.0
C656 C 0.37359 0.35255 0.20611 0.0
C657 C 0.8859 0.94983 0.20934 0.0
C658 C 0.84473 0.93336 0.20873 0.0
C659 C 0.91963 0.91871 0.20907 0.0
C660 C 0.91361 0.86975 0.20826 0.0
H661 H 0.89228 0.98713 0.21067 0.0
H662 H 0.9505 0.93308 0.21037 0.0
S663 S 0.81252 0.80862 0.20381 0.0
N664 N 0.80026 0.86494 0.20535 0.0
N665 N 0.86346 0.80643 0.20484 0.0
C666 C 0.87276 0.85293 0.20647 0.0
C667 C 0.8384 0.88469 0.20669 0.0
C668 C 0.6709 0.1328 0.95725 0.0
C669 C 0.66534 0.18183 0.95644 0.0
C670 C 0.63689 0.10207 0.9575 0.0
C671 C 0.59587 0.11902 0.95686 0.0
H672 H 0.70163 0.11804 0.95854 0.0
H673 H 0.64293 0.06469 0.95883 0.0
S674 S 0.56475 0.2442 0.95214 0.0
N675 N 0.61572 0.24578 0.95311 0.0
N676 N 0.552 0.188 0.95362 0.0
C677 C 0.58997 0.16779 0.95488 0.0
C678 C 0.62463 0.19915 0.95468 0.0
C679 C 0.17173 0.63143 0.95782 0.0
C680 C 0.16628 0.68043 0.9568 0.0
C681 C 0.13766 0.60076 0.95779 0.0
C682 C 0.09673 0.61779 0.9566 0.0
H683 H 0.20235 0.61669 0.95954 0.0
H684 H 0.14353 0.56342 0.95933 0.0
S685 S 0.06622 0.7429 0.951 0.0
N686 N 0.11709 0.7444 0.95265 0.0
N687 N 0.05325 0.68677 0.95251 0.0
C688 C 0.09107 0.66651 0.95435 0.0
C689 C 0.12577 0.69779 0.95449 0.0
C690 C 0.59247 0.63695 0.87459 0.0
C691 C 0.5977 0.68605 0.87498 0.0
C692 C 0.62672 0.60655 0.87441 0.0
C693 C 0.66761 0.62398 0.87475 0.0
H694 H 0.56181 0.62187 0.8735 0.0
H695 H 0.62098 0.56906 0.87336 0.0
S696 S 0.69777 0.74966 0.87859 0.0
N697 N 0.64678 0.75066 0.87771 0.0
N698 N 0.71097 0.69354 0.87746 0.0
C699 C 0.67315 0.67287 0.87642 0.0
C700 C 0.63827 0.70387 0.87649 0.0
C701 C 0.13587 0.19879 0.8742 0.0
C702 C 0.09483 0.18194 0.8749 0.0
C703 C 0.16982 0.16797 0.87441 0.0
C704 C 0.16414 0.11896 0.87525 0.0
H705 H 0.14195 0.23615 0.87283 0.0
H706 H 0.20057 0.18262 0.87303 0.0
S707 S 0.06349 0.05691 0.87984 0.0
N708 N 0.05085 0.11313 0.87833 0.0
N709 N 0.11445 0.05517 0.87876 0.0
C710 C 0.12343 0.10176 0.87713 0.0
C711 C 0.08885 0.13322 0.87697 0.0
C712 C 0.41996 0.38168 0.62487 0.0
C713 C 0.41439 0.4307 0.62575 0.0
C714 C 0.38595 0.35097 0.62456 0.0
C715 C 0.34494 0.36795 0.62521 0.0
H716 H 0.45069 0.36696 0.62352 0.0
H717 H 0.39195 0.31361 0.62316 0.0
S718 S 0.31384 0.493 0.63023 0.0
N719 N 0.36481 0.49459 0.62925 0.0
N720 N 0.30108 0.43684 0.62863 0.0
C721 C 0.33905 0.41665 0.62733 0.0
C722 C 0.3737 0.448 0.62758 0.0
C723 C 0.84079 0.91535 0.62585 0.0
C724 C 0.84615 0.86626 0.62575 0.0
C725 C 0.87497 0.94585 0.62571 0.0
C726 C 0.9159 0.92852 0.6256 0.0
H727 H 0.81006 0.93041 0.6251 0.0
H728 H 0.86912 0.9834 0.62503 0.0
S729 S 0.94647 0.80271 0.62811 0.0
N730 N 0.89545 0.80161 0.62757 0.0
N731 N 0.95951 0.85893 0.62739 0.0
C732 C 0.92161 0.87954 0.62681 0.0
C733 C 0.8868 0.84845 0.62683 0.0
C734 C 0.42145 0.91788 0.70899 0.0
C735 C 0.41584 0.86887 0.7082 0.0
C736 C 0.38747 0.94868 0.70897 0.0
C737 C 0.34645 0.93179 0.70806 0.0
H738 H 0.45215 0.93256 0.7105 0.0
H739 H 0.39351 0.98604 0.71032 0.0
S740 S 0.31545 0.80666 0.70308 0.0
N741 N 0.36636 0.80501 0.70451 0.0
N742 N 0.30268 0.86287 0.70446 0.0
C743 C 0.34059 0.88303 0.70606 0.0
C744 C 0.37521 0.85161 0.70615 0.0
C745 C 0.88889 0.45017 0.70851 0.0
C746 C 0.84779 0.43353 0.70768 0.0
C747 C 0.92273 0.41919 0.70846 0.0
C748 C 0.91691 0.3702 0.70765 0.0
H749 H 0.89512 0.48749 0.70986 0.0
H750 H 0.95351 0.43371 0.70991 0.0
S751 S 0.81614 0.3086 0.70277 0.0
N752 N 0.80366 0.36488 0.70419 0.0
N753 N 0.86706 0.30664 0.70404 0.0
C754 C 0.87617 0.35319 0.70567 0.0
C755 C 0.84169 0.38481 0.70568 0.0
C756 C 0.63614 0.60152 0.45996 0.0
C757 C 0.59504 0.618 0.45873 0.0
C758 C 0.66991 0.63259 0.4599 0.0
C759 C 0.66402 0.68152 0.45869 0.0
H760 H 0.64238 0.56428 0.46162 0.0
H761 H 0.70065 0.61824 0.46166 0.0
S762 S 0.56332 0.74254 0.45263 0.0
N763 N 0.55091 0.6863 0.45438 0.0
N764 N 0.61417 0.74472 0.45427 0.0
C765 C 0.62332 0.6983 0.45631 0.0
C766 C 0.58892 0.66658 0.45631 0.0
C767 C 0.13567 0.10126 0.45932 0.0
C768 C 0.09471 0.11832 0.45839 0.0
C769 C 0.16976 0.13188 0.45905 0.0
C770 C 0.16435 0.18088 0.45791 0.0
H771 H 0.14157 0.06393 0.46089 0.0
H772 H 0.20042 0.11709 0.46058 0.0
S773 S 0.06405 0.24333 0.45269 0.0
N774 N 0.05112 0.18726 0.45447 0.0
N775 N 0.11499 0.24481 0.45391 0.0
C776 C 0.12374 0.19824 0.45583 0.0
C777 C 0.089 0.167 0.45606 0.0
C778 C 0.62591 0.10594 0.37534 0.0
C779 C 0.66701 0.12271 0.37576 0.0
C780 C 0.59203 0.13688 0.37543 0.0
C781 C 0.59784 0.1859 0.37579 0.0
H782 H 0.61972 0.06853 0.37433 0.0
H783 H 0.56121 0.12226 0.37431 0.0
S784 S 0.69869 0.24795 0.37938 0.0
N785 N 0.7112 0.1916 0.37836 0.0
N786 N 0.64771 0.24976 0.37849 0.0
C787 C 0.63862 0.2031 0.37733 0.0
C788 C 0.67314 0.17153 0.37734 0.0
C789 C 0.12557 0.60504 0.37469 0.0
C790 C 0.16648 0.62239 0.37515 0.0
C791 C 0.09136 0.63549 0.37486 0.0
C792 C 0.09662 0.68459 0.37538 0.0
H793 H 0.11979 0.56757 0.37357 0.0
H794 H 0.0607 0.62045 0.37368 0.0
S795 S 0.1968 0.74795 0.37924 0.0
N796 N 0.20992 0.69182 0.37801 0.0
N797 N 0.14582 0.74906 0.37834 0.0
C798 C 0.13722 0.70231 0.377 0.0
C799 C 0.17207 0.67125 0.3769 0.0
C800 C 0.52613 0.99936 0.05247 0.0
C801 C 0.49806 0.03333 0.0588 0.0
C802 C 0.53235 0.99266 1.03481 0.0
C803 C 0.51084 1.01961 1.02258 0.0
H804 H 0.54372 0.97755 0.06123 0.0
H805 H 0.55412 0.9659 1.03074 0.0
S806 S 0.43402 0.11377 1.03227 0.0
N807 N 0.44872 0.09448 0.05128 0.0
N808 N 0.4602 0.08225 1.0182 0.0
C809 C 0.48265 0.05386 1.02872 0.0
C810 C 0.4763 0.06057 0.04674 0.0
C811 C 0.73938 0.30098 0.05213 0.0
C812 C 0.76682 0.26623 0.0584 0.0
C813 C 0.7329 0.30773 1.03448 0.0
C814 C 0.75348 0.28006 1.02222 0.0
H815 H 0.72249 0.32335 0.06092 0.0
H816 H 0.7116 0.33507 1.03046 0.0
S817 S 0.82852 0.18389 1.03176 0.0
N818 N 0.81468 0.20369 0.0508 0.0
N819 N 0.80269 0.21602 1.01774 0.0
C820 C 0.78109 0.24509 1.0283 0.0
C821 C 0.78772 0.23833 0.04631 0.0
C822 C 0.52407 0.30024 0.28004 0.0
C823 C 0.4962 0.26586 0.27384 0.0
C824 C 0.53073 0.30701 0.29766 0.0
C825 C 0.50986 0.27979 0.30999 0.0
H826 H 0.54115 0.32234 0.2712 0.0
H827 H 0.55227 0.33414 0.30162 0.0
S828 S 0.43389 0.18448 0.30069 0.0
N829 N 0.44781 0.20395 0.2816 0.0
N830 N 0.46012 0.21638 0.31463 0.0
C831 C 0.48193 0.24508 0.30399 0.0
C832 C 0.47515 0.23825 0.286 0.0
C833 C 0.73739 1.00325 0.2805 0.0
C834 C 0.76502 0.03775 0.2742 0.0
C835 C 0.73084 0.99668 0.29816 0.0
C836 C 0.75159 1.02427 0.31039 0.0
H837 H 0.72043 0.9809 0.27172 0.0
H838 H 0.7095 0.96942 0.3022 0.0
S839 S 0.8267 0.12027 0.30079 0.0
N840 N 0.81293 0.10029 0.28177 0.0
N841 N 0.8008 0.08828 0.31484 0.0
C842 C 0.77925 0.05912 0.30429 0.0
C843 C 0.78594 0.06572 0.28628 0.0
C844 C 0.27509 0.74626 1.02855 0.0
C845 C 0.24876 0.78186 1.02211 0.0
C846 C 0.28179 0.7403 0.04622 0.0
C847 C 0.26252 0.76967 0.05833 0.0
H848 H 0.29085 0.72254 1.01986 0.0
H849 H 0.30202 0.71211 0.05039 0.0
S850 S 0.19147 0.8693 0.0483 0.0
N851 N 0.20383 0.84747 1.02938 0.0
N852 N 0.21628 0.83666 0.06248 0.0
C853 C 0.23623 0.80568 0.05207 0.0
C854 C 0.22935 0.81162 1.03405 0.0
C855 C 0.52441 0.80213 0.77994 0.0
C856 C 0.49776 0.76696 0.77344 0.0
C857 C 0.53055 0.80829 0.79764 0.0
C858 C 0.51033 0.77958 0.80972 0.0
H859 H 0.54087 0.82538 0.77129 0.0
H860 H 0.55107 0.83613 0.80185 0.0
S861 S 0.43813 0.68124 0.79955 0.0
N862 N 0.45155 0.70243 0.78064 0.0
N863 N 0.46292 0.71365 0.81378 0.0
C864 C 0.48373 0.744 0.8034 0.0
C865 C 0.47746 0.73783 0.78535 0.0
C866 C 0.239 0.99915 0.77917 0.0
C867 C 0.26561 0.03481 0.77298 0.0
C868 C 0.23219 0.9924 0.7968 0.0
C869 C 0.25161 1.021 0.80911 0.0
H870 H 0.22305 0.97604 0.77033 0.0
H871 H 0.21165 0.96428 0.80077 0.0
S872 S 0.32376 0.12012 0.79976 0.0
N873 N 0.31119 0.09942 0.78069 0.0
N874 N 0.29857 0.08712 0.81371 0.0
C875 C 0.2783 0.05697 0.8031 0.0
C876 C 0.28528 0.06371 0.78512 0.0
C877 C 0.48759 0.55044 0.52988 0.0
C878 C 0.51451 0.51523 0.5236 0.0
C879 C 0.48118 0.55715 0.54753 0.0
C880 C 0.50131 0.52892 0.55978 0.0
H881 H 0.47111 0.57324 0.52108 0.0
H882 H 0.46036 0.58491 0.55156 0.0
S883 S 0.57455 0.43106 0.5502 0.0
N884 N 0.56117 0.45146 0.53118 0.0
N885 N 0.54929 0.46365 0.56424 0.0
C886 C 0.52831 0.49341 0.55369 0.0
C887 C 0.53489 0.48672 0.53568 0.0
C888 C 0.77801 0.7464 0.54836 0.0
C889 C 0.75816 0.7752 0.56048 0.0
C890 C 0.77157 0.75262 0.53069 0.0
C891 C 0.745 0.788 0.52424 0.0
H892 H 0.79841 0.71836 0.55252 0.0
H893 H 0.78772 0.72922 0.52201 0.0
S894 S 0.68641 0.87416 0.5505 0.0
N895 N 0.71126 0.84152 0.56467 0.0
N896 N 0.69934 0.85292 0.53155 0.0
C897 C 0.72514 0.81732 0.5362 0.0
C898 C 0.73169 0.81104 0.55424 0.0
C899 C 0.77539 0.55791 0.80321 0.0
C900 C 0.74927 0.52194 0.80953 0.0
C901 C 0.78216 0.56428 0.78556 0.0
C902 C 0.76318 0.53497 0.77335 0.0
H903 H 0.79095 0.58158 0.81198 0.0
H904 H 0.80226 0.5927 0.78148 0.0
S905 S 0.69273 0.43454 0.78305 0.0
N906 N 0.70483 0.45611 0.80204 0.0
N907 N 0.7174 0.46768 0.76898 0.0
C908 C 0.73707 0.49863 0.77949 0.0
C909 C 0.73013 0.49228 0.79749 0.0
C910 C 0.27276 0.24885 0.52946 0.0
C911 C 0.24637 0.28453 0.52311 0.0
C912 C 0.27932 0.24239 0.54711 0.0
C913 C 0.25979 0.27125 0.55931 0.0
H914 H 0.2887 0.22543 0.52072 0.0
H915 H 0.29962 0.21416 0.5512 0.0
S916 S 0.18844 0.37079 0.54958 0.0
N917 N 0.20111 0.34967 0.53058 0.0
N918 N 0.21325 0.33783 0.56367 0.0
C919 C 0.23343 0.30733 0.55316 0.0
C920 C 0.22675 0.31384 0.53514 0.0
C921 C 0.23188 0.49495 0.29753 0.0
C922 C 0.2523 0.52325 0.30965 0.0
C923 C 0.23811 0.5013 0.27985 0.0
C924 C 0.2651 0.53625 0.2734 0.0
H925 H 0.211 0.46737 0.30169 0.0
H926 H 0.22141 0.47843 0.27116 0.0
S927 S 0.3258 0.62054 0.29963 0.0
N928 N 0.30059 0.58832 0.31382 0.0
N929 N 0.31212 0.5999 0.28069 0.0
C930 C 0.28575 0.56486 0.28536 0.0
C931 C 0.27937 0.5585 0.3034 0.0
C932 C 0.98682 0.05123 0.52976 0.0
C933 C 0.01375 1.01622 0.52335 0.0
C934 C 0.9804 0.05743 0.54744 0.0
C935 C 1.00057 0.02889 0.55958 0.0
H936 H 0.97031 0.07426 0.52105 0.0
H937 H 0.9596 0.08509 0.55157 0.0
S938 S 0.07375 0.93126 0.54964 0.0
N939 N 0.0604 0.95222 0.53069 0.0
N940 N 0.04851 0.96348 0.5638 0.0
C941 C 0.02756 0.99355 0.55336 0.0
C942 C 0.03414 0.98737 0.53532 0.0
C943 C 0.02602 0.30043 0.77954 0.0
C944 C 0.9975 0.26707 0.77311 0.0
C945 C 0.03203 0.307 0.79722 0.0
C946 C 0.00983 0.28055 0.80937 0.0
H947 H 0.04414 0.32185 0.77084 0.0
H948 H 0.05418 0.33328 0.80135 0.0
S949 S 0.93154 0.1882 0.79945 0.0
N950 N 0.94695 0.20709 0.78048 0.0
N951 N 0.95802 0.2191 0.8136 0.0
C952 C 0.98119 0.24692 0.80315 0.0
C953 C 0.97508 0.24032 0.7851 0.0
C954 C 0.02252 0.80202 0.27966 0.0
C955 C 0.99515 0.7673 0.27334 0.0
C956 C 0.02887 0.80865 0.29731 0.0
C957 C 0.00819 0.78089 0.30954 0.0
H958 H 0.03946 0.82448 0.2709 0.0
H959 H 0.05008 0.836 0.30137 0.0
S960 S 0.93343 0.68461 0.29989 0.0
N961 N 0.94736 0.70458 0.28087 0.0
N962 N 0.95909 0.7167 0.31395 0.0
C963 C 0.98069 0.7459 0.30342 0.0
C964 C 0.97421 0.73926 0.2854 0.0
C965 C 0.03156 0.49587 1.03395 0.0
C966 C 0.0099 0.52224 1.02161 0.0
C967 C 0.02517 0.50299 0.05158 0.0
C968 C 0.99682 0.53687 0.05776 0.0
H969 H 0.05352 0.46917 1.03001 0.0
H970 H 0.04286 0.48157 0.06044 0.0
S971 S 0.93241 0.61598 1.03086 0.0
N972 N 0.95889 0.58431 1.01693 0.0
N973 N 0.94712 0.59738 0.04996 0.0
C974 C 0.97498 0.56361 0.04558 0.0
C975 C 0.98147 0.55643 1.02759 0.0
C976 C 0.63012 0.1022 0.12895 0.0
C977 C 0.59261 0.12704 0.12913 0.0
C978 C 0.66801 0.12628 0.12866 0.0
C979 C 0.66978 0.176 0.12877 0.0
H980 H 0.63024 0.06423 0.12751 0.0
H981 H 0.69606 0.10578 0.12723 0.0
S982 S 0.58024 0.25664 0.13306 0.0
N983 N 0.55949 0.20351 0.13221 0.0
N984 N 0.63075 0.24866 0.13187 0.0
C985 C 0.63264 0.2009 0.13094 0.0
C986 C 0.59402 0.17641 0.13103 0.0
C987 C 0.63009 0.20414 0.20396 0.0
C988 C 0.59277 0.17913 0.20287 0.0
C989 C 0.66806 0.18025 0.20448 0.0
C990 C 0.67011 0.13057 0.20374 0.0
H991 H 0.62985 0.24192 0.20595 0.0
H992 H 0.69585 0.20076 0.2066 0.0
S993 S 0.58138 0.05002 0.19696 0.0
N994 N 0.56032 0.10292 0.19823 0.0
N995 N 0.63171 0.0581 0.19902 0.0
C996 C 0.63331 0.10573 0.20065 0.0
C997 C 0.59461 0.13003 0.2003 0.0
C998 C 0.38266 0.94856 0.95196 0.0
C999 C 0.42021 0.92384 0.95163 0.0
C1000 C 0.34483 0.92433 0.95216 0.0
C1001 C 0.34321 0.8746 0.95183 0.0
H1002 H 0.38248 0.98645 0.95364 0.0
H1003 H 0.31674 0.94467 0.95375 0.0
S1004 S 0.433 0.79453 0.94698 0.0
N1005 N 0.45358 0.84771 0.94812 0.0
N1006 N 0.38246 0.80224 0.94825 0.0
C1007 C 0.38041 0.84994 0.94945 0.0
C1008 C 0.41895 0.87459 0.94945 0.0
C1009 C 0.41798 0.92921 0.87891 0.0
C1010 C 0.41984 0.87956 0.87985 0.0
C1011 C 0.38008 0.95327 0.87935 0.0
C1012 C 0.34271 0.92842 0.88053 0.0
H1013 H 0.44583 0.94951 0.87664 0.0
H1014 H 0.37994 0.99097 0.87713 0.0
S1015 S 0.33089 0.79958 0.88702 0.0
N1016 N 0.38126 0.80739 0.88495 0.0
N1017 N 0.30998 0.85252 0.88549 0.0
C1018 C 0.34437 0.87942 0.88334 0.0
C1019 C 0.383 0.85496 0.88311 0.0
C1020 C 0.66833 0.62129 0.62905 0.0
C1021 C 0.66976 0.67091 0.63032 0.0
C1022 C 0.63068 0.59674 0.62954 0.0
C1023 C 0.59313 0.62106 0.63111 0.0
H1024 H 0.69628 0.60147 0.62649 0.0
H1025 H 0.63081 0.55918 0.62706 0.0
S1026 S 0.58028 0.74932 0.63857 0.0
N1027 N 0.63065 0.74228 0.63616 0.0
N1028 N 0.55983 0.69621 0.63677 0.0
C1029 C 0.59441 0.6699 0.63425 0.0
C1030 C 0.63278 0.69485 0.63397 0.0
C1031 C 0.59557 0.62594 0.70347 0.0
C1032 C 0.59345 0.67563 0.70293 0.0
C1033 C 0.6336 0.60216 0.70306 0.0
C1034 C 0.67089 0.62731 0.70228 0.0
H1035 H 0.56776 0.60529 0.70539 0.0
H1036 H 0.63387 0.56432 0.70494 0.0
S1037 S 0.68221 0.7566 0.69687 0.0
N1038 N 0.63183 0.74834 0.69863 0.0
N1039 N 0.70335 0.70371 0.6981 0.0
C1040 C 0.66904 0.67647 0.69987 0.0
C1041 C 0.63028 0.70066 0.70009 0.0
C1042 C 0.41837 0.37091 0.45416 0.0
C1043 C 0.42026 0.42058 0.45325 0.0
C1044 C 0.38049 0.34682 0.45359 0.0
C1045 C 0.34311 0.37163 0.45227 0.0
H1046 H 0.44618 0.35057 0.45646 0.0
H1047 H 0.38035 0.30909 0.45572 0.0
S1048 S 0.33138 0.50053 0.4458 0.0
N1049 N 0.38169 0.49274 0.44809 0.0
N1050 N 0.31048 0.44756 0.44721 0.0
C1051 C 0.34482 0.42067 0.44952 0.0
C1052 C 0.38343 0.44517 0.44992 0.0
C1053 C 0.4183 0.42901 0.37968 0.0
C1054 C 0.4201 0.37932 0.38024 0.0
C1055 C 0.38039 0.45307 0.38005 0.0
C1056 C 0.34296 0.42817 0.38075 0.0
H1057 H 0.44625 0.44938 0.37775 0.0
H1058 H 0.38036 0.4909 0.37816 0.0
S1059 S 0.33089 0.29894 0.38604 0.0
N1060 N 0.38134 0.30687 0.38441 0.0
N1061 N 0.31004 0.35198 0.38484 0.0
C1062 C 0.3445 0.379 0.38317 0.0
C1063 C 0.38313 0.35455 0.38302 0.0
C1064 C 0.12964 0.09799 0.62956 0.0
C1065 C 0.09224 0.12292 0.63041 0.0
C1066 C 0.16756 0.122 0.62907 0.0
C1067 C 0.16941 0.17169 0.62965 0.0
H1068 H 0.12953 0.06017 0.62766 0.0
H1069 H 0.19546 0.10161 0.62706 0.0
S1070 S 0.08035 0.25212 0.63575 0.0
N1071 N 0.05945 0.19911 0.6346 0.0
N1072 N 0.13076 0.24416 0.63395 0.0
C1073 C 0.1325 0.19648 0.63254 0.0
C1074 C 0.09386 0.17207 0.63282 0.0
C1075 C 0.16891 0.17767 0.70327 0.0
C1076 C 0.17055 0.12796 0.70272 0.0
C1077 C 0.1311 0.20192 0.70293 0.0
C1078 C 0.09355 0.17725 0.70224 0.0
H1079 H 0.19694 0.19796 0.7051 0.0
H1080 H 0.13124 0.23976 0.70475 0.0
S1081 S 0.08099 0.04807 0.69692 0.0
N1082 N 0.13146 0.05573 0.69859 0.0
N1083 N 0.06036 0.10121 0.69814 0.0
C1084 C 0.09491 0.12805 0.69985 0.0
C1085 C 0.13345 0.10339 0.70001 0.0
C1086 C 0.91706 0.87191 0.45471 0.0
C1087 C 0.91916 0.92151 0.45343 0.0
C1088 C 0.87909 0.84802 0.45436 0.0
C1089 C 0.8418 0.87294 0.45288 0.0
H1090 H 0.94479 0.85154 0.45713 0.0
H1091 H 0.87881 0.81041 0.45677 0.0
S1092 S 0.8306 1.00147 0.44535 0.0
N1093 N 0.88089 0.99355 0.44768 0.0
N1094 N 0.80947 0.94872 0.44724 0.0
C1095 C 0.8437 0.9218 0.44975 0.0
C1096 C 0.88242 0.9461 0.44993 0.0
C1097 C 0.88029 0.85033 0.38012 0.0
C1098 C 0.91788 0.87483 0.38107 0.0
C1099 C 0.84256 0.87476 0.37986 0.0
C1100 C 0.8411 0.92443 0.38075 0.0
H1101 H 0.88009 0.81262 0.37795 0.0
H1102 H 0.8145 0.85474 0.37774 0.0
S1103 S 0.93085 1.00357 0.38736 0.0
N1104 N 0.95132 0.95042 0.38578 0.0
N1105 N 0.88036 0.99624 0.38556 0.0
C1106 C 0.87822 0.94868 0.38379 0.0
C1107 C 0.91667 0.92385 0.38385 0.0
C1108 C 0.16704 0.6259 0.12837 0.0
C1109 C 0.16929 0.67558 0.12857 0.0
C1110 C 0.1289 0.60233 0.12858 0.0
C1111 C 0.09166 0.62768 0.12876 0.0
H1112 H 0.1949 0.60509 0.12688 0.0
H1113 H 0.12864 0.56439 0.12704 0.0
S1114 S 0.0806 0.75738 0.13289 0.0
N1115 N 0.13104 0.74873 0.13175 0.0
N1116 N 0.0593 0.70454 0.13195 0.0
C1117 C 0.09356 0.67699 0.13078 0.0
C1118 C 0.13243 0.70096 0.13077 0.0
C1119 C 0.12848 0.70191 0.20355 0.0
C1120 C 0.09115 0.6768 0.20288 0.0
C1121 C 0.16651 0.6781 0.20391 0.0
C1122 C 0.1686 0.62842 0.20338 0.0
H1123 H 0.12829 0.73977 0.20532 0.0
H1124 H 0.19437 0.69873 0.2057 0.0
S1125 S 0.07971 0.54744 0.19776 0.0
N1126 N 0.05862 0.60034 0.19892 0.0
N1127 N 0.13012 0.5557 0.19937 0.0
C1128 C 0.1317 0.60339 0.20074 0.0
C1129 C 0.09294 0.6276 0.20057 0.0
C1130 C 0.88181 0.34705 0.95189 0.0
C1131 C 0.84435 0.37165 0.95049 0.0
C1132 C 0.91958 0.37135 0.95234 0.0
C1133 C 0.92123 0.42099 0.95121 0.0
H1134 H 0.88179 0.30943 0.95428 0.0
H1135 H 0.94748 0.35131 0.95481 0.0
S1136 S 0.83208 0.50019 0.94337 0.0
N1137 N 0.81137 0.44717 0.94507 0.0
N1138 N 0.88245 0.49275 0.94565 0.0
C1139 C 0.88436 0.44526 0.9477 0.0
C1140 C 0.84584 0.42056 0.94745 0.0
C1141 C 0.88254 0.35389 0.87979 0.0
C1142 C 0.92017 0.37845 0.88012 0.0
C1143 C 0.84479 0.37828 0.87955 0.0
C1144 C 0.84335 0.428 0.87985 0.0
H1145 H 0.88223 0.31599 0.87814 0.0
H1146 H 0.81664 0.35806 0.87795 0.0
S1147 S 0.93335 0.50772 0.8847 0.0
N1148 N 0.95378 0.45446 0.8836 0.0
N1149 N 0.88279 0.50022 0.88341 0.0
C1150 C 0.8806 0.45252 0.88224 0.0
C1151 C 0.91907 0.42772 0.88226 0.0
loop_
_geom_bond_atom_site_label_1
_geom_bond_atom_site_label_2
_geom_bond_distance
_geom_bond_site_symmetry_2
_ccdc_geom_bond_type
O0 Cd1 2.223 1_545 S
O0 C8 1.315 . S
Cd1 O0 2.223 1_565 S
Cd1 O4 2.297 . S
Cd1 O5 2.439 . S
Cd1 O11 2.240 1_565 S
Cd2 O3 2.240 . S
Cd2 O10 2.223 . S
Cd2 O12 2.297 . S
Cd2 O13 2.439 . S
O3 Cd2 2.240 . S
O3 C8 1.279 . S
O4 Cd1 2.297 . S
O4 C6 1.247 . S
O5 Cd1 2.439 . S
O5 C6 1.208 . S
C6 O4 1.247 . S
C6 O5 1.208 . S
C7 O12 1.247 . S
C7 O13 1.208 . S
C8 O0 1.315 . S
C8 O3 1.279 . S
C9 O10 1.315 . S
C9 O11 1.279 . S
O10 Cd2 2.223 . S
O10 C9 1.315 . S
O11 Cd1 2.240 1_545 S
O11 C9 1.279 . S
O12 Cd2 2.297 . S
O12 C7 1.247 . S
O13 Cd2 2.439 . S
O13 C7 1.208 . S
O14 Cd15 2.223 . S
O14 C22 1.315 . S
Cd15 O14 2.223 . S
Cd15 O18 2.297 . S
Cd15 O19 2.439 . S
Cd15 O25 2.240 . S
Cd16 O17 2.240 . S
Cd16 O24 2.223 . S
Cd16 O26 2.297 . S
Cd16 O27 2.439 . S
O17 Cd16 2.240 . S
O17 C22 1.279 . S
O18 Cd15 2.297 . S
O18 C20 1.247 . S
O19 Cd15 2.439 . S
O19 C20 1.208 . S
C20 O18 1.247 . S
C20 O19 1.208 . S
C21 O26 1.247 . S
C21 O27 1.208 . S
C22 O14 1.315 . S
C22 O17 1.279 . S
C23 O24 1.315 . S
C23 O25 1.279 . S
O24 Cd16 2.223 . S
O24 C23 1.315 . S
O25 Cd15 2.240 . S
O25 C23 1.279 . S
O26 Cd16 2.297 . S
O26 C21 1.247 . S
O27 Cd16 2.439 . S
O27 C21 1.208 . S
O28 Cd29 2.223 . S
O28 C36 1.315 . S
Cd29 O28 2.223 . S
Cd29 O32 2.297 . S
Cd29 O33 2.439 . S
Cd29 O39 2.240 . S
Cd30 O31 2.240 . S
Cd30 O38 2.223 . S
Cd30 O40 2.297 . S
Cd30 O41 2.439 . S
O31 Cd30 2.240 . S
O31 C36 1.279 . S
O32 Cd29 2.297 . S
O32 C34 1.247 . S
O33 Cd29 2.439 . S
O33 C34 1.208 . S
C34 O32 1.247 . S
C34 O33 1.208 . S
C35 O40 1.247 . S
C35 O41 1.208 . S
C36 O28 1.315 . S
C36 O31 1.279 . S
C37 O38 1.315 . S
C37 O39 1.279 . S
O38 Cd30 2.223 . S
O38 C37 1.315 . S
O39 Cd29 2.240 . S
O39 C37 1.279 . S
O40 Cd30 2.297 . S
O40 C35 1.247 . S
O41 Cd30 2.439 . S
O41 C35 1.208 . S
O42 Cd43 2.223 1_545 S
O42 C50 1.315 . S
Cd43 O42 2.223 1_565 S
Cd43 O46 2.297 . S
Cd43 O47 2.439 . S
Cd43 O53 2.240 1_565 S
Cd44 O45 2.240 . S
Cd44 O52 2.223 . S
Cd44 O54 2.297 . S
Cd44 O55 2.439 . S
O45 Cd44 2.240 . S
O45 C50 1.279 . S
O46 Cd43 2.297 . S
O46 C48 1.247 . S
O47 Cd43 2.439 . S
O47 C48 1.208 . S
C48 O46 1.247 . S
C48 O47 1.208 . S
C49 O54 1.247 . S
C49 O55 1.208 . S
C50 O42 1.315 . S
C50 O45 1.279 . S
C51 O52 1.315 . S
C51 O53 1.279 . S
O52 Cd44 2.223 . S
O52 C51 1.315 . S
O53 Cd43 2.240 1_545 S
O53 C51 1.279 . S
O54 Cd44 2.297 . S
O54 C49 1.247 . S
O55 Cd44 2.439 . S
O55 C49 1.208 . S
O56 Cd57 2.223 1_565 S
O56 C64 1.315 . S
Cd57 O56 2.223 1_545 S
Cd57 O60 2.297 . S
Cd57 O61 2.439 . S
Cd57 O67 2.240 1_545 S
Cd58 O59 2.240 . S
Cd58 O66 2.223 . S
Cd58 O68 2.297 . S
Cd58 O69 2.439 . S
O59 Cd58 2.240 . S
O59 C64 1.279 . S
O60 Cd57 2.297 . S
O60 C62 1.247 . S
O61 Cd57 2.439 . S
O61 C62 1.208 . S
C62 O60 1.247 . S
C62 O61 1.208 . S
C63 O68 1.247 . S
C63 O69 1.208 . S
C64 O56 1.315 . S
C64 O59 1.279 . S
C65 O66 1.315 . S
C65 O67 1.279 . S
O66 Cd58 2.223 . S
O66 C65 1.315 . S
O67 Cd57 2.240 1_565 S
O67 C65 1.279 . S
O68 Cd58 2.297 . S
O68 C63 1.247 . S
O69 Cd58 2.439 . S
O69 C63 1.208 . S
O70 Cd71 2.223 . S
O70 C78 1.315 . S
Cd71 O70 2.223 . S
Cd71 O74 2.297 . S
Cd71 O75 2.439 . S
Cd71 O81 2.240 . S
Cd72 O73 2.240 . S
Cd72 O80 2.223 . S
Cd72 O82 2.297 . S
Cd72 O83 2.439 . S
O73 Cd72 2.240 . S
O73 C78 1.279 . S
O74 Cd71 2.297 . S
O74 C76 1.247 . S
O75 Cd71 2.439 . S
O75 C76 1.208 . S
C76 O74 1.247 . S
C76 O75 1.208 . S
C77 O82 1.247 . S
C77 O83 1.208 . S
C78 O70 1.315 . S
C78 O73 1.279 . S
C79 O80 1.315 . S
C79 O81 1.279 . S
O80 Cd72 2.223 . S
O80 C79 1.315 . S
O81 Cd71 2.240 . S
O81 C79 1.279 . S
O82 Cd72 2.297 . S
O82 C77 1.247 . S
O83 Cd72 2.439 . S
O83 C77 1.208 . S
O84 Cd85 2.223 . S
O84 C92 1.315 . S
Cd85 O84 2.223 . S
Cd85 O88 2.297 . S
Cd85 O89 2.439 . S
Cd85 O95 2.240 . S
Cd86 O87 2.240 . S
Cd86 O94 2.223 . S
Cd86 O96 2.297 . S
Cd86 O97 2.439 . S
O87 Cd86 2.240 . S
O87 C92 1.279 . S
O88 Cd85 2.297 . S
O88 C90 1.247 . S
O89 Cd85 2.439 . S
O89 C90 1.208 . S
C90 O88 1.247 . S
C90 O89 1.208 . S
C91 O96 1.247 . S
C91 O97 1.208 . S
C92 O84 1.315 . S
C92 O87 1.279 . S
C93 O94 1.315 . S
C93 O95 1.279 . S
O94 Cd86 2.223 . S
O94 C93 1.315 . S
O95 Cd85 2.240 . S
O95 C93 1.279 . S
O96 Cd86 2.297 . S
O96 C91 1.247 . S
O97 Cd86 2.439 . S
O97 C91 1.208 . S
O98 Cd99 2.223 1_565 S
O98 C106 1.315 . S
Cd99 O98 2.223 1_545 S
Cd99 O102 2.297 . S
Cd99 O103 2.439 . S
Cd99 O109 2.240 1_545 S
Cd100 O101 2.240 . S
Cd100 O108 2.223 . S
Cd100 O110 2.297 . S
Cd100 O111 2.439 . S
O101 Cd100 2.240 . S
O101 C106 1.279 . S
O102 Cd99 2.297 . S
O102 C104 1.247 . S
O103 Cd99 2.439 . S
O103 C104 1.208 . S
C104 O102 1.247 . S
C104 O103 1.208 . S
C105 O110 1.247 . S
C105 O111 1.208 . S
C106 O98 1.315 . S
C106 O101 1.279 . S
C107 O108 1.315 . S
C107 O109 1.279 . S
O108 Cd100 2.223 . S
O108 C107 1.315 . S
O109 Cd99 2.240 1_565 S
O109 C107 1.279 . S
O110 Cd100 2.297 . S
O110 C105 1.247 . S
O111 Cd100 2.439 . S
O111 C105 1.208 . S
O112 Cd113 2.223 . S
O112 C120 1.315 . S
Cd113 O112 2.223 . S
Cd113 O116 2.297 . S
Cd113 O117 2.439 . S
Cd113 O123 2.240 . S
Cd114 O115 2.240 . S
Cd114 O122 2.223 . S
Cd114 O124 2.297 . S
Cd114 O125 2.439 . S
O115 Cd114 2.240 . S
O115 C120 1.279 . S
O116 Cd113 2.297 . S
O116 C118 1.247 . S
O117 Cd113 2.439 . S
O117 C118 1.208 . S
C118 O116 1.247 . S
C118 O117 1.208 . S
C119 O124 1.247 . S
C119 O125 1.208 . S
C120 O112 1.315 . S
C120 O115 1.279 . S
C121 O122 1.315 . S
C121 O123 1.279 . S
O122 Cd114 2.223 . S
O122 C121 1.315 . S
O123 Cd113 2.240 . S
O123 C121 1.279 . S
O124 Cd114 2.297 . S
O124 C119 1.247 . S
O125 Cd114 2.439 . S
O125 C119 1.208 . S
O126 Cd127 2.223 . S
O126 C134 1.315 . S
Cd127 O126 2.223 . S
Cd127 O130 2.297 . S
Cd127 O131 2.439 . S
Cd127 O137 2.240 . S
Cd128 O129 2.240 . S
Cd128 O136 2.223 . S
Cd128 O138 2.297 . S
Cd128 O139 2.439 . S
O129 Cd128 2.240 . S
O129 C134 1.279 . S
O130 Cd127 2.297 . S
O130 C132 1.247 . S
O131 Cd127 2.439 . S
O131 C132 1.208 . S
C132 O130 1.247 . S
C132 O131 1.208 . S
C133 O138 1.247 . S
C133 O139 1.208 . S
C134 O126 1.315 . S
C134 O129 1.279 . S
C135 O136 1.315 . S
C135 O137 1.279 . S
O136 Cd128 2.223 . S
O136 C135 1.315 . S
O137 Cd127 2.240 . S
O137 C135 1.279 . S
O138 Cd128 2.297 . S
O138 C133 1.247 . S
O139 Cd128 2.439 . S
O139 C133 1.208 . S
O140 Cd141 2.223 . S
O140 C148 1.315 . S
Cd141 O140 2.223 . S
Cd141 O144 2.297 . S
Cd141 O145 2.439 . S
Cd141 O151 2.240 . S
Cd142 O143 2.240 . S
Cd142 O150 2.223 . S
Cd142 O152 2.297 . S
Cd142 O153 2.439 . S
O143 Cd142 2.240 . S
O143 C148 1.279 . S
O144 Cd141 2.297 . S
O144 C146 1.247 . S
O145 Cd141 2.439 . S
O145 C146 1.208 . S
C146 O144 1.247 . S
C146 O145 1.208 . S
C147 O152 1.247 . S
C147 O153 1.208 . S
C148 O140 1.315 . S
C148 O143 1.279 . S
C149 O150 1.315 . S
C149 O151 1.279 . S
O150 Cd142 2.223 . S
O150 C149 1.315 . S
O151 Cd141 2.240 . S
O151 C149 1.279 . S
O152 Cd142 2.297 . S
O152 C147 1.247 . S
O153 Cd142 2.439 . S
O153 C147 1.208 . S
O154 Cd155 2.223 . S
O154 C162 1.315 . S
Cd155 O154 2.223 . S
Cd155 O158 2.297 . S
Cd155 O159 2.439 . S
Cd155 O165 2.240 . S
Cd156 O157 2.240 . S
Cd156 O164 2.223 . S
Cd156 O166 2.297 . S
Cd156 O167 2.439 . S
O157 Cd156 2.240 . S
O157 C162 1.279 . S
O158 Cd155 2.297 . S
O158 C160 1.247 . S
O159 Cd155 2.439 . S
O159 C160 1.208 . S
C160 O158 1.247 . S
C160 O159 1.208 . S
C161 O166 1.247 . S
C161 O167 1.208 . S
C162 O154 1.315 . S
C162 O157 1.279 . S
C163 O164 1.315 . S
C163 O165 1.279 . S
O164 Cd156 2.223 . S
O164 C163 1.315 . S
O165 Cd155 2.240 . S
O165 C163 1.279 . S
O166 Cd156 2.297 . S
O166 C161 1.247 . S
O167 Cd156 2.439 . S
O167 C161 1.208 . S
O168 Cd169 2.223 . S
O168 C176 1.315 . S
Cd169 O168 2.223 . S
Cd169 O172 2.297 . S
Cd169 O173 2.439 . S
Cd169 O179 2.240 . S
Cd170 O171 2.240 . S
Cd170 O178 2.223 . S
Cd170 O180 2.297 . S
Cd170 O181 2.439 . S
O171 Cd170 2.240 . S
O171 C176 1.279 . S
O172 Cd169 2.297 . S
O172 C174 1.247 . S
O173 Cd169 2.439 . S
O173 C174 1.208 . S
C174 O172 1.247 . S
C174 O173 1.208 . S
C175 O180 1.247 . S
C175 O181 1.208 . S
C176 O168 1.315 . S
C176 O171 1.279 . S
C177 O178 1.315 . S
C177 O179 1.279 . S
O178 Cd170 2.223 . S
O178 C177 1.315 . S
O179 Cd169 2.240 . S
O179 C177 1.279 . S
O180 Cd170 2.297 . S
O180 C175 1.247 . S
O181 Cd170 2.439 . S
O181 C175 1.208 . S
O182 Cd183 2.223 . S
O182 C190 1.315 . S
Cd183 O182 2.223 . S
Cd183 O186 2.297 . S
Cd183 O187 2.439 . S
Cd183 O193 2.240 . S
Cd184 O185 2.240 . S
Cd184 O192 2.223 . S
Cd184 O194 2.297 . S
Cd184 O195 2.439 . S
O185 Cd184 2.240 . S
O185 C190 1.279 . S
O186 Cd183 2.297 . S
O186 C188 1.247 . S
O187 Cd183 2.439 . S
O187 C188 1.208 . S
C188 O186 1.247 . S
C188 O187 1.208 . S
C189 O194 1.247 . S
C189 O195 1.208 . S
C190 O182 1.315 . S
C190 O185 1.279 . S
C191 O192 1.315 . S
C191 O193 1.279 . S
O192 Cd184 2.223 . S
O192 C191 1.315 . S
O193 Cd183 2.240 . S
O193 C191 1.279 . S
O194 Cd184 2.297 . S
O194 C189 1.247 . S
O195 Cd184 2.439 . S
O195 C189 1.208 . S
O196 Cd197 2.223 . S
O196 C204 1.315 . S
Cd197 O196 2.223 . S
Cd197 O200 2.297 . S
Cd197 O201 2.439 . S
Cd197 O207 2.240 . S
Cd198 O199 2.240 . S
Cd198 O206 2.223 . S
Cd198 O208 2.297 . S
Cd198 O209 2.439 . S
O199 Cd198 2.240 . S
O199 C204 1.279 . S
O200 Cd197 2.297 . S
O200 C202 1.247 . S
O201 Cd197 2.439 . S
O201 C202 1.208 . S
C202 O200 1.247 . S
C202 O201 1.208 . S
C203 O208 1.247 . S
C203 O209 1.208 . S
C204 O196 1.315 . S
C204 O199 1.279 . S
C205 O206 1.315 . S
C205 O207 1.279 . S
O206 Cd198 2.223 . S
O206 C205 1.315 . S
O207 Cd197 2.240 . S
O207 C205 1.279 . S
O208 Cd198 2.297 . S
O208 C203 1.247 . S
O209 Cd198 2.439 . S
O209 C203 1.208 . S
O210 Cd211 2.223 . S
O210 C218 1.315 . S
Cd211 O210 2.223 . S
Cd211 O214 2.297 . S
Cd211 O215 2.439 . S
Cd211 O221 2.240 . S
Cd212 O213 2.240 . S
Cd212 O220 2.223 . S
Cd212 O222 2.297 . S
Cd212 O223 2.439 . S
O213 Cd212 2.240 . S
O213 C218 1.279 . S
O214 Cd211 2.297 . S
O214 C216 1.247 . S
O215 Cd211 2.439 . S
O215 C216 1.208 . S
C216 O214 1.247 . S
C216 O215 1.208 . S
C217 O222 1.247 . S
C217 O223 1.208 . S
C218 O210 1.315 . S
C218 O213 1.279 . S
C219 O220 1.315 . S
C219 O221 1.279 . S
O220 Cd212 2.223 . S
O220 C219 1.315 . S
O221 Cd211 2.240 . S
O221 C219 1.279 . S
O222 Cd212 2.297 . S
O222 C217 1.247 . S
O223 Cd212 2.439 . S
O223 C217 1.208 . S
O224 Cd225 2.223 1_545 S
O224 C232 1.315 . S
Cd225 O224 2.223 1_565 S
Cd225 O228 2.297 . S
Cd225 O229 2.439 . S
Cd225 O235 2.240 1_665 S
Cd226 O227 2.240 . S
Cd226 O234 2.223 1_655 S
Cd226 O236 2.297 . S
Cd226 O237 2.439 . S
O227 Cd226 2.240 . S
O227 C232 1.279 . S
O228 Cd225 2.297 . S
O228 C230 1.247 . S
O229 Cd225 2.439 . S
O229 C230 1.208 . S
C230 O228 1.247 . S
C230 O229 1.208 . S
C231 O236 1.247 . S
C231 O237 1.208 . S
C232 O224 1.315 . S
C232 O227 1.279 . S
C233 O234 1.315 . S
C233 O235 1.279 . S
O234 Cd226 2.223 1_455 S
O234 C233 1.315 . S
O235 Cd225 2.240 1_445 S
O235 C233 1.279 . S
O236 Cd226 2.297 . S
O236 C231 1.247 . S
O237 Cd226 2.439 . S
O237 C231 1.208 . S
O238 Cd239 2.223 . S
O238 C246 1.315 . S
Cd239 O238 2.223 . S
Cd239 O242 2.297 . S
Cd239 O243 2.439 . S
Cd239 O249 2.240 . S
Cd240 O241 2.240 . S
Cd240 O248 2.223 . S
Cd240 O250 2.297 . S
Cd240 O251 2.439 . S
O241 Cd240 2.240 . S
O241 C246 1.279 . S
O242 Cd239 2.297 . S
O242 C244 1.247 . S
O243 Cd239 2.439 . S
O243 C244 1.208 . S
C244 O242 1.247 . S
C244 O243 1.208 . S
C245 O250 1.247 . S
C245 O251 1.208 . S
C246 O238 1.315 . S
C246 O241 1.279 . S
C247 O248 1.315 . S
C247 O249 1.279 . S
O248 Cd240 2.223 . S
O248 C247 1.315 . S
O249 Cd239 2.240 . S
O249 C247 1.279 . S
O250 Cd240 2.297 . S
O250 C245 1.247 . S
O251 Cd240 2.439 . S
O251 C245 1.208 . S
O252 Cd253 2.223 . S
O252 C260 1.315 . S
Cd253 O252 2.223 . S
Cd253 O256 2.297 . S
Cd253 O257 2.439 . S
Cd253 O263 2.240 1_655 S
Cd254 O255 2.240 . S
Cd254 O262 2.223 1_655 S
Cd254 O264 2.297 . S
Cd254 O265 2.439 . S
O255 Cd254 2.240 . S
O255 C260 1.279 . S
O256 Cd253 2.297 . S
O256 C258 1.247 . S
O257 Cd253 2.439 . S
O257 C258 1.208 . S
C258 O256 1.247 . S
C258 O257 1.208 . S
C259 O264 1.247 . S
C259 O265 1.208 . S
C260 O252 1.315 . S
C260 O255 1.279 . S
C261 O262 1.315 . S
C261 O263 1.279 . S
O262 Cd254 2.223 1_455 S
O262 C261 1.315 . S
O263 Cd253 2.240 1_455 S
O263 C261 1.279 . S
O264 Cd254 2.297 . S
O264 C259 1.247 . S
O265 Cd254 2.439 . S
O265 C259 1.208 . S
O266 Cd267 2.223 1_545 S
O266 C274 1.315 . S
Cd267 O266 2.223 1_565 S
Cd267 O270 2.297 . S
Cd267 O271 2.439 . S
Cd267 O277 2.240 1_565 S
Cd268 O269 2.240 . S
Cd268 O276 2.223 . S
Cd268 O278 2.297 . S
Cd268 O279 2.439 . S
O269 Cd268 2.240 . S
O269 C274 1.279 . S
O270 Cd267 2.297 . S
O270 C272 1.247 . S
O271 Cd267 2.439 . S
O271 C272 1.208 . S
C272 O270 1.247 . S
C272 O271 1.208 . S
C273 O278 1.247 . S
C273 O279 1.208 . S
C274 O266 1.315 . S
C274 O269 1.279 . S
C275 O276 1.315 . S
C275 O277 1.279 . S
O276 Cd268 2.223 . S
O276 C275 1.315 . S
O277 Cd267 2.240 1_545 S
O277 C275 1.279 . S
O278 Cd268 2.297 . S
O278 C273 1.247 . S
O279 Cd268 2.439 . S
O279 C273 1.208 . S
O280 Cd281 2.223 1_565 S
O280 C288 1.315 . S
Cd281 O280 2.223 1_545 S
Cd281 O284 2.297 . S
Cd281 O285 2.439 . S
Cd281 O291 2.240 1_445 S
Cd282 O283 2.240 . S
Cd282 O290 2.223 1_455 S
Cd282 O292 2.297 . S
Cd282 O293 2.439 . S
O283 Cd282 2.240 . S
O283 C288 1.279 . S
O284 Cd281 2.297 . S
O284 C286 1.247 . S
O285 Cd281 2.439 . S
O285 C286 1.208 . S
C286 O284 1.247 . S
C286 O285 1.208 . S
C287 O292 1.247 . S
C287 O293 1.208 . S
C288 O280 1.315 . S
C288 O283 1.279 . S
C289 O290 1.315 . S
C289 O291 1.279 . S
O290 Cd282 2.223 1_655 S
O290 C289 1.315 . S
O291 Cd281 2.240 1_665 S
O291 C289 1.279 . S
O292 Cd282 2.297 . S
O292 C287 1.247 . S
O293 Cd282 2.439 . S
O293 C287 1.208 . S
O294 Cd295 2.223 . S
O294 C302 1.315 . S
Cd295 O294 2.223 . S
Cd295 O298 2.297 . S
Cd295 O299 2.439 . S
Cd295 O305 2.240 . S
Cd296 O297 2.240 . S
Cd296 O304 2.223 . S
Cd296 O306 2.297 . S
Cd296 O307 2.439 . S
O297 Cd296 2.240 . S
O297 C302 1.279 . S
O298 Cd295 2.297 . S
O298 C300 1.247 . S
O299 Cd295 2.439 . S
O299 C300 1.208 . S
C300 O298 1.247 . S
C300 O299 1.208 . S
C301 O306 1.247 . S
C301 O307 1.208 . S
C302 O294 1.315 . S
C302 O297 1.279 . S
C303 O304 1.315 . S
C303 O305 1.279 . S
O304 Cd296 2.223 . S
O304 C303 1.315 . S
O305 Cd295 2.240 . S
O305 C303 1.279 . S
O306 Cd296 2.297 . S
O306 C301 1.247 . S
O307 Cd296 2.439 . S
O307 C301 1.208 . S
O308 Cd309 2.223 . S
O308 C316 1.315 . S
Cd309 O308 2.223 . S
Cd309 O312 2.297 . S
Cd309 O313 2.439 . S
Cd309 O319 2.240 1_455 S
Cd310 O311 2.240 . S
Cd310 O318 2.223 1_455 S
Cd310 O320 2.297 . S
Cd310 O321 2.439 . S
O311 Cd310 2.240 . S
O311 C316 1.279 . S
O312 Cd309 2.297 . S
O312 C314 1.247 . S
O313 Cd309 2.439 . S
O313 C314 1.208 . S
C314 O312 1.247 . S
C314 O313 1.208 . S
C315 O320 1.247 . S
C315 O321 1.208 . S
C316 O308 1.315 . S
C316 O311 1.279 . S
C317 O318 1.315 . S
C317 O319 1.279 . S
O318 Cd310 2.223 1_655 S
O318 C317 1.315 . S
O319 Cd309 2.240 1_655 S
O319 C317 1.279 . S
O320 Cd310 2.297 . S
O320 C315 1.247 . S
O321 Cd310 2.439 . S
O321 C315 1.208 . S
O322 Cd323 2.223 1_565 S
O322 C330 1.315 . S
Cd323 O322 2.223 1_545 S
Cd323 O326 2.297 . S
Cd323 O327 2.439 . S
Cd323 O333 2.240 1_545 S
Cd324 O325 2.240 . S
Cd324 O332 2.223 . S
Cd324 O334 2.297 . S
Cd324 O335 2.439 . S
O325 Cd324 2.240 . S
O325 C330 1.279 . S
O326 Cd323 2.297 . S
O326 C328 1.247 . S
O327 Cd323 2.439 . S
O327 C328 1.208 . S
C328 O326 1.247 . S
C328 O327 1.208 . S
C329 O334 1.247 . S
C329 O335 1.208 . S
C330 O322 1.315 . S
C330 O325 1.279 . S
C331 O332 1.315 . S
C331 O333 1.279 . S
O332 Cd324 2.223 . S
O332 C331 1.315 . S
O333 Cd323 2.240 1_565 S
O333 C331 1.279 . S
O334 Cd324 2.297 . S
O334 C329 1.247 . S
O335 Cd324 2.439 . S
O335 C329 1.208 . S
O336 Cd337 2.223 . S
O336 C344 1.315 . S
Cd337 O336 2.223 . S
Cd337 O340 2.297 . S
Cd337 O341 2.439 . S
Cd337 O347 2.240 1_655 S
Cd338 O339 2.240 . S
Cd338 O346 2.223 1_655 S
Cd338 O348 2.297 . S
Cd338 O349 2.439 . S
O339 Cd338 2.240 . S
O339 C344 1.279 . S
O340 Cd337 2.297 . S
O340 C342 1.247 . S
O341 Cd337 2.439 . S
O341 C342 1.208 . S
C342 O340 1.247 . S
C342 O341 1.208 . S
C343 O348 1.247 . S
C343 O349 1.208 . S
C344 O336 1.315 . S
C344 O339 1.279 . S
C345 O346 1.315 . S
C345 O347 1.279 . S
O346 Cd338 2.223 1_455 S
O346 C345 1.315 . S
O347 Cd337 2.240 1_455 S
O347 C345 1.279 . S
O348 Cd338 2.297 . S
O348 C343 1.247 . S
O349 Cd338 2.439 . S
O349 C343 1.208 . S
O350 Cd351 2.223 . S
O350 C358 1.315 . S
Cd351 O350 2.223 . S
Cd351 O354 2.297 . S
Cd351 O355 2.439 . S
Cd351 O361 2.240 . S
Cd352 O353 2.240 . S
Cd352 O360 2.223 . S
Cd352 O362 2.297 . S
Cd352 O363 2.439 . S
O353 Cd352 2.240 . S
O353 C358 1.279 . S
O354 Cd351 2.297 . S
O354 C356 1.247 . S
O355 Cd351 2.439 . S
O355 C356 1.208 . S
C356 O354 1.247 . S
C356 O355 1.208 . S
C357 O362 1.247 . S
C357 O363 1.208 . S
C358 O350 1.315 . S
C358 O353 1.279 . S
C359 O360 1.315 . S
C359 O361 1.279 . S
O360 Cd352 2.223 . S
O360 C359 1.315 . S
O361 Cd351 2.240 . S
O361 C359 1.279 . S
O362 Cd352 2.297 . S
O362 C357 1.247 . S
O363 Cd352 2.439 . S
O363 C357 1.208 . S
O364 Cd365 2.223 . S
O364 C372 1.315 . S
Cd365 O364 2.223 . S
Cd365 O368 2.297 . S
Cd365 O369 2.439 . S
Cd365 O375 2.240 1_655 S
Cd366 O367 2.240 . S
Cd366 O374 2.223 1_655 S
Cd366 O376 2.297 . S
Cd366 O377 2.439 . S
O367 Cd366 2.240 . S
O367 C372 1.279 . S
O368 Cd365 2.297 . S
O368 C370 1.247 . S
O369 Cd365 2.439 . S
O369 C370 1.208 . S
C370 O368 1.247 . S
C370 O369 1.208 . S
C371 O376 1.247 . S
C371 O377 1.208 . S
C372 O364 1.315 . S
C372 O367 1.279 . S
C373 O374 1.315 . S
C373 O375 1.279 . S
O374 Cd366 2.223 1_455 S
O374 C373 1.315 . S
O375 Cd365 2.240 1_455 S
O375 C373 1.279 . S
O376 Cd366 2.297 . S
O376 C371 1.247 . S
O377 Cd366 2.439 . S
O377 C371 1.208 . S
O378 Cd379 2.223 . S
O378 C386 1.315 . S
Cd379 O378 2.223 . S
Cd379 O382 2.297 . S
Cd379 O383 2.439 . S
Cd379 O389 2.240 . S
Cd380 O381 2.240 . S
Cd380 O388 2.223 . S
Cd380 O390 2.297 . S
Cd380 O391 2.439 . S
O381 Cd380 2.240 . S
O381 C386 1.279 . S
O382 Cd379 2.297 . S
O382 C384 1.247 . S
O383 Cd379 2.439 . S
O383 C384 1.208 . S
C384 O382 1.247 . S
C384 O383 1.208 . S
C385 O390 1.247 . S
C385 O391 1.208 . S
C386 O378 1.315 . S
C386 O381 1.279 . S
C387 O388 1.315 . S
C387 O389 1.279 . S
O388 Cd380 2.223 . S
O388 C387 1.315 . S
O389 Cd379 2.240 . S
O389 C387 1.279 . S
O390 Cd380 2.297 . S
O390 C385 1.247 . S
O391 Cd380 2.439 . S
O391 C385 1.208 . S
O392 Cd393 2.223 . S
O392 C400 1.315 . S
Cd393 O392 2.223 . S
Cd393 O396 2.297 . S
Cd393 O397 2.439 . S
Cd393 O403 2.240 1_455 S
Cd394 O395 2.240 . S
Cd394 O402 2.223 1_455 S
Cd394 O404 2.297 . S
Cd394 O405 2.439 . S
O395 Cd394 2.240 . S
O395 C400 1.279 . S
O396 Cd393 2.297 . S
O396 C398 1.247 . S
O397 Cd393 2.439 . S
O397 C398 1.208 . S
C398 O396 1.247 . S
C398 O397 1.208 . S
C399 O404 1.247 . S
C399 O405 1.208 . S
C400 O392 1.315 . S
C400 O395 1.279 . S
C401 O402 1.315 . S
C401 O403 1.279 . S
O402 Cd394 2.223 1_655 S
O402 C401 1.315 . S
O403 Cd393 2.240 1_655 S
O403 C401 1.279 . S
O404 Cd394 2.297 . S
O404 C399 1.247 . S
O405 Cd394 2.439 . S
O405 C399 1.208 . S
O406 Cd407 2.223 . S
O406 C414 1.315 . S
Cd407 O406 2.223 . S
Cd407 O410 2.297 . S
Cd407 O411 2.439 . S
Cd407 O417 2.240 . S
Cd408 O409 2.240 . S
Cd408 O416 2.223 . S
Cd408 O418 2.297 . S
Cd408 O419 2.439 . S
O409 Cd408 2.240 . S
O409 C414 1.279 . S
O410 Cd407 2.297 . S
O410 C412 1.247 . S
O411 Cd407 2.439 . S
O411 C412 1.208 . S
C412 O410 1.247 . S
C412 O411 1.208 . S
C413 O418 1.247 . S
C413 O419 1.208 . S
C414 O406 1.315 . S
C414 O409 1.279 . S
C415 O416 1.315 . S
C415 O417 1.279 . S
O416 Cd408 2.223 . S
O416 C415 1.315 . S
O417 Cd407 2.240 . S
O417 C415 1.279 . S
O418 Cd408 2.297 . S
O418 C413 1.247 . S
O419 Cd408 2.439 . S
O419 C413 1.208 . S
O420 Cd421 2.223 . S
O420 C428 1.315 . S
Cd421 O420 2.223 . S
Cd421 O424 2.297 . S
Cd421 O425 2.439 . S
Cd421 O431 2.240 1_455 S
Cd422 O423 2.240 . S
Cd422 O430 2.223 1_455 S
Cd422 O432 2.297 . S
Cd422 O433 2.439 . S
O423 Cd422 2.240 . S
O423 C428 1.279 . S
O424 Cd421 2.297 . S
O424 C426 1.247 . S
O425 Cd421 2.439 . S
O425 C426 1.208 . S
C426 O424 1.247 . S
C426 O425 1.208 . S
C427 O432 1.247 . S
C427 O433 1.208 . S
C428 O420 1.315 . S
C428 O423 1.279 . S
C429 O430 1.315 . S
C429 O431 1.279 . S
O430 Cd422 2.223 1_655 S
O430 C429 1.315 . S
O431 Cd421 2.240 1_655 S
O431 C429 1.279 . S
O432 Cd422 2.297 . S
O432 C427 1.247 . S
O433 Cd422 2.439 . S
O433 C427 1.208 . S
O434 Cd435 2.223 . S
O434 C442 1.315 . S
Cd435 O434 2.223 . S
Cd435 O438 2.297 . S
Cd435 O439 2.439 . S
Cd435 O445 2.240 . S
Cd436 O437 2.240 . S
Cd436 O444 2.223 . S
Cd436 O446 2.297 . S
Cd436 O447 2.439 . S
O437 Cd436 2.240 . S
O437 C442 1.279 . S
O438 Cd435 2.297 . S
O438 C440 1.247 . S
O439 Cd435 2.439 . S
O439 C440 1.208 . S
C440 O438 1.247 . S
C440 O439 1.208 . S
C441 O446 1.247 . S
C441 O447 1.208 . S
C442 O434 1.315 . S
C442 O437 1.279 . S
C443 O444 1.315 . S
C443 O445 1.279 . S
O444 Cd436 2.223 . S
O444 C443 1.315 . S
O445 Cd435 2.240 . S
O445 C443 1.279 . S
O446 Cd436 2.297 . S
O446 C441 1.247 . S
O447 Cd436 2.439 . S
O447 C441 1.208 . S
C448 C449 1.369 . S
C448 C450 1.419 . S
C448 H452 0.930 . S
C449 C448 1.369 . S
C449 C458 1.429 . S
C450 C448 1.419 . S
C450 C451 1.363 . S
C450 H453 0.929 . S
C451 C450 1.363 . S
C451 C457 1.428 . S
H452 C448 0.930 . S
H453 C450 0.929 . S
S454 N455 1.613 . S
S454 N456 1.610 . S
N455 S454 1.613 . S
N455 C458 1.350 . S
N456 S454 1.610 . S
N456 C457 1.351 . S
C457 C451 1.428 . S
C457 N456 1.351 . S
C457 C458 1.434 . S
C458 C449 1.429 . S
C458 N455 1.350 . S
C458 C457 1.434 . S
C459 C460 1.369 . S
C459 C461 1.419 . S
C459 H463 0.930 . S
C460 C459 1.369 . S
C460 C469 1.429 . S
C461 C459 1.419 . S
C461 C462 1.363 . S
C461 H464 0.929 . S
C462 C461 1.363 . S
C462 C468 1.428 . S
H463 C459 0.930 . S
H464 C461 0.929 . S
S465 N466 1.613 . S
S465 N467 1.610 . S
N466 S465 1.613 . S
N466 C469 1.350 . S
N467 S465 1.610 . S
N467 C468 1.351 . S
C468 C462 1.428 . S
C468 N467 1.351 . S
C468 C469 1.434 . S
C469 C460 1.429 . S
C469 N466 1.350 . S
C469 C468 1.434 . S
C470 C471 1.369 . S
C470 C472 1.419 . S
C470 H474 0.930 . S
C471 C470 1.369 . S
C471 C480 1.429 . S
C472 C470 1.419 . S
C472 C473 1.363 . S
C472 H475 0.929 . S
C473 C472 1.363 . S
C473 C479 1.428 . S
H474 C470 0.930 . S
H475 C472 0.929 . S
S476 N477 1.613 . S
S476 N478 1.610 . S
N477 S476 1.613 . S
N477 C480 1.350 . S
N478 S476 1.610 . S
N478 C479 1.351 . S
C479 C473 1.428 . S
C479 N478 1.351 . S
C479 C480 1.434 . S
C480 C471 1.429 . S
C480 N477 1.350 . S
C480 C479 1.434 . S
C481 C482 1.369 . S
C481 C483 1.419 . S
C481 H485 0.930 . S
C482 C481 1.369 . S
C482 C491 1.429 . S
C483 C481 1.419 . S
C483 C484 1.363 . S
C483 H486 0.929 . S
C484 C483 1.363 . S
C484 C490 1.428 . S
H485 C481 0.930 . S
H486 C483 0.929 . S
S487 N488 1.613 . S
S487 N489 1.610 . S
N488 S487 1.613 . S
N488 C491 1.350 . S
N489 S487 1.610 . S
N489 C490 1.351 . S
C490 C484 1.428 . S
C490 N489 1.351 . S
C490 C491 1.434 . S
C491 C482 1.429 . S
C491 N488 1.350 . S
C491 C490 1.434 . S
C492 C493 1.369 . S
C492 C494 1.419 . S
C492 H496 0.930 . S
C493 C492 1.369 . S
C493 C502 1.429 . S
C494 C492 1.419 . S
C494 C495 1.363 . S
C494 H497 0.929 . S
C495 C494 1.363 . S
C495 C501 1.428 . S
H496 C492 0.930 . S
H497 C494 0.929 . S
S498 N499 1.613 . S
S498 N500 1.610 . S
N499 S498 1.613 . S
N499 C502 1.350 . S
N500 S498 1.610 . S
N500 C501 1.351 . S
C501 C495 1.428 . S
C501 N500 1.351 . S
C501 C502 1.434 . S
C502 C493 1.429 . S
C502 N499 1.350 . S
C502 C501 1.434 . S
C503 C504 1.369 . S
C503 C505 1.419 . S
C503 H507 0.930 . S
C504 C503 1.369 . S
C504 C513 1.429 . S
C505 C503 1.419 . S
C505 C506 1.363 . S
C505 H508 0.929 . S
C506 C505 1.363 . S
C506 C512 1.428 . S
H507 C503 0.930 . S
H508 C505 0.929 . S
S509 N510 1.613 . S
S509 N511 1.610 . S
N510 S509 1.613 . S
N510 C513 1.350 . S
N511 S509 1.610 . S
N511 C512 1.351 . S
C512 C506 1.428 . S
C512 N511 1.351 . S
C512 C513 1.434 . S
C513 C504 1.429 . S
C513 N510 1.350 . S
C513 C512 1.434 . S
C514 C515 1.369 . S
C514 C516 1.419 . S
C514 H518 0.930 . S
C515 C514 1.369 . S
C515 C524 1.429 . S
C516 C514 1.419 . S
C516 C517 1.363 . S
C516 H519 0.929 . S
C517 C516 1.363 . S
C517 C523 1.428 . S
H518 C514 0.930 . S
H519 C516 0.929 . S
S520 N521 1.613 . S
S520 N522 1.610 . S
N521 S520 1.613 . S
N521 C524 1.350 . S
N522 S520 1.610 . S
N522 C523 1.351 . S
C523 C517 1.428 . S
C523 N522 1.351 . S
C523 C524 1.434 . S
C524 C515 1.429 . S
C524 N521 1.350 . S
C524 C523 1.434 . S
C525 C526 1.369 . S
C525 C527 1.419 . S
C525 H529 0.930 . S
C526 C525 1.369 . S
C526 C535 1.429 . S
C527 C525 1.419 . S
C527 C528 1.363 . S
C527 H530 0.929 . S
C528 C527 1.363 . S
C528 C534 1.428 . S
H529 C525 0.930 . S
H530 C527 0.929 . S
S531 N532 1.613 . S
S531 N533 1.610 . S
N532 S531 1.613 . S
N532 C535 1.350 . S
N533 S531 1.610 . S
N533 C534 1.351 . S
C534 C528 1.428 . S
C534 N533 1.351 . S
C534 C535 1.434 . S
C535 C526 1.429 . S
C535 N532 1.350 . S
C535 C534 1.434 . S
C536 C537 1.369 . S
C536 C538 1.419 . S
C536 H540 0.930 . S
C537 C536 1.369 . S
C537 C546 1.429 . S
C538 C536 1.419 . S
C538 C539 1.363 . S
C538 H541 0.929 . S
C539 C538 1.363 . S
C539 C545 1.428 . S
H540 C536 0.930 . S
H541 C538 0.929 . S
S542 N543 1.613 . S
S542 N544 1.610 . S
N543 S542 1.613 . S
N543 C546 1.350 . S
N544 S542 1.610 . S
N544 C545 1.351 . S
C545 C539 1.428 . S
C545 N544 1.351 . S
C545 C546 1.434 . S
C546 C537 1.429 . S
C546 N543 1.350 . S
C546 C545 1.434 . S
C547 C548 1.369 . S
C547 C549 1.419 . S
C547 H551 0.930 . S
C548 C547 1.369 . S
C548 C557 1.429 . S
C549 C547 1.419 . S
C549 C550 1.363 . S
C549 H552 0.929 . S
C550 C549 1.363 . S
C550 C556 1.428 . S
H551 C547 0.930 . S
H552 C549 0.929 . S
S553 N554 1.613 . S
S553 N555 1.610 . S
N554 S553 1.613 . S
N554 C557 1.350 . S
N555 S553 1.610 . S
N555 C556 1.351 . S
C556 C550 1.428 . S
C556 N555 1.351 . S
C556 C557 1.434 . S
C557 C548 1.429 . S
C557 N554 1.350 . S
C557 C556 1.434 . S
C558 C559 1.369 . S
C558 C560 1.419 . S
C558 H562 0.930 . S
C559 C558 1.369 . S
C559 C568 1.429 . S
C560 C558 1.419 . S
C560 C561 1.363 . S
C560 H563 0.929 . S
C561 C560 1.363 . S
C561 C567 1.428 . S
H562 C558 0.930 . S
H563 C560 0.929 . S
S564 N565 1.612 . S
S564 N566 1.612 . S
N565 S564 1.612 . S
N565 C568 1.351 1_655 S
N566 S564 1.612 . S
N566 C567 1.348 1_655 S
C567 C561 1.428 . S
C567 N566 1.348 1_455 S
C567 C568 1.434 . S
C568 C559 1.429 . S
C568 N565 1.351 1_455 S
C568 C567 1.434 . S
C569 C570 1.369 . S
C569 C571 1.419 . S
C569 H573 0.930 . S
C570 C569 1.369 . S
C570 C579 1.429 . S
C571 C569 1.419 . S
C571 C572 1.363 . S
C571 H574 0.929 . S
C572 C571 1.363 . S
C572 C578 1.428 . S
H573 C569 0.930 . S
H574 C571 0.929 . S
S575 N576 1.613 . S
S575 N577 1.610 . S
N576 S575 1.613 . S
N576 C579 1.350 . S
N577 S575 1.610 . S
N577 C578 1.351 . S
C578 C572 1.428 . S
C578 N577 1.351 . S
C578 C579 1.434 . S
C579 C570 1.429 . S
C579 N576 1.350 . S
C579 C578 1.434 . S
C580 C581 1.369 . S
C580 C582 1.419 . S
C580 H584 0.930 . S
C581 C580 1.369 . S
C581 C590 1.429 . S
C582 C580 1.419 . S
C582 C583 1.363 . S
C582 H585 0.929 . S
C583 C582 1.363 . S
C583 C589 1.428 . S
H584 C580 0.930 . S
H585 C582 0.929 . S
S586 N587 1.613 . S
S586 N588 1.610 . S
N587 S586 1.613 . S
N587 C590 1.350 . S
N588 S586 1.610 . S
N588 C589 1.351 . S
C589 C583 1.428 . S
C589 N588 1.351 . S
C589 C590 1.434 . S
C590 C581 1.429 . S
C590 N587 1.350 . S
C590 C589 1.434 . S
C591 C592 1.369 . S
C591 C593 1.419 . S
C591 H595 0.930 . S
C592 C591 1.369 . S
C592 C601 1.429 . S
C593 C591 1.419 . S
C593 C594 1.363 . S
C593 H596 0.929 . S
C594 C593 1.363 . S
C594 C600 1.428 . S
H595 C591 0.930 . S
H596 C593 0.929 . S
S597 N598 1.613 . S
S597 N599 1.610 . S
N598 S597 1.613 . S
N598 C601 1.350 . S
N599 S597 1.610 . S
N599 C600 1.351 . S
C600 C594 1.428 . S
C600 N599 1.351 . S
C600 C601 1.434 . S
C601 C592 1.429 . S
C601 N598 1.350 . S
C601 C600 1.434 . S
C602 C603 1.369 . S
C602 C604 1.419 . S
C602 H606 0.930 . S
C603 C602 1.369 . S
C603 C612 1.429 . S
C604 C602 1.419 . S
C604 C605 1.363 . S
C604 H607 0.929 . S
C605 C604 1.363 . S
C605 C611 1.428 . S
H606 C602 0.930 . S
H607 C604 0.929 . S
S608 N609 1.613 . S
S608 N610 1.610 . S
N609 S608 1.613 . S
N609 C612 1.350 . S
N610 S608 1.610 . S
N610 C611 1.351 . S
C611 C605 1.428 . S
C611 N610 1.351 . S
C611 C612 1.434 . S
C612 C603 1.429 . S
C612 N609 1.350 . S
C612 C611 1.434 . S
C613 C614 1.369 . S
C613 C615 1.419 . S
C613 H617 0.930 . S
C614 C613 1.369 . S
C614 C623 1.429 . S
C615 C613 1.419 . S
C615 C616 1.363 . S
C615 H618 0.929 . S
C616 C615 1.363 . S
C616 C622 1.428 . S
H617 C613 0.930 . S
H618 C615 0.929 . S
S619 N620 1.613 . S
S619 N621 1.610 . S
N620 S619 1.613 . S
N620 C623 1.350 . S
N621 S619 1.610 . S
N621 C622 1.351 . S
C622 C616 1.428 . S
C622 N621 1.351 . S
C622 C623 1.434 . S
C623 C614 1.429 . S
C623 N620 1.350 . S
C623 C622 1.434 . S
C624 C625 1.369 . S
C624 C626 1.419 . S
C624 H628 0.930 . S
C625 C624 1.369 . S
C625 C634 1.429 . S
C626 C624 1.419 . S
C626 C627 1.363 . S
C626 H629 0.929 . S
C627 C626 1.363 . S
C627 C633 1.428 . S
H628 C624 0.930 . S
H629 C626 0.929 . S
S630 N631 1.613 . S
S630 N632 1.610 . S
N631 S630 1.613 . S
N631 C634 1.350 . S
N632 S630 1.610 . S
N632 C633 1.351 . S
C633 C627 1.428 . S
C633 N632 1.351 . S
C633 C634 1.434 . S
C634 C625 1.429 . S
C634 N631 1.350 . S
C634 C633 1.434 . S
C635 C636 1.369 . S
C635 C637 1.419 . S
C635 H639 0.930 . S
C636 C635 1.369 . S
C636 C645 1.429 . S
C637 C635 1.419 . S
C637 C638 1.363 . S
C637 H640 0.929 . S
C638 C637 1.363 . S
C638 C644 1.428 . S
H639 C635 0.930 . S
H640 C637 0.929 . S
S641 N642 1.613 . S
S641 N643 1.610 . S
N642 S641 1.613 . S
N642 C645 1.350 . S
N643 S641 1.610 . S
N643 C644 1.351 . S
C644 C638 1.428 . S
C644 N643 1.351 . S
C644 C645 1.434 . S
C645 C636 1.429 . S
C645 N642 1.350 . S
C645 C644 1.434 . S
C646 C647 1.369 . S
C646 C648 1.419 . S
C646 H650 0.930 . S
C647 C646 1.369 . S
C647 C656 1.429 . S
C648 C646 1.419 . S
C648 C649 1.363 . S
C648 H651 0.929 . S
C649 C648 1.363 . S
C649 C655 1.428 . S
H650 C646 0.930 . S
H651 C648 0.929 . S
S652 N653 1.613 . S
S652 N654 1.610 . S
N653 S652 1.613 . S
N653 C656 1.350 . S
N654 S652 1.610 . S
N654 C655 1.351 . S
C655 C649 1.428 . S
C655 N654 1.351 . S
C655 C656 1.434 . S
C656 C647 1.429 . S
C656 N653 1.350 . S
C656 C655 1.434 . S
C657 C658 1.369 . S
C657 C659 1.419 . S
C657 H661 0.930 . S
C658 C657 1.369 . S
C658 C667 1.429 . S
C659 C657 1.419 . S
C659 C660 1.363 . S
C659 H662 0.929 . S
C660 C659 1.363 . S
C660 C666 1.428 . S
H661 C657 0.930 . S
H662 C659 0.929 . S
S663 N664 1.613 . S
S663 N665 1.610 . S
N664 S663 1.613 . S
N664 C667 1.350 . S
N665 S663 1.610 . S
N665 C666 1.351 . S
C666 C660 1.428 . S
C666 N665 1.351 . S
C666 C667 1.434 . S
C667 C658 1.429 . S
C667 N664 1.350 . S
C667 C666 1.434 . S
C668 C669 1.369 . S
C668 C670 1.419 . S
C668 H672 0.930 . S
C669 C668 1.369 . S
C669 C678 1.429 . S
C670 C668 1.419 . S
C670 C671 1.363 . S
C670 H673 0.929 . S
C671 C670 1.363 . S
C671 C677 1.428 . S
H672 C668 0.930 . S
H673 C670 0.929 . S
S674 N675 1.613 . S
S674 N676 1.610 . S
N675 S674 1.613 . S
N675 C678 1.350 . S
N676 S674 1.610 . S
N676 C677 1.351 . S
C677 C671 1.428 . S
C677 N676 1.351 . S
C677 C678 1.434 . S
C678 C669 1.429 . S
C678 N675 1.350 . S
C678 C677 1.434 . S
C679 C680 1.369 . S
C679 C681 1.419 . S
C679 H683 0.930 . S
C680 C679 1.369 . S
C680 C689 1.429 . S
C681 C679 1.419 . S
C681 C682 1.363 . S
C681 H684 0.929 . S
C682 C681 1.363 . S
C682 C688 1.428 . S
H683 C679 0.930 . S
H684 C681 0.929 . S
S685 N686 1.613 . S
S685 N687 1.610 . S
N686 S685 1.613 . S
N686 C689 1.350 . S
N687 S685 1.610 . S
N687 C688 1.351 . S
C688 C682 1.428 . S
C688 N687 1.351 . S
C688 C689 1.434 . S
C689 C680 1.429 . S
C689 N686 1.350 . S
C689 C688 1.434 . S
C690 C691 1.369 . S
C690 C692 1.419 . S
C690 H694 0.930 . S
C691 C690 1.369 . S
C691 C700 1.429 . S
C692 C690 1.419 . S
C692 C693 1.363 . S
C692 H695 0.929 . S
C693 C692 1.363 . S
C693 C699 1.428 . S
H694 C690 0.930 . S
H695 C692 0.929 . S
S696 N697 1.613 . S
S696 N698 1.610 . S
N697 S696 1.613 . S
N697 C700 1.350 . S
N698 S696 1.610 . S
N698 C699 1.351 . S
C699 C693 1.428 . S
C699 N698 1.351 . S
C699 C700 1.434 . S
C700 C691 1.429 . S
C700 N697 1.350 . S
C700 C699 1.434 . S
C701 C702 1.369 . S
C701 C703 1.419 . S
C701 H705 0.930 . S
C702 C701 1.369 . S
C702 C711 1.429 . S
C703 C701 1.419 . S
C703 C704 1.363 . S
C703 H706 0.929 . S
C704 C703 1.363 . S
C704 C710 1.428 . S
H705 C701 0.930 . S
H706 C703 0.929 . S
S707 N708 1.613 . S
S707 N709 1.610 . S
N708 S707 1.613 . S
N708 C711 1.350 . S
N709 S707 1.610 . S
N709 C710 1.351 . S
C710 C704 1.428 . S
C710 N709 1.351 . S
C710 C711 1.434 . S
C711 C702 1.429 . S
C711 N708 1.350 . S
C711 C710 1.434 . S
C712 C713 1.369 . S
C712 C714 1.419 . S
C712 H716 0.930 . S
C713 C712 1.369 . S
C713 C722 1.429 . S
C714 C712 1.419 . S
C714 C715 1.363 . S
C714 H717 0.929 . S
C715 C714 1.363 . S
C715 C721 1.428 . S
H716 C712 0.930 . S
H717 C714 0.929 . S
S718 N719 1.613 . S
S718 N720 1.610 . S
N719 S718 1.613 . S
N719 C722 1.350 . S
N720 S718 1.610 . S
N720 C721 1.351 . S
C721 C715 1.428 . S
C721 N720 1.351 . S
C721 C722 1.434 . S
C722 C713 1.429 . S
C722 N719 1.350 . S
C722 C721 1.434 . S
C723 C724 1.369 . S
C723 C725 1.419 . S
C723 H727 0.930 . S
C724 C723 1.369 . S
C724 C733 1.429 . S
C725 C723 1.419 . S
C725 C726 1.363 . S
C725 H728 0.929 . S
C726 C725 1.363 . S
C726 C732 1.428 . S
H727 C723 0.930 . S
H728 C725 0.929 . S
S729 N730 1.613 . S
S729 N731 1.610 . S
N730 S729 1.613 . S
N730 C733 1.350 . S
N731 S729 1.610 . S
N731 C732 1.351 . S
C732 C726 1.428 . S
C732 N731 1.351 . S
C732 C733 1.434 . S
C733 C724 1.429 . S
C733 N730 1.350 . S
C733 C732 1.434 . S
C734 C735 1.369 . S
C734 C736 1.419 . S
C734 H738 0.930 . S
C735 C734 1.369 . S
C735 C744 1.429 . S
C736 C734 1.419 . S
C736 C737 1.363 . S
C736 H739 0.929 . S
C737 C736 1.363 . S
C737 C743 1.428 . S
H738 C734 0.930 . S
H739 C736 0.929 . S
S740 N741 1.613 . S
S740 N742 1.610 . S
N741 S740 1.613 . S
N741 C744 1.350 . S
N742 S740 1.610 . S
N742 C743 1.351 . S
C743 C737 1.428 . S
C743 N742 1.351 . S
C743 C744 1.434 . S
C744 C735 1.429 . S
C744 N741 1.350 . S
C744 C743 1.434 . S
C745 C746 1.369 . S
C745 C747 1.419 . S
C745 H749 0.930 . S
C746 C745 1.369 . S
C746 C755 1.429 . S
C747 C745 1.419 . S
C747 C748 1.363 . S
C747 H750 0.929 . S
C748 C747 1.363 . S
C748 C754 1.428 . S
H749 C745 0.930 . S
H750 C747 0.929 . S
S751 N752 1.613 . S
S751 N753 1.610 . S
N752 S751 1.613 . S
N752 C755 1.350 . S
N753 S751 1.610 . S
N753 C754 1.351 . S
C754 C748 1.428 . S
C754 N753 1.351 . S
C754 C755 1.434 . S
C755 C746 1.429 . S
C755 N752 1.350 . S
C755 C754 1.434 . S
C756 C757 1.369 . S
C756 C758 1.419 . S
C756 H760 0.930 . S
C757 C756 1.369 . S
C757 C766 1.429 . S
C758 C756 1.419 . S
C758 C759 1.363 . S
C758 H761 0.929 . S
C759 C758 1.363 . S
C759 C765 1.428 . S
H760 C756 0.930 . S
H761 C758 0.929 . S
S762 N763 1.613 . S
S762 N764 1.610 . S
N763 S762 1.613 . S
N763 C766 1.350 . S
N764 S762 1.610 . S
N764 C765 1.351 . S
C765 C759 1.428 . S
C765 N764 1.351 . S
C765 C766 1.434 . S
C766 C757 1.429 . S
C766 N763 1.350 . S
C766 C765 1.434 . S
C767 C768 1.369 . S
C767 C769 1.419 . S
C767 H771 0.930 . S
C768 C767 1.369 . S
C768 C777 1.429 . S
C769 C767 1.419 . S
C769 C770 1.363 . S
C769 H772 0.929 . S
C770 C769 1.363 . S
C770 C776 1.428 . S
H771 C767 0.930 . S
H772 C769 0.929 . S
S773 N774 1.613 . S
S773 N775 1.610 . S
N774 S773 1.613 . S
N774 C777 1.350 . S
N775 S773 1.610 . S
N775 C776 1.351 . S
C776 C770 1.428 . S
C776 N775 1.351 . S
C776 C777 1.434 . S
C777 C768 1.429 . S
C777 N774 1.350 . S
C777 C776 1.434 . S
C778 C779 1.369 . S
C778 C780 1.419 . S
C778 H782 0.930 . S
C779 C778 1.369 . S
C779 C788 1.429 . S
C780 C778 1.419 . S
C780 C781 1.363 . S
C780 H783 0.929 . S
C781 C780 1.363 . S
C781 C787 1.428 . S
H782 C778 0.930 . S
H783 C780 0.929 . S
S784 N785 1.613 . S
S784 N786 1.610 . S
N785 S784 1.613 . S
N785 C788 1.350 . S
N786 S784 1.610 . S
N786 C787 1.351 . S
C787 C781 1.428 . S
C787 N786 1.351 . S
C787 C788 1.434 . S
C788 C779 1.429 . S
C788 N785 1.350 . S
C788 C787 1.434 . S
C789 C790 1.369 . S
C789 C791 1.419 . S
C789 H793 0.930 . S
C790 C789 1.369 . S
C790 C799 1.429 . S
C791 C789 1.419 . S
C791 C792 1.363 . S
C791 H794 0.929 . S
C792 C791 1.363 . S
C792 C798 1.428 . S
H793 C789 0.930 . S
H794 C791 0.929 . S
S795 N796 1.613 . S
S795 N797 1.610 . S
N796 S795 1.613 . S
N796 C799 1.350 . S
N797 S795 1.610 . S
N797 C798 1.351 . S
C798 C792 1.428 . S
C798 N797 1.351 . S
C798 C799 1.434 . S
C799 C790 1.429 . S
C799 N796 1.350 . S
C799 C798 1.434 . S
C800 C801 1.369 . S
C800 C802 1.414 1_544 S
C800 H804 0.930 . S
C801 C800 1.369 . S
C801 C810 1.429 1_545 S
C802 C800 1.414 1_566 S
C802 C803 1.367 . S
C802 H805 0.929 1_565 S
C803 C802 1.367 . S
C803 C809 1.428 . S
H804 C800 0.930 . S
H805 C802 0.929 1_545 S
S806 N807 1.613 1_556 S
S806 N808 1.610 . S
N807 S806 1.613 1_554 S
N807 C810 1.350 . S
N808 S806 1.610 . S
N808 C809 1.351 . S
C809 C803 1.428 . S
C809 N808 1.351 . S
C809 C810 1.434 1_556 S
C810 C801 1.429 1_565 S
C810 N807 1.350 . S
C810 C809 1.434 1_554 S
C811 C812 1.369 . S
C811 C813 1.415 1_554 S
C811 H815 0.930 . S
C812 C811 1.369 . S
C812 C821 1.429 . S
C813 C811 1.415 1_556 S
C813 C814 1.367 . S
C813 H816 0.929 1_556 S
C814 C813 1.367 . S
C814 C820 1.428 . S
H815 C811 0.930 . S
H816 C813 0.929 1_554 S
S817 N818 1.644 . S
S817 N819 1.610 . S
N818 S817 1.644 . S
N818 C821 1.348 1_556 S
N819 S817 1.610 . S
N819 C820 1.351 . S
C820 C814 1.428 . S
C820 N819 1.351 . S
C820 C821 1.434 1_556 S
C821 C812 1.429 . S
C821 N818 1.348 1_554 S
C821 C820 1.434 1_554 S
C822 C823 1.369 . S
C822 C824 1.419 . S
C822 H826 0.930 . S
C823 C822 1.369 . S
C823 C832 1.429 . S
C824 C822 1.419 . S
C824 C825 1.363 . S
C824 H827 0.929 . S
C825 C824 1.363 . S
C825 C831 1.428 . S
H826 C822 0.930 . S
H827 C824 0.929 . S
S828 N829 1.613 . S
S828 N830 1.610 . S
N829 S828 1.613 . S
N829 C832 1.350 . S
N830 S828 1.610 . S
N830 C831 1.351 . S
C831 C825 1.428 . S
C831 N830 1.351 . S
C831 C832 1.434 . S
C832 C823 1.429 . S
C832 N829 1.350 . S
C832 C831 1.434 . S
C833 C834 1.369 . S
C833 C835 1.419 1_545 S
C833 H837 0.930 . S
C834 C833 1.369 . S
C834 C843 1.429 . S
C835 C833 1.419 1_565 S
C835 C836 1.363 . S
C835 H838 0.929 . S
C836 C835 1.363 . S
C836 C842 1.428 . S
H837 C833 0.930 . S
H838 C835 0.929 . S
S839 N840 1.613 1_565 S
S839 N841 1.610 . S
N840 S839 1.613 1_545 S
N840 C843 1.350 . S
N841 S839 1.610 . S
N841 C842 1.351 . S
C842 C836 1.428 . S
C842 N841 1.351 . S
C842 C843 1.434 1_565 S
C843 C834 1.429 . S
C843 N840 1.350 . S
C843 C842 1.434 1_545 S
C844 C845 1.369 . S
C844 C846 1.419 . S
C844 H848 0.930 . S
C845 C844 1.369 . S
C845 C854 1.429 1_556 S
C846 C844 1.419 . S
C846 C847 1.363 1_556 S
C846 H849 0.929 . S
C847 C846 1.363 1_554 S
C847 C853 1.428 . S
H848 C844 0.930 . S
H849 C846 0.929 . S
S850 N851 1.613 . S
S850 N852 1.610 . S
N851 S850 1.613 . S
N851 C854 1.350 . S
N852 S850 1.610 . S
N852 C853 1.351 . S
C853 C847 1.428 . S
C853 N852 1.351 . S
C853 C854 1.434 . S
C854 C845 1.429 1_554 S
C854 N851 1.350 . S
C854 C853 1.434 . S
C855 C856 1.369 . S
C855 C857 1.419 . S
C855 H859 0.930 . S
C856 C855 1.369 . S
C856 C865 1.429 . S
C857 C855 1.419 . S
C857 C858 1.363 . S
C857 H860 0.929 . S
C858 C857 1.363 . S
C858 C864 1.428 . S
H859 C855 0.930 . S
H860 C857 0.929 . S
S861 N862 1.613 . S
S861 N863 1.610 . S
N862 S861 1.613 . S
N862 C865 1.350 . S
N863 S861 1.610 . S
N863 C864 1.351 . S
C864 C858 1.428 . S
C864 N863 1.351 . S
C864 C865 1.434 . S
C865 C856 1.429 . S
C865 N862 1.350 . S
C865 C864 1.434 . S
C866 C867 1.369 1_565 S
C866 C868 1.419 . S
C866 H870 0.930 . S
C867 C866 1.369 1_545 S
C867 C876 1.429 . S
C868 C866 1.419 . S
C868 C869 1.363 . S
C868 H871 0.929 . S
C869 C868 1.363 . S
C869 C875 1.428 1_565 S
H870 C866 0.930 . S
H871 C868 0.929 . S
S872 N873 1.613 . S
S872 N874 1.610 . S
N873 S872 1.613 . S
N873 C876 1.350 . S
N874 S872 1.610 . S
N874 C875 1.351 . S
C875 C869 1.428 1_545 S
C875 N874 1.351 . S
C875 C876 1.434 . S
C876 C867 1.429 . S
C876 N873 1.350 . S
C876 C875 1.434 . S
C877 C878 1.369 . S
C877 C879 1.419 . S
C877 H881 0.930 . S
C878 C877 1.369 . S
C878 C887 1.429 . S
C879 C877 1.419 . S
C879 C880 1.363 . S
C879 H882 0.929 . S
C880 C879 1.363 . S
C880 C886 1.428 . S
H881 C877 0.930 . S
H882 C879 0.929 . S
S883 N884 1.613 . S
S883 N885 1.610 . S
N884 S883 1.613 . S
N884 C887 1.350 . S
N885 S883 1.610 . S
N885 C886 1.351 . S
C886 C880 1.428 . S
C886 N885 1.351 . S
C886 C887 1.434 . S
C887 C878 1.429 . S
C887 N884 1.350 . S
C887 C886 1.434 . S
C888 C889 1.369 . S
C888 C890 1.419 . S
C888 H892 0.930 . S
C889 C888 1.369 . S
C889 C898 1.429 . S
C890 C888 1.419 . S
C890 C891 1.363 . S
C890 H893 0.929 . S
C891 C890 1.363 . S
C891 C897 1.428 . S
H892 C888 0.930 . S
H893 C890 0.929 . S
S894 N895 1.613 . S
S894 N896 1.610 . S
N895 S894 1.613 . S
N895 C898 1.350 . S
N896 S894 1.610 . S
N896 C897 1.351 . S
C897 C891 1.428 . S
C897 N896 1.351 . S
C897 C898 1.434 . S
C898 C889 1.429 . S
C898 N895 1.350 . S
C898 C897 1.434 . S
C899 C900 1.369 . S
C899 C901 1.419 . S
C899 H903 0.930 . S
C900 C899 1.369 . S
C900 C909 1.429 . S
C901 C899 1.419 . S
C901 C902 1.363 . S
C901 H904 0.929 . S
C902 C901 1.363 . S
C902 C908 1.428 . S
H903 C899 0.930 . S
H904 C901 0.929 . S
S905 N906 1.613 . S
S905 N907 1.610 . S
N906 S905 1.613 . S
N906 C909 1.350 . S
N907 S905 1.610 . S
N907 C908 1.351 . S
C908 C902 1.428 . S
C908 N907 1.351 . S
C908 C909 1.434 . S
C909 C900 1.429 . S
C909 N906 1.350 . S
C909 C908 1.434 . S
C910 C911 1.369 . S
C910 C912 1.419 . S
C910 H914 0.930 . S
C911 C910 1.369 . S
C911 C920 1.429 . S
C912 C910 1.419 . S
C912 C913 1.363 . S
C912 H915 0.929 . S
C913 C912 1.363 . S
C913 C919 1.428 . S
H914 C910 0.930 . S
H915 C912 0.929 . S
S916 N917 1.613 . S
S916 N918 1.610 . S
N917 S916 1.613 . S
N917 C920 1.350 . S
N918 S916 1.610 . S
N918 C919 1.351 . S
C919 C913 1.428 . S
C919 N918 1.351 . S
C919 C920 1.434 . S
C920 C911 1.429 . S
C920 N917 1.350 . S
C920 C919 1.434 . S
C921 C922 1.369 . S
C921 C923 1.419 . S
C921 H925 0.930 . S
C922 C921 1.369 . S
C922 C931 1.429 . S
C923 C921 1.419 . S
C923 C924 1.363 . S
C923 H926 0.929 . S
C924 C923 1.363 . S
C924 C930 1.428 . S
H925 C921 0.930 . S
H926 C923 0.929 . S
S927 N928 1.613 . S
S927 N929 1.610 . S
N928 S927 1.613 . S
N928 C931 1.350 . S
N929 S927 1.610 . S
N929 C930 1.351 . S
C930 C924 1.428 . S
C930 N929 1.351 . S
C930 C931 1.434 . S
C931 C922 1.429 . S
C931 N928 1.350 . S
C931 C930 1.434 . S
C932 C933 1.369 1_545 S
C932 C934 1.419 1_455 S
C932 H936 0.930 . S
C933 C932 1.369 1_565 S
C933 C942 1.429 . S
C934 C932 1.419 1_655 S
C934 C935 1.363 . S
C934 H937 0.929 . S
C935 C934 1.363 . S
C935 C941 1.428 1_545 S
H936 C932 0.930 . S
H937 C934 0.929 . S
S938 N939 1.613 1_655 S
S938 N940 1.610 . S
N939 S938 1.613 1_455 S
N939 C942 1.350 . S
N940 S938 1.610 . S
N940 C941 1.351 . S
C941 C935 1.428 1_565 S
C941 N940 1.351 . S
C941 C942 1.434 1_655 S
C942 C933 1.429 . S
C942 N939 1.350 . S
C942 C941 1.434 1_455 S
C943 C944 1.369 1_455 S
C943 C945 1.419 . S
C943 H947 0.930 . S
C944 C943 1.369 1_655 S
C944 C953 1.429 . S
C945 C943 1.419 . S
C945 C946 1.363 . S
C945 H948 0.929 . S
C946 C945 1.363 . S
C946 C952 1.428 1_455 S
H947 C943 0.930 . S
H948 C945 0.929 . S
S949 N950 1.613 . S
S949 N951 1.610 . S
N950 S949 1.613 . S
N950 C953 1.350 . S
N951 S949 1.610 . S
N951 C952 1.351 . S
C952 C946 1.428 1_655 S
C952 N951 1.351 . S
C952 C953 1.434 . S
C953 C944 1.429 . S
C953 N950 1.350 . S
C953 C952 1.434 . S
C954 C955 1.369 1_455 S
C954 C956 1.419 . S
C954 H958 0.930 . S
C955 C954 1.369 1_655 S
C955 C964 1.429 . S
C956 C954 1.419 . S
C956 C957 1.363 . S
C956 H959 0.929 . S
C957 C956 1.363 . S
C957 C963 1.428 1_455 S
H958 C954 0.930 . S
H959 C956 0.929 . S
S960 N961 1.613 . S
S960 N962 1.610 . S
N961 S960 1.613 . S
N961 C964 1.350 . S
N962 S960 1.610 . S
N962 C963 1.351 . S
C963 C957 1.428 1_655 S
C963 N962 1.351 . S
C963 C964 1.434 . S
C964 C955 1.429 . S
C964 N961 1.350 . S
C964 C963 1.434 . S
C965 C966 1.369 1_554 S
C965 C967 1.419 . S
C965 H969 0.930 . S
C966 C965 1.369 1_556 S
C966 C975 1.429 1_455 S
C967 C965 1.419 . S
C967 C968 1.363 1_455 S
C967 H970 0.929 . S
C968 C967 1.363 1_655 S
C968 C974 1.428 1_554 S
H969 C965 0.930 . S
H970 C967 0.929 . S
S971 N972 1.613 . S
S971 N973 1.610 . S
N972 S971 1.613 . S
N972 C975 1.350 . S
N973 S971 1.610 . S
N973 C974 1.351 . S
C974 C968 1.428 1_556 S
C974 N973 1.351 . S
C974 C975 1.434 . S
C975 C966 1.429 1_655 S
C975 N972 1.350 . S
C975 C974 1.434 . S
C976 C977 1.369 . S
C976 C978 1.419 . S
C976 H980 0.930 . S
C977 C976 1.369 . S
C977 C986 1.429 . S
C978 C976 1.419 . S
C978 C979 1.363 . S
C978 H981 0.929 . S
C979 C978 1.363 . S
C979 C985 1.428 . S
H980 C976 0.930 . S
H981 C978 0.929 . S
S982 N983 1.613 . S
S982 N984 1.610 . S
N983 S982 1.613 . S
N983 C986 1.350 . S
N984 S982 1.610 . S
N984 C985 1.351 . S
C985 C979 1.428 . S
C985 N984 1.351 . S
C985 C986 1.434 . S
C986 C977 1.429 . S
C986 N983 1.350 . S
C986 C985 1.434 . S
C987 C988 1.369 . S
C987 C989 1.419 . S
C987 H991 0.930 . S
C988 C987 1.369 . S
C988 C997 1.429 . S
C989 C987 1.419 . S
C989 C990 1.363 . S
C989 H992 0.929 . S
C990 C989 1.363 . S
C990 C996 1.428 . S
H991 C987 0.930 . S
H992 C989 0.929 . S
S993 N994 1.613 . S
S993 N995 1.610 . S
N994 S993 1.613 . S
N994 C997 1.350 . S
N995 S993 1.610 . S
N995 C996 1.351 . S
C996 C990 1.428 . S
C996 N995 1.351 . S
C996 C997 1.434 . S
C997 C988 1.429 . S
C997 N994 1.350 . S
C997 C996 1.434 . S
C998 C999 1.369 . S
C998 C1000 1.419 . S
C998 H1002 0.930 . S
C999 C998 1.369 . S
C999 C1008 1.429 . S
C1000 C998 1.419 . S
C1000 C1001 1.363 . S
C1000 H1003 0.929 . S
C1001 C1000 1.363 . S
C1001 C1007 1.428 . S
H1002 C998 0.930 . S
H1003 C1000 0.929 . S
S1004 N1005 1.613 . S
S1004 N1006 1.610 . S
N1005 S1004 1.613 . S
N1005 C1008 1.350 . S
N1006 S1004 1.610 . S
N1006 C1007 1.351 . S
C1007 C1001 1.428 . S
C1007 N1006 1.351 . S
C1007 C1008 1.434 . S
C1008 C999 1.429 . S
C1008 N1005 1.350 . S
C1008 C1007 1.434 . S
C1009 C1010 1.369 . S
C1009 C1011 1.419 . S
C1009 H1013 0.930 . S
C1010 C1009 1.369 . S
C1010 C1019 1.429 . S
C1011 C1009 1.419 . S
C1011 C1012 1.363 . S
C1011 H1014 0.929 . S
C1012 C1011 1.363 . S
C1012 C1018 1.428 . S
H1013 C1009 0.930 . S
H1014 C1011 0.929 . S
S1015 N1016 1.613 . S
S1015 N1017 1.610 . S
N1016 S1015 1.613 . S
N1016 C1019 1.350 . S
N1017 S1015 1.610 . S
N1017 C1018 1.351 . S
C1018 C1012 1.428 . S
C1018 N1017 1.351 . S
C1018 C1019 1.434 . S
C1019 C1010 1.429 . S
C1019 N1016 1.350 . S
C1019 C1018 1.434 . S
C1020 C1021 1.369 . S
C1020 C1022 1.419 . S
C1020 H1024 0.930 . S
C1021 C1020 1.369 . S
C1021 C1030 1.429 . S
C1022 C1020 1.419 . S
C1022 C1023 1.363 . S
C1022 H1025 0.929 . S
C1023 C1022 1.363 . S
C1023 C1029 1.428 . S
H1024 C1020 0.930 . S
H1025 C1022 0.929 . S
S1026 N1027 1.613 . S
S1026 N1028 1.610 . S
N1027 S1026 1.613 . S
N1027 C1030 1.350 . S
N1028 S1026 1.610 . S
N1028 C1029 1.351 . S
C1029 C1023 1.428 . S
C1029 N1028 1.351 . S
C1029 C1030 1.434 . S
C1030 C1021 1.429 . S
C1030 N1027 1.350 . S
C1030 C1029 1.434 . S
C1031 C1032 1.369 . S
C1031 C1033 1.419 . S
C1031 H1035 0.930 . S
C1032 C1031 1.369 . S
C1032 C1041 1.429 . S
C1033 C1031 1.419 . S
C1033 C1034 1.363 . S
C1033 H1036 0.929 . S
C1034 C1033 1.363 . S
C1034 C1040 1.428 . S
H1035 C1031 0.930 . S
H1036 C1033 0.929 . S
S1037 N1038 1.613 . S
S1037 N1039 1.610 . S
N1038 S1037 1.613 . S
N1038 C1041 1.350 . S
N1039 S1037 1.610 . S
N1039 C1040 1.351 . S
C1040 C1034 1.428 . S
C1040 N1039 1.351 . S
C1040 C1041 1.434 . S
C1041 C1032 1.429 . S
C1041 N1038 1.350 . S
C1041 C1040 1.434 . S
C1042 C1043 1.369 . S
C1042 C1044 1.419 . S
C1042 H1046 0.930 . S
C1043 C1042 1.369 . S
C1043 C1052 1.429 . S
C1044 C1042 1.419 . S
C1044 C1045 1.363 . S
C1044 H1047 0.929 . S
C1045 C1044 1.363 . S
C1045 C1051 1.428 . S
H1046 C1042 0.930 . S
H1047 C1044 0.929 . S
S1048 N1049 1.613 . S
S1048 N1050 1.610 . S
N1049 S1048 1.613 . S
N1049 C1052 1.350 . S
N1050 S1048 1.610 . S
N1050 C1051 1.351 . S
C1051 C1045 1.428 . S
C1051 N1050 1.351 . S
C1051 C1052 1.434 . S
C1052 C1043 1.429 . S
C1052 N1049 1.350 . S
C1052 C1051 1.434 . S
C1053 C1054 1.369 . S
C1053 C1055 1.419 . S
C1053 H1057 0.930 . S
C1054 C1053 1.369 . S
C1054 C1063 1.429 . S
C1055 C1053 1.419 . S
C1055 C1056 1.363 . S
C1055 H1058 0.929 . S
C1056 C1055 1.363 . S
C1056 C1062 1.428 . S
H1057 C1053 0.930 . S
H1058 C1055 0.929 . S
S1059 N1060 1.613 . S
S1059 N1061 1.610 . S
N1060 S1059 1.613 . S
N1060 C1063 1.350 . S
N1061 S1059 1.610 . S
N1061 C1062 1.351 . S
C1062 C1056 1.428 . S
C1062 N1061 1.351 . S
C1062 C1063 1.434 . S
C1063 C1054 1.429 . S
C1063 N1060 1.350 . S
C1063 C1062 1.434 . S
C1064 C1065 1.369 . S
C1064 C1066 1.419 . S
C1064 H1068 0.930 . S
C1065 C1064 1.369 . S
C1065 C1074 1.429 . S
C1066 C1064 1.419 . S
C1066 C1067 1.363 . S
C1066 H1069 0.929 . S
C1067 C1066 1.363 . S
C1067 C1073 1.428 . S
H1068 C1064 0.930 . S
H1069 C1066 0.929 . S
S1070 N1071 1.613 . S
S1070 N1072 1.610 . S
N1071 S1070 1.613 . S
N1071 C1074 1.350 . S
N1072 S1070 1.610 . S
N1072 C1073 1.351 . S
C1073 C1067 1.428 . S
C1073 N1072 1.351 . S
C1073 C1074 1.434 . S
C1074 C1065 1.429 . S
C1074 N1071 1.350 . S
C1074 C1073 1.434 . S
C1075 C1076 1.369 . S
C1075 C1077 1.419 . S
C1075 H1079 0.930 . S
C1076 C1075 1.369 . S
C1076 C1085 1.429 . S
C1077 C1075 1.419 . S
C1077 C1078 1.363 . S
C1077 H1080 0.929 . S
C1078 C1077 1.363 . S
C1078 C1084 1.428 . S
H1079 C1075 0.930 . S
H1080 C1077 0.929 . S
S1081 N1082 1.613 . S
S1081 N1083 1.610 . S
N1082 S1081 1.613 . S
N1082 C1085 1.350 . S
N1083 S1081 1.610 . S
N1083 C1084 1.351 . S
C1084 C1078 1.428 . S
C1084 N1083 1.351 . S
C1084 C1085 1.434 . S
C1085 C1076 1.429 . S
C1085 N1082 1.350 . S
C1085 C1084 1.434 . S
C1086 C1087 1.369 . S
C1086 C1088 1.419 . S
C1086 H1090 0.930 . S
C1087 C1086 1.369 . S
C1087 C1096 1.429 . S
C1088 C1086 1.419 . S
C1088 C1089 1.363 . S
C1088 H1091 0.929 . S
C1089 C1088 1.363 . S
C1089 C1095 1.428 . S
H1090 C1086 0.930 . S
H1091 C1088 0.929 . S
S1092 N1093 1.613 . S
S1092 N1094 1.610 . S
N1093 S1092 1.613 . S
N1093 C1096 1.350 . S
N1094 S1092 1.610 . S
N1094 C1095 1.351 . S
C1095 C1089 1.428 . S
C1095 N1094 1.351 . S
C1095 C1096 1.434 . S
C1096 C1087 1.429 . S
C1096 N1093 1.350 . S
C1096 C1095 1.434 . S
C1097 C1098 1.369 . S
C1097 C1099 1.419 . S
C1097 H1101 0.930 . S
C1098 C1097 1.369 . S
C1098 C1107 1.429 . S
C1099 C1097 1.419 . S
C1099 C1100 1.363 . S
C1099 H1102 0.929 . S
C1100 C1099 1.363 . S
C1100 C1106 1.428 . S
H1101 C1097 0.930 . S
H1102 C1099 0.929 . S
S1103 N1104 1.613 . S
S1103 N1105 1.610 . S
N1104 S1103 1.613 . S
N1104 C1107 1.350 . S
N1105 S1103 1.610 . S
N1105 C1106 1.351 . S
C1106 C1100 1.428 . S
C1106 N1105 1.351 . S
C1106 C1107 1.434 . S
C1107 C1098 1.429 . S
C1107 N1104 1.350 . S
C1107 C1106 1.434 . S
C1108 C1109 1.369 . S
C1108 C1110 1.419 . S
C1108 H1112 0.930 . S
C1109 C1108 1.369 . S
C1109 C1118 1.429 . S
C1110 C1108 1.419 . S
C1110 C1111 1.363 . S
C1110 H1113 0.929 . S
C1111 C1110 1.363 . S
C1111 C1117 1.428 . S
H1112 C1108 0.930 . S
H1113 C1110 0.929 . S
S1114 N1115 1.613 . S
S1114 N1116 1.610 . S
N1115 S1114 1.613 . S
N1115 C1118 1.350 . S
N1116 S1114 1.610 . S
N1116 C1117 1.351 . S
C1117 C1111 1.428 . S
C1117 N1116 1.351 . S
C1117 C1118 1.434 . S
C1118 C1109 1.429 . S
C1118 N1115 1.350 . S
C1118 C1117 1.434 . S
C1119 C1120 1.369 . S
C1119 C1121 1.419 . S
C1119 H1123 0.930 . S
C1120 C1119 1.369 . S
C1120 C1129 1.429 . S
C1121 C1119 1.419 . S
C1121 C1122 1.363 . S
C1121 H1124 0.929 . S
C1122 C1121 1.363 . S
C1122 C1128 1.428 . S
H1123 C1119 0.930 . S
H1124 C1121 0.929 . S
S1125 N1126 1.613 . S
S1125 N1127 1.610 . S
N1126 S1125 1.613 . S
N1126 C1129 1.350 . S
N1127 S1125 1.610 . S
N1127 C1128 1.351 . S
C1128 C1122 1.428 . S
C1128 N1127 1.351 . S
C1128 C1129 1.434 . S
C1129 C1120 1.429 . S
C1129 N1126 1.350 . S
C1129 C1128 1.434 . S
C1130 C1131 1.369 . S
C1130 C1132 1.419 . S
C1130 H1134 0.930 . S
C1131 C1130 1.369 . S
C1131 C1140 1.429 . S
C1132 C1130 1.419 . S
C1132 C1133 1.363 . S
C1132 H1135 0.929 . S
C1133 C1132 1.363 . S
C1133 C1139 1.428 . S
H1134 C1130 0.930 . S
H1135 C1132 0.929 . S
S1136 N1137 1.613 . S
S1136 N1138 1.610 . S
N1137 S1136 1.613 . S
N1137 C1140 1.350 . S
N1138 S1136 1.610 . S
N1138 C1139 1.351 . S
C1139 C1133 1.428 . S
C1139 N1138 1.351 . S
C1139 C1140 1.434 . S
C1140 C1131 1.429 . S
C1140 N1137 1.350 . S
C1140 C1139 1.434 . S
C1141 C1142 1.369 . S
C1141 C1143 1.419 . S
C1141 H1145 0.930 . S
C1142 C1141 1.369 . S
C1142 C1151 1.429 . S
C1143 C1141 1.419 . S
C1143 C1144 1.363 . S
C1143 H1146 0.929 . S
C1144 C1143 1.363 . S
C1144 C1150 1.428 . S
H1145 C1141 0.930 . S
H1146 C1143 0.929 . S
S1147 N1148 1.613 . S
S1147 N1149 1.610 . S
N1148 S1147 1.613 . S
N1148 C1151 1.350 . S
N1149 S1147 1.610 . S
N1149 C1150 1.351 . S
C1150 C1144 1.428 . S
C1150 N1149 1.351 . S
C1150 C1151 1.434 . S
C1151 C1142 1.429 . S
C1151 N1148 1.350 . S
C1151 C1150 1.434 . S
C449 C7 1.844 . S
C451 C35 1.848 . S
C460 C49 1.846 . S
C462 C21 1.850 . S
C471 C91 1.846 . S
C473 C63 1.849 . S
C482 C105 1.850 . S
C484 C77 1.847 . S
C493 C119 1.851 . S
C495 C147 1.847 . S
C504 C161 1.850 . S
C506 C133 1.846 . S
C515 C175 1.847 . S
C517 C203 1.851 . S
C526 C217 1.847 . S
C528 C189 1.850 . S
C537 C231 1.846 . S
C539 C259 1.851 . S
C548 C245 1.849 . S
C550 C273 1.849 . S
C559 C315 1.850 . S
C561 C287 1.846 . S
C570 C301 1.846 . S
C572 C329 1.850 . S
C581 C371 1.846 . S
C583 C343 1.849 . S
C592 C385 1.846 . S
C594 C357 1.851 . S
C603 C427 1.845 . S
C605 C399 1.849 . S
C614 C413 1.850 . S
C616 C441 1.846 . S
C625 C356 1.274 . S
C627 C6 1.270 . S
C636 C20 1.270 . S
C638 C342 1.272 . S
C647 C34 1.275 . S
C649 C384 1.273 . S
C658 C48 1.272 . S
C660 C370 1.271 . S
C669 C412 1.273 . S
C671 C62 1.270 . S
C680 C76 1.275 . S
C682 C398 1.272 . S
C691 C90 1.275 . S
C693 C440 1.272 . S
C702 C426 1.274 . S
C704 C104 1.274 . S
C713 C118 1.274 . S
C715 C244 1.270 . S
C724 C132 1.272 . S
C726 C230 1.271 . S
C735 C146 1.275 . S
C737 C272 1.273 . S
C746 C160 1.270 . S
C748 C258 1.274 . S
C757 C174 1.275 . S
C759 C300 1.273 . S
C768 C286 1.270 . S
C770 C188 1.272 . S
C779 C328 1.273 . S
C781 C202 1.274 . S
C790 C216 1.274 . S
C792 C314 1.274 . S
C801 C8 1.482 . S
C803 C64 1.487 . S
C812 C22 1.482 . S
C814 C414 1.482 . S
C823 C36 1.478 . S
C825 C204 1.483 . S
C834 C50 1.487 . S
C836 C330 1.485 . S
C845 C78 1.489 . S
C847 C358 1.477 . S
C856 C148 1.490 . S
C858 C92 1.475 . S
C867 C274 1.495 . S
C869 C106 1.480 . S
C878 C176 1.496 . S
C880 C120 1.481 . S
C889 C134 1.473 . S
C891 C302 1.486 . S
C900 C442 1.486 . S
C902 C162 1.485 . S
C911 C190 1.485 . S
C913 C246 1.476 . S
C922 C218 1.477 . S
C924 C386 1.493 . S
C933 C288 1.494 . S
C935 C232 1.481 . S
C944 C260 1.477 . S
C946 C428 1.484 . S
C955 C372 1.483 . S
C957 C316 1.479 . S
C966 C400 1.477 . S
C968 C344 1.491 . S
C977 C9 1.563 . S
C979 C23 1.569 . S
C988 C37 1.566 . S
C990 C51 1.569 . S
C999 C65 1.562 . S
C1001 C79 1.570 . S
C1010 C93 1.569 . S
C1012 C107 1.565 . S
C1021 C135 1.565 . S
C1023 C121 1.566 . S
C1032 C149 1.571 . S
C1034 C163 1.564 . S
C1043 C177 1.571 . S
C1045 C191 1.564 . S
C1054 C205 1.568 . S
C1056 C219 1.565 . S
C1065 C233 1.563 . S
C1067 C247 1.570 . S
C1076 C275 1.571 . S
C1078 C261 1.564 . S
C1087 C289 1.571 . S
C1089 C303 1.564 . S
C1098 C317 1.563 . S
C1100 C331 1.570 . S
C1109 C359 1.570 . S
C1111 C345 1.566 . S
C1120 C373 1.563 . S
C1122 C387 1.569 . S
C1131 C415 1.564 . S
C1133 C401 1.567 . S
C1142 C429 1.563 . S
C1144 C443 1.570 . S
