# Generated by pormake.
# Topology yff, (5)-cn, num edge types: 1
# Building blocks:
#     Node 0, Type 0, BuildingBlock: BEQFEK_clean_sbu_0, # of connection points: 5
#     Node 1, Type 0, BuildingBlock: BEQFEK_clean_sbu_0, # of connection points: 5
#     Node 2, Type 0, BuildingBlock: BEQFEK_clean_sbu_0, # of connection points: 5
#     Node 3, Type 0, BuildingBlock: BEQFEK_clean_sbu_0, # of connection points: 5
#     Node 4, Type 0, BuildingBlock: BEQFEK_clean_sbu_0, # of connection points: 5
#     Node 5, Type 0, BuildingBlock: BEQFEK_clean_sbu_0, # of connection points: 5
#     Node 6, Type 0, BuildingBlock: BEQFEK_clean_sbu_0, # of connection points: 5
#     Node 7, Type 0, BuildingBlock: BEQFEK_clean_sbu_0, # of connection points: 5
#     Node 8, Type 0, BuildingBlock: BEQFEK_clean_sbu_0, # of connection points: 5
#     Node 9, Type 0, BuildingBlock: BEQFEK_clean_sbu_0, # of connection points: 5
#     Node 10, Type 0, BuildingBlock: BEQFEK_clean_sbu_0, # of connection points: 5
#     Node 11, Type 0, BuildingBlock: BEQFEK_clean_sbu_0, # of connection points: 5
#     Node 12, Type 0, BuildingBlock: BEQFEK_clean_sbu_0, # of connection points: 5
#     Node 13, Type 0, BuildingBlock: BEQFEK_clean_sbu_0, # of connection points: 5
#     Node 14, Type 0, BuildingBlock: BEQFEK_clean_sbu_0, # of connection points: 5
#     Node 15, Type 0, BuildingBlock: BEQFEK_clean_sbu_0, # of connection points: 5
#     Edge 16, Type (0, 0), BuildingBlock: CIFDUS_clean_linker_0, # of connection points: 2
#     Edge 17, Type (0, 0), BuildingBlock: CIFDUS_clean_linker_0, # of connection points: 2
#     Edge 18, Type (0, 0), BuildingBlock: CIFDUS_clean_linker_0, # of connection points: 2
#     Edge 19, Type (0, 0), BuildingBlock: CIFDUS_clean_linker_0, # of connection points: 2
#     Edge 20, Type (0, 0), BuildingBlock: CIFDUS_clean_linker_0, # of connection points: 2
#     Edge 21, Type (0, 0), BuildingBlock: CIFDUS_clean_linker_0, # of connection points: 2
#     Edge 22, Type (0, 0), BuildingBlock: CIFDUS_clean_linker_0, # of connection points: 2
#     Edge 23, Type (0, 0), BuildingBlock: CIFDUS_clean_linker_0, # of connection points: 2
#     Edge 24, Type (0, 0), BuildingBlock: CIFDUS_clean_linker_0, # of connection points: 2
#     Edge 25, Type (0, 0), BuildingBlock: CIFDUS_clean_linker_0, # of connection points: 2
#     Edge 26, Type (0, 0), BuildingBlock: CIFDUS_clean_linker_0, # of connection points: 2
#     Edge 27, Type (0, 0), BuildingBlock: CIFDUS_clean_linker_0, # of connection points: 2
#     Edge 28, Type (0, 0), BuildingBlock: CIFDUS_clean_linker_0, # of connection points: 2
#     Edge 29, Type (0, 0), BuildingBlock: CIFDUS_clean_linker_0, # of connection points: 2
#     Edge 30, Type (0, 0), BuildingBlock: CIFDUS_clean_linker_0, # of connection points: 2
#     Edge 31, Type (0, 0), BuildingBlock: CIFDUS_clean_linker_0, # of connection points: 2
#     Edge 32, Type (0, 0), BuildingBlock: CIFDUS_clean_linker_0, # of connection points: 2
#     Edge 33, Type (0, 0), BuildingBlock: CIFDUS_clean_linker_0, # of connection points: 2
#     Edge 34, Type (0, 0), BuildingBlock: CIFDUS_clean_linker_0, # of connection points: 2
#     Edge 35, Type (0, 0), BuildingBlock: CIFDUS_clean_linker_0, # of connection points: 2
#     Edge 36, Type (0, 0), BuildingBlock: CIFDUS_clean_linker_0, # of connection points: 2
#     Edge 37, Type (0, 0), BuildingBlock: CIFDUS_clean_linker_0, # of connection points: 2
#     Edge 38, Type (0, 0), BuildingBlock: CIFDUS_clean_linker_0, # of connection points: 2
#     Edge 39, Type (0, 0), BuildingBlock: CIFDUS_clean_linker_0, # of connection points: 2
#     Edge 40, Type (0, 0), BuildingBlock: CIFDUS_clean_linker_0, # of connection points: 2
#     Edge 41, Type (0, 0), BuildingBlock: CIFDUS_clean_linker_0, # of connection points: 2
#     Edge 42, Type (0, 0), BuildingBlock: CIFDUS_clean_linker_0, # of connection points: 2
#     Edge 43, Type (0, 0), BuildingBlock: CIFDUS_clean_linker_0, # of connection points: 2
#     Edge 44, Type (0, 0), BuildingBlock: CIFDUS_clean_linker_0, # of connection points: 2
#     Edge 45, Type (0, 0), BuildingBlock: CIFDUS_clean_linker_0, # of connection points: 2
#     Edge 46, Type (0, 0), BuildingBlock: CIFDUS_clean_linker_0, # of connection points: 2
#     Edge 47, Type (0, 0), BuildingBlock: CIFDUS_clean_linker_0, # of connection points: 2
#     Edge 48, Type (0, 0), BuildingBlock: CIFDUS_clean_linker_0, # of connection points: 2
#     Edge 49, Type (0, 0), BuildingBlock: CIFDUS_clean_linker_0, # of connection points: 2
#     Edge 50, Type (0, 0), BuildingBlock: CIFDUS_clean_linker_0, # of connection points: 2
#     Edge 51, Type (0, 0), BuildingBlock: CIFDUS_clean_linker_0, # of connection points: 2
#     Edge 52, Type (0, 0), BuildingBlock: CIFDUS_clean_linker_0, # of connection points: 2
#     Edge 53, Type (0, 0), BuildingBlock: CIFDUS_clean_linker_0, # of connection points: 2
#     Edge 54, Type (0, 0), BuildingBlock: CIFDUS_clean_linker_0, # of connection points: 2
#     Edge 55, Type (0, 0), BuildingBlock: CIFDUS_clean_linker_0, # of connection points: 2
# Relax obj value: 0.537
# Max RMSD: 0.291
# Mean RMSD: 0.278
data_MOF--net-yff--node1-BEQFEK_clean_sbu_0--edge1-CIFDUS_clean_linker_0
_symmetry_space_group_name_H-M    P1
_symmetry_Int_Tables_number       1
_symmetry_cell_setting            triclinic
loop_
_symmetry_equiv_pos_as_xyz
'x, y, z'
_cell_length_a     61.701522
_cell_length_b     59.652916
_cell_length_c     24.552074
_cell_angle_alpha  89.555674
_cell_angle_beta   89.329679
_cell_angle_gamma 88.86602
loop_
_atom_site_label
_atom_site_type_symbol
_atom_site_fract_x
_atom_site_fract_y
_atom_site_fract_z
_atom_type_partial_charge
Co0 Co 0.06326 0.02579 0.28116 0.0
Co1 Co 0.11347 0.02392 0.2639 0.0
C2 C 0.08869 0.98342 0.24727 0.0
O3 O 0.07193 0.99535 0.25767 0.0
O4 O 0.10759 0.9916 0.24818 0.0
C5 C 0.03465 0.00643 0.34959 0.0
O6 O 0.05292 0.99525 0.35735 0.0
C7 C 0.16095 0.01736 0.27799 0.0
C8 C 0.17228 0.05066 0.25151 0.0
C9 C 0.1793 0.03023 0.27247 0.0
N10 N 0.14378 0.02966 0.26079 0.0
N11 N 0.15078 0.04941 0.24429 0.0
C12 C 0.1596 0.99452 0.30311 0.0
H13 H 0.14258 0.99062 0.31405 0.0
H14 H 0.16992 0.99339 0.33981 0.0
H15 H 0.16586 0.98195 0.27347 0.0
C16 C 0.07571 0.04581 0.38455 0.0
N17 N 0.08105 0.03634 0.33662 0.0
N18 N 0.10217 0.0332 0.33354 0.0
C19 C 0.11082 0.03954 0.38137 0.0
C20 C 0.09425 0.04784 0.41495 0.0
C21 C 0.05312 0.05253 0.40168 0.0
H22 H 0.04277 0.05551 0.3657 0.0
H23 H 0.0462 0.03913 0.42776 0.0
H24 H 0.05308 0.0681 0.42599 0.0
O25 O 0.06437 0.04648 0.2191 0.0
O26 O 0.10002 0.04355 0.20509 0.0
H27 H 0.14366 0.04834 0.36493 0.0
H28 H 0.13746 0.04406 0.43638 0.0
C29 C 0.13439 0.03806 0.39454 0.0
H30 H 0.14015 0.02042 0.39086 0.0
H31 H 0.14071 0.06239 0.2301 0.0
O32 O 0.03413 0.02177 0.31328 0.0
C33 C 0.08136 0.05156 0.19212 0.0
Co34 Co 0.46549 0.05645 0.82816 0.0
Co35 Co 0.46466 0.10787 0.80388 0.0
C36 C 0.50625 0.0842 0.80754 0.0
O37 O 0.49532 0.06677 0.81692 0.0
O38 O 0.49701 0.10324 0.8002 0.0
C39 C 0.48745 0.01657 0.86067 0.0
O40 O 0.50088 0.02165 0.82073 0.0
C41 C 0.46582 0.15745 0.80884 0.0
C42 C 0.43323 0.16563 0.77674 0.0
C43 C 0.45146 0.17513 0.79846 0.0
N44 N 0.4563 0.13835 0.79429 0.0
N45 N 0.43698 0.14342 0.77453 0.0
C46 C 0.48725 0.15842 0.83648 0.0
H47 H 0.4914 0.14201 0.85568 0.0
H48 H 0.487 0.17181 0.86764 0.0
H49 H 0.49995 0.16236 0.80571 0.0
C50 C 0.44076 0.07106 0.92445 0.0
N51 N 0.45116 0.07564 0.87748 0.0
N52 N 0.4524 0.09748 0.871 0.0
C53 C 0.4432 0.10752 0.91499 0.0
C54 C 0.43534 0.09106 0.9499 0.0
C55 C 0.43832 0.0479 0.94728 0.0
H56 H 0.43455 0.03608 0.91424 0.0
H57 H 0.45384 0.04265 0.96625 0.0
H58 H 0.4254 0.04708 0.97883 0.0
O59 O 0.44923 0.05553 0.75997 0.0
O60 O 0.45023 0.09212 0.74286 0.0
H61 H 0.43226 0.14038 0.89182 0.0
H62 H 0.43506 0.13643 0.9644 0.0
C63 C 0.44223 0.13228 0.92398 0.0
H64 H 0.4588 0.13905 0.92094 0.0
H65 H 0.42602 0.13159 0.76125 0.0
O66 O 0.46934 0.02701 0.86416 0.0
C67 C 0.44448 0.07243 0.73009 0.0
Co68 Co 0.43334 0.46446 0.31411 0.0
Co69 Co 0.38347 0.4675 0.29803 0.0
C70 C 0.40891 0.50688 0.27568 0.0
O71 O 0.42531 0.49449 0.2859 0.0
O72 O 0.38977 0.49949 0.27983 0.0
C73 C 0.45914 0.48507 0.38326 0.0
O74 O 0.44037 0.49579 0.38618 0.0
C75 C 0.33625 0.47418 0.31376 0.0
C76 C 0.32387 0.44568 0.26716 0.0
C77 C 0.31739 0.46379 0.29863 0.0
N78 N 0.3532 0.46262 0.2924 0.0
N79 N 0.34565 0.44571 0.2643 0.0
C80 C 0.33809 0.49542 0.3452 0.0
H81 H 0.35534 0.49924 0.35254 0.0
H82 H 0.32926 0.49406 0.38462 0.0
H83 H 0.3304 0.50939 0.32187 0.0
C84 C 0.42005 0.44523 0.41841 0.0
N85 N 0.41483 0.45445 0.37015 0.0
N86 N 0.39382 0.45844 0.36851 0.0
C87 C 0.38523 0.45302 0.4179 0.0
C88 C 0.40169 0.4445 0.45084 0.0
C89 C 0.44238 0.43731 0.43386 0.0
H90 H 0.45272 0.4346 0.39724 0.0
H91 H 0.44971 0.44979 0.46097 0.0
H92 H 0.44167 0.42126 0.45678 0.0
O93 O 0.43303 0.44316 0.25444 0.0
O94 O 0.39757 0.44748 0.24098 0.0
H95 H 0.35162 0.44852 0.40141 0.0
H96 H 0.35839 0.44705 0.47291 0.0
C97 C 0.36186 0.4556 0.43353 0.0
H98 H 0.35777 0.47368 0.43769 0.0
H99 H 0.35538 0.43402 0.24353 0.0
O100 O 0.46157 0.46941 0.34859 0.0
C101 C 0.416 0.43873 0.22803 0.0
Co102 Co 0.00353 0.36365 0.80193 0.0
Co103 Co 0.04881 0.36111 0.85961 0.0
C104 C 0.02464 0.31959 0.82673 0.0
O105 O 0.00821 0.33038 0.80841 0.0
O106 O 0.04067 0.32988 0.84602 0.0
C107 C 0.95569 0.36651 0.7875 0.0
O108 O 0.95327 0.35547 0.83361 0.0
C109 C 0.0715 0.35244 0.96009 0.0
C110 C 0.09989 0.3741 0.9519 0.0
C111 C 0.08811 0.36183 0.99005 0.0
N112 N 0.0727 0.36014 0.90861 0.0
N113 N 0.09027 0.37226 0.90326 0.0
C114 C 0.05396 0.33723 0.97948 0.0
H115 H 0.03883 0.34717 0.9869 0.0
H116 H 0.05878 0.32812 0.01715 0.0
H117 H 0.05048 0.32482 0.94754 0.0
C118 C 0.99429 0.39563 0.8924 0.0
N119 N 0.00643 0.37908 0.86916 0.0
N120 N 0.02565 0.37842 0.89216 0.0
C121 C 0.02618 0.39451 0.93049 0.0
C122 C 0.00629 0.40554 0.9326 0.0
C123 C 0.9735 0.40492 0.86998 0.0
H124 H 0.97476 0.4065 0.82507 0.0
H125 H 0.96024 0.39343 0.88085 0.0
H126 H 0.96929 0.42162 0.88716 0.0
O127 O 0.02505 0.3774 0.75104 0.0
O128 O 0.05742 0.37598 0.79033 0.0
H129 H 0.0599 0.40252 0.92826 0.0
H130 H 0.0442 0.41884 0.97643 0.0
C131 C 0.04629 0.40203 0.95795 0.0
H132 H 0.05023 0.39018 0.99132 0.0
H133 H 0.0945 0.38103 0.86789 0.0
O134 O 0.97466 0.37041 0.7693 0.0
C135 C 0.04526 0.38167 0.75078 0.0
Co136 Co 0.56861 0.97641 0.65902 0.0
Co137 Co 0.61664 0.96953 0.69909 0.0
C138 C 0.59503 0.01415 0.70416 0.0
O139 O 0.57836 0.00514 0.685 0.0
O140 O 0.61241 0.0028 0.71321 0.0
C141 C 0.53464 0.00182 0.60587 0.0
O142 O 0.54323 0.01914 0.62957 0.0
C143 C 0.66491 0.96743 0.70134 0.0
C144 C 0.66964 0.93405 0.73953 0.0
C145 C 0.68072 0.95159 0.71562 0.0
N146 N 0.64539 0.95933 0.71555 0.0
N147 N 0.64845 0.93958 0.73927 0.0
C148 C 0.66805 0.98876 0.67016 0.0
H149 H 0.65252 0.99473 0.65221 0.0
H150 H 0.68052 0.98631 0.63767 0.0
H151 H 0.67388 0.00175 0.69828 0.0
C152 C 0.58695 0.95659 0.56053 0.0
N153 N 0.58947 0.96401 0.61144 0.0
N154 N 0.60986 0.96136 0.62572 0.0
C155 C 0.62096 0.9519 0.58345 0.0
C156 C 0.60666 0.94868 0.54109 0.0
C157 C 0.56596 0.95744 0.53059 0.0
H158 H 0.56118 0.97524 0.52372 0.0
H159 H 0.56706 0.94911 0.49045 0.0
H160 H 0.55329 0.94923 0.55567 0.0
O161 O 0.56351 0.95624 0.7214 0.0
O162 O 0.59739 0.95249 0.75046 0.0
H163 H 0.64899 0.93536 0.54726 0.0
H164 H 0.65431 0.96054 0.58457 0.0
C165 C 0.64443 0.94525 0.5839 0.0
H166 H 0.64798 0.93519 0.62097 0.0
H167 H 0.63596 0.92936 0.75299 0.0
O168 O 0.54175 0.98218 0.6171 0.0
C169 C 0.57726 0.94821 0.75497 0.0
Co170 Co 0.53444 0.55974 0.18215 0.0
Co171 Co 0.53622 0.61135 0.20425 0.0
C172 C 0.49522 0.58866 0.21836 0.0
O173 O 0.50559 0.57079 0.20588 0.0
O174 O 0.50453 0.60753 0.22004 0.0
C175 C 0.51115 0.52155 0.14533 0.0
O176 O 0.49555 0.52911 0.1775 0.0
C177 C 0.53558 0.66103 0.19662 0.0
C178 C 0.56948 0.66714 0.21987 0.0
C179 C 0.55075 0.67772 0.20162 0.0
N180 N 0.54514 0.64139 0.2106 0.0
N181 N 0.56524 0.64527 0.2253 0.0
C182 C 0.51323 0.66331 0.17404 0.0
H183 H 0.50746 0.64683 0.16014 0.0
H184 H 0.51297 0.67559 0.13983 0.0
H185 H 0.50207 0.66964 0.20642 0.0
C186 C 0.55226 0.57409 0.07677 0.0
N187 N 0.54505 0.57886 0.12725 0.0
N188 N 0.54463 0.60073 0.13385 0.0
C189 C 0.55146 0.61054 0.08692 0.0
C190 C 0.55628 0.59387 0.04939 0.0
C191 C 0.5552 0.55095 0.05458 0.0
H192 H 0.56139 0.53942 0.08667 0.0
H193 H 0.53927 0.54516 0.04048 0.0
H194 H 0.56667 0.55066 0.01942 0.0
O195 O 0.55459 0.55843 0.2444 0.0
O196 O 0.55336 0.59498 0.26075 0.0
H197 H 0.56443 0.64232 0.1071 0.0
H198 H 0.55865 0.63912 0.0356 0.0
C199 C 0.55298 0.63525 0.07764 0.0
H200 H 0.53684 0.64326 0.08452 0.0
H201 H 0.5764 0.63279 0.2368 0.0
O202 O 0.52977 0.53029 0.14747 0.0
C203 C 0.56008 0.57522 0.27257 0.0
Co204 Co 0.9225 0.51027 0.67773 0.0
Co205 Co 0.87521 0.52112 0.71727 0.0
C206 C 0.89332 0.47503 0.72628 0.0
O207 O 0.91081 0.48238 0.70615 0.0
O208 O 0.87696 0.48795 0.73446 0.0
C209 C 0.94727 0.48348 0.6073 0.0
O210 O 0.92929 0.47209 0.60891 0.0
C211 C 0.82778 0.52123 0.72252 0.0
C212 C 0.82033 0.55516 0.75393 0.0
C213 C 0.81076 0.53569 0.73648 0.0
N214 N 0.84649 0.53169 0.73144 0.0
N215 N 0.84194 0.5519 0.75054 0.0
C216 C 0.8265 0.49864 0.69683 0.0
H217 H 0.8413 0.49506 0.67202 0.0
H218 H 0.81194 0.49768 0.67088 0.0
H219 H 0.82537 0.48569 0.72935 0.0
C220 C 0.90696 0.5319 0.57848 0.0
N221 N 0.90331 0.52412 0.62909 0.0
N222 N 0.88295 0.52803 0.64308 0.0
C223 C 0.87287 0.53825 0.60056 0.0
C224 C 0.88786 0.54077 0.55831 0.0
C225 C 0.92875 0.53237 0.55094 0.0
H226 H 0.9415 0.53562 0.58112 0.0
H227 H 0.93206 0.51595 0.53138 0.0
H228 H 0.92938 0.54554 0.51882 0.0
O229 O 0.92844 0.53078 0.73787 0.0
O230 O 0.89475 0.53779 0.76733 0.0
H231 H 0.84693 0.55807 0.63455 0.0
H232 H 0.84532 0.55421 0.56161 0.0
C233 C 0.8497 0.54604 0.60085 0.0
H234 H 0.83911 0.5315 0.60824 0.0
H235 H 0.85359 0.56361 0.76033 0.0
O236 O 0.94875 0.50097 0.63633 0.0
C237 C 0.91519 0.54049 0.77071 0.0
Co238 Co 0.9656 0.91913 0.16783 0.0
Co239 Co 0.96952 0.86704 0.18517 0.0
C240 C 0.00746 0.89428 0.20217 0.0
O241 O 0.99528 0.91106 0.19105 0.0
O242 O 0.00038 0.87434 0.20197 0.0
C243 C 0.98324 0.94979 0.09879 0.0
O244 O 0.99495 0.93148 0.09043 0.0
C245 C 0.97641 0.81762 0.20164 0.0
C246 C 0.9456 0.80543 0.16893 0.0
C247 C 0.96501 0.79825 0.19128 0.0
N248 N 0.96428 0.83543 0.1854 0.0
N249 N 0.94582 0.82794 0.1665 0.0
C250 C 0.99866 0.81928 0.22455 0.0
H251 H 0.99765 0.82827 0.26393 0.0
H252 H 0.00887 0.82932 0.19643 0.0
H253 H 0.00635 0.8025 0.23074 0.0
C254 C 0.94765 0.90513 0.06414 0.0
N255 N 0.95637 0.90016 0.11273 0.0
N256 N 0.9613 0.87865 0.11516 0.0
C257 C 0.95732 0.86958 0.06596 0.0
C258 C 0.94819 0.88606 0.03258 0.0
C259 C 0.93965 0.92798 0.04716 0.0
H260 H 0.93602 0.93853 0.08319 0.0
H261 H 0.95208 0.93602 0.02095 0.0
H262 H 0.92468 0.92681 0.0229 0.0
O263 O 0.94571 0.91716 0.23015 0.0
O264 O 0.94978 0.88036 0.2439 0.0
H265 H 0.9479 0.83585 0.05271 0.0
H266 H 0.96883 0.84536 0.00753 0.0
C267 C 0.96279 0.84595 0.05027 0.0
H268 H 0.97519 0.83858 0.0778 0.0
H269 H 0.93335 0.83827 0.15164 0.0
O270 O 0.96841 0.94946 0.1353 0.0
C271 C 0.94141 0.89941 0.25711 0.0
Co272 Co 0.92511 0.96266 0.66531 0.0
Co273 Co 0.87516 0.96268 0.687 0.0
C274 C 0.89886 0.00405 0.70203 0.0
O275 O 0.91584 0.99279 0.68957 0.0
O276 O 0.88027 0.99513 0.70315 0.0
C277 C 0.95302 0.98275 0.59531 0.0
O278 O 0.93466 0.99385 0.58807 0.0
C279 C 0.82705 0.96806 0.6864 0.0
C280 C 0.81792 0.93344 0.70781 0.0
C281 C 0.80924 0.95445 0.69543 0.0
N282 N 0.84523 0.95554 0.69333 0.0
N283 N 0.8396 0.93491 0.70619 0.0
C284 C 0.827 0.99203 0.66819 0.0
H285 H 0.84231 0.99579 0.64606 0.0
H286 H 0.81294 0.99577 0.64159 0.0
H287 H 0.82581 0.00298 0.70447 0.0
C288 C 0.91177 0.94214 0.56309 0.0
N289 N 0.90691 0.95161 0.61131 0.0
N290 N 0.88577 0.9539 0.61662 0.0
C291 C 0.87652 0.94692 0.57016 0.0
C292 C 0.89278 0.93906 0.53502 0.0
C293 C 0.9343 0.93641 0.54359 0.0
H294 H 0.94525 0.93356 0.5785 0.0
H295 H 0.94037 0.95031 0.51774 0.0
H296 H 0.93458 0.92106 0.51847 0.0
O297 O 0.92552 0.94193 0.72752 0.0
O298 O 0.89 0.94349 0.74401 0.0
H299 H 0.84494 0.9344 0.58641 0.0
H300 H 0.84911 0.94373 0.51695 0.0
C301 C 0.85267 0.94728 0.56022 0.0
H302 H 0.84563 0.96386 0.57167 0.0
H303 H 0.85061 0.92177 0.71353 0.0
O304 O 0.95377 0.96736 0.63146 0.0
C305 C 0.90903 0.93619 0.75565 0.0
Co306 Co 0.53657 0.92935 0.18 0.0
Co307 Co 0.53499 0.87748 0.19488 0.0
C308 C 0.4947 0.90346 0.20121 0.0
O309 O 0.50628 0.9206 0.19374 0.0
O310 O 0.50309 0.8838 0.20312 0.0
C311 C 0.51646 0.97126 0.1559 0.0
O312 O 0.503 0.96588 0.19552 0.0
C313 C 0.52951 0.82829 0.18886 0.0
C314 C 0.56338 0.8172 0.20348 0.0
C315 C 0.54289 0.80938 0.19284 0.0
N316 N 0.54168 0.84642 0.19676 0.0
N317 N 0.56184 0.83964 0.20567 0.0
C318 C 0.50606 0.82934 0.17414 0.0
H319 H 0.50243 0.84491 0.15069 0.0
H320 H 0.50164 0.81452 0.1499 0.0
H321 H 0.4961 0.82964 0.21206 0.0
C322 C 0.55658 0.91648 0.07563 0.0
N323 N 0.54821 0.91112 0.12461 0.0
N324 N 0.54594 0.88928 0.12782 0.0
C325 C 0.55233 0.88013 0.07984 0.0
C326 C 0.55927 0.89719 0.04545 0.0
C327 C 0.56072 0.93984 0.05621 0.0
H328 H 0.56593 0.9504 0.09042 0.0
H329 H 0.54554 0.94687 0.03881 0.0
H330 H 0.57339 0.93994 0.02373 0.0
O331 O 0.55453 0.92676 0.24514 0.0
O332 O 0.5515 0.89001 0.25742 0.0
H333 H 0.56296 0.8461 0.08937 0.0
H334 H 0.55331 0.85298 0.02201 0.0
C335 C 0.55062 0.85586 0.06621 0.0
H336 H 0.53441 0.8498 0.07867 0.0
H337 H 0.57462 0.85041 0.21258 0.0
O338 O 0.53411 0.96011 0.15049 0.0
C339 C 0.55876 0.9089 0.27201 0.0
Co340 Co 0.57237 0.51195 0.67695 0.0
Co341 Co 0.61958 0.52292 0.71027 0.0
C342 C 0.60175 0.47782 0.73107 0.0
O343 O 0.58415 0.48484 0.71015 0.0
O344 O 0.61807 0.49052 0.73565 0.0
C345 C 0.5276 0.51399 0.64433 0.0
O346 O 0.52546 0.53131 0.67678 0.0
C347 C 0.66752 0.52727 0.71326 0.0
C348 C 0.66932 0.56281 0.73746 0.0
C349 C 0.68202 0.54436 0.72298 0.0
N350 N 0.64728 0.53549 0.7213 0.0
N351 N 0.64855 0.55664 0.73622 0.0
C352 C 0.67247 0.5042 0.69256 0.0
H353 H 0.65793 0.4971 0.67345 0.0
H354 H 0.68613 0.50452 0.66275 0.0
H355 H 0.67723 0.49321 0.72724 0.0
C356 C 0.58836 0.52556 0.56975 0.0
N357 N 0.59154 0.5221 0.62315 0.0
N358 N 0.61171 0.52658 0.63519 0.0
C359 C 0.62197 0.53341 0.58902 0.0
C360 C 0.60746 0.53263 0.54621 0.0
C361 C 0.56716 0.52269 0.54181 0.0
H362 H 0.55441 0.53277 0.563 0.0
H363 H 0.56275 0.50478 0.54384 0.0
H364 H 0.56779 0.52799 0.49844 0.0
O365 O 0.56629 0.53476 0.73255 0.0
O366 O 0.59986 0.54142 0.75788 0.0
H367 H 0.64747 0.55402 0.61701 0.0
H368 H 0.6489 0.54778 0.54492 0.0
C369 C 0.64489 0.54098 0.58595 0.0
H370 H 0.65593 0.52657 0.59492 0.0
H371 H 0.63515 0.5671 0.7442 0.0
O372 O 0.54559 0.50341 0.64166 0.0
C373 C 0.5795 0.54495 0.76251 0.0
Co374 Co 0.96668 0.5468 0.18342 0.0
Co375 Co 0.96368 0.59773 0.21452 0.0
C376 C 0.00507 0.57085 0.22624 0.0
O377 O 0.99592 0.55368 0.20773 0.0
O378 O 0.99469 0.58936 0.23271 0.0
C379 C 0.98407 0.51215 0.11889 0.0
O380 O 0.99757 0.52819 0.1062 0.0
C381 C 0.97091 0.64639 0.20162 0.0
C382 C 0.94696 0.66051 0.26017 0.0
C383 C 0.96291 0.66643 0.22299 0.0
N384 N 0.9601 0.6294 0.22503 0.0
N385 N 0.94589 0.63799 0.26019 0.0
C386 C 0.98958 0.64332 0.16281 0.0
H387 H 0.99149 0.62546 0.15098 0.0
H388 H 0.98721 0.65391 0.12599 0.0
H389 H 0.00463 0.64883 0.18261 0.0
C390 C 0.95015 0.5642 0.07957 0.0
N391 N 0.95737 0.56762 0.13019 0.0
N392 N 0.956 0.58919 0.14148 0.0
C393 C 0.94768 0.60012 0.09754 0.0
C394 C 0.94422 0.58458 0.05685 0.0
C395 C 0.94691 0.54165 0.05475 0.0
H396 H 0.96245 0.53552 0.03668 0.0
H397 H 0.93472 0.54249 0.02187 0.0
H398 H 0.94132 0.52959 0.08616 0.0
O399 O 0.94583 0.54688 0.24473 0.0
O400 O 0.94348 0.58279 0.26769 0.0
H401 H 0.93572 0.63035 0.13522 0.0
H402 H 0.9297 0.62811 0.06343 0.0
C403 C 0.942 0.62457 0.09514 0.0
H404 H 0.95673 0.63405 0.08449 0.0
H405 H 0.9354 0.62848 0.28421 0.0
O406 O 0.96885 0.51619 0.15291 0.0
C407 C 0.93785 0.56247 0.2744 0.0
Co408 Co 0.42261 0.01885 0.31299 0.0
Co409 Co 0.37214 0.01353 0.3069 0.0
C410 C 0.40046 0.97489 0.28559 0.0
O411 O 0.4161 0.98809 0.29196 0.0
O412 O 0.38076 0.98146 0.29124 0.0
C413 C 0.46511 0.00109 0.33571 0.0
O414 O 0.4589 0.98363 0.30807 0.0
C415 C 0.32419 0.00586 0.30532 0.0
C416 C 0.31275 0.04036 0.32361 0.0
C417 C 0.30551 0.01909 0.31241 0.0
N418 N 0.34154 0.01889 0.31206 0.0
N419 N 0.33449 0.03944 0.32288 0.0
C420 C 0.32564 0.98124 0.29456 0.0
H421 H 0.33991 0.97373 0.31542 0.0
H422 H 0.31073 0.97276 0.30873 0.0
H423 H 0.32775 0.97857 0.25012 0.0
C424 C 0.4114 0.03416 0.42237 0.0
N425 N 0.40548 0.02685 0.37329 0.0
N426 N 0.38459 0.0229 0.37378 0.0
C427 C 0.3767 0.02687 0.42454 0.0
C428 C 0.39344 0.03444 0.45649 0.0
C429 C 0.43431 0.03864 0.4377 0.0
H430 H 0.44229 0.04854 0.40504 0.0
H431 H 0.44308 0.02236 0.44239 0.0
H432 H 0.43541 0.04778 0.47662 0.0
O433 O 0.41717 0.03947 0.25301 0.0
O434 O 0.3819 0.03357 0.24474 0.0
H435 H 0.34389 0.03811 0.43461 0.0
H436 H 0.35312 0.01917 0.48705 0.0
C437 C 0.35389 0.02281 0.44267 0.0
H438 H 0.34708 0.00868 0.41975 0.0
H439 H 0.34463 0.05293 0.32954 0.0
O440 O 0.4532 0.01873 0.33619 0.0
C441 C 0.39929 0.04306 0.22891 0.0
Co442 Co 0.47797 0.42487 0.82046 0.0
Co443 Co 0.47801 0.37326 0.79879 0.0
C444 C 0.51883 0.39669 0.79247 0.0
O445 O 0.50783 0.41437 0.80323 0.0
O446 O 0.50983 0.37777 0.78793 0.0
C447 C 0.49923 0.46426 0.85625 0.0
O448 O 0.51475 0.45781 0.82246 0.0
C449 C 0.48092 0.32349 0.80231 0.0
C450 C 0.44737 0.31605 0.77848 0.0
C451 C 0.46675 0.30604 0.79434 0.0
N452 N 0.4702 0.3429 0.79191 0.0
N453 N 0.45026 0.33826 0.77728 0.0
C454 C 0.50355 0.32201 0.82331 0.0
H455 H 0.50792 0.33797 0.84295 0.0
H456 H 0.50529 0.3079 0.85277 0.0
H457 H 0.51491 0.31895 0.78867 0.0
C458 C 0.4575 0.41025 0.9227 0.0
N459 N 0.46612 0.40565 0.8735 0.0
N460 N 0.4679 0.3838 0.86766 0.0
C461 C 0.46092 0.37379 0.91407 0.0
C462 C 0.45394 0.39031 0.95011 0.0
C463 C 0.45464 0.4334 0.94506 0.0
H464 H 0.44829 0.44489 0.91305 0.0
H465 H 0.47065 0.43928 0.95832 0.0
H466 H 0.44344 0.43387 0.98066 0.0
O467 O 0.4595 0.42567 0.75497 0.0
O468 O 0.46135 0.38902 0.74011 0.0
H469 H 0.4498 0.34104 0.89607 0.0
H470 H 0.45653 0.34497 0.96675 0.0
C471 C 0.46124 0.34904 0.92409 0.0
H472 H 0.47771 0.34212 0.91533 0.0
H473 H 0.43845 0.35036 0.76767 0.0
O474 O 0.48112 0.45447 0.85527 0.0
C475 C 0.45459 0.40864 0.72693 0.0
Co476 Co 0.07504 0.45269 0.33922 0.0
Co477 Co 0.12507 0.45865 0.34339 0.0
C478 C 0.09794 0.49518 0.30194 0.0
O479 O 0.08239 0.48176 0.30676 0.0
O480 O 0.11693 0.48978 0.31764 0.0
C481 C 0.04253 0.47497 0.38901 0.0
O482 O 0.05988 0.48697 0.39588 0.0
C483 C 0.17155 0.46864 0.33401 0.0
C484 C 0.18629 0.43929 0.37594 0.0
C485 C 0.19126 0.45883 0.3482 0.0
N486 N 0.1556 0.4556 0.35315 0.0
N487 N 0.16456 0.43802 0.37782 0.0
C488 C 0.1678 0.48997 0.30279 0.0
H489 H 0.1576 0.50158 0.32771 0.0
H490 H 0.18322 0.4983 0.29221 0.0
H491 H 0.15879 0.48635 0.2651 0.0
C492 C 0.08172 0.43744 0.44988 0.0
N493 N 0.08976 0.44624 0.40371 0.0
N494 N 0.11029 0.45084 0.40984 0.0
C495 C 0.11567 0.4461 0.46218 0.0
C496 C 0.0976 0.43751 0.48921 0.0
C497 C 0.06004 0.42659 0.45398 0.0
H498 H 0.05463 0.42129 0.41322 0.0
H499 H 0.048 0.4387 0.47111 0.0
H500 H 0.06078 0.41171 0.48138 0.0
O501 O 0.0822 0.42969 0.28609 0.0
O502 O 0.11767 0.43621 0.28491 0.0
H503 H 0.14697 0.43469 0.48787 0.0
H504 H 0.13504 0.4563 0.52934 0.0
C505 C 0.13721 0.4505 0.48674 0.0
H506 H 0.14603 0.46326 0.46255 0.0
H507 H 0.15583 0.42478 0.39451 0.0
O508 O 0.04419 0.45704 0.36115 0.0
C509 C 0.10124 0.42583 0.26711 0.0
Co510 Co 0.02113 0.06778 0.78697 0.0
Co511 Co 0.018 0.11969 0.76607 0.0
C512 C 0.97933 0.09282 0.75409 0.0
O513 O 0.99131 0.07593 0.7655 0.0
O514 O 0.98684 0.11257 0.75231 0.0
C515 C 0.00387 0.03786 0.85898 0.0
O516 O 0.99249 0.05637 0.86766 0.0
C517 C 0.01106 0.16931 0.77364 0.0
C518 C 0.04373 0.1804 0.74908 0.0
C519 C 0.02364 0.18827 0.76693 0.0
N520 N 0.02332 0.15114 0.76058 0.0
N521 N 0.04272 0.15799 0.74539 0.0
C522 C 0.98851 0.16826 0.79634 0.0
H523 H 0.98528 0.15125 0.81275 0.0
H524 H 0.98601 0.18095 0.82876 0.0
H525 H 0.97685 0.17202 0.76329 0.0
C526 C 0.04124 0.0827 0.88746 0.0
N527 N 0.03145 0.08727 0.83996 0.0
N528 N 0.02778 0.10899 0.83555 0.0
C529 C 0.03412 0.1188 0.88212 0.0
C530 C 0.04302 0.10239 0.91621 0.0
C531 C 0.04831 0.0597 0.90589 0.0
H532 H 0.05116 0.04858 0.87053 0.0
H533 H 0.03566 0.05262 0.9331 0.0
H534 H 0.06351 0.06029 0.92933 0.0
O535 O 0.04037 0.06866 0.72272 0.0
O536 O 0.03664 0.10534 0.70716 0.0
H537 H 0.04266 0.15266 0.86514 0.0
H538 H 0.03653 0.14709 0.93606 0.0
C539 C 0.03197 0.14331 0.89356 0.0
H540 H 0.01503 0.14903 0.88639 0.0
H541 H 0.05551 0.14725 0.73401 0.0
O542 O 0.01828 0.03783 0.8214 0.0
C543 C 0.0446 0.08608 0.69443 0.0
H544 H 0.95319 0.00961 0.50602 0.0
H545 H 0.99282 0.96178 0.59516 0.0
H546 H 0.02116 0.9643 0.52519 0.0
H547 H 0.03432 0.97967 0.4388 0.0
H548 H 0.99485 0.0276 0.34957 0.0
H549 H 0.96645 0.0251 0.41954 0.0
C550 C 0.96809 0.99984 0.51045 0.0
C551 C 0.97094 0.98557 0.55581 0.0
C552 C 0.98413 0.00115 0.46984 0.0
C553 C 0.99028 0.97295 0.56073 0.0
C554 C 0.00642 0.9743 0.52064 0.0
C555 C 0.01945 0.98948 0.43431 0.0
C556 C 0.01664 0.00373 0.38893 0.0
C557 C 0.00342 0.98821 0.4749 0.0
C558 C 0.99734 0.01641 0.384 0.0
C559 C 0.98117 0.01508 0.42409 0.0
H560 H 0.46479 0.00477 0.95163 0.0
H561 H 0.52925 0.00329 0.88117 0.0
H562 H 0.54423 0.99199 0.96892 0.0
H563 H 0.53924 0.98449 0.06644 0.0
H564 H 0.47471 0.9851 0.1364 0.0
H565 H 0.45978 0.99705 0.04906 0.0
C566 C 0.48212 0.00205 0.95544 0.0
C567 C 0.49587 0.00523 0.91005 0.0
C568 C 0.49072 0.99634 0.00637 0.0
C569 C 0.51824 0.00096 0.91535 0.0
C570 C 0.52689 0.99483 0.96573 0.0
C571 C 0.5219 0.98715 0.06257 0.0
C572 C 0.50812 0.98347 0.10765 0.0
C573 C 0.51331 0.99292 0.01168 0.0
C574 C 0.48575 0.98778 0.10244 0.0
C575 C 0.47713 0.99427 0.05226 0.0
H576 H 0.53011 0.48283 0.56466 0.0
H577 H 0.48856 0.53557 0.62955 0.0
H578 H 0.46417 0.53167 0.55267 0.0
H579 H 0.45565 0.5145 0.46587 0.0
H580 H 0.49763 0.46245 0.39958 0.0
H581 H 0.52153 0.46557 0.47786 0.0
C582 C 0.51569 0.49348 0.56222 0.0
C583 C 0.51125 0.50963 0.60256 0.0
C584 C 0.50217 0.49163 0.51725 0.0
C585 C 0.49236 0.52304 0.59902 0.0
C586 C 0.47852 0.52094 0.5549 0.0
C587 C 0.47011 0.50391 0.46819 0.0
C588 C 0.47495 0.48833 0.42684 0.0
C589 C 0.48351 0.50557 0.51341 0.0
C590 C 0.49368 0.4747 0.43066 0.0
C591 C 0.50721 0.47634 0.47558 0.0
H592 H 0.00468 0.50361 0.02333 0.0
H593 H 0.96574 0.47248 0.14873 0.0
H594 H 0.96815 0.43674 0.10048 0.0
H595 H 0.98261 0.41398 0.0238 0.0
H596 H 0.0207 0.44567 0.8981 0.0
H597 H 0.0172 0.4817 0.94485 0.0
C598 C 0.99677 0.48899 0.04023 0.0
C599 C 0.9853 0.49058 0.08983 0.0
C600 C 0.99799 0.46867 0.01199 0.0
C601 C 0.97478 0.47161 0.11069 0.0
C602 C 0.97613 0.4512 0.08313 0.0
C603 C 0.98985 0.42892 0.00665 0.0
C604 C 0.00193 0.42745 0.95808 0.0
C605 C 0.98781 0.44949 0.03391 0.0
C606 C 0.01134 0.44668 0.93565 0.0
C607 C 0.00943 0.46716 0.96243 0.0
H608 H 0.52014 0.97032 0.53638 0.0
H609 H 0.51727 0.04141 0.5682 0.0
H610 H 0.49757 0.0478 0.4836 0.0
H611 H 0.48159 0.03321 0.40041 0.0
H612 H 0.48528 0.96216 0.36818 0.0
H613 H 0.50583 0.956 0.45137 0.0
C614 C 0.51536 0.98725 0.52482 0.0
C615 C 0.52038 0.00536 0.55846 0.0
C616 C 0.5048 0.9909 0.47526 0.0
C617 C 0.51364 0.02713 0.54311 0.0
C618 C 0.50257 0.03084 0.49447 0.0
C619 C 0.48705 0.01639 0.41129 0.0
C620 C 0.48158 0.99815 0.37852 0.0
C621 C 0.49828 0.01287 0.46 0.0
C622 C 0.48916 0.97653 0.39268 0.0
C623 C 0.50068 0.97293 0.44064 0.0
H624 H 0.53869 0.50538 0.06699 0.0
H625 H 0.47112 0.50773 0.11473 0.0
H626 H 0.46127 0.49211 0.02708 0.0
H627 H 0.47164 0.47974 0.93527 0.0
H628 H 0.53918 0.47816 0.887 0.0
H629 H 0.54902 0.49344 0.97497 0.0
C630 C 0.52179 0.50257 0.05826 0.0
C631 C 0.50568 0.50811 0.09714 0.0
C632 C 0.51615 0.49452 0.00696 0.0
C633 C 0.4839 0.5037 0.08561 0.0
C634 C 0.47821 0.49504 0.03518 0.0
C635 C 0.48852 0.48273 0.94391 0.0
C636 C 0.50463 0.4775 0.90478 0.0
C637 C 0.49415 0.49085 0.99518 0.0
C638 C 0.52639 0.48201 0.91626 0.0
C639 C 0.53209 0.49047 0.96687 0.0
H640 H 0.97629 0.51163 0.56241 0.0
H641 H 0.95476 0.44332 0.55769 0.0
H642 H 0.9809 0.43494 0.48453 0.0
H643 H 0.01079 0.44694 0.42406 0.0
H644 H 0.03136 0.51564 0.42887 0.0
H645 H 0.00409 0.52416 0.49851 0.0
C646 C 0.9774 0.49487 0.5456 0.0
C647 C 0.96387 0.47805 0.56573 0.0
C648 C 0.99199 0.49036 0.50288 0.0
C649 C 0.96518 0.45651 0.54296 0.0
C650 C 0.98001 0.45175 0.50099 0.0
C651 C 0.00896 0.46385 0.43962 0.0
C652 C 0.02314 0.48058 0.42185 0.0
C653 C 0.99352 0.46856 0.48062 0.0
C654 C 0.0207 0.50242 0.44237 0.0
C655 C 0.00524 0.5073 0.48243 0.0
H656 H 0.00945 0.95213 0.00984 0.0
H657 H 0.96116 0.99008 0.10087 0.0
H658 H 0.9629 0.02036 0.03333 0.0
H659 H 0.97781 0.03569 0.94833 0.0
H660 H 0.026 0.99764 0.85723 0.0
H661 H 0.02435 0.96745 0.92494 0.0
C662 C 0.99938 0.96707 0.01523 0.0
C663 C 0.98524 0.96889 0.06049 0.0
C664 C 0.00027 0.98422 0.97601 0.0
C665 C 0.97224 0.98831 0.06656 0.0
C666 C 0.97316 0.00557 0.02784 0.0
C667 C 0.98789 0.02075 0.943 0.0
C668 C 0.00196 0.01888 0.89764 0.0
C669 C 0.98701 0.00361 0.98228 0.0
C670 C 0.01496 0.99945 0.89161 0.0
C671 C 0.01409 0.98224 0.93043 0.0
H672 H 0.04585 0.07584 0.15949 0.0
H673 H 0.11225 0.06014 0.11431 0.0
H674 H 0.10739 0.07965 0.02751 0.0
H675 H 0.08266 0.09574 0.95902 0.0
H676 H 0.01594 0.10948 0.00202 0.0
H677 H 0.02266 0.09702 0.09573 0.0
C678 C 0.05936 0.07692 0.13101 0.0
C679 C 0.07925 0.06607 0.14301 0.0
C680 C 0.0564 0.088 0.08085 0.0
C681 C 0.09668 0.06805 0.10596 0.0
C682 C 0.09392 0.07924 0.05624 0.0
C683 C 0.06988 0.0968 0.98968 0.0
C684 C 0.04888 0.10344 0.97415 0.0
C685 C 0.07367 0.08859 0.04253 0.0
C686 C 0.03228 0.10462 0.01355 0.0
C687 C 0.03605 0.09713 0.06678 0.0
H688 H 0.4252 0.03439 0.6949 0.0
H689 H 0.43433 0.10413 0.65342 0.0
H690 H 0.4146 0.09935 0.56919 0.0
H691 H 0.39876 0.07445 0.50221 0.0
H692 H 0.39151 0.00444 0.53998 0.0
H693 H 0.40565 0.01032 0.63163 0.0
C694 C 0.42278 0.04857 0.6676 0.0
C695 C 0.43162 0.06948 0.68014 0.0
C696 C 0.41144 0.04572 0.6189 0.0
C697 C 0.42799 0.08776 0.64461 0.0
C698 C 0.4166 0.08509 0.59645 0.0
C699 C 0.39949 0.06074 0.53151 0.0
C700 C 0.394 0.03914 0.51515 0.0
C701 C 0.40868 0.06407 0.58266 0.0
C702 C 0.39536 0.02127 0.55245 0.0
C703 C 0.4038 0.02458 0.60433 0.0
H704 H 0.45085 0.41343 0.19429 0.0
H705 H 0.38508 0.43169 0.15164 0.0
H706 H 0.38975 0.41316 0.06408 0.0
H707 H 0.41444 0.39769 0.99401 0.0
H708 H 0.48052 0.38111 0.03453 0.0
H709 H 0.47371 0.39236 0.12906 0.0
C710 C 0.43742 0.41307 0.16622 0.0
C711 C 0.41782 0.42441 0.17907 0.0
C712 C 0.44028 0.40257 0.11558 0.0
C713 C 0.40046 0.42338 0.1426 0.0
C714 C 0.4031 0.41278 0.09242 0.0
C715 C 0.42699 0.39565 0.02435 0.0
C716 C 0.44786 0.38857 0.00804 0.0
C717 C 0.42317 0.40307 0.07772 0.0
C718 C 0.46426 0.38629 0.04682 0.0
C719 C 0.46045 0.39306 0.10051 0.0
H720 H 0.06464 0.44783 0.55695 0.0
H721 H 0.12383 0.40851 0.54791 0.0
H722 H 0.11378 0.38878 0.6325 0.0
H723 H 0.08557 0.37949 0.70232 0.0
H724 H 0.02433 0.41571 0.69991 0.0
H725 H 0.03731 0.4393 0.62553 0.0
C726 C 0.0754 0.43499 0.57368 0.0
C727 C 0.09475 0.42937 0.54599 0.0
C728 C 0.0688 0.42276 0.61954 0.0
C729 C 0.10887 0.41321 0.56874 0.0
C730 C 0.10295 0.4017 0.61659 0.0
C731 C 0.0752 0.39263 0.6855 0.0
C732 C 0.05394 0.39571 0.70609 0.0
C733 C 0.08255 0.40576 0.64123 0.0
C734 C 0.0406 0.41277 0.68411 0.0
C735 C 0.04806 0.42638 0.64188 0.0
H736 H 0.60138 0.92157 0.82285 0.0
H737 H 0.53575 0.94466 0.79321 0.0
H738 H 0.52357 0.92661 0.87721 0.0
H739 H 0.53244 0.90891 0.96496 0.0
H740 H 0.59797 0.88712 0.99702 0.0
H741 H 0.60929 0.89936 0.90555 0.0
C742 C 0.58436 0.9224 0.83439 0.0
C743 C 0.56957 0.93476 0.80214 0.0
C744 C 0.57744 0.91204 0.88301 0.0
C745 C 0.54752 0.93539 0.81733 0.0
C746 C 0.54052 0.92508 0.86544 0.0
C747 C 0.54899 0.90605 0.95081 0.0
C748 C 0.56436 0.89691 0.98678 0.0
C749 C 0.55543 0.91391 0.89927 0.0
C750 C 0.58588 0.89372 0.96921 0.0
C751 C 0.59236 0.90105 0.91736 0.0
H752 H 0.58271 0.53751 0.30459 0.0
H753 H 0.56838 0.606 0.35063 0.0
H754 H 0.58701 0.60012 0.43642 0.0
H755 H 0.60208 0.57393 0.50435 0.0
H756 H 0.61527 0.50529 0.46071 0.0
H757 H 0.60322 0.51292 0.36759 0.0
C758 C 0.5839 0.55122 0.33308 0.0
C759 C 0.5737 0.572 0.32153 0.0
C760 C 0.59468 0.54775 0.38272 0.0
C761 C 0.57578 0.58971 0.35859 0.0
C762 C 0.5865 0.58641 0.40778 0.0
C763 C 0.60332 0.56102 0.47352 0.0
C764 C 0.6098 0.53923 0.48865 0.0
C765 C 0.5954 0.56532 0.42102 0.0
C766 C 0.61077 0.52232 0.44923 0.0
C767 C 0.60346 0.52659 0.39639 0.0
H768 H 0.96702 0.58029 0.96451 0.0
H769 H 0.90246 0.59265 0.02665 0.0
H770 H 0.88729 0.5822 0.93866 0.0
H771 H 0.89253 0.56304 0.85054 0.0
H772 H 0.9576 0.54879 0.79173 0.0
H773 H 0.97244 0.56651 0.87162 0.0
C774 C 0.94969 0.58165 0.95773 0.0
C775 C 0.93582 0.58744 0.00127 0.0
C776 C 0.94118 0.57458 0.90818 0.0
C777 C 0.91338 0.58866 0.99307 0.0
C778 C 0.90474 0.58228 0.94313 0.0
C779 C 0.90996 0.56411 0.85475 0.0
C780 C 0.92389 0.55411 0.81557 0.0
C781 C 0.91848 0.57414 0.90136 0.0
C782 C 0.94644 0.55597 0.82148 0.0
C783 C 0.95499 0.56617 0.86719 0.0
H784 H 0.91653 0.93524 0.28993 0.0
H785 H 0.93516 0.86768 0.33655 0.0
H786 H 0.917 0.8726 0.42459 0.0
H787 H 0.90103 0.89806 0.49329 0.0
H788 H 0.8842 0.96602 0.44853 0.0
H789 H 0.89571 0.95884 0.35432 0.0
C790 C 0.91637 0.92146 0.319 0.0
C791 C 0.92761 0.90127 0.30693 0.0
C792 C 0.90608 0.92448 0.36987 0.0
C793 C 0.92687 0.88349 0.34483 0.0
C794 C 0.91649 0.88628 0.39529 0.0
C795 C 0.89912 0.91096 0.4622 0.0
C796 C 0.8918 0.93249 0.47732 0.0
C797 C 0.9067 0.90694 0.40892 0.0
C798 C 0.88957 0.94926 0.43735 0.0
C799 C 0.89649 0.94524 0.3838 0.0
H800 H 0.90906 0.8897 0.98622 0.0
H801 H 0.97726 0.88385 0.9492 0.0
H802 H 0.97075 0.89684 0.85576 0.0
H803 H 0.94644 0.91586 0.79069 0.0
H804 H 0.87833 0.92369 0.83046 0.0
H805 H 0.88396 0.90399 0.91659 0.0
C806 C 0.92231 0.89048 0.95683 0.0
C807 C 0.94354 0.88577 0.97392 0.0
C808 C 0.91851 0.89894 0.90427 0.0
C809 C 0.96075 0.88709 0.93631 0.0
C810 C 0.95705 0.89487 0.88329 0.0
C811 C 0.93276 0.91302 0.81782 0.0
C812 C 0.91207 0.92169 0.80447 0.0
C813 C 0.93613 0.90185 0.86771 0.0
C814 C 0.89449 0.91751 0.83987 0.0
C815 C 0.89767 0.90619 0.88921 0.0
H816 H 0.59722 0.90744 0.50726 0.0
H817 H 0.62132 0.97101 0.45241 0.0
H818 H 0.61008 0.96306 0.35937 0.0
H819 H 0.58669 0.94157 0.29932 0.0
H820 H 0.56094 0.87868 0.35587 0.0
H821 H 0.57938 0.88275 0.44256 0.0
C822 C 0.60103 0.91892 0.47417 0.0
C823 C 0.61016 0.93966 0.48607 0.0
C824 C 0.59339 0.91474 0.42166 0.0
C825 C 0.61462 0.95479 0.44363 0.0
C826 C 0.60775 0.95044 0.39078 0.0
C827 C 0.58533 0.92863 0.33039 0.0
C828 C 0.57202 0.91014 0.32171 0.0
C829 C 0.59596 0.93109 0.38019 0.0
C830 C 0.57083 0.89324 0.36181 0.0
C831 C 0.58142 0.89553 0.41138 0.0
H832 H 0.53086 0.58594 0.96468 0.0
H833 H 0.59594 0.60307 0.00665 0.0
H834 H 0.60891 0.59182 0.91586 0.0
H835 H 0.60245 0.57074 0.8319 0.0
H836 H 0.53721 0.55188 0.79297 0.0
H837 H 0.52352 0.57031 0.87488 0.0
C838 C 0.54771 0.58808 0.95284 0.0
C839 C 0.56248 0.59543 0.99149 0.0
C840 C 0.55506 0.58069 0.90172 0.0
C841 C 0.58433 0.59777 0.97683 0.0
C842 C 0.59175 0.591 0.92533 0.0
C843 C 0.58519 0.571 0.84079 0.0
C844 C 0.57097 0.5595 0.80682 0.0
C845 C 0.5774 0.5814 0.88851 0.0
C846 C 0.5486 0.56031 0.81862 0.0
C847 C 0.54072 0.57086 0.86555 0.0
H848 H 0.91982 0.58973 0.35306 0.0
H849 H 0.92081 0.52146 0.29528 0.0
H850 H 0.8995 0.50983 0.37398 0.0
H851 H 0.88635 0.51759 0.46628 0.0
H852 H 0.88743 0.58475 0.5283 0.0
H853 H 0.90122 0.5985 0.44034 0.0
C854 C 0.91508 0.57238 0.35723 0.0
C855 C 0.92241 0.55644 0.31877 0.0
C856 C 0.90296 0.56564 0.40328 0.0
C857 C 0.91583 0.53408 0.32461 0.0
C858 C 0.90352 0.52737 0.36959 0.0
C859 C 0.88856 0.5354 0.45939 0.0
C860 C 0.88569 0.55022 0.50303 0.0
C861 C 0.89769 0.54282 0.41007 0.0
C862 C 0.88912 0.57318 0.49466 0.0
C863 C 0.89746 0.58091 0.44477 0.0
H864 H 0.39616 0.07992 0.98994 0.0
H865 H 0.45819 0.10495 0.03625 0.0
H866 H 0.45075 0.09507 0.13151 0.0
H867 H 0.42989 0.07255 0.19668 0.0
H868 H 0.36871 0.04528 0.14909 0.0
H869 H 0.37234 0.06291 0.05938 0.0
C870 C 0.40758 0.08398 0.02148 0.0
C871 C 0.42768 0.09297 0.0067 0.0
C872 C 0.40358 0.07728 0.07549 0.0
C873 C 0.44257 0.09813 0.04718 0.0
C874 C 0.43843 0.09217 0.10138 0.0
C875 C 0.41716 0.07076 0.16702 0.0
C876 C 0.39932 0.05716 0.17905 0.0
C877 C 0.41953 0.08062 0.11532 0.0
C878 C 0.38274 0.05544 0.14064 0.0
C879 C 0.38482 0.06547 0.08927 0.0
H880 H 0.43407 0.44672 0.68854 0.0
H881 H 0.44384 0.37621 0.65507 0.0
H882 H 0.42365 0.38033 0.57107 0.0
H883 H 0.40739 0.40471 0.50123 0.0
H884 H 0.39905 0.47531 0.53113 0.0
H885 H 0.41362 0.47035 0.62301 0.0
C886 C 0.43163 0.43223 0.66312 0.0
C887 C 0.44088 0.41129 0.67785 0.0
C888 C 0.41997 0.43468 0.61439 0.0
C889 C 0.43723 0.39262 0.64464 0.0
C890 C 0.42557 0.39491 0.59653 0.0
C891 C 0.40798 0.41879 0.52888 0.0
C892 C 0.40206 0.44026 0.51006 0.0
C893 C 0.41734 0.41592 0.58035 0.0
C894 C 0.40319 0.45856 0.54543 0.0
C895 C 0.41191 0.45576 0.59749 0.0
H896 H 0.12261 0.37537 0.04809 0.0
H897 H 0.05457 0.36065 0.06663 0.0
H898 H 0.05413 0.37589 0.15658 0.0
H899 H 0.07093 0.39889 0.22483 0.0
H900 H 0.13786 0.41742 0.20531 0.0
H901 H 0.14065 0.39559 0.12157 0.0
C902 C 0.1078 0.37501 0.07227 0.0
C903 C 0.08883 0.36628 0.04973 0.0
C904 C 0.10721 0.38516 0.12383 0.0
C905 C 0.06979 0.36618 0.08203 0.0
C906 C 0.06931 0.37549 0.13387 0.0
C907 C 0.08625 0.39798 0.20274 0.0
C908 C 0.10402 0.41013 0.22092 0.0
C909 C 0.08764 0.3858 0.15421 0.0
C910 C 0.12381 0.40843 0.19204 0.0
C911 C 0.12542 0.39596 0.14403 0.0
H912 H 0.08658 0.08838 0.45966 0.0
H913 H 0.10037 0.01927 0.49978 0.0
H914 H 0.08793 0.02556 0.5937 0.0
H915 H 0.06758 0.04922 0.6591 0.0
H916 H 0.05229 0.11811 0.61677 0.0
H917 H 0.07076 0.11345 0.52921 0.0
C918 C 0.08757 0.07498 0.48972 0.0
C919 C 0.09436 0.05345 0.47336 0.0
C920 C 0.07952 0.07854 0.54275 0.0
C921 C 0.09542 0.03604 0.51199 0.0
C922 C 0.08798 0.03957 0.56534 0.0
C923 C 0.0685 0.06331 0.63104 0.0
C924 C 0.05814 0.08386 0.64425 0.0
C925 C 0.07905 0.06049 0.5804 0.0
C926 C 0.05984 0.10201 0.6076 0.0
C927 C 0.07045 0.09939 0.55742 0.0
H928 H 0.03952 0.9089 0.13673 0.0
H929 H 0.02384 0.89338 0.30388 0.0
H930 H 0.05295 0.9174 0.33444 0.0
H931 H 0.07592 0.94978 0.313 0.0
H932 H 0.09072 0.96613 0.14581 0.0
H933 H 0.06944 0.93447 0.11541 0.0
C934 C 0.04333 0.90985 0.17968 0.0
C935 C 0.02975 0.89933 0.21811 0.0
C936 C 0.05969 0.92421 0.19678 0.0
C937 C 0.03437 0.90102 0.2737 0.0
C938 C 0.0508 0.91505 0.29112 0.0
C939 C 0.07541 0.9456 0.2701 0.0
C940 C 0.08493 0.96007 0.23159 0.0
C941 C 0.06264 0.92774 0.25307 0.0
C942 C 0.08382 0.95495 0.17606 0.0
C943 C 0.07137 0.93704 0.15872 0.0
H944 H 0.59013 0.02875 0.80665 0.0
H945 H 0.58996 0.05064 0.63941 0.0
H946 H 0.56392 0.08063 0.66142 0.0
H947 H 0.53349 0.0922 0.72199 0.0
H948 H 0.5314 0.06706 0.88677 0.0
H949 H 0.56593 0.04725 0.87291 0.0
C950 C 0.58545 0.04103 0.7759 0.0
C951 C 0.59188 0.03752 0.72157 0.0
C952 C 0.56931 0.05726 0.78833 0.0
C953 C 0.58538 0.05321 0.68168 0.0
C954 C 0.57007 0.07007 0.69409 0.0
C955 C 0.54124 0.08338 0.75552 0.0
C956 C 0.53 0.08102 0.80524 0.0
C957 C 0.56071 0.0711 0.74636 0.0
C958 C 0.53989 0.06914 0.84822 0.0
C959 C 0.55955 0.05762 0.84013 0.0
H960 H 0.42187 0.54132 0.33641 0.0
H961 H 0.40833 0.52208 0.17188 0.0
H962 H 0.43164 0.5517 0.13683 0.0
H963 H 0.46288 0.57548 0.15468 0.0
H964 H 0.47765 0.59355 0.3193 0.0
H965 H 0.44644 0.57262 0.35302 0.0
C966 C 0.42308 0.54453 0.29292 0.0
C967 C 0.41337 0.52975 0.25662 0.0
C968 C 0.43709 0.56114 0.27329 0.0
C969 C 0.41538 0.53356 0.20039 0.0
C970 C 0.42899 0.55028 0.18043 0.0
C971 C 0.45848 0.57582 0.1976 0.0
C972 C 0.4724 0.586 0.23458 0.0
C973 C 0.44096 0.56315 0.21661 0.0
C974 C 0.46693 0.58608 0.29017 0.0
C975 C 0.44929 0.5738 0.30946 0.0
H976 H 0.90566 0.44101 0.66248 0.0
H977 H 0.88272 0.45591 0.82464 0.0
H978 H 0.89663 0.41935 0.85689 0.0
H979 H 0.92257 0.38766 0.84219 0.0
H980 H 0.94895 0.37611 0.68116 0.0
H981 H 0.92627 0.40653 0.64478 0.0
C982 C 0.90306 0.43587 0.70448 0.0
C983 C 0.8934 0.45106 0.74131 0.0
C984 C 0.91213 0.41554 0.72296 0.0
C985 C 0.88996 0.44434 0.79555 0.0
C986 C 0.89823 0.4236 0.81405 0.0
C987 C 0.92274 0.39132 0.79886 0.0
C988 C 0.93753 0.37983 0.76436 0.0
C989 C 0.91043 0.40966 0.77872 0.0
C990 C 0.93776 0.38483 0.70841 0.0
C991 C 0.92489 0.40229 0.68768 0.0
H992 H 0.94746 0.07706 0.81869 0.0
H993 H 0.96256 0.09551 0.65294 0.0
H994 H 0.93351 0.07186 0.62047 0.0
H995 H 0.91098 0.03886 0.63906 0.0
H996 H 0.89645 0.01989 0.80478 0.0
H997 H 0.91757 0.05118 0.83792 0.0
C998 C 0.94354 0.07683 0.77573 0.0
C999 C 0.95699 0.088 0.73815 0.0
C1000 C 0.92716 0.06274 0.75746 0.0
C1001 C 0.95216 0.08731 0.68252 0.0
C1002 C 0.93577 0.07349 0.66396 0.0
C1003 C 0.91148 0.0424 0.68231 0.0
C1004 C 0.90216 0.02726 0.71955 0.0
C1005 C 0.92411 0.0601 0.7009 0.0
C1006 C 0.90322 0.03159 0.77551 0.0
C1007 C 0.91559 0.04928 0.79441 0.0
H1008 H 0.46712 0.89928 0.28793 0.0
H1009 H 0.47031 0.9185 0.11867 0.0
H1010 H 0.4355 0.93833 0.12683 0.0
H1011 H 0.40971 0.95789 0.1873 0.0
H1012 H 0.4079 0.94143 0.35805 0.0
H1013 H 0.43584 0.9123 0.34433 0.0
C1014 C 0.45958 0.90687 0.25242 0.0
C1015 C 0.47108 0.90739 0.20273 0.0
C1016 C 0.43984 0.91901 0.25802 0.0
C1017 C 0.46155 0.91775 0.15714 0.0
C1018 C 0.44174 0.92927 0.16194 0.0
C1019 C 0.41451 0.94694 0.22074 0.0
C1020 C 0.40667 0.95156 0.27341 0.0
C1021 C 0.4314 0.9311 0.21286 0.0
C1022 C 0.41343 0.93781 0.31694 0.0
C1023 C 0.42975 0.92146 0.30923 0.0
H1024 H 0.59677 0.43849 0.68051 0.0
H1025 H 0.6018 0.46829 0.83877 0.0
H1026 H 0.57808 0.43989 0.87758 0.0
H1027 H 0.54776 0.4149 0.85915 0.0
H1028 H 0.54122 0.38642 0.69972 0.0
H1029 H 0.57394 0.4055 0.66856 0.0
C1030 C 0.59379 0.4378 0.72414 0.0
C1031 C 0.60078 0.45552 0.75673 0.0
C1032 C 0.57924 0.42206 0.74541 0.0
C1033 C 0.59674 0.45472 0.81305 0.0
C1034 C 0.58274 0.43874 0.83498 0.0
C1035 C 0.55419 0.41201 0.81841 0.0
C1036 C 0.54212 0.39953 0.78147 0.0
C1037 C 0.57262 0.42353 0.80059 0.0
C1038 C 0.55037 0.39589 0.72877 0.0
C1039 C 0.56892 0.40703 0.71084 0.0
H1040 H 0.03922 0.55526 0.16763 0.0
H1041 H 0.02052 0.57807 0.32766 0.0
H1042 H 0.05317 0.56033 0.36593 0.0
H1043 H 0.08156 0.53082 0.35584 0.0
H1044 H 0.09929 0.50721 0.19596 0.0
H1045 H 0.07318 0.53345 0.15499 0.0
C1046 C 0.04286 0.55716 0.21047 0.0
C1047 C 0.02756 0.56779 0.24497 0.0
C1048 C 0.06147 0.54665 0.23209 0.0
C1049 C 0.03221 0.5701 0.30041 0.0
C1050 C 0.05076 0.55975 0.32231 0.0
C1051 C 0.0806 0.53246 0.31187 0.0
C1052 C 0.09241 0.5173 0.27879 0.0
C1053 C 0.06485 0.54696 0.28893 0.0
C1054 C 0.09066 0.51903 0.22201 0.0
C1055 C 0.0754 0.53374 0.19871 0.0
H1056 H 0.21056 0.00191 0.23252 0.0
H1057 H 0.19665 0.0496 0.35968 0.0
H1058 H 0.23448 0.04781 0.38825 0.0
H1059 H 0.27199 0.03624 0.37012 0.0
H1060 H 0.287 0.99089 0.23846 0.0
H1061 H 0.24837 0.98771 0.21925 0.0
C1062 C 0.21586 0.01146 0.26718 0.0
C1063 C 0.20108 0.02584 0.29422 0.0
C1064 C 0.23782 0.01082 0.28231 0.0
C1065 C 0.20792 0.03843 0.33858 0.0
C1066 C 0.2295 0.03746 0.35472 0.0
C1067 C 0.26678 0.02535 0.33777 0.0
C1068 C 0.28234 0.01369 0.30611 0.0
C1069 C 0.24468 0.02425 0.32583 0.0
C1070 C 0.27538 0.99965 0.26434 0.0
C1071 C 0.25327 0.99807 0.25284 0.0
H1072 H 0.4861 0.20222 0.78096 0.0
H1073 H 0.42045 0.20163 0.84335 0.0
H1074 H 0.42056 0.24221 0.8537 0.0
H1075 H 0.43771 0.27789 0.8362 0.0
H1076 H 0.50254 0.27961 0.76917 0.0
H1077 H 0.50467 0.23854 0.77076 0.0
C1078 C 0.47207 0.21098 0.79802 0.0
C1079 C 0.45327 0.19908 0.81129 0.0
C1080 C 0.47209 0.23447 0.80277 0.0
C1081 C 0.43502 0.21057 0.83247 0.0
C1082 C 0.43507 0.23372 0.83843 0.0
C1083 C 0.45242 0.26927 0.82253 0.0
C1084 C 0.46991 0.28168 0.80257 0.0
C1085 C 0.45326 0.24586 0.82225 0.0
C1086 C 0.48895 0.2704 0.78544 0.0
C1087 C 0.49008 0.24692 0.78582 0.0
H1088 H 0.28226 0.46988 0.23584 0.0
H1089 H 0.30259 0.46604 0.40298 0.0
H1090 H 0.26475 0.4663 0.43386 0.0
H1091 H 0.22601 0.46322 0.41236 0.0
H1092 H 0.20566 0.46722 0.24524 0.0
H1093 H 0.2433 0.47152 0.215 0.0
C1094 C 0.27829 0.46964 0.27901 0.0
C1095 C 0.295 0.46823 0.31721 0.0
C1096 C 0.25654 0.46963 0.29629 0.0
C1097 C 0.2899 0.46771 0.37303 0.0
C1098 C 0.26829 0.46756 0.39062 0.0
C1099 C 0.22989 0.46549 0.36948 0.0
C1100 C 0.21327 0.46506 0.33101 0.0
C1101 C 0.25151 0.46792 0.35254 0.0
C1102 C 0.21827 0.46789 0.2755 0.0
C1103 C 0.23976 0.47015 0.25822 0.0
H1104 H 0.99453 0.29026 0.78804 0.0
H1105 H 0.05816 0.29271 0.85946 0.0
H1106 H 0.06265 0.25249 0.84962 0.0
H1107 H 0.0498 0.21685 0.8165 0.0
H1108 H 0.98642 0.21297 0.74586 0.0
H1109 H 0.98044 0.25332 0.76028 0.0
C1110 C 0.00929 0.28196 0.80179 0.0
C1111 C 0.02604 0.29471 0.8239 0.0
C1112 C 0.01186 0.25852 0.79619 0.0
C1113 C 0.04501 0.28355 0.84187 0.0
C1114 C 0.04765 0.26045 0.8363 0.0
C1115 C 0.0346 0.22481 0.80457 0.0
C1116 C 0.01859 0.212 0.78017 0.0
C1117 C 0.03138 0.24785 0.8128 0.0
C1118 C 0.9989 0.22245 0.76537 0.0
C1119 C 0.99557 0.24555 0.77321 0.0
H1120 H 0.71088 0.98443 0.7262 0.0
H1121 H 0.70278 0.91629 0.67371 0.0
H1122 H 0.74168 0.91211 0.65787 0.0
H1123 H 0.77806 0.92655 0.66542 0.0
H1124 H 0.78732 0.9937 0.72335 0.0
H1125 H 0.74804 0.99976 0.72924 0.0
C1126 C 0.71767 0.96887 0.71036 0.0
C1127 C 0.70404 0.95068 0.7012 0.0
C1128 C 0.74026 0.96639 0.70233 0.0
C1129 C 0.71301 0.93045 0.68148 0.0
C1130 C 0.73523 0.92805 0.67233 0.0
C1131 C 0.77151 0.94262 0.67889 0.0
C1132 C 0.78566 0.95969 0.69338 0.0
C1133 C 0.74902 0.94571 0.68372 0.0
C1134 C 0.77689 0.98042 0.71061 0.0
C1135 C 0.75437 0.9838 0.71466 0.0
H1136 H 0.51853 0.70829 0.22491 0.0
H1137 H 0.58029 0.70016 0.14254 0.0
H1138 H 0.58169 0.74043 0.12604 0.0
H1139 H 0.56766 0.778 0.14443 0.0
H1140 H 0.50714 0.78722 0.23157 0.0
H1141 H 0.50257 0.74652 0.23567 0.0
C1142 C 0.53197 0.71537 0.20224 0.0
C1143 C 0.54934 0.70145 0.18515 0.0
C1144 C 0.53293 0.73869 0.19404 0.0
C1145 C 0.56686 0.7107 0.15648 0.0
C1146 C 0.56768 0.73368 0.14702 0.0
C1147 C 0.5533 0.77108 0.16361 0.0
C1148 C 0.53778 0.78547 0.18762 0.0
C1149 C 0.55116 0.74785 0.16715 0.0
C1150 C 0.51917 0.77643 0.21206 0.0
C1151 C 0.51668 0.75317 0.21493 0.0
H1152 H 0.78107 0.56628 0.70386 0.0
H1153 H 0.78766 0.49794 0.76046 0.0
H1154 H 0.74828 0.49384 0.75773 0.0
H1155 H 0.71182 0.51077 0.74515 0.0
H1156 H 0.70585 0.5793 0.6887 0.0
H1157 H 0.74512 0.58232 0.68611 0.0
C1158 C 0.77387 0.55045 0.71531 0.0
C1159 C 0.78719 0.5324 0.73189 0.0
C1160 C 0.75132 0.54831 0.714 0.0
C1161 C 0.77774 0.51195 0.74649 0.0
C1162 C 0.75522 0.50967 0.74537 0.0
C1163 C 0.7191 0.52614 0.73094 0.0
C1164 C 0.70589 0.54472 0.71677 0.0
C1165 C 0.74181 0.52783 0.7297 0.0
C1166 C 0.71565 0.56477 0.70006 0.0
C1167 C 0.73811 0.56654 0.69849 0.0
H1168 H 0.97421 0.70068 0.28782 0.0
H1169 H 0.96089 0.68422 0.12111 0.0
H1170 H 0.96255 0.72382 0.09527 0.0
H1171 H 0.96372 0.76344 0.1223 0.0
H1172 H 0.9777 0.78017 0.2884 0.0
H1173 H 0.98015 0.74023 0.31247 0.0
C1174 C 0.97216 0.70582 0.24568 0.0
C1175 C 0.96767 0.68965 0.20624 0.0
C1176 C 0.9731 0.72865 0.23123 0.0
C1177 C 0.96487 0.69635 0.15184 0.0
C1178 C 0.96557 0.71901 0.1372 0.0
C1179 C 0.96776 0.75825 0.16347 0.0
C1180 C 0.97059 0.77457 0.20357 0.0
C1181 C 0.96914 0.73534 0.1768 0.0
C1182 C 0.97576 0.76782 0.25681 0.0
C1183 C 0.97695 0.74502 0.27061 0.0
loop_
_geom_bond_atom_site_label_1
_geom_bond_atom_site_label_2
_geom_bond_distance
_geom_bond_site_symmetry_2
_ccdc_geom_bond_type
Co0 O3 1.970 1_545 S
Co0 N17 1.989 . S
Co0 O25 1.967 . S
Co0 O32 1.920 . S
Co1 O4 1.966 1_545 S
Co1 N10 2.022 . S
Co1 N18 1.993 . S
Co1 O26 1.941 . S
C2 O3 1.258 . S
C2 O4 1.263 . S
O3 Co0 1.970 1_565 S
O3 C2 1.258 . S
O4 Co1 1.966 1_565 S
O4 C2 1.263 . S
C5 O6 1.235 1_545 S
C5 O32 1.289 . S
O6 C5 1.235 1_565 S
C7 C9 1.400 . S
C7 N10 1.351 . S
C7 C12 1.501 1_545 S
C8 C9 1.387 . S
C8 N11 1.341 . S
C9 C7 1.400 . S
C9 C8 1.387 . S
N10 Co1 2.022 . S
N10 C7 1.351 . S
N10 N11 1.365 . S
N11 C8 1.341 . S
N11 N10 1.365 . S
N11 H31 0.862 . S
C12 C7 1.501 1_565 S
C12 H13 0.961 . S
C12 H14 0.961 . S
C12 H15 0.960 . S
H13 C12 0.961 . S
H14 C12 0.961 . S
H15 C12 0.960 . S
C16 N17 1.342 . S
C16 C20 1.401 . S
C16 C21 1.499 . S
N17 Co0 1.989 . S
N17 C16 1.342 . S
N17 N18 1.388 . S
N18 Co1 1.993 . S
N18 N17 1.388 . S
N18 C19 1.346 . S
C19 N18 1.346 . S
C19 C20 1.396 . S
C19 C29 1.510 . S
C20 C16 1.401 . S
C20 C19 1.396 . S
C21 C16 1.499 . S
C21 H22 0.959 . S
C21 H23 0.960 . S
C21 H24 0.961 . S
H22 C21 0.959 . S
H23 C21 0.960 . S
H24 C21 0.961 . S
O25 Co0 1.967 . S
O25 C33 1.258 . S
O26 Co1 1.941 . S
O26 C33 1.266 . S
H27 C29 0.959 . S
H28 C29 0.961 . S
C29 C19 1.510 . S
C29 H27 0.959 . S
C29 H28 0.961 . S
C29 H30 0.960 . S
H30 C29 0.960 . S
H31 N11 0.862 . S
O32 Co0 1.920 . S
O32 C5 1.289 . S
C33 O25 1.258 . S
C33 O26 1.266 . S
Co34 O37 1.970 . S
Co34 N51 1.989 . S
Co34 O59 1.967 . S
Co34 O66 1.920 . S
Co35 O38 1.966 . S
Co35 N44 2.022 . S
Co35 N52 1.993 . S
Co35 O60 1.941 . S
C36 O37 1.258 . S
C36 O38 1.263 . S
O37 Co34 1.970 . S
O37 C36 1.258 . S
O38 Co35 1.966 . S
O38 C36 1.263 . S
C39 O40 1.235 . S
C39 O66 1.289 . S
O40 C39 1.235 . S
C41 C43 1.400 . S
C41 N44 1.351 . S
C41 C46 1.501 . S
C42 C43 1.387 . S
C42 N45 1.341 . S
C43 C41 1.400 . S
C43 C42 1.387 . S
N44 Co35 2.022 . S
N44 C41 1.351 . S
N44 N45 1.365 . S
N45 C42 1.341 . S
N45 N44 1.365 . S
N45 H65 0.862 . S
C46 C41 1.501 . S
C46 H47 0.961 . S
C46 H48 0.961 . S
C46 H49 0.960 . S
H47 C46 0.961 . S
H48 C46 0.961 . S
H49 C46 0.960 . S
C50 N51 1.342 1_554 S
C50 C54 1.401 . S
C50 C55 1.499 . S
N51 Co34 1.989 . S
N51 C50 1.342 1_556 S
N51 N52 1.388 . S
N52 Co35 1.993 . S
N52 N51 1.388 . S
N52 C53 1.346 . S
C53 N52 1.346 . S
C53 C54 1.396 1_556 S
C53 C63 1.510 . S
C54 C50 1.401 . S
C54 C53 1.396 1_554 S
C55 C50 1.499 . S
C55 H56 0.959 1_554 S
C55 H57 0.960 . S
C55 H58 0.961 . S
H56 C55 0.959 1_556 S
H57 C55 0.960 . S
H58 C55 0.961 . S
O59 Co34 1.967 . S
O59 C67 1.258 . S
O60 Co35 1.941 . S
O60 C67 1.266 . S
H61 C63 0.959 . S
H62 C63 0.961 1_554 S
C63 C53 1.510 . S
C63 H61 0.959 . S
C63 H62 0.961 1_556 S
C63 H64 0.960 . S
H64 C63 0.960 . S
H65 N45 0.862 . S
O66 Co34 1.920 . S
O66 C39 1.289 . S
C67 O59 1.258 . S
C67 O60 1.266 . S
Co68 O71 1.970 . S
Co68 N85 1.989 . S
Co68 O93 1.967 . S
Co68 O100 1.920 . S
Co69 O72 1.966 . S
Co69 N78 2.022 . S
Co69 N86 1.993 . S
Co69 O94 1.941 . S
C70 O71 1.258 . S
C70 O72 1.263 . S
O71 Co68 1.970 . S
O71 C70 1.258 . S
O72 Co69 1.966 . S
O72 C70 1.263 . S
C73 O74 1.235 . S
C73 O100 1.289 . S
O74 C73 1.235 . S
C75 C77 1.400 . S
C75 N78 1.351 . S
C75 C80 1.501 . S
C76 C77 1.387 . S
C76 N79 1.341 . S
C77 C75 1.400 . S
C77 C76 1.387 . S
N78 Co69 2.022 . S
N78 C75 1.351 . S
N78 N79 1.365 . S
N79 C76 1.341 . S
N79 N78 1.365 . S
N79 H99 0.862 . S
C80 C75 1.501 . S
C80 H81 0.961 . S
C80 H82 0.961 . S
C80 H83 0.960 . S
H81 C80 0.961 . S
H82 C80 0.961 . S
H83 C80 0.960 . S
C84 N85 1.342 . S
C84 C88 1.401 . S
C84 C89 1.499 . S
N85 Co68 1.989 . S
N85 C84 1.342 . S
N85 N86 1.388 . S
N86 Co69 1.993 . S
N86 N85 1.388 . S
N86 C87 1.346 . S
C87 N86 1.346 . S
C87 C88 1.396 . S
C87 C97 1.510 . S
C88 C84 1.401 . S
C88 C87 1.396 . S
C89 C84 1.499 . S
C89 H90 0.959 . S
C89 H91 0.960 . S
C89 H92 0.961 . S
H90 C89 0.959 . S
H91 C89 0.960 . S
H92 C89 0.961 . S
O93 Co68 1.967 . S
O93 C101 1.258 . S
O94 Co69 1.941 . S
O94 C101 1.266 . S
H95 C97 0.959 . S
H96 C97 0.961 . S
C97 C87 1.510 . S
C97 H95 0.959 . S
C97 H96 0.961 . S
C97 H98 0.960 . S
H98 C97 0.960 . S
H99 N79 0.862 . S
O100 Co68 1.920 . S
O100 C73 1.289 . S
C101 O93 1.258 . S
C101 O94 1.266 . S
Co102 O105 1.971 . S
Co102 N119 1.989 . S
Co102 O127 1.967 . S
Co102 O134 1.920 1_455 S
Co103 O106 1.966 . S
Co103 N112 2.022 . S
Co103 N120 1.993 . S
Co103 O128 1.941 . S
C104 O105 1.266 . S
C104 O106 1.263 . S
O105 Co102 1.971 . S
O105 C104 1.266 . S
O106 Co103 1.966 . S
O106 C104 1.263 . S
C107 O108 1.235 . S
C107 O134 1.289 . S
O108 C107 1.235 . S
C109 C111 1.400 . S
C109 N112 1.351 1_554 S
C109 C114 1.501 . S
C110 C111 1.387 . S
C110 N113 1.341 . S
C111 C109 1.400 . S
C111 C110 1.387 . S
N112 Co103 2.022 . S
N112 C109 1.351 1_556 S
N112 N113 1.365 1_556 S
N113 C110 1.341 . S
N113 N112 1.365 1_554 S
N113 H133 0.862 1_554 S
C114 C109 1.501 . S
C114 H115 0.961 . S
C114 H116 0.961 . S
C114 H117 0.960 . S
H115 C114 0.961 . S
H116 C114 0.961 . S
H117 C114 0.960 . S
C118 N119 1.342 1_655 S
C118 C122 1.401 1_655 S
C118 C123 1.499 . S
N119 Co102 1.989 . S
N119 C118 1.342 1_455 S
N119 N120 1.388 . S
N120 Co103 1.993 . S
N120 N119 1.388 . S
N120 C121 1.346 . S
C121 N120 1.346 . S
C121 C122 1.396 . S
C121 C131 1.510 1_556 S
C122 C118 1.401 1_455 S
C122 C121 1.396 . S
C123 C118 1.499 . S
C123 H124 0.959 . S
C123 H125 0.960 . S
C123 H126 0.961 . S
H124 C123 0.959 . S
H125 C123 0.960 . S
H126 C123 0.961 . S
O127 Co102 1.967 . S
O127 C135 1.258 . S
O128 Co103 1.941 . S
O128 C135 1.266 . S
H129 C131 0.959 . S
H130 C131 0.961 . S
C131 C121 1.510 1_554 S
C131 H129 0.959 . S
C131 H130 0.961 . S
C131 H132 0.960 . S
H132 C131 0.960 . S
H133 N113 0.862 1_556 S
O134 Co102 1.920 1_655 S
O134 C107 1.289 . S
C135 O127 1.258 . S
C135 O128 1.266 . S
Co136 O139 1.925 1_565 S
Co136 N153 1.989 . S
Co136 O161 1.967 . S
Co136 O168 1.920 . S
Co137 O140 1.966 . S
Co137 N146 2.022 . S
Co137 N154 1.993 . S
Co137 O162 1.941 . S
C138 O139 1.273 . S
C138 O140 1.263 1_545 S
O139 Co136 1.925 1_545 S
O139 C138 1.273 . S
O140 Co137 1.966 . S
O140 C138 1.263 1_565 S
C141 O142 1.235 . S
C141 O168 1.289 . S
O142 C141 1.235 . S
C143 C145 1.400 . S
C143 N146 1.351 . S
C143 C148 1.501 1_565 S
C144 C145 1.387 . S
C144 N147 1.341 . S
C145 C143 1.400 . S
C145 C144 1.387 . S
N146 Co137 2.022 . S
N146 C143 1.351 . S
N146 N147 1.365 . S
N147 C144 1.341 . S
N147 N146 1.365 . S
N147 H167 0.862 . S
C148 C143 1.501 1_545 S
C148 H149 0.961 . S
C148 H150 0.961 . S
C148 H151 0.960 . S
H149 C148 0.961 . S
H150 C148 0.961 . S
H151 C148 0.960 . S
C152 N153 1.342 . S
C152 C156 1.401 . S
C152 C157 1.499 . S
N153 Co136 1.989 . S
N153 C152 1.342 . S
N153 N154 1.388 . S
N154 Co137 1.993 . S
N154 N153 1.388 . S
N154 C155 1.346 . S
C155 N154 1.346 . S
C155 C156 1.396 . S
C155 C165 1.510 . S
C156 C152 1.401 . S
C156 C155 1.396 . S
C157 C152 1.499 . S
C157 H158 0.959 . S
C157 H159 0.960 . S
C157 H160 0.961 . S
H158 C157 0.959 . S
H159 C157 0.960 . S
H160 C157 0.961 . S
O161 Co136 1.967 . S
O161 C169 1.258 . S
O162 Co137 1.941 . S
O162 C169 1.266 . S
H163 C165 0.959 . S
H164 C165 0.961 . S
C165 C155 1.510 . S
C165 H163 0.959 . S
C165 H164 0.961 . S
C165 H166 0.960 . S
H166 C165 0.960 . S
H167 N147 0.862 . S
O168 Co136 1.920 . S
O168 C141 1.289 . S
C169 O161 1.258 . S
C169 O162 1.266 . S
Co170 O173 1.970 . S
Co170 N187 1.989 . S
Co170 O195 1.967 . S
Co170 O202 1.920 . S
Co171 O174 1.966 . S
Co171 N180 2.022 . S
Co171 N188 1.993 . S
Co171 O196 1.941 . S
C172 O173 1.258 . S
C172 O174 1.263 . S
O173 Co170 1.970 . S
O173 C172 1.258 . S
O174 Co171 1.966 . S
O174 C172 1.263 . S
C175 O176 1.235 . S
C175 O202 1.289 . S
O176 C175 1.235 . S
C177 C179 1.400 . S
C177 N180 1.351 . S
C177 C182 1.501 . S
C178 C179 1.387 . S
C178 N181 1.341 . S
C179 C177 1.400 . S
C179 C178 1.387 . S
N180 Co171 2.022 . S
N180 C177 1.351 . S
N180 N181 1.365 . S
N181 C178 1.341 . S
N181 N180 1.365 . S
N181 H201 0.862 . S
C182 C177 1.501 . S
C182 H183 0.961 . S
C182 H184 0.961 . S
C182 H185 0.960 . S
H183 C182 0.961 . S
H184 C182 0.961 . S
H185 C182 0.960 . S
C186 N187 1.342 1_556 S
C186 C190 1.401 . S
C186 C191 1.499 . S
N187 Co170 1.989 . S
N187 C186 1.342 1_554 S
N187 N188 1.388 . S
N188 Co171 1.993 . S
N188 N187 1.388 . S
N188 C189 1.346 . S
C189 N188 1.346 . S
C189 C190 1.396 1_554 S
C189 C199 1.510 . S
C190 C186 1.401 . S
C190 C189 1.396 1_556 S
C191 C186 1.499 . S
C191 H192 0.959 1_556 S
C191 H193 0.960 . S
C191 H194 0.961 . S
H192 C191 0.959 1_554 S
H193 C191 0.960 . S
H194 C191 0.961 . S
O195 Co170 1.967 . S
O195 C203 1.258 . S
O196 Co171 1.941 . S
O196 C203 1.266 . S
H197 C199 0.959 . S
H198 C199 0.961 1_556 S
C199 C189 1.510 . S
C199 H197 0.959 . S
C199 H198 0.961 1_554 S
C199 H200 0.960 . S
H200 C199 0.960 . S
H201 N181 0.862 . S
O202 Co170 1.920 . S
O202 C175 1.289 . S
C203 O195 1.258 . S
C203 O196 1.266 . S
Co204 O207 1.970 . S
Co204 N221 1.989 . S
Co204 O229 1.967 . S
Co204 O236 1.920 . S
Co205 O208 1.966 . S
Co205 N214 2.022 . S
Co205 N222 1.993 . S
Co205 O230 1.941 . S
C206 O207 1.258 . S
C206 O208 1.263 . S
O207 Co204 1.970 . S
O207 C206 1.258 . S
O208 Co205 1.966 . S
O208 C206 1.263 . S
C209 O210 1.235 . S
C209 O236 1.289 . S
O210 C209 1.235 . S
C211 C213 1.400 . S
C211 N214 1.351 . S
C211 C216 1.501 . S
C212 C213 1.387 . S
C212 N215 1.341 . S
C213 C211 1.400 . S
C213 C212 1.387 . S
N214 Co205 2.022 . S
N214 C211 1.351 . S
N214 N215 1.365 . S
N215 C212 1.341 . S
N215 N214 1.365 . S
N215 H235 0.862 . S
C216 C211 1.501 . S
C216 H217 0.961 . S
C216 H218 0.961 . S
C216 H219 0.960 . S
H217 C216 0.961 . S
H218 C216 0.961 . S
H219 C216 0.960 . S
C220 N221 1.342 . S
C220 C224 1.401 . S
C220 C225 1.499 . S
N221 Co204 1.989 . S
N221 C220 1.342 . S
N221 N222 1.388 . S
N222 Co205 1.993 . S
N222 N221 1.388 . S
N222 C223 1.346 . S
C223 N222 1.346 . S
C223 C224 1.396 . S
C223 C233 1.510 . S
C224 C220 1.401 . S
C224 C223 1.396 . S
C225 C220 1.499 . S
C225 H226 0.959 . S
C225 H227 0.960 . S
C225 H228 0.961 . S
H226 C225 0.959 . S
H227 C225 0.960 . S
H228 C225 0.961 . S
O229 Co204 1.967 . S
O229 C237 1.258 . S
O230 Co205 1.941 . S
O230 C237 1.266 . S
H231 C233 0.959 . S
H232 C233 0.961 . S
C233 C223 1.510 . S
C233 H231 0.959 . S
C233 H232 0.961 . S
C233 H234 0.960 . S
H234 C233 0.960 . S
H235 N215 0.862 . S
O236 Co204 1.920 . S
O236 C209 1.289 . S
C237 O229 1.258 . S
C237 O230 1.266 . S
Co238 O241 1.970 1_655 S
Co238 N255 1.989 . S
Co238 O263 1.967 . S
Co238 O270 1.920 . S
Co239 O242 1.966 1_655 S
Co239 N248 2.022 . S
Co239 N256 1.993 . S
Co239 O264 1.941 . S
C240 O241 1.258 . S
C240 O242 1.263 . S
O241 Co238 1.970 1_455 S
O241 C240 1.258 . S
O242 Co239 1.966 1_455 S
O242 C240 1.263 . S
C243 O244 1.235 1_655 S
C243 O270 1.289 . S
O244 C243 1.235 1_455 S
C245 C247 1.400 . S
C245 N248 1.351 . S
C245 C250 1.501 1_655 S
C246 C247 1.387 . S
C246 N249 1.341 . S
C247 C245 1.400 . S
C247 C246 1.387 . S
N248 Co239 2.022 . S
N248 C245 1.351 . S
N248 N249 1.365 . S
N249 C246 1.341 . S
N249 N248 1.365 . S
N249 H269 0.862 . S
C250 C245 1.501 1_455 S
C250 H251 0.961 . S
C250 H252 0.961 . S
C250 H253 0.960 . S
H251 C250 0.961 . S
H252 C250 0.961 . S
H253 C250 0.960 . S
C254 N255 1.342 1_556 S
C254 C258 1.401 . S
C254 C259 1.499 . S
N255 Co238 1.989 . S
N255 C254 1.342 1_554 S
N255 N256 1.388 . S
N256 Co239 1.993 . S
N256 N255 1.388 . S
N256 C257 1.346 . S
C257 N256 1.346 . S
C257 C258 1.396 1_554 S
C257 C267 1.510 . S
C258 C254 1.401 . S
C258 C257 1.396 1_556 S
C259 C254 1.499 . S
C259 H260 0.959 . S
C259 H261 0.960 . S
C259 H262 0.961 . S
H260 C259 0.959 . S
H261 C259 0.960 . S
H262 C259 0.961 . S
O263 Co238 1.967 . S
O263 C271 1.258 . S
O264 Co239 1.941 . S
O264 C271 1.266 . S
H265 C267 0.959 1_556 S
H266 C267 0.961 1_556 S
C267 C257 1.510 . S
C267 H265 0.959 1_554 S
C267 H266 0.961 1_554 S
C267 H268 0.960 . S
H268 C267 0.960 . S
H269 N249 0.862 . S
O270 Co238 1.920 . S
O270 C243 1.289 . S
C271 O263 1.258 . S
C271 O264 1.266 . S
Co272 O275 1.970 1_565 S
Co272 N289 1.989 . S
Co272 O297 1.967 . S
Co272 O304 1.920 . S
Co273 O276 1.966 . S
Co273 N282 2.022 . S
Co273 N290 1.993 . S
Co273 O298 1.941 . S
C274 O275 1.258 . S
C274 O276 1.263 1_545 S
O275 Co272 1.970 1_545 S
O275 C274 1.258 . S
O276 Co273 1.966 . S
O276 C274 1.263 1_565 S
C277 O278 1.215 1_565 S
C277 O304 1.289 . S
O278 C277 1.215 1_545 S
C279 C281 1.400 . S
C279 N282 1.351 . S
C279 C284 1.501 1_565 S
C280 C281 1.387 . S
C280 N283 1.341 . S
C281 C279 1.400 . S
C281 C280 1.387 . S
N282 Co273 2.022 . S
N282 C279 1.351 . S
N282 N283 1.365 . S
N283 C280 1.341 . S
N283 N282 1.365 . S
N283 H303 0.862 . S
C284 C279 1.501 1_545 S
C284 H285 0.961 . S
C284 H286 0.961 . S
C284 H287 0.960 . S
H285 C284 0.961 . S
H286 C284 0.961 . S
H287 C284 0.960 . S
C288 N289 1.342 . S
C288 C292 1.401 . S
C288 C293 1.499 . S
N289 Co272 1.989 . S
N289 C288 1.342 . S
N289 N290 1.388 . S
N290 Co273 1.993 . S
N290 N289 1.388 . S
N290 C291 1.346 . S
C291 N290 1.346 . S
C291 C292 1.396 . S
C291 C301 1.510 . S
C292 C288 1.401 . S
C292 C291 1.396 . S
C293 C288 1.499 . S
C293 H294 0.959 . S
C293 H295 0.960 . S
C293 H296 0.961 . S
H294 C293 0.959 . S
H295 C293 0.960 . S
H296 C293 0.961 . S
O297 Co272 1.967 . S
O297 C305 1.258 . S
O298 Co273 1.941 . S
O298 C305 1.266 . S
H299 C301 0.959 . S
H300 C301 0.961 . S
C301 C291 1.510 . S
C301 H299 0.959 . S
C301 H300 0.961 . S
C301 H302 0.960 . S
H302 C301 0.960 . S
H303 N283 0.862 . S
O304 Co272 1.920 . S
O304 C277 1.289 . S
C305 O297 1.258 . S
C305 O298 1.266 . S
Co306 O309 1.970 . S
Co306 N323 1.989 . S
Co306 O331 1.967 . S
Co306 O338 1.920 . S
Co307 O310 1.966 . S
Co307 N316 2.022 . S
Co307 N324 1.993 . S
Co307 O332 1.941 . S
C308 O309 1.258 . S
C308 O310 1.263 . S
O309 Co306 1.970 . S
O309 C308 1.258 . S
O310 Co307 1.966 . S
O310 C308 1.263 . S
C311 O312 1.235 . S
C311 O338 1.289 . S
O312 C311 1.235 . S
C313 C315 1.400 . S
C313 N316 1.351 . S
C313 C318 1.501 . S
C314 C315 1.387 . S
C314 N317 1.341 . S
C315 C313 1.400 . S
C315 C314 1.387 . S
N316 Co307 2.022 . S
N316 C313 1.351 . S
N316 N317 1.365 . S
N317 C314 1.341 . S
N317 N316 1.365 . S
N317 H337 0.862 . S
C318 C313 1.501 . S
C318 H319 0.961 . S
C318 H320 0.961 . S
C318 H321 0.960 . S
H319 C318 0.961 . S
H320 C318 0.961 . S
H321 C318 0.960 . S
C322 N323 1.342 1_556 S
C322 C326 1.401 . S
C322 C327 1.499 . S
N323 Co306 1.989 . S
N323 C322 1.342 1_554 S
N323 N324 1.388 . S
N324 Co307 1.993 . S
N324 N323 1.388 . S
N324 C325 1.346 . S
C325 N324 1.346 . S
C325 C326 1.396 1_554 S
C325 C335 1.510 . S
C326 C322 1.401 . S
C326 C325 1.396 1_556 S
C327 C322 1.499 . S
C327 H328 0.959 . S
C327 H329 0.960 . S
C327 H330 0.961 . S
H328 C327 0.959 . S
H329 C327 0.960 . S
H330 C327 0.961 . S
O331 Co306 1.967 . S
O331 C339 1.258 . S
O332 Co307 1.941 . S
O332 C339 1.266 . S
H333 C335 0.960 . S
H334 C335 0.961 1_556 S
C335 C325 1.510 . S
C335 H333 0.960 . S
C335 H334 0.961 1_554 S
C335 H336 0.960 . S
H336 C335 0.960 . S
H337 N317 0.862 . S
O338 Co306 1.920 . S
O338 C311 1.289 . S
C339 O331 1.258 . S
C339 O332 1.266 . S
Co340 O343 1.970 . S
Co340 N357 1.989 . S
Co340 O365 1.967 . S
Co340 O372 1.920 . S
Co341 O344 1.966 . S
Co341 N350 2.022 . S
Co341 N358 1.993 . S
Co341 O366 1.941 . S
C342 O343 1.258 . S
C342 O344 1.263 . S
O343 Co340 1.970 . S
O343 C342 1.258 . S
O344 Co341 1.966 . S
O344 C342 1.263 . S
C345 O346 1.235 . S
C345 O372 1.289 . S
O346 C345 1.235 . S
C347 C349 1.400 . S
C347 N350 1.351 . S
C347 C352 1.501 . S
C348 C349 1.387 . S
C348 N351 1.341 . S
C349 C347 1.400 . S
C349 C348 1.387 . S
N350 Co341 2.022 . S
N350 C347 1.351 . S
N350 N351 1.365 . S
N351 C348 1.341 . S
N351 N350 1.365 . S
N351 H371 0.862 . S
C352 C347 1.501 . S
C352 H353 0.961 . S
C352 H354 0.961 . S
C352 H355 0.960 . S
H353 C352 0.961 . S
H354 C352 0.961 . S
H355 C352 0.960 . S
C356 N357 1.342 . S
C356 C360 1.401 . S
C356 C361 1.499 . S
N357 Co340 1.989 . S
N357 C356 1.342 . S
N357 N358 1.388 . S
N358 Co341 1.993 . S
N358 N357 1.388 . S
N358 C359 1.346 . S
C359 N358 1.346 . S
C359 C360 1.396 . S
C359 C369 1.510 . S
C360 C356 1.401 . S
C360 C359 1.396 . S
C361 C356 1.499 . S
C361 H362 0.959 . S
C361 H363 0.960 . S
C361 H364 0.961 . S
H362 C361 0.959 . S
H363 C361 0.960 . S
H364 C361 0.961 . S
O365 Co340 1.967 . S
O365 C373 1.258 . S
O366 Co341 1.941 . S
O366 C373 1.266 . S
H367 C369 0.959 . S
H368 C369 0.961 . S
C369 C359 1.510 . S
C369 H367 0.959 . S
C369 H368 0.961 . S
C369 H370 0.960 . S
H370 C369 0.960 . S
H371 N351 0.862 . S
O372 Co340 1.920 . S
O372 C345 1.289 . S
C373 O365 1.258 . S
C373 O366 1.266 . S
Co374 O377 1.970 1_655 S
Co374 N391 1.989 . S
Co374 O399 1.967 . S
Co374 O406 1.920 . S
Co375 O378 1.966 . S
Co375 N384 2.022 . S
Co375 N392 1.993 . S
Co375 O400 1.941 . S
C376 O377 1.258 . S
C376 O378 1.263 1_455 S
O377 Co374 1.970 1_455 S
O377 C376 1.258 . S
O378 Co375 1.966 . S
O378 C376 1.263 1_655 S
C379 O380 1.247 . S
C379 O406 1.289 . S
O380 C379 1.247 . S
C381 C383 1.400 . S
C381 N384 1.351 . S
C381 C386 1.501 1_655 S
C382 C383 1.387 . S
C382 N385 1.341 . S
C383 C381 1.400 . S
C383 C382 1.387 . S
N384 Co375 2.022 . S
N384 C381 1.351 . S
N384 N385 1.365 . S
N385 C382 1.341 . S
N385 N384 1.365 . S
N385 H405 0.862 . S
C386 C381 1.501 1_455 S
C386 H387 0.961 . S
C386 H388 0.961 . S
C386 H389 0.960 . S
H387 C386 0.961 . S
H388 C386 0.961 . S
H389 C386 0.960 . S
C390 N391 1.328 1_556 S
C390 C394 1.408 . S
C390 C395 1.505 . S
N391 Co374 1.989 . S
N391 C390 1.328 1_554 S
N391 N392 1.388 . S
N392 Co375 1.993 . S
N392 N391 1.388 . S
N392 C393 1.346 . S
C393 N392 1.346 . S
C393 C394 1.396 1_554 S
C393 C403 1.510 . S
C394 C390 1.408 . S
C394 C393 1.396 1_556 S
C395 C390 1.505 . S
C395 H396 0.959 1_556 S
C395 H397 0.960 . S
C395 H398 0.961 . S
H396 C395 0.959 1_554 S
H397 C395 0.960 . S
H398 C395 0.961 . S
O399 Co374 1.967 . S
O399 C407 1.258 . S
O400 Co375 1.941 . S
O400 C407 1.266 . S
H401 C403 0.959 . S
H402 C403 0.961 1_556 S
C403 C393 1.510 . S
C403 H401 0.959 . S
C403 H402 0.961 1_554 S
C403 H404 0.960 . S
H404 C403 0.960 . S
H405 N385 0.862 . S
O406 Co374 1.920 . S
O406 C379 1.289 . S
C407 O399 1.258 . S
C407 O400 1.266 . S
Co408 O411 1.970 1_545 S
Co408 N425 1.989 . S
Co408 O433 1.967 . S
Co408 O440 1.920 . S
Co409 O412 1.966 1_545 S
Co409 N418 2.022 . S
Co409 N426 1.993 . S
Co409 O434 1.941 . S
C410 O411 1.258 . S
C410 O412 1.263 . S
O411 Co408 1.970 1_565 S
O411 C410 1.258 . S
O412 Co409 1.966 1_565 S
O412 C410 1.263 . S
C413 O414 1.235 1_545 S
C413 O440 1.289 . S
O414 C413 1.235 1_565 S
C415 C417 1.400 . S
C415 N418 1.351 . S
C415 C420 1.501 1_545 S
C416 C417 1.387 . S
C416 N419 1.341 . S
C417 C415 1.400 . S
C417 C416 1.387 . S
N418 Co409 2.022 . S
N418 C415 1.351 . S
N418 N419 1.365 . S
N419 C416 1.341 . S
N419 N418 1.365 . S
N419 H439 0.862 . S
C420 C415 1.501 1_565 S
C420 H421 0.961 . S
C420 H422 0.961 . S
C420 H423 0.960 . S
H421 C420 0.961 . S
H422 C420 0.961 . S
H423 C420 0.960 . S
C424 N425 1.342 . S
C424 C428 1.401 . S
C424 C429 1.499 . S
N425 Co408 1.989 . S
N425 C424 1.342 . S
N425 N426 1.388 . S
N426 Co409 1.993 . S
N426 N425 1.388 . S
N426 C427 1.346 . S
C427 N426 1.346 . S
C427 C428 1.396 . S
C427 C437 1.510 . S
C428 C424 1.401 . S
C428 C427 1.396 . S
C429 C424 1.499 . S
C429 H430 0.959 . S
C429 H431 0.960 . S
C429 H432 0.961 . S
H430 C429 0.959 . S
H431 C429 0.960 . S
H432 C429 0.961 . S
O433 Co408 1.967 . S
O433 C441 1.258 . S
O434 Co409 1.941 . S
O434 C441 1.266 . S
H435 C437 0.959 . S
H436 C437 0.961 . S
C437 C427 1.510 . S
C437 H435 0.959 . S
C437 H436 0.961 . S
C437 H438 0.960 . S
H438 C437 0.960 . S
H439 N419 0.862 . S
O440 Co408 1.920 . S
O440 C413 1.289 . S
C441 O433 1.258 . S
C441 O434 1.266 . S
Co442 O445 1.970 . S
Co442 N459 1.989 . S
Co442 O467 1.967 . S
Co442 O474 1.920 . S
Co443 O446 1.966 . S
Co443 N452 2.022 . S
Co443 N460 1.993 . S
Co443 O468 1.941 . S
C444 O445 1.258 . S
C444 O446 1.263 . S
O445 Co442 1.970 . S
O445 C444 1.258 . S
O446 Co443 1.966 . S
O446 C444 1.263 . S
C447 O448 1.235 . S
C447 O474 1.289 . S
O448 C447 1.235 . S
C449 C451 1.400 . S
C449 N452 1.351 . S
C449 C454 1.501 . S
C450 C451 1.387 . S
C450 N453 1.341 . S
C451 C449 1.400 . S
C451 C450 1.387 . S
N452 Co443 2.022 . S
N452 C449 1.351 . S
N452 N453 1.365 . S
N453 C450 1.341 . S
N453 N452 1.365 . S
N453 H473 0.862 . S
C454 C449 1.501 . S
C454 H455 0.961 . S
C454 H456 0.961 . S
C454 H457 0.960 . S
H455 C454 0.961 . S
H456 C454 0.961 . S
H457 C454 0.960 . S
C458 N459 1.342 1_554 S
C458 C462 1.401 . S
C458 C463 1.499 . S
N459 Co442 1.989 . S
N459 C458 1.342 1_556 S
N459 N460 1.388 . S
N460 Co443 1.993 . S
N460 N459 1.388 . S
N460 C461 1.346 . S
C461 N460 1.346 . S
C461 C462 1.396 1_556 S
C461 C471 1.510 1_556 S
C462 C458 1.401 . S
C462 C461 1.396 1_554 S
C463 C458 1.499 . S
C463 H464 0.959 . S
C463 H465 0.960 . S
C463 H466 0.961 . S
H464 C463 0.959 . S
H465 C463 0.960 . S
H466 C463 0.961 . S
O467 Co442 1.967 . S
O467 C475 1.258 . S
O468 Co443 1.941 . S
O468 C475 1.266 . S
H469 C471 0.959 . S
H470 C471 0.961 . S
C471 C461 1.510 1_554 S
C471 H469 0.959 . S
C471 H470 0.961 . S
C471 H472 0.960 1_554 S
H472 C471 0.960 1_556 S
H473 N453 0.862 . S
O474 Co442 1.920 . S
O474 C447 1.289 . S
C475 O467 1.258 . S
C475 O468 1.266 . S
Co476 O479 1.970 . S
Co476 N493 1.989 . S
Co476 O501 1.967 . S
Co476 O508 1.920 . S
Co477 O480 1.966 . S
Co477 N486 2.022 . S
Co477 N494 1.993 . S
Co477 O502 1.941 . S
C478 O479 1.258 . S
C478 O480 1.263 . S
O479 Co476 1.970 . S
O479 C478 1.258 . S
O480 Co477 1.966 . S
O480 C478 1.263 . S
C481 O482 1.235 . S
C481 O508 1.289 . S
O482 C481 1.235 . S
C483 C485 1.400 . S
C483 N486 1.351 . S
C483 C488 1.501 . S
C484 C485 1.387 . S
C484 N487 1.341 . S
C485 C483 1.400 . S
C485 C484 1.387 . S
N486 Co477 2.022 . S
N486 C483 1.351 . S
N486 N487 1.365 . S
N487 C484 1.341 . S
N487 N486 1.365 . S
N487 H507 0.862 . S
C488 C483 1.501 . S
C488 H489 0.961 . S
C488 H490 0.961 . S
C488 H491 0.960 . S
H489 C488 0.961 . S
H490 C488 0.961 . S
H491 C488 0.960 . S
C492 N493 1.342 . S
C492 C496 1.401 . S
C492 C497 1.499 . S
N493 Co476 1.989 . S
N493 C492 1.342 . S
N493 N494 1.388 . S
N494 Co477 1.993 . S
N494 N493 1.388 . S
N494 C495 1.346 . S
C495 N494 1.346 . S
C495 C496 1.396 . S
C495 C505 1.510 . S
C496 C492 1.401 . S
C496 C495 1.396 . S
C497 C492 1.499 . S
C497 H498 0.959 . S
C497 H499 0.960 . S
C497 H500 0.961 . S
H498 C497 0.959 . S
H499 C497 0.960 . S
H500 C497 0.961 . S
O501 Co476 1.967 . S
O501 C509 1.258 . S
O502 Co477 1.941 . S
O502 C509 1.266 . S
H503 C505 0.959 . S
H504 C505 0.961 . S
C505 C495 1.510 . S
C505 H503 0.959 . S
C505 H504 0.961 . S
C505 H506 0.960 . S
H506 C505 0.960 . S
H507 N487 0.862 . S
O508 Co476 1.920 . S
O508 C481 1.289 . S
C509 O501 1.258 . S
C509 O502 1.266 . S
Co510 O513 1.970 1_455 S
Co510 N527 1.989 . S
Co510 O535 1.967 . S
Co510 O542 1.920 . S
Co511 O514 1.966 1_455 S
Co511 N520 2.022 . S
Co511 N528 1.993 . S
Co511 O536 1.941 . S
C512 O513 1.258 . S
C512 O514 1.263 . S
O513 Co510 1.970 1_655 S
O513 C512 1.258 . S
O514 Co511 1.966 1_655 S
O514 C512 1.263 . S
C515 O516 1.235 1_455 S
C515 O542 1.289 . S
O516 C515 1.235 1_655 S
C517 C519 1.400 . S
C517 N520 1.351 . S
C517 C522 1.501 1_455 S
C518 C519 1.387 . S
C518 N521 1.341 . S
C519 C517 1.400 . S
C519 C518 1.387 . S
N520 Co511 2.022 . S
N520 C517 1.351 . S
N520 N521 1.365 . S
N521 C518 1.341 . S
N521 N520 1.365 . S
N521 H541 0.862 . S
C522 C517 1.501 1_655 S
C522 H523 0.961 . S
C522 H524 0.961 . S
C522 H525 0.960 . S
H523 C522 0.961 . S
H524 C522 0.961 . S
H525 C522 0.960 . S
C526 N527 1.342 . S
C526 C530 1.401 1_556 S
C526 C531 1.499 1_556 S
N527 Co510 1.989 . S
N527 C526 1.342 . S
N527 N528 1.388 . S
N528 Co511 1.993 . S
N528 N527 1.388 . S
N528 C529 1.346 . S
C529 N528 1.346 . S
C529 C530 1.396 1_556 S
C529 C539 1.510 . S
C530 C526 1.401 1_554 S
C530 C529 1.396 1_554 S
C531 C526 1.499 1_554 S
C531 H532 0.959 1_554 S
C531 H533 0.960 . S
C531 H534 0.961 . S
H532 C531 0.959 1_556 S
H533 C531 0.960 . S
H534 C531 0.961 . S
O535 Co510 1.967 . S
O535 C543 1.258 . S
O536 Co511 1.941 . S
O536 C543 1.266 . S
H537 C539 0.959 . S
H538 C539 0.961 1_554 S
C539 C529 1.510 . S
C539 H537 0.959 . S
C539 H538 0.961 1_556 S
C539 H540 0.960 . S
H540 C539 0.960 . S
H541 N521 0.862 . S
O542 Co510 1.920 . S
O542 C515 1.289 . S
C543 O535 1.258 . S
C543 O536 1.266 . S
H544 C550 0.958 . S
H545 C553 0.930 . S
H546 C554 0.930 . S
H547 C555 0.930 . S
H548 C558 0.930 . S
H549 C559 0.930 . S
C550 H544 0.958 . S
C550 C551 1.317 1_545 S
C550 C552 1.426 . S
C551 C550 1.317 1_565 S
C551 C553 1.419 . S
C552 C550 1.426 . S
C552 C557 1.425 1_645 S
C552 C559 1.409 . S
C553 H545 0.930 . S
C553 C551 1.419 . S
C553 C554 1.362 1_655 S
C554 H546 0.930 . S
C554 C553 1.362 1_455 S
C554 C557 1.409 . S
C555 H547 0.930 . S
C555 C556 1.355 1_565 S
C555 C557 1.415 . S
C556 C555 1.355 1_545 S
C556 C558 1.419 . S
C557 C552 1.425 1_465 S
C557 C554 1.409 . S
C557 C555 1.415 . S
C558 H548 0.930 . S
C558 C556 1.419 . S
C558 C559 1.362 1_455 S
C559 H549 0.930 . S
C559 C552 1.409 . S
C559 C558 1.362 1_655 S
H560 C566 0.930 . S
H561 C569 0.930 . S
H562 C570 0.930 . S
H563 C571 0.930 . S
H564 C574 0.930 . S
H565 C575 0.930 . S
C566 H560 0.930 . S
C566 C567 1.355 . S
C566 C568 1.415 1_546 S
C567 C566 1.355 . S
C567 C569 1.419 . S
C568 C566 1.415 1_564 S
C568 C573 1.425 1_554 S
C568 C575 1.409 . S
C569 H561 0.930 . S
C569 C567 1.419 . S
C569 C570 1.362 . S
C570 H562 0.930 . S
C570 C569 1.362 . S
C570 C573 1.409 1_545 S
C571 H563 0.930 . S
C571 C572 1.355 . S
C571 C573 1.415 1_554 S
C572 C571 1.355 . S
C572 C574 1.419 . S
C573 C568 1.425 1_556 S
C573 C570 1.409 1_565 S
C573 C571 1.415 1_556 S
C574 H564 0.930 . S
C574 C572 1.419 . S
C574 C575 1.362 . S
C575 H565 0.930 . S
C575 C568 1.409 . S
C575 C574 1.362 . S
H576 C582 0.930 . S
H577 C585 0.930 . S
H578 C586 0.930 . S
H579 C587 0.930 . S
H580 C590 0.930 . S
H581 C591 0.930 . S
C582 H576 0.930 . S
C582 C583 1.355 . S
C582 C584 1.415 . S
C583 C582 1.355 . S
C583 C585 1.419 . S
C584 C582 1.415 . S
C584 C589 1.425 . S
C584 C591 1.409 . S
C585 H577 0.930 . S
C585 C583 1.419 . S
C585 C586 1.362 . S
C586 H578 0.930 . S
C586 C585 1.362 . S
C586 C589 1.409 . S
C587 H579 0.930 . S
C587 C588 1.355 . S
C587 C589 1.415 . S
C588 C587 1.355 . S
C588 C590 1.419 . S
C589 C584 1.425 . S
C589 C586 1.409 . S
C589 C587 1.415 . S
C590 H580 0.930 . S
C590 C588 1.419 . S
C590 C591 1.362 . S
C591 H581 0.930 . S
C591 C584 1.409 . S
C591 C590 1.362 . S
H592 C598 0.913 1_455 S
H593 C601 0.930 . S
H594 C602 0.930 . S
H595 C603 0.930 . S
H596 C606 0.930 . S
H597 C607 0.930 . S
C598 H592 0.913 1_655 S
C598 C599 1.372 . S
C598 C600 1.414 1_655 S
C599 C598 1.372 . S
C599 C601 1.419 . S
C600 C598 1.414 1_455 S
C600 C605 1.425 1_455 S
C600 C607 1.409 . S
C601 H593 0.930 . S
C601 C599 1.419 . S
C601 C602 1.362 . S
C602 H594 0.930 . S
C602 C601 1.362 . S
C602 C605 1.409 . S
C603 H595 0.930 . S
C603 C604 1.355 1_655 S
C603 C605 1.415 1_556 S
C604 C603 1.355 1_455 S
C604 C606 1.419 . S
C605 C600 1.425 1_655 S
C605 C602 1.409 . S
C605 C603 1.415 1_554 S
C606 H596 0.930 . S
C606 C604 1.419 . S
C606 C607 1.362 1_556 S
C607 H597 0.930 . S
C607 C600 1.409 . S
C607 C606 1.362 1_554 S
H608 C614 0.930 . S
H609 C617 0.930 . S
H610 C618 0.930 . S
H611 C619 0.930 . S
H612 C622 0.930 . S
H613 C623 0.930 . S
C614 H608 0.930 . S
C614 C615 1.355 . S
C614 C616 1.415 . S
C615 C614 1.355 . S
C615 C617 1.419 1_565 S
C616 C614 1.415 . S
C616 C621 1.425 1_565 S
C616 C623 1.409 . S
C617 H609 0.930 . S
C617 C615 1.419 1_545 S
C617 C618 1.362 . S
C618 H610 0.930 . S
C618 C617 1.362 . S
C618 C621 1.409 . S
C619 H611 0.930 . S
C619 C620 1.355 . S
C619 C621 1.415 . S
C620 C619 1.355 . S
C620 C622 1.419 1_545 S
C621 C616 1.425 1_545 S
C621 C618 1.409 . S
C621 C619 1.415 . S
C622 H612 0.930 . S
C622 C620 1.419 1_565 S
C622 C623 1.362 . S
C623 H613 0.930 . S
C623 C616 1.409 . S
C623 C622 1.362 . S
H624 C630 0.930 . S
H625 C633 0.930 . S
H626 C634 0.930 . S
H627 C635 0.930 . S
H628 C638 0.930 . S
H629 C639 0.930 . S
C630 H624 0.930 . S
C630 C631 1.355 . S
C630 C632 1.415 . S
C631 C630 1.355 . S
C631 C633 1.419 . S
C632 C630 1.415 . S
C632 C637 1.425 1_554 S
C632 C639 1.409 . S
C633 H625 0.930 . S
C633 C631 1.419 . S
C633 C634 1.362 1_554 S
C634 H626 0.930 . S
C634 C633 1.362 1_556 S
C634 C637 1.409 . S
C635 H627 0.930 . S
C635 C636 1.355 . S
C635 C637 1.415 . S
C636 C635 1.355 . S
C636 C638 1.419 . S
C637 C632 1.425 1_556 S
C637 C634 1.409 . S
C637 C635 1.415 . S
C638 H628 0.930 . S
C638 C636 1.419 . S
C638 C639 1.362 1_556 S
C639 H629 0.930 . S
C639 C632 1.409 . S
C639 C638 1.362 1_554 S
H640 C646 0.930 . S
H641 C649 0.930 . S
H642 C650 0.930 . S
H643 C651 0.930 . S
H644 C654 0.930 . S
H645 C655 0.930 . S
C646 H640 0.930 . S
C646 C647 1.355 . S
C646 C648 1.415 1_655 S
C647 C646 1.355 . S
C647 C649 1.419 . S
C648 C646 1.415 1_455 S
C648 C653 1.425 1_455 S
C648 C655 1.409 . S
C649 H641 0.930 . S
C649 C647 1.419 . S
C649 C650 1.362 . S
C650 H642 0.930 . S
C650 C649 1.362 . S
C650 C653 1.409 . S
C651 H643 0.930 . S
C651 C652 1.355 . S
C651 C653 1.415 1_455 S
C652 C651 1.355 . S
C652 C654 1.419 . S
C653 C648 1.425 1_655 S
C653 C650 1.409 . S
C653 C651 1.415 1_655 S
C654 H644 0.930 . S
C654 C652 1.419 . S
C654 C655 1.362 . S
C655 H645 0.930 . S
C655 C648 1.409 . S
C655 C654 1.362 . S
H656 C662 0.930 . S
H657 C665 0.930 . S
H658 C666 0.930 . S
H659 C667 0.930 . S
H660 C670 0.930 . S
H661 C671 0.930 . S
C662 H656 0.930 . S
C662 C663 1.355 1_455 S
C662 C664 1.394 1_565 S
C663 C662 1.355 1_655 S
C663 C665 1.419 . S
C664 C662 1.394 1_545 S
C664 C669 1.427 1_454 S
C664 C671 1.429 . S
C665 H657 0.930 . S
C665 C663 1.419 . S
C665 C666 1.362 1_554 S
C666 H658 0.930 . S
C666 C665 1.362 1_556 S
C666 C669 1.409 1_565 S
C667 H659 0.930 . S
C667 C668 1.355 1_655 S
C667 C669 1.415 . S
C668 C667 1.355 1_455 S
C668 C670 1.419 . S
C669 C664 1.427 1_656 S
C669 C666 1.409 1_545 S
C669 C667 1.415 . S
C670 H660 0.930 . S
C670 C668 1.419 . S
C670 C671 1.362 1_556 S
C671 H661 0.930 . S
C671 C664 1.429 . S
C671 C670 1.362 1_554 S
H672 C678 0.930 . S
H673 C681 0.930 . S
H674 C682 0.930 . S
H675 C683 0.930 . S
H676 C686 0.930 . S
H677 C687 0.930 . S
C678 H672 0.930 . S
C678 C679 1.355 . S
C678 C680 1.415 . S
C679 C678 1.355 . S
C679 C681 1.419 . S
C680 C678 1.415 . S
C680 C685 1.425 . S
C680 C687 1.409 . S
C681 H673 0.930 . S
C681 C679 1.419 . S
C681 C682 1.362 . S
C682 H674 0.930 . S
C682 C681 1.362 . S
C682 C685 1.409 . S
C683 H675 0.930 . S
C683 C684 1.355 . S
C683 C685 1.415 . S
C684 C683 1.355 . S
C684 C686 1.419 . S
C685 C680 1.425 . S
C685 C682 1.409 . S
C685 C683 1.415 . S
C686 H676 0.930 . S
C686 C684 1.419 . S
C686 C687 1.362 . S
C687 H677 0.930 . S
C687 C680 1.409 . S
C687 C686 1.362 . S
H688 C694 0.930 . S
H689 C697 0.930 . S
H690 C698 0.930 . S
H691 C699 0.930 . S
H692 C702 0.930 . S
H693 C703 0.930 . S
C694 H688 0.930 . S
C694 C695 1.355 . S
C694 C696 1.415 . S
C695 C694 1.355 . S
C695 C697 1.419 . S
C696 C694 1.415 . S
C696 C701 1.425 . S
C696 C703 1.409 . S
C697 H689 0.930 . S
C697 C695 1.419 . S
C697 C698 1.362 . S
C698 H690 0.930 . S
C698 C697 1.362 . S
C698 C701 1.409 . S
C699 H691 0.930 . S
C699 C700 1.355 . S
C699 C701 1.415 . S
C700 C699 1.355 . S
C700 C702 1.419 . S
C701 C696 1.425 . S
C701 C698 1.409 . S
C701 C699 1.415 . S
C702 H692 0.930 . S
C702 C700 1.419 . S
C702 C703 1.362 . S
C703 H693 0.930 . S
C703 C696 1.409 . S
C703 C702 1.362 . S
H704 C710 0.930 . S
H705 C713 0.930 . S
H706 C714 0.930 . S
H707 C715 0.930 . S
H708 C718 0.930 . S
H709 C719 0.930 . S
C710 H704 0.930 . S
C710 C711 1.355 . S
C710 C712 1.415 . S
C711 C710 1.355 . S
C711 C713 1.419 . S
C712 C710 1.415 . S
C712 C717 1.425 . S
C712 C719 1.409 . S
C713 H705 0.930 . S
C713 C711 1.419 . S
C713 C714 1.362 . S
C714 H706 0.930 . S
C714 C713 1.362 . S
C714 C717 1.409 . S
C715 H707 0.930 . S
C715 C716 1.355 . S
C715 C717 1.415 . S
C716 C715 1.355 . S
C716 C718 1.419 . S
C717 C712 1.425 . S
C717 C714 1.409 . S
C717 C715 1.415 . S
C718 H708 0.930 . S
C718 C716 1.419 . S
C718 C719 1.362 . S
C719 H709 0.930 . S
C719 C712 1.409 . S
C719 C718 1.362 . S
H720 C726 0.930 . S
H721 C729 0.930 . S
H722 C730 0.930 . S
H723 C731 0.930 . S
H724 C734 0.930 . S
H725 C735 0.930 . S
C726 H720 0.930 . S
C726 C727 1.355 . S
C726 C728 1.415 . S
C727 C726 1.355 . S
C727 C729 1.419 . S
C728 C726 1.415 . S
C728 C733 1.425 . S
C728 C735 1.409 . S
C729 H721 0.930 . S
C729 C727 1.419 . S
C729 C730 1.362 . S
C730 H722 0.930 . S
C730 C729 1.362 . S
C730 C733 1.409 . S
C731 H723 0.930 . S
C731 C732 1.355 . S
C731 C733 1.415 . S
C732 C731 1.355 . S
C732 C734 1.419 . S
C733 C728 1.425 . S
C733 C730 1.409 . S
C733 C731 1.415 . S
C734 H724 0.930 . S
C734 C732 1.419 . S
C734 C735 1.362 . S
C735 H725 0.930 . S
C735 C728 1.409 . S
C735 C734 1.362 . S
H736 C742 0.930 . S
H737 C745 0.930 . S
H738 C746 0.930 . S
H739 C747 0.930 . S
H740 C750 0.930 . S
H741 C751 0.930 . S
C742 H736 0.930 . S
C742 C743 1.355 . S
C742 C744 1.415 . S
C743 C742 1.355 . S
C743 C745 1.419 . S
C744 C742 1.415 . S
C744 C749 1.425 . S
C744 C751 1.409 . S
C745 H737 0.930 . S
C745 C743 1.419 . S
C745 C746 1.362 . S
C746 H738 0.930 . S
C746 C745 1.362 . S
C746 C749 1.409 . S
C747 H739 0.930 . S
C747 C748 1.355 . S
C747 C749 1.415 . S
C748 C747 1.355 . S
C748 C750 1.419 . S
C749 C744 1.425 . S
C749 C746 1.409 . S
C749 C747 1.415 . S
C750 H740 0.930 . S
C750 C748 1.419 . S
C750 C751 1.362 . S
C751 H741 0.930 . S
C751 C744 1.409 . S
C751 C750 1.362 . S
H752 C758 0.930 . S
H753 C761 0.930 . S
H754 C762 0.930 . S
H755 C763 0.930 . S
H756 C766 0.930 . S
H757 C767 0.930 . S
C758 H752 0.930 . S
C758 C759 1.355 . S
C758 C760 1.415 . S
C759 C758 1.355 . S
C759 C761 1.419 . S
C760 C758 1.415 . S
C760 C765 1.425 . S
C760 C767 1.409 . S
C761 H753 0.930 . S
C761 C759 1.419 . S
C761 C762 1.362 . S
C762 H754 0.930 . S
C762 C761 1.362 . S
C762 C765 1.409 . S
C763 H755 0.930 . S
C763 C764 1.355 . S
C763 C765 1.415 . S
C764 C763 1.355 . S
C764 C766 1.419 . S
C765 C760 1.425 . S
C765 C762 1.409 . S
C765 C763 1.415 . S
C766 H756 0.930 . S
C766 C764 1.419 . S
C766 C767 1.362 . S
C767 H757 0.930 . S
C767 C760 1.409 . S
C767 C766 1.362 . S
H768 C774 0.930 . S
H769 C777 0.930 . S
H770 C778 0.930 . S
H771 C779 0.930 . S
H772 C782 0.930 . S
H773 C783 0.930 . S
C774 H768 0.930 . S
C774 C775 1.355 . S
C774 C776 1.415 . S
C775 C774 1.355 . S
C775 C777 1.419 . S
C776 C774 1.415 . S
C776 C781 1.425 . S
C776 C783 1.409 . S
C777 H769 0.930 . S
C777 C775 1.419 . S
C777 C778 1.362 . S
C778 H770 0.930 . S
C778 C777 1.362 . S
C778 C781 1.409 . S
C779 H771 0.930 . S
C779 C780 1.355 . S
C779 C781 1.415 . S
C780 C779 1.355 . S
C780 C782 1.419 . S
C781 C776 1.425 . S
C781 C778 1.409 . S
C781 C779 1.415 . S
C782 H772 0.930 . S
C782 C780 1.419 . S
C782 C783 1.362 . S
C783 H773 0.930 . S
C783 C776 1.409 . S
C783 C782 1.362 . S
H784 C790 0.930 . S
H785 C793 0.930 . S
H786 C794 0.930 . S
H787 C795 0.930 . S
H788 C798 0.930 . S
H789 C799 0.930 . S
C790 H784 0.930 . S
C790 C791 1.355 . S
C790 C792 1.415 . S
C791 C790 1.355 . S
C791 C793 1.419 . S
C792 C790 1.415 . S
C792 C797 1.425 . S
C792 C799 1.409 . S
C793 H785 0.930 . S
C793 C791 1.419 . S
C793 C794 1.362 . S
C794 H786 0.930 . S
C794 C793 1.362 . S
C794 C797 1.409 . S
C795 H787 0.930 . S
C795 C796 1.355 . S
C795 C797 1.415 . S
C796 C795 1.355 . S
C796 C798 1.419 . S
C797 C792 1.425 . S
C797 C794 1.409 . S
C797 C795 1.415 . S
C798 H788 0.930 . S
C798 C796 1.419 . S
C798 C799 1.362 . S
C799 H789 0.930 . S
C799 C792 1.409 . S
C799 C798 1.362 . S
H800 C806 0.930 . S
H801 C809 0.930 . S
H802 C810 0.930 . S
H803 C811 0.930 . S
H804 C814 0.930 . S
H805 C815 0.930 . S
C806 H800 0.930 . S
C806 C807 1.355 . S
C806 C808 1.415 . S
C807 C806 1.355 . S
C807 C809 1.419 . S
C808 C806 1.415 . S
C808 C813 1.425 . S
C808 C815 1.409 . S
C809 H801 0.930 . S
C809 C807 1.419 . S
C809 C810 1.362 . S
C810 H802 0.930 . S
C810 C809 1.362 . S
C810 C813 1.409 . S
C811 H803 0.930 . S
C811 C812 1.355 . S
C811 C813 1.415 . S
C812 C811 1.355 . S
C812 C814 1.419 . S
C813 C808 1.425 . S
C813 C810 1.409 . S
C813 C811 1.415 . S
C814 H804 0.930 . S
C814 C812 1.419 . S
C814 C815 1.362 . S
C815 H805 0.930 . S
C815 C808 1.409 . S
C815 C814 1.362 . S
H816 C822 0.930 . S
H817 C825 0.930 . S
H818 C826 0.930 . S
H819 C827 0.930 . S
H820 C830 0.930 . S
H821 C831 0.930 . S
C822 H816 0.930 . S
C822 C823 1.355 . S
C822 C824 1.415 . S
C823 C822 1.355 . S
C823 C825 1.419 . S
C824 C822 1.415 . S
C824 C829 1.425 . S
C824 C831 1.409 . S
C825 H817 0.930 . S
C825 C823 1.419 . S
C825 C826 1.362 . S
C826 H818 0.930 . S
C826 C825 1.362 . S
C826 C829 1.409 . S
C827 H819 0.930 . S
C827 C828 1.355 . S
C827 C829 1.415 . S
C828 C827 1.355 . S
C828 C830 1.419 . S
C829 C824 1.425 . S
C829 C826 1.409 . S
C829 C827 1.415 . S
C830 H820 0.930 . S
C830 C828 1.419 . S
C830 C831 1.362 . S
C831 H821 0.930 . S
C831 C824 1.409 . S
C831 C830 1.362 . S
H832 C838 0.930 . S
H833 C841 0.930 . S
H834 C842 0.930 . S
H835 C843 0.930 . S
H836 C846 0.930 . S
H837 C847 0.930 . S
C838 H832 0.930 . S
C838 C839 1.355 . S
C838 C840 1.415 . S
C839 C838 1.355 . S
C839 C841 1.419 . S
C840 C838 1.415 . S
C840 C845 1.425 . S
C840 C847 1.409 . S
C841 H833 0.930 . S
C841 C839 1.419 . S
C841 C842 1.362 . S
C842 H834 0.930 . S
C842 C841 1.362 . S
C842 C845 1.409 . S
C843 H835 0.930 . S
C843 C844 1.355 . S
C843 C845 1.415 . S
C844 C843 1.355 . S
C844 C846 1.419 . S
C845 C840 1.425 . S
C845 C842 1.409 . S
C845 C843 1.415 . S
C846 H836 0.930 . S
C846 C844 1.419 . S
C846 C847 1.362 . S
C847 H837 0.930 . S
C847 C840 1.409 . S
C847 C846 1.362 . S
H848 C854 0.930 . S
H849 C857 0.930 . S
H850 C858 0.930 . S
H851 C859 0.930 . S
H852 C862 0.930 . S
H853 C863 0.930 . S
C854 H848 0.930 . S
C854 C855 1.355 . S
C854 C856 1.415 . S
C855 C854 1.355 . S
C855 C857 1.419 . S
C856 C854 1.415 . S
C856 C861 1.425 . S
C856 C863 1.409 . S
C857 H849 0.930 . S
C857 C855 1.419 . S
C857 C858 1.362 . S
C858 H850 0.930 . S
C858 C857 1.362 . S
C858 C861 1.409 . S
C859 H851 0.930 . S
C859 C860 1.355 . S
C859 C861 1.415 . S
C860 C859 1.355 . S
C860 C862 1.419 . S
C861 C856 1.425 . S
C861 C858 1.409 . S
C861 C859 1.415 . S
C862 H852 0.930 . S
C862 C860 1.419 . S
C862 C863 1.362 . S
C863 H853 0.930 . S
C863 C856 1.409 . S
C863 C862 1.362 . S
H864 C870 0.930 . S
H865 C873 0.930 . S
H866 C874 0.930 . S
H867 C875 0.930 . S
H868 C878 0.930 . S
H869 C879 0.930 . S
C870 H864 0.930 . S
C870 C871 1.355 . S
C870 C872 1.415 . S
C871 C870 1.355 . S
C871 C873 1.419 . S
C872 C870 1.415 . S
C872 C877 1.425 . S
C872 C879 1.409 . S
C873 H865 0.930 . S
C873 C871 1.419 . S
C873 C874 1.362 . S
C874 H866 0.930 . S
C874 C873 1.362 . S
C874 C877 1.409 . S
C875 H867 0.930 . S
C875 C876 1.355 . S
C875 C877 1.415 . S
C876 C875 1.355 . S
C876 C878 1.419 . S
C877 C872 1.425 . S
C877 C874 1.409 . S
C877 C875 1.415 . S
C878 H868 0.930 . S
C878 C876 1.419 . S
C878 C879 1.362 . S
C879 H869 0.930 . S
C879 C872 1.409 . S
C879 C878 1.362 . S
H880 C886 0.930 . S
H881 C889 0.930 . S
H882 C890 0.930 . S
H883 C891 0.930 . S
H884 C894 0.930 . S
H885 C895 0.930 . S
C886 H880 0.930 . S
C886 C887 1.355 . S
C886 C888 1.415 . S
C887 C886 1.355 . S
C887 C889 1.419 . S
C888 C886 1.415 . S
C888 C893 1.425 . S
C888 C895 1.409 . S
C889 H881 0.930 . S
C889 C887 1.419 . S
C889 C890 1.362 . S
C890 H882 0.930 . S
C890 C889 1.362 . S
C890 C893 1.409 . S
C891 H883 0.930 . S
C891 C892 1.355 . S
C891 C893 1.415 . S
C892 C891 1.355 . S
C892 C894 1.419 . S
C893 C888 1.425 . S
C893 C890 1.409 . S
C893 C891 1.415 . S
C894 H884 0.930 . S
C894 C892 1.419 . S
C894 C895 1.362 . S
C895 H885 0.930 . S
C895 C888 1.409 . S
C895 C894 1.362 . S
H896 C902 0.930 . S
H897 C905 0.930 . S
H898 C906 0.930 . S
H899 C907 0.930 . S
H900 C910 0.930 . S
H901 C911 0.930 . S
C902 H896 0.930 . S
C902 C903 1.355 . S
C902 C904 1.415 . S
C903 C902 1.355 . S
C903 C905 1.419 . S
C904 C902 1.415 . S
C904 C909 1.425 . S
C904 C911 1.409 . S
C905 H897 0.930 . S
C905 C903 1.419 . S
C905 C906 1.362 . S
C906 H898 0.930 . S
C906 C905 1.362 . S
C906 C909 1.409 . S
C907 H899 0.930 . S
C907 C908 1.355 . S
C907 C909 1.415 . S
C908 C907 1.355 . S
C908 C910 1.419 . S
C909 C904 1.425 . S
C909 C906 1.409 . S
C909 C907 1.415 . S
C910 H900 0.930 . S
C910 C908 1.419 . S
C910 C911 1.362 . S
C911 H901 0.930 . S
C911 C904 1.409 . S
C911 C910 1.362 . S
H912 C918 0.930 . S
H913 C921 0.930 . S
H914 C922 0.930 . S
H915 C923 0.930 . S
H916 C926 0.930 . S
H917 C927 0.930 . S
C918 H912 0.930 . S
C918 C919 1.355 . S
C918 C920 1.415 . S
C919 C918 1.355 . S
C919 C921 1.419 . S
C920 C918 1.415 . S
C920 C925 1.425 . S
C920 C927 1.409 . S
C921 H913 0.930 . S
C921 C919 1.419 . S
C921 C922 1.362 . S
C922 H914 0.930 . S
C922 C921 1.362 . S
C922 C925 1.409 . S
C923 H915 0.930 . S
C923 C924 1.355 . S
C923 C925 1.415 . S
C924 C923 1.355 . S
C924 C926 1.419 . S
C925 C920 1.425 . S
C925 C922 1.409 . S
C925 C923 1.415 . S
C926 H916 0.930 . S
C926 C924 1.419 . S
C926 C927 1.362 . S
C927 H917 0.930 . S
C927 C920 1.409 . S
C927 C926 1.362 . S
H928 C934 0.930 . S
H929 C937 0.930 . S
H930 C938 0.930 . S
H931 C939 0.930 . S
H932 C942 0.930 . S
H933 C943 0.930 . S
C934 H928 0.930 . S
C934 C935 1.355 . S
C934 C936 1.415 . S
C935 C934 1.355 . S
C935 C937 1.419 . S
C936 C934 1.415 . S
C936 C941 1.425 . S
C936 C943 1.409 . S
C937 H929 0.930 . S
C937 C935 1.419 . S
C937 C938 1.362 . S
C938 H930 0.930 . S
C938 C937 1.362 . S
C938 C941 1.409 . S
C939 H931 0.930 . S
C939 C940 1.355 . S
C939 C941 1.415 . S
C940 C939 1.355 . S
C940 C942 1.419 . S
C941 C936 1.425 . S
C941 C938 1.409 . S
C941 C939 1.415 . S
C942 H932 0.930 . S
C942 C940 1.419 . S
C942 C943 1.362 . S
C943 H933 0.930 . S
C943 C936 1.409 . S
C943 C942 1.362 . S
H944 C950 0.930 . S
H945 C953 0.930 . S
H946 C954 0.930 . S
H947 C955 0.930 . S
H948 C958 0.930 . S
H949 C959 0.930 . S
C950 H944 0.930 . S
C950 C951 1.355 . S
C950 C952 1.415 . S
C951 C950 1.355 . S
C951 C953 1.419 . S
C952 C950 1.415 . S
C952 C957 1.425 . S
C952 C959 1.409 . S
C953 H945 0.930 . S
C953 C951 1.419 . S
C953 C954 1.362 . S
C954 H946 0.930 . S
C954 C953 1.362 . S
C954 C957 1.409 . S
C955 H947 0.930 . S
C955 C956 1.355 . S
C955 C957 1.415 . S
C956 C955 1.355 . S
C956 C958 1.419 . S
C957 C952 1.425 . S
C957 C954 1.409 . S
C957 C955 1.415 . S
C958 H948 0.930 . S
C958 C956 1.419 . S
C958 C959 1.362 . S
C959 H949 0.930 . S
C959 C952 1.409 . S
C959 C958 1.362 . S
H960 C966 0.930 . S
H961 C969 0.930 . S
H962 C970 0.930 . S
H963 C971 0.930 . S
H964 C974 0.930 . S
H965 C975 0.930 . S
C966 H960 0.930 . S
C966 C967 1.355 . S
C966 C968 1.415 . S
C967 C966 1.355 . S
C967 C969 1.419 . S
C968 C966 1.415 . S
C968 C973 1.425 . S
C968 C975 1.409 . S
C969 H961 0.930 . S
C969 C967 1.419 . S
C969 C970 1.362 . S
C970 H962 0.930 . S
C970 C969 1.362 . S
C970 C973 1.409 . S
C971 H963 0.930 . S
C971 C972 1.355 . S
C971 C973 1.415 . S
C972 C971 1.355 . S
C972 C974 1.419 . S
C973 C968 1.425 . S
C973 C970 1.409 . S
C973 C971 1.415 . S
C974 H964 0.930 . S
C974 C972 1.419 . S
C974 C975 1.362 . S
C975 H965 0.930 . S
C975 C968 1.409 . S
C975 C974 1.362 . S
H976 C982 0.930 . S
H977 C985 0.930 . S
H978 C986 0.930 . S
H979 C987 0.930 . S
H980 C990 0.930 . S
H981 C991 0.930 . S
C982 H976 0.930 . S
C982 C983 1.355 . S
C982 C984 1.415 . S
C983 C982 1.355 . S
C983 C985 1.419 . S
C984 C982 1.415 . S
C984 C989 1.425 . S
C984 C991 1.409 . S
C985 H977 0.930 . S
C985 C983 1.419 . S
C985 C986 1.362 . S
C986 H978 0.930 . S
C986 C985 1.362 . S
C986 C989 1.409 . S
C987 H979 0.930 . S
C987 C988 1.355 . S
C987 C989 1.415 . S
C988 C987 1.355 . S
C988 C990 1.419 . S
C989 C984 1.425 . S
C989 C986 1.409 . S
C989 C987 1.415 . S
C990 H980 0.930 . S
C990 C988 1.419 . S
C990 C991 1.362 . S
C991 H981 0.930 . S
C991 C984 1.409 . S
C991 C990 1.362 . S
H992 C998 0.930 . S
H993 C1001 0.930 . S
H994 C1002 0.930 . S
H995 C1003 0.930 . S
H996 C1006 0.930 . S
H997 C1007 0.930 . S
C998 H992 0.930 . S
C998 C999 1.355 . S
C998 C1000 1.415 . S
C999 C998 1.355 . S
C999 C1001 1.419 . S
C1000 C998 1.415 . S
C1000 C1005 1.425 . S
C1000 C1007 1.409 . S
C1001 H993 0.930 . S
C1001 C999 1.419 . S
C1001 C1002 1.362 . S
C1002 H994 0.930 . S
C1002 C1001 1.362 . S
C1002 C1005 1.409 . S
C1003 H995 0.930 . S
C1003 C1004 1.355 . S
C1003 C1005 1.415 . S
C1004 C1003 1.355 . S
C1004 C1006 1.419 . S
C1005 C1000 1.425 . S
C1005 C1002 1.409 . S
C1005 C1003 1.415 . S
C1006 H996 0.930 . S
C1006 C1004 1.419 . S
C1006 C1007 1.362 . S
C1007 H997 0.930 . S
C1007 C1000 1.409 . S
C1007 C1006 1.362 . S
H1008 C1014 0.930 . S
H1009 C1017 0.930 . S
H1010 C1018 0.930 . S
H1011 C1019 0.930 . S
H1012 C1022 0.930 . S
H1013 C1023 0.930 . S
C1014 H1008 0.930 . S
C1014 C1015 1.355 . S
C1014 C1016 1.415 . S
C1015 C1014 1.355 . S
C1015 C1017 1.419 . S
C1016 C1014 1.415 . S
C1016 C1021 1.425 . S
C1016 C1023 1.409 . S
C1017 H1009 0.930 . S
C1017 C1015 1.419 . S
C1017 C1018 1.362 . S
C1018 H1010 0.930 . S
C1018 C1017 1.362 . S
C1018 C1021 1.409 . S
C1019 H1011 0.930 . S
C1019 C1020 1.355 . S
C1019 C1021 1.415 . S
C1020 C1019 1.355 . S
C1020 C1022 1.419 . S
C1021 C1016 1.425 . S
C1021 C1018 1.409 . S
C1021 C1019 1.415 . S
C1022 H1012 0.930 . S
C1022 C1020 1.419 . S
C1022 C1023 1.362 . S
C1023 H1013 0.930 . S
C1023 C1016 1.409 . S
C1023 C1022 1.362 . S
H1024 C1030 0.930 . S
H1025 C1033 0.930 . S
H1026 C1034 0.930 . S
H1027 C1035 0.930 . S
H1028 C1038 0.930 . S
H1029 C1039 0.930 . S
C1030 H1024 0.930 . S
C1030 C1031 1.355 . S
C1030 C1032 1.415 . S
C1031 C1030 1.355 . S
C1031 C1033 1.419 . S
C1032 C1030 1.415 . S
C1032 C1037 1.425 . S
C1032 C1039 1.409 . S
C1033 H1025 0.930 . S
C1033 C1031 1.419 . S
C1033 C1034 1.362 . S
C1034 H1026 0.930 . S
C1034 C1033 1.362 . S
C1034 C1037 1.409 . S
C1035 H1027 0.930 . S
C1035 C1036 1.355 . S
C1035 C1037 1.415 . S
C1036 C1035 1.355 . S
C1036 C1038 1.419 . S
C1037 C1032 1.425 . S
C1037 C1034 1.409 . S
C1037 C1035 1.415 . S
C1038 H1028 0.930 . S
C1038 C1036 1.419 . S
C1038 C1039 1.362 . S
C1039 H1029 0.930 . S
C1039 C1032 1.409 . S
C1039 C1038 1.362 . S
H1040 C1046 0.930 . S
H1041 C1049 0.930 . S
H1042 C1050 0.930 . S
H1043 C1051 0.930 . S
H1044 C1054 0.930 . S
H1045 C1055 0.930 . S
C1046 H1040 0.930 . S
C1046 C1047 1.355 . S
C1046 C1048 1.415 . S
C1047 C1046 1.355 . S
C1047 C1049 1.419 . S
C1048 C1046 1.415 . S
C1048 C1053 1.425 . S
C1048 C1055 1.409 . S
C1049 H1041 0.930 . S
C1049 C1047 1.419 . S
C1049 C1050 1.362 . S
C1050 H1042 0.930 . S
C1050 C1049 1.362 . S
C1050 C1053 1.409 . S
C1051 H1043 0.930 . S
C1051 C1052 1.355 . S
C1051 C1053 1.415 . S
C1052 C1051 1.355 . S
C1052 C1054 1.419 . S
C1053 C1048 1.425 . S
C1053 C1050 1.409 . S
C1053 C1051 1.415 . S
C1054 H1044 0.930 . S
C1054 C1052 1.419 . S
C1054 C1055 1.362 . S
C1055 H1045 0.930 . S
C1055 C1048 1.409 . S
C1055 C1054 1.362 . S
H1056 C1062 0.930 . S
H1057 C1065 0.930 . S
H1058 C1066 0.930 . S
H1059 C1067 0.930 . S
H1060 C1070 0.930 . S
H1061 C1071 0.930 . S
C1062 H1056 0.930 . S
C1062 C1063 1.355 . S
C1062 C1064 1.415 . S
C1063 C1062 1.355 . S
C1063 C1065 1.419 . S
C1064 C1062 1.415 . S
C1064 C1069 1.425 . S
C1064 C1071 1.409 . S
C1065 H1057 0.930 . S
C1065 C1063 1.419 . S
C1065 C1066 1.362 . S
C1066 H1058 0.930 . S
C1066 C1065 1.362 . S
C1066 C1069 1.409 . S
C1067 H1059 0.930 . S
C1067 C1068 1.355 . S
C1067 C1069 1.415 . S
C1068 C1067 1.355 . S
C1068 C1070 1.419 . S
C1069 C1064 1.425 . S
C1069 C1066 1.409 . S
C1069 C1067 1.415 . S
C1070 H1060 0.930 . S
C1070 C1068 1.419 . S
C1070 C1071 1.362 . S
C1071 H1061 0.930 . S
C1071 C1064 1.409 . S
C1071 C1070 1.362 . S
H1072 C1078 0.930 . S
H1073 C1081 0.930 . S
H1074 C1082 0.930 . S
H1075 C1083 0.930 . S
H1076 C1086 0.930 . S
H1077 C1087 0.930 . S
C1078 H1072 0.930 . S
C1078 C1079 1.355 . S
C1078 C1080 1.415 . S
C1079 C1078 1.355 . S
C1079 C1081 1.419 . S
C1080 C1078 1.415 . S
C1080 C1085 1.425 . S
C1080 C1087 1.409 . S
C1081 H1073 0.930 . S
C1081 C1079 1.419 . S
C1081 C1082 1.362 . S
C1082 H1074 0.930 . S
C1082 C1081 1.362 . S
C1082 C1085 1.409 . S
C1083 H1075 0.930 . S
C1083 C1084 1.355 . S
C1083 C1085 1.415 . S
C1084 C1083 1.355 . S
C1084 C1086 1.419 . S
C1085 C1080 1.425 . S
C1085 C1082 1.409 . S
C1085 C1083 1.415 . S
C1086 H1076 0.930 . S
C1086 C1084 1.419 . S
C1086 C1087 1.362 . S
C1087 H1077 0.930 . S
C1087 C1080 1.409 . S
C1087 C1086 1.362 . S
H1088 C1094 0.930 . S
H1089 C1097 0.930 . S
H1090 C1098 0.930 . S
H1091 C1099 0.930 . S
H1092 C1102 0.930 . S
H1093 C1103 0.930 . S
C1094 H1088 0.930 . S
C1094 C1095 1.355 . S
C1094 C1096 1.415 . S
C1095 C1094 1.355 . S
C1095 C1097 1.419 . S
C1096 C1094 1.415 . S
C1096 C1101 1.425 . S
C1096 C1103 1.409 . S
C1097 H1089 0.930 . S
C1097 C1095 1.419 . S
C1097 C1098 1.362 . S
C1098 H1090 0.930 . S
C1098 C1097 1.362 . S
C1098 C1101 1.409 . S
C1099 H1091 0.930 . S
C1099 C1100 1.355 . S
C1099 C1101 1.415 . S
C1100 C1099 1.355 . S
C1100 C1102 1.419 . S
C1101 C1096 1.425 . S
C1101 C1098 1.409 . S
C1101 C1099 1.415 . S
C1102 H1092 0.930 . S
C1102 C1100 1.419 . S
C1102 C1103 1.362 . S
C1103 H1093 0.930 . S
C1103 C1096 1.409 . S
C1103 C1102 1.362 . S
H1104 C1110 0.930 1_655 S
H1105 C1113 0.930 . S
H1106 C1114 0.930 . S
H1107 C1115 0.930 . S
H1108 C1118 0.930 . S
H1109 C1119 0.930 . S
C1110 H1104 0.930 1_455 S
C1110 C1111 1.355 . S
C1110 C1112 1.415 . S
C1111 C1110 1.355 . S
C1111 C1113 1.419 . S
C1112 C1110 1.415 . S
C1112 C1117 1.425 . S
C1112 C1119 1.409 1_455 S
C1113 H1105 0.930 . S
C1113 C1111 1.419 . S
C1113 C1114 1.362 . S
C1114 H1106 0.930 . S
C1114 C1113 1.362 . S
C1114 C1117 1.409 . S
C1115 H1107 0.930 . S
C1115 C1116 1.355 . S
C1115 C1117 1.415 . S
C1116 C1115 1.355 . S
C1116 C1118 1.419 1_455 S
C1117 C1112 1.425 . S
C1117 C1114 1.409 . S
C1117 C1115 1.415 . S
C1118 H1108 0.930 . S
C1118 C1116 1.419 1_655 S
C1118 C1119 1.362 . S
C1119 H1109 0.930 . S
C1119 C1112 1.409 1_655 S
C1119 C1118 1.362 . S
H1120 C1126 0.930 1_545 S
H1121 C1129 0.930 . S
H1122 C1130 0.930 . S
H1123 C1131 0.930 . S
H1124 C1134 0.942 . S
H1125 C1135 0.930 . S
C1126 H1120 0.930 1_565 S
C1126 C1127 1.355 . S
C1126 C1128 1.415 . S
C1127 C1126 1.355 . S
C1127 C1129 1.419 . S
C1128 C1126 1.415 . S
C1128 C1133 1.425 . S
C1128 C1135 1.409 1_565 S
C1129 H1121 0.930 . S
C1129 C1127 1.419 . S
C1129 C1130 1.362 . S
C1130 H1122 0.930 . S
C1130 C1129 1.362 . S
C1130 C1133 1.409 . S
C1131 H1123 0.930 . S
C1131 C1132 1.355 . S
C1131 C1133 1.415 . S
C1132 C1131 1.355 . S
C1132 C1134 1.405 1_565 S
C1133 C1128 1.425 . S
C1133 C1130 1.409 . S
C1133 C1131 1.415 . S
C1134 H1124 0.942 . S
C1134 C1132 1.405 1_545 S
C1134 C1135 1.365 . S
C1135 H1125 0.930 . S
C1135 C1128 1.409 1_545 S
C1135 C1134 1.365 . S
H1136 C1142 0.930 . S
H1137 C1145 0.930 . S
H1138 C1146 0.930 . S
H1139 C1147 0.930 . S
H1140 C1150 0.930 . S
H1141 C1151 0.930 . S
C1142 H1136 0.930 . S
C1142 C1143 1.355 . S
C1142 C1144 1.415 . S
C1143 C1142 1.355 . S
C1143 C1145 1.419 . S
C1144 C1142 1.415 . S
C1144 C1149 1.425 . S
C1144 C1151 1.409 . S
C1145 H1137 0.930 . S
C1145 C1143 1.419 . S
C1145 C1146 1.362 . S
C1146 H1138 0.930 . S
C1146 C1145 1.362 . S
C1146 C1149 1.409 . S
C1147 H1139 0.930 . S
C1147 C1148 1.355 . S
C1147 C1149 1.415 . S
C1148 C1147 1.355 . S
C1148 C1150 1.419 . S
C1149 C1144 1.425 . S
C1149 C1146 1.409 . S
C1149 C1147 1.415 . S
C1150 H1140 0.930 . S
C1150 C1148 1.419 . S
C1150 C1151 1.362 . S
C1151 H1141 0.930 . S
C1151 C1144 1.409 . S
C1151 C1150 1.362 . S
H1152 C1158 0.930 . S
H1153 C1161 0.930 . S
H1154 C1162 0.930 . S
H1155 C1163 0.930 . S
H1156 C1166 0.930 . S
H1157 C1167 0.930 . S
C1158 H1152 0.930 . S
C1158 C1159 1.355 . S
C1158 C1160 1.415 . S
C1159 C1158 1.355 . S
C1159 C1161 1.419 . S
C1160 C1158 1.415 . S
C1160 C1165 1.425 . S
C1160 C1167 1.409 . S
C1161 H1153 0.930 . S
C1161 C1159 1.419 . S
C1161 C1162 1.362 . S
C1162 H1154 0.930 . S
C1162 C1161 1.362 . S
C1162 C1165 1.409 . S
C1163 H1155 0.930 . S
C1163 C1164 1.355 . S
C1163 C1165 1.415 . S
C1164 C1163 1.355 . S
C1164 C1166 1.419 . S
C1165 C1160 1.425 . S
C1165 C1162 1.409 . S
C1165 C1163 1.415 . S
C1166 H1156 0.930 . S
C1166 C1164 1.419 . S
C1166 C1167 1.362 . S
C1167 H1157 0.930 . S
C1167 C1160 1.409 . S
C1167 C1166 1.362 . S
H1168 C1174 0.930 . S
H1169 C1177 0.930 . S
H1170 C1178 0.930 . S
H1171 C1179 0.930 . S
H1172 C1182 0.930 . S
H1173 C1183 0.930 . S
C1174 H1168 0.930 . S
C1174 C1175 1.355 . S
C1174 C1176 1.415 . S
C1175 C1174 1.355 . S
C1175 C1177 1.419 1_655 S
C1176 C1174 1.415 . S
C1176 C1181 1.425 . S
C1176 C1183 1.409 . S
C1177 H1169 0.930 . S
C1177 C1175 1.419 1_455 S
C1177 C1178 1.362 . S
C1178 H1170 0.930 . S
C1178 C1177 1.362 . S
C1178 C1181 1.409 1_455 S
C1179 H1171 0.930 . S
C1179 C1180 1.355 1_455 S
C1179 C1181 1.415 1_455 S
C1180 C1179 1.355 1_655 S
C1180 C1182 1.419 . S
C1181 C1176 1.425 . S
C1181 C1178 1.409 1_655 S
C1181 C1179 1.415 1_655 S
C1182 H1172 0.930 . S
C1182 C1180 1.419 . S
C1182 C1183 1.362 . S
C1183 H1173 0.930 . S
C1183 C1176 1.409 . S
C1183 C1182 1.362 . S
C551 C277 0.652 . S
C556 C5 0.659 . S
C567 C39 0.563 . S
C572 C311 0.559 . S
C583 C345 0.686 . S
C588 C73 0.670 . S
C599 C379 0.479 . S
C604 C122 0.306 . S
C615 C141 0.455 . S
C620 C413 0.450 . S
C631 C175 0.527 . S
C636 C447 0.521 . S
C647 C209 0.481 . S
C652 C481 0.499 . S
C663 C243 0.590 . S
C668 C515 0.592 . S
C679 C33 1.772 . S
C684 C530 1.657 . S
C695 C67 1.627 . S
C700 C428 1.496 . S
C711 C101 1.663 . S
C716 C462 1.537 . S
C727 C496 1.551 . S
C732 C135 1.587 . S
C743 C169 1.599 . S
C748 C326 1.490 . S
C759 C203 1.593 . S
C764 C360 1.472 . S
C775 C394 1.677 . S
C780 C237 1.762 . S
C791 C271 1.676 . S
C796 C292 1.553 . S
C807 C258 1.522 . S
C812 C305 1.644 . S
C823 C156 1.570 . S
C828 C339 1.609 . S
C839 C190 1.517 . S
C844 C373 1.611 . S
C855 C407 1.357 . S
C860 C224 1.274 . S
C871 C54 1.455 . S
C876 C441 1.588 . S
C887 C475 1.602 . S
C892 C88 1.464 . S
C903 C111 1.103 . S
C908 C509 1.231 . S
C919 C20 1.612 . S
C924 C543 1.684 . S
C935 C240 1.904 . S
C940 C2 1.856 . S
C951 C138 1.793 . S
C956 C36 1.861 . S
C967 C70 1.852 . S
C972 C172 1.819 . S
C983 C206 1.399 . S
C988 C107 1.436 . S
C999 C512 1.982 . S
C1004 C274 2.021 . S
C1015 C308 1.873 . S
C1020 C410 1.796 . S
C1031 C342 1.841 . S
C1036 C444 1.780 . S
C1047 C376 2.053 . S
C1052 C478 2.084 . S
C1063 C9 1.294 . S
C1068 C417 1.211 . S
C1079 C43 1.025 . S
C1084 C451 0.919 . S
C1095 C77 1.145 . S
C1100 C485 1.235 . S
C1111 C104 1.447 . S
C1116 C519 1.373 . S
C1127 C145 1.230 . S
C1132 C281 1.274 . S
C1143 C179 1.040 . S
C1148 C315 0.992 . S
C1159 C213 1.147 . S
C1164 C349 1.197 . S
C1175 C383 1.523 . S
C1180 C247 1.419 . S
