# Generated by pormake.
# Topology dia-f, (3)-cn, num edge types: 1
# Building blocks:
#     Node 0, Type 0, BuildingBlock: OLANEW_clean_sbu_2, # of connection points: 3
#     Node 1, Type 0, BuildingBlock: OLANEW_clean_sbu_2, # of connection points: 3
#     Node 2, Type 0, BuildingBlock: OLANEW_clean_sbu_2, # of connection points: 3
#     Node 3, Type 0, BuildingBlock: OLANEW_clean_sbu_2, # of connection points: 3
#     Node 4, Type 0, BuildingBlock: OLANEW_clean_sbu_2, # of connection points: 3
#     Node 5, Type 0, BuildingBlock: OLANEW_clean_sbu_2, # of connection points: 3
#     Node 6, Type 0, BuildingBlock: OLANEW_clean_sbu_2, # of connection points: 3
#     Node 7, Type 0, BuildingBlock: OLANEW_clean_sbu_2, # of connection points: 3
#     Node 8, Type 0, BuildingBlock: OLANEW_clean_sbu_2, # of connection points: 3
#     Node 9, Type 0, BuildingBlock: OLANEW_clean_sbu_2, # of connection points: 3
#     Node 10, Type 0, BuildingBlock: OLANEW_clean_sbu_2, # of connection points: 3
#     Node 11, Type 0, BuildingBlock: OLANEW_clean_sbu_2, # of connection points: 3
#     Node 12, Type 0, BuildingBlock: OLANEW_clean_sbu_2, # of connection points: 3
#     Node 13, Type 0, BuildingBlock: OLANEW_clean_sbu_2, # of connection points: 3
#     Node 14, Type 0, BuildingBlock: OLANEW_clean_sbu_2, # of connection points: 3
#     Node 15, Type 0, BuildingBlock: OLANEW_clean_sbu_2, # of connection points: 3
#     Edge 16, Type (0, 0), BuildingBlock: OJICUG_clean_linker_0, # of connection points: 2
#     Edge 17, Type (0, 0), BuildingBlock: OJICUG_clean_linker_0, # of connection points: 2
#     Edge 18, Type (0, 0), BuildingBlock: OJICUG_clean_linker_0, # of connection points: 2
#     Edge 19, Type (0, 0), BuildingBlock: OJICUG_clean_linker_0, # of connection points: 2
#     Edge 20, Type (0, 0), BuildingBlock: OJICUG_clean_linker_0, # of connection points: 2
#     Edge 21, Type (0, 0), BuildingBlock: OJICUG_clean_linker_0, # of connection points: 2
#     Edge 22, Type (0, 0), BuildingBlock: OJICUG_clean_linker_0, # of connection points: 2
#     Edge 23, Type (0, 0), BuildingBlock: OJICUG_clean_linker_0, # of connection points: 2
#     Edge 24, Type (0, 0), BuildingBlock: OJICUG_clean_linker_0, # of connection points: 2
#     Edge 25, Type (0, 0), BuildingBlock: OJICUG_clean_linker_0, # of connection points: 2
#     Edge 26, Type (0, 0), BuildingBlock: OJICUG_clean_linker_0, # of connection points: 2
#     Edge 27, Type (0, 0), BuildingBlock: OJICUG_clean_linker_0, # of connection points: 2
#     Edge 28, Type (0, 0), BuildingBlock: OJICUG_clean_linker_0, # of connection points: 2
#     Edge 29, Type (0, 0), BuildingBlock: OJICUG_clean_linker_0, # of connection points: 2
#     Edge 30, Type (0, 0), BuildingBlock: OJICUG_clean_linker_0, # of connection points: 2
#     Edge 31, Type (0, 0), BuildingBlock: OJICUG_clean_linker_0, # of connection points: 2
#     Edge 32, Type (0, 0), BuildingBlock: OJICUG_clean_linker_0, # of connection points: 2
#     Edge 33, Type (0, 0), BuildingBlock: OJICUG_clean_linker_0, # of connection points: 2
#     Edge 34, Type (0, 0), BuildingBlock: OJICUG_clean_linker_0, # of connection points: 2
#     Edge 35, Type (0, 0), BuildingBlock: OJICUG_clean_linker_0, # of connection points: 2
#     Edge 36, Type (0, 0), BuildingBlock: OJICUG_clean_linker_0, # of connection points: 2
#     Edge 37, Type (0, 0), BuildingBlock: OJICUG_clean_linker_0, # of connection points: 2
#     Edge 38, Type (0, 0), BuildingBlock: OJICUG_clean_linker_0, # of connection points: 2
#     Edge 39, Type (0, 0), BuildingBlock: OJICUG_clean_linker_0, # of connection points: 2
# Relax obj value: 0.009
# Max RMSD: 0.057
# Mean RMSD: 0.038
data_MOF--net-dia-f--node1-OLANEW_clean_sbu_2--edge1-OJICUG_clean_linker_0
_symmetry_space_group_name_H-M    P1
_symmetry_Int_Tables_number       1
_symmetry_cell_setting            triclinic
loop_
_symmetry_equiv_pos_as_xyz
'x, y, z'
_cell_length_a     55.577246
_cell_length_b     55.173541
_cell_length_c     15.800793
_cell_angle_alpha  89.994674
_cell_angle_beta   89.995848
_cell_angle_gamma 98.223189
loop_
_atom_site_label
_atom_site_type_symbol
_atom_site_fract_x
_atom_site_fract_y
_atom_site_fract_z
_atom_type_partial_charge
O0 O 0.05843 0.60772 0.04175 0.0
Cd1 Cd 0.02202 0.57855 0.07121 0.0
O2 O 0.07987 0.59874 0.1513 0.0
Cd3 Cd 0.0471 0.57823 0.20547 0.0
O4 O 0.01679 0.59315 0.26384 0.0
C5 C 0.01758 0.61589 0.24868 0.0
O6 O 0.03518 0.62677 0.20058 0.0
C7 C 0.07822 0.61079 0.08345 0.0
C8 C 0.02158 0.53545 0.97933 0.0
O9 O 0.01462 0.55443 0.94582 0.0
O10 O 0.02873 0.53681 0.05653 0.0
O11 O 0.64448 0.71776 0.55428 0.0
Cd12 Cd 0.66474 0.75575 0.61721 0.0
O13 O 0.63529 0.74094 0.451 0.0
Cd14 Cd 0.62197 0.75367 0.33122 0.0
O15 O 0.6087 0.78123 0.25175 0.0
C16 C 0.60451 0.8003 0.29095 0.0
O17 O 0.60835 0.80164 0.37301 0.0
C18 C 0.63439 0.71966 0.4829 0.0
C19 C 0.7148 0.75574 0.62669 0.0
O20 O 0.70111 0.74972 0.69081 0.0
O21 O 0.70484 0.76192 0.55837 0.0
O22 O 0.59227 0.40263 0.75268 0.0
Cd23 Cd 0.57801 0.4404 0.79722 0.0
O24 O 0.5566 0.38107 0.77601 0.0
Cd25 Cd 0.52996 0.34784 0.78811 0.0
O26 O 0.49956 0.31945 0.82022 0.0
C27 C 0.4842 0.32436 0.87504 0.0
O28 O 0.48719 0.34617 0.9102 0.0
C29 C 0.57852 0.38217 0.75118 0.0
C30 C 0.57993 0.47249 0.66046 0.0
O31 O 0.59861 0.47146 0.70718 0.0
O32 O 0.56016 0.45856 0.67911 0.0
O33 O 0.8945 0.29233 0.59087 0.0
Cd34 Cd 0.86871 0.25516 0.63772 0.0
O35 O 0.90362 0.27575 0.47073 0.0
Cd36 Cd 0.89108 0.23888 0.51687 0.0
O37 O 0.90861 0.2108 0.57978 0.0
C38 C 0.92394 0.21871 0.63662 0.0
O39 O 0.92652 0.24207 0.65645 0.0
C40 C 0.90476 0.29438 0.51874 0.0
C41 C 0.81946 0.25851 0.61706 0.0
O42 O 0.83041 0.26479 0.68677 0.0
O43 O 0.83184 0.25068 0.55706 0.0
O44 O 0.05375 0.38239 0.72801 0.0
Cd45 Cd 0.01911 0.40331 0.69378 0.0
O46 O 0.06442 0.37531 0.59723 0.0
Cd47 Cd 0.03297 0.39059 0.54936 0.0
O48 O 0.99381 0.38063 0.53572 0.0
C49 C 0.98563 0.36896 0.47008 0.0
O50 O 0.00077 0.36608 0.4082 0.0
C51 C 0.06783 0.37362 0.67646 0.0
C52 C 0.02005 0.44634 0.78657 0.0
O53 O 0.01159 0.42555 0.81878 0.0
O54 O 0.02802 0.44682 0.71037 0.0
O55 O 0.89536 0.77275 0.59075 0.0
Cd56 Cd 0.86567 0.74093 0.65432 0.0
O57 O 0.90822 0.74143 0.53048 0.0
Cd58 Cd 0.93225 0.72089 0.45927 0.0
O59 O 0.95495 0.69769 0.39437 0.0
C60 C 0.9522 0.67474 0.40757 0.0
O61 O 0.93536 0.66505 0.46084 0.0
C62 C 0.91035 0.76448 0.54159 0.0
C63 C 0.81744 0.74903 0.6433 0.0
O64 O 0.82995 0.75479 0.71033 0.0
O65 O 0.82787 0.73989 0.58101 0.0
O66 O 0.60435 0.61347 0.30904 0.0
Cd67 Cd 0.58956 0.57366 0.24708 0.0
O68 O 0.57129 0.62837 0.27426 0.0
Cd69 Cd 0.54454 0.65383 0.26705 0.0
O70 O 0.5165 0.67634 0.23534 0.0
C71 C 0.49891 0.66766 0.18774 0.0
O72 O 0.49779 0.64509 0.15987 0.0
C73 C 0.59209 0.63121 0.30965 0.0
C74 C 0.58566 0.53871 0.37543 0.0
O75 O 0.60578 0.54499 0.33629 0.0
O76 O 0.56716 0.54856 0.35255 0.0
O77 O 0.6485 0.21231 0.5828 0.0
Cd78 Cd 0.6656 0.25535 0.5663 0.0
O79 O 0.61668 0.21469 0.50207 0.0
Cd80 Cd 0.62121 0.25451 0.50602 0.0
O81 O 0.60773 0.28717 0.55355 0.0
C82 C 0.61897 0.30013 0.61153 0.0
O83 O 0.63974 0.29451 0.63952 0.0
C84 C 0.62961 0.20193 0.54497 0.0
C85 C 0.71608 0.25972 0.58027 0.0
O86 O 0.70279 0.26227 0.64508 0.0
O87 O 0.70551 0.25561 0.50855 0.0
O88 O 0.38119 0.26074 0.9853 0.0
Cd89 Cd 0.34791 0.22755 0.012 0.0
O90 O 0.40165 0.2304 0.96289 0.0
Cd91 Cd 0.43318 0.21196 0.93753 0.0
O92 O 0.46238 0.19061 0.91022 0.0
C93 C 0.4597 0.16769 0.92422 0.0
O94 O 0.43908 0.15691 0.95614 0.0
C95 C 0.401 0.25336 0.96444 0.0
C96 C 0.30369 0.24123 0.06212 0.0
O97 O 0.31904 0.23583 0.1171 0.0
O98 O 0.30958 0.24084 0.98374 0.0
O99 O 0.15221 0.712 0.09384 0.0
Cd100 Cd 0.17109 0.75478 0.09887 0.0
O101 O 0.12912 0.71803 0.98505 0.0
Cd102 Cd 0.13632 0.75782 0.99524 0.0
O103 O 0.12578 0.7932 0.02939 0.0
C104 C 0.1107 0.79338 0.08985 0.0
O105 O 0.10301 0.77275 0.12928 0.0
C106 C 0.13693 0.70352 0.03757 0.0
C107 C 0.22159 0.75779 0.09606 0.0
O108 O 0.20993 0.75693 0.16625 0.0
O109 O 0.20935 0.75749 0.02721 0.0
O110 O 0.13344 0.21749 0.09066 0.0
Cd111 Cd 0.15526 0.24944 0.18032 0.0
O112 O 0.14295 0.24353 0.98758 0.0
Cd113 Cd 0.14108 0.25824 0.85983 0.0
O114 O 0.12909 0.28685 0.78147 0.0
C115 C 0.12648 0.30634 0.82116 0.0
O116 O 0.13214 0.30788 0.90193 0.0
C117 C 0.13297 0.22256 0.01231 0.0
C118 C 0.20498 0.2516 0.15079 0.0
O119 O 0.19469 0.23915 0.2127 0.0
O120 O 0.19186 0.26346 0.10405 0.0
O121 O 0.39832 0.79961 0.06449 0.0
Cd122 Cd 0.37596 0.75873 0.08852 0.0
O123 O 0.40819 0.79158 0.9338 0.0
Cd124 Cd 0.39809 0.75243 0.95476 0.0
O125 O 0.41562 0.72318 0.01005 0.0
C126 C 0.43146 0.73043 0.06607 0.0
O127 O 0.43469 0.75368 0.08757 0.0
C128 C 0.4081 0.80677 0.99431 0.0
C129 C 0.32588 0.75918 0.09067 0.0
O130 O 0.33839 0.7618 0.15906 0.0
O131 O 0.33708 0.75634 0.02126 0.0
O132 O 0.56416 0.09781 0.61075 0.0
Cd133 Cd 0.53934 0.06019 0.65842 0.0
O134 O 0.59228 0.09599 0.70733 0.0
Cd135 Cd 0.56491 0.07382 0.78384 0.0
O136 O 0.5338 0.08875 0.83683 0.0
C137 C 0.53646 0.11201 0.83282 0.0
O138 O 0.55685 0.12362 0.80178 0.0
C139 C 0.58509 0.10568 0.64061 0.0
C140 C 0.5364 0.02623 0.52729 0.0
O141 O 0.55464 0.02917 0.57767 0.0
O142 O 0.51917 0.03897 0.53998 0.0
O143 O 0.0865 0.90303 0.16374 0.0
Cd144 Cd 0.07361 0.94191 0.20463 0.0
O145 O 0.05454 0.88288 0.22594 0.0
Cd146 Cd 0.02791 0.85174 0.26683 0.0
O147 O 0.99859 0.82535 0.32032 0.0
C148 C 0.98859 0.8308 0.38879 0.0
O149 O 0.99633 0.8519 0.4251 0.0
C150 C 0.07418 0.8827 0.18455 0.0
C151 C 0.0816 0.97693 0.07646 0.0
O152 O 0.09844 0.97384 0.12911 0.0
O153 O 0.06096 0.9634 0.08424 0.0
O154 O 0.55289 0.89221 0.16481 0.0
Cd155 Cd 0.5348 0.9269 0.11108 0.0
O156 O 0.56204 0.87832 0.04026 0.0
Cd157 Cd 0.53731 0.89996 0.97761 0.0
O158 O 0.49936 0.88922 0.94266 0.0
C159 C 0.48341 0.88821 0.00069 0.0
O160 O 0.48999 0.8971 0.07567 0.0
C161 C 0.56314 0.87739 0.12053 0.0
C162 C 0.53426 0.96043 0.24248 0.0
O163 O 0.51519 0.94534 0.22468 0.0
O164 O 0.55327 0.96002 0.19691 0.0
O165 O 0.1153 0.12944 0.77268 0.0
Cd166 Cd 0.10618 0.08995 0.70107 0.0
O167 O 0.07646 0.13222 0.78406 0.0
Cd168 Cd 0.04551 0.15124 0.81292 0.0
O169 O 0.01399 0.17038 0.79596 0.0
C170 C 0.99644 0.1607 0.7499 0.0
O171 O 0.99735 0.13901 0.71671 0.0
C172 C 0.0985 0.14104 0.79811 0.0
C173 C 0.09803 0.05207 0.81918 0.0
O174 O 0.11957 0.06022 0.79367 0.0
O175 O 0.08029 0.06169 0.78821 0.0
C176 C 0.13032 0.66228 0.10748 0.0
C177 C 0.12595 0.67744 0.03928 0.0
H178 H 0.11882 0.62892 0.17451 0.0
C179 C 0.10871 0.6683 0.97788 0.0
H180 H 0.14365 0.66866 0.15546 0.0
C181 C 0.09455 0.6455 0.98862 0.0
C182 C 0.09729 0.63136 0.06108 0.0
H183 H 0.10514 0.67934 0.92385 0.0
H184 H 0.08043 0.63969 0.94271 0.0
C185 C 0.11611 0.63943 0.11829 0.0
C186 C 0.58803 0.84012 0.29227 0.0
C187 C 0.59496 0.82046 0.24618 0.0
H188 H 0.57268 0.87347 0.28888 0.0
C189 C 0.59233 0.8202 0.15769 0.0
H190 H 0.58986 0.84094 0.3605 0.0
C191 C 0.58259 0.83903 0.11638 0.0
C192 C 0.57514 0.85839 0.16285 0.0
H193 H 0.5976 0.80535 0.12035 0.0
H194 H 0.58045 0.83813 0.04827 0.0
C195 C 0.57818 0.85881 0.25115 0.0
C196 C 0.43975 0.26536 0.88362 0.0
C197 C 0.42262 0.2712 0.94287 0.0
H198 H 0.47261 0.27749 0.81559 0.0
C199 C 0.42581 0.29468 0.97913 0.0
H200 H 0.43732 0.24779 0.85203 0.0
C201 C 0.44589 0.31184 0.95757 0.0
C202 C 0.46313 0.30598 0.89859 0.0
H203 H 0.41281 0.29976 0.02458 0.0
H204 H 0.44781 0.32975 0.98692 0.0
C205 C 0.45982 0.28253 0.86185 0.0
C206 C 0.95846 0.21229 0.73187 0.0
C207 C 0.94072 0.20281 0.67254 0.0
H208 H 0.98986 0.20646 0.80313 0.0
C209 C 0.94037 0.17866 0.64378 0.0
H210 H 0.9592 0.23079 0.75566 0.0
C211 C 0.95801 0.16468 0.67105 0.0
C212 C 0.97637 0.17456 0.72766 0.0
H213 H 0.92691 0.17077 0.59823 0.0
H214 H 0.95762 0.14637 0.64589 0.0
C215 C 0.97608 0.19833 0.7591 0.0
C216 C 0.09516 0.34154 0.65838 0.0
C217 C 0.08618 0.35908 0.70952 0.0
H218 H 0.11489 0.3109 0.65365 0.0
C219 C 0.09272 0.36067 0.79541 0.0
H220 H 0.09039 0.33982 0.59197 0.0
C221 C 0.10686 0.34426 0.83049 0.0
C222 C 0.11452 0.32569 0.78072 0.0
H223 H 0.08621 0.37409 0.83636 0.0
H224 H 0.11086 0.34552 0.89757 0.0
C225 C 0.10908 0.32488 0.69379 0.0
C226 C 0.95804 0.8197 0.50418 0.0
C227 C 0.96848 0.81377 0.4272 0.0
H228 H 0.93157 0.80875 0.60044 0.0
C229 C 0.95937 0.79156 0.38733 0.0
H230 H 0.96452 0.83669 0.5365 0.0
C231 C 0.94039 0.77558 0.42399 0.0
C232 C 0.93025 0.78135 0.50162 0.0
H233 H 0.96678 0.78657 0.32744 0.0
H234 H 0.93334 0.75901 0.39041 0.0
C235 C 0.9391 0.80371 0.5408 0.0
C236 C 0.44568 0.68927 0.07414 0.0
C237 C 0.44747 0.71369 0.10152 0.0
H238 H 0.46048 0.65555 0.08 0.0
C239 C 0.4656 0.72246 0.16048 0.0
H240 H 0.43191 0.68194 0.02884 0.0
C241 C 0.48199 0.70738 0.18964 0.0
C242 C 0.48063 0.68316 0.16063 0.0
H243 H 0.46746 0.74116 0.18311 0.0
H244 H 0.49597 0.71488 0.23398 0.0
C245 C 0.46208 0.67415 0.10342 0.0
C246 C 0.58976 0.1405 0.53797 0.0
C247 C 0.59927 0.12811 0.60514 0.0
H248 H 0.59202 0.1735 0.46574 0.0
C249 C 0.6209 0.13892 0.64421 0.0
H250 H 0.57325 0.13262 0.50593 0.0
C251 C 0.63173 0.16241 0.6209 0.0
C252 C 0.62107 0.17556 0.55835 0.0
H253 H 0.6288 0.12979 0.69576 0.0
H254 H 0.64768 0.17073 0.65515 0.0
C255 C 0.60051 0.16399 0.51496 0.0
C256 C 0.95432 0.3367 0.40855 0.0
C257 C 0.96133 0.35393 0.47261 0.0
H258 H 0.93058 0.3044 0.37235 0.0
C259 C 0.94657 0.35407 0.54482 0.0
H260 H 0.9651 0.33627 0.3516 0.0
C261 C 0.9267 0.33579 0.55669 0.0
C262 C 0.92127 0.317 0.49663 0.0
H263 H 0.95126 0.36731 0.5949 0.0
H264 H 0.9167 0.33545 0.61562 0.0
C265 C 0.93449 0.31838 0.42049 0.0
C266 C 0.495 0.11427 0.89347 0.0
C267 C 0.5169 0.12603 0.85891 0.0
H268 H 0.45971 0.11822 0.94157 0.0
C269 C 0.51993 0.15155 0.84753 0.0
H270 H 0.49212 0.09463 0.90306 0.0
C271 C 0.50143 0.16502 0.86928 0.0
C272 C 0.47944 0.15331 0.90315 0.0
H273 H 0.53656 0.16122 0.82097 0.0
H274 H 0.50437 0.18463 0.85899 0.0
C275 C 0.47645 0.1278 0.91548 0.0
C276 C 0.59526 0.67687 0.33215 0.0
C277 C 0.60204 0.65411 0.35411 0.0
H278 H 0.59946 0.71535 0.35709 0.0
C279 C 0.61927 0.65322 0.41869 0.0
H280 H 0.58256 0.67834 0.28131 0.0
C281 C 0.62948 0.6745 0.46039 0.0
C282 C 0.62289 0.69732 0.43828 0.0
H283 H 0.6249 0.63599 0.43732 0.0
H284 H 0.64282 0.67307 0.50948 0.0
C285 C 0.60547 0.69825 0.37425 0.0
C286 C 0.07699 0.83812 0.20762 0.0
C287 C 0.08292 0.85959 0.15981 0.0
H288 H 0.08111 0.8004 0.22316 0.0
C289 C 0.09841 0.85922 0.08955 0.0
H290 H 0.06602 0.83801 0.2641 0.0
C291 C 0.1075 0.83778 0.06693 0.0
C292 C 0.10135 0.81622 0.11421 0.0
H293 H 0.10346 0.87553 0.05173 0.0
H294 H 0.11928 0.83811 0.0122 0.0
C295 C 0.086 0.81662 0.1848 0.0
C296 C 0.00162 0.65552 0.26885 0.0
C297 C -1e-05 0.63041 0.28703 0.0
H298 H 0.98788 0.68912 0.29231 0.0
C299 C 0.98201 0.61974 0.3436 0.0
H300 H 0.01521 0.66434 0.22538 0.0
C301 C 0.96626 0.63406 0.38219 0.0
C302 C 0.9682 0.65927 0.36493 0.0
H303 H 0.9803 0.60044 0.35886 0.0
H304 H 0.95274 0.62539 0.42621 0.0
C305 C 0.98593 0.66978 0.30731 0.0
C306 C 0.1253 0.18068 0.8226 0.0
C307 C 0.10489 0.16399 0.84596 0.0
H308 H 0.14978 0.21284 0.85636 0.0
C309 C 0.09241 0.168 0.92076 0.0
H310 H 0.13528 0.17786 0.7654 0.0
C311 C 0.10107 0.18763 0.97384 0.0
C312 C 0.12187 0.20395 0.95155 0.0
H313 H 0.07685 0.15517 0.94068 0.0
H314 H 0.09187 0.18971 0.03329 0.0
C315 C 0.1335 0.20072 0.87435 0.0
C316 C 0.58371 0.32294 0.63646 0.0
C317 C 0.60838 0.32079 0.64895 0.0
H318 H 0.55484 0.34401 0.65959 0.0
C319 C 0.6228 0.33846 0.69806 0.0
H320 H 0.57212 0.30957 0.59907 0.0
C321 C 0.61289 0.35817 0.73244 0.0
C322 C 0.58826 0.36032 0.71992 0.0
H323 H 0.64185 0.33732 0.7088 0.0
H324 H 0.62454 0.37179 0.76874 0.0
C325 C 0.57371 0.34246 0.67206 0.0
C326 C 0.42592 0.84676 0.05894 0.0
C327 C 0.42278 0.83132 0.98782 0.0
H328 H 0.44742 0.87729 0.11831 0.0
C329 C 0.43673 0.8379 0.91497 0.0
H330 H 0.41526 0.84243 0.11574 0.0
C331 C 0.45521 0.85794 0.91644 0.0
C332 C 0.46009 0.87175 0.99082 0.0
H333 H 0.43457 0.8266 0.85866 0.0
H334 H 0.46674 0.86147 0.86125 0.0
C335 C 0.4444 0.86679 0.06041 0.0
C336 C 0.0217 0.51333 0.8413 0.0
C337 C 0.02132 0.51266 0.93018 0.0
H338 H 0.022 0.49287 0.72617 0.0
C339 C 0.02062 0.49003 0.97154 0.0
H340 H 0.02233 0.53054 0.80777 0.0
C341 C 0.01995 0.46843 0.92482 0.0
C342 C 0.02055 0.46913 0.83594 0.0
H343 H 0.02024 0.48898 0.04 0.0
H344 H 0.01924 0.45121 0.9583 0.0
C345 C 0.0216 0.4918 0.79463 0.0
C346 C 0.75483 0.7539 0.55636 0.0
C347 C 0.74127 0.75511 0.63091 0.0
H348 H 0.78955 0.75077 0.5019 0.0
C349 C 0.75312 0.75517 0.70945 0.0
H350 H 0.74617 0.75377 0.49492 0.0
C351 C 0.77804 0.75389 0.71338 0.0
C352 C 0.79147 0.75202 0.6389 0.0
H353 H 0.74314 0.75619 0.76793 0.0
H354 H 0.78665 0.75376 0.77484 0.0
C355 C 0.77964 0.75212 0.56035 0.0
C356 C 0.56 0.49455 0.54749 0.0
C357 C 0.58128 0.48914 0.58678 0.0
H358 H 0.54468 0.51464 0.4501 0.0
C359 C 0.60396 0.49975 0.5549 0.0
H360 H 0.54226 0.48665 0.57067 0.0
C361 C 0.60535 0.51546 0.48521 0.0
C362 C 0.58408 0.5212 0.44672 0.0
H363 H 0.62069 0.49583 0.58353 0.0
H364 H 0.62311 0.52342 0.46236 0.0
C365 C 0.56138 0.51059 0.47853 0.0
C366 C 0.77927 0.26603 0.6755 0.0
C367 C 0.79321 0.25984 0.60668 0.0
H368 H 0.74401 0.27087 0.72119 0.0
C369 C 0.78172 0.25447 0.52829 0.0
H370 H 0.78757 0.2703 0.73673 0.0
C371 C 0.75676 0.25492 0.51926 0.0
C372 C 0.74273 0.26063 0.58855 0.0
H373 H 0.79196 0.24971 0.47392 0.0
H374 H 0.74842 0.25041 0.45826 0.0
C375 C 0.75429 0.26636 0.6666 0.0
C376 C 0.27024 0.23975 0.169 0.0
C377 C 0.27929 0.24625 0.0878 0.0
H378 H 0.23957 0.2362 0.25247 0.0
C379 C 0.2642 0.25609 0.0296 0.0
H380 H 0.28142 0.23209 0.21523 0.0
C381 C 0.24032 0.25872 0.0513 0.0
C382 C 0.23094 0.2512 0.13118 0.0
H383 H 0.27068 0.26136 0.96666 0.0
H384 H 0.22897 0.26585 0.00438 0.0
C385 C 0.24625 0.24202 0.19025 0.0
C386 C 0.28591 0.75784 0.0161 0.0
C387 C 0.29926 0.75926 0.09193 0.0
H388 H 0.25096 0.75638 0.95786 0.0
C389 C 0.2869 0.76059 0.16903 0.0
H390 H 0.29489 0.75685 0.95561 0.0
C391 C 0.2617 0.76025 0.17034 0.0
C392 C 0.24833 0.7587 0.09455 0.0
H393 H 0.29665 0.7617 0.22858 0.0
H394 H 0.25271 0.76114 0.23085 0.0
C395 C 0.26072 0.75761 0.01738 0.0
C396 C 0.55681 0.98689 0.353 0.0
C397 C 0.53463 0.97736 0.31497 0.0
H398 H 0.57467 0.00943 0.45107 0.0
C399 C 0.51292 0.98381 0.34777 0.0
H400 H 0.57382 0.98209 0.3294 0.0
C401 C 0.51344 -0.00018 0.41664 0.0
C402 C 0.53564 0.00914 0.45512 0.0
H403 H 0.49556 0.97672 0.31961 0.0
H404 H 0.49648 0.0047 0.44025 0.0
C405 C 0.55729 0.00241 0.42297 0.0
C406 C 0.07021 0.02072 0.90085 0.0
C407 C 0.09385 0.03242 0.88349 0.0
H408 H 0.04782 0.99383 0.97484 0.0
C409 C 0.11345 0.02544 0.92915 0.0
H410 H 0.05474 0.02564 0.8666 0.0
C411 C 0.10946 0.00741 0.99173 0.0
C412 C 0.08582 0.99575 0.00927 0.0
H413 H 0.13188 0.03415 0.91739 0.0
H414 H 0.12493 0.00259 0.02629 0.0
C415 C 0.06625 0.00245 0.96273 0.0
loop_
_geom_bond_atom_site_label_1
_geom_bond_atom_site_label_2
_geom_bond_distance
_geom_bond_site_symmetry_2
_ccdc_geom_bond_type
O0 Cd1 2.300 . S
O0 C7 1.275 . S
Cd1 O0 2.300 . S
Cd1 O9 2.381 . S
Cd1 O10 2.378 . S
O2 Cd3 2.385 . S
O2 C7 1.255 . S
Cd3 O2 2.385 . S
Cd3 O4 2.317 . S
O4 Cd3 2.317 . S
O4 C5 1.232 . S
C5 O4 1.232 . S
C5 O6 1.218 . S
O6 C5 1.218 . S
C7 O0 1.275 . S
C7 O2 1.255 . S
C8 O9 1.258 . S
C8 O10 1.256 . S
O9 Cd1 2.381 . S
O9 C8 1.258 . S
O10 Cd1 2.378 . S
O10 C8 1.256 . S
O11 Cd12 2.300 . S
O11 C18 1.275 . S
Cd12 O11 2.300 . S
Cd12 O20 2.381 . S
Cd12 O21 2.378 . S
O13 Cd14 2.385 . S
O13 C18 1.255 . S
Cd14 O13 2.385 . S
Cd14 O15 2.317 . S
O15 Cd14 2.317 . S
O15 C16 1.232 . S
C16 O15 1.232 . S
C16 O17 1.218 . S
O17 C16 1.218 . S
C18 O11 1.275 . S
C18 O13 1.255 . S
C19 O20 1.258 . S
C19 O21 1.256 . S
O20 Cd12 2.381 . S
O20 C19 1.258 . S
O21 Cd12 2.378 . S
O21 C19 1.256 . S
O22 Cd23 2.300 . S
O22 C29 1.275 . S
Cd23 O22 2.300 . S
Cd23 O31 2.381 . S
Cd23 O32 2.378 . S
O24 Cd25 2.385 . S
O24 C29 1.255 . S
Cd25 O24 2.385 . S
Cd25 O26 2.317 . S
O26 Cd25 2.317 . S
O26 C27 1.232 . S
C27 O26 1.232 . S
C27 O28 1.218 . S
O28 C27 1.218 . S
C29 O22 1.275 . S
C29 O24 1.255 . S
C30 O31 1.258 . S
C30 O32 1.256 . S
O31 Cd23 2.381 . S
O31 C30 1.258 . S
O32 Cd23 2.378 . S
O32 C30 1.256 . S
O33 Cd34 2.300 . S
O33 C40 1.275 . S
Cd34 O33 2.300 . S
Cd34 O42 2.381 . S
Cd34 O43 2.378 . S
O35 Cd36 2.385 . S
O35 C40 1.255 . S
Cd36 O35 2.385 . S
Cd36 O37 2.317 . S
O37 Cd36 2.317 . S
O37 C38 1.232 . S
C38 O37 1.232 . S
C38 O39 1.218 . S
O39 C38 1.218 . S
C40 O33 1.275 . S
C40 O35 1.255 . S
C41 O42 1.258 . S
C41 O43 1.256 . S
O42 Cd34 2.381 . S
O42 C41 1.258 . S
O43 Cd34 2.378 . S
O43 C41 1.256 . S
O44 Cd45 2.300 . S
O44 C51 1.275 . S
Cd45 O44 2.300 . S
Cd45 O53 2.381 . S
Cd45 O54 2.378 . S
O46 Cd47 2.385 . S
O46 C51 1.255 . S
Cd47 O46 2.385 . S
Cd47 O48 2.317 . S
O48 Cd47 2.317 . S
O48 C49 1.229 1_455 S
C49 O48 1.229 1_655 S
C49 O50 1.206 1_655 S
O50 C49 1.206 1_455 S
C51 O44 1.275 . S
C51 O46 1.255 . S
C52 O53 1.258 . S
C52 O54 1.256 . S
O53 Cd45 2.381 . S
O53 C52 1.258 . S
O54 Cd45 2.378 . S
O54 C52 1.256 . S
O55 Cd56 2.300 . S
O55 C62 1.275 . S
Cd56 O55 2.300 . S
Cd56 O64 2.381 . S
Cd56 O65 2.378 . S
O57 Cd58 2.385 . S
O57 C62 1.255 . S
Cd58 O57 2.385 . S
Cd58 O59 2.317 . S
O59 Cd58 2.317 . S
O59 C60 1.232 . S
C60 O59 1.232 . S
C60 O61 1.218 . S
O61 C60 1.218 . S
C62 O55 1.275 . S
C62 O57 1.255 . S
C63 O64 1.258 . S
C63 O65 1.256 . S
O64 Cd56 2.381 . S
O64 C63 1.258 . S
O65 Cd56 2.378 . S
O65 C63 1.256 . S
O66 Cd67 2.300 . S
O66 C73 1.275 . S
Cd67 O66 2.300 . S
Cd67 O75 2.381 . S
Cd67 O76 2.378 . S
O68 Cd69 2.385 . S
O68 C73 1.255 . S
Cd69 O68 2.385 . S
Cd69 O70 2.317 . S
O70 Cd69 2.317 . S
O70 C71 1.232 . S
C71 O70 1.232 . S
C71 O72 1.218 . S
O72 C71 1.218 . S
C73 O66 1.275 . S
C73 O68 1.255 . S
C74 O75 1.258 . S
C74 O76 1.256 . S
O75 Cd67 2.381 . S
O75 C74 1.258 . S
O76 Cd67 2.378 . S
O76 C74 1.256 . S
O77 Cd78 2.300 . S
O77 C84 1.275 . S
Cd78 O77 2.300 . S
Cd78 O86 2.381 . S
Cd78 O87 2.378 . S
O79 Cd80 2.385 . S
O79 C84 1.255 . S
Cd80 O79 2.385 . S
Cd80 O81 2.317 . S
O81 Cd80 2.317 . S
O81 C82 1.232 . S
C82 O81 1.232 . S
C82 O83 1.218 . S
O83 C82 1.218 . S
C84 O77 1.275 . S
C84 O79 1.255 . S
C85 O86 1.258 . S
C85 O87 1.256 . S
O86 Cd78 2.381 . S
O86 C85 1.258 . S
O87 Cd78 2.378 . S
O87 C85 1.256 . S
O88 Cd89 2.300 . S
O88 C95 1.275 . S
Cd89 O88 2.300 . S
Cd89 O97 2.381 1_556 S
Cd89 O98 2.378 . S
O90 Cd91 2.385 . S
O90 C95 1.255 . S
Cd91 O90 2.385 . S
Cd91 O92 2.317 . S
O92 Cd91 2.317 . S
O92 C93 1.232 . S
C93 O92 1.232 . S
C93 O94 1.218 . S
O94 C93 1.218 . S
C95 O88 1.275 . S
C95 O90 1.255 . S
C96 O97 1.258 1_556 S
C96 O98 1.256 . S
O97 Cd89 2.381 1_554 S
O97 C96 1.258 1_554 S
O98 Cd89 2.378 . S
O98 C96 1.256 . S
O99 Cd100 2.300 1_554 S
O99 C106 1.275 . S
Cd100 O99 2.300 1_556 S
Cd100 O108 2.381 1_556 S
Cd100 O109 2.378 . S
O101 Cd102 2.385 . S
O101 C106 1.255 1_556 S
Cd102 O101 2.385 . S
Cd102 O103 2.317 . S
O103 Cd102 2.317 . S
O103 C104 1.232 1_556 S
C104 O103 1.232 1_554 S
C104 O105 1.218 1_554 S
O105 C104 1.218 1_556 S
C106 O99 1.275 . S
C106 O101 1.255 1_554 S
C107 O108 1.258 1_556 S
C107 O109 1.256 . S
O108 Cd100 2.381 1_554 S
O108 C107 1.258 1_554 S
O109 Cd100 2.378 . S
O109 C107 1.256 . S
O110 Cd111 2.300 . S
O110 C117 1.275 . S
Cd111 O110 2.300 . S
Cd111 O119 2.381 1_556 S
Cd111 O120 2.378 . S
O112 Cd113 2.385 . S
O112 C117 1.255 . S
Cd113 O112 2.385 . S
Cd113 O114 2.317 . S
O114 Cd113 2.317 . S
O114 C115 1.232 . S
C115 O114 1.232 . S
C115 O116 1.218 . S
O116 C115 1.218 . S
C117 O110 1.275 . S
C117 O112 1.255 . S
C118 O119 1.258 1_556 S
C118 O120 1.256 . S
O119 Cd111 2.381 1_554 S
O119 C118 1.258 1_554 S
O120 Cd111 2.378 . S
O120 C118 1.256 . S
O121 Cd122 2.300 1_554 S
O121 C128 1.275 . S
Cd122 O121 2.300 1_556 S
Cd122 O130 2.381 1_556 S
Cd122 O131 2.378 . S
O123 Cd124 2.385 . S
O123 C128 1.255 1_556 S
Cd124 O123 2.385 . S
Cd124 O125 2.317 . S
O125 Cd124 2.317 . S
O125 C126 1.232 1_556 S
C126 O125 1.232 1_554 S
C126 O127 1.218 . S
O127 C126 1.218 . S
C128 O121 1.275 . S
C128 O123 1.255 1_554 S
C129 O130 1.258 1_556 S
C129 O131 1.256 . S
O130 Cd122 2.381 1_554 S
O130 C129 1.258 1_554 S
O131 Cd122 2.378 . S
O131 C129 1.256 . S
O132 Cd133 2.300 . S
O132 C139 1.275 . S
Cd133 O132 2.300 . S
Cd133 O141 2.381 . S
Cd133 O142 2.378 . S
O134 Cd135 2.385 . S
O134 C139 1.255 . S
Cd135 O134 2.385 . S
Cd135 O136 2.317 . S
O136 Cd135 2.317 . S
O136 C137 1.232 . S
C137 O136 1.232 . S
C137 O138 1.218 . S
O138 C137 1.218 . S
C139 O132 1.275 . S
C139 O134 1.255 . S
C140 O141 1.258 . S
C140 O142 1.256 . S
O141 Cd133 2.381 . S
O141 C140 1.258 . S
O142 Cd133 2.378 . S
O142 C140 1.256 . S
O143 Cd144 2.300 . S
O143 C150 1.275 . S
Cd144 O143 2.300 . S
Cd144 O152 2.381 . S
Cd144 O153 2.378 . S
O145 Cd146 2.385 . S
O145 C150 1.255 . S
Cd146 O145 2.385 . S
Cd146 O147 2.317 1_455 S
O147 Cd146 2.317 1_655 S
O147 C148 1.232 . S
C148 O147 1.232 . S
C148 O149 1.218 . S
O149 C148 1.218 . S
C150 O143 1.275 . S
C150 O145 1.255 . S
C151 O152 1.258 . S
C151 O153 1.256 . S
O152 Cd144 2.381 . S
O152 C151 1.258 . S
O153 Cd144 2.378 . S
O153 C151 1.256 . S
O154 Cd155 2.300 . S
O154 C161 1.275 . S
Cd155 O154 2.300 . S
Cd155 O163 2.381 . S
Cd155 O164 2.378 . S
O156 Cd157 2.385 . S
O156 C161 1.255 . S
Cd157 O156 2.385 . S
Cd157 O158 2.317 . S
O158 Cd157 2.317 . S
O158 C159 1.232 . S
C159 O158 1.232 . S
C159 O160 1.218 . S
O160 C159 1.218 . S
C161 O154 1.275 . S
C161 O156 1.255 . S
C162 O163 1.258 . S
C162 O164 1.256 . S
O163 Cd155 2.381 . S
O163 C162 1.258 . S
O164 Cd155 2.378 . S
O164 C162 1.256 . S
O165 Cd166 2.300 . S
O165 C172 1.275 . S
Cd166 O165 2.300 . S
Cd166 O174 2.381 . S
Cd166 O175 2.378 . S
O167 Cd168 2.385 . S
O167 C172 1.255 . S
Cd168 O167 2.385 . S
Cd168 O169 2.317 1_455 S
O169 Cd168 2.317 1_655 S
O169 C170 1.232 . S
C170 O169 1.232 . S
C170 O171 1.218 1_655 S
O171 C170 1.218 1_455 S
C172 O165 1.275 . S
C172 O167 1.255 . S
C173 O174 1.258 . S
C173 O175 1.256 . S
O174 Cd166 2.381 . S
O174 C173 1.258 . S
O175 Cd166 2.378 . S
O175 C173 1.256 . S
C176 C177 1.387 . S
C176 H180 0.950 . S
C176 C185 1.390 . S
C177 C176 1.387 . S
C177 C179 1.387 . S
H178 C185 0.950 . S
C179 C177 1.387 . S
C179 C181 1.390 . S
C179 H183 0.950 1_554 S
H180 C176 0.950 . S
C181 C179 1.390 . S
C181 C182 1.387 . S
C181 H184 0.950 . S
C182 C181 1.387 . S
C182 C185 1.387 . S
H183 C179 0.950 1_556 S
H184 C181 0.950 . S
C185 C176 1.390 . S
C185 H178 0.950 . S
C185 C182 1.387 . S
C186 C187 1.387 . S
C186 H190 0.950 . S
C186 C195 1.390 . S
C187 C186 1.387 . S
C187 C189 1.387 . S
H188 C195 0.950 . S
C189 C187 1.387 . S
C189 C191 1.390 . S
C189 H193 0.950 . S
H190 C186 0.950 . S
C191 C189 1.390 . S
C191 C192 1.387 . S
C191 H194 0.950 . S
C192 C191 1.387 . S
C192 C195 1.387 . S
H193 C189 0.950 . S
H194 C191 0.950 . S
C195 C186 1.390 . S
C195 H188 0.950 . S
C195 C192 1.387 . S
C196 C197 1.387 . S
C196 H200 0.950 . S
C196 C205 1.390 . S
C197 C196 1.387 . S
C197 C199 1.387 . S
H198 C205 0.950 . S
C199 C197 1.387 . S
C199 C201 1.390 . S
C199 H203 0.950 1_556 S
H200 C196 0.950 . S
C201 C199 1.390 . S
C201 C202 1.387 . S
C201 H204 0.950 . S
C202 C201 1.387 . S
C202 C205 1.387 . S
H203 C199 0.950 1_554 S
H204 C201 0.950 . S
C205 C196 1.390 . S
C205 H198 0.950 . S
C205 C202 1.387 . S
C206 C207 1.387 . S
C206 H210 0.950 . S
C206 C215 1.390 . S
C207 C206 1.387 . S
C207 C209 1.387 . S
H208 C215 0.950 1_455 S
C209 C207 1.387 . S
C209 C211 1.390 . S
C209 H213 0.950 . S
H210 C206 0.950 . S
C211 C209 1.390 . S
C211 C212 1.387 . S
C211 H214 0.950 . S
C212 C211 1.387 . S
C212 C215 1.387 . S
H213 C209 0.950 . S
H214 C211 0.950 . S
C215 C206 1.390 . S
C215 H208 0.950 1_655 S
C215 C212 1.387 . S
C216 C217 1.387 . S
C216 H220 0.950 . S
C216 C225 1.390 . S
C217 C216 1.387 . S
C217 C219 1.387 . S
H218 C225 0.950 . S
C219 C217 1.387 . S
C219 C221 1.390 . S
C219 H223 0.950 . S
H220 C216 0.950 . S
C221 C219 1.390 . S
C221 C222 1.387 . S
C221 H224 0.950 1_556 S
C222 C221 1.387 . S
C222 C225 1.387 . S
H223 C219 0.950 . S
H224 C221 0.950 1_554 S
C225 C216 1.390 . S
C225 H218 0.950 . S
C225 C222 1.387 . S
C226 C227 1.387 . S
C226 H230 0.950 . S
C226 C235 1.390 . S
C227 C226 1.387 . S
C227 C229 1.387 . S
H228 C235 0.950 . S
C229 C227 1.387 . S
C229 C231 1.390 . S
C229 H233 0.950 . S
H230 C226 0.950 . S
C231 C229 1.390 . S
C231 C232 1.387 . S
C231 H234 0.950 . S
C232 C231 1.387 . S
C232 C235 1.387 . S
H233 C229 0.950 . S
H234 C231 0.950 . S
C235 C226 1.390 . S
C235 H228 0.950 . S
C235 C232 1.387 . S
C236 C237 1.387 . S
C236 H240 0.950 . S
C236 C245 1.390 . S
C237 C236 1.387 . S
C237 C239 1.387 . S
H238 C245 0.950 . S
C239 C237 1.387 . S
C239 C241 1.390 . S
C239 H243 0.950 . S
H240 C236 0.950 . S
C241 C239 1.390 . S
C241 C242 1.387 . S
C241 H244 0.950 . S
C242 C241 1.387 . S
C242 C245 1.387 . S
H243 C239 0.950 . S
H244 C241 0.950 . S
C245 C236 1.390 . S
C245 H238 0.950 . S
C245 C242 1.387 . S
C246 C247 1.387 . S
C246 H250 0.950 . S
C246 C255 1.390 . S
C247 C246 1.387 . S
C247 C249 1.387 . S
H248 C255 0.950 . S
C249 C247 1.387 . S
C249 C251 1.390 . S
C249 H253 0.950 . S
H250 C246 0.950 . S
C251 C249 1.390 . S
C251 C252 1.387 . S
C251 H254 0.950 . S
C252 C251 1.387 . S
C252 C255 1.387 . S
H253 C249 0.950 . S
H254 C251 0.950 . S
C255 C246 1.390 . S
C255 H248 0.950 . S
C255 C252 1.387 . S
C256 C257 1.387 . S
C256 H260 0.950 . S
C256 C265 1.390 . S
C257 C256 1.387 . S
C257 C259 1.387 . S
H258 C265 0.950 . S
C259 C257 1.387 . S
C259 C261 1.390 . S
C259 H263 0.950 . S
H260 C256 0.950 . S
C261 C259 1.390 . S
C261 C262 1.387 . S
C261 H264 0.950 . S
C262 C261 1.387 . S
C262 C265 1.387 . S
H263 C259 0.950 . S
H264 C261 0.950 . S
C265 C256 1.390 . S
C265 H258 0.950 . S
C265 C262 1.387 . S
C266 C267 1.387 . S
C266 H270 0.950 . S
C266 C275 1.390 . S
C267 C266 1.387 . S
C267 C269 1.387 . S
H268 C275 0.950 1_554 S
C269 C267 1.387 . S
C269 C271 1.390 . S
C269 H273 0.950 . S
H270 C266 0.950 . S
C271 C269 1.390 . S
C271 C272 1.387 . S
C271 H274 0.950 . S
C272 C271 1.387 . S
C272 C275 1.387 . S
H273 C269 0.950 . S
H274 C271 0.950 . S
C275 C266 1.390 . S
C275 H268 0.950 1_556 S
C275 C272 1.387 . S
C276 C277 1.387 . S
C276 H280 0.950 . S
C276 C285 1.390 . S
C277 C276 1.387 . S
C277 C279 1.387 . S
H278 C285 0.950 . S
C279 C277 1.387 . S
C279 C281 1.390 . S
C279 H283 0.950 . S
H280 C276 0.950 . S
C281 C279 1.390 . S
C281 C282 1.387 . S
C281 H284 0.950 . S
C282 C281 1.387 . S
C282 C285 1.387 . S
H283 C279 0.950 . S
H284 C281 0.950 . S
C285 C276 1.390 . S
C285 H278 0.950 . S
C285 C282 1.387 . S
C286 C287 1.387 . S
C286 H290 0.950 . S
C286 C295 1.390 . S
C287 C286 1.387 . S
C287 C289 1.387 . S
H288 C295 0.950 . S
C289 C287 1.387 . S
C289 C291 1.390 . S
C289 H293 0.950 . S
H290 C286 0.950 . S
C291 C289 1.390 . S
C291 C292 1.387 . S
C291 H294 0.950 . S
C292 C291 1.387 . S
C292 C295 1.387 . S
H293 C289 0.950 . S
H294 C291 0.950 . S
C295 C286 1.390 . S
C295 H288 0.950 . S
C295 C292 1.387 . S
C296 C297 1.387 . S
C296 H300 0.969 . S
C296 C305 1.390 . S
C297 C296 1.387 . S
C297 C299 1.387 . S
H298 C305 0.950 . S
C299 C297 1.387 . S
C299 C301 1.390 . S
C299 H303 0.950 . S
H300 C296 0.969 . S
C301 C299 1.390 . S
C301 C302 1.387 . S
C301 H304 0.950 . S
C302 C301 1.387 . S
C302 C305 1.387 . S
H303 C299 0.950 . S
H304 C301 0.950 . S
C305 C296 1.390 . S
C305 H298 0.950 . S
C305 C302 1.387 . S
C306 C307 1.387 . S
C306 H310 0.950 . S
C306 C315 1.390 . S
C307 C306 1.387 . S
C307 C309 1.387 . S
H308 C315 0.950 . S
C309 C307 1.387 . S
C309 C311 1.390 . S
C309 H313 0.950 . S
H310 C306 0.950 . S
C311 C309 1.390 . S
C311 C312 1.387 . S
C311 H314 0.950 1_556 S
C312 C311 1.387 . S
C312 C315 1.387 . S
H313 C309 0.950 . S
H314 C311 0.950 1_554 S
C315 C306 1.390 . S
C315 H308 0.950 . S
C315 C312 1.387 . S
C316 C317 1.387 . S
C316 H320 0.950 . S
C316 C325 1.390 . S
C317 C316 1.387 . S
C317 C319 1.387 . S
H318 C325 0.950 . S
C319 C317 1.387 . S
C319 C321 1.390 . S
C319 H323 0.950 . S
H320 C316 0.950 . S
C321 C319 1.390 . S
C321 C322 1.387 . S
C321 H324 0.950 . S
C322 C321 1.387 . S
C322 C325 1.387 . S
H323 C319 0.950 . S
H324 C321 0.950 . S
C325 C316 1.390 . S
C325 H318 0.950 . S
C325 C322 1.387 . S
C326 C327 1.387 . S
C326 H330 0.950 . S
C326 C335 1.390 . S
C327 C326 1.387 . S
C327 C329 1.387 . S
H328 C335 0.950 . S
C329 C327 1.387 . S
C329 C331 1.390 . S
C329 H333 0.950 1_554 S
H330 C326 0.950 . S
C331 C329 1.390 . S
C331 C332 1.387 . S
C331 H334 0.950 . S
C332 C331 1.387 . S
C332 C335 1.387 . S
H333 C329 0.950 1_556 S
H334 C331 0.950 . S
C335 C326 1.390 . S
C335 H328 0.950 . S
C335 C332 1.387 . S
C336 C337 1.387 1_556 S
C336 H340 0.950 . S
C336 C345 1.390 . S
C337 C336 1.387 1_554 S
C337 C339 1.387 . S
H338 C345 0.950 . S
C339 C337 1.387 . S
C339 C341 1.390 . S
C339 H343 0.950 . S
H340 C336 0.950 . S
C341 C339 1.390 . S
C341 C342 1.387 1_554 S
C341 H344 0.950 . S
C342 C341 1.387 1_556 S
C342 C345 1.387 . S
H343 C339 0.950 . S
H344 C341 0.950 . S
C345 C336 1.390 . S
C345 H338 0.950 . S
C345 C342 1.387 . S
C346 C347 1.387 . S
C346 H350 0.950 . S
C346 C355 1.390 . S
C347 C346 1.387 . S
C347 C349 1.387 . S
H348 C355 0.950 . S
C349 C347 1.387 . S
C349 C351 1.390 . S
C349 H353 0.950 . S
H350 C346 0.950 . S
C351 C349 1.390 . S
C351 C352 1.387 . S
C351 H354 0.950 . S
C352 C351 1.387 . S
C352 C355 1.387 . S
H353 C349 0.950 . S
H354 C351 0.950 . S
C355 C346 1.390 . S
C355 H348 0.950 . S
C355 C352 1.387 . S
C356 C357 1.387 . S
C356 H360 0.950 . S
C356 C365 1.390 . S
C357 C356 1.387 . S
C357 C359 1.387 . S
H358 C365 0.950 . S
C359 C357 1.387 . S
C359 C361 1.390 . S
C359 H363 0.950 . S
H360 C356 0.950 . S
C361 C359 1.390 . S
C361 C362 1.387 . S
C361 H364 0.950 . S
C362 C361 1.387 . S
C362 C365 1.387 . S
H363 C359 0.950 . S
H364 C361 0.950 . S
C365 C356 1.390 . S
C365 H358 0.950 . S
C365 C362 1.387 . S
C366 C367 1.387 . S
C366 H370 0.950 . S
C366 C375 1.390 . S
C367 C366 1.387 . S
C367 C369 1.387 . S
H368 C375 0.950 . S
C369 C367 1.387 . S
C369 C371 1.390 . S
C369 H373 0.950 . S
H370 C366 0.950 . S
C371 C369 1.390 . S
C371 C372 1.387 . S
C371 H374 0.950 . S
C372 C371 1.387 . S
C372 C375 1.387 . S
H373 C369 0.950 . S
H374 C371 0.950 . S
C375 C366 1.390 . S
C375 H368 0.950 . S
C375 C372 1.387 . S
C376 C377 1.387 . S
C376 H380 0.950 . S
C376 C385 1.390 . S
C377 C376 1.387 . S
C377 C379 1.387 1_554 S
H378 C385 0.950 . S
C379 C377 1.387 1_556 S
C379 C381 1.390 . S
C379 H383 0.950 . S
H380 C376 0.950 . S
C381 C379 1.390 . S
C381 C382 1.387 1_556 S
C381 H384 0.950 . S
C382 C381 1.387 1_554 S
C382 C385 1.387 . S
H383 C379 0.950 . S
H384 C381 0.950 . S
C385 C376 1.390 . S
C385 H378 0.950 . S
C385 C382 1.387 . S
C386 C387 1.387 . S
C386 H390 0.950 . S
C386 C395 1.390 . S
C387 C386 1.387 . S
C387 C389 1.387 1_556 S
H388 C395 0.950 . S
C389 C387 1.387 1_554 S
C389 C391 1.390 . S
C389 H393 0.950 . S
H390 C386 0.950 . S
C391 C389 1.390 . S
C391 C392 1.387 1_554 S
C391 H394 0.950 . S
C392 C391 1.387 1_556 S
C392 C395 1.387 . S
H393 C389 0.950 . S
H394 C391 0.950 . S
C395 C386 1.390 . S
C395 H388 0.950 . S
C395 C392 1.387 . S
C396 C397 1.387 . S
C396 H400 0.950 . S
C396 C405 1.390 1_565 S
C397 C396 1.387 . S
C397 C399 1.387 . S
H398 C405 0.950 . S
C399 C397 1.387 . S
C399 C401 1.390 1_565 S
C399 H403 0.950 . S
H400 C396 0.950 . S
C401 C399 1.390 1_545 S
C401 C402 1.387 . S
C401 H404 0.950 . S
C402 C401 1.387 . S
C402 C405 1.387 . S
H403 C399 0.950 . S
H404 C401 0.950 . S
C405 C396 1.390 1_545 S
C405 H398 0.950 . S
C405 C402 1.387 . S
C406 C407 1.387 . S
C406 H410 0.950 . S
C406 C415 1.390 1_546 S
C407 C406 1.387 . S
C407 C409 1.387 . S
H408 C415 0.950 . S
C409 C407 1.387 . S
C409 C411 1.390 1_546 S
C409 H413 0.950 . S
H410 C406 0.950 . S
C411 C409 1.390 1_564 S
C411 C412 1.387 . S
C411 H414 0.950 . S
C412 C411 1.387 . S
C412 C415 1.387 . S
H413 C409 0.950 . S
H414 C411 0.950 . S
C415 C406 1.390 1_564 S
C415 H408 0.950 . S
C415 C412 1.387 . S
C177 C106 1.684 . S
C182 C7 1.697 . S
C187 C16 1.306 . S
C192 C161 1.685 . S
C197 C95 1.457 . S
C202 C27 1.229 . S
C207 C38 1.384 . S
C212 C170 1.264 . S
C217 C51 1.686 . S
C222 C115 1.306 . S
C227 C148 1.228 . S
C232 C62 1.455 . S
C237 C126 1.389 . S
C242 C71 1.269 . S
C247 C139 1.697 . S
C252 C84 1.684 . S
C257 C49 1.386 . S
C262 C40 1.507 . S
C267 C137 1.377 . S
C272 C93 1.222 . S
C277 C73 1.576 . S
C282 C18 1.573 . S
C287 C150 1.572 . S
C292 C104 1.615 . S
C297 C5 1.372 1_655 S
C302 C60 1.220 . S
C307 C172 1.575 . S
C312 C117 1.572 . S
C317 C82 1.617 . S
C322 C29 1.569 . S
C327 C128 1.507 . S
C332 C159 1.373 . S
C337 C8 1.649 . S
C342 C52 1.651 . S
C347 C19 1.565 . S
C352 C63 1.546 . S
C357 C30 1.578 . S
C362 C74 1.576 . S
C367 C41 1.583 . S
C372 C85 1.581 . S
C377 C96 1.547 1_554 S
C382 C118 1.564 1_554 S
C387 C129 1.584 . S
C392 C107 1.581 . S
C397 C162 1.650 . S
C402 C140 1.648 . S
C407 C173 1.577 . S
C412 C151 1.579 . S
