# Generated by pormake.
# Topology uoq, (4)-cn, num edge types: 1
# Building blocks:
#     Node 0, Type 0, BuildingBlock: QUQFOY_clean_sbu_3, # of connection points: 4
#     Node 1, Type 0, BuildingBlock: QUQFOY_clean_sbu_3, # of connection points: 4
#     Node 2, Type 0, BuildingBlock: QUQFOY_clean_sbu_3, # of connection points: 4
#     Node 3, Type 0, BuildingBlock: QUQFOY_clean_sbu_3, # of connection points: 4
#     Node 4, Type 0, BuildingBlock: QUQFOY_clean_sbu_3, # of connection points: 4
#     Node 5, Type 0, BuildingBlock: QUQFOY_clean_sbu_3, # of connection points: 4
#     Node 6, Type 0, BuildingBlock: QUQFOY_clean_sbu_3, # of connection points: 4
#     Node 7, Type 0, BuildingBlock: QUQFOY_clean_sbu_3, # of connection points: 4
#     Node 8, Type 0, BuildingBlock: QUQFOY_clean_sbu_3, # of connection points: 4
#     Node 9, Type 0, BuildingBlock: QUQFOY_clean_sbu_3, # of connection points: 4
#     Node 10, Type 0, BuildingBlock: QUQFOY_clean_sbu_3, # of connection points: 4
#     Node 11, Type 0, BuildingBlock: QUQFOY_clean_sbu_3, # of connection points: 4
#     Edge 12, Type (0, 0), BuildingBlock: XUDNAN_clean_linker_2, # of connection points: 2
#     Edge 13, Type (0, 0), BuildingBlock: XUDNAN_clean_linker_2, # of connection points: 2
#     Edge 14, Type (0, 0), BuildingBlock: XUDNAN_clean_linker_2, # of connection points: 2
#     Edge 15, Type (0, 0), BuildingBlock: XUDNAN_clean_linker_2, # of connection points: 2
#     Edge 16, Type (0, 0), BuildingBlock: XUDNAN_clean_linker_2, # of connection points: 2
#     Edge 17, Type (0, 0), BuildingBlock: XUDNAN_clean_linker_2, # of connection points: 2
#     Edge 18, Type (0, 0), BuildingBlock: XUDNAN_clean_linker_2, # of connection points: 2
#     Edge 19, Type (0, 0), BuildingBlock: XUDNAN_clean_linker_2, # of connection points: 2
#     Edge 20, Type (0, 0), BuildingBlock: XUDNAN_clean_linker_2, # of connection points: 2
#     Edge 21, Type (0, 0), BuildingBlock: XUDNAN_clean_linker_2, # of connection points: 2
#     Edge 22, Type (0, 0), BuildingBlock: XUDNAN_clean_linker_2, # of connection points: 2
#     Edge 23, Type (0, 0), BuildingBlock: XUDNAN_clean_linker_2, # of connection points: 2
#     Edge 24, Type (0, 0), BuildingBlock: XUDNAN_clean_linker_2, # of connection points: 2
#     Edge 25, Type (0, 0), BuildingBlock: XUDNAN_clean_linker_2, # of connection points: 2
#     Edge 26, Type (0, 0), BuildingBlock: XUDNAN_clean_linker_2, # of connection points: 2
#     Edge 27, Type (0, 0), BuildingBlock: XUDNAN_clean_linker_2, # of connection points: 2
#     Edge 28, Type (0, 0), BuildingBlock: XUDNAN_clean_linker_2, # of connection points: 2
#     Edge 29, Type (0, 0), BuildingBlock: XUDNAN_clean_linker_2, # of connection points: 2
#     Edge 30, Type (0, 0), BuildingBlock: XUDNAN_clean_linker_2, # of connection points: 2
#     Edge 31, Type (0, 0), BuildingBlock: XUDNAN_clean_linker_2, # of connection points: 2
#     Edge 32, Type (0, 0), BuildingBlock: XUDNAN_clean_linker_2, # of connection points: 2
#     Edge 33, Type (0, 0), BuildingBlock: XUDNAN_clean_linker_2, # of connection points: 2
#     Edge 34, Type (0, 0), BuildingBlock: XUDNAN_clean_linker_2, # of connection points: 2
#     Edge 35, Type (0, 0), BuildingBlock: XUDNAN_clean_linker_2, # of connection points: 2
# Relax obj value: 0.158
# Max RMSD: 0.152
# Mean RMSD: 0.152
data_MOF--net-uoq--node1-QUQFOY_clean_sbu_3--edge1-XUDNAN_clean_linker_2
_symmetry_space_group_name_H-M    P1
_symmetry_Int_Tables_number       1
_symmetry_cell_setting            triclinic
loop_
_symmetry_equiv_pos_as_xyz
'x, y, z'
_cell_length_a     61.794816
_cell_length_b     61.392791
_cell_length_c     23.608799
_cell_angle_alpha  89.924784
_cell_angle_beta   90.13147
_cell_angle_gamma 120.18604
loop_
_atom_site_label
_atom_site_type_symbol
_atom_site_fract_x
_atom_site_fract_y
_atom_site_fract_z
_atom_type_partial_charge
C0 C 0.31034 0.41186 0.30209 0.0
O1 O 0.30372 0.41397 0.35162 0.0
Cd2 Cd 0.27806 0.42932 0.38247 0.0
O3 O 0.30298 0.41858 0.25818 0.0
Cd4 Cd 0.27588 0.43842 0.2463 0.0
C5 C 0.31657 0.4884 0.3252 0.0
O6 O 0.24616 0.41245 0.31458 0.0
O7 O 0.24652 0.44698 0.30101 0.0
O8 O 0.25268 0.41259 0.1657 0.0
C9 C 0.23672 0.4259 0.32617 0.0
O10 O 0.3059 0.47416 0.36764 0.0
C11 C 0.25232 0.43023 0.13839 0.0
O12 O 0.31078 0.48002 0.27465 0.0
O13 O 0.26544 0.45237 0.15826 0.0
C14 C 0.8941 0.31848 0.62743 0.0
O15 O 0.88582 0.31834 0.67666 0.0
Cd16 Cd 0.84332 0.30334 0.69931 0.0
O17 O 0.8795 0.31124 0.58451 0.0
Cd18 Cd 0.83402 0.29541 0.56964 0.0
C19 C 0.83231 0.34491 0.62844 0.0
O20 O 0.82149 0.26543 0.6443 0.0
O21 O 0.79235 0.2723 0.61506 0.0
O22 O 0.82652 0.26538 0.49238 0.0
C23 C 0.79853 0.25854 0.64261 0.0
O24 O 0.83402 0.3367 0.67676 0.0
C25 C 0.81838 0.27558 0.45818 0.0
O26 O 0.83351 0.33427 0.58337 0.0
O27 O 0.81927 0.29566 0.47471 0.0
C28 C 0.5438 0.89175 0.95948 0.0
O29 O 0.53751 0.88075 0.00707 0.0
Cd30 Cd 0.52241 0.83912 0.03225 0.0
O31 O 0.542 0.87964 0.9138 0.0
Cd32 Cd 0.52338 0.83215 0.90165 0.0
C33 C 0.4685 0.82023 0.9582 0.0
O34 O 0.54844 0.82972 0.97531 0.0
O35 O 0.51198 0.79705 0.96866 0.0
O36 O 0.5471 0.82827 0.82044 0.0
C37 C 0.53335 0.80767 -0.00798 0.0
O38 O 0.47876 0.82203 0.00608 0.0
C39 C 0.52798 0.80849 0.80187 0.0
O40 O 0.48088 0.82462 0.91245 0.0
O41 O 0.50722 0.80231 0.82517 0.0
C42 C 0.65575 0.57916 0.28083 0.0
O43 O 0.65521 0.5727 0.3321 0.0
Cd44 Cd 0.66884 0.54673 0.37105 0.0
O45 O 0.66418 0.57092 0.24189 0.0
Cd46 Cd 0.68204 0.54177 0.24769 0.0
C47 C 0.62783 0.49419 0.29962 0.0
O48 O 0.7083 0.56426 0.3247 0.0
O49 O 0.70085 0.52641 0.32113 0.0
O50 O 0.71229 0.55987 0.16829 0.0
C51 C 0.71348 0.54817 0.34275 0.0
O52 O 0.63526 0.504 0.34834 0.0
C53 C 0.70834 0.53848 0.15157 0.0
O54 O 0.64054 0.50518 0.25571 0.0
O55 O 0.69096 0.5193 0.1762 0.0
C56 C 0.06735 0.66158 0.61819 0.0
O57 O 0.07493 0.66129 0.668 0.0
Cd58 Cd 0.11604 0.67602 0.69809 0.0
O59 O 0.0827 0.66987 0.57657 0.0
Cd60 Cd 0.12946 0.68722 0.57365 0.0
C61 C 0.12545 0.63414 0.62524 0.0
O62 O 0.13673 0.71543 0.64905 0.0
O63 O 0.16637 0.70731 0.63948 0.0
O64 O 0.13995 0.71717 0.49337 0.0
C65 C 0.15897 0.72149 0.65998 0.0
O66 O 0.12482 0.6424 0.67423 0.0
C67 C 0.15655 0.71272 0.47414 0.0
O68 O 0.12515 0.64589 0.5812 0.0
O69 O 0.15809 0.69491 0.49724 0.0
C70 C 0.39413 0.08158 0.9682 0.0
O71 O 0.39469 0.09024 0.01735 0.0
Cd72 Cd 0.42084 0.13297 0.04511 0.0
O73 O 0.40621 0.09623 0.92717 0.0
Cd74 Cd 0.43278 0.14179 0.90566 0.0
C75 C 0.47614 0.1396 0.98756 0.0
O76 O 0.41634 0.15748 0.97521 0.0
O77 O 0.45231 0.18475 0.94198 0.0
O78 O 0.40528 0.13801 0.82887 0.0
C79 C 0.4345 0.17991 0.97558 0.0
O80 O 0.46218 0.13834 0.02868 0.0
C81 C 0.42268 0.15196 0.79483 0.0
O82 O 0.46966 0.13973 0.93618 0.0
O83 O 0.445 0.15908 0.81029 0.0
C84 C 0.56232 0.66818 0.29834 0.0
O85 O 0.55151 0.6728 0.25829 0.0
Cd86 Cd 0.5258 0.6907 0.26566 0.0
O87 O 0.55939 0.67266 0.34991 0.0
Cd88 Cd 0.5341 0.68993 0.39575 0.0
C89 C 0.47775 0.64554 0.34306 0.0
O90 O 0.548 0.72405 0.33234 0.0
O91 O 0.51337 0.71478 0.37277 0.0
O92 O 0.56063 0.71824 0.47203 0.0
C93 C 0.53224 0.73056 0.3446 0.0
O94 O 0.48465 0.65655 0.29532 0.0
C95 C 0.54525 0.70591 0.51119 0.0
O96 O 0.49261 0.65314 0.38523 0.0
O97 O 0.52638 0.68498 0.49733 0.0
C98 C 0.88529 0.58237 0.65361 0.0
O99 O 0.86936 0.57709 0.61435 0.0
Cd100 Cd 0.82549 0.55363 0.6194 0.0
O101 O 0.87824 0.57485 0.70447 0.0
Cd102 Cd 0.83487 0.54815 0.74576 0.0
C103 C 0.8225 0.49895 0.66278 0.0
O104 O 0.81636 0.5697 0.70202 0.0
O105 O 0.79153 0.52989 0.70947 0.0
O106 O 0.83558 0.56757 0.83723 0.0
C107 C 0.79447 0.55123 0.69619 0.0
O108 O 0.81685 0.51022 0.62534 0.0
C109 C 0.82598 0.54695 0.86449 0.0
O110 O 0.83159 0.50938 0.71028 0.0
O111 O 0.82365 0.5279 0.83802 0.0
C112 C 0.3081 0.89742 -0.00821 0.0
O113 O 0.29883 0.88332 0.94877 0.0
Cd114 Cd 0.27103 0.83963 0.94285 0.0
O115 O 0.30355 0.88825 0.04191 0.0
Cd116 Cd 0.27998 0.84288 0.07262 0.0
C117 C 0.31315 0.82442 -0.00781 0.0
O118 O 0.24306 0.83135 0.01942 0.0
O119 O 0.25081 0.80133 0.03007 0.0
O120 O 0.25868 0.84202 0.16124 0.0
C121 C 0.23616 0.80847 0.01114 0.0
O122 O 0.2981 0.8217 0.9523 0.0
C123 C 0.26834 0.83147 0.18965 0.0
O124 O 0.31241 0.83416 0.03927 0.0
O125 O 0.28509 0.82876 0.16515 0.0
C126 C 0.38562 0.30706 0.34385 0.0
O127 O 0.38356 0.29584 0.29733 0.0
Cd128 Cd 0.41303 0.28343 0.27132 0.0
O129 O 0.39981 0.30711 0.38327 0.0
Cd130 Cd 0.42594 0.28812 0.40647 0.0
C131 C 0.46676 0.33597 0.3276 0.0
O132 O 0.41351 0.25534 0.33782 0.0
O133 O 0.45177 0.27275 0.36665 0.0
O134 O 0.39844 0.26018 0.47849 0.0
C135 C 0.4345 0.25637 0.33562 0.0
O136 O 0.45289 0.32237 0.28697 0.0
C137 C 0.41562 0.2652 0.51452 0.0
O138 O 0.46114 0.32907 0.37914 0.0
O139 O 0.43746 0.28323 0.50272 0.0
C140 C 0.07547 0.39151 0.65117 0.0
O141 O 0.09002 0.39591 0.60951 0.0
Cd142 Cd 0.13296 0.42475 0.60813 0.0
O143 O 0.08403 0.40207 0.69921 0.0
Cd144 Cd 0.12741 0.43151 0.73815 0.0
C145 C 0.13027 0.4769 0.65585 0.0
O146 O 0.14759 0.41326 0.68875 0.0
O147 O 0.17179 0.45243 0.70562 0.0
O148 O 0.12068 0.40578 0.82162 0.0
C149 C 0.16955 0.43179 0.68885 0.0
O150 O 0.13449 0.46514 0.61695 0.0
C151 C 0.13416 0.4241 0.85427 0.0
O152 O 0.12565 0.46842 0.70635 0.0
O153 O 0.14161 0.44607 0.83491 0.0
C154 C 0.65118 0.07051 0.02125 0.0
O155 O 0.6544 0.07831 0.97051 0.0
Cd156 Cd 0.67086 0.11963 0.93766 0.0
O157 O 0.65833 0.0858 0.06321 0.0
Cd158 Cd 0.68189 0.13333 0.06744 0.0
C159 C 0.63142 0.13292 0.01136 0.0
O160 O 0.70882 0.1398 -0.01026 0.0
O161 O 0.70285 0.17072 0.00378 0.0
O162 O 0.71116 0.1438 0.14894 0.0
C163 C 0.71467 0.16203 0.97732 0.0
O164 O 0.63873 0.13061 0.96249 0.0
C165 C 0.70567 0.15973 0.16858 0.0
O166 O 0.64302 0.13269 0.05561 0.0
O167 O 0.68775 0.16071 0.14494 0.0
H168 H 0.30413 0.36909 0.24999 0.0
H169 H 0.35525 0.43339 0.35175 0.0
H170 H 0.37972 0.41287 0.3741 0.0
H171 H 0.30152 0.32327 0.33858 0.0
H172 H 0.30123 0.30225 0.28497 0.0
H173 H 0.28934 0.32299 0.26894 0.0
H174 H 0.31997 0.34215 0.18456 0.0
H175 H 0.33137 0.32085 0.19906 0.0
H176 H 0.35296 0.35431 0.19583 0.0
H177 H 0.39395 0.38329 0.399 0.0
H178 H 0.40419 0.34953 0.40745 0.0
H179 H 0.34569 0.30447 0.2859 0.0
C180 C 0.32119 0.37923 0.27454 0.0
C181 C 0.32821 0.40292 0.29848 0.0
C182 C 0.34998 0.41539 0.33242 0.0
C183 C 0.36381 0.4038 0.34576 0.0
C184 C 0.35567 0.37983 0.32439 0.0
C185 C 0.3354 0.36791 0.28808 0.0
C186 C 0.3303 0.34171 0.27314 0.0
C187 C 0.30404 0.32136 0.29258 0.0
C188 C 0.33387 0.33964 0.20936 0.0
C189 C 0.35053 0.34075 0.3077 0.0
C190 C 0.36463 0.36283 0.33752 0.0
C191 C 0.38343 0.36606 0.37499 0.0
C192 C 0.38886 0.34663 0.3801 0.0
C193 C 0.37579 0.32445 0.34719 0.0
C194 C 0.35604 0.32129 0.31137 0.0
H195 H 0.93078 0.33917 0.70829 0.0
H196 H 0.91781 0.31559 0.53205 0.0
H197 H 0.96238 0.32816 0.52248 0.0
H198 H -0.01055 0.3936 0.68881 0.0
H199 H 0.00271 0.39037 0.75419 0.0
H200 H 0.96946 0.37766 0.74839 0.0
H201 H 0.96188 0.33369 0.77797 0.0
H202 H -0.00482 0.34625 0.78354 0.0
H203 H 0.97657 0.31952 0.73849 0.0
H204 H 0.00802 0.34434 0.53105 0.0
H205 H 0.05282 0.36644 0.55392 0.0
H206 H 0.03655 0.38061 0.72452 0.0
C207 C 0.93721 0.33646 0.6677 0.0
C208 C 0.92079 0.32634 0.62087 0.0
C209 C 0.93005 0.32333 0.56845 0.0
C210 C 0.95527 0.33024 0.56273 0.0
C211 C 0.97088 0.34006 0.60984 0.0
C212 C 0.96228 0.34331 0.66122 0.0
C213 C -0.01675 0.35563 0.70429 0.0
C214 C -0.0136 0.38081 0.7251 0.0
C215 C -0.02104 0.3377 0.75401 0.0
C216 C 0.0052 0.35957 0.66846 0.0
C217 C -0.00251 0.34996 0.61452 0.0
C218 C 0.01429 0.35187 0.57316 0.0
C219 C 0.03975 0.36452 0.58672 0.0
C220 C 0.04828 0.37542 0.64107 0.0
C221 C 0.03065 0.37241 0.68278 0.0
H222 H 0.58728 0.9294 0.91175 0.0
H223 H 0.52368 0.91518 0.01557 0.0
H224 H 0.54613 0.95912 0.04882 0.0
H225 H 0.63381 0.96771 0.00576 0.0
H226 H 0.65516 -0.0098 0.9551 0.0
H227 H 0.63351 0.95839 0.93323 0.0
H228 H 0.61529 0.97436 0.85519 0.0
H229 H 0.63766 0.00625 0.87514 0.0
H230 H 0.60473 -0.00404 0.8738 0.0
H231 H 0.57728 0.0021 0.08198 0.0
H232 H 0.61147 0.04633 0.09225 0.0
H233 H 0.65415 0.03385 0.96389 0.0
C234 C 0.57773 0.93594 0.93928 0.0
C235 C 0.55377 0.91907 0.96097 0.0
C236 C 0.54203 0.928 -0.00171 0.0
C237 C 0.55471 0.9528 0.01797 0.0
C238 C 0.579 0.96854 -0.00081 0.0
C239 C 0.5901 0.96089 0.95902 0.0
C240 C 0.61645 0.98185 0.94615 0.0
C241 C 0.63587 0.97405 0.96096 0.0
C242 C 0.61866 -0.0099 0.88388 0.0
C243 C 0.61842 0.00209 0.98608 0.0
C244 C 0.59677 -0.00616 0.01706 0.0
C245 C 0.59428 0.00898 0.05751 0.0
C246 C 0.61391 0.03388 0.06386 0.0
C247 C 0.63536 0.04324 0.02922 0.0
C248 C 0.63797 0.02693 -0.00871 0.0
H249 H 0.64623 0.60637 0.35682 0.0
H250 H 0.64183 0.58938 0.17724 0.0
H251 H 0.62007 0.61355 0.16113 0.0
H252 H 0.58682 0.59739 0.3705 0.0
H253 H 0.59515 0.62242 0.42093 0.0
H254 H 0.61329 0.60698 0.41697 0.0
H255 H 0.65366 0.64992 0.4003 0.0
H256 H 0.6357 0.66561 0.40485 0.0
H257 H 0.65465 0.66995 0.34326 0.0
H258 H 0.5952 0.6358 0.16713 0.0
H259 H 0.57007 0.6551 0.1929 0.0
H260 H 0.59035 0.65644 0.36973 0.0
C261 C 0.6411 0.60799 0.31379 0.0
C262 C 0.64565 0.59593 0.26817 0.0
C263 C 0.63863 0.59859 0.21268 0.0
C264 C 0.62626 0.61224 0.20324 0.0
C265 C 0.62138 0.62319 0.24971 0.0
C266 C 0.62881 0.62138 0.3038 0.0
C267 C 0.61999 0.63329 0.34723 0.0
C268 C 0.60279 0.61385 0.39148 0.0
C269 C 0.64233 0.65605 0.37556 0.0
C270 C 0.60563 0.64146 0.30945 0.0
C271 C 0.60693 0.63576 0.25329 0.0
C272 C 0.59432 0.6406 0.21083 0.0
C273 C 0.58 0.65151 0.2261 0.0
C274 C 0.57821 0.65732 0.28353 0.0
C275 C 0.59139 0.65233 0.32556 0.0
H276 H 0.92665 0.60141 0.72391 0.0
H277 H 0.90461 0.59477 0.54699 0.0
H278 H 0.94875 0.61613 0.51844 0.0
H279 H -0.01696 0.66375 0.70982 0.0
H280 H 0.00067 0.65646 0.75954 0.0
H281 H 0.96719 0.64178 0.76662 0.0
H282 H 0.96324 0.59769 0.76385 0.0
H283 H -0.00334 0.61224 0.75678 0.0
H284 H 0.97635 0.58954 0.70501 0.0
H285 H -0.00466 0.63616 0.50805 0.0
H286 H 0.04111 0.6538 0.51826 0.0
H287 H 0.03235 0.64784 0.70117 0.0
C288 C 0.93112 0.60465 0.67926 0.0
C289 C 0.9121 0.5964 0.63791 0.0
C290 C 0.91879 0.60098 0.57975 0.0
C291 C 0.94385 0.61313 0.56289 0.0
C292 C 0.96213 0.62084 0.60458 0.0
C293 C 0.95613 0.61696 0.66157 0.0
C294 C -0.02062 0.62661 0.69766 0.0
C295 C -0.01723 0.64845 0.73564 0.0
C296 C -0.02113 0.60524 0.73287 0.0
C297 C -0.00081 0.63577 0.65195 0.0
C298 C -0.01104 0.63252 0.59854 0.0
C299 C 0.00366 0.639 0.54973 0.0
C300 C 0.02958 0.64897 0.55585 0.0
C301 C 0.04033 0.65215 0.61035 0.0
C302 C 0.02481 0.64564 0.65876 0.0
H303 H 0.31733 0.93699 0.06262 0.0
H304 H 0.33449 0.91922 0.89661 0.0
H305 H 0.35748 0.96422 0.87234 0.0
H306 H 0.30695 0.98621 0.01597 0.0
H307 H 0.32115 0.00611 0.07684 0.0
H308 H 0.30695 0.97244 0.08347 0.0
H309 H 0.34848 0.97768 0.12297 0.0
H310 H 0.36267 0.01139 0.11727 0.0
H311 H 0.37697 -0.00447 0.08308 0.0
H312 H 0.37665 0.01031 0.86331 0.0
H313 H 0.39438 0.05611 0.87347 0.0
H314 H 0.36513 0.04471 0.04496 0.0
C315 C 0.32631 0.94268 0.02164 0.0
C316 C 0.32408 0.92466 0.98146 0.0
C317 C 0.33581 0.93273 0.92791 0.0
C318 C 0.34891 0.95824 0.91362 0.0
C319 C 0.35014 0.97549 0.95331 0.0
C320 C 0.33943 0.96821 0.0064 0.0
C321 C 0.34328 -0.00922 0.04046 0.0
C322 C 0.31808 -0.01125 0.05503 0.0
C323 C 0.35878 -0.00596 0.09411 0.0
C324 C 0.35784 0.01172 -0.00187 0.0
C325 C 0.36142 0.0024 0.94807 0.0
C326 C 0.37412 0.01795 0.90239 0.0
C327 C 0.384 0.04392 0.90848 0.0
C328 C 0.3812 0.05403 0.95999 0.0
C329 C 0.36762 0.03759 0.00503 0.0
H330 H 0.17159 0.46002 0.92067 0.0
H331 H 0.12314 0.37915 0.90217 0.0
H332 H 0.14893 0.37212 0.9714 0.0
H333 H 0.22772 0.46028 0.9267 0.0
H334 H 0.24248 0.48469 0.97937 0.0
H335 H 0.21873 0.4839 0.93372 0.0
H336 H 0.19262 0.48272 0.02059 0.0
H337 H 0.21667 0.48431 0.0666 0.0
H338 H 0.18479 0.45904 0.07438 0.0
H339 H 0.18271 0.37379 0.03311 0.0
H340 H 0.21816 0.38392 0.09697 0.0
H341 H 0.24452 0.46373 0.07665 0.0
C342 C 0.16587 0.44083 0.93262 0.0
C343 C 0.14527 0.42013 0.90606 0.0
C344 C 0.13873 0.39532 0.92216 0.0
C345 C 0.15339 0.39112 0.96113 0.0
C346 C 0.17439 0.41192 0.98401 0.0
C347 C 0.1803 0.4363 0.97152 0.0
C348 C 0.20432 0.45532 0.00082 0.0
C349 C 0.22449 0.47202 0.95755 0.0
C350 C 0.19929 0.47129 0.04312 0.0
C351 C 0.21118 0.43781 0.03095 0.0
C352 C 0.19375 0.41287 0.02032 0.0
C353 C 0.19631 0.39324 0.04236 0.0
C354 C 0.21667 0.39921 0.07817 0.0
C355 C 0.23414 0.42462 0.0919 0.0
C356 C 0.23157 0.44414 0.06685 0.0
H357 H 0.80482 0.22785 0.42039 0.0
H358 H 0.80169 0.29501 0.37702 0.0
H359 H 0.77338 0.27236 0.29777 0.0
H360 H 0.80201 0.20592 0.27164 0.0
H361 H 0.78276 0.17322 0.29085 0.0
H362 H 0.80484 0.19535 0.3411 0.0
H363 H 0.76899 0.18213 0.41358 0.0
H364 H 0.7467 0.16032 0.36328 0.0
H365 H 0.74193 0.18438 0.39435 0.0
H366 H 0.74136 0.24183 0.23354 0.0
H367 H 0.71182 0.20629 0.17472 0.0
H368 H 0.73662 0.15845 0.25279 0.0
C369 C 0.79874 0.23797 0.39318 0.0
C370 C 0.80546 0.26323 0.40491 0.0
C371 C 0.79681 0.27571 0.3689 0.0
C372 C 0.78066 0.26298 0.32383 0.0
C373 C 0.77353 0.23786 0.31489 0.0
C374 C 0.78265 0.22554 0.3475 0.0
C375 C 0.77119 0.19817 0.32932 0.0
C376 C 0.79141 0.19286 0.30688 0.0
C377 C 0.75632 0.1802 0.37804 0.0
C378 C 0.75389 0.19704 0.28216 0.0
C379 C 0.75547 0.22016 0.27534 0.0
C380 C 0.74026 0.22374 0.23762 0.0
C381 C 0.72333 0.2033 0.20484 0.0
C382 C 0.72194 0.1796 0.20913 0.0
C383 C 0.73743 0.1764 0.24843 0.0
H384 H 0.55893 0.81735 0.70858 0.0
H385 H 0.50173 0.75818 0.81274 0.0
H386 H 0.50535 0.72623 0.75779 0.0
H387 H 0.53591 0.78289 0.57897 0.0
H388 H 0.56636 0.7947 0.54757 0.0
H389 H 0.56147 0.8134 0.59902 0.0
H390 H 0.59782 0.81617 0.65948 0.0
H391 H 0.60249 0.79707 0.60852 0.0
H392 H 0.59686 0.78759 0.6818 0.0
H393 H 0.51328 0.70039 0.69133 0.0
H394 H 0.52035 0.6814 0.60671 0.0
H395 H 0.57101 0.75606 0.54034 0.0
C396 C 0.54735 0.79767 0.71976 0.0
C397 C 0.53006 0.79022 0.76493 0.0
C398 C 0.51493 0.76429 0.77798 0.0
C399 C 0.51705 0.74598 0.74748 0.0
C400 C 0.53419 0.75377 0.70335 0.0
C401 C 0.54875 0.77889 0.68852 0.0
C402 C 0.56358 0.78159 0.63512 0.0
C403 C 0.55639 0.79386 0.58735 0.0
C404 C 0.59187 0.79649 0.64696 0.0
C405 C 0.55477 0.75409 0.62226 0.0
C406 C 0.53823 0.7385 0.66305 0.0
C407 C 0.52635 0.71235 0.65923 0.0
C408 C 0.53055 0.70172 0.6111 0.0
C409 C 0.54637 0.7172 0.5672 0.0
C410 C 0.55929 0.74374 0.57384 0.0
H411 H 0.74342 0.57434 0.0794 0.0
H412 H 0.71127 0.4964 0.13264 0.0
H413 H 0.74163 0.49212 0.07344 0.0
H414 H 0.75325 0.56287 0.9341 0.0
H415 H 0.78197 0.59255 0.92669 0.0
H416 H 0.75831 0.58974 0.97533 0.0
H417 H 0.79111 0.60584 0.05638 0.0
H418 H 0.81473 0.60815 0.00811 0.0
H419 H 0.80789 0.58953 0.07166 0.0
H420 H 0.7753 0.49596 0.00978 0.0
H421 H 0.80575 0.50556 0.93301 0.0
H422 H 0.81568 0.58053 0.91751 0.0
C423 C 0.74274 0.55638 0.07835 0.0
C424 C 0.72501 0.53575 0.11086 0.0
C425 C 0.7246 0.51247 0.10802 0.0
C426 C 0.74194 0.50989 0.07492 0.0
C427 C 0.75949 0.53068 0.04438 0.0
C428 C 0.75974 0.55333 0.04473 0.0
C429 C 0.77957 0.57211 0.0048 0.0
C430 C 0.76756 0.57976 0.95742 0.0
C431 C 0.79951 0.59528 0.03719 0.0
C432 C 0.7903 0.55641 0.98197 0.0
C433 C 0.77867 0.53271 0.00616 0.0
C434 C 0.7846 0.51447 -0.00945 0.0
C435 C 0.80206 0.52016 0.94711 0.0
C436 C 0.81322 0.54382 0.9194 0.0
C437 C 0.80783 0.56244 0.9385 0.0
H438 H 0.15513 0.74622 0.39718 0.0
H439 H 0.20261 0.71844 0.46198 0.0
H440 H 0.23767 0.74981 0.40493 0.0
H441 H 0.17956 0.75558 0.25429 0.0
H442 H 0.17725 0.78331 0.24181 0.0
H443 H 0.1561 0.75954 0.29043 0.0
H444 H 0.16973 0.79351 0.36876 0.0
H445 H 0.19132 0.81728 0.32058 0.0
H446 H 0.20239 0.81226 0.38729 0.0
H447 H 0.26767 0.78366 0.3425 0.0
H448 H 0.28916 0.81362 0.2647 0.0
H449 H 0.22266 0.81908 0.23533 0.0
C450 C 0.17289 0.74674 0.39904 0.0
C451 C 0.17612 0.72989 0.43413 0.0
C452 C 0.19959 0.73099 0.43515 0.0
C453 C 0.21976 0.74896 0.40339 0.0
C454 C 0.21617 0.76555 0.37007 0.0
C455 C 0.19324 0.76431 0.36645 0.0
C456 C 0.19415 0.78317 0.32346 0.0
C457 C 0.17568 0.76959 0.2746 0.0
C458 C 0.1891 0.80271 0.35174 0.0
C459 C 0.22114 0.79509 0.30377 0.0
C460 C 0.23353 0.78486 0.33208 0.0
C461 C 0.25825 0.7919 0.32001 0.0
C462 C 0.27034 0.80902 0.27592 0.0
C463 C 0.25767 0.81878 0.24418 0.0
C464 C 0.23301 0.81232 0.25957 0.0
H465 H 0.45564 0.1941 0.73596 0.0
H466 H 0.37729 0.13599 0.7446 0.0
H467 H 0.36675 0.15983 0.67654 0.0
H468 H 0.4456 0.24535 0.73393 0.0
H469 H 0.47054 0.26423 0.68524 0.0
H470 H 0.47268 0.2416 0.72996 0.0
H471 H 0.47867 0.21983 0.64225 0.0
H472 H 0.47732 0.24287 0.59736 0.0
H473 H 0.45628 0.20975 0.58508 0.0
H474 H 0.3643 0.19142 0.61372 0.0
H475 H 0.3708 0.22598 0.54974 0.0
H476 H 0.45066 0.26399 0.58386 0.0
C477 C 0.43638 0.186 0.72219 0.0
C478 C 0.41729 0.1631 0.74519 0.0
C479 C 0.39222 0.15342 0.72716 0.0
C480 C 0.38603 0.16691 0.68888 0.0
C481 C 0.40512 0.19003 0.6692 0.0
C482 C 0.42984 0.19932 0.68443 0.0
C483 C 0.44666 0.22502 0.65858 0.0
C484 C 0.45963 0.24523 0.70469 0.0
C485 C 0.46586 0.22432 0.61841 0.0
C486 C 0.42753 0.22873 0.62646 0.0
C487 C 0.40367 0.2084 0.63346 0.0
C488 C 0.38291 0.2074 0.60767 0.0
C489 C 0.38678 0.22724 0.57178 0.0
C490 C 0.41122 0.24775 0.56196 0.0
C491 C 0.43172 0.24875 0.59101 0.0
H492 H 0.19707 0.46674 0.60893 0.0
H493 H 0.17928 0.39397 0.67678 0.0
H494 H 0.19592 0.38521 0.59037 0.0
H495 H 0.17644 0.44687 0.4772 0.0
H496 H 0.2001 0.47353 0.43846 0.0
H497 H 0.19278 0.47753 0.51002 0.0
H498 H 0.239 0.49593 0.54076 0.0
H499 H 0.2468 0.49313 0.46864 0.0
H500 H 0.25487 0.47876 0.52522 0.0
H501 H 0.20563 0.38059 0.49201 0.0
H502 H 0.21735 0.38395 0.39159 0.0
H503 H 0.22905 0.45989 0.38603 0.0
C504 C 0.19811 0.44967 0.60685 0.0
C505 C 0.18737 0.43113 0.64945 0.0
C506 C 0.18789 0.40846 0.64464 0.0
C507 C 0.19707 0.40326 0.59564 0.0
C508 C 0.20571 0.42105 0.55236 0.0
C509 C 0.20706 0.44413 0.55791 0.0
C510 C 0.21499 0.45882 0.50289 0.0
C511 C 0.19487 0.46451 0.48089 0.0
C512 C 0.24043 0.48309 0.50979 0.0
C513 C 0.217 0.43999 0.46528 0.0
C514 C 0.21148 0.41836 0.49477 0.0
C515 C 0.21065 0.39767 0.46871 0.0
C516 C 0.21703 0.39967 0.41153 0.0
C517 C 0.22436 0.42227 0.38129 0.0
C518 C 0.22359 0.4424 0.40811 0.0
H519 H 0.76834 0.2608 0.7233 0.0
H520 H 0.79216 0.21203 0.64768 0.0
H521 H 0.77045 0.18053 0.72294 0.0
H522 H 0.78038 0.2514 0.8603 0.0
H523 H 0.75426 0.25183 0.89297 0.0
H524 H 0.76701 0.26853 0.82768 0.0
H525 H 0.72349 0.24387 0.77951 0.0
H526 H 0.71042 0.2275 0.84514 0.0
H527 H 0.70663 0.2099 0.78119 0.0
H528 H 0.75226 0.15782 0.81109 0.0
H529 H 0.73463 0.14233 0.90559 0.0
H530 H 0.72319 0.20613 0.92735 0.0
C531 C 0.76793 0.24296 0.72156 0.0
C532 C 0.78126 0.23829 0.67964 0.0
C533 C 0.78156 0.21546 0.67938 0.0
C534 C 0.76938 0.19759 0.72184 0.0
C535 C 0.75729 0.20312 0.76422 0.0
C536 C 0.75618 0.22507 0.76433 0.0
C537 C 0.74429 0.22748 0.81823 0.0
C538 C 0.76258 0.25121 0.85174 0.0
C539 C 0.71974 0.22716 0.80522 0.0
C540 C 0.73946 0.20375 0.84868 0.0
C541 C 0.74702 0.19 0.8165 0.0
C542 C 0.74581 0.16811 0.83641 0.0
C543 C 0.73596 0.15961 0.89031 0.0
C544 C 0.72743 0.17298 0.92355 0.0
C545 C 0.72947 0.19549 0.90268 0.0
H546 H 0.49988 0.76632 0.05328 0.0
H547 H 0.57498 0.83148 0.05808 0.0
H548 H 0.57907 0.82261 0.15788 0.0
H549 H 0.48195 0.77163 0.19674 0.0
H550 H 0.46539 0.73811 0.20908 0.0
H551 H 0.46739 0.75015 0.13842 0.0
H552 H 0.4869 0.72397 0.10178 0.0
H553 H 0.48409 0.71127 0.17178 0.0
H554 H 0.5141 0.72676 0.137 0.0
H555 H 0.57619 0.80627 0.25396 0.0
H556 H 0.56932 0.77863 0.33602 0.0
H557 H 0.49602 0.72451 0.27123 0.0
C558 C 0.51723 0.77862 0.07527 0.0
C559 C 0.53702 0.79969 0.04818 0.0
C560 C 0.55952 0.81526 0.07814 0.0
C561 C 0.56192 0.81059 0.13502 0.0
C562 C 0.54169 0.79029 0.16116 0.0
C563 C 0.52 0.77421 0.13212 0.0
C564 C 0.50198 0.75248 0.16903 0.0
C565 C 0.47774 0.75315 0.17889 0.0
C566 C 0.49646 0.72713 0.14339 0.0
C567 C 0.51729 0.75854 0.22287 0.0
C568 C 0.53991 0.78079 0.21768 0.0
C569 C 0.55839 0.7891 0.25922 0.0
C570 C 0.55428 0.77347 0.3058 0.0
C571 C 0.53192 0.75002 0.31012 0.0
C572 C 0.51274 0.74294 0.26973 0.0
H573 H 0.7165 0.51366 0.41207 0.0
H574 H 0.74081 0.5932 0.39514 0.0
H575 H 0.75906 0.60107 0.49069 0.0
H576 H 0.70077 0.50801 0.56076 0.0
H577 H 0.71268 0.48723 0.57653 0.0
H578 H 0.70064 0.48716 0.50688 0.0
H579 H 0.7426 0.49634 0.46147 0.0
H580 H 0.75444 0.49571 0.53078 0.0
H581 H 0.77146 0.52293 0.48599 0.0
H582 H 0.7746 0.60082 0.58623 0.0
H583 H 0.79321 0.59364 0.6715 0.0
H584 H 0.75934 0.51447 0.62776 0.0
C585 C 0.72583 0.53273 0.42841 0.0
C586 C 0.72704 0.55277 0.39659 0.0
C587 C 0.73949 0.57752 0.41912 0.0
C588 C 0.74974 0.58218 0.47347 0.0
C589 C 0.74743 0.56191 0.50462 0.0
C590 C 0.73626 0.53777 0.48275 0.0
C591 C 0.73766 0.51973 0.52432 0.0
C592 C 0.71137 0.49933 0.54323 0.0
C593 C 0.75243 0.508 0.49914 0.0
C594 C 0.75179 0.53768 0.57233 0.0
C595 C 0.75676 0.5618 0.56036 0.0
C596 C 0.77073 0.58201 0.59647 0.0
C597 C 0.78108 0.57773 0.64487 0.0
C598 C 0.77755 0.55352 0.65615 0.0
C599 C 0.76186 0.53305 0.62074 0.0
H600 H 0.19002 0.7195 0.74041 0.0
H601 H 0.15593 0.76268 0.68403 0.0
H602 H 0.17043 0.78829 0.77101 0.0
H603 H 0.17328 0.71626 0.88352 0.0
H604 H 0.20181 0.71952 0.91225 0.0
H605 H 0.19113 0.70585 0.84313 0.0
H606 H 0.23335 0.739 0.79859 0.0
H607 H 0.24445 0.75228 0.86783 0.0
H608 H 0.2449 0.77204 0.81077 0.0
H609 H 0.18491 0.80642 0.86575 0.0
H610 H 0.20515 0.82146 0.95861 0.0
H611 H 0.22986 0.76655 0.95495 0.0
C612 C 0.18632 0.73484 0.74581 0.0
C613 C 0.17201 0.73933 0.70589 0.0
C614 C 0.16693 0.75912 0.7145 0.0
C615 C 0.17495 0.77362 0.76372 0.0
C616 C 0.18791 0.76795 0.80372 0.0
C617 C 0.19403 0.74942 0.79509 0.0
C618 C 0.20759 0.74688 0.8459 0.0
C619 C 0.19254 0.72056 0.87276 0.0
C620 C 0.23415 0.75293 0.8298 0.0
C621 C 0.20809 0.76689 0.88416 0.0
C622 C 0.19638 0.77857 0.85908 0.0
C623 C 0.19433 0.79761 0.88583 0.0
C624 C 0.20569 0.80585 0.93872 0.0
C625 C 0.2191 0.79521 0.96379 0.0
C626 C 0.21957 0.7749 0.937 0.0
H627 H 0.40287 0.17042 0.06422 0.0
H628 H 0.47542 0.22612 -0.00248 0.0
H629 H 0.48447 0.25048 0.08627 0.0
H630 H 0.38935 0.21351 0.13745 0.0
H631 H 0.37458 0.19234 0.19613 0.0
H632 H 0.37399 0.17991 0.1268 0.0
H633 H 0.39394 0.15491 0.16845 0.0
H634 H 0.3951 0.16774 0.23772 0.0
H635 H 0.42329 0.17155 0.20593 0.0
H636 H 0.48643 0.2673 0.18372 0.0
H637 H 0.47857 0.2792 0.27803 0.0
H638 H 0.40434 0.21295 0.27915 0.0
C639 C 0.42053 0.18792 0.06788 0.0
C640 C 0.4385 0.19638 0.02425 0.0
C641 C 0.46141 0.21933 0.03062 0.0
C642 C 0.46679 0.23317 0.08092 0.0
C643 C 0.44902 0.22374 0.12397 0.0
C644 C 0.4262 0.20189 0.1176 0.0
C645 C 0.41024 0.19593 0.17001 0.0
C646 C 0.38559 0.19541 0.15679 0.0
C647 C 0.40536 0.17106 0.19711 0.0
C648 C 0.42742 0.21821 0.20644 0.0
C649 C 0.44993 0.23371 0.17964 0.0
C650 C 0.46889 0.25537 0.20515 0.0
C651 C 0.46434 0.26182 0.25883 0.0
C652 C 0.44088 0.24683 0.28548 0.0
C653 C 0.42243 0.22457 0.25947 0.0
H654 H 0.35128 0.52209 0.24935 0.0
H655 H 0.32971 0.5129 0.42667 0.0
H656 H 0.36745 0.55322 0.44897 0.0
H657 H 0.41534 0.54699 0.27218 0.0
H658 H 0.42571 0.5694 0.21482 0.0
H659 H 0.39569 0.54098 0.21084 0.0
H660 H 0.37401 0.5673 0.1953 0.0
H661 H 0.40403 0.59585 0.19868 0.0
H662 H 0.37918 0.5916 0.24542 0.0
H663 H 0.40933 0.59162 0.45462 0.0
H664 H 0.45176 0.6281 0.44167 0.0
H665 H 0.44616 0.61385 0.26061 0.0
C666 C 0.3542 0.52884 0.2926 0.0
C667 C 0.33748 0.51425 0.3362 0.0
C668 C 0.3422 0.52364 0.39245 0.0
C669 C 0.36361 0.54657 0.40565 0.0
C670 C 0.38006 0.56009 0.36212 0.0
C671 C 0.37552 0.55183 0.30661 0.0
C672 C 0.39691 0.56957 0.26846 0.0
C673 C 0.40913 0.55592 0.23991 0.0
C674 C 0.388 0.58181 0.22436 0.0
C675 C 0.41434 0.58871 0.3115 0.0
C676 C 0.40421 0.58282 0.36525 0.0
C677 C 0.41733 0.59671 0.41263 0.0
C678 C 0.44147 0.61729 0.40488 0.0
C679 C 0.45216 0.6239 0.35012 0.0
C680 C 0.4383 0.60947 0.30285 0.0
H681 H 0.8337 0.46951 0.73086 0.0
H682 H 0.80523 0.47229 0.56414 0.0
H683 H 0.80344 0.43251 0.53883 0.0
H684 H 0.87293 0.44644 0.68646 0.0
H685 H 0.86684 0.42611 0.74672 0.0
H686 H 0.86447 0.45404 0.75355 0.0
H687 H 0.81894 0.42715 0.7899 0.0
H688 H 0.82122 0.39912 0.78357 0.0
H689 H 0.79634 0.40097 0.74804 0.0
H690 H 0.80763 0.39446 0.52877 0.0
H691 H 0.81516 0.35877 0.53657 0.0
H692 H 0.83987 0.37981 0.71052 0.0
C693 C 0.8268 0.46162 0.68926 0.0
C694 C 0.81965 0.47409 0.64946 0.0
C695 C 0.81083 0.46314 0.59539 0.0
C696 C 0.80973 0.44053 0.58056 0.0
C697 C 0.81735 0.42901 0.62036 0.0
C698 C 0.82548 0.43899 0.67378 0.0
C699 C 0.83317 0.42308 0.70805 0.0
C700 C 0.861 0.43833 0.72465 0.0
C701 C 0.81641 0.41191 0.76049 0.0
C702 C 0.82842 0.40282 0.66516 0.0
C703 C 0.81934 0.40665 0.61488 0.0
C704 C 0.8145 0.39108 0.5681 0.0
C705 C 0.81896 0.37094 0.57289 0.0
C706 C 0.82803 0.36646 0.6242 0.0
C707 C 0.83272 0.38262 0.67093 0.0
H708 H 0.44587 0.83512 0.03492 0.0
H709 H 0.43314 0.79477 0.87645 0.0
H710 H 0.39018 0.78823 0.87215 0.0
H711 H 0.3832 0.79956 0.09356 0.0
H712 H 0.38387 0.82721 0.12151 0.0
H713 H 0.41253 0.82648 0.11472 0.0
H714 H 0.43164 0.86721 0.05421 0.0
H715 H 0.40309 0.8681 0.06089 0.0
H716 H 0.41534 0.86814 -0.00834 0.0
H717 H 0.34961 0.78804 0.88315 0.0
H718 H 0.31524 0.7961 0.90524 0.0
H719 H 0.35542 0.83798 0.05511 0.0
C720 C 0.43383 0.82444 -6e-05 0.0
C721 C 0.44252 0.81504 0.95644 0.0
C722 C 0.42664 0.80193 0.91031 0.0
C723 C 0.40226 0.79807 0.90768 0.0
C724 C 0.39432 0.80779 0.95111 0.0
C725 C 0.40973 0.82091 -0.00391 0.0
C726 C 0.39763 0.83143 0.03454 0.0
C727 C 0.39409 0.8205 0.09464 0.0
C728 C 0.41283 0.86043 0.03534 0.0
C729 C 0.37282 0.82191 0.0046 0.0
C730 C 0.37124 0.80826 0.95667 0.0
C731 C 0.35057 0.79856 0.92074 0.0
C732 C 0.33117 0.80328 0.93362 0.0
C733 C 0.3326 0.81761 0.98201 0.0
C734 C 0.35359 0.82668 0.01826 0.0
H735 H 0.59663 0.46327 0.3839 0.0
H736 H 0.6044 0.47123 0.20094 0.0
H737 H 0.56375 0.43236 0.18934 0.0
H738 H 0.56819 0.39568 0.38669 0.0
H739 H 0.54731 0.39145 0.44424 0.0
H740 H 0.577 0.42022 0.43869 0.0
H741 H 0.55428 0.44601 0.43992 0.0
H742 H 0.52451 0.41731 0.44522 0.0
H743 H 0.53005 0.43921 0.38856 0.0
H744 H 0.52269 0.39334 0.1966 0.0
H745 H 0.48378 0.3548 0.22208 0.0
H746 H 0.50214 0.37107 0.40065 0.0
C747 C 0.5898 0.45683 0.3414 0.0
C748 C 0.60375 0.47035 0.29332 0.0
C749 C 0.59415 0.46122 0.23845 0.0
C750 C 0.57102 0.43919 0.23135 0.0
C751 C 0.55773 0.42643 0.2795 0.0
C752 C 0.56674 0.43475 0.33347 0.0
C753 C 0.54873 0.41712 0.3779 0.0
C754 C 0.56105 0.40542 0.414 0.0
C755 C 0.5388 0.43073 0.41509 0.0
C756 C 0.52828 0.39757 0.34029 0.0
C757 C 0.53388 0.40349 0.28374 0.0
C758 C 0.51806 0.38844 0.24072 0.0
C759 C 0.49597 0.36656 0.25577 0.0
C760 C 0.48986 0.35979 0.31346 0.0
C761 C 0.50625 0.37567 0.35623 0.0
H762 H 0.12566 0.60318 0.70959 0.0
H763 H 0.12713 0.61176 0.52664 0.0
H764 H 0.12846 0.5726 0.51537 0.0
H765 H 0.16783 0.57886 0.71588 0.0
H766 H 0.15122 0.55698 0.77233 0.0
H767 H 0.15029 0.58576 0.76648 0.0
H768 H 0.1018 0.56009 0.76399 0.0
H769 H 0.10258 0.53123 0.76986 0.0
H770 H 0.0862 0.53563 0.71172 0.0
H771 H 0.13018 0.5332 0.52327 0.0
H772 H 0.13138 0.49506 0.54973 0.0
H773 H 0.12824 0.51125 0.72771 0.0
C774 C 0.12628 0.59685 0.66715 0.0
C775 C 0.12635 0.61062 0.61901 0.0
C776 C 0.12711 0.60162 0.56422 0.0
C777 C 0.12786 0.57937 0.55731 0.0
C778 C 0.12781 0.56631 0.60557 0.0
C779 C 0.127 0.57462 0.65943 0.0
C780 C 0.12711 0.55691 0.7041 0.0
C781 C 0.15051 0.57044 0.74192 0.0
C782 C 0.10298 0.54528 0.73949 0.0
C783 C 0.1281 0.53737 0.6668 0.0
C784 C 0.12857 0.54326 0.61015 0.0
C785 C 0.12979 0.52833 0.56747 0.0
C786 C 0.13053 0.50672 0.58304 0.0
C787 C 0.12992 0.50013 0.64085 0.0
C788 C 0.12866 0.51572 0.68319 0.0
H789 H 0.60108 0.13463 0.92743 0.0
H790 H 0.61089 0.13685 0.11017 0.0
H791 H 0.57314 0.14002 0.12264 0.0
H792 H 0.57825 0.179 0.92243 0.0
H793 H 0.55597 0.16234 0.86675 0.0
H794 H 0.58438 0.16098 0.87134 0.0
H795 H 0.55834 0.1122 0.87426 0.0
H796 H 0.52987 0.11341 0.86972 0.0
H797 H 0.53444 0.09689 0.92746 0.0
H798 H 0.53425 0.1417 0.11663 0.0
H799 H 0.4957 0.14189 0.09243 0.0
H800 H 0.51027 0.13875 0.91338 0.0
C801 C 0.59536 0.13592 0.97002 0.0
C802 C 0.60902 0.13551 0.01777 0.0
C803 C 0.60084 0.13717 0.07284 0.0
C804 C 0.5794 0.139 0.08047 0.0
C805 C 0.56635 0.13924 0.03268 0.0
C806 C 0.57394 0.13782 0.97852 0.0
C807 C 0.55611 0.13808 0.93464 0.0
C808 C 0.56948 0.1615 0.89655 0.0
C809 C 0.54397 0.11369 0.89946 0.0
C810 C 0.53716 0.13949 0.97283 0.0
C811 C 0.5436 0.14027 0.02916 0.0
C812 C 0.529 0.14121 0.07268 0.0
C813 C 0.50709 0.14128 0.05837 0.0
C814 C 0.49989 0.14034 0.00092 0.0
C815 C 0.51528 0.13958 0.95762 0.0
loop_
_geom_bond_atom_site_label_1
_geom_bond_atom_site_label_2
_geom_bond_distance
_geom_bond_site_symmetry_2
_ccdc_geom_bond_type
C0 O1 1.306 . S
C0 O3 1.160 . S
O1 C0 1.306 . S
O1 Cd2 2.228 . S
Cd2 O1 2.228 . S
Cd2 O6 2.273 . S
Cd2 O10 2.277 . S
O3 C0 1.160 . S
O3 Cd4 2.203 . S
Cd4 O3 2.203 . S
Cd4 O6 2.411 . S
Cd4 O7 2.333 . S
Cd4 O8 2.352 . S
Cd4 O12 2.277 . S
Cd4 O13 2.356 . S
C5 O10 1.209 . S
C5 O12 1.226 . S
O6 Cd2 2.273 . S
O6 Cd4 2.411 . S
O6 C9 1.320 . S
O7 Cd4 2.333 . S
O7 C9 1.214 . S
O8 Cd4 2.352 . S
O8 C11 1.258 . S
C9 O6 1.320 . S
C9 O7 1.214 . S
O10 Cd2 2.277 . S
O10 C5 1.209 . S
C11 O8 1.258 . S
C11 O13 1.282 . S
O12 Cd4 2.277 . S
O12 C5 1.226 . S
O13 Cd4 2.356 . S
O13 C11 1.282 . S
C14 O15 1.306 . S
C14 O17 1.160 . S
O15 C14 1.306 . S
O15 Cd16 2.228 . S
Cd16 O15 2.228 . S
Cd16 O20 2.273 . S
Cd16 O24 2.277 . S
O17 C14 1.160 . S
O17 Cd18 2.203 . S
Cd18 O17 2.203 . S
Cd18 O20 2.411 . S
Cd18 O21 2.333 . S
Cd18 O22 2.352 . S
Cd18 O26 2.277 . S
Cd18 O27 2.356 . S
C19 O24 1.209 . S
C19 O26 1.226 . S
O20 Cd16 2.273 . S
O20 Cd18 2.411 . S
O20 C23 1.320 . S
O21 Cd18 2.333 . S
O21 C23 1.214 . S
O22 Cd18 2.352 . S
O22 C25 1.258 . S
C23 O20 1.320 . S
C23 O21 1.214 . S
O24 Cd16 2.277 . S
O24 C19 1.209 . S
C25 O22 1.258 . S
C25 O27 1.282 . S
O26 Cd18 2.277 . S
O26 C19 1.226 . S
O27 Cd18 2.356 . S
O27 C25 1.282 . S
C28 O29 1.306 1_556 S
C28 O31 1.160 . S
O29 C28 1.306 1_554 S
O29 Cd30 2.228 . S
Cd30 O29 2.228 . S
Cd30 O34 2.273 . S
Cd30 O38 2.277 . S
O31 C28 1.160 . S
O31 Cd32 2.203 . S
Cd32 O31 2.203 . S
Cd32 O34 2.411 1_556 S
Cd32 O35 2.333 . S
Cd32 O36 2.352 . S
Cd32 O40 2.277 . S
Cd32 O41 2.356 . S
C33 O38 1.209 1_556 S
C33 O40 1.226 . S
O34 Cd30 2.273 . S
O34 Cd32 2.411 1_554 S
O34 C37 1.320 . S
O35 Cd32 2.333 . S
O35 C37 1.214 1_556 S
O36 Cd32 2.352 . S
O36 C39 1.258 . S
C37 O34 1.320 . S
C37 O35 1.214 1_554 S
O38 Cd30 2.277 . S
O38 C33 1.209 1_554 S
C39 O36 1.258 . S
C39 O41 1.282 . S
O40 Cd32 2.277 . S
O40 C33 1.226 . S
O41 Cd32 2.356 . S
O41 C39 1.282 . S
C42 O43 1.306 . S
C42 O45 1.160 . S
O43 C42 1.306 . S
O43 Cd44 2.228 . S
Cd44 O43 2.228 . S
Cd44 O48 2.273 . S
Cd44 O52 2.277 . S
O45 C42 1.160 . S
O45 Cd46 2.203 . S
Cd46 O45 2.203 . S
Cd46 O48 2.411 . S
Cd46 O49 2.333 . S
Cd46 O50 2.352 . S
Cd46 O54 2.277 . S
Cd46 O55 2.356 . S
C47 O52 1.209 . S
C47 O54 1.226 . S
O48 Cd44 2.273 . S
O48 Cd46 2.411 . S
O48 C51 1.320 . S
O49 Cd46 2.333 . S
O49 C51 1.214 . S
O50 Cd46 2.352 . S
O50 C53 1.258 . S
C51 O48 1.320 . S
C51 O49 1.214 . S
O52 Cd44 2.277 . S
O52 C47 1.209 . S
C53 O50 1.258 . S
C53 O55 1.282 . S
O54 Cd46 2.277 . S
O54 C47 1.226 . S
O55 Cd46 2.356 . S
O55 C53 1.282 . S
C56 O57 1.306 . S
C56 O59 1.160 . S
O57 C56 1.306 . S
O57 Cd58 2.228 . S
Cd58 O57 2.228 . S
Cd58 O62 2.273 . S
Cd58 O66 2.277 . S
O59 C56 1.160 . S
O59 Cd60 2.203 . S
Cd60 O59 2.203 . S
Cd60 O62 2.411 . S
Cd60 O63 2.333 . S
Cd60 O64 2.352 . S
Cd60 O68 2.277 . S
Cd60 O69 2.356 . S
C61 O66 1.209 . S
C61 O68 1.226 . S
O62 Cd58 2.273 . S
O62 Cd60 2.411 . S
O62 C65 1.320 . S
O63 Cd60 2.333 . S
O63 C65 1.214 . S
O64 Cd60 2.352 . S
O64 C67 1.258 . S
C65 O62 1.320 . S
C65 O63 1.214 . S
O66 Cd58 2.277 . S
O66 C61 1.209 . S
C67 O64 1.258 . S
C67 O69 1.282 . S
O68 Cd60 2.277 . S
O68 C61 1.226 . S
O69 Cd60 2.356 . S
O69 C67 1.282 . S
C70 O71 1.306 1_556 S
C70 O73 1.160 . S
O71 C70 1.306 1_554 S
O71 Cd72 2.228 . S
Cd72 O71 2.228 . S
Cd72 O76 2.273 . S
Cd72 O80 2.277 . S
O73 C70 1.160 . S
O73 Cd74 2.203 . S
Cd74 O73 2.203 . S
Cd74 O76 2.411 1_556 S
Cd74 O77 2.333 . S
Cd74 O78 2.352 . S
Cd74 O82 2.277 . S
Cd74 O83 2.356 . S
C75 O80 1.209 1_556 S
C75 O82 1.226 . S
O76 Cd72 2.273 . S
O76 Cd74 2.411 1_554 S
O76 C79 1.320 . S
O77 Cd74 2.333 . S
O77 C79 1.214 1_556 S
O78 Cd74 2.352 . S
O78 C81 1.258 . S
C79 O76 1.320 . S
C79 O77 1.214 1_554 S
O80 Cd72 2.277 . S
O80 C75 1.209 1_554 S
C81 O78 1.258 . S
C81 O83 1.282 . S
O82 Cd74 2.277 . S
O82 C75 1.226 . S
O83 Cd74 2.356 . S
O83 C81 1.282 . S
C84 O85 1.306 . S
C84 O87 1.160 . S
O85 C84 1.306 . S
O85 Cd86 2.228 . S
Cd86 O85 2.228 . S
Cd86 O90 2.273 . S
Cd86 O94 2.277 . S
O87 C84 1.160 . S
O87 Cd88 2.203 . S
Cd88 O87 2.203 . S
Cd88 O90 2.411 . S
Cd88 O91 2.333 . S
Cd88 O92 2.352 . S
Cd88 O96 2.277 . S
Cd88 O97 2.356 . S
C89 O94 1.209 . S
C89 O96 1.226 . S
O90 Cd86 2.273 . S
O90 Cd88 2.411 . S
O90 C93 1.320 . S
O91 Cd88 2.333 . S
O91 C93 1.214 . S
O92 Cd88 2.352 . S
O92 C95 1.258 . S
C93 O90 1.320 . S
C93 O91 1.214 . S
O94 Cd86 2.277 . S
O94 C89 1.209 . S
C95 O92 1.258 . S
C95 O97 1.282 . S
O96 Cd88 2.277 . S
O96 C89 1.226 . S
O97 Cd88 2.356 . S
O97 C95 1.282 . S
C98 O99 1.306 . S
C98 O101 1.160 . S
O99 C98 1.306 . S
O99 Cd100 2.228 . S
Cd100 O99 2.228 . S
Cd100 O104 2.273 . S
Cd100 O108 2.277 . S
O101 C98 1.160 . S
O101 Cd102 2.203 . S
Cd102 O101 2.203 . S
Cd102 O104 2.411 . S
Cd102 O105 2.333 . S
Cd102 O106 2.352 . S
Cd102 O110 2.277 . S
Cd102 O111 2.356 . S
C103 O108 1.209 . S
C103 O110 1.226 . S
O104 Cd100 2.273 . S
O104 Cd102 2.411 . S
O104 C107 1.320 . S
O105 Cd102 2.333 . S
O105 C107 1.214 . S
O106 Cd102 2.352 . S
O106 C109 1.258 . S
C107 O104 1.320 . S
C107 O105 1.214 . S
O108 Cd100 2.277 . S
O108 C103 1.209 . S
C109 O106 1.258 . S
C109 O111 1.282 . S
O110 Cd102 2.277 . S
O110 C103 1.226 . S
O111 Cd102 2.356 . S
O111 C109 1.282 . S
C112 O113 1.306 1_554 S
C112 O115 1.160 . S
O113 C112 1.306 1_556 S
O113 Cd114 2.228 . S
Cd114 O113 2.228 . S
Cd114 O118 2.273 . S
Cd114 O122 2.277 . S
O115 C112 1.160 . S
O115 Cd116 2.203 . S
Cd116 O115 2.203 . S
Cd116 O118 2.411 1_554 S
Cd116 O119 2.333 . S
Cd116 O120 2.352 . S
Cd116 O124 2.277 . S
Cd116 O125 2.356 . S
C117 O122 1.209 1_554 S
C117 O124 1.226 . S
O118 Cd114 2.273 . S
O118 Cd116 2.411 1_556 S
O118 C121 1.320 . S
O119 Cd116 2.333 . S
O119 C121 1.214 1_554 S
O120 Cd116 2.352 . S
O120 C123 1.258 . S
C121 O118 1.320 . S
C121 O119 1.214 1_556 S
O122 Cd114 2.277 . S
O122 C117 1.209 1_556 S
C123 O120 1.258 . S
C123 O125 1.282 . S
O124 Cd116 2.277 . S
O124 C117 1.226 . S
O125 Cd116 2.356 . S
O125 C123 1.282 . S
C126 O127 1.306 . S
C126 O129 1.160 . S
O127 C126 1.306 . S
O127 Cd128 2.228 . S
Cd128 O127 2.228 . S
Cd128 O132 2.273 . S
Cd128 O136 2.277 . S
O129 C126 1.160 . S
O129 Cd130 2.203 . S
Cd130 O129 2.203 . S
Cd130 O132 2.411 . S
Cd130 O133 2.333 . S
Cd130 O134 2.352 . S
Cd130 O138 2.277 . S
Cd130 O139 2.356 . S
C131 O136 1.209 . S
C131 O138 1.226 . S
O132 Cd128 2.273 . S
O132 Cd130 2.411 . S
O132 C135 1.320 . S
O133 Cd130 2.333 . S
O133 C135 1.214 . S
O134 Cd130 2.352 . S
O134 C137 1.258 . S
C135 O132 1.320 . S
C135 O133 1.214 . S
O136 Cd128 2.277 . S
O136 C131 1.209 . S
C137 O134 1.258 . S
C137 O139 1.282 . S
O138 Cd130 2.277 . S
O138 C131 1.226 . S
O139 Cd130 2.356 . S
O139 C137 1.282 . S
C140 O141 1.306 . S
C140 O143 1.160 . S
O141 C140 1.306 . S
O141 Cd142 2.228 . S
Cd142 O141 2.228 . S
Cd142 O146 2.273 . S
Cd142 O150 2.277 . S
O143 C140 1.160 . S
O143 Cd144 2.203 . S
Cd144 O143 2.203 . S
Cd144 O146 2.411 . S
Cd144 O147 2.333 . S
Cd144 O148 2.352 . S
Cd144 O152 2.277 . S
Cd144 O153 2.356 . S
C145 O150 1.209 . S
C145 O152 1.226 . S
O146 Cd142 2.273 . S
O146 Cd144 2.411 . S
O146 C149 1.320 . S
O147 Cd144 2.333 . S
O147 C149 1.214 . S
O148 Cd144 2.352 . S
O148 C151 1.258 . S
C149 O146 1.320 . S
C149 O147 1.214 . S
O150 Cd142 2.277 . S
O150 C145 1.209 . S
C151 O148 1.258 . S
C151 O153 1.282 . S
O152 Cd144 2.277 . S
O152 C145 1.226 . S
O153 Cd144 2.356 . S
O153 C151 1.282 . S
C154 O155 1.306 1_554 S
C154 O157 1.160 . S
O155 C154 1.306 1_556 S
O155 Cd156 2.228 . S
Cd156 O155 2.228 . S
Cd156 O160 2.273 . S
Cd156 O164 2.277 . S
O157 C154 1.160 . S
O157 Cd158 2.203 . S
Cd158 O157 2.203 . S
Cd158 O160 2.411 1_554 S
Cd158 O161 2.333 . S
Cd158 O162 2.352 . S
Cd158 O166 2.277 . S
Cd158 O167 2.356 . S
C159 O164 1.209 1_554 S
C159 O166 1.226 . S
O160 Cd156 2.273 . S
O160 Cd158 2.411 1_556 S
O160 C163 1.320 . S
O161 Cd158 2.333 . S
O161 C163 1.214 1_554 S
O162 Cd158 2.352 . S
O162 C165 1.258 . S
C163 O160 1.320 . S
C163 O161 1.214 1_556 S
O164 Cd156 2.277 . S
O164 C159 1.209 1_556 S
C165 O162 1.258 . S
C165 O167 1.282 . S
O166 Cd158 2.277 . S
O166 C159 1.226 . S
O167 Cd158 2.356 . S
O167 C165 1.282 . S
H168 C180 0.930 . S
H169 C182 0.930 . S
H170 C183 0.930 . S
H171 C187 0.959 . S
H172 C187 0.959 . S
H173 C187 0.961 . S
H174 C188 0.960 . S
H175 C188 0.961 . S
H176 C188 0.959 . S
H177 C191 0.929 . S
H178 C192 0.931 . S
H179 C194 0.930 . S
C180 H168 0.930 . S
C180 C181 1.399 . S
C180 C185 1.399 . S
C181 C180 1.399 . S
C181 C182 1.376 . S
C182 H169 0.930 . S
C182 C181 1.376 . S
C182 C183 1.388 . S
C183 H170 0.930 . S
C183 C182 1.388 . S
C183 C184 1.390 . S
C184 C183 1.390 . S
C184 C185 1.394 . S
C184 C190 1.465 . S
C185 C180 1.399 . S
C185 C184 1.394 . S
C185 C186 1.516 . S
C186 C185 1.516 . S
C186 C187 1.502 . S
C186 C188 1.561 . S
C186 C189 1.526 . S
C187 H171 0.959 . S
C187 H172 0.959 . S
C187 H173 0.961 . S
C187 C186 1.502 . S
C188 H174 0.960 . S
C188 H175 0.961 . S
C188 H176 0.959 . S
C188 C186 1.561 . S
C189 C186 1.526 . S
C189 C190 1.396 . S
C189 C194 1.390 . S
C190 C184 1.465 . S
C190 C189 1.396 . S
C190 C191 1.399 . S
C191 H177 0.929 . S
C191 C190 1.399 . S
C191 C192 1.385 . S
C192 H178 0.931 . S
C192 C191 1.385 . S
C192 C193 1.389 . S
C193 C192 1.389 . S
C193 C194 1.387 . S
C194 H179 0.930 . S
C194 C189 1.390 . S
C194 C193 1.387 . S
H195 C207 0.930 . S
H196 C209 0.930 . S
H197 C210 0.930 . S
H198 C214 0.959 . S
H199 C214 0.959 . S
H200 C214 0.961 . S
H201 C215 0.960 . S
H202 C215 0.961 . S
H203 C215 0.959 . S
H204 C218 0.929 . S
H205 C219 0.931 . S
H206 C221 0.930 . S
C207 H195 0.930 . S
C207 C208 1.399 . S
C207 C212 1.399 . S
C208 C207 1.399 . S
C208 C209 1.376 . S
C209 H196 0.930 . S
C209 C208 1.376 . S
C209 C210 1.388 . S
C210 H197 0.930 . S
C210 C209 1.388 . S
C210 C211 1.390 . S
C211 C210 1.390 . S
C211 C212 1.394 . S
C211 C217 1.465 1_655 S
C212 C207 1.399 . S
C212 C211 1.394 . S
C212 C213 1.516 . S
C213 C212 1.516 . S
C213 C214 1.502 . S
C213 C215 1.561 . S
C213 C216 1.526 1_655 S
C214 H198 0.959 . S
C214 H199 0.959 . S
C214 H200 0.961 . S
C214 C213 1.502 . S
C215 H201 0.960 . S
C215 H202 0.961 . S
C215 H203 0.959 . S
C215 C213 1.561 . S
C216 C213 1.526 1_455 S
C216 C217 1.396 . S
C216 C221 1.390 . S
C217 C211 1.465 1_455 S
C217 C216 1.396 . S
C217 C218 1.399 . S
C218 H204 0.929 . S
C218 C217 1.399 . S
C218 C219 1.385 . S
C219 H205 0.931 . S
C219 C218 1.385 . S
C219 C220 1.389 . S
C220 C219 1.389 . S
C220 C221 1.387 . S
C221 H206 0.930 . S
C221 C216 1.390 . S
C221 C220 1.387 . S
H222 C234 0.930 . S
H223 C236 0.930 . S
H224 C237 0.930 . S
H225 C241 0.959 . S
H226 C241 0.959 . S
H227 C241 0.961 . S
H228 C242 0.960 . S
H229 C242 0.961 . S
H230 C242 0.959 . S
H231 C245 0.929 . S
H232 C246 0.931 . S
H233 C248 0.930 1_556 S
C234 H222 0.930 . S
C234 C235 1.399 . S
C234 C239 1.399 . S
C235 C234 1.399 . S
C235 C236 1.376 1_556 S
C236 H223 0.930 . S
C236 C235 1.376 1_554 S
C236 C237 1.388 . S
C237 H224 0.930 . S
C237 C236 1.388 . S
C237 C238 1.390 . S
C238 C237 1.390 . S
C238 C239 1.394 1_554 S
C238 C244 1.465 1_565 S
C239 C234 1.399 . S
C239 C238 1.394 1_556 S
C239 C240 1.516 1_565 S
C240 C239 1.516 1_545 S
C240 C241 1.502 . S
C240 C242 1.561 . S
C240 C243 1.526 . S
C241 H225 0.959 . S
C241 H226 0.959 . S
C241 H227 0.961 . S
C241 C240 1.502 . S
C242 H228 0.960 . S
C242 H229 0.961 . S
C242 H230 0.959 . S
C242 C240 1.561 . S
C243 C240 1.526 . S
C243 C244 1.396 1_556 S
C243 C248 1.390 1_556 S
C244 C238 1.465 1_545 S
C244 C243 1.396 1_554 S
C244 C245 1.399 . S
C245 H231 0.929 . S
C245 C244 1.399 . S
C245 C246 1.385 . S
C246 H232 0.931 . S
C246 C245 1.385 . S
C246 C247 1.389 . S
C247 C246 1.389 . S
C247 C248 1.387 . S
C248 H233 0.930 1_554 S
C248 C243 1.390 1_554 S
C248 C247 1.387 . S
H249 C261 0.930 . S
H250 C263 0.930 . S
H251 C264 0.930 . S
H252 C268 0.959 . S
H253 C268 0.959 . S
H254 C268 0.961 . S
H255 C269 0.960 . S
H256 C269 0.961 . S
H257 C269 0.959 . S
H258 C272 0.929 . S
H259 C273 0.931 . S
H260 C275 0.930 . S
C261 H249 0.930 . S
C261 C262 1.399 . S
C261 C266 1.399 . S
C262 C261 1.399 . S
C262 C263 1.376 . S
C263 H250 0.930 . S
C263 C262 1.376 . S
C263 C264 1.388 . S
C264 H251 0.930 . S
C264 C263 1.388 . S
C264 C265 1.390 . S
C265 C264 1.390 . S
C265 C266 1.394 . S
C265 C271 1.465 . S
C266 C261 1.399 . S
C266 C265 1.394 . S
C266 C267 1.516 . S
C267 C266 1.516 . S
C267 C268 1.502 . S
C267 C269 1.561 . S
C267 C270 1.526 . S
C268 H252 0.959 . S
C268 H253 0.959 . S
C268 H254 0.961 . S
C268 C267 1.502 . S
C269 H255 0.960 . S
C269 H256 0.961 . S
C269 H257 0.959 . S
C269 C267 1.561 . S
C270 C267 1.526 . S
C270 C271 1.396 . S
C270 C275 1.390 . S
C271 C265 1.465 . S
C271 C270 1.396 . S
C271 C272 1.399 . S
C272 H258 0.929 . S
C272 C271 1.399 . S
C272 C273 1.385 . S
C273 H259 0.931 . S
C273 C272 1.385 . S
C273 C274 1.389 . S
C274 C273 1.389 . S
C274 C275 1.387 . S
C275 H260 0.930 . S
C275 C270 1.390 . S
C275 C274 1.387 . S
H276 C288 0.930 . S
H277 C290 0.930 . S
H278 C291 0.930 . S
H279 C295 0.959 . S
H280 C295 0.959 . S
H281 C295 0.961 . S
H282 C296 0.960 . S
H283 C296 0.961 . S
H284 C296 0.959 . S
H285 C299 0.929 . S
H286 C300 0.931 . S
H287 C302 0.930 . S
C288 H276 0.930 . S
C288 C289 1.399 . S
C288 C293 1.399 . S
C289 C288 1.399 . S
C289 C290 1.376 . S
C290 H277 0.930 . S
C290 C289 1.376 . S
C290 C291 1.388 . S
C291 H278 0.930 . S
C291 C290 1.388 . S
C291 C292 1.390 . S
C292 C291 1.390 . S
C292 C293 1.394 . S
C292 C298 1.465 1_655 S
C293 C288 1.399 . S
C293 C292 1.394 . S
C293 C294 1.516 1_655 S
C294 C293 1.516 1_455 S
C294 C295 1.502 . S
C294 C296 1.561 . S
C294 C297 1.526 . S
C295 H279 0.959 . S
C295 H280 0.959 . S
C295 H281 0.961 . S
C295 C294 1.502 . S
C296 H282 0.960 . S
C296 H283 0.961 . S
C296 H284 0.959 . S
C296 C294 1.561 . S
C297 C294 1.526 . S
C297 C298 1.396 . S
C297 C302 1.390 . S
C298 C292 1.465 1_455 S
C298 C297 1.396 . S
C298 C299 1.399 . S
C299 H285 0.929 . S
C299 C298 1.399 . S
C299 C300 1.385 . S
C300 H286 0.931 . S
C300 C299 1.385 . S
C300 C301 1.389 . S
C301 C300 1.389 . S
C301 C302 1.387 . S
C302 H287 0.930 . S
C302 C297 1.390 . S
C302 C301 1.387 . S
H303 C315 0.930 . S
H304 C317 0.930 . S
H305 C318 0.930 . S
H306 C322 0.959 . S
H307 C322 0.959 . S
H308 C322 0.961 . S
H309 C323 0.960 . S
H310 C323 0.961 . S
H311 C323 0.959 . S
H312 C326 0.929 . S
H313 C327 0.931 . S
H314 C329 0.932 . S
C315 H303 0.930 . S
C315 C316 1.399 . S
C315 C320 1.399 . S
C316 C315 1.399 . S
C316 C317 1.376 1_554 S
C317 H304 0.930 . S
C317 C316 1.376 1_556 S
C317 C318 1.388 . S
C318 H305 0.930 . S
C318 C317 1.388 . S
C318 C319 1.390 . S
C319 C318 1.390 . S
C319 C320 1.394 1_556 S
C319 C325 1.465 1_565 S
C320 C315 1.399 . S
C320 C319 1.394 1_554 S
C320 C321 1.516 1_565 S
C321 C320 1.516 1_545 S
C321 C322 1.502 . S
C321 C323 1.561 . S
C321 C324 1.526 . S
C322 H306 0.959 . S
C322 H307 0.959 . S
C322 H308 0.961 . S
C322 C321 1.502 . S
C323 H309 0.960 . S
C323 H310 0.961 . S
C323 H311 0.959 . S
C323 C321 1.561 . S
C324 C321 1.526 . S
C324 C325 1.396 1_554 S
C324 C329 1.390 . S
C325 C319 1.465 1_545 S
C325 C324 1.396 1_556 S
C325 C326 1.399 . S
C326 H312 0.929 . S
C326 C325 1.399 . S
C326 C327 1.385 . S
C327 H313 0.931 . S
C327 C326 1.385 . S
C327 C328 1.389 . S
C328 C327 1.389 . S
C328 C329 1.384 1_556 S
C329 H314 0.932 . S
C329 C324 1.390 . S
C329 C328 1.384 1_554 S
H330 C342 0.930 . S
H331 C344 0.930 . S
H332 C345 0.930 . S
H333 C349 0.959 . S
H334 C349 0.969 . S
H335 C349 0.961 . S
H336 C350 0.960 . S
H337 C350 0.961 . S
H338 C350 0.959 . S
H339 C353 0.929 . S
H340 C354 0.931 . S
H341 C356 0.930 . S
C342 H330 0.930 . S
C342 C343 1.399 . S
C342 C347 1.399 . S
C343 C342 1.399 . S
C343 C344 1.376 . S
C344 H331 0.930 . S
C344 C343 1.376 . S
C344 C345 1.388 . S
C345 H332 0.930 . S
C345 C344 1.388 . S
C345 C346 1.390 . S
C346 C345 1.390 . S
C346 C347 1.394 . S
C346 C352 1.465 1_556 S
C347 C342 1.399 . S
C347 C346 1.394 . S
C347 C348 1.516 1_556 S
C348 C347 1.516 1_554 S
C348 C349 1.502 1_554 S
C348 C350 1.561 . S
C348 C351 1.526 . S
C349 H333 0.959 . S
C349 H334 0.969 . S
C349 H335 0.961 . S
C349 C348 1.502 1_556 S
C350 H336 0.960 . S
C350 H337 0.961 . S
C350 H338 0.959 . S
C350 C348 1.561 . S
C351 C348 1.526 . S
C351 C352 1.396 . S
C351 C356 1.390 . S
C352 C346 1.465 1_554 S
C352 C351 1.396 . S
C352 C353 1.399 . S
C353 H339 0.929 . S
C353 C352 1.399 . S
C353 C354 1.385 . S
C354 H340 0.931 . S
C354 C353 1.385 . S
C354 C355 1.389 . S
C355 C354 1.389 . S
C355 C356 1.387 . S
C356 H341 0.930 . S
C356 C351 1.390 . S
C356 C355 1.387 . S
H357 C369 0.930 . S
H358 C371 0.930 . S
H359 C372 0.930 . S
H360 C376 0.959 . S
H361 C376 0.959 . S
H362 C376 0.961 . S
H363 C377 0.960 . S
H364 C377 0.961 . S
H365 C377 0.959 . S
H366 C380 0.929 . S
H367 C381 0.931 . S
H368 C383 0.930 . S
C369 H357 0.930 . S
C369 C370 1.399 . S
C369 C374 1.399 . S
C370 C369 1.399 . S
C370 C371 1.376 . S
C371 H358 0.930 . S
C371 C370 1.376 . S
C371 C372 1.388 . S
C372 H359 0.930 . S
C372 C371 1.388 . S
C372 C373 1.390 . S
C373 C372 1.390 . S
C373 C374 1.394 . S
C373 C379 1.465 . S
C374 C369 1.399 . S
C374 C373 1.394 . S
C374 C375 1.516 . S
C375 C374 1.516 . S
C375 C376 1.502 . S
C375 C377 1.561 . S
C375 C378 1.526 . S
C376 H360 0.959 . S
C376 H361 0.959 . S
C376 H362 0.961 . S
C376 C375 1.502 . S
C377 H363 0.960 . S
C377 H364 0.961 . S
C377 H365 0.959 . S
C377 C375 1.561 . S
C378 C375 1.526 . S
C378 C379 1.396 . S
C378 C383 1.390 . S
C379 C373 1.465 . S
C379 C378 1.396 . S
C379 C380 1.399 . S
C380 H366 0.929 . S
C380 C379 1.399 . S
C380 C381 1.385 . S
C381 H367 0.931 . S
C381 C380 1.385 . S
C381 C382 1.389 . S
C382 C381 1.389 . S
C382 C383 1.387 . S
C383 H368 0.930 . S
C383 C378 1.390 . S
C383 C382 1.387 . S
H384 C396 0.930 . S
H385 C398 0.930 . S
H386 C399 0.930 . S
H387 C403 0.959 . S
H388 C403 0.959 . S
H389 C403 0.961 . S
H390 C404 0.960 . S
H391 C404 0.961 . S
H392 C404 0.959 . S
H393 C407 0.929 . S
H394 C408 0.931 . S
H395 C410 0.930 . S
C396 H384 0.930 . S
C396 C397 1.399 . S
C396 C401 1.399 . S
C397 C396 1.399 . S
C397 C398 1.376 . S
C398 H385 0.930 . S
C398 C397 1.376 . S
C398 C399 1.388 . S
C399 H386 0.930 . S
C399 C398 1.388 . S
C399 C400 1.390 . S
C400 C399 1.390 . S
C400 C401 1.394 . S
C400 C406 1.465 . S
C401 C396 1.399 . S
C401 C400 1.394 . S
C401 C402 1.516 . S
C402 C401 1.516 . S
C402 C403 1.502 . S
C402 C404 1.561 . S
C402 C405 1.526 . S
C403 H387 0.959 . S
C403 H388 0.959 . S
C403 H389 0.961 . S
C403 C402 1.502 . S
C404 H390 0.960 . S
C404 H391 0.961 . S
C404 H392 0.959 . S
C404 C402 1.561 . S
C405 C402 1.526 . S
C405 C406 1.396 . S
C405 C410 1.390 . S
C406 C400 1.465 . S
C406 C405 1.396 . S
C406 C407 1.399 . S
C407 H393 0.929 . S
C407 C406 1.399 . S
C407 C408 1.385 . S
C408 H394 0.931 . S
C408 C407 1.385 . S
C408 C409 1.389 . S
C409 C408 1.389 . S
C409 C410 1.387 . S
C410 H395 0.930 . S
C410 C405 1.390 . S
C410 C409 1.387 . S
H411 C423 0.930 . S
H412 C425 0.930 . S
H413 C426 0.930 . S
H414 C430 0.959 . S
H415 C430 0.959 . S
H416 C430 0.961 . S
H417 C431 0.960 1_554 S
H418 C431 0.961 . S
H419 C431 0.959 1_554 S
H420 C434 0.929 1_554 S
H421 C435 0.931 . S
H422 C437 0.930 . S
C423 H411 0.930 . S
C423 C424 1.399 . S
C423 C428 1.399 . S
C424 C423 1.399 . S
C424 C425 1.376 . S
C425 H412 0.930 . S
C425 C424 1.376 . S
C425 C426 1.388 . S
C426 H413 0.930 . S
C426 C425 1.388 . S
C426 C427 1.390 . S
C427 C426 1.390 . S
C427 C428 1.394 . S
C427 C433 1.465 1_554 S
C428 C423 1.399 . S
C428 C427 1.394 . S
C428 C429 1.516 1_554 S
C429 C428 1.516 1_556 S
C429 C430 1.502 . S
C429 C431 1.561 . S
C429 C432 1.526 . S
C430 H414 0.959 . S
C430 H415 0.959 . S
C430 H416 0.961 . S
C430 C429 1.502 . S
C431 H417 0.960 1_556 S
C431 H418 0.961 . S
C431 H419 0.959 1_556 S
C431 C429 1.561 . S
C432 C429 1.526 . S
C432 C433 1.396 . S
C432 C437 1.390 . S
C433 C427 1.465 1_556 S
C433 C432 1.396 . S
C433 C434 1.399 . S
C434 H420 0.929 1_556 S
C434 C433 1.399 . S
C434 C435 1.385 . S
C435 H421 0.931 . S
C435 C434 1.385 . S
C435 C436 1.389 . S
C436 C435 1.389 . S
C436 C437 1.387 . S
C437 H422 0.930 . S
C437 C432 1.390 . S
C437 C436 1.387 . S
H438 C450 0.930 . S
H439 C452 0.930 . S
H440 C453 0.930 . S
H441 C457 0.959 . S
H442 C457 0.959 . S
H443 C457 0.961 . S
H444 C458 0.960 . S
H445 C458 0.961 . S
H446 C458 0.959 . S
H447 C461 0.929 . S
H448 C462 0.931 . S
H449 C464 0.930 . S
C450 H438 0.930 . S
C450 C451 1.399 . S
C450 C455 1.399 . S
C451 C450 1.399 . S
C451 C452 1.376 . S
C452 H439 0.930 . S
C452 C451 1.376 . S
C452 C453 1.388 . S
C453 H440 0.930 . S
C453 C452 1.388 . S
C453 C454 1.390 . S
C454 C453 1.390 . S
C454 C455 1.394 . S
C454 C460 1.465 . S
C455 C450 1.399 . S
C455 C454 1.394 . S
C455 C456 1.516 . S
C456 C455 1.516 . S
C456 C457 1.502 . S
C456 C458 1.561 . S
C456 C459 1.526 . S
C457 H441 0.959 . S
C457 H442 0.959 . S
C457 H443 0.961 . S
C457 C456 1.502 . S
C458 H444 0.960 . S
C458 H445 0.961 . S
C458 H446 0.959 . S
C458 C456 1.561 . S
C459 C456 1.526 . S
C459 C460 1.396 . S
C459 C464 1.390 . S
C460 C454 1.465 . S
C460 C459 1.396 . S
C460 C461 1.399 . S
C461 H447 0.929 . S
C461 C460 1.399 . S
C461 C462 1.385 . S
C462 H448 0.931 . S
C462 C461 1.385 . S
C462 C463 1.389 . S
C463 C462 1.389 . S
C463 C464 1.387 . S
C464 H449 0.930 . S
C464 C459 1.390 . S
C464 C463 1.387 . S
H465 C477 0.930 . S
H466 C479 0.930 . S
H467 C480 0.930 . S
H468 C484 0.959 . S
H469 C484 0.959 . S
H470 C484 0.961 . S
H471 C485 0.960 . S
H472 C485 0.961 . S
H473 C485 0.959 . S
H474 C488 0.929 . S
H475 C489 0.931 . S
H476 C491 0.930 . S
C477 H465 0.930 . S
C477 C478 1.399 . S
C477 C482 1.399 . S
C478 C477 1.399 . S
C478 C479 1.376 . S
C479 H466 0.930 . S
C479 C478 1.376 . S
C479 C480 1.388 . S
C480 H467 0.930 . S
C480 C479 1.388 . S
C480 C481 1.390 . S
C481 C480 1.390 . S
C481 C482 1.394 . S
C481 C487 1.465 . S
C482 C477 1.399 . S
C482 C481 1.394 . S
C482 C483 1.516 . S
C483 C482 1.516 . S
C483 C484 1.502 . S
C483 C485 1.561 . S
C483 C486 1.526 . S
C484 H468 0.959 . S
C484 H469 0.959 . S
C484 H470 0.961 . S
C484 C483 1.502 . S
C485 H471 0.960 . S
C485 H472 0.961 . S
C485 H473 0.959 . S
C485 C483 1.561 . S
C486 C483 1.526 . S
C486 C487 1.396 . S
C486 C491 1.390 . S
C487 C481 1.465 . S
C487 C486 1.396 . S
C487 C488 1.399 . S
C488 H474 0.929 . S
C488 C487 1.399 . S
C488 C489 1.385 . S
C489 H475 0.931 . S
C489 C488 1.385 . S
C489 C490 1.389 . S
C490 C489 1.389 . S
C490 C491 1.387 . S
C491 H476 0.930 . S
C491 C486 1.390 . S
C491 C490 1.387 . S
H492 C504 0.930 . S
H493 C506 0.930 . S
H494 C507 0.930 . S
H495 C511 0.959 . S
H496 C511 0.959 . S
H497 C511 0.961 . S
H498 C512 0.960 . S
H499 C512 0.961 . S
H500 C512 0.959 . S
H501 C515 0.929 . S
H502 C516 0.931 . S
H503 C518 0.930 . S
C504 H492 0.930 . S
C504 C505 1.399 . S
C504 C509 1.399 . S
C505 C504 1.399 . S
C505 C506 1.376 . S
C506 H493 0.930 . S
C506 C505 1.376 . S
C506 C507 1.388 . S
C507 H494 0.930 . S
C507 C506 1.388 . S
C507 C508 1.390 . S
C508 C507 1.390 . S
C508 C509 1.394 . S
C508 C514 1.465 . S
C509 C504 1.399 . S
C509 C508 1.394 . S
C509 C510 1.516 . S
C510 C509 1.516 . S
C510 C511 1.502 . S
C510 C512 1.561 . S
C510 C513 1.526 . S
C511 H495 0.959 . S
C511 H496 0.959 . S
C511 H497 0.961 . S
C511 C510 1.502 . S
C512 H498 0.960 . S
C512 H499 0.961 . S
C512 H500 0.959 . S
C512 C510 1.561 . S
C513 C510 1.526 . S
C513 C514 1.396 . S
C513 C518 1.390 . S
C514 C508 1.465 . S
C514 C513 1.396 . S
C514 C515 1.399 . S
C515 H501 0.929 . S
C515 C514 1.399 . S
C515 C516 1.385 . S
C516 H502 0.931 . S
C516 C515 1.385 . S
C516 C517 1.389 . S
C517 C516 1.389 . S
C517 C518 1.387 . S
C518 H503 0.930 . S
C518 C513 1.390 . S
C518 C517 1.387 . S
H519 C531 0.930 . S
H520 C533 0.930 . S
H521 C534 0.930 . S
H522 C538 0.959 . S
H523 C538 0.959 . S
H524 C538 0.961 . S
H525 C539 0.960 . S
H526 C539 0.961 . S
H527 C539 0.959 . S
H528 C542 0.929 . S
H529 C543 0.931 . S
H530 C545 0.930 . S
C531 H519 0.930 . S
C531 C532 1.399 . S
C531 C536 1.399 . S
C532 C531 1.399 . S
C532 C533 1.376 . S
C533 H520 0.930 . S
C533 C532 1.376 . S
C533 C534 1.388 . S
C534 H521 0.930 . S
C534 C533 1.388 . S
C534 C535 1.390 . S
C535 C534 1.390 . S
C535 C536 1.394 . S
C535 C541 1.465 . S
C536 C531 1.399 . S
C536 C535 1.394 . S
C536 C537 1.516 . S
C537 C536 1.516 . S
C537 C538 1.502 . S
C537 C539 1.561 . S
C537 C540 1.526 . S
C538 H522 0.959 . S
C538 H523 0.959 . S
C538 H524 0.961 . S
C538 C537 1.502 . S
C539 H525 0.960 . S
C539 H526 0.961 . S
C539 H527 0.959 . S
C539 C537 1.561 . S
C540 C537 1.526 . S
C540 C541 1.396 . S
C540 C545 1.390 . S
C541 C535 1.465 . S
C541 C540 1.396 . S
C541 C542 1.399 . S
C542 H528 0.929 . S
C542 C541 1.399 . S
C542 C543 1.385 . S
C543 H529 0.931 . S
C543 C542 1.385 . S
C543 C544 1.389 . S
C544 C543 1.389 . S
C544 C545 1.387 . S
C545 H530 0.930 . S
C545 C540 1.390 . S
C545 C544 1.387 . S
H546 C558 0.930 . S
H547 C560 0.930 . S
H548 C561 0.930 . S
H549 C565 0.959 . S
H550 C565 0.959 . S
H551 C565 0.961 . S
H552 C566 0.960 . S
H553 C566 0.961 . S
H554 C566 0.959 . S
H555 C569 0.929 . S
H556 C570 0.931 . S
H557 C572 0.930 . S
C558 H546 0.930 . S
C558 C559 1.399 . S
C558 C563 1.399 . S
C559 C558 1.399 . S
C559 C560 1.376 . S
C560 H547 0.930 . S
C560 C559 1.376 . S
C560 C561 1.388 . S
C561 H548 0.930 . S
C561 C560 1.388 . S
C561 C562 1.390 . S
C562 C561 1.390 . S
C562 C563 1.394 . S
C562 C568 1.465 . S
C563 C558 1.399 . S
C563 C562 1.394 . S
C563 C564 1.516 . S
C564 C563 1.516 . S
C564 C565 1.502 . S
C564 C566 1.561 . S
C564 C567 1.526 . S
C565 H549 0.959 . S
C565 H550 0.959 . S
C565 H551 0.961 . S
C565 C564 1.502 . S
C566 H552 0.960 . S
C566 H553 0.961 . S
C566 H554 0.959 . S
C566 C564 1.561 . S
C567 C564 1.526 . S
C567 C568 1.396 . S
C567 C572 1.390 . S
C568 C562 1.465 . S
C568 C567 1.396 . S
C568 C569 1.399 . S
C569 H555 0.929 . S
C569 C568 1.399 . S
C569 C570 1.385 . S
C570 H556 0.931 . S
C570 C569 1.385 . S
C570 C571 1.389 . S
C571 C570 1.389 . S
C571 C572 1.387 . S
C572 H557 0.930 . S
C572 C567 1.390 . S
C572 C571 1.387 . S
H573 C585 0.930 . S
H574 C587 0.930 . S
H575 C588 0.930 . S
H576 C592 0.959 . S
H577 C592 0.959 . S
H578 C592 0.961 . S
H579 C593 0.960 . S
H580 C593 0.961 . S
H581 C593 0.959 . S
H582 C596 0.929 . S
H583 C597 0.931 . S
H584 C599 0.930 . S
C585 H573 0.930 . S
C585 C586 1.399 . S
C585 C590 1.399 . S
C586 C585 1.399 . S
C586 C587 1.376 . S
C587 H574 0.930 . S
C587 C586 1.376 . S
C587 C588 1.388 . S
C588 H575 0.930 . S
C588 C587 1.388 . S
C588 C589 1.390 . S
C589 C588 1.390 . S
C589 C590 1.394 . S
C589 C595 1.465 . S
C590 C585 1.399 . S
C590 C589 1.394 . S
C590 C591 1.516 . S
C591 C590 1.516 . S
C591 C592 1.502 . S
C591 C593 1.561 . S
C591 C594 1.526 . S
C592 H576 0.959 . S
C592 H577 0.959 . S
C592 H578 0.961 . S
C592 C591 1.502 . S
C593 H579 0.960 . S
C593 H580 0.961 . S
C593 H581 0.959 . S
C593 C591 1.561 . S
C594 C591 1.526 . S
C594 C595 1.396 . S
C594 C599 1.390 . S
C595 C589 1.465 . S
C595 C594 1.396 . S
C595 C596 1.399 . S
C596 H582 0.929 . S
C596 C595 1.399 . S
C596 C597 1.385 . S
C597 H583 0.931 . S
C597 C596 1.385 . S
C597 C598 1.389 . S
C598 C597 1.389 . S
C598 C599 1.387 . S
C599 H584 0.930 . S
C599 C594 1.390 . S
C599 C598 1.387 . S
H600 C612 0.930 . S
H601 C614 0.930 . S
H602 C615 0.930 . S
H603 C619 0.959 . S
H604 C619 0.959 . S
H605 C619 0.961 . S
H606 C620 0.960 . S
H607 C620 0.961 . S
H608 C620 0.959 . S
H609 C623 0.929 . S
H610 C624 0.931 . S
H611 C626 0.930 . S
C612 H600 0.930 . S
C612 C613 1.399 . S
C612 C617 1.399 . S
C613 C612 1.399 . S
C613 C614 1.376 . S
C614 H601 0.930 . S
C614 C613 1.376 . S
C614 C615 1.388 . S
C615 H602 0.930 . S
C615 C614 1.388 . S
C615 C616 1.390 . S
C616 C615 1.390 . S
C616 C617 1.394 . S
C616 C622 1.465 . S
C617 C612 1.399 . S
C617 C616 1.394 . S
C617 C618 1.516 . S
C618 C617 1.516 . S
C618 C619 1.502 . S
C618 C620 1.561 . S
C618 C621 1.526 . S
C619 H603 0.959 . S
C619 H604 0.959 . S
C619 H605 0.961 . S
C619 C618 1.502 . S
C620 H606 0.960 . S
C620 H607 0.961 . S
C620 H608 0.959 . S
C620 C618 1.561 . S
C621 C618 1.526 . S
C621 C622 1.396 . S
C621 C626 1.390 . S
C622 C616 1.465 . S
C622 C621 1.396 . S
C622 C623 1.399 . S
C623 H609 0.929 . S
C623 C622 1.399 . S
C623 C624 1.385 . S
C624 H610 0.931 . S
C624 C623 1.385 . S
C624 C625 1.389 . S
C625 C624 1.389 . S
C625 C626 1.387 . S
C626 H611 0.930 . S
C626 C621 1.390 . S
C626 C625 1.387 . S
H627 C639 0.930 . S
H628 C641 0.930 1_556 S
H629 C642 0.930 . S
H630 C646 0.959 . S
H631 C646 0.959 . S
H632 C646 0.961 . S
H633 C647 0.960 . S
H634 C647 0.961 . S
H635 C647 0.959 . S
H636 C650 0.929 . S
H637 C651 0.931 . S
H638 C653 0.930 . S
C639 H627 0.930 . S
C639 C640 1.399 . S
C639 C644 1.399 . S
C640 C639 1.399 . S
C640 C641 1.376 . S
C641 H628 0.930 1_554 S
C641 C640 1.376 . S
C641 C642 1.388 . S
C642 H629 0.930 . S
C642 C641 1.388 . S
C642 C643 1.390 . S
C643 C642 1.390 . S
C643 C644 1.394 . S
C643 C649 1.465 . S
C644 C639 1.399 . S
C644 C643 1.394 . S
C644 C645 1.516 . S
C645 C644 1.516 . S
C645 C646 1.502 . S
C645 C647 1.561 . S
C645 C648 1.526 . S
C646 H630 0.959 . S
C646 H631 0.959 . S
C646 H632 0.961 . S
C646 C645 1.502 . S
C647 H633 0.960 . S
C647 H634 0.961 . S
C647 H635 0.959 . S
C647 C645 1.561 . S
C648 C645 1.526 . S
C648 C649 1.396 . S
C648 C653 1.390 . S
C649 C643 1.465 . S
C649 C648 1.396 . S
C649 C650 1.399 . S
C650 H636 0.929 . S
C650 C649 1.399 . S
C650 C651 1.385 . S
C651 H637 0.931 . S
C651 C650 1.385 . S
C651 C652 1.389 . S
C652 C651 1.389 . S
C652 C653 1.387 . S
C653 H638 0.930 . S
C653 C648 1.390 . S
C653 C652 1.387 . S
H654 C666 0.930 . S
H655 C668 0.930 . S
H656 C669 0.930 . S
H657 C673 0.959 . S
H658 C673 0.959 . S
H659 C673 0.961 . S
H660 C674 0.960 . S
H661 C674 0.961 . S
H662 C674 0.959 . S
H663 C677 0.929 . S
H664 C678 0.931 . S
H665 C680 0.930 . S
C666 H654 0.930 . S
C666 C667 1.399 . S
C666 C671 1.399 . S
C667 C666 1.399 . S
C667 C668 1.376 . S
C668 H655 0.930 . S
C668 C667 1.376 . S
C668 C669 1.388 . S
C669 H656 0.930 . S
C669 C668 1.388 . S
C669 C670 1.390 . S
C670 C669 1.390 . S
C670 C671 1.394 . S
C670 C676 1.465 . S
C671 C666 1.399 . S
C671 C670 1.394 . S
C671 C672 1.516 . S
C672 C671 1.516 . S
C672 C673 1.502 . S
C672 C674 1.561 . S
C672 C675 1.526 . S
C673 H657 0.959 . S
C673 H658 0.959 . S
C673 H659 0.961 . S
C673 C672 1.502 . S
C674 H660 0.960 . S
C674 H661 0.961 . S
C674 H662 0.959 . S
C674 C672 1.561 . S
C675 C672 1.526 . S
C675 C676 1.396 . S
C675 C680 1.390 . S
C676 C670 1.465 . S
C676 C675 1.396 . S
C676 C677 1.399 . S
C677 H663 0.929 . S
C677 C676 1.399 . S
C677 C678 1.385 . S
C678 H664 0.931 . S
C678 C677 1.385 . S
C678 C679 1.389 . S
C679 C678 1.389 . S
C679 C680 1.387 . S
C680 H665 0.930 . S
C680 C675 1.390 . S
C680 C679 1.387 . S
H681 C693 0.930 . S
H682 C695 0.930 . S
H683 C696 0.930 . S
H684 C700 0.959 . S
H685 C700 0.959 . S
H686 C700 0.961 . S
H687 C701 0.960 . S
H688 C701 0.961 . S
H689 C701 0.959 . S
H690 C704 0.929 . S
H691 C705 0.931 . S
H692 C707 0.930 . S
C693 H681 0.930 . S
C693 C694 1.399 . S
C693 C698 1.399 . S
C694 C693 1.399 . S
C694 C695 1.376 . S
C695 H682 0.930 . S
C695 C694 1.376 . S
C695 C696 1.388 . S
C696 H683 0.930 . S
C696 C695 1.388 . S
C696 C697 1.390 . S
C697 C696 1.390 . S
C697 C698 1.394 . S
C697 C703 1.465 . S
C698 C693 1.399 . S
C698 C697 1.394 . S
C698 C699 1.516 . S
C699 C698 1.516 . S
C699 C700 1.502 . S
C699 C701 1.561 . S
C699 C702 1.526 . S
C700 H684 0.959 . S
C700 H685 0.959 . S
C700 H686 0.961 . S
C700 C699 1.502 . S
C701 H687 0.960 . S
C701 H688 0.961 . S
C701 H689 0.959 . S
C701 C699 1.561 . S
C702 C699 1.526 . S
C702 C703 1.396 . S
C702 C707 1.390 . S
C703 C697 1.465 . S
C703 C702 1.396 . S
C703 C704 1.399 . S
C704 H690 0.929 . S
C704 C703 1.399 . S
C704 C705 1.385 . S
C705 H691 0.931 . S
C705 C704 1.385 . S
C705 C706 1.389 . S
C706 C705 1.389 . S
C706 C707 1.387 . S
C707 H692 0.930 . S
C707 C702 1.390 . S
C707 C706 1.387 . S
H708 C720 0.930 1_554 S
H709 C722 0.930 . S
H710 C723 0.930 . S
H711 C727 0.959 . S
H712 C727 0.959 . S
H713 C727 0.961 . S
H714 C728 0.960 . S
H715 C728 0.961 . S
H716 C728 0.959 . S
H717 C731 0.929 . S
H718 C732 0.931 . S
H719 C734 0.930 . S
C720 H708 0.930 1_556 S
C720 C721 1.399 . S
C720 C725 1.399 . S
C721 C720 1.399 . S
C721 C722 1.376 . S
C722 H709 0.930 . S
C722 C721 1.376 . S
C722 C723 1.388 . S
C723 H710 0.930 . S
C723 C722 1.388 . S
C723 C724 1.390 . S
C724 C723 1.390 . S
C724 C725 1.394 . S
C724 C730 1.465 . S
C725 C720 1.399 . S
C725 C724 1.394 . S
C725 C726 1.516 1_556 S
C726 C725 1.516 1_554 S
C726 C727 1.502 . S
C726 C728 1.561 1_554 S
C726 C729 1.526 . S
C727 H711 0.959 . S
C727 H712 0.959 . S
C727 H713 0.961 . S
C727 C726 1.502 . S
C728 H714 0.960 . S
C728 H715 0.961 . S
C728 H716 0.959 . S
C728 C726 1.561 1_556 S
C729 C726 1.526 . S
C729 C730 1.396 1_554 S
C729 C734 1.390 . S
C730 C724 1.465 . S
C730 C729 1.396 1_556 S
C730 C731 1.399 . S
C731 H717 0.929 . S
C731 C730 1.399 . S
C731 C732 1.385 . S
C732 H718 0.931 . S
C732 C731 1.385 . S
C732 C733 1.389 1_556 S
C733 C732 1.389 1_554 S
C733 C734 1.387 . S
C734 H719 0.930 . S
C734 C729 1.390 . S
C734 C733 1.387 . S
H735 C747 0.930 . S
H736 C749 0.930 . S
H737 C750 0.930 . S
H738 C754 0.959 . S
H739 C754 0.959 . S
H740 C754 0.961 . S
H741 C755 0.960 . S
H742 C755 0.961 . S
H743 C755 0.959 . S
H744 C758 0.929 . S
H745 C759 0.931 . S
H746 C761 0.930 . S
C747 H735 0.930 . S
C747 C748 1.399 . S
C747 C752 1.399 . S
C748 C747 1.399 . S
C748 C749 1.376 . S
C749 H736 0.930 . S
C749 C748 1.376 . S
C749 C750 1.388 . S
C750 H737 0.930 . S
C750 C749 1.388 . S
C750 C751 1.390 . S
C751 C750 1.390 . S
C751 C752 1.394 . S
C751 C757 1.465 . S
C752 C747 1.399 . S
C752 C751 1.394 . S
C752 C753 1.516 . S
C753 C752 1.516 . S
C753 C754 1.502 . S
C753 C755 1.561 . S
C753 C756 1.526 . S
C754 H738 0.959 . S
C754 H739 0.959 . S
C754 H740 0.961 . S
C754 C753 1.502 . S
C755 H741 0.960 . S
C755 H742 0.961 . S
C755 H743 0.959 . S
C755 C753 1.561 . S
C756 C753 1.526 . S
C756 C757 1.396 . S
C756 C761 1.390 . S
C757 C751 1.465 . S
C757 C756 1.396 . S
C757 C758 1.399 . S
C758 H744 0.929 . S
C758 C757 1.399 . S
C758 C759 1.385 . S
C759 H745 0.931 . S
C759 C758 1.385 . S
C759 C760 1.389 . S
C760 C759 1.389 . S
C760 C761 1.387 . S
C761 H746 0.930 . S
C761 C756 1.390 . S
C761 C760 1.387 . S
H762 C774 0.930 . S
H763 C776 0.930 . S
H764 C777 0.930 . S
H765 C781 0.959 . S
H766 C781 0.959 . S
H767 C781 0.961 . S
H768 C782 0.960 . S
H769 C782 0.961 . S
H770 C782 0.959 . S
H771 C785 0.929 . S
H772 C786 0.931 . S
H773 C788 0.930 . S
C774 H762 0.930 . S
C774 C775 1.399 . S
C774 C779 1.399 . S
C775 C774 1.399 . S
C775 C776 1.376 . S
C776 H763 0.930 . S
C776 C775 1.376 . S
C776 C777 1.388 . S
C777 H764 0.930 . S
C777 C776 1.388 . S
C777 C778 1.390 . S
C778 C777 1.390 . S
C778 C779 1.394 . S
C778 C784 1.465 . S
C779 C774 1.399 . S
C779 C778 1.394 . S
C779 C780 1.516 . S
C780 C779 1.516 . S
C780 C781 1.502 . S
C780 C782 1.561 . S
C780 C783 1.526 . S
C781 H765 0.959 . S
C781 H766 0.959 . S
C781 H767 0.961 . S
C781 C780 1.502 . S
C782 H768 0.960 . S
C782 H769 0.961 . S
C782 H770 0.959 . S
C782 C780 1.561 . S
C783 C780 1.526 . S
C783 C784 1.396 . S
C783 C788 1.390 . S
C784 C778 1.465 . S
C784 C783 1.396 . S
C784 C785 1.399 . S
C785 H771 0.929 . S
C785 C784 1.399 . S
C785 C786 1.385 . S
C786 H772 0.931 . S
C786 C785 1.385 . S
C786 C787 1.389 . S
C787 C786 1.389 . S
C787 C788 1.387 . S
C788 H773 0.930 . S
C788 C783 1.390 . S
C788 C787 1.387 . S
H789 C801 0.930 . S
H790 C803 0.930 . S
H791 C804 0.930 . S
H792 C808 0.959 . S
H793 C808 0.959 . S
H794 C808 0.961 . S
H795 C809 0.960 . S
H796 C809 0.961 . S
H797 C809 0.959 . S
H798 C812 0.929 . S
H799 C813 0.931 . S
H800 C815 0.930 . S
C801 H789 0.930 . S
C801 C802 1.399 1_556 S
C801 C806 1.399 . S
C802 C801 1.399 1_554 S
C802 C803 1.376 . S
C803 H790 0.930 . S
C803 C802 1.376 . S
C803 C804 1.388 . S
C804 H791 0.930 . S
C804 C803 1.388 . S
C804 C805 1.390 . S
C805 C804 1.390 . S
C805 C806 1.394 1_554 S
C805 C811 1.465 . S
C806 C801 1.399 . S
C806 C805 1.394 1_556 S
C806 C807 1.516 . S
C807 C806 1.516 . S
C807 C808 1.502 . S
C807 C809 1.561 . S
C807 C810 1.526 . S
C808 H792 0.959 . S
C808 H793 0.959 . S
C808 H794 0.961 . S
C808 C807 1.502 . S
C809 H795 0.960 . S
C809 H796 0.961 . S
C809 H797 0.959 . S
C809 C807 1.561 . S
C810 C807 1.526 . S
C810 C811 1.396 1_556 S
C810 C815 1.390 . S
C811 C805 1.465 . S
C811 C810 1.396 1_554 S
C811 C812 1.399 . S
C812 H798 0.929 . S
C812 C811 1.399 . S
C812 C813 1.385 . S
C813 H799 0.931 . S
C813 C812 1.385 . S
C813 C814 1.389 1_554 S
C814 C813 1.389 1_556 S
C814 C815 1.387 . S
C815 H800 0.930 . S
C815 C810 1.390 . S
C815 C814 1.387 . S
C181 C0 1.319 . S
C193 C126 1.376 . S
C208 C14 1.399 . S
C220 C140 1.312 . S
C235 C28 1.313 . S
C247 C154 1.384 . S
C262 C42 1.396 . S
C274 C84 1.310 . S
C289 C98 1.312 . S
C301 C56 1.387 . S
C316 C112 1.311 . S
C328 C70 1.389 . S
C343 C151 1.772 . S
C355 C11 1.769 . S
C370 C25 1.731 . S
C382 C165 1.728 . S
C397 C39 1.745 . S
C409 C95 1.755 . S
C424 C53 1.733 . S
C436 C109 1.742 . S
C451 C67 1.737 . S
C463 C123 1.746 . S
C478 C81 1.763 . S
C490 C137 1.754 . S
C505 C149 0.954 . S
C517 C9 0.964 . S
C532 C23 0.952 . S
C544 C163 0.964 . S
C559 C37 0.961 . S
C571 C93 0.959 . S
C586 C51 0.954 . S
C598 C107 0.964 . S
C613 C65 0.951 . S
C625 C121 0.964 . S
C640 C79 0.950 . S
C652 C135 0.963 . S
C667 C5 1.642 . S
C679 C89 1.627 . S
C694 C103 1.639 . S
C706 C19 1.631 . S
C721 C33 1.630 . S
C733 C117 1.639 . S
C748 C47 1.625 . S
C760 C131 1.645 . S
C775 C61 1.628 . S
C787 C145 1.643 . S
C802 C159 1.627 . S
C814 C75 1.644 . S
