# Generated by pormake.
# Topology fnu, (5)-cn, num edge types: 1
# Building blocks:
#     Node 0, Type 0, BuildingBlock: XOMCOT_clean_sbu_1, # of connection points: 5
#     Node 1, Type 0, BuildingBlock: XOMCOT_clean_sbu_1, # of connection points: 5
#     Node 2, Type 0, BuildingBlock: XOMCOT_clean_sbu_1, # of connection points: 5
#     Node 3, Type 0, BuildingBlock: XOMCOT_clean_sbu_1, # of connection points: 5
#     Node 4, Type 0, BuildingBlock: XOMCOT_clean_sbu_1, # of connection points: 5
#     Node 5, Type 0, BuildingBlock: XOMCOT_clean_sbu_1, # of connection points: 5
#     Edge 6, Type (0, 0), BuildingBlock: TEMPAE_clean_linker_10, # of connection points: 2
#     Edge 7, Type (0, 0), BuildingBlock: TEMPAE_clean_linker_10, # of connection points: 2
#     Edge 8, Type (0, 0), BuildingBlock: TEMPAE_clean_linker_10, # of connection points: 2
#     Edge 9, Type (0, 0), BuildingBlock: TEMPAE_clean_linker_10, # of connection points: 2
#     Edge 10, Type (0, 0), BuildingBlock: TEMPAE_clean_linker_10, # of connection points: 2
#     Edge 11, Type (0, 0), BuildingBlock: TEMPAE_clean_linker_10, # of connection points: 2
#     Edge 12, Type (0, 0), BuildingBlock: TEMPAE_clean_linker_10, # of connection points: 2
#     Edge 13, Type (0, 0), BuildingBlock: TEMPAE_clean_linker_10, # of connection points: 2
#     Edge 14, Type (0, 0), BuildingBlock: TEMPAE_clean_linker_10, # of connection points: 2
#     Edge 15, Type (0, 0), BuildingBlock: TEMPAE_clean_linker_10, # of connection points: 2
#     Edge 16, Type (0, 0), BuildingBlock: TEMPAE_clean_linker_10, # of connection points: 2
#     Edge 17, Type (0, 0), BuildingBlock: TEMPAE_clean_linker_10, # of connection points: 2
#     Edge 18, Type (0, 0), BuildingBlock: TEMPAE_clean_linker_10, # of connection points: 2
#     Edge 19, Type (0, 0), BuildingBlock: TEMPAE_clean_linker_10, # of connection points: 2
#     Edge 20, Type (0, 0), BuildingBlock: TEMPAE_clean_linker_10, # of connection points: 2
# Relax obj value: 0.195
# Max RMSD: 0.141
# Mean RMSD: 0.141
data_MOF--net-fnu--node1-XOMCOT_clean_sbu_1--edge1-TEMPAE_clean_linker_10
_symmetry_space_group_name_H-M    P1
_symmetry_Int_Tables_number       1
_symmetry_cell_setting            triclinic
loop_
_symmetry_equiv_pos_as_xyz
'x, y, z'
_cell_length_a     26.22375
_cell_length_b     27.870491
_cell_length_c     34.317725
_cell_angle_alpha  89.979386
_cell_angle_beta   95.449597
_cell_angle_gamma 122.38894
loop_
_atom_site_label
_atom_site_type_symbol
_atom_site_fract_x
_atom_site_fract_y
_atom_site_fract_z
_atom_type_partial_charge
C0 C 0.16152 0.09784 0.30845 0.0
C1 C 0.1632 0.09073 0.34812 0.0
N2 N 0.10605 0.06404 0.35755 0.0
N3 N 0.10318 0.07379 0.29252 0.0
C4 C 0.07081 0.05517 0.32366 0.0
H5 H 0.20123 0.12252 0.29339 0.0
Co6 Co 0.06857 0.07281 0.24164 0.0
C7 C 1.0366 0.14653 0.2605 0.0
O8 O 0.99051 0.09909 0.27156 0.0
N9 N 1.03254 0.07294 0.19298 0.0
C10 C 0.97026 0.05209 0.13842 0.0
C11 C 0.97561 0.03619 0.17591 0.0
C12 C 1.05979 0.11167 0.16645 0.0
N13 N 1.02373 0.0994 0.13267 0.0
O14 O 0.14883 0.10981 0.22058 0.0
H15 H 0.94146 0.99887 0.18917 0.0
H16 H 0.10628 0.14731 0.17111 0.0
O17 O 0.08315 0.14651 0.25281 0.0
C18 C 0.19096 0.09976 0.21928 0.0
O19 O 0.18592 0.05522 0.23608 0.0
N20 N 1.04914 0.99784 0.22869 0.0
C21 C 0.9933 0.88357 0.20067 0.0
C22 C 0.97903 0.89771 0.23563 0.0
C23 C 1.00712 0.95483 0.24892 0.0
C24 C 1.0635 0.98494 0.19454 0.0
C25 C 1.03741 0.92845 0.18066 0.0
H26 H 0.99166 0.96451 0.27399 0.0
H27 H 0.09232 1.01825 0.17625 0.0
H28 H 1.0223 0.03679 0.32174 0.0
H29 H 0.20351 0.10693 0.36882 0.0
H30 H 0.93195 1.02831 0.11618 0.0
H31 H 0.94397 0.86526 0.25167 0.0
H32 H 1.05053 0.92041 0.15364 0.0
C33 C 0.96596 1.01817 0.68771 0.0
C34 C 0.95723 1.01027 0.64748 0.0
N35 N 1.00887 1.01973 0.63527 0.0
N36 N 1.02217 1.03048 0.70107 0.0
C37 C 1.0476 1.03258 0.66807 0.0
H38 H 0.9343 1.01812 0.70572 0.0
Co39 Co 1.06153 0.05469 0.75255 0.0
C40 C 0.09775 0.16258 0.73993 0.0
O41 O 0.13246 0.15559 0.71845 0.0
N42 N 0.10214 0.08155 0.80174 0.0
C43 C 0.17545 0.13957 0.84803 0.0
C44 C 0.16228 0.12044 0.8092 0.0
C45 C 0.07969 0.07694 0.8361 0.0
N46 N 0.12327 0.11176 0.86459 0.0
O47 O 0.9818 1.0077 0.77459 0.0
H48 H 0.19373 0.13611 0.78726 0.0
H49 H 1.0319 0.05146 0.83991 0.0
O50 O 1.05226 0.11824 0.75176 0.0
C51 C 0.93638 0.95648 0.7665 0.0
O52 O 0.93896 0.9249 0.73928 0.0
N53 N 0.07879 0.99692 0.75535 0.0
C54 C 0.14376 0.94541 0.7764 0.0
C55 C 0.16283 0.98632 0.74829 0.0
C56 C 0.13003 1.01177 0.7385 0.0
C57 C 1.0592 0.95654 0.7826 0.0
C58 C 0.09009 0.92922 0.79267 0.0
H59 H 0.14976 0.0481 0.72072 0.0
H60 H 1.02376 0.94907 0.79993 0.0
H61 H 0.09455 0.04617 0.66759 0.0
H62 H 0.91761 1.00203 0.62851 0.0
H63 H 0.2193 0.17217 0.86268 0.0
H64 H 0.20484 1.00106 0.73573 0.0
H65 H 0.07513 0.8994 0.81562 0.0
C66 C 0.86825 0.48783 0.64122 0.0
C67 C 0.87741 0.50134 0.68094 0.0
N68 N 0.84251 0.45325 0.69906 0.0
N69 N 0.82809 0.43132 0.63407 0.0
C70 C 0.81319 0.41166 0.67001 0.0
H71 H 0.88797 0.51779 0.61878 0.0
Co72 Co 0.79218 0.39368 0.58404 0.0
C73 C 0.72628 0.44003 0.57501 0.0
O74 O 0.69481 0.39566 0.59562 0.0
N75 N 0.75456 0.35615 0.53562 0.0
C76 C 0.68344 0.28828 0.49278 0.0
C77 C 0.69541 0.31385 0.52951 0.0
C78 C 0.77759 0.3563 0.50208 0.0
N79 N 0.73527 0.31493 0.47575 0.0
O80 O 0.87311 0.43503 0.56381 0.0
H81 H 0.66351 0.3011 0.55101 0.0
H82 H 0.82475 0.38463 0.49742 0.0
O83 O 0.77941 0.45335 0.56868 0.0
C84 C 0.92542 0.44711 0.57936 0.0
O85 O 0.93024 0.42948 0.61424 0.0
N86 N 0.79599 0.3299 0.5975 0.0
C87 C 0.73727 0.2134 0.57818 0.0
C88 C 0.71361 0.23377 0.60372 0.0
C89 C 0.74361 0.29213 0.61294 0.0
C90 C 0.82371 0.31007 0.57658 0.0
C91 C 0.79499 0.25167 0.56674 0.0
H92 H 0.71851 0.30725 0.62602 0.0
H93 H 0.86264 0.33865 0.56186 0.0
H94 H 0.77887 0.36837 0.67496 0.0
H95 H 0.90633 0.54352 0.69517 0.0
H96 H 0.63992 0.25329 0.47942 0.0
H97 H 0.66891 0.20561 0.61291 0.0
H98 H 0.8144 0.23762 0.54655 0.0
C99 C 0.63617 0.30644 0.00367 0.0
C100 C 0.64665 0.31679 0.9653 0.0
N101 N 0.69998 0.36649 0.96432 0.0
N102 N 0.68223 0.34959 0.02721 0.0
C103 C 0.72104 0.38554 0.00233 0.0
H104 H 0.59758 0.26898 0.01359 0.0
Co105 Co 0.68503 0.35034 0.08188 0.0
C106 C 0.77872 0.4683 0.11262 0.0
O107 O 0.79823 0.4464 0.13946 0.0
N108 N 0.68508 0.34978 0.13658 0.0
C109 C 0.6686 0.36935 0.19513 0.0
C110 C 0.67074 0.38194 0.15664 0.0
C111 C 0.69071 0.31726 0.16378 0.0
N112 N 0.681 0.32859 0.19955 0.0
O113 O 0.60976 0.34866 0.07927 0.0
H114 H 0.66192 0.41266 0.14392 0.0
H115 H 0.69971 0.28466 0.15778 0.0
O116 O 0.73445 0.43549 0.08648 0.0
C117 C 0.56544 0.29785 0.08305 0.0
O118 O 0.57606 0.25681 0.08372 0.0
N119 N 0.7538 0.34421 0.08467 0.0
C120 C 0.84125 0.31764 0.10437 0.0
C121 C 0.85848 0.37247 0.09327 0.0
C122 C 0.81367 0.38444 0.08214 0.0
C123 C 0.73636 0.28923 0.0898 0.0
C124 C 0.77915 0.27508 0.1004 0.0
H125 H 0.82763 0.42652 0.07326 0.0
H126 H 0.68849 0.25675 0.08875 0.0
H127 H 0.76369 0.4247 0.01177 0.0
H128 H 0.61799 0.28896 0.93999 0.0
H129 H 0.65934 0.38915 0.21823 0.0
H130 H 0.90601 0.406 0.0941 0.0
H131 H 0.7634 0.2319 0.1079 0.0
C132 C 0.50177 0.80799 0.97502 0.0
C133 C 0.50848 0.81562 0.0152 0.0
N134 N 0.46848 0.7657 0.0296 0.0
N135 N 0.45819 0.75333 0.96406 0.0
C136 C 0.4388 0.72879 0.998 0.0
H137 H 0.52555 0.84079 0.95494 0.0
Co138 Co 0.42508 0.72344 0.91269 0.0
C139 C 0.38044 0.79162 0.91165 0.0
O140 O 0.34704 0.75423 0.93623 0.0
N141 N 0.39131 0.6941 0.86251 0.0
C142 C 0.32608 0.6485 0.80961 0.0
C143 C 0.33286 0.66986 0.84732 0.0
C144 C 0.41889 0.68687 0.83417 0.0
N145 N 0.38061 0.65953 0.80174 0.0
O146 O 0.50811 0.75999 0.89621 0.0
H147 H 0.29756 0.66733 0.86285 0.0
H148 H 0.46599 0.69974 0.83745 0.0
O149 O 0.42437 0.79011 0.90006 0.0
C150 C 0.55897 0.76868 0.91176 0.0
O151 O 0.56187 0.74938 0.94631 0.0
N152 N 0.41696 0.65346 0.92316 0.0
C153 C 0.35036 0.53785 0.89924 0.0
C154 C 0.3253 0.56084 0.92124 0.0
C155 C 0.35929 0.61865 0.9328 0.0
C156 C 0.44491 0.63065 0.9059 0.0
C157 C 0.41213 0.57251 0.89374 0.0
H158 H 0.336 0.63719 0.94396 0.0
H159 H 0.48921 0.65767 0.8963 0.0
H160 H 0.40252 0.68504 0.99964 0.0
H161 H 0.53831 0.85551 0.03222 0.0
H162 H 0.28488 0.62775 0.78939 0.0
H163 H 0.27785 0.53557 0.92618 0.0
H164 H 0.43301 0.5564 0.87658 0.0
C165 C 0.3505 0.72468 0.36569 0.0
C166 C 0.34065 0.72635 0.3258 0.0
N167 N 0.37855 0.71627 0.30891 0.0
N168 N 0.39387 0.71283 0.37404 0.0
C169 C 0.41027 0.7084 0.33873 0.0
H170 H 0.32913 0.73398 0.38738 0.0
Co171 Co 0.43111 0.717 0.42433 0.0
C172 C 0.48785 0.83221 0.42598 0.0
O173 O 0.51996 0.82474 0.40236 0.0
N174 N 0.46958 0.7233 0.47315 0.0
C175 C 0.53552 0.7258 0.52001 0.0
C176 C 0.52669 0.73508 0.48126 0.0
C177 C 0.44528 0.70901 0.50718 0.0
N178 N 0.48405 0.70951 0.53587 0.0
O179 O 0.34972 0.67629 0.44445 0.0
H180 H 0.5586 0.74677 0.45988 0.0
H181 H 0.39889 0.69525 0.51065 0.0
O182 O 0.44005 0.78849 0.43619 0.0
C183 C 0.29817 0.63308 0.43022 0.0
O184 O 0.29429 0.60747 0.3969 0.0
N185 N 0.42986 0.64926 0.41492 0.0
C186 C 0.48485 0.58859 0.43513 0.0
C187 C 0.50761 0.6297 0.40729 0.0
C188 C 0.47995 0.66014 0.39806 0.0
C189 C 0.40337 0.60478 0.43886 0.0
C190 C 0.43035 0.57417 0.44937 0.0
H191 H 0.50506 0.69862 0.38286 0.0
H192 H 0.36721 0.59794 0.45519 0.0
H193 H 0.44745 0.7034 0.33474 0.0
H194 H 0.30936 0.73593 0.31057 0.0
H195 H 0.57577 0.72956 0.53512 0.0
H196 H 0.5505 0.64305 0.39642 0.0
H197 H 0.4118 0.54303 0.47132 0.0
C198 C 0.29616 0.13285 0.20373 0.0
C199 C 0.24531 0.13757 0.19855 0.0
C200 C 0.34704 0.16625 0.18341 0.0
C201 C 0.34704 0.20484 0.15646 0.0
C202 C 0.29616 0.21034 0.15136 0.0
C203 C 0.24642 0.17732 0.17287 0.0
C204 C 0.40049 0.15936 0.19029 0.0
C205 C 0.29382 0.25044 0.12275 0.0
C206 C 0.50407 0.31366 0.12693 0.0
C207 C 0.50633 0.28433 0.09464 0.0
C208 C 0.45114 0.29004 0.1462 0.0
C209 C 0.39902 0.23647 0.13229 0.0
C210 C 0.39964 0.20957 0.09747 0.0
C211 C 0.45344 0.23338 0.07947 0.0
C212 C 0.45296 0.32001 0.18338 0.0
C213 C 0.34493 0.15327 0.08085 0.0
H214 H 0.29628 0.10279 0.22372 0.0
H215 H 0.20791 0.18193 0.16886 0.0
H216 H 0.40572 0.14189 0.16298 0.0
H217 H 0.44304 0.20136 0.19812 0.0
H218 H 0.39519 0.13043 0.21404 0.0
H219 H 0.24882 0.24586 0.1194 0.0
H220 H 0.32911 0.29501 0.13299 0.0
H221 H 0.30384 0.24273 0.09353 0.0
H222 H 0.54505 0.35257 0.13917 0.0
H223 H 0.45517 0.21039 0.05466 0.0
H224 H 0.45547 0.29662 0.20892 0.0
H225 H 0.41096 0.32048 0.18356 0.0
H226 H 0.4929 0.3645 0.18724 0.0
H227 H 0.33921 0.11905 0.10005 0.0
H228 H 0.3495 0.14225 0.05082 0.0
H229 H 0.30308 0.15417 0.07993 0.0
C230 C 0.97265 0.18807 0.25152 0.0
C231 C 1.02501 0.18949 0.24384 0.0
C232 C 0.95181 0.21755 0.229 0.0
C233 C 0.98406 0.24931 0.19788 0.0
C234 C 1.03951 0.25452 0.1919 0.0
C235 C 1.0595 0.22476 0.21509 0.0
C236 C 0.89285 0.21132 0.23678 0.0
C237 C 0.07556 0.28809 0.15926 0.0
C238 C 0.88057 0.25329 0.1145 0.0
C239 C 0.88623 0.30522 0.12328 0.0
C240 C 0.91496 0.23617 0.13717 0.0
C241 C 0.95606 0.27177 0.16955 0.0
C242 C 0.96509 0.32595 0.17689 0.0
C243 C 0.93004 0.34203 0.15369 0.0
C244 C 0.90454 0.17838 0.12786 0.0
C245 C 1.00909 0.36554 0.21069 0.0
H246 H 0.94594 0.16131 0.27385 0.0
H247 H 0.10009 0.22631 0.20887 0.0
H248 H 0.89851 0.25365 0.23909 0.0
H249 H 0.85753 0.18629 0.2119 0.0
H250 H 0.8762 0.1895 0.26413 0.0
H251 H 0.12265 0.29745 0.16334 0.0
H252 H 1.05297 0.26312 0.13091 0.0
H253 H 0.07756 0.32879 0.15724 0.0
H254 H 0.84751 0.225 0.09067 0.0
H255 H 0.93449 0.38207 0.16089 0.0
H256 H 0.88211 0.14987 0.15161 0.0
H257 H 0.94848 0.18188 0.12637 0.0
H258 H 0.87553 0.15823 0.09965 0.0
H259 H 0.99052 0.34833 0.23872 0.0
H260 H 1.0174 0.40895 0.20909 0.0
H261 H 1.05315 0.36864 0.21132 0.0
C262 C 0.8715 0.5655 0.12224 0.0
C263 C 0.80806 0.53081 0.11484 0.0
C264 C 0.90088 0.62394 0.13237 0.0
C265 C 0.86588 0.64816 0.13645 0.0
C266 C 0.80173 0.61364 0.12753 0.0
C267 C 0.77357 0.55537 0.11639 0.0
C268 C 0.96933 0.65915 0.1405 0.0
C269 C 0.76257 0.63737 0.13217 0.0
C270 C 0.93979 0.77759 0.20896 0.0
C271 C 0.96009 0.82302 0.18412 0.0
C272 C 0.90762 0.72068 0.19381 0.0
C273 C 0.89635 0.70837 0.15269 0.0
C274 C 0.91672 0.75377 0.12738 0.0
C275 C 0.94755 0.81024 0.14331 0.0
C276 C 0.8862 0.67362 0.22194 0.0
C277 C 0.90666 0.74273 0.0834 0.0
H278 H 0.89816 0.5464 0.12124 0.0
H279 H 0.72443 0.52832 0.11144 0.0
H280 H 0.98837 0.69872 0.12444 0.0
H281 H 0.98276 0.67192 0.17224 0.0
H282 H 0.99014 0.63552 0.13192 0.0
H283 H 0.71423 0.6066 0.12093 0.0
H284 H 0.76509 0.64832 0.16368 0.0
H285 H 0.77945 0.67712 0.11655 0.0
H286 H 0.94965 0.78638 0.24043 0.0
H287 H 0.96133 0.84435 0.12355 0.0
H288 H 0.90989 0.6509 0.21899 0.0
H289 H 0.8368 0.64203 0.2148 0.0
H290 H 0.89476 0.68987 0.25296 0.0
H291 H 0.92888 0.72046 0.07482 0.0
H292 H 0.925 0.78258 0.06765 0.0
H293 H 0.85742 0.71442 0.07357 0.0
C294 C 0.17229 0.26778 0.74599 0.0
C295 C 0.124 0.21925 0.76063 0.0
C296 C 0.2066 0.31976 0.76847 0.0
C297 C 0.19271 0.32352 0.8068 0.0
C298 C 0.14235 0.27539 0.82117 0.0
C299 C 0.10841 0.22393 0.79786 0.0
C300 C 0.25929 0.3701 0.75171 0.0
C301 C 0.12523 0.27785 0.86156 0.0
C302 C 0.32298 0.43945 0.87762 0.0
C303 C 0.30958 0.48185 0.87695 0.0
C304 C 0.2844 0.3871 0.85578 0.0
C305 C 0.23201 0.37747 0.83202 0.0
C306 C 0.2186 0.42037 0.83119 0.0
C307 C 0.25728 0.47175 0.85374 0.0
C308 C 0.29978 0.34208 0.85796 0.0
C309 C 0.16407 0.41255 0.80583 0.0
H310 H 0.18475 0.26461 0.71731 0.0
H311 H 0.07163 0.18663 0.80968 0.0
H312 H 0.2554 0.40774 0.75352 0.0
H313 H 0.30252 0.38148 0.76917 0.0
H314 H 0.26189 0.36129 0.72063 0.0
H315 H 0.08885 0.23546 0.86998 0.0
H316 H 0.1655 0.2949 0.88375 0.0
H317 H 0.10905 0.3073 0.86246 0.0
H318 H 0.3633 0.44709 0.89548 0.0
H319 H 0.24734 0.50484 0.8525 0.0
H320 H 0.30781 0.33282 0.82851 0.0
H321 H 0.26097 0.3019 0.86726 0.0
H322 H 0.3408 0.35524 0.87879 0.0
H323 H 0.1683 0.40694 0.77454 0.0
H324 H 0.15897 0.44935 0.80934 0.0
H325 H 0.12202 0.37351 0.81315 0.0
C326 C 0.66907 0.80507 0.90672 0.0
C327 C 0.61441 0.79882 0.89049 0.0
C328 C 0.72166 0.83259 0.88709 0.0
C329 C 0.72027 0.8551 0.85023 0.0
C330 C 0.66542 0.84947 0.83381 0.0
C331 C 0.61328 0.82134 0.85399 0.0
C332 C 0.77856 0.83664 0.90555 0.0
C333 C 0.66171 0.87295 0.79475 0.0
C334 C 0.87334 0.96486 0.81446 0.0
C335 C 0.88126 0.9315 0.78802 0.0
C336 C 0.82093 0.94096 0.83441 0.0
C337 C 0.77539 0.88207 0.82822 0.0
C338 C 0.7833 0.84831 0.80162 0.0
C339 C 0.83567 0.87334 0.78184 0.0
C340 C 0.81431 0.97875 0.86219 0.0
C341 C 0.73663 0.78534 0.79432 0.0
H342 H 0.67079 0.78792 0.93481 0.0
H343 H 0.57151 0.81693 0.84107 0.0
H344 H 0.79152 0.81412 0.88601 0.0
H345 H 0.81686 0.8818 0.90922 0.0
H346 H 0.77272 0.81795 0.93463 0.0
H347 H 0.61626 0.86618 0.78625 0.0
H348 H 0.69652 0.91925 0.79584 0.0
H349 H 0.67161 0.85235 0.77154 0.0
H350 H 0.90798 1.0098 0.81946 0.0
H351 H 0.84103 0.84689 0.76163 0.0
H352 H 0.81213 0.96373 0.89228 0.0
H353 H 0.77115 0.97638 0.85342 0.0
H354 H 0.85259 1.02392 0.86291 0.0
H355 H 0.73109 0.76379 0.82223 0.0
H356 H 0.74936 0.76491 0.77275 0.0
H357 H 0.69181 0.77822 0.78327 0.0
C358 C 0.15987 0.86757 0.7973 0.0
C359 C 0.18362 0.92551 0.79254 0.0
C360 C 0.19653 0.849 0.81495 0.0
C361 C 0.25808 0.88946 0.82904 0.0
C362 C 0.2824 0.94798 0.8239 0.0
C363 C 0.24505 0.96522 0.80545 0.0
C364 C 0.16903 0.78612 0.8192 0.0
C365 C 0.34726 0.99261 0.83918 0.0
C366 C 0.32413 0.84069 0.91168 0.0
C367 C 0.35826 0.82542 0.89194 0.0
C368 C 0.29356 0.86388 0.89188 0.0
C369 C 0.29581 0.87066 0.85103 0.0
C370 C 0.33187 0.85702 0.83117 0.0
C371 C 0.36322 0.8351 0.85197 0.0
C372 C 0.25697 0.87914 0.91446 0.0
C373 C 0.33477 0.86272 0.78758 0.0
H374 H 0.11248 0.83678 0.78729 0.0
H375 H 0.26338 1.01017 0.80242 0.0
H376 H 0.1974 0.77261 0.80696 0.0
H377 H 0.16792 0.77718 0.85072 0.0
H378 H 0.12202 0.75994 0.80417 0.0
H379 H 0.36009 0.03607 0.83129 0.0
H380 H 0.35349 0.99226 0.8716 0.0
H381 H 0.37892 0.9829 0.82741 0.0
H382 H 0.3201 0.83314 0.94256 0.0
H383 H 0.38867 0.82243 0.83641 0.0
H384 H 0.20789 0.85012 0.90441 0.0
H385 H 0.26921 0.9231 0.90886 0.0
H386 H 0.26419 0.87606 0.94656 0.0
H387 H 0.28916 0.83259 0.77175 0.0
H388 H 0.3677 0.85371 0.77693 0.0
H389 H 0.34775 0.90622 0.77991 0.0
C390 C 1.03206 0.47626 0.57004 0.0
C391 C 0.98007 0.4773 0.55748 0.0
C392 C 0.08395 0.50342 0.54978 0.0
C393 C 0.08487 0.5336 0.51633 0.0
C394 C 1.03295 0.53573 0.50385 0.0
C395 C 0.98105 0.50712 0.52427 0.0
C396 C 0.13743 0.49876 0.56378 0.0
C397 C 1.03215 0.56814 0.46882 0.0
C398 C 0.24151 0.63969 0.48362 0.0
C399 C 0.24364 0.6088 0.45217 0.0
C400 C 0.18973 0.61648 0.50412 0.0
C401 C 0.13912 0.56051 0.49355 0.0
C402 C 0.14127 0.52918 0.46194 0.0
C403 C 0.19297 0.55377 0.44153 0.0
C404 C 0.1892 0.65184 0.53717 0.0
C405 C 0.08929 0.46902 0.45007 0.0
H406 H 1.03194 0.45319 0.5955 0.0
H407 H 0.94138 0.50852 0.51439 0.0
H408 H 0.14628 0.47774 0.54024 0.0
H409 H 0.17895 0.54178 0.57049 0.0
H410 H 0.12983 0.47407 0.59039 0.0
H411 H 0.98991 0.56859 0.46418 0.0
H412 H 0.07178 0.61271 0.47265 0.0
H413 H 1.0361 0.54868 0.442 0.0
H414 H 0.28017 0.68226 0.49204 0.0
H415 H 0.194 0.52922 0.41748 0.0
H416 H 0.18629 0.63113 0.5652 0.0
H417 H 0.14852 0.65471 0.53203 0.0
H418 H 0.23048 0.6956 0.54043 0.0
H419 H 0.08164 0.44167 0.47516 0.0
H420 H 0.09782 0.45032 0.42482 0.0
H421 H 1.04679 0.46811 0.44207 0.0
C422 C 0.72762 0.51979 0.53883 0.0
C423 C 0.69528 0.46611 0.55436 0.0
C424 C 0.69682 0.54294 0.51875 0.0
C425 C 0.6323 0.51099 0.5132 0.0
C426 C 0.59972 0.45649 0.52835 0.0
C427 C 0.63146 0.43514 0.54901 0.0
C428 C 0.7332 0.60178 0.50388 0.0
C429 C 0.53108 0.42036 0.52255 0.0
C430 C 0.53967 0.57882 0.49507 0.0
C431 C 0.52306 0.56882 0.45442 0.0
C432 C 0.57741 0.56257 0.51424 0.0
C433 C 0.59812 0.53439 0.4924 0.0
C434 C 0.5819 0.52465 0.45121 0.0
C435 C 0.54524 0.54273 0.43262 0.0
C436 C 0.59429 0.57483 0.558 0.0
C437 C 0.60179 0.49366 0.42695 0.0
H438 H 0.77687 0.54392 0.5428 0.0
H439 H 0.60587 0.39326 0.56037 0.0
H440 H 0.72249 0.59999 0.47166 0.0
H441 H 0.72056 0.62977 0.51715 0.0
H442 H 0.78294 0.62135 0.51077 0.0
H443 H 0.51262 0.37784 0.53464 0.0
H444 H 0.5123 0.44223 0.53706 0.0
H445 H 0.51462 0.41431 0.49085 0.0
H446 H 0.52365 0.60016 0.51186 0.0
H447 H 0.53281 0.53542 0.40117 0.0
H448 H 0.64407 0.59552 0.56536 0.0
H449 H 0.57184 0.53433 0.57299 0.0
H450 H 0.58048 0.60276 0.56989 0.0
H451 H 0.65194 0.51511 0.43145 0.0
H452 H 0.5874 0.49135 0.39514 0.0
H453 H 0.58215 0.44969 0.43656 0.0
C454 C 0.50437 0.89305 0.48554 0.0
C455 C 0.51492 0.88877 0.44675 0.0
C456 C 0.53823 0.94529 0.5079 0.0
C457 C 0.58285 0.99467 0.49083 0.0
C458 C 0.59135 0.99106 0.45103 0.0
C459 C 0.55788 0.93809 0.42967 0.0
C460 C 0.52802 0.94715 0.55028 0.0
C461 C 0.63722 0.04282 0.4313 0.0
C462 C 0.64024 0.1407 0.53874 0.0
C463 C 0.69719 0.15598 0.55779 0.0
C464 C 0.60255 0.08841 0.51707 0.0
C465 C 0.62174 0.04982 0.51473 0.0
C466 C 0.67896 0.06474 0.53429 0.0
C467 C 0.71636 0.11797 0.5552 0.0
C468 C 0.54286 0.07511 0.49584 0.0
C469 C 0.7009 1.02463 0.53284 0.0
H470 H 0.4719 0.85497 0.49913 0.0
H471 H 0.56627 0.93504 0.39971 0.0
H472 H 0.57015 0.95921 0.56948 0.0
H473 H 0.51759 0.98005 0.5558 0.0
H474 H 0.49031 0.90556 0.55883 0.0
H475 H 0.63386 1.03421 0.39925 0.0
H476 H 0.63086 0.07857 0.43607 0.0
H477 H 0.6838 0.05695 0.44443 0.0
H478 H 0.62585 0.17056 0.5399 0.0
H479 H 0.76046 0.12984 0.56967 0.0
H480 H 0.50487 1.03445 0.50518 0.0
H481 H 0.54288 0.06967 0.46382 0.0
H482 H 0.53401 0.10918 0.50126 0.0
H483 H 0.66672 0.98271 0.54315 0.0
H484 H 0.74501 0.04129 0.55112 0.0
H485 H 0.70634 1.01737 0.50215 0.0
C486 C 0.98061 0.98094 0.56676 0.0
C487 C 1.02224 1.02325 0.5953 0.0
C488 C 0.99245 0.98441 0.52742 0.0
C489 C 1.04634 1.03233 0.51626 0.0
C490 C 0.08826 0.07546 0.54505 0.0
C491 C 0.07608 0.06996 0.58434 0.0
C492 C 0.9475 0.93673 0.49788 0.0
C493 C 0.14543 0.12795 0.53426 0.0
C494 C 0.11012 1.02773 0.42229 0.0
C495 C 0.08793 0.05296 0.39644 0.0
C496 C 0.0952 1.01893 0.46099 0.0
C497 C 1.05892 0.03765 0.47448 0.0
C498 C 1.0363 0.06311 0.44832 0.0
C499 C 1.05035 0.06964 0.40939 0.0
C500 C 0.11868 0.99005 0.48752 0.0
C501 C 0.99894 0.08511 0.46179 0.0
H502 H 0.93915 0.94478 0.57546 0.0
H503 H 0.10776 0.10301 0.60643 0.0
H504 H 0.92888 0.9531 0.47498 0.0
H505 H 0.97069 0.91957 0.48295 0.0
H506 H 0.90909 0.90137 0.51161 0.0
H507 H 0.17247 0.15824 0.55997 0.0
H508 H 0.17429 0.11576 0.52119 0.0
H509 H 0.13357 0.15013 0.51182 0.0
H510 H 0.13893 1.01465 0.41199 0.0
H511 H 1.03391 0.08976 0.38937 0.0
H512 H 0.08052 0.95353 0.50057 0.0
H513 H 0.15067 1.02021 0.51205 0.0
H514 H 0.14255 0.97437 0.47172 0.0
H515 H 0.95777 0.05025 0.47351 0.0
H516 H 0.98462 0.1036 0.43778 0.0
H517 H 1.02572 0.1183 0.48598 0.0
C518 C 0.79057 0.41564 0.92808 0.0
C519 C 0.72804 0.39078 0.92925 0.0
C520 C 0.81621 0.43163 0.89235 0.0
C521 C 0.77842 0.42295 0.85718 0.0
C522 C 0.71586 0.40061 0.85874 0.0
C523 C 0.69155 0.38472 0.89464 0.0
C524 C 0.88309 0.45535 0.89196 0.0
C525 C 0.67391 0.39126 0.82219 0.0
C526 C 0.83881 0.4931 0.7626 0.0
C527 C 0.83262 0.44783 0.74004 0.0
C528 C 0.82407 0.48656 0.80144 0.0
C529 C 0.80264 0.43351 0.81825 0.0
C530 C 0.79879 0.38847 0.79622 0.0
C531 C 0.81375 0.39616 0.75749 0.0
C532 C 0.82874 0.53564 0.8238 0.0
C533 C 0.77653 0.33128 0.81302 0.0
H534 H 0.81879 0.42001 0.95473 0.0
H535 H 0.64336 0.36627 0.89558 0.0
H536 H 0.88907 0.42422 0.87622 0.0
H537 H 0.90465 0.49498 0.87595 0.0
H538 H 0.90729 0.46464 0.92202 0.0
H539 H 0.62732 0.37703 0.82879 0.0
H540 H 0.69222 0.43106 0.80647 0.0
H541 H 0.67088 0.35851 0.80201 0.0
H542 H 0.85286 0.53305 0.74942 0.0
H543 H 0.80994 0.36134 0.74061 0.0
H544 H 0.8534 0.54273 0.85345 0.0
H545 H 0.78249 0.52539 0.82777 0.0
H546 H 0.85238 0.57577 0.80838 0.0
H547 H 0.80241 0.33667 0.84194 0.0
H548 H 0.78084 0.30224 0.7934 0.0
H549 H 0.72804 0.31077 0.81779 0.0
C550 C 0.3798 0.75669 0.24475 0.0
C551 C 0.38881 0.72007 0.2682 0.0
C552 C 0.39252 0.76293 0.20563 0.0
C553 C 0.41464 0.73166 0.18954 0.0
C554 C 0.42304 0.69402 0.21285 0.0
C555 C 0.41007 0.68873 0.25193 0.0
C556 C 0.3832 0.80366 0.1817 0.0
C557 C 0.44608 0.65963 0.19658 0.0
C558 C 0.39757 0.71313 0.07862 0.0
C559 C 0.45576 0.75551 0.0698 0.0
C560 C 0.38388 0.70421 0.1175 0.0
C561 C 0.42933 0.73875 0.14836 0.0
C562 C 0.48833 0.78113 0.13979 0.0
C563 C 0.50086 0.7889 0.10062 0.0
C564 C 0.32042 0.65857 0.12551 0.0
C565 C 0.538 0.81877 0.17198 0.0
H566 H 0.36427 0.78167 0.25727 0.0
H567 H 0.41636 0.65985 0.26978 0.0
H568 H 0.42702 0.8375 0.17204 0.0
H569 H 0.35145 0.78088 0.15491 0.0
H570 H 0.36474 0.82408 0.19839 0.0
H571 H 0.44943 0.63174 0.21843 0.0
H572 H 0.41538 0.6327 0.17046 0.0
H573 H 0.49163 0.68854 0.18689 0.0
H574 H 0.36206 0.68773 0.05511 0.0
H575 H 0.54607 0.82117 0.09412 0.0
H576 H 0.29891 0.67827 0.13942 0.0
H577 H 0.32219 0.62892 0.14635 0.0
H578 H 0.2911 0.63362 0.09836 0.0
H579 H 0.52428 0.84357 0.18841 0.0
H580 H 0.5818 0.84895 0.16045 0.0
H581 H 0.5452 0.79231 0.19317 0.0
C582 C 1.00774 0.12531 0.06615 0.0
C583 C 1.04487 0.12019 0.09563 0.0
C584 C 1.02466 0.13669 0.02802 0.0
C585 C 0.07869 0.14096 0.01946 0.0
C586 C 0.11826 0.13983 0.04987 0.0
C587 C 0.10103 0.12998 0.08768 0.0
C588 C 0.98263 0.13987 0.99643 0.0
C589 C 0.17581 0.14325 0.04189 0.0
C590 C 0.07367 0.07271 0.9234 0.0
C591 C 0.11347 0.11998 0.90358 0.0
C592 C 1.06112 0.0793 0.96091 0.0
C593 C 0.08803 0.13482 0.97848 0.0
C594 C 0.12754 0.18297 0.95825 0.0
C595 C 0.14058 0.17484 0.92104 0.0
C596 C 1.02039 1.0267 0.98208 0.0
C597 C 0.15508 0.2427 0.97558 0.0
H598 H 0.96474 0.11844 0.07265 0.0
H599 H 0.12946 0.12536 0.1104 0.0
H600 H 1.00894 0.17392 0.97651 0.0
H601 H 0.95602 0.09895 0.97855 0.0
H602 H 0.95027 0.14801 0.00902 0.0
H603 H 0.20229 0.1435 0.06921 0.0
H604 H 0.16427 0.10617 0.02244 0.0
H605 H 0.20508 0.18224 0.02657 0.0
H606 H 1.05319 1.03044 0.90961 0.0
H607 H 0.17073 0.21118 0.90512 0.0
H608 H 0.98056 1.02714 0.98984 0.0
H609 H 1.04549 1.02612 0.00982 0.0
H610 H 1.00364 0.98677 0.96416 0.0
H611 H 0.1184 0.25068 0.97842 0.0
H612 H 0.18811 0.27531 0.95719 0.0
H613 H 0.1784 0.24804 0.00544 0.0
C614 C 0.64857 0.29975 0.26448 0.0
C615 C 0.68543 0.30491 0.23584 0.0
C616 C 0.66051 0.28919 0.30292 0.0
C617 C 0.71018 0.28279 0.31272 0.0
C618 C 0.7432 0.28134 0.28291 0.0
C619 C 0.73067 0.29292 0.24459 0.0
C620 C 0.62326 0.2901 0.33363 0.0
C621 C 0.79454 0.27192 0.29178 0.0
C622 C 0.77683 0.35069 0.41371 0.0
C623 C 0.74179 0.30468 0.43616 0.0
C624 C 0.77242 0.34301 0.37299 0.0
C625 C 0.73259 0.2878 0.35467 0.0
C626 C 0.70366 0.24027 0.37782 0.0
C627 C 0.70786 0.24937 0.41847 0.0
C628 C 0.80468 0.39491 0.34939 0.0
C629 C 0.66364 0.18045 0.35958 0.0
H630 H 0.6123 0.30714 0.2572 0.0
H631 H 0.75879 0.29626 0.22225 0.0
H632 H 0.60537 0.25139 0.3505 0.0
H633 H 0.6524 0.3275 0.35462 0.0
H634 H 0.58428 0.29248 0.32061 0.0
H635 H 0.80119 0.2534 0.26553 0.0
H636 H 0.83735 0.31335 0.30048 0.0
H637 H 0.78626 0.24339 0.31621 0.0
H638 H 0.80344 0.39336 0.42751 0.0
H639 H 0.68229 0.21356 0.43619 0.0
H640 H 0.77096 0.40319 0.33438 0.0
H641 H 0.82739 0.38774 0.3265 0.0
H642 H 0.83926 0.43348 0.36807 0.0
H643 H 0.61668 0.17053 0.35244 0.0
H644 H 0.66187 0.14899 0.38019 0.0
H645 H 0.67985 0.17542 0.33207 0.0
C646 C 0.43493 0.70682 0.59311 0.0
C647 C 0.46972 0.69168 0.5744 0.0
C648 C 0.41825 0.68873 0.6302 0.0
C649 C 0.43666 0.65422 0.64881 0.0
C650 C 0.46983 0.63676 0.62937 0.0
C651 C 0.48679 0.65648 0.59231 0.0
C652 C 0.38325 0.7088 0.65007 0.0
C653 C 0.489 0.59893 0.64794 0.0
C654 C 0.45644 0.68972 0.75558 0.0
C655 C 0.3978 0.65071 0.76535 0.0
C656 C 0.47237 0.68697 0.71852 0.0
C657 C 0.42825 0.64435 0.69046 0.0
C658 C 0.37113 0.60123 0.70128 0.0
C659 C 0.35618 0.60526 0.73877 0.0
C660 C 0.53395 0.73376 0.70818 0.0
C661 C 0.32416 0.55377 0.67236 0.0
H662 H 0.42191 0.73402 0.57888 0.0
H663 H 0.51256 0.64389 0.57711 0.0
H664 H 0.34103 0.6719 0.65926 0.0
H665 H 0.41107 0.73601 0.67684 0.0
H666 H 0.37065 0.73367 0.6307 0.0
H667 H 0.49643 0.57536 0.62537 0.0
H668 H 0.53243 0.62549 0.66703 0.0
H669 H 0.45468 0.56785 0.66634 0.0
H670 H 0.48884 0.72512 0.77591 0.0
H671 H 0.31151 0.57412 0.74681 0.0
H672 H 0.52851 0.76345 0.68932 0.0
H673 H 0.5549 0.71596 0.69149 0.0
H674 H 0.56566 0.75856 0.73465 0.0
H675 H 0.30044 0.56951 0.65308 0.0
H676 H 0.28963 0.51696 0.68748 0.0
H677 H 0.34585 0.5391 0.65343 0.0
loop_
_geom_bond_atom_site_label_1
_geom_bond_atom_site_label_2
_geom_bond_distance
_geom_bond_site_symmetry_2
_ccdc_geom_bond_type
C0 C1 1.351 . S
C0 N3 1.368 . S
C0 H5 0.931 . S
C1 C0 1.351 . S
C1 N2 1.373 . S
C1 H29 0.930 . S
N2 C1 1.373 . S
N2 C4 1.340 . S
N3 C0 1.368 . S
N3 C4 1.321 . S
N3 Co6 2.135 . S
C4 N2 1.340 . S
C4 N3 1.321 . S
C4 H28 0.930 . S
H5 C0 0.931 . S
Co6 N3 2.135 . S
Co6 N9 2.121 . S
Co6 O14 2.055 . S
Co6 O17 2.039 . S
Co6 N20 2.140 1_445 S
C7 O8 1.227 . S
C7 O17 1.265 1_655 S
O8 C7 1.227 . S
N9 Co6 2.121 . S
N9 C11 1.375 1_455 S
N9 C12 1.313 . S
C10 C11 1.338 . S
C10 N13 1.377 1_655 S
C10 H30 0.930 . S
C11 N9 1.375 1_655 S
C11 C10 1.338 . S
C11 H15 0.931 . S
C12 N9 1.313 . S
C12 N13 1.344 . S
C12 H16 0.930 . S
N13 C10 1.377 1_455 S
N13 C12 1.344 . S
O14 Co6 2.055 . S
O14 C18 1.253 . S
H15 C11 0.931 . S
H16 C12 0.930 . S
O17 Co6 2.039 . S
O17 C7 1.265 1_455 S
C18 O14 1.253 . S
C18 O19 1.227 . S
O19 C18 1.227 . S
N20 Co6 2.140 1_665 S
N20 C23 1.346 . S
N20 C24 1.345 . S
C21 C22 1.387 . S
C21 C25 1.391 . S
C22 C21 1.387 . S
C22 C23 1.369 . S
C22 H31 0.929 . S
C23 N20 1.346 . S
C23 C22 1.369 . S
C23 H26 0.928 . S
C24 N20 1.345 . S
C24 C25 1.371 . S
C24 H27 0.931 1_655 S
C25 C21 1.391 . S
C25 C24 1.371 . S
C25 H32 0.930 . S
H26 C23 0.928 . S
H27 C24 0.931 1_455 S
H28 C4 0.930 . S
H29 C1 0.930 . S
H30 C10 0.930 . S
H31 C22 0.929 . S
H32 C25 0.930 . S
C33 C34 1.351 . S
C33 N36 1.368 1_565 S
C33 H38 0.931 . S
C34 C33 1.351 . S
C34 N35 1.373 1_565 S
C34 H62 0.930 . S
N35 C34 1.373 1_545 S
N35 C37 1.340 1_655 S
N36 C33 1.368 1_545 S
N36 C37 1.321 1_655 S
N36 Co39 2.135 . S
C37 N35 1.340 1_455 S
C37 N36 1.321 1_455 S
C37 H61 0.930 . S
H38 C33 0.931 . S
Co39 N36 2.135 . S
Co39 N42 2.121 1_655 S
Co39 O47 2.055 1_545 S
Co39 O50 2.039 1_655 S
Co39 N53 2.140 1_645 S
C40 O41 1.227 . S
C40 O50 1.265 . S
O41 C40 1.227 . S
N42 Co39 2.121 1_455 S
N42 C44 1.375 . S
N42 C45 1.313 1_455 S
C43 C44 1.338 . S
C43 N46 1.377 . S
C43 H63 0.930 . S
C44 N42 1.375 . S
C44 C43 1.338 . S
C44 H48 0.931 . S
C45 N42 1.313 1_655 S
C45 N46 1.344 1_655 S
C45 H49 0.930 1_545 S
N46 C43 1.377 . S
N46 C45 1.344 1_455 S
O47 Co39 2.055 1_565 S
O47 C51 1.253 . S
H48 C44 0.931 . S
H49 C45 0.930 1_565 S
O50 Co39 2.039 1_455 S
O50 C40 1.265 . S
C51 O47 1.253 . S
C51 O52 1.227 . S
O52 C51 1.227 . S
N53 Co39 2.140 1_465 S
N53 C56 1.346 . S
N53 C57 1.345 . S
C54 C55 1.387 . S
C54 C58 1.391 . S
C55 C54 1.387 . S
C55 C56 1.369 . S
C55 H64 0.929 . S
C56 N53 1.346 . S
C56 C55 1.369 . S
C56 H59 0.928 1_565 S
C57 N53 1.345 . S
C57 C58 1.371 . S
C57 H60 0.931 . S
C58 C54 1.391 . S
C58 C57 1.371 . S
C58 H65 0.930 . S
H59 C56 0.928 1_545 S
H60 C57 0.931 . S
H61 C37 0.930 . S
H62 C34 0.930 . S
H63 C43 0.930 . S
H64 C55 0.929 . S
H65 C58 0.930 . S
C66 C67 1.351 . S
C66 N69 1.368 . S
C66 H71 0.931 . S
C67 C66 1.351 . S
C67 N68 1.373 . S
C67 H95 0.930 . S
N68 C67 1.373 . S
N68 C70 1.340 . S
N69 C66 1.368 . S
N69 C70 1.321 . S
N69 Co72 2.135 . S
C70 N68 1.340 . S
C70 N69 1.321 . S
C70 H94 0.930 . S
H71 C66 0.931 . S
Co72 N69 2.135 . S
Co72 N75 2.121 . S
Co72 O80 2.055 . S
Co72 O83 2.039 . S
Co72 N86 2.140 . S
C73 O74 1.227 . S
C73 O83 1.265 . S
O74 C73 1.227 . S
N75 Co72 2.121 . S
N75 C77 1.375 . S
N75 C78 1.313 . S
C76 C77 1.338 . S
C76 N79 1.377 . S
C76 H96 0.930 . S
C77 N75 1.375 . S
C77 C76 1.338 . S
C77 H81 0.931 . S
C78 N75 1.313 . S
C78 N79 1.344 . S
C78 H82 0.930 . S
N79 C76 1.377 . S
N79 C78 1.344 . S
O80 Co72 2.055 . S
O80 C84 1.253 . S
H81 C77 0.931 . S
H82 C78 0.930 . S
O83 Co72 2.039 . S
O83 C73 1.265 . S
C84 O80 1.253 . S
C84 O85 1.227 . S
O85 C84 1.227 . S
N86 Co72 2.140 . S
N86 C89 1.346 . S
N86 C90 1.345 . S
C87 C88 1.387 . S
C87 C91 1.391 . S
C88 C87 1.387 . S
C88 C89 1.369 . S
C88 H97 0.929 . S
C89 N86 1.346 . S
C89 C88 1.369 . S
C89 H92 0.928 . S
C90 N86 1.345 . S
C90 C91 1.371 . S
C90 H93 0.931 . S
C91 C87 1.391 . S
C91 C90 1.371 . S
C91 H98 0.930 . S
H92 C89 0.928 . S
H93 C90 0.931 . S
H94 C70 0.930 . S
H95 C67 0.930 . S
H96 C76 0.930 . S
H97 C88 0.929 . S
H98 C91 0.930 . S
C99 C100 1.351 1_554 S
C99 N102 1.368 . S
C99 H104 0.931 . S
C100 C99 1.351 1_556 S
C100 N101 1.373 . S
C100 H128 0.930 . S
N101 C100 1.373 . S
N101 C103 1.340 1_556 S
N102 C99 1.368 . S
N102 C103 1.321 . S
N102 Co105 2.135 . S
C103 N101 1.340 1_554 S
C103 N102 1.321 . S
C103 H127 0.930 . S
H104 C99 0.931 . S
Co105 N102 2.135 . S
Co105 N108 2.121 . S
Co105 O113 2.055 . S
Co105 O116 2.039 . S
Co105 N119 2.140 . S
C106 O107 1.227 . S
C106 O116 1.265 . S
O107 C106 1.227 . S
N108 Co105 2.121 . S
N108 C110 1.375 . S
N108 C111 1.313 . S
C109 C110 1.338 . S
C109 N112 1.377 . S
C109 H129 0.930 . S
C110 N108 1.375 . S
C110 C109 1.338 . S
C110 H114 0.931 . S
C111 N108 1.313 . S
C111 N112 1.344 . S
C111 H115 0.930 . S
N112 C109 1.377 . S
N112 C111 1.344 . S
O113 Co105 2.055 . S
O113 C117 1.253 . S
H114 C110 0.931 . S
H115 C111 0.930 . S
O116 Co105 2.039 . S
O116 C106 1.265 . S
C117 O113 1.253 . S
C117 O118 1.227 . S
O118 C117 1.227 . S
N119 Co105 2.140 . S
N119 C122 1.346 . S
N119 C123 1.345 . S
C120 C121 1.387 . S
C120 C124 1.391 . S
C121 C120 1.387 . S
C121 C122 1.369 . S
C121 H130 0.929 . S
C122 N119 1.346 . S
C122 C121 1.369 . S
C122 H125 0.928 . S
C123 N119 1.345 . S
C123 C124 1.371 . S
C123 H126 0.931 . S
C124 C120 1.391 . S
C124 C123 1.371 . S
C124 H131 0.930 . S
H125 C122 0.928 . S
H126 C123 0.931 . S
H127 C103 0.930 . S
H128 C100 0.930 . S
H129 C109 0.930 . S
H130 C121 0.929 . S
H131 C124 0.930 . S
C132 C133 1.351 1_556 S
C132 N135 1.368 . S
C132 H137 0.931 . S
C133 C132 1.351 1_554 S
C133 N134 1.373 . S
C133 H161 0.930 . S
N134 C133 1.373 . S
N134 C136 1.340 1_554 S
N135 C132 1.368 . S
N135 C136 1.321 . S
N135 Co138 2.135 . S
C136 N134 1.340 1_556 S
C136 N135 1.321 . S
C136 H160 0.930 . S
H137 C132 0.931 . S
Co138 N135 2.135 . S
Co138 N141 2.121 . S
Co138 O146 2.055 . S
Co138 O149 2.039 . S
Co138 N152 2.140 . S
C139 O140 1.227 . S
C139 O149 1.265 . S
O140 C139 1.227 . S
N141 Co138 2.121 . S
N141 C143 1.375 . S
N141 C144 1.313 . S
C142 C143 1.338 . S
C142 N145 1.377 . S
C142 H162 0.930 . S
C143 N141 1.375 . S
C143 C142 1.338 . S
C143 H147 0.931 . S
C144 N141 1.313 . S
C144 N145 1.344 . S
C144 H148 0.930 . S
N145 C142 1.377 . S
N145 C144 1.344 . S
O146 Co138 2.055 . S
O146 C150 1.253 . S
H147 C143 0.931 . S
H148 C144 0.930 . S
O149 Co138 2.039 . S
O149 C139 1.265 . S
C150 O146 1.253 . S
C150 O151 1.227 . S
O151 C150 1.227 . S
N152 Co138 2.140 . S
N152 C155 1.346 . S
N152 C156 1.345 . S
C153 C154 1.387 . S
C153 C157 1.391 . S
C154 C153 1.387 . S
C154 C155 1.369 . S
C154 H163 0.929 . S
C155 N152 1.346 . S
C155 C154 1.369 . S
C155 H158 0.928 . S
C156 N152 1.345 . S
C156 C157 1.371 . S
C156 H159 0.931 . S
C157 C153 1.391 . S
C157 C156 1.371 . S
C157 H164 0.930 . S
H158 C155 0.928 . S
H159 C156 0.931 . S
H160 C136 0.930 . S
H161 C133 0.930 . S
H162 C142 0.930 . S
H163 C154 0.929 . S
H164 C157 0.930 . S
C165 C166 1.351 . S
C165 N168 1.368 . S
C165 H170 0.931 . S
C166 C165 1.351 . S
C166 N167 1.373 . S
C166 H194 0.930 . S
N167 C166 1.373 . S
N167 C169 1.340 . S
N168 C165 1.368 . S
N168 C169 1.321 . S
N168 Co171 2.135 . S
C169 N167 1.340 . S
C169 N168 1.321 . S
C169 H193 0.930 . S
H170 C165 0.931 . S
Co171 N168 2.135 . S
Co171 N174 2.121 . S
Co171 O179 2.055 . S
Co171 O182 2.039 . S
Co171 N185 2.140 . S
C172 O173 1.227 . S
C172 O182 1.265 . S
O173 C172 1.227 . S
N174 Co171 2.121 . S
N174 C176 1.375 . S
N174 C177 1.313 . S
C175 C176 1.338 . S
C175 N178 1.377 . S
C175 H195 0.930 . S
C176 N174 1.375 . S
C176 C175 1.338 . S
C176 H180 0.931 . S
C177 N174 1.313 . S
C177 N178 1.344 . S
C177 H181 0.930 . S
N178 C175 1.377 . S
N178 C177 1.344 . S
O179 Co171 2.055 . S
O179 C183 1.253 . S
H180 C176 0.931 . S
H181 C177 0.930 . S
O182 Co171 2.039 . S
O182 C172 1.265 . S
C183 O179 1.253 . S
C183 O184 1.227 . S
O184 C183 1.227 . S
N185 Co171 2.140 . S
N185 C188 1.346 . S
N185 C189 1.345 . S
C186 C187 1.387 . S
C186 C190 1.391 . S
C187 C186 1.387 . S
C187 C188 1.369 . S
C187 H196 0.929 . S
C188 N185 1.346 . S
C188 C187 1.369 . S
C188 H191 0.928 . S
C189 N185 1.345 . S
C189 C190 1.371 . S
C189 H192 0.931 . S
C190 C186 1.391 . S
C190 C189 1.371 . S
C190 H197 0.930 . S
H191 C188 0.928 . S
H192 C189 0.931 . S
H193 C169 0.930 . S
H194 C166 0.930 . S
H195 C175 0.930 . S
H196 C187 0.929 . S
H197 C190 0.930 . S
C198 C199 1.391 . S
C198 C200 1.394 . S
C198 H214 0.931 . S
C199 C198 1.391 . S
C199 C203 1.376 . S
C200 C198 1.394 . S
C200 C201 1.369 . S
C200 C204 1.531 . S
C201 C200 1.369 . S
C201 C202 1.410 . S
C201 C209 1.503 . S
C202 C201 1.410 . S
C202 C203 1.392 . S
C202 C205 1.511 . S
C203 C199 1.376 . S
C203 C202 1.392 . S
C203 H215 0.929 . S
C204 C200 1.531 . S
C204 H216 0.960 . S
C204 H217 0.962 . S
C204 H218 0.960 . S
C205 C202 1.511 . S
C205 H219 0.961 . S
C205 H220 0.961 . S
C205 H221 0.961 . S
C206 C207 1.370 . S
C206 C208 1.363 . S
C206 H222 0.931 . S
C207 C206 1.370 . S
C207 C211 1.408 . S
C208 C206 1.363 . S
C208 C209 1.370 . S
C208 C212 1.524 . S
C209 C201 1.503 . S
C209 C208 1.370 . S
C209 C210 1.403 . S
C210 C209 1.403 . S
C210 C211 1.404 . S
C210 C213 1.539 . S
C211 C207 1.408 . S
C211 C210 1.404 . S
C211 H223 0.930 . S
C212 C208 1.524 . S
C212 H224 0.956 . S
C212 H225 0.961 . S
C212 H226 0.961 . S
C213 C210 1.539 . S
C213 H227 0.958 . S
C213 H228 0.961 . S
C213 H229 0.960 . S
H214 C198 0.931 . S
H215 C203 0.929 . S
H216 C204 0.960 . S
H217 C204 0.962 . S
H218 C204 0.960 . S
H219 C205 0.961 . S
H220 C205 0.961 . S
H221 C205 0.961 . S
H222 C206 0.931 . S
H223 C211 0.930 . S
H224 C212 0.956 . S
H225 C212 0.961 . S
H226 C212 0.961 . S
H227 C213 0.958 . S
H228 C213 0.961 . S
H229 C213 0.960 . S
C230 C231 1.391 . S
C230 C232 1.394 . S
C230 H246 0.931 . S
C231 C230 1.391 . S
C231 C235 1.376 . S
C232 C230 1.394 . S
C232 C233 1.369 . S
C232 C236 1.531 . S
C233 C232 1.369 . S
C233 C234 1.410 . S
C233 C241 1.503 . S
C234 C233 1.410 . S
C234 C235 1.392 . S
C234 C237 1.511 . S
C235 C231 1.376 . S
C235 C234 1.392 . S
C235 H247 0.929 . S
C236 C232 1.531 . S
C236 H248 0.960 . S
C236 H249 0.962 . S
C236 H250 0.960 . S
C237 C234 1.511 . S
C237 H251 0.961 . S
C237 H252 0.961 . S
C237 H253 0.961 . S
C238 C239 1.370 . S
C238 C240 1.363 . S
C238 H254 0.931 . S
C239 C238 1.370 . S
C239 C243 1.408 . S
C240 C238 1.363 . S
C240 C241 1.370 . S
C240 C244 1.524 . S
C241 C233 1.503 . S
C241 C240 1.370 . S
C241 C242 1.403 . S
C242 C241 1.403 . S
C242 C243 1.404 . S
C242 C245 1.539 . S
C243 C239 1.408 . S
C243 C242 1.404 . S
C243 H255 0.930 . S
C244 C240 1.524 . S
C244 H256 0.956 . S
C244 H257 0.961 . S
C244 H258 0.961 . S
C245 C242 1.539 . S
C245 H259 0.958 . S
C245 H260 0.961 . S
C245 H261 0.960 . S
H246 C230 0.931 . S
H247 C235 0.929 . S
H248 C236 0.960 . S
H249 C236 0.962 . S
H250 C236 0.960 . S
H251 C237 0.961 . S
H252 C237 0.961 . S
H253 C237 0.961 . S
H254 C238 0.931 . S
H255 C243 0.930 . S
H256 C244 0.956 . S
H257 C244 0.961 . S
H258 C244 0.961 . S
H259 C245 0.958 . S
H260 C245 0.961 . S
H261 C245 0.960 . S
C262 C263 1.391 . S
C262 C264 1.394 . S
C262 H278 0.931 . S
C263 C262 1.391 . S
C263 C267 1.376 . S
C264 C262 1.394 . S
C264 C265 1.369 . S
C264 C268 1.531 . S
C265 C264 1.369 . S
C265 C266 1.410 . S
C265 C273 1.503 . S
C266 C265 1.410 . S
C266 C267 1.392 . S
C266 C269 1.511 . S
C267 C263 1.376 . S
C267 C266 1.392 . S
C267 H279 0.929 . S
C268 C264 1.531 . S
C268 H280 0.960 . S
C268 H281 0.962 . S
C268 H282 0.960 . S
C269 C266 1.511 . S
C269 H283 0.961 . S
C269 H284 0.961 . S
C269 H285 0.961 . S
C270 C271 1.370 . S
C270 C272 1.363 . S
C270 H286 0.931 . S
C271 C270 1.370 . S
C271 C275 1.408 . S
C272 C270 1.363 . S
C272 C273 1.370 . S
C272 C276 1.524 . S
C273 C265 1.503 . S
C273 C272 1.370 . S
C273 C274 1.403 . S
C274 C273 1.403 . S
C274 C275 1.404 . S
C274 C277 1.539 . S
C275 C271 1.408 . S
C275 C274 1.404 . S
C275 H287 0.930 . S
C276 C272 1.524 . S
C276 H288 0.956 . S
C276 H289 0.961 . S
C276 H290 0.961 . S
C277 C274 1.539 . S
C277 H291 0.958 . S
C277 H292 0.961 . S
C277 H293 0.960 . S
H278 C262 0.931 . S
H279 C267 0.929 . S
H280 C268 0.960 . S
H281 C268 0.962 . S
H282 C268 0.960 . S
H283 C269 0.961 . S
H284 C269 0.961 . S
H285 C269 0.961 . S
H286 C270 0.931 . S
H287 C275 0.930 . S
H288 C276 0.956 . S
H289 C276 0.961 . S
H290 C276 0.961 . S
H291 C277 0.958 . S
H292 C277 0.961 . S
H293 C277 0.960 . S
C294 C295 1.391 . S
C294 C296 1.394 . S
C294 H310 0.931 . S
C295 C294 1.391 . S
C295 C299 1.376 . S
C296 C294 1.394 . S
C296 C297 1.369 . S
C296 C300 1.531 . S
C297 C296 1.369 . S
C297 C298 1.410 . S
C297 C305 1.503 . S
C298 C297 1.410 . S
C298 C299 1.392 . S
C298 C301 1.511 . S
C299 C295 1.376 . S
C299 C298 1.392 . S
C299 H311 0.929 . S
C300 C296 1.531 . S
C300 H312 0.960 . S
C300 H313 0.962 . S
C300 H314 0.960 . S
C301 C298 1.511 . S
C301 H315 0.961 . S
C301 H316 0.961 . S
C301 H317 0.961 . S
C302 C303 1.370 . S
C302 C304 1.363 . S
C302 H318 0.931 . S
C303 C302 1.370 . S
C303 C307 1.408 . S
C304 C302 1.363 . S
C304 C305 1.370 . S
C304 C308 1.524 . S
C305 C297 1.503 . S
C305 C304 1.370 . S
C305 C306 1.403 . S
C306 C305 1.403 . S
C306 C307 1.404 . S
C306 C309 1.539 . S
C307 C303 1.408 . S
C307 C306 1.404 . S
C307 H319 0.930 . S
C308 C304 1.524 . S
C308 H320 0.956 . S
C308 H321 0.961 . S
C308 H322 0.961 . S
C309 C306 1.539 . S
C309 H323 0.958 . S
C309 H324 0.961 . S
C309 H325 0.960 . S
H310 C294 0.931 . S
H311 C299 0.929 . S
H312 C300 0.960 . S
H313 C300 0.962 . S
H314 C300 0.960 . S
H315 C301 0.961 . S
H316 C301 0.961 . S
H317 C301 0.961 . S
H318 C302 0.931 . S
H319 C307 0.930 . S
H320 C308 0.956 . S
H321 C308 0.961 . S
H322 C308 0.961 . S
H323 C309 0.958 . S
H324 C309 0.961 . S
H325 C309 0.960 . S
C326 C327 1.391 . S
C326 C328 1.394 . S
C326 H342 0.931 . S
C327 C326 1.391 . S
C327 C331 1.376 . S
C328 C326 1.394 . S
C328 C329 1.369 . S
C328 C332 1.531 . S
C329 C328 1.369 . S
C329 C330 1.410 . S
C329 C337 1.503 . S
C330 C329 1.410 . S
C330 C331 1.392 . S
C330 C333 1.511 . S
C331 C327 1.376 . S
C331 C330 1.392 . S
C331 H343 0.929 . S
C332 C328 1.531 . S
C332 H344 0.960 . S
C332 H345 0.962 . S
C332 H346 0.960 . S
C333 C330 1.511 . S
C333 H347 0.961 . S
C333 H348 0.961 . S
C333 H349 0.961 . S
C334 C335 1.370 . S
C334 C336 1.363 . S
C334 H350 0.931 . S
C335 C334 1.370 . S
C335 C339 1.408 . S
C336 C334 1.363 . S
C336 C337 1.370 . S
C336 C340 1.524 . S
C337 C329 1.503 . S
C337 C336 1.370 . S
C337 C338 1.403 . S
C338 C337 1.403 . S
C338 C339 1.404 . S
C338 C341 1.539 . S
C339 C335 1.408 . S
C339 C338 1.404 . S
C339 H351 0.930 . S
C340 C336 1.524 . S
C340 H352 0.956 . S
C340 H353 0.961 . S
C340 H354 0.961 . S
C341 C338 1.539 . S
C341 H355 0.958 . S
C341 H356 0.961 . S
C341 H357 0.960 . S
H342 C326 0.931 . S
H343 C331 0.929 . S
H344 C332 0.960 . S
H345 C332 0.962 . S
H346 C332 0.960 . S
H347 C333 0.961 . S
H348 C333 0.961 . S
H349 C333 0.961 . S
H350 C334 0.931 . S
H351 C339 0.930 . S
H352 C340 0.956 . S
H353 C340 0.961 . S
H354 C340 0.961 . S
H355 C341 0.958 . S
H356 C341 0.961 . S
H357 C341 0.960 . S
C358 C359 1.391 . S
C358 C360 1.394 . S
C358 H374 0.931 . S
C359 C358 1.391 . S
C359 C363 1.376 . S
C360 C358 1.394 . S
C360 C361 1.369 . S
C360 C364 1.531 . S
C361 C360 1.369 . S
C361 C362 1.410 . S
C361 C369 1.503 . S
C362 C361 1.410 . S
C362 C363 1.392 . S
C362 C365 1.511 . S
C363 C359 1.376 . S
C363 C362 1.392 . S
C363 H375 0.929 . S
C364 C360 1.531 . S
C364 H376 0.960 . S
C364 H377 0.962 . S
C364 H378 0.960 . S
C365 C362 1.511 . S
C365 H379 0.961 . S
C365 H380 0.961 . S
C365 H381 0.961 . S
C366 C367 1.370 . S
C366 C368 1.363 . S
C366 H382 0.931 . S
C367 C366 1.370 . S
C367 C371 1.408 . S
C368 C366 1.363 . S
C368 C369 1.370 . S
C368 C372 1.524 . S
C369 C361 1.503 . S
C369 C368 1.370 . S
C369 C370 1.403 . S
C370 C369 1.403 . S
C370 C371 1.404 . S
C370 C373 1.539 . S
C371 C367 1.408 . S
C371 C370 1.404 . S
C371 H383 0.930 . S
C372 C368 1.524 . S
C372 H384 0.956 . S
C372 H385 0.961 . S
C372 H386 0.961 . S
C373 C370 1.539 . S
C373 H387 0.958 . S
C373 H388 0.961 . S
C373 H389 0.960 . S
H374 C358 0.931 . S
H375 C363 0.929 . S
H376 C364 0.960 . S
H377 C364 0.962 . S
H378 C364 0.960 . S
H379 C365 0.961 . S
H380 C365 0.961 . S
H381 C365 0.961 . S
H382 C366 0.931 . S
H383 C371 0.930 . S
H384 C372 0.956 . S
H385 C372 0.961 . S
H386 C372 0.961 . S
H387 C373 0.958 . S
H388 C373 0.961 . S
H389 C373 0.960 . S
C390 C391 1.391 . S
C390 C392 1.394 . S
C390 H406 0.931 . S
C391 C390 1.391 . S
C391 C395 1.376 . S
C392 C390 1.394 . S
C392 C393 1.369 . S
C392 C396 1.531 . S
C393 C392 1.369 . S
C393 C394 1.410 . S
C393 C401 1.503 1_655 S
C394 C393 1.410 . S
C394 C395 1.392 . S
C394 C397 1.511 . S
C395 C391 1.376 . S
C395 C394 1.392 . S
C395 H407 0.929 . S
C396 C392 1.531 . S
C396 H408 0.960 1_655 S
C396 H409 0.962 1_655 S
C396 H410 0.960 . S
C397 C394 1.511 . S
C397 H411 0.961 . S
C397 H412 0.961 1_655 S
C397 H413 0.961 . S
C398 C399 1.370 . S
C398 C400 1.363 . S
C398 H414 0.931 . S
C399 C398 1.370 . S
C399 C403 1.408 . S
C400 C398 1.363 . S
C400 C401 1.370 . S
C400 C404 1.524 . S
C401 C393 1.503 1_455 S
C401 C400 1.370 . S
C401 C402 1.403 . S
C402 C401 1.403 . S
C402 C403 1.404 . S
C402 C405 1.539 1_455 S
C403 C399 1.408 . S
C403 C402 1.404 . S
C403 H415 0.930 . S
C404 C400 1.524 . S
C404 H416 0.956 . S
C404 H417 0.961 . S
C404 H418 0.961 . S
C405 C402 1.539 1_655 S
C405 H419 0.958 . S
C405 H420 0.961 1_655 S
C405 H421 0.960 . S
H406 C390 0.931 . S
H407 C395 0.929 . S
H408 C396 0.960 1_455 S
H409 C396 0.962 1_455 S
H410 C396 0.960 . S
H411 C397 0.961 . S
H412 C397 0.961 1_455 S
H413 C397 0.961 . S
H414 C398 0.931 . S
H415 C403 0.930 . S
H416 C404 0.956 . S
H417 C404 0.961 . S
H418 C404 0.961 . S
H419 C405 0.958 . S
H420 C405 0.961 1_455 S
H421 C405 0.960 . S
C422 C423 1.391 . S
C422 C424 1.394 . S
C422 H438 0.931 . S
C423 C422 1.391 . S
C423 C427 1.376 . S
C424 C422 1.394 . S
C424 C425 1.369 . S
C424 C428 1.531 . S
C425 C424 1.369 . S
C425 C426 1.410 . S
C425 C433 1.503 . S
C426 C425 1.410 . S
C426 C427 1.392 . S
C426 C429 1.511 . S
C427 C423 1.376 . S
C427 C426 1.392 . S
C427 H439 0.929 . S
C428 C424 1.531 . S
C428 H440 0.960 . S
C428 H441 0.962 . S
C428 H442 0.960 . S
C429 C426 1.511 . S
C429 H443 0.961 . S
C429 H444 0.961 . S
C429 H445 0.961 . S
C430 C431 1.370 . S
C430 C432 1.363 . S
C430 H446 0.931 . S
C431 C430 1.370 . S
C431 C435 1.408 . S
C432 C430 1.363 . S
C432 C433 1.370 . S
C432 C436 1.524 . S
C433 C425 1.503 . S
C433 C432 1.370 . S
C433 C434 1.403 . S
C434 C433 1.403 . S
C434 C435 1.404 . S
C434 C437 1.539 . S
C435 C431 1.408 . S
C435 C434 1.404 . S
C435 H447 0.930 . S
C436 C432 1.524 . S
C436 H448 0.956 . S
C436 H449 0.961 . S
C436 H450 0.961 . S
C437 C434 1.539 . S
C437 H451 0.958 . S
C437 H452 0.961 . S
C437 H453 0.960 . S
H438 C422 0.931 . S
H439 C427 0.929 . S
H440 C428 0.960 . S
H441 C428 0.962 . S
H442 C428 0.960 . S
H443 C429 0.961 . S
H444 C429 0.961 . S
H445 C429 0.961 . S
H446 C430 0.931 . S
H447 C435 0.930 . S
H448 C436 0.956 . S
H449 C436 0.961 . S
H450 C436 0.961 . S
H451 C437 0.958 . S
H452 C437 0.961 . S
H453 C437 0.960 . S
C454 C455 1.391 . S
C454 C456 1.394 . S
C454 H470 0.931 . S
C455 C454 1.391 . S
C455 C459 1.376 . S
C456 C454 1.394 . S
C456 C457 1.369 . S
C456 C460 1.531 . S
C457 C456 1.369 . S
C457 C458 1.410 . S
C457 C465 1.503 1_565 S
C458 C457 1.410 . S
C458 C459 1.392 . S
C458 C461 1.511 . S
C459 C455 1.376 . S
C459 C458 1.392 . S
C459 H471 0.929 . S
C460 C456 1.531 . S
C460 H472 0.960 . S
C460 H473 0.962 . S
C460 H474 0.960 . S
C461 C458 1.511 . S
C461 H475 0.961 . S
C461 H476 0.961 1_565 S
C461 H477 0.961 . S
C462 C463 1.370 . S
C462 C464 1.363 . S
C462 H478 0.931 . S
C463 C462 1.370 . S
C463 C467 1.408 . S
C464 C462 1.363 . S
C464 C465 1.370 . S
C464 C468 1.524 . S
C465 C457 1.503 1_545 S
C465 C464 1.370 . S
C465 C466 1.403 . S
C466 C465 1.403 . S
C466 C467 1.404 . S
C466 C469 1.542 . S
C467 C463 1.408 . S
C467 C466 1.404 . S
C467 H479 0.930 . S
C468 C464 1.524 . S
C468 H480 0.956 1_545 S
C468 H481 0.961 1_545 S
C468 H482 0.961 . S
C469 C466 1.542 . S
C469 H483 0.957 1_545 S
C469 H484 0.962 . S
C469 H485 0.957 1_545 S
H470 C454 0.931 . S
H471 C459 0.929 . S
H472 C460 0.960 . S
H473 C460 0.962 . S
H474 C460 0.960 . S
H475 C461 0.961 . S
H476 C461 0.961 1_545 S
H477 C461 0.961 . S
H478 C462 0.931 . S
H479 C467 0.930 . S
H480 C468 0.956 1_565 S
H481 C468 0.961 1_565 S
H482 C468 0.961 . S
H483 C469 0.957 1_565 S
H484 C469 0.962 . S
H485 C469 0.957 1_565 S
C486 C487 1.391 1_655 S
C486 C488 1.394 . S
C486 H502 0.931 . S
C487 C486 1.391 1_455 S
C487 C491 1.376 . S
C488 C486 1.394 . S
C488 C489 1.369 1_655 S
C488 C492 1.531 . S
C489 C488 1.369 1_455 S
C489 C490 1.410 . S
C489 C497 1.503 . S
C490 C489 1.410 . S
C490 C491 1.392 . S
C490 C493 1.511 . S
C491 C487 1.376 . S
C491 C490 1.392 . S
C491 H503 0.929 . S
C492 C488 1.531 . S
C492 H504 0.960 . S
C492 H505 0.962 1_545 S
C492 H506 0.960 . S
C493 C490 1.511 . S
C493 H507 0.961 . S
C493 H508 0.961 . S
C493 H509 0.961 . S
C494 C495 1.370 1_565 S
C494 C496 1.363 . S
C494 H510 0.931 . S
C495 C494 1.370 1_545 S
C495 C499 1.408 . S
C496 C494 1.363 . S
C496 C497 1.370 1_565 S
C496 C500 1.524 1_455 S
C497 C489 1.503 . S
C497 C496 1.370 1_545 S
C497 C498 1.403 . S
C498 C497 1.403 . S
C498 C499 1.404 . S
C498 C501 1.539 . S
C499 C495 1.408 . S
C499 C498 1.404 . S
C499 H511 0.930 . S
C500 C496 1.524 1_655 S
C500 H512 0.956 . S
C500 H513 0.961 1_655 S
C500 H514 0.961 . S
C501 C498 1.539 . S
C501 H515 0.958 . S
C501 H516 0.961 . S
C501 H517 0.960 . S
H502 C486 0.931 . S
H503 C491 0.929 . S
H504 C492 0.960 . S
H505 C492 0.962 1_565 S
H506 C492 0.960 . S
H507 C493 0.961 . S
H508 C493 0.961 . S
H509 C493 0.961 . S
H510 C494 0.931 . S
H511 C499 0.930 . S
H512 C500 0.956 . S
H513 C500 0.961 1_455 S
H514 C500 0.961 . S
H515 C501 0.958 . S
H516 C501 0.961 . S
H517 C501 0.960 . S
C518 C519 1.391 . S
C518 C520 1.394 . S
C518 H534 0.931 . S
C519 C518 1.391 . S
C519 C523 1.376 . S
C520 C518 1.394 . S
C520 C521 1.369 . S
C520 C524 1.531 . S
C521 C520 1.369 . S
C521 C522 1.410 . S
C521 C529 1.503 . S
C522 C521 1.410 . S
C522 C523 1.392 . S
C522 C525 1.511 . S
C523 C519 1.376 . S
C523 C522 1.392 . S
C523 H535 0.929 . S
C524 C520 1.531 . S
C524 H536 0.960 . S
C524 H537 0.962 . S
C524 H538 0.960 . S
C525 C522 1.511 . S
C525 H539 0.961 . S
C525 H540 0.961 . S
C525 H541 0.961 . S
C526 C527 1.370 . S
C526 C528 1.363 . S
C526 H542 0.931 . S
C527 C526 1.370 . S
C527 C531 1.408 . S
C528 C526 1.363 . S
C528 C529 1.370 . S
C528 C532 1.524 . S
C529 C521 1.503 . S
C529 C528 1.370 . S
C529 C530 1.403 . S
C530 C529 1.403 . S
C530 C531 1.404 . S
C530 C533 1.539 . S
C531 C527 1.408 . S
C531 C530 1.404 . S
C531 H543 0.930 . S
C532 C528 1.524 . S
C532 H544 0.956 . S
C532 H545 0.961 . S
C532 H546 0.961 . S
C533 C530 1.539 . S
C533 H547 0.958 . S
C533 H548 0.961 . S
C533 H549 0.960 . S
H534 C518 0.931 . S
H535 C523 0.929 . S
H536 C524 0.960 . S
H537 C524 0.962 . S
H538 C524 0.960 . S
H539 C525 0.961 . S
H540 C525 0.961 . S
H541 C525 0.961 . S
H542 C526 0.931 . S
H543 C531 0.930 . S
H544 C532 0.956 . S
H545 C532 0.961 . S
H546 C532 0.961 . S
H547 C533 0.958 . S
H548 C533 0.961 . S
H549 C533 0.960 . S
C550 C551 1.391 . S
C550 C552 1.394 . S
C550 H566 0.931 . S
C551 C550 1.391 . S
C551 C555 1.376 . S
C552 C550 1.394 . S
C552 C553 1.369 . S
C552 C556 1.531 . S
C553 C552 1.369 . S
C553 C554 1.410 . S
C553 C561 1.503 . S
C554 C553 1.410 . S
C554 C555 1.392 . S
C554 C557 1.511 . S
C555 C551 1.376 . S
C555 C554 1.392 . S
C555 H567 0.929 . S
C556 C552 1.531 . S
C556 H568 0.960 . S
C556 H569 0.962 . S
C556 H570 0.960 . S
C557 C554 1.511 . S
C557 H571 0.961 . S
C557 H572 0.961 . S
C557 H573 0.961 . S
C558 C559 1.370 . S
C558 C560 1.363 . S
C558 H574 0.931 . S
C559 C558 1.370 . S
C559 C563 1.408 . S
C560 C558 1.363 . S
C560 C561 1.370 . S
C560 C564 1.524 . S
C561 C553 1.503 . S
C561 C560 1.370 . S
C561 C562 1.403 . S
C562 C561 1.403 . S
C562 C563 1.404 . S
C562 C565 1.539 . S
C563 C559 1.408 . S
C563 C562 1.404 . S
C563 H575 0.930 . S
C564 C560 1.524 . S
C564 H576 0.956 . S
C564 H577 0.961 . S
C564 H578 0.961 . S
C565 C562 1.539 . S
C565 H579 0.958 . S
C565 H580 0.961 . S
C565 H581 0.960 . S
H566 C550 0.931 . S
H567 C555 0.929 . S
H568 C556 0.960 . S
H569 C556 0.962 . S
H570 C556 0.960 . S
H571 C557 0.961 . S
H572 C557 0.961 . S
H573 C557 0.961 . S
H574 C558 0.931 . S
H575 C563 0.930 . S
H576 C564 0.956 . S
H577 C564 0.961 . S
H578 C564 0.961 . S
H579 C565 0.958 . S
H580 C565 0.961 . S
H581 C565 0.960 . S
C582 C583 1.391 . S
C582 C584 1.394 . S
C582 H598 0.931 . S
C583 C582 1.391 . S
C583 C587 1.376 . S
C584 C582 1.394 . S
C584 C585 1.369 . S
C584 C588 1.531 1_455 S
C585 C584 1.369 . S
C585 C586 1.410 . S
C585 C593 1.503 1_554 S
C586 C585 1.410 . S
C586 C587 1.392 . S
C586 C589 1.511 . S
C587 C583 1.376 . S
C587 C586 1.392 . S
C587 H599 0.929 . S
C588 C584 1.531 1_655 S
C588 H600 0.948 1_554 S
C588 H601 0.962 . S
C588 H602 0.960 . S
C589 C586 1.511 . S
C589 H603 0.961 1_545 S
C589 H604 0.961 1_544 S
C589 H605 0.961 . S
C590 C591 1.370 1_565 S
C590 C592 1.363 . S
C590 H606 0.931 . S
C591 C590 1.370 1_545 S
C591 C595 1.408 1_655 S
C592 C590 1.363 . S
C592 C593 1.370 1_665 S
C592 C596 1.524 . S
C593 C585 1.503 1_556 S
C593 C592 1.370 1_445 S
C593 C594 1.403 . S
C594 C593 1.403 . S
C594 C595 1.404 . S
C594 C597 1.539 . S
C595 C591 1.408 1_455 S
C595 C594 1.404 . S
C595 H607 0.930 . S
C596 C592 1.524 . S
C596 H608 0.956 1_556 S
C596 H609 0.961 1_556 S
C596 H610 0.961 . S
C597 C594 1.539 . S
C597 H611 0.958 . S
C597 H612 0.961 . S
C597 H613 0.960 . S
H598 C582 0.931 . S
H599 C587 0.929 . S
H600 C588 0.948 1_556 S
H601 C588 0.962 . S
H602 C588 0.960 . S
H603 C589 0.961 1_565 S
H604 C589 0.961 1_566 S
H605 C589 0.961 . S
H606 C590 0.931 . S
H607 C595 0.930 . S
H608 C596 0.956 1_554 S
H609 C596 0.961 1_554 S
H610 C596 0.961 . S
H611 C597 0.958 . S
H612 C597 0.961 . S
H613 C597 0.960 . S
C614 C615 1.391 . S
C614 C616 1.394 . S
C614 H630 0.931 . S
C615 C614 1.391 . S
C615 C619 1.376 . S
C616 C614 1.394 . S
C616 C617 1.369 . S
C616 C620 1.531 . S
C617 C616 1.369 . S
C617 C618 1.410 . S
C617 C625 1.503 . S
C618 C617 1.410 . S
C618 C619 1.392 . S
C618 C621 1.511 . S
C619 C615 1.376 . S
C619 C618 1.392 . S
C619 H631 0.929 . S
C620 C616 1.531 . S
C620 H632 0.960 . S
C620 H633 0.962 . S
C620 H634 0.960 . S
C621 C618 1.511 . S
C621 H635 0.961 . S
C621 H636 0.961 . S
C621 H637 0.961 . S
C622 C623 1.370 . S
C622 C624 1.363 . S
C622 H638 0.931 . S
C623 C622 1.370 . S
C623 C627 1.408 . S
C624 C622 1.363 . S
C624 C625 1.370 . S
C624 C628 1.524 . S
C625 C617 1.503 . S
C625 C624 1.370 . S
C625 C626 1.403 . S
C626 C625 1.403 . S
C626 C627 1.404 . S
C626 C629 1.539 . S
C627 C623 1.408 . S
C627 C626 1.404 . S
C627 H639 0.930 . S
C628 C624 1.524 . S
C628 H640 0.956 . S
C628 H641 0.961 . S
C628 H642 0.961 . S
C629 C626 1.539 . S
C629 H643 0.958 . S
C629 H644 0.961 . S
C629 H645 0.960 . S
H630 C614 0.931 . S
H631 C619 0.929 . S
H632 C620 0.960 . S
H633 C620 0.962 . S
H634 C620 0.960 . S
H635 C621 0.961 . S
H636 C621 0.961 . S
H637 C621 0.961 . S
H638 C622 0.931 . S
H639 C627 0.930 . S
H640 C628 0.956 . S
H641 C628 0.961 . S
H642 C628 0.961 . S
H643 C629 0.958 . S
H644 C629 0.961 . S
H645 C629 0.960 . S
C646 C647 1.391 . S
C646 C648 1.394 . S
C646 H662 0.931 . S
C647 C646 1.391 . S
C647 C651 1.376 . S
C648 C646 1.394 . S
C648 C649 1.369 . S
C648 C652 1.531 . S
C649 C648 1.369 . S
C649 C650 1.410 . S
C649 C657 1.503 . S
C650 C649 1.410 . S
C650 C651 1.392 . S
C650 C653 1.511 . S
C651 C647 1.376 . S
C651 C650 1.392 . S
C651 H663 0.929 . S
C652 C648 1.531 . S
C652 H664 0.960 . S
C652 H665 0.962 . S
C652 H666 0.960 . S
C653 C650 1.511 . S
C653 H667 0.961 . S
C653 H668 0.961 . S
C653 H669 0.961 . S
C654 C655 1.370 . S
C654 C656 1.363 . S
C654 H670 0.931 . S
C655 C654 1.370 . S
C655 C659 1.408 . S
C656 C654 1.363 . S
C656 C657 1.370 . S
C656 C660 1.524 . S
C657 C649 1.503 . S
C657 C656 1.370 . S
C657 C658 1.403 . S
C658 C657 1.403 . S
C658 C659 1.404 . S
C658 C661 1.539 . S
C659 C655 1.408 . S
C659 C658 1.404 . S
C659 H671 0.930 . S
C660 C656 1.524 . S
C660 H672 0.956 . S
C660 H673 0.961 . S
C660 H674 0.961 . S
C661 C658 1.539 . S
C661 H675 0.958 . S
C661 H676 0.961 . S
C661 H677 0.960 . S
H662 C646 0.931 . S
H663 C651 0.929 . S
H664 C652 0.960 . S
H665 C652 0.962 . S
H666 C652 0.960 . S
H667 C653 0.961 . S
H668 C653 0.961 . S
H669 C653 0.961 . S
H670 C654 0.931 . S
H671 C659 0.930 . S
H672 C660 0.956 . S
H673 C660 0.961 . S
H674 C660 0.961 . S
H675 C661 0.958 . S
H676 C661 0.961 . S
H677 C661 0.960 . S
C199 C18 1.984 . S
C207 C117 2.010 . S
C231 C7 1.572 . S
C239 C120 1.549 . S
C263 C106 1.572 . S
C271 C21 1.549 . S
C295 C40 1.575 . S
C303 C153 1.546 . S
C327 C150 1.988 . S
C335 C51 2.009 . S
C359 C54 1.568 . S
C367 C139 1.561 . S
C391 C84 1.983 . S
C399 C183 2.010 . S
C423 C73 1.549 . S
C431 C186 1.558 . S
C455 C172 1.554 . S
C463 C87 1.555 . S
C487 N35 2.217 1_455 S
C495 N2 2.213 . S
C519 N101 2.193 . S
C527 N68 2.215 . S
C551 N167 2.221 . S
C559 N134 2.209 . S
C583 N13 0.741 . S
C591 N46 0.651 1_655 S
C615 N112 0.722 . S
C623 N79 0.698 . S
C647 N178 0.766 . S
C655 N145 0.671 . S
