# Generated by pormake.
# Topology smw, (6)-cn, num edge types: 1
# Building blocks:
#     Node 0, Type 0, BuildingBlock: OJICUG_clean_sbu_0, # of connection points: 6
#     Node 1, Type 0, BuildingBlock: OJICUG_clean_sbu_0, # of connection points: 6
#     Node 2, Type 0, BuildingBlock: OJICUG_clean_sbu_0, # of connection points: 6
#     Node 3, Type 0, BuildingBlock: OJICUG_clean_sbu_0, # of connection points: 6
#     Node 4, Type 0, BuildingBlock: OJICUG_clean_sbu_0, # of connection points: 6
#     Node 5, Type 0, BuildingBlock: OJICUG_clean_sbu_0, # of connection points: 6
#     Node 6, Type 0, BuildingBlock: OJICUG_clean_sbu_0, # of connection points: 6
#     Node 7, Type 0, BuildingBlock: OJICUG_clean_sbu_0, # of connection points: 6
#     Node 8, Type 0, BuildingBlock: OJICUG_clean_sbu_0, # of connection points: 6
#     Node 9, Type 0, BuildingBlock: OJICUG_clean_sbu_0, # of connection points: 6
#     Node 10, Type 0, BuildingBlock: OJICUG_clean_sbu_0, # of connection points: 6
#     Node 11, Type 0, BuildingBlock: OJICUG_clean_sbu_0, # of connection points: 6
#     Edge 12, Type (0, 0), BuildingBlock: KIFKEQ_clean_linker_1, # of connection points: 2
#     Edge 13, Type (0, 0), BuildingBlock: KIFKEQ_clean_linker_1, # of connection points: 2
#     Edge 14, Type (0, 0), BuildingBlock: KIFKEQ_clean_linker_1, # of connection points: 2
#     Edge 15, Type (0, 0), BuildingBlock: KIFKEQ_clean_linker_1, # of connection points: 2
#     Edge 16, Type (0, 0), BuildingBlock: KIFKEQ_clean_linker_1, # of connection points: 2
#     Edge 17, Type (0, 0), BuildingBlock: KIFKEQ_clean_linker_1, # of connection points: 2
#     Edge 18, Type (0, 0), BuildingBlock: KIFKEQ_clean_linker_1, # of connection points: 2
#     Edge 19, Type (0, 0), BuildingBlock: KIFKEQ_clean_linker_1, # of connection points: 2
#     Edge 20, Type (0, 0), BuildingBlock: KIFKEQ_clean_linker_1, # of connection points: 2
#     Edge 21, Type (0, 0), BuildingBlock: KIFKEQ_clean_linker_1, # of connection points: 2
#     Edge 22, Type (0, 0), BuildingBlock: KIFKEQ_clean_linker_1, # of connection points: 2
#     Edge 23, Type (0, 0), BuildingBlock: KIFKEQ_clean_linker_1, # of connection points: 2
#     Edge 24, Type (0, 0), BuildingBlock: KIFKEQ_clean_linker_1, # of connection points: 2
#     Edge 25, Type (0, 0), BuildingBlock: KIFKEQ_clean_linker_1, # of connection points: 2
#     Edge 26, Type (0, 0), BuildingBlock: KIFKEQ_clean_linker_1, # of connection points: 2
#     Edge 27, Type (0, 0), BuildingBlock: KIFKEQ_clean_linker_1, # of connection points: 2
#     Edge 28, Type (0, 0), BuildingBlock: KIFKEQ_clean_linker_1, # of connection points: 2
#     Edge 29, Type (0, 0), BuildingBlock: KIFKEQ_clean_linker_1, # of connection points: 2
#     Edge 30, Type (0, 0), BuildingBlock: KIFKEQ_clean_linker_1, # of connection points: 2
#     Edge 31, Type (0, 0), BuildingBlock: KIFKEQ_clean_linker_1, # of connection points: 2
#     Edge 32, Type (0, 0), BuildingBlock: KIFKEQ_clean_linker_1, # of connection points: 2
#     Edge 33, Type (0, 0), BuildingBlock: KIFKEQ_clean_linker_1, # of connection points: 2
#     Edge 34, Type (0, 0), BuildingBlock: KIFKEQ_clean_linker_1, # of connection points: 2
#     Edge 35, Type (0, 0), BuildingBlock: KIFKEQ_clean_linker_1, # of connection points: 2
#     Edge 36, Type (0, 0), BuildingBlock: KIFKEQ_clean_linker_1, # of connection points: 2
#     Edge 37, Type (0, 0), BuildingBlock: KIFKEQ_clean_linker_1, # of connection points: 2
#     Edge 38, Type (0, 0), BuildingBlock: KIFKEQ_clean_linker_1, # of connection points: 2
#     Edge 39, Type (0, 0), BuildingBlock: KIFKEQ_clean_linker_1, # of connection points: 2
#     Edge 40, Type (0, 0), BuildingBlock: KIFKEQ_clean_linker_1, # of connection points: 2
#     Edge 41, Type (0, 0), BuildingBlock: KIFKEQ_clean_linker_1, # of connection points: 2
#     Edge 42, Type (0, 0), BuildingBlock: KIFKEQ_clean_linker_1, # of connection points: 2
#     Edge 43, Type (0, 0), BuildingBlock: KIFKEQ_clean_linker_1, # of connection points: 2
#     Edge 44, Type (0, 0), BuildingBlock: KIFKEQ_clean_linker_1, # of connection points: 2
#     Edge 45, Type (0, 0), BuildingBlock: KIFKEQ_clean_linker_1, # of connection points: 2
#     Edge 46, Type (0, 0), BuildingBlock: KIFKEQ_clean_linker_1, # of connection points: 2
#     Edge 47, Type (0, 0), BuildingBlock: KIFKEQ_clean_linker_1, # of connection points: 2
# Relax obj value: 0.103
# Max RMSD: 0.108
# Mean RMSD: 0.108
data_MOF--net-smw--node1-OJICUG_clean_sbu_0--edge1-KIFKEQ_clean_linker_1
_symmetry_space_group_name_H-M    P1
_symmetry_Int_Tables_number       1
_symmetry_cell_setting            triclinic
loop_
_symmetry_equiv_pos_as_xyz
'x, y, z'
_cell_length_a     55.917599
_cell_length_b     55.881569
_cell_length_c     22.894256
_cell_angle_alpha  89.812527
_cell_angle_beta   89.692095
_cell_angle_gamma 119.74316
loop_
_atom_site_label
_atom_site_type_symbol
_atom_site_fract_x
_atom_site_fract_y
_atom_site_fract_z
_atom_type_partial_charge
Sc0 Sc 0.48836 0.15738 -0.0117 0.0
Sc1 Sc 0.41544 0.11541 -0.0136 0.0
Sc2 Sc 0.45769 0.08557 -0.00285 0.0
O3 O 0.45381 0.11955 -0.00949 0.0
C4 C 0.50539 0.12164 0.90724 0.0
C5 C 0.44986 0.16357 0.89413 0.0
C6 C 0.40683 0.06453 0.91012 0.0
C7 C 0.44759 0.16822 0.0674 0.0
C8 C 0.50594 0.12685 0.0811 0.0
C9 C 0.40816 0.07175 0.08441 0.0
O10 O 0.5092 0.14456 0.92677 0.0
O11 O 0.42734 0.14436 0.91513 0.0
O12 O 0.42629 0.06313 0.93497 0.0
O13 O 0.47142 0.17439 0.04877 0.0
O14 O 0.48975 0.1033 0.06025 0.0
O15 O 0.39968 0.08612 0.05784 0.0
O16 O 0.50724 0.1488 0.06169 0.0
O17 O 0.42563 0.14741 0.04969 0.0
O18 O 0.42906 0.07016 0.06813 0.0
O19 O 0.4733 0.1703 0.91553 0.0
O20 O 0.48679 0.0985 0.9268 0.0
O21 O 0.40049 0.08283 0.92247 0.0
Sc22 Sc 0.33087 0.48119 0.98294 0.0
Sc23 Sc 0.29159 0.40859 -0.01175 0.0
Sc24 Sc 0.36431 0.44209 -0.00855 0.0
O25 O 0.3289 0.4439 -0.0124 0.0
C26 C 0.38106 0.49093 0.90015 0.0
C27 C 0.28264 0.44566 0.89413 0.0
C28 C 0.32733 0.39155 0.90831 0.0
C29 C 0.27949 0.44788 0.06839 0.0
C30 C 0.37806 0.49306 0.0747 0.0
C31 C 0.32526 0.39388 0.07899 0.0
O32 O 0.36308 0.49676 0.91826 0.0
O33 O 0.27613 0.42259 0.91782 0.0
O34 O 0.35032 0.40981 0.9284 0.0
O35 O 0.29867 0.47009 0.04649 0.0
O36 O 0.38215 0.47393 0.05632 0.0
O37 O 0.30266 0.39037 0.05868 0.0
O38 O 0.35996 0.4979 0.05321 0.0
O39 O 0.27479 0.42417 0.05258 0.0
O40 O 0.34875 0.41196 0.05991 0.0
O41 O 0.30214 0.46842 0.91235 0.0
O42 O 0.38397 0.47161 0.92194 0.0
O43 O 0.30433 0.38895 0.92407 0.0
Sc44 Sc 0.85126 0.32166 0.97966 0.0
Sc45 Sc 0.89158 0.28912 0.98548 0.0
Sc46 Sc 0.92286 0.36142 0.98582 0.0
O47 O 0.88853 0.32397 0.98348 0.0
C48 C 0.88801 0.37169 0.8918 0.0
C49 C 0.8437 0.27414 0.89302 0.0
C50 C 0.94335 0.32717 0.90885 0.0
C51 C 0.83963 0.27237 0.06717 0.0
C52 C 0.88163 0.37201 0.06463 0.0
C53 C 0.93583 0.32798 0.07902 0.0
O54 O 0.86529 0.3546 0.91612 0.0
O55 O 0.86117 0.26946 0.91834 0.0
O56 O 0.94621 0.34896 0.93233 0.0
O57 O 0.83306 0.28869 0.04261 0.0
O58 O 0.90492 0.37944 0.04119 0.0
O59 O 0.92231 0.30496 0.0533 0.0
O60 O 0.86002 0.34989 0.05084 0.0
O61 O 0.8609 0.271 0.05299 0.0
O62 O 0.93651 0.35005 0.06263 0.0
O63 O 0.83882 0.29313 0.90863 0.0
O64 O 0.91117 0.37517 0.90864 0.0
O65 O 0.92275 0.30349 0.91829 0.0
Sc66 Sc 0.50818 0.84006 0.98445 0.0
Sc67 Sc 0.58107 0.87815 0.986 0.0
Sc68 Sc 0.54268 0.91242 0.97561 0.0
O69 O 0.54401 0.87687 0.98203 0.0
C70 C 0.49355 0.87312 0.89112 0.0
C71 C 0.54635 0.8261 0.90426 0.0
C72 C 0.59274 0.92438 0.89083 0.0
C73 C 0.54509 0.83089 0.07833 0.0
C74 C 0.49363 0.87768 0.06548 0.0
C75 C 0.59331 0.93057 0.06151 0.0
O76 O 0.49006 0.8507 0.91319 0.0
O77 O 0.56885 0.84521 0.92446 0.0
O78 O 0.57341 0.92842 0.90812 0.0
O79 O 0.52206 0.82486 0.05569 0.0
O80 O 0.5123 0.90035 0.04397 0.0
O81 O 0.59824 0.91139 0.04821 0.0
O82 O 0.48946 0.85432 0.04803 0.0
O83 O 0.56801 0.84987 0.0585 0.0
O84 O 0.57386 0.93299 0.03942 0.0
O85 O 0.52289 0.82197 0.92108 0.0
O86 O 0.51155 0.8966 0.90958 0.0
O87 O 0.59797 0.90671 0.91356 0.0
Sc88 Sc 0.66163 0.51086 -0.0121 0.0
Sc89 Sc 0.70128 0.58365 0.98307 0.0
Sc90 Sc 0.62865 0.5504 0.98152 0.0
O91 O 0.6639 0.54836 0.98421 0.0
C92 C 0.6135 0.49898 0.89884 0.0
C93 C 0.71271 0.544 0.90193 0.0
C94 C 0.66728 0.59784 0.89184 0.0
C95 C 0.71071 0.54649 0.07582 0.0
C96 C 0.61236 0.5016 0.07314 0.0
C97 C 0.66611 0.60157 0.06239 0.0
O98 O 0.63137 0.49371 0.91994 0.0
O99 O 0.71821 0.56764 0.92007 0.0
O100 O 0.64391 0.58022 0.9124 0.0
O101 O 0.69157 0.52372 0.05656 0.0
O102 O 0.60963 0.52117 0.05203 0.0
O103 O 0.6891 0.60429 0.04625 0.0
O104 O 0.63006 0.49552 0.05409 0.0
O105 O 0.71652 0.56973 0.05398 0.0
O106 O 0.64307 0.5829 0.04362 0.0
O107 O 0.69278 0.52172 0.92175 0.0
O108 O 0.61019 0.51861 0.91693 0.0
O109 O 0.69001 0.60129 0.91141 0.0
Sc110 Sc 0.1446 0.67472 -0.00966 0.0
Sc111 Sc 0.10437 0.7074 0.9828 0.0
Sc112 Sc 0.07239 0.63487 -0.00749 0.0
O113 O 0.1071 0.67237 -0.01134 0.0
C114 C 0.1109 0.62201 0.91061 0.0
C115 C 0.15387 0.72013 0.89515 0.0
C116 C 0.05561 0.66637 0.9 0.0
C117 C 0.15531 0.7263 0.0681 0.0
C118 C 0.11104 0.62767 0.08471 0.0
C119 C 0.05559 0.67119 0.07119 0.0
O120 O 0.13322 0.64188 0.92933 0.0
O121 O 0.13475 0.72416 0.91408 0.0
O122 O 0.05322 0.64463 0.92317 0.0
O123 O 0.16092 0.70808 0.05078 0.0
O124 O 0.08757 0.62116 0.06392 0.0
O125 O 0.07359 0.69445 0.05087 0.0
O126 O 0.13349 0.64665 0.06304 0.0
O127 O 0.13514 0.72839 0.04886 0.0
O128 O 0.05306 0.6484 0.05467 0.0
O129 O 0.15959 0.70286 0.91799 0.0
O130 O 0.08736 0.61706 0.92882 0.0
O131 O 0.07331 0.69055 0.91578 0.0
Sc132 Sc 0.91635 0.54087 0.4788 0.0
Sc133 Sc 0.87935 0.57671 0.48519 0.0
Sc134 Sc 0.84379 0.50393 0.48308 0.0
O135 O 0.87984 0.54052 0.4823 0.0
C136 C 0.87942 0.49198 0.39107 0.0
C137 C 0.92879 0.59166 0.39621 0.0
C138 C 0.82938 0.54114 0.40014 0.0
C139 C 0.92994 0.58986 0.56749 0.0
C140 C 0.88166 0.49047 0.56556 0.0
C141 C 0.83085 0.539 0.5741 0.0
O142 O 0.9025 0.51013 0.41128 0.0
O143 O 0.91014 0.59573 0.41773 0.0
O144 O 0.82509 0.51796 0.41945 0.0
O145 O 0.9346 0.57183 0.54487 0.0
O146 O 0.85833 0.48551 0.54646 0.0
O147 O 0.8486 0.56213 0.55277 0.0
O148 O 0.90427 0.51005 0.54608 0.0
O149 O 0.91018 0.59351 0.55212 0.0
O150 O 0.82705 0.51612 0.55455 0.0
O151 O 0.93286 0.57224 0.4126 0.0
O152 O 0.85651 0.48772 0.4118 0.0
O153 O 0.84846 0.564 0.41901 0.0
Sc154 Sc 0.36603 0.91919 0.48884 0.0
Sc155 Sc 0.29428 0.89044 0.48561 0.0
Sc156 Sc 0.32443 0.84792 0.47945 0.0
O157 O 0.32811 0.88577 0.48436 0.0
C158 C 0.37537 0.88451 0.39307 0.0
C159 C 0.33407 0.94252 0.41262 0.0
C160 C 0.27824 0.84264 0.39191 0.0
C161 C 0.33311 0.93245 0.58273 0.0
C162 C 0.3745 0.87589 0.56489 0.0
C163 C 0.27486 0.83737 0.56512 0.0
O164 O 0.37924 0.9078 0.41036 0.0
O165 O 0.31017 0.92195 0.4195 0.0
O166 O 0.29646 0.83675 0.40785 0.0
O167 O 0.35465 0.93175 0.56745 0.0
O168 O 0.35173 0.855 0.55148 0.0
O169 O 0.2747 0.85936 0.55179 0.0
O170 O 0.38292 0.89942 0.54176 0.0
O171 O 0.31062 0.92088 0.55449 0.0
O172 O 0.29077 0.83013 0.5409 0.0
O173 O 0.35521 0.94465 0.43774 0.0
O174 O 0.35792 0.86177 0.41695 0.0
O175 O 0.27441 0.86074 0.4171 0.0
Sc176 Sc 0.4401 0.36783 0.49135 0.0
Sc177 Sc 0.4042 0.29507 0.48753 0.0
Sc178 Sc 0.47695 0.33199 0.48498 0.0
O179 O 0.44036 0.33161 0.48797 0.0
C180 C 0.4897 0.3831 0.40235 0.0
C181 C 0.3896 0.33263 0.40731 0.0
C182 C 0.44068 0.28445 0.3949 0.0
C183 C 0.39068 0.32978 0.5779 0.0
C184 C 0.48981 0.37961 0.57649 0.0
C185 C 0.44144 0.28056 0.56871 0.0
O186 O 0.47062 0.38676 0.42296 0.0
O187 O 0.38564 0.30925 0.42412 0.0
O188 O 0.46362 0.30276 0.41518 0.0
O189 O 0.40912 0.35302 0.5583 0.0
O190 O 0.49427 0.36132 0.55453 0.0
O191 O 0.41821 0.2765 0.55122 0.0
O192 O 0.47104 0.38426 0.55826 0.0
O193 O 0.38678 0.30687 0.55843 0.0
O194 O 0.46418 0.29974 0.54882 0.0
O195 O 0.40877 0.35532 0.42661 0.0
O196 O 0.4943 0.3643 0.42066 0.0
O197 O 0.41758 0.27937 0.41625 0.0
Sc198 Sc 0.08115 0.45823 0.49694 0.0
Sc199 Sc 0.11549 0.42011 0.48446 0.0
Sc200 Sc 0.15343 0.49313 0.48978 0.0
O201 O 0.11674 0.45715 0.49029 0.0
C202 C 0.11624 0.50852 0.41025 0.0
C203 C 0.06381 0.40892 0.40748 0.0
C204 C 0.16288 0.45724 0.39357 0.0
C205 C 0.06976 0.40789 0.58064 0.0
C206 C 0.11953 0.50586 0.58475 0.0
C207 C 0.16719 0.45422 0.56748 0.0
O208 O 0.09344 0.48954 0.4306 0.0
O209 O 0.08251 0.40352 0.42209 0.0
O210 O 0.16905 0.48008 0.41755 0.0
O211 O 0.06573 0.42728 0.56386 0.0
O212 O 0.14222 0.51036 0.56217 0.0
O213 O 0.14831 0.43186 0.54614 0.0
O214 O 0.0963 0.488 0.56523 0.0
O215 O 0.08682 0.40229 0.55617 0.0
O216 O 0.17119 0.4778 0.55205 0.0
O217 O 0.06129 0.42818 0.4304 0.0
O218 O 0.13948 0.51248 0.42766 0.0
O219 O 0.14382 0.43414 0.41237 0.0
Sc220 Sc 0.62947 0.07745 0.4878 0.0
Sc221 Sc 0.70111 0.1041 0.48285 0.0
Sc222 Sc 0.67334 0.1486 0.49168 0.0
O223 O 0.66808 0.11007 0.48751 0.0
C224 C 0.62202 0.12102 0.40957 0.0
C225 C 0.65881 0.06064 0.39155 0.0
C226 C 0.72047 0.15644 0.40127 0.0
C227 C 0.66159 0.05408 0.56323 0.0
C228 C 0.62373 0.11497 0.58211 0.0
C229 C 0.7201 0.15277 0.57565 0.0
O230 O 0.6132 0.09748 0.43323 0.0
O231 O 0.68239 0.07302 0.41558 0.0
O232 O 0.70581 0.1647 0.42737 0.0
O233 O 0.63999 0.05241 0.5414 0.0
O234 O 0.64133 0.13711 0.55671 0.0
O235 O 0.72337 0.13452 0.54938 0.0
O236 O 0.61853 0.0912 0.56546 0.0
O237 O 0.68566 0.07333 0.55067 0.0
O238 O 0.70201 0.15906 0.56123 0.0
O239 O 0.63805 0.06183 0.41059 0.0
O240 O 0.6451 0.14166 0.42216 0.0
O241 O 0.72006 0.13416 0.41451 0.0
Sc242 Sc 0.55074 0.62446 0.47944 0.0
Sc243 Sc 0.5878 0.69707 0.48371 0.0
Sc244 Sc 0.51514 0.66112 0.48974 0.0
O245 O 0.55127 0.66095 0.48445 0.0
C246 C 0.49891 0.61246 0.40061 0.0
C247 C 0.59709 0.6612 0.38752 0.0
C248 C 0.55063 0.71223 0.40444 0.0
C249 C 0.60353 0.65974 0.55957 0.0
C250 C 0.50443 0.61071 0.574 0.0
C251 C 0.55242 0.70835 0.57867 0.0
O252 O 0.51612 0.60621 0.42145 0.0
O253 O 0.60476 0.68385 0.41387 0.0
O254 O 0.52806 0.69443 0.42793 0.0
O255 O 0.58555 0.63755 0.53598 0.0
O256 O 0.49824 0.628 0.55285 0.0
O257 O 0.57509 0.71438 0.55347 0.0
O258 O 0.52407 0.60769 0.55433 0.0
O259 O 0.60571 0.68304 0.54873 0.0
O260 O 0.52928 0.68904 0.56169 0.0
O261 O 0.57691 0.63834 0.40421 0.0
O262 O 0.49715 0.63308 0.418 0.0
O263 O 0.57382 0.71496 0.41843 0.0
H264 H 0.40439 0.15576 0.14157 0.0
H265 H 0.48599 0.22096 0.09438 0.0
H266 H 0.40218 0.18439 0.21912 0.0
H267 H 0.48339 0.24989 0.17026 0.0
H268 H 0.48414 0.2799 0.35429 0.0
H269 H 0.48483 0.25219 0.2737 0.0
H270 H 0.39908 0.22477 0.23995 0.0
H271 H 0.39811 0.25187 0.32231 0.0
C272 C 0.4217 0.17633 0.14728 0.0
C273 C 0.44547 0.18601 0.11225 0.0
C274 C 0.42038 0.19279 0.19151 0.0
C275 C 0.44269 0.21937 0.20117 0.0
C276 C 0.46609 0.2293 0.16488 0.0
C277 C 0.46754 0.21275 0.12119 0.0
C278 C 0.46542 0.26805 0.32962 0.0
C279 C 0.44105 0.26806 0.34477 0.0
C280 C 0.46587 0.25227 0.28311 0.0
C281 C 0.44205 0.23636 0.25014 0.0
C282 C 0.41769 0.23652 0.26496 0.0
C283 C 0.41717 0.25213 0.31197 0.0
H284 H 0.21386 0.49784 0.35814 0.0
H285 H 0.14821 0.41654 0.31333 0.0
H286 H 0.24175 0.49595 0.27803 0.0
H287 H 0.17564 0.41505 0.23223 0.0
H288 H 0.24402 0.40712 0.14247 0.0
H289 H 0.21553 0.41038 0.21903 0.0
H290 H 0.24595 0.4959 0.17367 0.0
H291 H 0.27518 0.49291 0.09824 0.0
C292 C 0.20525 0.47975 0.33067 0.0
C293 C 0.17898 0.45723 0.34237 0.0
C294 C 0.22117 0.47871 0.28464 0.0
C295 C 0.211 0.45524 0.24909 0.0
C296 C 0.18433 0.43315 0.25963 0.0
C297 C 0.16855 0.43407 0.30594 0.0
C298 C 0.2446 0.42661 0.14871 0.0
C299 C 0.26188 0.44975 0.11431 0.0
C300 C 0.22813 0.42844 0.19239 0.0
C301 C 0.22838 0.45338 0.20227 0.0
C302 C 0.24556 0.47649 0.16767 0.0
C303 C 0.26222 0.47473 0.12429 0.0
H304 H 0.85014 0.24045 0.14186 0.0
H305 H 0.78916 0.26406 0.10112 0.0
H306 H 0.82164 0.21244 0.22312 0.0
H307 H 0.76047 0.23552 0.18142 0.0
H308 H 0.74963 0.14309 0.32457 0.0
H309 H 0.77817 0.17057 0.24282 0.0
H310 H 0.76103 0.23571 0.28727 0.0
H311 H 0.73198 0.20808 0.36806 0.0
C312 C 0.83057 0.23949 0.14987 0.0
C313 C 0.82196 0.25457 0.11512 0.0
C314 C 0.81421 0.22335 0.19629 0.0
C315 C 0.78889 0.22188 0.20871 0.0
C316 C 0.78011 0.23664 0.17349 0.0
C317 C 0.7965 0.25287 0.12728 0.0
C318 C 0.75199 0.1633 0.31702 0.0
C319 C 0.73846 0.17336 0.35276 0.0
C320 C 0.76844 0.17907 0.27032 0.0
C321 C 0.77175 0.20523 0.25858 0.0
C322 C 0.75848 0.21541 0.29466 0.0
C323 C 0.74196 0.19962 0.34117 0.0
H324 H 0.59157 0.7451 0.3276 0.0
H325 H 0.5078 0.72067 0.3775 0.0
H326 H 0.5898 0.77426 0.25064 0.0
H327 H 0.50637 0.75057 0.30177 0.0
H328 H 0.50333 0.78141 0.11797 0.0
H329 H 0.50473 0.75337 0.19791 0.0
H330 H 0.58855 0.81586 0.23462 0.0
H331 H 0.58748 0.84349 0.15342 0.0
C332 C 0.57287 0.74615 0.32255 0.0
C333 C 0.54981 0.73049 0.3586 0.0
C334 C 0.57191 0.76301 0.27861 0.0
C335 C 0.54795 0.76479 0.27006 0.0
C336 C 0.52499 0.74935 0.30656 0.0
C337 C 0.52587 0.7323 0.35017 0.0
C338 C 0.52202 0.78924 0.14328 0.0
C339 C 0.54535 0.81461 0.12907 0.0
C340 C 0.52278 0.77321 0.18933 0.0
C341 C 0.5468 0.78231 0.22255 0.0
C342 C 0.5699 0.80799 0.20919 0.0
C343 C 0.56923 0.8239 0.16282 0.0
H344 H 0.6982 0.50391 0.15167 0.0
H345 H 0.76098 0.58755 0.11117 0.0
H346 H 0.72607 0.50259 0.23159 0.0
H347 H 0.78929 0.58588 0.18951 0.0
H348 H 0.82212 0.58419 0.36842 0.0
H349 H 0.7925 0.58527 0.29243 0.0
H350 H 0.76692 0.50066 0.24953 0.0
H351 H 0.7958 0.49928 0.32723 0.0
C352 C 0.71802 0.52196 0.15963 0.0
C353 C 0.72737 0.54584 0.12508 0.0
C354 C 0.73408 0.52115 0.20524 0.0
C355 C 0.75998 0.5441 0.21695 0.0
C356 C 0.76925 0.56799 0.18243 0.0
C357 C 0.75307 0.56891 0.13726 0.0
C358 C 0.81017 0.5658 0.34279 0.0
C359 C 0.81134 0.54165 0.3538 0.0
C360 C 0.79327 0.56646 0.29897 0.0
C361 C 0.77739 0.54309 0.26462 0.0
C362 C 0.77854 0.51891 0.27573 0.0
C363 C 0.79521 0.51815 0.32007 0.0
H364 H 0.27196 0.79541 0.34394 0.0
H365 H 0.24371 0.85453 0.32905 0.0
H366 H 0.2421 0.76909 0.26467 0.0
H367 H 0.21426 0.82843 0.24775 0.0
H368 H 0.14321 0.75532 0.14795 0.0
H369 H 0.17317 0.78506 0.2253 0.0
H370 H 0.2389 0.77223 0.16189 0.0
H371 H 0.20886 0.74194 0.08673 0.0
C372 C 0.2596 0.80299 0.3233 0.0
C373 C 0.26032 0.82715 0.34269 0.0
C374 C 0.24254 0.78794 0.27754 0.0
C375 C 0.226 0.79681 0.24945 0.0
C376 C 0.2266 0.82094 0.26884 0.0
C377 C 0.24356 0.83595 0.31518 0.0
C378 C 0.16412 0.75905 0.15057 0.0
C379 C 0.17358 0.74599 0.11205 0.0
C380 C 0.1813 0.77615 0.1946 0.0
C381 C 0.20828 0.78066 0.20025 0.0
C382 C 0.218 0.76857 0.15982 0.0
C383 C 0.2008 0.75128 0.11658 0.0
H384 H 0.51182 0.69441 0.66009 0.0
H385 H 0.5935 0.75921 0.61213 0.0
H386 H 0.511 0.72195 0.74113 0.0
H387 H 0.5923 0.78723 0.69225 0.0
H388 H 0.59063 0.82073 0.87215 0.0
H389 H 0.59269 0.79131 0.7964 0.0
H390 H 0.50719 0.7621 0.75602 0.0
H391 H 0.50487 0.79076 0.83293 0.0
C392 C 0.52958 0.71461 0.6667 0.0
C393 C 0.55266 0.72472 0.62942 0.0
C394 C 0.52904 0.73046 0.71303 0.0
C395 C 0.55145 0.75692 0.72286 0.0
C396 C 0.5748 0.76682 0.68629 0.0
C397 C 0.57545 0.75082 0.6402 0.0
C398 C 0.57225 0.80797 0.84719 0.0
C399 C 0.54757 0.80806 0.85864 0.0
C400 C 0.57348 0.79121 0.80356 0.0
C401 C 0.55012 0.77434 0.77012 0.0
C402 C 0.52545 0.77445 0.78165 0.0
C403 C 0.52415 0.79102 0.82558 0.0
H404 H 0.70111 0.50058 0.83025 0.0
H405 H 0.76429 0.58385 0.86946 0.0
H406 H 0.72979 0.49878 0.7518 0.0
H407 H 0.79331 0.5817 0.7927 0.0
H408 H 0.82355 0.5814 0.60952 0.0
H409 H 0.795 0.58171 0.68918 0.0
H410 H 0.77114 0.49723 0.73107 0.0
H411 H 0.79912 0.49659 0.64954 0.0
C412 C 0.72123 0.51838 0.82251 0.0
C413 C 0.73035 0.54244 0.8557 0.0
C414 C 0.73773 0.5173 0.77778 0.0
C415 C 0.76378 0.54015 0.76577 0.0
C416 C 0.77311 0.56394 0.79995 0.0
C417 C 0.75651 0.56515 0.84414 0.0
C418 C 0.81229 0.56287 0.63575 0.0
C419 C 0.81364 0.53897 0.62326 0.0
C420 C 0.79602 0.56311 0.68171 0.0
C421 C 0.78093 0.53957 0.7168 0.0
C422 C 0.78227 0.51562 0.70442 0.0
C423 C 0.79838 0.51528 0.65791 0.0
H424 H 0.24529 0.84973 0.64251 0.0
H425 H 0.26134 0.78447 0.59181 0.0
H426 H 0.21512 0.82066 0.72068 0.0
H427 H 0.23055 0.75518 0.66891 0.0
H428 H 0.20214 0.72506 0.8552 0.0
H429 H 0.23035 0.75294 0.7739 0.0
H430 H 0.17125 0.77954 0.73845 0.0
H431 H 0.14328 0.7522 0.82107 0.0
C432 C 0.24217 0.82909 0.64765 0.0
C433 C 0.25583 0.81945 0.6112 0.0
C434 C 0.22476 0.81239 0.69223 0.0
C435 C 0.22052 0.78567 0.70097 0.0
C436 C 0.23378 0.77586 0.66384 0.0
C437 C 0.25134 0.79261 0.61954 0.0
C438 C 0.19507 0.73676 0.83001 0.0
C439 C 0.17051 0.73649 0.84471 0.0
C440 C 0.21118 0.75262 0.78318 0.0
C441 C 0.20298 0.76838 0.74975 0.0
C442 C 0.17827 0.76789 0.76397 0.0
C443 C 0.16222 0.75216 0.81113 0.0
H444 H 0.40018 0.2468 0.64404 0.0
H445 H 0.48443 0.27264 0.59558 0.0
H446 H 0.4022 0.21764 0.72095 0.0
H447 H 0.48612 0.24277 0.67084 0.0
H448 H 0.49037 0.21343 0.85401 0.0
H449 H 0.48782 0.24076 0.77421 0.0
H450 H 0.40451 0.17663 0.73877 0.0
H451 H 0.40671 0.14964 0.8202 0.0
C452 C 0.41902 0.24602 0.64942 0.0
C453 C 0.44221 0.26216 0.61406 0.0
C454 C 0.42014 0.22918 0.69325 0.0
C455 C 0.44436 0.22793 0.70216 0.0
C456 C 0.46733 0.24367 0.66592 0.0
C457 C 0.46632 0.26071 0.62261 0.0
C458 C 0.47155 0.20506 0.82903 0.0
C459 C 0.44871 0.1794 0.84357 0.0
C460 C 0.47013 0.22069 0.78303 0.0
C461 C 0.44596 0.21089 0.75006 0.0
C462 C 0.42327 0.18498 0.76393 0.0
C463 C 0.42459 0.16945 0.81038 0.0
H464 H 0.20156 0.49512 0.64096 0.0
H465 H 0.17311 0.41 0.59725 0.0
H466 H 0.22983 0.49243 0.71803 0.0
H467 H 0.20219 0.4076 0.67324 0.0
H468 H 0.23223 0.40497 0.85802 0.0
H469 H 0.20497 0.40689 0.77746 0.0
H470 H 0.27014 0.48909 0.73397 0.0
H471 H 0.29696 0.48754 0.81565 0.0
C472 C 0.20157 0.47591 0.64735 0.0
C473 C 0.18504 0.45276 0.61303 0.0
C474 C 0.21792 0.47442 0.69137 0.0
C475 C 0.21832 0.44981 0.70174 0.0
C476 C 0.20203 0.42674 0.66696 0.0
C477 C 0.18547 0.42816 0.62323 0.0
C478 C 0.24078 0.4234 0.83111 0.0
C479 C 0.26665 0.44619 0.84352 0.0
C480 C 0.22522 0.42445 0.78472 0.0
C481 C 0.23532 0.44819 0.74943 0.0
C482 C 0.26151 0.4707 0.76102 0.0
C483 C 0.27694 0.46976 0.80771 0.0
H484 H 0.81281 0.28345 0.81436 0.0
H485 H 0.8384 0.2245 0.86094 0.0
H486 H 0.78406 0.25304 0.73777 0.0
H487 H 0.8089 0.19363 0.78473 0.0
H488 H 0.77073 0.15895 0.6021 0.0
H489 H 0.80224 0.18821 0.67808 0.0
H490 H 0.74152 0.20955 0.73588 0.0
H491 H 0.71057 0.18113 0.65986 0.0
C492 C 0.81226 0.26396 0.80836 0.0
C493 C 0.82766 0.25627 0.84419 0.0
C494 C 0.79568 0.24647 0.7646 0.0
C495 C 0.79388 0.22075 0.7559 0.0
C496 C 0.80995 0.21337 0.79034 0.0
C497 C 0.82675 0.23101 0.83407 0.0
C498 C 0.76412 0.16976 0.6314 0.0
C499 C 0.73837 0.16808 0.62448 0.0
C500 C 0.78211 0.18645 0.67489 0.0
C501 C 0.77452 0.20155 0.71219 0.0
C502 C 0.74828 0.1988 0.70675 0.0
C503 C 0.73048 0.18237 0.66331 0.0
H504 H 0.30676 0.93868 0.31127 0.0
H505 H 0.37055 0.9967 0.42468 0.0
H506 H 0.32092 0.97464 0.23618 0.0
H507 H 0.38407 0.03265 0.35081 0.0
H508 H 0.43076 0.05898 0.17433 0.0
H509 H 0.40787 0.03143 0.25988 0.0
H510 H 0.33049 0.0228 0.20245 0.0
H511 H 0.35376 0.05081 0.11528 0.0
C512 C 0.32318 0.95932 0.32074 0.0
C513 C 0.33815 0.96487 0.37275 0.0
C514 C 0.33113 0.9799 0.27807 0.0
C515 C 0.35391 0.00619 0.28751 0.0
C516 C 0.3668 0.01237 0.34214 0.0
C517 C 0.35916 0.99181 0.3842 0.0
C518 C 0.4089 0.05142 0.17995 0.0
C519 C 0.39394 0.05674 0.13795 0.0
C520 C 0.39584 0.03591 0.22938 0.0
C521 C 0.36746 0.02521 0.23796 0.0
C522 C 0.35243 0.03094 0.1967 0.0
C523 C 0.3657 0.04692 0.14716 0.0
H524 H 0.3741 0.37131 0.39884 0.0
H525 H 0.36302 0.29663 0.3186 0.0
H526 H 0.34808 0.3771 0.32057 0.0
H527 H 0.33716 0.30274 0.23927 0.0
H528 H 0.35481 0.36793 0.08225 0.0
H529 H 0.36063 0.34398 0.16525 0.0
H530 H 0.30118 0.35554 0.2642 0.0
H531 H 0.29486 0.37914 0.17981 0.0
C532 C 0.36572 0.35592 0.36481 0.0
C533 C 0.37097 0.33384 0.3639 0.0
C534 C 0.35048 0.35901 0.32057 0.0
C535 C 0.34064 0.34032 0.27417 0.0
C536 C 0.34451 0.31732 0.2749 0.0
C537 C 0.35935 0.31392 0.31994 0.0
C538 C 0.34247 0.36468 0.12127 0.0
C539 C 0.32473 0.37559 0.12546 0.0
C540 C 0.34555 0.35073 0.16841 0.0
C541 C 0.33134 0.34798 0.22089 0.0
C542 C 0.31224 0.35739 0.22392 0.0
C543 C 0.30868 0.37086 0.176 0.0
H544 H 0.06233 0.36689 0.34242 0.0
H545 H 0.01944 0.41249 0.37116 0.0
H546 H 0.02873 0.33961 0.26764 0.0
H547 H 0.98659 0.38575 0.29676 0.0
H548 H 0.91965 0.32578 0.19063 0.0
H549 H 0.94922 0.33919 0.27655 0.0
H550 H 0.01732 0.34945 0.16828 0.0
H551 H 0.98729 0.33523 0.08282 0.0
C552 C 0.04576 0.37104 0.33303 0.0
C553 C 0.04365 0.39194 0.36265 0.0
C554 C 0.02658 0.35543 0.29032 0.0
C555 C 0.00489 0.36035 0.27694 0.0
C556 C 0.00268 0.38101 0.30704 0.0
C557 C 0.02178 0.39659 0.34932 0.0
C558 C 0.9407 0.33 0.18597 0.0
C559 C 0.95144 0.32955 0.13095 0.0
C560 C 0.95764 0.33784 0.23476 0.0
C561 C 0.98565 0.34577 0.22882 0.0
C562 C 0.99578 0.34327 0.17419 0.0
C563 C 0.97872 0.33524 0.1254 0.0
H564 H 0.60963 0.98463 0.05564 0.0
H565 H 0.61715 0.92439 0.16064 0.0
H566 H 0.6324 0.01902 0.131 0.0
H567 H 0.63948 0.95894 0.2376 0.0
H568 H 0.6891 0.03693 0.35388 0.0
H569 H 0.67969 0.00713 0.26828 0.0
H570 H 0.61004 0.01737 0.22642 0.0
H571 H 0.61931 0.0468 0.31025 0.0
C572 C 0.61648 0.97889 0.09474 0.0
C573 C 0.61111 0.95179 0.10324 0.0
C574 C 0.62956 -0.00144 0.1377 0.0
C575 C 0.63714 0.99142 0.19045 0.0
C576 C 0.63383 0.96491 0.19718 0.0
C577 C 0.62097 0.94517 0.15349 0.0
C578 C 0.67201 0.03298 0.32582 0.0
C579 C 0.65487 0.04408 0.33879 0.0
C580 C 0.66659 0.01589 0.27723 0.0
C581 C 0.64432 0.01021 0.24064 0.0
C582 C 0.62764 0.02177 0.25329 0.0
C583 C 0.63282 0.03845 0.30171 0.0
H584 H 0.63824 0.62868 0.04742 0.0
H585 H 0.692 0.61884 0.16757 0.0
H586 H 0.62737 0.65295 0.12183 0.0
H587 H 0.68046 0.64263 0.24329 0.0
H588 H 0.65247 0.69129 0.36363 0.0
H589 H 0.6765 0.6859 0.27847 0.0
H590 H 0.59815 0.62499 0.20839 0.0
H591 H 0.57456 0.63008 0.2925 0.0
C592 C 0.64824 0.63239 0.0895 0.0
C593 C 0.66544 0.62154 0.10263 0.0
C594 C 0.6421 0.64631 0.13186 0.0
C595 C 0.65269 0.64914 0.18839 0.0
C596 C 0.67214 0.64076 0.19986 0.0
C597 C 0.67861 0.62706 0.15687 0.0
C598 C 0.64055 0.67716 0.32928 0.0
C599 C 0.61177 0.66095 0.33441 0.0
C600 C 0.65423 0.67404 0.28098 0.0
C601 C 0.63912 0.65523 0.23689 0.0
C602 C 0.61028 0.63997 0.24128 0.0
C603 C 0.59678 0.64269 0.28963 0.0
H604 H 0.98277 0.60814 0.38164 0.0
H605 H 0.91711 0.61899 0.31181 0.0
H606 H 0.01356 0.63747 0.30439 0.0
H607 H 0.94805 0.64807 0.23312 0.0
H608 H 0.00042 0.63986 0.06943 0.0
H609 H 0.9689 0.62923 0.152 0.0
H610 H 0.03618 0.6878 0.25767 0.0
H611 H 0.06774 0.699 0.17394 0.0
C612 C 0.97504 0.61704 0.34995 0.0
C613 C 0.94752 0.61101 0.35187 0.0
C614 C 0.99276 0.63415 0.30639 0.0
C615 C 0.98314 0.64513 0.26336 0.0
C616 C 0.95589 0.63996 0.26632 0.0
C617 C 0.93825 0.62328 0.3109 0.0
C618 C 0.00819 0.65113 0.10977 0.0
C619 C 0.03633 0.66997 0.11609 0.0
C620 C 0.99019 0.64525 0.15672 0.0
C621 C 0.00025 0.65768 0.21094 0.0
C622 C 0.02806 0.67809 0.21601 0.0
C623 C 0.04602 0.68446 0.16843 0.0
H624 H 0.6202 0.00093 0.56877 0.0
H625 H 0.69516 0.05964 0.65457 0.0
H626 H 0.61086 0.96765 0.64705 0.0
H627 H 0.68543 0.02629 0.73367 0.0
H628 H 0.618 0.97965 0.88742 0.0
H629 H 0.64222 0.00982 0.80467 0.0
H630 H 0.63061 0.93946 0.7048 0.0
H631 H 0.60692 0.90917 0.78901 0.0
C632 C 0.63489 0.00652 0.60394 0.0
C633 C 0.65817 0.03296 0.60624 0.0
C634 C 0.6297 0.98738 0.64826 0.0
C635 C 0.64747 0.99451 0.69608 0.0
C636 C 0.67153 0.02039 0.69695 0.0
C637 C 0.67702 0.03941 0.65192 0.0
C638 C 0.62126 0.97079 0.84821 0.0
C639 C 0.61057 0.94227 0.8439 0.0
C640 C 0.63529 0.98801 0.80121 0.0
C641 C 0.63827 0.97688 0.74869 0.0
C642 C 0.62863 0.94842 0.74515 0.0
C643 C 0.61515 0.9312 0.79297 0.0
H644 H 0.63781 0.62388 0.88716 0.0
H645 H 0.69653 0.61085 0.78938 0.0
H646 H 0.63133 0.64673 0.80295 0.0
H647 H 0.68958 0.63339 0.7038 0.0
H648 H 0.61867 0.62051 0.56685 0.0
H649 H 0.64355 0.61345 0.64587 0.0
H650 H 0.65476 0.6874 0.72957 0.0
H651 H 0.62996 0.69472 0.64996 0.0
C652 C 0.64974 0.62647 0.84778 0.0
C653 C 0.66743 0.61547 0.84414 0.0
C654 C 0.64624 0.63976 0.79985 0.0
C655 C 0.65997 0.64179 0.74703 0.0
C656 C 0.67884 0.63208 0.74425 0.0
C657 C 0.68282 0.61927 0.79293 0.0
C658 C 0.62688 0.63556 0.60154 0.0
C659 C 0.62196 0.65789 0.6029 0.0
C660 C 0.64143 0.6317 0.64633 0.0
C661 C 0.65099 0.64988 0.69367 0.0
C662 C 0.64755 0.67313 0.69338 0.0
C663 C 0.63334 0.67726 0.648 0.0
H664 H 0.98415 0.60606 0.57857 0.0
H665 H 0.91813 0.61355 0.6592 0.0
H666 H 0.01469 0.63225 0.65816 0.0
H667 H 0.94877 0.6394 0.73977 0.0
H668 H 0.00107 0.63043 0.89825 0.0
H669 H 0.97026 0.61865 0.815 0.0
H670 H 0.03657 0.68138 0.71117 0.0
H671 H 0.06742 0.69375 0.79556 0.0
C672 C 0.97627 0.61353 0.61311 0.0
C673 C 0.94872 0.60752 0.61328 0.0
C674 C 0.99383 0.62879 0.65814 0.0
C675 C 0.98402 0.63787 0.70464 0.0
C676 C 0.95674 0.63267 0.70403 0.0
C677 C 0.93928 0.61788 0.6582 0.0
C678 C 0.00884 0.64213 0.85803 0.0
C679 C 0.03653 0.66279 0.85277 0.0
C680 C 0.9912 0.63556 0.81069 0.0
C681 C 0.00115 0.64915 0.75698 0.0
C682 C 0.02853 0.67074 0.75241 0.0
C683 C 0.04607 0.6778 0.80042 0.0
H684 H 0.32625 0.97714 0.59366 0.0
H685 H 0.34443 0.92184 0.69045 0.0
H686 H 0.33955 0.008 0.678 0.0
H687 H 0.35615 0.95152 0.77563 0.0
H688 H 0.4208 0.02893 0.86169 0.0
H689 H 0.39694 0.99487 0.78787 0.0
H690 H 0.33397 0.01819 0.78049 0.0
H691 H 0.35862 0.05344 0.85483 0.0
C692 C 0.33216 0.97121 0.63382 0.0
C693 C 0.33475 0.94752 0.63599 0.0
C694 C 0.33966 0.98874 0.68206 0.0
C695 C 0.34949 0.98247 0.73299 0.0
C696 C 0.34943 0.9573 0.73644 0.0
C697 C 0.34256 0.94022 0.68803 0.0
C698 C 0.40178 0.02685 0.84494 0.0
C699 C 0.39155 0.04387 0.8646 0.0
C700 C 0.38791 0.00703 0.80276 0.0
C701 C 0.36321 0.00337 0.77915 0.0
C702 C 0.35294 0.0205 0.7981 0.0
C703 C 0.36702 0.04062 0.84059 0.0
H704 H 0.36235 0.37137 0.90357 0.0
H705 H 0.29357 0.36949 0.81436 0.0
H706 H 0.36861 0.34651 0.82321 0.0
H707 H 0.3002 0.34485 0.73295 0.0
H708 H 0.36933 0.36357 0.58491 0.0
H709 H 0.34448 0.36882 0.66693 0.0
H710 H 0.34669 0.30211 0.75784 0.0
H711 H 0.37126 0.29641 0.67439 0.0
C712 C 0.34826 0.36513 0.86715 0.0
C713 C 0.32783 0.37273 0.86436 0.0
C714 C 0.3516 0.3506 0.82161 0.0
C715 C 0.33489 0.34386 0.77208 0.0
C716 C 0.31326 0.34982 0.77094 0.0
C717 C 0.30954 0.36393 0.81722 0.0
C718 C 0.36398 0.34965 0.62192 0.0
C719 C 0.37249 0.3299 0.62412 0.0
C720 C 0.34947 0.35241 0.66844 0.0
C721 C 0.34368 0.33581 0.71843 0.0
C722 C 0.35087 0.31502 0.71945 0.0
C723 C 0.36492 0.31183 0.67207 0.0
H724 H 0.93755 0.30096 0.80477 0.0
H725 H -0.00212 0.361 0.92107 0.0
H726 H 0.97269 0.31613 0.7272 0.0
H727 H 0.03282 0.37568 0.84445 0.0
H728 H 0.0532 0.42675 0.67143 0.0
H729 H 0.02606 0.40107 0.75575 0.0
H730 H 0.02405 0.32745 0.6919 0.0
H731 H 0.05195 0.35358 0.60654 0.0
C732 C 0.95853 0.31659 0.8143 0.0
C733 C 0.96503 0.33039 0.86796 0.0
C734 C 0.97859 0.32514 0.77021 0.0
C735 C 0.00518 0.34733 0.77998 0.0
C736 C 0.01231 0.35876 0.83591 0.0
C737 C 0.99234 0.35047 0.87947 0.0
C738 C 0.04716 0.40514 0.6754 0.0
C739 C 0.05448 0.39206 0.63249 0.0
C740 C 0.03188 0.39052 0.72391 0.0
C741 C 0.0233 0.36242 0.73033 0.0
C742 C 0.03066 0.34918 0.68776 0.0
C743 C 0.04655 0.36407 0.63932 0.0
H744 H 0.51273 0.08504 0.12291 0.0
H745 H 0.53963 0.17131 0.14992 0.0
H746 H 0.54071 0.08574 0.20358 0.0
H747 H 0.56756 0.17174 0.23253 0.0
H748 H 0.63658 0.16415 0.33317 0.0
H749 H 0.60863 0.16741 0.25521 0.0
H750 H 0.54028 0.08877 0.30861 0.0
H751 H 0.56819 0.08513 0.38517 0.0
C752 C 0.52449 0.1042 0.14627 0.0
C753 C 0.52374 0.12811 0.13003 0.0
C754 C 0.54045 0.10451 0.19292 0.0
C755 C 0.55603 0.12867 0.22501 0.0
C756 C 0.55578 0.15282 0.20845 0.0
C757 C 0.53975 0.15254 0.16132 0.0
C758 C 0.61553 0.14765 0.32845 0.0
C759 C 0.60474 0.12419 0.36489 0.0
C760 C 0.59949 0.14961 0.284 0.0
C761 C 0.57238 0.1282 0.27534 0.0
C762 C 0.56132 0.10533 0.31334 0.0
C763 C 0.57732 0.10329 0.35736 0.0
H764 H 0.36871 0.52732 0.14454 0.0
H765 H 0.42654 0.49853 0.11385 0.0
H766 H 0.39704 0.55577 0.22447 0.0
H767 H 0.45534 0.5277 0.19204 0.0
H768 H 0.48682 0.56036 0.37178 0.0
H769 H 0.45685 0.53143 0.29475 0.0
H770 H 0.43963 0.59607 0.24532 0.0
H771 H 0.46889 0.62469 0.32416 0.0
C772 C 0.38758 0.52722 0.15455 0.0
C773 C 0.39532 0.51058 0.12294 0.0
C774 C 0.40391 0.54366 0.20019 0.0
C775 C 0.42848 0.54403 0.21487 0.0
C776 C 0.43629 0.52754 0.18281 0.0
C777 C 0.41983 0.51089 0.13768 0.0
C778 C 0.47663 0.56842 0.34455 0.0
C779 C 0.48032 0.59487 0.35402 0.0
C780 C 0.45954 0.55186 0.30008 0.0
C781 C 0.44595 0.56145 0.26342 0.0
C782 C 0.44948 0.58786 0.27317 0.0
C783 C 0.46636 0.60434 0.31819 0.0
H784 H 0.83565 0.45709 0.32348 0.0
H785 H 0.92271 0.48767 0.34732 0.0
H786 H 0.83542 0.42856 0.243 0.0
H787 H 0.92226 0.45856 0.26826 0.0
H788 H 0.8401 0.35927 0.14432 0.0
H789 H 0.83915 0.38834 0.22262 0.0
H790 H 0.91834 0.45451 0.1649 0.0
H791 H 0.91969 0.42532 0.08822 0.0
C792 C 0.85472 0.45764 0.31178 0.0
C793 C 0.87923 0.47475 0.34183 0.0
C794 C 0.85453 0.44115 0.26582 0.0
C795 C 0.87881 0.44127 0.24905 0.0
C796 C 0.90328 0.45832 0.27926 0.0
C797 C 0.90351 0.47494 0.32487 0.0
C798 C 0.85724 0.38006 0.14827 0.0
C799 C 0.88006 0.38988 0.11029 0.0
C800 C 0.85665 0.39678 0.19299 0.0
C801 C 0.87877 0.42372 0.20035 0.0
C802 C 0.90123 0.43368 0.16138 0.0
C803 C 0.90192 0.41695 0.11713 0.0
H804 H 0.40574 0.92517 0.31303 0.0
H805 H 0.3832 0.84178 0.36194 0.0
H806 H 0.43344 0.92339 0.23242 0.0
H807 H 0.41166 0.84037 0.28313 0.0
H808 H 0.44375 0.83608 0.10389 0.0
H809 H 0.4145 0.838 0.18072 0.0
H810 H 0.47493 0.9232 0.21241 0.0
H811 H 0.5036 0.92155 0.13405 0.0
C812 C 0.40683 0.90653 0.30681 0.0
C813 C 0.3922 0.88361 0.34386 0.0
C814 C 0.42285 0.90554 0.26077 0.0
C815 C 0.42485 0.88172 0.25115 0.0
C816 C 0.41023 0.85886 0.28839 0.0
C817 C 0.39399 0.85974 0.33391 0.0
C818 C 0.45078 0.85521 0.12728 0.0
C819 C 0.476 0.87865 0.11281 0.0
C820 C 0.43406 0.8563 0.17157 0.0
C821 C 0.44233 0.88075 0.20298 0.0
C822 C 0.46763 0.90416 0.18854 0.0
C823 C 0.48418 0.90316 0.14379 0.0
H824 H 0.58079 0.51404 0.1453 0.0
H825 H 0.60215 0.45098 0.10994 0.0
H826 H 0.55125 0.48633 0.2261 0.0
H827 H 0.572 0.42298 0.18876 0.0
H828 H 0.54034 0.39202 0.36958 0.0
H829 H 0.56988 0.42165 0.29174 0.0
H830 H 0.509 0.44507 0.24921 0.0
H831 H 0.47976 0.41607 0.32906 0.0
C832 C 0.57903 0.4942 0.15448 0.0
C833 C 0.59398 0.4848 0.12148 0.0
C834 C 0.56198 0.47825 0.20058 0.0
C835 C 0.55937 0.45249 0.21423 0.0
C836 C 0.574 0.44298 0.18045 0.0
C837 C 0.59121 0.459 0.13495 0.0
C838 C 0.53321 0.40348 0.34367 0.0
C839 C 0.50762 0.40155 0.35527 0.0
C840 C 0.55012 0.42039 0.29877 0.0
C841 C 0.54171 0.43554 0.26369 0.0
C842 C 0.51624 0.43391 0.27573 0.0
C843 C 0.49942 0.41718 0.32128 0.0
H844 H 0.15755 0.55967 0.37809 0.0
H845 H 0.07354 0.49871 0.33855 0.0
H846 H 0.15636 0.58993 0.30283 0.0
H847 H 0.0727 0.52837 0.26167 0.0
H848 H 0.06998 0.59675 0.16284 0.0
H849 H 0.07156 0.5694 0.24412 0.0
H850 H 0.15619 0.59462 0.20042 0.0
H851 H 0.15492 0.62287 0.12085 0.0
C852 C 0.1389 0.55264 0.35297 0.0
C853 C 0.11564 0.52681 0.36426 0.0
C854 C 0.13825 0.56994 0.30962 0.0
C855 C 0.11444 0.56162 0.27605 0.0
C856 C 0.09121 0.53571 0.28737 0.0
C857 C 0.09174 0.51859 0.33122 0.0
C858 C 0.08895 0.59653 0.17082 0.0
C859 C 0.1123 0.61189 0.13534 0.0
C860 C 0.08983 0.58072 0.21721 0.0
C861 C 0.11394 0.5796 0.22866 0.0
C862 C 0.13739 0.59529 0.19353 0.0
C863 C 0.13663 0.6114 0.14765 0.0
H864 H 0.48963 0.91591 0.84409 0.0
H865 H 0.45706 0.82806 0.82779 0.0
H866 H 0.46062 0.91478 0.76475 0.0
H867 H 0.42838 0.82712 0.74667 0.0
H868 H 0.42878 0.91131 0.58486 0.0
H869 H 0.4574 0.90894 0.66129 0.0
H870 H 0.3887 0.83258 0.72421 0.0
H871 H 0.36004 0.83452 0.64607 0.0
C872 C 0.47644 0.89634 0.82329 0.0
C873 C 0.4758 0.87208 0.84228 0.0
C874 C 0.45988 0.89573 0.77744 0.0
C875 C 0.44236 0.87091 0.74892 0.0
C876 C 0.4415 0.84655 0.76804 0.0
C877 C 0.45803 0.84712 0.81432 0.0
C878 C 0.41972 0.89393 0.6148 0.0
C879 C 0.39202 0.87324 0.60973 0.0
C880 C 0.43614 0.89264 0.65885 0.0
C881 C 0.42524 0.87079 0.69944 0.0
C882 C 0.39776 0.84961 0.69343 0.0
C883 C 0.38132 0.85078 0.64884 0.0
H884 H 0.58212 0.51009 0.82457 0.0
H885 H 0.60422 0.44807 0.8661 0.0
H886 H 0.55246 0.48119 0.74694 0.0
H887 H 0.57372 0.41867 0.78987 0.0
H888 H 0.53933 0.38562 0.60976 0.0
H889 H 0.56932 0.41457 0.68692 0.0
H890 H 0.5101 0.44014 0.73095 0.0
H891 H 0.48056 0.41197 0.65224 0.0
C892 C 0.58048 0.49018 0.81744 0.0
C893 C 0.59555 0.48139 0.85152 0.0
C894 C 0.56332 0.47351 0.77312 0.0
C895 C 0.56058 0.44752 0.76222 0.0
C896 C 0.57565 0.43873 0.79641 0.0
C897 C 0.59305 0.45554 0.84033 0.0
C898 C 0.53266 0.39737 0.63599 0.0
C899 C 0.50758 0.39654 0.62472 0.0
C900 C 0.54982 0.41388 0.68049 0.0
C901 C 0.54217 0.42973 0.71522 0.0
C902 C 0.51689 0.42861 0.70439 0.0
C903 C 0.49987 0.41232 0.65945 0.0
H904 H 0.07888 0.49142 0.66571 0.0
H905 H 0.16051 0.55666 0.6191 0.0
H906 H 0.0775 0.51859 0.74683 0.0
H907 H 0.15875 0.58446 0.6993 0.0
H908 H 0.15576 0.61769 0.87879 0.0
H909 H 0.15865 0.58877 0.80299 0.0
H910 H 0.07293 0.55804 0.76201 0.0
H911 H 0.06979 0.58616 0.83919 0.0
C912 C 0.09651 0.51168 0.67267 0.0
C913 C 0.11972 0.52203 0.63574 0.0
C914 C 0.09565 0.52732 0.71902 0.0
C915 C 0.11784 0.55386 0.72918 0.0
C916 C 0.14138 0.56398 0.69306 0.0
C917 C 0.14238 0.54813 0.64697 0.0
C918 C 0.1375 0.60469 0.85369 0.0
C919 C 0.11251 0.60418 0.86508 0.0
C920 C 0.13922 0.58823 0.81 0.0
C921 C 0.11604 0.57107 0.77637 0.0
C922 C 0.09106 0.57061 0.7878 0.0
C923 C 0.08928 0.58685 0.83188 0.0
H924 H 0.59424 0.07544 0.66408 0.0
H925 H 0.61789 0.15894 0.61335 0.0
H926 H 0.56701 0.07803 0.74442 0.0
H927 H 0.58982 0.16117 0.69243 0.0
H928 H 0.49556 0.07929 0.83475 0.0
H929 H 0.52508 0.07856 0.75758 0.0
H930 H 0.58586 0.16285 0.79631 0.0
H931 H 0.55573 0.16389 0.87253 0.0
C932 C 0.59353 0.09431 0.66994 0.0
C933 C 0.60809 0.11693 0.63219 0.0
C934 C 0.57781 0.09575 0.71581 0.0
C935 C 0.57602 0.11972 0.72452 0.0
C936 C 0.591 0.14252 0.68738 0.0
C937 C 0.60698 0.14119 0.64186 0.0
C938 C 0.51523 0.09769 0.82688 0.0
C939 C 0.52336 0.12164 0.85984 0.0
C940 C 0.53225 0.09721 0.78285 0.0
C941 C 0.55796 0.12056 0.77112 0.0
C942 C 0.56605 0.1446 0.80385 0.0
C943 C 0.54885 0.14518 0.84762 0.0
H944 H 0.47312 0.62107 0.64988 0.0
H945 H 0.49815 0.56112 0.60987 0.0
H946 H 0.44434 0.59201 0.72935 0.0
H947 H 0.46838 0.53137 0.68821 0.0
H948 H 0.43119 0.49707 0.8693 0.0
H949 H 0.46212 0.52627 0.79176 0.0
H950 H 0.40244 0.55037 0.74266 0.0
H951 H 0.37218 0.52216 0.82128 0.0
C952 C 0.47231 0.60155 0.65784 0.0
C953 C 0.48774 0.59328 0.62339 0.0
C954 C 0.45567 0.58479 0.70321 0.0
C955 C 0.45374 0.55916 0.71474 0.0
C956 C 0.46957 0.55109 0.68089 0.0
C957 C 0.48654 0.56807 0.63585 0.0
C958 C 0.42472 0.5086 0.8418 0.0
C959 C 0.39938 0.50753 0.8517 0.0
C960 C 0.44238 0.52524 0.79721 0.0
C961 C 0.43489 0.54088 0.76128 0.0
C962 C 0.4092 0.53917 0.77042 0.0
C963 C 0.39176 0.52286 0.81532 0.0
H964 H 0.9252 0.5007 0.63531 0.0
H965 H 0.84041 0.43991 0.60171 0.0
H966 H 0.92677 0.47176 0.71304 0.0
H967 H 0.84229 0.41048 0.67801 0.0
H968 H 0.84523 0.37916 0.85974 0.0
H969 H 0.84398 0.40764 0.78091 0.0
H970 H 0.92737 0.43018 0.73195 0.0
H971 H 0.92897 0.40239 0.81251 0.0
C972 C 0.90695 0.48104 0.64416 0.0
C973 C 0.88264 0.47267 0.61241 0.0
C974 C 0.90791 0.46434 0.68853 0.0
C975 C 0.88467 0.43874 0.70187 0.0
C976 C 0.86044 0.43027 0.66966 0.0
C977 C 0.85938 0.4471 0.62569 0.0
C978 C 0.86331 0.39012 0.83211 0.0
C979 C 0.88723 0.38852 0.84254 0.0
C980 C 0.86252 0.40635 0.78658 0.0
C981 C 0.88553 0.42119 0.74986 0.0
C982 C 0.9094 0.41938 0.75992 0.0
C983 C 0.91029 0.40333 0.80593 0.0
loop_
_geom_bond_atom_site_label_1
_geom_bond_atom_site_label_2
_geom_bond_distance
_geom_bond_site_symmetry_2
_ccdc_geom_bond_type
Sc0 O3 2.025 . S
Sc0 O10 2.105 1_554 S
Sc0 O13 2.105 . S
Sc0 O16 2.105 . S
Sc0 O19 2.105 1_554 S
Sc1 O3 2.025 . S
Sc1 O11 2.105 1_554 S
Sc1 O15 2.105 . S
Sc1 O17 2.105 . S
Sc1 O21 2.105 1_554 S
Sc2 O3 2.025 . S
Sc2 O12 2.105 1_554 S
Sc2 O14 2.105 . S
Sc2 O18 2.105 . S
Sc2 O20 2.105 1_554 S
O3 Sc0 2.025 . S
O3 Sc1 2.025 . S
O3 Sc2 2.025 . S
C4 O10 1.268 . S
C4 O20 1.268 . S
C5 O11 1.268 . S
C5 O19 1.268 . S
C6 O12 1.268 . S
C6 O21 1.268 . S
C7 O13 1.268 . S
C7 O17 1.268 . S
C8 O14 1.268 . S
C8 O16 1.268 . S
C9 O15 1.268 . S
C9 O18 1.268 . S
O10 Sc0 2.105 1_556 S
O10 C4 1.268 . S
O11 Sc1 2.105 1_556 S
O11 C5 1.268 . S
O12 Sc2 2.105 1_556 S
O12 C6 1.268 . S
O13 Sc0 2.105 . S
O13 C7 1.268 . S
O14 Sc2 2.105 . S
O14 C8 1.268 . S
O15 Sc1 2.105 . S
O15 C9 1.268 . S
O16 Sc0 2.105 . S
O16 C8 1.268 . S
O17 Sc1 2.105 . S
O17 C7 1.268 . S
O18 Sc2 2.105 . S
O18 C9 1.268 . S
O19 Sc0 2.105 1_556 S
O19 C5 1.268 . S
O20 Sc2 2.105 1_556 S
O20 C4 1.268 . S
O21 Sc1 2.105 1_556 S
O21 C6 1.268 . S
Sc22 O25 2.025 . S
Sc22 O32 2.105 1_554 S
Sc22 O35 2.105 . S
Sc22 O38 2.105 . S
Sc22 O41 2.105 1_554 S
Sc23 O25 2.025 . S
Sc23 O33 2.105 1_554 S
Sc23 O37 2.105 . S
Sc23 O39 2.105 . S
Sc23 O43 2.105 1_554 S
Sc24 O25 2.025 . S
Sc24 O34 2.105 1_554 S
Sc24 O36 2.105 . S
Sc24 O40 2.105 . S
Sc24 O42 2.105 1_554 S
O25 Sc22 2.025 . S
O25 Sc23 2.025 . S
O25 Sc24 2.025 . S
C26 O32 1.268 . S
C26 O42 1.268 . S
C27 O33 1.268 . S
C27 O41 1.268 . S
C28 O34 1.268 . S
C28 O43 1.268 . S
C29 O35 1.268 . S
C29 O39 1.268 . S
C30 O36 1.268 . S
C30 O38 1.268 . S
C31 O37 1.268 . S
C31 O40 1.268 . S
O32 Sc22 2.105 1_556 S
O32 C26 1.268 . S
O33 Sc23 2.105 1_556 S
O33 C27 1.268 . S
O34 Sc24 2.105 1_556 S
O34 C28 1.268 . S
O35 Sc22 2.105 . S
O35 C29 1.268 . S
O36 Sc24 2.105 . S
O36 C30 1.268 . S
O37 Sc23 2.105 . S
O37 C31 1.268 . S
O38 Sc22 2.105 . S
O38 C30 1.268 . S
O39 Sc23 2.105 . S
O39 C29 1.268 . S
O40 Sc24 2.105 . S
O40 C31 1.268 . S
O41 Sc22 2.105 1_556 S
O41 C27 1.268 . S
O42 Sc24 2.105 1_556 S
O42 C26 1.268 . S
O43 Sc23 2.105 1_556 S
O43 C28 1.268 . S
Sc44 O47 2.025 . S
Sc44 O54 2.105 1_554 S
Sc44 O57 2.105 . S
Sc44 O60 2.105 . S
Sc44 O63 2.105 1_554 S
Sc45 O47 2.025 . S
Sc45 O55 2.105 1_554 S
Sc45 O59 2.105 . S
Sc45 O61 2.105 . S
Sc45 O65 2.105 1_554 S
Sc46 O47 2.025 . S
Sc46 O56 2.105 1_554 S
Sc46 O58 2.105 . S
Sc46 O62 2.105 . S
Sc46 O64 2.105 1_554 S
O47 Sc44 2.025 . S
O47 Sc45 2.025 . S
O47 Sc46 2.025 . S
C48 O54 1.268 . S
C48 O64 1.268 . S
C49 O55 1.268 . S
C49 O63 1.268 . S
C50 O56 1.268 . S
C50 O65 1.268 . S
C51 O57 1.268 . S
C51 O61 1.268 . S
C52 O58 1.268 . S
C52 O60 1.268 . S
C53 O59 1.268 . S
C53 O62 1.268 . S
O54 Sc44 2.105 1_556 S
O54 C48 1.268 . S
O55 Sc45 2.105 1_556 S
O55 C49 1.268 . S
O56 Sc46 2.105 1_556 S
O56 C50 1.268 . S
O57 Sc44 2.105 . S
O57 C51 1.268 . S
O58 Sc46 2.105 . S
O58 C52 1.268 . S
O59 Sc45 2.105 . S
O59 C53 1.268 . S
O60 Sc44 2.105 . S
O60 C52 1.268 . S
O61 Sc45 2.105 . S
O61 C51 1.268 . S
O62 Sc46 2.105 . S
O62 C53 1.268 . S
O63 Sc44 2.105 1_556 S
O63 C49 1.268 . S
O64 Sc46 2.105 1_556 S
O64 C48 1.268 . S
O65 Sc45 2.105 1_556 S
O65 C50 1.268 . S
Sc66 O69 2.025 . S
Sc66 O76 2.105 1_554 S
Sc66 O79 2.105 . S
Sc66 O82 2.105 . S
Sc66 O85 2.105 1_554 S
Sc67 O69 2.025 . S
Sc67 O77 2.105 1_554 S
Sc67 O81 2.105 . S
Sc67 O83 2.105 . S
Sc67 O87 2.105 1_554 S
Sc68 O69 2.025 . S
Sc68 O78 2.105 1_554 S
Sc68 O80 2.105 . S
Sc68 O84 2.105 . S
Sc68 O86 2.105 1_554 S
O69 Sc66 2.025 . S
O69 Sc67 2.025 . S
O69 Sc68 2.025 . S
C70 O76 1.268 . S
C70 O86 1.268 . S
C71 O77 1.268 . S
C71 O85 1.268 . S
C72 O78 1.268 . S
C72 O87 1.268 . S
C73 O79 1.268 . S
C73 O83 1.268 . S
C74 O80 1.268 . S
C74 O82 1.268 . S
C75 O81 1.268 . S
C75 O84 1.268 . S
O76 Sc66 2.105 1_556 S
O76 C70 1.268 . S
O77 Sc67 2.105 1_556 S
O77 C71 1.268 . S
O78 Sc68 2.105 1_556 S
O78 C72 1.268 . S
O79 Sc66 2.105 . S
O79 C73 1.268 . S
O80 Sc68 2.105 . S
O80 C74 1.268 . S
O81 Sc67 2.105 . S
O81 C75 1.268 . S
O82 Sc66 2.105 . S
O82 C74 1.268 . S
O83 Sc67 2.105 . S
O83 C73 1.268 . S
O84 Sc68 2.105 . S
O84 C75 1.268 . S
O85 Sc66 2.105 1_556 S
O85 C71 1.268 . S
O86 Sc68 2.105 1_556 S
O86 C70 1.268 . S
O87 Sc67 2.105 1_556 S
O87 C72 1.268 . S
Sc88 O91 2.025 . S
Sc88 O98 2.105 1_554 S
Sc88 O101 2.105 . S
Sc88 O104 2.105 . S
Sc88 O107 2.105 1_554 S
Sc89 O91 2.025 . S
Sc89 O99 2.105 1_554 S
Sc89 O103 2.105 . S
Sc89 O105 2.105 . S
Sc89 O109 2.105 1_554 S
Sc90 O91 2.025 . S
Sc90 O100 2.105 1_554 S
Sc90 O102 2.105 . S
Sc90 O106 2.105 . S
Sc90 O108 2.105 1_554 S
O91 Sc88 2.025 . S
O91 Sc89 2.025 . S
O91 Sc90 2.025 . S
C92 O98 1.268 . S
C92 O108 1.268 . S
C93 O99 1.268 . S
C93 O107 1.268 . S
C94 O100 1.268 . S
C94 O109 1.268 . S
C95 O101 1.268 . S
C95 O105 1.268 . S
C96 O102 1.268 . S
C96 O104 1.268 . S
C97 O103 1.268 . S
C97 O106 1.268 . S
O98 Sc88 2.105 1_556 S
O98 C92 1.268 . S
O99 Sc89 2.105 1_556 S
O99 C93 1.268 . S
O100 Sc90 2.105 1_556 S
O100 C94 1.268 . S
O101 Sc88 2.105 . S
O101 C95 1.268 . S
O102 Sc90 2.105 . S
O102 C96 1.268 . S
O103 Sc89 2.105 . S
O103 C97 1.268 . S
O104 Sc88 2.105 . S
O104 C96 1.268 . S
O105 Sc89 2.105 . S
O105 C95 1.268 . S
O106 Sc90 2.105 . S
O106 C97 1.268 . S
O107 Sc88 2.105 1_556 S
O107 C93 1.268 . S
O108 Sc90 2.105 1_556 S
O108 C92 1.268 . S
O109 Sc89 2.105 1_556 S
O109 C94 1.268 . S
Sc110 O113 2.025 . S
Sc110 O120 2.105 1_554 S
Sc110 O123 2.105 . S
Sc110 O126 2.105 . S
Sc110 O129 2.105 1_554 S
Sc111 O113 2.025 . S
Sc111 O121 2.105 1_554 S
Sc111 O125 2.105 . S
Sc111 O127 2.105 . S
Sc111 O131 2.105 1_554 S
Sc112 O113 2.025 . S
Sc112 O122 2.105 1_554 S
Sc112 O124 2.105 . S
Sc112 O128 2.105 . S
Sc112 O130 2.105 1_554 S
O113 Sc110 2.025 . S
O113 Sc111 2.025 . S
O113 Sc112 2.025 . S
C114 O120 1.268 . S
C114 O130 1.268 . S
C115 O121 1.268 . S
C115 O129 1.268 . S
C116 O122 1.268 . S
C116 O131 1.268 . S
C117 O123 1.268 . S
C117 O127 1.268 . S
C118 O124 1.268 . S
C118 O126 1.268 . S
C119 O125 1.268 . S
C119 O128 1.268 . S
O120 Sc110 2.105 1_556 S
O120 C114 1.268 . S
O121 Sc111 2.105 1_556 S
O121 C115 1.268 . S
O122 Sc112 2.105 1_556 S
O122 C116 1.268 . S
O123 Sc110 2.105 . S
O123 C117 1.268 . S
O124 Sc112 2.105 . S
O124 C118 1.268 . S
O125 Sc111 2.105 . S
O125 C119 1.268 . S
O126 Sc110 2.105 . S
O126 C118 1.268 . S
O127 Sc111 2.105 . S
O127 C117 1.268 . S
O128 Sc112 2.105 . S
O128 C119 1.268 . S
O129 Sc110 2.105 1_556 S
O129 C115 1.268 . S
O130 Sc112 2.105 1_556 S
O130 C114 1.268 . S
O131 Sc111 2.105 1_556 S
O131 C116 1.268 . S
Sc132 O135 2.025 . S
Sc132 O142 2.105 . S
Sc132 O145 2.105 . S
Sc132 O148 2.105 . S
Sc132 O151 2.105 . S
Sc133 O135 2.025 . S
Sc133 O143 2.105 . S
Sc133 O147 2.105 . S
Sc133 O149 2.105 . S
Sc133 O153 2.105 . S
Sc134 O135 2.025 . S
Sc134 O144 2.105 . S
Sc134 O146 2.105 . S
Sc134 O150 2.105 . S
Sc134 O152 2.105 . S
O135 Sc132 2.025 . S
O135 Sc133 2.025 . S
O135 Sc134 2.025 . S
C136 O142 1.268 . S
C136 O152 1.268 . S
C137 O143 1.268 . S
C137 O151 1.268 . S
C138 O144 1.268 . S
C138 O153 1.268 . S
C139 O145 1.268 . S
C139 O149 1.268 . S
C140 O146 1.268 . S
C140 O148 1.268 . S
C141 O147 1.268 . S
C141 O150 1.268 . S
O142 Sc132 2.105 . S
O142 C136 1.268 . S
O143 Sc133 2.105 . S
O143 C137 1.268 . S
O144 Sc134 2.105 . S
O144 C138 1.268 . S
O145 Sc132 2.105 . S
O145 C139 1.268 . S
O146 Sc134 2.105 . S
O146 C140 1.268 . S
O147 Sc133 2.105 . S
O147 C141 1.268 . S
O148 Sc132 2.105 . S
O148 C140 1.268 . S
O149 Sc133 2.105 . S
O149 C139 1.268 . S
O150 Sc134 2.105 . S
O150 C141 1.268 . S
O151 Sc132 2.105 . S
O151 C137 1.268 . S
O152 Sc134 2.105 . S
O152 C136 1.268 . S
O153 Sc133 2.105 . S
O153 C138 1.268 . S
Sc154 O157 2.025 . S
Sc154 O164 2.105 . S
Sc154 O167 2.105 . S
Sc154 O170 2.105 . S
Sc154 O173 2.105 . S
Sc155 O157 2.025 . S
Sc155 O165 2.105 . S
Sc155 O169 2.105 . S
Sc155 O171 2.105 . S
Sc155 O175 2.105 . S
Sc156 O157 2.025 . S
Sc156 O166 2.105 . S
Sc156 O168 2.105 . S
Sc156 O172 2.105 . S
Sc156 O174 2.105 . S
O157 Sc154 2.025 . S
O157 Sc155 2.025 . S
O157 Sc156 2.025 . S
C158 O164 1.268 . S
C158 O174 1.268 . S
C159 O165 1.268 . S
C159 O173 1.268 . S
C160 O166 1.268 . S
C160 O175 1.268 . S
C161 O167 1.268 . S
C161 O171 1.268 . S
C162 O168 1.268 . S
C162 O170 1.268 . S
C163 O169 1.268 . S
C163 O172 1.268 . S
O164 Sc154 2.105 . S
O164 C158 1.268 . S
O165 Sc155 2.105 . S
O165 C159 1.268 . S
O166 Sc156 2.105 . S
O166 C160 1.268 . S
O167 Sc154 2.105 . S
O167 C161 1.268 . S
O168 Sc156 2.105 . S
O168 C162 1.268 . S
O169 Sc155 2.105 . S
O169 C163 1.268 . S
O170 Sc154 2.105 . S
O170 C162 1.268 . S
O171 Sc155 2.105 . S
O171 C161 1.268 . S
O172 Sc156 2.105 . S
O172 C163 1.268 . S
O173 Sc154 2.105 . S
O173 C159 1.268 . S
O174 Sc156 2.105 . S
O174 C158 1.268 . S
O175 Sc155 2.105 . S
O175 C160 1.268 . S
Sc176 O179 2.025 . S
Sc176 O186 2.105 . S
Sc176 O189 2.105 . S
Sc176 O192 2.105 . S
Sc176 O195 2.105 . S
Sc177 O179 2.025 . S
Sc177 O187 2.105 . S
Sc177 O191 2.105 . S
Sc177 O193 2.105 . S
Sc177 O197 2.105 . S
Sc178 O179 2.025 . S
Sc178 O188 2.105 . S
Sc178 O190 2.105 . S
Sc178 O194 2.105 . S
Sc178 O196 2.105 . S
O179 Sc176 2.025 . S
O179 Sc177 2.025 . S
O179 Sc178 2.025 . S
C180 O186 1.268 . S
C180 O196 1.268 . S
C181 O187 1.268 . S
C181 O195 1.268 . S
C182 O188 1.268 . S
C182 O197 1.268 . S
C183 O189 1.268 . S
C183 O193 1.268 . S
C184 O190 1.268 . S
C184 O192 1.268 . S
C185 O191 1.268 . S
C185 O194 1.268 . S
O186 Sc176 2.105 . S
O186 C180 1.268 . S
O187 Sc177 2.105 . S
O187 C181 1.268 . S
O188 Sc178 2.105 . S
O188 C182 1.268 . S
O189 Sc176 2.105 . S
O189 C183 1.268 . S
O190 Sc178 2.105 . S
O190 C184 1.268 . S
O191 Sc177 2.105 . S
O191 C185 1.268 . S
O192 Sc176 2.105 . S
O192 C184 1.268 . S
O193 Sc177 2.105 . S
O193 C183 1.268 . S
O194 Sc178 2.105 . S
O194 C185 1.268 . S
O195 Sc176 2.105 . S
O195 C181 1.268 . S
O196 Sc178 2.105 . S
O196 C180 1.268 . S
O197 Sc177 2.105 . S
O197 C182 1.268 . S
Sc198 O201 2.025 . S
Sc198 O208 2.105 . S
Sc198 O211 2.105 . S
Sc198 O214 2.105 . S
Sc198 O217 2.105 . S
Sc199 O201 2.025 . S
Sc199 O209 2.105 . S
Sc199 O213 2.105 . S
Sc199 O215 2.105 . S
Sc199 O219 2.105 . S
Sc200 O201 2.025 . S
Sc200 O210 2.105 . S
Sc200 O212 2.105 . S
Sc200 O216 2.105 . S
Sc200 O218 2.105 . S
O201 Sc198 2.025 . S
O201 Sc199 2.025 . S
O201 Sc200 2.025 . S
C202 O208 1.268 . S
C202 O218 1.268 . S
C203 O209 1.268 . S
C203 O217 1.268 . S
C204 O210 1.268 . S
C204 O219 1.268 . S
C205 O211 1.268 . S
C205 O215 1.268 . S
C206 O212 1.268 . S
C206 O214 1.268 . S
C207 O213 1.268 . S
C207 O216 1.268 . S
O208 Sc198 2.105 . S
O208 C202 1.268 . S
O209 Sc199 2.105 . S
O209 C203 1.268 . S
O210 Sc200 2.105 . S
O210 C204 1.268 . S
O211 Sc198 2.105 . S
O211 C205 1.268 . S
O212 Sc200 2.105 . S
O212 C206 1.268 . S
O213 Sc199 2.105 . S
O213 C207 1.268 . S
O214 Sc198 2.105 . S
O214 C206 1.268 . S
O215 Sc199 2.105 . S
O215 C205 1.268 . S
O216 Sc200 2.105 . S
O216 C207 1.268 . S
O217 Sc198 2.105 . S
O217 C203 1.268 . S
O218 Sc200 2.105 . S
O218 C202 1.268 . S
O219 Sc199 2.105 . S
O219 C204 1.268 . S
Sc220 O223 2.025 . S
Sc220 O230 2.105 . S
Sc220 O233 2.105 . S
Sc220 O236 2.105 . S
Sc220 O239 2.105 . S
Sc221 O223 2.025 . S
Sc221 O231 2.105 . S
Sc221 O235 2.105 . S
Sc221 O237 2.105 . S
Sc221 O241 2.105 . S
Sc222 O223 2.025 . S
Sc222 O232 2.105 . S
Sc222 O234 2.105 . S
Sc222 O238 2.105 . S
Sc222 O240 2.105 . S
O223 Sc220 2.025 . S
O223 Sc221 2.025 . S
O223 Sc222 2.025 . S
C224 O230 1.268 . S
C224 O240 1.268 . S
C225 O231 1.268 . S
C225 O239 1.268 . S
C226 O232 1.268 . S
C226 O241 1.268 . S
C227 O233 1.268 . S
C227 O237 1.268 . S
C228 O234 1.268 . S
C228 O236 1.268 . S
C229 O235 1.268 . S
C229 O238 1.268 . S
O230 Sc220 2.105 . S
O230 C224 1.268 . S
O231 Sc221 2.105 . S
O231 C225 1.268 . S
O232 Sc222 2.105 . S
O232 C226 1.268 . S
O233 Sc220 2.105 . S
O233 C227 1.268 . S
O234 Sc222 2.105 . S
O234 C228 1.268 . S
O235 Sc221 2.105 . S
O235 C229 1.268 . S
O236 Sc220 2.105 . S
O236 C228 1.268 . S
O237 Sc221 2.105 . S
O237 C227 1.268 . S
O238 Sc222 2.105 . S
O238 C229 1.268 . S
O239 Sc220 2.105 . S
O239 C225 1.268 . S
O240 Sc222 2.105 . S
O240 C224 1.268 . S
O241 Sc221 2.105 . S
O241 C226 1.268 . S
Sc242 O245 2.025 . S
Sc242 O252 2.105 . S
Sc242 O255 2.105 . S
Sc242 O258 2.105 . S
Sc242 O261 2.105 . S
Sc243 O245 2.025 . S
Sc243 O253 2.105 . S
Sc243 O257 2.105 . S
Sc243 O259 2.105 . S
Sc243 O263 2.105 . S
Sc244 O245 2.025 . S
Sc244 O254 2.105 . S
Sc244 O256 2.105 . S
Sc244 O260 2.105 . S
Sc244 O262 2.105 . S
O245 Sc242 2.025 . S
O245 Sc243 2.025 . S
O245 Sc244 2.025 . S
C246 O252 1.268 . S
C246 O262 1.268 . S
C247 O253 1.268 . S
C247 O261 1.268 . S
C248 O254 1.268 . S
C248 O263 1.268 . S
C249 O255 1.268 . S
C249 O259 1.268 . S
C250 O256 1.268 . S
C250 O258 1.268 . S
C251 O257 1.268 . S
C251 O260 1.268 . S
O252 Sc242 2.105 . S
O252 C246 1.268 . S
O253 Sc243 2.105 . S
O253 C247 1.268 . S
O254 Sc244 2.105 . S
O254 C248 1.268 . S
O255 Sc242 2.105 . S
O255 C249 1.268 . S
O256 Sc244 2.105 . S
O256 C250 1.268 . S
O257 Sc243 2.105 . S
O257 C251 1.268 . S
O258 Sc242 2.105 . S
O258 C250 1.268 . S
O259 Sc243 2.105 . S
O259 C249 1.268 . S
O260 Sc244 2.105 . S
O260 C251 1.268 . S
O261 Sc242 2.105 . S
O261 C247 1.268 . S
O262 Sc244 2.105 . S
O262 C246 1.268 . S
O263 Sc243 2.105 . S
O263 C248 1.268 . S
H264 C272 0.950 . S
H265 C277 0.950 . S
H266 C274 0.950 . S
H267 C276 0.950 . S
H268 C278 0.950 . S
H269 C280 0.950 . S
H270 C282 0.950 . S
H271 C283 0.950 . S
C272 H264 0.950 . S
C272 C273 1.386 . S
C272 C274 1.391 . S
C273 C272 1.386 . S
C273 C277 1.393 . S
C274 H266 0.950 . S
C274 C272 1.391 . S
C274 C275 1.400 . S
C275 C274 1.400 . S
C275 C276 1.398 . S
C275 C281 1.491 . S
C276 H267 0.950 . S
C276 C275 1.398 . S
C276 C277 1.391 . S
C277 H265 0.950 . S
C277 C273 1.393 . S
C277 C276 1.391 . S
C278 H268 0.950 . S
C278 C279 1.386 . S
C278 C280 1.391 . S
C279 C278 1.386 . S
C279 C283 1.393 . S
C280 H269 0.950 . S
C280 C278 1.391 . S
C280 C281 1.400 . S
C281 C275 1.491 . S
C281 C280 1.400 . S
C281 C282 1.398 . S
C282 H270 0.950 . S
C282 C281 1.398 . S
C282 C283 1.391 . S
C283 H271 0.950 . S
C283 C279 1.393 . S
C283 C282 1.391 . S
H284 C292 0.950 . S
H285 C297 0.950 . S
H286 C294 0.950 . S
H287 C296 0.950 . S
H288 C298 0.950 . S
H289 C300 0.950 . S
H290 C302 0.950 . S
H291 C303 0.950 . S
C292 H284 0.950 . S
C292 C293 1.386 . S
C292 C294 1.391 . S
C293 C292 1.386 . S
C293 C297 1.393 . S
C294 H286 0.950 . S
C294 C292 1.391 . S
C294 C295 1.400 . S
C295 C294 1.400 . S
C295 C296 1.398 . S
C295 C301 1.491 . S
C296 H287 0.950 . S
C296 C295 1.398 . S
C296 C297 1.391 . S
C297 H285 0.950 . S
C297 C293 1.393 . S
C297 C296 1.391 . S
C298 H288 0.950 . S
C298 C299 1.386 . S
C298 C300 1.391 . S
C299 C298 1.386 . S
C299 C303 1.393 . S
C300 H289 0.950 . S
C300 C298 1.391 . S
C300 C301 1.400 . S
C301 C295 1.491 . S
C301 C300 1.400 . S
C301 C302 1.398 . S
C302 H290 0.950 . S
C302 C301 1.398 . S
C302 C303 1.391 . S
C303 H291 0.950 . S
C303 C299 1.393 . S
C303 C302 1.391 . S
H304 C312 0.950 . S
H305 C317 0.950 . S
H306 C314 0.950 . S
H307 C316 0.950 . S
H308 C318 0.950 . S
H309 C320 0.950 . S
H310 C322 0.950 . S
H311 C323 0.950 . S
C312 H304 0.950 . S
C312 C313 1.386 . S
C312 C314 1.391 . S
C313 C312 1.386 . S
C313 C317 1.393 . S
C314 H306 0.950 . S
C314 C312 1.391 . S
C314 C315 1.400 . S
C315 C314 1.400 . S
C315 C316 1.398 . S
C315 C321 1.491 . S
C316 H307 0.950 . S
C316 C315 1.398 . S
C316 C317 1.391 . S
C317 H305 0.950 . S
C317 C313 1.393 . S
C317 C316 1.391 . S
C318 H308 0.950 . S
C318 C319 1.386 . S
C318 C320 1.391 . S
C319 C318 1.386 . S
C319 C323 1.393 . S
C320 H309 0.950 . S
C320 C318 1.391 . S
C320 C321 1.400 . S
C321 C315 1.491 . S
C321 C320 1.400 . S
C321 C322 1.398 . S
C322 H310 0.950 . S
C322 C321 1.398 . S
C322 C323 1.391 . S
C323 H311 0.950 . S
C323 C319 1.393 . S
C323 C322 1.391 . S
H324 C332 0.950 . S
H325 C337 0.950 . S
H326 C334 0.950 . S
H327 C336 0.950 . S
H328 C338 0.950 . S
H329 C340 0.950 . S
H330 C342 0.950 . S
H331 C343 0.950 . S
C332 H324 0.950 . S
C332 C333 1.386 . S
C332 C334 1.391 . S
C333 C332 1.386 . S
C333 C337 1.393 . S
C334 H326 0.950 . S
C334 C332 1.391 . S
C334 C335 1.400 . S
C335 C334 1.400 . S
C335 C336 1.398 . S
C335 C341 1.491 . S
C336 H327 0.950 . S
C336 C335 1.398 . S
C336 C337 1.391 . S
C337 H325 0.950 . S
C337 C333 1.393 . S
C337 C336 1.391 . S
C338 H328 0.950 . S
C338 C339 1.386 . S
C338 C340 1.391 . S
C339 C338 1.386 . S
C339 C343 1.393 . S
C340 H329 0.950 . S
C340 C338 1.391 . S
C340 C341 1.400 . S
C341 C335 1.491 . S
C341 C340 1.400 . S
C341 C342 1.398 . S
C342 H330 0.950 . S
C342 C341 1.398 . S
C342 C343 1.391 . S
C343 H331 0.950 . S
C343 C339 1.393 . S
C343 C342 1.391 . S
H344 C352 0.950 . S
H345 C357 0.950 . S
H346 C354 0.950 . S
H347 C356 0.950 . S
H348 C358 0.950 . S
H349 C360 0.950 . S
H350 C362 0.950 . S
H351 C363 0.950 . S
C352 H344 0.950 . S
C352 C353 1.386 . S
C352 C354 1.391 . S
C353 C352 1.386 . S
C353 C357 1.393 . S
C354 H346 0.950 . S
C354 C352 1.391 . S
C354 C355 1.400 . S
C355 C354 1.400 . S
C355 C356 1.398 . S
C355 C361 1.491 . S
C356 H347 0.950 . S
C356 C355 1.398 . S
C356 C357 1.391 . S
C357 H345 0.950 . S
C357 C353 1.393 . S
C357 C356 1.391 . S
C358 H348 0.950 . S
C358 C359 1.386 . S
C358 C360 1.391 . S
C359 C358 1.386 . S
C359 C363 1.393 . S
C360 H349 0.950 . S
C360 C358 1.391 . S
C360 C361 1.400 . S
C361 C355 1.491 . S
C361 C360 1.400 . S
C361 C362 1.398 . S
C362 H350 0.950 . S
C362 C361 1.398 . S
C362 C363 1.391 . S
C363 H351 0.950 . S
C363 C359 1.393 . S
C363 C362 1.391 . S
H364 C372 0.950 . S
H365 C377 0.950 . S
H366 C374 0.950 . S
H367 C376 0.950 . S
H368 C378 0.950 . S
H369 C380 0.950 . S
H370 C382 0.950 . S
H371 C383 0.950 . S
C372 H364 0.950 . S
C372 C373 1.386 . S
C372 C374 1.391 . S
C373 C372 1.386 . S
C373 C377 1.393 . S
C374 H366 0.950 . S
C374 C372 1.391 . S
C374 C375 1.400 . S
C375 C374 1.400 . S
C375 C376 1.398 . S
C375 C381 1.491 . S
C376 H367 0.950 . S
C376 C375 1.398 . S
C376 C377 1.391 . S
C377 H365 0.950 . S
C377 C373 1.393 . S
C377 C376 1.391 . S
C378 H368 0.950 . S
C378 C379 1.386 . S
C378 C380 1.391 . S
C379 C378 1.386 . S
C379 C383 1.393 . S
C380 H369 0.950 . S
C380 C378 1.391 . S
C380 C381 1.400 . S
C381 C375 1.491 . S
C381 C380 1.400 . S
C381 C382 1.398 . S
C382 H370 0.950 . S
C382 C381 1.398 . S
C382 C383 1.391 . S
C383 H371 0.950 . S
C383 C379 1.393 . S
C383 C382 1.391 . S
H384 C392 0.950 . S
H385 C397 0.950 . S
H386 C394 0.950 . S
H387 C396 0.950 . S
H388 C398 0.950 . S
H389 C400 0.950 . S
H390 C402 0.950 . S
H391 C403 0.950 . S
C392 H384 0.950 . S
C392 C393 1.386 . S
C392 C394 1.391 . S
C393 C392 1.386 . S
C393 C397 1.393 . S
C394 H386 0.950 . S
C394 C392 1.391 . S
C394 C395 1.400 . S
C395 C394 1.400 . S
C395 C396 1.398 . S
C395 C401 1.491 . S
C396 H387 0.950 . S
C396 C395 1.398 . S
C396 C397 1.391 . S
C397 H385 0.950 . S
C397 C393 1.393 . S
C397 C396 1.391 . S
C398 H388 0.950 . S
C398 C399 1.386 . S
C398 C400 1.391 . S
C399 C398 1.386 . S
C399 C403 1.393 . S
C400 H389 0.950 . S
C400 C398 1.391 . S
C400 C401 1.400 . S
C401 C395 1.491 . S
C401 C400 1.400 . S
C401 C402 1.398 . S
C402 H390 0.950 . S
C402 C401 1.398 . S
C402 C403 1.391 . S
C403 H391 0.950 . S
C403 C399 1.393 . S
C403 C402 1.391 . S
H404 C412 0.950 . S
H405 C417 0.950 . S
H406 C414 0.950 . S
H407 C416 0.950 . S
H408 C418 0.950 . S
H409 C420 0.950 . S
H410 C422 0.950 . S
H411 C423 0.950 . S
C412 H404 0.950 . S
C412 C413 1.386 . S
C412 C414 1.391 . S
C413 C412 1.386 . S
C413 C417 1.393 . S
C414 H406 0.950 . S
C414 C412 1.391 . S
C414 C415 1.400 . S
C415 C414 1.400 . S
C415 C416 1.398 . S
C415 C421 1.491 . S
C416 H407 0.950 . S
C416 C415 1.398 . S
C416 C417 1.391 . S
C417 H405 0.950 . S
C417 C413 1.393 . S
C417 C416 1.391 . S
C418 H408 0.950 . S
C418 C419 1.386 . S
C418 C420 1.391 . S
C419 C418 1.386 . S
C419 C423 1.393 . S
C420 H409 0.950 . S
C420 C418 1.391 . S
C420 C421 1.400 . S
C421 C415 1.491 . S
C421 C420 1.400 . S
C421 C422 1.398 . S
C422 H410 0.950 . S
C422 C421 1.398 . S
C422 C423 1.391 . S
C423 H411 0.950 . S
C423 C419 1.393 . S
C423 C422 1.391 . S
H424 C432 0.950 . S
H425 C437 0.950 . S
H426 C434 0.950 . S
H427 C436 0.950 . S
H428 C438 0.950 . S
H429 C440 0.950 . S
H430 C442 0.950 . S
H431 C443 0.950 . S
C432 H424 0.950 . S
C432 C433 1.386 . S
C432 C434 1.391 . S
C433 C432 1.386 . S
C433 C437 1.393 . S
C434 H426 0.950 . S
C434 C432 1.391 . S
C434 C435 1.400 . S
C435 C434 1.400 . S
C435 C436 1.398 . S
C435 C441 1.491 . S
C436 H427 0.950 . S
C436 C435 1.398 . S
C436 C437 1.391 . S
C437 H425 0.950 . S
C437 C433 1.393 . S
C437 C436 1.391 . S
C438 H428 0.950 . S
C438 C439 1.386 . S
C438 C440 1.391 . S
C439 C438 1.386 . S
C439 C443 1.393 . S
C440 H429 0.950 . S
C440 C438 1.391 . S
C440 C441 1.400 . S
C441 C435 1.491 . S
C441 C440 1.400 . S
C441 C442 1.398 . S
C442 H430 0.950 . S
C442 C441 1.398 . S
C442 C443 1.391 . S
C443 H431 0.950 . S
C443 C439 1.393 . S
C443 C442 1.391 . S
H444 C452 0.950 . S
H445 C457 0.950 . S
H446 C454 0.950 . S
H447 C456 0.950 . S
H448 C458 0.950 . S
H449 C460 0.950 . S
H450 C462 0.950 . S
H451 C463 0.950 . S
C452 H444 0.950 . S
C452 C453 1.386 . S
C452 C454 1.391 . S
C453 C452 1.386 . S
C453 C457 1.393 . S
C454 H446 0.950 . S
C454 C452 1.391 . S
C454 C455 1.400 . S
C455 C454 1.400 . S
C455 C456 1.398 . S
C455 C461 1.491 . S
C456 H447 0.950 . S
C456 C455 1.398 . S
C456 C457 1.391 . S
C457 H445 0.950 . S
C457 C453 1.393 . S
C457 C456 1.391 . S
C458 H448 0.950 . S
C458 C459 1.386 . S
C458 C460 1.391 . S
C459 C458 1.386 . S
C459 C463 1.393 . S
C460 H449 0.950 . S
C460 C458 1.391 . S
C460 C461 1.400 . S
C461 C455 1.491 . S
C461 C460 1.400 . S
C461 C462 1.398 . S
C462 H450 0.950 . S
C462 C461 1.398 . S
C462 C463 1.391 . S
C463 H451 0.950 . S
C463 C459 1.393 . S
C463 C462 1.391 . S
H464 C472 0.950 . S
H465 C477 0.950 . S
H466 C474 0.950 . S
H467 C476 0.950 . S
H468 C478 0.950 . S
H469 C480 0.950 . S
H470 C482 0.950 . S
H471 C483 0.950 . S
C472 H464 0.950 . S
C472 C473 1.386 . S
C472 C474 1.391 . S
C473 C472 1.386 . S
C473 C477 1.393 . S
C474 H466 0.950 . S
C474 C472 1.391 . S
C474 C475 1.400 . S
C475 C474 1.400 . S
C475 C476 1.398 . S
C475 C481 1.491 . S
C476 H467 0.950 . S
C476 C475 1.398 . S
C476 C477 1.391 . S
C477 H465 0.950 . S
C477 C473 1.393 . S
C477 C476 1.391 . S
C478 H468 0.950 . S
C478 C479 1.386 . S
C478 C480 1.391 . S
C479 C478 1.386 . S
C479 C483 1.393 . S
C480 H469 0.950 . S
C480 C478 1.391 . S
C480 C481 1.400 . S
C481 C475 1.491 . S
C481 C480 1.400 . S
C481 C482 1.398 . S
C482 H470 0.950 . S
C482 C481 1.398 . S
C482 C483 1.391 . S
C483 H471 0.950 . S
C483 C479 1.393 . S
C483 C482 1.391 . S
H484 C492 0.950 . S
H485 C497 0.950 . S
H486 C494 0.950 . S
H487 C496 0.950 . S
H488 C498 0.950 . S
H489 C500 0.950 . S
H490 C502 0.950 . S
H491 C503 0.950 . S
C492 H484 0.950 . S
C492 C493 1.386 . S
C492 C494 1.391 . S
C493 C492 1.386 . S
C493 C497 1.393 . S
C494 H486 0.950 . S
C494 C492 1.391 . S
C494 C495 1.400 . S
C495 C494 1.400 . S
C495 C496 1.398 . S
C495 C501 1.491 . S
C496 H487 0.950 . S
C496 C495 1.398 . S
C496 C497 1.391 . S
C497 H485 0.950 . S
C497 C493 1.393 . S
C497 C496 1.391 . S
C498 H488 0.950 . S
C498 C499 1.386 . S
C498 C500 1.391 . S
C499 C498 1.386 . S
C499 C503 1.393 . S
C500 H489 0.950 . S
C500 C498 1.391 . S
C500 C501 1.400 . S
C501 C495 1.491 . S
C501 C500 1.400 . S
C501 C502 1.398 . S
C502 H490 0.950 . S
C502 C501 1.398 . S
C502 C503 1.391 . S
C503 H491 0.950 . S
C503 C499 1.393 . S
C503 C502 1.391 . S
H504 C512 0.950 . S
H505 C517 0.950 . S
H506 C514 0.950 . S
H507 C516 0.950 1_545 S
H508 C518 0.950 . S
H509 C520 0.950 . S
H510 C522 0.950 1_565 S
H511 C523 0.950 . S
C512 H504 0.950 . S
C512 C513 1.386 . S
C512 C514 1.391 . S
C513 C512 1.386 . S
C513 C517 1.393 . S
C514 H506 0.950 . S
C514 C512 1.391 . S
C514 C515 1.400 . S
C515 C514 1.400 . S
C515 C516 1.398 . S
C515 C521 1.491 1_565 S
C516 H507 0.950 1_565 S
C516 C515 1.398 . S
C516 C517 1.391 . S
C517 H505 0.950 . S
C517 C513 1.393 . S
C517 C516 1.391 . S
C518 H508 0.950 . S
C518 C519 1.386 . S
C518 C520 1.391 . S
C519 C518 1.386 . S
C519 C523 1.393 . S
C520 H509 0.950 . S
C520 C518 1.391 . S
C520 C521 1.400 . S
C521 C515 1.491 1_545 S
C521 C520 1.400 . S
C521 C522 1.398 . S
C522 H510 0.950 1_545 S
C522 C521 1.398 . S
C522 C523 1.391 . S
C523 H511 0.950 . S
C523 C519 1.393 . S
C523 C522 1.391 . S
H524 C532 0.950 . S
H525 C537 0.950 . S
H526 C534 0.950 . S
H527 C536 0.950 . S
H528 C538 0.950 . S
H529 C540 0.950 . S
H530 C542 0.950 . S
H531 C543 0.950 . S
C532 H524 0.950 . S
C532 C533 1.386 . S
C532 C534 1.391 . S
C533 C532 1.386 . S
C533 C537 1.393 . S
C534 H526 0.950 . S
C534 C532 1.391 . S
C534 C535 1.400 . S
C535 C534 1.400 . S
C535 C536 1.398 . S
C535 C541 1.491 . S
C536 H527 0.950 . S
C536 C535 1.398 . S
C536 C537 1.391 . S
C537 H525 0.950 . S
C537 C533 1.393 . S
C537 C536 1.391 . S
C538 H528 0.950 . S
C538 C539 1.386 . S
C538 C540 1.391 . S
C539 C538 1.386 . S
C539 C543 1.393 . S
C540 H529 0.950 . S
C540 C538 1.391 . S
C540 C541 1.400 . S
C541 C535 1.491 . S
C541 C540 1.400 . S
C541 C542 1.398 . S
C542 H530 0.950 . S
C542 C541 1.398 . S
C542 C543 1.391 . S
C543 H531 0.950 . S
C543 C539 1.393 . S
C543 C542 1.391 . S
H544 C552 0.950 . S
H545 C557 0.950 . S
H546 C554 0.950 . S
H547 C556 0.950 . S
H548 C558 0.950 . S
H549 C560 0.950 . S
H550 C562 0.950 . S
H551 C563 0.950 . S
C552 H544 0.950 . S
C552 C553 1.386 . S
C552 C554 1.391 . S
C553 C552 1.386 . S
C553 C557 1.393 . S
C554 H546 0.950 . S
C554 C552 1.391 . S
C554 C555 1.400 . S
C555 C554 1.400 . S
C555 C556 1.398 . S
C555 C561 1.491 1_455 S
C556 H547 0.950 . S
C556 C555 1.398 . S
C556 C557 1.391 . S
C557 H545 0.950 . S
C557 C553 1.393 . S
C557 C556 1.391 . S
C558 H548 0.950 . S
C558 C559 1.386 . S
C558 C560 1.391 . S
C559 C558 1.386 . S
C559 C563 1.393 . S
C560 H549 0.950 . S
C560 C558 1.391 . S
C560 C561 1.400 . S
C561 C555 1.491 1_655 S
C561 C560 1.400 . S
C561 C562 1.398 . S
C562 H550 0.950 . S
C562 C561 1.398 . S
C562 C563 1.391 . S
C563 H551 0.950 . S
C563 C559 1.393 . S
C563 C562 1.391 . S
H564 C572 0.950 . S
H565 C577 0.950 . S
H566 C574 0.950 1_545 S
H567 C576 0.950 . S
H568 C578 0.950 . S
H569 C580 0.950 1_565 S
H570 C582 0.950 . S
H571 C583 0.950 . S
C572 H564 0.950 . S
C572 C573 1.386 . S
C572 C574 1.391 . S
C573 C572 1.386 . S
C573 C577 1.393 . S
C574 H566 0.950 1_565 S
C574 C572 1.391 . S
C574 C575 1.400 . S
C575 C574 1.400 . S
C575 C576 1.398 . S
C575 C581 1.491 1_565 S
C576 H567 0.950 . S
C576 C575 1.398 . S
C576 C577 1.391 . S
C577 H565 0.950 . S
C577 C573 1.393 . S
C577 C576 1.391 . S
C578 H568 0.950 . S
C578 C579 1.386 . S
C578 C580 1.391 . S
C579 C578 1.386 . S
C579 C583 1.393 . S
C580 H569 0.950 1_545 S
C580 C578 1.391 . S
C580 C581 1.400 . S
C581 C575 1.491 1_545 S
C581 C580 1.400 . S
C581 C582 1.398 . S
C582 H570 0.950 . S
C582 C581 1.398 . S
C582 C583 1.391 . S
C583 H571 0.950 . S
C583 C579 1.393 . S
C583 C582 1.391 . S
H584 C592 0.950 . S
H585 C597 0.950 . S
H586 C594 0.950 . S
H587 C596 0.950 . S
H588 C598 0.950 . S
H589 C600 0.950 . S
H590 C602 0.950 . S
H591 C603 0.950 . S
C592 H584 0.950 . S
C592 C593 1.386 . S
C592 C594 1.391 . S
C593 C592 1.386 . S
C593 C597 1.393 . S
C594 H586 0.950 . S
C594 C592 1.391 . S
C594 C595 1.400 . S
C595 C594 1.400 . S
C595 C596 1.398 . S
C595 C601 1.491 . S
C596 H587 0.950 . S
C596 C595 1.398 . S
C596 C597 1.391 . S
C597 H585 0.950 . S
C597 C593 1.393 . S
C597 C596 1.391 . S
C598 H588 0.950 . S
C598 C599 1.386 . S
C598 C600 1.391 . S
C599 C598 1.386 . S
C599 C603 1.393 . S
C600 H589 0.950 . S
C600 C598 1.391 . S
C600 C601 1.400 . S
C601 C595 1.491 . S
C601 C600 1.400 . S
C601 C602 1.398 . S
C602 H590 0.950 . S
C602 C601 1.398 . S
C602 C603 1.391 . S
C603 H591 0.950 . S
C603 C599 1.393 . S
C603 C602 1.391 . S
H604 C612 0.950 . S
H605 C617 0.950 . S
H606 C614 0.950 1_455 S
H607 C616 0.950 . S
H608 C618 0.950 . S
H609 C620 0.950 1_655 S
H610 C622 0.950 . S
H611 C623 0.950 . S
C612 H604 0.950 . S
C612 C613 1.386 . S
C612 C614 1.391 . S
C613 C612 1.386 . S
C613 C617 1.393 . S
C614 H606 0.950 1_655 S
C614 C612 1.391 . S
C614 C615 1.400 . S
C615 C614 1.400 . S
C615 C616 1.398 . S
C615 C621 1.491 1_655 S
C616 H607 0.950 . S
C616 C615 1.398 . S
C616 C617 1.391 . S
C617 H605 0.950 . S
C617 C613 1.393 . S
C617 C616 1.391 . S
C618 H608 0.950 . S
C618 C619 1.386 . S
C618 C620 1.391 . S
C619 C618 1.386 . S
C619 C623 1.393 . S
C620 H609 0.950 1_455 S
C620 C618 1.391 . S
C620 C621 1.400 . S
C621 C615 1.491 1_455 S
C621 C620 1.400 . S
C621 C622 1.398 . S
C622 H610 0.950 . S
C622 C621 1.398 . S
C622 C623 1.391 . S
C623 H611 0.950 . S
C623 C619 1.393 . S
C623 C622 1.391 . S
H624 C632 0.950 . S
H625 C637 0.950 . S
H626 C634 0.950 . S
H627 C636 0.950 . S
H628 C638 0.950 . S
H629 C640 0.950 . S
H630 C642 0.950 . S
H631 C643 0.950 . S
C632 H624 0.950 . S
C632 C633 1.386 . S
C632 C634 1.391 . S
C633 C632 1.386 . S
C633 C637 1.393 . S
C634 H626 0.950 . S
C634 C632 1.391 . S
C634 C635 1.400 . S
C635 C634 1.400 . S
C635 C636 1.398 . S
C635 C641 1.491 1_545 S
C636 H627 0.950 . S
C636 C635 1.398 . S
C636 C637 1.391 . S
C637 H625 0.950 . S
C637 C633 1.393 . S
C637 C636 1.391 . S
C638 H628 0.950 . S
C638 C639 1.386 . S
C638 C640 1.391 . S
C639 C638 1.386 . S
C639 C643 1.393 . S
C640 H629 0.950 . S
C640 C638 1.391 . S
C640 C641 1.400 . S
C641 C635 1.491 1_565 S
C641 C640 1.400 . S
C641 C642 1.398 . S
C642 H630 0.950 . S
C642 C641 1.398 . S
C642 C643 1.391 . S
C643 H631 0.950 . S
C643 C639 1.393 . S
C643 C642 1.391 . S
H644 C652 0.950 . S
H645 C657 0.950 . S
H646 C654 0.950 . S
H647 C656 0.950 . S
H648 C658 0.950 . S
H649 C660 0.950 . S
H650 C662 0.950 . S
H651 C663 0.950 . S
C652 H644 0.950 . S
C652 C653 1.386 . S
C652 C654 1.391 . S
C653 C652 1.386 . S
C653 C657 1.393 . S
C654 H646 0.950 . S
C654 C652 1.391 . S
C654 C655 1.400 . S
C655 C654 1.400 . S
C655 C656 1.398 . S
C655 C661 1.491 . S
C656 H647 0.950 . S
C656 C655 1.398 . S
C656 C657 1.391 . S
C657 H645 0.950 . S
C657 C653 1.393 . S
C657 C656 1.391 . S
C658 H648 0.950 . S
C658 C659 1.386 . S
C658 C660 1.391 . S
C659 C658 1.386 . S
C659 C663 1.393 . S
C660 H649 0.950 . S
C660 C658 1.391 . S
C660 C661 1.400 . S
C661 C655 1.491 . S
C661 C660 1.400 . S
C661 C662 1.398 . S
C662 H650 0.950 . S
C662 C661 1.398 . S
C662 C663 1.391 . S
C663 H651 0.950 . S
C663 C659 1.393 . S
C663 C662 1.391 . S
H664 C672 0.950 . S
H665 C677 0.950 . S
H666 C674 0.950 . S
H667 C676 0.950 . S
H668 C678 0.950 . S
H669 C680 0.950 . S
H670 C682 0.950 . S
H671 C683 0.950 . S
C672 H664 0.950 . S
C672 C673 1.386 . S
C672 C674 1.391 . S
C673 C672 1.386 . S
C673 C677 1.393 . S
C674 H666 0.950 . S
C674 C672 1.391 . S
C674 C675 1.400 . S
C675 C674 1.400 . S
C675 C676 1.398 . S
C675 C681 1.491 1_655 S
C676 H667 0.950 . S
C676 C675 1.398 . S
C676 C677 1.391 . S
C677 H665 0.950 . S
C677 C673 1.393 . S
C677 C676 1.391 . S
C678 H668 0.950 . S
C678 C679 1.386 . S
C678 C680 1.391 . S
C679 C678 1.386 . S
C679 C683 1.393 . S
C680 H669 0.950 . S
C680 C678 1.391 . S
C680 C681 1.400 . S
C681 C675 1.491 1_455 S
C681 C680 1.400 . S
C681 C682 1.398 . S
C682 H670 0.950 . S
C682 C681 1.398 . S
C682 C683 1.391 . S
C683 H671 0.950 . S
C683 C679 1.393 . S
C683 C682 1.391 . S
H684 C692 0.950 . S
H685 C697 0.950 . S
H686 C694 0.959 . S
H687 C696 0.950 . S
H688 C698 0.950 . S
H689 C700 0.959 . S
H690 C702 0.950 . S
H691 C703 0.950 . S
C692 H684 0.950 . S
C692 C693 1.386 . S
C692 C694 1.391 . S
C693 C692 1.386 . S
C693 C697 1.393 . S
C694 H686 0.959 . S
C694 C692 1.391 . S
C694 C695 1.400 . S
C695 C694 1.400 . S
C695 C696 1.398 . S
C695 C701 1.491 1_565 S
C696 H687 0.950 . S
C696 C695 1.398 . S
C696 C697 1.391 . S
C697 H685 0.950 . S
C697 C693 1.393 . S
C697 C696 1.391 . S
C698 H688 0.950 . S
C698 C699 1.386 . S
C698 C700 1.391 . S
C699 C698 1.386 . S
C699 C703 1.393 . S
C700 H689 0.959 . S
C700 C698 1.391 . S
C700 C701 1.400 . S
C701 C695 1.491 1_545 S
C701 C700 1.400 . S
C701 C702 1.398 . S
C702 H690 0.950 . S
C702 C701 1.398 . S
C702 C703 1.391 . S
C703 H691 0.950 . S
C703 C699 1.393 . S
C703 C702 1.391 . S
H704 C712 0.950 . S
H705 C717 0.950 . S
H706 C714 0.950 . S
H707 C716 0.950 . S
H708 C718 0.950 . S
H709 C720 0.950 . S
H710 C722 0.950 . S
H711 C723 0.950 . S
C712 H704 0.950 . S
C712 C713 1.386 . S
C712 C714 1.391 . S
C713 C712 1.386 . S
C713 C717 1.393 . S
C714 H706 0.950 . S
C714 C712 1.391 . S
C714 C715 1.400 . S
C715 C714 1.400 . S
C715 C716 1.398 . S
C715 C721 1.491 . S
C716 H707 0.950 . S
C716 C715 1.398 . S
C716 C717 1.391 . S
C717 H705 0.950 . S
C717 C713 1.393 . S
C717 C716 1.391 . S
C718 H708 0.950 . S
C718 C719 1.386 . S
C718 C720 1.391 . S
C719 C718 1.386 . S
C719 C723 1.393 . S
C720 H709 0.950 . S
C720 C718 1.391 . S
C720 C721 1.400 . S
C721 C715 1.491 . S
C721 C720 1.400 . S
C721 C722 1.398 . S
C722 H710 0.950 . S
C722 C721 1.398 . S
C722 C723 1.391 . S
C723 H711 0.950 . S
C723 C719 1.393 . S
C723 C722 1.391 . S
H724 C732 0.950 . S
H725 C737 0.950 . S
H726 C734 0.950 . S
H727 C736 0.950 1_455 S
H728 C738 0.950 . S
H729 C740 0.950 . S
H730 C742 0.950 1_655 S
H731 C743 0.950 . S
C732 H724 0.950 . S
C732 C733 1.386 . S
C732 C734 1.391 . S
C733 C732 1.386 . S
C733 C737 1.393 . S
C734 H726 0.950 . S
C734 C732 1.391 . S
C734 C735 1.400 . S
C735 C734 1.400 . S
C735 C736 1.398 . S
C735 C741 1.491 1_655 S
C736 H727 0.950 1_655 S
C736 C735 1.398 . S
C736 C737 1.391 . S
C737 H725 0.950 . S
C737 C733 1.393 . S
C737 C736 1.391 . S
C738 H728 0.950 . S
C738 C739 1.386 . S
C738 C740 1.391 . S
C739 C738 1.386 . S
C739 C743 1.393 . S
C740 H729 0.950 . S
C740 C738 1.391 . S
C740 C741 1.400 . S
C741 C735 1.491 1_455 S
C741 C740 1.400 . S
C741 C742 1.398 . S
C742 H730 0.950 1_455 S
C742 C741 1.398 . S
C742 C743 1.391 . S
C743 H731 0.950 . S
C743 C739 1.393 . S
C743 C742 1.391 . S
H744 C752 0.950 . S
H745 C757 0.950 . S
H746 C754 0.950 . S
H747 C756 0.950 . S
H748 C758 0.950 . S
H749 C760 0.950 . S
H750 C762 0.950 . S
H751 C763 0.950 . S
C752 H744 0.950 . S
C752 C753 1.386 . S
C752 C754 1.391 . S
C753 C752 1.386 . S
C753 C757 1.393 . S
C754 H746 0.950 . S
C754 C752 1.391 . S
C754 C755 1.400 . S
C755 C754 1.400 . S
C755 C756 1.398 . S
C755 C761 1.491 . S
C756 H747 0.950 . S
C756 C755 1.398 . S
C756 C757 1.391 . S
C757 H745 0.950 . S
C757 C753 1.393 . S
C757 C756 1.391 . S
C758 H748 0.950 . S
C758 C759 1.386 . S
C758 C760 1.391 . S
C759 C758 1.386 . S
C759 C763 1.393 . S
C760 H749 0.950 . S
C760 C758 1.391 . S
C760 C761 1.400 . S
C761 C755 1.491 . S
C761 C760 1.400 . S
C761 C762 1.398 . S
C762 H750 0.950 . S
C762 C761 1.398 . S
C762 C763 1.391 . S
C763 H751 0.950 . S
C763 C759 1.393 . S
C763 C762 1.391 . S
H764 C772 0.950 . S
H765 C777 0.950 . S
H766 C774 0.950 . S
H767 C776 0.950 . S
H768 C778 0.950 . S
H769 C780 0.950 . S
H770 C782 0.950 . S
H771 C783 0.950 . S
C772 H764 0.950 . S
C772 C773 1.386 . S
C772 C774 1.391 . S
C773 C772 1.386 . S
C773 C777 1.393 . S
C774 H766 0.950 . S
C774 C772 1.391 . S
C774 C775 1.400 . S
C775 C774 1.400 . S
C775 C776 1.398 . S
C775 C781 1.491 . S
C776 H767 0.950 . S
C776 C775 1.398 . S
C776 C777 1.391 . S
C777 H765 0.950 . S
C777 C773 1.393 . S
C777 C776 1.391 . S
C778 H768 0.950 . S
C778 C779 1.386 . S
C778 C780 1.391 . S
C779 C778 1.386 . S
C779 C783 1.393 . S
C780 H769 0.950 . S
C780 C778 1.391 . S
C780 C781 1.400 . S
C781 C775 1.491 . S
C781 C780 1.400 . S
C781 C782 1.398 . S
C782 H770 0.950 . S
C782 C781 1.398 . S
C782 C783 1.391 . S
C783 H771 0.950 . S
C783 C779 1.393 . S
C783 C782 1.391 . S
H784 C792 0.950 . S
H785 C797 0.950 . S
H786 C794 0.950 . S
H787 C796 0.950 . S
H788 C798 0.950 . S
H789 C800 0.950 . S
H790 C802 0.950 . S
H791 C803 0.950 . S
C792 H784 0.950 . S
C792 C793 1.386 . S
C792 C794 1.391 . S
C793 C792 1.386 . S
C793 C797 1.393 . S
C794 H786 0.950 . S
C794 C792 1.391 . S
C794 C795 1.400 . S
C795 C794 1.400 . S
C795 C796 1.398 . S
C795 C801 1.491 . S
C796 H787 0.950 . S
C796 C795 1.398 . S
C796 C797 1.391 . S
C797 H785 0.950 . S
C797 C793 1.393 . S
C797 C796 1.391 . S
C798 H788 0.950 . S
C798 C799 1.386 . S
C798 C800 1.391 . S
C799 C798 1.386 . S
C799 C803 1.393 . S
C800 H789 0.950 . S
C800 C798 1.391 . S
C800 C801 1.400 . S
C801 C795 1.491 . S
C801 C800 1.400 . S
C801 C802 1.398 . S
C802 H790 0.950 . S
C802 C801 1.398 . S
C802 C803 1.391 . S
C803 H791 0.950 . S
C803 C799 1.393 . S
C803 C802 1.391 . S
H804 C812 0.950 . S
H805 C817 0.950 . S
H806 C814 0.950 . S
H807 C816 0.950 . S
H808 C818 0.950 . S
H809 C820 0.950 . S
H810 C822 0.950 . S
H811 C823 0.950 . S
C812 H804 0.950 . S
C812 C813 1.386 . S
C812 C814 1.391 . S
C813 C812 1.386 . S
C813 C817 1.393 . S
C814 H806 0.950 . S
C814 C812 1.391 . S
C814 C815 1.400 . S
C815 C814 1.400 . S
C815 C816 1.398 . S
C815 C821 1.491 . S
C816 H807 0.950 . S
C816 C815 1.398 . S
C816 C817 1.391 . S
C817 H805 0.950 . S
C817 C813 1.393 . S
C817 C816 1.391 . S
C818 H808 0.950 . S
C818 C819 1.386 . S
C818 C820 1.391 . S
C819 C818 1.386 . S
C819 C823 1.393 . S
C820 H809 0.950 . S
C820 C818 1.391 . S
C820 C821 1.400 . S
C821 C815 1.491 . S
C821 C820 1.400 . S
C821 C822 1.398 . S
C822 H810 0.950 . S
C822 C821 1.398 . S
C822 C823 1.391 . S
C823 H811 0.950 . S
C823 C819 1.393 . S
C823 C822 1.391 . S
H824 C832 0.950 . S
H825 C837 0.950 . S
H826 C834 0.950 . S
H827 C836 0.950 . S
H828 C838 0.950 . S
H829 C840 0.950 . S
H830 C842 0.950 . S
H831 C843 0.950 . S
C832 H824 0.950 . S
C832 C833 1.386 . S
C832 C834 1.391 . S
C833 C832 1.386 . S
C833 C837 1.393 . S
C834 H826 0.950 . S
C834 C832 1.391 . S
C834 C835 1.400 . S
C835 C834 1.400 . S
C835 C836 1.398 . S
C835 C841 1.491 . S
C836 H827 0.950 . S
C836 C835 1.398 . S
C836 C837 1.391 . S
C837 H825 0.950 . S
C837 C833 1.393 . S
C837 C836 1.391 . S
C838 H828 0.950 . S
C838 C839 1.386 . S
C838 C840 1.391 . S
C839 C838 1.386 . S
C839 C843 1.393 . S
C840 H829 0.950 . S
C840 C838 1.391 . S
C840 C841 1.400 . S
C841 C835 1.491 . S
C841 C840 1.400 . S
C841 C842 1.398 . S
C842 H830 0.950 . S
C842 C841 1.398 . S
C842 C843 1.391 . S
C843 H831 0.950 . S
C843 C839 1.393 . S
C843 C842 1.391 . S
H844 C852 0.950 . S
H845 C857 0.950 . S
H846 C854 0.950 . S
H847 C856 0.950 . S
H848 C858 0.950 . S
H849 C860 0.950 . S
H850 C862 0.950 . S
H851 C863 0.950 . S
C852 H844 0.950 . S
C852 C853 1.386 . S
C852 C854 1.391 . S
C853 C852 1.386 . S
C853 C857 1.393 . S
C854 H846 0.950 . S
C854 C852 1.391 . S
C854 C855 1.400 . S
C855 C854 1.400 . S
C855 C856 1.398 . S
C855 C861 1.491 . S
C856 H847 0.950 . S
C856 C855 1.398 . S
C856 C857 1.391 . S
C857 H845 0.950 . S
C857 C853 1.393 . S
C857 C856 1.391 . S
C858 H848 0.950 . S
C858 C859 1.386 . S
C858 C860 1.391 . S
C859 C858 1.386 . S
C859 C863 1.393 . S
C860 H849 0.950 . S
C860 C858 1.391 . S
C860 C861 1.400 . S
C861 C855 1.491 . S
C861 C860 1.400 . S
C861 C862 1.398 . S
C862 H850 0.950 . S
C862 C861 1.398 . S
C862 C863 1.391 . S
C863 H851 0.950 . S
C863 C859 1.393 . S
C863 C862 1.391 . S
H864 C872 0.950 . S
H865 C877 0.950 . S
H866 C874 0.950 . S
H867 C876 0.950 . S
H868 C878 0.950 . S
H869 C880 0.950 . S
H870 C882 0.950 . S
H871 C883 0.950 . S
C872 H864 0.950 . S
C872 C873 1.386 . S
C872 C874 1.391 . S
C873 C872 1.386 . S
C873 C877 1.393 . S
C874 H866 0.950 . S
C874 C872 1.391 . S
C874 C875 1.400 . S
C875 C874 1.400 . S
C875 C876 1.398 . S
C875 C881 1.491 . S
C876 H867 0.950 . S
C876 C875 1.398 . S
C876 C877 1.391 . S
C877 H865 0.950 . S
C877 C873 1.393 . S
C877 C876 1.391 . S
C878 H868 0.950 . S
C878 C879 1.386 . S
C878 C880 1.391 . S
C879 C878 1.386 . S
C879 C883 1.393 . S
C880 H869 0.950 . S
C880 C878 1.391 . S
C880 C881 1.400 . S
C881 C875 1.491 . S
C881 C880 1.400 . S
C881 C882 1.398 . S
C882 H870 0.950 . S
C882 C881 1.398 . S
C882 C883 1.391 . S
C883 H871 0.950 . S
C883 C879 1.393 . S
C883 C882 1.391 . S
H884 C892 0.950 . S
H885 C897 0.950 . S
H886 C894 0.950 . S
H887 C896 0.950 . S
H888 C898 0.950 . S
H889 C900 0.950 . S
H890 C902 0.950 . S
H891 C903 0.950 . S
C892 H884 0.950 . S
C892 C893 1.386 . S
C892 C894 1.391 . S
C893 C892 1.386 . S
C893 C897 1.393 . S
C894 H886 0.950 . S
C894 C892 1.391 . S
C894 C895 1.400 . S
C895 C894 1.400 . S
C895 C896 1.398 . S
C895 C901 1.491 . S
C896 H887 0.950 . S
C896 C895 1.398 . S
C896 C897 1.391 . S
C897 H885 0.950 . S
C897 C893 1.393 . S
C897 C896 1.391 . S
C898 H888 0.950 . S
C898 C899 1.386 . S
C898 C900 1.391 . S
C899 C898 1.386 . S
C899 C903 1.393 . S
C900 H889 0.950 . S
C900 C898 1.391 . S
C900 C901 1.400 . S
C901 C895 1.491 . S
C901 C900 1.400 . S
C901 C902 1.398 . S
C902 H890 0.950 . S
C902 C901 1.398 . S
C902 C903 1.391 . S
C903 H891 0.950 . S
C903 C899 1.393 . S
C903 C902 1.391 . S
H904 C912 0.950 . S
H905 C917 0.950 . S
H906 C914 0.950 . S
H907 C916 0.950 . S
H908 C918 0.950 . S
H909 C920 0.950 . S
H910 C922 0.950 . S
H911 C923 0.950 . S
C912 H904 0.950 . S
C912 C913 1.386 . S
C912 C914 1.391 . S
C913 C912 1.386 . S
C913 C917 1.393 . S
C914 H906 0.950 . S
C914 C912 1.391 . S
C914 C915 1.400 . S
C915 C914 1.400 . S
C915 C916 1.398 . S
C915 C921 1.491 . S
C916 H907 0.950 . S
C916 C915 1.398 . S
C916 C917 1.391 . S
C917 H905 0.950 . S
C917 C913 1.393 . S
C917 C916 1.391 . S
C918 H908 0.950 . S
C918 C919 1.386 . S
C918 C920 1.391 . S
C919 C918 1.386 . S
C919 C923 1.393 . S
C920 H909 0.950 . S
C920 C918 1.391 . S
C920 C921 1.400 . S
C921 C915 1.491 . S
C921 C920 1.400 . S
C921 C922 1.398 . S
C922 H910 0.950 . S
C922 C921 1.398 . S
C922 C923 1.391 . S
C923 H911 0.950 . S
C923 C919 1.393 . S
C923 C922 1.391 . S
H924 C932 0.950 . S
H925 C937 0.950 . S
H926 C934 0.950 . S
H927 C936 0.950 . S
H928 C938 0.950 . S
H929 C940 0.950 . S
H930 C942 0.950 . S
H931 C943 0.950 . S
C932 H924 0.950 . S
C932 C933 1.386 . S
C932 C934 1.391 . S
C933 C932 1.386 . S
C933 C937 1.393 . S
C934 H926 0.950 . S
C934 C932 1.391 . S
C934 C935 1.400 . S
C935 C934 1.400 . S
C935 C936 1.398 . S
C935 C941 1.491 . S
C936 H927 0.950 . S
C936 C935 1.398 . S
C936 C937 1.391 . S
C937 H925 0.950 . S
C937 C933 1.393 . S
C937 C936 1.391 . S
C938 H928 0.950 . S
C938 C939 1.386 . S
C938 C940 1.391 . S
C939 C938 1.386 . S
C939 C943 1.393 . S
C940 H929 0.950 . S
C940 C938 1.391 . S
C940 C941 1.400 . S
C941 C935 1.491 . S
C941 C940 1.400 . S
C941 C942 1.398 . S
C942 H930 0.950 . S
C942 C941 1.398 . S
C942 C943 1.391 . S
C943 H931 0.950 . S
C943 C939 1.393 . S
C943 C942 1.391 . S
H944 C952 0.950 . S
H945 C957 0.950 . S
H946 C954 0.950 . S
H947 C956 0.950 . S
H948 C958 0.950 . S
H949 C960 0.950 . S
H950 C962 0.950 . S
H951 C963 0.950 . S
C952 H944 0.950 . S
C952 C953 1.386 . S
C952 C954 1.391 . S
C953 C952 1.386 . S
C953 C957 1.393 . S
C954 H946 0.950 . S
C954 C952 1.391 . S
C954 C955 1.400 . S
C955 C954 1.400 . S
C955 C956 1.398 . S
C955 C961 1.491 . S
C956 H947 0.950 . S
C956 C955 1.398 . S
C956 C957 1.391 . S
C957 H945 0.950 . S
C957 C953 1.393 . S
C957 C956 1.391 . S
C958 H948 0.950 . S
C958 C959 1.386 . S
C958 C960 1.391 . S
C959 C958 1.386 . S
C959 C963 1.393 . S
C960 H949 0.950 . S
C960 C958 1.391 . S
C960 C961 1.400 . S
C961 C955 1.491 . S
C961 C960 1.400 . S
C961 C962 1.398 . S
C962 H950 0.950 . S
C962 C961 1.398 . S
C962 C963 1.391 . S
C963 H951 0.950 . S
C963 C959 1.393 . S
C963 C962 1.391 . S
H964 C972 0.950 . S
H965 C977 0.950 . S
H966 C974 0.950 . S
H967 C976 0.950 . S
H968 C978 0.950 . S
H969 C980 0.950 . S
H970 C982 0.950 . S
H971 C983 0.950 . S
C972 H964 0.950 . S
C972 C973 1.386 . S
C972 C974 1.391 . S
C973 C972 1.386 . S
C973 C977 1.393 . S
C974 H966 0.950 . S
C974 C972 1.391 . S
C974 C975 1.400 . S
C975 C974 1.400 . S
C975 C976 1.398 . S
C975 C981 1.491 . S
C976 H967 0.950 . S
C976 C975 1.398 . S
C976 C977 1.391 . S
C977 H965 0.950 . S
C977 C973 1.393 . S
C977 C976 1.391 . S
C978 H968 0.950 . S
C978 C979 1.386 . S
C978 C980 1.391 . S
C979 C978 1.386 . S
C979 C983 1.393 . S
C980 H969 0.950 . S
C980 C978 1.391 . S
C980 C981 1.400 . S
C981 C975 1.491 . S
C981 C980 1.400 . S
C981 C982 1.398 . S
C982 H970 0.950 . S
C982 C981 1.398 . S
C982 C983 1.391 . S
C983 H971 0.950 . S
C983 C979 1.393 . S
C983 C982 1.391 . S
C273 C7 1.238 . S
C279 C182 1.241 . S
C293 C204 1.232 . S
C299 C29 1.233 . S
C313 C51 1.234 . S
C319 C226 1.237 . S
C333 C248 1.240 . S
C339 C73 1.243 . S
C353 C95 1.232 . S
C359 C138 1.229 . S
C373 C160 1.231 . S
C379 C117 1.233 . S
C393 C251 1.246 . S
C399 C71 1.248 . S
C413 C93 1.244 . S
C419 C141 1.248 . S
C433 C163 1.231 . S
C439 C115 1.236 . S
C453 C185 1.231 . S
C459 C5 1.235 . S
C473 C207 1.246 . S
C479 C27 1.249 . S
C493 C49 1.247 . S
C499 C229 1.248 . S
C513 C159 1.300 . S
C519 C9 1.291 . S
C533 C181 1.310 . S
C539 C31 1.305 . S
C553 C203 1.294 . S
C559 C53 1.290 . S
C573 C75 1.299 . S
C579 C225 1.306 . S
C593 C97 1.302 . S
C599 C247 1.308 . S
C613 C137 1.306 . S
C619 C119 1.309 . S
C633 C227 1.296 . S
C639 C72 1.293 . S
C653 C94 1.310 . S
C659 C249 1.310 . S
C673 C139 1.295 . S
C679 C116 1.293 . S
C693 C161 1.311 . S
C699 C6 1.309 . S
C713 C28 1.297 . S
C719 C183 1.293 . S
C733 C50 1.296 . S
C739 C205 1.308 . S
C753 C8 1.544 . S
C759 C224 1.544 . S
C773 C30 1.556 . S
C779 C246 1.551 . S
C793 C136 1.547 . S
C799 C52 1.549 . S
C813 C158 1.543 . S
C819 C74 1.543 . S
C833 C96 1.544 . S
C839 C180 1.543 . S
C853 C202 1.558 . S
C859 C118 1.558 . S
C873 C70 1.551 . S
C879 C162 1.556 . S
C893 C92 1.559 . S
C899 C184 1.560 . S
C913 C206 1.559 . S
C919 C114 1.560 . S
C933 C228 1.550 . S
C939 C4 1.549 . S
C953 C250 1.547 . S
C959 C26 1.552 . S
C973 C140 1.554 . S
C979 C48 1.559 . S
